# Generated by pormake.
# Topology bcu-l, (5)-cn, num edge types: 1
# Building blocks:
#     Node 0, Type 0, BuildingBlock: BEQFEK_clean_sbu_0, # of connection points: 5
#     Node 1, Type 0, BuildingBlock: BEQFEK_clean_sbu_0, # of connection points: 5
#     Node 2, Type 0, BuildingBlock: BEQFEK_clean_sbu_0, # of connection points: 5
#     Node 3, Type 0, BuildingBlock: BEQFEK_clean_sbu_0, # of connection points: 5
#     Node 4, Type 0, BuildingBlock: BEQFEK_clean_sbu_0, # of connection points: 5
#     Node 5, Type 0, BuildingBlock: BEQFEK_clean_sbu_0, # of connection points: 5
#     Node 6, Type 0, BuildingBlock: BEQFEK_clean_sbu_0, # of connection points: 5
#     Node 7, Type 0, BuildingBlock: BEQFEK_clean_sbu_0, # of connection points: 5
#     Node 8, Type 0, BuildingBlock: BEQFEK_clean_sbu_0, # of connection points: 5
#     Node 9, Type 0, BuildingBlock: BEQFEK_clean_sbu_0, # of connection points: 5
#     Node 10, Type 0, BuildingBlock: BEQFEK_clean_sbu_0, # of connection points: 5
#     Node 11, Type 0, BuildingBlock: BEQFEK_clean_sbu_0, # of connection points: 5
#     Node 12, Type 0, BuildingBlock: BEQFEK_clean_sbu_0, # of connection points: 5
#     Node 13, Type 0, BuildingBlock: BEQFEK_clean_sbu_0, # of connection points: 5
#     Node 14, Type 0, BuildingBlock: BEQFEK_clean_sbu_0, # of connection points: 5
#     Node 15, Type 0, BuildingBlock: BEQFEK_clean_sbu_0, # of connection points: 5
#     Node 16, Type 0, BuildingBlock: BEQFEK_clean_sbu_0, # of connection points: 5
#     Node 17, Type 0, BuildingBlock: BEQFEK_clean_sbu_0, # of connection points: 5
#     Node 18, Type 0, BuildingBlock: BEQFEK_clean_sbu_0, # of connection points: 5
#     Node 19, Type 0, BuildingBlock: BEQFEK_clean_sbu_0, # of connection points: 5
#     Node 20, Type 0, BuildingBlock: BEQFEK_clean_sbu_0, # of connection points: 5
#     Node 21, Type 0, BuildingBlock: BEQFEK_clean_sbu_0, # of connection points: 5
#     Node 22, Type 0, BuildingBlock: BEQFEK_clean_sbu_0, # of connection points: 5
#     Node 23, Type 0, BuildingBlock: BEQFEK_clean_sbu_0, # of connection points: 5
#     Node 24, Type 0, BuildingBlock: BEQFEK_clean_sbu_0, # of connection points: 5
#     Node 25, Type 0, BuildingBlock: BEQFEK_clean_sbu_0, # of connection points: 5
#     Node 26, Type 0, BuildingBlock: BEQFEK_clean_sbu_0, # of connection points: 5
#     Node 27, Type 0, BuildingBlock: BEQFEK_clean_sbu_0, # of connection points: 5
#     Node 28, Type 0, BuildingBlock: BEQFEK_clean_sbu_0, # of connection points: 5
#     Node 29, Type 0, BuildingBlock: BEQFEK_clean_sbu_0, # of connection points: 5
#     Node 30, Type 0, BuildingBlock: BEQFEK_clean_sbu_0, # of connection points: 5
#     Node 31, Type 0, BuildingBlock: BEQFEK_clean_sbu_0, # of connection points: 5
#     Node 32, Type 0, BuildingBlock: BEQFEK_clean_sbu_0, # of connection points: 5
#     Node 33, Type 0, BuildingBlock: BEQFEK_clean_sbu_0, # of connection points: 5
#     Node 34, Type 0, BuildingBlock: BEQFEK_clean_sbu_0, # of connection points: 5
#     Node 35, Type 0, BuildingBlock: BEQFEK_clean_sbu_0, # of connection points: 5
#     Node 36, Type 0, BuildingBlock: BEQFEK_clean_sbu_0, # of connection points: 5
#     Node 37, Type 0, BuildingBlock: BEQFEK_clean_sbu_0, # of connection points: 5
#     Node 38, Type 0, BuildingBlock: BEQFEK_clean_sbu_0, # of connection points: 5
#     Node 39, Type 0, BuildingBlock: BEQFEK_clean_sbu_0, # of connection points: 5
#     Node 40, Type 0, BuildingBlock: BEQFEK_clean_sbu_0, # of connection points: 5
#     Node 41, Type 0, BuildingBlock: BEQFEK_clean_sbu_0, # of connection points: 5
#     Node 42, Type 0, BuildingBlock: BEQFEK_clean_sbu_0, # of connection points: 5
#     Node 43, Type 0, BuildingBlock: BEQFEK_clean_sbu_0, # of connection points: 5
#     Node 44, Type 0, BuildingBlock: BEQFEK_clean_sbu_0, # of connection points: 5
#     Node 45, Type 0, BuildingBlock: BEQFEK_clean_sbu_0, # of connection points: 5
#     Node 46, Type 0, BuildingBlock: BEQFEK_clean_sbu_0, # of connection points: 5
#     Node 47, Type 0, BuildingBlock: BEQFEK_clean_sbu_0, # of connection points: 5
#     Edge 48, Type (0, 0), BuildingBlock: OJICUG_clean_linker_0, # of connection points: 2
#     Edge 49, Type (0, 0), BuildingBlock: OJICUG_clean_linker_0, # of connection points: 2
#     Edge 50, Type (0, 0), BuildingBlock: OJICUG_clean_linker_0, # of connection points: 2
#     Edge 51, Type (0, 0), BuildingBlock: OJICUG_clean_linker_0, # of connection points: 2
#     Edge 52, Type (0, 0), BuildingBlock: OJICUG_clean_linker_0, # of connection points: 2
#     Edge 53, Type (0, 0), BuildingBlock: OJICUG_clean_linker_0, # of connection points: 2
#     Edge 54, Type (0, 0), BuildingBlock: OJICUG_clean_linker_0, # of connection points: 2
#     Edge 55, Type (0, 0), BuildingBlock: OJICUG_clean_linker_0, # of connection points: 2
#     Edge 56, Type (0, 0), BuildingBlock: OJICUG_clean_linker_0, # of connection points: 2
#     Edge 57, Type (0, 0), BuildingBlock: OJICUG_clean_linker_0, # of connection points: 2
#     Edge 58, Type (0, 0), BuildingBlock: OJICUG_clean_linker_0, # of connection points: 2
#     Edge 59, Type (0, 0), BuildingBlock: OJICUG_clean_linker_0, # of connection points: 2
#     Edge 60, Type (0, 0), BuildingBlock: OJICUG_clean_linker_0, # of connection points: 2
#     Edge 61, Type (0, 0), BuildingBlock: OJICUG_clean_linker_0, # of connection points: 2
#     Edge 62, Type (0, 0), BuildingBlock: OJICUG_clean_linker_0, # of connection points: 2
#     Edge 63, Type (0, 0), BuildingBlock: OJICUG_clean_linker_0, # of connection points: 2
#     Edge 64, Type (0, 0), BuildingBlock: OJICUG_clean_linker_0, # of connection points: 2
#     Edge 65, Type (0, 0), BuildingBlock: OJICUG_clean_linker_0, # of connection points: 2
#     Edge 66, Type (0, 0), BuildingBlock: OJICUG_clean_linker_0, # of connection points: 2
#     Edge 67, Type (0, 0), BuildingBlock: OJICUG_clean_linker_0, # of connection points: 2
#     Edge 68, Type (0, 0), BuildingBlock: OJICUG_clean_linker_0, # of connection points: 2
#     Edge 69, Type (0, 0), BuildingBlock: OJICUG_clean_linker_0, # of connection points: 2
#     Edge 70, Type (0, 0), BuildingBlock: OJICUG_clean_linker_0, # of connection points: 2
#     Edge 71, Type (0, 0), BuildingBlock: OJICUG_clean_linker_0, # of connection points: 2
#     Edge 72, Type (0, 0), BuildingBlock: OJICUG_clean_linker_0, # of connection points: 2
#     Edge 73, Type (0, 0), BuildingBlock: OJICUG_clean_linker_0, # of connection points: 2
#     Edge 74, Type (0, 0), BuildingBlock: OJICUG_clean_linker_0, # of connection points: 2
#     Edge 75, Type (0, 0), BuildingBlock: OJICUG_clean_linker_0, # of connection points: 2
#     Edge 76, Type (0, 0), BuildingBlock: OJICUG_clean_linker_0, # of connection points: 2
#     Edge 77, Type (0, 0), BuildingBlock: OJICUG_clean_linker_0, # of connection points: 2
#     Edge 78, Type (0, 0), BuildingBlock: OJICUG_clean_linker_0, # of connection points: 2
#     Edge 79, Type (0, 0), BuildingBlock: OJICUG_clean_linker_0, # of connection points: 2
#     Edge 80, Type (0, 0), BuildingBlock: OJICUG_clean_linker_0, # of connection points: 2
#     Edge 81, Type (0, 0), BuildingBlock: OJICUG_clean_linker_0, # of connection points: 2
#     Edge 82, Type (0, 0), BuildingBlock: OJICUG_clean_linker_0, # of connection points: 2
#     Edge 83, Type (0, 0), BuildingBlock: OJICUG_clean_linker_0, # of connection points: 2
#     Edge 84, Type (0, 0), BuildingBlock: OJICUG_clean_linker_0, # of connection points: 2
#     Edge 85, Type (0, 0), BuildingBlock: OJICUG_clean_linker_0, # of connection points: 2
#     Edge 86, Type (0, 0), BuildingBlock: OJICUG_clean_linker_0, # of connection points: 2
#     Edge 87, Type (0, 0), BuildingBlock: OJICUG_clean_linker_0, # of connection points: 2
#     Edge 88, Type (0, 0), BuildingBlock: OJICUG_clean_linker_0, # of connection points: 2
#     Edge 89, Type (0, 0), BuildingBlock: OJICUG_clean_linker_0, # of connection points: 2
#     Edge 90, Type (0, 0), BuildingBlock: OJICUG_clean_linker_0, # of connection points: 2
#     Edge 91, Type (0, 0), BuildingBlock: OJICUG_clean_linker_0, # of connection points: 2
#     Edge 92, Type (0, 0), BuildingBlock: OJICUG_clean_linker_0, # of connection points: 2
#     Edge 93, Type (0, 0), BuildingBlock: OJICUG_clean_linker_0, # of connection points: 2
#     Edge 94, Type (0, 0), BuildingBlock: OJICUG_clean_linker_0, # of connection points: 2
#     Edge 95, Type (0, 0), BuildingBlock: OJICUG_clean_linker_0, # of connection points: 2
#     Edge 96, Type (0, 0), BuildingBlock: OJICUG_clean_linker_0, # of connection points: 2
#     Edge 97, Type (0, 0), BuildingBlock: OJICUG_clean_linker_0, # of connection points: 2
#     Edge 98, Type (0, 0), BuildingBlock: OJICUG_clean_linker_0, # of connection points: 2
#     Edge 99, Type (0, 0), BuildingBlock: OJICUG_clean_linker_0, # of connection points: 2
#     Edge 100, Type (0, 0), BuildingBlock: OJICUG_clean_linker_0, # of connection points: 2
#     Edge 101, Type (0, 0), BuildingBlock: OJICUG_clean_linker_0, # of connection points: 2
#     Edge 102, Type (0, 0), BuildingBlock: OJICUG_clean_linker_0, # of connection points: 2
#     Edge 103, Type (0, 0), BuildingBlock: OJICUG_clean_linker_0, # of connection points: 2
#     Edge 104, Type (0, 0), BuildingBlock: OJICUG_clean_linker_0, # of connection points: 2
#     Edge 105, Type (0, 0), BuildingBlock: OJICUG_clean_linker_0, # of connection points: 2
#     Edge 106, Type (0, 0), BuildingBlock: OJICUG_clean_linker_0, # of connection points: 2
#     Edge 107, Type (0, 0), BuildingBlock: OJICUG_clean_linker_0, # of connection points: 2
#     Edge 108, Type (0, 0), BuildingBlock: OJICUG_clean_linker_0, # of connection points: 2
#     Edge 109, Type (0, 0), BuildingBlock: OJICUG_clean_linker_0, # of connection points: 2
#     Edge 110, Type (0, 0), BuildingBlock: OJICUG_clean_linker_0, # of connection points: 2
#     Edge 111, Type (0, 0), BuildingBlock: OJICUG_clean_linker_0, # of connection points: 2
#     Edge 112, Type (0, 0), BuildingBlock: OJICUG_clean_linker_0, # of connection points: 2
#     Edge 113, Type (0, 0), BuildingBlock: OJICUG_clean_linker_0, # of connection points: 2
#     Edge 114, Type (0, 0), BuildingBlock: OJICUG_clean_linker_0, # of connection points: 2
#     Edge 115, Type (0, 0), BuildingBlock: OJICUG_clean_linker_0, # of connection points: 2
#     Edge 116, Type (0, 0), BuildingBlock: OJICUG_clean_linker_0, # of connection points: 2
#     Edge 117, Type (0, 0), BuildingBlock: OJICUG_clean_linker_0, # of connection points: 2
#     Edge 118, Type (0, 0), BuildingBlock: OJICUG_clean_linker_0, # of connection points: 2
#     Edge 119, Type (0, 0), BuildingBlock: OJICUG_clean_linker_0, # of connection points: 2
#     Edge 120, Type (0, 0), BuildingBlock: OJICUG_clean_linker_0, # of connection points: 2
#     Edge 121, Type (0, 0), BuildingBlock: OJICUG_clean_linker_0, # of connection points: 2
#     Edge 122, Type (0, 0), BuildingBlock: OJICUG_clean_linker_0, # of connection points: 2
#     Edge 123, Type (0, 0), BuildingBlock: OJICUG_clean_linker_0, # of connection points: 2
#     Edge 124, Type (0, 0), BuildingBlock: OJICUG_clean_linker_0, # of connection points: 2
#     Edge 125, Type (0, 0), BuildingBlock: OJICUG_clean_linker_0, # of connection points: 2
#     Edge 126, Type (0, 0), BuildingBlock: OJICUG_clean_linker_0, # of connection points: 2
#     Edge 127, Type (0, 0), BuildingBlock: OJICUG_clean_linker_0, # of connection points: 2
#     Edge 128, Type (0, 0), BuildingBlock: OJICUG_clean_linker_0, # of connection points: 2
#     Edge 129, Type (0, 0), BuildingBlock: OJICUG_clean_linker_0, # of connection points: 2
#     Edge 130, Type (0, 0), BuildingBlock: OJICUG_clean_linker_0, # of connection points: 2
#     Edge 131, Type (0, 0), BuildingBlock: OJICUG_clean_linker_0, # of connection points: 2
#     Edge 132, Type (0, 0), BuildingBlock: OJICUG_clean_linker_0, # of connection points: 2
#     Edge 133, Type (0, 0), BuildingBlock: OJICUG_clean_linker_0, # of connection points: 2
#     Edge 134, Type (0, 0), BuildingBlock: OJICUG_clean_linker_0, # of connection points: 2
#     Edge 135, Type (0, 0), BuildingBlock: OJICUG_clean_linker_0, # of connection points: 2
#     Edge 136, Type (0, 0), BuildingBlock: OJICUG_clean_linker_0, # of connection points: 2
#     Edge 137, Type (0, 0), BuildingBlock: OJICUG_clean_linker_0, # of connection points: 2
#     Edge 138, Type (0, 0), BuildingBlock: OJICUG_clean_linker_0, # of connection points: 2
#     Edge 139, Type (0, 0), BuildingBlock: OJICUG_clean_linker_0, # of connection points: 2
#     Edge 140, Type (0, 0), BuildingBlock: OJICUG_clean_linker_0, # of connection points: 2
#     Edge 141, Type (0, 0), BuildingBlock: OJICUG_clean_linker_0, # of connection points: 2
#     Edge 142, Type (0, 0), BuildingBlock: OJICUG_clean_linker_0, # of connection points: 2
#     Edge 143, Type (0, 0), BuildingBlock: OJICUG_clean_linker_0, # of connection points: 2
#     Edge 144, Type (0, 0), BuildingBlock: OJICUG_clean_linker_0, # of connection points: 2
#     Edge 145, Type (0, 0), BuildingBlock: OJICUG_clean_linker_0, # of connection points: 2
#     Edge 146, Type (0, 0), BuildingBlock: OJICUG_clean_linker_0, # of connection points: 2
#     Edge 147, Type (0, 0), BuildingBlock: OJICUG_clean_linker_0, # of connection points: 2
#     Edge 148, Type (0, 0), BuildingBlock: OJICUG_clean_linker_0, # of connection points: 2
#     Edge 149, Type (0, 0), BuildingBlock: OJICUG_clean_linker_0, # of connection points: 2
#     Edge 150, Type (0, 0), BuildingBlock: OJICUG_clean_linker_0, # of connection points: 2
#     Edge 151, Type (0, 0), BuildingBlock: OJICUG_clean_linker_0, # of connection points: 2
#     Edge 152, Type (0, 0), BuildingBlock: OJICUG_clean_linker_0, # of connection points: 2
#     Edge 153, Type (0, 0), BuildingBlock: OJICUG_clean_linker_0, # of connection points: 2
#     Edge 154, Type (0, 0), BuildingBlock: OJICUG_clean_linker_0, # of connection points: 2
#     Edge 155, Type (0, 0), BuildingBlock: OJICUG_clean_linker_0, # of connection points: 2
#     Edge 156, Type (0, 0), BuildingBlock: OJICUG_clean_linker_0, # of connection points: 2
#     Edge 157, Type (0, 0), BuildingBlock: OJICUG_clean_linker_0, # of connection points: 2
#     Edge 158, Type (0, 0), BuildingBlock: OJICUG_clean_linker_0, # of connection points: 2
#     Edge 159, Type (0, 0), BuildingBlock: OJICUG_clean_linker_0, # of connection points: 2
#     Edge 160, Type (0, 0), BuildingBlock: OJICUG_clean_linker_0, # of connection points: 2
#     Edge 161, Type (0, 0), BuildingBlock: OJICUG_clean_linker_0, # of connection points: 2
#     Edge 162, Type (0, 0), BuildingBlock: OJICUG_clean_linker_0, # of connection points: 2
#     Edge 163, Type (0, 0), BuildingBlock: OJICUG_clean_linker_0, # of connection points: 2
#     Edge 164, Type (0, 0), BuildingBlock: OJICUG_clean_linker_0, # of connection points: 2
#     Edge 165, Type (0, 0), BuildingBlock: OJICUG_clean_linker_0, # of connection points: 2
#     Edge 166, Type (0, 0), BuildingBlock: OJICUG_clean_linker_0, # of connection points: 2
#     Edge 167, Type (0, 0), BuildingBlock: OJICUG_clean_linker_0, # of connection points: 2
# Relax obj value: 0.137
# Max RMSD: 0.105
# Mean RMSD: 0.105
data_MOF--net-bcu-l--node1-BEQFEK_clean_sbu_0--edge1-OJICUG_clean_linker_0
_symmetry_space_group_name_H-M    P1
_symmetry_Int_Tables_number       1
_symmetry_cell_setting            triclinic
loop_
_symmetry_equiv_pos_as_xyz
'x, y, z'
_cell_length_a     51.36796
_cell_length_b     51.357415
_cell_length_c     51.362568
_cell_angle_alpha  90.018302
_cell_angle_beta   89.997189
_cell_angle_gamma 89.982534
loop_
_atom_site_label
_atom_site_type_symbol
_atom_site_fract_x
_atom_site_fract_y
_atom_site_fract_z
_atom_type_partial_charge
Co0 Co 0.03958 0.26081 0.3974 0.0
Co1 Co 0.99841 0.22472 0.3717 0.0
C2 C 0.98365 0.26296 0.41393 0.0
O3 O 1.00731 0.26957 0.41564 0.0
O4 O 0.9766 0.24566 0.39759 0.0
C5 C 0.06841 0.26924 0.44095 0.0
O6 O 0.0549 0.24861 0.44772 0.0
C7 C 0.96543 0.17898 0.37583 0.0
C8 C 0.95699 0.16851 0.33506 0.0
C9 C 0.95294 0.16024 0.36054 0.0
N10 N 0.97634 0.19687 0.3601 0.0
N11 N 0.97102 0.19067 0.33574 0.0
C12 C 0.96954 0.17907 0.40469 0.0
H13 H 0.98538 0.19272 0.4101 0.0
H14 H 0.97454 0.15925 0.4117 0.0
H15 H 0.95146 0.18571 0.41447 0.0
C16 C 0.07072 0.2136 0.39663 0.0
N17 N 0.04722 0.22521 0.39576 0.0
N18 N 0.03008 0.20929 0.3854 0.0
C19 C 0.04224 0.18645 0.38005 0.0
C20 C 0.0684 0.18844 0.38714 0.0
C21 C 0.09577 0.22823 0.40014 0.0
H22 H 0.10102 0.22845 0.42108 0.0
H23 H 0.11199 0.21912 0.38918 0.0
H24 H 0.09366 0.24852 0.39315 0.0
O25 O 0.03955 0.27307 0.36154 0.0
O26 O 1.00963 0.24821 0.34187 0.0
H27 H 0.04339 0.14758 0.3634 0.0
H28 H 1.01307 0.15697 0.37751 0.0
C29 C 0.0298 0.16413 0.36603 0.0
H30 H 0.02257 0.17076 0.3468 0.0
H31 H 0.97755 0.20112 0.3196 0.0
O32 O 0.06569 0.27876 0.41833 0.0
C33 C 0.02709 0.26607 0.34127 0.0
Co34 Co 0.82109 0.03988 0.39716 0.0
Co35 Co 0.85638 0.99824 0.37128 0.0
C36 C 0.81791 0.98393 0.41342 0.0
O37 O 0.81167 1.0077 0.41528 0.0
O38 O 0.83508 0.97671 0.39703 0.0
C39 C 0.81298 0.06875 0.44077 0.0
O40 O 0.83339 0.05494 0.44761 0.0
C41 C 0.90112 0.96391 0.37539 0.0
C42 C 0.91136 0.95522 0.33461 0.0
C43 C 0.91938 0.95077 0.3601 0.0
N44 N 0.88368 0.97553 0.35967 0.0
N45 N 0.88973 0.97006 0.3353 0.0
C46 C 0.9012 0.96789 0.40428 0.0
H47 H 0.88836 0.98438 0.40974 0.0
H48 H 0.92124 0.9718 0.41134 0.0
H49 H 0.89365 0.95011 0.41394 0.0
C50 C 0.86891 0.07016 0.3967 0.0
N51 N 0.85684 0.0469 0.39564 0.0
N52 N 0.87245 0.02951 0.38518 0.0
C53 C 0.89551 0.04124 0.37994 0.0
C54 C 0.89404 0.06741 0.38723 0.0
C55 C 0.85477 0.09548 0.40037 0.0
H56 H 0.83445 0.09382 0.39336 0.0
H57 H 0.85463 0.1006 0.42135 0.0
H58 H 0.86419 0.11159 0.38953 0.0
O59 O 0.80887 0.04031 0.36128 0.0
O60 O 0.83318 1.01006 0.34144 0.0
H61 H 0.91082 0.02165 0.34647 0.0
H62 H 0.93445 0.04163 0.36348 0.0
C63 C 0.91756 0.02842 0.36584 0.0
H64 H 0.92421 1.0113 0.37707 0.0
H65 H 0.87952 0.97699 0.31916 0.0
O66 O 0.80353 0.06622 0.4181 0.0
C67 C 0.81566 0.02787 0.34092 0.0
Co68 Co 0.0429 0.8196 0.39516 0.0
Co69 Co 0.08256 0.85799 0.37071 0.0
C70 C 0.09936 0.81835 0.41042 0.0
O71 O 0.07642 0.80938 0.41082 0.0
O72 O 0.10488 0.83825 0.3967 0.0
C73 C 1.01633 0.81004 0.4396 0.0
O74 O 0.03035 0.83044 0.44603 0.0
C75 C 0.11513 0.90401 0.37483 0.0
C76 C 0.12295 0.91493 0.33406 0.0
C77 C 0.12751 0.92283 0.35958 0.0
N78 N 0.10384 0.88639 0.35906 0.0
N79 N 0.10875 0.89287 0.3347 0.0
C80 C 0.11161 0.90349 0.40378 0.0
H81 H 0.09573 0.88994 0.40928 0.0
H82 H 0.10693 0.92324 0.41121 0.0
H83 H 0.12982 0.89651 0.41307 0.0
C84 C 1.01062 0.86635 0.39646 0.0
N85 N 0.03445 0.85539 0.39513 0.0
N86 N 0.05098 0.87214 0.38509 0.0
C87 C 0.03819 0.89474 0.38044 0.0
C88 C 1.01212 0.89181 0.3875 0.0
C89 C 0.98604 0.85094 0.39994 0.0
H90 H 0.98859 0.83094 0.39229 0.0
H91 H 0.98126 0.84988 0.42097 0.0
H92 H 0.96936 0.85996 0.38963 0.0
O93 O 0.04148 0.80884 0.35909 0.0
O94 O 0.07158 0.83432 0.34052 0.0
H95 H 0.0567 0.912 0.34731 0.0
H96 H 0.03615 0.93425 0.36548 0.0
C97 C 0.04999 0.91776 0.36702 0.0
H98 H 0.06699 0.92463 0.37827 0.0
H99 H 0.10199 0.88258 0.31854 0.0
O100 O 1.01787 0.80089 0.4167 0.0
C101 C 0.05405 0.81654 0.33917 0.0
Co102 Co 0.26046 0.04259 0.39767 0.0
Co103 Co 0.22533 0.08414 0.37144 0.0
C104 C 0.26315 0.09854 0.41409 0.0
O105 O 0.2694 0.07478 0.4161 0.0
O106 O 0.24622 0.1057 0.39745 0.0
C107 C 0.26831 1.0132 0.44111 0.0
O108 O 0.24766 0.02665 0.44796 0.0
C109 C 0.1802 0.11774 0.37532 0.0
C110 C 0.16989 0.12627 0.33453 0.0
C111 C 0.16164 0.13041 0.36001 0.0
N112 N 0.19797 0.10661 0.35963 0.0
N113 N 0.1919 0.112 0.33525 0.0
C114 C 0.18013 0.11356 0.40419 0.0
H115 H 0.19353 0.09751 0.40961 0.0
H116 H 0.16022 0.10883 0.41112 0.0
H117 H 0.18698 0.13152 0.41403 0.0
C118 C 0.21277 1.01204 0.39637 0.0
N119 N 0.22479 0.03533 0.39554 0.0
N120 N 0.20926 0.05271 0.38497 0.0
C121 C 0.18627 0.04095 0.37946 0.0
C122 C 0.18774 1.01477 0.38664 0.0
C123 C 0.2269 0.98673 0.40017 0.0
H124 H 0.24732 0.98845 0.39348 0.0
H125 H 0.22671 0.98155 0.42113 0.0
H126 H 0.21765 0.97065 0.38913 0.0
O127 O 0.27327 0.04256 0.362 0.0
O128 O 0.24905 0.07272 0.34194 0.0
H129 H 0.17108 0.06091 0.34615 0.0
H130 H 0.14746 0.04051 0.36264 0.0
C131 C 0.16423 0.05379 0.36535 0.0
H132 H 0.1573 0.07064 0.37682 0.0
H133 H 0.20231 0.10531 0.31913 0.0
O134 O 0.27795 1.0162 0.41858 0.0
C135 C 0.26676 0.0551 0.34164 0.0
Co136 Co 0.04122 0.82137 0.68545 0.0
Co137 Co 0.99965 0.85675 0.71145 0.0
C138 C 0.98521 0.81854 0.66918 0.0
O139 O 1.00894 0.81218 0.66745 0.0
O140 O 0.97799 0.83574 0.68554 0.0
C141 C 0.06952 0.81388 0.64147 0.0
O142 O 0.05556 0.83437 0.63519 0.0
C143 C 0.966 0.90187 0.70749 0.0
C144 C 0.95733 0.91216 0.74826 0.0
C145 C 0.95315 0.92037 0.72278 0.0
N146 N 0.97721 0.88418 0.72321 0.0
N147 N 0.97176 0.89025 0.74758 0.0
C148 C 0.97014 0.90187 0.67863 0.0
H149 H 0.9862 0.88849 0.67321 0.0
H150 H 0.97481 0.92177 0.67164 0.0
H151 H 0.95218 0.89494 0.66883 0.0
C152 C 0.0716 0.86904 0.68613 0.0
N153 N 0.0483 0.85707 0.68716 0.0
N154 N 0.03098 0.87272 0.69767 0.0
C155 C 0.04282 0.89572 0.70298 0.0
C156 C 0.06895 0.89415 0.69567 0.0
C157 C 0.09685 0.85479 0.6824 0.0
H158 H 0.09509 0.83443 0.68928 0.0
H159 H 0.10199 0.85476 0.66143 0.0
H160 H 0.11299 0.86409 0.69332 0.0
O161 O 0.04167 0.80898 0.72127 0.0
O162 O 1.01139 0.83329 0.74109 0.0
H163 H 0.02307 0.911 0.73639 0.0
H164 H 0.04352 0.93452 0.71982 0.0
C165 C 0.03014 0.91782 0.71716 0.0
H166 H 1.01326 0.92482 0.70579 0.0
H167 H 0.97845 0.87988 0.76371 0.0
O168 O 0.06735 0.80402 0.66401 0.0
C169 C 0.02916 0.81573 0.74161 0.0
Co170 Co 0.26127 0.03972 0.68385 0.0
Co171 Co 0.22583 0.99864 0.71025 0.0
C172 C 0.26359 0.98368 0.66766 0.0
O173 O 0.27001 1.00738 0.66558 0.0
O174 O 0.24659 0.97673 0.68434 0.0
C175 C 0.26942 0.06871 0.64028 0.0
O176 O 0.24874 0.0553 0.63347 0.0
C177 C 0.18041 0.96545 0.70662 0.0
C178 C 0.17028 0.95699 0.74748 0.0
C179 C 0.16187 0.95287 0.72205 0.0
N180 N 0.19832 0.97647 0.72222 0.0
N181 N 0.19235 0.97115 0.74663 0.0
C182 C 0.18026 0.96958 0.67776 0.0
H183 H 0.19376 0.98549 0.67225 0.0
H184 H 0.16036 0.97447 0.6709 0.0
H185 H 0.18693 0.95154 0.66791 0.0
C186 C 0.21386 0.07074 0.68503 0.0
N187 N 0.22565 0.04732 0.68588 0.0
N188 N 0.21 0.03014 0.69659 0.0
C189 C 0.18718 0.04219 0.70222 0.0
C190 C 0.18887 0.06834 0.69495 0.0
C191 C 0.22824 0.09588 0.68108 0.0
H192 H 0.24863 0.094 0.68783 0.0
H193 H 0.22816 0.10089 0.66008 0.0
H194 H 0.21913 0.11215 0.69197 0.0
O195 O 0.27397 0.03994 0.71954 0.0
O196 O 0.24951 1.0101 0.73976 0.0
H197 H 0.17209 0.02259 0.73578 0.0
H198 H 0.14853 0.04315 0.71939 0.0
C199 C 0.16514 0.02967 0.7166 0.0
H200 H 0.15794 1.01282 0.7053 0.0
H201 H 0.20289 0.97777 0.76269 0.0
O202 O 0.27899 0.06585 0.66286 0.0
C203 C 0.2673 0.02762 0.73999 0.0
Co204 Co 0.04203 0.26025 0.68523 0.0
Co205 Co 0.08336 0.22472 0.71136 0.0
C206 C 0.09792 0.26251 0.66874 0.0
O207 O 0.07421 0.26895 0.6668 0.0
O208 O 0.10501 0.2455 0.68534 0.0
C209 C 1.01294 0.26861 0.64175 0.0
O210 O 0.02632 0.24792 0.63486 0.0
C211 C 0.1168 0.17939 0.70723 0.0
C212 C 0.12578 0.16918 0.74795 0.0
C213 C 0.12976 0.16092 0.72244 0.0
N214 N 0.10572 0.19713 0.72301 0.0
N215 N 0.11135 0.1911 0.74734 0.0
C216 C 0.11245 0.17933 0.6784 0.0
H217 H 0.0963 0.19265 0.67309 0.0
H218 H 0.10779 0.1594 0.67147 0.0
H219 H 0.13031 0.18629 0.66846 0.0
C220 C 1.01117 0.21279 0.6863 0.0
N221 N 0.03454 0.22464 0.68724 0.0
N222 N 0.05177 0.20896 0.69784 0.0
C223 C 0.03981 0.18607 0.70331 0.0
C224 C 1.01367 0.18774 0.69604 0.0
C225 C 0.98599 0.22713 0.68239 0.0
H226 H 0.98781 0.2475 0.68922 0.0
H227 H 0.98098 0.2271 0.66139 0.0
H228 H 0.96976 0.21794 0.69325 0.0
O229 O 0.04218 0.27299 0.7209 0.0
O230 O 0.07219 0.24855 0.74094 0.0
H231 H 0.05955 0.17082 0.73672 0.0
H232 H 0.039 0.14731 0.72024 0.0
C233 C 0.05243 0.16397 0.71752 0.0
H234 H 0.06928 0.15689 0.70614 0.0
H235 H 0.10481 0.20152 0.76351 0.0
O236 O 1.01582 0.27807 0.66438 0.0
C237 C 0.05471 0.26639 0.74125 0.0
Co238 Co 0.82166 0.04146 0.68447 0.0
Co239 Co 0.85706 0.08265 0.71093 0.0
C240 C 0.81936 0.09747 0.66828 0.0
O241 O 0.81295 0.07376 0.66618 0.0
O242 O 0.83632 0.10445 0.68498 0.0
C243 C 0.81364 1.01236 0.64088 0.0
O244 O 0.83434 0.02576 0.63412 0.0
C245 C 0.90241 0.11602 0.70723 0.0
C246 C 0.91252 0.12461 0.74806 0.0
C247 C 0.92089 0.12874 0.72263 0.0
N248 N 0.88456 0.10491 0.72285 0.0
N249 N 0.89053 0.11032 0.74725 0.0
C250 C 0.90257 0.11186 0.67837 0.0
H251 H 0.88917 0.09584 0.67288 0.0
H252 H 0.92249 0.10712 0.67149 0.0
H253 H 0.89575 0.12984 0.66852 0.0
C254 C 0.86909 1.01054 0.68573 0.0
N255 N 0.85727 0.03394 0.68659 0.0
N256 N 0.8729 0.05115 0.69728 0.0
C257 C 0.89575 0.03915 0.70287 0.0
C258 C 0.89409 1.013 0.69559 0.0
C259 C 0.85473 0.98538 0.68182 0.0
H260 H 0.83433 0.98726 0.68853 0.0
H261 H 0.85486 0.98029 0.66083 0.0
H262 H 0.86384 0.96915 0.69277 0.0
O263 O 0.80885 0.04136 0.72013 0.0
O264 O 0.83325 0.07125 0.74038 0.0
H265 H 0.91088 0.05878 0.7364 0.0
H266 H 0.93445 0.03829 0.71991 0.0
C267 C 0.9178 0.05173 0.7172 0.0
H268 H 0.92491 0.06861 0.7059 0.0
H269 H 0.88004 0.10368 0.76332 0.0
O270 O 0.80401 1.01528 0.66343 0.0
C271 C 0.81544 0.05374 0.74058 0.0
Co272 Co 0.39873 0.04041 0.26015 0.0
Co273 Co 0.3724 0.99887 0.22505 0.0
C274 C 0.41482 0.9844 0.26307 0.0
O275 O 0.41686 1.00815 0.26928 0.0
O276 O 0.39826 0.97725 0.24605 0.0
C277 C 0.4425 0.06932 0.26759 0.0
O278 O 0.44901 0.05566 0.24696 0.0
C279 C 0.37616 0.96466 0.1803 0.0
C280 C 0.33534 0.95599 0.17024 0.0
C281 C 0.3608 0.95154 0.16211 0.0
N282 N 0.36053 0.97626 0.19782 0.0
N283 N 0.33613 0.97082 0.19189 0.0
C284 C 0.40504 0.96867 0.18006 0.0
H285 H 0.41054 0.98524 0.19277 0.0
H286 H 0.41201 0.97247 0.15996 0.0
H287 H 0.41477 0.95095 0.18767 0.0
C288 C 0.39756 0.07083 0.21248 0.0
N289 N 0.3967 0.04753 0.22446 0.0
N290 N 0.38609 0.03018 0.20893 0.0
C291 C 0.38057 0.04199 0.18596 0.0
C292 C 0.38782 0.06816 0.18745 0.0
C293 C 0.4013 0.09611 0.22669 0.0
H294 H 0.39462 0.09431 0.24711 0.0
H295 H 0.42224 0.10135 0.2265 0.0
H296 H 0.3902 0.11219 0.21751 0.0
O297 O 0.36304 0.04077 0.27289 0.0
O298 O 0.34294 1.01058 0.24872 0.0
H299 H 0.34694 0.0225 0.17091 0.0
H300 H 0.3638 0.04246 0.14716 0.0
C301 C 0.36627 0.02922 0.16401 0.0
H302 H 0.37741 1.01207 0.15726 0.0
H303 H 0.32004 0.97774 0.20219 0.0
O304 O 0.42001 0.06666 0.27744 0.0
C305 C 0.34265 0.02828 0.26636 0.0
Co306 Co 0.04166 0.39748 0.26182 0.0
Co307 Co 0.08188 0.37254 0.22419 0.0
C308 C 0.09822 0.41241 0.26383 0.0
O309 O 0.07511 0.41311 0.27238 0.0
O310 O 0.10397 0.3985 0.24412 0.0
C311 C 1.01391 0.44185 0.26995 0.0
O312 O 0.02769 0.44812 0.24934 0.0
C313 C 0.11503 0.3762 0.17859 0.0
C314 C 0.12277 0.33532 0.16796 0.0
C315 C 0.12749 0.36077 0.15994 0.0
N316 N 0.10353 0.36059 0.1962 0.0
N317 N 0.10842 0.33616 0.18991 0.0
C318 C 0.11158 0.40516 0.17888 0.0
H319 H 0.09561 0.41082 0.19226 0.0
H320 H 0.1071 0.41246 0.15905 0.0
H321 H 0.12975 0.41446 0.18595 0.0
C322 C 1.00999 0.39779 0.21474 0.0
N323 N 0.03371 0.39685 0.22595 0.0
N324 N 0.05053 0.38681 0.20948 0.0
C325 C 0.03805 0.38186 0.18677 0.0
C326 C 1.01189 0.38869 0.18937 0.0
C327 C 0.98518 0.40086 0.22987 0.0
H328 H 0.98776 0.39378 0.25007 0.0
H329 H 0.97967 0.42173 0.23034 0.0
H330 H 0.96894 0.38978 0.22095 0.0
O331 O 0.04015 0.36153 0.27302 0.0
O332 O 0.07055 0.34271 0.24803 0.0
H333 H 0.0569 0.3487 0.16989 0.0
H334 H 0.03662 0.36672 0.1473 0.0
C335 C 0.05022 0.36837 0.16397 0.0
H336 H 0.06727 0.37965 0.15728 0.0
H337 H 0.10147 0.3201 0.20022 0.0
O338 O 1.01621 0.41931 0.2798 0.0
C339 C 0.05285 0.34154 0.26567 0.0
Co340 Co 0.68464 0.04314 0.26213 0.0
Co341 Co 0.70896 0.08334 0.2242 0.0
C342 C 0.66938 0.0996 0.26419 0.0
O343 O 0.6689 0.07651 0.27281 0.0
O344 O 0.68307 0.10536 0.24434 0.0
C345 C 0.64063 1.01534 0.27139 0.0
O346 O 0.6338 0.02905 0.25092 0.0
C347 C 0.70486 0.11688 0.17881 0.0
C348 C 0.74567 0.12465 0.16799 0.0
C349 C 0.72018 0.12959 0.16028 0.0
N350 N 0.72058 0.10508 0.19614 0.0
N351 N 0.74497 0.10998 0.18973 0.0
C352 C 0.6759 0.11357 0.1792 0.0
H353 H 0.6703 0.09716 0.19207 0.0
H354 H 0.66843 0.10984 0.15927 0.0
H355 H 0.66675 0.13154 0.18695 0.0
C356 C 0.68367 1.01136 0.21504 0.0
N357 N 0.68477 0.03509 0.22625 0.0
N358 N 0.69463 0.05189 0.20967 0.0
C359 C 0.69934 0.03939 0.18691 0.0
C360 C 0.69251 1.01322 0.18957 0.0
C361 C 0.68067 0.98657 0.23021 0.0
H362 H 0.68812 0.98909 0.25029 0.0
H363 H 0.65977 0.98125 0.23104 0.0
H364 H 0.69147 0.97023 0.22111 0.0
O365 O 0.72068 0.04178 0.27289 0.0
O366 O 0.73915 0.07219 0.24772 0.0
H367 H 0.73242 0.05802 0.16972 0.0
H368 H 0.71392 0.03802 0.14726 0.0
C369 C 0.71262 0.05156 0.16401 0.0
H370 H 0.70143 0.0688 0.1576 0.0
H371 H 0.76109 0.10287 0.19984 0.0
O372 O 0.66341 1.01767 0.28062 0.0
C373 C 0.74054 0.05451 0.26535 0.0
Co374 Co 0.03929 0.68421 0.2621 0.0
Co375 Co 0.99923 0.70844 0.22391 0.0
C376 C 0.98283 0.66915 0.26413 0.0
O377 O 1.00588 0.66868 0.27283 0.0
O378 O 0.97717 0.68275 0.2442 0.0
C379 C 0.06648 0.63985 0.27086 0.0
O380 O 0.05239 0.63351 0.25048 0.0
C381 C 0.96614 0.7037 0.17829 0.0
C382 C 0.95744 0.74432 0.16753 0.0
C383 C 0.95315 0.71873 0.15968 0.0
N384 N 0.9775 0.71968 0.19569 0.0
N385 N 0.97205 0.74395 0.18931 0.0
C386 C 0.96998 0.6748 0.17893 0.0
H387 H 0.98569 0.66948 0.19275 0.0
H388 H 0.97512 0.66743 0.15928 0.0
H389 H 0.95176 0.6653 0.18556 0.0
C390 C 0.07115 0.68315 0.21521 0.0
N391 N 0.04735 0.68417 0.22624 0.0
N392 N 0.03063 0.69396 0.20954 0.0
C393 C 0.04327 0.69871 0.18688 0.0
C394 C 0.06943 0.69196 0.18973 0.0
C395 C 0.09585 0.68035 0.23059 0.0
H396 H 0.09312 0.68786 0.25062 0.0
H397 H 0.10132 0.65949 0.23153 0.0
H398 H 0.11218 0.69123 0.2216 0.0
O399 O 0.04085 0.7204 0.27259 0.0
O400 O 1.01061 0.73882 0.24713 0.0
H401 H 0.02451 0.73176 0.16972 0.0
H402 H 0.04496 0.71362 0.14735 0.0
C403 C 0.03124 0.71207 0.16393 0.0
H404 H 1.01421 0.70077 0.15721 0.0
H405 H 0.97869 0.76023 0.19949 0.0
O406 O 0.06463 0.66257 0.28041 0.0
C407 C 0.02829 0.7403 0.26476 0.0
Co408 Co 0.39864 0.04287 0.82147 0.0
Co409 Co 0.37241 0.08428 0.85678 0.0
C410 C 0.41477 0.09889 0.81867 0.0
O411 O 0.41686 0.07514 0.81242 0.0
O412 O 0.3982 0.10598 0.83572 0.0
C413 C 0.44206 1.01342 0.8132 0.0
O414 O 0.44912 0.02674 0.83387 0.0
C415 C 0.37627 0.11784 0.90198 0.0
C416 C 0.33546 0.12634 0.91228 0.0
C417 C 0.36092 0.13051 0.92054 0.0
N418 N 0.3606 0.10669 0.88421 0.0
N419 N 0.33621 0.11205 0.89027 0.0
C420 C 0.40514 0.11372 0.90202 0.0
H421 H 0.4106 0.09777 0.88852 0.0
H422 H 0.41208 0.10888 0.9219 0.0
H423 H 0.41493 0.13175 0.89528 0.0
C424 C 0.3976 1.01221 0.86909 0.0
N425 N 0.39674 0.03555 0.85715 0.0
N426 N 0.38616 0.05287 0.87274 0.0
C427 C 0.38066 0.04102 0.89569 0.0
C428 C 0.38785 1.01484 0.89413 0.0
C429 C 0.40135 0.98696 0.85485 0.0
H430 H 0.39457 0.98875 0.83446 0.0
H431 H 0.42232 0.98179 0.85492 0.0
H432 H 0.39037 0.97083 0.86408 0.0
O433 O 0.36292 0.04268 0.8089 0.0
O434 O 0.34282 0.07272 0.83325 0.0
H435 H 0.34725 0.0608 0.91093 0.0
H436 H 0.36385 0.04044 0.93451 0.0
C437 C 0.36649 0.05376 0.91776 0.0
H438 H 0.37786 0.07065 0.92471 0.0
H439 H 0.32011 0.10536 0.87986 0.0
O440 O 0.41947 1.01654 0.80376 0.0
C441 C 0.34251 0.0551 0.81555 0.0
Co442 Co 0.0396 0.39949 0.82127 0.0
Co443 Co 0.99836 0.37313 0.85671 0.0
C444 C 0.9835 0.41542 0.81863 0.0
O445 O 1.00722 0.41749 0.81229 0.0
O446 O 0.97649 0.39888 0.83573 0.0
C447 C 0.06843 0.44331 0.81376 0.0
O448 O 0.05483 0.44978 0.83443 0.0
C449 C 0.96502 0.37689 0.9021 0.0
C450 C 0.95658 0.33607 0.91234 0.0
C451 C 0.95242 0.36151 0.92068 0.0
N452 N 0.9761 0.36125 0.88424 0.0
N453 N 0.97078 0.33685 0.89028 0.0
C454 C 0.9691 0.40577 0.90217 0.0
H455 H 0.98499 0.41126 0.88862 0.0
H456 H 0.974 0.41269 0.92205 0.0
H457 H 0.95104 0.41556 0.8955 0.0
C458 C 0.0704 0.3983 0.86869 0.0
N459 N 0.04698 0.39754 0.85692 0.0
N460 N 0.02976 0.38693 0.87259 0.0
C461 C 0.04178 0.38131 0.89543 0.0
C462 C 0.06794 0.38848 0.89371 0.0
C463 C 0.09555 0.40195 0.85425 0.0
H464 H 0.09355 0.39526 0.83385 0.0
H465 H 0.10084 0.42289 0.85438 0.0
H466 H 0.11169 0.39083 0.86329 0.0
O467 O 0.04004 0.36371 0.80868 0.0
O468 O 1.0101 0.34359 0.83314 0.0
H469 H 0.02219 0.34776 0.91056 0.0
H470 H 0.04269 0.36424 0.93411 0.0
C471 C 0.02923 0.36697 0.91747 0.0
H472 H 1.01236 0.37827 0.92462 0.0
H473 H 0.97743 0.32076 0.87981 0.0
O474 O 0.06572 0.42084 0.80385 0.0
C475 C 0.02771 0.34328 0.81542 0.0
Co476 Co 0.68322 0.03893 0.82108 0.0
Co477 Co 0.70928 0.99774 0.85679 0.0
C478 C 0.66706 0.98288 0.81863 0.0
O479 O 0.66508 1.00658 0.81219 0.0
O480 O 0.68353 0.97587 0.83581 0.0
C481 C 0.63972 0.06813 0.81287 0.0
O482 O 0.63282 0.05473 0.83353 0.0
C483 C 0.70545 0.96457 0.9023 0.0
C484 C 0.74627 0.95652 0.91286 0.0
C485 C 0.72081 0.95226 0.92108 0.0
N486 N 0.7211 0.97561 0.88445 0.0
N487 N 0.7455 0.97051 0.89068 0.0
C488 C 0.67655 0.9685 0.90221 0.0
H489 H 0.67104 0.98431 0.88857 0.0
H490 H 0.66949 0.97344 0.92202 0.0
H491 H 0.6669 0.95036 0.89556 0.0
C492 C 0.68411 0.0699 0.86848 0.0
N493 N 0.68501 0.04647 0.85671 0.0
N494 N 0.69547 0.02925 0.8725 0.0
C495 C 0.70081 0.04128 0.8954 0.0
C496 C 0.69366 0.06745 0.8936 0.0
C497 C 0.68054 0.09505 0.85402 0.0
H498 H 0.68738 0.09306 0.83368 0.0
H499 H 0.6596 0.10034 0.854 0.0
H500 H 0.69157 0.1112 0.86317 0.0
O501 O 0.719 0.0391 0.80862 0.0
O502 O 0.73895 1.0092 0.83327 0.0
H503 H 0.73409 0.0216 0.91104 0.0
H504 H 0.71732 0.04216 0.93434 0.0
C505 C 0.7148 0.0287 0.91767 0.0
H506 H 0.70336 1.01189 0.92467 0.0
H507 H 0.7616 0.97721 0.88026 0.0
O508 O 0.66228 0.06512 0.80331 0.0
C509 C 0.73936 0.02671 0.81546 0.0
Co510 Co 0.04328 0.68463 0.82041 0.0
Co511 Co 0.08337 0.70881 0.85864 0.0
C512 C 0.09975 0.6693 0.81866 0.0
O513 O 0.07669 0.66886 0.80995 0.0
O514 O 0.10546 0.68294 0.83857 0.0
C515 C 1.01506 0.64075 0.81113 0.0
O516 O 0.02855 0.63385 0.83173 0.0
C517 C 0.11613 0.70469 0.90455 0.0
C518 C 0.12366 0.7455 0.91558 0.0
C519 C 0.12833 0.72 0.92346 0.0
N520 N 0.10481 0.72042 0.88693 0.0
N521 N 0.10957 0.74481 0.89347 0.0
C522 C 0.11274 0.67573 0.90399 0.0
H523 H 0.09694 0.67017 0.89037 0.0
H524 H 0.10802 0.66827 0.92371 0.0
H525 H 0.13102 0.66651 0.89709 0.0
C526 C 1.01123 0.68393 0.86726 0.0
N527 N 0.03504 0.68484 0.85622 0.0
N528 N 0.0518 0.69455 0.87294 0.0
C529 C 0.03919 0.69929 0.89562 0.0
C530 C 1.01301 0.69271 0.89275 0.0
C531 C 0.98651 0.68121 0.85192 0.0
H532 H 0.98926 0.68859 0.83184 0.0
H533 H 0.98091 0.66038 0.85109 0.0
H534 H 0.97026 0.69225 0.86089 0.0
O535 O 0.04214 0.72069 0.80966 0.0
O536 O 0.07246 0.73901 0.83509 0.0
H537 H 0.05813 0.73207 0.91312 0.0
H538 H 0.0376 0.71385 0.9353 0.0
C539 C 0.0513 0.71236 0.9187 0.0
H540 H 0.06823 0.70086 0.92533 0.0
H541 H 0.1027 0.76095 0.88321 0.0
O542 O 1.01777 0.66346 0.8018 0.0
C543 C 0.05492 0.74049 0.81733 0.0
Co544 Co 0.2602 0.39797 0.03949 0.0
Co545 Co 0.22473 0.37167 0.99822 0.0
C546 C 0.26256 0.41425 0.98352 0.0
O547 O 0.26894 0.41636 1.00723 0.0
O548 O 0.24561 0.39756 0.97651 0.0
C549 C 0.26841 0.44139 0.06896 0.0
O550 O 0.24771 0.44839 0.05567 0.0
C551 C 0.17948 0.37586 0.9648 0.0
C552 C 0.16894 0.33515 0.95614 0.0
C553 C 0.16082 0.36068 0.95207 0.0
N554 N 0.19717 0.36002 0.97587 0.0
N555 N 0.19095 0.3357 0.97042 0.0
C556 C 0.17962 0.40471 0.96903 0.0
H557 H 0.19311 0.41002 0.98502 0.0
H558 H 0.15978 0.41177 0.97387 0.0
H559 H 0.18646 0.41454 0.95106 0.0
C560 C 0.21267 0.39686 0.07034 0.0
N561 N 0.22457 0.39594 0.04698 0.0
N562 N 0.20891 0.38537 0.02971 0.0
C563 C 0.18597 0.37997 0.04161 0.0
C564 C 0.1876 0.38721 0.06777 0.0
C565 C 0.22695 0.40065 0.09555 0.0
H566 H 0.24735 0.3939 0.09373 0.0
H567 H 0.22684 0.42162 0.10072 0.0
H568 H 0.21776 0.38965 0.1117 0.0
O569 O 0.27291 0.36227 0.03947 0.0
O570 O 0.24844 0.34208 1.00959 0.0
H571 H 0.17054 0.34666 0.02182 0.0
H572 H 0.14708 0.36334 0.04227 0.0
C573 C 0.16382 0.36592 0.02891 0.0
H574 H 0.15687 0.37735 1.01206 0.0
H575 H 0.20127 0.3195 0.97703 0.0
O576 O 0.27793 0.41882 0.06579 0.0
C577 C 0.26628 0.34184 0.02708 0.0
Co578 Co 0.26115 0.68367 0.04323 0.0
Co579 Co 0.22575 0.70959 0.08476 0.0
C580 C 0.26425 0.66753 0.09923 0.0
O581 O 0.27051 0.66556 0.07548 0.0
O582 O 0.24712 0.684 0.10637 0.0
C583 C 0.26932 0.64014 1.01401 0.0
O584 O 0.24888 0.63314 0.02768 0.0
C585 C 0.18101 0.7052 0.11891 0.0
C586 C 0.17011 0.7459 0.12721 0.0
C587 C 0.16239 0.72033 0.13172 0.0
N588 N 0.19835 0.72108 0.10738 0.0
N589 N 0.19193 0.74541 0.11263 0.0
C590 C 0.18132 0.6763 0.11503 0.0
H591 H 0.19442 0.67092 0.09872 0.0
H592 H 0.16142 0.66898 0.11088 0.0
H593 H 0.18876 0.66677 0.13293 0.0
C594 C 0.21333 0.68404 1.01292 0.0
N595 N 0.2254 0.68512 0.03618 0.0
N596 N 0.20975 0.69548 0.05358 0.0
C597 C 0.18663 0.70056 0.04188 0.0
C598 C 0.18814 0.69334 1.01571 0.0
C599 C 0.22748 0.68056 0.98758 0.0
H600 H 0.2478 0.68754 0.9893 0.0
H601 H 0.22758 0.65963 0.98229 0.0
H602 H 0.21805 0.69155 0.97157 0.0
O603 O 0.27324 0.71961 0.04274 0.0
O604 O 0.24876 0.73952 0.07278 0.0
H605 H 0.17098 0.73386 0.06152 0.0
H606 H 0.14751 0.71662 0.04156 0.0
C607 C 0.16445 0.71442 0.05474 0.0
H608 H 0.15792 0.70308 0.07182 0.0
H609 H 0.20196 0.76164 0.10566 0.0
O610 O 0.27877 0.66278 1.01684 0.0
C611 C 0.26631 0.74002 0.05501 0.0
Co612 Co 0.39865 0.26117 0.0424 0.0
Co613 Co 0.37227 0.22551 0.08347 0.0
C614 C 0.41471 0.2634 0.09847 0.0
O615 O 0.41674 0.26988 0.07479 0.0
O616 O 0.39813 0.24631 0.10542 0.0
C617 C 0.44247 0.26882 1.0137 0.0
O618 O 0.44892 0.24815 0.02731 0.0
C619 C 0.37615 0.17992 0.1165 0.0
C620 C 0.33538 0.16947 0.1249 0.0
C621 C 0.36085 0.16119 0.12898 0.0
N622 N 0.36045 0.19781 0.10557 0.0
N623 N 0.33608 0.19164 0.11087 0.0
C624 C 0.40502 0.17997 0.11237 0.0
H625 H 0.41044 0.19363 0.09657 0.0
H626 H 0.412 0.16015 0.10733 0.0
H627 H 0.41481 0.18657 0.13046 0.0
C628 C 0.39755 0.21387 1.01137 0.0
N629 N 0.39666 0.22557 0.03483 0.0
N630 N 0.38604 0.20981 0.05196 0.0
C631 C 0.38054 0.18699 0.03984 0.0
C632 C 0.38781 0.18882 1.01371 0.0
C633 C 0.4013 0.22838 0.98627 0.0
H634 H 0.39457 0.24877 0.9883 0.0
H635 H 0.42225 0.2283 0.98106 0.0
H636 H 0.39026 0.21935 0.97006 0.0
O637 O 0.36291 0.27382 0.04211 0.0
O638 O 0.34274 0.24923 0.07191 0.0
H639 H 0.34706 0.17169 0.05941 0.0
H640 H 0.36352 0.14829 0.03871 0.0
C641 C 0.36626 0.16484 0.05227 0.0
H642 H 0.37759 0.15759 0.06906 0.0
H643 H 0.31995 0.2021 0.1043 0.0
O644 O 0.41999 0.2787 1.01636 0.0
C645 C 0.34247 0.26706 0.05441 0.0
Co646 Co 0.82114 0.39872 0.04189 0.0
Co647 Co 0.85649 0.37205 0.08298 0.0
C648 C 0.81864 0.41447 0.09803 0.0
O649 O 0.81228 0.41673 0.07434 0.0
O650 O 0.83559 0.39772 0.10492 0.0
C651 C 0.8135 0.4427 1.01324 0.0
O652 O 0.83415 0.44916 0.02687 0.0
C653 C 0.90128 0.37596 0.11701 0.0
C654 C 0.91173 0.33519 0.1255 0.0
C655 C 0.91963 0.3607 0.13003 0.0
N656 N 0.88387 0.36021 0.1054 0.0
N657 N 0.89004 0.33583 0.11073 0.0
C658 C 0.90123 0.40486 0.11311 0.0
H659 H 0.88842 0.41031 0.09661 0.0
H660 H 0.92125 0.41202 0.10925 0.0
H661 H 0.89358 0.41446 0.13088 0.0
C662 C 0.86871 0.39785 1.01121 0.0
N663 N 0.85681 0.3968 0.03455 0.0
N664 N 0.87243 0.38609 0.05175 0.0
C665 C 0.89537 0.38071 0.03982 0.0
C666 C 0.89377 0.38812 1.01371 0.0
C667 C 0.8544 0.40174 0.98602 0.0
H668 H 0.834 0.39505 0.98784 0.0
H669 H 0.85456 0.42272 0.98091 0.0
H670 H 0.86354 0.39075 0.96982 0.0
O671 O 0.80854 0.36291 0.04128 0.0
O672 O 0.833 0.34253 0.07102 0.0
H673 H 0.91061 0.34698 0.059 0.0
H674 H 0.93424 0.36409 0.03912 0.0
C675 C 0.91741 0.36639 0.05242 0.0
H676 H 0.92416 0.37742 0.06962 0.0
H677 H 0.87987 0.31968 0.10378 0.0
O678 O 0.80369 0.42018 1.01583 0.0
C679 C 0.81529 0.34235 0.0534 0.0
Co680 Co 0.68418 0.82124 0.04218 0.0
Co681 Co 0.7097 0.85695 0.08384 0.0
C682 C 0.66753 0.81856 0.09807 0.0
O683 O 0.66591 0.81212 0.07434 0.0
O684 O 0.68379 0.83583 0.10532 0.0
C685 C 0.64049 0.81364 1.01333 0.0
O686 O 0.63402 0.83414 0.0272 0.0
C687 C 0.70529 0.90204 0.11774 0.0
C688 C 0.74599 0.91263 0.12635 0.0
C689 C 0.72045 0.92056 0.13067 0.0
N690 N 0.72114 0.88453 0.10636 0.0
N691 N 0.74546 0.8908 0.11178 0.0
C692 C 0.67642 0.90194 0.11369 0.0
H693 H 0.67109 0.88899 0.09725 0.0
H694 H 0.66926 0.92193 0.10965 0.0
H695 H 0.66675 0.89444 0.13147 0.0
C696 C 0.68495 0.8688 1.01162 0.0
N697 N 0.68585 0.85693 0.03498 0.0
N698 N 0.69606 0.87272 0.05234 0.0
C699 C 0.70127 0.89573 0.04047 0.0
C700 C 0.69422 0.89401 1.01426 0.0
C701 C 0.68164 0.85443 0.98638 0.0
H702 H 0.68855 0.8341 0.98833 0.0
H703 H 0.66075 0.85434 0.98092 0.0
H704 H 0.69278 0.86368 0.97037 0.0
O705 O 0.72009 0.80893 0.04213 0.0
O706 O 0.73956 0.83352 0.07241 0.0
H707 H 0.73445 0.91144 0.06022 0.0
H708 H 0.71746 0.93478 0.0399 0.0
C709 C 0.71509 0.91799 0.05323 0.0
H710 H 0.70365 0.9247 0.07019 0.0
H711 H 0.76167 0.8806 0.10499 0.0
O712 O 0.66301 0.80378 1.01584 0.0
C713 C 0.74029 0.81582 0.05478 0.0
Co714 Co 0.82026 0.68483 0.03928 0.0
Co715 Co 0.85719 0.70996 0.99864 0.0
C716 C 0.81685 0.67076 0.98255 0.0
O717 O 0.80829 0.67021 1.00567 0.0
O718 O 0.83686 0.6842 0.97681 0.0
C719 C 0.80533 0.63923 0.06171 0.0
O720 O 0.81779 0.63099 0.04095 0.0
C721 C 0.90221 0.70579 0.96481 0.0
C722 C 0.91315 0.74653 0.95686 0.0
C723 C 0.92078 0.72098 0.95204 0.0
N724 N 0.88494 0.72161 0.97656 0.0
N725 N 0.89141 0.74597 0.97155 0.0
C726 C 0.90183 0.67684 0.96833 0.0
H727 H 0.88894 0.67132 0.98475 0.0
H728 H 0.92175 0.66938 0.97211 0.0
H729 H 0.89408 0.66757 0.95042 0.0
C730 C 0.86808 0.68151 0.0693 0.0
N731 N 0.8563 0.68395 0.04597 0.0
N732 N 0.8723 0.69507 0.02942 0.0
C733 C 0.89517 0.69964 0.04169 0.0
C734 C 0.89325 0.69128 0.06747 0.0
C735 C 0.85345 0.676 0.09397 0.0
H736 H 0.83495 0.68712 0.09408 0.0
H737 H 0.84878 0.65494 0.09486 0.0
H738 H 0.86454 0.68141 0.11165 0.0
O739 O 0.80996 0.72107 0.04177 0.0
O740 O 0.83375 0.7399 1.0105 0.0
H741 H 0.91073 0.73388 0.02368 0.0
H742 H 0.93407 0.71619 0.04343 0.0
C743 C 0.91742 0.71429 0.02984 0.0
H744 H 0.92443 0.70372 1.01245 0.0
H745 H 0.88139 0.76216 0.97864 0.0
O746 O 0.80301 0.66352 0.06561 0.0
C747 C 0.81682 0.74108 0.02886 0.0
Co748 Co 0.39621 0.81994 0.03917 0.0
Co749 Co 0.3716 0.85804 0.99924 0.0
C750 C 0.41146 0.8184 0.98272 0.0
O751 O 0.41202 0.80962 1.00575 0.0
O752 O 0.3976 0.83817 0.97709 0.0
C753 C 0.44028 0.81069 0.06688 0.0
O754 O 0.44701 0.83126 0.05325 0.0
C755 C 0.37579 0.90391 0.96647 0.0
C756 C 0.33504 0.91485 0.95855 0.0
C757 C 0.36056 0.92273 0.95402 0.0
N758 N 0.35999 0.88633 0.97777 0.0
N759 N 0.33564 0.89282 0.97279 0.0
C760 C 0.40472 0.90338 0.97005 0.0
H761 H 0.41019 0.88985 0.98596 0.0
H762 H 0.41213 0.92313 0.97472 0.0
H763 H 0.41406 0.89638 0.95188 0.0
C764 C 0.39702 0.86683 0.07125 0.0
N765 N 0.39587 0.85575 0.04747 0.0
N766 N 0.38588 0.87239 0.03079 0.0
C767 C 0.38113 0.89506 0.04343 0.0
C768 C 0.38806 0.89228 0.06954 0.0
C769 C 0.40022 0.85157 0.09596 0.0
H770 H 0.39283 0.83148 0.09339 0.0
H771 H 0.42116 0.85078 0.10116 0.0
H772 H 0.38949 0.86057 0.11239 0.0
O773 O 0.36023 0.80897 0.04042 0.0
O774 O 0.34152 0.83428 1.01025 0.0
H775 H 0.34808 0.91222 0.02466 0.0
H776 H 0.36613 0.93457 0.04518 0.0
C777 C 0.36775 0.91802 0.03144 0.0
H778 H 0.37909 0.92481 1.01447 0.0
H779 H 0.31946 0.88257 0.97956 0.0
O780 O 0.41754 0.80138 0.06453 0.0
C781 C 0.34029 0.8165 0.02779 0.0
Co782 Co 0.68483 0.2625 0.03848 0.0
Co783 Co 0.70926 0.22461 0.99824 0.0
C784 C 0.66934 0.26426 0.98206 0.0
O785 O 0.66888 0.27293 1.00514 0.0
O786 O 0.68316 0.24451 0.97627 0.0
C787 C 0.64086 0.27151 0.06647 0.0
O788 O 0.63411 0.25098 0.0528 0.0
C789 C 0.70525 0.17885 0.96527 0.0
C790 C 0.74605 0.16794 0.95757 0.0
C791 C 0.72056 0.16003 0.95293 0.0
N792 N 0.72096 0.19646 0.97664 0.0
N793 N 0.74535 0.19 0.97178 0.0
C794 C 0.6763 0.17931 0.96874 0.0
H795 H 0.67074 0.19283 0.98465 0.0
H796 H 0.66891 0.15955 0.97336 0.0
H797 H 0.66702 0.1863 0.95053 0.0
C798 C 0.68416 0.21541 0.07031 0.0
N799 N 0.68526 0.22665 0.0466 0.0
N800 N 0.69513 0.21008 0.02977 0.0
C801 C 0.69981 0.1873 0.04223 0.0
C802 C 0.69299 0.18994 0.06839 0.0
C803 C 0.68108 0.23052 0.09514 0.0
H804 H 0.68839 0.25065 0.09266 0.0
H805 H 0.66017 0.2312 0.10049 0.0
H806 H 0.69194 0.22143 0.11144 0.0
O807 O 0.72079 0.27357 0.03959 0.0
O808 O 0.73931 0.24842 1.00916 0.0
H809 H 0.73263 0.16999 0.02317 0.0
H810 H 0.71448 0.14764 0.0436 0.0
C811 C 0.71295 0.16432 0.03 0.0
H812 H 0.70147 0.15773 1.01304 0.0
H813 H 0.76148 0.20026 0.97866 0.0
O814 O 0.66356 0.2809 0.06402 0.0
C815 C 0.74064 0.26615 0.02676 0.0
Co816 Co 0.53824 0.76275 0.89779 0.0
Co817 Co 0.4982 0.72468 0.87327 0.0
C818 C 0.48171 0.76452 0.9129 0.0
O819 O 0.50478 0.7732 0.9135 0.0
O820 O 0.47604 0.74472 0.8991 0.0
C821 C 0.56643 0.77164 0.94182 0.0
O822 O 0.5529 0.75101 0.94855 0.0
C823 C 0.46536 0.67883 0.87705 0.0
C824 C 0.45819 0.66783 0.83617 0.0
C825 C 0.45334 0.6599 0.86162 0.0
N826 N 0.47677 0.69649 0.86144 0.0
N827 N 0.47221 0.68998 0.837 0.0
C828 C 0.46854 0.67935 0.90604 0.0
H829 H 0.48423 0.69303 0.91174 0.0
H830 H 0.4733 0.65963 0.91349 0.0
H831 H 0.45016 0.68615 0.91514 0.0
C832 C 0.57017 0.71579 0.89843 0.0
N833 N 0.5464 0.7269 0.89749 0.0
N834 N 0.52961 0.71025 0.8877 0.0
C835 C 0.54217 0.68752 0.88298 0.0
C836 C 0.56834 0.69031 0.88963 0.0
C837 C 0.59494 0.73106 0.90118 0.0
H838 H 0.59222 0.75118 0.89392 0.0
H839 H 0.60059 0.73175 0.92201 0.0
H840 H 0.61114 0.7221 0.89007 0.0
O841 O 0.53965 0.77359 0.86175 0.0
O842 O 0.50945 0.74822 0.84317 0.0
H843 H 0.52329 0.67006 0.85015 0.0
H844 H 0.54368 0.64782 0.86846 0.0
C845 C 0.53004 0.66447 0.86989 0.0
H846 H 0.51306 0.65789 0.88133 0.0
H847 H 0.47921 0.70025 0.82094 0.0
O848 O 0.56374 0.78115 0.91918 0.0
C849 C 0.52705 0.76593 0.84184 0.0
Co850 Co 0.32085 0.53975 0.89715 0.0
Co851 Co 0.35638 0.49819 0.87131 0.0
C852 C 0.31782 0.48375 0.91331 0.0
O853 O 0.31153 0.50751 0.91518 0.0
O854 O 0.33503 0.47657 0.89694 0.0
C855 C 0.31274 0.56856 0.94085 0.0
O856 O 0.33318 0.55476 0.94763 0.0
C857 C 0.4012 0.46401 0.87573 0.0
C858 C 0.41213 0.45578 0.83503 0.0
C859 C 0.41983 0.4512 0.8606 0.0
N860 N 0.38387 0.4756 0.85985 0.0
N861 N 0.39033 0.47038 0.83552 0.0
C862 C 0.40087 0.46783 0.90463 0.0
H863 H 0.38783 0.48418 0.91003 0.0
H864 H 0.42078 0.47186 0.91198 0.0
H865 H 0.39335 0.44993 0.9141 0.0
C866 C 0.36861 0.57006 0.89691 0.0
N867 N 0.35658 0.5468 0.89575 0.0
N868 N 0.37229 0.52942 0.88543 0.0
C869 C 0.3954 0.54117 0.88043 0.0
C870 C 0.39383 0.56733 0.88769 0.0
C871 C 0.35439 0.59537 0.9004 0.0
H872 H 0.33409 0.59363 0.89337 0.0
H873 H 0.35423 0.60063 0.92134 0.0
H874 H 0.36381 0.61143 0.88947 0.0
O875 O 0.30878 0.54025 0.86122 0.0
O876 O 0.33327 0.51015 0.84137 0.0
H877 H 0.4112 0.5216 0.84717 0.0
H878 H 0.43459 0.54155 0.86455 0.0
C879 C 0.41766 0.52835 0.86664 0.0
H880 H 0.42415 0.51124 0.87797 0.0
H881 H 0.38031 0.47738 0.81929 0.0
O882 O 0.30324 0.56603 0.91819 0.0
C883 C 0.3157 0.52792 0.84083 0.0
Co884 Co 0.54281 0.32023 0.89702 0.0
Co885 Co 0.58286 0.3583 0.87269 0.0
C886 C 0.59926 0.31846 0.91233 0.0
O887 O 0.57621 0.30973 0.91278 0.0
O888 O 0.60494 0.33832 0.89863 0.0
C889 C 0.51518 0.3112 0.94113 0.0
O890 O 0.52891 0.33175 0.94774 0.0
C891 C 0.61619 0.40379 0.87685 0.0
C892 C 0.62399 0.41469 0.83607 0.0
C893 C 0.62885 0.42239 0.86158 0.0
N894 N 0.60449 0.38643 0.86109 0.0
N895 N 0.6094 0.3929 0.83671 0.0
C896 C 0.6128 0.40337 0.90581 0.0
H897 H 0.59639 0.39048 0.91136 0.0
H898 H 0.60905 0.42328 0.91331 0.0
H899 H 0.63075 0.3956 0.91498 0.0
C900 C 0.51081 0.36714 0.89777 0.0
N901 N 0.53461 0.35608 0.89679 0.0
N902 N 0.55135 0.37273 0.88695 0.0
C903 C 0.53874 0.3954 0.88216 0.0
C904 C 0.51256 0.39261 0.88889 0.0
C905 C 0.4861 0.35183 0.9007 0.0
H906 H 0.4888 0.33174 0.89333 0.0
H907 H 0.48068 0.35103 0.92158 0.0
H908 H 0.46977 0.36078 0.88979 0.0
O909 O 0.54151 0.30938 0.86099 0.0
O910 O 0.57183 0.33468 0.84253 0.0
H911 H 0.55733 0.41269 0.8491 0.0
H912 H 0.53725 0.43507 0.86763 0.0
C913 C 0.55085 0.41836 0.86891 0.0
H914 H 0.56805 0.42482 0.88011 0.0
H915 H 0.60236 0.38278 0.82056 0.0
O916 O 0.51743 0.30178 0.91841 0.0
C917 C 0.55423 0.31697 0.84113 0.0
Co918 Co 0.76171 0.54396 0.89732 0.0
Co919 Co 0.72399 0.58414 0.87259 0.0
C920 C 0.76339 0.60042 0.91263 0.0
O921 O 0.77209 0.57736 0.91326 0.0
O922 O 0.74378 0.60613 0.89861 0.0
C923 C 0.77059 0.51589 0.94138 0.0
O924 O 0.74997 0.52946 0.9481 0.0
C925 C 0.67885 0.61779 0.8767 0.0
C926 C 0.66783 0.62556 0.83594 0.0
C927 C 0.66027 0.63052 0.86148 0.0
N928 N 0.69605 0.60593 0.8609 0.0
N929 N 0.68954 0.61083 0.83653 0.0
C930 C 0.67933 0.61442 0.90566 0.0
H931 H 0.69208 0.5979 0.9112 0.0
H932 H 0.65941 0.61084 0.91322 0.0
H933 H 0.68726 0.63231 0.91481 0.0
C934 C 0.71452 0.51226 0.89793 0.0
N935 N 0.72583 0.53593 0.89682 0.0
N936 N 0.70934 0.55279 0.88689 0.0
C937 C 0.68653 0.54042 0.88221 0.0
C938 C 0.68907 0.51425 0.88906 0.0
C939 C 0.72955 0.48739 0.90105 0.0
H940 H 0.74972 0.48984 0.89386 0.0
H941 H 0.7301 0.482 0.92195 0.0
H942 H 0.72049 0.47113 0.8901 0.0
O943 O 0.77285 0.54266 0.86134 0.0
O944 O 0.74775 0.57298 0.8426 0.0
H945 H 0.66927 0.55915 0.84921 0.0
H946 H 0.64678 0.53932 0.86784 0.0
C947 C 0.66363 0.55274 0.86904 0.0
H948 H 0.65737 0.57 0.88026 0.0
H949 H 0.69955 0.60368 0.82036 0.0
O950 O 0.78002 0.51843 0.9187 0.0
C951 C 0.76545 0.55534 0.84139 0.0
Co952 Co 0.54076 0.32142 0.18419 0.0
Co953 Co 0.49949 0.35674 0.21066 0.0
C954 C 0.48464 0.31866 0.16835 0.0
O955 O 0.50837 0.31235 0.16627 0.0
O956 O 0.47761 0.33575 0.18491 0.0
C957 C 0.56926 0.31393 0.1402 0.0
O958 O 0.55549 0.33453 0.13385 0.0
C959 C 0.46588 0.40193 0.20707 0.0
C960 C 0.45737 0.41199 0.24794 0.0
C961 C 0.4531 0.42033 0.22252 0.0
N962 N 0.47715 0.38414 0.22265 0.0
N963 N 0.47179 0.39008 0.24707 0.0
C964 C 0.46992 0.40209 0.17819 0.0
H965 H 0.48595 0.38873 0.17264 0.0
H966 H 0.47456 0.42203 0.1713 0.0
H967 H 0.45192 0.39521 0.16842 0.0
C968 C 0.57137 0.36896 0.18516 0.0
N969 N 0.548 0.3571 0.18607 0.0
N970 N 0.53078 0.37272 0.19678 0.0
C971 C 0.54273 0.39561 0.20233 0.0
C972 C 0.56886 0.39398 0.195 0.0
C973 C 0.59655 0.35462 0.18131 0.0
H974 H 0.5947 0.33423 0.18805 0.0
H975 H 0.60167 0.35472 0.16034 0.0
H976 H 0.61274 0.36377 0.19228 0.0
O977 O 0.54137 0.30888 0.21998 0.0
O978 O 0.51139 0.33326 0.24017 0.0
H979 H 0.52325 0.41063 0.236 0.0
H980 H 0.54359 0.43427 0.21947 0.0
C981 C 0.53017 0.4176 0.21677 0.0
H982 H 0.51321 0.42469 0.20558 0.0
H983 H 0.47854 0.37961 0.26312 0.0
O984 O 0.56683 0.30405 0.1627 0.0
C985 C 0.52909 0.31563 0.24046 0.0
Co986 Co 0.75962 0.54094 0.18306 0.0
Co987 Co 0.72526 0.4991 0.21011 0.0
C988 C 0.76396 0.48446 0.16831 0.0
O989 O 0.77019 0.50823 0.16633 0.0
O990 O 0.74649 0.47738 0.18444 0.0
C991 C 0.77103 0.56465 0.13723 0.0
O992 O 0.7571 0.5446 0.1296 0.0
C993 C 0.68025 0.46538 0.20651 0.0
C994 C 0.67027 0.45658 0.24732 0.0
C995 C 0.66184 0.45255 0.22188 0.0
N996 N 0.69811 0.47647 0.22214 0.0
N997 N 0.69222 0.47093 0.24653 0.0
C998 C 0.67999 0.46967 0.17767 0.0
H999 H 0.6935 0.48557 0.17216 0.0
H1000 H 0.66007 0.47461 0.17092 0.0
H1001 H 0.68662 0.45168 0.1677 0.0
C1002 C 0.71129 0.56981 0.18199 0.0
N1003 N 0.72374 0.54682 0.18401 0.0
N1004 N 0.70873 0.52984 0.19585 0.0
C1005 C 0.68579 0.54163 0.20147 0.0
C1006 C 0.68666 0.56738 0.1928 0.0
C1007 C 0.72503 0.59488 0.17589 0.0
H1008 H 0.74414 0.59532 0.1859 0.0
H1009 H 0.72836 0.59615 0.1546 0.0
H1010 H 0.71392 0.61225 0.1822 0.0
O1011 O 0.77169 0.54263 0.21909 0.0
O1012 O 0.74868 0.51168 0.23938 0.0
H1013 H 0.67267 0.5227 0.23624 0.0
H1014 H 0.64825 0.54309 0.22093 0.0
C1015 C 0.66461 0.52948 0.21739 0.0
H1016 H 0.6567 0.51245 0.20685 0.0
H1017 H 0.70271 0.47757 0.26261 0.0
O1018 O 0.77555 0.5678 0.16133 0.0
C1019 C 0.7656 0.53006 0.2396 0.0
Co1020 Co 0.54141 0.76019 0.18338 0.0
Co1021 Co 0.58276 0.72483 0.20967 0.0
C1022 C 0.59735 0.7627 0.16709 0.0
O1023 O 0.57363 0.76901 0.16499 0.0
O1024 O 0.6044 0.74574 0.18376 0.0
C1025 C 0.51234 0.76772 0.13979 0.0
O1026 O 0.52588 0.74701 0.13329 0.0
C1027 C 0.61568 0.67931 0.20518 0.0
C1028 C 0.62543 0.66922 0.24573 0.0
C1029 C 0.62873 0.6607 0.2202 0.0
N1030 N 0.60516 0.69725 0.22111 0.0
N1031 N 0.61126 0.6913 0.24534 0.0
C1032 C 0.61082 0.67943 0.17643 0.0
H1033 H 0.59567 0.69391 0.17128 0.0
H1034 H 0.60441 0.65989 0.16977 0.0
H1035 H 0.62899 0.68488 0.1661 0.0
C1036 C 0.51053 0.71278 0.18497 0.0
N1037 N 0.53394 0.72458 0.1856 0.0
N1038 N 0.5512 0.70898 0.19627 0.0
C1039 C 0.5392 0.68618 0.2021 0.0
C1040 C 0.51303 0.68784 0.19498 0.0
C1041 C 0.48536 0.72715 0.18116 0.0
H1042 H 0.48728 0.74757 0.18779 0.0
H1043 H 0.48015 0.72695 0.16021 0.0
H1044 H 0.46919 0.7181 0.19224 0.0
O1045 O 0.54149 0.77302 0.21909 0.0
O1046 O 0.5715 0.74859 0.23919 0.0
H1047 H 0.55929 0.6714 0.23553 0.0
H1048 H 0.53829 0.64777 0.21982 0.0
C1049 C 0.55182 0.66424 0.21657 0.0
H1050 H 0.5684 0.65674 0.20509 0.0
H1051 H 0.60519 0.70188 0.26159 0.0
O1052 O 0.51514 0.77764 0.16224 0.0
C1053 C 0.554 0.76643 0.23947 0.0
Co1054 Co 0.32122 0.54142 0.18552 0.0
Co1055 Co 0.35677 0.58257 0.21185 0.0
C1056 C 0.31897 0.59741 0.1693 0.0
O1057 O 0.31251 0.57373 0.16723 0.0
O1058 O 0.33596 0.60438 0.18598 0.0
C1059 C 0.31298 0.51251 0.14188 0.0
O1060 O 0.33363 0.52598 0.1351 0.0
C1061 C 0.40201 0.61598 0.20768 0.0
C1062 C 0.41242 0.62485 0.24838 0.0
C1063 C 0.42055 0.62889 0.22285 0.0
N1064 N 0.38435 0.60488 0.22351 0.0
N1065 N 0.39049 0.61044 0.24783 0.0
C1066 C 0.40191 0.6117 0.17884 0.0
H1067 H 0.3885 0.59563 0.17354 0.0
H1068 H 0.42178 0.60695 0.17181 0.0
H1069 H 0.39497 0.62962 0.16898 0.0
C1070 C 0.3687 0.51052 0.1864 0.0
N1071 N 0.35685 0.5339 0.18743 0.0
N1072 N 0.37253 0.5511 0.19807 0.0
C1073 C 0.39543 0.53911 0.20347 0.0
C1074 C 0.39376 0.51299 0.19611 0.0
C1075 C 0.35437 0.48536 0.18244 0.0
H1076 H 0.334 0.48717 0.18928 0.0
H1077 H 0.35439 0.48038 0.16143 0.0
H1078 H 0.36357 0.4691 0.19327 0.0
O1079 O 0.30864 0.54128 0.2213 0.0
O1080 O 0.33317 0.57111 0.24147 0.0
H1081 H 0.41073 0.55872 0.23695 0.0
H1082 H 0.43422 0.53825 0.22033 0.0
C1083 C 0.41755 0.55168 0.2177 0.0
H1084 H 0.42459 0.56858 0.20639 0.0
H1085 H 0.38015 0.60385 0.26403 0.0
O1086 O 0.30345 0.51527 0.16449 0.0
C1087 C 0.31537 0.5536 0.24175 0.0
Co1088 Co 0.89731 0.5409 0.76055 0.0
Co1089 Co 0.87121 0.49966 0.72475 0.0
C1090 C 0.91347 0.48485 0.76293 0.0
O1091 O 0.91536 0.50855 0.7694 0.0
O1092 O 0.89702 0.47781 0.74574 0.0
C1093 C 0.94116 0.5696 0.76825 0.0
O1094 O 0.94757 0.55599 0.74756 0.0
C1095 C 0.87539 0.46645 0.67918 0.0
C1096 C 0.83468 0.45792 0.66861 0.0
C1097 C 0.86019 0.45383 0.66045 0.0
N1098 N 0.85959 0.47745 0.69697 0.0
N1099 N 0.83526 0.47208 0.69071 0.0
C1100 C 0.90425 0.47059 0.67934 0.0
H1101 H 0.9096 0.48649 0.69294 0.0
H1102 H 0.9113 0.47552 0.65952 0.0
H1103 H 0.91403 0.45255 0.68607 0.0
C1104 C 0.89636 0.5718 0.71326 0.0
N1105 N 0.89549 0.54835 0.72494 0.0
N1106 N 0.88501 0.53117 0.70912 0.0
C1107 C 0.87962 0.54326 0.68627 0.0
C1108 C 0.88679 0.56941 0.68815 0.0
C1109 C 0.8999 0.59691 0.72781 0.0
H1110 H 0.89309 0.59484 0.74816 0.0
H1111 H 0.92082 0.60225 0.72783 0.0
H1112 H 0.8888 0.61306 0.71875 0.0
O1113 O 0.86149 0.54118 0.77297 0.0
O1114 O 0.84151 0.51129 0.7483 0.0
H1115 H 0.84625 0.52365 0.67075 0.0
H1116 H 0.86287 0.5443 0.64745 0.0
C1117 C 0.8655 0.53077 0.66404 0.0
H1118 H 0.87689 0.51396 0.65691 0.0
H1119 H 0.81908 0.47866 0.70108 0.0
O1120 O 0.91867 0.56699 0.77813 0.0
C1121 C 0.84109 0.52885 0.76609 0.0
Co1122 Co 0.54171 0.89673 0.76005 0.0
Co1123 Co 0.58308 0.87053 0.72462 0.0
C1124 C 0.59772 0.91288 0.76279 0.0
O1125 O 0.57398 0.91483 0.76911 0.0
O1126 O 0.60483 0.89637 0.74568 0.0
C1127 C 0.51294 0.94045 0.76836 0.0
O1128 O 0.52651 0.94726 0.74778 0.0
C1129 C 0.61679 0.87433 0.67942 0.0
C1130 C 0.62533 0.83349 0.66924 0.0
C1131 C 0.62963 0.85894 0.661 0.0
N1132 N 0.60548 0.8587 0.69713 0.0
N1133 N 0.61085 0.83429 0.69112 0.0
C1134 C 0.61277 0.90321 0.67932 0.0
H1135 H 0.59662 0.90872 0.69254 0.0
H1136 H 0.60831 0.91017 0.65936 0.0
H1137 H 0.63071 0.91295 0.68638 0.0
C1138 C 0.5111 0.89606 0.71245 0.0
N1139 N 0.53444 0.89502 0.72437 0.0
N1140 N 0.55169 0.88438 0.70873 0.0
C1141 C 0.53977 0.879 0.68578 0.0
C1142 C 0.51364 0.88637 0.68738 0.0
C1143 C 0.4859 0.89997 0.72674 0.0
H1144 H 0.48766 0.89304 0.74708 0.0
H1145 H 0.48093 0.92098 0.72682 0.0
H1146 H 0.46966 0.88919 0.71747 0.0
O1147 O 0.54137 0.86093 0.77247 0.0
O1148 O 0.57142 0.84087 0.74811 0.0
H1149 H 0.55929 0.84543 0.67057 0.0
H1150 H 0.539 0.86214 0.647 0.0
C1151 C 0.55238 0.86471 0.66372 0.0
H1152 H 0.56936 0.87595 0.65676 0.0
H1153 H 0.60408 0.81821 0.70151 0.0
O1154 O 0.51556 0.91777 0.77778 0.0
C1155 C 0.55374 0.84051 0.76575 0.0
Co1156 Co 0.18508 0.54353 0.76201 0.0
Co1157 Co 0.20923 0.58364 0.7238 0.0
C1158 C 0.16979 0.59996 0.76391 0.0
O1159 O 0.1694 0.5769 0.77261 0.0
O1160 O 0.18337 0.60569 0.74398 0.0
C1161 C 0.14097 0.516 0.77129 0.0
O1162 O 0.13428 0.52982 0.75083 0.0
C1163 C 0.20471 0.61699 0.67824 0.0
C1164 C 0.2454 0.6248 0.66704 0.0
C1165 C 0.21983 0.62964 0.6595 0.0
N1166 N 0.22059 0.60531 0.69551 0.0
N1167 N 0.24492 0.61023 0.68886 0.0
C1168 C 0.17576 0.6136 0.67887 0.0
H1169 H 0.1703 0.59723 0.69184 0.0
H1170 H 0.16814 0.60978 0.65901 0.0
H1171 H 0.16663 0.63158 0.68662 0.0
C1172 C 0.184 0.5116 0.7151 0.0
N1173 N 0.18511 0.53538 0.72617 0.0
N1174 N 0.19487 0.55212 0.70947 0.0
C1175 C 0.1995 0.53951 0.68676 0.0
C1176 C 0.19272 0.51335 0.68958 0.0
C1177 C 0.18113 0.48688 0.73042 0.0
H1178 H 0.18864 0.48955 0.75046 0.0
H1179 H 0.16024 0.4815 0.73137 0.0
H1180 H 0.19194 0.47052 0.72138 0.0
O1181 O 0.22115 0.54221 0.77266 0.0
O1182 O 0.23954 0.57254 0.7473 0.0
H1183 H 0.23248 0.55809 0.66932 0.0
H1184 H 0.2139 0.53795 0.64704 0.0
C1185 C 0.21266 0.55158 0.66373 0.0
H1186 H 0.20143 0.56878 0.6573 0.0
H1187 H 0.26114 0.60322 0.69886 0.0
O1188 O 0.16376 0.51815 0.78056 0.0
C1189 C 0.24099 0.55492 0.765 0.0
Co1190 Co 0.54007 0.18518 0.76067 0.0
Co1191 Co 0.49899 0.21105 0.72463 0.0
C1192 C 0.48407 0.16896 0.76293 0.0
O1193 O 0.50773 0.16716 0.76952 0.0
O1194 O 0.47706 0.18531 0.74563 0.0
C1195 C 0.56852 0.14142 0.76911 0.0
O1196 O 0.55487 0.13474 0.74854 0.0
C1197 C 0.4659 0.20694 0.67898 0.0
C1198 C 0.45752 0.2477 0.66845 0.0
C1199 C 0.45338 0.22221 0.66025 0.0
N1200 N 0.47691 0.22268 0.6968 0.0
N1201 N 0.47163 0.24705 0.69057 0.0
C1202 C 0.46994 0.17806 0.67913 0.0
H1203 H 0.48577 0.17264 0.69278 0.0
H1204 H 0.47491 0.17099 0.65933 0.0
H1205 H 0.45184 0.16835 0.68579 0.0
C1206 C 0.57112 0.18561 0.71342 0.0
N1207 N 0.54765 0.18667 0.72506 0.0
N1208 N 0.53054 0.19712 0.70916 0.0
C1209 C 0.5427 0.20236 0.6863 0.0
C1210 C 0.56883 0.19509 0.68826 0.0
C1211 C 0.59617 0.18196 0.72803 0.0
H1212 H 0.59414 0.18902 0.7483 0.0
H1213 H 0.60127 0.16098 0.7283 0.0
H1214 H 0.61246 0.19277 0.71887 0.0
O1215 O 0.54033 0.22108 0.77284 0.0
O1216 O 0.51049 0.2409 0.74803 0.0
H1217 H 0.52322 0.23574 0.67065 0.0
H1218 H 0.54391 0.219 0.64745 0.0
C1219 C 0.53032 0.21646 0.664 0.0
H1220 H 0.51351 0.20509 0.65685 0.0
H1221 H 0.47822 0.2632 0.70098 0.0
O1222 O 0.56606 0.16409 0.7786 0.0
C1223 C 0.52801 0.24143 0.76582 0.0
Co1224 Co 0.89684 0.54298 0.31938 0.0
Co1225 Co 0.8726 0.58318 0.3575 0.0
C1226 C 0.91273 0.59931 0.3181 0.0
O1227 O 0.91302 0.57629 0.30925 0.0
O1228 O 0.89895 0.60506 0.33789 0.0
C1229 C 0.94087 0.51509 0.31086 0.0
O1230 O 0.94725 0.52888 0.33144 0.0
C1231 C 0.8769 0.61569 0.40349 0.0
C1232 C 0.83621 0.62427 0.41411 0.0
C1233 C 0.86173 0.62835 0.42222 0.0
N1234 N 0.86107 0.6047 0.38575 0.0
N1235 N 0.83675 0.61008 0.39205 0.0
C1236 C 0.90578 0.61166 0.40313 0.0
H1237 H 0.91111 0.59581 0.38946 0.0
H1238 H 0.91297 0.60663 0.42288 0.0
H1239 H 0.91546 0.62976 0.39642 0.0
C1240 C 0.89702 0.5108 0.36622 0.0
N1241 N 0.89613 0.53461 0.35518 0.0
N1242 N 0.8863 0.55137 0.37183 0.0
C1243 C 0.88138 0.53875 0.39446 0.0
C1244 C 0.88808 0.51257 0.39166 0.0
C1245 C 0.90007 0.48607 0.35095 0.0
H1246 H 0.89288 0.48874 0.3308 0.0
H1247 H 0.92095 0.48062 0.35034 0.0
H1248 H 0.88908 0.46976 0.35986 0.0
O1249 O 0.86087 0.5423 0.30811 0.0
O1250 O 0.84262 0.57279 0.33344 0.0
H1251 H 0.84858 0.55801 0.41158 0.0
H1252 H 0.86618 0.53708 0.43391 0.0
C1253 C 0.8681 0.55086 0.41743 0.0
H1254 H 0.8797 0.5676 0.42436 0.0
H1255 H 0.82055 0.60361 0.38163 0.0
O1256 O 0.91829 0.51743 0.30111 0.0
C1257 C 0.84115 0.55537 0.31554 0.0
Co1258 Co 0.54008 0.89824 0.32158 0.0
Co1259 Co 0.49859 0.87184 0.35672 0.0
C1260 C 0.48412 0.91454 0.319 0.0
O1261 O 0.50786 0.91651 0.31272 0.0
O1262 O 0.47696 0.89791 0.33595 0.0
C1263 C 0.56895 0.94201 0.31423 0.0
O1264 O 0.55532 0.94844 0.3349 0.0
C1265 C 0.46502 0.87551 0.40192 0.0
C1266 C 0.45627 0.83467 0.41186 0.0
C1267 C 0.45217 0.8601 0.4203 0.0
N1268 N 0.47616 0.8599 0.38407 0.0
N1269 N 0.47066 0.8355 0.38993 0.0
C1270 C 0.46925 0.90436 0.4022 0.0
H1271 H 0.48536 0.90983 0.38892 0.0
H1272 H 0.47389 0.91116 0.42218 0.0
H1273 H 0.45134 0.91428 0.39531 0.0
C1274 C 0.57064 0.89687 0.36918 0.0
N1275 N 0.54732 0.89603 0.35723 0.0
N1276 N 0.53002 0.88535 0.37276 0.0
C1277 C 0.54189 0.87974 0.39568 0.0
C1278 C 0.56803 0.88702 0.39416 0.0
C1279 C 0.59588 0.90074 0.35496 0.0
H1280 H 0.59409 0.89412 0.33452 0.0
H1281 H 0.60105 0.92171 0.35521 0.0
H1282 H 0.61202 0.88968 0.3641 0.0
O1283 O 0.54024 0.86259 0.30866 0.0
O1284 O 0.51007 0.84247 0.33283 0.0
H1285 H 0.5221 0.8462 0.41058 0.0
H1286 H 0.5426 0.86246 0.43427 0.0
C1287 C 0.52921 0.86534 0.41762 0.0
H1288 H 0.51236 0.87667 0.42476 0.0
H1289 H 0.4773 0.81943 0.37942 0.0
O1290 O 0.56631 0.91955 0.3043 0.0
C1291 C 0.52769 0.84221 0.31512 0.0
Co1292 Co 0.18336 0.53849 0.31997 0.0
Co1293 Co 0.20796 0.49843 0.35795 0.0
C1294 C 0.16828 0.48196 0.31821 0.0
O1295 O 0.16774 0.50502 0.30952 0.0
O1296 O 0.18204 0.47626 0.33802 0.0
C1297 C 0.13907 0.56615 0.31158 0.0
O1298 O 0.13272 0.55236 0.33215 0.0
C1299 C 0.20421 0.46565 0.40381 0.0
C1300 C 0.24508 0.45837 0.41476 0.0
C1301 C 0.21963 0.45359 0.42272 0.0
N1302 N 0.21983 0.47701 0.38613 0.0
N1303 N 0.24426 0.47239 0.39261 0.0
C1304 C 0.17524 0.46891 0.40334 0.0
H1305 H 0.16955 0.48464 0.38969 0.0
H1306 H 0.16781 0.47367 0.42307 0.0
H1307 H 0.16609 0.45057 0.39652 0.0
C1308 C 0.18277 0.57041 0.36688 0.0
N1309 N 0.18376 0.54663 0.3558 0.0
N1310 N 0.1936 0.52986 0.37244 0.0
C1311 C 0.19832 0.54245 0.39514 0.0
C1312 C 0.19158 0.56861 0.39235 0.0
C1313 C 0.17994 0.59516 0.3516 0.0
H1314 H 0.18714 0.59242 0.33146 0.0
H1315 H 0.1591 0.60078 0.35097 0.0
H1316 H 0.19105 0.61138 0.36051 0.0
O1317 O 0.21935 0.53996 0.30898 0.0
O1318 O 0.23795 0.50967 0.33425 0.0
H1319 H 0.23121 0.52359 0.41252 0.0
H1320 H 0.21297 0.54404 0.43479 0.0
C1321 C 0.21149 0.53036 0.41817 0.0
H1322 H 0.20007 0.51339 0.42482 0.0
H1323 H 0.26033 0.47934 0.38231 0.0
O1324 O 0.16164 0.56387 0.30181 0.0
C1325 C 0.23926 0.52728 0.31654 0.0
Co1326 Co 0.54328 0.18514 0.32005 0.0
Co1327 Co 0.58324 0.2094 0.35827 0.0
C1328 C 0.59967 0.16957 0.31863 0.0
O1329 O 0.57667 0.16921 0.30979 0.0
O1330 O 0.60535 0.18327 0.3385 0.0
C1331 C 0.51548 0.14119 0.3107 0.0
O1332 O 0.52904 0.13444 0.33131 0.0
C1333 C 0.61588 0.20547 0.40424 0.0
C1334 C 0.62381 0.24632 0.41486 0.0
C1335 C 0.62831 0.22085 0.42294 0.0
N1336 N 0.60463 0.22113 0.38652 0.0
N1337 N 0.60961 0.24554 0.39281 0.0
C1338 C 0.6123 0.17653 0.40395 0.0
H1339 H 0.59636 0.17097 0.39048 0.0
H1340 H 0.60766 0.16927 0.42376 0.0
H1341 H 0.63046 0.16713 0.39698 0.0
C1342 C 0.51103 0.18457 0.3668 0.0
N1343 N 0.53487 0.1855 0.35583 0.0
N1344 N 0.55155 0.19538 0.37253 0.0
C1345 C 0.53884 0.20027 0.39513 0.0
C1346 C 0.51268 0.19355 0.39224 0.0
C1347 C 0.48637 0.18152 0.35142 0.0
H1348 H 0.48909 0.1889 0.33134 0.0
H1349 H 0.48106 0.16061 0.35059 0.0
H1350 H 0.46996 0.19235 0.36034 0.0
O1351 O 0.54227 0.22112 0.30909 0.0
O1352 O 0.57259 0.23948 0.33446 0.0
H1353 H 0.55769 0.23325 0.41233 0.0
H1354 H 0.53705 0.21529 0.43463 0.0
C1355 C 0.55083 0.21361 0.41811 0.0
H1356 H 0.56775 0.20221 0.42494 0.0
H1357 H 0.60286 0.26163 0.38241 0.0
O1358 O 0.51791 0.16394 0.3014 0.0
C1359 C 0.55511 0.24091 0.31665 0.0
Co1360 Co 0.76113 0.89723 0.53916 0.0
Co1361 Co 0.72526 0.87118 0.49812 0.0
C1362 C 0.76263 0.91413 0.48335 0.0
O1363 O 0.76931 0.91603 0.50699 0.0
O1364 O 0.74566 0.89744 0.47639 0.0
C1365 C 0.76934 0.94048 0.56858 0.0
O1366 O 0.74851 0.94728 0.55539 0.0
C1367 C 0.67955 0.87518 0.46533 0.0
C1368 C 0.66939 0.83443 0.45638 0.0
C1369 C 0.66096 0.85991 0.45262 0.0
N1370 N 0.69752 0.85945 0.47607 0.0
N1371 N 0.69153 0.8351 0.47046 0.0
C1372 C 0.67941 0.904 0.46981 0.0
H1373 H 0.69292 0.9093 0.4858 0.0
H1374 H 0.65952 0.91082 0.47478 0.0
H1375 H 0.6861 0.91404 0.4519 0.0
C1376 C 0.71403 0.89551 0.57069 0.0
N1377 N 0.72563 0.89483 0.54717 0.0
N1378 N 0.70979 0.88434 0.53002 0.0
C1379 C 0.68705 0.87869 0.5422 0.0
C1380 C 0.68898 0.88574 0.56839 0.0
C1381 C 0.72861 0.8993 0.59574 0.0
H1382 H 0.74901 0.89264 0.59364 0.0
H1383 H 0.72848 0.92025 0.60096 0.0
H1384 H 0.71965 0.88822 0.61197 0.0
O1385 O 0.77419 0.86166 0.53849 0.0
O1386 O 0.74939 0.84171 0.50871 0.0
H1387 H 0.67156 0.84549 0.52229 0.0
H1388 H 0.64828 0.86181 0.54323 0.0
C1389 C 0.66481 0.86463 0.52967 0.0
H1390 H 0.65757 0.87618 0.51301 0.0
H1391 H 0.70211 0.81896 0.4768 0.0
O1392 O 0.77903 0.91799 0.5654 0.0
C1393 C 0.76752 0.84139 0.52587 0.0
Co1394 Co 0.76133 0.18403 0.54276 0.0
Co1395 Co 0.72608 0.21014 0.5843 0.0
C1396 C 0.7641 0.16765 0.59871 0.0
O1397 O 0.77039 0.16573 0.57496 0.0
O1398 O 0.74707 0.1842 0.60589 0.0
C1399 C 0.76933 0.14054 0.51354 0.0
O1400 O 0.74879 0.13365 0.52712 0.0
C1401 C 0.68088 0.20633 0.61785 0.0
C1402 C 0.67054 0.24717 0.62618 0.0
C1403 C 0.66227 0.22172 0.63039 0.0
N1404 N 0.69869 0.22198 0.60672 0.0
N1405 N 0.6926 0.24638 0.61199 0.0
C1406 C 0.68086 0.17745 0.61381 0.0
H1407 H 0.6944 0.17194 0.59792 0.0
H1408 H 0.661 0.17049 0.60893 0.0
H1409 H 0.68755 0.1677 0.63189 0.0
C1410 C 0.71359 0.18489 0.51229 0.0
N1411 N 0.72564 0.1859 0.53556 0.0
N1412 N 0.71005 0.19641 0.55293 0.0
C1413 C 0.68701 0.20172 0.54117 0.0
C1414 C 0.6885 0.19445 0.51502 0.0
C1415 C 0.72772 0.18114 0.48697 0.0
H1416 H 0.74809 0.18798 0.48865 0.0
H1417 H 0.72767 0.16017 0.48182 0.0
H1418 H 0.71836 0.19208 0.47088 0.0
O1419 O 0.77389 0.21977 0.54256 0.0
O1420 O 0.7496 0.23976 0.57271 0.0
H1421 H 0.67166 0.235 0.56111 0.0
H1422 H 0.64814 0.21843 0.54065 0.0
C1423 C 0.6649 0.21577 0.55396 0.0
H1424 H 0.65796 0.20429 0.57078 0.0
H1425 H 0.70301 0.26247 0.60526 0.0
O1426 O 0.77888 0.16312 0.5164 0.0
C1427 C 0.76724 0.24014 0.55504 0.0
Co1428 Co 0.90091 0.76042 0.54229 0.0
Co1429 Co 0.87322 0.72596 0.58339 0.0
C1430 C 0.91603 0.76334 0.59853 0.0
O1431 O 0.91877 0.76931 0.57478 0.0
O1432 O 0.89891 0.74678 0.60541 0.0
C1433 C 0.94504 0.7674 0.51342 0.0
O1434 O 0.95147 0.74664 0.5269 0.0
C1435 C 0.87621 0.68104 0.61717 0.0
C1436 C 0.83525 0.67106 0.62527 0.0
C1437 C 0.86062 0.66264 0.62973 0.0
N1438 N 0.86077 0.69888 0.6058 0.0
N1439 N 0.83629 0.69301 0.61093 0.0
C1440 C 0.90511 0.68075 0.61328 0.0
H1441 H 0.91081 0.69411 0.59732 0.0
H1442 H 0.91194 0.66079 0.60861 0.0
H1443 H 0.91481 0.68754 0.63135 0.0
C1444 C 0.89945 0.7126 0.51194 0.0
N1445 N 0.89847 0.72473 0.53518 0.0
N1446 N 0.88726 0.70949 0.55241 0.0
C1447 C 0.88148 0.68658 0.54061 0.0
C1448 C 0.88914 0.68779 0.51456 0.0
C1449 C 0.90387 0.72658 0.48665 0.0
H1450 H 0.89754 0.74713 0.48821 0.0
H1451 H 0.92488 0.72596 0.48175 0.0
H1452 H 0.89288 0.71749 0.47044 0.0
O1453 O 0.86536 0.77365 0.54134 0.0
O1454 O 0.84421 0.74976 0.571 0.0
H1455 H 0.84738 0.67231 0.55991 0.0
H1456 H 0.86369 0.6482 0.53992 0.0
C1457 C 0.86655 0.66495 0.55321 0.0
H1458 H 0.87747 0.65778 0.57031 0.0
H1459 H 0.82032 0.7035 0.60401 0.0
O1460 O 0.92263 0.7774 0.51623 0.0
C1461 C 0.84455 0.76737 0.5533 0.0
Co1462 Co 0.32079 0.89714 0.54176 0.0
Co1463 Co 0.35652 0.871 0.58288 0.0
C1464 C 0.31848 0.91339 0.59778 0.0
O1465 O 0.31197 0.91533 0.57409 0.0
O1466 O 0.33561 0.89686 0.60476 0.0
C1467 C 0.3124 0.94078 0.51297 0.0
O1468 O 0.33299 0.9476 0.52651 0.0
C1469 C 0.40205 0.87496 0.61608 0.0
C1470 C 0.41241 0.83417 0.62455 0.0
C1471 C 0.42069 0.85964 0.62866 0.0
N1472 N 0.38421 0.85926 0.60505 0.0
N1473 N 0.39033 0.83489 0.6104 0.0
C1474 C 0.40202 0.90383 0.61198 0.0
H1475 H 0.38841 0.90928 0.59612 0.0
H1476 H 0.42186 0.9108 0.60701 0.0
H1477 H 0.39537 0.91362 0.63005 0.0
C1478 C 0.36818 0.8964 0.51079 0.0
N1479 N 0.35642 0.89541 0.53422 0.0
N1480 N 0.37219 0.88482 0.55137 0.0
C1481 C 0.39505 0.87942 0.53931 0.0
C1482 C 0.39327 0.88673 0.51318 0.0
C1483 C 0.35374 0.90024 0.48568 0.0
H1484 H 0.33342 0.8933 0.48756 0.0
H1485 H 0.35362 0.92125 0.48067 0.0
H1486 H 0.36293 0.88944 0.46939 0.0
O1487 O 0.30841 0.86133 0.54151 0.0
O1488 O 0.33303 0.84128 0.57135 0.0
H1489 H 0.41043 0.84597 0.55889 0.0
H1490 H 0.43381 0.86251 0.53826 0.0
C1491 C 0.41722 0.86519 0.55178 0.0
H1492 H 0.42438 0.87655 0.56861 0.0
H1493 H 0.37987 0.81877 0.6038 0.0
O1494 O 0.30294 0.91813 0.51566 0.0
C1495 C 0.31526 0.84091 0.5538 0.0
Co1496 Co 0.18355 0.32124 0.54299 0.0
Co1497 Co 0.20946 0.35672 0.58453 0.0
C1498 C 0.16739 0.31829 0.59898 0.0
O1499 O 0.16546 0.312 0.57523 0.0
O1500 O 0.1838 0.33546 0.60614 0.0
C1501 C 0.14003 0.31309 0.51377 0.0
O1502 O 0.13305 0.33362 0.52735 0.0
C1503 C 0.20525 0.40167 0.61857 0.0
C1504 C 0.246 0.41244 0.62672 0.0
C1505 C 0.22047 0.42029 0.63127 0.0
N1506 N 0.22104 0.3842 0.60706 0.0
N1507 N 0.2454 0.39056 0.61223 0.0
C1508 C 0.17635 0.40148 0.61477 0.0
H1509 H 0.17089 0.38839 0.59847 0.0
H1510 H 0.16909 0.42141 0.61065 0.0
H1511 H 0.16684 0.39408 0.63269 0.0
C1512 C 0.18408 0.36895 0.51258 0.0
N1513 N 0.18513 0.35695 0.53587 0.0
N1514 N 0.19549 0.37264 0.55324 0.0
C1515 C 0.2006 0.39572 0.54146 0.0
C1516 C 0.19339 0.39414 0.5153 0.0
C1517 C 0.18062 0.35471 0.48728 0.0
H1518 H 0.18756 0.33438 0.48907 0.0
H1519 H 0.15969 0.35464 0.48196 0.0
H1520 H 0.19164 0.36406 0.47125 0.0
O1521 O 0.21938 0.30895 0.54266 0.0
O1522 O 0.23927 0.33339 0.57277 0.0
H1523 H 0.23386 0.41143 0.56109 0.0
H1524 H 0.21663 0.43485 0.54105 0.0
C1525 C 0.21443 0.41795 0.55427 0.0
H1526 H 0.20307 0.42453 0.57133 0.0
H1527 H 0.26157 0.38044 0.60525 0.0
O1528 O 0.16264 0.30361 0.51665 0.0
C1529 C 0.23974 0.31575 0.55507 0.0
Co1530 Co 0.32162 0.18473 0.53963 0.0
Co1531 Co 0.35685 0.21085 0.49813 0.0
C1532 C 0.31881 0.16836 0.48372 0.0
O1533 O 0.31255 0.1664 0.50746 0.0
O1534 O 0.33581 0.18494 0.47656 0.0
C1535 C 0.31357 0.14116 0.56856 0.0
O1536 O 0.33411 0.13435 0.55492 0.0
C1537 C 0.40168 0.20662 0.46405 0.0
C1538 C 0.41209 0.24733 0.45528 0.0
C1539 C 0.42004 0.22179 0.45095 0.0
N1540 N 0.38422 0.22245 0.47552 0.0
N1541 N 0.39037 0.24678 0.47001 0.0
C1542 C 0.4017 0.17776 0.46818 0.0
H1543 H 0.3889 0.17242 0.48472 0.0
H1544 H 0.42173 0.17066 0.47207 0.0
H1545 H 0.39408 0.168 0.45048 0.0
C1546 C 0.36931 0.18564 0.57015 0.0
N1547 N 0.3573 0.1866 0.54685 0.0
N1548 N 0.37287 0.19717 0.52952 0.0
C1549 C 0.39586 0.20259 0.54133 0.0
C1550 C 0.39437 0.19532 0.56749 0.0
C1551 C 0.35512 0.18181 0.59542 0.0
H1552 H 0.33475 0.18866 0.59371 0.0
H1553 H 0.35514 0.16081 0.60047 0.0
H1554 H 0.36442 0.19268 0.61158 0.0
O1555 O 0.30902 0.22046 0.53982 0.0
O1556 O 0.33328 0.24053 0.50971 0.0
H1557 H 0.41105 0.23612 0.52176 0.0
H1558 H 0.43472 0.21924 0.54181 0.0
C1559 C 0.41787 0.21679 0.52856 0.0
H1560 H 0.42461 0.20556 0.51147 0.0
H1561 H 0.38018 0.26298 0.47684 0.0
O1562 O 0.30406 0.16379 0.56591 0.0
C1563 C 0.31562 0.24086 0.52737 0.0
Co1564 Co 0.89832 0.32202 0.53993 0.0
Co1565 Co 0.87211 0.35718 0.49841 0.0
C1566 C 0.91449 0.31899 0.48395 0.0
O1567 O 0.91656 0.31282 0.50772 0.0
O1568 O 0.89793 0.33603 0.47682 0.0
C1569 C 0.94174 0.31378 0.56935 0.0
O1570 O 0.94882 0.33441 0.55599 0.0
C1571 C 0.87601 0.40195 0.46417 0.0
C1572 C 0.83521 0.41209 0.45549 0.0
C1573 C 0.86068 0.42016 0.45104 0.0
N1574 N 0.86035 0.38446 0.47577 0.0
N1575 N 0.83596 0.39045 0.47032 0.0
C1576 C 0.90489 0.40214 0.46819 0.0
H1577 H 0.91036 0.38945 0.48478 0.0
H1578 H 0.91189 0.42224 0.47195 0.0
H1579 H 0.91461 0.39447 0.45049 0.0
C1580 C 0.89729 0.36975 0.57043 0.0
N1581 N 0.89643 0.35774 0.54712 0.0
N1582 N 0.88582 0.37327 0.52977 0.0
C1583 C 0.88029 0.39625 0.54158 0.0
C1584 C 0.88752 0.39479 0.56776 0.0
C1585 C 0.90107 0.35558 0.59571 0.0
H1586 H 0.89427 0.33519 0.59397 0.0
H1587 H 0.92204 0.35564 0.60085 0.0
H1588 H 0.89011 0.36485 0.61183 0.0
O1589 O 0.8626 0.30944 0.54014 0.0
O1590 O 0.84251 0.33365 0.51001 0.0
H1591 H 0.84668 0.41132 0.52207 0.0
H1592 H 0.86358 0.43509 0.54199 0.0
C1593 C 0.86602 0.4182 0.52878 0.0
H1594 H 0.87717 0.42489 0.51162 0.0
H1595 H 0.81985 0.38018 0.47724 0.0
O1596 O 0.91913 0.30437 0.56629 0.0
C1597 C 0.8422 0.31602 0.52768 0.0
Co1598 Co 0.18364 0.76255 0.53803 0.0
Co1599 Co 0.20824 0.72484 0.49781 0.0
C1600 C 0.16854 0.76472 0.48151 0.0
O1601 O 0.16782 0.77326 0.50464 0.0
O1602 O 0.18245 0.74501 0.47578 0.0
C1603 C 0.13979 0.77151 0.56645 0.0
O1604 O 0.13285 0.75095 0.55291 0.0
C1605 C 0.20413 0.67963 0.46421 0.0
C1606 C 0.2449 0.66855 0.4566 0.0
C1607 C 0.21938 0.66097 0.45163 0.0
N1608 N 0.2199 0.6969 0.47601 0.0
N1609 N 0.24427 0.69035 0.4712 0.0
C1610 C 0.17516 0.68016 0.46751 0.0
H1611 H 0.16958 0.69314 0.48385 0.0
H1612 H 0.1676 0.66029 0.47133 0.0
H1613 H 0.16605 0.68786 0.4495 0.0
C1614 C 0.18298 0.71532 0.56971 0.0
N1615 N 0.18397 0.72663 0.54603 0.0
N1616 N 0.19383 0.71013 0.52913 0.0
C1617 C 0.19856 0.68731 0.5415 0.0
C1618 C 0.19182 0.68985 0.5677 0.0
C1619 C 0.18008 0.73037 0.5946 0.0
H1620 H 0.18732 0.75053 0.5921 0.0
H1621 H 0.15923 0.73098 0.60016 0.0
H1622 H 0.19113 0.72129 0.61077 0.0
O1623 O 0.21967 0.77345 0.53946 0.0
O1624 O 0.23836 0.74829 0.50916 0.0
H1625 H 0.23153 0.67006 0.52269 0.0
H1626 H 0.21295 0.64756 0.54257 0.0
C1627 C 0.21171 0.66441 0.52915 0.0
H1628 H 0.20045 0.65814 0.51192 0.0
H1629 H 0.26042 0.70037 0.47836 0.0
O1630 O 0.16246 0.7809 0.56368 0.0
C1631 C 0.23962 0.76592 0.52685 0.0
C1632 C 0.10669 0.31825 0.47932 0.0
C1633 C 0.12218 0.3019 0.49474 0.0
H1634 H 0.07776 0.32041 0.44935 0.0
C1635 C 0.12029 0.27481 0.49208 0.0
H1636 H 0.10805 0.33923 0.48109 0.0
C1637 C 0.10251 0.26413 0.47463 0.0
C1638 C 0.08717 0.28047 0.45906 0.0
H1639 H 0.13211 0.26196 0.50393 0.0
H1640 H 0.10093 0.24314 0.47308 0.0
C1641 C 0.08956 0.30757 0.46121 0.0
C1642 C 0.80756 0.12057 0.492 0.0
C1643 C 0.78048 0.12263 0.49455 0.0
H1644 H 0.83918 0.10102 0.47307 0.0
C1645 C 0.76409 0.10726 0.47905 0.0
H1646 H 0.82044 0.13228 0.50391 0.0
C1647 C 0.77474 0.0901 0.46094 0.0
C1648 C 0.80182 0.08754 0.45889 0.0
H1649 H 0.74312 0.10876 0.48074 0.0
H1650 H 0.76186 0.0784 0.44901 0.0
C1651 C 0.8182 0.10274 0.47455 0.0
C1652 C 0.96575 0.80527 0.49204 0.0
C1653 C 0.96315 0.77822 0.49444 0.0
H1654 H 0.98548 0.83659 0.4729 0.0
C1655 C 0.97795 0.7616 0.47863 0.0
H1656 H 0.95447 0.81833 0.50419 0.0
C1657 C 0.99498 0.772 0.46024 0.0
C1658 C 0.99797 0.79905 0.45824 0.0
H1659 H 0.97604 0.74065 0.48021 0.0
H1660 H 1.00616 0.75897 0.44798 0.0
C1661 C 0.98344 0.81564 0.47432 0.0
C1662 C 0.26327 0.97878 0.47449 0.0
C1663 C 0.27956 0.99429 0.45905 0.0
H1664 H 0.26122 0.94883 0.50344 0.0
C1665 C 0.30666 0.99187 0.46107 0.0
H1666 H 0.24229 0.98038 0.47302 0.0
C1667 C 0.3174 0.97452 0.47893 0.0
C1668 C 0.30112 0.95885 0.49421 0.0
H1669 H 0.31947 1.0038 0.4493 0.0
H1670 H 0.33839 0.97313 0.48059 0.0
C1671 C 0.27402 0.96078 0.49169 0.0
C1672 C 0.09027 0.77601 0.62 0.0
C1673 C 0.08794 0.80304 0.62278 0.0
H1674 H 0.10831 0.74476 0.59907 0.0
C1675 C 0.10291 0.81971 0.60721 0.0
H1676 H 0.07872 0.76291 0.63184 0.0
C1677 C 0.12031 0.8094 0.58913 0.0
C1678 C 0.12213 0.78237 0.58587 0.0
H1679 H 0.10136 0.84066 0.60923 0.0
H1680 H 0.1319 0.82249 0.57733 0.0
C1681 C 0.10697 0.76571 0.60128 0.0
C1682 C 0.26443 0.10306 0.60684 0.0
C1683 C 0.2807 0.08755 0.62231 0.0
H1684 H 0.2624 0.13304 0.57793 0.0
C1685 C 0.3078 0.08998 0.62034 0.0
H1686 H 0.24344 0.10146 0.60827 0.0
C1687 C 0.31857 0.10735 0.60253 0.0
C1688 C 0.3023 0.12304 0.58725 0.0
H1689 H 0.3206 0.07806 0.63214 0.0
H1690 H 0.33956 0.10877 0.60091 0.0
C1691 C 0.2752 0.12108 0.5897 0.0
C1692 C 0.97888 0.2641 0.60795 0.0
C1693 C 0.99433 0.28015 0.6237 0.0
H1694 H 0.9493 0.26249 0.5786 0.0
C1695 C 0.99216 0.30729 0.62184 0.0
H1696 H 0.98028 0.24309 0.60928 0.0
C1697 C 0.97514 0.31831 0.60383 0.0
C1698 C 0.95953 0.30226 0.58824 0.0
H1699 H 1.00405 0.31992 0.63385 0.0
H1700 H 0.97394 0.33932 0.6023 0.0
C1701 C 0.9612 0.27512 0.59059 0.0
C1702 C 0.76443 0.97384 0.60304 0.0
C1703 C 0.78067 0.95839 0.58747 0.0
H1704 H 0.76245 1.00281 0.63299 0.0
C1705 C 0.80778 0.96041 0.5898 0.0
H1706 H 0.74344 0.97238 0.60153 0.0
C1707 C 0.81858 0.97828 0.60712 0.0
C1708 C 0.80233 0.99358 0.62284 0.0
H1709 H 0.82055 0.94864 0.57782 0.0
H1710 H 0.83956 0.97994 0.60844 0.0
C1711 C 0.77523 0.99105 0.621 0.0
C1712 C 0.49365 0.12126 0.27257 0.0
C1713 C 0.49657 0.12315 0.29963 0.0
H1714 H 0.47434 0.10184 0.2411 0.0
C1715 C 0.4814 0.10759 0.31613 0.0
H1716 H 0.5053 0.13314 0.25961 0.0
C1717 C 0.46323 0.09042 0.30564 0.0
C1718 C 0.46078 0.08804 0.27857 0.0
H1719 H 0.48335 0.10896 0.33709 0.0
H1720 H 0.45153 0.07859 0.31861 0.0
C1721 C 0.47614 0.10341 0.26206 0.0
C1722 C 0.97988 0.4754 0.26345 0.0
C1723 C 0.99494 0.46021 0.28042 0.0
H1724 H 0.9501 0.50443 0.26005 0.0
C1725 C 0.99189 0.46285 0.3074 0.0
H1726 H 0.98194 0.47345 0.24254 0.0
C1727 C 0.9744 0.48105 0.31734 0.0
C1728 C 0.95916 0.49605 0.30036 0.0
H1729 H 1.00344 0.45128 0.32074 0.0
H1730 H 0.97253 0.48317 0.33824 0.0
C1731 C 0.96171 0.49292 0.27338 0.0
C1732 C 0.60703 0.98125 0.26583 0.0
C1733 C 0.62263 0.99634 0.28238 0.0
H1734 H 0.57807 0.95136 0.26324 0.0
C1735 C 0.62083 0.99324 0.30943 0.0
H1736 H 0.60834 0.98334 0.24488 0.0
C1737 C 0.60304 0.97564 0.31987 0.0
C1738 C 0.58764 0.96036 0.30331 0.0
H1739 H 0.63274 1.00482 0.32243 0.0
H1740 H 0.60153 0.97371 0.34083 0.0
C1741 C 0.58992 0.96299 0.27625 0.0
C1742 C 0.11817 0.58831 0.27418 0.0
C1743 C 0.12081 0.58523 0.30115 0.0
H1744 H 0.098 0.60789 0.24339 0.0
C1745 C 0.10579 0.60041 0.31817 0.0
H1746 H 0.12962 0.57667 0.26082 0.0
C1747 C 0.08843 0.61876 0.30828 0.0
C1748 C 0.08531 0.62136 0.28131 0.0
H1749 H 0.10774 0.59832 0.33907 0.0
H1750 H 0.07706 0.63049 0.32164 0.0
C1751 C 0.10013 0.60598 0.2643 0.0
C1752 C 0.47524 0.97873 0.81789 0.0
C1753 C 0.45979 0.99442 0.80176 0.0
H1754 H 0.50393 0.94849 0.81963 0.0
C1755 C 0.46155 0.99201 0.77464 0.0
H1756 H 0.47397 0.9803 0.83889 0.0
C1757 C 0.47914 0.9745 0.7637 0.0
C1758 C 0.49441 0.95865 0.77982 0.0
H1759 H 0.44976 1.00406 0.76195 0.0
H1760 H 0.48061 0.97312 0.7427 0.0
C1761 C 0.49216 0.96057 0.80695 0.0
C1762 C 0.10276 0.47666 0.81957 0.0
C1763 C 0.0873 0.46152 0.80292 0.0
H1764 H 0.13272 0.50556 0.82229 0.0
C1765 C 0.08978 0.4641 0.77588 0.0
H1766 H 0.10111 0.47477 0.84052 0.0
C1767 C 0.10714 0.48219 0.76556 0.0
C1768 C 0.12278 0.49714 0.78219 0.0
H1769 H 0.0779 0.45258 0.76281 0.0
H1770 H 0.10858 0.48426 0.74461 0.0
C1771 C 0.12078 0.49409 0.80923 0.0
C1772 C 0.60228 0.10739 0.76395 0.0
C1773 C 0.58713 0.12314 0.78031 0.0
H1774 H 0.63163 0.07783 0.76174 0.0
C1775 C 0.58959 0.12103 0.8074 0.0
H1776 H 0.60065 0.10891 0.74297 0.0
C1777 C 0.60659 0.10279 0.81806 0.0
C1778 C 0.62191 0.08721 0.8017 0.0
H1779 H 0.57793 0.13303 0.82026 0.0
H1780 H 0.60801 0.10107 0.83904 0.0
C1781 C 0.61995 0.0898 0.77461 0.0
C1782 C 0.9806 0.6075 0.81667 0.0
C1783 C 0.99586 0.62295 0.80013 0.0
H1784 H 0.95047 0.57878 0.81927 0.0
C1785 C 0.99272 0.62117 0.77308 0.0
H1786 H 0.98271 0.6088 0.83763 0.0
C1787 C 0.97496 0.60352 0.76264 0.0
C1788 C 0.95956 0.58824 0.7792 0.0
H1789 H 1.00441 0.63296 0.76007 0.0
H1790 H 0.97304 0.60202 0.74169 0.0
C1791 C 0.96219 0.59054 0.80625 0.0
C1792 C 0.3069 0.46094 0.09045 0.0
C1793 C 0.27979 0.45914 0.08798 0.0
H1794 H 0.33876 0.48009 0.10935 0.0
C1795 C 0.2636 0.4746 0.1036 0.0
H1796 H 0.31963 0.44915 0.07844 0.0
C1797 C 0.27447 0.4916 0.12174 0.0
C1798 C 0.30158 0.49389 0.12371 0.0
H1799 H 0.24261 0.47331 0.10199 0.0
H1800 H 0.26174 0.50337 0.13376 0.0
C1801 C 0.31776 0.47859 0.10794 0.0
C1802 C 0.27456 0.58983 0.96124 0.0
C1803 C 0.30163 0.58733 0.95903 0.0
H1804 H 0.24301 0.60836 0.98128 0.0
C1805 C 0.31807 0.60256 0.97461 0.0
H1806 H 0.26164 0.5781 0.94938 0.0
C1807 C 0.30749 0.62034 0.99215 0.0
C1808 C 0.28041 0.62231 0.99488 0.0
H1809 H 0.33904 0.6009 0.973 0.0
H1810 H 0.3204 0.63207 1.00401 0.0
C1811 C 0.26398 0.60693 0.97945 0.0
C1812 C 0.49335 0.27329 0.96144 0.0
C1813 C 0.49633 0.30033 0.95934 0.0
H1814 H 0.47408 0.24202 0.98119 0.0
C1815 C 0.48129 0.31698 0.97489 0.0
H1816 H 0.50488 0.2602 0.94957 0.0
C1817 C 0.4632 0.30668 0.99226 0.0
C1818 C 0.4607 0.27964 0.99483 0.0
H1819 H 0.4833 0.33793 0.97336 0.0
H1820 H 0.45161 0.31977 1.00406 0.0
C1821 C 0.47592 0.26297 0.97947 0.0
C1822 C 0.77549 0.46347 0.99205 0.0
C1823 C 0.80255 0.46102 0.99452 0.0
H1824 H 0.7441 0.48365 0.97345 0.0
C1825 C 0.81909 0.47643 0.97923 0.0
H1826 H 0.76248 0.45174 1.0038 0.0
C1827 C 0.80864 0.49399 0.96139 0.0
C1828 C 0.78159 0.49691 0.95941 0.0
H1829 H 0.84005 0.47464 0.98087 0.0
H1830 H 0.82165 0.50567 0.94959 0.0
C1831 C 0.76505 0.48169 0.97489 0.0
C1832 C 0.58889 0.80943 0.96174 0.0
C1833 C 0.58571 0.78241 0.95968 0.0
H1834 H 0.60865 0.84059 0.9812 0.0
C1835 C 0.60097 0.76567 0.97492 0.0
H1836 H 0.5772 0.82258 0.95011 0.0
C1837 C 0.61944 0.77588 0.99195 0.0
C1838 C 0.62211 0.8029 0.99454 0.0
H1839 H 0.59883 0.74473 0.97341 0.0
H1840 H 0.63116 0.76272 1.00356 0.0
C1841 C 0.60671 0.81965 0.97946 0.0
C1842 C 0.79266 0.62789 0.1071 0.0
C1843 C 0.79592 0.62046 0.081 0.0
H1844 H 0.78263 0.61568 0.14567 0.0
C1845 C 0.79106 0.59464 0.07357 0.0
H1846 H 0.7965 0.64769 0.11329 0.0
C1847 C 0.78286 0.5765 0.09195 0.0
C1848 C 0.77995 0.5838 0.1181 0.0
H1849 H 0.79343 0.58849 0.05353 0.0
H1850 H 0.77911 0.55669 0.08574 0.0
C1851 C 0.78497 0.60959 0.12561 0.0
C1852 C 0.47811 0.76214 0.1063 0.0
C1853 C 0.49355 0.77869 0.12155 0.0
H1854 H 0.44829 0.75962 0.07723 0.0
C1855 C 0.49121 0.80575 0.11902 0.0
H1856 H 0.47965 0.74118 0.10815 0.0
C1857 C 0.474 0.8162 0.10086 0.0
C1858 C 0.45837 0.79966 0.08578 0.0
H1859 H 0.50309 0.81875 0.13063 0.0
H1860 H 0.47265 0.83715 0.09883 0.0
C1861 C 0.46023 0.77261 0.0888 0.0
C1862 C 0.60745 0.26575 0.10072 0.0
C1863 C 0.62287 0.2824 0.08557 0.0
H1864 H 0.57865 0.26297 0.13076 0.0
C1865 C 0.62091 0.30943 0.0887 0.0
H1866 H 0.60887 0.2448 0.09861 0.0
C1867 C 0.60314 0.31976 0.1064 0.0
C1868 C 0.58792 0.3031 0.12174 0.0
H1869 H 0.63268 0.32251 0.07707 0.0
H1870 H 0.60152 0.34071 0.10835 0.0
C1871 C 0.59036 0.27606 0.11909 0.0
C1872 C 0.97518 0.79688 0.6269 0.0
C1873 C 0.96646 0.80525 0.65147 0.0
H1874 H 0.96621 0.77726 0.5913 0.0
C1875 C 0.94087 0.79899 0.65908 0.0
H1876 H 0.99477 0.80125 0.62041 0.0
C1877 C 0.92455 0.78439 0.64248 0.0
C1878 C 0.93337 0.77641 0.61775 0.0
H1879 H 0.9337 0.8049 0.67801 0.0
H1880 H 0.9049 0.7799 0.64868 0.0
C1881 C 0.95882 0.78298 0.61022 0.0
C1882 C 0.29797 0.95607 0.60856 0.0
C1883 C 0.30541 0.93104 0.61675 0.0
H1884 H 0.27913 0.99195 0.61809 0.0
C1885 C 0.2983 0.92289 0.64196 0.0
H1886 H 0.30299 0.96294 0.58926 0.0
C1887 C 0.28375 0.93944 0.6584 0.0
C1888 C 0.27666 0.96462 0.65012 0.0
H1889 H 0.30346 0.90359 0.6487 0.0
H1890 H 0.27856 0.9328 0.67773 0.0
C1891 C 0.28413 0.97268 0.62507 0.0
C1892 C 0.14186 0.28314 0.65951 0.0
C1893 C 0.11683 0.27566 0.65117 0.0
H1894 H 0.17738 0.30343 0.64988 0.0
C1895 C 0.1087 0.28293 0.62608 0.0
H1896 H 0.14853 0.27813 0.67887 0.0
C1897 C 0.12511 0.29699 0.6096 0.0
C1898 C 0.14997 0.30487 0.61786 0.0
H1899 H 0.08952 0.27762 0.61908 0.0
H1900 H 0.11818 0.30189 0.59028 0.0
C1901 C 0.15819 0.29793 0.64309 0.0
C1902 C 0.78493 0.12508 0.60925 0.0
C1903 C 0.77734 0.15003 0.61756 0.0
H1904 H 0.80397 0.08927 0.61864 0.0
C1905 C 0.78439 0.15813 0.64279 0.0
H1906 H 0.77994 0.11824 0.58992 0.0
C1907 C 0.79904 0.14162 0.65917 0.0
C1908 C 0.80626 0.11651 0.65078 0.0
H1909 H 0.77911 0.17737 0.64962 0.0
H1910 H 0.80416 0.14822 0.67853 0.0
C1911 C 0.79886 0.10849 0.62569 0.0
C1912 C 0.95674 0.29764 0.47314 0.0
C1913 C 0.93183 0.30551 0.465 0.0
H1914 H 0.99227 0.27821 0.4635 0.0
C1915 C 0.92347 0.29847 0.43983 0.0
H1916 H 0.96378 0.3026 0.4924 0.0
C1917 C 0.93971 0.28361 0.42336 0.0
C1918 C 0.96478 0.27615 0.43157 0.0
H1919 H 0.90425 0.30396 0.43313 0.0
H1920 H 0.93293 0.27854 0.40404 0.0
C1921 C 0.97305 0.2835 0.4566 0.0
C1922 C 0.7978 0.93974 0.4229 0.0
C1923 C 0.80449 0.9651 0.43093 0.0
H1924 H 0.77835 0.90384 0.43281 0.0
C1925 C 0.79646 0.97349 0.45572 0.0
H1926 H 0.80342 0.93284 0.40378 0.0
C1927 C 0.78253 0.95699 0.47225 0.0
C1928 C 0.77554 0.93176 0.4643 0.0
H1929 H 0.80117 0.9929 0.46252 0.0
H1930 H 0.77714 0.96406 0.49138 0.0
C1931 C 0.78314 0.92331 0.43933 0.0
C1932 C 0.13811 0.76447 0.4431 0.0
C1933 C 0.15297 0.77842 0.46131 0.0
H1934 H 0.10907 0.76633 0.41306 0.0
C1935 C 0.15154 0.80583 0.46125 0.0
H1936 H 0.1387 0.74339 0.44279 0.0
C1937 C 0.1353 0.81901 0.44364 0.0
C1938 C 0.11945 0.805 0.42636 0.0
H1939 H 0.16283 0.81708 0.47507 0.0
H1940 H 0.1342 0.84006 0.44439 0.0
C1941 C 0.12116 0.77762 0.42615 0.0
C1942 C 0.29803 0.12581 0.47304 0.0
C1943 C 0.30554 0.15081 0.46484 0.0
H1944 H 0.27895 0.09004 0.46357 0.0
C1945 C 0.29832 0.15904 0.43969 0.0
H1946 H 0.30315 0.11887 0.4923 0.0
C1947 C 0.28358 0.14261 0.42332 0.0
C1948 C 0.27643 0.11746 0.4316 0.0
H1949 H 0.30353 0.17832 0.43295 0.0
H1950 H 0.27832 0.14932 0.40404 0.0
C1951 C 0.28401 0.1093 0.4566 0.0
C1952 C 0.60833 0.95547 0.78352 0.0
C1953 C 0.61658 0.93045 0.77608 0.0
H1954 H 0.61767 0.99126 0.8026 0.0
C1955 C 0.6417 0.92224 0.78344 0.0
H1956 H 0.58909 0.96239 0.7783 0.0
C1957 C 0.65799 0.9387 0.79825 0.0
C1958 C 0.64965 0.96387 0.80533 0.0
H1959 H 0.64847 0.90294 0.77829 0.0
H1960 H 0.67725 0.93202 0.80362 0.0
C1961 C 0.62469 0.972 0.7976 0.0
C1962 C 0.12042 0.65333 0.77741 0.0
C1963 C 0.11986 0.65376 0.80484 0.0
H1964 H 0.13736 0.63667 0.74287 0.0
C1965 C 0.13723 0.63777 0.81857 0.0
H1966 H 0.10721 0.66549 0.76633 0.0
C1967 C 0.15384 0.62071 0.80513 0.0
C1968 C 0.15411 0.61998 0.7777 0.0
H1969 H 0.1371 0.63757 0.83966 0.0
H1970 H 0.1663 0.60778 0.81621 0.0
C1971 C 0.13771 0.63696 0.76396 0.0
C1972 C 0.44007 0.15955 0.78349 0.0
C1973 C 0.46517 0.15134 0.77608 0.0
H1974 H 0.40455 0.14975 0.80371 0.0
C1975 C 0.47342 0.1263 0.78342 0.0
H1976 H 0.4333 0.17887 0.77842 0.0
C1977 C 0.45708 0.10975 0.79749 0.0
C1978 C 0.43214 0.11788 0.80529 0.0
H1979 H 0.49265 0.11939 0.77817 0.0
H1980 H 0.4641 0.09047 0.80243 0.0
C1981 C 0.4238 0.14306 0.79827 0.0
C1982 C 0.97261 0.45779 0.79759 0.0
C1983 C 0.96449 0.43283 0.80531 0.0
H1984 H 0.96299 0.49341 0.77833 0.0
C1985 C 0.93933 0.4245 0.79824 0.0
H1986 H 0.99187 0.4648 0.80257 0.0
C1987 C 0.92285 0.44082 0.78347 0.0
C1988 C 0.93106 0.46593 0.77612 0.0
H1989 H 0.93264 0.40524 0.80361 0.0
H1990 H 0.90355 0.43406 0.77834 0.0
C1991 C 0.95608 0.47417 0.78353 0.0
C1992 C 0.62072 0.15368 0.27754 0.0
C1993 C 0.61975 0.15385 0.30496 0.0
H1994 H 0.63786 0.13707 0.24309 0.0
C1995 C 0.63658 0.13736 0.31878 0.0
H1996 H 0.60791 0.1662 0.2664 0.0
C1997 C 0.65306 0.12011 0.30541 0.0
C1998 C 0.65374 0.11967 0.27798 0.0
H1999 H 0.63611 0.13694 0.33987 0.0
H2000 H 0.6651 0.10684 0.31654 0.0
C2001 C 0.63788 0.13711 0.26418 0.0
C2002 C 0.94486 0.63626 0.31847 0.0
C2003 C 0.92856 0.61934 0.30453 0.0
H2004 H 0.97525 0.66492 0.31643 0.0
C2005 C 0.92891 0.62028 0.27711 0.0
H2006 H 0.94512 0.63583 0.33955 0.0
C2007 C 0.94549 0.63751 0.26388 0.0
C2008 C 0.96274 0.65347 0.27779 0.0
H2009 H 0.91653 0.60742 0.26589 0.0
H2010 H 0.94568 0.63747 0.24278 0.0
C2011 C 0.96212 0.65281 0.30522 0.0
C2012 C 0.47347 0.95717 0.29843 0.0
C2013 C 0.46526 0.93213 0.30577 0.0
H2014 H 0.4641 0.99296 0.27936 0.0
C2015 C 0.44021 0.92385 0.29831 0.0
H2016 H 0.49268 0.96413 0.30372 0.0
C2017 C 0.42393 0.94029 0.28348 0.0
C2018 C 0.43222 0.96547 0.27647 0.0
H2019 H 0.43348 0.90453 0.30338 0.0
H2020 H 0.40472 0.93355 0.27801 0.0
C2021 C 0.45712 0.97367 0.28431 0.0
C2022 C 0.15236 0.46097 0.27711 0.0
C2023 C 0.15259 0.46188 0.30453 0.0
H2024 H 0.13565 0.44391 0.24267 0.0
C2025 C 0.13614 0.44504 0.31836 0.0
H2026 H 0.16485 0.4738 0.26596 0.0
C2027 C 0.11885 0.42861 0.30501 0.0
C2028 C 0.11833 0.42799 0.27758 0.0
H2029 H 0.13576 0.44547 0.33945 0.0
H2030 H 0.1056 0.41656 0.31615 0.0
C2031 C 0.13575 0.44385 0.26376 0.0
C2032 C 0.76273 0.63735 0.94474 0.0
C2033 C 0.7768 0.62056 0.92841 0.0
H2034 H 0.76453 0.66605 0.97514 0.0
C2035 C 0.80419 0.62175 0.92871 0.0
H2036 H 0.74165 0.63671 0.94504 0.0
C2037 C 0.81728 0.63913 0.94524 0.0
C2038 C 0.80324 0.65498 0.96252 0.0
H2039 H 0.81551 0.60897 0.91631 0.0
H2040 H 0.83837 0.63929 0.94539 0.0
C2041 C 0.77583 0.65404 0.96198 0.0
C2042 C 0.79896 0.45735 0.10934 0.0
C2043 C 0.80575 0.43203 0.11717 0.0
H2044 H 0.78071 0.49339 0.11925 0.0
C2045 C 0.79822 0.42359 0.14215 0.0
H2046 H 0.80434 0.46445 0.09022 0.0
C2047 C 0.7838 0.44012 0.15872 0.0
C2048 C 0.77733 0.46557 0.1508 0.0
H2049 H 0.8029 0.40406 0.14859 0.0
H2050 H 0.77818 0.43322 0.17784 0.0
C2051 C 0.78529 0.47393 0.12599 0.0
C2052 C 0.62501 0.79755 0.10835 0.0
C2053 C 0.64988 0.80523 0.1168 0.0
H2054 H 0.58926 0.7783 0.1175 0.0
C2055 C 0.6579 0.7981 0.14204 0.0
H2056 H 0.61825 0.8026 0.08901 0.0
C2057 C 0.6414 0.78329 0.15826 0.0
C2058 C 0.61638 0.77598 0.14973 0.0
H2059 H 0.67709 0.80344 0.14897 0.0
H2060 H 0.64794 0.77811 0.17762 0.0
C2061 C 0.60843 0.78347 0.12465 0.0
C2062 C 0.29896 0.60846 0.12649 0.0
C2063 C 0.30604 0.61646 0.15168 0.0
H2064 H 0.28046 0.61822 0.09051 0.0
C2065 C 0.29871 0.64155 0.16 0.0
H2066 H 0.30418 0.58925 0.11949 0.0
C2067 C 0.28424 0.65807 0.14347 0.0
C2068 C 0.2775 0.64998 0.11814 0.0
H2069 H 0.3036 0.64813 0.17943 0.0
H2070 H 0.27882 0.67728 0.15027 0.0
C2071 C 0.28523 0.62506 0.10989 0.0
C2072 C 0.424 0.28375 0.14262 0.0
C2073 C 0.43227 0.27648 0.11749 0.0
H2074 H 0.43372 0.30373 0.17831 0.0
C2075 C 0.45734 0.28383 0.10938 0.0
H2076 H 0.40466 0.27866 0.14929 0.0
C2077 C 0.47386 0.29777 0.12588 0.0
C2078 C 0.46567 0.30542 0.15084 0.0
H2079 H 0.46431 0.27868 0.09014 0.0
H2080 H 0.49316 0.30273 0.11895 0.0
C2081 C 0.44046 0.2984 0.15905 0.0
C2082 C 0.29755 0.43966 0.92285 0.0
C2083 C 0.30453 0.46493 0.93091 0.0
H2084 H 0.27785 0.40391 0.93283 0.0
C2085 C 0.29689 0.47328 0.95583 0.0
H2086 H 0.30289 0.4328 0.90364 0.0
C2087 C 0.283 0.45685 0.97244 0.0
C2088 C 0.27567 0.43173 0.96446 0.0
H2089 H 0.30184 0.49264 0.96264 0.0
H2090 H 0.27785 0.46393 0.99164 0.0
C2091 C 0.28293 0.4233 0.93939 0.0
C2092 C 0.63737 0.26406 0.94497 0.0
C2093 C 0.65356 0.27793 0.96204 0.0
H2094 H 0.60705 0.26617 0.91624 0.0
C2095 C 0.65309 0.30536 0.9613 0.0
H2096 H 0.63719 0.24296 0.94526 0.0
C2097 C 0.63651 0.31866 0.94411 0.0
C2098 C 0.61935 0.30478 0.92801 0.0
H2099 H 0.66539 0.31654 0.97428 0.0
H2100 H 0.63623 0.33975 0.94429 0.0
C2101 C 0.6201 0.27736 0.92847 0.0
C2102 C 0.44419 0.76422 0.94437 0.0
C2103 C 0.46157 0.77816 0.92857 0.0
H2104 H 0.41508 0.76619 0.97434 0.0
C2105 C 0.46097 0.80558 0.92932 0.0
H2106 H 0.44435 0.74312 0.94433 0.0
C2107 C 0.44363 0.81881 0.94582 0.0
C2108 C 0.42722 0.80486 0.9626 0.0
H2109 H 0.47418 0.81682 0.91732 0.0
H2110 H 0.44394 0.8399 0.94635 0.0
C2111 C 0.42753 0.77744 0.96156 0.0
C2112 C 0.13321 0.15399 0.39291 0.0
C2113 C 0.13703 0.14396 0.36769 0.0
H2114 H 0.10802 0.17461 0.419 0.0
C2115 C 0.11713 0.14771 0.34915 0.0
H2116 H 0.1482 0.15302 0.40753 0.0
C2117 C 0.09434 0.16127 0.35557 0.0
C2118 C 0.0906 0.17094 0.38086 0.0
H2119 H 0.11933 0.1406 0.32942 0.0
H2120 H 0.08013 0.165 0.34045 0.0
C2121 C 0.11014 0.16683 0.3995 0.0
C2122 C 0.92947 0.13167 0.39344 0.0
C2123 C 0.93941 0.13559 0.3682 0.0
H2124 H 0.90862 0.10655 0.4194 0.0
C2125 C 0.93545 0.1158 0.34957 0.0
H2126 H 0.93064 0.14654 0.40818 0.0
C2127 C 0.92168 0.0931 0.35587 0.0
C2128 C 0.91197 0.08933 0.38113 0.0
H2129 H 0.94252 0.11805 0.32983 0.0
H2130 H 0.91778 0.07902 0.34066 0.0
C2131 C 0.91638 0.1087 0.3999 0.0
C2132 C 0.96965 0.91249 0.3995 0.0
C2133 C 0.98952 0.90878 0.38112 0.0
H2134 H 0.9316 0.92675 0.40725 0.0
C2135 C 0.98619 0.91895 0.35597 0.0
H2136 H 0.97144 0.90433 0.41887 0.0
C2137 C 0.96365 0.93285 0.34949 0.0
C2138 C 0.94357 0.93652 0.36783 0.0
H2139 H 1.00065 0.91554 0.34101 0.0
H2140 H 0.96185 0.94045 0.32991 0.0
C2141 C 0.94682 0.9258 0.39285 0.0
C2142 C 0.16523 0.97349 0.39903 0.0
C2143 C 0.16981 0.9929 0.38037 0.0
H2144 H 0.15047 0.93584 0.40716 0.0
C2145 C 0.16001 0.98937 0.3551 0.0
H2146 H 0.17306 0.97544 0.41853 0.0
C2147 C 0.14584 0.96694 0.34875 0.0
C2148 C 0.14159 0.94715 0.3673 0.0
H2149 H 0.16407 1.00345 0.33996 0.0
H2150 H 0.13865 0.96492 0.32903 0.0
C2151 C 0.15178 0.95075 0.3925 0.0
C2152 C 0.11755 0.93534 0.73325 0.0
C2153 C 0.13724 0.93929 0.71453 0.0
H2154 H 0.08081 0.91769 0.74228 0.0
C2155 C 0.13323 0.92935 0.6893 0.0
H2156 H 0.11989 0.94239 0.75299 0.0
C2157 C 0.11021 0.91635 0.68291 0.0
C2158 C 0.09093 0.91197 0.70175 0.0
H2159 H 0.14804 0.93047 0.67453 0.0
H2160 H 0.10797 0.90861 0.66341 0.0
C2161 C 0.09482 0.92161 0.72703 0.0
C2162 C 0.16185 0.09416 0.72678 0.0
C2163 C 0.17127 0.09044 0.70139 0.0
H2164 H 0.14107 0.11892 0.75306 0.0
C2165 C 0.16663 0.10983 0.68272 0.0
H2166 H 0.16598 0.08008 0.74191 0.0
C2167 C 0.15344 0.13272 0.68936 0.0
C2168 C 0.14363 0.13649 0.71468 0.0
H2169 H 0.17418 0.10774 0.66314 0.0
H2170 H 0.15202 0.1476 0.67467 0.0
C2171 C 0.14798 0.11675 0.73326 0.0
C2172 C 0.98779 0.16039 0.72749 0.0
C2173 C 0.99162 0.17001 0.7022 0.0
H2174 H 0.96284 0.13952 0.7535 0.0
C2175 C 0.97231 0.16556 0.68341 0.0
H2176 H 1.00182 0.16436 0.74271 0.0
C2177 C 0.94935 0.15245 0.68984 0.0
C2178 C 0.94543 0.14249 0.71507 0.0
H2179 H 0.9745 0.17327 0.66389 0.0
H2180 H 0.93452 0.15123 0.67508 0.0
C2181 C 0.96512 0.14657 0.73376 0.0
C2182 C 0.93509 0.96457 0.7337 0.0
C2183 C 0.9393 0.94482 0.71509 0.0
H2184 H 0.9172 1.00128 0.74245 0.0
C2185 C 0.9294 0.94861 0.68982 0.0
H2186 H 0.94207 0.96239 0.75347 0.0
C2187 C 0.91627 0.97153 0.68324 0.0
C2188 C 0.91174 0.99093 0.70194 0.0
H2189 H 0.93071 0.93372 0.67512 0.0
H2190 H 0.90865 0.97363 0.66368 0.0
C2191 C 0.92124 0.9872 0.72729 0.0
C2192 C 0.34992 0.11671 0.14639 0.0
C2193 C 0.36853 0.13651 0.14244 0.0
H2194 H 0.34112 0.07985 0.16395 0.0
C2195 C 0.3938 0.13256 0.1523 0.0
H2196 H 0.33016 0.11898 0.1394 0.0
C2197 C 0.40033 0.10953 0.16524 0.0
C2198 C 0.38159 0.09014 0.16964 0.0
H2199 H 0.40851 0.14743 0.15117 0.0
H2200 H 0.41986 0.10735 0.1729 0.0
C2201 C 0.35629 0.09395 0.16004 0.0
C2202 C 0.96398 0.35037 0.14793 0.0
C2203 C 0.94375 0.36855 0.14431 0.0
H2204 H 1.00101 0.34214 0.16532 0.0
C2205 C 0.94677 0.39357 0.15511 0.0
H2206 H 0.96236 0.33079 0.14026 0.0
C2207 C 0.96951 0.40037 0.16845 0.0
C2208 C 0.98952 0.38214 0.17216 0.0
H2209 H 0.93142 0.40783 0.15425 0.0
H2210 H 0.9711 0.41974 0.17668 0.0
C2211 C 0.98644 0.35699 0.1619 0.0
C2212 C 0.73067 0.96514 0.14812 0.0
C2213 C 0.71253 0.94484 0.14468 0.0
H2214 H 0.73889 1.00231 0.16524 0.0
C2215 C 0.68752 0.94794 0.15548 0.0
H2216 H 0.75023 0.96348 0.14043 0.0
C2217 C 0.68073 0.97076 0.16874 0.0
C2218 C 0.69896 0.99081 0.17234 0.0
H2219 H 0.67327 0.93258 0.15468 0.0
H2220 H 0.6614 0.97238 0.17703 0.0
C2221 C 0.72406 0.9877 0.16196 0.0
C2222 C 0.09504 0.72369 0.16249 0.0
C2223 C 0.09194 0.69853 0.17273 0.0
H2224 H 0.11933 0.75 0.14124 0.0
C2225 C 0.11209 0.68039 0.1693 0.0
H2226 H 0.08035 0.73847 0.16569 0.0
C2227 C 0.13501 0.68731 0.15632 0.0
C2228 C 0.13808 0.71234 0.1456 0.0
H2229 H 0.11047 0.66104 0.17753 0.0
H2230 H 0.15044 0.67312 0.15569 0.0
C2231 C 0.11769 0.73042 0.14888 0.0
C2232 C 0.34981 0.9669 0.93577 0.0
C2233 C 0.36834 0.94706 0.93998 0.0
H2234 H 0.34111 1.00349 0.91765 0.0
C2235 C 0.39355 0.95064 0.92984 0.0
H2236 H 0.33008 0.96489 0.94292 0.0
C2237 C 0.40014 0.97342 0.91648 0.0
C2238 C 0.38152 0.99289 0.91195 0.0
H2239 H 0.40818 0.9357 0.93113 0.0
H2240 H 0.41965 0.97536 0.90869 0.0
C2241 C 0.35623 0.98937 0.92169 0.0
C2242 C 0.09373 0.3566 0.92069 0.0
C2243 C 0.09005 0.38199 0.91126 0.0
H2244 H 0.11856 0.33024 0.94126 0.0
C2245 C 0.10956 0.40058 0.91571 0.0
H2246 H 0.07955 0.34152 0.9167 0.0
C2247 C 0.13254 0.39386 0.92864 0.0
C2248 C 0.1363 0.36853 0.93844 0.0
H2249 H 0.1075 0.42016 0.90814 0.0
H2250 H 0.14751 0.40847 0.92986 0.0
C2251 C 0.11642 0.35004 0.93434 0.0
C2252 C 0.68124 0.10906 0.91552 0.0
C2253 C 0.69988 0.08953 0.9113 0.0
H2254 H 0.67314 0.14694 0.92976 0.0
C2255 C 0.7251 0.09312 0.92119 0.0
H2256 H 0.66179 0.10707 0.9076 0.0
C2257 C 0.73143 0.11571 0.93511 0.0
C2258 C 0.71289 0.1356 0.93902 0.0
H2259 H 0.74023 0.07895 0.91738 0.0
H2260 H 0.75111 0.11776 0.9424 0.0
C2261 C 0.68775 0.13196 0.92872 0.0
C2262 C 0.96528 0.73105 0.93439 0.0
C2263 C 0.94485 0.71304 0.93773 0.0
H2264 H 1.00244 0.73909 0.91724 0.0
C2265 C 0.94764 0.68813 0.92662 0.0
H2266 H 0.96383 0.75054 0.9423 0.0
C2267 C 0.97037 0.68124 0.91328 0.0
C2268 C 0.99058 0.69929 0.90987 0.0
H2269 H 0.93214 0.67402 0.92726 0.0
H2270 H 0.9718 0.66196 0.90482 0.0
C2271 C 0.98771 0.72435 0.92042 0.0
C2272 C 0.15983 0.35588 0.09336 0.0
C2273 C 0.16976 0.38108 0.08974 0.0
H2274 H 0.13838 0.33 0.11793 0.0
C2275 C 0.16538 0.39982 0.10914 0.0
H2276 H 0.16375 0.34068 0.07929 0.0
C2277 C 0.15197 0.39342 0.13194 0.0
C2278 C 0.14162 0.36831 0.13561 0.0
H2279 H 0.17331 0.41926 0.10713 0.0
H2280 H 0.1508 0.40812 0.14684 0.0
C2281 C 0.14569 0.34967 0.11585 0.0
C2282 C 0.15256 0.6872 0.95153 0.0
C2283 C 0.14221 0.71232 0.94791 0.0
H2284 H 0.1739 0.66132 0.97632 0.0
C2285 C 0.14608 0.73087 0.96779 0.0
H2286 H 0.15152 0.67257 0.93656 0.0
C2287 C 0.16011 0.72459 0.99032 0.0
C2288 C 0.17015 0.69942 0.99385 0.0
H2289 H 0.13873 0.75053 0.96576 0.0
H2290 H 0.16392 0.73975 1.00447 0.0
C2291 C 0.16588 0.68074 0.97437 0.0
C2292 C 0.4003 0.16694 0.97214 0.0
C2293 C 0.38155 0.17127 0.99153 0.0
H2294 H 0.40851 0.15288 0.93422 0.0
C2295 C 0.35623 0.16176 0.98766 0.0
H2296 H 0.41983 0.17459 0.97435 0.0
C2297 C 0.34989 0.14812 0.9649 0.0
C2298 C 0.36854 0.14413 0.94514 0.0
H2299 H 0.34104 0.16567 1.00175 0.0
H2300 H 0.33013 0.14113 0.96261 0.0
C2301 C 0.39379 0.15402 0.94909 0.0
C2302 C 0.93484 0.35041 0.96503 0.0
C2303 C 0.93881 0.36909 0.94531 0.0
H2304 H 0.91724 0.34146 1.00182 0.0
C2305 C 0.92888 0.39433 0.94929 0.0
H2306 H 0.94189 0.33067 0.96272 0.0
C2307 C 0.91587 0.40077 0.97232 0.0
C2308 C 0.9115 0.38197 0.99165 0.0
H2309 H 0.93002 0.40909 0.93446 0.0
H2310 H 0.90816 0.42029 0.97454 0.0
C2311 C 0.92113 0.35669 0.98778 0.0
C2312 C 0.68158 0.91582 0.97274 0.0
C2313 C 0.70028 0.91181 0.99225 0.0
H2314 H 0.67341 0.92953 0.93469 0.0
C2315 C 0.72546 0.92174 0.98853 0.0
H2316 H 0.66216 0.90788 0.97485 0.0
C2317 C 0.73176 0.93532 0.96573 0.0
C2318 C 0.7132 0.93887 0.9458 0.0
H2319 H 0.74061 0.91813 1.00274 0.0
H2320 H 0.75143 0.94258 0.96351 0.0
C2321 C 0.68805 0.9287 0.94966 0.0
C2322 C 0.92978 0.6853 0.13133 0.0
C2323 C 0.93881 0.71088 0.13551 0.0
H2324 H 0.90945 0.65893 0.1061 0.0
C2325 C 0.9333 0.72973 0.11633 0.0
H2326 H 0.93211 0.67027 0.14572 0.0
C2327 C 0.91913 0.72331 0.09396 0.0
C2328 C 0.91056 0.6977 0.08979 0.0
H2329 H 0.93956 0.74972 0.11874 0.0
H2330 H 0.91425 0.7386 0.08029 0.0
C2331 C 0.91629 0.67874 0.10858 0.0
C2332 C 0.35015 0.93368 0.11782 0.0
C2333 C 0.36847 0.93726 0.13792 0.0
H2334 H 0.34165 0.91635 0.08082 0.0
C2335 C 0.39345 0.92643 0.13472 0.0
H2336 H 0.3306 0.94138 0.11959 0.0
C2337 C 0.40007 0.91307 0.11192 0.0
C2338 C 0.38171 0.90941 0.09203 0.0
H2339 H 0.40781 0.9273 0.14997 0.0
H2340 H 0.4194 0.90481 0.11018 0.0
C2341 C 0.3566 0.91972 0.09529 0.0
C2342 C 0.68099 0.16893 0.11068 0.0
C2343 C 0.69928 0.17257 0.09071 0.0
H2344 H 0.67329 0.15445 0.14863 0.0
C2345 C 0.72428 0.16194 0.09373 0.0
H2346 H 0.66174 0.17742 0.10913 0.0
C2347 C 0.73069 0.14768 0.11606 0.0
C2348 C 0.71246 0.14411 0.13625 0.0
H2349 H 0.73919 0.16529 0.07921 0.0
H2350 H 0.75017 0.13975 0.11762 0.0
C2351 C 0.68759 0.15528 0.13331 0.0
C2352 C 0.59354 0.66253 0.85803 0.0
C2353 C 0.59072 0.67313 0.88307 0.0
H2354 H 0.61729 0.64046 0.83189 0.0
C2355 C 0.61092 0.66966 0.90113 0.0
H2356 H 0.57883 0.66577 0.84328 0.0
C2357 C 0.63357 0.6562 0.89427 0.0
C2358 C 0.63629 0.645 0.86939 0.0
H2359 H 0.60953 0.67816 0.92039 0.0
H2360 H 0.64908 0.65552 0.90837 0.0
C2361 C 0.61589 0.64841 0.85137 0.0
C2362 C 0.41589 0.60869 0.90053 0.0
C2363 C 0.41181 0.58924 0.88178 0.0
H2364 H 0.42997 0.64655 0.90887 0.0
C2365 C 0.42196 0.59287 0.85668 0.0
H2366 H 0.40778 0.60664 0.9199 0.0
C2367 C 0.4359 0.6155 0.85053 0.0
C2368 C 0.43955 0.63536 0.86914 0.0
H2369 H 0.4183 0.57874 0.84147 0.0
H2370 H 0.44334 0.61762 0.83092 0.0
C2371 C 0.4291 0.63162 0.8942 0.0
C2372 C 0.44707 0.42631 0.89357 0.0
C2373 C 0.44409 0.43718 0.86858 0.0
H2374 H 0.47145 0.40483 0.91977 0.0
C2375 C 0.4645 0.43389 0.85054 0.0
H2376 H 0.43162 0.42698 0.90773 0.0
C2377 C 0.48708 0.42012 0.85725 0.0
C2378 C 0.49008 0.40971 0.88234 0.0
H2379 H 0.46294 0.44164 0.831 0.0
H2380 H 0.50179 0.41695 0.84248 0.0
C2381 C 0.46991 0.41315 0.90045 0.0
C2382 C 0.64678 0.46671 0.85123 0.0
C2383 C 0.64329 0.44644 0.86939 0.0
H2384 H 0.66431 0.50363 0.84287 0.0
C2385 C 0.65445 0.44931 0.89426 0.0
H2386 H 0.63884 0.4652 0.83176 0.0
C2387 C 0.66805 0.47194 0.90094 0.0
C2388 C 0.67167 0.49197 0.88272 0.0
H2389 H 0.65367 0.43393 0.90849 0.0
H2390 H 0.67655 0.47343 0.92019 0.0
C2391 C 0.661 0.48905 0.85772 0.0
C2392 C 0.61024 0.41614 0.18249 0.0
C2393 C 0.59093 0.41164 0.20128 0.0
H2394 H 0.64806 0.43036 0.17422 0.0
C2395 C 0.59484 0.42106 0.22664 0.0
H2396 H 0.608 0.40858 0.16292 0.0
C2397 C 0.61757 0.43475 0.23298 0.0
C2398 C 0.63725 0.43889 0.21429 0.0
H2399 H 0.58081 0.41704 0.24185 0.0
H2400 H 0.6199 0.44166 0.25277 0.0
C2401 C 0.63326 0.42912 0.18899 0.0
C2402 C 0.66234 0.60752 0.18008 0.0
C2403 C 0.66907 0.58942 0.19936 0.0
H2404 H 0.64659 0.64449 0.17114 0.0
C2405 C 0.66191 0.59451 0.22522 0.0
H2406 H 0.66815 0.60433 0.16005 0.0
C2407 C 0.64835 0.6173 0.23163 0.0
C2408 C 0.64211 0.63594 0.21244 0.0
H2409 H 0.6676 0.58136 0.24069 0.0
H2410 H 0.64328 0.62051 0.25184 0.0
C2411 C 0.64953 0.63066 0.18656 0.0
C2412 C 0.47155 0.66555 0.18292 0.0
C2413 C 0.49098 0.67025 0.20154 0.0
H2414 H 0.43377 0.65101 0.17499 0.0
C2415 C 0.4873 0.66097 0.22698 0.0
H2416 H 0.47361 0.67302 0.1633 0.0
C2417 C 0.46472 0.64714 0.23354 0.0
C2418 C 0.44495 0.64273 0.21501 0.0
H2419 H 0.50139 0.66517 0.24207 0.0
H2420 H 0.46258 0.64032 0.25338 0.0
C2421 C 0.44868 0.65244 0.18965 0.0
C2422 C 0.42917 0.44871 0.18981 0.0
C2423 C 0.4392 0.44481 0.21502 0.0
H2424 H 0.40822 0.47382 0.16392 0.0
C2425 C 0.43506 0.46447 0.23374 0.0
H2426 H 0.43042 0.4339 0.17503 0.0
C2427 C 0.42115 0.4871 0.22752 0.0
C2428 C 0.41149 0.49093 0.20224 0.0
H2429 H 0.44216 0.4622 0.25347 0.0
H2430 H 0.41716 0.5011 0.24277 0.0
C2431 C 0.41596 0.47164 0.18342 0.0
C2432 C 0.89313 0.63406 0.65361 0.0
C2433 C 0.868 0.63802 0.64342 0.0
H2434 H 0.91894 0.60874 0.67436 0.0
C2435 C 0.84931 0.61827 0.64711 0.0
H2436 H 0.90785 0.64894 0.65274 0.0
C2437 C 0.8555 0.59546 0.66075 0.0
C2438 C 0.88071 0.59157 0.67055 0.0
H2439 H 0.82964 0.62059 0.63988 0.0
H2440 H 0.84027 0.58137 0.66444 0.0
C2441 C 0.8995 0.61097 0.6665 0.0
C2442 C 0.46501 0.84857 0.64635 0.0
C2443 C 0.44531 0.86726 0.64227 0.0
H2444 H 0.50175 0.83965 0.66407 0.0
C2445 C 0.44929 0.89253 0.65212 0.0
H2446 H 0.46271 0.82881 0.63938 0.0
C2447 C 0.47229 0.89899 0.66516 0.0
C2448 C 0.4916 0.88019 0.66964 0.0
H2449 H 0.43447 0.90731 0.65089 0.0
H2450 H 0.4745 0.91853 0.67281 0.0
C2451 C 0.48773 0.85488 0.66009 0.0
C2452 C 0.18089 0.47074 0.66913 0.0
C2453 C 0.1991 0.49084 0.67245 0.0
H2454 H 0.17343 0.43241 0.6555 0.0
C2455 C 0.22415 0.4877 0.66197 0.0
H2456 H 0.16161 0.47239 0.67751 0.0
C2457 C 0.23073 0.46503 0.64829 0.0
C2458 C 0.21261 0.44466 0.64515 0.0
H2459 H 0.23897 0.50236 0.66505 0.0
H2460 H 0.25025 0.46334 0.6405 0.0
C2461 C 0.18766 0.44781 0.65606 0.0
C2462 C 0.61778 0.2328 0.64761 0.0
C2463 C 0.63759 0.21415 0.64386 0.0
H2464 H 0.58082 0.24171 0.66485 0.0
C2465 C 0.63361 0.18893 0.65384 0.0
H2466 H 0.62009 0.25252 0.64053 0.0
C2467 C 0.61048 0.18247 0.66663 0.0
C2468 C 0.59104 0.20123 0.67075 0.0
H2469 H 0.6485 0.17422 0.65287 0.0
H2470 H 0.60824 0.16297 0.67438 0.0
C2471 C 0.59494 0.2265 0.66112 0.0
C2472 C 0.89999 0.47017 0.41245 0.0
C2473 C 0.88168 0.49013 0.40882 0.0
H2474 H 0.90767 0.43212 0.42671 0.0
C2475 C 0.85659 0.48696 0.41918 0.0
H2476 H 0.91931 0.47183 0.40414 0.0
C2477 C 0.85011 0.46447 0.43318 0.0
C2478 C 0.86838 0.44431 0.43674 0.0
H2479 H 0.84168 0.50149 0.41584 0.0
H2480 H 0.83057 0.46278 0.44092 0.0
C2481 C 0.89334 0.44742 0.42585 0.0
C2482 C 0.61662 0.84894 0.43495 0.0
C2483 C 0.63632 0.86761 0.43913 0.0
H2484 H 0.57988 0.84014 0.41717 0.0
C2485 C 0.63233 0.89294 0.42947 0.0
H2486 H 0.61895 0.82913 0.44178 0.0
C2487 C 0.60932 0.89949 0.4165 0.0
C2488 C 0.59002 0.88072 0.41191 0.0
H2489 H 0.64715 0.9077 0.43077 0.0
H2490 H 0.60709 0.91908 0.40899 0.0
C2491 C 0.5939 0.85534 0.42127 0.0
C2492 C 0.22964 0.61649 0.43403 0.0
C2493 C 0.21154 0.63685 0.43734 0.0
H2494 H 0.23788 0.57936 0.41686 0.0
C2495 C 0.18666 0.63395 0.42623 0.0
H2496 H 0.24913 0.61801 0.44193 0.0
C2497 C 0.17988 0.61118 0.41291 0.0
C2498 C 0.19803 0.59104 0.40951 0.0
H2499 H 0.17248 0.64939 0.42684 0.0
H2500 H 0.16061 0.60966 0.40446 0.0
C2501 C 0.22307 0.59402 0.42006 0.0
C2502 C 0.48707 0.22531 0.41949 0.0
C2503 C 0.49016 0.20015 0.40925 0.0
H2504 H 0.46289 0.25159 0.44096 0.0
C2505 C 0.47009 0.18197 0.41284 0.0
H2506 H 0.50169 0.24012 0.41617 0.0
C2507 C 0.44728 0.18883 0.42606 0.0
C2508 C 0.44424 0.21387 0.43683 0.0
H2509 H 0.4717 0.1626 0.40463 0.0
H2510 H 0.4319 0.1746 0.42689 0.0
C2511 C 0.46452 0.232 0.43331 0.0
C2512 C 0.65385 0.89168 0.6329 0.0
C2513 C 0.64362 0.86652 0.63659 0.0
H2514 H 0.67495 0.91763 0.60799 0.0
C2515 C 0.64765 0.84792 0.6168 0.0
H2516 H 0.65267 0.90634 0.64784 0.0
C2517 C 0.66159 0.85423 0.5942 0.0
C2518 C 0.6714 0.87948 0.59055 0.0
H2519 H 0.64042 0.82822 0.61891 0.0
H2520 H 0.66544 0.83907 0.58006 0.0
C2521 C 0.66711 0.89816 0.61003 0.0
C2522 C 0.66602 0.18174 0.47384 0.0
C2523 C 0.67053 0.20053 0.49315 0.0
H2524 H 0.65132 0.17338 0.43621 0.0
C2525 C 0.66067 0.22576 0.48949 0.0
H2526 H 0.67391 0.16228 0.47589 0.0
C2527 C 0.64651 0.23196 0.46702 0.0
C2528 C 0.64235 0.21328 0.44732 0.0
H2529 H 0.66469 0.24099 0.5035 0.0
H2530 H 0.63929 0.25166 0.46489 0.0
C2531 C 0.65257 0.18812 0.45105 0.0
C2532 C 0.85722 0.66099 0.4887 0.0
C2533 C 0.8827 0.67002 0.49262 0.0
H2534 H 0.8309 0.64043 0.46384 0.0
C2535 C 0.90152 0.66489 0.4735 0.0
H2536 H 0.84198 0.66551 0.50255 0.0
C2537 C 0.89494 0.65166 0.45064 0.0
C2538 C 0.86951 0.64223 0.44665 0.0
H2539 H 0.9212 0.67215 0.47575 0.0
H2540 H 0.90979 0.64994 0.43597 0.0
C2541 C 0.85079 0.64701 0.46616 0.0
C2542 C 0.42049 0.85523 0.48719 0.0
C2543 C 0.4109 0.88053 0.49105 0.0
H2544 H 0.44134 0.82921 0.46221 0.0
C2545 C 0.41531 0.89932 0.47173 0.0
H2546 H 0.41654 0.84 0.50122 0.0
C2547 C 0.42841 0.89288 0.44875 0.0
C2548 C 0.43838 0.86765 0.44483 0.0
H2549 H 0.4076 0.91884 0.47393 0.0
H2550 H 0.42963 0.90763 0.43392 0.0
C2551 C 0.43429 0.84895 0.4645 0.0
C2552 C 0.22449 0.42219 0.48975 0.0
C2553 C 0.19936 0.41209 0.49338 0.0
H2554 H 0.2503 0.44353 0.46501 0.0
C2555 C 0.18064 0.4162 0.47392 0.0
H2556 H 0.23968 0.4185 0.50389 0.0
C2557 C 0.18701 0.42939 0.45099 0.0
C2558 C 0.21208 0.4398 0.44725 0.0
H2559 H 0.16125 0.40813 0.47596 0.0
H2560 H 0.17236 0.43028 0.43605 0.0
C2561 C 0.23067 0.43612 0.46712 0.0
C2562 C 0.4167 0.18276 0.60882 0.0
C2563 C 0.41222 0.20151 0.58946 0.0
H2564 H 0.43106 0.17454 0.64662 0.0
C2565 C 0.42187 0.2268 0.59322 0.0
H2566 H 0.409 0.16324 0.60668 0.0
C2567 C 0.43568 0.23314 0.61588 0.0
C2568 C 0.43974 0.21452 0.63566 0.0
H2569 H 0.41791 0.24198 0.57914 0.0
H2570 H 0.44272 0.25289 0.61811 0.0
C2571 C 0.42983 0.18926 0.63177 0.0
C2572 C 0.89326 0.4303 0.63208 0.0
C2573 C 0.86797 0.44017 0.63588 0.0
H2574 H 0.91941 0.4095 0.60708 0.0
C2575 C 0.84943 0.43606 0.61605 0.0
H2576 H 0.90794 0.43157 0.64698 0.0
C2577 C 0.85587 0.42224 0.5934 0.0
C2578 C 0.8812 0.41263 0.58972 0.0
H2579 H 0.82966 0.44305 0.61821 0.0
H2580 H 0.84075 0.41825 0.57928 0.0
C2581 C 0.89986 0.41717 0.60915 0.0
C2582 C 0.18697 0.6552 0.6327 0.0
C2583 C 0.21187 0.64406 0.63547 0.0
H2584 H 0.16091 0.67731 0.60872 0.0
C2585 C 0.22992 0.64759 0.6151 0.0
H2586 H 0.17281 0.65438 0.64814 0.0
C2587 C 0.22331 0.66181 0.59279 0.0
C2588 C 0.19829 0.67246 0.58997 0.0
H2589 H 0.24941 0.63967 0.61651 0.0
H2590 H 0.2381 0.66512 0.57814 0.0
C2591 C 0.18017 0.66882 0.6101 0.0
C2592 C 1.01397 0.29153 0.30207 0.0
C2593 C 0.03353 0.27973 0.31692 0.0
H2594 H 1.00511 0.32085 0.27374 0.0
C2595 C 0.05981 0.28492 0.31106 0.0
H2596 H 0.99363 0.28798 0.30639 0.0
C2597 C 0.06642 0.30322 0.29203 0.0
C2598 C 0.04679 0.31699 0.27909 0.0
H2599 H 0.07522 0.27597 0.32235 0.0
H2600 H 0.0867 0.30825 0.28916 0.0
C2601 C 0.02057 0.31031 0.28349 0.0
C2602 C 0.77856 0.06794 0.29215 0.0
C2603 C 0.76521 0.04846 0.27857 0.0
H2604 H 0.80533 0.07634 0.32301 0.0
C2605 C 0.77218 0.02222 0.28241 0.0
H2606 H 0.77328 0.08822 0.28974 0.0
C2607 C 0.7908 1.01539 0.30108 0.0
C2608 C 0.80214 0.03473 0.31658 0.0
H2609 H 0.76192 1.00688 0.27218 0.0
H2610 H 0.79455 0.99499 0.30494 0.0
C2611 C 0.79671 0.06108 0.31126 0.0
C2612 C 1.0151 0.78005 0.28931 0.0
C2613 C 0.03465 0.76519 0.27751 0.0
H2614 H 1.00627 0.80849 0.31855 0.0
C2615 C 0.06093 0.77131 0.28241 0.0
H2616 H 0.99476 0.77552 0.28602 0.0
C2617 C 0.06757 0.7905 0.30057 0.0
C2618 C 0.04796 0.80334 0.31446 0.0
H2619 H 0.07635 0.75999 0.27348 0.0
H2620 H 0.08786 0.79346 0.30548 0.0
C2621 C 0.02172 0.79881 0.30792 0.0
C2622 C 0.31265 0.06124 0.28515 0.0
C2623 C 0.31853 0.03489 0.28031 0.0
H2624 H 0.29063 0.08845 0.30805 0.0
C2625 C 0.3039 1.01547 0.2926 0.0
H2626 H 0.32379 0.07654 0.27584 0.0
C2627 C 0.28541 0.02232 0.31138 0.0
C2628 C 0.28086 0.04864 0.31756 0.0
H2629 H 0.30826 0.99509 0.28933 0.0
H2630 H 0.27571 1.007 0.32216 0.0
C2631 C 0.29367 0.06809 0.30343 0.0
C2632 C 1.01638 0.79102 0.78143 0.0
C2633 C 0.03585 0.80211 0.76593 0.0
H2634 H 1.00752 0.76231 0.81038 0.0
C2635 C 0.06214 0.79643 0.77131 0.0
H2636 H 0.99603 0.79498 0.77753 0.0
C2637 C 0.06877 0.77828 0.79048 0.0
C2638 C 0.04914 0.76518 0.80406 0.0
H2639 H 0.0775 0.80488 0.75957 0.0
H2640 H 0.08899 0.7728 0.79294 0.0
C2641 C 0.02298 0.77239 0.80016 0.0
C2642 C 0.3124 0.02207 0.79717 0.0
C2643 C 0.3184 0.04845 0.80164 0.0
H2644 H 0.29052 0.99464 0.77442 0.0
C2645 C 0.30408 0.06777 0.78885 0.0
H2646 H 0.32334 1.00685 0.80687 0.0
C2647 C 0.2858 0.06075 0.76994 0.0
C2648 C 0.28117 0.03436 0.76412 0.0
H2649 H 0.30856 0.08817 0.79181 0.0
H2650 H 0.27634 0.07596 0.75878 0.0
C2651 C 0.29363 1.01505 0.77875 0.0
C2652 C 0.06783 0.29422 0.77869 0.0
C2653 C 0.04841 0.28064 0.76527 0.0
H2654 H 0.07616 0.32521 0.80536 0.0
C2655 C 0.02212 0.28482 0.77181 0.0
H2656 H 0.08816 0.29151 0.77374 0.0
C2657 C 1.01523 0.30367 0.79022 0.0
C2658 C 0.03455 0.31903 0.80176 0.0
H2659 H 1.00682 0.27456 0.76151 0.0
H2660 H 0.99482 0.30768 0.79377 0.0
C2661 C 0.06092 0.31354 0.7966 0.0
C2662 C 0.7886 0.06657 0.77889 0.0
C2663 C 0.80136 0.04717 0.76462 0.0
H2664 H 0.75845 0.07494 0.8065 0.0
C2665 C 0.79671 0.02082 0.77061 0.0
H2666 H 0.7917 0.08695 0.77442 0.0
C2667 C 0.77817 1.01392 0.78931 0.0
C2668 C 0.7636 0.03331 0.80172 0.0
H2669 H 0.80637 1.00555 0.75971 0.0
H2670 H 0.77373 0.99353 0.7924 0.0
C2671 C 0.76958 0.05967 0.79709 0.0
C2672 C 0.30337 0.29299 0.06695 0.0
C2673 C 0.31828 0.28084 0.04764 0.0
H2674 H 0.27486 0.32233 0.07522 0.0
C2675 C 0.31256 0.28565 0.02125 0.0
H2676 H 0.30759 0.28975 0.08736 0.0
C2677 C 0.29348 0.30377 1.01426 0.0
C2678 C 0.28037 0.31778 0.03362 0.0
H2679 H 0.32391 0.27643 1.00603 0.0
H2680 H 0.2906 0.30839 0.99389 0.0
C2681 C 0.28477 0.31162 0.05997 0.0
C2682 C 0.30862 0.79952 0.06004 0.0
C2683 C 0.31575 0.80305 0.0338 0.0
H2684 H 0.28648 0.77699 0.08746 0.0
C2685 C 0.30291 0.7888 1.01446 0.0
H2686 H 0.31852 0.81023 0.07529 0.0
C2687 C 0.28513 0.76942 0.02148 0.0
C2688 C 0.27956 0.76445 0.04788 0.0
H2689 H 0.30836 0.79094 0.99419 0.0
H2690 H 0.27691 0.75722 1.00635 0.0
C2691 C 0.29036 0.78055 0.06703 0.0
C2692 C 0.77265 0.28309 0.05871 0.0
C2693 C 0.76519 0.27967 0.03254 0.0
H2694 H 0.79525 0.3054 0.08592 0.0
C2695 C 0.77777 0.294 1.0131 0.0
H2696 H 0.76295 0.27232 0.07403 0.0
C2697 C 0.79569 0.31331 0.01998 0.0
C2698 C 0.80166 0.31812 0.04631 0.0
H2699 H 0.77206 0.29194 0.9929 0.0
H2700 H 0.80376 0.32554 1.0048 0.0
C2701 C 0.79106 0.30197 0.06554 0.0
C2702 C 0.79853 0.77202 0.06129 0.0
C2703 C 0.80313 0.76551 0.03504 0.0
H2704 H 0.77527 0.79399 0.08825 0.0
C2705 C 0.79006 0.7792 1.01544 0.0
H2706 H 0.80836 0.76154 0.07673 0.0
C2707 C 0.77074 0.79723 0.02207 0.0
C2708 C 0.76474 0.80226 0.04835 0.0
H2709 H 0.79305 0.7743 0.99514 0.0
H2710 H 0.75941 0.80612 1.00666 0.0
C2711 C 0.77968 0.79055 0.0679 0.0
C2712 C 0.55952 0.78295 0.81038 0.0
C2713 C 0.53324 0.77897 0.81711 0.0
H2714 H 0.58675 0.8053 0.78786 0.0
C2715 C 0.51378 0.79206 0.80326 0.0
H2716 H 0.57484 0.77308 0.821 0.0
C2717 C 0.52064 0.81085 0.7848 0.0
C2718 C 0.54699 0.81632 0.77955 0.0
H2719 H 0.49347 0.78952 0.80834 0.0
H2720 H 0.50537 0.82228 0.77577 0.0
C2721 C 0.56636 0.80129 0.79145 0.0
C2722 C 0.29681 0.56133 0.81132 0.0
C2723 C 0.30234 0.53494 0.81642 0.0
H2724 H 0.2734 0.58857 0.78992 0.0
C2725 C 0.29126 0.51572 0.8006 0.0
H2726 H 0.30523 0.5765 0.82332 0.0
C2727 C 0.27277 0.52265 0.78182 0.0
C2728 C 0.26569 0.5489 0.7782 0.0
H2729 H 0.29508 0.4953 0.80427 0.0
H2730 H 0.26268 0.50736 0.77135 0.0
C2731 C 0.2788 0.56829 0.79213 0.0
C2732 C 0.56105 0.27124 0.78481 0.0
C2733 C 0.53473 0.2658 0.77937 0.0
H2734 H 0.58806 0.29281 0.80831 0.0
C2735 C 0.51531 0.28115 0.79078 0.0
H2736 H 0.57636 0.25958 0.77614 0.0
C2737 C 0.52203 0.29978 0.80948 0.0
C2738 C 0.54825 0.30374 0.81645 0.0
H2739 H 0.49494 0.27718 0.78703 0.0
H2740 H 0.50664 0.30989 0.81978 0.0
C2741 C 0.5678 0.29031 0.80303 0.0
C2742 C 0.8015 0.51623 0.79126 0.0
C2743 C 0.8168 0.53561 0.77976 0.0
H2744 H 0.77277 0.50764 0.82028 0.0
C2745 C 0.81135 0.56196 0.78514 0.0
H2746 H 0.80547 0.49584 0.78756 0.0
C2747 C 0.79228 0.56876 0.80334 0.0
C2748 C 0.77886 0.54926 0.81681 0.0
H2749 H 0.82297 0.57724 0.77641 0.0
H2750 H 0.78973 0.58905 0.80854 0.0
C2751 C 0.78287 0.52301 0.80995 0.0
C2752 C 0.52337 0.27308 0.29969 0.0
C2753 C 0.54948 0.26552 0.3032 0.0
H2754 H 0.49634 0.29578 0.27728 0.0
C2755 C 0.56904 0.27804 0.28898 0.0
H2756 H 0.50796 0.26342 0.31039 0.0
C2757 C 0.56232 0.29598 0.26966 0.0
C2758 C 0.53603 0.30203 0.26473 0.0
H2759 H 0.58921 0.27224 0.29112 0.0
H2760 H 0.57758 0.304 0.25749 0.0
C2761 C 0.51669 0.29152 0.2808 0.0
C2762 C 0.78613 0.5632 0.26844 0.0
C2763 C 0.7796 0.53699 0.26369 0.0
H2764 H 0.81039 0.58981 0.28969 0.0
C2765 C 0.78994 0.51757 0.2798 0.0
H2766 H 0.77828 0.57854 0.25627 0.0
C2767 C 0.80859 0.52403 0.29856 0.0
C2768 C 0.81655 0.55003 0.30194 0.0
H2769 H 0.78532 0.49726 0.27644 0.0
H2770 H 0.81803 0.50852 0.30931 0.0
C2771 C 0.80429 0.56972 0.28765 0.0
C2772 C 0.56715 0.79316 0.27775 0.0
C2773 C 0.54762 0.78055 0.26355 0.0
H2774 H 0.57581 0.82309 0.30551 0.0
C2775 C 0.52133 0.78527 0.26974 0.0
H2776 H 0.58749 0.78999 0.27313 0.0
C2777 C 0.51462 0.80372 0.28862 0.0
C2778 C 0.53414 0.81813 0.301 0.0
H2779 H 0.50595 0.77572 0.25891 0.0
H2780 H 0.49427 0.8082 0.29191 0.0
C2781 C 0.56044 0.8121 0.29613 0.0
C2782 C 0.2897 0.56635 0.28096 0.0
C2783 C 0.30148 0.54691 0.26591 0.0
H2784 H 0.26027 0.575 0.30925 0.0
C2785 C 0.2961 0.52059 0.27139 0.0
H2786 H 0.2934 0.58672 0.27694 0.0
C2787 C 0.27766 0.51383 0.29024 0.0
C2788 C 0.26395 0.53337 0.30337 0.0
H2789 H 0.30504 0.50527 0.25995 0.0
H2790 H 0.2725 0.49354 0.2928 0.0
C2791 C 0.27078 0.55961 0.29935 0.0
C2792 C 0.79717 0.8056 0.51247 0.0
C2793 C 0.78196 0.81741 0.53173 0.0
H2794 H 0.82933 0.78028 0.50453 0.0
C2795 C 0.78481 0.80958 0.55783 0.0
H2796 H 0.79552 0.81164 0.49232 0.0
C2797 C 0.80379 0.79133 0.56482 0.0
C2798 C 0.82064 0.78135 0.54585 0.0
H2799 H 0.77334 0.81872 0.573 0.0
H2800 H 0.80663 0.78668 0.5852 0.0
C2801 C 0.81658 0.78788 0.51952 0.0
C2802 C 0.78561 0.27025 0.52197 0.0
C2803 C 0.78101 0.26435 0.54835 0.0
H2804 H 0.80828 0.29225 0.49459 0.0
C2805 C 0.79343 0.27899 0.56768 0.0
H2806 H 0.77618 0.25909 0.50674 0.0
C2807 C 0.81213 0.2975 0.56069 0.0
C2808 C 0.81811 0.30204 0.53432 0.0
H2809 H 0.79035 0.27461 0.58808 0.0
H2810 H 0.82305 0.30719 0.57592 0.0
C2811 C 0.80382 0.28923 0.51498 0.0
C2812 C 0.29641 0.81118 0.52062 0.0
C2813 C 0.30157 0.81665 0.547 0.0
H2814 H 0.27306 0.78973 0.49337 0.0
C2815 C 0.28973 0.80153 0.56632 0.0
H2816 H 0.3054 0.82267 0.50539 0.0
C2817 C 0.27093 0.78308 0.55941 0.0
C2818 C 0.26428 0.77908 0.53311 0.0
H2819 H 0.29326 0.80555 0.58672 0.0
H2820 H 0.26034 0.77313 0.57471 0.0
C2821 C 0.27809 0.79227 0.5137 0.0
C2822 C 0.26984 0.29753 0.52188 0.0
C2823 C 0.26401 0.3021 0.54829 0.0
H2824 H 0.29176 0.27487 0.49439 0.0
C2825 C 0.27872 0.28966 0.56755 0.0
H2826 H 0.25862 0.30695 0.50671 0.0
C2827 C 0.29722 0.27096 0.56047 0.0
C2828 C 0.30168 0.26499 0.53407 0.0
H2829 H 0.2744 0.2927 0.58797 0.0
H2830 H 0.30696 0.26002 0.57566 0.0
C2831 C 0.28881 0.27931 0.5148 0.0
loop_
_geom_bond_atom_site_label_1
_geom_bond_atom_site_label_2
_geom_bond_distance
_geom_bond_site_symmetry_2
_ccdc_geom_bond_type
Co0 O3 1.997 . S
Co0 N17 1.989 . S
Co0 O25 1.967 . S
Co0 O32 1.920 . S
Co1 O4 1.966 . S
Co1 N10 2.022 . S
Co1 N18 1.993 1_655 S
Co1 O26 1.941 . S
C2 O3 1.227 1_655 S
C2 O4 1.263 . S
O3 Co0 1.997 . S
O3 C2 1.227 1_455 S
O4 Co1 1.966 . S
O4 C2 1.263 . S
C5 O6 1.235 . S
C5 O32 1.289 . S
O6 C5 1.235 . S
C7 C9 1.400 . S
C7 N10 1.351 . S
C7 C12 1.501 . S
C8 C9 1.387 . S
C8 N11 1.341 . S
C9 C7 1.400 . S
C9 C8 1.387 . S
N10 Co1 2.022 . S
N10 C7 1.351 . S
N10 N11 1.365 . S
N11 C8 1.341 . S
N11 N10 1.365 . S
N11 H31 0.862 . S
C12 C7 1.501 . S
C12 H13 0.961 . S
C12 H14 0.961 . S
C12 H15 0.960 . S
H13 C12 0.961 . S
H14 C12 0.961 . S
H15 C12 0.960 . S
C16 N17 1.342 . S
C16 C20 1.401 . S
C16 C21 1.499 . S
N17 Co0 1.989 . S
N17 C16 1.342 . S
N17 N18 1.388 . S
N18 Co1 1.993 1_455 S
N18 N17 1.388 . S
N18 C19 1.346 . S
C19 N18 1.346 . S
C19 C20 1.396 . S
C19 C29 1.510 . S
C20 C16 1.401 . S
C20 C19 1.396 . S
C21 C16 1.499 . S
C21 H22 0.959 . S
C21 H23 0.960 . S
C21 H24 0.961 . S
H22 C21 0.959 . S
H23 C21 0.960 . S
H24 C21 0.961 . S
O25 Co0 1.967 . S
O25 C33 1.258 . S
O26 Co1 1.941 . S
O26 C33 1.266 1_655 S
H27 C29 0.959 . S
H28 C29 0.961 . S
C29 C19 1.510 . S
C29 H27 0.959 . S
C29 H28 0.961 . S
C29 H30 0.960 1_455 S
H30 C29 0.960 1_655 S
H31 N11 0.862 . S
O32 Co0 1.920 . S
O32 C5 1.289 . S
C33 O25 1.258 . S
C33 O26 1.266 1_455 S
Co34 O37 1.997 . S
Co34 N51 1.989 . S
Co34 O59 1.967 . S
Co34 O66 1.920 . S
Co35 O38 1.966 . S
Co35 N44 2.022 . S
Co35 N52 1.993 1_565 S
Co35 O60 1.941 . S
C36 O37 1.228 1_565 S
C36 O38 1.263 . S
O37 Co34 1.997 . S
O37 C36 1.228 1_545 S
O38 Co35 1.966 . S
O38 C36 1.263 . S
C39 O40 1.235 . S
C39 O66 1.289 . S
O40 C39 1.235 . S
C41 C43 1.400 . S
C41 N44 1.351 . S
C41 C46 1.501 . S
C42 C43 1.387 . S
C42 N45 1.341 . S
C43 C41 1.400 . S
C43 C42 1.387 . S
N44 Co35 2.022 . S
N44 C41 1.351 . S
N44 N45 1.365 . S
N45 C42 1.341 . S
N45 N44 1.365 . S
N45 H65 0.862 . S
C46 C41 1.501 . S
C46 H47 0.961 . S
C46 H48 0.961 . S
C46 H49 0.960 . S
H47 C46 0.961 . S
H48 C46 0.961 . S
H49 C46 0.960 . S
C50 N51 1.342 . S
C50 C54 1.401 . S
C50 C55 1.499 . S
N51 Co34 1.989 . S
N51 C50 1.342 . S
N51 N52 1.388 . S
N52 Co35 1.993 1_545 S
N52 N51 1.388 . S
N52 C53 1.346 . S
C53 N52 1.346 . S
C53 C54 1.396 . S
C53 C63 1.510 . S
C54 C50 1.401 . S
C54 C53 1.396 . S
C55 C50 1.499 . S
C55 H56 0.959 . S
C55 H57 0.960 . S
C55 H58 0.961 . S
H56 C55 0.959 . S
H57 C55 0.960 . S
H58 C55 0.961 . S
O59 Co34 1.967 . S
O59 C67 1.258 . S
O60 Co35 1.941 . S
O60 C67 1.266 1_565 S
H61 C63 0.959 . S
H62 C63 0.961 . S
C63 C53 1.510 . S
C63 H61 0.959 . S
C63 H62 0.961 . S
C63 H64 0.960 1_545 S
H64 C63 0.960 1_565 S
H65 N45 0.862 . S
O66 Co34 1.920 . S
O66 C39 1.289 . S
C67 O59 1.258 . S
C67 O60 1.266 1_545 S
Co68 O71 1.970 . S
Co68 N85 1.989 . S
Co68 O93 1.967 . S
Co68 O100 1.920 1_455 S
Co69 O72 1.966 . S
Co69 N78 2.022 . S
Co69 N86 1.993 . S
Co69 O94 1.941 . S
C70 O71 1.258 . S
C70 O72 1.263 . S
O71 Co68 1.970 . S
O71 C70 1.258 . S
O72 Co69 1.966 . S
O72 C70 1.263 . S
C73 O74 1.235 . S
C73 O100 1.289 . S
O74 C73 1.235 . S
C75 C77 1.400 . S
C75 N78 1.351 . S
C75 C80 1.501 . S
C76 C77 1.387 . S
C76 N79 1.341 . S
C77 C75 1.400 . S
C77 C76 1.387 . S
N78 Co69 2.022 . S
N78 C75 1.351 . S
N78 N79 1.365 . S
N79 C76 1.341 . S
N79 N78 1.365 . S
N79 H99 0.862 . S
C80 C75 1.501 . S
C80 H81 0.961 . S
C80 H82 0.961 . S
C80 H83 0.960 . S
H81 C80 0.961 . S
H82 C80 0.961 . S
H83 C80 0.960 . S
C84 N85 1.342 1_655 S
C84 C88 1.401 . S
C84 C89 1.499 . S
N85 Co68 1.989 . S
N85 C84 1.342 1_455 S
N85 N86 1.388 . S
N86 Co69 1.993 . S
N86 N85 1.388 . S
N86 C87 1.346 . S
C87 N86 1.346 . S
C87 C88 1.396 1_455 S
C87 C97 1.510 . S
C88 C84 1.401 . S
C88 C87 1.396 1_655 S
C89 C84 1.499 . S
C89 H90 0.959 . S
C89 H91 0.960 . S
C89 H92 0.961 . S
H90 C89 0.959 . S
H91 C89 0.960 . S
H92 C89 0.961 . S
O93 Co68 1.967 . S
O93 C101 1.258 . S
O94 Co69 1.941 . S
O94 C101 1.266 . S
H95 C97 0.959 . S
H96 C97 0.961 . S
C97 C87 1.510 . S
C97 H95 0.959 . S
C97 H96 0.961 . S
C97 H98 0.960 . S
H98 C97 0.960 . S
H99 N79 0.862 . S
O100 Co68 1.920 1_655 S
O100 C73 1.289 . S
C101 O93 1.258 . S
C101 O94 1.266 . S
Co102 O105 1.970 . S
Co102 N119 1.989 . S
Co102 O127 1.967 . S
Co102 O134 1.920 1_545 S
Co103 O106 1.966 . S
Co103 N112 2.022 . S
Co103 N120 1.993 . S
Co103 O128 1.941 . S
C104 O105 1.258 . S
C104 O106 1.263 . S
O105 Co102 1.970 . S
O105 C104 1.258 . S
O106 Co103 1.966 . S
O106 C104 1.263 . S
C107 O108 1.235 . S
C107 O134 1.289 . S
O108 C107 1.235 . S
C109 C111 1.400 . S
C109 N112 1.351 . S
C109 C114 1.501 . S
C110 C111 1.387 . S
C110 N113 1.341 . S
C111 C109 1.400 . S
C111 C110 1.387 . S
N112 Co103 2.022 . S
N112 C109 1.351 . S
N112 N113 1.365 . S
N113 C110 1.341 . S
N113 N112 1.365 . S
N113 H133 0.862 . S
C114 C109 1.501 . S
C114 H115 0.961 . S
C114 H116 0.961 . S
C114 H117 0.960 . S
H115 C114 0.961 . S
H116 C114 0.961 . S
H117 C114 0.960 . S
C118 N119 1.342 1_565 S
C118 C122 1.401 . S
C118 C123 1.499 . S
N119 Co102 1.989 . S
N119 C118 1.342 1_545 S
N119 N120 1.388 . S
N120 Co103 1.993 . S
N120 N119 1.388 . S
N120 C121 1.346 . S
C121 N120 1.346 . S
C121 C122 1.396 1_545 S
C121 C131 1.510 . S
C122 C118 1.401 . S
C122 C121 1.396 1_565 S
C123 C118 1.499 . S
C123 H124 0.959 . S
C123 H125 0.960 . S
C123 H126 0.961 . S
H124 C123 0.959 . S
H125 C123 0.960 . S
H126 C123 0.961 . S
O127 Co102 1.967 . S
O127 C135 1.258 . S
O128 Co103 1.941 . S
O128 C135 1.266 . S
H129 C131 0.959 . S
H130 C131 0.961 . S
C131 C121 1.510 . S
C131 H129 0.959 . S
C131 H130 0.961 . S
C131 H132 0.960 . S
H132 C131 0.960 . S
H133 N113 0.862 . S
O134 Co102 1.920 1_565 S
O134 C107 1.289 . S
C135 O127 1.258 . S
C135 O128 1.266 . S
Co136 O139 1.997 . S
Co136 N153 1.989 . S
Co136 O161 1.967 . S
Co136 O168 1.920 . S
Co137 O140 1.966 . S
Co137 N146 2.022 . S
Co137 N154 1.993 1_655 S
Co137 O162 1.941 . S
C138 O139 1.227 1_655 S
C138 O140 1.263 . S
O139 Co136 1.997 . S
O139 C138 1.227 1_455 S
O140 Co137 1.966 . S
O140 C138 1.263 . S
C141 O142 1.235 . S
C141 O168 1.289 . S
O142 C141 1.235 . S
C143 C145 1.400 . S
C143 N146 1.351 . S
C143 C148 1.501 . S
C144 C145 1.387 . S
C144 N147 1.341 . S
C145 C143 1.400 . S
C145 C144 1.387 . S
N146 Co137 2.022 . S
N146 C143 1.351 . S
N146 N147 1.365 . S
N147 C144 1.341 . S
N147 N146 1.365 . S
N147 H167 0.862 . S
C148 C143 1.501 . S
C148 H149 0.961 . S
C148 H150 0.961 . S
C148 H151 0.960 . S
H149 C148 0.961 . S
H150 C148 0.961 . S
H151 C148 0.960 . S
C152 N153 1.342 . S
C152 C156 1.401 . S
C152 C157 1.499 . S
N153 Co136 1.989 . S
N153 C152 1.342 . S
N153 N154 1.388 . S
N154 Co137 1.993 1_455 S
N154 N153 1.388 . S
N154 C155 1.346 . S
C155 N154 1.346 . S
C155 C156 1.396 . S
C155 C165 1.510 . S
C156 C152 1.401 . S
C156 C155 1.396 . S
C157 C152 1.499 . S
C157 H158 0.959 . S
C157 H159 0.960 . S
C157 H160 0.961 . S
H158 C157 0.959 . S
H159 C157 0.960 . S
H160 C157 0.961 . S
O161 Co136 1.967 . S
O161 C169 1.258 . S
O162 Co137 1.941 . S
O162 C169 1.266 1_655 S
H163 C165 0.959 . S
H164 C165 0.961 . S
C165 C155 1.510 . S
C165 H163 0.959 . S
C165 H164 0.961 . S
C165 H166 0.960 1_455 S
H166 C165 0.960 1_655 S
H167 N147 0.862 . S
O168 Co136 1.920 . S
O168 C141 1.289 . S
C169 O161 1.258 . S
C169 O162 1.266 1_455 S
Co170 O173 1.997 . S
Co170 N187 1.989 . S
Co170 O195 1.967 . S
Co170 O202 1.920 . S
Co171 O174 1.966 . S
Co171 N180 2.022 . S
Co171 N188 1.993 1_565 S
Co171 O196 1.941 . S
C172 O173 1.228 1_565 S
C172 O174 1.263 . S
O173 Co170 1.997 . S
O173 C172 1.228 1_545 S
O174 Co171 1.966 . S
O174 C172 1.263 . S
C175 O176 1.235 . S
C175 O202 1.289 . S
O176 C175 1.235 . S
C177 C179 1.400 . S
C177 N180 1.351 . S
C177 C182 1.501 . S
C178 C179 1.387 . S
C178 N181 1.341 . S
C179 C177 1.400 . S
C179 C178 1.387 . S
N180 Co171 2.022 . S
N180 C177 1.351 . S
N180 N181 1.365 . S
N181 C178 1.341 . S
N181 N180 1.365 . S
N181 H201 0.862 . S
C182 C177 1.501 . S
C182 H183 0.961 . S
C182 H184 0.961 . S
C182 H185 0.960 . S
H183 C182 0.961 . S
H184 C182 0.961 . S
H185 C182 0.960 . S
C186 N187 1.342 . S
C186 C190 1.401 . S
C186 C191 1.499 . S
N187 Co170 1.989 . S
N187 C186 1.342 . S
N187 N188 1.388 . S
N188 Co171 1.993 1_545 S
N188 N187 1.388 . S
N188 C189 1.346 . S
C189 N188 1.346 . S
C189 C190 1.396 . S
C189 C199 1.510 . S
C190 C186 1.401 . S
C190 C189 1.396 . S
C191 C186 1.499 . S
C191 H192 0.959 . S
C191 H193 0.960 . S
C191 H194 0.961 . S
H192 C191 0.959 . S
H193 C191 0.960 . S
H194 C191 0.961 . S
O195 Co170 1.967 . S
O195 C203 1.258 . S
O196 Co171 1.941 . S
O196 C203 1.266 1_565 S
H197 C199 0.959 . S
H198 C199 0.961 . S
C199 C189 1.510 . S
C199 H197 0.959 . S
C199 H198 0.961 . S
C199 H200 0.960 1_545 S
H200 C199 0.960 1_565 S
H201 N181 0.862 . S
O202 Co170 1.920 . S
O202 C175 1.289 . S
C203 O195 1.258 . S
C203 O196 1.266 1_545 S
Co204 O207 1.970 . S
Co204 N221 1.989 . S
Co204 O229 1.967 . S
Co204 O236 1.920 1_455 S
Co205 O208 1.966 . S
Co205 N214 2.022 . S
Co205 N222 1.993 . S
Co205 O230 1.941 . S
C206 O207 1.258 . S
C206 O208 1.263 . S
O207 Co204 1.970 . S
O207 C206 1.258 . S
O208 Co205 1.966 . S
O208 C206 1.263 . S
C209 O210 1.235 . S
C209 O236 1.289 . S
O210 C209 1.235 . S
C211 C213 1.400 . S
C211 N214 1.351 . S
C211 C216 1.501 . S
C212 C213 1.387 . S
C212 N215 1.341 . S
C213 C211 1.400 . S
C213 C212 1.387 . S
N214 Co205 2.022 . S
N214 C211 1.351 . S
N214 N215 1.365 . S
N215 C212 1.341 . S
N215 N214 1.365 . S
N215 H235 0.862 . S
C216 C211 1.501 . S
C216 H217 0.961 . S
C216 H218 0.961 . S
C216 H219 0.960 . S
H217 C216 0.961 . S
H218 C216 0.961 . S
H219 C216 0.960 . S
C220 N221 1.342 1_655 S
C220 C224 1.401 . S
C220 C225 1.499 . S
N221 Co204 1.989 . S
N221 C220 1.342 1_455 S
N221 N222 1.388 . S
N222 Co205 1.993 . S
N222 N221 1.388 . S
N222 C223 1.346 . S
C223 N222 1.346 . S
C223 C224 1.396 1_455 S
C223 C233 1.510 . S
C224 C220 1.401 . S
C224 C223 1.396 1_655 S
C225 C220 1.499 . S
C225 H226 0.959 . S
C225 H227 0.960 . S
C225 H228 0.961 . S
H226 C225 0.959 . S
H227 C225 0.960 . S
H228 C225 0.961 . S
O229 Co204 1.967 . S
O229 C237 1.258 . S
O230 Co205 1.941 . S
O230 C237 1.266 . S
H231 C233 0.959 . S
H232 C233 0.961 . S
C233 C223 1.510 . S
C233 H231 0.959 . S
C233 H232 0.961 . S
C233 H234 0.960 . S
H234 C233 0.960 . S
H235 N215 0.862 . S
O236 Co204 1.920 1_655 S
O236 C209 1.289 . S
C237 O229 1.258 . S
C237 O230 1.266 . S
Co238 O241 1.970 . S
Co238 N255 1.989 . S
Co238 O263 1.967 . S
Co238 O270 1.920 1_545 S
Co239 O242 1.966 . S
Co239 N248 2.022 . S
Co239 N256 1.993 . S
Co239 O264 1.941 . S
C240 O241 1.258 . S
C240 O242 1.263 . S
O241 Co238 1.970 . S
O241 C240 1.258 . S
O242 Co239 1.966 . S
O242 C240 1.263 . S
C243 O244 1.235 . S
C243 O270 1.289 . S
O244 C243 1.235 . S
C245 C247 1.400 . S
C245 N248 1.351 . S
C245 C250 1.501 . S
C246 C247 1.387 . S
C246 N249 1.341 . S
C247 C245 1.400 . S
C247 C246 1.387 . S
N248 Co239 2.022 . S
N248 C245 1.351 . S
N248 N249 1.365 . S
N249 C246 1.341 . S
N249 N248 1.365 . S
N249 H269 0.862 . S
C250 C245 1.501 . S
C250 H251 0.961 . S
C250 H252 0.961 . S
C250 H253 0.960 . S
H251 C250 0.961 . S
H252 C250 0.961 . S
H253 C250 0.960 . S
C254 N255 1.342 1_565 S
C254 C258 1.401 . S
C254 C259 1.499 . S
N255 Co238 1.989 . S
N255 C254 1.342 1_545 S
N255 N256 1.388 . S
N256 Co239 1.993 . S
N256 N255 1.388 . S
N256 C257 1.346 . S
C257 N256 1.346 . S
C257 C258 1.396 1_545 S
C257 C267 1.510 . S
C258 C254 1.401 . S
C258 C257 1.396 1_565 S
C259 C254 1.499 . S
C259 H260 0.959 . S
C259 H261 0.960 . S
C259 H262 0.961 . S
H260 C259 0.959 . S
H261 C259 0.960 . S
H262 C259 0.961 . S
O263 Co238 1.967 . S
O263 C271 1.258 . S
O264 Co239 1.941 . S
O264 C271 1.266 . S
H265 C267 0.959 . S
H266 C267 0.961 . S
C267 C257 1.510 . S
C267 H265 0.959 . S
C267 H266 0.961 . S
C267 H268 0.960 . S
H268 C267 0.960 . S
H269 N249 0.862 . S
O270 Co238 1.920 1_565 S
O270 C243 1.289 . S
C271 O263 1.258 . S
C271 O264 1.266 . S
Co272 O275 1.997 . S
Co272 N289 1.989 . S
Co272 O297 1.967 . S
Co272 O304 1.920 . S
Co273 O276 1.966 . S
Co273 N282 2.022 . S
Co273 N290 1.993 1_565 S
Co273 O298 1.941 . S
C274 O275 1.227 1_565 S
C274 O276 1.263 . S
O275 Co272 1.997 . S
O275 C274 1.227 1_545 S
O276 Co273 1.966 . S
O276 C274 1.263 . S
C277 O278 1.235 . S
C277 O304 1.289 . S
O278 C277 1.235 . S
C279 C281 1.400 . S
C279 N282 1.351 . S
C279 C284 1.501 . S
C280 C281 1.387 . S
C280 N283 1.341 . S
C281 C279 1.400 . S
C281 C280 1.387 . S
N282 Co273 2.022 . S
N282 C279 1.351 . S
N282 N283 1.365 . S
N283 C280 1.341 . S
N283 N282 1.365 . S
N283 H303 0.862 . S
C284 C279 1.501 . S
C284 H285 0.961 . S
C284 H286 0.961 . S
C284 H287 0.960 . S
H285 C284 0.961 . S
H286 C284 0.961 . S
H287 C284 0.960 . S
C288 N289 1.342 . S
C288 C292 1.401 . S
C288 C293 1.499 . S
N289 Co272 1.989 . S
N289 C288 1.342 . S
N289 N290 1.388 . S
N290 Co273 1.993 1_545 S
N290 N289 1.388 . S
N290 C291 1.346 . S
C291 N290 1.346 . S
C291 C292 1.396 . S
C291 C301 1.510 . S
C292 C288 1.401 . S
C292 C291 1.396 . S
C293 C288 1.499 . S
C293 H294 0.959 . S
C293 H295 0.960 . S
C293 H296 0.961 . S
H294 C293 0.959 . S
H295 C293 0.960 . S
H296 C293 0.961 . S
O297 Co272 1.967 . S
O297 C305 1.258 . S
O298 Co273 1.941 . S
O298 C305 1.266 1_565 S
H299 C301 0.959 . S
H300 C301 0.961 . S
C301 C291 1.510 . S
C301 H299 0.959 . S
C301 H300 0.961 . S
C301 H302 0.960 1_545 S
H302 C301 0.960 1_565 S
H303 N283 0.862 . S
O304 Co272 1.920 . S
O304 C277 1.289 . S
C305 O297 1.258 . S
C305 O298 1.266 1_545 S
Co306 O309 1.970 . S
Co306 N323 1.989 . S
Co306 O331 1.967 . S
Co306 O338 1.920 1_455 S
Co307 O310 1.966 . S
Co307 N316 2.022 . S
Co307 N324 1.993 . S
Co307 O332 1.941 . S
C308 O309 1.258 . S
C308 O310 1.263 . S
O309 Co306 1.970 . S
O309 C308 1.258 . S
O310 Co307 1.966 . S
O310 C308 1.263 . S
C311 O312 1.235 . S
C311 O338 1.289 . S
O312 C311 1.235 . S
C313 C315 1.400 . S
C313 N316 1.351 . S
C313 C318 1.501 . S
C314 C315 1.387 . S
C314 N317 1.341 . S
C315 C313 1.400 . S
C315 C314 1.387 . S
N316 Co307 2.022 . S
N316 C313 1.351 . S
N316 N317 1.365 . S
N317 C314 1.341 . S
N317 N316 1.365 . S
N317 H337 0.862 . S
C318 C313 1.501 . S
C318 H319 0.961 . S
C318 H320 0.961 . S
C318 H321 0.960 . S
H319 C318 0.961 . S
H320 C318 0.961 . S
H321 C318 0.960 . S
C322 N323 1.342 1_655 S
C322 C326 1.401 . S
C322 C327 1.499 . S
N323 Co306 1.989 . S
N323 C322 1.342 1_455 S
N323 N324 1.388 . S
N324 Co307 1.993 . S
N324 N323 1.388 . S
N324 C325 1.346 . S
C325 N324 1.346 . S
C325 C326 1.396 1_455 S
C325 C335 1.510 . S
C326 C322 1.401 . S
C326 C325 1.396 1_655 S
C327 C322 1.499 . S
C327 H328 0.959 . S
C327 H329 0.960 . S
C327 H330 0.961 . S
H328 C327 0.959 . S
H329 C327 0.960 . S
H330 C327 0.961 . S
O331 Co306 1.967 . S
O331 C339 1.258 . S
O332 Co307 1.941 . S
O332 C339 1.266 . S
H333 C335 0.959 . S
H334 C335 0.961 . S
C335 C325 1.510 . S
C335 H333 0.959 . S
C335 H334 0.961 . S
C335 H336 0.960 . S
H336 C335 0.960 . S
H337 N317 0.862 . S
O338 Co306 1.920 1_655 S
O338 C311 1.289 . S
C339 O331 1.258 . S
C339 O332 1.266 . S
Co340 O343 1.970 . S
Co340 N357 1.989 . S
Co340 O365 1.967 . S
Co340 O372 1.920 1_545 S
Co341 O344 1.966 . S
Co341 N350 2.022 . S
Co341 N358 1.993 . S
Co341 O366 1.941 . S
C342 O343 1.258 . S
C342 O344 1.263 . S
O343 Co340 1.970 . S
O343 C342 1.258 . S
O344 Co341 1.966 . S
O344 C342 1.263 . S
C345 O346 1.235 . S
C345 O372 1.289 . S
O346 C345 1.235 . S
C347 C349 1.400 . S
C347 N350 1.351 . S
C347 C352 1.501 . S
C348 C349 1.387 . S
C348 N351 1.341 . S
C349 C347 1.400 . S
C349 C348 1.387 . S
N350 Co341 2.022 . S
N350 C347 1.351 . S
N350 N351 1.365 . S
N351 C348 1.341 . S
N351 N350 1.365 . S
N351 H371 0.862 . S
C352 C347 1.501 . S
C352 H353 0.961 . S
C352 H354 0.961 . S
C352 H355 0.960 . S
H353 C352 0.961 . S
H354 C352 0.961 . S
H355 C352 0.960 . S
C356 N357 1.342 1_565 S
C356 C360 1.401 . S
C356 C361 1.499 . S
N357 Co340 1.989 . S
N357 C356 1.342 1_545 S
N357 N358 1.388 . S
N358 Co341 1.993 . S
N358 N357 1.388 . S
N358 C359 1.346 . S
C359 N358 1.346 . S
C359 C360 1.396 1_545 S
C359 C369 1.510 . S
C360 C356 1.401 . S
C360 C359 1.396 1_565 S
C361 C356 1.499 . S
C361 H362 0.959 . S
C361 H363 0.960 . S
C361 H364 0.961 . S
H362 C361 0.959 . S
H363 C361 0.960 . S
H364 C361 0.961 . S
O365 Co340 1.967 . S
O365 C373 1.258 . S
O366 Co341 1.941 . S
O366 C373 1.266 . S
H367 C369 0.959 . S
H368 C369 0.961 . S
C369 C359 1.510 . S
C369 H367 0.959 . S
C369 H368 0.961 . S
C369 H370 0.960 . S
H370 C369 0.960 . S
H371 N351 0.862 . S
O372 Co340 1.920 1_565 S
O372 C345 1.289 . S
C373 O365 1.258 . S
C373 O366 1.266 . S
Co374 O377 1.997 . S
Co374 N391 1.989 . S
Co374 O399 1.967 . S
Co374 O406 1.920 . S
Co375 O378 1.966 . S
Co375 N384 2.022 . S
Co375 N392 1.993 1_655 S
Co375 O400 1.941 . S
C376 O377 1.228 1_655 S
C376 O378 1.263 . S
O377 Co374 1.997 . S
O377 C376 1.228 1_455 S
O378 Co375 1.966 . S
O378 C376 1.263 . S
C379 O380 1.235 . S
C379 O406 1.289 . S
O380 C379 1.235 . S
C381 C383 1.400 . S
C381 N384 1.351 . S
C381 C386 1.501 . S
C382 C383 1.387 . S
C382 N385 1.341 . S
C383 C381 1.400 . S
C383 C382 1.387 . S
N384 Co375 2.022 . S
N384 C381 1.351 . S
N384 N385 1.365 . S
N385 C382 1.341 . S
N385 N384 1.365 . S
N385 H405 0.862 . S
C386 C381 1.501 . S
C386 H387 0.961 . S
C386 H388 0.961 . S
C386 H389 0.960 . S
H387 C386 0.961 . S
H388 C386 0.961 . S
H389 C386 0.960 . S
C390 N391 1.342 . S
C390 C394 1.401 . S
C390 C395 1.499 . S
N391 Co374 1.989 . S
N391 C390 1.342 . S
N391 N392 1.388 . S
N392 Co375 1.993 1_455 S
N392 N391 1.388 . S
N392 C393 1.346 . S
C393 N392 1.346 . S
C393 C394 1.396 . S
C393 C403 1.510 . S
C394 C390 1.401 . S
C394 C393 1.396 . S
C395 C390 1.499 . S
C395 H396 0.959 . S
C395 H397 0.960 . S
C395 H398 0.961 . S
H396 C395 0.959 . S
H397 C395 0.960 . S
H398 C395 0.961 . S
O399 Co374 1.967 . S
O399 C407 1.258 . S
O400 Co375 1.941 . S
O400 C407 1.266 1_655 S
H401 C403 0.959 . S
H402 C403 0.961 . S
C403 C393 1.510 . S
C403 H401 0.959 . S
C403 H402 0.961 . S
C403 H404 0.960 1_455 S
H404 C403 0.960 1_655 S
H405 N385 0.862 . S
O406 Co374 1.920 . S
O406 C379 1.289 . S
C407 O399 1.258 . S
C407 O400 1.266 1_455 S
Co408 O411 1.970 . S
Co408 N425 1.989 . S
Co408 O433 1.967 . S
Co408 O440 1.920 1_545 S
Co409 O412 1.966 . S
Co409 N418 2.022 . S
Co409 N426 1.993 . S
Co409 O434 1.941 . S
C410 O411 1.258 . S
C410 O412 1.263 . S
O411 Co408 1.970 . S
O411 C410 1.258 . S
O412 Co409 1.966 . S
O412 C410 1.263 . S
C413 O414 1.235 . S
C413 O440 1.289 . S
O414 C413 1.235 . S
C415 C417 1.400 . S
C415 N418 1.351 . S
C415 C420 1.501 . S
C416 C417 1.387 . S
C416 N419 1.341 . S
C417 C415 1.400 . S
C417 C416 1.387 . S
N418 Co409 2.022 . S
N418 C415 1.351 . S
N418 N419 1.365 . S
N419 C416 1.341 . S
N419 N418 1.365 . S
N419 H439 0.862 . S
C420 C415 1.501 . S
C420 H421 0.961 . S
C420 H422 0.961 . S
C420 H423 0.960 . S
H421 C420 0.961 . S
H422 C420 0.961 . S
H423 C420 0.960 . S
C424 N425 1.342 1_565 S
C424 C428 1.401 . S
C424 C429 1.499 . S
N425 Co408 1.989 . S
N425 C424 1.342 1_545 S
N425 N426 1.388 . S
N426 Co409 1.993 . S
N426 N425 1.388 . S
N426 C427 1.346 . S
C427 N426 1.346 . S
C427 C428 1.396 1_545 S
C427 C437 1.510 . S
C428 C424 1.401 . S
C428 C427 1.396 1_565 S
C429 C424 1.499 . S
C429 H430 0.959 . S
C429 H431 0.960 . S
C429 H432 0.961 . S
H430 C429 0.959 . S
H431 C429 0.960 . S
H432 C429 0.961 . S
O433 Co408 1.967 . S
O433 C441 1.258 . S
O434 Co409 1.941 . S
O434 C441 1.266 . S
H435 C437 0.959 . S
H436 C437 0.961 . S
C437 C427 1.510 . S
C437 H435 0.959 . S
C437 H436 0.961 . S
C437 H438 0.960 . S
H438 C437 0.960 . S
H439 N419 0.862 . S
O440 Co408 1.920 1_565 S
O440 C413 1.289 . S
C441 O433 1.258 . S
C441 O434 1.266 . S
Co442 O445 1.997 . S
Co442 N459 1.989 . S
Co442 O467 1.967 . S
Co442 O474 1.920 . S
Co443 O446 1.966 . S
Co443 N452 2.022 . S
Co443 N460 1.993 1_655 S
Co443 O468 1.941 . S
C444 O445 1.228 1_655 S
C444 O446 1.263 . S
O445 Co442 1.997 . S
O445 C444 1.228 1_455 S
O446 Co443 1.966 . S
O446 C444 1.263 . S
C447 O448 1.235 . S
C447 O474 1.289 . S
O448 C447 1.235 . S
C449 C451 1.400 . S
C449 N452 1.351 . S
C449 C454 1.501 . S
C450 C451 1.387 . S
C450 N453 1.341 . S
C451 C449 1.400 . S
C451 C450 1.387 . S
N452 Co443 2.022 . S
N452 C449 1.351 . S
N452 N453 1.365 . S
N453 C450 1.341 . S
N453 N452 1.365 . S
N453 H473 0.862 . S
C454 C449 1.501 . S
C454 H455 0.961 . S
C454 H456 0.961 . S
C454 H457 0.960 . S
H455 C454 0.961 . S
H456 C454 0.961 . S
H457 C454 0.960 . S
C458 N459 1.342 . S
C458 C462 1.401 . S
C458 C463 1.499 . S
N459 Co442 1.989 . S
N459 C458 1.342 . S
N459 N460 1.388 . S
N460 Co443 1.993 1_455 S
N460 N459 1.388 . S
N460 C461 1.346 . S
C461 N460 1.346 . S
C461 C462 1.396 . S
C461 C471 1.510 . S
C462 C458 1.401 . S
C462 C461 1.396 . S
C463 C458 1.499 . S
C463 H464 0.959 . S
C463 H465 0.960 . S
C463 H466 0.961 . S
H464 C463 0.959 . S
H465 C463 0.960 . S
H466 C463 0.961 . S
O467 Co442 1.967 . S
O467 C475 1.258 . S
O468 Co443 1.941 . S
O468 C475 1.266 1_655 S
H469 C471 0.959 . S
H470 C471 0.961 . S
C471 C461 1.510 . S
C471 H469 0.959 . S
C471 H470 0.961 . S
C471 H472 0.960 1_455 S
H472 C471 0.960 1_655 S
H473 N453 0.862 . S
O474 Co442 1.920 . S
O474 C447 1.289 . S
C475 O467 1.258 . S
C475 O468 1.266 1_455 S
Co476 O479 1.997 . S
Co476 N493 1.989 . S
Co476 O501 1.967 . S
Co476 O508 1.920 . S
Co477 O480 1.966 . S
Co477 N486 2.022 . S
Co477 N494 1.993 1_565 S
Co477 O502 1.941 . S
C478 O479 1.227 1_565 S
C478 O480 1.263 . S
O479 Co476 1.997 . S
O479 C478 1.227 1_545 S
O480 Co477 1.966 . S
O480 C478 1.263 . S
C481 O482 1.235 . S
C481 O508 1.289 . S
O482 C481 1.235 . S
C483 C485 1.400 . S
C483 N486 1.351 . S
C483 C488 1.501 . S
C484 C485 1.387 . S
C484 N487 1.341 . S
C485 C483 1.400 . S
C485 C484 1.387 . S
N486 Co477 2.022 . S
N486 C483 1.351 . S
N486 N487 1.365 . S
N487 C484 1.341 . S
N487 N486 1.365 . S
N487 H507 0.862 . S
C488 C483 1.501 . S
C488 H489 0.961 . S
C488 H490 0.961 . S
C488 H491 0.960 . S
H489 C488 0.961 . S
H490 C488 0.961 . S
H491 C488 0.960 . S
C492 N493 1.342 . S
C492 C496 1.401 . S
C492 C497 1.499 . S
N493 Co476 1.989 . S
N493 C492 1.342 . S
N493 N494 1.388 . S
N494 Co477 1.993 1_545 S
N494 N493 1.388 . S
N494 C495 1.346 . S
C495 N494 1.346 . S
C495 C496 1.396 . S
C495 C505 1.510 . S
C496 C492 1.401 . S
C496 C495 1.396 . S
C497 C492 1.499 . S
C497 H498 0.959 . S
C497 H499 0.960 . S
C497 H500 0.961 . S
H498 C497 0.959 . S
H499 C497 0.960 . S
H500 C497 0.961 . S
O501 Co476 1.967 . S
O501 C509 1.258 . S
O502 Co477 1.941 . S
O502 C509 1.266 1_565 S
H503 C505 0.959 . S
H504 C505 0.961 . S
C505 C495 1.510 . S
C505 H503 0.959 . S
C505 H504 0.961 . S
C505 H506 0.960 1_545 S
H506 C505 0.960 1_565 S
H507 N487 0.862 . S
O508 Co476 1.920 . S
O508 C481 1.289 . S
C509 O501 1.258 . S
C509 O502 1.266 1_545 S
Co510 O513 1.970 . S
Co510 N527 1.989 . S
Co510 O535 1.967 . S
Co510 O542 1.920 1_455 S
Co511 O514 1.966 . S
Co511 N520 2.022 . S
Co511 N528 1.993 . S
Co511 O536 1.941 . S
C512 O513 1.258 . S
C512 O514 1.263 . S
O513 Co510 1.970 . S
O513 C512 1.258 . S
O514 Co511 1.966 . S
O514 C512 1.263 . S
C515 O516 1.235 . S
C515 O542 1.289 . S
O516 C515 1.235 . S
C517 C519 1.400 . S
C517 N520 1.351 . S
C517 C522 1.501 . S
C518 C519 1.387 . S
C518 N521 1.341 . S
C519 C517 1.400 . S
C519 C518 1.387 . S
N520 Co511 2.022 . S
N520 C517 1.351 . S
N520 N521 1.365 . S
N521 C518 1.341 . S
N521 N520 1.365 . S
N521 H541 0.862 . S
C522 C517 1.501 . S
C522 H523 0.961 . S
C522 H524 0.961 . S
C522 H525 0.960 . S
H523 C522 0.961 . S
H524 C522 0.961 . S
H525 C522 0.960 . S
C526 N527 1.342 1_655 S
C526 C530 1.401 . S
C526 C531 1.499 . S
N527 Co510 1.989 . S
N527 C526 1.342 1_455 S
N527 N528 1.388 . S
N528 Co511 1.993 . S
N528 N527 1.388 . S
N528 C529 1.346 . S
C529 N528 1.346 . S
C529 C530 1.396 1_455 S
C529 C539 1.510 . S
C530 C526 1.401 . S
C530 C529 1.396 1_655 S
C531 C526 1.499 . S
C531 H532 0.959 . S
C531 H533 0.960 . S
C531 H534 0.961 . S
H532 C531 0.959 . S
H533 C531 0.960 . S
H534 C531 0.961 . S
O535 Co510 1.967 . S
O535 C543 1.258 . S
O536 Co511 1.941 . S
O536 C543 1.266 . S
H537 C539 0.959 . S
H538 C539 0.961 . S
C539 C529 1.510 . S
C539 H537 0.959 . S
C539 H538 0.961 . S
C539 H540 0.960 . S
H540 C539 0.960 . S
H541 N521 0.862 . S
O542 Co510 1.920 1_655 S
O542 C515 1.289 . S
C543 O535 1.258 . S
C543 O536 1.266 . S
Co544 O547 1.997 . S
Co544 N561 1.989 . S
Co544 O569 1.967 . S
Co544 O576 1.920 . S
Co545 O548 1.966 . S
Co545 N554 2.022 . S
Co545 N562 1.993 1_556 S
Co545 O570 1.941 . S
C546 O547 1.227 1_556 S
C546 O548 1.263 . S
O547 Co544 1.997 . S
O547 C546 1.227 1_554 S
O548 Co545 1.966 . S
O548 C546 1.263 . S
C549 O550 1.235 . S
C549 O576 1.289 . S
O550 C549 1.235 . S
C551 C553 1.400 . S
C551 N554 1.351 . S
C551 C556 1.501 . S
C552 C553 1.387 . S
C552 N555 1.341 . S
C553 C551 1.400 . S
C553 C552 1.387 . S
N554 Co545 2.022 . S
N554 C551 1.351 . S
N554 N555 1.365 . S
N555 C552 1.341 . S
N555 N554 1.365 . S
N555 H575 0.862 . S
C556 C551 1.501 . S
C556 H557 0.961 . S
C556 H558 0.961 . S
C556 H559 0.960 . S
H557 C556 0.961 . S
H558 C556 0.961 . S
H559 C556 0.960 . S
C560 N561 1.342 . S
C560 C564 1.401 . S
C560 C565 1.499 . S
N561 Co544 1.989 . S
N561 C560 1.342 . S
N561 N562 1.388 . S
N562 Co545 1.993 1_554 S
N562 N561 1.388 . S
N562 C563 1.346 . S
C563 N562 1.346 . S
C563 C564 1.396 . S
C563 C573 1.510 . S
C564 C560 1.401 . S
C564 C563 1.396 . S
C565 C560 1.499 . S
C565 H566 0.959 . S
C565 H567 0.960 . S
C565 H568 0.961 . S
H566 C565 0.959 . S
H567 C565 0.960 . S
H568 C565 0.961 . S
O569 Co544 1.967 . S
O569 C577 1.258 . S
O570 Co545 1.941 . S
O570 C577 1.266 1_556 S
H571 C573 0.959 . S
H572 C573 0.961 . S
C573 C563 1.510 . S
C573 H571 0.959 . S
C573 H572 0.961 . S
C573 H574 0.960 1_554 S
H574 C573 0.960 1_556 S
H575 N555 0.862 . S
O576 Co544 1.920 . S
O576 C549 1.289 . S
C577 O569 1.258 . S
C577 O570 1.266 1_554 S
Co578 O581 1.970 . S
Co578 N595 1.989 . S
Co578 O603 1.967 . S
Co578 O610 1.920 1_554 S
Co579 O582 1.966 . S
Co579 N588 2.022 . S
Co579 N596 1.993 . S
Co579 O604 1.941 . S
C580 O581 1.258 . S
C580 O582 1.263 . S
O581 Co578 1.970 . S
O581 C580 1.258 . S
O582 Co579 1.966 . S
O582 C580 1.263 . S
C583 O584 1.235 . S
C583 O610 1.289 . S
O584 C583 1.235 . S
C585 C587 1.400 . S
C585 N588 1.351 . S
C585 C590 1.501 . S
C586 C587 1.387 . S
C586 N589 1.341 . S
C587 C585 1.400 . S
C587 C586 1.387 . S
N588 Co579 2.022 . S
N588 C585 1.351 . S
N588 N589 1.365 . S
N589 C586 1.341 . S
N589 N588 1.365 . S
N589 H609 0.862 . S
C590 C585 1.501 . S
C590 H591 0.961 . S
C590 H592 0.961 . S
C590 H593 0.960 . S
H591 C590 0.961 . S
H592 C590 0.961 . S
H593 C590 0.960 . S
C594 N595 1.342 1_556 S
C594 C598 1.401 . S
C594 C599 1.499 . S
N595 Co578 1.989 . S
N595 C594 1.342 1_554 S
N595 N596 1.388 . S
N596 Co579 1.993 . S
N596 N595 1.388 . S
N596 C597 1.346 . S
C597 N596 1.346 . S
C597 C598 1.396 1_554 S
C597 C607 1.510 . S
C598 C594 1.401 . S
C598 C597 1.396 1_556 S
C599 C594 1.499 . S
C599 H600 0.959 . S
C599 H601 0.960 . S
C599 H602 0.961 . S
H600 C599 0.959 . S
H601 C599 0.960 . S
H602 C599 0.961 . S
O603 Co578 1.967 . S
O603 C611 1.258 . S
O604 Co579 1.941 . S
O604 C611 1.266 . S
H605 C607 0.959 . S
H606 C607 0.961 . S
C607 C597 1.510 . S
C607 H605 0.959 . S
C607 H606 0.961 . S
C607 H608 0.960 . S
H608 C607 0.960 . S
H609 N589 0.862 . S
O610 Co578 1.920 1_556 S
O610 C583 1.289 . S
C611 O603 1.258 . S
C611 O604 1.266 . S
Co612 O615 1.970 . S
Co612 N629 1.989 . S
Co612 O637 1.967 . S
Co612 O644 1.920 1_554 S
Co613 O616 1.966 . S
Co613 N622 2.022 . S
Co613 N630 1.993 . S
Co613 O638 1.941 . S
C614 O615 1.258 . S
C614 O616 1.263 . S
O615 Co612 1.970 . S
O615 C614 1.258 . S
O616 Co613 1.966 . S
O616 C614 1.263 . S
C617 O618 1.235 . S
C617 O644 1.289 . S
O618 C617 1.235 . S
C619 C621 1.400 . S
C619 N622 1.351 . S
C619 C624 1.501 . S
C620 C621 1.387 . S
C620 N623 1.341 . S
C621 C619 1.400 . S
C621 C620 1.387 . S
N622 Co613 2.022 . S
N622 C619 1.351 . S
N622 N623 1.365 . S
N623 C620 1.341 . S
N623 N622 1.365 . S
N623 H643 0.862 . S
C624 C619 1.501 . S
C624 H625 0.961 . S
C624 H626 0.961 . S
C624 H627 0.960 . S
H625 C624 0.961 . S
H626 C624 0.961 . S
H627 C624 0.960 . S
C628 N629 1.342 1_556 S
C628 C632 1.401 . S
C628 C633 1.499 . S
N629 Co612 1.989 . S
N629 C628 1.342 1_554 S
N629 N630 1.388 . S
N630 Co613 1.993 . S
N630 N629 1.388 . S
N630 C631 1.346 . S
C631 N630 1.346 . S
C631 C632 1.396 1_554 S
C631 C641 1.510 . S
C632 C628 1.401 . S
C632 C631 1.396 1_556 S
C633 C628 1.499 . S
C633 H634 0.959 . S
C633 H635 0.960 . S
C633 H636 0.961 . S
H634 C633 0.959 . S
H635 C633 0.960 . S
H636 C633 0.961 . S
O637 Co612 1.967 . S
O637 C645 1.258 . S
O638 Co613 1.941 . S
O638 C645 1.266 . S
H639 C641 0.959 . S
H640 C641 0.961 . S
C641 C631 1.510 . S
C641 H639 0.959 . S
C641 H640 0.961 . S
C641 H642 0.960 . S
H642 C641 0.960 . S
H643 N623 0.862 . S
O644 Co612 1.920 1_556 S
O644 C617 1.289 . S
C645 O637 1.258 . S
C645 O638 1.266 . S
Co646 O649 1.970 . S
Co646 N663 1.989 . S
Co646 O671 1.967 . S
Co646 O678 1.920 1_554 S
Co647 O650 1.966 . S
Co647 N656 2.022 . S
Co647 N664 1.993 . S
Co647 O672 1.941 . S
C648 O649 1.258 . S
C648 O650 1.263 . S
O649 Co646 1.970 . S
O649 C648 1.258 . S
O650 Co647 1.966 . S
O650 C648 1.263 . S
C651 O652 1.235 . S
C651 O678 1.289 . S
O652 C651 1.235 . S
C653 C655 1.400 . S
C653 N656 1.351 . S
C653 C658 1.501 . S
C654 C655 1.387 . S
C654 N657 1.341 . S
C655 C653 1.400 . S
C655 C654 1.387 . S
N656 Co647 2.022 . S
N656 C653 1.351 . S
N656 N657 1.365 . S
N657 C654 1.341 . S
N657 N656 1.365 . S
N657 H677 0.862 . S
C658 C653 1.501 . S
C658 H659 0.961 . S
C658 H660 0.961 . S
C658 H661 0.960 . S
H659 C658 0.961 . S
H660 C658 0.961 . S
H661 C658 0.960 . S
C662 N663 1.342 1_556 S
C662 C666 1.401 . S
C662 C667 1.499 . S
N663 Co646 1.989 . S
N663 C662 1.342 1_554 S
N663 N664 1.388 . S
N664 Co647 1.993 . S
N664 N663 1.388 . S
N664 C665 1.346 . S
C665 N664 1.346 . S
C665 C666 1.396 1_554 S
C665 C675 1.510 . S
C666 C662 1.401 . S
C666 C665 1.396 1_556 S
C667 C662 1.499 . S
C667 H668 0.959 . S
C667 H669 0.960 . S
C667 H670 0.961 . S
H668 C667 0.959 . S
H669 C667 0.960 . S
H670 C667 0.961 . S
O671 Co646 1.967 . S
O671 C679 1.258 . S
O672 Co647 1.941 . S
O672 C679 1.266 . S
H673 C675 0.959 . S
H674 C675 0.961 . S
C675 C665 1.510 . S
C675 H673 0.959 . S
C675 H674 0.961 . S
C675 H676 0.960 . S
H676 C675 0.960 . S
H677 N657 0.862 . S
O678 Co646 1.920 1_556 S
O678 C651 1.289 . S
C679 O671 1.258 . S
C679 O672 1.266 . S
Co680 O683 1.970 . S
Co680 N697 1.989 . S
Co680 O705 1.967 . S
Co680 O712 1.920 1_554 S
Co681 O684 1.966 . S
Co681 N690 2.022 . S
Co681 N698 1.993 . S
Co681 O706 1.941 . S
C682 O683 1.258 . S
C682 O684 1.263 . S
O683 Co680 1.970 . S
O683 C682 1.258 . S
O684 Co681 1.966 . S
O684 C682 1.263 . S
C685 O686 1.235 . S
C685 O712 1.289 . S
O686 C685 1.235 . S
C687 C689 1.400 . S
C687 N690 1.351 . S
C687 C692 1.501 . S
C688 C689 1.387 . S
C688 N691 1.341 . S
C689 C687 1.400 . S
C689 C688 1.387 . S
N690 Co681 2.022 . S
N690 C687 1.351 . S
N690 N691 1.365 . S
N691 C688 1.341 . S
N691 N690 1.365 . S
N691 H711 0.862 . S
C692 C687 1.501 . S
C692 H693 0.961 . S
C692 H694 0.961 . S
C692 H695 0.960 . S
H693 C692 0.961 . S
H694 C692 0.961 . S
H695 C692 0.960 . S
C696 N697 1.342 1_556 S
C696 C700 1.401 . S
C696 C701 1.499 . S
N697 Co680 1.989 . S
N697 C696 1.342 1_554 S
N697 N698 1.388 . S
N698 Co681 1.993 . S
N698 N697 1.388 . S
N698 C699 1.346 . S
C699 N698 1.346 . S
C699 C700 1.396 1_554 S
C699 C709 1.510 . S
C700 C696 1.401 . S
C700 C699 1.396 1_556 S
C701 C696 1.499 . S
C701 H702 0.959 . S
C701 H703 0.960 . S
C701 H704 0.961 . S
H702 C701 0.959 . S
H703 C701 0.960 . S
H704 C701 0.961 . S
O705 Co680 1.967 . S
O705 C713 1.258 . S
O706 Co681 1.941 . S
O706 C713 1.266 . S
H707 C709 0.959 . S
H708 C709 0.961 . S
C709 C699 1.510 . S
C709 H707 0.959 . S
C709 H708 0.961 . S
C709 H710 0.960 . S
H710 C709 0.960 . S
H711 N691 0.862 . S
O712 Co680 1.920 1_556 S
O712 C685 1.289 . S
C713 O705 1.258 . S
C713 O706 1.266 . S
Co714 O717 1.997 . S
Co714 N731 1.989 . S
Co714 O739 1.967 . S
Co714 O746 1.920 . S
Co715 O718 1.966 . S
Co715 N724 2.022 . S
Co715 N732 1.993 1_556 S
Co715 O740 1.941 . S
C716 O717 1.227 1_556 S
C716 O718 1.263 . S
O717 Co714 1.997 . S
O717 C716 1.227 1_554 S
O718 Co715 1.966 . S
O718 C716 1.263 . S
C719 O720 1.235 . S
C719 O746 1.289 . S
O720 C719 1.235 . S
C721 C723 1.400 . S
C721 N724 1.351 . S
C721 C726 1.501 . S
C722 C723 1.387 . S
C722 N725 1.341 . S
C723 C721 1.400 . S
C723 C722 1.387 . S
N724 Co715 2.022 . S
N724 C721 1.351 . S
N724 N725 1.365 . S
N725 C722 1.341 . S
N725 N724 1.365 . S
N725 H745 0.862 . S
C726 C721 1.501 . S
C726 H727 0.961 . S
C726 H728 0.961 . S
C726 H729 0.960 . S
H727 C726 0.961 . S
H728 C726 0.961 . S
H729 C726 0.960 . S
C730 N731 1.342 . S
C730 C734 1.401 . S
C730 C735 1.499 . S
N731 Co714 1.989 . S
N731 C730 1.342 . S
N731 N732 1.388 . S
N732 Co715 1.993 1_554 S
N732 N731 1.388 . S
N732 C733 1.346 . S
C733 N732 1.346 . S
C733 C734 1.396 . S
C733 C743 1.510 . S
C734 C730 1.401 . S
C734 C733 1.396 . S
C735 C730 1.499 . S
C735 H736 0.959 . S
C735 H737 0.960 . S
C735 H738 0.961 . S
H736 C735 0.959 . S
H737 C735 0.960 . S
H738 C735 0.961 . S
O739 Co714 1.967 . S
O739 C747 1.258 . S
O740 Co715 1.941 . S
O740 C747 1.266 1_556 S
H741 C743 0.959 . S
H742 C743 0.961 . S
C743 C733 1.510 . S
C743 H741 0.959 . S
C743 H742 0.961 . S
C743 H744 0.960 1_554 S
H744 C743 0.960 1_556 S
H745 N725 0.862 . S
O746 Co714 1.920 . S
O746 C719 1.289 . S
C747 O739 1.258 . S
C747 O740 1.266 1_554 S
Co748 O751 1.997 . S
Co748 N765 1.989 . S
Co748 O773 1.967 . S
Co748 O780 1.920 . S
Co749 O752 1.966 . S
Co749 N758 2.022 . S
Co749 N766 1.993 1_556 S
Co749 O774 1.941 . S
C750 O751 1.228 1_556 S
C750 O752 1.263 . S
O751 Co748 1.997 . S
O751 C750 1.228 1_554 S
O752 Co749 1.966 . S
O752 C750 1.263 . S
C753 O754 1.235 . S
C753 O780 1.289 . S
O754 C753 1.235 . S
C755 C757 1.400 . S
C755 N758 1.351 . S
C755 C760 1.501 . S
C756 C757 1.387 . S
C756 N759 1.341 . S
C757 C755 1.400 . S
C757 C756 1.387 . S
N758 Co749 2.022 . S
N758 C755 1.351 . S
N758 N759 1.365 . S
N759 C756 1.341 . S
N759 N758 1.365 . S
N759 H779 0.862 . S
C760 C755 1.501 . S
C760 H761 0.961 . S
C760 H762 0.961 . S
C760 H763 0.960 . S
H761 C760 0.961 . S
H762 C760 0.961 . S
H763 C760 0.960 . S
C764 N765 1.342 . S
C764 C768 1.401 . S
C764 C769 1.499 . S
N765 Co748 1.989 . S
N765 C764 1.342 . S
N765 N766 1.388 . S
N766 Co749 1.993 1_554 S
N766 N765 1.388 . S
N766 C767 1.346 . S
C767 N766 1.346 . S
C767 C768 1.396 . S
C767 C777 1.510 . S
C768 C764 1.401 . S
C768 C767 1.396 . S
C769 C764 1.499 . S
C769 H770 0.959 . S
C769 H771 0.960 . S
C769 H772 0.961 . S
H770 C769 0.959 . S
H771 C769 0.960 . S
H772 C769 0.961 . S
O773 Co748 1.967 . S
O773 C781 1.258 . S
O774 Co749 1.941 . S
O774 C781 1.266 1_556 S
H775 C777 0.959 . S
H776 C777 0.961 . S
C777 C767 1.510 . S
C777 H775 0.959 . S
C777 H776 0.961 . S
C777 H778 0.960 1_554 S
H778 C777 0.960 1_556 S
H779 N759 0.862 . S
O780 Co748 1.920 . S
O780 C753 1.289 . S
C781 O773 1.258 . S
C781 O774 1.266 1_554 S
Co782 O785 1.997 . S
Co782 N799 1.989 . S
Co782 O807 1.967 . S
Co782 O814 1.920 . S
Co783 O786 1.966 . S
Co783 N792 2.022 . S
Co783 N800 1.993 1_556 S
Co783 O808 1.941 . S
C784 O785 1.228 1_556 S
C784 O786 1.263 . S
O785 Co782 1.997 . S
O785 C784 1.228 1_554 S
O786 Co783 1.966 . S
O786 C784 1.263 . S
C787 O788 1.235 . S
C787 O814 1.289 . S
O788 C787 1.235 . S
C789 C791 1.400 . S
C789 N792 1.351 . S
C789 C794 1.501 . S
C790 C791 1.387 . S
C790 N793 1.341 . S
C791 C789 1.400 . S
C791 C790 1.387 . S
N792 Co783 2.022 . S
N792 C789 1.351 . S
N792 N793 1.365 . S
N793 C790 1.341 . S
N793 N792 1.365 . S
N793 H813 0.862 . S
C794 C789 1.501 . S
C794 H795 0.961 . S
C794 H796 0.961 . S
C794 H797 0.960 . S
H795 C794 0.961 . S
H796 C794 0.961 . S
H797 C794 0.960 . S
C798 N799 1.342 . S
C798 C802 1.401 . S
C798 C803 1.499 . S
N799 Co782 1.989 . S
N799 C798 1.342 . S
N799 N800 1.388 . S
N800 Co783 1.993 1_554 S
N800 N799 1.388 . S
N800 C801 1.346 . S
C801 N800 1.346 . S
C801 C802 1.396 . S
C801 C811 1.510 . S
C802 C798 1.401 . S
C802 C801 1.396 . S
C803 C798 1.499 . S
C803 H804 0.959 . S
C803 H805 0.960 . S
C803 H806 0.961 . S
H804 C803 0.959 . S
H805 C803 0.960 . S
H806 C803 0.961 . S
O807 Co782 1.967 . S
O807 C815 1.258 . S
O808 Co783 1.941 . S
O808 C815 1.266 1_556 S
H809 C811 0.959 . S
H810 C811 0.961 . S
C811 C801 1.510 . S
C811 H809 0.959 . S
C811 H810 0.961 . S
C811 H812 0.960 1_554 S
H812 C811 0.960 1_556 S
H813 N793 0.862 . S
O814 Co782 1.920 . S
O814 C787 1.289 . S
C815 O807 1.258 . S
C815 O808 1.266 1_554 S
Co816 O819 1.970 . S
Co816 N833 1.989 . S
Co816 O841 1.967 . S
Co816 O848 1.920 . S
Co817 O820 1.966 . S
Co817 N826 2.022 . S
Co817 N834 1.993 . S
Co817 O842 1.941 . S
C818 O819 1.258 . S
C818 O820 1.263 . S
O819 Co816 1.970 . S
O819 C818 1.258 . S
O820 Co817 1.966 . S
O820 C818 1.263 . S
C821 O822 1.235 . S
C821 O848 1.289 . S
O822 C821 1.235 . S
C823 C825 1.400 . S
C823 N826 1.351 . S
C823 C828 1.501 . S
C824 C825 1.387 . S
C824 N827 1.341 . S
C825 C823 1.400 . S
C825 C824 1.387 . S
N826 Co817 2.022 . S
N826 C823 1.351 . S
N826 N827 1.365 . S
N827 C824 1.341 . S
N827 N826 1.365 . S
N827 H847 0.862 . S
C828 C823 1.501 . S
C828 H829 0.961 . S
C828 H830 0.961 . S
C828 H831 0.960 . S
H829 C828 0.961 . S
H830 C828 0.961 . S
H831 C828 0.960 . S
C832 N833 1.342 . S
C832 C836 1.401 . S
C832 C837 1.499 . S
N833 Co816 1.989 . S
N833 C832 1.342 . S
N833 N834 1.388 . S
N834 Co817 1.993 . S
N834 N833 1.388 . S
N834 C835 1.346 . S
C835 N834 1.346 . S
C835 C836 1.396 . S
C835 C845 1.510 . S
C836 C832 1.401 . S
C836 C835 1.396 . S
C837 C832 1.499 . S
C837 H838 0.959 . S
C837 H839 0.960 . S
C837 H840 0.961 . S
H838 C837 0.959 . S
H839 C837 0.960 . S
H840 C837 0.961 . S
O841 Co816 1.967 . S
O841 C849 1.258 . S
O842 Co817 1.941 . S
O842 C849 1.266 . S
H843 C845 0.959 . S
H844 C845 0.961 . S
C845 C835 1.510 . S
C845 H843 0.959 . S
C845 H844 0.961 . S
C845 H846 0.960 . S
H846 C845 0.960 . S
H847 N827 0.862 . S
O848 Co816 1.920 . S
O848 C821 1.289 . S
C849 O841 1.258 . S
C849 O842 1.266 . S
Co850 O853 1.970 . S
Co850 N867 1.989 . S
Co850 O875 1.967 . S
Co850 O882 1.920 . S
Co851 O854 1.966 . S
Co851 N860 2.022 . S
Co851 N868 1.993 . S
Co851 O876 1.941 . S
C852 O853 1.258 . S
C852 O854 1.263 . S
O853 Co850 1.970 . S
O853 C852 1.258 . S
O854 Co851 1.966 . S
O854 C852 1.263 . S
C855 O856 1.235 . S
C855 O882 1.289 . S
O856 C855 1.235 . S
C857 C859 1.400 . S
C857 N860 1.351 . S
C857 C862 1.501 . S
C858 C859 1.387 . S
C858 N861 1.341 . S
C859 C857 1.400 . S
C859 C858 1.387 . S
N860 Co851 2.022 . S
N860 C857 1.351 . S
N860 N861 1.365 . S
N861 C858 1.341 . S
N861 N860 1.365 . S
N861 H881 0.862 . S
C862 C857 1.501 . S
C862 H863 0.961 . S
C862 H864 0.961 . S
C862 H865 0.960 . S
H863 C862 0.961 . S
H864 C862 0.961 . S
H865 C862 0.960 . S
C866 N867 1.342 . S
C866 C870 1.401 . S
C866 C871 1.499 . S
N867 Co850 1.989 . S
N867 C866 1.342 . S
N867 N868 1.388 . S
N868 Co851 1.993 . S
N868 N867 1.388 . S
N868 C869 1.346 . S
C869 N868 1.346 . S
C869 C870 1.396 . S
C869 C879 1.510 . S
C870 C866 1.401 . S
C870 C869 1.396 . S
C871 C866 1.499 . S
C871 H872 0.959 . S
C871 H873 0.960 . S
C871 H874 0.961 . S
H872 C871 0.959 . S
H873 C871 0.960 . S
H874 C871 0.961 . S
O875 Co850 1.967 . S
O875 C883 1.258 . S
O876 Co851 1.941 . S
O876 C883 1.266 . S
H877 C879 0.959 . S
H878 C879 0.961 . S
C879 C869 1.510 . S
C879 H877 0.959 . S
C879 H878 0.961 . S
C879 H880 0.960 . S
H880 C879 0.960 . S
H881 N861 0.862 . S
O882 Co850 1.920 . S
O882 C855 1.289 . S
C883 O875 1.258 . S
C883 O876 1.266 . S
Co884 O887 1.970 . S
Co884 N901 1.989 . S
Co884 O909 1.967 . S
Co884 O916 1.920 . S
Co885 O888 1.966 . S
Co885 N894 2.022 . S
Co885 N902 1.993 . S
Co885 O910 1.941 . S
C886 O887 1.258 . S
C886 O888 1.263 . S
O887 Co884 1.970 . S
O887 C886 1.258 . S
O888 Co885 1.966 . S
O888 C886 1.263 . S
C889 O890 1.235 . S
C889 O916 1.289 . S
O890 C889 1.235 . S
C891 C893 1.400 . S
C891 N894 1.351 . S
C891 C896 1.501 . S
C892 C893 1.387 . S
C892 N895 1.341 . S
C893 C891 1.400 . S
C893 C892 1.387 . S
N894 Co885 2.022 . S
N894 C891 1.351 . S
N894 N895 1.365 . S
N895 C892 1.341 . S
N895 N894 1.365 . S
N895 H915 0.862 . S
C896 C891 1.501 . S
C896 H897 0.961 . S
C896 H898 0.961 . S
C896 H899 0.960 . S
H897 C896 0.961 . S
H898 C896 0.961 . S
H899 C896 0.960 . S
C900 N901 1.342 . S
C900 C904 1.401 . S
C900 C905 1.499 . S
N901 Co884 1.989 . S
N901 C900 1.342 . S
N901 N902 1.388 . S
N902 Co885 1.993 . S
N902 N901 1.388 . S
N902 C903 1.346 . S
C903 N902 1.346 . S
C903 C904 1.396 . S
C903 C913 1.510 . S
C904 C900 1.401 . S
C904 C903 1.396 . S
C905 C900 1.499 . S
C905 H906 0.959 . S
C905 H907 0.960 . S
C905 H908 0.961 . S
H906 C905 0.959 . S
H907 C905 0.960 . S
H908 C905 0.961 . S
O909 Co884 1.967 . S
O909 C917 1.258 . S
O910 Co885 1.941 . S
O910 C917 1.266 . S
H911 C913 0.959 . S
H912 C913 0.961 . S
C913 C903 1.510 . S
C913 H911 0.959 . S
C913 H912 0.961 . S
C913 H914 0.960 . S
H914 C913 0.960 . S
H915 N895 0.862 . S
O916 Co884 1.920 . S
O916 C889 1.289 . S
C917 O909 1.258 . S
C917 O910 1.266 . S
Co918 O921 1.970 . S
Co918 N935 1.989 . S
Co918 O943 1.967 . S
Co918 O950 1.920 . S
Co919 O922 1.966 . S
Co919 N928 2.022 . S
Co919 N936 1.993 . S
Co919 O944 1.941 . S
C920 O921 1.258 . S
C920 O922 1.263 . S
O921 Co918 1.970 . S
O921 C920 1.258 . S
O922 Co919 1.966 . S
O922 C920 1.263 . S
C923 O924 1.235 . S
C923 O950 1.289 . S
O924 C923 1.235 . S
C925 C927 1.400 . S
C925 N928 1.351 . S
C925 C930 1.501 . S
C926 C927 1.387 . S
C926 N929 1.341 . S
C927 C925 1.400 . S
C927 C926 1.387 . S
N928 Co919 2.022 . S
N928 C925 1.351 . S
N928 N929 1.365 . S
N929 C926 1.341 . S
N929 N928 1.365 . S
N929 H949 0.862 . S
C930 C925 1.501 . S
C930 H931 0.961 . S
C930 H932 0.961 . S
C930 H933 0.960 . S
H931 C930 0.961 . S
H932 C930 0.961 . S
H933 C930 0.960 . S
C934 N935 1.342 . S
C934 C938 1.401 . S
C934 C939 1.499 . S
N935 Co918 1.989 . S
N935 C934 1.342 . S
N935 N936 1.388 . S
N936 Co919 1.993 . S
N936 N935 1.388 . S
N936 C937 1.346 . S
C937 N936 1.346 . S
C937 C938 1.396 . S
C937 C947 1.510 . S
C938 C934 1.401 . S
C938 C937 1.396 . S
C939 C934 1.499 . S
C939 H940 0.959 . S
C939 H941 0.960 . S
C939 H942 0.961 . S
H940 C939 0.959 . S
H941 C939 0.960 . S
H942 C939 0.961 . S
O943 Co918 1.967 . S
O943 C951 1.258 . S
O944 Co919 1.941 . S
O944 C951 1.266 . S
H945 C947 0.959 . S
H946 C947 0.961 . S
C947 C937 1.510 . S
C947 H945 0.959 . S
C947 H946 0.961 . S
C947 H948 0.960 . S
H948 C947 0.960 . S
H949 N929 0.862 . S
O950 Co918 1.920 . S
O950 C923 1.289 . S
C951 O943 1.258 . S
C951 O944 1.266 . S
Co952 O955 1.970 . S
Co952 N969 1.989 . S
Co952 O977 1.967 . S
Co952 O984 1.920 . S
Co953 O956 1.966 . S
Co953 N962 2.022 . S
Co953 N970 1.993 . S
Co953 O978 1.941 . S
C954 O955 1.258 . S
C954 O956 1.263 . S
O955 Co952 1.970 . S
O955 C954 1.258 . S
O956 Co953 1.966 . S
O956 C954 1.263 . S
C957 O958 1.235 . S
C957 O984 1.289 . S
O958 C957 1.235 . S
C959 C961 1.400 . S
C959 N962 1.351 . S
C959 C964 1.501 . S
C960 C961 1.387 . S
C960 N963 1.341 . S
C961 C959 1.400 . S
C961 C960 1.387 . S
N962 Co953 2.022 . S
N962 C959 1.351 . S
N962 N963 1.365 . S
N963 C960 1.341 . S
N963 N962 1.365 . S
N963 H983 0.862 . S
C964 C959 1.501 . S
C964 H965 0.961 . S
C964 H966 0.961 . S
C964 H967 0.960 . S
H965 C964 0.961 . S
H966 C964 0.961 . S
H967 C964 0.960 . S
C968 N969 1.342 . S
C968 C972 1.401 . S
C968 C973 1.499 . S
N969 Co952 1.989 . S
N969 C968 1.342 . S
N969 N970 1.388 . S
N970 Co953 1.993 . S
N970 N969 1.388 . S
N970 C971 1.346 . S
C971 N970 1.346 . S
C971 C972 1.396 . S
C971 C981 1.510 . S
C972 C968 1.401 . S
C972 C971 1.396 . S
C973 C968 1.499 . S
C973 H974 0.959 . S
C973 H975 0.960 . S
C973 H976 0.961 . S
H974 C973 0.959 . S
H975 C973 0.960 . S
H976 C973 0.961 . S
O977 Co952 1.967 . S
O977 C985 1.258 . S
O978 Co953 1.941 . S
O978 C985 1.266 . S
H979 C981 0.959 . S
H980 C981 0.961 . S
C981 C971 1.510 . S
C981 H979 0.959 . S
C981 H980 0.961 . S
C981 H982 0.960 . S
H982 C981 0.960 . S
H983 N963 0.862 . S
O984 Co952 1.920 . S
O984 C957 1.289 . S
C985 O977 1.258 . S
C985 O978 1.266 . S
Co986 O989 1.970 . S
Co986 N1003 1.989 . S
Co986 O1011 1.967 . S
Co986 O1018 1.920 . S
Co987 O990 1.966 . S
Co987 N996 2.022 . S
Co987 N1004 1.993 . S
Co987 O1012 1.941 . S
C988 O989 1.258 . S
C988 O990 1.263 . S
O989 Co986 1.970 . S
O989 C988 1.258 . S
O990 Co987 1.966 . S
O990 C988 1.263 . S
C991 O992 1.235 . S
C991 O1018 1.289 . S
O992 C991 1.235 . S
C993 C995 1.400 . S
C993 N996 1.351 . S
C993 C998 1.501 . S
C994 C995 1.387 . S
C994 N997 1.341 . S
C995 C993 1.400 . S
C995 C994 1.387 . S
N996 Co987 2.022 . S
N996 C993 1.351 . S
N996 N997 1.365 . S
N997 C994 1.341 . S
N997 N996 1.365 . S
N997 H1017 0.862 . S
C998 C993 1.501 . S
C998 H999 0.961 . S
C998 H1000 0.961 . S
C998 H1001 0.960 . S
H999 C998 0.961 . S
H1000 C998 0.961 . S
H1001 C998 0.960 . S
C1002 N1003 1.342 . S
C1002 C1006 1.401 . S
C1002 C1007 1.499 . S
N1003 Co986 1.989 . S
N1003 C1002 1.342 . S
N1003 N1004 1.388 . S
N1004 Co987 1.993 . S
N1004 N1003 1.388 . S
N1004 C1005 1.346 . S
C1005 N1004 1.346 . S
C1005 C1006 1.396 . S
C1005 C1015 1.510 . S
C1006 C1002 1.401 . S
C1006 C1005 1.396 . S
C1007 C1002 1.499 . S
C1007 H1008 0.959 . S
C1007 H1009 0.960 . S
C1007 H1010 0.961 . S
H1008 C1007 0.959 . S
H1009 C1007 0.960 . S
H1010 C1007 0.961 . S
O1011 Co986 1.967 . S
O1011 C1019 1.258 . S
O1012 Co987 1.941 . S
O1012 C1019 1.266 . S
H1013 C1015 0.959 . S
H1014 C1015 0.961 . S
C1015 C1005 1.510 . S
C1015 H1013 0.959 . S
C1015 H1014 0.961 . S
C1015 H1016 0.960 . S
H1016 C1015 0.960 . S
H1017 N997 0.862 . S
O1018 Co986 1.920 . S
O1018 C991 1.289 . S
C1019 O1011 1.258 . S
C1019 O1012 1.266 . S
Co1020 O1023 1.970 . S
Co1020 N1037 1.989 . S
Co1020 O1045 1.967 . S
Co1020 O1052 1.920 . S
Co1021 O1024 1.966 . S
Co1021 N1030 2.022 . S
Co1021 N1038 1.993 . S
Co1021 O1046 1.941 . S
C1022 O1023 1.258 . S
C1022 O1024 1.263 . S
O1023 Co1020 1.970 . S
O1023 C1022 1.258 . S
O1024 Co1021 1.966 . S
O1024 C1022 1.263 . S
C1025 O1026 1.235 . S
C1025 O1052 1.289 . S
O1026 C1025 1.235 . S
C1027 C1029 1.400 . S
C1027 N1030 1.351 . S
C1027 C1032 1.501 . S
C1028 C1029 1.387 . S
C1028 N1031 1.341 . S
C1029 C1027 1.400 . S
C1029 C1028 1.387 . S
N1030 Co1021 2.022 . S
N1030 C1027 1.351 . S
N1030 N1031 1.365 . S
N1031 C1028 1.341 . S
N1031 N1030 1.365 . S
N1031 H1051 0.862 . S
C1032 C1027 1.501 . S
C1032 H1033 0.961 . S
C1032 H1034 0.961 . S
C1032 H1035 0.960 . S
H1033 C1032 0.961 . S
H1034 C1032 0.961 . S
H1035 C1032 0.960 . S
C1036 N1037 1.342 . S
C1036 C1040 1.401 . S
C1036 C1041 1.499 . S
N1037 Co1020 1.989 . S
N1037 C1036 1.342 . S
N1037 N1038 1.388 . S
N1038 Co1021 1.993 . S
N1038 N1037 1.388 . S
N1038 C1039 1.346 . S
C1039 N1038 1.346 . S
C1039 C1040 1.396 . S
C1039 C1049 1.510 . S
C1040 C1036 1.401 . S
C1040 C1039 1.396 . S
C1041 C1036 1.499 . S
C1041 H1042 0.959 . S
C1041 H1043 0.960 . S
C1041 H1044 0.961 . S
H1042 C1041 0.959 . S
H1043 C1041 0.960 . S
H1044 C1041 0.961 . S
O1045 Co1020 1.967 . S
O1045 C1053 1.258 . S
O1046 Co1021 1.941 . S
O1046 C1053 1.266 . S
H1047 C1049 0.959 . S
H1048 C1049 0.961 . S
C1049 C1039 1.510 . S
C1049 H1047 0.959 . S
C1049 H1048 0.961 . S
C1049 H1050 0.960 . S
H1050 C1049 0.960 . S
H1051 N1031 0.862 . S
O1052 Co1020 1.920 . S
O1052 C1025 1.289 . S
C1053 O1045 1.258 . S
C1053 O1046 1.266 . S
Co1054 O1057 1.970 . S
Co1054 N1071 1.989 . S
Co1054 O1079 1.967 . S
Co1054 O1086 1.920 . S
Co1055 O1058 1.966 . S
Co1055 N1064 2.022 . S
Co1055 N1072 1.993 . S
Co1055 O1080 1.941 . S
C1056 O1057 1.258 . S
C1056 O1058 1.263 . S
O1057 Co1054 1.970 . S
O1057 C1056 1.258 . S
O1058 Co1055 1.966 . S
O1058 C1056 1.263 . S
C1059 O1060 1.235 . S
C1059 O1086 1.289 . S
O1060 C1059 1.235 . S
C1061 C1063 1.400 . S
C1061 N1064 1.351 . S
C1061 C1066 1.501 . S
C1062 C1063 1.387 . S
C1062 N1065 1.341 . S
C1063 C1061 1.400 . S
C1063 C1062 1.387 . S
N1064 Co1055 2.022 . S
N1064 C1061 1.351 . S
N1064 N1065 1.365 . S
N1065 C1062 1.341 . S
N1065 N1064 1.365 . S
N1065 H1085 0.862 . S
C1066 C1061 1.501 . S
C1066 H1067 0.961 . S
C1066 H1068 0.961 . S
C1066 H1069 0.960 . S
H1067 C1066 0.961 . S
H1068 C1066 0.961 . S
H1069 C1066 0.960 . S
C1070 N1071 1.342 . S
C1070 C1074 1.401 . S
C1070 C1075 1.499 . S
N1071 Co1054 1.989 . S
N1071 C1070 1.342 . S
N1071 N1072 1.388 . S
N1072 Co1055 1.993 . S
N1072 N1071 1.388 . S
N1072 C1073 1.346 . S
C1073 N1072 1.346 . S
C1073 C1074 1.396 . S
C1073 C1083 1.510 . S
C1074 C1070 1.401 . S
C1074 C1073 1.396 . S
C1075 C1070 1.499 . S
C1075 H1076 0.959 . S
C1075 H1077 0.960 . S
C1075 H1078 0.961 . S
H1076 C1075 0.959 . S
H1077 C1075 0.960 . S
H1078 C1075 0.961 . S
O1079 Co1054 1.967 . S
O1079 C1087 1.258 . S
O1080 Co1055 1.941 . S
O1080 C1087 1.266 . S
H1081 C1083 0.959 . S
H1082 C1083 0.961 . S
C1083 C1073 1.510 . S
C1083 H1081 0.959 . S
C1083 H1082 0.961 . S
C1083 H1084 0.960 . S
H1084 C1083 0.960 . S
H1085 N1065 0.862 . S
O1086 Co1054 1.920 . S
O1086 C1059 1.289 . S
C1087 O1079 1.258 . S
C1087 O1080 1.266 . S
Co1088 O1091 1.970 . S
Co1088 N1105 1.989 . S
Co1088 O1113 1.967 . S
Co1088 O1120 1.920 . S
Co1089 O1092 1.966 . S
Co1089 N1098 2.022 . S
Co1089 N1106 1.993 . S
Co1089 O1114 1.941 . S
C1090 O1091 1.258 . S
C1090 O1092 1.263 . S
O1091 Co1088 1.970 . S
O1091 C1090 1.258 . S
O1092 Co1089 1.966 . S
O1092 C1090 1.263 . S
C1093 O1094 1.235 . S
C1093 O1120 1.289 . S
O1094 C1093 1.235 . S
C1095 C1097 1.400 . S
C1095 N1098 1.351 . S
C1095 C1100 1.501 . S
C1096 C1097 1.387 . S
C1096 N1099 1.341 . S
C1097 C1095 1.400 . S
C1097 C1096 1.387 . S
N1098 Co1089 2.022 . S
N1098 C1095 1.351 . S
N1098 N1099 1.365 . S
N1099 C1096 1.341 . S
N1099 N1098 1.365 . S
N1099 H1119 0.862 . S
C1100 C1095 1.501 . S
C1100 H1101 0.961 . S
C1100 H1102 0.961 . S
C1100 H1103 0.960 . S
H1101 C1100 0.961 . S
H1102 C1100 0.961 . S
H1103 C1100 0.960 . S
C1104 N1105 1.342 . S
C1104 C1108 1.401 . S
C1104 C1109 1.499 . S
N1105 Co1088 1.989 . S
N1105 C1104 1.342 . S
N1105 N1106 1.388 . S
N1106 Co1089 1.993 . S
N1106 N1105 1.388 . S
N1106 C1107 1.346 . S
C1107 N1106 1.346 . S
C1107 C1108 1.396 . S
C1107 C1117 1.510 . S
C1108 C1104 1.401 . S
C1108 C1107 1.396 . S
C1109 C1104 1.499 . S
C1109 H1110 0.959 . S
C1109 H1111 0.960 . S
C1109 H1112 0.961 . S
H1110 C1109 0.959 . S
H1111 C1109 0.960 . S
H1112 C1109 0.961 . S
O1113 Co1088 1.967 . S
O1113 C1121 1.258 . S
O1114 Co1089 1.941 . S
O1114 C1121 1.266 . S
H1115 C1117 0.959 . S
H1116 C1117 0.961 . S
C1117 C1107 1.510 . S
C1117 H1115 0.959 . S
C1117 H1116 0.961 . S
C1117 H1118 0.960 . S
H1118 C1117 0.960 . S
H1119 N1099 0.862 . S
O1120 Co1088 1.920 . S
O1120 C1093 1.289 . S
C1121 O1113 1.258 . S
C1121 O1114 1.266 . S
Co1122 O1125 1.970 . S
Co1122 N1139 1.989 . S
Co1122 O1147 1.967 . S
Co1122 O1154 1.920 . S
Co1123 O1126 1.966 . S
Co1123 N1132 2.022 . S
Co1123 N1140 1.993 . S
Co1123 O1148 1.941 . S
C1124 O1125 1.258 . S
C1124 O1126 1.263 . S
O1125 Co1122 1.970 . S
O1125 C1124 1.258 . S
O1126 Co1123 1.966 . S
O1126 C1124 1.263 . S
C1127 O1128 1.235 . S
C1127 O1154 1.289 . S
O1128 C1127 1.235 . S
C1129 C1131 1.400 . S
C1129 N1132 1.351 . S
C1129 C1134 1.501 . S
C1130 C1131 1.387 . S
C1130 N1133 1.341 . S
C1131 C1129 1.400 . S
C1131 C1130 1.387 . S
N1132 Co1123 2.022 . S
N1132 C1129 1.351 . S
N1132 N1133 1.365 . S
N1133 C1130 1.341 . S
N1133 N1132 1.365 . S
N1133 H1153 0.862 . S
C1134 C1129 1.501 . S
C1134 H1135 0.961 . S
C1134 H1136 0.961 . S
C1134 H1137 0.960 . S
H1135 C1134 0.961 . S
H1136 C1134 0.961 . S
H1137 C1134 0.960 . S
C1138 N1139 1.342 . S
C1138 C1142 1.401 . S
C1138 C1143 1.499 . S
N1139 Co1122 1.989 . S
N1139 C1138 1.342 . S
N1139 N1140 1.388 . S
N1140 Co1123 1.993 . S
N1140 N1139 1.388 . S
N1140 C1141 1.346 . S
C1141 N1140 1.346 . S
C1141 C1142 1.396 . S
C1141 C1151 1.510 . S
C1142 C1138 1.401 . S
C1142 C1141 1.396 . S
C1143 C1138 1.499 . S
C1143 H1144 0.959 . S
C1143 H1145 0.960 . S
C1143 H1146 0.961 . S
H1144 C1143 0.959 . S
H1145 C1143 0.960 . S
H1146 C1143 0.961 . S
O1147 Co1122 1.967 . S
O1147 C1155 1.258 . S
O1148 Co1123 1.941 . S
O1148 C1155 1.266 . S
H1149 C1151 0.959 . S
H1150 C1151 0.961 . S
C1151 C1141 1.510 . S
C1151 H1149 0.959 . S
C1151 H1150 0.961 . S
C1151 H1152 0.960 . S
H1152 C1151 0.960 . S
H1153 N1133 0.862 . S
O1154 Co1122 1.920 . S
O1154 C1127 1.289 . S
C1155 O1147 1.258 . S
C1155 O1148 1.266 . S
Co1156 O1159 1.970 . S
Co1156 N1173 1.989 . S
Co1156 O1181 1.967 . S
Co1156 O1188 1.920 . S
Co1157 O1160 1.966 . S
Co1157 N1166 2.022 . S
Co1157 N1174 1.993 . S
Co1157 O1182 1.941 . S
C1158 O1159 1.258 . S
C1158 O1160 1.263 . S
O1159 Co1156 1.970 . S
O1159 C1158 1.258 . S
O1160 Co1157 1.966 . S
O1160 C1158 1.263 . S
C1161 O1162 1.235 . S
C1161 O1188 1.289 . S
O1162 C1161 1.235 . S
C1163 C1165 1.400 . S
C1163 N1166 1.351 . S
C1163 C1168 1.501 . S
C1164 C1165 1.387 . S
C1164 N1167 1.341 . S
C1165 C1163 1.400 . S
C1165 C1164 1.387 . S
N1166 Co1157 2.022 . S
N1166 C1163 1.351 . S
N1166 N1167 1.365 . S
N1167 C1164 1.341 . S
N1167 N1166 1.365 . S
N1167 H1187 0.862 . S
C1168 C1163 1.501 . S
C1168 H1169 0.961 . S
C1168 H1170 0.961 . S
C1168 H1171 0.960 . S
H1169 C1168 0.961 . S
H1170 C1168 0.961 . S
H1171 C1168 0.960 . S
C1172 N1173 1.342 . S
C1172 C1176 1.401 . S
C1172 C1177 1.499 . S
N1173 Co1156 1.989 . S
N1173 C1172 1.342 . S
N1173 N1174 1.388 . S
N1174 Co1157 1.993 . S
N1174 N1173 1.388 . S
N1174 C1175 1.346 . S
C1175 N1174 1.346 . S
C1175 C1176 1.396 . S
C1175 C1185 1.510 . S
C1176 C1172 1.401 . S
C1176 C1175 1.396 . S
C1177 C1172 1.499 . S
C1177 H1178 0.959 . S
C1177 H1179 0.960 . S
C1177 H1180 0.961 . S
H1178 C1177 0.959 . S
H1179 C1177 0.960 . S
H1180 C1177 0.961 . S
O1181 Co1156 1.967 . S
O1181 C1189 1.258 . S
O1182 Co1157 1.941 . S
O1182 C1189 1.266 . S
H1183 C1185 0.959 . S
H1184 C1185 0.961 . S
C1185 C1175 1.510 . S
C1185 H1183 0.959 . S
C1185 H1184 0.961 . S
C1185 H1186 0.960 . S
H1186 C1185 0.960 . S
H1187 N1167 0.862 . S
O1188 Co1156 1.920 . S
O1188 C1161 1.289 . S
C1189 O1181 1.258 . S
C1189 O1182 1.266 . S
Co1190 O1193 1.970 . S
Co1190 N1207 1.989 . S
Co1190 O1215 1.967 . S
Co1190 O1222 1.920 . S
Co1191 O1194 1.966 . S
Co1191 N1200 2.022 . S
Co1191 N1208 1.993 . S
Co1191 O1216 1.941 . S
C1192 O1193 1.258 . S
C1192 O1194 1.263 . S
O1193 Co1190 1.970 . S
O1193 C1192 1.258 . S
O1194 Co1191 1.966 . S
O1194 C1192 1.263 . S
C1195 O1196 1.235 . S
C1195 O1222 1.289 . S
O1196 C1195 1.235 . S
C1197 C1199 1.400 . S
C1197 N1200 1.351 . S
C1197 C1202 1.501 . S
C1198 C1199 1.387 . S
C1198 N1201 1.341 . S
C1199 C1197 1.400 . S
C1199 C1198 1.387 . S
N1200 Co1191 2.022 . S
N1200 C1197 1.351 . S
N1200 N1201 1.365 . S
N1201 C1198 1.341 . S
N1201 N1200 1.365 . S
N1201 H1221 0.862 . S
C1202 C1197 1.501 . S
C1202 H1203 0.961 . S
C1202 H1204 0.961 . S
C1202 H1205 0.960 . S
H1203 C1202 0.961 . S
H1204 C1202 0.961 . S
H1205 C1202 0.960 . S
C1206 N1207 1.342 . S
C1206 C1210 1.401 . S
C1206 C1211 1.499 . S
N1207 Co1190 1.989 . S
N1207 C1206 1.342 . S
N1207 N1208 1.388 . S
N1208 Co1191 1.993 . S
N1208 N1207 1.388 . S
N1208 C1209 1.346 . S
C1209 N1208 1.346 . S
C1209 C1210 1.396 . S
C1209 C1219 1.510 . S
C1210 C1206 1.401 . S
C1210 C1209 1.396 . S
C1211 C1206 1.499 . S
C1211 H1212 0.959 . S
C1211 H1213 0.960 . S
C1211 H1214 0.961 . S
H1212 C1211 0.959 . S
H1213 C1211 0.960 . S
H1214 C1211 0.961 . S
O1215 Co1190 1.967 . S
O1215 C1223 1.258 . S
O1216 Co1191 1.941 . S
O1216 C1223 1.266 . S
H1217 C1219 0.959 . S
H1218 C1219 0.961 . S
C1219 C1209 1.510 . S
C1219 H1217 0.959 . S
C1219 H1218 0.961 . S
C1219 H1220 0.960 . S
H1220 C1219 0.960 . S
H1221 N1201 0.862 . S
O1222 Co1190 1.920 . S
O1222 C1195 1.289 . S
C1223 O1215 1.258 . S
C1223 O1216 1.266 . S
Co1224 O1227 1.970 . S
Co1224 N1241 1.989 . S
Co1224 O1249 1.967 . S
Co1224 O1256 1.920 . S
Co1225 O1228 1.966 . S
Co1225 N1234 2.022 . S
Co1225 N1242 1.993 . S
Co1225 O1250 1.941 . S
C1226 O1227 1.258 . S
C1226 O1228 1.263 . S
O1227 Co1224 1.970 . S
O1227 C1226 1.258 . S
O1228 Co1225 1.966 . S
O1228 C1226 1.263 . S
C1229 O1230 1.235 . S
C1229 O1256 1.289 . S
O1230 C1229 1.235 . S
C1231 C1233 1.400 . S
C1231 N1234 1.351 . S
C1231 C1236 1.501 . S
C1232 C1233 1.387 . S
C1232 N1235 1.341 . S
C1233 C1231 1.400 . S
C1233 C1232 1.387 . S
N1234 Co1225 2.022 . S
N1234 C1231 1.351 . S
N1234 N1235 1.365 . S
N1235 C1232 1.341 . S
N1235 N1234 1.365 . S
N1235 H1255 0.862 . S
C1236 C1231 1.501 . S
C1236 H1237 0.961 . S
C1236 H1238 0.961 . S
C1236 H1239 0.960 . S
H1237 C1236 0.961 . S
H1238 C1236 0.961 . S
H1239 C1236 0.960 . S
C1240 N1241 1.342 . S
C1240 C1244 1.401 . S
C1240 C1245 1.499 . S
N1241 Co1224 1.989 . S
N1241 C1240 1.342 . S
N1241 N1242 1.388 . S
N1242 Co1225 1.993 . S
N1242 N1241 1.388 . S
N1242 C1243 1.346 . S
C1243 N1242 1.346 . S
C1243 C1244 1.396 . S
C1243 C1253 1.510 . S
C1244 C1240 1.401 . S
C1244 C1243 1.396 . S
C1245 C1240 1.499 . S
C1245 H1246 0.959 . S
C1245 H1247 0.960 . S
C1245 H1248 0.961 . S
H1246 C1245 0.959 . S
H1247 C1245 0.960 . S
H1248 C1245 0.961 . S
O1249 Co1224 1.967 . S
O1249 C1257 1.258 . S
O1250 Co1225 1.941 . S
O1250 C1257 1.266 . S
H1251 C1253 0.959 . S
H1252 C1253 0.961 . S
C1253 C1243 1.510 . S
C1253 H1251 0.959 . S
C1253 H1252 0.961 . S
C1253 H1254 0.960 . S
H1254 C1253 0.960 . S
H1255 N1235 0.862 . S
O1256 Co1224 1.920 . S
O1256 C1229 1.289 . S
C1257 O1249 1.258 . S
C1257 O1250 1.266 . S
Co1258 O1261 1.970 . S
Co1258 N1275 1.989 . S
Co1258 O1283 1.967 . S
Co1258 O1290 1.920 . S
Co1259 O1262 1.966 . S
Co1259 N1268 2.022 . S
Co1259 N1276 1.993 . S
Co1259 O1284 1.941 . S
C1260 O1261 1.258 . S
C1260 O1262 1.263 . S
O1261 Co1258 1.970 . S
O1261 C1260 1.258 . S
O1262 Co1259 1.966 . S
O1262 C1260 1.263 . S
C1263 O1264 1.235 . S
C1263 O1290 1.289 . S
O1264 C1263 1.235 . S
C1265 C1267 1.400 . S
C1265 N1268 1.351 . S
C1265 C1270 1.501 . S
C1266 C1267 1.387 . S
C1266 N1269 1.341 . S
C1267 C1265 1.400 . S
C1267 C1266 1.387 . S
N1268 Co1259 2.022 . S
N1268 C1265 1.351 . S
N1268 N1269 1.365 . S
N1269 C1266 1.341 . S
N1269 N1268 1.365 . S
N1269 H1289 0.862 . S
C1270 C1265 1.501 . S
C1270 H1271 0.961 . S
C1270 H1272 0.961 . S
C1270 H1273 0.960 . S
H1271 C1270 0.961 . S
H1272 C1270 0.961 . S
H1273 C1270 0.960 . S
C1274 N1275 1.342 . S
C1274 C1278 1.401 . S
C1274 C1279 1.499 . S
N1275 Co1258 1.989 . S
N1275 C1274 1.342 . S
N1275 N1276 1.388 . S
N1276 Co1259 1.993 . S
N1276 N1275 1.388 . S
N1276 C1277 1.346 . S
C1277 N1276 1.346 . S
C1277 C1278 1.396 . S
C1277 C1287 1.510 . S
C1278 C1274 1.401 . S
C1278 C1277 1.396 . S
C1279 C1274 1.499 . S
C1279 H1280 0.959 . S
C1279 H1281 0.960 . S
C1279 H1282 0.961 . S
H1280 C1279 0.959 . S
H1281 C1279 0.960 . S
H1282 C1279 0.961 . S
O1283 Co1258 1.967 . S
O1283 C1291 1.258 . S
O1284 Co1259 1.941 . S
O1284 C1291 1.266 . S
H1285 C1287 0.959 . S
H1286 C1287 0.961 . S
C1287 C1277 1.510 . S
C1287 H1285 0.959 . S
C1287 H1286 0.961 . S
C1287 H1288 0.960 . S
H1288 C1287 0.960 . S
H1289 N1269 0.862 . S
O1290 Co1258 1.920 . S
O1290 C1263 1.289 . S
C1291 O1283 1.258 . S
C1291 O1284 1.266 . S
Co1292 O1295 1.970 . S
Co1292 N1309 1.989 . S
Co1292 O1317 1.967 . S
Co1292 O1324 1.920 . S
Co1293 O1296 1.966 . S
Co1293 N1302 2.022 . S
Co1293 N1310 1.993 . S
Co1293 O1318 1.941 . S
C1294 O1295 1.258 . S
C1294 O1296 1.263 . S
O1295 Co1292 1.970 . S
O1295 C1294 1.258 . S
O1296 Co1293 1.966 . S
O1296 C1294 1.263 . S
C1297 O1298 1.235 . S
C1297 O1324 1.289 . S
O1298 C1297 1.235 . S
C1299 C1301 1.400 . S
C1299 N1302 1.351 . S
C1299 C1304 1.501 . S
C1300 C1301 1.387 . S
C1300 N1303 1.341 . S
C1301 C1299 1.400 . S
C1301 C1300 1.387 . S
N1302 Co1293 2.022 . S
N1302 C1299 1.351 . S
N1302 N1303 1.365 . S
N1303 C1300 1.341 . S
N1303 N1302 1.365 . S
N1303 H1323 0.862 . S
C1304 C1299 1.501 . S
C1304 H1305 0.961 . S
C1304 H1306 0.961 . S
C1304 H1307 0.960 . S
H1305 C1304 0.961 . S
H1306 C1304 0.961 . S
H1307 C1304 0.960 . S
C1308 N1309 1.342 . S
C1308 C1312 1.401 . S
C1308 C1313 1.499 . S
N1309 Co1292 1.989 . S
N1309 C1308 1.342 . S
N1309 N1310 1.388 . S
N1310 Co1293 1.993 . S
N1310 N1309 1.388 . S
N1310 C1311 1.346 . S
C1311 N1310 1.346 . S
C1311 C1312 1.396 . S
C1311 C1321 1.510 . S
C1312 C1308 1.401 . S
C1312 C1311 1.396 . S
C1313 C1308 1.499 . S
C1313 H1314 0.959 . S
C1313 H1315 0.960 . S
C1313 H1316 0.961 . S
H1314 C1313 0.959 . S
H1315 C1313 0.960 . S
H1316 C1313 0.961 . S
O1317 Co1292 1.967 . S
O1317 C1325 1.258 . S
O1318 Co1293 1.941 . S
O1318 C1325 1.266 . S
H1319 C1321 0.959 . S
H1320 C1321 0.961 . S
C1321 C1311 1.510 . S
C1321 H1319 0.959 . S
C1321 H1320 0.961 . S
C1321 H1322 0.960 . S
H1322 C1321 0.960 . S
H1323 N1303 0.862 . S
O1324 Co1292 1.920 . S
O1324 C1297 1.289 . S
C1325 O1317 1.258 . S
C1325 O1318 1.266 . S
Co1326 O1329 1.970 . S
Co1326 N1343 1.989 . S
Co1326 O1351 1.967 . S
Co1326 O1358 1.920 . S
Co1327 O1330 1.966 . S
Co1327 N1336 2.022 . S
Co1327 N1344 1.993 . S
Co1327 O1352 1.941 . S
C1328 O1329 1.258 . S
C1328 O1330 1.263 . S
O1329 Co1326 1.970 . S
O1329 C1328 1.258 . S
O1330 Co1327 1.966 . S
O1330 C1328 1.263 . S
C1331 O1332 1.235 . S
C1331 O1358 1.289 . S
O1332 C1331 1.235 . S
C1333 C1335 1.400 . S
C1333 N1336 1.351 . S
C1333 C1338 1.501 . S
C1334 C1335 1.387 . S
C1334 N1337 1.341 . S
C1335 C1333 1.400 . S
C1335 C1334 1.387 . S
N1336 Co1327 2.022 . S
N1336 C1333 1.351 . S
N1336 N1337 1.365 . S
N1337 C1334 1.341 . S
N1337 N1336 1.365 . S
N1337 H1357 0.862 . S
C1338 C1333 1.501 . S
C1338 H1339 0.961 . S
C1338 H1340 0.961 . S
C1338 H1341 0.960 . S
H1339 C1338 0.961 . S
H1340 C1338 0.961 . S
H1341 C1338 0.960 . S
C1342 N1343 1.342 . S
C1342 C1346 1.401 . S
C1342 C1347 1.499 . S
N1343 Co1326 1.989 . S
N1343 C1342 1.342 . S
N1343 N1344 1.388 . S
N1344 Co1327 1.993 . S
N1344 N1343 1.388 . S
N1344 C1345 1.346 . S
C1345 N1344 1.346 . S
C1345 C1346 1.396 . S
C1345 C1355 1.510 . S
C1346 C1342 1.401 . S
C1346 C1345 1.396 . S
C1347 C1342 1.499 . S
C1347 H1348 0.959 . S
C1347 H1349 0.960 . S
C1347 H1350 0.961 . S
H1348 C1347 0.959 . S
H1349 C1347 0.960 . S
H1350 C1347 0.961 . S
O1351 Co1326 1.967 . S
O1351 C1359 1.258 . S
O1352 Co1327 1.941 . S
O1352 C1359 1.266 . S
H1353 C1355 0.959 . S
H1354 C1355 0.961 . S
C1355 C1345 1.510 . S
C1355 H1353 0.959 . S
C1355 H1354 0.961 . S
C1355 H1356 0.960 . S
H1356 C1355 0.960 . S
H1357 N1337 0.862 . S
O1358 Co1326 1.920 . S
O1358 C1331 1.289 . S
C1359 O1351 1.258 . S
C1359 O1352 1.266 . S
Co1360 O1363 1.970 . S
Co1360 N1377 1.989 . S
Co1360 O1385 1.967 . S
Co1360 O1392 1.920 . S
Co1361 O1364 1.966 . S
Co1361 N1370 2.022 . S
Co1361 N1378 1.993 . S
Co1361 O1386 1.941 . S
C1362 O1363 1.258 . S
C1362 O1364 1.263 . S
O1363 Co1360 1.970 . S
O1363 C1362 1.258 . S
O1364 Co1361 1.966 . S
O1364 C1362 1.263 . S
C1365 O1366 1.235 . S
C1365 O1392 1.289 . S
O1366 C1365 1.235 . S
C1367 C1369 1.400 . S
C1367 N1370 1.351 . S
C1367 C1372 1.501 . S
C1368 C1369 1.387 . S
C1368 N1371 1.341 . S
C1369 C1367 1.400 . S
C1369 C1368 1.387 . S
N1370 Co1361 2.022 . S
N1370 C1367 1.351 . S
N1370 N1371 1.365 . S
N1371 C1368 1.341 . S
N1371 N1370 1.365 . S
N1371 H1391 0.862 . S
C1372 C1367 1.501 . S
C1372 H1373 0.961 . S
C1372 H1374 0.961 . S
C1372 H1375 0.960 . S
H1373 C1372 0.961 . S
H1374 C1372 0.961 . S
H1375 C1372 0.960 . S
C1376 N1377 1.342 . S
C1376 C1380 1.401 . S
C1376 C1381 1.499 . S
N1377 Co1360 1.989 . S
N1377 C1376 1.342 . S
N1377 N1378 1.388 . S
N1378 Co1361 1.993 . S
N1378 N1377 1.388 . S
N1378 C1379 1.346 . S
C1379 N1378 1.346 . S
C1379 C1380 1.396 . S
C1379 C1389 1.510 . S
C1380 C1376 1.401 . S
C1380 C1379 1.396 . S
C1381 C1376 1.499 . S
C1381 H1382 0.959 . S
C1381 H1383 0.960 . S
C1381 H1384 0.961 . S
H1382 C1381 0.959 . S
H1383 C1381 0.960 . S
H1384 C1381 0.961 . S
O1385 Co1360 1.967 . S
O1385 C1393 1.258 . S
O1386 Co1361 1.941 . S
O1386 C1393 1.266 . S
H1387 C1389 0.959 . S
H1388 C1389 0.961 . S
C1389 C1379 1.510 . S
C1389 H1387 0.959 . S
C1389 H1388 0.961 . S
C1389 H1390 0.960 . S
H1390 C1389 0.960 . S
H1391 N1371 0.862 . S
O1392 Co1360 1.920 . S
O1392 C1365 1.289 . S
C1393 O1385 1.258 . S
C1393 O1386 1.266 . S
Co1394 O1397 1.970 . S
Co1394 N1411 1.989 . S
Co1394 O1419 1.967 . S
Co1394 O1426 1.920 . S
Co1395 O1398 1.966 . S
Co1395 N1404 2.022 . S
Co1395 N1412 1.993 . S
Co1395 O1420 1.941 . S
C1396 O1397 1.258 . S
C1396 O1398 1.263 . S
O1397 Co1394 1.970 . S
O1397 C1396 1.258 . S
O1398 Co1395 1.966 . S
O1398 C1396 1.263 . S
C1399 O1400 1.235 . S
C1399 O1426 1.289 . S
O1400 C1399 1.235 . S
C1401 C1403 1.400 . S
C1401 N1404 1.351 . S
C1401 C1406 1.501 . S
C1402 C1403 1.387 . S
C1402 N1405 1.341 . S
C1403 C1401 1.400 . S
C1403 C1402 1.387 . S
N1404 Co1395 2.022 . S
N1404 C1401 1.351 . S
N1404 N1405 1.365 . S
N1405 C1402 1.341 . S
N1405 N1404 1.365 . S
N1405 H1425 0.862 . S
C1406 C1401 1.501 . S
C1406 H1407 0.961 . S
C1406 H1408 0.961 . S
C1406 H1409 0.960 . S
H1407 C1406 0.961 . S
H1408 C1406 0.961 . S
H1409 C1406 0.960 . S
C1410 N1411 1.342 . S
C1410 C1414 1.401 . S
C1410 C1415 1.499 . S
N1411 Co1394 1.989 . S
N1411 C1410 1.342 . S
N1411 N1412 1.388 . S
N1412 Co1395 1.993 . S
N1412 N1411 1.388 . S
N1412 C1413 1.346 . S
C1413 N1412 1.346 . S
C1413 C1414 1.396 . S
C1413 C1423 1.510 . S
C1414 C1410 1.401 . S
C1414 C1413 1.396 . S
C1415 C1410 1.499 . S
C1415 H1416 0.959 . S
C1415 H1417 0.960 . S
C1415 H1418 0.961 . S
H1416 C1415 0.959 . S
H1417 C1415 0.960 . S
H1418 C1415 0.961 . S
O1419 Co1394 1.967 . S
O1419 C1427 1.258 . S
O1420 Co1395 1.941 . S
O1420 C1427 1.266 . S
H1421 C1423 0.959 . S
H1422 C1423 0.961 . S
C1423 C1413 1.510 . S
C1423 H1421 0.959 . S
C1423 H1422 0.961 . S
C1423 H1424 0.960 . S
H1424 C1423 0.960 . S
H1425 N1405 0.862 . S
O1426 Co1394 1.920 . S
O1426 C1399 1.289 . S
C1427 O1419 1.258 . S
C1427 O1420 1.266 . S
Co1428 O1431 1.970 . S
Co1428 N1445 1.989 . S
Co1428 O1453 1.967 . S
Co1428 O1460 1.920 . S
Co1429 O1432 1.966 . S
Co1429 N1438 2.022 . S
Co1429 N1446 1.993 . S
Co1429 O1454 1.941 . S
C1430 O1431 1.258 . S
C1430 O1432 1.263 . S
O1431 Co1428 1.970 . S
O1431 C1430 1.258 . S
O1432 Co1429 1.966 . S
O1432 C1430 1.263 . S
C1433 O1434 1.235 . S
C1433 O1460 1.289 . S
O1434 C1433 1.235 . S
C1435 C1437 1.400 . S
C1435 N1438 1.351 . S
C1435 C1440 1.501 . S
C1436 C1437 1.387 . S
C1436 N1439 1.341 . S
C1437 C1435 1.400 . S
C1437 C1436 1.387 . S
N1438 Co1429 2.022 . S
N1438 C1435 1.351 . S
N1438 N1439 1.365 . S
N1439 C1436 1.341 . S
N1439 N1438 1.365 . S
N1439 H1459 0.862 . S
C1440 C1435 1.501 . S
C1440 H1441 0.961 . S
C1440 H1442 0.961 . S
C1440 H1443 0.960 . S
H1441 C1440 0.961 . S
H1442 C1440 0.961 . S
H1443 C1440 0.960 . S
C1444 N1445 1.342 . S
C1444 C1448 1.401 . S
C1444 C1449 1.499 . S
N1445 Co1428 1.989 . S
N1445 C1444 1.342 . S
N1445 N1446 1.388 . S
N1446 Co1429 1.993 . S
N1446 N1445 1.388 . S
N1446 C1447 1.346 . S
C1447 N1446 1.346 . S
C1447 C1448 1.396 . S
C1447 C1457 1.510 . S
C1448 C1444 1.401 . S
C1448 C1447 1.396 . S
C1449 C1444 1.499 . S
C1449 H1450 0.959 . S
C1449 H1451 0.960 . S
C1449 H1452 0.961 . S
H1450 C1449 0.959 . S
H1451 C1449 0.960 . S
H1452 C1449 0.961 . S
O1453 Co1428 1.967 . S
O1453 C1461 1.258 . S
O1454 Co1429 1.941 . S
O1454 C1461 1.266 . S
H1455 C1457 0.959 . S
H1456 C1457 0.961 . S
C1457 C1447 1.510 . S
C1457 H1455 0.959 . S
C1457 H1456 0.961 . S
C1457 H1458 0.960 . S
H1458 C1457 0.960 . S
H1459 N1439 0.862 . S
O1460 Co1428 1.920 . S
O1460 C1433 1.289 . S
C1461 O1453 1.258 . S
C1461 O1454 1.266 . S
Co1462 O1465 1.970 . S
Co1462 N1479 1.989 . S
Co1462 O1487 1.967 . S
Co1462 O1494 1.920 . S
Co1463 O1466 1.966 . S
Co1463 N1472 2.022 . S
Co1463 N1480 1.993 . S
Co1463 O1488 1.941 . S
C1464 O1465 1.258 . S
C1464 O1466 1.263 . S
O1465 Co1462 1.970 . S
O1465 C1464 1.258 . S
O1466 Co1463 1.966 . S
O1466 C1464 1.263 . S
C1467 O1468 1.235 . S
C1467 O1494 1.289 . S
O1468 C1467 1.235 . S
C1469 C1471 1.400 . S
C1469 N1472 1.351 . S
C1469 C1474 1.501 . S
C1470 C1471 1.387 . S
C1470 N1473 1.341 . S
C1471 C1469 1.400 . S
C1471 C1470 1.387 . S
N1472 Co1463 2.022 . S
N1472 C1469 1.351 . S
N1472 N1473 1.365 . S
N1473 C1470 1.341 . S
N1473 N1472 1.365 . S
N1473 H1493 0.862 . S
C1474 C1469 1.501 . S
C1474 H1475 0.961 . S
C1474 H1476 0.961 . S
C1474 H1477 0.960 . S
H1475 C1474 0.961 . S
H1476 C1474 0.961 . S
H1477 C1474 0.960 . S
C1478 N1479 1.342 . S
C1478 C1482 1.401 . S
C1478 C1483 1.499 . S
N1479 Co1462 1.989 . S
N1479 C1478 1.342 . S
N1479 N1480 1.388 . S
N1480 Co1463 1.993 . S
N1480 N1479 1.388 . S
N1480 C1481 1.346 . S
C1481 N1480 1.346 . S
C1481 C1482 1.396 . S
C1481 C1491 1.510 . S
C1482 C1478 1.401 . S
C1482 C1481 1.396 . S
C1483 C1478 1.499 . S
C1483 H1484 0.959 . S
C1483 H1485 0.960 . S
C1483 H1486 0.961 . S
H1484 C1483 0.959 . S
H1485 C1483 0.960 . S
H1486 C1483 0.961 . S
O1487 Co1462 1.967 . S
O1487 C1495 1.258 . S
O1488 Co1463 1.941 . S
O1488 C1495 1.266 . S
H1489 C1491 0.959 . S
H1490 C1491 0.961 . S
C1491 C1481 1.510 . S
C1491 H1489 0.959 . S
C1491 H1490 0.961 . S
C1491 H1492 0.960 . S
H1492 C1491 0.960 . S
H1493 N1473 0.862 . S
O1494 Co1462 1.920 . S
O1494 C1467 1.289 . S
C1495 O1487 1.258 . S
C1495 O1488 1.266 . S
Co1496 O1499 1.970 . S
Co1496 N1513 1.989 . S
Co1496 O1521 1.967 . S
Co1496 O1528 1.920 . S
Co1497 O1500 1.966 . S
Co1497 N1506 2.022 . S
Co1497 N1514 1.993 . S
Co1497 O1522 1.941 . S
C1498 O1499 1.258 . S
C1498 O1500 1.263 . S
O1499 Co1496 1.970 . S
O1499 C1498 1.258 . S
O1500 Co1497 1.966 . S
O1500 C1498 1.263 . S
C1501 O1502 1.235 . S
C1501 O1528 1.289 . S
O1502 C1501 1.235 . S
C1503 C1505 1.400 . S
C1503 N1506 1.351 . S
C1503 C1508 1.501 . S
C1504 C1505 1.387 . S
C1504 N1507 1.341 . S
C1505 C1503 1.400 . S
C1505 C1504 1.387 . S
N1506 Co1497 2.022 . S
N1506 C1503 1.351 . S
N1506 N1507 1.365 . S
N1507 C1504 1.341 . S
N1507 N1506 1.365 . S
N1507 H1527 0.862 . S
C1508 C1503 1.501 . S
C1508 H1509 0.961 . S
C1508 H1510 0.961 . S
C1508 H1511 0.960 . S
H1509 C1508 0.961 . S
H1510 C1508 0.961 . S
H1511 C1508 0.960 . S
C1512 N1513 1.342 . S
C1512 C1516 1.401 . S
C1512 C1517 1.499 . S
N1513 Co1496 1.989 . S
N1513 C1512 1.342 . S
N1513 N1514 1.388 . S
N1514 Co1497 1.993 . S
N1514 N1513 1.388 . S
N1514 C1515 1.346 . S
C1515 N1514 1.346 . S
C1515 C1516 1.396 . S
C1515 C1525 1.510 . S
C1516 C1512 1.401 . S
C1516 C1515 1.396 . S
C1517 C1512 1.499 . S
C1517 H1518 0.959 . S
C1517 H1519 0.960 . S
C1517 H1520 0.961 . S
H1518 C1517 0.959 . S
H1519 C1517 0.960 . S
H1520 C1517 0.961 . S
O1521 Co1496 1.967 . S
O1521 C1529 1.258 . S
O1522 Co1497 1.941 . S
O1522 C1529 1.266 . S
H1523 C1525 0.959 . S
H1524 C1525 0.961 . S
C1525 C1515 1.510 . S
C1525 H1523 0.959 . S
C1525 H1524 0.961 . S
C1525 H1526 0.960 . S
H1526 C1525 0.960 . S
H1527 N1507 0.862 . S
O1528 Co1496 1.920 . S
O1528 C1501 1.289 . S
C1529 O1521 1.258 . S
C1529 O1522 1.266 . S
Co1530 O1533 1.970 . S
Co1530 N1547 1.989 . S
Co1530 O1555 1.967 . S
Co1530 O1562 1.920 . S
Co1531 O1534 1.966 . S
Co1531 N1540 2.022 . S
Co1531 N1548 1.993 . S
Co1531 O1556 1.941 . S
C1532 O1533 1.258 . S
C1532 O1534 1.263 . S
O1533 Co1530 1.970 . S
O1533 C1532 1.258 . S
O1534 Co1531 1.966 . S
O1534 C1532 1.263 . S
C1535 O1536 1.235 . S
C1535 O1562 1.289 . S
O1536 C1535 1.235 . S
C1537 C1539 1.400 . S
C1537 N1540 1.351 . S
C1537 C1542 1.501 . S
C1538 C1539 1.387 . S
C1538 N1541 1.341 . S
C1539 C1537 1.400 . S
C1539 C1538 1.387 . S
N1540 Co1531 2.022 . S
N1540 C1537 1.351 . S
N1540 N1541 1.365 . S
N1541 C1538 1.341 . S
N1541 N1540 1.365 . S
N1541 H1561 0.862 . S
C1542 C1537 1.501 . S
C1542 H1543 0.961 . S
C1542 H1544 0.961 . S
C1542 H1545 0.960 . S
H1543 C1542 0.961 . S
H1544 C1542 0.961 . S
H1545 C1542 0.960 . S
C1546 N1547 1.342 . S
C1546 C1550 1.401 . S
C1546 C1551 1.499 . S
N1547 Co1530 1.989 . S
N1547 C1546 1.342 . S
N1547 N1548 1.388 . S
N1548 Co1531 1.993 . S
N1548 N1547 1.388 . S
N1548 C1549 1.346 . S
C1549 N1548 1.346 . S
C1549 C1550 1.396 . S
C1549 C1559 1.510 . S
C1550 C1546 1.401 . S
C1550 C1549 1.396 . S
C1551 C1546 1.499 . S
C1551 H1552 0.959 . S
C1551 H1553 0.960 . S
C1551 H1554 0.961 . S
H1552 C1551 0.959 . S
H1553 C1551 0.960 . S
H1554 C1551 0.961 . S
O1555 Co1530 1.967 . S
O1555 C1563 1.258 . S
O1556 Co1531 1.941 . S
O1556 C1563 1.266 . S
H1557 C1559 0.959 . S
H1558 C1559 0.961 . S
C1559 C1549 1.510 . S
C1559 H1557 0.959 . S
C1559 H1558 0.961 . S
C1559 H1560 0.960 . S
H1560 C1559 0.960 . S
H1561 N1541 0.862 . S
O1562 Co1530 1.920 . S
O1562 C1535 1.289 . S
C1563 O1555 1.258 . S
C1563 O1556 1.266 . S
Co1564 O1567 1.970 . S
Co1564 N1581 1.989 . S
Co1564 O1589 1.967 . S
Co1564 O1596 1.920 . S
Co1565 O1568 1.966 . S
Co1565 N1574 2.022 . S
Co1565 N1582 1.993 . S
Co1565 O1590 1.941 . S
C1566 O1567 1.258 . S
C1566 O1568 1.263 . S
O1567 Co1564 1.970 . S
O1567 C1566 1.258 . S
O1568 Co1565 1.966 . S
O1568 C1566 1.263 . S
C1569 O1570 1.235 . S
C1569 O1596 1.289 . S
O1570 C1569 1.235 . S
C1571 C1573 1.400 . S
C1571 N1574 1.351 . S
C1571 C1576 1.501 . S
C1572 C1573 1.387 . S
C1572 N1575 1.341 . S
C1573 C1571 1.400 . S
C1573 C1572 1.387 . S
N1574 Co1565 2.022 . S
N1574 C1571 1.351 . S
N1574 N1575 1.365 . S
N1575 C1572 1.341 . S
N1575 N1574 1.365 . S
N1575 H1595 0.862 . S
C1576 C1571 1.501 . S
C1576 H1577 0.961 . S
C1576 H1578 0.961 . S
C1576 H1579 0.960 . S
H1577 C1576 0.961 . S
H1578 C1576 0.961 . S
H1579 C1576 0.960 . S
C1580 N1581 1.342 . S
C1580 C1584 1.401 . S
C1580 C1585 1.499 . S
N1581 Co1564 1.989 . S
N1581 C1580 1.342 . S
N1581 N1582 1.388 . S
N1582 Co1565 1.993 . S
N1582 N1581 1.388 . S
N1582 C1583 1.346 . S
C1583 N1582 1.346 . S
C1583 C1584 1.396 . S
C1583 C1593 1.510 . S
C1584 C1580 1.401 . S
C1584 C1583 1.396 . S
C1585 C1580 1.499 . S
C1585 H1586 0.959 . S
C1585 H1587 0.960 . S
C1585 H1588 0.961 . S
H1586 C1585 0.959 . S
H1587 C1585 0.960 . S
H1588 C1585 0.961 . S
O1589 Co1564 1.967 . S
O1589 C1597 1.258 . S
O1590 Co1565 1.941 . S
O1590 C1597 1.266 . S
H1591 C1593 0.959 . S
H1592 C1593 0.961 . S
C1593 C1583 1.510 . S
C1593 H1591 0.959 . S
C1593 H1592 0.961 . S
C1593 H1594 0.960 . S
H1594 C1593 0.960 . S
H1595 N1575 0.862 . S
O1596 Co1564 1.920 . S
O1596 C1569 1.289 . S
C1597 O1589 1.258 . S
C1597 O1590 1.266 . S
Co1598 O1601 1.970 . S
Co1598 N1615 1.989 . S
Co1598 O1623 1.967 . S
Co1598 O1630 1.920 . S
Co1599 O1602 1.966 . S
Co1599 N1608 2.022 . S
Co1599 N1616 1.993 . S
Co1599 O1624 1.941 . S
C1600 O1601 1.258 . S
C1600 O1602 1.263 . S
O1601 Co1598 1.970 . S
O1601 C1600 1.258 . S
O1602 Co1599 1.966 . S
O1602 C1600 1.263 . S
C1603 O1604 1.235 . S
C1603 O1630 1.289 . S
O1604 C1603 1.235 . S
C1605 C1607 1.400 . S
C1605 N1608 1.351 . S
C1605 C1610 1.501 . S
C1606 C1607 1.387 . S
C1606 N1609 1.341 . S
C1607 C1605 1.400 . S
C1607 C1606 1.387 . S
N1608 Co1599 2.022 . S
N1608 C1605 1.351 . S
N1608 N1609 1.365 . S
N1609 C1606 1.341 . S
N1609 N1608 1.365 . S
N1609 H1629 0.862 . S
C1610 C1605 1.501 . S
C1610 H1611 0.961 . S
C1610 H1612 0.961 . S
C1610 H1613 0.960 . S
H1611 C1610 0.961 . S
H1612 C1610 0.961 . S
H1613 C1610 0.960 . S
C1614 N1615 1.342 . S
C1614 C1618 1.401 . S
C1614 C1619 1.499 . S
N1615 Co1598 1.989 . S
N1615 C1614 1.342 . S
N1615 N1616 1.388 . S
N1616 Co1599 1.993 . S
N1616 N1615 1.388 . S
N1616 C1617 1.346 . S
C1617 N1616 1.346 . S
C1617 C1618 1.396 . S
C1617 C1627 1.510 . S
C1618 C1614 1.401 . S
C1618 C1617 1.396 . S
C1619 C1614 1.499 . S
C1619 H1620 0.959 . S
C1619 H1621 0.960 . S
C1619 H1622 0.961 . S
H1620 C1619 0.959 . S
H1621 C1619 0.960 . S
H1622 C1619 0.961 . S
O1623 Co1598 1.967 . S
O1623 C1631 1.258 . S
O1624 Co1599 1.941 . S
O1624 C1631 1.266 . S
H1625 C1627 0.959 . S
H1626 C1627 0.961 . S
C1627 C1617 1.510 . S
C1627 H1625 0.959 . S
C1627 H1626 0.961 . S
C1627 H1628 0.960 . S
H1628 C1627 0.960 . S
H1629 N1609 0.862 . S
O1630 Co1598 1.920 . S
O1630 C1603 1.289 . S
C1631 O1623 1.258 . S
C1631 O1624 1.266 . S
C1632 C1633 1.387 . S
C1632 H1636 0.950 . S
C1632 C1641 1.390 . S
C1633 C1632 1.387 . S
C1633 C1635 1.387 . S
H1634 C1641 0.950 . S
C1635 C1633 1.387 . S
C1635 C1637 1.390 . S
C1635 H1639 0.950 . S
H1636 C1632 0.950 . S
C1637 C1635 1.390 . S
C1637 C1638 1.387 . S
C1637 H1640 0.950 . S
C1638 C1637 1.387 . S
C1638 C1641 1.387 . S
H1639 C1635 0.950 . S
H1640 C1637 0.950 . S
C1641 C1632 1.390 . S
C1641 H1634 0.950 . S
C1641 C1638 1.387 . S
C1642 C1643 1.387 . S
C1642 H1646 0.950 . S
C1642 C1651 1.390 . S
C1643 C1642 1.387 . S
C1643 C1645 1.387 . S
H1644 C1651 0.950 . S
C1645 C1643 1.387 . S
C1645 C1647 1.390 . S
C1645 H1649 0.950 . S
H1646 C1642 0.950 . S
C1647 C1645 1.390 . S
C1647 C1648 1.387 . S
C1647 H1650 0.950 . S
C1648 C1647 1.387 . S
C1648 C1651 1.387 . S
H1649 C1645 0.950 . S
H1650 C1647 0.950 . S
C1651 C1642 1.390 . S
C1651 H1644 0.950 . S
C1651 C1648 1.387 . S
C1652 C1653 1.387 . S
C1652 H1656 0.950 . S
C1652 C1661 1.390 . S
C1653 C1652 1.387 . S
C1653 C1655 1.387 . S
H1654 C1661 0.950 . S
C1655 C1653 1.387 . S
C1655 C1657 1.390 . S
C1655 H1659 0.950 . S
H1656 C1652 0.950 . S
C1657 C1655 1.390 . S
C1657 C1658 1.387 . S
C1657 H1660 0.950 . S
C1658 C1657 1.387 . S
C1658 C1661 1.387 . S
H1659 C1655 0.950 . S
H1660 C1657 0.950 . S
C1661 C1652 1.390 . S
C1661 H1654 0.950 . S
C1661 C1658 1.387 . S
C1662 C1663 1.387 . S
C1662 H1666 0.950 . S
C1662 C1671 1.390 . S
C1663 C1662 1.387 . S
C1663 C1665 1.387 . S
H1664 C1671 0.950 . S
C1665 C1663 1.387 . S
C1665 C1667 1.390 . S
C1665 H1669 0.950 . S
H1666 C1662 0.950 . S
C1667 C1665 1.390 . S
C1667 C1668 1.387 . S
C1667 H1670 0.950 . S
C1668 C1667 1.387 . S
C1668 C1671 1.387 . S
H1669 C1665 0.950 . S
H1670 C1667 0.950 . S
C1671 C1662 1.390 . S
C1671 H1664 0.950 . S
C1671 C1668 1.387 . S
C1672 C1673 1.387 . S
C1672 H1676 0.950 . S
C1672 C1681 1.390 . S
C1673 C1672 1.387 . S
C1673 C1675 1.387 . S
H1674 C1681 0.950 . S
C1675 C1673 1.387 . S
C1675 C1677 1.390 . S
C1675 H1679 0.950 . S
H1676 C1672 0.950 . S
C1677 C1675 1.390 . S
C1677 C1678 1.387 . S
C1677 H1680 0.950 . S
C1678 C1677 1.387 . S
C1678 C1681 1.387 . S
H1679 C1675 0.950 . S
H1680 C1677 0.950 . S
C1681 C1672 1.390 . S
C1681 H1674 0.950 . S
C1681 C1678 1.387 . S
C1682 C1683 1.387 . S
C1682 H1686 0.950 . S
C1682 C1691 1.390 . S
C1683 C1682 1.387 . S
C1683 C1685 1.387 . S
H1684 C1691 0.950 . S
C1685 C1683 1.387 . S
C1685 C1687 1.390 . S
C1685 H1689 0.950 . S
H1686 C1682 0.950 . S
C1687 C1685 1.390 . S
C1687 C1688 1.387 . S
C1687 H1690 0.950 . S
C1688 C1687 1.387 . S
C1688 C1691 1.387 . S
H1689 C1685 0.950 . S
H1690 C1687 0.950 . S
C1691 C1682 1.390 . S
C1691 H1684 0.950 . S
C1691 C1688 1.387 . S
C1692 C1693 1.387 . S
C1692 H1696 0.950 . S
C1692 C1701 1.390 . S
C1693 C1692 1.387 . S
C1693 C1695 1.387 . S
H1694 C1701 0.950 . S
C1695 C1693 1.387 . S
C1695 C1697 1.390 . S
C1695 H1699 0.950 . S
H1696 C1692 0.950 . S
C1697 C1695 1.390 . S
C1697 C1698 1.387 . S
C1697 H1700 0.950 . S
C1698 C1697 1.387 . S
C1698 C1701 1.387 . S
H1699 C1695 0.950 . S
H1700 C1697 0.950 . S
C1701 C1692 1.390 . S
C1701 H1694 0.950 . S
C1701 C1698 1.387 . S
C1702 C1703 1.387 . S
C1702 H1706 0.950 . S
C1702 C1711 1.390 . S
C1703 C1702 1.387 . S
C1703 C1705 1.387 . S
H1704 C1711 0.950 . S
C1705 C1703 1.387 . S
C1705 C1707 1.390 . S
C1705 H1709 0.950 . S
H1706 C1702 0.950 . S
C1707 C1705 1.390 . S
C1707 C1708 1.387 . S
C1707 H1710 0.950 . S
C1708 C1707 1.387 . S
C1708 C1711 1.387 . S
H1709 C1705 0.950 . S
H1710 C1707 0.950 . S
C1711 C1702 1.390 . S
C1711 H1704 0.950 . S
C1711 C1708 1.387 . S
C1712 C1713 1.387 . S
C1712 H1716 0.950 . S
C1712 C1721 1.390 . S
C1713 C1712 1.387 . S
C1713 C1715 1.387 . S
H1714 C1721 0.950 . S
C1715 C1713 1.387 . S
C1715 C1717 1.390 . S
C1715 H1719 0.950 . S
H1716 C1712 0.950 . S
C1717 C1715 1.390 . S
C1717 C1718 1.387 . S
C1717 H1720 0.950 . S
C1718 C1717 1.387 . S
C1718 C1721 1.387 . S
H1719 C1715 0.950 . S
H1720 C1717 0.950 . S
C1721 C1712 1.390 . S
C1721 H1714 0.950 . S
C1721 C1718 1.387 . S
C1722 C1723 1.387 . S
C1722 H1726 0.950 . S
C1722 C1731 1.390 . S
C1723 C1722 1.387 . S
C1723 C1725 1.387 . S
H1724 C1731 0.950 . S
C1725 C1723 1.387 . S
C1725 C1727 1.390 . S
C1725 H1729 0.950 . S
H1726 C1722 0.950 . S
C1727 C1725 1.390 . S
C1727 C1728 1.387 . S
C1727 H1730 0.950 . S
C1728 C1727 1.387 . S
C1728 C1731 1.387 . S
H1729 C1725 0.950 . S
H1730 C1727 0.950 . S
C1731 C1722 1.390 . S
C1731 H1724 0.950 . S
C1731 C1728 1.387 . S
C1732 C1733 1.387 . S
C1732 H1736 0.950 . S
C1732 C1741 1.390 . S
C1733 C1732 1.387 . S
C1733 C1735 1.387 . S
H1734 C1741 0.950 . S
C1735 C1733 1.387 . S
C1735 C1737 1.390 . S
C1735 H1739 0.950 . S
H1736 C1732 0.950 . S
C1737 C1735 1.390 . S
C1737 C1738 1.387 . S
C1737 H1740 0.950 . S
C1738 C1737 1.387 . S
C1738 C1741 1.387 . S
H1739 C1735 0.950 . S
H1740 C1737 0.950 . S
C1741 C1732 1.390 . S
C1741 H1734 0.950 . S
C1741 C1738 1.387 . S
C1742 C1743 1.387 . S
C1742 H1746 0.950 . S
C1742 C1751 1.390 . S
C1743 C1742 1.387 . S
C1743 C1745 1.387 . S
H1744 C1751 0.950 . S
C1745 C1743 1.387 . S
C1745 C1747 1.390 . S
C1745 H1749 0.950 . S
H1746 C1742 0.950 . S
C1747 C1745 1.390 . S
C1747 C1748 1.387 . S
C1747 H1750 0.950 . S
C1748 C1747 1.387 . S
C1748 C1751 1.387 . S
H1749 C1745 0.950 . S
H1750 C1747 0.950 . S
C1751 C1742 1.390 . S
C1751 H1744 0.950 . S
C1751 C1748 1.387 . S
C1752 C1753 1.387 . S
C1752 H1756 0.950 . S
C1752 C1761 1.390 . S
C1753 C1752 1.387 . S
C1753 C1755 1.387 . S
H1754 C1761 0.950 . S
C1755 C1753 1.387 . S
C1755 C1757 1.390 . S
C1755 H1759 0.950 . S
H1756 C1752 0.950 . S
C1757 C1755 1.390 . S
C1757 C1758 1.387 . S
C1757 H1760 0.950 . S
C1758 C1757 1.387 . S
C1758 C1761 1.387 . S
H1759 C1755 0.950 . S
H1760 C1757 0.950 . S
C1761 C1752 1.390 . S
C1761 H1754 0.950 . S
C1761 C1758 1.387 . S
C1762 C1763 1.387 . S
C1762 H1766 0.950 . S
C1762 C1771 1.390 . S
C1763 C1762 1.387 . S
C1763 C1765 1.387 . S
H1764 C1771 0.950 . S
C1765 C1763 1.387 . S
C1765 C1767 1.390 . S
C1765 H1769 0.950 . S
H1766 C1762 0.950 . S
C1767 C1765 1.390 . S
C1767 C1768 1.387 . S
C1767 H1770 0.950 . S
C1768 C1767 1.387 . S
C1768 C1771 1.387 . S
H1769 C1765 0.950 . S
H1770 C1767 0.950 . S
C1771 C1762 1.390 . S
C1771 H1764 0.950 . S
C1771 C1768 1.387 . S
C1772 C1773 1.387 . S
C1772 H1776 0.950 . S
C1772 C1781 1.390 . S
C1773 C1772 1.387 . S
C1773 C1775 1.387 . S
H1774 C1781 0.950 . S
C1775 C1773 1.387 . S
C1775 C1777 1.390 . S
C1775 H1779 0.950 . S
H1776 C1772 0.950 . S
C1777 C1775 1.390 . S
C1777 C1778 1.387 . S
C1777 H1780 0.950 . S
C1778 C1777 1.387 . S
C1778 C1781 1.387 . S
H1779 C1775 0.950 . S
H1780 C1777 0.950 . S
C1781 C1772 1.390 . S
C1781 H1774 0.950 . S
C1781 C1778 1.387 . S
C1782 C1783 1.387 . S
C1782 H1786 0.950 . S
C1782 C1791 1.390 . S
C1783 C1782 1.387 . S
C1783 C1785 1.387 . S
H1784 C1791 0.950 . S
C1785 C1783 1.387 . S
C1785 C1787 1.390 . S
C1785 H1789 0.950 . S
H1786 C1782 0.950 . S
C1787 C1785 1.390 . S
C1787 C1788 1.387 . S
C1787 H1790 0.950 . S
C1788 C1787 1.387 . S
C1788 C1791 1.387 . S
H1789 C1785 0.950 . S
H1790 C1787 0.950 . S
C1791 C1782 1.390 . S
C1791 H1784 0.950 . S
C1791 C1788 1.387 . S
C1792 C1793 1.387 . S
C1792 H1796 0.950 . S
C1792 C1801 1.390 . S
C1793 C1792 1.387 . S
C1793 C1795 1.387 . S
H1794 C1801 0.950 . S
C1795 C1793 1.387 . S
C1795 C1797 1.390 . S
C1795 H1799 0.950 . S
H1796 C1792 0.950 . S
C1797 C1795 1.390 . S
C1797 C1798 1.387 . S
C1797 H1800 0.950 . S
C1798 C1797 1.387 . S
C1798 C1801 1.387 . S
H1799 C1795 0.950 . S
H1800 C1797 0.950 . S
C1801 C1792 1.390 . S
C1801 H1794 0.950 . S
C1801 C1798 1.387 . S
C1802 C1803 1.387 . S
C1802 H1806 0.950 . S
C1802 C1811 1.390 . S
C1803 C1802 1.387 . S
C1803 C1805 1.387 . S
H1804 C1811 0.950 . S
C1805 C1803 1.387 . S
C1805 C1807 1.390 . S
C1805 H1809 0.950 . S
H1806 C1802 0.950 . S
C1807 C1805 1.390 . S
C1807 C1808 1.387 . S
C1807 H1810 0.950 . S
C1808 C1807 1.387 . S
C1808 C1811 1.387 . S
H1809 C1805 0.950 . S
H1810 C1807 0.950 . S
C1811 C1802 1.390 . S
C1811 H1804 0.950 . S
C1811 C1808 1.387 . S
C1812 C1813 1.387 . S
C1812 H1816 0.950 . S
C1812 C1821 1.390 . S
C1813 C1812 1.387 . S
C1813 C1815 1.387 . S
H1814 C1821 0.950 . S
C1815 C1813 1.387 . S
C1815 C1817 1.390 . S
C1815 H1819 0.950 . S
H1816 C1812 0.950 . S
C1817 C1815 1.390 . S
C1817 C1818 1.387 . S
C1817 H1820 0.950 . S
C1818 C1817 1.387 . S
C1818 C1821 1.387 . S
H1819 C1815 0.950 . S
H1820 C1817 0.950 . S
C1821 C1812 1.390 . S
C1821 H1814 0.950 . S
C1821 C1818 1.387 . S
C1822 C1823 1.387 . S
C1822 H1826 0.950 . S
C1822 C1831 1.390 . S
C1823 C1822 1.387 . S
C1823 C1825 1.387 . S
H1824 C1831 0.950 . S
C1825 C1823 1.387 . S
C1825 C1827 1.390 . S
C1825 H1829 0.950 . S
H1826 C1822 0.950 . S
C1827 C1825 1.390 . S
C1827 C1828 1.387 . S
C1827 H1830 0.950 . S
C1828 C1827 1.387 . S
C1828 C1831 1.387 . S
H1829 C1825 0.950 . S
H1830 C1827 0.950 . S
C1831 C1822 1.390 . S
C1831 H1824 0.950 . S
C1831 C1828 1.387 . S
C1832 C1833 1.387 . S
C1832 H1836 0.950 . S
C1832 C1841 1.390 . S
C1833 C1832 1.387 . S
C1833 C1835 1.387 . S
H1834 C1841 0.950 . S
C1835 C1833 1.387 . S
C1835 C1837 1.390 . S
C1835 H1839 0.950 . S
H1836 C1832 0.950 . S
C1837 C1835 1.390 . S
C1837 C1838 1.387 . S
C1837 H1840 0.950 . S
C1838 C1837 1.387 . S
C1838 C1841 1.387 . S
H1839 C1835 0.950 . S
H1840 C1837 0.950 . S
C1841 C1832 1.390 . S
C1841 H1834 0.950 . S
C1841 C1838 1.387 . S
C1842 C1843 1.387 . S
C1842 H1846 0.950 . S
C1842 C1851 1.390 . S
C1843 C1842 1.387 . S
C1843 C1845 1.387 . S
H1844 C1851 0.950 . S
C1845 C1843 1.387 . S
C1845 C1847 1.390 . S
C1845 H1849 0.950 . S
H1846 C1842 0.950 . S
C1847 C1845 1.390 . S
C1847 C1848 1.387 . S
C1847 H1850 0.950 . S
C1848 C1847 1.387 . S
C1848 C1851 1.387 . S
H1849 C1845 0.950 . S
H1850 C1847 0.950 . S
C1851 C1842 1.390 . S
C1851 H1844 0.950 . S
C1851 C1848 1.387 . S
C1852 C1853 1.387 . S
C1852 H1856 0.950 . S
C1852 C1861 1.390 . S
C1853 C1852 1.387 . S
C1853 C1855 1.387 . S
H1854 C1861 0.950 . S
C1855 C1853 1.387 . S
C1855 C1857 1.390 . S
C1855 H1859 0.950 . S
H1856 C1852 0.950 . S
C1857 C1855 1.390 . S
C1857 C1858 1.387 . S
C1857 H1860 0.950 . S
C1858 C1857 1.387 . S
C1858 C1861 1.387 . S
H1859 C1855 0.950 . S
H1860 C1857 0.950 . S
C1861 C1852 1.390 . S
C1861 H1854 0.950 . S
C1861 C1858 1.387 . S
C1862 C1863 1.387 . S
C1862 H1866 0.950 . S
C1862 C1871 1.390 . S
C1863 C1862 1.387 . S
C1863 C1865 1.387 . S
H1864 C1871 0.950 . S
C1865 C1863 1.387 . S
C1865 C1867 1.390 . S
C1865 H1869 0.950 . S
H1866 C1862 0.950 . S
C1867 C1865 1.390 . S
C1867 C1868 1.387 . S
C1867 H1870 0.950 . S
C1868 C1867 1.387 . S
C1868 C1871 1.387 . S
H1869 C1865 0.950 . S
H1870 C1867 0.950 . S
C1871 C1862 1.390 . S
C1871 H1864 0.950 . S
C1871 C1868 1.387 . S
C1872 C1873 1.387 . S
C1872 H1876 0.950 . S
C1872 C1881 1.390 . S
C1873 C1872 1.387 . S
C1873 C1875 1.387 . S
H1874 C1881 0.950 . S
C1875 C1873 1.387 . S
C1875 C1877 1.390 . S
C1875 H1879 0.950 . S
H1876 C1872 0.950 . S
C1877 C1875 1.390 . S
C1877 C1878 1.387 . S
C1877 H1880 0.950 . S
C1878 C1877 1.387 . S
C1878 C1881 1.387 . S
H1879 C1875 0.950 . S
H1880 C1877 0.950 . S
C1881 C1872 1.390 . S
C1881 H1874 0.950 . S
C1881 C1878 1.387 . S
C1882 C1883 1.387 . S
C1882 H1886 0.950 . S
C1882 C1891 1.390 . S
C1883 C1882 1.387 . S
C1883 C1885 1.387 . S
H1884 C1891 0.950 . S
C1885 C1883 1.387 . S
C1885 C1887 1.390 . S
C1885 H1889 0.950 . S
H1886 C1882 0.950 . S
C1887 C1885 1.390 . S
C1887 C1888 1.387 . S
C1887 H1890 0.950 . S
C1888 C1887 1.387 . S
C1888 C1891 1.387 . S
H1889 C1885 0.950 . S
H1890 C1887 0.950 . S
C1891 C1882 1.390 . S
C1891 H1884 0.950 . S
C1891 C1888 1.387 . S
C1892 C1893 1.387 . S
C1892 H1896 0.950 . S
C1892 C1901 1.390 . S
C1893 C1892 1.387 . S
C1893 C1895 1.387 . S
H1894 C1901 0.950 . S
C1895 C1893 1.387 . S
C1895 C1897 1.390 . S
C1895 H1899 0.950 . S
H1896 C1892 0.950 . S
C1897 C1895 1.390 . S
C1897 C1898 1.387 . S
C1897 H1900 0.950 . S
C1898 C1897 1.387 . S
C1898 C1901 1.387 . S
H1899 C1895 0.950 . S
H1900 C1897 0.950 . S
C1901 C1892 1.390 . S
C1901 H1894 0.950 . S
C1901 C1898 1.387 . S
C1902 C1903 1.387 . S
C1902 H1906 0.950 . S
C1902 C1911 1.390 . S
C1903 C1902 1.387 . S
C1903 C1905 1.387 . S
H1904 C1911 0.950 . S
C1905 C1903 1.387 . S
C1905 C1907 1.390 . S
C1905 H1909 0.950 . S
H1906 C1902 0.950 . S
C1907 C1905 1.390 . S
C1907 C1908 1.387 . S
C1907 H1910 0.950 . S
C1908 C1907 1.387 . S
C1908 C1911 1.387 . S
H1909 C1905 0.950 . S
H1910 C1907 0.950 . S
C1911 C1902 1.390 . S
C1911 H1904 0.950 . S
C1911 C1908 1.387 . S
C1912 C1913 1.387 . S
C1912 H1916 0.950 . S
C1912 C1921 1.390 . S
C1913 C1912 1.387 . S
C1913 C1915 1.387 . S
H1914 C1921 0.950 . S
C1915 C1913 1.387 . S
C1915 C1917 1.390 . S
C1915 H1919 0.950 . S
H1916 C1912 0.950 . S
C1917 C1915 1.390 . S
C1917 C1918 1.387 . S
C1917 H1920 0.950 . S
C1918 C1917 1.387 . S
C1918 C1921 1.387 . S
H1919 C1915 0.950 . S
H1920 C1917 0.950 . S
C1921 C1912 1.390 . S
C1921 H1914 0.950 . S
C1921 C1918 1.387 . S
C1922 C1923 1.387 . S
C1922 H1926 0.950 . S
C1922 C1931 1.390 . S
C1923 C1922 1.387 . S
C1923 C1925 1.387 . S
H1924 C1931 0.950 . S
C1925 C1923 1.387 . S
C1925 C1927 1.390 . S
C1925 H1929 0.950 . S
H1926 C1922 0.950 . S
C1927 C1925 1.390 . S
C1927 C1928 1.387 . S
C1927 H1930 0.950 . S
C1928 C1927 1.387 . S
C1928 C1931 1.387 . S
H1929 C1925 0.950 . S
H1930 C1927 0.950 . S
C1931 C1922 1.390 . S
C1931 H1924 0.950 . S
C1931 C1928 1.387 . S
C1932 C1933 1.387 . S
C1932 H1936 0.950 . S
C1932 C1941 1.390 . S
C1933 C1932 1.387 . S
C1933 C1935 1.387 . S
H1934 C1941 0.950 . S
C1935 C1933 1.387 . S
C1935 C1937 1.390 . S
C1935 H1939 0.950 . S
H1936 C1932 0.950 . S
C1937 C1935 1.390 . S
C1937 C1938 1.387 . S
C1937 H1940 0.950 . S
C1938 C1937 1.387 . S
C1938 C1941 1.387 . S
H1939 C1935 0.950 . S
H1940 C1937 0.950 . S
C1941 C1932 1.390 . S
C1941 H1934 0.950 . S
C1941 C1938 1.387 . S
C1942 C1943 1.387 . S
C1942 H1946 0.950 . S
C1942 C1951 1.390 . S
C1943 C1942 1.387 . S
C1943 C1945 1.387 . S
H1944 C1951 0.950 . S
C1945 C1943 1.387 . S
C1945 C1947 1.390 . S
C1945 H1949 0.950 . S
H1946 C1942 0.950 . S
C1947 C1945 1.390 . S
C1947 C1948 1.387 . S
C1947 H1950 0.950 . S
C1948 C1947 1.387 . S
C1948 C1951 1.387 . S
H1949 C1945 0.950 . S
H1950 C1947 0.950 . S
C1951 C1942 1.390 . S
C1951 H1944 0.950 . S
C1951 C1948 1.387 . S
C1952 C1953 1.387 . S
C1952 H1956 0.950 . S
C1952 C1961 1.390 . S
C1953 C1952 1.387 . S
C1953 C1955 1.387 . S
H1954 C1961 0.950 . S
C1955 C1953 1.387 . S
C1955 C1957 1.390 . S
C1955 H1959 0.950 . S
H1956 C1952 0.950 . S
C1957 C1955 1.390 . S
C1957 C1958 1.387 . S
C1957 H1960 0.950 . S
C1958 C1957 1.387 . S
C1958 C1961 1.387 . S
H1959 C1955 0.950 . S
H1960 C1957 0.950 . S
C1961 C1952 1.390 . S
C1961 H1954 0.950 . S
C1961 C1958 1.387 . S
C1962 C1963 1.387 . S
C1962 H1966 0.950 . S
C1962 C1971 1.390 . S
C1963 C1962 1.387 . S
C1963 C1965 1.387 . S
H1964 C1971 0.950 . S
C1965 C1963 1.387 . S
C1965 C1967 1.390 . S
C1965 H1969 0.950 . S
H1966 C1962 0.950 . S
C1967 C1965 1.390 . S
C1967 C1968 1.387 . S
C1967 H1970 0.950 . S
C1968 C1967 1.387 . S
C1968 C1971 1.387 . S
H1969 C1965 0.950 . S
H1970 C1967 0.950 . S
C1971 C1962 1.390 . S
C1971 H1964 0.950 . S
C1971 C1968 1.387 . S
C1972 C1973 1.387 . S
C1972 H1976 0.950 . S
C1972 C1981 1.390 . S
C1973 C1972 1.387 . S
C1973 C1975 1.387 . S
H1974 C1981 0.950 . S
C1975 C1973 1.387 . S
C1975 C1977 1.390 . S
C1975 H1979 0.950 . S
H1976 C1972 0.950 . S
C1977 C1975 1.390 . S
C1977 C1978 1.387 . S
C1977 H1980 0.950 . S
C1978 C1977 1.387 . S
C1978 C1981 1.387 . S
H1979 C1975 0.950 . S
H1980 C1977 0.950 . S
C1981 C1972 1.390 . S
C1981 H1974 0.950 . S
C1981 C1978 1.387 . S
C1982 C1983 1.387 . S
C1982 H1986 0.950 . S
C1982 C1991 1.390 . S
C1983 C1982 1.387 . S
C1983 C1985 1.387 . S
H1984 C1991 0.950 . S
C1985 C1983 1.387 . S
C1985 C1987 1.390 . S
C1985 H1989 0.950 . S
H1986 C1982 0.950 . S
C1987 C1985 1.390 . S
C1987 C1988 1.387 . S
C1987 H1990 0.950 . S
C1988 C1987 1.387 . S
C1988 C1991 1.387 . S
H1989 C1985 0.950 . S
H1990 C1987 0.950 . S
C1991 C1982 1.390 . S
C1991 H1984 0.950 . S
C1991 C1988 1.387 . S
C1992 C1993 1.387 . S
C1992 H1996 0.950 . S
C1992 C2001 1.390 . S
C1993 C1992 1.387 . S
C1993 C1995 1.387 . S
H1994 C2001 0.950 . S
C1995 C1993 1.387 . S
C1995 C1997 1.390 . S
C1995 H1999 0.950 . S
H1996 C1992 0.950 . S
C1997 C1995 1.390 . S
C1997 C1998 1.387 . S
C1997 H2000 0.950 . S
C1998 C1997 1.387 . S
C1998 C2001 1.387 . S
H1999 C1995 0.950 . S
H2000 C1997 0.950 . S
C2001 C1992 1.390 . S
C2001 H1994 0.950 . S
C2001 C1998 1.387 . S
C2002 C2003 1.387 . S
C2002 H2006 0.950 . S
C2002 C2011 1.390 . S
C2003 C2002 1.387 . S
C2003 C2005 1.387 . S
H2004 C2011 0.950 . S
C2005 C2003 1.387 . S
C2005 C2007 1.390 . S
C2005 H2009 0.950 . S
H2006 C2002 0.950 . S
C2007 C2005 1.390 . S
C2007 C2008 1.387 . S
C2007 H2010 0.950 . S
C2008 C2007 1.387 . S
C2008 C2011 1.387 . S
H2009 C2005 0.950 . S
H2010 C2007 0.950 . S
C2011 C2002 1.390 . S
C2011 H2004 0.950 . S
C2011 C2008 1.387 . S
C2012 C2013 1.387 . S
C2012 H2016 0.950 . S
C2012 C2021 1.390 . S
C2013 C2012 1.387 . S
C2013 C2015 1.387 . S
H2014 C2021 0.950 . S
C2015 C2013 1.387 . S
C2015 C2017 1.390 . S
C2015 H2019 0.950 . S
H2016 C2012 0.950 . S
C2017 C2015 1.390 . S
C2017 C2018 1.387 . S
C2017 H2020 0.950 . S
C2018 C2017 1.387 . S
C2018 C2021 1.387 . S
H2019 C2015 0.950 . S
H2020 C2017 0.950 . S
C2021 C2012 1.390 . S
C2021 H2014 0.950 . S
C2021 C2018 1.387 . S
C2022 C2023 1.387 . S
C2022 H2026 0.950 . S
C2022 C2031 1.390 . S
C2023 C2022 1.387 . S
C2023 C2025 1.387 . S
H2024 C2031 0.950 . S
C2025 C2023 1.387 . S
C2025 C2027 1.390 . S
C2025 H2029 0.950 . S
H2026 C2022 0.950 . S
C2027 C2025 1.390 . S
C2027 C2028 1.387 . S
C2027 H2030 0.950 . S
C2028 C2027 1.387 . S
C2028 C2031 1.387 . S
H2029 C2025 0.950 . S
H2030 C2027 0.950 . S
C2031 C2022 1.390 . S
C2031 H2024 0.950 . S
C2031 C2028 1.387 . S
C2032 C2033 1.387 . S
C2032 H2036 0.950 . S
C2032 C2041 1.390 . S
C2033 C2032 1.387 . S
C2033 C2035 1.387 . S
H2034 C2041 0.950 . S
C2035 C2033 1.387 . S
C2035 C2037 1.390 . S
C2035 H2039 0.950 . S
H2036 C2032 0.950 . S
C2037 C2035 1.390 . S
C2037 C2038 1.387 . S
C2037 H2040 0.950 . S
C2038 C2037 1.387 . S
C2038 C2041 1.387 . S
H2039 C2035 0.950 . S
H2040 C2037 0.950 . S
C2041 C2032 1.390 . S
C2041 H2034 0.950 . S
C2041 C2038 1.387 . S
C2042 C2043 1.387 . S
C2042 H2046 0.950 . S
C2042 C2051 1.390 . S
C2043 C2042 1.387 . S
C2043 C2045 1.387 . S
H2044 C2051 0.950 . S
C2045 C2043 1.387 . S
C2045 C2047 1.390 . S
C2045 H2049 0.950 . S
H2046 C2042 0.950 . S
C2047 C2045 1.390 . S
C2047 C2048 1.387 . S
C2047 H2050 0.950 . S
C2048 C2047 1.387 . S
C2048 C2051 1.387 . S
H2049 C2045 0.950 . S
H2050 C2047 0.950 . S
C2051 C2042 1.390 . S
C2051 H2044 0.950 . S
C2051 C2048 1.387 . S
C2052 C2053 1.387 . S
C2052 H2056 0.950 . S
C2052 C2061 1.390 . S
C2053 C2052 1.387 . S
C2053 C2055 1.387 . S
H2054 C2061 0.950 . S
C2055 C2053 1.387 . S
C2055 C2057 1.390 . S
C2055 H2059 0.950 . S
H2056 C2052 0.950 . S
C2057 C2055 1.390 . S
C2057 C2058 1.387 . S
C2057 H2060 0.950 . S
C2058 C2057 1.387 . S
C2058 C2061 1.387 . S
H2059 C2055 0.950 . S
H2060 C2057 0.950 . S
C2061 C2052 1.390 . S
C2061 H2054 0.950 . S
C2061 C2058 1.387 . S
C2062 C2063 1.387 . S
C2062 H2066 0.950 . S
C2062 C2071 1.390 . S
C2063 C2062 1.387 . S
C2063 C2065 1.387 . S
H2064 C2071 0.950 . S
C2065 C2063 1.387 . S
C2065 C2067 1.390 . S
C2065 H2069 0.950 . S
H2066 C2062 0.950 . S
C2067 C2065 1.390 . S
C2067 C2068 1.387 . S
C2067 H2070 0.950 . S
C2068 C2067 1.387 . S
C2068 C2071 1.387 . S
H2069 C2065 0.950 . S
H2070 C2067 0.950 . S
C2071 C2062 1.390 . S
C2071 H2064 0.950 . S
C2071 C2068 1.387 . S
C2072 C2073 1.387 . S
C2072 H2076 0.950 . S
C2072 C2081 1.390 . S
C2073 C2072 1.387 . S
C2073 C2075 1.387 . S
H2074 C2081 0.950 . S
C2075 C2073 1.387 . S
C2075 C2077 1.390 . S
C2075 H2079 0.950 . S
H2076 C2072 0.950 . S
C2077 C2075 1.390 . S
C2077 C2078 1.387 . S
C2077 H2080 0.950 . S
C2078 C2077 1.387 . S
C2078 C2081 1.387 . S
H2079 C2075 0.950 . S
H2080 C2077 0.950 . S
C2081 C2072 1.390 . S
C2081 H2074 0.950 . S
C2081 C2078 1.387 . S
C2082 C2083 1.387 . S
C2082 H2086 0.950 . S
C2082 C2091 1.390 . S
C2083 C2082 1.387 . S
C2083 C2085 1.387 . S
H2084 C2091 0.950 . S
C2085 C2083 1.387 . S
C2085 C2087 1.390 . S
C2085 H2089 0.950 . S
H2086 C2082 0.950 . S
C2087 C2085 1.390 . S
C2087 C2088 1.387 . S
C2087 H2090 0.950 . S
C2088 C2087 1.387 . S
C2088 C2091 1.387 . S
H2089 C2085 0.950 . S
H2090 C2087 0.950 . S
C2091 C2082 1.390 . S
C2091 H2084 0.950 . S
C2091 C2088 1.387 . S
C2092 C2093 1.387 . S
C2092 H2096 0.950 . S
C2092 C2101 1.390 . S
C2093 C2092 1.387 . S
C2093 C2095 1.387 . S
H2094 C2101 0.950 . S
C2095 C2093 1.387 . S
C2095 C2097 1.390 . S
C2095 H2099 0.950 . S
H2096 C2092 0.950 . S
C2097 C2095 1.390 . S
C2097 C2098 1.387 . S
C2097 H2100 0.950 . S
C2098 C2097 1.387 . S
C2098 C2101 1.387 . S
H2099 C2095 0.950 . S
H2100 C2097 0.950 . S
C2101 C2092 1.390 . S
C2101 H2094 0.950 . S
C2101 C2098 1.387 . S
C2102 C2103 1.387 . S
C2102 H2106 0.950 . S
C2102 C2111 1.390 . S
C2103 C2102 1.387 . S
C2103 C2105 1.387 . S
H2104 C2111 0.950 . S
C2105 C2103 1.387 . S
C2105 C2107 1.390 . S
C2105 H2109 0.950 . S
H2106 C2102 0.950 . S
C2107 C2105 1.390 . S
C2107 C2108 1.387 . S
C2107 H2110 0.950 . S
C2108 C2107 1.387 . S
C2108 C2111 1.387 . S
H2109 C2105 0.950 . S
H2110 C2107 0.950 . S
C2111 C2102 1.390 . S
C2111 H2104 0.950 . S
C2111 C2108 1.387 . S
C2112 C2113 1.387 . S
C2112 H2116 0.950 . S
C2112 C2121 1.390 . S
C2113 C2112 1.387 . S
C2113 C2115 1.387 . S
H2114 C2121 0.950 . S
C2115 C2113 1.387 . S
C2115 C2117 1.390 . S
C2115 H2119 0.950 . S
H2116 C2112 0.950 . S
C2117 C2115 1.390 . S
C2117 C2118 1.387 . S
C2117 H2120 0.950 . S
C2118 C2117 1.387 . S
C2118 C2121 1.387 . S
H2119 C2115 0.950 . S
H2120 C2117 0.950 . S
C2121 C2112 1.390 . S
C2121 H2114 0.950 . S
C2121 C2118 1.387 . S
C2122 C2123 1.387 . S
C2122 H2126 0.950 . S
C2122 C2131 1.390 . S
C2123 C2122 1.387 . S
C2123 C2125 1.387 . S
H2124 C2131 0.950 . S
C2125 C2123 1.387 . S
C2125 C2127 1.390 . S
C2125 H2129 0.950 . S
H2126 C2122 0.950 . S
C2127 C2125 1.390 . S
C2127 C2128 1.387 . S
C2127 H2130 0.950 . S
C2128 C2127 1.387 . S
C2128 C2131 1.387 . S
H2129 C2125 0.950 . S
H2130 C2127 0.950 . S
C2131 C2122 1.390 . S
C2131 H2124 0.950 . S
C2131 C2128 1.387 . S
C2132 C2133 1.387 . S
C2132 H2136 0.950 . S
C2132 C2141 1.390 . S
C2133 C2132 1.387 . S
C2133 C2135 1.387 . S
H2134 C2141 0.950 . S
C2135 C2133 1.387 . S
C2135 C2137 1.390 . S
C2135 H2139 0.950 . S
H2136 C2132 0.950 . S
C2137 C2135 1.390 . S
C2137 C2138 1.387 . S
C2137 H2140 0.950 . S
C2138 C2137 1.387 . S
C2138 C2141 1.387 . S
H2139 C2135 0.950 . S
H2140 C2137 0.950 . S
C2141 C2132 1.390 . S
C2141 H2134 0.950 . S
C2141 C2138 1.387 . S
C2142 C2143 1.387 . S
C2142 H2146 0.950 . S
C2142 C2151 1.390 . S
C2143 C2142 1.387 . S
C2143 C2145 1.387 . S
H2144 C2151 0.950 . S
C2145 C2143 1.387 . S
C2145 C2147 1.390 . S
C2145 H2149 0.950 . S
H2146 C2142 0.950 . S
C2147 C2145 1.390 . S
C2147 C2148 1.387 . S
C2147 H2150 0.950 . S
C2148 C2147 1.387 . S
C2148 C2151 1.387 . S
H2149 C2145 0.950 . S
H2150 C2147 0.950 . S
C2151 C2142 1.390 . S
C2151 H2144 0.950 . S
C2151 C2148 1.387 . S
C2152 C2153 1.387 . S
C2152 H2156 0.950 . S
C2152 C2161 1.390 . S
C2153 C2152 1.387 . S
C2153 C2155 1.387 . S
H2154 C2161 0.950 . S
C2155 C2153 1.387 . S
C2155 C2157 1.390 . S
C2155 H2159 0.950 . S
H2156 C2152 0.950 . S
C2157 C2155 1.390 . S
C2157 C2158 1.387 . S
C2157 H2160 0.950 . S
C2158 C2157 1.387 . S
C2158 C2161 1.387 . S
H2159 C2155 0.950 . S
H2160 C2157 0.950 . S
C2161 C2152 1.390 . S
C2161 H2154 0.950 . S
C2161 C2158 1.387 . S
C2162 C2163 1.387 . S
C2162 H2166 0.950 . S
C2162 C2171 1.390 . S
C2163 C2162 1.387 . S
C2163 C2165 1.387 . S
H2164 C2171 0.950 . S
C2165 C2163 1.387 . S
C2165 C2167 1.390 . S
C2165 H2169 0.950 . S
H2166 C2162 0.950 . S
C2167 C2165 1.390 . S
C2167 C2168 1.387 . S
C2167 H2170 0.950 . S
C2168 C2167 1.387 . S
C2168 C2171 1.387 . S
H2169 C2165 0.950 . S
H2170 C2167 0.950 . S
C2171 C2162 1.390 . S
C2171 H2164 0.950 . S
C2171 C2168 1.387 . S
C2172 C2173 1.387 . S
C2172 H2176 0.950 . S
C2172 C2181 1.390 . S
C2173 C2172 1.387 . S
C2173 C2175 1.387 . S
H2174 C2181 0.950 . S
C2175 C2173 1.387 . S
C2175 C2177 1.390 . S
C2175 H2179 0.950 . S
H2176 C2172 0.950 . S
C2177 C2175 1.390 . S
C2177 C2178 1.387 . S
C2177 H2180 0.950 . S
C2178 C2177 1.387 . S
C2178 C2181 1.387 . S
H2179 C2175 0.950 . S
H2180 C2177 0.950 . S
C2181 C2172 1.390 . S
C2181 H2174 0.950 . S
C2181 C2178 1.387 . S
C2182 C2183 1.387 . S
C2182 H2186 0.950 . S
C2182 C2191 1.390 . S
C2183 C2182 1.387 . S
C2183 C2185 1.387 . S
H2184 C2191 0.950 . S
C2185 C2183 1.387 . S
C2185 C2187 1.390 . S
C2185 H2189 0.950 . S
H2186 C2182 0.950 . S
C2187 C2185 1.390 . S
C2187 C2188 1.387 . S
C2187 H2190 0.950 . S
C2188 C2187 1.387 . S
C2188 C2191 1.387 . S
H2189 C2185 0.950 . S
H2190 C2187 0.950 . S
C2191 C2182 1.390 . S
C2191 H2184 0.950 . S
C2191 C2188 1.387 . S
C2192 C2193 1.387 . S
C2192 H2196 0.950 . S
C2192 C2201 1.390 . S
C2193 C2192 1.387 . S
C2193 C2195 1.387 . S
H2194 C2201 0.950 . S
C2195 C2193 1.387 . S
C2195 C2197 1.390 . S
C2195 H2199 0.950 . S
H2196 C2192 0.950 . S
C2197 C2195 1.390 . S
C2197 C2198 1.387 . S
C2197 H2200 0.950 . S
C2198 C2197 1.387 . S
C2198 C2201 1.387 . S
H2199 C2195 0.950 . S
H2200 C2197 0.950 . S
C2201 C2192 1.390 . S
C2201 H2194 0.950 . S
C2201 C2198 1.387 . S
C2202 C2203 1.387 . S
C2202 H2206 0.950 . S
C2202 C2211 1.390 . S
C2203 C2202 1.387 . S
C2203 C2205 1.387 . S
H2204 C2211 0.950 . S
C2205 C2203 1.387 . S
C2205 C2207 1.390 . S
C2205 H2209 0.950 . S
H2206 C2202 0.950 . S
C2207 C2205 1.390 . S
C2207 C2208 1.387 . S
C2207 H2210 0.950 . S
C2208 C2207 1.387 . S
C2208 C2211 1.387 . S
H2209 C2205 0.950 . S
H2210 C2207 0.950 . S
C2211 C2202 1.390 . S
C2211 H2204 0.950 . S
C2211 C2208 1.387 . S
C2212 C2213 1.387 . S
C2212 H2216 0.950 . S
C2212 C2221 1.390 . S
C2213 C2212 1.387 . S
C2213 C2215 1.387 . S
H2214 C2221 0.950 . S
C2215 C2213 1.387 . S
C2215 C2217 1.390 . S
C2215 H2219 0.950 . S
H2216 C2212 0.950 . S
C2217 C2215 1.390 . S
C2217 C2218 1.387 . S
C2217 H2220 0.950 . S
C2218 C2217 1.387 . S
C2218 C2221 1.387 . S
H2219 C2215 0.950 . S
H2220 C2217 0.950 . S
C2221 C2212 1.390 . S
C2221 H2214 0.950 . S
C2221 C2218 1.387 . S
C2222 C2223 1.387 . S
C2222 H2226 0.950 . S
C2222 C2231 1.390 . S
C2223 C2222 1.387 . S
C2223 C2225 1.387 . S
H2224 C2231 0.950 . S
C2225 C2223 1.387 . S
C2225 C2227 1.390 . S
C2225 H2229 0.950 . S
H2226 C2222 0.950 . S
C2227 C2225 1.390 . S
C2227 C2228 1.387 . S
C2227 H2230 0.950 . S
C2228 C2227 1.387 . S
C2228 C2231 1.387 . S
H2229 C2225 0.950 . S
H2230 C2227 0.950 . S
C2231 C2222 1.390 . S
C2231 H2224 0.950 . S
C2231 C2228 1.387 . S
C2232 C2233 1.387 . S
C2232 H2236 0.950 . S
C2232 C2241 1.390 . S
C2233 C2232 1.387 . S
C2233 C2235 1.387 . S
H2234 C2241 0.950 . S
C2235 C2233 1.387 . S
C2235 C2237 1.390 . S
C2235 H2239 0.950 . S
H2236 C2232 0.950 . S
C2237 C2235 1.390 . S
C2237 C2238 1.387 . S
C2237 H2240 0.950 . S
C2238 C2237 1.387 . S
C2238 C2241 1.387 . S
H2239 C2235 0.950 . S
H2240 C2237 0.950 . S
C2241 C2232 1.390 . S
C2241 H2234 0.950 . S
C2241 C2238 1.387 . S
C2242 C2243 1.387 . S
C2242 H2246 0.950 . S
C2242 C2251 1.390 . S
C2243 C2242 1.387 . S
C2243 C2245 1.387 . S
H2244 C2251 0.950 . S
C2245 C2243 1.387 . S
C2245 C2247 1.390 . S
C2245 H2249 0.950 . S
H2246 C2242 0.950 . S
C2247 C2245 1.390 . S
C2247 C2248 1.387 . S
C2247 H2250 0.950 . S
C2248 C2247 1.387 . S
C2248 C2251 1.387 . S
H2249 C2245 0.950 . S
H2250 C2247 0.950 . S
C2251 C2242 1.390 . S
C2251 H2244 0.950 . S
C2251 C2248 1.387 . S
C2252 C2253 1.387 . S
C2252 H2256 0.950 . S
C2252 C2261 1.390 . S
C2253 C2252 1.387 . S
C2253 C2255 1.387 . S
H2254 C2261 0.950 . S
C2255 C2253 1.387 . S
C2255 C2257 1.390 . S
C2255 H2259 0.950 . S
H2256 C2252 0.950 . S
C2257 C2255 1.390 . S
C2257 C2258 1.387 . S
C2257 H2260 0.950 . S
C2258 C2257 1.387 . S
C2258 C2261 1.387 . S
H2259 C2255 0.950 . S
H2260 C2257 0.950 . S
C2261 C2252 1.390 . S
C2261 H2254 0.950 . S
C2261 C2258 1.387 . S
C2262 C2263 1.387 . S
C2262 H2266 0.950 . S
C2262 C2271 1.390 . S
C2263 C2262 1.387 . S
C2263 C2265 1.387 . S
H2264 C2271 0.950 . S
C2265 C2263 1.387 . S
C2265 C2267 1.390 . S
C2265 H2269 0.950 . S
H2266 C2262 0.950 . S
C2267 C2265 1.390 . S
C2267 C2268 1.387 . S
C2267 H2270 0.950 . S
C2268 C2267 1.387 . S
C2268 C2271 1.387 . S
H2269 C2265 0.950 . S
H2270 C2267 0.950 . S
C2271 C2262 1.390 . S
C2271 H2264 0.950 . S
C2271 C2268 1.387 . S
C2272 C2273 1.387 . S
C2272 H2276 0.950 . S
C2272 C2281 1.390 . S
C2273 C2272 1.387 . S
C2273 C2275 1.387 . S
H2274 C2281 0.950 . S
C2275 C2273 1.387 . S
C2275 C2277 1.390 . S
C2275 H2279 0.950 . S
H2276 C2272 0.950 . S
C2277 C2275 1.390 . S
C2277 C2278 1.387 . S
C2277 H2280 0.950 . S
C2278 C2277 1.387 . S
C2278 C2281 1.387 . S
H2279 C2275 0.950 . S
H2280 C2277 0.950 . S
C2281 C2272 1.390 . S
C2281 H2274 0.950 . S
C2281 C2278 1.387 . S
C2282 C2283 1.387 . S
C2282 H2286 0.950 . S
C2282 C2291 1.390 . S
C2283 C2282 1.387 . S
C2283 C2285 1.387 . S
H2284 C2291 0.950 . S
C2285 C2283 1.387 . S
C2285 C2287 1.390 . S
C2285 H2289 0.950 . S
H2286 C2282 0.950 . S
C2287 C2285 1.390 . S
C2287 C2288 1.387 . S
C2287 H2290 0.950 . S
C2288 C2287 1.387 . S
C2288 C2291 1.387 . S
H2289 C2285 0.950 . S
H2290 C2287 0.950 . S
C2291 C2282 1.390 . S
C2291 H2284 0.950 . S
C2291 C2288 1.387 . S
C2292 C2293 1.387 . S
C2292 H2296 0.950 . S
C2292 C2301 1.390 . S
C2293 C2292 1.387 . S
C2293 C2295 1.387 . S
H2294 C2301 0.950 . S
C2295 C2293 1.387 . S
C2295 C2297 1.390 . S
C2295 H2299 0.950 . S
H2296 C2292 0.950 . S
C2297 C2295 1.390 . S
C2297 C2298 1.387 . S
C2297 H2300 0.950 . S
C2298 C2297 1.387 . S
C2298 C2301 1.387 . S
H2299 C2295 0.950 . S
H2300 C2297 0.950 . S
C2301 C2292 1.390 . S
C2301 H2294 0.950 . S
C2301 C2298 1.387 . S
C2302 C2303 1.387 . S
C2302 H2306 0.950 . S
C2302 C2311 1.390 . S
C2303 C2302 1.387 . S
C2303 C2305 1.387 . S
H2304 C2311 0.950 . S
C2305 C2303 1.387 . S
C2305 C2307 1.390 . S
C2305 H2309 0.950 . S
H2306 C2302 0.950 . S
C2307 C2305 1.390 . S
C2307 C2308 1.387 . S
C2307 H2310 0.950 . S
C2308 C2307 1.387 . S
C2308 C2311 1.387 . S
H2309 C2305 0.950 . S
H2310 C2307 0.950 . S
C2311 C2302 1.390 . S
C2311 H2304 0.950 . S
C2311 C2308 1.387 . S
C2312 C2313 1.387 . S
C2312 H2316 0.950 . S
C2312 C2321 1.390 . S
C2313 C2312 1.387 . S
C2313 C2315 1.387 . S
H2314 C2321 0.950 . S
C2315 C2313 1.387 . S
C2315 C2317 1.390 . S
C2315 H2319 0.950 . S
H2316 C2312 0.950 . S
C2317 C2315 1.390 . S
C2317 C2318 1.387 . S
C2317 H2320 0.950 . S
C2318 C2317 1.387 . S
C2318 C2321 1.387 . S
H2319 C2315 0.950 . S
H2320 C2317 0.950 . S
C2321 C2312 1.390 . S
C2321 H2314 0.950 . S
C2321 C2318 1.387 . S
C2322 C2323 1.387 . S
C2322 H2326 0.950 . S
C2322 C2331 1.390 . S
C2323 C2322 1.387 . S
C2323 C2325 1.387 . S
H2324 C2331 0.950 . S
C2325 C2323 1.387 . S
C2325 C2327 1.390 . S
C2325 H2329 0.950 . S
H2326 C2322 0.950 . S
C2327 C2325 1.390 . S
C2327 C2328 1.387 . S
C2327 H2330 0.950 . S
C2328 C2327 1.387 . S
C2328 C2331 1.387 . S
H2329 C2325 0.950 . S
H2330 C2327 0.950 . S
C2331 C2322 1.390 . S
C2331 H2324 0.950 . S
C2331 C2328 1.387 . S
C2332 C2333 1.387 . S
C2332 H2336 0.950 . S
C2332 C2341 1.390 . S
C2333 C2332 1.387 . S
C2333 C2335 1.387 . S
H2334 C2341 0.950 . S
C2335 C2333 1.387 . S
C2335 C2337 1.390 . S
C2335 H2339 0.950 . S
H2336 C2332 0.950 . S
C2337 C2335 1.390 . S
C2337 C2338 1.387 . S
C2337 H2340 0.950 . S
C2338 C2337 1.387 . S
C2338 C2341 1.387 . S
H2339 C2335 0.950 . S
H2340 C2337 0.950 . S
C2341 C2332 1.390 . S
C2341 H2334 0.950 . S
C2341 C2338 1.387 . S
C2342 C2343 1.387 . S
C2342 H2346 0.950 . S
C2342 C2351 1.390 . S
C2343 C2342 1.387 . S
C2343 C2345 1.387 . S
H2344 C2351 0.950 . S
C2345 C2343 1.387 . S
C2345 C2347 1.390 . S
C2345 H2349 0.950 . S
H2346 C2342 0.950 . S
C2347 C2345 1.390 . S
C2347 C2348 1.387 . S
C2347 H2350 0.950 . S
C2348 C2347 1.387 . S
C2348 C2351 1.387 . S
H2349 C2345 0.950 . S
H2350 C2347 0.950 . S
C2351 C2342 1.390 . S
C2351 H2344 0.950 . S
C2351 C2348 1.387 . S
C2352 C2353 1.387 . S
C2352 H2356 0.950 . S
C2352 C2361 1.390 . S
C2353 C2352 1.387 . S
C2353 C2355 1.387 . S
H2354 C2361 0.950 . S
C2355 C2353 1.387 . S
C2355 C2357 1.390 . S
C2355 H2359 0.950 . S
H2356 C2352 0.950 . S
C2357 C2355 1.390 . S
C2357 C2358 1.387 . S
C2357 H2360 0.950 . S
C2358 C2357 1.387 . S
C2358 C2361 1.387 . S
H2359 C2355 0.950 . S
H2360 C2357 0.950 . S
C2361 C2352 1.390 . S
C2361 H2354 0.950 . S
C2361 C2358 1.387 . S
C2362 C2363 1.387 . S
C2362 H2366 0.950 . S
C2362 C2371 1.390 . S
C2363 C2362 1.387 . S
C2363 C2365 1.387 . S
H2364 C2371 0.950 . S
C2365 C2363 1.387 . S
C2365 C2367 1.390 . S
C2365 H2369 0.950 . S
H2366 C2362 0.950 . S
C2367 C2365 1.390 . S
C2367 C2368 1.387 . S
C2367 H2370 0.950 . S
C2368 C2367 1.387 . S
C2368 C2371 1.387 . S
H2369 C2365 0.950 . S
H2370 C2367 0.950 . S
C2371 C2362 1.390 . S
C2371 H2364 0.950 . S
C2371 C2368 1.387 . S
C2372 C2373 1.387 . S
C2372 H2376 0.950 . S
C2372 C2381 1.390 . S
C2373 C2372 1.387 . S
C2373 C2375 1.387 . S
H2374 C2381 0.950 . S
C2375 C2373 1.387 . S
C2375 C2377 1.390 . S
C2375 H2379 0.950 . S
H2376 C2372 0.950 . S
C2377 C2375 1.390 . S
C2377 C2378 1.387 . S
C2377 H2380 0.950 . S
C2378 C2377 1.387 . S
C2378 C2381 1.387 . S
H2379 C2375 0.950 . S
H2380 C2377 0.950 . S
C2381 C2372 1.390 . S
C2381 H2374 0.950 . S
C2381 C2378 1.387 . S
C2382 C2383 1.387 . S
C2382 H2386 0.950 . S
C2382 C2391 1.390 . S
C2383 C2382 1.387 . S
C2383 C2385 1.387 . S
H2384 C2391 0.950 . S
C2385 C2383 1.387 . S
C2385 C2387 1.390 . S
C2385 H2389 0.950 . S
H2386 C2382 0.950 . S
C2387 C2385 1.390 . S
C2387 C2388 1.387 . S
C2387 H2390 0.950 . S
C2388 C2387 1.387 . S
C2388 C2391 1.387 . S
H2389 C2385 0.950 . S
H2390 C2387 0.950 . S
C2391 C2382 1.390 . S
C2391 H2384 0.950 . S
C2391 C2388 1.387 . S
C2392 C2393 1.387 . S
C2392 H2396 0.950 . S
C2392 C2401 1.390 . S
C2393 C2392 1.387 . S
C2393 C2395 1.387 . S
H2394 C2401 0.950 . S
C2395 C2393 1.387 . S
C2395 C2397 1.390 . S
C2395 H2399 0.950 . S
H2396 C2392 0.950 . S
C2397 C2395 1.390 . S
C2397 C2398 1.387 . S
C2397 H2400 0.950 . S
C2398 C2397 1.387 . S
C2398 C2401 1.387 . S
H2399 C2395 0.950 . S
H2400 C2397 0.950 . S
C2401 C2392 1.390 . S
C2401 H2394 0.950 . S
C2401 C2398 1.387 . S
C2402 C2403 1.387 . S
C2402 H2406 0.950 . S
C2402 C2411 1.390 . S
C2403 C2402 1.387 . S
C2403 C2405 1.387 . S
H2404 C2411 0.950 . S
C2405 C2403 1.387 . S
C2405 C2407 1.390 . S
C2405 H2409 0.950 . S
H2406 C2402 0.950 . S
C2407 C2405 1.390 . S
C2407 C2408 1.387 . S
C2407 H2410 0.950 . S
C2408 C2407 1.387 . S
C2408 C2411 1.387 . S
H2409 C2405 0.950 . S
H2410 C2407 0.950 . S
C2411 C2402 1.390 . S
C2411 H2404 0.950 . S
C2411 C2408 1.387 . S
C2412 C2413 1.387 . S
C2412 H2416 0.950 . S
C2412 C2421 1.390 . S
C2413 C2412 1.387 . S
C2413 C2415 1.387 . S
H2414 C2421 0.950 . S
C2415 C2413 1.387 . S
C2415 C2417 1.390 . S
C2415 H2419 0.950 . S
H2416 C2412 0.950 . S
C2417 C2415 1.390 . S
C2417 C2418 1.387 . S
C2417 H2420 0.950 . S
C2418 C2417 1.387 . S
C2418 C2421 1.387 . S
H2419 C2415 0.950 . S
H2420 C2417 0.950 . S
C2421 C2412 1.390 . S
C2421 H2414 0.950 . S
C2421 C2418 1.387 . S
C2422 C2423 1.387 . S
C2422 H2426 0.950 . S
C2422 C2431 1.390 . S
C2423 C2422 1.387 . S
C2423 C2425 1.387 . S
H2424 C2431 0.950 . S
C2425 C2423 1.387 . S
C2425 C2427 1.390 . S
C2425 H2429 0.950 . S
H2426 C2422 0.950 . S
C2427 C2425 1.390 . S
C2427 C2428 1.387 . S
C2427 H2430 0.950 . S
C2428 C2427 1.387 . S
C2428 C2431 1.387 . S
H2429 C2425 0.950 . S
H2430 C2427 0.950 . S
C2431 C2422 1.390 . S
C2431 H2424 0.950 . S
C2431 C2428 1.387 . S
C2432 C2433 1.387 . S
C2432 H2436 0.950 . S
C2432 C2441 1.390 . S
C2433 C2432 1.387 . S
C2433 C2435 1.387 . S
H2434 C2441 0.950 . S
C2435 C2433 1.387 . S
C2435 C2437 1.390 . S
C2435 H2439 0.950 . S
H2436 C2432 0.950 . S
C2437 C2435 1.390 . S
C2437 C2438 1.387 . S
C2437 H2440 0.950 . S
C2438 C2437 1.387 . S
C2438 C2441 1.387 . S
H2439 C2435 0.950 . S
H2440 C2437 0.950 . S
C2441 C2432 1.390 . S
C2441 H2434 0.950 . S
C2441 C2438 1.387 . S
C2442 C2443 1.387 . S
C2442 H2446 0.950 . S
C2442 C2451 1.390 . S
C2443 C2442 1.387 . S
C2443 C2445 1.387 . S
H2444 C2451 0.950 . S
C2445 C2443 1.387 . S
C2445 C2447 1.390 . S
C2445 H2449 0.950 . S
H2446 C2442 0.950 . S
C2447 C2445 1.390 . S
C2447 C2448 1.387 . S
C2447 H2450 0.950 . S
C2448 C2447 1.387 . S
C2448 C2451 1.387 . S
H2449 C2445 0.950 . S
H2450 C2447 0.950 . S
C2451 C2442 1.390 . S
C2451 H2444 0.950 . S
C2451 C2448 1.387 . S
C2452 C2453 1.387 . S
C2452 H2456 0.950 . S
C2452 C2461 1.390 . S
C2453 C2452 1.387 . S
C2453 C2455 1.387 . S
H2454 C2461 0.950 . S
C2455 C2453 1.387 . S
C2455 C2457 1.390 . S
C2455 H2459 0.950 . S
H2456 C2452 0.950 . S
C2457 C2455 1.390 . S
C2457 C2458 1.387 . S
C2457 H2460 0.950 . S
C2458 C2457 1.387 . S
C2458 C2461 1.387 . S
H2459 C2455 0.950 . S
H2460 C2457 0.950 . S
C2461 C2452 1.390 . S
C2461 H2454 0.950 . S
C2461 C2458 1.387 . S
C2462 C2463 1.387 . S
C2462 H2466 0.950 . S
C2462 C2471 1.390 . S
C2463 C2462 1.387 . S
C2463 C2465 1.387 . S
H2464 C2471 0.950 . S
C2465 C2463 1.387 . S
C2465 C2467 1.390 . S
C2465 H2469 0.950 . S
H2466 C2462 0.950 . S
C2467 C2465 1.390 . S
C2467 C2468 1.387 . S
C2467 H2470 0.950 . S
C2468 C2467 1.387 . S
C2468 C2471 1.387 . S
H2469 C2465 0.950 . S
H2470 C2467 0.950 . S
C2471 C2462 1.390 . S
C2471 H2464 0.950 . S
C2471 C2468 1.387 . S
C2472 C2473 1.387 . S
C2472 H2476 0.950 . S
C2472 C2481 1.390 . S
C2473 C2472 1.387 . S
C2473 C2475 1.387 . S
H2474 C2481 0.950 . S
C2475 C2473 1.387 . S
C2475 C2477 1.390 . S
C2475 H2479 0.950 . S
H2476 C2472 0.950 . S
C2477 C2475 1.390 . S
C2477 C2478 1.387 . S
C2477 H2480 0.950 . S
C2478 C2477 1.387 . S
C2478 C2481 1.387 . S
H2479 C2475 0.950 . S
H2480 C2477 0.950 . S
C2481 C2472 1.390 . S
C2481 H2474 0.950 . S
C2481 C2478 1.387 . S
C2482 C2483 1.387 . S
C2482 H2486 0.950 . S
C2482 C2491 1.390 . S
C2483 C2482 1.387 . S
C2483 C2485 1.387 . S
H2484 C2491 0.950 . S
C2485 C2483 1.387 . S
C2485 C2487 1.390 . S
C2485 H2489 0.950 . S
H2486 C2482 0.950 . S
C2487 C2485 1.390 . S
C2487 C2488 1.387 . S
C2487 H2490 0.950 . S
C2488 C2487 1.387 . S
C2488 C2491 1.387 . S
H2489 C2485 0.950 . S
H2490 C2487 0.950 . S
C2491 C2482 1.390 . S
C2491 H2484 0.950 . S
C2491 C2488 1.387 . S
C2492 C2493 1.387 . S
C2492 H2496 0.950 . S
C2492 C2501 1.390 . S
C2493 C2492 1.387 . S
C2493 C2495 1.387 . S
H2494 C2501 0.950 . S
C2495 C2493 1.387 . S
C2495 C2497 1.390 . S
C2495 H2499 0.950 . S
H2496 C2492 0.950 . S
C2497 C2495 1.390 . S
C2497 C2498 1.387 . S
C2497 H2500 0.950 . S
C2498 C2497 1.387 . S
C2498 C2501 1.387 . S
H2499 C2495 0.950 . S
H2500 C2497 0.950 . S
C2501 C2492 1.390 . S
C2501 H2494 0.950 . S
C2501 C2498 1.387 . S
C2502 C2503 1.387 . S
C2502 H2506 0.950 . S
C2502 C2511 1.390 . S
C2503 C2502 1.387 . S
C2503 C2505 1.387 . S
H2504 C2511 0.950 . S
C2505 C2503 1.387 . S
C2505 C2507 1.390 . S
C2505 H2509 0.950 . S
H2506 C2502 0.950 . S
C2507 C2505 1.390 . S
C2507 C2508 1.387 . S
C2507 H2510 0.950 . S
C2508 C2507 1.387 . S
C2508 C2511 1.387 . S
H2509 C2505 0.950 . S
H2510 C2507 0.950 . S
C2511 C2502 1.390 . S
C2511 H2504 0.950 . S
C2511 C2508 1.387 . S
C2512 C2513 1.387 . S
C2512 H2516 0.950 . S
C2512 C2521 1.390 . S
C2513 C2512 1.387 . S
C2513 C2515 1.387 . S
H2514 C2521 0.950 . S
C2515 C2513 1.387 . S
C2515 C2517 1.390 . S
C2515 H2519 0.950 . S
H2516 C2512 0.950 . S
C2517 C2515 1.390 . S
C2517 C2518 1.387 . S
C2517 H2520 0.950 . S
C2518 C2517 1.387 . S
C2518 C2521 1.387 . S
H2519 C2515 0.950 . S
H2520 C2517 0.950 . S
C2521 C2512 1.390 . S
C2521 H2514 0.950 . S
C2521 C2518 1.387 . S
C2522 C2523 1.387 . S
C2522 H2526 0.950 . S
C2522 C2531 1.390 . S
C2523 C2522 1.387 . S
C2523 C2525 1.387 . S
H2524 C2531 0.950 . S
C2525 C2523 1.387 . S
C2525 C2527 1.390 . S
C2525 H2529 0.950 . S
H2526 C2522 0.950 . S
C2527 C2525 1.390 . S
C2527 C2528 1.387 . S
C2527 H2530 0.950 . S
C2528 C2527 1.387 . S
C2528 C2531 1.387 . S
H2529 C2525 0.950 . S
H2530 C2527 0.950 . S
C2531 C2522 1.390 . S
C2531 H2524 0.950 . S
C2531 C2528 1.387 . S
C2532 C2533 1.387 . S
C2532 H2536 0.950 . S
C2532 C2541 1.390 . S
C2533 C2532 1.387 . S
C2533 C2535 1.387 . S
H2534 C2541 0.950 . S
C2535 C2533 1.387 . S
C2535 C2537 1.390 . S
C2535 H2539 0.950 . S
H2536 C2532 0.950 . S
C2537 C2535 1.390 . S
C2537 C2538 1.387 . S
C2537 H2540 0.950 . S
C2538 C2537 1.387 . S
C2538 C2541 1.387 . S
H2539 C2535 0.950 . S
H2540 C2537 0.950 . S
C2541 C2532 1.390 . S
C2541 H2534 0.950 . S
C2541 C2538 1.387 . S
C2542 C2543 1.387 . S
C2542 H2546 0.950 . S
C2542 C2551 1.390 . S
C2543 C2542 1.387 . S
C2543 C2545 1.387 . S
H2544 C2551 0.950 . S
C2545 C2543 1.387 . S
C2545 C2547 1.390 . S
C2545 H2549 0.950 . S
H2546 C2542 0.950 . S
C2547 C2545 1.390 . S
C2547 C2548 1.387 . S
C2547 H2550 0.950 . S
C2548 C2547 1.387 . S
C2548 C2551 1.387 . S
H2549 C2545 0.950 . S
H2550 C2547 0.950 . S
C2551 C2542 1.390 . S
C2551 H2544 0.950 . S
C2551 C2548 1.387 . S
C2552 C2553 1.387 . S
C2552 H2556 0.950 . S
C2552 C2561 1.390 . S
C2553 C2552 1.387 . S
C2553 C2555 1.387 . S
H2554 C2561 0.950 . S
C2555 C2553 1.387 . S
C2555 C2557 1.390 . S
C2555 H2559 0.950 . S
H2556 C2552 0.950 . S
C2557 C2555 1.390 . S
C2557 C2558 1.387 . S
C2557 H2560 0.950 . S
C2558 C2557 1.387 . S
C2558 C2561 1.387 . S
H2559 C2555 0.950 . S
H2560 C2557 0.950 . S
C2561 C2552 1.390 . S
C2561 H2554 0.950 . S
C2561 C2558 1.387 . S
C2562 C2563 1.387 . S
C2562 H2566 0.950 . S
C2562 C2571 1.390 . S
C2563 C2562 1.387 . S
C2563 C2565 1.387 . S
H2564 C2571 0.950 . S
C2565 C2563 1.387 . S
C2565 C2567 1.390 . S
C2565 H2569 0.950 . S
H2566 C2562 0.950 . S
C2567 C2565 1.390 . S
C2567 C2568 1.387 . S
C2567 H2570 0.950 . S
C2568 C2567 1.387 . S
C2568 C2571 1.387 . S
H2569 C2565 0.950 . S
H2570 C2567 0.950 . S
C2571 C2562 1.390 . S
C2571 H2564 0.950 . S
C2571 C2568 1.387 . S
C2572 C2573 1.387 . S
C2572 H2576 0.950 . S
C2572 C2581 1.390 . S
C2573 C2572 1.387 . S
C2573 C2575 1.387 . S
H2574 C2581 0.950 . S
C2575 C2573 1.387 . S
C2575 C2577 1.390 . S
C2575 H2579 0.950 . S
H2576 C2572 0.950 . S
C2577 C2575 1.390 . S
C2577 C2578 1.387 . S
C2577 H2580 0.950 . S
C2578 C2577 1.387 . S
C2578 C2581 1.387 . S
H2579 C2575 0.950 . S
H2580 C2577 0.950 . S
C2581 C2572 1.390 . S
C2581 H2574 0.950 . S
C2581 C2578 1.387 . S
C2582 C2583 1.387 . S
C2582 H2586 0.950 . S
C2582 C2591 1.390 . S
C2583 C2582 1.387 . S
C2583 C2585 1.387 . S
H2584 C2591 0.950 . S
C2585 C2583 1.387 . S
C2585 C2587 1.390 . S
C2585 H2589 0.950 . S
H2586 C2582 0.950 . S
C2587 C2585 1.390 . S
C2587 C2588 1.387 . S
C2587 H2590 0.950 . S
C2588 C2587 1.387 . S
C2588 C2591 1.387 . S
H2589 C2585 0.950 . S
H2590 C2587 0.950 . S
C2591 C2582 1.390 . S
C2591 H2584 0.950 . S
C2591 C2588 1.387 . S
C2592 C2593 1.387 . S
C2592 H2596 0.950 1_455 S
C2592 C2601 1.390 . S
C2593 C2592 1.387 . S
C2593 C2595 1.387 . S
H2594 C2601 0.950 . S
C2595 C2593 1.387 . S
C2595 C2597 1.390 . S
C2595 H2599 0.950 . S
H2596 C2592 0.950 1_655 S
C2597 C2595 1.390 . S
C2597 C2598 1.387 . S
C2597 H2600 0.950 . S
C2598 C2597 1.387 . S
C2598 C2601 1.387 . S
H2599 C2595 0.950 . S
H2600 C2597 0.950 . S
C2601 C2592 1.390 . S
C2601 H2594 0.950 . S
C2601 C2598 1.387 . S
C2602 C2603 1.387 . S
C2602 H2606 0.950 . S
C2602 C2611 1.390 . S
C2603 C2602 1.387 . S
C2603 C2605 1.387 . S
H2604 C2611 0.950 . S
C2605 C2603 1.387 . S
C2605 C2607 1.390 . S
C2605 H2609 0.950 . S
H2606 C2602 0.950 . S
C2607 C2605 1.390 . S
C2607 C2608 1.387 . S
C2607 H2610 0.950 1_545 S
C2608 C2607 1.387 . S
C2608 C2611 1.387 . S
H2609 C2605 0.950 . S
H2610 C2607 0.950 1_565 S
C2611 C2602 1.390 . S
C2611 H2604 0.950 . S
C2611 C2608 1.387 . S
C2612 C2613 1.387 . S
C2612 H2616 0.950 . S
C2612 C2621 1.390 . S
C2613 C2612 1.387 . S
C2613 C2615 1.387 . S
H2614 C2621 0.950 . S
C2615 C2613 1.387 . S
C2615 C2617 1.390 . S
C2615 H2619 0.950 . S
H2616 C2612 0.950 . S
C2617 C2615 1.390 . S
C2617 C2618 1.387 . S
C2617 H2620 0.950 . S
C2618 C2617 1.387 . S
C2618 C2621 1.387 . S
H2619 C2615 0.950 . S
H2620 C2617 0.950 . S
C2621 C2612 1.390 . S
C2621 H2614 0.950 . S
C2621 C2618 1.387 . S
C2622 C2623 1.387 . S
C2622 H2626 0.950 . S
C2622 C2631 1.390 . S
C2623 C2622 1.387 . S
C2623 C2625 1.387 1_545 S
H2624 C2631 0.950 . S
C2625 C2623 1.387 1_565 S
C2625 C2627 1.390 1_565 S
C2625 H2629 0.950 . S
H2626 C2622 0.950 . S
C2627 C2625 1.390 1_545 S
C2627 C2628 1.387 . S
C2627 H2630 0.950 1_545 S
C2628 C2627 1.387 . S
C2628 C2631 1.387 . S
H2629 C2625 0.950 . S
H2630 C2627 0.950 1_565 S
C2631 C2622 1.390 . S
C2631 H2624 0.950 . S
C2631 C2628 1.387 . S
C2632 C2633 1.387 1_655 S
C2632 H2636 0.950 . S
C2632 C2641 1.390 1_655 S
C2633 C2632 1.387 1_455 S
C2633 C2635 1.387 . S
H2634 C2641 0.950 1_655 S
C2635 C2633 1.387 . S
C2635 C2637 1.390 . S
C2635 H2639 0.950 . S
H2636 C2632 0.950 . S
C2637 C2635 1.390 . S
C2637 C2638 1.387 . S
C2637 H2640 0.950 . S
C2638 C2637 1.387 . S
C2638 C2641 1.387 . S
H2639 C2635 0.950 . S
H2640 C2637 0.950 . S
C2641 C2632 1.390 1_455 S
C2641 H2634 0.950 1_455 S
C2641 C2638 1.387 . S
C2642 C2643 1.387 . S
C2642 H2646 0.950 1_545 S
C2642 C2651 1.390 1_545 S
C2643 C2642 1.387 . S
C2643 C2645 1.387 . S
H2644 C2651 0.950 . S
C2645 C2643 1.387 . S
C2645 C2647 1.390 . S
C2645 H2649 0.950 . S
H2646 C2642 0.950 1_565 S
C2647 C2645 1.390 . S
C2647 C2648 1.387 . S
C2647 H2650 0.950 . S
C2648 C2647 1.387 . S
C2648 C2651 1.387 1_545 S
H2649 C2645 0.950 . S
H2650 C2647 0.950 . S
C2651 C2642 1.390 1_565 S
C2651 H2644 0.950 . S
C2651 C2648 1.387 1_565 S
C2652 C2653 1.387 . S
C2652 H2656 0.950 . S
C2652 C2661 1.390 . S
C2653 C2652 1.387 . S
C2653 C2655 1.387 . S
H2654 C2661 0.950 . S
C2655 C2653 1.387 . S
C2655 C2657 1.390 . S
C2655 H2659 0.950 . S
H2656 C2652 0.950 . S
C2657 C2655 1.390 . S
C2657 C2658 1.387 . S
C2657 H2660 0.950 1_455 S
C2658 C2657 1.387 . S
C2658 C2661 1.387 . S
H2659 C2655 0.950 . S
H2660 C2657 0.950 1_655 S
C2661 C2652 1.390 . S
C2661 H2654 0.950 . S
C2661 C2658 1.387 . S
C2662 C2663 1.387 . S
C2662 H2666 0.950 . S
C2662 C2671 1.390 . S
C2663 C2662 1.387 . S
C2663 C2665 1.387 . S
H2664 C2671 0.950 . S
C2665 C2663 1.387 . S
C2665 C2667 1.390 1_545 S
C2665 H2669 0.950 1_545 S
H2666 C2662 0.950 . S
C2667 C2665 1.390 1_565 S
C2667 C2668 1.387 1_565 S
C2667 H2670 0.950 . S
C2668 C2667 1.387 1_545 S
C2668 C2671 1.387 . S
H2669 C2665 0.950 1_565 S
H2670 C2667 0.950 . S
C2671 C2662 1.390 . S
C2671 H2664 0.950 . S
C2671 C2668 1.387 . S
C2672 C2673 1.387 . S
C2672 H2676 0.950 . S
C2672 C2681 1.390 . S
C2673 C2672 1.387 . S
C2673 C2675 1.387 . S
H2674 C2681 0.950 . S
C2675 C2673 1.387 . S
C2675 C2677 1.390 1_554 S
C2675 H2679 0.950 1_554 S
H2676 C2672 0.950 . S
C2677 C2675 1.390 1_556 S
C2677 C2678 1.387 1_556 S
C2677 H2680 0.950 . S
C2678 C2677 1.387 1_554 S
C2678 C2681 1.387 . S
H2679 C2675 0.950 1_556 S
H2680 C2677 0.950 . S
C2681 C2672 1.390 . S
C2681 H2674 0.950 . S
C2681 C2678 1.387 . S
C2682 C2683 1.387 . S
C2682 H2686 0.950 . S
C2682 C2691 1.390 . S
C2683 C2682 1.387 . S
C2683 C2685 1.387 . S
H2684 C2691 0.950 . S
C2685 C2683 1.387 . S
C2685 C2687 1.390 . S
C2685 H2689 0.950 . S
H2686 C2682 0.950 . S
C2687 C2685 1.390 . S
C2687 C2688 1.387 . S
C2687 H2690 0.950 . S
C2688 C2687 1.387 . S
C2688 C2691 1.387 . S
H2689 C2685 0.950 . S
H2690 C2687 0.950 . S
C2691 C2682 1.390 . S
C2691 H2684 0.950 . S
C2691 C2688 1.387 . S
C2692 C2693 1.387 . S
C2692 H2696 0.950 . S
C2692 C2701 1.390 . S
C2693 C2692 1.387 . S
C2693 C2695 1.386 1_554 S
H2694 C2701 0.950 . S
C2695 C2693 1.386 1_556 S
C2695 C2697 1.389 1_556 S
C2695 H2699 0.952 . S
H2696 C2692 0.950 . S
C2697 C2695 1.389 1_554 S
C2697 C2698 1.387 . S
C2697 H2700 0.950 1_554 S
C2698 C2697 1.387 . S
C2698 C2701 1.387 . S
H2699 C2695 0.952 . S
H2700 C2697 0.950 1_556 S
C2701 C2692 1.390 . S
C2701 H2694 0.950 . S
C2701 C2698 1.387 . S
C2702 C2703 1.387 . S
C2702 H2706 0.950 . S
C2702 C2711 1.390 . S
C2703 C2702 1.387 . S
C2703 C2705 1.387 1_554 S
H2704 C2711 0.950 . S
C2705 C2703 1.387 1_556 S
C2705 C2707 1.390 1_556 S
C2705 H2709 0.950 . S
H2706 C2702 0.950 . S
C2707 C2705 1.390 1_554 S
C2707 C2708 1.387 . S
C2707 H2710 0.950 1_554 S
C2708 C2707 1.387 . S
C2708 C2711 1.387 . S
H2709 C2705 0.950 . S
H2710 C2707 0.950 1_556 S
C2711 C2702 1.390 . S
C2711 H2704 0.950 . S
C2711 C2708 1.387 . S
C2712 C2713 1.387 . S
C2712 H2716 0.950 . S
C2712 C2721 1.390 . S
C2713 C2712 1.387 . S
C2713 C2715 1.387 . S
H2714 C2721 0.950 . S
C2715 C2713 1.387 . S
C2715 C2717 1.390 . S
C2715 H2719 0.950 . S
H2716 C2712 0.950 . S
C2717 C2715 1.390 . S
C2717 C2718 1.387 . S
C2717 H2720 0.950 . S
C2718 C2717 1.387 . S
C2718 C2721 1.387 . S
H2719 C2715 0.950 . S
H2720 C2717 0.950 . S
C2721 C2712 1.390 . S
C2721 H2714 0.950 . S
C2721 C2718 1.387 . S
C2722 C2723 1.387 . S
C2722 H2726 0.950 . S
C2722 C2731 1.390 . S
C2723 C2722 1.387 . S
C2723 C2725 1.387 . S
H2724 C2731 0.950 . S
C2725 C2723 1.387 . S
C2725 C2727 1.390 . S
C2725 H2729 0.950 . S
H2726 C2722 0.950 . S
C2727 C2725 1.390 . S
C2727 C2728 1.387 . S
C2727 H2730 0.950 . S
C2728 C2727 1.387 . S
C2728 C2731 1.387 . S
H2729 C2725 0.950 . S
H2730 C2727 0.950 . S
C2731 C2722 1.390 . S
C2731 H2724 0.950 . S
C2731 C2728 1.387 . S
C2732 C2733 1.387 . S
C2732 H2736 0.950 . S
C2732 C2741 1.390 . S
C2733 C2732 1.387 . S
C2733 C2735 1.387 . S
H2734 C2741 0.950 . S
C2735 C2733 1.387 . S
C2735 C2737 1.390 . S
C2735 H2739 0.950 . S
H2736 C2732 0.950 . S
C2737 C2735 1.390 . S
C2737 C2738 1.387 . S
C2737 H2740 0.950 . S
C2738 C2737 1.387 . S
C2738 C2741 1.387 . S
H2739 C2735 0.950 . S
H2740 C2737 0.950 . S
C2741 C2732 1.390 . S
C2741 H2734 0.950 . S
C2741 C2738 1.387 . S
C2742 C2743 1.387 . S
C2742 H2746 0.950 . S
C2742 C2751 1.390 . S
C2743 C2742 1.387 . S
C2743 C2745 1.387 . S
H2744 C2751 0.950 . S
C2745 C2743 1.387 . S
C2745 C2747 1.390 . S
C2745 H2749 0.950 . S
H2746 C2742 0.950 . S
C2747 C2745 1.390 . S
C2747 C2748 1.387 . S
C2747 H2750 0.950 . S
C2748 C2747 1.387 . S
C2748 C2751 1.387 . S
H2749 C2745 0.950 . S
H2750 C2747 0.950 . S
C2751 C2742 1.390 . S
C2751 H2744 0.950 . S
C2751 C2748 1.387 . S
C2752 C2753 1.387 . S
C2752 H2756 0.950 . S
C2752 C2761 1.390 . S
C2753 C2752 1.387 . S
C2753 C2755 1.387 . S
H2754 C2761 0.950 . S
C2755 C2753 1.387 . S
C2755 C2757 1.390 . S
C2755 H2759 0.950 . S
H2756 C2752 0.950 . S
C2757 C2755 1.390 . S
C2757 C2758 1.387 . S
C2757 H2760 0.950 . S
C2758 C2757 1.387 . S
C2758 C2761 1.387 . S
H2759 C2755 0.950 . S
H2760 C2757 0.950 . S
C2761 C2752 1.390 . S
C2761 H2754 0.950 . S
C2761 C2758 1.387 . S
C2762 C2763 1.387 . S
C2762 H2766 0.950 . S
C2762 C2771 1.390 . S
C2763 C2762 1.387 . S
C2763 C2765 1.387 . S
H2764 C2771 0.950 . S
C2765 C2763 1.387 . S
C2765 C2767 1.390 . S
C2765 H2769 0.950 . S
H2766 C2762 0.950 . S
C2767 C2765 1.390 . S
C2767 C2768 1.387 . S
C2767 H2770 0.950 . S
C2768 C2767 1.387 . S
C2768 C2771 1.387 . S
H2769 C2765 0.950 . S
H2770 C2767 0.950 . S
C2771 C2762 1.390 . S
C2771 H2764 0.950 . S
C2771 C2768 1.387 . S
C2772 C2773 1.387 . S
C2772 H2776 0.950 . S
C2772 C2781 1.390 . S
C2773 C2772 1.387 . S
C2773 C2775 1.387 . S
H2774 C2781 0.950 . S
C2775 C2773 1.387 . S
C2775 C2777 1.390 . S
C2775 H2779 0.950 . S
H2776 C2772 0.950 . S
C2777 C2775 1.390 . S
C2777 C2778 1.387 . S
C2777 H2780 0.950 . S
C2778 C2777 1.387 . S
C2778 C2781 1.387 . S
H2779 C2775 0.950 . S
H2780 C2777 0.950 . S
C2781 C2772 1.390 . S
C2781 H2774 0.950 . S
C2781 C2778 1.387 . S
C2782 C2783 1.387 . S
C2782 H2786 0.950 . S
C2782 C2791 1.390 . S
C2783 C2782 1.387 . S
C2783 C2785 1.387 . S
H2784 C2791 0.950 . S
C2785 C2783 1.387 . S
C2785 C2787 1.390 . S
C2785 H2789 0.950 . S
H2786 C2782 0.950 . S
C2787 C2785 1.390 . S
C2787 C2788 1.387 . S
C2787 H2790 0.950 . S
C2788 C2787 1.387 . S
C2788 C2791 1.387 . S
H2789 C2785 0.950 . S
H2790 C2787 0.950 . S
C2791 C2782 1.390 . S
C2791 H2784 0.950 . S
C2791 C2788 1.387 . S
C2792 C2793 1.387 . S
C2792 H2796 0.950 . S
C2792 C2801 1.390 . S
C2793 C2792 1.387 . S
C2793 C2795 1.387 . S
H2794 C2801 0.950 . S
C2795 C2793 1.387 . S
C2795 C2797 1.390 . S
C2795 H2799 0.950 . S
H2796 C2792 0.950 . S
C2797 C2795 1.390 . S
C2797 C2798 1.387 . S
C2797 H2800 0.950 . S
C2798 C2797 1.387 . S
C2798 C2801 1.387 . S
H2799 C2795 0.950 . S
H2800 C2797 0.950 . S
C2801 C2792 1.390 . S
C2801 H2794 0.950 . S
C2801 C2798 1.387 . S
C2802 C2803 1.387 . S
C2802 H2806 0.950 . S
C2802 C2811 1.390 . S
C2803 C2802 1.387 . S
C2803 C2805 1.387 . S
H2804 C2811 0.950 . S
C2805 C2803 1.387 . S
C2805 C2807 1.390 . S
C2805 H2809 0.950 . S
H2806 C2802 0.950 . S
C2807 C2805 1.390 . S
C2807 C2808 1.387 . S
C2807 H2810 0.950 . S
C2808 C2807 1.387 . S
C2808 C2811 1.387 . S
H2809 C2805 0.950 . S
H2810 C2807 0.950 . S
C2811 C2802 1.390 . S
C2811 H2804 0.950 . S
C2811 C2808 1.387 . S
C2812 C2813 1.387 . S
C2812 H2816 0.950 . S
C2812 C2821 1.390 . S
C2813 C2812 1.387 . S
C2813 C2815 1.387 . S
H2814 C2821 0.950 . S
C2815 C2813 1.387 . S
C2815 C2817 1.390 . S
C2815 H2819 0.950 . S
H2816 C2812 0.950 . S
C2817 C2815 1.390 . S
C2817 C2818 1.387 . S
C2817 H2820 0.950 . S
C2818 C2817 1.387 . S
C2818 C2821 1.387 . S
H2819 C2815 0.950 . S
H2820 C2817 0.950 . S
C2821 C2812 1.390 . S
C2821 H2814 0.950 . S
C2821 C2818 1.387 . S
C2822 C2823 1.387 . S
C2822 H2826 0.950 . S
C2822 C2831 1.390 . S
C2823 C2822 1.387 . S
C2823 C2825 1.387 . S
H2824 C2831 0.950 . S
C2825 C2823 1.387 . S
C2825 C2827 1.390 . S
C2825 H2829 0.950 . S
H2826 C2822 0.950 . S
C2827 C2825 1.390 . S
C2827 C2828 1.387 . S
C2827 H2830 0.950 . S
C2828 C2827 1.387 . S
C2828 C2831 1.387 . S
H2829 C2825 0.950 . S
H2830 C2827 0.950 . S
C2831 C2822 1.390 . S
C2831 H2824 0.950 . S
C2831 C2828 1.387 . S
C1633 C1501 1.288 . S
C1638 C5 1.290 . S
C1643 C1399 1.290 . S
C1648 C39 1.288 . S
C1653 C1433 1.291 . S
C1658 C73 1.289 . S
C1663 C107 1.287 . S
C1668 C1467 1.289 . S
C1673 C141 1.291 . S
C1678 C1603 1.288 . S
C1683 C175 1.289 . S
C1688 C1535 1.291 . S
C1693 C209 1.289 . S
C1698 C1569 1.291 . S
C1703 C1365 1.290 . S
C1708 C243 1.292 . S
C1713 C1331 1.291 . S
C1718 C277 1.288 . S
C1723 C311 1.288 . S
C1728 C1229 1.290 . S
C1733 C345 1.289 . S
C1738 C1263 1.291 . S
C1743 C1297 1.290 . S
C1748 C379 1.288 . S
C1753 C413 1.288 . S
C1758 C1127 1.291 . S
C1763 C447 1.289 . S
C1768 C1161 1.291 . S
C1773 C1195 1.288 . S
C1778 C481 1.291 . S
C1783 C515 1.288 . S
C1788 C1093 1.290 . S
C1793 C549 1.292 . S
C1798 C1059 1.290 . S
C1803 C855 1.291 . S
C1808 C583 1.288 . S
C1813 C889 1.291 . S
C1818 C617 1.288 . S
C1823 C651 1.291 . S
C1828 C923 1.289 . S
C1833 C821 1.291 . S
C1838 C685 1.288 . S
C1843 C719 1.288 . S
C1848 C991 1.287 . S
C1853 C1025 1.289 . S
C1858 C753 1.291 . S
C1863 C787 1.289 . S
C1868 C957 1.292 . S
C1873 C138 2.307 . S
C1878 C1430 2.307 . S
C1883 C1464 2.307 . S
C1888 C172 2.307 . S
C1893 C206 2.306 . S
C1898 C1498 2.307 . S
C1903 C1396 2.307 . S
C1908 C240 2.307 . S
C1913 C1566 2.307 . S
C1918 C2 2.307 . S
C1923 C36 2.307 . S
C1928 C1362 2.306 . S
C1933 C1600 2.307 . S
C1938 C70 2.306 . S
C1943 C1532 2.307 . S
C1948 C104 2.307 . S
C1953 C1124 2.307 . S
C1958 C478 2.307 . S
C1963 C512 2.306 . S
C1968 C1158 2.307 . S
C1973 C1192 2.306 . S
C1978 C410 2.307 . S
C1983 C444 2.307 . S
C1988 C1090 2.307 . S
C1993 C1328 2.306 . S
C1998 C342 2.307 . S
C2003 C1226 2.307 . S
C2008 C376 2.307 . S
C2013 C1260 2.307 . S
C2018 C274 2.307 . S
C2023 C1294 2.307 . S
C2028 C308 2.307 . S
C2033 C920 2.307 . S
C2038 C716 2.307 . S
C2043 C648 2.307 . S
C2048 C988 2.307 . S
C2053 C682 2.307 . S
C2058 C1022 2.307 . S
C2063 C1056 2.307 . S
C2068 C580 2.307 . S
C2073 C614 2.307 . S
C2078 C954 2.306 . S
C2083 C852 2.307 . S
C2088 C546 2.307 . S
C2093 C784 2.307 . S
C2098 C886 2.306 . S
C2103 C818 2.307 . S
C2108 C750 2.306 . S
C2113 C111 1.659 . S
C2118 C20 1.643 . S
C2123 C9 1.658 . S
C2128 C54 1.641 . S
C2133 C88 1.641 . S
C2138 C43 1.658 . S
C2143 C122 1.641 . S
C2148 C77 1.659 . S
C2153 C179 1.659 . S
C2158 C156 1.643 . S
C2163 C190 1.643 . S
C2168 C213 1.659 . S
C2173 C224 1.642 . S
C2178 C247 1.659 . S
C2183 C145 1.659 . S
C2188 C258 1.643 . S
C2193 C621 1.659 . S
C2198 C292 1.642 . S
C2203 C655 1.659 . S
C2208 C326 1.643 . S
C2213 C689 1.659 . S
C2218 C360 1.642 . S
C2223 C394 1.643 . S
C2228 C587 1.659 . S
C2233 C757 1.659 . S
C2238 C428 1.643 . S
C2243 C462 1.642 . S
C2248 C553 1.659 . S
C2253 C496 1.641 . S
C2258 C791 1.658 . S
C2263 C723 1.659 . S
C2268 C530 1.643 . S
C2273 C564 1.643 . S
C2278 C315 1.659 . S
C2283 C519 1.658 . S
C2288 C598 1.641 . S
C2293 C632 1.641 . S
C2298 C417 1.658 . S
C2303 C451 1.659 . S
C2308 C666 1.643 . S
C2313 C700 1.641 . S
C2318 C485 1.658 . S
C2323 C383 1.659 . S
C2328 C734 1.641 . S
C2333 C281 1.659 . S
C2338 C768 1.643 . S
C2343 C802 1.641 . S
C2348 C349 1.658 . S
C2353 C836 1.643 . S
C2358 C927 1.659 . S
C2363 C870 1.641 . S
C2368 C825 1.659 . S
C2373 C859 1.658 . S
C2378 C904 1.642 . S
C2383 C893 1.659 . S
C2388 C938 1.643 . S
C2393 C972 1.641 . S
C2398 C995 1.658 . S
C2403 C1006 1.641 . S
C2408 C1029 1.658 . S
C2413 C1040 1.641 . S
C2418 C1063 1.658 . S
C2423 C961 1.658 . S
C2428 C1074 1.641 . S
C2433 C1437 1.658 . S
C2438 C1108 1.641 . S
C2443 C1471 1.659 . S
C2448 C1142 1.642 . S
C2453 C1176 1.641 . S
C2458 C1505 1.659 . S
C2463 C1403 1.659 . S
C2468 C1210 1.643 . S
C2473 C1244 1.641 . S
C2478 C1573 1.658 . S
C2483 C1369 1.659 . S
C2488 C1278 1.643 . S
C2493 C1607 1.659 . S
C2498 C1312 1.643 . S
C2503 C1346 1.642 . S
C2508 C1539 1.659 . S
C2513 C1131 1.658 . S
C2518 C1380 1.641 . S
C2523 C1414 1.641 . S
C2528 C1335 1.658 . S
C2533 C1448 1.642 . S
C2538 C1233 1.659 . S
C2543 C1482 1.643 . S
C2548 C1267 1.659 . S
C2553 C1516 1.642 . S
C2558 C1301 1.659 . S
C2563 C1550 1.641 . S
C2568 C1199 1.658 . S
C2573 C1097 1.658 . S
C2578 C1584 1.642 . S
C2583 C1165 1.658 . S
C2588 C1618 1.641 . S
C2593 C33 1.602 . S
C2598 C339 1.602 . S
C2603 C373 1.603 . S
C2608 C67 1.603 . S
C2613 C407 1.602 . S
C2618 C101 1.602 . S
C2623 C305 1.603 . S
C2628 C135 1.603 . S
C2633 C169 1.603 . S
C2638 C543 1.602 . S
C2643 C441 1.602 . S
C2648 C203 1.603 . S
C2653 C237 1.603 . S
C2658 C475 1.603 . S
C2663 C271 1.603 . S
C2668 C509 1.602 . S
C2673 C645 1.603 . S
C2678 C577 1.602 . S
C2683 C781 1.602 . S
C2688 C611 1.602 . S
C2693 C815 1.602 . S
C2698 C679 1.602 . S
C2703 C747 1.603 . S
C2708 C713 1.603 . S
C2713 C849 1.602 . S
C2718 C1155 1.602 . S
C2723 C883 1.603 . S
C2728 C1189 1.603 . S
C2733 C1223 1.603 . S
C2738 C917 1.603 . S
C2743 C1121 1.603 . S
C2748 C951 1.602 . S
C2753 C1359 1.602 . S
C2758 C985 1.602 . S
C2763 C1019 1.603 . S
C2768 C1257 1.603 . S
C2773 C1053 1.603 . S
C2778 C1291 1.603 . S
C2783 C1087 1.603 . S
C2788 C1325 1.602 . S
C2793 C1393 1.603 . S
C2798 C1461 1.603 . S
C2803 C1427 1.602 . S
C2808 C1597 1.602 . S
C2813 C1495 1.602 . S
C2818 C1631 1.603 . S
C2823 C1529 1.602 . S
C2828 C1563 1.603 . S
