# Generated by pormake.
# Topology neb, (4)-cn, num edge types: 1
# Building blocks:
#     Node 0, Type 0, BuildingBlock: TATPOV_clean_sbu_0, # of connection points: 4
#     Node 1, Type 0, BuildingBlock: TATPOV_clean_sbu_0, # of connection points: 4
#     Node 2, Type 0, BuildingBlock: TATPOV_clean_sbu_0, # of connection points: 4
#     Node 3, Type 0, BuildingBlock: TATPOV_clean_sbu_0, # of connection points: 4
#     Node 4, Type 0, BuildingBlock: TATPOV_clean_sbu_0, # of connection points: 4
#     Node 5, Type 0, BuildingBlock: TATPOV_clean_sbu_0, # of connection points: 4
#     Node 6, Type 0, BuildingBlock: TATPOV_clean_sbu_0, # of connection points: 4
#     Node 7, Type 0, BuildingBlock: TATPOV_clean_sbu_0, # of connection points: 4
#     Node 8, Type 0, BuildingBlock: TATPOV_clean_sbu_0, # of connection points: 4
#     Node 9, Type 0, BuildingBlock: TATPOV_clean_sbu_0, # of connection points: 4
#     Node 10, Type 0, BuildingBlock: TATPOV_clean_sbu_0, # of connection points: 4
#     Node 11, Type 0, BuildingBlock: TATPOV_clean_sbu_0, # of connection points: 4
#     Node 12, Type 0, BuildingBlock: TATPOV_clean_sbu_0, # of connection points: 4
#     Node 13, Type 0, BuildingBlock: TATPOV_clean_sbu_0, # of connection points: 4
#     Node 14, Type 0, BuildingBlock: TATPOV_clean_sbu_0, # of connection points: 4
#     Node 15, Type 0, BuildingBlock: TATPOV_clean_sbu_0, # of connection points: 4
#     Edge 16, Type (0, 0), BuildingBlock: CIFDUS_clean_linker_0, # of connection points: 2
#     Edge 17, Type (0, 0), BuildingBlock: CIFDUS_clean_linker_0, # of connection points: 2
#     Edge 18, Type (0, 0), BuildingBlock: CIFDUS_clean_linker_0, # of connection points: 2
#     Edge 19, Type (0, 0), BuildingBlock: CIFDUS_clean_linker_0, # of connection points: 2
#     Edge 20, Type (0, 0), BuildingBlock: CIFDUS_clean_linker_0, # of connection points: 2
#     Edge 21, Type (0, 0), BuildingBlock: CIFDUS_clean_linker_0, # of connection points: 2
#     Edge 22, Type (0, 0), BuildingBlock: CIFDUS_clean_linker_0, # of connection points: 2
#     Edge 23, Type (0, 0), BuildingBlock: CIFDUS_clean_linker_0, # of connection points: 2
#     Edge 24, Type (0, 0), BuildingBlock: CIFDUS_clean_linker_0, # of connection points: 2
#     Edge 25, Type (0, 0), BuildingBlock: CIFDUS_clean_linker_0, # of connection points: 2
#     Edge 26, Type (0, 0), BuildingBlock: CIFDUS_clean_linker_0, # of connection points: 2
#     Edge 27, Type (0, 0), BuildingBlock: CIFDUS_clean_linker_0, # of connection points: 2
#     Edge 28, Type (0, 0), BuildingBlock: CIFDUS_clean_linker_0, # of connection points: 2
#     Edge 29, Type (0, 0), BuildingBlock: CIFDUS_clean_linker_0, # of connection points: 2
#     Edge 30, Type (0, 0), BuildingBlock: CIFDUS_clean_linker_0, # of connection points: 2
#     Edge 31, Type (0, 0), BuildingBlock: CIFDUS_clean_linker_0, # of connection points: 2
#     Edge 32, Type (0, 0), BuildingBlock: CIFDUS_clean_linker_0, # of connection points: 2
#     Edge 33, Type (0, 0), BuildingBlock: CIFDUS_clean_linker_0, # of connection points: 2
#     Edge 34, Type (0, 0), BuildingBlock: CIFDUS_clean_linker_0, # of connection points: 2
#     Edge 35, Type (0, 0), BuildingBlock: CIFDUS_clean_linker_0, # of connection points: 2
#     Edge 36, Type (0, 0), BuildingBlock: CIFDUS_clean_linker_0, # of connection points: 2
#     Edge 37, Type (0, 0), BuildingBlock: CIFDUS_clean_linker_0, # of connection points: 2
#     Edge 38, Type (0, 0), BuildingBlock: CIFDUS_clean_linker_0, # of connection points: 2
#     Edge 39, Type (0, 0), BuildingBlock: CIFDUS_clean_linker_0, # of connection points: 2
#     Edge 40, Type (0, 0), BuildingBlock: CIFDUS_clean_linker_0, # of connection points: 2
#     Edge 41, Type (0, 0), BuildingBlock: CIFDUS_clean_linker_0, # of connection points: 2
#     Edge 42, Type (0, 0), BuildingBlock: CIFDUS_clean_linker_0, # of connection points: 2
#     Edge 43, Type (0, 0), BuildingBlock: CIFDUS_clean_linker_0, # of connection points: 2
#     Edge 44, Type (0, 0), BuildingBlock: CIFDUS_clean_linker_0, # of connection points: 2
#     Edge 45, Type (0, 0), BuildingBlock: CIFDUS_clean_linker_0, # of connection points: 2
#     Edge 46, Type (0, 0), BuildingBlock: CIFDUS_clean_linker_0, # of connection points: 2
#     Edge 47, Type (0, 0), BuildingBlock: CIFDUS_clean_linker_0, # of connection points: 2
# Relax obj value: 0.059
# Max RMSD: 0.117
# Mean RMSD: 0.117
data_MOF--net-neb--node1-TATPOV_clean_sbu_0--edge1-CIFDUS_clean_linker_0
_symmetry_space_group_name_H-M    P1
_symmetry_Int_Tables_number       1
_symmetry_cell_setting            triclinic
loop_
_symmetry_equiv_pos_as_xyz
'x, y, z'
_cell_length_a     39.176421
_cell_length_b     19.518124
_cell_length_c     61.263867
_cell_angle_alpha  90.439673
_cell_angle_beta   93.809466
_cell_angle_gamma 89.821448
loop_
_atom_site_label
_atom_site_type_symbol
_atom_site_fract_x
_atom_site_fract_y
_atom_site_fract_z
_atom_type_partial_charge
Zn0 Zn 0.21995 0.01896 0.42645 0.0
Zn1 Zn 0.16575 0.01247 0.45159 0.0
O2 O 0.20197 0.07046 0.46992 0.0
O3 O 0.24677 0.07148 0.44994 0.0
O4 O 0.12535 0.00024 0.47069 0.0
O5 O 0.22335 0.91701 0.42424 0.0
O6 O 0.17713 0.91313 0.4427 0.0
C7 C 0.23258 0.08924 0.46706 0.0
C8 C 0.15809 0.08308 0.40736 0.0
O9 O 0.14561 0.06516 0.42512 0.0
O10 O 0.18899 0.06945 0.40405 0.0
C11 C 0.10295 0.04687 0.47275 0.0
O12 O 0.10679 0.10596 0.46308 0.0
C13 C 0.19983 0.88273 0.43214 0.0
Zn14 Zn 0.09606 0.02557 0.82918 0.0
Zn15 Zn 0.14816 0.0279 0.80377 0.0
O16 O 0.10899 0.08255 0.78657 0.0
O17 O 0.06569 0.07664 0.80769 0.0
O18 O 0.18788 0.02186 0.78367 0.0
O19 O 0.09444 0.92431 0.83067 0.0
O20 O 0.14065 0.92623 0.81221 0.0
C21 C 0.0781 0.09742 0.79041 0.0
C22 C 0.15525 0.09664 0.84858 0.0
O23 O 0.16777 0.08297 0.83035 0.0
O24 O 0.12532 0.07707 0.85208 0.0
C25 C 0.21521 -0.00818 0.79095 0.0
O26 O 0.21646 0.96695 0.81086 0.0
C27 C 0.11896 0.89295 0.82261 0.0
Zn28 Zn 0.83212 0.96402 0.58895 0.0
Zn29 Zn 0.88408 0.96166 0.56233 0.0
O30 O 0.84549 0.9047 0.54561 0.0
O31 O 0.80248 0.91126 0.56702 0.0
O32 O 0.92346 0.96897 0.54217 0.0
O33 O 0.83094 0.06602 0.5902 0.0
O34 O 0.87551 0.06318 0.57021 0.0
C35 C 0.81483 0.88954 0.54969 0.0
C36 C 0.89309 0.89621 0.60738 0.0
O37 O 0.90475 0.91029 0.58902 0.0
O38 O 0.86291 0.91363 0.61132 0.0
C39 C 0.94603 0.92245 0.54047 0.0
O40 O 0.94303 0.86489 0.55115 0.0
C41 C 0.85444 0.09702 0.58114 0.0
Zn42 Zn 0.97779 0.96357 0.18092 0.0
Zn43 Zn 0.91834 0.95312 0.19996 0.0
O44 O 0.95336 0.89896 0.22016 0.0
O45 O 1.0026 0.91276 0.20537 0.0
O46 O 0.87462 0.95871 0.21625 0.0
O47 O 0.97667 0.0657 0.18 0.0
O48 O 0.92649 0.05522 0.19363 0.0
C49 C 0.98549 0.88762 0.22016 0.0
C50 C 0.92431 0.88897 0.15517 0.0
O51 O 0.90622 0.90027 0.1714 0.0
O52 O 0.95483 0.91059 0.15554 0.0
C53 C 0.86374 0.91338 0.22889 0.0
O54 O 0.88107 0.85604 0.23173 0.0
C55 C 0.9494 0.09268 0.18596 0.0
Zn56 Zn 0.22251 0.53087 0.92687 0.0
Zn57 Zn 0.16434 0.52393 0.94815 0.0
O58 O 0.1979 0.57828 0.96913 0.0
O59 O 0.24534 0.58437 0.95186 0.0
O60 O 0.12197 0.51136 0.9652 0.0
O61 O 0.22574 0.42856 0.92454 0.0
O62 O 0.1765 0.42499 0.93978 0.0
C63 C 0.22862 0.59915 0.96825 0.0
C64 C 0.16381 0.59645 0.90425 0.0
O65 O 0.14828 0.57921 0.92101 0.0
O66 O 0.19509 0.58127 0.90294 0.0
C67 C 0.10526 0.56115 0.97279 0.0
O68 O 0.11554 0.62403 0.9695 0.0
C69 C 0.20074 0.39452 0.93071 0.0
Zn70 Zn 0.06222 0.50758 0.33787 0.0
Zn71 Zn 0.12128 0.52298 0.31773 0.0
O72 O 0.08454 0.57629 0.29886 0.0
O73 O 0.03578 0.55851 0.31386 0.0
O74 O 0.16404 0.52604 0.30053 0.0
O75 O 0.06684 0.40523 0.33783 0.0
O76 O 0.11568 0.41987 0.32281 0.0
C77 C 0.05233 0.58595 0.29919 0.0
C78 C 0.11586 0.5832 0.36318 0.0
O79 O 0.13342 0.5728 0.34666 0.0
O80 O 0.08542 0.56127 0.36316 0.0
C81 C 0.19101 0.49495 0.30784 0.0
O82 O 0.19086 0.46411 0.32683 0.0
C83 C 0.09399 0.38047 0.33088 0.0
Zn84 Zn 0.83211 0.4477 0.08569 0.0
Zn85 Zn 0.88864 0.46405 0.06353 0.0
O86 O 0.85604 0.40599 0.04295 0.0
O87 O 0.81001 0.39125 0.06111 0.0
O88 O 0.92969 0.48219 0.04573 0.0
O89 O 0.8249 0.54916 0.08852 0.0
O90 O 0.87391 0.56028 0.07338 0.0
C91 C 0.82643 0.37993 0.04434 0.0
C92 C 0.89406 0.38923 0.10688 0.0
O93 O 0.90797 0.40896 0.08979 0.0
O94 O 0.86258 0.40062 0.10901 0.0
C95 C 0.94672 0.4329 0.03811 0.0
O96 O 0.93726 0.36976 0.04184 0.0
C97 C 0.84893 0.58684 0.08282 0.0
Zn98 Zn 0.97337 0.46596 0.67725 0.0
Zn99 Zn 0.92193 0.46499 0.70426 0.0
O100 O 0.96098 0.40861 0.72064 0.0
O101 O 1.00355 0.41411 0.69889 0.0
O102 O 0.88314 0.47392 0.72493 0.0
O103 O 0.97448 0.56781 0.67609 0.0
O104 O 0.93025 0.56607 0.69636 0.0
C105 C 0.99159 0.39322 0.71631 0.0
C106 C 0.91231 0.39743 0.65919 0.0
O107 O 0.90088 0.41238 0.67765 0.0
O108 O 0.94236 0.4147 0.65508 0.0
C109 C 0.85959 0.42943 0.72598 0.0
O110 O 0.86115 0.37304 0.71423 0.0
C111 C 0.95112 0.59933 0.68535 0.0
Zn112 Zn 0.72684 0.02599 0.92703 0.0
Zn113 Zn 0.6706 0.00861 0.94944 0.0
O114 O 0.70311 0.06701 0.96995 0.0
O115 O 0.74888 0.08257 0.95162 0.0
O116 O 0.62977 -0.01046 0.96733 0.0
O117 O 0.73441 0.92465 0.92414 0.0
O118 O 0.68569 0.91268 0.93957 0.0
C119 C 0.7326 0.09351 0.96847 0.0
C120 C 0.66447 0.08364 0.90612 0.0
O121 O 0.65082 0.06357 0.92326 0.0
O122 O 0.69596 0.07275 0.90386 0.0
C123 C 0.6136 0.03817 0.97602 0.0
O124 O 0.6238 0.10146 0.97335 0.0
C125 C 0.71066 0.88655 0.93001 0.0
Zn126 Zn 0.58683 0.01747 0.33943 0.0
Zn127 Zn 0.64358 0.01061 0.31718 0.0
O128 O 0.60915 0.0665 0.29711 0.0
O129 O 0.56285 0.07242 0.31556 0.0
O130 O 0.68553 -0.00356 0.29956 0.0
O131 O 0.58269 0.91563 0.34115 0.0
O132 O 0.63155 0.91175 0.32546 0.0
C133 C 0.57862 0.08793 0.29893 0.0
C134 C 0.64591 0.08261 0.3616 0.0
O135 O 0.66072 0.06598 0.34439 0.0
O136 O 0.61489 0.06677 0.36342 0.0
C137 C 0.69714 0.04177 0.28721 0.0
O138 O 0.68167 0.10153 0.28564 0.0
C139 C 0.60755 0.88139 0.33462 0.0
Zn140 Zn 0.33963 0.93258 0.08799 0.0
Zn141 Zn 0.39732 0.94067 0.06651 0.0
O142 O 0.36374 0.88616 0.04557 0.0
O143 O 0.3167 0.87852 0.06317 0.0
O144 O 0.43935 0.95453 0.04927 0.0
O145 O 0.33549 0.03467 0.09031 0.0
O146 O 0.38476 0.03932 0.07515 0.0
C147 C 0.33319 0.86449 0.04662 0.0
C148 C 0.39886 0.86743 0.11024 0.0
O149 O 0.41408 0.88459 0.09334 0.0
O150 O 0.36767 0.88287 0.1118 0.0
C151 C 0.45501 0.90549 0.04042 0.0
O152 O 0.44381 0.84264 0.04249 0.0
C153 C 0.36033 0.06928 0.08419 0.0
Zn154 Zn 0.49179 0.95838 0.67573 0.0
Zn155 Zn 0.43295 0.94988 0.69604 0.0
O156 O 0.46959 0.89799 0.71584 0.0
O157 O 0.5183 0.91181 0.7004 0.0
O158 O 0.39002 0.95177 0.71343 0.0
O159 O 0.48906 0.06039 0.67364 0.0
O160 O 0.43973 0.05167 0.68854 0.0
C161 C 0.50178 0.88743 0.71558 0.0
C162 C 0.43773 0.88033 0.65187 0.0
O163 O 0.42018 0.89498 0.6681 0.0
O164 O 0.46838 0.90071 0.65151 0.0
C165 C 0.36295 0.98214 0.70589 0.0
O166 O 0.36282 0.01048 0.68649 0.0
C167 C 0.46208 0.08806 0.67981 0.0
Zn168 Zn 0.71306 0.5167 0.436 0.0
Zn169 Zn 0.66073 0.52011 0.46127 0.0
O170 O 0.69965 0.57576 0.47848 0.0
O171 O 0.74315 0.56906 0.45752 0.0
O172 O 0.62117 0.51515 0.48151 0.0
O173 O 0.71494 0.41529 0.43459 0.0
O174 O 0.66855 0.41801 0.45289 0.0
C175 C 0.73051 0.59066 0.47474 0.0
C176 C 0.65368 0.58662 0.41642 0.0
O177 O 0.64108 0.57386 0.43461 0.0
O178 O 0.68372 0.56696 0.41301 0.0
C179 C 0.59189 0.49525 0.47363 0.0
O180 O 0.58813 0.47934 0.45273 0.0
C181 C 0.69046 0.38427 0.44258 0.0
Zn182 Zn 0.58007 0.51002 0.83341 0.0
Zn183 Zn 0.63882 0.52063 0.81363 0.0
O184 O 0.60321 0.57612 0.79412 0.0
O185 O 0.55447 0.56176 0.80949 0.0
O186 O 0.68181 0.51452 0.79652 0.0
O187 O 0.5808 0.40789 0.83405 0.0
O188 O 0.63057 0.41843 0.81989 0.0
C189 C 0.57111 0.58754 0.79459 0.0
C190 C 0.63451 0.58336 0.85873 0.0
O191 O 0.65205 0.57242 0.84222 0.0
O192 O 0.60397 0.562 0.85868 0.0
C193 C 0.70608 0.55782 0.79695 0.0
O194 O 0.70389 0.61383 0.80881 0.0
C195 C 0.60784 0.3809 0.82773 0.0
Zn196 Zn 0.31453 0.45761 0.58839 0.0
Zn197 Zn 0.37293 0.44683 0.56776 0.0
O198 O 0.33585 0.39419 0.54821 0.0
O199 O 0.28758 0.40942 0.56413 0.0
O200 O 0.41603 0.44748 0.55038 0.0
O201 O 0.3171 0.55967 0.59024 0.0
O202 O 0.36638 0.54922 0.5753 0.0
C203 C 0.30371 0.38393 0.54879 0.0
C204 C 0.36853 0.38017 0.61213 0.0
O205 O 0.38584 0.39323 0.59575 0.0
O206 O 0.33799 0.40145 0.61267 0.0
C207 C 0.41342 0.45352 0.52965 0.0
O208 O 0.38274 0.45751 0.51968 0.0
C209 C 0.3441 0.58652 0.58402 0.0
Zn210 Zn 0.46036 0.43481 0.18755 0.0
Zn211 Zn 0.40458 0.44116 0.21055 0.0
O212 O 0.44014 0.38591 0.2299 0.0
O213 O 0.48576 0.37952 0.21083 0.0
O214 O 0.36378 0.45172 0.22928 0.0
O215 O 0.46404 0.53679 0.18604 0.0
O216 O 0.41547 0.54054 0.20206 0.0
C217 C 0.47056 0.36437 0.22772 0.0
C218 C 0.40047 0.36949 0.16623 0.0
O219 O 0.38637 0.38553 0.18374 0.0
O220 O 0.43128 0.3859 0.16391 0.0
C221 C 0.33735 0.48492 0.22218 0.0
O222 O 0.33681 0.51161 0.20253 0.0
C223 C 0.43922 0.57095 0.19267 0.0
H224 H 0.33136 0.29226 0.52108 0.0
H225 H 0.23481 0.36693 0.54192 0.0
H226 H 0.20443 0.2796 0.51969 0.0
H227 H 0.20508 0.18072 0.49467 0.0
H228 H 0.3014 0.10711 0.47331 0.0
H229 H 0.33195 0.19428 0.49565 0.0
C230 C 0.30365 0.28998 0.52054 0.0
C231 C 0.28546 0.33623 0.53314 0.0
C232 C 0.28625 0.23895 0.50792 0.0
C233 C 0.24953 0.33204 0.53239 0.0
C234 C 0.23208 0.28183 0.51977 0.0
C235 C 0.23278 0.1832 0.49516 0.0
C236 C 0.25094 0.13717 0.4825 0.0
C237 C 0.25018 0.23448 0.50767 0.0
C238 C 0.28681 0.14184 0.48298 0.0
C239 C 0.30432 0.1919 0.49566 0.0
H240 H 0.96429 0.04025 0.52037 0.0
H241 H 0.99682 0.8315 0.5321 0.0
H242 H 0.04812 0.85138 0.51255 0.0
H243 H 0.08427 0.92823 0.4923 0.0
H244 H 0.05176 0.13711 0.48076 0.0
H245 H 1.0003 0.1169 0.50006 0.0
C246 C 0.98249 -0.00106 0.51858 0.0
C247 C 0.97651 0.9344 0.52772 0.0
C248 C 1.01219 0.01081 0.5074 0.0
C249 C 1.0006 0.88171 0.52527 0.0
C250 C 0.03006 0.89304 0.51409 0.0
C251 C 0.066 0.96943 0.49405 0.0
C252 C 0.07208 0.03418 0.48507 0.0
C253 C 0.03623 0.95746 0.50516 0.0
C254 C 0.04793 0.08676 0.48748 0.0
C255 C 1.01836 0.07526 0.49851 0.0
H256 H 0.35508 0.93616 0.74738 0.0
H257 H 0.30137 0.04133 0.69367 0.0
H258 H 0.25116 0.05356 0.7149 0.0
H259 H 0.22228 0.03555 0.74899 0.0
H260 H 0.27631 0.93069 0.80267 0.0
H261 H 0.32617 0.91749 0.78127 0.0
C262 C 0.33238 0.9616 0.74027 0.0
C263 C 0.3322 -0.01229 0.71889 0.0
C264 C 0.30346 0.96877 0.75263 0.0
C265 C 0.30243 0.02065 0.71005 0.0
C266 C 0.27359 0.02777 0.72221 0.0
C267 C 0.24494 0.00979 0.75601 0.0
C268 C 0.24535 0.9843 0.77748 0.0
C269 C 0.2738 0.00225 0.74356 0.0
C270 C 0.27507 0.95099 0.78623 0.0
C271 C 0.30373 0.94331 0.77398 0.0
H272 H 0.10023 0.19258 0.76227 0.0
H273 H 1.00883 0.10957 0.78737 0.0
H274 H 0.97412 0.19641 0.76792 0.0
H275 H 0.96961 0.29738 0.74417 0.0
H276 H 0.06089 0.38028 0.71891 0.0
H277 H 0.09565 0.29321 0.73829 0.0
C278 C 0.07267 0.19291 0.76319 0.0
C279 C 0.05717 0.14447 0.77616 0.0
C280 C 0.05283 0.24389 0.75226 0.0
C281 C 1.02144 0.14624 0.77746 0.0
C282 C 1.00154 0.19615 0.76645 0.0
C283 C 0.99715 0.29693 0.74318 0.0
C284 C 1.01262 0.34551 0.73025 0.0
C285 C 1.01698 0.2458 0.75402 0.0
C286 C 0.04832 0.34353 0.72882 0.0
C287 C 0.06824 0.29351 0.73979 0.0
H288 H 0.83755 0.7934 0.52161 0.0
H289 H 0.74559 0.87554 0.54689 0.0
H290 H 0.71148 0.78762 0.52721 0.0
H291 H 0.70766 0.68638 0.503 0.0
H292 H 0.79971 0.60418 0.47784 0.0
H293 H 0.83377 0.69197 0.49756 0.0
C294 C 0.81 0.7926 0.52255 0.0
C295 C 0.79416 0.84121 0.53558 0.0
C296 C 0.79054 0.741 0.51152 0.0
C297 C 0.75846 0.83878 0.53692 0.0
C298 C 0.73891 0.78827 0.52577 0.0
C299 C 0.73522 0.68711 0.50211 0.0
C300 C 0.75108 0.63858 0.48906 0.0
C301 C 0.75469 0.73862 0.5132 0.0
C302 C 0.78681 0.64089 0.48781 0.0
C303 C 0.80634 0.69133 0.49898 0.0
H304 H 0.73578 0.92467 0.28695 0.0
H305 H 0.72739 0.12704 0.25911 0.0
H306 H 0.77748 0.10497 0.23849 0.0
H307 H 0.82411 0.02885 0.22847 0.0
H308 H 0.8329 0.8267 0.25641 0.0
H309 H 0.78234 0.84813 0.27674 0.0
C310 C 0.74486 0.96399 0.27637 0.0
C311 C 0.7277 0.02752 0.27467 0.0
C312 C 0.77385 0.95102 0.26451 0.0
C313 C 0.73998 0.07771 0.26083 0.0
C314 C 0.76869 0.06514 0.24898 0.0
C315 C 0.81496 -0.01068 0.23895 0.0
C316 C 0.83243 0.92618 0.24084 0.0
C317 C 0.78588 0.00205 0.25071 0.0
C318 C 0.82009 0.87577 0.25458 0.0
C319 C 0.79113 0.88799 0.26626 0.0
H320 H 0.95598 0.79092 0.24459 0.0
H321 H 0.05387 0.87431 0.23024 0.0
H322 H 0.08316 0.78604 0.25237 0.0
H323 H 0.0812 0.68397 0.27524 0.0
H324 H 0.98354 0.60031 0.28988 0.0
H325 H 0.95404 0.68907 0.26791 0.0
C326 C 0.9837 0.79033 0.24656 0.0
C327 C 1.00266 0.83929 0.23583 0.0
C328 C 1.00048 0.73863 0.25904 0.0
C329 C 0.03861 0.83726 0.23833 0.0
C330 C 0.05543 0.78657 0.2509 0.0
C331 C 0.05347 0.68461 0.27341 0.0
C332 C 0.03465 0.63527 0.28406 0.0
C333 C 0.03665 0.73649 0.2611 0.0
C334 C 0.99869 0.63755 0.28178 0.0
C335 C 0.98177 0.68852 0.26932 0.0
H336 H 0.272 0.79927 0.04649 0.0
H337 H 0.35974 0.82497 0.00823 0.0
H338 H 0.3355 0.74332 0.98107 0.0
H339 H 0.28981 0.66434 0.9684 0.0
H340 H 0.20204 0.63871 1.00663 0.0
H341 H 0.22628 0.72033 0.03381 0.0
C342 C 0.2858 0.78746 0.03215 0.0
C343 C 0.31764 0.8185 0.02939 0.0
C344 C 0.27191 0.74002 0.01673 0.0
C345 C 0.33516 0.8021 0.01075 0.0
C346 C 0.32138 0.7552 0.99525 0.0
C347 C 0.276 0.67615 0.98274 0.0
C348 C 0.24416 0.64514 0.98549 0.0
C349 C 0.28989 0.72361 0.99815 0.0
C350 C 0.22662 0.66157 1.00412 0.0
C351 C 0.2404 0.70845 0.01963 0.0
H352 H 0.07756 0.43801 0.98283 0.0
H353 H 0.064 0.65605 0.99103 0.0
H354 H 1.01393 0.63596 0.01177 0.0
H355 H 0.97393 0.55653 0.02779 0.0
H356 H 0.98773 0.33852 0.01958 0.0
H357 H 0.03757 0.35875 0.99871 0.0
C358 C 0.06368 0.48122 0.98913 0.0
C359 C 0.07467 0.54848 0.98532 0.0
C360 C 0.03484 0.46936 1.0011 0.0
C361 C 0.05624 0.60371 0.99366 0.0
C362 C 0.02754 0.5923 1.00556 0.0
C363 C 0.9878 0.5134 0.02143 0.0
C364 C 0.97696 0.44606 0.02531 0.0
C365 C 1.0166 0.52534 0.0094 0.0
C366 C 0.99537 0.39091 0.0169 0.0
C367 C 1.02396 0.40239 1.00494 0.0
H368 H 0.33037 0.44004 0.26383 0.0
H369 H 0.27691 0.54992 0.21101 0.0
H370 H 0.22749 0.56424 0.23283 0.0
H371 H 0.19883 0.54433 0.26678 0.0
H372 H 0.25229 0.43415 0.31954 0.0
H373 H 0.30206 0.42165 0.29795 0.0
C374 C 0.30793 0.46716 0.25708 0.0
C375 C 0.30747 0.49366 0.23574 0.0
C376 C 0.27945 0.47533 0.26974 0.0
C377 C 0.27811 0.52882 0.22734 0.0
C378 C 0.24974 0.53712 0.23983 0.0
C379 C 0.22141 0.51783 0.27361 0.0
C380 C 0.22165 0.49022 0.29479 0.0
C381 C 0.25006 0.51045 0.26104 0.0
C382 C 0.25122 0.45595 0.3033 0.0
C383 C 0.27978 0.44865 0.29094 0.0
H384 H 0.78991 0.17116 0.96724 0.0
H385 H 0.70645 0.12685 1.00754 0.0
H386 H 0.72748 0.21356 0.03405 0.0
H387 H 0.76911 0.30231 0.04557 0.0
H388 H 0.85258 0.34657 1.00527 0.0
H389 H 0.83154 0.25987 0.97876 0.0
C390 C 0.77639 0.17996 0.98189 0.0
C391 C 0.74668 0.1422 0.98541 0.0
C392 C 0.78837 0.23042 0.99692 0.0
C393 C 0.72944 0.15487 1.00444 0.0
C394 C 0.74136 0.20469 0.01956 0.0
C395 C 0.78262 0.2935 0.03091 0.0
C396 C 0.81234 0.33125 0.0274 0.0
C397 C 0.77065 0.24304 0.01589 0.0
C398 C 0.82959 0.31856 0.00837 0.0
C399 C 0.81766 0.26876 0.99325 0.0
H400 H 0.72157 0.4422 0.77416 0.0
H401 H 0.76049 0.64286 0.79216 0.0
H402 H 0.81154 0.62067 0.77237 0.0
H403 H 0.84516 0.54456 0.74962 0.0
H404 H 0.80603 0.34382 0.73182 0.0
H405 H 0.75539 0.36579 0.7519 0.0
C406 C 0.74115 0.48122 0.77374 0.0
C407 C 0.73699 0.54425 0.78464 0.0
C408 C 0.77061 0.46804 0.76239 0.0
C409 C 0.76286 0.59391 0.78395 0.0
C410 C 0.79215 0.58124 0.77262 0.0
C411 C 0.82566 0.50545 0.7502 0.0
C412 C 0.82958 0.44256 0.73915 0.0
C413 C 0.79634 0.51848 0.76177 0.0
C414 C 0.80386 0.39269 0.74011 0.0
C415 C 0.77476 0.40523 0.75159 0.0
H416 H 0.58466 0.91424 0.98398 0.0
H417 H 0.57477 0.13079 0.99709 0.0
H418 H 0.52525 0.10904 0.01811 0.0
H419 H 0.48444 0.02888 0.03274 0.0
H420 H 0.49408 0.81231 0.01962 0.0
H421 H 0.54383 0.83389 0.99872 0.0
C422 C 0.57171 0.95672 0.99144 0.0
C423 C 0.58355 0.02409 0.9889 0.0
C424 C 0.5431 0.94391 1.00354 0.0
C425 C 0.56633 0.0784 0.99872 0.0
C426 C 0.53794 0.06604 0.01077 0.0
C427 C 0.4974 -0.01369 0.02534 0.0
C428 C 0.48541 0.91903 0.0278 0.0
C429 C 0.52605 -0.00096 0.01328 0.0
C430 C 0.50264 0.86464 0.01804 0.0
C431 C 0.53115 0.87691 1.00605 0.0
H432 H 0.53123 0.29771 0.22499 0.0
H433 H 0.44705 0.3223 0.26651 0.0
H434 H 0.47261 0.23703 0.29163 0.0
H435 H 0.51825 0.15505 0.30155 0.0
H436 H 0.60266 0.13044 0.26024 0.0
H437 H 0.57717 0.21586 0.23505 0.0
C438 C 0.51852 0.2849 0.23961 0.0
C439 C 0.48725 0.31665 0.24387 0.0
C440 C 0.53316 0.23532 0.25386 0.0
C441 C 0.47114 0.29893 0.26285 0.0
C442 C 0.48567 0.24994 0.27717 0.0
C443 C 0.53106 0.16786 0.28697 0.0
C444 C 0.5623 0.13599 0.28276 0.0
C445 C 0.51652 0.21753 0.27275 0.0
C446 C 0.57855 0.15385 0.26385 0.0
C447 C 0.56406 0.20292 0.24949 0.0
H448 H 0.47341 0.78937 0.73991 0.0
H449 H 0.57037 0.87735 0.72581 0.0
H450 H 0.60059 0.78999 0.74794 0.0
H451 H 0.5996 0.6871 0.7708 0.0
H452 H 0.50257 0.59906 0.78474 0.0
H453 H 0.47241 0.687 0.76288 0.0
C454 C 0.50113 0.79004 0.74195 0.0
C455 C 0.51956 0.84003 0.73132 0.0
C456 C 0.51842 0.73879 0.75434 0.0
C457 C 0.55552 0.83951 0.73386 0.0
C458 C 0.57287 0.78932 0.74641 0.0
C459 C 0.57189 0.68665 0.76881 0.0
C460 C 0.55342 0.63633 0.77928 0.0
C461 C 0.5546 0.73815 0.7565 0.0
C462 C 0.51745 0.63713 0.77681 0.0
C463 C 0.50013 0.68763 0.7644 0.0
H464 H 0.48038 0.47703 0.54421 0.0
H465 H 0.41559 0.43906 0.48561 0.0
H466 H 0.4647 0.44804 0.46346 0.0
H467 H 0.52575 0.46788 0.46036 0.0
H468 H 0.59124 0.50928 0.51834 0.0
H469 H 0.54232 0.49801 0.54096 0.0
C470 C 0.47707 0.47039 0.52661 0.0
C471 C 0.44419 0.45724 0.51666 0.0
C472 C 0.50557 0.47654 0.51379 0.0
C473 C 0.44043 0.44937 0.49378 0.0
C474 C 0.46857 0.45448 0.48104 0.0
C475 C 0.52946 0.47441 0.47796 0.0
C476 C 0.56228 0.48934 0.48758 0.0
C477 C 0.50121 0.46832 0.49083 0.0
C478 C 0.56634 0.49789 0.51043 0.0
C479 C 0.53833 0.49132 0.5234 0.0
H480 H 0.18126 0.62857 0.37107 0.0
H481 H 0.08167 0.63255 0.39736 0.0
H482 H 0.10166 0.71699 0.42469 0.0
H483 H 0.14414 0.80293 0.43694 0.0
H484 H 0.24315 0.80204 0.40989 0.0
H485 H 0.22698 0.70174 0.38766 0.0
C486 C 0.16408 0.64716 0.38298 0.0
C487 C 0.12981 0.62555 0.38179 0.0
C488 C 0.1756 0.69639 0.39856 0.0
C489 C 0.10807 0.64905 0.39765 0.0
C490 C 0.11945 0.69744 0.41333 0.0
C491 C 0.16258 0.77969 0.42668 0.0
C492 C 0.19446 0.81107 0.42468 0.0
C493 C 0.15274 0.72343 0.41336 0.0
C494 C 0.21818 0.77962 0.41149 0.0
C495 C 0.20888 0.72252 0.39862 0.0
H496 H 0.17755 0.13291 0.36879 0.0
H497 H 0.09179 0.1254 0.40953 0.0
H498 H 0.06079 0.20754 0.38581 0.0
H499 H 0.06202 0.29441 0.35741 0.0
H500 H 0.14964 0.30846 0.31847 0.0
H501 H 0.17537 0.20909 0.33713 0.0
C502 C 0.15187 0.14841 0.37233 0.0
C503 C 0.13733 0.12421 0.3912 0.0
C504 C 0.1345 0.19685 0.35893 0.0
C505 C 0.10383 0.14403 0.39532 0.0
C506 C 0.08605 0.191 0.38175 0.0
C507 C 0.08632 0.27472 0.35254 0.0
C508 C 0.10418 0.30971 0.33686 0.0
C509 C 0.10169 0.21969 0.36403 0.0
C510 C 0.1355 0.28298 0.33065 0.0
C511 C 0.15039 0.2265 0.34146 0.0
H512 H 0.13637 0.12994 0.88912 0.0
H513 H 0.21674 0.16098 0.84528 0.0
H514 H 0.24247 0.24786 0.87006 0.0
H515 H 0.23649 0.32729 0.90068 0.0
H516 H 0.15341 0.30194 0.94282 0.0
H517 H 0.13498 0.19904 0.9225 0.0
C518 C 0.1598 0.15494 0.88509 0.0
C519 C 0.17416 0.14015 0.86512 0.0
C520 C 0.17393 0.20595 0.8991 0.0
C521 C 0.20487 0.17209 0.86039 0.0
C522 C 0.21959 0.22185 0.87455 0.0
C523 C 0.2149 0.29829 0.90583 0.0
C524 C 0.19595 0.32302 0.923 0.0
C525 C 0.20354 0.24106 0.89348 0.0
C526 C 0.1682 0.28448 0.92951 0.0
C527 C 0.15749 0.22592 0.91779 0.0
H528 H 0.18974 0.63956 0.8667 0.0
H529 H 0.09852 0.64748 0.90258 0.0
H530 H 0.07325 0.73085 0.87672 0.0
H531 H 0.08093 0.81386 0.84786 0.0
H532 H 0.1741 0.81273 0.81391 0.0
H533 H 0.19419 0.71237 0.83462 0.0
C534 C 0.16413 0.65875 0.86874 0.0
C535 C 0.14636 0.63845 0.88685 0.0
C536 C 0.1501 0.70783 0.85413 0.0
C537 C 0.11297 0.66296 0.88898 0.0
C538 C 0.0985 0.71065 0.8742 0.0
C539 C 0.10532 0.79084 0.84457 0.0
C540 C 0.12632 0.82179 0.82969 0.0
C541 C 0.11739 0.73533 0.85725 0.0
C542 C 0.15755 0.79045 0.82541 0.0
C543 C 0.16921 0.73343 0.83742 0.0
H544 H 0.92983 0.35517 0.61907 0.0
H545 H 0.84841 0.34464 0.66313 0.0
H546 H 0.81898 0.25963 0.63938 0.0
H547 H 0.82141 0.17553 0.60982 0.0
H548 H 0.9052 0.17954 0.56746 0.0
H549 H 0.92799 0.28166 0.58642 0.0
C550 C 0.90539 0.33512 0.62335 0.0
C551 C 0.89175 0.35506 0.64313 0.0
C552 C 0.88903 0.28503 0.60992 0.0
C553 C 0.85977 0.32941 0.64819 0.0
C554 C 0.84291 0.28076 0.63461 0.0
C555 C 0.8442 0.19961 0.60432 0.0
C556 C 0.86201 0.1689 0.58756 0.0
C557 C 0.85802 0.25624 0.61594 0.0
C558 C 0.8912 0.20153 0.58049 0.0
C559 C 0.90443 0.25962 0.59146 0.0
H560 H 0.98441 0.6772 0.65712 0.0
H561 H 0.8999 0.68216 0.69894 0.0
H562 H 0.87694 0.78351 0.67999 0.0
H563 H 0.87517 0.85561 0.64737 0.0
H564 H 0.95735 0.84392 0.60382 0.0
H565 H 0.98691 0.76022 0.6277 0.0
C566 C 0.96141 0.70134 0.66251 0.0
C567 C 0.94345 0.67106 0.67908 0.0
C568 C 0.9475 0.75746 0.65088 0.0
C569 C 0.91402 0.7038 0.68604 0.0
C570 C 0.90069 0.76144 0.67507 0.0
C571 C 0.8998 0.83559 0.64324 0.0
C572 C 0.91362 0.85476 0.62355 0.0
C573 C 0.91624 0.78624 0.65674 0.0
C574 C 0.94585 0.82923 0.61868 0.0
C575 C 0.96278 0.78134 0.63233 0.0
H576 H 0.90087 0.67665 0.07862 0.0
H577 H 0.80405 0.65534 0.10765 0.0
H578 H 0.81735 0.75391 0.13134 0.0
H579 H 0.86071 0.83254 0.14817 0.0
H580 H 0.95816 0.85042 0.11961 0.0
H581 H 0.94026 0.7671 0.0915 0.0
C582 C 0.88223 0.69455 0.0897 0.0
C583 C 0.85191 0.6575 0.0917 0.0
C584 C 0.89048 0.74986 0.10379 0.0
C585 C 0.82785 0.68224 0.10594 0.0
C586 C 0.83555 0.73834 0.11967 0.0
C587 C 0.87783 0.81898 0.13561 0.0
C588 C 0.91102 0.84651 0.13637 0.0
C589 C 0.86753 0.77028 0.1195 0.0
C590 C 0.93265 0.82923 0.11971 0.0
C591 C 0.92245 0.78154 0.10355 0.0
H592 H 0.98413 0.17382 0.15938 0.0
H593 H 0.89481 0.17024 0.19704 0.0
H594 H 0.87193 0.27061 0.1775 0.0
H595 H 0.87254 0.3446 0.14548 0.0
H596 H 0.95984 0.34198 0.10596 0.0
H597 H 0.98834 0.25888 0.1306 0.0
C598 C 0.96009 0.19601 0.16377 0.0
C599 C 0.94086 0.16369 0.17934 0.0
C600 C 0.94637 0.25166 0.15179 0.0
C601 C 0.90992 0.19359 0.18493 0.0
C602 C 0.89669 0.25067 0.17364 0.0
C603 C 0.89802 0.32666 0.14239 0.0
C604 C 0.91369 0.34824 0.12361 0.0
C605 C 0.91388 0.27771 0.15629 0.0
C606 C 0.94697 0.32546 0.12012 0.0
C607 C 0.96328 0.27788 0.13419 0.0
H608 H 0.698 0.64086 0.86477 0.0
H609 H 0.60215 0.61989 0.89509 0.0
H610 H 0.62067 0.70333 0.92302 0.0
H611 H 0.65979 0.79504 0.9352 0.0
H612 H 0.75496 0.8194 0.90442 0.0
H613 H 0.74145 0.72045 0.88094 0.0
C614 C 0.68139 0.65373 0.87768 0.0
C615 C 0.64841 0.62538 0.87746 0.0
C616 C 0.69202 0.70253 0.89368 0.0
C617 C 0.62745 0.64176 0.89457 0.0
C618 C 0.63801 0.68952 0.91062 0.0
C619 C 0.67805 0.77772 0.92377 0.0
C620 C 0.7079 0.81575 0.92122 0.0
C621 C 0.66965 0.72217 0.90982 0.0
C622 C 0.73151 0.79174 0.90656 0.0
C623 C 0.72368 0.73542 0.89295 0.0
H624 H 0.68537 0.12866 0.8674 0.0
H625 H 0.59864 0.13031 0.90741 0.0
H626 H 0.56971 0.21353 0.88301 0.0
H627 H 0.57348 0.29908 0.85433 0.0
H628 H 0.66225 0.3036 0.81617 0.0
H629 H 0.68544 0.20301 0.83544 0.0
C630 C 0.65992 0.14641 0.87065 0.0
C631 C 0.64454 0.12455 0.8895 0.0
C632 C 0.64382 0.19543 0.85688 0.0
C633 C 0.61129 0.14706 0.89319 0.0
C634 C 0.59473 0.19471 0.87925 0.0
C635 C 0.59746 0.27706 0.84977 0.0
C636 C 0.61645 0.30973 0.83415 0.0
C637 C 0.61138 0.22126 0.86159 0.0
C638 C 0.64731 0.28 0.82833 0.0
C639 C 0.66073 0.22279 0.83946 0.0
H640 H 0.62094 0.12648 0.3996 0.0
H641 H 0.71084 0.13472 0.36252 0.0
H642 H 0.73606 0.22013 0.38802 0.0
H643 H 0.72838 0.30474 0.41686 0.0
H644 H 0.63632 0.3033 0.45194 0.0
H645 H 0.61668 0.20111 0.43162 0.0
C646 C 0.64628 0.14614 0.39723 0.0
C647 C 0.66365 0.12534 0.37887 0.0
C648 C 0.66022 0.19648 0.41159 0.0
C649 C 0.69669 0.15053 0.37631 0.0
C650 C 0.71112 0.19942 0.39088 0.0
C651 C 0.70436 0.28129 0.42048 0.0
C652 C 0.6835 0.31262 0.43558 0.0
C653 C 0.6925 0.22466 0.40803 0.0
C654 C 0.65273 0.28075 0.44026 0.0
C655 C 0.64134 0.22265 0.42849 0.0
H656 H 0.67299 0.61889 0.37606 0.0
H657 H 0.59161 0.6499 0.41936 0.0
H658 H 0.56562 0.73549 0.39452 0.0
H659 H 0.57158 0.8141 0.36411 0.0
H660 H 0.65564 0.78907 0.32255 0.0
H661 H 0.67441 0.68696 0.34279 0.0
C662 C 0.64928 0.64358 0.37995 0.0
C663 C 0.63471 0.62921 0.39981 0.0
C664 C 0.635 0.69389 0.36591 0.0
C665 C 0.60365 0.66074 0.40435 0.0
C666 C 0.58879 0.70975 0.39016 0.0
C667 C 0.59347 0.78534 0.35905 0.0
C668 C 0.61259 0.81 0.3421 0.0
C669 C 0.60503 0.72865 0.37139 0.0
C670 C 0.64071 0.77169 0.3357 0.0
C671 C 0.65162 0.71359 0.34738 0.0
H672 H 0.42173 0.33576 0.12632 0.0
H673 H 0.33839 0.30614 0.16797 0.0
H674 H 0.31425 0.21833 0.14291 0.0
H675 H 0.32246 0.13743 0.11296 0.0
H676 H 0.40834 0.1618 0.07302 0.0
H677 H 0.42529 0.26561 0.09332 0.0
C678 C 0.39799 0.31089 0.12979 0.0
C679 C 0.38234 0.32628 0.14927 0.0
C680 C 0.38478 0.25934 0.11564 0.0
C681 C 0.35122 0.29459 0.15325 0.0
C682 C 0.33744 0.24425 0.13895 0.0
C683 C 0.34438 0.16636 0.10827 0.0
C684 C 0.36453 0.14105 0.09178 0.0
C685 C 0.35482 0.22428 0.12061 0.0
C686 C 0.39264 0.17962 0.08582 0.0
C687 C 0.40249 0.23874 0.09753 0.0
H688 H 0.47768 0.6411 0.16513 0.0
H689 H 0.38849 0.66047 0.20259 0.0
H690 H 0.37072 0.7623 0.1819 0.0
H691 H 0.37515 0.83194 0.14918 0.0
H692 H 0.46207 0.80703 0.11 0.0
H693 H 0.48617 0.72132 0.1355 0.0
C694 C 0.45479 0.66849 0.1692 0.0
C695 C 0.43407 0.64229 0.1851 0.0
C696 C 0.44394 0.72515 0.15661 0.0
C697 C 0.40473 0.67901 0.19027 0.0
C698 C 0.39439 0.73695 0.17832 0.0
C699 C 0.39961 0.80852 0.14634 0.0
C700 C 0.41639 0.82471 0.12742 0.0
C701 C 0.41289 0.75822 0.16075 0.0
C702 C 0.44839 0.79487 0.12426 0.0
C703 C 0.46217 0.74575 0.13882 0.0
H704 H 0.37108 0.84441 0.64299 0.0
H705 H 0.47225 0.81638 0.62031 0.0
H706 H 0.45044 0.73081 0.59386 0.0
H707 H 0.40464 0.65247 0.58109 0.0
H708 H 0.30363 0.67852 0.60422 0.0
H709 H 0.32319 0.77765 0.62595 0.0
C710 C 0.38826 0.82016 0.63208 0.0
C711 C 0.42334 0.83567 0.63398 0.0
C712 C 0.3756 0.77062 0.61692 0.0
C713 C 0.44516 0.80484 0.6194 0.0
C714 C 0.43274 0.75581 0.60424 0.0
C715 C 0.38663 0.68084 0.59041 0.0
C716 C 0.35295 0.65702 0.5914 0.0
C717 C 0.39825 0.73665 0.60338 0.0
C718 C 0.32987 0.69506 0.60337 0.0
C719 C 0.34109 0.75153 0.61598 0.0
H720 H 0.43516 0.34333 0.6208 0.0
H721 H 0.33416 0.31864 0.64385 0.0
H722 H 0.356 0.23396 0.67025 0.0
H723 H 0.40171 0.15535 0.68289 0.0
H724 H 0.50256 0.17809 0.65942 0.0
H725 H 0.48303 0.27648 0.63771 0.0
C726 C 0.41803 0.32002 0.63178 0.0
C727 C 0.38298 0.33618 0.63 0.0
C728 C 0.4307 0.27101 0.64691 0.0
C729 C 0.36122 0.30658 0.64467 0.0
C730 C 0.37366 0.25806 0.6598 0.0
C731 C 0.4197 0.18286 0.6735 0.0
C732 C 0.45332 0.1583 0.67241 0.0
C733 C 0.4081 0.23822 0.66054 0.0
C734 C 0.47637 0.19522 0.66034 0.0
C735 C 0.46517 0.25125 0.64775 0.0
loop_
_geom_bond_atom_site_label_1
_geom_bond_atom_site_label_2
_geom_bond_distance
_geom_bond_site_symmetry_2
_ccdc_geom_bond_type
Zn0 O3 2.031 . S
Zn0 O5 2.049 . S
Zn0 O10 2.067 . S
Zn1 O2 1.962 . S
Zn1 O4 1.986 . S
Zn1 O6 1.996 . S
Zn1 O9 1.943 . S
O2 Zn1 1.962 . S
O2 C7 1.254 . S
O3 Zn0 2.031 . S
O3 C7 1.269 . S
O4 Zn1 1.986 . S
O4 C11 1.262 . S
O5 Zn0 2.049 . S
O5 C13 1.260 1_545 S
O6 Zn1 1.996 . S
O6 C13 1.257 1_545 S
C7 O2 1.254 . S
C7 O3 1.269 . S
C8 O9 1.249 . S
C8 O10 1.270 . S
O9 Zn1 1.943 . S
O9 C8 1.249 . S
O10 Zn0 2.067 . S
O10 C8 1.270 . S
C11 O4 1.262 . S
C11 O12 1.232 . S
O12 C11 1.232 . S
C13 O5 1.260 1_565 S
C13 O6 1.257 1_565 S
Zn14 O17 2.031 . S
Zn14 O19 2.049 . S
Zn14 O24 2.067 . S
Zn15 O16 1.962 . S
Zn15 O18 1.986 . S
Zn15 O20 1.996 . S
Zn15 O23 1.943 . S
O16 Zn15 1.962 . S
O16 C21 1.254 . S
O17 Zn14 2.031 . S
O17 C21 1.269 . S
O18 Zn15 1.986 . S
O18 C25 1.262 . S
O19 Zn14 2.049 . S
O19 C27 1.260 1_545 S
O20 Zn15 1.996 . S
O20 C27 1.257 1_545 S
C21 O16 1.254 . S
C21 O17 1.269 . S
C22 O23 1.249 . S
C22 O24 1.270 . S
O23 Zn15 1.943 . S
O23 C22 1.249 . S
O24 Zn14 2.067 . S
O24 C22 1.270 . S
C25 O18 1.262 . S
C25 O26 1.232 . S
O26 C25 1.232 . S
C27 O19 1.260 1_565 S
C27 O20 1.257 1_565 S
Zn28 O31 2.031 . S
Zn28 O33 2.049 . S
Zn28 O38 2.067 . S
Zn29 O30 1.962 . S
Zn29 O32 1.986 . S
Zn29 O34 1.996 . S
Zn29 O37 1.943 . S
O30 Zn29 1.962 . S
O30 C35 1.254 . S
O31 Zn28 2.031 . S
O31 C35 1.269 . S
O32 Zn29 1.986 . S
O32 C39 1.262 . S
O33 Zn28 2.049 . S
O33 C41 1.260 1_565 S
O34 Zn29 1.996 . S
O34 C41 1.257 1_565 S
C35 O30 1.254 . S
C35 O31 1.269 . S
C36 O37 1.249 . S
C36 O38 1.270 . S
O37 Zn29 1.943 . S
O37 C36 1.249 . S
O38 Zn28 2.067 . S
O38 C36 1.270 . S
C39 O32 1.262 . S
C39 O40 1.232 . S
O40 C39 1.232 . S
C41 O33 1.260 1_545 S
C41 O34 1.257 1_545 S
Zn42 O45 2.031 . S
Zn42 O47 2.049 . S
Zn42 O52 2.067 . S
Zn43 O44 1.962 . S
Zn43 O46 1.986 . S
Zn43 O48 1.996 . S
Zn43 O51 1.943 . S
O44 Zn43 1.962 . S
O44 C49 1.254 . S
O45 Zn42 2.031 . S
O45 C49 1.269 . S
O46 Zn43 1.986 . S
O46 C53 1.262 . S
O47 Zn42 2.049 . S
O47 C55 1.260 1_565 S
O48 Zn43 1.996 . S
O48 C55 1.257 1_565 S
C49 O44 1.254 . S
C49 O45 1.269 . S
C50 O51 1.249 . S
C50 O52 1.270 . S
O51 Zn43 1.943 . S
O51 C50 1.249 . S
O52 Zn42 2.067 . S
O52 C50 1.270 . S
C53 O46 1.262 . S
C53 O54 1.232 . S
O54 C53 1.232 . S
C55 O47 1.260 1_545 S
C55 O48 1.257 1_545 S
Zn56 O59 2.031 . S
Zn56 O61 2.049 . S
Zn56 O66 2.067 . S
Zn57 O58 1.962 . S
Zn57 O60 1.986 . S
Zn57 O62 1.996 . S
Zn57 O65 1.943 . S
O58 Zn57 1.962 . S
O58 C63 1.254 . S
O59 Zn56 2.031 . S
O59 C63 1.269 . S
O60 Zn57 1.986 . S
O60 C67 1.262 . S
O61 Zn56 2.049 . S
O61 C69 1.260 . S
O62 Zn57 1.996 . S
O62 C69 1.257 . S
C63 O58 1.254 . S
C63 O59 1.269 . S
C64 O65 1.249 . S
C64 O66 1.270 . S
O65 Zn57 1.943 . S
O65 C64 1.249 . S
O66 Zn56 2.067 . S
O66 C64 1.270 . S
C67 O60 1.262 . S
C67 O68 1.232 . S
O68 C67 1.232 . S
C69 O61 1.260 . S
C69 O62 1.257 . S
Zn70 O73 2.031 . S
Zn70 O75 2.049 . S
Zn70 O80 2.067 . S
Zn71 O72 1.962 . S
Zn71 O74 1.986 . S
Zn71 O76 1.996 . S
Zn71 O79 1.943 . S
O72 Zn71 1.962 . S
O72 C77 1.254 . S
O73 Zn70 2.031 . S
O73 C77 1.269 . S
O74 Zn71 1.986 . S
O74 C81 1.262 . S
O75 Zn70 2.049 . S
O75 C83 1.260 . S
O76 Zn71 1.996 . S
O76 C83 1.257 . S
C77 O72 1.254 . S
C77 O73 1.269 . S
C78 O79 1.249 . S
C78 O80 1.270 . S
O79 Zn71 1.943 . S
O79 C78 1.249 . S
O80 Zn70 2.067 . S
O80 C78 1.270 . S
C81 O74 1.262 . S
C81 O82 1.232 . S
O82 C81 1.232 . S
C83 O75 1.260 . S
C83 O76 1.257 . S
Zn84 O87 2.031 . S
Zn84 O89 2.049 . S
Zn84 O94 2.067 . S
Zn85 O86 1.962 . S
Zn85 O88 1.986 . S
Zn85 O90 1.996 . S
Zn85 O93 1.943 . S
O86 Zn85 1.962 . S
O86 C91 1.254 . S
O87 Zn84 2.031 . S
O87 C91 1.269 . S
O88 Zn85 1.986 . S
O88 C95 1.262 . S
O89 Zn84 2.049 . S
O89 C97 1.260 . S
O90 Zn85 1.996 . S
O90 C97 1.257 . S
C91 O86 1.254 . S
C91 O87 1.269 . S
C92 O93 1.249 . S
C92 O94 1.270 . S
O93 Zn85 1.943 . S
O93 C92 1.249 . S
O94 Zn84 2.067 . S
O94 C92 1.270 . S
C95 O88 1.262 . S
C95 O96 1.232 . S
O96 C95 1.232 . S
C97 O89 1.260 . S
C97 O90 1.257 . S
Zn98 O101 2.031 . S
Zn98 O103 2.049 . S
Zn98 O108 2.067 . S
Zn99 O100 1.962 . S
Zn99 O102 1.986 . S
Zn99 O104 1.996 . S
Zn99 O107 1.943 . S
O100 Zn99 1.962 . S
O100 C105 1.254 . S
O101 Zn98 2.031 . S
O101 C105 1.269 . S
O102 Zn99 1.986 . S
O102 C109 1.262 . S
O103 Zn98 2.049 . S
O103 C111 1.260 . S
O104 Zn99 1.996 . S
O104 C111 1.257 . S
C105 O100 1.254 . S
C105 O101 1.269 . S
C106 O107 1.249 . S
C106 O108 1.270 . S
O107 Zn99 1.943 . S
O107 C106 1.249 . S
O108 Zn98 2.067 . S
O108 C106 1.270 . S
C109 O102 1.262 . S
C109 O110 1.232 . S
O110 C109 1.232 . S
C111 O103 1.260 . S
C111 O104 1.257 . S
Zn112 O115 2.031 . S
Zn112 O117 2.049 . S
Zn112 O122 2.067 . S
Zn113 O114 1.962 . S
Zn113 O116 1.986 . S
Zn113 O118 1.996 . S
Zn113 O121 1.943 . S
O114 Zn113 1.962 . S
O114 C119 1.254 . S
O115 Zn112 2.031 . S
O115 C119 1.269 . S
O116 Zn113 1.986 . S
O116 C123 1.262 . S
O117 Zn112 2.049 . S
O117 C125 1.260 1_545 S
O118 Zn113 1.996 . S
O118 C125 1.257 1_545 S
C119 O114 1.254 . S
C119 O115 1.269 . S
C120 O121 1.249 . S
C120 O122 1.270 . S
O121 Zn113 1.943 . S
O121 C120 1.249 . S
O122 Zn112 2.067 . S
O122 C120 1.270 . S
C123 O116 1.262 . S
C123 O124 1.232 . S
O124 C123 1.232 . S
C125 O117 1.260 1_565 S
C125 O118 1.257 1_565 S
Zn126 O129 2.031 . S
Zn126 O131 2.049 . S
Zn126 O136 2.067 . S
Zn127 O128 1.962 . S
Zn127 O130 1.986 . S
Zn127 O132 1.996 . S
Zn127 O135 1.943 . S
O128 Zn127 1.962 . S
O128 C133 1.254 . S
O129 Zn126 2.031 . S
O129 C133 1.269 . S
O130 Zn127 1.986 . S
O130 C137 1.262 . S
O131 Zn126 2.049 . S
O131 C139 1.260 1_545 S
O132 Zn127 1.996 . S
O132 C139 1.257 1_545 S
C133 O128 1.254 . S
C133 O129 1.269 . S
C134 O135 1.249 . S
C134 O136 1.270 . S
O135 Zn127 1.943 . S
O135 C134 1.249 . S
O136 Zn126 2.067 . S
O136 C134 1.270 . S
C137 O130 1.262 . S
C137 O138 1.232 . S
O138 C137 1.232 . S
C139 O131 1.260 1_565 S
C139 O132 1.257 1_565 S
Zn140 O143 2.031 . S
Zn140 O145 2.049 . S
Zn140 O150 2.067 . S
Zn141 O142 1.962 . S
Zn141 O144 1.986 . S
Zn141 O146 1.996 . S
Zn141 O149 1.943 . S
O142 Zn141 1.962 . S
O142 C147 1.254 . S
O143 Zn140 2.031 . S
O143 C147 1.269 . S
O144 Zn141 1.986 . S
O144 C151 1.262 . S
O145 Zn140 2.049 . S
O145 C153 1.260 1_565 S
O146 Zn141 1.996 . S
O146 C153 1.257 1_565 S
C147 O142 1.254 . S
C147 O143 1.269 . S
C148 O149 1.249 . S
C148 O150 1.270 . S
O149 Zn141 1.943 . S
O149 C148 1.249 . S
O150 Zn140 2.067 . S
O150 C148 1.270 . S
C151 O144 1.262 . S
C151 O152 1.232 . S
O152 C151 1.232 . S
C153 O145 1.260 1_545 S
C153 O146 1.257 1_545 S
Zn154 O157 2.031 . S
Zn154 O159 2.049 . S
Zn154 O164 2.067 . S
Zn155 O156 1.962 . S
Zn155 O158 1.986 . S
Zn155 O160 1.996 . S
Zn155 O163 1.943 . S
O156 Zn155 1.962 . S
O156 C161 1.254 . S
O157 Zn154 2.031 . S
O157 C161 1.269 . S
O158 Zn155 1.986 . S
O158 C165 1.262 . S
O159 Zn154 2.049 . S
O159 C167 1.260 1_565 S
O160 Zn155 1.996 . S
O160 C167 1.257 1_565 S
C161 O156 1.254 . S
C161 O157 1.269 . S
C162 O163 1.249 . S
C162 O164 1.270 . S
O163 Zn155 1.943 . S
O163 C162 1.249 . S
O164 Zn154 2.067 . S
O164 C162 1.270 . S
C165 O158 1.262 . S
C165 O166 1.232 . S
O166 C165 1.232 . S
C167 O159 1.260 1_545 S
C167 O160 1.257 1_545 S
Zn168 O171 2.031 . S
Zn168 O173 2.049 . S
Zn168 O178 2.067 . S
Zn169 O170 1.962 . S
Zn169 O172 1.986 . S
Zn169 O174 1.996 . S
Zn169 O177 1.943 . S
O170 Zn169 1.962 . S
O170 C175 1.254 . S
O171 Zn168 2.031 . S
O171 C175 1.269 . S
O172 Zn169 1.986 . S
O172 C179 1.262 . S
O173 Zn168 2.049 . S
O173 C181 1.260 . S
O174 Zn169 1.996 . S
O174 C181 1.257 . S
C175 O170 1.254 . S
C175 O171 1.269 . S
C176 O177 1.249 . S
C176 O178 1.270 . S
O177 Zn169 1.943 . S
O177 C176 1.249 . S
O178 Zn168 2.067 . S
O178 C176 1.270 . S
C179 O172 1.262 . S
C179 O180 1.232 . S
O180 C179 1.232 . S
C181 O173 1.260 . S
C181 O174 1.257 . S
Zn182 O185 2.031 . S
Zn182 O187 2.049 . S
Zn182 O192 2.067 . S
Zn183 O184 1.962 . S
Zn183 O186 1.986 . S
Zn183 O188 1.996 . S
Zn183 O191 1.943 . S
O184 Zn183 1.962 . S
O184 C189 1.254 . S
O185 Zn182 2.031 . S
O185 C189 1.269 . S
O186 Zn183 1.986 . S
O186 C193 1.262 . S
O187 Zn182 2.049 . S
O187 C195 1.260 . S
O188 Zn183 1.996 . S
O188 C195 1.257 . S
C189 O184 1.254 . S
C189 O185 1.269 . S
C190 O191 1.249 . S
C190 O192 1.270 . S
O191 Zn183 1.943 . S
O191 C190 1.249 . S
O192 Zn182 2.067 . S
O192 C190 1.270 . S
C193 O186 1.262 . S
C193 O194 1.232 . S
O194 C193 1.232 . S
C195 O187 1.260 . S
C195 O188 1.257 . S
Zn196 O199 2.031 . S
Zn196 O201 2.049 . S
Zn196 O206 2.067 . S
Zn197 O198 1.962 . S
Zn197 O200 1.986 . S
Zn197 O202 1.996 . S
Zn197 O205 1.943 . S
O198 Zn197 1.962 . S
O198 C203 1.254 . S
O199 Zn196 2.031 . S
O199 C203 1.269 . S
O200 Zn197 1.986 . S
O200 C207 1.262 . S
O201 Zn196 2.049 . S
O201 C209 1.260 . S
O202 Zn197 1.996 . S
O202 C209 1.257 . S
C203 O198 1.254 . S
C203 O199 1.269 . S
C204 O205 1.249 . S
C204 O206 1.270 . S
O205 Zn197 1.943 . S
O205 C204 1.249 . S
O206 Zn196 2.067 . S
O206 C204 1.270 . S
C207 O200 1.262 . S
C207 O208 1.232 . S
O208 C207 1.232 . S
C209 O201 1.260 . S
C209 O202 1.257 . S
Zn210 O213 2.031 . S
Zn210 O215 2.049 . S
Zn210 O220 2.067 . S
Zn211 O212 1.962 . S
Zn211 O214 1.986 . S
Zn211 O216 1.996 . S
Zn211 O219 1.943 . S
O212 Zn211 1.962 . S
O212 C217 1.254 . S
O213 Zn210 2.031 . S
O213 C217 1.269 . S
O214 Zn211 1.986 . S
O214 C221 1.262 . S
O215 Zn210 2.049 . S
O215 C223 1.260 . S
O216 Zn211 1.996 . S
O216 C223 1.257 . S
C217 O212 1.254 . S
C217 O213 1.269 . S
C218 O219 1.249 . S
C218 O220 1.270 . S
O219 Zn211 1.943 . S
O219 C218 1.249 . S
O220 Zn210 2.067 . S
O220 C218 1.270 . S
C221 O214 1.262 . S
C221 O222 1.232 . S
O222 C221 1.232 . S
C223 O215 1.260 . S
C223 O216 1.257 . S
H224 C230 0.930 . S
H225 C233 0.930 . S
H226 C234 0.930 . S
H227 C235 0.930 . S
H228 C238 0.930 . S
H229 C239 0.930 . S
C230 H224 0.930 . S
C230 C231 1.355 . S
C230 C232 1.415 . S
C231 C230 1.355 . S
C231 C233 1.419 . S
C232 C230 1.415 . S
C232 C237 1.425 . S
C232 C239 1.409 . S
C233 H225 0.930 . S
C233 C231 1.419 . S
C233 C234 1.362 . S
C234 H226 0.930 . S
C234 C233 1.362 . S
C234 C237 1.409 . S
C235 H227 0.930 . S
C235 C236 1.355 . S
C235 C237 1.415 . S
C236 C235 1.355 . S
C236 C238 1.419 . S
C237 C232 1.425 . S
C237 C234 1.409 . S
C237 C235 1.415 . S
C238 H228 0.930 . S
C238 C236 1.419 . S
C238 C239 1.362 . S
C239 H229 0.930 . S
C239 C232 1.409 . S
C239 C238 1.362 . S
H240 C246 0.927 1_545 S
H241 C249 0.930 . S
H242 C250 0.930 . S
H243 C251 0.927 1_565 S
H244 C254 0.930 . S
H245 C255 0.930 . S
C246 H240 0.927 1_565 S
C246 C247 1.355 . S
C246 C248 1.415 1_565 S
C247 C246 1.355 . S
C247 C249 1.419 . S
C248 C246 1.415 1_545 S
C248 C253 1.425 1_645 S
C248 C255 1.409 . S
C249 H241 0.930 . S
C249 C247 1.419 . S
C249 C250 1.362 1_655 S
C250 H242 0.930 . S
C250 C249 1.362 1_455 S
C250 C253 1.409 . S
C251 H243 0.927 1_545 S
C251 C252 1.355 . S
C251 C253 1.415 1_545 S
C252 C251 1.355 . S
C252 C254 1.419 . S
C253 C248 1.425 1_465 S
C253 C250 1.409 . S
C253 C251 1.415 1_565 S
C254 H244 0.930 . S
C254 C252 1.419 . S
C254 C255 1.362 1_455 S
C255 H245 0.930 . S
C255 C248 1.409 . S
C255 C254 1.362 1_655 S
H256 C262 0.930 . S
H257 C265 0.930 . S
H258 C266 0.930 . S
H259 C267 0.930 . S
H260 C270 0.930 . S
H261 C271 0.930 . S
C262 H256 0.930 . S
C262 C263 1.355 . S
C262 C264 1.415 1_565 S
C263 C262 1.355 . S
C263 C265 1.419 . S
C264 C262 1.415 1_545 S
C264 C269 1.425 1_545 S
C264 C271 1.409 . S
C265 H257 0.930 . S
C265 C263 1.419 . S
C265 C266 1.362 . S
C266 H258 0.930 . S
C266 C265 1.362 . S
C266 C269 1.409 . S
C267 H259 0.930 . S
C267 C268 1.355 . S
C267 C269 1.415 1_545 S
C268 C267 1.355 . S
C268 C270 1.419 . S
C269 C264 1.425 1_565 S
C269 C266 1.409 . S
C269 C267 1.415 1_565 S
C270 H260 0.930 . S
C270 C268 1.419 . S
C270 C271 1.362 . S
C271 H261 0.930 . S
C271 C264 1.409 . S
C271 C270 1.362 . S
H272 C278 0.930 . S
H273 C281 0.930 . S
H274 C282 0.930 . S
H275 C283 0.930 . S
H276 C286 0.930 . S
H277 C287 0.930 . S
C278 H272 0.930 . S
C278 C279 1.355 . S
C278 C280 1.415 . S
C279 C278 1.355 . S
C279 C281 1.419 . S
C280 C278 1.415 . S
C280 C285 1.425 1_455 S
C280 C287 1.409 . S
C281 H273 0.930 . S
C281 C279 1.419 . S
C281 C282 1.362 1_455 S
C282 H274 0.930 . S
C282 C281 1.362 1_655 S
C282 C285 1.409 . S
C283 H275 0.930 . S
C283 C284 1.355 . S
C283 C285 1.415 . S
C284 C283 1.355 . S
C284 C286 1.419 . S
C285 C280 1.425 1_655 S
C285 C282 1.409 . S
C285 C283 1.415 . S
C286 H276 0.930 . S
C286 C284 1.419 . S
C286 C287 1.362 1_655 S
C287 H277 0.930 . S
C287 C280 1.409 . S
C287 C286 1.362 1_455 S
H288 C294 0.930 . S
H289 C297 0.930 . S
H290 C298 0.930 . S
H291 C299 0.930 . S
H292 C302 0.930 . S
H293 C303 0.930 . S
C294 H288 0.930 . S
C294 C295 1.355 . S
C294 C296 1.415 . S
C295 C294 1.355 . S
C295 C297 1.419 . S
C296 C294 1.415 . S
C296 C301 1.425 . S
C296 C303 1.409 . S
C297 H289 0.930 . S
C297 C295 1.419 . S
C297 C298 1.362 . S
C298 H290 0.930 . S
C298 C297 1.362 . S
C298 C301 1.409 . S
C299 H291 0.930 . S
C299 C300 1.355 . S
C299 C301 1.415 . S
C300 C299 1.355 . S
C300 C302 1.419 . S
C301 C296 1.425 . S
C301 C298 1.409 . S
C301 C299 1.415 . S
C302 H292 0.930 . S
C302 C300 1.419 . S
C302 C303 1.362 . S
C303 H293 0.930 . S
C303 C296 1.409 . S
C303 C302 1.362 . S
H304 C310 0.930 . S
H305 C313 0.930 . S
H306 C314 0.930 . S
H307 C315 0.930 . S
H308 C318 0.930 . S
H309 C319 0.930 . S
C310 H304 0.930 . S
C310 C311 1.355 1_565 S
C310 C312 1.415 . S
C311 C310 1.355 1_545 S
C311 C313 1.419 . S
C312 C310 1.415 . S
C312 C317 1.425 1_565 S
C312 C319 1.409 . S
C313 H305 0.930 . S
C313 C311 1.419 . S
C313 C314 1.362 . S
C314 H306 0.930 . S
C314 C313 1.362 . S
C314 C317 1.409 . S
C315 H307 0.930 . S
C315 C316 1.355 1_545 S
C315 C317 1.415 . S
C316 C315 1.355 1_565 S
C316 C318 1.419 . S
C317 C312 1.425 1_545 S
C317 C314 1.409 . S
C317 C315 1.415 . S
C318 H308 0.930 . S
C318 C316 1.419 . S
C318 C319 1.362 . S
C319 H309 0.930 . S
C319 C312 1.409 . S
C319 C318 1.362 . S
H320 C326 0.930 . S
H321 C329 0.930 . S
H322 C330 0.930 . S
H323 C331 0.930 . S
H324 C334 0.930 . S
H325 C335 0.930 . S
C326 H320 0.930 . S
C326 C327 1.355 . S
C326 C328 1.415 . S
C327 C326 1.355 . S
C327 C329 1.419 . S
C328 C326 1.415 . S
C328 C333 1.425 1_655 S
C328 C335 1.409 . S
C329 H321 0.930 . S
C329 C327 1.419 . S
C329 C330 1.362 1_655 S
C330 H322 0.930 . S
C330 C329 1.362 1_455 S
C330 C333 1.409 . S
C331 H323 0.930 . S
C331 C332 1.355 . S
C331 C333 1.415 . S
C332 C331 1.355 . S
C332 C334 1.419 . S
C333 C328 1.425 1_455 S
C333 C330 1.409 . S
C333 C331 1.415 . S
C334 H324 0.930 . S
C334 C332 1.419 . S
C334 C335 1.362 1_455 S
C335 H325 0.930 . S
C335 C328 1.409 . S
C335 C334 1.362 1_655 S
H336 C342 0.930 . S
H337 C345 0.930 . S
H338 C346 0.930 . S
H339 C347 0.930 . S
H340 C350 0.930 . S
H341 C351 0.930 . S
C342 H336 0.930 . S
C342 C343 1.355 . S
C342 C344 1.415 . S
C343 C342 1.355 . S
C343 C345 1.419 . S
C344 C342 1.415 . S
C344 C349 1.425 1_554 S
C344 C351 1.409 . S
C345 H337 0.930 . S
C345 C343 1.419 . S
C345 C346 1.362 1_554 S
C346 H338 0.930 . S
C346 C345 1.362 1_556 S
C346 C349 1.409 . S
C347 H339 0.930 . S
C347 C348 1.355 . S
C347 C349 1.415 . S
C348 C347 1.355 . S
C348 C350 1.419 . S
C349 C344 1.425 1_556 S
C349 C346 1.409 . S
C349 C347 1.415 . S
C350 H340 0.930 . S
C350 C348 1.419 . S
C350 C351 1.362 1_556 S
C351 H341 0.930 . S
C351 C344 1.409 . S
C351 C350 1.362 1_554 S
H352 C358 0.930 . S
H353 C361 0.930 . S
H354 C362 0.930 1_554 S
H355 C363 0.930 . S
H356 C366 0.930 . S
H357 C367 0.930 1_556 S
C358 H352 0.930 . S
C358 C359 1.355 . S
C358 C360 1.415 . S
C359 C358 1.355 . S
C359 C361 1.419 . S
C360 C358 1.415 . S
C360 C365 1.425 1_456 S
C360 C367 1.409 1_556 S
C361 H353 0.930 . S
C361 C359 1.419 . S
C361 C362 1.362 1_455 S
C362 H354 0.930 1_556 S
C362 C361 1.362 1_655 S
C362 C365 1.409 1_556 S
C363 H355 0.930 . S
C363 C364 1.355 . S
C363 C365 1.415 . S
C364 C363 1.355 . S
C364 C366 1.419 . S
C365 C360 1.425 1_654 S
C365 C362 1.409 1_554 S
C365 C363 1.415 . S
C366 H356 0.930 . S
C366 C364 1.419 . S
C366 C367 1.362 1_655 S
C367 H357 0.930 1_554 S
C367 C360 1.409 1_554 S
C367 C366 1.362 1_455 S
H368 C374 0.930 . S
H369 C377 0.930 . S
H370 C378 0.930 . S
H371 C379 0.930 . S
H372 C382 0.930 . S
H373 C383 0.930 . S
C374 H368 0.930 . S
C374 C375 1.355 . S
C374 C376 1.415 . S
C375 C374 1.355 . S
C375 C377 1.419 . S
C376 C374 1.415 . S
C376 C381 1.425 . S
C376 C383 1.409 . S
C377 H369 0.930 . S
C377 C375 1.419 . S
C377 C378 1.362 . S
C378 H370 0.930 . S
C378 C377 1.362 . S
C378 C381 1.409 . S
C379 H371 0.930 . S
C379 C380 1.355 . S
C379 C381 1.415 . S
C380 C379 1.355 . S
C380 C382 1.419 . S
C381 C376 1.425 . S
C381 C378 1.409 . S
C381 C379 1.415 . S
C382 H372 0.930 . S
C382 C380 1.419 . S
C382 C383 1.362 . S
C383 H373 0.930 . S
C383 C376 1.409 . S
C383 C382 1.362 . S
H384 C390 0.930 . S
H385 C393 0.930 . S
H386 C394 0.930 . S
H387 C395 0.930 . S
H388 C398 0.930 . S
H389 C399 0.930 . S
C390 H384 0.930 . S
C390 C391 1.355 . S
C390 C392 1.415 . S
C391 C390 1.355 . S
C391 C393 1.419 1_556 S
C392 C390 1.415 . S
C392 C397 1.425 1_556 S
C392 C399 1.409 . S
C393 H385 0.930 . S
C393 C391 1.419 1_554 S
C393 C394 1.362 . S
C394 H386 0.930 . S
C394 C393 1.362 . S
C394 C397 1.409 . S
C395 H387 0.930 . S
C395 C396 1.355 . S
C395 C397 1.415 . S
C396 C395 1.355 . S
C396 C398 1.419 1_554 S
C397 C392 1.425 1_554 S
C397 C394 1.409 . S
C397 C395 1.415 . S
C398 H388 0.930 . S
C398 C396 1.419 1_556 S
C398 C399 1.362 . S
C399 H389 0.930 . S
C399 C392 1.409 . S
C399 C398 1.362 . S
H400 C406 0.930 . S
H401 C409 0.930 . S
H402 C410 0.930 . S
H403 C411 0.930 . S
H404 C414 0.930 . S
H405 C415 0.930 . S
C406 H400 0.930 . S
C406 C407 1.355 . S
C406 C408 1.415 . S
C407 C406 1.355 . S
C407 C409 1.419 . S
C408 C406 1.415 . S
C408 C413 1.425 . S
C408 C415 1.409 . S
C409 H401 0.930 . S
C409 C407 1.419 . S
C409 C410 1.362 . S
C410 H402 0.930 . S
C410 C409 1.362 . S
C410 C413 1.409 . S
C411 H403 0.930 . S
C411 C412 1.355 . S
C411 C413 1.415 . S
C412 C411 1.355 . S
C412 C414 1.419 . S
C413 C408 1.425 . S
C413 C410 1.409 . S
C413 C411 1.415 . S
C414 H404 0.930 . S
C414 C412 1.419 . S
C414 C415 1.362 . S
C415 H405 0.930 . S
C415 C408 1.409 . S
C415 C414 1.362 . S
H416 C422 0.930 1_565 S
H417 C425 0.925 1_554 S
H418 C426 0.930 . S
H419 C427 0.930 1_545 S
H420 C430 0.925 1_556 S
H421 C431 0.930 . S
C422 H416 0.930 1_545 S
C422 C423 1.355 . S
C422 C424 1.415 1_545 S
C423 C422 1.355 . S
C423 C425 1.461 . S
C424 C422 1.415 1_565 S
C424 C429 1.425 1_566 S
C424 C431 1.409 . S
C425 H417 0.925 1_556 S
C425 C423 1.461 . S
C425 C426 1.327 1_556 S
C426 H418 0.930 . S
C426 C425 1.327 1_554 S
C426 C429 1.409 . S
C427 H419 0.930 1_565 S
C427 C428 1.355 . S
C427 C429 1.415 1_565 S
C428 C427 1.355 . S
C428 C430 1.461 . S
C429 C424 1.425 1_544 S
C429 C426 1.409 . S
C429 C427 1.415 1_545 S
C430 H420 0.925 1_554 S
C430 C428 1.461 . S
C430 C431 1.327 1_554 S
C431 H421 0.930 . S
C431 C424 1.409 . S
C431 C430 1.327 1_556 S
H432 C438 0.930 . S
H433 C441 0.930 . S
H434 C442 0.930 . S
H435 C443 0.930 . S
H436 C446 0.930 . S
H437 C447 0.930 . S
C438 H432 0.930 . S
C438 C439 1.355 . S
C438 C440 1.415 . S
C439 C438 1.355 . S
C439 C441 1.419 . S
C440 C438 1.415 . S
C440 C445 1.425 . S
C440 C447 1.409 . S
C441 H433 0.930 . S
C441 C439 1.419 . S
C441 C442 1.362 . S
C442 H434 0.930 . S
C442 C441 1.362 . S
C442 C445 1.409 . S
C443 H435 0.930 . S
C443 C444 1.355 . S
C443 C445 1.415 . S
C444 C443 1.355 . S
C444 C446 1.419 . S
C445 C440 1.425 . S
C445 C442 1.409 . S
C445 C443 1.415 . S
C446 H436 0.930 . S
C446 C444 1.419 . S
C446 C447 1.362 . S
C447 H437 0.930 . S
C447 C440 1.409 . S
C447 C446 1.362 . S
H448 C454 0.930 . S
H449 C457 0.930 . S
H450 C458 0.930 . S
H451 C459 0.930 . S
H452 C462 0.930 . S
H453 C463 0.930 . S
C454 H448 0.930 . S
C454 C455 1.355 . S
C454 C456 1.415 . S
C455 C454 1.355 . S
C455 C457 1.419 . S
C456 C454 1.415 . S
C456 C461 1.425 . S
C456 C463 1.409 . S
C457 H449 0.930 . S
C457 C455 1.419 . S
C457 C458 1.362 . S
C458 H450 0.930 . S
C458 C457 1.362 . S
C458 C461 1.409 . S
C459 H451 0.930 . S
C459 C460 1.355 . S
C459 C461 1.415 . S
C460 C459 1.355 . S
C460 C462 1.419 . S
C461 C456 1.425 . S
C461 C458 1.409 . S
C461 C459 1.415 . S
C462 H452 0.930 . S
C462 C460 1.419 . S
C462 C463 1.362 . S
C463 H453 0.930 . S
C463 C456 1.409 . S
C463 C462 1.362 . S
H464 C470 0.930 . S
H465 C473 0.930 . S
H466 C474 0.930 . S
H467 C475 0.930 . S
H468 C478 0.930 . S
H469 C479 0.930 . S
C470 H464 0.930 . S
C470 C471 1.355 . S
C470 C472 1.415 . S
C471 C470 1.355 . S
C471 C473 1.419 . S
C472 C470 1.415 . S
C472 C477 1.425 . S
C472 C479 1.409 . S
C473 H465 0.930 . S
C473 C471 1.419 . S
C473 C474 1.362 . S
C474 H466 0.930 . S
C474 C473 1.362 . S
C474 C477 1.409 . S
C475 H467 0.930 . S
C475 C476 1.355 . S
C475 C477 1.415 . S
C476 C475 1.355 . S
C476 C478 1.419 . S
C477 C472 1.425 . S
C477 C474 1.409 . S
C477 C475 1.415 . S
C478 H468 0.930 . S
C478 C476 1.419 . S
C478 C479 1.362 . S
C479 H469 0.930 . S
C479 C472 1.409 . S
C479 C478 1.362 . S
H480 C486 0.930 . S
H481 C489 0.930 . S
H482 C490 0.930 . S
H483 C491 0.930 . S
H484 C494 0.930 1_545 S
H485 C495 0.930 . S
C486 H480 0.930 . S
C486 C487 1.355 . S
C486 C488 1.415 . S
C487 C486 1.355 . S
C487 C489 1.419 . S
C488 C486 1.415 . S
C488 C493 1.425 . S
C488 C495 1.409 . S
C489 H481 0.930 . S
C489 C487 1.419 . S
C489 C490 1.362 . S
C490 H482 0.930 . S
C490 C489 1.362 . S
C490 C493 1.409 . S
C491 H483 0.930 . S
C491 C492 1.355 . S
C491 C493 1.415 . S
C492 C491 1.355 . S
C492 C494 1.419 . S
C493 C488 1.425 . S
C493 C490 1.409 . S
C493 C491 1.415 . S
C494 H484 0.930 1_565 S
C494 C492 1.419 . S
C494 C495 1.362 . S
C495 H485 0.930 . S
C495 C488 1.409 . S
C495 C494 1.362 . S
H496 C502 0.930 . S
H497 C505 0.930 . S
H498 C506 0.930 . S
H499 C507 0.930 . S
H500 C510 0.930 . S
H501 C511 0.930 . S
C502 H496 0.930 . S
C502 C503 1.355 . S
C502 C504 1.415 . S
C503 C502 1.355 . S
C503 C505 1.419 . S
C504 C502 1.415 . S
C504 C509 1.425 . S
C504 C511 1.409 . S
C505 H497 0.930 . S
C505 C503 1.419 . S
C505 C506 1.362 . S
C506 H498 0.930 . S
C506 C505 1.362 . S
C506 C509 1.409 . S
C507 H499 0.930 . S
C507 C508 1.355 . S
C507 C509 1.415 . S
C508 C507 1.355 . S
C508 C510 1.419 . S
C509 C504 1.425 . S
C509 C506 1.409 . S
C509 C507 1.415 . S
C510 H500 0.930 . S
C510 C508 1.419 . S
C510 C511 1.362 . S
C511 H501 0.930 . S
C511 C504 1.409 . S
C511 C510 1.362 . S
H512 C518 0.930 . S
H513 C521 0.930 . S
H514 C522 0.930 . S
H515 C523 0.930 . S
H516 C526 0.930 . S
H517 C527 0.930 . S
C518 H512 0.930 . S
C518 C519 1.355 . S
C518 C520 1.415 . S
C519 C518 1.355 . S
C519 C521 1.419 . S
C520 C518 1.415 . S
C520 C525 1.425 . S
C520 C527 1.409 . S
C521 H513 0.930 . S
C521 C519 1.419 . S
C521 C522 1.362 . S
C522 H514 0.930 . S
C522 C521 1.362 . S
C522 C525 1.409 . S
C523 H515 0.930 . S
C523 C524 1.355 . S
C523 C525 1.415 . S
C524 C523 1.355 . S
C524 C526 1.419 . S
C525 C520 1.425 . S
C525 C522 1.409 . S
C525 C523 1.415 . S
C526 H516 0.930 . S
C526 C524 1.419 . S
C526 C527 1.362 . S
C527 H517 0.930 . S
C527 C520 1.409 . S
C527 C526 1.362 . S
H528 C534 0.930 . S
H529 C537 0.930 . S
H530 C538 0.930 . S
H531 C539 0.930 . S
H532 C542 0.930 . S
H533 C543 0.930 . S
C534 H528 0.930 . S
C534 C535 1.355 . S
C534 C536 1.415 . S
C535 C534 1.355 . S
C535 C537 1.419 . S
C536 C534 1.415 . S
C536 C541 1.425 . S
C536 C543 1.409 . S
C537 H529 0.930 . S
C537 C535 1.419 . S
C537 C538 1.362 . S
C538 H530 0.930 . S
C538 C537 1.362 . S
C538 C541 1.409 . S
C539 H531 0.930 . S
C539 C540 1.355 . S
C539 C541 1.415 . S
C540 C539 1.355 . S
C540 C542 1.419 . S
C541 C536 1.425 . S
C541 C538 1.409 . S
C541 C539 1.415 . S
C542 H532 0.930 . S
C542 C540 1.419 . S
C542 C543 1.362 . S
C543 H533 0.930 . S
C543 C536 1.409 . S
C543 C542 1.362 . S
H544 C550 0.930 . S
H545 C553 0.930 . S
H546 C554 0.930 . S
H547 C555 0.930 . S
H548 C558 0.930 . S
H549 C559 0.930 . S
C550 H544 0.930 . S
C550 C551 1.355 . S
C550 C552 1.415 . S
C551 C550 1.355 . S
C551 C553 1.419 . S
C552 C550 1.415 . S
C552 C557 1.425 . S
C552 C559 1.409 . S
C553 H545 0.930 . S
C553 C551 1.419 . S
C553 C554 1.362 . S
C554 H546 0.930 . S
C554 C553 1.362 . S
C554 C557 1.409 . S
C555 H547 0.930 . S
C555 C556 1.355 . S
C555 C557 1.415 . S
C556 C555 1.355 . S
C556 C558 1.419 . S
C557 C552 1.425 . S
C557 C554 1.409 . S
C557 C555 1.415 . S
C558 H548 0.930 . S
C558 C556 1.419 . S
C558 C559 1.362 . S
C559 H549 0.930 . S
C559 C552 1.409 . S
C559 C558 1.362 . S
H560 C566 0.930 . S
H561 C569 0.930 . S
H562 C570 0.930 . S
H563 C571 0.930 . S
H564 C574 0.930 . S
H565 C575 0.930 . S
C566 H560 0.930 . S
C566 C567 1.355 . S
C566 C568 1.415 . S
C567 C566 1.355 . S
C567 C569 1.419 . S
C568 C566 1.415 . S
C568 C573 1.425 . S
C568 C575 1.409 . S
C569 H561 0.930 . S
C569 C567 1.419 . S
C569 C570 1.362 . S
C570 H562 0.930 . S
C570 C569 1.362 . S
C570 C573 1.409 . S
C571 H563 0.930 . S
C571 C572 1.355 . S
C571 C573 1.415 . S
C572 C571 1.355 . S
C572 C574 1.419 . S
C573 C568 1.425 . S
C573 C570 1.409 . S
C573 C571 1.415 . S
C574 H564 0.930 . S
C574 C572 1.419 . S
C574 C575 1.362 . S
C575 H565 0.930 . S
C575 C568 1.409 . S
C575 C574 1.362 . S
H576 C582 0.930 . S
H577 C585 0.930 . S
H578 C586 0.930 . S
H579 C587 0.930 . S
H580 C590 0.930 . S
H581 C591 0.930 . S
C582 H576 0.930 . S
C582 C583 1.355 . S
C582 C584 1.415 . S
C583 C582 1.355 . S
C583 C585 1.419 . S
C584 C582 1.415 . S
C584 C589 1.425 . S
C584 C591 1.409 . S
C585 H577 0.930 . S
C585 C583 1.419 . S
C585 C586 1.362 . S
C586 H578 0.930 . S
C586 C585 1.362 . S
C586 C589 1.409 . S
C587 H579 0.930 . S
C587 C588 1.355 . S
C587 C589 1.415 . S
C588 C587 1.355 . S
C588 C590 1.419 . S
C589 C584 1.425 . S
C589 C586 1.409 . S
C589 C587 1.415 . S
C590 H580 0.930 . S
C590 C588 1.419 . S
C590 C591 1.362 . S
C591 H581 0.930 . S
C591 C584 1.409 . S
C591 C590 1.362 . S
H592 C598 0.930 . S
H593 C601 0.930 . S
H594 C602 0.930 . S
H595 C603 0.930 . S
H596 C606 0.930 . S
H597 C607 0.930 . S
C598 H592 0.930 . S
C598 C599 1.355 . S
C598 C600 1.415 . S
C599 C598 1.355 . S
C599 C601 1.419 . S
C600 C598 1.415 . S
C600 C605 1.425 . S
C600 C607 1.409 . S
C601 H593 0.930 . S
C601 C599 1.419 . S
C601 C602 1.362 . S
C602 H594 0.930 . S
C602 C601 1.362 . S
C602 C605 1.409 . S
C603 H595 0.930 . S
C603 C604 1.355 . S
C603 C605 1.415 . S
C604 C603 1.355 . S
C604 C606 1.419 . S
C605 C600 1.425 . S
C605 C602 1.409 . S
C605 C603 1.415 . S
C606 H596 0.930 . S
C606 C604 1.419 . S
C606 C607 1.362 . S
C607 H597 0.930 . S
C607 C600 1.409 . S
C607 C606 1.362 . S
H608 C614 0.930 . S
H609 C617 0.930 . S
H610 C618 0.930 . S
H611 C619 0.930 . S
H612 C622 0.930 . S
H613 C623 0.930 . S
C614 H608 0.930 . S
C614 C615 1.355 . S
C614 C616 1.415 . S
C615 C614 1.355 . S
C615 C617 1.419 . S
C616 C614 1.415 . S
C616 C621 1.425 . S
C616 C623 1.409 . S
C617 H609 0.930 . S
C617 C615 1.419 . S
C617 C618 1.362 . S
C618 H610 0.930 . S
C618 C617 1.362 . S
C618 C621 1.409 . S
C619 H611 0.930 . S
C619 C620 1.355 . S
C619 C621 1.415 . S
C620 C619 1.355 . S
C620 C622 1.419 . S
C621 C616 1.425 . S
C621 C618 1.409 . S
C621 C619 1.415 . S
C622 H612 0.930 . S
C622 C620 1.419 . S
C622 C623 1.362 . S
C623 H613 0.930 . S
C623 C616 1.409 . S
C623 C622 1.362 . S
H624 C630 0.930 . S
H625 C633 0.930 . S
H626 C634 0.930 . S
H627 C635 0.930 . S
H628 C638 0.930 . S
H629 C639 0.930 . S
C630 H624 0.930 . S
C630 C631 1.355 . S
C630 C632 1.415 . S
C631 C630 1.355 . S
C631 C633 1.419 . S
C632 C630 1.415 . S
C632 C637 1.425 . S
C632 C639 1.409 . S
C633 H625 0.930 . S
C633 C631 1.419 . S
C633 C634 1.362 . S
C634 H626 0.930 . S
C634 C633 1.362 . S
C634 C637 1.409 . S
C635 H627 0.930 . S
C635 C636 1.355 . S
C635 C637 1.415 . S
C636 C635 1.355 . S
C636 C638 1.419 . S
C637 C632 1.425 . S
C637 C634 1.409 . S
C637 C635 1.415 . S
C638 H628 0.930 . S
C638 C636 1.419 . S
C638 C639 1.362 . S
C639 H629 0.930 . S
C639 C632 1.409 . S
C639 C638 1.362 . S
H640 C646 0.930 . S
H641 C649 0.930 . S
H642 C650 0.930 . S
H643 C651 0.930 . S
H644 C654 0.930 . S
H645 C655 0.930 . S
C646 H640 0.930 . S
C646 C647 1.355 . S
C646 C648 1.415 . S
C647 C646 1.355 . S
C647 C649 1.419 . S
C648 C646 1.415 . S
C648 C653 1.425 . S
C648 C655 1.409 . S
C649 H641 0.930 . S
C649 C647 1.419 . S
C649 C650 1.362 . S
C650 H642 0.930 . S
C650 C649 1.362 . S
C650 C653 1.409 . S
C651 H643 0.930 . S
C651 C652 1.355 . S
C651 C653 1.415 . S
C652 C651 1.355 . S
C652 C654 1.419 . S
C653 C648 1.425 . S
C653 C650 1.409 . S
C653 C651 1.415 . S
C654 H644 0.930 . S
C654 C652 1.419 . S
C654 C655 1.362 . S
C655 H645 0.930 . S
C655 C648 1.409 . S
C655 C654 1.362 . S
H656 C662 0.930 . S
H657 C665 0.930 . S
H658 C666 0.930 . S
H659 C667 0.930 . S
H660 C670 0.930 . S
H661 C671 0.930 . S
C662 H656 0.930 . S
C662 C663 1.355 . S
C662 C664 1.415 . S
C663 C662 1.355 . S
C663 C665 1.419 . S
C664 C662 1.415 . S
C664 C669 1.425 . S
C664 C671 1.409 . S
C665 H657 0.930 . S
C665 C663 1.419 . S
C665 C666 1.362 . S
C666 H658 0.930 . S
C666 C665 1.362 . S
C666 C669 1.409 . S
C667 H659 0.930 . S
C667 C668 1.355 . S
C667 C669 1.415 . S
C668 C667 1.355 . S
C668 C670 1.419 . S
C669 C664 1.425 . S
C669 C666 1.409 . S
C669 C667 1.415 . S
C670 H660 0.930 . S
C670 C668 1.419 . S
C670 C671 1.362 . S
C671 H661 0.930 . S
C671 C664 1.409 . S
C671 C670 1.362 . S
H672 C678 0.930 . S
H673 C681 0.930 . S
H674 C682 0.930 . S
H675 C683 0.930 . S
H676 C686 0.930 . S
H677 C687 0.930 . S
C678 H672 0.930 . S
C678 C679 1.355 . S
C678 C680 1.415 . S
C679 C678 1.355 . S
C679 C681 1.419 . S
C680 C678 1.415 . S
C680 C685 1.425 . S
C680 C687 1.409 . S
C681 H673 0.930 . S
C681 C679 1.419 . S
C681 C682 1.362 . S
C682 H674 0.930 . S
C682 C681 1.362 . S
C682 C685 1.409 . S
C683 H675 0.930 . S
C683 C684 1.355 . S
C683 C685 1.415 . S
C684 C683 1.355 . S
C684 C686 1.419 . S
C685 C680 1.425 . S
C685 C682 1.409 . S
C685 C683 1.415 . S
C686 H676 0.930 . S
C686 C684 1.419 . S
C686 C687 1.362 . S
C687 H677 0.930 . S
C687 C680 1.409 . S
C687 C686 1.362 . S
H688 C694 0.930 . S
H689 C697 0.930 . S
H690 C698 0.930 . S
H691 C699 0.930 . S
H692 C702 0.930 . S
H693 C703 0.930 . S
C694 H688 0.930 . S
C694 C695 1.355 . S
C694 C696 1.415 . S
C695 C694 1.355 . S
C695 C697 1.419 . S
C696 C694 1.415 . S
C696 C701 1.425 . S
C696 C703 1.409 . S
C697 H689 0.930 . S
C697 C695 1.419 . S
C697 C698 1.362 . S
C698 H690 0.930 . S
C698 C697 1.362 . S
C698 C701 1.409 . S
C699 H691 0.930 . S
C699 C700 1.355 . S
C699 C701 1.415 . S
C700 C699 1.355 . S
C700 C702 1.419 . S
C701 C696 1.425 . S
C701 C698 1.409 . S
C701 C699 1.415 . S
C702 H692 0.930 . S
C702 C700 1.419 . S
C702 C703 1.362 . S
C703 H693 0.930 . S
C703 C696 1.409 . S
C703 C702 1.362 . S
H704 C710 0.930 . S
H705 C713 0.930 . S
H706 C714 0.930 . S
H707 C715 0.930 . S
H708 C718 0.930 . S
H709 C719 0.930 . S
C710 H704 0.930 . S
C710 C711 1.355 . S
C710 C712 1.415 . S
C711 C710 1.355 . S
C711 C713 1.419 . S
C712 C710 1.415 . S
C712 C717 1.425 . S
C712 C719 1.409 . S
C713 H705 0.930 . S
C713 C711 1.419 . S
C713 C714 1.362 . S
C714 H706 0.930 . S
C714 C713 1.362 . S
C714 C717 1.409 . S
C715 H707 0.930 . S
C715 C716 1.355 . S
C715 C717 1.415 . S
C716 C715 1.355 . S
C716 C718 1.419 . S
C717 C712 1.425 . S
C717 C714 1.409 . S
C717 C715 1.415 . S
C718 H708 0.930 . S
C718 C716 1.419 . S
C718 C719 1.362 . S
C719 H709 0.930 . S
C719 C712 1.409 . S
C719 C718 1.362 . S
H720 C726 0.930 . S
H721 C729 0.930 . S
H722 C730 0.930 . S
H723 C731 0.930 . S
H724 C734 0.930 . S
H725 C735 0.930 . S
C726 H720 0.930 . S
C726 C727 1.355 . S
C726 C728 1.415 . S
C727 C726 1.355 . S
C727 C729 1.419 . S
C728 C726 1.415 . S
C728 C733 1.425 . S
C728 C735 1.409 . S
C729 H721 0.930 . S
C729 C727 1.419 . S
C729 C730 1.362 . S
C730 H722 0.930 . S
C730 C729 1.362 . S
C730 C733 1.409 . S
C731 H723 0.930 . S
C731 C732 1.355 . S
C731 C733 1.415 . S
C732 C731 1.355 . S
C732 C734 1.419 . S
C733 C728 1.425 . S
C733 C730 1.409 . S
C733 C731 1.415 . S
C734 H724 0.930 . S
C734 C732 1.419 . S
C734 C735 1.362 . S
C735 H725 0.930 . S
C735 C728 1.409 . S
C735 C734 1.362 . S
C231 C203 1.522 . S
C236 C7 1.522 . S
C247 C39 1.521 . S
C252 C11 1.521 . S
C263 C165 1.521 . S
C268 C25 1.521 . S
C279 C21 1.503 . S
C284 C105 1.503 . S
C295 C35 1.519 . S
C300 C175 1.519 . S
C311 C137 1.511 . S
C316 C53 1.511 . S
C327 C49 1.519 . S
C332 C77 1.519 . S
C343 C147 1.511 . S
C348 C63 1.511 . S
C359 C67 1.520 . S
C364 C95 1.520 . S
C375 C221 1.521 . S
C380 C81 1.521 . S
C391 C119 1.528 . S
C396 C91 1.528 . S
C407 C193 1.517 . S
C412 C109 1.517 . S
C423 C123 1.509 . S
C428 C151 1.509 . S
C439 C217 1.521 . S
C444 C133 1.521 . S
C455 C161 1.518 . S
C460 C189 1.518 . S
C471 C207 1.489 . S
C476 C179 1.489 . S
C487 C78 1.176 . S
C492 C13 1.171 . S
C503 C8 1.199 . S
C508 C83 1.199 . S
C519 C22 1.227 . S
C524 C69 1.227 . S
C535 C64 1.215 . S
C540 C27 1.180 . S
C551 C106 1.243 . S
C556 C41 1.239 . S
C567 C111 1.239 . S
C572 C36 1.242 . S
C583 C97 1.188 . S
C588 C50 1.221 . S
C599 C55 1.164 . S
C604 C92 1.201 . S
C615 C190 1.166 . S
C620 C125 1.135 . S
C631 C120 1.235 . S
C636 C195 1.234 . S
C647 C134 1.251 . S
C652 C181 1.242 . S
C663 C176 1.243 . S
C668 C139 1.217 . S
C679 C218 1.224 . S
C684 C153 1.225 . S
C695 C223 1.217 . S
C700 C148 1.243 . S
C711 C162 1.233 . S
C716 C209 1.203 . S
C727 C204 1.173 . S
C732 C167 1.139 . S
