# Generated by pormake.
# Topology twt, (3)-cn, num edge types: 1
# Building blocks:
#     Node 0, Type 0, BuildingBlock: WUSLED_clean_sbu_0, # of connection points: 3
#     Node 1, Type 0, BuildingBlock: WUSLED_clean_sbu_0, # of connection points: 3
#     Node 2, Type 0, BuildingBlock: WUSLED_clean_sbu_0, # of connection points: 3
#     Node 3, Type 0, BuildingBlock: WUSLED_clean_sbu_0, # of connection points: 3
#     Node 4, Type 0, BuildingBlock: WUSLED_clean_sbu_0, # of connection points: 3
#     Node 5, Type 0, BuildingBlock: WUSLED_clean_sbu_0, # of connection points: 3
#     Edge 6, Type (0, 0), BuildingBlock: EZIPEK_clean_linker_0, # of connection points: 2
#     Edge 7, Type (0, 0), BuildingBlock: EZIPEK_clean_linker_0, # of connection points: 2
#     Edge 8, Type (0, 0), BuildingBlock: EZIPEK_clean_linker_0, # of connection points: 2
#     Edge 9, Type (0, 0), BuildingBlock: EZIPEK_clean_linker_0, # of connection points: 2
#     Edge 10, Type (0, 0), BuildingBlock: EZIPEK_clean_linker_0, # of connection points: 2
#     Edge 11, Type (0, 0), BuildingBlock: EZIPEK_clean_linker_0, # of connection points: 2
#     Edge 12, Type (0, 0), BuildingBlock: EZIPEK_clean_linker_0, # of connection points: 2
#     Edge 13, Type (0, 0), BuildingBlock: EZIPEK_clean_linker_0, # of connection points: 2
#     Edge 14, Type (0, 0), BuildingBlock: EZIPEK_clean_linker_0, # of connection points: 2
# Relax obj value: 0.000
# Max RMSD: 0.004
# Mean RMSD: 0.004
data_MOF--net-twt--node1-WUSLED_clean_sbu_0--edge1-EZIPEK_clean_linker_0
_symmetry_space_group_name_H-M    P1
_symmetry_Int_Tables_number       1
_symmetry_cell_setting            triclinic
loop_
_symmetry_equiv_pos_as_xyz
'x, y, z'
_cell_length_a     55.468268
_cell_length_b     55.290463
_cell_length_c     14.911527
_cell_angle_alpha  90.242426
_cell_angle_beta   90.225635
_cell_angle_gamma 119.64552
loop_
_atom_site_label
_atom_site_type_symbol
_atom_site_fract_x
_atom_site_fract_y
_atom_site_fract_z
_atom_type_partial_charge
C0 C 0.68068 0.30247 0.33794 0.0
C1 C 0.6977 0.3163 0.4125 0.0
C2 C 0.6899 0.3556 0.39096 0.0
C3 C 0.70222 0.34264 0.43884 0.0
C4 C 0.67329 0.342 0.31581 0.0
C5 C 0.66869 0.31568 0.28971 0.0
U6 U 0.69904 0.24451 0.28804 0.0
O7 O 0.67573 0.19995 0.32258 0.0
O8 O 0.68289 0.21255 0.18155 0.0
C9 C 0.67066 0.19186 0.23828 0.0
C10 C 0.67392 0.27387 0.31154 0.0
C11 C 0.64194 0.17012 0.21604 0.0
C12 C 0.59582 0.15522 0.15484 0.0
C13 C 0.6224 0.17658 0.17953 0.0
C14 C 0.60782 0.12081 0.20427 0.0
C15 C 0.58842 0.12715 0.16649 0.0
C16 C 0.63432 0.1421 0.22875 0.0
C17 C 0.7755 0.2609 0.31178 0.0
C18 C 0.80005 0.24002 0.23812 0.0
C19 C 0.81889 0.26712 0.37422 0.0
C20 C 0.79636 0.27187 0.37798 0.0
C21 C 0.82105 0.25135 0.30393 0.0
C22 C 0.77741 0.24471 0.24202 0.0
C23 C 0.75294 0.26791 0.31521 0.0
O24 O 0.68328 0.27117 0.23344 0.0
O25 O 0.67595 0.2583 0.37422 0.0
O26 O 0.73462 0.25624 0.37935 0.0
O27 O 0.74175 0.26883 0.23829 0.0
H28 H 0.70726 0.30667 0.45098 0.0
H29 H 0.71516 0.35284 0.49689 0.0
H30 H 0.66364 0.35167 0.27797 0.0
H31 H 0.65542 0.30543 0.23229 0.0
H32 H 0.58113 0.16053 0.12579 0.0
H33 H 0.6278 0.19805 0.16917 0.0
H34 H 0.60253 0.09933 0.21385 0.0
H35 H 0.64905 0.13664 0.25665 0.0
H36 H 0.80132 0.22773 0.18351 0.0
H37 H 0.83484 0.27599 0.42566 0.0
H38 H 0.7954 0.28448 0.43218 0.0
H39 H 0.76161 0.23597 0.19011 0.0
C40 C 0.62302 0.5555 0.68019 0.0
C41 C 0.62306 0.57997 0.65445 0.0
C42 C 0.57887 0.56448 0.72978 0.0
C43 C 0.60111 0.58439 0.67897 0.0
C44 C 0.57913 0.54032 0.7567 0.0
C45 C 0.60097 0.53587 0.73202 0.0
U46 U 0.69857 0.57509 0.61958 0.0
O47 O 0.72102 0.55258 0.65264 0.0
O48 O 0.71315 0.5582 0.51209 0.0
C49 C 0.72272 0.54663 0.56828 0.0
C50 C 0.64489 0.54924 0.65127 0.0
C51 C 0.71585 0.51764 0.54814 0.0
C52 C 0.68567 0.47165 0.48369 0.0
C53 C 0.6906 0.49833 0.50741 0.0
C54 C 0.73082 0.48299 0.54279 0.0
C55 C 0.70587 0.46387 0.50053 0.0
C56 C 0.73575 0.50962 0.56626 0.0
C57 C 0.75735 0.65226 0.6317 0.0
C58 C 0.80712 0.67151 0.65427 0.0
C59 C 0.78952 0.70102 0.5995 0.0
C60 C 0.76244 0.67846 0.60227 0.0
C61 C 0.81206 0.69783 0.62641 0.0
C62 C 0.77998 0.64887 0.65678 0.0
C63 C 0.72827 0.62949 0.6399 0.0
O64 O 0.65558 0.55802 0.57145 0.0
O65 O 0.66352 0.55255 0.71205 0.0
O66 O 0.72292 0.61179 0.70562 0.0
O67 O 0.71531 0.61742 0.56484 0.0
H68 H 0.63983 0.59547 0.6146 0.0
H69 H 0.6013 0.60319 0.65762 0.0
H70 H 0.56222 0.52473 0.79594 0.0
H71 H 0.60047 0.51685 0.75252 0.0
H72 H 0.66628 0.45718 0.45117 0.0
H73 H 0.67489 0.50399 0.49277 0.0
H74 H 0.74664 0.47741 0.55642 0.0
H75 H 0.75538 0.52416 0.59738 0.0
H76 H 0.82424 0.66862 0.67525 0.0
H77 H 0.79287 0.72112 0.57775 0.0
H78 H 0.74534 0.68159 0.5828 0.0
H79 H 0.77665 0.62888 0.67961 0.0
C80 C 0.31039 0.49757 0.00154 0.0
C81 C 0.29761 0.50071 0.07869 0.0
C82 C 0.25795 0.45424 0.05638 0.0
C83 C 0.27161 0.47919 0.1059 0.0
C84 C 0.2705 0.45126 0.97879 0.0
C85 C 0.29648 0.47269 0.9518 0.0
U86 U 0.36746 0.57309 0.94636 0.0
O87 O 0.4122 0.59428 0.97684 0.0
O88 O 0.398 0.58754 0.83676 0.0
C89 C 0.41925 0.59612 0.89195 0.0
C90 C 0.33863 0.51906 0.97374 0.0
C91 C 0.44073 0.58864 0.86791 0.0
C92 C 0.47084 0.56949 0.90486 0.0
C93 C 0.44887 0.57414 0.92698 0.0
C94 C 0.47658 0.59324 0.76388 0.0
C95 C 0.48499 0.57922 0.82343 0.0
C96 C 0.45472 0.59795 0.78601 0.0
C97 C 0.35053 0.63331 0.96487 0.0
C98 C 0.3811 0.68303 0.99002 0.0
C99 C 0.33444 0.66625 0.93375 0.0
C100 C 0.32973 0.63893 0.93535 0.0
C101 C 0.36005 0.6885 0.96191 0.0
C102 C 0.37641 0.65564 0.99139 0.0
C103 C 0.34401 0.60395 0.97132 0.0
O104 O 0.3406 0.53042 0.8949 0.0
O105 O 0.35462 0.5371 0.03514 0.0
O106 O 0.35649 0.59795 0.03549 0.0
O107 O 0.3424 0.59111 0.89529 0.0
H108 H 0.30778 0.51963 0.11848 0.0
H109 H 0.26221 0.48189 0.16587 0.0
H110 H 0.26029 0.4322 0.93966 0.0
H111 H 0.30591 0.46968 0.89241 0.0
H112 H 0.47701 0.55859 0.95163 0.0
H113 H 0.43859 0.56676 0.99072 0.0
H114 H 0.48722 0.6009 0.70077 0.0
H115 H 0.44902 0.60935 0.73961 0.0
H116 H 0.40101 0.69993 0.01197 0.0
H117 H 0.31795 0.67001 0.91179 0.0
H118 H 0.30961 0.62207 0.9148 0.0
H119 H 0.39282 0.6519 0.01434 0.0
C120 C 0.06043 0.18873 0.34364 0.0
C121 C 1.03445 0.16512 0.32654 0.0
C122 C 0.05044 0.13523 0.3929 0.0
C123 C 1.02953 0.13856 0.35089 0.0
C124 C 0.07621 0.15888 0.41101 0.0
C125 C 0.08114 0.18536 0.38652 0.0
U126 U 0.0409 0.24517 0.28519 0.0
O127 O 0.06343 0.28998 0.31926 0.0
O128 O 0.05721 0.27652 0.1784 0.0
C129 C 0.06897 0.29756 0.23504 0.0
C130 C 0.06684 0.21692 0.31557 0.0
C131 C 0.09775 0.31943 0.21503 0.0
C132 C 0.14308 0.33498 0.14794 0.0
C133 C 0.11667 0.31341 0.17167 0.0
C134 C 0.13227 0.36876 0.21231 0.0
C135 C 0.15097 0.36285 0.16738 0.0
C136 C 0.10592 0.34725 0.23579 0.0
C137 C 0.96383 0.22739 0.29797 0.0
C138 C 0.94358 0.25699 0.3275 0.0
C139 C 0.91538 0.21136 0.26082 0.0
C140 C 0.93816 0.20696 0.26295 0.0
C141 C 0.91779 0.23626 0.29401 0.0
C142 C 0.96645 0.25263 0.32937 0.0
C143 C 0.98676 0.22102 0.30559 0.0
O144 O 0.05774 0.21897 0.23596 0.0
O145 O 0.06379 0.23234 0.37684 0.0
O146 O 1.00468 0.23322 0.37141 0.0
O147 O 0.99848 0.21999 0.23031 0.0
H148 H 1.01813 0.16721 0.29373 0.0
H149 H 1.0095 0.12057 0.33641 0.0
H150 H 0.09259 0.15678 0.44341 0.0
H151 H 0.10131 0.20325 0.40034 0.0
H152 H 0.15722 0.33 0.11333 0.0
H153 H 0.11091 0.29213 0.15493 0.0
H154 H 0.13795 0.39008 0.22797 0.0
H155 H 0.09168 0.35241 0.26894 0.0
H156 H 0.94586 0.27636 0.35336 0.0
H157 H 0.89569 0.19513 0.23467 0.0
H158 H 0.9356 0.18733 0.23864 0.0
H159 H 0.98599 0.26876 0.35666 0.0
C160 C 0.11432 0.93369 0.6782 0.0
C161 C 0.11385 0.90877 0.65502 0.0
C162 C 0.15846 0.92483 0.72988 0.0
C163 C 0.1358 0.90441 0.68058 0.0
C164 C 0.15862 0.94944 0.75444 0.0
C165 C 0.13678 0.95383 0.72872 0.0
U166 U 0.03864 0.91457 0.61829 0.0
O167 O 1.01734 0.93845 0.64518 0.0
O168 O 1.02378 0.92986 0.50622 0.0
C169 C 1.01526 0.94301 0.55976 0.0
C170 C 0.09258 0.93995 0.64726 0.0
C171 C 1.0228 0.9718 0.53426 0.0
C172 C 0.046 1.02179 0.56376 0.0
C173 C 0.0409 0.99507 0.58672 0.0
C174 C 1.01553 1.00255 0.43485 0.0
C175 C 1.03318 0.02568 0.48799 0.0
C176 C 1.01036 0.97588 0.45788 0.0
C177 C 0.97884 0.83835 0.64403 0.0
C178 C 0.93316 0.8151 0.57267 0.0
C179 C 0.94212 0.79446 0.70243 0.0
C180 C 0.96935 0.81673 0.70674 0.0
C181 C 0.92385 0.79336 0.6351 0.0
C182 C 0.96046 0.83747 0.57712 0.0
C183 C 1.00816 0.86084 0.64866 0.0
O184 O 0.08101 0.92965 0.56886 0.0
O185 O 0.07472 0.93842 0.70776 0.0
O186 O 1.01434 0.87996 0.71089 0.0
O187 O 1.0206 0.87114 0.57201 0.0
H188 H 0.09677 0.89287 0.61618 0.0
H189 H 0.13528 0.88526 0.66105 0.0
H190 H 0.17587 0.96543 0.79251 0.0
H191 H 0.13763 0.97321 0.7472 0.0
H192 H 0.05974 0.0394 0.60548 0.0
H193 H 0.0508 0.99258 0.64596 0.0
H194 H 1.00547 1.00512 0.37614 0.0
H195 H 0.99627 0.9583 0.41662 0.0
H196 H 0.91933 0.81465 0.5204 0.0
H197 H 0.93533 0.77795 0.75128 0.0
H198 H 0.98315 0.81694 0.75877 0.0
H199 H 0.96725 0.85392 0.52804 0.0
C200 C 0.42768 0.99271 0.00139 0.0
C201 C 0.44201 0.98881 0.07292 0.0
C202 C 0.48051 0.03609 0.05551 0.0
C203 C 0.46821 1.01037 0.09984 0.0
C204 C 0.46638 0.03983 0.9834 0.0
C205 C 0.4402 1.01835 0.95673 0.0
U206 U 0.37015 0.91673 0.95113 0.0
O207 O 0.32559 0.89621 0.98191 0.0
O208 O 0.33902 0.90112 0.84176 0.0
C209 C 0.31809 0.89339 0.897 0.0
C210 C 0.39934 0.97106 0.9741 0.0
C211 C 0.29669 0.90087 0.87165 0.0
C212 C 0.26737 0.92111 0.90591 0.0
C213 C 0.28933 0.91649 0.92881 0.0
C214 C 0.2601 0.89514 0.76782 0.0
C215 C 0.25245 0.91026 0.82558 0.0
C216 C 0.28195 0.89045 0.79075 0.0
C217 C 0.38622 0.85626 0.97866 0.0
C218 C 0.36377 0.81024 0.90864 0.0
C219 C 0.39352 0.81941 0.03845 0.0
C220 C 0.39844 0.84679 0.0419 0.0
C221 C 0.37632 0.80097 0.97146 0.0
C222 C 0.36864 0.83768 0.91224 0.0
C223 C 0.39323 0.88581 0.98167 0.0
O224 O 0.39708 0.9587 0.89656 0.0
O225 O 0.38357 0.95384 0.03658 0.0
O226 O 0.38114 0.89275 0.0444 0.0
O227 O 0.39464 0.89777 0.90433 0.0
H228 H 0.43288 0.96924 0.10848 0.0
H229 H 0.47884 1.00708 0.15549 0.0
H230 H 0.47552 0.05948 0.9483 0.0
H231 H 0.42956 1.02189 0.90162 0.0
H232 H 0.2618 0.93288 0.95127 0.0
H233 H 0.30021 0.92476 0.99173 0.0
H234 H 0.24886 0.88661 0.70557 0.0
H235 H 0.28704 0.87819 0.74584 0.0
H236 H 0.35037 0.79627 0.8566 0.0
H237 H 0.40334 0.81265 0.08757 0.0
H238 H 0.4121 0.86074 0.09354 0.0
H239 H 0.35894 0.84444 0.86272 0.0
C240 C 0.67813 0.3852 0.49091 0.0
C241 C 0.69411 0.38335 0.41976 0.0
C242 C 0.71559 0.43378 0.39599 0.0
C243 C 0.70136 0.43597 0.4719 0.0
N244 N 0.67216 0.41457 0.5998 0.0
N245 N 0.73096 0.40608 0.31277 0.0
C246 C 0.68342 0.41187 0.52159 0.0
C247 C 0.71368 0.40773 0.37458 0.0
N248 N 0.65734 0.3614 0.52752 0.0
N249 N 0.73022 0.45643 0.34257 0.0
H250 H 0.72993 0.38735 0.29461 0.0
H251 H 0.74774 0.42343 0.28477 0.0
H252 H 0.7321 0.47583 0.35597 0.0
H253 H 0.73855 0.45553 0.28104 0.0
H254 H 0.64288 0.36117 0.57231 0.0
H255 H 0.65315 0.34155 0.50789 0.0
H256 H 0.66145 0.3983 0.64436 0.0
H257 H 0.67537 0.43368 0.62398 0.0
C258 C 0.55789 0.58784 0.8217 0.0
C259 C 0.55492 0.56853 0.75348 0.0
C260 C 0.50546 0.55426 0.73799 0.0
C261 C 0.509 0.57519 0.80067 0.0
N262 N 0.53939 0.61479 0.8924 0.0
N263 N 0.52718 0.53648 0.63634 0.0
C264 C 0.53547 0.59279 0.83988 0.0
C265 C 0.52902 0.55257 0.70879 0.0
N266 N 0.58184 0.60079 0.87118 0.0
N267 N 0.47941 0.5355 0.70821 0.0
H268 H 0.54395 0.53475 0.61282 0.0
H269 H 0.50976 0.52673 0.59486 0.0
H270 H 0.46172 0.53622 0.72757 0.0
H271 H 0.475 0.5179 0.67037 0.0
H272 H 0.5842 0.61269 0.92826 0.0
H273 H 0.59874 0.59783 0.85957 0.0
H274 H 0.5588 0.63024 0.9146 0.0
H275 H 0.52344 0.6189 0.90811 0.0
C276 C 0.22931 0.41284 0.155 0.0
C277 C 0.23053 0.43101 0.08587 0.0
C278 C 0.18003 0.40285 0.06451 0.0
C279 C 0.17853 0.38607 0.13855 0.0
N280 N 0.20102 0.3774 0.26294 0.0
N281 N 0.2069 0.44602 0.98358 0.0
C282 C 0.203 0.39168 0.18617 0.0
C283 C 0.20581 0.42676 0.04307 0.0
N284 N 0.25335 0.41531 0.18912 0.0
N285 N 0.15696 0.39537 0.01275 0.0
H286 H 0.22541 0.4636 0.96553 0.0
H287 H 0.18937 0.44585 0.95763 0.0
H288 H 0.13774 0.37803 0.0262 0.0
H289 H 0.15731 0.40489 0.95232 0.0
H290 H 0.25396 0.40083 0.23211 0.0
H291 H 0.27296 0.43078 0.16905 0.0
H292 H 0.21766 0.38255 0.30624 0.0
H293 H 0.18219 0.36165 0.2874 0.0
C294 C 0.05623 0.06909 0.39414 0.0
C295 C 1.03785 0.05393 0.46456 0.0
C296 C 1.02909 0.09281 0.49203 0.0
C297 C 0.04567 0.10696 0.41688 0.0
N298 N 0.0715 0.10681 0.28744 0.0
N299 N 1.00348 0.04926 0.57204 0.0
C300 C 0.0583 0.0946 0.36546 0.0
C301 C 1.02335 0.06522 0.5112 0.0
N302 N 0.0723 0.05943 0.35627 0.0
N303 N 1.01958 0.1061 0.54691 0.0
H304 H 0.99896 0.02915 0.58875 0.0
H305 H 0.98997 0.05502 0.60077 0.0
H306 H 1.0232 0.12619 0.53481 0.0
H307 H 1.01004 0.09819 0.60816 0.0
H308 H 0.08832 0.07095 0.31176 0.0
H309 H 0.07117 0.04074 0.37496 0.0
H310 H 0.07852 0.09739 0.24189 0.0
H311 H 0.07341 0.12544 0.26418 0.0
C312 C 0.17985 0.90236 0.82411 0.0
C313 C 0.18245 0.92086 0.75422 0.0
C314 C 0.23166 0.93444 0.73769 0.0
C315 C 0.22842 0.91426 0.80221 0.0
N316 N 0.19855 0.876 0.89741 0.0
N317 N 0.20943 0.95126 0.63442 0.0
C318 C 0.20224 0.89737 0.84287 0.0
C319 C 0.20801 0.93603 0.70825 0.0
N320 N 0.15628 0.89024 0.87457 0.0
N321 N 0.25753 0.9526 0.70632 0.0
H322 H 0.19259 0.9529 0.61068 0.0
H323 H 0.22652 0.96033 0.59216 0.0
H324 H 0.27526 0.9519 0.72575 0.0
H325 H 0.2618 0.96976 0.66695 0.0
H326 H 0.15426 0.87902 0.93266 0.0
H327 H 0.13941 0.89325 0.86257 0.0
H328 H 0.17926 0.86098 0.92093 0.0
H329 H 0.21449 0.87192 0.91363 0.0
C330 C 0.51018 0.07614 0.15973 0.0
C331 C 0.50817 0.05932 0.08466 0.0
C332 C 0.55815 0.08884 0.05791 0.0
C333 C 0.56057 0.1042 0.13734 0.0
N334 N 0.53982 0.11017 0.27121 0.0
N335 N 0.53057 0.04691 0.96968 0.0
C336 C 0.53681 0.09724 0.19026 0.0
C337 C 0.53228 0.06492 0.03578 0.0
N338 N 0.48655 0.07246 0.20033 0.0
N339 N 0.5804 0.09767 0.00208 0.0
H340 H 0.51197 0.02937 0.95101 0.0
H341 H 0.54782 0.04802 0.93828 0.0
H342 H 0.59965 0.11505 0.01599 0.0
H343 H 0.57923 0.08927 0.93854 0.0
H344 H 0.48635 0.08601 0.24864 0.0
H345 H 0.46676 0.05698 0.18084 0.0
H346 H 0.52389 0.10394 0.31761 0.0
H347 H 0.55889 0.12587 0.29534 0.0
C348 C 0.87175 0.22553 0.35988 0.0
C349 C 0.89298 0.24018 0.29607 0.0
C350 C 0.86776 0.26331 0.24049 0.0
C351 C 0.84555 0.247 0.29937 0.0
N352 N 0.82422 0.20944 0.40497 0.0
N353 N 0.90939 0.2697 0.1663 0.0
C354 C 0.84693 0.22719 0.35619 0.0
C355 C 0.89049 0.25818 0.23375 0.0
N356 N 0.87574 0.21081 0.4261 0.0
N357 N 0.86754 0.2843 0.19301 0.0
H358 H 0.92635 0.26655 0.15952 0.0
H359 H 0.9071 0.28051 0.11297 0.0
H360 H 0.85113 0.28844 0.19519 0.0
H361 H 0.88447 0.29898 0.1569 0.0
H362 H 0.86246 0.20221 0.48033 0.0
H363 H 0.89362 0.20914 0.43126 0.0
H364 H 0.82277 0.19252 0.43994 0.0
H365 H 0.80579 0.21019 0.4045 0.0
C366 C 0.84837 0.74313 0.69554 0.0
C367 C 0.84074 0.72237 0.62794 0.0
C368 C 0.88804 0.74747 0.56734 0.0
C369 C 0.89496 0.76928 0.63055 0.0
N370 N 0.8806 0.79022 0.74523 0.0
N371 N 0.85175 0.70676 0.49091 0.0
C372 C 0.87477 0.76777 0.69192 0.0
C373 C 0.86017 0.72509 0.56139 0.0
N374 N 0.83074 0.73884 0.76513 0.0
N375 N 0.90832 0.74772 0.5149 0.0
H376 H 0.8316 0.69006 0.48457 0.0
H377 H 0.86399 0.70932 0.43511 0.0
H378 H 0.92883 0.76389 0.51643 0.0
H379 H 0.90536 0.73097 0.47494 0.0
H380 H 0.83625 0.75168 0.82156 0.0
H381 H 0.81128 0.72108 0.77036 0.0
H382 H 0.86583 0.79166 0.7842 0.0
H383 H 0.89974 0.80852 0.74481 0.0
C384 C 0.35146 0.72515 0.03179 0.0
C385 C 0.36441 0.71743 0.9642 0.0
C386 C 0.38646 0.76497 0.9043 0.0
C387 C 0.37171 0.77197 0.96729 0.0
N388 N 0.33684 0.75771 0.08176 0.0
N389 N 0.3908 0.72848 0.82769 0.0
C390 C 0.35324 0.75174 0.02845 0.0
C391 C 0.38099 0.73695 0.89808 0.0
N392 N 0.33823 0.70739 0.10103 0.0
N393 N 0.40634 0.7853 0.85226 0.0
H394 H 0.38738 0.70823 0.82119 0.0
H395 H 0.40039 0.74081 0.77211 0.0
H396 H 0.41066 0.80593 0.85402 0.0
H397 H 0.42001 0.78227 0.81249 0.0
H398 H 0.33101 0.71292 0.15746 0.0
H399 H 0.33652 0.68779 0.10598 0.0
H400 H 0.32078 0.74293 0.12054 0.0
H401 H 0.33771 0.777 0.08161 0.0
loop_
_geom_bond_atom_site_label_1
_geom_bond_atom_site_label_2
_geom_bond_distance
_geom_bond_site_symmetry_2
_ccdc_geom_bond_type
C0 C1 1.264 . S
C0 C5 1.479 . S
C0 C10 1.465 . S
C1 C0 1.264 . S
C1 C3 1.339 . S
C1 H28 0.931 . S
C2 C3 1.395 . S
C2 C4 1.320 . S
C3 C1 1.339 . S
C3 C2 1.395 . S
C3 H29 0.929 . S
C4 C2 1.320 . S
C4 C5 1.405 . S
C4 H30 0.930 . S
C5 C0 1.479 . S
C5 C4 1.405 . S
C5 H31 0.931 . S
U6 O7 2.454 . S
U6 O8 2.458 . S
U6 C9 2.984 . S
U6 C10 2.847 . S
U6 C23 2.882 . S
U6 O24 2.441 . S
U6 O25 2.420 . S
U6 O26 2.455 . S
U6 O27 2.449 . S
O7 U6 2.454 . S
O7 C9 1.353 . S
O8 U6 2.458 . S
O8 C9 1.286 . S
C9 U6 2.984 . S
C9 O7 1.353 . S
C9 O8 1.286 . S
C9 C11 1.363 . S
C10 C0 1.465 . S
C10 U6 2.847 . S
C10 O24 1.249 . S
C10 O25 1.202 . S
C11 C9 1.363 . S
C11 C13 1.408 . S
C11 C16 1.342 . S
C12 C13 1.310 . S
C12 C15 1.461 . S
C12 H32 0.932 . S
C13 C11 1.408 . S
C13 C12 1.310 . S
C13 H33 0.930 . S
C14 C15 1.474 . S
C14 C16 1.285 . S
C14 H34 0.929 . S
C15 C12 1.461 . S
C15 C14 1.474 . S
C16 C11 1.342 . S
C16 C14 1.285 . S
C16 H35 0.930 . S
C17 C20 1.424 . S
C17 C22 1.245 . S
C17 C23 1.428 . S
C18 C21 1.260 . S
C18 C22 1.477 . S
C18 H36 0.932 . S
C19 C20 1.384 . S
C19 C21 1.479 . S
C19 H37 0.929 . S
C20 C17 1.424 . S
C20 C19 1.384 . S
C20 H38 0.928 . S
C21 C18 1.260 . S
C21 C19 1.479 . S
C22 C17 1.245 . S
C22 C18 1.477 . S
C22 H39 0.932 . S
C23 U6 2.882 . S
C23 C17 1.428 . S
C23 O26 1.301 . S
C23 O27 1.282 . S
O24 U6 2.441 . S
O24 C10 1.249 . S
O25 U6 2.420 . S
O25 C10 1.202 . S
O26 U6 2.455 . S
O26 C23 1.301 . S
O27 U6 2.449 . S
O27 C23 1.282 . S
H28 C1 0.931 . S
H29 C3 0.929 . S
H30 C4 0.930 . S
H31 C5 0.931 . S
H32 C12 0.932 . S
H33 C13 0.930 . S
H34 C14 0.929 . S
H35 C16 0.930 . S
H36 C18 0.932 . S
H37 C19 0.929 . S
H38 C20 0.928 . S
H39 C22 0.932 . S
C40 C41 1.264 . S
C40 C45 1.479 . S
C40 C50 1.465 . S
C41 C40 1.264 . S
C41 C43 1.339 . S
C41 H68 0.931 . S
C42 C43 1.395 . S
C42 C44 1.320 . S
C43 C41 1.339 . S
C43 C42 1.395 . S
C43 H69 0.929 . S
C44 C42 1.320 . S
C44 C45 1.405 . S
C44 H70 0.930 . S
C45 C40 1.479 . S
C45 C44 1.405 . S
C45 H71 0.931 . S
U46 O47 2.454 . S
U46 O48 2.458 . S
U46 C49 2.984 . S
U46 C50 2.847 . S
U46 C63 2.882 . S
U46 O64 2.441 . S
U46 O65 2.420 . S
U46 O66 2.455 . S
U46 O67 2.449 . S
O47 U46 2.454 . S
O47 C49 1.353 . S
O48 U46 2.458 . S
O48 C49 1.286 . S
C49 U46 2.984 . S
C49 O47 1.353 . S
C49 O48 1.286 . S
C49 C51 1.363 . S
C50 C40 1.465 . S
C50 U46 2.847 . S
C50 O64 1.249 . S
C50 O65 1.202 . S
C51 C49 1.363 . S
C51 C53 1.408 . S
C51 C56 1.342 . S
C52 C53 1.310 . S
C52 C55 1.461 . S
C52 H72 0.932 . S
C53 C51 1.408 . S
C53 C52 1.310 . S
C53 H73 0.930 . S
C54 C55 1.474 . S
C54 C56 1.285 . S
C54 H74 0.929 . S
C55 C52 1.461 . S
C55 C54 1.474 . S
C56 C51 1.342 . S
C56 C54 1.285 . S
C56 H75 0.930 . S
C57 C60 1.424 . S
C57 C62 1.245 . S
C57 C63 1.428 . S
C58 C61 1.260 . S
C58 C62 1.477 . S
C58 H76 0.932 . S
C59 C60 1.384 . S
C59 C61 1.479 . S
C59 H77 0.929 . S
C60 C57 1.424 . S
C60 C59 1.384 . S
C60 H78 0.928 . S
C61 C58 1.260 . S
C61 C59 1.479 . S
C62 C57 1.245 . S
C62 C58 1.477 . S
C62 H79 0.932 . S
C63 U46 2.882 . S
C63 C57 1.428 . S
C63 O66 1.301 . S
C63 O67 1.282 . S
O64 U46 2.441 . S
O64 C50 1.249 . S
O65 U46 2.420 . S
O65 C50 1.202 . S
O66 U46 2.455 . S
O66 C63 1.301 . S
O67 U46 2.449 . S
O67 C63 1.282 . S
H68 C41 0.931 . S
H69 C43 0.929 . S
H70 C44 0.930 . S
H71 C45 0.931 . S
H72 C52 0.932 . S
H73 C53 0.930 . S
H74 C54 0.929 . S
H75 C56 0.930 . S
H76 C58 0.932 . S
H77 C59 0.929 . S
H78 C60 0.928 . S
H79 C62 0.932 . S
C80 C81 1.264 . S
C80 C85 1.479 . S
C80 C90 1.465 . S
C81 C80 1.264 . S
C81 C83 1.339 . S
C81 H108 0.931 . S
C82 C83 1.395 . S
C82 C84 1.320 . S
C83 C81 1.339 . S
C83 C82 1.395 . S
C83 H109 0.929 . S
C84 C82 1.320 . S
C84 C85 1.405 . S
C84 H110 0.930 . S
C85 C80 1.479 . S
C85 C84 1.405 . S
C85 H111 0.931 . S
U86 O87 2.454 1_554 S
U86 O88 2.458 1_554 S
U86 C89 2.984 1_554 S
U86 C90 2.847 . S
U86 C103 2.882 . S
U86 O104 2.441 . S
U86 O105 2.420 . S
U86 O106 2.455 . S
U86 O107 2.449 . S
O87 U86 2.454 1_556 S
O87 C89 1.353 . S
O88 U86 2.458 1_556 S
O88 C89 1.286 . S
C89 U86 2.984 1_556 S
C89 O87 1.353 . S
C89 O88 1.286 . S
C89 C91 1.363 . S
C90 C80 1.465 . S
C90 U86 2.847 . S
C90 O104 1.249 . S
C90 O105 1.202 . S
C91 C89 1.363 . S
C91 C93 1.408 . S
C91 C96 1.342 . S
C92 C93 1.310 . S
C92 C95 1.461 . S
C92 H112 0.932 . S
C93 C91 1.408 . S
C93 C92 1.310 . S
C93 H113 0.930 . S
C94 C95 1.474 . S
C94 C96 1.285 . S
C94 H114 0.929 . S
C95 C92 1.461 . S
C95 C94 1.474 . S
C96 C91 1.342 . S
C96 C94 1.285 . S
C96 H115 0.930 . S
C97 C100 1.424 . S
C97 C102 1.245 1_554 S
C97 C103 1.428 . S
C98 C101 1.260 . S
C98 C102 1.477 . S
C98 H116 0.932 . S
C99 C100 1.384 . S
C99 C101 1.479 1_554 S
C99 H117 0.929 . S
C100 C97 1.424 . S
C100 C99 1.384 . S
C100 H118 0.928 . S
C101 C98 1.260 . S
C101 C99 1.479 1_556 S
C102 C97 1.245 1_556 S
C102 C98 1.477 . S
C102 H119 0.932 . S
C103 U86 2.882 . S
C103 C97 1.428 . S
C103 O106 1.301 . S
C103 O107 1.282 . S
O104 U86 2.441 . S
O104 C90 1.249 . S
O105 U86 2.420 . S
O105 C90 1.202 . S
O106 U86 2.455 . S
O106 C103 1.301 . S
O107 U86 2.449 . S
O107 C103 1.282 . S
H108 C81 0.931 . S
H109 C83 0.929 . S
H110 C84 0.930 . S
H111 C85 0.931 . S
H112 C92 0.932 . S
H113 C93 0.930 . S
H114 C94 0.929 . S
H115 C96 0.930 . S
H116 C98 0.932 . S
H117 C99 0.929 . S
H118 C100 0.928 . S
H119 C102 0.932 . S
C120 C121 1.264 1_455 S
C120 C125 1.479 . S
C120 C130 1.465 . S
C121 C120 1.264 1_655 S
C121 C123 1.339 . S
C121 H148 0.931 . S
C122 C123 1.421 . S
C122 C124 1.305 1_655 S
C123 C121 1.339 . S
C123 C122 1.421 . S
C123 H149 0.929 . S
C124 C122 1.305 1_455 S
C124 C125 1.405 . S
C124 H150 0.930 . S
C125 C120 1.479 . S
C125 C124 1.405 . S
C125 H151 0.931 . S
U126 O127 2.454 . S
U126 O128 2.458 . S
U126 C129 2.984 . S
U126 C130 2.847 . S
U126 C143 2.882 1_455 S
U126 O144 2.441 . S
U126 O145 2.420 1_455 S
U126 O146 2.455 1_455 S
U126 O147 2.449 1_455 S
O127 U126 2.454 . S
O127 C129 1.353 . S
O128 U126 2.458 . S
O128 C129 1.286 . S
C129 U126 2.984 . S
C129 O127 1.353 . S
C129 O128 1.286 . S
C129 C131 1.363 . S
C130 C120 1.465 . S
C130 U126 2.847 . S
C130 O144 1.249 . S
C130 O145 1.202 1_455 S
C131 C129 1.363 . S
C131 C133 1.408 . S
C131 C136 1.342 . S
C132 C133 1.310 . S
C132 C135 1.461 . S
C132 H152 0.932 . S
C133 C131 1.408 . S
C133 C132 1.310 . S
C133 H153 0.930 . S
C134 C135 1.474 . S
C134 C136 1.285 . S
C134 H154 0.929 . S
C135 C132 1.461 . S
C135 C134 1.474 . S
C136 C131 1.342 . S
C136 C134 1.285 . S
C136 H155 0.930 . S
C137 C140 1.424 . S
C137 C142 1.245 . S
C137 C143 1.428 . S
C138 C141 1.260 . S
C138 C142 1.477 . S
C138 H156 0.932 . S
C139 C140 1.384 . S
C139 C141 1.479 . S
C139 H157 0.929 . S
C140 C137 1.424 . S
C140 C139 1.384 . S
C140 H158 0.928 . S
C141 C138 1.260 . S
C141 C139 1.479 . S
C142 C137 1.245 . S
C142 C138 1.477 . S
C142 H159 0.932 . S
C143 U126 2.882 1_655 S
C143 C137 1.428 . S
C143 O146 1.301 . S
C143 O147 1.282 . S
O144 U126 2.441 . S
O144 C130 1.249 . S
O145 U126 2.420 1_655 S
O145 C130 1.202 1_655 S
O146 U126 2.455 1_655 S
O146 C143 1.301 . S
O147 U126 2.449 1_655 S
O147 C143 1.282 . S
H148 C121 0.931 . S
H149 C123 0.929 . S
H150 C124 0.930 . S
H151 C125 0.931 . S
H152 C132 0.932 . S
H153 C133 0.930 . S
H154 C134 0.929 . S
H155 C136 0.930 . S
H156 C138 0.932 . S
H157 C139 0.929 . S
H158 C140 0.928 . S
H159 C142 0.932 . S
C160 C161 1.264 . S
C160 C165 1.479 . S
C160 C170 1.465 . S
C161 C160 1.264 . S
C161 C163 1.339 . S
C161 H188 0.931 . S
C162 C163 1.395 . S
C162 C164 1.320 . S
C163 C161 1.339 . S
C163 C162 1.395 . S
C163 H189 0.929 . S
C164 C162 1.320 . S
C164 C165 1.405 . S
C164 H190 0.930 . S
C165 C160 1.479 . S
C165 C164 1.405 . S
C165 H191 0.931 . S
U166 O167 2.454 1_655 S
U166 O168 2.458 . S
U166 C169 2.984 . S
U166 C170 2.847 1_655 S
U166 C183 2.882 . S
U166 O184 2.441 1_655 S
U166 O185 2.420 1_655 S
U166 O186 2.455 . S
U166 O187 2.449 . S
O167 U166 2.454 1_455 S
O167 C169 1.353 1_455 S
O168 U166 2.458 . S
O168 C169 1.286 . S
C169 U166 2.984 . S
C169 O167 1.353 1_655 S
C169 O168 1.286 . S
C169 C171 1.363 . S
C170 C160 1.465 . S
C170 U166 2.847 1_455 S
C170 O184 1.249 . S
C170 O185 1.202 . S
C171 C169 1.363 . S
C171 C173 1.408 1_655 S
C171 C176 1.342 . S
C172 C173 1.310 1_545 S
C172 C175 1.461 1_455 S
C172 H192 0.932 . S
C173 C171 1.408 1_455 S
C173 C172 1.310 1_565 S
C173 H193 0.930 . S
C174 C175 1.474 1_565 S
C174 C176 1.285 . S
C174 H194 0.929 . S
C175 C172 1.461 1_655 S
C175 C174 1.474 1_545 S
C176 C171 1.342 . S
C176 C174 1.285 . S
C176 H195 0.930 . S
C177 C180 1.424 . S
C177 C182 1.245 . S
C177 C183 1.428 . S
C178 C181 1.260 . S
C178 C182 1.477 . S
C178 H196 0.932 . S
C179 C180 1.384 . S
C179 C181 1.479 . S
C179 H197 0.929 . S
C180 C177 1.424 . S
C180 C179 1.384 . S
C180 H198 0.928 . S
C181 C178 1.260 . S
C181 C179 1.479 . S
C182 C177 1.245 . S
C182 C178 1.477 . S
C182 H199 0.932 . S
C183 U166 2.882 . S
C183 C177 1.428 . S
C183 O186 1.301 . S
C183 O187 1.282 . S
O184 U166 2.441 1_455 S
O184 C170 1.249 . S
O185 U166 2.420 1_455 S
O185 C170 1.202 . S
O186 U166 2.455 . S
O186 C183 1.301 . S
O187 U166 2.449 . S
O187 C183 1.282 . S
H188 C161 0.931 . S
H189 C163 0.929 . S
H190 C164 0.930 . S
H191 C165 0.931 . S
H192 C172 0.932 . S
H193 C173 0.930 . S
H194 C174 0.929 . S
H195 C176 0.930 . S
H196 C178 0.932 . S
H197 C179 0.929 . S
H198 C180 0.928 . S
H199 C182 0.932 . S
C200 C201 1.264 . S
C200 C205 1.479 . S
C200 C210 1.465 . S
C201 C200 1.264 . S
C201 C203 1.339 . S
C201 H228 0.931 . S
C202 C203 1.395 1_545 S
C202 C204 1.320 . S
C203 C201 1.339 . S
C203 C202 1.395 1_565 S
C203 H229 0.929 . S
C204 C202 1.320 . S
C204 C205 1.405 1_545 S
C204 H230 0.930 . S
C205 C200 1.479 . S
C205 C204 1.405 1_565 S
C205 H231 0.931 . S
U206 O207 2.454 1_554 S
U206 O208 2.458 1_554 S
U206 C209 2.984 1_554 S
U206 C210 2.847 . S
U206 C223 2.882 . S
U206 O224 2.441 . S
U206 O225 2.420 . S
U206 O226 2.455 . S
U206 O227 2.449 . S
O207 U206 2.454 1_556 S
O207 C209 1.353 . S
O208 U206 2.458 1_556 S
O208 C209 1.286 . S
C209 U206 2.984 1_556 S
C209 O207 1.353 . S
C209 O208 1.286 . S
C209 C211 1.363 . S
C210 C200 1.465 . S
C210 U206 2.847 . S
C210 O224 1.249 . S
C210 O225 1.202 . S
C211 C209 1.363 . S
C211 C213 1.408 . S
C211 C216 1.342 . S
C212 C213 1.310 . S
C212 C215 1.461 . S
C212 H232 0.932 . S
C213 C211 1.408 . S
C213 C212 1.310 . S
C213 H233 0.930 . S
C214 C215 1.474 . S
C214 C216 1.285 . S
C214 H234 0.929 . S
C215 C212 1.461 . S
C215 C214 1.474 . S
C216 C211 1.342 . S
C216 C214 1.285 . S
C216 H235 0.930 . S
C217 C220 1.424 . S
C217 C222 1.245 1_554 S
C217 C223 1.428 . S
C218 C221 1.260 . S
C218 C222 1.477 . S
C218 H236 0.932 . S
C219 C220 1.384 . S
C219 C221 1.479 1_554 S
C219 H237 0.929 . S
C220 C217 1.424 . S
C220 C219 1.384 . S
C220 H238 0.928 . S
C221 C218 1.260 . S
C221 C219 1.479 1_556 S
C222 C217 1.245 1_556 S
C222 C218 1.477 . S
C222 H239 0.932 . S
C223 U206 2.882 . S
C223 C217 1.428 . S
C223 O226 1.301 . S
C223 O227 1.282 . S
O224 U206 2.441 . S
O224 C210 1.249 . S
O225 U206 2.420 . S
O225 C210 1.202 . S
O226 U206 2.455 . S
O226 C223 1.301 . S
O227 U206 2.449 . S
O227 C223 1.282 . S
H228 C201 0.931 . S
H229 C203 0.929 . S
H230 C204 0.930 . S
H231 C205 0.931 . S
H232 C212 0.932 . S
H233 C213 0.930 . S
H234 C214 0.929 . S
H235 C216 0.930 . S
H236 C218 0.932 . S
H237 C219 0.929 . S
H238 C220 0.928 . S
H239 C222 0.932 . S
C240 C241 1.363 . S
C240 C246 1.379 . S
C240 N248 1.356 . S
C241 C240 1.363 . S
C241 C247 1.363 . S
C242 C243 1.363 . S
C242 C247 1.379 . S
C242 N249 1.356 . S
C243 C242 1.363 . S
C243 C246 1.363 . S
N244 C246 1.356 . S
N244 H256 0.984 . S
N244 H257 0.985 . S
N245 C247 1.356 . S
N245 H250 0.984 . S
N245 H251 0.985 . S
C246 C240 1.379 . S
C246 C243 1.363 . S
C246 N244 1.356 . S
C247 C241 1.363 . S
C247 C242 1.379 . S
C247 N245 1.356 . S
N248 C240 1.356 . S
N248 H254 0.984 . S
N248 H255 0.984 . S
N249 C242 1.356 . S
N249 H252 0.984 . S
N249 H253 0.985 . S
H250 N245 0.984 . S
H251 N245 0.985 . S
H252 N249 0.984 . S
H253 N249 0.985 . S
H254 N248 0.984 . S
H255 N248 0.984 . S
H256 N244 0.984 . S
H257 N244 0.985 . S
C258 C259 1.363 . S
C258 C264 1.379 . S
C258 N266 1.356 . S
C259 C258 1.363 . S
C259 C265 1.363 . S
C260 C261 1.363 . S
C260 C265 1.379 . S
C260 N267 1.356 . S
C261 C260 1.363 . S
C261 C264 1.363 . S
N262 C264 1.356 . S
N262 H274 0.984 . S
N262 H275 0.985 . S
N263 C265 1.356 . S
N263 H268 0.984 . S
N263 H269 0.985 . S
C264 C258 1.379 . S
C264 C261 1.363 . S
C264 N262 1.356 . S
C265 C259 1.363 . S
C265 C260 1.379 . S
C265 N263 1.356 . S
N266 C258 1.356 . S
N266 H272 0.984 . S
N266 H273 0.984 . S
N267 C260 1.356 . S
N267 H270 0.984 . S
N267 H271 0.985 . S
H268 N263 0.984 . S
H269 N263 0.985 . S
H270 N267 0.984 . S
H271 N267 0.985 . S
H272 N266 0.984 . S
H273 N266 0.984 . S
H274 N262 0.984 . S
H275 N262 0.985 . S
C276 C277 1.363 . S
C276 C282 1.379 . S
C276 N284 1.356 . S
C277 C276 1.363 . S
C277 C283 1.363 . S
C278 C279 1.363 . S
C278 C283 1.379 . S
C278 N285 1.356 . S
C279 C278 1.363 . S
C279 C282 1.363 . S
N280 C282 1.356 . S
N280 H292 0.984 . S
N280 H293 0.985 . S
N281 C283 1.356 1_556 S
N281 H286 0.984 . S
N281 H287 0.985 . S
C282 C276 1.379 . S
C282 C279 1.363 . S
C282 N280 1.356 . S
C283 C277 1.363 . S
C283 C278 1.379 . S
C283 N281 1.356 1_554 S
N284 C276 1.356 . S
N284 H290 0.984 . S
N284 H291 0.984 . S
N285 C278 1.356 . S
N285 H288 0.984 . S
N285 H289 0.985 1_554 S
H286 N281 0.984 . S
H287 N281 0.985 . S
H288 N285 0.984 . S
H289 N285 0.985 1_556 S
H290 N284 0.984 . S
H291 N284 0.984 . S
H292 N280 0.984 . S
H293 N280 0.985 . S
C294 C295 1.363 1_455 S
C294 C300 1.379 . S
C294 N302 1.356 . S
C295 C294 1.363 1_655 S
C295 C301 1.363 . S
C296 C297 1.363 . S
C296 C301 1.379 . S
C296 N303 1.356 . S
C297 C296 1.363 . S
C297 C300 1.363 1_655 S
N298 C300 1.356 . S
N298 H310 0.984 . S
N298 H311 0.985 . S
N299 C301 1.356 . S
N299 H304 0.984 . S
N299 H305 0.985 . S
C300 C294 1.379 . S
C300 C297 1.363 1_455 S
C300 N298 1.356 . S
C301 C295 1.363 . S
C301 C296 1.379 . S
C301 N299 1.356 . S
N302 C294 1.356 . S
N302 H308 0.984 . S
N302 H309 0.984 . S
N303 C296 1.356 . S
N303 H306 0.984 . S
N303 H307 0.985 . S
H304 N299 0.984 . S
H305 N299 0.985 . S
H306 N303 0.984 . S
H307 N303 0.985 . S
H308 N302 0.984 . S
H309 N302 0.984 . S
H310 N298 0.984 . S
H311 N298 0.985 . S
C312 C313 1.363 . S
C312 C318 1.379 . S
C312 N320 1.356 . S
C313 C312 1.363 . S
C313 C319 1.363 . S
C314 C315 1.363 . S
C314 C319 1.379 . S
C314 N321 1.356 . S
C315 C314 1.363 . S
C315 C318 1.363 . S
N316 C318 1.356 . S
N316 H328 0.984 . S
N316 H329 0.985 . S
N317 C319 1.356 . S
N317 H322 0.984 . S
N317 H323 0.985 . S
C318 C312 1.379 . S
C318 C315 1.363 . S
C318 N316 1.356 . S
C319 C313 1.363 . S
C319 C314 1.379 . S
C319 N317 1.356 . S
N320 C312 1.356 . S
N320 H326 0.984 . S
N320 H327 0.984 . S
N321 C314 1.356 . S
N321 H324 0.984 . S
N321 H325 0.985 . S
H322 N317 0.984 . S
H323 N317 0.985 . S
H324 N321 0.984 . S
H325 N321 0.985 . S
H326 N320 0.984 . S
H327 N320 0.984 . S
H328 N316 0.984 . S
H329 N316 0.985 . S
C330 C331 1.363 . S
C330 C336 1.379 . S
C330 N338 1.356 . S
C331 C330 1.363 . S
C331 C337 1.363 . S
C332 C333 1.363 . S
C332 C337 1.379 . S
C332 N339 1.356 1_554 S
C333 C332 1.363 . S
C333 C336 1.363 . S
N334 C336 1.356 . S
N334 H346 0.984 . S
N334 H347 0.985 . S
N335 C337 1.356 1_556 S
N335 H340 0.984 . S
N335 H341 0.985 . S
C336 C330 1.379 . S
C336 C333 1.363 . S
C336 N334 1.356 . S
C337 C331 1.363 . S
C337 C332 1.379 . S
C337 N335 1.356 1_554 S
N338 C330 1.356 . S
N338 H344 0.984 . S
N338 H345 0.984 . S
N339 C332 1.356 1_556 S
N339 H342 0.984 1_556 S
N339 H343 0.985 . S
H340 N335 0.984 . S
H341 N335 0.985 . S
H342 N339 0.984 1_554 S
H343 N339 0.985 . S
H344 N338 0.984 . S
H345 N338 0.984 . S
H346 N334 0.984 . S
H347 N334 0.985 . S
C348 C349 1.363 . S
C348 C354 1.379 . S
C348 N356 1.356 . S
C349 C348 1.363 . S
C349 C355 1.363 . S
C350 C351 1.363 . S
C350 C355 1.379 . S
C350 N357 1.356 . S
C351 C350 1.363 . S
C351 C354 1.363 . S
N352 C354 1.356 . S
N352 H364 0.984 . S
N352 H365 0.985 . S
N353 C355 1.356 . S
N353 H358 0.984 . S
N353 H359 0.985 . S
C354 C348 1.379 . S
C354 C351 1.363 . S
C354 N352 1.356 . S
C355 C349 1.363 . S
C355 C350 1.379 . S
C355 N353 1.356 . S
N356 C348 1.356 . S
N356 H362 0.984 . S
N356 H363 0.984 . S
N357 C350 1.356 . S
N357 H360 0.984 . S
N357 H361 0.985 . S
H358 N353 0.984 . S
H359 N353 0.985 . S
H360 N357 0.984 . S
H361 N357 0.985 . S
H362 N356 0.984 . S
H363 N356 0.984 . S
H364 N352 0.984 . S
H365 N352 0.985 . S
C366 C367 1.363 . S
C366 C372 1.379 . S
C366 N374 1.356 . S
C367 C366 1.363 . S
C367 C373 1.363 . S
C368 C369 1.363 . S
C368 C373 1.379 . S
C368 N375 1.356 . S
C369 C368 1.363 . S
C369 C372 1.363 . S
N370 C372 1.356 . S
N370 H382 0.984 . S
N370 H383 0.985 . S
N371 C373 1.356 . S
N371 H376 0.984 . S
N371 H377 0.985 . S
C372 C366 1.379 . S
C372 C369 1.363 . S
C372 N370 1.356 . S
C373 C367 1.363 . S
C373 C368 1.379 . S
C373 N371 1.356 . S
N374 C366 1.356 . S
N374 H380 0.984 . S
N374 H381 0.984 . S
N375 C368 1.356 . S
N375 H378 0.984 . S
N375 H379 0.985 . S
H376 N371 0.984 . S
H377 N371 0.985 . S
H378 N375 0.984 . S
H379 N375 0.985 . S
H380 N374 0.984 . S
H381 N374 0.984 . S
H382 N370 0.984 . S
H383 N370 0.985 . S
C384 C385 1.363 1_554 S
C384 C390 1.379 . S
C384 N392 1.356 . S
C385 C384 1.363 1_556 S
C385 C391 1.363 . S
C386 C387 1.363 . S
C386 C391 1.379 . S
C386 N393 1.356 . S
C387 C386 1.363 . S
C387 C390 1.363 1_556 S
N388 C390 1.356 . S
N388 H400 0.984 . S
N388 H401 0.985 . S
N389 C391 1.356 . S
N389 H394 0.984 . S
N389 H395 0.985 . S
C390 C384 1.379 . S
C390 C387 1.363 1_554 S
C390 N388 1.356 . S
C391 C385 1.363 . S
C391 C386 1.379 . S
C391 N389 1.356 . S
N392 C384 1.356 . S
N392 H398 0.984 . S
N392 H399 0.984 . S
N393 C386 1.356 . S
N393 H396 0.984 . S
N393 H397 0.985 . S
H394 N389 0.984 . S
H395 N389 0.985 . S
H396 N393 0.984 . S
H397 N393 0.985 . S
H398 N392 0.984 . S
H399 N392 0.984 . S
H400 N388 0.984 . S
H401 N388 0.985 . S
C241 C2 1.486 . S
C243 C55 1.509 . S
C259 C42 1.490 . S
C261 C95 1.501 . S
C277 C82 1.502 . S
C279 C135 1.507 . S
C295 C175 1.508 . S
C297 C122 1.475 . S
C313 C162 1.490 . S
C315 C215 1.501 . S
C331 C202 1.502 . S
C333 C15 1.507 . S
C349 C141 1.492 . S
C351 C21 1.491 . S
C367 C61 1.492 . S
C369 C181 1.491 . S
C385 C101 1.491 . S
C387 C221 1.491 . S
