# Generated by pormake.
# Topology ske, (6)-cn, num edge types: 1
# Building blocks:
#     Node 0, Type 0, BuildingBlock: JUFBIX_clean_sbu_0, # of connection points: 6
#     Node 1, Type 0, BuildingBlock: JUFBIX_clean_sbu_0, # of connection points: 6
#     Node 2, Type 0, BuildingBlock: JUFBIX_clean_sbu_0, # of connection points: 6
#     Node 3, Type 0, BuildingBlock: JUFBIX_clean_sbu_0, # of connection points: 6
#     Node 4, Type 0, BuildingBlock: JUFBIX_clean_sbu_0, # of connection points: 6
#     Node 5, Type 0, BuildingBlock: JUFBIX_clean_sbu_0, # of connection points: 6
#     Node 6, Type 0, BuildingBlock: JUFBIX_clean_sbu_0, # of connection points: 6
#     Node 7, Type 0, BuildingBlock: JUFBIX_clean_sbu_0, # of connection points: 6
#     Edge 8, Type (0, 0), BuildingBlock: XIVTED_clean_linker_0, # of connection points: 2
#     Edge 9, Type (0, 0), BuildingBlock: XIVTED_clean_linker_0, # of connection points: 2
#     Edge 10, Type (0, 0), BuildingBlock: XIVTED_clean_linker_0, # of connection points: 2
#     Edge 11, Type (0, 0), BuildingBlock: XIVTED_clean_linker_0, # of connection points: 2
#     Edge 12, Type (0, 0), BuildingBlock: XIVTED_clean_linker_0, # of connection points: 2
#     Edge 13, Type (0, 0), BuildingBlock: XIVTED_clean_linker_0, # of connection points: 2
#     Edge 14, Type (0, 0), BuildingBlock: XIVTED_clean_linker_0, # of connection points: 2
#     Edge 15, Type (0, 0), BuildingBlock: XIVTED_clean_linker_0, # of connection points: 2
#     Edge 16, Type (0, 0), BuildingBlock: XIVTED_clean_linker_0, # of connection points: 2
#     Edge 17, Type (0, 0), BuildingBlock: XIVTED_clean_linker_0, # of connection points: 2
#     Edge 18, Type (0, 0), BuildingBlock: XIVTED_clean_linker_0, # of connection points: 2
#     Edge 19, Type (0, 0), BuildingBlock: XIVTED_clean_linker_0, # of connection points: 2
#     Edge 20, Type (0, 0), BuildingBlock: XIVTED_clean_linker_0, # of connection points: 2
#     Edge 21, Type (0, 0), BuildingBlock: XIVTED_clean_linker_0, # of connection points: 2
#     Edge 22, Type (0, 0), BuildingBlock: XIVTED_clean_linker_0, # of connection points: 2
#     Edge 23, Type (0, 0), BuildingBlock: XIVTED_clean_linker_0, # of connection points: 2
#     Edge 24, Type (0, 0), BuildingBlock: XIVTED_clean_linker_0, # of connection points: 2
#     Edge 25, Type (0, 0), BuildingBlock: XIVTED_clean_linker_0, # of connection points: 2
#     Edge 26, Type (0, 0), BuildingBlock: XIVTED_clean_linker_0, # of connection points: 2
#     Edge 27, Type (0, 0), BuildingBlock: XIVTED_clean_linker_0, # of connection points: 2
#     Edge 28, Type (0, 0), BuildingBlock: XIVTED_clean_linker_0, # of connection points: 2
#     Edge 29, Type (0, 0), BuildingBlock: XIVTED_clean_linker_0, # of connection points: 2
#     Edge 30, Type (0, 0), BuildingBlock: XIVTED_clean_linker_0, # of connection points: 2
#     Edge 31, Type (0, 0), BuildingBlock: XIVTED_clean_linker_0, # of connection points: 2
# Relax obj value: 0.262
# Max RMSD: 0.149
# Mean RMSD: 0.140
data_MOF--net-ske--node1-JUFBIX_clean_sbu_0--edge1-XIVTED_clean_linker_0
_symmetry_space_group_name_H-M    P1
_symmetry_Int_Tables_number       1
_symmetry_cell_setting            triclinic
loop_
_symmetry_equiv_pos_as_xyz
'x, y, z'
_cell_length_a     68.313621
_cell_length_b     29.673221
_cell_length_c     15.974574
_cell_angle_alpha  89.519898
_cell_angle_beta   92.667501
_cell_angle_gamma 92.513223
loop_
_atom_site_label
_atom_site_type_symbol
_atom_site_fract_x
_atom_site_fract_y
_atom_site_fract_z
_atom_type_partial_charge
Co0 Co 0.15193 0.24619 0.7164 0.0
C1 C 0.15723 0.33369 0.65159 0.0
Co2 Co 0.16153 0.24943 0.58755 0.0
C3 C 0.14896 0.20952 0.87491 0.0
C4 C 0.12478 0.25138 0.84829 0.0
N5 N 0.14274 0.24214 0.82279 0.0
N6 N 0.13514 0.19507 0.92725 0.0
C7 C 0.12006 0.22234 0.91292 0.0
H8 H 0.16268 0.19343 0.86801 0.0
H9 H 0.1148 0.27355 0.81561 0.0
C10 C 0.15524 0.16137 0.64674 0.0
N11 N 0.17057 0.24833 0.48057 0.0
C12 C 0.16306 0.21692 0.42672 0.0
C13 C 0.18907 0.25715 0.45666 0.0
N14 N 0.17652 0.20233 0.37577 0.0
C15 C 0.19279 0.22869 0.39195 0.0
C16 C 0.19296 0.24898 0.71054 0.0
O17 O 0.15135 0.18078 0.71377 0.0
O18 O 0.16032 0.18556 0.58564 0.0
O19 O 0.18835 0.24883 0.6325 0.0
O20 O 0.1791 0.24848 0.76132 0.0
O21 O 0.16275 0.31253 0.58862 0.0
H22 H 0.19995 0.27823 0.49088 0.0
H23 H 0.14865 0.20096 0.43253 0.0
O24 O 0.1518 0.31158 0.71622 0.0
O25 O 0.12557 0.24359 0.67314 0.0
O26 O 0.13408 0.25032 0.54349 0.0
C27 C 0.12059 0.2462 0.59604 0.0
H28 H 0.10607 0.21925 0.94205 0.0
H29 H 0.20684 0.22485 0.36482 0.0
Co30 Co 0.91554 0.26807 0.57408 0.0
C31 C 0.89545 0.34992 0.56619 0.0
Co32 Co 0.88282 0.26149 0.57348 0.0
C33 C 0.95855 0.25587 0.54964 0.0
C34 C 0.95201 0.31494 0.61695 0.0
N35 N 0.9433 0.27829 0.57902 0.0
N36 N 0.97615 0.27803 0.56651 0.0
C37 C 0.97192 0.3151 0.60867 0.0
H38 H 0.9568 0.22442 0.51573 0.0
H39 H 0.94439 0.34025 0.64935 0.0
C40 C 0.90175 0.17949 0.57456 0.0
N41 N 0.85526 0.25248 0.57372 0.0
C42 C 0.84303 0.26333 0.63444 0.0
C43 C 0.8436 0.22954 0.51701 0.0
N44 N 0.82427 0.24762 0.61852 0.0
C45 C 0.82469 0.22657 0.54404 0.0
C46 C 0.89859 0.26404 0.40393 0.0
O47 O 0.91776 0.20345 0.5755 0.0
O48 O 0.88549 0.19869 0.57541 0.0
O49 O 0.88272 0.26113 0.445 0.0
O50 O 0.91482 0.26717 0.4481 0.0
O51 O 0.88018 0.32424 0.57054 0.0
H52 H 0.8486 0.21467 0.46067 0.0
H53 H 0.84796 0.28108 0.69092 0.0
O54 O 0.91221 0.33259 0.56875 0.0
O55 O 0.91574 0.26881 0.70245 0.0
O56 O 0.88385 0.26198 0.69966 0.0
C57 C 0.89999 0.26548 0.74379 0.0
H58 H 0.9826 0.34021 0.63329 0.0
H59 H 0.81228 0.20966 0.51127 0.0
Co60 Co 0.15057 0.74996 0.52457 0.0
C61 C 0.13194 0.83223 0.52322 0.0
Co62 Co 0.11787 0.74381 0.52401 0.0
C63 C 0.19022 0.74666 0.46378 0.0
C64 C 0.18989 0.78151 0.58026 0.0
N65 N 0.17809 0.75839 0.52426 0.0
N66 N 0.20905 0.76183 0.47933 0.0
C67 C 0.2088 0.78358 0.55314 0.0
H68 H 0.18524 0.7278 0.40861 0.0
H69 H 0.18496 0.79729 0.63584 0.0
C70 C 0.13768 0.66167 0.53162 0.0
N71 N 0.09011 0.73415 0.51922 0.0
C72 C 0.07502 0.75668 0.54963 0.0
C73 C 0.0812 0.69791 0.48061 0.0
N74 N 0.05733 0.735 0.5326 0.0
C75 C 0.06132 0.69813 0.4894 0.0
C76 C 0.13339 0.74618 0.35427 0.0
O77 O 0.15299 0.68722 0.52747 0.0
O78 O 0.12095 0.67917 0.5292 0.0
O79 O 0.11764 0.74308 0.3956 0.0
O80 O 0.14953 0.74946 0.39841 0.0
O81 O 0.11587 0.80853 0.52258 0.0
H82 H 0.08869 0.67262 0.44756 0.0
H83 H 0.07694 0.78784 0.58438 0.0
O84 O 0.14814 0.81278 0.5225 0.0
O85 O 0.15071 0.75037 0.65305 0.0
O86 O 0.1186 0.74469 0.64999 0.0
C87 C 0.13483 0.74764 0.69414 0.0
H88 H 0.22123 0.80141 0.58408 0.0
H89 H 0.05049 0.67337 0.46468 0.0
Co90 Co 0.87204 0.76198 0.51028 0.0
C91 C 0.87793 0.8503 0.45206 0.0
Co92 Co 0.8814 0.7658 0.38109 0.0
C93 C 0.87049 0.79415 0.67133 0.0
C94 C 0.84467 0.75324 0.64153 0.0
N95 N 0.86312 0.76255 0.61755 0.0
N96 N 0.85694 0.80847 0.72212 0.0
C97 C 0.8408 0.78168 0.70606 0.0
H98 H 0.88482 0.8105 0.66541 0.0
H99 H 0.83388 0.7319 0.60734 0.0
C100 C 0.8764 0.67799 0.44514 0.0
N101 N 0.89043 0.77038 0.27449 0.0
C102 C 0.88409 0.80312 0.2229 0.0
C103 C 0.90832 0.76124 0.24817 0.0
N104 N 0.89778 0.81769 0.17 0.0
C105 C 0.91289 0.79041 0.18354 0.0
C106 C 0.91294 0.76609 0.50037 0.0
O107 O 0.87107 0.69895 0.5087 0.0
O108 O 0.88161 0.70031 0.38039 0.0
O109 O 0.90774 0.76847 0.42349 0.0
O110 O 0.89961 0.76175 0.55364 0.0
O111 O 0.8819 0.83131 0.38469 0.0
H112 H 0.91836 0.73897 0.28022 0.0
H113 H 0.87038 0.81913 0.23049 0.0
O114 O 0.87293 0.82572 0.51275 0.0
O115 O 0.84511 0.76206 0.4659 0.0
O116 O 0.85425 0.76346 0.33688 0.0
C117 C 0.84044 0.76236 0.3879 0.0
H118 H 0.82671 0.78522 0.73302 0.0
H119 H 0.92679 0.79351 0.15377 0.0
Co120 Co 0.6545 0.75013 0.2273 0.0
C121 C 0.65816 0.83409 0.14441 0.0
Co122 Co 0.66165 0.74698 0.09573 0.0
C123 C 0.63201 0.73049 0.36483 0.0
C124 C 0.64935 0.79159 0.38605 0.0
N125 N 0.64718 0.75544 0.33533 0.0
N126 N 0.62394 0.75062 0.42871 0.0
C127 C 0.635 0.78866 0.44388 0.0
H128 H 0.62572 0.70035 0.33462 0.0
H129 H 0.65952 0.82001 0.37719 0.0
C130 C 0.65713 0.66277 0.17338 0.0
N131 N 0.66721 0.7408 0.98496 0.0
C132 C 0.65413 0.75343 0.92506 0.0
C133 C 0.67644 0.70643 0.95163 0.0
N134 N 0.65286 0.72481 0.86019 0.0
C135 C 0.66745 0.69616 0.87484 0.0
C136 C 0.69517 0.75267 0.206 0.0
O137 O 0.65373 0.68494 0.23843 0.0
O138 O 0.66123 0.68402 0.10719 0.0
O139 O 0.6895 0.75037 0.12865 0.0
O140 O 0.68212 0.75307 0.26077 0.0
O141 O 0.66202 0.81007 0.08263 0.0
H142 H 0.68654 0.68533 0.9863 0.0
H143 H 0.64322 0.77775 0.9362 0.0
O144 O 0.65474 0.81493 0.21407 0.0
O145 O 0.62743 0.74742 0.19602 0.0
O146 O 0.63304 0.74307 0.06442 0.0
C147 C 0.62073 0.74395 0.12148 0.0
H148 H 0.63262 0.81302 0.49204 0.0
H149 H 0.66986 0.66658 0.83817 0.0
Co150 Co 0.41443 0.76485 0.06448 0.0
C151 C 0.39497 0.84748 0.0601 0.0
Co152 Co 0.38173 0.75915 0.06214 0.0
C153 C 0.45758 0.75123 1.04434 0.0
C154 C 0.45082 0.80705 0.12016 0.0
N155 N 0.44221 0.77372 0.07248 0.0
N156 N 0.47519 0.76977 0.07287 0.0
C157 C 0.47083 0.80464 0.12067 0.0
H158 H 0.45591 0.72099 1.00681 0.0
H159 H 0.443 0.83092 0.15528 0.0
C160 C 0.39998 0.67644 0.05967 0.0
N161 N 0.35417 0.7513 0.06091 0.0
C162 C 0.342 0.76298 0.1212 0.0
C163 C 0.3424 0.72847 1.0044 0.0
N164 N 0.32316 0.74799 0.10515 0.0
C165 C 0.32345 0.72647 1.03111 0.0
C166 C 0.39798 0.76268 0.89356 0.0
O167 O 0.41614 0.69989 0.06308 0.0
O168 O 0.38388 0.69624 0.06131 0.0
O169 O 0.38197 0.76006 0.93371 0.0
O170 O 0.41412 0.76522 0.93859 0.0
O171 O 0.37959 0.82202 0.06206 0.0
H172 H 0.34739 0.71275 0.94886 0.0
H173 H 0.34695 0.78159 0.1767 0.0
O174 O 0.41167 0.82981 0.06179 0.0
O175 O 0.41423 0.76429 0.19289 0.0
O176 O 0.38236 0.75832 0.18825 0.0
C177 C 0.39836 0.76126 0.23331 0.0
H178 H 0.48144 0.82605 0.15585 0.0
H179 H 0.31104 0.70879 0.9998 0.0
Co180 Co 0.65223 0.25202 1.0464 0.0
C181 C 0.6336 0.33433 0.05021 0.0
Co182 Co 0.61949 0.24626 1.04611 0.0
C183 C 0.69158 0.25045 0.97955 0.0
C184 C 0.69178 0.28286 0.09862 0.0
N185 N 0.67974 0.26075 1.04213 0.0
N186 N 0.71045 0.2657 0.99431 0.0
C187 C 0.71051 0.28585 0.06979 0.0
H188 H 0.6863 0.23341 0.9228 0.0
H189 H 0.68716 0.29709 0.15622 0.0
C190 C 0.63922 0.16401 1.04718 0.0
N191 N 0.59182 0.23643 0.05263 0.0
C192 C 0.57553 0.25825 1.02521 0.0
C193 C 0.5847 0.20312 0.10231 0.0
N194 N 0.55882 0.23972 0.05714 0.0
C195 C 0.56476 0.205 0.10507 0.0
C196 C 0.63384 0.24976 0.87624 0.0
O197 O 0.65465 0.18936 1.0462 0.0
O198 O 0.62254 0.18172 1.04577 0.0
O199 O 0.61801 0.24692 0.9176 0.0
O200 O 0.65005 0.25249 0.92025 0.0
O201 O 0.61748 0.31081 1.0488 0.0
H202 H 0.59356 0.17956 0.13744 0.0
H203 H 0.57599 0.28812 0.98585 0.0
O204 O 0.64973 0.31473 1.04725 0.0
O205 O 0.65354 0.25139 0.17513 0.0
O206 O 0.62157 0.24588 0.17232 0.0
C207 C 0.63774 0.24859 0.21646 0.0
H208 H 0.72313 0.3021 0.10216 0.0
H209 H 0.55531 0.18262 0.14072 0.0
Co210 Co 0.37229 0.26388 0.99732 0.0
C211 C 0.37661 0.34884 0.92201 0.0
Co212 Co 0.37917 0.26154 0.8654 0.0
C213 C 0.38077 0.25701 0.16746 0.0
C214 C 0.35796 0.3031 0.14353 0.0
N215 N 0.3673 0.26928 0.10886 0.0
N216 N 0.38212 0.28541 0.23264 0.0
C217 C 0.36725 0.31346 0.21969 0.0
H218 H 0.3918 0.23316 0.15517 0.0
H219 H 0.34753 0.32386 0.11004 0.0
C220 C 0.37589 0.17683 0.9469 0.0
N221 N 0.38591 0.25706 0.75642 0.0
C222 C 0.40102 0.28198 0.72647 0.0
C223 C 0.38353 0.22108 0.70535 0.0
N224 N 0.40893 0.26186 0.66218 0.0
C225 C 0.39777 0.22397 0.64704 0.0
C226 C 0.41318 0.26706 0.96844 0.0
O227 O 0.37216 0.20064 1.00915 0.0
O228 O 0.37899 0.19633 0.87715 0.0
O229 O 0.40637 0.26385 0.89411 0.0
O230 O 0.40097 0.26795 1.02594 0.0
O231 O 0.37997 0.32716 0.85623 0.0
H232 H 0.37339 0.19264 0.71454 0.0
H233 H 0.40751 0.31183 0.75701 0.0
O234 O 0.37252 0.32696 0.98752 0.0
O235 O 0.34432 0.26033 0.9668 0.0
O236 O 0.35138 0.25889 0.83422 0.0
C237 C 0.33847 0.25867 0.88963 0.0
H238 H 0.36477 0.34275 0.25707 0.0
H239 H 0.40009 0.19955 0.59892 0.0
H240 H 0.20923 0.25054 0.87334 0.0
H241 H 0.32115 0.25507 0.73044 0.0
H242 H 0.22563 0.24973 0.61597 0.0
H243 H 0.30628 0.25804 0.98966 0.0
H244 H 0.2862 0.25249 0.68892 0.0
H245 H 0.24423 0.25265 0.91827 0.0
C246 C 0.22012 0.25079 0.82616 0.0
C247 C 0.21424 0.24998 0.74045 0.0
C248 C 0.2905 0.25369 0.75497 0.0
C249 C 0.25465 0.25239 0.79186 0.0
C250 C 0.31058 0.25516 0.7789 0.0
C251 C 0.31692 0.25679 0.86399 0.0
C252 C 0.27632 0.25381 0.8162 0.0
C253 C 0.30226 0.2568 0.92335 0.0
C254 C 0.24017 0.252 0.85196 0.0
C255 C 0.22923 0.25034 0.68266 0.0
N256 N 0.28278 0.25535 0.89846 0.0
N257 N 0.24854 0.25151 0.70927 0.0
H258 H 0.74429 0.31861 0.99829 0.0
H259 H 0.79033 0.19483 0.61301 0.0
H260 H 0.71462 0.20801 0.86373 0.0
H261 H 0.81961 0.30597 0.74749 0.0
H262 H 0.76259 0.19944 0.70284 0.0
H263 H 0.77182 0.31414 0.90753 0.0
C264 C 0.74351 0.29309 0.95021 0.0
C265 C 0.7269 0.26345 0.93974 0.0
C266 C 0.77506 0.22287 0.71271 0.0
C267 C 0.75875 0.25859 0.83362 0.0
C268 C 0.79099 0.22048 0.66083 0.0
C269 C 0.80758 0.25016 0.67172 0.0
C270 C 0.77551 0.25519 0.77664 0.0
C271 C 0.8074 0.28203 0.73653 0.0
C272 C 0.75931 0.29078 0.89776 0.0
C273 C 0.7269 0.23184 0.87443 0.0
N274 N 0.79169 0.28367 0.78614 0.0
N275 N 0.74251 0.23022 0.82426 0.0
H276 H 0.28418 0.74014 0.05855 0.0
H277 H 0.24803 0.76953 0.52579 0.0
H278 H 0.32367 0.76265 0.27435 0.0
H279 H 0.20849 0.74687 0.31023 0.0
H280 H 0.27575 0.76709 0.43496 0.0
H281 H 0.25643 0.74242 0.14933 0.0
C282 C 0.28711 0.74545 0.12493 0.0
C283 C 0.30651 0.75109 0.1582 0.0
C284 C 0.26102 0.76259 0.40744 0.0
C285 C 0.27444 0.75404 0.26339 0.0
C286 C 0.24508 0.76415 0.45943 0.0
C287 C 0.22568 0.75855 0.42623 0.0
C288 C 0.25772 0.7554 0.32097 0.0
C289 C 0.22305 0.75095 0.33942 0.0
C290 C 0.27116 0.74692 0.17689 0.0
C291 C 0.30912 0.75858 0.24506 0.0
N292 N 0.23881 0.74973 0.2901 0.0
N293 N 0.29335 0.75971 0.29432 0.0
H294 H 0.71219 0.75659 0.3658 0.0
H295 H 0.82426 0.76133 0.22523 0.0
H296 H 0.7275 0.75295 0.10718 0.0
H297 H 0.80773 0.76091 0.48247 0.0
H298 H 0.78931 0.7592 0.17995 0.0
H299 H 0.7471 0.75912 0.40839 0.0
C300 C 0.72285 0.75636 0.31771 0.0
C301 C 0.71666 0.75454 0.23246 0.0
C302 C 0.79333 0.75957 0.24632 0.0
C303 C 0.75717 0.75747 0.28146 0.0
C304 C 0.81335 0.76081 0.27232 0.0
C305 C 0.81917 0.76127 0.35808 0.0
C306 C 0.77881 0.75886 0.30625 0.0
C307 C 0.80415 0.76056 0.41575 0.0
C308 C 0.7429 0.75779 0.34225 0.0
C309 C 0.73141 0.75432 0.17358 0.0
N310 N 0.78485 0.75941 0.38893 0.0
N311 N 0.75085 0.75577 0.19905 0.0
H312 H 0.15816 0.8912 0.45569 0.0
H313 H 0.13233 0.10076 0.73565 0.0
H314 H 0.10838 0.88578 0.61228 0.0
H315 H 0.17084 0.10992 0.52909 0.0
H316 H 0.12473 0.02094 0.70103 0.0
H317 H 0.16368 0.97094 0.48774 0.0
C318 C 0.14817 0.90712 0.49586 0.0
C319 C 0.13271 0.88194 0.53091 0.0
C320 C 0.13486 0.04053 0.66355 0.0
C321 C 0.1393 0.97338 0.57018 0.0
C322 C 0.13937 0.08586 0.68384 0.0
C323 C 0.15224 0.11201 0.63514 0.0
C324 C 0.14347 0.02127 0.59478 0.0
C325 C 0.16078 0.09115 0.56815 0.0
C326 C 0.15139 0.95266 0.51455 0.0
C327 C 0.12031 0.9042 0.5831 0.0
N328 N 0.15626 0.0472 0.55011 0.0
N329 N 0.12401 0.94865 0.60206 0.0
H330 H 0.92258 0.41171 0.50548 0.0
H331 H 0.85346 0.62021 0.53415 0.0
H332 H 0.86337 0.39944 0.58862 0.0
H333 H 0.9026 0.62334 0.37399 0.0
H334 H 0.85823 0.54047 0.5628 0.0
H335 H 0.91737 0.49091 0.4678 0.0
C336 C 0.90858 0.42577 0.51671 0.0
C337 C 0.8934 0.3989 0.55058 0.0
C338 C 0.86787 0.55833 0.52066 0.0
C339 C 0.88734 0.48924 0.50713 0.0
C340 C 0.86512 0.60386 0.50408 0.0
C341 C 0.8776 0.62837 0.45128 0.0
C342 C 0.88348 0.53705 0.48563 0.0
C343 C 0.89253 0.60551 0.41432 0.0
C344 C 0.90556 0.4708 0.49438 0.0
C345 C 0.87549 0.41881 0.5628 0.0
N346 N 0.89522 0.56118 0.43301 0.0
N347 N 0.873 0.46268 0.54143 0.0
H348 H 0.86126 0.90058 0.56817 0.0
H349 H 0.92655 0.12669 0.49017 0.0
H350 H 0.9014 0.91188 0.36767 0.0
H351 H 0.8748 0.1197 0.63517 0.0
H352 H 0.92093 0.04597 0.45675 0.0
H353 H 0.86882 0.97927 0.60313 0.0
C354 C 0.87155 0.91984 0.53085 0.0
C355 C 0.88066 0.89963 0.46471 0.0
C356 C 0.91095 0.06216 0.49649 0.0
C357 C 0.88965 0.99016 0.50532 0.0
C358 C 0.9143 0.10796 0.51645 0.0
C359 C 0.90115 0.12981 0.56573 0.0
C360 C 0.89451 0.03819 0.52705 0.0
C361 C 0.8853 0.10422 0.59693 0.0
C362 C 0.87591 0.96483 0.55102 0.0
C363 C 0.89391 0.9263 0.41865 0.0
N364 N 0.88244 0.05998 0.57708 0.0
N365 N 0.89813 0.97022 0.44019 0.0
H366 H 0.11065 0.59985 0.59308 0.0
H367 H 0.17981 0.39148 0.5608 0.0
H368 H 0.16959 0.6121 0.50683 0.0
H369 H 0.13107 0.38822 0.72316 0.0
H370 H 0.17482 0.47111 0.53188 0.0
H371 H 0.11592 0.52052 0.62988 0.0
C372 C 0.1246 0.58575 0.58096 0.0
C373 C 0.13969 0.61264 0.54656 0.0
C374 C 0.16531 0.45323 0.57452 0.0
C375 C 0.14582 0.52222 0.58896 0.0
C376 C 0.16818 0.40777 0.59125 0.0
C377 C 0.15589 0.38327 0.64481 0.0
C378 C 0.14976 0.47444 0.6102 0.0
C379 C 0.14101 0.40605 0.68224 0.0
C380 C 0.12765 0.54066 0.60278 0.0
C381 C 0.15754 0.59272 0.53316 0.0
N382 N 0.13819 0.45031 0.66346 0.0
N383 N 0.16007 0.54881 0.55407 0.0
H384 H 0.67854 0.60839 0.08334 0.0
H385 H 0.60817 0.38722 0.13167 0.0
H386 H 0.63038 0.60483 0.24867 0.0
H387 H 0.66191 0.39357 0.9998 0.0
H388 H 0.61414 0.46722 0.17019 0.0
H389 H 0.67165 0.52928 0.05156 0.0
C390 C 0.66669 0.59055 0.11421 0.0
C391 C 0.65511 0.61306 0.16915 0.0
C392 C 0.6245 0.45102 0.13236 0.0
C393 C 0.64666 0.52213 0.1311 0.0
C394 C 0.62097 0.40564 0.10946 0.0
C395 C 0.63455 0.3838 0.0623 0.0
C396 C 0.64164 0.47445 0.10724 0.0
C397 C 0.65107 0.40896 1.03635 0.0
C398 C 0.66263 0.54534 0.09557 0.0
C399 C 0.63982 0.5884 0.20686 0.0
N400 N 0.65413 0.45266 0.05924 0.0
N401 N 0.63588 0.5442 0.18647 0.0
H402 H 0.36496 0.89769 0.10753 0.0
H403 H 0.39692 0.11945 0.85507 0.0
H404 H 0.42009 0.90923 0.98636 0.0
H405 H 0.36001 0.12231 0.06668 0.0
H406 H 0.40246 0.03941 0.88522 0.0
H407 H 0.36009 0.97758 0.07812 0.0
C408 C 0.37613 0.91716 0.07527 0.0
C409 C 0.39302 0.89683 1.0498 0.0
C410 C 0.39311 0.05765 0.92472 0.0
C411 C 0.38727 0.98812 1.01402 0.0
C412 C 0.38978 0.10312 0.90711 0.0
C413 C 0.37794 0.12756 0.95835 0.0
C414 C 0.38421 0.03631 0.99297 0.0
C415 C 0.36925 0.10482 1.02558 0.0
C416 C 0.37332 0.96273 0.05844 0.0
C417 C 0.40696 0.92369 1.00787 0.0
N418 N 0.37246 0.06052 1.04062 0.0
N419 N 0.40368 0.96788 0.99042 0.0
H420 H 0.35488 0.40237 1.01257 0.0
H421 H 0.42585 0.62388 0.97963 0.0
H422 H 0.40372 0.40782 0.85089 0.0
H423 H 0.37113 0.61681 0.10423 0.0
H424 H 0.41995 0.54437 0.93753 0.0
H425 H 0.36171 0.48112 1.04801 0.0
C426 C 0.36687 0.42056 0.98319 0.0
C427 C 0.37862 0.39862 0.92809 0.0
C428 C 0.40935 0.56028 0.9746 0.0
C429 C 0.38702 0.48922 0.97057 0.0
C430 C 0.41284 0.6054 0.99958 0.0
C431 C 0.39899 0.62697 1.04583 0.0
C432 C 0.39198 0.53672 0.99669 0.0
C433 C 0.38221 0.60167 0.06863 0.0
C434 C 0.37088 0.46558 1.00397 0.0
C435 C 0.39411 0.42375 0.89261 0.0
N436 N 0.3792 0.55821 1.04382 0.0
N437 N 0.39801 0.46772 0.91512 0.0
H438 H 0.61307 0.10227 0.11334 0.0
H439 H 0.6751 0.88821 1.02682 0.0
H440 H 0.66959 0.11372 1.00342 0.0
H441 H 0.63681 0.89157 0.23377 0.0
H442 H 0.67007 0.96838 1.00074 0.0
H443 H 0.61797 0.02173 0.13966 0.0
C444 C 0.62637 0.08773 0.09377 0.0
C445 C 0.64095 0.11466 0.05608 0.0
C446 C 0.66286 0.9516 0.05212 0.0
C447 C 0.64659 0.02293 0.08584 0.0
C448 C 0.66572 0.90591 0.06708 0.0
C449 C 0.65644 0.8833 0.13285 0.0
C450 C 0.65027 0.97468 0.10201 0.0
C451 C 0.64439 0.90787 0.18291 0.0
C452 C 0.62923 0.04197 0.10952 0.0
C453 C 0.65801 0.09419 1.0328 0.0
N454 N 0.64148 0.95219 0.16593 0.0
N455 N 0.66031 0.04953 1.04765 0.0
H456 H 0.15086 0.12982 0.39254 0.0
H457 H 0.15887 0.12355 0.91669 0.0
H458 H 0.19757 0.18213 0.24162 0.0
H459 H 0.11327 0.17531 0.06223 0.0
H460 H 0.17003 0.07972 1.03762 0.0
H461 H 0.13902 0.08149 0.27735 0.0
C462 C 0.15893 0.1306 0.33589 0.0
C463 C 0.17412 0.16321 0.32322 0.0
C464 C 0.15696 0.09887 1.04148 0.0
C465 C 0.16118 0.10632 0.19401 0.0
C466 C 0.1509 0.12513 0.97342 0.0
C467 C 0.1364 0.15678 0.9827 0.0
C468 C 0.14837 0.10455 0.11816 0.0
C469 C 0.12539 0.15373 0.0543 0.0
C470 C 0.15245 0.10186 0.2712 0.0
C471 C 0.18504 0.15955 0.2519 0.0
N472 N 0.13195 0.12892 0.1206 0.0
N473 N 0.17801 0.13241 0.18855 0.0
H474 H 0.86688 0.25776 0.28367 0.0
H475 H 0.93171 0.27181 0.86407 0.0
H476 H 0.92991 0.2703 0.29502 0.0
H477 H 0.86867 0.25896 0.85264 0.0
H478 H 0.93137 0.27137 1.01874 0.0
H479 H 0.86721 0.25812 0.129 0.0
C480 C 0.88087 0.2606 0.25451 0.0
C481 C 0.89839 0.26401 0.30586 0.0
C482 C 0.91754 0.26864 0.98285 0.0
C483 C 0.89888 0.26447 0.12284 0.0
C484 C 0.91771 0.2689 0.89322 0.0
C485 C 0.9002 0.26544 0.84185 0.0
C486 C 0.89969 0.26488 1.02486 0.0
C487 C 0.8827 0.26176 0.88698 0.0
C488 C 0.88104 0.26081 0.16488 0.0
C489 C 0.91588 0.26756 0.2607 0.0
N490 N 0.88294 0.26159 0.97381 0.0
N491 N 0.91564 0.2677 0.17387 0.0
H492 H 0.10168 0.74033 0.23392 0.0
H493 H 0.16656 0.7534 0.81443 0.0
H494 H 0.16474 0.7522 0.2455 0.0
H495 H 0.10351 0.74184 0.80304 0.0
H496 H 0.16623 0.75303 0.9691 0.0
H497 H 0.10204 0.74077 0.07926 0.0
C498 C 0.11569 0.74303 0.20481 0.0
C499 C 0.1332 0.74622 0.25621 0.0
C500 C 0.15239 0.75056 0.93321 0.0
C501 C 0.13372 0.74677 0.07321 0.0
C502 C 0.15256 0.75078 0.84358 0.0
C503 C 0.13504 0.74765 0.79221 0.0
C504 C 0.13454 0.74717 0.97524 0.0
C505 C 0.11754 0.74436 0.83736 0.0
C506 C 0.11587 0.74329 0.11519 0.0
C507 C 0.15071 0.74962 0.21113 0.0
N508 N 0.11778 0.74421 0.92419 0.0
N509 N 0.15048 0.74979 0.12429 0.0
H510 H 0.88226 0.88159 0.70482 0.0
H511 H 0.87358 0.88849 0.17983 0.0
H512 H 0.8356 0.8287 0.85537 0.0
H513 H 0.91973 0.83823 1.0355 0.0
H514 H 0.86236 0.93205 0.05873 0.0
H515 H 0.89369 0.93073 0.81945 0.0
C516 C 0.87412 0.88081 0.76126 0.0
C517 C 0.85908 0.84784 0.77412 0.0
C518 C 0.87555 0.91329 0.05519 0.0
C519 C 0.87155 0.90563 0.90265 0.0
C520 C 0.88165 0.88715 0.12335 0.0
C521 C 0.89634 0.85593 0.11445 0.0
C522 C 0.88428 0.90789 0.97873 0.0
C523 C 0.90746 0.85938 1.04316 0.0
C524 C 0.88036 0.91002 0.82561 0.0
C525 C 0.84804 0.85154 0.84504 0.0
N526 N 0.90086 0.88404 0.97672 0.0
N527 N 0.85483 0.87914 0.90808 0.0
H528 H 0.5962 0.79826 0.50152 0.0
H529 H 0.63737 0.64456 0.7997 0.0
H530 H 0.61278 0.66266 0.45576 0.0
H531 H 0.62681 0.7867 0.81034 0.0
H532 H 0.60827 0.63397 0.70628 0.0
H533 H 0.58 0.7713 0.62642 0.0
C534 C 0.59611 0.76266 0.517 0.0
C535 C 0.60769 0.7334 0.47454 0.0
C536 C 0.61205 0.66727 0.73101 0.0
C537 C 0.5915 0.70442 0.61986 0.0
C538 C 0.62902 0.67359 0.78225 0.0
C539 C 0.63529 0.71715 0.80836 0.0
C540 C 0.60166 0.70497 0.70375 0.0
C541 C 0.62304 0.75282 0.78897 0.0
C542 C 0.5866 0.74694 0.58749 0.0
C543 C 0.60561 0.68714 0.49214 0.0
N544 N 0.60704 0.74605 0.73689 0.0
N545 N 0.59802 0.67379 0.5657 0.0
H546 H 0.4297 0.76803 0.78749 0.0
H547 H 0.36664 0.75569 0.33924 0.0
H548 H 0.36664 0.75703 0.77055 0.0
H549 H 0.42969 0.76713 0.35635 0.0
H550 H 0.36637 0.75604 0.49356 0.0
H551 H 0.42994 0.76769 0.6332 0.0
C552 C 0.41579 0.76555 0.7521 0.0
C553 C 0.3981 0.7626 0.79556 0.0
C554 C 0.38034 0.75847 0.46415 0.0
C555 C 0.39833 0.76214 0.61253 0.0
C556 C 0.38054 0.75826 0.37468 0.0
C557 C 0.39823 0.76133 0.33128 0.0
C558 C 0.39798 0.76179 0.51429 0.0
C559 C 0.41555 0.76461 0.3843 0.0
C560 C 0.41598 0.76535 0.66263 0.0
C561 C 0.38078 0.75945 0.74257 0.0
N562 N 0.41495 0.76474 0.47102 0.0
N563 N 0.38136 0.75931 0.65584 0.0
H564 H 0.66915 0.2547 0.33901 0.0
H565 H 0.60241 0.24402 0.75362 0.0
H566 H 0.60611 0.2428 0.32311 0.0
H567 H 0.66547 0.25517 0.76956 0.0
H568 H 0.60341 0.24368 0.59901 0.0
H569 H 0.66816 0.25503 0.49363 0.0
C570 C 0.65503 0.25211 0.36712 0.0
C571 C 0.63771 0.24868 0.31453 0.0
C572 C 0.6171 0.24623 0.63593 0.0
C573 C 0.63642 0.24911 0.49741 0.0
C574 C 0.61654 0.24644 0.72553 0.0
C575 C 0.63386 0.24967 0.77814 0.0
C576 C 0.63516 0.24926 0.59525 0.0
C577 C 0.65156 0.25263 0.73427 0.0
C578 C 0.65447 0.25232 0.45672 0.0
C579 C 0.62002 0.24552 0.35841 0.0
N580 N 0.6517 0.25236 0.64753 0.0
N581 N 0.61988 0.24581 0.44514 0.0
H582 H 0.39735 0.36593 0.29268 0.0
H583 H 0.43672 0.21312 0.59231 0.0
H584 H 0.40871 0.22428 0.28044 0.0
H585 H 0.42067 0.34941 0.63502 0.0
H586 H 0.45399 0.23934 0.46963 0.0
H587 H 0.42633 0.37705 0.3865 0.0
C588 C 0.40585 0.33711 0.30994 0.0
C589 C 0.3998 0.29347 0.28358 0.0
C590 C 0.44724 0.264 0.50738 0.0
C591 C 0.43322 0.3062 0.38906 0.0
C592 C 0.43711 0.2487 0.57653 0.0
C593 C 0.42544 0.27844 0.6173 0.0
C594 C 0.44282 0.30663 0.4741 0.0
C595 C 0.42792 0.32462 0.59969 0.0
C596 C 0.42276 0.34373 0.36143 0.0
C597 C 0.41226 0.25815 0.30237 0.0
N598 N 0.43613 0.33759 0.52722 0.0
N599 N 0.42816 0.26514 0.35504 0.0
H600 H 0.10062 0.2925 0.46939 0.0
H601 H 0.99371 0.19918 0.6023 0.0
H602 H 0.09166 0.19647 0.6693 0.0
H603 H 1.00381 0.33084 0.49379 0.0
H604 H 0.02906 0.18617 0.59596 0.0
H605 H 0.06466 0.29569 0.44721 0.0
C606 C 0.09114 0.27141 0.5073 0.0
C607 C 0.0992 0.24427 0.57141 0.0
C608 C 0.02347 0.2176 0.5721 0.0
C609 C 0.0581 0.24743 0.54608 0.0
C610 C 1.00328 0.22476 0.57497 0.0
C611 C 0.99583 0.26604 0.54819 0.0
C612 C 0.03626 0.25168 0.54093 0.0
C613 C 1.00899 0.29853 0.51488 0.0
C614 C 0.07063 0.27345 0.49509 0.0
C615 C 0.08613 0.21804 0.61939 0.0
N616 N 0.02849 0.29075 0.51225 0.0
N617 N 0.06635 0.22023 0.60579 0.0
H618 H 0.9411 0.81512 0.42157 0.0
H619 H 0.03103 0.68529 0.61892 0.0
H620 H 0.93394 0.72322 0.62929 0.0
H621 H 0.03859 0.81045 0.48434 0.0
H622 H 0.99583 0.69818 0.62642 0.0
H623 H 0.97665 0.81376 0.44451 0.0
C624 C 0.94702 0.79499 0.47289 0.0
C625 C 0.93441 0.76923 0.52361 0.0
C626 C 1.0052 0.72335 0.59671 0.0
C627 C 0.97552 0.7668 0.54925 0.0
C628 C 0.02529 0.71608 0.59277 0.0
C629 C 0.03777 0.74717 0.55199 0.0
C630 C 0.9973 0.76143 0.55731 0.0
C631 C 0.02955 0.78609 0.51762 0.0
C632 C 0.96739 0.79432 0.486 0.0
C633 C 0.94303 0.74382 0.58902 0.0
N634 N 1.00983 0.79175 0.51985 0.0
N635 N 0.96304 0.74266 0.59908 0.0
H636 H 0.59319 0.7248 0.23505 0.0
H637 H 0.49823 0.77269 0.93798 0.0
H638 H 0.59818 0.75542 0.97221 0.0
H639 H 0.49729 0.7345 0.19792 0.0
H640 H 0.53396 0.76126 0.94171 0.0
H641 H 0.5578 0.72354 0.21613 0.0
C642 C 0.58686 0.73122 0.17287 0.0
C643 C 0.59891 0.7406 0.10531 0.0
C644 C 0.52587 0.75449 0.99745 0.0
C645 C 0.55759 0.73943 0.08297 0.0
C646 C 0.50547 0.76051 0.99498 0.0
C647 C 0.49477 0.75367 0.06744 0.0
C648 C 0.53562 0.74187 0.07321 0.0
C649 C 0.50493 0.7394 0.14047 0.0
C650 C 0.56646 0.7304 0.16206 0.0
C651 C 0.58956 0.74814 1.02624 0.0
N652 N 0.52464 0.73424 0.14155 0.0
N653 N 0.56946 0.74781 1.01738 0.0
H654 H 0.4414 0.27729 0.85331 0.0
H655 H 0.5322 0.23949 0.17742 0.0
H656 H 0.43502 0.26172 0.11957 0.0
H657 H 0.53902 0.26953 0.91593 0.0
H658 H 0.49704 0.25078 0.15871 0.0
H659 H 0.47693 0.27716 0.87597 0.0
C660 C 0.44743 0.27397 0.91688 0.0
C661 C 0.43499 0.26924 0.98465 0.0
C662 C 0.50616 0.25535 0.10538 0.0
C663 C 0.47619 0.26896 1.01094 0.0
C664 C 0.5263 0.24888 0.11598 0.0
C665 C 0.53865 0.25325 1.04796 0.0
C666 C 0.498 0.26594 1.02575 0.0
C667 C 0.53013 0.26601 0.97013 0.0
C668 C 0.46784 0.27401 0.92966 0.0
C669 C 0.44391 0.26536 0.06535 0.0
N670 N 0.51035 0.27138 0.96097 0.0
N671 N 0.4639 0.26498 0.0761 0.0
loop_
_geom_bond_atom_site_label_1
_geom_bond_atom_site_label_2
_geom_bond_distance
_geom_bond_site_symmetry_2
_ccdc_geom_bond_type
Co0 N5 2.057 . S
Co0 O17 2.021 . S
Co0 O20 2.062 . S
Co0 O24 2.117 . S
Co0 O25 2.020 . S
C1 O21 1.259 . S
C1 O24 1.258 . S
Co2 N11 2.057 . S
Co2 O18 2.117 . S
Co2 O19 2.020 . S
Co2 O21 2.021 . S
Co2 O26 2.062 . S
C3 N5 1.316 . S
C3 N6 1.347 . S
C3 H8 0.931 . S
C4 N5 1.375 . S
C4 C7 1.350 . S
C4 H9 0.930 . S
N5 Co0 2.057 . S
N5 C3 1.316 . S
N5 C4 1.375 . S
N6 C3 1.347 . S
N6 C7 1.373 . S
C7 C4 1.350 . S
C7 N6 1.373 . S
C7 H28 0.931 . S
H8 C3 0.931 . S
H9 C4 0.930 . S
C10 O17 1.259 . S
C10 O18 1.258 . S
N11 Co2 2.057 . S
N11 C12 1.316 . S
N11 C13 1.375 . S
C12 N11 1.316 . S
C12 N14 1.347 . S
C12 H23 0.931 . S
C13 N11 1.375 . S
C13 C15 1.350 . S
C13 H22 0.930 . S
N14 C12 1.347 . S
N14 C15 1.373 . S
C15 C13 1.350 . S
C15 N14 1.373 . S
C15 H29 0.931 . S
C16 O19 1.256 . S
C16 O20 1.255 . S
O17 Co0 2.021 . S
O17 C10 1.259 . S
O18 Co2 2.117 . S
O18 C10 1.258 . S
O19 Co2 2.020 . S
O19 C16 1.256 . S
O20 Co0 2.062 . S
O20 C16 1.255 . S
O21 C1 1.259 . S
O21 Co2 2.021 . S
H22 C13 0.930 . S
H23 C12 0.931 . S
O24 Co0 2.117 . S
O24 C1 1.258 . S
O25 Co0 2.020 . S
O25 C27 1.256 . S
O26 Co2 2.062 . S
O26 C27 1.255 . S
C27 O25 1.256 . S
C27 O26 1.255 . S
H28 C7 0.931 . S
H29 C15 0.931 . S
Co30 N35 2.057 . S
Co30 O47 2.021 . S
Co30 O50 2.062 . S
Co30 O54 2.117 . S
Co30 O55 2.020 . S
C31 O51 1.259 . S
C31 O54 1.258 . S
Co32 N41 2.057 . S
Co32 O48 2.117 . S
Co32 O49 2.020 . S
Co32 O51 2.021 . S
Co32 O56 2.062 . S
C33 N35 1.316 . S
C33 N36 1.347 . S
C33 H38 0.931 . S
C34 N35 1.375 . S
C34 C37 1.350 . S
C34 H39 0.930 . S
N35 Co30 2.057 . S
N35 C33 1.316 . S
N35 C34 1.375 . S
N36 C33 1.347 . S
N36 C37 1.373 . S
C37 C34 1.350 . S
C37 N36 1.373 . S
C37 H58 0.931 . S
H38 C33 0.931 . S
H39 C34 0.930 . S
C40 O47 1.259 . S
C40 O48 1.258 . S
N41 Co32 2.057 . S
N41 C42 1.316 . S
N41 C43 1.375 . S
C42 N41 1.316 . S
C42 N44 1.347 . S
C42 H53 0.931 . S
C43 N41 1.375 . S
C43 C45 1.350 . S
C43 H52 0.930 . S
N44 C42 1.347 . S
N44 C45 1.373 . S
C45 C43 1.350 . S
C45 N44 1.373 . S
C45 H59 0.931 . S
C46 O49 1.256 . S
C46 O50 1.255 . S
O47 Co30 2.021 . S
O47 C40 1.259 . S
O48 Co32 2.117 . S
O48 C40 1.258 . S
O49 Co32 2.020 . S
O49 C46 1.256 . S
O50 Co30 2.062 . S
O50 C46 1.255 . S
O51 C31 1.259 . S
O51 Co32 2.021 . S
H52 C43 0.930 . S
H53 C42 0.931 . S
O54 Co30 2.117 . S
O54 C31 1.258 . S
O55 Co30 2.020 . S
O55 C57 1.256 . S
O56 Co32 2.062 . S
O56 C57 1.255 . S
C57 O55 1.256 . S
C57 O56 1.255 . S
H58 C37 0.931 . S
H59 C45 0.931 . S
Co60 N65 2.057 . S
Co60 O77 2.021 . S
Co60 O80 2.062 . S
Co60 O84 2.117 . S
Co60 O85 2.020 . S
C61 O81 1.259 . S
C61 O84 1.258 . S
Co62 N71 2.057 . S
Co62 O78 2.117 . S
Co62 O79 2.020 . S
Co62 O81 2.021 . S
Co62 O86 2.062 . S
C63 N65 1.316 . S
C63 N66 1.347 . S
C63 H68 0.931 . S
C64 N65 1.375 . S
C64 C67 1.350 . S
C64 H69 0.930 . S
N65 Co60 2.057 . S
N65 C63 1.316 . S
N65 C64 1.375 . S
N66 C63 1.347 . S
N66 C67 1.373 . S
C67 C64 1.350 . S
C67 N66 1.373 . S
C67 H88 0.931 . S
H68 C63 0.931 . S
H69 C64 0.930 . S
C70 O77 1.259 . S
C70 O78 1.258 . S
N71 Co62 2.057 . S
N71 C72 1.316 . S
N71 C73 1.375 . S
C72 N71 1.316 . S
C72 N74 1.347 . S
C72 H83 0.931 . S
C73 N71 1.375 . S
C73 C75 1.350 . S
C73 H82 0.930 . S
N74 C72 1.347 . S
N74 C75 1.373 . S
C75 C73 1.350 . S
C75 N74 1.373 . S
C75 H89 0.931 . S
C76 O79 1.256 . S
C76 O80 1.255 . S
O77 Co60 2.021 . S
O77 C70 1.259 . S
O78 Co62 2.117 . S
O78 C70 1.258 . S
O79 Co62 2.020 . S
O79 C76 1.256 . S
O80 Co60 2.062 . S
O80 C76 1.255 . S
O81 C61 1.259 . S
O81 Co62 2.021 . S
H82 C73 0.930 . S
H83 C72 0.931 . S
O84 Co60 2.117 . S
O84 C61 1.258 . S
O85 Co60 2.020 . S
O85 C87 1.256 . S
O86 Co62 2.062 . S
O86 C87 1.255 . S
C87 O85 1.256 . S
C87 O86 1.255 . S
H88 C67 0.931 . S
H89 C75 0.931 . S
Co90 N95 2.057 . S
Co90 O107 2.021 . S
Co90 O110 2.062 . S
Co90 O114 2.117 . S
Co90 O115 2.020 . S
C91 O111 1.259 . S
C91 O114 1.258 . S
Co92 N101 2.057 . S
Co92 O108 2.117 . S
Co92 O109 2.020 . S
Co92 O111 2.021 . S
Co92 O116 2.062 . S
C93 N95 1.316 . S
C93 N96 1.347 . S
C93 H98 0.931 . S
C94 N95 1.375 . S
C94 C97 1.350 . S
C94 H99 0.930 . S
N95 Co90 2.057 . S
N95 C93 1.316 . S
N95 C94 1.375 . S
N96 C93 1.347 . S
N96 C97 1.373 . S
C97 C94 1.350 . S
C97 N96 1.373 . S
C97 H118 0.931 . S
H98 C93 0.931 . S
H99 C94 0.930 . S
C100 O107 1.259 . S
C100 O108 1.258 . S
N101 Co92 2.057 . S
N101 C102 1.316 . S
N101 C103 1.375 . S
C102 N101 1.316 . S
C102 N104 1.347 . S
C102 H113 0.931 . S
C103 N101 1.375 . S
C103 C105 1.350 . S
C103 H112 0.930 . S
N104 C102 1.347 . S
N104 C105 1.373 . S
C105 C103 1.350 . S
C105 N104 1.373 . S
C105 H119 0.931 . S
C106 O109 1.256 . S
C106 O110 1.255 . S
O107 Co90 2.021 . S
O107 C100 1.259 . S
O108 Co92 2.117 . S
O108 C100 1.258 . S
O109 Co92 2.020 . S
O109 C106 1.256 . S
O110 Co90 2.062 . S
O110 C106 1.255 . S
O111 C91 1.259 . S
O111 Co92 2.021 . S
H112 C103 0.930 . S
H113 C102 0.931 . S
O114 Co90 2.117 . S
O114 C91 1.258 . S
O115 Co90 2.020 . S
O115 C117 1.256 . S
O116 Co92 2.062 . S
O116 C117 1.255 . S
C117 O115 1.256 . S
C117 O116 1.255 . S
H118 C97 0.931 . S
H119 C105 0.931 . S
Co120 N125 2.057 . S
Co120 O137 2.021 . S
Co120 O140 2.062 . S
Co120 O144 2.117 . S
Co120 O145 2.020 . S
C121 O141 1.259 1_554 S
C121 O144 1.258 . S
Co122 N131 2.057 . S
Co122 O138 2.117 1_556 S
Co122 O139 2.020 1_556 S
Co122 O141 2.021 . S
Co122 O146 2.062 . S
C123 N125 1.316 . S
C123 N126 1.347 . S
C123 H128 0.931 . S
C124 N125 1.375 . S
C124 C127 1.350 . S
C124 H129 0.930 . S
N125 Co120 2.057 . S
N125 C123 1.316 . S
N125 C124 1.375 . S
N126 C123 1.347 . S
N126 C127 1.373 . S
C127 C124 1.350 . S
C127 N126 1.373 . S
C127 H148 0.931 . S
H128 C123 0.931 . S
H129 C124 0.930 . S
C130 O137 1.259 . S
C130 O138 1.258 . S
N131 Co122 2.057 . S
N131 C132 1.316 . S
N131 C133 1.375 . S
C132 N131 1.316 . S
C132 N134 1.347 . S
C132 H143 0.931 . S
C133 N131 1.375 . S
C133 C135 1.350 . S
C133 H142 0.930 . S
N134 C132 1.347 . S
N134 C135 1.373 . S
C135 C133 1.350 . S
C135 N134 1.373 . S
C135 H149 0.931 . S
C136 O139 1.256 . S
C136 O140 1.255 . S
O137 Co120 2.021 . S
O137 C130 1.259 . S
O138 Co122 2.117 1_554 S
O138 C130 1.258 . S
O139 Co122 2.020 1_554 S
O139 C136 1.256 . S
O140 Co120 2.062 . S
O140 C136 1.255 . S
O141 C121 1.259 1_556 S
O141 Co122 2.021 . S
H142 C133 0.930 . S
H143 C132 0.931 . S
O144 Co120 2.117 . S
O144 C121 1.258 . S
O145 Co120 2.020 . S
O145 C147 1.256 . S
O146 Co122 2.062 . S
O146 C147 1.255 1_556 S
C147 O145 1.256 . S
C147 O146 1.255 1_554 S
H148 C127 0.931 . S
H149 C135 0.931 . S
Co150 N155 2.057 . S
Co150 O167 2.021 . S
Co150 O170 2.062 1_554 S
Co150 O174 2.117 . S
Co150 O175 2.020 . S
C151 O171 1.259 . S
C151 O174 1.258 . S
Co152 N161 2.057 . S
Co152 O168 2.117 . S
Co152 O169 2.020 1_554 S
Co152 O171 2.021 . S
Co152 O176 2.062 . S
C153 N155 1.316 . S
C153 N156 1.347 . S
C153 H158 0.931 . S
C154 N155 1.375 . S
C154 C157 1.350 . S
C154 H159 0.930 . S
N155 Co150 2.057 . S
N155 C153 1.316 . S
N155 C154 1.375 . S
N156 C153 1.347 . S
N156 C157 1.373 . S
C157 C154 1.350 . S
C157 N156 1.373 . S
C157 H178 0.931 . S
H158 C153 0.931 . S
H159 C154 0.930 . S
C160 O167 1.259 . S
C160 O168 1.258 . S
N161 Co152 2.057 . S
N161 C162 1.316 . S
N161 C163 1.375 . S
C162 N161 1.316 . S
C162 N164 1.347 . S
C162 H173 0.931 . S
C163 N161 1.375 . S
C163 C165 1.350 . S
C163 H172 0.930 . S
N164 C162 1.347 . S
N164 C165 1.373 . S
C165 C163 1.350 . S
C165 N164 1.373 . S
C165 H179 0.931 . S
C166 O169 1.256 . S
C166 O170 1.255 . S
O167 Co150 2.021 . S
O167 C160 1.259 . S
O168 Co152 2.117 . S
O168 C160 1.258 . S
O169 Co152 2.020 1_556 S
O169 C166 1.256 . S
O170 Co150 2.062 1_556 S
O170 C166 1.255 . S
O171 C151 1.259 . S
O171 Co152 2.021 . S
H172 C163 0.930 . S
H173 C162 0.931 . S
O174 Co150 2.117 . S
O174 C151 1.258 . S
O175 Co150 2.020 . S
O175 C177 1.256 . S
O176 Co152 2.062 . S
O176 C177 1.255 . S
C177 O175 1.256 . S
C177 O176 1.255 . S
H178 C157 0.931 . S
H179 C165 0.931 . S
Co180 N185 2.057 . S
Co180 O197 2.021 . S
Co180 O200 2.062 . S
Co180 O204 2.117 . S
Co180 O205 2.020 1_556 S
C181 O201 1.259 . S
C181 O204 1.258 . S
Co182 N191 2.057 . S
Co182 O198 2.117 . S
Co182 O199 2.020 . S
Co182 O201 2.021 . S
Co182 O206 2.062 1_556 S
C183 N185 1.316 . S
C183 N186 1.347 . S
C183 H188 0.931 . S
C184 N185 1.375 . S
C184 C187 1.350 . S
C184 H189 0.930 . S
N185 Co180 2.057 . S
N185 C183 1.316 . S
N185 C184 1.375 . S
N186 C183 1.347 . S
N186 C187 1.373 . S
C187 C184 1.350 . S
C187 N186 1.373 . S
C187 H208 0.931 . S
H188 C183 0.931 . S
H189 C184 0.930 . S
C190 O197 1.259 . S
C190 O198 1.258 . S
N191 Co182 2.057 . S
N191 C192 1.316 . S
N191 C193 1.375 . S
C192 N191 1.316 . S
C192 N194 1.347 . S
C192 H203 0.931 . S
C193 N191 1.375 . S
C193 C195 1.350 . S
C193 H202 0.930 . S
N194 C192 1.347 . S
N194 C195 1.373 . S
C195 C193 1.350 . S
C195 N194 1.373 . S
C195 H209 0.931 . S
C196 O199 1.256 . S
C196 O200 1.255 . S
O197 Co180 2.021 . S
O197 C190 1.259 . S
O198 Co182 2.117 . S
O198 C190 1.258 . S
O199 Co182 2.020 . S
O199 C196 1.256 . S
O200 Co180 2.062 . S
O200 C196 1.255 . S
O201 C181 1.259 . S
O201 Co182 2.021 . S
H202 C193 0.930 . S
H203 C192 0.931 . S
O204 Co180 2.117 . S
O204 C181 1.258 . S
O205 Co180 2.020 1_554 S
O205 C207 1.256 . S
O206 Co182 2.062 1_554 S
O206 C207 1.255 . S
C207 O205 1.256 . S
C207 O206 1.255 . S
H208 C187 0.931 . S
H209 C195 0.931 . S
Co210 N215 2.057 . S
Co210 O227 2.021 . S
Co210 O230 2.062 . S
Co210 O234 2.117 1_554 S
Co210 O235 2.020 1_554 S
C211 O231 1.259 . S
C211 O234 1.258 . S
Co212 N221 2.057 . S
Co212 O228 2.117 . S
Co212 O229 2.020 . S
Co212 O231 2.021 . S
Co212 O236 2.062 . S
C213 N215 1.316 . S
C213 N216 1.347 . S
C213 H218 0.931 . S
C214 N215 1.375 . S
C214 C217 1.350 . S
C214 H219 0.930 . S
N215 Co210 2.057 . S
N215 C213 1.316 . S
N215 C214 1.375 . S
N216 C213 1.347 . S
N216 C217 1.373 . S
C217 C214 1.350 . S
C217 N216 1.373 . S
C217 H238 0.931 . S
H218 C213 0.931 . S
H219 C214 0.930 . S
C220 O227 1.259 1_556 S
C220 O228 1.258 . S
N221 Co212 2.057 . S
N221 C222 1.316 . S
N221 C223 1.375 . S
C222 N221 1.316 . S
C222 N224 1.347 . S
C222 H233 0.931 . S
C223 N221 1.375 . S
C223 C225 1.350 . S
C223 H232 0.930 . S
N224 C222 1.347 . S
N224 C225 1.373 . S
C225 C223 1.350 . S
C225 N224 1.373 . S
C225 H239 0.931 . S
C226 O229 1.256 . S
C226 O230 1.255 1_556 S
O227 Co210 2.021 . S
O227 C220 1.259 1_554 S
O228 Co212 2.117 . S
O228 C220 1.258 . S
O229 Co212 2.020 . S
O229 C226 1.256 . S
O230 Co210 2.062 . S
O230 C226 1.255 1_554 S
O231 C211 1.259 . S
O231 Co212 2.021 . S
H232 C223 0.930 . S
H233 C222 0.931 . S
O234 Co210 2.117 1_556 S
O234 C211 1.258 . S
O235 Co210 2.020 1_556 S
O235 C237 1.256 . S
O236 Co212 2.062 . S
O236 C237 1.255 . S
C237 O235 1.256 . S
C237 O236 1.255 . S
H238 C217 0.931 . S
H239 C225 0.931 . S
H240 C246 0.930 . S
H241 C250 0.930 . S
H242 C255 0.929 . S
H243 C253 0.929 . S
H244 C248 0.929 . S
H245 C254 0.929 . S
C246 H240 0.930 . S
C246 C247 1.367 . S
C246 C254 1.378 . S
C247 C246 1.367 . S
C247 C255 1.433 . S
C248 H244 0.929 . S
C248 C250 1.378 . S
C248 C252 1.350 . S
C249 C252 1.463 . S
C249 C254 1.350 . S
C249 N257 1.427 . S
C250 H241 0.930 . S
C250 C248 1.378 . S
C250 C251 1.367 . S
C251 C250 1.367 . S
C251 C253 1.433 . S
C252 C248 1.350 . S
C252 C249 1.463 . S
C252 N256 1.427 . S
C253 H243 0.929 . S
C253 C251 1.433 . S
C253 N256 1.384 . S
C254 H245 0.929 . S
C254 C246 1.378 . S
C254 C249 1.350 . S
C255 H242 0.929 . S
C255 C247 1.433 . S
C255 N257 1.384 . S
N256 C252 1.427 . S
N256 C253 1.384 . S
N257 C249 1.427 . S
N257 C255 1.384 . S
H258 C264 0.930 . S
H259 C268 0.930 . S
H260 C273 0.929 . S
H261 C271 0.929 . S
H262 C266 0.929 . S
H263 C272 0.929 . S
C264 H258 0.930 . S
C264 C265 1.367 . S
C264 C272 1.378 . S
C265 C264 1.367 . S
C265 C273 1.433 . S
C266 H262 0.929 . S
C266 C268 1.378 . S
C266 C270 1.350 . S
C267 C270 1.463 . S
C267 C272 1.350 . S
C267 N275 1.427 . S
C268 H259 0.930 . S
C268 C266 1.378 . S
C268 C269 1.367 . S
C269 C268 1.367 . S
C269 C271 1.433 . S
C270 C266 1.350 . S
C270 C267 1.463 . S
C270 N274 1.427 . S
C271 H261 0.929 . S
C271 C269 1.433 . S
C271 N274 1.384 . S
C272 H263 0.929 . S
C272 C264 1.378 . S
C272 C267 1.350 . S
C273 H260 0.929 . S
C273 C265 1.433 . S
C273 N275 1.384 . S
N274 C270 1.427 . S
N274 C271 1.384 . S
N275 C267 1.427 . S
N275 C273 1.384 . S
H276 C282 0.930 . S
H277 C286 0.930 . S
H278 C291 0.929 . S
H279 C289 0.929 . S
H280 C284 0.929 . S
H281 C290 0.929 . S
C282 H276 0.930 . S
C282 C283 1.367 . S
C282 C290 1.378 . S
C283 C282 1.367 . S
C283 C291 1.433 . S
C284 H280 0.929 . S
C284 C286 1.378 . S
C284 C288 1.350 . S
C285 C288 1.463 . S
C285 C290 1.350 . S
C285 N293 1.427 . S
C286 H277 0.930 . S
C286 C284 1.378 . S
C286 C287 1.367 . S
C287 C286 1.367 . S
C287 C289 1.433 . S
C288 C284 1.350 . S
C288 C285 1.463 . S
C288 N292 1.427 . S
C289 H279 0.929 . S
C289 C287 1.433 . S
C289 N292 1.384 . S
C290 H281 0.929 . S
C290 C282 1.378 . S
C290 C285 1.350 . S
C291 H278 0.929 . S
C291 C283 1.433 . S
C291 N293 1.384 . S
N292 C288 1.427 . S
N292 C289 1.384 . S
N293 C285 1.427 . S
N293 C291 1.384 . S
H294 C300 0.930 . S
H295 C304 0.930 . S
H296 C309 0.929 . S
H297 C307 0.929 . S
H298 C302 0.929 . S
H299 C308 0.929 . S
C300 H294 0.930 . S
C300 C301 1.367 . S
C300 C308 1.378 . S
C301 C300 1.367 . S
C301 C309 1.433 . S
C302 H298 0.929 . S
C302 C304 1.378 . S
C302 C306 1.350 . S
C303 C306 1.463 . S
C303 C308 1.350 . S
C303 N311 1.427 . S
C304 H295 0.930 . S
C304 C302 1.378 . S
C304 C305 1.367 . S
C305 C304 1.367 . S
C305 C307 1.433 . S
C306 C302 1.350 . S
C306 C303 1.463 . S
C306 N310 1.427 . S
C307 H297 0.929 . S
C307 C305 1.433 . S
C307 N310 1.384 . S
C308 H299 0.929 . S
C308 C300 1.378 . S
C308 C303 1.350 . S
C309 H296 0.929 . S
C309 C301 1.433 . S
C309 N311 1.384 . S
N310 C306 1.427 . S
N310 C307 1.384 . S
N311 C303 1.427 . S
N311 C309 1.384 . S
H312 C318 0.930 . S
H313 C322 0.930 . S
H314 C327 0.929 . S
H315 C325 0.929 . S
H316 C320 0.929 . S
H317 C326 0.929 . S
C318 H312 0.930 . S
C318 C319 1.367 . S
C318 C326 1.378 . S
C319 C318 1.367 . S
C319 C327 1.433 . S
C320 H316 0.929 . S
C320 C322 1.378 . S
C320 C324 1.350 . S
C321 C324 1.463 1_565 S
C321 C326 1.350 . S
C321 N329 1.427 . S
C322 H313 0.930 . S
C322 C320 1.378 . S
C322 C323 1.367 . S
C323 C322 1.367 . S
C323 C325 1.433 . S
C324 C320 1.350 . S
C324 C321 1.463 1_545 S
C324 N328 1.427 . S
C325 H315 0.929 . S
C325 C323 1.433 . S
C325 N328 1.384 . S
C326 H317 0.929 . S
C326 C318 1.378 . S
C326 C321 1.350 . S
C327 H314 0.929 . S
C327 C319 1.433 . S
C327 N329 1.384 . S
N328 C324 1.427 . S
N328 C325 1.384 . S
N329 C321 1.427 . S
N329 C327 1.384 . S
H330 C336 0.930 . S
H331 C340 0.930 . S
H332 C345 0.929 . S
H333 C343 0.929 . S
H334 C338 0.929 . S
H335 C344 0.929 . S
C336 H330 0.930 . S
C336 C337 1.367 . S
C336 C344 1.378 . S
C337 C336 1.367 . S
C337 C345 1.433 . S
C338 H334 0.929 . S
C338 C340 1.378 . S
C338 C342 1.350 . S
C339 C342 1.463 . S
C339 C344 1.350 . S
C339 N347 1.427 . S
C340 H331 0.930 . S
C340 C338 1.378 . S
C340 C341 1.367 . S
C341 C340 1.367 . S
C341 C343 1.433 . S
C342 C338 1.350 . S
C342 C339 1.463 . S
C342 N346 1.427 . S
C343 H333 0.929 . S
C343 C341 1.433 . S
C343 N346 1.384 . S
C344 H335 0.929 . S
C344 C336 1.378 . S
C344 C339 1.350 . S
C345 H332 0.929 . S
C345 C337 1.433 . S
C345 N347 1.384 . S
N346 C342 1.427 . S
N346 C343 1.384 . S
N347 C339 1.427 . S
N347 C345 1.384 . S
H348 C354 0.930 . S
H349 C358 0.930 . S
H350 C363 0.929 . S
H351 C361 0.929 . S
H352 C356 0.929 . S
H353 C362 0.929 . S
C354 H348 0.930 . S
C354 C355 1.367 . S
C354 C362 1.378 . S
C355 C354 1.367 . S
C355 C363 1.433 . S
C356 H352 0.929 . S
C356 C358 1.378 . S
C356 C360 1.350 . S
C357 C360 1.463 1_565 S
C357 C362 1.350 . S
C357 N365 1.427 . S
C358 H349 0.930 . S
C358 C356 1.378 . S
C358 C359 1.367 . S
C359 C358 1.367 . S
C359 C361 1.433 . S
C360 C356 1.350 . S
C360 C357 1.463 1_545 S
C360 N364 1.427 . S
C361 H351 0.929 . S
C361 C359 1.433 . S
C361 N364 1.384 . S
C362 H353 0.929 . S
C362 C354 1.378 . S
C362 C357 1.350 . S
C363 H350 0.929 . S
C363 C355 1.433 . S
C363 N365 1.384 . S
N364 C360 1.427 . S
N364 C361 1.384 . S
N365 C357 1.427 . S
N365 C363 1.384 . S
H366 C372 0.930 . S
H367 C376 0.930 . S
H368 C381 0.929 . S
H369 C379 0.929 . S
H370 C374 0.929 . S
H371 C380 0.929 . S
C372 H366 0.930 . S
C372 C373 1.367 . S
C372 C380 1.378 . S
C373 C372 1.367 . S
C373 C381 1.433 . S
C374 H370 0.929 . S
C374 C376 1.378 . S
C374 C378 1.350 . S
C375 C378 1.463 . S
C375 C380 1.350 . S
C375 N383 1.427 . S
C376 H367 0.930 . S
C376 C374 1.378 . S
C376 C377 1.367 . S
C377 C376 1.367 . S
C377 C379 1.433 . S
C378 C374 1.350 . S
C378 C375 1.463 . S
C378 N382 1.427 . S
C379 H369 0.929 . S
C379 C377 1.433 . S
C379 N382 1.384 . S
C380 H371 0.929 . S
C380 C372 1.378 . S
C380 C375 1.350 . S
C381 H368 0.929 . S
C381 C373 1.433 . S
C381 N383 1.384 . S
N382 C378 1.427 . S
N382 C379 1.384 . S
N383 C375 1.427 . S
N383 C381 1.384 . S
H384 C390 0.930 1_556 S
H385 C394 0.930 . S
H386 C399 0.929 . S
H387 C397 0.929 . S
H388 C392 0.929 . S
H389 C398 0.929 . S
C390 H384 0.930 1_554 S
C390 C391 1.367 . S
C390 C398 1.378 1_554 S
C391 C390 1.367 . S
C391 C399 1.433 . S
C392 H388 0.929 . S
C392 C394 1.378 . S
C392 C396 1.350 . S
C393 C396 1.463 . S
C393 C398 1.350 1_554 S
C393 N401 1.427 . S
C394 H385 0.930 . S
C394 C392 1.378 . S
C394 C395 1.367 1_554 S
C395 C394 1.367 1_556 S
C395 C397 1.433 . S
C396 C392 1.350 . S
C396 C393 1.463 . S
C396 N400 1.427 1_554 S
C397 H387 0.929 . S
C397 C395 1.433 . S
C397 N400 1.384 . S
C398 H389 0.929 . S
C398 C390 1.378 1_556 S
C398 C393 1.350 1_556 S
C399 H386 0.929 . S
C399 C391 1.433 . S
C399 N401 1.384 . S
N400 C396 1.427 1_556 S
N400 C397 1.384 . S
N401 C393 1.427 . S
N401 C399 1.384 . S
H402 C408 0.930 . S
H403 C412 0.930 . S
H404 C417 0.929 . S
H405 C415 0.929 . S
H406 C410 0.929 . S
H407 C416 0.929 . S
C408 H402 0.930 . S
C408 C409 1.367 . S
C408 C416 1.378 . S
C409 C408 1.367 . S
C409 C417 1.433 1_554 S
C410 H406 0.929 . S
C410 C412 1.378 . S
C410 C414 1.350 . S
C411 C414 1.463 1_564 S
C411 C416 1.350 . S
C411 N419 1.427 1_554 S
C412 H403 0.930 . S
C412 C410 1.378 . S
C412 C413 1.367 . S
C413 C412 1.367 . S
C413 C415 1.433 1_556 S
C414 C410 1.350 . S
C414 C411 1.463 1_546 S
C414 N418 1.427 1_556 S
C415 H405 0.929 . S
C415 C413 1.433 1_554 S
C415 N418 1.384 . S
C416 H407 0.929 . S
C416 C408 1.378 . S
C416 C411 1.350 . S
C417 H404 0.929 . S
C417 C409 1.433 1_556 S
C417 N419 1.384 . S
N418 C414 1.427 1_554 S
N418 C415 1.384 . S
N419 C411 1.427 1_556 S
N419 C417 1.384 . S
H420 C426 0.930 . S
H421 C430 0.930 . S
H422 C435 0.929 . S
H423 C433 0.929 . S
H424 C428 0.929 . S
H425 C434 0.929 . S
C426 H420 0.930 . S
C426 C427 1.367 1_554 S
C426 C434 1.378 . S
C427 C426 1.367 1_556 S
C427 C435 1.433 . S
C428 H424 0.929 . S
C428 C430 1.378 . S
C428 C432 1.350 . S
C429 C432 1.463 . S
C429 C434 1.350 1_556 S
C429 N437 1.427 . S
C430 H421 0.930 . S
C430 C428 1.378 . S
C430 C431 1.367 1_556 S
C431 C430 1.367 1_554 S
C431 C433 1.433 . S
C432 C428 1.350 . S
C432 C429 1.463 . S
C432 N436 1.427 1_556 S
C433 H423 0.929 . S
C433 C431 1.433 . S
C433 N436 1.384 . S
C434 H425 0.929 . S
C434 C426 1.378 . S
C434 C429 1.350 1_554 S
C435 H422 0.929 . S
C435 C427 1.433 . S
C435 N437 1.384 . S
N436 C432 1.427 1_554 S
N436 C433 1.384 . S
N437 C429 1.427 . S
N437 C435 1.384 . S
H438 C444 0.930 . S
H439 C448 0.930 . S
H440 C453 0.929 . S
H441 C451 0.929 . S
H442 C446 0.929 . S
H443 C452 0.929 . S
C444 H438 0.930 . S
C444 C445 1.367 1_554 S
C444 C452 1.378 . S
C445 C444 1.367 1_556 S
C445 C453 1.433 . S
C446 H442 0.929 . S
C446 C448 1.378 . S
C446 C450 1.350 1_556 S
C447 C450 1.463 1_545 S
C447 C452 1.350 . S
C447 N455 1.427 1_554 S
C448 H439 0.930 . S
C448 C446 1.378 . S
C448 C449 1.367 1_556 S
C449 C448 1.367 1_554 S
C449 C451 1.433 . S
C450 C446 1.350 1_554 S
C450 C447 1.463 1_565 S
C450 N454 1.427 . S
C451 H441 0.929 . S
C451 C449 1.433 . S
C451 N454 1.384 . S
C452 H443 0.929 . S
C452 C444 1.378 . S
C452 C447 1.350 . S
C453 H440 0.929 . S
C453 C445 1.433 . S
C453 N455 1.384 . S
N454 C450 1.427 . S
N454 C451 1.384 . S
N455 C447 1.427 1_556 S
N455 C453 1.384 . S
H456 C462 0.930 . S
H457 C466 0.930 . S
H458 C471 0.929 . S
H459 C469 0.929 . S
H460 C464 0.929 1_554 S
H461 C470 0.929 . S
C462 H456 0.930 . S
C462 C463 1.367 . S
C462 C470 1.378 . S
C463 C462 1.367 . S
C463 C471 1.433 . S
C464 H460 0.929 1_556 S
C464 C466 1.378 . S
C464 C468 1.350 1_556 S
C465 C468 1.463 . S
C465 C470 1.350 . S
C465 N473 1.427 . S
C466 H457 0.930 . S
C466 C464 1.378 . S
C466 C467 1.367 . S
C467 C466 1.367 . S
C467 C469 1.433 . S
C468 C464 1.350 1_554 S
C468 C465 1.463 . S
C468 N472 1.427 1_554 S
C469 H459 0.929 . S
C469 C467 1.433 . S
C469 N472 1.384 . S
C470 H461 0.929 . S
C470 C462 1.378 . S
C470 C465 1.350 . S
C471 H458 0.929 . S
C471 C463 1.433 . S
C471 N473 1.384 . S
N472 C468 1.427 1_556 S
N472 C469 1.384 . S
N473 C465 1.427 . S
N473 C471 1.384 . S
H474 C480 0.930 . S
H475 C484 0.930 . S
H476 C489 0.929 . S
H477 C487 0.929 . S
H478 C482 0.929 . S
H479 C488 0.929 . S
C480 H474 0.930 . S
C480 C481 1.367 . S
C480 C488 1.378 . S
C481 C480 1.367 . S
C481 C489 1.433 . S
C482 H478 0.929 . S
C482 C484 1.378 . S
C482 C486 1.350 1_556 S
C483 C486 1.463 . S
C483 C488 1.350 . S
C483 N491 1.427 . S
C484 H475 0.930 . S
C484 C482 1.378 . S
C484 C485 1.367 . S
C485 C484 1.367 . S
C485 C487 1.433 . S
C486 C482 1.350 1_554 S
C486 C483 1.463 . S
C486 N490 1.427 1_554 S
C487 H477 0.929 . S
C487 C485 1.433 . S
C487 N490 1.384 . S
C488 H479 0.929 . S
C488 C480 1.378 . S
C488 C483 1.350 . S
C489 H476 0.929 . S
C489 C481 1.433 . S
C489 N491 1.384 . S
N490 C486 1.427 1_556 S
N490 C487 1.384 . S
N491 C483 1.427 . S
N491 C489 1.384 . S
H492 C498 0.930 . S
H493 C502 0.930 . S
H494 C507 0.929 . S
H495 C505 0.929 . S
H496 C500 0.929 . S
H497 C506 0.929 . S
C498 H492 0.930 . S
C498 C499 1.367 . S
C498 C506 1.378 . S
C499 C498 1.367 . S
C499 C507 1.433 . S
C500 H496 0.929 . S
C500 C502 1.378 . S
C500 C504 1.350 . S
C501 C504 1.463 . S
C501 C506 1.350 1_556 S
C501 N509 1.427 1_556 S
C502 H493 0.930 . S
C502 C500 1.378 . S
C502 C503 1.367 . S
C503 C502 1.367 . S
C503 C505 1.433 . S
C504 C500 1.350 . S
C504 C501 1.463 . S
C504 N508 1.427 . S
C505 H495 0.929 . S
C505 C503 1.433 . S
C505 N508 1.384 . S
C506 H497 0.929 . S
C506 C498 1.378 . S
C506 C501 1.350 1_554 S
C507 H494 0.929 . S
C507 C499 1.433 . S
C507 N509 1.384 . S
N508 C504 1.427 . S
N508 C505 1.384 . S
N509 C501 1.427 1_554 S
N509 C507 1.384 . S
H510 C516 0.930 . S
H511 C520 0.930 . S
H512 C525 0.929 . S
H513 C523 0.929 . S
H514 C518 0.929 1_556 S
H515 C524 0.929 . S
C516 H510 0.930 . S
C516 C517 1.367 . S
C516 C524 1.378 . S
C517 C516 1.367 . S
C517 C525 1.433 . S
C518 H514 0.929 1_554 S
C518 C520 1.378 . S
C518 C522 1.350 1_554 S
C519 C522 1.463 . S
C519 C524 1.350 . S
C519 N527 1.427 . S
C520 H511 0.930 . S
C520 C518 1.378 . S
C520 C521 1.367 . S
C521 C520 1.367 . S
C521 C523 1.433 . S
C522 C518 1.350 1_556 S
C522 C519 1.463 . S
C522 N526 1.427 1_556 S
C523 H513 0.929 . S
C523 C521 1.433 . S
C523 N526 1.384 . S
C524 H515 0.929 . S
C524 C516 1.378 . S
C524 C519 1.350 . S
C525 H512 0.929 . S
C525 C517 1.433 . S
C525 N527 1.384 . S
N526 C522 1.427 1_554 S
N526 C523 1.384 . S
N527 C519 1.427 . S
N527 C525 1.384 . S
H528 C534 0.930 . S
H529 C538 0.930 . S
H530 C543 0.929 . S
H531 C541 0.929 . S
H532 C536 0.929 . S
H533 C542 0.929 . S
C534 H528 0.930 . S
C534 C535 1.367 . S
C534 C542 1.378 . S
C535 C534 1.367 . S
C535 C543 1.433 . S
C536 H532 0.929 . S
C536 C538 1.378 . S
C536 C540 1.350 . S
C537 C540 1.463 . S
C537 C542 1.350 . S
C537 N545 1.427 . S
C538 H529 0.930 . S
C538 C536 1.378 . S
C538 C539 1.367 . S
C539 C538 1.367 . S
C539 C541 1.433 . S
C540 C536 1.350 . S
C540 C537 1.463 . S
C540 N544 1.427 . S
C541 H531 0.929 . S
C541 C539 1.433 . S
C541 N544 1.384 . S
C542 H533 0.929 . S
C542 C534 1.378 . S
C542 C537 1.350 . S
C543 H530 0.929 . S
C543 C535 1.433 . S
C543 N545 1.384 . S
N544 C540 1.427 . S
N544 C541 1.384 . S
N545 C537 1.427 . S
N545 C543 1.384 . S
H546 C552 0.930 . S
H547 C556 0.930 . S
H548 C561 0.929 . S
H549 C559 0.929 . S
H550 C554 0.929 . S
H551 C560 0.929 . S
C552 H546 0.930 . S
C552 C553 1.367 . S
C552 C560 1.378 . S
C553 C552 1.367 . S
C553 C561 1.433 . S
C554 H550 0.929 . S
C554 C556 1.378 . S
C554 C558 1.350 . S
C555 C558 1.463 . S
C555 C560 1.350 . S
C555 N563 1.427 . S
C556 H547 0.930 . S
C556 C554 1.378 . S
C556 C557 1.367 . S
C557 C556 1.367 . S
C557 C559 1.433 . S
C558 C554 1.350 . S
C558 C555 1.463 . S
C558 N562 1.427 . S
C559 H549 0.929 . S
C559 C557 1.433 . S
C559 N562 1.384 . S
C560 H551 0.929 . S
C560 C552 1.378 . S
C560 C555 1.350 . S
C561 H548 0.929 . S
C561 C553 1.433 . S
C561 N563 1.384 . S
N562 C558 1.427 . S
N562 C559 1.384 . S
N563 C555 1.427 . S
N563 C561 1.384 . S
H564 C570 0.930 . S
H565 C574 0.930 . S
H566 C579 0.929 . S
H567 C577 0.929 . S
H568 C572 0.929 . S
H569 C578 0.929 . S
C570 H564 0.930 . S
C570 C571 1.367 . S
C570 C578 1.378 . S
C571 C570 1.367 . S
C571 C579 1.433 . S
C572 H568 0.929 . S
C572 C574 1.378 . S
C572 C576 1.350 . S
C573 C576 1.463 . S
C573 C578 1.350 . S
C573 N581 1.427 . S
C574 H565 0.930 . S
C574 C572 1.378 . S
C574 C575 1.367 . S
C575 C574 1.367 . S
C575 C577 1.433 . S
C576 C572 1.350 . S
C576 C573 1.463 . S
C576 N580 1.427 . S
C577 H567 0.929 . S
C577 C575 1.433 . S
C577 N580 1.384 . S
C578 H569 0.929 . S
C578 C570 1.378 . S
C578 C573 1.350 . S
C579 H566 0.929 . S
C579 C571 1.433 . S
C579 N581 1.384 . S
N580 C576 1.427 . S
N580 C577 1.384 . S
N581 C573 1.427 . S
N581 C579 1.384 . S
H582 C588 0.930 . S
H583 C592 0.930 . S
H584 C597 0.929 . S
H585 C595 0.929 . S
H586 C590 0.929 . S
H587 C596 0.929 . S
C588 H582 0.930 . S
C588 C589 1.367 . S
C588 C596 1.378 . S
C589 C588 1.367 . S
C589 C597 1.433 . S
C590 H586 0.929 . S
C590 C592 1.378 . S
C590 C594 1.350 . S
C591 C594 1.463 . S
C591 C596 1.350 . S
C591 N599 1.427 . S
C592 H583 0.930 . S
C592 C590 1.378 . S
C592 C593 1.367 . S
C593 C592 1.367 . S
C593 C595 1.433 . S
C594 C590 1.350 . S
C594 C591 1.463 . S
C594 N598 1.427 . S
C595 H585 0.929 . S
C595 C593 1.433 . S
C595 N598 1.384 . S
C596 H587 0.929 . S
C596 C588 1.378 . S
C596 C591 1.350 . S
C597 H584 0.929 . S
C597 C589 1.433 . S
C597 N599 1.384 . S
N598 C594 1.427 . S
N598 C595 1.384 . S
N599 C591 1.427 . S
N599 C597 1.384 . S
H600 C606 0.930 . S
H601 C610 0.930 . S
H602 C615 0.929 . S
H603 C613 0.929 . S
H604 C608 0.929 . S
H605 C614 0.929 . S
C606 H600 0.930 . S
C606 C607 1.367 . S
C606 C614 1.378 . S
C607 C606 1.367 . S
C607 C615 1.433 . S
C608 H604 0.929 . S
C608 C610 1.378 1_455 S
C608 C612 1.350 . S
C609 C612 1.463 . S
C609 C614 1.350 . S
C609 N617 1.427 . S
C610 H601 0.930 . S
C610 C608 1.378 1_655 S
C610 C611 1.367 . S
C611 C610 1.367 . S
C611 C613 1.433 . S
C612 C608 1.350 . S
C612 C609 1.463 . S
C612 N616 1.427 . S
C613 H603 0.929 . S
C613 C611 1.433 . S
C613 N616 1.384 1_655 S
C614 H605 0.929 . S
C614 C606 1.378 . S
C614 C609 1.350 . S
C615 H602 0.929 . S
C615 C607 1.433 . S
C615 N617 1.384 . S
N616 C612 1.427 . S
N616 C613 1.384 1_455 S
N617 C609 1.427 . S
N617 C615 1.384 . S
H618 C624 0.930 . S
H619 C628 0.930 . S
H620 C633 0.929 . S
H621 C631 0.929 . S
H622 C626 0.929 . S
H623 C632 0.929 . S
C624 H618 0.930 . S
C624 C625 1.367 . S
C624 C632 1.378 . S
C625 C624 1.367 . S
C625 C633 1.433 . S
C626 H622 0.929 . S
C626 C628 1.378 1_655 S
C626 C630 1.350 . S
C627 C630 1.463 . S
C627 C632 1.350 . S
C627 N635 1.427 . S
C628 H619 0.930 . S
C628 C626 1.378 1_455 S
C628 C629 1.367 . S
C629 C628 1.367 . S
C629 C631 1.433 . S
C630 C626 1.350 . S
C630 C627 1.463 . S
C630 N634 1.427 . S
C631 H621 0.929 . S
C631 C629 1.433 . S
C631 N634 1.384 1_455 S
C632 H623 0.929 . S
C632 C624 1.378 . S
C632 C627 1.350 . S
C633 H620 0.929 . S
C633 C625 1.433 . S
C633 N635 1.384 . S
N634 C630 1.427 . S
N634 C631 1.384 1_655 S
N635 C627 1.427 . S
N635 C633 1.384 . S
H636 C642 0.930 . S
H637 C646 0.930 . S
H638 C651 0.929 . S
H639 C649 0.929 . S
H640 C644 0.929 . S
H641 C650 0.929 . S
C642 H636 0.930 . S
C642 C643 1.367 . S
C642 C650 1.378 . S
C643 C642 1.367 . S
C643 C651 1.433 1_554 S
C644 H640 0.929 . S
C644 C646 1.378 . S
C644 C648 1.350 1_556 S
C645 C648 1.463 . S
C645 C650 1.350 . S
C645 N653 1.427 1_554 S
C646 H637 0.930 . S
C646 C644 1.378 . S
C646 C647 1.367 . S
C647 C646 1.367 . S
C647 C649 1.433 1_556 S
C648 C644 1.350 1_554 S
C648 C645 1.463 . S
C648 N652 1.427 . S
C649 H639 0.929 . S
C649 C647 1.433 1_554 S
C649 N652 1.384 . S
C650 H641 0.929 . S
C650 C642 1.378 . S
C650 C645 1.350 . S
C651 H638 0.929 . S
C651 C643 1.433 1_556 S
C651 N653 1.384 . S
N652 C648 1.427 . S
N652 C649 1.384 . S
N653 C645 1.427 1_556 S
N653 C651 1.384 . S
H654 C660 0.930 . S
H655 C664 0.930 . S
H656 C669 0.929 . S
H657 C667 0.929 . S
H658 C662 0.929 . S
H659 C668 0.929 . S
C660 H654 0.930 . S
C660 C661 1.367 . S
C660 C668 1.378 . S
C661 C660 1.367 . S
C661 C669 1.433 1_556 S
C662 H658 0.929 . S
C662 C664 1.378 . S
C662 C666 1.350 1_554 S
C663 C666 1.463 . S
C663 C668 1.350 . S
C663 N671 1.427 1_556 S
C664 H655 0.930 . S
C664 C662 1.378 . S
C664 C665 1.367 . S
C665 C664 1.367 . S
C665 C667 1.433 1_554 S
C666 C662 1.350 1_556 S
C666 C663 1.463 . S
C666 N670 1.427 . S
C667 H657 0.929 . S
C667 C665 1.433 1_556 S
C667 N670 1.384 . S
C668 H659 0.929 . S
C668 C660 1.378 . S
C668 C663 1.350 . S
C669 H656 0.929 . S
C669 C661 1.433 1_554 S
C669 N671 1.384 . S
N670 C666 1.427 . S
N670 C667 1.384 . S
N671 C663 1.427 1_554 S
N671 C669 1.384 . S
C247 C16 2.356 . S
C251 C237 2.356 . S
C265 N186 1.451 . S
C269 N44 1.451 . S
C283 N164 1.459 . S
C287 N66 1.459 . S
C301 C136 2.353 . S
C305 C117 2.353 . S
C319 C61 1.623 . S
C323 C10 1.610 . S
C337 C31 1.635 . S
C341 C100 1.647 . S
C355 C91 1.612 . S
C359 C40 1.621 . S
C373 C70 1.627 . S
C377 C1 1.640 . S
C391 C130 1.615 . S
C395 C181 1.622 . S
C409 C151 1.634 . S
C413 C220 1.649 . S
C427 C211 1.611 . S
C431 C160 1.621 . S
C445 C190 1.625 . S
C449 C121 1.640 . S
C463 N14 0.436 . S
C467 N6 0.436 . S
C481 C46 2.754 . S
C485 C57 2.754 . S
C499 C76 2.754 . S
C503 C87 2.754 . S
C517 N96 0.437 . S
C521 N104 0.437 . S
C535 N126 0.428 . S
C539 N134 0.428 . S
C553 C166 2.754 . S
C557 C177 2.754 . S
C571 C207 2.754 . S
C575 C196 2.754 . S
C589 N216 0.428 . S
C593 N224 0.428 . S
C607 C27 1.652 . S
C611 N36 1.586 . S
C625 C106 1.651 . S
C629 N74 1.590 . S
C643 C147 1.651 . S
C647 N156 1.589 1_556 S
C661 C226 1.651 . S
C665 N194 1.588 1_554 S
