# Generated by pormake.
# Topology qtz-a, (4)-cn, num edge types: 1
# Building blocks:
#     Node 0, Type 0, BuildingBlock: NAHDIM_clean_sbu_0, # of connection points: 4
#     Node 1, Type 0, BuildingBlock: NAHDIM_clean_sbu_0, # of connection points: 4
#     Node 2, Type 0, BuildingBlock: NAHDIM_clean_sbu_0, # of connection points: 4
#     Node 3, Type 0, BuildingBlock: NAHDIM_clean_sbu_0, # of connection points: 4
#     Node 4, Type 0, BuildingBlock: NAHDIM_clean_sbu_0, # of connection points: 4
#     Node 5, Type 0, BuildingBlock: NAHDIM_clean_sbu_0, # of connection points: 4
#     Node 6, Type 0, BuildingBlock: NAHDIM_clean_sbu_0, # of connection points: 4
#     Node 7, Type 0, BuildingBlock: NAHDIM_clean_sbu_0, # of connection points: 4
#     Node 8, Type 0, BuildingBlock: NAHDIM_clean_sbu_0, # of connection points: 4
#     Node 9, Type 0, BuildingBlock: NAHDIM_clean_sbu_0, # of connection points: 4
#     Node 10, Type 0, BuildingBlock: NAHDIM_clean_sbu_0, # of connection points: 4
#     Node 11, Type 0, BuildingBlock: NAHDIM_clean_sbu_0, # of connection points: 4
#     Edge 12, Type (0, 0), BuildingBlock: ZUJKAS_clean_linker_0, # of connection points: 2
#     Edge 13, Type (0, 0), BuildingBlock: ZUJKAS_clean_linker_0, # of connection points: 2
#     Edge 14, Type (0, 0), BuildingBlock: ZUJKAS_clean_linker_0, # of connection points: 2
#     Edge 15, Type (0, 0), BuildingBlock: ZUJKAS_clean_linker_0, # of connection points: 2
#     Edge 16, Type (0, 0), BuildingBlock: ZUJKAS_clean_linker_0, # of connection points: 2
#     Edge 17, Type (0, 0), BuildingBlock: ZUJKAS_clean_linker_0, # of connection points: 2
#     Edge 18, Type (0, 0), BuildingBlock: ZUJKAS_clean_linker_0, # of connection points: 2
#     Edge 19, Type (0, 0), BuildingBlock: ZUJKAS_clean_linker_0, # of connection points: 2
#     Edge 20, Type (0, 0), BuildingBlock: ZUJKAS_clean_linker_0, # of connection points: 2
#     Edge 21, Type (0, 0), BuildingBlock: ZUJKAS_clean_linker_0, # of connection points: 2
#     Edge 22, Type (0, 0), BuildingBlock: ZUJKAS_clean_linker_0, # of connection points: 2
#     Edge 23, Type (0, 0), BuildingBlock: ZUJKAS_clean_linker_0, # of connection points: 2
#     Edge 24, Type (0, 0), BuildingBlock: ZUJKAS_clean_linker_0, # of connection points: 2
#     Edge 25, Type (0, 0), BuildingBlock: ZUJKAS_clean_linker_0, # of connection points: 2
#     Edge 26, Type (0, 0), BuildingBlock: ZUJKAS_clean_linker_0, # of connection points: 2
#     Edge 27, Type (0, 0), BuildingBlock: ZUJKAS_clean_linker_0, # of connection points: 2
#     Edge 28, Type (0, 0), BuildingBlock: ZUJKAS_clean_linker_0, # of connection points: 2
#     Edge 29, Type (0, 0), BuildingBlock: ZUJKAS_clean_linker_0, # of connection points: 2
#     Edge 30, Type (0, 0), BuildingBlock: ZUJKAS_clean_linker_0, # of connection points: 2
#     Edge 31, Type (0, 0), BuildingBlock: ZUJKAS_clean_linker_0, # of connection points: 2
#     Edge 32, Type (0, 0), BuildingBlock: ZUJKAS_clean_linker_0, # of connection points: 2
#     Edge 33, Type (0, 0), BuildingBlock: ZUJKAS_clean_linker_0, # of connection points: 2
#     Edge 34, Type (0, 0), BuildingBlock: ZUJKAS_clean_linker_0, # of connection points: 2
#     Edge 35, Type (0, 0), BuildingBlock: ZUJKAS_clean_linker_0, # of connection points: 2
# Relax obj value: 0.802
# Max RMSD: 0.425
# Mean RMSD: 0.306
data_MOF--net-qtz-a--node1-NAHDIM_clean_sbu_0--edge1-ZUJKAS_clean_linker_0
_symmetry_space_group_name_H-M    P1
_symmetry_Int_Tables_number       1
_symmetry_cell_setting            triclinic
loop_
_symmetry_equiv_pos_as_xyz
'x, y, z'
_cell_length_a     50.054034
_cell_length_b     64.043587
_cell_length_c     53.277716
_cell_angle_alpha  77.226374
_cell_angle_beta   90.012388
_cell_angle_gamma 113.06855
loop_
_atom_site_label
_atom_site_type_symbol
_atom_site_fract_x
_atom_site_fract_y
_atom_site_fract_z
_atom_type_partial_charge
C0 C 0.38599 0.06408 0.1763 0.0
O1 O 0.37572 0.04317 0.19205 0.0
O2 O 0.39206 0.01359 0.15575 0.0
Zn3 Zn 0.38905 0.04215 0.13326 0.0
O4 O 0.42471 0.05689 0.1078 0.0
C5 C 0.33885 0.01412 0.11053 0.0
O6 O 0.34378 0.99656 0.12449 0.0
O7 O 0.39141 0.06636 0.15233 0.0
C8 C 0.42744 0.04687 0.09048 0.0
O9 O 0.40647 0.02691 0.08924 0.0
C10 C 0.41149 0.01597 0.17154 0.0
O11 O 0.42741 0.03693 0.17468 0.0
O12 O 0.35437 0.03474 0.11248 0.0
C13 C 0.15024 0.33911 0.41577 0.0
O14 O 0.12352 0.32293 0.41984 0.0
O15 O 0.23182 0.3575 0.4285 0.0
Zn16 Zn 0.21246 0.35719 0.39525 0.0
O17 O 0.22456 0.38998 0.37292 0.0
C18 C 0.24405 0.3302 0.38302 0.0
O19 O 0.24519 0.3244 0.40811 0.0
O20 O 0.1691 0.33725 0.40146 0.0
C21 C 0.25206 0.40172 0.36972 0.0
O22 O 0.26879 0.39259 0.38271 0.0
C23 C 0.23996 0.37411 0.43995 0.0
O24 O 0.23326 0.39213 0.43135 0.0
O25 O 0.23031 0.34277 0.37404 0.0
C26 C 0.90408 0.40418 0.85085 0.0
O27 O 0.90746 0.41085 0.87267 0.0
O28 O 0.94439 0.46207 0.86121 0.0
Zn29 Zn 0.93377 0.45408 0.82698 0.0
O30 O 0.90865 0.47029 0.81016 0.0
C31 C 0.99612 0.48002 0.81003 0.0
O32 O 0.99839 0.48072 0.83439 0.0
O33 O 0.91378 0.41948 0.82959 0.0
C34 C 0.92151 0.49217 0.80048 0.0
O35 O 0.94937 0.50282 0.8031 0.0
C36 C 0.93731 0.47676 0.86898 0.0
O37 O 0.91437 0.48015 0.86038 0.0
O38 O 0.97139 0.4684 0.80305 0.0
C39 C 0.58028 0.82238 0.17278 0.0
O40 O 0.58335 0.835 0.1898 0.0
O41 O 0.57945 0.88125 0.15724 0.0
Zn42 Zn 0.58961 0.86527 0.13249 0.0
O43 O 0.56092 0.86408 0.10592 0.0
C44 C 0.64415 0.90529 0.114 0.0
O45 O 0.63466 0.914 0.13044 0.0
O46 O 0.58336 0.83203 0.14878 0.0
C47 C 0.56199 0.88339 0.0922 0.0
O48 O 0.58193 0.903 0.09564 0.0
C49 C 0.55465 0.87129 0.17031 0.0
O50 O 0.53761 0.84985 0.1694 0.0
O51 O 0.62951 0.88423 0.11302 0.0
C52 C 0.61266 0.45944 0.49285 0.0
O53 O 0.598 0.44232 0.51283 0.0
O54 O 0.54019 0.41908 0.4864 0.0
Zn55 Zn 0.57841 0.42483 0.46799 0.0
O56 O 0.59246 0.40011 0.48627 0.0
C57 C 0.55894 0.43934 0.42056 0.0
O58 O 0.55464 0.45256 0.43441 0.0
O59 O 0.60799 0.45631 0.47026 0.0
C60 C 0.60249 0.38747 0.47741 0.0
O61 O 0.60816 0.37142 0.49373 0.0
C62 C 0.51894 0.39979 0.4869 0.0
O63 O 0.52364 0.38414 0.47737 0.0
O64 O 0.57 0.42506 0.43077 0.0
C65 C 0.22204 0.67598 0.79448 0.0
O66 O 0.24294 0.66884 0.79182 0.0
O67 O 0.21879 0.63733 0.74926 0.0
Zn68 Zn 0.2126 0.66743 0.74422 0.0
O69 O 0.25172 0.6944 0.73048 0.0
C70 C 0.16185 0.65159 0.71369 0.0
O71 O 0.16168 0.63063 0.72183 0.0
O72 O 0.20404 0.67452 0.77749 0.0
C73 C 0.27213 0.69832 0.71351 0.0
O74 O 0.29601 0.71746 0.71092 0.0
C75 C 0.20681 0.61651 0.76314 0.0
O76 O 0.21849 0.60179 0.76086 0.0
O77 O 0.18092 0.6689 0.72053 0.0
C78 C 0.81041 0.64634 0.58465 0.0
O79 O 0.79745 0.64713 0.60564 0.0
O80 O 0.86324 0.6276 0.63028 0.0
Zn81 Zn 0.85885 0.65762 0.6149 0.0
O82 O 0.83792 0.66902 0.63812 0.0
C83 C 0.9171 0.67409 0.59367 0.0
O84 O 0.90446 0.65798 0.5809 0.0
O85 O 0.83781 0.65204 0.58316 0.0
C86 C 0.82713 0.66052 0.66158 0.0
O87 O 0.81677 0.67236 0.67297 0.0
C88 C 0.88366 0.62812 0.64465 0.0
O89 O 0.89566 0.64613 0.65492 0.0
O90 O 0.90107 0.68002 0.60664 0.0
C91 C 0.33192 0.89628 0.85233 0.0
O92 O 0.3605 0.90579 0.85176 0.0
O93 O 0.36918 0.96155 0.84146 0.0
Zn94 Zn 0.34009 0.93652 0.86971 0.0
O95 O 0.365 0.92868 0.89661 0.0
C96 C 0.30779 0.9647 0.88039 0.0
O97 O 0.31828 0.97882 0.85746 0.0
O98 O 0.31738 0.90715 0.85836 0.0
C99 C 0.35644 0.90964 0.91391 0.0
O100 O 0.32968 0.89398 0.91489 0.0
C101 C 0.38535 0.98017 0.84784 0.0
O102 O 0.37896 0.98321 0.87033 0.0
O103 O 0.3138 0.94687 0.88751 0.0
C104 C 0.51669 0.29177 0.21483 0.0
O105 O 0.51527 0.29841 0.23626 0.0
O106 O 0.52471 0.35866 0.16057 0.0
Zn107 Zn 0.5217 0.33746 0.19529 0.0
O108 O 0.55295 0.35332 0.21655 0.0
C109 C 0.46651 0.34044 0.20798 0.0
O110 O 0.4725 0.35573 0.18559 0.0
O111 O 0.52115 0.30651 0.19327 0.0
C112 C 0.5537 0.37221 0.22108 0.0
O113 O 0.53614 0.38134 0.2097 0.0
C114 C 0.54861 0.37499 0.1497 0.0
O115 O 0.57295 0.37653 0.16002 0.0
O116 O 0.48392 0.33072 0.2152 0.0
C117 C 0.16821 0.53181 0.51789 0.0
O118 O 0.19007 0.55224 0.50984 0.0
O119 O 0.1032 0.55493 0.54619 0.0
Zn120 Zn 0.14477 0.55997 0.53743 0.0
O121 O 0.16249 0.58627 0.505 0.0
C122 C 0.15772 0.58111 0.57997 0.0
O123 O 0.14605 0.59432 0.5659 0.0
O124 O 0.14594 0.53051 0.5307 0.0
C125 C 0.18374 0.60611 0.50146 0.0
O126 O 0.18935 0.62082 0.4787 0.0
C127 C 0.08972 0.56645 0.53375 0.0
O128 O 0.10178 0.58116 0.51142 0.0
O129 O 0.16234 0.56606 0.57058 0.0
C130 C 0.73562 0.16242 0.85686 0.0
O131 O 0.70849 0.15621 0.85112 0.0
O132 O 0.69493 0.1017 0.84761 0.0
Zn133 Zn 0.71488 0.11328 0.87777 0.0
O134 O 0.68203 0.1116 0.90076 0.0
C135 C 0.74284 0.07914 0.89317 0.0
O136 O 0.74563 0.07879 0.86876 0.0
O137 O 0.74414 0.14665 0.86772 0.0
C138 C 0.68485 0.12215 0.9188 0.0
O139 O 0.71103 0.13585 0.92306 0.0
C140 C 0.68 0.07988 0.85074 0.0
O141 O 0.68176 0.0655 0.87184 0.0
O142 O 0.73177 0.09226 0.89947 0.0
C143 C 0.45261 0.5909 0.16388 0.0
O144 O 0.44699 0.59244 0.1396 0.0
O145 O 0.50751 0.58547 0.12738 0.0
Zn146 Zn 0.47477 0.55907 0.15231 0.0
O147 O 0.44333 0.54365 0.13045 0.0
C148 C 0.47913 0.51461 0.17833 0.0
O149 O 0.45796 0.50449 0.16485 0.0
O150 O 0.46229 0.57583 0.1745 0.0
C151 C 0.41563 0.53312 0.13352 0.0
O152 O 0.40208 0.52653 0.11369 0.0
C153 C 0.52349 0.58439 0.10957 0.0
O154 O 0.54123 0.60379 0.09361 0.0
O155 O 0.48896 0.53665 0.17554 0.0
H156 H 0.43848 0.03174 0.04911 0.0
H157 H 0.48329 0.04839 0.01986 0.0
H158 H 0.52164 0.10203 0.06143 0.0
H159 H 0.47696 0.08553 0.09085 0.0
H160 H 0.51247 0.09687 0.98851 0.0
H161 H 0.58041 0.07 0.06083 0.0
H162 H 0.54102 0.05667 0.06498 0.0
H163 H 0.5602 0.08534 0.07026 0.0
C164 C 0.45642 0.04708 0.05205 0.0
C165 C 0.45421 0.05725 0.07238 0.0
C166 C 0.48195 0.05658 0.0353 0.0
C167 C 0.50577 0.07625 0.03871 0.0
C168 C 0.50356 0.08666 0.05872 0.0
H169 H 0.68205 0.1418 0.95902 0.0
H170 H 0.63876 0.13334 0.9875 0.0
C171 C 0.47799 0.07725 0.07543 0.0
C172 C 0.53296 0.08578 0.02131 0.0
H173 H 0.60354 0.09117 0.0192 0.0
C174 C 0.53245 0.09574 0.99518 0.0
C175 C 0.55895 0.0844 0.03022 0.0
C176 C 0.56035 0.07341 0.05806 0.0
C177 C 0.55731 0.10425 0.97758 0.0
C178 C 0.58309 0.10219 0.98629 0.0
C179 C 0.58376 0.09274 0.01258 0.0
C180 C 0.60901 0.1084 0.96824 0.0
C181 C 0.55575 0.11545 0.94986 0.0
C182 C 0.60662 0.09708 0.94811 0.0
C183 C 0.63119 0.10191 0.93181 0.0
C184 C 0.65876 0.11799 0.93548 0.0
C185 C 0.66113 0.12937 0.95564 0.0
C186 C 0.63644 0.12456 0.97193 0.0
H187 H 0.53854 0.12244 0.94823 0.0
H188 H 0.57694 0.12991 0.94132 0.0
H189 H 0.55024 0.10212 0.93831 0.0
H190 H 0.58583 0.0841 0.94532 0.0
H191 H 0.62858 0.0927 0.91659 0.0
H192 H 0.43372 0.52989 0.18256 0.0
H193 H 0.40289 0.51443 0.2235 0.0
H194 H 0.32731 0.50856 0.18202 0.0
H195 H 0.35794 0.52348 0.14105 0.0
H196 H 0.36229 0.52616 0.24797 0.0
H197 H 0.30874 0.44123 0.22087 0.0
H198 H 0.34154 0.46432 0.20321 0.0
H199 H 0.3067 0.46573 0.19818 0.0
C200 C 0.4107 0.52568 0.18211 0.0
C201 C 0.39832 0.52755 0.1585 0.0
C202 C 0.39304 0.51685 0.20557 0.0
C203 C 0.36271 0.50985 0.20576 0.0
C204 C 0.35058 0.51333 0.18229 0.0
H205 H 0.22604 0.41913 0.32989 0.0
H206 H 0.25087 0.44956 0.29069 0.0
C207 C 0.36816 0.52191 0.15889 0.0
C208 C 0.34357 0.49715 0.23022 0.0
H209 H 0.29111 0.44395 0.26033 0.0
C210 C 0.34659 0.50823 0.25067 0.0
C211 C 0.32315 0.47372 0.2337 0.0
C212 C 0.31993 0.46043 0.21295 0.0
C213 C 0.32975 0.49644 0.27457 0.0
C214 C 0.30968 0.47293 0.27811 0.0
C215 C 0.30625 0.46207 0.25747 0.0
C216 C 0.29407 0.4583 0.30362 0.0
C217 C 0.33365 0.5092 0.29583 0.0
C218 C 0.31002 0.45356 0.32413 0.0
C219 C 0.29594 0.43619 0.34644 0.0
C220 C 0.26563 0.4231 0.34863 0.0
C221 C 0.2494 0.42891 0.3288 0.0
C222 C 0.26356 0.44627 0.30639 0.0
H223 H 0.34231 0.52843 0.2879 0.0
H224 H 0.31274 0.50348 0.30781 0.0
H225 H 0.34955 0.50539 0.30855 0.0
H226 H 0.3336 0.46225 0.32226 0.0
H227 H 0.30907 0.43219 0.3614 0.0
H228 H 0.80544 0.61768 0.65069 0.0
H229 H 0.81027 0.58212 0.67506 0.0
H230 H 0.85606 0.61947 0.73078 0.0
H231 H 0.85087 0.65472 0.70669 0.0
H232 H 0.86246 0.57872 0.68319 0.0
H233 H 0.79981 0.55804 0.77715 0.0
H234 H 0.79535 0.57719 0.74854 0.0
H235 H 0.82477 0.58817 0.76796 0.0
C236 C 0.81621 0.61807 0.66832 0.0
C237 C 0.82832 0.63884 0.67669 0.0
C238 C 0.81881 0.59781 0.68227 0.0
C239 C 0.83321 0.59809 0.7049 0.0
C240 C 0.84432 0.61871 0.7137 0.0
H241 H 0.94485 0.53743 0.77274 0.0
H242 H 0.91953 0.55971 0.74819 0.0
C243 C 0.84161 0.63886 0.69984 0.0
C244 C 0.83961 0.57785 0.71786 0.0
H245 H 0.83786 0.54351 0.77732 0.0
C246 C 0.85678 0.57082 0.70367 0.0
C247 C 0.83155 0.5671 0.74449 0.0
C248 C 0.81158 0.57284 0.76035 0.0
C249 C 0.86807 0.55471 0.71577 0.0
C250 C 0.86185 0.54533 0.74276 0.0
C251 C 0.84288 0.55098 0.75665 0.0
C252 C 0.87681 0.5313 0.75722 0.0
C253 C 0.88733 0.54847 0.69968 0.0
C254 C 0.86101 0.50807 0.77087 0.0
C255 C 0.87545 0.4952 0.78498 0.0
C256 C 0.90584 0.50554 0.7859 0.0
C257 C 0.92144 0.52892 0.77242 0.0
C258 C 0.90706 0.54166 0.75822 0.0
H259 H 0.88299 0.55143 0.67901 0.0
H260 H 0.91051 0.55974 0.70075 0.0
H261 H 0.8842 0.52994 0.70692 0.0
H262 H 0.83758 0.49989 0.77049 0.0
H263 H 0.86283 0.47724 0.79523 0.0
H264 H 0.56214 0.92131 0.05662 0.0
H265 H 0.52594 0.92255 0.02617 0.0
H266 H 0.47732 0.84824 0.05421 0.0
H267 H 0.51347 0.84674 0.08481 0.0
H268 H 0.50646 0.89441 0.98685 0.0
H269 H 0.41847 0.87977 0.06106 0.0
H270 H 0.45645 0.89008 0.06708 0.0
H271 H 0.43654 0.85999 0.06677 0.0
C272 C 0.54379 0.9052 0.05633 0.0
C273 C 0.5406 0.88393 0.07321 0.0
C274 C 0.52318 0.90595 0.03889 0.0
C275 C 0.49891 0.88553 0.03819 0.0
C276 C 0.4958 0.86421 0.05471 0.0
H277 H 0.34745 0.8694 0.95042 0.0
H278 H 0.3819 0.86193 0.98003 0.0
C279 C 0.51652 0.86339 0.07208 0.0
C280 C 0.47685 0.88672 0.02016 0.0
H281 H 0.40755 0.88415 0.01774 0.0
C282 C 0.48478 0.89208 0.99354 0.0
C283 C 0.44861 0.8835 0.02908 0.0
C284 C 0.43937 0.87815 0.05754 0.0
C285 C 0.46514 0.89446 0.97547 0.0
C286 C 0.43715 0.89197 0.98434 0.0
C287 C 0.42904 0.88609 0.01102 0.0
C288 C 0.41642 0.89634 0.96625 0.0
C289 C 0.47451 0.89943 0.94709 0.0
C290 C 0.42427 0.91828 0.94903 0.0
C291 C 0.40475 0.92257 0.93207 0.0
C292 C 0.37682 0.90507 0.93222 0.0
C293 C 0.36881 0.88322 0.94981 0.0
C294 C 0.38845 0.87892 0.96671 0.0
H295 H 0.49224 0.89366 0.94403 0.0
H296 H 0.45593 0.8906 0.93648 0.0
H297 H 0.48295 0.91854 0.93864 0.0
H298 H 0.44546 0.93218 0.94883 0.0
H299 H 0.41155 0.93966 0.91892 0.0
H300 H 0.58712 0.35165 0.45395 0.0
H301 H 0.58841 0.35394 0.40747 0.0
H302 H 0.62619 0.42929 0.3917 0.0
H303 H 0.6255 0.42697 0.43839 0.0
H304 H 0.5574 0.37438 0.37606 0.0
H305 H 0.67501 0.41629 0.34012 0.0
H306 H 0.66233 0.40313 0.37391 0.0
H307 H 0.66326 0.43153 0.35928 0.0
C308 C 0.59611 0.36868 0.44052 0.0
C309 C 0.60553 0.38916 0.44952 0.0
C310 C 0.59687 0.36998 0.41404 0.0
C311 C 0.60746 0.39177 0.39615 0.0
C312 C 0.61833 0.41229 0.40516 0.0
H313 H 0.55322 0.40813 0.24064 0.0
H314 H 0.57078 0.41698 0.28147 0.0
C315 C 0.61755 0.41097 0.43174 0.0
C316 C 0.60404 0.39278 0.36838 0.0
H317 H 0.6411 0.41103 0.30837 0.0
C318 C 0.57572 0.38241 0.36128 0.0
C319 C 0.62799 0.40331 0.34918 0.0
C320 C 0.65892 0.41404 0.35593 0.0
C321 C 0.57062 0.38226 0.33549 0.0
C322 C 0.59449 0.39285 0.31627 0.0
C323 C 0.62288 0.40322 0.32324 0.0
C324 C 0.59 0.39156 0.28921 0.0
C325 C 0.53973 0.37043 0.32899 0.0
C326 C 0.59622 0.37509 0.27964 0.0
C327 C 0.58611 0.36988 0.25641 0.0
C328 C 0.56964 0.38111 0.24243 0.0
C329 C 0.56562 0.39902 0.25104 0.0
C330 C 0.57567 0.40416 0.27433 0.0
H331 H 0.52421 0.3605 0.34656 0.0
H332 H 0.53253 0.38383 0.31793 0.0
H333 H 0.53863 0.35827 0.31666 0.0
H334 H 0.60723 0.3652 0.29097 0.0
H335 H 0.58978 0.35614 0.2502 0.0
H336 H 0.18997 0.64394 0.51905 0.0
H337 H 0.21538 0.65592 0.55599 0.0
H338 H 0.24143 0.59795 0.568 0.0
H339 H 0.21514 0.58558 0.53144 0.0
H340 H 0.21981 0.60041 0.61221 0.0
H341 H 0.30046 0.68808 0.56395 0.0
H342 H 0.26471 0.68546 0.55594 0.0
H343 H 0.28006 0.66699 0.54608 0.0
C344 C 0.20137 0.63394 0.52948 0.0
C345 C 0.20031 0.61368 0.52283 0.0
C346 C 0.2161 0.64087 0.55039 0.0
C347 C 0.23078 0.62807 0.56445 0.0
C348 C 0.23039 0.60814 0.55731 0.0
H349 H 0.31586 0.6957 0.6855 0.0
H350 H 0.31085 0.67416 0.65189 0.0
C351 C 0.2153 0.60103 0.53655 0.0
C352 C 0.24442 0.63465 0.58774 0.0
H353 H 0.28613 0.68231 0.60951 0.0
C354 C 0.23463 0.61822 0.61162 0.0
C355 C 0.26477 0.6576 0.58692 0.0
C356 C 0.27834 0.67542 0.56177 0.0
C357 C 0.24234 0.62479 0.63488 0.0
C358 C 0.2601 0.64841 0.63413 0.0
C359 C 0.2721 0.66426 0.61016 0.0
C360 C 0.26368 0.65782 0.65748 0.0
C361 C 0.23067 0.60653 0.66001 0.0
C362 C 0.23891 0.65551 0.67205 0.0
C363 C 0.24181 0.66766 0.69127 0.0
C364 C 0.26933 0.68265 0.69612 0.0
C365 C 0.29424 0.68429 0.6822 0.0
C366 C 0.29143 0.67195 0.66305 0.0
H367 H 0.22669 0.58885 0.6574 0.0
H368 H 0.2459 0.61047 0.67514 0.0
H369 H 0.2095 0.60609 0.66691 0.0
H370 H 0.2172 0.6454 0.66758 0.0
H371 H 0.22241 0.66636 0.70117 0.0
H372 H 0.31082 0.9738 0.0947 0.0
H373 H 0.29001 0.97038 0.05362 0.0
H374 H 0.30373 0.04307 0.03623 0.0
H375 H 0.3251 0.04682 0.07715 0.0
H376 H 0.24522 0.98099 0.0257 0.0
H377 H 0.35851 0.03887 0.98141 0.0
H378 H 0.35048 0.02574 0.01563 0.0
H379 H 0.34139 0.05003 0.00164 0.0
C380 C 0.30881 0.98895 0.08248 0.0
C381 C 0.32023 0.01072 0.08894 0.0
C382 C 0.29678 0.98693 0.05902 0.0
C383 C 0.29588 0.00659 0.04171 0.0
C384 C 0.30469 0.02779 0.04918 0.0
H385 H 0.30592 0.00732 0.8784 0.0
H386 H 0.29397 0.0205 0.91502 0.0
C387 C 0.31686 0.02988 0.07258 0.0
C388 C 0.28983 0.00546 0.01474 0.0
H389 H 0.32526 0.02044 0.95468 0.0
C390 C 0.26249 0.98997 0.00999 0.0
C391 C 0.31236 0.01735 0.99425 0.0
C392 C 0.34242 0.03384 0.99833 0.0
C393 C 0.25756 0.9851 0.98554 0.0
C394 C 0.28079 0.99561 0.96562 0.0
C395 C 0.30741 0.0124 0.96991 0.0
C396 C 0.28015 0.98671 0.94207 0.0
C397 C 0.22781 0.96819 0.98156 0.0
C398 C 0.27533 0.96317 0.94483 0.0
C399 C 0.28207 0.95563 0.92401 0.0
C400 C 0.29415 0.97152 0.90003 0.0
C401 C 0.29673 0.99466 0.89664 0.0
C402 C 0.2899 0.00222 0.91756 0.0
H403 H 0.21049 0.96954 0.99331 0.0
H404 H 0.22344 0.97132 0.96093 0.0
H405 H 0.22644 0.95007 0.98807 0.0
H406 H 0.26854 0.95095 0.96359 0.0
H407 H 0.27963 0.93764 0.92724 0.0
H408 H 0.42462 0.35801 0.19908 0.0
H409 H 0.3837 0.35155 0.22931 0.0
H410 H 0.40916 0.30547 0.28649 0.0
H411 H 0.45008 0.31178 0.25656 0.0
H412 H 0.33643 0.3068 0.25734 0.0
H413 H 0.40837 0.35801 0.32124 0.0
H414 H 0.42048 0.3606 0.28834 0.0
H415 H 0.41764 0.33566 0.31328 0.0
C416 C 0.42143 0.34639 0.21803 0.0
C417 C 0.44073 0.33554 0.22547 0.0
C418 C 0.39803 0.3427 0.23523 0.0
C419 C 0.39371 0.32824 0.26015 0.0
C420 C 0.41241 0.31689 0.26741 0.0
H421 H 0.27916 0.30636 0.3951 0.0
H422 H 0.31321 0.30242 0.36537 0.0
C423 C 0.43572 0.3205 0.25024 0.0
C424 C 0.37016 0.32559 0.27887 0.0
H425 H 0.35807 0.33959 0.33472 0.0
C426 C 0.34107 0.3139 0.27431 0.0
C427 C 0.37644 0.33483 0.30097 0.0
C428 C 0.40739 0.34814 0.30629 0.0
C429 C 0.31793 0.31111 0.29143 0.0
C430 C 0.32419 0.3207 0.31332 0.0
C431 C 0.35334 0.33213 0.318 0.0
C432 C 0.30103 0.32038 0.33089 0.0
C433 C 0.28704 0.29776 0.28604 0.0
C434 C 0.28268 0.33153 0.32132 0.0
C435 C 0.26317 0.33374 0.33821 0.0
C436 C 0.26187 0.32506 0.36506 0.0
C437 C 0.27961 0.31322 0.37454 0.0
C438 C 0.29909 0.31097 0.35759 0.0
H439 H 0.28609 0.28557 0.27377 0.0
H440 H 0.27275 0.28761 0.30425 0.0
H441 H 0.27825 0.31029 0.27548 0.0
H442 H 0.28427 0.3394 0.30087 0.0
H443 H 0.24992 0.34305 0.33024 0.0
H444 H 0.15903 0.61441 0.60494 0.0
H445 H 0.14793 0.6085 0.65136 0.0
H446 H 0.14501 0.53864 0.6641 0.0
H447 H 0.1576 0.54497 0.61828 0.0
H448 H 0.09903 0.58113 0.67348 0.0
H449 H 0.17427 0.55137 0.72954 0.0
H450 H 0.18305 0.56515 0.69547 0.0
H451 H 0.16294 0.5339 0.70645 0.0
C452 C 0.15704 0.59812 0.61785 0.0
C453 C 0.15869 0.58 0.60796 0.0
C454 C 0.15071 0.59474 0.6444 0.0
C455 C 0.1455 0.57308 0.66146 0.0
C456 C 0.14959 0.55574 0.65171 0.0
H457 H 0.99805 0.48484 0.75777 0.0
H458 H 0.03768 0.51207 0.72519 0.0
C459 C 0.15652 0.55928 0.62529 0.0
C460 C 0.13017 0.56673 0.68775 0.0
H461 H 0.12172 0.53056 0.74756 0.0
C462 C 0.10462 0.57068 0.68986 0.0
C463 C 0.13749 0.55365 0.70969 0.0
C464 C 0.16617 0.55108 0.71015 0.0
C465 C 0.08475 0.55973 0.71203 0.0
C466 C 0.09008 0.54386 0.7323 0.0
C467 C 0.11711 0.54206 0.73158 0.0
C468 C 0.06661 0.52714 0.75261 0.0
C469 C 0.05758 0.56449 0.71298 0.0
C470 C 0.0702 0.5258 0.77895 0.0
C471 C 0.04751 0.51011 0.79772 0.0
C472 C 0.02106 0.49522 0.79044 0.0
C473 C 0.01803 0.49608 0.76407 0.0
C474 C 0.04059 0.51183 0.74539 0.0
H475 H 0.06165 0.58241 0.70163 0.0
H476 H 0.04021 0.55197 0.70428 0.0
H477 H 0.04953 0.56249 0.73315 0.0
H478 H 0.0903 0.53717 0.78496 0.0
H479 H 0.05056 0.50994 0.81788 0.0
H480 H 0.67317 0.95271 0.1051 0.0
H481 H 0.70352 0.97927 0.066 0.0
H482 H 0.69877 0.92048 0.03661 0.0
H483 H 0.66773 0.89365 0.07549 0.0
H484 H 0.75583 0.98706 0.03824 0.0
H485 H 0.65907 0.9527 0.9841 0.0
H486 H 0.65659 0.94573 0.01893 0.0
H487 H 0.67221 0.93171 0.00126 0.0
C488 C 0.679 0.94536 0.09059 0.0
C489 C 0.66752 0.92105 0.0932 0.0
C490 C 0.69644 0.9606 0.06825 0.0
C491 C 0.70283 0.95184 0.04816 0.0
C492 C 0.69355 0.92759 0.05166 0.0
H493 H 0.74823 0.03884 0.88957 0.0
H494 H 0.74648 0.00682 0.92559 0.0
C495 C 0.67592 0.91229 0.07395 0.0
C496 C 0.71624 0.96812 0.02274 0.0
H497 H 0.69937 0.98512 0.96164 0.0
C498 C 0.74373 0.98643 0.02133 0.0
C499 C 0.70045 0.96723 0.00066 0.0
C500 C 0.67036 0.94843 0.00119 0.0
C501 C 0.75529 0.00443 0.99877 0.0
C502 C 0.73872 0.00424 0.97725 0.0
C503 C 0.71209 0.98518 0.97813 0.0
C504 C 0.74608 0.02498 0.95527 0.0
C505 C 0.78478 0.02381 0.99841 0.0
C506 C 0.74705 0.04596 0.95996 0.0
C507 C 0.7479 0.06415 0.93952 0.0
C508 C 0.74765 0.06171 0.91392 0.0
C509 C 0.74852 0.04127 0.90906 0.0
C510 C 0.7475 0.02296 0.92962 0.0
H511 H 0.79875 0.01748 0.01148 0.0
H512 H 0.79623 0.03127 0.9786 0.0
H513 H 0.7819 0.03796 0.0054 0.0
H514 H 0.7453 0.04776 0.97956 0.0
H515 H 0.7473 0.07969 0.94392 0.0
H516 H 0.52644 0.53034 0.20515 0.0
H517 H 0.54046 0.50794 0.24192 0.0
H518 H 0.47033 0.44452 0.23384 0.0
H519 H 0.45583 0.46698 0.19704 0.0
H520 H 0.46856 0.45042 0.28206 0.0
H521 H 0.58047 0.46303 0.25307 0.0
H522 H 0.57741 0.49066 0.2463 0.0
H523 H 0.55632 0.46864 0.22985 0.0
C524 C 0.51425 0.51157 0.21088 0.0
C525 C 0.48983 0.50048 0.19831 0.0
C526 C 0.52254 0.49872 0.23175 0.0
C527 C 0.50673 0.47448 0.24046 0.0
C528 C 0.483 0.46318 0.22732 0.0
H529 H 0.56472 0.41509 0.3858 0.0
H530 H 0.55044 0.41846 0.34139 0.0
C531 C 0.47473 0.47605 0.20632 0.0
C532 C 0.51265 0.46188 0.2653 0.0
H533 H 0.56868 0.45725 0.2994 0.0
C534 C 0.4903 0.45142 0.28567 0.0
C535 C 0.54079 0.46258 0.27002 0.0
C536 C 0.56499 0.4716 0.24852 0.0
C537 C 0.496 0.44367 0.31103 0.0
C538 C 0.52491 0.44696 0.31621 0.0
C539 C 0.54666 0.4553 0.29551 0.0
C540 C 0.53344 0.44442 0.343 0.0
C541 C 0.47118 0.43281 0.33219 0.0
C542 C 0.52924 0.4583 0.35832 0.0
C543 C 0.53758 0.45659 0.38342 0.0
C544 C 0.55046 0.44102 0.39377 0.0
C545 C 0.55493 0.42725 0.37833 0.0
C546 C 0.54669 0.42908 0.35305 0.0
H547 H 0.45004 0.42418 0.3245 0.0
H548 H 0.47463 0.41971 0.34785 0.0
H549 H 0.46959 0.4467 0.34063 0.0
H550 H 0.51973 0.47069 0.35075 0.0
H551 H 0.53391 0.46756 0.39467 0.0
H552 H 0.10541 0.62121 0.71479 0.0
H553 H 0.06754 0.62813 0.6897 0.0
H554 H 0.1307 0.6961 0.64926 0.0
H555 H 0.168 0.68987 0.67583 0.0
H556 H 0.08566 0.7011 0.66025 0.0
H557 H 0.04767 0.62329 0.61983 0.0
H558 H 0.0437 0.61436 0.65435 0.0
H559 H 0.07961 0.63082 0.63727 0.0
C560 C 0.11118 0.63754 0.70039 0.0
C561 C 0.13955 0.65504 0.69721 0.0
C562 C 0.08958 0.64141 0.68582 0.0
C563 C 0.09626 0.66245 0.66703 0.0
C564 C 0.12488 0.67971 0.66356 0.0
H565 H 0.95947 0.66858 0.56687 0.0
H566 H 0.00618 0.66947 0.5814 0.0
C567 C 0.14622 0.67615 0.6787 0.0
C568 C 0.07311 0.66712 0.65219 0.0
H569 H 0.01484 0.64254 0.6196 0.0
C570 C 0.07048 0.68839 0.65099 0.0
C571 C 0.05352 0.65089 0.63954 0.0
C572 C 0.05651 0.62872 0.63757 0.0
C573 C 0.04841 0.69353 0.63832 0.0
C574 C 0.02736 0.67646 0.6276 0.0
C575 C 0.03059 0.65556 0.62803 0.0
C576 C 0.00113 0.67932 0.61691 0.0
C577 C 0.04833 0.71738 0.63632 0.0
C578 C 0.98299 0.68522 0.63153 0.0
C579 C 0.95683 0.68558 0.62278 0.0
C580 C 0.94759 0.67911 0.59967 0.0
C581 C 0.96605 0.67379 0.58467 0.0
C582 C 0.99266 0.67409 0.5931 0.0
H583 H 0.07083 0.73072 0.63581 0.0
H584 H 0.03858 0.72302 0.61876 0.0
H585 H 0.0356 0.71692 0.65364 0.0
H586 H 0.98832 0.68853 0.65036 0.0
H587 H 0.94297 0.68941 0.63504 0.0
H588 H 0.5686 0.91796 0.15543 0.0
H589 H 0.54259 0.93924 0.16908 0.0
H590 H 0.48805 0.87704 0.22599 0.0
H591 H 0.51292 0.85522 0.21096 0.0
H592 H 0.45519 0.89339 0.20221 0.0
H593 H 0.54197 0.96912 0.22528 0.0
H594 H 0.55188 0.96825 0.19341 0.0
H595 H 0.54872 0.94451 0.22057 0.0
C596 C 0.55157 0.90897 0.17131 0.0
C597 C 0.54278 0.88496 0.18218 0.0
C598 C 0.53681 0.92123 0.1793 0.0
C599 C 0.51363 0.90997 0.199 0.0
C600 C 0.50587 0.8862 0.21082 0.0
H601 H 0.43872 0.00966 0.21522 0.0
H602 H 0.45884 0.98022 0.2295 0.0
C603 C 0.52013 0.87375 0.20231 0.0
C604 C 0.49533 0.92224 0.20463 0.0
H605 H 0.49988 0.97612 0.20765 0.0
C606 C 0.46496 0.9113 0.20409 0.0
C607 C 0.50759 0.94535 0.20799 0.0
C608 C 0.5393 0.95729 0.21217 0.0
C609 C 0.44701 0.92342 0.2046 0.0
C610 C 0.45991 0.9475 0.20432 0.0
C611 C 0.48988 0.95785 0.20714 0.0
C612 C 0.44359 0.9628 0.19853 0.0
C613 C 0.41449 0.91025 0.2051 0.0
C614 C 0.42771 0.96257 0.17675 0.0
C615 C 0.4155 0.9789 0.16907 0.0
C616 C 0.41981 0.99636 0.18246 0.0
C617 C 0.43507 0.99634 0.20458 0.0
C618 C 0.44663 0.97957 0.21269 0.0
H619 H 0.40752 0.89188 0.21646 0.0
H620 H 0.40211 0.91852 0.2136 0.0
H621 H 0.4087 0.90964 0.18509 0.0
H622 H 0.42592 0.95051 0.16482 0.0
H623 H 0.40428 0.97874 0.15167 0.0
H624 H 0.4686 0.36195 0.48665 0.0
H625 H 0.41873 0.35912 0.4916 0.0
H626 H 0.4507 0.42701 0.50868 0.0
H627 H 0.50087 0.43021 0.50336 0.0
H628 H 0.38316 0.36298 0.53124 0.0
H629 H 0.40998 0.43494 0.44211 0.0
H630 H 0.43374 0.4201 0.45176 0.0
H631 H 0.43211 0.44124 0.46826 0.0
C632 C 0.46507 0.37615 0.49186 0.0
C633 C 0.48875 0.39648 0.49419 0.0
C634 C 0.43651 0.37445 0.49478 0.0
C635 C 0.4311 0.39301 0.50008 0.0
C636 C 0.4545 0.41265 0.50419 0.0
H637 H 0.27036 0.41052 0.46176 0.0
H638 H 0.31445 0.41577 0.48404 0.0
C639 C 0.48313 0.41441 0.50121 0.0
C640 C 0.40135 0.39259 0.4986 0.0
H641 H 0.36136 0.41628 0.4595 0.0
C642 C 0.37837 0.37485 0.51582 0.0
C643 C 0.39521 0.40814 0.4785 0.0
C644 C 0.41894 0.42711 0.45894 0.0
C645 C 0.34925 0.37176 0.51292 0.0
C646 C 0.34302 0.38653 0.49197 0.0
C647 C 0.36615 0.40502 0.47563 0.0
C648 C 0.31302 0.3815 0.48434 0.0
C649 C 0.32546 0.35244 0.53201 0.0
C650 C 0.29702 0.36022 0.47789 0.0
C651 C 0.27182 0.35714 0.46524 0.0
C652 C 0.2623 0.37542 0.45847 0.0
C653 C 0.27714 0.39612 0.46661 0.0
C654 C 0.30237 0.39916 0.47934 0.0
H655 H 0.33351 0.34893 0.55127 0.0
H656 H 0.30629 0.35676 0.53423 0.0
H657 H 0.3183 0.33613 0.5251 0.0
H658 H 0.30508 0.34652 0.48098 0.0
H659 H 0.2609 0.34095 0.45934 0.0
H660 H 0.18313 0.57542 0.79958 0.0
H661 H 0.13738 0.55977 0.82703 0.0
H662 H 0.12454 0.62289 0.7958 0.0
H663 H 0.16971 0.63827 0.76768 0.0
H664 H 0.11618 0.57663 0.86484 0.0
H665 H 0.05256 0.57042 0.77905 0.0
H666 H 0.09127 0.57787 0.77654 0.0
H667 H 0.07776 0.59935 0.77981 0.0
C668 C 0.17077 0.58613 0.79862 0.0
C669 C 0.1803 0.60827 0.7813 0.0
C670 C 0.14469 0.57718 0.81449 0.0
C671 C 0.12756 0.59014 0.81336 0.0
C672 C 0.13742 0.61256 0.79687 0.0
H673 H 0.94368 0.52209 0.86271 0.0
H674 H 0.99065 0.55532 0.85674 0.0
C675 C 0.16349 0.62148 0.78091 0.0
C676 C 0.09842 0.57923 0.82799 0.0
H677 H 0.0261 0.55525 0.81978 0.0
C678 C 0.09639 0.57225 0.85508 0.0
C679 C 0.07271 0.57372 0.81517 0.0
C680 C 0.07353 0.58053 0.78605 0.0
C681 C 0.06926 0.55911 0.86968 0.0
C682 C 0.04367 0.55246 0.85675 0.0
C683 C 0.04569 0.56051 0.82976 0.0
C684 C 0.01527 0.53438 0.86977 0.0
C685 C 0.06835 0.55209 0.89871 0.0
C686 C 0.01319 0.51177 0.88119 0.0
C687 C 0.98627 0.49273 0.88495 0.0
C688 C 0.96121 0.496 0.8767 0.0
C689 C 0.96263 0.51891 0.86897 0.0
C690 C 0.98956 0.53799 0.8654 0.0
H691 H 0.08638 0.56544 0.90594 0.0
H692 H 0.04726 0.54958 0.90832 0.0
H693 H 0.07127 0.53542 0.90433 0.0
H694 H 0.03265 0.50843 0.88449 0.0
H695 H 0.98575 0.47528 0.89129 0.0
H696 H 0.86745 0.59138 0.6216 0.0
H697 H 0.89925 0.57431 0.60799 0.0
H698 H 0.96791 0.61459 0.64833 0.0
H699 H 0.93643 0.63191 0.66189 0.0
H700 H 0.98024 0.62306 0.59323 0.0
H701 H 0.937 0.52837 0.64158 0.0
H702 H 0.91076 0.53979 0.62906 0.0
H703 H 0.93025 0.54938 0.65546 0.0
C704 C 0.88902 0.5961 0.62824 0.0
C705 C 0.89956 0.61329 0.64249 0.0
C706 C 0.90711 0.58622 0.62054 0.0
C707 C 0.93592 0.59325 0.6271 0.0
C708 C 0.94571 0.60897 0.64307 0.0
H709 H 0.07035 0.55034 0.58508 0.0
H710 H 0.03186 0.55579 0.60738 0.0
C711 C 0.92762 0.61879 0.65086 0.0
C712 C 0.95705 0.58727 0.614 0.0
H713 H 0.97399 0.54211 0.60682 0.0
C714 C 0.97924 0.60544 0.59652 0.0
C715 C 0.95523 0.5642 0.61803 0.0
C716 C 0.93217 0.54425 0.63717 0.0
C717 C 9e-05 0.60131 0.58322 0.0
C718 C 0.99781 0.5781 0.58651 0.0
C719 C 0.97552 0.55985 0.60405 0.0
C720 C 0.019 0.57265 0.57255 0.0
C721 C 0.02477 0.62201 0.56636 0.0
C722 C 0.02392 0.57956 0.54543 0.0
C723 C 0.04625 0.57679 0.53261 0.0
C724 C 0.06359 0.56654 0.54665 0.0
C725 C 0.05736 0.55826 0.57365 0.0
C726 C 0.03535 0.56138 0.58647 0.0
H727 H 0.02811 0.63851 0.57199 0.0
H728 H 0.04555 0.61958 0.56749 0.0
H729 H 0.01948 0.62408 0.54598 0.0
H730 H 0.01099 0.58768 0.53421 0.0
H731 H 0.05034 0.58313 0.51179 0.0
H732 H 0.41422 0.97079 0.81088 0.0
H733 H 0.4667 0.98987 0.79748 0.0
H734 H 0.47527 0.04147 0.84039 0.0
H735 H 0.42301 0.02256 0.85401 0.0
H736 H 0.5138 0.04618 0.77787 0.0
H737 H 0.51539 0.99165 0.87466 0.0
H738 H 0.48417 0.98379 0.85624 0.0
H739 H 0.4918 0.00707 0.87229 0.0
C740 C 0.42706 0.9867 0.8167 0.0
C741 C 0.41456 0.99496 0.83388 0.0
C742 C 0.45703 0.99758 0.80896 0.0
C743 C 0.47473 0.01695 0.81809 0.0
C744 C 0.46186 0.02656 0.83312 0.0
H745 H 0.65155 0.1046 0.82294 0.0
H746 H 0.60318 0.08818 0.80833 0.0
C747 C 0.43201 0.01566 0.84097 0.0
C748 C 0.50671 0.02435 0.81637 0.0
H749 H 0.56039 0.01974 0.8535 0.0
C750 C 0.52415 0.04026 0.7942 0.0
C751 C 0.51994 0.01624 0.83756 0.0
C752 C 0.50199 0.99863 0.86155 0.0
C753 C 0.55481 0.04897 0.79312 0.0
C754 C 0.56809 0.04184 0.81497 0.0
C755 C 0.55038 0.0252 0.83667 0.0
C756 C 0.6 0.05255 0.81717 0.0
C757 C 0.57256 0.06572 0.76867 0.0
C758 C 0.61483 0.03818 0.82642 0.0
C759 C 0.64224 0.04748 0.83542 0.0
C760 C 0.6555 0.07137 0.83499 0.0
C761 C 0.64198 0.08613 0.82335 0.0
C762 C 0.61429 0.07675 0.81481 0.0
H763 H 0.56039 0.06256 0.75149 0.0
H764 H 0.5771 0.08387 0.76983 0.0
H765 H 0.59366 0.06424 0.76583 0.0
H766 H 0.60431 0.01947 0.8284 0.0
H767 H 0.65222 0.03572 0.84418 0.0
H768 H 0.50352 0.37623 0.12146 0.0
H769 H 0.49664 0.41129 0.09962 0.0
H770 H 0.58358 0.45416 0.11392 0.0
H771 H 0.59089 0.41928 0.13504 0.0
H772 H 0.49552 0.43933 0.12851 0.0
H773 H 0.57734 0.49243 0.04538 0.0
H774 H 0.56911 0.4618 0.05846 0.0
H775 H 0.5947 0.48371 0.07273 0.0
C776 C 0.52158 0.3931 0.11905 0.0
C777 C 0.54758 0.39504 0.13034 0.0
C778 C 0.51762 0.41311 0.10652 0.0
C779 C 0.53955 0.43537 0.10514 0.0
C780 C 0.56652 0.43721 0.11426 0.0
H781 H 0.53522 0.55277 0.145 0.0
H782 H 0.53485 0.51543 0.14047 0.0
C783 C 0.57061 0.41719 0.12655 0.0
C784 C 0.53238 0.45619 0.09951 0.0
H785 H 0.55999 0.51418 0.06907 0.0
C786 C 0.50917 0.45551 0.11495 0.0
C787 C 0.55 0.47731 0.08178 0.0
C788 C 0.57397 0.47877 0.06347 0.0
C789 C 0.50446 0.47571 0.11451 0.0
C790 C 0.52371 0.49722 0.09853 0.0
C791 C 0.54554 0.49767 0.08162 0.0
C792 C 0.52318 0.51955 0.10107 0.0
C793 C 0.47964 0.47402 0.13201 0.0
C794 C 0.51732 0.53436 0.08027 0.0
C795 C 0.51706 0.5555 0.08308 0.0
C796 C 0.52257 0.5619 0.10671 0.0
C797 C 0.5293 0.54743 0.12717 0.0
C798 C 0.52944 0.52633 0.12444 0.0
H799 H 0.46208 0.45611 0.13676 0.0
H800 H 0.488 0.47815 0.15037 0.0
H801 H 0.47016 0.48662 0.12304 0.0
H802 H 0.51282 0.52951 0.062 0.0
H803 H 0.51247 0.56678 0.06689 0.0
H804 H 0.50089 0.2553 0.25759 0.0
H805 H 0.48179 0.21358 0.25866 0.0
H806 H 0.4947 0.23013 0.1754 0.0
H807 H 0.51409 0.27177 0.17412 0.0
H808 H 0.43238 0.19064 0.23623 0.0
H809 H 0.5273 0.1804 0.19633 0.0
H810 H 0.53094 0.20542 0.20861 0.0
H811 H 0.52103 0.2042 0.17631 0.0
C812 C 0.50021 0.25007 0.23952 0.0
C813 C 0.50893 0.26684 0.21574 0.0
C814 C 0.48925 0.22624 0.2402 0.0
C815 C 0.48712 0.2188 0.21715 0.0
C816 C 0.49673 0.23551 0.19345 0.0
H817 H 0.40186 0.10883 0.14851 0.0
H818 H 0.42528 0.14449 0.16347 0.0
C819 C 0.50767 0.25932 0.19274 0.0
C820 C 0.47235 0.19372 0.21745 0.0
H821 H 0.47979 0.15127 0.19283 0.0
C822 C 0.44289 0.18179 0.2273 0.0
C823 C 0.48619 0.18224 0.20593 0.0
C824 C 0.5182 0.19366 0.19644 0.0
C825 C 0.42637 0.15919 0.22428 0.0
C826 C 0.43978 0.14841 0.21121 0.0
C827 C 0.46961 0.15977 0.20271 0.0
C828 C 0.42271 0.1266 0.20346 0.0
C829 C 0.39434 0.14747 0.23363 0.0
C830 C 0.41289 0.1048 0.22124 0.0
C831 C 0.39937 0.08423 0.21275 0.0
C832 C 0.39576 0.08535 0.18636 0.0
C833 C 0.40449 0.10734 0.16893 0.0
C834 C 0.4179 0.12775 0.1774 0.0
H835 H 0.38697 0.15857 0.24274 0.0
H836 H 0.38129 0.14329 0.21718 0.0
H837 H 0.38986 0.13074 0.24797 0.0
H838 H 0.41657 0.10368 0.24144 0.0
H839 H 0.39296 0.06754 0.22661 0.0
H840 H 0.21365 0.52861 0.49306 0.0
H841 H 0.21362 0.49532 0.47775 0.0
H842 H 0.12461 0.4548 0.51063 0.0
H843 H 0.12431 0.48805 0.52599 0.0
H844 H 0.20034 0.44704 0.50554 0.0
H845 H 0.12435 0.45596 0.43178 0.0
H846 H 0.14395 0.47894 0.44764 0.0
H847 H 0.11235 0.45411 0.46432 0.0
C848 C 0.19409 0.51258 0.49721 0.0
C849 C 0.16887 0.51104 0.51053 0.0
C850 C 0.19419 0.49357 0.48851 0.0
C851 C 0.16903 0.47277 0.49282 0.0
C852 C 0.14413 0.47085 0.50688 0.0
H853 H 0.14028 0.3375 0.46632 0.0
H854 H 0.14806 0.37067 0.48557 0.0
C855 C 0.14404 0.48983 0.51569 0.0
C856 C 0.16844 0.45349 0.48155 0.0
H857 H 0.13681 0.42341 0.43648 0.0
C858 C 0.18649 0.44183 0.49044 0.0
C859 C 0.15069 0.44708 0.46157 0.0
C860 C 0.13188 0.45976 0.45053 0.0
C861 C 0.18675 0.42349 0.48018 0.0
C862 C 0.16837 0.41669 0.4607 0.0
C863 C 0.15077 0.42865 0.45151 0.0
C864 C 0.16658 0.39693 0.44977 0.0
C865 C 0.20683 0.41169 0.48998 0.0
C866 C 0.17428 0.40076 0.42331 0.0
C867 C 0.16997 0.38189 0.4124 0.0
C868 C 0.15777 0.35897 0.42777 0.0
C869 C 0.15017 0.35512 0.45425 0.0
C870 C 0.15473 0.374 0.46523 0.0
H871 H 0.2242 0.42234 0.50044 0.0
H872 H 0.19398 0.39461 0.50353 0.0
H873 H 0.21722 0.40831 0.47378 0.0
H874 H 0.18303 0.41832 0.41101 0.0
H875 H 0.17486 0.38511 0.39177 0.0
H876 H 0.72475 0.20027 0.83292 0.0
H877 H 0.7552 0.24152 0.82965 0.0
H878 H 0.82018 0.22248 0.86984 0.0
H879 H 0.79016 0.18122 0.87276 0.0
H880 H 0.77219 0.2623 0.86973 0.0
H881 H 0.86931 0.27432 0.80875 0.0
H882 H 0.83511 0.24925 0.81211 0.0
H883 H 0.85974 0.25046 0.83687 0.0
C884 C 0.7457 0.20486 0.84076 0.0
C885 C 0.75505 0.18745 0.85306 0.0
C886 C 0.76305 0.22845 0.83891 0.0
C887 C 0.7901 0.2351 0.84925 0.0
C888 C 0.79968 0.21779 0.86123 0.0
H889 H 0.88159 0.36669 0.89261 0.0
H890 H 0.85433 0.32563 0.8923 0.0
C891 C 0.7824 0.19419 0.86299 0.0
C892 C 0.8074 0.26001 0.84886 0.0
H893 H 0.87408 0.30495 0.82924 0.0
C894 C 0.79443 0.27166 0.86078 0.0
C895 C 0.8363 0.27224 0.83696 0.0
C896 C 0.85088 0.26102 0.82272 0.0
C897 C 0.80969 0.29515 0.86141 0.0
C898 C 0.83892 0.30715 0.85028 0.0
C899 C 0.85177 0.29561 0.83803 0.0
C900 C 0.85629 0.33188 0.85059 0.0
C901 C 0.79417 0.30699 0.87356 0.0
C902 C 0.8672 0.34889 0.82725 0.0
C903 C 0.88298 0.37233 0.82735 0.0
C904 C 0.88823 0.3792 0.85083 0.0
C905 C 0.87776 0.36203 0.8742 0.0
C906 C 0.86204 0.33856 0.87406 0.0
H907 H 0.77008 0.29747 0.87498 0.0
H908 H 0.80064 0.30746 0.89342 0.0
H909 H 0.80013 0.32526 0.86232 0.0
H910 H 0.86312 0.34408 0.80892 0.0
H911 H 0.89079 0.38509 0.80899 0.0
H912 H 0.44357 0.63029 0.14308 0.0
H913 H 0.46099 0.66621 0.15816 0.0
H914 H 0.48555 0.63145 0.22741 0.0
H915 H 0.46863 0.59541 0.21226 0.0
H916 H 0.45335 0.68147 0.2027 0.0
H917 H 0.56362 0.68115 0.18914 0.0
H918 H 0.53194 0.6612 0.17797 0.0
H919 H 0.53707 0.6565 0.2118 0.0
C920 C 0.45197 0.63004 0.16183 0.0
C921 C 0.45541 0.61016 0.17615 0.0
C922 C 0.46187 0.65061 0.17046 0.0
C923 C 0.47524 0.65161 0.19356 0.0
C924 C 0.47586 0.63113 0.20924 0.0
H925 H 0.55553 0.79414 0.22074 0.0
H926 H 0.53075 0.75129 0.23215 0.0
C927 C 0.46607 0.61054 0.20058 0.0
C928 C 0.49183 0.6747 0.19906 0.0
H929 H 0.56155 0.71522 0.19612 0.0
C930 C 0.47697 0.68875 0.20188 0.0
C931 C 0.5227 0.68414 0.1977 0.0
C932 C 0.53992 0.67011 0.19382 0.0
C933 C 0.49225 0.71236 0.20208 0.0
C934 C 0.5231 0.722 0.1996 0.0
C935 C 0.53789 0.70764 0.1982 0.0
C936 C 0.5403 0.74752 0.19421 0.0
C937 C 0.47541 0.72725 0.20319 0.0
C938 C 0.55469 0.75937 0.16945 0.0
C939 C 0.56882 0.78367 0.16291 0.0
C940 C 0.56897 0.79661 0.18108 0.0
C941 C 0.55579 0.78463 0.20633 0.0
C942 C 0.54146 0.76021 0.21284 0.0
H943 H 0.45163 0.71759 0.20251 0.0
H944 H 0.47877 0.73327 0.22139 0.0
H945 H 0.48352 0.743 0.18681 0.0
H946 H 0.55412 0.74984 0.15485 0.0
H947 H 0.5789 0.79234 0.14335 0.0
H948 H 0.75121 0.62916 0.58453 0.0
H949 H 0.72141 0.60242 0.55949 0.0
H950 H 0.79904 0.60959 0.51695 0.0
H951 H 0.82923 0.6361 0.54234 0.0
H952 H 0.71486 0.60275 0.50686 0.0
H953 H 0.76195 0.54007 0.55456 0.0
H954 H 0.76743 0.5663 0.56492 0.0
H955 H 0.78755 0.56795 0.53611 0.0
C956 C 0.76201 0.62544 0.56953 0.0
C957 C 0.79263 0.63441 0.56579 0.0
C958 C 0.7449 0.61019 0.55517 0.0
C959 C 0.75806 0.60365 0.53678 0.0
C960 C 0.78852 0.61409 0.53144 0.0
H961 H 0.64742 0.49841 0.45599 0.0
H962 H 0.68435 0.53482 0.46317 0.0
C963 C 0.80571 0.62931 0.54588 0.0
C964 C 0.73989 0.5841 0.52552 0.0
H965 H 0.72445 0.52672 0.52831 0.0
C966 C 0.71716 0.58621 0.51117 0.0
C967 C 0.74281 0.56247 0.53152 0.0
C968 C 0.76607 0.55886 0.54777 0.0
C969 C 0.69674 0.56703 0.50327 0.0
C970 C 0.69937 0.54533 0.50975 0.0
C971 C 0.72264 0.54345 0.52333 0.0
C972 C 0.67676 0.52374 0.50489 0.0
C973 C 0.67171 0.56976 0.4892 0.0
C974 C 0.66057 0.50543 0.52597 0.0
C975 C 0.63964 0.48466 0.52198 0.0
C976 C 0.63454 0.48174 0.49679 0.0
C977 C 0.65077 0.50015 0.47564 0.0
C978 C 0.67177 0.521 0.47968 0.0
H979 H 0.67029 0.58663 0.48926 0.0
H980 H 0.67469 0.56906 0.4688 0.0
H981 H 0.65072 0.55523 0.4981 0.0
H982 H 0.66416 0.50722 0.54558 0.0
H983 H 0.62757 0.47086 0.53869 0.0
H984 H 0.18605 0.69779 0.80074 0.0
H985 H 0.19879 0.73239 0.8181 0.0
H986 H 0.27692 0.72509 0.844 0.0
H987 H 0.26455 0.6905 0.82667 0.0
H988 H 0.23392 0.74497 0.87535 0.0
H989 H 0.28543 0.78698 0.77403 0.0
H990 H 0.25075 0.76215 0.78051 0.0
H991 H 0.28318 0.7583 0.79 0.0
C992 C 0.20543 0.70301 0.81092 0.0
C993 C 0.22467 0.69173 0.81177 0.0
C994 C 0.21259 0.72275 0.8209 0.0
C995 C 0.23887 0.73129 0.83203 0.0
C996 C 0.2565 0.71864 0.83546 0.0
H997 H 0.35697 0.86845 0.84019 0.0
H998 H 0.3326 0.82805 0.83669 0.0
C999 C 0.2494 0.6989 0.82547 0.0
C1000 C 0.25061 0.75541 0.83533 0.0
H1001 H 0.2913 0.81148 0.8022 0.0
C1002 C 0.24634 0.75959 0.85942 0.0
C1003 C 0.26685 0.77426 0.81442 0.0
C1004 C 0.27199 0.77042 0.7882 0.0
C1005 C 0.25835 0.7824 0.86321 0.0
C1006 C 0.27471 0.80126 0.84226 0.0
C1007 C 0.2787 0.79696 0.81816 0.0
C1008 C 0.28901 0.82557 0.84501 0.0
C1009 C 0.25418 0.78611 0.88967 0.0
C1010 C 0.27248 0.83766 0.85042 0.0
C1011 C 0.28635 0.86084 0.85232 0.0
C1012 C 0.31697 0.87229 0.84878 0.0
C1013 C 0.33337 0.86017 0.84301 0.0
C1014 C 0.3195 0.83706 0.84108 0.0
H1015 H 0.24619 0.76944 0.9048 0.0
H1016 H 0.27494 0.79839 0.89491 0.0
H1017 H 0.2379 0.79391 0.88953 0.0
H1018 H 0.24888 0.82921 0.85298 0.0
H1019 H 0.2731 0.8697 0.85679 0.0
loop_
_geom_bond_atom_site_label_1
_geom_bond_atom_site_label_2
_geom_bond_distance
_geom_bond_site_symmetry_2
_ccdc_geom_bond_type
C0 O1 1.160 . S
C0 O7 1.185 . S
O1 C0 1.160 . S
O2 Zn3 1.899 . S
O2 C10 1.284 . S
Zn3 O2 1.899 . S
Zn3 O4 2.032 . S
Zn3 O7 2.086 . S
Zn3 O12 1.977 . S
O4 Zn3 2.032 . S
O4 C8 1.278 . S
C5 O6 1.203 . S
C5 O12 1.267 . S
O6 C5 1.203 . S
O7 C0 1.185 . S
O7 Zn3 2.086 . S
C8 O4 1.278 . S
C8 O9 1.211 . S
O9 C8 1.211 . S
C10 O2 1.284 . S
C10 O11 1.273 . S
O11 C10 1.273 . S
O12 Zn3 1.977 . S
O12 C5 1.267 . S
C13 O14 1.160 . S
C13 O20 1.185 . S
O14 C13 1.160 . S
O15 Zn16 1.899 . S
O15 C23 1.284 . S
Zn16 O15 1.899 . S
Zn16 O17 2.032 . S
Zn16 O20 2.086 . S
Zn16 O25 1.977 . S
O17 Zn16 2.032 . S
O17 C21 1.278 . S
C18 O19 1.203 . S
C18 O25 1.267 . S
O19 C18 1.203 . S
O20 C13 1.185 . S
O20 Zn16 2.086 . S
C21 O17 1.278 . S
C21 O22 1.211 . S
O22 C21 1.211 . S
C23 O15 1.284 . S
C23 O24 1.273 . S
O24 C23 1.273 . S
O25 Zn16 1.977 . S
O25 C18 1.267 . S
C26 O27 1.160 . S
C26 O33 1.185 . S
O27 C26 1.160 . S
O28 Zn29 1.899 . S
O28 C36 1.284 . S
Zn29 O28 1.899 . S
Zn29 O30 2.032 . S
Zn29 O33 2.086 . S
Zn29 O38 1.977 . S
O30 Zn29 2.032 . S
O30 C34 1.278 . S
C31 O32 1.203 . S
C31 O38 1.267 . S
O32 C31 1.203 . S
O33 C26 1.185 . S
O33 Zn29 2.086 . S
C34 O30 1.278 . S
C34 O35 1.211 . S
O35 C34 1.211 . S
C36 O28 1.284 . S
C36 O37 1.273 . S
O37 C36 1.273 . S
O38 Zn29 1.977 . S
O38 C31 1.267 . S
C39 O40 1.160 . S
C39 O46 1.185 . S
O40 C39 1.160 . S
O41 Zn42 1.899 . S
O41 C49 1.284 . S
Zn42 O41 1.899 . S
Zn42 O43 2.032 . S
Zn42 O46 2.086 . S
Zn42 O51 1.977 . S
O43 Zn42 2.032 . S
O43 C47 1.278 . S
C44 O45 1.203 . S
C44 O51 1.267 . S
O45 C44 1.203 . S
O46 C39 1.185 . S
O46 Zn42 2.086 . S
C47 O43 1.278 . S
C47 O48 1.211 . S
O48 C47 1.211 . S
C49 O41 1.284 . S
C49 O50 1.273 . S
O50 C49 1.273 . S
O51 Zn42 1.977 . S
O51 C44 1.267 . S
C52 O53 1.160 . S
C52 O59 1.185 . S
O53 C52 1.160 . S
O54 Zn55 1.899 . S
O54 C62 1.284 . S
Zn55 O54 1.899 . S
Zn55 O56 2.032 . S
Zn55 O59 2.086 . S
Zn55 O64 1.977 . S
O56 Zn55 2.032 . S
O56 C60 1.278 . S
C57 O58 1.203 . S
C57 O64 1.267 . S
O58 C57 1.203 . S
O59 C52 1.185 . S
O59 Zn55 2.086 . S
C60 O56 1.278 . S
C60 O61 1.211 . S
O61 C60 1.211 . S
C62 O54 1.284 . S
C62 O63 1.273 . S
O63 C62 1.273 . S
O64 Zn55 1.977 . S
O64 C57 1.267 . S
C65 O66 1.160 . S
C65 O72 1.185 . S
O66 C65 1.160 . S
O67 Zn68 1.899 . S
O67 C75 1.284 . S
Zn68 O67 1.899 . S
Zn68 O69 2.032 . S
Zn68 O72 2.086 . S
Zn68 O77 1.977 . S
O69 Zn68 2.032 . S
O69 C73 1.278 . S
C70 O71 1.203 . S
C70 O77 1.267 . S
O71 C70 1.203 . S
O72 C65 1.185 . S
O72 Zn68 2.086 . S
C73 O69 1.278 . S
C73 O74 1.211 . S
O74 C73 1.211 . S
C75 O67 1.284 . S
C75 O76 1.273 . S
O76 C75 1.273 . S
O77 Zn68 1.977 . S
O77 C70 1.267 . S
C78 O79 1.160 . S
C78 O85 1.185 . S
O79 C78 1.160 . S
O80 Zn81 1.899 . S
O80 C88 1.284 . S
Zn81 O80 1.899 . S
Zn81 O82 2.032 . S
Zn81 O85 2.086 . S
Zn81 O90 1.977 . S
O82 Zn81 2.032 . S
O82 C86 1.278 . S
C83 O84 1.203 . S
C83 O90 1.267 . S
O84 C83 1.203 . S
O85 C78 1.185 . S
O85 Zn81 2.086 . S
C86 O82 1.278 . S
C86 O87 1.211 . S
O87 C86 1.211 . S
C88 O80 1.284 . S
C88 O89 1.273 . S
O89 C88 1.273 . S
O90 Zn81 1.977 . S
O90 C83 1.267 . S
C91 O92 1.160 . S
C91 O98 1.185 . S
O92 C91 1.160 . S
O93 Zn94 1.899 . S
O93 C101 1.284 . S
Zn94 O93 1.899 . S
Zn94 O95 2.032 . S
Zn94 O98 2.086 . S
Zn94 O103 1.977 . S
O95 Zn94 2.032 . S
O95 C99 1.278 . S
C96 O97 1.203 . S
C96 O103 1.267 . S
O97 C96 1.203 . S
O98 C91 1.185 . S
O98 Zn94 2.086 . S
C99 O95 1.278 . S
C99 O100 1.211 . S
O100 C99 1.211 . S
C101 O93 1.284 . S
C101 O102 1.273 . S
O102 C101 1.273 . S
O103 Zn94 1.977 . S
O103 C96 1.267 . S
C104 O105 1.160 . S
C104 O111 1.185 . S
O105 C104 1.160 . S
O106 Zn107 1.899 . S
O106 C114 1.284 . S
Zn107 O106 1.899 . S
Zn107 O108 2.032 . S
Zn107 O111 2.086 . S
Zn107 O116 1.977 . S
O108 Zn107 2.032 . S
O108 C112 1.278 . S
C109 O110 1.203 . S
C109 O116 1.267 . S
O110 C109 1.203 . S
O111 C104 1.185 . S
O111 Zn107 2.086 . S
C112 O108 1.278 . S
C112 O113 1.211 . S
O113 C112 1.211 . S
C114 O106 1.284 . S
C114 O115 1.273 . S
O115 C114 1.273 . S
O116 Zn107 1.977 . S
O116 C109 1.267 . S
C117 O118 1.160 . S
C117 O124 1.185 . S
O118 C117 1.160 . S
O119 Zn120 1.899 . S
O119 C127 1.284 . S
Zn120 O119 1.899 . S
Zn120 O121 2.032 . S
Zn120 O124 2.086 . S
Zn120 O129 1.977 . S
O121 Zn120 2.032 . S
O121 C125 1.278 . S
C122 O123 1.203 . S
C122 O129 1.267 . S
O123 C122 1.203 . S
O124 C117 1.185 . S
O124 Zn120 2.086 . S
C125 O121 1.278 . S
C125 O126 1.211 . S
O126 C125 1.211 . S
C127 O119 1.284 . S
C127 O128 1.273 . S
O128 C127 1.273 . S
O129 Zn120 1.977 . S
O129 C122 1.267 . S
C130 O131 1.160 . S
C130 O137 1.185 . S
O131 C130 1.160 . S
O132 Zn133 1.899 . S
O132 C140 1.284 . S
Zn133 O132 1.899 . S
Zn133 O134 2.032 . S
Zn133 O137 2.086 . S
Zn133 O142 1.977 . S
O134 Zn133 2.032 . S
O134 C138 1.278 . S
C135 O136 1.203 . S
C135 O142 1.267 . S
O136 C135 1.203 . S
O137 C130 1.185 . S
O137 Zn133 2.086 . S
C138 O134 1.278 . S
C138 O139 1.211 . S
O139 C138 1.211 . S
C140 O132 1.284 . S
C140 O141 1.273 . S
O141 C140 1.273 . S
O142 Zn133 1.977 . S
O142 C135 1.267 . S
C143 O144 1.160 . S
C143 O150 1.185 . S
O144 C143 1.160 . S
O145 Zn146 1.899 . S
O145 C153 1.284 . S
Zn146 O145 1.899 . S
Zn146 O147 2.032 . S
Zn146 O150 2.086 . S
Zn146 O155 1.977 . S
O147 Zn146 2.032 . S
O147 C151 1.278 . S
C148 O149 1.203 . S
C148 O155 1.267 . S
O149 C148 1.203 . S
O150 C143 1.185 . S
O150 Zn146 2.086 . S
C151 O147 1.278 . S
C151 O152 1.211 . S
O152 C151 1.211 . S
C153 O145 1.284 . S
C153 O154 1.273 . S
O154 C153 1.273 . S
O155 Zn146 1.977 . S
O155 C148 1.267 . S
H156 C164 0.929 . S
H157 C166 0.930 . S
H158 C168 0.930 . S
H159 C171 0.929 . S
H160 C174 0.928 1_556 S
H161 C176 0.960 . S
H162 C176 0.960 . S
H163 C176 0.960 . S
C164 H156 0.929 . S
C164 C165 1.377 . S
C164 C166 1.384 . S
C165 C164 1.377 . S
C165 C171 1.390 . S
C166 H157 0.930 . S
C166 C164 1.384 . S
C166 C167 1.372 . S
C167 C166 1.372 . S
C167 C168 1.400 . S
C167 C172 1.490 . S
C168 H158 0.930 . S
C168 C167 1.400 . S
C168 C171 1.386 . S
H169 C185 0.930 . S
H170 C186 0.931 . S
C171 H159 0.929 . S
C171 C165 1.390 . S
C171 C168 1.386 . S
C172 C167 1.490 . S
C172 C174 1.412 . S
C172 C175 1.403 . S
H173 C179 0.930 . S
C174 H160 0.928 1_554 S
C174 C172 1.412 . S
C174 C177 1.388 1_554 S
C175 C172 1.403 . S
C175 C176 1.524 . S
C175 C179 1.400 . S
C176 H161 0.960 . S
C176 H162 0.960 . S
C176 H163 0.960 . S
C176 C175 1.524 . S
C177 C174 1.388 1_556 S
C177 C178 1.392 . S
C177 C181 1.495 . S
C178 C177 1.392 . S
C178 C179 1.385 1_556 S
C178 C180 1.478 . S
C179 H173 0.930 . S
C179 C175 1.400 . S
C179 C178 1.385 1_554 S
C180 C178 1.478 . S
C180 C182 1.381 . S
C180 C186 1.383 . S
C181 C177 1.495 . S
C181 H187 0.959 . S
C181 H188 0.961 . S
C181 H189 0.960 . S
C182 C180 1.381 . S
C182 C183 1.394 . S
C182 H190 0.930 . S
C183 C182 1.394 . S
C183 C184 1.383 . S
C183 H191 0.929 . S
C184 C183 1.383 . S
C184 C185 1.377 . S
C185 H169 0.930 . S
C185 C184 1.377 . S
C185 C186 1.379 . S
C186 H170 0.931 . S
C186 C180 1.383 . S
C186 C185 1.379 . S
H187 C181 0.959 . S
H188 C181 0.961 . S
H189 C181 0.960 . S
H190 C182 0.930 . S
H191 C183 0.929 . S
H192 C200 0.929 . S
H193 C202 0.930 . S
H194 C204 0.930 . S
H195 C207 0.929 . S
H196 C210 0.930 . S
H197 C212 0.960 . S
H198 C212 0.960 . S
H199 C212 0.960 . S
C200 H192 0.929 . S
C200 C201 1.377 . S
C200 C202 1.384 . S
C201 C200 1.377 . S
C201 C207 1.390 . S
C202 H193 0.930 . S
C202 C200 1.384 . S
C202 C203 1.372 . S
C203 C202 1.372 . S
C203 C204 1.400 . S
C203 C208 1.490 . S
C204 H194 0.930 . S
C204 C203 1.400 . S
C204 C207 1.386 . S
H205 C221 0.930 . S
H206 C222 0.931 . S
C207 H195 0.929 . S
C207 C201 1.390 . S
C207 C204 1.386 . S
C208 C203 1.490 . S
C208 C210 1.395 . S
C208 C211 1.403 . S
H209 C215 0.930 . S
C210 H196 0.930 . S
C210 C208 1.395 . S
C210 C213 1.403 . S
C211 C208 1.403 . S
C211 C212 1.524 . S
C211 C215 1.400 . S
C212 H197 0.960 . S
C212 H198 0.960 . S
C212 H199 0.960 . S
C212 C211 1.524 . S
C213 C210 1.403 . S
C213 C214 1.392 . S
C213 C217 1.495 . S
C214 C213 1.392 . S
C214 C215 1.385 . S
C214 C216 1.478 . S
C215 H209 0.930 . S
C215 C211 1.400 . S
C215 C214 1.385 . S
C216 C214 1.478 . S
C216 C218 1.381 . S
C216 C222 1.383 . S
C217 C213 1.495 . S
C217 H223 0.959 . S
C217 H224 0.961 . S
C217 H225 0.960 . S
C218 C216 1.381 . S
C218 C219 1.394 . S
C218 H226 0.930 . S
C219 C218 1.394 . S
C219 C220 1.383 . S
C219 H227 0.929 . S
C220 C219 1.383 . S
C220 C221 1.377 . S
C221 H205 0.930 . S
C221 C220 1.377 . S
C221 C222 1.379 . S
C222 H206 0.931 . S
C222 C216 1.383 . S
C222 C221 1.379 . S
H223 C217 0.959 . S
H224 C217 0.961 . S
H225 C217 0.960 . S
H226 C218 0.930 . S
H227 C219 0.929 . S
H228 C236 0.929 . S
H229 C238 0.930 . S
H230 C240 0.930 . S
H231 C243 0.929 . S
H232 C246 0.930 . S
H233 C248 0.960 . S
H234 C248 0.960 . S
H235 C248 0.960 . S
C236 H228 0.929 . S
C236 C237 1.377 . S
C236 C238 1.384 . S
C237 C236 1.377 . S
C237 C243 1.390 . S
C238 H229 0.930 . S
C238 C236 1.384 . S
C238 C239 1.372 . S
C239 C238 1.372 . S
C239 C240 1.400 . S
C239 C244 1.490 . S
C240 H230 0.930 . S
C240 C239 1.400 . S
C240 C243 1.386 . S
H241 C257 0.930 . S
H242 C258 0.931 . S
C243 H231 0.929 . S
C243 C237 1.390 . S
C243 C240 1.386 . S
C244 C239 1.490 . S
C244 C246 1.395 . S
C244 C247 1.403 . S
H245 C251 0.930 . S
C246 H232 0.930 . S
C246 C244 1.395 . S
C246 C249 1.403 . S
C247 C244 1.403 . S
C247 C248 1.524 . S
C247 C251 1.400 . S
C248 H233 0.960 . S
C248 H234 0.960 . S
C248 H235 0.960 . S
C248 C247 1.524 . S
C249 C246 1.403 . S
C249 C250 1.392 . S
C249 C253 1.495 . S
C250 C249 1.392 . S
C250 C251 1.385 . S
C250 C252 1.478 . S
C251 H245 0.930 . S
C251 C247 1.400 . S
C251 C250 1.385 . S
C252 C250 1.478 . S
C252 C254 1.381 . S
C252 C258 1.383 . S
C253 C249 1.495 . S
C253 H259 0.959 . S
C253 H260 0.961 . S
C253 H261 0.960 . S
C254 C252 1.381 . S
C254 C255 1.394 . S
C254 H262 0.930 . S
C255 C254 1.394 . S
C255 C256 1.383 . S
C255 H263 0.929 . S
C256 C255 1.383 . S
C256 C257 1.377 . S
C257 H241 0.930 . S
C257 C256 1.377 . S
C257 C258 1.379 . S
C258 H242 0.931 . S
C258 C252 1.383 . S
C258 C257 1.379 . S
H259 C253 0.959 . S
H260 C253 0.961 . S
H261 C253 0.960 . S
H262 C254 0.930 . S
H263 C255 0.929 . S
H264 C272 0.929 . S
H265 C274 0.930 . S
H266 C276 0.930 . S
H267 C279 0.929 . S
H268 C282 0.930 . S
H269 C284 0.960 . S
H270 C284 0.960 . S
H271 C284 0.960 . S
C272 H264 0.929 . S
C272 C273 1.377 . S
C272 C274 1.384 . S
C273 C272 1.377 . S
C273 C279 1.390 . S
C274 H265 0.930 . S
C274 C272 1.384 . S
C274 C275 1.372 . S
C275 C274 1.372 . S
C275 C276 1.400 . S
C275 C280 1.490 . S
C276 H266 0.930 . S
C276 C275 1.400 . S
C276 C279 1.386 . S
H277 C293 0.930 . S
H278 C294 0.931 . S
C279 H267 0.929 . S
C279 C273 1.390 . S
C279 C276 1.386 . S
C280 C275 1.490 . S
C280 C282 1.395 1_554 S
C280 C283 1.403 . S
H281 C287 0.930 . S
C282 H268 0.930 . S
C282 C280 1.395 1_556 S
C282 C285 1.403 . S
C283 C280 1.403 . S
C283 C284 1.524 . S
C283 C287 1.400 1_554 S
C284 H269 0.960 . S
C284 H270 0.960 . S
C284 H271 0.960 . S
C284 C283 1.524 . S
C285 C282 1.403 . S
C285 C286 1.392 . S
C285 C289 1.495 . S
C286 C285 1.392 . S
C286 C287 1.385 . S
C286 C288 1.478 . S
C287 H281 0.930 . S
C287 C283 1.400 1_556 S
C287 C286 1.385 . S
C288 C286 1.478 . S
C288 C290 1.381 . S
C288 C294 1.383 . S
C289 C285 1.495 . S
C289 H295 0.959 . S
C289 H296 0.961 . S
C289 H297 0.960 . S
C290 C288 1.381 . S
C290 C291 1.394 . S
C290 H298 0.930 . S
C291 C290 1.394 . S
C291 C292 1.383 . S
C291 H299 0.929 . S
C292 C291 1.383 . S
C292 C293 1.377 . S
C293 H277 0.930 . S
C293 C292 1.377 . S
C293 C294 1.379 . S
C294 H278 0.931 . S
C294 C288 1.383 . S
C294 C293 1.379 . S
H295 C289 0.959 . S
H296 C289 0.961 . S
H297 C289 0.960 . S
H298 C290 0.930 . S
H299 C291 0.929 . S
H300 C308 0.929 . S
H301 C310 0.930 . S
H302 C312 0.930 . S
H303 C315 0.929 . S
H304 C318 0.930 . S
H305 C320 0.960 . S
H306 C320 0.960 . S
H307 C320 0.960 . S
C308 H300 0.929 . S
C308 C309 1.377 . S
C308 C310 1.384 . S
C309 C308 1.377 . S
C309 C315 1.390 . S
C310 H301 0.930 . S
C310 C308 1.384 . S
C310 C311 1.372 . S
C311 C310 1.372 . S
C311 C312 1.400 . S
C311 C316 1.490 . S
C312 H302 0.930 . S
C312 C311 1.400 . S
C312 C315 1.386 . S
H313 C329 0.930 . S
H314 C330 0.931 . S
C315 H303 0.929 . S
C315 C309 1.390 . S
C315 C312 1.386 . S
C316 C311 1.490 . S
C316 C318 1.395 . S
C316 C319 1.403 . S
H317 C323 0.930 . S
C318 H304 0.930 . S
C318 C316 1.395 . S
C318 C321 1.403 . S
C319 C316 1.403 . S
C319 C320 1.524 . S
C319 C323 1.400 . S
C320 H305 0.960 . S
C320 H306 0.960 . S
C320 H307 0.960 . S
C320 C319 1.524 . S
C321 C318 1.403 . S
C321 C322 1.392 . S
C321 C325 1.495 . S
C322 C321 1.392 . S
C322 C323 1.385 . S
C322 C324 1.478 . S
C323 H317 0.930 . S
C323 C319 1.400 . S
C323 C322 1.385 . S
C324 C322 1.478 . S
C324 C326 1.381 . S
C324 C330 1.383 . S
C325 C321 1.495 . S
C325 H331 0.959 . S
C325 H332 0.961 . S
C325 H333 0.960 . S
C326 C324 1.381 . S
C326 C327 1.394 . S
C326 H334 0.930 . S
C327 C326 1.394 . S
C327 C328 1.383 . S
C327 H335 0.929 . S
C328 C327 1.383 . S
C328 C329 1.377 . S
C329 H313 0.930 . S
C329 C328 1.377 . S
C329 C330 1.379 . S
C330 H314 0.931 . S
C330 C324 1.383 . S
C330 C329 1.379 . S
H331 C325 0.959 . S
H332 C325 0.961 . S
H333 C325 0.960 . S
H334 C326 0.930 . S
H335 C327 0.929 . S
H336 C344 0.929 . S
H337 C346 0.930 . S
H338 C348 0.930 . S
H339 C351 0.929 . S
H340 C354 0.930 . S
H341 C356 0.960 . S
H342 C356 0.960 . S
H343 C356 0.960 . S
C344 H336 0.929 . S
C344 C345 1.377 . S
C344 C346 1.384 . S
C345 C344 1.377 . S
C345 C351 1.390 . S
C346 H337 0.930 . S
C346 C344 1.384 . S
C346 C347 1.372 . S
C347 C346 1.372 . S
C347 C348 1.400 . S
C347 C352 1.490 . S
C348 H338 0.930 . S
C348 C347 1.400 . S
C348 C351 1.386 . S
H349 C365 0.930 . S
H350 C366 0.931 . S
C351 H339 0.929 . S
C351 C345 1.390 . S
C351 C348 1.386 . S
C352 C347 1.490 . S
C352 C354 1.395 . S
C352 C355 1.403 . S
H353 C359 0.930 . S
C354 H340 0.930 . S
C354 C352 1.395 . S
C354 C357 1.403 . S
C355 C352 1.403 . S
C355 C356 1.524 . S
C355 C359 1.400 . S
C356 H341 0.960 . S
C356 H342 0.960 . S
C356 H343 0.960 . S
C356 C355 1.524 . S
C357 C354 1.403 . S
C357 C358 1.392 . S
C357 C361 1.495 . S
C358 C357 1.392 . S
C358 C359 1.385 . S
C358 C360 1.478 . S
C359 H353 0.930 . S
C359 C355 1.400 . S
C359 C358 1.385 . S
C360 C358 1.478 . S
C360 C362 1.381 . S
C360 C366 1.383 . S
C361 C357 1.495 . S
C361 H367 0.959 . S
C361 H368 0.961 . S
C361 H369 0.960 . S
C362 C360 1.381 . S
C362 C363 1.394 . S
C362 H370 0.930 . S
C363 C362 1.394 . S
C363 C364 1.383 . S
C363 H371 0.929 . S
C364 C363 1.383 . S
C364 C365 1.377 . S
C365 H349 0.930 . S
C365 C364 1.377 . S
C365 C366 1.379 . S
C366 H350 0.931 . S
C366 C360 1.383 . S
C366 C365 1.379 . S
H367 C361 0.959 . S
H368 C361 0.961 . S
H369 C361 0.960 . S
H370 C362 0.930 . S
H371 C363 0.929 . S
H372 C380 0.929 . S
H373 C382 0.930 . S
H374 C384 0.930 . S
H375 C387 0.929 . S
H376 C390 0.930 . S
H377 C392 0.960 . S
H378 C392 0.960 1_554 S
H379 C392 0.960 1_554 S
C380 H372 0.929 . S
C380 C381 1.377 . S
C380 C382 1.384 . S
C381 C380 1.377 . S
C381 C387 1.390 . S
C382 H373 0.930 . S
C382 C380 1.384 . S
C382 C383 1.372 . S
C383 C382 1.372 . S
C383 C384 1.400 . S
C383 C388 1.490 . S
C384 H374 0.930 . S
C384 C383 1.400 . S
C384 C387 1.386 . S
H385 C401 0.930 . S
H386 C402 0.931 . S
C387 H375 0.929 . S
C387 C381 1.390 . S
C387 C384 1.386 . S
C388 C383 1.490 . S
C388 C390 1.395 1_545 S
C388 C391 1.370 1_554 S
H389 C395 0.930 . S
C390 H376 0.930 . S
C390 C388 1.395 1_565 S
C390 C393 1.403 . S
C391 C388 1.370 1_556 S
C391 C392 1.519 . S
C391 C395 1.440 . S
C392 H377 0.960 . S
C392 H378 0.960 1_556 S
C392 H379 0.960 1_556 S
C392 C391 1.519 . S
C393 C390 1.403 . S
C393 C394 1.392 1_554 S
C393 C397 1.495 . S
C394 C393 1.392 1_556 S
C394 C395 1.385 1_565 S
C394 C396 1.478 . S
C395 H389 0.930 . S
C395 C391 1.440 . S
C395 C394 1.385 1_545 S
C396 C394 1.478 . S
C396 C398 1.381 . S
C396 C402 1.383 . S
C397 C393 1.495 . S
C397 H403 0.959 . S
C397 H404 0.949 1_554 S
C397 H405 0.960 1_554 S
C398 C396 1.381 . S
C398 C399 1.394 . S
C398 H406 0.930 . S
C399 C398 1.394 . S
C399 C400 1.383 . S
C399 H407 0.929 . S
C400 C399 1.383 . S
C400 C401 1.377 . S
C401 H385 0.930 . S
C401 C400 1.377 . S
C401 C402 1.379 . S
C402 H386 0.931 . S
C402 C396 1.383 . S
C402 C401 1.379 . S
H403 C397 0.959 . S
H404 C397 0.949 1_556 S
H405 C397 0.960 1_556 S
H406 C398 0.930 . S
H407 C399 0.929 . S
H408 C416 0.929 . S
H409 C418 0.930 . S
H410 C420 0.930 . S
H411 C423 0.929 . S
H412 C426 0.930 . S
H413 C428 0.960 . S
H414 C428 0.960 . S
H415 C428 0.960 . S
C416 H408 0.929 . S
C416 C417 1.377 . S
C416 C418 1.384 . S
C417 C416 1.377 . S
C417 C423 1.390 . S
C418 H409 0.930 . S
C418 C416 1.384 . S
C418 C419 1.372 . S
C419 C418 1.372 . S
C419 C420 1.400 . S
C419 C424 1.490 . S
C420 H410 0.930 . S
C420 C419 1.400 . S
C420 C423 1.386 . S
H421 C437 0.930 . S
H422 C438 0.931 . S
C423 H411 0.929 . S
C423 C417 1.390 . S
C423 C420 1.386 . S
C424 C419 1.490 . S
C424 C426 1.395 . S
C424 C427 1.403 . S
H425 C431 0.930 . S
C426 H412 0.930 . S
C426 C424 1.395 . S
C426 C429 1.403 . S
C427 C424 1.403 . S
C427 C428 1.524 . S
C427 C431 1.400 . S
C428 H413 0.960 . S
C428 H414 0.960 . S
C428 H415 0.960 . S
C428 C427 1.524 . S
C429 C426 1.403 . S
C429 C430 1.392 . S
C429 C433 1.495 . S
C430 C429 1.392 . S
C430 C431 1.385 . S
C430 C432 1.478 . S
C431 H425 0.930 . S
C431 C427 1.400 . S
C431 C430 1.385 . S
C432 C430 1.478 . S
C432 C434 1.381 . S
C432 C438 1.383 . S
C433 C429 1.495 . S
C433 H439 0.959 . S
C433 H440 0.961 . S
C433 H441 0.960 . S
C434 C432 1.381 . S
C434 C435 1.394 . S
C434 H442 0.930 . S
C435 C434 1.394 . S
C435 C436 1.383 . S
C435 H443 0.929 . S
C436 C435 1.383 . S
C436 C437 1.377 . S
C437 H421 0.930 . S
C437 C436 1.377 . S
C437 C438 1.379 . S
C438 H422 0.931 . S
C438 C432 1.383 . S
C438 C437 1.379 . S
H439 C433 0.959 . S
H440 C433 0.961 . S
H441 C433 0.960 . S
H442 C434 0.930 . S
H443 C435 0.929 . S
H444 C452 0.929 . S
H445 C454 0.930 . S
H446 C456 0.930 . S
H447 C459 0.929 . S
H448 C462 0.930 . S
H449 C464 0.960 . S
H450 C464 0.960 . S
H451 C464 0.960 . S
C452 H444 0.929 . S
C452 C453 1.377 . S
C452 C454 1.384 . S
C453 C452 1.377 . S
C453 C459 1.390 . S
C454 H445 0.930 . S
C454 C452 1.384 . S
C454 C455 1.372 . S
C455 C454 1.372 . S
C455 C456 1.400 . S
C455 C460 1.490 . S
C456 H446 0.930 . S
C456 C455 1.400 . S
C456 C459 1.386 . S
H457 C473 0.930 . S
H458 C474 0.931 . S
C459 H447 0.929 . S
C459 C453 1.390 . S
C459 C456 1.386 . S
C460 C455 1.490 . S
C460 C462 1.395 . S
C460 C463 1.403 . S
H461 C467 0.930 . S
C462 H448 0.930 . S
C462 C460 1.395 . S
C462 C465 1.403 . S
C463 C460 1.403 . S
C463 C464 1.524 . S
C463 C467 1.400 . S
C464 H449 0.960 . S
C464 H450 0.960 . S
C464 H451 0.960 . S
C464 C463 1.524 . S
C465 C462 1.403 . S
C465 C466 1.392 . S
C465 C469 1.495 1_455 S
C466 C465 1.392 . S
C466 C467 1.385 . S
C466 C468 1.478 1_455 S
C467 H461 0.930 . S
C467 C463 1.400 . S
C467 C466 1.385 . S
C468 C466 1.478 1_655 S
C468 C470 1.381 . S
C468 C474 1.383 . S
C469 C465 1.495 1_655 S
C469 H475 0.959 . S
C469 H476 0.961 . S
C469 H477 0.960 . S
C470 C468 1.381 . S
C470 C471 1.394 . S
C470 H478 0.930 1_655 S
C471 C470 1.394 . S
C471 C472 1.383 . S
C471 H479 0.929 . S
C472 C471 1.383 . S
C472 C473 1.377 . S
C473 H457 0.930 . S
C473 C472 1.377 . S
C473 C474 1.379 . S
C474 H458 0.931 . S
C474 C468 1.383 . S
C474 C473 1.379 . S
H475 C469 0.959 . S
H476 C469 0.961 . S
H477 C469 0.960 . S
H478 C470 0.930 1_455 S
H479 C471 0.929 . S
H480 C488 0.929 . S
H481 C490 0.930 . S
H482 C492 0.930 . S
H483 C495 0.929 . S
H484 C498 0.930 . S
H485 C500 0.960 . S
H486 C500 0.960 . S
H487 C500 0.960 . S
C488 H480 0.929 . S
C488 C489 1.377 . S
C488 C490 1.384 . S
C489 C488 1.377 . S
C489 C495 1.390 . S
C490 H481 0.930 . S
C490 C488 1.384 . S
C490 C491 1.372 . S
C491 C490 1.372 . S
C491 C492 1.400 . S
C491 C496 1.490 . S
C492 H482 0.930 . S
C492 C491 1.400 . S
C492 C495 1.386 . S
H493 C509 0.930 . S
H494 C510 0.931 . S
C495 H483 0.929 . S
C495 C489 1.390 . S
C495 C492 1.386 . S
C496 C491 1.490 . S
C496 C498 1.395 1_565 S
C496 C499 1.403 1_554 S
H497 C503 0.929 . S
C498 H484 0.930 . S
C498 C496 1.395 1_545 S
C498 C501 1.403 . S
C499 C496 1.403 1_556 S
C499 C500 1.524 . S
C499 C503 1.398 . S
C500 H485 0.960 . S
C500 H486 0.960 . S
C500 H487 0.960 . S
C500 C499 1.524 . S
C501 C498 1.403 . S
C501 C502 1.392 1_554 S
C501 C505 1.495 . S
C502 C501 1.392 1_556 S
C502 C503 1.388 1_545 S
C502 C504 1.478 . S
C503 H497 0.929 . S
C503 C499 1.398 . S
C503 C502 1.388 1_565 S
C504 C502 1.478 . S
C504 C506 1.381 . S
C504 C510 1.383 . S
C505 C501 1.495 . S
C505 H511 0.959 . S
C505 H512 0.961 . S
C505 H513 0.960 . S
C506 C504 1.381 . S
C506 C507 1.394 . S
C506 H514 0.930 . S
C507 C506 1.394 . S
C507 C508 1.383 . S
C507 H515 0.929 . S
C508 C507 1.383 . S
C508 C509 1.377 . S
C509 H493 0.930 . S
C509 C508 1.377 . S
C509 C510 1.379 . S
C510 H494 0.931 . S
C510 C504 1.383 . S
C510 C509 1.379 . S
H511 C505 0.959 . S
H512 C505 0.961 . S
H513 C505 0.960 . S
H514 C506 0.930 . S
H515 C507 0.929 . S
H516 C524 0.929 . S
H517 C526 0.930 . S
H518 C528 0.930 . S
H519 C531 0.929 . S
H520 C534 0.930 . S
H521 C536 0.960 . S
H522 C536 0.960 . S
H523 C536 0.960 . S
C524 H516 0.929 . S
C524 C525 1.377 . S
C524 C526 1.384 . S
C525 C524 1.377 . S
C525 C531 1.390 . S
C526 H517 0.930 . S
C526 C524 1.384 . S
C526 C527 1.372 . S
C527 C526 1.372 . S
C527 C528 1.400 . S
C527 C532 1.490 . S
C528 H518 0.930 . S
C528 C527 1.400 . S
C528 C531 1.386 . S
H529 C545 0.930 . S
H530 C546 0.931 . S
C531 H519 0.929 . S
C531 C525 1.390 . S
C531 C528 1.386 . S
C532 C527 1.490 . S
C532 C534 1.395 . S
C532 C535 1.403 . S
H533 C539 0.930 . S
C534 H520 0.930 . S
C534 C532 1.395 . S
C534 C537 1.403 . S
C535 C532 1.403 . S
C535 C536 1.524 . S
C535 C539 1.400 . S
C536 H521 0.960 . S
C536 H522 0.960 . S
C536 H523 0.960 . S
C536 C535 1.524 . S
C537 C534 1.403 . S
C537 C538 1.392 . S
C537 C541 1.495 . S
C538 C537 1.392 . S
C538 C539 1.385 . S
C538 C540 1.478 . S
C539 H533 0.930 . S
C539 C535 1.400 . S
C539 C538 1.385 . S
C540 C538 1.478 . S
C540 C542 1.381 . S
C540 C546 1.383 . S
C541 C537 1.495 . S
C541 H547 0.959 . S
C541 H548 0.961 . S
C541 H549 0.960 . S
C542 C540 1.381 . S
C542 C543 1.394 . S
C542 H550 0.930 . S
C543 C542 1.394 . S
C543 C544 1.383 . S
C543 H551 0.929 . S
C544 C543 1.383 . S
C544 C545 1.377 . S
C545 H529 0.930 . S
C545 C544 1.377 . S
C545 C546 1.379 . S
C546 H530 0.931 . S
C546 C540 1.383 . S
C546 C545 1.379 . S
H547 C541 0.959 . S
H548 C541 0.961 . S
H549 C541 0.960 . S
H550 C542 0.930 . S
H551 C543 0.929 . S
H552 C560 0.929 . S
H553 C562 0.930 . S
H554 C564 0.930 . S
H555 C567 0.929 . S
H556 C570 0.930 . S
H557 C572 0.960 . S
H558 C572 0.960 . S
H559 C572 0.960 . S
C560 H552 0.929 . S
C560 C561 1.377 . S
C560 C562 1.384 . S
C561 C560 1.377 . S
C561 C567 1.390 . S
C562 H553 0.930 . S
C562 C560 1.384 . S
C562 C563 1.372 . S
C563 C562 1.372 . S
C563 C564 1.400 . S
C563 C568 1.490 . S
C564 H554 0.930 . S
C564 C563 1.400 . S
C564 C567 1.386 . S
H565 C581 0.930 . S
H566 C582 0.931 . S
C567 H555 0.929 . S
C567 C561 1.390 . S
C567 C564 1.386 . S
C568 C563 1.490 . S
C568 C570 1.395 . S
C568 C571 1.403 . S
H569 C575 0.930 . S
C570 H556 0.930 . S
C570 C568 1.395 . S
C570 C573 1.403 1_455 S
C571 C568 1.403 . S
C571 C572 1.524 . S
C571 C575 1.400 . S
C572 H557 0.960 . S
C572 H558 0.960 . S
C572 H559 0.960 . S
C572 C571 1.524 . S
C573 C570 1.403 1_655 S
C573 C574 1.392 . S
C573 C577 1.495 . S
C574 C573 1.392 . S
C574 C575 1.385 1_655 S
C574 C576 1.478 . S
C575 H569 0.930 . S
C575 C571 1.400 . S
C575 C574 1.385 1_455 S
C576 C574 1.478 . S
C576 C578 1.381 . S
C576 C582 1.383 . S
C577 C573 1.495 . S
C577 H583 0.959 . S
C577 H584 0.961 . S
C577 H585 0.960 . S
C578 C576 1.381 . S
C578 C579 1.394 . S
C578 H586 0.930 . S
C579 C578 1.394 . S
C579 C580 1.383 . S
C579 H587 0.929 . S
C580 C579 1.383 . S
C580 C581 1.377 . S
C581 H565 0.930 . S
C581 C580 1.377 . S
C581 C582 1.379 . S
C582 H566 0.931 . S
C582 C576 1.383 . S
C582 C581 1.379 . S
H583 C577 0.959 . S
H584 C577 0.961 . S
H585 C577 0.960 . S
H586 C578 0.930 . S
H587 C579 0.929 . S
H588 C596 0.929 . S
H589 C598 0.930 . S
H590 C600 0.930 . S
H591 C603 0.929 . S
H592 C606 0.930 . S
H593 C608 0.960 . S
H594 C608 0.960 . S
H595 C608 0.960 . S
C596 H588 0.929 . S
C596 C597 1.377 . S
C596 C598 1.384 . S
C597 C596 1.377 . S
C597 C603 1.390 . S
C598 H589 0.930 . S
C598 C596 1.384 . S
C598 C599 1.372 . S
C599 C598 1.372 . S
C599 C600 1.400 . S
C599 C604 1.490 . S
C600 H590 0.930 . S
C600 C599 1.400 . S
C600 C603 1.386 . S
H601 C617 0.930 . S
H602 C618 0.931 . S
C603 H591 0.929 . S
C603 C597 1.390 . S
C603 C600 1.386 . S
C604 C599 1.490 . S
C604 C606 1.395 . S
C604 C607 1.403 . S
H605 C611 0.930 . S
C606 H592 0.930 . S
C606 C604 1.395 . S
C606 C609 1.403 . S
C607 C604 1.403 . S
C607 C608 1.524 . S
C607 C611 1.400 . S
C608 H593 0.960 . S
C608 H594 0.960 . S
C608 H595 0.960 . S
C608 C607 1.524 . S
C609 C606 1.403 . S
C609 C610 1.392 . S
C609 C613 1.495 . S
C610 C609 1.392 . S
C610 C611 1.385 . S
C610 C612 1.478 . S
C611 H605 0.930 . S
C611 C607 1.400 . S
C611 C610 1.385 . S
C612 C610 1.478 . S
C612 C614 1.381 . S
C612 C618 1.383 . S
C613 C609 1.495 . S
C613 H619 0.959 . S
C613 H620 0.961 . S
C613 H621 0.960 . S
C614 C612 1.381 . S
C614 C615 1.394 1_565 S
C614 H622 0.930 . S
C615 C614 1.394 1_545 S
C615 C616 1.383 . S
C615 H623 0.929 . S
C616 C615 1.383 . S
C616 C617 1.377 . S
C617 H601 0.930 . S
C617 C616 1.377 . S
C617 C618 1.379 1_545 S
C618 H602 0.931 . S
C618 C612 1.383 . S
C618 C617 1.379 1_565 S
H619 C613 0.959 . S
H620 C613 0.961 . S
H621 C613 0.960 . S
H622 C614 0.930 . S
H623 C615 0.929 . S
H624 C632 0.929 . S
H625 C634 0.930 . S
H626 C636 0.930 . S
H627 C639 0.929 . S
H628 C642 0.930 . S
H629 C644 0.960 . S
H630 C644 0.960 . S
H631 C644 0.960 . S
C632 H624 0.929 . S
C632 C633 1.377 . S
C632 C634 1.384 . S
C633 C632 1.377 . S
C633 C639 1.390 . S
C634 H625 0.930 . S
C634 C632 1.384 . S
C634 C635 1.372 . S
C635 C634 1.372 . S
C635 C636 1.400 . S
C635 C640 1.490 . S
C636 H626 0.930 . S
C636 C635 1.400 . S
C636 C639 1.386 . S
H637 C653 0.930 . S
H638 C654 0.931 . S
C639 H627 0.929 . S
C639 C633 1.390 . S
C639 C636 1.386 . S
C640 C635 1.490 . S
C640 C642 1.395 . S
C640 C643 1.403 . S
H641 C647 0.930 . S
C642 H628 0.930 . S
C642 C640 1.395 . S
C642 C645 1.403 . S
C643 C640 1.403 . S
C643 C644 1.524 . S
C643 C647 1.400 . S
C644 H629 0.960 . S
C644 H630 0.960 . S
C644 H631 0.960 . S
C644 C643 1.524 . S
C645 C642 1.403 . S
C645 C646 1.392 . S
C645 C649 1.495 . S
C646 C645 1.392 . S
C646 C647 1.385 . S
C646 C648 1.478 . S
C647 H641 0.930 . S
C647 C643 1.400 . S
C647 C646 1.385 . S
C648 C646 1.478 . S
C648 C650 1.381 . S
C648 C654 1.383 . S
C649 C645 1.495 . S
C649 H655 0.959 . S
C649 H656 0.961 . S
C649 H657 0.960 . S
C650 C648 1.381 . S
C650 C651 1.394 . S
C650 H658 0.930 . S
C651 C650 1.394 . S
C651 C652 1.383 . S
C651 H659 0.929 . S
C652 C651 1.383 . S
C652 C653 1.377 . S
C653 H637 0.930 . S
C653 C652 1.377 . S
C653 C654 1.379 . S
C654 H638 0.931 . S
C654 C648 1.383 . S
C654 C653 1.379 . S
H655 C649 0.959 . S
H656 C649 0.961 . S
H657 C649 0.960 . S
H658 C650 0.930 . S
H659 C651 0.929 . S
H660 C668 0.929 . S
H661 C670 0.930 . S
H662 C672 0.930 . S
H663 C675 0.929 . S
H664 C678 0.930 . S
H665 C680 0.960 . S
H666 C680 0.960 . S
H667 C680 0.960 . S
C668 H660 0.929 . S
C668 C669 1.377 . S
C668 C670 1.384 . S
C669 C668 1.377 . S
C669 C675 1.390 . S
C670 H661 0.930 . S
C670 C668 1.384 . S
C670 C671 1.372 . S
C671 C670 1.372 . S
C671 C672 1.400 . S
C671 C676 1.490 . S
C672 H662 0.930 . S
C672 C671 1.400 . S
C672 C675 1.386 . S
H673 C689 0.930 . S
H674 C690 0.931 . S
C675 H663 0.929 . S
C675 C669 1.390 . S
C675 C672 1.386 . S
C676 C671 1.490 . S
C676 C678 1.395 . S
C676 C679 1.403 . S
H677 C683 0.930 . S
C678 H664 0.930 . S
C678 C676 1.395 . S
C678 C681 1.403 . S
C679 C676 1.403 . S
C679 C680 1.524 . S
C679 C683 1.400 . S
C680 H665 0.960 . S
C680 H666 0.960 . S
C680 H667 0.960 . S
C680 C679 1.524 . S
C681 C678 1.403 . S
C681 C682 1.392 . S
C681 C685 1.495 . S
C682 C681 1.392 . S
C682 C683 1.385 . S
C682 C684 1.478 1_455 S
C683 H677 0.930 . S
C683 C679 1.400 . S
C683 C682 1.385 . S
C684 C682 1.478 1_655 S
C684 C686 1.381 . S
C684 C690 1.383 . S
C685 C681 1.495 . S
C685 H691 0.959 . S
C685 H692 0.961 . S
C685 H693 0.960 . S
C686 C684 1.381 . S
C686 C687 1.394 . S
C686 H694 0.930 . S
C687 C686 1.394 . S
C687 C688 1.383 . S
C687 H695 0.929 . S
C688 C687 1.383 . S
C688 C689 1.377 . S
C689 H673 0.930 . S
C689 C688 1.377 . S
C689 C690 1.379 . S
C690 H674 0.931 . S
C690 C684 1.383 . S
C690 C689 1.379 . S
H691 C685 0.959 . S
H692 C685 0.961 . S
H693 C685 0.960 . S
H694 C686 0.930 . S
H695 C687 0.929 . S
H696 C704 0.929 . S
H697 C706 0.930 . S
H698 C708 0.930 . S
H699 C711 0.929 . S
H700 C714 0.930 . S
H701 C716 0.960 . S
H702 C716 0.960 . S
H703 C716 0.960 . S
C704 H696 0.929 . S
C704 C705 1.377 . S
C704 C706 1.384 . S
C705 C704 1.377 . S
C705 C711 1.390 . S
C706 H697 0.930 . S
C706 C704 1.384 . S
C706 C707 1.372 . S
C707 C706 1.372 . S
C707 C708 1.400 . S
C707 C712 1.453 1_655 S
C708 H698 0.930 . S
C708 C707 1.400 . S
C708 C711 1.386 . S
H709 C725 0.930 . S
H710 C726 0.931 . S
C711 H699 0.929 . S
C711 C705 1.390 . S
C711 C708 1.386 . S
C712 C707 1.453 1_455 S
C712 C714 1.418 . S
C712 C715 1.417 . S
H713 C719 0.930 . S
C714 H700 0.930 . S
C714 C712 1.418 . S
C714 C717 1.403 . S
C715 C712 1.417 . S
C715 C716 1.524 1_455 S
C715 C719 1.400 . S
C716 H701 0.960 . S
C716 H702 0.960 . S
C716 H703 0.960 . S
C716 C715 1.524 1_655 S
C717 C714 1.403 . S
C717 C718 1.392 . S
C717 C721 1.495 . S
C718 C717 1.392 . S
C718 C719 1.385 . S
C718 C720 1.478 . S
C719 H713 0.930 . S
C719 C715 1.400 . S
C719 C718 1.385 . S
C720 C718 1.478 . S
C720 C722 1.381 . S
C720 C726 1.383 . S
C721 C717 1.495 . S
C721 H727 0.959 . S
C721 H728 0.961 . S
C721 H729 0.960 . S
C722 C720 1.381 . S
C722 C723 1.394 . S
C722 H730 0.930 . S
C723 C722 1.394 . S
C723 C724 1.383 . S
C723 H731 0.929 . S
C724 C723 1.383 . S
C724 C725 1.377 . S
C725 H709 0.930 . S
C725 C724 1.377 . S
C725 C726 1.379 . S
C726 H710 0.931 . S
C726 C720 1.383 . S
C726 C725 1.379 . S
H727 C721 0.959 . S
H728 C721 0.961 . S
H729 C721 0.960 . S
H730 C722 0.930 . S
H731 C723 0.929 . S
H732 C740 0.929 . S
H733 C742 0.930 . S
H734 C744 0.930 . S
H735 C747 0.929 . S
H736 C750 0.930 . S
H737 C752 0.960 . S
H738 C752 0.960 . S
H739 C752 0.960 . S
C740 H732 0.929 . S
C740 C741 1.377 . S
C740 C742 1.384 . S
C741 C740 1.377 . S
C741 C747 1.390 1_565 S
C742 H733 0.930 . S
C742 C740 1.384 . S
C742 C743 1.372 1_565 S
C743 C742 1.372 1_545 S
C743 C744 1.400 . S
C743 C748 1.490 . S
C744 H734 0.930 . S
C744 C743 1.400 . S
C744 C747 1.386 . S
H745 C761 0.930 . S
H746 C762 0.931 . S
C747 H735 0.929 . S
C747 C741 1.390 1_545 S
C747 C744 1.386 . S
C748 C743 1.490 . S
C748 C750 1.395 . S
C748 C751 1.403 . S
H749 C755 0.930 . S
C750 H736 0.930 . S
C750 C748 1.395 . S
C750 C753 1.403 . S
C751 C748 1.403 . S
C751 C752 1.524 . S
C751 C755 1.400 . S
C752 H737 0.960 . S
C752 H738 0.960 . S
C752 H739 0.960 . S
C752 C751 1.524 . S
C753 C750 1.403 . S
C753 C754 1.392 . S
C753 C757 1.495 . S
C754 C753 1.392 . S
C754 C755 1.385 . S
C754 C756 1.478 . S
C755 H749 0.930 . S
C755 C751 1.400 . S
C755 C754 1.385 . S
C756 C754 1.478 . S
C756 C758 1.381 . S
C756 C762 1.383 . S
C757 C753 1.495 . S
C757 H763 0.959 . S
C757 H764 0.961 . S
C757 H765 0.960 . S
C758 C756 1.381 . S
C758 C759 1.394 . S
C758 H766 0.930 . S
C759 C758 1.394 . S
C759 C760 1.383 . S
C759 H767 0.929 . S
C760 C759 1.383 . S
C760 C761 1.377 . S
C761 H745 0.930 . S
C761 C760 1.377 . S
C761 C762 1.379 . S
C762 H746 0.931 . S
C762 C756 1.383 . S
C762 C761 1.379 . S
H763 C757 0.959 . S
H764 C757 0.961 . S
H765 C757 0.960 . S
H766 C758 0.930 . S
H767 C759 0.929 . S
H768 C776 0.929 . S
H769 C778 0.930 . S
H770 C780 0.930 . S
H771 C783 0.929 . S
H772 C786 0.930 . S
H773 C788 0.960 . S
H774 C788 0.960 . S
H775 C788 0.960 . S
C776 H768 0.929 . S
C776 C777 1.377 . S
C776 C778 1.384 . S
C777 C776 1.377 . S
C777 C783 1.390 . S
C778 H769 0.930 . S
C778 C776 1.384 . S
C778 C779 1.372 . S
C779 C778 1.372 . S
C779 C780 1.400 . S
C779 C784 1.490 . S
C780 H770 0.930 . S
C780 C779 1.400 . S
C780 C783 1.386 . S
H781 C797 0.930 . S
H782 C798 0.931 . S
C783 H771 0.929 . S
C783 C777 1.390 . S
C783 C780 1.386 . S
C784 C779 1.490 . S
C784 C786 1.395 . S
C784 C787 1.403 . S
H785 C791 0.930 . S
C786 H772 0.930 . S
C786 C784 1.395 . S
C786 C789 1.403 . S
C787 C784 1.403 . S
C787 C788 1.524 . S
C787 C791 1.400 . S
C788 H773 0.960 . S
C788 H774 0.960 . S
C788 H775 0.960 . S
C788 C787 1.524 . S
C789 C786 1.403 . S
C789 C790 1.392 . S
C789 C793 1.495 . S
C790 C789 1.392 . S
C790 C791 1.385 . S
C790 C792 1.478 . S
C791 H785 0.930 . S
C791 C787 1.400 . S
C791 C790 1.385 . S
C792 C790 1.478 . S
C792 C794 1.381 . S
C792 C798 1.383 . S
C793 C789 1.495 . S
C793 H799 0.959 . S
C793 H800 0.961 . S
C793 H801 0.960 . S
C794 C792 1.381 . S
C794 C795 1.394 . S
C794 H802 0.930 . S
C795 C794 1.394 . S
C795 C796 1.383 . S
C795 H803 0.929 . S
C796 C795 1.383 . S
C796 C797 1.377 . S
C797 H781 0.930 . S
C797 C796 1.377 . S
C797 C798 1.379 . S
C798 H782 0.931 . S
C798 C792 1.383 . S
C798 C797 1.379 . S
H799 C793 0.959 . S
H800 C793 0.961 . S
H801 C793 0.960 . S
H802 C794 0.930 . S
H803 C795 0.929 . S
H804 C812 0.929 . S
H805 C814 0.930 . S
H806 C816 0.930 . S
H807 C819 0.929 . S
H808 C822 0.930 . S
H809 C824 0.960 . S
H810 C824 0.960 . S
H811 C824 0.960 . S
C812 H804 0.929 . S
C812 C813 1.377 . S
C812 C814 1.384 . S
C813 C812 1.377 . S
C813 C819 1.390 . S
C814 H805 0.930 . S
C814 C812 1.384 . S
C814 C815 1.372 . S
C815 C814 1.372 . S
C815 C816 1.400 . S
C815 C820 1.490 . S
C816 H806 0.930 . S
C816 C815 1.400 . S
C816 C819 1.386 . S
H817 C833 0.930 . S
H818 C834 0.931 . S
C819 H807 0.929 . S
C819 C813 1.390 . S
C819 C816 1.386 . S
C820 C815 1.490 . S
C820 C822 1.395 . S
C820 C823 1.403 . S
H821 C827 0.930 . S
C822 H808 0.930 . S
C822 C820 1.395 . S
C822 C825 1.403 . S
C823 C820 1.403 . S
C823 C824 1.524 . S
C823 C827 1.400 . S
C824 H809 0.960 . S
C824 H810 0.960 . S
C824 H811 0.960 . S
C824 C823 1.524 . S
C825 C822 1.403 . S
C825 C826 1.392 . S
C825 C829 1.495 . S
C826 C825 1.392 . S
C826 C827 1.385 . S
C826 C828 1.478 . S
C827 H821 0.930 . S
C827 C823 1.400 . S
C827 C826 1.385 . S
C828 C826 1.478 . S
C828 C830 1.381 . S
C828 C834 1.383 . S
C829 C825 1.495 . S
C829 H835 0.959 . S
C829 H836 0.961 . S
C829 H837 0.960 . S
C830 C828 1.381 . S
C830 C831 1.394 . S
C830 H838 0.930 . S
C831 C830 1.394 . S
C831 C832 1.383 . S
C831 H839 0.929 . S
C832 C831 1.383 . S
C832 C833 1.377 . S
C833 H817 0.930 . S
C833 C832 1.377 . S
C833 C834 1.379 . S
C834 H818 0.931 . S
C834 C828 1.383 . S
C834 C833 1.379 . S
H835 C829 0.959 . S
H836 C829 0.961 . S
H837 C829 0.960 . S
H838 C830 0.930 . S
H839 C831 0.929 . S
H840 C848 0.929 . S
H841 C850 0.930 . S
H842 C852 0.930 . S
H843 C855 0.929 . S
H844 C858 0.930 . S
H845 C860 0.960 . S
H846 C860 0.960 . S
H847 C860 0.960 . S
C848 H840 0.929 . S
C848 C849 1.377 . S
C848 C850 1.384 . S
C849 C848 1.377 . S
C849 C855 1.390 . S
C850 H841 0.930 . S
C850 C848 1.384 . S
C850 C851 1.372 . S
C851 C850 1.372 . S
C851 C852 1.400 . S
C851 C856 1.490 . S
C852 H842 0.930 . S
C852 C851 1.400 . S
C852 C855 1.386 . S
H853 C869 0.930 . S
H854 C870 0.931 . S
C855 H843 0.929 . S
C855 C849 1.390 . S
C855 C852 1.386 . S
C856 C851 1.490 . S
C856 C858 1.395 . S
C856 C859 1.403 . S
H857 C863 0.930 . S
C858 H844 0.930 . S
C858 C856 1.395 . S
C858 C861 1.403 . S
C859 C856 1.403 . S
C859 C860 1.524 . S
C859 C863 1.400 . S
C860 H845 0.960 . S
C860 H846 0.960 . S
C860 H847 0.960 . S
C860 C859 1.524 . S
C861 C858 1.403 . S
C861 C862 1.392 . S
C861 C865 1.495 . S
C862 C861 1.392 . S
C862 C863 1.385 . S
C862 C864 1.478 . S
C863 H857 0.930 . S
C863 C859 1.400 . S
C863 C862 1.385 . S
C864 C862 1.478 . S
C864 C866 1.381 . S
C864 C870 1.383 . S
C865 C861 1.495 . S
C865 H871 0.959 . S
C865 H872 0.961 . S
C865 H873 0.960 . S
C866 C864 1.381 . S
C866 C867 1.394 . S
C866 H874 0.930 . S
C867 C866 1.394 . S
C867 C868 1.383 . S
C867 H875 0.929 . S
C868 C867 1.383 . S
C868 C869 1.377 . S
C869 H853 0.930 . S
C869 C868 1.377 . S
C869 C870 1.379 . S
C870 H854 0.931 . S
C870 C864 1.383 . S
C870 C869 1.379 . S
H871 C865 0.959 . S
H872 C865 0.961 . S
H873 C865 0.960 . S
H874 C866 0.930 . S
H875 C867 0.929 . S
H876 C884 0.929 . S
H877 C886 0.930 . S
H878 C888 0.930 . S
H879 C891 0.929 . S
H880 C894 0.930 . S
H881 C896 0.960 . S
H882 C896 0.960 . S
H883 C896 0.960 . S
C884 H876 0.929 . S
C884 C885 1.377 . S
C884 C886 1.384 . S
C885 C884 1.377 . S
C885 C891 1.390 . S
C886 H877 0.930 . S
C886 C884 1.384 . S
C886 C887 1.372 . S
C887 C886 1.372 . S
C887 C888 1.400 . S
C887 C892 1.490 . S
C888 H878 0.930 . S
C888 C887 1.400 . S
C888 C891 1.386 . S
H889 C905 0.930 . S
H890 C906 0.931 . S
C891 H879 0.929 . S
C891 C885 1.390 . S
C891 C888 1.386 . S
C892 C887 1.490 . S
C892 C894 1.395 . S
C892 C895 1.403 . S
H893 C899 0.930 . S
C894 H880 0.930 . S
C894 C892 1.395 . S
C894 C897 1.403 . S
C895 C892 1.403 . S
C895 C896 1.524 . S
C895 C899 1.400 . S
C896 H881 0.960 . S
C896 H882 0.960 . S
C896 H883 0.960 . S
C896 C895 1.524 . S
C897 C894 1.403 . S
C897 C898 1.392 . S
C897 C901 1.495 . S
C898 C897 1.392 . S
C898 C899 1.385 . S
C898 C900 1.478 . S
C899 H893 0.930 . S
C899 C895 1.400 . S
C899 C898 1.385 . S
C900 C898 1.478 . S
C900 C902 1.381 . S
C900 C906 1.383 . S
C901 C897 1.495 . S
C901 H907 0.959 . S
C901 H908 0.961 . S
C901 H909 0.960 . S
C902 C900 1.381 . S
C902 C903 1.394 . S
C902 H910 0.930 . S
C903 C902 1.394 . S
C903 C904 1.383 . S
C903 H911 0.929 . S
C904 C903 1.383 . S
C904 C905 1.377 . S
C905 H889 0.930 . S
C905 C904 1.377 . S
C905 C906 1.379 . S
C906 H890 0.931 . S
C906 C900 1.383 . S
C906 C905 1.379 . S
H907 C901 0.959 . S
H908 C901 0.961 . S
H909 C901 0.960 . S
H910 C902 0.930 . S
H911 C903 0.929 . S
H912 C920 0.929 . S
H913 C922 0.930 . S
H914 C924 0.930 . S
H915 C927 0.929 . S
H916 C930 0.930 . S
H917 C932 0.960 . S
H918 C932 0.960 . S
H919 C932 0.960 . S
C920 H912 0.929 . S
C920 C921 1.377 . S
C920 C922 1.384 . S
C921 C920 1.377 . S
C921 C927 1.390 . S
C922 H913 0.930 . S
C922 C920 1.384 . S
C922 C923 1.372 . S
C923 C922 1.372 . S
C923 C924 1.400 . S
C923 C928 1.490 . S
C924 H914 0.930 . S
C924 C923 1.400 . S
C924 C927 1.386 . S
H925 C941 0.930 . S
H926 C942 0.931 . S
C927 H915 0.929 . S
C927 C921 1.390 . S
C927 C924 1.386 . S
C928 C923 1.490 . S
C928 C930 1.395 . S
C928 C931 1.403 . S
H929 C935 0.930 . S
C930 H916 0.930 . S
C930 C928 1.395 . S
C930 C933 1.403 . S
C931 C928 1.403 . S
C931 C932 1.524 . S
C931 C935 1.400 . S
C932 H917 0.960 . S
C932 H918 0.960 . S
C932 H919 0.960 . S
C932 C931 1.524 . S
C933 C930 1.403 . S
C933 C934 1.392 . S
C933 C937 1.495 . S
C934 C933 1.392 . S
C934 C935 1.385 . S
C934 C936 1.478 . S
C935 H929 0.930 . S
C935 C931 1.400 . S
C935 C934 1.385 . S
C936 C934 1.478 . S
C936 C938 1.381 . S
C936 C942 1.383 . S
C937 C933 1.495 . S
C937 H943 0.959 . S
C937 H944 0.961 . S
C937 H945 0.960 . S
C938 C936 1.381 . S
C938 C939 1.394 . S
C938 H946 0.930 . S
C939 C938 1.394 . S
C939 C940 1.383 . S
C939 H947 0.929 . S
C940 C939 1.383 . S
C940 C941 1.377 . S
C941 H925 0.930 . S
C941 C940 1.377 . S
C941 C942 1.379 . S
C942 H926 0.931 . S
C942 C936 1.383 . S
C942 C941 1.379 . S
H943 C937 0.959 . S
H944 C937 0.961 . S
H945 C937 0.960 . S
H946 C938 0.930 . S
H947 C939 0.929 . S
H948 C956 0.929 . S
H949 C958 0.930 . S
H950 C960 0.930 . S
H951 C963 0.929 . S
H952 C966 0.930 . S
H953 C968 0.960 . S
H954 C968 0.960 . S
H955 C968 0.960 . S
C956 H948 0.929 . S
C956 C957 1.377 . S
C956 C958 1.384 . S
C957 C956 1.377 . S
C957 C963 1.390 . S
C958 H949 0.930 . S
C958 C956 1.384 . S
C958 C959 1.372 . S
C959 C958 1.372 . S
C959 C960 1.400 . S
C959 C964 1.490 . S
C960 H950 0.930 . S
C960 C959 1.400 . S
C960 C963 1.386 . S
H961 C977 0.930 . S
H962 C978 0.931 . S
C963 H951 0.929 . S
C963 C957 1.390 . S
C963 C960 1.386 . S
C964 C959 1.490 . S
C964 C966 1.395 . S
C964 C967 1.403 . S
H965 C971 0.930 . S
C966 H952 0.930 . S
C966 C964 1.395 . S
C966 C969 1.403 . S
C967 C964 1.403 . S
C967 C968 1.524 . S
C967 C971 1.400 . S
C968 H953 0.960 . S
C968 H954 0.960 . S
C968 H955 0.960 . S
C968 C967 1.524 . S
C969 C966 1.403 . S
C969 C970 1.392 . S
C969 C973 1.495 . S
C970 C969 1.392 . S
C970 C971 1.385 . S
C970 C972 1.478 . S
C971 H965 0.930 . S
C971 C967 1.400 . S
C971 C970 1.385 . S
C972 C970 1.478 . S
C972 C974 1.381 . S
C972 C978 1.383 . S
C973 C969 1.495 . S
C973 H979 0.959 . S
C973 H980 0.961 . S
C973 H981 0.960 . S
C974 C972 1.381 . S
C974 C975 1.394 . S
C974 H982 0.930 . S
C975 C974 1.394 . S
C975 C976 1.383 . S
C975 H983 0.929 . S
C976 C975 1.383 . S
C976 C977 1.377 . S
C977 H961 0.930 . S
C977 C976 1.377 . S
C977 C978 1.379 . S
C978 H962 0.931 . S
C978 C972 1.383 . S
C978 C977 1.379 . S
H979 C973 0.959 . S
H980 C973 0.961 . S
H981 C973 0.960 . S
H982 C974 0.930 . S
H983 C975 0.929 . S
H984 C992 0.929 . S
H985 C994 0.930 . S
H986 C996 0.930 . S
H987 C999 0.929 . S
H988 C1002 0.930 . S
H989 C1004 0.960 . S
H990 C1004 0.960 . S
H991 C1004 0.960 . S
C992 H984 0.929 . S
C992 C993 1.377 . S
C992 C994 1.384 . S
C993 C992 1.377 . S
C993 C999 1.390 . S
C994 H985 0.930 . S
C994 C992 1.384 . S
C994 C995 1.372 . S
C995 C994 1.372 . S
C995 C996 1.400 . S
C995 C1000 1.490 . S
C996 H986 0.930 . S
C996 C995 1.400 . S
C996 C999 1.386 . S
H997 C1013 0.930 . S
H998 C1014 0.931 . S
C999 H987 0.929 . S
C999 C993 1.390 . S
C999 C996 1.386 . S
C1000 C995 1.490 . S
C1000 C1002 1.395 . S
C1000 C1003 1.403 . S
H1001 C1007 0.930 . S
C1002 H988 0.930 . S
C1002 C1000 1.395 . S
C1002 C1005 1.403 . S
C1003 C1000 1.403 . S
C1003 C1004 1.524 . S
C1003 C1007 1.400 . S
C1004 H989 0.960 . S
C1004 H990 0.960 . S
C1004 H991 0.960 . S
C1004 C1003 1.524 . S
C1005 C1002 1.403 . S
C1005 C1006 1.392 . S
C1005 C1009 1.495 . S
C1006 C1005 1.392 . S
C1006 C1007 1.385 . S
C1006 C1008 1.478 . S
C1007 H1001 0.930 . S
C1007 C1003 1.400 . S
C1007 C1006 1.385 . S
C1008 C1006 1.478 . S
C1008 C1010 1.381 . S
C1008 C1014 1.383 . S
C1009 C1005 1.495 . S
C1009 H1015 0.959 . S
C1009 H1016 0.961 . S
C1009 H1017 0.960 . S
C1010 C1008 1.381 . S
C1010 C1011 1.394 . S
C1010 H1018 0.930 . S
C1011 C1010 1.394 . S
C1011 C1012 1.383 . S
C1011 H1019 0.929 . S
C1012 C1011 1.383 . S
C1012 C1013 1.377 . S
C1013 H997 0.930 . S
C1013 C1012 1.377 . S
C1013 C1014 1.379 . S
C1014 H998 0.931 . S
C1014 C1008 1.383 . S
C1014 C1013 1.379 . S
H1015 C1009 0.959 . S
H1016 C1009 0.961 . S
H1017 C1009 0.960 . S
H1018 C1010 0.930 . S
H1019 C1011 0.929 . S
C165 C8 0.444 . S
C184 C138 0.534 . S
C201 C151 1.035 . S
C220 C21 0.717 . S
C237 C86 0.667 . S
C256 C34 1.009 . S
C273 C47 0.443 . S
C292 C99 0.521 . S
C309 C60 1.263 . S
C328 C112 1.067 . S
C345 C125 1.248 . S
C364 C73 1.134 . S
C381 C5 0.602 . S
C400 C96 0.621 . S
C417 C109 1.247 . S
C436 C18 0.979 . S
C453 C122 0.510 . S
C472 C31 0.467 . S
C489 C44 0.606 . S
C508 C135 0.642 . S
C525 C148 0.527 . S
C544 C57 0.433 . S
C561 C70 1.248 . S
C580 C83 0.967 . S
C597 C49 0.642 . S
C616 C10 0.679 . S
C633 C62 0.629 . S
C652 C23 0.508 . S
C669 C75 0.615 . S
C688 C36 0.863 . S
C705 C88 0.460 . S
C724 C127 0.599 . S
C741 C101 0.639 . S
C760 C140 0.747 . S
C777 C114 0.636 . S
C796 C153 0.785 . S
C813 C104 1.368 . S
C832 C0 1.344 . S
C849 C117 1.634 . S
C868 C13 1.454 . S
C885 C130 1.400 . S
C904 C26 1.417 . S
C921 C143 1.409 . S
C940 C39 1.372 . S
C957 C78 1.494 . S
C976 C52 1.606 . S
C993 C65 1.366 . S
C1012 C91 1.366 . S
