# Generated by pormake.
# Topology smm, (6)-cn, num edge types: 1
# Building blocks:
#     Node 0, Type 0, BuildingBlock: PAMTOO_clean_sbu_0, # of connection points: 6
#     Node 1, Type 0, BuildingBlock: PAMTOO_clean_sbu_0, # of connection points: 6
#     Node 2, Type 0, BuildingBlock: PAMTOO_clean_sbu_0, # of connection points: 6
#     Node 3, Type 0, BuildingBlock: PAMTOO_clean_sbu_0, # of connection points: 6
#     Node 4, Type 0, BuildingBlock: PAMTOO_clean_sbu_0, # of connection points: 6
#     Node 5, Type 0, BuildingBlock: PAMTOO_clean_sbu_0, # of connection points: 6
#     Node 6, Type 0, BuildingBlock: PAMTOO_clean_sbu_0, # of connection points: 6
#     Node 7, Type 0, BuildingBlock: PAMTOO_clean_sbu_0, # of connection points: 6
#     Node 8, Type 0, BuildingBlock: PAMTOO_clean_sbu_0, # of connection points: 6
#     Edge 9, Type (0, 0), BuildingBlock: XIVTED_clean_linker_0, # of connection points: 2
#     Edge 10, Type (0, 0), BuildingBlock: XIVTED_clean_linker_0, # of connection points: 2
#     Edge 11, Type (0, 0), BuildingBlock: XIVTED_clean_linker_0, # of connection points: 2
#     Edge 12, Type (0, 0), BuildingBlock: XIVTED_clean_linker_0, # of connection points: 2
#     Edge 13, Type (0, 0), BuildingBlock: XIVTED_clean_linker_0, # of connection points: 2
#     Edge 14, Type (0, 0), BuildingBlock: XIVTED_clean_linker_0, # of connection points: 2
#     Edge 15, Type (0, 0), BuildingBlock: XIVTED_clean_linker_0, # of connection points: 2
#     Edge 16, Type (0, 0), BuildingBlock: XIVTED_clean_linker_0, # of connection points: 2
#     Edge 17, Type (0, 0), BuildingBlock: XIVTED_clean_linker_0, # of connection points: 2
#     Edge 18, Type (0, 0), BuildingBlock: XIVTED_clean_linker_0, # of connection points: 2
#     Edge 19, Type (0, 0), BuildingBlock: XIVTED_clean_linker_0, # of connection points: 2
#     Edge 20, Type (0, 0), BuildingBlock: XIVTED_clean_linker_0, # of connection points: 2
#     Edge 21, Type (0, 0), BuildingBlock: XIVTED_clean_linker_0, # of connection points: 2
#     Edge 22, Type (0, 0), BuildingBlock: XIVTED_clean_linker_0, # of connection points: 2
#     Edge 23, Type (0, 0), BuildingBlock: XIVTED_clean_linker_0, # of connection points: 2
#     Edge 24, Type (0, 0), BuildingBlock: XIVTED_clean_linker_0, # of connection points: 2
#     Edge 25, Type (0, 0), BuildingBlock: XIVTED_clean_linker_0, # of connection points: 2
#     Edge 26, Type (0, 0), BuildingBlock: XIVTED_clean_linker_0, # of connection points: 2
#     Edge 27, Type (0, 0), BuildingBlock: XIVTED_clean_linker_0, # of connection points: 2
#     Edge 28, Type (0, 0), BuildingBlock: XIVTED_clean_linker_0, # of connection points: 2
#     Edge 29, Type (0, 0), BuildingBlock: XIVTED_clean_linker_0, # of connection points: 2
#     Edge 30, Type (0, 0), BuildingBlock: XIVTED_clean_linker_0, # of connection points: 2
#     Edge 31, Type (0, 0), BuildingBlock: XIVTED_clean_linker_0, # of connection points: 2
#     Edge 32, Type (0, 0), BuildingBlock: XIVTED_clean_linker_0, # of connection points: 2
#     Edge 33, Type (0, 0), BuildingBlock: XIVTED_clean_linker_0, # of connection points: 2
#     Edge 34, Type (0, 0), BuildingBlock: XIVTED_clean_linker_0, # of connection points: 2
#     Edge 35, Type (0, 0), BuildingBlock: XIVTED_clean_linker_0, # of connection points: 2
# Relax obj value: 0.051
# Max RMSD: 0.133
# Mean RMSD: 0.133
data_MOF--net-smm--node1-PAMTOO_clean_sbu_0--edge1-XIVTED_clean_linker_0
_symmetry_space_group_name_H-M    P1
_symmetry_Int_Tables_number       1
_symmetry_cell_setting            triclinic
loop_
_symmetry_equiv_pos_as_xyz
'x, y, z'
_cell_length_a     71.027344
_cell_length_b     71.008825
_cell_length_c     14.65311
_cell_angle_alpha  90.014763
_cell_angle_beta   90.003576
_cell_angle_gamma 120.07135
loop_
_atom_site_label
_atom_site_type_symbol
_atom_site_fract_x
_atom_site_fract_y
_atom_site_fract_z
_atom_type_partial_charge
Dy0 Dy 1.01451 0.17037 0.03323 0.0
Dy1 Dy 0.0567 0.22101 0.00514 0.0
C2 C 0.038 0.2013 0.19641 0.0
O3 O 1.00254 0.19317 0.07138 0.0
O4 O 0.0274 0.22467 -0.00339 0.0
O5 O 1.00343 0.14066 0.10923 0.0
O6 O 0.98129 0.14402 0.01809 0.0
O7 O 0.04105 0.21154 0.86858 0.0
O8 O 1.0104 0.17756 0.89006 0.0
O9 O 0.0684 0.1975 0.02938 0.0
O10 O 0.04059 0.1672 0.96352 0.0
O11 O 0.08434 0.24346 0.92415 0.0
O12 O 0.07954 0.25272 0.05951 0.0
C13 C 1.00865 0.21272 0.03846 0.0
O14 O 0.03453 0.1832 0.15853 0.0
O15 O 0.04537 0.21895 0.14758 0.0
C16 C 0.97569 0.10827 0.03948 0.0
C17 C 0.95651 0.06352 -0.00328 0.0
C18 C 0.97728 0.07478 0.03689 0.0
C19 C 0.98676 0.09689 0.05812 0.0
C20 C 0.95523 0.09718 -0.00287 0.0
C21 C 0.94579 0.0751 -0.02442 0.0
C22 C 0.9843 0.13096 0.07082 0.0
C23 C 0.02266 0.19481 0.84023 0.0
C24 C 0.06085 0.17835 -0.00909 0.0
C25 C 0.09836 0.28115 0.95306 0.0
C26 C 0.11467 0.32424 0.89133 0.0
C27 C 0.09683 0.30676 0.84731 0.0
C28 C 0.08873 0.28535 0.8779 0.0
C29 C 0.11578 0.29855 -0.00195 0.0
C30 C 0.12385 0.31985 0.96773 0.0
C31 C 0.09115 0.2589 -0.01485 0.0
H32 H 0.98589 0.06634 0.05517 0.0
H33 H 1.00249 0.10488 0.09141 0.0
H34 H 0.94627 0.10547 -0.01752 0.0
H35 H 0.92994 0.06704 0.94338 0.0
H36 H 0.08948 0.30958 0.78799 0.0
H37 H 0.0752 0.27213 0.8423 0.0
H38 H 0.12334 0.29563 0.05646 0.0
H39 H 0.1373 0.33292 0.00435 0.0
Dy40 Dy 0.88888 0.86242 0.03223 0.0
Dy41 Dy 0.83856 0.85435 -0.00116 0.0
C42 C 0.85891 0.8592 0.19167 0.0
O43 O 0.86549 0.82836 0.0778 0.0
O44 O 0.83374 0.82086 0.00323 0.0
O45 O 0.91862 0.88144 0.10751 0.0
O46 O 0.9143 0.85406 0.02619 0.0
O47 O 0.84745 0.84523 0.86722 0.0
O48 O 0.88252 0.85137 0.88835 0.0
O49 O 0.86263 0.89001 0.00936 0.0
O50 O 0.89322 0.89109 0.95354 0.0
O51 O 0.81616 0.85824 0.91196 0.0
O52 O 0.80738 0.84751 0.05204 0.0
C53 C 0.8457 0.81457 0.04821 0.0
O54 O 0.87667 0.87303 0.14936 0.0
O55 O 0.84104 0.84789 0.14513 0.0
C56 C 0.95023 0.88331 0.04661 0.0
C57 C 0.99465 0.90898 0.00151 0.0
C58 C 0.97949 0.91482 0.97069 0.0
C59 C 0.95743 0.90206 -0.00702 0.0
C60 C 0.96518 0.87722 0.07591 0.0
C61 C 0.98718 0.88991 0.05362 0.0
C62 C 0.92753 0.87049 0.07704 0.0
C63 C 0.86484 0.84478 0.83917 0.0
C64 C 0.88202 0.90073 0.97183 0.0
C65 C 0.77844 0.83552 0.94596 0.0
C66 C 0.73473 0.80834 0.89202 0.0
C67 C 0.7519 0.81133 0.83451 0.0
C68 C 0.77357 0.8248 0.8612 0.0
C69 C 0.76135 0.83217 0.00401 0.0
C70 C 0.73976 0.8187 -0.0224 0.0
C71 C 0.80094 0.85113 0.97405 0.0
H72 H 0.98468 0.92928 0.92963 0.0
H73 H 0.94607 0.907 0.9696 0.0
H74 H 0.95991 0.86286 0.11781 0.0
H75 H 0.99842 0.8851 0.07966 0.0
H76 H 0.7486 0.80373 0.76786 0.0
H77 H 0.78645 0.8271 0.81494 0.0
H78 H 0.76471 0.84027 0.06966 0.0
H79 H 0.72698 0.81645 0.02433 0.0
Dy80 Dy 0.19789 0.05048 0.01258 0.0
Dy81 Dy 0.20408 1.00166 0.96286 0.0
C82 C 0.20069 1.01217 0.15103 0.0
O83 O 0.23316 0.05975 0.02567 0.0
O84 O 0.23691 0.02863 0.00711 0.0
O85 O 0.18147 0.05686 0.12197 0.0
O86 O 0.20659 0.08357 0.04254 0.0
O87 O 0.202 0.02792 0.89495 0.0
O88 O 0.19923 0.05557 0.86007 0.0
O89 O 0.16844 0.99136 0.9622 0.0
O90 O 0.16503 0.02276 0.97421 0.0
O91 O 0.21827 0.99604 0.84357 0.0
O92 O 0.19707 0.96898 0.93254 0.0
C93 C 0.24469 0.04963 0.02506 0.0
O94 O 0.19979 0.02482 0.08883 0.0
O95 O 0.20287 0.99653 0.11523 0.0
C96 C 0.17691 0.08735 0.09191 0.0
C97 C 0.1506 0.10636 0.06531 0.0
C98 C 0.14134 0.08464 0.09458 0.0
C99 C 0.15435 0.07522 0.10779 0.0
C100 C 0.18617 0.10912 0.06402 0.0
C101 C 0.17318 0.11847 0.05031 0.0
C102 C 0.19098 0.07764 0.10266 0.0
C103 C 0.20109 0.03951 0.82804 0.0
C104 C 0.15693 1.00148 0.96379 0.0
C105 C 0.22455 0.96633 0.852 0.0
C106 C 0.25188 0.9486 0.82601 0.0
C107 C 0.26048 0.97007 0.85772 0.0
C108 C 0.2469 0.97886 0.87092 0.0
C109 C 0.21594 0.94492 0.82098 0.0
C110 C 0.22945 0.9361 0.80822 0.0
C111 C 0.20997 0.97532 0.86146 0.0
H112 H 0.12406 0.07496 0.10817 0.0
H113 H 0.14669 0.05844 0.13004 0.0
H114 H 0.20351 0.11889 0.05169 0.0
H115 H 0.18084 0.13513 0.02655 0.0
H116 H 0.27765 0.98002 0.87289 0.0
H117 H 0.25387 0.99543 0.89534 0.0
H118 H 0.19875 0.93505 0.80562 0.0
H119 H 0.22237 0.91963 0.78255 0.0
Dy120 Dy 0.68091 0.5035 0.38146 0.0
Dy121 Dy 0.72243 0.55441 0.34766 0.0
C122 C 0.70731 0.53393 0.54101 0.0
O123 O 0.66985 0.52656 0.42739 0.0
O124 O 0.69298 0.55787 0.34768 0.0
O125 O 0.6712 0.47346 0.45291 0.0
O126 O 0.64713 0.47787 0.37999 0.0
O127 O 0.70457 0.54473 0.21568 0.0
O128 O 0.67592 0.50945 0.23743 0.0
O129 O 0.73467 0.53104 0.36307 0.0
O130 O 0.70599 0.50022 0.30387 0.0
O131 O 0.75009 0.57594 0.26379 0.0
O132 O 0.74469 0.58695 0.39428 0.0
C133 C 0.67509 0.54593 0.39493 0.0
O134 O 0.7036 0.51622 0.49891 0.0
O135 O 0.7138 0.55182 0.49454 0.0
C136 C 0.64032 0.44181 0.39797 0.0
C137 C 0.62002 0.39732 0.35116 0.0
C138 C 0.61098 0.40465 0.41808 0.0
C139 C 0.62103 0.42666 0.44107 0.0
C140 C 0.64948 0.43475 0.33077 0.0
C141 C 0.63939 0.41264 0.30755 0.0
C142 C 0.65093 0.46462 0.42771 0.0
C143 C 0.68685 0.52712 0.18791 0.0
C144 C 0.72665 0.51172 0.32533 0.0
C145 C 0.76323 0.61376 0.28039 0.0
C146 C 0.77922 0.65673 0.21789 0.0
C147 C 0.79149 0.64633 0.20664 0.0
C148 C 0.78358 0.62509 0.2377 0.0
C149 C 0.7505 0.62371 0.28889 0.0
C150 C 0.75843 0.64504 0.25784 0.0
C151 C 0.75644 0.59224 0.32018 0.0
H152 H 0.59634 0.39331 0.45434 0.0
H153 H 0.61386 0.43182 0.49371 0.0
H154 H 0.66445 0.44627 0.29697 0.0
H155 H 0.64669 0.40757 0.25525 0.0
H156 H 0.80736 0.65469 0.17454 0.0
H157 H 0.79359 0.61764 0.23012 0.0
H158 H 0.73468 0.61523 0.32142 0.0
H159 H 0.74861 0.65261 0.26792 0.0
Dy160 Dy 0.55494 0.19659 0.35667 0.0
Dy161 Dy 0.50482 0.18877 0.32067 0.0
C162 C 0.52445 0.19289 0.51483 0.0
O163 O 0.53127 0.16246 0.39991 0.0
O164 O 0.50022 0.15534 0.32067 0.0
O165 O 0.58443 0.21527 0.43388 0.0
O166 O 0.58028 0.18812 0.35136 0.0
O167 O 0.51433 0.18042 0.18875 0.0
O168 O 0.54908 0.1859 0.21217 0.0
O169 O 0.52891 0.22441 0.33513 0.0
O170 O 0.55956 0.22554 0.27967 0.0
O171 O 0.48333 0.19434 0.23419 0.0
O172 O 0.47286 0.18029 0.36896 0.0
C173 C 0.51181 0.1488 0.36691 0.0
O174 O 0.5424 0.2068 0.47395 0.0
O175 O 0.50673 0.18183 0.46696 0.0
C176 C 0.61614 0.21731 0.37341 0.0
C177 C 0.66056 0.24303 0.32869 0.0
C178 C 0.6454 0.24888 0.29795 0.0
C179 C 0.62334 0.23609 0.32003 0.0
C180 C 0.63109 0.21122 0.40273 0.0
C181 C 0.65309 0.22393 0.38061 0.0
C182 C 0.5934 0.20439 0.40316 0.0
C183 C 0.53168 0.17979 0.16163 0.0
C184 C 0.54845 0.23523 0.29885 0.0
C185 C 0.44551 0.17067 0.25664 0.0
C186 C 0.40215 0.14303 0.19984 0.0
C187 C 0.41436 0.13429 0.23765 0.0
C188 C 0.43589 0.14801 0.26586 0.0
C189 C 0.43365 0.17935 0.21621 0.0
C190 C 0.41223 0.1657 0.18792 0.0
C191 C 0.46736 0.18574 0.29275 0.0
H192 H 0.6506 0.26336 0.25704 0.0
H193 H 0.61198 0.24101 0.29661 0.0
H194 H 0.6258 0.19682 0.44439 0.0
H195 H 0.66434 0.21912 0.40654 0.0
H196 H 0.40708 0.11692 0.24815 0.0
H197 H 0.44482 0.14097 0.29665 0.0
H198 H 0.44085 0.19679 0.20804 0.0
H199 H 0.40348 0.17295 0.15728 0.0
Dy200 Dy 0.86401 0.38415 0.33676 0.0
Dy201 Dy 0.86968 0.33506 0.2868 0.0
C202 C 0.86666 0.34571 0.47554 0.0
O203 O 0.89928 0.3933 0.3482 0.0
O204 O 0.90257 0.36191 0.33054 0.0
O205 O 0.84775 0.39079 0.44608 0.0
O206 O 0.87305 0.41732 0.36674 0.0
O207 O 0.86773 0.36146 0.21972 0.0
O208 O 0.86519 0.38916 0.1842 0.0
O209 O 0.83414 0.32497 0.28663 0.0
O210 O 0.831 0.35653 0.2991 0.0
O211 O 0.884 0.32968 0.16682 0.0
O212 O 0.86255 0.30251 0.25485 0.0
C213 C 0.91061 0.38298 0.34748 0.0
O214 O 0.86579 0.35854 0.41414 0.0
O215 O 0.86864 0.32999 0.43914 0.0
C216 C 0.84348 0.42143 0.41563 0.0
C217 C 0.81714 0.44041 0.38929 0.0
C218 C 0.80844 0.41965 0.42884 0.0
C219 C 0.82147 0.41026 0.44205 0.0
C220 C 0.85222 0.44229 0.37746 0.0
C221 C 0.8392 0.45161 0.36394 0.0
C222 C 0.85743 0.41156 0.42666 0.0
C223 C 0.8669 0.373 0.15247 0.0
C224 C 0.82276 0.33522 0.28863 0.0
C225 C 0.89033 0.30007 0.17391 0.0
C226 C 0.91752 0.28215 0.14817 0.0
C227 C 0.91221 0.29129 0.07445 0.0
C228 C 0.89872 0.30011 0.08724 0.0
C229 C 0.89579 0.2912 0.24808 0.0
C230 C 0.90922 0.28225 0.23522 0.0
C231 C 0.87563 0.30894 0.18424 0.0
H232 H 0.7916 0.41074 0.45054 0.0
H233 H 0.81427 0.39425 0.47266 0.0
H234 H 0.86915 0.45139 0.35706 0.0
H235 H 0.84639 0.46751 0.33231 0.0
H236 H 0.91812 0.29122 0.00637 0.0
H237 H 0.89464 0.30682 0.02907 0.0
H238 H 0.88964 0.2911 0.31581 0.0
H239 H 0.91323 0.27555 0.29352 0.0
Dy240 Dy 0.34581 0.83839 0.63968 0.0
Dy241 Dy 0.39061 0.88767 0.62721 0.0
C242 C 0.37195 0.86243 0.81538 0.0
O243 O 0.33653 0.86204 0.69499 0.0
O244 O 0.36316 0.89445 0.6323 0.0
O245 O 0.32049 0.81137 0.71543 0.0
O246 O 0.32102 0.81053 0.56737 0.0
O247 O 0.37702 0.8779 0.48772 0.0
O248 O 0.34106 0.85483 0.52089 0.0
O249 O 0.40116 0.86335 0.64982 0.0
O250 O 0.37248 0.83392 0.58204 0.0
O251 O 0.42008 0.9095 0.55343 0.0
O252 O 0.4129 0.91922 0.68305 0.0
C253 C 0.34438 0.88273 0.67428 0.0
O254 O 0.36309 0.84378 0.77189 0.0
O255 O 0.38113 0.8811 0.77229 0.0
C256 C 0.30408 0.77655 0.64231 0.0
C257 C 0.28703 0.7311 0.64246 0.0
C258 C 0.30299 0.74443 0.70648 0.0
C259 C 0.31145 0.767 0.70651 0.0
C260 C 0.2885 0.76332 0.57761 0.0
C261 C 0.28011 0.74088 0.57744 0.0
C262 C 0.31153 0.80001 0.6418 0.0
C263 C 0.35639 0.86801 0.46534 0.0
C264 C 0.39265 0.84408 0.61169 0.0
C265 C 0.43309 0.94708 0.57596 0.0
C266 C 0.44933 0.9905 0.51929 0.0
C267 C 0.46235 0.98078 0.51387 0.0
C268 C 0.45431 0.9593 0.54209 0.0
C269 C 0.41969 0.95639 0.57854 0.0
C270 C 0.42776 0.97794 0.55048 0.0
C271 C 0.42579 0.92518 0.61249 0.0
H272 H 0.30857 0.73736 0.75778 0.0
H273 H 0.32349 0.77689 0.75714 0.0
H274 H 0.28263 0.77036 0.52734 0.0
H275 H 0.26818 0.73119 0.52608 0.0
H276 H 0.47888 0.98984 0.48847 0.0
H277 H 0.46484 0.95235 0.53907 0.0
H278 H 0.40319 0.94719 0.60415 0.0
H279 H 0.41734 0.98496 0.55603 0.0
Dy280 Dy 0.22633 0.52745 0.68487 0.0
Dy281 Dy 0.17149 0.52061 0.63394 0.0
C282 C 0.18478 0.5237 0.82685 0.0
O283 O 0.20076 0.49191 0.69309 0.0
O284 O 0.16583 0.48812 0.68059 0.0
O285 O 0.24899 0.54359 0.795 0.0
O286 O 0.25142 0.51953 0.71199 0.0
O287 O 0.20021 0.52338 0.56826 0.0
O288 O 0.23075 0.52676 0.53292 0.0
O289 O 0.19614 0.55642 0.63649 0.0
O290 O 0.23109 0.56025 0.64856 0.0
O291 O 0.15192 0.50585 0.51401 0.0
O292 O 0.14548 0.52684 0.60164 0.0
C293 C 0.17912 0.48033 0.69525 0.0
O294 O 0.20019 0.52509 0.77378 0.0
O295 O 0.16742 0.52145 0.7855 0.0
C296 C 0.28389 0.54928 0.76503 0.0
C297 C 0.32899 0.57622 0.73979 0.0
C298 C 0.32088 0.56169 0.81396 0.0
C299 C 0.29848 0.54831 0.82639 0.0
C300 C 0.29182 0.56412 0.69244 0.0
C301 C 0.31419 0.57749 0.67986 0.0
C302 C 0.26048 0.53442 0.77527 0.0
C303 C 0.21274 0.52459 0.50117 0.0
C304 C 0.21777 0.56817 0.6393 0.0
C305 C 0.11543 0.49845 0.52037 0.0
C306 C 0.07033 0.47111 0.49042 0.0
C307 C 0.08553 0.47229 0.42588 0.0
C308 C 0.10782 0.48588 0.44056 0.0
C309 C 0.10029 0.49708 0.58563 0.0
C310 C 0.07797 0.48356 0.57071 0.0
C311 C 0.13904 0.51363 0.53137 0.0
H312 H 0.33184 0.56061 0.86225 0.0
H313 H 0.29256 0.53703 0.8832 0.0
H314 H 0.28068 0.56506 0.6446 0.0
H315 H 0.31989 0.58835 0.62169 0.0
H316 H 0.08018 0.46316 0.36277 0.0
H317 H 0.11913 0.48682 0.38868 0.0
H318 H 0.10562 0.50659 0.6478 0.0
H319 H 0.06667 0.48284 0.62216 0.0
Dy320 Dy 0.52842 0.71084 0.71276 0.0
Dy321 Dy 0.53762 0.66924 0.68346 0.0
C322 C 0.53526 0.68686 0.87562 0.0
O323 O 0.56307 0.72307 0.75396 0.0
O324 O 0.57065 0.6987 0.68069 0.0
O325 O 0.50822 0.72074 0.7839 0.0
O326 O 0.53555 0.74422 0.70357 0.0
O327 O 0.54453 0.68562 0.54833 0.0
O328 O 0.5401 0.71558 0.57001 0.0
O329 O 0.50217 0.65703 0.70429 0.0
O330 O 0.49993 0.68491 0.63851 0.0
O331 O 0.53334 0.64226 0.60009 0.0
O332 O 0.54601 0.6461 0.73776 0.0
C333 C 0.57693 0.71728 0.72329 0.0
O334 O 0.52075 0.69035 0.83689 0.0
O335 O 0.54594 0.67989 0.82713 0.0
C336 C 0.50502 0.74954 0.71634 0.0
C337 C 0.48058 0.7696 0.66865 0.0
C338 C 0.47029 0.74855 0.70635 0.0
C339 C 0.48237 0.73864 0.73008 0.0
C340 C 0.5152 0.77029 0.67633 0.0
C341 C 0.50312 0.78016 0.65235 0.0
C342 C 0.51842 0.74042 0.75075 0.0
C343 C 0.54575 0.70382 0.52032 0.0
C344 C 0.49072 0.66458 0.66482 0.0
C345 C 0.55721 0.62849 0.6316 0.0
C346 C 0.58438 0.61224 0.57476 0.0
C347 C 0.5803 0.62555 0.51644 0.0
C348 C 0.56682 0.6336 0.54456 0.0
C349 C 0.56166 0.61563 0.69038 0.0
C350 C 0.57513 0.60766 0.66252 0.0
C351 C 0.54159 0.63519 0.66165 0.0
H352 H 0.45301 0.74004 0.72089 0.0
H353 H 0.474 0.7227 0.76154 0.0
H354 H 0.53263 0.77915 0.66549 0.0
H355 H 0.51153 0.79624 0.62215 0.0
H356 H 0.58703 0.62925 0.44816 0.0
H357 H 0.56364 0.64348 0.49769 0.0
H358 H 0.55442 0.61148 0.75778 0.0
H359 H 0.57824 0.59782 0.70986 0.0
H360 H 0.15768 0.35525 0.87676 0.0
H361 H 0.13567 0.44909 0.69807 0.0
H362 H 0.09328 0.34501 0.82778 0.0
H363 H 0.19962 0.45801 0.7477 0.0
H364 H 0.1197 0.41089 0.74194 0.0
H365 H 0.17311 0.39284 0.8268 0.0
C366 C 0.14675 0.36093 0.85588 0.0
C367 C 0.12411 0.34695 0.85735 0.0
C368 C 0.13723 0.42122 0.74295 0.0
C369 C 0.14177 0.39011 0.79866 0.0
C370 C 0.1464 0.44307 0.71788 0.0
C371 C 0.16909 0.45691 0.71892 0.0
C372 C 0.15081 0.4131 0.76956 0.0
C373 C 0.18207 0.44806 0.74534 0.0
C374 C 0.1556 0.38241 0.82678 0.0
C375 C 0.11082 0.35515 0.82735 0.0
N376 N 0.17275 0.42679 0.7697 0.0
N377 N 0.11984 0.37622 0.7996 0.0
H378 H 0.71544 0.76959 0.79768 0.0
H379 H 0.59659 0.75608 0.8155 0.0
H380 H 0.70142 0.81668 0.9185 0.0
H381 H 0.61073 0.71079 0.67774 0.0
H382 H 0.63504 0.77845 0.85341 0.0
H383 H 0.67727 0.74785 0.75202 0.0
C384 C 0.70439 0.77543 0.8142 0.0
C385 C 0.71167 0.79496 0.86254 0.0
C386 C 0.62976 0.76366 0.81458 0.0
C387 C 0.6679 0.77005 0.81121 0.0
C388 C 0.60777 0.75086 0.79276 0.0
C389 C 0.60036 0.73148 0.74329 0.0
C390 C 0.64451 0.75706 0.78699 0.0
C391 C 0.61566 0.72558 0.716 0.0
C392 C 0.68257 0.76296 0.78849 0.0
C393 C 0.69651 0.80156 0.88291 0.0
N394 N 0.63699 0.73829 0.73842 0.0
N395 N 0.67539 0.78913 0.85733 0.0
H396 H 0.24402 0.90774 0.86866 0.0
H397 H 0.35407 0.92474 0.64197 0.0
H398 H 0.29228 0.96814 0.74639 0.0
H399 H 0.3053 0.86444 0.76389 0.0
H400 H 0.33228 0.9413 0.68318 0.0
H401 H 0.26688 0.89199 0.83448 0.0
C402 C 0.25943 0.91769 0.83448 0.0
C403 C 0.26619 0.93926 0.80994 0.0
C404 C 0.32637 0.92445 0.70096 0.0
C405 C 0.29255 0.92136 0.77096 0.0
C406 C 0.33879 0.91496 0.67737 0.0
C407 C 0.33148 0.8931 0.69905 0.0
C408 C 0.30648 0.91203 0.74662 0.0
C409 C 0.31158 0.8813 0.74531 0.0
C410 C 0.27253 0.90871 0.81531 0.0
C411 C 0.28651 0.9515 0.76722 0.0
N412 N 0.29978 0.8909 0.76736 0.0
N413 N 0.29892 0.94235 0.7487 0.0
H414 H 0.36865 0.15091 0.22826 0.0
H415 H 0.27667 0.0386 0.01158 0.0
H416 H 0.38227 0.10262 0.11786 0.0
H417 H 0.26611 0.09088 0.09608 0.0
H418 H 0.31493 0.06076 0.05552 0.0
H419 H 0.3306 0.12809 0.18584 0.0
C420 C 0.36368 0.13556 0.19441 0.0
C421 C 0.3788 0.12882 0.17576 0.0
C422 C 0.30421 0.06736 0.06424 0.0
C423 C 0.33496 0.10232 0.12796 0.0
C424 C 0.28233 0.05471 0.03924 0.0
C425 C 0.26806 0.06286 0.04967 0.0
C426 C 0.31186 0.08827 0.1005 0.0
C427 C 0.27643 0.08388 0.08597 0.0
C428 C 0.34188 0.12245 0.17064 0.0
C429 C 0.3712 0.10844 0.13398 0.0
N430 N 0.29771 0.09579 0.11011 0.0
N431 N 0.34982 0.09594 0.11125 0.0
H432 H 0.95442 0.29781 0.04434 0.0
H433 H 0.97113 0.19609 0.13952 0.0
H434 H 0.91221 0.24398 0.21841 0.0
H435 H 1.01428 0.25132 0.97333 0.0
H436 H 0.94899 0.21298 0.16775 0.0
H437 H 0.97631 0.28069 0.01657 0.0
C438 C 0.94972 0.28235 0.07655 0.0
C439 C 0.93142 0.27229 0.13362 0.0
C440 C 0.96329 0.22137 0.12503 0.0
C441 C 0.9565 0.25262 0.10252 0.0
C442 C 0.97591 0.21171 0.10861 0.0
C443 C 0.99461 0.22228 0.0539 0.0
C444 C 0.96938 0.24173 0.08634 0.0
C445 C 1.00004 0.24255 0.01608 0.0
C446 C 0.96228 0.27262 0.06098 0.0
C447 C 0.92631 0.25242 0.1747 0.0
N448 N 0.98749 0.25159 0.03303 0.0
N449 N 0.93875 0.2432 0.15811 0.0
H450 H 0.86497 0.79489 0.13881 0.0
H451 H 0.75879 0.67624 0.13315 0.0
H452 H 0.8045 0.78099 0.01127 0.0
H453 H 0.82086 0.6902 0.24311 0.0
H454 H 0.77476 0.71463 0.09123 0.0
H455 H 0.84869 0.75661 0.17969 0.0
C456 C 0.84828 0.78381 0.11911 0.0
C457 C 0.83612 0.79124 0.07132 0.0
C458 C 0.78488 0.70926 0.12432 0.0
C459 C 0.8173 0.74723 0.11843 0.0
C460 C 0.77574 0.68737 0.14869 0.0
C461 C 0.78852 0.67993 0.19127 0.0
C462 C 0.80693 0.72385 0.14307 0.0
C463 C 0.81046 0.69508 0.209 0.0
C464 C 0.83897 0.7619 0.14259 0.0
C465 C 0.81454 0.77603 0.04794 0.0
N466 N 0.81894 0.71627 0.18493 0.0
N467 N 0.80581 0.75477 0.07185 0.0
H468 H 0.04833 0.4299 0.41851 0.0
H469 H 0.93315 0.42477 0.41342 0.0
H470 H 0.03834 0.48122 0.52083 0.0
H471 H 0.9418 0.37103 0.33318 0.0
H472 H 0.97174 0.44585 0.45066 0.0
H473 H 1.00947 0.40827 0.38437 0.0
C474 C 0.03797 0.43663 0.43371 0.0
C475 C 0.04662 0.45742 0.47258 0.0
C476 C 0.9652 0.42944 0.42493 0.0
C477 C 1.00208 0.43271 0.43395 0.0
C478 C 0.94312 0.41738 0.40326 0.0
C479 C 0.93411 0.39604 0.36969 0.0
C480 C 0.97848 0.42021 0.41265 0.0
C481 C 0.94794 0.38738 0.35885 0.0
C482 C 1.01576 0.42424 0.41458 0.0
C483 C 0.03235 0.46519 0.49189 0.0
N484 N 0.96942 0.39951 0.38003 0.0
N485 N 1.01083 0.45288 0.47206 0.0
H486 H 0.62189 0.63131 0.47195 0.0
H487 H 0.63759 0.52731 0.49597 0.0
H488 H 0.57721 0.57115 0.60671 0.0
H489 H 0.68064 0.58574 0.34639 0.0
H490 H 0.61536 0.5433 0.53691 0.0
H491 H 0.6436 0.61503 0.42422 0.0
C492 C 0.61657 0.61466 0.49114 0.0
C493 C 0.59774 0.60265 0.54398 0.0
C494 C 0.62962 0.55261 0.49487 0.0
C495 C 0.62263 0.58397 0.49022 0.0
C496 C 0.64235 0.54347 0.47134 0.0
C497 C 0.66105 0.55517 0.41755 0.0
C498 C 0.63561 0.57365 0.46465 0.0
C499 C 0.66637 0.57609 0.38796 0.0
C500 C 0.62903 0.60541 0.46422 0.0
C501 C 0.5918 0.5812 0.56757 0.0
N502 N 0.65374 0.58467 0.41206 0.0
N503 N 0.6042 0.57259 0.5407 0.0
H504 H 0.47135 0.1152 0.31993 0.0
H505 H 0.48984 0.02442 0.55982 0.0
H506 H 0.53039 0.12879 0.45985 0.0
H507 H 0.42986 1.00998 0.42656 0.0
H508 H 0.50498 0.06268 0.52115 0.0
H509 H 0.45588 0.07662 0.35621 0.0
C510 C 0.4811 0.11011 0.35806 0.0
C511 C 0.50225 0.12532 0.38674 0.0
C512 C 0.48851 0.05118 0.50019 0.0
C513 C 0.48458 0.08115 0.42857 0.0
C514 C 0.47989 0.02926 0.52172 0.0
C515 C 0.45857 1.01388 0.49587 0.0
C516 C 0.47577 0.0579 0.45236 0.0
C517 C 0.4463 0.02126 0.44845 0.0
C518 C 0.47222 0.08806 0.37884 0.0
C519 C 0.51405 0.11772 0.43617 0.0
N520 N 0.4551 0.04274 0.42806 0.0
N521 N 0.50505 0.0962 0.45543 0.0
H522 H 0.10956 0.08795 -0.00946 0.0
H523 H 0.10385 0.19731 0.03488 0.0
H524 H 0.16039 0.14794 0.10652 0.0
H525 H 0.04927 0.13617 0.9473 0.0
H526 H 0.12563 0.17979 0.0488 0.0
H527 H 0.08777 0.10541 0.96538 0.0
C528 C 0.11611 0.10474 0.01116 0.0
C529 C 0.13691 0.11649 0.05055 0.0
C530 C 0.10892 0.17017 0.0262 0.0
C531 C 0.11218 0.13664 0.0205 0.0
C532 C 0.09645 0.1802 0.01796 0.0
C533 C 0.07463 0.16817 -0.00958 0.0
C534 C 0.09956 0.1479 0.00691 0.0
C535 C 0.06602 0.14607 0.96887 0.0
C536 C 0.10371 0.11472 -0.00386 0.0
C537 C 0.14464 0.1383 0.07456 0.0
N538 N 0.07849 0.1366 -0.02193 0.0
N539 N 0.1323 0.14763 0.0591 0.0
H540 H 0.86332 0.92588 -0.00401 0.0
H541 H 0.97444 0.03911 0.93701 0.0
H542 H 0.92433 0.93014 0.92472 0.0
H543 H 0.9136 0.03322 0.02359 0.0
H544 H 0.95616 0.99949 0.92112 0.0
H545 H 0.88114 0.96542 -0.00698 0.0
C546 C 0.88045 0.93511 -0.02093 0.0
C547 C 0.89236 0.92462 0.96124 0.0
C548 C 0.94681 1.00692 0.94302 0.0
C549 C 0.91298 0.97011 0.95823 0.0
C550 C 0.95725 0.02953 0.95257 0.0
C551 C 0.94557 0.03959 -0.01831 0.0
C552 C 0.92452 0.99424 0.96284 0.0
C553 C 0.92325 0.02631 -0.00039 0.0
C554 C 0.89065 0.95775 -0.02248 0.0
C555 C 0.91451 0.93751 0.93914 0.0
N556 N 0.91352 1.00438 -0.00979 0.0
N557 N 0.92415 0.9596 0.93888 0.0
H558 H 1.01889 0.95356 0.00569 0.0
H559 H 0.13241 0.95728 0.93611 0.0
H560 H 0.02439 0.89657 0.95626 0.0
H561 H 0.12648 0.01443 -0.02502 0.0
H562 H 0.09282 0.93497 0.93498 0.0
H563 H 0.05816 0.97629 -0.01453 0.0
C564 C 0.0283 0.94582 -0.01059 0.0
C565 C 1.01829 0.92308 -0.01697 0.0
C566 C 0.1002 0.95241 0.94322 0.0
C567 C 0.06339 0.94904 0.96117 0.0
C568 C 0.12286 0.9652 0.94388 0.0
C569 C 0.13293 0.98783 0.95624 0.0
C570 C 0.08746 0.96225 0.95529 0.0
C571 C 0.11956 0.99708 0.96553 0.0
C572 C 0.05077 0.95882 -0.02153 0.0
C573 C 0.03143 0.91399 0.96324 0.0
N574 N 0.09756 0.98425 0.9654 0.0
N575 N 0.05329 0.92698 0.95345 0.0
H576 H 0.77042 0.53134 0.35378 0.0
H577 H 0.77458 0.42087 0.33152 0.0
H578 H 0.71446 0.4691 0.28811 0.0
H579 H 0.82841 0.48303 0.41393 0.0
H580 H 0.75262 0.43817 0.30708 0.0
H581 H 0.79246 0.51401 0.36388 0.0
C582 C 0.76277 0.51403 0.34074 0.0
C583 C 0.7405 0.50165 0.32073 0.0
C584 C 0.76926 0.44801 0.33023 0.0
C585 C 0.76571 0.48158 0.33299 0.0
C586 C 0.78177 0.43812 0.34488 0.0
C587 C 0.80342 0.45051 0.37474 0.0
C588 C 0.77847 0.47045 0.34554 0.0
C589 C 0.81193 0.47286 0.38955 0.0
C590 C 0.77539 0.50412 0.34678 0.0
C591 C 0.73156 0.47929 0.30387 0.0
N592 N 0.79945 0.48208 0.37487 0.0
N593 N 0.74418 0.46993 0.31104 0.0
H594 H 0.57641 0.36812 0.33493 0.0
H595 H 0.59135 0.26458 0.26142 0.0
H596 H 0.6392 0.37259 0.31692 0.0
H597 H 0.52984 0.26064 0.31884 0.0
H598 H 0.60893 0.30432 0.26279 0.0
H599 H 0.55898 0.32894 0.3113 0.0
C600 C 0.58656 0.36087 0.32602 0.0
C601 C 0.60934 0.37371 0.32901 0.0
C602 C 0.59157 0.29474 0.27448 0.0
C603 C 0.58938 0.3287 0.30074 0.0
C604 C 0.58148 0.27203 0.27336 0.0
C605 C 0.55907 0.25921 0.29062 0.0
C606 C 0.57914 0.30469 0.29252 0.0
C607 C 0.54717 0.26982 0.30582 0.0
C608 C 0.57657 0.33848 0.31208 0.0
C609 C 0.6216 0.3634 0.3147 0.0
N610 N 0.55735 0.2919 0.30676 0.0
N611 N 0.61147 0.34149 0.30176 0.0
H612 H 0.68483 0.28759 0.33377 0.0
H613 H 0.79811 0.29111 0.25976 0.0
H614 H 0.6902 0.2306 0.28227 0.0
H615 H 0.79245 0.34832 0.30184 0.0
H616 H 0.75853 0.2689 0.25932 0.0
H617 H 0.72409 0.31031 0.31303 0.0
C618 C 0.69421 0.27986 0.31695 0.0
C619 C 0.68418 0.25712 0.31011 0.0
C620 C 0.76596 0.28634 0.26812 0.0
C621 C 0.72924 0.28305 0.2876 0.0
C622 C 0.78861 0.29907 0.26839 0.0
C623 C 0.79875 0.32168 0.28145 0.0
C624 C 0.75329 0.29622 0.28128 0.0
C625 C 0.78546 0.33098 0.29182 0.0
C626 C 0.71667 0.29284 0.3057 0.0
C627 C 0.69726 0.24802 0.28959 0.0
N628 N 0.76346 0.31821 0.29205 0.0
N629 N 0.71911 0.26099 0.27948 0.0
H630 H 0.49354 0.81241 0.70011 0.0
H631 H 0.37977 0.80205 0.55948 0.0
H632 H 0.43911 0.75279 0.59933 0.0
H633 H 0.43544 0.86113 0.65708 0.0
H634 H 0.40142 0.78395 0.56583 0.0
H635 H 0.47273 0.83073 0.6769 0.0
C636 C 0.47729 0.80319 0.67199 0.0
C637 C 0.46814 0.781 0.65133 0.0
C638 C 0.40889 0.80091 0.58534 0.0
C639 C 0.44393 0.80191 0.62608 0.0
C640 C 0.39656 0.81127 0.58152 0.0
C641 C 0.40575 0.83313 0.60824 0.0
C642 C 0.43055 0.81249 0.61605 0.0
C643 C 0.42759 0.84423 0.63633 0.0
C644 C 0.46533 0.81366 0.65936 0.0
C645 C 0.44677 0.76986 0.6171 0.0
N646 N 0.43917 0.83378 0.63981 0.0
N647 N 0.43538 0.78042 0.60572 0.0
H648 H 0.19783 0.59234 0.61105 0.0
H649 H 0.30737 0.70725 0.66999 0.0
H650 H 0.26098 0.59897 0.65733 0.0
H651 H 0.24431 0.70013 0.6177 0.0
H652 H 0.29073 0.66759 0.66704 0.0
H653 H 0.21477 0.63188 0.61181 0.0
C654 C 0.21526 0.60205 0.62103 0.0
C655 C 0.22794 0.59219 0.63433 0.0
C656 C 0.28055 0.67473 0.65609 0.0
C657 C 0.24745 0.63761 0.63582 0.0
C658 C 0.29002 0.69736 0.65841 0.0
C659 C 0.27725 0.70706 0.64359 0.0
C660 C 0.25814 0.66169 0.63916 0.0
C661 C 0.25487 0.69341 0.62792 0.0
C662 C 0.22492 0.62467 0.62158 0.0
C663 C 0.25048 0.60574 0.64673 0.0
N664 N 0.24606 0.67147 0.62608 0.0
N665 N 0.25948 0.62773 0.64747 0.0
H666 H 0.46636 0.62124 0.70311 0.0
H667 H 0.35263 0.61881 0.6836 0.0
H668 H 0.46044 0.6766 0.62339 0.0
H669 H 0.35949 0.56367 0.75699 0.0
H670 H 0.39179 0.63994 0.6548 0.0
H671 H 0.42693 0.59952 0.71548 0.0
C672 C 0.45676 0.6288 0.68747 0.0
C673 C 0.46676 0.65082 0.66267 0.0
C674 C 0.3847 0.62321 0.67712 0.0
C675 C 0.42147 0.62602 0.67749 0.0
C676 C 0.36234 0.61112 0.69331 0.0
C677 C 0.35276 0.58945 0.72323 0.0
C678 C 0.39758 0.61357 0.69089 0.0
C679 C 0.3662 0.58041 0.73561 0.0
C680 C 0.43421 0.61638 0.69472 0.0
C681 C 0.45344 0.65968 0.64277 0.0
N682 N 0.38789 0.59251 0.7195 0.0
N683 N 0.43147 0.64728 0.65127 0.0
H684 H 0.99401 0.16078 0.73322 0.0
H685 H 0.03958 0.23488 0.29421 0.0
H686 H 0.03446 0.23077 0.73616 0.0
H687 H 1.01532 0.16565 0.30435 0.0
H688 H 0.02508 0.23293 0.44746 0.0
H689 H 0.98822 0.16233 0.5695 0.0
C690 C 1.0014 0.17648 0.6997 0.0
C691 C 1.01569 0.19558 0.74672 0.0
C692 C 0.02275 0.21816 0.41544 0.0
C693 C 1.00913 0.19743 0.56102 0.0
C694 C 0.03127 0.21931 0.32871 0.0
C695 C 0.02945 0.20056 0.2883 0.0
C696 C 1.01253 0.19819 0.46186 0.0
C697 C 1.01781 0.18066 0.33439 0.0
C698 C 0.99802 0.17736 0.60655 0.0
C699 C 0.02422 0.21555 0.70109 0.0
N700 N 1.01004 0.18005 0.41934 0.0
N701 N 0.02117 0.21594 0.61008 0.0
H702 H 0.82972 0.81704 0.73714 0.0
H703 H 0.89572 0.87176 0.2916 0.0
H704 H 0.89972 0.85622 0.72707 0.0
H705 H 0.82592 0.83001 0.30057 0.0
H706 H 0.89829 0.85919 0.44302 0.0
H707 H 0.82896 0.813 0.57182 0.0
C708 C 0.84496 0.82455 0.70002 0.0
C709 C 0.86474 0.83783 0.74475 0.0
C710 C 0.88241 0.85265 0.41175 0.0
C711 C 0.86398 0.83368 0.55621 0.0
C712 C 0.88089 0.86006 0.32575 0.0
C713 C 0.86048 0.85244 0.28475 0.0
C714 C 0.86335 0.83783 0.45786 0.0
C715 C 0.84192 0.83676 0.33081 0.0
C716 C 0.84454 0.82218 0.60572 0.0
C717 C 0.88407 0.84641 0.69449 0.0
N718 N 0.84378 0.83019 0.41558 0.0
N719 N 0.88318 0.8447 0.60219 0.0
H720 H 0.19156 1.00098 0.74501 0.0
H721 H 0.20592 0.04872 0.23621 0.0
H722 H 0.20972 0.06733 0.68525 0.0
H723 H 0.19573 0.98474 0.29312 0.0
H724 H 0.20588 0.05518 0.40019 0.0
H725 H 0.19185 0.99409 0.58089 0.0
C726 C 0.19605 1.01421 0.69749 0.0
C727 C 0.20119 0.0349 0.7291 0.0
C728 C 0.2036 0.03969 0.37713 0.0
C729 C 0.20082 0.027 0.54054 0.0
C730 C 0.20348 0.03594 0.28326 0.0
C731 C 0.20063 0.01608 0.25073 0.0
C732 C 0.20076 0.02343 0.43966 0.0
C733 C 0.19796 1.00028 0.31516 0.0
C734 C 0.19595 1.01022 0.60361 0.0
C735 C 0.20582 0.05117 0.66401 0.0
N736 N 0.19803 1.00426 0.40636 0.0
N737 N 0.20555 0.0469 0.57319 0.0
H738 H 0.68311 0.49692 0.63963 0.0
H739 H 0.69319 0.56196 0.08696 0.0
H740 H 0.71076 0.56666 0.65095 0.0
H741 H 0.66413 0.49214 0.07524 0.0
H742 H 0.68975 0.56279 0.92173 0.0
H743 H 0.66776 0.49392 0.79078 0.0
C744 C 0.68613 0.51166 0.67426 0.0
C745 C 0.69887 0.53217 0.634 0.0
C746 C 0.68377 0.54722 0.95526 0.0
C747 C 0.68113 0.52879 0.80693 0.0
C748 C 0.6858 0.54676 0.04947 0.0
C749 C 0.67987 0.52706 0.09365 0.0
C750 C 0.6763 0.52791 0.90529 0.0
C751 C 0.66954 0.50775 0.04304 0.0
C752 C 0.67707 0.50988 0.76012 0.0
C753 C 0.70156 0.55059 0.68066 0.0
N754 N 0.66863 0.5087 0.9508 0.0
N755 N 0.69302 0.54849 0.76537 0.0
H756 H 0.492 0.15986 0.61344 0.0
H757 H 0.56684 0.18983 0.05261 0.0
H758 H 0.56012 0.20882 0.62507 0.0
H759 H 0.49663 0.15346 0.05647 0.0
H760 H 0.56591 0.18545 0.88674 0.0
H761 H 0.49505 0.14758 0.76568 0.0
C762 C 0.50755 0.16812 0.64818 0.0
C763 C 0.52566 0.18586 0.60791 0.0
C764 C 0.55074 0.17807 0.92427 0.0
C765 C 0.52933 0.17163 0.78068 0.0
C766 C 0.55126 0.18054 0.01879 0.0
C767 C 0.53175 0.17291 0.06716 0.0
C768 C 0.53059 0.16801 0.8789 0.0
C769 C 0.51203 0.16046 0.02073 0.0
C770 C 0.50934 0.16091 0.73441 0.0
C771 C 0.54558 0.19548 0.65463 0.0
N772 N 0.51192 0.15877 0.92866 0.0
N773 N 0.54682 0.18838 0.73902 0.0
H774 H 0.87202 0.38222 0.5611 0.0
H775 H 0.85701 0.33432 0.06967 0.0
H776 H 0.86171 0.31817 0.61751 0.0
H777 H 0.87599 0.40087 0.00963 0.0
H778 H 0.85746 0.32741 0.90561 0.0
H779 H 0.87201 0.38864 0.72501 0.0
C780 C 0.86958 0.36941 0.60803 0.0
C781 C 0.86668 0.34955 0.57535 0.0
C782 C 0.86171 0.34358 0.92828 0.0
C783 C 0.86681 0.35686 0.76431 0.0
C784 C 0.86172 0.34758 0.02212 0.0
C785 C 0.86705 0.36834 0.05363 0.0
C786 C 0.86683 0.36042 0.86516 0.0
C787 C 0.87194 0.38466 -0.01151 0.0
C788 C 0.8697 0.37314 0.70188 0.0
C789 C 0.86398 0.33372 0.63967 0.0
N790 N 0.87173 0.38037 0.89773 0.0
N791 N 0.86404 0.33767 0.73091 0.0
H792 H 0.3747 0.9039 0.35835 0.0
H793 H 0.34039 0.82955 0.91807 0.0
H794 H 0.32535 0.83602 0.3597 0.0
H795 H 0.39176 0.89673 0.93103 0.0
H796 H 0.32908 0.83299 0.07197 0.0
H797 H 0.3731 0.90385 0.19216 0.0
C798 C 0.36321 0.8891 0.32322 0.0
C799 C 0.35076 0.86973 0.37129 0.0
C800 C 0.34278 0.84696 0.04081 0.0
C801 C 0.34951 0.86921 0.18272 0.0
C802 C 0.3495 0.84489 0.95386 0.0
C803 C 0.36724 0.86281 0.91249 0.0
C804 C 0.35401 0.86702 0.08645 0.0
C805 C 0.37811 0.88246 0.96073 0.0
C806 C 0.36233 0.88901 0.2286 0.0
C807 C 0.3356 0.85113 0.324 0.0
N808 N 0.37135 0.884 0.0452 0.0
N809 N 0.33585 0.85111 0.23146 0.0
H810 H 0.16034 0.52788 0.9647 0.0
H811 H 0.23233 0.51625 0.36039 0.0
H812 H 0.21563 0.51942 0.91806 0.0
H813 H 0.18322 0.53327 0.41735 0.0
H814 H 0.22502 0.51601 0.19751 0.0
H815 H 0.1667 0.52828 0.13041 0.0
C816 C 0.17373 0.52607 -0.01084 0.0
C817 C 0.18748 0.5237 0.92732 0.0
C818 C 0.21565 0.51964 0.24537 0.0
C819 C 0.19483 0.52406 0.11603 0.0
C820 C 0.21984 0.51976 0.33853 0.0
C821 C 0.20795 0.52423 0.40262 0.0
C822 C 0.19946 0.52409 0.21545 0.0
C823 C 0.19212 0.5289 0.37036 0.0
C824 C 0.17741 0.52636 0.08359 0.0
C825 C 0.20467 0.52149 0.9628 0.0
N826 N 0.18828 0.52866 0.27901 0.0
N827 N 0.20778 0.52168 0.05425 0.0
H828 H 0.53887 0.73139 0.41293 0.0
H829 H 0.56778 0.68626 0.97318 0.0
H830 H 0.57068 0.69313 0.41579 0.0
H831 H 0.52104 0.70822 -0.01492 0.0
H832 H 0.58034 0.70112 0.12594 0.0
H833 H 0.54516 0.73646 0.2484 0.0
C834 C 0.54751 0.72438 0.37923 0.0
C835 C 0.55327 0.71087 0.42661 0.0
C836 C 0.56748 0.70284 0.09448 0.0
C837 C 0.56042 0.71655 0.23994 0.0
C838 C 0.5601 0.69411 0.00801 0.0
C839 C 0.54277 0.69527 0.96802 0.0
C840 C 0.55733 0.71262 0.14114 0.0
C841 C 0.53395 0.70631 0.01465 0.0
C842 C 0.55113 0.72732 0.28556 0.0
C843 C 0.56504 0.70278 0.38058 0.0
N844 N 0.54116 0.71432 0.09933 0.0
N845 N 0.56785 0.70537 0.28914 0.0
loop_
_geom_bond_atom_site_label_1
_geom_bond_atom_site_label_2
_geom_bond_distance
_geom_bond_site_symmetry_2
_ccdc_geom_bond_type
Dy0 O3 2.307 . S
Dy0 O5 2.395 1_556 S
Dy0 O6 2.379 . S
Dy0 O8 2.339 . S
Dy0 O10 2.298 1_655 S
Dy0 O14 2.275 1_656 S
Dy0 C22 2.738 1_556 S
Dy1 O4 2.298 . S
Dy1 O7 2.275 1_554 S
Dy1 O9 2.307 . S
Dy1 O11 2.395 1_554 S
Dy1 O12 2.379 . S
Dy1 O15 2.339 . S
Dy1 C31 2.738 1_554 S
C2 O14 1.254 . S
C2 O15 1.257 . S
O3 Dy0 2.307 . S
O3 C13 1.266 1_556 S
O4 Dy1 2.298 . S
O4 C13 1.236 1_455 S
O5 Dy0 2.395 1_554 S
O5 C22 1.255 . S
O6 Dy0 2.379 . S
O6 C22 1.249 1_556 S
O7 Dy1 2.275 1_556 S
O7 C23 1.254 . S
O8 Dy0 2.339 . S
O8 C23 1.257 1_655 S
O9 Dy1 2.307 . S
O9 C24 1.266 . S
O10 Dy0 2.298 1_455 S
O10 C24 1.236 1_556 S
O11 Dy1 2.395 1_556 S
O11 C31 1.255 . S
O12 Dy1 2.379 . S
O12 C31 1.249 1_554 S
C13 O3 1.266 1_554 S
C13 O4 1.236 1_655 S
O14 Dy0 2.275 1_454 S
O14 C2 1.254 . S
O15 Dy1 2.339 . S
O15 C2 1.257 . S
C16 C19 1.344 . S
C16 C20 1.328 1_554 S
C16 C22 1.516 . S
C17 C18 1.304 . S
C17 C21 1.323 1_554 S
C18 C17 1.304 . S
C18 C19 1.371 . S
C18 H32 0.930 . S
C19 C16 1.344 . S
C19 C18 1.371 . S
C19 H33 0.931 . S
C20 C16 1.328 1_556 S
C20 C21 1.433 . S
C20 H34 0.931 . S
C21 C17 1.323 1_556 S
C21 C20 1.433 . S
C21 H35 0.933 . S
C22 Dy0 2.738 1_554 S
C22 O5 1.255 . S
C22 O6 1.249 1_554 S
C22 C16 1.516 . S
C23 O7 1.254 . S
C23 O8 1.257 1_455 S
C24 O9 1.266 . S
C24 O10 1.236 1_554 S
C25 C28 1.344 . S
C25 C29 1.328 1_556 S
C25 C31 1.516 . S
C26 C27 1.304 . S
C26 C30 1.323 1_556 S
C27 C26 1.304 . S
C27 C28 1.371 . S
C27 H36 0.930 . S
C28 C25 1.344 . S
C28 C27 1.371 . S
C28 H37 0.931 . S
C29 C25 1.328 1_554 S
C29 C30 1.433 . S
C29 H38 0.931 . S
C30 C26 1.323 1_554 S
C30 C29 1.433 . S
C30 H39 0.933 . S
C31 Dy1 2.738 1_556 S
C31 O11 1.255 . S
C31 O12 1.249 1_556 S
C31 C25 1.516 . S
H32 C18 0.930 . S
H33 C19 0.931 . S
H34 C20 0.931 . S
H35 C21 0.933 . S
H36 C27 0.930 . S
H37 C28 0.931 . S
H38 C29 0.931 . S
H39 C30 0.933 . S
Dy40 O43 2.307 . S
Dy40 O45 2.395 1_556 S
Dy40 O46 2.379 . S
Dy40 O48 2.339 . S
Dy40 O50 2.298 . S
Dy40 O54 2.275 1_556 S
Dy40 C62 2.738 1_556 S
Dy41 O44 2.298 . S
Dy41 O47 2.275 1_554 S
Dy41 O49 2.307 . S
Dy41 O51 2.395 1_554 S
Dy41 O52 2.379 . S
Dy41 O55 2.339 . S
Dy41 C71 2.738 1_554 S
C42 O54 1.254 . S
C42 O55 1.257 . S
O43 Dy40 2.307 . S
O43 C53 1.266 1_556 S
O44 Dy41 2.298 . S
O44 C53 1.236 . S
O45 Dy40 2.395 1_554 S
O45 C62 1.255 . S
O46 Dy40 2.379 . S
O46 C62 1.249 1_556 S
O47 Dy41 2.275 1_556 S
O47 C63 1.254 . S
O48 Dy40 2.339 . S
O48 C63 1.257 . S
O49 Dy41 2.307 . S
O49 C64 1.266 . S
O50 Dy40 2.298 . S
O50 C64 1.236 1_556 S
O51 Dy41 2.395 1_556 S
O51 C71 1.255 . S
O52 Dy41 2.379 . S
O52 C71 1.249 1_554 S
C53 O43 1.266 1_554 S
C53 O44 1.236 . S
O54 Dy40 2.275 1_554 S
O54 C42 1.254 . S
O55 Dy41 2.339 . S
O55 C42 1.257 . S
C56 C59 1.344 . S
C56 C60 1.328 1_554 S
C56 C62 1.516 . S
C57 C58 1.304 . S
C57 C61 1.323 1_554 S
C58 C57 1.304 . S
C58 C59 1.371 . S
C58 H72 0.930 . S
C59 C56 1.344 . S
C59 C58 1.371 . S
C59 H73 0.931 . S
C60 C56 1.328 1_556 S
C60 C61 1.433 . S
C60 H74 0.931 . S
C61 C57 1.323 1_556 S
C61 C60 1.433 . S
C61 H75 0.933 . S
C62 Dy40 2.738 1_554 S
C62 O45 1.255 . S
C62 O46 1.249 1_554 S
C62 C56 1.516 . S
C63 O47 1.254 . S
C63 O48 1.257 . S
C64 O49 1.266 . S
C64 O50 1.236 1_554 S
C65 C68 1.344 . S
C65 C69 1.328 1_556 S
C65 C71 1.516 . S
C66 C67 1.304 . S
C66 C70 1.323 1_556 S
C67 C66 1.304 . S
C67 C68 1.371 . S
C67 H76 0.930 . S
C68 C65 1.344 . S
C68 C67 1.371 . S
C68 H77 0.931 . S
C69 C65 1.328 1_554 S
C69 C70 1.433 . S
C69 H78 0.931 . S
C70 C66 1.323 1_554 S
C70 C69 1.433 . S
C70 H79 0.933 . S
C71 Dy41 2.738 1_556 S
C71 O51 1.255 . S
C71 O52 1.249 1_556 S
C71 C65 1.516 . S
H72 C58 0.930 . S
H73 C59 0.931 . S
H74 C60 0.931 . S
H75 C61 0.933 . S
H76 C67 0.930 . S
H77 C68 0.931 . S
H78 C69 0.931 . S
H79 C70 0.933 . S
Dy80 O83 2.307 . S
Dy80 O85 2.395 1_556 S
Dy80 O86 2.379 . S
Dy80 O88 2.339 . S
Dy80 O90 2.298 . S
Dy80 O94 2.275 1_556 S
Dy80 C102 2.738 1_556 S
Dy81 O84 2.298 1_565 S
Dy81 O87 2.275 1_564 S
Dy81 O89 2.307 . S
Dy81 O91 2.395 1_554 S
Dy81 O92 2.379 . S
Dy81 O95 2.339 . S
Dy81 C111 2.738 1_554 S
C82 O94 1.254 . S
C82 O95 1.257 1_545 S
O83 Dy80 2.307 . S
O83 C93 1.266 1_556 S
O84 Dy81 2.298 1_545 S
O84 C93 1.236 . S
O85 Dy80 2.395 1_554 S
O85 C102 1.255 . S
O86 Dy80 2.379 . S
O86 C102 1.249 1_556 S
O87 Dy81 2.275 1_546 S
O87 C103 1.254 . S
O88 Dy80 2.339 . S
O88 C103 1.257 . S
O89 Dy81 2.307 . S
O89 C104 1.266 . S
O90 Dy80 2.298 . S
O90 C104 1.236 1_546 S
O91 Dy81 2.395 1_556 S
O91 C111 1.255 . S
O92 Dy81 2.379 . S
O92 C111 1.249 1_554 S
C93 O83 1.266 1_554 S
C93 O84 1.236 . S
O94 Dy80 2.275 1_554 S
O94 C82 1.254 . S
O95 Dy81 2.339 . S
O95 C82 1.257 1_565 S
C96 C99 1.344 . S
C96 C100 1.328 1_554 S
C96 C102 1.516 . S
C97 C98 1.304 . S
C97 C101 1.323 1_554 S
C98 C97 1.304 . S
C98 C99 1.371 . S
C98 H112 0.930 . S
C99 C96 1.344 . S
C99 C98 1.371 . S
C99 H113 0.931 . S
C100 C96 1.328 1_556 S
C100 C101 1.433 . S
C100 H114 0.931 . S
C101 C97 1.323 1_556 S
C101 C100 1.433 . S
C101 H115 0.933 . S
C102 Dy80 2.738 1_554 S
C102 O85 1.255 . S
C102 O86 1.249 1_554 S
C102 C96 1.516 . S
C103 O87 1.254 . S
C103 O88 1.257 . S
C104 O89 1.266 . S
C104 O90 1.236 1_564 S
C105 C108 1.344 . S
C105 C109 1.328 1_556 S
C105 C111 1.516 . S
C106 C107 1.304 . S
C106 C110 1.323 1_556 S
C107 C106 1.304 . S
C107 C108 1.371 . S
C107 H116 0.930 . S
C108 C105 1.344 . S
C108 C107 1.371 . S
C108 H117 0.931 . S
C109 C105 1.328 1_554 S
C109 C110 1.433 . S
C109 H118 0.931 . S
C110 C106 1.323 1_554 S
C110 C109 1.433 . S
C110 H119 0.933 . S
C111 Dy81 2.738 1_556 S
C111 O91 1.255 . S
C111 O92 1.249 1_556 S
C111 C105 1.516 . S
H112 C98 0.930 . S
H113 C99 0.931 . S
H114 C100 0.931 . S
H115 C101 0.933 . S
H116 C107 0.930 . S
H117 C108 0.931 . S
H118 C109 0.931 . S
H119 C110 0.933 . S
Dy120 O123 2.307 . S
Dy120 O125 2.395 . S
Dy120 O126 2.379 . S
Dy120 O128 2.339 . S
Dy120 O130 2.298 . S
Dy120 O134 2.275 . S
Dy120 C142 2.738 . S
Dy121 O124 2.298 . S
Dy121 O127 2.275 . S
Dy121 O129 2.307 . S
Dy121 O131 2.395 . S
Dy121 O132 2.379 . S
Dy121 O135 2.339 . S
Dy121 C151 2.738 . S
C122 O134 1.254 . S
C122 O135 1.257 . S
O123 Dy120 2.307 . S
O123 C133 1.266 . S
O124 Dy121 2.298 . S
O124 C133 1.236 . S
O125 Dy120 2.395 . S
O125 C142 1.255 . S
O126 Dy120 2.379 . S
O126 C142 1.249 . S
O127 Dy121 2.275 . S
O127 C143 1.254 . S
O128 Dy120 2.339 . S
O128 C143 1.257 . S
O129 Dy121 2.307 . S
O129 C144 1.266 . S
O130 Dy120 2.298 . S
O130 C144 1.236 . S
O131 Dy121 2.395 . S
O131 C151 1.255 . S
O132 Dy121 2.379 . S
O132 C151 1.249 . S
C133 O123 1.266 . S
C133 O124 1.236 . S
O134 Dy120 2.275 . S
O134 C122 1.254 . S
O135 Dy121 2.339 . S
O135 C122 1.257 . S
C136 C139 1.344 . S
C136 C140 1.328 . S
C136 C142 1.516 . S
C137 C138 1.304 . S
C137 C141 1.323 . S
C138 C137 1.304 . S
C138 C139 1.371 . S
C138 H152 0.930 . S
C139 C136 1.344 . S
C139 C138 1.371 . S
C139 H153 0.931 . S
C140 C136 1.328 . S
C140 C141 1.433 . S
C140 H154 0.931 . S
C141 C137 1.323 . S
C141 C140 1.433 . S
C141 H155 0.933 . S
C142 Dy120 2.738 . S
C142 O125 1.255 . S
C142 O126 1.249 . S
C142 C136 1.516 . S
C143 O127 1.254 . S
C143 O128 1.257 . S
C144 O129 1.266 . S
C144 O130 1.236 . S
C145 C148 1.344 . S
C145 C149 1.328 . S
C145 C151 1.516 . S
C146 C147 1.304 . S
C146 C150 1.323 . S
C147 C146 1.304 . S
C147 C148 1.371 . S
C147 H156 0.930 . S
C148 C145 1.344 . S
C148 C147 1.371 . S
C148 H157 0.931 . S
C149 C145 1.328 . S
C149 C150 1.433 . S
C149 H158 0.931 . S
C150 C146 1.323 . S
C150 C149 1.433 . S
C150 H159 0.933 . S
C151 Dy121 2.738 . S
C151 O131 1.255 . S
C151 O132 1.249 . S
C151 C145 1.516 . S
H152 C138 0.930 . S
H153 C139 0.931 . S
H154 C140 0.931 . S
H155 C141 0.933 . S
H156 C147 0.930 . S
H157 C148 0.931 . S
H158 C149 0.931 . S
H159 C150 0.933 . S
Dy160 O163 2.307 . S
Dy160 O165 2.395 . S
Dy160 O166 2.379 . S
Dy160 O168 2.339 . S
Dy160 O170 2.298 . S
Dy160 O174 2.275 . S
Dy160 C182 2.738 . S
Dy161 O164 2.298 . S
Dy161 O167 2.275 . S
Dy161 O169 2.307 . S
Dy161 O171 2.395 . S
Dy161 O172 2.379 . S
Dy161 O175 2.339 . S
Dy161 C191 2.738 . S
C162 O174 1.254 . S
C162 O175 1.257 . S
O163 Dy160 2.307 . S
O163 C173 1.266 . S
O164 Dy161 2.298 . S
O164 C173 1.236 . S
O165 Dy160 2.395 . S
O165 C182 1.255 . S
O166 Dy160 2.379 . S
O166 C182 1.249 . S
O167 Dy161 2.275 . S
O167 C183 1.254 . S
O168 Dy160 2.339 . S
O168 C183 1.257 . S
O169 Dy161 2.307 . S
O169 C184 1.266 . S
O170 Dy160 2.298 . S
O170 C184 1.236 . S
O171 Dy161 2.395 . S
O171 C191 1.255 . S
O172 Dy161 2.379 . S
O172 C191 1.249 . S
C173 O163 1.266 . S
C173 O164 1.236 . S
O174 Dy160 2.275 . S
O174 C162 1.254 . S
O175 Dy161 2.339 . S
O175 C162 1.257 . S
C176 C179 1.344 . S
C176 C180 1.328 . S
C176 C182 1.516 . S
C177 C178 1.304 . S
C177 C181 1.323 . S
C178 C177 1.304 . S
C178 C179 1.371 . S
C178 H192 0.930 . S
C179 C176 1.344 . S
C179 C178 1.371 . S
C179 H193 0.931 . S
C180 C176 1.328 . S
C180 C181 1.433 . S
C180 H194 0.931 . S
C181 C177 1.323 . S
C181 C180 1.433 . S
C181 H195 0.933 . S
C182 Dy160 2.738 . S
C182 O165 1.255 . S
C182 O166 1.249 . S
C182 C176 1.516 . S
C183 O167 1.254 . S
C183 O168 1.257 . S
C184 O169 1.266 . S
C184 O170 1.236 . S
C185 C188 1.344 . S
C185 C189 1.328 . S
C185 C191 1.516 . S
C186 C187 1.304 . S
C186 C190 1.323 . S
C187 C186 1.304 . S
C187 C188 1.371 . S
C187 H196 0.930 . S
C188 C185 1.344 . S
C188 C187 1.371 . S
C188 H197 0.931 . S
C189 C185 1.328 . S
C189 C190 1.433 . S
C189 H198 0.931 . S
C190 C186 1.323 . S
C190 C189 1.433 . S
C190 H199 0.933 . S
C191 Dy161 2.738 . S
C191 O171 1.255 . S
C191 O172 1.249 . S
C191 C185 1.516 . S
H192 C178 0.930 . S
H193 C179 0.931 . S
H194 C180 0.931 . S
H195 C181 0.933 . S
H196 C187 0.930 . S
H197 C188 0.931 . S
H198 C189 0.931 . S
H199 C190 0.933 . S
Dy200 O203 2.307 . S
Dy200 O205 2.395 . S
Dy200 O206 2.379 . S
Dy200 O208 2.339 . S
Dy200 O210 2.298 . S
Dy200 O214 2.275 . S
Dy200 C222 2.738 . S
Dy201 O204 2.298 . S
Dy201 O207 2.275 . S
Dy201 O209 2.307 . S
Dy201 O211 2.395 . S
Dy201 O212 2.379 . S
Dy201 O215 2.339 . S
Dy201 C231 2.738 . S
C202 O214 1.254 . S
C202 O215 1.257 . S
O203 Dy200 2.307 . S
O203 C213 1.266 . S
O204 Dy201 2.298 . S
O204 C213 1.236 . S
O205 Dy200 2.395 . S
O205 C222 1.255 . S
O206 Dy200 2.379 . S
O206 C222 1.249 . S
O207 Dy201 2.275 . S
O207 C223 1.254 . S
O208 Dy200 2.339 . S
O208 C223 1.257 . S
O209 Dy201 2.307 . S
O209 C224 1.266 . S
O210 Dy200 2.298 . S
O210 C224 1.236 . S
O211 Dy201 2.395 . S
O211 C231 1.255 . S
O212 Dy201 2.379 . S
O212 C231 1.249 . S
C213 O203 1.266 . S
C213 O204 1.236 . S
O214 Dy200 2.275 . S
O214 C202 1.254 . S
O215 Dy201 2.339 . S
O215 C202 1.257 . S
C216 C219 1.344 . S
C216 C220 1.328 . S
C216 C222 1.516 . S
C217 C218 1.304 . S
C217 C221 1.323 . S
C218 C217 1.304 . S
C218 C219 1.371 . S
C218 H232 0.930 . S
C219 C216 1.344 . S
C219 C218 1.371 . S
C219 H233 0.931 . S
C220 C216 1.328 . S
C220 C221 1.433 . S
C220 H234 0.931 . S
C221 C217 1.323 . S
C221 C220 1.433 . S
C221 H235 0.933 . S
C222 Dy200 2.738 . S
C222 O205 1.255 . S
C222 O206 1.249 . S
C222 C216 1.516 . S
C223 O207 1.254 . S
C223 O208 1.257 . S
C224 O209 1.266 . S
C224 O210 1.236 . S
C225 C228 1.344 . S
C225 C229 1.328 . S
C225 C231 1.516 . S
C226 C227 1.304 . S
C226 C230 1.323 . S
C227 C226 1.304 . S
C227 C228 1.371 . S
C227 H236 0.930 . S
C228 C225 1.344 . S
C228 C227 1.371 . S
C228 H237 0.931 . S
C229 C225 1.328 . S
C229 C230 1.433 . S
C229 H238 0.931 . S
C230 C226 1.323 . S
C230 C229 1.433 . S
C230 H239 0.933 . S
C231 Dy201 2.738 . S
C231 O211 1.255 . S
C231 O212 1.249 . S
C231 C225 1.516 . S
H232 C218 0.930 . S
H233 C219 0.931 . S
H234 C220 0.931 . S
H235 C221 0.933 . S
H236 C227 0.930 . S
H237 C228 0.931 . S
H238 C229 0.931 . S
H239 C230 0.933 . S
Dy240 O243 2.307 . S
Dy240 O245 2.395 . S
Dy240 O246 2.379 . S
Dy240 O248 2.339 . S
Dy240 O250 2.298 . S
Dy240 O254 2.275 . S
Dy240 C262 2.738 . S
Dy241 O244 2.298 . S
Dy241 O247 2.275 . S
Dy241 O249 2.307 . S
Dy241 O251 2.395 . S
Dy241 O252 2.379 . S
Dy241 O255 2.339 . S
Dy241 C271 2.738 . S
C242 O254 1.254 . S
C242 O255 1.257 . S
O243 Dy240 2.307 . S
O243 C253 1.266 . S
O244 Dy241 2.298 . S
O244 C253 1.236 . S
O245 Dy240 2.395 . S
O245 C262 1.255 . S
O246 Dy240 2.379 . S
O246 C262 1.249 . S
O247 Dy241 2.275 . S
O247 C263 1.254 . S
O248 Dy240 2.339 . S
O248 C263 1.257 . S
O249 Dy241 2.307 . S
O249 C264 1.266 . S
O250 Dy240 2.298 . S
O250 C264 1.236 . S
O251 Dy241 2.395 . S
O251 C271 1.255 . S
O252 Dy241 2.379 . S
O252 C271 1.249 . S
C253 O243 1.266 . S
C253 O244 1.236 . S
O254 Dy240 2.275 . S
O254 C242 1.254 . S
O255 Dy241 2.339 . S
O255 C242 1.257 . S
C256 C259 1.344 . S
C256 C260 1.328 . S
C256 C262 1.516 . S
C257 C258 1.304 . S
C257 C261 1.323 . S
C258 C257 1.304 . S
C258 C259 1.371 . S
C258 H272 0.930 . S
C259 C256 1.344 . S
C259 C258 1.371 . S
C259 H273 0.931 . S
C260 C256 1.328 . S
C260 C261 1.433 . S
C260 H274 0.931 . S
C261 C257 1.323 . S
C261 C260 1.433 . S
C261 H275 0.933 . S
C262 Dy240 2.738 . S
C262 O245 1.255 . S
C262 O246 1.249 . S
C262 C256 1.516 . S
C263 O247 1.254 . S
C263 O248 1.257 . S
C264 O249 1.266 . S
C264 O250 1.236 . S
C265 C268 1.344 . S
C265 C269 1.328 . S
C265 C271 1.516 . S
C266 C267 1.304 . S
C266 C270 1.323 . S
C267 C266 1.304 . S
C267 C268 1.371 . S
C267 H276 0.930 . S
C268 C265 1.344 . S
C268 C267 1.371 . S
C268 H277 0.931 . S
C269 C265 1.328 . S
C269 C270 1.433 . S
C269 H278 0.931 . S
C270 C266 1.323 . S
C270 C269 1.433 . S
C270 H279 0.933 . S
C271 Dy241 2.738 . S
C271 O251 1.255 . S
C271 O252 1.249 . S
C271 C265 1.516 . S
H272 C258 0.930 . S
H273 C259 0.931 . S
H274 C260 0.931 . S
H275 C261 0.933 . S
H276 C267 0.930 . S
H277 C268 0.931 . S
H278 C269 0.931 . S
H279 C270 0.933 . S
Dy280 O283 2.307 . S
Dy280 O285 2.395 . S
Dy280 O286 2.379 . S
Dy280 O288 2.339 . S
Dy280 O290 2.298 . S
Dy280 O294 2.275 . S
Dy280 C302 2.738 . S
Dy281 O284 2.298 . S
Dy281 O287 2.275 . S
Dy281 O289 2.307 . S
Dy281 O291 2.395 . S
Dy281 O292 2.379 . S
Dy281 O295 2.339 . S
Dy281 C311 2.738 . S
C282 O294 1.254 . S
C282 O295 1.257 . S
O283 Dy280 2.307 . S
O283 C293 1.266 . S
O284 Dy281 2.298 . S
O284 C293 1.236 . S
O285 Dy280 2.395 . S
O285 C302 1.255 . S
O286 Dy280 2.379 . S
O286 C302 1.249 . S
O287 Dy281 2.275 . S
O287 C303 1.254 . S
O288 Dy280 2.339 . S
O288 C303 1.257 . S
O289 Dy281 2.307 . S
O289 C304 1.266 . S
O290 Dy280 2.298 . S
O290 C304 1.236 . S
O291 Dy281 2.395 . S
O291 C311 1.255 . S
O292 Dy281 2.379 . S
O292 C311 1.249 . S
C293 O283 1.266 . S
C293 O284 1.236 . S
O294 Dy280 2.275 . S
O294 C282 1.254 . S
O295 Dy281 2.339 . S
O295 C282 1.257 . S
C296 C299 1.344 . S
C296 C300 1.328 . S
C296 C302 1.516 . S
C297 C298 1.304 . S
C297 C301 1.323 . S
C298 C297 1.304 . S
C298 C299 1.371 . S
C298 H312 0.930 . S
C299 C296 1.344 . S
C299 C298 1.371 . S
C299 H313 0.931 . S
C300 C296 1.328 . S
C300 C301 1.433 . S
C300 H314 0.931 . S
C301 C297 1.323 . S
C301 C300 1.433 . S
C301 H315 0.933 . S
C302 Dy280 2.738 . S
C302 O285 1.255 . S
C302 O286 1.249 . S
C302 C296 1.516 . S
C303 O287 1.254 . S
C303 O288 1.257 . S
C304 O289 1.266 . S
C304 O290 1.236 . S
C305 C308 1.344 . S
C305 C309 1.328 . S
C305 C311 1.516 . S
C306 C307 1.304 . S
C306 C310 1.323 . S
C307 C306 1.304 . S
C307 C308 1.371 . S
C307 H316 0.930 . S
C308 C305 1.344 . S
C308 C307 1.371 . S
C308 H317 0.931 . S
C309 C305 1.328 . S
C309 C310 1.433 . S
C309 H318 0.931 . S
C310 C306 1.323 . S
C310 C309 1.433 . S
C310 H319 0.933 . S
C311 Dy281 2.738 . S
C311 O291 1.255 . S
C311 O292 1.249 . S
C311 C305 1.516 . S
H312 C298 0.930 . S
H313 C299 0.931 . S
H314 C300 0.931 . S
H315 C301 0.933 . S
H316 C307 0.930 . S
H317 C308 0.931 . S
H318 C309 0.931 . S
H319 C310 0.933 . S
Dy320 O323 2.307 . S
Dy320 O325 2.395 . S
Dy320 O326 2.379 . S
Dy320 O328 2.339 . S
Dy320 O330 2.298 . S
Dy320 O334 2.275 . S
Dy320 C342 2.738 . S
Dy321 O324 2.298 . S
Dy321 O327 2.275 . S
Dy321 O329 2.307 . S
Dy321 O331 2.395 . S
Dy321 O332 2.379 . S
Dy321 O335 2.339 . S
Dy321 C351 2.738 . S
C322 O334 1.254 . S
C322 O335 1.257 . S
O323 Dy320 2.307 . S
O323 C333 1.266 . S
O324 Dy321 2.298 . S
O324 C333 1.236 . S
O325 Dy320 2.395 . S
O325 C342 1.255 . S
O326 Dy320 2.379 . S
O326 C342 1.249 . S
O327 Dy321 2.275 . S
O327 C343 1.254 . S
O328 Dy320 2.339 . S
O328 C343 1.257 . S
O329 Dy321 2.307 . S
O329 C344 1.266 . S
O330 Dy320 2.298 . S
O330 C344 1.236 . S
O331 Dy321 2.395 . S
O331 C351 1.255 . S
O332 Dy321 2.379 . S
O332 C351 1.249 . S
C333 O323 1.266 . S
C333 O324 1.236 . S
O334 Dy320 2.275 . S
O334 C322 1.254 . S
O335 Dy321 2.339 . S
O335 C322 1.257 . S
C336 C339 1.344 . S
C336 C340 1.328 . S
C336 C342 1.516 . S
C337 C338 1.304 . S
C337 C341 1.323 . S
C338 C337 1.304 . S
C338 C339 1.371 . S
C338 H352 0.930 . S
C339 C336 1.344 . S
C339 C338 1.371 . S
C339 H353 0.931 . S
C340 C336 1.328 . S
C340 C341 1.433 . S
C340 H354 0.931 . S
C341 C337 1.323 . S
C341 C340 1.433 . S
C341 H355 0.933 . S
C342 Dy320 2.738 . S
C342 O325 1.255 . S
C342 O326 1.249 . S
C342 C336 1.516 . S
C343 O327 1.254 . S
C343 O328 1.257 . S
C344 O329 1.266 . S
C344 O330 1.236 . S
C345 C348 1.344 . S
C345 C349 1.328 . S
C345 C351 1.516 . S
C346 C347 1.304 . S
C346 C350 1.323 . S
C347 C346 1.304 . S
C347 C348 1.371 . S
C347 H356 0.930 . S
C348 C345 1.344 . S
C348 C347 1.371 . S
C348 H357 0.931 . S
C349 C345 1.328 . S
C349 C350 1.433 . S
C349 H358 0.931 . S
C350 C346 1.323 . S
C350 C349 1.433 . S
C350 H359 0.933 . S
C351 Dy321 2.738 . S
C351 O331 1.255 . S
C351 O332 1.249 . S
C351 C345 1.516 . S
H352 C338 0.930 . S
H353 C339 0.931 . S
H354 C340 0.931 . S
H355 C341 0.933 . S
H356 C347 0.930 . S
H357 C348 0.931 . S
H358 C349 0.931 . S
H359 C350 0.933 . S
H360 C366 0.930 . S
H361 C370 0.930 . S
H362 C375 0.929 . S
H363 C373 0.929 . S
H364 C368 0.929 . S
H365 C374 0.929 . S
C366 H360 0.930 . S
C366 C367 1.367 . S
C366 C374 1.378 . S
C367 C366 1.367 . S
C367 C375 1.433 . S
C368 H364 0.929 . S
C368 C370 1.378 . S
C368 C372 1.350 . S
C369 C372 1.463 . S
C369 C374 1.350 . S
C369 N377 1.427 . S
C370 H361 0.930 . S
C370 C368 1.378 . S
C370 C371 1.367 . S
C371 C370 1.367 . S
C371 C373 1.433 . S
C372 C368 1.350 . S
C372 C369 1.463 . S
C372 N376 1.427 . S
C373 H363 0.929 . S
C373 C371 1.433 . S
C373 N376 1.384 . S
C374 H365 0.929 . S
C374 C366 1.378 . S
C374 C369 1.350 . S
C375 H362 0.929 . S
C375 C367 1.433 . S
C375 N377 1.384 . S
N376 C372 1.427 . S
N376 C373 1.384 . S
N377 C369 1.427 . S
N377 C375 1.384 . S
H378 C384 0.930 . S
H379 C388 0.930 . S
H380 C393 0.929 . S
H381 C391 0.929 . S
H382 C386 0.929 . S
H383 C392 0.929 . S
C384 H378 0.930 . S
C384 C385 1.367 . S
C384 C392 1.378 . S
C385 C384 1.367 . S
C385 C393 1.433 . S
C386 H382 0.929 . S
C386 C388 1.378 . S
C386 C390 1.350 . S
C387 C390 1.463 . S
C387 C392 1.350 . S
C387 N395 1.427 . S
C388 H379 0.930 . S
C388 C386 1.378 . S
C388 C389 1.367 . S
C389 C388 1.367 . S
C389 C391 1.433 . S
C390 C386 1.350 . S
C390 C387 1.463 . S
C390 N394 1.427 . S
C391 H381 0.929 . S
C391 C389 1.433 . S
C391 N394 1.384 . S
C392 H383 0.929 . S
C392 C384 1.378 . S
C392 C387 1.350 . S
C393 H380 0.929 . S
C393 C385 1.433 . S
C393 N395 1.384 . S
N394 C390 1.427 . S
N394 C391 1.384 . S
N395 C387 1.427 . S
N395 C393 1.384 . S
H396 C402 0.930 1_554 S
H397 C406 0.930 . S
H398 C411 0.929 . S
H399 C409 0.929 . S
H400 C404 0.929 . S
H401 C410 0.929 . S
C402 H396 0.930 1_556 S
C402 C403 1.367 . S
C402 C410 1.378 . S
C403 C402 1.367 . S
C403 C411 1.433 . S
C404 H400 0.929 . S
C404 C406 1.378 . S
C404 C408 1.350 . S
C405 C408 1.463 . S
C405 C410 1.350 . S
C405 N413 1.427 . S
C406 H397 0.930 . S
C406 C404 1.378 . S
C406 C407 1.367 . S
C407 C406 1.367 . S
C407 C409 1.433 . S
C408 C404 1.350 . S
C408 C405 1.463 . S
C408 N412 1.427 . S
C409 H399 0.929 . S
C409 C407 1.433 . S
C409 N412 1.384 . S
C410 H401 0.929 . S
C410 C402 1.378 . S
C410 C405 1.350 . S
C411 H398 0.929 . S
C411 C403 1.433 . S
C411 N413 1.384 . S
N412 C408 1.427 . S
N412 C409 1.384 . S
N413 C405 1.427 . S
N413 C411 1.384 . S
H414 C420 0.930 . S
H415 C424 0.930 . S
H416 C429 0.929 . S
H417 C427 0.929 . S
H418 C422 0.929 1_556 S
H419 C428 0.929 . S
C420 H414 0.930 . S
C420 C421 1.367 . S
C420 C428 1.378 . S
C421 C420 1.367 . S
C421 C429 1.433 . S
C422 H418 0.929 1_554 S
C422 C424 1.378 1_554 S
C422 C426 1.350 . S
C423 C426 1.463 . S
C423 C428 1.350 . S
C423 N431 1.427 . S
C424 H415 0.930 . S
C424 C422 1.378 1_556 S
C424 C425 1.367 1_556 S
C425 C424 1.367 1_554 S
C425 C427 1.433 . S
C426 C422 1.350 . S
C426 C423 1.463 . S
C426 N430 1.427 . S
C427 H417 0.929 . S
C427 C425 1.433 . S
C427 N430 1.384 . S
C428 H419 0.929 . S
C428 C420 1.378 . S
C428 C423 1.350 . S
C429 H416 0.929 . S
C429 C421 1.433 . S
C429 N431 1.384 . S
N430 C426 1.427 . S
N430 C427 1.384 . S
N431 C423 1.427 . S
N431 C429 1.384 . S
H432 C438 0.930 . S
H433 C442 0.930 . S
H434 C447 0.929 . S
H435 C445 0.929 1_455 S
H436 C440 0.929 . S
H437 C446 0.929 . S
C438 H432 0.930 . S
C438 C439 1.367 . S
C438 C446 1.378 . S
C439 C438 1.367 . S
C439 C447 1.433 . S
C440 H436 0.929 . S
C440 C442 1.378 . S
C440 C444 1.350 . S
C441 C444 1.463 . S
C441 C446 1.350 . S
C441 N449 1.427 . S
C442 H433 0.930 . S
C442 C440 1.378 . S
C442 C443 1.367 . S
C443 C442 1.367 . S
C443 C445 1.433 . S
C444 C440 1.350 . S
C444 C441 1.463 . S
C444 N448 1.427 . S
C445 H435 0.929 1_655 S
C445 C443 1.433 . S
C445 N448 1.384 . S
C446 H437 0.929 . S
C446 C438 1.378 . S
C446 C441 1.350 . S
C447 H434 0.929 . S
C447 C439 1.433 . S
C447 N449 1.384 . S
N448 C444 1.427 . S
N448 C445 1.384 . S
N449 C441 1.427 . S
N449 C447 1.384 . S
H450 C456 0.930 . S
H451 C460 0.930 . S
H452 C465 0.929 . S
H453 C463 0.929 . S
H454 C458 0.929 . S
H455 C464 0.929 . S
C456 H450 0.930 . S
C456 C457 1.367 1_556 S
C456 C464 1.378 1_556 S
C457 C456 1.367 1_554 S
C457 C465 1.433 . S
C458 H454 0.929 . S
C458 C460 1.378 . S
C458 C462 1.350 . S
C459 C462 1.463 . S
C459 C464 1.350 . S
C459 N467 1.427 . S
C460 H451 0.930 . S
C460 C458 1.378 . S
C460 C461 1.367 . S
C461 C460 1.367 . S
C461 C463 1.433 . S
C462 C458 1.350 . S
C462 C459 1.463 . S
C462 N466 1.427 . S
C463 H453 0.929 . S
C463 C461 1.433 . S
C463 N466 1.384 . S
C464 H455 0.929 . S
C464 C456 1.378 1_554 S
C464 C459 1.350 . S
C465 H452 0.929 . S
C465 C457 1.433 . S
C465 N467 1.384 . S
N466 C462 1.427 . S
N466 C463 1.384 . S
N467 C459 1.427 . S
N467 C465 1.384 . S
H468 C474 0.930 . S
H469 C478 0.930 . S
H470 C483 0.929 1_455 S
H471 C481 0.929 . S
H472 C476 0.929 . S
H473 C482 0.929 . S
C474 H468 0.930 . S
C474 C475 1.367 . S
C474 C482 1.378 1_455 S
C475 C474 1.367 . S
C475 C483 1.433 1_455 S
C476 H472 0.929 . S
C476 C478 1.378 . S
C476 C480 1.350 . S
C477 C480 1.463 . S
C477 C482 1.350 . S
C477 N485 1.427 . S
C478 H469 0.930 . S
C478 C476 1.378 . S
C478 C479 1.367 . S
C479 C478 1.367 . S
C479 C481 1.433 . S
C480 C476 1.350 . S
C480 C477 1.463 . S
C480 N484 1.427 . S
C481 H471 0.929 . S
C481 C479 1.433 . S
C481 N484 1.384 . S
C482 H473 0.929 . S
C482 C474 1.378 1_655 S
C482 C477 1.350 . S
C483 H470 0.929 1_655 S
C483 C475 1.433 1_655 S
C483 N485 1.384 . S
N484 C480 1.427 . S
N484 C481 1.384 . S
N485 C477 1.427 . S
N485 C483 1.384 . S
H486 C492 0.930 . S
H487 C496 0.930 . S
H488 C501 0.929 . S
H489 C499 0.929 . S
H490 C494 0.929 . S
H491 C500 0.929 . S
C492 H486 0.930 . S
C492 C493 1.367 . S
C492 C500 1.378 . S
C493 C492 1.367 . S
C493 C501 1.433 . S
C494 H490 0.929 . S
C494 C496 1.378 . S
C494 C498 1.350 . S
C495 C498 1.463 . S
C495 C500 1.350 . S
C495 N503 1.427 . S
C496 H487 0.930 . S
C496 C494 1.378 . S
C496 C497 1.367 . S
C497 C496 1.367 . S
C497 C499 1.433 . S
C498 C494 1.350 . S
C498 C495 1.463 . S
C498 N502 1.427 . S
C499 H489 0.929 . S
C499 C497 1.433 . S
C499 N502 1.384 . S
C500 H491 0.929 . S
C500 C492 1.378 . S
C500 C495 1.350 . S
C501 H488 0.929 . S
C501 C493 1.433 . S
C501 N503 1.384 . S
N502 C498 1.427 . S
N502 C499 1.384 . S
N503 C495 1.427 . S
N503 C501 1.384 . S
H504 C510 0.930 . S
H505 C514 0.955 . S
H506 C519 0.929 . S
H507 C517 0.929 . S
H508 C512 0.929 . S
H509 C518 0.929 . S
C510 H504 0.930 . S
C510 C511 1.367 . S
C510 C518 1.378 . S
C511 C510 1.367 . S
C511 C519 1.433 . S
C512 H508 0.929 . S
C512 C514 1.378 . S
C512 C516 1.350 . S
C513 C516 1.463 . S
C513 C518 1.350 . S
C513 N521 1.427 . S
C514 H505 0.955 . S
C514 C512 1.378 . S
C514 C515 1.367 . S
C515 C514 1.367 . S
C515 C517 1.433 . S
C516 C512 1.350 . S
C516 C513 1.463 . S
C516 N520 1.427 . S
C517 H507 0.929 . S
C517 C515 1.433 . S
C517 N520 1.384 . S
C518 H509 0.929 . S
C518 C510 1.378 . S
C518 C513 1.350 . S
C519 H506 0.929 . S
C519 C511 1.433 . S
C519 N521 1.384 . S
N520 C516 1.427 . S
N520 C517 1.384 . S
N521 C513 1.427 . S
N521 C519 1.384 . S
H522 C528 0.930 . S
H523 C532 0.930 . S
H524 C537 0.929 . S
H525 C535 0.929 . S
H526 C530 0.929 1_556 S
H527 C536 0.929 . S
C528 H522 0.930 . S
C528 C529 1.367 . S
C528 C536 1.378 . S
C529 C528 1.367 . S
C529 C537 1.433 . S
C530 H526 0.929 1_554 S
C530 C532 1.378 1_554 S
C530 C534 1.350 . S
C531 C534 1.463 . S
C531 C536 1.350 . S
C531 N539 1.427 . S
C532 H523 0.930 . S
C532 C530 1.378 1_556 S
C532 C533 1.367 1_556 S
C533 C532 1.367 1_554 S
C533 C535 1.433 . S
C534 C530 1.350 . S
C534 C531 1.463 . S
C534 N538 1.427 . S
C535 H525 0.929 . S
C535 C533 1.433 . S
C535 N538 1.384 . S
C536 H527 0.929 . S
C536 C528 1.378 . S
C536 C531 1.350 . S
C537 H524 0.929 . S
C537 C529 1.433 . S
C537 N539 1.384 . S
N538 C534 1.427 . S
N538 C535 1.384 . S
N539 C531 1.427 . S
N539 C537 1.384 . S
H540 C546 0.930 . S
H541 C550 0.930 . S
H542 C555 0.929 . S
H543 C553 0.929 1_556 S
H544 C548 0.929 . S
H545 C554 0.929 . S
C546 H540 0.930 . S
C546 C547 1.367 1_556 S
C546 C554 1.378 . S
C547 C546 1.367 1_554 S
C547 C555 1.433 . S
C548 H544 0.929 . S
C548 C550 1.378 1_565 S
C548 C552 1.350 . S
C549 C552 1.463 . S
C549 C554 1.350 1_554 S
C549 N557 1.427 . S
C550 H541 0.930 . S
C550 C548 1.378 1_545 S
C550 C551 1.367 . S
C551 C550 1.367 . S
C551 C553 1.433 . S
C552 C548 1.350 . S
C552 C549 1.463 . S
C552 N556 1.427 . S
C553 H543 0.929 1_554 S
C553 C551 1.433 . S
C553 N556 1.384 1_545 S
C554 H545 0.929 . S
C554 C546 1.378 . S
C554 C549 1.350 1_556 S
C555 H542 0.929 . S
C555 C547 1.433 . S
C555 N557 1.384 . S
N556 C552 1.427 . S
N556 C553 1.384 1_565 S
N557 C549 1.427 . S
N557 C555 1.384 . S
H558 C564 0.930 . S
H559 C568 0.930 . S
H560 C573 0.929 . S
H561 C571 0.929 . S
H562 C566 0.929 . S
H563 C572 0.929 . S
C564 H558 0.930 . S
C564 C565 1.367 . S
C564 C572 1.378 . S
C565 C564 1.367 . S
C565 C573 1.433 1_554 S
C566 H562 0.929 . S
C566 C568 1.378 . S
C566 C570 1.350 1_556 S
C567 C570 1.463 . S
C567 C572 1.350 . S
C567 N575 1.427 1_554 S
C568 H559 0.930 . S
C568 C566 1.378 . S
C568 C569 1.367 1_556 S
C569 C568 1.367 1_554 S
C569 C571 1.433 . S
C570 C566 1.350 1_554 S
C570 C567 1.463 . S
C570 N574 1.427 . S
C571 H561 0.929 . S
C571 C569 1.433 . S
C571 N574 1.384 . S
C572 H563 0.929 . S
C572 C564 1.378 . S
C572 C567 1.350 . S
C573 H560 0.929 . S
C573 C565 1.433 1_556 S
C573 N575 1.384 . S
N574 C570 1.427 . S
N574 C571 1.384 . S
N575 C567 1.427 1_556 S
N575 C573 1.384 . S
H576 C582 0.930 . S
H577 C586 0.930 . S
H578 C591 0.929 . S
H579 C589 0.929 . S
H580 C584 0.929 . S
H581 C590 0.929 . S
C582 H576 0.930 . S
C582 C583 1.367 . S
C582 C590 1.378 . S
C583 C582 1.367 . S
C583 C591 1.433 . S
C584 H580 0.929 . S
C584 C586 1.378 . S
C584 C588 1.350 . S
C585 C588 1.463 . S
C585 C590 1.350 . S
C585 N593 1.427 . S
C586 H577 0.930 . S
C586 C584 1.378 . S
C586 C587 1.367 . S
C587 C586 1.367 . S
C587 C589 1.433 . S
C588 C584 1.350 . S
C588 C585 1.463 . S
C588 N592 1.427 . S
C589 H579 0.929 . S
C589 C587 1.433 . S
C589 N592 1.384 . S
C590 H581 0.929 . S
C590 C582 1.378 . S
C590 C585 1.350 . S
C591 H578 0.929 . S
C591 C583 1.433 . S
C591 N593 1.384 . S
N592 C588 1.427 . S
N592 C589 1.384 . S
N593 C585 1.427 . S
N593 C591 1.384 . S
H594 C600 0.930 . S
H595 C604 0.930 . S
H596 C609 0.929 . S
H597 C607 0.929 . S
H598 C602 0.929 . S
H599 C608 0.929 . S
C600 H594 0.930 . S
C600 C601 1.367 . S
C600 C608 1.378 . S
C601 C600 1.367 . S
C601 C609 1.433 . S
C602 H598 0.929 . S
C602 C604 1.378 . S
C602 C606 1.350 . S
C603 C606 1.463 . S
C603 C608 1.350 . S
C603 N611 1.427 . S
C604 H595 0.930 . S
C604 C602 1.378 . S
C604 C605 1.367 . S
C605 C604 1.367 . S
C605 C607 1.433 . S
C606 C602 1.350 . S
C606 C603 1.463 . S
C606 N610 1.427 . S
C607 H597 0.929 . S
C607 C605 1.433 . S
C607 N610 1.384 . S
C608 H599 0.929 . S
C608 C600 1.378 . S
C608 C603 1.350 . S
C609 H596 0.929 . S
C609 C601 1.433 . S
C609 N611 1.384 . S
N610 C606 1.427 . S
N610 C607 1.384 . S
N611 C603 1.427 . S
N611 C609 1.384 . S
H612 C618 0.930 . S
H613 C622 0.930 . S
H614 C627 0.929 . S
H615 C625 0.929 . S
H616 C620 0.929 . S
H617 C626 0.929 . S
C618 H612 0.930 . S
C618 C619 1.367 . S
C618 C626 1.378 . S
C619 C618 1.367 . S
C619 C627 1.433 . S
C620 H616 0.929 . S
C620 C622 1.378 . S
C620 C624 1.350 . S
C621 C624 1.463 . S
C621 C626 1.350 . S
C621 N629 1.427 . S
C622 H613 0.930 . S
C622 C620 1.378 . S
C622 C623 1.367 . S
C623 C622 1.367 . S
C623 C625 1.433 . S
C624 C620 1.350 . S
C624 C621 1.463 . S
C624 N628 1.427 . S
C625 H615 0.929 . S
C625 C623 1.433 . S
C625 N628 1.384 . S
C626 H617 0.929 . S
C626 C618 1.378 . S
C626 C621 1.350 . S
C627 H614 0.929 . S
C627 C619 1.433 . S
C627 N629 1.384 . S
N628 C624 1.427 . S
N628 C625 1.384 . S
N629 C621 1.427 . S
N629 C627 1.384 . S
H630 C636 0.930 . S
H631 C640 0.930 . S
H632 C645 0.929 . S
H633 C643 0.929 . S
H634 C638 0.929 . S
H635 C644 0.929 . S
C636 H630 0.930 . S
C636 C637 1.367 . S
C636 C644 1.378 . S
C637 C636 1.367 . S
C637 C645 1.433 . S
C638 H634 0.929 . S
C638 C640 1.378 . S
C638 C642 1.350 . S
C639 C642 1.463 . S
C639 C644 1.350 . S
C639 N647 1.427 . S
C640 H631 0.930 . S
C640 C638 1.378 . S
C640 C641 1.367 . S
C641 C640 1.367 . S
C641 C643 1.433 . S
C642 C638 1.350 . S
C642 C639 1.463 . S
C642 N646 1.427 . S
C643 H633 0.929 . S
C643 C641 1.433 . S
C643 N646 1.384 . S
C644 H635 0.929 . S
C644 C636 1.378 . S
C644 C639 1.350 . S
C645 H632 0.929 . S
C645 C637 1.433 . S
C645 N647 1.384 . S
N646 C642 1.427 . S
N646 C643 1.384 . S
N647 C639 1.427 . S
N647 C645 1.384 . S
H648 C654 0.930 . S
H649 C658 0.930 . S
H650 C663 0.929 . S
H651 C661 0.929 . S
H652 C656 0.929 . S
H653 C662 0.929 . S
C654 H648 0.930 . S
C654 C655 1.367 . S
C654 C662 1.378 . S
C655 C654 1.367 . S
C655 C663 1.433 . S
C656 H652 0.929 . S
C656 C658 1.378 . S
C656 C660 1.350 . S
C657 C660 1.463 . S
C657 C662 1.350 . S
C657 N665 1.427 . S
C658 H649 0.930 . S
C658 C656 1.378 . S
C658 C659 1.367 . S
C659 C658 1.367 . S
C659 C661 1.433 . S
C660 C656 1.350 . S
C660 C657 1.463 . S
C660 N664 1.427 . S
C661 H651 0.929 . S
C661 C659 1.433 . S
C661 N664 1.384 . S
C662 H653 0.929 . S
C662 C654 1.378 . S
C662 C657 1.350 . S
C663 H650 0.929 . S
C663 C655 1.433 . S
C663 N665 1.384 . S
N664 C660 1.427 . S
N664 C661 1.384 . S
N665 C657 1.427 . S
N665 C663 1.384 . S
H666 C672 0.930 . S
H667 C676 0.930 . S
H668 C681 0.929 . S
H669 C679 0.929 . S
H670 C674 0.929 . S
H671 C680 0.929 . S
C672 H666 0.930 . S
C672 C673 1.367 . S
C672 C680 1.378 . S
C673 C672 1.367 . S
C673 C681 1.433 . S
C674 H670 0.929 . S
C674 C676 1.378 . S
C674 C678 1.350 . S
C675 C678 1.463 . S
C675 C680 1.350 . S
C675 N683 1.427 . S
C676 H667 0.930 . S
C676 C674 1.378 . S
C676 C677 1.367 . S
C677 C676 1.367 . S
C677 C679 1.433 . S
C678 C674 1.350 . S
C678 C675 1.463 . S
C678 N682 1.427 . S
C679 H669 0.929 . S
C679 C677 1.433 . S
C679 N682 1.384 . S
C680 H671 0.929 . S
C680 C672 1.378 . S
C680 C675 1.350 . S
C681 H668 0.929 . S
C681 C673 1.433 . S
C681 N683 1.384 . S
N682 C678 1.427 . S
N682 C679 1.384 . S
N683 C675 1.427 . S
N683 C681 1.384 . S
H684 C690 0.930 . S
H685 C694 0.930 . S
H686 C699 0.925 . S
H687 C697 0.929 . S
H688 C692 0.929 . S
H689 C698 0.929 . S
C690 H684 0.930 . S
C690 C691 1.367 . S
C690 C698 1.378 . S
C691 C690 1.367 . S
C691 C699 1.433 . S
C692 H688 0.929 . S
C692 C694 1.378 . S
C692 C696 1.350 . S
C693 C696 1.463 . S
C693 C698 1.350 . S
C693 N701 1.427 . S
C694 H685 0.930 . S
C694 C692 1.378 . S
C694 C695 1.367 . S
C695 C694 1.367 . S
C695 C697 1.433 . S
C696 C692 1.350 . S
C696 C693 1.463 . S
C696 N700 1.427 . S
C697 H687 0.929 . S
C697 C695 1.433 . S
C697 N700 1.384 . S
C698 H689 0.929 . S
C698 C690 1.378 . S
C698 C693 1.350 . S
C699 H686 0.925 . S
C699 C691 1.433 . S
C699 N701 1.384 . S
N700 C696 1.427 . S
N700 C697 1.384 . S
N701 C693 1.427 . S
N701 C699 1.384 . S
H702 C708 0.930 . S
H703 C712 0.930 . S
H704 C717 0.929 . S
H705 C715 0.929 . S
H706 C710 0.929 . S
H707 C716 0.929 . S
C708 H702 0.930 . S
C708 C709 1.367 . S
C708 C716 1.378 . S
C709 C708 1.367 . S
C709 C717 1.433 . S
C710 H706 0.929 . S
C710 C712 1.378 . S
C710 C714 1.350 . S
C711 C714 1.463 . S
C711 C716 1.350 . S
C711 N719 1.427 . S
C712 H703 0.930 . S
C712 C710 1.378 . S
C712 C713 1.367 . S
C713 C712 1.367 . S
C713 C715 1.433 . S
C714 C710 1.350 . S
C714 C711 1.463 . S
C714 N718 1.427 . S
C715 H705 0.929 . S
C715 C713 1.433 . S
C715 N718 1.384 . S
C716 H707 0.929 . S
C716 C708 1.378 . S
C716 C711 1.350 . S
C717 H704 0.929 . S
C717 C709 1.433 . S
C717 N719 1.384 . S
N718 C714 1.427 . S
N718 C715 1.384 . S
N719 C711 1.427 . S
N719 C717 1.384 . S
H720 C726 0.930 . S
H721 C730 0.930 . S
H722 C735 0.929 . S
H723 C733 0.929 . S
H724 C728 0.929 . S
H725 C734 0.929 . S
C726 H720 0.930 . S
C726 C727 1.367 1_565 S
C726 C734 1.378 . S
C727 C726 1.367 1_545 S
C727 C735 1.433 . S
C728 H724 0.929 . S
C728 C730 1.378 . S
C728 C732 1.350 . S
C729 C732 1.463 . S
C729 C734 1.350 1_545 S
C729 N737 1.427 . S
C730 H721 0.930 . S
C730 C728 1.378 . S
C730 C731 1.367 . S
C731 C730 1.367 . S
C731 C733 1.433 1_545 S
C732 C728 1.350 . S
C732 C729 1.463 . S
C732 N736 1.427 1_545 S
C733 H723 0.929 . S
C733 C731 1.433 1_565 S
C733 N736 1.384 . S
C734 H725 0.929 . S
C734 C726 1.378 . S
C734 C729 1.350 1_565 S
C735 H722 0.929 . S
C735 C727 1.433 . S
C735 N737 1.384 . S
N736 C732 1.427 1_565 S
N736 C733 1.384 . S
N737 C729 1.427 . S
N737 C735 1.384 . S
H738 C744 0.930 . S
H739 C748 0.930 . S
H740 C753 0.929 . S
H741 C751 0.929 . S
H742 C746 0.929 . S
H743 C752 0.929 . S
C744 H738 0.930 . S
C744 C745 1.367 . S
C744 C752 1.378 . S
C745 C744 1.367 . S
C745 C753 1.433 . S
C746 H742 0.929 . S
C746 C748 1.378 1_556 S
C746 C750 1.350 . S
C747 C750 1.463 . S
C747 C752 1.350 . S
C747 N755 1.427 . S
C748 H739 0.930 . S
C748 C746 1.378 1_554 S
C748 C749 1.367 . S
C749 C748 1.367 . S
C749 C751 1.433 . S
C750 C746 1.350 . S
C750 C747 1.463 . S
C750 N754 1.427 . S
C751 H741 0.929 . S
C751 C749 1.433 . S
C751 N754 1.384 1_554 S
C752 H743 0.929 . S
C752 C744 1.378 . S
C752 C747 1.350 . S
C753 H740 0.929 . S
C753 C745 1.433 . S
C753 N755 1.384 . S
N754 C750 1.427 . S
N754 C751 1.384 1_556 S
N755 C747 1.427 . S
N755 C753 1.384 . S
H756 C762 0.930 . S
H757 C766 0.930 . S
H758 C771 0.929 . S
H759 C769 0.929 . S
H760 C764 0.929 . S
H761 C770 0.929 . S
C762 H756 0.930 . S
C762 C763 1.367 . S
C762 C770 1.378 . S
C763 C762 1.367 . S
C763 C771 1.433 . S
C764 H760 0.929 . S
C764 C766 1.378 1_556 S
C764 C768 1.350 . S
C765 C768 1.463 . S
C765 C770 1.350 . S
C765 N773 1.427 . S
C766 H757 0.930 . S
C766 C764 1.378 1_554 S
C766 C767 1.367 . S
C767 C766 1.367 . S
C767 C769 1.433 . S
C768 C764 1.350 . S
C768 C765 1.463 . S
C768 N772 1.427 . S
C769 H759 0.929 . S
C769 C767 1.433 . S
C769 N772 1.384 1_554 S
C770 H761 0.929 . S
C770 C762 1.378 . S
C770 C765 1.350 . S
C771 H758 0.929 . S
C771 C763 1.433 . S
C771 N773 1.384 . S
N772 C768 1.427 . S
N772 C769 1.384 1_556 S
N773 C765 1.427 . S
N773 C771 1.384 . S
H774 C780 0.930 . S
H775 C784 0.930 . S
H776 C789 0.929 . S
H777 C787 0.929 . S
H778 C782 0.929 . S
H779 C788 0.929 . S
C780 H774 0.930 . S
C780 C781 1.367 . S
C780 C788 1.378 . S
C781 C780 1.367 . S
C781 C789 1.433 . S
C782 H778 0.929 . S
C782 C784 1.378 1_556 S
C782 C786 1.350 . S
C783 C786 1.463 . S
C783 C788 1.350 . S
C783 N791 1.427 . S
C784 H775 0.930 . S
C784 C782 1.378 1_554 S
C784 C785 1.367 . S
C785 C784 1.367 . S
C785 C787 1.433 . S
C786 C782 1.350 . S
C786 C783 1.463 . S
C786 N790 1.427 . S
C787 H777 0.929 . S
C787 C785 1.433 . S
C787 N790 1.384 1_554 S
C788 H779 0.929 . S
C788 C780 1.378 . S
C788 C783 1.350 . S
C789 H776 0.929 . S
C789 C781 1.433 . S
C789 N791 1.384 . S
N790 C786 1.427 . S
N790 C787 1.384 1_556 S
N791 C783 1.427 . S
N791 C789 1.384 . S
H792 C798 0.930 . S
H793 C802 0.930 . S
H794 C807 0.929 . S
H795 C805 0.929 . S
H796 C800 0.929 . S
H797 C806 0.929 . S
C798 H792 0.930 . S
C798 C799 1.367 . S
C798 C806 1.378 . S
C799 C798 1.367 . S
C799 C807 1.433 . S
C800 H796 0.929 . S
C800 C802 1.378 1_554 S
C800 C804 1.350 . S
C801 C804 1.463 . S
C801 C806 1.350 . S
C801 N809 1.427 . S
C802 H793 0.930 . S
C802 C800 1.378 1_556 S
C802 C803 1.367 . S
C803 C802 1.367 . S
C803 C805 1.433 . S
C804 C800 1.350 . S
C804 C801 1.463 . S
C804 N808 1.427 . S
C805 H795 0.929 . S
C805 C803 1.433 . S
C805 N808 1.384 1_556 S
C806 H797 0.929 . S
C806 C798 1.378 . S
C806 C801 1.350 . S
C807 H794 0.929 . S
C807 C799 1.433 . S
C807 N809 1.384 . S
N808 C804 1.427 . S
N808 C805 1.384 1_554 S
N809 C801 1.427 . S
N809 C807 1.384 . S
H810 C816 0.930 . S
H811 C820 0.930 . S
H812 C825 0.929 . S
H813 C823 0.929 . S
H814 C818 0.929 . S
H815 C824 0.929 . S
C816 H810 0.930 . S
C816 C817 1.367 . S
C816 C824 1.378 1_556 S
C817 C816 1.367 . S
C817 C825 1.433 . S
C818 H814 0.929 . S
C818 C820 1.378 . S
C818 C822 1.350 . S
C819 C822 1.463 . S
C819 C824 1.350 . S
C819 N827 1.427 . S
C820 H811 0.930 . S
C820 C818 1.378 . S
C820 C821 1.367 . S
C821 C820 1.367 . S
C821 C823 1.433 . S
C822 C818 1.350 . S
C822 C819 1.463 . S
C822 N826 1.427 . S
C823 H813 0.929 . S
C823 C821 1.433 . S
C823 N826 1.384 . S
C824 H815 0.929 . S
C824 C816 1.378 1_554 S
C824 C819 1.350 . S
C825 H812 0.929 . S
C825 C817 1.433 . S
C825 N827 1.384 1_556 S
N826 C822 1.427 . S
N826 C823 1.384 . S
N827 C819 1.427 . S
N827 C825 1.384 1_554 S
H828 C834 0.930 . S
H829 C838 0.930 . S
H830 C843 0.929 . S
H831 C841 0.929 . S
H832 C836 0.929 . S
H833 C842 0.929 . S
C834 H828 0.930 . S
C834 C835 1.367 . S
C834 C842 1.378 . S
C835 C834 1.367 . S
C835 C843 1.433 . S
C836 H832 0.929 . S
C836 C838 1.378 1_554 S
C836 C840 1.350 . S
C837 C840 1.463 . S
C837 C842 1.350 . S
C837 N845 1.427 . S
C838 H829 0.930 . S
C838 C836 1.378 1_556 S
C838 C839 1.367 . S
C839 C838 1.367 . S
C839 C841 1.433 . S
C840 C836 1.350 . S
C840 C837 1.463 . S
C840 N844 1.427 . S
C841 H831 0.929 . S
C841 C839 1.433 . S
C841 N844 1.384 1_556 S
C842 H833 0.929 . S
C842 C834 1.378 . S
C842 C837 1.350 . S
C843 H830 0.929 . S
C843 C835 1.433 . S
C843 N845 1.384 . S
N844 C840 1.427 . S
N844 C841 1.384 1_554 S
N845 C837 1.427 . S
N845 C843 1.384 . S
C367 C26 1.729 . S
C371 C293 1.697 . S
C385 C66 1.731 . S
C389 C333 1.703 . S
C403 C106 1.734 . S
C407 C253 1.706 . S
C421 C186 1.735 . S
C425 C93 1.707 . S
C439 C226 1.730 . S
C443 C13 1.701 . S
C457 C53 1.705 . S
C461 C146 1.733 . S
C475 C306 1.726 . S
C479 C213 1.696 . S
C493 C346 1.729 . S
C497 C133 1.700 . S
C511 C173 1.694 . S
C515 C266 1.726 1_545 S
C529 C97 1.559 . S
C533 C24 1.563 . S
C547 C64 1.564 . S
C551 C17 1.561 . S
C565 C57 1.562 1_455 S
C569 C104 1.564 . S
C583 C144 1.564 . S
C587 C217 1.561 . S
C601 C137 1.562 . S
C605 C184 1.565 . S
C619 C177 1.562 . S
C623 C224 1.564 . S
C637 C337 1.559 . S
C641 C264 1.564 . S
C655 C304 1.564 . S
C659 C257 1.561 . S
C673 C344 1.565 . S
C677 C297 1.559 . S
C691 C23 1.020 . S
C695 C2 1.020 . S
C709 C63 1.038 . S
C713 C42 1.038 . S
C727 C103 1.027 . S
C731 C82 1.027 . S
C745 C122 1.036 . S
C749 C143 1.036 . S
C763 C162 1.021 . S
C767 C183 1.021 . S
C781 C202 1.032 . S
C785 C223 1.032 . S
C799 C263 1.036 . S
C803 C242 1.036 . S
C817 C282 1.026 . S
C821 C303 1.026 . S
C835 C343 1.018 . S
C839 C322 1.018 . S
