# Generated by pormake.
# Topology reo, (8)-cn, num edge types: 1
# Building blocks:
#     Node 0, Type 0, BuildingBlock: EBIMEJ_clean_sbu_0, # of connection points: 8
#     Node 1, Type 0, BuildingBlock: EBIMEJ_clean_sbu_0, # of connection points: 8
#     Node 2, Type 0, BuildingBlock: EBIMEJ_clean_sbu_0, # of connection points: 8
#     Edge 3, Type (0, 0), BuildingBlock: FUNLAD_clean_linker_1, # of connection points: 2
#     Edge 4, Type (0, 0), BuildingBlock: FUNLAD_clean_linker_1, # of connection points: 2
#     Edge 5, Type (0, 0), BuildingBlock: FUNLAD_clean_linker_1, # of connection points: 2
#     Edge 6, Type (0, 0), BuildingBlock: FUNLAD_clean_linker_1, # of connection points: 2
#     Edge 7, Type (0, 0), BuildingBlock: FUNLAD_clean_linker_1, # of connection points: 2
#     Edge 8, Type (0, 0), BuildingBlock: FUNLAD_clean_linker_1, # of connection points: 2
#     Edge 9, Type (0, 0), BuildingBlock: FUNLAD_clean_linker_1, # of connection points: 2
#     Edge 10, Type (0, 0), BuildingBlock: FUNLAD_clean_linker_1, # of connection points: 2
#     Edge 11, Type (0, 0), BuildingBlock: FUNLAD_clean_linker_1, # of connection points: 2
#     Edge 12, Type (0, 0), BuildingBlock: FUNLAD_clean_linker_1, # of connection points: 2
#     Edge 13, Type (0, 0), BuildingBlock: FUNLAD_clean_linker_1, # of connection points: 2
#     Edge 14, Type (0, 0), BuildingBlock: FUNLAD_clean_linker_1, # of connection points: 2
# Relax obj value: 0.146
# Max RMSD: 0.257
# Mean RMSD: 0.249
data_MOF--net-reo--node1-EBIMEJ_clean_sbu_0--edge1-FUNLAD_clean_linker_1
_symmetry_space_group_name_H-M    P1
_symmetry_Int_Tables_number       1
_symmetry_cell_setting            triclinic
loop_
_symmetry_equiv_pos_as_xyz
'x, y, z'
_cell_length_a     25.280918
_cell_length_b     25.495523
_cell_length_c     25.594737
_cell_angle_alpha  91.804395
_cell_angle_beta   92.518063
_cell_angle_gamma 100.3174
loop_
_atom_site_label
_atom_site_type_symbol
_atom_site_fract_x
_atom_site_fract_y
_atom_site_fract_z
_atom_type_partial_charge
Co0 Co 0.98803 0.02488 0.40124 0.0
Co1 Co 0.01547 0.08445 0.51464 0.0
Co2 Co 0.01031 0.96402 0.50273 0.0
H3 H 0.99332 1.00258 0.46171 0.0
O4 O 0.97318 0.02348 0.47411 0.0
H5 H 0.03329 0.04681 0.55625 0.0
O6 O 0.05241 0.02509 0.54368 0.0
Co7 Co 0.0426 0.02731 0.61769 0.0
O8 O 0.04699 0.10543 0.64021 0.0
O9 O 0.05528 0.14419 0.56261 0.0
O10 O 0.01931 0.94747 0.62702 0.0
O11 O 0.03496 0.90967 0.54943 0.0
O12 O 0.94436 0.04499 0.33817 0.0
O13 O 0.90635 1.00355 0.39953 0.0
O14 O 0.96934 0.03986 0.63136 0.0
O15 O 0.95011 0.0805 0.55828 0.0
C16 C 0.97887 0.90619 0.40082 0.0
C17 C 0.99593 0.14312 0.42036 0.0
C18 C 0.12985 1.01646 0.65656 0.0
C19 C 0.09529 0.99889 0.42375 0.0
C20 C 0.05654 0.14701 0.61289 0.0
C21 C 0.02653 0.90716 0.59879 0.0
C22 C 0.90046 0.02418 0.35642 0.0
C23 C 0.93816 0.06249 0.60318 0.0
O24 O 0.99199 0.94971 0.37744 0.0
O25 O 0.97353 0.90495 0.4508 0.0
O26 O 0.98919 0.13893 0.46972 0.0
O27 O 1.0046 0.10444 0.39084 0.0
O28 O 0.08662 1.00593 0.67978 0.0
O29 O 0.12355 0.03321 0.61168 0.0
O30 O 0.06694 0.02725 0.39883 0.0
O31 O 0.07738 0.96996 0.46138 0.0
Co32 Co 0.61493 0.03493 0.97166 0.0
Co33 Co 0.50274 0.0811 0.99028 0.0
Co34 Co 0.51402 0.97079 0.0235 0.0
H35 H 0.55304 1.00818 0.98948 0.0
O36 O 0.53634 0.02171 0.96479 0.0
H37 H 0.46593 0.04449 0.0271 0.0
O38 O 0.48389 0.03143 0.05118 0.0
Co39 Co 0.40539 1.01701 0.04816 0.0
O40 O 0.38269 0.08686 0.02999 0.0
O41 O 0.46168 0.13804 0.01406 0.0
O42 O 0.39376 0.9366 0.05075 0.0
O43 O 0.47568 0.91996 0.07262 0.0
O44 O 0.69544 0.04707 0.9572 0.0
O45 O 0.63714 0.02571 0.89641 0.0
O46 O 0.3964 0.9822 0.97687 0.0
O47 O 0.44325 0.0508 0.93722 0.0
C48 C 0.60079 0.91625 0.98908 0.0
C49 C 0.58872 0.13984 0.93098 0.0
C50 C 0.35125 0.02234 0.12528 0.0
C51 C 0.60676 0.03872 0.08279 0.0
C52 C 0.4112 0.13233 0.02223 0.0
C53 C 0.42451 0.90559 0.06796 0.0
C54 C 0.68652 0.03755 0.9089 0.0
C55 C 0.41035 1.00628 0.93583 0.0
O56 O 0.63202 0.9612 0.9854 0.0
O57 O 0.55044 0.91259 0.99619 0.0
O58 O 0.53794 0.13029 0.93764 0.0
O59 O 0.62122 0.1104 0.94741 0.0
O60 O 0.34042 0.04006 0.08171 0.0
O61 O 0.39302 1.00226 0.12537 0.0
O62 O 0.61853 0.06715 0.04394 0.0
O63 O 0.57438 0.99399 0.07784 0.0
Co64 Co 0.97401 0.62763 1.00551 0.0
Co65 Co 0.98555 0.51592 0.0658 0.0
Co66 Co 0.02313 0.53014 0.95556 0.0
H67 H 0.99068 0.568 0.98694 0.0
O68 O 0.96401 0.54921 1.00143 0.0
H69 H 0.01595 0.47674 0.03377 0.0
O70 O 0.04309 0.49494 0.01939 0.0
Co71 Co 0.03011 0.41623 0.01486 0.0
O72 O 0.01934 0.39946 0.09135 0.0
O73 O 1.00428 0.47618 0.12865 0.0
O74 O 0.03804 0.4097 0.93615 0.0
O75 O 0.07046 0.49312 0.91183 0.0
O76 O 0.95411 0.70202 0.99675 0.0
O77 O 0.89366 0.6359 1.0014 0.0
O78 O 0.95031 0.39552 0.99863 0.0
O79 O 0.92161 0.45837 0.04727 0.0
C80 C 0.99881 0.62008 0.89023 0.0
C81 C 0.94923 0.60446 0.11892 0.0
C82 C 0.09809 0.35565 0.01566 0.0
C83 C 0.09126 0.62817 0.01087 0.0
C84 C 0.01233 0.42806 0.13152 0.0
C85 C 0.06238 0.44216 0.90425 0.0
C86 C 0.90431 0.68553 0.99678 0.0
C87 C 0.91274 0.41582 0.01812 0.0
O88 O 0.99002 0.64771 0.93049 0.0
O89 O 1.00593 0.57155 0.89288 0.0
O90 O 0.93999 0.55372 0.1104 0.0
O91 O 0.96989 0.63685 0.0849 0.0
O92 O 0.05204 0.34454 0.99335 0.0
O93 O 0.10584 0.40127 0.03777 0.0
O94 O 0.05154 0.64502 0.02975 0.0
O95 O 0.08595 0.58848 0.97788 0.0
H96 H 0.97364 0.4089 0.20608 0.0
C97 C 1.00624 0.40146 0.18227 0.0
H98 H 0.06781 0.35801 0.17085 0.0
H99 H 0.96175 0.28475 0.40284 0.0
H100 H 0.97493 0.37836 0.42923 0.0
H101 H 0.01281 0.44762 0.36928 0.0
H102 H 0.03569 0.42363 0.28183 0.0
C103 C 0.03517 0.36378 0.19545 0.0
C104 C 0.01937 0.32296 0.23598 0.0
C105 C 0.01069 0.3375 0.28865 0.0
C106 C 0.99367 0.29724 0.32518 0.0
C107 C 0.97895 0.31323 0.37512 0.0
C108 C 0.98564 0.36696 0.39054 0.0
C109 C 1.00664 0.40595 0.35666 0.0
C110 C 0.01906 0.39164 0.3063 0.0
H111 H 0.02779 0.22906 0.41331 0.0
C112 C 0.99926 0.19546 0.39593 0.0
H113 H 0.9465 0.16377 0.33302 0.0
H114 H 0.02622 0.27898 0.13743 0.0
H115 H 0.02466 0.18624 0.11456 0.0
H116 H 0.01208 0.1183 0.1815 0.0
H117 H 0.99884 0.14255 0.27121 0.0
C118 C 0.97486 0.19862 0.34838 0.0
C119 C 0.99132 0.24244 0.31104 0.0
C120 C 1.00307 0.22816 0.25914 0.0
C121 C 0.01451 0.26796 0.22125 0.0
C122 C 0.02069 0.25134 0.16873 0.0
C123 C 0.01941 0.19792 0.15477 0.0
C124 C 0.012 0.15968 0.19236 0.0
C125 C 1.0039 0.17429 0.24384 0.0
H126 H 0.81273 1.00031 0.34811 0.0
C127 C 0.84775 0.02247 0.3303 0.0
H128 H 0.87618 0.06928 0.26708 0.0
H129 H 0.64676 0.92573 0.16967 0.0
H130 H 0.69514 0.85228 0.171 0.0
H131 H 0.78739 0.86355 0.21023 0.0
H132 H 0.83142 0.9487 0.24957 0.0
C133 C 0.84199 0.04566 0.28485 0.0
C134 C 0.78807 0.03978 0.25841 0.0
C135 C 0.76322 0.98973 0.2352 0.0
C136 C 0.71055 0.98349 0.21157 0.0
C137 C 0.68676 0.93314 0.18822 0.0
C138 C 0.71418 0.89043 0.18846 0.0
C139 C 0.76602 0.89675 0.21079 0.0
C140 C 0.79061 0.94581 0.23367 0.0
H141 H 0.67639 0.08408 0.12741 0.0
C142 C 0.64107 0.05306 0.13045 0.0
H143 H 0.60145 0.99278 0.17671 0.0
H144 H 0.82493 0.14057 0.30022 0.0
H145 H 0.77618 0.21445 0.30035 0.0
H146 H 0.68383 0.20319 0.26074 0.0
H147 H 0.63977 0.11783 0.2206 0.0
C148 C 0.63587 0.02462 0.17356 0.0
C149 C 0.68372 0.02778 0.20995 0.0
C150 C 0.70793 0.07724 0.235 0.0
C151 C 0.76061 0.08346 0.25859 0.0
C152 C 0.78469 0.13364 0.28201 0.0
C153 C 0.75718 0.17634 0.28235 0.0
C154 C 0.70522 0.17002 0.25998 0.0
C155 C 0.68057 0.12105 0.23674 0.0
H156 H 0.99504 0.86412 0.3295 0.0
C157 C 0.97593 0.85764 0.36666 0.0
H158 H 0.92696 0.79988 0.40958 0.0
H159 H 0.85516 0.68501 0.18129 0.0
H160 H 0.77481 0.71951 0.20181 0.0
H161 H 0.77232 0.77503 0.28187 0.0
H162 H 0.85037 0.79607 0.34273 0.0
C163 C 0.94977 0.80822 0.3749 0.0
C164 C 0.94779 0.76603 0.33213 0.0
C165 C 0.90125 0.7521 0.298 0.0
C166 C 0.90269 0.7202 0.25138 0.0
C167 C 0.85625 0.7089 0.21715 0.0
C168 C 0.80985 0.72849 0.22841 0.0
C169 C 0.80848 0.75972 0.27361 0.0
C170 C 0.85351 0.7715 0.30816 0.0
H171 H 0.91936 0.59972 0.19955 0.0
C172 C 0.93899 0.62664 0.17131 0.0
H173 H 0.97756 0.70537 0.15797 0.0
H174 H 0.04241 0.78083 0.39087 0.0
H175 H 0.12389 0.74868 0.36912 0.0
H176 H 0.12669 0.69441 0.28811 0.0
H177 H 0.04797 0.67175 0.2283 0.0
C178 C 0.95606 0.67867 0.18534 0.0
C179 C 0.95066 0.70216 0.23876 0.0
C180 C 0.99648 0.71418 0.274 0.0
C181 C 0.99498 0.7458 0.3207 0.0
C182 C 0.04163 0.75752 0.35467 0.0
C183 C 0.08852 0.73909 0.34279 0.0
C184 C 0.09011 0.70856 0.29714 0.0
C185 C 0.04473 0.69602 0.26307 0.0
H186 H 0.28471 0.04589 0.16737 0.0
C187 C 0.31802 0.02426 0.17049 0.0
H188 H 0.35862 0.9755 0.21737 0.0
H189 H 0.22373 0.10539 0.38091 0.0
H190 H 0.29319 0.18205 0.36682 0.0
H191 H 0.36328 0.17585 0.30392 0.0
H192 H 0.3644 0.09297 0.25492 0.0
C193 C 0.32697 0.99917 0.21441 0.0
C194 C 0.29093 1.00026 0.25835 0.0
C195 C 0.29213 0.04839 0.28792 0.0
C196 C 0.25192 0.0519 0.32412 0.0
C197 C 0.25316 0.10079 0.35244 0.0
C198 C 0.29291 0.14497 0.34492 0.0
C199 C 0.33237 0.14148 0.30954 0.0
C200 C 0.33237 0.09377 0.28145 0.0
H201 H 0.17294 0.96961 0.42317 0.0
C202 C 0.14801 0.99425 0.40343 0.0
H203 H 0.13785 0.04086 0.33801 0.0
H204 H 0.28113 0.90076 0.21147 0.0
H205 H 0.21055 0.82463 0.22385 0.0
H206 H 0.13889 0.83141 0.28476 0.0
H207 H 0.13783 0.91358 0.33433 0.0
C208 C 0.16236 1.01581 0.35772 0.0
C209 C 0.2108 1.00734 0.33066 0.0
C210 C 0.21129 0.9582 0.30317 0.0
C211 C 0.25196 0.95456 0.26731 0.0
C212 C 0.25105 0.90563 0.23915 0.0
C213 C 0.21077 0.86167 0.24584 0.0
C214 C 0.1705 0.86543 0.28022 0.0
C215 C 0.17046 0.91299 0.30857 0.0
H216 H 0.97649 0.83189 0.62023 0.0
C217 C 0.01703 0.85498 0.62433 0.0
H218 H 0.09138 0.86873 0.66593 0.0
H219 H 0.05144 0.77283 0.8822 0.0
H220 H 0.09572 0.86377 0.90252 0.0
H221 H 0.10984 0.92932 0.83344 0.0
H222 H 0.08147 0.90393 0.74358 0.0
C223 C 0.05199 0.84318 0.66177 0.0
C224 C 0.03694 0.80336 0.70388 0.0
C225 C 0.05029 0.81972 0.75735 0.0
C226 C 0.03874 0.78278 0.79797 0.0
C227 C 0.05667 0.79963 0.85013 0.0
C228 C 0.08252 0.85174 0.86242 0.0
C229 C 0.09074 0.88853 0.8235 0.0
C230 C 0.07472 0.87307 0.77172 0.0
H231 H 0.02708 0.62904 0.80933 0.0
C232 C 1.00623 0.64714 0.83931 0.0
H233 H 0.97169 0.71288 0.86196 0.0
H234 H 0.01503 0.75323 0.60693 0.0
H235 H 0.96319 0.6649 0.58742 0.0
H236 H 0.92934 0.60665 0.65831 0.0
H237 H 0.94868 0.6358 0.74921 0.0
C238 C 0.99202 0.69515 0.83127 0.0
C239 C 1.00979 0.73025 0.7864 0.0
C240 C 0.99515 0.71414 0.73323 0.0
C241 C 0.01095 0.74966 0.69203 0.0
C242 C 1.00054 0.72995 0.6396 0.0
C243 C 0.97143 0.6789 0.62784 0.0
C244 C 0.95262 0.646 0.66776 0.0
C245 C 0.96434 0.66312 0.71986 0.0
H246 H 0.34021 0.96088 0.89208 0.0
C247 C 0.37876 0.98693 0.88771 0.0
H248 H 0.42907 0.03283 0.83627 0.0
H249 H 0.19525 0.89746 0.72085 0.0
H250 H 0.23395 0.81741 0.73054 0.0
H251 H 0.325 0.82246 0.77172 0.0
H252 H 0.3779 0.90787 0.80355 0.0
C253 C 0.39096 1.00639 0.84098 0.0
C254 C 0.34611 1.00464 0.80151 0.0
C255 C 0.31672 0.95488 0.78164 0.0
C256 C 0.26469 0.95207 0.75749 0.0
C257 C 0.23524 0.90177 0.73931 0.0
C258 C 0.25696 0.85558 0.74465 0.0
C259 C 0.3082 0.85842 0.7679 0.0
C260 C 0.33797 0.90745 0.78622 0.0
H261 H 0.2178 0.02533 0.65712 0.0
C262 C 0.18263 1.01234 0.67961 0.0
H263 H 0.15406 0.98301 0.75145 0.0
H264 H 0.39543 0.10742 0.82918 0.0
H265 H 0.35736 0.1869 0.81923 0.0
H266 H 0.26521 0.18189 0.78034 0.0
H267 H 0.21181 0.097 0.74997 0.0
C268 C 0.18857 0.99634 0.72832 0.0
C269 C 0.24298 0.99918 0.75258 0.0
C270 C 0.27339 0.04932 0.77008 0.0
C271 C 0.32563 0.05214 0.79367 0.0
C272 C 0.35526 0.10263 0.81128 0.0
C273 C 0.33374 0.1488 0.8059 0.0
C274 C 0.28211 0.14596 0.78381 0.0
C275 C 0.25203 0.09691 0.76618 0.0
H276 H 0.11726 0.4006 0.86195 0.0
C277 C 0.08079 0.41729 0.85714 0.0
H278 H 1.0074 0.41375 0.81488 0.0
H279 H 0.15435 0.26665 0.67423 0.0
H280 H 0.22412 0.3454 0.6745 0.0
H281 H 0.21367 0.42868 0.72132 0.0
H282 H 0.13396 0.43332 0.76929 0.0
C283 C 0.04543 0.39945 0.81679 0.0
C284 C 0.05004 0.35152 0.78263 0.0
C285 C 0.09539 0.35033 0.75195 0.0
C286 C 0.10006 0.30302 0.72233 0.0
C287 C 0.14763 0.30197 0.69548 0.0
C288 C 0.18816 0.34686 0.69554 0.0
C289 C 0.18237 0.39369 0.72207 0.0
C290 C 0.13658 0.39568 0.74986 0.0
H291 H 0.06528 0.23536 0.61638 0.0
C292 C 0.06363 0.20054 0.64008 0.0
H293 H 0.05941 0.17132 0.71619 0.0
H294 H 0.95822 0.33745 0.83861 0.0
H295 H 0.88607 0.26103 0.83311 0.0
H296 H 0.89034 0.18311 0.77493 0.0
H297 H 0.96755 0.18117 0.72258 0.0
C298 C 0.06296 0.20644 0.6927 0.0
C299 C 0.05792 0.25785 0.72071 0.0
C300 C 0.01151 0.25992 0.74952 0.0
C301 C 1.00805 0.30601 0.7813 0.0
C302 C 0.96243 0.30486 0.81201 0.0
C303 C 0.92065 0.26091 0.8096 0.0
C304 C 0.92311 0.217 0.777 0.0
C305 C 0.96786 0.21628 0.74737 0.0
H306 H 0.77047 0.0557 0.88584 0.0
C307 C 0.72889 0.04382 0.87118 0.0
H308 H 0.67547 0.02698 0.80457 0.0
H309 H 0.83529 0.15538 0.65172 0.0
H310 H 0.76691 0.21097 0.65669 0.0
H311 H 0.69433 0.19191 0.71849 0.0
H312 H 0.68951 0.11714 0.7755 0.0
C313 C 0.71711 0.03673 0.81954 0.0
C314 C 0.75988 0.04686 0.78137 0.0
C315 C 0.76077 0.08965 0.74701 0.0
C316 C 0.80256 0.10079 0.71143 0.0
C317 C 0.80399 0.14493 0.67901 0.0
C318 C 0.76511 0.17722 0.6816 0.0
C319 C 0.72422 0.16645 0.71637 0.0
C320 C 0.72183 0.12325 0.74877 0.0
H321 H 0.85008 0.06073 0.60381 0.0
C322 C 0.88811 0.07069 0.62647 0.0
H323 H 0.92889 0.09236 0.69938 0.0
H324 H 0.76922 0.96024 0.84057 0.0
H325 H 0.84289 0.91106 0.84109 0.0
H326 H 0.91433 0.92975 0.77857 0.0
H327 H 0.91471 0.99999 0.71733 0.0
C328 C 0.89 0.08292 0.67802 0.0
C329 C 0.84296 0.06903 0.71034 0.0
C330 C 0.84208 0.02621 0.74454 0.0
C331 C 0.80042 1.01495 0.78006 0.0
C332 C 0.80066 0.97186 0.81374 0.0
C333 C 0.84215 0.9425 0.81386 0.0
C334 C 0.88266 0.95326 0.7789 0.0
C335 C 0.88251 0.99408 0.74416 0.0
H336 H 0.12623 0.28157 0.9921 0.0
C337 C 0.138 0.31939 0.01401 0.0
H338 H 0.19934 0.3683 0.06095 0.0
H339 H 0.3211 0.18186 0.12705 0.0
H340 H 0.28333 0.20318 0.2089 0.0
H341 H 0.21953 0.26583 0.21223 0.0
H342 H 0.19308 0.30765 0.13379 0.0
C343 C 0.18771 0.33138 0.03756 0.0
C344 C 0.22706 0.29364 0.0352 0.0
C345 C 0.24251 0.26965 0.08141 0.0
C346 C 0.27893 0.23291 0.07939 0.0
C347 C 0.29316 0.20946 0.12622 0.0
C348 C 0.27192 0.22147 0.17351 0.0
C349 C 0.23606 0.25681 0.17539 0.0
C350 C 0.22133 0.28066 0.13006 0.0
H351 H 0.40773 0.21897 0.01755 0.0
C352 C 0.38395 0.17967 0.02245 0.0
H353 H 0.30675 0.13521 0.03441 0.0
H354 H 0.21215 0.3372 0.94051 0.0
H355 H 0.24958 0.3155 0.85879 0.0
H356 H 0.31002 0.25016 0.85477 0.0
H357 H 0.33327 0.20492 0.93238 0.0
C358 C 0.33028 0.17438 0.02834 0.0
C359 C 0.3002 0.21993 0.03121 0.0
C360 C 0.28606 0.24507 0.98522 0.0
C361 C 0.25001 0.28229 0.98734 0.0
C362 C 0.23791 0.30763 0.94101 0.0
C363 C 0.25937 0.29576 0.89383 0.0
C364 C 0.29341 0.25877 0.89157 0.0
C365 C 0.30658 0.23337 0.93648 0.0
H366 H 0.14564 0.69462 0.05163 0.0
C367 C 0.14477 0.65891 0.02689 0.0
H368 H 0.19212 0.61271 0.98566 0.0
H369 H 0.36062 0.83022 0.96811 0.0
H370 H 0.33616 0.80459 0.87693 0.0
H371 H 0.2694 0.72345 0.85271 0.0
H372 H 0.22657 0.66757 0.91959 0.0
C373 C 0.19152 0.64703 0.01173 0.0
C374 C 0.24223 0.68553 0.0257 0.0
C375 C 0.26878 0.71602 0.98605 0.0
C376 C 0.30727 0.76273 1.00001 0.0
C377 C 0.33115 0.79426 0.9597 0.0
C378 C 0.31752 0.77999 0.90719 0.0
C379 C 0.27993 0.73431 0.89357 0.0
C380 C 0.25562 0.7026 0.93236 0.0
H381 H 0.42581 0.81916 0.07516 0.0
C382 C 0.40006 0.84896 0.07312 0.0
H383 H 0.32047 0.86367 0.06466 0.0
H384 H 0.20789 0.62912 0.11065 0.0
H385 H 0.23199 0.6553 0.20214 0.0
H386 H 0.29641 0.7382 0.22624 0.0
H387 H 0.33787 0.79494 0.15902 0.0
C388 C 0.34626 0.8339 0.06711 0.0
C389 C 0.31934 0.7784 0.0535 0.0
C390 C 0.29648 0.7454 0.093 0.0
C391 C 0.25842 0.6984 0.07909 0.0
C392 C 0.23599 0.666 0.11933 0.0
C393 C 0.2497 0.68042 0.17183 0.0
C394 C 0.28604 0.72706 0.18541 0.0
C395 C 0.30941 0.7593 0.14657 0.0
H396 H 0.64746 0.18431 0.8835 0.0
C397 C 0.61491 0.18943 0.90853 0.0
H398 H 0.58891 0.2396 0.96404 0.0
H399 H 0.81953 0.31178 0.07027 0.0
H400 H 0.76718 0.27135 0.14003 0.0
H401 H 0.67253 0.22786 0.1232 0.0
H402 H 0.62966 0.22499 0.03701 0.0
C403 C 0.62002 0.23526 0.93711 0.0
C404 C 0.67511 0.26794 0.94805 0.0
C405 C 0.69933 0.27023 0.99962 0.0
C406 C 0.75407 0.29533 1.00951 0.0
C407 C 0.77777 0.29487 0.06073 0.0
C408 C 0.74832 0.27124 0.1012 0.0
C409 C 0.69507 0.24677 0.09172 0.0
C410 C 0.67079 0.2458 0.04171 0.0
H411 H 0.82491 0.40727 0.02498 0.0
C412 C 0.85619 0.38935 1.00747 0.0
H413 H 0.87271 0.32629 0.95885 0.0
H414 H 0.64089 0.2743 0.84587 0.0
H415 H 0.69589 0.30845 0.77478 0.0
H416 H 0.79185 0.34792 0.79139 0.0
H417 H 0.83323 0.35398 0.87912 0.0
C418 C 0.84219 0.34401 0.97789 0.0
C419 C 0.78468 0.31813 0.96802 0.0
C420 C 0.76097 0.31493 0.91651 0.0
C421 C 0.70593 0.2909 0.90669 0.0
C422 C 0.68297 0.29021 0.85515 0.0
C423 C 0.71396 0.31016 0.81408 0.0
C424 C 0.76795 0.33244 0.82343 0.0
C425 C 0.79124 0.33549 0.87402 0.0
H426 H 0.87924 0.76354 0.98861 0.0
C427 C 0.86411 0.72117 0.99201 0.0
H428 H 0.79505 0.66157 0.99638 0.0
H429 H 0.64643 0.82198 0.07353 0.0
H430 H 0.64249 0.76027 0.1437 0.0
H431 H 0.69784 0.69004 0.14417 0.0
H432 H 0.75889 0.68198 0.07511 0.0
C433 C 0.81051 0.70365 0.99165 0.0
C434 C 0.77125 0.74135 0.98774 0.0
C435 C 0.73654 0.74638 0.02908 0.0
C436 C 0.70341 0.78627 0.02818 0.0
C437 C 0.67096 0.7915 0.07103 0.0
C438 C 0.66864 0.75655 0.11193 0.0
C439 C 0.70006 0.71717 0.11234 0.0
C440 C 0.73458 0.7127 0.07216 0.0
H441 H 0.59726 0.82843 0.98627 0.0
C442 C 0.62421 0.86679 0.98678 0.0
H443 H 0.70483 0.90686 0.98649 0.0
H444 H 0.82101 0.73272 0.89574 0.0
H445 H 0.81176 0.78313 0.81817 0.0
H446 H 0.75227 0.8499 0.81575 0.0
H447 H 0.70414 0.86909 0.8919 0.0
C448 C 0.67794 0.86854 0.98726 0.0
C449 C 0.70387 0.82015 0.98516 0.0
C450 C 0.73389 0.81097 0.94135 0.0
C451 C 0.76761 0.77173 0.94258 0.0
C452 C 0.79576 0.76271 0.89749 0.0
C453 C 0.7904 0.791 0.85247 0.0
C454 C 0.75705 0.82875 0.85116 0.0
C455 C 0.72974 0.83943 0.89518 0.0
loop_
_geom_bond_atom_site_label_1
_geom_bond_atom_site_label_2
_geom_bond_distance
_geom_bond_site_symmetry_2
_ccdc_geom_bond_type
Co0 H3 2.400 . S
Co0 O4 2.009 . S
Co0 O12 2.113 1_565 S
Co0 O13 2.315 . S
Co0 O24 2.053 . S
Co0 O27 2.094 1_565 S
Co0 O30 2.122 1_665 S
Co1 O4 2.126 1_545 S
Co1 H5 2.388 1_655 S
Co1 O6 2.053 1_655 S
Co1 O9 2.047 1_655 S
Co1 O15 2.113 . S
Co1 O26 2.063 . S
Co2 H3 2.388 1_455 S
Co2 O4 2.053 1_455 S
Co2 O6 2.126 1_565 S
Co2 O11 2.063 . S
Co2 O25 2.047 1_455 S
Co2 O31 2.113 . S
H3 Co0 2.400 . S
H3 Co2 2.388 1_655 S
H3 O4 0.760 . S
O4 Co0 2.009 . S
O4 Co1 2.126 1_565 S
O4 Co2 2.053 1_655 S
O4 H3 0.760 . S
H5 Co1 2.388 1_455 S
H5 O6 0.760 . S
H5 Co7 2.400 . S
O6 Co1 2.053 1_455 S
O6 Co2 2.126 1_545 S
O6 H5 0.760 . S
O6 Co7 2.009 . S
Co7 H5 2.400 . S
Co7 O6 2.009 . S
Co7 O8 2.053 . S
Co7 O10 2.094 1_545 S
Co7 O14 2.122 1_445 S
Co7 O28 2.114 1_545 S
Co7 O29 2.315 . S
O8 Co7 2.053 . S
O8 C20 1.259 . S
O9 Co1 2.047 1_455 S
O9 C20 1.257 . S
O10 Co7 2.094 1_565 S
O10 C21 1.253 . S
O11 Co2 2.063 . S
O11 C21 1.268 . S
O12 Co0 2.113 1_545 S
O12 C22 1.286 1_545 S
O13 Co0 2.315 . S
O13 C22 1.255 . S
O14 Co7 2.122 1_665 S
O14 C23 1.272 1_565 S
O15 Co1 2.113 . S
O15 C23 1.245 . S
C16 O24 1.259 . S
C16 O25 1.257 . S
C17 O26 1.268 . S
C17 O27 1.253 . S
C18 O28 1.286 1_545 S
C18 O29 1.256 . S
C19 O30 1.272 1_565 S
C19 O31 1.245 . S
C20 O8 1.259 . S
C20 O9 1.257 . S
C21 O10 1.253 . S
C21 O11 1.268 . S
C22 O12 1.286 1_565 S
C22 O13 1.255 . S
C23 O14 1.272 1_545 S
C23 O15 1.245 . S
O24 Co0 2.053 . S
O24 C16 1.259 . S
O25 Co2 2.047 1_655 S
O25 C16 1.257 . S
O26 Co1 2.063 . S
O26 C17 1.268 . S
O27 Co0 2.094 1_545 S
O27 C17 1.253 . S
O28 Co7 2.114 1_565 S
O28 C18 1.286 1_565 S
O29 Co7 2.315 . S
O29 C18 1.256 . S
O30 Co0 2.122 1_445 S
O30 C19 1.272 1_545 S
O31 Co2 2.113 . S
O31 C19 1.245 . S
Co32 H35 2.400 1_545 S
Co32 O36 2.011 1_545 S
Co32 O44 2.115 . S
Co32 O45 2.315 . S
Co32 O56 2.053 1_545 S
Co32 O59 2.094 . S
Co32 O62 2.122 1_556 S
Co33 O36 2.111 1_545 S
Co33 H37 2.388 1_556 S
Co33 O38 2.068 1_556 S
Co33 O41 2.047 1_556 S
Co33 O47 2.113 . S
Co33 O58 2.063 . S
Co34 H35 2.388 1_554 S
Co34 O36 2.065 1_554 S
Co34 O38 2.107 1_565 S
Co34 O43 2.063 . S
Co34 O57 2.047 1_554 S
Co34 O63 2.113 . S
H35 Co32 2.400 1_565 S
H35 Co34 2.388 1_556 S
H35 O36 0.761 . S
O36 Co32 2.011 1_565 S
O36 Co33 2.111 1_565 S
O36 Co34 2.065 1_556 S
O36 H35 0.761 . S
H37 Co33 2.388 1_554 S
H37 O38 0.762 . S
H37 Co39 2.400 1_545 S
O38 Co33 2.068 1_554 S
O38 Co34 2.107 1_545 S
O38 H37 0.762 . S
O38 Co39 2.012 1_545 S
Co39 H37 2.400 1_565 S
Co39 O38 2.012 1_565 S
Co39 O40 2.053 1_565 S
Co39 O42 2.094 . S
Co39 O46 2.122 1_554 S
Co39 O60 2.115 . S
Co39 O61 2.315 . S
O40 Co39 2.053 1_545 S
O40 C52 1.259 . S
O41 Co33 2.047 1_554 S
O41 C52 1.257 . S
O42 Co39 2.094 . S
O42 C53 1.253 . S
O43 Co34 2.063 . S
O43 C53 1.268 . S
O44 Co32 2.115 . S
O44 C54 1.281 . S
O45 Co32 2.315 . S
O45 C54 1.252 . S
O46 Co39 2.122 1_556 S
O46 C55 1.272 1_565 S
O47 Co33 2.113 . S
O47 C55 1.245 . S
C48 O56 1.259 . S
C48 O57 1.257 . S
C49 O58 1.268 . S
C49 O59 1.253 . S
C50 O60 1.281 . S
C50 O61 1.252 . S
C51 O62 1.272 1_565 S
C51 O63 1.245 . S
C52 O40 1.259 . S
C52 O41 1.257 . S
C53 O42 1.253 . S
C53 O43 1.268 . S
C54 O44 1.281 . S
C54 O45 1.252 . S
C55 O46 1.272 1_545 S
C55 O47 1.245 . S
O56 Co32 2.053 1_565 S
O56 C48 1.259 . S
O57 Co34 2.047 1_556 S
O57 C48 1.257 . S
O58 Co33 2.063 . S
O58 C49 1.268 . S
O59 Co32 2.094 . S
O59 C49 1.253 . S
O60 Co39 2.115 . S
O60 C50 1.281 . S
O61 Co39 2.315 . S
O61 C50 1.252 . S
O62 Co32 2.122 1_554 S
O62 C51 1.272 1_545 S
O63 Co34 2.113 . S
O63 C51 1.245 . S
Co64 H67 2.399 1_554 S
Co64 O68 2.009 1_554 S
Co64 O76 2.116 . S
Co64 O77 2.317 . S
Co64 O88 2.033 1_554 S
Co64 O91 2.114 . S
Co64 O94 2.123 1_655 S
Co65 O68 2.126 1_554 S
Co65 H69 2.388 1_655 S
Co65 O70 2.053 1_655 S
Co65 O73 2.047 1_655 S
Co65 O79 2.113 . S
Co65 O90 2.063 . S
Co66 H67 2.388 1_455 S
Co66 O68 2.053 1_455 S
Co66 O70 2.126 1_556 S
Co66 O75 2.063 . S
Co66 O89 2.047 1_455 S
Co66 O95 2.113 . S
H67 Co64 2.399 1_556 S
H67 Co66 2.388 1_655 S
H67 O68 0.760 . S
O68 Co64 2.009 1_556 S
O68 Co65 2.126 1_556 S
O68 Co66 2.053 1_655 S
O68 H67 0.760 . S
H69 Co65 2.388 1_455 S
H69 O70 0.760 . S
H69 Co71 2.400 1_554 S
O70 Co65 2.053 1_455 S
O70 Co66 2.126 1_554 S
O70 H69 0.760 . S
O70 Co71 2.009 1_554 S
Co71 H69 2.400 1_556 S
Co71 O70 2.009 1_556 S
Co71 O72 2.038 1_556 S
Co71 O74 2.108 . S
Co71 O78 2.123 1_455 S
Co71 O92 2.116 . S
Co71 O93 2.316 . S
O72 Co71 2.038 1_554 S
O72 C84 1.259 . S
O73 Co65 2.047 1_455 S
O73 C84 1.257 . S
O74 Co71 2.108 . S
O74 C85 1.253 . S
O75 Co66 2.063 . S
O75 C85 1.268 . S
O76 Co64 2.116 . S
O76 C86 1.281 . S
O77 Co64 2.317 . S
O77 C86 1.252 . S
O78 Co71 2.123 1_655 S
O78 C87 1.272 1_556 S
O79 Co65 2.113 . S
O79 C87 1.245 . S
C80 O88 1.259 . S
C80 O89 1.257 . S
C81 O90 1.268 . S
C81 O91 1.253 . S
C82 O92 1.281 . S
C82 O93 1.252 . S
C83 O94 1.272 1_556 S
C83 O95 1.245 . S
C84 O72 1.259 . S
C84 O73 1.257 . S
C85 O74 1.253 . S
C85 O75 1.268 . S
C86 O76 1.281 . S
C86 O77 1.252 . S
C87 O78 1.272 1_554 S
C87 O79 1.245 . S
O88 Co64 2.033 1_556 S
O88 C80 1.259 . S
O89 Co66 2.047 1_655 S
O89 C80 1.257 . S
O90 Co65 2.063 . S
O90 C81 1.268 . S
O91 Co64 2.114 . S
O91 C81 1.253 . S
O92 Co71 2.116 . S
O92 C82 1.281 . S
O93 Co71 2.316 . S
O93 C82 1.252 . S
O94 Co64 2.123 1_455 S
O94 C83 1.272 1_554 S
O95 Co66 2.113 . S
O95 C83 1.245 . S
H96 C97 0.949 1_655 S
C97 H96 0.949 1_455 S
C97 C103 1.266 . S
H98 C103 0.950 . S
H99 C107 0.949 . S
H100 C108 0.950 . S
H101 C109 0.951 . S
H102 C110 0.951 1_455 S
C103 C97 1.266 . S
C103 H98 0.950 . S
C103 C104 1.478 1_455 S
C104 C103 1.478 1_655 S
C104 C105 1.396 . S
C104 C121 1.394 . S
C105 C104 1.396 . S
C105 C106 1.438 . S
C105 C110 1.429 . S
C106 C105 1.438 . S
C106 C107 1.428 . S
C106 C119 1.394 . S
C107 H99 0.949 . S
C107 C106 1.428 . S
C107 C108 1.345 . S
C108 H100 0.950 . S
C108 C107 1.345 . S
C108 C109 1.424 . S
C109 H101 0.951 . S
C109 C108 1.424 . S
C109 C110 1.347 . S
C110 H102 0.951 1_655 S
C110 C105 1.429 . S
C110 C109 1.347 . S
H111 C112 0.951 . S
C112 H111 0.951 . S
C112 C118 1.265 . S
H113 C118 0.950 . S
H114 C122 0.949 . S
H115 C123 0.950 1_455 S
H116 C124 0.951 . S
H117 C125 0.951 . S
C118 C112 1.265 . S
C118 H113 0.950 . S
C118 C119 1.478 . S
C119 C106 1.394 . S
C119 C118 1.478 . S
C119 C120 1.397 . S
C120 C119 1.397 . S
C120 C121 1.438 . S
C120 C125 1.429 . S
C121 C104 1.394 . S
C121 C120 1.438 . S
C121 C122 1.428 1_655 S
C122 H114 0.949 . S
C122 C121 1.428 1_455 S
C122 C123 1.345 1_455 S
C123 H115 0.950 1_655 S
C123 C122 1.345 1_655 S
C123 C124 1.424 . S
C124 H116 0.951 . S
C124 C123 1.424 . S
C124 C125 1.347 . S
C125 H117 0.951 . S
C125 C120 1.429 . S
C125 C124 1.347 . S
H126 C127 0.951 . S
C127 H126 0.951 . S
C127 C133 1.265 . S
H128 C133 0.950 1_565 S
H129 C137 0.949 . S
H130 C138 0.950 . S
H131 C139 0.951 . S
H132 C140 0.951 . S
C133 C127 1.265 . S
C133 H128 0.950 1_545 S
C133 C134 1.478 1_545 S
C134 C133 1.478 1_565 S
C134 C135 1.397 . S
C134 C151 1.394 1_565 S
C135 C134 1.397 . S
C135 C136 1.438 . S
C135 C140 1.429 . S
C136 C135 1.438 . S
C136 C137 1.428 . S
C136 C149 1.394 . S
C137 H129 0.949 . S
C137 C136 1.428 . S
C137 C138 1.345 . S
C138 H130 0.950 . S
C138 C137 1.345 . S
C138 C139 1.424 . S
C139 H131 0.951 . S
C139 C138 1.424 . S
C139 C140 1.347 . S
C140 H132 0.951 . S
C140 C135 1.429 . S
C140 C139 1.347 . S
H141 C142 0.951 . S
C142 H141 0.951 . S
C142 C148 1.265 . S
H143 C148 0.950 . S
H144 C152 0.949 . S
H145 C153 0.950 . S
H146 C154 0.951 . S
H147 C155 0.951 . S
C148 C142 1.265 . S
C148 H143 0.950 . S
C148 C149 1.478 . S
C149 C136 1.394 . S
C149 C148 1.478 . S
C149 C150 1.397 1_565 S
C150 C149 1.397 1_545 S
C150 C151 1.438 . S
C150 C155 1.429 . S
C151 C134 1.394 1_545 S
C151 C150 1.438 . S
C151 C152 1.428 . S
C152 H144 0.949 . S
C152 C151 1.428 . S
C152 C153 1.345 . S
C153 H145 0.950 . S
C153 C152 1.345 . S
C153 C154 1.424 . S
C154 H146 0.951 . S
C154 C153 1.424 . S
C154 C155 1.347 . S
C155 H147 0.951 . S
C155 C150 1.429 . S
C155 C154 1.347 . S
H156 C157 0.951 . S
C157 H156 0.951 . S
C157 C163 1.265 . S
H158 C163 0.950 . S
H159 C167 0.949 . S
H160 C168 0.950 . S
H161 C169 0.951 . S
H162 C170 0.951 . S
C163 C157 1.265 . S
C163 H158 0.950 . S
C163 C164 1.478 . S
C164 C163 1.478 . S
C164 C165 1.397 . S
C164 C181 1.394 . S
C165 C164 1.397 . S
C165 C166 1.438 . S
C165 C170 1.429 . S
C166 C165 1.438 . S
C166 C167 1.428 . S
C166 C179 1.394 . S
C167 H159 0.949 . S
C167 C166 1.428 . S
C167 C168 1.345 . S
C168 H160 0.950 . S
C168 C167 1.345 . S
C168 C169 1.424 . S
C169 H161 0.951 . S
C169 C168 1.424 . S
C169 C170 1.347 . S
C170 H162 0.951 . S
C170 C165 1.429 . S
C170 C169 1.347 . S
H171 C172 0.951 . S
C172 H171 0.951 . S
C172 C178 1.265 . S
H173 C178 0.950 . S
H174 C182 0.949 . S
H175 C183 0.950 . S
H176 C184 0.951 . S
H177 C185 0.951 . S
C178 C172 1.265 . S
C178 H173 0.950 . S
C178 C179 1.478 . S
C179 C166 1.394 . S
C179 C178 1.478 . S
C179 C180 1.397 1_655 S
C180 C179 1.397 1_455 S
C180 C181 1.438 1_455 S
C180 C185 1.429 . S
C181 C164 1.394 . S
C181 C180 1.438 1_655 S
C181 C182 1.428 1_655 S
C182 H174 0.949 . S
C182 C181 1.428 1_455 S
C182 C183 1.345 . S
C183 H175 0.950 . S
C183 C182 1.345 . S
C183 C184 1.424 . S
C184 H176 0.951 . S
C184 C183 1.424 . S
C184 C185 1.347 . S
C185 H177 0.951 . S
C185 C180 1.429 . S
C185 C184 1.347 . S
H186 C187 0.951 . S
C187 H186 0.951 . S
C187 C193 1.265 . S
H188 C193 0.950 . S
H189 C197 0.949 . S
H190 C198 0.950 . S
H191 C199 0.951 . S
H192 C200 0.951 . S
C193 C187 1.265 . S
C193 H188 0.950 . S
C193 C194 1.478 . S
C194 C193 1.478 . S
C194 C195 1.397 1_565 S
C194 C211 1.394 . S
C195 C194 1.397 1_545 S
C195 C196 1.438 . S
C195 C200 1.429 . S
C196 C195 1.438 . S
C196 C197 1.428 . S
C196 C209 1.394 1_545 S
C197 H189 0.949 . S
C197 C196 1.428 . S
C197 C198 1.345 . S
C198 H190 0.950 . S
C198 C197 1.345 . S
C198 C199 1.424 . S
C199 H191 0.951 . S
C199 C198 1.424 . S
C199 C200 1.347 . S
C200 H192 0.951 . S
C200 C195 1.429 . S
C200 C199 1.347 . S
H201 C202 0.951 . S
C202 H201 0.951 . S
C202 C208 1.265 . S
H203 C208 0.950 . S
H204 C212 0.949 . S
H205 C213 0.950 . S
H206 C214 0.951 . S
H207 C215 0.951 . S
C208 C202 1.265 . S
C208 H203 0.950 . S
C208 C209 1.478 . S
C209 C196 1.394 1_565 S
C209 C208 1.478 . S
C209 C210 1.397 . S
C210 C209 1.397 . S
C210 C211 1.438 . S
C210 C215 1.429 . S
C211 C194 1.394 . S
C211 C210 1.438 . S
C211 C212 1.428 . S
C212 H204 0.949 . S
C212 C211 1.428 . S
C212 C213 1.345 . S
C213 H205 0.950 . S
C213 C212 1.345 . S
C213 C214 1.424 . S
C214 H206 0.951 . S
C214 C213 1.424 . S
C214 C215 1.347 . S
C215 H207 0.951 . S
C215 C210 1.429 . S
C215 C214 1.347 . S
H216 C217 0.951 . S
C217 H216 0.951 . S
C217 C223 1.265 . S
H218 C223 0.950 . S
H219 C227 0.949 . S
H220 C228 0.950 . S
H221 C229 0.951 . S
H222 C230 0.951 . S
C223 C217 1.265 . S
C223 H218 0.950 . S
C223 C224 1.478 . S
C224 C223 1.478 . S
C224 C225 1.397 . S
C224 C241 1.394 . S
C225 C224 1.397 . S
C225 C226 1.438 . S
C225 C230 1.429 . S
C226 C225 1.438 . S
C226 C227 1.428 . S
C226 C239 1.394 1_455 S
C227 H219 0.949 . S
C227 C226 1.428 . S
C227 C228 1.345 . S
C228 H220 0.950 . S
C228 C227 1.345 . S
C228 C229 1.424 . S
C229 H221 0.951 . S
C229 C228 1.424 . S
C229 C230 1.347 . S
C230 H222 0.951 . S
C230 C225 1.429 . S
C230 C229 1.347 . S
H231 C232 0.965 . S
C232 H231 0.965 . S
C232 C238 1.256 1_455 S
H233 C238 0.950 . S
H234 C242 0.949 1_455 S
H235 C243 0.950 . S
H236 C244 0.951 . S
H237 C245 0.951 . S
C238 C232 1.256 1_655 S
C238 H233 0.950 . S
C238 C239 1.478 . S
C239 C226 1.394 1_655 S
C239 C238 1.478 . S
C239 C240 1.397 . S
C240 C239 1.397 . S
C240 C241 1.438 1_655 S
C240 C245 1.429 . S
C241 C224 1.394 . S
C241 C240 1.438 1_455 S
C241 C242 1.428 1_455 S
C242 H234 0.949 1_655 S
C242 C241 1.428 1_655 S
C242 C243 1.345 . S
C243 H235 0.950 . S
C243 C242 1.345 . S
C243 C244 1.424 . S
C244 H236 0.951 . S
C244 C243 1.424 . S
C244 C245 1.347 . S
C245 H237 0.951 . S
C245 C240 1.429 . S
C245 C244 1.347 . S
H246 C247 0.951 . S
C247 H246 0.951 . S
C247 C253 1.265 . S
H248 C253 0.950 . S
H249 C257 0.949 . S
H250 C258 0.950 . S
H251 C259 0.951 . S
H252 C260 0.951 . S
C253 C247 1.265 . S
C253 H248 0.950 . S
C253 C254 1.478 . S
C254 C253 1.478 . S
C254 C255 1.397 1_545 S
C254 C271 1.394 . S
C255 C254 1.397 1_565 S
C255 C256 1.438 . S
C255 C260 1.429 . S
C256 C255 1.438 . S
C256 C257 1.428 . S
C256 C269 1.395 . S
C257 H249 0.949 . S
C257 C256 1.428 . S
C257 C258 1.345 . S
C258 H250 0.950 . S
C258 C257 1.345 . S
C258 C259 1.424 . S
C259 H251 0.951 . S
C259 C258 1.424 . S
C259 C260 1.347 . S
C260 H252 0.951 . S
C260 C255 1.429 . S
C260 C259 1.347 . S
H261 C262 0.951 1_545 S
C262 H261 0.951 1_565 S
C262 C268 1.265 . S
H263 C268 0.950 . S
H264 C272 0.949 . S
H265 C273 0.950 . S
H266 C274 0.951 . S
H267 C275 0.951 . S
C268 C262 1.265 . S
C268 H263 0.950 . S
C268 C269 1.478 . S
C269 C256 1.395 . S
C269 C268 1.478 . S
C269 C270 1.396 1_565 S
C270 C269 1.396 1_545 S
C270 C271 1.438 . S
C270 C275 1.429 . S
C271 C254 1.394 . S
C271 C270 1.438 . S
C271 C272 1.428 . S
C272 H264 0.949 . S
C272 C271 1.428 . S
C272 C273 1.345 . S
C273 H265 0.950 . S
C273 C272 1.345 . S
C273 C274 1.424 . S
C274 H266 0.951 . S
C274 C273 1.424 . S
C274 C275 1.347 . S
C275 H267 0.951 . S
C275 C270 1.429 . S
C275 C274 1.347 . S
H276 C277 0.951 . S
C277 H276 0.951 . S
C277 C283 1.265 . S
H278 C283 0.950 . S
H279 C287 0.949 . S
H280 C288 0.950 . S
H281 C289 0.951 . S
H282 C290 0.951 . S
C283 C277 1.265 . S
C283 H278 0.950 . S
C283 C284 1.478 . S
C284 C283 1.478 . S
C284 C285 1.397 . S
C284 C301 1.394 . S
C285 C284 1.397 . S
C285 C286 1.438 . S
C285 C290 1.429 . S
C286 C285 1.438 . S
C286 C287 1.428 . S
C286 C299 1.394 . S
C287 H279 0.949 . S
C287 C286 1.428 . S
C287 C288 1.345 . S
C288 H280 0.950 . S
C288 C287 1.345 . S
C288 C289 1.424 . S
C289 H281 0.951 . S
C289 C288 1.424 . S
C289 C290 1.347 . S
C290 H282 0.951 . S
C290 C285 1.429 . S
C290 C289 1.347 . S
H291 C292 0.951 . S
C292 H291 0.951 . S
C292 C298 1.265 . S
H293 C298 0.950 . S
H294 C302 0.949 . S
H295 C303 0.950 . S
H296 C304 0.951 . S
H297 C305 0.951 . S
C298 C292 1.265 . S
C298 H293 0.950 . S
C298 C299 1.478 . S
C299 C286 1.394 . S
C299 C298 1.478 . S
C299 C300 1.397 . S
C300 C299 1.397 . S
C300 C301 1.438 . S
C300 C305 1.429 1_455 S
C301 C284 1.394 . S
C301 C300 1.438 . S
C301 C302 1.428 1_455 S
C302 H294 0.949 . S
C302 C301 1.428 1_655 S
C302 C303 1.345 . S
C303 H295 0.950 . S
C303 C302 1.345 . S
C303 C304 1.424 . S
C304 H296 0.951 . S
C304 C303 1.424 . S
C304 C305 1.347 . S
C305 H297 0.951 . S
C305 C300 1.429 1_655 S
C305 C304 1.347 . S
H306 C307 0.951 . S
C307 H306 0.951 . S
C307 C313 1.265 . S
H308 C313 0.950 . S
H309 C317 0.949 . S
H310 C318 0.950 . S
H311 C319 0.951 . S
H312 C320 0.951 . S
C313 C307 1.265 . S
C313 H308 0.950 . S
C313 C314 1.478 . S
C314 C313 1.478 . S
C314 C315 1.397 . S
C314 C331 1.394 1_545 S
C315 C314 1.397 . S
C315 C316 1.438 . S
C315 C320 1.429 . S
C316 C315 1.438 . S
C316 C317 1.428 . S
C316 C329 1.394 . S
C317 H309 0.949 . S
C317 C316 1.428 . S
C317 C318 1.345 . S
C318 H310 0.950 . S
C318 C317 1.345 . S
C318 C319 1.424 . S
C319 H311 0.951 . S
C319 C318 1.424 . S
C319 C320 1.347 . S
C320 H312 0.951 . S
C320 C315 1.429 . S
C320 C319 1.347 . S
H321 C322 0.951 . S
C322 H321 0.951 . S
C322 C328 1.265 . S
H323 C328 0.950 . S
H324 C332 0.949 . S
H325 C333 0.950 . S
H326 C334 0.951 . S
H327 C335 0.951 . S
C328 C322 1.265 . S
C328 H323 0.950 . S
C328 C329 1.478 . S
C329 C316 1.394 . S
C329 C328 1.478 . S
C329 C330 1.397 1_545 S
C330 C329 1.397 1_565 S
C330 C331 1.438 . S
C330 C335 1.429 . S
C331 C314 1.394 1_565 S
C331 C330 1.438 . S
C331 C332 1.428 . S
C332 H324 0.949 . S
C332 C331 1.428 . S
C332 C333 1.345 . S
C333 H325 0.950 . S
C333 C332 1.345 . S
C333 C334 1.424 . S
C334 H326 0.951 . S
C334 C333 1.424 . S
C334 C335 1.347 . S
C335 H327 0.951 . S
C335 C330 1.429 . S
C335 C334 1.347 . S
H336 C337 0.951 . S
C337 H336 0.951 . S
C337 C343 1.265 . S
H338 C343 0.950 . S
H339 C347 0.949 . S
H340 C348 0.950 . S
H341 C349 0.951 . S
H342 C350 0.951 . S
C343 C337 1.265 . S
C343 H338 0.950 . S
C343 C344 1.478 . S
C344 C343 1.478 . S
C344 C345 1.397 1_556 S
C344 C361 1.394 . S
C345 C344 1.397 1_554 S
C345 C346 1.438 . S
C345 C350 1.429 . S
C346 C345 1.438 . S
C346 C347 1.428 . S
C346 C359 1.394 . S
C347 H339 0.949 . S
C347 C346 1.428 . S
C347 C348 1.345 . S
C348 H340 0.950 . S
C348 C347 1.345 . S
C348 C349 1.424 . S
C349 H341 0.951 . S
C349 C348 1.424 . S
C349 C350 1.347 . S
C350 H342 0.951 . S
C350 C345 1.429 . S
C350 C349 1.347 . S
H351 C352 0.951 . S
C352 H351 0.951 . S
C352 C358 1.265 . S
H353 C358 0.950 . S
H354 C362 0.949 . S
H355 C363 0.950 . S
H356 C364 0.951 . S
H357 C365 0.951 . S
C358 C352 1.265 . S
C358 H353 0.950 . S
C358 C359 1.478 . S
C359 C346 1.394 . S
C359 C358 1.478 . S
C359 C360 1.397 1_554 S
C360 C359 1.397 1_556 S
C360 C361 1.438 . S
C360 C365 1.429 . S
C361 C344 1.394 . S
C361 C360 1.438 . S
C361 C362 1.428 . S
C362 H354 0.949 . S
C362 C361 1.428 . S
C362 C363 1.345 . S
C363 H355 0.950 . S
C363 C362 1.345 . S
C363 C364 1.424 . S
C364 H356 0.951 . S
C364 C363 1.424 . S
C364 C365 1.347 . S
C365 H357 0.951 . S
C365 C360 1.429 . S
C365 C364 1.347 . S
H366 C367 0.951 1_554 S
C367 H366 0.951 1_556 S
C367 C373 1.265 . S
H368 C373 0.950 . S
H369 C377 0.949 . S
H370 C378 0.950 . S
H371 C379 0.951 . S
H372 C380 0.951 . S
C373 C367 1.265 . S
C373 H368 0.950 . S
C373 C374 1.478 . S
C374 C373 1.478 . S
C374 C375 1.396 . S
C374 C391 1.395 1_556 S
C375 C374 1.396 . S
C375 C376 1.438 . S
C375 C380 1.429 . S
C376 C375 1.438 . S
C376 C377 1.428 . S
C376 C389 1.394 1_556 S
C377 H369 0.949 . S
C377 C376 1.428 . S
C377 C378 1.345 . S
C378 H370 0.950 . S
C378 C377 1.345 . S
C378 C379 1.424 . S
C379 H371 0.951 . S
C379 C378 1.424 . S
C379 C380 1.347 . S
C380 H372 0.951 . S
C380 C375 1.429 . S
C380 C379 1.347 . S
H381 C382 0.951 . S
C382 H381 0.951 . S
C382 C388 1.265 . S
H383 C388 0.950 . S
H384 C392 0.949 . S
H385 C393 0.950 . S
H386 C394 0.951 . S
H387 C395 0.951 . S
C388 C382 1.265 . S
C388 H383 0.950 . S
C388 C389 1.478 . S
C389 C376 1.394 1_554 S
C389 C388 1.478 . S
C389 C390 1.397 . S
C390 C389 1.397 . S
C390 C391 1.438 . S
C390 C395 1.429 . S
C391 C374 1.395 1_554 S
C391 C390 1.438 . S
C391 C392 1.428 . S
C392 H384 0.949 . S
C392 C391 1.428 . S
C392 C393 1.345 . S
C393 H385 0.950 . S
C393 C392 1.345 . S
C393 C394 1.424 . S
C394 H386 0.951 . S
C394 C393 1.424 . S
C394 C395 1.347 . S
C395 H387 0.951 . S
C395 C390 1.429 . S
C395 C394 1.347 . S
H396 C397 0.951 . S
C397 H396 0.951 . S
C397 C403 1.265 . S
H398 C403 0.950 . S
H399 C407 0.949 . S
H400 C408 0.950 . S
H401 C409 0.951 . S
H402 C410 0.951 . S
C403 C397 1.265 . S
C403 H398 0.950 . S
C403 C404 1.478 . S
C404 C403 1.478 . S
C404 C405 1.397 1_556 S
C404 C421 1.394 . S
C405 C404 1.397 1_554 S
C405 C406 1.438 . S
C405 C410 1.429 . S
C406 C405 1.438 . S
C406 C407 1.428 . S
C406 C419 1.394 1_554 S
C407 H399 0.949 . S
C407 C406 1.428 . S
C407 C408 1.345 . S
C408 H400 0.950 . S
C408 C407 1.345 . S
C408 C409 1.424 . S
C409 H401 0.951 . S
C409 C408 1.424 . S
C409 C410 1.347 . S
C410 H402 0.951 . S
C410 C405 1.429 . S
C410 C409 1.347 . S
H411 C412 0.951 . S
C412 H411 0.951 . S
C412 C418 1.265 1_554 S
H413 C418 0.950 . S
H414 C422 0.949 . S
H415 C423 0.950 . S
H416 C424 0.951 . S
H417 C425 0.951 . S
C418 C412 1.265 1_556 S
C418 H413 0.950 . S
C418 C419 1.478 . S
C419 C406 1.394 1_556 S
C419 C418 1.478 . S
C419 C420 1.397 . S
C420 C419 1.397 . S
C420 C421 1.438 . S
C420 C425 1.429 . S
C421 C404 1.394 . S
C421 C420 1.438 . S
C421 C422 1.428 . S
C422 H414 0.949 . S
C422 C421 1.428 . S
C422 C423 1.345 . S
C423 H415 0.950 . S
C423 C422 1.345 . S
C423 C424 1.424 . S
C424 H416 0.951 . S
C424 C423 1.424 . S
C424 C425 1.347 . S
C425 H417 0.951 . S
C425 C420 1.429 . S
C425 C424 1.347 . S
H426 C427 0.951 . S
C427 H426 0.951 . S
C427 C433 1.265 . S
H428 C433 0.950 . S
H429 C437 0.949 . S
H430 C438 0.950 . S
H431 C439 0.951 . S
H432 C440 0.951 . S
C433 C427 1.265 . S
C433 H428 0.950 . S
C433 C434 1.478 . S
C434 C433 1.478 . S
C434 C435 1.397 . S
C434 C451 1.394 1_554 S
C435 C434 1.397 . S
C435 C436 1.438 . S
C435 C440 1.429 . S
C436 C435 1.438 . S
C436 C437 1.428 . S
C436 C449 1.394 1_554 S
C437 H429 0.949 . S
C437 C436 1.428 . S
C437 C438 1.345 . S
C438 H430 0.950 . S
C438 C437 1.345 . S
C438 C439 1.424 . S
C439 H431 0.951 . S
C439 C438 1.424 . S
C439 C440 1.347 . S
C440 H432 0.951 . S
C440 C435 1.429 . S
C440 C439 1.347 . S
H441 C442 0.951 . S
C442 H441 0.951 . S
C442 C448 1.265 . S
H443 C448 0.950 . S
H444 C452 0.949 . S
H445 C453 0.950 . S
H446 C454 0.951 . S
H447 C455 0.951 . S
C448 C442 1.265 . S
C448 H443 0.950 . S
C448 C449 1.478 . S
C449 C436 1.394 1_556 S
C449 C448 1.478 . S
C449 C450 1.397 . S
C450 C449 1.397 . S
C450 C451 1.438 . S
C450 C455 1.429 . S
C451 C434 1.394 1_556 S
C451 C450 1.438 . S
C451 C452 1.428 . S
C452 H444 0.949 . S
C452 C451 1.428 . S
C452 C453 1.345 . S
C453 H445 0.950 . S
C453 C452 1.345 . S
C453 C454 1.424 . S
C454 H446 0.951 . S
C454 C453 1.424 . S
C454 C455 1.347 . S
C455 H447 0.951 . S
C455 C450 1.429 . S
C455 C454 1.347 . S
C97 C84 2.061 . S
C112 C17 1.992 . S
C127 C22 0.954 1_545 S
C142 C51 0.888 . S
C157 C16 1.543 . S
C172 C81 1.560 . S
C187 C50 1.547 . S
C202 C19 1.523 . S
C217 C21 1.979 . S
C232 C80 2.073 1_455 S
C247 C55 0.887 . S
C262 C18 0.945 1_565 S
C277 C85 1.492 . S
C292 C20 1.577 . S
C307 C54 1.544 . S
C322 C23 1.531 . S
C337 C82 2.026 . S
C352 C52 2.028 . S
C367 C83 0.948 . S
C382 C53 0.995 . S
C397 C49 0.987 . S
C412 C87 1.080 . S
C427 C86 2.027 . S
C442 C48 2.036 . S
