# Generated by pormake.
# Topology wjo, (5)-cn, num edge types: 1
# Building blocks:
#     Node 0, Type 0, BuildingBlock: XOMCOT_clean_sbu_1, # of connection points: 5
#     Node 1, Type 0, BuildingBlock: XOMCOT_clean_sbu_1, # of connection points: 5
#     Node 2, Type 0, BuildingBlock: XOMCOT_clean_sbu_1, # of connection points: 5
#     Node 3, Type 0, BuildingBlock: XOMCOT_clean_sbu_1, # of connection points: 5
#     Node 4, Type 0, BuildingBlock: XOMCOT_clean_sbu_1, # of connection points: 5
#     Node 5, Type 0, BuildingBlock: XOMCOT_clean_sbu_1, # of connection points: 5
#     Node 6, Type 0, BuildingBlock: XOMCOT_clean_sbu_1, # of connection points: 5
#     Node 7, Type 0, BuildingBlock: XOMCOT_clean_sbu_1, # of connection points: 5
#     Node 8, Type 0, BuildingBlock: XOMCOT_clean_sbu_1, # of connection points: 5
#     Node 9, Type 0, BuildingBlock: XOMCOT_clean_sbu_1, # of connection points: 5
#     Node 10, Type 0, BuildingBlock: XOMCOT_clean_sbu_1, # of connection points: 5
#     Node 11, Type 0, BuildingBlock: XOMCOT_clean_sbu_1, # of connection points: 5
#     Edge 12, Type (0, 0), BuildingBlock: CIFDUS_clean_linker_0, # of connection points: 2
#     Edge 13, Type (0, 0), BuildingBlock: CIFDUS_clean_linker_0, # of connection points: 2
#     Edge 14, Type (0, 0), BuildingBlock: CIFDUS_clean_linker_0, # of connection points: 2
#     Edge 15, Type (0, 0), BuildingBlock: CIFDUS_clean_linker_0, # of connection points: 2
#     Edge 16, Type (0, 0), BuildingBlock: CIFDUS_clean_linker_0, # of connection points: 2
#     Edge 17, Type (0, 0), BuildingBlock: CIFDUS_clean_linker_0, # of connection points: 2
#     Edge 18, Type (0, 0), BuildingBlock: CIFDUS_clean_linker_0, # of connection points: 2
#     Edge 19, Type (0, 0), BuildingBlock: CIFDUS_clean_linker_0, # of connection points: 2
#     Edge 20, Type (0, 0), BuildingBlock: CIFDUS_clean_linker_0, # of connection points: 2
#     Edge 21, Type (0, 0), BuildingBlock: CIFDUS_clean_linker_0, # of connection points: 2
#     Edge 22, Type (0, 0), BuildingBlock: CIFDUS_clean_linker_0, # of connection points: 2
#     Edge 23, Type (0, 0), BuildingBlock: CIFDUS_clean_linker_0, # of connection points: 2
#     Edge 24, Type (0, 0), BuildingBlock: CIFDUS_clean_linker_0, # of connection points: 2
#     Edge 25, Type (0, 0), BuildingBlock: CIFDUS_clean_linker_0, # of connection points: 2
#     Edge 26, Type (0, 0), BuildingBlock: CIFDUS_clean_linker_0, # of connection points: 2
#     Edge 27, Type (0, 0), BuildingBlock: CIFDUS_clean_linker_0, # of connection points: 2
#     Edge 28, Type (0, 0), BuildingBlock: CIFDUS_clean_linker_0, # of connection points: 2
#     Edge 29, Type (0, 0), BuildingBlock: CIFDUS_clean_linker_0, # of connection points: 2
#     Edge 30, Type (0, 0), BuildingBlock: CIFDUS_clean_linker_0, # of connection points: 2
#     Edge 31, Type (0, 0), BuildingBlock: CIFDUS_clean_linker_0, # of connection points: 2
#     Edge 32, Type (0, 0), BuildingBlock: CIFDUS_clean_linker_0, # of connection points: 2
#     Edge 33, Type (0, 0), BuildingBlock: CIFDUS_clean_linker_0, # of connection points: 2
#     Edge 34, Type (0, 0), BuildingBlock: CIFDUS_clean_linker_0, # of connection points: 2
#     Edge 35, Type (0, 0), BuildingBlock: CIFDUS_clean_linker_0, # of connection points: 2
#     Edge 36, Type (0, 0), BuildingBlock: CIFDUS_clean_linker_0, # of connection points: 2
#     Edge 37, Type (0, 0), BuildingBlock: CIFDUS_clean_linker_0, # of connection points: 2
#     Edge 38, Type (0, 0), BuildingBlock: CIFDUS_clean_linker_0, # of connection points: 2
#     Edge 39, Type (0, 0), BuildingBlock: CIFDUS_clean_linker_0, # of connection points: 2
#     Edge 40, Type (0, 0), BuildingBlock: CIFDUS_clean_linker_0, # of connection points: 2
#     Edge 41, Type (0, 0), BuildingBlock: CIFDUS_clean_linker_0, # of connection points: 2
# Relax obj value: 0.386
# Max RMSD: 0.205
# Mean RMSD: 0.202
data_MOF--net-wjo--node1-XOMCOT_clean_sbu_1--edge1-CIFDUS_clean_linker_0
_symmetry_space_group_name_H-M    P1
_symmetry_Int_Tables_number       1
_symmetry_cell_setting            triclinic
loop_
_symmetry_equiv_pos_as_xyz
'x, y, z'
_cell_length_a     42.326165
_cell_length_b     42.258217
_cell_length_c     25.367293
_cell_angle_alpha  89.893433
_cell_angle_beta   89.748614
_cell_angle_gamma 119.91574
loop_
_atom_site_label
_atom_site_type_symbol
_atom_site_fract_x
_atom_site_fract_y
_atom_site_fract_z
_atom_type_partial_charge
C0 C 0.26366 0.35359 0.87086 0.0
C1 C 0.26111 0.32532 0.84083 0.0
N2 N 0.24688 0.29473 0.87083 0.0
N3 N 0.2517 0.34124 0.91998 0.0
C4 C 0.23979 0.30509 0.91785 0.0
H5 H 0.27644 0.38193 0.85889 0.0
Co6 Co 0.25831 0.36891 0.98065 0.0
C7 C 0.28801 0.31981 0.02294 0.0
O8 O 0.29674 0.30922 0.97932 0.0
N9 N 0.26535 0.39596 0.04307 0.0
C10 C 0.29277 0.42459 0.11703 0.0
C11 C 0.29753 0.41316 0.06883 0.0
C12 C 0.24129 0.39706 0.07734 0.0
N13 N 0.25732 0.4142 0.12275 0.0
O14 O 0.20897 0.33512 0.00127 0.0
H15 H 0.32264 0.41498 0.05537 0.0
H16 H 0.21229 0.38383 0.07072 0.0
O17 O 0.27479 0.34109 0.02148 0.0
C18 C 0.18555 0.3433 0.98466 0.0
O19 O 0.19698 0.37325 0.95654 0.0
N20 N 0.30595 0.40384 0.95795 0.0
C21 C 0.37499 0.46327 0.93462 0.0
C22 C 0.36938 0.4276 0.93779 0.0
C23 C 0.33466 0.39827 0.94945 0.0
C24 C 0.3102 0.43773 0.95085 0.0
C25 C 0.34446 0.46785 0.94035 0.0
H26 H 0.33122 0.37142 0.9517 0.0
H27 H 0.28704 0.44171 0.95621 0.0
H28 H 0.22897 0.28746 0.95195 0.0
H29 H 0.27232 0.32832 0.80157 0.0
H30 H 0.31332 0.43676 0.1473 0.0
H31 H 0.39161 0.42225 0.93166 0.0
H32 H 0.34694 0.49459 0.93876 0.0
C33 C 0.91682 0.21392 0.05508 0.0
C34 C 0.95046 0.22374 0.03354 0.0
N35 N 0.97465 0.25705 0.0517 0.0
N36 N 0.91992 0.24073 0.08724 0.0
C37 C 0.95546 0.26682 0.08375 0.0
H38 H 0.89193 0.18847 0.04843 0.0
Co39 Co 0.88431 0.24002 0.13205 0.0
C40 C 0.92269 0.25902 0.23881 0.0
O41 O 0.89741 0.26151 0.2654 0.0
N42 N 0.84782 0.23862 0.17646 0.0
C43 C 0.80746 0.2504 0.21491 0.0
C44 C 0.83053 0.2581 0.17243 0.0
C45 C 0.83301 0.21768 0.21991 0.0
N46 N 0.80958 0.22538 0.2453 0.0
O47 O 0.86599 0.18917 0.14695 0.0
H48 H 0.8352 0.27774 0.14173 0.0
H49 H 0.84121 0.19882 0.23468 0.0
O50 O 0.91918 0.25227 0.18945 0.0
C51 C 0.83662 0.1657 0.12485 0.0
O52 O 0.82177 0.17698 0.08951 0.0
N53 N 0.90113 0.28975 0.11636 0.0
C54 C 0.91197 0.35908 0.09191 0.0
C55 C 0.92347 0.35232 0.14023 0.0
C56 C 0.91766 0.31755 0.15182 0.0
C57 C 0.89163 0.29624 0.06792 0.0
C58 C 0.89681 0.33075 0.05481 0.0
H59 H 0.92506 0.31313 0.19035 0.0
H60 H 0.87821 0.27397 0.04034 0.0
H61 H 0.96733 0.29212 0.10554 0.0
H62 H 0.95667 0.20772 0.0066 0.0
H63 H 0.79215 0.26391 0.22434 0.0
H64 H 0.93594 0.3735 0.16969 0.0
H65 H 0.88733 0.33462 0.01707 0.0
C66 C 0.66554 0.8953 0.18796 0.0
C67 C 0.68537 0.92495 0.15569 0.0
N68 N 0.70388 0.95468 0.18612 0.0
N69 N 0.67144 0.90608 0.23863 0.0
C70 C 0.6951 0.94245 0.23636 0.0
H71 H 0.64702 0.86774 0.17524 0.0
Co72 Co 0.64635 0.8743 0.29396 0.0
C73 C 0.6626 0.91911 0.3906 0.0
O74 O 0.62893 0.89798 0.40705 0.0
N75 N 0.62067 0.84049 0.34894 0.0
C76 C 0.5777 0.80029 0.40293 0.0
C77 C 0.58459 0.81654 0.35407 0.0
C78 C 0.63525 0.83624 0.3941 0.0
N79 N 0.60956 0.81306 0.42827 0.0
O80 O 0.68303 0.86062 0.29834 0.0
H81 H 0.56397 0.81158 0.3254 0.0
H82 H 0.66389 0.85241 0.4037 0.0
O83 O 0.6729 0.91348 0.34573 0.0
C84 C 0.67612 0.83289 0.27049 0.0
O85 O 0.64675 0.81847 0.24109 0.0
N86 N 0.60918 0.88644 0.28628 0.0
C87 C 0.54851 0.89506 0.27449 0.0
C88 C 0.57991 0.92206 0.29914 0.0
C89 C 0.61052 0.91786 0.30288 0.0
C90 C 0.58035 0.86202 0.25704 0.0
C91 C 0.54939 0.86548 0.25124 0.0
H92 H 0.63503 0.94009 0.31896 0.0
H93 H 0.58083 0.83882 0.23994 0.0
H94 H 0.70446 0.95993 0.27049 0.0
H95 H 0.68565 0.92471 0.11303 0.0
H96 H 0.55113 0.78163 0.41945 0.0
H97 H 0.58081 0.94627 0.31507 0.0
H98 H 0.52596 0.84464 0.23041 0.0
C99 C 0.77087 0.66877 0.36223 0.0
C100 C 0.76926 0.69442 0.33062 0.0
N101 N 0.76948 0.72031 0.36171 0.0
N102 N 0.77061 0.67738 0.41342 0.0
C103 C 0.77209 0.71015 0.41125 0.0
H104 H 0.77342 0.64609 0.3481 0.0
Co105 Co 0.77385 0.6525 0.47388 0.0
C106 C 0.72737 0.68111 0.51234 0.0
O107 O 0.7075 0.66694 0.46994 0.0
N108 N 0.77922 0.62903 0.53169 0.0
C109 C 0.78399 0.58796 0.58014 0.0
C110 C 0.77981 0.5975 0.52987 0.0
C111 C 0.78366 0.6386 0.58296 0.0
N112 N 0.78633 0.61385 0.61351 0.0
O113 O 0.82302 0.69048 0.48299 0.0
H114 H 0.77719 0.58242 0.4942 0.0
H115 H 0.78438 0.66295 0.59767 0.0
O116 O 0.75583 0.67823 0.51947 0.0
C117 C 0.84563 0.68672 0.45423 0.0
O118 O 0.83303 0.66067 0.41879 0.0
N119 N 0.72545 0.61222 0.4659 0.0
C120 C 0.65856 0.54692 0.46164 0.0
C121 C 0.66891 0.56827 0.50714 0.0
C122 C 0.70253 0.60028 0.5088 0.0
C123 C 0.71622 0.59096 0.42189 0.0
C124 C 0.68257 0.55867 0.41843 0.0
H125 H 0.71056 0.61476 0.54574 0.0
H126 H 0.73555 0.59743 0.39042 0.0
H127 H 0.77456 0.72625 0.44557 0.0
H128 H 0.7682 0.69402 0.288 0.0
H129 H 0.78568 0.56409 0.59109 0.0
H130 H 0.65148 0.55995 0.54175 0.0
H131 H 0.67621 0.54212 0.38328 0.0
C132 C 0.10524 0.78066 0.54921 0.0
C133 C 0.07491 0.7775 0.52487 0.0
N134 N 0.04667 0.76208 0.55909 0.0
N135 N 0.09648 0.76756 0.59874 0.0
C136 C 0.06059 0.75643 0.60377 0.0
H137 H 0.13201 0.79151 0.53168 0.0
Co138 Co 0.13005 0.76624 0.64417 0.0
C139 C 0.08946 0.73087 0.74212 0.0
O140 O 0.1076 0.71312 0.74434 0.0
N141 N 0.16569 0.76649 0.68931 0.0
C142 C 0.21023 0.76072 0.72624 0.0
C143 C 0.19024 0.75535 0.68124 0.0
C144 C 0.173 0.78045 0.73859 0.0
N145 N 0.19898 0.77611 0.76262 0.0
O146 O 0.14965 0.81703 0.65889 0.0
H147 H 0.19404 0.7441 0.64533 0.0
H148 H 0.15878 0.79291 0.75694 0.0
O149 O 0.09553 0.75323 0.70407 0.0
C150 C 0.17762 0.83734 0.63083 0.0
O151 O 0.18862 0.82178 0.59612 0.0
N152 N 0.11194 0.71663 0.62597 0.0
C153 C 0.09729 0.64574 0.60649 0.0
C154 C 0.0718 0.6519 0.63322 0.0
C155 C 0.07908 0.68768 0.64086 0.0
C156 C 0.13393 0.71094 0.59266 0.0
C157 C 0.12769 0.67571 0.58342 0.0
H158 H 0.05872 0.69179 0.6603 0.0
H159 H 0.15763 0.73409 0.57546 0.0
H160 H 0.04474 0.7435 0.6389 0.0
H161 H 0.07387 0.78594 0.48493 0.0
H162 H 0.23069 0.75284 0.73207 0.0
H163 H 0.04681 0.62936 0.64884 0.0
H164 H 0.14746 0.67222 0.5607 0.0
C165 C 0.33621 0.10302 0.70553 0.0
C166 C 0.31241 0.07121 0.68028 0.0
N167 N 0.29343 0.0454 0.71705 0.0
N168 N 0.33229 0.09749 0.758 0.0
C169 C 0.30594 0.06218 0.76387 0.0
H170 H 0.35571 0.12843 0.68686 0.0
Co171 Co 0.36049 0.1325 0.8076 0.0
C172 C 0.35505 0.09032 0.90343 0.0
O173 O 0.39042 0.1113 0.90958 0.0
N174 N 0.3886 0.16894 0.85782 0.0
C175 C 0.43163 0.21529 0.90355 0.0
C176 C 0.4228 0.19792 0.8556 0.0
C177 C 0.37662 0.17103 0.90661 0.0
N178 N 0.40261 0.198 0.93587 0.0
O179 O 0.32282 0.14466 0.81699 0.0
H180 H 0.44075 0.20646 0.82191 0.0
H181 H 0.34974 0.15175 0.92144 0.0
O182 O 0.33925 0.09575 0.86439 0.0
C183 C 0.32398 0.16757 0.78321 0.0
O184 O 0.34861 0.1785 0.74547 0.0
N185 N 0.39848 0.12177 0.79452 0.0
C186 C 0.45901 0.11351 0.77701 0.0
C187 C 0.42679 0.08457 0.79761 0.0
C188 C 0.39634 0.0889 0.80467 0.0
C189 C 0.42788 0.14796 0.76753 0.0
C190 C 0.45903 0.145 0.75995 0.0
H191 H 0.37137 0.06595 0.81909 0.0
H192 H 0.42734 0.17158 0.75233 0.0
H193 H 0.297 0.0486 0.80164 0.0
H194 H 0.3096 0.06743 0.63804 0.0
H195 H 0.45758 0.23863 0.91392 0.0
H196 H 0.42541 0.05919 0.80905 0.0
H197 H 0.48301 0.16722 0.74155 0.0
C198 C 0.68842 0.78224 0.95975 0.0
C199 C 0.71351 0.77537 0.98355 0.0
N200 N 0.72484 0.7593 0.94817 0.0
N201 N 0.68395 0.77084 0.90942 0.0
C202 C 0.70641 0.75689 0.90351 0.0
H203 H 0.67416 0.79459 0.97816 0.0
Co204 Co 0.65235 0.7746 0.86232 0.0
C205 C 0.65818 0.74114 0.76343 0.0
O206 O 0.62255 0.72487 0.75875 0.0
N207 N 0.62074 0.77989 0.81466 0.0
C208 C 0.57403 0.77857 0.77259 0.0
C209 C 0.58532 0.77067 0.81901 0.0
C210 C 0.63066 0.79535 0.7661 0.0
N211 N 0.60251 0.79366 0.73892 0.0
O212 O 0.68691 0.82521 0.85096 0.0
H213 H 0.5681 0.75866 0.85305 0.0
H214 H 0.65798 0.80661 0.75034 0.0
O215 O 0.67378 0.76113 0.80354 0.0
C216 C 0.68048 0.84577 0.88043 0.0
O217 O 0.65387 0.83039 0.91519 0.0
N218 N 0.61714 0.72547 0.87744 0.0
C219 C 0.55602 0.65742 0.89596 0.0
C220 C 0.58677 0.66006 0.87066 0.0
C221 C 0.61758 0.69456 0.86265 0.0
C222 C 0.58993 0.72259 0.90947 0.0
C223 C 0.55848 0.68898 0.91773 0.0
H224 H 0.64108 0.69623 0.84319 0.0
H225 H 0.59177 0.74699 0.92616 0.0
H226 H 0.70854 0.74435 0.86761 0.0
H227 H 0.72272 0.78195 0.02384 0.0
H228 H 0.5465 0.77225 0.7638 0.0
H229 H 0.58638 0.636 0.85518 0.0
H230 H 0.53586 0.68778 0.93959 0.0
C231 C 0.91175 0.67482 0.12861 0.0
C232 C 0.94366 0.7007 0.15117 0.0
N233 N 0.97021 0.71342 0.11415 0.0
N234 N 0.91783 0.6712 0.07747 0.0
C235 C 0.9537 0.6951 0.06964 0.0
H236 H 0.88573 0.65927 0.14841 0.0
Co237 Co 0.88147 0.63827 0.03328 0.0
C238 C 0.91895 0.63417 0.93762 0.0
O239 O 0.8965 0.5987 0.93799 0.0
N240 N 0.84333 0.60542 0.98917 0.0
C241 C 0.7939 0.55968 0.9526 0.0
C242 C 0.81488 0.57142 0.99734 0.0
C243 C 0.83784 0.61415 0.94005 0.0
N244 N 0.80858 0.58663 0.91643 0.0
O245 O 0.86835 0.67437 0.01581 0.0
H246 H 0.80884 0.55582 0.03328 0.0
H247 H 0.85595 0.64006 0.92131 0.0
O248 O 0.91615 0.65407 0.97329 0.0
C249 C 0.84317 0.67227 0.04584 0.0
O250 O 0.83153 0.6484 0.08466 0.0
N251 N 0.8931 0.60214 0.05432 0.0
C252 C 0.90192 0.5434 0.08447 0.0
C253 C 0.92936 0.57286 0.05605 0.0
C254 C 0.92497 0.6026 0.04297 0.0
C255 C 0.86855 0.57615 0.08773 0.0
C256 C 0.87188 0.54604 0.10227 0.0
H257 H 0.94715 0.62567 0.02323 0.0
H258 H 0.84574 0.57842 0.10238 0.0
H259 H 0.96766 0.69829 0.03252 0.0
H260 H 0.9469 0.7094 0.19183 0.0
H261 H 0.76963 0.53339 0.94736 0.0
H262 H 0.95405 0.573 0.04424 0.0
H263 H 0.85061 0.52462 0.126 0.0
C264 C 0.2322 0.90864 0.27952 0.0
C265 C 0.24125 0.94161 0.30233 0.0
N266 N 0.26606 0.96832 0.27121 0.0
N267 N 0.25099 0.91458 0.23398 0.0
C268 C 0.27146 0.95133 0.23009 0.0
H269 H 0.21346 0.88203 0.29564 0.0
Co270 Co 0.24765 0.87824 0.18892 0.0
C271 C 0.28277 0.91511 0.08858 0.0
O272 O 0.29558 0.89259 0.08401 0.0
N273 N 0.24268 0.84053 0.14352 0.0
C274 C 0.24689 0.79765 0.09808 0.0
C275 C 0.25658 0.81779 0.14383 0.0
C276 C 0.22333 0.83227 0.09834 0.0
N277 N 0.226 0.80695 0.06971 0.0
O278 O 0.19747 0.86311 0.176 0.0
H279 H 0.27364 0.81629 0.17393 0.0
H280 H 0.20982 0.84673 0.08455 0.0
O281 O 0.26298 0.91261 0.12853 0.0
C282 C 0.17594 0.83566 0.20414 0.0
O283 O 0.18998 0.82308 0.23882 0.0
N284 N 0.29649 0.89168 0.20548 0.0
C285 C 0.36475 0.89961 0.22499 0.0
C286 C 0.36156 0.92585 0.19548 0.0
C287 C 0.32725 0.92203 0.18766 0.0
C288 C 0.29966 0.86872 0.24015 0.0
C289 C 0.33361 0.8718 0.2499 0.0
H290 H 0.32588 0.94319 0.16601 0.0
H291 H 0.27534 0.84632 0.25746 0.0
H292 H 0.28998 0.96559 0.19785 0.0
H293 H 0.23142 0.94565 0.33977 0.0
H294 H 0.25537 0.77846 0.08591 0.0
H295 H 0.38534 0.94872 0.17772 0.0
H296 H 0.33519 0.85153 0.27418 0.0
C297 C 0.34196 0.2344 0.46879 0.0
C298 C 0.32002 0.2424 0.49935 0.0
N299 N 0.3081 0.2606 0.46937 0.0
N300 N 0.34418 0.24767 0.4198 0.0
C301 C 0.32286 0.2632 0.42099 0.0
H302 H 0.35667 0.22103 0.48188 0.0
Co303 Co 0.37626 0.24626 0.37108 0.0
C304 C 0.37622 0.28611 0.27664 0.0
O305 O 0.41201 0.30341 0.27882 0.0
N306 N 0.40884 0.24299 0.32202 0.0
C307 C 0.45513 0.24391 0.27864 0.0
C308 C 0.44377 0.2507 0.32601 0.0
C309 C 0.39928 0.2296 0.27256 0.0
N310 N 0.42719 0.23111 0.24441 0.0
O311 O 0.34092 0.19677 0.35458 0.0
H312 H 0.46046 0.26042 0.36067 0.0
H313 H 0.37227 0.22007 0.25722 0.0
O314 O 0.35717 0.26337 0.31313 0.0
C315 C 0.3487 0.17244 0.36815 0.0
O316 O 0.37903 0.18225 0.39399 0.0
N317 N 0.41123 0.29443 0.39068 0.0
C318 C 0.46908 0.36368 0.41328 0.0
C319 C 0.43685 0.35947 0.39142 0.0
C320 C 0.40778 0.3245 0.38184 0.0
C321 C 0.4398 0.29787 0.4196 0.0
C322 C 0.46963 0.33229 0.43003 0.0
H323 H 0.38319 0.3219 0.36519 0.0
H324 H 0.44001 0.27369 0.43306 0.0
H325 H 0.31988 0.27792 0.38821 0.0
H326 H 0.31411 0.23625 0.54089 0.0
H327 H 0.48219 0.24852 0.27048 0.0
H328 H 0.43436 0.38297 0.38083 0.0
H329 H 0.49334 0.33412 0.44901 0.0
C330 C 0.10048 0.31371 0.61157 0.0
C331 C 0.06728 0.29031 0.63476 0.0
N332 N 0.04218 0.29731 0.61406 0.0
N333 N 0.09613 0.33501 0.576 0.0
C334 C 0.06031 0.32443 0.57873 0.0
H335 H 0.12606 0.31489 0.61996 0.0
Co336 Co 0.13127 0.36974 0.53079 0.0
C337 C 0.09379 0.35131 0.42432 0.0
O338 O 0.11525 0.38323 0.40244 0.0
N339 N 0.1673 0.40468 0.48597 0.0
C340 C 0.20859 0.45639 0.44736 0.0
C341 C 0.18584 0.44145 0.49024 0.0
C342 C 0.18071 0.39802 0.44155 0.0
N343 N 0.2048 0.42893 0.4164 0.0
O344 O 0.15105 0.33816 0.51798 0.0
H345 H 0.18276 0.45686 0.52166 0.0
H346 H 0.17147 0.37088 0.42642 0.0
O347 O 0.09788 0.34549 0.47258 0.0
C348 C 0.18095 0.34416 0.53844 0.0
O349 O 0.19682 0.37049 0.57313 0.0
N350 N 0.11268 0.4017 0.54407 0.0
C351 C 0.10118 0.46062 0.55891 0.0
C352 C 0.08327 0.43541 0.51873 0.0
C353 C 0.08904 0.40596 0.51228 0.0
C354 C 0.12733 0.42377 0.58682 0.0
C355 C 0.12212 0.4537 0.59487 0.0
H356 H 0.07474 0.38745 0.48092 0.0
H357 H 0.14542 0.41979 0.61245 0.0
H358 H 0.04747 0.33587 0.55456 0.0
H359 H 0.06207 0.27013 0.66498 0.0
H360 H 0.22529 0.4852 0.43844 0.0
H361 H 0.06577 0.43907 0.49134 0.0
H362 H 0.13615 0.47241 0.62682 0.0
C363 C 0.76312 0.10587 0.79011 0.0
C364 C 0.76009 0.0763 0.81765 0.0
N365 N 0.7523 0.0491 0.78321 0.0
N366 N 0.75709 0.09735 0.73866 0.0
C367 C 0.75074 0.06272 0.7357 0.0
H368 H 0.76932 0.13196 0.80646 0.0
Co369 Co 0.75853 0.12833 0.68537 0.0
C370 C 0.72767 0.08138 0.59037 0.0
O371 O 0.71209 0.09984 0.57427 0.0
N372 N 0.76117 0.16052 0.63114 0.0
C373 C 0.7548 0.19884 0.57763 0.0
C374 C 0.74672 0.18264 0.62668 0.0
C375 C 0.77929 0.16529 0.58505 0.0
N376 N 0.77507 0.18759 0.55138 0.0
O377 O 0.80913 0.14426 0.67382 0.0
H378 H 0.73088 0.18684 0.65626 0.0
H379 H 0.79346 0.1507 0.57512 0.0
O380 O 0.74549 0.08956 0.63348 0.0
C381 C 0.83198 0.17677 0.68748 0.0
O382 O 0.81985 0.19674 0.70978 0.0
N383 N 0.70928 0.11377 0.7 0.0
C384 C 0.63927 0.10199 0.72143 0.0
C385 C 0.64423 0.07492 0.69706 0.0
C386 C 0.67947 0.08109 0.6875 0.0
C387 C 0.70501 0.1384 0.7292 0.0
C388 C 0.67039 0.13361 0.73913 0.0
H389 H 0.68243 0.05943 0.67021 0.0
H390 H 0.72887 0.163 0.74249 0.0
H391 H 0.7445 0.04743 0.69955 0.0
H392 H 0.76363 0.07514 0.85968 0.0
H393 H 0.74609 0.21716 0.56231 0.0
H394 H 0.62111 0.04916 0.68533 0.0
H395 H 0.66833 0.15523 0.75877 0.0
H396 H 0.17108 0.38402 0.33509 0.0
H397 H 0.26989 0.4815 0.37929 0.0
H398 H 0.29365 0.48758 0.28948 0.0
H399 H 0.28705 0.46383 0.19973 0.0
H400 H 0.18901 0.36515 0.15642 0.0
H401 H 0.16366 0.3614 0.24434 0.0
C402 C 0.19796 0.40636 0.32521 0.0
C403 C 0.21898 0.43203 0.36388 0.0
C404 C 0.21128 0.4097 0.2736 0.0
C405 C 0.25332 0.46143 0.35013 0.0
C406 C 0.26685 0.46488 0.29889 0.0
C407 C 0.26012 0.44153 0.20952 0.0
C408 C 0.24015 0.41469 0.17165 0.0
C409 C 0.24615 0.43903 0.26047 0.0
C410 C 0.20491 0.38638 0.18453 0.0
C411 C 0.19055 0.38397 0.23504 0.0
H412 H 0.84185 0.20959 0.32451 0.0
H413 H 0.74829 0.22031 0.2871 0.0
H414 H 0.72938 0.21008 0.37977 0.0
H415 H 0.74031 0.19933 0.47154 0.0
H416 H 0.83465 0.18987 0.50837 0.0
H417 H 0.85237 0.19819 0.4154 0.0
C418 C 0.81701 0.20915 0.33626 0.0
C419 C 0.79648 0.21569 0.29876 0.0
C420 C 0.80666 0.20378 0.38956 0.0
C421 C 0.76468 0.21558 0.31521 0.0
C422 C 0.75389 0.20976 0.36816 0.0
C423 C 0.76496 0.19952 0.45929 0.0
C424 C 0.78623 0.19415 0.49687 0.0
C425 C 0.77495 0.2043 0.40577 0.0
C426 C 0.8177 0.1937 0.48019 0.0
C427 C 0.82786 0.1985 0.42707 0.0
H428 H 0.5684 0.81613 0.50597 0.0
H429 H 0.6616 0.80359 0.47483 0.0
H430 H 0.66889 0.7977 0.56987 0.0
H431 H 0.64724 0.79453 0.66124 0.0
H432 H 0.5552 0.80978 0.69118 0.0
H433 H 0.54895 0.81631 0.59699 0.0
C434 C 0.59012 0.81182 0.52011 0.0
C435 C 0.61407 0.80961 0.48376 0.0
C436 C 0.5944 0.80918 0.57443 0.0
C437 C 0.64277 0.80511 0.50235 0.0
C438 C 0.6469 0.80181 0.55652 0.0
C439 C 0.62615 0.79983 0.6474 0.0
C440 C 0.60148 0.80128 0.68359 0.0
C441 C 0.62277 0.80372 0.59294 0.0
C442 C 0.57416 0.80788 0.66443 0.0
C443 C 0.57061 0.81173 0.6105 0.0
H444 H 0.76463 0.55619 0.67865 0.0
H445 H 0.81774 0.67381 0.67567 0.0
H446 H 0.82667 0.67555 0.7708 0.0
H447 H 0.82182 0.64383 0.85403 0.0
H448 H 0.77155 0.52636 0.85599 0.0
H449 H 0.75863 0.5244 0.76219 0.0
C450 C 0.7784 0.58222 0.69869 0.0
C451 C 0.79072 0.6148 0.66989 0.0
C452 C 0.78381 0.58305 0.75329 0.0
C453 C 0.80773 0.64828 0.69681 0.0
C454 C 0.81302 0.64932 0.75122 0.0
C455 C 0.80821 0.61779 0.83399 0.0
C456 C 0.79801 0.58533 0.86216 0.0
C457 C 0.80154 0.61689 0.77973 0.0
C458 C 0.77948 0.55177 0.83562 0.0
C459 C 0.77235 0.55063 0.78177 0.0
H460 H 0.1584 0.77717 0.8442 0.0
H461 H 0.26302 0.7889 0.80466 0.0
H462 H 0.27959 0.7966 0.89768 0.0
H463 H 0.26488 0.80146 0.99025 0.0
H464 H 0.16184 0.79314 0.02904 0.0
H465 H 0.14403 0.78281 0.93612 0.0
C466 C 0.18505 0.78196 0.85567 0.0
C467 C 0.20946 0.78256 0.81727 0.0
C468 C 0.19452 0.7867 0.90916 0.0
C469 C 0.24356 0.78797 0.83331 0.0
C470 C 0.2531 0.79246 0.88652 0.0
C471 C 0.23833 0.79676 0.97826 0.0
C472 C 0.21445 0.79759 0.01611 0.0
C473 C 0.22877 0.79179 0.92477 0.0
C474 C 0.18047 0.79243 0.00028 0.0
C475 C 0.1704 0.78667 0.94731 0.0
H476 H 0.45874 0.2235 0.00366 0.0
H477 H 0.34317 0.18342 0.99454 0.0
H478 H 0.34011 0.18809 0.09027 0.0
H479 H 0.3701 0.20281 0.17585 0.0
H480 H 0.48655 0.24549 0.184 0.0
H481 H 0.48899 0.23966 0.08938 0.0
C482 C 0.43296 0.21631 0.02244 0.0
C483 C 0.40125 0.20323 0.99184 0.0
C484 C 0.43139 0.21895 0.07744 0.0
C485 C 0.36793 0.19329 0.01713 0.0
C486 C 0.36618 0.19597 0.07188 0.0
C487 C 0.39621 0.21111 0.15754 0.0
C488 C 0.4281 0.22491 0.18829 0.0
C489 C 0.39773 0.20855 0.10246 0.0
C490 C 0.46133 0.23471 0.16249 0.0
C491 C 0.46291 0.23163 0.10787 0.0
H492 H 0.25875 0.27205 0.77647 0.0
H493 H 0.24128 0.24294 0.94175 0.0
H494 H 0.25952 0.19765 0.92771 0.0
H495 H 0.28902 0.17214 0.8714 0.0
H496 H 0.30933 0.20373 0.70745 0.0
H497 H 0.28178 0.24203 0.71844 0.0
C498 C 0.25878 0.25591 0.80962 0.0
C499 C 0.24984 0.26248 0.8605 0.0
C500 C 0.27031 0.2303 0.8017 0.0
C501 C 0.24862 0.23966 0.90216 0.0
C502 C 0.25927 0.21355 0.8943 0.0
C503 C 0.28671 0.18682 0.83788 0.0
C504 C 0.30161 0.1854 0.78885 0.0
C505 C 0.27152 0.2096 0.84468 0.0
C506 C 0.29848 0.20467 0.74581 0.0
C507 C 0.28272 0.22664 0.75203 0.0
H508 H 0.13773 0.3677 0.99443 0.0
H509 H 0.14622 0.27058 0.00976 0.0
H510 H 0.081 0.23479 0.03114 0.0
H511 H 0.02119 0.23121 0.04395 0.0
H512 H 0.01435 0.32938 0.03406 0.0
H513 H 0.07935 0.36486 0.0122 0.0
C514 C 0.1253 0.33867 0.00239 0.0
C515 C 0.14662 0.32168 -6e-05 0.0
C516 C 0.08811 0.31856 0.01559 0.0
C517 C 0.13032 0.28422 0.01134 0.0
C518 C 0.09305 0.26378 0.0234 0.0
C519 C 0.03405 0.26034 0.03679 0.0
C520 C 0.01308 0.27771 0.04005 0.0
C521 C 0.07161 0.28063 0.02531 0.0
C522 C 0.03005 0.31556 0.03181 0.0
C523 C 0.06712 0.33576 0.01918 0.0
H524 H 0.77947 0.10873 0.07713 0.0
H525 H 0.85007 0.13565 0.21182 0.0
H526 H 0.81495 0.0725 0.24334 0.0
H527 H 0.76292 0.00959 0.23343 0.0
H528 H 0.69336 0.98373 0.09774 0.0
H529 H 0.72929 0.04631 0.0659 0.0
C530 C 0.78735 0.1008 0.11327 0.0
C531 C 0.81734 0.12693 0.14205 0.0
C532 C 0.76708 0.06454 0.13112 0.0
C533 C 0.82722 0.11607 0.18869 0.0
C534 C 0.80702 0.07998 0.2069 0.0
C535 C 0.75564 0.01778 0.19704 0.0
C536 C 0.72552 0.99193 0.168 0.0
C537 C 0.77666 0.05401 0.17866 0.0
C538 C 0.71664 1.00285 0.12054 0.0
C539 C 0.73709 0.03874 0.10238 0.0
H540 H 0.73531 0.72328 0.27386 0.0
H541 H 0.78619 0.7822 0.4162 0.0
H542 H 0.76424 0.82465 0.39835 0.0
H543 H 0.72539 0.84142 0.3466 0.0
H544 H 0.67456 0.78157 0.20481 0.0
H545 H 0.70243 0.74379 0.21766 0.0
C546 C 0.74247 0.74585 0.30046 0.0
C547 C 0.76199 0.74897 0.34677 0.0
C548 C 0.72953 0.77003 0.29019 0.0
C549 C 0.77055 0.77844 0.38082 0.0
C550 C 0.75809 0.8029 0.37057 0.0
C551 C 0.72097 0.82054 0.31806 0.0
C552 C 0.69761 0.81411 0.27512 0.0
C553 C 0.73669 0.79837 0.32609 0.0
C554 C 0.69209 0.78688 0.23854 0.0
C555 C 0.70801 0.76519 0.24583 0.0
H556 H 0.01406 0.74753 0.46424 0.0
H557 H 0.99442 0.75318 0.63005 0.0
H558 H 0.93058 0.73372 0.61181 0.0
H559 H 0.87946 0.71195 0.54868 0.0
H560 H 0.90007 0.70496 0.38363 0.0
H561 H 0.9647 0.72931 0.40144 0.0
C562 C 0.99615 0.74521 0.49644 0.0
C563 C 0.00924 0.75187 0.54849 0.0
C564 C 0.95958 0.73399 0.48568 0.0
C565 C 0.9851 0.74782 0.58968 0.0
C566 C 0.9486 0.73692 0.57922 0.0
C567 C 0.89833 0.71657 0.51658 0.0
C568 C 0.88515 0.70693 0.46484 0.0
C569 C 0.93542 0.72958 0.52738 0.0
C570 C 0.90965 0.71228 0.42372 0.0
C571 C 0.94656 0.72602 0.43391 0.0
H572 H 0.28919 0.006 0.63125 0.0
H573 H 0.23935 0.99835 0.78295 0.0
H574 H 0.19756 0.93322 0.76909 0.0
H575 H 0.17642 0.87774 0.71452 0.0
H576 H 0.22748 0.88688 0.5632 0.0
H577 H 0.26687 0.95218 0.57588 0.0
C578 C 0.26887 0.99039 0.66104 0.0
C579 C 0.26758 0.00727 0.70809 0.0
C580 C 0.24498 0.95305 0.65283 0.0
C581 C 0.24137 0.98611 0.7466 0.0
C582 C 0.21728 0.94884 0.73858 0.0
C583 C 0.1959 0.89415 0.68416 0.0
C584 C 0.19903 0.87738 0.63806 0.0
C585 C 0.21902 0.9319 0.69196 0.0
C586 C 0.22461 0.89898 0.59922 0.0
C587 C 0.24721 0.93639 0.60639 0.0
H588 H 0.83369 0.69803 0.95148 0.0
H589 H 0.80945 0.69239 0.11777 0.0
H590 H 0.77159 0.71988 0.10233 0.0
H591 H 0.7421 0.74154 0.04167 0.0
H592 H 0.76477 0.74705 0.87485 0.0
H593 H 0.80584 0.723 0.89029 0.0
C594 C 0.82062 0.70349 0.98431 0.0
C595 C 0.82445 0.6933 0.03573 0.0
C596 C 0.79806 0.71866 0.975 0.0
C597 C 0.80688 0.69993 0.07784 0.0
C598 C 0.78512 0.71556 0.06904 0.0
C599 C 0.75638 0.73814 0.0086 0.0
C600 C 0.75011 0.74617 0.95714 0.0
C601 C 0.78 0.72443 0.01775 0.0
C602 C 0.76853 0.74071 0.91486 0.0
C603 C 0.79229 0.72717 0.92369 0.0
H604 H 1.00702 0.729 0.20558 0.0
H605 H 0.02005 0.75659 0.04007 0.0
H606 H 0.08496 0.7994 0.05356 0.0
H607 H 0.1387 0.82752 0.11259 0.0
H608 H 0.12418 0.79792 0.27741 0.0
H609 H 0.05895 0.75827 0.26424 0.0
C610 C 0.02372 0.74474 0.17245 0.0
C611 C 1.0084 0.73948 0.12189 0.0
C612 C 0.06086 0.76925 0.18051 0.0
C613 C 0.03104 0.75969 0.07936 0.0
C614 C 0.06817 0.7844 0.08712 0.0
C615 C 0.12105 0.81287 0.14566 0.0
C616 C 0.13614 0.81573 0.19597 0.0
C617 C 0.08347 0.78927 0.13754 0.0
C618 C 0.11316 0.79611 0.23834 0.0
C619 C 0.07588 0.77335 0.23083 0.0
H620 H 0.23798 0.00891 0.30727 0.0
H621 H 0.33821 0.01345 0.26117 0.0
H622 H 0.37287 0.07764 0.28725 0.0
H623 H 0.37475 0.13159 0.32654 0.0
H624 H 0.2746 0.12935 0.36634 0.0
H625 H 0.23951 0.06511 0.33931 0.0
C626 C 0.26738 0.02419 0.30282 0.0
C627 C 0.2857 0.00668 0.28277 0.0
C628 C 0.28697 0.06125 0.31695 0.0
C629 C 0.3237 0.0266 0.27632 0.0
C630 C 0.34346 0.06314 0.29146 0.0
C631 C 0.34521 0.11695 0.32921 0.0
C632 C 0.32713 0.13468 0.34909 0.0
C633 C 0.32542 0.08059 0.31237 0.0
C634 C 0.28893 0.11596 0.35131 0.0
C635 C 0.26897 0.07933 0.336 0.0
H636 H 0.25254 0.26277 0.42094 0.0
H637 H 0.31899 0.29692 0.56033 0.0
H638 H 0.28502 0.32521 0.59463 0.0
H639 H 0.23667 0.3406 0.58507 0.0
H640 H 0.16786 0.30447 0.44784 0.0
H641 H 0.20205 0.27643 0.41289 0.0
C642 C 0.25952 0.2766 0.45863 0.0
C643 C 0.2882 0.27785 0.48807 0.0
C644 C 0.23929 0.29223 0.47867 0.0
C645 C 0.29684 0.29542 0.5372 0.0
C646 C 0.27748 0.31164 0.55678 0.0
C647 C 0.22903 0.32645 0.54762 0.0
C648 C 0.19977 0.32469 0.51917 0.0
C649 C 0.24861 0.31016 0.52796 0.0
C650 C 0.19012 0.30605 0.4708 0.0
C651 C 0.20981 0.29016 0.4506 0.0
H652 H 0.99622 0.22579 0.63222 0.0
H653 H 1.00273 0.33075 0.62564 0.0
H654 H 0.93815 0.30261 0.64916 0.0
H655 H 0.87999 0.2483 0.67157 0.0
H656 H 0.87157 0.14232 0.67249 0.0
H657 H 0.9367 0.17052 0.65123 0.0
C658 C 0.98337 0.24235 0.63624 0.0
C659 C 1.00409 0.28026 0.62758 0.0
C660 C 0.946 0.22579 0.64869 0.0
C661 C 0.98718 0.30151 0.63192 0.0
C662 C 0.95036 0.28545 0.64552 0.0
C663 C 0.89244 0.23137 0.66738 0.0
C664 C 0.87115 0.19334 0.67417 0.0
C665 C 0.92953 0.24765 0.65402 0.0
C666 C 0.88747 0.17168 0.66757 0.0
C667 C 0.92467 0.1878 0.65549 0.0
H668 H 0.7299 0.01279 0.87592 0.0
H669 H 0.75853 1.00239 0.71594 0.0
H670 H 0.74169 0.93907 0.73289 0.0
H671 H 0.71496 0.8851 0.79178 0.0
H672 H 0.68598 0.89612 0.95124 0.0
H673 H 0.70773 0.96075 0.93623 0.0
C674 C 0.73311 0.997 0.84493 0.0
C675 C 0.74515 0.01252 0.79455 0.0
C676 C 0.72335 0.96051 0.8549 0.0
C677 C 0.74865 0.99117 0.75484 0.0
C678 C 0.73923 0.9549 0.76457 0.0
C679 C 0.71408 0.90186 0.82346 0.0
C680 C 0.69879 0.88579 0.8725 0.0
C681 C 0.72598 0.93905 0.81424 0.0
C682 C 0.69745 0.90776 0.91302 0.0
C683 C 0.7098 0.94475 0.90446 0.0
H684 H 0.33604 0.2969 0.04253 0.0
H685 H 0.25956 0.32129 0.11923 0.0
H686 H 0.27724 0.30922 0.2054 0.0
H687 H 0.31784 0.29565 0.25947 0.0
H688 H 0.39882 0.27886 0.18111 0.0
H689 H 0.37562 0.28313 0.09534 0.0
C690 C 0.32291 0.29913 0.07803 0.0
C691 C 0.29656 0.30988 0.07456 0.0
C692 C 0.33407 0.29343 0.1273 0.0
C693 C 0.28006 0.31311 0.12097 0.0
C694 C 0.29015 0.30623 0.17024 0.0
C695 C 0.32994 0.29258 0.22344 0.0
C696 C 0.35964 0.28662 0.2262 0.0
C697 C 0.31759 0.29695 0.17399 0.0
C698 C 0.3757 0.28321 0.1796 0.0
C699 C 0.36259 0.28582 0.1306 0.0
H700 H 0.93471 0.25338 0.34177 0.0
H701 H 0.98998 0.29252 0.19242 0.0
H702 H 0.04884 0.32219 0.23678 0.0
H703 H 0.08377 0.34284 0.31906 0.0
H704 H 0.02858 0.3019 0.46814 0.0
H705 H 0.97053 0.26672 0.4229 0.0
C706 C 0.95973 0.26799 0.31897 0.0
C707 C 0.95811 0.27133 0.26414 0.0
C708 C 0.9934 0.28484 0.34472 0.0
C709 C 0.99058 0.2897 0.23474 0.0
C710 C 0.02423 0.30684 0.26011 0.0
C711 C 0.05906 0.32579 0.34147 0.0
C712 C 0.06023 0.32545 0.39675 0.0
C713 C 0.02584 0.30551 0.31521 0.0
C714 C 0.02829 0.30277 0.4255 0.0
C715 C 0.99506 0.28277 0.3997 0.0
H716 H 0.67027 0.92554 0.49559 0.0
H717 H 0.70426 0.988 0.35129 0.0
H718 H 0.73008 0.04485 0.40135 0.0
H719 H 0.73587 0.07612 0.48596 0.0
H720 H 0.70368 0.01354 0.63023 0.0
H721 H 0.68443 0.95729 0.58073 0.0
C722 C 0.68414 0.9517 0.47535 0.0
C723 C 0.68535 0.95281 0.42006 0.0
C724 C 0.69876 0.9841 0.50439 0.0
C725 C 0.70341 0.98661 0.39389 0.0
C726 C 0.71778 0.01907 0.42249 0.0
C727 C 0.72514 0.05013 0.50635 0.0
C728 C 0.7209 0.04863 0.56134 0.0
C729 C 0.71451 0.01805 0.47764 0.0
C730 C 0.7074 0.01516 0.58787 0.0
C731 C 0.69619 0.98304 0.55958 0.0
H732 H 0.7535 0.70356 0.61228 0.0
H733 H 0.67264 0.69626 0.50194 0.0
H734 H 0.64584 0.71643 0.56933 0.0
H735 H 0.64164 0.73078 0.66093 0.0
H736 H 0.72231 0.74016 0.77256 0.0
H737 H 0.753 0.72465 0.70338 0.0
C738 C 0.73031 0.70681 0.60291 0.0
C739 C 0.71475 0.69777 0.55236 0.0
C740 C 0.71474 0.7184 0.64215 0.0
C741 C 0.68487 0.70244 0.54069 0.0
C742 C 0.66943 0.71398 0.57921 0.0
C743 C 0.66612 0.72969 0.67003 0.0
C744 C 0.67945 0.73599 0.72169 0.0
C745 C 0.68353 0.72109 0.63029 0.0
C746 C 0.71152 0.73523 0.73293 0.0
C747 C 0.72895 0.72625 0.69347 0.0
H748 H 0.05392 0.66783 0.79585 0.0
H749 H 0.0548 0.76908 0.76948 0.0
H750 H 1.00266 0.74908 0.83006 0.0
H751 H 0.95604 0.70154 0.88994 0.0
H752 H 0.95466 0.5993 0.90868 0.0
H753 H 1.00794 0.62105 0.8519 0.0
C754 C 0.04299 0.68577 0.80355 0.0
C755 C 0.05841 0.72003 0.77871 0.0
C756 C 0.0128 0.67379 0.83703 0.0
C757 C 0.04339 0.74258 0.78834 0.0
C758 C 0.01364 0.73115 0.82296 0.0
C759 C 0.9676 0.68424 0.88149 0.0
C760 C 0.95143 0.64885 0.90323 0.0
C761 C 0.998 0.69666 0.84747 0.0
C762 C 0.96638 0.62648 0.89191 0.0
C763 C 0.99694 0.63892 0.85961 0.0
H764 H 0.25114 0.95052 0.04059 0.0
H765 H 0.35401 0.95493 0.06584 0.0
H766 H 0.38535 0.01036 0.01305 0.0
H767 H 0.38381 0.05654 0.95819 0.0
H768 H 0.28152 0.05128 0.92477 0.0
H769 H 0.24953 0.99717 0.98187 0.0
C770 C 0.28038 0.96386 0.03445 0.0
C771 C 0.30031 0.94881 0.05685 0.0
C772 C 0.29826 0.99538 0.00253 0.0
C773 C 0.33813 0.96593 0.04852 0.0
C774 C 0.3561 0.99766 0.01849 0.0
C775 C 0.35453 0.04379 0.96366 0.0
C776 C 0.33507 0.05803 0.93786 0.0
C777 C 0.33646 0.01246 0.9951 0.0
C778 C 0.29706 0.04076 0.94446 0.0
C779 C 0.27882 0.0099 0.97708 0.0
H780 H 0.54032 0.59105 0.9363 0.0
H781 H 0.49255 0.64688 0.85607 0.0
H782 H 0.43306 0.59117 0.85711 0.0
H783 H 0.39443 0.52734 0.88248 0.0
H784 H 0.44036 0.47259 0.9709 0.0
H785 H 0.50068 0.5265 0.96344 0.0
C786 C 0.51682 0.59077 0.91892 0.0
C787 C 0.52062 0.62289 0.89629 0.0
C788 C 0.4824 0.55878 0.92077 0.0
C789 C 0.49007 0.62245 0.87407 0.0
C790 C 0.45612 0.59063 0.87453 0.0
C791 C 0.4174 0.52712 0.90081 0.0
C792 C 0.41236 0.4956 0.92739 0.0
C793 C 0.45187 0.55874 0.89827 0.0
C794 C 0.44308 0.49597 0.94938 0.0
C795 C 0.47772 0.52704 0.94566 0.0
H796 H 0.89569 0.39806 0.16088 0.0
H797 H 0.93137 0.39985 0.00075 0.0
H798 H 0.93254 0.45759 0.98488 0.0
H799 H 0.92219 0.50696 0.01621 0.0
H800 H 0.88666 0.50466 0.17659 0.0
H801 H 0.88711 0.44791 0.1928 0.0
C802 C 0.90428 0.41131 0.12268 0.0
C803 C 0.91365 0.39467 0.08216 0.0
C804 C 0.90487 0.44441 0.11388 0.0
C805 C 0.92379 0.41187 0.03254 0.0
C806 C 0.92462 0.44498 0.02352 0.0
C807 C 0.91501 0.49427 0.0549 0.0
C808 C 0.90435 0.51004 0.09512 0.0
C809 C 0.91509 0.46144 0.06387 0.0
C810 C 0.89458 0.49293 0.14479 0.0
C811 C 0.89493 0.46052 0.15414 0.0
H812 H 0.51021 0.8953 0.18931 0.0
H813 H 0.51171 0.89999 0.35895 0.0
H814 H 0.45446 0.90127 0.35936 0.0
H815 H 0.40333 0.90014 0.31099 0.0
H816 H 0.40426 0.89946 0.14111 0.0
H817 H 0.46109 0.89762 0.14097 0.0
C818 C 0.4979 0.89666 0.22622 0.0
C819 C 0.51481 0.89738 0.27401 0.0
C820 C 0.46547 0.89811 0.22603 0.0
C821 C 0.49904 0.89954 0.32172 0.0
C822 C 0.46634 0.90016 0.32195 0.0
C823 C 0.41614 0.89964 0.27411 0.0
C824 C 0.39979 0.89985 0.22617 0.0
C825 C 0.4492 0.89931 0.27434 0.0
C826 C 0.41661 0.89952 0.17846 0.0
C827 C 0.44899 0.89835 0.17836 0.0
H828 H 0.51834 0.39203 0.4933 0.0
H829 H 0.49479 0.41741 0.33861 0.0
H830 H 0.55103 0.47627 0.33983 0.0
H831 H 0.60788 0.5201 0.38387 0.0
H832 H 0.63175 0.49428 0.53794 0.0
H833 H 0.57472 0.43604 0.53768 0.0
C834 C 0.52557 0.41039 0.4598 0.0
C835 C 0.50232 0.40029 0.41602 0.0
C836 C 0.55815 0.44411 0.4605 0.0
C837 C 0.51188 0.42468 0.37322 0.0
C838 C 0.54422 0.45825 0.37364 0.0
C839 C 0.60061 0.5016 0.41721 0.0
C840 C 0.62394 0.5115 0.46083 0.0
C841 C 0.5677 0.46815 0.41689 0.0
C842 C 0.61404 0.48746 0.50409 0.0
C843 C 0.5815 0.45409 0.50392 0.0
H844 H 0.10755 0.61154 0.52273 0.0
H845 H 0.07881 0.5973 0.68781 0.0
H846 H 0.07739 0.53875 0.68834 0.0
H847 H 0.08652 0.49233 0.64229 0.0
H848 H 0.11436 0.50674 0.47689 0.0
H849 H 0.11426 0.56441 0.47616 0.0
C850 C 0.10092 0.59557 0.55877 0.0
C851 C 0.09336 0.60879 0.60512 0.0
C852 C 0.10022 0.56199 0.55882 0.0
C853 C 0.08435 0.58755 0.6514 0.0
C854 C 0.08382 0.55419 0.65186 0.0
C855 C 0.09256 0.5082 0.60623 0.0
C856 C 0.10039 0.49532 0.55975 0.0
C857 C 0.09208 0.54128 0.60592 0.0
C858 C 0.10791 0.51594 0.51308 0.0
C859 C 0.10797 0.54898 0.51263 0.0
H860 H 0.61247 0.12522 0.80201 0.0
H861 H 0.58237 0.07005 0.65199 0.0
H862 H 0.52331 0.06679 0.65717 0.0
H863 H 0.481 0.08263 0.70204 0.0
H864 H 0.51277 0.14093 0.84893 0.0
H865 H 0.57053 0.14066 0.8468 0.0
C866 C 0.59321 0.11271 0.77016 0.0
C867 C 0.60223 0.098 0.72662 0.0
C868 C 0.55954 0.11175 0.77265 0.0
C869 C 0.57625 0.08115 0.68645 0.0
C870 C 0.54247 0.07957 0.68907 0.0
C871 C 0.50064 0.09504 0.73354 0.0
C872 C 0.49297 0.11175 0.77561 0.0
C873 C 0.53395 0.09515 0.73164 0.0
C874 C 0.51838 0.12793 0.81626 0.0
C875 C 0.5513 0.12777 0.81501 0.0
loop_
_geom_bond_atom_site_label_1
_geom_bond_atom_site_label_2
_geom_bond_distance
_geom_bond_site_symmetry_2
_ccdc_geom_bond_type
C0 C1 1.351 . S
C0 N3 1.368 . S
C0 H5 0.931 . S
C1 C0 1.351 . S
C1 N2 1.373 . S
C1 H29 0.930 . S
N2 C1 1.373 . S
N2 C4 1.340 . S
N3 C0 1.368 . S
N3 C4 1.321 . S
N3 Co6 2.135 1_556 S
C4 N2 1.340 . S
C4 N3 1.321 . S
C4 H28 0.930 . S
H5 C0 0.931 . S
Co6 N3 2.135 1_554 S
Co6 N9 2.121 . S
Co6 O14 2.055 . S
Co6 O17 2.039 . S
Co6 N20 2.140 1_554 S
C7 O8 1.227 . S
C7 O17 1.265 . S
O8 C7 1.227 . S
N9 Co6 2.121 . S
N9 C11 1.375 . S
N9 C12 1.313 . S
C10 C11 1.338 . S
C10 N13 1.377 . S
C10 H30 0.930 . S
C11 N9 1.375 . S
C11 C10 1.338 . S
C11 H15 0.931 . S
C12 N9 1.313 . S
C12 N13 1.344 . S
C12 H16 0.930 . S
N13 C10 1.377 . S
N13 C12 1.344 . S
O14 Co6 2.055 . S
O14 C18 1.253 1_554 S
H15 C11 0.931 . S
H16 C12 0.930 . S
O17 Co6 2.039 . S
O17 C7 1.265 . S
C18 O14 1.253 1_556 S
C18 O19 1.227 . S
O19 C18 1.227 . S
N20 Co6 2.140 1_556 S
N20 C23 1.346 . S
N20 C24 1.345 . S
C21 C22 1.387 . S
C21 C25 1.391 . S
C22 C21 1.387 . S
C22 C23 1.369 . S
C22 H31 0.929 . S
C23 N20 1.346 . S
C23 C22 1.369 . S
C23 H26 0.928 . S
C24 N20 1.345 . S
C24 C25 1.371 . S
C24 H27 0.931 . S
C25 C21 1.391 . S
C25 C24 1.371 . S
C25 H32 0.930 . S
H26 C23 0.928 . S
H27 C24 0.931 . S
H28 C4 0.930 . S
H29 C1 0.930 . S
H30 C10 0.930 . S
H31 C22 0.929 . S
H32 C25 0.930 . S
C33 C34 1.351 . S
C33 N36 1.368 . S
C33 H38 0.931 . S
C34 C33 1.351 . S
C34 N35 1.373 . S
C34 H62 0.930 1_554 S
N35 C34 1.373 . S
N35 C37 1.340 . S
N36 C33 1.368 . S
N36 C37 1.321 . S
N36 Co39 2.135 . S
C37 N35 1.340 . S
C37 N36 1.321 . S
C37 H61 0.930 . S
H38 C33 0.931 . S
Co39 N36 2.135 . S
Co39 N42 2.121 . S
Co39 O47 2.055 . S
Co39 O50 2.039 . S
Co39 N53 2.140 . S
C40 O41 1.227 . S
C40 O50 1.265 . S
O41 C40 1.227 . S
N42 Co39 2.121 . S
N42 C44 1.375 . S
N42 C45 1.313 . S
C43 C44 1.338 . S
C43 N46 1.377 . S
C43 H63 0.930 . S
C44 N42 1.375 . S
C44 C43 1.338 . S
C44 H48 0.931 . S
C45 N42 1.313 . S
C45 N46 1.344 . S
C45 H49 0.930 . S
N46 C43 1.377 . S
N46 C45 1.344 . S
O47 Co39 2.055 . S
O47 C51 1.253 . S
H48 C44 0.931 . S
H49 C45 0.930 . S
O50 Co39 2.039 . S
O50 C40 1.265 . S
C51 O47 1.253 . S
C51 O52 1.227 . S
O52 C51 1.227 . S
N53 Co39 2.140 . S
N53 C56 1.346 . S
N53 C57 1.345 . S
C54 C55 1.387 . S
C54 C58 1.391 . S
C55 C54 1.387 . S
C55 C56 1.369 . S
C55 H64 0.929 . S
C56 N53 1.346 . S
C56 C55 1.369 . S
C56 H59 0.928 . S
C57 N53 1.345 . S
C57 C58 1.371 . S
C57 H60 0.931 . S
C58 C54 1.391 . S
C58 C57 1.371 . S
C58 H65 0.930 . S
H59 C56 0.928 . S
H60 C57 0.931 . S
H61 C37 0.930 . S
H62 C34 0.930 1_556 S
H63 C43 0.930 . S
H64 C55 0.929 . S
H65 C58 0.930 . S
C66 C67 1.351 . S
C66 N69 1.368 . S
C66 H71 0.931 . S
C67 C66 1.351 . S
C67 N68 1.373 . S
C67 H95 0.930 . S
N68 C67 1.373 . S
N68 C70 1.340 . S
N69 C66 1.368 . S
N69 C70 1.321 . S
N69 Co72 2.135 . S
C70 N68 1.340 . S
C70 N69 1.321 . S
C70 H94 0.930 . S
H71 C66 0.931 . S
Co72 N69 2.135 . S
Co72 N75 2.121 . S
Co72 O80 2.055 . S
Co72 O83 2.039 . S
Co72 N86 2.140 . S
C73 O74 1.227 . S
C73 O83 1.265 . S
O74 C73 1.227 . S
N75 Co72 2.121 . S
N75 C77 1.375 . S
N75 C78 1.313 . S
C76 C77 1.338 . S
C76 N79 1.377 . S
C76 H96 0.930 . S
C77 N75 1.375 . S
C77 C76 1.338 . S
C77 H81 0.931 . S
C78 N75 1.313 . S
C78 N79 1.344 . S
C78 H82 0.930 . S
N79 C76 1.377 . S
N79 C78 1.344 . S
O80 Co72 2.055 . S
O80 C84 1.253 . S
H81 C77 0.931 . S
H82 C78 0.930 . S
O83 Co72 2.039 . S
O83 C73 1.265 . S
C84 O80 1.253 . S
C84 O85 1.227 . S
O85 C84 1.227 . S
N86 Co72 2.140 . S
N86 C89 1.346 . S
N86 C90 1.345 . S
C87 C88 1.387 . S
C87 C91 1.391 . S
C88 C87 1.387 . S
C88 C89 1.369 . S
C88 H97 0.929 . S
C89 N86 1.346 . S
C89 C88 1.369 . S
C89 H92 0.928 . S
C90 N86 1.345 . S
C90 C91 1.371 . S
C90 H93 0.931 . S
C91 C87 1.391 . S
C91 C90 1.371 . S
C91 H98 0.930 . S
H92 C89 0.928 . S
H93 C90 0.931 . S
H94 C70 0.930 . S
H95 C67 0.930 . S
H96 C76 0.930 . S
H97 C88 0.929 . S
H98 C91 0.930 . S
C99 C100 1.351 . S
C99 N102 1.368 . S
C99 H104 0.931 . S
C100 C99 1.351 . S
C100 N101 1.373 . S
C100 H128 0.930 . S
N101 C100 1.373 . S
N101 C103 1.340 . S
N102 C99 1.368 . S
N102 C103 1.321 . S
N102 Co105 2.135 . S
C103 N101 1.340 . S
C103 N102 1.321 . S
C103 H127 0.930 . S
H104 C99 0.931 . S
Co105 N102 2.135 . S
Co105 N108 2.121 . S
Co105 O113 2.055 . S
Co105 O116 2.039 . S
Co105 N119 2.140 . S
C106 O107 1.227 . S
C106 O116 1.265 . S
O107 C106 1.227 . S
N108 Co105 2.121 . S
N108 C110 1.375 . S
N108 C111 1.313 . S
C109 C110 1.338 . S
C109 N112 1.377 . S
C109 H129 0.930 . S
C110 N108 1.375 . S
C110 C109 1.338 . S
C110 H114 0.931 . S
C111 N108 1.313 . S
C111 N112 1.344 . S
C111 H115 0.930 . S
N112 C109 1.377 . S
N112 C111 1.344 . S
O113 Co105 2.055 . S
O113 C117 1.253 . S
H114 C110 0.931 . S
H115 C111 0.930 . S
O116 Co105 2.039 . S
O116 C106 1.265 . S
C117 O113 1.253 . S
C117 O118 1.227 . S
O118 C117 1.227 . S
N119 Co105 2.140 . S
N119 C122 1.346 . S
N119 C123 1.345 . S
C120 C121 1.387 . S
C120 C124 1.391 . S
C121 C120 1.387 . S
C121 C122 1.369 . S
C121 H130 0.929 . S
C122 N119 1.346 . S
C122 C121 1.369 . S
C122 H125 0.928 . S
C123 N119 1.345 . S
C123 C124 1.371 . S
C123 H126 0.931 . S
C124 C120 1.391 . S
C124 C123 1.371 . S
C124 H131 0.930 . S
H125 C122 0.928 . S
H126 C123 0.931 . S
H127 C103 0.930 . S
H128 C100 0.930 . S
H129 C109 0.930 . S
H130 C121 0.929 . S
H131 C124 0.930 . S
C132 C133 1.351 . S
C132 N135 1.368 . S
C132 H137 0.931 . S
C133 C132 1.351 . S
C133 N134 1.373 . S
C133 H161 0.930 . S
N134 C133 1.373 . S
N134 C136 1.340 . S
N135 C132 1.368 . S
N135 C136 1.321 . S
N135 Co138 2.135 . S
C136 N134 1.340 . S
C136 N135 1.321 . S
C136 H160 0.930 . S
H137 C132 0.931 . S
Co138 N135 2.135 . S
Co138 N141 2.121 . S
Co138 O146 2.055 . S
Co138 O149 2.039 . S
Co138 N152 2.140 . S
C139 O140 1.227 . S
C139 O149 1.265 . S
O140 C139 1.227 . S
N141 Co138 2.121 . S
N141 C143 1.375 . S
N141 C144 1.313 . S
C142 C143 1.338 . S
C142 N145 1.377 . S
C142 H162 0.930 . S
C143 N141 1.375 . S
C143 C142 1.338 . S
C143 H147 0.931 . S
C144 N141 1.313 . S
C144 N145 1.344 . S
C144 H148 0.930 . S
N145 C142 1.377 . S
N145 C144 1.344 . S
O146 Co138 2.055 . S
O146 C150 1.253 . S
H147 C143 0.931 . S
H148 C144 0.930 . S
O149 Co138 2.039 . S
O149 C139 1.265 . S
C150 O146 1.253 . S
C150 O151 1.227 . S
O151 C150 1.227 . S
N152 Co138 2.140 . S
N152 C155 1.346 . S
N152 C156 1.345 . S
C153 C154 1.387 . S
C153 C157 1.391 . S
C154 C153 1.387 . S
C154 C155 1.369 . S
C154 H163 0.929 . S
C155 N152 1.346 . S
C155 C154 1.369 . S
C155 H158 0.928 . S
C156 N152 1.345 . S
C156 C157 1.371 . S
C156 H159 0.931 . S
C157 C153 1.391 . S
C157 C156 1.371 . S
C157 H164 0.930 . S
H158 C155 0.928 . S
H159 C156 0.931 . S
H160 C136 0.930 . S
H161 C133 0.930 . S
H162 C142 0.930 . S
H163 C154 0.929 . S
H164 C157 0.930 . S
C165 C166 1.351 . S
C165 N168 1.368 . S
C165 H170 0.931 . S
C166 C165 1.351 . S
C166 N167 1.373 . S
C166 H194 0.930 . S
N167 C166 1.373 . S
N167 C169 1.340 . S
N168 C165 1.368 . S
N168 C169 1.321 . S
N168 Co171 2.135 . S
C169 N167 1.340 . S
C169 N168 1.321 . S
C169 H193 0.930 . S
H170 C165 0.931 . S
Co171 N168 2.135 . S
Co171 N174 2.121 . S
Co171 O179 2.055 . S
Co171 O182 2.039 . S
Co171 N185 2.140 . S
C172 O173 1.227 . S
C172 O182 1.265 . S
O173 C172 1.227 . S
N174 Co171 2.121 . S
N174 C176 1.375 . S
N174 C177 1.313 . S
C175 C176 1.338 . S
C175 N178 1.377 . S
C175 H195 0.930 . S
C176 N174 1.375 . S
C176 C175 1.338 . S
C176 H180 0.931 . S
C177 N174 1.313 . S
C177 N178 1.344 . S
C177 H181 0.930 . S
N178 C175 1.377 . S
N178 C177 1.344 . S
O179 Co171 2.055 . S
O179 C183 1.253 . S
H180 C176 0.931 . S
H181 C177 0.930 . S
O182 Co171 2.039 . S
O182 C172 1.265 . S
C183 O179 1.253 . S
C183 O184 1.227 . S
O184 C183 1.227 . S
N185 Co171 2.140 . S
N185 C188 1.346 . S
N185 C189 1.345 . S
C186 C187 1.387 . S
C186 C190 1.391 . S
C187 C186 1.387 . S
C187 C188 1.369 . S
C187 H196 0.929 . S
C188 N185 1.346 . S
C188 C187 1.369 . S
C188 H191 0.928 . S
C189 N185 1.345 . S
C189 C190 1.371 . S
C189 H192 0.931 . S
C190 C186 1.391 . S
C190 C189 1.371 . S
C190 H197 0.930 . S
H191 C188 0.928 . S
H192 C189 0.931 . S
H193 C169 0.930 . S
H194 C166 0.930 . S
H195 C175 0.930 . S
H196 C187 0.929 . S
H197 C190 0.930 . S
C198 C199 1.351 . S
C198 N201 1.368 . S
C198 H203 0.931 . S
C199 C198 1.351 . S
C199 N200 1.373 . S
C199 H227 0.930 1_556 S
N200 C199 1.373 . S
N200 C202 1.340 . S
N201 C198 1.368 . S
N201 C202 1.321 . S
N201 Co204 2.135 . S
C202 N200 1.340 . S
C202 N201 1.321 . S
C202 H226 0.930 . S
H203 C198 0.931 . S
Co204 N201 2.135 . S
Co204 N207 2.121 . S
Co204 O212 2.055 . S
Co204 O215 2.039 . S
Co204 N218 2.140 . S
C205 O206 1.227 . S
C205 O215 1.265 . S
O206 C205 1.227 . S
N207 Co204 2.121 . S
N207 C209 1.375 . S
N207 C210 1.313 . S
C208 C209 1.338 . S
C208 N211 1.377 . S
C208 H228 0.930 . S
C209 N207 1.375 . S
C209 C208 1.338 . S
C209 H213 0.931 . S
C210 N207 1.313 . S
C210 N211 1.344 . S
C210 H214 0.930 . S
N211 C208 1.377 . S
N211 C210 1.344 . S
O212 Co204 2.055 . S
O212 C216 1.253 . S
H213 C209 0.931 . S
H214 C210 0.930 . S
O215 Co204 2.039 . S
O215 C205 1.265 . S
C216 O212 1.253 . S
C216 O217 1.227 . S
O217 C216 1.227 . S
N218 Co204 2.140 . S
N218 C221 1.346 . S
N218 C222 1.345 . S
C219 C220 1.387 . S
C219 C223 1.391 . S
C220 C219 1.387 . S
C220 C221 1.369 . S
C220 H229 0.929 . S
C221 N218 1.346 . S
C221 C220 1.369 . S
C221 H224 0.928 . S
C222 N218 1.345 . S
C222 C223 1.371 . S
C222 H225 0.931 . S
C223 C219 1.391 . S
C223 C222 1.371 . S
C223 H230 0.930 . S
H224 C221 0.928 . S
H225 C222 0.931 . S
H226 C202 0.930 . S
H227 C199 0.930 1_554 S
H228 C208 0.930 . S
H229 C220 0.929 . S
H230 C223 0.930 . S
C231 C232 1.351 . S
C231 N234 1.368 . S
C231 H236 0.931 . S
C232 C231 1.351 . S
C232 N233 1.373 . S
C232 H260 0.930 . S
N233 C232 1.373 . S
N233 C235 1.340 . S
N234 C231 1.368 . S
N234 C235 1.321 . S
N234 Co237 2.135 1_554 S
C235 N233 1.340 . S
C235 N234 1.321 . S
C235 H259 0.930 . S
H236 C231 0.931 . S
Co237 N234 2.135 1_556 S
Co237 N240 2.121 . S
Co237 O245 2.055 . S
Co237 O248 2.039 . S
Co237 N251 2.140 1_556 S
C238 O239 1.227 . S
C238 O248 1.265 . S
O239 C238 1.227 . S
N240 Co237 2.121 . S
N240 C242 1.375 . S
N240 C243 1.313 . S
C241 C242 1.338 . S
C241 N244 1.377 . S
C241 H261 0.930 . S
C242 N240 1.375 . S
C242 C241 1.338 . S
C242 H246 0.931 . S
C243 N240 1.313 . S
C243 N244 1.344 . S
C243 H247 0.930 . S
N244 C241 1.377 . S
N244 C243 1.344 . S
O245 Co237 2.055 . S
O245 C249 1.253 1_556 S
H246 C242 0.931 . S
H247 C243 0.930 . S
O248 Co237 2.039 . S
O248 C238 1.265 . S
C249 O245 1.253 1_554 S
C249 O250 1.227 . S
O250 C249 1.227 . S
N251 Co237 2.140 1_554 S
N251 C254 1.346 . S
N251 C255 1.345 . S
C252 C253 1.387 . S
C252 C256 1.391 . S
C253 C252 1.387 . S
C253 C254 1.369 . S
C253 H262 0.929 . S
C254 N251 1.346 . S
C254 C253 1.369 . S
C254 H257 0.928 . S
C255 N251 1.345 . S
C255 C256 1.371 . S
C255 H258 0.931 . S
C256 C252 1.391 . S
C256 C255 1.371 . S
C256 H263 0.930 . S
H257 C254 0.928 . S
H258 C255 0.931 . S
H259 C235 0.930 . S
H260 C232 0.930 . S
H261 C241 0.930 . S
H262 C253 0.929 . S
H263 C256 0.930 . S
C264 C265 1.351 . S
C264 N267 1.368 . S
C264 H269 0.931 . S
C265 C264 1.351 . S
C265 N266 1.373 . S
C265 H293 0.930 . S
N266 C265 1.373 . S
N266 C268 1.340 . S
N267 C264 1.368 . S
N267 C268 1.321 . S
N267 Co270 2.135 . S
C268 N266 1.340 . S
C268 N267 1.321 . S
C268 H292 0.930 . S
H269 C264 0.931 . S
Co270 N267 2.135 . S
Co270 N273 2.121 . S
Co270 O278 2.055 . S
Co270 O281 2.039 . S
Co270 N284 2.140 . S
C271 O272 1.227 . S
C271 O281 1.265 . S
O272 C271 1.227 . S
N273 Co270 2.121 . S
N273 C275 1.375 . S
N273 C276 1.313 . S
C274 C275 1.338 . S
C274 N277 1.377 . S
C274 H294 0.930 . S
C275 N273 1.375 . S
C275 C274 1.338 . S
C275 H279 0.931 . S
C276 N273 1.313 . S
C276 N277 1.344 . S
C276 H280 0.930 . S
N277 C274 1.377 . S
N277 C276 1.344 . S
O278 Co270 2.055 . S
O278 C282 1.253 . S
H279 C275 0.931 . S
H280 C276 0.930 . S
O281 Co270 2.039 . S
O281 C271 1.265 . S
C282 O278 1.253 . S
C282 O283 1.227 . S
O283 C282 1.227 . S
N284 Co270 2.140 . S
N284 C287 1.346 . S
N284 C288 1.345 . S
C285 C286 1.387 . S
C285 C289 1.391 . S
C286 C285 1.387 . S
C286 C287 1.369 . S
C286 H295 0.929 . S
C287 N284 1.346 . S
C287 C286 1.369 . S
C287 H290 0.928 . S
C288 N284 1.345 . S
C288 C289 1.371 . S
C288 H291 0.931 . S
C289 C285 1.391 . S
C289 C288 1.371 . S
C289 H296 0.930 . S
H290 C287 0.928 . S
H291 C288 0.931 . S
H292 C268 0.930 . S
H293 C265 0.930 . S
H294 C274 0.930 . S
H295 C286 0.929 . S
H296 C289 0.930 . S
C297 C298 1.351 . S
C297 N300 1.368 . S
C297 H302 0.931 . S
C298 C297 1.351 . S
C298 N299 1.373 . S
C298 H326 0.930 . S
N299 C298 1.373 . S
N299 C301 1.340 . S
N300 C297 1.368 . S
N300 C301 1.321 . S
N300 Co303 2.135 . S
C301 N299 1.340 . S
C301 N300 1.321 . S
C301 H325 0.930 . S
H302 C297 0.931 . S
Co303 N300 2.135 . S
Co303 N306 2.121 . S
Co303 O311 2.055 . S
Co303 O314 2.039 . S
Co303 N317 2.140 . S
C304 O305 1.227 . S
C304 O314 1.265 . S
O305 C304 1.227 . S
N306 Co303 2.121 . S
N306 C308 1.375 . S
N306 C309 1.313 . S
C307 C308 1.338 . S
C307 N310 1.377 . S
C307 H327 0.930 . S
C308 N306 1.375 . S
C308 C307 1.338 . S
C308 H312 0.931 . S
C309 N306 1.313 . S
C309 N310 1.344 . S
C309 H313 0.930 . S
N310 C307 1.377 . S
N310 C309 1.344 . S
O311 Co303 2.055 . S
O311 C315 1.253 . S
H312 C308 0.931 . S
H313 C309 0.930 . S
O314 Co303 2.039 . S
O314 C304 1.265 . S
C315 O311 1.253 . S
C315 O316 1.227 . S
O316 C315 1.227 . S
N317 Co303 2.140 . S
N317 C320 1.346 . S
N317 C321 1.345 . S
C318 C319 1.387 . S
C318 C322 1.391 . S
C319 C318 1.387 . S
C319 C320 1.369 . S
C319 H328 0.929 . S
C320 N317 1.346 . S
C320 C319 1.369 . S
C320 H323 0.928 . S
C321 N317 1.345 . S
C321 C322 1.371 . S
C321 H324 0.931 . S
C322 C318 1.391 . S
C322 C321 1.371 . S
C322 H329 0.930 . S
H323 C320 0.928 . S
H324 C321 0.931 . S
H325 C301 0.930 . S
H326 C298 0.930 . S
H327 C307 0.930 . S
H328 C319 0.929 . S
H329 C322 0.930 . S
C330 C331 1.351 . S
C330 N333 1.368 . S
C330 H335 0.931 . S
C331 C330 1.351 . S
C331 N332 1.373 . S
C331 H359 0.930 . S
N332 C331 1.373 . S
N332 C334 1.340 . S
N333 C330 1.368 . S
N333 C334 1.321 . S
N333 Co336 2.135 . S
C334 N332 1.340 . S
C334 N333 1.321 . S
C334 H358 0.930 . S
H335 C330 0.931 . S
Co336 N333 2.135 . S
Co336 N339 2.121 . S
Co336 O344 2.055 . S
Co336 O347 2.039 . S
Co336 N350 2.140 . S
C337 O338 1.227 . S
C337 O347 1.265 . S
O338 C337 1.227 . S
N339 Co336 2.121 . S
N339 C341 1.375 . S
N339 C342 1.313 . S
C340 C341 1.338 . S
C340 N343 1.377 . S
C340 H360 0.930 . S
C341 N339 1.375 . S
C341 C340 1.338 . S
C341 H345 0.931 . S
C342 N339 1.313 . S
C342 N343 1.344 . S
C342 H346 0.930 . S
N343 C340 1.377 . S
N343 C342 1.344 . S
O344 Co336 2.055 . S
O344 C348 1.253 . S
H345 C341 0.931 . S
H346 C342 0.930 . S
O347 Co336 2.039 . S
O347 C337 1.265 . S
C348 O344 1.253 . S
C348 O349 1.227 . S
O349 C348 1.227 . S
N350 Co336 2.140 . S
N350 C353 1.346 . S
N350 C354 1.345 . S
C351 C352 1.387 . S
C351 C355 1.391 . S
C352 C351 1.387 . S
C352 C353 1.369 . S
C352 H361 0.929 . S
C353 N350 1.346 . S
C353 C352 1.369 . S
C353 H356 0.928 . S
C354 N350 1.345 . S
C354 C355 1.371 . S
C354 H357 0.931 . S
C355 C351 1.391 . S
C355 C354 1.371 . S
C355 H362 0.930 . S
H356 C353 0.928 . S
H357 C354 0.931 . S
H358 C334 0.930 . S
H359 C331 0.930 . S
H360 C340 0.930 . S
H361 C352 0.929 . S
H362 C355 0.930 . S
C363 C364 1.351 . S
C363 N366 1.368 . S
C363 H368 0.931 . S
C364 C363 1.351 . S
C364 N365 1.373 . S
C364 H392 0.930 . S
N365 C364 1.373 . S
N365 C367 1.340 . S
N366 C363 1.368 . S
N366 C367 1.321 . S
N366 Co369 2.135 . S
C367 N365 1.340 . S
C367 N366 1.321 . S
C367 H391 0.930 . S
H368 C363 0.931 . S
Co369 N366 2.135 . S
Co369 N372 2.121 . S
Co369 O377 2.055 . S
Co369 O380 2.039 . S
Co369 N383 2.140 . S
C370 O371 1.227 . S
C370 O380 1.265 . S
O371 C370 1.227 . S
N372 Co369 2.121 . S
N372 C374 1.375 . S
N372 C375 1.313 . S
C373 C374 1.338 . S
C373 N376 1.377 . S
C373 H393 0.930 . S
C374 N372 1.375 . S
C374 C373 1.338 . S
C374 H378 0.931 . S
C375 N372 1.313 . S
C375 N376 1.344 . S
C375 H379 0.930 . S
N376 C373 1.377 . S
N376 C375 1.344 . S
O377 Co369 2.055 . S
O377 C381 1.253 . S
H378 C374 0.931 . S
H379 C375 0.930 . S
O380 Co369 2.039 . S
O380 C370 1.265 . S
C381 O377 1.253 . S
C381 O382 1.227 . S
O382 C381 1.227 . S
N383 Co369 2.140 . S
N383 C386 1.346 . S
N383 C387 1.345 . S
C384 C385 1.387 . S
C384 C388 1.391 . S
C385 C384 1.387 . S
C385 C386 1.369 . S
C385 H394 0.929 . S
C386 N383 1.346 . S
C386 C385 1.369 . S
C386 H389 0.928 . S
C387 N383 1.345 . S
C387 C388 1.371 . S
C387 H390 0.931 . S
C388 C384 1.391 . S
C388 C387 1.371 . S
C388 H395 0.930 . S
H389 C386 0.928 . S
H390 C387 0.931 . S
H391 C367 0.930 . S
H392 C364 0.930 . S
H393 C373 0.930 . S
H394 C385 0.929 . S
H395 C388 0.930 . S
H396 C402 0.930 . S
H397 C405 0.930 . S
H398 C406 0.930 . S
H399 C407 0.930 . S
H400 C410 0.930 . S
H401 C411 0.930 . S
C402 H396 0.930 . S
C402 C403 1.355 . S
C402 C404 1.415 . S
C403 C402 1.355 . S
C403 C405 1.419 . S
C404 C402 1.415 . S
C404 C409 1.425 . S
C404 C411 1.409 . S
C405 H397 0.930 . S
C405 C403 1.419 . S
C405 C406 1.362 . S
C406 H398 0.930 . S
C406 C405 1.362 . S
C406 C409 1.409 . S
C407 H399 0.930 . S
C407 C408 1.355 . S
C407 C409 1.415 . S
C408 C407 1.355 . S
C408 C410 1.419 . S
C409 C404 1.425 . S
C409 C406 1.409 . S
C409 C407 1.415 . S
C410 H400 0.930 . S
C410 C408 1.419 . S
C410 C411 1.362 . S
C411 H401 0.930 . S
C411 C404 1.409 . S
C411 C410 1.362 . S
H412 C418 0.930 . S
H413 C421 0.930 . S
H414 C422 0.930 . S
H415 C423 0.930 . S
H416 C426 0.930 . S
H417 C427 0.930 . S
C418 H412 0.930 . S
C418 C419 1.355 . S
C418 C420 1.415 . S
C419 C418 1.355 . S
C419 C421 1.419 . S
C420 C418 1.415 . S
C420 C425 1.425 . S
C420 C427 1.409 . S
C421 H413 0.930 . S
C421 C419 1.419 . S
C421 C422 1.362 . S
C422 H414 0.930 . S
C422 C421 1.362 . S
C422 C425 1.409 . S
C423 H415 0.930 . S
C423 C424 1.355 . S
C423 C425 1.415 . S
C424 C423 1.355 . S
C424 C426 1.419 . S
C425 C420 1.425 . S
C425 C422 1.409 . S
C425 C423 1.415 . S
C426 H416 0.930 . S
C426 C424 1.419 . S
C426 C427 1.362 . S
C427 H417 0.930 . S
C427 C420 1.409 . S
C427 C426 1.362 . S
H428 C434 0.930 . S
H429 C437 0.930 . S
H430 C438 0.930 . S
H431 C439 0.930 . S
H432 C442 0.930 . S
H433 C443 0.930 . S
C434 H428 0.930 . S
C434 C435 1.355 . S
C434 C436 1.415 . S
C435 C434 1.355 . S
C435 C437 1.419 . S
C436 C434 1.415 . S
C436 C441 1.425 . S
C436 C443 1.409 . S
C437 H429 0.930 . S
C437 C435 1.419 . S
C437 C438 1.362 . S
C438 H430 0.930 . S
C438 C437 1.362 . S
C438 C441 1.409 . S
C439 H431 0.930 . S
C439 C440 1.355 . S
C439 C441 1.415 . S
C440 C439 1.355 . S
C440 C442 1.419 . S
C441 C436 1.425 . S
C441 C438 1.409 . S
C441 C439 1.415 . S
C442 H432 0.930 . S
C442 C440 1.419 . S
C442 C443 1.362 . S
C443 H433 0.930 . S
C443 C436 1.409 . S
C443 C442 1.362 . S
H444 C450 0.930 . S
H445 C453 0.930 . S
H446 C454 0.930 . S
H447 C455 0.930 . S
H448 C458 0.930 . S
H449 C459 0.930 . S
C450 H444 0.930 . S
C450 C451 1.355 . S
C450 C452 1.415 . S
C451 C450 1.355 . S
C451 C453 1.419 . S
C452 C450 1.415 . S
C452 C457 1.425 . S
C452 C459 1.409 . S
C453 H445 0.930 . S
C453 C451 1.419 . S
C453 C454 1.362 . S
C454 H446 0.930 . S
C454 C453 1.362 . S
C454 C457 1.409 . S
C455 H447 0.930 . S
C455 C456 1.355 . S
C455 C457 1.415 . S
C456 C455 1.355 . S
C456 C458 1.419 . S
C457 C452 1.425 . S
C457 C454 1.409 . S
C457 C455 1.415 . S
C458 H448 0.930 . S
C458 C456 1.419 . S
C458 C459 1.362 . S
C459 H449 0.930 . S
C459 C452 1.409 . S
C459 C458 1.362 . S
H460 C466 0.930 . S
H461 C469 0.930 . S
H462 C470 0.930 . S
H463 C471 0.930 . S
H464 C474 0.930 1_554 S
H465 C475 0.930 . S
C466 H460 0.930 . S
C466 C467 1.355 . S
C466 C468 1.415 . S
C467 C466 1.355 . S
C467 C469 1.419 . S
C468 C466 1.415 . S
C468 C473 1.425 . S
C468 C475 1.409 . S
C469 H461 0.930 . S
C469 C467 1.419 . S
C469 C470 1.362 . S
C470 H462 0.930 . S
C470 C469 1.362 . S
C470 C473 1.409 . S
C471 H463 0.930 . S
C471 C472 1.355 1_556 S
C471 C473 1.415 . S
C472 C471 1.355 1_554 S
C472 C474 1.419 1_554 S
C473 C468 1.425 . S
C473 C470 1.409 . S
C473 C471 1.415 . S
C474 H464 0.930 1_556 S
C474 C472 1.419 1_556 S
C474 C475 1.362 . S
C475 H465 0.930 . S
C475 C468 1.409 . S
C475 C474 1.362 . S
H476 C482 0.930 . S
H477 C485 0.930 1_556 S
H478 C486 0.930 . S
H479 C487 0.930 . S
H480 C490 0.930 . S
H481 C491 0.930 . S
C482 H476 0.930 . S
C482 C483 1.355 1_554 S
C482 C484 1.415 . S
C483 C482 1.355 1_556 S
C483 C485 1.419 1_556 S
C484 C482 1.415 . S
C484 C489 1.425 . S
C484 C491 1.409 . S
C485 H477 0.930 1_554 S
C485 C483 1.419 1_554 S
C485 C486 1.362 . S
C486 H478 0.930 . S
C486 C485 1.362 . S
C486 C489 1.409 . S
C487 H479 0.930 . S
C487 C488 1.355 . S
C487 C489 1.415 . S
C488 C487 1.355 . S
C488 C490 1.419 . S
C489 C484 1.425 . S
C489 C486 1.409 . S
C489 C487 1.415 . S
C490 H480 0.930 . S
C490 C488 1.419 . S
C490 C491 1.362 . S
C491 H481 0.930 . S
C491 C484 1.409 . S
C491 C490 1.362 . S
H492 C498 0.930 . S
H493 C501 0.930 . S
H494 C502 0.930 . S
H495 C503 0.930 . S
H496 C506 0.930 . S
H497 C507 0.930 . S
C498 H492 0.930 . S
C498 C499 1.355 . S
C498 C500 1.415 . S
C499 C498 1.355 . S
C499 C501 1.419 . S
C500 C498 1.415 . S
C500 C505 1.425 . S
C500 C507 1.409 . S
C501 H493 0.930 . S
C501 C499 1.419 . S
C501 C502 1.362 . S
C502 H494 0.930 . S
C502 C501 1.362 . S
C502 C505 1.409 . S
C503 H495 0.930 . S
C503 C504 1.355 . S
C503 C505 1.415 . S
C504 C503 1.355 . S
C504 C506 1.419 . S
C505 C500 1.425 . S
C505 C502 1.409 . S
C505 C503 1.415 . S
C506 H496 0.930 . S
C506 C504 1.419 . S
C506 C507 1.362 . S
C507 H497 0.930 . S
C507 C500 1.409 . S
C507 C506 1.362 . S
H508 C514 0.930 . S
H509 C517 0.930 . S
H510 C518 0.930 . S
H511 C519 0.930 . S
H512 C522 0.930 . S
H513 C523 0.930 . S
C514 H508 0.930 . S
C514 C515 1.355 1_554 S
C514 C516 1.415 . S
C515 C514 1.355 1_556 S
C515 C517 1.419 . S
C516 C514 1.415 . S
C516 C521 1.425 1_554 S
C516 C523 1.409 . S
C517 H509 0.930 . S
C517 C515 1.419 . S
C517 C518 1.362 . S
C518 H510 0.930 . S
C518 C517 1.362 . S
C518 C521 1.409 . S
C519 H511 0.930 . S
C519 C520 1.355 1_556 S
C519 C521 1.415 . S
C520 C519 1.355 1_554 S
C520 C522 1.419 . S
C521 C516 1.425 1_556 S
C521 C518 1.409 . S
C521 C519 1.415 . S
C522 H512 0.930 . S
C522 C520 1.419 . S
C522 C523 1.362 . S
C523 H513 0.930 . S
C523 C516 1.409 . S
C523 C522 1.362 . S
H524 C530 0.930 . S
H525 C533 0.930 . S
H526 C534 0.930 . S
H527 C535 0.930 . S
H528 C538 0.930 1_565 S
H529 C539 0.930 . S
C530 H524 0.930 . S
C530 C531 1.355 . S
C530 C532 1.415 . S
C531 C530 1.355 . S
C531 C533 1.419 . S
C532 C530 1.415 . S
C532 C537 1.425 . S
C532 C539 1.409 . S
C533 H525 0.930 . S
C533 C531 1.419 . S
C533 C534 1.362 . S
C534 H526 0.930 . S
C534 C533 1.362 . S
C534 C537 1.409 . S
C535 H527 0.930 . S
C535 C536 1.355 . S
C535 C537 1.415 . S
C536 C535 1.355 . S
C536 C538 1.419 . S
C537 C532 1.425 . S
C537 C534 1.409 . S
C537 C535 1.415 . S
C538 H528 0.930 1_545 S
C538 C536 1.419 . S
C538 C539 1.362 . S
C539 H529 0.930 . S
C539 C532 1.409 . S
C539 C538 1.362 . S
H540 C546 0.930 . S
H541 C549 0.930 . S
H542 C550 0.930 . S
H543 C551 0.930 . S
H544 C554 0.930 . S
H545 C555 0.930 . S
C546 H540 0.930 . S
C546 C547 1.355 . S
C546 C548 1.415 . S
C547 C546 1.355 . S
C547 C549 1.419 . S
C548 C546 1.415 . S
C548 C553 1.425 . S
C548 C555 1.409 . S
C549 H541 0.930 . S
C549 C547 1.419 . S
C549 C550 1.362 . S
C550 H542 0.930 . S
C550 C549 1.362 . S
C550 C553 1.409 . S
C551 H543 0.930 . S
C551 C552 1.355 . S
C551 C553 1.415 . S
C552 C551 1.355 . S
C552 C554 1.419 . S
C553 C548 1.425 . S
C553 C550 1.409 . S
C553 C551 1.415 . S
C554 H544 0.930 . S
C554 C552 1.419 . S
C554 C555 1.362 . S
C555 H545 0.930 . S
C555 C548 1.409 . S
C555 C554 1.362 . S
H556 C562 0.930 . S
H557 C565 0.930 1_455 S
H558 C566 0.930 . S
H559 C567 0.930 . S
H560 C570 0.930 . S
H561 C571 0.930 . S
C562 H556 0.930 . S
C562 C563 1.355 . S
C562 C564 1.415 . S
C563 C562 1.355 . S
C563 C565 1.419 . S
C564 C562 1.415 . S
C564 C569 1.425 . S
C564 C571 1.409 . S
C565 H557 0.930 1_655 S
C565 C563 1.419 . S
C565 C566 1.362 . S
C566 H558 0.930 . S
C566 C565 1.362 . S
C566 C569 1.409 . S
C567 H559 0.930 . S
C567 C568 1.355 . S
C567 C569 1.415 . S
C568 C567 1.355 . S
C568 C570 1.419 . S
C569 C564 1.425 . S
C569 C566 1.409 . S
C569 C567 1.415 . S
C570 H560 0.930 . S
C570 C568 1.419 . S
C570 C571 1.362 . S
C571 H561 0.930 . S
C571 C564 1.409 . S
C571 C570 1.362 . S
H572 C578 0.930 . S
H573 C581 0.930 1_545 S
H574 C582 0.930 . S
H575 C583 0.930 . S
H576 C586 0.930 . S
H577 C587 0.930 . S
C578 H572 0.930 . S
C578 C579 1.355 . S
C578 C580 1.415 . S
C579 C578 1.355 . S
C579 C581 1.419 . S
C580 C578 1.415 . S
C580 C585 1.425 . S
C580 C587 1.409 . S
C581 H573 0.930 1_565 S
C581 C579 1.419 . S
C581 C582 1.362 . S
C582 H574 0.930 . S
C582 C581 1.362 . S
C582 C585 1.409 . S
C583 H575 0.930 . S
C583 C584 1.355 . S
C583 C585 1.415 . S
C584 C583 1.355 . S
C584 C586 1.419 . S
C585 C580 1.425 . S
C585 C582 1.409 . S
C585 C583 1.415 . S
C586 H576 0.930 . S
C586 C584 1.419 . S
C586 C587 1.362 . S
C587 H577 0.930 . S
C587 C580 1.409 . S
C587 C586 1.362 . S
H588 C594 0.930 . S
H589 C597 0.930 . S
H590 C598 0.930 . S
H591 C599 0.930 . S
H592 C602 0.930 . S
H593 C603 0.930 . S
C594 H588 0.930 . S
C594 C595 1.355 1_556 S
C594 C596 1.415 . S
C595 C594 1.355 1_554 S
C595 C597 1.419 . S
C596 C594 1.415 . S
C596 C601 1.425 1_556 S
C596 C603 1.409 . S
C597 H589 0.930 . S
C597 C595 1.419 . S
C597 C598 1.362 . S
C598 H590 0.930 . S
C598 C597 1.362 . S
C598 C601 1.409 . S
C599 H591 0.930 . S
C599 C600 1.355 1_554 S
C599 C601 1.415 . S
C600 C599 1.355 1_556 S
C600 C602 1.419 . S
C601 C596 1.425 1_554 S
C601 C598 1.409 . S
C601 C599 1.415 . S
C602 H592 0.930 . S
C602 C600 1.419 . S
C602 C603 1.362 . S
C603 H593 0.930 . S
C603 C596 1.409 . S
C603 C602 1.362 . S
H604 C610 0.930 . S
H605 C613 0.930 1_655 S
H606 C614 0.930 . S
H607 C615 0.930 . S
H608 C618 0.930 . S
H609 C619 0.930 . S
C610 H604 0.930 . S
C610 C611 1.355 . S
C610 C612 1.415 . S
C611 C610 1.355 . S
C611 C613 1.419 . S
C612 C610 1.415 . S
C612 C617 1.425 . S
C612 C619 1.409 . S
C613 H605 0.930 1_455 S
C613 C611 1.419 . S
C613 C614 1.362 . S
C614 H606 0.930 . S
C614 C613 1.362 . S
C614 C617 1.409 . S
C615 H607 0.930 . S
C615 C616 1.355 . S
C615 C617 1.415 . S
C616 C615 1.355 . S
C616 C618 1.419 . S
C617 C612 1.425 . S
C617 C614 1.409 . S
C617 C615 1.415 . S
C618 H608 0.930 . S
C618 C616 1.419 . S
C618 C619 1.362 . S
C619 H609 0.930 . S
C619 C612 1.409 . S
C619 C618 1.362 . S
H620 C626 0.930 . S
H621 C629 0.930 . S
H622 C630 0.930 . S
H623 C631 0.930 . S
H624 C634 0.930 . S
H625 C635 0.930 . S
C626 H620 0.930 . S
C626 C627 1.355 . S
C626 C628 1.415 . S
C627 C626 1.355 . S
C627 C629 1.419 . S
C628 C626 1.415 . S
C628 C633 1.425 . S
C628 C635 1.409 . S
C629 H621 0.930 . S
C629 C627 1.419 . S
C629 C630 1.362 . S
C630 H622 0.930 . S
C630 C629 1.362 . S
C630 C633 1.409 . S
C631 H623 0.930 . S
C631 C632 1.355 . S
C631 C633 1.415 . S
C632 C631 1.355 . S
C632 C634 1.419 . S
C633 C628 1.425 . S
C633 C630 1.409 . S
C633 C631 1.415 . S
C634 H624 0.930 . S
C634 C632 1.419 . S
C634 C635 1.362 . S
C635 H625 0.930 . S
C635 C628 1.409 . S
C635 C634 1.362 . S
H636 C642 0.930 . S
H637 C645 0.930 . S
H638 C646 0.930 . S
H639 C647 0.930 . S
H640 C650 0.930 . S
H641 C651 0.930 . S
C642 H636 0.930 . S
C642 C643 1.355 . S
C642 C644 1.415 . S
C643 C642 1.355 . S
C643 C645 1.419 . S
C644 C642 1.415 . S
C644 C649 1.425 . S
C644 C651 1.409 . S
C645 H637 0.930 . S
C645 C643 1.419 . S
C645 C646 1.362 . S
C646 H638 0.930 . S
C646 C645 1.362 . S
C646 C649 1.409 . S
C647 H639 0.930 . S
C647 C648 1.355 . S
C647 C649 1.415 . S
C648 C647 1.355 . S
C648 C650 1.419 . S
C649 C644 1.425 . S
C649 C646 1.409 . S
C649 C647 1.415 . S
C650 H640 0.930 . S
C650 C648 1.419 . S
C650 C651 1.362 . S
C651 H641 0.930 . S
C651 C644 1.409 . S
C651 C650 1.362 . S
H652 C658 0.930 . S
H653 C661 0.930 . S
H654 C662 0.930 . S
H655 C663 0.930 . S
H656 C666 0.930 . S
H657 C667 0.930 . S
C658 H652 0.930 . S
C658 C659 1.355 . S
C658 C660 1.415 . S
C659 C658 1.355 . S
C659 C661 1.419 . S
C660 C658 1.415 . S
C660 C665 1.425 . S
C660 C667 1.409 . S
C661 H653 0.930 . S
C661 C659 1.419 . S
C661 C662 1.362 . S
C662 H654 0.930 . S
C662 C661 1.362 . S
C662 C665 1.409 . S
C663 H655 0.930 . S
C663 C664 1.355 . S
C663 C665 1.415 . S
C664 C663 1.355 . S
C664 C666 1.419 . S
C665 C660 1.425 . S
C665 C662 1.409 . S
C665 C663 1.415 . S
C666 H656 0.930 . S
C666 C664 1.419 . S
C666 C667 1.362 . S
C667 H657 0.930 . S
C667 C660 1.409 . S
C667 C666 1.362 . S
H668 C674 0.930 . S
H669 C677 0.930 1_545 S
H670 C678 0.930 . S
H671 C679 0.930 . S
H672 C682 0.930 . S
H673 C683 0.930 . S
C674 H668 0.930 . S
C674 C675 1.355 . S
C674 C676 1.415 . S
C675 C674 1.355 . S
C675 C677 1.419 . S
C676 C674 1.415 . S
C676 C681 1.425 . S
C676 C683 1.409 . S
C677 H669 0.930 1_565 S
C677 C675 1.419 . S
C677 C678 1.362 . S
C678 H670 0.930 . S
C678 C677 1.362 . S
C678 C681 1.409 . S
C679 H671 0.930 . S
C679 C680 1.355 . S
C679 C681 1.415 . S
C680 C679 1.355 . S
C680 C682 1.419 . S
C681 C676 1.425 . S
C681 C678 1.409 . S
C681 C679 1.415 . S
C682 H672 0.930 . S
C682 C680 1.419 . S
C682 C683 1.362 . S
C683 H673 0.930 . S
C683 C676 1.409 . S
C683 C682 1.362 . S
H684 C690 0.930 . S
H685 C693 0.930 . S
H686 C694 0.930 . S
H687 C695 0.930 . S
H688 C698 0.930 . S
H689 C699 0.930 . S
C690 H684 0.930 . S
C690 C691 1.355 . S
C690 C692 1.415 . S
C691 C690 1.355 . S
C691 C693 1.419 . S
C692 C690 1.415 . S
C692 C697 1.425 . S
C692 C699 1.409 . S
C693 H685 0.930 . S
C693 C691 1.419 . S
C693 C694 1.362 . S
C694 H686 0.930 . S
C694 C693 1.362 . S
C694 C697 1.409 . S
C695 H687 0.930 . S
C695 C696 1.355 . S
C695 C697 1.415 . S
C696 C695 1.355 . S
C696 C698 1.419 . S
C697 C692 1.425 . S
C697 C694 1.409 . S
C697 C695 1.415 . S
C698 H688 0.930 . S
C698 C696 1.419 . S
C698 C699 1.362 . S
C699 H689 0.930 . S
C699 C692 1.409 . S
C699 C698 1.362 . S
H700 C706 0.930 . S
H701 C709 0.930 . S
H702 C710 0.930 . S
H703 C711 0.930 . S
H704 C714 0.930 . S
H705 C715 0.930 . S
C706 H700 0.930 . S
C706 C707 1.355 . S
C706 C708 1.415 . S
C707 C706 1.355 . S
C707 C709 1.419 1_655 S
C708 C706 1.415 . S
C708 C713 1.425 1_655 S
C708 C715 1.409 . S
C709 H701 0.930 . S
C709 C707 1.419 1_455 S
C709 C710 1.362 . S
C710 H702 0.930 . S
C710 C709 1.362 . S
C710 C713 1.409 . S
C711 H703 0.930 . S
C711 C712 1.355 . S
C711 C713 1.415 . S
C712 C711 1.355 . S
C712 C714 1.419 1_455 S
C713 C708 1.425 1_455 S
C713 C710 1.409 . S
C713 C711 1.415 . S
C714 H704 0.930 . S
C714 C712 1.419 1_655 S
C714 C715 1.362 . S
C715 H705 0.930 . S
C715 C708 1.409 . S
C715 C714 1.362 . S
H716 C722 0.930 . S
H717 C725 0.930 . S
H718 C726 0.930 . S
H719 C727 0.930 . S
H720 C730 0.930 . S
H721 C731 0.930 . S
C722 H716 0.930 . S
C722 C723 1.355 . S
C722 C724 1.415 . S
C723 C722 1.355 . S
C723 C725 1.419 1_565 S
C724 C722 1.415 . S
C724 C729 1.425 1_565 S
C724 C731 1.409 . S
C725 H717 0.930 . S
C725 C723 1.419 1_545 S
C725 C726 1.362 . S
C726 H718 0.930 . S
C726 C725 1.362 . S
C726 C729 1.409 . S
C727 H719 0.930 . S
C727 C728 1.355 . S
C727 C729 1.415 . S
C728 C727 1.355 . S
C728 C730 1.419 1_545 S
C729 C724 1.425 1_545 S
C729 C726 1.409 . S
C729 C727 1.415 . S
C730 H720 0.930 . S
C730 C728 1.419 1_565 S
C730 C731 1.362 . S
C731 H721 0.930 . S
C731 C724 1.409 . S
C731 C730 1.362 . S
H732 C738 0.930 . S
H733 C741 0.930 . S
H734 C742 0.930 . S
H735 C743 0.930 . S
H736 C746 0.930 . S
H737 C747 0.930 . S
C738 H732 0.930 . S
C738 C739 1.355 . S
C738 C740 1.415 . S
C739 C738 1.355 . S
C739 C741 1.419 . S
C740 C738 1.415 . S
C740 C745 1.425 . S
C740 C747 1.409 . S
C741 H733 0.930 . S
C741 C739 1.419 . S
C741 C742 1.362 . S
C742 H734 0.930 . S
C742 C741 1.362 . S
C742 C745 1.409 . S
C743 H735 0.930 . S
C743 C744 1.355 . S
C743 C745 1.415 . S
C744 C743 1.355 . S
C744 C746 1.419 . S
C745 C740 1.425 . S
C745 C742 1.409 . S
C745 C743 1.415 . S
C746 H736 0.930 . S
C746 C744 1.419 . S
C746 C747 1.362 . S
C747 H737 0.930 . S
C747 C740 1.409 . S
C747 C746 1.362 . S
H748 C754 0.930 . S
H749 C757 0.930 1_655 S
H750 C758 0.930 . S
H751 C759 0.930 . S
H752 C762 0.930 . S
H753 C763 0.930 . S
C754 H748 0.930 . S
C754 C755 1.355 . S
C754 C756 1.415 . S
C755 C754 1.355 . S
C755 C757 1.419 . S
C756 C754 1.415 . S
C756 C761 1.425 1_455 S
C756 C763 1.409 . S
C757 H749 0.930 1_455 S
C757 C755 1.419 . S
C757 C758 1.362 1_455 S
C758 H750 0.930 . S
C758 C757 1.362 1_655 S
C758 C761 1.409 . S
C759 H751 0.930 . S
C759 C760 1.355 . S
C759 C761 1.415 . S
C760 C759 1.355 . S
C760 C762 1.418 1_655 S
C761 C756 1.425 1_655 S
C761 C758 1.409 . S
C761 C759 1.415 . S
C762 H752 0.930 . S
C762 C760 1.418 1_455 S
C762 C763 1.363 . S
C763 H753 0.930 . S
C763 C756 1.409 . S
C763 C762 1.363 . S
H764 C770 0.930 . S
H765 C773 0.930 . S
H766 C774 0.930 . S
H767 C775 0.930 . S
H768 C778 0.930 . S
H769 C779 0.930 . S
C770 H764 0.930 . S
C770 C771 1.355 . S
C770 C772 1.415 . S
C771 C770 1.355 . S
C771 C773 1.419 . S
C772 C770 1.415 . S
C772 C777 1.425 1_564 S
C772 C779 1.409 1_554 S
C773 H765 0.930 . S
C773 C771 1.419 . S
C773 C774 1.362 1_565 S
C774 H766 0.930 . S
C774 C773 1.362 1_545 S
C774 C777 1.409 1_554 S
C775 H767 0.930 . S
C775 C776 1.355 . S
C775 C777 1.415 . S
C776 C775 1.355 . S
C776 C778 1.419 . S
C777 C772 1.425 1_546 S
C777 C774 1.409 1_556 S
C777 C775 1.415 . S
C778 H768 0.930 . S
C778 C776 1.419 . S
C778 C779 1.362 1_545 S
C779 H769 0.930 . S
C779 C772 1.409 1_556 S
C779 C778 1.362 1_565 S
H780 C786 0.930 . S
H781 C789 0.930 . S
H782 C790 0.930 . S
H783 C791 0.930 . S
H784 C794 0.930 . S
H785 C795 0.930 . S
C786 H780 0.930 . S
C786 C787 1.355 . S
C786 C788 1.415 . S
C787 C786 1.355 . S
C787 C789 1.419 . S
C788 C786 1.415 . S
C788 C793 1.425 . S
C788 C795 1.409 . S
C789 H781 0.930 . S
C789 C787 1.419 . S
C789 C790 1.362 . S
C790 H782 0.930 . S
C790 C789 1.362 . S
C790 C793 1.409 . S
C791 H783 0.930 . S
C791 C792 1.355 . S
C791 C793 1.415 . S
C792 C791 1.355 . S
C792 C794 1.419 . S
C793 C788 1.425 . S
C793 C790 1.409 . S
C793 C791 1.415 . S
C794 H784 0.930 . S
C794 C792 1.419 . S
C794 C795 1.362 . S
C795 H785 0.930 . S
C795 C788 1.409 . S
C795 C794 1.362 . S
H796 C802 0.930 . S
H797 C805 0.930 . S
H798 C806 0.930 1_556 S
H799 C807 0.930 . S
H800 C810 0.930 . S
H801 C811 0.930 . S
C802 H796 0.930 . S
C802 C803 1.355 . S
C802 C804 1.415 . S
C803 C802 1.355 . S
C803 C805 1.419 . S
C804 C802 1.415 . S
C804 C809 1.425 . S
C804 C811 1.409 . S
C805 H797 0.930 . S
C805 C803 1.419 . S
C805 C806 1.362 . S
C806 H798 0.930 1_554 S
C806 C805 1.362 . S
C806 C809 1.409 . S
C807 H799 0.930 . S
C807 C808 1.355 . S
C807 C809 1.415 . S
C808 C807 1.355 . S
C808 C810 1.419 . S
C809 C804 1.425 . S
C809 C806 1.409 . S
C809 C807 1.415 . S
C810 H800 0.930 . S
C810 C808 1.419 . S
C810 C811 1.362 . S
C811 H801 0.930 . S
C811 C804 1.409 . S
C811 C810 1.362 . S
H812 C818 0.930 . S
H813 C821 0.930 . S
H814 C822 0.930 . S
H815 C823 0.930 . S
H816 C826 0.930 . S
H817 C827 0.930 . S
C818 H812 0.930 . S
C818 C819 1.355 . S
C818 C820 1.415 . S
C819 C818 1.355 . S
C819 C821 1.419 . S
C820 C818 1.415 . S
C820 C825 1.425 . S
C820 C827 1.409 . S
C821 H813 0.930 . S
C821 C819 1.419 . S
C821 C822 1.362 . S
C822 H814 0.930 . S
C822 C821 1.362 . S
C822 C825 1.409 . S
C823 H815 0.930 . S
C823 C824 1.355 . S
C823 C825 1.415 . S
C824 C823 1.355 . S
C824 C826 1.419 . S
C825 C820 1.425 . S
C825 C822 1.409 . S
C825 C823 1.415 . S
C826 H816 0.930 . S
C826 C824 1.419 . S
C826 C827 1.362 . S
C827 H817 0.930 . S
C827 C820 1.409 . S
C827 C826 1.362 . S
H828 C834 0.930 . S
H829 C837 0.930 . S
H830 C838 0.930 . S
H831 C839 0.930 . S
H832 C842 0.930 . S
H833 C843 0.930 . S
C834 H828 0.930 . S
C834 C835 1.355 . S
C834 C836 1.415 . S
C835 C834 1.355 . S
C835 C837 1.419 . S
C836 C834 1.415 . S
C836 C841 1.425 . S
C836 C843 1.409 . S
C837 H829 0.930 . S
C837 C835 1.419 . S
C837 C838 1.362 . S
C838 H830 0.930 . S
C838 C837 1.362 . S
C838 C841 1.409 . S
C839 H831 0.930 . S
C839 C840 1.355 . S
C839 C841 1.415 . S
C840 C839 1.355 . S
C840 C842 1.419 . S
C841 C836 1.425 . S
C841 C838 1.409 . S
C841 C839 1.415 . S
C842 H832 0.930 . S
C842 C840 1.419 . S
C842 C843 1.362 . S
C843 H833 0.930 . S
C843 C836 1.409 . S
C843 C842 1.362 . S
H844 C850 0.930 . S
H845 C853 0.930 . S
H846 C854 0.930 . S
H847 C855 0.930 . S
H848 C858 0.930 . S
H849 C859 0.930 . S
C850 H844 0.930 . S
C850 C851 1.355 . S
C850 C852 1.415 . S
C851 C850 1.355 . S
C851 C853 1.419 . S
C852 C850 1.415 . S
C852 C857 1.425 . S
C852 C859 1.409 . S
C853 H845 0.930 . S
C853 C851 1.419 . S
C853 C854 1.362 . S
C854 H846 0.930 . S
C854 C853 1.362 . S
C854 C857 1.409 . S
C855 H847 0.930 . S
C855 C856 1.355 . S
C855 C857 1.415 . S
C856 C855 1.355 . S
C856 C858 1.419 . S
C857 C852 1.425 . S
C857 C854 1.409 . S
C857 C855 1.415 . S
C858 H848 0.930 . S
C858 C856 1.419 . S
C858 C859 1.362 . S
C859 H849 0.930 . S
C859 C852 1.409 . S
C859 C858 1.362 . S
H860 C866 0.930 . S
H861 C869 0.930 . S
H862 C870 0.930 . S
H863 C871 0.930 . S
H864 C874 0.930 . S
H865 C875 0.930 . S
C866 H860 0.930 . S
C866 C867 1.355 . S
C866 C868 1.415 . S
C867 C866 1.355 . S
C867 C869 1.419 . S
C868 C866 1.415 . S
C868 C873 1.425 . S
C868 C875 1.409 . S
C869 H861 0.930 . S
C869 C867 1.419 . S
C869 C870 1.362 . S
C870 H862 0.930 . S
C870 C869 1.362 . S
C870 C873 1.409 . S
C871 H863 0.930 . S
C871 C872 1.355 . S
C871 C873 1.415 . S
C872 C871 1.355 . S
C872 C874 1.419 . S
C873 C868 1.425 . S
C873 C870 1.409 . S
C873 C871 1.415 . S
C874 H864 0.930 . S
C874 C872 1.419 . S
C874 C875 1.362 . S
C875 H865 0.930 . S
C875 C868 1.409 . S
C875 C874 1.362 . S
C403 N343 1.084 . S
C408 N13 1.026 . S
C419 N46 1.073 . S
C424 N376 1.023 . S
C435 N79 1.133 . S
C440 N211 1.171 . S
C451 N112 1.054 . S
C456 N244 1.094 . S
C467 N145 1.139 . S
C472 N277 1.077 . S
C483 N178 1.030 . S
C488 N310 1.012 . S
C499 N2 1.714 . S
C504 C183 1.712 . S
C515 C18 1.757 . S
C520 N35 1.750 1_455 S
C531 C51 1.727 . S
C536 N68 1.764 1_545 S
C547 N101 1.738 . S
C552 C84 1.738 . S
C563 N134 1.793 1_655 S
C568 C117 1.800 . S
C579 N167 1.751 1_565 S
C584 C150 1.752 . S
C595 C249 1.763 . S
C600 N200 1.725 . S
C611 N233 1.716 1_455 S
C616 C282 1.706 . S
C627 N266 1.780 1_545 S
C632 C315 1.773 . S
C643 N299 1.830 . S
C648 C348 1.812 . S
C659 N332 1.755 1_655 S
C664 C381 1.773 . S
C675 N365 1.737 1_565 S
C680 C216 1.749 . S
C691 C7 0.850 . S
C696 C304 0.843 . S
C707 C40 1.025 . S
C712 C337 1.025 . S
C723 C73 0.996 . S
C728 C370 0.996 . S
C739 C106 0.984 . S
C744 C205 1.002 . S
C755 C139 0.912 . S
C760 C238 0.901 . S
C771 C271 0.934 . S
C776 C172 0.953 . S
C787 C219 1.409 . S
C792 C21 1.393 . S
C803 C54 1.451 . S
C808 C252 1.430 . S
C819 C87 1.420 . S
C824 C285 1.413 . S
C835 C318 1.444 . S
C840 C120 1.463 . S
C851 C153 1.445 . S
C856 C351 1.450 . S
C867 C384 1.423 . S
C872 C186 1.449 . S
