# Generated by pormake.
# Topology ske, (6)-cn, num edge types: 1
# Building blocks:
#     Node 0, Type 0, BuildingBlock: BETDIP_clean_sbu_0, # of connection points: 6
#     Node 1, Type 0, BuildingBlock: BETDIP_clean_sbu_0, # of connection points: 6
#     Node 2, Type 0, BuildingBlock: BETDIP_clean_sbu_0, # of connection points: 6
#     Node 3, Type 0, BuildingBlock: BETDIP_clean_sbu_0, # of connection points: 6
#     Node 4, Type 0, BuildingBlock: BETDIP_clean_sbu_0, # of connection points: 6
#     Node 5, Type 0, BuildingBlock: BETDIP_clean_sbu_0, # of connection points: 6
#     Node 6, Type 0, BuildingBlock: BETDIP_clean_sbu_0, # of connection points: 6
#     Node 7, Type 0, BuildingBlock: BETDIP_clean_sbu_0, # of connection points: 6
#     Edge 8, Type (0, 0), BuildingBlock: ZUJKAS_clean_linker_0, # of connection points: 2
#     Edge 9, Type (0, 0), BuildingBlock: ZUJKAS_clean_linker_0, # of connection points: 2
#     Edge 10, Type (0, 0), BuildingBlock: ZUJKAS_clean_linker_0, # of connection points: 2
#     Edge 11, Type (0, 0), BuildingBlock: ZUJKAS_clean_linker_0, # of connection points: 2
#     Edge 12, Type (0, 0), BuildingBlock: ZUJKAS_clean_linker_0, # of connection points: 2
#     Edge 13, Type (0, 0), BuildingBlock: ZUJKAS_clean_linker_0, # of connection points: 2
#     Edge 14, Type (0, 0), BuildingBlock: ZUJKAS_clean_linker_0, # of connection points: 2
#     Edge 15, Type (0, 0), BuildingBlock: ZUJKAS_clean_linker_0, # of connection points: 2
#     Edge 16, Type (0, 0), BuildingBlock: ZUJKAS_clean_linker_0, # of connection points: 2
#     Edge 17, Type (0, 0), BuildingBlock: ZUJKAS_clean_linker_0, # of connection points: 2
#     Edge 18, Type (0, 0), BuildingBlock: ZUJKAS_clean_linker_0, # of connection points: 2
#     Edge 19, Type (0, 0), BuildingBlock: ZUJKAS_clean_linker_0, # of connection points: 2
#     Edge 20, Type (0, 0), BuildingBlock: ZUJKAS_clean_linker_0, # of connection points: 2
#     Edge 21, Type (0, 0), BuildingBlock: ZUJKAS_clean_linker_0, # of connection points: 2
#     Edge 22, Type (0, 0), BuildingBlock: ZUJKAS_clean_linker_0, # of connection points: 2
#     Edge 23, Type (0, 0), BuildingBlock: ZUJKAS_clean_linker_0, # of connection points: 2
#     Edge 24, Type (0, 0), BuildingBlock: ZUJKAS_clean_linker_0, # of connection points: 2
#     Edge 25, Type (0, 0), BuildingBlock: ZUJKAS_clean_linker_0, # of connection points: 2
#     Edge 26, Type (0, 0), BuildingBlock: ZUJKAS_clean_linker_0, # of connection points: 2
#     Edge 27, Type (0, 0), BuildingBlock: ZUJKAS_clean_linker_0, # of connection points: 2
#     Edge 28, Type (0, 0), BuildingBlock: ZUJKAS_clean_linker_0, # of connection points: 2
#     Edge 29, Type (0, 0), BuildingBlock: ZUJKAS_clean_linker_0, # of connection points: 2
#     Edge 30, Type (0, 0), BuildingBlock: ZUJKAS_clean_linker_0, # of connection points: 2
#     Edge 31, Type (0, 0), BuildingBlock: ZUJKAS_clean_linker_0, # of connection points: 2
# Relax obj value: 0.221
# Max RMSD: 0.211
# Mean RMSD: 0.205
data_MOF--net-ske--node1-BETDIP_clean_sbu_0--edge1-ZUJKAS_clean_linker_0
_symmetry_space_group_name_H-M    P1
_symmetry_Int_Tables_number       1
_symmetry_cell_setting            triclinic
loop_
_symmetry_equiv_pos_as_xyz
'x, y, z'
_cell_length_a     118.39105
_cell_length_b     37.839438
_cell_length_c     19.923092
_cell_angle_alpha  90.110998
_cell_angle_beta   90.161542
_cell_angle_gamma 89.997802
loop_
_atom_site_label
_atom_site_type_symbol
_atom_site_fract_x
_atom_site_fract_y
_atom_site_fract_z
_atom_type_partial_charge
Tb0 Tb 0.15899 0.26401 0.53324 0.0
Tb1 Tb 0.13455 0.24838 0.54365 0.0
C2 C 0.17886 0.2881 0.54149 0.0
C3 C 0.1898 0.28171 0.57639 0.0
C4 C 0.19244 0.2988 0.63724 0.0
C5 C 0.20325 0.29575 0.66563 0.0
C6 C 0.21172 0.27581 0.63355 0.0
C7 C 0.20897 0.25809 0.57358 0.0
C8 C 0.19818 0.2611 0.5453 0.0
C9 C 0.15381 0.19614 0.51959 0.0
C10 C 0.14819 0.24975 0.67641 0.0
C11 C 0.11478 0.2233 0.53859 0.0
C12 C 0.10335 0.22971 0.51142 0.0
C13 C 0.09603 0.20089 0.50334 0.0
C14 C 0.08463 0.20619 0.48765 0.0
C15 C 0.08027 0.24055 0.4797 0.0
C16 C 0.08776 0.2694 0.48516 0.0
C17 C 0.09919 0.26403 0.50092 0.0
C18 C 0.13977 0.31667 0.5543 0.0
C19 C 0.14549 0.26173 0.40019 0.0
O20 O 0.17037 0.30046 0.57639 0.0
O21 O 0.17562 0.26432 0.4979 0.0
O22 O 0.14937 0.21753 0.56001 0.0
O23 O 0.16213 0.21168 0.49024 0.0
O24 O 0.15621 0.26622 0.6425 0.0
O25 O 0.13985 0.23374 0.6444 0.0
O26 O 0.12279 0.21426 0.49681 0.0
O27 O 0.11834 0.24538 0.58442 0.0
O28 O 0.14416 0.29447 0.51556 0.0
O29 O 0.13136 0.30162 0.58374 0.0
O30 O 0.13745 0.24538 0.43437 0.0
O31 O 0.15382 0.27802 0.43196 0.0
H32 H 0.18624 0.31531 0.66207 0.0
H33 H 0.20509 0.31005 0.7115 0.0
H34 H 0.2152 0.24208 0.54796 0.0
H35 H 0.19652 0.24787 0.49804 0.0
H36 H 0.09904 0.17422 0.51187 0.0
H37 H 0.07914 0.18335 0.48477 0.0
H38 H 0.08476 0.29618 0.47838 0.0
H39 H 0.10469 0.28671 0.507 0.0
Tb40 Tb 0.87993 0.24754 0.53728 0.0
Tb41 Tb 0.90458 0.26409 0.54564 0.0
C42 C 0.86044 0.22095 0.54632 0.0
C43 C 0.84984 0.22448 0.58483 0.0
C44 C 0.8434 0.19414 0.59754 0.0
C45 C 0.83274 0.19683 0.62734 0.0
C46 C 0.82825 0.23001 0.64499 0.0
C47 C 0.83488 0.26036 0.63387 0.0
C48 C 0.84558 0.25762 0.60421 0.0
C49 C 0.88483 0.31575 0.52615 0.0
C50 C 0.89122 0.26143 0.67966 0.0
C51 C 0.92416 0.29036 0.53991 0.0
C52 C 0.93565 0.28441 0.51334 0.0
C53 C 0.94234 0.31383 0.49772 0.0
C54 C 0.95382 0.3098 0.48318 0.0
C55 C 0.9589 0.27617 0.48409 0.0
C56 C 0.95204 0.24647 0.49652 0.0
C57 C 0.94053 0.25056 0.51114 0.0
C58 C 0.89963 0.19552 0.55343 0.0
C59 C 0.89305 0.25226 0.40297 0.0
O60 O 0.86928 0.20833 0.57772 0.0
O61 O 0.86303 0.24704 0.50634 0.0
O62 O 0.88964 0.29387 0.56419 0.0
O63 O 0.87621 0.30048 0.49888 0.0
O64 O 0.88305 0.24532 0.64605 0.0
O65 O 0.89953 0.27739 0.64758 0.0
O66 O 0.91609 0.29836 0.4976 0.0
O67 O 0.92075 0.26879 0.58675 0.0
O68 O 0.89489 0.21818 0.51713 0.0
O69 O 0.90833 0.2103 0.58085 0.0
O70 O 0.90122 0.26817 0.43714 0.0
O71 O 0.88476 0.23576 0.4344 0.0
H72 H 0.84648 0.16834 0.58259 0.0
H73 H 0.82785 0.17293 0.63433 0.0
H74 H 0.83176 0.28628 0.64764 0.0
H75 H 0.8504 0.28146 0.59509 0.0
H76 H 0.93877 0.34019 0.49928 0.0
H77 H 0.95878 0.33317 0.47258 0.0
H78 H 0.95567 0.22021 0.498 0.0
H79 H 0.93556 0.22742 0.52329 0.0
Tb80 Tb 0.15947 0.74791 0.50442 0.0
Tb81 Tb 0.13498 0.76433 0.49438 0.0
C82 C 0.17907 0.72204 0.49597 0.0
C83 C 0.18962 0.72531 0.45686 0.0
C84 C 0.19615 0.69499 0.44536 0.0
C85 C 0.20678 0.69756 0.41527 0.0
C86 C 0.21116 0.73062 0.39614 0.0
C87 C 0.20444 0.76092 0.40599 0.0
C88 C 0.19377 0.75829 0.43593 0.0
C89 C 0.15446 0.81587 0.51771 0.0
C90 C 0.1485 0.76261 0.36135 0.0
C91 C 0.11531 0.79012 0.49937 0.0
C92 C 0.1039 0.78404 0.52653 0.0
C93 C 0.09644 0.81271 0.53079 0.0
C94 C 0.08505 0.80738 0.54625 0.0
C95 C 0.08084 0.77314 0.55783 0.0
C96 C 0.08847 0.74454 0.55629 0.0
C97 C 0.0999 0.74993 0.54069 0.0
C98 C 0.14 0.69588 0.4849 0.0
C99 C 0.14616 0.7515 0.6379 0.0
O100 O 0.17025 0.70847 0.46572 0.0
O101 O 0.1764 0.74873 0.5345 0.0
O102 O 0.14991 0.79447 0.47759 0.0
O103 O 0.16281 0.80023 0.54708 0.0
O104 O 0.15659 0.74624 0.39515 0.0
O105 O 0.14018 0.77851 0.39337 0.0
O106 O 0.12339 0.79887 0.54118 0.0
O107 O 0.11875 0.76787 0.45361 0.0
O108 O 0.14452 0.71822 0.52296 0.0
O109 O 0.13156 0.71095 0.45553 0.0
O110 O 0.13803 0.76749 0.60356 0.0
O111 O 0.15452 0.73529 0.60651 0.0
H112 H 0.19315 0.66932 0.46153 0.0
H113 H 0.21174 0.67373 0.40928 0.0
H114 H 0.20748 0.78672 0.39105 0.0
H115 H 0.18888 0.78211 0.4441 0.0
H116 H 0.09933 0.8392 0.51938 0.0
H117 H 0.07945 0.83002 0.54601 0.0
H118 H 0.08559 0.71788 0.56593 0.0
H119 H 0.10551 0.72738 0.53755 0.0
Tb120 Tb 0.88029 0.76407 0.50751 0.0
Tb121 Tb 0.90488 0.74795 0.50009 0.0
C122 C 0.86057 0.78916 0.49799 0.0
C123 C 0.84959 0.7825 0.46378 0.0
C124 C 0.84698 0.79847 0.40193 0.0
C125 C 0.83616 0.79512 0.37376 0.0
C126 C 0.82766 0.776 0.40706 0.0
C127 C 0.83036 0.75943 0.46815 0.0
C128 C 0.84115 0.76274 0.49621 0.0
C129 C 0.88524 0.69581 0.51885 0.0
C130 C 0.89161 0.75077 0.3657 0.0
C131 C 0.92452 0.72203 0.50662 0.0
C132 C 0.93606 0.72843 0.53254 0.0
C133 C 0.94259 0.6994 0.55269 0.0
C134 C 0.95411 0.70339 0.56663 0.0
C135 C 0.95939 0.73656 0.56052 0.0
C136 C 0.95268 0.76601 0.54361 0.0
C137 C 0.94113 0.76198 0.52964 0.0
C138 C 0.89988 0.81651 0.49125 0.0
C139 C 0.8934 0.7602 0.64203 0.0
O140 O 0.86911 0.80018 0.46193 0.0
O141 O 0.86371 0.76628 0.5434 0.0
O142 O 0.89003 0.71771 0.48101 0.0
O143 O 0.87659 0.71106 0.5455 0.0
O144 O 0.88352 0.76723 0.39904 0.0
O145 O 0.89982 0.73437 0.39817 0.0
O146 O 0.91653 0.71452 0.54952 0.0
O147 O 0.921 0.74284 0.45874 0.0
O148 O 0.89516 0.79396 0.52771 0.0
O149 O 0.9086 0.80169 0.46449 0.0
O150 O 0.90148 0.7437 0.6084 0.0
O151 O 0.88525 0.77707 0.60983 0.0
H152 H 0.85321 0.81432 0.37604 0.0
H153 H 0.83435 0.80856 0.327 0.0
H154 H 0.8241 0.74406 0.49475 0.0
H155 H 0.8428 0.75039 0.54426 0.0
H156 H 0.93887 0.67327 0.55511 0.0
H157 H 0.95895 0.68026 0.58075 0.0
H158 H 0.95645 0.79191 0.53803 0.0
H159 H 0.93629 0.78483 0.51398 0.0
Tb160 Tb 0.66111 0.76381 0.03337 0.0
Tb161 Tb 0.6363 0.7575 0.03973 0.0
C162 C 0.68147 0.78289 0.04508 0.0
C163 C 0.69195 0.77643 0.08449 0.0
C164 C 0.69518 0.79978 0.13612 0.0
C165 C 0.70582 0.79689 0.1667 0.0
C166 C 0.71354 0.7708 0.14593 0.0
C167 C 0.71016 0.74676 0.09583 0.0
C168 C 0.69953 0.74958 0.06541 0.0
C169 C 0.65376 0.69853 1.01498 0.0
C170 C 0.6489 0.75444 0.17625 0.0
C171 C 0.6155 0.74686 0.02675 0.0
C172 C 0.60314 0.74218 1.01796 0.0
C173 C 0.59769 0.71097 0.03799 0.0
C174 C 0.58589 0.70797 0.03349 0.0
C175 C 0.57929 0.73613 1.00878 0.0
C176 C 0.58483 0.76708 0.98785 0.0
C177 C 0.59657 0.77004 0.99233 0.0
C178 C 0.64441 0.82216 0.0583 0.0
C179 C 0.64837 0.76315 0.89955 0.0
O180 O 0.67305 0.79903 0.07464 0.0
O181 O 0.67801 0.75767 1.00508 0.0
O182 O 0.64978 0.72068 0.05601 0.0
O183 O 0.66267 0.71176 0.98753 0.0
O184 O 0.6582 0.76243 0.14254 0.0
O185 O 0.63924 0.74787 0.14533 0.0
O186 O 0.62234 0.72259 0.05037 0.0
O187 O 0.6205 0.77621 1.00933 0.0
O188 O 0.6477 0.7999 1.01567 0.0
O189 O 0.63613 0.80857 0.09162 0.0
O190 O 0.64019 0.74753 0.93353 0.0
O191 O 0.65672 0.77894 0.93168 0.0
H192 H 0.68964 0.82111 0.15131 0.0
H193 H 0.70818 0.81608 0.20463 0.0
H194 H 0.71581 0.72602 0.07926 0.0
H195 H 0.6974 0.73132 0.02541 0.0
H196 H 0.60251 0.68906 0.05802 0.0
H197 H 0.58194 0.68359 0.0494 0.0
H198 H 0.58007 0.78955 0.96962 0.0
H199 H 0.60049 0.79456 0.9768 0.0
Tb200 Tb 0.37845 0.75284 0.051 0.0
Tb201 Tb 0.40312 0.76703 0.06124 0.0
C202 C 0.35869 0.72821 0.05916 0.0
C203 C 0.34819 0.73092 0.09918 0.0
C204 C 0.3427 0.69982 0.11899 0.0
C205 C 0.33203 0.70116 0.14899 0.0
C206 C 0.32655 0.73372 0.15959 0.0
C207 C 0.33227 0.76499 0.14206 0.0
C208 C 0.34297 0.76362 0.11217 0.0
C209 C 0.38408 0.82011 0.03636 0.0
C210 C 0.38948 0.76744 0.19399 0.0
C211 C 0.42317 0.78984 0.05571 0.0
C212 C 0.43465 0.77905 0.0351 0.0
C213 C 0.44212 0.80481 1.01105 0.0
C214 C 0.45351 0.7967 1.00032 0.0
C215 C 0.4577 0.76262 1.01378 0.0
C216 C 0.45008 0.73646 0.03543 0.0
C217 C 0.43866 0.74456 0.04587 0.0
C218 C 0.39743 0.69905 0.06957 0.0
C219 C 0.39171 0.75653 0.91781 0.0
O220 O 0.36749 0.71332 0.08726 0.0
O221 O 0.36145 0.75552 0.02265 0.0
O222 O 0.38847 0.79868 0.07699 0.0
O223 O 0.37557 0.80507 1.00745 0.0
O224 O 0.38127 0.75159 0.16029 0.0
O225 O 0.39797 0.78244 0.16187 0.0
O226 O 0.41565 0.79552 1.00876 0.0
O227 O 0.41889 0.77331 0.10713 0.0
O228 O 0.39313 0.72201 0.03227 0.0
O229 O 0.4061 0.71308 0.09853 0.0
O230 O 0.39982 0.7724 0.95266 0.0
O231 O 0.38335 0.74014 0.94877 0.0
H232 H 0.34652 0.67429 0.10946 0.0
H233 H 0.32801 0.67657 0.16302 0.0
H234 H 0.32831 0.79052 0.14898 0.0
H235 H 0.34699 0.7881 0.09735 0.0
H236 H 0.43923 0.83164 1.00293 0.0
H237 H 0.45913 0.81761 0.98429 0.0
H238 H 0.45298 0.70982 0.04534 0.0
H239 H 0.43307 0.72416 0.06436 0.0
Tb240 Tb 0.661 0.25266 0.99073 0.0
Tb241 Tb 0.63632 0.26701 0.98053 0.0
C242 C 0.68074 0.22788 0.98244 0.0
C243 C 0.69124 0.23043 0.94242 0.0
C244 C 0.69682 0.19926 0.92367 0.0
C245 C 0.70749 0.20055 0.89368 0.0
C246 C 0.71288 0.23312 0.88202 0.0
C247 C 0.70707 0.26443 0.8985 0.0
C248 C 0.69636 0.26312 0.92839 0.0
C249 C 0.65539 0.31997 1.00574 0.0
C250 C 0.64997 0.26731 0.84783 0.0
C251 C 0.61629 0.29001 0.98609 0.0
C252 C 0.60481 0.2795 1.00708 0.0
C253 C 0.59732 0.30559 0.0298 0.0
C254 C 0.58592 0.29764 0.0407 0.0
C255 C 0.58175 0.26336 0.02879 0.0
C256 C 0.58938 0.23689 1.00851 0.0
C257 C 0.6008 0.24485 0.99787 0.0
C258 C 0.64198 0.19905 0.97157 0.0
C259 C 0.64772 0.25635 0.12394 0.0
O260 O 0.67193 0.21302 0.95434 0.0
O261 O 0.678 0.25529 1.01896 0.0
O262 O 0.65099 0.29853 0.965 0.0
O263 O 0.6639 0.30491 0.03457 0.0
O264 O 0.65817 0.25141 0.88143 0.0
O265 O 0.6415 0.28238 0.88004 0.0
O266 O 0.62384 0.29595 0.03279 0.0
O267 O 0.62053 0.27304 0.93491 0.0
O268 O 0.64628 0.22195 1.00914 0.0
O269 O 0.63332 0.21311 0.94265 0.0
O270 O 0.63959 0.27217 0.08922 0.0
O271 O 0.65609 0.24002 0.09288 0.0
H272 H 0.69306 0.17374 0.93402 0.0
H273 H 0.71158 0.17591 0.88048 0.0
H274 H 0.71096 0.28999 0.89074 0.0
H275 H 0.69228 0.28764 0.94239 0.0
H276 H 0.6002 0.33254 0.03668 0.0
H277 H 0.58029 0.31877 0.05564 0.0
H278 H 0.5865 0.2101 0.99982 0.0
H279 H 0.60642 0.22419 0.98041 0.0
Tb280 Tb 0.37829 0.26378 1.00765 0.0
Tb281 Tb 0.40311 0.25765 1.00153 0.0
C282 C 0.3579 0.28258 0.99576 0.0
C283 C 0.34741 0.27583 0.95655 0.0
C284 C 0.34431 0.2982 0.90327 0.0
C285 C 0.33367 0.2951 0.87266 0.0
C286 C 0.32583 0.26979 0.89504 0.0
C287 C 0.32908 0.24672 0.9469 0.0
C288 C 0.33971 0.24976 0.97735 0.0
C289 C 0.3857 0.19862 0.0265 0.0
C290 C 0.39054 0.25395 0.8649 0.0
C291 C 0.42392 0.24727 1.01468 0.0
C292 C 0.43629 0.24279 0.02351 0.0
C293 C 0.44175 0.21128 1.00506 0.0
C294 C 0.45355 0.20839 1.00972 0.0
C295 C 0.46014 0.23696 0.03299 0.0
C296 C 0.45459 0.26823 0.05227 0.0
C297 C 0.44284 0.27108 0.04765 0.0
C298 C 0.39494 0.32213 0.98228 0.0
C299 C 0.39101 0.26386 0.14162 0.0
O300 O 0.36631 0.29864 0.96599 0.0
O301 O 0.36139 0.25759 0.03601 0.0
O302 O 0.38966 0.22066 0.98537 0.0
O303 O 0.37677 0.21189 0.05382 0.0
O304 O 0.38122 0.26206 0.89848 0.0
O305 O 0.40019 0.24751 0.89598 0.0
O306 O 0.4171 0.22275 0.99164 0.0
O307 O 0.41889 0.27671 0.03144 0.0
O308 O 0.39166 0.30007 0.02515 0.0
O309 O 0.40323 0.30846 0.94911 0.0
O310 O 0.39921 0.24819 0.10784 0.0
O311 O 0.38264 0.2794 0.10927 0.0
H312 H 0.34995 0.31894 0.88668 0.0
H313 H 0.33142 0.31355 0.83334 0.0
H314 H 0.32334 0.22658 0.96479 0.0
H315 H 0.34173 0.2323 1.01868 0.0
H316 H 0.43693 0.18903 0.9862 0.0
H317 H 0.45751 0.18377 0.99512 0.0
H318 H 0.45934 0.291 0.06932 0.0
H319 H 0.43892 0.29584 0.06191 0.0
H320 H 0.21857 0.26966 0.76515 0.0
H321 H 0.23795 0.26844 0.80888 0.0
H322 H 0.25085 0.27699 0.60748 0.0
H323 H 0.23158 0.27914 0.56356 0.0
H324 H 0.25562 0.22004 0.7787 0.0
H325 H 0.26722 0.35705 0.70759 0.0
H326 H 0.25276 0.34194 0.70981 0.0
H327 H 0.26167 0.33076 0.64 0.0
C328 C 0.22553 0.27163 0.73021 0.0
C329 C 0.22348 0.27454 0.66078 0.0
C330 C 0.2366 0.27072 0.75526 0.0
C331 C 0.24586 0.27309 0.71156 0.0
C332 C 0.24386 0.27568 0.64229 0.0
H333 H 0.31908 0.27677 0.76342 0.0
H334 H 0.29976 0.27623 0.71877 0.0
C335 C 0.23281 0.2765 0.6172 0.0
C336 C 0.25763 0.27231 0.73812 0.0
H337 H 0.28203 0.32041 0.74737 0.0
C338 C 0.26138 0.24204 0.77217 0.0
C339 C 0.26516 0.30095 0.72924 0.0
C340 C 0.26151 0.33467 0.6952 0.0
C341 C 0.27251 0.23937 0.79656 0.0
C342 C 0.28005 0.2681 0.78797 0.0
C343 C 0.27628 0.29836 0.75383 0.0
C344 C 0.2918 0.2676 0.81499 0.0
C345 C 0.27617 0.20545 0.82986 0.0
C346 C 0.29378 0.26334 0.88402 0.0
C347 C 0.3048 0.26364 0.90964 0.0
C348 C 0.31412 0.26854 0.86693 0.0
C349 C 0.31211 0.27313 0.79782 0.0
C350 C 0.30107 0.2727 0.77218 0.0
H351 H 0.27067 0.18294 0.81509 0.0
H352 H 0.28504 0.19881 0.81701 0.0
H353 H 0.27559 0.20859 0.88513 0.0
H354 H 0.28677 0.26037 0.9184 0.0
H355 H 0.30598 0.26084 0.96328 0.0
H356 H 0.73054 0.18924 0.9136 0.0
H357 H 0.7499 0.1912 0.87195 0.0
H358 H 0.7416 0.28166 0.75026 0.0
H359 H 0.7221 0.27968 0.79111 0.0
H360 H 0.75768 0.18588 0.73972 0.0
H361 H 0.7698 0.31471 0.85317 0.0
H362 H 0.75735 0.29071 0.87866 0.0
H363 H 0.75729 0.3156 0.80197 0.0
C364 C 0.73276 0.20938 0.87745 0.0
C365 C 0.72469 0.23426 0.8557 0.0
C366 C 0.74388 0.2106 0.85402 0.0
C367 C 0.74727 0.23685 0.80868 0.0
C368 C 0.73925 0.2616 0.78634 0.0
H369 H 0.812 0.27932 0.61453 0.0
H370 H 0.79244 0.28154 0.65385 0.0
C371 C 0.7281 0.2604 0.80973 0.0
C372 C 0.75912 0.23762 0.78393 0.0
H373 H 0.78321 0.28753 0.78192 0.0
C374 C 0.76327 0.20809 0.74904 0.0
C375 C 0.7664 0.26667 0.79582 0.0
C376 C 0.76256 0.29865 0.83492 0.0
C377 C 0.77444 0.20686 0.72537 0.0
C378 C 0.78178 0.23567 0.73814 0.0
C379 C 0.7776 0.26542 0.77232 0.0
C380 C 0.79383 0.23522 0.71678 0.0
C381 C 0.77821 0.17495 0.6858 0.0
C382 C 0.80123 0.20901 0.7404 0.0
C383 C 0.81244 0.20773 0.7182 0.0
C384 C 0.81654 0.23282 0.67222 0.0
C385 C 0.80919 0.25975 0.65035 0.0
C386 C 0.79797 0.26096 0.67252 0.0
H387 H 0.77091 0.16017 0.66459 0.0
H388 H 0.78388 0.18267 0.64405 0.0
H389 H 0.78291 0.15679 0.71945 0.0
H390 H 0.79833 0.18941 0.77593 0.0
H391 H 0.8179 0.18704 0.73713 0.0
H392 H 0.30901 0.68901 0.12957 0.0
H393 H 0.28964 0.69099 0.17109 0.0
H394 H 0.2977 0.78307 0.28955 0.0
H395 H 0.3172 0.78108 0.24888 0.0
H396 H 0.28186 0.68713 0.30364 0.0
H397 H 0.26943 0.81415 0.18503 0.0
H398 H 0.28193 0.7901 0.1605 0.0
H399 H 0.28194 0.81597 0.2362 0.0
C400 C 0.30674 0.70952 0.165 0.0
C401 C 0.31473 0.73485 0.18589 0.0
C402 C 0.29561 0.71074 0.18835 0.0
C403 C 0.29215 0.73744 0.23272 0.0
C404 C 0.3001 0.76265 0.25422 0.0
H405 H 0.22726 0.7808 0.42455 0.0
H406 H 0.24682 0.78302 0.38526 0.0
C407 C 0.31126 0.76144 0.23092 0.0
C408 C 0.28029 0.73823 0.25735 0.0
H409 H 0.25607 0.78752 0.25713 0.0
C410 C 0.27622 0.70906 0.29338 0.0
C411 C 0.27293 0.76693 0.24423 0.0
C412 C 0.27671 0.79848 0.20392 0.0
C413 C 0.26504 0.70786 0.317 0.0
C414 C 0.25763 0.73629 0.303 0.0
C415 C 0.26173 0.76569 0.26767 0.0
C416 C 0.24557 0.73582 0.32427 0.0
C417 C 0.26135 0.67638 0.35783 0.0
C418 C 0.23825 0.7091 0.3017 0.0
C419 C 0.22704 0.70781 0.32389 0.0
C420 C 0.22287 0.7334 0.36879 0.0
C421 C 0.23013 0.76082 0.38956 0.0
C422 C 0.24135 0.76204 0.36742 0.0
H423 H 0.26868 0.66209 0.37972 0.0
H424 H 0.25564 0.68451 0.39919 0.0
H425 H 0.25671 0.65765 0.32489 0.0
H426 H 0.24121 0.68909 0.26701 0.0
H427 H 0.22165 0.68672 0.30581 0.0
H428 H 0.72043 0.78002 0.27684 0.0
H429 H 0.73982 0.78043 0.32064 0.0
H430 H 0.75254 0.75925 0.1221 0.0
H431 H 0.73328 0.75956 0.07771 0.0
H432 H 0.75662 0.72603 0.31445 0.0
H433 H 0.77032 0.84762 0.182 0.0
H434 H 0.75564 0.83583 0.19159 0.0
H435 H 0.76412 0.81439 0.12894 0.0
C436 C 0.72736 0.77568 0.24241 0.0
C437 C 0.72527 0.76981 0.17368 0.0
C438 C 0.73843 0.77574 0.26759 0.0
C439 C 0.74764 0.77035 0.2245 0.0
C440 C 0.74559 0.764 0.15614 0.0
H441 H 0.82086 0.76763 0.27575 0.0
H442 H 0.80151 0.76524 0.23191 0.0
C443 C 0.73454 0.76379 0.13098 0.0
C444 C 0.75941 0.7711 0.25095 0.0
H445 H 0.78454 0.8151 0.23856 0.0
C446 C 0.76272 0.74558 0.29813 0.0
C447 C 0.76737 0.79654 0.22936 0.0
C448 C 0.7642 0.82537 0.18062 0.0
C449 C 0.77382 0.74443 0.32343 0.0
C450 C 0.78178 0.76998 0.30208 0.0
C451 C 0.77846 0.79547 0.25482 0.0
C452 C 0.79354 0.77109 0.32889 0.0
C453 C 0.77699 0.71532 0.37161 0.0
C454 C 0.79552 0.77572 0.39785 0.0
C455 C 0.80656 0.77716 0.423 0.0
C456 C 0.8159 0.77428 0.37974 0.0
C457 C 0.81389 0.77014 0.31049 0.0
C458 C 0.80282 0.76863 0.28537 0.0
H459 H 0.77109 0.69256 0.36784 0.0
H460 H 0.78571 0.70574 0.36225 0.0
H461 H 0.77659 0.72563 0.42373 0.0
H462 H 0.78852 0.77869 0.43226 0.0
H463 H 0.80777 0.78119 0.47637 0.0
H464 H 0.14148 0.85644 0.43309 0.0
H465 H 0.13987 0.92125 0.43265 0.0
H466 H 0.16115 0.92684 0.60842 0.0
H467 H 0.16307 0.86253 0.60769 0.0
H468 H 0.13225 0.97096 0.522 0.0
H469 H 0.17808 0.98946 0.4801 0.0
H470 H 0.17134 0.9469 0.47285 0.0
H471 H 0.1752 0.96413 0.55406 0.0
C472 C 0.14578 0.87158 0.47164 0.0
C473 C 0.15255 0.85454 0.51978 0.0
C474 C 0.14484 0.90858 0.47146 0.0
C475 C 0.15061 0.92908 0.51955 0.0
C476 C 0.15689 0.91179 0.56961 0.0
H477 H 0.14168 0.15484 0.60703 0.0
H478 H 0.14008 0.09011 0.60602 0.0
C479 C 0.15793 0.87499 0.56935 0.0
C480 C 0.1504 0.96847 0.51658 0.0
H481 H 0.16763 0.04076 0.50958 0.0
C482 C 0.13998 0.98626 0.51892 0.0
C483 C 0.16046 0.98853 0.51141 0.0
C484 C 0.17189 0.97129 0.50374 0.0
C485 C 0.13938 0.02347 0.51754 0.0
C486 C 0.14949 0.04351 0.51528 0.0
C487 C 0.15987 0.02559 0.51197 0.0
C488 C 0.14963 0.08299 0.51433 0.0
C489 C 0.12791 0.04084 0.51701 0.0
C490 C 0.15565 0.10075 0.4639 0.0
C491 C 0.15676 0.13751 0.4653 0.0
C492 C 0.15183 0.15752 0.5169 0.0
C493 C 0.14553 0.14006 0.56647 0.0
C494 C 0.14454 0.10306 0.56558 0.0
H495 H 0.12126 0.02246 0.49867 0.0
H496 H 0.12568 0.04882 0.56892 0.0
H497 H 0.12787 0.06479 0.48491 0.0
H498 H 0.15965 0.08605 0.42377 0.0
H499 H 0.16162 0.15028 0.42624 0.0
H500 H 0.90211 0.35344 0.58501 0.0
H501 H 0.90492 0.41783 0.58303 0.0
H502 H 0.87477 0.42947 0.46299 0.0
H503 H 0.87216 0.36548 0.4632 0.0
H504 H 0.89121 0.47101 0.41651 0.0
H505 H 0.88777 0.48951 0.69227 0.0
H506 H 0.89887 0.46018 0.6666 0.0
H507 H 0.88438 0.44822 0.65165 0.0
C508 C 0.89611 0.36983 0.55824 0.0
C509 C 0.88686 0.35445 0.52476 0.0
C510 C 0.89768 0.40665 0.55744 0.0
C511 C 0.88994 0.42877 0.52387 0.0
C512 C 0.88085 0.41317 0.48943 0.0
H513 H 0.87246 0.64621 0.58089 0.0
H514 H 0.87494 0.58219 0.58075 0.0
C515 C 0.87934 0.37651 0.48977 0.0
C516 C 0.89113 0.46812 0.52439 0.0
H517 H 0.89129 0.54041 0.62777 0.0
C518 C 0.8913 0.48618 0.46275 0.0
C519 C 0.89115 0.48807 0.58467 0.0
C520 C 0.89043 0.47062 0.65258 0.0
C521 C 0.89121 0.52336 0.45961 0.0
C522 C 0.89123 0.5433 0.51989 0.0
C523 C 0.89134 0.52525 0.58153 0.0
C524 C 0.89012 0.58268 0.52042 0.0
C525 C 0.89055 0.54084 0.39168 0.0
C526 C 0.89789 0.60469 0.48723 0.0
C527 C 0.89641 0.64156 0.48664 0.0
C528 C 0.88719 0.65707 0.51991 0.0
C529 C 0.87962 0.63509 0.55447 0.0
C530 C 0.88105 0.59841 0.55462 0.0
H531 H 0.88786 0.52201 0.35185 0.0
H532 H 0.88454 0.56336 0.39236 0.0
H533 H 0.89901 0.55112 0.37807 0.0
H534 H 0.90512 0.59341 0.46183 0.0
H535 H 0.90244 0.65789 0.4602 0.0
H536 H 0.88299 0.85254 0.55608 0.0
H537 H 0.88056 0.9169 0.56448 0.0
H538 H 0.91054 0.93209 0.4454 0.0
H539 H 0.9128 0.86812 0.43545 0.0
H540 H 0.89382 0.96592 0.61997 0.0
H541 H 0.88922 0.99752 0.35081 0.0
H542 H 0.88848 0.95284 0.38192 0.0
H543 H 0.90197 0.97331 0.36654 0.0
C544 C 0.88898 0.86968 0.53116 0.0
C545 C 0.89807 0.85528 0.49493 0.0
C546 C 0.8876 0.90646 0.53603 0.0
C547 C 0.89525 0.92957 0.50458 0.0
C548 C 0.90433 0.91505 0.46857 0.0
H549 H 0.91242 0.14394 0.61067 0.0
H550 H 0.91024 0.07997 0.60017 0.0
C551 C 0.90567 0.87838 0.46335 0.0
C552 C 0.89412 0.96875 0.51203 0.0
H553 H 0.8941 0.0461 0.42334 0.0
C554 C 0.89375 0.98339 0.57688 0.0
C555 C 0.89379 0.99179 0.45602 0.0
C556 C 0.89326 0.97804 0.38495 0.0
C557 C 0.89356 0.02021 0.58723 0.0
C558 C 0.89405 0.04326 0.53129 0.0
C559 C 0.89391 0.02862 0.46641 0.0
C560 C 0.89512 0.08244 0.53894 0.0
C561 C 0.89278 0.03396 0.6582 0.0
C562 C 0.88755 0.10552 0.50655 0.0
C563 C 0.88889 0.14231 0.51177 0.0
C564 C 0.89785 0.15674 0.5493 0.0
C565 C 0.90538 0.13366 0.58177 0.0
C566 C 0.90409 0.09699 0.57623 0.0
H567 H 0.88865 0.01443 0.69174 0.0
H568 H 0.90142 0.03879 0.67791 0.0
H569 H 0.88796 0.05911 0.66051 0.0
H570 H 0.88061 0.09506 0.4771 0.0
H571 H 0.88296 0.15944 0.48608 0.0
H572 H 0.13067 0.64543 0.40478 0.0
H573 H 0.132 0.58119 0.41654 0.0
H574 H 0.1537 0.59435 0.58908 0.0
H575 H 0.15272 0.65876 0.57586 0.0
H576 H 0.16089 0.54054 0.51262 0.0
H577 H 0.11494 0.52546 0.55364 0.0
H578 H 0.11801 0.54618 0.47494 0.0
H579 H 0.12174 0.56807 0.55225 0.0
C580 C 0.13577 0.6346 0.44502 0.0
C581 C 0.14148 0.65709 0.48987 0.0
C582 C 0.13646 0.59786 0.45203 0.0
C583 C 0.1427 0.58278 0.50487 0.0
C584 C 0.14875 0.60526 0.54828 0.0
H585 H 0.13107 0.36658 0.63765 0.0
H586 H 0.13275 0.43086 0.62882 0.0
C587 C 0.14817 0.64207 0.54076 0.0
C588 C 0.14274 0.54371 0.51534 0.0
H589 H 0.12531 0.47252 0.53531 0.0
C590 C 0.15311 0.52568 0.51793 0.0
C591 C 0.13262 0.52424 0.52362 0.0
C592 C 0.12121 0.54201 0.52671 0.0
C593 C 0.15363 0.4888 0.5272 0.0
C594 C 0.14347 0.46915 0.53226 0.0
C595 C 0.13312 0.48733 0.53076 0.0
C596 C 0.14327 0.42987 0.54008 0.0
C597 C 0.16507 0.47149 0.53303 0.0
C598 C 0.14868 0.40759 0.49357 0.0
C599 C 0.14787 0.37073 0.49926 0.0
C600 C 0.14141 0.35543 0.5507 0.0
C601 C 0.13608 0.37764 0.59741 0.0
C602 C 0.13702 0.41441 0.59228 0.0
H603 H 0.17162 0.49066 0.54959 0.0
H604 H 0.16491 0.44914 0.56905 0.0
H605 H 0.16761 0.46117 0.48314 0.0
H606 H 0.1533 0.41864 0.45177 0.0
H607 H 0.15201 0.35425 0.46224 0.0
H608 H 0.64133 0.65888 0.1042 0.0
H609 H 0.6395 0.594 0.10545 0.0
H610 H 0.6583 0.58771 0.92075 0.0
H611 H 0.66039 0.65191 0.92028 0.0
H612 H 0.631 0.54241 1.01584 0.0
H613 H 0.67726 0.52844 0.04879 0.0
H614 H 0.6701 0.57023 0.05824 0.0
H615 H 0.67355 0.55378 0.97597 0.0
C616 C 0.64495 0.64356 0.06363 0.0
C617 C 0.65116 0.66029 1.01271 0.0
C618 C 0.6439 0.60656 0.06433 0.0
C619 C 0.649 0.58591 1.01401 0.0
C620 C 0.65456 0.60295 0.96103 0.0
H621 H 0.64225 0.36071 0.9223 0.0
H622 H 0.63972 0.4251 0.92713 0.0
C623 C 0.6557 0.63967 0.96068 0.0
C624 C 0.64913 0.54661 1.01812 0.0
H625 H 0.66714 0.47615 0.02135 0.0
C626 C 0.63889 0.52785 1.01753 0.0
C627 C 0.65942 0.52759 0.02145 0.0
C628 C 0.6707 0.54602 0.02686 0.0
C629 C 0.63868 0.49059 1.01841 0.0
C630 C 0.64901 0.4716 1.01857 0.0
C631 C 0.65921 0.49052 0.02059 0.0
C632 C 0.64959 0.43219 1.01793 0.0
C633 C 0.62742 0.47202 0.02032 0.0
C634 C 0.65608 0.41458 0.06665 0.0
C635 C 0.65772 0.37806 0.06305 0.0
C636 C 0.65286 0.35817 1.01091 0.0
C637 C 0.64606 0.37542 0.96319 0.0
C638 C 0.64453 0.41219 0.96629 0.0
H639 H 0.62069 0.48955 0.0403 0.0
H640 H 0.62498 0.4642 0.96858 0.0
H641 H 0.62782 0.44783 0.05168 0.0
H642 H 0.66007 0.42926 0.10699 0.0
H643 H 0.66294 0.36543 0.10077 0.0
H644 H 0.37667 0.86533 0.9409 0.0
H645 H 0.37956 0.92912 0.93463 0.0
H646 H 0.3997 0.92541 0.11535 0.0
H647 H 0.39715 0.86103 0.12023 0.0
H648 H 0.37239 0.97622 1.01973 0.0
H649 H 0.41887 0.98962 1.00305 0.0
H650 H 0.41176 0.94785 0.99145 0.0
H651 H 0.41448 0.96448 0.07464 0.0
C652 C 0.38185 0.87805 0.9788 0.0
C653 C 0.38664 0.85828 0.03119 0.0
C654 C 0.3835 0.91455 0.97517 0.0
C655 C 0.38994 0.93228 0.02412 0.0
C656 C 0.39493 0.91241 0.07602 0.0
H657 H 0.379 0.15219 0.12102 0.0
H658 H 0.38111 0.088 0.12066 0.0
C659 C 0.39339 0.87565 0.07914 0.0
C660 C 0.39052 0.97169 0.02342 0.0
H661 H 0.40851 0.04254 0.02686 0.0
C662 C 0.38031 0.9906 0.02084 0.0
C663 C 0.40084 0.9907 0.02404 0.0
C664 C 0.41211 0.97214 0.02275 0.0
C665 C 0.38011 0.02767 1.01987 0.0
C666 C 0.39038 0.04671 0.02367 0.0
C667 C 0.40063 0.02796 0.02482 0.0
C668 C 0.3905 0.08602 0.02773 0.0
C669 C 0.36883 0.04607 1.01386 0.0
C670 C 0.39563 0.10657 0.97755 0.0
C671 C 0.39457 0.14357 0.97818 0.0
C672 C 0.38831 0.1604 0.02888 0.0
C673 C 0.38373 0.13988 0.08079 0.0
C674 C 0.38489 0.10316 0.08051 0.0
H675 H 0.3623 0.02843 0.9917 0.0
H676 H 0.36591 0.05399 0.06458 0.0
H677 H 0.36947 0.07018 0.98242 0.0
H678 H 0.40008 0.09393 0.93659 0.0
H679 H 0.39823 0.1588 0.93771 0.0
H680 H 0.38381 0.35888 0.08038 0.0
H681 H 0.38257 0.42318 0.09295 0.0
H682 H 0.39997 0.43651 0.90465 0.0
H683 H 0.40157 0.3723 0.89327 0.0
H684 H 0.40934 0.47605 0.99726 0.0
H685 H 0.36316 0.49755 1.00881 0.0
H686 H 0.36796 0.46661 0.0707 0.0
H687 H 0.36924 0.456 0.9829 0.0
C688 C 0.3872 0.37557 0.04119 0.0
C689 C 0.39282 0.36063 0.98592 0.0
C690 C 0.38643 0.41236 0.04819 0.0
C691 C 0.39106 0.43489 0.99938 0.0
C692 C 0.39632 0.41981 0.94301 0.0
H693 H 0.38343 0.66458 0.98167 0.0
H694 H 0.38164 0.60057 0.9651 0.0
C695 C 0.39721 0.38309 0.93643 0.0
C696 C 0.39128 0.47397 1.0094 0.0
H697 H 0.3748 0.5461 0.043 0.0
C698 C 0.40176 0.49133 1.00681 0.0
C699 C 0.3814 0.49416 0.02115 0.0
C700 C 0.36979 0.47769 0.02038 0.0
C701 C 0.40267 0.528 1.01644 0.0
C702 C 0.39286 0.54797 0.03125 0.0
C703 C 0.38234 0.53078 0.03268 0.0
C704 C 0.39339 0.58674 0.04426 0.0
C705 C 0.41413 0.54503 1.00915 0.0
C706 C 0.40033 0.60035 0.09551 0.0
C707 C 0.40146 0.63687 0.1045 0.0
C708 C 0.39553 0.66053 0.06316 0.0
C709 C 0.38816 0.64696 1.01401 0.0
C710 C 0.38712 0.61038 1.00458 0.0
H711 H 0.41992 0.52845 0.97859 0.0
H712 H 0.41347 0.57146 0.98536 0.0
H713 H 0.41801 0.54831 0.05956 0.0
H714 H 0.405 0.5827 0.12808 0.0
H715 H 0.40709 0.64659 0.14333 0.0
H716 H 0.65565 0.1642 0.06045 0.0
H717 H 0.65763 0.10019 0.07443 0.0
H718 H 0.635 0.08309 0.90735 0.0
H719 H 0.63269 0.14704 0.8949 0.0
H720 H 0.62909 0.04335 1.00907 0.0
H721 H 0.67513 0.02748 0.97201 0.0
H722 H 0.67186 0.05837 0.03751 0.0
H723 H 0.66782 0.06799 0.9523 0.0
C724 C 0.6512 0.14674 0.02632 0.0
C725 C 0.64399 0.16055 0.97669 0.0
C726 C 0.6524 0.11012 0.03399 0.0
C727 C 0.6466 0.08663 0.99135 0.0
C728 C 0.63959 0.10056 0.94084 0.0
H729 H 0.65579 0.85823 0.9605 0.0
H730 H 0.65677 0.92251 0.94579 0.0
C731 C 0.63828 0.13712 0.93366 0.0
C732 C 0.64719 0.04765 1.00192 0.0
H733 H 0.66532 0.97769 1.01694 0.0
C734 C 0.63703 0.02903 1.01043 0.0
C735 C 0.65752 0.02872 1.00297 0.0
C736 C 0.66869 0.0466 0.99002 0.0
C737 C 0.63689 0.99231 0.02055 0.0
C738 C 0.64723 0.9736 0.02446 0.0
C739 C 0.6574 0.99206 1.015 0.0
C740 C 0.64759 0.93477 0.03673 0.0
C741 C 0.62561 0.97387 0.02529 0.0
C742 C 0.64248 0.92021 0.09395 0.0
C743 C 0.64181 0.88355 0.10202 0.0
C744 C 0.6464 0.86069 0.05364 0.0
C745 C 0.65213 0.87522 0.99847 0.0
C746 C 0.65269 0.91195 0.99003 0.0
H747 H 0.61875 0.98976 1.002 0.0
H748 H 0.62584 0.9476 1.00041 0.0
H749 H 0.62344 0.96999 0.07892 0.0
H750 H 0.63878 0.93722 0.13172 0.0
H751 H 0.63746 0.87308 0.14544 0.0
H752 H 0.1604 0.29373 0.31514 0.0
H753 H 0.16062 0.29176 0.19262 0.0
H754 H 0.13048 0.2278 0.19319 0.0
H755 H 0.13011 0.22992 0.31605 0.0
H756 H 0.16225 0.2323 0.11083 0.0
H757 H 0.12259 0.30567 0.05878 0.0
H758 H 0.1294 0.30627 0.13995 0.0
H759 H 0.12099 0.26894 0.11492 0.0
C760 C 0.15374 0.27951 0.28937 0.0
C761 C 0.1452 0.26211 0.32562 0.0
C762 C 0.1539 0.27835 0.2192 0.0
C763 C 0.14551 0.25997 0.18359 0.0
C764 C 0.13693 0.24272 0.2195 0.0
H765 H 0.13326 0.21755 0.76111 0.0
H766 H 0.13307 0.21909 0.88367 0.0
C767 C 0.13676 0.24385 0.28981 0.0
C768 C 0.14601 0.25786 0.10906 0.0
H769 H 0.13147 0.27818 0.96581 0.0
C770 C 0.15554 0.24246 0.07908 0.0
C771 C 0.13725 0.27108 0.06767 0.0
C772 C 0.12701 0.28922 0.09676 0.0
C773 C 0.15647 0.23937 1.00896 0.0
C774 C 0.14772 0.25261 0.96756 0.0
C775 C 0.13818 0.268 0.99755 0.0
C776 C 0.14823 0.25061 0.89302 0.0
C777 C 0.16671 0.22123 0.97988 0.0
C778 C 0.15683 0.26783 0.85728 0.0
C779 C 0.15699 0.26693 0.78695 0.0
C780 C 0.14851 0.24896 0.75096 0.0
C781 C 0.13995 0.23155 0.78704 0.0
C782 C 0.13981 0.23247 0.85722 0.0
H783 H 0.1711 0.20465 1.01781 0.0
H784 H 0.16433 0.2043 0.9365 0.0
H785 H 0.17276 0.24151 0.96205 0.0
H786 H 0.1633 0.28258 0.88372 0.0
H787 H 0.16365 0.28085 0.76086 0.0
H788 H 0.87776 0.22205 0.31706 0.0
H789 H 0.87769 0.2238 0.19448 0.0
H790 H 0.90843 0.28486 0.19712 0.0
H791 H 0.90866 0.28297 0.31992 0.0
H792 H 0.87689 0.28342 0.11186 0.0
H793 H 0.91571 0.20488 0.06511 0.0
H794 H 0.90869 0.20544 0.14541 0.0
H795 H 0.91761 0.24163 0.1212 0.0
C796 C 0.88458 0.23563 0.29172 0.0
C797 C 0.89326 0.25223 0.32848 0.0
C798 C 0.8845 0.23665 0.22156 0.0
C799 C 0.89312 0.25409 0.18659 0.0
C800 C 0.90181 0.27067 0.22301 0.0
H801 H 0.9065 0.29239 0.76461 0.0
H802 H 0.90657 0.2917 0.88725 0.0
C803 C 0.9019 0.26969 0.29327 0.0
C804 C 0.89279 0.25579 0.11211 0.0
H805 H 0.90735 0.23276 0.97082 0.0
C806 C 0.88353 0.27223 0.08096 0.0
C807 C 0.90146 0.24123 0.07192 0.0
C808 C 0.91139 0.22201 0.10241 0.0
C809 C 0.88278 0.27499 1.01075 0.0
C810 C 0.89145 0.26038 0.97055 0.0
C811 C 0.90072 0.24399 1.00171 0.0
C812 C 0.89108 0.26178 0.89605 0.0
C813 C 0.87285 0.2942 0.98027 0.0
C814 C 0.88235 0.2451 0.86012 0.0
C815 C 0.88226 0.2455 0.78984 0.0
C816 C 0.89095 0.26243 0.75412 0.0
C817 C 0.89965 0.27922 0.79037 0.0
C818 C 0.89973 0.27879 0.86056 0.0
H819 H 0.8686 0.31157 1.01746 0.0
H820 H 0.87553 0.31053 0.93688 0.0
H821 H 0.86658 0.27458 0.96209 0.0
H822 H 0.8757 0.23122 0.8864 0.0
H823 H 0.87548 0.2321 0.7636 0.0
H824 H 0.16413 0.73272 0.27689 0.0
H825 H 0.16384 0.73195 0.1539 0.0
H826 H 0.13307 0.79289 0.15439 0.0
H827 H 0.13335 0.79422 0.27684 0.0
H828 H 0.14707 0.7041 0.07068 0.0
H829 H 0.15263 0.84734 0.02209 0.0
H830 H 0.15549 0.82772 0.1029 0.0
H831 H 0.14121 0.83736 0.07798 0.0
C832 C 0.15737 0.74632 0.25085 0.0
C833 C 0.14879 0.76368 0.28687 0.0
C834 C 0.1572 0.74578 0.18053 0.0
C835 C 0.14852 0.76277 0.14486 0.0
C836 C 0.13999 0.78024 0.18069 0.0
H837 H 0.13059 0.7823 0.72162 0.0
H838 H 0.13084 0.78372 0.84464 0.0
C839 C 0.14014 0.78081 0.25087 0.0
C840 C 0.14807 0.7609 0.07035 0.0
H841 H 0.14751 0.81161 0.9286 0.0
C842 C 0.14724 0.72759 0.03957 0.0
C843 C 0.14821 0.79158 0.02981 0.0
C844 C 0.14954 0.82802 0.05972 0.0
C845 C 0.14636 0.72413 0.96949 0.0
C846 C 0.14652 0.75481 0.92894 0.0
C847 C 0.14734 0.78813 0.95971 0.0
C848 C 0.14615 0.75287 0.85441 0.0
C849 C 0.14503 0.68769 0.93962 0.0
C850 C 0.15469 0.73524 0.819 0.0
C851 C 0.15456 0.73429 0.74885 0.0
C852 C 0.14591 0.75119 0.71242 0.0
C853 C 0.13734 0.76885 0.74801 0.0
C854 C 0.13749 0.76977 0.81833 0.0
H855 H 0.14187 0.66843 0.9772 0.0
H856 H 0.13912 0.68801 0.89623 0.0
H857 H 0.15336 0.67823 0.9217 0.0
H858 H 0.16159 0.72268 0.84561 0.0
H859 H 0.16134 0.72067 0.72325 0.0
H860 H 0.90874 0.72868 0.7264 0.0
H861 H 0.90828 0.72662 0.84926 0.0
H862 H 0.87799 0.78985 0.84923 0.0
H863 H 0.87829 0.7918 0.72672 0.0
H864 H 0.90856 0.78226 0.94361 0.0
H865 H 0.86906 0.70391 0.96245 0.0
H866 H 0.87689 0.70793 0.88519 0.0
H867 H 0.86782 0.7432 0.91255 0.0
C868 C 0.90199 0.74221 0.75248 0.0
C869 C 0.89352 0.76026 0.71655 0.0
C870 C 0.90173 0.74098 0.82273 0.0
C871 C 0.89299 0.75754 0.85837 0.0
C872 C 0.88468 0.77623 0.82274 0.0
H873 H 0.87617 0.78147 0.28097 0.0
H874 H 0.87661 0.78306 0.15809 0.0
C875 C 0.88492 0.7775 0.75261 0.0
C876 C 0.8926 0.75562 0.93282 0.0
H877 H 0.87639 0.72752 0.06405 0.0
C878 C 0.90156 0.77014 0.96998 0.0
C879 C 0.88344 0.73986 0.96713 0.0
C880 C 0.87379 0.72254 0.92991 0.0
C881 C 0.90152 0.76993 0.04053 0.0
C882 C 0.89236 0.75417 0.07486 0.0
C883 C 0.88339 0.73964 0.03769 0.0
C884 C 0.89195 0.75236 0.14933 0.0
C885 C 0.91115 0.78732 0.07772 0.0
C886 C 0.90029 0.73391 0.18517 0.0
C887 C 0.90007 0.73293 0.25533 0.0
C888 C 0.89145 0.7502 0.29118 0.0
C889 C 0.88294 0.76793 0.25504 0.0
C890 C 0.88318 0.76889 0.18478 0.0
H891 H 0.91587 0.80597 0.04517 0.0
H892 H 0.90806 0.80191 0.12245 0.0
H893 H 0.91715 0.7667 0.09506 0.0
H894 H 0.907 0.72031 0.15884 0.0
H895 H 0.90673 0.71887 0.28139 0.0
H896 H 0.63205 0.73433 0.26198 0.0
H897 H 0.63232 0.73527 0.38465 0.0
H898 H 0.66672 0.77257 0.38231 0.0
H899 H 0.66655 0.77193 0.25944 0.0
H900 H 0.64737 0.69973 0.47596 0.0
H901 H 0.64962 0.846 0.49914 0.0
H902 H 0.64554 0.82413 0.42215 0.0
H903 H 0.66015 0.82607 0.44639 0.0
C904 C 0.6397 0.74268 0.28738 0.0
C905 C 0.64926 0.75324 0.25069 0.0
C906 C 0.63983 0.74315 0.35757 0.0
C907 C 0.64948 0.75446 0.39252 0.0
C908 C 0.65912 0.7643 0.35624 0.0
H909 H 0.66478 0.78697 0.81457 0.0
H910 H 0.66502 0.78379 0.69209 0.0
C911 C 0.65902 0.76372 0.28599 0.0
C912 C 0.6494 0.75602 0.46694 0.0
H913 H 0.65093 0.81314 0.59959 0.0
C914 C 0.64813 0.7245 0.50311 0.0
C915 C 0.6504 0.78839 0.50208 0.0
C916 C 0.65142 0.82317 0.46567 0.0
C917 C 0.64802 0.72438 0.57365 0.0
C918 C 0.64893 0.75681 0.60889 0.0
C919 C 0.65022 0.78832 0.57258 0.0
C920 C 0.64866 0.75865 0.68341 0.0
C921 C 0.6472 0.68944 0.6097 0.0
C922 C 0.6393 0.74609 0.71939 0.0
C923 C 0.63916 0.7477 0.78958 0.0
C924 C 0.64832 0.76232 0.82514 0.0
C925 C 0.65758 0.77554 0.78886 0.0
C926 C 0.65774 0.77374 0.71876 0.0
H927 H 0.64977 0.66707 0.57689 0.0
H928 H 0.65258 0.68924 0.65546 0.0
H929 H 0.63832 0.68493 0.62509 0.0
H930 H 0.63207 0.73517 0.69317 0.0
H931 H 0.63186 0.73752 0.81589 0.0
H932 H 0.37654 0.72632 0.83125 0.0
H933 H 0.37643 0.72876 0.70876 0.0
H934 H 0.40701 0.79058 0.7124 0.0
H935 H 0.40727 0.78801 0.83523 0.0
H936 H 0.37541 0.7887 0.62735 0.0
H937 H 0.41447 0.71176 0.57822 0.0
H938 H 0.40749 0.71163 0.65868 0.0
H939 H 0.41626 0.74829 0.63497 0.0
C940 C 0.38331 0.74022 0.80616 0.0
C941 C 0.39195 0.75685 0.84326 0.0
C942 C 0.38321 0.74164 0.73602 0.0
C943 C 0.39177 0.7595 0.70129 0.0
C944 C 0.40043 0.77608 0.73804 0.0
H945 H 0.40476 0.79868 0.27866 0.0
H946 H 0.40491 0.79801 0.40129 0.0
C947 C 0.40054 0.7747 0.80833 0.0
C948 C 0.3914 0.76162 0.62677 0.0
H949 H 0.40588 0.73952 0.48461 0.0
C950 C 0.38205 0.77785 0.5961 0.0
C951 C 0.40008 0.74751 0.58605 0.0
C952 C 0.4101 0.72853 0.61594 0.0
C953 C 0.38122 0.78082 0.52591 0.0
C954 C 0.38988 0.76661 0.48516 0.0
C955 C 0.39925 0.75045 0.51586 0.0
C956 C 0.38942 0.76816 0.41058 0.0
C957 C 0.3712 0.79983 0.49609 0.0
C958 C 0.38065 0.75157 0.3748 0.0
C959 C 0.38051 0.75199 0.30448 0.0
C960 C 0.38918 0.76881 0.2685 0.0
C961 C 0.39791 0.78558 0.30459 0.0
C962 C 0.39804 0.78515 0.3748 0.0
H963 H 0.36698 0.81712 0.53357 0.0
H964 H 0.37375 0.8162 0.45251 0.0
H965 H 0.36493 0.78008 0.47841 0.0
H966 H 0.37402 0.73768 0.40123 0.0
H967 H 0.3737 0.73857 0.2784 0.0
H968 H 0.66288 0.22608 0.21026 0.0
H969 H 0.66299 0.2285 0.33277 0.0
H970 H 0.63242 0.29039 0.32963 0.0
H971 H 0.63216 0.28783 0.20678 0.0
H972 H 0.66404 0.2884 0.41458 0.0
H973 H 0.62495 0.21166 0.46329 0.0
H974 H 0.63191 0.21151 0.38279 0.0
H975 H 0.62317 0.24821 0.40684 0.0
C976 C 0.65611 0.23998 0.23546 0.0
C977 C 0.64747 0.25663 0.1985 0.0
C978 C 0.65621 0.2414 0.30561 0.0
C979 C 0.64765 0.25927 0.34049 0.0
C980 C 0.639 0.27587 0.30388 0.0
H981 H 0.63472 0.29865 0.76337 0.0
H982 H 0.63456 0.29795 0.64074 0.0
C983 C 0.63889 0.2745 0.23357 0.0
C984 C 0.64803 0.26141 0.41502 0.0
H985 H 0.63355 0.23941 0.55707 0.0
C986 C 0.65739 0.27759 0.44578 0.0
C987 C 0.63935 0.24734 0.45567 0.0
C988 C 0.62931 0.22841 0.42568 0.0
C989 C 0.65823 0.28056 0.51599 0.0
C990 C 0.64956 0.2664 0.55666 0.0
C991 C 0.64019 0.25029 0.52588 0.0
C992 C 0.65003 0.26797 0.63124 0.0
C993 C 0.66827 0.29951 0.54591 0.0
C994 C 0.65879 0.25133 0.66691 0.0
C995 C 0.65893 0.25176 0.73723 0.0
C996 C 0.65027 0.26866 0.77333 0.0
C997 C 0.64155 0.28549 0.73735 0.0
C998 C 0.64143 0.28505 0.66714 0.0
H999 H 0.6725 0.31675 0.50854 0.0
H1000 H 0.66572 0.31591 0.5896 0.0
H1001 H 0.67452 0.27972 0.56349 0.0
H1002 H 0.66541 0.23738 0.64038 0.0
H1003 H 0.66573 0.2383 0.76322 0.0
H1004 H 0.37454 0.28774 0.22631 0.0
H1005 H 0.37432 0.28543 0.34876 0.0
H1006 H 0.40731 0.2371 0.3485 0.0
H1007 H 0.4075 0.23859 0.22565 0.0
H1008 H 0.39268 0.20347 0.43301 0.0
H1009 H 0.39125 0.34791 0.4796 0.0
H1010 H 0.38009 0.33255 0.42583 0.0
H1011 H 0.39453 0.32947 0.39836 0.0
C1012 C 0.3818 0.27684 0.25219 0.0
C1013 C 0.39107 0.26353 0.21607 0.0
C1014 C 0.38168 0.27571 0.32234 0.0
C1015 C 0.39088 0.26168 0.35798 0.0
C1016 C 0.40014 0.24824 0.32209 0.0
H1017 H 0.40738 0.23323 0.77951 0.0
H1018 H 0.40718 0.23376 0.6569 0.0
C1019 C 0.40024 0.24918 0.25185 0.0
C1020 C 0.39071 0.26005 0.43254 0.0
H1021 H 0.38807 0.31075 0.57382 0.0
C1022 C 0.39174 0.22695 0.4638 0.0
C1023 C 0.38945 0.2907 0.47276 0.0
C1024 C 0.38888 0.3272 0.44254 0.0
C1025 C 0.39137 0.22361 0.53401 0.0
C1026 C 0.39005 0.25422 0.57407 0.0
C1027 C 0.38901 0.2873 0.54293 0.0
C1028 C 0.38999 0.25263 0.64852 0.0
C1029 C 0.39219 0.18729 0.56475 0.0
C1030 C 0.38042 0.26345 0.68463 0.0
C1031 C 0.3805 0.2632 0.75491 0.0
C1032 C 0.3902 0.25247 0.79044 0.0
C1033 C 0.39975 0.24154 0.75394 0.0
C1034 C 0.39964 0.24165 0.68374 0.0
H1035 H 0.3904 0.16615 0.52744 0.0
H1036 H 0.40088 0.18322 0.5843 0.0
H1037 H 0.38622 0.18455 0.60733 0.0
H1038 H 0.3729 0.2722 0.65837 0.0
H1039 H 0.37301 0.27195 0.7813 0.0
H1040 H 0.06546 0.20125 0.4033 0.0
H1041 H 0.04492 0.20765 0.39531 0.0
H1042 H 0.04637 0.29844 0.52602 0.0
H1043 H 0.06684 0.29199 0.53519 0.0
H1044 H 0.02945 0.20506 0.50184 0.0
H1045 H 0.02683 0.33361 0.3695 0.0
H1046 H 0.03962 0.30765 0.37229 0.0
H1047 H 0.03562 0.33434 0.44308 0.0
C1048 C 0.06143 0.22265 0.43029 0.0
C1049 C 0.06787 0.24613 0.46985 0.0
C1050 C 0.04968 0.22634 0.42541 0.0
C1051 C 0.0441 0.25376 0.4594 0.0
C1052 C 0.0505 0.27753 0.49813 0.0
H1053 H 0.97547 0.31837 0.53701 0.0
H1054 H 0.99592 0.31172 0.52728 0.0
C1055 C 0.06224 0.27383 0.50319 0.0
C1056 C 0.03155 0.25641 0.45735 0.0
H1057 H 1.00978 0.31183 0.41709 0.0
C1058 C 0.02513 0.22825 0.48272 0.0
C1059 C 0.02593 0.28672 0.43257 0.0
C1060 C 0.03233 0.3172 0.40223 0.0
C1061 C 1.01328 0.23004 0.486 0.0
C1062 C 1.00765 0.26053 0.46189 0.0
C1063 C 1.01407 0.28847 0.43559 0.0
C1064 C 0.99514 0.26459 0.46585 0.0
C1065 C 1.00693 0.19978 0.51759 0.0
C1066 C 0.98784 0.2406 0.43371 0.0
C1067 C 0.97609 0.24436 0.43911 0.0
C1068 C 0.97139 0.27245 0.47615 0.0
C1069 C 0.97876 0.29673 0.50725 0.0
C1070 C 0.99047 0.29287 0.50203 0.0
H1071 H 1.01255 0.18284 0.54855 0.0
H1072 H 0.99995 0.20963 0.54972 0.0
H1073 H 1.00321 0.18304 0.47743 0.0
H1074 H 0.99122 0.21902 0.40419 0.0
H1075 H 0.97068 0.22546 0.41378 0.0
H1076 H 0.97558 0.69127 0.51371 0.0
H1077 H 0.99609 0.69722 0.52119 0.0
H1078 H 0.99223 0.79586 0.62723 0.0
H1079 H 0.97162 0.78971 0.62143 0.0
H1080 H 1.00912 0.75286 0.46879 0.0
H1081 H 1.01497 0.74095 0.74465 0.0
H1082 H 1.00214 0.72738 0.70262 0.0
H1083 H 1.00483 0.77341 0.71803 0.0
C1084 C 0.97906 0.71393 0.53982 0.0
C1085 C 0.97191 0.73987 0.56748 0.0
C1086 C 0.99081 0.71741 0.54358 0.0
C1087 C 0.99571 0.74674 0.57546 0.0
C1088 C 0.98864 0.77269 0.60336 0.0
H1089 H 0.06567 0.8142 0.62775 0.0
H1090 H 0.04512 0.80777 0.63239 0.0
C1091 C 0.97686 0.7693 0.59942 0.0
C1092 C 1.00822 0.75076 0.57656 0.0
H1093 H 0.03118 0.75526 0.68081 0.0
C1094 C 1.01394 0.75328 0.51514 0.0
C1095 C 1.01451 0.75153 0.63707 0.0
C1096 C 1.00885 0.7479 0.70443 0.0
C1097 C 0.02575 0.75689 0.5125 0.0
C1098 C 0.03208 0.75712 0.57296 0.0
C1099 C 0.02634 0.75492 0.63448 0.0
C1100 C 0.04464 0.75983 0.57313 0.0
C1101 C 0.0313 0.76122 0.4449 0.0
C1102 C 0.05126 0.73451 0.53988 0.0
C1103 C 0.06301 0.73829 0.53653 0.0
C1104 C 0.06844 0.76734 0.56696 0.0
C1105 C 0.0618 0.79185 0.60267 0.0
C1106 C 0.05004 0.7881 0.60578 0.0
H1107 H 0.0252 0.77043 0.40623 0.0
H1108 H 0.03841 0.78034 0.44756 0.0
H1109 H 0.0347 0.73534 0.42823 0.0
H1110 H 0.04733 0.71203 0.51556 0.0
H1111 H 0.06779 0.719 0.50816 0.0
H1112 H 0.56495 0.76107 0.91114 0.0
H1113 H 0.54431 0.76194 0.91207 0.0
H1114 H 0.54432 0.70607 0.10043 0.0
H1115 H 0.56498 0.70634 0.10136 0.0
H1116 H 0.52852 0.70875 0.91438 0.0
H1117 H 0.52491 0.79155 0.14359 0.0
H1118 H 0.53809 0.7856 0.09978 0.0
H1119 H 0.53296 0.75183 0.15528 0.0
C1120 C 0.56058 0.7492 0.95314 0.0
C1121 C 0.56668 0.734 1.00659 0.0
C1122 C 0.54876 0.7495 0.95331 0.0
C1123 C 0.54274 0.73469 1.00693 0.0
C1124 C 0.54877 0.71837 0.0592 0.0
H1125 H 0.47088 0.72452 0.10082 0.0
H1126 H 0.49132 0.71531 0.09685 0.0
C1127 C 0.56061 0.71813 0.05919 0.0
C1128 C 0.53017 0.73669 1.00814 0.0
H1129 H 0.50789 0.76862 0.09874 0.0
C1130 C 0.52401 0.72187 0.95466 0.0
C1131 C 0.52427 0.7539 0.06063 0.0
C1132 C 0.53038 0.77193 0.11779 0.0
C1133 C 0.51213 0.72344 0.95263 0.0
C1134 C 0.50625 0.74069 1.00504 0.0
C1135 C 0.5124 0.75529 0.05871 0.0
C1136 C 0.49374 0.7445 1.00477 0.0
C1137 C 0.50597 0.70616 0.89488 0.0
C1138 C 0.48827 0.76395 0.95428 0.0
C1139 C 0.47656 0.76918 0.95627 0.0
C1140 C 0.47006 0.75511 1.00891 0.0
C1141 C 0.47557 0.73526 0.05896 0.0
C1142 C 0.48728 0.73018 0.05706 0.0
H1143 H 0.51136 0.68652 0.86861 0.0
H1144 H 0.49818 0.69277 0.91243 0.0
H1145 H 0.50349 0.72671 0.85802 0.0
H1146 H 0.49309 0.77576 0.91401 0.0
H1147 H 0.4726 0.78444 0.91673 0.0
H1148 H 0.47445 0.26361 0.12936 0.0
H1149 H 0.49509 0.26446 0.12868 0.0
H1150 H 0.49515 0.20528 0.94357 0.0
H1151 H 0.47449 0.20556 0.94231 0.0
H1152 H 0.51087 0.21131 0.12975 0.0
H1153 H 0.51461 0.2898 0.8958 0.0
H1154 H 0.5014 0.28466 0.93963 0.0
H1155 H 0.50658 0.24988 0.88629 0.0
C1156 C 0.47883 0.25101 0.0881 0.0
C1157 C 0.47275 0.23488 0.03544 0.0
C1158 C 0.49065 0.2513 0.08809 0.0
C1159 C 0.4967 0.23555 0.03543 0.0
C1160 C 0.49069 0.21831 0.98402 0.0
H1161 H 0.56862 0.2238 0.94354 0.0
H1162 H 0.54818 0.21463 0.9476 0.0
C1163 C 0.47885 0.21809 0.98385 0.0
C1164 C 0.50927 0.23749 0.03433 0.0
H1165 H 0.53161 0.26769 0.94235 0.0
C1166 C 0.5154 0.22367 0.08879 0.0
C1167 C 0.51521 0.2537 0.98097 0.0
C1168 C 0.50913 0.27067 0.92263 0.0
C1169 C 0.52727 0.22526 0.09099 0.0
C1170 C 0.53319 0.24152 0.0377 0.0
C1171 C 0.52707 0.25512 0.98305 0.0
C1172 C 0.5457 0.24535 0.03803 0.0
C1173 C 0.53339 0.20907 0.14987 0.0
C1174 C 0.55114 0.26565 0.08757 0.0
C1175 C 0.56285 0.27085 0.08555 0.0
C1176 C 0.56939 0.25591 0.03381 0.0
C1177 C 0.56391 0.23523 0.98472 0.0
C1178 C 0.5522 0.23017 0.98666 0.0
H1179 H 0.52799 0.18986 0.17707 0.0
H1180 H 0.54121 0.19541 0.13334 0.0
H1181 H 0.53583 0.23027 0.18562 0.0
H1182 H 0.5463 0.27813 0.12708 0.0
H1183 H 0.56679 0.28676 0.12435 0.0
loop_
_geom_bond_atom_site_label_1
_geom_bond_atom_site_label_2
_geom_bond_distance
_geom_bond_site_symmetry_2
_ccdc_geom_bond_type
Tb0 C2 2.809 . S
Tb0 O20 2.484 . S
Tb0 O21 2.440 . S
Tb0 O22 2.658 . S
Tb0 O23 2.409 . S
Tb0 O24 2.378 . S
Tb0 O28 2.325 . S
Tb0 O31 2.341 . S
Tb1 C11 2.809 . S
Tb1 O22 2.325 . S
Tb1 O25 2.341 . S
Tb1 O26 2.484 . S
Tb1 O27 2.440 . S
Tb1 O28 2.658 . S
Tb1 O29 2.409 . S
Tb1 O30 2.378 . S
C2 Tb0 2.809 . S
C2 C3 1.514 . S
C2 O20 1.248 . S
C2 O21 1.266 . S
C3 C2 1.514 . S
C3 C4 1.359 . S
C3 C8 1.348 . S
C4 C3 1.359 . S
C4 C5 1.380 . S
C4 H32 0.929 . S
C5 C4 1.380 . S
C5 C6 1.347 . S
C5 H33 0.931 . S
C6 C5 1.347 . S
C6 C7 1.369 . S
C7 C6 1.369 . S
C7 C8 1.408 . S
C7 H34 0.930 . S
C8 C3 1.348 . S
C8 C7 1.408 . S
C8 H35 0.930 . S
C9 O22 1.281 . S
C9 O23 1.254 . S
C10 O24 1.236 . S
C10 O25 1.266 . S
C11 Tb1 2.809 . S
C11 C12 1.514 . S
C11 O26 1.248 . S
C11 O27 1.266 . S
C12 C11 1.514 . S
C12 C13 1.359 . S
C12 C17 1.348 . S
C13 C12 1.359 . S
C13 C14 1.380 . S
C13 H36 0.929 . S
C14 C13 1.380 . S
C14 C15 1.347 . S
C14 H37 0.931 . S
C15 C14 1.347 . S
C15 C16 1.369 . S
C16 C15 1.369 . S
C16 C17 1.408 . S
C16 H38 0.930 . S
C17 C12 1.348 . S
C17 C16 1.408 . S
C17 H39 0.930 . S
C18 O28 1.281 . S
C18 O29 1.254 . S
C19 O30 1.236 . S
C19 O31 1.266 . S
O20 Tb0 2.484 . S
O20 C2 1.248 . S
O21 Tb0 2.440 . S
O21 C2 1.266 . S
O22 Tb0 2.658 . S
O22 Tb1 2.325 . S
O22 C9 1.281 . S
O23 Tb0 2.409 . S
O23 C9 1.254 . S
O24 Tb0 2.378 . S
O24 C10 1.236 . S
O25 Tb1 2.341 . S
O25 C10 1.266 . S
O26 Tb1 2.484 . S
O26 C11 1.248 . S
O27 Tb1 2.440 . S
O27 C11 1.266 . S
O28 Tb0 2.325 . S
O28 Tb1 2.658 . S
O28 C18 1.281 . S
O29 Tb1 2.409 . S
O29 C18 1.254 . S
O30 Tb1 2.378 . S
O30 C19 1.236 . S
O31 Tb0 2.341 . S
O31 C19 1.266 . S
H32 C4 0.929 . S
H33 C5 0.931 . S
H34 C7 0.930 . S
H35 C8 0.930 . S
H36 C13 0.929 . S
H37 C14 0.931 . S
H38 C16 0.930 . S
H39 C17 0.930 . S
Tb40 C42 2.809 . S
Tb40 O60 2.484 . S
Tb40 O61 2.440 . S
Tb40 O62 2.658 . S
Tb40 O63 2.409 . S
Tb40 O64 2.378 . S
Tb40 O68 2.325 . S
Tb40 O71 2.341 . S
Tb41 C51 2.809 . S
Tb41 O62 2.325 . S
Tb41 O65 2.341 . S
Tb41 O66 2.484 . S
Tb41 O67 2.440 . S
Tb41 O68 2.658 . S
Tb41 O69 2.409 . S
Tb41 O70 2.378 . S
C42 Tb40 2.809 . S
C42 C43 1.514 . S
C42 O60 1.248 . S
C42 O61 1.266 . S
C43 C42 1.514 . S
C43 C44 1.359 . S
C43 C48 1.348 . S
C44 C43 1.359 . S
C44 C45 1.380 . S
C44 H72 0.929 . S
C45 C44 1.380 . S
C45 C46 1.347 . S
C45 H73 0.931 . S
C46 C45 1.347 . S
C46 C47 1.369 . S
C47 C46 1.369 . S
C47 C48 1.408 . S
C47 H74 0.930 . S
C48 C43 1.348 . S
C48 C47 1.408 . S
C48 H75 0.930 . S
C49 O62 1.281 . S
C49 O63 1.254 . S
C50 O64 1.236 . S
C50 O65 1.266 . S
C51 Tb41 2.809 . S
C51 C52 1.514 . S
C51 O66 1.248 . S
C51 O67 1.266 . S
C52 C51 1.514 . S
C52 C53 1.359 . S
C52 C57 1.348 . S
C53 C52 1.359 . S
C53 C54 1.380 . S
C53 H76 0.929 . S
C54 C53 1.380 . S
C54 C55 1.347 . S
C54 H77 0.931 . S
C55 C54 1.347 . S
C55 C56 1.369 . S
C56 C55 1.369 . S
C56 C57 1.408 . S
C56 H78 0.930 . S
C57 C52 1.348 . S
C57 C56 1.408 . S
C57 H79 0.930 . S
C58 O68 1.281 . S
C58 O69 1.254 . S
C59 O70 1.236 . S
C59 O71 1.266 . S
O60 Tb40 2.484 . S
O60 C42 1.248 . S
O61 Tb40 2.440 . S
O61 C42 1.266 . S
O62 Tb40 2.658 . S
O62 Tb41 2.325 . S
O62 C49 1.281 . S
O63 Tb40 2.409 . S
O63 C49 1.254 . S
O64 Tb40 2.378 . S
O64 C50 1.236 . S
O65 Tb41 2.341 . S
O65 C50 1.266 . S
O66 Tb41 2.484 . S
O66 C51 1.248 . S
O67 Tb41 2.440 . S
O67 C51 1.266 . S
O68 Tb40 2.325 . S
O68 Tb41 2.658 . S
O68 C58 1.281 . S
O69 Tb41 2.409 . S
O69 C58 1.254 . S
O70 Tb41 2.378 . S
O70 C59 1.236 . S
O71 Tb40 2.341 . S
O71 C59 1.266 . S
H72 C44 0.929 . S
H73 C45 0.931 . S
H74 C47 0.930 . S
H75 C48 0.930 . S
H76 C53 0.929 . S
H77 C54 0.931 . S
H78 C56 0.930 . S
H79 C57 0.930 . S
Tb80 C82 2.809 . S
Tb80 O100 2.484 . S
Tb80 O101 2.440 . S
Tb80 O102 2.658 . S
Tb80 O103 2.409 . S
Tb80 O104 2.378 . S
Tb80 O108 2.325 . S
Tb80 O111 2.341 . S
Tb81 C91 2.809 . S
Tb81 O102 2.325 . S
Tb81 O105 2.341 . S
Tb81 O106 2.484 . S
Tb81 O107 2.440 . S
Tb81 O108 2.658 . S
Tb81 O109 2.409 . S
Tb81 O110 2.378 . S
C82 Tb80 2.809 . S
C82 C83 1.514 . S
C82 O100 1.248 . S
C82 O101 1.266 . S
C83 C82 1.514 . S
C83 C84 1.359 . S
C83 C88 1.348 . S
C84 C83 1.359 . S
C84 C85 1.380 . S
C84 H112 0.929 . S
C85 C84 1.380 . S
C85 C86 1.347 . S
C85 H113 0.931 . S
C86 C85 1.347 . S
C86 C87 1.369 . S
C87 C86 1.369 . S
C87 C88 1.408 . S
C87 H114 0.930 . S
C88 C83 1.348 . S
C88 C87 1.408 . S
C88 H115 0.930 . S
C89 O102 1.281 . S
C89 O103 1.254 . S
C90 O104 1.236 . S
C90 O105 1.266 . S
C91 Tb81 2.809 . S
C91 C92 1.514 . S
C91 O106 1.248 . S
C91 O107 1.266 . S
C92 C91 1.514 . S
C92 C93 1.359 . S
C92 C97 1.348 . S
C93 C92 1.359 . S
C93 C94 1.380 . S
C93 H116 0.929 . S
C94 C93 1.380 . S
C94 C95 1.347 . S
C94 H117 0.931 . S
C95 C94 1.347 . S
C95 C96 1.369 . S
C96 C95 1.369 . S
C96 C97 1.408 . S
C96 H118 0.930 . S
C97 C92 1.348 . S
C97 C96 1.408 . S
C97 H119 0.930 . S
C98 O108 1.281 . S
C98 O109 1.254 . S
C99 O110 1.236 . S
C99 O111 1.266 . S
O100 Tb80 2.484 . S
O100 C82 1.248 . S
O101 Tb80 2.440 . S
O101 C82 1.266 . S
O102 Tb80 2.658 . S
O102 Tb81 2.325 . S
O102 C89 1.281 . S
O103 Tb80 2.409 . S
O103 C89 1.254 . S
O104 Tb80 2.378 . S
O104 C90 1.236 . S
O105 Tb81 2.341 . S
O105 C90 1.266 . S
O106 Tb81 2.484 . S
O106 C91 1.248 . S
O107 Tb81 2.440 . S
O107 C91 1.266 . S
O108 Tb80 2.325 . S
O108 Tb81 2.658 . S
O108 C98 1.281 . S
O109 Tb81 2.409 . S
O109 C98 1.254 . S
O110 Tb81 2.378 . S
O110 C99 1.236 . S
O111 Tb80 2.341 . S
O111 C99 1.266 . S
H112 C84 0.929 . S
H113 C85 0.931 . S
H114 C87 0.930 . S
H115 C88 0.930 . S
H116 C93 0.929 . S
H117 C94 0.931 . S
H118 C96 0.930 . S
H119 C97 0.930 . S
Tb120 C122 2.809 . S
Tb120 O140 2.484 . S
Tb120 O141 2.440 . S
Tb120 O142 2.658 . S
Tb120 O143 2.409 . S
Tb120 O144 2.378 . S
Tb120 O148 2.325 . S
Tb120 O151 2.341 . S
Tb121 C131 2.809 . S
Tb121 O142 2.325 . S
Tb121 O145 2.341 . S
Tb121 O146 2.484 . S
Tb121 O147 2.440 . S
Tb121 O148 2.658 . S
Tb121 O149 2.409 . S
Tb121 O150 2.378 . S
C122 Tb120 2.809 . S
C122 C123 1.514 . S
C122 O140 1.248 . S
C122 O141 1.266 . S
C123 C122 1.514 . S
C123 C124 1.359 . S
C123 C128 1.348 . S
C124 C123 1.359 . S
C124 C125 1.380 . S
C124 H152 0.929 . S
C125 C124 1.380 . S
C125 C126 1.347 . S
C125 H153 0.931 . S
C126 C125 1.347 . S
C126 C127 1.369 . S
C127 C126 1.369 . S
C127 C128 1.408 . S
C127 H154 0.930 . S
C128 C123 1.348 . S
C128 C127 1.408 . S
C128 H155 0.930 . S
C129 O142 1.281 . S
C129 O143 1.254 . S
C130 O144 1.236 . S
C130 O145 1.266 . S
C131 Tb121 2.809 . S
C131 C132 1.514 . S
C131 O146 1.248 . S
C131 O147 1.266 . S
C132 C131 1.514 . S
C132 C133 1.359 . S
C132 C137 1.348 . S
C133 C132 1.359 . S
C133 C134 1.380 . S
C133 H156 0.929 . S
C134 C133 1.380 . S
C134 C135 1.347 . S
C134 H157 0.931 . S
C135 C134 1.347 . S
C135 C136 1.369 . S
C136 C135 1.369 . S
C136 C137 1.408 . S
C136 H158 0.930 . S
C137 C132 1.348 . S
C137 C136 1.408 . S
C137 H159 0.930 . S
C138 O148 1.281 . S
C138 O149 1.254 . S
C139 O150 1.236 . S
C139 O151 1.266 . S
O140 Tb120 2.484 . S
O140 C122 1.248 . S
O141 Tb120 2.440 . S
O141 C122 1.266 . S
O142 Tb120 2.658 . S
O142 Tb121 2.325 . S
O142 C129 1.281 . S
O143 Tb120 2.409 . S
O143 C129 1.254 . S
O144 Tb120 2.378 . S
O144 C130 1.236 . S
O145 Tb121 2.341 . S
O145 C130 1.266 . S
O146 Tb121 2.484 . S
O146 C131 1.248 . S
O147 Tb121 2.440 . S
O147 C131 1.266 . S
O148 Tb120 2.325 . S
O148 Tb121 2.658 . S
O148 C138 1.281 . S
O149 Tb121 2.409 . S
O149 C138 1.254 . S
O150 Tb121 2.378 . S
O150 C139 1.236 . S
O151 Tb120 2.341 . S
O151 C139 1.266 . S
H152 C124 0.929 . S
H153 C125 0.931 . S
H154 C127 0.930 . S
H155 C128 0.930 . S
H156 C133 0.929 . S
H157 C134 0.931 . S
H158 C136 0.930 . S
H159 C137 0.930 . S
Tb160 C162 2.809 1_556 S
Tb160 O180 2.484 1_556 S
Tb160 O181 2.440 1_556 S
Tb160 O182 2.658 . S
Tb160 O183 2.409 . S
Tb160 O184 2.378 1_556 S
Tb160 O188 2.325 1_556 S
Tb160 O191 2.341 . S
Tb161 C171 2.809 1_554 S
Tb161 O182 2.325 1_554 S
Tb161 O185 2.341 . S
Tb161 O186 2.484 1_554 S
Tb161 O187 2.440 1_554 S
Tb161 O188 2.658 . S
Tb161 O189 2.409 . S
Tb161 O190 2.378 1_554 S
C162 Tb160 2.809 1_554 S
C162 C163 1.514 . S
C162 O180 1.248 . S
C162 O181 1.266 . S
C163 C162 1.514 . S
C163 C164 1.359 . S
C163 C168 1.348 . S
C164 C163 1.359 . S
C164 C165 1.380 . S
C164 H192 0.929 . S
C165 C164 1.380 . S
C165 C166 1.347 . S
C165 H193 0.931 . S
C166 C165 1.347 . S
C166 C167 1.369 . S
C167 C166 1.369 . S
C167 C168 1.408 . S
C167 H194 0.930 . S
C168 C163 1.348 . S
C168 C167 1.408 . S
C168 H195 0.930 . S
C169 O182 1.281 . S
C169 O183 1.254 . S
C170 O184 1.236 . S
C170 O185 1.266 . S
C171 Tb161 2.809 1_556 S
C171 C172 1.514 . S
C171 O186 1.248 . S
C171 O187 1.266 . S
C172 C171 1.514 . S
C172 C173 1.359 . S
C172 C177 1.348 . S
C173 C172 1.359 . S
C173 C174 1.380 . S
C173 H196 0.929 . S
C174 C173 1.380 . S
C174 C175 1.347 . S
C174 H197 0.931 . S
C175 C174 1.347 . S
C175 C176 1.369 . S
C176 C175 1.369 . S
C176 C177 1.408 . S
C176 H198 0.930 . S
C177 C172 1.348 . S
C177 C176 1.408 . S
C177 H199 0.930 . S
C178 O188 1.281 . S
C178 O189 1.254 . S
C179 O190 1.236 . S
C179 O191 1.266 . S
O180 Tb160 2.484 1_554 S
O180 C162 1.248 . S
O181 Tb160 2.440 1_554 S
O181 C162 1.266 . S
O182 Tb160 2.658 . S
O182 Tb161 2.325 1_556 S
O182 C169 1.281 . S
O183 Tb160 2.409 . S
O183 C169 1.254 . S
O184 Tb160 2.378 1_554 S
O184 C170 1.236 . S
O185 Tb161 2.341 . S
O185 C170 1.266 . S
O186 Tb161 2.484 1_556 S
O186 C171 1.248 . S
O187 Tb161 2.440 1_556 S
O187 C171 1.266 . S
O188 Tb160 2.325 1_554 S
O188 Tb161 2.658 . S
O188 C178 1.281 . S
O189 Tb161 2.409 . S
O189 C178 1.254 . S
O190 Tb161 2.378 1_556 S
O190 C179 1.236 . S
O191 Tb160 2.341 . S
O191 C179 1.266 . S
H192 C164 0.929 . S
H193 C165 0.931 . S
H194 C167 0.930 . S
H195 C168 0.930 . S
H196 C173 0.929 . S
H197 C174 0.931 . S
H198 C176 0.930 . S
H199 C177 0.930 . S
Tb200 C202 2.809 1_556 S
Tb200 O220 2.484 1_556 S
Tb200 O221 2.440 1_556 S
Tb200 O222 2.658 . S
Tb200 O223 2.409 . S
Tb200 O224 2.378 1_556 S
Tb200 O228 2.325 1_556 S
Tb200 O231 2.341 . S
Tb201 C211 2.809 1_554 S
Tb201 O222 2.325 1_554 S
Tb201 O225 2.341 . S
Tb201 O226 2.484 1_554 S
Tb201 O227 2.440 1_554 S
Tb201 O228 2.658 . S
Tb201 O229 2.409 . S
Tb201 O230 2.378 1_554 S
C202 Tb200 2.809 1_554 S
C202 C203 1.514 . S
C202 O220 1.248 . S
C202 O221 1.266 . S
C203 C202 1.514 . S
C203 C204 1.359 . S
C203 C208 1.348 . S
C204 C203 1.359 . S
C204 C205 1.380 . S
C204 H232 0.929 . S
C205 C204 1.380 . S
C205 C206 1.347 . S
C205 H233 0.931 . S
C206 C205 1.347 . S
C206 C207 1.369 . S
C207 C206 1.369 . S
C207 C208 1.408 . S
C207 H234 0.930 . S
C208 C203 1.348 . S
C208 C207 1.408 . S
C208 H235 0.930 . S
C209 O222 1.281 . S
C209 O223 1.254 . S
C210 O224 1.236 . S
C210 O225 1.266 . S
C211 Tb201 2.809 1_556 S
C211 C212 1.514 . S
C211 O226 1.248 . S
C211 O227 1.266 . S
C212 C211 1.514 . S
C212 C213 1.359 . S
C212 C217 1.348 . S
C213 C212 1.359 . S
C213 C214 1.380 . S
C213 H236 0.929 . S
C214 C213 1.380 . S
C214 C215 1.347 . S
C214 H237 0.931 . S
C215 C214 1.347 . S
C215 C216 1.369 . S
C216 C215 1.369 . S
C216 C217 1.408 . S
C216 H238 0.930 . S
C217 C212 1.348 . S
C217 C216 1.408 . S
C217 H239 0.930 . S
C218 O228 1.281 . S
C218 O229 1.254 . S
C219 O230 1.236 . S
C219 O231 1.266 . S
O220 Tb200 2.484 1_554 S
O220 C202 1.248 . S
O221 Tb200 2.440 1_554 S
O221 C202 1.266 . S
O222 Tb200 2.658 . S
O222 Tb201 2.325 1_556 S
O222 C209 1.281 . S
O223 Tb200 2.409 . S
O223 C209 1.254 . S
O224 Tb200 2.378 1_554 S
O224 C210 1.236 . S
O225 Tb201 2.341 . S
O225 C210 1.266 . S
O226 Tb201 2.484 1_556 S
O226 C211 1.248 . S
O227 Tb201 2.440 1_556 S
O227 C211 1.266 . S
O228 Tb200 2.325 1_554 S
O228 Tb201 2.658 . S
O228 C218 1.281 . S
O229 Tb201 2.409 . S
O229 C218 1.254 . S
O230 Tb201 2.378 1_556 S
O230 C219 1.236 . S
O231 Tb200 2.341 . S
O231 C219 1.266 . S
H232 C204 0.929 . S
H233 C205 0.931 . S
H234 C207 0.930 . S
H235 C208 0.930 . S
H236 C213 0.929 . S
H237 C214 0.931 . S
H238 C216 0.930 . S
H239 C217 0.930 . S
Tb240 C242 2.809 1_554 S
Tb240 O260 2.484 1_554 S
Tb240 O261 2.440 1_554 S
Tb240 O262 2.658 . S
Tb240 O263 2.409 . S
Tb240 O264 2.378 1_554 S
Tb240 O268 2.325 1_554 S
Tb240 O271 2.341 . S
Tb241 C251 2.809 1_556 S
Tb241 O262 2.325 1_556 S
Tb241 O265 2.341 . S
Tb241 O266 2.484 1_556 S
Tb241 O267 2.440 1_556 S
Tb241 O268 2.658 . S
Tb241 O269 2.409 . S
Tb241 O270 2.378 1_556 S
C242 Tb240 2.809 1_556 S
C242 C243 1.514 . S
C242 O260 1.248 . S
C242 O261 1.266 . S
C243 C242 1.514 . S
C243 C244 1.359 . S
C243 C248 1.348 . S
C244 C243 1.359 . S
C244 C245 1.380 . S
C244 H272 0.929 . S
C245 C244 1.380 . S
C245 C246 1.347 . S
C245 H273 0.931 . S
C246 C245 1.347 . S
C246 C247 1.369 . S
C247 C246 1.369 . S
C247 C248 1.408 . S
C247 H274 0.930 . S
C248 C243 1.348 . S
C248 C247 1.408 . S
C248 H275 0.930 . S
C249 O262 1.281 . S
C249 O263 1.254 . S
C250 O264 1.236 . S
C250 O265 1.266 . S
C251 Tb241 2.809 1_554 S
C251 C252 1.514 . S
C251 O266 1.248 . S
C251 O267 1.266 . S
C252 C251 1.514 . S
C252 C253 1.359 . S
C252 C257 1.348 . S
C253 C252 1.359 . S
C253 C254 1.380 . S
C253 H276 0.929 . S
C254 C253 1.380 . S
C254 C255 1.347 . S
C254 H277 0.931 . S
C255 C254 1.347 . S
C255 C256 1.369 . S
C256 C255 1.369 . S
C256 C257 1.408 . S
C256 H278 0.930 . S
C257 C252 1.348 . S
C257 C256 1.408 . S
C257 H279 0.930 . S
C258 O268 1.281 . S
C258 O269 1.254 . S
C259 O270 1.236 . S
C259 O271 1.266 . S
O260 Tb240 2.484 1_556 S
O260 C242 1.248 . S
O261 Tb240 2.440 1_556 S
O261 C242 1.266 . S
O262 Tb240 2.658 . S
O262 Tb241 2.325 1_554 S
O262 C249 1.281 . S
O263 Tb240 2.409 . S
O263 C249 1.254 . S
O264 Tb240 2.378 1_556 S
O264 C250 1.236 . S
O265 Tb241 2.341 . S
O265 C250 1.266 . S
O266 Tb241 2.484 1_554 S
O266 C251 1.248 . S
O267 Tb241 2.440 1_554 S
O267 C251 1.266 . S
O268 Tb240 2.325 1_556 S
O268 Tb241 2.658 . S
O268 C258 1.281 . S
O269 Tb241 2.409 . S
O269 C258 1.254 . S
O270 Tb241 2.378 1_554 S
O270 C259 1.236 . S
O271 Tb240 2.341 . S
O271 C259 1.266 . S
H272 C244 0.929 . S
H273 C245 0.931 . S
H274 C247 0.930 . S
H275 C248 0.930 . S
H276 C253 0.929 . S
H277 C254 0.931 . S
H278 C256 0.930 . S
H279 C257 0.930 . S
Tb280 C282 2.809 1_554 S
Tb280 O300 2.484 1_554 S
Tb280 O301 2.440 1_554 S
Tb280 O302 2.658 . S
Tb280 O303 2.409 . S
Tb280 O304 2.378 1_554 S
Tb280 O308 2.325 1_554 S
Tb280 O311 2.341 . S
Tb281 C291 2.809 1_556 S
Tb281 O302 2.325 1_556 S
Tb281 O305 2.341 . S
Tb281 O306 2.484 1_556 S
Tb281 O307 2.440 1_556 S
Tb281 O308 2.658 . S
Tb281 O309 2.409 . S
Tb281 O310 2.378 1_556 S
C282 Tb280 2.809 1_556 S
C282 C283 1.514 . S
C282 O300 1.248 . S
C282 O301 1.266 . S
C283 C282 1.514 . S
C283 C284 1.359 . S
C283 C288 1.348 . S
C284 C283 1.359 . S
C284 C285 1.380 . S
C284 H312 0.929 . S
C285 C284 1.380 . S
C285 C286 1.347 . S
C285 H313 0.931 . S
C286 C285 1.347 . S
C286 C287 1.369 . S
C287 C286 1.369 . S
C287 C288 1.408 . S
C287 H314 0.930 . S
C288 C283 1.348 . S
C288 C287 1.408 . S
C288 H315 0.930 . S
C289 O302 1.281 . S
C289 O303 1.254 . S
C290 O304 1.236 . S
C290 O305 1.266 . S
C291 Tb281 2.809 1_554 S
C291 C292 1.514 . S
C291 O306 1.248 . S
C291 O307 1.266 . S
C292 C291 1.514 . S
C292 C293 1.359 . S
C292 C297 1.348 . S
C293 C292 1.359 . S
C293 C294 1.380 . S
C293 H316 0.929 . S
C294 C293 1.380 . S
C294 C295 1.347 . S
C294 H317 0.931 . S
C295 C294 1.347 . S
C295 C296 1.369 . S
C296 C295 1.369 . S
C296 C297 1.408 . S
C296 H318 0.930 . S
C297 C292 1.348 . S
C297 C296 1.408 . S
C297 H319 0.930 . S
C298 O308 1.281 . S
C298 O309 1.254 . S
C299 O310 1.236 . S
C299 O311 1.266 . S
O300 Tb280 2.484 1_556 S
O300 C282 1.248 . S
O301 Tb280 2.440 1_556 S
O301 C282 1.266 . S
O302 Tb280 2.658 . S
O302 Tb281 2.325 1_554 S
O302 C289 1.281 . S
O303 Tb280 2.409 . S
O303 C289 1.254 . S
O304 Tb280 2.378 1_556 S
O304 C290 1.236 . S
O305 Tb281 2.341 . S
O305 C290 1.266 . S
O306 Tb281 2.484 1_554 S
O306 C291 1.248 . S
O307 Tb281 2.440 1_554 S
O307 C291 1.266 . S
O308 Tb280 2.325 1_556 S
O308 Tb281 2.658 . S
O308 C298 1.281 . S
O309 Tb281 2.409 . S
O309 C298 1.254 . S
O310 Tb281 2.378 1_554 S
O310 C299 1.236 . S
O311 Tb280 2.341 . S
O311 C299 1.266 . S
H312 C284 0.929 . S
H313 C285 0.931 . S
H314 C287 0.930 . S
H315 C288 0.930 . S
H316 C293 0.929 . S
H317 C294 0.931 . S
H318 C296 0.930 . S
H319 C297 0.930 . S
H320 C328 0.929 . S
H321 C330 0.930 . S
H322 C332 0.930 . S
H323 C335 0.929 . S
H324 C338 0.930 . S
H325 C340 0.960 . S
H326 C340 0.960 . S
H327 C340 0.960 . S
C328 H320 0.929 . S
C328 C329 1.377 . S
C328 C330 1.384 . S
C329 C328 1.377 . S
C329 C335 1.390 . S
C330 H321 0.930 . S
C330 C328 1.384 . S
C330 C331 1.372 . S
C331 C330 1.372 . S
C331 C332 1.400 . S
C331 C336 1.490 . S
C332 H322 0.930 . S
C332 C331 1.400 . S
C332 C335 1.386 . S
H333 C349 0.930 . S
H334 C350 0.931 . S
C335 H323 0.929 . S
C335 C329 1.390 . S
C335 C332 1.386 . S
C336 C331 1.490 . S
C336 C338 1.395 . S
C336 C339 1.403 . S
H337 C343 0.930 . S
C338 H324 0.930 . S
C338 C336 1.395 . S
C338 C341 1.403 . S
C339 C336 1.403 . S
C339 C340 1.524 . S
C339 C343 1.400 . S
C340 H325 0.960 . S
C340 H326 0.960 . S
C340 H327 0.960 . S
C340 C339 1.524 . S
C341 C338 1.403 . S
C341 C342 1.392 . S
C341 C345 1.495 . S
C342 C341 1.392 . S
C342 C343 1.385 . S
C342 C344 1.478 . S
C343 H337 0.930 . S
C343 C339 1.400 . S
C343 C342 1.385 . S
C344 C342 1.478 . S
C344 C346 1.381 . S
C344 C350 1.383 . S
C345 C341 1.495 . S
C345 H351 0.959 . S
C345 H352 0.961 . S
C345 H353 0.960 . S
C346 C344 1.381 . S
C346 C347 1.394 . S
C346 H354 0.930 . S
C347 C346 1.394 . S
C347 C348 1.383 . S
C347 H355 0.929 . S
C348 C347 1.383 . S
C348 C349 1.377 . S
C349 H333 0.930 . S
C349 C348 1.377 . S
C349 C350 1.379 . S
C350 H334 0.931 . S
C350 C344 1.383 . S
C350 C349 1.379 . S
H351 C345 0.959 . S
H352 C345 0.961 . S
H353 C345 0.960 . S
H354 C346 0.930 . S
H355 C347 0.929 . S
H356 C364 0.929 . S
H357 C366 0.930 . S
H358 C368 0.930 . S
H359 C371 0.929 . S
H360 C374 0.930 . S
H361 C376 0.960 . S
H362 C376 0.960 . S
H363 C376 0.960 . S
C364 H356 0.929 . S
C364 C365 1.377 . S
C364 C366 1.384 . S
C365 C364 1.377 . S
C365 C371 1.390 . S
C366 H357 0.930 . S
C366 C364 1.384 . S
C366 C367 1.372 . S
C367 C366 1.372 . S
C367 C368 1.400 . S
C367 C372 1.490 . S
C368 H358 0.930 . S
C368 C367 1.400 . S
C368 C371 1.386 . S
H369 C385 0.930 . S
H370 C386 0.931 . S
C371 H359 0.929 . S
C371 C365 1.390 . S
C371 C368 1.386 . S
C372 C367 1.490 . S
C372 C374 1.395 . S
C372 C375 1.403 . S
H373 C379 0.930 . S
C374 H360 0.930 . S
C374 C372 1.395 . S
C374 C377 1.403 . S
C375 C372 1.403 . S
C375 C376 1.524 . S
C375 C379 1.400 . S
C376 H361 0.960 . S
C376 H362 0.960 . S
C376 H363 0.960 . S
C376 C375 1.524 . S
C377 C374 1.403 . S
C377 C378 1.392 . S
C377 C381 1.495 . S
C378 C377 1.392 . S
C378 C379 1.385 . S
C378 C380 1.478 . S
C379 H373 0.930 . S
C379 C375 1.400 . S
C379 C378 1.385 . S
C380 C378 1.478 . S
C380 C382 1.381 . S
C380 C386 1.383 . S
C381 C377 1.495 . S
C381 H387 0.959 . S
C381 H388 0.961 . S
C381 H389 0.960 . S
C382 C380 1.381 . S
C382 C383 1.394 . S
C382 H390 0.930 . S
C383 C382 1.394 . S
C383 C384 1.383 . S
C383 H391 0.929 . S
C384 C383 1.383 . S
C384 C385 1.377 . S
C385 H369 0.930 . S
C385 C384 1.377 . S
C385 C386 1.379 . S
C386 H370 0.931 . S
C386 C380 1.383 . S
C386 C385 1.379 . S
H387 C381 0.959 . S
H388 C381 0.961 . S
H389 C381 0.960 . S
H390 C382 0.930 . S
H391 C383 0.929 . S
H392 C400 0.929 . S
H393 C402 0.930 . S
H394 C404 0.930 . S
H395 C407 0.929 . S
H396 C410 0.930 . S
H397 C412 0.960 . S
H398 C412 0.960 . S
H399 C412 0.960 . S
C400 H392 0.929 . S
C400 C401 1.377 . S
C400 C402 1.384 . S
C401 C400 1.377 . S
C401 C407 1.390 . S
C402 H393 0.930 . S
C402 C400 1.384 . S
C402 C403 1.372 . S
C403 C402 1.372 . S
C403 C404 1.400 . S
C403 C408 1.490 . S
C404 H394 0.930 . S
C404 C403 1.400 . S
C404 C407 1.386 . S
H405 C421 0.930 . S
H406 C422 0.931 . S
C407 H395 0.929 . S
C407 C401 1.390 . S
C407 C404 1.386 . S
C408 C403 1.490 . S
C408 C410 1.395 . S
C408 C411 1.403 . S
H409 C415 0.930 . S
C410 H396 0.930 . S
C410 C408 1.395 . S
C410 C413 1.403 . S
C411 C408 1.403 . S
C411 C412 1.524 . S
C411 C415 1.400 . S
C412 H397 0.960 . S
C412 H398 0.960 . S
C412 H399 0.960 . S
C412 C411 1.524 . S
C413 C410 1.403 . S
C413 C414 1.392 . S
C413 C417 1.495 . S
C414 C413 1.392 . S
C414 C415 1.385 . S
C414 C416 1.478 . S
C415 H409 0.930 . S
C415 C411 1.400 . S
C415 C414 1.385 . S
C416 C414 1.478 . S
C416 C418 1.381 . S
C416 C422 1.383 . S
C417 C413 1.495 . S
C417 H423 0.959 . S
C417 H424 0.961 . S
C417 H425 0.960 . S
C418 C416 1.381 . S
C418 C419 1.394 . S
C418 H426 0.930 . S
C419 C418 1.394 . S
C419 C420 1.383 . S
C419 H427 0.929 . S
C420 C419 1.383 . S
C420 C421 1.377 . S
C421 H405 0.930 . S
C421 C420 1.377 . S
C421 C422 1.379 . S
C422 H406 0.931 . S
C422 C416 1.383 . S
C422 C421 1.379 . S
H423 C417 0.959 . S
H424 C417 0.961 . S
H425 C417 0.960 . S
H426 C418 0.930 . S
H427 C419 0.929 . S
H428 C436 0.929 . S
H429 C438 0.930 . S
H430 C440 0.930 . S
H431 C443 0.929 . S
H432 C446 0.930 . S
H433 C448 0.960 . S
H434 C448 0.960 . S
H435 C448 0.960 . S
C436 H428 0.929 . S
C436 C437 1.377 . S
C436 C438 1.384 . S
C437 C436 1.377 . S
C437 C443 1.390 . S
C438 H429 0.930 . S
C438 C436 1.384 . S
C438 C439 1.372 . S
C439 C438 1.372 . S
C439 C440 1.400 . S
C439 C444 1.490 . S
C440 H430 0.930 . S
C440 C439 1.400 . S
C440 C443 1.386 . S
H441 C457 0.930 . S
H442 C458 0.931 . S
C443 H431 0.929 . S
C443 C437 1.390 . S
C443 C440 1.386 . S
C444 C439 1.490 . S
C444 C446 1.395 . S
C444 C447 1.403 . S
H445 C451 0.930 . S
C446 H432 0.930 . S
C446 C444 1.395 . S
C446 C449 1.403 . S
C447 C444 1.403 . S
C447 C448 1.524 . S
C447 C451 1.400 . S
C448 H433 0.960 . S
C448 H434 0.960 . S
C448 H435 0.960 . S
C448 C447 1.524 . S
C449 C446 1.403 . S
C449 C450 1.392 . S
C449 C453 1.495 . S
C450 C449 1.392 . S
C450 C451 1.385 . S
C450 C452 1.478 . S
C451 H445 0.930 . S
C451 C447 1.400 . S
C451 C450 1.385 . S
C452 C450 1.478 . S
C452 C454 1.381 . S
C452 C458 1.383 . S
C453 C449 1.495 . S
C453 H459 0.959 . S
C453 H460 0.961 . S
C453 H461 0.960 . S
C454 C452 1.381 . S
C454 C455 1.394 . S
C454 H462 0.930 . S
C455 C454 1.394 . S
C455 C456 1.383 . S
C455 H463 0.929 . S
C456 C455 1.383 . S
C456 C457 1.377 . S
C457 H441 0.930 . S
C457 C456 1.377 . S
C457 C458 1.379 . S
C458 H442 0.931 . S
C458 C452 1.383 . S
C458 C457 1.379 . S
H459 C453 0.959 . S
H460 C453 0.961 . S
H461 C453 0.960 . S
H462 C454 0.930 . S
H463 C455 0.929 . S
H464 C472 0.929 . S
H465 C474 0.930 . S
H466 C476 0.930 . S
H467 C479 0.929 . S
H468 C482 0.930 . S
H469 C484 0.960 . S
H470 C484 0.960 . S
H471 C484 0.960 . S
C472 H464 0.929 . S
C472 C473 1.377 . S
C472 C474 1.384 . S
C473 C472 1.377 . S
C473 C479 1.390 . S
C474 H465 0.930 . S
C474 C472 1.384 . S
C474 C475 1.372 . S
C475 C474 1.372 . S
C475 C476 1.400 . S
C475 C480 1.490 . S
C476 H466 0.930 . S
C476 C475 1.400 . S
C476 C479 1.386 . S
H477 C493 0.930 . S
H478 C494 0.931 . S
C479 H467 0.929 . S
C479 C473 1.390 . S
C479 C476 1.386 . S
C480 C475 1.490 . S
C480 C482 1.395 . S
C480 C483 1.403 . S
H481 C487 0.930 . S
C482 H468 0.930 . S
C482 C480 1.395 . S
C482 C485 1.403 1_565 S
C483 C480 1.403 . S
C483 C484 1.524 . S
C483 C487 1.400 1_565 S
C484 H469 0.960 . S
C484 H470 0.960 . S
C484 H471 0.960 . S
C484 C483 1.524 . S
C485 C482 1.403 1_545 S
C485 C486 1.392 . S
C485 C489 1.495 . S
C486 C485 1.392 . S
C486 C487 1.385 . S
C486 C488 1.478 . S
C487 H481 0.930 . S
C487 C483 1.400 1_545 S
C487 C486 1.385 . S
C488 C486 1.478 . S
C488 C490 1.381 . S
C488 C494 1.383 . S
C489 C485 1.495 . S
C489 H495 0.959 . S
C489 H496 0.961 . S
C489 H497 0.960 . S
C490 C488 1.381 . S
C490 C491 1.394 . S
C490 H498 0.930 . S
C491 C490 1.394 . S
C491 C492 1.383 . S
C491 H499 0.929 . S
C492 C491 1.383 . S
C492 C493 1.377 . S
C493 H477 0.930 . S
C493 C492 1.377 . S
C493 C494 1.379 . S
C494 H478 0.931 . S
C494 C488 1.383 . S
C494 C493 1.379 . S
H495 C489 0.959 . S
H496 C489 0.961 . S
H497 C489 0.960 . S
H498 C490 0.930 . S
H499 C491 0.929 . S
H500 C508 0.929 . S
H501 C510 0.930 . S
H502 C512 0.930 . S
H503 C515 0.929 . S
H504 C518 0.930 . S
H505 C520 0.960 . S
H506 C520 0.960 . S
H507 C520 0.960 . S
C508 H500 0.929 . S
C508 C509 1.377 . S
C508 C510 1.384 . S
C509 C508 1.377 . S
C509 C515 1.390 . S
C510 H501 0.930 . S
C510 C508 1.384 . S
C510 C511 1.372 . S
C511 C510 1.372 . S
C511 C512 1.400 . S
C511 C516 1.490 . S
C512 H502 0.930 . S
C512 C511 1.400 . S
C512 C515 1.386 . S
H513 C529 0.930 . S
H514 C530 0.931 . S
C515 H503 0.929 . S
C515 C509 1.390 . S
C515 C512 1.386 . S
C516 C511 1.490 . S
C516 C518 1.395 . S
C516 C519 1.403 . S
H517 C523 0.930 . S
C518 H504 0.930 . S
C518 C516 1.395 . S
C518 C521 1.403 . S
C519 C516 1.403 . S
C519 C520 1.524 . S
C519 C523 1.400 . S
C520 H505 0.960 . S
C520 H506 0.960 . S
C520 H507 0.960 . S
C520 C519 1.524 . S
C521 C518 1.403 . S
C521 C522 1.392 . S
C521 C525 1.495 . S
C522 C521 1.392 . S
C522 C523 1.385 . S
C522 C524 1.478 . S
C523 H517 0.930 . S
C523 C519 1.400 . S
C523 C522 1.385 . S
C524 C522 1.478 . S
C524 C526 1.381 . S
C524 C530 1.383 . S
C525 C521 1.495 . S
C525 H531 0.959 . S
C525 H532 0.961 . S
C525 H533 0.960 . S
C526 C524 1.381 . S
C526 C527 1.394 . S
C526 H534 0.930 . S
C527 C526 1.394 . S
C527 C528 1.383 . S
C527 H535 0.929 . S
C528 C527 1.383 . S
C528 C529 1.377 . S
C529 H513 0.930 . S
C529 C528 1.377 . S
C529 C530 1.379 . S
C530 H514 0.931 . S
C530 C524 1.383 . S
C530 C529 1.379 . S
H531 C525 0.959 . S
H532 C525 0.961 . S
H533 C525 0.960 . S
H534 C526 0.930 . S
H535 C527 0.929 . S
H536 C544 0.929 . S
H537 C546 0.930 . S
H538 C548 0.930 . S
H539 C551 0.929 . S
H540 C554 0.930 . S
H541 C556 0.960 . S
H542 C556 0.960 . S
H543 C556 0.960 . S
C544 H536 0.929 . S
C544 C545 1.377 . S
C544 C546 1.384 . S
C545 C544 1.377 . S
C545 C551 1.390 . S
C546 H537 0.930 . S
C546 C544 1.384 . S
C546 C547 1.372 . S
C547 C546 1.372 . S
C547 C548 1.400 . S
C547 C552 1.490 . S
C548 H538 0.930 . S
C548 C547 1.400 . S
C548 C551 1.386 . S
H549 C565 0.930 . S
H550 C566 0.931 . S
C551 H539 0.929 . S
C551 C545 1.390 . S
C551 C548 1.386 . S
C552 C547 1.490 . S
C552 C554 1.395 . S
C552 C555 1.403 . S
H553 C559 0.930 . S
C554 H540 0.930 . S
C554 C552 1.395 . S
C554 C557 1.403 1_565 S
C555 C552 1.403 . S
C555 C556 1.524 . S
C555 C559 1.400 1_565 S
C556 H541 0.960 . S
C556 H542 0.960 . S
C556 H543 0.960 . S
C556 C555 1.524 . S
C557 C554 1.403 1_545 S
C557 C558 1.392 . S
C557 C561 1.495 . S
C558 C557 1.392 . S
C558 C559 1.385 . S
C558 C560 1.478 . S
C559 H553 0.930 . S
C559 C555 1.400 1_545 S
C559 C558 1.385 . S
C560 C558 1.478 . S
C560 C562 1.381 . S
C560 C566 1.383 . S
C561 C557 1.495 . S
C561 H567 0.959 . S
C561 H568 0.961 . S
C561 H569 0.960 . S
C562 C560 1.381 . S
C562 C563 1.394 . S
C562 H570 0.930 . S
C563 C562 1.394 . S
C563 C564 1.383 . S
C563 H571 0.929 . S
C564 C563 1.383 . S
C564 C565 1.377 . S
C565 H549 0.930 . S
C565 C564 1.377 . S
C565 C566 1.379 . S
C566 H550 0.931 . S
C566 C560 1.383 . S
C566 C565 1.379 . S
H567 C561 0.959 . S
H568 C561 0.961 . S
H569 C561 0.960 . S
H570 C562 0.930 . S
H571 C563 0.929 . S
H572 C580 0.929 . S
H573 C582 0.930 . S
H574 C584 0.930 . S
H575 C587 0.929 . S
H576 C590 0.930 . S
H577 C592 0.960 . S
H578 C592 0.960 . S
H579 C592 0.960 . S
C580 H572 0.929 . S
C580 C581 1.377 . S
C580 C582 1.384 . S
C581 C580 1.377 . S
C581 C587 1.390 . S
C582 H573 0.930 . S
C582 C580 1.384 . S
C582 C583 1.372 . S
C583 C582 1.372 . S
C583 C584 1.400 . S
C583 C588 1.490 . S
C584 H574 0.930 . S
C584 C583 1.400 . S
C584 C587 1.386 . S
H585 C601 0.930 . S
H586 C602 0.931 . S
C587 H575 0.929 . S
C587 C581 1.390 . S
C587 C584 1.386 . S
C588 C583 1.490 . S
C588 C590 1.395 . S
C588 C591 1.403 . S
H589 C595 0.930 . S
C590 H576 0.930 . S
C590 C588 1.395 . S
C590 C593 1.403 . S
C591 C588 1.403 . S
C591 C592 1.524 . S
C591 C595 1.400 . S
C592 H577 0.960 . S
C592 H578 0.960 . S
C592 H579 0.960 . S
C592 C591 1.524 . S
C593 C590 1.403 . S
C593 C594 1.392 . S
C593 C597 1.495 . S
C594 C593 1.392 . S
C594 C595 1.385 . S
C594 C596 1.478 . S
C595 H589 0.930 . S
C595 C591 1.400 . S
C595 C594 1.385 . S
C596 C594 1.478 . S
C596 C598 1.381 . S
C596 C602 1.383 . S
C597 C593 1.495 . S
C597 H603 0.959 . S
C597 H604 0.961 . S
C597 H605 0.960 . S
C598 C596 1.381 . S
C598 C599 1.394 . S
C598 H606 0.930 . S
C599 C598 1.394 . S
C599 C600 1.383 . S
C599 H607 0.929 . S
C600 C599 1.383 . S
C600 C601 1.377 . S
C601 H585 0.930 . S
C601 C600 1.377 . S
C601 C602 1.379 . S
C602 H586 0.931 . S
C602 C596 1.383 . S
C602 C601 1.379 . S
H603 C597 0.959 . S
H604 C597 0.961 . S
H605 C597 0.960 . S
H606 C598 0.930 . S
H607 C599 0.929 . S
H608 C616 0.929 . S
H609 C618 0.930 . S
H610 C620 0.930 . S
H611 C623 0.929 . S
H612 C626 0.930 . S
H613 C628 0.960 . S
H614 C628 0.960 . S
H615 C628 0.960 . S
C616 H608 0.929 . S
C616 C617 1.377 . S
C616 C618 1.384 . S
C617 C616 1.377 . S
C617 C623 1.390 1_554 S
C618 H609 0.930 . S
C618 C616 1.384 . S
C618 C619 1.372 . S
C619 C618 1.372 . S
C619 C620 1.400 1_554 S
C619 C624 1.490 . S
C620 H610 0.930 . S
C620 C619 1.400 1_556 S
C620 C623 1.386 . S
H621 C637 0.930 . S
H622 C638 0.931 . S
C623 H611 0.929 . S
C623 C617 1.390 1_556 S
C623 C620 1.386 . S
C624 C619 1.490 . S
C624 C626 1.395 . S
C624 C627 1.403 1_554 S
H625 C631 0.930 . S
C626 H612 0.930 . S
C626 C624 1.395 . S
C626 C629 1.403 . S
C627 C624 1.403 1_556 S
C627 C628 1.524 . S
C627 C631 1.400 . S
C628 H613 0.960 . S
C628 H614 0.960 . S
C628 H615 0.960 . S
C628 C627 1.524 . S
C629 C626 1.403 . S
C629 C630 1.392 . S
C629 C633 1.495 . S
C630 C629 1.392 . S
C630 C631 1.385 1_554 S
C630 C632 1.478 . S
C631 H625 0.930 . S
C631 C627 1.400 . S
C631 C630 1.385 1_556 S
C632 C630 1.478 . S
C632 C634 1.381 . S
C632 C638 1.383 1_554 S
C633 C629 1.495 . S
C633 H639 0.959 . S
C633 H640 0.961 . S
C633 H641 0.960 . S
C634 C632 1.381 . S
C634 C635 1.394 . S
C634 H642 0.930 . S
C635 C634 1.394 . S
C635 C636 1.383 . S
C635 H643 0.929 . S
C636 C635 1.383 . S
C636 C637 1.377 1_554 S
C637 H621 0.930 . S
C637 C636 1.377 1_556 S
C637 C638 1.379 . S
C638 H622 0.931 . S
C638 C632 1.383 1_556 S
C638 C637 1.379 . S
H639 C633 0.959 . S
H640 C633 0.961 . S
H641 C633 0.960 . S
H642 C634 0.930 . S
H643 C635 0.929 . S
H644 C652 0.929 . S
H645 C654 0.930 . S
H646 C656 0.930 . S
H647 C659 0.929 . S
H648 C662 0.930 . S
H649 C664 0.960 . S
H650 C664 0.960 . S
H651 C664 0.960 . S
C652 H644 0.929 . S
C652 C653 1.369 1_556 S
C652 C654 1.384 . S
C653 C652 1.369 1_554 S
C653 C659 1.398 . S
C654 H645 0.930 . S
C654 C652 1.384 . S
C654 C655 1.372 . S
C655 C654 1.372 . S
C655 C656 1.400 1_556 S
C655 C660 1.490 . S
C656 H646 0.930 . S
C656 C655 1.400 1_554 S
C656 C659 1.386 . S
H657 C673 0.930 . S
H658 C674 0.931 . S
C659 H647 0.929 . S
C659 C653 1.398 . S
C659 C656 1.386 . S
C660 C655 1.490 . S
C660 C662 1.395 . S
C660 C663 1.403 1_556 S
H661 C667 0.930 . S
C662 H648 0.930 . S
C662 C660 1.395 . S
C662 C665 1.403 1_565 S
C663 C660 1.403 1_554 S
C663 C664 1.524 . S
C663 C667 1.400 1_565 S
C664 H649 0.960 . S
C664 H650 0.960 . S
C664 H651 0.960 . S
C664 C663 1.524 . S
C665 C662 1.403 1_545 S
C665 C666 1.392 . S
C665 C669 1.495 . S
C666 C665 1.392 . S
C666 C667 1.385 1_556 S
C666 C668 1.478 . S
C667 H661 0.930 . S
C667 C663 1.400 1_545 S
C667 C666 1.385 1_554 S
C668 C666 1.478 . S
C668 C670 1.381 . S
C668 C674 1.383 1_556 S
C669 C665 1.495 . S
C669 H675 0.959 . S
C669 H676 0.961 . S
C669 H677 0.960 . S
C670 C668 1.381 . S
C670 C671 1.394 . S
C670 H678 0.930 . S
C671 C670 1.394 . S
C671 C672 1.383 . S
C671 H679 0.929 . S
C672 C671 1.383 . S
C672 C673 1.377 1_556 S
C673 H657 0.930 . S
C673 C672 1.377 1_554 S
C673 C674 1.379 . S
C674 H658 0.931 . S
C674 C668 1.383 1_554 S
C674 C673 1.379 . S
H675 C669 0.959 . S
H676 C669 0.961 . S
H677 C669 0.960 . S
H678 C670 0.930 . S
H679 C671 0.929 . S
H680 C688 0.929 . S
H681 C690 0.930 . S
H682 C692 0.930 . S
H683 C695 0.929 . S
H684 C698 0.930 . S
H685 C700 0.960 . S
H686 C700 0.960 . S
H687 C700 0.960 1_556 S
C688 H680 0.929 . S
C688 C689 1.377 . S
C688 C690 1.384 . S
C689 C688 1.377 . S
C689 C695 1.390 1_554 S
C690 H681 0.930 . S
C690 C688 1.384 . S
C690 C691 1.372 . S
C691 C690 1.372 . S
C691 C692 1.400 1_554 S
C691 C696 1.490 . S
C692 H682 0.930 . S
C692 C691 1.400 1_556 S
C692 C695 1.386 . S
H693 C709 0.930 . S
H694 C710 0.931 . S
C695 H683 0.929 . S
C695 C689 1.390 1_556 S
C695 C692 1.386 . S
C696 C691 1.490 . S
C696 C698 1.395 . S
C696 C699 1.403 . S
H697 C703 0.930 . S
C698 H684 0.930 . S
C698 C696 1.395 . S
C698 C701 1.404 . S
C699 C696 1.403 . S
C699 C700 1.524 . S
C699 C703 1.400 . S
C700 H685 0.960 . S
C700 H686 0.960 . S
C700 H687 0.960 1_554 S
C700 C699 1.524 . S
C701 C698 1.404 . S
C701 C702 1.392 . S
C701 C705 1.495 1_554 S
C702 C701 1.392 . S
C702 C703 1.385 . S
C702 C704 1.477 1_554 S
C703 H697 0.930 . S
C703 C699 1.400 . S
C703 C702 1.385 . S
C704 C702 1.477 1_556 S
C704 C706 1.373 1_556 S
C704 C710 1.391 . S
C705 C701 1.495 1_556 S
C705 H711 0.959 . S
C705 H712 0.961 . S
C705 H713 0.960 1_556 S
C706 C704 1.373 1_554 S
C706 C707 1.394 . S
C706 H714 0.930 . S
C707 C706 1.394 . S
C707 C708 1.383 1_554 S
C707 H715 0.929 . S
C708 C707 1.383 1_556 S
C708 C709 1.377 . S
C709 H693 0.930 . S
C709 C708 1.377 . S
C709 C710 1.379 . S
C710 H694 0.931 . S
C710 C704 1.391 . S
C710 C709 1.379 . S
H711 C705 0.959 . S
H712 C705 0.961 . S
H713 C705 0.960 1_554 S
H714 C706 0.930 . S
H715 C707 0.929 . S
H716 C724 0.929 . S
H717 C726 0.930 . S
H718 C728 0.930 . S
H719 C731 0.929 . S
H720 C734 0.930 . S
H721 C736 0.960 . S
H722 C736 0.960 . S
H723 C736 0.960 . S
C724 H716 0.929 . S
C724 C725 1.377 . S
C724 C726 1.384 . S
C725 C724 1.377 . S
C725 C731 1.390 1_554 S
C726 H717 0.930 . S
C726 C724 1.384 . S
C726 C727 1.372 . S
C727 C726 1.372 . S
C727 C728 1.400 1_554 S
C727 C732 1.490 . S
C728 H718 0.930 . S
C728 C727 1.400 1_556 S
C728 C731 1.386 . S
H729 C745 0.930 . S
H730 C746 0.931 . S
C731 H719 0.929 . S
C731 C725 1.390 1_556 S
C731 C728 1.386 . S
C732 C727 1.490 . S
C732 C734 1.395 . S
C732 C735 1.403 1_554 S
H733 C739 0.930 . S
C734 H720 0.930 . S
C734 C732 1.395 . S
C734 C737 1.403 1_545 S
C735 C732 1.403 1_556 S
C735 C736 1.524 . S
C735 C739 1.400 1_545 S
C736 H721 0.960 . S
C736 H722 0.960 . S
C736 H723 0.960 . S
C736 C735 1.524 . S
C737 C734 1.403 1_565 S
C737 C738 1.392 . S
C737 C741 1.495 . S
C738 C737 1.392 . S
C738 C739 1.385 1_554 S
C738 C740 1.478 . S
C739 H733 0.930 . S
C739 C735 1.400 1_565 S
C739 C738 1.385 1_556 S
C740 C738 1.478 . S
C740 C742 1.381 . S
C740 C746 1.383 1_554 S
C741 C737 1.495 . S
C741 H747 0.959 . S
C741 H748 0.961 . S
C741 H749 0.960 . S
C742 C740 1.381 . S
C742 C743 1.394 . S
C742 H750 0.930 . S
C743 C742 1.394 . S
C743 C744 1.383 . S
C743 H751 0.929 . S
C744 C743 1.383 . S
C744 C745 1.377 1_554 S
C745 H729 0.930 . S
C745 C744 1.377 1_556 S
C745 C746 1.379 . S
C746 H730 0.931 . S
C746 C740 1.383 1_556 S
C746 C745 1.379 . S
H747 C741 0.959 . S
H748 C741 0.961 . S
H749 C741 0.960 . S
H750 C742 0.930 . S
H751 C743 0.929 . S
H752 C760 0.929 . S
H753 C762 0.930 . S
H754 C764 0.930 . S
H755 C767 0.929 . S
H756 C770 0.930 1_554 S
H757 C772 0.960 . S
H758 C772 0.960 1_554 S
H759 C772 0.960 1_554 S
C760 H752 0.929 . S
C760 C761 1.377 . S
C760 C762 1.384 . S
C761 C760 1.377 . S
C761 C767 1.390 . S
C762 H753 0.930 . S
C762 C760 1.384 . S
C762 C763 1.372 . S
C763 C762 1.372 . S
C763 C764 1.400 . S
C763 C768 1.490 . S
C764 H754 0.930 . S
C764 C763 1.400 . S
C764 C767 1.386 . S
H765 C781 0.930 . S
H766 C782 0.931 . S
C767 H755 0.929 . S
C767 C761 1.390 . S
C767 C764 1.386 . S
C768 C763 1.490 . S
C768 C770 1.395 1_554 S
C768 C771 1.403 1_554 S
H769 C775 0.930 . S
C770 H756 0.930 1_556 S
C770 C768 1.395 1_556 S
C770 C773 1.403 . S
C771 C768 1.403 1_556 S
C771 C772 1.524 . S
C771 C775 1.400 . S
C772 H757 0.960 . S
C772 H758 0.960 1_556 S
C772 H759 0.960 1_556 S
C772 C771 1.524 . S
C773 C770 1.403 . S
C773 C774 1.392 . S
C773 C777 1.495 . S
C774 C773 1.392 . S
C774 C775 1.385 . S
C774 C776 1.478 . S
C775 H769 0.930 . S
C775 C771 1.400 . S
C775 C774 1.385 . S
C776 C774 1.478 . S
C776 C778 1.381 . S
C776 C782 1.383 . S
C777 C773 1.495 . S
C777 H783 0.959 . S
C777 H784 0.961 . S
C777 H785 0.960 . S
C778 C776 1.381 . S
C778 C779 1.394 . S
C778 H786 0.930 . S
C779 C778 1.394 . S
C779 C780 1.383 . S
C779 H787 0.929 . S
C780 C779 1.383 . S
C780 C781 1.377 . S
C781 H765 0.930 . S
C781 C780 1.377 . S
C781 C782 1.379 . S
C782 H766 0.931 . S
C782 C776 1.383 . S
C782 C781 1.379 . S
H783 C777 0.959 . S
H784 C777 0.961 . S
H785 C777 0.960 . S
H786 C778 0.930 . S
H787 C779 0.929 . S
H788 C796 0.929 . S
H789 C798 0.930 . S
H790 C800 0.930 . S
H791 C803 0.929 . S
H792 C806 0.930 1_554 S
H793 C808 0.960 1_556 S
H794 C808 0.960 . S
H795 C808 0.960 . S
C796 H788 0.929 . S
C796 C797 1.377 . S
C796 C798 1.384 . S
C797 C796 1.377 . S
C797 C803 1.390 . S
C798 H789 0.930 . S
C798 C796 1.384 . S
C798 C799 1.372 . S
C799 C798 1.372 . S
C799 C800 1.400 . S
C799 C804 1.490 . S
C800 H790 0.930 . S
C800 C799 1.400 . S
C800 C803 1.386 . S
H801 C817 0.930 . S
H802 C818 0.931 . S
C803 H791 0.929 . S
C803 C797 1.390 . S
C803 C800 1.386 . S
C804 C799 1.490 . S
C804 C806 1.395 1_554 S
C804 C807 1.403 1_554 S
H805 C811 0.930 . S
C806 H792 0.930 1_556 S
C806 C804 1.395 1_556 S
C806 C809 1.403 . S
C807 C804 1.403 1_556 S
C807 C808 1.524 1_556 S
C807 C811 1.400 . S
C808 H793 0.960 1_554 S
C808 H794 0.960 . S
C808 H795 0.960 . S
C808 C807 1.524 1_554 S
C809 C806 1.403 . S
C809 C810 1.392 . S
C809 C813 1.495 . S
C810 C809 1.392 . S
C810 C811 1.385 . S
C810 C812 1.478 . S
C811 H805 0.930 . S
C811 C807 1.400 . S
C811 C810 1.385 . S
C812 C810 1.478 . S
C812 C814 1.381 . S
C812 C818 1.383 . S
C813 C809 1.495 . S
C813 H819 0.959 . S
C813 H820 0.961 . S
C813 H821 0.960 . S
C814 C812 1.381 . S
C814 C815 1.394 . S
C814 H822 0.930 . S
C815 C814 1.394 . S
C815 C816 1.383 . S
C815 H823 0.929 . S
C816 C815 1.383 . S
C816 C817 1.377 . S
C817 H801 0.930 . S
C817 C816 1.377 . S
C817 C818 1.379 . S
C818 H802 0.931 . S
C818 C812 1.383 . S
C818 C817 1.379 . S
H819 C813 0.959 . S
H820 C813 0.961 . S
H821 C813 0.960 . S
H822 C814 0.930 . S
H823 C815 0.929 . S
H824 C832 0.929 . S
H825 C834 0.930 . S
H826 C836 0.930 . S
H827 C839 0.929 . S
H828 C842 0.930 . S
H829 C844 0.960 . S
H830 C844 0.960 . S
H831 C844 0.960 . S
C832 H824 0.929 . S
C832 C833 1.377 . S
C832 C834 1.384 . S
C833 C832 1.377 . S
C833 C839 1.390 . S
C834 H825 0.930 . S
C834 C832 1.384 . S
C834 C835 1.372 . S
C835 C834 1.372 . S
C835 C836 1.400 . S
C835 C840 1.490 . S
C836 H826 0.930 . S
C836 C835 1.400 . S
C836 C839 1.386 . S
H837 C853 0.930 . S
H838 C854 0.931 . S
C839 H827 0.929 . S
C839 C833 1.390 . S
C839 C836 1.386 . S
C840 C835 1.490 . S
C840 C842 1.395 . S
C840 C843 1.403 . S
H841 C847 0.930 1_556 S
C842 H828 0.930 . S
C842 C840 1.395 . S
C842 C845 1.403 . S
C843 C840 1.403 . S
C843 C844 1.524 . S
C843 C847 1.400 . S
C844 H829 0.960 . S
C844 H830 0.960 . S
C844 H831 0.960 . S
C844 C843 1.524 . S
C845 C842 1.403 . S
C845 C846 1.392 1_554 S
C845 C849 1.495 1_554 S
C846 C845 1.392 1_556 S
C846 C847 1.385 1_556 S
C846 C848 1.478 . S
C847 H841 0.930 1_554 S
C847 C843 1.400 . S
C847 C846 1.385 1_554 S
C848 C846 1.478 . S
C848 C850 1.381 . S
C848 C854 1.383 . S
C849 C845 1.495 1_556 S
C849 H855 0.959 1_556 S
C849 H856 0.961 . S
C849 H857 0.960 . S
C850 C848 1.381 . S
C850 C851 1.394 . S
C850 H858 0.930 . S
C851 C850 1.394 . S
C851 C852 1.383 . S
C851 H859 0.929 . S
C852 C851 1.383 . S
C852 C853 1.377 . S
C853 H837 0.930 . S
C853 C852 1.377 . S
C853 C854 1.379 . S
C854 H838 0.931 . S
C854 C848 1.383 . S
C854 C853 1.379 . S
H855 C849 0.959 1_554 S
H856 C849 0.961 . S
H857 C849 0.960 . S
H858 C850 0.930 . S
H859 C851 0.929 . S
H860 C868 0.929 . S
H861 C870 0.930 . S
H862 C872 0.930 . S
H863 C875 0.929 . S
H864 C878 0.930 . S
H865 C880 0.960 1_554 S
H866 C880 0.960 . S
H867 C880 0.960 . S
C868 H860 0.929 . S
C868 C869 1.377 . S
C868 C870 1.384 . S
C869 C868 1.377 . S
C869 C875 1.390 . S
C870 H861 0.930 . S
C870 C868 1.384 . S
C870 C871 1.372 . S
C871 C870 1.372 . S
C871 C872 1.400 . S
C871 C876 1.490 . S
C872 H862 0.930 . S
C872 C871 1.400 . S
C872 C875 1.386 . S
H873 C889 0.930 . S
H874 C890 0.931 . S
C875 H863 0.929 . S
C875 C869 1.390 . S
C875 C872 1.386 . S
C876 C871 1.490 . S
C876 C878 1.395 1_556 S
C876 C879 1.403 1_556 S
H877 C883 0.930 . S
C878 H864 0.930 . S
C878 C876 1.395 1_554 S
C878 C881 1.403 . S
C879 C876 1.403 1_554 S
C879 C880 1.524 1_554 S
C879 C883 1.400 . S
C880 H865 0.960 1_556 S
C880 H866 0.960 . S
C880 H867 0.960 . S
C880 C879 1.524 1_556 S
C881 C878 1.403 . S
C881 C882 1.392 . S
C881 C885 1.495 . S
C882 C881 1.392 . S
C882 C883 1.385 . S
C882 C884 1.478 . S
C883 H877 0.930 . S
C883 C879 1.400 . S
C883 C882 1.385 . S
C884 C882 1.478 . S
C884 C886 1.381 . S
C884 C890 1.383 . S
C885 C881 1.495 . S
C885 H891 0.959 . S
C885 H892 0.961 . S
C885 H893 0.960 . S
C886 C884 1.381 . S
C886 C887 1.394 . S
C886 H894 0.930 . S
C887 C886 1.394 . S
C887 C888 1.383 . S
C887 H895 0.929 . S
C888 C887 1.383 . S
C888 C889 1.377 . S
C889 H873 0.930 . S
C889 C888 1.377 . S
C889 C890 1.379 . S
C890 H874 0.931 . S
C890 C884 1.383 . S
C890 C889 1.379 . S
H891 C885 0.959 . S
H892 C885 0.961 . S
H893 C885 0.960 . S
H894 C886 0.930 . S
H895 C887 0.929 . S
H896 C904 0.929 . S
H897 C906 0.930 . S
H898 C908 0.930 . S
H899 C911 0.929 . S
H900 C914 0.930 . S
H901 C916 0.960 . S
H902 C916 0.960 . S
H903 C916 0.960 . S
C904 H896 0.929 . S
C904 C905 1.377 . S
C904 C906 1.384 . S
C905 C904 1.377 . S
C905 C911 1.390 . S
C906 H897 0.930 . S
C906 C904 1.384 . S
C906 C907 1.372 . S
C907 C906 1.372 . S
C907 C908 1.400 . S
C907 C912 1.490 . S
C908 H898 0.930 . S
C908 C907 1.400 . S
C908 C911 1.386 . S
H909 C925 0.930 . S
H910 C926 0.931 . S
C911 H899 0.929 . S
C911 C905 1.390 . S
C911 C908 1.386 . S
C912 C907 1.490 . S
C912 C914 1.395 . S
C912 C915 1.403 . S
H913 C919 0.930 . S
C914 H900 0.930 . S
C914 C912 1.395 . S
C914 C917 1.403 . S
C915 C912 1.403 . S
C915 C916 1.524 . S
C915 C919 1.400 . S
C916 H901 0.960 . S
C916 H902 0.960 . S
C916 H903 0.960 . S
C916 C915 1.524 . S
C917 C914 1.403 . S
C917 C918 1.392 . S
C917 C921 1.495 . S
C918 C917 1.392 . S
C918 C919 1.385 . S
C918 C920 1.478 . S
C919 H913 0.930 . S
C919 C915 1.400 . S
C919 C918 1.385 . S
C920 C918 1.478 . S
C920 C922 1.381 . S
C920 C926 1.383 . S
C921 C917 1.495 . S
C921 H927 0.959 . S
C921 H928 0.961 . S
C921 H929 0.960 . S
C922 C920 1.381 . S
C922 C923 1.394 . S
C922 H930 0.930 . S
C923 C922 1.394 . S
C923 C924 1.383 . S
C923 H931 0.929 . S
C924 C923 1.383 . S
C924 C925 1.377 . S
C925 H909 0.930 . S
C925 C924 1.377 . S
C925 C926 1.379 . S
C926 H910 0.931 . S
C926 C920 1.383 . S
C926 C925 1.379 . S
H927 C921 0.959 . S
H928 C921 0.961 . S
H929 C921 0.960 . S
H930 C922 0.930 . S
H931 C923 0.929 . S
H932 C940 0.929 . S
H933 C942 0.930 . S
H934 C944 0.930 . S
H935 C947 0.929 . S
H936 C950 0.930 . S
H937 C952 0.960 . S
H938 C952 0.960 . S
H939 C952 0.960 . S
C940 H932 0.929 . S
C940 C941 1.377 . S
C940 C942 1.384 . S
C941 C940 1.377 . S
C941 C947 1.390 . S
C942 H933 0.930 . S
C942 C940 1.384 . S
C942 C943 1.372 . S
C943 C942 1.372 . S
C943 C944 1.400 . S
C943 C948 1.490 . S
C944 H934 0.930 . S
C944 C943 1.400 . S
C944 C947 1.386 . S
H945 C961 0.930 . S
H946 C962 0.931 . S
C947 H935 0.929 . S
C947 C941 1.390 . S
C947 C944 1.386 . S
C948 C943 1.490 . S
C948 C950 1.395 . S
C948 C951 1.403 . S
H949 C955 0.930 . S
C950 H936 0.930 . S
C950 C948 1.395 . S
C950 C953 1.403 . S
C951 C948 1.403 . S
C951 C952 1.524 . S
C951 C955 1.400 . S
C952 H937 0.960 . S
C952 H938 0.960 . S
C952 H939 0.960 . S
C952 C951 1.524 . S
C953 C950 1.403 . S
C953 C954 1.392 . S
C953 C957 1.495 . S
C954 C953 1.392 . S
C954 C955 1.385 . S
C954 C956 1.478 . S
C955 H949 0.930 . S
C955 C951 1.400 . S
C955 C954 1.385 . S
C956 C954 1.478 . S
C956 C958 1.381 . S
C956 C962 1.383 . S
C957 C953 1.495 . S
C957 H963 0.959 . S
C957 H964 0.961 . S
C957 H965 0.960 . S
C958 C956 1.381 . S
C958 C959 1.394 . S
C958 H966 0.930 . S
C959 C958 1.394 . S
C959 C960 1.383 . S
C959 H967 0.929 . S
C960 C959 1.383 . S
C960 C961 1.377 . S
C961 H945 0.930 . S
C961 C960 1.377 . S
C961 C962 1.379 . S
C962 H946 0.931 . S
C962 C956 1.383 . S
C962 C961 1.379 . S
H963 C957 0.959 . S
H964 C957 0.961 . S
H965 C957 0.960 . S
H966 C958 0.930 . S
H967 C959 0.929 . S
H968 C976 0.929 . S
H969 C978 0.930 . S
H970 C980 0.930 . S
H971 C983 0.929 . S
H972 C986 0.930 . S
H973 C988 0.960 . S
H974 C988 0.960 . S
H975 C988 0.960 . S
C976 H968 0.929 . S
C976 C977 1.377 . S
C976 C978 1.384 . S
C977 C976 1.377 . S
C977 C983 1.390 . S
C978 H969 0.930 . S
C978 C976 1.384 . S
C978 C979 1.372 . S
C979 C978 1.372 . S
C979 C980 1.400 . S
C979 C984 1.490 . S
C980 H970 0.930 . S
C980 C979 1.400 . S
C980 C983 1.386 . S
H981 C997 0.930 . S
H982 C998 0.931 . S
C983 H971 0.929 . S
C983 C977 1.390 . S
C983 C980 1.386 . S
C984 C979 1.490 . S
C984 C986 1.395 . S
C984 C987 1.403 . S
H985 C991 0.930 . S
C986 H972 0.930 . S
C986 C984 1.395 . S
C986 C989 1.403 . S
C987 C984 1.403 . S
C987 C988 1.524 . S
C987 C991 1.400 . S
C988 H973 0.960 . S
C988 H974 0.960 . S
C988 H975 0.960 . S
C988 C987 1.524 . S
C989 C986 1.403 . S
C989 C990 1.392 . S
C989 C993 1.495 . S
C990 C989 1.392 . S
C990 C991 1.385 . S
C990 C992 1.478 . S
C991 H985 0.930 . S
C991 C987 1.400 . S
C991 C990 1.385 . S
C992 C990 1.478 . S
C992 C994 1.381 . S
C992 C998 1.383 . S
C993 C989 1.495 . S
C993 H999 0.959 . S
C993 H1000 0.961 . S
C993 H1001 0.960 . S
C994 C992 1.381 . S
C994 C995 1.394 . S
C994 H1002 0.930 . S
C995 C994 1.394 . S
C995 C996 1.383 . S
C995 H1003 0.929 . S
C996 C995 1.383 . S
C996 C997 1.377 . S
C997 H981 0.930 . S
C997 C996 1.377 . S
C997 C998 1.379 . S
C998 H982 0.931 . S
C998 C992 1.383 . S
C998 C997 1.379 . S
H999 C993 0.959 . S
H1000 C993 0.961 . S
H1001 C993 0.960 . S
H1002 C994 0.930 . S
H1003 C995 0.929 . S
H1004 C1012 0.929 . S
H1005 C1014 0.930 . S
H1006 C1016 0.930 . S
H1007 C1019 0.929 . S
H1008 C1022 0.930 . S
H1009 C1024 0.960 . S
H1010 C1024 0.960 . S
H1011 C1024 0.960 . S
C1012 H1004 0.929 . S
C1012 C1013 1.377 . S
C1012 C1014 1.384 . S
C1013 C1012 1.377 . S
C1013 C1019 1.390 . S
C1014 H1005 0.930 . S
C1014 C1012 1.384 . S
C1014 C1015 1.372 . S
C1015 C1014 1.372 . S
C1015 C1016 1.400 . S
C1015 C1020 1.490 . S
C1016 H1006 0.930 . S
C1016 C1015 1.400 . S
C1016 C1019 1.386 . S
H1017 C1033 0.930 . S
H1018 C1034 0.931 . S
C1019 H1007 0.929 . S
C1019 C1013 1.390 . S
C1019 C1016 1.386 . S
C1020 C1015 1.490 . S
C1020 C1022 1.395 . S
C1020 C1023 1.403 . S
H1021 C1027 0.930 . S
C1022 H1008 0.930 . S
C1022 C1020 1.395 . S
C1022 C1025 1.403 . S
C1023 C1020 1.403 . S
C1023 C1024 1.524 . S
C1023 C1027 1.400 . S
C1024 H1009 0.960 . S
C1024 H1010 0.960 . S
C1024 H1011 0.960 . S
C1024 C1023 1.524 . S
C1025 C1022 1.403 . S
C1025 C1026 1.392 . S
C1025 C1029 1.495 . S
C1026 C1025 1.392 . S
C1026 C1027 1.385 . S
C1026 C1028 1.478 . S
C1027 H1021 0.930 . S
C1027 C1023 1.400 . S
C1027 C1026 1.385 . S
C1028 C1026 1.478 . S
C1028 C1030 1.381 . S
C1028 C1034 1.383 . S
C1029 C1025 1.495 . S
C1029 H1035 0.959 . S
C1029 H1036 0.961 . S
C1029 H1037 0.960 . S
C1030 C1028 1.381 . S
C1030 C1031 1.394 . S
C1030 H1038 0.930 . S
C1031 C1030 1.394 . S
C1031 C1032 1.383 . S
C1031 H1039 0.929 . S
C1032 C1031 1.383 . S
C1032 C1033 1.377 . S
C1033 H1017 0.930 . S
C1033 C1032 1.377 . S
C1033 C1034 1.379 . S
C1034 H1018 0.931 . S
C1034 C1028 1.383 . S
C1034 C1033 1.379 . S
H1035 C1029 0.959 . S
H1036 C1029 0.961 . S
H1037 C1029 0.960 . S
H1038 C1030 0.930 . S
H1039 C1031 0.929 . S
H1040 C1048 0.929 . S
H1041 C1050 0.930 . S
H1042 C1052 0.930 . S
H1043 C1055 0.929 . S
H1044 C1058 0.930 . S
H1045 C1060 0.960 . S
H1046 C1060 0.960 . S
H1047 C1060 0.960 . S
C1048 H1040 0.929 . S
C1048 C1049 1.377 . S
C1048 C1050 1.384 . S
C1049 C1048 1.377 . S
C1049 C1055 1.390 . S
C1050 H1041 0.930 . S
C1050 C1048 1.384 . S
C1050 C1051 1.372 . S
C1051 C1050 1.372 . S
C1051 C1052 1.400 . S
C1051 C1056 1.490 . S
C1052 H1042 0.930 . S
C1052 C1051 1.400 . S
C1052 C1055 1.386 . S
H1053 C1069 0.930 . S
H1054 C1070 0.931 . S
C1055 H1043 0.929 . S
C1055 C1049 1.390 . S
C1055 C1052 1.386 . S
C1056 C1051 1.490 . S
C1056 C1058 1.395 . S
C1056 C1059 1.403 . S
H1057 C1063 0.930 . S
C1058 H1044 0.930 . S
C1058 C1056 1.395 . S
C1058 C1061 1.403 1_455 S
C1059 C1056 1.403 . S
C1059 C1060 1.524 . S
C1059 C1063 1.400 1_455 S
C1060 H1045 0.960 . S
C1060 H1046 0.960 . S
C1060 H1047 0.960 . S
C1060 C1059 1.524 . S
C1061 C1058 1.403 1_655 S
C1061 C1062 1.392 . S
C1061 C1065 1.495 . S
C1062 C1061 1.392 . S
C1062 C1063 1.385 . S
C1062 C1064 1.478 . S
C1063 H1057 0.930 . S
C1063 C1059 1.400 1_655 S
C1063 C1062 1.385 . S
C1064 C1062 1.478 . S
C1064 C1066 1.381 . S
C1064 C1070 1.383 . S
C1065 C1061 1.495 . S
C1065 H1071 0.959 . S
C1065 H1072 0.961 . S
C1065 H1073 0.960 . S
C1066 C1064 1.381 . S
C1066 C1067 1.394 . S
C1066 H1074 0.930 . S
C1067 C1066 1.394 . S
C1067 C1068 1.383 . S
C1067 H1075 0.929 . S
C1068 C1067 1.383 . S
C1068 C1069 1.377 . S
C1069 H1053 0.930 . S
C1069 C1068 1.377 . S
C1069 C1070 1.379 . S
C1070 H1054 0.931 . S
C1070 C1064 1.383 . S
C1070 C1069 1.379 . S
H1071 C1065 0.959 . S
H1072 C1065 0.961 . S
H1073 C1065 0.960 . S
H1074 C1066 0.930 . S
H1075 C1067 0.929 . S
H1076 C1084 0.929 . S
H1077 C1086 0.930 . S
H1078 C1088 0.930 . S
H1079 C1091 0.929 . S
H1080 C1094 0.930 . S
H1081 C1096 0.960 . S
H1082 C1096 0.960 . S
H1083 C1096 0.960 . S
C1084 H1076 0.929 . S
C1084 C1085 1.377 . S
C1084 C1086 1.384 . S
C1085 C1084 1.377 . S
C1085 C1091 1.390 . S
C1086 H1077 0.930 . S
C1086 C1084 1.384 . S
C1086 C1087 1.372 . S
C1087 C1086 1.372 . S
C1087 C1088 1.400 . S
C1087 C1092 1.490 . S
C1088 H1078 0.930 . S
C1088 C1087 1.400 . S
C1088 C1091 1.386 . S
H1089 C1105 0.930 . S
H1090 C1106 0.931 . S
C1091 H1079 0.929 . S
C1091 C1085 1.390 . S
C1091 C1088 1.386 . S
C1092 C1087 1.490 . S
C1092 C1094 1.395 . S
C1092 C1095 1.403 . S
H1093 C1099 0.930 . S
C1094 H1080 0.930 . S
C1094 C1092 1.395 . S
C1094 C1097 1.403 1_655 S
C1095 C1092 1.403 . S
C1095 C1096 1.524 . S
C1095 C1099 1.400 1_655 S
C1096 H1081 0.960 . S
C1096 H1082 0.960 . S
C1096 H1083 0.960 . S
C1096 C1095 1.524 . S
C1097 C1094 1.403 1_455 S
C1097 C1098 1.392 . S
C1097 C1101 1.495 . S
C1098 C1097 1.392 . S
C1098 C1099 1.385 . S
C1098 C1100 1.478 . S
C1099 H1093 0.930 . S
C1099 C1095 1.400 1_455 S
C1099 C1098 1.385 . S
C1100 C1098 1.478 . S
C1100 C1102 1.381 . S
C1100 C1106 1.383 . S
C1101 C1097 1.495 . S
C1101 H1107 0.959 . S
C1101 H1108 0.961 . S
C1101 H1109 0.960 . S
C1102 C1100 1.381 . S
C1102 C1103 1.394 . S
C1102 H1110 0.930 . S
C1103 C1102 1.394 . S
C1103 C1104 1.383 . S
C1103 H1111 0.929 . S
C1104 C1103 1.383 . S
C1104 C1105 1.377 . S
C1105 H1089 0.930 . S
C1105 C1104 1.377 . S
C1105 C1106 1.379 . S
C1106 H1090 0.931 . S
C1106 C1100 1.383 . S
C1106 C1105 1.379 . S
H1107 C1101 0.959 . S
H1108 C1101 0.961 . S
H1109 C1101 0.960 . S
H1110 C1102 0.930 . S
H1111 C1103 0.929 . S
H1112 C1120 0.929 . S
H1113 C1122 0.930 . S
H1114 C1124 0.930 . S
H1115 C1127 0.929 . S
H1116 C1130 0.930 . S
H1117 C1132 0.960 . S
H1118 C1132 0.960 . S
H1119 C1132 0.960 . S
C1120 H1112 0.929 . S
C1120 C1121 1.377 . S
C1120 C1122 1.384 . S
C1121 C1120 1.377 . S
C1121 C1127 1.390 . S
C1122 H1113 0.930 . S
C1122 C1120 1.384 . S
C1122 C1123 1.372 . S
C1123 C1122 1.372 . S
C1123 C1124 1.400 . S
C1123 C1128 1.490 . S
C1124 H1114 0.930 . S
C1124 C1123 1.400 . S
C1124 C1127 1.386 . S
H1125 C1141 0.930 . S
H1126 C1142 0.931 . S
C1127 H1115 0.929 . S
C1127 C1121 1.390 . S
C1127 C1124 1.386 . S
C1128 C1123 1.490 . S
C1128 C1130 1.395 . S
C1128 C1131 1.403 . S
H1129 C1135 0.930 . S
C1130 H1116 0.930 . S
C1130 C1128 1.395 . S
C1130 C1133 1.403 . S
C1131 C1128 1.403 . S
C1131 C1132 1.524 . S
C1131 C1135 1.400 . S
C1132 H1117 0.960 . S
C1132 H1118 0.960 . S
C1132 H1119 0.960 . S
C1132 C1131 1.524 . S
C1133 C1130 1.403 . S
C1133 C1134 1.392 . S
C1133 C1137 1.495 . S
C1134 C1133 1.392 . S
C1134 C1135 1.385 . S
C1134 C1136 1.478 . S
C1135 H1129 0.930 . S
C1135 C1131 1.400 . S
C1135 C1134 1.385 . S
C1136 C1134 1.478 . S
C1136 C1138 1.381 . S
C1136 C1142 1.383 . S
C1137 C1133 1.495 . S
C1137 H1143 0.959 . S
C1137 H1144 0.961 . S
C1137 H1145 0.960 . S
C1138 C1136 1.381 . S
C1138 C1139 1.394 . S
C1138 H1146 0.930 . S
C1139 C1138 1.394 . S
C1139 C1140 1.383 . S
C1139 H1147 0.929 . S
C1140 C1139 1.383 . S
C1140 C1141 1.377 . S
C1141 H1125 0.930 . S
C1141 C1140 1.377 . S
C1141 C1142 1.379 . S
C1142 H1126 0.931 . S
C1142 C1136 1.383 . S
C1142 C1141 1.379 . S
H1143 C1137 0.959 . S
H1144 C1137 0.961 . S
H1145 C1137 0.960 . S
H1146 C1138 0.930 . S
H1147 C1139 0.929 . S
H1148 C1156 0.929 . S
H1149 C1158 0.930 . S
H1150 C1160 0.930 . S
H1151 C1163 0.929 . S
H1152 C1166 0.930 . S
H1153 C1168 0.960 . S
H1154 C1168 0.960 . S
H1155 C1168 0.960 . S
C1156 H1148 0.929 . S
C1156 C1157 1.377 . S
C1156 C1158 1.384 . S
C1157 C1156 1.377 . S
C1157 C1163 1.390 . S
C1158 H1149 0.930 . S
C1158 C1156 1.384 . S
C1158 C1159 1.372 . S
C1159 C1158 1.372 . S
C1159 C1160 1.400 . S
C1159 C1164 1.490 . S
C1160 H1150 0.930 . S
C1160 C1159 1.400 . S
C1160 C1163 1.386 . S
H1161 C1177 0.930 . S
H1162 C1178 0.931 . S
C1163 H1151 0.929 . S
C1163 C1157 1.390 . S
C1163 C1160 1.386 . S
C1164 C1159 1.490 . S
C1164 C1166 1.395 . S
C1164 C1167 1.403 . S
H1165 C1171 0.930 . S
C1166 H1152 0.930 . S
C1166 C1164 1.395 . S
C1166 C1169 1.403 . S
C1167 C1164 1.403 . S
C1167 C1168 1.524 . S
C1167 C1171 1.400 . S
C1168 H1153 0.960 . S
C1168 H1154 0.960 . S
C1168 H1155 0.960 . S
C1168 C1167 1.524 . S
C1169 C1166 1.403 . S
C1169 C1170 1.392 . S
C1169 C1173 1.495 . S
C1170 C1169 1.392 . S
C1170 C1171 1.385 . S
C1170 C1172 1.478 . S
C1171 H1165 0.930 . S
C1171 C1167 1.400 . S
C1171 C1170 1.385 . S
C1172 C1170 1.478 . S
C1172 C1174 1.381 . S
C1172 C1178 1.383 . S
C1173 C1169 1.495 . S
C1173 H1179 0.959 . S
C1173 H1180 0.961 . S
C1173 H1181 0.960 . S
C1174 C1172 1.381 . S
C1174 C1175 1.394 . S
C1174 H1182 0.930 . S
C1175 C1174 1.394 . S
C1175 C1176 1.383 . S
C1175 H1183 0.929 . S
C1176 C1175 1.383 . S
C1176 C1177 1.377 . S
C1177 H1161 0.930 . S
C1177 C1176 1.377 . S
C1177 C1178 1.379 . S
C1178 H1162 0.931 . S
C1178 C1172 1.383 . S
C1178 C1177 1.379 . S
H1179 C1173 0.959 . S
H1180 C1173 0.961 . S
H1181 C1173 0.960 . S
H1182 C1174 0.930 . S
H1183 C1175 0.929 . S
C329 C6 1.727 . S
C348 C286 1.715 . S
C365 C246 1.724 . S
C384 C46 1.719 . S
C401 C206 1.724 . S
C420 C86 1.719 . S
C437 C166 1.727 . S
C456 C126 1.715 . S
C473 C89 1.856 . S
C492 C9 1.875 . S
C509 C49 1.862 . S
C528 C129 1.857 . S
C545 C138 1.209 . S
C564 C58 1.208 . S
C581 C98 1.203 . S
C600 C18 1.238 . S
C617 C169 1.757 1_554 S
C636 C249 1.774 . S
C653 C209 1.763 1_554 S
C672 C289 1.752 1_556 S
C689 C298 1.115 1_554 S
C708 C218 1.076 1_556 S
C725 C258 1.118 1_554 S
C744 C178 1.073 . S
C761 C19 2.093 . S
C780 C10 2.104 . S
C797 C59 2.089 . S
C816 C50 2.076 . S
C833 C90 2.093 . S
C852 C99 2.076 . S
C869 C139 2.090 . S
C888 C130 2.073 . S
C905 C170 2.090 . S
C924 C179 2.092 . S
C941 C219 2.092 . S
C960 C210 2.101 . S
C977 C259 2.091 . S
C996 C250 2.098 . S
C1013 C299 2.089 . S
C1032 C290 2.073 . S
C1049 C15 2.410 . S
C1068 C55 2.394 . S
C1085 C135 2.409 . S
C1104 C95 2.389 . S
C1121 C175 2.409 . S
C1140 C215 2.410 . S
C1157 C295 2.408 . S
C1176 C255 2.414 . S
