# Generated by pormake.
# Topology wme, (6)-cn, num edge types: 1
# Building blocks:
#     Node 0, Type 0, BuildingBlock: PAMTOO_clean_sbu_0, # of connection points: 6
#     Node 1, Type 0, BuildingBlock: PAMTOO_clean_sbu_0, # of connection points: 6
#     Node 2, Type 0, BuildingBlock: PAMTOO_clean_sbu_0, # of connection points: 6
#     Node 3, Type 0, BuildingBlock: PAMTOO_clean_sbu_0, # of connection points: 6
#     Node 4, Type 0, BuildingBlock: PAMTOO_clean_sbu_0, # of connection points: 6
#     Node 5, Type 0, BuildingBlock: PAMTOO_clean_sbu_0, # of connection points: 6
#     Node 6, Type 0, BuildingBlock: PAMTOO_clean_sbu_0, # of connection points: 6
#     Node 7, Type 0, BuildingBlock: PAMTOO_clean_sbu_0, # of connection points: 6
#     Node 8, Type 0, BuildingBlock: PAMTOO_clean_sbu_0, # of connection points: 6
#     Node 9, Type 0, BuildingBlock: PAMTOO_clean_sbu_0, # of connection points: 6
#     Node 10, Type 0, BuildingBlock: PAMTOO_clean_sbu_0, # of connection points: 6
#     Node 11, Type 0, BuildingBlock: PAMTOO_clean_sbu_0, # of connection points: 6
#     Edge 12, Type (0, 0), BuildingBlock: XUDNAN_clean_linker_2, # of connection points: 2
#     Edge 13, Type (0, 0), BuildingBlock: XUDNAN_clean_linker_2, # of connection points: 2
#     Edge 14, Type (0, 0), BuildingBlock: XUDNAN_clean_linker_2, # of connection points: 2
#     Edge 15, Type (0, 0), BuildingBlock: XUDNAN_clean_linker_2, # of connection points: 2
#     Edge 16, Type (0, 0), BuildingBlock: XUDNAN_clean_linker_2, # of connection points: 2
#     Edge 17, Type (0, 0), BuildingBlock: XUDNAN_clean_linker_2, # of connection points: 2
#     Edge 18, Type (0, 0), BuildingBlock: XUDNAN_clean_linker_2, # of connection points: 2
#     Edge 19, Type (0, 0), BuildingBlock: XUDNAN_clean_linker_2, # of connection points: 2
#     Edge 20, Type (0, 0), BuildingBlock: XUDNAN_clean_linker_2, # of connection points: 2
#     Edge 21, Type (0, 0), BuildingBlock: XUDNAN_clean_linker_2, # of connection points: 2
#     Edge 22, Type (0, 0), BuildingBlock: XUDNAN_clean_linker_2, # of connection points: 2
#     Edge 23, Type (0, 0), BuildingBlock: XUDNAN_clean_linker_2, # of connection points: 2
#     Edge 24, Type (0, 0), BuildingBlock: XUDNAN_clean_linker_2, # of connection points: 2
#     Edge 25, Type (0, 0), BuildingBlock: XUDNAN_clean_linker_2, # of connection points: 2
#     Edge 26, Type (0, 0), BuildingBlock: XUDNAN_clean_linker_2, # of connection points: 2
#     Edge 27, Type (0, 0), BuildingBlock: XUDNAN_clean_linker_2, # of connection points: 2
#     Edge 28, Type (0, 0), BuildingBlock: XUDNAN_clean_linker_2, # of connection points: 2
#     Edge 29, Type (0, 0), BuildingBlock: XUDNAN_clean_linker_2, # of connection points: 2
#     Edge 30, Type (0, 0), BuildingBlock: XUDNAN_clean_linker_2, # of connection points: 2
#     Edge 31, Type (0, 0), BuildingBlock: XUDNAN_clean_linker_2, # of connection points: 2
#     Edge 32, Type (0, 0), BuildingBlock: XUDNAN_clean_linker_2, # of connection points: 2
#     Edge 33, Type (0, 0), BuildingBlock: XUDNAN_clean_linker_2, # of connection points: 2
#     Edge 34, Type (0, 0), BuildingBlock: XUDNAN_clean_linker_2, # of connection points: 2
#     Edge 35, Type (0, 0), BuildingBlock: XUDNAN_clean_linker_2, # of connection points: 2
#     Edge 36, Type (0, 0), BuildingBlock: XUDNAN_clean_linker_2, # of connection points: 2
#     Edge 37, Type (0, 0), BuildingBlock: XUDNAN_clean_linker_2, # of connection points: 2
#     Edge 38, Type (0, 0), BuildingBlock: XUDNAN_clean_linker_2, # of connection points: 2
#     Edge 39, Type (0, 0), BuildingBlock: XUDNAN_clean_linker_2, # of connection points: 2
#     Edge 40, Type (0, 0), BuildingBlock: XUDNAN_clean_linker_2, # of connection points: 2
#     Edge 41, Type (0, 0), BuildingBlock: XUDNAN_clean_linker_2, # of connection points: 2
#     Edge 42, Type (0, 0), BuildingBlock: XUDNAN_clean_linker_2, # of connection points: 2
#     Edge 43, Type (0, 0), BuildingBlock: XUDNAN_clean_linker_2, # of connection points: 2
#     Edge 44, Type (0, 0), BuildingBlock: XUDNAN_clean_linker_2, # of connection points: 2
#     Edge 45, Type (0, 0), BuildingBlock: XUDNAN_clean_linker_2, # of connection points: 2
#     Edge 46, Type (0, 0), BuildingBlock: XUDNAN_clean_linker_2, # of connection points: 2
#     Edge 47, Type (0, 0), BuildingBlock: XUDNAN_clean_linker_2, # of connection points: 2
# Relax obj value: 0.088
# Max RMSD: 0.202
# Mean RMSD: 0.202
data_MOF--net-wme--node1-PAMTOO_clean_sbu_0--edge1-XUDNAN_clean_linker_2
_symmetry_space_group_name_H-M    P1
_symmetry_Int_Tables_number       1
_symmetry_cell_setting            triclinic
loop_
_symmetry_equiv_pos_as_xyz
'x, y, z'
_cell_length_a     40.220293
_cell_length_b     40.172795
_cell_length_c     53.126738
_cell_angle_alpha  89.971848
_cell_angle_beta   90.000501
_cell_angle_gamma 119.97404
loop_
_atom_site_label
_atom_site_type_symbol
_atom_site_fract_x
_atom_site_fract_y
_atom_site_fract_z
_atom_type_partial_charge
Dy0 Dy 0.24974 0.31578 0.13663 0.0
Dy1 Dy 0.21333 0.36654 0.11229 0.0
C2 C 0.22863 0.30906 0.07992 0.0
O3 O 0.29917 0.3695 0.12044 0.0
O4 O 0.27356 0.40924 0.12263 0.0
O5 O 0.28431 0.28923 0.12994 0.0
O6 O 0.25571 0.28166 0.16584 0.0
O7 O 0.21041 0.37002 0.15454 0.0
O8 O 0.25935 0.35898 0.16594 0.0
O9 O 0.16488 0.30578 0.11442 0.0
O10 O 0.18767 0.28584 0.14723 0.0
O11 O 0.16523 0.37599 0.10781 0.0
O12 O 0.21868 0.41288 0.08854 0.0
C13 C 0.30324 0.40416 0.12044 0.0
O14 O 0.22088 0.28936 0.10072 0.0
O15 O 0.23408 0.3442 0.08034 0.0
C16 C 0.25721 0.22787 0.14853 0.0
C17 C 0.22511 0.14805 0.13966 0.0
C18 C 0.20197 0.16311 0.14785 0.0
C19 C 0.21776 0.20254 0.15207 0.0
C20 C 0.28055 0.21298 0.14083 0.0
C21 C 0.26471 0.17353 0.13641 0.0
C22 C 0.27368 0.26991 0.15099 0.0
C23 C 0.23533 0.37116 0.17116 0.0
C24 C 0.1592 0.28177 0.13294 0.0
C25 C 0.18004 0.44034 0.10072 0.0
C26 C 0.16874 0.50312 0.11181 0.0
C27 C 0.20601 0.50881 0.10871 0.0
C28 C 0.21164 0.47774 0.10329 0.0
C29 C 0.14291 0.43482 0.10358 0.0
C30 C 0.13732 0.4657 0.10911 0.0
C31 C 0.18453 0.40683 0.0942 0.0
H32 H 0.17152 0.14446 0.151 0.0
H33 H 0.19896 0.21322 0.15776 0.0
H34 H 0.31096 0.23202 0.13769 0.0
H35 H 0.28341 0.16323 0.12977 0.0
H36 H 0.23086 0.5372 0.11081 0.0
H37 H 0.24066 0.48305 0.10111 0.0
H38 H 0.11802 0.40646 0.10138 0.0
H39 H 0.1082 0.46028 0.1109 0.0
Dy40 Dy 0.93991 0.22951 0.62585 0.0
Dy41 Dy 0.84964 0.19268 0.60691 0.0
C42 C 0.91963 0.2159 0.5697 0.0
O43 O 0.93284 0.27928 0.61389 0.0
O44 O 0.86734 0.25294 0.61778 0.0
O45 O 0.99992 0.26703 0.61761 0.0
O46 O 0.9832 0.23147 0.6511 0.0
O47 O 0.84831 0.19207 0.64928 0.0
O48 O 0.91056 0.23942 0.65801 0.0
O49 O 0.86437 0.14562 0.60572 0.0
O50 O 0.90814 0.1682 0.63763 0.0
O51 O 0.79265 0.14295 0.60443 0.0
O52 O 0.80514 0.19596 0.58594 0.0
C53 C 0.90202 0.28288 0.61538 0.0
O54 O 0.93299 0.20401 0.58781 0.0
O55 O 0.88962 0.21981 0.57399 0.0
C56 C 0.03889 0.24097 0.62972 0.0
C57 C 0.0926 0.21742 0.61766 0.0
C58 C 0.06381 0.21219 0.60039 0.0
C59 C 0.03717 0.22371 0.60638 0.0
C60 C 0.06723 0.24584 0.6471 0.0
C61 C 0.09378 0.23413 0.64117 0.0
C62 C 1.01135 0.25385 0.63616 0.0
C63 C 0.87466 0.21682 0.66484 0.0
C64 C 0.88311 0.13965 0.6238 0.0
C65 C 0.74032 0.15379 0.59884 0.0
C66 C 0.66513 0.13763 0.61136 0.0
C67 C 0.6711 0.11119 0.59754 0.0
C68 C 0.70818 0.11919 0.59139 0.0
C69 C 0.73477 0.18046 0.61264 0.0
C70 C 0.69749 0.17249 0.61878 0.0
C71 C 0.77885 0.16092 0.59156 0.0
H72 H 0.06173 0.19897 0.58226 0.0
H73 H 1.01532 0.21925 0.59272 0.0
H74 H 0.069 0.25899 0.66522 0.0
H75 H 0.11577 0.23896 0.6548 0.0
H76 H 0.64703 0.08441 0.59106 0.0
H77 H 0.71175 0.09828 0.58062 0.0
H78 H 0.75916 0.20736 0.61867 0.0
H79 H 0.69402 0.1934 0.6296 0.0
Dy80 Dy 0.71942 0.93381 0.12539 0.0
Dy81 Dy 0.66718 0.84419 0.10479 0.0
C82 C 0.71403 0.9158 0.06872 0.0
O83 O 0.66288 0.92669 0.11292 0.0
O84 O 0.62426 0.86111 0.11643 0.0
O85 O 0.74744 0.99439 0.11612 0.0
O86 O 0.75204 0.97619 0.15368 0.0
O87 O 0.6628 0.83946 0.14688 0.0
O88 O 0.68232 0.90228 0.158 0.0
O89 O 0.72906 0.85851 0.10425 0.0
O90 O 0.75211 0.90439 0.13509 0.0
O91 O 0.6592 0.78718 0.10123 0.0
O92 O 0.62052 0.80143 0.082 0.0
C93 C 0.62861 0.89569 0.11423 0.0
O94 O 0.73897 0.92917 0.08702 0.0
O95 O 0.68026 0.88546 0.0727 0.0
C96 C 0.80626 0.03082 0.13744 0.0
C97 C 0.88649 0.08052 0.13865 0.0
C98 C 0.87093 0.04055 0.13645 0.0
C99 C 0.83119 0.01595 0.13574 0.0
C100 C 0.82157 0.07067 0.13911 0.0
C101 C 0.86138 0.09537 0.13962 0.0
C102 C 0.76441 1.00488 0.13795 0.0
C103 C 0.66699 0.86561 0.16353 0.0
C104 C 0.75507 0.87887 0.12136 0.0
C105 C 0.59494 0.73606 0.09504 0.0
C106 C 0.53507 0.65976 0.10406 0.0
C107 C 0.53096 0.68267 0.08568 0.0
C108 C 0.56064 0.72031 0.08114 0.0
C109 C 0.59852 0.71356 0.11399 0.0
C110 C 0.56897 0.67592 0.11843 0.0
C111 C 0.62779 0.77423 0.08806 0.0
H112 H 0.8895 0.02827 0.1353 0.0
H113 H 0.8199 0.98526 0.13417 0.0
H114 H 0.80273 0.08265 0.14036 0.0
H115 H 0.87249 0.12599 0.14149 0.0
H116 H 0.50539 0.67104 0.07412 0.0
H117 H 0.55717 0.73674 0.06624 0.0
H118 H 0.62453 0.72463 0.12506 0.0
H119 H 0.57286 0.65928 0.13298 0.0
Dy120 Dy 0.79119 0.70063 0.62356 0.0
Dy121 Dy 0.83335 0.65232 0.6045 0.0
C122 C 0.79858 0.68755 0.56731 0.0
O123 O 0.74754 0.6394 0.63162 0.0
O124 O 0.77035 0.60973 0.60517 0.0
O125 O 0.7595 0.72849 0.61258 0.0
O126 O 0.77515 0.72933 0.6516 0.0
O127 O 0.81986 0.63839 0.64528 0.0
O128 O 0.82219 0.69467 0.65648 0.0
O129 O 0.88001 0.71004 0.61712 0.0
O130 O 0.84976 0.74467 0.61022 0.0
O131 O 0.88168 0.64318 0.60574 0.0
O132 O 0.83505 0.61006 0.57984 0.0
C133 C 0.74319 0.60882 0.61954 0.0
O134 O 0.77288 0.67798 0.58496 0.0
O135 O 0.83012 0.68669 0.57216 0.0
C136 C 0.77583 0.78509 0.6358 0.0
C137 C 0.80338 0.86503 0.63851 0.0
C138 C 0.80135 0.84744 0.61526 0.0
C139 C 0.78783 0.80793 0.61391 0.0
C140 C 0.77721 0.80255 0.65895 0.0
C141 C 0.79096 0.8421 0.66032 0.0
C142 C 0.76177 0.74326 0.63477 0.0
C143 C 0.82317 0.66343 0.66242 0.0
C144 C 0.88122 0.74303 0.61389 0.0
C145 C 0.86977 0.5803 0.59586 0.0
C146 C 0.88286 0.51793 0.60355 0.0
C147 C 0.90151 0.55115 0.61851 0.0
C148 C 0.89513 0.58193 0.6147 0.0
C149 C 0.85014 0.54659 0.5814 0.0
C150 C 0.85644 0.51563 0.58531 0.0
C151 C 0.86694 0.6149 0.58966 0.0
H152 H 0.81103 0.86436 0.59817 0.0
H153 H 0.7871 0.79545 0.59571 0.0
H154 H 0.76781 0.78561 0.67606 0.0
H155 H 0.79171 0.85472 0.67847 0.0
H156 H 0.92163 0.55364 0.63296 0.0
H157 H 0.91097 0.60745 0.62612 0.0
H158 H 0.83077 0.54457 0.56654 0.0
H159 H 0.84183 0.49057 0.57334 0.0
Dy160 Dy 0.10545 0.78763 0.12473 0.0
Dy161 Dy 0.19394 0.82665 0.10163 0.0
C162 C 0.12059 0.79188 0.068 0.0
O163 O 0.12144 0.74274 0.13253 0.0
O164 O 0.17295 0.76338 0.10528 0.0
O165 O 0.04485 0.75447 0.11627 0.0
O166 O 0.06328 0.77867 0.15336 0.0
O167 O 0.20113 0.81906 0.14241 0.0
O168 O 0.1448 0.81381 0.15754 0.0
O169 O 0.18682 0.87492 0.11613 0.0
O170 O 0.12182 0.84673 0.11121 0.0
O171 O 0.25187 0.87409 0.09852 0.0
O172 O 0.23301 0.82442 0.07442 0.0
C173 C 0.14697 0.73726 0.12043 0.0
O174 O 0.10604 0.76686 0.08614 0.0
O175 O 0.15291 0.82384 0.07187 0.0
C176 C 1.00694 0.77655 0.13715 0.0
C177 C 0.95501 0.80507 0.13673 0.0
C178 C 0.96543 0.79434 0.11418 0.0
C179 C 0.99116 0.78034 0.11436 0.0
C180 C 0.9958 0.78644 0.1597 0.0
C181 C 0.97031 0.80064 0.1595 0.0
C182 C 0.03448 0.76199 0.13777 0.0
C183 C 0.17965 0.81938 0.16099 0.0
C184 C 0.15565 0.87748 0.11431 0.0
C185 C 0.29962 0.86081 0.08436 0.0
C186 C 0.37506 0.87457 0.09193 0.0
C187 C 0.34462 0.84794 0.10712 0.0
C188 C 0.30716 0.84127 0.10346 0.0
C189 C 0.32963 0.88625 0.06869 0.0
C190 C 0.3669 0.89308 0.07241 0.0
C191 C 0.26168 0.85756 0.0813 0.0
H192 H 0.95441 0.79762 0.09631 0.0
H193 H 0.99887 0.7728 0.09659 0.0
H194 H 1.00698 0.78337 0.17757 0.0
H195 H 0.96246 0.80803 0.17726 0.0
H196 H 0.35002 0.83336 0.12237 0.0
H197 H 0.28433 0.82163 0.11584 0.0
H198 H 0.32439 0.9016 0.05386 0.0
H199 H 0.38952 0.91328 0.06013 0.0
Dy200 Dy 0.32198 0.09053 0.6308 0.0
Dy201 Dy 0.38102 0.17193 0.60247 0.0
C202 C 0.33541 0.09338 0.57267 0.0
O203 O 0.37813 0.09118 0.62582 0.0
O204 O 0.41879 0.15643 0.62388 0.0
O205 O 0.29306 0.02832 0.6309 0.0
O206 O 0.28141 0.05854 0.66023 0.0
O207 O 0.37305 0.18623 0.64205 0.0
O208 O 0.35775 0.12939 0.66163 0.0
O209 O 0.32152 0.1572 0.59174 0.0
O210 O 0.29185 0.12468 0.62761 0.0
O211 O 0.39232 0.22764 0.5897 0.0
O212 O 0.43348 0.20913 0.58221 0.0
C213 C 0.41306 0.12144 0.62635 0.0
O214 O 0.30872 0.08321 0.58981 0.0
O215 O 0.36942 0.12384 0.57584 0.0
C216 C 0.22882 0.99979 0.64543 0.0
C217 C 0.14939 0.95069 0.63602 0.0
C218 C 0.1758 0.93786 0.6321 0.0
C219 C 0.21499 0.96208 0.63683 0.0
C220 C 0.20252 1.01267 0.64946 0.0
C221 C 0.16333 0.98839 0.64491 0.0
C222 C 0.27059 0.02543 0.64953 0.0
C223 C 0.36927 0.16623 0.66258 0.0
C224 C 0.29301 0.14485 0.60782 0.0
C225 C 0.4578 0.27626 0.58921 0.0
C226 C 0.51633 0.35088 0.60303 0.0
C227 C 0.52361 0.32007 0.60249 0.0
C228 C 0.49463 0.2831 0.59571 0.0
C229 C 0.45077 0.30717 0.58947 0.0
C230 C 0.47958 0.34395 0.59641 0.0
C231 C 0.42664 0.23764 0.58157 0.0
H232 H 0.16635 0.90928 0.62493 0.0
H233 H 0.23462 0.95146 0.63349 0.0
H234 H 0.21214 0.04159 0.65606 0.0
H235 H 0.14393 0.99917 0.64858 0.0
H236 H 0.55159 0.32446 0.60762 0.0
H237 H 0.50111 0.25998 0.59558 0.0
H238 H 0.42288 0.30292 0.58422 0.0
H239 H 0.4732 0.36715 0.59619 0.0
Dy240 Dy 0.72298 0.8003 0.36875 0.0
Dy241 Dy 0.65973 0.81218 0.40281 0.0
C242 C 0.72425 0.7985 0.42988 0.0
O243 O 0.66351 0.74806 0.36481 0.0
O244 O 0.6466 0.75176 0.40482 0.0
O245 O 0.74772 0.76476 0.35973 0.0
O246 O 0.76567 0.81772 0.33929 0.0
O247 O 0.6422 0.80713 0.36203 0.0
O248 O 0.70095 0.82864 0.34347 0.0
O249 O 0.70686 0.87121 0.39294 0.0
O250 O 0.75647 0.85931 0.38545 0.0
O251 O 0.6416 0.84307 0.42745 0.0
O252 O 0.59998 0.78696 0.41315 0.0
C253 C 0.64036 0.732 0.38413 0.0
O254 O 0.73506 0.79192 0.40806 0.0
O255 O 0.69756 0.80823 0.43253 0.0
C256 C 0.81317 0.80074 0.34702 0.0
C257 C 0.89236 0.82575 0.35218 0.0
C258 C 0.86808 0.81369 0.37336 0.0
C259 C 0.82889 0.80154 0.37084 0.0
C260 C 0.8372 0.81199 0.32586 0.0
C261 C 0.87631 0.82441 0.32839 0.0
C262 C 0.77236 0.78971 0.34385 0.0
C263 C 0.66542 0.82129 0.3426 0.0
C264 C 0.74371 0.88309 0.39042 0.0
C265 C 0.57751 0.83005 0.42126 0.0
C266 C 0.52247 0.85317 0.41283 0.0
C267 C 0.55727 0.87012 0.39929 0.0
C268 C 0.58449 0.85858 0.4034 0.0
C269 C 0.54283 0.81294 0.43466 0.0
C270 C 0.51557 0.82431 0.4305 0.0
C271 C 0.60533 0.81693 0.42591 0.0
H272 H 0.87958 0.8147 0.39195 0.0
H273 H 0.81104 0.79331 0.38753 0.0
H274 H 0.82575 0.81162 0.30733 0.0
H275 H 0.89408 0.83307 0.31166 0.0
H276 H 0.56333 0.89207 0.38531 0.0
H277 H 0.61089 0.87185 0.39262 0.0
H278 H 0.53683 0.79074 0.44845 0.0
H279 H 0.48938 0.81095 0.44148 0.0
Dy280 Dy 0.94046 0.71794 0.88073 0.0
Dy281 Dy 0.85206 0.66665 0.90268 0.0
C282 C 0.92427 0.70415 0.93795 0.0
O283 O 0.92631 0.65726 0.87341 0.0
O284 O 0.87545 0.62637 0.9011 0.0
O285 O 1.00159 0.74562 0.88735 0.0
O286 O 0.98055 0.75439 0.85207 0.0
O287 O 0.84825 0.64984 0.8623 0.0
O288 O 0.90058 0.70554 0.84836 0.0
O289 O 0.85948 0.72235 0.88843 0.0
O290 O 0.92338 0.7588 0.89655 0.0
O291 O 0.79463 0.65779 0.90509 0.0
O292 O 0.81018 0.62229 0.92716 0.0
C293 C 0.90167 0.62643 0.88614 0.0
O294 O 0.94174 0.6979 0.91944 0.0
O295 O 0.89106 0.70208 0.93419 0.0
C296 C 0.03508 0.80766 0.86954 0.0
C297 C 0.08177 0.88838 0.8744 0.0
C298 C 0.04939 0.86764 0.88991 0.0
C299 C 0.0263 0.82777 0.88748 0.0
C300 C 0.06733 0.82804 0.85408 0.0
C301 C 0.09049 0.868 0.85649 0.0
C302 C 1.0103 0.76568 0.86667 0.0
C303 C 0.86847 0.67332 0.84404 0.0
C304 C 0.88993 0.75598 0.89246 0.0
C305 C 0.74482 0.59479 0.91375 0.0
C306 C 0.67155 0.53307 0.90082 0.0
C307 C 0.70396 0.52835 0.90045 0.0
C308 C 0.74038 0.55904 0.90674 0.0
C309 C 0.71239 0.59921 0.91455 0.0
C310 C 0.67624 0.5688 0.90812 0.0
C311 C 0.78255 0.6283 0.92006 0.0
H312 H 0.04203 0.88215 0.90416 0.0
H313 H 1.00158 0.81261 0.89966 0.0
H314 H 0.07447 0.81308 0.84004 0.0
H315 H 0.11486 0.88299 0.84401 0.0
H316 H 0.70129 0.50121 0.89479 0.0
H317 H 0.76499 0.55489 0.90589 0.0
H318 H 0.71507 0.62643 0.92003 0.0
H319 H 0.65182 0.57324 0.90901 0.0
Dy320 Dy 0.25091 0.93403 0.38369 0.0
Dy321 Dy 0.20533 0.84085 0.39544 0.0
C322 C 0.231 0.90305 0.43759 0.0
O323 O 0.29717 0.92192 0.3958 0.0
O324 O 0.26683 0.85582 0.39179 0.0
O325 O 0.2839 0.99148 0.39891 0.0
O326 O 0.2681 0.983 0.35945 0.0
O327 O 0.20331 0.85073 0.35412 0.0
O328 O 0.26062 0.90641 0.35041 0.0
O329 O 0.15984 0.8579 0.3952 0.0
O330 O 0.19069 0.91208 0.3707 0.0
O331 O 0.18624 0.78371 0.38196 0.0
O332 O 0.16886 0.7918 0.41922 0.0
C333 C 0.29806 0.88955 0.39487 0.0
O334 O 0.22133 0.92025 0.42072 0.0
O335 O 0.2338 0.87317 0.43082 0.0
C336 C 0.26706 0.03482 0.3803 0.0
C337 C 0.23594 0.08386 0.38587 0.0
C338 C 0.26009 0.08256 0.4045 0.0
C339 C 0.2755 0.05826 0.40174 0.0
C340 C 0.24388 0.03711 0.36136 0.0
C341 C 0.22852 0.06129 0.36413 0.0
C342 C 0.28153 1.00746 0.37807 0.0
C343 C 0.23284 0.87491 0.34052 0.0
C344 C 0.15913 0.88416 0.38071 0.0
C345 C 0.16503 0.73136 0.41025 0.0
C346 C 0.15719 0.65803 0.41778 0.0
C347 C 0.19379 0.69082 0.41464 0.0
C348 C 0.19766 0.72719 0.41078 0.0
C349 C 0.12883 0.69914 0.41421 0.0
C350 C 0.12487 0.66293 0.4178 0.0
C351 C 0.16664 0.76722 0.40225 0.0
H352 H 0.26624 0.09952 0.4215 0.0
H353 H 0.29347 0.05731 0.41658 0.0
H354 H 0.23709 0.01987 0.34445 0.0
H355 H 0.21068 0.06223 0.34919 0.0
H356 H 0.21939 0.68836 0.41482 0.0
H357 H 0.2259 0.75176 0.40751 0.0
H358 H 0.10324 0.70166 0.41344 0.0
H359 H 0.09614 0.63857 0.41953 0.0
Dy360 Dy 0.32427 0.25325 0.8824 0.0
Dy361 Dy 0.37358 0.20994 0.89768 0.0
C362 C 0.33967 0.24315 0.93716 0.0
O363 O 0.38499 0.29876 0.87526 0.0
O364 O 0.41728 0.27282 0.89623 0.0
O365 O 0.2933 0.27985 0.89744 0.0
O366 O 0.29611 0.27385 0.85723 0.0
O367 O 0.38499 0.22244 0.85649 0.0
O368 O 0.33425 0.23179 0.84623 0.0
O369 O 0.31646 0.16311 0.88481 0.0
O370 O 0.28086 0.19225 0.8922 0.0
O371 O 0.38574 0.16354 0.89439 0.0
O372 O 0.4131 0.20622 0.92376 0.0
C373 C 0.41669 0.30152 0.88455 0.0
O374 O 0.34972 0.27015 0.92043 0.0
O375 O 0.33873 0.21127 0.93048 0.0
C376 C 0.23841 0.26615 0.87428 0.0
C377 C 0.15787 0.23418 0.87434 0.0
C378 C 0.18241 0.27425 0.87561 0.0
C379 C 0.22236 0.29007 0.87562 0.0
C380 C 0.21412 0.22623 0.8731 0.0
C381 C 0.1743 0.21039 0.87318 0.0
C382 C 0.28029 0.2826 0.87557 0.0
C383 C 0.36292 0.22655 0.8399 0.0
C384 C 0.28323 0.16127 0.88784 0.0
C385 C 0.44447 0.17217 0.91037 0.0
C386 C 0.5066 0.15899 0.9033 0.0
C387 C 0.50486 0.18831 0.88983 0.0
C388 C 0.47382 0.19472 0.89324 0.0
C389 C 0.44694 0.14396 0.92439 0.0
C390 C 0.47759 0.13741 0.92091 0.0
C391 C 0.40972 0.17535 0.91321 0.0
H392 H 0.17079 0.29343 0.87626 0.0
H393 H 0.24071 0.32097 0.87675 0.0
H394 H 0.226 0.20729 0.8723 0.0
H395 H 0.15639 0.17941 0.87263 0.0
H396 H 0.52674 0.20532 0.87608 0.0
H397 H 0.47231 0.2166 0.88219 0.0
H398 H 0.42461 0.12632 0.93773 0.0
H399 H 0.47837 0.11507 0.93188 0.0
Dy400 Dy 0.10999 0.31824 0.38567 0.0
Dy401 Dy 0.19838 0.37324 0.40901 0.0
C402 C 0.12436 0.32442 0.4434 0.0
O403 O 0.11475 0.37331 0.39937 0.0
O404 O 0.17961 0.41348 0.39464 0.0
O405 O 0.04906 0.29619 0.3895 0.0
O406 O 0.07039 0.27665 0.35879 0.0
O407 O 0.20429 0.37117 0.3673 0.0
O408 O 0.14386 0.35578 0.35354 0.0
O409 O 0.18477 0.31212 0.41333 0.0
O410 O 0.14121 0.28603 0.3811 0.0
O411 O 0.25612 0.3837 0.41402 0.0
O412 O 0.24 0.42294 0.43021 0.0
C413 C 0.14489 0.40806 0.39793 0.0
O414 O 0.11116 0.29965 0.42493 0.0
O415 O 0.15513 0.35837 0.44024 0.0
C416 C 1.01049 0.23089 0.37671 0.0
C417 C 0.95082 0.15458 0.38599 0.0
C418 C 0.96912 0.18026 0.40604 0.0
C419 C 0.99871 0.21791 0.40148 0.0
C420 C 0.99284 0.20503 0.35672 0.0
C421 C 0.96347 0.16724 0.3613 0.0
C422 C 0.04021 0.2713 0.37133 0.0
C423 C 0.18061 0.36888 0.34937 0.0
C424 C 0.16506 0.28431 0.39716 0.0
C425 C 0.30525 0.44867 0.41777 0.0
C426 C 0.3789 0.50831 0.40253 0.0
C427 C 0.34806 0.49175 0.38533 0.0
C428 C 0.31163 0.46223 0.39287 0.0
C429 C 0.33566 0.46532 0.43501 0.0
C430 C 0.372 0.49473 0.42753 0.0
C431 C 0.26792 0.41604 0.42592 0.0
H432 H 0.96041 0.17129 0.4253 0.0
H433 H 1.01198 0.23692 0.41736 0.0
H434 H 1.00137 0.21427 0.33747 0.0
H435 H 0.9498 0.14831 0.34545 0.0
H436 H 0.35198 0.50167 0.36602 0.0
H437 H 0.28856 0.44976 0.37921 0.0
H438 H 0.33148 0.4551 0.45427 0.0
H439 H 0.39494 0.50616 0.44127 0.0
Dy440 Dy 0.79348 0.10068 0.87983 0.0
Dy441 Dy 0.82859 0.1882 0.90375 0.0
C442 C 0.80337 0.11431 0.93747 0.0
O443 O 0.74295 0.10682 0.89076 0.0
O444 O 0.77058 0.17255 0.88888 0.0
O445 O 0.75917 0.03943 0.88662 0.0
O446 O 0.78849 0.06056 0.85101 0.0
O447 O 0.83655 0.19569 0.86205 0.0
O448 O 0.79188 0.13549 0.84761 0.0
O449 O 0.87638 0.17435 0.90523 0.0
O450 O 0.85619 0.13142 0.87259 0.0
O451 O 0.87708 0.24494 0.91031 0.0
O452 O 0.82149 0.22968 0.92571 0.0
C453 C 0.74006 0.13805 0.88952 0.0
O454 O 0.81506 0.10192 0.91864 0.0
O455 O 0.79958 0.1447 0.93457 0.0
C456 C 0.78694 1.00534 0.86842 0.0
C457 C 0.8191 0.95741 0.87608 0.0
C458 C 0.78001 0.9439 0.88109 0.0
C459 C 0.76413 0.96763 0.87727 0.0
C460 C 0.8259 0.01884 0.86324 0.0
C461 C 0.84171 0.99513 0.8669 0.0
C462 C 0.77037 0.03082 0.8658 0.0
C463 C 0.81607 0.17224 0.84375 0.0
C464 C 0.8834 0.15559 0.88763 0.0
C465 C 0.86305 0.29555 0.91409 0.0
C466 C 0.87756 0.37016 0.90095 0.0
C467 C 0.83969 0.33914 0.90261 0.0
C468 C 0.83248 0.30221 0.90905 0.0
C469 C 0.90078 0.32655 0.91254 0.0
C470 C 0.90796 0.3633 0.90599 0.0
C471 C 0.85663 0.25722 0.9218 0.0
H472 H 0.76179 0.91526 0.88849 0.0
H473 H 0.73411 0.95668 0.8816 0.0
H474 H 0.84431 0.04787 0.85652 0.0
H475 H 0.87172 1.00641 0.86242 0.0
H476 H 0.8156 0.34331 0.89867 0.0
H477 H 0.80302 0.27898 0.91012 0.0
H478 H 0.92487 0.32241 0.9166 0.0
H479 H 0.93745 0.38655 0.90531 0.0
H480 H 0.21641 0.94455 0.13198 0.0
H481 H 0.10203 0.89721 0.10047 0.0
H482 H 0.10744 0.96117 0.10327 0.0
H483 H 0.20745 1.00727 0.1764 0.0
H484 H 0.25664 0.04507 0.17305 0.0
H485 H 0.24401 0.99579 0.16804 0.0
H486 H 0.27451 1.01329 0.12358 0.0
H487 H 0.28718 0.06262 0.12843 0.0
H488 H 0.25874 0.03667 0.10152 0.0
H489 H 0.12598 0.03079 0.10881 0.0
H490 H 0.15499 0.0999 0.11798 0.0
H491 H 0.25603 0.10103 0.14797 0.0
C492 C 0.19255 0.94763 0.12553 0.0
C493 C 0.15885 0.91586 0.11585 0.0
C494 C 0.12811 0.92108 0.10794 0.0
C495 C 0.13095 0.95733 0.10942 0.0
C496 C 0.16457 0.98802 0.11906 0.0
C497 C 0.19472 0.98348 0.12713 0.0
C498 C 0.22732 0.02085 0.13731 0.0
C499 C 0.23425 0.017 0.16536 0.0
C500 C 0.26411 0.03413 0.12178 0.0
C501 C 0.21097 0.04727 0.13349 0.0
C502 C 0.1748 0.02779 0.12289 0.0
C503 C 0.15415 0.04623 0.11733 0.0
C504 C 0.17083 0.08554 0.12281 0.0
C505 C 0.20779 0.10617 0.13395 0.0
C506 C 0.22795 0.08646 0.13928 0.0
H507 H 0.23788 0.13841 0.64144 0.0
H508 H 0.27949 0.17466 0.56527 0.0
H509 H 0.23114 0.19457 0.55905 0.0
H510 H 0.13635 0.10266 0.62825 0.0
H511 H 0.12833 0.12005 0.6576 0.0
H512 H 0.16464 0.10637 0.65555 0.0
H513 H 0.21552 0.17365 0.6718 0.0
H514 H 0.17945 0.18759 0.67378 0.0
H515 H 0.22227 0.21594 0.65547 0.0
H516 H 0.1798 0.21265 0.56145 0.0
H517 H 0.13 0.22885 0.57262 0.0
H518 H 0.12197 0.18178 0.64741 0.0
C519 C 0.23653 0.15009 0.62334 0.0
C520 C 0.26246 0.1548 0.6038 0.0
C521 C 0.26 0.17072 0.58053 0.0
C522 C 0.23255 0.18207 0.57679 0.0
C523 C 0.20776 0.17747 0.5965 0.0
C524 C 0.20947 0.16189 0.61934 0.0
C525 C 0.18049 0.16157 0.63777 0.0
C526 C 0.15068 0.1202 0.64522 0.0
C527 C 0.20065 0.18616 0.66108 0.0
C528 C 0.16257 0.17982 0.62183 0.0
C529 C 0.17849 0.18844 0.59802 0.0
C530 C 0.16695 0.20581 0.58 0.0
C531 C 0.13848 0.21475 0.58649 0.0
C532 C 0.12191 0.20654 0.61087 0.0
C533 C 0.13421 0.18871 0.62868 0.0
H534 H 0.93179 0.14982 0.11483 0.0
H535 H 0.93649 0.06977 0.1676 0.0
H536 H 1.00646 0.11257 0.17187 0.0
H537 H 1.02142 0.17676 0.08368 0.0
H538 H 0.03433 0.22636 0.07974 0.0
H539 H 0.98452 0.18954 0.08088 0.0
H540 H 0.97322 0.22511 0.11764 0.0
H541 H 0.02301 0.26202 0.11663 0.0
H542 H 1.00237 0.23662 0.14558 0.0
H543 H 0.07544 0.16439 0.17117 0.0
H544 H 0.13953 0.2207 0.16434 0.0
H545 H 0.09078 0.26707 0.11139 0.0
C546 C 0.94755 0.14142 0.12737 0.0
C547 C 0.92868 0.10639 0.14086 0.0
C548 C 0.95039 0.09621 0.15686 0.0
C549 C 0.9901 0.12044 0.15952 0.0
C550 C 1.00779 0.15471 0.14598 0.0
C551 C 0.98732 0.16517 0.13012 0.0
C552 C 1.01351 0.20339 0.11748 0.0
C553 C 1.01344 0.19872 0.08874 0.0
C554 C 1.00236 0.23357 0.12478 0.0
C555 C 0.05185 0.21282 0.12879 0.0
C556 C 0.04782 0.1844 0.14526 0.0
C557 C 0.07899 0.18678 0.15826 0.0
C558 C 0.11532 0.21897 0.15426 0.0
C559 C 0.12034 0.24836 0.13726 0.0
C560 C 0.08802 0.24508 0.12441 0.0
H561 H 0.78926 0.91152 0.60731 0.0
H562 H 0.85411 0.91413 0.67333 0.0
H563 H 0.8815 0.98431 0.6763 0.0
H564 H 0.8623 1.00105 0.58027 0.0
H565 H 0.82873 0.01504 0.5691 0.0
H566 H 0.81408 0.96487 0.57201 0.0
H567 H 0.75754 0.95436 0.60069 0.0
H568 H 0.772 1.00449 0.59786 0.0
H569 H 0.76709 0.98337 0.62855 0.0
H570 H 0.90237 0.05369 0.67204 0.0
H571 H 0.91434 0.11839 0.66174 0.0
H572 H 0.83577 0.07187 0.59845 0.0
C573 C 0.8094 0.92692 0.62229 0.0
C574 C 0.81947 0.90729 0.64016 0.0
C575 C 0.84558 0.92844 0.65966 0.0
C576 C 0.86148 0.96834 0.6614 0.0
C577 C 0.85093 0.98675 0.64354 0.0
C578 C 0.82542 0.96684 0.6244 0.0
C579 C 0.81862 0.99373 0.60789 0.0
C580 C 0.83172 0.99366 0.58071 0.0
C581 C 0.7763 0.98336 0.60882 0.0
C582 C 0.84437 0.03186 0.62075 0.0
C583 C 0.86278 0.02706 0.64121 0.0
C584 C 0.8881 0.05784 0.65609 0.0
C585 C 0.89472 0.09457 0.65001 0.0
C586 C 0.87601 0.10039 0.62925 0.0
C587 C 0.85052 0.06846 0.61443 0.0
H588 H 0.88807 0.78194 0.10955 0.0
H589 H 0.96412 0.86701 0.16361 0.0
H590 H 0.92199 0.89517 0.1646 0.0
H591 H 0.86386 0.84528 0.07484 0.0
H592 H 0.8145 0.80879 0.06997 0.0
H593 H 0.85095 0.79543 0.07295 0.0
H594 H 0.81298 0.74936 0.10953 0.0
H595 H 0.77645 0.76259 0.10667 0.0
H596 H 0.79998 0.7677 0.13646 0.0
H597 H 0.87194 0.9138 0.16047 0.0
H598 H 0.81626 0.92165 0.15202 0.0
H599 H 0.7711 0.82494 0.10033 0.0
C600 C 0.89601 0.80671 0.12141 0.0
C601 C 0.92943 0.82211 0.13663 0.0
C602 C 0.93848 0.85429 0.15209 0.0
C603 C 0.91483 0.87068 0.15266 0.0
C604 C 0.88207 0.85466 0.13765 0.0
C605 C 0.87251 0.82341 0.1223 0.0
C606 C 0.83506 0.81146 0.10849 0.0
C607 C 0.84149 0.81549 0.07986 0.0
C608 C 0.8043 0.77034 0.11573 0.0
C609 C 0.82509 0.84082 0.11856 0.0
C610 C 0.8528 0.86547 0.13529 0.0
C611 C 0.85008 0.89472 0.14738 0.0
C612 C 0.81816 0.89889 0.14241 0.0
C613 C 0.78903 0.87395 0.12546 0.0
C614 C 0.79281 0.8446 0.1133 0.0
H615 H 0.95009 0.752 0.62999 0.0
H616 H 0.89771 0.81578 0.60047 0.0
H617 H 0.96054 0.8757 0.60256 0.0
H618 H 1.01274 0.82427 0.67382 0.0
H619 H 0.05158 0.81465 0.66931 0.0
H620 H 1.00271 0.77682 0.66494 0.0
H621 H 1.01923 0.76516 0.61984 0.0
H622 H 0.06815 0.803 0.62405 0.0
H623 H 0.0405 0.80461 0.59786 0.0
H624 H 0.02965 0.92866 0.60743 0.0
H625 H 0.09875 0.97065 0.61574 0.0
H626 H 0.10507 0.87243 0.64391 0.0
C627 C 0.95178 0.7785 0.62382 0.0
C628 C 0.91891 0.77909 0.61492 0.0
C629 C 0.92243 0.81453 0.60733 0.0
C630 C 0.95802 0.84873 0.60842 0.0
C631 C 0.98981 0.84708 0.61731 0.0
C632 C 0.98695 0.81289 0.62499 0.0
C633 C 0.02523 0.81898 0.63429 0.0
C634 C 0.02291 0.80804 0.66225 0.0
C635 C 0.03909 0.79661 0.61803 0.0
C636 C 0.05019 0.86193 0.63051 0.0
C637 C 0.02926 0.87761 0.62063 0.0
C638 C 0.04623 0.91671 0.61533 0.0
C639 C 0.08554 0.94041 0.62031 0.0
C640 C 0.10762 0.92509 0.63066 0.0
C641 C 0.08938 0.88519 0.63575 0.0
H642 H 0.08585 0.8302 0.39653 0.0
H643 H 0.148 0.9339 0.35161 0.0
H644 H 0.08711 0.9307 0.34057 0.0
H645 H 1.00508 0.78185 0.3553 0.0
H646 H 0.97014 0.76088 0.38019 0.0
H647 H 1.01875 0.77159 0.38537 0.0
H648 H 0.02387 0.81311 0.42404 0.0
H649 H 0.97523 0.80251 0.41899 0.0
H650 H 1.01363 0.85172 0.42045 0.0
H651 H 1.01981 0.91564 0.33299 0.0
H652 H 0.95002 0.89014 0.3301 0.0
H653 H 0.93013 0.79644 0.38008 0.0
C654 C 0.08669 0.85236 0.38449 0.0
C655 C 0.12197 0.8823 0.37496 0.0
C656 C 0.12158 0.91062 0.35919 0.0
C657 C 0.08705 0.90911 0.35279 0.0
C658 C 0.05289 0.87919 0.36232 0.0
C659 C 0.05233 0.85137 0.37792 0.0
C660 C 1.0114 0.82209 0.3853 0.0
C661 C 1.00073 0.78171 0.37597 0.0
C662 C 1.00571 0.82239 0.4139 0.0
C663 C 0.98916 0.83765 0.37122 0.0
C664 C 1.01378 0.87062 0.3581 0.0
C665 C 1.00024 0.88988 0.34322 0.0
C666 C 0.9605 0.87503 0.34158 0.0
C667 C 0.93451 0.84121 0.35476 0.0
C668 C 0.94923 0.82252 0.36995 0.0
H669 H 0.16071 0.93284 0.87146 0.0
H670 H 0.05801 0.94081 0.88281 0.0
H671 H 0.09801 1.0111 0.88766 0.0
H672 H 0.22027 1.00553 0.91566 0.0
H673 H 0.26297 0.02411 0.89661 0.0
H674 H 0.22625 0.97439 0.89398 0.0
H675 H 0.22146 0.983 0.84602 0.0
H676 H 0.25826 0.03273 0.84849 0.0
H677 H 0.21239 0.02013 0.8349 0.0
H678 H 0.14962 0.08106 0.89155 0.0
H679 H 0.20848 0.14464 0.89386 0.0
H680 H 0.27722 0.09098 0.87905 0.0
C681 C 0.14652 0.94933 0.87471 0.0
C682 C 0.10607 0.93103 0.87684 0.0
C683 C 0.0889 0.95388 0.88148 0.0
C684 C 0.11139 0.99394 0.88411 0.0
C685 C 0.15112 1.01095 0.882 0.0
C686 C 0.16853 0.98937 0.87735 0.0
C687 C 0.2118 0.01465 0.876 0.0
C688 C 0.23147 1.00403 0.89681 0.0
C689 C 0.22685 1.01249 0.84979 0.0
C690 C 0.21601 0.05381 0.88066 0.0
C691 C 0.1807 0.0511 0.88408 0.0
C692 C 0.17742 0.08349 0.88883 0.0
C693 C 0.21108 0.11956 0.89009 0.0
C694 C 0.24764 0.12305 0.88657 0.0
C695 C 0.24984 0.08952 0.8818 0.0
H696 H 0.22669 0.27593 0.41103 0.0
H697 H 0.10972 0.21309 0.38307 0.0
H698 H 0.11406 0.15424 0.38033 0.0
H699 H 0.26324 0.23214 0.37051 0.0
H700 H 0.2957 0.23035 0.39315 0.0
H701 H 0.28253 0.26697 0.39558 0.0
H702 H 0.25905 0.24555 0.44127 0.0
H703 H 0.27222 0.20885 0.439 0.0
H704 H 0.22388 0.19608 0.44749 0.0
H705 H 0.13141 0.10341 0.37814 0.0
H706 H 0.16168 0.06327 0.37557 0.0
H707 H 0.2685 0.15837 0.40348 0.0
C708 C 0.20186 0.24957 0.40479 0.0
C709 C 0.16784 0.24901 0.39733 0.0
C710 C 0.13613 0.21421 0.38878 0.0
C711 C 0.1382 0.18055 0.38728 0.0
C712 C 0.17226 0.1821 0.39431 0.0
C713 C 0.20359 0.2156 0.40286 0.0
C714 C 0.23755 0.20971 0.40752 0.0
C715 C 0.27177 0.23637 0.39068 0.0
C716 C 0.24883 0.21538 0.43549 0.0
C717 C 0.2205 0.16794 0.39979 0.0
C718 C 0.18266 0.15259 0.39253 0.0
C719 C 0.16099 0.11502 0.38385 0.0
C720 C 0.17854 0.09255 0.38227 0.0
C721 C 0.21752 0.10773 0.38914 0.0
C722 C 0.23856 0.14583 0.39834 0.0
H723 H 0.11276 0.256 0.90118 0.0
H724 H 0.10656 0.17379 0.84559 0.0
H725 H 0.03626 0.1441 0.84457 0.0
H726 H 0.02608 0.1912 0.9349 0.0
H727 H 1.01179 0.22661 0.94016 0.0
H728 H 0.06192 0.24135 0.93721 0.0
H729 H 0.069 0.28769 0.90103 0.0
H730 H 1.01894 0.27321 0.90394 0.0
H731 H 0.03784 0.26927 0.87402 0.0
H732 H 0.96753 0.1236 0.84881 0.0
H733 H 0.90341 0.11405 0.85712 0.0
H734 H 0.95217 0.20984 0.9096 0.0
C735 C 0.09664 0.2319 0.88868 0.0
C736 C 0.11535 0.21704 0.87363 0.0
C737 C 0.09303 0.18526 0.85769 0.0
C738 C 0.05302 0.16829 0.85685 0.0
C739 C 0.03557 0.18342 0.87201 0.0
C740 C 0.0565 0.21456 0.88756 0.0
C741 C 0.03027 0.22535 0.90158 0.0
C742 C 0.03266 0.22085 0.93016 0.0
C743 C 0.03957 0.26631 0.89473 0.0
C744 C 0.99141 0.19549 0.89131 0.0
C745 C 0.99536 0.17161 0.87435 0.0
C746 C 0.96402 0.14208 0.86205 0.0
C747 C 0.92759 0.13693 0.86695 0.0
C748 C 0.9225 0.16116 0.88405 0.0
C749 C 0.95498 0.1907 0.89654 0.0
H750 H 0.93567 0.08505 0.36548 0.0
H751 H 0.88989 0.13586 0.41708 0.0
H752 H 0.83301 0.07206 0.42427 0.0
H753 H 0.84592 0.01655 0.33756 0.0
H754 H 0.85769 0.97885 0.33526 0.0
H755 H 0.89527 0.02842 0.33435 0.0
H756 H 0.92919 0.01636 0.37178 0.0
H757 H 0.89171 0.96673 0.37278 0.0
H758 H 0.90303 0.99617 0.40057 0.0
H759 H 0.77938 1.00372 0.42406 0.0
H760 H 0.73435 0.93431 0.41875 0.0
H761 H 0.81551 0.92612 0.36896 0.0
C762 C 0.91366 0.08269 0.3783 0.0
C763 C 0.91733 0.11554 0.39077 0.0
C764 C 0.888 0.11114 0.40755 0.0
C765 C 0.85546 0.07502 0.41165 0.0
C766 C 0.85266 0.04332 0.39903 0.0
C767 C 0.88109 0.04664 0.38288 0.0
C768 C 0.87095 1.00778 0.37186 0.0
C769 C 0.86723 1.00793 0.34305 0.0
C770 C 0.90048 0.99607 0.37972 0.0
C771 C 0.83226 0.98222 0.38419 0.0
C772 C 0.82219 1.00346 0.39962 0.0
C773 C 0.78712 0.98674 0.41222 0.0
C774 C 0.76166 0.94729 0.40901 0.0
C775 C 0.77147 0.92471 0.39359 0.0
C776 C 0.80742 0.94251 0.38115 0.0
H777 H 0.82761 0.76233 0.87826 0.0
H778 H 0.94454 0.82921 0.90582 0.0
H779 H 0.9389 0.88767 0.90511 0.0
H780 H 0.83221 0.83415 0.83583 0.0
H781 H 0.78347 0.82273 0.84161 0.0
H782 H 0.79648 0.78606 0.84481 0.0
H783 H 0.77037 0.77286 0.89049 0.0
H784 H 0.75734 0.80955 0.88745 0.0
H785 H 0.78831 0.8119 0.91275 0.0
H786 H 0.92021 0.93883 0.90177 0.0
H787 H 0.89076 0.97916 0.89494 0.0
H788 H 0.78682 0.87934 0.86796 0.0
C789 C 0.85201 0.78921 0.88426 0.0
C790 C 0.88649 0.79108 0.8922 0.0
C791 C 0.91782 0.82697 0.89968 0.0
C792 C 0.91487 0.86036 0.89938 0.0
C793 C 0.88048 0.85748 0.89144 0.0
C794 C 0.84966 0.82285 0.88392 0.0
C795 C 0.81619 0.82768 0.87575 0.0
C796 C 0.80654 0.81703 0.84784 0.0
C797 C 0.78098 0.8041 0.89262 0.0
C798 C 0.83293 0.87043 0.87992 0.0
C799 C 0.87 0.88705 0.88904 0.0
C800 C 0.89129 0.92615 0.89446 0.0
C801 C 0.87435 0.9489 0.89033 0.0
C802 C 0.83647 0.93265 0.88071 0.0
C803 C 0.81563 0.89275 0.87555 0.0
H804 H 0.19179 0.71249 0.09659 0.0
H805 H 0.09991 0.67709 0.1513 0.0
H806 H 0.09737 0.6148 0.15606 0.0
H807 H 0.15475 0.6213 0.0664 0.0
H808 H 0.20111 0.62567 0.06148 0.0
H809 H 0.19677 0.66812 0.063 0.0
H810 H 0.24711 0.69495 0.09884 0.0
H811 H 0.25156 0.65253 0.09747 0.0
H812 H 0.23951 0.66652 0.12678 0.0
H813 H 0.10354 0.55561 0.15422 0.0
H814 H 0.11747 0.50348 0.14558 0.0
H815 H 0.20496 0.57656 0.09177 0.0
C816 C 0.17124 0.69178 0.10969 0.0
C817 C 0.14604 0.69993 0.12359 0.0
C818 C 0.11953 0.67175 0.14041 0.0
C819 C 0.11789 0.63621 0.14329 0.0
C820 C 0.14298 0.62911 0.12926 0.0
C821 C 0.16917 0.65608 0.11279 0.0
C822 C 0.1923 0.64081 0.09953 0.0
C823 C 0.18583 0.63886 0.07091 0.0
C824 C 0.23516 0.66516 0.10605 0.0
C825 C 0.17479 0.60093 0.11098 0.0
C826 C 0.14648 0.59487 0.12814 0.0
C827 C 0.12565 0.56005 0.14081 0.0
C828 C 0.13364 0.5305 0.13566 0.0
C829 C 0.16221 0.53572 0.11791 0.0
C830 C 0.18326 0.5717 0.10564 0.0
H831 H 0.635 0.18624 0.61049 0.0
H832 H 0.60448 0.06832 0.62631 0.0
H833 H 0.53737 0.05176 0.63368 0.0
H834 H 0.57102 0.19177 0.6576 0.0
H835 H 0.55944 0.22096 0.63775 0.0
H836 H 0.6055 0.22393 0.63494 0.0
H837 H 0.59323 0.20826 0.58738 0.0
H838 H 0.54715 0.20514 0.5901 0.0
H839 H 0.55046 0.16521 0.57755 0.0
H840 H 0.47224 0.047 0.63683 0.0
H841 H 0.4152 0.0552 0.63638 0.0
H842 H 0.48867 0.17648 0.61983 0.0
C843 C 0.61441 0.1571 0.61597 0.0
C844 C 0.62521 0.12859 0.61767 0.0
C845 C 0.59698 0.09062 0.62448 0.0
C846 C 0.55875 0.08094 0.62888 0.0
C847 C 0.54898 0.10954 0.62661 0.0
C848 C 0.57606 0.14693 0.62048 0.0
C849 C 0.55782 0.17198 0.61849 0.0
C850 C 0.57444 0.20405 0.63839 0.0
C851 C 0.56244 0.18861 0.59179 0.0
C852 C 0.51624 0.14277 0.62411 0.0
C853 C 0.51169 0.10692 0.62881 0.0
C854 C 0.47556 0.07507 0.63344 0.0
C855 C 0.44327 0.07998 0.63313 0.0
C856 C 0.44727 0.11649 0.62829 0.0
C857 C 0.48446 0.14822 0.62394 0.0
H858 H 0.45632 0.62815 0.10518 0.0
H859 H 0.54586 0.59813 0.11025 0.0
H860 H 0.49664 0.52978 0.11508 0.0
H861 H 0.39272 0.5592 0.15092 0.0
H862 H 0.34968 0.5486 0.134 0.0
H863 H 0.39199 0.59524 0.13106 0.0
H864 H 0.39005 0.5871 0.0826 0.0
H865 H 0.34775 0.54043 0.08544 0.0
H866 H 0.38951 0.54554 0.06934 0.0
H867 H 0.43746 0.4642 0.11841 0.0
H868 H 0.37285 0.4068 0.12144 0.0
H869 H 0.32189 0.47957 0.1146 0.0
C870 C 0.46557 0.60719 0.10722 0.0
C871 C 0.50505 0.61863 0.10743 0.0
C872 C 0.51588 0.59023 0.11039 0.0
C873 C 0.48811 0.55126 0.11299 0.0
C874 C 0.4495 0.54098 0.11269 0.0
C875 C 0.4382 0.56813 0.10998 0.0
C876 C 0.39482 0.54946 0.11047 0.0
C877 C 0.38153 0.56399 0.13295 0.0
C878 C 0.37965 0.55602 0.08547 0.0
C879 C 0.38353 0.50761 0.11374 0.0
C880 C 0.41548 0.5033 0.1149 0.0
C881 C 0.41223 0.46725 0.11761 0.0
C882 C 0.37537 0.43478 0.11927 0.0
C883 C 0.34217 0.43852 0.11834 0.0
C884 C 0.34657 0.47558 0.11551 0.0
H885 H 0.83416 0.4392 0.60389 0.0
H886 H 0.95445 0.52683 0.60848 0.0
H887 H 0.97212 0.47647 0.61239 0.0
H888 H 0.8386 0.37387 0.64876 0.0
H889 H 0.8054 0.33122 0.63176 0.0
H890 H 0.80195 0.37413 0.62936 0.0
H891 H 0.80734 0.37275 0.58082 0.0
H892 H 0.81078 0.32982 0.58309 0.0
H893 H 0.84767 0.3715 0.56702 0.0
H894 H 0.97717 0.41693 0.61492 0.0
H895 H 0.96908 0.35197 0.61694 0.0
H896 H 0.84549 0.30238 0.61127 0.0
C897 C 0.86421 0.44775 0.60563 0.0
C898 C 0.8929 0.48704 0.60603 0.0
C899 C 0.9319 0.497 0.60853 0.0
C900 C 0.94227 0.46858 0.61061 0.0
C901 C 0.91334 0.43021 0.61025 0.0
C902 C 0.8751 0.41968 0.6079 0.0
C903 C 0.84974 0.37627 0.60819 0.0
C904 C 0.82231 0.36311 0.63087 0.0
C905 C 0.82758 0.36174 0.5833 0.0
C906 C 0.87975 0.36415 0.61094 0.0
C907 C 0.91625 0.39575 0.61202 0.0
C908 C 0.94872 0.39194 0.61418 0.0
C909 C 0.9438 0.35486 0.61529 0.0
C910 C 0.90666 0.32193 0.61435 0.0
C911 C 0.87428 0.32686 0.61219 0.0
H912 H 0.55224 0.83864 0.11425 0.0
H913 H 0.62643 0.9625 0.10985 0.0
H914 H 0.56964 0.97011 0.10537 0.0
H915 H 0.48428 0.83171 0.06843 0.0
H916 H 0.44308 0.7945 0.08468 0.0
H917 H 0.48941 0.79855 0.08871 0.0
H918 H 0.48401 0.80339 0.13698 0.0
H919 H 0.43762 0.79935 0.13311 0.0
H920 H 0.47512 0.8398 0.14975 0.0
H921 H 0.50551 0.96465 0.09979 0.0
H922 H 0.43778 0.94645 0.09358 0.0
H923 H 0.40406 0.82611 0.10153 0.0
C924 C 0.55658 0.86741 0.11256 0.0
C925 C 0.59401 0.89999 0.11248 0.0
C926 C 0.59823 0.93706 0.11004 0.0
C927 C 0.56609 0.94172 0.10749 0.0
C928 C 0.52974 0.90908 0.10747 0.0
C929 C 0.52472 0.87263 0.11 0.0
C930 C 0.48243 0.84234 0.10876 0.0
C931 C 0.47434 0.81518 0.0863 0.0
C932 C 0.46901 0.8199 0.13364 0.0
C933 C 0.46455 0.8675 0.10487 0.0
C934 C 0.49247 0.9059 0.10426 0.0
C935 C 0.48339 0.93469 0.10028 0.0
C936 C 0.44482 0.92403 0.09663 0.0
C937 C 0.41557 0.88486 0.09693 0.0
C938 C 0.42569 0.85629 0.10141 0.0
H939 H 0.72355 0.53946 0.59751 0.0
H940 H 0.6789 0.59491 0.64617 0.0
H941 H 0.61693 0.53425 0.64858 0.0
H942 H 0.63811 0.48379 0.5624 0.0
H943 H 0.64429 0.44246 0.5599 0.0
H944 H 0.6856 0.48974 0.56289 0.0
H945 H 0.70782 0.46747 0.60199 0.0
H946 H 0.66653 0.42008 0.59916 0.0
H947 H 0.67554 0.44628 0.62825 0.0
H948 H 0.55896 0.46817 0.64437 0.0
H949 H 0.50947 0.40158 0.63403 0.0
H950 H 0.59199 0.38937 0.58812 0.0
C951 C 0.70089 0.53893 0.60882 0.0
C952 C 0.70623 0.57212 0.62166 0.0
C953 C 0.67564 0.56997 0.63617 0.0
C954 C 0.6403 0.5356 0.63768 0.0
C955 C 0.636 0.50355 0.62466 0.0
C956 C 0.6655 0.50489 0.61056 0.0
C957 C 0.65321 0.46666 0.59789 0.0
C958 C 0.65543 0.47093 0.56907 0.0
C959 C 0.6772 0.44909 0.6074 0.0
C960 C 0.61202 0.44369 0.60685 0.0
C961 C 0.6027 0.46547 0.62232 0.0
C962 C 0.56599 0.45082 0.63234 0.0
C963 C 0.53802 0.41304 0.62625 0.0
C964 C 0.54682 0.39024 0.61026 0.0
C965 C 0.58449 0.40584 0.60067 0.0
H966 H 0.31282 0.82965 0.40019 0.0
H967 H 0.36928 0.95405 0.39486 0.0
H968 H 0.43225 0.958 0.39819 0.0
H969 H 0.3778 0.82697 0.4458 0.0
H970 H 0.37661 0.78523 0.43231 0.0
H971 H 0.33575 0.79193 0.42911 0.0
H972 H 0.33847 0.78665 0.38067 0.0
H973 H 0.37937 0.77996 0.38368 0.0
H974 H 0.38237 0.8181 0.36418 0.0
H975 H 0.48942 0.94875 0.40176 0.0
H976 H 0.53652 0.92693 0.40699 0.0
H977 H 0.44345 0.80865 0.41031 0.0
C978 C 0.33839 0.85774 0.39968 0.0
C979 C 0.3359 0.89154 0.3972 0.0
C980 C 0.37022 0.92769 0.39678 0.0
C981 C 0.40624 0.93028 0.3986 0.0
C982 C 0.40767 0.89649 0.40097 0.0
C983 C 0.37469 0.8609 0.40164 0.0
C984 C 0.3843 0.82908 0.40474 0.0
C985 C 0.36763 0.80701 0.42946 0.0
C986 C 0.3703 0.80184 0.38195 0.0
C987 C 0.42781 0.85237 0.40566 0.0
C988 C 0.44067 0.89118 0.40334 0.0
C989 C 0.47968 0.91841 0.40356 0.0
C990 C 0.50626 0.9057 0.40637 0.0
C991 C 0.49384 0.86606 0.40903 0.0
C992 C 0.45396 0.83916 0.40859 0.0
H993 H 0.63605 0.4566 0.91457 0.0
H994 H 0.61943 0.53803 0.8704 0.0
H995 H 0.55357 0.48713 0.86014 0.0
H996 H 0.58007 0.37304 0.87361 0.0
H997 H 0.56042 0.34001 0.89965 0.0
H998 H 0.60715 0.38228 0.90234 0.0
H999 H 0.58492 0.40254 0.94237 0.0
H1000 H 0.53812 0.36045 0.93974 0.0
H1001 H 0.54277 0.40744 0.94094 0.0
H1002 H 0.48854 0.42857 0.85635 0.0
H1003 H 0.42881 0.36598 0.85896 0.0
H1004 H 0.4872 0.3219 0.90537 0.0
C1005 C 0.61875 0.46351 0.90239 0.0
C1006 C 0.63289 0.50138 0.89335 0.0
C1007 C 0.6091 0.50938 0.87778 0.0
C1008 C 0.5717 0.48061 0.87173 0.0
C1009 C 0.5584 0.44381 0.88129 0.0
C1010 C 0.58118 0.43507 0.8962 0.0
C1011 C 0.55926 0.3935 0.9048 0.0
C1012 C 0.57784 0.37087 0.89448 0.0
C1013 C 0.55608 0.39085 0.93367 0.0
C1014 C 0.52051 0.38047 0.89267 0.0
C1015 C 0.52074 0.40991 0.8791 0.0
C1016 C 0.48807 0.4052 0.86679 0.0
C1017 C 0.4542 0.36949 0.86844 0.0
C1018 C 0.4531 0.33882 0.88235 0.0
C1019 C 0.48696 0.34455 0.89446 0.0
H1020 H 0.19864 0.62875 0.39421 0.0
H1021 H 0.10382 0.5973 0.446 0.0
H1022 H 0.08974 0.53029 0.44541 0.0
H1023 H 0.15636 0.54445 0.35742 0.0
H1024 H 0.19934 0.54134 0.35417 0.0
H1025 H 0.20281 0.5874 0.35867 0.0
H1026 H 0.24609 0.60006 0.39773 0.0
H1027 H 0.2432 0.55425 0.39314 0.0
H1028 H 0.22961 0.56536 0.42293 0.0
H1029 H 0.08257 0.4658 0.4368 0.0
H1030 H 0.08831 0.40936 0.42534 0.0
H1031 H 0.19105 0.48284 0.38221 0.0
C1032 C 0.1754 0.60807 0.40587 0.0
C1033 C 0.15197 0.61855 0.41981 0.0
C1034 C 0.12161 0.59011 0.43456 0.0
C1035 C 0.11346 0.55188 0.43449 0.0
C1036 C 0.13635 0.54241 0.41999 0.0
C1037 C 0.16721 0.56977 0.40637 0.0
C1038 C 0.18762 0.55189 0.39271 0.0
C1039 C 0.18644 0.55656 0.36404 0.0
C1040 C 0.22909 0.5689 0.4022 0.0
C1041 C 0.16305 0.51018 0.40054 0.0
C1042 C 0.13338 0.50535 0.41605 0.0
C1043 C 0.10594 0.46927 0.42491 0.0
C1044 C 0.10928 0.43734 0.41813 0.0
C1045 C 0.14015 0.44171 0.40293 0.0
C1046 C 0.16729 0.47867 0.39399 0.0
H1047 H 0.72137 0.19553 0.89161 0.0
H1048 H 0.67066 0.07153 0.88718 0.0
H1049 H 0.60612 0.06423 0.88817 0.0
H1050 H 0.6534 0.19534 0.93465 0.0
H1051 H 0.6524 0.23558 0.92043 0.0
H1052 H 0.69489 0.23152 0.91804 0.0
H1053 H 0.69277 0.23551 0.86948 0.0
H1054 H 0.65022 0.23957 0.8717 0.0
H1055 H 0.64985 0.20211 0.85282 0.0
H1056 H 0.54722 0.06971 0.89124 0.0
H1057 H 0.49729 0.08761 0.89659 0.0
H1058 H 0.58507 0.20808 0.89924 0.0
C1059 C 0.69672 0.16683 0.89061 0.0
C1060 C 0.70126 0.13408 0.88924 0.0
C1061 C 0.66812 0.09709 0.88821 0.0
C1062 C 0.63125 0.09262 0.88871 0.0
C1063 C 0.62781 0.12539 0.89022 0.0
C1064 C 0.65957 0.16181 0.89114 0.0
C1065 C 0.64769 0.19212 0.89353 0.0
C1066 C 0.663 0.21498 0.91813 0.0
C1067 C 0.66092 0.21891 0.87051 0.0
C1068 C 0.60429 0.16697 0.89411 0.0
C1069 C 0.59357 0.12859 0.89206 0.0
C1070 C 0.55525 0.09967 0.8928 0.0
C1071 C 0.5271 0.11013 0.89598 0.0
C1072 C 0.53723 0.14921 0.89846 0.0
C1073 C 0.57641 0.17801 0.89716 0.0
H1074 H 0.43141 0.57193 0.42938 0.0
H1075 H 0.41603 0.51458 0.35755 0.0
H1076 H 0.48139 0.56441 0.34489 0.0
H1077 H 0.48568 0.66861 0.40615 0.0
H1078 H 0.51649 0.68588 0.43335 0.0
H1079 H 0.46833 0.64601 0.43634 0.0
H1080 H 0.49488 0.60452 0.45541 0.0
H1081 H 0.54313 0.64424 0.45238 0.0
H1082 H 0.5302 0.5986 0.43818 0.0
H1083 H 0.54998 0.62196 0.34016 0.0
H1084 H 0.61343 0.68138 0.34392 0.0
H1085 H 0.58345 0.69833 0.41943 0.0
C1086 C 0.44174 0.56951 0.41104 0.0
C1087 C 0.41821 0.53905 0.39452 0.0
C1088 C 0.43302 0.53775 0.3705 0.0
C1089 C 0.47034 0.56584 0.36318 0.0
C1090 C 0.49279 0.59523 0.38004 0.0
C1091 C 0.47889 0.59719 0.40347 0.0
C1092 C 0.50849 0.63164 0.41816 0.0
C1093 C 0.49387 0.65969 0.42382 0.0
C1094 C 0.51984 0.61898 0.44247 0.0
C1095 C 0.54133 0.64868 0.39946 0.0
C1096 C 0.53187 0.62749 0.37751 0.0
C1097 C 0.55765 0.63859 0.35736 0.0
C1098 C 0.59372 0.67234 0.35966 0.0
C1099 C 0.60381 0.69455 0.382 0.0
C1100 C 0.57711 0.68203 0.40213 0.0
H1101 H 0.85474 0.55684 0.90898 0.0
H1102 H 0.95252 0.61399 0.85863 0.0
H1103 H 0.95571 0.55422 0.85591 0.0
H1104 H 0.88801 0.50271 0.94315 0.0
H1105 H 0.84109 0.4608 0.94629 0.0
H1106 H 0.84587 0.50768 0.94363 0.0
H1107 H 0.79988 0.48457 0.90533 0.0
H1108 H 0.79498 0.43759 0.90783 0.0
H1109 H 0.81056 0.46382 0.87863 0.0
H1110 H 0.94916 0.48833 0.85961 0.0
H1111 H 0.93351 0.42194 0.86933 0.0
H1112 H 0.84015 0.408 0.9174 0.0
C1113 C 0.87682 0.55692 0.89728 0.0
C1114 C 0.90343 0.59036 0.88401 0.0
C1115 C 0.93178 0.5889 0.86897 0.0
C1116 C 0.93381 0.55502 0.86729 0.0
C1117 C 0.90722 0.52271 0.88069 0.0
C1118 C 0.87923 0.52339 0.89536 0.0
C1119 C 0.85444 0.48499 0.90822 0.0
C1120 C 0.85756 0.48932 0.93703 0.0
C1121 C 0.81248 0.46666 0.89947 0.0
C1122 C 0.87303 0.4626 0.89866 0.0
C1123 C 0.90338 0.48486 0.88277 0.0
C1124 C 0.92543 0.47068 0.87201 0.0
C1125 C 0.91643 0.43295 0.87776 0.0
C1126 C 0.88563 0.40962 0.89418 0.0
C1127 C 0.86354 0.42479 0.90454 0.0
H1128 H 0.14043 0.35404 0.30483 0.0
H1129 H 0.25599 0.4088 0.33542 0.0
H1130 H 0.28244 0.42285 0.29249 0.0
H1131 H 0.15677 0.30757 0.25553 0.0
H1132 H 0.12689 0.31369 0.23286 0.0
H1133 H 0.1168 0.31256 0.26593 0.0
H1134 H 0.12077 0.37876 0.26222 0.0
H1135 H 0.1309 0.3801 0.22906 0.0
H1136 H 0.16328 0.41897 0.2492 0.0
H1137 H 0.29644 0.42338 0.24708 0.0
H1138 H 0.29691 0.41079 0.20164 0.0
H1139 H 0.17293 0.35767 0.19954 0.0
C1140 C 0.1713 0.36979 0.3025 0.0
C1141 C 0.19609 0.38034 0.32355 0.0
C1142 C 0.23634 0.40031 0.31965 0.0
C1143 C 0.25171 0.40865 0.29531 0.0
C1144 C 0.22654 0.39713 0.27498 0.0
C1145 C 0.18719 0.37835 0.27825 0.0
C1146 C 0.16656 0.36634 0.25313 0.0
C1147 C 0.14022 0.32244 0.25179 0.0
C1148 C 0.14405 0.3873 0.24811 0.0
C1149 C 0.20044 0.38007 0.23536 0.0
C1150 C 0.23476 0.39812 0.2484 0.0
C1151 C 0.26985 0.41008 0.23656 0.0
C1152 C 0.26984 0.40274 0.2108 0.0
C1153 C 0.23504 0.38386 0.19713 0.0
C1154 C 0.2 0.37319 0.20945 0.0
H1155 H 0.82163 0.15827 0.69432 0.0
H1156 H 0.90564 0.27996 0.69492 0.0
H1157 H 0.89353 0.28298 0.74018 0.0
H1158 H 0.7551 0.16078 0.74222 0.0
H1159 H 0.74588 0.11606 0.75619 0.0
H1160 H 0.75662 0.12452 0.72308 0.0
H1161 H 0.81259 0.11067 0.72864 0.0
H1162 H 0.80211 0.10229 0.76171 0.0
H1163 H 0.84955 0.13775 0.75148 0.0
H1164 H 0.87724 0.27192 0.78565 0.0
H1165 H 0.86003 0.24714 0.8289 0.0
H1166 H 0.78795 0.13184 0.79955 0.0
C1167 C 0.83661 0.18571 0.70388 0.0
C1168 C 0.86425 0.219 0.69116 0.0
C1169 C 0.88426 0.25419 0.70437 0.0
C1170 C 0.87743 0.25622 0.73002 0.0
C1171 C 0.85065 0.22274 0.74222 0.0
C1172 C 0.83056 0.1881 0.72965 0.0
C1173 C 0.80642 0.15568 0.74776 0.0
C1174 C 0.76345 0.13824 0.74196 0.0
C1175 C 0.8184 0.1248 0.74737 0.0
C1176 C 0.81689 0.17737 0.7725 0.0
C1177 C 0.84192 0.2161 0.76878 0.0
C1178 C 0.85731 0.24171 0.78881 0.0
C1179 C 0.8474 0.22729 0.81334 0.0
C1180 C 0.82257 0.18751 0.81771 0.0
C1181 C 0.80664 0.16244 0.79691 0.0
H1182 H 0.70297 0.90625 0.20538 0.0
H1183 H 0.60625 0.79823 0.18101 0.0
H1184 H 0.58899 0.77894 0.22564 0.0
H1185 H 0.73068 0.86588 0.25341 0.0
H1186 H 0.74699 0.90638 0.27433 0.0
H1187 H 0.74763 0.9134 0.24088 0.0
H1188 H 0.70624 0.94581 0.24672 0.0
H1189 H 0.70515 0.93845 0.28024 0.0
H1190 H 0.6609 0.92033 0.26294 0.0
H1191 H 0.58461 0.77065 0.27338 0.0
H1192 H 0.59925 0.76974 0.31869 0.0
H1193 H 0.70161 0.88114 0.31055 0.0
C1194 C 0.67765 0.87889 0.20946 0.0
C1195 C 0.65549 0.85394 0.18989 0.0
C1196 C 0.62338 0.8178 0.19585 0.0
C1197 C 0.61325 0.8068 0.22109 0.0
C1198 C 0.63586 0.83211 0.24004 0.0
C1199 C 0.66776 0.86717 0.23441 0.0
C1200 C 0.69024 0.88716 0.25783 0.0
C1201 C 0.73129 0.89355 0.25653 0.0
C1202 C 0.69063 0.92519 0.26218 0.0
C1203 C 0.66643 0.85767 0.27756 0.0
C1204 C 0.63459 0.82652 0.26712 0.0
C1205 C 0.60928 0.79505 0.28175 0.0
C1206 C 0.61757 0.79487 0.30747 0.0
C1207 C 0.65128 0.82555 0.31796 0.0
C1208 C 0.67537 0.85761 0.30294 0.0
H1209 H 0.85758 0.71692 0.6993 0.0
H1210 H 0.79764 0.59401 0.68578 0.0
H1211 H 0.80085 0.58256 0.73133 0.0
H1212 H 0.92251 0.71674 0.74609 0.0
H1213 H 0.92239 0.75448 0.76436 0.0
H1214 H 0.9147 0.75238 0.73087 0.0
H1215 H 0.85064 0.75173 0.7382 0.0
H1216 H 0.85796 0.75348 0.77172 0.0
H1217 H 0.81447 0.71534 0.75816 0.0
H1218 H 0.80793 0.58507 0.77897 0.0
H1219 H 0.825 0.60142 0.82387 0.0
H1220 H 0.88341 0.72268 0.80496 0.0
C1221 C 0.84516 0.68758 0.70592 0.0
C1222 C 0.82716 0.6563 0.68915 0.0
C1223 C 0.81169 0.61835 0.6984 0.0
C1224 C 0.81318 0.6116 0.72421 0.0
C1225 C 0.83073 0.64316 0.74032 0.0
C1226 C 0.84699 0.6804 0.73144 0.0
C1227 C 0.8653 0.70942 0.75239 0.0
C1228 C 0.9088 0.73473 0.74817 0.0
C1229 C 0.84592 0.73392 0.75528 0.0
C1230 C 0.8566 0.68273 0.77456 0.0
C1231 C 0.83623 0.64461 0.76734 0.0
C1232 C 0.82414 0.61483 0.7848 0.0
C1233 C 0.83374 0.62435 0.81023 0.0
C1234 C 0.85565 0.66326 0.81776 0.0
C1235 C 0.86693 0.69267 0.79967 0.0
H1236 H 0.14001 0.80229 0.20533 0.0
H1237 H 0.25544 0.85593 0.17471 0.0
H1238 H 0.28203 0.87413 0.21769 0.0
H1239 H 0.15775 0.87073 0.25253 0.0
H1240 H 0.12693 0.83617 0.27563 0.0
H1241 H 0.11711 0.82591 0.24262 0.0
H1242 H 0.11885 0.76268 0.24815 0.0
H1243 H 0.12852 0.77266 0.28123 0.0
H1244 H 0.16051 0.76422 0.26202 0.0
H1245 H 0.29572 0.89137 0.26371 0.0
H1246 H 0.29542 0.90166 0.30964 0.0
H1247 H 0.17109 0.8335 0.30999 0.0
C1248 C 0.17089 0.81762 0.20766 0.0
C1249 C 0.19569 0.82784 0.18671 0.0
C1250 C 0.23592 0.84767 0.19054 0.0
C1251 C 0.25128 0.85822 0.21486 0.0
C1252 C 0.22599 0.84816 0.23509 0.0
C1253 C 0.18666 0.82783 0.23177 0.0
C1254 C 0.16567 0.82075 0.25656 0.0
C1255 C 0.14039 0.83952 0.25684 0.0
C1256 C 0.142 0.7775 0.26233 0.0
C1257 C 0.19933 0.84091 0.27434 0.0
C1258 C 0.2339 0.85671 0.26162 0.0
C1259 C 0.26885 0.87863 0.27393 0.0
C1260 C 0.26841 0.88445 0.29994 0.0
C1261 C 0.23328 0.86803 0.31331 0.0
C1262 C 0.19841 0.8458 0.30031 0.0
H1263 H 0.37354 0.17433 0.81291 0.0
H1264 H 0.36886 0.27941 0.80611 0.0
H1265 H 0.37707 0.27892 0.76004 0.0
H1266 H 0.44173 0.19238 0.76052 0.0
H1267 H 0.41634 0.14299 0.75033 0.0
H1268 H 0.41587 0.1545 0.78308 0.0
H1269 H 0.3415 0.11742 0.78264 0.0
H1270 H 0.34174 0.1059 0.74994 0.0
H1271 H 0.31651 0.13018 0.75986 0.0
H1272 H 0.38154 0.26513 0.71484 0.0
H1273 H 0.37722 0.23654 0.67305 0.0
H1274 H 0.37485 0.13798 0.7086 0.0
C1275 C 0.37526 0.19765 0.80168 0.0
C1276 C 0.37119 0.22725 0.81288 0.0
C1277 C 0.37223 0.25669 0.79771 0.0
C1278 C 0.37703 0.25673 0.77161 0.0
C1279 C 0.38027 0.22681 0.76095 0.0
C1280 C 0.37918 0.19763 0.77543 0.0
C1281 C 0.37918 0.16682 0.75895 0.0
C1282 C 0.41545 0.16403 0.76349 0.0
C1283 C 0.34255 0.12779 0.7631 0.0
C1284 C 0.37968 0.18291 0.73303 0.0
C1285 C 0.38107 0.21789 0.73465 0.0
C1286 C 0.3807 0.23786 0.7133 0.0
C1287 C 0.37827 0.22138 0.68963 0.0
C1288 C 0.37563 0.18499 0.6875 0.0
C1289 C 0.37685 0.16585 0.70956 0.0
H1290 H 0.34273 0.30738 0.9573 0.0
H1291 H 0.29372 0.1848 0.96951 0.0
H1292 H 0.25637 0.18822 0.00539 0.0
H1293 H 0.35155 0.33387 0.02317 0.0
H1294 H 0.33978 0.37111 0.01786 0.0
H1295 H 0.36267 0.35873 0.9934 0.0
H1296 H 0.30738 0.34647 0.96293 0.0
H1297 H 0.28393 0.3581 0.98745 0.0
H1298 H 0.25857 0.31246 0.97155 0.0
H1299 H 0.22297 0.20446 0.03876 0.0
H1300 H 0.20176 0.23334 0.07124 0.0
H1301 H 0.27316 0.3461 0.03815 0.0
C1302 C 0.32441 0.28127 0.96766 0.0
C1303 C 0.32113 0.24574 0.96059 0.0
C1304 C 0.29691 0.21233 0.97466 0.0
C1305 C 0.27533 0.21396 0.99492 0.0
C1306 C 0.27849 0.24924 1.00092 0.0
C1307 C 0.30287 0.28242 0.98799 0.0
C1308 C 0.30168 0.31686 0.99869 0.0
C1309 C 0.34127 0.34691 0.00889 0.0
C1310 C 0.28701 0.3345 0.97898 0.0
C1311 C 0.27283 0.29789 0.01979 0.0
C1312 C 0.25955 0.25878 0.02048 0.0
C1313 C 0.23325 0.23502 0.03844 0.0
C1314 C 0.22128 0.25177 0.05678 0.0
C1315 C 0.23573 0.29203 0.05725 0.0
C1316 C 0.26114 0.31523 0.03807 0.0
H1317 H 0.08498 0.25761 0.47018 0.0
H1318 H 0.10395 0.37343 0.46417 0.0
H1319 H 0.05071 0.35687 0.49409 0.0
H1320 H 0.98465 0.20824 0.47432 0.0
H1321 H 0.98077 0.17398 0.49774 0.0
H1322 H 1.02122 0.19494 0.47663 0.0
H1323 H 0.06836 0.21933 0.51445 0.0
H1324 H 0.02805 0.19745 0.53565 0.0
H1325 H 0.06282 0.24782 0.53852 0.0
H1326 H 0.99071 0.32524 0.52095 0.0
H1327 H 0.93766 0.28561 0.55032 0.0
H1328 H 0.96194 0.19245 0.54236 0.0
C1329 C 0.07848 0.27969 0.47572 0.0
C1330 C 0.09867 0.31689 0.46512 0.0
C1331 C 0.08923 0.345 0.47248 0.0
C1332 C 0.05875 0.33569 0.4892 0.0
C1333 C 0.03863 0.2984 0.49879 0.0
C1334 C 0.04893 0.27122 0.49299 0.0
C1335 C 0.02346 0.23362 0.50653 0.0
C1336 C 1.00121 0.20077 0.48768 0.0
C1337 C 0.04708 0.22401 0.52487 0.0
C1338 C 0.99679 0.24367 0.52051 0.0
C1339 C 1.00553 0.28092 0.51538 0.0
C1340 C 0.98392 0.2962 0.52534 0.0
C1341 C 0.95353 0.27333 0.54173 0.0
C1342 C 0.94557 0.23592 0.54837 0.0
C1343 C 0.96728 0.22086 0.5374 0.0
H1344 H 0.77776 0.95525 0.03873 0.0
H1345 H 0.66325 0.9364 0.05195 0.0
H1346 H 0.67525 0.98783 0.02152 0.0
H1347 H 0.82628 0.05625 0.03102 0.0
H1348 H 0.85651 0.0579 0.00544 0.0
H1349 H 0.83927 0.01947 0.02813 0.0
H1350 H 0.80929 0.96903 0.99245 0.0
H1351 H 0.82714 1.00729 0.96961 0.0
H1352 H 0.77674 0.97205 0.97047 0.0
H1353 H 0.70207 0.04552 0.99289 0.0
H1354 H 0.73651 0.09638 0.96106 0.0
H1355 H 0.83081 0.07315 0.96244 0.0
C1356 C 0.75506 0.96158 0.03479 0.0
C1357 C 0.71949 0.94181 0.04749 0.0
C1358 C 0.69046 0.95085 0.04208 0.0
C1359 C 0.69717 0.98029 0.02505 0.0
C1360 C 0.73279 0.99981 0.01317 0.0
C1361 C 0.76085 0.99007 0.01718 0.0
C1362 C 0.79591 1.0144 1.00101 0.0
C1363 C 0.83159 0.03842 0.01739 0.0
C1364 C 0.80265 0.98919 0.98227 0.0
C1365 C 0.78341 0.03972 0.98762 0.0
C1366 C 0.74723 0.03136 0.99534 0.0
C1367 C 0.73021 0.052 0.98646 0.0
C1368 C 0.75013 0.0811 0.96861 0.0
C1369 C 0.78628 0.0887 0.95942 0.0
C1370 C 0.80321 0.0679 0.96922 0.0
H1371 H 0.73405 0.68702 0.55057 0.0
H1372 H 0.85442 0.73166 0.53296 0.0
H1373 H 0.84927 0.7698 0.49817 0.0
H1374 H 0.70153 0.67872 0.48631 0.0
H1375 H 0.6662 0.69225 0.4939 0.0
H1376 H 0.67982 0.66861 0.51711 0.0
H1377 H 0.69705 0.72483 0.54802 0.0
H1378 H 0.68432 0.7491 0.52469 0.0
H1379 H 0.73145 0.77321 0.53868 0.0
H1380 H 0.8312 0.80315 0.46578 0.0
H1381 H 0.79989 0.82395 0.43458 0.0
H1382 H 0.69122 0.75834 0.47343 0.0
C1383 C 0.75931 0.70457 0.53928 0.0
C1384 C 0.7947 0.70637 0.54446 0.0
C1385 C 0.82698 0.7296 0.52921 0.0
C1386 C 0.8244 0.75164 0.50959 0.0
C1387 C 0.78934 0.74999 0.50548 0.0
C1388 C 0.75722 0.72662 0.51964 0.0
C1389 C 0.72265 0.72916 0.51089 0.0
C1390 C 0.69067 0.68986 0.50149 0.0
C1391 C 0.70802 0.74503 0.53182 0.0
C1392 C 0.74029 0.75761 0.48946 0.0
C1393 C 0.77889 0.76945 0.48685 0.0
C1394 C 0.80111 0.79427 0.46773 0.0
C1395 C 0.78313 0.80608 0.45021 0.0
C1396 C 0.74335 0.79319 0.45191 0.0
C1397 C 0.72187 0.76948 0.47218 0.0
H1398 H 0.95806 0.67401 0.96692 0.0
H1399 H 0.94338 0.77318 0.95891 0.0
H1400 H 0.99445 0.80816 0.99068 0.0
H1401 H 0.97651 0.68481 0.03588 0.0
H1402 H 1.01028 0.66783 0.0337 0.0
H1403 H 0.97085 0.65065 0.01187 0.0
H1404 H 1.0193 0.67247 0.97487 0.0
H1405 H 0.05894 0.69083 0.99656 0.0
H1406 H 0.05694 0.72199 0.97293 0.0
H1407 H 0.05297 0.83452 0.01937 0.0
H1408 H 0.10506 0.84588 0.04921 0.0
H1409 H 0.07751 0.72758 0.04043 0.0
C1410 C 0.96478 0.70263 0.97256 0.0
C1411 C 0.94661 0.72086 0.96097 0.0
C1412 C 0.95648 0.75857 0.96819 0.0
C1413 C 0.98573 0.77873 0.98592 0.0
C1414 C 1.00413 0.76037 0.99644 0.0
C1415 C 0.99316 0.72271 0.99059 0.0
C1416 C 1.01722 0.70938 0.00452 0.0
C1417 C 0.99223 0.67621 0.02257 0.0
C1418 C 0.0394 0.69801 0.98611 0.0
C1419 C 0.04405 0.74563 0.01872 0.0
C1420 C 0.03651 0.77496 0.01356 0.0
C1421 C 0.05879 0.81162 0.02377 0.0
C1422 C 0.0886 0.81798 0.04038 0.0
C1423 C 0.09529 0.78764 0.0468 0.0
C1424 C 0.07299 0.75124 0.03563 0.0
H1425 H 0.20827 0.94437 0.46609 0.0
H1426 H 0.29589 0.91201 0.46026 0.0
H1427 H 0.33363 0.95915 0.49349 0.0
H1428 H 0.26885 0.04288 0.47519 0.0
H1429 H 0.23895 0.04872 0.49798 0.0
H1430 H 0.21763 1.01098 0.47489 0.0
H1431 H 0.18592 0.95991 0.51012 0.0
H1432 H 0.20627 0.99757 0.53333 0.0
H1433 H 0.21526 0.95794 0.53508 0.0
H1434 H 0.36512 0.01564 0.52371 0.0
H1435 H 0.38201 0.06766 0.55486 0.0
H1436 H 0.2712 0.05881 0.54343 0.0
C1437 C 0.23492 0.94654 0.47233 0.0
C1438 C 0.24909 0.92442 0.46088 0.0
C1439 C 0.28426 0.92823 0.4692 0.0
C1440 C 0.30606 0.95524 0.48782 0.0
C1441 C 0.29186 0.97758 0.49818 0.0
C1442 C 0.25655 0.97267 0.49125 0.0
C1443 C 0.2475 0.99988 0.50544 0.0
C1444 C 0.24298 0.02722 0.48729 0.0
C1445 C 0.21162 0.97748 0.52198 0.0
C1446 C 0.28343 0.02125 0.52124 0.0
C1447 C 0.30903 1.00853 0.51643 0.0
C1448 C 0.34505 0.0254 0.52788 0.0
C1449 C 0.35458 0.05516 0.5453 0.0
C1450 C 0.32788 0.06707 0.55139 0.0
C1451 C 0.29205 0.05008 0.53906 0.0
loop_
_geom_bond_atom_site_label_1
_geom_bond_atom_site_label_2
_geom_bond_distance
_geom_bond_site_symmetry_2
_ccdc_geom_bond_type
Dy0 O3 2.307 . S
Dy0 O5 2.395 . S
Dy0 O6 2.379 . S
Dy0 O8 2.339 . S
Dy0 O10 2.298 . S
Dy0 O14 2.275 . S
Dy0 C22 2.738 . S
Dy1 O4 2.298 . S
Dy1 O7 2.275 . S
Dy1 O9 2.307 . S
Dy1 O11 2.395 . S
Dy1 O12 2.379 . S
Dy1 O15 2.339 . S
Dy1 C31 2.738 . S
C2 O14 1.254 . S
C2 O15 1.257 . S
O3 Dy0 2.307 . S
O3 C13 1.266 . S
O4 Dy1 2.298 . S
O4 C13 1.236 . S
O5 Dy0 2.395 . S
O5 C22 1.255 . S
O6 Dy0 2.379 . S
O6 C22 1.249 . S
O7 Dy1 2.275 . S
O7 C23 1.254 . S
O8 Dy0 2.339 . S
O8 C23 1.257 . S
O9 Dy1 2.307 . S
O9 C24 1.266 . S
O10 Dy0 2.298 . S
O10 C24 1.236 . S
O11 Dy1 2.395 . S
O11 C31 1.255 . S
O12 Dy1 2.379 . S
O12 C31 1.249 . S
C13 O3 1.266 . S
C13 O4 1.236 . S
O14 Dy0 2.275 . S
O14 C2 1.254 . S
O15 Dy1 2.339 . S
O15 C2 1.257 . S
C16 C19 1.344 . S
C16 C20 1.328 . S
C16 C22 1.516 . S
C17 C18 1.304 . S
C17 C21 1.323 . S
C18 C17 1.304 . S
C18 C19 1.371 . S
C18 H32 0.930 . S
C19 C16 1.344 . S
C19 C18 1.371 . S
C19 H33 0.931 . S
C20 C16 1.328 . S
C20 C21 1.433 . S
C20 H34 0.931 . S
C21 C17 1.323 . S
C21 C20 1.433 . S
C21 H35 0.933 . S
C22 Dy0 2.738 . S
C22 O5 1.255 . S
C22 O6 1.249 . S
C22 C16 1.516 . S
C23 O7 1.254 . S
C23 O8 1.257 . S
C24 O9 1.266 . S
C24 O10 1.236 . S
C25 C28 1.344 . S
C25 C29 1.328 . S
C25 C31 1.516 . S
C26 C27 1.304 . S
C26 C30 1.323 . S
C27 C26 1.304 . S
C27 C28 1.371 . S
C27 H36 0.930 . S
C28 C25 1.344 . S
C28 C27 1.371 . S
C28 H37 0.931 . S
C29 C25 1.328 . S
C29 C30 1.433 . S
C29 H38 0.931 . S
C30 C26 1.323 . S
C30 C29 1.433 . S
C30 H39 0.933 . S
C31 Dy1 2.738 . S
C31 O11 1.255 . S
C31 O12 1.249 . S
C31 C25 1.516 . S
H32 C18 0.930 . S
H33 C19 0.931 . S
H34 C20 0.931 . S
H35 C21 0.933 . S
H36 C27 0.930 . S
H37 C28 0.931 . S
H38 C29 0.931 . S
H39 C30 0.933 . S
Dy40 O43 2.307 . S
Dy40 O45 2.395 . S
Dy40 O46 2.379 . S
Dy40 O48 2.339 . S
Dy40 O50 2.298 . S
Dy40 O54 2.275 . S
Dy40 C62 2.738 . S
Dy41 O44 2.298 . S
Dy41 O47 2.275 . S
Dy41 O49 2.307 . S
Dy41 O51 2.395 . S
Dy41 O52 2.379 . S
Dy41 O55 2.339 . S
Dy41 C71 2.738 . S
C42 O54 1.254 . S
C42 O55 1.257 . S
O43 Dy40 2.307 . S
O43 C53 1.266 . S
O44 Dy41 2.298 . S
O44 C53 1.236 . S
O45 Dy40 2.395 . S
O45 C62 1.255 . S
O46 Dy40 2.379 . S
O46 C62 1.249 . S
O47 Dy41 2.275 . S
O47 C63 1.254 . S
O48 Dy40 2.339 . S
O48 C63 1.257 . S
O49 Dy41 2.307 . S
O49 C64 1.266 . S
O50 Dy40 2.298 . S
O50 C64 1.236 . S
O51 Dy41 2.395 . S
O51 C71 1.255 . S
O52 Dy41 2.379 . S
O52 C71 1.249 . S
C53 O43 1.266 . S
C53 O44 1.236 . S
O54 Dy40 2.275 . S
O54 C42 1.254 . S
O55 Dy41 2.339 . S
O55 C42 1.257 . S
C56 C59 1.344 . S
C56 C60 1.328 . S
C56 C62 1.516 1_455 S
C57 C58 1.304 . S
C57 C61 1.323 . S
C58 C57 1.304 . S
C58 C59 1.371 . S
C58 H72 0.930 . S
C59 C56 1.344 . S
C59 C58 1.371 . S
C59 H73 0.931 . S
C60 C56 1.328 . S
C60 C61 1.433 . S
C60 H74 0.931 . S
C61 C57 1.323 . S
C61 C60 1.433 . S
C61 H75 0.933 . S
C62 Dy40 2.738 . S
C62 O45 1.255 . S
C62 O46 1.249 . S
C62 C56 1.516 1_655 S
C63 O47 1.254 . S
C63 O48 1.257 . S
C64 O49 1.266 . S
C64 O50 1.236 . S
C65 C68 1.344 . S
C65 C69 1.328 . S
C65 C71 1.516 . S
C66 C67 1.304 . S
C66 C70 1.323 . S
C67 C66 1.304 . S
C67 C68 1.371 . S
C67 H76 0.930 . S
C68 C65 1.344 . S
C68 C67 1.371 . S
C68 H77 0.931 . S
C69 C65 1.328 . S
C69 C70 1.433 . S
C69 H78 0.931 . S
C70 C66 1.323 . S
C70 C69 1.433 . S
C70 H79 0.933 . S
C71 Dy41 2.738 . S
C71 O51 1.255 . S
C71 O52 1.249 . S
C71 C65 1.516 . S
H72 C58 0.930 . S
H73 C59 0.931 . S
H74 C60 0.931 . S
H75 C61 0.933 . S
H76 C67 0.930 . S
H77 C68 0.931 . S
H78 C69 0.931 . S
H79 C70 0.933 . S
Dy80 O83 2.307 . S
Dy80 O85 2.395 . S
Dy80 O86 2.379 . S
Dy80 O88 2.339 . S
Dy80 O90 2.298 . S
Dy80 O94 2.275 . S
Dy80 C102 2.738 . S
Dy81 O84 2.298 . S
Dy81 O87 2.275 . S
Dy81 O89 2.307 . S
Dy81 O91 2.395 . S
Dy81 O92 2.379 . S
Dy81 O95 2.339 . S
Dy81 C111 2.738 . S
C82 O94 1.254 . S
C82 O95 1.257 . S
O83 Dy80 2.307 . S
O83 C93 1.266 . S
O84 Dy81 2.298 . S
O84 C93 1.236 . S
O85 Dy80 2.395 . S
O85 C102 1.255 . S
O86 Dy80 2.379 . S
O86 C102 1.249 . S
O87 Dy81 2.275 . S
O87 C103 1.254 . S
O88 Dy80 2.339 . S
O88 C103 1.257 . S
O89 Dy81 2.307 . S
O89 C104 1.266 . S
O90 Dy80 2.298 . S
O90 C104 1.236 . S
O91 Dy81 2.395 . S
O91 C111 1.255 . S
O92 Dy81 2.379 . S
O92 C111 1.249 . S
C93 O83 1.266 . S
C93 O84 1.236 . S
O94 Dy80 2.275 . S
O94 C82 1.254 . S
O95 Dy81 2.339 . S
O95 C82 1.257 . S
C96 C99 1.344 . S
C96 C100 1.328 . S
C96 C102 1.516 1_545 S
C97 C98 1.304 . S
C97 C101 1.323 . S
C98 C97 1.304 . S
C98 C99 1.371 . S
C98 H112 0.930 . S
C99 C96 1.344 . S
C99 C98 1.371 . S
C99 H113 0.931 . S
C100 C96 1.328 . S
C100 C101 1.433 . S
C100 H114 0.931 . S
C101 C97 1.323 . S
C101 C100 1.433 . S
C101 H115 0.933 . S
C102 Dy80 2.738 . S
C102 O85 1.255 . S
C102 O86 1.249 . S
C102 C96 1.516 1_565 S
C103 O87 1.254 . S
C103 O88 1.257 . S
C104 O89 1.266 . S
C104 O90 1.236 . S
C105 C108 1.344 . S
C105 C109 1.328 . S
C105 C111 1.516 . S
C106 C107 1.304 . S
C106 C110 1.323 . S
C107 C106 1.304 . S
C107 C108 1.371 . S
C107 H116 0.930 . S
C108 C105 1.344 . S
C108 C107 1.371 . S
C108 H117 0.931 . S
C109 C105 1.328 . S
C109 C110 1.433 . S
C109 H118 0.931 . S
C110 C106 1.323 . S
C110 C109 1.433 . S
C110 H119 0.933 . S
C111 Dy81 2.738 . S
C111 O91 1.255 . S
C111 O92 1.249 . S
C111 C105 1.516 . S
H112 C98 0.930 . S
H113 C99 0.931 . S
H114 C100 0.931 . S
H115 C101 0.933 . S
H116 C107 0.930 . S
H117 C108 0.931 . S
H118 C109 0.931 . S
H119 C110 0.933 . S
Dy120 O123 2.307 . S
Dy120 O125 2.395 . S
Dy120 O126 2.379 . S
Dy120 O128 2.339 . S
Dy120 O130 2.298 . S
Dy120 O134 2.275 . S
Dy120 C142 2.738 . S
Dy121 O124 2.298 . S
Dy121 O127 2.275 . S
Dy121 O129 2.307 . S
Dy121 O131 2.395 . S
Dy121 O132 2.379 . S
Dy121 O135 2.339 . S
Dy121 C151 2.738 . S
C122 O134 1.254 . S
C122 O135 1.257 . S
O123 Dy120 2.307 . S
O123 C133 1.266 . S
O124 Dy121 2.298 . S
O124 C133 1.236 . S
O125 Dy120 2.395 . S
O125 C142 1.255 . S
O126 Dy120 2.379 . S
O126 C142 1.249 . S
O127 Dy121 2.275 . S
O127 C143 1.254 . S
O128 Dy120 2.339 . S
O128 C143 1.257 . S
O129 Dy121 2.307 . S
O129 C144 1.266 . S
O130 Dy120 2.298 . S
O130 C144 1.236 . S
O131 Dy121 2.395 . S
O131 C151 1.255 . S
O132 Dy121 2.379 . S
O132 C151 1.249 . S
C133 O123 1.266 . S
C133 O124 1.236 . S
O134 Dy120 2.275 . S
O134 C122 1.254 . S
O135 Dy121 2.339 . S
O135 C122 1.257 . S
C136 C139 1.344 . S
C136 C140 1.328 . S
C136 C142 1.516 . S
C137 C138 1.304 . S
C137 C141 1.323 . S
C138 C137 1.304 . S
C138 C139 1.371 . S
C138 H152 0.930 . S
C139 C136 1.344 . S
C139 C138 1.371 . S
C139 H153 0.931 . S
C140 C136 1.328 . S
C140 C141 1.433 . S
C140 H154 0.931 . S
C141 C137 1.323 . S
C141 C140 1.433 . S
C141 H155 0.933 . S
C142 Dy120 2.738 . S
C142 O125 1.255 . S
C142 O126 1.249 . S
C142 C136 1.516 . S
C143 O127 1.254 . S
C143 O128 1.257 . S
C144 O129 1.266 . S
C144 O130 1.236 . S
C145 C148 1.344 . S
C145 C149 1.328 . S
C145 C151 1.516 . S
C146 C147 1.304 . S
C146 C150 1.323 . S
C147 C146 1.304 . S
C147 C148 1.371 . S
C147 H156 0.930 . S
C148 C145 1.344 . S
C148 C147 1.371 . S
C148 H157 0.931 . S
C149 C145 1.328 . S
C149 C150 1.433 . S
C149 H158 0.931 . S
C150 C146 1.323 . S
C150 C149 1.433 . S
C150 H159 0.933 . S
C151 Dy121 2.738 . S
C151 O131 1.255 . S
C151 O132 1.249 . S
C151 C145 1.516 . S
H152 C138 0.930 . S
H153 C139 0.931 . S
H154 C140 0.931 . S
H155 C141 0.933 . S
H156 C147 0.930 . S
H157 C148 0.931 . S
H158 C149 0.931 . S
H159 C150 0.933 . S
Dy160 O163 2.307 . S
Dy160 O165 2.395 . S
Dy160 O166 2.379 . S
Dy160 O168 2.339 . S
Dy160 O170 2.298 . S
Dy160 O174 2.275 . S
Dy160 C182 2.738 . S
Dy161 O164 2.298 . S
Dy161 O167 2.275 . S
Dy161 O169 2.307 . S
Dy161 O171 2.395 . S
Dy161 O172 2.379 . S
Dy161 O175 2.339 . S
Dy161 C191 2.738 . S
C162 O174 1.254 . S
C162 O175 1.257 . S
O163 Dy160 2.307 . S
O163 C173 1.266 . S
O164 Dy161 2.298 . S
O164 C173 1.236 . S
O165 Dy160 2.395 . S
O165 C182 1.255 . S
O166 Dy160 2.379 . S
O166 C182 1.249 . S
O167 Dy161 2.275 . S
O167 C183 1.254 . S
O168 Dy160 2.339 . S
O168 C183 1.257 . S
O169 Dy161 2.307 . S
O169 C184 1.266 . S
O170 Dy160 2.298 . S
O170 C184 1.236 . S
O171 Dy161 2.395 . S
O171 C191 1.255 . S
O172 Dy161 2.379 . S
O172 C191 1.249 . S
C173 O163 1.266 . S
C173 O164 1.236 . S
O174 Dy160 2.275 . S
O174 C162 1.254 . S
O175 Dy161 2.339 . S
O175 C162 1.257 . S
C176 C179 1.344 . S
C176 C180 1.328 . S
C176 C182 1.516 1_655 S
C177 C178 1.304 . S
C177 C181 1.323 . S
C178 C177 1.304 . S
C178 C179 1.371 . S
C178 H192 0.930 . S
C179 C176 1.344 . S
C179 C178 1.371 . S
C179 H193 0.931 . S
C180 C176 1.328 . S
C180 C181 1.433 . S
C180 H194 0.931 . S
C181 C177 1.323 . S
C181 C180 1.433 . S
C181 H195 0.933 . S
C182 Dy160 2.738 . S
C182 O165 1.255 . S
C182 O166 1.249 . S
C182 C176 1.516 1_455 S
C183 O167 1.254 . S
C183 O168 1.257 . S
C184 O169 1.266 . S
C184 O170 1.236 . S
C185 C188 1.344 . S
C185 C189 1.328 . S
C185 C191 1.516 . S
C186 C187 1.304 . S
C186 C190 1.323 . S
C187 C186 1.304 . S
C187 C188 1.371 . S
C187 H196 0.930 . S
C188 C185 1.344 . S
C188 C187 1.371 . S
C188 H197 0.931 . S
C189 C185 1.328 . S
C189 C190 1.433 . S
C189 H198 0.931 . S
C190 C186 1.323 . S
C190 C189 1.433 . S
C190 H199 0.933 . S
C191 Dy161 2.738 . S
C191 O171 1.255 . S
C191 O172 1.249 . S
C191 C185 1.516 . S
H192 C178 0.930 . S
H193 C179 0.931 . S
H194 C180 0.931 . S
H195 C181 0.933 . S
H196 C187 0.930 . S
H197 C188 0.931 . S
H198 C189 0.931 . S
H199 C190 0.933 . S
Dy200 O203 2.307 . S
Dy200 O205 2.395 . S
Dy200 O206 2.379 . S
Dy200 O208 2.339 . S
Dy200 O210 2.298 . S
Dy200 O214 2.275 . S
Dy200 C222 2.738 . S
Dy201 O204 2.298 . S
Dy201 O207 2.275 . S
Dy201 O209 2.307 . S
Dy201 O211 2.395 . S
Dy201 O212 2.379 . S
Dy201 O215 2.339 . S
Dy201 C231 2.738 . S
C202 O214 1.254 . S
C202 O215 1.257 . S
O203 Dy200 2.307 . S
O203 C213 1.266 . S
O204 Dy201 2.298 . S
O204 C213 1.236 . S
O205 Dy200 2.395 . S
O205 C222 1.255 . S
O206 Dy200 2.379 . S
O206 C222 1.249 . S
O207 Dy201 2.275 . S
O207 C223 1.254 . S
O208 Dy200 2.339 . S
O208 C223 1.257 . S
O209 Dy201 2.307 . S
O209 C224 1.266 . S
O210 Dy200 2.298 . S
O210 C224 1.236 . S
O211 Dy201 2.395 . S
O211 C231 1.255 . S
O212 Dy201 2.379 . S
O212 C231 1.249 . S
C213 O203 1.266 . S
C213 O204 1.236 . S
O214 Dy200 2.275 . S
O214 C202 1.254 . S
O215 Dy201 2.339 . S
O215 C202 1.257 . S
C216 C219 1.344 . S
C216 C220 1.328 . S
C216 C222 1.516 1_565 S
C217 C218 1.304 . S
C217 C221 1.323 . S
C218 C217 1.304 . S
C218 C219 1.371 . S
C218 H232 0.930 . S
C219 C216 1.344 . S
C219 C218 1.371 . S
C219 H233 0.931 . S
C220 C216 1.328 . S
C220 C221 1.433 . S
C220 H234 0.931 . S
C221 C217 1.323 . S
C221 C220 1.433 . S
C221 H235 0.933 . S
C222 Dy200 2.738 . S
C222 O205 1.255 . S
C222 O206 1.249 . S
C222 C216 1.516 1_545 S
C223 O207 1.254 . S
C223 O208 1.257 . S
C224 O209 1.266 . S
C224 O210 1.236 . S
C225 C228 1.344 . S
C225 C229 1.328 . S
C225 C231 1.516 . S
C226 C227 1.304 . S
C226 C230 1.323 . S
C227 C226 1.304 . S
C227 C228 1.371 . S
C227 H236 0.930 . S
C228 C225 1.344 . S
C228 C227 1.371 . S
C228 H237 0.931 . S
C229 C225 1.328 . S
C229 C230 1.433 . S
C229 H238 0.931 . S
C230 C226 1.323 . S
C230 C229 1.433 . S
C230 H239 0.933 . S
C231 Dy201 2.738 . S
C231 O211 1.255 . S
C231 O212 1.249 . S
C231 C225 1.516 . S
H232 C218 0.930 . S
H233 C219 0.931 . S
H234 C220 0.931 . S
H235 C221 0.933 . S
H236 C227 0.930 . S
H237 C228 0.931 . S
H238 C229 0.931 . S
H239 C230 0.933 . S
Dy240 O243 2.307 . S
Dy240 O245 2.395 . S
Dy240 O246 2.379 . S
Dy240 O248 2.339 . S
Dy240 O250 2.298 . S
Dy240 O254 2.275 . S
Dy240 C262 2.738 . S
Dy241 O244 2.298 . S
Dy241 O247 2.275 . S
Dy241 O249 2.307 . S
Dy241 O251 2.395 . S
Dy241 O252 2.379 . S
Dy241 O255 2.339 . S
Dy241 C271 2.738 . S
C242 O254 1.254 . S
C242 O255 1.257 . S
O243 Dy240 2.307 . S
O243 C253 1.266 . S
O244 Dy241 2.298 . S
O244 C253 1.236 . S
O245 Dy240 2.395 . S
O245 C262 1.255 . S
O246 Dy240 2.379 . S
O246 C262 1.249 . S
O247 Dy241 2.275 . S
O247 C263 1.254 . S
O248 Dy240 2.339 . S
O248 C263 1.257 . S
O249 Dy241 2.307 . S
O249 C264 1.266 . S
O250 Dy240 2.298 . S
O250 C264 1.236 . S
O251 Dy241 2.395 . S
O251 C271 1.255 . S
O252 Dy241 2.379 . S
O252 C271 1.249 . S
C253 O243 1.266 . S
C253 O244 1.236 . S
O254 Dy240 2.275 . S
O254 C242 1.254 . S
O255 Dy241 2.339 . S
O255 C242 1.257 . S
C256 C259 1.344 . S
C256 C260 1.328 . S
C256 C262 1.516 . S
C257 C258 1.304 . S
C257 C261 1.323 . S
C258 C257 1.304 . S
C258 C259 1.371 . S
C258 H272 0.930 . S
C259 C256 1.344 . S
C259 C258 1.371 . S
C259 H273 0.931 . S
C260 C256 1.328 . S
C260 C261 1.433 . S
C260 H274 0.931 . S
C261 C257 1.323 . S
C261 C260 1.433 . S
C261 H275 0.933 . S
C262 Dy240 2.738 . S
C262 O245 1.255 . S
C262 O246 1.249 . S
C262 C256 1.516 . S
C263 O247 1.254 . S
C263 O248 1.257 . S
C264 O249 1.266 . S
C264 O250 1.236 . S
C265 C268 1.344 . S
C265 C269 1.328 . S
C265 C271 1.516 . S
C266 C267 1.304 . S
C266 C270 1.323 . S
C267 C266 1.304 . S
C267 C268 1.371 . S
C267 H276 0.930 . S
C268 C265 1.344 . S
C268 C267 1.371 . S
C268 H277 0.931 . S
C269 C265 1.328 . S
C269 C270 1.433 . S
C269 H278 0.931 . S
C270 C266 1.323 . S
C270 C269 1.433 . S
C270 H279 0.933 . S
C271 Dy241 2.738 . S
C271 O251 1.255 . S
C271 O252 1.249 . S
C271 C265 1.516 . S
H272 C258 0.930 . S
H273 C259 0.931 . S
H274 C260 0.931 . S
H275 C261 0.933 . S
H276 C267 0.930 . S
H277 C268 0.931 . S
H278 C269 0.931 . S
H279 C270 0.933 . S
Dy280 O283 2.307 . S
Dy280 O285 2.395 . S
Dy280 O286 2.379 . S
Dy280 O288 2.339 . S
Dy280 O290 2.298 . S
Dy280 O294 2.275 . S
Dy280 C302 2.738 . S
Dy281 O284 2.298 . S
Dy281 O287 2.275 . S
Dy281 O289 2.307 . S
Dy281 O291 2.395 . S
Dy281 O292 2.379 . S
Dy281 O295 2.339 . S
Dy281 C311 2.738 . S
C282 O294 1.254 . S
C282 O295 1.257 . S
O283 Dy280 2.307 . S
O283 C293 1.266 . S
O284 Dy281 2.298 . S
O284 C293 1.236 . S
O285 Dy280 2.395 . S
O285 C302 1.255 . S
O286 Dy280 2.379 . S
O286 C302 1.249 . S
O287 Dy281 2.275 . S
O287 C303 1.254 . S
O288 Dy280 2.339 . S
O288 C303 1.257 . S
O289 Dy281 2.307 . S
O289 C304 1.266 . S
O290 Dy280 2.298 . S
O290 C304 1.236 . S
O291 Dy281 2.395 . S
O291 C311 1.255 . S
O292 Dy281 2.379 . S
O292 C311 1.249 . S
C293 O283 1.266 . S
C293 O284 1.236 . S
O294 Dy280 2.275 . S
O294 C282 1.254 . S
O295 Dy281 2.339 . S
O295 C282 1.257 . S
C296 C299 1.344 . S
C296 C300 1.328 . S
C296 C302 1.516 1_455 S
C297 C298 1.304 . S
C297 C301 1.323 . S
C298 C297 1.304 . S
C298 C299 1.371 . S
C298 H312 0.930 . S
C299 C296 1.344 . S
C299 C298 1.371 . S
C299 H313 0.931 . S
C300 C296 1.328 . S
C300 C301 1.433 . S
C300 H314 0.931 . S
C301 C297 1.323 . S
C301 C300 1.433 . S
C301 H315 0.933 . S
C302 Dy280 2.738 . S
C302 O285 1.255 . S
C302 O286 1.249 . S
C302 C296 1.516 1_655 S
C303 O287 1.254 . S
C303 O288 1.257 . S
C304 O289 1.266 . S
C304 O290 1.236 . S
C305 C308 1.344 . S
C305 C309 1.328 . S
C305 C311 1.516 . S
C306 C307 1.304 . S
C306 C310 1.323 . S
C307 C306 1.304 . S
C307 C308 1.371 . S
C307 H316 0.930 . S
C308 C305 1.344 . S
C308 C307 1.371 . S
C308 H317 0.931 . S
C309 C305 1.328 . S
C309 C310 1.433 . S
C309 H318 0.931 . S
C310 C306 1.323 . S
C310 C309 1.433 . S
C310 H319 0.933 . S
C311 Dy281 2.738 . S
C311 O291 1.255 . S
C311 O292 1.249 . S
C311 C305 1.516 . S
H312 C298 0.930 . S
H313 C299 0.931 . S
H314 C300 0.931 . S
H315 C301 0.933 . S
H316 C307 0.930 . S
H317 C308 0.931 . S
H318 C309 0.931 . S
H319 C310 0.933 . S
Dy320 O323 2.307 . S
Dy320 O325 2.395 . S
Dy320 O326 2.379 . S
Dy320 O328 2.339 . S
Dy320 O330 2.298 . S
Dy320 O334 2.275 . S
Dy320 C342 2.738 . S
Dy321 O324 2.298 . S
Dy321 O327 2.275 . S
Dy321 O329 2.307 . S
Dy321 O331 2.395 . S
Dy321 O332 2.379 . S
Dy321 O335 2.339 . S
Dy321 C351 2.738 . S
C322 O334 1.254 . S
C322 O335 1.257 . S
O323 Dy320 2.307 . S
O323 C333 1.266 . S
O324 Dy321 2.298 . S
O324 C333 1.236 . S
O325 Dy320 2.395 . S
O325 C342 1.255 . S
O326 Dy320 2.379 . S
O326 C342 1.249 . S
O327 Dy321 2.275 . S
O327 C343 1.254 . S
O328 Dy320 2.339 . S
O328 C343 1.257 . S
O329 Dy321 2.307 . S
O329 C344 1.266 . S
O330 Dy320 2.298 . S
O330 C344 1.236 . S
O331 Dy321 2.395 . S
O331 C351 1.255 . S
O332 Dy321 2.379 . S
O332 C351 1.249 . S
C333 O323 1.266 . S
C333 O324 1.236 . S
O334 Dy320 2.275 . S
O334 C322 1.254 . S
O335 Dy321 2.339 . S
O335 C322 1.257 . S
C336 C339 1.344 . S
C336 C340 1.328 . S
C336 C342 1.516 1_545 S
C337 C338 1.304 . S
C337 C341 1.323 . S
C338 C337 1.304 . S
C338 C339 1.371 . S
C338 H352 0.930 . S
C339 C336 1.344 . S
C339 C338 1.371 . S
C339 H353 0.931 . S
C340 C336 1.328 . S
C340 C341 1.433 . S
C340 H354 0.931 . S
C341 C337 1.323 . S
C341 C340 1.433 . S
C341 H355 0.933 . S
C342 Dy320 2.738 . S
C342 O325 1.255 . S
C342 O326 1.249 . S
C342 C336 1.516 1_565 S
C343 O327 1.254 . S
C343 O328 1.257 . S
C344 O329 1.266 . S
C344 O330 1.236 . S
C345 C348 1.344 . S
C345 C349 1.328 . S
C345 C351 1.516 . S
C346 C347 1.304 . S
C346 C350 1.323 . S
C347 C346 1.304 . S
C347 C348 1.371 . S
C347 H356 0.930 . S
C348 C345 1.344 . S
C348 C347 1.371 . S
C348 H357 0.931 . S
C349 C345 1.328 . S
C349 C350 1.433 . S
C349 H358 0.931 . S
C350 C346 1.323 . S
C350 C349 1.433 . S
C350 H359 0.933 . S
C351 Dy321 2.738 . S
C351 O331 1.255 . S
C351 O332 1.249 . S
C351 C345 1.516 . S
H352 C338 0.930 . S
H353 C339 0.931 . S
H354 C340 0.931 . S
H355 C341 0.933 . S
H356 C347 0.930 . S
H357 C348 0.931 . S
H358 C349 0.931 . S
H359 C350 0.933 . S
Dy360 O363 2.307 . S
Dy360 O365 2.395 . S
Dy360 O366 2.379 . S
Dy360 O368 2.339 . S
Dy360 O370 2.298 . S
Dy360 O374 2.275 . S
Dy360 C382 2.738 . S
Dy361 O364 2.298 . S
Dy361 O367 2.275 . S
Dy361 O369 2.307 . S
Dy361 O371 2.395 . S
Dy361 O372 2.379 . S
Dy361 O375 2.339 . S
Dy361 C391 2.738 . S
C362 O374 1.254 . S
C362 O375 1.257 . S
O363 Dy360 2.307 . S
O363 C373 1.266 . S
O364 Dy361 2.298 . S
O364 C373 1.236 . S
O365 Dy360 2.395 . S
O365 C382 1.255 . S
O366 Dy360 2.379 . S
O366 C382 1.249 . S
O367 Dy361 2.275 . S
O367 C383 1.254 . S
O368 Dy360 2.339 . S
O368 C383 1.257 . S
O369 Dy361 2.307 . S
O369 C384 1.266 . S
O370 Dy360 2.298 . S
O370 C384 1.236 . S
O371 Dy361 2.395 . S
O371 C391 1.255 . S
O372 Dy361 2.379 . S
O372 C391 1.249 . S
C373 O363 1.266 . S
C373 O364 1.236 . S
O374 Dy360 2.275 . S
O374 C362 1.254 . S
O375 Dy361 2.339 . S
O375 C362 1.257 . S
C376 C379 1.344 . S
C376 C380 1.328 . S
C376 C382 1.516 . S
C377 C378 1.304 . S
C377 C381 1.323 . S
C378 C377 1.304 . S
C378 C379 1.371 . S
C378 H392 0.930 . S
C379 C376 1.344 . S
C379 C378 1.371 . S
C379 H393 0.931 . S
C380 C376 1.328 . S
C380 C381 1.433 . S
C380 H394 0.931 . S
C381 C377 1.323 . S
C381 C380 1.433 . S
C381 H395 0.933 . S
C382 Dy360 2.738 . S
C382 O365 1.255 . S
C382 O366 1.249 . S
C382 C376 1.516 . S
C383 O367 1.254 . S
C383 O368 1.257 . S
C384 O369 1.266 . S
C384 O370 1.236 . S
C385 C388 1.344 . S
C385 C389 1.328 . S
C385 C391 1.516 . S
C386 C387 1.304 . S
C386 C390 1.323 . S
C387 C386 1.304 . S
C387 C388 1.371 . S
C387 H396 0.930 . S
C388 C385 1.344 . S
C388 C387 1.371 . S
C388 H397 0.931 . S
C389 C385 1.328 . S
C389 C390 1.433 . S
C389 H398 0.931 . S
C390 C386 1.323 . S
C390 C389 1.433 . S
C390 H399 0.933 . S
C391 Dy361 2.738 . S
C391 O371 1.255 . S
C391 O372 1.249 . S
C391 C385 1.516 . S
H392 C378 0.930 . S
H393 C379 0.931 . S
H394 C380 0.931 . S
H395 C381 0.933 . S
H396 C387 0.930 . S
H397 C388 0.931 . S
H398 C389 0.931 . S
H399 C390 0.933 . S
Dy400 O403 2.307 . S
Dy400 O405 2.395 . S
Dy400 O406 2.379 . S
Dy400 O408 2.339 . S
Dy400 O410 2.298 . S
Dy400 O414 2.275 . S
Dy400 C422 2.738 . S
Dy401 O404 2.298 . S
Dy401 O407 2.275 . S
Dy401 O409 2.307 . S
Dy401 O411 2.395 . S
Dy401 O412 2.379 . S
Dy401 O415 2.339 . S
Dy401 C431 2.738 . S
C402 O414 1.254 . S
C402 O415 1.257 . S
O403 Dy400 2.307 . S
O403 C413 1.266 . S
O404 Dy401 2.298 . S
O404 C413 1.236 . S
O405 Dy400 2.395 . S
O405 C422 1.255 . S
O406 Dy400 2.379 . S
O406 C422 1.249 . S
O407 Dy401 2.275 . S
O407 C423 1.254 . S
O408 Dy400 2.339 . S
O408 C423 1.257 . S
O409 Dy401 2.307 . S
O409 C424 1.266 . S
O410 Dy400 2.298 . S
O410 C424 1.236 . S
O411 Dy401 2.395 . S
O411 C431 1.255 . S
O412 Dy401 2.379 . S
O412 C431 1.249 . S
C413 O403 1.266 . S
C413 O404 1.236 . S
O414 Dy400 2.275 . S
O414 C402 1.254 . S
O415 Dy401 2.339 . S
O415 C402 1.257 . S
C416 C419 1.344 . S
C416 C420 1.328 . S
C416 C422 1.516 1_655 S
C417 C418 1.304 . S
C417 C421 1.323 . S
C418 C417 1.304 . S
C418 C419 1.371 . S
C418 H432 0.930 . S
C419 C416 1.344 . S
C419 C418 1.371 . S
C419 H433 0.931 . S
C420 C416 1.328 . S
C420 C421 1.433 . S
C420 H434 0.931 . S
C421 C417 1.323 . S
C421 C420 1.433 . S
C421 H435 0.933 . S
C422 Dy400 2.738 . S
C422 O405 1.255 . S
C422 O406 1.249 . S
C422 C416 1.516 1_455 S
C423 O407 1.254 . S
C423 O408 1.257 . S
C424 O409 1.266 . S
C424 O410 1.236 . S
C425 C428 1.344 . S
C425 C429 1.328 . S
C425 C431 1.516 . S
C426 C427 1.304 . S
C426 C430 1.323 . S
C427 C426 1.304 . S
C427 C428 1.371 . S
C427 H436 0.930 . S
C428 C425 1.344 . S
C428 C427 1.371 . S
C428 H437 0.931 . S
C429 C425 1.328 . S
C429 C430 1.433 . S
C429 H438 0.931 . S
C430 C426 1.323 . S
C430 C429 1.433 . S
C430 H439 0.933 . S
C431 Dy401 2.738 . S
C431 O411 1.255 . S
C431 O412 1.249 . S
C431 C425 1.516 . S
H432 C418 0.930 . S
H433 C419 0.931 . S
H434 C420 0.931 . S
H435 C421 0.933 . S
H436 C427 0.930 . S
H437 C428 0.931 . S
H438 C429 0.931 . S
H439 C430 0.933 . S
Dy440 O443 2.307 . S
Dy440 O445 2.395 . S
Dy440 O446 2.379 . S
Dy440 O448 2.339 . S
Dy440 O450 2.298 . S
Dy440 O454 2.275 . S
Dy440 C462 2.738 . S
Dy441 O444 2.298 . S
Dy441 O447 2.275 . S
Dy441 O449 2.307 . S
Dy441 O451 2.395 . S
Dy441 O452 2.379 . S
Dy441 O455 2.339 . S
Dy441 C471 2.738 . S
C442 O454 1.254 . S
C442 O455 1.257 . S
O443 Dy440 2.307 . S
O443 C453 1.266 . S
O444 Dy441 2.298 . S
O444 C453 1.236 . S
O445 Dy440 2.395 . S
O445 C462 1.255 . S
O446 Dy440 2.379 . S
O446 C462 1.249 . S
O447 Dy441 2.275 . S
O447 C463 1.254 . S
O448 Dy440 2.339 . S
O448 C463 1.257 . S
O449 Dy441 2.307 . S
O449 C464 1.266 . S
O450 Dy440 2.298 . S
O450 C464 1.236 . S
O451 Dy441 2.395 . S
O451 C471 1.255 . S
O452 Dy441 2.379 . S
O452 C471 1.249 . S
C453 O443 1.266 . S
C453 O444 1.236 . S
O454 Dy440 2.275 . S
O454 C442 1.254 . S
O455 Dy441 2.339 . S
O455 C442 1.257 . S
C456 C459 1.344 . S
C456 C460 1.328 . S
C456 C462 1.516 1_565 S
C457 C458 1.304 . S
C457 C461 1.323 . S
C458 C457 1.304 . S
C458 C459 1.371 . S
C458 H472 0.930 . S
C459 C456 1.344 . S
C459 C458 1.371 . S
C459 H473 0.931 . S
C460 C456 1.328 . S
C460 C461 1.433 . S
C460 H474 0.931 . S
C461 C457 1.323 . S
C461 C460 1.433 . S
C461 H475 0.933 . S
C462 Dy440 2.738 . S
C462 O445 1.255 . S
C462 O446 1.249 . S
C462 C456 1.516 1_545 S
C463 O447 1.254 . S
C463 O448 1.257 . S
C464 O449 1.266 . S
C464 O450 1.236 . S
C465 C468 1.344 . S
C465 C469 1.328 . S
C465 C471 1.516 . S
C466 C467 1.304 . S
C466 C470 1.323 . S
C467 C466 1.304 . S
C467 C468 1.371 . S
C467 H476 0.930 . S
C468 C465 1.344 . S
C468 C467 1.371 . S
C468 H477 0.931 . S
C469 C465 1.328 . S
C469 C470 1.433 . S
C469 H478 0.931 . S
C470 C466 1.323 . S
C470 C469 1.433 . S
C470 H479 0.933 . S
C471 Dy441 2.738 . S
C471 O451 1.255 . S
C471 O452 1.249 . S
C471 C465 1.516 . S
H472 C458 0.930 . S
H473 C459 0.931 . S
H474 C460 0.931 . S
H475 C461 0.933 . S
H476 C467 0.930 . S
H477 C468 0.931 . S
H478 C469 0.931 . S
H479 C470 0.933 . S
H480 C492 0.930 . S
H481 C494 0.930 . S
H482 C495 0.930 . S
H483 C499 0.959 . S
H484 C499 0.959 . S
H485 C499 0.961 . S
H486 C500 0.960 . S
H487 C500 0.961 1_545 S
H488 C500 0.959 1_545 S
H489 C503 0.929 . S
H490 C504 0.931 . S
H491 C506 0.930 . S
C492 H480 0.930 . S
C492 C493 1.399 . S
C492 C497 1.399 . S
C493 C492 1.399 . S
C493 C494 1.376 . S
C494 H481 0.930 . S
C494 C493 1.376 . S
C494 C495 1.388 . S
C495 H482 0.930 . S
C495 C494 1.388 . S
C495 C496 1.390 . S
C496 C495 1.390 . S
C496 C497 1.394 . S
C496 C502 1.465 1_565 S
C497 C492 1.399 . S
C497 C496 1.394 . S
C497 C498 1.516 . S
C498 C497 1.516 . S
C498 C499 1.502 . S
C498 C500 1.561 . S
C498 C501 1.526 1_565 S
C499 H483 0.959 . S
C499 H484 0.959 . S
C499 H485 0.961 . S
C499 C498 1.502 . S
C500 H486 0.960 . S
C500 H487 0.961 1_565 S
C500 H488 0.959 1_565 S
C500 C498 1.561 . S
C501 C498 1.526 1_545 S
C501 C502 1.396 . S
C501 C506 1.390 . S
C502 C496 1.465 1_545 S
C502 C501 1.396 . S
C502 C503 1.399 . S
C503 H489 0.929 . S
C503 C502 1.399 . S
C503 C504 1.385 . S
C504 H490 0.931 . S
C504 C503 1.385 . S
C504 C505 1.389 . S
C505 C504 1.389 . S
C505 C506 1.387 . S
C506 H491 0.930 . S
C506 C501 1.390 . S
C506 C505 1.387 . S
H507 C519 0.930 . S
H508 C521 0.930 . S
H509 C522 0.930 . S
H510 C526 0.959 . S
H511 C526 0.959 . S
H512 C526 0.961 . S
H513 C527 0.960 . S
H514 C527 0.961 . S
H515 C527 0.959 . S
H516 C530 0.929 . S
H517 C531 0.931 . S
H518 C533 0.930 . S
C519 H507 0.930 . S
C519 C520 1.399 . S
C519 C524 1.399 . S
C520 C519 1.399 . S
C520 C521 1.376 . S
C521 H508 0.930 . S
C521 C520 1.376 . S
C521 C522 1.388 . S
C522 H509 0.930 . S
C522 C521 1.388 . S
C522 C523 1.390 . S
C523 C522 1.390 . S
C523 C524 1.394 . S
C523 C529 1.465 . S
C524 C519 1.399 . S
C524 C523 1.394 . S
C524 C525 1.516 . S
C525 C524 1.516 . S
C525 C526 1.502 . S
C525 C527 1.561 . S
C525 C528 1.526 . S
C526 H510 0.959 . S
C526 H511 0.959 . S
C526 H512 0.961 . S
C526 C525 1.502 . S
C527 H513 0.960 . S
C527 H514 0.961 . S
C527 H515 0.959 . S
C527 C525 1.561 . S
C528 C525 1.526 . S
C528 C529 1.396 . S
C528 C533 1.390 . S
C529 C523 1.465 . S
C529 C528 1.396 . S
C529 C530 1.399 . S
C530 H516 0.929 . S
C530 C529 1.399 . S
C530 C531 1.385 . S
C531 H517 0.931 . S
C531 C530 1.385 . S
C531 C532 1.389 . S
C532 C531 1.389 . S
C532 C533 1.387 . S
C533 H518 0.930 . S
C533 C528 1.390 . S
C533 C532 1.387 . S
H534 C546 0.930 . S
H535 C548 0.930 . S
H536 C549 0.930 . S
H537 C553 0.959 . S
H538 C553 0.960 1_455 S
H539 C553 0.961 . S
H540 C554 0.960 1_655 S
H541 C554 0.961 . S
H542 C554 0.959 . S
H543 C557 0.929 . S
H544 C558 0.931 . S
H545 C560 0.930 . S
C546 H534 0.930 . S
C546 C547 1.399 . S
C546 C551 1.399 . S
C547 C546 1.399 . S
C547 C548 1.376 . S
C548 H535 0.930 . S
C548 C547 1.376 . S
C548 C549 1.388 . S
C549 H536 0.930 . S
C549 C548 1.388 . S
C549 C550 1.390 . S
C550 C549 1.390 . S
C550 C551 1.394 . S
C550 C556 1.465 1_655 S
C551 C546 1.399 . S
C551 C550 1.394 . S
C551 C552 1.516 . S
C552 C551 1.516 . S
C552 C553 1.502 . S
C552 C554 1.561 1_655 S
C552 C555 1.526 1_655 S
C553 H537 0.959 . S
C553 H538 0.960 1_655 S
C553 H539 0.961 . S
C553 C552 1.502 . S
C554 H540 0.960 1_455 S
C554 H541 0.961 . S
C554 H542 0.959 . S
C554 C552 1.561 1_455 S
C555 C552 1.526 1_455 S
C555 C556 1.396 . S
C555 C560 1.390 . S
C556 C550 1.465 1_455 S
C556 C555 1.396 . S
C556 C557 1.399 . S
C557 H543 0.929 . S
C557 C556 1.399 . S
C557 C558 1.385 . S
C558 H544 0.931 . S
C558 C557 1.385 . S
C558 C559 1.389 . S
C559 C558 1.389 . S
C559 C560 1.387 . S
C560 H545 0.930 . S
C560 C555 1.390 . S
C560 C559 1.387 . S
H561 C573 0.930 . S
H562 C575 0.930 . S
H563 C576 0.930 . S
H564 C580 0.959 1_545 S
H565 C580 0.959 1_545 S
H566 C580 0.961 . S
H567 C581 0.960 . S
H568 C581 0.961 . S
H569 C581 0.959 . S
H570 C584 0.929 . S
H571 C585 0.931 . S
H572 C587 0.930 . S
C573 H561 0.930 . S
C573 C574 1.399 . S
C573 C578 1.399 . S
C574 C573 1.399 . S
C574 C575 1.376 . S
C575 H562 0.930 . S
C575 C574 1.376 . S
C575 C576 1.388 . S
C576 H563 0.930 . S
C576 C575 1.388 . S
C576 C577 1.390 . S
C577 C576 1.390 . S
C577 C578 1.394 . S
C577 C583 1.465 1_565 S
C578 C573 1.399 . S
C578 C577 1.394 . S
C578 C579 1.516 . S
C579 C578 1.516 . S
C579 C580 1.502 . S
C579 C581 1.561 . S
C579 C582 1.526 1_565 S
C580 H564 0.959 1_565 S
C580 H565 0.959 1_565 S
C580 H566 0.961 . S
C580 C579 1.502 . S
C581 H567 0.960 . S
C581 H568 0.961 . S
C581 H569 0.959 . S
C581 C579 1.561 . S
C582 C579 1.526 1_545 S
C582 C583 1.396 . S
C582 C587 1.390 . S
C583 C577 1.465 1_545 S
C583 C582 1.396 . S
C583 C584 1.399 . S
C584 H570 0.929 . S
C584 C583 1.399 . S
C584 C585 1.385 . S
C585 H571 0.931 . S
C585 C584 1.385 . S
C585 C586 1.389 . S
C586 C585 1.389 . S
C586 C587 1.387 . S
C587 H572 0.930 . S
C587 C582 1.390 . S
C587 C586 1.387 . S
H588 C600 0.930 . S
H589 C602 0.930 . S
H590 C603 0.930 . S
H591 C607 0.959 . S
H592 C607 0.959 . S
H593 C607 0.961 . S
H594 C608 0.960 . S
H595 C608 0.961 . S
H596 C608 0.959 . S
H597 C611 0.929 . S
H598 C612 0.931 . S
H599 C614 0.930 . S
C600 H588 0.930 . S
C600 C601 1.399 . S
C600 C605 1.399 . S
C601 C600 1.399 . S
C601 C602 1.376 . S
C602 H589 0.930 . S
C602 C601 1.376 . S
C602 C603 1.388 . S
C603 H590 0.930 . S
C603 C602 1.388 . S
C603 C604 1.390 . S
C604 C603 1.390 . S
C604 C605 1.394 . S
C604 C610 1.465 . S
C605 C600 1.399 . S
C605 C604 1.394 . S
C605 C606 1.516 . S
C606 C605 1.516 . S
C606 C607 1.502 . S
C606 C608 1.561 . S
C606 C609 1.526 . S
C607 H591 0.959 . S
C607 H592 0.959 . S
C607 H593 0.961 . S
C607 C606 1.502 . S
C608 H594 0.960 . S
C608 H595 0.961 . S
C608 H596 0.959 . S
C608 C606 1.561 . S
C609 C606 1.526 . S
C609 C610 1.396 . S
C609 C614 1.390 . S
C610 C604 1.465 . S
C610 C609 1.396 . S
C610 C611 1.399 . S
C611 H597 0.929 . S
C611 C610 1.399 . S
C611 C612 1.385 . S
C612 H598 0.931 . S
C612 C611 1.385 . S
C612 C613 1.389 . S
C613 C612 1.389 . S
C613 C614 1.387 . S
C614 H599 0.930 . S
C614 C609 1.390 . S
C614 C613 1.387 . S
H615 C627 0.930 . S
H616 C629 0.930 . S
H617 C630 0.930 . S
H618 C634 0.959 . S
H619 C634 0.959 . S
H620 C634 0.965 . S
H621 C635 0.960 . S
H622 C635 0.961 1_455 S
H623 C635 0.959 . S
H624 C638 0.929 . S
H625 C639 0.931 . S
H626 C641 0.930 . S
C627 H615 0.930 . S
C627 C628 1.399 . S
C627 C632 1.399 . S
C628 C627 1.399 . S
C628 C629 1.376 . S
C629 H616 0.930 . S
C629 C628 1.376 . S
C629 C630 1.388 . S
C630 H617 0.930 . S
C630 C629 1.388 . S
C630 C631 1.390 . S
C631 C630 1.390 . S
C631 C632 1.394 . S
C631 C637 1.465 1_655 S
C632 C627 1.399 . S
C632 C631 1.394 . S
C632 C633 1.516 1_655 S
C633 C632 1.516 1_455 S
C633 C634 1.502 . S
C633 C635 1.561 1_455 S
C633 C636 1.526 . S
C634 H618 0.959 . S
C634 H619 0.959 . S
C634 H620 0.965 . S
C634 C633 1.502 . S
C635 H621 0.960 . S
C635 H622 0.961 1_655 S
C635 H623 0.959 . S
C635 C633 1.561 1_655 S
C636 C633 1.526 . S
C636 C637 1.396 . S
C636 C641 1.390 . S
C637 C631 1.465 1_455 S
C637 C636 1.396 . S
C637 C638 1.399 . S
C638 H624 0.929 . S
C638 C637 1.399 . S
C638 C639 1.385 . S
C639 H625 0.931 . S
C639 C638 1.385 . S
C639 C640 1.389 . S
C640 C639 1.389 . S
C640 C641 1.387 . S
C641 H626 0.930 . S
C641 C636 1.390 . S
C641 C640 1.387 . S
H642 C654 0.930 . S
H643 C656 0.930 . S
H644 C657 0.930 . S
H645 C661 0.959 . S
H646 C661 0.959 . S
H647 C661 0.961 . S
H648 C662 0.960 . S
H649 C662 0.961 . S
H650 C662 0.959 . S
H651 C665 0.929 . S
H652 C666 0.931 . S
H653 C668 0.930 . S
C654 H642 0.930 . S
C654 C655 1.399 . S
C654 C659 1.399 . S
C655 C654 1.399 . S
C655 C656 1.376 . S
C656 H643 0.930 . S
C656 C655 1.376 . S
C656 C657 1.388 . S
C657 H644 0.930 . S
C657 C656 1.388 . S
C657 C658 1.390 . S
C658 C657 1.390 . S
C658 C659 1.394 . S
C658 C664 1.465 1_455 S
C659 C654 1.399 . S
C659 C658 1.394 . S
C659 C660 1.516 1_455 S
C660 C659 1.516 1_655 S
C660 C661 1.502 . S
C660 C662 1.561 . S
C660 C663 1.526 . S
C661 H645 0.959 . S
C661 H646 0.959 . S
C661 H647 0.961 . S
C661 C660 1.502 . S
C662 H648 0.960 . S
C662 H649 0.961 . S
C662 H650 0.959 . S
C662 C660 1.561 . S
C663 C660 1.526 . S
C663 C664 1.396 . S
C663 C668 1.390 . S
C664 C658 1.465 1_655 S
C664 C663 1.396 . S
C664 C665 1.399 . S
C665 H651 0.929 . S
C665 C664 1.399 . S
C665 C666 1.385 . S
C666 H652 0.931 . S
C666 C665 1.385 . S
C666 C667 1.389 . S
C667 C666 1.389 . S
C667 C668 1.387 . S
C668 H653 0.930 . S
C668 C663 1.390 . S
C668 C667 1.387 . S
H669 C681 0.930 . S
H670 C683 0.930 . S
H671 C684 0.930 . S
H672 C688 0.959 . S
H673 C688 0.955 1_545 S
H674 C688 0.961 . S
H675 C689 0.960 1_565 S
H676 C689 0.961 . S
H677 C689 0.959 . S
H678 C692 0.929 . S
H679 C693 0.931 . S
H680 C695 0.930 . S
C681 H669 0.930 . S
C681 C682 1.399 . S
C681 C686 1.399 . S
C682 C681 1.399 . S
C682 C683 1.376 . S
C683 H670 0.930 . S
C683 C682 1.376 . S
C683 C684 1.388 . S
C684 H671 0.930 . S
C684 C683 1.388 . S
C684 C685 1.390 . S
C685 C684 1.390 . S
C685 C686 1.394 . S
C685 C691 1.465 1_565 S
C686 C681 1.399 . S
C686 C685 1.394 . S
C686 C687 1.516 . S
C687 C686 1.516 . S
C687 C688 1.502 . S
C687 C689 1.561 1_565 S
C687 C690 1.526 1_565 S
C688 H672 0.959 . S
C688 H673 0.955 1_565 S
C688 H674 0.961 . S
C688 C687 1.502 . S
C689 H675 0.960 1_545 S
C689 H676 0.961 . S
C689 H677 0.959 . S
C689 C687 1.561 1_545 S
C690 C687 1.526 1_545 S
C690 C691 1.396 . S
C690 C695 1.390 . S
C691 C685 1.465 1_545 S
C691 C690 1.396 . S
C691 C692 1.399 . S
C692 H678 0.929 . S
C692 C691 1.399 . S
C692 C693 1.385 . S
C693 H679 0.931 . S
C693 C692 1.385 . S
C693 C694 1.389 . S
C694 C693 1.389 . S
C694 C695 1.387 . S
C695 H680 0.930 . S
C695 C690 1.390 . S
C695 C694 1.387 . S
H696 C708 0.930 . S
H697 C710 0.930 . S
H698 C711 0.930 . S
H699 C715 0.959 . S
H700 C715 0.959 . S
H701 C715 0.961 . S
H702 C716 0.960 . S
H703 C716 0.961 . S
H704 C716 0.959 . S
H705 C719 0.929 . S
H706 C720 0.931 . S
H707 C722 0.930 . S
C708 H696 0.930 . S
C708 C709 1.399 . S
C708 C713 1.399 . S
C709 C708 1.399 . S
C709 C710 1.376 . S
C710 H697 0.930 . S
C710 C709 1.376 . S
C710 C711 1.388 . S
C711 H698 0.930 . S
C711 C710 1.388 . S
C711 C712 1.390 . S
C712 C711 1.390 . S
C712 C713 1.394 . S
C712 C718 1.465 . S
C713 C708 1.399 . S
C713 C712 1.394 . S
C713 C714 1.516 . S
C714 C713 1.516 . S
C714 C715 1.502 . S
C714 C716 1.561 . S
C714 C717 1.526 . S
C715 H699 0.959 . S
C715 H700 0.959 . S
C715 H701 0.961 . S
C715 C714 1.502 . S
C716 H702 0.960 . S
C716 H703 0.961 . S
C716 H704 0.959 . S
C716 C714 1.561 . S
C717 C714 1.526 . S
C717 C718 1.396 . S
C717 C722 1.390 . S
C718 C712 1.465 . S
C718 C717 1.396 . S
C718 C719 1.399 . S
C719 H705 0.929 . S
C719 C718 1.399 . S
C719 C720 1.385 . S
C720 H706 0.931 . S
C720 C719 1.385 . S
C720 C721 1.389 . S
C721 C720 1.389 . S
C721 C722 1.387 . S
C722 H707 0.930 . S
C722 C717 1.390 . S
C722 C721 1.387 . S
H723 C735 0.930 . S
H724 C737 0.930 . S
H725 C738 0.930 . S
H726 C742 0.959 . S
H727 C742 0.959 . S
H728 C742 0.961 1_455 S
H729 C743 0.960 . S
H730 C743 0.961 1_655 S
H731 C743 0.959 . S
H732 C746 0.929 . S
H733 C747 0.931 . S
H734 C749 0.930 . S
C735 H723 0.930 . S
C735 C736 1.399 . S
C735 C740 1.399 . S
C736 C735 1.399 . S
C736 C737 1.376 . S
C737 H724 0.930 . S
C737 C736 1.376 . S
C737 C738 1.388 . S
C738 H725 0.930 . S
C738 C737 1.388 . S
C738 C739 1.390 . S
C739 C738 1.390 . S
C739 C740 1.394 . S
C739 C745 1.465 1_455 S
C740 C735 1.399 . S
C740 C739 1.394 . S
C740 C741 1.516 . S
C741 C740 1.516 . S
C741 C742 1.502 1_455 S
C741 C743 1.561 . S
C741 C744 1.526 1_455 S
C742 H726 0.959 . S
C742 H727 0.959 . S
C742 H728 0.961 1_655 S
C742 C741 1.502 1_655 S
C743 H729 0.960 . S
C743 H730 0.961 1_455 S
C743 H731 0.959 . S
C743 C741 1.561 . S
C744 C741 1.526 1_655 S
C744 C745 1.396 . S
C744 C749 1.390 . S
C745 C739 1.465 1_655 S
C745 C744 1.396 . S
C745 C746 1.399 . S
C746 H732 0.929 . S
C746 C745 1.399 . S
C746 C747 1.385 . S
C747 H733 0.931 . S
C747 C746 1.385 . S
C747 C748 1.389 . S
C748 C747 1.389 . S
C748 C749 1.387 . S
C749 H734 0.930 . S
C749 C744 1.390 . S
C749 C748 1.387 . S
H750 C762 0.930 . S
H751 C764 0.930 . S
H752 C765 0.930 . S
H753 C769 0.959 . S
H754 C769 0.959 . S
H755 C769 0.961 . S
H756 C770 0.960 . S
H757 C770 0.961 . S
H758 C770 0.959 . S
H759 C773 0.929 . S
H760 C774 0.931 . S
H761 C776 0.930 . S
C762 H750 0.930 . S
C762 C763 1.399 . S
C762 C767 1.399 . S
C763 C762 1.399 . S
C763 C764 1.376 . S
C764 H751 0.930 . S
C764 C763 1.376 . S
C764 C765 1.388 . S
C765 H752 0.930 . S
C765 C764 1.388 . S
C765 C766 1.390 . S
C766 C765 1.390 . S
C766 C767 1.394 . S
C766 C772 1.465 1_545 S
C767 C762 1.399 . S
C767 C766 1.394 . S
C767 C768 1.516 1_545 S
C768 C767 1.516 1_565 S
C768 C769 1.502 . S
C768 C770 1.561 . S
C768 C771 1.526 . S
C769 H753 0.959 . S
C769 H754 0.959 . S
C769 H755 0.961 . S
C769 C768 1.502 . S
C770 H756 0.960 . S
C770 H757 0.961 . S
C770 H758 0.959 . S
C770 C768 1.561 . S
C771 C768 1.526 . S
C771 C772 1.396 . S
C771 C776 1.390 . S
C772 C766 1.465 1_565 S
C772 C771 1.396 . S
C772 C773 1.399 . S
C773 H759 0.929 . S
C773 C772 1.399 . S
C773 C774 1.385 . S
C774 H760 0.931 . S
C774 C773 1.385 . S
C774 C775 1.389 . S
C775 C774 1.389 . S
C775 C776 1.387 . S
C776 H761 0.930 . S
C776 C771 1.390 . S
C776 C775 1.387 . S
H777 C789 0.930 . S
H778 C791 0.930 . S
H779 C792 0.930 . S
H780 C796 0.959 . S
H781 C796 0.959 . S
H782 C796 0.961 . S
H783 C797 0.960 . S
H784 C797 0.961 . S
H785 C797 0.959 . S
H786 C800 0.929 . S
H787 C801 0.931 . S
H788 C803 0.930 . S
C789 H777 0.930 . S
C789 C790 1.399 . S
C789 C794 1.399 . S
C790 C789 1.399 . S
C790 C791 1.376 . S
C791 H778 0.930 . S
C791 C790 1.376 . S
C791 C792 1.388 . S
C792 H779 0.930 . S
C792 C791 1.388 . S
C792 C793 1.390 . S
C793 C792 1.390 . S
C793 C794 1.394 . S
C793 C799 1.465 . S
C794 C789 1.399 . S
C794 C793 1.394 . S
C794 C795 1.516 . S
C795 C794 1.516 . S
C795 C796 1.502 . S
C795 C797 1.561 . S
C795 C798 1.526 . S
C796 H780 0.959 . S
C796 H781 0.959 . S
C796 H782 0.961 . S
C796 C795 1.502 . S
C797 H783 0.960 . S
C797 H784 0.961 . S
C797 H785 0.959 . S
C797 C795 1.561 . S
C798 C795 1.526 . S
C798 C799 1.396 . S
C798 C803 1.390 . S
C799 C793 1.465 . S
C799 C798 1.396 . S
C799 C800 1.399 . S
C800 H786 0.929 . S
C800 C799 1.399 . S
C800 C801 1.385 . S
C801 H787 0.931 . S
C801 C800 1.385 . S
C801 C802 1.389 . S
C802 C801 1.389 . S
C802 C803 1.387 . S
C803 H788 0.930 . S
C803 C798 1.390 . S
C803 C802 1.387 . S
H804 C816 0.930 . S
H805 C818 0.930 . S
H806 C819 0.930 . S
H807 C823 0.959 . S
H808 C823 0.959 . S
H809 C823 0.961 . S
H810 C824 0.960 . S
H811 C824 0.961 . S
H812 C824 0.959 . S
H813 C827 0.929 . S
H814 C828 0.931 . S
H815 C830 0.930 . S
C816 H804 0.930 . S
C816 C817 1.399 . S
C816 C821 1.399 . S
C817 C816 1.399 . S
C817 C818 1.376 . S
C818 H805 0.930 . S
C818 C817 1.376 . S
C818 C819 1.388 . S
C819 H806 0.930 . S
C819 C818 1.388 . S
C819 C820 1.390 . S
C820 C819 1.390 . S
C820 C821 1.394 . S
C820 C826 1.465 . S
C821 C816 1.399 . S
C821 C820 1.394 . S
C821 C822 1.516 . S
C822 C821 1.516 . S
C822 C823 1.502 . S
C822 C824 1.561 . S
C822 C825 1.526 . S
C823 H807 0.959 . S
C823 H808 0.959 . S
C823 H809 0.961 . S
C823 C822 1.502 . S
C824 H810 0.960 . S
C824 H811 0.961 . S
C824 H812 0.959 . S
C824 C822 1.561 . S
C825 C822 1.526 . S
C825 C826 1.396 . S
C825 C830 1.390 . S
C826 C820 1.465 . S
C826 C825 1.396 . S
C826 C827 1.399 . S
C827 H813 0.929 . S
C827 C826 1.399 . S
C827 C828 1.385 . S
C828 H814 0.931 . S
C828 C827 1.385 . S
C828 C829 1.389 . S
C829 C828 1.389 . S
C829 C830 1.387 . S
C830 H815 0.930 . S
C830 C825 1.390 . S
C830 C829 1.387 . S
H831 C843 0.930 . S
H832 C845 0.930 . S
H833 C846 0.930 . S
H834 C850 0.959 . S
H835 C850 0.959 . S
H836 C850 0.961 . S
H837 C851 0.960 . S
H838 C851 0.961 . S
H839 C851 0.959 . S
H840 C854 0.929 . S
H841 C855 0.931 . S
H842 C857 0.930 . S
C843 H831 0.930 . S
C843 C844 1.399 . S
C843 C848 1.399 . S
C844 C843 1.399 . S
C844 C845 1.376 . S
C845 H832 0.930 . S
C845 C844 1.376 . S
C845 C846 1.388 . S
C846 H833 0.930 . S
C846 C845 1.388 . S
C846 C847 1.390 . S
C847 C846 1.390 . S
C847 C848 1.394 . S
C847 C853 1.465 . S
C848 C843 1.399 . S
C848 C847 1.394 . S
C848 C849 1.516 . S
C849 C848 1.516 . S
C849 C850 1.502 . S
C849 C851 1.561 . S
C849 C852 1.526 . S
C850 H834 0.959 . S
C850 H835 0.959 . S
C850 H836 0.961 . S
C850 C849 1.502 . S
C851 H837 0.960 . S
C851 H838 0.961 . S
C851 H839 0.959 . S
C851 C849 1.561 . S
C852 C849 1.526 . S
C852 C853 1.396 . S
C852 C857 1.390 . S
C853 C847 1.465 . S
C853 C852 1.396 . S
C853 C854 1.399 . S
C854 H840 0.929 . S
C854 C853 1.399 . S
C854 C855 1.385 . S
C855 H841 0.931 . S
C855 C854 1.385 . S
C855 C856 1.389 . S
C856 C855 1.389 . S
C856 C857 1.387 . S
C857 H842 0.930 . S
C857 C852 1.390 . S
C857 C856 1.387 . S
H858 C870 0.930 . S
H859 C872 0.930 . S
H860 C873 0.930 . S
H861 C877 0.959 . S
H862 C877 0.959 . S
H863 C877 0.961 . S
H864 C878 0.960 . S
H865 C878 0.961 . S
H866 C878 0.959 . S
H867 C881 0.929 . S
H868 C882 0.931 . S
H869 C884 0.930 . S
C870 H858 0.930 . S
C870 C871 1.399 . S
C870 C875 1.399 . S
C871 C870 1.399 . S
C871 C872 1.376 . S
C872 H859 0.930 . S
C872 C871 1.376 . S
C872 C873 1.388 . S
C873 H860 0.930 . S
C873 C872 1.388 . S
C873 C874 1.390 . S
C874 C873 1.390 . S
C874 C875 1.394 . S
C874 C880 1.465 . S
C875 C870 1.399 . S
C875 C874 1.394 . S
C875 C876 1.516 . S
C876 C875 1.516 . S
C876 C877 1.502 . S
C876 C878 1.561 . S
C876 C879 1.526 . S
C877 H861 0.959 . S
C877 H862 0.959 . S
C877 H863 0.961 . S
C877 C876 1.502 . S
C878 H864 0.960 . S
C878 H865 0.961 . S
C878 H866 0.959 . S
C878 C876 1.561 . S
C879 C876 1.526 . S
C879 C880 1.396 . S
C879 C884 1.390 . S
C880 C874 1.465 . S
C880 C879 1.396 . S
C880 C881 1.399 . S
C881 H867 0.929 . S
C881 C880 1.399 . S
C881 C882 1.385 . S
C882 H868 0.931 . S
C882 C881 1.385 . S
C882 C883 1.389 . S
C883 C882 1.389 . S
C883 C884 1.387 . S
C884 H869 0.930 . S
C884 C879 1.390 . S
C884 C883 1.387 . S
H885 C897 0.930 . S
H886 C899 0.930 . S
H887 C900 0.930 . S
H888 C904 0.959 . S
H889 C904 0.959 . S
H890 C904 0.961 . S
H891 C905 0.960 . S
H892 C905 0.961 . S
H893 C905 0.959 . S
H894 C908 0.929 . S
H895 C909 0.931 . S
H896 C911 0.930 . S
C897 H885 0.930 . S
C897 C898 1.399 . S
C897 C902 1.399 . S
C898 C897 1.399 . S
C898 C899 1.376 . S
C899 H886 0.930 . S
C899 C898 1.376 . S
C899 C900 1.388 . S
C900 H887 0.930 . S
C900 C899 1.388 . S
C900 C901 1.390 . S
C901 C900 1.390 . S
C901 C902 1.394 . S
C901 C907 1.465 . S
C902 C897 1.399 . S
C902 C901 1.394 . S
C902 C903 1.516 . S
C903 C902 1.516 . S
C903 C904 1.502 . S
C903 C905 1.561 . S
C903 C906 1.526 . S
C904 H888 0.959 . S
C904 H889 0.959 . S
C904 H890 0.961 . S
C904 C903 1.502 . S
C905 H891 0.960 . S
C905 H892 0.961 . S
C905 H893 0.959 . S
C905 C903 1.561 . S
C906 C903 1.526 . S
C906 C907 1.396 . S
C906 C911 1.390 . S
C907 C901 1.465 . S
C907 C906 1.396 . S
C907 C908 1.399 . S
C908 H894 0.929 . S
C908 C907 1.399 . S
C908 C909 1.385 . S
C909 H895 0.931 . S
C909 C908 1.385 . S
C909 C910 1.389 . S
C910 C909 1.389 . S
C910 C911 1.387 . S
C911 H896 0.930 . S
C911 C906 1.390 . S
C911 C910 1.387 . S
H912 C924 0.930 . S
H913 C926 0.930 . S
H914 C927 0.930 . S
H915 C931 0.959 . S
H916 C931 0.959 . S
H917 C931 0.961 . S
H918 C932 0.960 . S
H919 C932 0.961 . S
H920 C932 0.959 . S
H921 C935 0.929 . S
H922 C936 0.931 . S
H923 C938 0.930 . S
C924 H912 0.930 . S
C924 C925 1.399 . S
C924 C929 1.399 . S
C925 C924 1.399 . S
C925 C926 1.376 . S
C926 H913 0.930 . S
C926 C925 1.376 . S
C926 C927 1.388 . S
C927 H914 0.930 . S
C927 C926 1.388 . S
C927 C928 1.390 . S
C928 C927 1.390 . S
C928 C929 1.394 . S
C928 C934 1.465 . S
C929 C924 1.399 . S
C929 C928 1.394 . S
C929 C930 1.516 . S
C930 C929 1.516 . S
C930 C931 1.502 . S
C930 C932 1.561 . S
C930 C933 1.526 . S
C931 H915 0.959 . S
C931 H916 0.959 . S
C931 H917 0.961 . S
C931 C930 1.502 . S
C932 H918 0.960 . S
C932 H919 0.961 . S
C932 H920 0.959 . S
C932 C930 1.561 . S
C933 C930 1.526 . S
C933 C934 1.396 . S
C933 C938 1.390 . S
C934 C928 1.465 . S
C934 C933 1.396 . S
C934 C935 1.399 . S
C935 H921 0.929 . S
C935 C934 1.399 . S
C935 C936 1.385 . S
C936 H922 0.931 . S
C936 C935 1.385 . S
C936 C937 1.389 . S
C937 C936 1.389 . S
C937 C938 1.387 . S
C938 H923 0.930 . S
C938 C933 1.390 . S
C938 C937 1.387 . S
H939 C951 0.930 . S
H940 C953 0.930 . S
H941 C954 0.930 . S
H942 C958 0.959 . S
H943 C958 0.959 . S
H944 C958 0.961 . S
H945 C959 0.960 . S
H946 C959 0.961 . S
H947 C959 0.959 . S
H948 C962 0.929 . S
H949 C963 0.931 . S
H950 C965 0.930 . S
C951 H939 0.930 . S
C951 C952 1.399 . S
C951 C956 1.399 . S
C952 C951 1.399 . S
C952 C953 1.376 . S
C953 H940 0.930 . S
C953 C952 1.376 . S
C953 C954 1.388 . S
C954 H941 0.930 . S
C954 C953 1.388 . S
C954 C955 1.390 . S
C955 C954 1.390 . S
C955 C956 1.394 . S
C955 C961 1.465 . S
C956 C951 1.399 . S
C956 C955 1.394 . S
C956 C957 1.516 . S
C957 C956 1.516 . S
C957 C958 1.502 . S
C957 C959 1.561 . S
C957 C960 1.526 . S
C958 H942 0.959 . S
C958 H943 0.959 . S
C958 H944 0.961 . S
C958 C957 1.502 . S
C959 H945 0.960 . S
C959 H946 0.961 . S
C959 H947 0.959 . S
C959 C957 1.561 . S
C960 C957 1.526 . S
C960 C961 1.396 . S
C960 C965 1.390 . S
C961 C955 1.465 . S
C961 C960 1.396 . S
C961 C962 1.399 . S
C962 H948 0.929 . S
C962 C961 1.399 . S
C962 C963 1.385 . S
C963 H949 0.931 . S
C963 C962 1.385 . S
C963 C964 1.389 . S
C964 C963 1.389 . S
C964 C965 1.387 . S
C965 H950 0.930 . S
C965 C960 1.390 . S
C965 C964 1.387 . S
H966 C978 0.930 . S
H967 C980 0.930 . S
H968 C981 0.930 . S
H969 C985 0.959 . S
H970 C985 0.959 . S
H971 C985 0.961 . S
H972 C986 0.960 . S
H973 C986 0.961 . S
H974 C986 0.959 . S
H975 C989 0.929 . S
H976 C990 0.931 . S
H977 C992 0.930 . S
C978 H966 0.930 . S
C978 C979 1.399 . S
C978 C983 1.399 . S
C979 C978 1.399 . S
C979 C980 1.376 . S
C980 H967 0.930 . S
C980 C979 1.376 . S
C980 C981 1.388 . S
C981 H968 0.930 . S
C981 C980 1.388 . S
C981 C982 1.390 . S
C982 C981 1.390 . S
C982 C983 1.394 . S
C982 C988 1.465 . S
C983 C978 1.399 . S
C983 C982 1.394 . S
C983 C984 1.516 . S
C984 C983 1.516 . S
C984 C985 1.502 . S
C984 C986 1.561 . S
C984 C987 1.526 . S
C985 H969 0.959 . S
C985 H970 0.959 . S
C985 H971 0.961 . S
C985 C984 1.502 . S
C986 H972 0.960 . S
C986 H973 0.961 . S
C986 H974 0.959 . S
C986 C984 1.561 . S
C987 C984 1.526 . S
C987 C988 1.396 . S
C987 C992 1.390 . S
C988 C982 1.465 . S
C988 C987 1.396 . S
C988 C989 1.399 . S
C989 H975 0.929 . S
C989 C988 1.399 . S
C989 C990 1.385 . S
C990 H976 0.931 . S
C990 C989 1.385 . S
C990 C991 1.389 . S
C991 C990 1.389 . S
C991 C992 1.387 . S
C992 H977 0.930 . S
C992 C987 1.390 . S
C992 C991 1.387 . S
H993 C1005 0.930 . S
H994 C1007 0.930 . S
H995 C1008 0.930 . S
H996 C1012 0.959 . S
H997 C1012 0.959 . S
H998 C1012 0.961 . S
H999 C1013 0.960 . S
H1000 C1013 0.961 . S
H1001 C1013 0.959 . S
H1002 C1016 0.929 . S
H1003 C1017 0.931 . S
H1004 C1019 0.930 . S
C1005 H993 0.930 . S
C1005 C1006 1.399 . S
C1005 C1010 1.399 . S
C1006 C1005 1.399 . S
C1006 C1007 1.376 . S
C1007 H994 0.930 . S
C1007 C1006 1.376 . S
C1007 C1008 1.388 . S
C1008 H995 0.930 . S
C1008 C1007 1.388 . S
C1008 C1009 1.390 . S
C1009 C1008 1.390 . S
C1009 C1010 1.394 . S
C1009 C1015 1.465 . S
C1010 C1005 1.399 . S
C1010 C1009 1.394 . S
C1010 C1011 1.516 . S
C1011 C1010 1.516 . S
C1011 C1012 1.502 . S
C1011 C1013 1.561 . S
C1011 C1014 1.526 . S
C1012 H996 0.959 . S
C1012 H997 0.959 . S
C1012 H998 0.961 . S
C1012 C1011 1.502 . S
C1013 H999 0.960 . S
C1013 H1000 0.961 . S
C1013 H1001 0.959 . S
C1013 C1011 1.561 . S
C1014 C1011 1.526 . S
C1014 C1015 1.396 . S
C1014 C1019 1.390 . S
C1015 C1009 1.465 . S
C1015 C1014 1.396 . S
C1015 C1016 1.399 . S
C1016 H1002 0.929 . S
C1016 C1015 1.399 . S
C1016 C1017 1.385 . S
C1017 H1003 0.931 . S
C1017 C1016 1.385 . S
C1017 C1018 1.389 . S
C1018 C1017 1.389 . S
C1018 C1019 1.387 . S
C1019 H1004 0.930 . S
C1019 C1014 1.390 . S
C1019 C1018 1.387 . S
H1020 C1032 0.930 . S
H1021 C1034 0.930 . S
H1022 C1035 0.930 . S
H1023 C1039 0.959 . S
H1024 C1039 0.959 . S
H1025 C1039 0.961 . S
H1026 C1040 0.960 . S
H1027 C1040 0.961 . S
H1028 C1040 0.959 . S
H1029 C1043 0.929 . S
H1030 C1044 0.931 . S
H1031 C1046 0.930 . S
C1032 H1020 0.930 . S
C1032 C1033 1.399 . S
C1032 C1037 1.399 . S
C1033 C1032 1.399 . S
C1033 C1034 1.376 . S
C1034 H1021 0.930 . S
C1034 C1033 1.376 . S
C1034 C1035 1.388 . S
C1035 H1022 0.930 . S
C1035 C1034 1.388 . S
C1035 C1036 1.390 . S
C1036 C1035 1.390 . S
C1036 C1037 1.394 . S
C1036 C1042 1.465 . S
C1037 C1032 1.399 . S
C1037 C1036 1.394 . S
C1037 C1038 1.516 . S
C1038 C1037 1.516 . S
C1038 C1039 1.502 . S
C1038 C1040 1.561 . S
C1038 C1041 1.526 . S
C1039 H1023 0.959 . S
C1039 H1024 0.959 . S
C1039 H1025 0.961 . S
C1039 C1038 1.502 . S
C1040 H1026 0.960 . S
C1040 H1027 0.961 . S
C1040 H1028 0.959 . S
C1040 C1038 1.561 . S
C1041 C1038 1.526 . S
C1041 C1042 1.396 . S
C1041 C1046 1.390 . S
C1042 C1036 1.465 . S
C1042 C1041 1.396 . S
C1042 C1043 1.399 . S
C1043 H1029 0.929 . S
C1043 C1042 1.399 . S
C1043 C1044 1.385 . S
C1044 H1030 0.931 . S
C1044 C1043 1.385 . S
C1044 C1045 1.389 . S
C1045 C1044 1.389 . S
C1045 C1046 1.387 . S
C1046 H1031 0.930 . S
C1046 C1041 1.390 . S
C1046 C1045 1.387 . S
H1047 C1059 0.930 . S
H1048 C1061 0.930 . S
H1049 C1062 0.930 . S
H1050 C1066 0.959 . S
H1051 C1066 0.959 . S
H1052 C1066 0.961 . S
H1053 C1067 0.960 . S
H1054 C1067 0.961 . S
H1055 C1067 0.959 . S
H1056 C1070 0.929 . S
H1057 C1071 0.931 . S
H1058 C1073 0.930 . S
C1059 H1047 0.930 . S
C1059 C1060 1.399 . S
C1059 C1064 1.399 . S
C1060 C1059 1.399 . S
C1060 C1061 1.376 . S
C1061 H1048 0.930 . S
C1061 C1060 1.376 . S
C1061 C1062 1.388 . S
C1062 H1049 0.930 . S
C1062 C1061 1.388 . S
C1062 C1063 1.390 . S
C1063 C1062 1.390 . S
C1063 C1064 1.394 . S
C1063 C1069 1.465 . S
C1064 C1059 1.399 . S
C1064 C1063 1.394 . S
C1064 C1065 1.516 . S
C1065 C1064 1.516 . S
C1065 C1066 1.502 . S
C1065 C1067 1.561 . S
C1065 C1068 1.526 . S
C1066 H1050 0.959 . S
C1066 H1051 0.959 . S
C1066 H1052 0.961 . S
C1066 C1065 1.502 . S
C1067 H1053 0.960 . S
C1067 H1054 0.961 . S
C1067 H1055 0.959 . S
C1067 C1065 1.561 . S
C1068 C1065 1.526 . S
C1068 C1069 1.396 . S
C1068 C1073 1.390 . S
C1069 C1063 1.465 . S
C1069 C1068 1.396 . S
C1069 C1070 1.399 . S
C1070 H1056 0.929 . S
C1070 C1069 1.399 . S
C1070 C1071 1.385 . S
C1071 H1057 0.931 . S
C1071 C1070 1.385 . S
C1071 C1072 1.389 . S
C1072 C1071 1.389 . S
C1072 C1073 1.387 . S
C1073 H1058 0.930 . S
C1073 C1068 1.390 . S
C1073 C1072 1.387 . S
H1074 C1086 0.930 . S
H1075 C1088 0.930 . S
H1076 C1089 0.930 . S
H1077 C1093 0.959 . S
H1078 C1093 0.959 . S
H1079 C1093 0.961 . S
H1080 C1094 0.960 . S
H1081 C1094 0.961 . S
H1082 C1094 0.959 . S
H1083 C1097 0.929 . S
H1084 C1098 0.931 . S
H1085 C1100 0.930 . S
C1086 H1074 0.930 . S
C1086 C1087 1.399 . S
C1086 C1091 1.399 . S
C1087 C1086 1.399 . S
C1087 C1088 1.376 . S
C1088 H1075 0.930 . S
C1088 C1087 1.376 . S
C1088 C1089 1.388 . S
C1089 H1076 0.930 . S
C1089 C1088 1.388 . S
C1089 C1090 1.390 . S
C1090 C1089 1.390 . S
C1090 C1091 1.394 . S
C1090 C1096 1.465 . S
C1091 C1086 1.399 . S
C1091 C1090 1.394 . S
C1091 C1092 1.516 . S
C1092 C1091 1.516 . S
C1092 C1093 1.502 . S
C1092 C1094 1.561 . S
C1092 C1095 1.526 . S
C1093 H1077 0.959 . S
C1093 H1078 0.959 . S
C1093 H1079 0.961 . S
C1093 C1092 1.502 . S
C1094 H1080 0.960 . S
C1094 H1081 0.961 . S
C1094 H1082 0.959 . S
C1094 C1092 1.561 . S
C1095 C1092 1.526 . S
C1095 C1096 1.396 . S
C1095 C1100 1.390 . S
C1096 C1090 1.465 . S
C1096 C1095 1.396 . S
C1096 C1097 1.399 . S
C1097 H1083 0.929 . S
C1097 C1096 1.399 . S
C1097 C1098 1.385 . S
C1098 H1084 0.931 . S
C1098 C1097 1.385 . S
C1098 C1099 1.389 . S
C1099 C1098 1.389 . S
C1099 C1100 1.387 . S
C1100 H1085 0.930 . S
C1100 C1095 1.390 . S
C1100 C1099 1.387 . S
H1101 C1113 0.930 . S
H1102 C1115 0.930 . S
H1103 C1116 0.930 . S
H1104 C1120 0.959 . S
H1105 C1120 0.959 . S
H1106 C1120 0.961 . S
H1107 C1121 0.960 . S
H1108 C1121 0.961 . S
H1109 C1121 0.959 . S
H1110 C1124 0.929 . S
H1111 C1125 0.931 . S
H1112 C1127 0.930 . S
C1113 H1101 0.930 . S
C1113 C1114 1.399 . S
C1113 C1118 1.399 . S
C1114 C1113 1.399 . S
C1114 C1115 1.376 . S
C1115 H1102 0.930 . S
C1115 C1114 1.376 . S
C1115 C1116 1.388 . S
C1116 H1103 0.930 . S
C1116 C1115 1.388 . S
C1116 C1117 1.390 . S
C1117 C1116 1.390 . S
C1117 C1118 1.394 . S
C1117 C1123 1.465 . S
C1118 C1113 1.399 . S
C1118 C1117 1.394 . S
C1118 C1119 1.516 . S
C1119 C1118 1.516 . S
C1119 C1120 1.502 . S
C1119 C1121 1.561 . S
C1119 C1122 1.526 . S
C1120 H1104 0.959 . S
C1120 H1105 0.959 . S
C1120 H1106 0.961 . S
C1120 C1119 1.502 . S
C1121 H1107 0.960 . S
C1121 H1108 0.961 . S
C1121 H1109 0.959 . S
C1121 C1119 1.561 . S
C1122 C1119 1.526 . S
C1122 C1123 1.396 . S
C1122 C1127 1.390 . S
C1123 C1117 1.465 . S
C1123 C1122 1.396 . S
C1123 C1124 1.399 . S
C1124 H1110 0.929 . S
C1124 C1123 1.399 . S
C1124 C1125 1.385 . S
C1125 H1111 0.931 . S
C1125 C1124 1.385 . S
C1125 C1126 1.389 . S
C1126 C1125 1.389 . S
C1126 C1127 1.387 . S
C1127 H1112 0.930 . S
C1127 C1122 1.390 . S
C1127 C1126 1.387 . S
H1128 C1140 0.930 . S
H1129 C1142 0.930 . S
H1130 C1143 0.930 . S
H1131 C1147 0.959 . S
H1132 C1147 0.959 . S
H1133 C1147 0.961 . S
H1134 C1148 0.960 . S
H1135 C1148 0.961 . S
H1136 C1148 0.959 . S
H1137 C1151 0.929 . S
H1138 C1152 0.931 . S
H1139 C1154 0.930 . S
C1140 H1128 0.930 . S
C1140 C1141 1.399 . S
C1140 C1145 1.399 . S
C1141 C1140 1.399 . S
C1141 C1142 1.376 . S
C1142 H1129 0.930 . S
C1142 C1141 1.376 . S
C1142 C1143 1.388 . S
C1143 H1130 0.930 . S
C1143 C1142 1.388 . S
C1143 C1144 1.390 . S
C1144 C1143 1.390 . S
C1144 C1145 1.394 . S
C1144 C1150 1.465 . S
C1145 C1140 1.399 . S
C1145 C1144 1.394 . S
C1145 C1146 1.516 . S
C1146 C1145 1.516 . S
C1146 C1147 1.502 . S
C1146 C1148 1.561 . S
C1146 C1149 1.526 . S
C1147 H1131 0.959 . S
C1147 H1132 0.959 . S
C1147 H1133 0.961 . S
C1147 C1146 1.502 . S
C1148 H1134 0.960 . S
C1148 H1135 0.961 . S
C1148 H1136 0.959 . S
C1148 C1146 1.561 . S
C1149 C1146 1.526 . S
C1149 C1150 1.396 . S
C1149 C1154 1.390 . S
C1150 C1144 1.465 . S
C1150 C1149 1.396 . S
C1150 C1151 1.399 . S
C1151 H1137 0.929 . S
C1151 C1150 1.399 . S
C1151 C1152 1.385 . S
C1152 H1138 0.931 . S
C1152 C1151 1.385 . S
C1152 C1153 1.389 . S
C1153 C1152 1.389 . S
C1153 C1154 1.387 . S
C1154 H1139 0.930 . S
C1154 C1149 1.390 . S
C1154 C1153 1.387 . S
H1155 C1167 0.930 . S
H1156 C1169 0.930 . S
H1157 C1170 0.930 . S
H1158 C1174 0.959 . S
H1159 C1174 0.959 . S
H1160 C1174 0.961 . S
H1161 C1175 0.960 . S
H1162 C1175 0.961 . S
H1163 C1175 0.959 . S
H1164 C1178 0.929 . S
H1165 C1179 0.931 . S
H1166 C1181 0.930 . S
C1167 H1155 0.930 . S
C1167 C1168 1.399 . S
C1167 C1172 1.399 . S
C1168 C1167 1.399 . S
C1168 C1169 1.376 . S
C1169 H1156 0.930 . S
C1169 C1168 1.376 . S
C1169 C1170 1.388 . S
C1170 H1157 0.930 . S
C1170 C1169 1.388 . S
C1170 C1171 1.390 . S
C1171 C1170 1.390 . S
C1171 C1172 1.394 . S
C1171 C1177 1.465 . S
C1172 C1167 1.399 . S
C1172 C1171 1.394 . S
C1172 C1173 1.516 . S
C1173 C1172 1.516 . S
C1173 C1174 1.502 . S
C1173 C1175 1.561 . S
C1173 C1176 1.526 . S
C1174 H1158 0.959 . S
C1174 H1159 0.959 . S
C1174 H1160 0.961 . S
C1174 C1173 1.502 . S
C1175 H1161 0.960 . S
C1175 H1162 0.961 . S
C1175 H1163 0.959 . S
C1175 C1173 1.561 . S
C1176 C1173 1.526 . S
C1176 C1177 1.396 . S
C1176 C1181 1.390 . S
C1177 C1171 1.465 . S
C1177 C1176 1.396 . S
C1177 C1178 1.399 . S
C1178 H1164 0.929 . S
C1178 C1177 1.399 . S
C1178 C1179 1.385 . S
C1179 H1165 0.931 . S
C1179 C1178 1.385 . S
C1179 C1180 1.389 . S
C1180 C1179 1.389 . S
C1180 C1181 1.387 . S
C1181 H1166 0.930 . S
C1181 C1176 1.390 . S
C1181 C1180 1.387 . S
H1182 C1194 0.930 . S
H1183 C1196 0.930 . S
H1184 C1197 0.930 . S
H1185 C1201 0.959 . S
H1186 C1201 0.959 . S
H1187 C1201 0.961 . S
H1188 C1202 0.960 . S
H1189 C1202 0.961 . S
H1190 C1202 0.959 . S
H1191 C1205 0.929 . S
H1192 C1206 0.931 . S
H1193 C1208 0.930 . S
C1194 H1182 0.930 . S
C1194 C1195 1.399 . S
C1194 C1199 1.399 . S
C1195 C1194 1.399 . S
C1195 C1196 1.376 . S
C1196 H1183 0.930 . S
C1196 C1195 1.376 . S
C1196 C1197 1.388 . S
C1197 H1184 0.930 . S
C1197 C1196 1.388 . S
C1197 C1198 1.390 . S
C1198 C1197 1.390 . S
C1198 C1199 1.394 . S
C1198 C1204 1.465 . S
C1199 C1194 1.399 . S
C1199 C1198 1.394 . S
C1199 C1200 1.516 . S
C1200 C1199 1.516 . S
C1200 C1201 1.502 . S
C1200 C1202 1.561 . S
C1200 C1203 1.526 . S
C1201 H1185 0.959 . S
C1201 H1186 0.959 . S
C1201 H1187 0.961 . S
C1201 C1200 1.502 . S
C1202 H1188 0.960 . S
C1202 H1189 0.961 . S
C1202 H1190 0.959 . S
C1202 C1200 1.561 . S
C1203 C1200 1.526 . S
C1203 C1204 1.396 . S
C1203 C1208 1.390 . S
C1204 C1198 1.465 . S
C1204 C1203 1.396 . S
C1204 C1205 1.399 . S
C1205 H1191 0.929 . S
C1205 C1204 1.399 . S
C1205 C1206 1.385 . S
C1206 H1192 0.931 . S
C1206 C1205 1.385 . S
C1206 C1207 1.389 . S
C1207 C1206 1.389 . S
C1207 C1208 1.387 . S
C1208 H1193 0.930 . S
C1208 C1203 1.390 . S
C1208 C1207 1.387 . S
H1209 C1221 0.930 . S
H1210 C1223 0.930 . S
H1211 C1224 0.930 . S
H1212 C1228 0.959 . S
H1213 C1228 0.959 . S
H1214 C1228 0.961 . S
H1215 C1229 0.960 . S
H1216 C1229 0.961 . S
H1217 C1229 0.959 . S
H1218 C1232 0.929 . S
H1219 C1233 0.931 . S
H1220 C1235 0.930 . S
C1221 H1209 0.930 . S
C1221 C1222 1.399 . S
C1221 C1226 1.399 . S
C1222 C1221 1.399 . S
C1222 C1223 1.376 . S
C1223 H1210 0.930 . S
C1223 C1222 1.376 . S
C1223 C1224 1.388 . S
C1224 H1211 0.930 . S
C1224 C1223 1.388 . S
C1224 C1225 1.390 . S
C1225 C1224 1.390 . S
C1225 C1226 1.394 . S
C1225 C1231 1.465 . S
C1226 C1221 1.399 . S
C1226 C1225 1.394 . S
C1226 C1227 1.516 . S
C1227 C1226 1.516 . S
C1227 C1228 1.502 . S
C1227 C1229 1.561 . S
C1227 C1230 1.526 . S
C1228 H1212 0.959 . S
C1228 H1213 0.959 . S
C1228 H1214 0.961 . S
C1228 C1227 1.502 . S
C1229 H1215 0.960 . S
C1229 H1216 0.961 . S
C1229 H1217 0.959 . S
C1229 C1227 1.561 . S
C1230 C1227 1.526 . S
C1230 C1231 1.396 . S
C1230 C1235 1.390 . S
C1231 C1225 1.465 . S
C1231 C1230 1.396 . S
C1231 C1232 1.399 . S
C1232 H1218 0.929 . S
C1232 C1231 1.399 . S
C1232 C1233 1.385 . S
C1233 H1219 0.931 . S
C1233 C1232 1.385 . S
C1233 C1234 1.389 . S
C1234 C1233 1.389 . S
C1234 C1235 1.387 . S
C1235 H1220 0.930 . S
C1235 C1230 1.390 . S
C1235 C1234 1.387 . S
H1236 C1248 0.930 . S
H1237 C1250 0.930 . S
H1238 C1251 0.930 . S
H1239 C1255 0.959 . S
H1240 C1255 0.959 . S
H1241 C1255 0.961 . S
H1242 C1256 0.960 . S
H1243 C1256 0.961 . S
H1244 C1256 0.959 . S
H1245 C1259 0.929 . S
H1246 C1260 0.931 . S
H1247 C1262 0.930 . S
C1248 H1236 0.930 . S
C1248 C1249 1.399 . S
C1248 C1253 1.399 . S
C1249 C1248 1.399 . S
C1249 C1250 1.376 . S
C1250 H1237 0.930 . S
C1250 C1249 1.376 . S
C1250 C1251 1.388 . S
C1251 H1238 0.930 . S
C1251 C1250 1.388 . S
C1251 C1252 1.390 . S
C1252 C1251 1.390 . S
C1252 C1253 1.394 . S
C1252 C1258 1.465 . S
C1253 C1248 1.399 . S
C1253 C1252 1.394 . S
C1253 C1254 1.516 . S
C1254 C1253 1.516 . S
C1254 C1255 1.502 . S
C1254 C1256 1.561 . S
C1254 C1257 1.526 . S
C1255 H1239 0.959 . S
C1255 H1240 0.959 . S
C1255 H1241 0.961 . S
C1255 C1254 1.502 . S
C1256 H1242 0.960 . S
C1256 H1243 0.961 . S
C1256 H1244 0.959 . S
C1256 C1254 1.561 . S
C1257 C1254 1.526 . S
C1257 C1258 1.396 . S
C1257 C1262 1.390 . S
C1258 C1252 1.465 . S
C1258 C1257 1.396 . S
C1258 C1259 1.399 . S
C1259 H1245 0.929 . S
C1259 C1258 1.399 . S
C1259 C1260 1.385 . S
C1260 H1246 0.931 . S
C1260 C1259 1.385 . S
C1260 C1261 1.389 . S
C1261 C1260 1.389 . S
C1261 C1262 1.387 . S
C1262 H1247 0.930 . S
C1262 C1257 1.390 . S
C1262 C1261 1.387 . S
H1263 C1275 0.930 . S
H1264 C1277 0.930 . S
H1265 C1278 0.930 . S
H1266 C1282 0.959 . S
H1267 C1282 0.959 . S
H1268 C1282 0.961 . S
H1269 C1283 0.960 . S
H1270 C1283 0.961 . S
H1271 C1283 0.959 . S
H1272 C1286 0.929 . S
H1273 C1287 0.931 . S
H1274 C1289 0.930 . S
C1275 H1263 0.930 . S
C1275 C1276 1.399 . S
C1275 C1280 1.399 . S
C1276 C1275 1.399 . S
C1276 C1277 1.376 . S
C1277 H1264 0.930 . S
C1277 C1276 1.376 . S
C1277 C1278 1.388 . S
C1278 H1265 0.930 . S
C1278 C1277 1.388 . S
C1278 C1279 1.390 . S
C1279 C1278 1.390 . S
C1279 C1280 1.394 . S
C1279 C1285 1.465 . S
C1280 C1275 1.399 . S
C1280 C1279 1.394 . S
C1280 C1281 1.516 . S
C1281 C1280 1.516 . S
C1281 C1282 1.502 . S
C1281 C1283 1.561 . S
C1281 C1284 1.526 . S
C1282 H1266 0.959 . S
C1282 H1267 0.959 . S
C1282 H1268 0.961 . S
C1282 C1281 1.502 . S
C1283 H1269 0.960 . S
C1283 H1270 0.961 . S
C1283 H1271 0.959 . S
C1283 C1281 1.561 . S
C1284 C1281 1.526 . S
C1284 C1285 1.396 . S
C1284 C1289 1.390 . S
C1285 C1279 1.465 . S
C1285 C1284 1.396 . S
C1285 C1286 1.399 . S
C1286 H1272 0.929 . S
C1286 C1285 1.399 . S
C1286 C1287 1.385 . S
C1287 H1273 0.931 . S
C1287 C1286 1.385 . S
C1287 C1288 1.389 . S
C1288 C1287 1.389 . S
C1288 C1289 1.387 . S
C1289 H1274 0.930 . S
C1289 C1284 1.390 . S
C1289 C1288 1.387 . S
H1290 C1302 0.930 . S
H1291 C1304 0.930 . S
H1292 C1305 0.930 . S
H1293 C1309 0.959 . S
H1294 C1309 0.959 . S
H1295 C1309 0.961 . S
H1296 C1310 0.960 1_556 S
H1297 C1310 0.961 . S
H1298 C1310 0.959 1_556 S
H1299 C1313 0.929 . S
H1300 C1314 0.931 . S
H1301 C1316 0.930 . S
C1302 H1290 0.930 . S
C1302 C1303 1.399 . S
C1302 C1307 1.399 . S
C1303 C1302 1.399 . S
C1303 C1304 1.376 . S
C1304 H1291 0.930 . S
C1304 C1303 1.376 . S
C1304 C1305 1.388 . S
C1305 H1292 0.930 . S
C1305 C1304 1.388 . S
C1305 C1306 1.390 . S
C1306 C1305 1.390 . S
C1306 C1307 1.394 . S
C1306 C1312 1.480 . S
C1307 C1302 1.399 . S
C1307 C1306 1.394 . S
C1307 C1308 1.516 1_556 S
C1308 C1307 1.516 1_554 S
C1308 C1309 1.502 . S
C1308 C1310 1.561 . S
C1308 C1311 1.526 . S
C1309 H1293 0.959 . S
C1309 H1294 0.959 . S
C1309 H1295 0.961 . S
C1309 C1308 1.502 . S
C1310 H1296 0.960 1_554 S
C1310 H1297 0.961 . S
C1310 H1298 0.959 1_554 S
C1310 C1308 1.561 . S
C1311 C1308 1.526 . S
C1311 C1312 1.379 1_554 S
C1311 C1316 1.390 . S
C1312 C1306 1.480 . S
C1312 C1311 1.379 1_556 S
C1312 C1313 1.400 . S
C1313 H1299 0.929 . S
C1313 C1312 1.400 . S
C1313 C1314 1.385 1_556 S
C1314 H1300 0.931 . S
C1314 C1313 1.385 1_554 S
C1314 C1315 1.389 . S
C1315 C1314 1.389 . S
C1315 C1316 1.387 . S
C1316 H1301 0.930 . S
C1316 C1311 1.390 . S
C1316 C1315 1.387 . S
H1317 C1329 0.930 . S
H1318 C1331 0.930 . S
H1319 C1332 0.931 1_655 S
H1320 C1336 0.959 . S
H1321 C1336 0.959 . S
H1322 C1336 0.961 . S
H1323 C1337 0.960 . S
H1324 C1337 0.961 . S
H1325 C1337 0.959 . S
H1326 C1340 0.929 . S
H1327 C1341 0.931 . S
H1328 C1343 0.930 . S
C1329 H1317 0.930 . S
C1329 C1330 1.399 . S
C1329 C1334 1.399 . S
C1330 C1329 1.399 . S
C1330 C1331 1.376 . S
C1331 H1318 0.930 . S
C1331 C1330 1.376 . S
C1331 C1332 1.388 . S
C1332 H1319 0.931 1_455 S
C1332 C1331 1.388 . S
C1332 C1333 1.390 . S
C1333 C1332 1.390 . S
C1333 C1334 1.394 . S
C1333 C1339 1.465 1_455 S
C1334 C1329 1.399 . S
C1334 C1333 1.394 . S
C1334 C1335 1.516 . S
C1335 C1334 1.516 . S
C1335 C1336 1.502 . S
C1335 C1337 1.561 . S
C1335 C1338 1.526 1_455 S
C1336 H1320 0.959 . S
C1336 H1321 0.959 . S
C1336 H1322 0.961 . S
C1336 C1335 1.502 . S
C1337 H1323 0.960 . S
C1337 H1324 0.961 . S
C1337 H1325 0.959 . S
C1337 C1335 1.561 . S
C1338 C1335 1.526 1_655 S
C1338 C1339 1.396 . S
C1338 C1343 1.390 . S
C1339 C1333 1.465 1_655 S
C1339 C1338 1.396 . S
C1339 C1340 1.399 . S
C1340 H1326 0.929 . S
C1340 C1339 1.399 . S
C1340 C1341 1.385 . S
C1341 H1327 0.931 . S
C1341 C1340 1.385 . S
C1341 C1342 1.389 . S
C1342 C1341 1.389 . S
C1342 C1343 1.387 . S
C1343 H1328 0.930 . S
C1343 C1338 1.390 . S
C1343 C1342 1.387 . S
H1344 C1356 0.930 . S
H1345 C1358 0.930 . S
H1346 C1359 0.930 1_545 S
H1347 C1363 0.959 . S
H1348 C1363 0.959 . S
H1349 C1363 0.961 . S
H1350 C1364 0.960 . S
H1351 C1364 0.961 . S
H1352 C1364 0.959 . S
H1353 C1367 0.929 . S
H1354 C1368 0.931 . S
H1355 C1370 0.930 . S
C1356 H1344 0.930 . S
C1356 C1357 1.399 . S
C1356 C1361 1.399 . S
C1357 C1356 1.399 . S
C1357 C1358 1.376 . S
C1358 H1345 0.930 . S
C1358 C1357 1.376 . S
C1358 C1359 1.388 . S
C1359 H1346 0.930 1_565 S
C1359 C1358 1.388 . S
C1359 C1360 1.390 . S
C1360 C1359 1.390 . S
C1360 C1361 1.394 . S
C1360 C1366 1.489 1_565 S
C1361 C1356 1.399 . S
C1361 C1360 1.394 . S
C1361 C1362 1.516 1_554 S
C1362 C1361 1.516 1_556 S
C1362 C1363 1.502 . S
C1362 C1364 1.561 . S
C1362 C1365 1.526 1_565 S
C1363 H1347 0.959 . S
C1363 H1348 0.959 . S
C1363 H1349 0.961 . S
C1363 C1362 1.502 . S
C1364 H1350 0.960 . S
C1364 H1351 0.961 . S
C1364 H1352 0.959 . S
C1364 C1362 1.561 . S
C1365 C1362 1.526 1_545 S
C1365 C1366 1.359 1_556 S
C1365 C1370 1.390 . S
C1366 C1360 1.489 1_545 S
C1366 C1365 1.359 1_554 S
C1366 C1367 1.408 . S
C1367 H1353 0.929 . S
C1367 C1366 1.408 . S
C1367 C1368 1.385 1_554 S
C1368 H1354 0.931 . S
C1368 C1367 1.385 1_556 S
C1368 C1369 1.389 . S
C1369 C1368 1.389 . S
C1369 C1370 1.387 . S
C1370 H1355 0.930 . S
C1370 C1365 1.390 . S
C1370 C1369 1.387 . S
H1371 C1383 0.930 . S
H1372 C1385 0.930 . S
H1373 C1386 0.930 . S
H1374 C1390 0.959 . S
H1375 C1390 0.959 . S
H1376 C1390 0.961 . S
H1377 C1391 0.960 . S
H1378 C1391 0.961 . S
H1379 C1391 0.959 . S
H1380 C1394 0.929 . S
H1381 C1395 0.931 . S
H1382 C1397 0.930 . S
C1383 H1371 0.930 . S
C1383 C1384 1.399 . S
C1383 C1388 1.399 . S
C1384 C1383 1.399 . S
C1384 C1385 1.376 . S
C1385 H1372 0.930 . S
C1385 C1384 1.376 . S
C1385 C1386 1.388 . S
C1386 H1373 0.930 . S
C1386 C1385 1.388 . S
C1386 C1387 1.390 . S
C1387 C1386 1.390 . S
C1387 C1388 1.394 . S
C1387 C1393 1.465 . S
C1388 C1383 1.399 . S
C1388 C1387 1.394 . S
C1388 C1389 1.516 . S
C1389 C1388 1.516 . S
C1389 C1390 1.502 . S
C1389 C1391 1.561 . S
C1389 C1392 1.526 . S
C1390 H1374 0.959 . S
C1390 H1375 0.959 . S
C1390 H1376 0.961 . S
C1390 C1389 1.502 . S
C1391 H1377 0.960 . S
C1391 H1378 0.961 . S
C1391 H1379 0.959 . S
C1391 C1389 1.561 . S
C1392 C1389 1.526 . S
C1392 C1393 1.396 . S
C1392 C1397 1.390 . S
C1393 C1387 1.465 . S
C1393 C1392 1.396 . S
C1393 C1394 1.399 . S
C1394 H1380 0.929 . S
C1394 C1393 1.399 . S
C1394 C1395 1.385 . S
C1395 H1381 0.931 . S
C1395 C1394 1.385 . S
C1395 C1396 1.389 . S
C1396 C1395 1.389 . S
C1396 C1397 1.387 . S
C1397 H1382 0.930 . S
C1397 C1392 1.390 . S
C1397 C1396 1.387 . S
H1398 C1410 0.930 . S
H1399 C1412 0.930 . S
H1400 C1413 0.930 . S
H1401 C1417 0.959 . S
H1402 C1417 0.959 . S
H1403 C1417 0.961 . S
H1404 C1418 0.960 . S
H1405 C1418 0.961 . S
H1406 C1418 0.959 . S
H1407 C1421 0.929 1_655 S
H1408 C1422 0.931 . S
H1409 C1424 0.930 . S
C1410 H1398 0.930 . S
C1410 C1411 1.399 . S
C1410 C1415 1.399 . S
C1411 C1410 1.399 . S
C1411 C1412 1.376 . S
C1412 H1399 0.930 . S
C1412 C1411 1.376 . S
C1412 C1413 1.388 1_556 S
C1413 H1400 0.930 . S
C1413 C1412 1.388 1_554 S
C1413 C1414 1.390 . S
C1414 C1413 1.390 . S
C1414 C1415 1.394 1_554 S
C1414 C1420 1.465 1_655 S
C1415 C1410 1.399 . S
C1415 C1414 1.394 1_556 S
C1415 C1416 1.516 1_655 S
C1416 C1415 1.516 1_455 S
C1416 C1417 1.502 . S
C1416 C1418 1.561 . S
C1416 C1419 1.526 1_556 S
C1417 H1401 0.959 . S
C1417 H1402 0.959 . S
C1417 H1403 0.961 . S
C1417 C1416 1.502 . S
C1418 H1404 0.960 . S
C1418 H1405 0.961 . S
C1418 H1406 0.959 . S
C1418 C1416 1.561 . S
C1419 C1416 1.526 1_554 S
C1419 C1420 1.396 . S
C1419 C1424 1.390 . S
C1420 C1414 1.465 1_455 S
C1420 C1419 1.396 . S
C1420 C1421 1.399 . S
C1421 H1407 0.929 1_455 S
C1421 C1420 1.399 . S
C1421 C1422 1.385 . S
C1422 H1408 0.931 . S
C1422 C1421 1.385 . S
C1422 C1423 1.389 . S
C1423 C1422 1.389 . S
C1423 C1424 1.387 . S
C1424 H1409 0.930 . S
C1424 C1419 1.390 . S
C1424 C1423 1.387 . S
H1425 C1437 0.930 . S
H1426 C1439 0.930 . S
H1427 C1440 0.930 1_545 S
H1428 C1444 0.959 . S
H1429 C1444 0.959 . S
H1430 C1444 0.961 . S
H1431 C1445 0.960 . S
H1432 C1445 0.961 . S
H1433 C1445 0.959 . S
H1434 C1448 0.929 . S
H1435 C1449 0.931 . S
H1436 C1451 0.930 . S
C1437 H1425 0.930 . S
C1437 C1438 1.399 . S
C1437 C1442 1.399 . S
C1438 C1437 1.399 . S
C1438 C1439 1.376 . S
C1439 H1426 0.930 . S
C1439 C1438 1.376 . S
C1439 C1440 1.388 . S
C1440 H1427 0.930 1_565 S
C1440 C1439 1.388 . S
C1440 C1441 1.390 . S
C1441 C1440 1.390 . S
C1441 C1442 1.394 . S
C1441 C1447 1.465 1_565 S
C1442 C1437 1.399 . S
C1442 C1441 1.394 . S
C1442 C1443 1.516 . S
C1443 C1442 1.516 . S
C1443 C1444 1.502 . S
C1443 C1445 1.561 . S
C1443 C1446 1.526 1_565 S
C1444 H1428 0.959 . S
C1444 H1429 0.959 . S
C1444 H1430 0.961 . S
C1444 C1443 1.502 . S
C1445 H1431 0.960 . S
C1445 H1432 0.961 . S
C1445 H1433 0.959 . S
C1445 C1443 1.561 . S
C1446 C1443 1.526 1_545 S
C1446 C1447 1.396 . S
C1446 C1451 1.390 . S
C1447 C1441 1.465 1_545 S
C1447 C1446 1.396 . S
C1447 C1448 1.399 . S
C1448 H1434 0.929 . S
C1448 C1447 1.399 . S
C1448 C1449 1.385 . S
C1449 H1435 0.931 . S
C1449 C1448 1.385 . S
C1449 C1450 1.389 . S
C1450 C1449 1.389 . S
C1450 C1451 1.387 . S
C1451 H1436 0.930 . S
C1451 C1446 1.390 . S
C1451 C1450 1.387 . S
C493 C184 1.228 . S
C505 C17 1.202 . S
C520 C224 1.210 . S
C532 C57 1.218 . S
C547 C97 1.197 . S
C559 C24 1.254 . S
C574 C137 1.260 . S
C586 C64 1.186 . S
C601 C177 1.256 . S
C613 C104 1.193 . S
C628 C144 1.198 . S
C640 C217 1.252 . S
C655 C344 1.237 . S
C667 C257 1.218 . S
C682 C297 1.196 . S
C694 C384 1.254 . S
C709 C424 1.209 . S
C721 C337 1.244 . S
C736 C377 1.261 . S
C748 C464 1.178 . S
C763 C417 1.196 . S
C775 C264 1.235 . S
C790 C304 1.214 . S
C802 C457 1.240 . S
C817 C173 1.540 . S
C829 C26 1.571 . S
C844 C66 1.527 . S
C856 C213 1.575 . S
C871 C106 1.577 . S
C883 C13 1.526 . S
C898 C146 1.534 . S
C910 C53 1.576 . S
C925 C93 1.545 . S
C937 C186 1.567 . S
C952 C133 1.542 . S
C964 C226 1.570 . S
C979 C333 1.578 . S
C991 C266 1.526 . S
C1006 C306 1.579 . S
C1018 C373 1.531 . S
C1033 C346 1.577 . S
C1045 C413 1.526 . S
C1060 C453 1.543 . S
C1072 C386 1.569 . S
C1087 C426 1.527 . S
C1099 C253 1.580 . S
C1114 C293 1.553 . S
C1126 C466 1.560 . S
C1141 C423 1.665 . S
C1153 C23 1.621 . S
C1168 C63 1.623 . S
C1180 C463 1.692 . S
C1195 C103 1.694 . S
C1207 C263 1.673 . S
C1222 C143 1.655 . S
C1234 C303 1.701 . S
C1249 C183 1.698 . S
C1261 C343 1.631 . S
C1276 C383 1.623 . S
C1288 C223 1.691 . S
C1303 C362 2.197 . S
C1315 C2 2.221 . S
C1330 C402 2.194 . S
C1342 C42 2.212 . S
C1357 C82 2.193 . S
C1369 C442 2.213 . S
C1384 C122 2.193 . S
C1396 C242 2.221 . S
C1411 C282 2.221 . S
C1423 C162 2.198 . S
C1438 C322 2.192 . S
C1450 C202 2.216 . S
