# Generated by pormake.
# Topology bcu-g, (3)-cn, num edge types: 1
# Building blocks:
#     Node 0, Type 0, BuildingBlock: OLANEW_clean_sbu_2, # of connection points: 3
#     Node 1, Type 0, BuildingBlock: OLANEW_clean_sbu_2, # of connection points: 3
#     Node 2, Type 0, BuildingBlock: OLANEW_clean_sbu_2, # of connection points: 3
#     Node 3, Type 0, BuildingBlock: OLANEW_clean_sbu_2, # of connection points: 3
#     Node 4, Type 0, BuildingBlock: OLANEW_clean_sbu_2, # of connection points: 3
#     Node 5, Type 0, BuildingBlock: OLANEW_clean_sbu_2, # of connection points: 3
#     Node 6, Type 0, BuildingBlock: OLANEW_clean_sbu_2, # of connection points: 3
#     Node 7, Type 0, BuildingBlock: OLANEW_clean_sbu_2, # of connection points: 3
#     Node 8, Type 0, BuildingBlock: OLANEW_clean_sbu_2, # of connection points: 3
#     Node 9, Type 0, BuildingBlock: OLANEW_clean_sbu_2, # of connection points: 3
#     Node 10, Type 0, BuildingBlock: OLANEW_clean_sbu_2, # of connection points: 3
#     Node 11, Type 0, BuildingBlock: OLANEW_clean_sbu_2, # of connection points: 3
#     Node 12, Type 0, BuildingBlock: OLANEW_clean_sbu_2, # of connection points: 3
#     Node 13, Type 0, BuildingBlock: OLANEW_clean_sbu_2, # of connection points: 3
#     Node 14, Type 0, BuildingBlock: OLANEW_clean_sbu_2, # of connection points: 3
#     Node 15, Type 0, BuildingBlock: OLANEW_clean_sbu_2, # of connection points: 3
#     Edge 16, Type (0, 0), BuildingBlock: CIFDUS_clean_linker_0, # of connection points: 2
#     Edge 17, Type (0, 0), BuildingBlock: CIFDUS_clean_linker_0, # of connection points: 2
#     Edge 18, Type (0, 0), BuildingBlock: CIFDUS_clean_linker_0, # of connection points: 2
#     Edge 19, Type (0, 0), BuildingBlock: CIFDUS_clean_linker_0, # of connection points: 2
#     Edge 20, Type (0, 0), BuildingBlock: CIFDUS_clean_linker_0, # of connection points: 2
#     Edge 21, Type (0, 0), BuildingBlock: CIFDUS_clean_linker_0, # of connection points: 2
#     Edge 22, Type (0, 0), BuildingBlock: CIFDUS_clean_linker_0, # of connection points: 2
#     Edge 23, Type (0, 0), BuildingBlock: CIFDUS_clean_linker_0, # of connection points: 2
#     Edge 24, Type (0, 0), BuildingBlock: CIFDUS_clean_linker_0, # of connection points: 2
#     Edge 25, Type (0, 0), BuildingBlock: CIFDUS_clean_linker_0, # of connection points: 2
#     Edge 26, Type (0, 0), BuildingBlock: CIFDUS_clean_linker_0, # of connection points: 2
#     Edge 27, Type (0, 0), BuildingBlock: CIFDUS_clean_linker_0, # of connection points: 2
#     Edge 28, Type (0, 0), BuildingBlock: CIFDUS_clean_linker_0, # of connection points: 2
#     Edge 29, Type (0, 0), BuildingBlock: CIFDUS_clean_linker_0, # of connection points: 2
#     Edge 30, Type (0, 0), BuildingBlock: CIFDUS_clean_linker_0, # of connection points: 2
#     Edge 31, Type (0, 0), BuildingBlock: CIFDUS_clean_linker_0, # of connection points: 2
#     Edge 32, Type (0, 0), BuildingBlock: CIFDUS_clean_linker_0, # of connection points: 2
#     Edge 33, Type (0, 0), BuildingBlock: CIFDUS_clean_linker_0, # of connection points: 2
#     Edge 34, Type (0, 0), BuildingBlock: CIFDUS_clean_linker_0, # of connection points: 2
#     Edge 35, Type (0, 0), BuildingBlock: CIFDUS_clean_linker_0, # of connection points: 2
#     Edge 36, Type (0, 0), BuildingBlock: CIFDUS_clean_linker_0, # of connection points: 2
#     Edge 37, Type (0, 0), BuildingBlock: CIFDUS_clean_linker_0, # of connection points: 2
#     Edge 38, Type (0, 0), BuildingBlock: CIFDUS_clean_linker_0, # of connection points: 2
#     Edge 39, Type (0, 0), BuildingBlock: CIFDUS_clean_linker_0, # of connection points: 2
# Relax obj value: 0.050
# Max RMSD: 0.021
# Mean RMSD: 0.021
data_MOF--net-bcu-g--node1-OLANEW_clean_sbu_2--edge1-CIFDUS_clean_linker_0
_symmetry_space_group_name_H-M    P1
_symmetry_Int_Tables_number       1
_symmetry_cell_setting            triclinic
loop_
_symmetry_equiv_pos_as_xyz
'x, y, z'
_cell_length_a     43.492814
_cell_length_b     43.575859
_cell_length_c     36.770458
_cell_angle_alpha  89.885269
_cell_angle_beta   89.859388
_cell_angle_gamma 89.818495
loop_
_atom_site_label
_atom_site_type_symbol
_atom_site_fract_x
_atom_site_fract_y
_atom_site_fract_z
_atom_type_partial_charge
O0 O 0.52322 0.06862 0.19664 0.0
Cd1 Cd 0.56328 0.10709 0.1872 0.0
O2 O 0.53361 0.0538 0.14121 0.0
Cd3 Cd 0.52752 0.02899 0.09001 0.0
O4 O 0.52758 0.00793 0.03621 0.0
C5 C 0.50785 0.98818 0.02635 0.0
O6 O 0.48623 0.97981 0.04928 0.0
C7 C 0.51802 0.05055 0.17029 0.0
C8 C 0.61872 0.08911 0.21859 0.0
O9 O 0.60011 0.10695 0.23555 0.0
O10 O 0.61115 0.07993 0.18677 0.0
O11 O 0.43552 0.57794 0.30679 0.0
Cd12 Cd 0.38518 0.60293 0.30808 0.0
O13 O 0.43479 0.57806 0.24725 0.0
Cd14 Cd 0.44884 0.56446 0.1923 0.0
O15 O 0.45918 0.55041 0.13654 0.0
C16 C 0.43705 0.54667 0.1145 0.0
O17 O 0.40881 0.55151 0.12598 0.0
C18 C 0.44813 0.57066 0.27679 0.0
C19 C 0.38338 0.66098 0.27632 0.0
O20 O 0.38839 0.65771 0.31046 0.0
O21 O 0.37981 0.63673 0.25713 0.0
O22 O 0.96587 0.41582 0.28086 0.0
Cd23 Cd 0.92941 0.3733 0.27952 0.0
O24 O 0.9415 0.43928 0.23677 0.0
Cd25 Cd 0.93123 0.47537 0.19701 0.0
O26 O 0.93105 0.50858 0.15247 0.0
C27 C 0.95313 0.50721 0.12985 0.0
O28 O 0.97405 0.48564 0.13367 0.0
C29 C 0.96394 0.43833 0.25897 0.0
C30 C 0.86799 0.39025 0.27051 0.0
O31 O 0.87974 0.38758 0.3023 0.0
O32 O 0.88551 0.38557 0.24296 0.0
O33 O 0.06829 0.92965 0.25427 0.0
Cd34 Cd 0.11932 0.91389 0.23354 0.0
O35 O 0.06285 0.96182 0.20878 0.0
Cd36 Cd 0.03671 0.99234 0.17288 0.0
O37 O 0.01245 0.01725 0.13004 0.0
C38 C 0.02254 0.04272 0.11816 0.0
O39 O 0.0474 0.05443 0.13281 0.0
C40 C 0.05205 0.9493 0.23735 0.0
C41 C 0.12478 0.85 0.2342 0.0
O42 O 0.13132 0.86595 0.26237 0.0
O43 O 0.11582 0.86429 0.2056 0.0
O44 O 0.58834 0.43515 0.27089 0.0
Cd45 Cd 0.62265 0.39076 0.26622 0.0
O46 O 0.5959 0.43779 0.32982 0.0
Cd47 Cd 0.58807 0.4581 0.38359 0.0
O48 O 0.57342 0.48125 0.43346 0.0
C49 C 0.5656 0.46581 0.46133 0.0
O50 O 0.56697 0.43571 0.45995 0.0
C51 C 0.58209 0.44727 0.30144 0.0
C52 C 0.68522 0.40118 0.27657 0.0
O53 O 0.6733 0.40265 0.24475 0.0
O54 O 0.66733 0.39578 0.30358 0.0
O55 O 0.10797 0.57212 0.204 0.0
Cd56 Cd 0.15248 0.60632 0.2031 0.0
O57 O 0.09704 0.58404 0.26058 0.0
Cd58 Cd 0.06818 0.58069 0.30923 0.0
O59 O 0.03732 0.56234 0.3507 0.0
C60 C 0.04656 0.53951 0.36928 0.0
O61 O 0.07451 0.52892 0.36377 0.0
C62 C 0.09143 0.56838 0.23219 0.0
C63 C 0.13872 0.66891 0.20385 0.0
O64 O 0.13989 0.65392 0.17391 0.0
O65 O 0.14342 0.65414 0.23352 0.0
O66 O 0.86489 0.97512 0.3066 0.0
Cd67 Cd 0.8155 0.98069 0.33776 0.0
O68 O 0.8755 0.94526 0.35286 0.0
Cd69 Cd 0.90747 0.91845 0.38601 0.0
O70 O 0.9446 0.90151 0.42036 0.0
C71 C 0.97085 0.91406 0.41779 0.0
O72 O 0.97489 0.93605 0.39375 0.0
C73 C 0.88358 0.95734 0.32282 0.0
C74 C 0.76871 0.00653 0.29612 0.0
O75 O 0.78455 0.02309 0.31787 0.0
O76 O 0.77542 0.97796 0.29357 0.0
O77 O 0.38571 0.90409 0.12728 0.0
Cd78 Cd 0.34132 0.87005 0.12926 0.0
O79 O 0.38188 0.90836 0.18654 0.0
Cd80 Cd 0.39916 0.92447 0.23886 0.0
O81 O 0.42269 0.94235 0.28659 0.0
C82 C 0.41844 0.97005 0.29612 0.0
O83 O 0.39933 0.98722 0.2773 0.0
C84 C 0.39522 0.91553 0.15692 0.0
C85 C 0.3557 0.81315 0.15956 0.0
O86 O 0.35673 0.81736 0.12506 0.0
O87 O 0.34796 0.8359 0.17968 0.0
O88 O 0.45433 0.95775 0.73704 0.0
Cd89 Cd 0.42289 0.92097 0.77102 0.0
O90 O 0.48529 0.92188 0.71595 0.0
Cd91 Cd 0.46918 0.89094 0.75855 0.0
O92 O 0.46796 0.89434 0.81781 0.0
C93 C 0.48751 0.9134 0.82984 0.0
O94 O 0.50606 0.92686 0.80652 0.0
C95 C 0.4764 0.94974 0.71627 0.0
C96 C 0.36415 0.91487 0.74176 0.0
O97 O 0.36866 0.93136 0.77006 0.0
O98 O 0.38732 0.90134 0.72729 0.0
O99 O 0.49889 0.39333 0.77288 0.0
Cd100 Cd 0.5144 0.34334 0.7968 0.0
O101 O 0.51994 0.41307 0.82153 0.0
Cd102 Cd 0.52571 0.44985 0.86124 0.0
O103 O 0.52088 0.4762 0.91142 0.0
C104 C 0.49382 0.48253 0.92223 0.0
O105 O 0.4704 0.47416 0.90207 0.0
C106 C 0.50496 0.41666 0.79219 0.0
C107 C 0.54622 0.30611 0.74803 0.0
O108 O 0.51677 0.30713 0.7482 0.0
O109 O 0.56072 0.32323 0.77048 0.0
O110 O 0.04358 0.56369 0.83001 0.0
Cd111 Cd 0.06698 0.59931 0.87305 0.0
O112 O 0.00019 0.58941 0.82517 0.0
Cd113 Cd 0.01108 0.61449 0.87461 0.0
O114 O 0.01352 0.60508 0.93271 0.0
C115 C 0.98841 0.6028 0.95024 0.0
O116 O 0.96252 0.60928 0.93353 0.0
C117 C 0.01755 0.56752 0.81491 0.0
C118 C 0.12977 0.60473 0.85868 0.0
O119 O 0.10995 0.62056 0.84092 0.0
O120 O 0.11996 0.58658 0.88357 0.0
O121 O 0.00851 0.10665 0.78776 0.0
Cd122 Cd 0.9867 0.1501 0.82095 0.0
O123 O 0.97736 0.0727 0.81225 0.0
Cd124 Cd 0.95957 0.10389 0.85356 0.0
O125 O 0.96139 0.10617 0.91271 0.0
C126 C 0.98368 0.11977 0.92799 0.0
O127 O 0.00322 0.13517 0.90772 0.0
C128 C -0.00125 0.07924 0.78996 0.0
C129 C 0.98286 0.20142 0.77563 0.0
O130 O 0.00745 0.19534 0.7934 0.0
O131 O 0.95987 0.18337 0.77955 0.0
O132 O 0.38671 0.57535 0.76707 0.0
Cd133 Cd 0.36341 0.62645 0.76627 0.0
O134 O 0.42236 0.58816 0.72735 0.0
Cd135 Cd 0.46007 0.57411 0.69151 0.0
O136 O 0.48726 0.55305 0.64808 0.0
C137 C 0.4909 0.52409 0.64773 0.0
O138 O 0.47911 0.50769 0.67432 0.0
C139 C 0.4103 0.56837 0.74838 0.0
C140 C 0.30079 0.62409 0.78273 0.0
O141 O 0.32104 0.62441 0.80798 0.0
O142 O 0.31011 0.62499 0.74965 0.0
O143 O 0.95605 0.44163 0.65389 0.0
Cd144 Cd 0.94483 0.4011 0.61021 0.0
O145 O 0.91823 0.47268 0.63876 0.0
Cd146 Cd 0.91375 0.44971 0.58648 0.0
O147 O 0.93422 0.45678 0.53289 0.0
C148 C 0.96155 0.44743 0.52749 0.0
O149 O 0.97524 0.43127 0.55298 0.0
C150 C 0.94033 0.46577 0.6598 0.0
C151 C 0.94698 0.3452 0.6473 0.0
O152 O 0.97135 0.35718 0.6338 0.0
O153 O 0.92137 0.35923 0.64241 0.0
O154 O 0.09517 0.93297 0.68482 0.0
Cd155 Cd 0.12802 0.89203 0.66096 0.0
O156 O 0.06305 0.89954 0.7085 0.0
Cd157 Cd 0.07853 0.86379 0.67131 0.0
O158 O 0.0639 0.85228 0.61636 0.0
C159 C 0.06974 0.87178 0.59157 0.0
O160 O 0.08699 0.89552 0.59957 0.0
C161 C 0.07214 0.92711 0.70503 0.0
C162 C 0.18726 0.89751 0.68904 0.0
O163 O 0.18103 0.90697 0.65686 0.0
O164 O 0.16567 0.88518 0.70772 0.0
O165 O 0.59897 0.07556 0.61569 0.0
Cd166 Cd 0.62734 0.11793 0.58813 0.0
O167 O 0.59198 0.05462 0.5622 0.0
Cd168 Cd 0.56949 0.0228 0.52503 0.0
O169 O 0.54321 1e-05 0.48253 0.0
C170 C 0.52358 0.016 0.46525 0.0
O171 O 0.51993 0.045 0.47402 0.0
C172 C 0.58741 0.05443 0.59634 0.0
C173 C 0.60481 0.17228 0.61788 0.0
O174 O 0.59216 0.16018 0.58995 0.0
O175 O 0.62871 0.15914 0.63111 0.0
H176 H 0.51481 0.99498 0.13644 0.0
H177 H 0.46664 0.05317 0.21247 0.0
H178 H 0.42489 0.01595 0.21621 0.0
H179 H 0.40088 0.96801 0.19557 0.0
H180 H 0.44764 0.91131 0.1169 0.0
H181 H 0.49081 0.94725 0.11555 0.0
C182 C 0.49483 -4e-05 0.15301 0.0
C183 C 0.49341 0.0273 0.17319 0.0
C184 C 0.47067 0.9787 0.15455 0.0
C185 C 0.46817 0.03242 0.19638 0.0
C186 C 0.44425 0.01118 0.19849 0.0
C187 C 0.42076 0.96335 0.17858 0.0
C188 C 0.42143 0.93691 0.15679 0.0
C189 C 0.44512 0.98438 0.17745 0.0
C190 C 0.44677 0.93154 0.13396 0.0
C191 C 0.4714 0.95205 0.1332 0.0
H192 H 0.46584 0.53059 0.32874 0.0
H193 H 0.49462 0.56895 0.22602 0.0
H194 H 0.53897 0.53436 0.22478 0.0
H195 H 0.56869 0.49183 0.25222 0.0
H196 H 0.53927 0.45385 0.3549 0.0
H197 H 0.49666 0.49023 0.35742 0.0
C198 C 0.48194 0.53156 0.30619 0.0
C199 C 0.47637 0.55162 0.27692 0.0
C200 C 0.50754 0.5119 0.30593 0.0
C201 C 0.49757 0.55277 0.24807 0.0
C202 C 0.52318 0.53327 0.2476 0.0
C203 C 0.55308 0.49181 0.27527 0.0
C204 C 0.55764 0.47079 0.30385 0.0
C205 C 0.52816 0.51243 0.27616 0.0
C206 C 0.53709 0.47067 0.33336 0.0
C207 C 0.51239 0.49115 0.33453 0.0
H208 H 0.98355 0.4753 0.20334 0.0
H209 H 0.00021 0.45387 0.31604 0.0
H210 H 0.04172 0.49123 0.31747 0.0
H211 H 0.07331 0.53023 0.28674 0.0
H212 H 0.05421 0.55441 0.17536 0.0
H213 H 0.01307 0.51646 0.17352 0.0
C214 C 0.99514 0.47981 0.22864 0.0
C215 C 0.98787 0.46251 0.25981 0.0
C216 C 0.01854 0.50198 0.22956 0.0
C217 C 0.005 0.46711 0.29171 0.0
C218 C 0.02869 0.48863 0.29265 0.0
C219 C 0.0594 0.52798 0.26253 0.0
C220 C 0.06608 0.54585 0.23165 0.0
C221 C 0.03553 0.50635 0.26183 0.0
C222 C 0.04924 0.54116 0.19963 0.0
C223 C 0.02567 0.51946 0.19858 0.0
H224 H 0.9208 -0.00311 0.28625 0.0
H225 H 0.91466 0.90327 0.32367 0.0
H226 H 0.96643 0.89284 0.30122 0.0
H227 H 0.01351 0.91024 0.27117 0.0
H228 H 0.0204 0.00375 0.23361 0.0
H229 H 0.96815 0.01421 0.2551 0.0
C230 C 0.93085 0.97423 0.28931 0.0
C231 C 0.91435 0.9511 0.30748 0.0
C232 C 0.96061 0.9683 0.27596 0.0
C233 C 0.92741 0.92175 0.31104 0.0
C234 C 0.95687 0.91567 0.29784 0.0
C235 C 0.00355 0.93291 0.26768 0.0
C236 C 0.02051 0.95599 0.25011 0.0
C237 C 0.97375 0.93881 0.28051 0.0
C238 C 0.0074 0.98528 0.24586 0.0
C239 C 0.97766 0.99138 0.25856 0.0
H240 H 0.54566 0.06363 0.64945 0.0
H241 H 0.58502 0.99312 0.58161 0.0
H242 H 0.55323 0.95434 0.61187 0.0
H243 H 0.51559 0.94043 0.65933 0.0
H244 H 0.47495 0.01172 0.72534 0.0
H245 H 0.5057 0.05028 0.69394 0.0
C246 C 0.54717 0.03976 0.6413 0.0
C247 C 0.56754 0.03113 0.61344 0.0
C248 C 0.5286 0.01778 0.65847 0.0
C249 C 0.56918 0.00026 0.60275 0.0
C250 C 0.55115 0.97811 0.62017 0.0
C251 C 0.51333 0.96443 0.66666 0.0
C252 C 0.49313 0.97313 0.69479 0.0
C253 C 0.53093 0.98659 0.64826 0.0
C254 C 0.49026 0.00437 0.70375 0.0
C255 C 0.50795 0.02645 0.68593 0.0
H256 H 0.46962 0.55478 0.76197 0.0
H257 H 0.3811 0.51355 0.74377 0.0
H258 H 0.40333 0.46232 0.75284 0.0
H259 H 0.44759 0.4296 0.76883 0.0
H260 H 0.53467 0.47138 0.79382 0.0
H261 H 0.51362 0.52215 0.77921 0.0
C262 C 0.45538 0.53445 0.75963 0.0
C263 C 0.42396 0.53761 0.75181 0.0
C264 C 0.46808 0.50534 0.76635 0.0
C265 C 0.40541 0.51141 0.7496 0.0
C266 C 0.41811 0.48225 0.75482 0.0
C267 C 0.46193 0.44988 0.77077 0.0
C268 C 0.49257 0.44699 0.78223 0.0
C269 C 0.44933 0.47896 0.7636 0.0
C270 C 0.51095 0.47327 0.7852 0.0
C271 C 0.49893 0.50219 0.77681 0.0
H272 H 0.96388 0.56903 0.77668 0.0
H273 H 0.04795 0.51709 0.78946 0.0
H274 H 0.03073 0.48048 0.74394 0.0
H275 H 0.99232 0.46339 0.70018 0.0
H276 H 0.90867 0.51558 0.68584 0.0
H277 H 0.92517 0.55175 0.7326 0.0
C278 C 0.97847 0.54973 0.76948 0.0
C279 C 0.0072 0.5459 0.78648 0.0
C280 C 0.96847 0.52871 0.74316 0.0
C281 C 0.02577 0.52072 0.77679 0.0
C282 C 0.01593 0.49968 0.7508 0.0
C283 C 0.97753 0.48254 0.70743 0.0
C284 C 0.94925 0.4867 0.68959 0.0
C285 C 0.98734 0.50344 0.73385 0.0
C286 C 0.93054 0.51181 0.69915 0.0
C287 C 0.93999 0.53254 0.72583 0.0
H288 H 0.98781 0.01798 0.79421 0.0
H289 H 0.04407 0.08481 0.73859 0.0
H290 H 0.07181 0.04365 0.70755 0.0
H291 H 0.08109 0.98866 0.69756 0.0
H292 H 0.02489 0.92204 0.75367 0.0
H293 H 0.99631 0.96324 0.7833 0.0
C294 C 0.00597 0.02362 0.77508 0.0
C295 C 0.01383 0.05449 0.76881 0.0
C296 C 0.02205 -0.00013 0.75765 0.0
C297 C 0.03751 0.06128 0.74398 0.0
C298 C 0.05347 0.03774 0.72628 0.0
C299 C 0.06264 0.98312 0.71634 0.0
C300 C 0.05529 0.95226 0.72348 0.0
C301 C 0.04616 0.00695 0.73322 0.0
C302 C 0.03115 0.94556 0.74771 0.0
C303 C 0.01471 0.96911 0.76464 0.0
H304 H 0.52785 0.95165 0.86229 0.0
H305 H 0.44875 0.89506 0.88473 0.0
H306 H 0.44849 0.91259 0.94793 0.0
H307 H 0.46969 0.9456 -0.00384 0.0
H308 H 0.54865 0.0022 0.97252 0.0
H309 H 0.54991 0.98298 0.91043 0.0
C310 C 0.51059 0.94298 0.88097 0.0
C311 C 0.48827 0.92217 0.86872 0.0
C312 C 0.51046 0.95328 0.91706 0.0
C313 C 0.4662 0.91111 0.89343 0.0
C314 C 0.46598 0.92119 0.92956 0.0
C315 C 0.48722 0.95367 0.97746 0.0
C316 C 0.50893 0.97547 -0.01098 0.0
C317 C 0.48782 0.94254 0.94158 0.0
C318 C 0.53158 0.98554 0.96442 0.0
C319 C 0.53234 0.97456 0.92884 0.0
H320 H 0.43901 0.49727 0.95331 0.0
H321 H 0.5369 0.50014 0.97211 0.0
H322 H 0.52802 0.52093 0.03289 0.0
H323 H 0.4924 0.53652 0.08154 0.0
H324 H 0.39452 0.53333 0.0625 0.0
H325 H 0.40355 0.51446 0.001 0.0
C326 C 0.45845 0.50258 0.97058 0.0
C327 C 0.48857 0.497 0.95817 0.0
C328 C 0.45319 0.51435 0.00557 0.0
C329 C 0.51346 0.50413 0.98096 0.0
C330 C 0.50841 0.51598 0.01577 0.0
C331 C 0.47303 0.53178 0.06392 0.0
C332 C 0.44282 0.53621 0.07676 0.0
C333 C 0.47836 0.52088 0.02851 0.0
C334 C 0.41802 0.53008 0.05344 0.0
C335 C 0.42314 0.51926 0.01822 0.0
H336 H 0.00387 0.52169 0.0908 0.0
H337 H 0.90708 0.54211 0.10064 0.0
H338 H 0.90998 0.57562 0.0473 0.0
H339 H 0.93933 0.5962 -0.00445 0.0
H340 H 0.03637 0.57622 0.98653 0.0
H341 H 0.03411 0.54582 0.04222 0.0
C342 C 0.98343 0.53354 0.08131 0.0
C343 C 0.95521 0.5291 0.09925 0.0
C344 C 0.98532 0.55289 0.05085 0.0
C345 C 0.92904 0.54506 0.08714 0.0
C346 C 0.93068 0.56418 0.05663 0.0
C347 C 0.96007 0.58549 0.00597 0.0
C348 C 0.98789 0.58823 0.98664 0.0
C349 C 0.9586 0.56786 0.03794 0.0
C350 C 0.01461 0.57444 0.00075 0.0
C351 C 0.01333 0.55689 0.03253 0.0
H352 H 0.955 0.07949 0.97324 0.0
H353 H 0.02874 0.14552 0.96953 0.0
H354 H 0.04566 0.12928 0.02987 0.0
H355 H 0.04269 0.0928 0.08075 0.0
H356 H 0.97017 0.02536 0.083 0.0
H357 H 0.94958 0.04583 0.02625 0.0
C358 C 0.97448 0.09071 0.98582 0.0
C359 C 0.99075 0.1135 0.96669 0.0
C360 C 0.98454 0.08076 0.02013 0.0
C361 C 0.01591 0.12778 0.98351 0.0
C362 C 0.02568 0.11843 0.01798 0.0
C363 C 0.02217 0.08278 0.06908 0.0
C364 C 0.00823 0.05734 0.08594 0.0
C365 C 0.01069 0.09435 0.03609 0.0
C366 C 0.98156 0.04477 0.07046 0.0
C367 C 0.96974 0.05646 0.03798 0.0
H368 H 0.51405 0.55084 0.58649 0.0
H369 H 0.50245 0.46291 0.63902 0.0
H370 H 0.52532 0.43728 0.58653 0.0
H371 H 0.54696 0.43957 0.52488 0.0
H372 H 0.55809 0.52745 0.47209 0.0
H373 H 0.53713 0.55326 0.52556 0.0
C374 C 0.51667 0.52608 0.58659 0.0
C375 C 0.50641 0.50885 0.61666 0.0
C376 C 0.52966 0.51142 0.55619 0.0
C377 C 0.51004 0.47677 0.61625 0.0
C378 C 0.5231 0.46206 0.5862 0.0
C379 C 0.54492 0.46438 0.52507 0.0
C380 C 0.554 0.48149 0.4944 0.0
C381 C 0.53272 0.47911 0.55588 0.0
C382 C 0.55124 0.51366 0.49525 0.0
C383 C 0.53923 0.52847 0.52583 0.0
H384 H 0.94576 0.49263 0.4798 0.0
H385 H 0.0177 0.42736 0.50431 0.0
H386 H 0.04991 0.44949 0.45662 0.0
H387 H 0.05889 0.48925 0.41062 0.0
H388 H 0.98757 0.55548 0.38716 0.0
H389 H 0.95393 0.53108 0.43186 0.0
C390 C 0.96832 0.48297 0.47441 0.0
C391 C 0.97934 0.45844 0.4957 0.0
C392 C 0.98699 0.4962 0.44743 0.0
C393 C 0.0087 0.44631 0.48843 0.0
C394 C 0.02718 0.45901 0.46123 0.0
C395 C 0.03598 0.49836 0.41521 0.0
C396 C 0.02591 0.52436 0.39582 0.0
C397 C 0.0168 0.48432 0.44106 0.0
C398 C 0.99602 0.53565 0.40191 0.0
C399 C 0.97672 0.52167 0.42742 0.0
H400 H 0.07694 0.90981 0.53358 0.0
H401 H 0.0239 0.83247 0.57152 0.0
H402 H 0.98993 0.83721 0.51907 0.0
H403 H 0.97202 0.86678 0.46622 0.0
H404 H 0.02487 0.94438 0.42866 0.0
H405 H 0.06223 0.9359 0.47706 0.0
C406 C 0.05822 0.89369 0.53013 0.0
C407 C 0.05273 0.87111 0.55675 0.0
C408 C 0.03852 0.89679 0.50017 0.0
C409 C 0.02858 0.8502 0.55159 0.0
C410 C 0.00902 0.85298 0.52168 0.0
C411 C 0.99188 0.88165 0.46839 0.0
C412 C 0.99536 0.90646 0.4442 0.0
C413 C 0.01323 0.87676 0.49641 0.0
C414 C 0.02147 0.92524 0.44706 0.0
C415 C 0.04285 0.92046 0.4748 0.0
H416 H 0.45929 0.94075 0.34027 0.0
H417 H 0.41543 0.02852 0.32245 0.0
H418 H 0.44372 0.05024 0.37347 0.0
H419 H 0.48133 0.04457 0.42256 0.0
H420 H 0.52547 0.95693 0.44026 0.0
H421 H 0.49655 0.93493 0.38986 0.0
C422 C 0.45585 0.96462 0.34756 0.0
C423 C 0.43525 0.98296 0.32751 0.0
C424 C 0.47225 0.97701 0.37689 0.0
C425 C 0.43111 0.01385 0.33738 0.0
C426 C 0.4473 0.02632 0.36656 0.0
C427 C 0.48462 0.02063 0.41549 0.0
C428 C 0.50559 0.00247 0.43517 0.0
C429 C 0.46799 0.00814 0.38642 0.0
C430 C 0.50951 0.97148 0.42558 0.0
C431 C 0.49298 0.95886 0.39673 0.0
H432 H 0.73711 0.05885 0.31103 0.0
H433 H 0.74137 0.9832 0.23564 0.0
H434 H 0.69627 0.00309 0.20376 0.0
H435 H 0.65435 0.04069 0.19891 0.0
H436 H 0.64809 0.11451 0.27665 0.0
H437 H 0.69526 0.09666 0.30599 0.0
C438 C 0.72833 0.0469 0.28741 0.0
C439 C 0.74257 0.01964 0.27565 0.0
C440 C 0.70193 0.05804 0.26978 0.0
C441 C 0.73074 0.00419 0.24527 0.0
C442 C 0.70496 0.01554 0.22704 0.0
C443 C 0.66343 0.05299 0.22212 0.0
C444 C 0.64778 0.07888 0.23557 0.0
C445 C 0.69017 0.04224 0.2393 0.0
C446 C 0.65966 0.09443 0.26587 0.0
C447 C 0.68665 0.08427 0.28263 0.0
H448 H 0.36419 0.79943 0.23098 0.0
H449 H 0.3629 0.7586 0.12413 0.0
H450 H 0.37223 0.70805 0.15074 0.0
H451 H 0.37908 0.6752 0.20447 0.0
H452 H 0.38127 0.71618 0.31122 0.0
H453 H 0.37345 0.76691 0.28446 0.0
C454 C 0.36601 0.77948 0.2135 0.0
C455 C 0.36264 0.78277 0.17565 0.0
C456 C 0.37153 0.7505 0.22894 0.0
C457 C 0.36536 0.75673 0.15336 0.0
C458 C 0.37065 0.72778 0.16855 0.0
C459 C 0.37797 0.69524 0.22188 0.0
C460 C 0.38058 0.69186 0.2598 0.0
C461 C 0.37353 0.72437 0.20632 0.0
C462 C 0.37932 0.7181 0.28194 0.0
C463 C 0.37476 0.74713 0.26668 0.0
H464 H 0.82447 0.39609 0.32332 0.0
H465 H 0.83684 0.39886 0.20684 0.0
H466 H 0.78148 0.40493 0.19859 0.0
H467 H 0.7293 0.40578 0.2242 0.0
H468 H 0.71687 0.40146 0.34062 0.0
H469 H 0.7725 0.39994 0.34908 0.0
C470 C 0.81511 0.39833 0.29613 0.0
C471 C 0.83479 0.3968 0.26575 0.0
C472 C 0.7832 0.40141 0.29153 0.0
C473 C 0.82224 0.39979 0.23071 0.0
C474 C 0.79055 0.40324 0.22595 0.0
C475 C 0.73874 0.40486 0.25146 0.0
C476 C 0.7189 0.40355 0.28171 0.0
C477 C 0.77077 0.40352 0.25613 0.0
C478 C 0.73158 0.40235 0.31683 0.0
C479 C 0.76341 0.40143 0.32171 0.0
H480 H 0.11657 0.81055 0.17775 0.0
H481 H 0.13917 0.81323 0.29195 0.0
H482 H 0.14426 0.75744 0.29294 0.0
H483 H 0.14338 0.70796 0.26118 0.0
H484 H 0.122 0.70534 0.14665 0.0
H485 H 0.1152 0.76098 0.1461 0.0
C486 C 0.12255 0.79894 0.20289 0.0
C487 C 0.12753 0.8161 0.2347 0.0
C488 C 0.12564 0.76683 0.20324 0.0
C489 C 0.13529 0.80064 0.26702 0.0
C490 C 0.13818 0.7687 0.26764 0.0
C491 C 0.13705 0.71952 0.23613 0.0
C492 C 0.1332 0.70247 0.20402 0.0
C493 C 0.13353 0.75158 0.23589 0.0
C494 C 0.12515 0.71788 0.17176 0.0
C495 C 0.12128 0.74972 0.1714 0.0
H496 H 0.24151 0.89853 0.65249 0.0
H497 H 0.20253 0.90429 0.76022 0.0
H498 H 0.25378 0.91147 0.78601 0.0
H499 H 0.30978 0.91604 0.77788 0.0
H500 H 0.34915 0.9056 0.67087 0.0
H501 H 0.29774 0.90033 0.64477 0.0
C502 C 0.24431 0.90141 0.68159 0.0
C503 C 0.21836 0.9011 0.70443 0.0
C504 C 0.2739 0.90468 0.69631 0.0
C505 C 0.22223 0.90439 0.74214 0.0
C506 C 0.25149 0.90858 0.75687 0.0
C507 C 0.30702 0.91271 0.74884 0.0
C508 C 0.33309 0.91146 0.72624 0.0
C509 C 0.27749 0.90878 0.73422 0.0
C510 C 0.32935 0.90662 0.68876 0.0
C511 C 0.29999 0.90365 0.67384 0.0
H512 H 0.63046 0.20835 0.66987 0.0
H513 H 0.54816 0.19719 0.60593 0.0
H514 H 0.52326 0.23872 0.63941 0.0
H515 H 0.52365 0.27585 0.68948 0.0
H516 H 0.6062 0.28791 0.75267 0.0
H517 H 0.63227 0.24855 0.71666 0.0
C518 C 0.60717 0.21518 0.66307 0.0
C519 C 0.5911 0.1995 0.63568 0.0
C520 C 0.59298 0.23915 0.68238 0.0
C521 C 0.56104 0.20884 0.62692 0.0
C522 C 0.54673 0.23252 0.64614 0.0
C523 C 0.54742 0.27002 0.6952 0.0
C524 C 0.56285 0.28455 0.72393 0.0
C525 C 0.56229 0.24747 0.67434 0.0
C526 C 0.59377 0.27702 0.73073 0.0
C527 C 0.60867 0.25445 0.71023 0.0
H528 H 0.15604 0.62553 0.79635 0.0
H529 H 0.17791 0.58873 0.90222 0.0
H530 H 0.23281 0.59228 0.88844 0.0
H531 H 0.27458 0.60546 0.8461 0.0
H532 H 0.2526 0.63931 0.73888 0.0
H533 H 0.19776 0.63727 0.75336 0.0
C534 C 0.17284 0.61842 0.81645 0.0
C535 C 0.16295 0.60707 0.85033 0.0
C536 C 0.20432 0.61993 0.80806 0.0
C537 C 0.18495 0.59754 0.87593 0.0
C538 C 0.21634 0.59959 0.86809 0.0
C539 C 0.25777 0.61248 0.82595 0.0
C540 C 0.26763 0.62267 0.79154 0.0
C541 C 0.22628 0.6107 0.83422 0.0
C542 C 0.24559 0.63133 0.76555 0.0
C543 C 0.21424 0.63023 0.77383 0.0
H544 H 0.93199 0.22583 0.74344 0.0
H545 H 0.03015 0.23768 0.75293 0.0
H546 H 0.02782 0.28225 0.71276 0.0
H547 H -0.00208 0.31847 0.67588 0.0
H548 H 0.89949 0.30819 0.66829 0.0
H549 H 0.90196 0.26232 0.7066 0.0
C550 C 0.95288 0.23812 0.73664 0.0
C551 C 0.98119 0.22841 0.75119 0.0
C552 C 0.95134 0.264 0.71383 0.0
C553 C 0.00802 0.2447 0.74224 0.0
C554 C 0.00674 0.27018 0.7192 0.0
C555 C 0.97702 0.30608 0.68238 0.0
C556 C 0.94858 0.31667 0.66914 0.0
C557 C 0.97853 0.28009 0.70494 0.0
C558 C 0.92168 0.30053 0.67815 0.0
C559 C 0.92306 0.27431 0.70007 0.0
loop_
_geom_bond_atom_site_label_1
_geom_bond_atom_site_label_2
_geom_bond_distance
_geom_bond_site_symmetry_2
_ccdc_geom_bond_type
O0 Cd1 2.300 . S
O0 C7 1.275 . S
Cd1 O0 2.300 . S
Cd1 O9 2.381 . S
Cd1 O10 2.378 . S
O2 Cd3 2.385 . S
O2 C7 1.255 . S
Cd3 O2 2.385 . S
Cd3 O4 2.317 . S
O4 Cd3 2.317 . S
O4 C5 1.232 . S
C5 O4 1.232 . S
C5 O6 1.218 . S
O6 C5 1.218 . S
C7 O0 1.275 . S
C7 O2 1.255 . S
C8 O9 1.258 . S
C8 O10 1.256 . S
O9 Cd1 2.381 . S
O9 C8 1.258 . S
O10 Cd1 2.378 . S
O10 C8 1.256 . S
O11 Cd12 2.300 . S
O11 C18 1.275 . S
Cd12 O11 2.300 . S
Cd12 O20 2.381 . S
Cd12 O21 2.378 . S
O13 Cd14 2.385 . S
O13 C18 1.255 . S
Cd14 O13 2.385 . S
Cd14 O15 2.317 . S
O15 Cd14 2.317 . S
O15 C16 1.232 . S
C16 O15 1.232 . S
C16 O17 1.218 . S
O17 C16 1.218 . S
C18 O11 1.275 . S
C18 O13 1.255 . S
C19 O20 1.258 . S
C19 O21 1.256 . S
O20 Cd12 2.381 . S
O20 C19 1.258 . S
O21 Cd12 2.378 . S
O21 C19 1.256 . S
O22 Cd23 2.300 . S
O22 C29 1.275 . S
Cd23 O22 2.300 . S
Cd23 O31 2.381 . S
Cd23 O32 2.378 . S
O24 Cd25 2.385 . S
O24 C29 1.255 . S
Cd25 O24 2.385 . S
Cd25 O26 2.317 . S
O26 Cd25 2.317 . S
O26 C27 1.232 . S
C27 O26 1.232 . S
C27 O28 1.218 . S
O28 C27 1.218 . S
C29 O22 1.275 . S
C29 O24 1.255 . S
C30 O31 1.258 . S
C30 O32 1.256 . S
O31 Cd23 2.381 . S
O31 C30 1.258 . S
O32 Cd23 2.378 . S
O32 C30 1.256 . S
O33 Cd34 2.300 . S
O33 C40 1.275 . S
Cd34 O33 2.300 . S
Cd34 O42 2.381 . S
Cd34 O43 2.378 . S
O35 Cd36 2.385 . S
O35 C40 1.255 . S
Cd36 O35 2.385 . S
Cd36 O37 2.317 . S
O37 Cd36 2.317 . S
O37 C38 1.232 . S
C38 O37 1.232 . S
C38 O39 1.218 . S
O39 C38 1.218 . S
C40 O33 1.275 . S
C40 O35 1.255 . S
C41 O42 1.258 . S
C41 O43 1.256 . S
O42 Cd34 2.381 . S
O42 C41 1.258 . S
O43 Cd34 2.378 . S
O43 C41 1.256 . S
O44 Cd45 2.300 . S
O44 C51 1.275 . S
Cd45 O44 2.300 . S
Cd45 O53 2.381 . S
Cd45 O54 2.378 . S
O46 Cd47 2.385 . S
O46 C51 1.255 . S
Cd47 O46 2.385 . S
Cd47 O48 2.317 . S
O48 Cd47 2.317 . S
O48 C49 1.232 . S
C49 O48 1.232 . S
C49 O50 1.218 . S
O50 C49 1.218 . S
C51 O44 1.275 . S
C51 O46 1.255 . S
C52 O53 1.258 . S
C52 O54 1.256 . S
O53 Cd45 2.381 . S
O53 C52 1.258 . S
O54 Cd45 2.378 . S
O54 C52 1.256 . S
O55 Cd56 2.300 . S
O55 C62 1.275 . S
Cd56 O55 2.300 . S
Cd56 O64 2.381 . S
Cd56 O65 2.378 . S
O57 Cd58 2.385 . S
O57 C62 1.255 . S
Cd58 O57 2.385 . S
Cd58 O59 2.317 . S
O59 Cd58 2.317 . S
O59 C60 1.232 . S
C60 O59 1.232 . S
C60 O61 1.218 . S
O61 C60 1.218 . S
C62 O55 1.275 . S
C62 O57 1.255 . S
C63 O64 1.258 . S
C63 O65 1.256 . S
O64 Cd56 2.381 . S
O64 C63 1.258 . S
O65 Cd56 2.378 . S
O65 C63 1.256 . S
O66 Cd67 2.300 . S
O66 C73 1.275 . S
Cd67 O66 2.300 . S
Cd67 O75 2.381 . S
Cd67 O76 2.378 . S
O68 Cd69 2.385 . S
O68 C73 1.255 . S
Cd69 O68 2.385 . S
Cd69 O70 2.317 . S
O70 Cd69 2.317 . S
O70 C71 1.232 . S
C71 O70 1.232 . S
C71 O72 1.218 . S
O72 C71 1.218 . S
C73 O66 1.275 . S
C73 O68 1.255 . S
C74 O75 1.258 . S
C74 O76 1.256 . S
O75 Cd67 2.381 . S
O75 C74 1.258 . S
O76 Cd67 2.378 . S
O76 C74 1.256 . S
O77 Cd78 2.300 . S
O77 C84 1.275 . S
Cd78 O77 2.300 . S
Cd78 O86 2.381 . S
Cd78 O87 2.378 . S
O79 Cd80 2.385 . S
O79 C84 1.255 . S
Cd80 O79 2.385 . S
Cd80 O81 2.317 . S
O81 Cd80 2.317 . S
O81 C82 1.232 . S
C82 O81 1.232 . S
C82 O83 1.218 . S
O83 C82 1.218 . S
C84 O77 1.275 . S
C84 O79 1.255 . S
C85 O86 1.258 . S
C85 O87 1.256 . S
O86 Cd78 2.381 . S
O86 C85 1.258 . S
O87 Cd78 2.378 . S
O87 C85 1.256 . S
O88 Cd89 2.300 . S
O88 C95 1.275 . S
Cd89 O88 2.300 . S
Cd89 O97 2.381 . S
Cd89 O98 2.378 . S
O90 Cd91 2.385 . S
O90 C95 1.255 . S
Cd91 O90 2.385 . S
Cd91 O92 2.317 . S
O92 Cd91 2.317 . S
O92 C93 1.232 . S
C93 O92 1.232 . S
C93 O94 1.218 . S
O94 C93 1.218 . S
C95 O88 1.275 . S
C95 O90 1.255 . S
C96 O97 1.258 . S
C96 O98 1.256 . S
O97 Cd89 2.381 . S
O97 C96 1.258 . S
O98 Cd89 2.378 . S
O98 C96 1.256 . S
O99 Cd100 2.300 . S
O99 C106 1.275 . S
Cd100 O99 2.300 . S
Cd100 O108 2.381 . S
Cd100 O109 2.378 . S
O101 Cd102 2.385 . S
O101 C106 1.255 . S
Cd102 O101 2.385 . S
Cd102 O103 2.317 . S
O103 Cd102 2.317 . S
O103 C104 1.232 . S
C104 O103 1.232 . S
C104 O105 1.218 . S
O105 C104 1.218 . S
C106 O99 1.275 . S
C106 O101 1.255 . S
C107 O108 1.258 . S
C107 O109 1.256 . S
O108 Cd100 2.381 . S
O108 C107 1.258 . S
O109 Cd100 2.378 . S
O109 C107 1.256 . S
O110 Cd111 2.300 . S
O110 C117 1.275 . S
Cd111 O110 2.300 . S
Cd111 O119 2.381 . S
Cd111 O120 2.378 . S
O112 Cd113 2.385 . S
O112 C117 1.255 . S
Cd113 O112 2.385 . S
Cd113 O114 2.317 . S
O114 Cd113 2.317 . S
O114 C115 1.232 . S
C115 O114 1.232 . S
C115 O116 1.218 . S
O116 C115 1.218 . S
C117 O110 1.275 . S
C117 O112 1.255 . S
C118 O119 1.258 . S
C118 O120 1.256 . S
O119 Cd111 2.381 . S
O119 C118 1.258 . S
O120 Cd111 2.378 . S
O120 C118 1.256 . S
O121 Cd122 2.300 . S
O121 C128 1.275 . S
Cd122 O121 2.300 . S
Cd122 O130 2.381 . S
Cd122 O131 2.378 . S
O123 Cd124 2.385 . S
O123 C128 1.255 . S
Cd124 O123 2.385 . S
Cd124 O125 2.317 . S
O125 Cd124 2.317 . S
O125 C126 1.232 . S
C126 O125 1.232 . S
C126 O127 1.218 . S
O127 C126 1.218 . S
C128 O121 1.275 . S
C128 O123 1.255 . S
C129 O130 1.258 . S
C129 O131 1.256 . S
O130 Cd122 2.381 . S
O130 C129 1.258 . S
O131 Cd122 2.378 . S
O131 C129 1.256 . S
O132 Cd133 2.300 . S
O132 C139 1.275 . S
Cd133 O132 2.300 . S
Cd133 O141 2.381 . S
Cd133 O142 2.378 . S
O134 Cd135 2.385 . S
O134 C139 1.255 . S
Cd135 O134 2.385 . S
Cd135 O136 2.317 . S
O136 Cd135 2.317 . S
O136 C137 1.232 . S
C137 O136 1.232 . S
C137 O138 1.218 . S
O138 C137 1.218 . S
C139 O132 1.275 . S
C139 O134 1.255 . S
C140 O141 1.258 . S
C140 O142 1.256 . S
O141 Cd133 2.381 . S
O141 C140 1.258 . S
O142 Cd133 2.378 . S
O142 C140 1.256 . S
O143 Cd144 2.300 . S
O143 C150 1.275 . S
Cd144 O143 2.300 . S
Cd144 O152 2.381 . S
Cd144 O153 2.378 . S
O145 Cd146 2.385 . S
O145 C150 1.255 . S
Cd146 O145 2.385 . S
Cd146 O147 2.317 . S
O147 Cd146 2.317 . S
O147 C148 1.232 . S
C148 O147 1.232 . S
C148 O149 1.218 . S
O149 C148 1.218 . S
C150 O143 1.275 . S
C150 O145 1.255 . S
C151 O152 1.258 . S
C151 O153 1.256 . S
O152 Cd144 2.381 . S
O152 C151 1.258 . S
O153 Cd144 2.378 . S
O153 C151 1.256 . S
O154 Cd155 2.300 . S
O154 C161 1.275 . S
Cd155 O154 2.300 . S
Cd155 O163 2.381 . S
Cd155 O164 2.378 . S
O156 Cd157 2.385 . S
O156 C161 1.255 . S
Cd157 O156 2.385 . S
Cd157 O158 2.317 . S
O158 Cd157 2.317 . S
O158 C159 1.232 . S
C159 O158 1.232 . S
C159 O160 1.218 . S
O160 C159 1.218 . S
C161 O154 1.275 . S
C161 O156 1.255 . S
C162 O163 1.258 . S
C162 O164 1.256 . S
O163 Cd155 2.381 . S
O163 C162 1.258 . S
O164 Cd155 2.378 . S
O164 C162 1.256 . S
O165 Cd166 2.300 . S
O165 C172 1.275 . S
Cd166 O165 2.300 . S
Cd166 O174 2.381 . S
Cd166 O175 2.378 . S
O167 Cd168 2.385 . S
O167 C172 1.255 . S
Cd168 O167 2.385 . S
Cd168 O169 2.317 . S
O169 Cd168 2.317 . S
O169 C170 1.232 . S
C170 O169 1.232 . S
C170 O171 1.218 . S
O171 C170 1.218 . S
C172 O165 1.275 . S
C172 O167 1.255 . S
C173 O174 1.258 . S
C173 O175 1.256 . S
O174 Cd166 2.381 . S
O174 C173 1.258 . S
O175 Cd166 2.378 . S
O175 C173 1.256 . S
H176 C182 0.930 . S
H177 C185 0.930 . S
H178 C186 0.930 . S
H179 C187 0.930 . S
H180 C190 0.930 . S
H181 C191 0.930 . S
C182 H176 0.930 . S
C182 C183 1.355 . S
C182 C184 1.415 . S
C183 C182 1.355 . S
C183 C185 1.419 . S
C184 C182 1.415 . S
C184 C189 1.425 . S
C184 C191 1.409 1_545 S
C185 H177 0.930 . S
C185 C183 1.419 . S
C185 C186 1.362 . S
C186 H178 0.930 . S
C186 C185 1.362 . S
C186 C189 1.409 . S
C187 H179 0.930 . S
C187 C188 1.355 1_545 S
C187 C189 1.415 . S
C188 C187 1.355 1_565 S
C188 C190 1.419 . S
C189 C184 1.425 . S
C189 C186 1.409 . S
C189 C187 1.415 . S
C190 H180 0.930 . S
C190 C188 1.419 . S
C190 C191 1.362 . S
C191 H181 0.930 . S
C191 C184 1.409 1_565 S
C191 C190 1.362 . S
H192 C198 0.930 . S
H193 C201 0.930 . S
H194 C202 0.930 . S
H195 C203 0.930 . S
H196 C206 0.930 . S
H197 C207 0.930 . S
C198 H192 0.930 . S
C198 C199 1.355 . S
C198 C200 1.415 . S
C199 C198 1.355 . S
C199 C201 1.419 . S
C200 C198 1.415 . S
C200 C205 1.425 . S
C200 C207 1.409 . S
C201 H193 0.930 . S
C201 C199 1.419 . S
C201 C202 1.362 . S
C202 H194 0.930 . S
C202 C201 1.362 . S
C202 C205 1.409 . S
C203 H195 0.930 . S
C203 C204 1.355 . S
C203 C205 1.415 . S
C204 C203 1.355 . S
C204 C206 1.419 . S
C205 C200 1.425 . S
C205 C202 1.409 . S
C205 C203 1.415 . S
C206 H196 0.930 . S
C206 C204 1.419 . S
C206 C207 1.362 . S
C207 H197 0.930 . S
C207 C200 1.409 . S
C207 C206 1.362 . S
H208 C214 0.930 . S
H209 C217 0.930 . S
H210 C218 0.930 . S
H211 C219 0.930 . S
H212 C222 0.930 . S
H213 C223 0.930 . S
C214 H208 0.930 . S
C214 C215 1.355 1_455 S
C214 C216 1.415 . S
C215 C214 1.355 1_655 S
C215 C217 1.419 . S
C216 C214 1.415 . S
C216 C221 1.425 . S
C216 C223 1.409 . S
C217 H209 0.930 . S
C217 C215 1.419 . S
C217 C218 1.362 . S
C218 H210 0.930 . S
C218 C217 1.362 . S
C218 C221 1.409 1_655 S
C219 H211 0.930 . S
C219 C220 1.355 . S
C219 C221 1.415 . S
C220 C219 1.355 . S
C220 C222 1.419 . S
C221 C216 1.425 . S
C221 C218 1.409 1_455 S
C221 C219 1.415 . S
C222 H212 0.930 . S
C222 C220 1.419 . S
C222 C223 1.362 . S
C223 H213 0.930 . S
C223 C216 1.409 . S
C223 C222 1.362 . S
H224 C230 0.931 . S
H225 C233 0.930 . S
H226 C234 0.930 . S
H227 C235 0.930 . S
H228 C238 0.930 . S
H229 C239 0.930 . S
C230 H224 0.931 . S
C230 C231 1.351 1_455 S
C230 C232 1.417 . S
C231 C230 1.351 1_655 S
C231 C233 1.419 . S
C232 C230 1.417 . S
C232 C237 1.425 1_545 S
C232 C239 1.409 . S
C233 H225 0.930 . S
C233 C231 1.419 . S
C233 C234 1.362 1_545 S
C234 H226 0.930 . S
C234 C233 1.362 1_565 S
C234 C237 1.409 1_655 S
C235 H227 0.930 . S
C235 C236 1.355 . S
C235 C237 1.415 . S
C236 C235 1.355 . S
C236 C238 1.419 1_565 S
C237 C232 1.425 1_565 S
C237 C234 1.409 1_455 S
C237 C235 1.415 . S
C238 H228 0.930 . S
C238 C236 1.419 1_545 S
C238 C239 1.362 . S
C239 H229 0.930 . S
C239 C232 1.409 . S
C239 C238 1.362 . S
H240 C246 0.930 . S
H241 C249 0.930 . S
H242 C250 0.930 . S
H243 C251 0.930 . S
H244 C254 0.930 . S
H245 C255 0.930 . S
C246 H240 0.930 . S
C246 C247 1.355 . S
C246 C248 1.415 . S
C247 C246 1.355 . S
C247 C249 1.419 1_545 S
C248 C246 1.415 . S
C248 C253 1.425 1_545 S
C248 C255 1.409 . S
C249 H241 0.930 . S
C249 C247 1.419 1_565 S
C249 C250 1.362 . S
C250 H242 0.930 . S
C250 C249 1.362 . S
C250 C253 1.409 . S
C251 H243 0.930 . S
C251 C252 1.355 . S
C251 C253 1.415 . S
C252 C251 1.355 . S
C252 C254 1.419 . S
C253 C248 1.425 1_565 S
C253 C250 1.409 . S
C253 C251 1.415 . S
C254 H244 0.930 . S
C254 C252 1.419 . S
C254 C255 1.362 1_565 S
C255 H245 0.930 . S
C255 C248 1.409 . S
C255 C254 1.362 1_545 S
H256 C262 0.930 . S
H257 C265 0.930 . S
H258 C266 0.930 . S
H259 C267 0.930 . S
H260 C270 0.930 . S
H261 C271 0.930 . S
C262 H256 0.930 . S
C262 C263 1.355 . S
C262 C264 1.415 . S
C263 C262 1.355 . S
C263 C265 1.419 . S
C264 C262 1.415 . S
C264 C269 1.425 . S
C264 C271 1.409 . S
C265 H257 0.930 . S
C265 C263 1.419 . S
C265 C266 1.362 . S
C266 H258 0.930 . S
C266 C265 1.362 . S
C266 C269 1.409 . S
C267 H259 0.930 . S
C267 C268 1.355 . S
C267 C269 1.415 . S
C268 C267 1.355 . S
C268 C270 1.419 . S
C269 C264 1.425 . S
C269 C266 1.409 . S
C269 C267 1.415 . S
C270 H260 0.930 . S
C270 C268 1.419 . S
C270 C271 1.362 . S
C271 H261 0.930 . S
C271 C264 1.409 . S
C271 C270 1.362 . S
H272 C278 0.922 1_655 S
H273 C281 0.930 . S
H274 C282 0.930 . S
H275 C283 0.930 . S
H276 C286 0.930 . S
H277 C287 0.930 . S
C278 H272 0.922 1_455 S
C278 C279 1.378 . S
C278 C280 1.399 1_455 S
C279 C278 1.378 . S
C279 C281 1.419 . S
C280 C278 1.399 1_655 S
C280 C285 1.425 . S
C280 C287 1.409 . S
C281 H273 0.930 . S
C281 C279 1.419 . S
C281 C282 1.362 . S
C282 H274 0.930 . S
C282 C281 1.362 . S
C282 C285 1.409 1_455 S
C283 H275 0.930 . S
C283 C284 1.355 . S
C283 C285 1.415 . S
C284 C283 1.355 . S
C284 C286 1.419 . S
C285 C280 1.425 . S
C285 C282 1.409 1_655 S
C285 C283 1.415 . S
C286 H276 0.930 . S
C286 C284 1.419 . S
C286 C287 1.362 . S
C287 H277 0.930 . S
C287 C280 1.409 . S
C287 C286 1.362 . S
H288 C294 0.930 . S
H289 C297 0.930 . S
H290 C298 0.930 . S
H291 C299 0.930 . S
H292 C302 0.930 . S
H293 C303 0.930 . S
C294 H288 0.930 . S
C294 C295 1.355 1_565 S
C294 C296 1.415 . S
C295 C294 1.355 1_545 S
C295 C297 1.419 . S
C296 C294 1.415 . S
C296 C301 1.425 1_655 S
C296 C303 1.409 . S
C297 H289 0.930 . S
C297 C295 1.419 . S
C297 C298 1.362 1_655 S
C298 H290 0.930 . S
C298 C297 1.362 1_455 S
C298 C301 1.409 1_545 S
C299 H291 0.930 . S
C299 C300 1.355 . S
C299 C301 1.415 . S
C300 C299 1.355 . S
C300 C302 1.419 1_455 S
C301 C296 1.425 1_455 S
C301 C298 1.409 1_565 S
C301 C299 1.415 . S
C302 H292 0.930 . S
C302 C300 1.419 1_655 S
C302 C303 1.362 . S
C303 H293 0.930 . S
C303 C296 1.409 . S
C303 C302 1.362 . S
H304 C310 0.930 . S
H305 C313 0.930 . S
H306 C314 0.930 . S
H307 C315 0.930 . S
H308 C318 0.930 . S
H309 C319 0.930 . S
C310 H304 0.930 . S
C310 C311 1.355 . S
C310 C312 1.415 . S
C311 C310 1.355 . S
C311 C313 1.419 . S
C312 C310 1.415 . S
C312 C317 1.425 1_566 S
C312 C319 1.409 1_565 S
C313 H305 0.930 . S
C313 C311 1.419 . S
C313 C314 1.362 1_556 S
C314 H306 0.930 . S
C314 C313 1.362 1_554 S
C314 C317 1.409 1_565 S
C315 H307 0.930 . S
C315 C316 1.355 . S
C315 C317 1.415 . S
C316 C315 1.355 . S
C316 C318 1.419 . S
C317 C312 1.425 1_544 S
C317 C314 1.409 1_545 S
C317 C315 1.415 . S
C318 H308 0.930 . S
C318 C316 1.419 . S
C318 C319 1.362 1_554 S
C319 H309 0.930 . S
C319 C312 1.409 1_545 S
C319 C318 1.362 1_556 S
H320 C326 0.930 . S
H321 C329 0.930 . S
H322 C330 0.930 . S
H323 C331 0.930 . S
H324 C334 0.930 . S
H325 C335 0.930 . S
C326 H320 0.930 . S
C326 C327 1.355 . S
C326 C328 1.415 . S
C327 C326 1.355 . S
C327 C329 1.419 . S
C328 C326 1.415 . S
C328 C333 1.425 1_556 S
C328 C335 1.409 . S
C329 H321 0.930 . S
C329 C327 1.419 . S
C329 C330 1.362 1_556 S
C330 H322 0.930 . S
C330 C329 1.362 1_554 S
C330 C333 1.409 . S
C331 H323 0.930 . S
C331 C332 1.355 . S
C331 C333 1.415 . S
C332 C331 1.355 . S
C332 C334 1.419 . S
C333 C328 1.425 1_554 S
C333 C330 1.409 . S
C333 C331 1.415 . S
C334 H324 0.930 . S
C334 C332 1.419 . S
C334 C335 1.362 1_554 S
C335 H325 0.930 . S
C335 C328 1.409 . S
C335 C334 1.362 1_556 S
H336 C342 0.930 . S
H337 C345 0.930 . S
H338 C346 0.930 . S
H339 C347 0.930 . S
H340 C350 0.930 . S
H341 C351 0.930 . S
C342 H336 0.930 . S
C342 C343 1.355 1_455 S
C342 C344 1.415 . S
C343 C342 1.355 1_655 S
C343 C345 1.419 . S
C344 C342 1.415 . S
C344 C349 1.425 1_454 S
C344 C351 1.409 1_554 S
C345 H337 0.930 . S
C345 C343 1.419 . S
C345 C346 1.362 . S
C346 H338 0.930 . S
C346 C345 1.362 . S
C346 C349 1.409 1_554 S
C347 H339 0.930 . S
C347 C348 1.355 1_655 S
C347 C349 1.415 . S
C348 C347 1.355 1_455 S
C348 C350 1.419 . S
C349 C344 1.425 1_656 S
C349 C346 1.409 1_556 S
C349 C347 1.415 . S
C350 H340 0.930 . S
C350 C348 1.419 . S
C350 C351 1.362 . S
C351 H341 0.930 . S
C351 C344 1.409 1_556 S
C351 C350 1.362 . S
H352 C358 0.930 1_554 S
H353 C361 0.930 . S
H354 C362 0.932 . S
H355 C363 0.930 1_556 S
H356 C366 0.930 . S
H357 C367 0.932 . S
C358 H352 0.930 1_556 S
C358 C359 1.355 . S
C358 C360 1.415 1_556 S
C359 C358 1.355 . S
C359 C361 1.419 . S
C360 C358 1.415 1_554 S
C360 C365 1.425 1_644 S
C360 C367 1.410 . S
C361 H353 0.930 . S
C361 C359 1.419 . S
C361 C362 1.360 1_645 S
C362 H354 0.932 . S
C362 C361 1.360 1_465 S
C362 C365 1.410 . S
C363 H355 0.930 1_554 S
C363 C364 1.355 . S
C363 C365 1.415 1_554 S
C364 C363 1.355 . S
C364 C366 1.419 . S
C365 C360 1.425 1_466 S
C365 C362 1.410 . S
C365 C363 1.415 1_556 S
C366 H356 0.930 . S
C366 C364 1.419 . S
C366 C367 1.360 1_465 S
C367 H357 0.932 . S
C367 C360 1.410 . S
C367 C366 1.360 1_645 S
H368 C374 0.930 . S
H369 C377 0.930 . S
H370 C378 0.930 . S
H371 C379 0.930 . S
H372 C382 0.930 . S
H373 C383 0.930 . S
C374 H368 0.930 . S
C374 C375 1.355 . S
C374 C376 1.415 . S
C375 C374 1.355 . S
C375 C377 1.419 . S
C376 C374 1.415 . S
C376 C381 1.425 . S
C376 C383 1.409 . S
C377 H369 0.930 . S
C377 C375 1.419 . S
C377 C378 1.362 . S
C378 H370 0.930 . S
C378 C377 1.362 . S
C378 C381 1.409 . S
C379 H371 0.930 . S
C379 C380 1.355 . S
C379 C381 1.415 . S
C380 C379 1.355 . S
C380 C382 1.419 . S
C381 C376 1.425 . S
C381 C378 1.409 . S
C381 C379 1.415 . S
C382 H372 0.930 . S
C382 C380 1.419 . S
C382 C383 1.362 . S
C383 H373 0.930 . S
C383 C376 1.409 . S
C383 C382 1.362 . S
H384 C390 0.930 . S
H385 C393 0.930 . S
H386 C394 0.930 . S
H387 C395 0.930 . S
H388 C398 0.930 . S
H389 C399 0.930 . S
C390 H384 0.930 . S
C390 C391 1.355 . S
C390 C392 1.415 . S
C391 C390 1.355 . S
C391 C393 1.419 . S
C392 C390 1.415 . S
C392 C397 1.425 1_655 S
C392 C399 1.409 . S
C393 H385 0.930 . S
C393 C391 1.419 . S
C393 C394 1.362 1_655 S
C394 H386 0.930 . S
C394 C393 1.362 1_455 S
C394 C397 1.409 . S
C395 H387 0.930 . S
C395 C396 1.355 . S
C395 C397 1.415 . S
C396 C395 1.355 . S
C396 C398 1.419 . S
C397 C392 1.425 1_455 S
C397 C394 1.409 . S
C397 C395 1.415 . S
C398 H388 0.930 . S
C398 C396 1.419 . S
C398 C399 1.362 1_455 S
C399 H389 0.930 . S
C399 C392 1.409 . S
C399 C398 1.362 1_655 S
H400 C406 0.947 . S
H401 C409 0.930 . S
H402 C410 0.930 . S
H403 C411 0.947 . S
H404 C414 0.930 . S
H405 C415 0.930 . S
C406 H400 0.947 . S
C406 C407 1.355 . S
C406 C408 1.415 1_565 S
C407 C406 1.355 . S
C407 C409 1.419 . S
C408 C406 1.415 1_545 S
C408 C413 1.425 1_445 S
C408 C415 1.409 . S
C409 H401 0.930 . S
C409 C407 1.419 . S
C409 C410 1.362 1_455 S
C410 H402 0.930 . S
C410 C409 1.362 1_655 S
C410 C413 1.409 . S
C411 H403 0.947 . S
C411 C412 1.355 . S
C411 C413 1.415 1_545 S
C412 C411 1.355 . S
C412 C414 1.419 . S
C413 C408 1.425 1_665 S
C413 C410 1.409 . S
C413 C411 1.415 1_565 S
C414 H404 0.930 . S
C414 C412 1.419 . S
C414 C415 1.362 1_655 S
C415 H405 0.930 . S
C415 C408 1.409 . S
C415 C414 1.362 1_455 S
H416 C422 0.930 . S
H417 C425 0.930 . S
H418 C426 0.930 . S
H419 C427 0.930 . S
H420 C430 0.930 . S
H421 C431 0.930 . S
C422 H416 0.930 . S
C422 C423 1.355 . S
C422 C424 1.428 . S
C423 C422 1.355 . S
C423 C425 1.419 . S
C424 C422 1.428 . S
C424 C429 1.423 1_565 S
C424 C431 1.398 1_565 S
C425 H417 0.930 . S
C425 C423 1.419 . S
C425 C426 1.362 . S
C426 H418 0.930 . S
C426 C425 1.362 . S
C426 C429 1.398 1_565 S
C427 H419 0.930 . S
C427 C428 1.355 . S
C427 C429 1.428 . S
C428 C427 1.355 . S
C428 C430 1.419 . S
C429 C424 1.423 1_545 S
C429 C426 1.398 1_545 S
C429 C427 1.428 . S
C430 H420 0.930 . S
C430 C428 1.419 . S
C430 C431 1.362 . S
C431 H421 0.930 . S
C431 C424 1.398 1_545 S
C431 C430 1.362 . S
H432 C438 0.930 . S
H433 C441 0.930 . S
H434 C442 0.930 . S
H435 C443 0.930 . S
H436 C446 0.930 . S
H437 C447 0.930 . S
C438 H432 0.930 . S
C438 C439 1.355 . S
C438 C440 1.415 . S
C439 C438 1.355 . S
C439 C441 1.419 . S
C440 C438 1.415 . S
C440 C445 1.425 . S
C440 C447 1.409 . S
C441 H433 0.930 . S
C441 C439 1.419 . S
C441 C442 1.362 . S
C442 H434 0.930 . S
C442 C441 1.362 . S
C442 C445 1.409 . S
C443 H435 0.930 . S
C443 C444 1.355 . S
C443 C445 1.415 . S
C444 C443 1.355 . S
C444 C446 1.419 . S
C445 C440 1.425 . S
C445 C442 1.409 . S
C445 C443 1.415 . S
C446 H436 0.930 . S
C446 C444 1.419 . S
C446 C447 1.362 . S
C447 H437 0.930 . S
C447 C440 1.409 . S
C447 C446 1.362 . S
H448 C454 0.930 . S
H449 C457 0.930 . S
H450 C458 0.930 . S
H451 C459 0.930 . S
H452 C462 0.930 . S
H453 C463 0.930 . S
C454 H448 0.930 . S
C454 C455 1.355 . S
C454 C456 1.415 . S
C455 C454 1.355 . S
C455 C457 1.419 . S
C456 C454 1.415 . S
C456 C461 1.425 . S
C456 C463 1.409 . S
C457 H449 0.930 . S
C457 C455 1.419 . S
C457 C458 1.362 . S
C458 H450 0.930 . S
C458 C457 1.362 . S
C458 C461 1.409 . S
C459 H451 0.930 . S
C459 C460 1.355 . S
C459 C461 1.415 . S
C460 C459 1.355 . S
C460 C462 1.419 . S
C461 C456 1.425 . S
C461 C458 1.409 . S
C461 C459 1.415 . S
C462 H452 0.930 . S
C462 C460 1.419 . S
C462 C463 1.362 . S
C463 H453 0.930 . S
C463 C456 1.409 . S
C463 C462 1.362 . S
H464 C470 0.930 . S
H465 C473 0.930 . S
H466 C474 0.930 . S
H467 C475 0.930 . S
H468 C478 0.930 . S
H469 C479 0.930 . S
C470 H464 0.930 . S
C470 C471 1.355 . S
C470 C472 1.415 . S
C471 C470 1.355 . S
C471 C473 1.419 . S
C472 C470 1.415 . S
C472 C477 1.425 . S
C472 C479 1.409 . S
C473 H465 0.930 . S
C473 C471 1.419 . S
C473 C474 1.362 . S
C474 H466 0.930 . S
C474 C473 1.362 . S
C474 C477 1.409 . S
C475 H467 0.930 . S
C475 C476 1.355 . S
C475 C477 1.415 . S
C476 C475 1.355 . S
C476 C478 1.419 . S
C477 C472 1.425 . S
C477 C474 1.409 . S
C477 C475 1.415 . S
C478 H468 0.930 . S
C478 C476 1.419 . S
C478 C479 1.362 . S
C479 H469 0.930 . S
C479 C472 1.409 . S
C479 C478 1.362 . S
H480 C486 0.930 . S
H481 C489 0.930 . S
H482 C490 0.930 . S
H483 C491 0.930 . S
H484 C494 0.930 . S
H485 C495 0.930 . S
C486 H480 0.930 . S
C486 C487 1.355 . S
C486 C488 1.415 . S
C487 C486 1.355 . S
C487 C489 1.419 . S
C488 C486 1.415 . S
C488 C493 1.425 . S
C488 C495 1.409 . S
C489 H481 0.930 . S
C489 C487 1.419 . S
C489 C490 1.362 . S
C490 H482 0.930 . S
C490 C489 1.362 . S
C490 C493 1.409 . S
C491 H483 0.930 . S
C491 C492 1.355 . S
C491 C493 1.415 . S
C492 C491 1.355 . S
C492 C494 1.419 . S
C493 C488 1.425 . S
C493 C490 1.409 . S
C493 C491 1.415 . S
C494 H484 0.930 . S
C494 C492 1.419 . S
C494 C495 1.362 . S
C495 H485 0.930 . S
C495 C488 1.409 . S
C495 C494 1.362 . S
H496 C502 0.930 . S
H497 C505 0.930 . S
H498 C506 0.930 . S
H499 C507 0.930 . S
H500 C510 0.930 . S
H501 C511 0.930 . S
C502 H496 0.930 . S
C502 C503 1.355 . S
C502 C504 1.415 . S
C503 C502 1.355 . S
C503 C505 1.419 . S
C504 C502 1.415 . S
C504 C509 1.425 . S
C504 C511 1.409 . S
C505 H497 0.930 . S
C505 C503 1.419 . S
C505 C506 1.362 . S
C506 H498 0.930 . S
C506 C505 1.362 . S
C506 C509 1.409 . S
C507 H499 0.930 . S
C507 C508 1.355 . S
C507 C509 1.415 . S
C508 C507 1.355 . S
C508 C510 1.419 . S
C509 C504 1.425 . S
C509 C506 1.409 . S
C509 C507 1.415 . S
C510 H500 0.930 . S
C510 C508 1.419 . S
C510 C511 1.362 . S
C511 H501 0.930 . S
C511 C504 1.409 . S
C511 C510 1.362 . S
H512 C518 0.930 . S
H513 C521 0.930 . S
H514 C522 0.930 . S
H515 C523 0.930 . S
H516 C526 0.930 . S
H517 C527 0.930 . S
C518 H512 0.930 . S
C518 C519 1.355 . S
C518 C520 1.415 . S
C519 C518 1.355 . S
C519 C521 1.419 . S
C520 C518 1.415 . S
C520 C525 1.425 . S
C520 C527 1.409 . S
C521 H513 0.930 . S
C521 C519 1.419 . S
C521 C522 1.362 . S
C522 H514 0.930 . S
C522 C521 1.362 . S
C522 C525 1.409 . S
C523 H515 0.930 . S
C523 C524 1.355 . S
C523 C525 1.415 . S
C524 C523 1.355 . S
C524 C526 1.419 . S
C525 C520 1.425 . S
C525 C522 1.409 . S
C525 C523 1.415 . S
C526 H516 0.930 . S
C526 C524 1.419 . S
C526 C527 1.362 . S
C527 H517 0.930 . S
C527 C520 1.409 . S
C527 C526 1.362 . S
H528 C534 0.930 . S
H529 C537 0.930 . S
H530 C538 0.930 . S
H531 C539 0.930 . S
H532 C542 0.930 . S
H533 C543 0.930 . S
C534 H528 0.930 . S
C534 C535 1.355 . S
C534 C536 1.415 . S
C535 C534 1.355 . S
C535 C537 1.419 . S
C536 C534 1.415 . S
C536 C541 1.425 . S
C536 C543 1.409 . S
C537 H529 0.930 . S
C537 C535 1.419 . S
C537 C538 1.362 . S
C538 H530 0.930 . S
C538 C537 1.362 . S
C538 C541 1.409 . S
C539 H531 0.930 . S
C539 C540 1.355 . S
C539 C541 1.415 . S
C540 C539 1.355 . S
C540 C542 1.419 . S
C541 C536 1.425 . S
C541 C538 1.409 . S
C541 C539 1.415 . S
C542 H532 0.930 . S
C542 C540 1.419 . S
C542 C543 1.362 . S
C543 H533 0.930 . S
C543 C536 1.409 . S
C543 C542 1.362 . S
H544 C550 0.930 . S
H545 C553 0.930 . S
H546 C554 0.930 . S
H547 C555 0.930 . S
H548 C558 0.930 . S
H549 C559 0.930 . S
C550 H544 0.930 . S
C550 C551 1.355 . S
C550 C552 1.415 . S
C551 C550 1.355 . S
C551 C553 1.419 . S
C552 C550 1.415 . S
C552 C557 1.425 . S
C552 C559 1.409 . S
C553 H545 0.930 . S
C553 C551 1.419 . S
C553 C554 1.362 . S
C554 H546 0.930 . S
C554 C553 1.362 . S
C554 C557 1.409 . S
C555 H547 0.930 . S
C555 C556 1.355 . S
C555 C557 1.415 . S
C556 C555 1.355 . S
C556 C558 1.419 . S
C557 C552 1.425 . S
C557 C554 1.409 . S
C557 C555 1.415 . S
C558 H548 0.930 . S
C558 C556 1.419 . S
C558 C559 1.362 . S
C559 H549 0.930 . S
C559 C552 1.409 . S
C559 C558 1.362 . S
C183 C7 1.230 . S
C188 C84 1.109 . S
C199 C18 1.113 . S
C204 C51 1.227 . S
C215 C29 1.165 . S
C220 C62 1.172 . S
C231 C73 1.109 . S
C236 C40 1.230 . S
C247 C172 1.268 . S
C252 C95 1.252 . S
C263 C139 1.265 . S
C268 C106 1.266 . S
C279 C117 1.234 . S
C284 C150 1.245 . S
C295 C128 1.252 . S
C300 C161 1.268 . S
C311 C93 1.965 . S
C316 C5 1.463 . S
C327 C104 1.923 . S
C332 C16 1.497 . S
C343 C27 1.374 . S
C348 C115 1.972 . S
C359 C126 1.952 . S
C364 C38 1.361 . S
C375 C137 1.965 . S
C380 C49 1.362 . S
C391 C148 1.956 . S
C396 C60 1.360 . S
C407 C159 1.920 . S
C412 C71 1.493 . S
C423 C82 1.483 . S
C428 C170 1.955 . S
C439 C74 1.752 . S
C444 C8 1.806 . S
C455 C85 1.763 . S
C460 C19 1.779 . S
C471 C30 1.805 . S
C476 C52 1.765 . S
C487 C41 1.757 . S
C492 C63 1.786 . S
C503 C162 1.820 . S
C508 C96 1.815 . S
C519 C173 1.832 . S
C524 C107 1.838 . S
C535 C118 1.838 . S
C540 C140 1.840 . S
C551 C129 1.825 . S
C556 C151 1.833 . S
