# Generated by pormake.
# Topology uol, (4)-cn, num edge types: 1
# Building blocks:
#     Node 0, Type 0, BuildingBlock: CEKHIL_clean_sbu_0, # of connection points: 4
#     Node 1, Type 0, BuildingBlock: CEKHIL_clean_sbu_0, # of connection points: 4
#     Node 2, Type 0, BuildingBlock: CEKHIL_clean_sbu_0, # of connection points: 4
#     Node 3, Type 0, BuildingBlock: CEKHIL_clean_sbu_0, # of connection points: 4
#     Node 4, Type 0, BuildingBlock: CEKHIL_clean_sbu_0, # of connection points: 4
#     Node 5, Type 0, BuildingBlock: CEKHIL_clean_sbu_0, # of connection points: 4
#     Node 6, Type 0, BuildingBlock: CEKHIL_clean_sbu_0, # of connection points: 4
#     Node 7, Type 0, BuildingBlock: CEKHIL_clean_sbu_0, # of connection points: 4
#     Node 8, Type 0, BuildingBlock: CEKHIL_clean_sbu_0, # of connection points: 4
#     Node 9, Type 0, BuildingBlock: CEKHIL_clean_sbu_0, # of connection points: 4
#     Node 10, Type 0, BuildingBlock: CEKHIL_clean_sbu_0, # of connection points: 4
#     Node 11, Type 0, BuildingBlock: CEKHIL_clean_sbu_0, # of connection points: 4
#     Edge 12, Type (0, 0), BuildingBlock: OJICUG_clean_linker_0, # of connection points: 2
#     Edge 13, Type (0, 0), BuildingBlock: OJICUG_clean_linker_0, # of connection points: 2
#     Edge 14, Type (0, 0), BuildingBlock: OJICUG_clean_linker_0, # of connection points: 2
#     Edge 15, Type (0, 0), BuildingBlock: OJICUG_clean_linker_0, # of connection points: 2
#     Edge 16, Type (0, 0), BuildingBlock: OJICUG_clean_linker_0, # of connection points: 2
#     Edge 17, Type (0, 0), BuildingBlock: OJICUG_clean_linker_0, # of connection points: 2
#     Edge 18, Type (0, 0), BuildingBlock: OJICUG_clean_linker_0, # of connection points: 2
#     Edge 19, Type (0, 0), BuildingBlock: OJICUG_clean_linker_0, # of connection points: 2
#     Edge 20, Type (0, 0), BuildingBlock: OJICUG_clean_linker_0, # of connection points: 2
#     Edge 21, Type (0, 0), BuildingBlock: OJICUG_clean_linker_0, # of connection points: 2
#     Edge 22, Type (0, 0), BuildingBlock: OJICUG_clean_linker_0, # of connection points: 2
#     Edge 23, Type (0, 0), BuildingBlock: OJICUG_clean_linker_0, # of connection points: 2
#     Edge 24, Type (0, 0), BuildingBlock: OJICUG_clean_linker_0, # of connection points: 2
#     Edge 25, Type (0, 0), BuildingBlock: OJICUG_clean_linker_0, # of connection points: 2
#     Edge 26, Type (0, 0), BuildingBlock: OJICUG_clean_linker_0, # of connection points: 2
#     Edge 27, Type (0, 0), BuildingBlock: OJICUG_clean_linker_0, # of connection points: 2
#     Edge 28, Type (0, 0), BuildingBlock: OJICUG_clean_linker_0, # of connection points: 2
#     Edge 29, Type (0, 0), BuildingBlock: OJICUG_clean_linker_0, # of connection points: 2
#     Edge 30, Type (0, 0), BuildingBlock: OJICUG_clean_linker_0, # of connection points: 2
#     Edge 31, Type (0, 0), BuildingBlock: OJICUG_clean_linker_0, # of connection points: 2
#     Edge 32, Type (0, 0), BuildingBlock: OJICUG_clean_linker_0, # of connection points: 2
#     Edge 33, Type (0, 0), BuildingBlock: OJICUG_clean_linker_0, # of connection points: 2
#     Edge 34, Type (0, 0), BuildingBlock: OJICUG_clean_linker_0, # of connection points: 2
#     Edge 35, Type (0, 0), BuildingBlock: OJICUG_clean_linker_0, # of connection points: 2
# Relax obj value: 0.132
# Max RMSD: 0.172
# Mean RMSD: 0.172
data_MOF--net-uol--node1-CEKHIL_clean_sbu_0--edge1-OJICUG_clean_linker_0
_symmetry_space_group_name_H-M    P1
_symmetry_Int_Tables_number       1
_symmetry_cell_setting            triclinic
loop_
_symmetry_equiv_pos_as_xyz
'x, y, z'
_cell_length_a     23.895257
_cell_length_b     23.886529
_cell_length_c     46.552522
_cell_angle_alpha  89.996622
_cell_angle_beta   89.992145
_cell_angle_gamma 120.0069
loop_
_atom_site_label
_atom_site_type_symbol
_atom_site_fract_x
_atom_site_fract_y
_atom_site_fract_z
_atom_type_partial_charge
Co0 Co 0.13901 0.35546 0.0938 0.0
O1 O 0.10288 0.40031 0.07352 0.0
O2 O 0.16343 0.43644 0.11271 0.0
C3 C 0.17393 0.32918 0.05353 0.0
O4 O 0.18661 0.32523 0.12023 0.0
Co5 Co 0.09314 0.21064 0.0841 0.0
O6 O 0.17229 0.22941 0.10566 0.0
C7 C 0.01949 0.24882 0.12334 0.0
C8 C 0.13148 0.44579 0.09247 0.0
C9 C 0.19923 0.27893 0.12187 0.0
O10 O 0.05995 0.30925 0.11909 0.0
O11 O 0.02283 0.20336 0.11024 0.0
O12 O 0.20874 0.38565 0.06529 0.0
O13 O 0.11881 0.2922 0.06554 0.0
Co14 Co 0.78403 0.14192 0.26053 0.0
O15 O 0.70112 0.10341 0.24177 0.0
O16 O 0.7301 0.17008 0.27906 0.0
C17 C 0.84265 0.17329 0.21945 0.0
O18 O 0.86402 0.19132 0.2856 0.0
Co19 Co 0.88095 0.09343 0.25044 0.0
O20 O 0.94312 0.17291 0.27132 0.0
C21 C 0.77112 0.02362 0.29117 0.0
C22 C 0.68672 0.13529 0.26002 0.0
C23 C 0.92235 0.20214 0.28712 0.0
O24 O 0.75248 0.0652 0.28722 0.0
O25 O 0.81809 0.02485 0.2773 0.0
O26 O 0.82166 0.20896 0.23083 0.0
O27 O 0.82469 0.11884 0.23214 0.0
Co28 Co 0.64363 0.78387 0.42712 0.0
O29 O 0.59817 0.70312 0.40675 0.0
O30 O 0.56249 0.72771 0.44605 0.0
C31 C 0.67054 0.84586 0.38708 0.0
O32 O 0.67506 0.86189 0.45355 0.0
Co33 Co 0.78906 0.88091 0.41712 0.0
O34 O 0.77124 0.94217 0.43853 0.0
C35 C 0.74924 0.769 0.45652 0.0
C36 C 0.55284 0.6864 0.42576 0.0
C37 C 0.72204 0.92055 0.4549 0.0
O38 O 0.68904 0.75001 0.45234 0.0
O39 O 0.7951 0.81722 0.44329 0.0
O40 O 0.61406 0.82435 0.39879 0.0
O41 O 0.70684 0.8266 0.39884 0.0
Co42 Co 0.85912 0.64366 0.59393 0.0
O43 O 0.89504 0.59872 0.57357 0.0
O44 O 0.83469 0.56266 0.61283 0.0
C45 C 0.82406 0.67004 0.55373 0.0
O46 O 0.81176 0.67404 0.62045 0.0
Co47 Co 0.90527 0.78856 0.58423 0.0
O48 O 0.82625 0.76994 0.60589 0.0
C49 C 0.97891 0.75017 0.62335 0.0
C50 C 0.86652 0.55327 0.59255 0.0
C51 C 0.7993 0.72044 0.62211 0.0
O52 O 0.93831 0.68976 0.61914 0.0
O53 O 0.97564 0.79569 0.61028 0.0
O54 O 0.78924 0.61357 0.5655 0.0
O55 O 0.87927 0.70693 0.56568 0.0
Co56 Co 0.21406 0.85671 0.76058 0.0
O57 O 0.29701 0.89532 0.74184 0.0
O58 O 0.26801 0.82863 0.77914 0.0
C59 C 0.15556 0.82535 0.71948 0.0
O60 O 0.13404 0.80722 0.78564 0.0
Co61 Co 0.11697 0.90498 0.75045 0.0
O62 O 0.05485 0.82548 0.77136 0.0
C63 C 0.22676 0.97496 0.79117 0.0
C64 C 0.31142 0.86349 0.76011 0.0
C65 C 0.07568 0.79631 0.78717 0.0
O66 O 0.24546 0.93341 0.78726 0.0
O67 O 0.17979 0.97364 0.77727 0.0
O68 O 0.17655 0.78969 0.73087 0.0
O69 O 0.17341 0.87975 0.73218 0.0
Co70 Co 0.35406 0.21514 0.92693 0.0
O71 O 0.39972 0.29588 0.90655 0.0
O72 O 0.43513 0.27119 0.94591 0.0
C73 C 0.32722 0.1531 0.88691 0.0
O74 O 0.32239 0.1371 0.95337 0.0
Co75 Co 0.20861 0.11833 0.91685 0.0
O76 O 0.22617 0.05696 0.93832 0.0
C77 C 0.24848 0.23026 0.95622 0.0
C78 C 0.44494 0.31253 0.9256 0.0
C79 C 0.27531 0.07848 0.95471 0.0
O80 O 0.30867 0.24912 0.95208 0.0
O81 O 0.2026 0.1821 0.94298 0.0
O82 O 0.38365 0.17456 0.89866 0.0
O83 O 0.29094 0.17247 0.89861 0.0
Co84 Co 0.64164 0.85714 0.74872 0.0
O85 O 0.59719 0.89564 0.76747 0.0
O86 O 0.55961 0.829 0.73016 0.0
C87 C 0.66881 0.82574 0.78981 0.0
O88 O 0.67228 0.80775 0.72367 0.0
Co89 Co 0.78702 0.90559 0.75887 0.0
O90 O 0.76977 0.82614 0.73796 0.0
C91 C 0.74709 0.97546 0.71812 0.0
C92 C 0.55096 0.86378 0.7492 0.0
C93 C 0.71979 0.79692 0.72215 0.0
O94 O 0.68687 0.93388 0.72205 0.0
O95 O 0.79279 0.97421 0.73202 0.0
O96 O 0.61217 0.79008 0.77842 0.0
O97 O 0.70532 0.88019 0.77714 0.0
Co98 Co 0.78306 0.64343 0.91533 0.0
O99 O 0.70211 0.59857 0.93563 0.0
O100 O 0.72651 0.56247 0.89641 0.0
C101 C 0.84428 0.66969 0.95559 0.0
O102 O 0.86088 0.6737 0.88888 0.0
Co103 Co 0.88199 0.78826 0.92505 0.0
O104 O 0.94236 0.76953 0.90345 0.0
C105 C 0.77012 0.7501 0.88586 0.0
C106 C 0.68522 0.55312 0.91666 0.0
C107 C 0.91978 0.72002 0.88724 0.0
O108 O 0.7502 0.68967 0.89008 0.0
O109 O 0.8189 0.79555 0.89896 0.0
O110 O 0.82264 0.61323 0.94382 0.0
O111 O 0.82612 0.70667 0.9436 0.0
Co112 Co 0.13856 0.78391 0.08211 0.0
O113 O 0.1035 0.70322 0.10251 0.0
O114 O 0.16356 0.72781 0.06315 0.0
C115 C 0.17379 0.84602 0.1221 0.0
O116 O 0.18489 0.8619 0.05564 0.0
Co117 Co 0.0899 0.88072 0.09217 0.0
O118 O 0.1688 0.94205 0.07067 0.0
C119 C 0.01782 0.76871 0.05284 0.0
C120 C 0.13204 0.68651 0.08347 0.0
C121 C 0.19641 0.92051 0.05428 0.0
O122 O 0.05917 0.74988 0.05698 0.0
O123 O 0.02009 0.81688 0.06608 0.0
O124 O 0.20875 0.82455 0.11036 0.0
O125 O 0.11814 0.82663 0.11041 0.0
Co126 Co 0.35688 0.14232 0.24849 0.0
O127 O 0.40119 0.10368 0.26725 0.0
O128 O 0.43894 0.1704 0.22996 0.0
C129 C 0.32967 0.17365 0.28959 0.0
O130 O 0.32638 0.19182 0.22344 0.0
Co131 Co 0.21152 0.09404 0.25861 0.0
O132 O 0.22893 0.17357 0.23772 0.0
C133 C 0.25139 0.02411 0.21787 0.0
C134 C 0.44747 0.13553 0.24899 0.0
C135 C 0.27893 0.20274 0.22191 0.0
O136 O 0.31163 0.06564 0.2218 0.0
O137 O 0.20571 0.02542 0.23176 0.0
O138 O 0.38634 0.20931 0.27821 0.0
O139 O 0.29315 0.11926 0.27689 0.0
Co140 Co 0.21498 0.35526 0.41527 0.0
O141 O 0.29585 0.40018 0.43561 0.0
O142 O 0.27152 0.4363 0.39638 0.0
C143 C 0.15357 0.32885 0.45548 0.0
O144 O 0.13722 0.32493 0.38878 0.0
Co145 Co 0.11623 0.21036 0.42495 0.0
O146 O 0.05582 0.22903 0.40334 0.0
C147 C 0.22821 0.24878 0.38577 0.0
C148 C 0.31275 0.44567 0.41665 0.0
C149 C 0.07835 0.27855 0.38713 0.0
O150 O 0.24804 0.30918 0.39002 0.0
O151 O 0.17943 0.20325 0.39885 0.0
O152 O 0.17522 0.38533 0.44373 0.0
O153 O 0.17187 0.29196 0.44352 0.0
Co154 Co 0.85943 0.21515 0.58217 0.0
O155 O 0.89475 0.29595 0.6025 0.0
O156 O 0.83444 0.27128 0.56323 0.0
C157 C 0.82438 0.15324 0.62223 0.0
O158 O 0.81279 0.13708 0.55578 0.0
Co159 Co 0.90778 0.11808 0.59218 0.0
O160 O 0.82868 0.0568 0.5708 0.0
C161 C 0.97984 0.2299 0.55273 0.0
C162 C 0.86612 0.31263 0.5835 0.0
C163 C 0.80108 0.07841 0.55444 0.0
O164 O 0.93865 0.24893 0.55692 0.0
O165 O 0.97748 0.18169 0.56597 0.0
O166 O 0.78942 0.17475 0.61052 0.0
O167 O 0.87993 0.17245 0.61046 0.0
C168 C 0.13054 0.59097 0.06083 0.0
C169 C 0.13055 0.6243 0.08563 0.0
H170 H 0.1289 0.50683 0.0437 0.0
C171 C 0.1299 0.59814 0.11275 0.0
H172 H 0.13085 0.61018 0.03971 0.0
C173 C 0.13075 0.54022 0.11505 0.0
C174 C 0.12998 0.5065 0.09025 0.0
H175 H 0.1302 0.62324 0.13219 0.0
H176 H 0.13131 0.52145 0.13617 0.0
C177 C 0.12912 0.5319 0.06313 0.0
C178 C 0.62512 0.19356 0.25687 0.0
C179 C 0.62527 0.13495 0.25792 0.0
H180 H 0.56798 0.23938 0.252 0.0
C181 C 0.56675 0.07639 0.25548 0.0
H182 H 0.66995 0.23923 0.25842 0.0
C183 C 0.50848 0.07645 0.25273 0.0
C184 C 0.50853 0.13511 0.25109 0.0
H185 H 0.56608 0.03071 0.25613 0.0
H186 H 0.46353 0.03082 0.25148 0.0
C187 C 0.56718 0.19366 0.25293 0.0
C188 C 0.46677 0.598 0.39644 0.0
C189 C 0.49214 0.62418 0.42357 0.0
H190 H 0.38878 0.52131 0.37299 0.0
C191 C 0.4587 0.59087 0.44835 0.0
H192 H 0.49166 0.62308 0.37701 0.0
C193 C 0.40106 0.53181 0.44603 0.0
C194 C 0.37493 0.5064 0.4189 0.0
H195 H 0.4775 0.61009 0.46948 0.0
H196 H 0.37612 0.50675 0.46545 0.0
C197 C 0.408 0.54009 0.39412 0.0
C198 C 0.86773 0.45906 0.6151 0.0
C199 C 0.86802 0.49256 0.59032 0.0
H200 H 0.86872 0.37625 0.63223 0.0
C201 C 0.86849 0.467 0.56319 0.0
H202 H 0.86749 0.47797 0.63623 0.0
C203 C 0.86716 0.40797 0.56088 0.0
C204 C 0.86762 0.37485 0.58567 0.0
H205 H 0.86836 0.49191 0.54376 0.0
H206 H 0.86652 0.38862 0.53976 0.0
C207 C 0.86867 0.40118 0.61279 0.0
C208 C 0.43104 0.80552 0.75198 0.0
C209 C 0.48984 0.86412 0.75127 0.0
H210 H 0.32801 0.75967 0.75655 0.0
C211 C 0.4899 0.92265 0.75401 0.0
H212 H 0.43018 0.75987 0.75019 0.0
C213 C 0.43155 0.92258 0.75672 0.0
C214 C 0.37289 0.86391 0.75804 0.0
H215 H 0.53492 0.96832 0.75363 0.0
H216 H 0.43226 0.9682 0.75822 0.0
C217 C 0.37297 0.80538 0.75588 0.0
C218 C 0.53901 0.40797 0.94826 0.0
C219 C 0.50568 0.37472 0.92345 0.0
H220 H 0.62155 0.49201 0.96542 0.0
C221 C 0.53121 0.40091 0.89634 0.0
H222 H 0.52009 0.38873 0.96937 0.0
C223 C 0.59003 0.45879 0.89406 0.0
C224 C 0.62299 0.49243 0.91886 0.0
H225 H 0.50642 0.37588 0.87689 0.0
H226 H 0.60937 0.47759 0.87294 0.0
C227 C 0.5967 0.467 0.94597 0.0
C228 C 0.29331 0.22831 0.16969 0.0
C229 C 0.2751 0.23892 0.19699 0.0
H230 H 0.28263 0.23223 0.12409 0.0
C231 C 0.24183 0.27333 0.1991 0.0
H232 H 0.31834 0.20123 0.16742 0.0
C233 C 0.22306 0.29269 0.17428 0.0
C234 C 0.23541 0.27602 0.14698 0.0
H235 H 0.22697 0.2818 0.21987 0.0
H236 H 0.19385 0.31547 0.17652 0.0
C237 C 0.27268 0.24575 0.14488 0.0
C238 C 0.03008 0.27267 0.3099 0.0
C239 C 0.96241 0.23834 0.31203 0.0
H240 H 0.12022 0.31483 0.33245 0.0
C241 C 0.93363 0.22784 0.33932 0.0
H242 H 0.05338 0.28105 0.28912 0.0
C243 C 0.97172 0.24535 0.36413 0.0
C244 C 0.03926 0.27556 0.36201 0.0
H245 H 0.88152 0.20082 0.34161 0.0
H246 H 0.94828 0.23192 0.38492 0.0
C247 C 0.06824 0.2921 0.3347 0.0
C248 C 0.7763 0.06679 0.50212 0.0
C249 C 0.76509 0.03836 0.52952 0.0
H250 H 0.77172 0.0512 0.45659 0.0
C251 C 0.72932 0.97074 0.53189 0.0
H252 H 0.80434 0.11883 0.49967 0.0
C253 C 0.70906 0.93214 0.50724 0.0
C254 C 0.72612 0.96057 0.47984 0.0
H255 H 0.72027 0.94773 0.55276 0.0
H256 H 0.68515 0.8801 0.50969 0.0
C257 C 0.75787 0.02818 0.47747 0.0
C258 C 0.77577 0.707 0.67455 0.0
C259 C 0.76324 0.72346 0.64725 0.0
H260 H 0.77205 0.71811 0.72013 0.0
C261 C 0.72588 0.75364 0.64514 0.0
H262 H 0.80506 0.6843 0.67679 0.0
C263 C 0.70531 0.77116 0.66996 0.0
C264 C 0.72368 0.76073 0.69725 0.0
H265 H 0.7158 0.76701 0.62435 0.0
H266 H 0.6802 0.79815 0.66767 0.0
C267 C 0.75707 0.72644 0.69936 0.0
C268 C 0.92985 0.70637 0.83481 0.0
C269 C 0.95887 0.72297 0.8621 0.0
H270 H 0.94465 0.71732 0.78922 0.0
C271 C 0.02641 0.75321 0.8642 0.0
H272 H 0.87787 0.68361 0.83258 0.0
C273 C 0.06447 0.77067 0.83938 0.0
C274 C 0.03565 0.76012 0.81209 0.0
H275 H 0.04987 0.76668 0.88498 0.0
H276 H 0.11657 0.79773 0.84165 0.0
C277 C 0.96798 0.72575 0.80999 0.0
C278 C 0.22089 0.93216 1.00193 0.0
C279 C 0.23226 0.96056 0.02933 0.0
H280 H 0.22532 0.94779 0.9564 0.0
C281 C 0.26808 0.02818 0.0317 0.0
H282 H 0.19278 0.88012 0.99948 0.0
C283 C 0.28829 0.0668 0.00705 0.0
C284 C 0.27112 0.0384 0.97965 0.0
H285 H 0.27724 0.05117 0.05258 0.0
H286 H 0.31229 0.11884 0.0095 0.0
C287 C 0.23926 0.97078 0.97727 0.0
C288 C 0.25878 0.33907 0.01838 0.0
C289 C 0.19421 0.30771 0.02775 0.0
H290 H 0.32712 0.33933 0.98829 0.0
C291 C 0.14772 0.25415 0.01228 0.0
H292 H 0.29557 0.38068 0.02987 0.0
C293 C 0.16527 0.23132 0.98838 0.0
C294 C 0.23013 0.2608 0.97943 0.0
H295 H 0.09742 0.2293 0.01876 0.0
H296 H 0.12786 0.18906 0.97749 0.0
C297 C 0.27672 0.31549 0.99454 0.0
C298 C 0.91729 0.25757 0.18414 0.0
C299 C 0.88535 0.19331 0.19398 0.0
H300 H 0.98504 0.32598 0.154 0.0
C301 C 0.89485 0.14736 0.17939 0.0
H302 H 0.91068 0.29398 0.19497 0.0
C303 C 0.93623 0.16521 0.15581 0.0
C304 C 0.9701 0.22982 0.14635 0.0
H305 H 0.87054 0.09734 0.1863 0.0
H306 H 0.94298 0.12832 0.14554 0.0
C307 C 0.95971 0.27581 0.16065 0.0
C308 C 0.68571 0.96546 0.3293 0.0
C309 C 0.74119 0.9749 0.31448 0.0
H310 H 0.61913 0.91657 0.36391 0.0
C311 C 0.77124 0.94005 0.3234 0.0
H312 H 0.66142 0.99157 0.32305 0.0
C313 C 0.7478 0.89836 0.34685 0.0
C314 C 0.69308 0.88947 0.3619 0.0
H315 H 0.81419 0.94604 0.31274 0.0
H316 H 0.77294 0.87315 0.35325 0.0
C317 C 0.66155 0.92266 0.3527 0.0
C318 C 0.73911 0.66017 0.51865 0.0
C319 C 0.80369 0.69158 0.528 0.0
H320 H 0.6707 0.65987 0.4886 0.0
C321 C 0.85011 0.74525 0.51256 0.0
H322 H 0.70236 0.61849 0.53013 0.0
C323 C 0.8325 0.76809 0.48869 0.0
C324 C 0.76764 0.73852 0.47974 0.0
H325 H 0.90041 0.77015 0.51902 0.0
H326 H 0.86987 0.81041 0.4778 0.0
C327 C 0.7211 0.68377 0.49484 0.0
C328 C 0.08086 0.74112 0.68417 0.0
C329 C 0.11299 0.8054 0.69398 0.0
H330 H 0.01297 0.67277 0.65407 0.0
C331 C 0.10377 0.85146 0.67932 0.0
H332 H 0.08726 0.70463 0.69505 0.0
C333 C 0.06244 0.8337 0.65574 0.0
C334 C 0.02834 0.76906 0.64633 0.0
H335 H 0.12824 0.9015 0.6862 0.0
H336 H 0.05589 0.87067 0.64542 0.0
C337 C 0.03848 0.72297 0.66068 0.0
C338 C 0.25001 0.10045 0.8467 0.0
C339 C 0.3047 0.10938 0.86178 0.0
H340 H 0.18367 0.05263 0.8126 0.0
C341 C 0.33623 0.07614 0.85266 0.0
H342 H 0.22487 0.1257 0.85304 0.0
C343 C 0.31209 0.03324 0.8293 0.0
C344 C 0.25665 0.02375 0.81445 0.0
H345 H 0.37862 0.08226 0.86389 0.0
H346 H 0.33638 0.00709 0.8231 0.0
C347 C 0.22659 0.05866 0.82329 0.0
C348 C 0.65919 0.74139 0.82508 0.0
C349 C 0.69145 0.80569 0.81528 0.0
H350 H 0.65859 0.67293 0.85517 0.0
C351 C 0.74682 0.85164 0.8299 0.0
H352 H 0.61623 0.70498 0.81422 0.0
C353 C 0.77036 0.83376 0.85347 0.0
C354 C 0.73968 0.76912 0.86288 0.0
H355 H 0.77247 0.90168 0.82303 0.0
H356 H 0.81394 0.87066 0.86377 0.0
C357 C 0.68338 0.72313 0.84856 0.0
C358 C 0.89304 0.74467 0.99685 0.0
C359 C 0.88603 0.69116 0.98137 0.0
H360 H 0.93821 0.80975 0.03165 0.0
C361 C 0.91934 0.65987 0.9907 0.0
H362 H 0.86751 0.76946 0.9904 0.0
C363 C 0.96088 0.68348 0.01453 0.0
C364 C 0.9689 0.73813 0.02965 0.0
H365 H 0.91458 0.6183 0.97919 0.0
H366 H 0.98752 0.6597 0.02075 0.0
C367 C 0.93342 0.76752 0.02074 0.0
C368 C 0.14922 0.89869 0.16231 0.0
C369 C 0.19498 0.88975 0.14723 0.0
H370 H 0.13066 0.9465 0.19642 0.0
C371 C 0.25973 0.92297 0.15636 0.0
H372 H 0.09884 0.87346 0.15597 0.0
C373 C 0.27848 0.96586 0.17973 0.0
C374 C 0.23252 0.97535 0.19458 0.0
H375 H 0.29601 0.91684 0.14513 0.0
H376 H 0.32891 0.99199 0.18593 0.0
C377 C 0.16757 0.94047 0.18573 0.0
C378 C 0.2517 0.14754 0.32973 0.0
C379 C 0.30703 0.19359 0.3151 0.0
H380 H 0.18459 0.12832 0.36363 0.0
C381 C 0.33921 0.25785 0.32493 0.0
H382 H 0.22611 0.09752 0.32283 0.0
C383 C 0.31499 0.27599 0.34844 0.0
C384 C 0.25872 0.2299 0.36277 0.0
H385 H 0.38214 0.29434 0.31407 0.0
H386 H 0.33971 0.32617 0.35508 0.0
C387 C 0.22814 0.16529 0.35333 0.0
C388 C 0.07859 0.33877 0.49062 0.0
C389 C 0.11165 0.30727 0.48122 0.0
H390 H 0.01061 0.33916 0.52073 0.0
C391 C 0.10429 0.2535 0.49661 0.0
H392 H 0.08362 0.38053 0.47918 0.0
C393 C 0.06385 0.23066 0.52049 0.0
C394 C 0.02869 0.26034 0.52949 0.0
H395 H 0.1296 0.22853 0.49011 0.0
H396 H 0.0588 0.18827 0.53134 0.0
C397 C 0.03701 0.31518 0.51444 0.0
C398 C 0.71991 0.03367 0.68001 0.0
C399 C 0.76591 0.0242 0.69483 0.0
H400 H 0.70227 0.08259 0.6454 0.0
C401 C 0.83083 0.05904 0.68591 0.0
H402 H 0.6695 0.00757 0.68626 0.0
C403 C 0.8491 0.10074 0.66246 0.0
C404 C 0.80329 0.10964 0.64741 0.0
H405 H 0.86776 0.05302 0.69658 0.0
H406 H 0.89945 0.12593 0.65607 0.0
C407 C 0.73858 0.07648 0.65661 0.0
loop_
_geom_bond_atom_site_label_1
_geom_bond_atom_site_label_2
_geom_bond_distance
_geom_bond_site_symmetry_2
_ccdc_geom_bond_type
Co0 O1 2.216 . S
Co0 O2 2.091 . S
Co0 O4 2.004 . S
Co0 O10 2.021 . S
Co0 O12 2.137 . S
Co0 O13 2.244 . S
O1 Co0 2.216 . S
O1 C8 1.247 . S
O2 Co0 2.091 . S
O2 C8 1.261 . S
C3 O12 1.247 . S
C3 O13 1.272 . S
O4 Co0 2.004 . S
O4 C9 1.259 . S
Co5 O6 2.061 . S
Co5 O11 2.052 . S
Co5 O13 2.135 . S
O6 Co5 2.061 . S
O6 C9 1.235 . S
C7 O10 1.238 . S
C7 O11 1.241 . S
C8 O1 1.247 . S
C8 O2 1.261 . S
C9 O4 1.259 . S
C9 O6 1.235 . S
O10 Co0 2.021 . S
O10 C7 1.238 . S
O11 Co5 2.052 . S
O11 C7 1.241 . S
O12 Co0 2.137 . S
O12 C3 1.247 . S
O13 Co0 2.244 . S
O13 C3 1.272 . S
O13 Co5 2.135 . S
Co14 O15 2.216 . S
Co14 O16 2.091 . S
Co14 O18 2.004 . S
Co14 O24 2.021 . S
Co14 O26 2.137 . S
Co14 O27 2.244 . S
O15 Co14 2.216 . S
O15 C22 1.247 . S
O16 Co14 2.091 . S
O16 C22 1.261 . S
C17 O26 1.247 . S
C17 O27 1.272 . S
O18 Co14 2.004 . S
O18 C23 1.259 . S
Co19 O20 2.061 . S
Co19 O25 2.052 . S
Co19 O27 2.135 . S
O20 Co19 2.061 . S
O20 C23 1.235 . S
C21 O24 1.238 . S
C21 O25 1.241 . S
C22 O15 1.247 . S
C22 O16 1.261 . S
C23 O18 1.259 . S
C23 O20 1.235 . S
O24 Co14 2.021 . S
O24 C21 1.238 . S
O25 Co19 2.052 . S
O25 C21 1.241 . S
O26 Co14 2.137 . S
O26 C17 1.247 . S
O27 Co14 2.244 . S
O27 C17 1.272 . S
O27 Co19 2.135 . S
Co28 O29 2.216 . S
Co28 O30 2.091 . S
Co28 O32 2.004 . S
Co28 O38 2.021 . S
Co28 O40 2.137 . S
Co28 O41 2.244 . S
O29 Co28 2.216 . S
O29 C36 1.247 . S
O30 Co28 2.091 . S
O30 C36 1.261 . S
C31 O40 1.247 . S
C31 O41 1.272 . S
O32 Co28 2.004 . S
O32 C37 1.259 . S
Co33 O34 2.061 . S
Co33 O39 2.052 . S
Co33 O41 2.135 . S
O34 Co33 2.061 . S
O34 C37 1.235 . S
C35 O38 1.238 . S
C35 O39 1.241 . S
C36 O29 1.247 . S
C36 O30 1.261 . S
C37 O32 1.259 . S
C37 O34 1.235 . S
O38 Co28 2.021 . S
O38 C35 1.238 . S
O39 Co33 2.052 . S
O39 C35 1.241 . S
O40 Co28 2.137 . S
O40 C31 1.247 . S
O41 Co28 2.244 . S
O41 C31 1.272 . S
O41 Co33 2.135 . S
Co42 O43 2.216 . S
Co42 O44 2.091 . S
Co42 O46 2.004 . S
Co42 O52 2.021 . S
Co42 O54 2.137 . S
Co42 O55 2.244 . S
O43 Co42 2.216 . S
O43 C50 1.247 . S
O44 Co42 2.091 . S
O44 C50 1.261 . S
C45 O54 1.247 . S
C45 O55 1.272 . S
O46 Co42 2.004 . S
O46 C51 1.259 . S
Co47 O48 2.061 . S
Co47 O53 2.052 . S
Co47 O55 2.135 . S
O48 Co47 2.061 . S
O48 C51 1.235 . S
C49 O52 1.238 . S
C49 O53 1.241 . S
C50 O43 1.247 . S
C50 O44 1.261 . S
C51 O46 1.259 . S
C51 O48 1.235 . S
O52 Co42 2.021 . S
O52 C49 1.238 . S
O53 Co47 2.052 . S
O53 C49 1.241 . S
O54 Co42 2.137 . S
O54 C45 1.247 . S
O55 Co42 2.244 . S
O55 C45 1.272 . S
O55 Co47 2.135 . S
Co56 O57 2.216 . S
Co56 O58 2.091 . S
Co56 O60 2.004 . S
Co56 O66 2.021 . S
Co56 O68 2.137 . S
Co56 O69 2.244 . S
O57 Co56 2.216 . S
O57 C64 1.247 . S
O58 Co56 2.091 . S
O58 C64 1.261 . S
C59 O68 1.247 . S
C59 O69 1.272 . S
O60 Co56 2.004 . S
O60 C65 1.259 . S
Co61 O62 2.061 . S
Co61 O67 2.052 . S
Co61 O69 2.135 . S
O62 Co61 2.061 . S
O62 C65 1.235 . S
C63 O66 1.238 . S
C63 O67 1.241 . S
C64 O57 1.247 . S
C64 O58 1.261 . S
C65 O60 1.259 . S
C65 O62 1.235 . S
O66 Co56 2.021 . S
O66 C63 1.238 . S
O67 Co61 2.052 . S
O67 C63 1.241 . S
O68 Co56 2.137 . S
O68 C59 1.247 . S
O69 Co56 2.244 . S
O69 C59 1.272 . S
O69 Co61 2.135 . S
Co70 O71 2.216 . S
Co70 O72 2.091 . S
Co70 O74 2.004 . S
Co70 O80 2.021 . S
Co70 O82 2.137 . S
Co70 O83 2.244 . S
O71 Co70 2.216 . S
O71 C78 1.247 . S
O72 Co70 2.091 . S
O72 C78 1.261 . S
C73 O82 1.247 . S
C73 O83 1.272 . S
O74 Co70 2.004 . S
O74 C79 1.259 . S
Co75 O76 2.061 . S
Co75 O81 2.052 . S
Co75 O83 2.135 . S
O76 Co75 2.061 . S
O76 C79 1.235 . S
C77 O80 1.238 . S
C77 O81 1.241 . S
C78 O71 1.247 . S
C78 O72 1.261 . S
C79 O74 1.259 . S
C79 O76 1.235 . S
O80 Co70 2.021 . S
O80 C77 1.238 . S
O81 Co75 2.052 . S
O81 C77 1.241 . S
O82 Co70 2.137 . S
O82 C73 1.247 . S
O83 Co70 2.244 . S
O83 C73 1.272 . S
O83 Co75 2.135 . S
Co84 O85 2.216 . S
Co84 O86 2.091 . S
Co84 O88 2.004 . S
Co84 O94 2.021 . S
Co84 O96 2.137 . S
Co84 O97 2.244 . S
O85 Co84 2.216 . S
O85 C92 1.247 . S
O86 Co84 2.091 . S
O86 C92 1.261 . S
C87 O96 1.247 . S
C87 O97 1.272 . S
O88 Co84 2.004 . S
O88 C93 1.259 . S
Co89 O90 2.061 . S
Co89 O95 2.052 . S
Co89 O97 2.135 . S
O90 Co89 2.061 . S
O90 C93 1.235 . S
C91 O94 1.238 . S
C91 O95 1.241 . S
C92 O85 1.247 . S
C92 O86 1.261 . S
C93 O88 1.259 . S
C93 O90 1.235 . S
O94 Co84 2.021 . S
O94 C91 1.238 . S
O95 Co89 2.052 . S
O95 C91 1.241 . S
O96 Co84 2.137 . S
O96 C87 1.247 . S
O97 Co84 2.244 . S
O97 C87 1.272 . S
O97 Co89 2.135 . S
Co98 O99 2.216 . S
Co98 O100 2.091 . S
Co98 O102 2.004 . S
Co98 O108 2.021 . S
Co98 O110 2.137 . S
Co98 O111 2.244 . S
O99 Co98 2.216 . S
O99 C106 1.247 . S
O100 Co98 2.091 . S
O100 C106 1.261 . S
C101 O110 1.247 . S
C101 O111 1.272 . S
O102 Co98 2.004 . S
O102 C107 1.259 . S
Co103 O104 2.061 . S
Co103 O109 2.052 . S
Co103 O111 2.135 . S
O104 Co103 2.061 . S
O104 C107 1.235 . S
C105 O108 1.238 . S
C105 O109 1.241 . S
C106 O99 1.247 . S
C106 O100 1.261 . S
C107 O102 1.259 . S
C107 O104 1.235 . S
O108 Co98 2.021 . S
O108 C105 1.238 . S
O109 Co103 2.052 . S
O109 C105 1.241 . S
O110 Co98 2.137 . S
O110 C101 1.247 . S
O111 Co98 2.244 . S
O111 C101 1.272 . S
O111 Co103 2.135 . S
Co112 O113 2.216 . S
Co112 O114 2.091 . S
Co112 O116 2.004 . S
Co112 O122 2.021 . S
Co112 O124 2.137 . S
Co112 O125 2.244 . S
O113 Co112 2.216 . S
O113 C120 1.247 . S
O114 Co112 2.091 . S
O114 C120 1.261 . S
C115 O124 1.247 . S
C115 O125 1.272 . S
O116 Co112 2.004 . S
O116 C121 1.259 . S
Co117 O118 2.061 . S
Co117 O123 2.052 . S
Co117 O125 2.135 . S
O118 Co117 2.061 . S
O118 C121 1.235 . S
C119 O122 1.238 . S
C119 O123 1.241 . S
C120 O113 1.247 . S
C120 O114 1.261 . S
C121 O116 1.259 . S
C121 O118 1.235 . S
O122 Co112 2.021 . S
O122 C119 1.238 . S
O123 Co117 2.052 . S
O123 C119 1.241 . S
O124 Co112 2.137 . S
O124 C115 1.247 . S
O125 Co112 2.244 . S
O125 C115 1.272 . S
O125 Co117 2.135 . S
Co126 O127 2.216 . S
Co126 O128 2.091 . S
Co126 O130 2.004 . S
Co126 O136 2.021 . S
Co126 O138 2.137 . S
Co126 O139 2.244 . S
O127 Co126 2.216 . S
O127 C134 1.247 . S
O128 Co126 2.091 . S
O128 C134 1.261 . S
C129 O138 1.247 . S
C129 O139 1.272 . S
O130 Co126 2.004 . S
O130 C135 1.259 . S
Co131 O132 2.061 . S
Co131 O137 2.052 . S
Co131 O139 2.135 . S
O132 Co131 2.061 . S
O132 C135 1.235 . S
C133 O136 1.238 . S
C133 O137 1.241 . S
C134 O127 1.247 . S
C134 O128 1.261 . S
C135 O130 1.259 . S
C135 O132 1.235 . S
O136 Co126 2.021 . S
O136 C133 1.238 . S
O137 Co131 2.052 . S
O137 C133 1.241 . S
O138 Co126 2.137 . S
O138 C129 1.247 . S
O139 Co126 2.244 . S
O139 C129 1.272 . S
O139 Co131 2.135 . S
Co140 O141 2.216 . S
Co140 O142 2.091 . S
Co140 O144 2.004 . S
Co140 O150 2.021 . S
Co140 O152 2.137 . S
Co140 O153 2.244 . S
O141 Co140 2.216 . S
O141 C148 1.247 . S
O142 Co140 2.091 . S
O142 C148 1.261 . S
C143 O152 1.247 . S
C143 O153 1.272 . S
O144 Co140 2.004 . S
O144 C149 1.259 . S
Co145 O146 2.061 . S
Co145 O151 2.052 . S
Co145 O153 2.135 . S
O146 Co145 2.061 . S
O146 C149 1.235 . S
C147 O150 1.238 . S
C147 O151 1.241 . S
C148 O141 1.247 . S
C148 O142 1.261 . S
C149 O144 1.259 . S
C149 O146 1.235 . S
O150 Co140 2.021 . S
O150 C147 1.238 . S
O151 Co145 2.052 . S
O151 C147 1.241 . S
O152 Co140 2.137 . S
O152 C143 1.247 . S
O153 Co140 2.244 . S
O153 C143 1.272 . S
O153 Co145 2.135 . S
Co154 O155 2.216 . S
Co154 O156 2.091 . S
Co154 O158 2.004 . S
Co154 O164 2.021 . S
Co154 O166 2.137 . S
Co154 O167 2.244 . S
O155 Co154 2.216 . S
O155 C162 1.247 . S
O156 Co154 2.091 . S
O156 C162 1.261 . S
C157 O166 1.247 . S
C157 O167 1.272 . S
O158 Co154 2.004 . S
O158 C163 1.259 . S
Co159 O160 2.061 . S
Co159 O165 2.052 . S
Co159 O167 2.135 . S
O160 Co159 2.061 . S
O160 C163 1.235 . S
C161 O164 1.238 . S
C161 O165 1.241 . S
C162 O155 1.247 . S
C162 O156 1.261 . S
C163 O158 1.259 . S
C163 O160 1.235 . S
O164 Co154 2.021 . S
O164 C161 1.238 . S
O165 Co159 2.052 . S
O165 C161 1.241 . S
O166 Co154 2.137 . S
O166 C157 1.247 . S
O167 Co154 2.244 . S
O167 C157 1.272 . S
O167 Co159 2.135 . S
C168 C169 1.387 . S
C168 H172 0.950 . S
C168 C177 1.390 . S
C169 C168 1.387 . S
C169 C171 1.387 . S
H170 C177 0.950 . S
C171 C169 1.387 . S
C171 C173 1.390 . S
C171 H175 0.950 . S
H172 C168 0.950 . S
C173 C171 1.390 . S
C173 C174 1.387 . S
C173 H176 0.950 . S
C174 C173 1.387 . S
C174 C177 1.387 . S
H175 C171 0.950 . S
H176 C173 0.950 . S
C177 C168 1.390 . S
C177 H170 0.950 . S
C177 C174 1.387 . S
C178 C179 1.387 . S
C178 H182 0.950 . S
C178 C187 1.390 . S
C179 C178 1.387 . S
C179 C181 1.387 . S
H180 C187 0.950 . S
C181 C179 1.387 . S
C181 C183 1.390 . S
C181 H185 0.950 . S
H182 C178 0.950 . S
C183 C181 1.390 . S
C183 C184 1.387 . S
C183 H186 0.950 . S
C184 C183 1.387 . S
C184 C187 1.387 . S
H185 C181 0.950 . S
H186 C183 0.950 . S
C187 C178 1.390 . S
C187 H180 0.950 . S
C187 C184 1.387 . S
C188 C189 1.387 . S
C188 H192 0.950 . S
C188 C197 1.390 . S
C189 C188 1.387 . S
C189 C191 1.387 . S
H190 C197 0.950 . S
C191 C189 1.387 . S
C191 C193 1.390 . S
C191 H195 0.950 . S
H192 C188 0.950 . S
C193 C191 1.390 . S
C193 C194 1.387 . S
C193 H196 0.950 . S
C194 C193 1.387 . S
C194 C197 1.387 . S
H195 C191 0.950 . S
H196 C193 0.950 . S
C197 C188 1.390 . S
C197 H190 0.950 . S
C197 C194 1.387 . S
C198 C199 1.387 . S
C198 H202 0.950 . S
C198 C207 1.390 . S
C199 C198 1.387 . S
C199 C201 1.387 . S
H200 C207 0.950 . S
C201 C199 1.387 . S
C201 C203 1.390 . S
C201 H205 0.950 . S
H202 C198 0.950 . S
C203 C201 1.390 . S
C203 C204 1.387 . S
C203 H206 0.950 . S
C204 C203 1.387 . S
C204 C207 1.387 . S
H205 C201 0.950 . S
H206 C203 0.950 . S
C207 C198 1.390 . S
C207 H200 0.950 . S
C207 C204 1.387 . S
C208 C209 1.387 . S
C208 H212 0.950 . S
C208 C217 1.390 . S
C209 C208 1.387 . S
C209 C211 1.387 . S
H210 C217 0.950 . S
C211 C209 1.387 . S
C211 C213 1.390 . S
C211 H215 0.950 . S
H212 C208 0.950 . S
C213 C211 1.390 . S
C213 C214 1.387 . S
C213 H216 0.950 . S
C214 C213 1.387 . S
C214 C217 1.387 . S
H215 C211 0.950 . S
H216 C213 0.950 . S
C217 C208 1.390 . S
C217 H210 0.950 . S
C217 C214 1.387 . S
C218 C219 1.387 . S
C218 H222 0.950 . S
C218 C227 1.390 . S
C219 C218 1.387 . S
C219 C221 1.387 . S
H220 C227 0.950 . S
C221 C219 1.387 . S
C221 C223 1.390 . S
C221 H225 0.950 . S
H222 C218 0.950 . S
C223 C221 1.390 . S
C223 C224 1.387 . S
C223 H226 0.950 . S
C224 C223 1.387 . S
C224 C227 1.387 . S
H225 C221 0.950 . S
H226 C223 0.950 . S
C227 C218 1.390 . S
C227 H220 0.950 . S
C227 C224 1.387 . S
C228 C229 1.387 . S
C228 H232 0.950 . S
C228 C237 1.390 . S
C229 C228 1.387 . S
C229 C231 1.387 . S
H230 C237 0.950 . S
C231 C229 1.387 . S
C231 C233 1.390 . S
C231 H235 0.950 . S
H232 C228 0.950 . S
C233 C231 1.390 . S
C233 C234 1.387 . S
C233 H236 0.950 . S
C234 C233 1.387 . S
C234 C237 1.387 . S
H235 C231 0.950 . S
H236 C233 0.950 . S
C237 C228 1.390 . S
C237 H230 0.950 . S
C237 C234 1.387 . S
C238 C239 1.388 . S
C238 H242 0.950 . S
C238 C247 1.390 1_655 S
C239 C238 1.388 . S
C239 C241 1.387 . S
H240 C247 0.950 . S
C241 C239 1.387 . S
C241 C243 1.390 1_655 S
C241 H245 0.950 . S
H242 C238 0.950 . S
C243 C241 1.390 1_455 S
C243 C244 1.388 . S
C243 H246 0.950 . S
C244 C243 1.388 . S
C244 C247 1.387 . S
H245 C241 0.950 . S
H246 C243 0.950 . S
C247 C238 1.390 1_455 S
C247 H240 0.950 . S
C247 C244 1.387 . S
C248 C249 1.387 . S
C248 H252 0.950 . S
C248 C257 1.390 1_545 S
C249 C248 1.387 . S
C249 C251 1.387 . S
H250 C257 0.950 . S
C251 C249 1.387 . S
C251 C253 1.390 1_545 S
C251 H255 0.950 . S
H252 C248 0.950 . S
C253 C251 1.390 1_565 S
C253 C254 1.387 . S
C253 H256 0.950 . S
C254 C253 1.387 . S
C254 C257 1.387 . S
H255 C251 0.950 . S
H256 C253 0.950 . S
C257 C248 1.390 1_565 S
C257 H250 0.950 . S
C257 C254 1.387 . S
C258 C259 1.387 . S
C258 H262 0.950 . S
C258 C267 1.390 . S
C259 C258 1.387 . S
C259 C261 1.387 . S
H260 C267 0.950 . S
C261 C259 1.387 . S
C261 C263 1.390 . S
C261 H265 0.950 . S
H262 C258 0.950 . S
C263 C261 1.390 . S
C263 C264 1.387 . S
C263 H266 0.950 . S
C264 C263 1.387 . S
C264 C267 1.387 . S
H265 C261 0.950 . S
H266 C263 0.950 . S
C267 C258 1.390 . S
C267 H260 0.950 . S
C267 C264 1.387 . S
C268 C269 1.387 . S
C268 H272 0.950 . S
C268 C277 1.390 1_655 S
C269 C268 1.387 . S
C269 C271 1.387 . S
H270 C277 0.950 . S
C271 C269 1.387 . S
C271 C273 1.390 1_655 S
C271 H275 0.950 . S
H272 C268 0.950 . S
C273 C271 1.390 1_455 S
C273 C274 1.387 . S
C273 H276 0.950 . S
C274 C273 1.387 . S
C274 C277 1.387 . S
H275 C271 0.950 . S
H276 C273 0.950 . S
C277 C268 1.390 1_455 S
C277 H270 0.950 . S
C277 C274 1.387 . S
C278 C279 1.387 . S
C278 H282 0.950 . S
C278 C287 1.390 1_564 S
C279 C278 1.387 . S
C279 C281 1.387 . S
H280 C287 0.950 . S
C281 C279 1.387 . S
C281 C283 1.390 1_564 S
C281 H285 0.950 . S
H282 C278 0.950 . S
C283 C281 1.390 1_546 S
C283 C284 1.387 . S
C283 H286 0.950 . S
C284 C283 1.387 . S
C284 C287 1.387 . S
H285 C281 0.950 . S
H286 C283 0.950 . S
C287 C278 1.390 1_546 S
C287 H280 0.950 . S
C287 C284 1.387 . S
C288 C289 1.387 . S
C288 H292 0.950 . S
C288 C297 1.390 1_554 S
C289 C288 1.387 . S
C289 C291 1.387 . S
H290 C297 0.950 . S
C291 C289 1.387 . S
C291 C293 1.360 1_554 S
C291 H295 0.950 . S
H292 C288 0.950 . S
C293 C291 1.360 1_556 S
C293 C294 1.405 . S
C293 H296 0.964 . S
C294 C293 1.405 . S
C294 C297 1.387 . S
H295 C291 0.950 . S
H296 C293 0.964 . S
C297 C288 1.390 1_556 S
C297 H290 0.950 . S
C297 C294 1.387 . S
C298 C299 1.387 . S
C298 H302 0.950 . S
C298 C307 1.390 . S
C299 C298 1.387 . S
C299 C301 1.387 . S
H300 C307 0.950 . S
C301 C299 1.387 . S
C301 C303 1.390 . S
C301 H305 0.950 . S
H302 C298 0.950 . S
C303 C301 1.390 . S
C303 C304 1.387 . S
C303 H306 0.950 . S
C304 C303 1.387 . S
C304 C307 1.387 . S
H305 C301 0.950 . S
H306 C303 0.950 . S
C307 C298 1.390 . S
C307 H300 0.950 . S
C307 C304 1.387 . S
C308 C309 1.387 . S
C308 H312 0.950 . S
C308 C317 1.390 . S
C309 C308 1.387 . S
C309 C311 1.387 . S
H310 C317 0.950 . S
C311 C309 1.387 . S
C311 C313 1.390 . S
C311 H315 0.950 1_565 S
H312 C308 0.950 . S
C313 C311 1.390 . S
C313 C314 1.387 . S
C313 H316 0.950 . S
C314 C313 1.387 . S
C314 C317 1.387 . S
H315 C311 0.950 1_545 S
H316 C313 0.950 . S
C317 C308 1.390 . S
C317 H310 0.950 . S
C317 C314 1.387 . S
C318 C319 1.387 . S
C318 H322 0.950 . S
C318 C327 1.390 . S
C319 C318 1.387 . S
C319 C321 1.387 . S
H320 C327 0.950 . S
C321 C319 1.387 . S
C321 C323 1.390 . S
C321 H325 0.950 . S
H322 C318 0.950 . S
C323 C321 1.390 . S
C323 C324 1.387 . S
C323 H326 0.950 . S
C324 C323 1.387 . S
C324 C327 1.387 . S
H325 C321 0.950 . S
H326 C323 0.950 . S
C327 C318 1.390 . S
C327 H320 0.950 . S
C327 C324 1.387 . S
C328 C329 1.387 . S
C328 H332 0.950 . S
C328 C337 1.390 . S
C329 C328 1.387 . S
C329 C331 1.387 . S
H330 C337 0.950 . S
C331 C329 1.387 . S
C331 C333 1.390 . S
C331 H335 0.950 . S
H332 C328 0.950 . S
C333 C331 1.390 . S
C333 C334 1.387 . S
C333 H336 0.950 . S
C334 C333 1.387 . S
C334 C337 1.387 . S
H335 C331 0.950 . S
H336 C333 0.950 . S
C337 C328 1.390 . S
C337 H330 0.950 . S
C337 C334 1.387 . S
C338 C339 1.387 . S
C338 H342 0.950 . S
C338 C347 1.390 . S
C339 C338 1.387 . S
C339 C341 1.387 . S
H340 C347 0.950 . S
C341 C339 1.387 . S
C341 C343 1.390 . S
C341 H345 0.950 . S
H342 C338 0.950 . S
C343 C341 1.390 . S
C343 C344 1.387 . S
C343 H346 0.950 1_545 S
C344 C343 1.387 . S
C344 C347 1.387 . S
H345 C341 0.950 . S
H346 C343 0.950 1_565 S
C347 C338 1.390 . S
C347 H340 0.950 . S
C347 C344 1.387 . S
C348 C349 1.387 . S
C348 H352 0.950 . S
C348 C357 1.390 . S
C349 C348 1.387 . S
C349 C351 1.387 . S
H350 C357 0.950 . S
C351 C349 1.387 . S
C351 C353 1.390 . S
C351 H355 0.950 . S
H352 C348 0.950 . S
C353 C351 1.390 . S
C353 C354 1.387 . S
C353 H356 0.950 . S
C354 C353 1.387 . S
C354 C357 1.387 . S
H355 C351 0.950 . S
H356 C353 0.950 . S
C357 C348 1.390 . S
C357 H350 0.950 . S
C357 C354 1.387 . S
C358 C359 1.387 . S
C358 H362 0.950 . S
C358 C367 1.390 . S
C359 C358 1.387 . S
C359 C361 1.387 . S
H360 C367 0.950 1_454 S
C361 C359 1.387 . S
C361 C363 1.390 1_556 S
C361 H365 0.950 . S
H362 C358 0.950 . S
C363 C361 1.390 1_554 S
C363 C364 1.387 . S
C363 H366 0.950 . S
C364 C363 1.387 . S
C364 C367 1.387 1_554 S
H365 C361 0.950 . S
H366 C363 0.950 . S
C367 C358 1.390 . S
C367 H360 0.950 1_656 S
C367 C364 1.387 1_556 S
C368 C369 1.387 . S
C368 H372 0.950 . S
C368 C377 1.390 . S
C369 C368 1.387 . S
C369 C371 1.387 . S
H370 C377 0.950 . S
C371 C369 1.387 . S
C371 C373 1.390 . S
C371 H375 0.950 . S
H372 C368 0.950 . S
C373 C371 1.390 . S
C373 C374 1.387 . S
C373 H376 0.950 . S
C374 C373 1.387 . S
C374 C377 1.387 . S
H375 C371 0.950 . S
H376 C373 0.950 . S
C377 C368 1.390 . S
C377 H370 0.950 . S
C377 C374 1.387 . S
C378 C379 1.387 . S
C378 H382 0.950 . S
C378 C387 1.390 . S
C379 C378 1.387 . S
C379 C381 1.387 . S
H380 C387 0.950 . S
C381 C379 1.387 . S
C381 C383 1.390 . S
C381 H385 0.950 . S
H382 C378 0.950 . S
C383 C381 1.390 . S
C383 C384 1.387 . S
C383 H386 0.950 . S
C384 C383 1.387 . S
C384 C387 1.387 . S
H385 C381 0.950 . S
H386 C383 0.950 . S
C387 C378 1.390 . S
C387 H380 0.950 . S
C387 C384 1.387 . S
C388 C389 1.387 . S
C388 H392 0.950 . S
C388 C397 1.390 . S
C389 C388 1.387 . S
C389 C391 1.387 . S
H390 C397 0.950 . S
C391 C389 1.387 . S
C391 C393 1.390 . S
C391 H395 0.950 . S
H392 C388 0.950 . S
C393 C391 1.390 . S
C393 C394 1.387 . S
C393 H396 0.950 1_455 S
C394 C393 1.387 . S
C394 C397 1.387 . S
H395 C391 0.950 . S
H396 C393 0.950 1_655 S
C397 C388 1.390 . S
C397 H390 0.950 . S
C397 C394 1.387 . S
C398 C399 1.387 . S
C398 H402 0.950 . S
C398 C407 1.390 . S
C399 C398 1.387 . S
C399 C401 1.387 . S
H400 C407 0.950 . S
C401 C399 1.387 . S
C401 C403 1.390 . S
C401 H405 0.950 . S
H402 C398 0.950 . S
C403 C401 1.390 . S
C403 C404 1.387 . S
C403 H406 0.950 . S
C404 C403 1.387 . S
C404 C407 1.387 . S
H405 C401 0.950 . S
H406 C403 0.950 . S
C407 C398 1.390 . S
C407 H400 0.950 . S
C407 C404 1.387 . S
C169 C120 1.359 . S
C174 C8 1.359 . S
C179 C22 1.358 . S
C184 C134 1.358 . S
C189 C36 1.359 . S
C194 C148 1.359 . S
C199 C50 1.359 . S
C204 C162 1.359 . S
C209 C92 1.358 . S
C214 C64 1.358 . S
C219 C78 1.359 . S
C224 C106 1.359 . S
C229 C135 1.112 . S
C234 C9 1.109 . S
C239 C23 1.108 . S
C244 C149 1.111 . S
C249 C163 1.109 . S
C254 C37 1.109 . S
C259 C51 1.111 . S
C264 C93 1.108 . S
C269 C107 1.110 . S
C274 C65 1.109 . S
C279 C121 1.111 . S
C284 C79 1.111 . S
C289 C3 1.493 . S
C294 C77 1.443 . S
C299 C17 1.493 . S
C304 C7 1.443 1_655 S
C309 C21 1.445 1_565 S
C314 C31 1.494 . S
C319 C45 1.494 . S
C324 C35 1.444 . S
C329 C59 1.492 . S
C334 C49 1.442 1_455 S
C339 C73 1.493 . S
C344 C63 1.445 1_545 S
C349 C87 1.493 . S
C354 C105 1.442 . S
C359 C101 1.491 . S
C364 C119 1.443 1_655 S
C369 C115 1.493 . S
C374 C133 1.445 1_565 S
C379 C129 1.493 . S
C384 C147 1.445 . S
C389 C143 1.493 . S
C394 C161 1.443 1_455 S
C399 C91 1.442 1_545 S
C404 C157 1.492 . S
