# Generated by pormake.
# Topology gie, (4)-cn, num edge types: 1
# Building blocks:
#     Node 0, Type 0, BuildingBlock: QUQFOY_clean_sbu_3, # of connection points: 4
#     Node 1, Type 0, BuildingBlock: QUQFOY_clean_sbu_3, # of connection points: 4
#     Node 2, Type 0, BuildingBlock: QUQFOY_clean_sbu_3, # of connection points: 4
#     Node 3, Type 0, BuildingBlock: QUQFOY_clean_sbu_3, # of connection points: 4
#     Node 4, Type 0, BuildingBlock: QUQFOY_clean_sbu_3, # of connection points: 4
#     Node 5, Type 0, BuildingBlock: QUQFOY_clean_sbu_3, # of connection points: 4
#     Node 6, Type 0, BuildingBlock: QUQFOY_clean_sbu_3, # of connection points: 4
#     Node 7, Type 0, BuildingBlock: QUQFOY_clean_sbu_3, # of connection points: 4
#     Node 8, Type 0, BuildingBlock: QUQFOY_clean_sbu_3, # of connection points: 4
#     Node 9, Type 0, BuildingBlock: QUQFOY_clean_sbu_3, # of connection points: 4
#     Node 10, Type 0, BuildingBlock: QUQFOY_clean_sbu_3, # of connection points: 4
#     Node 11, Type 0, BuildingBlock: QUQFOY_clean_sbu_3, # of connection points: 4
#     Node 12, Type 0, BuildingBlock: QUQFOY_clean_sbu_3, # of connection points: 4
#     Node 13, Type 0, BuildingBlock: QUQFOY_clean_sbu_3, # of connection points: 4
#     Node 14, Type 0, BuildingBlock: QUQFOY_clean_sbu_3, # of connection points: 4
#     Node 15, Type 0, BuildingBlock: QUQFOY_clean_sbu_3, # of connection points: 4
#     Node 16, Type 0, BuildingBlock: QUQFOY_clean_sbu_3, # of connection points: 4
#     Node 17, Type 0, BuildingBlock: QUQFOY_clean_sbu_3, # of connection points: 4
#     Node 18, Type 0, BuildingBlock: QUQFOY_clean_sbu_3, # of connection points: 4
#     Node 19, Type 0, BuildingBlock: QUQFOY_clean_sbu_3, # of connection points: 4
#     Node 20, Type 0, BuildingBlock: QUQFOY_clean_sbu_3, # of connection points: 4
#     Node 21, Type 0, BuildingBlock: QUQFOY_clean_sbu_3, # of connection points: 4
#     Node 22, Type 0, BuildingBlock: QUQFOY_clean_sbu_3, # of connection points: 4
#     Node 23, Type 0, BuildingBlock: QUQFOY_clean_sbu_3, # of connection points: 4
#     Node 24, Type 0, BuildingBlock: QUQFOY_clean_sbu_3, # of connection points: 4
#     Node 25, Type 0, BuildingBlock: QUQFOY_clean_sbu_3, # of connection points: 4
#     Node 26, Type 0, BuildingBlock: QUQFOY_clean_sbu_3, # of connection points: 4
#     Node 27, Type 0, BuildingBlock: QUQFOY_clean_sbu_3, # of connection points: 4
#     Node 28, Type 0, BuildingBlock: QUQFOY_clean_sbu_3, # of connection points: 4
#     Node 29, Type 0, BuildingBlock: QUQFOY_clean_sbu_3, # of connection points: 4
#     Node 30, Type 0, BuildingBlock: QUQFOY_clean_sbu_3, # of connection points: 4
#     Node 31, Type 0, BuildingBlock: QUQFOY_clean_sbu_3, # of connection points: 4
#     Node 32, Type 0, BuildingBlock: QUQFOY_clean_sbu_3, # of connection points: 4
#     Node 33, Type 0, BuildingBlock: QUQFOY_clean_sbu_3, # of connection points: 4
#     Node 34, Type 0, BuildingBlock: QUQFOY_clean_sbu_3, # of connection points: 4
#     Node 35, Type 0, BuildingBlock: QUQFOY_clean_sbu_3, # of connection points: 4
#     Node 36, Type 0, BuildingBlock: QUQFOY_clean_sbu_3, # of connection points: 4
#     Node 37, Type 0, BuildingBlock: QUQFOY_clean_sbu_3, # of connection points: 4
#     Node 38, Type 0, BuildingBlock: QUQFOY_clean_sbu_3, # of connection points: 4
#     Node 39, Type 0, BuildingBlock: QUQFOY_clean_sbu_3, # of connection points: 4
#     Node 40, Type 0, BuildingBlock: QUQFOY_clean_sbu_3, # of connection points: 4
#     Node 41, Type 0, BuildingBlock: QUQFOY_clean_sbu_3, # of connection points: 4
#     Node 42, Type 0, BuildingBlock: QUQFOY_clean_sbu_3, # of connection points: 4
#     Node 43, Type 0, BuildingBlock: QUQFOY_clean_sbu_3, # of connection points: 4
#     Node 44, Type 0, BuildingBlock: QUQFOY_clean_sbu_3, # of connection points: 4
#     Node 45, Type 0, BuildingBlock: QUQFOY_clean_sbu_3, # of connection points: 4
#     Node 46, Type 0, BuildingBlock: QUQFOY_clean_sbu_3, # of connection points: 4
#     Node 47, Type 0, BuildingBlock: QUQFOY_clean_sbu_3, # of connection points: 4
#     Node 48, Type 0, BuildingBlock: QUQFOY_clean_sbu_3, # of connection points: 4
#     Node 49, Type 0, BuildingBlock: QUQFOY_clean_sbu_3, # of connection points: 4
#     Node 50, Type 0, BuildingBlock: QUQFOY_clean_sbu_3, # of connection points: 4
#     Node 51, Type 0, BuildingBlock: QUQFOY_clean_sbu_3, # of connection points: 4
#     Node 52, Type 0, BuildingBlock: QUQFOY_clean_sbu_3, # of connection points: 4
#     Node 53, Type 0, BuildingBlock: QUQFOY_clean_sbu_3, # of connection points: 4
#     Node 54, Type 0, BuildingBlock: QUQFOY_clean_sbu_3, # of connection points: 4
#     Node 55, Type 0, BuildingBlock: QUQFOY_clean_sbu_3, # of connection points: 4
#     Node 56, Type 0, BuildingBlock: QUQFOY_clean_sbu_3, # of connection points: 4
#     Node 57, Type 0, BuildingBlock: QUQFOY_clean_sbu_3, # of connection points: 4
#     Node 58, Type 0, BuildingBlock: QUQFOY_clean_sbu_3, # of connection points: 4
#     Node 59, Type 0, BuildingBlock: QUQFOY_clean_sbu_3, # of connection points: 4
#     Node 60, Type 0, BuildingBlock: QUQFOY_clean_sbu_3, # of connection points: 4
#     Node 61, Type 0, BuildingBlock: QUQFOY_clean_sbu_3, # of connection points: 4
#     Node 62, Type 0, BuildingBlock: QUQFOY_clean_sbu_3, # of connection points: 4
#     Node 63, Type 0, BuildingBlock: QUQFOY_clean_sbu_3, # of connection points: 4
#     Node 64, Type 0, BuildingBlock: QUQFOY_clean_sbu_3, # of connection points: 4
#     Node 65, Type 0, BuildingBlock: QUQFOY_clean_sbu_3, # of connection points: 4
#     Node 66, Type 0, BuildingBlock: QUQFOY_clean_sbu_3, # of connection points: 4
#     Node 67, Type 0, BuildingBlock: QUQFOY_clean_sbu_3, # of connection points: 4
#     Node 68, Type 0, BuildingBlock: QUQFOY_clean_sbu_3, # of connection points: 4
#     Node 69, Type 0, BuildingBlock: QUQFOY_clean_sbu_3, # of connection points: 4
#     Node 70, Type 0, BuildingBlock: QUQFOY_clean_sbu_3, # of connection points: 4
#     Node 71, Type 0, BuildingBlock: QUQFOY_clean_sbu_3, # of connection points: 4
#     Node 72, Type 0, BuildingBlock: QUQFOY_clean_sbu_3, # of connection points: 4
#     Node 73, Type 0, BuildingBlock: QUQFOY_clean_sbu_3, # of connection points: 4
#     Node 74, Type 0, BuildingBlock: QUQFOY_clean_sbu_3, # of connection points: 4
#     Node 75, Type 0, BuildingBlock: QUQFOY_clean_sbu_3, # of connection points: 4
#     Node 76, Type 0, BuildingBlock: QUQFOY_clean_sbu_3, # of connection points: 4
#     Node 77, Type 0, BuildingBlock: QUQFOY_clean_sbu_3, # of connection points: 4
#     Node 78, Type 0, BuildingBlock: QUQFOY_clean_sbu_3, # of connection points: 4
#     Node 79, Type 0, BuildingBlock: QUQFOY_clean_sbu_3, # of connection points: 4
#     Node 80, Type 0, BuildingBlock: QUQFOY_clean_sbu_3, # of connection points: 4
#     Node 81, Type 0, BuildingBlock: QUQFOY_clean_sbu_3, # of connection points: 4
#     Node 82, Type 0, BuildingBlock: QUQFOY_clean_sbu_3, # of connection points: 4
#     Node 83, Type 0, BuildingBlock: QUQFOY_clean_sbu_3, # of connection points: 4
#     Node 84, Type 0, BuildingBlock: QUQFOY_clean_sbu_3, # of connection points: 4
#     Node 85, Type 0, BuildingBlock: QUQFOY_clean_sbu_3, # of connection points: 4
#     Node 86, Type 0, BuildingBlock: QUQFOY_clean_sbu_3, # of connection points: 4
#     Node 87, Type 0, BuildingBlock: QUQFOY_clean_sbu_3, # of connection points: 4
#     Node 88, Type 0, BuildingBlock: QUQFOY_clean_sbu_3, # of connection points: 4
#     Node 89, Type 0, BuildingBlock: QUQFOY_clean_sbu_3, # of connection points: 4
#     Node 90, Type 0, BuildingBlock: QUQFOY_clean_sbu_3, # of connection points: 4
#     Node 91, Type 0, BuildingBlock: QUQFOY_clean_sbu_3, # of connection points: 4
#     Node 92, Type 0, BuildingBlock: QUQFOY_clean_sbu_3, # of connection points: 4
#     Node 93, Type 0, BuildingBlock: QUQFOY_clean_sbu_3, # of connection points: 4
#     Node 94, Type 0, BuildingBlock: QUQFOY_clean_sbu_3, # of connection points: 4
#     Node 95, Type 0, BuildingBlock: QUQFOY_clean_sbu_3, # of connection points: 4
#     Edge 96, Type (0, 0), BuildingBlock: XIVTED_clean_linker_0, # of connection points: 2
#     Edge 97, Type (0, 0), BuildingBlock: XIVTED_clean_linker_0, # of connection points: 2
#     Edge 98, Type (0, 0), BuildingBlock: XIVTED_clean_linker_0, # of connection points: 2
#     Edge 99, Type (0, 0), BuildingBlock: XIVTED_clean_linker_0, # of connection points: 2
#     Edge 100, Type (0, 0), BuildingBlock: XIVTED_clean_linker_0, # of connection points: 2
#     Edge 101, Type (0, 0), BuildingBlock: XIVTED_clean_linker_0, # of connection points: 2
#     Edge 102, Type (0, 0), BuildingBlock: XIVTED_clean_linker_0, # of connection points: 2
#     Edge 103, Type (0, 0), BuildingBlock: XIVTED_clean_linker_0, # of connection points: 2
#     Edge 104, Type (0, 0), BuildingBlock: XIVTED_clean_linker_0, # of connection points: 2
#     Edge 105, Type (0, 0), BuildingBlock: XIVTED_clean_linker_0, # of connection points: 2
#     Edge 106, Type (0, 0), BuildingBlock: XIVTED_clean_linker_0, # of connection points: 2
#     Edge 107, Type (0, 0), BuildingBlock: XIVTED_clean_linker_0, # of connection points: 2
#     Edge 108, Type (0, 0), BuildingBlock: XIVTED_clean_linker_0, # of connection points: 2
#     Edge 109, Type (0, 0), BuildingBlock: XIVTED_clean_linker_0, # of connection points: 2
#     Edge 110, Type (0, 0), BuildingBlock: XIVTED_clean_linker_0, # of connection points: 2
#     Edge 111, Type (0, 0), BuildingBlock: XIVTED_clean_linker_0, # of connection points: 2
#     Edge 112, Type (0, 0), BuildingBlock: XIVTED_clean_linker_0, # of connection points: 2
#     Edge 113, Type (0, 0), BuildingBlock: XIVTED_clean_linker_0, # of connection points: 2
#     Edge 114, Type (0, 0), BuildingBlock: XIVTED_clean_linker_0, # of connection points: 2
#     Edge 115, Type (0, 0), BuildingBlock: XIVTED_clean_linker_0, # of connection points: 2
#     Edge 116, Type (0, 0), BuildingBlock: XIVTED_clean_linker_0, # of connection points: 2
#     Edge 117, Type (0, 0), BuildingBlock: XIVTED_clean_linker_0, # of connection points: 2
#     Edge 118, Type (0, 0), BuildingBlock: XIVTED_clean_linker_0, # of connection points: 2
#     Edge 119, Type (0, 0), BuildingBlock: XIVTED_clean_linker_0, # of connection points: 2
#     Edge 120, Type (0, 0), BuildingBlock: XIVTED_clean_linker_0, # of connection points: 2
#     Edge 121, Type (0, 0), BuildingBlock: XIVTED_clean_linker_0, # of connection points: 2
#     Edge 122, Type (0, 0), BuildingBlock: XIVTED_clean_linker_0, # of connection points: 2
#     Edge 123, Type (0, 0), BuildingBlock: XIVTED_clean_linker_0, # of connection points: 2
#     Edge 124, Type (0, 0), BuildingBlock: XIVTED_clean_linker_0, # of connection points: 2
#     Edge 125, Type (0, 0), BuildingBlock: XIVTED_clean_linker_0, # of connection points: 2
#     Edge 126, Type (0, 0), BuildingBlock: XIVTED_clean_linker_0, # of connection points: 2
#     Edge 127, Type (0, 0), BuildingBlock: XIVTED_clean_linker_0, # of connection points: 2
#     Edge 128, Type (0, 0), BuildingBlock: XIVTED_clean_linker_0, # of connection points: 2
#     Edge 129, Type (0, 0), BuildingBlock: XIVTED_clean_linker_0, # of connection points: 2
#     Edge 130, Type (0, 0), BuildingBlock: XIVTED_clean_linker_0, # of connection points: 2
#     Edge 131, Type (0, 0), BuildingBlock: XIVTED_clean_linker_0, # of connection points: 2
#     Edge 132, Type (0, 0), BuildingBlock: XIVTED_clean_linker_0, # of connection points: 2
#     Edge 133, Type (0, 0), BuildingBlock: XIVTED_clean_linker_0, # of connection points: 2
#     Edge 134, Type (0, 0), BuildingBlock: XIVTED_clean_linker_0, # of connection points: 2
#     Edge 135, Type (0, 0), BuildingBlock: XIVTED_clean_linker_0, # of connection points: 2
#     Edge 136, Type (0, 0), BuildingBlock: XIVTED_clean_linker_0, # of connection points: 2
#     Edge 137, Type (0, 0), BuildingBlock: XIVTED_clean_linker_0, # of connection points: 2
#     Edge 138, Type (0, 0), BuildingBlock: XIVTED_clean_linker_0, # of connection points: 2
#     Edge 139, Type (0, 0), BuildingBlock: XIVTED_clean_linker_0, # of connection points: 2
#     Edge 140, Type (0, 0), BuildingBlock: XIVTED_clean_linker_0, # of connection points: 2
#     Edge 141, Type (0, 0), BuildingBlock: XIVTED_clean_linker_0, # of connection points: 2
#     Edge 142, Type (0, 0), BuildingBlock: XIVTED_clean_linker_0, # of connection points: 2
#     Edge 143, Type (0, 0), BuildingBlock: XIVTED_clean_linker_0, # of connection points: 2
#     Edge 144, Type (0, 0), BuildingBlock: XIVTED_clean_linker_0, # of connection points: 2
#     Edge 145, Type (0, 0), BuildingBlock: XIVTED_clean_linker_0, # of connection points: 2
#     Edge 146, Type (0, 0), BuildingBlock: XIVTED_clean_linker_0, # of connection points: 2
#     Edge 147, Type (0, 0), BuildingBlock: XIVTED_clean_linker_0, # of connection points: 2
#     Edge 148, Type (0, 0), BuildingBlock: XIVTED_clean_linker_0, # of connection points: 2
#     Edge 149, Type (0, 0), BuildingBlock: XIVTED_clean_linker_0, # of connection points: 2
#     Edge 150, Type (0, 0), BuildingBlock: XIVTED_clean_linker_0, # of connection points: 2
#     Edge 151, Type (0, 0), BuildingBlock: XIVTED_clean_linker_0, # of connection points: 2
#     Edge 152, Type (0, 0), BuildingBlock: XIVTED_clean_linker_0, # of connection points: 2
#     Edge 153, Type (0, 0), BuildingBlock: XIVTED_clean_linker_0, # of connection points: 2
#     Edge 154, Type (0, 0), BuildingBlock: XIVTED_clean_linker_0, # of connection points: 2
#     Edge 155, Type (0, 0), BuildingBlock: XIVTED_clean_linker_0, # of connection points: 2
#     Edge 156, Type (0, 0), BuildingBlock: XIVTED_clean_linker_0, # of connection points: 2
#     Edge 157, Type (0, 0), BuildingBlock: XIVTED_clean_linker_0, # of connection points: 2
#     Edge 158, Type (0, 0), BuildingBlock: XIVTED_clean_linker_0, # of connection points: 2
#     Edge 159, Type (0, 0), BuildingBlock: XIVTED_clean_linker_0, # of connection points: 2
#     Edge 160, Type (0, 0), BuildingBlock: XIVTED_clean_linker_0, # of connection points: 2
#     Edge 161, Type (0, 0), BuildingBlock: XIVTED_clean_linker_0, # of connection points: 2
#     Edge 162, Type (0, 0), BuildingBlock: XIVTED_clean_linker_0, # of connection points: 2
#     Edge 163, Type (0, 0), BuildingBlock: XIVTED_clean_linker_0, # of connection points: 2
#     Edge 164, Type (0, 0), BuildingBlock: XIVTED_clean_linker_0, # of connection points: 2
#     Edge 165, Type (0, 0), BuildingBlock: XIVTED_clean_linker_0, # of connection points: 2
#     Edge 166, Type (0, 0), BuildingBlock: XIVTED_clean_linker_0, # of connection points: 2
#     Edge 167, Type (0, 0), BuildingBlock: XIVTED_clean_linker_0, # of connection points: 2
#     Edge 168, Type (0, 0), BuildingBlock: XIVTED_clean_linker_0, # of connection points: 2
#     Edge 169, Type (0, 0), BuildingBlock: XIVTED_clean_linker_0, # of connection points: 2
#     Edge 170, Type (0, 0), BuildingBlock: XIVTED_clean_linker_0, # of connection points: 2
#     Edge 171, Type (0, 0), BuildingBlock: XIVTED_clean_linker_0, # of connection points: 2
#     Edge 172, Type (0, 0), BuildingBlock: XIVTED_clean_linker_0, # of connection points: 2
#     Edge 173, Type (0, 0), BuildingBlock: XIVTED_clean_linker_0, # of connection points: 2
#     Edge 174, Type (0, 0), BuildingBlock: XIVTED_clean_linker_0, # of connection points: 2
#     Edge 175, Type (0, 0), BuildingBlock: XIVTED_clean_linker_0, # of connection points: 2
#     Edge 176, Type (0, 0), BuildingBlock: XIVTED_clean_linker_0, # of connection points: 2
#     Edge 177, Type (0, 0), BuildingBlock: XIVTED_clean_linker_0, # of connection points: 2
#     Edge 178, Type (0, 0), BuildingBlock: XIVTED_clean_linker_0, # of connection points: 2
#     Edge 179, Type (0, 0), BuildingBlock: XIVTED_clean_linker_0, # of connection points: 2
#     Edge 180, Type (0, 0), BuildingBlock: XIVTED_clean_linker_0, # of connection points: 2
#     Edge 181, Type (0, 0), BuildingBlock: XIVTED_clean_linker_0, # of connection points: 2
#     Edge 182, Type (0, 0), BuildingBlock: XIVTED_clean_linker_0, # of connection points: 2
#     Edge 183, Type (0, 0), BuildingBlock: XIVTED_clean_linker_0, # of connection points: 2
#     Edge 184, Type (0, 0), BuildingBlock: XIVTED_clean_linker_0, # of connection points: 2
#     Edge 185, Type (0, 0), BuildingBlock: XIVTED_clean_linker_0, # of connection points: 2
#     Edge 186, Type (0, 0), BuildingBlock: XIVTED_clean_linker_0, # of connection points: 2
#     Edge 187, Type (0, 0), BuildingBlock: XIVTED_clean_linker_0, # of connection points: 2
#     Edge 188, Type (0, 0), BuildingBlock: XIVTED_clean_linker_0, # of connection points: 2
#     Edge 189, Type (0, 0), BuildingBlock: XIVTED_clean_linker_0, # of connection points: 2
#     Edge 190, Type (0, 0), BuildingBlock: XIVTED_clean_linker_0, # of connection points: 2
#     Edge 191, Type (0, 0), BuildingBlock: XIVTED_clean_linker_0, # of connection points: 2
#     Edge 192, Type (0, 0), BuildingBlock: XIVTED_clean_linker_0, # of connection points: 2
#     Edge 193, Type (0, 0), BuildingBlock: XIVTED_clean_linker_0, # of connection points: 2
#     Edge 194, Type (0, 0), BuildingBlock: XIVTED_clean_linker_0, # of connection points: 2
#     Edge 195, Type (0, 0), BuildingBlock: XIVTED_clean_linker_0, # of connection points: 2
#     Edge 196, Type (0, 0), BuildingBlock: XIVTED_clean_linker_0, # of connection points: 2
#     Edge 197, Type (0, 0), BuildingBlock: XIVTED_clean_linker_0, # of connection points: 2
#     Edge 198, Type (0, 0), BuildingBlock: XIVTED_clean_linker_0, # of connection points: 2
#     Edge 199, Type (0, 0), BuildingBlock: XIVTED_clean_linker_0, # of connection points: 2
#     Edge 200, Type (0, 0), BuildingBlock: XIVTED_clean_linker_0, # of connection points: 2
#     Edge 201, Type (0, 0), BuildingBlock: XIVTED_clean_linker_0, # of connection points: 2
#     Edge 202, Type (0, 0), BuildingBlock: XIVTED_clean_linker_0, # of connection points: 2
#     Edge 203, Type (0, 0), BuildingBlock: XIVTED_clean_linker_0, # of connection points: 2
#     Edge 204, Type (0, 0), BuildingBlock: XIVTED_clean_linker_0, # of connection points: 2
#     Edge 205, Type (0, 0), BuildingBlock: XIVTED_clean_linker_0, # of connection points: 2
#     Edge 206, Type (0, 0), BuildingBlock: XIVTED_clean_linker_0, # of connection points: 2
#     Edge 207, Type (0, 0), BuildingBlock: XIVTED_clean_linker_0, # of connection points: 2
#     Edge 208, Type (0, 0), BuildingBlock: XIVTED_clean_linker_0, # of connection points: 2
#     Edge 209, Type (0, 0), BuildingBlock: XIVTED_clean_linker_0, # of connection points: 2
#     Edge 210, Type (0, 0), BuildingBlock: XIVTED_clean_linker_0, # of connection points: 2
#     Edge 211, Type (0, 0), BuildingBlock: XIVTED_clean_linker_0, # of connection points: 2
#     Edge 212, Type (0, 0), BuildingBlock: XIVTED_clean_linker_0, # of connection points: 2
#     Edge 213, Type (0, 0), BuildingBlock: XIVTED_clean_linker_0, # of connection points: 2
#     Edge 214, Type (0, 0), BuildingBlock: XIVTED_clean_linker_0, # of connection points: 2
#     Edge 215, Type (0, 0), BuildingBlock: XIVTED_clean_linker_0, # of connection points: 2
#     Edge 216, Type (0, 0), BuildingBlock: XIVTED_clean_linker_0, # of connection points: 2
#     Edge 217, Type (0, 0), BuildingBlock: XIVTED_clean_linker_0, # of connection points: 2
#     Edge 218, Type (0, 0), BuildingBlock: XIVTED_clean_linker_0, # of connection points: 2
#     Edge 219, Type (0, 0), BuildingBlock: XIVTED_clean_linker_0, # of connection points: 2
#     Edge 220, Type (0, 0), BuildingBlock: XIVTED_clean_linker_0, # of connection points: 2
#     Edge 221, Type (0, 0), BuildingBlock: XIVTED_clean_linker_0, # of connection points: 2
#     Edge 222, Type (0, 0), BuildingBlock: XIVTED_clean_linker_0, # of connection points: 2
#     Edge 223, Type (0, 0), BuildingBlock: XIVTED_clean_linker_0, # of connection points: 2
#     Edge 224, Type (0, 0), BuildingBlock: XIVTED_clean_linker_0, # of connection points: 2
#     Edge 225, Type (0, 0), BuildingBlock: XIVTED_clean_linker_0, # of connection points: 2
#     Edge 226, Type (0, 0), BuildingBlock: XIVTED_clean_linker_0, # of connection points: 2
#     Edge 227, Type (0, 0), BuildingBlock: XIVTED_clean_linker_0, # of connection points: 2
#     Edge 228, Type (0, 0), BuildingBlock: XIVTED_clean_linker_0, # of connection points: 2
#     Edge 229, Type (0, 0), BuildingBlock: XIVTED_clean_linker_0, # of connection points: 2
#     Edge 230, Type (0, 0), BuildingBlock: XIVTED_clean_linker_0, # of connection points: 2
#     Edge 231, Type (0, 0), BuildingBlock: XIVTED_clean_linker_0, # of connection points: 2
#     Edge 232, Type (0, 0), BuildingBlock: XIVTED_clean_linker_0, # of connection points: 2
#     Edge 233, Type (0, 0), BuildingBlock: XIVTED_clean_linker_0, # of connection points: 2
#     Edge 234, Type (0, 0), BuildingBlock: XIVTED_clean_linker_0, # of connection points: 2
#     Edge 235, Type (0, 0), BuildingBlock: XIVTED_clean_linker_0, # of connection points: 2
#     Edge 236, Type (0, 0), BuildingBlock: XIVTED_clean_linker_0, # of connection points: 2
#     Edge 237, Type (0, 0), BuildingBlock: XIVTED_clean_linker_0, # of connection points: 2
#     Edge 238, Type (0, 0), BuildingBlock: XIVTED_clean_linker_0, # of connection points: 2
#     Edge 239, Type (0, 0), BuildingBlock: XIVTED_clean_linker_0, # of connection points: 2
#     Edge 240, Type (0, 0), BuildingBlock: XIVTED_clean_linker_0, # of connection points: 2
#     Edge 241, Type (0, 0), BuildingBlock: XIVTED_clean_linker_0, # of connection points: 2
#     Edge 242, Type (0, 0), BuildingBlock: XIVTED_clean_linker_0, # of connection points: 2
#     Edge 243, Type (0, 0), BuildingBlock: XIVTED_clean_linker_0, # of connection points: 2
#     Edge 244, Type (0, 0), BuildingBlock: XIVTED_clean_linker_0, # of connection points: 2
#     Edge 245, Type (0, 0), BuildingBlock: XIVTED_clean_linker_0, # of connection points: 2
#     Edge 246, Type (0, 0), BuildingBlock: XIVTED_clean_linker_0, # of connection points: 2
#     Edge 247, Type (0, 0), BuildingBlock: XIVTED_clean_linker_0, # of connection points: 2
#     Edge 248, Type (0, 0), BuildingBlock: XIVTED_clean_linker_0, # of connection points: 2
#     Edge 249, Type (0, 0), BuildingBlock: XIVTED_clean_linker_0, # of connection points: 2
#     Edge 250, Type (0, 0), BuildingBlock: XIVTED_clean_linker_0, # of connection points: 2
#     Edge 251, Type (0, 0), BuildingBlock: XIVTED_clean_linker_0, # of connection points: 2
#     Edge 252, Type (0, 0), BuildingBlock: XIVTED_clean_linker_0, # of connection points: 2
#     Edge 253, Type (0, 0), BuildingBlock: XIVTED_clean_linker_0, # of connection points: 2
#     Edge 254, Type (0, 0), BuildingBlock: XIVTED_clean_linker_0, # of connection points: 2
#     Edge 255, Type (0, 0), BuildingBlock: XIVTED_clean_linker_0, # of connection points: 2
#     Edge 256, Type (0, 0), BuildingBlock: XIVTED_clean_linker_0, # of connection points: 2
#     Edge 257, Type (0, 0), BuildingBlock: XIVTED_clean_linker_0, # of connection points: 2
#     Edge 258, Type (0, 0), BuildingBlock: XIVTED_clean_linker_0, # of connection points: 2
#     Edge 259, Type (0, 0), BuildingBlock: XIVTED_clean_linker_0, # of connection points: 2
#     Edge 260, Type (0, 0), BuildingBlock: XIVTED_clean_linker_0, # of connection points: 2
#     Edge 261, Type (0, 0), BuildingBlock: XIVTED_clean_linker_0, # of connection points: 2
#     Edge 262, Type (0, 0), BuildingBlock: XIVTED_clean_linker_0, # of connection points: 2
#     Edge 263, Type (0, 0), BuildingBlock: XIVTED_clean_linker_0, # of connection points: 2
#     Edge 264, Type (0, 0), BuildingBlock: XIVTED_clean_linker_0, # of connection points: 2
#     Edge 265, Type (0, 0), BuildingBlock: XIVTED_clean_linker_0, # of connection points: 2
#     Edge 266, Type (0, 0), BuildingBlock: XIVTED_clean_linker_0, # of connection points: 2
#     Edge 267, Type (0, 0), BuildingBlock: XIVTED_clean_linker_0, # of connection points: 2
#     Edge 268, Type (0, 0), BuildingBlock: XIVTED_clean_linker_0, # of connection points: 2
#     Edge 269, Type (0, 0), BuildingBlock: XIVTED_clean_linker_0, # of connection points: 2
#     Edge 270, Type (0, 0), BuildingBlock: XIVTED_clean_linker_0, # of connection points: 2
#     Edge 271, Type (0, 0), BuildingBlock: XIVTED_clean_linker_0, # of connection points: 2
#     Edge 272, Type (0, 0), BuildingBlock: XIVTED_clean_linker_0, # of connection points: 2
#     Edge 273, Type (0, 0), BuildingBlock: XIVTED_clean_linker_0, # of connection points: 2
#     Edge 274, Type (0, 0), BuildingBlock: XIVTED_clean_linker_0, # of connection points: 2
#     Edge 275, Type (0, 0), BuildingBlock: XIVTED_clean_linker_0, # of connection points: 2
#     Edge 276, Type (0, 0), BuildingBlock: XIVTED_clean_linker_0, # of connection points: 2
#     Edge 277, Type (0, 0), BuildingBlock: XIVTED_clean_linker_0, # of connection points: 2
#     Edge 278, Type (0, 0), BuildingBlock: XIVTED_clean_linker_0, # of connection points: 2
#     Edge 279, Type (0, 0), BuildingBlock: XIVTED_clean_linker_0, # of connection points: 2
#     Edge 280, Type (0, 0), BuildingBlock: XIVTED_clean_linker_0, # of connection points: 2
#     Edge 281, Type (0, 0), BuildingBlock: XIVTED_clean_linker_0, # of connection points: 2
#     Edge 282, Type (0, 0), BuildingBlock: XIVTED_clean_linker_0, # of connection points: 2
#     Edge 283, Type (0, 0), BuildingBlock: XIVTED_clean_linker_0, # of connection points: 2
#     Edge 284, Type (0, 0), BuildingBlock: XIVTED_clean_linker_0, # of connection points: 2
#     Edge 285, Type (0, 0), BuildingBlock: XIVTED_clean_linker_0, # of connection points: 2
#     Edge 286, Type (0, 0), BuildingBlock: XIVTED_clean_linker_0, # of connection points: 2
#     Edge 287, Type (0, 0), BuildingBlock: XIVTED_clean_linker_0, # of connection points: 2
# Relax obj value: 0.124
# Max RMSD: 0.223
# Mean RMSD: 0.213
data_MOF--net-gie--node1-QUQFOY_clean_sbu_3--edge1-XIVTED_clean_linker_0
_symmetry_space_group_name_H-M    P1
_symmetry_Int_Tables_number       1
_symmetry_cell_setting            triclinic
loop_
_symmetry_equiv_pos_as_xyz
'x, y, z'
_cell_length_a     85.571739
_cell_length_b     87.020245
_cell_length_c     86.97949
_cell_angle_alpha  90.00362
_cell_angle_beta   89.997542
_cell_angle_gamma 89.96815
loop_
_atom_site_label
_atom_site_type_symbol
_atom_site_fract_x
_atom_site_fract_y
_atom_site_fract_z
_atom_type_partial_charge
C0 C 0.00362 0.1377 0.44583 0.0
O1 O 0.00186 0.1522 0.44635 0.0
Cd2 Cd 0.98579 0.16644 0.42782 0.0
O3 O -0.00278 0.12999 0.43516 0.0
Cd4 Cd 0.98246 0.13531 0.41202 0.0
C5 C 0.0084 0.16057 0.39705 0.0
O6 O 0.96165 0.15337 0.42137 0.0
O7 O 0.96314 0.14794 0.39715 0.0
O8 O 0.97312 0.10863 0.41307 0.0
C9 C 0.95591 0.1546 0.40792 0.0
O10 O 0.0017 0.17103 0.40486 0.0
C11 C 0.9766 0.10602 0.39909 0.0
O12 O 0.00493 0.14651 0.39894 0.0
O13 O 0.98275 0.11691 0.39153 0.0
C14 C 0.13096 0.728 0.63348 0.0
O15 O 0.1215 0.72859 0.62223 0.0
Cd16 Cd 0.09562 0.73778 0.624 0.0
O17 O 0.12676 0.73213 0.64695 0.0
Cd18 Cd 0.10421 0.74291 0.66148 0.0
C19 C 0.08171 0.71281 0.65247 0.0
O20 O 0.10049 0.75926 0.63969 0.0
O21 O 0.08385 0.76307 0.65775 0.0
O22 O 0.12657 0.7535 0.67471 0.0
C23 C 0.08903 0.76687 0.64464 0.0
O24 O 0.08289 0.71805 0.63888 0.0
C25 C 0.11961 0.7565 0.68721 0.0
O26 O 0.08844 0.71928 0.66382 0.0
O27 O 0.10549 0.75209 0.68831 0.0
C28 C 0.4904 0.85621 0.94493 0.0
O29 O 0.49373 0.84221 0.94773 0.0
Cd30 Cd 0.50996 0.8256 0.93175 0.0
O31 O 0.49573 0.86294 0.93301 0.0
Cd32 Cd 0.51198 0.85983 0.90995 0.0
C33 C 0.48867 0.82949 0.89785 0.0
O34 O 0.52923 0.84258 0.92249 0.0
O35 O 0.53825 0.85131 0.90137 0.0
O36 O 0.51691 0.8874 0.91184 0.0
C37 C 0.5394 0.84145 0.91201 0.0
O38 O 0.49318 0.82156 0.90938 0.0
C39 C 0.51427 0.88996 0.89766 0.0
O40 O 0.49349 0.84322 0.89578 0.0
O41 O 0.51066 0.87848 0.88934 0.0
C42 C 0.36246 0.2681 0.13811 0.0
O43 O 0.37124 0.26727 0.12638 0.0
Cd44 Cd 0.39663 0.2571 0.12509 0.0
O45 O 0.36688 0.26302 0.15118 0.0
Cd46 Cd 0.39018 0.25002 0.16269 0.0
C47 C 0.41238 0.28031 0.15411 0.0
O48 O 0.39404 0.23498 0.14006 0.0
O49 O 0.41279 0.233 0.15632 0.0
O50 O 0.37028 0.23437 0.17383 0.0
C51 C 0.40694 0.22894 0.14355 0.0
O52 O 0.41053 0.27554 0.14041 0.0
C53 C 0.37652 0.23262 0.18691 0.0
O54 O 0.40593 0.27367 0.16554 0.0
O55 O 0.38902 0.24011 0.1895 0.0
C56 C 0.00466 0.85538 0.05277 0.0
O57 O 0.00114 0.84149 0.04972 0.0
Cd58 Cd 0.98395 0.8261 0.06627 0.0
O59 O -0.00113 0.86209 0.06444 0.0
Cd60 Cd 0.98187 0.8605 0.08667 0.0
C61 C 0.00417 0.83019 0.10055 0.0
O62 O 0.96397 0.84326 0.07466 0.0
O63 O 0.95661 0.85168 0.09658 0.0
O64 O 0.9756 0.88763 0.08343 0.0
C65 C 0.95466 0.84196 0.08591 0.0
O66 O -0.00022 0.82167 0.0894 0.0
C67 C 0.97965 0.89134 0.09701 0.0
O68 O -0.00025 0.84416 0.10159 0.0
O69 O 0.98465 0.88064 0.10568 0.0
C70 C 0.36368 0.7338 0.36018 0.0
O71 O 0.37135 0.73907 0.37155 0.0
Cd72 Cd 0.396 0.75025 0.37001 0.0
O73 O 0.36889 0.73474 0.34637 0.0
Cd74 Cd 0.39112 0.74451 0.32948 0.0
C75 C 0.40973 0.72037 0.34519 0.0
O76 O 0.39194 0.76518 0.3481 0.0
O77 O 0.41268 0.76362 0.33446 0.0
O78 O 0.36866 0.75162 0.31425 0.0
C79 C 0.40518 0.77059 0.34494 0.0
O80 O 0.40429 0.73164 0.35248 0.0
C81 C 0.3762 0.75568 0.3024 0.0
O82 O 0.40724 0.72005 0.33081 0.0
O83 O 0.39079 0.75294 0.3024 0.0
C84 C 0.48827 0.13888 0.55205 0.0
O85 O 0.49167 0.15282 0.5492 0.0
Cd86 Cd 0.50863 0.1683 0.56585 0.0
O87 O 0.49393 0.1322 0.5638 0.0
Cd88 Cd 0.5107 0.13628 0.58602 0.0
C89 C 0.48738 0.16568 0.5991 0.0
O90 O 0.53053 0.15277 0.5739 0.0
O91 O 0.53374 0.14653 0.59774 0.0
O92 O 0.51788 0.10915 0.58457 0.0
C93 C 0.53839 0.15414 0.58623 0.0
O94 O 0.49237 0.1742 0.58824 0.0
C95 C 0.51428 0.10639 0.5985 0.0
O96 O 0.4917 0.15171 0.60018 0.0
O97 O 0.50904 0.11753 0.6064 0.0
C98 C 0.1292 0.25934 0.85899 0.0
O99 O 0.12132 0.2538 0.87008 0.0
Cd100 Cd 0.09678 0.24249 0.86787 0.0
O101 O 0.12437 0.25858 0.84504 0.0
Cd102 Cd 0.10246 0.24869 0.82785 0.0
C103 C 0.08326 0.2729 0.8433 0.0
O104 O 0.10101 0.2276 0.84601 0.0
O105 O 0.08034 0.23035 0.83243 0.0
O106 O 0.12501 0.2408 0.81342 0.0
C107 C 0.08761 0.22273 0.84261 0.0
O108 O 0.08847 0.26173 0.85092 0.0
C109 C 0.11781 0.23676 0.80136 0.0
O110 O 0.08639 0.27318 0.82903 0.0
O111 O 0.10336 0.24011 0.80071 0.0
C112 C 0.44879 0.00509 0.13964 0.0
O113 O 0.45004 0.00187 0.15387 0.0
Cd114 Cd 0.4317 0.98577 0.16819 0.0
O115 O 0.43719 0.00036 0.13181 0.0
Cd116 Cd 0.41287 0.98593 0.13299 0.0
C117 C 0.39836 0.00764 0.16334 0.0
O118 O 0.42312 0.96701 0.15019 0.0
O119 O 0.40036 0.9621 0.14137 0.0
O120 O 0.41614 0.97882 0.10615 0.0
C121 C 0.41087 0.95891 0.15111 0.0
O122 O 0.40881 0.00215 0.17226 0.0
C123 C 0.40293 0.98404 0.10192 0.0
O124 O 0.398 0.00418 0.14908 0.0
O125 O 0.39446 0.99029 0.11217 0.0
C126 C 0.23842 0.19568 0.39187 0.0
O127 O 0.24121 0.19607 0.40627 0.0
Cd128 Cd 0.25859 0.17991 0.42164 0.0
O129 O 0.24449 0.18546 0.38321 0.0
Cd130 Cd 0.26104 0.16254 0.38466 0.0
C131 C 0.23924 0.14608 0.41483 0.0
O132 O 0.27763 0.17324 0.40334 0.0
O133 O 0.2886 0.15519 0.39085 0.0
O134 O 0.2653 0.16388 0.35687 0.0
C135 C 0.28878 0.16378 0.40259 0.0
O136 O 0.24365 0.15617 0.42454 0.0
C137 C 0.26256 0.14962 0.35481 0.0
O138 O 0.24345 0.14669 0.40076 0.0
O139 O 0.25904 0.14171 0.3666 0.0
C140 C 0.04418 0.98774 0.64048 0.0
O141 O 0.04236 0.99155 0.65449 0.0
Cd142 Cd 0.05834 0.00974 0.66866 0.0
O143 O 0.05527 0.99322 0.6324 0.0
Cd144 Cd 0.07814 0.01005 0.63333 0.0
C145 C 0.09291 0.98941 0.66414 0.0
O146 O 0.06644 0.02821 0.65039 0.0
O147 O 0.0887 0.03497 0.64134 0.0
O148 O 0.07476 0.01731 0.60648 0.0
C149 C 0.07787 0.03744 0.65094 0.0
O150 O 0.08174 0.99443 0.67247 0.0
C151 C 0.08821 0.01264 0.60233 0.0
O152 O 0.09397 0.99296 0.64992 0.0
O153 O 0.0968 0.00655 0.6126 0.0
C154 C 0.25315 0.79988 0.88839 0.0
O155 O 0.25018 0.79759 0.90257 0.0
Cd156 Cd 0.23386 0.81409 0.91872 0.0
O157 O 0.24771 0.81157 0.8814 0.0
Cd158 Cd 0.232 0.83482 0.88421 0.0
C159 C 0.25482 0.84774 0.91467 0.0
O160 O 0.2143 0.82312 0.90161 0.0
O161 O 0.20633 0.84466 0.89286 0.0
O162 O 0.22619 0.83322 0.85686 0.0
C163 C 0.20469 0.83411 0.90276 0.0
O164 O 0.25037 0.8366 0.92315 0.0
C165 C 0.23068 0.84687 0.85396 0.0
O166 O 0.25022 0.849 0.90078 0.0
O167 O 0.2356 0.85484 0.86522 0.0
C168 C 0.44853 0.98722 0.35486 0.0
O169 O 0.44885 0.98919 0.34034 0.0
Cd170 Cd 0.43269 0.00679 0.32513 0.0
O171 O 0.43855 0.99413 0.36323 0.0
Cd172 Cd 0.41596 0.01107 0.36151 0.0
C173 C 0.39781 0.98925 0.33288 0.0
O174 O 0.42721 0.02715 0.34238 0.0
O175 O 0.40702 0.0368 0.35323 0.0
O176 O 0.41885 0.01787 0.38862 0.0
C177 C 0.41676 0.03745 0.34229 0.0
O178 O 0.40777 0.99329 0.32275 0.0
C179 C 0.40506 0.01361 0.39217 0.0
O180 O 0.39907 0.99344 0.34688 0.0
O181 O 0.39653 0.00841 0.3814 0.0
C182 C 0.25201 0.1952 0.60627 0.0
O183 O 0.249 0.19721 0.59206 0.0
Cd184 Cd 0.23384 0.18015 0.57576 0.0
O185 O 0.2467 0.18359 0.61353 0.0
Cd186 Cd 0.23092 0.16006 0.61119 0.0
C187 C 0.25615 0.14748 0.5826 0.0
O188 O 0.2143 0.17119 0.59266 0.0
O189 O 0.20484 0.15073 0.60248 0.0
O190 O 0.22532 0.16223 0.63865 0.0
C191 C 0.20408 0.16075 0.59194 0.0
O192 O 0.25203 0.15855 0.57387 0.0
C193 C 0.22913 0.14837 0.64155 0.0
O194 O 0.25027 0.14568 0.59596 0.0
O195 O 0.23343 0.14009 0.63027 0.0
C196 C 0.04337 0.0062 0.8585 0.0
O197 O 0.04088 0.00309 0.84443 0.0
Cd198 Cd 0.05889 0.98768 0.82927 0.0
O199 O 0.05516 0.0006 0.86544 0.0
Cd200 Cd 0.078 0.98409 0.86178 0.0
C201 C 0.09121 0.01024 0.83578 0.0
O202 O 0.06673 0.96526 0.84373 0.0
O203 O 0.09106 0.96285 0.84998 0.0
O204 O 0.07599 0.97621 0.88885 0.0
C205 C 0.07959 0.9581 0.84216 0.0
O206 O 0.08045 0.00588 0.82665 0.0
C207 C 0.09037 0.97892 0.89146 0.0
O208 O 0.0927 0.00438 0.84908 0.0
O209 O 0.09851 0.98396 0.88038 0.0
C210 C 0.23963 0.79921 0.1054 0.0
O211 O 0.24326 0.79793 0.09128 0.0
Cd212 Cd 0.25967 0.81636 0.07757 0.0
O213 O 0.24441 0.8106 0.11325 0.0
Cd214 Cd 0.25944 0.8343 0.11099 0.0
C215 C 0.23626 0.84795 0.08172 0.0
O216 O 0.28034 0.8248 0.09427 0.0
O217 O 0.28142 0.84863 0.10107 0.0
O218 O 0.26805 0.83158 0.13758 0.0
C219 C 0.28711 0.83775 0.09319 0.0
O220 O 0.24247 0.83817 0.07269 0.0
C221 C 0.26231 0.84433 0.14199 0.0
O222 O 0.23974 0.84822 0.09597 0.0
O223 O 0.25518 0.8523 0.13195 0.0
C224 C 0.11055 0.38723 0.98378 0.0
O225 O 0.11826 0.37479 0.98493 0.0
Cd226 Cd 0.14519 0.37356 0.99049 0.0
O227 O 0.11687 0.4003 0.98614 0.0
Cd228 Cd 0.14142 0.41303 0.99476 0.0
C229 C 0.15955 0.40005 0.96314 0.0
O230 O 0.14426 0.39119 0.01066 0.0
O231 O 0.1619 0.4082 0.01479 0.0
O232 O 0.11975 0.42754 0.00469 0.0
C233 C 0.15629 0.39511 0.01797 0.0
O234 O 0.15682 0.38685 0.96886 0.0
C235 C 0.12736 0.43948 0.00833 0.0
O236 O 0.15567 0.41239 0.97008 0.0
O237 O 0.14172 0.43979 0.00454 0.0
C238 C 0.60993 0.10894 0.01071 0.0
O239 O 0.61794 0.12113 0.00921 0.0
Cd240 Cd 0.64466 0.12162 0.00344 0.0
O241 O 0.61598 0.09564 0.00876 0.0
Cd242 Cd 0.64073 0.08254 0.00016 0.0
C243 C 0.65965 0.09554 0.03097 0.0
O244 O 0.64362 0.10363 0.98364 0.0
O245 O 0.66319 0.08842 0.98219 0.0
O246 O 0.61953 0.06807 0.98959 0.0
C247 C 0.65669 0.10074 0.97775 0.0
O248 O 0.65713 0.10864 0.02492 0.0
C249 C 0.62716 0.05607 0.98622 0.0
O250 O 0.65495 0.08313 0.02468 0.0
O251 O 0.64141 0.05569 0.99037 0.0
C252 C 0.19841 0.38722 0.2384 0.0
O253 O 0.20161 0.40119 0.24139 0.0
Cd254 Cd 0.18501 0.41721 0.25754 0.0
O255 O 0.18655 0.38072 0.24438 0.0
Cd256 Cd 0.16392 0.38272 0.26137 0.0
C257 C 0.15059 0.41076 0.2369 0.0
O258 O 0.17638 0.40085 0.2776 0.0
O259 O 0.15425 0.39295 0.28599 0.0
O260 O 0.1681 0.35606 0.26896 0.0
C261 C 0.16535 0.40252 0.28716 0.0
O262 O 0.16235 0.41898 0.2406 0.0
C263 C 0.15451 0.35173 0.26489 0.0
O264 O 0.14834 0.39749 0.24272 0.0
O265 O 0.14537 0.36192 0.2595 0.0
C266 C 0.88324 0.88706 0.50721 0.0
O267 O 0.87495 0.87508 0.50548 0.0
Cd268 Cd 0.84813 0.87526 0.5006 0.0
O269 O 0.87729 0.90053 0.50625 0.0
Cd270 Cd 0.85228 0.91464 0.50007 0.0
C271 C 0.83521 0.89937 0.5309 0.0
O272 O 0.84894 0.89472 0.48233 0.0
O273 O 0.82907 0.9096 0.48283 0.0
O274 O 0.87305 0.93064 0.49032 0.0
C275 C 0.83557 0.89777 0.47723 0.0
O276 O 0.8374 0.88685 0.52362 0.0
C277 C 0.8647 0.94218 0.48698 0.0
O278 O 0.83942 0.91231 0.52537 0.0
O279 O 0.85041 0.94159 0.49094 0.0
C280 C 0.79474 0.10593 0.23574 0.0
O281 O 0.79288 0.09157 0.23803 0.0
Cd282 Cd 0.80774 0.07503 0.25554 0.0
O283 O 0.80545 0.11344 0.24264 0.0
Cd284 Cd 0.82738 0.1108 0.2606 0.0
C285 C 0.84395 0.08089 0.23906 0.0
O286 O 0.81458 0.09197 0.27553 0.0
O287 O 0.83295 0.10306 0.28771 0.0
O288 O 0.82568 0.13868 0.26522 0.0
C289 C 0.82368 0.09177 0.28697 0.0
O290 O 0.83266 0.07188 0.24228 0.0
C291 C 0.84046 0.14047 0.26504 0.0
O292 O 0.84413 0.09483 0.24369 0.0
O293 O 0.84877 0.12862 0.2625 0.0
C294 C 0.38152 0.60535 0.48746 0.0
O295 O 0.37401 0.61737 0.49123 0.0
Cd296 Cd 0.34814 0.61819 0.49967 0.0
O297 O 0.37551 0.59197 0.48864 0.0
Cd298 Cd 0.35073 0.57916 0.49742 0.0
C299 C 0.33381 0.59686 0.46805 0.0
O300 O 0.34836 0.59789 0.51705 0.0
O301 O 0.32762 0.58444 0.51428 0.0
O302 O 0.37076 0.56211 0.50663 0.0
C303 C 0.3346 0.59516 0.52136 0.0
O304 O 0.33645 0.60872 0.47621 0.0
C305 C 0.36203 0.55058 0.50884 0.0
O306 O 0.33767 0.58342 0.47253 0.0
O307 O 0.34788 0.55179 0.50453 0.0
C308 C 0.19844 0.60285 0.25896 0.0
O309 O 0.19796 0.58835 0.25695 0.0
Cd310 Cd 0.18142 0.57408 0.23891 0.0
O311 O 0.18903 0.61179 0.25201 0.0
Cd312 Cd 0.16626 0.61067 0.23545 0.0
C313 C 0.14754 0.58282 0.2575 0.0
O314 O 0.1767 0.59158 0.21852 0.0
O315 O 0.15568 0.60237 0.21057 0.0
O316 O 0.16965 0.63737 0.22754 0.0
C317 C 0.16566 0.59177 0.20883 0.0
O318 O 0.1567 0.5723 0.2527 0.0
C319 C 0.15615 0.64145 0.2322 0.0
O320 O 0.14944 0.59685 0.25374 0.0
O321 O 0.14767 0.63121 0.23842 0.0
C322 C 0.29487 0.38844 0.76 0.0
O323 O 0.29013 0.4013 0.75497 0.0
Cd324 Cd 0.30962 0.41508 0.73976 0.0
O325 O 0.30735 0.38253 0.75479 0.0
Cd326 Cd 0.32843 0.38447 0.73636 0.0
C327 C 0.34275 0.40973 0.76169 0.0
O328 O 0.31831 0.40224 0.71629 0.0
O329 O 0.34319 0.39736 0.71764 0.0
O330 O 0.3252 0.35861 0.72568 0.0
C331 C 0.33201 0.40398 0.71078 0.0
O332 O 0.33137 0.41845 0.75801 0.0
C333 C 0.33836 0.35392 0.73063 0.0
O334 O 0.34448 0.3966 0.75558 0.0
O335 O 0.34662 0.36345 0.73809 0.0
C336 C 0.98844 0.85952 0.54002 0.0
O337 O 0.99305 0.84573 0.53851 0.0
Cd338 Cd 0.00763 0.83263 0.55874 0.0
O339 O 0.99175 0.86695 0.55212 0.0
Cd340 Cd 0.00526 0.86255 0.57609 0.0
C341 C 0.98125 0.83483 0.58784 0.0
O342 O 0.02899 0.84665 0.57036 0.0
O343 O 0.02074 0.84928 0.5938 0.0
O344 O 0.01522 0.88879 0.57579 0.0
C345 C 0.03123 0.84458 0.5847 0.0
O346 O 0.98948 0.82605 0.57936 0.0
C347 C 0.00968 0.89201 0.58897 0.0
O348 O 0.98306 0.84932 0.58738 0.0
O349 O 0.00184 0.88167 0.59575 0.0
C350 C 0.8893 0.23839 0.30034 0.0
O351 O 0.90394 0.241 0.29979 0.0
Cd352 Cd 0.91973 0.25787 0.31576 0.0
O353 O 0.88059 0.24486 0.31032 0.0
Cd354 Cd 0.88286 0.26216 0.33285 0.0
C355 C 0.91076 0.23773 0.34858 0.0
O356 O 0.90265 0.27831 0.32214 0.0
O357 O 0.89201 0.28752 0.34239 0.0
O358 O 0.8551 0.26857 0.33042 0.0
C359 C 0.90299 0.28836 0.33266 0.0
O360 O 0.9207 0.24134 0.33829 0.0
C361 C 0.85195 0.26487 0.34426 0.0
O362 O 0.89707 0.24351 0.34879 0.0
O363 O 0.86323 0.2603 0.3526 0.0
C364 C 0.50337 0.13441 0.04342 0.0
O365 O 0.49856 0.14788 0.0402 0.0
Cd366 Cd 0.48252 0.16365 0.05713 0.0
O367 O 0.49923 0.12784 0.05582 0.0
Cd368 Cd 0.48379 0.13042 0.07908 0.0
C369 C 0.50675 0.16103 0.08908 0.0
O370 O 0.46405 0.14698 0.06867 0.0
O371 O 0.46073 0.14007 0.09209 0.0
O372 O 0.4776 0.10331 0.07794 0.0
C373 C 0.45702 0.14916 0.08132 0.0
O374 O 0.50083 0.16874 0.07804 0.0
C375 C 0.48304 0.10046 0.09128 0.0
O376 O 0.50284 0.14712 0.09157 0.0
O377 O 0.48864 0.11167 0.09885 0.0
C378 C 0.60761 0.75651 0.79958 0.0
O379 O 0.59324 0.75373 0.79702 0.0
Cd380 Cd 0.57729 0.73752 0.81399 0.0
O381 O 0.61435 0.75067 0.81121 0.0
Cd382 Cd 0.60901 0.73445 0.83336 0.0
C383 C 0.58032 0.75838 0.84687 0.0
O384 O 0.59162 0.71478 0.82178 0.0
O385 O 0.59732 0.713 0.84596 0.0
O386 O 0.63638 0.72645 0.83215 0.0
C387 C 0.58997 0.70772 0.83451 0.0
O388 O 0.57119 0.75339 0.83644 0.0
C389 C 0.63914 0.72992 0.8461 0.0
O390 O 0.59451 0.75404 0.84741 0.0
O391 O 0.62788 0.73537 0.85389 0.0
C392 C 0.98848 0.14044 0.95406 0.0
O393 O 0.99172 0.15471 0.95405 0.0
Cd394 Cd 0.00822 0.16833 0.93582 0.0
O395 O 0.99387 0.13163 0.94368 0.0
Cd396 Cd 0.00888 0.13412 0.92016 0.0
C397 C 0.98477 0.16123 0.90501 0.0
O398 O 0.02936 0.15217 0.92828 0.0
O399 O 0.02796 0.14618 0.90424 0.0
O400 O 0.01912 0.10795 0.92145 0.0
C401 C 0.03469 0.15371 0.91475 0.0
O402 O 0.99175 0.17138 0.91304 0.0
C403 C 0.01307 0.104 0.90867 0.0
O404 O 0.98759 0.14698 0.90675 0.0
O405 O 0.00513 0.11405 0.90155 0.0
C406 C 0.60225 0.23789 0.69913 0.0
O407 O 0.58784 0.23894 0.69577 0.0
Cd408 Cd 0.57632 0.25743 0.67775 0.0
O409 O 0.61227 0.24569 0.69175 0.0
Cd410 Cd 0.60932 0.25751 0.66673 0.0
C411 C 0.58337 0.23428 0.64898 0.0
O412 O 0.59158 0.27997 0.6715 0.0
O413 O 0.59951 0.27507 0.64845 0.0
O414 O 0.63662 0.26637 0.6682 0.0
C415 C 0.59213 0.2839 0.6574 0.0
O416 O 0.57273 0.24305 0.65419 0.0
C417 C 0.64012 0.26051 0.65524 0.0
O418 O 0.59731 0.2353 0.65397 0.0
O419 O 0.62955 0.25301 0.64832 0.0
C420 C 0.50514 0.85428 0.45263 0.0
O421 O 0.50106 0.84023 0.45324 0.0
Cd422 Cd 0.48322 0.82609 0.43688 0.0
O423 O 0.4997 0.86323 0.44237 0.0
Cd424 Cd 0.48296 0.86105 0.41969 0.0
C425 C 0.50562 0.832 0.40478 0.0
O426 O 0.46325 0.84324 0.4291 0.0
O427 O 0.46113 0.85057 0.40563 0.0
O428 O 0.47493 0.88813 0.42052 0.0
C429 C 0.45635 0.84187 0.41627 0.0
O430 O 0.49941 0.82252 0.41413 0.0
C431 C 0.47943 0.89062 0.40677 0.0
O432 O 0.50254 0.84632 0.40539 0.0
O433 O 0.48573 0.87954 0.39959 0.0
C434 C 0.88645 0.7562 0.19624 0.0
O435 O 0.9007 0.75264 0.19854 0.0
Cd436 Cd 0.91652 0.73602 0.18222 0.0
O437 O 0.87902 0.7509 0.18471 0.0
Cd438 Cd 0.88139 0.73465 0.16176 0.0
C439 C 0.91187 0.75734 0.14892 0.0
O440 O 0.89933 0.71679 0.17296 0.0
O441 O 0.8914 0.71063 0.15043 0.0
O442 O 0.85401 0.72728 0.16427 0.0
C443 C 0.90089 0.70816 0.16133 0.0
O444 O 0.92045 0.75247 0.15989 0.0
C445 C 0.85012 0.73205 0.15097 0.0
O446 O 0.89768 0.75302 0.14752 0.0
O447 O 0.86085 0.73792 0.14273 0.0
C448 C 0.54809 0.98731 0.85035 0.0
O449 O 0.54746 0.99082 0.83618 0.0
Cd450 Cd 0.56691 0.00714 0.82368 0.0
O451 O 0.55916 0.99228 0.8587 0.0
Cd452 Cd 0.583 0.0076 0.85676 0.0
C453 C 0.59901 0.98461 0.82927 0.0
O454 O 0.57504 0.02863 0.83935 0.0
O455 O 0.5994 0.02697 0.84602 0.0
O456 O 0.57879 0.01932 0.8816 0.0
C457 C 0.58884 0.03407 0.83868 0.0
O458 O 0.58951 0.99061 0.81973 0.0
C459 C 0.59066 0.01331 0.88799 0.0
O460 O 0.59838 0.98795 0.84352 0.0
O461 O 0.59896 0.00433 0.87986 0.0
C462 C 0.75625 0.79382 0.6065 0.0
O463 O 0.75329 0.79146 0.59234 0.0
Cd464 Cd 0.73763 0.80852 0.57635 0.0
O465 O 0.75031 0.80519 0.61355 0.0
Cd466 Cd 0.73336 0.82724 0.6113 0.0
C467 C 0.75781 0.84218 0.58378 0.0
O468 O 0.71666 0.81608 0.59257 0.0
O469 O 0.70907 0.83783 0.60144 0.0
O470 O 0.72444 0.82475 0.63757 0.0
C471 C 0.70754 0.82746 0.59132 0.0
O472 O 0.75479 0.83106 0.5747 0.0
C473 C 0.73034 0.83754 0.6417 0.0
O474 O 0.75158 0.8432 0.59702 0.0
O475 O 0.73739 0.84542 0.63156 0.0
C476 C 0.9422 0.00958 0.34942 0.0
O477 O 0.94308 0.0065 0.33513 0.0
Cd478 Cd 0.92554 0.98929 0.32127 0.0
O479 O 0.93139 0.00394 0.35773 0.0
Cd480 Cd 0.90821 0.98768 0.35709 0.0
C481 C 0.89159 0.00968 0.32804 0.0
O482 O 0.91913 0.96965 0.3392 0.0
O483 O 0.89699 0.96317 0.34886 0.0
O484 O 0.91409 0.98068 0.38356 0.0
C485 C 0.90761 0.9605 0.33907 0.0
O486 O 0.90187 0.00474 0.31863 0.0
C487 C 0.90068 0.98425 0.38875 0.0
O488 O 0.89184 0.00578 0.3422 0.0
O489 O 0.8908 0.9895 0.37916 0.0
C490 C 0.73715 0.20346 0.10562 0.0
O491 O 0.73815 0.19943 0.09163 0.0
Cd492 Cd 0.75856 0.18436 0.07924 0.0
O493 O 0.74657 0.19792 0.11537 0.0
Cd494 Cd 0.75686 0.17216 0.11147 0.0
C495 C 0.7347 0.15544 0.08398 0.0
O496 O 0.78033 0.1766 0.09497 0.0
O497 O 0.77424 0.15352 0.10198 0.0
O498 O 0.7669 0.1722 0.13761 0.0
C499 C 0.78373 0.16235 0.09524 0.0
O500 O 0.74426 0.16099 0.07426 0.0
C501 C 0.75932 0.16034 0.14171 0.0
O502 O 0.73481 0.16 0.0979 0.0
O503 O 0.75018 0.15441 0.13188 0.0
C504 C 0.54887 0.00962 0.64705 0.0
O505 O 0.54887 0.00698 0.66144 0.0
Cd506 Cd 0.56783 0.99078 0.67457 0.0
O507 O 0.55923 0.00373 0.63836 0.0
Cd508 Cd 0.5827 0.98765 0.63954 0.0
C509 C 0.60048 0.01145 0.66541 0.0
O510 O 0.57339 0.9691 0.6584 0.0
O511 O 0.59691 0.96603 0.64993 0.0
O512 O 0.57892 0.97574 0.6148 0.0
C513 C 0.58613 0.96161 0.65887 0.0
O514 O 0.5908 0.00734 0.67573 0.0
C515 C 0.59081 0.98189 0.60855 0.0
O516 O 0.59958 0.00649 0.65169 0.0
O517 O 0.59878 0.99115 0.61665 0.0
C518 C 0.7368 0.79221 0.39416 0.0
O519 O 0.73832 0.79596 0.40822 0.0
Cd520 Cd 0.75789 0.81113 0.42153 0.0
O521 O 0.74542 0.79807 0.38382 0.0
Cd522 Cd 0.75904 0.82249 0.38432 0.0
C523 C 0.73704 0.84234 0.41147 0.0
O524 O 0.77804 0.81552 0.40352 0.0
O525 O 0.78151 0.83728 0.39255 0.0
O526 O 0.7694 0.82072 0.35837 0.0
C527 C 0.78532 0.82817 0.40325 0.0
O528 O 0.7437 0.83529 0.42252 0.0
C529 C 0.76172 0.83225 0.35343 0.0
O530 O 0.73942 0.83861 0.39749 0.0
O531 O 0.75247 0.83879 0.36278 0.0
C532 C 0.94279 0.98776 0.14437 0.0
O533 O 0.94406 0.99029 0.15874 0.0
Cd534 Cd 0.92602 0.00576 0.17387 0.0
O535 O 0.93179 0.99386 0.13657 0.0
Cd536 Cd 0.90881 0.0109 0.13755 0.0
C537 C 0.89214 0.98607 0.16382 0.0
O538 O 0.91975 0.02643 0.15724 0.0
O539 O 0.89931 0.03618 0.14694 0.0
O540 O 0.91492 0.01784 0.11106 0.0
C541 C 0.90926 0.03667 0.15772 0.0
O542 O 0.90296 0.98913 0.17345 0.0
C543 C 0.90129 0.01487 0.10601 0.0
O544 O 0.89166 0.99235 0.15059 0.0
O545 O 0.89118 0.01038 0.11574 0.0
C546 C 0.75539 0.19928 0.88692 0.0
O547 O 0.75278 0.20213 0.90107 0.0
Cd548 Cd 0.7374 0.18703 0.91896 0.0
O549 O 0.749 0.18792 0.88015 0.0
Cd550 Cd 0.73094 0.16662 0.88415 0.0
C551 C 0.75606 0.15245 0.91208 0.0
O552 O 0.71656 0.17979 0.90298 0.0
O553 O 0.70411 0.161 0.89324 0.0
O554 O 0.72579 0.16728 0.8567 0.0
C555 C 0.70528 0.17055 0.90414 0.0
O556 O 0.75386 0.16407 0.92076 0.0
C557 C 0.7275 0.15281 0.85515 0.0
O558 O 0.7491 0.15103 0.89921 0.0
O559 O 0.73036 0.145 0.86718 0.0
C560 C 0.85479 0.55012 0.98855 0.0
O561 O 0.84025 0.54782 0.99077 0.0
Cd562 Cd 0.82305 0.56445 0.00598 0.0
O563 O 0.86175 0.56139 0.9949 0.0
Cd564 Cd 0.85907 0.58371 0.01185 0.0
C565 C 0.83159 0.59829 0.9866 0.0
O566 O 0.83899 0.57257 0.02671 0.0
O567 O 0.84971 0.59187 0.03762 0.0
O568 O 0.88638 0.58021 0.01888 0.0
C569 C 0.83848 0.5824 0.03742 0.0
O570 O 0.82243 0.58702 0.98921 0.0
C571 C 0.89023 0.5939 0.01534 0.0
O572 O 0.84476 0.59958 0.99331 0.0
O573 O 0.87946 0.60276 0.01052 0.0
C574 C 0.35377 0.94518 0.00702 0.0
O575 O 0.33904 0.94601 0.00499 0.0
Cd576 Cd 0.32376 0.9283 0.98897 0.0
O577 O 0.36174 0.93461 0.00063 0.0
Cd578 Cd 0.36026 0.91201 0.9843 0.0
C579 C 0.33309 0.8951 0.00837 0.0
O580 O 0.34044 0.9224 0.96793 0.0
O581 O 0.34957 0.90069 0.9606 0.0
O582 O 0.38717 0.91615 0.97582 0.0
C583 C 0.33929 0.91103 0.95891 0.0
O584 O 0.32255 0.90457 0.00416 0.0
C585 C 0.39182 0.903 0.98034 0.0
O586 O 0.34713 0.89616 0.00362 0.0
O587 O 0.3817 0.89418 0.98637 0.0
C588 C 0.79954 0.60268 0.75873 0.0
O589 O 0.79709 0.58853 0.75597 0.0
Cd590 Cd 0.81505 0.5733 0.7401 0.0
O591 O 0.81131 0.6094 0.75294 0.0
Cd592 Cd 0.83406 0.60569 0.73663 0.0
C593 C 0.84874 0.57845 0.76089 0.0
O594 O 0.82321 0.58761 0.71777 0.0
O595 O 0.84764 0.59382 0.71561 0.0
O596 O 0.82964 0.63096 0.72588 0.0
C597 C 0.83619 0.58593 0.71081 0.0
O598 O 0.83811 0.56935 0.75617 0.0
C599 C 0.84235 0.63669 0.73082 0.0
O600 O 0.84929 0.59235 0.75629 0.0
O601 O 0.85141 0.62783 0.73828 0.0
C602 C 0.13887 0.04887 0.50655 0.0
O603 O 0.15347 0.04704 0.50431 0.0
Cd604 Cd 0.16982 0.06383 0.48816 0.0
O605 O 0.1316 0.05996 0.50026 0.0
Cd606 Cd 0.13441 0.08244 0.48388 0.0
C607 C 0.16309 0.09757 0.50759 0.0
O608 O 0.15373 0.07153 0.46714 0.0
O609 O 0.14472 0.09341 0.45993 0.0
O610 O 0.10735 0.07952 0.47559 0.0
C611 C 0.15487 0.08296 0.45815 0.0
O612 O 0.17283 0.08723 0.50352 0.0
C613 C 0.10313 0.09267 0.48051 0.0
O614 O 0.14905 0.09756 0.50268 0.0
O615 O 0.11357 0.10103 0.48669 0.0
C616 C 0.19348 0.89418 0.75858 0.0
O617 O 0.19327 0.90864 0.75634 0.0
Cd618 Cd 0.1739 0.92179 0.74021 0.0
O619 O 0.18306 0.8856 0.75268 0.0
Cd620 Cd 0.15946 0.88584 0.73713 0.0
C621 C 0.14091 0.91195 0.76054 0.0
O622 O 0.16813 0.90523 0.71909 0.0
O623 O 0.14517 0.89612 0.71528 0.0
O624 O 0.16594 0.86039 0.72739 0.0
C625 C 0.1554 0.906 0.71167 0.0
O626 O 0.1498 0.92253 0.7554 0.0
C627 C 0.15338 0.85416 0.73212 0.0
O628 O 0.14286 0.89792 0.75678 0.0
O629 O 0.14366 0.86276 0.73906 0.0
C630 C 0.63721 0.44355 0.48883 0.0
O631 O 0.65085 0.44767 0.49293 0.0
Cd632 Cd 0.6672 0.43127 0.50895 0.0
O633 O 0.63076 0.43165 0.49451 0.0
Cd634 Cd 0.63295 0.41078 0.51333 0.0
C635 C 0.66079 0.39731 0.48847 0.0
O636 O 0.65095 0.42403 0.52995 0.0
O637 O 0.64325 0.40202 0.53804 0.0
O638 O 0.60496 0.41368 0.51874 0.0
C639 C 0.65243 0.41329 0.5397 0.0
O640 O 0.66936 0.40887 0.49176 0.0
C641 C 0.60233 0.39931 0.51772 0.0
O642 O 0.64756 0.3953 0.49485 0.0
O643 O 0.61388 0.39064 0.51472 0.0
C644 C 0.80002 0.39417 0.7356 0.0
O645 O 0.7985 0.40836 0.73879 0.0
Cd646 Cd 0.81691 0.42213 0.75535 0.0
O647 O 0.81135 0.38649 0.74108 0.0
Cd648 Cd 0.83453 0.38849 0.75721 0.0
C649 C 0.85013 0.41639 0.73404 0.0
O650 O 0.82438 0.40618 0.77675 0.0
O651 O 0.84847 0.39887 0.77883 0.0
O652 O 0.82947 0.36263 0.76651 0.0
C653 C 0.83736 0.4071 0.78383 0.0
O654 O 0.83998 0.42575 0.73928 0.0
C655 C 0.84237 0.35709 0.76183 0.0
O656 O 0.85006 0.40229 0.73801 0.0
O657 O 0.85166 0.36623 0.75504 0.0
C658 C 0.69317 0.59963 0.23765 0.0
O659 O 0.69388 0.58525 0.24026 0.0
Cd660 Cd 0.67511 0.57174 0.25683 0.0
O661 O 0.68223 0.60766 0.24341 0.0
Cd662 Cd 0.65879 0.606 0.25918 0.0
C663 C 0.64167 0.57847 0.23641 0.0
O664 O 0.66886 0.58795 0.27841 0.0
O665 O 0.64536 0.59646 0.28161 0.0
O666 O 0.66397 0.63226 0.26741 0.0
C667 C 0.65618 0.58758 0.28603 0.0
O668 O 0.65133 0.56858 0.24156 0.0
C669 C 0.65086 0.63749 0.26291 0.0
O670 O 0.64269 0.59258 0.24017 0.0
O671 O 0.64144 0.62798 0.25684 0.0
C672 C 0.50249 0.64086 0.94506 0.0
O673 O 0.50051 0.65535 0.94464 0.0
Cd674 Cd 0.4845 0.66895 0.92571 0.0
O675 O 0.49652 0.63232 0.93475 0.0
Cd676 Cd 0.48195 0.63576 0.91086 0.0
C677 C 0.50689 0.66166 0.89456 0.0
O678 O 0.46166 0.65381 0.92028 0.0
O679 O 0.4606 0.64665 0.89657 0.0
O680 O 0.47398 0.60864 0.91289 0.0
C681 C 0.45474 0.65446 0.90737 0.0
O682 O 0.50036 0.67215 0.90249 0.0
C683 C 0.47702 0.60594 0.89881 0.0
O684 O 0.50358 0.64758 0.89672 0.0
O685 O 0.48245 0.61693 0.89088 0.0
C686 C 0.63046 0.23018 0.14017 0.0
O687 O 0.62335 0.23308 0.12767 0.0
Cd688 Cd 0.59866 0.24476 0.12549 0.0
O689 O 0.62468 0.2335 0.15331 0.0
Cd690 Cd 0.6019 0.24529 0.16716 0.0
C691 C 0.57959 0.22116 0.15394 0.0
O692 O 0.60069 0.26256 0.14525 0.0
O693 O 0.58255 0.26619 0.16196 0.0
O694 O 0.62425 0.25417 0.18121 0.0
C695 C 0.58861 0.26984 0.14918 0.0
O696 O 0.58626 0.22941 0.14401 0.0
C697 C 0.61698 0.25841 0.19317 0.0
O698 O 0.58379 0.22243 0.1679 0.0
O699 O 0.60253 0.2551 0.19383 0.0
C700 C 0.98698 0.35543 0.44331 0.0
O701 O 0.98914 0.34105 0.44521 0.0
Cd702 Cd 0.00611 0.32445 0.42956 0.0
O703 O 0.9938 0.36266 0.43251 0.0
Cd704 Cd 0.01144 0.35992 0.41071 0.0
C705 C 0.98845 0.33087 0.39455 0.0
O706 O 0.02692 0.34114 0.4231 0.0
O707 O 0.03844 0.3516 0.4041 0.0
O708 O 0.01659 0.38748 0.4128 0.0
C709 C 0.03809 0.34059 0.4136 0.0
O710 O 0.99175 0.32148 0.40535 0.0
C711 C 0.01449 0.38992 0.3985 0.0
O712 O 0.99356 0.34464 0.39459 0.0
O713 O 0.0112 0.37837 0.39014 0.0
C714 C 0.86063 0.7589 0.63767 0.0
O715 O 0.8688 0.75582 0.62589 0.0
Cd716 Cd 0.89503 0.74849 0.62702 0.0
O717 O 0.86619 0.75776 0.65124 0.0
Cd718 Cd 0.89025 0.74859 0.66493 0.0
C719 C 0.91071 0.77738 0.65105 0.0
O720 O 0.89237 0.72935 0.64573 0.0
O721 O 0.91313 0.73131 0.65925 0.0
O722 O 0.8691 0.7395 0.68058 0.0
C723 C 0.90584 0.72438 0.64862 0.0
O724 O 0.90863 0.7702 0.63846 0.0
C725 C 0.87709 0.73632 0.69241 0.0
O726 O 0.90482 0.77269 0.66364 0.0
O727 O 0.89146 0.74002 0.69208 0.0
C728 C 0.50128 0.35488 0.54912 0.0
O729 O 0.49753 0.34078 0.54819 0.0
Cd730 Cd 0.48287 0.32726 0.56784 0.0
O731 O 0.49699 0.36295 0.56057 0.0
Cd732 Cd 0.48264 0.36052 0.58482 0.0
C733 C 0.50907 0.33372 0.59688 0.0
O734 O 0.46139 0.34287 0.57692 0.0
O735 O 0.46301 0.34954 0.60081 0.0
O736 O 0.47342 0.3871 0.58293 0.0
C737 C 0.45598 0.34195 0.59051 0.0
O738 O 0.50307 0.32421 0.58745 0.0
C739 C 0.479 0.39097 0.59594 0.0
O740 O 0.50409 0.34745 0.59787 0.0
O741 O 0.48631 0.38073 0.60343 0.0
C742 C 0.8599 0.2351 0.85785 0.0
O743 O 0.86712 0.23893 0.86998 0.0
Cd744 Cd 0.89345 0.24582 0.86973 0.0
O745 O 0.86634 0.23595 0.84464 0.0
Cd746 Cd 0.89058 0.24608 0.83215 0.0
C747 C 0.90919 0.21629 0.84653 0.0
O748 O 0.89211 0.26549 0.85126 0.0
O749 O 0.91359 0.26258 0.83893 0.0
O750 O 0.86959 0.25593 0.81681 0.0
C751 C 0.90578 0.27014 0.84875 0.0
O752 O 0.90638 0.22323 0.85911 0.0
C753 C 0.87753 0.25914 0.80497 0.0
O754 O 0.90483 0.22177 0.83364 0.0
O755 O 0.89184 0.25514 0.80509 0.0
C756 C 0.98858 0.64029 0.05071 0.0
O757 O 0.99132 0.65464 0.04942 0.0
Cd758 Cd 0.00764 0.6707 0.06604 0.0
O759 O 0.9942 0.63252 0.06185 0.0
Cd760 Cd 0.01 0.63499 0.08524 0.0
C761 C 0.98703 0.66511 0.09962 0.0
O762 O 0.02708 0.65309 0.07386 0.0
O763 O 0.03694 0.6421 0.0935 0.0
O764 O 0.01406 0.60719 0.08378 0.0
C765 C 0.03781 0.65294 0.08384 0.0
O766 O 0.99163 0.67431 0.08913 0.0
C767 C 0.01192 0.6051 0.09812 0.0
O768 O 0.99155 0.65112 0.09994 0.0
O769 O 0.00882 0.61688 0.10622 0.0
C770 C 0.63212 0.76638 0.35468 0.0
O771 O 0.62402 0.76553 0.36688 0.0
Cd772 Cd 0.59931 0.75382 0.36953 0.0
O773 O 0.62711 0.76136 0.34182 0.0
Cd774 Cd 0.60342 0.74926 0.33068 0.0
C775 C 0.57948 0.77735 0.34355 0.0
O776 O 0.60314 0.73303 0.35284 0.0
O777 O 0.58519 0.72783 0.33641 0.0
O778 O 0.62456 0.74013 0.31481 0.0
C779 C 0.59164 0.72478 0.34916 0.0
O780 O 0.58271 0.77214 0.35683 0.0
C781 C 0.61629 0.73645 0.30331 0.0
O782 O 0.58551 0.77171 0.33137 0.0
O783 O 0.60186 0.73992 0.30391 0.0
C784 C 0.94856 0.50804 0.64038 0.0
O785 O 0.94922 0.506 0.6549 0.0
Cd786 Cd 0.93364 0.48882 0.67099 0.0
O787 O 0.93841 0.50116 0.63213 0.0
Cd788 Cd 0.91611 0.48377 0.63408 0.0
C789 C 0.89812 0.50553 0.66317 0.0
O790 O 0.92803 0.46911 0.65344 0.0
O791 O 0.91089 0.45634 0.64123 0.0
O792 O 0.91718 0.47948 0.60621 0.0
C793 C 0.91941 0.45737 0.65307 0.0
O794 O 0.90853 0.50206 0.67308 0.0
C795 C 0.90239 0.48043 0.60467 0.0
O796 O 0.89904 0.50101 0.64924 0.0
O797 O 0.8944 0.48301 0.61672 0.0
C798 C 0.73835 0.69552 0.89256 0.0
O799 O 0.74146 0.69566 0.90687 0.0
Cd800 Cd 0.7588 0.67734 0.91978 0.0
O801 O 0.74381 0.68506 0.88389 0.0
Cd802 Cd 0.75914 0.66162 0.88535 0.0
C803 C 0.7368 0.64529 0.91415 0.0
O804 O 0.77988 0.67094 0.9026 0.0
O805 O 0.78159 0.64771 0.89404 0.0
O806 O 0.76746 0.66448 0.8586 0.0
C807 C 0.7871 0.65816 0.90257 0.0
O808 O 0.7428 0.65446 0.92392 0.0
C809 C 0.76161 0.65174 0.85429 0.0
O810 O 0.74007 0.64638 0.8999 0.0
O811 O 0.75451 0.64386 0.8644 0.0
C812 C 0.54577 0.48639 0.13861 0.0
O813 O 0.54289 0.48892 0.15275 0.0
Cd814 Cd 0.5595 0.50504 0.16889 0.0
O815 O 0.55724 0.4929 0.13195 0.0
Cd816 Cd 0.57926 0.51054 0.13395 0.0
C817 C 0.59463 0.48638 0.16134 0.0
O818 O 0.5668 0.52595 0.15282 0.0
O819 O 0.58796 0.53558 0.14379 0.0
O820 O 0.57529 0.51879 0.10753 0.0
C821 C 0.57732 0.53613 0.15391 0.0
O822 O 0.58297 0.48897 0.1701 0.0
C823 C 0.58889 0.51478 0.10315 0.0
O824 O 0.59597 0.49273 0.14821 0.0
O825 O 0.59791 0.50891 0.11317 0.0
C826 C 0.75224 0.29653 0.38975 0.0
O827 O 0.74904 0.29579 0.40401 0.0
Cd828 Cd 0.73355 0.31536 0.41742 0.0
O829 O 0.7477 0.30795 0.38184 0.0
Cd830 Cd 0.73431 0.3323 0.38554 0.0
C831 C 0.7586 0.34519 0.41381 0.0
O832 O 0.71184 0.32518 0.40245 0.0
O833 O 0.71558 0.34903 0.3965 0.0
O834 O 0.72536 0.33134 0.35882 0.0
C835 C 0.7074 0.33913 0.40343 0.0
O836 O 0.75133 0.3365 0.42317 0.0
C837 C 0.73126 0.3443 0.35533 0.0
O838 O 0.75569 0.34468 0.39946 0.0
O839 O 0.73866 0.35136 0.36581 0.0
C840 C 0.94788 0.48598 0.85334 0.0
O841 O 0.94746 0.48851 0.83892 0.0
Cd842 Cd 0.93097 0.50667 0.82518 0.0
O843 O 0.9385 0.49267 0.86253 0.0
Cd844 Cd 0.91591 0.50979 0.86219 0.0
C845 C 0.89697 0.48801 0.83421 0.0
O846 O 0.92651 0.52658 0.84316 0.0
O847 O 0.90539 0.53472 0.85353 0.0
O848 O 0.91978 0.51785 0.88889 0.0
C849 C 0.91551 0.53631 0.84304 0.0
O850 O 0.90621 0.49282 0.82376 0.0
C851 C 0.9063 0.51338 0.8932 0.0
O852 O 0.89881 0.49168 0.84829 0.0
O853 O 0.89762 0.50716 0.88312 0.0
C854 C 0.7518 0.69607 0.1052 0.0
O855 O 0.74859 0.6963 0.09089 0.0
Cd856 Cd 0.73232 0.67741 0.0771 0.0
O857 O 0.74704 0.68515 0.11372 0.0
Cd858 Cd 0.73303 0.66082 0.11307 0.0
C859 C 0.75524 0.64565 0.08312 0.0
O860 O 0.71317 0.66843 0.09483 0.0
O861 O 0.70983 0.64661 0.10572 0.0
O862 O 0.72592 0.66318 0.14019 0.0
C863 C 0.70624 0.65555 0.09479 0.0
O864 O 0.74916 0.65503 0.07356 0.0
C865 C 0.73206 0.65039 0.14399 0.0
O866 O 0.75201 0.64631 0.09744 0.0
O867 O 0.73881 0.64277 0.13344 0.0
C868 C 0.54378 0.50797 0.35458 0.0
O869 O 0.54381 0.50582 0.34007 0.0
Cd870 Cd 0.56026 0.48831 0.32518 0.0
O871 O 0.55365 0.50135 0.36333 0.0
Cd872 Cd 0.5764 0.48461 0.36218 0.0
C873 C 0.59476 0.50642 0.33359 0.0
O874 O 0.56472 0.46868 0.34335 0.0
O875 O 0.58295 0.45751 0.35552 0.0
O876 O 0.57427 0.4819 0.39021 0.0
C877 C 0.57421 0.45758 0.34381 0.0
O878 O 0.58495 0.50229 0.32336 0.0
C879 C 0.58906 0.4815 0.39196 0.0
O880 O 0.59339 0.50224 0.34758 0.0
O881 O 0.5975 0.48282 0.38003 0.0
C882 C 0.73562 0.29949 0.60462 0.0
O883 O 0.73798 0.29972 0.59018 0.0
Cd884 Cd 0.75574 0.3174 0.57688 0.0
O885 O 0.74186 0.30949 0.61331 0.0
Cd886 Cd 0.7574 0.33271 0.61051 0.0
C887 C 0.73523 0.35008 0.58243 0.0
O888 O 0.77799 0.32286 0.59297 0.0
O889 O 0.77968 0.34624 0.60112 0.0
O890 O 0.76603 0.33051 0.63727 0.0
C891 C 0.78528 0.33559 0.5929 0.0
O892 O 0.74117 0.34107 0.57249 0.0
C893 C 0.76097 0.34375 0.64104 0.0
O894 O 0.73813 0.34839 0.59669 0.0
O895 O 0.75413 0.3515 0.63068 0.0
C896 C 0.61241 0.88645 0.48069 0.0
O897 O 0.62095 0.87469 0.48273 0.0
Cd898 Cd 0.64677 0.87467 0.49154 0.0
O899 O 0.61739 0.89997 0.48372 0.0
Cd900 Cd 0.6412 0.91338 0.49422 0.0
C901 C 0.66123 0.90065 0.4639 0.0
O902 O 0.64433 0.89257 0.5113 0.0
O903 O 0.66366 0.90817 0.51206 0.0
O904 O 0.6195 0.92621 0.50538 0.0
C905 C 0.65731 0.89603 0.51713 0.0
O906 O 0.65921 0.88764 0.47028 0.0
C907 C 0.62641 0.93846 0.50927 0.0
O908 O 0.65587 0.91303 0.46975 0.0
O909 O 0.64044 0.94008 0.50467 0.0
C910 C 0.11145 0.60786 0.51111 0.0
O911 O 0.1192 0.62018 0.50899 0.0
Cd912 Cd 0.14581 0.6216 0.50269 0.0
O913 O 0.11763 0.59451 0.5097 0.0
Cd914 Cd 0.1416 0.57898 0.50224 0.0
C915 C 0.15994 0.59289 0.52722 0.0
O916 O 0.14369 0.60125 0.48533 0.0
O917 O 0.16094 0.58396 0.48092 0.0
O918 O 0.11913 0.56445 0.49446 0.0
C919 C 0.15531 0.59703 0.47758 0.0
O920 O 0.153 0.60016 0.51682 0.0
C921 C 0.12655 0.55331 0.48858 0.0
O922 O 0.1579 0.57846 0.52723 0.0
O923 O 0.14122 0.55298 0.49082 0.0
C924 C 0.69621 0.89088 0.73662 0.0
O925 O 0.6996 0.90492 0.73911 0.0
Cd926 Cd 0.68379 0.92041 0.75702 0.0
O927 O 0.68516 0.8844 0.74386 0.0
Cd928 Cd 0.66444 0.88484 0.7623 0.0
C929 C 0.64785 0.91351 0.73997 0.0
O930 O 0.67746 0.90335 0.77749 0.0
O931 O 0.65716 0.89368 0.78818 0.0
O932 O 0.66882 0.85778 0.76816 0.0
C933 C 0.66751 0.9041 0.78825 0.0
O934 O 0.65878 0.92296 0.74323 0.0
C935 C 0.65489 0.85384 0.76481 0.0
O936 O 0.64786 0.89974 0.74497 0.0
O937 O 0.64555 0.86441 0.76059 0.0
C938 C 0.38062 0.38315 0.01258 0.0
O939 O 0.37141 0.37173 0.01159 0.0
Cd940 Cd 0.34502 0.37254 0.0041 0.0
O941 O 0.37595 0.3968 0.00967 0.0
Cd942 Cd 0.35234 0.41149 0.00096 0.0
C943 C 0.33196 0.39917 0.03166 0.0
O944 O 0.34858 0.39033 0.9844 0.0
O945 O 0.33194 0.40829 0.98038 0.0
O946 O 0.37454 0.42562 0.99146 0.0
C947 C 0.33701 0.39506 0.97687 0.0
O948 O 0.33359 0.386 0.02552 0.0
C949 C 0.36721 0.43783 0.98811 0.0
O950 O 0.33743 0.41131 0.02543 0.0
O951 O 0.35289 0.43843 0.992 0.0
C952 C 0.29821 0.60579 0.73716 0.0
O953 O 0.2943 0.59225 0.74104 0.0
Cd954 Cd 0.31138 0.57817 0.75894 0.0
O955 O 0.30987 0.61228 0.74339 0.0
Cd956 Cd 0.33041 0.60959 0.76199 0.0
C957 C 0.34581 0.5816 0.73933 0.0
O958 O 0.3176 0.59312 0.78172 0.0
O959 O 0.34237 0.59798 0.78342 0.0
O960 O 0.32833 0.63706 0.76861 0.0
C961 C 0.3304 0.5916 0.78905 0.0
O962 O 0.33539 0.57242 0.74438 0.0
C963 C 0.34292 0.63936 0.76684 0.0
O964 O 0.34577 0.5957 0.74313 0.0
O965 O 0.35121 0.62797 0.76279 0.0
C966 C 0.88117 0.10984 0.98084 0.0
O967 O 0.872 0.12121 0.98252 0.0
Cd968 Cd 0.84628 0.12039 0.99191 0.0
O969 O 0.87682 0.09615 0.98408 0.0
Cd970 Cd 0.85363 0.08174 0.99424 0.0
C971 C 0.83183 0.09419 0.96466 0.0
O972 O 0.85103 0.1027 0.0115 0.0
O973 O 0.8336 0.08542 0.01505 0.0
O974 O 0.8755 0.06673 0.00351 0.0
C975 C 0.83942 0.09818 0.01909 0.0
O976 O 0.83364 0.10726 0.97098 0.0
C977 C 0.86777 0.05468 0.00654 0.0
O978 O 0.83784 0.08203 0.97033 0.0
O979 O 0.85347 0.05464 0.00257 0.0
C980 C 0.70019 0.10475 0.75682 0.0
O981 O 0.69879 0.09031 0.7549 0.0
Cd982 Cd 0.68055 0.07755 0.73746 0.0
O983 O 0.69089 0.11406 0.75024 0.0
Cd984 Cd 0.66696 0.1116 0.73544 0.0
C985 C 0.64888 0.08541 0.75875 0.0
O986 O 0.6765 0.09359 0.71541 0.0
O987 O 0.65278 0.10177 0.71395 0.0
O988 O 0.66874 0.13883 0.72774 0.0
C989 C 0.66355 0.09362 0.70828 0.0
O990 O 0.65621 0.07475 0.75181 0.0
C991 C 0.65448 0.14141 0.73109 0.0
O992 O 0.65207 0.09947 0.7563 0.0
O993 O 0.64669 0.13037 0.73671 0.0
C994 C 0.79584 0.88863 0.25965 0.0
O995 O 0.79173 0.90197 0.25532 0.0
Cd996 Cd 0.81003 0.91562 0.23811 0.0
O997 O 0.80785 0.88237 0.2539 0.0
Cd998 Cd 0.82886 0.88492 0.23589 0.0
C999 C 0.84333 0.91234 0.25936 0.0
O1000 O 0.81848 0.90187 0.2151 0.0
O1001 O 0.8434 0.89743 0.21681 0.0
O1002 O 0.82632 0.85825 0.22716 0.0
C1003 C 0.8322 0.90361 0.2096 0.0
O1004 O 0.83322 0.92154 0.25377 0.0
C1005 C 0.84014 0.85462 0.23118 0.0
O1006 O 0.8434 0.89821 0.25566 0.0
O1007 O 0.84843 0.86508 0.23725 0.0
C1008 C 0.48765 0.35507 0.04083 0.0
O1009 O 0.49122 0.34088 0.04069 0.0
Cd1010 Cd 0.50711 0.32803 0.06011 0.0
O1011 O 0.49222 0.36362 0.05174 0.0
Cd1012 Cd 0.5062 0.36062 0.0757 0.0
C1013 C 0.4833 0.33285 0.09097 0.0
O1014 O 0.52851 0.34363 0.06882 0.0
O1015 O 0.52469 0.34986 0.09268 0.0
O1016 O 0.5174 0.38619 0.07439 0.0
C1017 C 0.53296 0.34301 0.08277 0.0
O1018 O 0.4905 0.32332 0.0824 0.0
C1019 C 0.51038 0.39103 0.08634 0.0
O1020 O 0.48552 0.34724 0.08958 0.0
O1021 O 0.50114 0.38178 0.093 0.0
C1022 C 0.39037 0.73841 0.7976 0.0
O1023 O 0.40493 0.74034 0.79998 0.0
Cd1024 Cd 0.41763 0.7582 0.81798 0.0
O1025 O 0.38027 0.74528 0.80582 0.0
Cd1026 Cd 0.38086 0.7598 0.82962 0.0
C1027 C 0.40771 0.73703 0.84869 0.0
O1028 O 0.40073 0.77928 0.82368 0.0
O1029 O 0.38896 0.78105 0.8454 0.0
O1030 O 0.35373 0.76829 0.82661 0.0
C1031 C 0.40013 0.78541 0.83692 0.0
O1032 O 0.41895 0.74356 0.84167 0.0
C1033 C 0.34929 0.76192 0.83907 0.0
O1034 O 0.39352 0.73973 0.84515 0.0
O1035 O 0.35951 0.7546 0.8467 0.0
C1036 C 0.00649 0.63599 0.5437 0.0
O1037 O 0.00425 0.65037 0.54213 0.0
Cd1038 Cd 0.98845 0.66663 0.55892 0.0
O1039 O 0.00034 0.62874 0.55481 0.0
Cd1040 Cd 0.9844 0.6343 0.57702 0.0
C1041 C 0.00894 0.66094 0.59202 0.0
O1042 O 0.96557 0.65252 0.56578 0.0
O1043 O 0.96397 0.64762 0.59007 0.0
O1044 O 0.97396 0.60833 0.57654 0.0
C1045 C 0.95882 0.65489 0.57856 0.0
O1046 O 0.00346 0.67077 0.58258 0.0
C1047 C 0.97876 0.60523 0.59005 0.0
O1048 O 0.0052 0.64684 0.59119 0.0
O1049 O 0.98584 0.61578 0.59731 0.0
C1050 C 0.10676 0.25467 0.29872 0.0
O1051 O 0.09243 0.25164 0.29634 0.0
Cd1052 Cd 0.07675 0.23625 0.31416 0.0
O1053 O 0.11358 0.24959 0.31065 0.0
Cd1054 Cd 0.10868 0.23452 0.33365 0.0
C1055 C 0.07979 0.25869 0.34618 0.0
O1056 O 0.09163 0.21422 0.32282 0.0
O1057 O 0.09751 0.21334 0.347 0.0
O1058 O 0.13609 0.22688 0.33228 0.0
C1059 C 0.09018 0.20757 0.33578 0.0
O1060 O 0.07085 0.2533 0.33578 0.0
C1061 C 0.13899 0.23065 0.34612 0.0
O1062 O 0.09397 0.25439 0.34713 0.0
O1063 O 0.1278 0.23618 0.35394 0.0
C1064 C 0.4883 0.63569 0.45513 0.0
O1065 O 0.49415 0.6488 0.45785 0.0
Cd1066 Cd 0.50864 0.66211 0.43819 0.0
O1067 O 0.49147 0.62875 0.4427 0.0
Cd1068 Cd 0.50752 0.63292 0.42001 0.0
C1069 C 0.48112 0.65901 0.40994 0.0
O1070 O 0.53072 0.64906 0.42654 0.0
O1071 O 0.52208 0.64811 0.40307 0.0
O1072 O 0.51769 0.60667 0.41954 0.0
C1073 C 0.5328 0.65193 0.41231 0.0
O1074 O 0.48815 0.66781 0.41938 0.0
C1075 C 0.51257 0.60412 0.40604 0.0
O1076 O 0.48524 0.6451 0.40834 0.0
O1077 O 0.50511 0.61485 0.39948 0.0
C1078 C 0.10528 0.73634 0.19379 0.0
O1079 O 0.09067 0.73831 0.19592 0.0
Cd1080 Cd 0.07345 0.75493 0.18053 0.0
O1081 O 0.11237 0.74322 0.18293 0.0
Cd1082 Cd 0.10906 0.76062 0.16126 0.0
C1083 C 0.0801 0.73727 0.14573 0.0
O1084 O 0.08972 0.77584 0.17364 0.0
O1085 O 0.09911 0.78614 0.15333 0.0
O1086 O 0.13667 0.7672 0.16384 0.0
C1087 C 0.08858 0.78626 0.16356 0.0
O1088 O 0.07049 0.74072 0.1564 0.0
C1089 C 0.13981 0.76442 0.14979 0.0
O1090 O 0.09407 0.74236 0.14567 0.0
O1091 O 0.12857 0.76019 0.14123 0.0
C1092 C 0.00459 0.36142 0.95361 0.0
O1093 O 0.00028 0.34803 0.95758 0.0
Cd1094 Cd 0.98687 0.33135 0.93983 0.0
O1095 O 0.00055 0.36686 0.94066 0.0
Cd1096 Cd 0.98466 0.36037 0.91834 0.0
C1097 C 0.01173 0.33428 0.90866 0.0
O1098 O 0.96403 0.34412 0.92994 0.0
O1099 O 0.96616 0.34512 0.90513 0.0
O1100 O 0.97501 0.38671 0.91856 0.0
C1101 C 0.95878 0.34043 0.9168 0.0
O1102 O 0.00642 0.32629 0.91978 0.0
C1103 C 0.9779 0.38885 0.90438 0.0
O1104 O 0.00626 0.34753 0.90577 0.0
O1105 O 0.9838 0.37774 0.89694 0.0
C1106 C 0.38708 0.25616 0.69618 0.0
O1107 O 0.40148 0.2534 0.69873 0.0
Cd1108 Cd 0.41796 0.23744 0.68237 0.0
O1109 O 0.38001 0.24989 0.68493 0.0
Cd1110 Cd 0.38231 0.23239 0.66303 0.0
C1111 C 0.41014 0.2571 0.64849 0.0
O1112 O 0.40155 0.21678 0.67495 0.0
O1113 O 0.39253 0.20747 0.65401 0.0
O1114 O 0.35501 0.22521 0.66659 0.0
C1115 C 0.40292 0.20689 0.66437 0.0
O1116 O 0.4192 0.25408 0.65974 0.0
C1117 C 0.35114 0.22873 0.65289 0.0
O1118 O 0.39677 0.2508 0.64715 0.0
O1119 O 0.36188 0.23362 0.64405 0.0
C1120 C 0.04902 0.48637 0.34992 0.0
O1121 O 0.04864 0.4894 0.33561 0.0
Cd1122 Cd 0.067 0.50626 0.32236 0.0
O1123 O 0.05972 0.49187 0.35843 0.0
Cd1124 Cd 0.08336 0.50758 0.35663 0.0
C1125 C 0.10039 0.48551 0.32851 0.0
O1126 O 0.07362 0.52723 0.33898 0.0
O1127 O 0.0977 0.52897 0.34637 0.0
O1128 O 0.07975 0.51935 0.38149 0.0
C1129 C 0.08663 0.53425 0.33827 0.0
O1130 O 0.09052 0.49082 0.3189 0.0
C1131 C 0.0916 0.51314 0.38773 0.0
O1132 O 0.09964 0.48903 0.34272 0.0
O1133 O 0.09956 0.5039 0.37956 0.0
C1134 C 0.25517 0.29298 0.10344 0.0
O1135 O 0.25306 0.29726 0.08961 0.0
Cd1136 Cd 0.23275 0.31363 0.07872 0.0
O1137 O 0.24687 0.29853 0.11417 0.0
Cd1138 Cd 0.23458 0.32351 0.11293 0.0
C1139 C 0.25636 0.34225 0.08608 0.0
O1140 O 0.21177 0.31786 0.09635 0.0
O1141 O 0.21437 0.34073 0.10552 0.0
O1142 O 0.22675 0.32179 0.13982 0.0
C1143 C 0.20641 0.33142 0.09758 0.0
O1144 O 0.24667 0.33775 0.07594 0.0
C1145 C 0.23345 0.33431 0.14352 0.0
O1146 O 0.25612 0.33671 0.09962 0.0
O1147 O 0.24106 0.34123 0.13311 0.0
C1148 C 0.44375 0.50847 0.85068 0.0
O1149 O 0.44338 0.50578 0.83632 0.0
Cd1150 Cd 0.42361 0.48965 0.82432 0.0
O1151 O 0.43358 0.50267 0.85959 0.0
Cd1152 Cd 0.41026 0.48663 0.85887 0.0
C1153 C 0.39186 0.51121 0.83416 0.0
O1154 O 0.41859 0.46709 0.8399 0.0
O1155 O 0.39515 0.46592 0.84919 0.0
O1156 O 0.41605 0.47648 0.88441 0.0
C1157 C 0.40544 0.46028 0.8404 0.0
O1158 O 0.40101 0.50679 0.8235 0.0
C1159 C 0.40339 0.48135 0.89033 0.0
O1160 O 0.39317 0.50618 0.84782 0.0
O1161 O 0.39414 0.48867 0.88158 0.0
C1162 C 0.2399 0.70692 0.60479 0.0
O1163 O 0.24524 0.70784 0.59118 0.0
Cd1164 Cd 0.26096 0.68817 0.57897 0.0
O1165 O 0.24332 0.69558 0.61338 0.0
Cd1166 Cd 0.25772 0.67156 0.61441 0.0
C1167 C 0.23435 0.65869 0.58563 0.0
O1168 O 0.27884 0.67772 0.597 0.0
O1169 O 0.27687 0.65418 0.6044 0.0
O1170 O 0.26774 0.67374 0.64037 0.0
C1171 C 0.28333 0.66389 0.59561 0.0
O1172 O 0.24121 0.6681 0.57663 0.0
C1173 C 0.25986 0.6624 0.64542 0.0
O1174 O 0.23778 0.65786 0.59986 0.0
O1175 O 0.25068 0.65576 0.63608 0.0
C1176 C 0.04644 0.50792 0.14509 0.0
O1177 O 0.04662 0.50378 0.15909 0.0
Cd1178 Cd 0.06702 0.4876 0.17023 0.0
O1179 O 0.05725 0.50374 0.13599 0.0
Cd1180 Cd 0.08175 0.48946 0.13645 0.0
C1181 C 0.09714 0.51253 0.16414 0.0
O1182 O 0.07688 0.46733 0.15396 0.0
O1183 O 0.10054 0.47265 0.14696 0.0
O1184 O 0.07731 0.4786 0.11093 0.0
C1185 C 0.09141 0.46407 0.15453 0.0
O1186 O 0.08871 0.50519 0.17373 0.0
C1187 C 0.08926 0.48481 0.10486 0.0
O1188 O 0.0959 0.51013 0.14972 0.0
O1189 O 0.09754 0.49335 0.11345 0.0
C1190 C 0.23595 0.28858 0.89123 0.0
O1191 O 0.23752 0.292 0.90535 0.0
Cd1192 Cd 0.25571 0.31053 0.91646 0.0
O1193 O 0.24339 0.29605 0.88109 0.0
Cd1194 Cd 0.25434 0.32144 0.8833 0.0
C1195 C 0.23159 0.33949 0.90918 0.0
O1196 O 0.27728 0.31811 0.9005 0.0
O1197 O 0.2706 0.34095 0.89305 0.0
O1198 O 0.26745 0.32109 0.85875 0.0
C1199 C 0.28027 0.33245 0.90003 0.0
O1200 O 0.2404 0.33374 0.91946 0.0
C1201 C 0.25866 0.33117 0.85265 0.0
O1202 O 0.23232 0.33488 0.89531 0.0
O1203 O 0.24724 0.33603 0.86057 0.0
C1204 C 0.44277 0.48704 0.64544 0.0
O1205 O 0.44368 0.48948 0.65987 0.0
Cd1206 Cd 0.42622 0.5054 0.67532 0.0
O1207 O 0.43212 0.49332 0.63732 0.0
Cd1208 Cd 0.40918 0.51035 0.63821 0.0
C1209 C 0.39226 0.48612 0.66525 0.0
O1210 O 0.41959 0.52537 0.65816 0.0
O1211 O 0.40218 0.53732 0.64538 0.0
O1212 O 0.41353 0.51481 0.61086 0.0
C1213 C 0.41062 0.53687 0.65733 0.0
O1214 O 0.40305 0.48895 0.67498 0.0
C1215 C 0.39916 0.51315 0.60738 0.0
O1216 O 0.39201 0.49238 0.652 0.0
O1217 O 0.38969 0.51038 0.6183 0.0
C1218 C 0.2564 0.70317 0.3899 0.0
O1219 O 0.25174 0.70402 0.40374 0.0
Cd1220 Cd 0.23581 0.68444 0.41586 0.0
O1221 O 0.2518 0.6923 0.38129 0.0
Cd1222 Cd 0.23551 0.66952 0.3833 0.0
C1223 C 0.26095 0.65502 0.40918 0.0
O1224 O 0.21344 0.67582 0.40102 0.0
O1225 O 0.21847 0.65216 0.395 0.0
O1226 O 0.22556 0.67087 0.35676 0.0
C1227 C 0.20959 0.66168 0.40162 0.0
O1228 O 0.25487 0.6638 0.41924 0.0
C1229 C 0.2307 0.65748 0.35363 0.0
O1230 O 0.2566 0.65541 0.39524 0.0
O1231 O 0.23831 0.65052 0.364 0.0
C1232 C 0.35571 0.04554 0.48888 0.0
O1233 O 0.34123 0.04448 0.49188 0.0
Cd1234 Cd 0.32763 0.06463 0.50639 0.0
O1235 O 0.36338 0.05715 0.49342 0.0
Cd1236 Cd 0.35967 0.08129 0.50677 0.0
C1237 C 0.33236 0.09429 0.48166 0.0
O1238 O 0.34151 0.07514 0.52844 0.0
O1239 O 0.34718 0.09888 0.52329 0.0
O1240 O 0.38548 0.07964 0.51854 0.0
C1241 C 0.34028 0.08934 0.53191 0.0
O1242 O 0.32261 0.08547 0.48834 0.0
C1243 C 0.3908 0.09157 0.51191 0.0
O1244 O 0.34679 0.09394 0.48522 0.0
O1245 O 0.38164 0.09857 0.50281 0.0
C1246 C 0.85116 0.44609 0.50873 0.0
O1247 O 0.83644 0.4463 0.50642 0.0
Cd1248 Cd 0.82105 0.42875 0.49057 0.0
O1249 O 0.85982 0.43583 0.50265 0.0
Cd1250 Cd 0.85887 0.4127 0.48651 0.0
C1251 C 0.83118 0.39594 0.51053 0.0
O1252 O 0.83859 0.42205 0.47069 0.0
O1253 O 0.85107 0.4033 0.46065 0.0
O1254 O 0.88598 0.41651 0.47901 0.0
C1255 C 0.8392 0.41198 0.46023 0.0
O1256 O 0.82109 0.40621 0.50724 0.0
C1257 C 0.89032 0.40324 0.48349 0.0
O1258 O 0.84487 0.39601 0.50473 0.0
O1259 O 0.87997 0.39457 0.48939 0.0
C1260 C 0.29849 0.09956 0.25949 0.0
O1261 O 0.29789 0.08507 0.25728 0.0
Cd1262 Cd 0.31465 0.06887 0.24104 0.0
O1263 O 0.30921 0.10774 0.25343 0.0
Cd1264 Cd 0.33286 0.1057 0.23766 0.0
C1265 C 0.34917 0.07624 0.25989 0.0
O1266 O 0.32238 0.0864 0.22204 0.0
O1267 O 0.33923 0.09968 0.21001 0.0
O1268 O 0.33048 0.13351 0.23588 0.0
C1269 C 0.33118 0.08749 0.21046 0.0
O1270 O 0.33878 0.06649 0.25592 0.0
C1271 C 0.34519 0.13574 0.23566 0.0
O1272 O 0.34872 0.09016 0.2553 0.0
O1273 O 0.35403 0.12401 0.23646 0.0
C1274 C 0.6357 0.55158 0.00544 0.0
O1275 O 0.6495 0.54753 0.0017 0.0
Cd1276 Cd 0.66628 0.56284 0.98491 0.0
O1277 O 0.6296 0.56368 -0.00019 0.0
Cd1278 Cd 0.63237 0.58568 0.98265 0.0
C1279 C 0.66322 0.59722 0.00535 0.0
O1280 O 0.64946 0.57255 0.96559 0.0
O1281 O 0.64179 0.59446 0.95731 0.0
O1282 O 0.60459 0.58299 0.97721 0.0
C1283 C 0.65117 0.58328 0.95589 0.0
O1284 O 0.67086 0.58533 0.00114 0.0
C1285 C 0.60129 0.59683 0.98067 0.0
O1286 O 0.6494 0.59982 0.00048 0.0
O1287 O 0.61256 0.60546 0.98474 0.0
C1288 C 0.69513 0.39513 0.26021 0.0
O1289 O 0.69637 0.40926 0.25674 0.0
Cd1290 Cd 0.67733 0.42223 0.24042 0.0
O1291 O 0.68378 0.38722 0.25513 0.0
Cd1292 Cd 0.66026 0.3894 0.23956 0.0
C1293 C 0.64483 0.41693 0.26281 0.0
O1294 O 0.6693 0.4067 0.21883 0.0
O1295 O 0.64476 0.4005 0.21991 0.0
O1296 O 0.66445 0.36469 0.22759 0.0
C1297 C 0.65565 0.40759 0.21306 0.0
O1298 O 0.65492 0.4261 0.25716 0.0
C1299 C 0.65255 0.35825 0.23346 0.0
O1300 O 0.64468 0.40278 0.25904 0.0
O1301 O 0.6442 0.3663 0.24248 0.0
C1302 C 0.1399 0.94758 0.98892 0.0
O1303 O 0.15442 0.94842 0.99197 0.0
Cd1304 Cd 0.16899 0.93068 0.00825 0.0
O1305 O 0.13157 0.93664 0.9941 0.0
Cd1306 Cd 0.1328 0.9131 0.00925 0.0
C1307 C 0.16232 0.89809 0.98658 0.0
O1308 O 0.15114 0.92279 0.02758 0.0
O1309 O 0.14234 0.90023 0.03246 0.0
O1310 O 0.10624 0.91675 0.01828 0.0
C1311 C 0.15202 0.91074 0.03572 0.0
O1312 O 0.17179 0.90817 0.99172 0.0
C1313 C 0.10114 0.90421 0.01269 0.0
O1314 O 0.14798 0.898 0.99061 0.0
O1315 O 0.11079 0.89592 0.00529 0.0
C1316 C 0.30008 0.89145 0.23869 0.0
O1317 O 0.29712 0.90537 0.24207 0.0
Cd1318 Cd 0.31483 0.92052 0.2581 0.0
O1319 O 0.31211 0.88487 0.24418 0.0
Cd1320 Cd 0.33479 0.88793 0.26084 0.0
C1321 C 0.34868 0.91582 0.23692 0.0
O1322 O 0.32348 0.90552 0.27965 0.0
O1323 O 0.3478 0.89947 0.2826 0.0
O1324 O 0.32994 0.86224 0.27051 0.0
C1325 C 0.33622 0.90744 0.28694 0.0
O1326 O 0.33755 0.92435 0.24164 0.0
C1327 C 0.34287 0.8567 0.26592 0.0
O1328 O 0.35004 0.90199 0.24156 0.0
O1329 O 0.35224 0.86585 0.25922 0.0
C1330 C 0.19785 0.10016 0.73808 0.0
O1331 O 0.19773 0.0858 0.74064 0.0
Cd1332 Cd 0.1765 0.07373 0.7552 0.0
O1333 O 0.18664 0.10848 0.74274 0.0
Cd1334 Cd 0.16159 0.10538 0.75537 0.0
C1335 C 0.14634 0.0793 0.73086 0.0
O1336 O 0.16685 0.08779 0.77742 0.0
O1337 O 0.14293 0.09344 0.77123 0.0
O1338 O 0.16328 0.12926 0.76935 0.0
C1339 C 0.15232 0.08721 0.78061 0.0
O1340 O 0.15463 0.0693 0.73778 0.0
C1341 C 0.15261 0.13611 0.76187 0.0
O1342 O 0.14784 0.09353 0.7339 0.0
O1343 O 0.14619 0.12874 0.75098 0.0
H1344 H 0.03765 0.14882 0.3941 0.0
H1345 H 0.06019 0.20542 0.32505 0.0
H1346 H 0.00575 0.18129 0.37374 0.0
H1347 H 0.09377 0.18298 0.35438 0.0
H1348 H 0.03925 0.19065 0.33754 0.0
H1349 H 0.0575 0.15616 0.37512 0.0
C1350 C 0.03483 0.1574 0.3855 0.0
C1351 C 0.02023 0.16467 0.38552 0.0
C1352 C 0.05125 0.1887 0.34095 0.0
C1353 C 0.04259 0.17282 0.36363 0.0
C1354 C 0.06319 0.19695 0.33369 0.0
C1355 C 0.07862 0.19549 0.33888 0.0
C1356 C 0.05491 0.17894 0.35334 0.0
C1357 C 0.08194 0.18451 0.3502 0.0
C1358 C 0.0461 0.16154 0.37467 0.0
C1359 C 0.01704 0.17568 0.3742 0.0
N1360 N 0.07016 0.1768 0.35722 0.0
N1361 N 0.02815 0.17945 0.36368 0.0
H1362 H 0.04733 0.82038 0.57161 0.0
H1363 H 0.06936 0.78968 0.6541 0.0
H1364 H 0.04402 0.84796 0.6127 0.0
H1365 H 0.09271 0.77183 0.61389 0.0
H1366 H 0.05827 0.81021 0.63832 0.0
H1367 H 0.06364 0.80185 0.58587 0.0
C1368 C 0.05042 0.82274 0.58346 0.0
C1369 C 0.04419 0.83553 0.59111 0.0
C1370 C 0.0659 0.80184 0.63297 0.0
C1371 C 0.06223 0.81445 0.60741 0.0
C1372 C 0.0721 0.79008 0.64195 0.0
C1373 C 0.08192 0.77909 0.63527 0.0
C1374 C 0.06934 0.80246 0.61717 0.0
C1375 C 0.08519 0.78015 0.61946 0.0
C1376 C 0.05957 0.81215 0.59161 0.0
C1377 C 0.04839 0.83807 0.60648 0.0
N1378 N 0.07879 0.79157 0.61088 0.0
N1379 N 0.05691 0.8275 0.6142 0.0
H1380 H 0.41015 0.77876 0.86541 0.0
H1381 H 0.47847 0.84051 0.86977 0.0
H1382 H 0.42212 0.80606 0.82572 0.0
H1383 H 0.47223 0.80297 0.90165 0.0
H1384 H 0.4579 0.82941 0.8534 0.0
H1385 H 0.43259 0.7889 0.87887 0.0
C1386 C 0.41749 0.78704 0.85954 0.0
C1387 C 0.41413 0.79177 0.8445 0.0
C1388 C 0.46118 0.8236 0.86392 0.0
C1389 C 0.44013 0.80352 0.85999 0.0
C1390 C 0.47286 0.82993 0.8733 0.0
C1391 C 0.47703 0.82272 0.88719 0.0
C1392 C 0.45354 0.81011 0.86861 0.0
C1393 C 0.46944 0.80899 0.89111 0.0
C1394 C 0.43043 0.79275 0.86723 0.0
C1395 C 0.4243 0.80222 0.83737 0.0
N1396 N 0.45804 0.80325 0.88196 0.0
N1397 N 0.43682 0.80794 0.84527 0.0
H1398 H 0.47257 0.16892 0.09928 0.0
H1399 H 0.3976 0.22108 0.11467 0.0
H1400 H 0.42945 0.16374 0.07425 0.0
H1401 H 0.43587 0.21564 0.14656 0.0
H1402 H 0.41143 0.20488 0.0962 0.0
H1403 H 0.46179 0.19134 0.11239 0.0
C1404 C 0.46092 0.17281 0.0963 0.0
C1405 C 0.45175 0.1645 0.08586 0.0
C1406 C 0.41682 0.20731 0.1072 0.0
C1407 C 0.43924 0.18984 0.101 0.0
C1408 C 0.40894 0.2165 0.11778 0.0
C1409 C 0.41553 0.21953 0.13226 0.0
C1410 C 0.4314 0.20112 0.11111 0.0
C1411 C 0.43031 0.21347 0.13559 0.0
C1412 C 0.45475 0.18551 0.10385 0.0
C1413 C 0.43679 0.16989 0.08231 0.0
N1414 N 0.43772 0.20447 0.12511 0.0
N1415 N 0.43086 0.18217 0.09006 0.0
H1416 H 0.01192 0.79999 0.10539 0.0
H1417 H 0.08368 0.81667 0.15843 0.0
H1418 H 0.0204 0.84568 0.12288 0.0
H1419 H 0.0603 0.77286 0.15929 0.0
H1420 H 0.06085 0.82791 0.14558 0.0
H1421 H 0.0302 0.78977 0.12444 0.0
C1422 C 0.01755 0.80787 0.11328 0.0
C1423 C 0.01469 0.82374 0.11245 0.0
C1424 C 0.06055 0.81593 0.14892 0.0
C1425 C 0.03564 0.81209 0.13425 0.0
C1426 C 0.07351 0.80957 0.15632 0.0
C1427 C 0.07371 0.79392 0.16004 0.0
C1428 C 0.04803 0.80639 0.14471 0.0
C1429 C 0.06043 0.78505 0.15682 0.0
C1430 C 0.02789 0.80201 0.12423 0.0
C1431 C 0.02229 0.83338 0.12305 0.0
N1432 N 0.04823 0.79133 0.14901 0.0
N1433 N 0.03257 0.82742 0.13337 0.0
H1434 H 0.39093 0.78743 0.36697 0.0
H1435 H 0.47029 0.8164 0.40527 0.0
H1436 H 0.43664 0.77607 0.34931 0.0
H1437 H 0.42518 0.83601 0.4151 0.0
H1438 H 0.45779 0.79712 0.38889 0.0
H1439 H 0.40309 0.80165 0.38786 0.0
C1440 C 0.40357 0.78806 0.36741 0.0
C1441 C 0.4128 0.78066 0.35631 0.0
C1442 C 0.45057 0.80538 0.39494 0.0
C1443 C 0.42681 0.79681 0.38039 0.0
C1444 C 0.45767 0.8162 0.40448 0.0
C1445 C 0.44866 0.82762 0.4116 0.0
C1446 C 0.43439 0.80612 0.39251 0.0
C1447 C 0.43244 0.82723 0.40991 0.0
C1448 C 0.41049 0.7961 0.37941 0.0
C1449 C 0.4291 0.78177 0.35752 0.0
N1450 N 0.4258 0.81672 0.40038 0.0
N1451 N 0.43561 0.7897 0.36939 0.0
H1452 H 0.41192 0.17682 0.66365 0.0
H1453 H 0.47524 0.19481 0.60049 0.0
H1454 H 0.42766 0.2228 0.65398 0.0
H1455 H 0.47451 0.15111 0.62404 0.0
H1456 H 0.45688 0.20494 0.61945 0.0
H1457 H 0.4346 0.16665 0.64956 0.0
C1458 C 0.42045 0.18472 0.65895 0.0
C1459 C 0.41818 0.20061 0.66008 0.0
C1460 C 0.46089 0.19319 0.62056 0.0
C1461 C 0.44345 0.18923 0.64336 0.0
C1462 C 0.47131 0.18736 0.60969 0.0
C1463 C 0.47644 0.17207 0.61065 0.0
C1464 C 0.45541 0.18364 0.63241 0.0
C1465 C 0.47085 0.16295 0.62281 0.0
C1466 C 0.43328 0.17896 0.65083 0.0
C1467 C 0.42926 0.21047 0.65353 0.0
N1468 N 0.46054 0.16884 0.63315 0.0
N1469 N 0.44127 0.20463 0.64519 0.0
H1470 H 0.05627 0.22156 0.84941 0.0
H1471 H 0.06616 0.15517 0.91137 0.0
H1472 H 0.10088 0.20196 0.86165 0.0
H1473 H 0.02384 0.18146 0.90622 0.0
H1474 H 0.07979 0.17366 0.89491 0.0
H1475 H 0.0442 0.20738 0.87068 0.0
C1476 C 0.06345 0.21408 0.85641 0.0
C1477 C 0.07953 0.21276 0.85371 0.0
C1478 C 0.06762 0.17564 0.89768 0.0
C1479 C 0.06598 0.19683 0.87817 0.0
C1480 C 0.05995 0.16521 0.90724 0.0
C1481 C 0.044 0.16698 0.91015 0.0
C1482 C 0.05908 0.18759 0.89073 0.0
C1483 C 0.03624 0.17989 0.90428 0.0
C1484 C 0.05664 0.20619 0.86869 0.0
C1485 C 0.0884 0.20318 0.86332 0.0
N1486 N 0.04379 0.18959 0.89457 0.0
N1487 N 0.08151 0.19555 0.87508 0.0
H1488 H 0.39097 0.01229 0.19362 0.0
H1489 H 0.34036 0.08635 0.18048 0.0
H1490 H 0.37818 0.02662 0.14779 0.0
H1491 H 0.33489 0.05826 0.22093 0.0
H1492 H 0.35463 0.06525 0.16805 0.0
H1493 H 0.3715 0.03 0.20409 0.0
C1494 C 0.38406 0.01914 0.18574 0.0
C1495 C 0.38631 0.01805 0.16978 0.0
C1496 C 0.35001 0.0636 0.17953 0.0
C1497 C 0.36402 0.03835 0.18173 0.0
C1498 C 0.34183 0.07559 0.18657 0.0
C1499 C 0.33636 0.07395 0.20167 0.0
C1500 C 0.35317 0.05014 0.18787 0.0
C1501 C 0.33873 0.05988 0.20919 0.0
C1502 C 0.37286 0.02914 0.19173 0.0
C1503 C 0.37689 0.02712 0.16016 0.0
N1504 N 0.34725 0.04861 0.20233 0.0
N1505 N 0.36629 0.03704 0.16629 0.0
H1506 H 0.18485 0.08167 0.46861 0.0
H1507 H 0.21896 0.12917 0.39734 0.0
H1508 H 0.15726 0.09373 0.42897 0.0
H1509 H 0.23536 0.13471 0.44393 0.0
H1510 H 0.2001 0.10999 0.4064 0.0
H1511 H 0.20746 0.09455 0.45694 0.0
C1512 C 0.18374 0.08651 0.45719 0.0
C1513 C 0.16926 0.08661 0.44965 0.0
C1514 C 0.20796 0.1153 0.41458 0.0
C1515 C 0.19487 0.10143 0.43638 0.0
C1516 C 0.21873 0.12621 0.40944 0.0
C1517 C 0.22863 0.13365 0.41993 0.0
C1518 C 0.20729 0.1116 0.43028 0.0
C1519 C 0.22781 0.12939 0.43548 0.0
C1520 C 0.19656 0.09402 0.45064 0.0
C1521 C 0.16828 0.0934 0.43507 0.0
N1522 N 0.21731 0.11865 0.44019 0.0
N1523 N 0.1809 0.10061 0.42892 0.0
H1524 H 0.1205 0.97823 0.65196 0.0
H1525 H 0.13635 0.92575 0.72589 0.0
H1526 H 0.09134 0.97618 0.69244 0.0
H1527 H 0.16132 0.91906 0.6834 0.0
H1528 H 0.12318 0.94792 0.7148 0.0
H1529 H 0.13845 0.95971 0.66403 0.0
C1530 C 0.11789 0.97395 0.66336 0.0
C1531 C 0.10436 0.97876 0.67117 0.0
C1532 C 0.13164 0.94177 0.70787 0.0
C1533 C 0.12478 0.95771 0.68497 0.0
C1534 C 0.13923 0.9292 0.71425 0.0
C1535 C 0.14983 0.92068 0.70549 0.0
C1536 C 0.13452 0.94578 0.69249 0.0
C1537 C 0.15317 0.92546 0.69046 0.0
C1538 C 0.12813 0.96342 0.67023 0.0
C1539 C 0.10161 0.9729 0.68596 0.0
N1540 N 0.14537 0.93767 0.68431 0.0
N1541 N 0.11167 0.96269 0.6923 0.0
H1542 H 0.26874 0.87198 0.89978 0.0
H1543 H 0.3147 0.90013 0.97466 0.0
H1544 H 0.26523 0.85033 0.94434 0.0
H1545 H 0.33028 0.91046 0.92875 0.0
H1546 H 0.29202 0.88673 0.96403 0.0
H1547 H 0.28716 0.8906 0.91063 0.0
C1548 C 0.27178 0.87115 0.91184 0.0
C1549 C 0.26554 0.85945 0.92112 0.0
C1550 C 0.3002 0.89221 0.95626 0.0
C1551 C 0.28645 0.8808 0.93356 0.0
C1552 C 0.31301 0.89998 0.96233 0.0
C1553 C 0.32416 0.90646 0.95252 0.0
C1554 C 0.29855 0.89096 0.94025 0.0
C1555 C 0.32178 0.90566 0.93662 0.0
C1556 C 0.28228 0.88179 0.918 0.0
C1557 C 0.26982 0.85905 0.9367 0.0
N1558 N 0.30921 0.89795 0.93093 0.0
N1559 N 0.28004 0.86953 0.9424 0.0
H1560 H 0.38462 0.96643 0.34998 0.0
H1561 H 0.32865 0.93752 0.28225 0.0
H1562 H 0.38182 0.98855 0.30569 0.0
H1563 H 0.35107 0.90697 0.31441 0.0
H1564 H 0.34045 0.95952 0.29571 0.0
H1565 H 0.36503 0.94768 0.34147 0.0
C1566 C 0.37966 0.9675 0.33857 0.0
C1567 C 0.38492 0.97891 0.32844 0.0
C1568 C 0.34239 0.94801 0.30005 0.0
C1569 C 0.36239 0.95779 0.3188 0.0
C1570 C 0.33554 0.93551 0.29251 0.0
C1571 C 0.33896 0.9205 0.29729 0.0
C1572 C 0.35247 0.94538 0.31253 0.0
C1573 C 0.3482 0.91842 0.31043 0.0
C1574 C 0.36852 0.95682 0.33374 0.0
C1575 C 0.3782 0.97977 0.31375 0.0
N1576 N 0.35474 0.93073 0.31755 0.0
N1577 N 0.36727 0.96932 0.30935 0.0
H1578 H 0.26016 0.11655 0.58809 0.0
H1579 H 0.34328 0.11633 0.5468 0.0
H1580 H 0.28151 0.1556 0.56595 0.0
H1581 H 0.3139 0.07611 0.54477 0.0
H1582 H 0.32351 0.12932 0.56213 0.0
H1583 H 0.2821 0.10036 0.57914 0.0
C1584 C 0.26948 0.12169 0.58143 0.0
C1585 C 0.269 0.13736 0.57756 0.0
C1586 C 0.32147 0.11757 0.55854 0.0
C1587 C 0.29407 0.1192 0.56786 0.0
C1588 C 0.33276 0.11011 0.54985 0.0
C1589 C 0.33006 0.09524 0.54424 0.0
C1590 C 0.30729 0.11016 0.56167 0.0
C1591 C 0.31634 0.08763 0.54878 0.0
C1592 C 0.28192 0.11249 0.57636 0.0
C1593 C 0.28132 0.14353 0.56897 0.0
N1594 N 0.30526 0.0953 0.55707 0.0
N1595 N 0.29337 0.13447 0.5645 0.0
H1596 H 0.12265 0.01352 0.84111 0.0
H1597 H 0.12497 0.09271 0.79497 0.0
H1598 H 0.08301 0.03587 0.82019 0.0
H1599 H 0.16487 0.06241 0.79614 0.0
H1600 H 0.1112 0.07558 0.81243 0.0
H1601 H 0.13955 0.03451 0.83174 0.0
C1602 C 0.11752 0.02292 0.83468 0.0
C1603 C 0.10152 0.02292 0.83111 0.0
C1604 C 0.12306 0.07277 0.80907 0.0
C1605 C 0.12049 0.0469 0.82091 0.0
C1606 C 0.13094 0.08254 0.79914 0.0
C1607 C 0.14592 0.07873 0.79384 0.0
C1608 C 0.13012 0.05898 0.81365 0.0
C1609 C 0.15325 0.06562 0.79985 0.0
C1610 C 0.12713 0.03482 0.82939 0.0
C1611 C 0.09535 0.03532 0.82288 0.0
N1612 N 0.14512 0.05597 0.80927 0.0
N1613 N 0.10485 0.04682 0.81808 0.0
H1614 H 0.21817 0.86856 0.0977 0.0
H1615 H 0.17955 0.90444 0.02213 0.0
H1616 H 0.22854 0.85314 0.0516 0.0
H1617 H 0.15678 0.90562 0.06627 0.0
H1618 H 0.20159 0.89071 0.03371 0.0
H1619 H 0.19922 0.88682 0.08709 0.0
C1620 C 0.21652 0.86903 0.08536 0.0
C1621 C 0.22492 0.85923 0.07553 0.0
C1622 C 0.19194 0.89427 0.04095 0.0
C1623 C 0.20342 0.8802 0.06339 0.0
C1624 C 0.1795 0.90226 0.03439 0.0
C1625 C 0.16655 0.90628 0.04337 0.0
C1626 C 0.19143 0.8904 0.05661 0.0
C1627 C 0.16671 0.90282 0.05908 0.0
C1628 C 0.20571 0.87945 0.07934 0.0
C1629 C 0.2223 0.8604 0.05964 0.0
N1630 N 0.17899 0.89502 0.06525 0.0
N1631 N 0.21179 0.87069 0.05407 0.0
H1632 H 0.19652 0.3201 0.06967 0.0
H1633 H 0.17285 0.40319 0.04347 0.0
H1634 H 0.18957 0.35733 0.10174 0.0
H1635 H 0.15462 0.36391 0.01908 0.0
H1636 H 0.18196 0.38599 0.06388 0.0
H1637 H 0.18246 0.33503 0.05002 0.0
C1638 C 0.19163 0.33118 0.07271 0.0
C1639 C 0.19441 0.33766 0.08722 0.0
C1640 C 0.17594 0.38116 0.05405 0.0
C1641 C 0.17893 0.35477 0.0649 0.0
C1642 C 0.17093 0.39093 0.04237 0.0
C1643 C 0.16302 0.38491 0.02967 0.0
C1644 C 0.17331 0.36526 0.05281 0.0
C1645 C 0.16066 0.36895 0.02879 0.0
C1646 C 0.18376 0.33972 0.06149 0.0
C1647 C 0.18792 0.35207 0.09058 0.0
N1648 N 0.16591 0.35961 0.04018 0.0
N1649 N 0.18076 0.36029 0.0794 0.0
H1650 H 0.64488 0.12821 0.96893 0.0
H1651 H 0.72196 0.15548 0.92549 0.0
H1652 H 0.68701 0.10092 0.96683 0.0
H1653 H 0.67594 0.17313 0.91597 0.0
H1654 H 0.71111 0.13979 0.9463 0.0
H1655 H 0.65794 0.14852 0.95476 0.0
C1656 C 0.65691 0.12646 0.96547 0.0
C1657 C 0.66483 0.11275 0.96891 0.0
C1658 C 0.70346 0.14741 0.93995 0.0
C1659 C 0.67986 0.13612 0.95271 0.0
C1660 C 0.70966 0.1565 0.92827 0.0
C1661 C 0.69975 0.16559 0.91921 0.0
C1662 C 0.6873 0.14757 0.94256 0.0
C1663 C 0.68388 0.1663 0.92284 0.0
C1664 C 0.66436 0.13813 0.95743 0.0
C1665 C 0.68044 0.11125 0.96426 0.0
N1666 N 0.67809 0.15728 0.93422 0.0
N1667 N 0.68747 0.1228 0.95629 0.0
H1668 H 0.16078 0.42207 0.21008 0.0
H1669 H 0.07713 0.44755 0.17803 0.0
H1670 H 0.11838 0.41103 0.23442 0.0
H1671 H 0.12145 0.45472 0.15542 0.0
H1672 H 0.09065 0.43182 0.19759 0.0
H1673 H 0.14541 0.43183 0.18881 0.0
C1674 C 0.14815 0.4218 0.21092 0.0
C1675 C 0.14081 0.416 0.22404 0.0
C1676 C 0.0973 0.43675 0.18822 0.0
C1677 C 0.12292 0.4274 0.19974 0.0
C1678 C 0.0896 0.44565 0.17705 0.0
C1679 C 0.0982 0.45262 0.16519 0.0
C1680 C 0.11363 0.43495 0.18742 0.0
C1681 C 0.11431 0.44976 0.16442 0.0
C1682 C 0.13932 0.42732 0.19874 0.0
C1683 C 0.12441 0.41554 0.22445 0.0
N1684 N 0.12145 0.44132 0.17542 0.0
N1685 N 0.11594 0.42142 0.21252 0.0
H1686 H 0.7706 0.84957 0.41997 0.0
H1687 H 0.8469 0.87042 0.46732 0.0
H1688 H 0.8129 0.82277 0.41837 0.0
H1689 H 0.80506 0.89821 0.4671 0.0
H1690 H 0.83329 0.85073 0.45279 0.0
H1691 H 0.78129 0.86457 0.44112 0.0
C1692 C 0.78206 0.84667 0.42437 0.0
C1693 C 0.79098 0.83506 0.4175 0.0
C1694 C 0.82703 0.86107 0.45596 0.0
C1695 C 0.80356 0.85252 0.4412 0.0
C1696 C 0.83481 0.8724 0.46419 0.0
C1697 C 0.82713 0.88609 0.46825 0.0
C1698 C 0.81148 0.86346 0.4516 0.0
C1699 C 0.81145 0.88792 0.46404 0.0
C1700 C 0.78821 0.8553 0.43635 0.0
C1701 C 0.80577 0.83173 0.42341 0.0
N1702 N 0.80415 0.87674 0.45582 0.0
N1703 N 0.81175 0.84064 0.43483 0.0
H1704 H 0.85218 0.05099 0.23395 0.0
H1705 H 0.90103 0.06674 0.16031 0.0
H1706 H 0.86514 0.09743 0.22207 0.0
H1707 H 0.90774 0.02546 0.18685 0.0
H1708 H 0.88833 0.07874 0.18259 0.0
H1709 H 0.87223 0.04139 0.21642 0.0
C1710 C 0.85932 0.05918 0.22774 0.0
C1711 C 0.85689 0.07505 0.22938 0.0
C1712 C 0.89294 0.06719 0.18366 0.0
C1713 C 0.8798 0.0641 0.20922 0.0
C1714 C 0.9002 0.06039 0.17099 0.0
C1715 C 0.90546 0.04516 0.17184 0.0
C1716 C 0.89041 0.05846 0.19701 0.0
C1717 C 0.90399 0.03729 0.18583 0.0
C1718 C 0.87085 0.05368 0.21783 0.0
C1719 C 0.86659 0.08511 0.22112 0.0
N1720 N 0.89625 0.04391 0.19777 0.0
N1721 N 0.87745 0.07946 0.21118 0.0
H1722 H 0.31248 0.66904 0.58351 0.0
H1723 H 0.30328 0.59629 0.52825 0.0
H1724 H 0.26904 0.64537 0.57539 0.0
H1725 H 0.3468 0.62035 0.53538 0.0
H1726 H 0.28982 0.61622 0.54304 0.0
H1727 H 0.32452 0.65406 0.56264 0.0
C1728 C 0.30544 0.66096 0.57706 0.0
C1729 C 0.28993 0.65813 0.58121 0.0
C1730 C 0.30232 0.61717 0.54131 0.0
C1731 C 0.30346 0.64087 0.5578 0.0
C1732 C 0.31 0.60573 0.53297 0.0
C1733 C 0.32618 0.60658 0.53075 0.0
C1734 C 0.31092 0.62947 0.54752 0.0
C1735 C 0.33431 0.61916 0.53695 0.0
C1736 C 0.31228 0.65234 0.56527 0.0
C1737 C 0.28117 0.6476 0.5726 0.0
N1738 N 0.32661 0.63007 0.54512 0.0
N1739 N 0.28811 0.63919 0.56143 0.0
H1740 H 0.1382 0.59855 0.28296 0.0
H1741 H 0.07632 0.53473 0.30858 0.0
H1742 H 0.12855 0.55771 0.25655 0.0
H1743 H 0.1056 0.55906 0.34074 0.0
H1744 H 0.08806 0.54959 0.2875 0.0
H1745 H 0.11919 0.59002 0.30235 0.0
C1746 C 0.13182 0.58796 0.28111 0.0
C1747 C 0.13496 0.57872 0.26827 0.0
C1748 C 0.09158 0.55191 0.29923 0.0
C1749 C 0.11312 0.56915 0.29006 0.0
C1750 C 0.08481 0.54358 0.31123 0.0
C1751 C 0.09015 0.54565 0.32631 0.0
C1752 C 0.1035 0.56252 0.30248 0.0
C1753 C 0.1013 0.55709 0.32919 0.0
C1754 C 0.12104 0.58311 0.29214 0.0
C1755 C 0.12653 0.56504 0.26641 0.0
N1756 N 0.10772 0.56505 0.31735 0.0
N1757 N 0.11597 0.56064 0.27721 0.0
H1758 H 0.41626 0.45438 0.81114 0.0
H1759 H 0.33551 0.42005 0.79012 0.0
H1760 H 0.38409 0.43812 0.84567 0.0
H1761 H 0.37463 0.41 0.76057 0.0
H1762 H 0.3537 0.42801 0.81029 0.0
H1763 H 0.40265 0.43846 0.79193 0.0
C1764 C 0.40669 0.44708 0.81476 0.0
C1765 C 0.40101 0.44778 0.82987 0.0
C1766 C 0.35834 0.42397 0.79943 0.0
C1767 C 0.38536 0.43002 0.80814 0.0
C1768 C 0.34797 0.41961 0.78792 0.0
C1769 C 0.35367 0.41457 0.77374 0.0
C1770 C 0.3745 0.42373 0.79656 0.0
C1771 C 0.36989 0.41393 0.77142 0.0
C1772 C 0.39891 0.43808 0.80382 0.0
C1773 C 0.38858 0.43816 0.83402 0.0
N1774 N 0.37982 0.41875 0.78266 0.0
N1775 N 0.38095 0.42993 0.82315 0.0
H1776 H 0.90394 0.80676 0.64306 0.0
H1777 H 0.98146 0.80543 0.59851 0.0
H1778 H 0.94171 0.77673 0.656 0.0
H1779 H 0.95787 0.84893 0.60434 0.0
H1780 H 0.96585 0.79478 0.61933 0.0
H1781 H 0.92275 0.82373 0.63024 0.0
C1782 C 0.91631 0.80421 0.64389 0.0
C1783 C 0.9214 0.79044 0.65056 0.0
C1784 C 0.96419 0.8067 0.61616 0.0
C1785 C 0.94266 0.8091 0.63528 0.0
C1786 C 0.97292 0.81273 0.60411 0.0
C1787 C 0.9709 0.82807 0.59962 0.0
C1788 C 0.95309 0.81595 0.62362 0.0
C1789 C 0.95974 0.83702 0.60742 0.0
C1790 C 0.927 0.81376 0.63642 0.0
C1791 C 0.93743 0.78735 0.65103 0.0
N1792 N 0.95108 0.83076 0.61895 0.0
N1793 N 0.94749 0.79638 0.64306 0.0
H1794 H 0.94829 0.18243 0.42109 0.0
H1795 H 0.92434 0.21083 0.34123 0.0
H1796 H 0.93484 0.1509 0.38522 0.0
H1797 H 0.90531 0.23585 0.37971 0.0
H1798 H 0.93024 0.18936 0.35829 0.0
H1799 H 0.93309 0.20276 0.40817 0.0
C1800 C 0.94165 0.17964 0.41086 0.0
C1801 C 0.94305 0.16513 0.40397 0.0
C1802 C 0.92469 0.19951 0.36302 0.0
C1803 C 0.92619 0.18814 0.38914 0.0
C1804 C 0.92151 0.2118 0.35334 0.0
C1805 C 0.91451 0.2251 0.35917 0.0
C1806 C 0.92128 0.20066 0.37876 0.0
C1807 C 0.91081 0.22573 0.37489 0.0
C1808 C 0.93308 0.19123 0.40347 0.0
C1809 C 0.93431 0.16207 0.39069 0.0
N1810 N 0.91452 0.21374 0.38429 0.0
N1811 N 0.92657 0.17358 0.38349 0.0
H1812 H 0.52275 0.18744 0.08373 0.0
H1813 H 0.57221 0.19079 0.16087 0.0
H1814 H 0.51665 0.15185 0.11781 0.0
H1815 H 0.55782 0.23003 0.13407 0.0
H1816 H 0.55419 0.17458 0.14552 0.0
H1817 H 0.53977 0.2011 0.10135 0.0
C1818 C 0.52496 0.18251 0.09496 0.0
C1819 C 0.51805 0.16863 0.0994 0.0
C1820 C 0.55489 0.1868 0.14326 0.0
C1821 C 0.53745 0.18436 0.1198 0.0
C1822 C 0.56498 0.19601 0.15209 0.0
C1823 C 0.56653 0.21166 0.14856 0.0
C1824 C 0.54668 0.19344 0.1309 0.0
C1825 C 0.55709 0.21795 0.13701 0.0
C1826 C 0.53465 0.19034 0.10505 0.0
C1827 C 0.52167 0.16261 0.114 0.0
N1828 N 0.54777 0.20881 0.12849 0.0
N1829 N 0.53109 0.17058 0.12379 0.0
H1830 H 0.55006 0.7675 0.85196 0.0
H1831 H 0.57025 0.83604 0.90665 0.0
H1832 H 0.59712 0.77383 0.86877 0.0
H1833 H 0.52513 0.81416 0.90756 0.0
H1834 H 0.58087 0.81365 0.89296 0.0
H1835 H 0.54072 0.78552 0.87149 0.0
C1836 C 0.55842 0.77262 0.85978 0.0
C1837 C 0.57441 0.76917 0.85868 0.0
C1838 C 0.56874 0.81359 0.8965 0.0
C1839 C 0.56378 0.78977 0.88104 0.0
C1840 C 0.56275 0.82627 0.90439 0.0
C1841 C 0.54689 0.82676 0.90833 0.0
C1842 C 0.5586 0.8017 0.89203 0.0
C1843 C 0.53749 0.81403 0.90491 0.0
C1844 C 0.55307 0.7828 0.871 0.0
C1845 C 0.5847 0.77617 0.86916 0.0
N1846 N 0.54339 0.80215 0.89662 0.0
N1847 N 0.57923 0.78626 0.8798 0.0
H1848 H 0.95777 0.14704 0.89608 0.0
H1849 H 0.93827 0.21252 0.83474 0.0
H1850 H 0.98705 0.18618 0.88639 0.0
H1851 H 0.90286 0.18983 0.86162 0.0
H1852 H 0.95792 0.19507 0.84562 0.0
H1853 H 0.93924 0.15598 0.87637 0.0
C1854 C 0.96035 0.1574 0.88967 0.0
C1855 C 0.97376 0.16607 0.89296 0.0
C1856 C 0.94575 0.19357 0.84869 0.0
C1857 C 0.95308 0.17595 0.87023 0.0
C1858 C 0.93454 0.20335 0.84233 0.0
C1859 C 0.91905 0.20257 0.84743 0.0
C1860 C 0.94129 0.18298 0.86006 0.0
C1861 C 0.91477 0.19073 0.8575 0.0
C1862 C 0.94986 0.16243 0.87843 0.0
C1863 C 0.97667 0.17937 0.88436 0.0
N1864 N 0.9259 0.18151 0.86372 0.0
N1865 N 0.96639 0.18391 0.87337 0.0
H1866 H 0.5371 0.18414 0.57707 0.0
H1867 H 0.59874 0.20763 0.64199 0.0
H1868 H 0.56547 0.15172 0.60205 0.0
H1869 H 0.55989 0.2359 0.6278 0.0
H1870 H 0.59189 0.18901 0.62197 0.0
H1871 H 0.55142 0.20526 0.58942 0.0
C1872 C 0.54678 0.18149 0.58465 0.0
C1873 C 0.55007 0.16625 0.58872 0.0
C1874 C 0.58499 0.19938 0.62313 0.0
C1875 C 0.56615 0.19013 0.60305 0.0
C1876 C 0.58885 0.20997 0.63457 0.0
C1877 C 0.5797 0.22317 0.63669 0.0
C1878 C 0.57201 0.20214 0.61363 0.0
C1879 C 0.56706 0.2257 0.62673 0.0
C1880 C 0.55479 0.19351 0.59185 0.0
C1881 C 0.56255 0.16337 0.59875 0.0
N1882 N 0.56355 0.21525 0.61565 0.0
N1883 N 0.57001 0.17521 0.60576 0.0
H1884 H 0.5269 0.84798 0.3873 0.0
H1885 H 0.54872 0.77347 0.33843 0.0
H1886 H 0.50752 0.80268 0.39405 0.0
H1887 H 0.58321 0.8077 0.34959 0.0
H1888 H 0.52865 0.78946 0.35054 0.0
H1889 H 0.5435 0.83761 0.36664 0.0
C1890 C 0.52607 0.83591 0.38439 0.0
C1891 C 0.51589 0.82613 0.39246 0.0
C1892 C 0.54051 0.79374 0.3498 0.0
C1893 C 0.53434 0.81446 0.36867 0.0
C1894 C 0.55188 0.78477 0.34264 0.0
C1895 C 0.56754 0.78937 0.343 0.0
C1896 C 0.54492 0.80734 0.35731 0.0
C1897 C 0.57117 0.80389 0.34901 0.0
C1898 C 0.53547 0.83006 0.3726 0.0
C1899 C 0.51527 0.8106 0.38823 0.0
N1900 N 0.55997 0.81231 0.35623 0.0
N1901 N 0.52434 0.80527 0.37661 0.0
H1902 H 0.94031 0.77145 0.15022 0.0
H1903 H 0.92516 0.83006 0.0822 0.0
H1904 H 0.89865 0.76853 0.12232 0.0
H1905 H 0.97059 0.82049 0.1012 0.0
H1906 H 0.91473 0.80745 0.09591 0.0
H1907 H 0.95106 0.79002 0.13226 0.0
C1908 C 0.93345 0.77461 0.14024 0.0
C1909 C 0.91854 0.76839 0.13779 0.0
C1910 C 0.92705 0.81013 0.09677 0.0
C1911 C 0.93087 0.78974 0.11707 0.0
C1912 C 0.93298 0.82291 0.08889 0.0
C1913 C 0.94874 0.82688 0.09051 0.0
C1914 C 0.93696 0.8017 0.10655 0.0
C1915 C 0.95842 0.81757 0.09951 0.0
C1916 C 0.93964 0.7852 0.12994 0.0
C1917 C 0.91017 0.77308 0.12469 0.0
N1918 N 0.95235 0.80554 0.10737 0.0
N1919 N 0.91642 0.78356 0.11484 0.0
H1920 H 0.60502 0.97619 0.79952 0.0
H1921 H 0.66203 0.90869 0.81864 0.0
H1922 H 0.62098 0.96889 0.84607 0.0
H1923 H 0.66286 0.93178 0.77484 0.0
H1924 H 0.64744 0.93041 0.82951 0.0
H1925 H 0.62549 0.95894 0.79035 0.0
C1926 C 0.61285 0.97102 0.80782 0.0
C1927 C 0.61125 0.974 0.82361 0.0
C1928 C 0.6512 0.9309 0.81763 0.0
C1929 C 0.63476 0.9543 0.81314 0.0
C1930 C 0.65961 0.91861 0.8115 0.0
C1931 C 0.66372 0.9186 0.79592 0.0
C1932 C 0.64643 0.94291 0.80792 0.0
C1933 C 0.66009 0.93151 0.78698 0.0
C1934 C 0.62462 0.96128 0.80255 0.0
C1935 C 0.62175 0.96691 0.83381 0.0
N1936 N 0.6513 0.94302 0.79301 0.0
N1937 N 0.63298 0.95727 0.82841 0.0
H1938 H 0.84327 0.88207 0.55523 0.0
H1939 H 0.75594 0.87354 0.58531 0.0
H1940 H 0.80733 0.91261 0.5388 0.0
H1941 H 0.7867 0.83637 0.57272 0.0
H1942 H 0.77637 0.89207 0.57755 0.0
H1943 H 0.82448 0.87049 0.57288 0.0
C1944 C 0.83159 0.88684 0.55591 0.0
C1945 C 0.82673 0.89814 0.5455 0.0
C1946 C 0.77862 0.87985 0.57671 0.0
C1947 C 0.80516 0.88468 0.56521 0.0
C1948 C 0.76704 0.86934 0.58103 0.0
C1949 C 0.76969 0.85351 0.57938 0.0
C1950 C 0.79301 0.87434 0.57131 0.0
C1951 C 0.78418 0.84851 0.5739 0.0
C1952 C 0.82085 0.88011 0.56583 0.0
C1953 C 0.81146 0.90388 0.5467 0.0
N1954 N 0.79534 0.8589 0.57012 0.0
N1955 N 0.801 0.89678 0.55613 0.0
H1956 H 0.88546 0.01793 0.29826 0.0
H1957 H 0.83073 0.08759 0.3172 0.0
H1958 H 0.86976 0.02575 0.34481 0.0
H1959 H 0.8284 0.06389 0.27377 0.0
H1960 H 0.84528 0.06577 0.32802 0.0
H1961 H 0.86572 0.036 0.2891 0.0
C1962 C 0.87781 0.02336 0.30657 0.0
C1963 C 0.8793 0.02028 0.32236 0.0
C1964 C 0.84124 0.0652 0.31623 0.0
C1965 C 0.85666 0.04104 0.31188 0.0
C1966 C 0.83287 0.07757 0.31011 0.0
C1967 C 0.82824 0.0774 0.29466 0.0
C1968 C 0.84545 0.0529 0.30663 0.0
C1969 C 0.83153 0.06433 0.28581 0.0
C1970 C 0.86647 0.0336 0.3013 0.0
C1971 C 0.86905 0.02775 0.33254 0.0
N1972 N 0.84025 0.05273 0.29182 0.0
N1973 N 0.85826 0.03791 0.32714 0.0
H1974 H 0.68939 0.08514 0.03206 0.0
H1975 H 0.70787 0.14581 0.09832 0.0
H1976 H 0.6538 0.10717 0.05926 0.0
H1977 H 0.7374 0.13647 0.05917 0.0
H1978 H 0.6902 0.12525 0.08987 0.0
H1979 H 0.7094 0.09633 0.04882 0.0
C1980 C 0.68578 0.09163 0.04209 0.0
C1981 C 0.67002 0.09535 0.04433 0.0
C1982 C 0.70067 0.12762 0.08328 0.0
C1983 C 0.69266 0.10855 0.06308 0.0
C1984 C 0.7107 0.13937 0.08802 0.0
C1985 C 0.72399 0.14299 0.07929 0.0
C1986 C 0.70411 0.11932 0.06986 0.0
C1987 C 0.72714 0.13423 0.0661 0.0
C1988 C 0.69718 0.09824 0.05147 0.0
C1989 C 0.66589 0.10409 0.05723 0.0
N1990 N 0.71725 0.12284 0.06177 0.0
N1991 N 0.67718 0.11069 0.06599 0.0
H1992 H 0.59433 0.04157 0.66808 0.0
H1993 H 0.67479 0.06425 0.70466 0.0
H1994 H 0.63191 0.00871 0.67026 0.0
H1995 H 0.64248 0.09711 0.68551 0.0
H1996 H 0.66123 0.04369 0.69059 0.0
H1997 H 0.61281 0.06213 0.67389 0.0
C1998 C 0.60655 0.03877 0.6698 0.0
C1999 C 0.61172 0.02359 0.66888 0.0
C2000 C 0.65741 0.05547 0.68914 0.0
C2001 C 0.63294 0.04688 0.67554 0.0
C2002 C 0.66522 0.06719 0.69705 0.0
C2003 C 0.65948 0.08228 0.69643 0.0
C2004 C 0.64381 0.05901 0.68077 0.0
C2005 C 0.64704 0.08554 0.6865 0.0
C2006 C 0.61713 0.05047 0.67297 0.0
C2007 C 0.62761 0.02039 0.67102 0.0
N2008 N 0.63942 0.07396 0.6793 0.0
N2009 N 0.63772 0.03196 0.67449 0.0
H2010 H 0.74267 0.86644 0.43047 0.0
H2011 H 0.65415 0.8869 0.43704 0.0
H2012 H 0.70775 0.84744 0.40028 0.0
H2013 H 0.69024 0.9127 0.45986 0.0
H2014 H 0.6736 0.87643 0.41941 0.0
H2015 H 0.72431 0.88669 0.43792 0.0
C2016 C 0.73111 0.86663 0.42538 0.0
C2017 C 0.72654 0.85523 0.41496 0.0
C2018 C 0.67726 0.88481 0.42787 0.0
C2019 C 0.70541 0.87813 0.42354 0.0
C2020 C 0.66611 0.89095 0.43781 0.0
C2021 C 0.67068 0.90063 0.44987 0.0
C2022 C 0.69313 0.8881 0.43034 0.0
C2023 C 0.6863 0.90532 0.45063 0.0
C2024 C 0.72068 0.87824 0.42952 0.0
C2025 C 0.71161 0.85606 0.40843 0.0
N2026 N 0.69708 0.89867 0.44126 0.0
N2027 N 0.70143 0.86714 0.41307 0.0
H2028 H 0.86039 0.98535 0.1587 0.0
H2029 H 0.8547 0.89926 0.1885 0.0
H2030 H 0.8986 0.95885 0.17722 0.0
H2031 H 0.81901 0.93154 0.20199 0.0
H2032 H 0.86742 0.91937 0.17355 0.0
H2033 H 0.84231 0.96424 0.16561 0.0
C2034 C 0.86494 0.97507 0.16412 0.0
C2035 C 0.88092 0.97381 0.16759 0.0
C2036 C 0.85656 0.92195 0.17942 0.0
C2037 C 0.86067 0.94975 0.17483 0.0
C2038 C 0.84924 0.91048 0.18786 0.0
C2039 C 0.83597 0.91387 0.19668 0.0
C2040 C 0.85059 0.93693 0.17981 0.0
C2041 C 0.82929 0.92855 0.19538 0.0
C2042 C 0.85468 0.96312 0.16801 0.0
C2043 C 0.88633 0.96033 0.17455 0.0
N2044 N 0.8369 0.93974 0.18734 0.0
N2045 N 0.87625 0.94879 0.17784 0.0
H2046 H 0.80298 0.08181 0.95942 0.0
H2047 H 0.78461 0.15788 0.92424 0.0
H2048 H 0.83985 0.10796 0.93823 0.0
H2049 H 0.75437 0.12111 0.90947 0.0
H2050 H 0.80446 0.13892 0.93125 0.0
H2051 H 0.7842 0.09355 0.9415 0.0
C2052 C 0.80724 0.08933 0.95042 0.0
C2053 C 0.82288 0.09409 0.95031 0.0
C2054 C 0.79354 0.135 0.92632 0.0
C2055 C 0.80161 0.10797 0.93055 0.0
C2056 C 0.78217 0.14578 0.92253 0.0
C2057 C 0.76786 0.14097 0.91644 0.0
C2058 C 0.79039 0.11928 0.92445 0.0
C2059 C 0.7653 0.12517 0.91422 0.0
C2060 C 0.79653 0.09615 0.94034 0.0
C2061 C 0.82782 0.10411 0.93867 0.0
N2062 N 0.77637 0.11478 0.91856 0.0
N2063 N 0.81713 0.11116 0.92959 0.0
H2064 H 0.79151 0.67002 0.93162 0.0
H2065 H 0.82359 0.59073 0.9577 0.0
H2066 H 0.80945 0.63644 0.8997 0.0
H2067 H 0.83115 0.62986 0.98715 0.0
H2068 H 0.81731 0.60805 0.93654 0.0
H2069 H 0.80596 0.65714 0.95244 0.0
C2070 C 0.79891 0.66029 0.92891 0.0
C2071 C 0.79906 0.65404 0.91404 0.0
C2072 C 0.82043 0.61291 0.94759 0.0
C2073 C 0.81516 0.63921 0.93762 0.0
C2074 C 0.82384 0.60302 0.95967 0.0
C2075 C 0.8277 0.60895 0.97411 0.0
C2076 C 0.82046 0.62886 0.95006 0.0
C2077 C 0.82813 0.62495 0.9761 0.0
C2078 C 0.80706 0.65291 0.94078 0.0
C2079 C 0.80877 0.6414 0.9111 0.0
N2080 N 0.82425 0.63444 0.96423 0.0
N2081 N 0.81616 0.63421 0.92284 0.0
H2082 H 0.31117 0.85788 0.09481 0.0
H2083 H 0.30869 0.87501 0.00749 0.0
H2084 H 0.28827 0.82644 0.06386 0.0
H2085 H 0.3485 0.88827 0.03476 0.0
H2086 H 0.30107 0.85673 0.02767 0.0
H2087 H 0.32562 0.86869 0.07312 0.0
C2088 C 0.30953 0.85299 0.08347 0.0
C2089 C 0.29852 0.84132 0.08105 0.0
C2090 C 0.3116 0.86347 0.02913 0.0
C2091 C 0.31454 0.85395 0.05617 0.0
C2092 C 0.31585 0.87394 0.0177 0.0
C2093 C 0.32913 0.88314 0.01963 0.0
C2094 C 0.32041 0.86265 0.04274 0.0
C2095 C 0.33817 0.88132 0.03293 0.0
C2096 C 0.31774 0.85916 0.0711 0.0
C2097 C 0.29671 0.83541 0.06616 0.0
N2098 N 0.33347 0.8715 0.04416 0.0
N2099 N 0.30436 0.84206 0.05417 0.0
H2100 H 0.90801 0.56653 0.83974 0.0
H2101 H 0.85453 0.54868 0.76916 0.0
H2102 H 0.9112 0.52383 0.81488 0.0
H2103 H 0.87019 0.59514 0.77738 0.0
H2104 H 0.87411 0.53941 0.78733 0.0
H2105 H 0.89383 0.57783 0.81788 0.0
C2106 C 0.90612 0.55972 0.82948 0.0
C2107 C 0.91091 0.54434 0.82894 0.0
C2108 C 0.87336 0.55162 0.78502 0.0
C2109 C 0.89419 0.5568 0.80445 0.0
C2110 C 0.86211 0.55694 0.77474 0.0
C2111 C 0.86069 0.57273 0.77175 0.0
C2112 C 0.88311 0.56215 0.79258 0.0
C2113 C 0.87088 0.58288 0.77934 0.0
C2114 C 0.898 0.56611 0.81709 0.0
C2115 C 0.90798 0.53582 0.81558 0.0
N2116 N 0.88156 0.57743 0.78956 0.0
N2117 N 0.89951 0.54206 0.80397 0.0
H2118 H 0.14463 0.11511 0.52629 0.0
H2119 H 0.21601 0.16132 0.56298 0.0
H2120 H 0.19279 0.10763 0.51353 0.0
H2121 H 0.1743 0.15038 0.58851 0.0
H2122 H 0.205 0.14838 0.54046 0.0
H2123 H 0.15319 0.13429 0.54513 0.0
C2124 C 0.15699 0.11761 0.52734 0.0
C2125 C 0.16805 0.10968 0.51844 0.0
C2126 C 0.19811 0.14917 0.55088 0.0
C2127 C 0.1778 0.13173 0.5397 0.0
C2128 C 0.20429 0.15672 0.56366 0.0
C2129 C 0.19599 0.15691 0.57755 0.0
C2130 C 0.18347 0.14201 0.55201 0.0
C2131 C 0.18101 0.15042 0.57795 0.0
C2132 C 0.16183 0.12853 0.53807 0.0
C2133 C 0.1839 0.11336 0.52028 0.0
N2134 N 0.17522 0.14314 0.56536 0.0
N2135 N 0.18831 0.12414 0.53072 0.0
H2136 H 0.12158 0.93678 0.75898 0.0
H2137 H 0.09656 0.93204 0.8446 0.0
H2138 H 0.1314 0.8965 0.78617 0.0
H2139 H 0.07011 0.95893 0.81214 0.0
H2140 H 0.1081 0.91766 0.82333 0.0
H2141 H 0.10178 0.94453 0.77785 0.0
C2142 C 0.11947 0.92955 0.76891 0.0
C2143 C 0.12818 0.91609 0.77118 0.0
C2144 C 0.09944 0.92639 0.82082 0.0
C2145 C 0.10579 0.92493 0.79282 0.0
C2146 C 0.09281 0.93454 0.83296 0.0
C2147 C 0.08244 0.94666 0.83004 0.0
C2148 C 0.09603 0.93073 0.80565 0.0
C2149 C 0.07803 0.9496 0.81481 0.0
C2150 C 0.1081 0.93388 0.77958 0.0
C2151 C 0.12491 0.90698 0.78407 0.0
N2152 N 0.08518 0.94194 0.8031 0.0
N2153 N 0.11418 0.91172 0.79459 0.0
H2154 H 0.65514 0.36635 0.4853 0.0
H2155 H 0.69041 0.36509 0.40069 0.0
H2156 H 0.67676 0.40501 0.46271 0.0
H2157 H 0.69675 0.32583 0.43033 0.0
H2158 H 0.67606 0.37803 0.42112 0.0
H2159 H 0.6627 0.34992 0.46335 0.0
C2160 C 0.66147 0.37135 0.47574 0.0
C2161 C 0.66557 0.38698 0.47587 0.0
C2162 C 0.68032 0.36647 0.42306 0.0
C2163 C 0.67359 0.36856 0.45076 0.0
C2164 C 0.68843 0.35903 0.4114 0.0
C2165 C 0.69505 0.34451 0.41397 0.0
C2166 C 0.67878 0.35936 0.43743 0.0
C2167 C 0.69192 0.33709 0.42797 0.0
C2168 C 0.66571 0.36201 0.46329 0.0
C2169 C 0.67363 0.39297 0.4632 0.0
N2170 N 0.6842 0.34474 0.43937 0.0
N2171 N 0.67726 0.38378 0.45113 0.0
H2172 H 0.91227 0.4271 0.657 0.0
H2173 H 0.85573 0.44609 0.72525 0.0
H2174 H 0.91365 0.47057 0.68071 0.0
H2175 H 0.8721 0.39963 0.71826 0.0
H2176 H 0.87567 0.45521 0.70738 0.0
H2177 H 0.89717 0.41627 0.67845 0.0
C2178 C 0.90978 0.4342 0.66693 0.0
C2179 C 0.9143 0.44967 0.66722 0.0
C2180 C 0.87499 0.44304 0.70991 0.0
C2181 C 0.89654 0.4377 0.69125 0.0
C2182 C 0.86355 0.4378 0.72002 0.0
C2183 C 0.86223 0.42205 0.72328 0.0
C2184 C 0.88507 0.43247 0.70282 0.0
C2185 C 0.87269 0.41187 0.71609 0.0
C2186 C 0.90111 0.42808 0.67909 0.0
C2187 C 0.91061 0.45852 0.68018 0.0
N2188 N 0.88359 0.41724 0.70608 0.0
N2189 N 0.90164 0.4525 0.69155 0.0
H2190 H 0.62454 0.59621 0.21663 0.0
H2191 H 0.57593 0.52525 0.18322 0.0
H2192 H 0.62999 0.54946 0.23236 0.0
H2193 H 0.58684 0.56569 0.15672 0.0
H2194 H 0.58887 0.53683 0.20555 0.0
H2195 H 0.60446 0.58752 0.19854 0.0
C2196 C 0.62141 0.58415 0.21638 0.0
C2197 C 0.62907 0.57351 0.22589 0.0
C2198 C 0.58804 0.54332 0.19496 0.0
C2199 C 0.60596 0.56361 0.20546 0.0
C2200 C 0.58049 0.53682 0.1823 0.0
C2201 C 0.58038 0.54458 0.16819 0.0
C2202 C 0.59531 0.55772 0.19344 0.0
C2203 C 0.58675 0.55939 0.16745 0.0
C2204 C 0.60996 0.57923 0.20608 0.0
C2205 C 0.62453 0.55802 0.2251 0.0
N2206 N 0.59408 0.56546 0.17989 0.0
N2207 N 0.61328 0.55353 0.21503 0.0
H2208 H 0.59306 0.6821 0.85182 0.0
H2209 H 0.50589 0.68632 0.87531 0.0
H2210 H 0.55977 0.70703 0.82427 0.0
H2211 H 0.53352 0.64637 0.88634 0.0
H2212 H 0.5253 0.69362 0.85594 0.0
H2213 H 0.57165 0.66754 0.86336 0.0
C2214 C 0.58124 0.6841 0.84782 0.0
C2215 C 0.5781 0.6958 0.83717 0.0
C2216 C 0.52703 0.68316 0.86246 0.0
C2217 C 0.55355 0.67969 0.85076 0.0
C2218 C 0.51606 0.6791 0.87361 0.0
C2219 C 0.51825 0.66585 0.88251 0.0
C2220 C 0.54051 0.67415 0.86052 0.0
C2221 C 0.53147 0.65672 0.87973 0.0
C2222 C 0.56902 0.67585 0.85446 0.0
C2223 C 0.56263 0.69806 0.83242 0.0
N2224 N 0.54228 0.6612 0.86917 0.0
N2225 N 0.55084 0.69037 0.83958 0.0
H2226 H 0.55502 0.35027 0.10347 0.0
H2227 H 0.57716 0.26284 0.12086 0.0
H2228 H 0.53852 0.31292 0.07529 0.0
H2229 H 0.58271 0.30018 0.15292 0.0
H2230 H 0.56645 0.28089 0.10191 0.0
H2231 H 0.57025 0.33211 0.11867 0.0
C2232 C 0.55502 0.33824 0.10024 0.0
C2233 C 0.54557 0.33301 0.0882 0.0
C2234 C 0.57006 0.28513 0.11306 0.0
C2235 C 0.56236 0.31209 0.10589 0.0
C2236 C 0.57614 0.27487 0.12385 0.0
C2237 C 0.58082 0.28017 0.13835 0.0
C2238 C 0.56894 0.30077 0.11681 0.0
C2239 C 0.57911 0.29573 0.14185 0.0
C2240 C 0.56352 0.32786 0.10902 0.0
C2241 C 0.54582 0.31735 0.08445 0.0
N2242 N 0.57338 0.30553 0.13109 0.0
N2243 N 0.5539 0.30732 0.09348 0.0
H2244 H 0.98533 0.30198 0.3826 0.0
H2245 H 0.90421 0.31673 0.34563 0.0
H2246 H 0.96784 0.34825 0.37801 0.0
H2247 H 0.93366 0.28018 0.32892 0.0
H2248 H 0.92711 0.32882 0.35744 0.0
H2249 H 0.96639 0.29347 0.36324 0.0
C2250 C 0.97756 0.31035 0.37743 0.0
C2251 C 0.97802 0.3258 0.38199 0.0
C2252 C 0.92863 0.31834 0.35088 0.0
C2253 C 0.95626 0.31613 0.36005 0.0
C2254 C 0.91558 0.31147 0.34414 0.0
C2255 C 0.91707 0.29743 0.33635 0.0
C2256 C 0.94314 0.31084 0.35027 0.0
C2257 C 0.93203 0.29102 0.33478 0.0
C2258 C 0.96686 0.30552 0.36631 0.0
C2259 C 0.96783 0.33622 0.37483 0.0
N2260 N 0.94446 0.29758 0.34203 0.0
N2261 N 0.95714 0.33115 0.36442 0.0
H2262 H 0.92737 0.65603 0.58135 0.0
H2263 H 0.93704 0.72354 0.64124 0.0
H2264 H 0.969 0.68363 0.58414 0.0
H2265 H 0.89228 0.70418 0.6292 0.0
H2266 H 0.94886 0.70967 0.6196 0.0
H2267 H 0.91344 0.67519 0.5967 0.0
C2268 C 0.93333 0.66651 0.58464 0.0
C2269 C 0.94922 0.66843 0.58147 0.0
C2270 C 0.93644 0.7085 0.62169 0.0
C2271 C 0.93383 0.68981 0.59977 0.0
C2272 C 0.92977 0.7162 0.63417 0.0
C2273 C 0.91373 0.71481 0.63707 0.0
C2274 C 0.927 0.69923 0.61224 0.0
C2275 C 0.90474 0.70544 0.62739 0.0
C2276 C 0.92549 0.67733 0.5936 0.0
C2277 C 0.95665 0.68193 0.58629 0.0
N2278 N 0.9115 0.69794 0.61546 0.0
N2279 N 0.94899 0.69199 0.59554 0.0
H2280 H 0.53358 0.31617 0.58793 0.0
H2281 H 0.56694 0.29927 0.67019 0.0
H2282 H 0.51501 0.3405 0.62707 0.0
H2283 H 0.59479 0.29604 0.62893 0.0
H2284 H 0.54759 0.31454 0.6558 0.0
H2285 H 0.55569 0.3078 0.60358 0.0
C2286 C 0.53418 0.31969 0.59987 0.0
C2287 C 0.52248 0.32889 0.60631 0.0
C2288 C 0.55812 0.31071 0.65005 0.0
C2289 C 0.5476 0.31928 0.62434 0.0
C2290 C 0.56916 0.30207 0.65825 0.0
C2291 C 0.58229 0.2961 0.65064 0.0
C2292 C 0.56023 0.31311 0.63419 0.0
C2293 C 0.58465 0.30012 0.63518 0.0
C2294 C 0.54684 0.31505 0.60877 0.0
C2295 C 0.52387 0.33336 0.62176 0.0
N2296 N 0.5736 0.30808 0.62741 0.0
N2297 N 0.53611 0.32829 0.63038 0.0
H2298 H 0.92959 0.34562 0.9065 0.0
H2299 H 0.9343 0.26708 0.86253 0.0
H2300 H 0.96127 0.30965 0.92008 0.0
H2301 H 0.89316 0.29566 0.86117 0.0
H2302 H 0.94421 0.28246 0.88409 0.0
H2303 H 0.91459 0.32698 0.8916 0.0
C2304 C 0.93289 0.3336 0.90693 0.0
C2305 C 0.94652 0.32904 0.91452 0.0
C2306 C 0.93301 0.28536 0.87906 0.0
C2307 C 0.93016 0.30792 0.89683 0.0
C2308 C 0.92754 0.2768 0.86661 0.0
C2309 C 0.91308 0.28039 0.85999 0.0
C2310 C 0.92406 0.2977 0.88466 0.0
C2311 C 0.90447 0.29273 0.86592 0.0
C2312 C 0.92449 0.323 0.89825 0.0
C2313 C 0.95067 0.31348 0.91444 0.0
N2314 N 0.91015 0.30106 0.87784 0.0
N2315 N 0.94274 0.30348 0.90535 0.0
H2316 H 0.96847 0.64803 0.11879 0.0
H2317 H 0.92962 0.72107 0.15947 0.0
H2318 H 0.98039 0.6949 0.10755 0.0
H2319 H 0.90529 0.67815 0.15363 0.0
H2320 H 0.95252 0.70999 0.14663 0.0
H2321 H 0.94922 0.65757 0.13736 0.0
C2322 C 0.96716 0.66031 0.12032 0.0
C2323 C 0.97597 0.67068 0.1115 0.0
C2324 C 0.94231 0.70288 0.14851 0.0
C2325 C 0.95414 0.6816 0.13286 0.0
C2326 C 0.92935 0.70912 0.15601 0.0
C2327 C 0.91569 0.70041 0.15772 0.0
C2328 C 0.94162 0.68777 0.14287 0.0
C2329 C 0.9157 0.68514 0.15261 0.0
C2330 C 0.95616 0.66572 0.1309 0.0
C2331 C 0.97375 0.68648 0.11398 0.0
N2332 N 0.92847 0.67929 0.14537 0.0
N2333 N 0.96306 0.69146 0.12443 0.0
H2334 H 0.54779 0.64503 0.38623 0.0
H2335 H 0.59584 0.723 0.38025 0.0
H2336 H 0.54822 0.67726 0.42388 0.0
H2337 H 0.57329 0.70026 0.34215 0.0
H2338 H 0.58491 0.70359 0.39775 0.0
H2339 H 0.56506 0.6619 0.37175 0.0
C2340 C 0.5519 0.65553 0.39159 0.0
C2341 C 0.5465 0.65992 0.40613 0.0
C2342 C 0.58248 0.70287 0.38555 0.0
C2343 C 0.56591 0.67939 0.38952 0.0
C2344 C 0.58868 0.71387 0.37558 0.0
C2345 C 0.58536 0.71319 0.35977 0.0
C2346 C 0.57329 0.69099 0.37954 0.0
C2347 C 0.57602 0.70122 0.35427 0.0
C2348 C 0.56162 0.66518 0.38328 0.0
C2349 C 0.55218 0.67354 0.41266 0.0
N2350 N 0.57036 0.69054 0.36415 0.0
N2351 N 0.56145 0.68303 0.40415 0.0
H2352 H 0.85186 0.58809 0.68386 0.0
H2353 H 0.88259 0.50536 0.69051 0.0
H2354 H 0.82825 0.55568 0.71321 0.0
H2355 H 0.88398 0.52831 0.6466 0.0
H2356 H 0.86256 0.52358 0.69911 0.0
H2357 H 0.8632 0.56668 0.66937 0.0
C2358 C 0.84869 0.57642 0.68691 0.0
C2359 C 0.83912 0.57356 0.69967 0.0
C2360 C 0.86705 0.52446 0.6875 0.0
C2361 C 0.85254 0.54912 0.68367 0.0
C2362 C 0.87855 0.51417 0.68265 0.0
C2363 C 0.88498 0.51546 0.66789 0.0
C2364 C 0.86234 0.53641 0.6777 0.0
C2365 C 0.87928 0.52697 0.65808 0.0
C2366 C 0.85518 0.56423 0.67869 0.0
C2367 C 0.83549 0.5583 0.70334 0.0
N2368 N 0.86852 0.53725 0.66328 0.0
N2369 N 0.84256 0.54659 0.69563 0.0
H2370 H 0.71763 0.62723 0.89655 0.0
H2371 H 0.68014 0.58362 0.96854 0.0
H2372 H 0.73105 0.63565 0.94366 0.0
H2373 H 0.65562 0.59073 0.92588 0.0
H2374 H 0.70317 0.59625 0.95755 0.0
H2375 H 0.69887 0.60799 0.90551 0.0
C2376 C 0.71673 0.62497 0.90877 0.0
C2377 C 0.72584 0.63319 0.91939 0.0
C2378 C 0.6929 0.59465 0.95046 0.0
C2379 C 0.70454 0.61104 0.92964 0.0
C2380 C 0.67985 0.58725 0.95664 0.0
C2381 C 0.66607 0.58608 0.94801 0.0
C2382 C 0.69214 0.60074 0.93552 0.0
C2383 C 0.6661 0.59139 0.93281 0.0
C2384 C 0.70603 0.61398 0.91385 0.0
C2385 C 0.72417 0.62971 0.93507 0.0
N2386 N 0.67892 0.59858 0.92705 0.0
N2387 N 0.7137 0.61892 0.93973 0.0
H2388 H 0.66751 0.43618 0.20635 0.0
H2389 H 0.5878 0.4569 0.16738 0.0
H2390 H 0.63416 0.40236 0.19106 0.0
H2391 H 0.62643 0.48853 0.16492 0.0
H2392 H 0.60571 0.43662 0.17534 0.0
H2393 H 0.65461 0.45539 0.18987 0.0
C2394 C 0.65784 0.43269 0.19911 0.0
C2395 C 0.65164 0.41782 0.2002 0.0
C2396 C 0.61039 0.44794 0.17296 0.0
C2397 C 0.63679 0.43956 0.18176 0.0
C2398 C 0.60013 0.45951 0.16856 0.0
C2399 C 0.60571 0.47431 0.16571 0.0
C2400 C 0.62632 0.4513 0.17497 0.0
C2401 C 0.62178 0.47718 0.16714 0.0
C2402 C 0.65043 0.44365 0.1898 0.0
C2403 C 0.63907 0.41383 0.19072 0.0
N2404 N 0.63156 0.46579 0.17197 0.0
N2405 N 0.6319 0.42469 0.1821 0.0
H2406 H 0.77976 0.36223 0.39742 0.0
H2407 H 0.80921 0.40983 0.47046 0.0
H2408 H 0.76297 0.35445 0.44359 0.0
H2409 H 0.83819 0.40183 0.43072 0.0
H2410 H 0.7882 0.39507 0.45824 0.0
H2411 H 0.7978 0.38167 0.40742 0.0
C2412 C 0.77985 0.3646 0.40965 0.0
C2413 C 0.76991 0.35662 0.4197 0.0
C2414 C 0.79904 0.39685 0.45207 0.0
C2415 C 0.79027 0.37902 0.43109 0.0
C2416 C 0.81093 0.40543 0.45893 0.0
C2417 C 0.82538 0.407 0.45153 0.0
C2418 C 0.80162 0.39004 0.43765 0.0
C2419 C 0.82717 0.40081 0.43676 0.0
C2420 C 0.79012 0.37571 0.41531 0.0
C2421 C 0.77051 0.36022 0.43543 0.0
N2422 N 0.81544 0.39252 0.4303 0.0
N2423 N 0.78049 0.37119 0.44064 0.0
H2424 H 0.82689 0.4368 0.7844 0.0
H2425 H 0.88804 0.46201 0.84927 0.0
H2426 H 0.85618 0.40467 0.80877 0.0
H2427 H 0.87773 0.48947 0.80928 0.0
H2428 H 0.86942 0.44253 0.84015 0.0
H2429 H 0.83827 0.45783 0.79963 0.0
C2430 C 0.83531 0.43414 0.79332 0.0
C2431 C 0.84073 0.41907 0.79532 0.0
C2432 C 0.87103 0.45297 0.83356 0.0
C2433 C 0.8537 0.44287 0.81261 0.0
C2434 C 0.88158 0.46407 0.83875 0.0
C2435 C 0.88444 0.47724 0.82992 0.0
C2436 C 0.86306 0.4553 0.81964 0.0
C2437 C 0.87593 0.47935 0.81631 0.0
C2438 C 0.84188 0.44611 0.80187 0.0
C2439 C 0.8518 0.4162 0.80686 0.0
N2440 N 0.8656 0.46847 0.81156 0.0
N2441 N 0.85802 0.42801 0.81502 0.0
H2442 H 0.77624 0.62865 0.09974 0.0
H2443 H 0.80852 0.58262 0.02664 0.0
H2444 H 0.75874 0.63512 0.05364 0.0
H2445 H 0.8361 0.59161 0.06711 0.0
H2446 H 0.78627 0.5957 0.03878 0.0
H2447 H 0.7946 0.6094 0.08993 0.0
C2448 C 0.77618 0.62596 0.08758 0.0
C2449 C 0.76607 0.63365 0.07746 0.0
C2450 C 0.79709 0.59447 0.04513 0.0
C2451 C 0.78686 0.61147 0.06626 0.0
C2452 C 0.8097 0.58685 0.0383 0.0
C2453 C 0.8241 0.5861 0.04593 0.0
C2454 C 0.79892 0.60113 0.05974 0.0
C2455 C 0.82515 0.59202 0.06088 0.0
C2456 C 0.78665 0.61497 0.08201 0.0
C2457 C 0.76647 0.62963 0.06182 0.0
N2458 N 0.81275 0.59938 0.06728 0.0
N2459 N 0.77672 0.61884 0.05669 0.0
H2460 H 0.63802 0.59007 0.31144 0.0
H2461 H 0.61248 0.50528 0.3076 0.0
H2462 H 0.6654 0.55748 0.2856 0.0
H2463 H 0.60616 0.53096 0.34953 0.0
H2464 H 0.63208 0.52407 0.29926 0.0
H2465 H 0.62661 0.56886 0.32609 0.0
C2466 C 0.64193 0.57844 0.30916 0.0
C2467 C 0.65259 0.57545 0.29729 0.0
C2468 C 0.6266 0.52545 0.3104 0.0
C2469 C 0.63922 0.55118 0.31358 0.0
C2470 C 0.61535 0.51482 0.31509 0.0
C2471 C 0.60766 0.51671 0.32918 0.0
C2472 C 0.62976 0.5383 0.31965 0.0
C2473 C 0.61186 0.52915 0.33856 0.0
C2474 C 0.63542 0.56636 0.31751 0.0
C2475 C 0.65724 0.56022 0.29471 0.0
N2476 N 0.6224 0.53969 0.33348 0.0
N2477 N 0.65021 0.54857 0.30252 0.0
H2478 H 0.65372 0.40387 0.5693 0.0
H2479 H 0.73299 0.36284 0.55375 0.0
H2480 H 0.68283 0.41648 0.53092 0.0
H2481 H 0.71419 0.36639 0.59967 0.0
H2482 H 0.71519 0.38322 0.54545 0.0
H2483 H 0.67628 0.39179 0.58163 0.0
C2484 C 0.66504 0.40456 0.56375 0.0
C2485 C 0.66649 0.41113 0.54912 0.0
C2486 C 0.71512 0.37969 0.55739 0.0
C2487 C 0.69211 0.39674 0.56272 0.0
C2488 C 0.72515 0.36794 0.5621 0.0
C2489 C 0.72494 0.36279 0.57739 0.0
C2490 C 0.70456 0.3861 0.56796 0.0
C2491 C 0.71468 0.36996 0.58775 0.0
C2492 C 0.67788 0.39759 0.57072 0.0
C2493 C 0.6813 0.41161 0.54227 0.0
N2494 N 0.70472 0.38108 0.58279 0.0
N2495 N 0.6935 0.4041 0.54895 0.0
H2496 H 0.67832 0.82297 0.57971 0.0
H2497 H 0.68783 0.89674 0.52711 0.0
H2498 H 0.72286 0.84387 0.57009 0.0
H2499 H 0.64589 0.86917 0.5282 0.0
H2500 H 0.7013 0.87677 0.54194 0.0
H2501 H 0.66664 0.83814 0.5589 0.0
C2502 C 0.68569 0.83038 0.57282 0.0
C2503 C 0.70148 0.83224 0.57641 0.0
C2504 C 0.68918 0.87506 0.5388 0.0
C2505 C 0.68827 0.8501 0.55333 0.0
C2506 C 0.68148 0.88652 0.53048 0.0
C2507 C 0.66573 0.88463 0.52652 0.0
C2508 C 0.681 0.86177 0.54327 0.0
C2509 C 0.65804 0.87113 0.53108 0.0
C2510 C 0.67906 0.83916 0.56108 0.0
C2511 C 0.71061 0.84215 0.56746 0.0
N2512 N 0.66573 0.86026 0.53927 0.0
N2513 N 0.70381 0.85096 0.55649 0.0
H2514 H 0.19816 0.67287 0.42911 0.0
H2515 H 0.17392 0.58948 0.45322 0.0
H2516 H 0.19286 0.63618 0.39617 0.0
H2517 H 0.15229 0.62817 0.47586 0.0
H2518 H 0.18414 0.60703 0.4336 0.0
H2519 H 0.18295 0.65765 0.44777 0.0
C2520 C 0.19337 0.66188 0.42566 0.0
C2521 C 0.1969 0.65561 0.41123 0.0
C2522 C 0.17714 0.61163 0.4429 0.0
C2523 C 0.18023 0.63816 0.4324 0.0
C2524 C 0.17146 0.60166 0.45413 0.0
C2525 C 0.16235 0.60741 0.46617 0.0
C2526 C 0.17394 0.62745 0.44396 0.0
C2527 C 0.15934 0.62329 0.46677 0.0
C2528 C 0.18486 0.65316 0.43631 0.0
C2529 C 0.19058 0.64127 0.40731 0.0
N2530 N 0.16526 0.63283 0.45588 0.0
N2531 N 0.18284 0.63288 0.41794 0.0
H2532 H 0.6364 0.8974 0.71575 0.0
H2533 H 0.57738 0.96327 0.68899 0.0
H2534 H 0.63143 0.94042 0.73985 0.0
H2535 H 0.60405 0.936 0.65697 0.0
H2536 H 0.58964 0.94918 0.71034 0.0
H2537 H 0.61738 0.90634 0.69657 0.0
C2538 C 0.63106 0.90861 0.71713 0.0
C2539 C 0.63547 0.91827 0.72927 0.0
C2540 C 0.59247 0.94607 0.69861 0.0
C2541 C 0.61359 0.92832 0.70775 0.0
C2542 C 0.5854 0.95396 0.68647 0.0
C2543 C 0.58988 0.95081 0.6713 0.0
C2544 C 0.60377 0.93481 0.69542 0.0
C2545 C 0.60043 0.9388 0.66857 0.0
C2546 C 0.62027 0.91367 0.70622 0.0
C2547 C 0.62838 0.93273 0.73054 0.0
N2548 N 0.60713 0.93126 0.68054 0.0
N2549 N 0.61773 0.93733 0.71989 0.0
H2550 H 0.33776 0.36388 0.97555 0.0
H2551 H 0.29321 0.36031 0.89529 0.0
H2552 H 0.31964 0.40369 0.95193 0.0
H2553 H 0.29463 0.32155 0.9262 0.0
H2554 H 0.30852 0.3752 0.91358 0.0
H2555 H 0.32644 0.34738 0.95569 0.0
C2556 C 0.33138 0.36914 0.96617 0.0
C2557 C 0.32953 0.38515 0.96535 0.0
C2558 C 0.30562 0.3634 0.91632 0.0
C2559 C 0.31695 0.3664 0.94253 0.0
C2560 C 0.29699 0.35485 0.90585 0.0
C2561 C 0.29247 0.33977 0.90939 0.0
C2562 C 0.30978 0.35683 0.93043 0.0
C2563 C 0.29786 0.33317 0.9231 0.0
C2564 C 0.32497 0.35971 0.95487 0.0
C2565 C 0.32118 0.39138 0.95302 0.0
N2566 N 0.30612 0.34184 0.93328 0.0
N2567 N 0.31527 0.38197 0.942 0.0
H2568 H 0.39782 0.56546 0.65741 0.0
H2569 H 0.358 0.55258 0.73723 0.0
H2570 H 0.41296 0.52921 0.68777 0.0
H2571 H 0.3614 0.5979 0.71739 0.0
H2572 H 0.37779 0.54351 0.71895 0.0
H2573 H 0.38467 0.57791 0.67906 0.0
C2574 C 0.39869 0.56033 0.66874 0.0
C2575 C 0.40635 0.54623 0.67081 0.0
C2576 C 0.37431 0.55548 0.71873 0.0
C2577 C 0.39096 0.56011 0.69545 0.0
C2578 C 0.36294 0.56061 0.72904 0.0
C2579 C 0.35801 0.57597 0.72873 0.0
C2580 C 0.38049 0.56569 0.7078 0.0
C2581 C 0.36489 0.58596 0.71801 0.0
C2582 C 0.39116 0.56741 0.68107 0.0
C2583 C 0.40715 0.54005 0.68569 0.0
N2584 N 0.3756 0.58059 0.7078 0.0
N2585 N 0.39921 0.54685 0.6974 0.0
H2586 H 0.79785 0.17374 0.06908 0.0
H2587 H 0.81957 0.08998 0.0423 0.0
H2588 H 0.7973 0.1348 0.0998 0.0
H2589 H 0.84327 0.12904 0.02252 0.0
H2590 H 0.80865 0.10691 0.0621 0.0
H2591 H 0.81325 0.15843 0.05066 0.0
C2592 C 0.80134 0.16216 0.07212 0.0
C2593 C 0.79616 0.15541 0.08584 0.0
C2594 C 0.81631 0.11173 0.05344 0.0
C2595 C 0.81315 0.1379 0.06487 0.0
C2596 C 0.82241 0.10211 0.04211 0.0
C2597 C 0.83231 0.10814 0.03083 0.0
C2598 C 0.81991 0.1275 0.05326 0.0
C2599 C 0.8357 0.12395 0.03109 0.0
C2600 C 0.80998 0.15342 0.06159 0.0
C2601 C 0.80086 0.14033 0.08921 0.0
N2602 N 0.8294 0.13315 0.04207 0.0
N2603 N 0.80883 0.13199 0.07868 0.0
H2604 H 0.6121 0.05476 0.84281 0.0
H2605 H 0.6253 0.06472 0.75549 0.0
H2606 H 0.57636 0.04135 0.81057 0.0
H2607 H 0.64507 0.09701 0.78761 0.0
H2608 H 0.60668 0.05648 0.77528 0.0
H2609 H 0.62375 0.07121 0.82317 0.0
C2610 C 0.60649 0.0556 0.83167 0.0
C2611 C 0.59335 0.04661 0.82821 0.0
C2612 C 0.61493 0.06553 0.77793 0.0
C2613 C 0.60685 0.06504 0.80558 0.0
C2614 C 0.62561 0.07012 0.76671 0.0
C2615 C 0.63677 0.08139 0.77007 0.0
C2616 C 0.61582 0.0719 0.79274 0.0
C2617 C 0.63663 0.08823 0.78466 0.0
C2618 C 0.61313 0.06499 0.82048 0.0
C2619 C 0.58651 0.0481 0.81365 0.0
N2620 N 0.62654 0.08313 0.79561 0.0
N2621 N 0.59358 0.05685 0.8027 0.0
H2622 H 0.91117 0.96693 0.30859 0.0
H2623 H 0.85822 0.89626 0.2819 0.0
H2624 H 0.89483 0.93204 0.33986 0.0
H2625 H 0.8558 0.94123 0.26114 0.0
H2626 H 0.87795 0.9059 0.29991 0.0
H2627 H 0.89782 0.95364 0.28745 0.0
C2628 C 0.90528 0.95617 0.31088 0.0
C2629 C 0.90399 0.95055 0.32593 0.0
C2630 C 0.87319 0.91358 0.2913 0.0
C2631 C 0.88869 0.93549 0.30201 0.0
C2632 C 0.86194 0.90813 0.28107 0.0
C2633 C 0.8553 0.91803 0.27014 0.0
C2634 C 0.87803 0.92894 0.29038 0.0
C2635 C 0.8605 0.93329 0.26954 0.0
C2636 C 0.89752 0.94872 0.29888 0.0
C2637 C 0.896 0.93671 0.32838 0.0
N2638 N 0.87161 0.9383 0.27952 0.0
N2639 N 0.88854 0.92968 0.31654 0.0
H2640 H 0.48411 0.30453 0.10427 0.0
H2641 H 0.40659 0.31027 0.14825 0.0
H2642 H 0.46041 0.34826 0.10686 0.0
H2643 H 0.44286 0.27883 0.16187 0.0
H2644 H 0.42617 0.32636 0.13562 0.0
H2645 H 0.46882 0.29553 0.12612 0.0
C2646 C 0.47563 0.31223 0.1094 0.0
C2647 C 0.47344 0.32713 0.10367 0.0
C2648 C 0.42997 0.31631 0.14195 0.0
C2649 C 0.45599 0.31694 0.12884 0.0
C2650 C 0.41883 0.30728 0.14941 0.0
C2651 C 0.42318 0.29318 0.15595 0.0
C2652 C 0.44539 0.31093 0.14086 0.0
C2653 C 0.43909 0.28963 0.1569 0.0
C2654 C 0.46708 0.30717 0.12204 0.0
C2655 C 0.46241 0.33666 0.11091 0.0
N2656 N 0.44961 0.29815 0.14891 0.0
N2657 N 0.45391 0.33133 0.12301 0.0
H2658 H 0.43062 0.73877 0.87032 0.0
H2659 H 0.43114 0.65165 0.88683 0.0
H2660 H 0.39277 0.71004 0.85472 0.0
H2661 H 0.45144 0.68345 0.91915 0.0
H2662 H 0.41578 0.67261 0.87583 0.0
H2663 H 0.43785 0.71895 0.88904 0.0
C2664 C 0.42378 0.72831 0.87095 0.0
C2665 C 0.41123 0.72588 0.86091 0.0
C2666 C 0.42326 0.67496 0.8856 0.0
C2667 C 0.41951 0.70317 0.88203 0.0
C2668 C 0.43201 0.66301 0.89188 0.0
C2669 C 0.44263 0.66592 0.90379 0.0
C2670 C 0.42552 0.68999 0.89099 0.0
C2671 C 0.44337 0.68078 0.90995 0.0
C2672 C 0.42781 0.71709 0.8817 0.0
C2673 C 0.40257 0.71227 0.86227 0.0
N2674 N 0.43522 0.6924 0.90319 0.0
N2675 N 0.40708 0.70125 0.87242 0.0
H2676 H 0.00672 0.68768 0.60796 0.0
H2677 H 0.08782 0.68335 0.64472 0.0
H2678 H 0.03311 0.64552 0.60564 0.0
H2679 H 0.05187 0.71293 0.66265 0.0
H2680 H 0.06775 0.66674 0.63366 0.0
H2681 H 0.02272 0.69587 0.62971 0.0
C2682 C 0.01596 0.68019 0.61202 0.0
C2683 C 0.0188 0.66605 0.6049 0.0
C2684 C 0.06418 0.67648 0.64059 0.0
C2685 C 0.03713 0.67526 0.6298 0.0
C2686 C 0.07565 0.68582 0.6471 0.0
C2687 C 0.07141 0.69956 0.65442 0.0
C2688 C 0.04851 0.68123 0.64113 0.0
C2689 C 0.05554 0.70244 0.65701 0.0
C2690 C 0.02492 0.68474 0.62459 0.0
C2691 C 0.03067 0.65659 0.61079 0.0
N2692 N 0.04461 0.69365 0.64989 0.0
N2693 N 0.03964 0.6615 0.62274 0.0
H2694 H 0.05051 0.27144 0.34729 0.0
H2695 H 0.06878 0.33184 0.41259 0.0
H2696 H 0.09485 0.27126 0.37103 0.0
H2697 H 0.02212 0.31682 0.40183 0.0
H2698 H 0.07923 0.31018 0.39754 0.0
H2699 H 0.04041 0.28946 0.36637 0.0
C2700 C 0.05812 0.27512 0.35654 0.0
C2701 C 0.07356 0.26979 0.35755 0.0
C2702 C 0.0667 0.31146 0.39876 0.0
C2703 C 0.06202 0.2904 0.37948 0.0
C2704 C 0.06078 0.32369 0.40742 0.0
C2705 C 0.04461 0.32586 0.40856 0.0
C2706 C 0.05631 0.30181 0.39077 0.0
C2707 C 0.03465 0.31528 0.40142 0.0
C2708 C 0.05231 0.28535 0.36748 0.0
C2709 C 0.08289 0.27509 0.36976 0.0
N2710 N 0.04065 0.30388 0.39258 0.0
N2711 N 0.077 0.28517 0.38021 0.0
H2712 H 0.4082 0.71611 0.37574 0.0
H2713 H 0.47298 0.65051 0.38072 0.0
H2714 H 0.42909 0.69681 0.33485 0.0
H2715 H 0.46052 0.68152 0.41742 0.0
H2716 H 0.45332 0.66289 0.36419 0.0
H2717 H 0.42324 0.69862 0.39135 0.0
C2718 C 0.41594 0.70809 0.36999 0.0
C2719 C 0.41765 0.70815 0.35394 0.0
C2720 C 0.45484 0.66684 0.3759 0.0
C2721 C 0.4351 0.68798 0.37199 0.0
C2722 C 0.46596 0.65979 0.38533 0.0
C2723 C 0.46845 0.6652 0.40035 0.0
C2724 C 0.44603 0.67914 0.38171 0.0
C2725 C 0.45912 0.6772 0.40583 0.0
C2726 C 0.42454 0.69808 0.37897 0.0
C2727 C 0.42759 0.69724 0.3472 0.0
N2728 N 0.44834 0.68376 0.39651 0.0
N2729 N 0.43617 0.68764 0.35632 0.0
H2730 H 0.06637 0.65374 0.0975 0.0
H2731 H 0.05083 0.73363 0.13375 0.0
H2732 H 0.03015 0.68312 0.07948 0.0
H2733 H 0.09807 0.71671 0.12996 0.0
H2734 H 0.04256 0.71468 0.11455 0.0
H2735 H 0.07849 0.67615 0.10967 0.0
C2736 C 0.06122 0.66499 0.09577 0.0
C2737 C 0.04723 0.66661 0.08755 0.0
C2738 C 0.05477 0.71529 0.11777 0.0
C2739 C 0.06065 0.69207 0.10183 0.0
C2740 C 0.05946 0.72598 0.12879 0.0
C2741 C 0.07512 0.72665 0.13346 0.0
C2742 C 0.06576 0.70493 0.11172 0.0
C2743 C 0.08588 0.71656 0.12662 0.0
C2744 C 0.06811 0.67774 0.10273 0.0
C2745 C 0.04095 0.68139 0.08569 0.0
N2746 N 0.08095 0.7059 0.11629 0.0
N2747 N 0.0475 0.69353 0.09312 0.0
H2748 H 0.06484 0.29692 0.83209 0.0
H2749 H 0.03452 0.31442 0.91723 0.0
H2750 H 0.0826 0.27663 0.87393 0.0
H2751 H 0.01746 0.33982 0.87809 0.0
H2752 H 0.05399 0.30235 0.90091 0.0
H2753 H 0.04903 0.31472 0.84793 0.0
C2754 C 0.06553 0.29631 0.84451 0.0
C2755 C 0.07479 0.28509 0.85168 0.0
C2756 C 0.04607 0.3106 0.89579 0.0
C2757 C 0.05695 0.30515 0.86967 0.0
C2758 C 0.03491 0.31744 0.90515 0.0
C2759 C 0.02427 0.32793 0.89894 0.0
C2760 C 0.04642 0.31396 0.87996 0.0
C2761 C 0.02546 0.33169 0.88326 0.0
C2762 C 0.05654 0.30641 0.85352 0.0
C2763 C 0.07541 0.28485 0.86781 0.0
N2764 N 0.03621 0.32451 0.8742 0.0
N2765 N 0.06656 0.29458 0.87616 0.0
H2766 H 0.43606 0.34489 0.61434 0.0
H2767 H 0.40658 0.25824 0.61707 0.0
H2768 H 0.44854 0.31391 0.57763 0.0
H2769 H 0.42319 0.28427 0.65596 0.0
H2770 H 0.41393 0.27985 0.60004 0.0
H2771 H 0.42148 0.32426 0.6267 0.0
C2772 C 0.4354 0.33381 0.60869 0.0
C2773 C 0.44377 0.33096 0.59515 0.0
C2774 C 0.41584 0.28075 0.61231 0.0
C2775 C 0.42732 0.3073 0.60935 0.0
C2776 C 0.41171 0.26851 0.62197 0.0
C2777 C 0.41451 0.2695 0.63785 0.0
C2778 C 0.42221 0.29413 0.61877 0.0
C2779 C 0.42108 0.28299 0.64375 0.0
C2780 C 0.42715 0.32205 0.61578 0.0
C2781 C 0.44232 0.31648 0.58816 0.0
N2782 N 0.4246 0.2948 0.63423 0.0
N2783 N 0.43449 0.30499 0.59553 0.0
H2784 H 0.12159 0.4693 0.34575 0.0
H2785 H 0.16145 0.42971 0.27271 0.0
H2786 H 0.10779 0.47803 0.29878 0.0
H2787 H 0.16015 0.40848 0.31743 0.0
H2788 H 0.14805 0.45224 0.28328 0.0
H2789 H 0.14149 0.45136 0.33639 0.0
C2790 C 0.12279 0.46753 0.33348 0.0
C2791 C 0.11288 0.47508 0.32305 0.0
C2792 C 0.15109 0.44284 0.29087 0.0
C2793 C 0.13574 0.45475 0.31233 0.0
C2794 C 0.15892 0.4301 0.28491 0.0
C2795 C 0.16197 0.41739 0.29431 0.0
C2796 C 0.14646 0.44283 0.30636 0.0
C2797 C 0.15804 0.41817 0.30991 0.0
C2798 C 0.13415 0.45731 0.32817 0.0
C2799 C 0.11505 0.47238 0.30726 0.0
N2800 N 0.15038 0.43068 0.31547 0.0
N2801 N 0.12622 0.46241 0.30239 0.0
H2802 H 0.30334 0.41198 0.03637 0.0
H2803 H 0.28743 0.34248 0.09283 0.0
H2804 H 0.33957 0.38578 0.05856 0.0
H2805 H 0.25129 0.36899 0.07075 0.0
H2806 H 0.3067 0.36174 0.0849 0.0
H2807 H 0.2843 0.4013 0.05446 0.0
C2808 C 0.3074 0.4046 0.04558 0.0
C2809 C 0.32293 0.39959 0.04596 0.0
C2810 C 0.29452 0.36354 0.08203 0.0
C2811 C 0.30126 0.38673 0.06608 0.0
C2812 C 0.28357 0.35252 0.08651 0.0
C2813 C 0.26788 0.35414 0.08221 0.0
C2814 C 0.28967 0.37632 0.07333 0.0
C2815 C 0.26338 0.36725 0.07399 0.0
C2816 C 0.2965 0.39826 0.05573 0.0
C2817 C 0.32761 0.38982 0.05791 0.0
N2818 N 0.27424 0.37781 0.06974 0.0
N2819 N 0.31675 0.38337 0.06727 0.0
H2820 H 0.39804 0.54077 0.82736 0.0
H2821 H 0.31867 0.56243 0.79246 0.0
H2822 H 0.35999 0.50901 0.83374 0.0
H2823 H 0.34822 0.59619 0.81407 0.0
H2824 H 0.33159 0.54227 0.80772 0.0
H2825 H 0.37919 0.56107 0.82148 0.0
C2826 C 0.38566 0.53815 0.82754 0.0
C2827 C 0.38044 0.52333 0.83093 0.0
C2828 C 0.33481 0.55417 0.80951 0.0
C2829 C 0.35885 0.5463 0.82411 0.0
C2830 C 0.32734 0.56566 0.80094 0.0
C2831 C 0.33263 0.58088 0.8019 0.0
C2832 C 0.34767 0.55809 0.81878 0.0
C2833 C 0.34402 0.58451 0.81288 0.0
C2834 C 0.37491 0.54972 0.82434 0.0
C2835 C 0.36433 0.52039 0.83112 0.0
N2836 N 0.35147 0.57315 0.8206 0.0
N2837 N 0.35402 0.53176 0.82746 0.0
H2838 H 0.21345 0.66656 0.56389 0.0
H2839 H 0.1754 0.58297 0.55377 0.0
H2840 H 0.22698 0.62881 0.59312 0.0
H2841 H 0.16806 0.62252 0.52461 0.0
H2842 H 0.1925 0.59897 0.57028 0.0
H2843 H 0.19416 0.65026 0.55171 0.0
C2844 C 0.21233 0.65476 0.5677 0.0
C2845 C 0.22192 0.64892 0.57931 0.0
C2846 C 0.18702 0.60402 0.56026 0.0
C2847 C 0.20001 0.62989 0.56518 0.0
C2848 C 0.17734 0.59492 0.55086 0.0
C2849 C 0.17025 0.60142 0.53782 0.0
C2850 C 0.18951 0.61956 0.55643 0.0
C2851 C 0.17311 0.61694 0.53456 0.0
C2852 C 0.2013 0.64539 0.56076 0.0
C2853 C 0.21978 0.63364 0.5841 0.0
N2854 N 0.18246 0.62536 0.54373 0.0
N2855 N 0.20915 0.6245 0.57684 0.0
H2856 H 0.15736 0.59035 0.17875 0.0
H2857 H 0.10477 0.51834 0.19409 0.0
H2858 H 0.1622 0.56272 0.21957 0.0
H2859 H 0.11668 0.53145 0.14764 0.0
H2860 H 0.12483 0.53573 0.20369 0.0
H2861 H 0.14255 0.56945 0.16662 0.0
C2862 C 0.1557 0.57967 0.18494 0.0
C2863 C 0.16107 0.57811 0.20006 0.0
C2864 C 0.12316 0.53468 0.19139 0.0
C2865 C 0.14359 0.55465 0.18669 0.0
C2866 C 0.11161 0.52485 0.18588 0.0
C2867 C 0.10901 0.52342 0.17001 0.0
C2868 C 0.13208 0.54333 0.181 0.0
C2869 C 0.11826 0.53221 0.15997 0.0
C2870 C 0.14719 0.56782 0.17808 0.0
C2871 C 0.15845 0.56422 0.20778 0.0
N2872 N 0.12932 0.5419 0.16564 0.0
N2873 N 0.14958 0.55313 0.20113 0.0
H2874 H 0.18865 0.41181 0.95914 0.0
H2875 H 0.20338 0.34693 0.8963 0.0
H2876 H 0.15189 0.38739 0.93579 0.0
H2877 H 0.2364 0.36147 0.93081 0.0
H2878 H 0.1859 0.36794 0.9041 0.0
H2879 H 0.20761 0.40087 0.94106 0.0
C2880 C 0.18448 0.4048 0.94969 0.0
C2881 C 0.16881 0.40028 0.94898 0.0
C2882 C 0.19709 0.36666 0.90977 0.0
C2883 C 0.19029 0.38735 0.92878 0.0
C2884 C 0.20699 0.35465 0.9054 0.0
C2885 C 0.22114 0.35232 0.91318 0.0
C2886 C 0.20155 0.3765 0.9218 0.0
C2887 C 0.22539 0.36268 0.92479 0.0
C2888 C 0.19531 0.39835 0.93954 0.0
C2889 C 0.16396 0.391 0.9367 0.0
N2890 N 0.2156 0.37427 0.9288 0.0
N2891 N 0.17473 0.38451 0.92726 0.0
H2892 H 0.36024 0.48693 0.66283 0.0
H2893 H 0.35374 0.39944 0.68892 0.0
H2894 H 0.39881 0.45757 0.67525 0.0
H2895 H 0.31944 0.43239 0.70419 0.0
H2896 H 0.36634 0.41944 0.67372 0.0
H2897 H 0.34196 0.46592 0.66953 0.0
C2898 C 0.3648 0.47603 0.66685 0.0
C2899 C 0.38095 0.47393 0.66876 0.0
C2900 C 0.35582 0.42222 0.68008 0.0
C2901 C 0.36044 0.45002 0.67572 0.0
C2902 C 0.34857 0.41081 0.68866 0.0
C2903 C 0.33574 0.4144 0.69799 0.0
C2904 C 0.35028 0.43734 0.68092 0.0
C2905 C 0.32939 0.42925 0.69717 0.0
C2906 C 0.35444 0.46414 0.67061 0.0
C2907 C 0.38641 0.45968 0.67389 0.0
N2908 N 0.33697 0.44037 0.68902 0.0
N2909 N 0.37618 0.44825 0.67711 0.0
H2910 H 0.34385 0.61642 0.44638 0.0
H2911 H 0.26088 0.62393 0.40583 0.0
H2912 H 0.30683 0.5844 0.45637 0.0
H2913 H 0.28866 0.66165 0.42263 0.0
H2914 H 0.28097 0.60583 0.41522 0.0
H2915 H 0.32731 0.62863 0.42704 0.0
C2916 C 0.33243 0.61158 0.44402 0.0
C2917 C 0.32653 0.59957 0.45304 0.0
C2918 C 0.2827 0.61808 0.41658 0.0
C2919 C 0.30754 0.61365 0.4313 0.0
C2920 C 0.27133 0.62834 0.41131 0.0
C2921 C 0.27318 0.64417 0.41373 0.0
C2922 C 0.29612 0.62385 0.42381 0.0
C2923 C 0.28681 0.64948 0.42079 0.0
C2924 C 0.32299 0.61862 0.4331 0.0
C2925 C 0.31171 0.59368 0.44961 0.0
N2926 N 0.2978 0.63932 0.42557 0.0
N2927 N 0.30248 0.60103 0.43918 0.0
H2928 H 0.34987 0.1134 0.46348 0.0
H2929 H 0.27595 0.15844 0.43054 0.0
H2930 H 0.30211 0.10157 0.47437 0.0
H2931 H 0.31931 0.15532 0.40551 0.0
H2932 H 0.2872 0.14265 0.45096 0.0
H2933 H 0.34028 0.13319 0.44584 0.0
C2934 C 0.33738 0.11492 0.46215 0.0
C2935 C 0.32677 0.10576 0.47039 0.0
C2936 C 0.29437 0.14572 0.44117 0.0
C2937 C 0.31583 0.12853 0.45046 0.0
C2938 C 0.28805 0.15493 0.42964 0.0
C2939 C 0.2968 0.15824 0.41643 0.0
C2940 C 0.30961 0.14 0.43954 0.0
C2941 C 0.31226 0.15302 0.41559 0.0
C2942 C 0.33195 0.12623 0.45211 0.0
C2943 C 0.31072 0.10831 0.46823 0.0
N2944 N 0.31821 0.14408 0.427 0.0
N2945 N 0.30574 0.1195 0.45851 0.0
H2946 H 0.82309 0.40299 0.53948 0.0
H2947 H 0.79007 0.32386 0.56383 0.0
H2948 H 0.83131 0.36436 0.50955 0.0
H2949 H 0.80822 0.35652 0.59656 0.0
H2950 H 0.80519 0.33672 0.54345 0.0
H2951 H 0.81662 0.38532 0.56029 0.0
C2952 C 0.8235 0.39073 0.53736 0.0
C2953 C 0.82759 0.38504 0.52289 0.0
C2954 C 0.8062 0.34073 0.55519 0.0
C2955 C 0.82008 0.36473 0.54652 0.0
C2956 C 0.79766 0.33336 0.56681 0.0
C2957 C 0.79768 0.33939 0.58178 0.0
C2958 C 0.81453 0.3542 0.5587 0.0
C2959 C 0.80765 0.35173 0.58507 0.0
C2960 C 0.81997 0.38064 0.54924 0.0
C2961 C 0.82814 0.36908 0.52065 0.0
N2962 N 0.81539 0.35894 0.57358 0.0
N2963 N 0.82412 0.35939 0.53232 0.0
H2964 H 0.4048 0.06629 0.34035 0.0
H2965 H 0.36052 0.0472 0.26448 0.0
H2966 H 0.41777 0.02725 0.31264 0.0
H2967 H 0.36684 0.09427 0.27882 0.0
H2968 H 0.38097 0.03937 0.28255 0.0
H2969 H 0.39098 0.07718 0.3182 0.0
C2970 C 0.40511 0.06024 0.32946 0.0
C2971 C 0.41242 0.04588 0.32827 0.0
C2972 C 0.37801 0.05144 0.28158 0.0
C2973 C 0.39616 0.05787 0.30321 0.0
C2974 C 0.36625 0.05588 0.27139 0.0
C2975 C 0.36193 0.07139 0.27023 0.0
C2976 C 0.38521 0.06253 0.29092 0.0
C2977 C 0.36982 0.08219 0.27936 0.0
C2978 C 0.39718 0.06641 0.31687 0.0
C2979 C 0.41238 0.0384 0.31399 0.0
N2980 N 0.38093 0.07753 0.2895 0.0
N2981 N 0.40403 0.0443 0.30209 0.0
H2982 H 0.65411 0.62649 0.01376 0.0
H2983 H 0.71445 0.62796 0.08369 0.0
H2984 H 0.68829 0.59133 0.02364 0.0
H2985 H 0.68551 0.66717 0.07317 0.0
H2986 H 0.70494 0.61512 0.06091 0.0
H2987 H 0.66528 0.64227 0.0345 0.0
C2988 C 0.66398 0.62212 0.02022 0.0
C2989 C 0.67025 0.60753 0.01698 0.0
C2990 C 0.70057 0.62652 0.06345 0.0
C2991 C 0.68292 0.62541 0.04067 0.0
C2992 C 0.70595 0.63384 0.07656 0.0
C2993 C 0.70052 0.64852 0.08045 0.0
C2994 C 0.68944 0.63378 0.05409 0.0
C2995 C 0.68985 0.65577 0.07058 0.0
C2996 C 0.67035 0.63115 0.03201 0.0
C2997 C 0.68308 0.6025 0.02563 0.0
N2998 N 0.68447 0.64822 0.05787 0.0
N2999 N 0.68887 0.61135 0.03709 0.0
H3000 H 0.57273 0.42822 0.33228 0.0
H3001 H 0.64438 0.44517 0.27642 0.0
H3002 H 0.59192 0.47317 0.32402 0.0
H3003 H 0.61879 0.40245 0.2744 0.0
H3004 H 0.62523 0.45512 0.29449 0.0
H3005 H 0.58884 0.41806 0.31105 0.0
C3006 C 0.58005 0.43596 0.32571 0.0
C3007 C 0.58089 0.45156 0.32956 0.0
C3008 C 0.62369 0.44361 0.29002 0.0
C3009 C 0.59964 0.44011 0.30599 0.0
C3010 C 0.63467 0.43789 0.27971 0.0
C3011 C 0.63319 0.42294 0.27385 0.0
C3012 C 0.61109 0.43434 0.2946 0.0
C3013 C 0.62042 0.41401 0.27868 0.0
C3014 C 0.58928 0.4302 0.31372 0.0
C3015 C 0.59072 0.46116 0.32106 0.0
N3016 N 0.60985 0.41984 0.28882 0.0
N3017 N 0.59984 0.45527 0.3098 0.0
H3018 H 0.14572 0.87531 0.972 0.0
H3019 H 0.22063 0.84274 0.92787 0.0
H3020 H 0.19231 0.89388 0.97649 0.0
H3021 H 0.17386 0.83659 0.91074 0.0
H3022 H 0.21019 0.85639 0.95016 0.0
H3023 H 0.15575 0.85643 0.95354 0.0
C3024 C 0.15805 0.87541 0.96916 0.0
C3025 C 0.16816 0.8863 0.97573 0.0
C3026 C 0.20216 0.85173 0.94174 0.0
C3027 C 0.17966 0.86465 0.95481 0.0
C3028 C 0.2081 0.84378 0.92915 0.0
C3029 C 0.19804 0.83842 0.91766 0.0
C3030 C 0.186 0.85425 0.94287 0.0
C3031 C 0.18192 0.84047 0.91951 0.0
C3032 C 0.16374 0.86462 0.95865 0.0
C3033 C 0.18404 0.88578 0.97169 0.0
N3034 N 0.17635 0.8483 0.9319 0.0
N3035 N 0.18928 0.87517 0.96148 0.0
H3036 H 0.37532 0.9023 0.22526 0.0
H3037 H 0.39376 0.97447 0.17143 0.0
H3038 H 0.34778 0.94386 0.22295 0.0
H3039 H 0.41525 0.93033 0.16403 0.0
H3040 H 0.38066 0.96444 0.19412 0.0
H3041 H 0.39326 0.91318 0.20609 0.0
C3042 C 0.37305 0.91369 0.22077 0.0
C3043 C 0.35997 0.92215 0.22569 0.0
C3044 C 0.38838 0.95693 0.18772 0.0
C3045 C 0.38044 0.93461 0.20393 0.0
C3046 C 0.39597 0.96272 0.17487 0.0
C3047 C 0.40557 0.95319 0.16603 0.0
C3048 C 0.39027 0.9414 0.19168 0.0
C3049 C 0.40792 0.93797 0.1707 0.0
C3050 C 0.3833 0.91987 0.20987 0.0
C3051 C 0.35768 0.93689 0.21956 0.0
N3052 N 0.40016 0.93244 0.18322 0.0
N3053 N 0.36777 0.94259 0.209 0.0
H3054 H 0.13089 0.09682 0.70963 0.0
H3055 H 0.07736 0.02749 0.68056 0.0
H3056 H 0.13375 0.05059 0.72742 0.0
H3057 H 0.08855 0.06671 0.65242 0.0
H3058 H 0.09201 0.03896 0.70181 0.0
H3059 H 0.11018 0.08851 0.69209 0.0
C3060 C 0.12715 0.08493 0.70986 0.0
C3061 C 0.13416 0.07434 0.7199 0.0
C3062 C 0.09089 0.04525 0.69112 0.0
C3063 C 0.11029 0.06489 0.70012 0.0
C3064 C 0.08231 0.03883 0.67908 0.0
C3065 C 0.08173 0.04625 0.6648 0.0
C3066 C 0.09876 0.05921 0.68881 0.0
C3067 C 0.08874 0.06071 0.66332 0.0
C3068 C 0.11531 0.08023 0.6999 0.0
C3069 C 0.1288 0.0591 0.71975 0.0
N3070 N 0.0971 0.0667 0.67516 0.0
N3071 N 0.11717 0.05482 0.71002 0.0
H3072 H 0.01006 0.10701 0.44698 0.0
H3073 H 0.09029 0.11906 0.4921 0.0
H3074 H 0.02376 0.1503 0.46718 0.0
H3075 H 0.07893 0.07886 0.46528 0.0
H3076 H 0.06389 0.12892 0.48766 0.0
H3077 H 0.03274 0.09488 0.45862 0.0
C3078 C 0.01767 0.11395 0.45412 0.0
C3079 C 0.01514 0.12982 0.45582 0.0
C3080 C 0.06715 0.1179 0.48284 0.0
C3081 C 0.04133 0.11589 0.46912 0.0
C3082 C 0.08222 0.11227 0.48533 0.0
C3083 C 0.08689 0.09822 0.47884 0.0
C3084 C 0.05667 0.10943 0.47377 0.0
C3085 C 0.07588 0.08981 0.47038 0.0
C3086 C 0.03069 0.10698 0.46072 0.0
C3087 C 0.02535 0.13809 0.46538 0.0
N3088 N 0.06134 0.09561 0.46797 0.0
N3089 N 0.03814 0.13107 0.47149 0.0
H3090 H 0.12786 0.83761 0.74141 0.0
H3091 H 0.14974 0.7666 0.68793 0.0
H3092 H 0.1711 0.83341 0.71621 0.0
H3093 H 0.10582 0.77062 0.71198 0.0
H3094 H 0.15965 0.78858 0.70225 0.0
H3095 H 0.12136 0.81115 0.73444 0.0
C3096 C 0.13604 0.83108 0.73451 0.0
C3097 C 0.14994 0.83779 0.72918 0.0
C3098 C 0.14793 0.78452 0.70462 0.0
C3099 C 0.14257 0.80752 0.72118 0.0
C3100 C 0.14229 0.77189 0.69649 0.0
C3101 C 0.12683 0.76694 0.69857 0.0
C3102 C 0.13802 0.79234 0.71483 0.0
C3103 C 0.11776 0.77417 0.7099 0.0
C3104 C 0.13234 0.81596 0.73057 0.0
C3105 C 0.16019 0.82875 0.72043 0.0
N3106 N 0.1234 0.7867 0.71743 0.0
N3107 N 0.15622 0.81414 0.71657 0.0
H3108 H 0.41559 0.91779 0.96529 0.0
H3109 H 0.47173 0.84468 0.96799 0.0
H3110 H 0.40524 0.87655 0.9909 0.0
H3111 H 0.48232 0.88653 0.94344 0.0
H3112 H 0.44936 0.85756 0.97988 0.0
H3113 H 0.44183 0.90789 0.96024 0.0
C3114 C 0.41889 0.90671 0.96996 0.0
C3115 C 0.40814 0.89786 0.9783 0.0
C3116 C 0.45672 0.86398 0.97204 0.0
C3117 C 0.43813 0.88644 0.97257 0.0
C3118 C 0.46953 0.85664 0.96529 0.0
C3119 C 0.47874 0.86443 0.95445 0.0
C3120 C 0.45307 0.87917 0.96785 0.0
C3121 C 0.47538 0.87996 0.9515 0.0
C3122 C 0.43388 0.90107 0.9671 0.0
C3123 C 0.41308 0.88365 0.9842 0.0
N3124 N 0.46271 0.88674 0.95799 0.0
N3125 N 0.42766 0.87831 0.98109 0.0
H3126 H 0.35624 0.20993 0.17972 0.0
H3127 H 0.33665 0.16328 0.24846 0.0
H3128 H 0.38402 0.22719 0.21744 0.0
H3129 H 0.36813 0.14279 0.21561 0.0
H3130 H 0.34521 0.18899 0.23979 0.0
H3131 H 0.35008 0.18721 0.19486 0.0
C3132 C 0.36076 0.20916 0.19133 0.0
C3133 C 0.37075 0.22047 0.19731 0.0
C3134 C 0.35044 0.17879 0.23482 0.0
C3135 C 0.36351 0.19453 0.21462 0.0
C3136 C 0.34553 0.16423 0.23963 0.0
C3137 C 0.35169 0.15104 0.23262 0.0
C3138 C 0.36113 0.17994 0.22268 0.0
C3139 C 0.36319 0.15274 0.22131 0.0
C3140 C 0.35727 0.19615 0.19988 0.0
C3141 C 0.37634 0.21868 0.21241 0.0
N3142 N 0.36725 0.16697 0.21637 0.0
N3143 N 0.37268 0.20582 0.22063 0.0
H3144 H 0.01952 0.84681 0.02575 0.0
H3145 H 0.08003 0.91659 0.03258 0.0
H3146 H 0.01758 0.883 0.05971 0.0
H3147 H 0.08568 0.87976 -0.00019 0.0
H3148 H 0.0548 0.90602 0.0399 0.0
H3149 H 0.04149 0.86022 0.01337 0.0
C3150 C 0.02359 0.85758 0.03052 0.0
C3151 C 0.01675 0.86369 0.04387 0.0
C3152 C 0.06143 0.90029 0.03098 0.0
C3153 C 0.04182 0.87895 0.02991 0.0
C3154 C 0.07585 0.90638 0.02676 0.0
C3155 C 0.08504 0.89893 0.01572 0.0
C3156 C 0.05612 0.88663 0.02411 0.0
C3157 C 0.07902 0.88573 0.00854 0.0
C3158 C 0.03612 0.86521 0.02347 0.0
C3159 C 0.02243 0.87776 0.04948 0.0
N3160 N 0.06497 0.8799 0.01296 0.0
N3161 N 0.03467 0.88478 0.04258 0.0
H3162 H 0.3457 0.76473 0.30092 0.0
H3163 H 0.36808 0.84079 0.25476 0.0
H3164 H 0.39042 0.77163 0.27903 0.0
H3165 H 0.32636 0.83528 0.2821 0.0
H3166 H 0.37445 0.81372 0.25923 0.0
H3167 H 0.33614 0.78818 0.28888 0.0
C3168 C 0.35339 0.77093 0.29321 0.0
C3169 C 0.36902 0.76639 0.29126 0.0
C3170 C 0.36385 0.81842 0.26416 0.0
C3171 C 0.3582 0.79346 0.27767 0.0
C3172 C 0.36025 0.83388 0.26168 0.0
C3173 C 0.34675 0.84032 0.26819 0.0
C3174 C 0.35389 0.80937 0.27325 0.0
C3175 C 0.33693 0.83081 0.27691 0.0
C3176 C 0.34795 0.78443 0.28645 0.0
C3177 C 0.37836 0.77482 0.28103 0.0
N3178 N 0.34076 0.81585 0.27927 0.0
N3179 N 0.37291 0.78814 0.27484 0.0
H3180 H 0.40509 0.11704 0.49984 0.0
H3181 H 0.47906 0.10909 0.55532 0.0
H3182 H 0.41262 0.07949 0.5314 0.0
H3183 H 0.47003 0.14966 0.52812 0.0
H3184 H 0.45684 0.09655 0.54338 0.0
H3185 H 0.43061 0.12759 0.507 0.0
C3186 C 0.41216 0.11096 0.50819 0.0
C3187 C 0.40666 0.09743 0.51515 0.0
C3188 C 0.45977 0.10814 0.53987 0.0
C3189 C 0.43582 0.10944 0.52336 0.0
C3190 C 0.47253 0.11533 0.54667 0.0
C3191 C 0.47633 0.13058 0.5429 0.0
C3192 C 0.45062 0.11618 0.52918 0.0
C3193 C 0.46746 0.13796 0.53149 0.0
C3194 C 0.42671 0.11699 0.51226 0.0
C3195 C 0.41633 0.08998 0.52581 0.0
N3196 N 0.45489 0.13073 0.52514 0.0
N3197 N 0.43038 0.09614 0.52965 0.0
H3198 H 0.15751 0.15064 0.78897 0.0
H3199 H 0.10525 0.22334 0.77537 0.0
H3200 H 0.13637 0.15711 0.74439 0.0
H3201 H 0.14646 0.22361 0.80402 0.0
H3202 H 0.11436 0.19917 0.76368 0.0
H3203 H 0.15014 0.17677 0.79588 0.0
C3204 C 0.15146 0.15764 0.78057 0.0
C3205 C 0.14777 0.15183 0.76601 0.0
C3206 C 0.12149 0.20476 0.77231 0.0
C3207 C 0.13937 0.1818 0.77381 0.0
C3208 C 0.11638 0.21858 0.7789 0.0
C3209 C 0.12497 0.22538 0.79088 0.0
C3210 C 0.13505 0.19769 0.77803 0.0
C3211 C 0.13933 0.21873 0.79497 0.0
C3212 C 0.1473 0.17256 0.7845 0.0
C3213 C 0.13949 0.16125 0.75572 0.0
N3214 N 0.14371 0.20509 0.78883 0.0
N3215 N 0.13554 0.17586 0.75981 0.0
H3216 H 0.49105 0.09161 0.1204 0.0
H3217 H 0.45408 0.0086 0.10903 0.0
H3218 H 0.47373 0.07392 0.07728 0.0
H3219 H 0.46785 0.02661 0.15323 0.0
H3220 H 0.46678 0.03028 0.09658 0.0
H3221 H 0.48763 0.06618 0.13186 0.0
C3222 C 0.48667 0.08233 0.1133 0.0
C3223 C 0.48241 0.08491 0.09793 0.0
C3224 C 0.46726 0.02941 0.10899 0.0
C3225 C 0.47854 0.05584 0.11094 0.0
C3226 C 0.46004 0.017 0.11612 0.0
C3227 C 0.45962 0.016 0.13221 0.0
C3228 C 0.47397 0.04103 0.11801 0.0
C3229 C 0.46776 0.02704 0.1408 0.0
C3230 C 0.48476 0.06782 0.11985 0.0
C3231 C 0.47694 0.07249 0.08923 0.0
N3232 N 0.47436 0.03931 0.13359 0.0
N3233 N 0.47503 0.05852 0.0959 0.0
H3234 H 0.23401 0.20313 0.36169 0.0
H3235 H 0.14646 0.23021 0.37656 0.0
H3236 H 0.21469 0.21054 0.40693 0.0
H3237 H 0.16684 0.226 0.33137 0.0
H3238 H 0.17208 0.22539 0.38792 0.0
H3239 H 0.21066 0.21463 0.35043 0.0
C3240 C 0.22495 0.20742 0.36927 0.0
C3241 C 0.22617 0.20565 0.38526 0.0
C3242 C 0.17101 0.22571 0.37552 0.0
C3243 C 0.19928 0.21855 0.37244 0.0
C3244 C 0.15639 0.22843 0.36903 0.0
C3245 C 0.15455 0.22841 0.35301 0.0
C3246 C 0.18392 0.22299 0.36592 0.0
C3247 C 0.16775 0.22595 0.34378 0.0
C3248 C 0.2116 0.21395 0.36283 0.0
C3249 C 0.2142 0.21159 0.39454 0.0
N3250 N 0.18188 0.22328 0.35038 0.0
N3251 N 0.20111 0.21754 0.38798 0.0
H3252 H 0.0168 0.91938 0.57534 0.0
H3253 H 0.03361 0.96194 0.65493 0.0
H3254 H 0.00953 0.89817 0.6196 0.0
H3255 H 0.03469 0.9846 0.61084 0.0
H3256 H 0.0234 0.9388 0.64246 0.0
H3257 H 0.02244 0.94373 0.58827 0.0
C3258 C 0.01638 0.91989 0.58778 0.0
C3259 C 0.01267 0.90684 0.59645 0.0
C3260 C 0.02555 0.94894 0.63555 0.0
C3261 C 0.01921 0.93449 0.61131 0.0
C3262 C 0.03123 0.96217 0.64269 0.0
C3263 C 0.03495 0.97513 0.63386 0.0
C3264 C 0.02354 0.94876 0.61951 0.0
C3265 C 0.03202 0.97477 0.61801 0.0
C3266 C 0.01953 0.93377 0.59516 0.0
C3267 C 0.0122 0.90806 0.61252 0.0
N3268 N 0.02658 0.96175 0.61132 0.0
N3269 N 0.01557 0.92162 0.61945 0.0
H3270 H 0.33789 0.75194 0.86661 0.0
H3271 H 0.25853 0.79897 0.85753 0.0
H3272 H 0.32426 0.77605 0.82536 0.0
H3273 H 0.27359 0.77848 0.90024 0.0
H3274 H 0.28014 0.78643 0.84438 0.0
H3275 H 0.31235 0.75755 0.87777 0.0
C3276 C 0.32945 0.75826 0.85981 0.0
C3277 C 0.33328 0.76373 0.8451 0.0
C3278 C 0.27864 0.7845 0.85659 0.0
C3279 C 0.30402 0.77019 0.85784 0.0
C3280 C 0.26627 0.79165 0.86413 0.0
C3281 C 0.2644 0.79 0.88009 0.0
C3282 C 0.28934 0.77568 0.86504 0.0
C3283 C 0.27467 0.78018 0.88796 0.0
C3284 C 0.31487 0.76146 0.86622 0.0
C3285 C 0.32186 0.77177 0.8368 0.0
N3286 N 0.28685 0.77356 0.88039 0.0
N3287 N 0.30779 0.77487 0.84335 0.0
H3288 H 0.47946 0.8962 0.37607 0.0
H3289 H 0.45667 0.98464 0.38505 0.0
H3290 H 0.47397 0.91882 0.41989 0.0
H3291 H 0.46125 0.96167 0.3413 0.0
H3292 H 0.46649 0.96164 0.39787 0.0
H3293 H 0.47529 0.9207 0.36313 0.0
C3294 C 0.47753 0.90639 0.38298 0.0
C3295 C 0.4771 0.90552 0.39908 0.0
C3296 C 0.46554 0.96167 0.38545 0.0
C3297 C 0.47242 0.93366 0.38432 0.0
C3298 C 0.46002 0.97483 0.37811 0.0
C3299 C 0.45794 0.97498 0.3621 0.0
C3300 C 0.46888 0.94851 0.37673 0.0
C3301 C 0.46263 0.96204 0.35367 0.0
C3302 C 0.47515 0.92038 0.37557 0.0
C3303 C 0.47433 0.91901 0.40745 0.0
N3304 N 0.46764 0.94922 0.36112 0.0
N3305 N 0.4721 0.93255 0.39996 0.0
H3306 H 0.27234 0.21589 0.59327 0.0
H3307 H 0.32588 0.21699 0.66827 0.0
H3308 H 0.25858 0.19664 0.63697 0.0
H3309 H 0.33951 0.23675 0.62478 0.0
H3310 H 0.29964 0.21275 0.65801 0.0
H3311 H 0.29513 0.2274 0.60567 0.0
C3312 C 0.27391 0.21436 0.60553 0.0
C3313 C 0.2637 0.20503 0.61403 0.0
C3314 C 0.30833 0.21815 0.65075 0.0
C3315 C 0.28987 0.21797 0.62825 0.0
C3316 C 0.32332 0.22053 0.6566 0.0
C3317 C 0.33495 0.22701 0.64729 0.0
C3318 C 0.30496 0.22224 0.63546 0.0
C3319 C 0.33095 0.23152 0.63229 0.0
C3320 C 0.28699 0.22086 0.61259 0.0
C3321 C 0.26631 0.2035 0.6299 0.0
N3322 N 0.31634 0.22892 0.6268 0.0
N3323 N 0.27925 0.20971 0.63644 0.0
H3324 H 0.02438 0.02829 0.84571 0.0
H3325 H 0.02838 0.07954 0.92147 0.0
H3326 H 0.04219 0.01208 0.88923 0.0
H3327 H 0.00294 0.0933 0.88088 0.0
H3328 H 0.03265 0.0543 0.90993 0.0
H3329 H 0.01475 0.05147 0.85857 0.0
C3330 C 0.02592 0.02941 0.85802 0.0
C3331 C 0.03428 0.01832 0.86638 0.0
C3332 C 0.026 0.06279 0.9036 0.0
C3333 C 0.02358 0.04488 0.88108 0.0
C3334 C 0.02362 0.07722 0.91017 0.0
C3335 C 0.01533 0.08852 0.90212 0.0
C3336 C 0.02016 0.05969 0.88881 0.0
C3337 C 0.00942 0.0849 0.88749 0.0
C3338 C 0.02053 0.04271 0.86534 0.0
C3339 C 0.03601 0.02043 0.88229 0.0
N3340 N 0.01204 0.07083 0.88125 0.0
N3341 N 0.0309 0.03354 0.88907 0.0
H3342 H 0.23408 0.79464 0.13593 0.0
H3343 H 0.14939 0.76063 0.12006 0.0
H3344 H 0.21812 0.78072 0.09098 0.0
H3345 H 0.16662 0.77209 0.16527 0.0
H3346 H 0.1755 0.7649 0.10962 0.0
H3347 H 0.21101 0.78281 0.14729 0.0
C3348 C 0.22585 0.78883 0.12846 0.0
C3349 C 0.22789 0.78892 0.11244 0.0
C3350 C 0.17363 0.76633 0.12184 0.0
C3351 C 0.20123 0.77558 0.12538 0.0
C3352 C 0.1587 0.76395 0.12782 0.0
C3353 C 0.15578 0.7662 0.14354 0.0
C3354 C 0.18576 0.77105 0.13164 0.0
C3355 C 0.16831 0.7704 0.15305 0.0
C3356 C 0.21263 0.78211 0.13497 0.0
C3357 C 0.21695 0.78104 0.10337 0.0
N3358 N 0.18271 0.77281 0.14693 0.0
N3359 N 0.20393 0.77493 0.10994 0.0
H3360 H 0.09671 0.44224 0.01625 0.0
H3361 H 0.11587 0.49374 0.08981 0.0
H3362 H 0.14198 0.46236 0.02471 0.0
H3363 H 0.07297 0.46851 0.08327 0.0
H3364 H 0.12409 0.48638 0.06388 0.0
H3365 H 0.08624 0.45633 0.03814 0.0
C3366 C 0.10439 0.4499 0.02251 0.0
C3367 C 0.12031 0.45094 0.01878 0.0
C3368 C 0.11281 0.4826 0.06806 0.0
C3369 C 0.10843 0.46695 0.04409 0.0
C3370 C 0.1081 0.48679 0.08286 0.0
C3371 C 0.09377 0.48161 0.08876 0.0
C3372 C 0.10309 0.4732 0.05908 0.0
C3373 C 0.08417 0.47267 0.07924 0.0
C3374 C 0.09841 0.45789 0.03509 0.0
C3375 C 0.12966 0.46114 0.02724 0.0
N3376 N 0.08905 0.46867 0.06492 0.0
N3377 N 0.12363 0.46857 0.03968 0.0
H3378 H 0.57911 0.0366 0.90539 0.0
H3379 H 0.64169 0.03202 0.97127 0.0
H3380 H 0.61196 -0.00104 0.90683 0.0
H3381 H 0.59709 0.05467 0.97635 0.0
H3382 H 0.63159 0.0188 0.94836 0.0
H3383 H 0.58666 0.04366 0.9314 0.0
C3384 C 0.58777 0.02968 0.91128 0.0
C3385 C 0.59486 0.01714 0.90398 0.0
C3386 C 0.62396 0.02644 0.95472 0.0
C3387 C 0.60356 0.02513 0.93387 0.0
C3388 C 0.62968 0.03391 0.96783 0.0
C3389 C 0.62033 0.04473 0.97551 0.0
C3390 C 0.60894 0.03004 0.94927 0.0
C3391 C 0.60483 0.04666 0.97062 0.0
C3392 C 0.59205 0.03368 0.92617 0.0
C3393 C 0.60624 0.00875 0.91207 0.0
N3394 N 0.59974 0.03966 0.95764 0.0
N3395 N 0.61033 0.01295 0.92661 0.0
H3396 H 0.19728 0.35653 0.23266 0.0
H3397 H 0.24358 0.36245 0.15326 0.0
H3398 H 0.21927 0.39833 0.21693 0.0
H3399 H 0.21855 0.32218 0.16852 0.0
H3400 H 0.23775 0.37492 0.17777 0.0
H3401 H 0.20817 0.34298 0.21073 0.0
C3402 C 0.2046 0.36284 0.22469 0.0
C3403 C 0.20725 0.37864 0.22658 0.0
C3404 C 0.23368 0.3633 0.17582 0.0
C3405 C 0.21969 0.36312 0.20125 0.0
C3406 C 0.23703 0.35614 0.16186 0.0
C3407 C 0.23148 0.34126 0.15885 0.0
C3408 C 0.22476 0.35549 0.18687 0.0
C3409 C 0.22302 0.33367 0.17035 0.0
C3410 C 0.21079 0.35507 0.21212 0.0
C3411 C 0.21691 0.38615 0.21592 0.0
N3412 N 0.21984 0.34091 0.18381 0.0
N3413 N 0.22265 0.37835 0.20358 0.0
H3414 H 0.8482 0.96346 0.47023 0.0
H3415 H 0.91904 0.9724 0.4116 0.0
H3416 H 0.89505 0.94739 0.4791 0.0
H3417 H 0.87287 0.9905 0.40308 0.0
H3418 H 0.9113 0.96647 0.43794 0.0
H3419 H 0.8579 0.97736 0.44769 0.0
C3420 C 0.86059 0.96321 0.4677 0.0
C3421 C 0.87079 0.95404 0.47639 0.0
C3422 C 0.90289 0.97191 0.43039 0.0
C3423 C 0.8819 0.9696 0.45048 0.0
C3424 C 0.90731 0.97527 0.41532 0.0
C3425 C 0.89653 0.98181 0.40508 0.0
C3426 C 0.88755 0.97502 0.43527 0.0
C3427 C 0.88151 0.98533 0.41055 0.0
C3428 C 0.86611 0.97104 0.45475 0.0
C3429 C 0.88673 0.95413 0.47258 0.0
N3430 N 0.87742 0.98175 0.42523 0.0
N3431 N 0.89174 0.96155 0.45977 0.0
H3432 H 0.77629 0.09346 0.21292 0.0
H3433 H 0.77585 0.17175 0.16593 0.0
H3434 H 0.7926 0.13679 0.23103 0.0
H3435 H 0.74868 0.13243 0.1518 0.0
H3436 H 0.7817 0.15881 0.19009 0.0
H3437 H 0.76516 0.10718 0.19083 0.0
C3438 C 0.77729 0.10586 0.21241 0.0
C3439 C 0.7856 0.11396 0.22374 0.0
C3440 C 0.7743 0.15305 0.1818 0.0
C3441 C 0.77309 0.12964 0.19851 0.0
C3442 C 0.77098 0.16044 0.16799 0.0
C3443 C 0.76177 0.15315 0.15687 0.0
C3444 C 0.76852 0.13817 0.18447 0.0
C3445 C 0.7558 0.13847 0.16011 0.0
C3446 C 0.77099 0.11367 0.19978 0.0
C3447 C 0.78653 0.13001 0.22247 0.0
N3448 N 0.75941 0.13137 0.17358 0.0
N3449 N 0.78053 0.13728 0.21001 0.0
H3450 H 0.39194 0.54107 0.51375 0.0
H3451 H 0.36896 0.51478 0.5975 0.0
H3452 H 0.34441 0.53262 0.52789 0.0
H3453 H 0.4165 0.51484 0.58091 0.0
H3454 H 0.35974 0.51858 0.57125 0.0
H3455 H 0.4012 0.52771 0.53668 0.0
C3456 C 0.38346 0.53596 0.52146 0.0
C3457 C 0.3674 0.53816 0.51908 0.0
C3458 C 0.37218 0.51752 0.57328 0.0
C3459 C 0.37788 0.52334 0.54559 0.0
C3460 C 0.37746 0.51542 0.5883 0.0
C3461 C 0.39353 0.51464 0.5914 0.0
C3462 C 0.38304 0.51891 0.56126 0.0
C3463 C 0.40401 0.51557 0.57904 0.0
C3464 C 0.38875 0.52843 0.53462 0.0
C3465 C 0.3569 0.53125 0.52934 0.0
N3466 N 0.39858 0.51779 0.56451 0.0
N3467 N 0.36233 0.52448 0.54238 0.0
H3468 H 0.2256 0.67034 0.32523 0.0
H3469 H 0.20686 0.58938 0.28607 0.0
H3470 H 0.22831 0.62691 0.349 0.0
H3471 H 0.2105 0.63174 0.26056 0.0
H3472 H 0.21625 0.60273 0.30899 0.0
H3473 H 0.22072 0.65643 0.30112 0.0
C3474 C 0.22513 0.6579 0.32534 0.0
C3475 C 0.22745 0.64972 0.339 0.0
C3476 C 0.21531 0.60905 0.29831 0.0
C3477 C 0.22185 0.63379 0.31173 0.0
C3478 C 0.21012 0.60137 0.28518 0.0
C3479 C 0.20786 0.6095 0.27146 0.0
C3480 C 0.21826 0.62494 0.29764 0.0
C3481 C 0.21198 0.62511 0.271 0.0
C3482 C 0.22245 0.64996 0.31162 0.0
C3483 C 0.22678 0.63362 0.33862 0.0
N3484 N 0.21683 0.63237 0.28395 0.0
N3485 N 0.22395 0.62619 0.32523 0.0
H3486 H 0.28728 0.33217 0.83961 0.0
H3487 H 0.26356 0.38497 0.76794 0.0
H3488 H 0.23973 0.34728 0.83286 0.0
H3489 H 0.31059 0.37575 0.78328 0.0
H3490 H 0.25359 0.37061 0.79046 0.0
H3491 H 0.29518 0.34688 0.81727 0.0
C3492 C 0.27844 0.33837 0.83321 0.0
C3493 C 0.26284 0.33845 0.83799 0.0
C3494 C 0.26607 0.37186 0.78885 0.0
C3495 C 0.2718 0.35554 0.81236 0.0
C3496 C 0.27172 0.38004 0.77609 0.0
C3497 C 0.28789 0.38122 0.77367 0.0
C3498 C 0.27675 0.36504 0.79912 0.0
C3499 C 0.29803 0.37476 0.78452 0.0
C3500 C 0.28296 0.34693 0.82051 0.0
C3501 C 0.2519 0.34696 0.82945 0.0
N3502 N 0.29231 0.36695 0.79668 0.0
N3503 N 0.25658 0.35519 0.81696 0.0
H3504 H 0.90457 0.90749 0.51911 0.0
H3505 H 0.97305 0.84532 0.5162 0.0
H3506 H 0.9006 0.86224 0.49912 0.0
H3507 H 0.9767 0.88873 0.54 0.0
H3508 H 0.9487 0.85415 0.50451 0.0
H3509 H 0.9327 0.90311 0.52257 0.0
C3510 C 0.90964 0.8967 0.51537 0.0
C3511 C 0.90023 0.88511 0.50909 0.0
C3512 C 0.95497 0.86184 0.51211 0.0
C3513 C 0.93227 0.88012 0.51273 0.0
C3514 C 0.96895 0.85684 0.51868 0.0
C3515 C 0.97668 0.86611 0.52945 0.0
C3516 C 0.94866 0.87613 0.51643 0.0
C3517 C 0.97091 0.88102 0.53206 0.0
C3518 C 0.92566 0.89422 0.51728 0.0
C3519 C 0.90736 0.87138 0.50433 0.0
N3520 N 0.95707 0.88545 0.52587 0.0
N3521 N 0.92291 0.86925 0.50631 0.0
H3522 H 0.86104 0.23628 0.28547 0.0
H3523 H 0.86989 0.14523 0.27549 0.0
H3524 H 0.90263 0.21053 0.29632 0.0
H3525 H 0.828 0.16961 0.26255 0.0
H3526 H 0.88225 0.16955 0.28192 0.0
H3527 H 0.84918 0.21273 0.275 0.0
C3528 C 0.86772 0.22571 0.28543 0.0
C3529 C 0.88286 0.22532 0.29161 0.0
C3530 C 0.87041 0.16968 0.27753 0.0
C3531 C 0.86927 0.19835 0.28027 0.0
C3532 C 0.86334 0.15576 0.27383 0.0
C3533 C 0.84791 0.15541 0.26845 0.0
C3534 C 0.86207 0.18347 0.27574 0.0
C3535 C 0.83991 0.1694 0.26676 0.0
C3536 C 0.86095 0.21228 0.27955 0.0
C3537 C 0.89104 0.21137 0.29139 0.0
N3538 N 0.84709 0.1829 0.27038 0.0
N3539 N 0.88408 0.19844 0.28602 0.0
H3540 H 0.51754 0.1067 0.04844 0.0
H3541 H 0.59121 0.13087 -0.00126 0.0
H3542 H 0.51846 0.14591 0.018 0.0
H3543 H 0.59019 0.09039 0.02731 0.0
H3544 H 0.56329 0.13432 0.00288 0.0
H3545 H 0.54235 0.09814 0.03779 0.0
C3546 C 0.52277 0.11336 0.03926 0.0
C3547 C 0.51605 0.12727 0.03435 0.0
C3548 C 0.56909 0.12463 0.00823 0.0
C3549 C 0.5446 0.11753 0.02221 0.0
C3550 C 0.58506 0.12274 0.00597 0.0
C3551 C 0.59299 0.1105 0.01296 0.0
C3552 C 0.56102 0.11439 0.01781 0.0
C3553 C 0.58445 0.10004 0.02185 0.0
C3554 C 0.537 0.10846 0.03323 0.0
C3555 C 0.52331 0.13526 0.02232 0.0
N3556 N 0.56891 0.10236 0.02423 0.0
N3557 N 0.53733 0.1304 0.01683 0.0
H3558 H 0.63827 0.76464 0.80239 0.0
H3559 H 0.62791 0.84131 0.75369 0.0
H3560 H 0.59681 0.77495 0.77602 0.0
H3561 H 0.66955 0.82986 0.77922 0.0
H3562 H 0.61781 0.8155 0.75855 0.0
H3563 H 0.65127 0.78659 0.79081 0.0
C3564 C 0.63194 0.77137 0.79396 0.0
C3565 C 0.61628 0.76805 0.79039 0.0
C3566 C 0.62921 0.81857 0.76298 0.0
C3567 C 0.63119 0.79343 0.77711 0.0
C3568 C 0.63497 0.83332 0.76025 0.0
C3569 C 0.64947 0.83781 0.76631 0.0
C3570 C 0.63795 0.80828 0.77197 0.0
C3571 C 0.65825 0.82693 0.77447 0.0
C3572 C 0.63941 0.78396 0.78736 0.0
C3573 C 0.60881 0.77716 0.77927 0.0
N3574 N 0.65226 0.81273 0.77724 0.0
N3575 N 0.61627 0.78957 0.77318 0.0
H3576 H 0.89312 0.13664 0.96997 0.0
H3577 H 0.98007 0.11048 0.95928 0.0
H3578 H 0.90662 0.09048 0.98255 0.0
H3579 H 0.96675 0.15717 0.96986 0.0
H3580 H 0.95401 0.10186 0.96707 0.0
H3581 H 0.92051 0.14331 0.96702 0.0
C3582 C 0.90185 0.12786 0.97206 0.0
C3583 C 0.89757 0.11303 0.97674 0.0
C3584 C 0.95696 0.11393 0.968 0.0
C3585 C 0.92903 0.12071 0.97352 0.0
C3586 C 0.97184 0.11887 0.96365 0.0
C3587 C 0.97546 0.13463 0.96355 0.0
C3588 C 0.94568 0.12488 0.97204 0.0
C3589 C 0.96442 0.14495 0.96951 0.0
C3590 C 0.9175 0.13174 0.97052 0.0
C3591 C 0.90942 0.10207 0.97899 0.0
N3592 N 0.94989 0.13993 0.97315 0.0
N3593 N 0.9247 0.10614 0.97737 0.0
H3594 H 0.66801 0.16989 0.72808 0.0
H3595 H 0.58776 0.21059 0.70517 0.0
H3596 H 0.62351 0.14661 0.72733 0.0
H3597 H 0.63029 0.23571 0.714 0.0
H3598 H 0.60036 0.18724 0.71455 0.0
H3599 H 0.65443 0.19432 0.72338 0.0
C3600 C 0.6554 0.16995 0.72692 0.0
C3601 C 0.64684 0.15629 0.72817 0.0
C3602 C 0.60685 0.19792 0.71476 0.0
C3603 C 0.63127 0.184 0.72277 0.0
C3604 C 0.59958 0.21131 0.70958 0.0
C3605 C 0.60801 0.2251 0.70875 0.0
C3606 C 0.62265 0.19834 0.71916 0.0
C3607 C 0.62341 0.22527 0.71435 0.0
C3608 C 0.64765 0.18386 0.72434 0.0
C3609 C 0.63053 0.15693 0.72661 0.0
N3610 N 0.63031 0.21205 0.71914 0.0
N3611 N 0.6233 0.17053 0.7239 0.0
H3612 H 0.52975 0.83661 0.4609 0.0
H3613 H 0.58652 0.90462 0.48592 0.0
H3614 H 0.51296 0.88336 0.46233 0.0
H3615 H 0.60129 0.86222 0.46463 0.0
H3616 H 0.55911 0.89729 0.48119 0.0
H3617 H 0.55568 0.84563 0.46784 0.0
C3618 C 0.53139 0.84874 0.4632 0.0
C3619 C 0.51921 0.85927 0.46101 0.0
C3620 C 0.56842 0.88972 0.47746 0.0
C3621 C 0.54899 0.86972 0.4687 0.0
C3622 C 0.58401 0.89394 0.48003 0.0
C3623 C 0.59614 0.8839 0.47581 0.0
C3624 C 0.56513 0.87539 0.47077 0.0
C3625 C 0.59229 0.87017 0.46831 0.0
C3626 C 0.54628 0.85392 0.46691 0.0
C3627 C 0.52212 0.87491 0.46385 0.0
N3628 N 0.57715 0.86627 0.46616 0.0
N3629 N 0.5368 0.87972 0.4675 0.0
H3630 H 0.87019 0.84505 0.23541 0.0
H3631 H 0.85528 0.76247 0.19862 0.0
H3632 H 0.82475 0.82882 0.22126 0.0
H3633 H 0.90037 0.77779 0.21473 0.0
H3634 H 0.84341 0.78545 0.20964 0.0
H3635 H 0.88101 0.81965 0.23015 0.0
C3636 C 0.86245 0.83609 0.2313 0.0
C3637 C 0.84656 0.83907 0.22866 0.0
C3638 C 0.85587 0.78371 0.21095 0.0
C3639 C 0.85888 0.80992 0.22266 0.0
C3640 C 0.86266 0.77056 0.2047 0.0
C3641 C 0.87888 0.7683 0.20558 0.0
C3642 C 0.86537 0.79479 0.21802 0.0
C3643 C 0.88783 0.77908 0.21373 0.0
C3644 C 0.86865 0.82157 0.22833 0.0
C3645 C 0.8371 0.82705 0.22333 0.0
N3646 N 0.88098 0.79199 0.21943 0.0
N3647 N 0.84343 0.81301 0.22043 0.0
H3648 H 0.53212 0.9646 0.83513 0.0
H3649 H 0.5183 0.91731 0.91276 0.0
H3650 H 0.5407 0.98274 0.88052 0.0
H3651 H 0.51347 0.89801 0.86731 0.0
H3652 H 0.5222 0.94267 0.90124 0.0
H3653 H 0.52041 0.94173 0.84678 0.0
C3654 C 0.53115 0.96397 0.84753 0.0
C3655 C 0.5376 0.97548 0.85688 0.0
C3656 C 0.52018 0.93291 0.89378 0.0
C3657 C 0.52445 0.94927 0.87028 0.0
C3658 C 0.518 0.91842 0.90036 0.0
C3659 C 0.51572 0.90551 0.89097 0.0
C3660 C 0.52019 0.93448 0.87769 0.0
C3661 C 0.51526 0.90764 0.87498 0.0
C3662 C 0.5246 0.95084 0.85419 0.0
C3663 C 0.53609 0.97401 0.87289 0.0
N3664 N 0.51763 0.92181 0.86885 0.0
N3665 N 0.52985 0.96107 0.87908 0.0
H3666 H 0.84148 0.74451 0.61777 0.0
H3667 H 0.76981 0.80032 0.63412 0.0
H3668 H 0.84191 0.77959 0.65278 0.0
H3669 H 0.77147 0.76779 0.59663 0.0
H3670 H 0.79395 0.78959 0.64421 0.0
H3671 H 0.81393 0.74976 0.61303 0.0
C3672 C 0.83572 0.7534 0.6244 0.0
C3673 C 0.84393 0.76186 0.63545 0.0
C3674 C 0.7889 0.78461 0.63393 0.0
C3675 C 0.81248 0.76801 0.63005 0.0
C3676 C 0.77505 0.79067 0.62816 0.0
C3677 C 0.76874 0.78512 0.6143 0.0
C3678 C 0.79648 0.77285 0.62585 0.0
C3679 C 0.77604 0.77258 0.60719 0.0
C3680 C 0.81999 0.75632 0.62177 0.0
C3681 C 0.83592 0.77293 0.64407 0.0
N3682 N 0.78965 0.76698 0.61296 0.0
N3683 N 0.82062 0.77587 0.64102 0.0
H3684 H 0.95099 0.01239 0.37938 0.0
H3685 H 0.97258 0.10065 0.36864 0.0
H3686 H 0.95534 0.03441 0.33516 0.0
H3687 H 0.97367 0.0777 0.41259 0.0
H3688 H 0.96761 0.07607 0.35612 0.0
H3689 H 0.96176 0.03534 0.39159 0.0
C3690 C 0.95451 0.02197 0.37222 0.0
C3691 C 0.95213 0.0216 0.35626 0.0
C3692 C 0.96911 0.07633 0.36848 0.0
C3693 C 0.96405 0.04801 0.37017 0.0
C3694 C 0.97191 0.09037 0.37563 0.0
C3695 C 0.97352 0.09115 0.39165 0.0
C3696 C 0.96802 0.06293 0.37739 0.0
C3697 C 0.97235 0.07756 0.40021 0.0
C3698 C 0.96059 0.03509 0.3792 0.0
C3699 C 0.95699 0.03423 0.34749 0.0
N3700 N 0.96966 0.06397 0.39296 0.0
N3701 N 0.96247 0.04705 0.3546 0.0
H3702 H 0.6396 0.20431 0.1257 0.0
H3703 H 0.73019 0.2275 0.12526 0.0
H3704 H 0.65714 0.24299 0.15131 0.0
H3705 H 0.70984 0.18992 0.09996 0.0
H3706 H 0.70428 0.23293 0.1366 0.0
H3707 H 0.6663 0.19731 0.11891 0.0
C3708 C 0.64919 0.21113 0.13011 0.0
C3709 C 0.64635 0.22415 0.13906 0.0
C3710 C 0.70555 0.22352 0.12855 0.0
C3711 C 0.67685 0.21676 0.13081 0.0
C3712 C 0.72022 0.22057 0.12199 0.0
C3713 C 0.7219 0.2086 0.11133 0.0
C3714 C 0.69276 0.2141 0.12467 0.0
C3715 C 0.70885 0.19962 0.10771 0.0
C3716 C 0.66442 0.20726 0.12616 0.0
C3717 C 0.65904 0.23275 0.14449 0.0
N3718 N 0.6949 0.20251 0.1144 0.0
N3719 N 0.67383 0.22906 0.14006 0.0
H3720 H 0.53428 0.0333 0.66211 0.0
H3721 H 0.5208 0.07929 0.58385 0.0
H3722 H 0.54058 0.01355 0.61702 0.0
H3723 H 0.51253 0.09859 0.62884 0.0
H3724 H 0.52531 0.05423 0.59576 0.0
H3725 H 0.52289 0.05617 0.6502 0.0
C3726 C 0.53288 0.03359 0.64973 0.0
C3727 C 0.53858 0.0216 0.64052 0.0
C3728 C 0.5224 0.06391 0.60303 0.0
C3729 C 0.52581 0.0478 0.6268 0.0
C3730 C 0.51989 0.07823 0.59623 0.0
C3731 C 0.51639 0.09104 0.60538 0.0
C3732 C 0.52156 0.06243 0.6191 0.0
C3733 C 0.51522 0.08901 0.62135 0.0
C3734 C 0.5265 0.04671 0.64292 0.0
C3735 C 0.53655 0.02264 0.62454 0.0
N3736 N 0.51794 0.07501 0.62772 0.0
N3737 N 0.53052 0.0356 0.61818 0.0
H3738 H 0.65864 0.75173 0.34551 0.0
H3739 H 0.70946 0.80523 0.40051 0.0
H3740 H 0.64184 0.79267 0.36797 0.0
H3741 H 0.73005 0.76794 0.37493 0.0
H3742 H 0.68466 0.80053 0.38789 0.0
H3743 H 0.68522 0.75769 0.35443 0.0
C3744 C 0.6607 0.76224 0.35188 0.0
C3745 C 0.64821 0.77176 0.35612 0.0
C3746 C 0.69445 0.79313 0.38517 0.0
C3747 C 0.67816 0.77843 0.36653 0.0
C3748 C 0.70853 0.79563 0.39261 0.0
C3749 C 0.72158 0.78663 0.38905 0.0
C3750 C 0.69327 0.78132 0.37424 0.0
C3751 C 0.72006 0.77487 0.37815 0.0
C3752 C 0.67578 0.76554 0.3571 0.0
C3753 C 0.65124 0.78506 0.36458 0.0
N3754 N 0.70603 0.77243 0.37117 0.0
N3755 N 0.66591 0.78794 0.36961 0.0
H3756 H 0.96798 0.91637 0.08177 0.0
H3757 H 0.96334 0.96743 0.15775 0.0
H3758 H 0.98746 0.9025 0.12539 0.0
H3759 H 0.94498 0.98143 0.11367 0.0
H3760 H 0.97585 0.94541 0.14532 0.0
H3761 H 0.96283 0.94184 0.09243 0.0
C3762 C 0.97131 0.91873 0.09355 0.0
C3763 C 0.97793 0.90723 0.10278 0.0
C3764 C 0.96927 0.95343 0.13834 0.0
C3765 C 0.97203 0.93635 0.1151 0.0
C3766 C 0.96217 0.96605 0.14543 0.0
C3767 C 0.95285 0.97616 0.1368 0.0
C3768 C 0.96699 0.95089 0.12253 0.0
C3769 C 0.95183 0.9738 0.12085 0.0
C3770 C 0.96838 0.93328 0.09964 0.0
C3771 C 0.98214 0.91097 0.11793 0.0
N3772 N 0.95861 0.96132 0.11428 0.0
N3773 N 0.97896 0.92516 0.12367 0.0
H3774 H 0.84364 0.2125 0.84286 0.0
H3775 H 0.76763 0.22752 0.89382 0.0
H3776 H 0.83858 0.2495 0.87544 0.0
H3777 H 0.77198 0.18972 0.86194 0.0
H3778 H 0.7918 0.23836 0.88359 0.0
H3779 H 0.81596 0.20596 0.84666 0.0
C3780 C 0.83661 0.21931 0.85066 0.0
C3781 C 0.84329 0.23134 0.85907 0.0
C3782 C 0.78738 0.22778 0.8787 0.0
C3783 C 0.81186 0.22425 0.86328 0.0
C3784 C 0.77356 0.22163 0.88452 0.0
C3785 C 0.76795 0.2076 0.87889 0.0
C3786 C 0.79577 0.21966 0.86742 0.0
C3787 C 0.77595 0.20054 0.86668 0.0
C3788 C 0.82087 0.21564 0.85281 0.0
C3789 C 0.83384 0.23991 0.86902 0.0
N3790 N 0.78964 0.20649 0.86154 0.0
N3791 N 0.81861 0.23617 0.87089 0.0
H3792 H 0.8439 0.52705 0.96961 0.0
H3793 H 0.91939 0.53108 0.91583 0.0
H3794 H 0.88558 0.55271 0.98075 0.0
H3795 H 0.87983 0.50182 0.9064 0.0
H3796 H 0.90802 0.53737 0.94083 0.0
H3797 H 0.85772 0.51559 0.94777 0.0
C3798 C 0.856 0.5301 0.96763 0.0
C3799 C 0.86349 0.54103 0.97694 0.0
C3800 C 0.90191 0.52942 0.93338 0.0
C3801 C 0.8793 0.52813 0.95185 0.0
C3802 C 0.90842 0.52582 0.91911 0.0
C3803 C 0.90048 0.51603 0.90898 0.0
C3804 C 0.88734 0.52319 0.93755 0.0
C3805 C 0.88627 0.50956 0.91381 0.0
C3806 C 0.86388 0.5236 0.95512 0.0
C3807 C 0.87923 0.54448 0.97382 0.0
N3808 N 0.88009 0.51335 0.92769 0.0
N3809 N 0.88651 0.53822 0.96146 0.0
H3810 H 0.34116 0.96772 0.02568 0.0
H3811 H 0.41741 0.9691 0.07826 0.0
H3812 H 0.38472 0.94532 0.01432 0.0
H3813 H 0.37541 0.99424 0.08941 0.0
H3814 H 0.40649 0.96313 0.0531 0.0
H3815 H 0.35431 0.98061 0.04717 0.0
C3816 C 0.3535 0.96568 0.02754 0.0
C3817 C 0.36175 0.9552 0.01833 0.0
C3818 C 0.3997 0.97012 0.06095 0.0
C3819 C 0.37678 0.96971 0.04295 0.0
C3820 C 0.40596 0.97353 0.07534 0.0
C3821 C 0.39722 0.98199 0.08603 0.0
C3822 C 0.38454 0.97512 0.05721 0.0
C3823 C 0.38246 0.9875 0.08157 0.0
C3824 C 0.361 0.97301 0.03983 0.0
C3825 C 0.37778 0.95312 0.02121 0.0
N3826 N 0.3765 0.98382 0.06756 0.0
N3827 N 0.38467 0.96012 0.03336 0.0
H3828 H 0.75008 0.62514 0.84196 0.0
H3829 H 0.80107 0.63322 0.76561 0.0
H3830 H 0.77802 0.66485 0.83065 0.0
H3831 H 0.77644 0.59173 0.77801 0.0
H3832 H 0.78897 0.64638 0.78719 0.0
H3833 H 0.75602 0.61425 0.81671 0.0
C3834 C 0.75735 0.63164 0.83411 0.0
C3835 C 0.76373 0.64585 0.83849 0.0
C3836 C 0.78603 0.63445 0.78512 0.0
C3837 C 0.77059 0.63342 0.8096 0.0
C3838 C 0.79292 0.62689 0.77274 0.0
C3839 C 0.78998 0.61122 0.77011 0.0
C3840 C 0.77611 0.62632 0.79504 0.0
C3841 C 0.77917 0.60376 0.77968 0.0
C3842 C 0.76073 0.62541 0.8197 0.0
C3843 C 0.77295 0.65381 0.82781 0.0
N3844 N 0.77277 0.61133 0.79185 0.0
N3845 N 0.77622 0.64742 0.81392 0.0
H3846 H 0.15021 0.02588 0.52544 0.0
H3847 H 0.07518 0.03019 0.57964 0.0
H3848 H 0.10802 0.05074 0.51423 0.0
H3849 H 0.11458 0.00068 0.58908 0.0
H3850 H 0.08632 0.03605 0.5545 0.0
H3851 H 0.1366 0.01428 0.54738 0.0
C3852 C 0.13805 0.02873 0.52743 0.0
C3853 C 0.13037 0.03952 0.51811 0.0
C3854 C 0.09246 0.02812 0.56196 0.0
C3855 C 0.11482 0.0265 0.54328 0.0
C3856 C 0.08608 0.02477 0.57633 0.0
C3857 C 0.09403 0.01503 0.58651 0.0
C3858 C 0.10692 0.02172 0.55771 0.0
C3859 C 0.10815 0.00838 0.58164 0.0
C3860 C 0.1303 0.02215 0.53998 0.0
C3861 C 0.11455 0.04267 0.52119 0.0
N3862 N 0.11421 0.01194 0.56763 0.0
N3863 N 0.10741 0.03638 0.5336 0.0
H3864 H 0.23827 0.87599 0.84468 0.0
H3865 H 0.20012 0.86377 0.76206 0.0
H3866 H 0.22086 0.83269 0.82762 0.0
H3867 H 0.21176 0.90839 0.78048 0.0
H3868 H 0.21338 0.85173 0.78365 0.0
H3869 H 0.23394 0.88735 0.8193 0.0
C3870 C 0.23367 0.86883 0.83556 0.0
C3871 C 0.22964 0.85344 0.83833 0.0
C3872 C 0.21325 0.86416 0.7829 0.0
C3873 C 0.22471 0.86635 0.8093 0.0
C3874 C 0.2057 0.87107 0.77053 0.0
C3875 C 0.20451 0.88714 0.76964 0.0
C3876 C 0.2196 0.87335 0.79458 0.0
C3877 C 0.21222 0.89596 0.78081 0.0
C3878 C 0.23122 0.87532 0.82108 0.0
C3879 C 0.22391 0.84465 0.82605 0.0
N3880 N 0.21922 0.88894 0.79299 0.0
N3881 N 0.22148 0.85128 0.81212 0.0
H3882 H 0.58233 0.49337 0.42056 0.0
H3883 H 0.6253 0.42841 0.46474 0.0
H3884 H 0.61222 0.46128 0.39682 0.0
H3885 H 0.63282 0.47431 0.48193 0.0
H3886 H 0.61387 0.43917 0.44139 0.0
H3887 H 0.59483 0.48583 0.44511 0.0
C3888 C 0.5915 0.48478 0.42056 0.0
C3889 C 0.59631 0.47786 0.40679 0.0
C3890 C 0.61793 0.44688 0.45033 0.0
C3891 C 0.61016 0.46912 0.4344 0.0
C3892 C 0.62435 0.44079 0.46364 0.0
C3893 C 0.6299 0.45053 0.47522 0.0
C3894 C 0.61666 0.46283 0.44872 0.0
C3895 C 0.62864 0.46649 0.47318 0.0
C3896 C 0.59865 0.48062 0.43445 0.0
C3897 C 0.60827 0.46689 0.40723 0.0
N3898 N 0.62194 0.47222 0.46015 0.0
N3899 N 0.6146 0.46265 0.42085 0.0
H3900 H 0.77386 0.32967 0.6662 0.0
H3901 H 0.78084 0.40764 0.71402 0.0
H3902 H 0.75417 0.37275 0.65102 0.0
H3903 H 0.79646 0.36347 0.73058 0.0
H3904 H 0.76844 0.39478 0.69212 0.0
H3905 H 0.78005 0.34149 0.69095 0.0
C3906 C 0.77073 0.34158 0.66812 0.0
C3907 C 0.76361 0.35027 0.6565 0.0
C3908 C 0.77439 0.3879 0.70068 0.0
C3909 C 0.77073 0.36394 0.68475 0.0
C3910 C 0.78138 0.39523 0.71324 0.0
C3911 C 0.78988 0.38665 0.72403 0.0
C3912 C 0.77594 0.37189 0.69895 0.0
C3913 C 0.79024 0.37059 0.72241 0.0
C3914 C 0.77423 0.34834 0.68226 0.0
C3915 C 0.75973 0.36564 0.65964 0.0
N3916 N 0.78355 0.36377 0.71003 0.0
N3917 N 0.76348 0.37203 0.67341 0.0
H3918 H 0.7195 0.66433 0.16937 0.0
H3919 H 0.71249 0.58616 0.21611 0.0
H3920 H 0.74081 0.62196 0.1543 0.0
H3921 H 0.69795 0.63031 0.23367 0.0
H3922 H 0.72573 0.59927 0.19482 0.0
H3923 H 0.71404 0.65248 0.19424 0.0
C3924 C 0.72319 0.65258 0.17136 0.0
C3925 C 0.73043 0.64406 0.15968 0.0
C3926 C 0.71985 0.60609 0.20348 0.0
C3927 C 0.72408 0.63032 0.18809 0.0
C3928 C 0.71235 0.5986 0.21568 0.0
C3929 C 0.70384 0.60713 0.22653 0.0
C3930 C 0.71876 0.62217 0.20215 0.0
C3931 C 0.70409 0.62323 0.22541 0.0
C3932 C 0.72009 0.6458 0.18558 0.0
C3933 C 0.73506 0.62891 0.16294 0.0
N3934 N 0.71121 0.63019 0.21333 0.0
N3935 N 0.73162 0.62245 0.17676 0.0
H3936 H 0.507 0.61036 0.9511 0.0
H3937 H 0.59088 0.62577 0.98747 0.0
H3938 H 0.52379 0.65539 0.96375 0.0
H3939 H 0.57489 0.58145 0.97173 0.0
H3940 H 0.56456 0.636 0.9837 0.0
H3941 H 0.52946 0.59891 0.96396 0.0
C3942 C 0.51527 0.61785 0.95683 0.0
C3943 C 0.51372 0.6339 0.95599 0.0
C3944 C 0.56676 0.624 0.98121 0.0
C3945 C 0.53963 0.62082 0.97058 0.0
C3946 C 0.5818 0.61816 0.98332 0.0
C3947 C 0.58515 0.6028 0.97964 0.0
C3948 C 0.55498 0.61444 0.97533 0.0
C3949 C 0.57289 0.59342 0.97451 0.0
C3950 C 0.52814 0.61129 0.96414 0.0
C3951 C 0.52464 0.64298 0.96389 0.0
N3952 N 0.55839 0.59943 0.97235 0.0
N3953 N 0.5373 0.63633 0.97061 0.0
H3954 H 0.60407 0.27258 0.21851 0.0
H3955 H 0.66309 0.34153 0.20924 0.0
H3956 H 0.64638 0.27008 0.19158 0.0
H3957 H 0.63252 0.33876 0.24861 0.0
H3958 H 0.65602 0.31533 0.20237 0.0
H3959 H 0.61396 0.29613 0.23065 0.0
C3960 C 0.61558 0.27674 0.21544 0.0
C3961 C 0.62428 0.26952 0.2038 0.0
C3962 C 0.65103 0.32032 0.21266 0.0
C3963 C 0.63538 0.29653 0.21725 0.0
C3964 C 0.65503 0.33531 0.21656 0.0
C3965 C 0.64845 0.34227 0.22956 0.0
C3966 C 0.64036 0.31217 0.22181 0.0
C3967 C 0.63782 0.33378 0.23846 0.0
C3968 C 0.62117 0.29022 0.22229 0.0
C3969 C 0.63916 0.27536 0.20033 0.0
N3970 N 0.63404 0.31914 0.23439 0.0
N3971 N 0.64407 0.28868 0.20677 0.0
H3972 H 0.97782 0.38523 0.43997 0.0
H3973 H 0.90363 0.37686 0.49452 0.0
H3974 H 0.96906 0.34487 0.46756 0.0
H3975 H 0.91362 0.41685 0.46687 0.0
H3976 H 0.92921 0.3663 0.48772 0.0
H3977 H 0.95619 0.39813 0.45251 0.0
C3978 C 0.9715 0.37911 0.44884 0.0
C3979 C 0.97519 0.36382 0.45255 0.0
C3980 C 0.92587 0.37744 0.48326 0.0
C3981 C 0.95017 0.37866 0.46701 0.0
C3982 C 0.91127 0.38348 0.48712 0.0
C3983 C 0.90641 0.39765 0.48104 0.0
C3984 C 0.93561 0.38559 0.47316 0.0
C3985 C 0.91684 0.40583 0.47171 0.0
C3986 C 0.95908 0.38653 0.45601 0.0
C3987 C 0.96653 0.35658 0.4642 0.0
N3988 N 0.93086 0.39959 0.46791 0.0
N3989 N 0.9543 0.36402 0.47092 0.0
H3990 H 0.82725 0.65692 0.71211 0.0
H3991 H 0.89273 0.72028 0.71487 0.0
H3992 H 0.86642 0.65344 0.74319 0.0
H3993 H 0.84668 0.72805 0.69618 0.0
H3994 H 0.88296 0.69708 0.7276 0.0
H3995 H 0.83413 0.6836 0.7071 0.0
C3996 C 0.83723 0.66182 0.718 0.0
C3997 C 0.84632 0.65294 0.72803 0.0
C3998 C 0.87493 0.70407 0.721 0.0
C3999 C 0.85424 0.68357 0.72242 0.0
C4000 C 0.88047 0.71739 0.71384 0.0
C4001 C 0.87059 0.72587 0.70414 0.0
C4002 C 0.85951 0.69924 0.71826 0.0
C4003 C 0.85479 0.72165 0.70328 0.0
C4004 C 0.84111 0.6771 0.7152 0.0
C4005 C 0.85918 0.65987 0.73526 0.0
N4006 N 0.84983 0.70844 0.70993 0.0
N4007 N 0.86285 0.67477 0.73223 0.0
H4008 H 0.50559 0.38486 0.54086 0.0
H4009 H 0.59504 0.36952 0.5237 0.0
H4010 H 0.52506 0.33951 0.535 0.0
H4011 H 0.57392 0.41405 0.51693 0.0
H4012 H 0.56917 0.35848 0.52749 0.0
H4013 H 0.52969 0.3959 0.53046 0.0
C4014 C 0.5148 0.37723 0.537 0.0
C4015 C 0.51341 0.36127 0.5389 0.0
C4016 C 0.57013 0.37063 0.52497 0.0
C4017 C 0.54114 0.3738 0.52754 0.0
C4018 C 0.58491 0.37696 0.52286 0.0
C4019 C 0.58661 0.39273 0.51999 0.0
C4020 C 0.55688 0.38011 0.52419 0.0
C4021 C 0.57311 0.40185 0.51923 0.0
C4022 C 0.52858 0.38353 0.53116 0.0
C4023 C 0.52564 0.35187 0.53371 0.0
N4024 N 0.55878 0.39542 0.52137 0.0
N4025 N 0.53913 0.3583 0.52857 0.0
H4026 H 0.86868 0.34174 0.75246 0.0
H4027 H 0.84702 0.26708 0.80118 0.0
H4028 H 0.82556 0.33544 0.77742 0.0
H4029 H 0.89297 0.27538 0.78251 0.0
H4030 H 0.83724 0.28937 0.78729 0.0
H4031 H 0.87608 0.31528 0.75875 0.0
C4032 C 0.86073 0.33476 0.75918 0.0
C4033 C 0.84655 0.34085 0.76458 0.0
C4034 C 0.8494 0.28619 0.78598 0.0
C4035 C 0.85493 0.31061 0.77174 0.0
C4036 C 0.85499 0.27338 0.79384 0.0
C4037 C 0.87091 0.26954 0.79322 0.0
C4038 C 0.85981 0.29529 0.77748 0.0
C4039 C 0.88064 0.27803 0.78341 0.0
C4040 C 0.86495 0.31966 0.76273 0.0
C4041 C 0.83664 0.33126 0.7731 0.0
N4042 N 0.87499 0.29071 0.77612 0.0
N4043 N 0.84107 0.31668 0.77652 0.0
H4044 H 0.91541 0.57856 0.02729 0.0
H4045 H 0.96833 0.6537 0.0301 0.0
H4046 H 0.902 0.62188 0.00702 0.0
H4047 H 0.98246 0.6096 0.04812 0.0
H4048 H 0.94593 0.64134 0.01778 0.0
H4049 H 0.94161 0.58881 0.0317 0.0
C4050 C 0.91802 0.59019 0.02366 0.0
C4051 C 0.90644 0.59947 0.01702 0.0
C4052 C 0.95407 0.63433 0.02424 0.0
C4053 C 0.9364 0.6113 0.02202 0.0
C4054 C 0.96691 0.64138 0.03123 0.0
C4055 C 0.97708 0.63274 0.04048 0.0
C4056 C 0.95138 0.61856 0.0266 0.0
C4057 C 0.97473 0.61679 0.0414 0.0
C4058 C 0.93299 0.59604 0.02614 0.0
C4059 C 0.91051 0.61441 0.01241 0.0
N4060 N 0.962 0.61027 0.03476 0.0
N4061 N 0.9251 0.61991 0.01513 0.0
H4062 H 0.62332 0.65163 0.25536 0.0
H4063 H 0.64682 0.72905 0.29829 0.0
H4064 H 0.66872 0.66054 0.27506 0.0
H4065 H 0.60022 0.71941 0.28199 0.0
H4066 H 0.65634 0.70645 0.28465 0.0
H4067 H 0.6159 0.67827 0.26054 0.0
C4068 C 0.63177 0.65922 0.26067 0.0
C4069 C 0.6466 0.65381 0.26498 0.0
C4070 C 0.64408 0.70941 0.2838 0.0
C4071 C 0.6382 0.68431 0.27086 0.0
C4072 C 0.63864 0.72239 0.29151 0.0
C4073 C 0.62264 0.72594 0.29153 0.0
C4074 C 0.63342 0.69983 0.27615 0.0
C4075 C 0.61262 0.717 0.28242 0.0
C4076 C 0.62754 0.67444 0.26358 0.0
C4077 C 0.65711 0.66418 0.27169 0.0
N4078 N 0.61813 0.70415 0.27533 0.0
N4079 N 0.65266 0.67889 0.27455 0.0
H4080 H 0.96496 0.53139 0.65428 0.0
H4081 H 0.96632 0.57958 0.57675 0.0
H4082 H 0.95339 0.51259 0.60976 0.0
H4083 H 0.98623 0.59624 0.6192 0.0
H4084 H 0.96271 0.55444 0.58864 0.0
H4085 H 0.97504 0.55444 0.6416 0.0
C4086 C 0.96485 0.53195 0.64184 0.0
C4087 C 0.958 0.52021 0.63307 0.0
C4088 C 0.96799 0.56355 0.59533 0.0
C4089 C 0.96923 0.54656 0.61856 0.0
C4090 C 0.96996 0.57792 0.58856 0.0
C4091 C 0.9765 0.58999 0.59702 0.0
C4092 C 0.97248 0.56128 0.61071 0.0
C4093 C 0.98108 0.58723 0.61228 0.0
C4094 C 0.97052 0.54515 0.63461 0.0
C4095 C 0.95825 0.52151 0.61699 0.0
N4096 N 0.97888 0.57318 0.61868 0.0
N4097 N 0.96353 0.53456 0.61027 0.0
H4098 H 0.64637 0.72958 0.8766 0.0
H4099 H 0.73442 0.7036 0.86255 0.0
H4100 H 0.66712 0.72504 0.83161 0.0
H4101 H 0.71455 0.71037 0.90764 0.0
H4102 H 0.71105 0.71484 0.85113 0.0
H4103 H 0.67193 0.72508 0.88821 0.0
C4104 C 0.65636 0.72777 0.86916 0.0
C4105 C 0.65464 0.7276 0.85313 0.0
C4106 C 0.71187 0.71411 0.86353 0.0
C4107 C 0.68397 0.72256 0.86634 0.0
C4108 C 0.72525 0.70775 0.87007 0.0
C4109 C 0.72632 0.70583 0.88606 0.0
C4110 C 0.69936 0.71842 0.87303 0.0
C4111 C 0.71418 0.71157 0.89525 0.0
C4112 C 0.67096 0.72524 0.8758 0.0
C4113 C 0.66793 0.72511 0.84404 0.0
N4114 N 0.70106 0.71735 0.88859 0.0
N4115 N 0.68204 0.72264 0.85078 0.0
H4116 H 0.52203 0.46737 0.14874 0.0
H4117 H 0.532 0.41186 0.07662 0.0
H4118 H 0.55025 0.47777 0.10888 0.0
H4119 H 0.49609 0.40498 0.1108 0.0
H4120 H 0.53842 0.43638 0.0885 0.0
H4121 H 0.51141 0.44501 0.13506 0.0
C4122 C 0.52583 0.46511 0.13708 0.0
C4123 C 0.53719 0.47437 0.13003 0.0
C4124 C 0.52899 0.42962 0.09332 0.0
C4125 C 0.52532 0.4488 0.11448 0.0
C4126 C 0.52533 0.41561 0.08652 0.0
C4127 C 0.5135 0.40639 0.09273 0.0
C4128 C 0.52081 0.43446 0.10647 0.0
C4129 C 0.50533 0.41175 0.10567 0.0
C4130 C 0.5198 0.45233 0.1293 0.0
C4131 C 0.54163 0.47091 0.11488 0.0
N4132 N 0.5092 0.42543 0.1122 0.0
N4133 N 0.53584 0.45833 0.10772 0.0
H4134 H 0.75655 0.29087 0.35922 0.0
H4135 H 0.84238 0.25864 0.37358 0.0
H4136 H 0.77413 0.27828 0.40398 0.0
H4137 H 0.82501 0.27322 0.32933 0.0
H4138 H 0.81614 0.26152 0.38422 0.0
H4139 H 0.77963 0.2794 0.34746 0.0
C4140 C 0.76512 0.28538 0.36657 0.0
C4141 C 0.76358 0.28583 0.38264 0.0
C4142 C 0.81802 0.26395 0.37215 0.0
C4143 C 0.79024 0.27296 0.36924 0.0
C4144 C 0.83302 0.26237 0.36607 0.0
C4145 C 0.83593 0.2659 0.35057 0.0
C4146 C 0.80581 0.26914 0.36271 0.0
C4147 C 0.82333 0.27055 0.34138 0.0
C4148 C 0.77836 0.2789 0.35984 0.0
C4149 C 0.77492 0.27833 0.39156 0.0
N4150 N 0.80885 0.27215 0.34761 0.0
N4151 N 0.78795 0.27247 0.38475 0.0
H4152 H 0.95596 0.45948 0.83858 0.0
H4153 H 0.97564 0.41715 0.91771 0.0
H4154 H 0.95998 0.48289 0.88213 0.0
H4155 H 0.97354 0.39403 0.87387 0.0
H4156 H 0.97166 0.44171 0.9046 0.0
H4157 H 0.96504 0.43583 0.85081 0.0
C4158 C 0.95923 0.45975 0.85061 0.0
C4159 C 0.95714 0.47309 0.85941 0.0
C4160 C 0.97209 0.43127 0.89784 0.0
C4161 C 0.96721 0.44608 0.87352 0.0
C4162 C 0.97425 0.41727 0.90533 0.0
C4163 C 0.97491 0.40363 0.89682 0.0
C4164 C 0.97039 0.43155 0.88176 0.0
C4165 C 0.9732 0.40436 0.88081 0.0
C4166 C 0.96424 0.44621 0.85763 0.0
C4167 C 0.96131 0.47277 0.87499 0.0
N4168 N 0.97093 0.41809 0.87379 0.0
N4169 N 0.966 0.45943 0.8816 0.0
H4170 H 0.77314 0.71459 0.09031 0.0
H4171 H 0.82514 0.71882 0.1654 0.0
H4172 H 0.75657 0.70226 0.13552 0.0
H4173 H 0.8383 0.74155 0.12324 0.0
H4174 H 0.79913 0.71444 0.15483 0.0
H4175 H 0.79581 0.72708 0.10218 0.0
C4176 C 0.77404 0.71484 0.10273 0.0
C4177 C 0.76313 0.70704 0.11192 0.0
C4178 C 0.80761 0.72057 0.14794 0.0
C4179 C 0.78913 0.72101 0.12552 0.0
C4180 C 0.82251 0.72303 0.15397 0.0
C4181 C 0.83397 0.7304 0.14513 0.0
C4182 C 0.80414 0.7254 0.13289 0.0
C4183 C 0.82986 0.73564 0.13039 0.0
C4184 C 0.78705 0.72189 0.1095 0.0
C4185 C 0.76488 0.70781 0.12795 0.0
N4186 N 0.81534 0.73289 0.12466 0.0
N4187 N 0.77776 0.71439 0.13422 0.0
H4188 H 0.51102 0.59862 0.37532 0.0
H4189 H 0.53423 0.51028 0.3843 0.0
H4190 H 0.51978 0.57631 0.41879 0.0
H4191 H 0.53159 0.53348 0.34052 0.0
H4192 H 0.5241 0.53327 0.39683 0.0
H4193 H 0.51493 0.5741 0.36221 0.0
C4194 C 0.51366 0.5885 0.38211 0.0
C4195 C 0.51508 0.58942 0.39815 0.0
C4196 C 0.52554 0.53329 0.38446 0.0
C4197 C 0.51937 0.56137 0.38327 0.0
C4198 C 0.53122 0.52014 0.37729 0.0
C4199 C 0.53399 0.5201 0.3614 0.0
C4200 C 0.52274 0.54653 0.37569 0.0
C4201 C 0.5297 0.53308 0.35282 0.0
C4202 C 0.51587 0.57453 0.37462 0.0
C4203 C 0.51867 0.57607 0.40639 0.0
N4204 N 0.52453 0.54591 0.36013 0.0
N4205 N 0.52068 0.56256 0.39885 0.0
H4206 H 0.64564 0.26193 0.62469 0.0
H4207 H 0.73399 0.28941 0.63426 0.0
H4208 H 0.66875 0.26569 0.66859 0.0
H4209 H 0.7102 0.28643 0.59064 0.0
H4210 H 0.71163 0.27713 0.64666 0.0
H4211 H 0.67016 0.26806 0.61185 0.0
C4212 C 0.65599 0.26381 0.63161 0.0
C4213 C 0.65523 0.26331 0.6477 0.0
C4214 C 0.71136 0.27898 0.63435 0.0
C4215 C 0.6834 0.27025 0.63307 0.0
C4216 C 0.72415 0.28592 0.62725 0.0
C4217 C 0.72386 0.28909 0.61143 0.0
C4218 C 0.6981 0.27534 0.62559 0.0
C4219 C 0.71091 0.2842 0.60287 0.0
C4220 C 0.66998 0.26733 0.62427 0.0
C4221 C 0.66888 0.26609 0.65615 0.0
N4222 N 0.69843 0.27779 0.61011 0.0
N4223 N 0.68244 0.26945 0.64872 0.0
H4224 H 0.59901 0.93366 0.52394 0.0
H4225 H 0.60802 -0.00131 0.58775 0.0
H4226 H 0.63769 0.96549 0.5221 0.0
H4227 H 0.58497 0.95507 0.5941 0.0
H4228 H 0.61593 0.99044 0.56172 0.0
H4229 H 0.59001 0.94581 0.54728 0.0
C4230 C 0.60546 0.94348 0.52822 0.0
C4231 C 0.61927 0.94844 0.5211 0.0
C4232 C 0.60917 0.98275 0.56889 0.0
C4233 C 0.60893 0.96243 0.54813 0.0
C4234 C 0.60465 0.98741 0.58365 0.0
C4235 C 0.59566 0.97758 0.59292 0.0
C4236 C 0.60463 0.96819 0.56354 0.0
C4237 C 0.59159 0.96312 0.58719 0.0
C4238 C 0.60035 0.95034 0.54169 0.0
C4239 C 0.62705 0.96124 0.52731 0.0
N4240 N 0.59613 0.95887 0.57291 0.0
N4241 N 0.62183 0.96778 0.54062 0.0
H4242 H 0.09907 0.559 0.47427 0.0
H4243 H 0.1095 0.4964 0.40797 0.0
H4244 H 0.13735 0.52666 0.47495 0.0
H4245 H 0.08433 0.53911 0.40327 0.0
H4246 H 0.11682 0.50388 0.43434 0.0
H4247 H 0.08995 0.54779 0.45041 0.0
C4248 C 0.10532 0.54921 0.46965 0.0
C4249 C 0.11907 0.54381 0.4766 0.0
C4250 C 0.1097 0.51156 0.42748 0.0
C4251 C 0.10867 0.53097 0.44902 0.0
C4252 C 0.10555 0.50733 0.41249 0.0
C4253 C 0.09619 0.51712 0.40355 0.0
C4254 C 0.10445 0.52566 0.43341 0.0
C4255 C 0.09133 0.53111 0.40988 0.0
C4256 C 0.10019 0.54293 0.45588 0.0
C4257 C 0.12674 0.5312 0.4699 0.0
N4258 N 0.09553 0.53496 0.42439 0.0
N4259 N 0.12149 0.52522 0.45637 0.0
H4260 H 0.68354 0.86658 0.72211 0.0
H4261 H 0.74635 0.8609 0.65557 0.0
H4262 H 0.72465 0.89539 0.72182 0.0
H4263 H 0.70953 0.82792 0.6633 0.0
H4264 H 0.74012 0.873 0.68027 0.0
H4265 H 0.69385 0.85222 0.70075 0.0
C4266 C 0.69493 0.86976 0.7177 0.0
C4267 C 0.70332 0.88215 0.72389 0.0
C4268 C 0.73354 0.86302 0.67661 0.0
C4269 C 0.71529 0.86556 0.69911 0.0
C4270 C 0.73705 0.85614 0.66254 0.0
C4271 C 0.72823 0.84358 0.65732 0.0
C4272 C 0.72102 0.85738 0.68533 0.0
C4273 C 0.71652 0.83766 0.66684 0.0
C4274 C 0.70082 0.8615 0.70543 0.0
C4275 C 0.71782 0.88591 0.71737 0.0
N4276 N 0.71312 0.84475 0.68029 0.0
N4277 N 0.72338 0.87762 0.70523 0.0
H4278 H 0.37717 0.49045 0.90581 0.0
H4279 H 0.39776 0.43993 0.97956 0.0
H4280 H 0.42016 0.46513 0.91165 0.0
H4281 H 0.35275 0.46107 0.97217 0.0
H4282 H 0.40791 0.45355 0.95723 0.0
H4283 H 0.36967 0.48367 0.93205 0.0
C4284 C 0.3851 0.48356 0.91266 0.0
C4285 C 0.39927 0.47823 0.90651 0.0
C4286 C 0.39588 0.45544 0.96062 0.0
C4287 C 0.39076 0.47047 0.93655 0.0
C4288 C 0.3901 0.44774 0.97346 0.0
C4289 C 0.37431 0.44918 0.97759 0.0
C4290 C 0.38579 0.4646 0.95179 0.0
C4291 C 0.36497 0.45954 0.96932 0.0
C4292 C 0.38081 0.47972 0.92765 0.0
C4293 C 0.4091 0.46942 0.91591 0.0
N4294 N 0.37078 0.46666 0.95663 0.0
N4295 N 0.4046 0.46572 0.93042 0.0
H4296 H 0.31308 0.62381 0.71698 0.0
H4297 H 0.24258 0.64078 0.66084 0.0
H4298 H 0.26732 0.60556 0.72705 0.0
H4299 H 0.28379 0.66908 0.66484 0.0
H4300 H 0.25047 0.62693 0.68421 0.0
H4301 H 0.30217 0.63852 0.69602 0.0
C4302 C 0.30063 0.62302 0.71484 0.0
C4303 C 0.29103 0.61369 0.72395 0.0
C4304 C 0.25762 0.63631 0.68005 0.0
C4305 C 0.27835 0.63074 0.69984 0.0
C4306 C 0.25315 0.64422 0.66677 0.0
C4307 C 0.26269 0.65595 0.66082 0.0
C4308 C 0.27181 0.64006 0.68717 0.0
C4309 C 0.27614 0.66007 0.66896 0.0
C4310 C 0.2944 0.63148 0.70287 0.0
C4311 C 0.27507 0.61272 0.72031 0.0
N4312 N 0.28041 0.65198 0.68158 0.0
N4313 N 0.26915 0.62125 0.70849 0.0
H4314 H 0.89829 0.05069 0.01473 0.0
H4315 H 0.8732 0.00929 0.09207 0.0
H4316 H 0.85212 0.03244 0.02268 0.0
H4317 H 0.92017 0.02461 0.08252 0.0
H4318 H 0.86622 0.01414 0.06528 0.0
H4319 H 0.90765 0.03704 0.03741 0.0
C4320 C 0.8902 0.04347 0.02102 0.0
C4321 C 0.87433 0.04295 0.01699 0.0
C4322 C 0.8781 0.01628 0.06898 0.0
C4323 C 0.88488 0.02758 0.04322 0.0
C4324 C 0.88208 0.01357 0.08431 0.0
C4325 C 0.89723 0.01678 0.0896 0.0
C4326 C 0.88933 0.02233 0.05887 0.0
C4327 C 0.9083 0.02217 0.07899 0.0
C4328 C 0.89554 0.03574 0.03405 0.0
C4329 C 0.86442 0.0333 0.02548 0.0
N4330 N 0.90408 0.02492 0.06418 0.0
N4331 N 0.86978 0.02626 0.0384 0.0
H4332 H 0.72673 0.12207 0.84912 0.0
H4333 H 0.71106 0.13404 0.75984 0.0
H4334 H 0.72632 0.16636 0.82678 0.0
H4335 H 0.71219 0.08958 0.78178 0.0
H4336 H 0.72124 0.1456 0.78332 0.0
H4337 H 0.7249 0.10968 0.82402 0.0
C4338 C 0.72633 0.12919 0.83891 0.0
C4339 C 0.72652 0.14527 0.84002 0.0
C4340 C 0.71953 0.13328 0.78294 0.0
C4341 C 0.72458 0.13116 0.81125 0.0
C4342 C 0.71381 0.12665 0.7695 0.0
C4343 C 0.71049 0.11087 0.76897 0.0
C4344 C 0.72177 0.12408 0.79601 0.0
C4345 C 0.71445 0.10182 0.78173 0.0
C4346 C 0.72536 0.1221 0.82458 0.0
C4347 C 0.72601 0.15393 0.82644 0.0
N4348 N 0.71959 0.10861 0.79487 0.0
N4349 N 0.72498 0.14676 0.81261 0.0
H4350 H 0.76473 0.88779 0.26935 0.0
H4351 H 0.78627 0.82643 0.33451 0.0
H4352 H 0.81121 0.87222 0.28076 0.0
H4353 H 0.74392 0.85323 0.33762 0.0
H4354 H 0.79302 0.84 0.31098 0.0
H4355 H 0.75456 0.87286 0.29148 0.0
C4356 C 0.77274 0.88134 0.27651 0.0
C4357 C 0.78878 0.88098 0.2731 0.0
C4358 C 0.78216 0.84285 0.31672 0.0
C4359 C 0.77739 0.86406 0.29801 0.0
C4360 C 0.77825 0.835 0.33009 0.0
C4361 C 0.7646 0.83881 0.33807 0.0
C4362 C 0.77232 0.85455 0.31118 0.0
C4363 C 0.75466 0.85009 0.33184 0.0
C4364 C 0.76697 0.87283 0.28904 0.0
C4365 C 0.79871 0.87251 0.28272 0.0
N4366 N 0.75875 0.85766 0.31874 0.0
N4367 N 0.79287 0.8644 0.29463 0.0
H4368 H 0.47818 0.38494 0.0371 0.0
H4369 H 0.39414 0.35556 0.0188 0.0
H4370 H 0.46851 0.33877 0.02158 0.0
H4371 H 0.40523 0.40364 0.01289 0.0
H4372 H 0.42177 0.34989 0.02108 0.0
H4373 H 0.45253 0.39301 0.0277 0.0
C4374 C 0.47087 0.37658 0.03131 0.0
C4375 C 0.47528 0.36102 0.03057 0.0
C4376 C 0.4182 0.36167 0.01914 0.0
C4377 C 0.44594 0.37015 0.02011 0.0
C4378 C 0.40238 0.36497 0.018 0.0
C4379 C 0.39732 0.3801 0.01556 0.0
C4380 C 0.42916 0.37358 0.01804 0.0
C4381 C 0.40862 0.3918 0.01477 0.0
C4382 C 0.45621 0.38121 0.02601 0.0
C4383 C 0.46548 0.3508 0.02272 0.0
N4384 N 0.42408 0.3883 0.0161 0.0
N4385 N 0.45108 0.35547 0.01814 0.0
H4386 H 0.37323 0.64494 0.77392 0.0
H4387 H 0.36192 0.73543 0.78367 0.0
H4388 H 0.32933 0.66798 0.76593 0.0
H4389 H 0.40585 0.71196 0.79013 0.0
H4390 H 0.35047 0.71153 0.7741 0.0
H4391 H 0.3857 0.66976 0.77807 0.0
C4392 C 0.36624 0.65528 0.77293 0.0
C4393 C 0.35024 0.65444 0.76955 0.0
C4394 C 0.36268 0.71165 0.77738 0.0
C4395 C 0.3645 0.68298 0.77412 0.0
C4396 C 0.36926 0.72532 0.78271 0.0
C4397 C 0.38483 0.72565 0.78781 0.0
C4398 C 0.37169 0.69817 0.77732 0.0
C4399 C 0.39382 0.71225 0.78628 0.0
C4400 C 0.37338 0.66946 0.77527 0.0
C4401 C 0.34168 0.66815 0.7686 0.0
N4402 N 0.38704 0.69899 0.78143 0.0
N4403 N 0.34893 0.68189 0.77086 0.0
H4404 H 0.09277 0.62908 0.49801 0.0
H4405 H 0.01899 0.60741 0.54835 0.0
H4406 H 0.09149 0.58956 0.5279 0.0
H4407 H 0.02149 0.64653 0.5179 0.0
H4408 H 0.04308 0.59749 0.53716 0.0
H4409 H 0.06484 0.6325 0.50154 0.0
C4410 C 0.08655 0.62115 0.50542 0.0
C4411 C 0.09445 0.60927 0.51302 0.0
C4412 C 0.03819 0.60808 0.53271 0.0
C4413 C 0.06239 0.61315 0.5172 0.0
C4414 C 0.02438 0.61375 0.53905 0.0
C4415 C 0.01846 0.62809 0.53435 0.0
C4416 C 0.04609 0.61678 0.5216 0.0
C4417 C 0.02584 0.63564 0.52214 0.0
C4418 C 0.07057 0.62302 0.50733 0.0
C4419 C 0.08579 0.599 0.52205 0.0
N4420 N 0.03942 0.63001 0.51635 0.0
N4421 N 0.0702 0.60135 0.52414 0.0
H4422 H 0.09518 0.27315 0.27564 0.0
H4423 H 0.16927 0.3283 0.28013 0.0
H4424 H 0.13776 0.26194 0.29981 0.0
H4425 H 0.128 0.33852 0.25349 0.0
H4426 H 0.15929 0.30237 0.28459 0.0
H4427 H 0.10845 0.2952 0.26404 0.0
C4428 C 0.10738 0.27513 0.27828 0.0
C4429 C 0.11525 0.26588 0.28899 0.0
C4430 C 0.15249 0.31022 0.27761 0.0
C4431 C 0.13042 0.2912 0.27597 0.0
C4432 C 0.15818 0.32504 0.27509 0.0
C4433 C 0.14932 0.33564 0.26665 0.0
C4434 C 0.13782 0.306 0.27165 0.0
C4435 C 0.13508 0.33078 0.26031 0.0
C4436 C 0.11494 0.28777 0.27171 0.0
C4437 C 0.13111 0.26893 0.29187 0.0
N4438 N 0.1297 0.31635 0.26306 0.0
N4439 N 0.13808 0.28146 0.28561 0.0
H4440 H 0.46177 0.65123 0.45283 0.0
H4441 H 0.40776 0.58794 0.4931 0.0
H4442 H 0.48127 0.60999 0.47242 0.0
H4443 H 0.39115 0.62764 0.46832 0.0
H4444 H 0.43475 0.59479 0.48585 0.0
H4445 H 0.43575 0.64232 0.45932 0.0
C4446 C 0.46053 0.64051 0.45908 0.0
C4447 C 0.47359 0.63152 0.46257 0.0
C4448 C 0.42515 0.60187 0.48189 0.0
C4449 C 0.44375 0.62096 0.46978 0.0
C4450 C 0.40981 0.59791 0.48591 0.0
C4451 C 0.39737 0.6074 0.48143 0.0
C4452 C 0.42783 0.61531 0.47331 0.0
C4453 C 0.4005 0.62019 0.47221 0.0
C4454 C 0.44565 0.63527 0.46256 0.0
C4455 C 0.47139 0.61735 0.46991 0.0
N4456 N 0.4154 0.6238 0.46853 0.0
N4457 N 0.45667 0.6125 0.47341 0.0
H4458 H 0.13599 0.72852 0.1907 0.0
H4459 H 0.12937 0.65407 0.24374 0.0
H4460 H 0.09474 0.71737 0.21704 0.0
H4461 H 0.16903 0.66445 0.2149 0.0
H4462 H 0.11799 0.67898 0.23716 0.0
H4463 H 0.14956 0.70707 0.20251 0.0
C4464 C 0.1298 0.7217 0.19914 0.0
C4465 C 0.11408 0.72469 0.20272 0.0
C4466 C 0.12924 0.67587 0.23237 0.0
C4467 C 0.12969 0.6999 0.21631 0.0
C4468 C 0.13575 0.66165 0.23611 0.0
C4469 C 0.15008 0.65712 0.2297 0.0
C4470 C 0.13708 0.68559 0.22207 0.0
C4471 C 0.15792 0.66745 0.22004 0.0
C4472 C 0.1376 0.70938 0.20587 0.0
C4473 C 0.10679 0.71542 0.21382 0.0
N4474 N 0.15123 0.68114 0.2164 0.0
N4475 N 0.11462 0.70334 0.22012 0.0
H4476 H 0.09153 0.4071 0.96802 0.0
H4477 H 0.01737 0.35318 0.98134 0.0
H4478 H 0.09111 0.36558 0.9951 0.0
H4479 H 0.01946 0.38825 0.94627 0.0
H4480 H 0.04187 0.36284 0.99193 0.0
H4481 H 0.06313 0.40463 0.96443 0.0
C4482 C 0.08541 0.39755 0.97327 0.0
C4483 C 0.09359 0.38633 0.98156 0.0
C4484 C 0.03683 0.36856 0.98204 0.0
C4485 C 0.06135 0.38367 0.97794 0.0
C4486 C 0.02279 0.3631 0.97605 0.0
C4487 C 0.01662 0.36959 0.96261 0.0
C4488 C 0.04478 0.38047 0.97444 0.0
C4489 C 0.02399 0.38265 0.95644 0.0
C4490 C 0.06926 0.39618 0.9713 0.0
C4491 C 0.08523 0.37425 0.98828 0.0
N4492 N 0.0379 0.38745 0.9622 0.0
N4493 N 0.06957 0.37322 0.9863 0.0
H4494 H 0.39881 0.27569 0.71829 0.0
H4495 H 0.32529 0.33182 0.71226 0.0
H4496 H 0.35652 0.26472 0.6935 0.0
H4497 H 0.36467 0.34039 0.74207 0.0
H4498 H 0.33608 0.30649 0.70632 0.0
H4499 H 0.3859 0.29853 0.72871 0.0
C4500 C 0.38675 0.27792 0.71524 0.0
C4501 C 0.37883 0.26836 0.70485 0.0
C4502 C 0.34229 0.31385 0.71428 0.0
C4503 C 0.36407 0.29457 0.71652 0.0
C4504 C 0.33613 0.32831 0.71765 0.0
C4505 C 0.34415 0.33824 0.72759 0.0
C4506 C 0.35657 0.3093 0.72087 0.0
C4507 C 0.35817 0.33313 0.73424 0.0
C4508 C 0.3794 0.291 0.72114 0.0
C4509 C 0.36319 0.27183 0.70133 0.0
N4510 N 0.36399 0.31905 0.7307 0.0
N4511 N 0.35641 0.28474 0.707 0.0
H4512 H 0.034 0.46294 0.33496 0.0
H4513 H 0.01864 0.41748 0.4133 0.0
H4514 H 0.04076 0.48262 0.38 0.0
H4515 H 0.01387 0.39754 0.36811 0.0
H4516 H 0.02275 0.44266 0.40138 0.0
H4517 H 0.02209 0.44037 0.3469 0.0
C4518 C 0.0326 0.4627 0.34733 0.0
C4519 C 0.03858 0.47456 0.35652 0.0
C4520 C 0.0207 0.43278 0.39408 0.0
C4521 C 0.0252 0.44869 0.37029 0.0
C4522 C 0.0184 0.41841 0.40089 0.0
C4523 C 0.01612 0.40538 0.39168 0.0
C4524 C 0.0208 0.43409 0.37797 0.0
C4525 C 0.01571 0.40726 0.37565 0.0
C4526 C 0.02592 0.44974 0.35417 0.0
C4527 C 0.03653 0.47359 0.37251 0.0
N4528 N 0.01818 0.42131 0.36931 0.0
N4529 N 0.03018 0.4608 0.3789 0.0
H4530 H 0.28214 0.29286 0.08701 0.0
H4531 H 0.33601 0.26009 0.15414 0.0
H4532 H 0.26243 0.27756 0.13007 0.0
H4533 H 0.3523 0.28807 0.11645 0.0
H4534 H 0.30896 0.2648 0.14583 0.0
H4535 H 0.30812 0.28786 0.09701 0.0
C4536 C 0.28323 0.28797 0.09841 0.0
C4537 C 0.27008 0.28564 0.10773 0.0
C4538 C 0.31848 0.27004 0.13954 0.0
C4539 C 0.29993 0.28021 0.11942 0.0
C4540 C 0.33387 0.2675 0.14435 0.0
C4541 C 0.34635 0.2735 0.13578 0.0
C4542 C 0.31574 0.27856 0.12608 0.0
C4543 C 0.34301 0.28297 0.12319 0.0
C4544 C 0.29812 0.28538 0.10424 0.0
C4545 C 0.2723 0.27954 0.12253 0.0
N4546 N 0.32804 0.28506 0.11862 0.0
N4547 N 0.287 0.27709 0.12799 0.0
H4548 H 0.45481 0.51115 0.87996 0.0
H4549 H 0.47038 0.60054 0.8689 0.0
H4550 H 0.45501 0.53383 0.83586 0.0
H4551 H 0.47683 0.5774 0.91229 0.0
H4552 H 0.46574 0.57583 0.85657 0.0
H4553 H 0.46521 0.53451 0.89176 0.0
C4554 C 0.4574 0.52095 0.87271 0.0
C4555 C 0.45392 0.52063 0.85694 0.0
C4556 C 0.46836 0.57607 0.86875 0.0
C4557 C 0.46535 0.54749 0.87042 0.0
C4558 C 0.47097 0.59019 0.8758 0.0
C4559 C 0.47404 0.59095 0.8916 0.0
C4560 C 0.46892 0.56256 0.87754 0.0
C4561 C 0.4744 0.57726 0.90008 0.0
C4562 C 0.46324 0.5343 0.87947 0.0
C4563 C 0.45755 0.53358 0.84806 0.0
N4564 N 0.47188 0.56358 0.89292 0.0
N4565 N 0.46279 0.54659 0.85497 0.0
H4566 H 0.21831 0.72043 0.58613 0.0
H4567 H 0.15565 0.72886 0.65364 0.0
H4568 H 0.23018 0.71373 0.63388 0.0
H4569 H 0.14423 0.72028 0.60601 0.0
H4570 H 0.18344 0.72761 0.64702 0.0
H4571 H 0.19164 0.72679 0.59375 0.0
C4572 C 0.21548 0.72088 0.59826 0.0
C4573 C 0.22638 0.71632 0.60939 0.0
C4574 C 0.1748 0.72598 0.63807 0.0
C4575 C 0.19585 0.72314 0.61812 0.0
C4576 C 0.15896 0.72654 0.64184 0.0
C4577 C 0.14758 0.72479 0.63033 0.0
C4578 C 0.17925 0.72377 0.62269 0.0
C4579 C 0.15256 0.72182 0.61525 0.0
C4580 C 0.20017 0.72423 0.60258 0.0
C4581 C 0.22202 0.717 0.62494 0.0
N4582 N 0.16802 0.72152 0.61185 0.0
N4583 N 0.20699 0.72008 0.62886 0.0
H4584 H 0.03556 0.5326 0.16117 0.0
H4585 H 0.01229 0.57691 0.08402 0.0
H4586 H 0.03369 0.5111 0.11656 0.0
H4587 H 0.01523 0.59849 0.12859 0.0
H4588 H 0.01644 0.55189 0.09624 0.0
H4589 H 0.02399 0.55583 0.15013 0.0
C4590 C 0.03218 0.53258 0.14917 0.0
C4591 C 0.03561 0.51996 0.13973 0.0
C4592 C 0.01607 0.56209 0.10336 0.0
C4593 C 0.02267 0.54656 0.12694 0.0
C4594 C 0.01376 0.57637 0.09638 0.0
C4595 C 0.01353 0.58979 0.10529 0.0
C4596 C 0.01835 0.56125 0.11936 0.0
C4597 C 0.01533 0.58843 0.12128 0.0
C4598 C 0.02575 0.54591 0.14281 0.0
C4599 C 0.03131 0.52065 0.12418 0.0
N4600 N 0.01782 0.57444 0.12777 0.0
N4601 N 0.0252 0.53379 0.11823 0.0
H4602 H 0.22823 0.28 0.86187 0.0
H4603 H 0.13921 0.27106 0.88612 0.0
H4604 H 0.21217 0.2771 0.90885 0.0
H4605 H 0.15495 0.26071 0.84012 0.0
H4606 H 0.16611 0.27582 0.89375 0.0
H4607 H 0.202 0.27326 0.85307 0.0
C4608 C 0.21932 0.27753 0.87036 0.0
C4609 C 0.22234 0.27945 0.88615 0.0
C4610 C 0.16373 0.27249 0.88198 0.0
C4611 C 0.19229 0.2721 0.8761 0.0
C4612 C 0.14836 0.26991 0.87758 0.0
C4613 C 0.14491 0.26522 0.86254 0.0
C4614 C 0.17581 0.27036 0.87129 0.0
C4615 C 0.15716 0.26423 0.85186 0.0
C4616 C 0.20431 0.27384 0.8653 0.0
C4617 C 0.21037 0.27597 0.89659 0.0
N4618 N 0.17216 0.26665 0.85648 0.0
N4619 N 0.1958 0.27275 0.89136 0.0
H4620 H 0.46006 0.46438 0.65944 0.0
H4621 H 0.4669 0.41641 0.58172 0.0
H4622 H 0.4476 0.48228 0.6148 0.0
H4623 H 0.48556 0.4007 0.62507 0.0
H4624 H 0.46148 0.4414 0.59341 0.0
H4625 H 0.47167 0.44193 0.64692 0.0
C4626 C 0.46007 0.46377 0.647 0.0
C4627 C 0.45265 0.47513 0.63816 0.0
C4628 C 0.4669 0.43253 0.60034 0.0
C4629 C 0.4657 0.4494 0.62378 0.0
C4630 C 0.46994 0.41825 0.59367 0.0
C4631 C 0.47658 0.40645 0.60246 0.0
C4632 C 0.47036 0.43496 0.61596 0.0
C4633 C 0.48038 0.40948 0.61788 0.0
C4634 C 0.46662 0.4509 0.63985 0.0
C4635 C 0.45298 0.47369 0.62209 0.0
N4636 N 0.47707 0.42339 0.62418 0.0
N4637 N 0.4592 0.46098 0.61543 0.0
H4638 H 0.27796 0.7178 0.40783 0.0
H4639 H 0.3394 0.73016 0.33975 0.0
H4640 H 0.26642 0.70824 0.36046 0.0
H4641 H 0.35161 0.7248 0.38762 0.0
H4642 H 0.31197 0.72508 0.34638 0.0
H4643 H 0.30414 0.72536 0.3998 0.0
C4644 C 0.28076 0.71774 0.39568 0.0
C4645 C 0.27005 0.7122 0.38481 0.0
C4646 C 0.32072 0.72495 0.35537 0.0
C4647 C 0.30012 0.72048 0.3756 0.0
C4648 C 0.33636 0.7277 0.35158 0.0
C4649 C 0.34774 0.72813 0.36319 0.0
C4650 C 0.31655 0.72273 0.37084 0.0
C4651 C 0.34318 0.72487 0.37834 0.0
C4652 C 0.29581 0.72181 0.39113 0.0
C4653 C 0.27441 0.71229 0.36923 0.0
N4654 N 0.32794 0.72245 0.38174 0.0
N4655 N 0.28919 0.71618 0.36508 0.0
H4656 H 0.34213 0.02597 0.46788 0.0
H4657 H 0.41915 0.0269 0.41712 0.0
H4658 H 0.38694 0.04161 0.48441 0.0
H4659 H 0.37711 0.00326 0.40328 0.0
H4660 H 0.40802 0.0304 0.44274 0.0
H4661 H 0.35516 0.01473 0.44546 0.0
C4662 C 0.35474 0.02667 0.46703 0.0
C4663 C 0.36342 0.03502 0.47787 0.0
C4664 C 0.40129 0.02427 0.43417 0.0
C4665 C 0.37834 0.02253 0.45213 0.0
C4666 C 0.40764 0.02231 0.41952 0.0
C4667 C 0.39898 0.01493 0.40801 0.0
C4668 C 0.38613 0.01886 0.43733 0.0
C4669 C 0.38412 0.00919 0.41177 0.0
C4670 C 0.36217 0.02036 0.45415 0.0
C4671 C 0.37974 0.03554 0.47617 0.0
N4672 N 0.3781 0.01141 0.42606 0.0
N4673 N 0.38662 0.02966 0.46341 0.0
H4674 H 0.88155 0.45536 0.51113 0.0
H4675 H 0.87142 0.47562 0.59957 0.0
H4676 H 0.8368 0.45897 0.53369 0.0
H4677 H 0.91545 0.48001 0.57577 0.0
H4678 H 0.85849 0.47087 0.5751 0.0
H4679 H 0.894 0.46659 0.53381 0.0
C4680 C 0.87431 0.4588 0.52075 0.0
C4681 C 0.85814 0.45609 0.5206 0.0
C4682 C 0.87094 0.47307 0.57516 0.0
C4683 C 0.87234 0.46856 0.54671 0.0
C4684 C 0.87836 0.47575 0.58915 0.0
C4685 C 0.89456 0.47817 0.58971 0.0
C4686 C 0.87975 0.47279 0.56155 0.0
C4687 C 0.90296 0.47808 0.57586 0.0
C4688 C 0.88143 0.46516 0.53371 0.0
C4689 C 0.8493 0.46086 0.53331 0.0
N4690 N 0.89546 0.47535 0.56233 0.0
N4691 N 0.85655 0.4666 0.54597 0.0
H4692 H 0.29179 0.13011 0.26257 0.0
H4693 H 0.2613 0.11903 0.34812 0.0
H4694 H 0.2818 0.08586 0.28268 0.0
H4695 H 0.26732 0.16342 0.3268 0.0
H4696 H 0.26589 0.10678 0.32333 0.0
H4697 H 0.27945 0.14254 0.2846 0.0
C4698 C 0.28677 0.12299 0.27151 0.0
C4699 C 0.28809 0.10692 0.27092 0.0
C4700 C 0.26601 0.11921 0.32399 0.0
C4701 C 0.27417 0.1211 0.29632 0.0
C4702 C 0.26341 0.12622 0.33817 0.0
C4703 C 0.26407 0.14228 0.33956 0.0
C4704 C 0.26935 0.12829 0.31106 0.0
C4705 C 0.26686 0.151 0.32628 0.0
C4706 C 0.27974 0.13011 0.28411 0.0
C4707 C 0.28116 0.09828 0.28271 0.0
N4708 N 0.26953 0.14388 0.3126 0.0
N4709 N 0.27475 0.10549 0.29507 0.0
H4710 H 0.60725 0.55901 0.01737 0.0
H4711 H 0.61464 0.50267 0.089 0.0
H4712 H 0.64443 0.52569 0.02171 0.0
H4713 H 0.57547 0.53292 0.0812 0.0
H4714 H 0.62472 0.50914 0.06348 0.0
H4715 H 0.59454 0.54793 0.03966 0.0
C4716 C 0.61267 0.54918 0.02286 0.0
C4717 C 0.62705 0.54337 0.01769 0.0
C4718 C 0.61386 0.51426 0.0673 0.0
C4719 C 0.61245 0.5306 0.04347 0.0
C4720 C 0.60812 0.51061 0.08187 0.0
C4721 C 0.59431 0.51744 0.08728 0.0
C4722 C 0.6058 0.52495 0.05816 0.0
C4723 C 0.58621 0.52746 0.07751 0.0
C4724 C 0.60536 0.54286 0.03566 0.0
C4725 C 0.63343 0.53062 0.02536 0.0
N4726 N 0.59217 0.53105 0.06351 0.0
N4727 N 0.62614 0.52475 0.03797 0.0
H4728 H 0.71113 0.40931 0.28355 0.0
H4729 H 0.72163 0.33029 0.3288 0.0
H4730 H 0.70182 0.36477 0.26379 0.0
H4731 H 0.73578 0.37421 0.34714 0.0
H4732 H 0.7165 0.34258 0.30402 0.0
H4733 H 0.72284 0.39666 0.30591 0.0
C4734 C 0.71195 0.39689 0.28372 0.0
C4735 C 0.70538 0.38806 0.27189 0.0
C4736 C 0.72085 0.34952 0.31343 0.0
C4737 C 0.71849 0.37352 0.29747 0.0
C4738 C 0.72373 0.34251 0.32757 0.0
C4739 C 0.72905 0.35127 0.34003 0.0
C4740 C 0.7231 0.36545 0.3118 0.0
C4741 C 0.73169 0.36703 0.33781 0.0
C4742 C 0.71851 0.38966 0.29655 0.0
C4743 C 0.70658 0.372 0.27277 0.0
N4744 N 0.72853 0.37366 0.32401 0.0
N4745 N 0.71283 0.36525 0.28542 0.0
H4746 H 0.12107 0.97427 0.89739 0.0
H4747 H 0.10936 0.95606 0.98601 0.0
H4748 H 0.07621 0.97756 0.91979 0.0
H4749 H 0.15447 0.96099 0.96445 0.0
H4750 H 0.097 0.96618 0.96277 0.0
H4751 H 0.13342 0.97033 0.92228 0.0
C4752 C 0.11383 0.97429 0.90761 0.0
C4753 C 0.09761 0.97627 0.90657 0.0
C4754 C 0.10962 0.96531 0.96321 0.0
C4755 C 0.1117 0.97193 0.93519 0.0
C4756 C 0.11668 0.95962 0.97649 0.0
C4757 C 0.13293 0.95752 0.97705 0.0
C4758 C 0.11889 0.96864 0.95033 0.0
C4759 C 0.1419 0.9624 0.96449 0.0
C4760 C 0.1209 0.9721 0.92183 0.0
C4761 C 0.08875 0.97597 0.92012 0.0
N4762 N 0.13473 0.96746 0.95151 0.0
N4763 N 0.09593 0.97383 0.93392 0.0
H4764 H 0.3026 0.8613 0.2305 0.0
H4765 H 0.25105 0.87091 0.15473 0.0
H4766 H 0.27647 0.90247 0.22006 0.0
H4767 H 0.27867 0.83077 0.16534 0.0
H4768 H 0.25704 0.88128 0.1802 0.0
H4769 H 0.29063 0.84864 0.20858 0.0
C4770 C 0.29416 0.86765 0.22372 0.0
C4771 C 0.29074 0.8831 0.22702 0.0
C4772 C 0.26167 0.87014 0.17701 0.0
C4773 C 0.27701 0.86858 0.20168 0.0
C4774 C 0.25827 0.86422 0.16247 0.0
C4775 C 0.26454 0.85004 0.15784 0.0
C4776 C 0.27147 0.86186 0.18697 0.0
C4777 C 0.27369 0.8418 0.16837 0.0
C4778 C 0.28733 0.86038 0.21115 0.0
C4779 C 0.27958 0.89061 0.21788 0.0
N4780 N 0.277 0.8479 0.18237 0.0
N4781 N 0.27325 0.88334 0.20549 0.0
H4782 H 0.21606 0.08575 0.71637 0.0
H4783 H 0.2214 0.16325 0.66828 0.0
H4784 H 0.20487 0.13052 0.73467 0.0
H4785 H 0.23548 0.11898 0.65068 0.0
H4786 H 0.21901 0.15197 0.69391 0.0
H4787 H 0.22784 0.09814 0.69394 0.0
C4788 C 0.21649 0.09818 0.7159 0.0
C4789 C 0.20913 0.10711 0.72722 0.0
C4790 C 0.22278 0.14475 0.68448 0.0
C4791 C 0.22224 0.12134 0.70146 0.0
C4792 C 0.22407 0.15118 0.66982 0.0
C4793 C 0.22844 0.14199 0.65729 0.0
C4794 C 0.22576 0.12899 0.6866 0.0
C4795 C 0.23191 0.12645 0.65999 0.0
C4796 C 0.22309 0.10527 0.70301 0.0
C4797 C 0.2101 0.12318 0.72603 0.0
N4798 N 0.23034 0.1204 0.6743 0.0
N4799 N 0.21622 0.12977 0.71324 0.0
loop_
_geom_bond_atom_site_label_1
_geom_bond_atom_site_label_2
_geom_bond_distance
_geom_bond_site_symmetry_2
_ccdc_geom_bond_type
C0 O1 1.306 . S
C0 O3 1.160 . S
O1 C0 1.306 . S
O1 Cd2 2.228 . S
Cd2 O1 2.228 . S
Cd2 O6 2.273 1_455 S
Cd2 O10 2.277 . S
O3 C0 1.160 . S
O3 Cd4 2.177 1_455 S
Cd4 O3 2.177 1_655 S
Cd4 O6 2.433 . S
Cd4 O7 2.364 . S
Cd4 O8 2.378 . S
Cd4 O12 2.248 1_655 S
Cd4 O13 2.367 . S
C5 O10 1.209 . S
C5 O12 1.226 . S
O6 Cd2 2.273 1_655 S
O6 Cd4 2.433 . S
O6 C9 1.320 . S
O7 Cd4 2.364 . S
O7 C9 1.214 . S
O8 Cd4 2.378 . S
O8 C11 1.258 . S
C9 O6 1.320 . S
C9 O7 1.214 . S
O10 Cd2 2.277 . S
O10 C5 1.209 . S
C11 O8 1.258 . S
C11 O13 1.282 . S
O12 Cd4 2.248 1_455 S
O12 C5 1.226 . S
O13 Cd4 2.367 . S
O13 C11 1.282 . S
C14 O15 1.306 . S
C14 O17 1.160 . S
O15 C14 1.306 . S
O15 Cd16 2.228 . S
Cd16 O15 2.228 . S
Cd16 O20 2.273 . S
Cd16 O24 2.277 . S
O17 C14 1.160 . S
O17 Cd18 2.203 . S
Cd18 O17 2.203 . S
Cd18 O20 2.411 . S
Cd18 O21 2.333 . S
Cd18 O22 2.352 . S
Cd18 O26 2.277 . S
Cd18 O27 2.356 . S
C19 O24 1.209 . S
C19 O26 1.226 . S
O20 Cd16 2.273 . S
O20 Cd18 2.411 . S
O20 C23 1.320 . S
O21 Cd18 2.333 . S
O21 C23 1.214 . S
O22 Cd18 2.352 . S
O22 C25 1.258 . S
C23 O20 1.320 . S
C23 O21 1.214 . S
O24 Cd16 2.277 . S
O24 C19 1.209 . S
C25 O22 1.258 . S
C25 O27 1.282 . S
O26 Cd18 2.277 . S
O26 C19 1.226 . S
O27 Cd18 2.356 . S
O27 C25 1.282 . S
C28 O29 1.306 . S
C28 O31 1.160 . S
O29 C28 1.306 . S
O29 Cd30 2.228 . S
Cd30 O29 2.228 . S
Cd30 O34 2.273 . S
Cd30 O38 2.277 . S
O31 C28 1.160 . S
O31 Cd32 2.203 . S
Cd32 O31 2.203 . S
Cd32 O34 2.411 . S
Cd32 O35 2.333 . S
Cd32 O36 2.352 . S
Cd32 O40 2.277 . S
Cd32 O41 2.356 . S
C33 O38 1.209 . S
C33 O40 1.226 . S
O34 Cd30 2.273 . S
O34 Cd32 2.411 . S
O34 C37 1.320 . S
O35 Cd32 2.333 . S
O35 C37 1.214 . S
O36 Cd32 2.352 . S
O36 C39 1.258 . S
C37 O34 1.320 . S
C37 O35 1.214 . S
O38 Cd30 2.277 . S
O38 C33 1.209 . S
C39 O36 1.258 . S
C39 O41 1.282 . S
O40 Cd32 2.277 . S
O40 C33 1.226 . S
O41 Cd32 2.356 . S
O41 C39 1.282 . S
C42 O43 1.306 . S
C42 O45 1.160 . S
O43 C42 1.306 . S
O43 Cd44 2.228 . S
Cd44 O43 2.228 . S
Cd44 O48 2.273 . S
Cd44 O52 2.277 . S
O45 C42 1.160 . S
O45 Cd46 2.203 . S
Cd46 O45 2.203 . S
Cd46 O48 2.411 . S
Cd46 O49 2.333 . S
Cd46 O50 2.352 . S
Cd46 O54 2.277 . S
Cd46 O55 2.356 . S
C47 O52 1.209 . S
C47 O54 1.226 . S
O48 Cd44 2.273 . S
O48 Cd46 2.411 . S
O48 C51 1.320 . S
O49 Cd46 2.333 . S
O49 C51 1.214 . S
O50 Cd46 2.352 . S
O50 C53 1.258 . S
C51 O48 1.320 . S
C51 O49 1.214 . S
O52 Cd44 2.277 . S
O52 C47 1.209 . S
C53 O50 1.258 . S
C53 O55 1.282 . S
O54 Cd46 2.277 . S
O54 C47 1.226 . S
O55 Cd46 2.356 . S
O55 C53 1.282 . S
C56 O57 1.306 . S
C56 O59 1.160 . S
O57 C56 1.306 . S
O57 Cd58 2.228 . S
Cd58 O57 2.228 . S
Cd58 O62 2.273 1_455 S
Cd58 O66 2.277 . S
O59 C56 1.160 . S
O59 Cd60 2.177 1_455 S
Cd60 O59 2.177 1_655 S
Cd60 O62 2.433 . S
Cd60 O63 2.364 . S
Cd60 O64 2.378 . S
Cd60 O68 2.248 1_655 S
Cd60 O69 2.367 . S
C61 O66 1.209 . S
C61 O68 1.226 . S
O62 Cd58 2.273 1_655 S
O62 Cd60 2.433 . S
O62 C65 1.320 . S
O63 Cd60 2.364 . S
O63 C65 1.214 . S
O64 Cd60 2.378 . S
O64 C67 1.258 . S
C65 O62 1.320 . S
C65 O63 1.214 . S
O66 Cd58 2.277 . S
O66 C61 1.209 . S
C67 O64 1.258 . S
C67 O69 1.282 . S
O68 Cd60 2.248 1_455 S
O68 C61 1.226 . S
O69 Cd60 2.367 . S
O69 C67 1.282 . S
C70 O71 1.306 . S
C70 O73 1.160 . S
O71 C70 1.306 . S
O71 Cd72 2.228 . S
Cd72 O71 2.228 . S
Cd72 O76 2.273 . S
Cd72 O80 2.277 . S
O73 C70 1.160 . S
O73 Cd74 2.203 . S
Cd74 O73 2.203 . S
Cd74 O76 2.411 . S
Cd74 O77 2.333 . S
Cd74 O78 2.352 . S
Cd74 O82 2.277 . S
Cd74 O83 2.356 . S
C75 O80 1.209 . S
C75 O82 1.226 . S
O76 Cd72 2.273 . S
O76 Cd74 2.411 . S
O76 C79 1.320 . S
O77 Cd74 2.333 . S
O77 C79 1.214 . S
O78 Cd74 2.352 . S
O78 C81 1.258 . S
C79 O76 1.320 . S
C79 O77 1.214 . S
O80 Cd72 2.277 . S
O80 C75 1.209 . S
C81 O78 1.258 . S
C81 O83 1.282 . S
O82 Cd74 2.277 . S
O82 C75 1.226 . S
O83 Cd74 2.356 . S
O83 C81 1.282 . S
C84 O85 1.306 . S
C84 O87 1.160 . S
O85 C84 1.306 . S
O85 Cd86 2.228 . S
Cd86 O85 2.228 . S
Cd86 O90 2.273 . S
Cd86 O94 2.277 . S
O87 C84 1.160 . S
O87 Cd88 2.203 . S
Cd88 O87 2.203 . S
Cd88 O90 2.411 . S
Cd88 O91 2.333 . S
Cd88 O92 2.352 . S
Cd88 O96 2.277 . S
Cd88 O97 2.356 . S
C89 O94 1.209 . S
C89 O96 1.226 . S
O90 Cd86 2.273 . S
O90 Cd88 2.411 . S
O90 C93 1.320 . S
O91 Cd88 2.333 . S
O91 C93 1.214 . S
O92 Cd88 2.352 . S
O92 C95 1.258 . S
C93 O90 1.320 . S
C93 O91 1.214 . S
O94 Cd86 2.277 . S
O94 C89 1.209 . S
C95 O92 1.258 . S
C95 O97 1.282 . S
O96 Cd88 2.277 . S
O96 C89 1.226 . S
O97 Cd88 2.356 . S
O97 C95 1.282 . S
C98 O99 1.306 . S
C98 O101 1.160 . S
O99 C98 1.306 . S
O99 Cd100 2.228 . S
Cd100 O99 2.228 . S
Cd100 O104 2.273 . S
Cd100 O108 2.277 . S
O101 C98 1.160 . S
O101 Cd102 2.203 . S
Cd102 O101 2.203 . S
Cd102 O104 2.411 . S
Cd102 O105 2.333 . S
Cd102 O106 2.352 . S
Cd102 O110 2.277 . S
Cd102 O111 2.356 . S
C103 O108 1.209 . S
C103 O110 1.226 . S
O104 Cd100 2.273 . S
O104 Cd102 2.411 . S
O104 C107 1.320 . S
O105 Cd102 2.333 . S
O105 C107 1.214 . S
O106 Cd102 2.352 . S
O106 C109 1.258 . S
C107 O104 1.320 . S
C107 O105 1.214 . S
O108 Cd100 2.277 . S
O108 C103 1.209 . S
C109 O106 1.258 . S
C109 O111 1.282 . S
O110 Cd102 2.277 . S
O110 C103 1.226 . S
O111 Cd102 2.356 . S
O111 C109 1.282 . S
C112 O113 1.306 . S
C112 O115 1.160 . S
O113 C112 1.306 . S
O113 Cd114 2.228 . S
Cd114 O113 2.228 . S
Cd114 O118 2.273 1_545 S
Cd114 O122 2.277 . S
O115 C112 1.160 . S
O115 Cd116 2.192 1_545 S
Cd116 O115 2.192 1_565 S
Cd116 O118 2.420 . S
Cd116 O119 2.346 . S
Cd116 O120 2.363 . S
Cd116 O124 2.265 1_565 S
Cd116 O125 2.361 . S
C117 O122 1.209 . S
C117 O124 1.226 . S
O118 Cd114 2.273 1_565 S
O118 Cd116 2.420 . S
O118 C121 1.320 . S
O119 Cd116 2.346 . S
O119 C121 1.214 . S
O120 Cd116 2.363 . S
O120 C123 1.258 . S
C121 O118 1.320 . S
C121 O119 1.214 . S
O122 Cd114 2.277 . S
O122 C117 1.209 . S
C123 O120 1.258 . S
C123 O125 1.282 . S
O124 Cd116 2.265 1_545 S
O124 C117 1.226 . S
O125 Cd116 2.361 . S
O125 C123 1.282 . S
C126 O127 1.306 . S
C126 O129 1.160 . S
O127 C126 1.306 . S
O127 Cd128 2.228 . S
Cd128 O127 2.228 . S
Cd128 O132 2.273 . S
Cd128 O136 2.277 . S
O129 C126 1.160 . S
O129 Cd130 2.203 . S
Cd130 O129 2.203 . S
Cd130 O132 2.411 . S
Cd130 O133 2.333 . S
Cd130 O134 2.352 . S
Cd130 O138 2.277 . S
Cd130 O139 2.356 . S
C131 O136 1.209 . S
C131 O138 1.226 . S
O132 Cd128 2.273 . S
O132 Cd130 2.411 . S
O132 C135 1.320 . S
O133 Cd130 2.333 . S
O133 C135 1.214 . S
O134 Cd130 2.352 . S
O134 C137 1.258 . S
C135 O132 1.320 . S
C135 O133 1.214 . S
O136 Cd128 2.277 . S
O136 C131 1.209 . S
C137 O134 1.258 . S
C137 O139 1.282 . S
O138 Cd130 2.277 . S
O138 C131 1.226 . S
O139 Cd130 2.356 . S
O139 C137 1.282 . S
C140 O141 1.306 . S
C140 O143 1.160 . S
O141 C140 1.306 . S
O141 Cd142 2.228 . S
Cd142 O141 2.228 . S
Cd142 O146 2.273 1_565 S
Cd142 O150 2.277 . S
O143 C140 1.160 . S
O143 Cd144 2.194 1_565 S
Cd144 O143 2.194 1_545 S
Cd144 O146 2.418 . S
Cd144 O147 2.343 . S
Cd144 O148 2.360 . S
Cd144 O152 2.267 1_545 S
Cd144 O153 2.360 . S
C145 O150 1.209 . S
C145 O152 1.226 . S
O146 Cd142 2.273 1_545 S
O146 Cd144 2.418 . S
O146 C149 1.320 . S
O147 Cd144 2.343 . S
O147 C149 1.214 . S
O148 Cd144 2.360 . S
O148 C151 1.258 . S
C149 O146 1.320 . S
C149 O147 1.214 . S
O150 Cd142 2.277 . S
O150 C145 1.209 . S
C151 O148 1.258 . S
C151 O153 1.282 . S
O152 Cd144 2.267 1_565 S
O152 C145 1.226 . S
O153 Cd144 2.360 . S
O153 C151 1.282 . S
C154 O155 1.306 . S
C154 O157 1.160 . S
O155 C154 1.306 . S
O155 Cd156 2.228 . S
Cd156 O155 2.228 . S
Cd156 O160 2.273 . S
Cd156 O164 2.277 . S
O157 C154 1.160 . S
O157 Cd158 2.203 . S
Cd158 O157 2.203 . S
Cd158 O160 2.411 . S
Cd158 O161 2.333 . S
Cd158 O162 2.352 . S
Cd158 O166 2.277 . S
Cd158 O167 2.356 . S
C159 O164 1.209 . S
C159 O166 1.226 . S
O160 Cd156 2.273 . S
O160 Cd158 2.411 . S
O160 C163 1.320 . S
O161 Cd158 2.333 . S
O161 C163 1.214 . S
O162 Cd158 2.352 . S
O162 C165 1.258 . S
C163 O160 1.320 . S
C163 O161 1.214 . S
O164 Cd156 2.277 . S
O164 C159 1.209 . S
C165 O162 1.258 . S
C165 O167 1.282 . S
O166 Cd158 2.277 . S
O166 C159 1.226 . S
O167 Cd158 2.356 . S
O167 C165 1.282 . S
C168 O169 1.306 . S
C168 O171 1.160 . S
O169 C168 1.306 . S
O169 Cd170 2.228 . S
Cd170 O169 2.228 . S
Cd170 O174 2.273 1_565 S
Cd170 O178 2.277 . S
O171 C168 1.160 . S
O171 Cd172 2.195 1_565 S
Cd172 O171 2.195 1_545 S
Cd172 O174 2.417 . S
Cd172 O175 2.342 . S
Cd172 O176 2.359 . S
Cd172 O180 2.268 1_545 S
Cd172 O181 2.360 . S
C173 O178 1.209 . S
C173 O180 1.226 . S
O174 Cd170 2.273 1_545 S
O174 Cd172 2.417 . S
O174 C177 1.320 . S
O175 Cd172 2.342 . S
O175 C177 1.214 . S
O176 Cd172 2.359 . S
O176 C179 1.258 . S
C177 O174 1.320 . S
C177 O175 1.214 . S
O178 Cd170 2.277 . S
O178 C173 1.209 . S
C179 O176 1.258 . S
C179 O181 1.282 . S
O180 Cd172 2.268 1_565 S
O180 C173 1.226 . S
O181 Cd172 2.360 . S
O181 C179 1.282 . S
C182 O183 1.306 . S
C182 O185 1.160 . S
O183 C182 1.306 . S
O183 Cd184 2.228 . S
Cd184 O183 2.228 . S
Cd184 O188 2.273 . S
Cd184 O192 2.277 . S
O185 C182 1.160 . S
O185 Cd186 2.203 . S
Cd186 O185 2.203 . S
Cd186 O188 2.411 . S
Cd186 O189 2.333 . S
Cd186 O190 2.352 . S
Cd186 O194 2.277 . S
Cd186 O195 2.356 . S
C187 O192 1.209 . S
C187 O194 1.226 . S
O188 Cd184 2.273 . S
O188 Cd186 2.411 . S
O188 C191 1.320 . S
O189 Cd186 2.333 . S
O189 C191 1.214 . S
O190 Cd186 2.352 . S
O190 C193 1.258 . S
C191 O188 1.320 . S
C191 O189 1.214 . S
O192 Cd184 2.277 . S
O192 C187 1.209 . S
C193 O190 1.258 . S
C193 O195 1.282 . S
O194 Cd186 2.277 . S
O194 C187 1.226 . S
O195 Cd186 2.356 . S
O195 C193 1.282 . S
C196 O197 1.306 . S
C196 O199 1.160 . S
O197 C196 1.306 . S
O197 Cd198 2.228 . S
Cd198 O197 2.228 . S
Cd198 O202 2.273 1_545 S
Cd198 O206 2.277 . S
O199 C196 1.160 . S
O199 Cd200 2.191 1_545 S
Cd200 O199 2.191 1_565 S
Cd200 O202 2.421 . S
Cd200 O203 2.347 . S
Cd200 O204 2.363 . S
Cd200 O208 2.264 1_565 S
Cd200 O209 2.361 . S
C201 O206 1.209 . S
C201 O208 1.226 . S
O202 Cd198 2.273 1_565 S
O202 Cd200 2.421 . S
O202 C205 1.320 . S
O203 Cd200 2.347 . S
O203 C205 1.214 . S
O204 Cd200 2.363 . S
O204 C207 1.258 . S
C205 O202 1.320 . S
C205 O203 1.214 . S
O206 Cd198 2.277 . S
O206 C201 1.209 . S
C207 O204 1.258 . S
C207 O209 1.282 . S
O208 Cd200 2.264 1_545 S
O208 C201 1.226 . S
O209 Cd200 2.361 . S
O209 C207 1.282 . S
C210 O211 1.306 . S
C210 O213 1.160 . S
O211 C210 1.306 . S
O211 Cd212 2.228 . S
Cd212 O211 2.228 . S
Cd212 O216 2.273 . S
Cd212 O220 2.277 . S
O213 C210 1.160 . S
O213 Cd214 2.203 . S
Cd214 O213 2.203 . S
Cd214 O216 2.411 . S
Cd214 O217 2.333 . S
Cd214 O218 2.352 . S
Cd214 O222 2.277 . S
Cd214 O223 2.356 . S
C215 O220 1.209 . S
C215 O222 1.226 . S
O216 Cd212 2.273 . S
O216 Cd214 2.411 . S
O216 C219 1.320 . S
O217 Cd214 2.333 . S
O217 C219 1.214 . S
O218 Cd214 2.352 . S
O218 C221 1.258 . S
C219 O216 1.320 . S
C219 O217 1.214 . S
O220 Cd212 2.277 . S
O220 C215 1.209 . S
C221 O218 1.258 . S
C221 O223 1.282 . S
O222 Cd214 2.277 . S
O222 C215 1.226 . S
O223 Cd214 2.356 . S
O223 C221 1.282 . S
C224 O225 1.306 . S
C224 O227 1.160 . S
O225 C224 1.306 . S
O225 Cd226 2.228 . S
Cd226 O225 2.228 . S
Cd226 O230 2.273 1_556 S
Cd226 O234 2.277 . S
O227 C224 1.160 . S
O227 Cd228 2.203 1_556 S
Cd228 O227 2.203 1_554 S
Cd228 O230 2.411 . S
Cd228 O231 2.333 . S
Cd228 O232 2.352 . S
Cd228 O236 2.277 1_554 S
Cd228 O237 2.356 . S
C229 O234 1.209 . S
C229 O236 1.226 . S
O230 Cd226 2.273 1_554 S
O230 Cd228 2.411 . S
O230 C233 1.320 . S
O231 Cd228 2.333 . S
O231 C233 1.214 . S
O232 Cd228 2.352 . S
O232 C235 1.258 . S
C233 O230 1.320 . S
C233 O231 1.214 . S
O234 Cd226 2.277 . S
O234 C229 1.209 . S
C235 O232 1.258 . S
C235 O237 1.282 . S
O236 Cd228 2.277 1_556 S
O236 C229 1.226 . S
O237 Cd228 2.356 . S
O237 C235 1.282 . S
C238 O239 1.306 . S
C238 O241 1.160 . S
O239 C238 1.306 . S
O239 Cd240 2.228 . S
Cd240 O239 2.228 . S
Cd240 O244 2.273 1_554 S
Cd240 O248 2.277 . S
O241 C238 1.160 . S
O241 Cd242 2.203 1_554 S
Cd242 O241 2.203 1_556 S
Cd242 O244 2.411 . S
Cd242 O245 2.333 . S
Cd242 O246 2.352 . S
Cd242 O250 2.277 1_556 S
Cd242 O251 2.356 . S
C243 O248 1.209 . S
C243 O250 1.226 . S
O244 Cd240 2.273 1_556 S
O244 Cd242 2.411 . S
O244 C247 1.320 . S
O245 Cd242 2.333 . S
O245 C247 1.214 . S
O246 Cd242 2.352 . S
O246 C249 1.258 . S
C247 O244 1.320 . S
C247 O245 1.214 . S
O248 Cd240 2.277 . S
O248 C243 1.209 . S
C249 O246 1.258 . S
C249 O251 1.282 . S
O250 Cd242 2.277 1_554 S
O250 C243 1.226 . S
O251 Cd242 2.356 . S
O251 C249 1.282 . S
C252 O253 1.306 . S
C252 O255 1.160 . S
O253 C252 1.306 . S
O253 Cd254 2.228 . S
Cd254 O253 2.228 . S
Cd254 O258 2.273 . S
Cd254 O262 2.277 . S
O255 C252 1.160 . S
O255 Cd256 2.203 . S
Cd256 O255 2.203 . S
Cd256 O258 2.411 . S
Cd256 O259 2.333 . S
Cd256 O260 2.352 . S
Cd256 O264 2.277 . S
Cd256 O265 2.356 . S
C257 O262 1.209 . S
C257 O264 1.226 . S
O258 Cd254 2.273 . S
O258 Cd256 2.411 . S
O258 C261 1.320 . S
O259 Cd256 2.333 . S
O259 C261 1.214 . S
O260 Cd256 2.352 . S
O260 C263 1.258 . S
C261 O258 1.320 . S
C261 O259 1.214 . S
O262 Cd254 2.277 . S
O262 C257 1.209 . S
C263 O260 1.258 . S
C263 O265 1.282 . S
O264 Cd256 2.277 . S
O264 C257 1.226 . S
O265 Cd256 2.356 . S
O265 C263 1.282 . S
C266 O267 1.306 . S
C266 O269 1.160 . S
O267 C266 1.306 . S
O267 Cd268 2.228 . S
Cd268 O267 2.228 . S
Cd268 O272 2.273 . S
Cd268 O276 2.277 . S
O269 C266 1.160 . S
O269 Cd270 2.203 . S
Cd270 O269 2.203 . S
Cd270 O272 2.411 . S
Cd270 O273 2.333 . S
Cd270 O274 2.352 . S
Cd270 O278 2.277 . S
Cd270 O279 2.356 . S
C271 O276 1.209 . S
C271 O278 1.226 . S
O272 Cd268 2.273 . S
O272 Cd270 2.411 . S
O272 C275 1.320 . S
O273 Cd270 2.333 . S
O273 C275 1.214 . S
O274 Cd270 2.352 . S
O274 C277 1.258 . S
C275 O272 1.320 . S
C275 O273 1.214 . S
O276 Cd268 2.277 . S
O276 C271 1.209 . S
C277 O274 1.258 . S
C277 O279 1.282 . S
O278 Cd270 2.277 . S
O278 C271 1.226 . S
O279 Cd270 2.356 . S
O279 C277 1.282 . S
C280 O281 1.306 . S
C280 O283 1.160 . S
O281 C280 1.306 . S
O281 Cd282 2.228 . S
Cd282 O281 2.228 . S
Cd282 O286 2.273 . S
Cd282 O290 2.277 . S
O283 C280 1.160 . S
O283 Cd284 2.203 . S
Cd284 O283 2.203 . S
Cd284 O286 2.411 . S
Cd284 O287 2.333 . S
Cd284 O288 2.352 . S
Cd284 O292 2.277 . S
Cd284 O293 2.356 . S
C285 O290 1.209 . S
C285 O292 1.226 . S
O286 Cd282 2.273 . S
O286 Cd284 2.411 . S
O286 C289 1.320 . S
O287 Cd284 2.333 . S
O287 C289 1.214 . S
O288 Cd284 2.352 . S
O288 C291 1.258 . S
C289 O286 1.320 . S
C289 O287 1.214 . S
O290 Cd282 2.277 . S
O290 C285 1.209 . S
C291 O288 1.258 . S
C291 O293 1.282 . S
O292 Cd284 2.277 . S
O292 C285 1.226 . S
O293 Cd284 2.356 . S
O293 C291 1.282 . S
C294 O295 1.306 . S
C294 O297 1.160 . S
O295 C294 1.306 . S
O295 Cd296 2.228 . S
Cd296 O295 2.228 . S
Cd296 O300 2.273 . S
Cd296 O304 2.277 . S
O297 C294 1.160 . S
O297 Cd298 2.203 . S
Cd298 O297 2.203 . S
Cd298 O300 2.411 . S
Cd298 O301 2.333 . S
Cd298 O302 2.352 . S
Cd298 O306 2.277 . S
Cd298 O307 2.356 . S
C299 O304 1.209 . S
C299 O306 1.226 . S
O300 Cd296 2.273 . S
O300 Cd298 2.411 . S
O300 C303 1.320 . S
O301 Cd298 2.333 . S
O301 C303 1.214 . S
O302 Cd298 2.352 . S
O302 C305 1.258 . S
C303 O300 1.320 . S
C303 O301 1.214 . S
O304 Cd296 2.277 . S
O304 C299 1.209 . S
C305 O302 1.258 . S
C305 O307 1.282 . S
O306 Cd298 2.277 . S
O306 C299 1.226 . S
O307 Cd298 2.356 . S
O307 C305 1.282 . S
C308 O309 1.306 . S
C308 O311 1.160 . S
O309 C308 1.306 . S
O309 Cd310 2.228 . S
Cd310 O309 2.228 . S
Cd310 O314 2.273 . S
Cd310 O318 2.277 . S
O311 C308 1.160 . S
O311 Cd312 2.203 . S
Cd312 O311 2.203 . S
Cd312 O314 2.411 . S
Cd312 O315 2.333 . S
Cd312 O316 2.352 . S
Cd312 O320 2.277 . S
Cd312 O321 2.356 . S
C313 O318 1.209 . S
C313 O320 1.226 . S
O314 Cd310 2.273 . S
O314 Cd312 2.411 . S
O314 C317 1.320 . S
O315 Cd312 2.333 . S
O315 C317 1.214 . S
O316 Cd312 2.352 . S
O316 C319 1.258 . S
C317 O314 1.320 . S
C317 O315 1.214 . S
O318 Cd310 2.277 . S
O318 C313 1.209 . S
C319 O316 1.258 . S
C319 O321 1.282 . S
O320 Cd312 2.277 . S
O320 C313 1.226 . S
O321 Cd312 2.356 . S
O321 C319 1.282 . S
C322 O323 1.306 . S
C322 O325 1.160 . S
O323 C322 1.306 . S
O323 Cd324 2.228 . S
Cd324 O323 2.228 . S
Cd324 O328 2.273 . S
Cd324 O332 2.277 . S
O325 C322 1.160 . S
O325 Cd326 2.203 . S
Cd326 O325 2.203 . S
Cd326 O328 2.411 . S
Cd326 O329 2.333 . S
Cd326 O330 2.352 . S
Cd326 O334 2.277 . S
Cd326 O335 2.356 . S
C327 O332 1.209 . S
C327 O334 1.226 . S
O328 Cd324 2.273 . S
O328 Cd326 2.411 . S
O328 C331 1.320 . S
O329 Cd326 2.333 . S
O329 C331 1.214 . S
O330 Cd326 2.352 . S
O330 C333 1.258 . S
C331 O328 1.320 . S
C331 O329 1.214 . S
O332 Cd324 2.277 . S
O332 C327 1.209 . S
C333 O330 1.258 . S
C333 O335 1.282 . S
O334 Cd326 2.277 . S
O334 C327 1.226 . S
O335 Cd326 2.356 . S
O335 C333 1.282 . S
C336 O337 1.306 . S
C336 O339 1.160 . S
O337 C336 1.306 . S
O337 Cd338 2.228 . S
Cd338 O337 2.228 . S
Cd338 O342 2.273 1_655 S
Cd338 O346 2.277 . S
O339 C336 1.160 . S
O339 Cd340 2.201 . S
Cd340 O339 2.201 . S
Cd340 O342 2.413 1_655 S
Cd340 O343 2.336 1_655 S
Cd340 O344 2.354 1_655 S
Cd340 O348 2.274 . S
Cd340 O349 2.357 1_655 S
C341 O346 1.209 . S
C341 O348 1.226 . S
O342 Cd338 2.273 1_455 S
O342 Cd340 2.413 1_455 S
O342 C345 1.320 . S
O343 Cd340 2.336 1_455 S
O343 C345 1.214 . S
O344 Cd340 2.354 1_455 S
O344 C347 1.258 . S
C345 O342 1.320 . S
C345 O343 1.214 . S
O346 Cd338 2.277 . S
O346 C341 1.209 . S
C347 O344 1.258 . S
C347 O349 1.282 . S
O348 Cd340 2.274 . S
O348 C341 1.226 . S
O349 Cd340 2.357 1_455 S
O349 C347 1.282 . S
C350 O351 1.306 . S
C350 O353 1.160 . S
O351 C350 1.306 . S
O351 Cd352 2.228 . S
Cd352 O351 2.228 . S
Cd352 O356 2.273 . S
Cd352 O360 2.277 . S
O353 C350 1.160 . S
O353 Cd354 2.203 . S
Cd354 O353 2.203 . S
Cd354 O356 2.411 . S
Cd354 O357 2.333 . S
Cd354 O358 2.352 . S
Cd354 O362 2.277 . S
Cd354 O363 2.356 . S
C355 O360 1.209 . S
C355 O362 1.226 . S
O356 Cd352 2.273 . S
O356 Cd354 2.411 . S
O356 C359 1.320 . S
O357 Cd354 2.333 . S
O357 C359 1.214 . S
O358 Cd354 2.352 . S
O358 C361 1.258 . S
C359 O356 1.320 . S
C359 O357 1.214 . S
O360 Cd352 2.277 . S
O360 C355 1.209 . S
C361 O358 1.258 . S
C361 O363 1.282 . S
O362 Cd354 2.277 . S
O362 C355 1.226 . S
O363 Cd354 2.356 . S
O363 C361 1.282 . S
C364 O365 1.306 . S
C364 O367 1.160 . S
O365 C364 1.306 . S
O365 Cd366 2.228 . S
Cd366 O365 2.228 . S
Cd366 O370 2.273 . S
Cd366 O374 2.277 . S
O367 C364 1.160 . S
O367 Cd368 2.203 . S
Cd368 O367 2.203 . S
Cd368 O370 2.411 . S
Cd368 O371 2.333 . S
Cd368 O372 2.352 . S
Cd368 O376 2.277 . S
Cd368 O377 2.356 . S
C369 O374 1.209 . S
C369 O376 1.226 . S
O370 Cd366 2.273 . S
O370 Cd368 2.411 . S
O370 C373 1.320 . S
O371 Cd368 2.333 . S
O371 C373 1.214 . S
O372 Cd368 2.352 . S
O372 C375 1.258 . S
C373 O370 1.320 . S
C373 O371 1.214 . S
O374 Cd366 2.277 . S
O374 C369 1.209 . S
C375 O372 1.258 . S
C375 O377 1.282 . S
O376 Cd368 2.277 . S
O376 C369 1.226 . S
O377 Cd368 2.356 . S
O377 C375 1.282 . S
C378 O379 1.306 . S
C378 O381 1.160 . S
O379 C378 1.306 . S
O379 Cd380 2.228 . S
Cd380 O379 2.228 . S
Cd380 O384 2.273 . S
Cd380 O388 2.277 . S
O381 C378 1.160 . S
O381 Cd382 2.203 . S
Cd382 O381 2.203 . S
Cd382 O384 2.411 . S
Cd382 O385 2.333 . S
Cd382 O386 2.352 . S
Cd382 O390 2.277 . S
Cd382 O391 2.356 . S
C383 O388 1.209 . S
C383 O390 1.226 . S
O384 Cd380 2.273 . S
O384 Cd382 2.411 . S
O384 C387 1.320 . S
O385 Cd382 2.333 . S
O385 C387 1.214 . S
O386 Cd382 2.352 . S
O386 C389 1.258 . S
C387 O384 1.320 . S
C387 O385 1.214 . S
O388 Cd380 2.277 . S
O388 C383 1.209 . S
C389 O386 1.258 . S
C389 O391 1.282 . S
O390 Cd382 2.277 . S
O390 C383 1.226 . S
O391 Cd382 2.356 . S
O391 C389 1.282 . S
C392 O393 1.306 . S
C392 O395 1.160 . S
O393 C392 1.306 . S
O393 Cd394 2.228 . S
Cd394 O393 2.228 . S
Cd394 O398 2.273 1_655 S
Cd394 O402 2.277 . S
O395 C392 1.160 . S
O395 Cd396 2.200 . S
Cd396 O395 2.200 . S
Cd396 O398 2.413 1_655 S
Cd396 O399 2.336 1_655 S
Cd396 O400 2.354 1_655 S
Cd396 O404 2.274 . S
Cd396 O405 2.357 1_655 S
C397 O402 1.209 . S
C397 O404 1.226 . S
O398 Cd394 2.273 1_455 S
O398 Cd396 2.413 1_455 S
O398 C401 1.320 . S
O399 Cd396 2.336 1_455 S
O399 C401 1.214 . S
O400 Cd396 2.354 1_455 S
O400 C403 1.258 . S
C401 O398 1.320 . S
C401 O399 1.214 . S
O402 Cd394 2.277 . S
O402 C397 1.209 . S
C403 O400 1.258 . S
C403 O405 1.282 . S
O404 Cd396 2.274 . S
O404 C397 1.226 . S
O405 Cd396 2.357 1_455 S
O405 C403 1.282 . S
C406 O407 1.306 . S
C406 O409 1.160 . S
O407 C406 1.306 . S
O407 Cd408 2.228 . S
Cd408 O407 2.228 . S
Cd408 O412 2.273 . S
Cd408 O416 2.277 . S
O409 C406 1.160 . S
O409 Cd410 2.203 . S
Cd410 O409 2.203 . S
Cd410 O412 2.411 . S
Cd410 O413 2.333 . S
Cd410 O414 2.352 . S
Cd410 O418 2.277 . S
Cd410 O419 2.356 . S
C411 O416 1.209 . S
C411 O418 1.226 . S
O412 Cd408 2.273 . S
O412 Cd410 2.411 . S
O412 C415 1.320 . S
O413 Cd410 2.333 . S
O413 C415 1.214 . S
O414 Cd410 2.352 . S
O414 C417 1.258 . S
C415 O412 1.320 . S
C415 O413 1.214 . S
O416 Cd408 2.277 . S
O416 C411 1.209 . S
C417 O414 1.258 . S
C417 O419 1.282 . S
O418 Cd410 2.277 . S
O418 C411 1.226 . S
O419 Cd410 2.356 . S
O419 C417 1.282 . S
C420 O421 1.306 . S
C420 O423 1.160 . S
O421 C420 1.306 . S
O421 Cd422 2.228 . S
Cd422 O421 2.228 . S
Cd422 O426 2.273 . S
Cd422 O430 2.277 . S
O423 C420 1.160 . S
O423 Cd424 2.203 . S
Cd424 O423 2.203 . S
Cd424 O426 2.411 . S
Cd424 O427 2.333 . S
Cd424 O428 2.352 . S
Cd424 O432 2.277 . S
Cd424 O433 2.356 . S
C425 O430 1.209 . S
C425 O432 1.226 . S
O426 Cd422 2.273 . S
O426 Cd424 2.411 . S
O426 C429 1.320 . S
O427 Cd424 2.333 . S
O427 C429 1.214 . S
O428 Cd424 2.352 . S
O428 C431 1.258 . S
C429 O426 1.320 . S
C429 O427 1.214 . S
O430 Cd422 2.277 . S
O430 C425 1.209 . S
C431 O428 1.258 . S
C431 O433 1.282 . S
O432 Cd424 2.277 . S
O432 C425 1.226 . S
O433 Cd424 2.356 . S
O433 C431 1.282 . S
C434 O435 1.306 . S
C434 O437 1.160 . S
O435 C434 1.306 . S
O435 Cd436 2.228 . S
Cd436 O435 2.228 . S
Cd436 O440 2.273 . S
Cd436 O444 2.277 . S
O437 C434 1.160 . S
O437 Cd438 2.203 . S
Cd438 O437 2.203 . S
Cd438 O440 2.411 . S
Cd438 O441 2.333 . S
Cd438 O442 2.352 . S
Cd438 O446 2.277 . S
Cd438 O447 2.356 . S
C439 O444 1.209 . S
C439 O446 1.226 . S
O440 Cd436 2.273 . S
O440 Cd438 2.411 . S
O440 C443 1.320 . S
O441 Cd438 2.333 . S
O441 C443 1.214 . S
O442 Cd438 2.352 . S
O442 C445 1.258 . S
C443 O440 1.320 . S
C443 O441 1.214 . S
O444 Cd436 2.277 . S
O444 C439 1.209 . S
C445 O442 1.258 . S
C445 O447 1.282 . S
O446 Cd438 2.277 . S
O446 C439 1.226 . S
O447 Cd438 2.356 . S
O447 C445 1.282 . S
C448 O449 1.306 . S
C448 O451 1.160 . S
O449 C448 1.306 . S
O449 Cd450 2.228 . S
Cd450 O449 2.228 . S
Cd450 O454 2.273 1_565 S
Cd450 O458 2.277 . S
O451 C448 1.160 . S
O451 Cd452 2.248 . S
Cd452 O451 2.248 . S
Cd452 O454 2.377 1_565 S
Cd452 O455 2.283 1_565 S
Cd452 O456 2.310 1_565 S
Cd452 O460 2.324 . S
Cd452 O461 2.338 1_565 S
C453 O458 1.209 . S
C453 O460 1.226 . S
O454 Cd450 2.273 1_545 S
O454 Cd452 2.377 1_545 S
O454 C457 1.320 . S
O455 Cd452 2.283 1_545 S
O455 C457 1.214 . S
O456 Cd452 2.310 1_545 S
O456 C459 1.258 . S
C457 O454 1.320 . S
C457 O455 1.214 . S
O458 Cd450 2.277 . S
O458 C453 1.209 . S
C459 O456 1.258 . S
C459 O461 1.282 . S
O460 Cd452 2.324 . S
O460 C453 1.226 . S
O461 Cd452 2.338 1_545 S
O461 C459 1.282 . S
C462 O463 1.306 . S
C462 O465 1.160 . S
O463 C462 1.306 . S
O463 Cd464 2.228 . S
Cd464 O463 2.228 . S
Cd464 O468 2.273 . S
Cd464 O472 2.277 . S
O465 C462 1.160 . S
O465 Cd466 2.203 . S
Cd466 O465 2.203 . S
Cd466 O468 2.411 . S
Cd466 O469 2.333 . S
Cd466 O470 2.352 . S
Cd466 O474 2.277 . S
Cd466 O475 2.356 . S
C467 O472 1.209 . S
C467 O474 1.226 . S
O468 Cd464 2.273 . S
O468 Cd466 2.411 . S
O468 C471 1.320 . S
O469 Cd466 2.333 . S
O469 C471 1.214 . S
O470 Cd466 2.352 . S
O470 C473 1.258 . S
C471 O468 1.320 . S
C471 O469 1.214 . S
O472 Cd464 2.277 . S
O472 C467 1.209 . S
C473 O470 1.258 . S
C473 O475 1.282 . S
O474 Cd466 2.277 . S
O474 C467 1.226 . S
O475 Cd466 2.356 . S
O475 C473 1.282 . S
C476 O477 1.306 . S
C476 O479 1.160 . S
O477 C476 1.306 . S
O477 Cd478 2.228 . S
Cd478 O477 2.228 . S
Cd478 O482 2.273 1_545 S
Cd478 O486 2.277 . S
O479 C476 1.160 . S
O479 Cd480 2.241 . S
Cd480 O479 2.241 . S
Cd480 O482 2.382 1_545 S
Cd480 O483 2.290 1_545 S
Cd480 O484 2.316 1_545 S
Cd480 O488 2.317 . S
Cd480 O489 2.341 1_545 S
C481 O486 1.209 . S
C481 O488 1.226 . S
O482 Cd478 2.273 1_565 S
O482 Cd480 2.382 1_565 S
O482 C485 1.320 . S
O483 Cd480 2.290 1_565 S
O483 C485 1.214 . S
O484 Cd480 2.316 1_565 S
O484 C487 1.258 . S
C485 O482 1.320 . S
C485 O483 1.214 . S
O486 Cd478 2.277 . S
O486 C481 1.209 . S
C487 O484 1.258 . S
C487 O489 1.282 . S
O488 Cd480 2.317 . S
O488 C481 1.226 . S
O489 Cd480 2.341 1_565 S
O489 C487 1.282 . S
C490 O491 1.306 . S
C490 O493 1.160 . S
O491 C490 1.306 . S
O491 Cd492 2.228 . S
Cd492 O491 2.228 . S
Cd492 O496 2.273 . S
Cd492 O500 2.277 . S
O493 C490 1.160 . S
O493 Cd494 2.203 . S
Cd494 O493 2.203 . S
Cd494 O496 2.411 . S
Cd494 O497 2.333 . S
Cd494 O498 2.352 . S
Cd494 O502 2.277 . S
Cd494 O503 2.356 . S
C495 O500 1.209 . S
C495 O502 1.226 . S
O496 Cd492 2.273 . S
O496 Cd494 2.411 . S
O496 C499 1.320 . S
O497 Cd494 2.333 . S
O497 C499 1.214 . S
O498 Cd494 2.352 . S
O498 C501 1.258 . S
C499 O496 1.320 . S
C499 O497 1.214 . S
O500 Cd492 2.277 . S
O500 C495 1.209 . S
C501 O498 1.258 . S
C501 O503 1.282 . S
O502 Cd494 2.277 . S
O502 C495 1.226 . S
O503 Cd494 2.356 . S
O503 C501 1.282 . S
C504 O505 1.306 . S
C504 O507 1.160 . S
O505 C504 1.306 . S
O505 Cd506 2.228 . S
Cd506 O505 2.228 . S
Cd506 O510 2.273 1_545 S
Cd506 O514 2.277 . S
O507 C504 1.160 . S
O507 Cd508 2.243 . S
Cd508 O507 2.243 . S
Cd508 O510 2.380 1_545 S
Cd508 O511 2.287 1_545 S
Cd508 O512 2.314 1_545 S
Cd508 O516 2.320 . S
Cd508 O517 2.340 1_545 S
C509 O514 1.209 . S
C509 O516 1.226 . S
O510 Cd506 2.273 1_565 S
O510 Cd508 2.380 1_565 S
O510 C513 1.320 . S
O511 Cd508 2.287 1_565 S
O511 C513 1.214 . S
O512 Cd508 2.314 1_565 S
O512 C515 1.258 . S
C513 O510 1.320 . S
C513 O511 1.214 . S
O514 Cd506 2.277 . S
O514 C509 1.209 . S
C515 O512 1.258 . S
C515 O517 1.282 . S
O516 Cd508 2.320 . S
O516 C509 1.226 . S
O517 Cd508 2.340 1_565 S
O517 C515 1.282 . S
C518 O519 1.306 . S
C518 O521 1.160 . S
O519 C518 1.306 . S
O519 Cd520 2.228 . S
Cd520 O519 2.228 . S
Cd520 O524 2.273 . S
Cd520 O528 2.277 . S
O521 C518 1.160 . S
O521 Cd522 2.203 . S
Cd522 O521 2.203 . S
Cd522 O524 2.411 . S
Cd522 O525 2.333 . S
Cd522 O526 2.352 . S
Cd522 O530 2.277 . S
Cd522 O531 2.356 . S
C523 O528 1.209 . S
C523 O530 1.226 . S
O524 Cd520 2.273 . S
O524 Cd522 2.411 . S
O524 C527 1.320 . S
O525 Cd522 2.333 . S
O525 C527 1.214 . S
O526 Cd522 2.352 . S
O526 C529 1.258 . S
C527 O524 1.320 . S
C527 O525 1.214 . S
O528 Cd520 2.277 . S
O528 C523 1.209 . S
C529 O526 1.258 . S
C529 O531 1.282 . S
O530 Cd522 2.277 . S
O530 C523 1.226 . S
O531 Cd522 2.356 . S
O531 C529 1.282 . S
C532 O533 1.306 . S
C532 O535 1.160 . S
O533 C532 1.306 . S
O533 Cd534 2.228 . S
Cd534 O533 2.228 . S
Cd534 O538 2.273 1_565 S
Cd534 O542 2.277 . S
O535 C532 1.160 . S
O535 Cd536 2.245 . S
Cd536 O535 2.245 . S
Cd536 O538 2.379 1_565 S
Cd536 O539 2.285 1_565 S
Cd536 O540 2.312 1_565 S
Cd536 O544 2.322 . S
Cd536 O545 2.339 1_565 S
C537 O542 1.209 . S
C537 O544 1.226 . S
O538 Cd534 2.273 1_545 S
O538 Cd536 2.379 1_545 S
O538 C541 1.320 . S
O539 Cd536 2.285 1_545 S
O539 C541 1.214 . S
O540 Cd536 2.312 1_545 S
O540 C543 1.258 . S
C541 O538 1.320 . S
C541 O539 1.214 . S
O542 Cd534 2.277 . S
O542 C537 1.209 . S
C543 O540 1.258 . S
C543 O545 1.282 . S
O544 Cd536 2.322 . S
O544 C537 1.226 . S
O545 Cd536 2.339 1_545 S
O545 C543 1.282 . S
C546 O547 1.306 . S
C546 O549 1.160 . S
O547 C546 1.306 . S
O547 Cd548 2.228 . S
Cd548 O547 2.228 . S
Cd548 O552 2.273 . S
Cd548 O556 2.277 . S
O549 C546 1.160 . S
O549 Cd550 2.203 . S
Cd550 O549 2.203 . S
Cd550 O552 2.411 . S
Cd550 O553 2.333 . S
Cd550 O554 2.352 . S
Cd550 O558 2.277 . S
Cd550 O559 2.356 . S
C551 O556 1.209 . S
C551 O558 1.226 . S
O552 Cd548 2.273 . S
O552 Cd550 2.411 . S
O552 C555 1.320 . S
O553 Cd550 2.333 . S
O553 C555 1.214 . S
O554 Cd550 2.352 . S
O554 C557 1.258 . S
C555 O552 1.320 . S
C555 O553 1.214 . S
O556 Cd548 2.277 . S
O556 C551 1.209 . S
C557 O554 1.258 . S
C557 O559 1.282 . S
O558 Cd550 2.277 . S
O558 C551 1.226 . S
O559 Cd550 2.356 . S
O559 C557 1.282 . S
C560 O561 1.306 . S
C560 O563 1.160 . S
O561 C560 1.306 . S
O561 Cd562 2.228 . S
Cd562 O561 2.228 . S
Cd562 O566 2.273 1_556 S
Cd562 O570 2.277 . S
O563 C560 1.160 . S
O563 Cd564 2.190 1_556 S
Cd564 O563 2.190 1_554 S
Cd564 O566 2.422 . S
Cd564 O567 2.348 . S
Cd564 O568 2.364 . S
Cd564 O572 2.262 1_554 S
Cd564 O573 2.362 . S
C565 O570 1.209 . S
C565 O572 1.226 . S
O566 Cd562 2.273 1_554 S
O566 Cd564 2.422 . S
O566 C569 1.320 . S
O567 Cd564 2.348 . S
O567 C569 1.214 . S
O568 Cd564 2.364 . S
O568 C571 1.258 . S
C569 O566 1.320 . S
C569 O567 1.214 . S
O570 Cd562 2.277 . S
O570 C565 1.209 . S
C571 O568 1.258 . S
C571 O573 1.282 . S
O572 Cd564 2.262 1_556 S
O572 C565 1.226 . S
O573 Cd564 2.362 . S
O573 C571 1.282 . S
C574 O575 1.306 . S
C574 O577 1.160 . S
O575 C574 1.306 . S
O575 Cd576 2.228 . S
Cd576 O575 2.228 . S
Cd576 O580 2.273 1_554 S
Cd576 O584 2.277 . S
O577 C574 1.160 . S
O577 Cd578 2.212 . S
Cd578 O577 2.212 . S
Cd578 O580 2.404 1_554 S
Cd578 O581 2.323 1_554 S
Cd578 O582 2.343 1_554 S
Cd578 O586 2.286 . S
Cd578 O587 2.353 1_554 S
C579 O584 1.209 . S
C579 O586 1.226 . S
O580 Cd576 2.273 1_556 S
O580 Cd578 2.404 1_556 S
O580 C583 1.320 . S
O581 Cd578 2.323 1_556 S
O581 C583 1.214 . S
O582 Cd578 2.343 1_556 S
O582 C585 1.258 . S
C583 O580 1.320 . S
C583 O581 1.214 . S
O584 Cd576 2.277 . S
O584 C579 1.209 . S
C585 O582 1.258 . S
C585 O587 1.282 . S
O586 Cd578 2.286 . S
O586 C579 1.226 . S
O587 Cd578 2.353 1_556 S
O587 C585 1.282 . S
C588 O589 1.306 . S
C588 O591 1.160 . S
O589 C588 1.306 . S
O589 Cd590 2.228 . S
Cd590 O589 2.228 . S
Cd590 O594 2.273 . S
Cd590 O598 2.277 . S
O591 C588 1.160 . S
O591 Cd592 2.203 . S
Cd592 O591 2.203 . S
Cd592 O594 2.411 . S
Cd592 O595 2.333 . S
Cd592 O596 2.352 . S
Cd592 O600 2.277 . S
Cd592 O601 2.356 . S
C593 O598 1.209 . S
C593 O600 1.226 . S
O594 Cd590 2.273 . S
O594 Cd592 2.411 . S
O594 C597 1.320 . S
O595 Cd592 2.333 . S
O595 C597 1.214 . S
O596 Cd592 2.352 . S
O596 C599 1.258 . S
C597 O594 1.320 . S
C597 O595 1.214 . S
O598 Cd590 2.277 . S
O598 C593 1.209 . S
C599 O596 1.258 . S
C599 O601 1.282 . S
O600 Cd592 2.277 . S
O600 C593 1.226 . S
O601 Cd592 2.356 . S
O601 C599 1.282 . S
C602 O603 1.306 . S
C602 O605 1.160 . S
O603 C602 1.306 . S
O603 Cd604 2.228 . S
Cd604 O603 2.228 . S
Cd604 O608 2.273 . S
Cd604 O612 2.277 . S
O605 C602 1.160 . S
O605 Cd606 2.203 . S
Cd606 O605 2.203 . S
Cd606 O608 2.411 . S
Cd606 O609 2.333 . S
Cd606 O610 2.352 . S
Cd606 O614 2.277 . S
Cd606 O615 2.356 . S
C607 O612 1.209 . S
C607 O614 1.226 . S
O608 Cd604 2.273 . S
O608 Cd606 2.411 . S
O608 C611 1.320 . S
O609 Cd606 2.333 . S
O609 C611 1.214 . S
O610 Cd606 2.352 . S
O610 C613 1.258 . S
C611 O608 1.320 . S
C611 O609 1.214 . S
O612 Cd604 2.277 . S
O612 C607 1.209 . S
C613 O610 1.258 . S
C613 O615 1.282 . S
O614 Cd606 2.277 . S
O614 C607 1.226 . S
O615 Cd606 2.356 . S
O615 C613 1.282 . S
C616 O617 1.306 . S
C616 O619 1.160 . S
O617 C616 1.306 . S
O617 Cd618 2.228 . S
Cd618 O617 2.228 . S
Cd618 O622 2.273 . S
Cd618 O626 2.277 . S
O619 C616 1.160 . S
O619 Cd620 2.203 . S
Cd620 O619 2.203 . S
Cd620 O622 2.411 . S
Cd620 O623 2.333 . S
Cd620 O624 2.352 . S
Cd620 O628 2.277 . S
Cd620 O629 2.356 . S
C621 O626 1.209 . S
C621 O628 1.226 . S
O622 Cd618 2.273 . S
O622 Cd620 2.411 . S
O622 C625 1.320 . S
O623 Cd620 2.333 . S
O623 C625 1.214 . S
O624 Cd620 2.352 . S
O624 C627 1.258 . S
C625 O622 1.320 . S
C625 O623 1.214 . S
O626 Cd618 2.277 . S
O626 C621 1.209 . S
C627 O624 1.258 . S
C627 O629 1.282 . S
O628 Cd620 2.277 . S
O628 C621 1.226 . S
O629 Cd620 2.356 . S
O629 C627 1.282 . S
C630 O631 1.306 . S
C630 O633 1.160 . S
O631 C630 1.306 . S
O631 Cd632 2.228 . S
Cd632 O631 2.228 . S
Cd632 O636 2.273 . S
Cd632 O640 2.277 . S
O633 C630 1.160 . S
O633 Cd634 2.203 . S
Cd634 O633 2.203 . S
Cd634 O636 2.411 . S
Cd634 O637 2.333 . S
Cd634 O638 2.352 . S
Cd634 O642 2.277 . S
Cd634 O643 2.356 . S
C635 O640 1.209 . S
C635 O642 1.226 . S
O636 Cd632 2.273 . S
O636 Cd634 2.411 . S
O636 C639 1.320 . S
O637 Cd634 2.333 . S
O637 C639 1.214 . S
O638 Cd634 2.352 . S
O638 C641 1.258 . S
C639 O636 1.320 . S
C639 O637 1.214 . S
O640 Cd632 2.277 . S
O640 C635 1.209 . S
C641 O638 1.258 . S
C641 O643 1.282 . S
O642 Cd634 2.277 . S
O642 C635 1.226 . S
O643 Cd634 2.356 . S
O643 C641 1.282 . S
C644 O645 1.306 . S
C644 O647 1.160 . S
O645 C644 1.306 . S
O645 Cd646 2.228 . S
Cd646 O645 2.228 . S
Cd646 O650 2.273 . S
Cd646 O654 2.277 . S
O647 C644 1.160 . S
O647 Cd648 2.203 . S
Cd648 O647 2.203 . S
Cd648 O650 2.411 . S
Cd648 O651 2.333 . S
Cd648 O652 2.352 . S
Cd648 O656 2.277 . S
Cd648 O657 2.356 . S
C649 O654 1.209 . S
C649 O656 1.226 . S
O650 Cd646 2.273 . S
O650 Cd648 2.411 . S
O650 C653 1.320 . S
O651 Cd648 2.333 . S
O651 C653 1.214 . S
O652 Cd648 2.352 . S
O652 C655 1.258 . S
C653 O650 1.320 . S
C653 O651 1.214 . S
O654 Cd646 2.277 . S
O654 C649 1.209 . S
C655 O652 1.258 . S
C655 O657 1.282 . S
O656 Cd648 2.277 . S
O656 C649 1.226 . S
O657 Cd648 2.356 . S
O657 C655 1.282 . S
C658 O659 1.306 . S
C658 O661 1.160 . S
O659 C658 1.306 . S
O659 Cd660 2.228 . S
Cd660 O659 2.228 . S
Cd660 O664 2.273 . S
Cd660 O668 2.277 . S
O661 C658 1.160 . S
O661 Cd662 2.203 . S
Cd662 O661 2.203 . S
Cd662 O664 2.411 . S
Cd662 O665 2.333 . S
Cd662 O666 2.352 . S
Cd662 O670 2.277 . S
Cd662 O671 2.356 . S
C663 O668 1.209 . S
C663 O670 1.226 . S
O664 Cd660 2.273 . S
O664 Cd662 2.411 . S
O664 C667 1.320 . S
O665 Cd662 2.333 . S
O665 C667 1.214 . S
O666 Cd662 2.352 . S
O666 C669 1.258 . S
C667 O664 1.320 . S
C667 O665 1.214 . S
O668 Cd660 2.277 . S
O668 C663 1.209 . S
C669 O666 1.258 . S
C669 O671 1.282 . S
O670 Cd662 2.277 . S
O670 C663 1.226 . S
O671 Cd662 2.356 . S
O671 C669 1.282 . S
C672 O673 1.306 . S
C672 O675 1.160 . S
O673 C672 1.306 . S
O673 Cd674 2.228 . S
Cd674 O673 2.228 . S
Cd674 O678 2.273 . S
Cd674 O682 2.277 . S
O675 C672 1.160 . S
O675 Cd676 2.203 . S
Cd676 O675 2.203 . S
Cd676 O678 2.411 . S
Cd676 O679 2.333 . S
Cd676 O680 2.352 . S
Cd676 O684 2.277 . S
Cd676 O685 2.356 . S
C677 O682 1.209 . S
C677 O684 1.226 . S
O678 Cd674 2.273 . S
O678 Cd676 2.411 . S
O678 C681 1.320 . S
O679 Cd676 2.333 . S
O679 C681 1.214 . S
O680 Cd676 2.352 . S
O680 C683 1.258 . S
C681 O678 1.320 . S
C681 O679 1.214 . S
O682 Cd674 2.277 . S
O682 C677 1.209 . S
C683 O680 1.258 . S
C683 O685 1.282 . S
O684 Cd676 2.277 . S
O684 C677 1.226 . S
O685 Cd676 2.356 . S
O685 C683 1.282 . S
C686 O687 1.306 . S
C686 O689 1.160 . S
O687 C686 1.306 . S
O687 Cd688 2.228 . S
Cd688 O687 2.228 . S
Cd688 O692 2.273 . S
Cd688 O696 2.277 . S
O689 C686 1.160 . S
O689 Cd690 2.203 . S
Cd690 O689 2.203 . S
Cd690 O692 2.411 . S
Cd690 O693 2.333 . S
Cd690 O694 2.352 . S
Cd690 O698 2.277 . S
Cd690 O699 2.356 . S
C691 O696 1.209 . S
C691 O698 1.226 . S
O692 Cd688 2.273 . S
O692 Cd690 2.411 . S
O692 C695 1.320 . S
O693 Cd690 2.333 . S
O693 C695 1.214 . S
O694 Cd690 2.352 . S
O694 C697 1.258 . S
C695 O692 1.320 . S
C695 O693 1.214 . S
O696 Cd688 2.277 . S
O696 C691 1.209 . S
C697 O694 1.258 . S
C697 O699 1.282 . S
O698 Cd690 2.277 . S
O698 C691 1.226 . S
O699 Cd690 2.356 . S
O699 C697 1.282 . S
C700 O701 1.306 . S
C700 O703 1.160 . S
O701 C700 1.306 . S
O701 Cd702 2.228 . S
Cd702 O701 2.228 . S
Cd702 O706 2.273 1_655 S
Cd702 O710 2.277 . S
O703 C700 1.160 . S
O703 Cd704 2.177 1_655 S
Cd704 O703 2.177 1_455 S
Cd704 O706 2.433 . S
Cd704 O707 2.364 . S
Cd704 O708 2.378 . S
Cd704 O712 2.248 1_455 S
Cd704 O713 2.367 . S
C705 O710 1.209 . S
C705 O712 1.226 . S
O706 Cd702 2.273 1_455 S
O706 Cd704 2.433 . S
O706 C709 1.320 . S
O707 Cd704 2.364 . S
O707 C709 1.214 . S
O708 Cd704 2.378 . S
O708 C711 1.258 . S
C709 O706 1.320 . S
C709 O707 1.214 . S
O710 Cd702 2.277 . S
O710 C705 1.209 . S
C711 O708 1.258 . S
C711 O713 1.282 . S
O712 Cd704 2.248 1_655 S
O712 C705 1.226 . S
O713 Cd704 2.367 . S
O713 C711 1.282 . S
C714 O715 1.306 . S
C714 O717 1.160 . S
O715 C714 1.306 . S
O715 Cd716 2.228 . S
Cd716 O715 2.228 . S
Cd716 O720 2.273 . S
Cd716 O724 2.277 . S
O717 C714 1.160 . S
O717 Cd718 2.203 . S
Cd718 O717 2.203 . S
Cd718 O720 2.411 . S
Cd718 O721 2.333 . S
Cd718 O722 2.352 . S
Cd718 O726 2.277 . S
Cd718 O727 2.356 . S
C719 O724 1.209 . S
C719 O726 1.226 . S
O720 Cd716 2.273 . S
O720 Cd718 2.411 . S
O720 C723 1.320 . S
O721 Cd718 2.333 . S
O721 C723 1.214 . S
O722 Cd718 2.352 . S
O722 C725 1.258 . S
C723 O720 1.320 . S
C723 O721 1.214 . S
O724 Cd716 2.277 . S
O724 C719 1.209 . S
C725 O722 1.258 . S
C725 O727 1.282 . S
O726 Cd718 2.277 . S
O726 C719 1.226 . S
O727 Cd718 2.356 . S
O727 C725 1.282 . S
C728 O729 1.306 . S
C728 O731 1.160 . S
O729 C728 1.306 . S
O729 Cd730 2.228 . S
Cd730 O729 2.228 . S
Cd730 O734 2.273 . S
Cd730 O738 2.277 . S
O731 C728 1.160 . S
O731 Cd732 2.203 . S
Cd732 O731 2.203 . S
Cd732 O734 2.411 . S
Cd732 O735 2.333 . S
Cd732 O736 2.352 . S
Cd732 O740 2.277 . S
Cd732 O741 2.356 . S
C733 O738 1.209 . S
C733 O740 1.226 . S
O734 Cd730 2.273 . S
O734 Cd732 2.411 . S
O734 C737 1.320 . S
O735 Cd732 2.333 . S
O735 C737 1.214 . S
O736 Cd732 2.352 . S
O736 C739 1.258 . S
C737 O734 1.320 . S
C737 O735 1.214 . S
O738 Cd730 2.277 . S
O738 C733 1.209 . S
C739 O736 1.258 . S
C739 O741 1.282 . S
O740 Cd732 2.277 . S
O740 C733 1.226 . S
O741 Cd732 2.356 . S
O741 C739 1.282 . S
C742 O743 1.306 . S
C742 O745 1.160 . S
O743 C742 1.306 . S
O743 Cd744 2.228 . S
Cd744 O743 2.228 . S
Cd744 O748 2.273 . S
Cd744 O752 2.277 . S
O745 C742 1.160 . S
O745 Cd746 2.203 . S
Cd746 O745 2.203 . S
Cd746 O748 2.411 . S
Cd746 O749 2.333 . S
Cd746 O750 2.352 . S
Cd746 O754 2.277 . S
Cd746 O755 2.356 . S
C747 O752 1.209 . S
C747 O754 1.226 . S
O748 Cd744 2.273 . S
O748 Cd746 2.411 . S
O748 C751 1.320 . S
O749 Cd746 2.333 . S
O749 C751 1.214 . S
O750 Cd746 2.352 . S
O750 C753 1.258 . S
C751 O748 1.320 . S
C751 O749 1.214 . S
O752 Cd744 2.277 . S
O752 C747 1.209 . S
C753 O750 1.258 . S
C753 O755 1.282 . S
O754 Cd746 2.277 . S
O754 C747 1.226 . S
O755 Cd746 2.356 . S
O755 C753 1.282 . S
C756 O757 1.306 . S
C756 O759 1.160 . S
O757 C756 1.306 . S
O757 Cd758 2.228 . S
Cd758 O757 2.228 . S
Cd758 O762 2.273 1_655 S
Cd758 O766 2.277 . S
O759 C756 1.160 . S
O759 Cd760 2.177 1_655 S
Cd760 O759 2.177 1_455 S
Cd760 O762 2.433 . S
Cd760 O763 2.364 . S
Cd760 O764 2.378 . S
Cd760 O768 2.248 1_455 S
Cd760 O769 2.367 . S
C761 O766 1.209 . S
C761 O768 1.226 . S
O762 Cd758 2.273 1_455 S
O762 Cd760 2.433 . S
O762 C765 1.320 . S
O763 Cd760 2.364 . S
O763 C765 1.214 . S
O764 Cd760 2.378 . S
O764 C767 1.258 . S
C765 O762 1.320 . S
C765 O763 1.214 . S
O766 Cd758 2.277 . S
O766 C761 1.209 . S
C767 O764 1.258 . S
C767 O769 1.282 . S
O768 Cd760 2.248 1_655 S
O768 C761 1.226 . S
O769 Cd760 2.367 . S
O769 C767 1.282 . S
C770 O771 1.306 . S
C770 O773 1.160 . S
O771 C770 1.306 . S
O771 Cd772 2.228 . S
Cd772 O771 2.228 . S
Cd772 O776 2.273 . S
Cd772 O780 2.277 . S
O773 C770 1.160 . S
O773 Cd774 2.203 . S
Cd774 O773 2.203 . S
Cd774 O776 2.411 . S
Cd774 O777 2.333 . S
Cd774 O778 2.352 . S
Cd774 O782 2.277 . S
Cd774 O783 2.356 . S
C775 O780 1.209 . S
C775 O782 1.226 . S
O776 Cd772 2.273 . S
O776 Cd774 2.411 . S
O776 C779 1.320 . S
O777 Cd774 2.333 . S
O777 C779 1.214 . S
O778 Cd774 2.352 . S
O778 C781 1.258 . S
C779 O776 1.320 . S
C779 O777 1.214 . S
O780 Cd772 2.277 . S
O780 C775 1.209 . S
C781 O778 1.258 . S
C781 O783 1.282 . S
O782 Cd774 2.277 . S
O782 C775 1.226 . S
O783 Cd774 2.356 . S
O783 C781 1.282 . S
C784 O785 1.306 . S
C784 O787 1.160 . S
O785 C784 1.306 . S
O785 Cd786 2.228 . S
Cd786 O785 2.228 . S
Cd786 O790 2.273 . S
Cd786 O794 2.277 . S
O787 C784 1.160 . S
O787 Cd788 2.203 . S
Cd788 O787 2.203 . S
Cd788 O790 2.411 . S
Cd788 O791 2.333 . S
Cd788 O792 2.352 . S
Cd788 O796 2.277 . S
Cd788 O797 2.356 . S
C789 O794 1.209 . S
C789 O796 1.226 . S
O790 Cd786 2.273 . S
O790 Cd788 2.411 . S
O790 C793 1.320 . S
O791 Cd788 2.333 . S
O791 C793 1.214 . S
O792 Cd788 2.352 . S
O792 C795 1.258 . S
C793 O790 1.320 . S
C793 O791 1.214 . S
O794 Cd786 2.277 . S
O794 C789 1.209 . S
C795 O792 1.258 . S
C795 O797 1.282 . S
O796 Cd788 2.277 . S
O796 C789 1.226 . S
O797 Cd788 2.356 . S
O797 C795 1.282 . S
C798 O799 1.306 . S
C798 O801 1.160 . S
O799 C798 1.306 . S
O799 Cd800 2.228 . S
Cd800 O799 2.228 . S
Cd800 O804 2.273 . S
Cd800 O808 2.277 . S
O801 C798 1.160 . S
O801 Cd802 2.203 . S
Cd802 O801 2.203 . S
Cd802 O804 2.411 . S
Cd802 O805 2.333 . S
Cd802 O806 2.352 . S
Cd802 O810 2.277 . S
Cd802 O811 2.356 . S
C803 O808 1.209 . S
C803 O810 1.226 . S
O804 Cd800 2.273 . S
O804 Cd802 2.411 . S
O804 C807 1.320 . S
O805 Cd802 2.333 . S
O805 C807 1.214 . S
O806 Cd802 2.352 . S
O806 C809 1.258 . S
C807 O804 1.320 . S
C807 O805 1.214 . S
O808 Cd800 2.277 . S
O808 C803 1.209 . S
C809 O806 1.258 . S
C809 O811 1.282 . S
O810 Cd802 2.277 . S
O810 C803 1.226 . S
O811 Cd802 2.356 . S
O811 C809 1.282 . S
C812 O813 1.306 . S
C812 O815 1.160 . S
O813 C812 1.306 . S
O813 Cd814 2.228 . S
Cd814 O813 2.228 . S
Cd814 O818 2.273 . S
Cd814 O822 2.277 . S
O815 C812 1.160 . S
O815 Cd816 2.203 . S
Cd816 O815 2.203 . S
Cd816 O818 2.411 . S
Cd816 O819 2.333 . S
Cd816 O820 2.352 . S
Cd816 O824 2.277 . S
Cd816 O825 2.356 . S
C817 O822 1.209 . S
C817 O824 1.226 . S
O818 Cd814 2.273 . S
O818 Cd816 2.411 . S
O818 C821 1.320 . S
O819 Cd816 2.333 . S
O819 C821 1.214 . S
O820 Cd816 2.352 . S
O820 C823 1.258 . S
C821 O818 1.320 . S
C821 O819 1.214 . S
O822 Cd814 2.277 . S
O822 C817 1.209 . S
C823 O820 1.258 . S
C823 O825 1.282 . S
O824 Cd816 2.277 . S
O824 C817 1.226 . S
O825 Cd816 2.356 . S
O825 C823 1.282 . S
C826 O827 1.306 . S
C826 O829 1.160 . S
O827 C826 1.306 . S
O827 Cd828 2.228 . S
Cd828 O827 2.228 . S
Cd828 O832 2.273 . S
Cd828 O836 2.277 . S
O829 C826 1.160 . S
O829 Cd830 2.203 . S
Cd830 O829 2.203 . S
Cd830 O832 2.411 . S
Cd830 O833 2.333 . S
Cd830 O834 2.352 . S
Cd830 O838 2.277 . S
Cd830 O839 2.356 . S
C831 O836 1.209 . S
C831 O838 1.226 . S
O832 Cd828 2.273 . S
O832 Cd830 2.411 . S
O832 C835 1.320 . S
O833 Cd830 2.333 . S
O833 C835 1.214 . S
O834 Cd830 2.352 . S
O834 C837 1.258 . S
C835 O832 1.320 . S
C835 O833 1.214 . S
O836 Cd828 2.277 . S
O836 C831 1.209 . S
C837 O834 1.258 . S
C837 O839 1.282 . S
O838 Cd830 2.277 . S
O838 C831 1.226 . S
O839 Cd830 2.356 . S
O839 C837 1.282 . S
C840 O841 1.306 . S
C840 O843 1.160 . S
O841 C840 1.306 . S
O841 Cd842 2.228 . S
Cd842 O841 2.228 . S
Cd842 O846 2.273 . S
Cd842 O850 2.277 . S
O843 C840 1.160 . S
O843 Cd844 2.203 . S
Cd844 O843 2.203 . S
Cd844 O846 2.411 . S
Cd844 O847 2.333 . S
Cd844 O848 2.352 . S
Cd844 O852 2.277 . S
Cd844 O853 2.356 . S
C845 O850 1.209 . S
C845 O852 1.226 . S
O846 Cd842 2.273 . S
O846 Cd844 2.411 . S
O846 C849 1.320 . S
O847 Cd844 2.333 . S
O847 C849 1.214 . S
O848 Cd844 2.352 . S
O848 C851 1.258 . S
C849 O846 1.320 . S
C849 O847 1.214 . S
O850 Cd842 2.277 . S
O850 C845 1.209 . S
C851 O848 1.258 . S
C851 O853 1.282 . S
O852 Cd844 2.277 . S
O852 C845 1.226 . S
O853 Cd844 2.356 . S
O853 C851 1.282 . S
C854 O855 1.306 . S
C854 O857 1.160 . S
O855 C854 1.306 . S
O855 Cd856 2.228 . S
Cd856 O855 2.228 . S
Cd856 O860 2.273 . S
Cd856 O864 2.277 . S
O857 C854 1.160 . S
O857 Cd858 2.203 . S
Cd858 O857 2.203 . S
Cd858 O860 2.411 . S
Cd858 O861 2.333 . S
Cd858 O862 2.352 . S
Cd858 O866 2.277 . S
Cd858 O867 2.356 . S
C859 O864 1.209 . S
C859 O866 1.226 . S
O860 Cd856 2.273 . S
O860 Cd858 2.411 . S
O860 C863 1.320 . S
O861 Cd858 2.333 . S
O861 C863 1.214 . S
O862 Cd858 2.352 . S
O862 C865 1.258 . S
C863 O860 1.320 . S
C863 O861 1.214 . S
O864 Cd856 2.277 . S
O864 C859 1.209 . S
C865 O862 1.258 . S
C865 O867 1.282 . S
O866 Cd858 2.277 . S
O866 C859 1.226 . S
O867 Cd858 2.356 . S
O867 C865 1.282 . S
C868 O869 1.306 . S
C868 O871 1.160 . S
O869 C868 1.306 . S
O869 Cd870 2.228 . S
Cd870 O869 2.228 . S
Cd870 O874 2.273 . S
Cd870 O878 2.277 . S
O871 C868 1.160 . S
O871 Cd872 2.203 . S
Cd872 O871 2.203 . S
Cd872 O874 2.411 . S
Cd872 O875 2.333 . S
Cd872 O876 2.352 . S
Cd872 O880 2.277 . S
Cd872 O881 2.356 . S
C873 O878 1.209 . S
C873 O880 1.226 . S
O874 Cd870 2.273 . S
O874 Cd872 2.411 . S
O874 C877 1.320 . S
O875 Cd872 2.333 . S
O875 C877 1.214 . S
O876 Cd872 2.352 . S
O876 C879 1.258 . S
C877 O874 1.320 . S
C877 O875 1.214 . S
O878 Cd870 2.277 . S
O878 C873 1.209 . S
C879 O876 1.258 . S
C879 O881 1.282 . S
O880 Cd872 2.277 . S
O880 C873 1.226 . S
O881 Cd872 2.356 . S
O881 C879 1.282 . S
C882 O883 1.306 . S
C882 O885 1.160 . S
O883 C882 1.306 . S
O883 Cd884 2.228 . S
Cd884 O883 2.228 . S
Cd884 O888 2.273 . S
Cd884 O892 2.277 . S
O885 C882 1.160 . S
O885 Cd886 2.203 . S
Cd886 O885 2.203 . S
Cd886 O888 2.411 . S
Cd886 O889 2.333 . S
Cd886 O890 2.352 . S
Cd886 O894 2.277 . S
Cd886 O895 2.356 . S
C887 O892 1.209 . S
C887 O894 1.226 . S
O888 Cd884 2.273 . S
O888 Cd886 2.411 . S
O888 C891 1.320 . S
O889 Cd886 2.333 . S
O889 C891 1.214 . S
O890 Cd886 2.352 . S
O890 C893 1.258 . S
C891 O888 1.320 . S
C891 O889 1.214 . S
O892 Cd884 2.277 . S
O892 C887 1.209 . S
C893 O890 1.258 . S
C893 O895 1.282 . S
O894 Cd886 2.277 . S
O894 C887 1.226 . S
O895 Cd886 2.356 . S
O895 C893 1.282 . S
C896 O897 1.306 . S
C896 O899 1.160 . S
O897 C896 1.306 . S
O897 Cd898 2.228 . S
Cd898 O897 2.228 . S
Cd898 O902 2.273 . S
Cd898 O906 2.277 . S
O899 C896 1.160 . S
O899 Cd900 2.203 . S
Cd900 O899 2.203 . S
Cd900 O902 2.411 . S
Cd900 O903 2.333 . S
Cd900 O904 2.352 . S
Cd900 O908 2.277 . S
Cd900 O909 2.356 . S
C901 O906 1.209 . S
C901 O908 1.226 . S
O902 Cd898 2.273 . S
O902 Cd900 2.411 . S
O902 C905 1.320 . S
O903 Cd900 2.333 . S
O903 C905 1.214 . S
O904 Cd900 2.352 . S
O904 C907 1.258 . S
C905 O902 1.320 . S
C905 O903 1.214 . S
O906 Cd898 2.277 . S
O906 C901 1.209 . S
C907 O904 1.258 . S
C907 O909 1.282 . S
O908 Cd900 2.277 . S
O908 C901 1.226 . S
O909 Cd900 2.356 . S
O909 C907 1.282 . S
C910 O911 1.306 . S
C910 O913 1.160 . S
O911 C910 1.306 . S
O911 Cd912 2.228 . S
Cd912 O911 2.228 . S
Cd912 O916 2.273 . S
Cd912 O920 2.277 . S
O913 C910 1.160 . S
O913 Cd914 2.203 . S
Cd914 O913 2.203 . S
Cd914 O916 2.411 . S
Cd914 O917 2.333 . S
Cd914 O918 2.352 . S
Cd914 O922 2.277 . S
Cd914 O923 2.356 . S
C915 O920 1.209 . S
C915 O922 1.226 . S
O916 Cd912 2.273 . S
O916 Cd914 2.411 . S
O916 C919 1.320 . S
O917 Cd914 2.333 . S
O917 C919 1.214 . S
O918 Cd914 2.352 . S
O918 C921 1.258 . S
C919 O916 1.320 . S
C919 O917 1.214 . S
O920 Cd912 2.277 . S
O920 C915 1.209 . S
C921 O918 1.258 . S
C921 O923 1.282 . S
O922 Cd914 2.277 . S
O922 C915 1.226 . S
O923 Cd914 2.356 . S
O923 C921 1.282 . S
C924 O925 1.306 . S
C924 O927 1.160 . S
O925 C924 1.306 . S
O925 Cd926 2.228 . S
Cd926 O925 2.228 . S
Cd926 O930 2.273 . S
Cd926 O934 2.277 . S
O927 C924 1.160 . S
O927 Cd928 2.203 . S
Cd928 O927 2.203 . S
Cd928 O930 2.411 . S
Cd928 O931 2.333 . S
Cd928 O932 2.352 . S
Cd928 O936 2.277 . S
Cd928 O937 2.356 . S
C929 O934 1.209 . S
C929 O936 1.226 . S
O930 Cd926 2.273 . S
O930 Cd928 2.411 . S
O930 C933 1.320 . S
O931 Cd928 2.333 . S
O931 C933 1.214 . S
O932 Cd928 2.352 . S
O932 C935 1.258 . S
C933 O930 1.320 . S
C933 O931 1.214 . S
O934 Cd926 2.277 . S
O934 C929 1.209 . S
C935 O932 1.258 . S
C935 O937 1.282 . S
O936 Cd928 2.277 . S
O936 C929 1.226 . S
O937 Cd928 2.356 . S
O937 C935 1.282 . S
C938 O939 1.306 . S
C938 O941 1.160 . S
O939 C938 1.306 . S
O939 Cd940 2.228 . S
Cd940 O939 2.228 . S
Cd940 O944 2.273 1_554 S
Cd940 O948 2.277 . S
O941 C938 1.160 . S
O941 Cd942 2.203 1_554 S
Cd942 O941 2.203 1_556 S
Cd942 O944 2.411 . S
Cd942 O945 2.333 . S
Cd942 O946 2.352 . S
Cd942 O950 2.277 1_556 S
Cd942 O951 2.356 . S
C943 O948 1.209 . S
C943 O950 1.226 . S
O944 Cd940 2.273 1_556 S
O944 Cd942 2.411 . S
O944 C947 1.320 . S
O945 Cd942 2.333 . S
O945 C947 1.214 . S
O946 Cd942 2.352 . S
O946 C949 1.258 . S
C947 O944 1.320 . S
C947 O945 1.214 . S
O948 Cd940 2.277 . S
O948 C943 1.209 . S
C949 O946 1.258 . S
C949 O951 1.282 . S
O950 Cd942 2.277 1_554 S
O950 C943 1.226 . S
O951 Cd942 2.356 . S
O951 C949 1.282 . S
C952 O953 1.306 . S
C952 O955 1.160 . S
O953 C952 1.306 . S
O953 Cd954 2.228 . S
Cd954 O953 2.228 . S
Cd954 O958 2.273 . S
Cd954 O962 2.277 . S
O955 C952 1.160 . S
O955 Cd956 2.203 . S
Cd956 O955 2.203 . S
Cd956 O958 2.411 . S
Cd956 O959 2.333 . S
Cd956 O960 2.352 . S
Cd956 O964 2.277 . S
Cd956 O965 2.356 . S
C957 O962 1.209 . S
C957 O964 1.226 . S
O958 Cd954 2.273 . S
O958 Cd956 2.411 . S
O958 C961 1.320 . S
O959 Cd956 2.333 . S
O959 C961 1.214 . S
O960 Cd956 2.352 . S
O960 C963 1.258 . S
C961 O958 1.320 . S
C961 O959 1.214 . S
O962 Cd954 2.277 . S
O962 C957 1.209 . S
C963 O960 1.258 . S
C963 O965 1.282 . S
O964 Cd956 2.277 . S
O964 C957 1.226 . S
O965 Cd956 2.356 . S
O965 C963 1.282 . S
C966 O967 1.306 . S
C966 O969 1.160 . S
O967 C966 1.306 . S
O967 Cd968 2.228 . S
Cd968 O967 2.228 . S
Cd968 O972 2.273 1_556 S
Cd968 O976 2.277 . S
O969 C966 1.160 . S
O969 Cd970 2.203 1_556 S
Cd970 O969 2.203 1_554 S
Cd970 O972 2.411 . S
Cd970 O973 2.333 . S
Cd970 O974 2.352 . S
Cd970 O978 2.277 1_554 S
Cd970 O979 2.356 . S
C971 O976 1.209 . S
C971 O978 1.226 . S
O972 Cd968 2.273 1_554 S
O972 Cd970 2.411 . S
O972 C975 1.320 . S
O973 Cd970 2.333 . S
O973 C975 1.214 . S
O974 Cd970 2.352 . S
O974 C977 1.258 . S
C975 O972 1.320 . S
C975 O973 1.214 . S
O976 Cd968 2.277 . S
O976 C971 1.209 . S
C977 O974 1.258 . S
C977 O979 1.282 . S
O978 Cd970 2.277 1_556 S
O978 C971 1.226 . S
O979 Cd970 2.356 . S
O979 C977 1.282 . S
C980 O981 1.306 . S
C980 O983 1.160 . S
O981 C980 1.306 . S
O981 Cd982 2.228 . S
Cd982 O981 2.228 . S
Cd982 O986 2.273 . S
Cd982 O990 2.277 . S
O983 C980 1.160 . S
O983 Cd984 2.203 . S
Cd984 O983 2.203 . S
Cd984 O986 2.411 . S
Cd984 O987 2.333 . S
Cd984 O988 2.352 . S
Cd984 O992 2.277 . S
Cd984 O993 2.356 . S
C985 O990 1.209 . S
C985 O992 1.226 . S
O986 Cd982 2.273 . S
O986 Cd984 2.411 . S
O986 C989 1.320 . S
O987 Cd984 2.333 . S
O987 C989 1.214 . S
O988 Cd984 2.352 . S
O988 C991 1.258 . S
C989 O986 1.320 . S
C989 O987 1.214 . S
O990 Cd982 2.277 . S
O990 C985 1.209 . S
C991 O988 1.258 . S
C991 O993 1.282 . S
O992 Cd984 2.277 . S
O992 C985 1.226 . S
O993 Cd984 2.356 . S
O993 C991 1.282 . S
C994 O995 1.306 . S
C994 O997 1.160 . S
O995 C994 1.306 . S
O995 Cd996 2.228 . S
Cd996 O995 2.228 . S
Cd996 O1000 2.273 . S
Cd996 O1004 2.277 . S
O997 C994 1.160 . S
O997 Cd998 2.203 . S
Cd998 O997 2.203 . S
Cd998 O1000 2.411 . S
Cd998 O1001 2.333 . S
Cd998 O1002 2.352 . S
Cd998 O1006 2.277 . S
Cd998 O1007 2.356 . S
C999 O1004 1.209 . S
C999 O1006 1.226 . S
O1000 Cd996 2.273 . S
O1000 Cd998 2.411 . S
O1000 C1003 1.320 . S
O1001 Cd998 2.333 . S
O1001 C1003 1.214 . S
O1002 Cd998 2.352 . S
O1002 C1005 1.258 . S
C1003 O1000 1.320 . S
C1003 O1001 1.214 . S
O1004 Cd996 2.277 . S
O1004 C999 1.209 . S
C1005 O1002 1.258 . S
C1005 O1007 1.282 . S
O1006 Cd998 2.277 . S
O1006 C999 1.226 . S
O1007 Cd998 2.356 . S
O1007 C1005 1.282 . S
C1008 O1009 1.306 . S
C1008 O1011 1.160 . S
O1009 C1008 1.306 . S
O1009 Cd1010 2.228 . S
Cd1010 O1009 2.228 . S
Cd1010 O1014 2.273 . S
Cd1010 O1018 2.277 . S
O1011 C1008 1.160 . S
O1011 Cd1012 2.203 . S
Cd1012 O1011 2.203 . S
Cd1012 O1014 2.411 . S
Cd1012 O1015 2.333 . S
Cd1012 O1016 2.352 . S
Cd1012 O1020 2.277 . S
Cd1012 O1021 2.356 . S
C1013 O1018 1.209 . S
C1013 O1020 1.226 . S
O1014 Cd1010 2.273 . S
O1014 Cd1012 2.411 . S
O1014 C1017 1.320 . S
O1015 Cd1012 2.333 . S
O1015 C1017 1.214 . S
O1016 Cd1012 2.352 . S
O1016 C1019 1.258 . S
C1017 O1014 1.320 . S
C1017 O1015 1.214 . S
O1018 Cd1010 2.277 . S
O1018 C1013 1.209 . S
C1019 O1016 1.258 . S
C1019 O1021 1.282 . S
O1020 Cd1012 2.277 . S
O1020 C1013 1.226 . S
O1021 Cd1012 2.356 . S
O1021 C1019 1.282 . S
C1022 O1023 1.306 . S
C1022 O1025 1.160 . S
O1023 C1022 1.306 . S
O1023 Cd1024 2.228 . S
Cd1024 O1023 2.228 . S
Cd1024 O1028 2.273 . S
Cd1024 O1032 2.277 . S
O1025 C1022 1.160 . S
O1025 Cd1026 2.203 . S
Cd1026 O1025 2.203 . S
Cd1026 O1028 2.411 . S
Cd1026 O1029 2.333 . S
Cd1026 O1030 2.352 . S
Cd1026 O1034 2.277 . S
Cd1026 O1035 2.356 . S
C1027 O1032 1.209 . S
C1027 O1034 1.226 . S
O1028 Cd1024 2.273 . S
O1028 Cd1026 2.411 . S
O1028 C1031 1.320 . S
O1029 Cd1026 2.333 . S
O1029 C1031 1.214 . S
O1030 Cd1026 2.352 . S
O1030 C1033 1.258 . S
C1031 O1028 1.320 . S
C1031 O1029 1.214 . S
O1032 Cd1024 2.277 . S
O1032 C1027 1.209 . S
C1033 O1030 1.258 . S
C1033 O1035 1.282 . S
O1034 Cd1026 2.277 . S
O1034 C1027 1.226 . S
O1035 Cd1026 2.356 . S
O1035 C1033 1.282 . S
C1036 O1037 1.306 . S
C1036 O1039 1.160 . S
O1037 C1036 1.306 . S
O1037 Cd1038 2.228 . S
Cd1038 O1037 2.228 . S
Cd1038 O1042 2.273 1_455 S
Cd1038 O1046 2.277 . S
O1039 C1036 1.160 . S
O1039 Cd1040 2.201 . S
Cd1040 O1039 2.201 . S
Cd1040 O1042 2.413 1_455 S
Cd1040 O1043 2.335 1_455 S
Cd1040 O1044 2.354 1_455 S
Cd1040 O1048 2.274 . S
Cd1040 O1049 2.357 1_455 S
C1041 O1046 1.209 . S
C1041 O1048 1.226 . S
O1042 Cd1038 2.273 1_655 S
O1042 Cd1040 2.413 1_655 S
O1042 C1045 1.320 . S
O1043 Cd1040 2.335 1_655 S
O1043 C1045 1.214 . S
O1044 Cd1040 2.354 1_655 S
O1044 C1047 1.258 . S
C1045 O1042 1.320 . S
C1045 O1043 1.214 . S
O1046 Cd1038 2.277 . S
O1046 C1041 1.209 . S
C1047 O1044 1.258 . S
C1047 O1049 1.282 . S
O1048 Cd1040 2.274 . S
O1048 C1041 1.226 . S
O1049 Cd1040 2.357 1_655 S
O1049 C1047 1.282 . S
C1050 O1051 1.306 . S
C1050 O1053 1.160 . S
O1051 C1050 1.306 . S
O1051 Cd1052 2.228 . S
Cd1052 O1051 2.228 . S
Cd1052 O1056 2.273 . S
Cd1052 O1060 2.277 . S
O1053 C1050 1.160 . S
O1053 Cd1054 2.203 . S
Cd1054 O1053 2.203 . S
Cd1054 O1056 2.411 . S
Cd1054 O1057 2.333 . S
Cd1054 O1058 2.352 . S
Cd1054 O1062 2.277 . S
Cd1054 O1063 2.356 . S
C1055 O1060 1.209 . S
C1055 O1062 1.226 . S
O1056 Cd1052 2.273 . S
O1056 Cd1054 2.411 . S
O1056 C1059 1.320 . S
O1057 Cd1054 2.333 . S
O1057 C1059 1.214 . S
O1058 Cd1054 2.352 . S
O1058 C1061 1.258 . S
C1059 O1056 1.320 . S
C1059 O1057 1.214 . S
O1060 Cd1052 2.277 . S
O1060 C1055 1.209 . S
C1061 O1058 1.258 . S
C1061 O1063 1.282 . S
O1062 Cd1054 2.277 . S
O1062 C1055 1.226 . S
O1063 Cd1054 2.356 . S
O1063 C1061 1.282 . S
C1064 O1065 1.306 . S
C1064 O1067 1.160 . S
O1065 C1064 1.306 . S
O1065 Cd1066 2.228 . S
Cd1066 O1065 2.228 . S
Cd1066 O1070 2.273 . S
Cd1066 O1074 2.277 . S
O1067 C1064 1.160 . S
O1067 Cd1068 2.203 . S
Cd1068 O1067 2.203 . S
Cd1068 O1070 2.411 . S
Cd1068 O1071 2.333 . S
Cd1068 O1072 2.352 . S
Cd1068 O1076 2.277 . S
Cd1068 O1077 2.356 . S
C1069 O1074 1.209 . S
C1069 O1076 1.226 . S
O1070 Cd1066 2.273 . S
O1070 Cd1068 2.411 . S
O1070 C1073 1.320 . S
O1071 Cd1068 2.333 . S
O1071 C1073 1.214 . S
O1072 Cd1068 2.352 . S
O1072 C1075 1.258 . S
C1073 O1070 1.320 . S
C1073 O1071 1.214 . S
O1074 Cd1066 2.277 . S
O1074 C1069 1.209 . S
C1075 O1072 1.258 . S
C1075 O1077 1.282 . S
O1076 Cd1068 2.277 . S
O1076 C1069 1.226 . S
O1077 Cd1068 2.356 . S
O1077 C1075 1.282 . S
C1078 O1079 1.306 . S
C1078 O1081 1.160 . S
O1079 C1078 1.306 . S
O1079 Cd1080 2.228 . S
Cd1080 O1079 2.228 . S
Cd1080 O1084 2.273 . S
Cd1080 O1088 2.277 . S
O1081 C1078 1.160 . S
O1081 Cd1082 2.203 . S
Cd1082 O1081 2.203 . S
Cd1082 O1084 2.411 . S
Cd1082 O1085 2.333 . S
Cd1082 O1086 2.352 . S
Cd1082 O1090 2.277 . S
Cd1082 O1091 2.356 . S
C1083 O1088 1.209 . S
C1083 O1090 1.226 . S
O1084 Cd1080 2.273 . S
O1084 Cd1082 2.411 . S
O1084 C1087 1.320 . S
O1085 Cd1082 2.333 . S
O1085 C1087 1.214 . S
O1086 Cd1082 2.352 . S
O1086 C1089 1.258 . S
C1087 O1084 1.320 . S
C1087 O1085 1.214 . S
O1088 Cd1080 2.277 . S
O1088 C1083 1.209 . S
C1089 O1086 1.258 . S
C1089 O1091 1.282 . S
O1090 Cd1082 2.277 . S
O1090 C1083 1.226 . S
O1091 Cd1082 2.356 . S
O1091 C1089 1.282 . S
C1092 O1093 1.306 . S
C1092 O1095 1.160 . S
O1093 C1092 1.306 . S
O1093 Cd1094 2.228 . S
Cd1094 O1093 2.228 . S
Cd1094 O1098 2.273 1_455 S
Cd1094 O1102 2.277 . S
O1095 C1092 1.160 . S
O1095 Cd1096 2.201 . S
Cd1096 O1095 2.201 . S
Cd1096 O1098 2.413 1_455 S
Cd1096 O1099 2.335 1_455 S
Cd1096 O1100 2.354 1_455 S
Cd1096 O1104 2.275 . S
Cd1096 O1105 2.357 1_455 S
C1097 O1102 1.209 . S
C1097 O1104 1.226 . S
O1098 Cd1094 2.273 1_655 S
O1098 Cd1096 2.413 1_655 S
O1098 C1101 1.320 . S
O1099 Cd1096 2.335 1_655 S
O1099 C1101 1.214 . S
O1100 Cd1096 2.354 1_655 S
O1100 C1103 1.258 . S
C1101 O1098 1.320 . S
C1101 O1099 1.214 . S
O1102 Cd1094 2.277 . S
O1102 C1097 1.209 . S
C1103 O1100 1.258 . S
C1103 O1105 1.282 . S
O1104 Cd1096 2.275 . S
O1104 C1097 1.226 . S
O1105 Cd1096 2.357 1_655 S
O1105 C1103 1.282 . S
C1106 O1107 1.306 . S
C1106 O1109 1.160 . S
O1107 C1106 1.306 . S
O1107 Cd1108 2.228 . S
Cd1108 O1107 2.228 . S
Cd1108 O1112 2.273 . S
Cd1108 O1116 2.277 . S
O1109 C1106 1.160 . S
O1109 Cd1110 2.203 . S
Cd1110 O1109 2.203 . S
Cd1110 O1112 2.411 . S
Cd1110 O1113 2.333 . S
Cd1110 O1114 2.352 . S
Cd1110 O1118 2.277 . S
Cd1110 O1119 2.356 . S
C1111 O1116 1.209 . S
C1111 O1118 1.226 . S
O1112 Cd1108 2.273 . S
O1112 Cd1110 2.411 . S
O1112 C1115 1.320 . S
O1113 Cd1110 2.333 . S
O1113 C1115 1.214 . S
O1114 Cd1110 2.352 . S
O1114 C1117 1.258 . S
C1115 O1112 1.320 . S
C1115 O1113 1.214 . S
O1116 Cd1108 2.277 . S
O1116 C1111 1.209 . S
C1117 O1114 1.258 . S
C1117 O1119 1.282 . S
O1118 Cd1110 2.277 . S
O1118 C1111 1.226 . S
O1119 Cd1110 2.356 . S
O1119 C1117 1.282 . S
C1120 O1121 1.306 . S
C1120 O1123 1.160 . S
O1121 C1120 1.306 . S
O1121 Cd1122 2.228 . S
Cd1122 O1121 2.228 . S
Cd1122 O1126 2.273 . S
Cd1122 O1130 2.277 . S
O1123 C1120 1.160 . S
O1123 Cd1124 2.203 . S
Cd1124 O1123 2.203 . S
Cd1124 O1126 2.411 . S
Cd1124 O1127 2.333 . S
Cd1124 O1128 2.352 . S
Cd1124 O1132 2.277 . S
Cd1124 O1133 2.356 . S
C1125 O1130 1.209 . S
C1125 O1132 1.226 . S
O1126 Cd1122 2.273 . S
O1126 Cd1124 2.411 . S
O1126 C1129 1.320 . S
O1127 Cd1124 2.333 . S
O1127 C1129 1.214 . S
O1128 Cd1124 2.352 . S
O1128 C1131 1.258 . S
C1129 O1126 1.320 . S
C1129 O1127 1.214 . S
O1130 Cd1122 2.277 . S
O1130 C1125 1.209 . S
C1131 O1128 1.258 . S
C1131 O1133 1.282 . S
O1132 Cd1124 2.277 . S
O1132 C1125 1.226 . S
O1133 Cd1124 2.356 . S
O1133 C1131 1.282 . S
C1134 O1135 1.306 . S
C1134 O1137 1.160 . S
O1135 C1134 1.306 . S
O1135 Cd1136 2.228 . S
Cd1136 O1135 2.228 . S
Cd1136 O1140 2.273 . S
Cd1136 O1144 2.277 . S
O1137 C1134 1.160 . S
O1137 Cd1138 2.203 . S
Cd1138 O1137 2.203 . S
Cd1138 O1140 2.411 . S
Cd1138 O1141 2.333 . S
Cd1138 O1142 2.352 . S
Cd1138 O1146 2.277 . S
Cd1138 O1147 2.356 . S
C1139 O1144 1.209 . S
C1139 O1146 1.226 . S
O1140 Cd1136 2.273 . S
O1140 Cd1138 2.411 . S
O1140 C1143 1.320 . S
O1141 Cd1138 2.333 . S
O1141 C1143 1.214 . S
O1142 Cd1138 2.352 . S
O1142 C1145 1.258 . S
C1143 O1140 1.320 . S
C1143 O1141 1.214 . S
O1144 Cd1136 2.277 . S
O1144 C1139 1.209 . S
C1145 O1142 1.258 . S
C1145 O1147 1.282 . S
O1146 Cd1138 2.277 . S
O1146 C1139 1.226 . S
O1147 Cd1138 2.356 . S
O1147 C1145 1.282 . S
C1148 O1149 1.306 . S
C1148 O1151 1.160 . S
O1149 C1148 1.306 . S
O1149 Cd1150 2.228 . S
Cd1150 O1149 2.228 . S
Cd1150 O1154 2.273 . S
Cd1150 O1158 2.277 . S
O1151 C1148 1.160 . S
O1151 Cd1152 2.203 . S
Cd1152 O1151 2.203 . S
Cd1152 O1154 2.411 . S
Cd1152 O1155 2.333 . S
Cd1152 O1156 2.352 . S
Cd1152 O1160 2.277 . S
Cd1152 O1161 2.356 . S
C1153 O1158 1.209 . S
C1153 O1160 1.226 . S
O1154 Cd1150 2.273 . S
O1154 Cd1152 2.411 . S
O1154 C1157 1.320 . S
O1155 Cd1152 2.333 . S
O1155 C1157 1.214 . S
O1156 Cd1152 2.352 . S
O1156 C1159 1.258 . S
C1157 O1154 1.320 . S
C1157 O1155 1.214 . S
O1158 Cd1150 2.277 . S
O1158 C1153 1.209 . S
C1159 O1156 1.258 . S
C1159 O1161 1.282 . S
O1160 Cd1152 2.277 . S
O1160 C1153 1.226 . S
O1161 Cd1152 2.356 . S
O1161 C1159 1.282 . S
C1162 O1163 1.306 . S
C1162 O1165 1.160 . S
O1163 C1162 1.306 . S
O1163 Cd1164 2.228 . S
Cd1164 O1163 2.228 . S
Cd1164 O1168 2.273 . S
Cd1164 O1172 2.277 . S
O1165 C1162 1.160 . S
O1165 Cd1166 2.203 . S
Cd1166 O1165 2.203 . S
Cd1166 O1168 2.411 . S
Cd1166 O1169 2.333 . S
Cd1166 O1170 2.352 . S
Cd1166 O1174 2.277 . S
Cd1166 O1175 2.356 . S
C1167 O1172 1.209 . S
C1167 O1174 1.226 . S
O1168 Cd1164 2.273 . S
O1168 Cd1166 2.411 . S
O1168 C1171 1.320 . S
O1169 Cd1166 2.333 . S
O1169 C1171 1.214 . S
O1170 Cd1166 2.352 . S
O1170 C1173 1.258 . S
C1171 O1168 1.320 . S
C1171 O1169 1.214 . S
O1172 Cd1164 2.277 . S
O1172 C1167 1.209 . S
C1173 O1170 1.258 . S
C1173 O1175 1.282 . S
O1174 Cd1166 2.277 . S
O1174 C1167 1.226 . S
O1175 Cd1166 2.356 . S
O1175 C1173 1.282 . S
C1176 O1177 1.306 . S
C1176 O1179 1.160 . S
O1177 C1176 1.306 . S
O1177 Cd1178 2.228 . S
Cd1178 O1177 2.228 . S
Cd1178 O1182 2.273 . S
Cd1178 O1186 2.277 . S
O1179 C1176 1.160 . S
O1179 Cd1180 2.203 . S
Cd1180 O1179 2.203 . S
Cd1180 O1182 2.411 . S
Cd1180 O1183 2.333 . S
Cd1180 O1184 2.352 . S
Cd1180 O1188 2.277 . S
Cd1180 O1189 2.356 . S
C1181 O1186 1.209 . S
C1181 O1188 1.226 . S
O1182 Cd1178 2.273 . S
O1182 Cd1180 2.411 . S
O1182 C1185 1.320 . S
O1183 Cd1180 2.333 . S
O1183 C1185 1.214 . S
O1184 Cd1180 2.352 . S
O1184 C1187 1.258 . S
C1185 O1182 1.320 . S
C1185 O1183 1.214 . S
O1186 Cd1178 2.277 . S
O1186 C1181 1.209 . S
C1187 O1184 1.258 . S
C1187 O1189 1.282 . S
O1188 Cd1180 2.277 . S
O1188 C1181 1.226 . S
O1189 Cd1180 2.356 . S
O1189 C1187 1.282 . S
C1190 O1191 1.306 . S
C1190 O1193 1.160 . S
O1191 C1190 1.306 . S
O1191 Cd1192 2.228 . S
Cd1192 O1191 2.228 . S
Cd1192 O1196 2.273 . S
Cd1192 O1200 2.277 . S
O1193 C1190 1.160 . S
O1193 Cd1194 2.203 . S
Cd1194 O1193 2.203 . S
Cd1194 O1196 2.411 . S
Cd1194 O1197 2.333 . S
Cd1194 O1198 2.352 . S
Cd1194 O1202 2.277 . S
Cd1194 O1203 2.356 . S
C1195 O1200 1.209 . S
C1195 O1202 1.226 . S
O1196 Cd1192 2.273 . S
O1196 Cd1194 2.411 . S
O1196 C1199 1.320 . S
O1197 Cd1194 2.333 . S
O1197 C1199 1.214 . S
O1198 Cd1194 2.352 . S
O1198 C1201 1.258 . S
C1199 O1196 1.320 . S
C1199 O1197 1.214 . S
O1200 Cd1192 2.277 . S
O1200 C1195 1.209 . S
C1201 O1198 1.258 . S
C1201 O1203 1.282 . S
O1202 Cd1194 2.277 . S
O1202 C1195 1.226 . S
O1203 Cd1194 2.356 . S
O1203 C1201 1.282 . S
C1204 O1205 1.306 . S
C1204 O1207 1.160 . S
O1205 C1204 1.306 . S
O1205 Cd1206 2.228 . S
Cd1206 O1205 2.228 . S
Cd1206 O1210 2.273 . S
Cd1206 O1214 2.277 . S
O1207 C1204 1.160 . S
O1207 Cd1208 2.203 . S
Cd1208 O1207 2.203 . S
Cd1208 O1210 2.411 . S
Cd1208 O1211 2.333 . S
Cd1208 O1212 2.352 . S
Cd1208 O1216 2.277 . S
Cd1208 O1217 2.356 . S
C1209 O1214 1.209 . S
C1209 O1216 1.226 . S
O1210 Cd1206 2.273 . S
O1210 Cd1208 2.411 . S
O1210 C1213 1.320 . S
O1211 Cd1208 2.333 . S
O1211 C1213 1.214 . S
O1212 Cd1208 2.352 . S
O1212 C1215 1.258 . S
C1213 O1210 1.320 . S
C1213 O1211 1.214 . S
O1214 Cd1206 2.277 . S
O1214 C1209 1.209 . S
C1215 O1212 1.258 . S
C1215 O1217 1.282 . S
O1216 Cd1208 2.277 . S
O1216 C1209 1.226 . S
O1217 Cd1208 2.356 . S
O1217 C1215 1.282 . S
C1218 O1219 1.306 . S
C1218 O1221 1.160 . S
O1219 C1218 1.306 . S
O1219 Cd1220 2.228 . S
Cd1220 O1219 2.228 . S
Cd1220 O1224 2.273 . S
Cd1220 O1228 2.277 . S
O1221 C1218 1.160 . S
O1221 Cd1222 2.203 . S
Cd1222 O1221 2.203 . S
Cd1222 O1224 2.411 . S
Cd1222 O1225 2.333 . S
Cd1222 O1226 2.352 . S
Cd1222 O1230 2.277 . S
Cd1222 O1231 2.356 . S
C1223 O1228 1.209 . S
C1223 O1230 1.226 . S
O1224 Cd1220 2.273 . S
O1224 Cd1222 2.411 . S
O1224 C1227 1.320 . S
O1225 Cd1222 2.333 . S
O1225 C1227 1.214 . S
O1226 Cd1222 2.352 . S
O1226 C1229 1.258 . S
C1227 O1224 1.320 . S
C1227 O1225 1.214 . S
O1228 Cd1220 2.277 . S
O1228 C1223 1.209 . S
C1229 O1226 1.258 . S
C1229 O1231 1.282 . S
O1230 Cd1222 2.277 . S
O1230 C1223 1.226 . S
O1231 Cd1222 2.356 . S
O1231 C1229 1.282 . S
C1232 O1233 1.306 . S
C1232 O1235 1.160 . S
O1233 C1232 1.306 . S
O1233 Cd1234 2.228 . S
Cd1234 O1233 2.228 . S
Cd1234 O1238 2.273 . S
Cd1234 O1242 2.277 . S
O1235 C1232 1.160 . S
O1235 Cd1236 2.203 . S
Cd1236 O1235 2.203 . S
Cd1236 O1238 2.411 . S
Cd1236 O1239 2.333 . S
Cd1236 O1240 2.352 . S
Cd1236 O1244 2.277 . S
Cd1236 O1245 2.356 . S
C1237 O1242 1.209 . S
C1237 O1244 1.226 . S
O1238 Cd1234 2.273 . S
O1238 Cd1236 2.411 . S
O1238 C1241 1.320 . S
O1239 Cd1236 2.333 . S
O1239 C1241 1.214 . S
O1240 Cd1236 2.352 . S
O1240 C1243 1.258 . S
C1241 O1238 1.320 . S
C1241 O1239 1.214 . S
O1242 Cd1234 2.277 . S
O1242 C1237 1.209 . S
C1243 O1240 1.258 . S
C1243 O1245 1.282 . S
O1244 Cd1236 2.277 . S
O1244 C1237 1.226 . S
O1245 Cd1236 2.356 . S
O1245 C1243 1.282 . S
C1246 O1247 1.306 . S
C1246 O1249 1.160 . S
O1247 C1246 1.306 . S
O1247 Cd1248 2.228 . S
Cd1248 O1247 2.228 . S
Cd1248 O1252 2.273 . S
Cd1248 O1256 2.277 . S
O1249 C1246 1.160 . S
O1249 Cd1250 2.203 . S
Cd1250 O1249 2.203 . S
Cd1250 O1252 2.411 . S
Cd1250 O1253 2.333 . S
Cd1250 O1254 2.352 . S
Cd1250 O1258 2.277 . S
Cd1250 O1259 2.356 . S
C1251 O1256 1.209 . S
C1251 O1258 1.226 . S
O1252 Cd1248 2.273 . S
O1252 Cd1250 2.411 . S
O1252 C1255 1.320 . S
O1253 Cd1250 2.333 . S
O1253 C1255 1.214 . S
O1254 Cd1250 2.352 . S
O1254 C1257 1.258 . S
C1255 O1252 1.320 . S
C1255 O1253 1.214 . S
O1256 Cd1248 2.277 . S
O1256 C1251 1.209 . S
C1257 O1254 1.258 . S
C1257 O1259 1.282 . S
O1258 Cd1250 2.277 . S
O1258 C1251 1.226 . S
O1259 Cd1250 2.356 . S
O1259 C1257 1.282 . S
C1260 O1261 1.306 . S
C1260 O1263 1.160 . S
O1261 C1260 1.306 . S
O1261 Cd1262 2.228 . S
Cd1262 O1261 2.228 . S
Cd1262 O1266 2.273 . S
Cd1262 O1270 2.277 . S
O1263 C1260 1.160 . S
O1263 Cd1264 2.203 . S
Cd1264 O1263 2.203 . S
Cd1264 O1266 2.411 . S
Cd1264 O1267 2.333 . S
Cd1264 O1268 2.352 . S
Cd1264 O1272 2.277 . S
Cd1264 O1273 2.356 . S
C1265 O1270 1.209 . S
C1265 O1272 1.226 . S
O1266 Cd1262 2.273 . S
O1266 Cd1264 2.411 . S
O1266 C1269 1.320 . S
O1267 Cd1264 2.333 . S
O1267 C1269 1.214 . S
O1268 Cd1264 2.352 . S
O1268 C1271 1.258 . S
C1269 O1266 1.320 . S
C1269 O1267 1.214 . S
O1270 Cd1262 2.277 . S
O1270 C1265 1.209 . S
C1271 O1268 1.258 . S
C1271 O1273 1.282 . S
O1272 Cd1264 2.277 . S
O1272 C1265 1.226 . S
O1273 Cd1264 2.356 . S
O1273 C1271 1.282 . S
C1274 O1275 1.306 . S
C1274 O1277 1.160 . S
O1275 C1274 1.306 . S
O1275 Cd1276 2.228 . S
Cd1276 O1275 2.228 . S
Cd1276 O1280 2.273 1_554 S
Cd1276 O1284 2.277 . S
O1277 C1274 1.160 . S
O1277 Cd1278 2.212 . S
Cd1278 O1277 2.212 . S
Cd1278 O1280 2.404 1_554 S
Cd1278 O1281 2.323 1_554 S
Cd1278 O1282 2.344 1_554 S
Cd1278 O1286 2.286 . S
Cd1278 O1287 2.353 1_554 S
C1279 O1284 1.209 . S
C1279 O1286 1.226 . S
O1280 Cd1276 2.273 1_556 S
O1280 Cd1278 2.404 1_556 S
O1280 C1283 1.320 . S
O1281 Cd1278 2.323 1_556 S
O1281 C1283 1.214 . S
O1282 Cd1278 2.344 1_556 S
O1282 C1285 1.258 . S
C1283 O1280 1.320 . S
C1283 O1281 1.214 . S
O1284 Cd1276 2.277 . S
O1284 C1279 1.209 . S
C1285 O1282 1.258 . S
C1285 O1287 1.282 . S
O1286 Cd1278 2.286 . S
O1286 C1279 1.226 . S
O1287 Cd1278 2.353 1_556 S
O1287 C1285 1.282 . S
C1288 O1289 1.306 . S
C1288 O1291 1.160 . S
O1289 C1288 1.306 . S
O1289 Cd1290 2.228 . S
Cd1290 O1289 2.228 . S
Cd1290 O1294 2.273 . S
Cd1290 O1298 2.277 . S
O1291 C1288 1.160 . S
O1291 Cd1292 2.203 . S
Cd1292 O1291 2.203 . S
Cd1292 O1294 2.411 . S
Cd1292 O1295 2.333 . S
Cd1292 O1296 2.352 . S
Cd1292 O1300 2.277 . S
Cd1292 O1301 2.356 . S
C1293 O1298 1.209 . S
C1293 O1300 1.226 . S
O1294 Cd1290 2.273 . S
O1294 Cd1292 2.411 . S
O1294 C1297 1.320 . S
O1295 Cd1292 2.333 . S
O1295 C1297 1.214 . S
O1296 Cd1292 2.352 . S
O1296 C1299 1.258 . S
C1297 O1294 1.320 . S
C1297 O1295 1.214 . S
O1298 Cd1290 2.277 . S
O1298 C1293 1.209 . S
C1299 O1296 1.258 . S
C1299 O1301 1.282 . S
O1300 Cd1292 2.277 . S
O1300 C1293 1.226 . S
O1301 Cd1292 2.356 . S
O1301 C1299 1.282 . S
C1302 O1303 1.306 . S
C1302 O1305 1.160 . S
O1303 C1302 1.306 . S
O1303 Cd1304 2.228 . S
Cd1304 O1303 2.228 . S
Cd1304 O1308 2.273 1_556 S
Cd1304 O1312 2.277 . S
O1305 C1302 1.160 . S
O1305 Cd1306 2.190 1_556 S
Cd1306 O1305 2.190 1_554 S
Cd1306 O1308 2.421 . S
Cd1306 O1309 2.348 . S
Cd1306 O1310 2.364 . S
Cd1306 O1314 2.263 1_554 S
Cd1306 O1315 2.362 . S
C1307 O1312 1.209 . S
C1307 O1314 1.226 . S
O1308 Cd1304 2.273 1_554 S
O1308 Cd1306 2.421 . S
O1308 C1311 1.320 . S
O1309 Cd1306 2.348 . S
O1309 C1311 1.214 . S
O1310 Cd1306 2.364 . S
O1310 C1313 1.258 . S
C1311 O1308 1.320 . S
C1311 O1309 1.214 . S
O1312 Cd1304 2.277 . S
O1312 C1307 1.209 . S
C1313 O1310 1.258 . S
C1313 O1315 1.282 . S
O1314 Cd1306 2.263 1_556 S
O1314 C1307 1.226 . S
O1315 Cd1306 2.362 . S
O1315 C1313 1.282 . S
C1316 O1317 1.306 . S
C1316 O1319 1.160 . S
O1317 C1316 1.306 . S
O1317 Cd1318 2.228 . S
Cd1318 O1317 2.228 . S
Cd1318 O1322 2.273 . S
Cd1318 O1326 2.277 . S
O1319 C1316 1.160 . S
O1319 Cd1320 2.203 . S
Cd1320 O1319 2.203 . S
Cd1320 O1322 2.411 . S
Cd1320 O1323 2.333 . S
Cd1320 O1324 2.352 . S
Cd1320 O1328 2.277 . S
Cd1320 O1329 2.356 . S
C1321 O1326 1.209 . S
C1321 O1328 1.226 . S
O1322 Cd1318 2.273 . S
O1322 Cd1320 2.411 . S
O1322 C1325 1.320 . S
O1323 Cd1320 2.333 . S
O1323 C1325 1.214 . S
O1324 Cd1320 2.352 . S
O1324 C1327 1.258 . S
C1325 O1322 1.320 . S
C1325 O1323 1.214 . S
O1326 Cd1318 2.277 . S
O1326 C1321 1.209 . S
C1327 O1324 1.258 . S
C1327 O1329 1.282 . S
O1328 Cd1320 2.277 . S
O1328 C1321 1.226 . S
O1329 Cd1320 2.356 . S
O1329 C1327 1.282 . S
C1330 O1331 1.306 . S
C1330 O1333 1.160 . S
O1331 C1330 1.306 . S
O1331 Cd1332 2.228 . S
Cd1332 O1331 2.228 . S
Cd1332 O1336 2.273 . S
Cd1332 O1340 2.277 . S
O1333 C1330 1.160 . S
O1333 Cd1334 2.203 . S
Cd1334 O1333 2.203 . S
Cd1334 O1336 2.411 . S
Cd1334 O1337 2.333 . S
Cd1334 O1338 2.352 . S
Cd1334 O1342 2.277 . S
Cd1334 O1343 2.356 . S
C1335 O1340 1.209 . S
C1335 O1342 1.226 . S
O1336 Cd1332 2.273 . S
O1336 Cd1334 2.411 . S
O1336 C1339 1.320 . S
O1337 Cd1334 2.333 . S
O1337 C1339 1.214 . S
O1338 Cd1334 2.352 . S
O1338 C1341 1.258 . S
C1339 O1336 1.320 . S
C1339 O1337 1.214 . S
O1340 Cd1332 2.277 . S
O1340 C1335 1.209 . S
C1341 O1338 1.258 . S
C1341 O1343 1.282 . S
O1342 Cd1334 2.277 . S
O1342 C1335 1.226 . S
O1343 Cd1334 2.356 . S
O1343 C1341 1.282 . S
H1344 C1350 0.930 . S
H1345 C1354 0.930 . S
H1346 C1359 0.929 . S
H1347 C1357 0.929 . S
H1348 C1352 0.929 . S
H1349 C1358 0.929 . S
C1350 H1344 0.930 . S
C1350 C1351 1.367 . S
C1350 C1358 1.378 . S
C1351 C1350 1.367 . S
C1351 C1359 1.433 . S
C1352 H1348 0.929 . S
C1352 C1354 1.378 . S
C1352 C1356 1.350 . S
C1353 C1356 1.463 . S
C1353 C1358 1.350 . S
C1353 N1361 1.427 . S
C1354 H1345 0.930 . S
C1354 C1352 1.378 . S
C1354 C1355 1.367 . S
C1355 C1354 1.367 . S
C1355 C1357 1.433 . S
C1356 C1352 1.350 . S
C1356 C1353 1.463 . S
C1356 N1360 1.427 . S
C1357 H1347 0.929 . S
C1357 C1355 1.433 . S
C1357 N1360 1.384 . S
C1358 H1349 0.929 . S
C1358 C1350 1.378 . S
C1358 C1353 1.350 . S
C1359 H1346 0.929 . S
C1359 C1351 1.433 . S
C1359 N1361 1.384 . S
N1360 C1356 1.427 . S
N1360 C1357 1.384 . S
N1361 C1353 1.427 . S
N1361 C1359 1.384 . S
H1362 C1368 0.930 . S
H1363 C1372 0.930 . S
H1364 C1377 0.929 . S
H1365 C1375 0.929 . S
H1366 C1370 0.929 . S
H1367 C1376 0.929 . S
C1368 H1362 0.930 . S
C1368 C1369 1.367 . S
C1368 C1376 1.378 . S
C1369 C1368 1.367 . S
C1369 C1377 1.433 . S
C1370 H1366 0.929 . S
C1370 C1372 1.378 . S
C1370 C1374 1.350 . S
C1371 C1374 1.463 . S
C1371 C1376 1.350 . S
C1371 N1379 1.427 . S
C1372 H1363 0.930 . S
C1372 C1370 1.378 . S
C1372 C1373 1.367 . S
C1373 C1372 1.367 . S
C1373 C1375 1.433 . S
C1374 C1370 1.350 . S
C1374 C1371 1.463 . S
C1374 N1378 1.427 . S
C1375 H1365 0.929 . S
C1375 C1373 1.433 . S
C1375 N1378 1.384 . S
C1376 H1367 0.929 . S
C1376 C1368 1.378 . S
C1376 C1371 1.350 . S
C1377 H1364 0.929 . S
C1377 C1369 1.433 . S
C1377 N1379 1.384 . S
N1378 C1374 1.427 . S
N1378 C1375 1.384 . S
N1379 C1371 1.427 . S
N1379 C1377 1.384 . S
H1380 C1386 0.930 . S
H1381 C1390 0.930 . S
H1382 C1395 0.929 . S
H1383 C1393 0.929 . S
H1384 C1388 0.929 . S
H1385 C1394 0.929 . S
C1386 H1380 0.930 . S
C1386 C1387 1.367 . S
C1386 C1394 1.378 . S
C1387 C1386 1.367 . S
C1387 C1395 1.433 . S
C1388 H1384 0.929 . S
C1388 C1390 1.378 . S
C1388 C1392 1.350 . S
C1389 C1392 1.463 . S
C1389 C1394 1.350 . S
C1389 N1397 1.427 . S
C1390 H1381 0.930 . S
C1390 C1388 1.378 . S
C1390 C1391 1.367 . S
C1391 C1390 1.367 . S
C1391 C1393 1.433 . S
C1392 C1388 1.350 . S
C1392 C1389 1.463 . S
C1392 N1396 1.427 . S
C1393 H1383 0.929 . S
C1393 C1391 1.433 . S
C1393 N1396 1.384 . S
C1394 H1385 0.929 . S
C1394 C1386 1.378 . S
C1394 C1389 1.350 . S
C1395 H1382 0.929 . S
C1395 C1387 1.433 . S
C1395 N1397 1.384 . S
N1396 C1392 1.427 . S
N1396 C1393 1.384 . S
N1397 C1389 1.427 . S
N1397 C1395 1.384 . S
H1398 C1404 0.930 . S
H1399 C1408 0.930 . S
H1400 C1413 0.929 . S
H1401 C1411 0.929 . S
H1402 C1406 0.929 . S
H1403 C1412 0.929 . S
C1404 H1398 0.930 . S
C1404 C1405 1.367 . S
C1404 C1412 1.378 . S
C1405 C1404 1.367 . S
C1405 C1413 1.433 . S
C1406 H1402 0.929 . S
C1406 C1408 1.378 . S
C1406 C1410 1.350 . S
C1407 C1410 1.463 . S
C1407 C1412 1.350 . S
C1407 N1415 1.427 . S
C1408 H1399 0.930 . S
C1408 C1406 1.378 . S
C1408 C1409 1.367 . S
C1409 C1408 1.367 . S
C1409 C1411 1.433 . S
C1410 C1406 1.350 . S
C1410 C1407 1.463 . S
C1410 N1414 1.427 . S
C1411 H1401 0.929 . S
C1411 C1409 1.433 . S
C1411 N1414 1.384 . S
C1412 H1403 0.929 . S
C1412 C1404 1.378 . S
C1412 C1407 1.350 . S
C1413 H1400 0.929 . S
C1413 C1405 1.433 . S
C1413 N1415 1.384 . S
N1414 C1410 1.427 . S
N1414 C1411 1.384 . S
N1415 C1407 1.427 . S
N1415 C1413 1.384 . S
H1416 C1422 0.930 . S
H1417 C1426 0.930 . S
H1418 C1431 0.929 . S
H1419 C1429 0.929 . S
H1420 C1424 0.929 . S
H1421 C1430 0.929 . S
C1422 H1416 0.930 . S
C1422 C1423 1.367 . S
C1422 C1430 1.378 . S
C1423 C1422 1.367 . S
C1423 C1431 1.433 . S
C1424 H1420 0.929 . S
C1424 C1426 1.378 . S
C1424 C1428 1.350 . S
C1425 C1428 1.463 . S
C1425 C1430 1.350 . S
C1425 N1433 1.427 . S
C1426 H1417 0.930 . S
C1426 C1424 1.378 . S
C1426 C1427 1.367 . S
C1427 C1426 1.367 . S
C1427 C1429 1.433 . S
C1428 C1424 1.350 . S
C1428 C1425 1.463 . S
C1428 N1432 1.427 . S
C1429 H1419 0.929 . S
C1429 C1427 1.433 . S
C1429 N1432 1.384 . S
C1430 H1421 0.929 . S
C1430 C1422 1.378 . S
C1430 C1425 1.350 . S
C1431 H1418 0.929 . S
C1431 C1423 1.433 . S
C1431 N1433 1.384 . S
N1432 C1428 1.427 . S
N1432 C1429 1.384 . S
N1433 C1425 1.427 . S
N1433 C1431 1.384 . S
H1434 C1440 0.930 . S
H1435 C1444 0.930 . S
H1436 C1449 0.929 . S
H1437 C1447 0.929 . S
H1438 C1442 0.929 . S
H1439 C1448 0.929 . S
C1440 H1434 0.930 . S
C1440 C1441 1.367 . S
C1440 C1448 1.378 . S
C1441 C1440 1.367 . S
C1441 C1449 1.433 . S
C1442 H1438 0.929 . S
C1442 C1444 1.378 . S
C1442 C1446 1.350 . S
C1443 C1446 1.463 . S
C1443 C1448 1.350 . S
C1443 N1451 1.427 . S
C1444 H1435 0.930 . S
C1444 C1442 1.378 . S
C1444 C1445 1.367 . S
C1445 C1444 1.367 . S
C1445 C1447 1.433 . S
C1446 C1442 1.350 . S
C1446 C1443 1.463 . S
C1446 N1450 1.427 . S
C1447 H1437 0.929 . S
C1447 C1445 1.433 . S
C1447 N1450 1.384 . S
C1448 H1439 0.929 . S
C1448 C1440 1.378 . S
C1448 C1443 1.350 . S
C1449 H1436 0.929 . S
C1449 C1441 1.433 . S
C1449 N1451 1.384 . S
N1450 C1446 1.427 . S
N1450 C1447 1.384 . S
N1451 C1443 1.427 . S
N1451 C1449 1.384 . S
H1452 C1458 0.930 . S
H1453 C1462 0.930 . S
H1454 C1467 0.929 . S
H1455 C1465 0.929 . S
H1456 C1460 0.929 . S
H1457 C1466 0.929 . S
C1458 H1452 0.930 . S
C1458 C1459 1.367 . S
C1458 C1466 1.378 . S
C1459 C1458 1.367 . S
C1459 C1467 1.433 . S
C1460 H1456 0.929 . S
C1460 C1462 1.378 . S
C1460 C1464 1.350 . S
C1461 C1464 1.463 . S
C1461 C1466 1.350 . S
C1461 N1469 1.427 . S
C1462 H1453 0.930 . S
C1462 C1460 1.378 . S
C1462 C1463 1.367 . S
C1463 C1462 1.367 . S
C1463 C1465 1.433 . S
C1464 C1460 1.350 . S
C1464 C1461 1.463 . S
C1464 N1468 1.427 . S
C1465 H1455 0.929 . S
C1465 C1463 1.433 . S
C1465 N1468 1.384 . S
C1466 H1457 0.929 . S
C1466 C1458 1.378 . S
C1466 C1461 1.350 . S
C1467 H1454 0.929 . S
C1467 C1459 1.433 . S
C1467 N1469 1.384 . S
N1468 C1464 1.427 . S
N1468 C1465 1.384 . S
N1469 C1461 1.427 . S
N1469 C1467 1.384 . S
H1470 C1476 0.930 . S
H1471 C1480 0.930 . S
H1472 C1485 0.929 . S
H1473 C1483 0.929 . S
H1474 C1478 0.929 . S
H1475 C1484 0.929 . S
C1476 H1470 0.930 . S
C1476 C1477 1.367 . S
C1476 C1484 1.378 . S
C1477 C1476 1.367 . S
C1477 C1485 1.433 . S
C1478 H1474 0.929 . S
C1478 C1480 1.378 . S
C1478 C1482 1.350 . S
C1479 C1482 1.463 . S
C1479 C1484 1.350 . S
C1479 N1487 1.427 . S
C1480 H1471 0.930 . S
C1480 C1478 1.378 . S
C1480 C1481 1.367 . S
C1481 C1480 1.367 . S
C1481 C1483 1.433 . S
C1482 C1478 1.350 . S
C1482 C1479 1.463 . S
C1482 N1486 1.427 . S
C1483 H1473 0.929 . S
C1483 C1481 1.433 . S
C1483 N1486 1.384 . S
C1484 H1475 0.929 . S
C1484 C1476 1.378 . S
C1484 C1479 1.350 . S
C1485 H1472 0.929 . S
C1485 C1477 1.433 . S
C1485 N1487 1.384 . S
N1486 C1482 1.427 . S
N1486 C1483 1.384 . S
N1487 C1479 1.427 . S
N1487 C1485 1.384 . S
H1488 C1494 0.930 . S
H1489 C1498 0.930 . S
H1490 C1503 0.929 . S
H1491 C1501 0.929 . S
H1492 C1496 0.929 . S
H1493 C1502 0.929 . S
C1494 H1488 0.930 . S
C1494 C1495 1.367 . S
C1494 C1502 1.378 . S
C1495 C1494 1.367 . S
C1495 C1503 1.433 . S
C1496 H1492 0.929 . S
C1496 C1498 1.378 . S
C1496 C1500 1.350 . S
C1497 C1500 1.463 . S
C1497 C1502 1.350 . S
C1497 N1505 1.427 . S
C1498 H1489 0.930 . S
C1498 C1496 1.378 . S
C1498 C1499 1.367 . S
C1499 C1498 1.367 . S
C1499 C1501 1.433 . S
C1500 C1496 1.350 . S
C1500 C1497 1.463 . S
C1500 N1504 1.427 . S
C1501 H1491 0.929 . S
C1501 C1499 1.433 . S
C1501 N1504 1.384 . S
C1502 H1493 0.929 . S
C1502 C1494 1.378 . S
C1502 C1497 1.350 . S
C1503 H1490 0.929 . S
C1503 C1495 1.433 . S
C1503 N1505 1.384 . S
N1504 C1500 1.427 . S
N1504 C1501 1.384 . S
N1505 C1497 1.427 . S
N1505 C1503 1.384 . S
H1506 C1512 0.930 . S
H1507 C1516 0.930 . S
H1508 C1521 0.929 . S
H1509 C1519 0.929 . S
H1510 C1514 0.929 . S
H1511 C1520 0.929 . S
C1512 H1506 0.930 . S
C1512 C1513 1.367 . S
C1512 C1520 1.378 . S
C1513 C1512 1.367 . S
C1513 C1521 1.433 . S
C1514 H1510 0.929 . S
C1514 C1516 1.378 . S
C1514 C1518 1.350 . S
C1515 C1518 1.463 . S
C1515 C1520 1.350 . S
C1515 N1523 1.427 . S
C1516 H1507 0.930 . S
C1516 C1514 1.378 . S
C1516 C1517 1.367 . S
C1517 C1516 1.367 . S
C1517 C1519 1.433 . S
C1518 C1514 1.350 . S
C1518 C1515 1.463 . S
C1518 N1522 1.427 . S
C1519 H1509 0.929 . S
C1519 C1517 1.433 . S
C1519 N1522 1.384 . S
C1520 H1511 0.929 . S
C1520 C1512 1.378 . S
C1520 C1515 1.350 . S
C1521 H1508 0.929 . S
C1521 C1513 1.433 . S
C1521 N1523 1.384 . S
N1522 C1518 1.427 . S
N1522 C1519 1.384 . S
N1523 C1515 1.427 . S
N1523 C1521 1.384 . S
H1524 C1530 0.930 . S
H1525 C1534 0.930 . S
H1526 C1539 0.929 . S
H1527 C1537 0.929 . S
H1528 C1532 0.929 . S
H1529 C1538 0.929 . S
C1530 H1524 0.930 . S
C1530 C1531 1.367 . S
C1530 C1538 1.378 . S
C1531 C1530 1.367 . S
C1531 C1539 1.433 . S
C1532 H1528 0.929 . S
C1532 C1534 1.378 . S
C1532 C1536 1.350 . S
C1533 C1536 1.463 . S
C1533 C1538 1.350 . S
C1533 N1541 1.427 . S
C1534 H1525 0.930 . S
C1534 C1532 1.378 . S
C1534 C1535 1.367 . S
C1535 C1534 1.367 . S
C1535 C1537 1.433 . S
C1536 C1532 1.350 . S
C1536 C1533 1.463 . S
C1536 N1540 1.427 . S
C1537 H1527 0.929 . S
C1537 C1535 1.433 . S
C1537 N1540 1.384 . S
C1538 H1529 0.929 . S
C1538 C1530 1.378 . S
C1538 C1533 1.350 . S
C1539 H1526 0.929 . S
C1539 C1531 1.433 . S
C1539 N1541 1.384 . S
N1540 C1536 1.427 . S
N1540 C1537 1.384 . S
N1541 C1533 1.427 . S
N1541 C1539 1.384 . S
H1542 C1548 0.930 . S
H1543 C1552 0.930 . S
H1544 C1557 0.929 . S
H1545 C1555 0.929 . S
H1546 C1550 0.929 . S
H1547 C1556 0.929 . S
C1548 H1542 0.930 . S
C1548 C1549 1.367 . S
C1548 C1556 1.378 . S
C1549 C1548 1.367 . S
C1549 C1557 1.433 . S
C1550 H1546 0.929 . S
C1550 C1552 1.378 . S
C1550 C1554 1.350 . S
C1551 C1554 1.463 . S
C1551 C1556 1.350 . S
C1551 N1559 1.427 . S
C1552 H1543 0.930 . S
C1552 C1550 1.378 . S
C1552 C1553 1.367 . S
C1553 C1552 1.367 . S
C1553 C1555 1.433 . S
C1554 C1550 1.350 . S
C1554 C1551 1.463 . S
C1554 N1558 1.427 . S
C1555 H1545 0.929 . S
C1555 C1553 1.433 . S
C1555 N1558 1.384 . S
C1556 H1547 0.929 . S
C1556 C1548 1.378 . S
C1556 C1551 1.350 . S
C1557 H1544 0.929 . S
C1557 C1549 1.433 . S
C1557 N1559 1.384 . S
N1558 C1554 1.427 . S
N1558 C1555 1.384 . S
N1559 C1551 1.427 . S
N1559 C1557 1.384 . S
H1560 C1566 0.930 . S
H1561 C1570 0.930 . S
H1562 C1575 0.929 . S
H1563 C1573 0.929 . S
H1564 C1568 0.929 . S
H1565 C1574 0.929 . S
C1566 H1560 0.930 . S
C1566 C1567 1.367 . S
C1566 C1574 1.378 . S
C1567 C1566 1.367 . S
C1567 C1575 1.433 . S
C1568 H1564 0.929 . S
C1568 C1570 1.378 . S
C1568 C1572 1.350 . S
C1569 C1572 1.463 . S
C1569 C1574 1.350 . S
C1569 N1577 1.427 . S
C1570 H1561 0.930 . S
C1570 C1568 1.378 . S
C1570 C1571 1.367 . S
C1571 C1570 1.367 . S
C1571 C1573 1.433 . S
C1572 C1568 1.350 . S
C1572 C1569 1.463 . S
C1572 N1576 1.427 . S
C1573 H1563 0.929 . S
C1573 C1571 1.433 . S
C1573 N1576 1.384 . S
C1574 H1565 0.929 . S
C1574 C1566 1.378 . S
C1574 C1569 1.350 . S
C1575 H1562 0.929 . S
C1575 C1567 1.433 . S
C1575 N1577 1.384 . S
N1576 C1572 1.427 . S
N1576 C1573 1.384 . S
N1577 C1569 1.427 . S
N1577 C1575 1.384 . S
H1578 C1584 0.930 . S
H1579 C1588 0.930 . S
H1580 C1593 0.929 . S
H1581 C1591 0.929 . S
H1582 C1586 0.929 . S
H1583 C1592 0.929 . S
C1584 H1578 0.930 . S
C1584 C1585 1.367 . S
C1584 C1592 1.378 . S
C1585 C1584 1.367 . S
C1585 C1593 1.433 . S
C1586 H1582 0.929 . S
C1586 C1588 1.378 . S
C1586 C1590 1.350 . S
C1587 C1590 1.463 . S
C1587 C1592 1.350 . S
C1587 N1595 1.427 . S
C1588 H1579 0.930 . S
C1588 C1586 1.378 . S
C1588 C1589 1.367 . S
C1589 C1588 1.367 . S
C1589 C1591 1.433 . S
C1590 C1586 1.350 . S
C1590 C1587 1.463 . S
C1590 N1594 1.427 . S
C1591 H1581 0.929 . S
C1591 C1589 1.433 . S
C1591 N1594 1.384 . S
C1592 H1583 0.929 . S
C1592 C1584 1.378 . S
C1592 C1587 1.350 . S
C1593 H1580 0.929 . S
C1593 C1585 1.433 . S
C1593 N1595 1.384 . S
N1594 C1590 1.427 . S
N1594 C1591 1.384 . S
N1595 C1587 1.427 . S
N1595 C1593 1.384 . S
H1596 C1602 0.930 . S
H1597 C1606 0.930 . S
H1598 C1611 0.929 . S
H1599 C1609 0.929 . S
H1600 C1604 0.929 . S
H1601 C1610 0.929 . S
C1602 H1596 0.930 . S
C1602 C1603 1.367 . S
C1602 C1610 1.378 . S
C1603 C1602 1.367 . S
C1603 C1611 1.433 . S
C1604 H1600 0.929 . S
C1604 C1606 1.378 . S
C1604 C1608 1.350 . S
C1605 C1608 1.463 . S
C1605 C1610 1.350 . S
C1605 N1613 1.427 . S
C1606 H1597 0.930 . S
C1606 C1604 1.378 . S
C1606 C1607 1.367 . S
C1607 C1606 1.367 . S
C1607 C1609 1.433 . S
C1608 C1604 1.350 . S
C1608 C1605 1.463 . S
C1608 N1612 1.427 . S
C1609 H1599 0.929 . S
C1609 C1607 1.433 . S
C1609 N1612 1.384 . S
C1610 H1601 0.929 . S
C1610 C1602 1.378 . S
C1610 C1605 1.350 . S
C1611 H1598 0.929 . S
C1611 C1603 1.433 . S
C1611 N1613 1.384 . S
N1612 C1608 1.427 . S
N1612 C1609 1.384 . S
N1613 C1605 1.427 . S
N1613 C1611 1.384 . S
H1614 C1620 0.930 . S
H1615 C1624 0.930 . S
H1616 C1629 0.929 . S
H1617 C1627 0.929 . S
H1618 C1622 0.929 . S
H1619 C1628 0.929 . S
C1620 H1614 0.930 . S
C1620 C1621 1.367 . S
C1620 C1628 1.378 . S
C1621 C1620 1.367 . S
C1621 C1629 1.433 . S
C1622 H1618 0.929 . S
C1622 C1624 1.378 . S
C1622 C1626 1.350 . S
C1623 C1626 1.463 . S
C1623 C1628 1.350 . S
C1623 N1631 1.427 . S
C1624 H1615 0.930 . S
C1624 C1622 1.378 . S
C1624 C1625 1.367 . S
C1625 C1624 1.367 . S
C1625 C1627 1.433 . S
C1626 C1622 1.350 . S
C1626 C1623 1.463 . S
C1626 N1630 1.427 . S
C1627 H1617 0.929 . S
C1627 C1625 1.433 . S
C1627 N1630 1.384 . S
C1628 H1619 0.929 . S
C1628 C1620 1.378 . S
C1628 C1623 1.350 . S
C1629 H1616 0.929 . S
C1629 C1621 1.433 . S
C1629 N1631 1.384 . S
N1630 C1626 1.427 . S
N1630 C1627 1.384 . S
N1631 C1623 1.427 . S
N1631 C1629 1.384 . S
H1632 C1638 0.930 . S
H1633 C1642 0.930 . S
H1634 C1647 0.929 . S
H1635 C1645 0.929 . S
H1636 C1640 0.929 . S
H1637 C1646 0.929 . S
C1638 H1632 0.930 . S
C1638 C1639 1.367 . S
C1638 C1646 1.378 . S
C1639 C1638 1.367 . S
C1639 C1647 1.433 . S
C1640 H1636 0.929 . S
C1640 C1642 1.378 . S
C1640 C1644 1.350 . S
C1641 C1644 1.463 . S
C1641 C1646 1.350 . S
C1641 N1649 1.427 . S
C1642 H1633 0.930 . S
C1642 C1640 1.378 . S
C1642 C1643 1.367 . S
C1643 C1642 1.367 . S
C1643 C1645 1.433 . S
C1644 C1640 1.350 . S
C1644 C1641 1.463 . S
C1644 N1648 1.427 . S
C1645 H1635 0.929 . S
C1645 C1643 1.433 . S
C1645 N1648 1.384 . S
C1646 H1637 0.929 . S
C1646 C1638 1.378 . S
C1646 C1641 1.350 . S
C1647 H1634 0.929 . S
C1647 C1639 1.433 . S
C1647 N1649 1.384 . S
N1648 C1644 1.427 . S
N1648 C1645 1.384 . S
N1649 C1641 1.427 . S
N1649 C1647 1.384 . S
H1650 C1656 0.930 . S
H1651 C1660 0.930 . S
H1652 C1665 0.929 . S
H1653 C1663 0.929 . S
H1654 C1658 0.929 . S
H1655 C1664 0.929 . S
C1656 H1650 0.930 . S
C1656 C1657 1.367 . S
C1656 C1664 1.378 . S
C1657 C1656 1.367 . S
C1657 C1665 1.433 . S
C1658 H1654 0.929 . S
C1658 C1660 1.378 . S
C1658 C1662 1.350 . S
C1659 C1662 1.463 . S
C1659 C1664 1.350 . S
C1659 N1667 1.427 . S
C1660 H1651 0.930 . S
C1660 C1658 1.378 . S
C1660 C1661 1.367 . S
C1661 C1660 1.367 . S
C1661 C1663 1.433 . S
C1662 C1658 1.350 . S
C1662 C1659 1.463 . S
C1662 N1666 1.427 . S
C1663 H1653 0.929 . S
C1663 C1661 1.433 . S
C1663 N1666 1.384 . S
C1664 H1655 0.929 . S
C1664 C1656 1.378 . S
C1664 C1659 1.350 . S
C1665 H1652 0.929 . S
C1665 C1657 1.433 . S
C1665 N1667 1.384 . S
N1666 C1662 1.427 . S
N1666 C1663 1.384 . S
N1667 C1659 1.427 . S
N1667 C1665 1.384 . S
H1668 C1674 0.930 . S
H1669 C1678 0.930 . S
H1670 C1683 0.929 . S
H1671 C1681 0.929 . S
H1672 C1676 0.929 . S
H1673 C1682 0.929 . S
C1674 H1668 0.930 . S
C1674 C1675 1.367 . S
C1674 C1682 1.378 . S
C1675 C1674 1.367 . S
C1675 C1683 1.433 . S
C1676 H1672 0.929 . S
C1676 C1678 1.378 . S
C1676 C1680 1.350 . S
C1677 C1680 1.463 . S
C1677 C1682 1.350 . S
C1677 N1685 1.427 . S
C1678 H1669 0.930 . S
C1678 C1676 1.378 . S
C1678 C1679 1.367 . S
C1679 C1678 1.367 . S
C1679 C1681 1.433 . S
C1680 C1676 1.350 . S
C1680 C1677 1.463 . S
C1680 N1684 1.427 . S
C1681 H1671 0.929 . S
C1681 C1679 1.433 . S
C1681 N1684 1.384 . S
C1682 H1673 0.929 . S
C1682 C1674 1.378 . S
C1682 C1677 1.350 . S
C1683 H1670 0.929 . S
C1683 C1675 1.433 . S
C1683 N1685 1.384 . S
N1684 C1680 1.427 . S
N1684 C1681 1.384 . S
N1685 C1677 1.427 . S
N1685 C1683 1.384 . S
H1686 C1692 0.930 . S
H1687 C1696 0.930 . S
H1688 C1701 0.929 . S
H1689 C1699 0.929 . S
H1690 C1694 0.929 . S
H1691 C1700 0.929 . S
C1692 H1686 0.930 . S
C1692 C1693 1.367 . S
C1692 C1700 1.378 . S
C1693 C1692 1.367 . S
C1693 C1701 1.433 . S
C1694 H1690 0.929 . S
C1694 C1696 1.378 . S
C1694 C1698 1.350 . S
C1695 C1698 1.463 . S
C1695 C1700 1.350 . S
C1695 N1703 1.427 . S
C1696 H1687 0.930 . S
C1696 C1694 1.378 . S
C1696 C1697 1.367 . S
C1697 C1696 1.367 . S
C1697 C1699 1.433 . S
C1698 C1694 1.350 . S
C1698 C1695 1.463 . S
C1698 N1702 1.427 . S
C1699 H1689 0.929 . S
C1699 C1697 1.433 . S
C1699 N1702 1.384 . S
C1700 H1691 0.929 . S
C1700 C1692 1.378 . S
C1700 C1695 1.350 . S
C1701 H1688 0.929 . S
C1701 C1693 1.433 . S
C1701 N1703 1.384 . S
N1702 C1698 1.427 . S
N1702 C1699 1.384 . S
N1703 C1695 1.427 . S
N1703 C1701 1.384 . S
H1704 C1710 0.930 . S
H1705 C1714 0.930 . S
H1706 C1719 0.929 . S
H1707 C1717 0.929 . S
H1708 C1712 0.929 . S
H1709 C1718 0.929 . S
C1710 H1704 0.930 . S
C1710 C1711 1.367 . S
C1710 C1718 1.378 . S
C1711 C1710 1.367 . S
C1711 C1719 1.433 . S
C1712 H1708 0.929 . S
C1712 C1714 1.378 . S
C1712 C1716 1.350 . S
C1713 C1716 1.463 . S
C1713 C1718 1.350 . S
C1713 N1721 1.427 . S
C1714 H1705 0.930 . S
C1714 C1712 1.378 . S
C1714 C1715 1.367 . S
C1715 C1714 1.367 . S
C1715 C1717 1.433 . S
C1716 C1712 1.350 . S
C1716 C1713 1.463 . S
C1716 N1720 1.427 . S
C1717 H1707 0.929 . S
C1717 C1715 1.433 . S
C1717 N1720 1.384 . S
C1718 H1709 0.929 . S
C1718 C1710 1.378 . S
C1718 C1713 1.350 . S
C1719 H1706 0.929 . S
C1719 C1711 1.433 . S
C1719 N1721 1.384 . S
N1720 C1716 1.427 . S
N1720 C1717 1.384 . S
N1721 C1713 1.427 . S
N1721 C1719 1.384 . S
H1722 C1728 0.930 . S
H1723 C1732 0.930 . S
H1724 C1737 0.929 . S
H1725 C1735 0.929 . S
H1726 C1730 0.929 . S
H1727 C1736 0.929 . S
C1728 H1722 0.930 . S
C1728 C1729 1.367 . S
C1728 C1736 1.378 . S
C1729 C1728 1.367 . S
C1729 C1737 1.433 . S
C1730 H1726 0.929 . S
C1730 C1732 1.378 . S
C1730 C1734 1.350 . S
C1731 C1734 1.463 . S
C1731 C1736 1.350 . S
C1731 N1739 1.427 . S
C1732 H1723 0.930 . S
C1732 C1730 1.378 . S
C1732 C1733 1.367 . S
C1733 C1732 1.367 . S
C1733 C1735 1.433 . S
C1734 C1730 1.350 . S
C1734 C1731 1.463 . S
C1734 N1738 1.427 . S
C1735 H1725 0.929 . S
C1735 C1733 1.433 . S
C1735 N1738 1.384 . S
C1736 H1727 0.929 . S
C1736 C1728 1.378 . S
C1736 C1731 1.350 . S
C1737 H1724 0.929 . S
C1737 C1729 1.433 . S
C1737 N1739 1.384 . S
N1738 C1734 1.427 . S
N1738 C1735 1.384 . S
N1739 C1731 1.427 . S
N1739 C1737 1.384 . S
H1740 C1746 0.930 . S
H1741 C1750 0.930 . S
H1742 C1755 0.929 . S
H1743 C1753 0.929 . S
H1744 C1748 0.929 . S
H1745 C1754 0.929 . S
C1746 H1740 0.930 . S
C1746 C1747 1.367 . S
C1746 C1754 1.378 . S
C1747 C1746 1.367 . S
C1747 C1755 1.433 . S
C1748 H1744 0.929 . S
C1748 C1750 1.378 . S
C1748 C1752 1.350 . S
C1749 C1752 1.463 . S
C1749 C1754 1.350 . S
C1749 N1757 1.427 . S
C1750 H1741 0.930 . S
C1750 C1748 1.378 . S
C1750 C1751 1.367 . S
C1751 C1750 1.367 . S
C1751 C1753 1.433 . S
C1752 C1748 1.350 . S
C1752 C1749 1.463 . S
C1752 N1756 1.427 . S
C1753 H1743 0.929 . S
C1753 C1751 1.433 . S
C1753 N1756 1.384 . S
C1754 H1745 0.929 . S
C1754 C1746 1.378 . S
C1754 C1749 1.350 . S
C1755 H1742 0.929 . S
C1755 C1747 1.433 . S
C1755 N1757 1.384 . S
N1756 C1752 1.427 . S
N1756 C1753 1.384 . S
N1757 C1749 1.427 . S
N1757 C1755 1.384 . S
H1758 C1764 0.930 . S
H1759 C1768 0.930 . S
H1760 C1773 0.929 . S
H1761 C1771 0.929 . S
H1762 C1766 0.929 . S
H1763 C1772 0.929 . S
C1764 H1758 0.930 . S
C1764 C1765 1.367 . S
C1764 C1772 1.378 . S
C1765 C1764 1.367 . S
C1765 C1773 1.433 . S
C1766 H1762 0.929 . S
C1766 C1768 1.378 . S
C1766 C1770 1.350 . S
C1767 C1770 1.463 . S
C1767 C1772 1.350 . S
C1767 N1775 1.427 . S
C1768 H1759 0.930 . S
C1768 C1766 1.378 . S
C1768 C1769 1.367 . S
C1769 C1768 1.367 . S
C1769 C1771 1.433 . S
C1770 C1766 1.350 . S
C1770 C1767 1.463 . S
C1770 N1774 1.427 . S
C1771 H1761 0.929 . S
C1771 C1769 1.433 . S
C1771 N1774 1.384 . S
C1772 H1763 0.929 . S
C1772 C1764 1.378 . S
C1772 C1767 1.350 . S
C1773 H1760 0.929 . S
C1773 C1765 1.433 . S
C1773 N1775 1.384 . S
N1774 C1770 1.427 . S
N1774 C1771 1.384 . S
N1775 C1767 1.427 . S
N1775 C1773 1.384 . S
H1776 C1782 0.930 . S
H1777 C1786 0.930 . S
H1778 C1791 0.929 . S
H1779 C1789 0.929 . S
H1780 C1784 0.929 . S
H1781 C1790 0.929 . S
C1782 H1776 0.930 . S
C1782 C1783 1.367 . S
C1782 C1790 1.378 . S
C1783 C1782 1.367 . S
C1783 C1791 1.433 . S
C1784 H1780 0.929 . S
C1784 C1786 1.378 . S
C1784 C1788 1.350 . S
C1785 C1788 1.463 . S
C1785 C1790 1.350 . S
C1785 N1793 1.427 . S
C1786 H1777 0.930 . S
C1786 C1784 1.378 . S
C1786 C1787 1.367 . S
C1787 C1786 1.367 . S
C1787 C1789 1.433 . S
C1788 C1784 1.350 . S
C1788 C1785 1.463 . S
C1788 N1792 1.427 . S
C1789 H1779 0.929 . S
C1789 C1787 1.433 . S
C1789 N1792 1.384 . S
C1790 H1781 0.929 . S
C1790 C1782 1.378 . S
C1790 C1785 1.350 . S
C1791 H1778 0.929 . S
C1791 C1783 1.433 . S
C1791 N1793 1.384 . S
N1792 C1788 1.427 . S
N1792 C1789 1.384 . S
N1793 C1785 1.427 . S
N1793 C1791 1.384 . S
H1794 C1800 0.930 . S
H1795 C1804 0.930 . S
H1796 C1809 0.929 . S
H1797 C1807 0.929 . S
H1798 C1802 0.929 . S
H1799 C1808 0.929 . S
C1800 H1794 0.930 . S
C1800 C1801 1.367 . S
C1800 C1808 1.378 . S
C1801 C1800 1.367 . S
C1801 C1809 1.433 . S
C1802 H1798 0.929 . S
C1802 C1804 1.378 . S
C1802 C1806 1.350 . S
C1803 C1806 1.463 . S
C1803 C1808 1.350 . S
C1803 N1811 1.427 . S
C1804 H1795 0.930 . S
C1804 C1802 1.378 . S
C1804 C1805 1.367 . S
C1805 C1804 1.367 . S
C1805 C1807 1.433 . S
C1806 C1802 1.350 . S
C1806 C1803 1.463 . S
C1806 N1810 1.427 . S
C1807 H1797 0.929 . S
C1807 C1805 1.433 . S
C1807 N1810 1.384 . S
C1808 H1799 0.929 . S
C1808 C1800 1.378 . S
C1808 C1803 1.350 . S
C1809 H1796 0.929 . S
C1809 C1801 1.433 . S
C1809 N1811 1.384 . S
N1810 C1806 1.427 . S
N1810 C1807 1.384 . S
N1811 C1803 1.427 . S
N1811 C1809 1.384 . S
H1812 C1818 0.930 . S
H1813 C1822 0.930 . S
H1814 C1827 0.929 . S
H1815 C1825 0.929 . S
H1816 C1820 0.929 . S
H1817 C1826 0.929 . S
C1818 H1812 0.930 . S
C1818 C1819 1.367 . S
C1818 C1826 1.378 . S
C1819 C1818 1.367 . S
C1819 C1827 1.433 . S
C1820 H1816 0.929 . S
C1820 C1822 1.378 . S
C1820 C1824 1.350 . S
C1821 C1824 1.463 . S
C1821 C1826 1.350 . S
C1821 N1829 1.427 . S
C1822 H1813 0.930 . S
C1822 C1820 1.378 . S
C1822 C1823 1.367 . S
C1823 C1822 1.367 . S
C1823 C1825 1.433 . S
C1824 C1820 1.350 . S
C1824 C1821 1.463 . S
C1824 N1828 1.427 . S
C1825 H1815 0.929 . S
C1825 C1823 1.433 . S
C1825 N1828 1.384 . S
C1826 H1817 0.929 . S
C1826 C1818 1.378 . S
C1826 C1821 1.350 . S
C1827 H1814 0.929 . S
C1827 C1819 1.433 . S
C1827 N1829 1.384 . S
N1828 C1824 1.427 . S
N1828 C1825 1.384 . S
N1829 C1821 1.427 . S
N1829 C1827 1.384 . S
H1830 C1836 0.930 . S
H1831 C1840 0.930 . S
H1832 C1845 0.929 . S
H1833 C1843 0.929 . S
H1834 C1838 0.929 . S
H1835 C1844 0.929 . S
C1836 H1830 0.930 . S
C1836 C1837 1.367 . S
C1836 C1844 1.378 . S
C1837 C1836 1.367 . S
C1837 C1845 1.433 . S
C1838 H1834 0.929 . S
C1838 C1840 1.378 . S
C1838 C1842 1.350 . S
C1839 C1842 1.463 . S
C1839 C1844 1.350 . S
C1839 N1847 1.427 . S
C1840 H1831 0.930 . S
C1840 C1838 1.378 . S
C1840 C1841 1.367 . S
C1841 C1840 1.367 . S
C1841 C1843 1.433 . S
C1842 C1838 1.350 . S
C1842 C1839 1.463 . S
C1842 N1846 1.427 . S
C1843 H1833 0.929 . S
C1843 C1841 1.433 . S
C1843 N1846 1.384 . S
C1844 H1835 0.929 . S
C1844 C1836 1.378 . S
C1844 C1839 1.350 . S
C1845 H1832 0.929 . S
C1845 C1837 1.433 . S
C1845 N1847 1.384 . S
N1846 C1842 1.427 . S
N1846 C1843 1.384 . S
N1847 C1839 1.427 . S
N1847 C1845 1.384 . S
H1848 C1854 0.930 . S
H1849 C1858 0.930 . S
H1850 C1863 0.929 . S
H1851 C1861 0.929 . S
H1852 C1856 0.929 . S
H1853 C1862 0.929 . S
C1854 H1848 0.930 . S
C1854 C1855 1.367 . S
C1854 C1862 1.378 . S
C1855 C1854 1.367 . S
C1855 C1863 1.433 . S
C1856 H1852 0.929 . S
C1856 C1858 1.378 . S
C1856 C1860 1.350 . S
C1857 C1860 1.463 . S
C1857 C1862 1.350 . S
C1857 N1865 1.427 . S
C1858 H1849 0.930 . S
C1858 C1856 1.378 . S
C1858 C1859 1.367 . S
C1859 C1858 1.367 . S
C1859 C1861 1.433 . S
C1860 C1856 1.350 . S
C1860 C1857 1.463 . S
C1860 N1864 1.427 . S
C1861 H1851 0.929 . S
C1861 C1859 1.433 . S
C1861 N1864 1.384 . S
C1862 H1853 0.929 . S
C1862 C1854 1.378 . S
C1862 C1857 1.350 . S
C1863 H1850 0.929 . S
C1863 C1855 1.433 . S
C1863 N1865 1.384 . S
N1864 C1860 1.427 . S
N1864 C1861 1.384 . S
N1865 C1857 1.427 . S
N1865 C1863 1.384 . S
H1866 C1872 0.930 . S
H1867 C1876 0.930 . S
H1868 C1881 0.929 . S
H1869 C1879 0.929 . S
H1870 C1874 0.929 . S
H1871 C1880 0.929 . S
C1872 H1866 0.930 . S
C1872 C1873 1.367 . S
C1872 C1880 1.378 . S
C1873 C1872 1.367 . S
C1873 C1881 1.433 . S
C1874 H1870 0.929 . S
C1874 C1876 1.378 . S
C1874 C1878 1.350 . S
C1875 C1878 1.463 . S
C1875 C1880 1.350 . S
C1875 N1883 1.427 . S
C1876 H1867 0.930 . S
C1876 C1874 1.378 . S
C1876 C1877 1.367 . S
C1877 C1876 1.367 . S
C1877 C1879 1.433 . S
C1878 C1874 1.350 . S
C1878 C1875 1.463 . S
C1878 N1882 1.427 . S
C1879 H1869 0.929 . S
C1879 C1877 1.433 . S
C1879 N1882 1.384 . S
C1880 H1871 0.929 . S
C1880 C1872 1.378 . S
C1880 C1875 1.350 . S
C1881 H1868 0.929 . S
C1881 C1873 1.433 . S
C1881 N1883 1.384 . S
N1882 C1878 1.427 . S
N1882 C1879 1.384 . S
N1883 C1875 1.427 . S
N1883 C1881 1.384 . S
H1884 C1890 0.930 . S
H1885 C1894 0.930 . S
H1886 C1899 0.929 . S
H1887 C1897 0.929 . S
H1888 C1892 0.929 . S
H1889 C1898 0.929 . S
C1890 H1884 0.930 . S
C1890 C1891 1.367 . S
C1890 C1898 1.378 . S
C1891 C1890 1.367 . S
C1891 C1899 1.433 . S
C1892 H1888 0.929 . S
C1892 C1894 1.378 . S
C1892 C1896 1.350 . S
C1893 C1896 1.463 . S
C1893 C1898 1.350 . S
C1893 N1901 1.427 . S
C1894 H1885 0.930 . S
C1894 C1892 1.378 . S
C1894 C1895 1.367 . S
C1895 C1894 1.367 . S
C1895 C1897 1.433 . S
C1896 C1892 1.350 . S
C1896 C1893 1.463 . S
C1896 N1900 1.427 . S
C1897 H1887 0.929 . S
C1897 C1895 1.433 . S
C1897 N1900 1.384 . S
C1898 H1889 0.929 . S
C1898 C1890 1.378 . S
C1898 C1893 1.350 . S
C1899 H1886 0.929 . S
C1899 C1891 1.433 . S
C1899 N1901 1.384 . S
N1900 C1896 1.427 . S
N1900 C1897 1.384 . S
N1901 C1893 1.427 . S
N1901 C1899 1.384 . S
H1902 C1908 0.930 . S
H1903 C1912 0.930 . S
H1904 C1917 0.929 . S
H1905 C1915 0.929 . S
H1906 C1910 0.929 . S
H1907 C1916 0.929 . S
C1908 H1902 0.930 . S
C1908 C1909 1.367 . S
C1908 C1916 1.378 . S
C1909 C1908 1.367 . S
C1909 C1917 1.433 . S
C1910 H1906 0.929 . S
C1910 C1912 1.378 . S
C1910 C1914 1.350 . S
C1911 C1914 1.463 . S
C1911 C1916 1.350 . S
C1911 N1919 1.427 . S
C1912 H1903 0.930 . S
C1912 C1910 1.378 . S
C1912 C1913 1.367 . S
C1913 C1912 1.367 . S
C1913 C1915 1.433 . S
C1914 C1910 1.350 . S
C1914 C1911 1.463 . S
C1914 N1918 1.427 . S
C1915 H1905 0.929 . S
C1915 C1913 1.433 . S
C1915 N1918 1.384 . S
C1916 H1907 0.929 . S
C1916 C1908 1.378 . S
C1916 C1911 1.350 . S
C1917 H1904 0.929 . S
C1917 C1909 1.433 . S
C1917 N1919 1.384 . S
N1918 C1914 1.427 . S
N1918 C1915 1.384 . S
N1919 C1911 1.427 . S
N1919 C1917 1.384 . S
H1920 C1926 0.930 . S
H1921 C1930 0.930 . S
H1922 C1935 0.929 . S
H1923 C1933 0.929 . S
H1924 C1928 0.929 . S
H1925 C1934 0.929 . S
C1926 H1920 0.930 . S
C1926 C1927 1.367 . S
C1926 C1934 1.378 . S
C1927 C1926 1.367 . S
C1927 C1935 1.433 . S
C1928 H1924 0.929 . S
C1928 C1930 1.378 . S
C1928 C1932 1.350 . S
C1929 C1932 1.463 . S
C1929 C1934 1.350 . S
C1929 N1937 1.427 . S
C1930 H1921 0.930 . S
C1930 C1928 1.378 . S
C1930 C1931 1.367 . S
C1931 C1930 1.367 . S
C1931 C1933 1.433 . S
C1932 C1928 1.350 . S
C1932 C1929 1.463 . S
C1932 N1936 1.427 . S
C1933 H1923 0.929 . S
C1933 C1931 1.433 . S
C1933 N1936 1.384 . S
C1934 H1925 0.929 . S
C1934 C1926 1.378 . S
C1934 C1929 1.350 . S
C1935 H1922 0.929 . S
C1935 C1927 1.433 . S
C1935 N1937 1.384 . S
N1936 C1932 1.427 . S
N1936 C1933 1.384 . S
N1937 C1929 1.427 . S
N1937 C1935 1.384 . S
H1938 C1944 0.930 . S
H1939 C1948 0.930 . S
H1940 C1953 0.929 . S
H1941 C1951 0.929 . S
H1942 C1946 0.929 . S
H1943 C1952 0.929 . S
C1944 H1938 0.930 . S
C1944 C1945 1.367 . S
C1944 C1952 1.378 . S
C1945 C1944 1.367 . S
C1945 C1953 1.433 . S
C1946 H1942 0.929 . S
C1946 C1948 1.378 . S
C1946 C1950 1.350 . S
C1947 C1950 1.463 . S
C1947 C1952 1.350 . S
C1947 N1955 1.427 . S
C1948 H1939 0.930 . S
C1948 C1946 1.378 . S
C1948 C1949 1.367 . S
C1949 C1948 1.367 . S
C1949 C1951 1.433 . S
C1950 C1946 1.350 . S
C1950 C1947 1.463 . S
C1950 N1954 1.427 . S
C1951 H1941 0.929 . S
C1951 C1949 1.433 . S
C1951 N1954 1.384 . S
C1952 H1943 0.929 . S
C1952 C1944 1.378 . S
C1952 C1947 1.350 . S
C1953 H1940 0.929 . S
C1953 C1945 1.433 . S
C1953 N1955 1.384 . S
N1954 C1950 1.427 . S
N1954 C1951 1.384 . S
N1955 C1947 1.427 . S
N1955 C1953 1.384 . S
H1956 C1962 0.930 . S
H1957 C1966 0.930 . S
H1958 C1971 0.929 . S
H1959 C1969 0.929 . S
H1960 C1964 0.929 . S
H1961 C1970 0.929 . S
C1962 H1956 0.930 . S
C1962 C1963 1.367 . S
C1962 C1970 1.378 . S
C1963 C1962 1.367 . S
C1963 C1971 1.433 . S
C1964 H1960 0.929 . S
C1964 C1966 1.378 . S
C1964 C1968 1.350 . S
C1965 C1968 1.463 . S
C1965 C1970 1.350 . S
C1965 N1973 1.427 . S
C1966 H1957 0.930 . S
C1966 C1964 1.378 . S
C1966 C1967 1.367 . S
C1967 C1966 1.367 . S
C1967 C1969 1.433 . S
C1968 C1964 1.350 . S
C1968 C1965 1.463 . S
C1968 N1972 1.427 . S
C1969 H1959 0.929 . S
C1969 C1967 1.433 . S
C1969 N1972 1.384 . S
C1970 H1961 0.929 . S
C1970 C1962 1.378 . S
C1970 C1965 1.350 . S
C1971 H1958 0.929 . S
C1971 C1963 1.433 . S
C1971 N1973 1.384 . S
N1972 C1968 1.427 . S
N1972 C1969 1.384 . S
N1973 C1965 1.427 . S
N1973 C1971 1.384 . S
H1974 C1980 0.930 . S
H1975 C1984 0.930 . S
H1976 C1989 0.929 . S
H1977 C1987 0.929 . S
H1978 C1982 0.929 . S
H1979 C1988 0.929 . S
C1980 H1974 0.930 . S
C1980 C1981 1.367 . S
C1980 C1988 1.378 . S
C1981 C1980 1.367 . S
C1981 C1989 1.433 . S
C1982 H1978 0.929 . S
C1982 C1984 1.378 . S
C1982 C1986 1.350 . S
C1983 C1986 1.463 . S
C1983 C1988 1.350 . S
C1983 N1991 1.427 . S
C1984 H1975 0.930 . S
C1984 C1982 1.378 . S
C1984 C1985 1.367 . S
C1985 C1984 1.367 . S
C1985 C1987 1.433 . S
C1986 C1982 1.350 . S
C1986 C1983 1.463 . S
C1986 N1990 1.427 . S
C1987 H1977 0.929 . S
C1987 C1985 1.433 . S
C1987 N1990 1.384 . S
C1988 H1979 0.929 . S
C1988 C1980 1.378 . S
C1988 C1983 1.350 . S
C1989 H1976 0.929 . S
C1989 C1981 1.433 . S
C1989 N1991 1.384 . S
N1990 C1986 1.427 . S
N1990 C1987 1.384 . S
N1991 C1983 1.427 . S
N1991 C1989 1.384 . S
H1992 C1998 0.930 . S
H1993 C2002 0.930 . S
H1994 C2007 0.929 . S
H1995 C2005 0.929 . S
H1996 C2000 0.929 . S
H1997 C2006 0.929 . S
C1998 H1992 0.930 . S
C1998 C1999 1.367 . S
C1998 C2006 1.378 . S
C1999 C1998 1.367 . S
C1999 C2007 1.433 . S
C2000 H1996 0.929 . S
C2000 C2002 1.378 . S
C2000 C2004 1.350 . S
C2001 C2004 1.463 . S
C2001 C2006 1.350 . S
C2001 N2009 1.427 . S
C2002 H1993 0.930 . S
C2002 C2000 1.378 . S
C2002 C2003 1.367 . S
C2003 C2002 1.367 . S
C2003 C2005 1.433 . S
C2004 C2000 1.350 . S
C2004 C2001 1.463 . S
C2004 N2008 1.427 . S
C2005 H1995 0.929 . S
C2005 C2003 1.433 . S
C2005 N2008 1.384 . S
C2006 H1997 0.929 . S
C2006 C1998 1.378 . S
C2006 C2001 1.350 . S
C2007 H1994 0.929 . S
C2007 C1999 1.433 . S
C2007 N2009 1.384 . S
N2008 C2004 1.427 . S
N2008 C2005 1.384 . S
N2009 C2001 1.427 . S
N2009 C2007 1.384 . S
H2010 C2016 0.930 . S
H2011 C2020 0.930 . S
H2012 C2025 0.929 . S
H2013 C2023 0.929 . S
H2014 C2018 0.929 . S
H2015 C2024 0.929 . S
C2016 H2010 0.930 . S
C2016 C2017 1.367 . S
C2016 C2024 1.378 . S
C2017 C2016 1.367 . S
C2017 C2025 1.433 . S
C2018 H2014 0.929 . S
C2018 C2020 1.378 . S
C2018 C2022 1.350 . S
C2019 C2022 1.463 . S
C2019 C2024 1.350 . S
C2019 N2027 1.427 . S
C2020 H2011 0.930 . S
C2020 C2018 1.378 . S
C2020 C2021 1.367 . S
C2021 C2020 1.367 . S
C2021 C2023 1.433 . S
C2022 C2018 1.350 . S
C2022 C2019 1.463 . S
C2022 N2026 1.427 . S
C2023 H2013 0.929 . S
C2023 C2021 1.433 . S
C2023 N2026 1.384 . S
C2024 H2015 0.929 . S
C2024 C2016 1.378 . S
C2024 C2019 1.350 . S
C2025 H2012 0.929 . S
C2025 C2017 1.433 . S
C2025 N2027 1.384 . S
N2026 C2022 1.427 . S
N2026 C2023 1.384 . S
N2027 C2019 1.427 . S
N2027 C2025 1.384 . S
H2028 C2034 0.930 . S
H2029 C2038 0.930 . S
H2030 C2043 0.929 . S
H2031 C2041 0.929 . S
H2032 C2036 0.929 . S
H2033 C2042 0.929 . S
C2034 H2028 0.930 . S
C2034 C2035 1.367 . S
C2034 C2042 1.378 . S
C2035 C2034 1.367 . S
C2035 C2043 1.433 . S
C2036 H2032 0.929 . S
C2036 C2038 1.378 . S
C2036 C2040 1.350 . S
C2037 C2040 1.463 . S
C2037 C2042 1.350 . S
C2037 N2045 1.427 . S
C2038 H2029 0.930 . S
C2038 C2036 1.378 . S
C2038 C2039 1.367 . S
C2039 C2038 1.367 . S
C2039 C2041 1.433 . S
C2040 C2036 1.350 . S
C2040 C2037 1.463 . S
C2040 N2044 1.427 . S
C2041 H2031 0.929 . S
C2041 C2039 1.433 . S
C2041 N2044 1.384 . S
C2042 H2033 0.929 . S
C2042 C2034 1.378 . S
C2042 C2037 1.350 . S
C2043 H2030 0.929 . S
C2043 C2035 1.433 . S
C2043 N2045 1.384 . S
N2044 C2040 1.427 . S
N2044 C2041 1.384 . S
N2045 C2037 1.427 . S
N2045 C2043 1.384 . S
H2046 C2052 0.930 . S
H2047 C2056 0.930 . S
H2048 C2061 0.929 . S
H2049 C2059 0.929 . S
H2050 C2054 0.929 . S
H2051 C2060 0.929 . S
C2052 H2046 0.930 . S
C2052 C2053 1.367 . S
C2052 C2060 1.378 . S
C2053 C2052 1.367 . S
C2053 C2061 1.433 . S
C2054 H2050 0.929 . S
C2054 C2056 1.378 . S
C2054 C2058 1.350 . S
C2055 C2058 1.463 . S
C2055 C2060 1.350 . S
C2055 N2063 1.427 . S
C2056 H2047 0.930 . S
C2056 C2054 1.378 . S
C2056 C2057 1.367 . S
C2057 C2056 1.367 . S
C2057 C2059 1.433 . S
C2058 C2054 1.350 . S
C2058 C2055 1.463 . S
C2058 N2062 1.427 . S
C2059 H2049 0.929 . S
C2059 C2057 1.433 . S
C2059 N2062 1.384 . S
C2060 H2051 0.929 . S
C2060 C2052 1.378 . S
C2060 C2055 1.350 . S
C2061 H2048 0.929 . S
C2061 C2053 1.433 . S
C2061 N2063 1.384 . S
N2062 C2058 1.427 . S
N2062 C2059 1.384 . S
N2063 C2055 1.427 . S
N2063 C2061 1.384 . S
H2064 C2070 0.930 . S
H2065 C2074 0.930 . S
H2066 C2079 0.929 . S
H2067 C2077 0.929 . S
H2068 C2072 0.929 . S
H2069 C2078 0.929 . S
C2070 H2064 0.930 . S
C2070 C2071 1.367 . S
C2070 C2078 1.378 . S
C2071 C2070 1.367 . S
C2071 C2079 1.433 . S
C2072 H2068 0.929 . S
C2072 C2074 1.378 . S
C2072 C2076 1.350 . S
C2073 C2076 1.463 . S
C2073 C2078 1.350 . S
C2073 N2081 1.427 . S
C2074 H2065 0.930 . S
C2074 C2072 1.378 . S
C2074 C2075 1.367 . S
C2075 C2074 1.367 . S
C2075 C2077 1.433 . S
C2076 C2072 1.350 . S
C2076 C2073 1.463 . S
C2076 N2080 1.427 . S
C2077 H2067 0.929 . S
C2077 C2075 1.433 . S
C2077 N2080 1.384 . S
C2078 H2069 0.929 . S
C2078 C2070 1.378 . S
C2078 C2073 1.350 . S
C2079 H2066 0.929 . S
C2079 C2071 1.433 . S
C2079 N2081 1.384 . S
N2080 C2076 1.427 . S
N2080 C2077 1.384 . S
N2081 C2073 1.427 . S
N2081 C2079 1.384 . S
H2082 C2088 0.930 . S
H2083 C2092 0.930 . S
H2084 C2097 0.929 . S
H2085 C2095 0.929 . S
H2086 C2090 0.929 . S
H2087 C2096 0.929 . S
C2088 H2082 0.930 . S
C2088 C2089 1.367 . S
C2088 C2096 1.378 . S
C2089 C2088 1.367 . S
C2089 C2097 1.433 . S
C2090 H2086 0.929 . S
C2090 C2092 1.378 . S
C2090 C2094 1.350 . S
C2091 C2094 1.463 . S
C2091 C2096 1.350 . S
C2091 N2099 1.427 . S
C2092 H2083 0.930 . S
C2092 C2090 1.378 . S
C2092 C2093 1.367 . S
C2093 C2092 1.367 . S
C2093 C2095 1.433 . S
C2094 C2090 1.350 . S
C2094 C2091 1.463 . S
C2094 N2098 1.427 . S
C2095 H2085 0.929 . S
C2095 C2093 1.433 . S
C2095 N2098 1.384 . S
C2096 H2087 0.929 . S
C2096 C2088 1.378 . S
C2096 C2091 1.350 . S
C2097 H2084 0.929 . S
C2097 C2089 1.433 . S
C2097 N2099 1.384 . S
N2098 C2094 1.427 . S
N2098 C2095 1.384 . S
N2099 C2091 1.427 . S
N2099 C2097 1.384 . S
H2100 C2106 0.930 . S
H2101 C2110 0.930 . S
H2102 C2115 0.929 . S
H2103 C2113 0.929 . S
H2104 C2108 0.929 . S
H2105 C2114 0.929 . S
C2106 H2100 0.930 . S
C2106 C2107 1.367 . S
C2106 C2114 1.378 . S
C2107 C2106 1.367 . S
C2107 C2115 1.433 . S
C2108 H2104 0.929 . S
C2108 C2110 1.378 . S
C2108 C2112 1.350 . S
C2109 C2112 1.463 . S
C2109 C2114 1.350 . S
C2109 N2117 1.427 . S
C2110 H2101 0.930 . S
C2110 C2108 1.378 . S
C2110 C2111 1.367 . S
C2111 C2110 1.367 . S
C2111 C2113 1.433 . S
C2112 C2108 1.350 . S
C2112 C2109 1.463 . S
C2112 N2116 1.427 . S
C2113 H2103 0.929 . S
C2113 C2111 1.433 . S
C2113 N2116 1.384 . S
C2114 H2105 0.929 . S
C2114 C2106 1.378 . S
C2114 C2109 1.350 . S
C2115 H2102 0.929 . S
C2115 C2107 1.433 . S
C2115 N2117 1.384 . S
N2116 C2112 1.427 . S
N2116 C2113 1.384 . S
N2117 C2109 1.427 . S
N2117 C2115 1.384 . S
H2118 C2124 0.930 . S
H2119 C2128 0.930 . S
H2120 C2133 0.929 . S
H2121 C2131 0.929 . S
H2122 C2126 0.929 . S
H2123 C2132 0.929 . S
C2124 H2118 0.930 . S
C2124 C2125 1.367 . S
C2124 C2132 1.378 . S
C2125 C2124 1.367 . S
C2125 C2133 1.433 . S
C2126 H2122 0.929 . S
C2126 C2128 1.378 . S
C2126 C2130 1.350 . S
C2127 C2130 1.463 . S
C2127 C2132 1.350 . S
C2127 N2135 1.427 . S
C2128 H2119 0.930 . S
C2128 C2126 1.378 . S
C2128 C2129 1.367 . S
C2129 C2128 1.367 . S
C2129 C2131 1.433 . S
C2130 C2126 1.350 . S
C2130 C2127 1.463 . S
C2130 N2134 1.427 . S
C2131 H2121 0.929 . S
C2131 C2129 1.433 . S
C2131 N2134 1.384 . S
C2132 H2123 0.929 . S
C2132 C2124 1.378 . S
C2132 C2127 1.350 . S
C2133 H2120 0.929 . S
C2133 C2125 1.433 . S
C2133 N2135 1.384 . S
N2134 C2130 1.427 . S
N2134 C2131 1.384 . S
N2135 C2127 1.427 . S
N2135 C2133 1.384 . S
H2136 C2142 0.930 . S
H2137 C2146 0.930 . S
H2138 C2151 0.929 . S
H2139 C2149 0.929 . S
H2140 C2144 0.929 . S
H2141 C2150 0.929 . S
C2142 H2136 0.930 . S
C2142 C2143 1.367 . S
C2142 C2150 1.378 . S
C2143 C2142 1.367 . S
C2143 C2151 1.433 . S
C2144 H2140 0.929 . S
C2144 C2146 1.378 . S
C2144 C2148 1.350 . S
C2145 C2148 1.463 . S
C2145 C2150 1.350 . S
C2145 N2153 1.427 . S
C2146 H2137 0.930 . S
C2146 C2144 1.378 . S
C2146 C2147 1.367 . S
C2147 C2146 1.367 . S
C2147 C2149 1.433 . S
C2148 C2144 1.350 . S
C2148 C2145 1.463 . S
C2148 N2152 1.427 . S
C2149 H2139 0.929 . S
C2149 C2147 1.433 . S
C2149 N2152 1.384 . S
C2150 H2141 0.929 . S
C2150 C2142 1.378 . S
C2150 C2145 1.350 . S
C2151 H2138 0.929 . S
C2151 C2143 1.433 . S
C2151 N2153 1.384 . S
N2152 C2148 1.427 . S
N2152 C2149 1.384 . S
N2153 C2145 1.427 . S
N2153 C2151 1.384 . S
H2154 C2160 0.930 . S
H2155 C2164 0.930 . S
H2156 C2169 0.929 . S
H2157 C2167 0.929 . S
H2158 C2162 0.929 . S
H2159 C2168 0.929 . S
C2160 H2154 0.930 . S
C2160 C2161 1.367 . S
C2160 C2168 1.378 . S
C2161 C2160 1.367 . S
C2161 C2169 1.433 . S
C2162 H2158 0.929 . S
C2162 C2164 1.378 . S
C2162 C2166 1.350 . S
C2163 C2166 1.463 . S
C2163 C2168 1.350 . S
C2163 N2171 1.427 . S
C2164 H2155 0.930 . S
C2164 C2162 1.378 . S
C2164 C2165 1.367 . S
C2165 C2164 1.367 . S
C2165 C2167 1.433 . S
C2166 C2162 1.350 . S
C2166 C2163 1.463 . S
C2166 N2170 1.427 . S
C2167 H2157 0.929 . S
C2167 C2165 1.433 . S
C2167 N2170 1.384 . S
C2168 H2159 0.929 . S
C2168 C2160 1.378 . S
C2168 C2163 1.350 . S
C2169 H2156 0.929 . S
C2169 C2161 1.433 . S
C2169 N2171 1.384 . S
N2170 C2166 1.427 . S
N2170 C2167 1.384 . S
N2171 C2163 1.427 . S
N2171 C2169 1.384 . S
H2172 C2178 0.930 . S
H2173 C2182 0.930 . S
H2174 C2187 0.929 . S
H2175 C2185 0.929 . S
H2176 C2180 0.929 . S
H2177 C2186 0.929 . S
C2178 H2172 0.930 . S
C2178 C2179 1.367 . S
C2178 C2186 1.378 . S
C2179 C2178 1.367 . S
C2179 C2187 1.433 . S
C2180 H2176 0.929 . S
C2180 C2182 1.378 . S
C2180 C2184 1.350 . S
C2181 C2184 1.463 . S
C2181 C2186 1.350 . S
C2181 N2189 1.427 . S
C2182 H2173 0.930 . S
C2182 C2180 1.378 . S
C2182 C2183 1.367 . S
C2183 C2182 1.367 . S
C2183 C2185 1.433 . S
C2184 C2180 1.350 . S
C2184 C2181 1.463 . S
C2184 N2188 1.427 . S
C2185 H2175 0.929 . S
C2185 C2183 1.433 . S
C2185 N2188 1.384 . S
C2186 H2177 0.929 . S
C2186 C2178 1.378 . S
C2186 C2181 1.350 . S
C2187 H2174 0.929 . S
C2187 C2179 1.433 . S
C2187 N2189 1.384 . S
N2188 C2184 1.427 . S
N2188 C2185 1.384 . S
N2189 C2181 1.427 . S
N2189 C2187 1.384 . S
H2190 C2196 0.930 . S
H2191 C2200 0.930 . S
H2192 C2205 0.929 . S
H2193 C2203 0.929 . S
H2194 C2198 0.929 . S
H2195 C2204 0.929 . S
C2196 H2190 0.930 . S
C2196 C2197 1.367 . S
C2196 C2204 1.378 . S
C2197 C2196 1.367 . S
C2197 C2205 1.433 . S
C2198 H2194 0.929 . S
C2198 C2200 1.378 . S
C2198 C2202 1.350 . S
C2199 C2202 1.463 . S
C2199 C2204 1.350 . S
C2199 N2207 1.427 . S
C2200 H2191 0.930 . S
C2200 C2198 1.378 . S
C2200 C2201 1.367 . S
C2201 C2200 1.367 . S
C2201 C2203 1.433 . S
C2202 C2198 1.350 . S
C2202 C2199 1.463 . S
C2202 N2206 1.427 . S
C2203 H2193 0.929 . S
C2203 C2201 1.433 . S
C2203 N2206 1.384 . S
C2204 H2195 0.929 . S
C2204 C2196 1.378 . S
C2204 C2199 1.350 . S
C2205 H2192 0.929 . S
C2205 C2197 1.433 . S
C2205 N2207 1.384 . S
N2206 C2202 1.427 . S
N2206 C2203 1.384 . S
N2207 C2199 1.427 . S
N2207 C2205 1.384 . S
H2208 C2214 0.930 . S
H2209 C2218 0.930 . S
H2210 C2223 0.929 . S
H2211 C2221 0.929 . S
H2212 C2216 0.929 . S
H2213 C2222 0.929 . S
C2214 H2208 0.930 . S
C2214 C2215 1.367 . S
C2214 C2222 1.378 . S
C2215 C2214 1.367 . S
C2215 C2223 1.433 . S
C2216 H2212 0.929 . S
C2216 C2218 1.378 . S
C2216 C2220 1.350 . S
C2217 C2220 1.463 . S
C2217 C2222 1.350 . S
C2217 N2225 1.427 . S
C2218 H2209 0.930 . S
C2218 C2216 1.378 . S
C2218 C2219 1.367 . S
C2219 C2218 1.367 . S
C2219 C2221 1.433 . S
C2220 C2216 1.350 . S
C2220 C2217 1.463 . S
C2220 N2224 1.427 . S
C2221 H2211 0.929 . S
C2221 C2219 1.433 . S
C2221 N2224 1.384 . S
C2222 H2213 0.929 . S
C2222 C2214 1.378 . S
C2222 C2217 1.350 . S
C2223 H2210 0.929 . S
C2223 C2215 1.433 . S
C2223 N2225 1.384 . S
N2224 C2220 1.427 . S
N2224 C2221 1.384 . S
N2225 C2217 1.427 . S
N2225 C2223 1.384 . S
H2226 C2232 0.930 . S
H2227 C2236 0.930 . S
H2228 C2241 0.929 . S
H2229 C2239 0.929 . S
H2230 C2234 0.929 . S
H2231 C2240 0.929 . S
C2232 H2226 0.930 . S
C2232 C2233 1.367 . S
C2232 C2240 1.378 . S
C2233 C2232 1.367 . S
C2233 C2241 1.433 . S
C2234 H2230 0.929 . S
C2234 C2236 1.378 . S
C2234 C2238 1.350 . S
C2235 C2238 1.463 . S
C2235 C2240 1.350 . S
C2235 N2243 1.427 . S
C2236 H2227 0.930 . S
C2236 C2234 1.378 . S
C2236 C2237 1.367 . S
C2237 C2236 1.367 . S
C2237 C2239 1.433 . S
C2238 C2234 1.350 . S
C2238 C2235 1.463 . S
C2238 N2242 1.427 . S
C2239 H2229 0.929 . S
C2239 C2237 1.433 . S
C2239 N2242 1.384 . S
C2240 H2231 0.929 . S
C2240 C2232 1.378 . S
C2240 C2235 1.350 . S
C2241 H2228 0.929 . S
C2241 C2233 1.433 . S
C2241 N2243 1.384 . S
N2242 C2238 1.427 . S
N2242 C2239 1.384 . S
N2243 C2235 1.427 . S
N2243 C2241 1.384 . S
H2244 C2250 0.930 . S
H2245 C2254 0.930 . S
H2246 C2259 0.929 . S
H2247 C2257 0.929 . S
H2248 C2252 0.929 . S
H2249 C2258 0.929 . S
C2250 H2244 0.930 . S
C2250 C2251 1.367 . S
C2250 C2258 1.378 . S
C2251 C2250 1.367 . S
C2251 C2259 1.433 . S
C2252 H2248 0.929 . S
C2252 C2254 1.378 . S
C2252 C2256 1.350 . S
C2253 C2256 1.463 . S
C2253 C2258 1.350 . S
C2253 N2261 1.427 . S
C2254 H2245 0.930 . S
C2254 C2252 1.378 . S
C2254 C2255 1.367 . S
C2255 C2254 1.367 . S
C2255 C2257 1.433 . S
C2256 C2252 1.350 . S
C2256 C2253 1.463 . S
C2256 N2260 1.427 . S
C2257 H2247 0.929 . S
C2257 C2255 1.433 . S
C2257 N2260 1.384 . S
C2258 H2249 0.929 . S
C2258 C2250 1.378 . S
C2258 C2253 1.350 . S
C2259 H2246 0.929 . S
C2259 C2251 1.433 . S
C2259 N2261 1.384 . S
N2260 C2256 1.427 . S
N2260 C2257 1.384 . S
N2261 C2253 1.427 . S
N2261 C2259 1.384 . S
H2262 C2268 0.930 . S
H2263 C2272 0.930 . S
H2264 C2277 0.929 . S
H2265 C2275 0.929 . S
H2266 C2270 0.929 . S
H2267 C2276 0.929 . S
C2268 H2262 0.930 . S
C2268 C2269 1.367 . S
C2268 C2276 1.378 . S
C2269 C2268 1.367 . S
C2269 C2277 1.433 . S
C2270 H2266 0.929 . S
C2270 C2272 1.378 . S
C2270 C2274 1.350 . S
C2271 C2274 1.463 . S
C2271 C2276 1.350 . S
C2271 N2279 1.427 . S
C2272 H2263 0.930 . S
C2272 C2270 1.378 . S
C2272 C2273 1.367 . S
C2273 C2272 1.367 . S
C2273 C2275 1.433 . S
C2274 C2270 1.350 . S
C2274 C2271 1.463 . S
C2274 N2278 1.427 . S
C2275 H2265 0.929 . S
C2275 C2273 1.433 . S
C2275 N2278 1.384 . S
C2276 H2267 0.929 . S
C2276 C2268 1.378 . S
C2276 C2271 1.350 . S
C2277 H2264 0.929 . S
C2277 C2269 1.433 . S
C2277 N2279 1.384 . S
N2278 C2274 1.427 . S
N2278 C2275 1.384 . S
N2279 C2271 1.427 . S
N2279 C2277 1.384 . S
H2280 C2286 0.930 . S
H2281 C2290 0.930 . S
H2282 C2295 0.929 . S
H2283 C2293 0.929 . S
H2284 C2288 0.929 . S
H2285 C2294 0.929 . S
C2286 H2280 0.930 . S
C2286 C2287 1.367 . S
C2286 C2294 1.378 . S
C2287 C2286 1.367 . S
C2287 C2295 1.433 . S
C2288 H2284 0.929 . S
C2288 C2290 1.378 . S
C2288 C2292 1.350 . S
C2289 C2292 1.463 . S
C2289 C2294 1.350 . S
C2289 N2297 1.427 . S
C2290 H2281 0.930 . S
C2290 C2288 1.378 . S
C2290 C2291 1.367 . S
C2291 C2290 1.367 . S
C2291 C2293 1.433 . S
C2292 C2288 1.350 . S
C2292 C2289 1.463 . S
C2292 N2296 1.427 . S
C2293 H2283 0.929 . S
C2293 C2291 1.433 . S
C2293 N2296 1.384 . S
C2294 H2285 0.929 . S
C2294 C2286 1.378 . S
C2294 C2289 1.350 . S
C2295 H2282 0.929 . S
C2295 C2287 1.433 . S
C2295 N2297 1.384 . S
N2296 C2292 1.427 . S
N2296 C2293 1.384 . S
N2297 C2289 1.427 . S
N2297 C2295 1.384 . S
H2298 C2304 0.930 . S
H2299 C2308 0.930 . S
H2300 C2313 0.929 . S
H2301 C2311 0.929 . S
H2302 C2306 0.929 . S
H2303 C2312 0.929 . S
C2304 H2298 0.930 . S
C2304 C2305 1.367 . S
C2304 C2312 1.378 . S
C2305 C2304 1.367 . S
C2305 C2313 1.433 . S
C2306 H2302 0.929 . S
C2306 C2308 1.378 . S
C2306 C2310 1.350 . S
C2307 C2310 1.463 . S
C2307 C2312 1.350 . S
C2307 N2315 1.427 . S
C2308 H2299 0.930 . S
C2308 C2306 1.378 . S
C2308 C2309 1.367 . S
C2309 C2308 1.367 . S
C2309 C2311 1.433 . S
C2310 C2306 1.350 . S
C2310 C2307 1.463 . S
C2310 N2314 1.427 . S
C2311 H2301 0.929 . S
C2311 C2309 1.433 . S
C2311 N2314 1.384 . S
C2312 H2303 0.929 . S
C2312 C2304 1.378 . S
C2312 C2307 1.350 . S
C2313 H2300 0.929 . S
C2313 C2305 1.433 . S
C2313 N2315 1.384 . S
N2314 C2310 1.427 . S
N2314 C2311 1.384 . S
N2315 C2307 1.427 . S
N2315 C2313 1.384 . S
H2316 C2322 0.930 . S
H2317 C2326 0.930 . S
H2318 C2331 0.929 . S
H2319 C2329 0.929 . S
H2320 C2324 0.929 . S
H2321 C2330 0.929 . S
C2322 H2316 0.930 . S
C2322 C2323 1.367 . S
C2322 C2330 1.378 . S
C2323 C2322 1.367 . S
C2323 C2331 1.433 . S
C2324 H2320 0.929 . S
C2324 C2326 1.378 . S
C2324 C2328 1.350 . S
C2325 C2328 1.463 . S
C2325 C2330 1.350 . S
C2325 N2333 1.427 . S
C2326 H2317 0.930 . S
C2326 C2324 1.378 . S
C2326 C2327 1.367 . S
C2327 C2326 1.367 . S
C2327 C2329 1.433 . S
C2328 C2324 1.350 . S
C2328 C2325 1.463 . S
C2328 N2332 1.427 . S
C2329 H2319 0.929 . S
C2329 C2327 1.433 . S
C2329 N2332 1.384 . S
C2330 H2321 0.929 . S
C2330 C2322 1.378 . S
C2330 C2325 1.350 . S
C2331 H2318 0.929 . S
C2331 C2323 1.433 . S
C2331 N2333 1.384 . S
N2332 C2328 1.427 . S
N2332 C2329 1.384 . S
N2333 C2325 1.427 . S
N2333 C2331 1.384 . S
H2334 C2340 0.930 . S
H2335 C2344 0.930 . S
H2336 C2349 0.929 . S
H2337 C2347 0.929 . S
H2338 C2342 0.929 . S
H2339 C2348 0.929 . S
C2340 H2334 0.930 . S
C2340 C2341 1.367 . S
C2340 C2348 1.378 . S
C2341 C2340 1.367 . S
C2341 C2349 1.433 . S
C2342 H2338 0.929 . S
C2342 C2344 1.378 . S
C2342 C2346 1.350 . S
C2343 C2346 1.463 . S
C2343 C2348 1.350 . S
C2343 N2351 1.427 . S
C2344 H2335 0.930 . S
C2344 C2342 1.378 . S
C2344 C2345 1.367 . S
C2345 C2344 1.367 . S
C2345 C2347 1.433 . S
C2346 C2342 1.350 . S
C2346 C2343 1.463 . S
C2346 N2350 1.427 . S
C2347 H2337 0.929 . S
C2347 C2345 1.433 . S
C2347 N2350 1.384 . S
C2348 H2339 0.929 . S
C2348 C2340 1.378 . S
C2348 C2343 1.350 . S
C2349 H2336 0.929 . S
C2349 C2341 1.433 . S
C2349 N2351 1.384 . S
N2350 C2346 1.427 . S
N2350 C2347 1.384 . S
N2351 C2343 1.427 . S
N2351 C2349 1.384 . S
H2352 C2358 0.930 . S
H2353 C2362 0.930 . S
H2354 C2367 0.929 . S
H2355 C2365 0.929 . S
H2356 C2360 0.929 . S
H2357 C2366 0.929 . S
C2358 H2352 0.930 . S
C2358 C2359 1.367 . S
C2358 C2366 1.378 . S
C2359 C2358 1.367 . S
C2359 C2367 1.433 . S
C2360 H2356 0.929 . S
C2360 C2362 1.378 . S
C2360 C2364 1.350 . S
C2361 C2364 1.463 . S
C2361 C2366 1.350 . S
C2361 N2369 1.427 . S
C2362 H2353 0.930 . S
C2362 C2360 1.378 . S
C2362 C2363 1.367 . S
C2363 C2362 1.367 . S
C2363 C2365 1.433 . S
C2364 C2360 1.350 . S
C2364 C2361 1.463 . S
C2364 N2368 1.427 . S
C2365 H2355 0.929 . S
C2365 C2363 1.433 . S
C2365 N2368 1.384 . S
C2366 H2357 0.929 . S
C2366 C2358 1.378 . S
C2366 C2361 1.350 . S
C2367 H2354 0.929 . S
C2367 C2359 1.433 . S
C2367 N2369 1.384 . S
N2368 C2364 1.427 . S
N2368 C2365 1.384 . S
N2369 C2361 1.427 . S
N2369 C2367 1.384 . S
H2370 C2376 0.930 . S
H2371 C2380 0.930 . S
H2372 C2385 0.929 . S
H2373 C2383 0.929 . S
H2374 C2378 0.929 . S
H2375 C2384 0.929 . S
C2376 H2370 0.930 . S
C2376 C2377 1.367 . S
C2376 C2384 1.378 . S
C2377 C2376 1.367 . S
C2377 C2385 1.433 . S
C2378 H2374 0.929 . S
C2378 C2380 1.378 . S
C2378 C2382 1.350 . S
C2379 C2382 1.463 . S
C2379 C2384 1.350 . S
C2379 N2387 1.427 . S
C2380 H2371 0.930 . S
C2380 C2378 1.378 . S
C2380 C2381 1.367 . S
C2381 C2380 1.367 . S
C2381 C2383 1.433 . S
C2382 C2378 1.350 . S
C2382 C2379 1.463 . S
C2382 N2386 1.427 . S
C2383 H2373 0.929 . S
C2383 C2381 1.433 . S
C2383 N2386 1.384 . S
C2384 H2375 0.929 . S
C2384 C2376 1.378 . S
C2384 C2379 1.350 . S
C2385 H2372 0.929 . S
C2385 C2377 1.433 . S
C2385 N2387 1.384 . S
N2386 C2382 1.427 . S
N2386 C2383 1.384 . S
N2387 C2379 1.427 . S
N2387 C2385 1.384 . S
H2388 C2394 0.930 . S
H2389 C2398 0.930 . S
H2390 C2403 0.929 . S
H2391 C2401 0.929 . S
H2392 C2396 0.929 . S
H2393 C2402 0.929 . S
C2394 H2388 0.930 . S
C2394 C2395 1.367 . S
C2394 C2402 1.378 . S
C2395 C2394 1.367 . S
C2395 C2403 1.433 . S
C2396 H2392 0.929 . S
C2396 C2398 1.378 . S
C2396 C2400 1.350 . S
C2397 C2400 1.463 . S
C2397 C2402 1.350 . S
C2397 N2405 1.427 . S
C2398 H2389 0.930 . S
C2398 C2396 1.378 . S
C2398 C2399 1.367 . S
C2399 C2398 1.367 . S
C2399 C2401 1.433 . S
C2400 C2396 1.350 . S
C2400 C2397 1.463 . S
C2400 N2404 1.427 . S
C2401 H2391 0.929 . S
C2401 C2399 1.433 . S
C2401 N2404 1.384 . S
C2402 H2393 0.929 . S
C2402 C2394 1.378 . S
C2402 C2397 1.350 . S
C2403 H2390 0.929 . S
C2403 C2395 1.433 . S
C2403 N2405 1.384 . S
N2404 C2400 1.427 . S
N2404 C2401 1.384 . S
N2405 C2397 1.427 . S
N2405 C2403 1.384 . S
H2406 C2412 0.930 . S
H2407 C2416 0.930 . S
H2408 C2421 0.929 . S
H2409 C2419 0.929 . S
H2410 C2414 0.929 . S
H2411 C2420 0.929 . S
C2412 H2406 0.930 . S
C2412 C2413 1.367 . S
C2412 C2420 1.378 . S
C2413 C2412 1.367 . S
C2413 C2421 1.433 . S
C2414 H2410 0.929 . S
C2414 C2416 1.378 . S
C2414 C2418 1.350 . S
C2415 C2418 1.463 . S
C2415 C2420 1.350 . S
C2415 N2423 1.427 . S
C2416 H2407 0.930 . S
C2416 C2414 1.378 . S
C2416 C2417 1.367 . S
C2417 C2416 1.367 . S
C2417 C2419 1.433 . S
C2418 C2414 1.350 . S
C2418 C2415 1.463 . S
C2418 N2422 1.427 . S
C2419 H2409 0.929 . S
C2419 C2417 1.433 . S
C2419 N2422 1.384 . S
C2420 H2411 0.929 . S
C2420 C2412 1.378 . S
C2420 C2415 1.350 . S
C2421 H2408 0.929 . S
C2421 C2413 1.433 . S
C2421 N2423 1.384 . S
N2422 C2418 1.427 . S
N2422 C2419 1.384 . S
N2423 C2415 1.427 . S
N2423 C2421 1.384 . S
H2424 C2430 0.930 . S
H2425 C2434 0.930 . S
H2426 C2439 0.929 . S
H2427 C2437 0.929 . S
H2428 C2432 0.929 . S
H2429 C2438 0.929 . S
C2430 H2424 0.930 . S
C2430 C2431 1.367 . S
C2430 C2438 1.378 . S
C2431 C2430 1.367 . S
C2431 C2439 1.433 . S
C2432 H2428 0.929 . S
C2432 C2434 1.378 . S
C2432 C2436 1.350 . S
C2433 C2436 1.463 . S
C2433 C2438 1.350 . S
C2433 N2441 1.427 . S
C2434 H2425 0.930 . S
C2434 C2432 1.378 . S
C2434 C2435 1.367 . S
C2435 C2434 1.367 . S
C2435 C2437 1.433 . S
C2436 C2432 1.350 . S
C2436 C2433 1.463 . S
C2436 N2440 1.427 . S
C2437 H2427 0.929 . S
C2437 C2435 1.433 . S
C2437 N2440 1.384 . S
C2438 H2429 0.929 . S
C2438 C2430 1.378 . S
C2438 C2433 1.350 . S
C2439 H2426 0.929 . S
C2439 C2431 1.433 . S
C2439 N2441 1.384 . S
N2440 C2436 1.427 . S
N2440 C2437 1.384 . S
N2441 C2433 1.427 . S
N2441 C2439 1.384 . S
H2442 C2448 0.930 . S
H2443 C2452 0.930 . S
H2444 C2457 0.929 . S
H2445 C2455 0.929 . S
H2446 C2450 0.929 . S
H2447 C2456 0.929 . S
C2448 H2442 0.930 . S
C2448 C2449 1.367 . S
C2448 C2456 1.378 . S
C2449 C2448 1.367 . S
C2449 C2457 1.433 . S
C2450 H2446 0.929 . S
C2450 C2452 1.378 . S
C2450 C2454 1.350 . S
C2451 C2454 1.463 . S
C2451 C2456 1.350 . S
C2451 N2459 1.427 . S
C2452 H2443 0.930 . S
C2452 C2450 1.378 . S
C2452 C2453 1.367 . S
C2453 C2452 1.367 . S
C2453 C2455 1.433 . S
C2454 C2450 1.350 . S
C2454 C2451 1.463 . S
C2454 N2458 1.427 . S
C2455 H2445 0.929 . S
C2455 C2453 1.433 . S
C2455 N2458 1.384 . S
C2456 H2447 0.929 . S
C2456 C2448 1.378 . S
C2456 C2451 1.350 . S
C2457 H2444 0.929 . S
C2457 C2449 1.433 . S
C2457 N2459 1.384 . S
N2458 C2454 1.427 . S
N2458 C2455 1.384 . S
N2459 C2451 1.427 . S
N2459 C2457 1.384 . S
H2460 C2466 0.930 . S
H2461 C2470 0.930 . S
H2462 C2475 0.929 . S
H2463 C2473 0.929 . S
H2464 C2468 0.929 . S
H2465 C2474 0.929 . S
C2466 H2460 0.930 . S
C2466 C2467 1.367 . S
C2466 C2474 1.378 . S
C2467 C2466 1.367 . S
C2467 C2475 1.433 . S
C2468 H2464 0.929 . S
C2468 C2470 1.378 . S
C2468 C2472 1.350 . S
C2469 C2472 1.463 . S
C2469 C2474 1.350 . S
C2469 N2477 1.427 . S
C2470 H2461 0.930 . S
C2470 C2468 1.378 . S
C2470 C2471 1.367 . S
C2471 C2470 1.367 . S
C2471 C2473 1.433 . S
C2472 C2468 1.350 . S
C2472 C2469 1.463 . S
C2472 N2476 1.427 . S
C2473 H2463 0.929 . S
C2473 C2471 1.433 . S
C2473 N2476 1.384 . S
C2474 H2465 0.929 . S
C2474 C2466 1.378 . S
C2474 C2469 1.350 . S
C2475 H2462 0.929 . S
C2475 C2467 1.433 . S
C2475 N2477 1.384 . S
N2476 C2472 1.427 . S
N2476 C2473 1.384 . S
N2477 C2469 1.427 . S
N2477 C2475 1.384 . S
H2478 C2484 0.930 . S
H2479 C2488 0.930 . S
H2480 C2493 0.929 . S
H2481 C2491 0.929 . S
H2482 C2486 0.929 . S
H2483 C2492 0.929 . S
C2484 H2478 0.930 . S
C2484 C2485 1.367 . S
C2484 C2492 1.378 . S
C2485 C2484 1.367 . S
C2485 C2493 1.433 . S
C2486 H2482 0.929 . S
C2486 C2488 1.378 . S
C2486 C2490 1.350 . S
C2487 C2490 1.463 . S
C2487 C2492 1.350 . S
C2487 N2495 1.427 . S
C2488 H2479 0.930 . S
C2488 C2486 1.378 . S
C2488 C2489 1.367 . S
C2489 C2488 1.367 . S
C2489 C2491 1.433 . S
C2490 C2486 1.350 . S
C2490 C2487 1.463 . S
C2490 N2494 1.427 . S
C2491 H2481 0.929 . S
C2491 C2489 1.433 . S
C2491 N2494 1.384 . S
C2492 H2483 0.929 . S
C2492 C2484 1.378 . S
C2492 C2487 1.350 . S
C2493 H2480 0.929 . S
C2493 C2485 1.433 . S
C2493 N2495 1.384 . S
N2494 C2490 1.427 . S
N2494 C2491 1.384 . S
N2495 C2487 1.427 . S
N2495 C2493 1.384 . S
H2496 C2502 0.930 . S
H2497 C2506 0.930 . S
H2498 C2511 0.929 . S
H2499 C2509 0.929 . S
H2500 C2504 0.929 . S
H2501 C2510 0.929 . S
C2502 H2496 0.930 . S
C2502 C2503 1.367 . S
C2502 C2510 1.378 . S
C2503 C2502 1.367 . S
C2503 C2511 1.433 . S
C2504 H2500 0.929 . S
C2504 C2506 1.378 . S
C2504 C2508 1.350 . S
C2505 C2508 1.463 . S
C2505 C2510 1.350 . S
C2505 N2513 1.427 . S
C2506 H2497 0.930 . S
C2506 C2504 1.378 . S
C2506 C2507 1.367 . S
C2507 C2506 1.367 . S
C2507 C2509 1.433 . S
C2508 C2504 1.350 . S
C2508 C2505 1.463 . S
C2508 N2512 1.427 . S
C2509 H2499 0.929 . S
C2509 C2507 1.433 . S
C2509 N2512 1.384 . S
C2510 H2501 0.929 . S
C2510 C2502 1.378 . S
C2510 C2505 1.350 . S
C2511 H2498 0.929 . S
C2511 C2503 1.433 . S
C2511 N2513 1.384 . S
N2512 C2508 1.427 . S
N2512 C2509 1.384 . S
N2513 C2505 1.427 . S
N2513 C2511 1.384 . S
H2514 C2520 0.930 . S
H2515 C2524 0.930 . S
H2516 C2529 0.929 . S
H2517 C2527 0.929 . S
H2518 C2522 0.929 . S
H2519 C2528 0.929 . S
C2520 H2514 0.930 . S
C2520 C2521 1.367 . S
C2520 C2528 1.378 . S
C2521 C2520 1.367 . S
C2521 C2529 1.433 . S
C2522 H2518 0.929 . S
C2522 C2524 1.378 . S
C2522 C2526 1.350 . S
C2523 C2526 1.463 . S
C2523 C2528 1.350 . S
C2523 N2531 1.427 . S
C2524 H2515 0.930 . S
C2524 C2522 1.378 . S
C2524 C2525 1.367 . S
C2525 C2524 1.367 . S
C2525 C2527 1.433 . S
C2526 C2522 1.350 . S
C2526 C2523 1.463 . S
C2526 N2530 1.427 . S
C2527 H2517 0.929 . S
C2527 C2525 1.433 . S
C2527 N2530 1.384 . S
C2528 H2519 0.929 . S
C2528 C2520 1.378 . S
C2528 C2523 1.350 . S
C2529 H2516 0.929 . S
C2529 C2521 1.433 . S
C2529 N2531 1.384 . S
N2530 C2526 1.427 . S
N2530 C2527 1.384 . S
N2531 C2523 1.427 . S
N2531 C2529 1.384 . S
H2532 C2538 0.930 . S
H2533 C2542 0.930 . S
H2534 C2547 0.929 . S
H2535 C2545 0.929 . S
H2536 C2540 0.929 . S
H2537 C2546 0.929 . S
C2538 H2532 0.930 . S
C2538 C2539 1.367 . S
C2538 C2546 1.378 . S
C2539 C2538 1.367 . S
C2539 C2547 1.433 . S
C2540 H2536 0.929 . S
C2540 C2542 1.378 . S
C2540 C2544 1.350 . S
C2541 C2544 1.463 . S
C2541 C2546 1.350 . S
C2541 N2549 1.427 . S
C2542 H2533 0.930 . S
C2542 C2540 1.378 . S
C2542 C2543 1.367 . S
C2543 C2542 1.367 . S
C2543 C2545 1.433 . S
C2544 C2540 1.350 . S
C2544 C2541 1.463 . S
C2544 N2548 1.427 . S
C2545 H2535 0.929 . S
C2545 C2543 1.433 . S
C2545 N2548 1.384 . S
C2546 H2537 0.929 . S
C2546 C2538 1.378 . S
C2546 C2541 1.350 . S
C2547 H2534 0.929 . S
C2547 C2539 1.433 . S
C2547 N2549 1.384 . S
N2548 C2544 1.427 . S
N2548 C2545 1.384 . S
N2549 C2541 1.427 . S
N2549 C2547 1.384 . S
H2550 C2556 0.930 . S
H2551 C2560 0.930 . S
H2552 C2565 0.929 . S
H2553 C2563 0.929 . S
H2554 C2558 0.929 . S
H2555 C2564 0.929 . S
C2556 H2550 0.930 . S
C2556 C2557 1.367 . S
C2556 C2564 1.378 . S
C2557 C2556 1.367 . S
C2557 C2565 1.433 . S
C2558 H2554 0.929 . S
C2558 C2560 1.378 . S
C2558 C2562 1.350 . S
C2559 C2562 1.463 . S
C2559 C2564 1.350 . S
C2559 N2567 1.427 . S
C2560 H2551 0.930 . S
C2560 C2558 1.378 . S
C2560 C2561 1.367 . S
C2561 C2560 1.367 . S
C2561 C2563 1.433 . S
C2562 C2558 1.350 . S
C2562 C2559 1.463 . S
C2562 N2566 1.427 . S
C2563 H2553 0.929 . S
C2563 C2561 1.433 . S
C2563 N2566 1.384 . S
C2564 H2555 0.929 . S
C2564 C2556 1.378 . S
C2564 C2559 1.350 . S
C2565 H2552 0.929 . S
C2565 C2557 1.433 . S
C2565 N2567 1.384 . S
N2566 C2562 1.427 . S
N2566 C2563 1.384 . S
N2567 C2559 1.427 . S
N2567 C2565 1.384 . S
H2568 C2574 0.930 . S
H2569 C2578 0.930 . S
H2570 C2583 0.929 . S
H2571 C2581 0.929 . S
H2572 C2576 0.929 . S
H2573 C2582 0.929 . S
C2574 H2568 0.930 . S
C2574 C2575 1.367 . S
C2574 C2582 1.378 . S
C2575 C2574 1.367 . S
C2575 C2583 1.433 . S
C2576 H2572 0.929 . S
C2576 C2578 1.378 . S
C2576 C2580 1.350 . S
C2577 C2580 1.463 . S
C2577 C2582 1.350 . S
C2577 N2585 1.427 . S
C2578 H2569 0.930 . S
C2578 C2576 1.378 . S
C2578 C2579 1.367 . S
C2579 C2578 1.367 . S
C2579 C2581 1.433 . S
C2580 C2576 1.350 . S
C2580 C2577 1.463 . S
C2580 N2584 1.427 . S
C2581 H2571 0.929 . S
C2581 C2579 1.433 . S
C2581 N2584 1.384 . S
C2582 H2573 0.929 . S
C2582 C2574 1.378 . S
C2582 C2577 1.350 . S
C2583 H2570 0.929 . S
C2583 C2575 1.433 . S
C2583 N2585 1.384 . S
N2584 C2580 1.427 . S
N2584 C2581 1.384 . S
N2585 C2577 1.427 . S
N2585 C2583 1.384 . S
H2586 C2592 0.930 . S
H2587 C2596 0.930 . S
H2588 C2601 0.929 . S
H2589 C2599 0.929 . S
H2590 C2594 0.929 . S
H2591 C2600 0.929 . S
C2592 H2586 0.930 . S
C2592 C2593 1.367 . S
C2592 C2600 1.378 . S
C2593 C2592 1.367 . S
C2593 C2601 1.433 . S
C2594 H2590 0.929 . S
C2594 C2596 1.378 . S
C2594 C2598 1.350 . S
C2595 C2598 1.463 . S
C2595 C2600 1.350 . S
C2595 N2603 1.427 . S
C2596 H2587 0.930 . S
C2596 C2594 1.378 . S
C2596 C2597 1.367 . S
C2597 C2596 1.367 . S
C2597 C2599 1.433 . S
C2598 C2594 1.350 . S
C2598 C2595 1.463 . S
C2598 N2602 1.427 . S
C2599 H2589 0.929 . S
C2599 C2597 1.433 . S
C2599 N2602 1.384 . S
C2600 H2591 0.929 . S
C2600 C2592 1.378 . S
C2600 C2595 1.350 . S
C2601 H2588 0.929 . S
C2601 C2593 1.433 . S
C2601 N2603 1.384 . S
N2602 C2598 1.427 . S
N2602 C2599 1.384 . S
N2603 C2595 1.427 . S
N2603 C2601 1.384 . S
H2604 C2610 0.930 . S
H2605 C2614 0.930 . S
H2606 C2619 0.929 . S
H2607 C2617 0.929 . S
H2608 C2612 0.929 . S
H2609 C2618 0.929 . S
C2610 H2604 0.930 . S
C2610 C2611 1.367 . S
C2610 C2618 1.378 . S
C2611 C2610 1.367 . S
C2611 C2619 1.433 . S
C2612 H2608 0.929 . S
C2612 C2614 1.378 . S
C2612 C2616 1.350 . S
C2613 C2616 1.463 . S
C2613 C2618 1.350 . S
C2613 N2621 1.427 . S
C2614 H2605 0.930 . S
C2614 C2612 1.378 . S
C2614 C2615 1.367 . S
C2615 C2614 1.367 . S
C2615 C2617 1.433 . S
C2616 C2612 1.350 . S
C2616 C2613 1.463 . S
C2616 N2620 1.427 . S
C2617 H2607 0.929 . S
C2617 C2615 1.433 . S
C2617 N2620 1.384 . S
C2618 H2609 0.929 . S
C2618 C2610 1.378 . S
C2618 C2613 1.350 . S
C2619 H2606 0.929 . S
C2619 C2611 1.433 . S
C2619 N2621 1.384 . S
N2620 C2616 1.427 . S
N2620 C2617 1.384 . S
N2621 C2613 1.427 . S
N2621 C2619 1.384 . S
H2622 C2628 0.930 . S
H2623 C2632 0.930 . S
H2624 C2637 0.929 . S
H2625 C2635 0.929 . S
H2626 C2630 0.929 . S
H2627 C2636 0.929 . S
C2628 H2622 0.930 . S
C2628 C2629 1.367 . S
C2628 C2636 1.378 . S
C2629 C2628 1.367 . S
C2629 C2637 1.433 . S
C2630 H2626 0.929 . S
C2630 C2632 1.378 . S
C2630 C2634 1.350 . S
C2631 C2634 1.463 . S
C2631 C2636 1.350 . S
C2631 N2639 1.427 . S
C2632 H2623 0.930 . S
C2632 C2630 1.378 . S
C2632 C2633 1.367 . S
C2633 C2632 1.367 . S
C2633 C2635 1.433 . S
C2634 C2630 1.350 . S
C2634 C2631 1.463 . S
C2634 N2638 1.427 . S
C2635 H2625 0.929 . S
C2635 C2633 1.433 . S
C2635 N2638 1.384 . S
C2636 H2627 0.929 . S
C2636 C2628 1.378 . S
C2636 C2631 1.350 . S
C2637 H2624 0.929 . S
C2637 C2629 1.433 . S
C2637 N2639 1.384 . S
N2638 C2634 1.427 . S
N2638 C2635 1.384 . S
N2639 C2631 1.427 . S
N2639 C2637 1.384 . S
H2640 C2646 0.930 . S
H2641 C2650 0.930 . S
H2642 C2655 0.929 . S
H2643 C2653 0.929 . S
H2644 C2648 0.929 . S
H2645 C2654 0.929 . S
C2646 H2640 0.930 . S
C2646 C2647 1.367 . S
C2646 C2654 1.378 . S
C2647 C2646 1.367 . S
C2647 C2655 1.433 . S
C2648 H2644 0.929 . S
C2648 C2650 1.378 . S
C2648 C2652 1.350 . S
C2649 C2652 1.463 . S
C2649 C2654 1.350 . S
C2649 N2657 1.427 . S
C2650 H2641 0.930 . S
C2650 C2648 1.378 . S
C2650 C2651 1.367 . S
C2651 C2650 1.367 . S
C2651 C2653 1.433 . S
C2652 C2648 1.350 . S
C2652 C2649 1.463 . S
C2652 N2656 1.427 . S
C2653 H2643 0.929 . S
C2653 C2651 1.433 . S
C2653 N2656 1.384 . S
C2654 H2645 0.929 . S
C2654 C2646 1.378 . S
C2654 C2649 1.350 . S
C2655 H2642 0.929 . S
C2655 C2647 1.433 . S
C2655 N2657 1.384 . S
N2656 C2652 1.427 . S
N2656 C2653 1.384 . S
N2657 C2649 1.427 . S
N2657 C2655 1.384 . S
H2658 C2664 0.930 . S
H2659 C2668 0.930 . S
H2660 C2673 0.929 . S
H2661 C2671 0.929 . S
H2662 C2666 0.929 . S
H2663 C2672 0.929 . S
C2664 H2658 0.930 . S
C2664 C2665 1.367 . S
C2664 C2672 1.378 . S
C2665 C2664 1.367 . S
C2665 C2673 1.433 . S
C2666 H2662 0.929 . S
C2666 C2668 1.378 . S
C2666 C2670 1.350 . S
C2667 C2670 1.463 . S
C2667 C2672 1.350 . S
C2667 N2675 1.427 . S
C2668 H2659 0.930 . S
C2668 C2666 1.378 . S
C2668 C2669 1.367 . S
C2669 C2668 1.367 . S
C2669 C2671 1.433 . S
C2670 C2666 1.350 . S
C2670 C2667 1.463 . S
C2670 N2674 1.427 . S
C2671 H2661 0.929 . S
C2671 C2669 1.433 . S
C2671 N2674 1.384 . S
C2672 H2663 0.929 . S
C2672 C2664 1.378 . S
C2672 C2667 1.350 . S
C2673 H2660 0.929 . S
C2673 C2665 1.433 . S
C2673 N2675 1.384 . S
N2674 C2670 1.427 . S
N2674 C2671 1.384 . S
N2675 C2667 1.427 . S
N2675 C2673 1.384 . S
H2676 C2682 0.930 . S
H2677 C2686 0.930 . S
H2678 C2691 0.929 . S
H2679 C2689 0.929 . S
H2680 C2684 0.929 . S
H2681 C2690 0.929 . S
C2682 H2676 0.930 . S
C2682 C2683 1.367 . S
C2682 C2690 1.378 . S
C2683 C2682 1.367 . S
C2683 C2691 1.433 . S
C2684 H2680 0.929 . S
C2684 C2686 1.378 . S
C2684 C2688 1.350 . S
C2685 C2688 1.463 . S
C2685 C2690 1.350 . S
C2685 N2693 1.427 . S
C2686 H2677 0.930 . S
C2686 C2684 1.378 . S
C2686 C2687 1.367 . S
C2687 C2686 1.367 . S
C2687 C2689 1.433 . S
C2688 C2684 1.350 . S
C2688 C2685 1.463 . S
C2688 N2692 1.427 . S
C2689 H2679 0.929 . S
C2689 C2687 1.433 . S
C2689 N2692 1.384 . S
C2690 H2681 0.929 . S
C2690 C2682 1.378 . S
C2690 C2685 1.350 . S
C2691 H2678 0.929 . S
C2691 C2683 1.433 . S
C2691 N2693 1.384 . S
N2692 C2688 1.427 . S
N2692 C2689 1.384 . S
N2693 C2685 1.427 . S
N2693 C2691 1.384 . S
H2694 C2700 0.930 . S
H2695 C2704 0.930 . S
H2696 C2709 0.929 . S
H2697 C2707 0.929 . S
H2698 C2702 0.929 . S
H2699 C2708 0.929 . S
C2700 H2694 0.930 . S
C2700 C2701 1.367 . S
C2700 C2708 1.378 . S
C2701 C2700 1.367 . S
C2701 C2709 1.433 . S
C2702 H2698 0.929 . S
C2702 C2704 1.378 . S
C2702 C2706 1.350 . S
C2703 C2706 1.463 . S
C2703 C2708 1.350 . S
C2703 N2711 1.427 . S
C2704 H2695 0.930 . S
C2704 C2702 1.378 . S
C2704 C2705 1.367 . S
C2705 C2704 1.367 . S
C2705 C2707 1.433 . S
C2706 C2702 1.350 . S
C2706 C2703 1.463 . S
C2706 N2710 1.427 . S
C2707 H2697 0.929 . S
C2707 C2705 1.433 . S
C2707 N2710 1.384 . S
C2708 H2699 0.929 . S
C2708 C2700 1.378 . S
C2708 C2703 1.350 . S
C2709 H2696 0.929 . S
C2709 C2701 1.433 . S
C2709 N2711 1.384 . S
N2710 C2706 1.427 . S
N2710 C2707 1.384 . S
N2711 C2703 1.427 . S
N2711 C2709 1.384 . S
H2712 C2718 0.930 . S
H2713 C2722 0.930 . S
H2714 C2727 0.929 . S
H2715 C2725 0.929 . S
H2716 C2720 0.929 . S
H2717 C2726 0.929 . S
C2718 H2712 0.930 . S
C2718 C2719 1.367 . S
C2718 C2726 1.378 . S
C2719 C2718 1.367 . S
C2719 C2727 1.433 . S
C2720 H2716 0.929 . S
C2720 C2722 1.378 . S
C2720 C2724 1.350 . S
C2721 C2724 1.463 . S
C2721 C2726 1.350 . S
C2721 N2729 1.427 . S
C2722 H2713 0.930 . S
C2722 C2720 1.378 . S
C2722 C2723 1.367 . S
C2723 C2722 1.367 . S
C2723 C2725 1.433 . S
C2724 C2720 1.350 . S
C2724 C2721 1.463 . S
C2724 N2728 1.427 . S
C2725 H2715 0.929 . S
C2725 C2723 1.433 . S
C2725 N2728 1.384 . S
C2726 H2717 0.929 . S
C2726 C2718 1.378 . S
C2726 C2721 1.350 . S
C2727 H2714 0.929 . S
C2727 C2719 1.433 . S
C2727 N2729 1.384 . S
N2728 C2724 1.427 . S
N2728 C2725 1.384 . S
N2729 C2721 1.427 . S
N2729 C2727 1.384 . S
H2730 C2736 0.930 . S
H2731 C2740 0.930 . S
H2732 C2745 0.929 . S
H2733 C2743 0.929 . S
H2734 C2738 0.929 . S
H2735 C2744 0.929 . S
C2736 H2730 0.930 . S
C2736 C2737 1.367 . S
C2736 C2744 1.378 . S
C2737 C2736 1.367 . S
C2737 C2745 1.433 . S
C2738 H2734 0.929 . S
C2738 C2740 1.378 . S
C2738 C2742 1.350 . S
C2739 C2742 1.463 . S
C2739 C2744 1.350 . S
C2739 N2747 1.427 . S
C2740 H2731 0.930 . S
C2740 C2738 1.378 . S
C2740 C2741 1.367 . S
C2741 C2740 1.367 . S
C2741 C2743 1.433 . S
C2742 C2738 1.350 . S
C2742 C2739 1.463 . S
C2742 N2746 1.427 . S
C2743 H2733 0.929 . S
C2743 C2741 1.433 . S
C2743 N2746 1.384 . S
C2744 H2735 0.929 . S
C2744 C2736 1.378 . S
C2744 C2739 1.350 . S
C2745 H2732 0.929 . S
C2745 C2737 1.433 . S
C2745 N2747 1.384 . S
N2746 C2742 1.427 . S
N2746 C2743 1.384 . S
N2747 C2739 1.427 . S
N2747 C2745 1.384 . S
H2748 C2754 0.930 . S
H2749 C2758 0.930 . S
H2750 C2763 0.929 . S
H2751 C2761 0.929 . S
H2752 C2756 0.929 . S
H2753 C2762 0.929 . S
C2754 H2748 0.930 . S
C2754 C2755 1.367 . S
C2754 C2762 1.378 . S
C2755 C2754 1.367 . S
C2755 C2763 1.433 . S
C2756 H2752 0.929 . S
C2756 C2758 1.378 . S
C2756 C2760 1.350 . S
C2757 C2760 1.463 . S
C2757 C2762 1.350 . S
C2757 N2765 1.427 . S
C2758 H2749 0.930 . S
C2758 C2756 1.378 . S
C2758 C2759 1.367 . S
C2759 C2758 1.367 . S
C2759 C2761 1.433 . S
C2760 C2756 1.350 . S
C2760 C2757 1.463 . S
C2760 N2764 1.427 . S
C2761 H2751 0.929 . S
C2761 C2759 1.433 . S
C2761 N2764 1.384 . S
C2762 H2753 0.929 . S
C2762 C2754 1.378 . S
C2762 C2757 1.350 . S
C2763 H2750 0.929 . S
C2763 C2755 1.433 . S
C2763 N2765 1.384 . S
N2764 C2760 1.427 . S
N2764 C2761 1.384 . S
N2765 C2757 1.427 . S
N2765 C2763 1.384 . S
H2766 C2772 0.930 . S
H2767 C2776 0.930 . S
H2768 C2781 0.929 . S
H2769 C2779 0.929 . S
H2770 C2774 0.929 . S
H2771 C2780 0.929 . S
C2772 H2766 0.930 . S
C2772 C2773 1.367 . S
C2772 C2780 1.378 . S
C2773 C2772 1.367 . S
C2773 C2781 1.433 . S
C2774 H2770 0.929 . S
C2774 C2776 1.378 . S
C2774 C2778 1.350 . S
C2775 C2778 1.463 . S
C2775 C2780 1.350 . S
C2775 N2783 1.427 . S
C2776 H2767 0.930 . S
C2776 C2774 1.378 . S
C2776 C2777 1.367 . S
C2777 C2776 1.367 . S
C2777 C2779 1.433 . S
C2778 C2774 1.350 . S
C2778 C2775 1.463 . S
C2778 N2782 1.427 . S
C2779 H2769 0.929 . S
C2779 C2777 1.433 . S
C2779 N2782 1.384 . S
C2780 H2771 0.929 . S
C2780 C2772 1.378 . S
C2780 C2775 1.350 . S
C2781 H2768 0.929 . S
C2781 C2773 1.433 . S
C2781 N2783 1.384 . S
N2782 C2778 1.427 . S
N2782 C2779 1.384 . S
N2783 C2775 1.427 . S
N2783 C2781 1.384 . S
H2784 C2790 0.930 . S
H2785 C2794 0.930 . S
H2786 C2799 0.929 . S
H2787 C2797 0.929 . S
H2788 C2792 0.929 . S
H2789 C2798 0.929 . S
C2790 H2784 0.930 . S
C2790 C2791 1.367 . S
C2790 C2798 1.378 . S
C2791 C2790 1.367 . S
C2791 C2799 1.433 . S
C2792 H2788 0.929 . S
C2792 C2794 1.378 . S
C2792 C2796 1.350 . S
C2793 C2796 1.463 . S
C2793 C2798 1.350 . S
C2793 N2801 1.427 . S
C2794 H2785 0.930 . S
C2794 C2792 1.378 . S
C2794 C2795 1.367 . S
C2795 C2794 1.367 . S
C2795 C2797 1.433 . S
C2796 C2792 1.350 . S
C2796 C2793 1.463 . S
C2796 N2800 1.427 . S
C2797 H2787 0.929 . S
C2797 C2795 1.433 . S
C2797 N2800 1.384 . S
C2798 H2789 0.929 . S
C2798 C2790 1.378 . S
C2798 C2793 1.350 . S
C2799 H2786 0.929 . S
C2799 C2791 1.433 . S
C2799 N2801 1.384 . S
N2800 C2796 1.427 . S
N2800 C2797 1.384 . S
N2801 C2793 1.427 . S
N2801 C2799 1.384 . S
H2802 C2808 0.930 . S
H2803 C2812 0.930 . S
H2804 C2817 0.929 . S
H2805 C2815 0.929 . S
H2806 C2810 0.929 . S
H2807 C2816 0.929 . S
C2808 H2802 0.930 . S
C2808 C2809 1.367 . S
C2808 C2816 1.378 . S
C2809 C2808 1.367 . S
C2809 C2817 1.433 . S
C2810 H2806 0.929 . S
C2810 C2812 1.378 . S
C2810 C2814 1.350 . S
C2811 C2814 1.463 . S
C2811 C2816 1.350 . S
C2811 N2819 1.427 . S
C2812 H2803 0.930 . S
C2812 C2810 1.378 . S
C2812 C2813 1.367 . S
C2813 C2812 1.367 . S
C2813 C2815 1.433 . S
C2814 C2810 1.350 . S
C2814 C2811 1.463 . S
C2814 N2818 1.427 . S
C2815 H2805 0.929 . S
C2815 C2813 1.433 . S
C2815 N2818 1.384 . S
C2816 H2807 0.929 . S
C2816 C2808 1.378 . S
C2816 C2811 1.350 . S
C2817 H2804 0.929 . S
C2817 C2809 1.433 . S
C2817 N2819 1.384 . S
N2818 C2814 1.427 . S
N2818 C2815 1.384 . S
N2819 C2811 1.427 . S
N2819 C2817 1.384 . S
H2820 C2826 0.930 . S
H2821 C2830 0.930 . S
H2822 C2835 0.929 . S
H2823 C2833 0.929 . S
H2824 C2828 0.929 . S
H2825 C2834 0.929 . S
C2826 H2820 0.930 . S
C2826 C2827 1.367 . S
C2826 C2834 1.378 . S
C2827 C2826 1.367 . S
C2827 C2835 1.433 . S
C2828 H2824 0.929 . S
C2828 C2830 1.378 . S
C2828 C2832 1.350 . S
C2829 C2832 1.463 . S
C2829 C2834 1.350 . S
C2829 N2837 1.427 . S
C2830 H2821 0.930 . S
C2830 C2828 1.378 . S
C2830 C2831 1.367 . S
C2831 C2830 1.367 . S
C2831 C2833 1.433 . S
C2832 C2828 1.350 . S
C2832 C2829 1.463 . S
C2832 N2836 1.427 . S
C2833 H2823 0.929 . S
C2833 C2831 1.433 . S
C2833 N2836 1.384 . S
C2834 H2825 0.929 . S
C2834 C2826 1.378 . S
C2834 C2829 1.350 . S
C2835 H2822 0.929 . S
C2835 C2827 1.433 . S
C2835 N2837 1.384 . S
N2836 C2832 1.427 . S
N2836 C2833 1.384 . S
N2837 C2829 1.427 . S
N2837 C2835 1.384 . S
H2838 C2844 0.930 . S
H2839 C2848 0.930 . S
H2840 C2853 0.929 . S
H2841 C2851 0.929 . S
H2842 C2846 0.929 . S
H2843 C2852 0.929 . S
C2844 H2838 0.930 . S
C2844 C2845 1.367 . S
C2844 C2852 1.378 . S
C2845 C2844 1.367 . S
C2845 C2853 1.433 . S
C2846 H2842 0.929 . S
C2846 C2848 1.378 . S
C2846 C2850 1.350 . S
C2847 C2850 1.463 . S
C2847 C2852 1.350 . S
C2847 N2855 1.427 . S
C2848 H2839 0.930 . S
C2848 C2846 1.378 . S
C2848 C2849 1.367 . S
C2849 C2848 1.367 . S
C2849 C2851 1.433 . S
C2850 C2846 1.350 . S
C2850 C2847 1.463 . S
C2850 N2854 1.427 . S
C2851 H2841 0.929 . S
C2851 C2849 1.433 . S
C2851 N2854 1.384 . S
C2852 H2843 0.929 . S
C2852 C2844 1.378 . S
C2852 C2847 1.350 . S
C2853 H2840 0.929 . S
C2853 C2845 1.433 . S
C2853 N2855 1.384 . S
N2854 C2850 1.427 . S
N2854 C2851 1.384 . S
N2855 C2847 1.427 . S
N2855 C2853 1.384 . S
H2856 C2862 0.930 . S
H2857 C2866 0.930 . S
H2858 C2871 0.929 . S
H2859 C2869 0.929 . S
H2860 C2864 0.929 . S
H2861 C2870 0.929 . S
C2862 H2856 0.930 . S
C2862 C2863 1.367 . S
C2862 C2870 1.378 . S
C2863 C2862 1.367 . S
C2863 C2871 1.433 . S
C2864 H2860 0.929 . S
C2864 C2866 1.378 . S
C2864 C2868 1.350 . S
C2865 C2868 1.463 . S
C2865 C2870 1.350 . S
C2865 N2873 1.427 . S
C2866 H2857 0.930 . S
C2866 C2864 1.378 . S
C2866 C2867 1.367 . S
C2867 C2866 1.367 . S
C2867 C2869 1.433 . S
C2868 C2864 1.350 . S
C2868 C2865 1.463 . S
C2868 N2872 1.427 . S
C2869 H2859 0.929 . S
C2869 C2867 1.433 . S
C2869 N2872 1.384 . S
C2870 H2861 0.929 . S
C2870 C2862 1.378 . S
C2870 C2865 1.350 . S
C2871 H2858 0.929 . S
C2871 C2863 1.433 . S
C2871 N2873 1.384 . S
N2872 C2868 1.427 . S
N2872 C2869 1.384 . S
N2873 C2865 1.427 . S
N2873 C2871 1.384 . S
H2874 C2880 0.930 . S
H2875 C2884 0.930 . S
H2876 C2889 0.929 . S
H2877 C2887 0.929 . S
H2878 C2882 0.929 . S
H2879 C2888 0.929 . S
C2880 H2874 0.930 . S
C2880 C2881 1.367 . S
C2880 C2888 1.378 . S
C2881 C2880 1.367 . S
C2881 C2889 1.433 . S
C2882 H2878 0.929 . S
C2882 C2884 1.378 . S
C2882 C2886 1.350 . S
C2883 C2886 1.463 . S
C2883 C2888 1.350 . S
C2883 N2891 1.427 . S
C2884 H2875 0.930 . S
C2884 C2882 1.378 . S
C2884 C2885 1.367 . S
C2885 C2884 1.367 . S
C2885 C2887 1.433 . S
C2886 C2882 1.350 . S
C2886 C2883 1.463 . S
C2886 N2890 1.427 . S
C2887 H2877 0.929 . S
C2887 C2885 1.433 . S
C2887 N2890 1.384 . S
C2888 H2879 0.929 . S
C2888 C2880 1.378 . S
C2888 C2883 1.350 . S
C2889 H2876 0.929 . S
C2889 C2881 1.433 . S
C2889 N2891 1.384 . S
N2890 C2886 1.427 . S
N2890 C2887 1.384 . S
N2891 C2883 1.427 . S
N2891 C2889 1.384 . S
H2892 C2898 0.930 . S
H2893 C2902 0.930 . S
H2894 C2907 0.929 . S
H2895 C2905 0.929 . S
H2896 C2900 0.929 . S
H2897 C2906 0.929 . S
C2898 H2892 0.930 . S
C2898 C2899 1.367 . S
C2898 C2906 1.378 . S
C2899 C2898 1.367 . S
C2899 C2907 1.433 . S
C2900 H2896 0.929 . S
C2900 C2902 1.378 . S
C2900 C2904 1.350 . S
C2901 C2904 1.463 . S
C2901 C2906 1.350 . S
C2901 N2909 1.427 . S
C2902 H2893 0.930 . S
C2902 C2900 1.378 . S
C2902 C2903 1.367 . S
C2903 C2902 1.367 . S
C2903 C2905 1.433 . S
C2904 C2900 1.350 . S
C2904 C2901 1.463 . S
C2904 N2908 1.427 . S
C2905 H2895 0.929 . S
C2905 C2903 1.433 . S
C2905 N2908 1.384 . S
C2906 H2897 0.929 . S
C2906 C2898 1.378 . S
C2906 C2901 1.350 . S
C2907 H2894 0.929 . S
C2907 C2899 1.433 . S
C2907 N2909 1.384 . S
N2908 C2904 1.427 . S
N2908 C2905 1.384 . S
N2909 C2901 1.427 . S
N2909 C2907 1.384 . S
H2910 C2916 0.930 . S
H2911 C2920 0.930 . S
H2912 C2925 0.929 . S
H2913 C2923 0.929 . S
H2914 C2918 0.929 . S
H2915 C2924 0.929 . S
C2916 H2910 0.930 . S
C2916 C2917 1.367 . S
C2916 C2924 1.378 . S
C2917 C2916 1.367 . S
C2917 C2925 1.433 . S
C2918 H2914 0.929 . S
C2918 C2920 1.378 . S
C2918 C2922 1.350 . S
C2919 C2922 1.463 . S
C2919 C2924 1.350 . S
C2919 N2927 1.427 . S
C2920 H2911 0.930 . S
C2920 C2918 1.378 . S
C2920 C2921 1.367 . S
C2921 C2920 1.367 . S
C2921 C2923 1.433 . S
C2922 C2918 1.350 . S
C2922 C2919 1.463 . S
C2922 N2926 1.427 . S
C2923 H2913 0.929 . S
C2923 C2921 1.433 . S
C2923 N2926 1.384 . S
C2924 H2915 0.929 . S
C2924 C2916 1.378 . S
C2924 C2919 1.350 . S
C2925 H2912 0.929 . S
C2925 C2917 1.433 . S
C2925 N2927 1.384 . S
N2926 C2922 1.427 . S
N2926 C2923 1.384 . S
N2927 C2919 1.427 . S
N2927 C2925 1.384 . S
H2928 C2934 0.930 . S
H2929 C2938 0.930 . S
H2930 C2943 0.929 . S
H2931 C2941 0.929 . S
H2932 C2936 0.929 . S
H2933 C2942 0.929 . S
C2934 H2928 0.930 . S
C2934 C2935 1.367 . S
C2934 C2942 1.378 . S
C2935 C2934 1.367 . S
C2935 C2943 1.433 . S
C2936 H2932 0.929 . S
C2936 C2938 1.378 . S
C2936 C2940 1.350 . S
C2937 C2940 1.463 . S
C2937 C2942 1.350 . S
C2937 N2945 1.427 . S
C2938 H2929 0.930 . S
C2938 C2936 1.378 . S
C2938 C2939 1.367 . S
C2939 C2938 1.367 . S
C2939 C2941 1.433 . S
C2940 C2936 1.350 . S
C2940 C2937 1.463 . S
C2940 N2944 1.427 . S
C2941 H2931 0.929 . S
C2941 C2939 1.433 . S
C2941 N2944 1.384 . S
C2942 H2933 0.929 . S
C2942 C2934 1.378 . S
C2942 C2937 1.350 . S
C2943 H2930 0.929 . S
C2943 C2935 1.433 . S
C2943 N2945 1.384 . S
N2944 C2940 1.427 . S
N2944 C2941 1.384 . S
N2945 C2937 1.427 . S
N2945 C2943 1.384 . S
H2946 C2952 0.930 . S
H2947 C2956 0.930 . S
H2948 C2961 0.929 . S
H2949 C2959 0.929 . S
H2950 C2954 0.929 . S
H2951 C2960 0.929 . S
C2952 H2946 0.930 . S
C2952 C2953 1.367 . S
C2952 C2960 1.378 . S
C2953 C2952 1.367 . S
C2953 C2961 1.433 . S
C2954 H2950 0.929 . S
C2954 C2956 1.378 . S
C2954 C2958 1.350 . S
C2955 C2958 1.463 . S
C2955 C2960 1.350 . S
C2955 N2963 1.427 . S
C2956 H2947 0.930 . S
C2956 C2954 1.378 . S
C2956 C2957 1.367 . S
C2957 C2956 1.367 . S
C2957 C2959 1.433 . S
C2958 C2954 1.350 . S
C2958 C2955 1.463 . S
C2958 N2962 1.427 . S
C2959 H2949 0.929 . S
C2959 C2957 1.433 . S
C2959 N2962 1.384 . S
C2960 H2951 0.929 . S
C2960 C2952 1.378 . S
C2960 C2955 1.350 . S
C2961 H2948 0.929 . S
C2961 C2953 1.433 . S
C2961 N2963 1.384 . S
N2962 C2958 1.427 . S
N2962 C2959 1.384 . S
N2963 C2955 1.427 . S
N2963 C2961 1.384 . S
H2964 C2970 0.930 . S
H2965 C2974 0.930 . S
H2966 C2979 0.929 . S
H2967 C2977 0.929 . S
H2968 C2972 0.929 . S
H2969 C2978 0.929 . S
C2970 H2964 0.930 . S
C2970 C2971 1.367 . S
C2970 C2978 1.378 . S
C2971 C2970 1.367 . S
C2971 C2979 1.433 . S
C2972 H2968 0.929 . S
C2972 C2974 1.378 . S
C2972 C2976 1.350 . S
C2973 C2976 1.463 . S
C2973 C2978 1.350 . S
C2973 N2981 1.427 . S
C2974 H2965 0.930 . S
C2974 C2972 1.378 . S
C2974 C2975 1.367 . S
C2975 C2974 1.367 . S
C2975 C2977 1.433 . S
C2976 C2972 1.350 . S
C2976 C2973 1.463 . S
C2976 N2980 1.427 . S
C2977 H2967 0.929 . S
C2977 C2975 1.433 . S
C2977 N2980 1.384 . S
C2978 H2969 0.929 . S
C2978 C2970 1.378 . S
C2978 C2973 1.350 . S
C2979 H2966 0.929 . S
C2979 C2971 1.433 . S
C2979 N2981 1.384 . S
N2980 C2976 1.427 . S
N2980 C2977 1.384 . S
N2981 C2973 1.427 . S
N2981 C2979 1.384 . S
H2982 C2988 0.930 . S
H2983 C2992 0.930 . S
H2984 C2997 0.929 . S
H2985 C2995 0.929 . S
H2986 C2990 0.929 . S
H2987 C2996 0.929 . S
C2988 H2982 0.930 . S
C2988 C2989 1.367 . S
C2988 C2996 1.378 . S
C2989 C2988 1.367 . S
C2989 C2997 1.433 . S
C2990 H2986 0.929 . S
C2990 C2992 1.378 . S
C2990 C2994 1.350 . S
C2991 C2994 1.463 . S
C2991 C2996 1.350 . S
C2991 N2999 1.427 . S
C2992 H2983 0.930 . S
C2992 C2990 1.378 . S
C2992 C2993 1.367 . S
C2993 C2992 1.367 . S
C2993 C2995 1.433 . S
C2994 C2990 1.350 . S
C2994 C2991 1.463 . S
C2994 N2998 1.427 . S
C2995 H2985 0.929 . S
C2995 C2993 1.433 . S
C2995 N2998 1.384 . S
C2996 H2987 0.929 . S
C2996 C2988 1.378 . S
C2996 C2991 1.350 . S
C2997 H2984 0.929 . S
C2997 C2989 1.433 . S
C2997 N2999 1.384 . S
N2998 C2994 1.427 . S
N2998 C2995 1.384 . S
N2999 C2991 1.427 . S
N2999 C2997 1.384 . S
H3000 C3006 0.930 . S
H3001 C3010 0.930 . S
H3002 C3015 0.929 . S
H3003 C3013 0.929 . S
H3004 C3008 0.929 . S
H3005 C3014 0.929 . S
C3006 H3000 0.930 . S
C3006 C3007 1.367 . S
C3006 C3014 1.378 . S
C3007 C3006 1.367 . S
C3007 C3015 1.433 . S
C3008 H3004 0.929 . S
C3008 C3010 1.378 . S
C3008 C3012 1.350 . S
C3009 C3012 1.463 . S
C3009 C3014 1.350 . S
C3009 N3017 1.427 . S
C3010 H3001 0.930 . S
C3010 C3008 1.378 . S
C3010 C3011 1.367 . S
C3011 C3010 1.367 . S
C3011 C3013 1.433 . S
C3012 C3008 1.350 . S
C3012 C3009 1.463 . S
C3012 N3016 1.427 . S
C3013 H3003 0.929 . S
C3013 C3011 1.433 . S
C3013 N3016 1.384 . S
C3014 H3005 0.929 . S
C3014 C3006 1.378 . S
C3014 C3009 1.350 . S
C3015 H3002 0.929 . S
C3015 C3007 1.433 . S
C3015 N3017 1.384 . S
N3016 C3012 1.427 . S
N3016 C3013 1.384 . S
N3017 C3009 1.427 . S
N3017 C3015 1.384 . S
H3018 C3024 0.930 . S
H3019 C3028 0.930 . S
H3020 C3033 0.929 . S
H3021 C3031 0.929 . S
H3022 C3026 0.929 . S
H3023 C3032 0.929 . S
C3024 H3018 0.930 . S
C3024 C3025 1.367 . S
C3024 C3032 1.378 . S
C3025 C3024 1.367 . S
C3025 C3033 1.433 . S
C3026 H3022 0.929 . S
C3026 C3028 1.378 . S
C3026 C3030 1.350 . S
C3027 C3030 1.463 . S
C3027 C3032 1.350 . S
C3027 N3035 1.427 . S
C3028 H3019 0.930 . S
C3028 C3026 1.378 . S
C3028 C3029 1.367 . S
C3029 C3028 1.367 . S
C3029 C3031 1.433 . S
C3030 C3026 1.350 . S
C3030 C3027 1.463 . S
C3030 N3034 1.427 . S
C3031 H3021 0.929 . S
C3031 C3029 1.433 . S
C3031 N3034 1.384 . S
C3032 H3023 0.929 . S
C3032 C3024 1.378 . S
C3032 C3027 1.350 . S
C3033 H3020 0.929 . S
C3033 C3025 1.433 . S
C3033 N3035 1.384 . S
N3034 C3030 1.427 . S
N3034 C3031 1.384 . S
N3035 C3027 1.427 . S
N3035 C3033 1.384 . S
H3036 C3042 0.930 . S
H3037 C3046 0.930 . S
H3038 C3051 0.929 . S
H3039 C3049 0.929 . S
H3040 C3044 0.929 . S
H3041 C3050 0.929 . S
C3042 H3036 0.930 . S
C3042 C3043 1.367 . S
C3042 C3050 1.378 . S
C3043 C3042 1.367 . S
C3043 C3051 1.433 . S
C3044 H3040 0.929 . S
C3044 C3046 1.378 . S
C3044 C3048 1.350 . S
C3045 C3048 1.463 . S
C3045 C3050 1.350 . S
C3045 N3053 1.427 . S
C3046 H3037 0.930 . S
C3046 C3044 1.378 . S
C3046 C3047 1.367 . S
C3047 C3046 1.367 . S
C3047 C3049 1.433 . S
C3048 C3044 1.350 . S
C3048 C3045 1.463 . S
C3048 N3052 1.427 . S
C3049 H3039 0.929 . S
C3049 C3047 1.433 . S
C3049 N3052 1.384 . S
C3050 H3041 0.929 . S
C3050 C3042 1.378 . S
C3050 C3045 1.350 . S
C3051 H3038 0.929 . S
C3051 C3043 1.433 . S
C3051 N3053 1.384 . S
N3052 C3048 1.427 . S
N3052 C3049 1.384 . S
N3053 C3045 1.427 . S
N3053 C3051 1.384 . S
H3054 C3060 0.930 . S
H3055 C3064 0.930 . S
H3056 C3069 0.929 . S
H3057 C3067 0.929 . S
H3058 C3062 0.929 . S
H3059 C3068 0.929 . S
C3060 H3054 0.930 . S
C3060 C3061 1.367 . S
C3060 C3068 1.378 . S
C3061 C3060 1.367 . S
C3061 C3069 1.433 . S
C3062 H3058 0.929 . S
C3062 C3064 1.378 . S
C3062 C3066 1.350 . S
C3063 C3066 1.463 . S
C3063 C3068 1.350 . S
C3063 N3071 1.427 . S
C3064 H3055 0.930 . S
C3064 C3062 1.378 . S
C3064 C3065 1.367 . S
C3065 C3064 1.367 . S
C3065 C3067 1.433 . S
C3066 C3062 1.350 . S
C3066 C3063 1.463 . S
C3066 N3070 1.427 . S
C3067 H3057 0.929 . S
C3067 C3065 1.433 . S
C3067 N3070 1.384 . S
C3068 H3059 0.929 . S
C3068 C3060 1.378 . S
C3068 C3063 1.350 . S
C3069 H3056 0.929 . S
C3069 C3061 1.433 . S
C3069 N3071 1.384 . S
N3070 C3066 1.427 . S
N3070 C3067 1.384 . S
N3071 C3063 1.427 . S
N3071 C3069 1.384 . S
H3072 C3078 0.930 . S
H3073 C3082 0.930 . S
H3074 C3087 0.929 . S
H3075 C3085 0.929 . S
H3076 C3080 0.929 . S
H3077 C3086 0.929 . S
C3078 H3072 0.930 . S
C3078 C3079 1.367 . S
C3078 C3086 1.378 . S
C3079 C3078 1.367 . S
C3079 C3087 1.433 . S
C3080 H3076 0.929 . S
C3080 C3082 1.378 . S
C3080 C3084 1.350 . S
C3081 C3084 1.463 . S
C3081 C3086 1.350 . S
C3081 N3089 1.427 . S
C3082 H3073 0.930 . S
C3082 C3080 1.378 . S
C3082 C3083 1.367 . S
C3083 C3082 1.367 . S
C3083 C3085 1.433 . S
C3084 C3080 1.350 . S
C3084 C3081 1.463 . S
C3084 N3088 1.427 . S
C3085 H3075 0.929 . S
C3085 C3083 1.433 . S
C3085 N3088 1.384 . S
C3086 H3077 0.929 . S
C3086 C3078 1.378 . S
C3086 C3081 1.350 . S
C3087 H3074 0.929 . S
C3087 C3079 1.433 . S
C3087 N3089 1.384 . S
N3088 C3084 1.427 . S
N3088 C3085 1.384 . S
N3089 C3081 1.427 . S
N3089 C3087 1.384 . S
H3090 C3096 0.930 . S
H3091 C3100 0.930 . S
H3092 C3105 0.929 . S
H3093 C3103 0.929 . S
H3094 C3098 0.929 . S
H3095 C3104 0.929 . S
C3096 H3090 0.930 . S
C3096 C3097 1.367 . S
C3096 C3104 1.378 . S
C3097 C3096 1.367 . S
C3097 C3105 1.433 . S
C3098 H3094 0.929 . S
C3098 C3100 1.378 . S
C3098 C3102 1.350 . S
C3099 C3102 1.463 . S
C3099 C3104 1.350 . S
C3099 N3107 1.427 . S
C3100 H3091 0.930 . S
C3100 C3098 1.378 . S
C3100 C3101 1.367 . S
C3101 C3100 1.367 . S
C3101 C3103 1.433 . S
C3102 C3098 1.350 . S
C3102 C3099 1.463 . S
C3102 N3106 1.427 . S
C3103 H3093 0.929 . S
C3103 C3101 1.433 . S
C3103 N3106 1.384 . S
C3104 H3095 0.929 . S
C3104 C3096 1.378 . S
C3104 C3099 1.350 . S
C3105 H3092 0.929 . S
C3105 C3097 1.433 . S
C3105 N3107 1.384 . S
N3106 C3102 1.427 . S
N3106 C3103 1.384 . S
N3107 C3099 1.427 . S
N3107 C3105 1.384 . S
H3108 C3114 0.930 . S
H3109 C3118 0.930 . S
H3110 C3123 0.929 . S
H3111 C3121 0.929 . S
H3112 C3116 0.929 . S
H3113 C3122 0.929 . S
C3114 H3108 0.930 . S
C3114 C3115 1.367 . S
C3114 C3122 1.378 . S
C3115 C3114 1.367 . S
C3115 C3123 1.433 . S
C3116 H3112 0.929 . S
C3116 C3118 1.378 . S
C3116 C3120 1.350 . S
C3117 C3120 1.463 . S
C3117 C3122 1.350 . S
C3117 N3125 1.427 . S
C3118 H3109 0.930 . S
C3118 C3116 1.378 . S
C3118 C3119 1.367 . S
C3119 C3118 1.367 . S
C3119 C3121 1.433 . S
C3120 C3116 1.350 . S
C3120 C3117 1.463 . S
C3120 N3124 1.427 . S
C3121 H3111 0.929 . S
C3121 C3119 1.433 . S
C3121 N3124 1.384 . S
C3122 H3113 0.929 . S
C3122 C3114 1.378 . S
C3122 C3117 1.350 . S
C3123 H3110 0.929 . S
C3123 C3115 1.433 . S
C3123 N3125 1.384 . S
N3124 C3120 1.427 . S
N3124 C3121 1.384 . S
N3125 C3117 1.427 . S
N3125 C3123 1.384 . S
H3126 C3132 0.930 . S
H3127 C3136 0.930 . S
H3128 C3141 0.929 . S
H3129 C3139 0.929 . S
H3130 C3134 0.929 . S
H3131 C3140 0.929 . S
C3132 H3126 0.930 . S
C3132 C3133 1.367 . S
C3132 C3140 1.378 . S
C3133 C3132 1.367 . S
C3133 C3141 1.433 . S
C3134 H3130 0.929 . S
C3134 C3136 1.378 . S
C3134 C3138 1.350 . S
C3135 C3138 1.463 . S
C3135 C3140 1.350 . S
C3135 N3143 1.427 . S
C3136 H3127 0.930 . S
C3136 C3134 1.378 . S
C3136 C3137 1.367 . S
C3137 C3136 1.367 . S
C3137 C3139 1.433 . S
C3138 C3134 1.350 . S
C3138 C3135 1.463 . S
C3138 N3142 1.427 . S
C3139 H3129 0.929 . S
C3139 C3137 1.433 . S
C3139 N3142 1.384 . S
C3140 H3131 0.929 . S
C3140 C3132 1.378 . S
C3140 C3135 1.350 . S
C3141 H3128 0.929 . S
C3141 C3133 1.433 . S
C3141 N3143 1.384 . S
N3142 C3138 1.427 . S
N3142 C3139 1.384 . S
N3143 C3135 1.427 . S
N3143 C3141 1.384 . S
H3144 C3150 0.930 . S
H3145 C3154 0.930 . S
H3146 C3159 0.929 . S
H3147 C3157 0.929 . S
H3148 C3152 0.929 . S
H3149 C3158 0.929 . S
C3150 H3144 0.930 . S
C3150 C3151 1.367 . S
C3150 C3158 1.378 . S
C3151 C3150 1.367 . S
C3151 C3159 1.433 . S
C3152 H3148 0.929 . S
C3152 C3154 1.378 . S
C3152 C3156 1.350 . S
C3153 C3156 1.463 . S
C3153 C3158 1.350 . S
C3153 N3161 1.427 . S
C3154 H3145 0.930 . S
C3154 C3152 1.378 . S
C3154 C3155 1.367 . S
C3155 C3154 1.367 . S
C3155 C3157 1.433 . S
C3156 C3152 1.350 . S
C3156 C3153 1.463 . S
C3156 N3160 1.427 . S
C3157 H3147 0.929 . S
C3157 C3155 1.433 . S
C3157 N3160 1.384 . S
C3158 H3149 0.929 . S
C3158 C3150 1.378 . S
C3158 C3153 1.350 . S
C3159 H3146 0.929 . S
C3159 C3151 1.433 . S
C3159 N3161 1.384 . S
N3160 C3156 1.427 . S
N3160 C3157 1.384 . S
N3161 C3153 1.427 . S
N3161 C3159 1.384 . S
H3162 C3168 0.930 . S
H3163 C3172 0.930 . S
H3164 C3177 0.929 . S
H3165 C3175 0.929 . S
H3166 C3170 0.929 . S
H3167 C3176 0.929 . S
C3168 H3162 0.930 . S
C3168 C3169 1.367 . S
C3168 C3176 1.378 . S
C3169 C3168 1.367 . S
C3169 C3177 1.433 . S
C3170 H3166 0.929 . S
C3170 C3172 1.378 . S
C3170 C3174 1.350 . S
C3171 C3174 1.463 . S
C3171 C3176 1.350 . S
C3171 N3179 1.427 . S
C3172 H3163 0.930 . S
C3172 C3170 1.378 . S
C3172 C3173 1.367 . S
C3173 C3172 1.367 . S
C3173 C3175 1.433 . S
C3174 C3170 1.350 . S
C3174 C3171 1.463 . S
C3174 N3178 1.427 . S
C3175 H3165 0.929 . S
C3175 C3173 1.433 . S
C3175 N3178 1.384 . S
C3176 H3167 0.929 . S
C3176 C3168 1.378 . S
C3176 C3171 1.350 . S
C3177 H3164 0.929 . S
C3177 C3169 1.433 . S
C3177 N3179 1.384 . S
N3178 C3174 1.427 . S
N3178 C3175 1.384 . S
N3179 C3171 1.427 . S
N3179 C3177 1.384 . S
H3180 C3186 0.930 . S
H3181 C3190 0.930 . S
H3182 C3195 0.929 . S
H3183 C3193 0.929 . S
H3184 C3188 0.929 . S
H3185 C3194 0.929 . S
C3186 H3180 0.930 . S
C3186 C3187 1.367 . S
C3186 C3194 1.378 . S
C3187 C3186 1.367 . S
C3187 C3195 1.433 . S
C3188 H3184 0.929 . S
C3188 C3190 1.378 . S
C3188 C3192 1.350 . S
C3189 C3192 1.463 . S
C3189 C3194 1.350 . S
C3189 N3197 1.427 . S
C3190 H3181 0.930 . S
C3190 C3188 1.378 . S
C3190 C3191 1.367 . S
C3191 C3190 1.367 . S
C3191 C3193 1.433 . S
C3192 C3188 1.350 . S
C3192 C3189 1.463 . S
C3192 N3196 1.427 . S
C3193 H3183 0.929 . S
C3193 C3191 1.433 . S
C3193 N3196 1.384 . S
C3194 H3185 0.929 . S
C3194 C3186 1.378 . S
C3194 C3189 1.350 . S
C3195 H3182 0.929 . S
C3195 C3187 1.433 . S
C3195 N3197 1.384 . S
N3196 C3192 1.427 . S
N3196 C3193 1.384 . S
N3197 C3189 1.427 . S
N3197 C3195 1.384 . S
H3198 C3204 0.930 . S
H3199 C3208 0.930 . S
H3200 C3213 0.929 . S
H3201 C3211 0.929 . S
H3202 C3206 0.929 . S
H3203 C3212 0.929 . S
C3204 H3198 0.930 . S
C3204 C3205 1.367 . S
C3204 C3212 1.378 . S
C3205 C3204 1.367 . S
C3205 C3213 1.433 . S
C3206 H3202 0.929 . S
C3206 C3208 1.378 . S
C3206 C3210 1.350 . S
C3207 C3210 1.463 . S
C3207 C3212 1.350 . S
C3207 N3215 1.427 . S
C3208 H3199 0.930 . S
C3208 C3206 1.378 . S
C3208 C3209 1.367 . S
C3209 C3208 1.367 . S
C3209 C3211 1.433 . S
C3210 C3206 1.350 . S
C3210 C3207 1.463 . S
C3210 N3214 1.427 . S
C3211 H3201 0.929 . S
C3211 C3209 1.433 . S
C3211 N3214 1.384 . S
C3212 H3203 0.929 . S
C3212 C3204 1.378 . S
C3212 C3207 1.350 . S
C3213 H3200 0.929 . S
C3213 C3205 1.433 . S
C3213 N3215 1.384 . S
N3214 C3210 1.427 . S
N3214 C3211 1.384 . S
N3215 C3207 1.427 . S
N3215 C3213 1.384 . S
H3216 C3222 0.930 . S
H3217 C3226 0.930 . S
H3218 C3231 0.929 . S
H3219 C3229 0.929 . S
H3220 C3224 0.929 . S
H3221 C3230 0.929 . S
C3222 H3216 0.930 . S
C3222 C3223 1.367 . S
C3222 C3230 1.378 . S
C3223 C3222 1.367 . S
C3223 C3231 1.433 . S
C3224 H3220 0.929 . S
C3224 C3226 1.378 . S
C3224 C3228 1.350 . S
C3225 C3228 1.463 . S
C3225 C3230 1.350 . S
C3225 N3233 1.427 . S
C3226 H3217 0.930 . S
C3226 C3224 1.378 . S
C3226 C3227 1.367 . S
C3227 C3226 1.367 . S
C3227 C3229 1.433 . S
C3228 C3224 1.350 . S
C3228 C3225 1.463 . S
C3228 N3232 1.427 . S
C3229 H3219 0.929 . S
C3229 C3227 1.433 . S
C3229 N3232 1.384 . S
C3230 H3221 0.929 . S
C3230 C3222 1.378 . S
C3230 C3225 1.350 . S
C3231 H3218 0.929 . S
C3231 C3223 1.433 . S
C3231 N3233 1.384 . S
N3232 C3228 1.427 . S
N3232 C3229 1.384 . S
N3233 C3225 1.427 . S
N3233 C3231 1.384 . S
H3234 C3240 0.930 . S
H3235 C3244 0.930 . S
H3236 C3249 0.929 . S
H3237 C3247 0.929 . S
H3238 C3242 0.929 . S
H3239 C3248 0.929 . S
C3240 H3234 0.930 . S
C3240 C3241 1.367 . S
C3240 C3248 1.378 . S
C3241 C3240 1.367 . S
C3241 C3249 1.433 . S
C3242 H3238 0.929 . S
C3242 C3244 1.378 . S
C3242 C3246 1.350 . S
C3243 C3246 1.463 . S
C3243 C3248 1.350 . S
C3243 N3251 1.427 . S
C3244 H3235 0.930 . S
C3244 C3242 1.378 . S
C3244 C3245 1.367 . S
C3245 C3244 1.367 . S
C3245 C3247 1.433 . S
C3246 C3242 1.350 . S
C3246 C3243 1.463 . S
C3246 N3250 1.427 . S
C3247 H3237 0.929 . S
C3247 C3245 1.433 . S
C3247 N3250 1.384 . S
C3248 H3239 0.929 . S
C3248 C3240 1.378 . S
C3248 C3243 1.350 . S
C3249 H3236 0.929 . S
C3249 C3241 1.433 . S
C3249 N3251 1.384 . S
N3250 C3246 1.427 . S
N3250 C3247 1.384 . S
N3251 C3243 1.427 . S
N3251 C3249 1.384 . S
H3252 C3258 0.930 . S
H3253 C3262 0.930 . S
H3254 C3267 0.929 . S
H3255 C3265 0.929 . S
H3256 C3260 0.929 . S
H3257 C3266 0.929 . S
C3258 H3252 0.930 . S
C3258 C3259 1.367 . S
C3258 C3266 1.378 . S
C3259 C3258 1.367 . S
C3259 C3267 1.433 . S
C3260 H3256 0.929 . S
C3260 C3262 1.378 . S
C3260 C3264 1.350 . S
C3261 C3264 1.463 . S
C3261 C3266 1.350 . S
C3261 N3269 1.427 . S
C3262 H3253 0.930 . S
C3262 C3260 1.378 . S
C3262 C3263 1.367 . S
C3263 C3262 1.367 . S
C3263 C3265 1.433 . S
C3264 C3260 1.350 . S
C3264 C3261 1.463 . S
C3264 N3268 1.427 . S
C3265 H3255 0.929 . S
C3265 C3263 1.433 . S
C3265 N3268 1.384 . S
C3266 H3257 0.929 . S
C3266 C3258 1.378 . S
C3266 C3261 1.350 . S
C3267 H3254 0.929 . S
C3267 C3259 1.433 . S
C3267 N3269 1.384 . S
N3268 C3264 1.427 . S
N3268 C3265 1.384 . S
N3269 C3261 1.427 . S
N3269 C3267 1.384 . S
H3270 C3276 0.930 . S
H3271 C3280 0.930 . S
H3272 C3285 0.929 . S
H3273 C3283 0.929 . S
H3274 C3278 0.929 . S
H3275 C3284 0.929 . S
C3276 H3270 0.930 . S
C3276 C3277 1.367 . S
C3276 C3284 1.378 . S
C3277 C3276 1.367 . S
C3277 C3285 1.433 . S
C3278 H3274 0.929 . S
C3278 C3280 1.378 . S
C3278 C3282 1.350 . S
C3279 C3282 1.463 . S
C3279 C3284 1.350 . S
C3279 N3287 1.427 . S
C3280 H3271 0.930 . S
C3280 C3278 1.378 . S
C3280 C3281 1.367 . S
C3281 C3280 1.367 . S
C3281 C3283 1.433 . S
C3282 C3278 1.350 . S
C3282 C3279 1.463 . S
C3282 N3286 1.427 . S
C3283 H3273 0.929 . S
C3283 C3281 1.433 . S
C3283 N3286 1.384 . S
C3284 H3275 0.929 . S
C3284 C3276 1.378 . S
C3284 C3279 1.350 . S
C3285 H3272 0.929 . S
C3285 C3277 1.433 . S
C3285 N3287 1.384 . S
N3286 C3282 1.427 . S
N3286 C3283 1.384 . S
N3287 C3279 1.427 . S
N3287 C3285 1.384 . S
H3288 C3294 0.930 . S
H3289 C3298 0.930 . S
H3290 C3303 0.929 . S
H3291 C3301 0.929 . S
H3292 C3296 0.929 . S
H3293 C3302 0.929 . S
C3294 H3288 0.930 . S
C3294 C3295 1.367 . S
C3294 C3302 1.378 . S
C3295 C3294 1.367 . S
C3295 C3303 1.433 . S
C3296 H3292 0.929 . S
C3296 C3298 1.378 . S
C3296 C3300 1.350 . S
C3297 C3300 1.463 . S
C3297 C3302 1.350 . S
C3297 N3305 1.427 . S
C3298 H3289 0.930 . S
C3298 C3296 1.378 . S
C3298 C3299 1.367 . S
C3299 C3298 1.367 . S
C3299 C3301 1.433 . S
C3300 C3296 1.350 . S
C3300 C3297 1.463 . S
C3300 N3304 1.427 . S
C3301 H3291 0.929 . S
C3301 C3299 1.433 . S
C3301 N3304 1.384 . S
C3302 H3293 0.929 . S
C3302 C3294 1.378 . S
C3302 C3297 1.350 . S
C3303 H3290 0.929 . S
C3303 C3295 1.433 . S
C3303 N3305 1.384 . S
N3304 C3300 1.427 . S
N3304 C3301 1.384 . S
N3305 C3297 1.427 . S
N3305 C3303 1.384 . S
H3306 C3312 0.930 . S
H3307 C3316 0.930 . S
H3308 C3321 0.929 . S
H3309 C3319 0.929 . S
H3310 C3314 0.929 . S
H3311 C3320 0.929 . S
C3312 H3306 0.930 . S
C3312 C3313 1.367 . S
C3312 C3320 1.378 . S
C3313 C3312 1.367 . S
C3313 C3321 1.433 . S
C3314 H3310 0.929 . S
C3314 C3316 1.378 . S
C3314 C3318 1.350 . S
C3315 C3318 1.463 . S
C3315 C3320 1.350 . S
C3315 N3323 1.427 . S
C3316 H3307 0.930 . S
C3316 C3314 1.378 . S
C3316 C3317 1.367 . S
C3317 C3316 1.367 . S
C3317 C3319 1.433 . S
C3318 C3314 1.350 . S
C3318 C3315 1.463 . S
C3318 N3322 1.427 . S
C3319 H3309 0.929 . S
C3319 C3317 1.433 . S
C3319 N3322 1.384 . S
C3320 H3311 0.929 . S
C3320 C3312 1.378 . S
C3320 C3315 1.350 . S
C3321 H3308 0.929 . S
C3321 C3313 1.433 . S
C3321 N3323 1.384 . S
N3322 C3318 1.427 . S
N3322 C3319 1.384 . S
N3323 C3315 1.427 . S
N3323 C3321 1.384 . S
H3324 C3330 0.930 . S
H3325 C3334 0.930 . S
H3326 C3339 0.929 . S
H3327 C3337 0.929 . S
H3328 C3332 0.929 . S
H3329 C3338 0.929 . S
C3330 H3324 0.930 . S
C3330 C3331 1.367 . S
C3330 C3338 1.378 . S
C3331 C3330 1.367 . S
C3331 C3339 1.433 . S
C3332 H3328 0.929 . S
C3332 C3334 1.378 . S
C3332 C3336 1.350 . S
C3333 C3336 1.463 . S
C3333 C3338 1.350 . S
C3333 N3341 1.427 . S
C3334 H3325 0.930 . S
C3334 C3332 1.378 . S
C3334 C3335 1.367 . S
C3335 C3334 1.367 . S
C3335 C3337 1.433 . S
C3336 C3332 1.350 . S
C3336 C3333 1.463 . S
C3336 N3340 1.427 . S
C3337 H3327 0.929 . S
C3337 C3335 1.433 . S
C3337 N3340 1.384 . S
C3338 H3329 0.929 . S
C3338 C3330 1.378 . S
C3338 C3333 1.350 . S
C3339 H3326 0.929 . S
C3339 C3331 1.433 . S
C3339 N3341 1.384 . S
N3340 C3336 1.427 . S
N3340 C3337 1.384 . S
N3341 C3333 1.427 . S
N3341 C3339 1.384 . S
H3342 C3348 0.930 . S
H3343 C3352 0.930 . S
H3344 C3357 0.929 . S
H3345 C3355 0.929 . S
H3346 C3350 0.929 . S
H3347 C3356 0.929 . S
C3348 H3342 0.930 . S
C3348 C3349 1.367 . S
C3348 C3356 1.378 . S
C3349 C3348 1.367 . S
C3349 C3357 1.433 . S
C3350 H3346 0.929 . S
C3350 C3352 1.378 . S
C3350 C3354 1.350 . S
C3351 C3354 1.463 . S
C3351 C3356 1.350 . S
C3351 N3359 1.427 . S
C3352 H3343 0.930 . S
C3352 C3350 1.378 . S
C3352 C3353 1.367 . S
C3353 C3352 1.367 . S
C3353 C3355 1.433 . S
C3354 C3350 1.350 . S
C3354 C3351 1.463 . S
C3354 N3358 1.427 . S
C3355 H3345 0.929 . S
C3355 C3353 1.433 . S
C3355 N3358 1.384 . S
C3356 H3347 0.929 . S
C3356 C3348 1.378 . S
C3356 C3351 1.350 . S
C3357 H3344 0.929 . S
C3357 C3349 1.433 . S
C3357 N3359 1.384 . S
N3358 C3354 1.427 . S
N3358 C3355 1.384 . S
N3359 C3351 1.427 . S
N3359 C3357 1.384 . S
H3360 C3366 0.930 . S
H3361 C3370 0.930 . S
H3362 C3375 0.929 . S
H3363 C3373 0.929 . S
H3364 C3368 0.929 . S
H3365 C3374 0.929 . S
C3366 H3360 0.930 . S
C3366 C3367 1.367 . S
C3366 C3374 1.378 . S
C3367 C3366 1.367 . S
C3367 C3375 1.433 . S
C3368 H3364 0.929 . S
C3368 C3370 1.378 . S
C3368 C3372 1.350 . S
C3369 C3372 1.463 . S
C3369 C3374 1.350 . S
C3369 N3377 1.427 . S
C3370 H3361 0.930 . S
C3370 C3368 1.378 . S
C3370 C3371 1.367 . S
C3371 C3370 1.367 . S
C3371 C3373 1.433 . S
C3372 C3368 1.350 . S
C3372 C3369 1.463 . S
C3372 N3376 1.427 . S
C3373 H3363 0.929 . S
C3373 C3371 1.433 . S
C3373 N3376 1.384 . S
C3374 H3365 0.929 . S
C3374 C3366 1.378 . S
C3374 C3369 1.350 . S
C3375 H3362 0.929 . S
C3375 C3367 1.433 . S
C3375 N3377 1.384 . S
N3376 C3372 1.427 . S
N3376 C3373 1.384 . S
N3377 C3369 1.427 . S
N3377 C3375 1.384 . S
H3378 C3384 0.930 . S
H3379 C3388 0.930 . S
H3380 C3393 0.929 . S
H3381 C3391 0.929 . S
H3382 C3386 0.929 . S
H3383 C3392 0.929 . S
C3384 H3378 0.930 . S
C3384 C3385 1.367 . S
C3384 C3392 1.378 . S
C3385 C3384 1.367 . S
C3385 C3393 1.433 . S
C3386 H3382 0.929 . S
C3386 C3388 1.378 . S
C3386 C3390 1.350 . S
C3387 C3390 1.463 . S
C3387 C3392 1.350 . S
C3387 N3395 1.427 . S
C3388 H3379 0.930 . S
C3388 C3386 1.378 . S
C3388 C3389 1.367 . S
C3389 C3388 1.367 . S
C3389 C3391 1.433 . S
C3390 C3386 1.350 . S
C3390 C3387 1.463 . S
C3390 N3394 1.427 . S
C3391 H3381 0.929 . S
C3391 C3389 1.433 . S
C3391 N3394 1.384 . S
C3392 H3383 0.929 . S
C3392 C3384 1.378 . S
C3392 C3387 1.350 . S
C3393 H3380 0.929 . S
C3393 C3385 1.433 . S
C3393 N3395 1.384 . S
N3394 C3390 1.427 . S
N3394 C3391 1.384 . S
N3395 C3387 1.427 . S
N3395 C3393 1.384 . S
H3396 C3402 0.930 . S
H3397 C3406 0.930 . S
H3398 C3411 0.929 . S
H3399 C3409 0.929 . S
H3400 C3404 0.929 . S
H3401 C3410 0.929 . S
C3402 H3396 0.930 . S
C3402 C3403 1.367 . S
C3402 C3410 1.378 . S
C3403 C3402 1.367 . S
C3403 C3411 1.433 . S
C3404 H3400 0.929 . S
C3404 C3406 1.378 . S
C3404 C3408 1.350 . S
C3405 C3408 1.463 . S
C3405 C3410 1.350 . S
C3405 N3413 1.427 . S
C3406 H3397 0.930 . S
C3406 C3404 1.378 . S
C3406 C3407 1.367 . S
C3407 C3406 1.367 . S
C3407 C3409 1.433 . S
C3408 C3404 1.350 . S
C3408 C3405 1.463 . S
C3408 N3412 1.427 . S
C3409 H3399 0.929 . S
C3409 C3407 1.433 . S
C3409 N3412 1.384 . S
C3410 H3401 0.929 . S
C3410 C3402 1.378 . S
C3410 C3405 1.350 . S
C3411 H3398 0.929 . S
C3411 C3403 1.433 . S
C3411 N3413 1.384 . S
N3412 C3408 1.427 . S
N3412 C3409 1.384 . S
N3413 C3405 1.427 . S
N3413 C3411 1.384 . S
H3414 C3420 0.930 . S
H3415 C3424 0.930 . S
H3416 C3429 0.929 . S
H3417 C3427 0.929 . S
H3418 C3422 0.929 . S
H3419 C3428 0.929 . S
C3420 H3414 0.930 . S
C3420 C3421 1.367 . S
C3420 C3428 1.378 . S
C3421 C3420 1.367 . S
C3421 C3429 1.433 . S
C3422 H3418 0.929 . S
C3422 C3424 1.378 . S
C3422 C3426 1.350 . S
C3423 C3426 1.463 . S
C3423 C3428 1.350 . S
C3423 N3431 1.427 . S
C3424 H3415 0.930 . S
C3424 C3422 1.378 . S
C3424 C3425 1.367 . S
C3425 C3424 1.367 . S
C3425 C3427 1.433 . S
C3426 C3422 1.350 . S
C3426 C3423 1.463 . S
C3426 N3430 1.427 . S
C3427 H3417 0.929 . S
C3427 C3425 1.433 . S
C3427 N3430 1.384 . S
C3428 H3419 0.929 . S
C3428 C3420 1.378 . S
C3428 C3423 1.350 . S
C3429 H3416 0.929 . S
C3429 C3421 1.433 . S
C3429 N3431 1.384 . S
N3430 C3426 1.427 . S
N3430 C3427 1.384 . S
N3431 C3423 1.427 . S
N3431 C3429 1.384 . S
H3432 C3438 0.930 . S
H3433 C3442 0.930 . S
H3434 C3447 0.929 . S
H3435 C3445 0.929 . S
H3436 C3440 0.929 . S
H3437 C3446 0.929 . S
C3438 H3432 0.930 . S
C3438 C3439 1.367 . S
C3438 C3446 1.378 . S
C3439 C3438 1.367 . S
C3439 C3447 1.433 . S
C3440 H3436 0.929 . S
C3440 C3442 1.378 . S
C3440 C3444 1.350 . S
C3441 C3444 1.463 . S
C3441 C3446 1.350 . S
C3441 N3449 1.427 . S
C3442 H3433 0.930 . S
C3442 C3440 1.378 . S
C3442 C3443 1.367 . S
C3443 C3442 1.367 . S
C3443 C3445 1.433 . S
C3444 C3440 1.350 . S
C3444 C3441 1.463 . S
C3444 N3448 1.427 . S
C3445 H3435 0.929 . S
C3445 C3443 1.433 . S
C3445 N3448 1.384 . S
C3446 H3437 0.929 . S
C3446 C3438 1.378 . S
C3446 C3441 1.350 . S
C3447 H3434 0.929 . S
C3447 C3439 1.433 . S
C3447 N3449 1.384 . S
N3448 C3444 1.427 . S
N3448 C3445 1.384 . S
N3449 C3441 1.427 . S
N3449 C3447 1.384 . S
H3450 C3456 0.930 . S
H3451 C3460 0.930 . S
H3452 C3465 0.929 . S
H3453 C3463 0.929 . S
H3454 C3458 0.929 . S
H3455 C3464 0.929 . S
C3456 H3450 0.930 . S
C3456 C3457 1.367 . S
C3456 C3464 1.378 . S
C3457 C3456 1.367 . S
C3457 C3465 1.433 . S
C3458 H3454 0.929 . S
C3458 C3460 1.378 . S
C3458 C3462 1.350 . S
C3459 C3462 1.463 . S
C3459 C3464 1.350 . S
C3459 N3467 1.427 . S
C3460 H3451 0.930 . S
C3460 C3458 1.378 . S
C3460 C3461 1.367 . S
C3461 C3460 1.367 . S
C3461 C3463 1.433 . S
C3462 C3458 1.350 . S
C3462 C3459 1.463 . S
C3462 N3466 1.427 . S
C3463 H3453 0.929 . S
C3463 C3461 1.433 . S
C3463 N3466 1.384 . S
C3464 H3455 0.929 . S
C3464 C3456 1.378 . S
C3464 C3459 1.350 . S
C3465 H3452 0.929 . S
C3465 C3457 1.433 . S
C3465 N3467 1.384 . S
N3466 C3462 1.427 . S
N3466 C3463 1.384 . S
N3467 C3459 1.427 . S
N3467 C3465 1.384 . S
H3468 C3474 0.930 . S
H3469 C3478 0.930 . S
H3470 C3483 0.929 . S
H3471 C3481 0.929 . S
H3472 C3476 0.929 . S
H3473 C3482 0.929 . S
C3474 H3468 0.930 . S
C3474 C3475 1.367 . S
C3474 C3482 1.378 . S
C3475 C3474 1.367 . S
C3475 C3483 1.433 . S
C3476 H3472 0.929 . S
C3476 C3478 1.378 . S
C3476 C3480 1.350 . S
C3477 C3480 1.463 . S
C3477 C3482 1.350 . S
C3477 N3485 1.427 . S
C3478 H3469 0.930 . S
C3478 C3476 1.378 . S
C3478 C3479 1.367 . S
C3479 C3478 1.367 . S
C3479 C3481 1.433 . S
C3480 C3476 1.350 . S
C3480 C3477 1.463 . S
C3480 N3484 1.427 . S
C3481 H3471 0.929 . S
C3481 C3479 1.433 . S
C3481 N3484 1.384 . S
C3482 H3473 0.929 . S
C3482 C3474 1.378 . S
C3482 C3477 1.350 . S
C3483 H3470 0.929 . S
C3483 C3475 1.433 . S
C3483 N3485 1.384 . S
N3484 C3480 1.427 . S
N3484 C3481 1.384 . S
N3485 C3477 1.427 . S
N3485 C3483 1.384 . S
H3486 C3492 0.930 . S
H3487 C3496 0.930 . S
H3488 C3501 0.929 . S
H3489 C3499 0.929 . S
H3490 C3494 0.929 . S
H3491 C3500 0.929 . S
C3492 H3486 0.930 . S
C3492 C3493 1.367 . S
C3492 C3500 1.378 . S
C3493 C3492 1.367 . S
C3493 C3501 1.433 . S
C3494 H3490 0.929 . S
C3494 C3496 1.378 . S
C3494 C3498 1.350 . S
C3495 C3498 1.463 . S
C3495 C3500 1.350 . S
C3495 N3503 1.427 . S
C3496 H3487 0.930 . S
C3496 C3494 1.378 . S
C3496 C3497 1.367 . S
C3497 C3496 1.367 . S
C3497 C3499 1.433 . S
C3498 C3494 1.350 . S
C3498 C3495 1.463 . S
C3498 N3502 1.427 . S
C3499 H3489 0.929 . S
C3499 C3497 1.433 . S
C3499 N3502 1.384 . S
C3500 H3491 0.929 . S
C3500 C3492 1.378 . S
C3500 C3495 1.350 . S
C3501 H3488 0.929 . S
C3501 C3493 1.433 . S
C3501 N3503 1.384 . S
N3502 C3498 1.427 . S
N3502 C3499 1.384 . S
N3503 C3495 1.427 . S
N3503 C3501 1.384 . S
H3504 C3510 0.930 . S
H3505 C3514 0.930 . S
H3506 C3519 0.929 . S
H3507 C3517 0.929 . S
H3508 C3512 0.929 . S
H3509 C3518 0.929 . S
C3510 H3504 0.930 . S
C3510 C3511 1.367 . S
C3510 C3518 1.378 . S
C3511 C3510 1.367 . S
C3511 C3519 1.433 . S
C3512 H3508 0.929 . S
C3512 C3514 1.378 . S
C3512 C3516 1.350 . S
C3513 C3516 1.463 . S
C3513 C3518 1.350 . S
C3513 N3521 1.427 . S
C3514 H3505 0.930 . S
C3514 C3512 1.378 . S
C3514 C3515 1.367 . S
C3515 C3514 1.367 . S
C3515 C3517 1.433 . S
C3516 C3512 1.350 . S
C3516 C3513 1.463 . S
C3516 N3520 1.427 . S
C3517 H3507 0.929 . S
C3517 C3515 1.433 . S
C3517 N3520 1.384 . S
C3518 H3509 0.929 . S
C3518 C3510 1.378 . S
C3518 C3513 1.350 . S
C3519 H3506 0.929 . S
C3519 C3511 1.433 . S
C3519 N3521 1.384 . S
N3520 C3516 1.427 . S
N3520 C3517 1.384 . S
N3521 C3513 1.427 . S
N3521 C3519 1.384 . S
H3522 C3528 0.930 . S
H3523 C3532 0.930 . S
H3524 C3537 0.929 . S
H3525 C3535 0.929 . S
H3526 C3530 0.929 . S
H3527 C3536 0.929 . S
C3528 H3522 0.930 . S
C3528 C3529 1.367 . S
C3528 C3536 1.378 . S
C3529 C3528 1.367 . S
C3529 C3537 1.433 . S
C3530 H3526 0.929 . S
C3530 C3532 1.378 . S
C3530 C3534 1.350 . S
C3531 C3534 1.463 . S
C3531 C3536 1.350 . S
C3531 N3539 1.427 . S
C3532 H3523 0.930 . S
C3532 C3530 1.378 . S
C3532 C3533 1.367 . S
C3533 C3532 1.367 . S
C3533 C3535 1.433 . S
C3534 C3530 1.350 . S
C3534 C3531 1.463 . S
C3534 N3538 1.427 . S
C3535 H3525 0.929 . S
C3535 C3533 1.433 . S
C3535 N3538 1.384 . S
C3536 H3527 0.929 . S
C3536 C3528 1.378 . S
C3536 C3531 1.350 . S
C3537 H3524 0.929 . S
C3537 C3529 1.433 . S
C3537 N3539 1.384 . S
N3538 C3534 1.427 . S
N3538 C3535 1.384 . S
N3539 C3531 1.427 . S
N3539 C3537 1.384 . S
H3540 C3546 0.930 . S
H3541 C3550 0.930 1_556 S
H3542 C3555 0.929 . S
H3543 C3553 0.929 . S
H3544 C3548 0.929 . S
H3545 C3554 0.929 . S
C3546 H3540 0.930 . S
C3546 C3547 1.367 . S
C3546 C3554 1.378 . S
C3547 C3546 1.367 . S
C3547 C3555 1.433 . S
C3548 H3544 0.929 . S
C3548 C3550 1.378 . S
C3548 C3552 1.350 . S
C3549 C3552 1.463 . S
C3549 C3554 1.350 . S
C3549 N3557 1.427 . S
C3550 H3541 0.930 1_554 S
C3550 C3548 1.378 . S
C3550 C3551 1.367 . S
C3551 C3550 1.367 . S
C3551 C3553 1.433 . S
C3552 C3548 1.350 . S
C3552 C3549 1.463 . S
C3552 N3556 1.427 . S
C3553 H3543 0.929 . S
C3553 C3551 1.433 . S
C3553 N3556 1.384 . S
C3554 H3545 0.929 . S
C3554 C3546 1.378 . S
C3554 C3549 1.350 . S
C3555 H3542 0.929 . S
C3555 C3547 1.433 . S
C3555 N3557 1.384 . S
N3556 C3552 1.427 . S
N3556 C3553 1.384 . S
N3557 C3549 1.427 . S
N3557 C3555 1.384 . S
H3558 C3564 0.930 . S
H3559 C3568 0.930 . S
H3560 C3573 0.929 . S
H3561 C3571 0.929 . S
H3562 C3566 0.929 . S
H3563 C3572 0.929 . S
C3564 H3558 0.930 . S
C3564 C3565 1.367 . S
C3564 C3572 1.378 . S
C3565 C3564 1.367 . S
C3565 C3573 1.433 . S
C3566 H3562 0.929 . S
C3566 C3568 1.378 . S
C3566 C3570 1.350 . S
C3567 C3570 1.463 . S
C3567 C3572 1.350 . S
C3567 N3575 1.427 . S
C3568 H3559 0.930 . S
C3568 C3566 1.378 . S
C3568 C3569 1.367 . S
C3569 C3568 1.367 . S
C3569 C3571 1.433 . S
C3570 C3566 1.350 . S
C3570 C3567 1.463 . S
C3570 N3574 1.427 . S
C3571 H3561 0.929 . S
C3571 C3569 1.433 . S
C3571 N3574 1.384 . S
C3572 H3563 0.929 . S
C3572 C3564 1.378 . S
C3572 C3567 1.350 . S
C3573 H3560 0.929 . S
C3573 C3565 1.433 . S
C3573 N3575 1.384 . S
N3574 C3570 1.427 . S
N3574 C3571 1.384 . S
N3575 C3567 1.427 . S
N3575 C3573 1.384 . S
H3576 C3582 0.930 . S
H3577 C3586 0.930 . S
H3578 C3591 0.929 . S
H3579 C3589 0.929 . S
H3580 C3584 0.929 . S
H3581 C3590 0.929 . S
C3582 H3576 0.930 . S
C3582 C3583 1.367 . S
C3582 C3590 1.378 . S
C3583 C3582 1.367 . S
C3583 C3591 1.433 . S
C3584 H3580 0.929 . S
C3584 C3586 1.378 . S
C3584 C3588 1.350 . S
C3585 C3588 1.463 . S
C3585 C3590 1.350 . S
C3585 N3593 1.427 . S
C3586 H3577 0.930 . S
C3586 C3584 1.378 . S
C3586 C3587 1.367 . S
C3587 C3586 1.367 . S
C3587 C3589 1.433 . S
C3588 C3584 1.350 . S
C3588 C3585 1.463 . S
C3588 N3592 1.427 . S
C3589 H3579 0.929 . S
C3589 C3587 1.433 . S
C3589 N3592 1.384 . S
C3590 H3581 0.929 . S
C3590 C3582 1.378 . S
C3590 C3585 1.350 . S
C3591 H3578 0.929 . S
C3591 C3583 1.433 . S
C3591 N3593 1.384 . S
N3592 C3588 1.427 . S
N3592 C3589 1.384 . S
N3593 C3585 1.427 . S
N3593 C3591 1.384 . S
H3594 C3600 0.930 . S
H3595 C3604 0.930 . S
H3596 C3609 0.929 . S
H3597 C3607 0.929 . S
H3598 C3602 0.929 . S
H3599 C3608 0.929 . S
C3600 H3594 0.930 . S
C3600 C3601 1.367 . S
C3600 C3608 1.378 . S
C3601 C3600 1.367 . S
C3601 C3609 1.433 . S
C3602 H3598 0.929 . S
C3602 C3604 1.378 . S
C3602 C3606 1.350 . S
C3603 C3606 1.463 . S
C3603 C3608 1.350 . S
C3603 N3611 1.427 . S
C3604 H3595 0.930 . S
C3604 C3602 1.378 . S
C3604 C3605 1.367 . S
C3605 C3604 1.367 . S
C3605 C3607 1.433 . S
C3606 C3602 1.350 . S
C3606 C3603 1.463 . S
C3606 N3610 1.427 . S
C3607 H3597 0.929 . S
C3607 C3605 1.433 . S
C3607 N3610 1.384 . S
C3608 H3599 0.929 . S
C3608 C3600 1.378 . S
C3608 C3603 1.350 . S
C3609 H3596 0.929 . S
C3609 C3601 1.433 . S
C3609 N3611 1.384 . S
N3610 C3606 1.427 . S
N3610 C3607 1.384 . S
N3611 C3603 1.427 . S
N3611 C3609 1.384 . S
H3612 C3618 0.930 . S
H3613 C3622 0.930 . S
H3614 C3627 0.929 . S
H3615 C3625 0.929 . S
H3616 C3620 0.929 . S
H3617 C3626 0.929 . S
C3618 H3612 0.930 . S
C3618 C3619 1.367 . S
C3618 C3626 1.378 . S
C3619 C3618 1.367 . S
C3619 C3627 1.433 . S
C3620 H3616 0.929 . S
C3620 C3622 1.378 . S
C3620 C3624 1.350 . S
C3621 C3624 1.463 . S
C3621 C3626 1.350 . S
C3621 N3629 1.427 . S
C3622 H3613 0.930 . S
C3622 C3620 1.378 . S
C3622 C3623 1.367 . S
C3623 C3622 1.367 . S
C3623 C3625 1.433 . S
C3624 C3620 1.350 . S
C3624 C3621 1.463 . S
C3624 N3628 1.427 . S
C3625 H3615 0.929 . S
C3625 C3623 1.433 . S
C3625 N3628 1.384 . S
C3626 H3617 0.929 . S
C3626 C3618 1.378 . S
C3626 C3621 1.350 . S
C3627 H3614 0.929 . S
C3627 C3619 1.433 . S
C3627 N3629 1.384 . S
N3628 C3624 1.427 . S
N3628 C3625 1.384 . S
N3629 C3621 1.427 . S
N3629 C3627 1.384 . S
H3630 C3636 0.930 . S
H3631 C3640 0.930 . S
H3632 C3645 0.929 . S
H3633 C3643 0.929 . S
H3634 C3638 0.929 . S
H3635 C3644 0.929 . S
C3636 H3630 0.930 . S
C3636 C3637 1.367 . S
C3636 C3644 1.378 . S
C3637 C3636 1.367 . S
C3637 C3645 1.433 . S
C3638 H3634 0.929 . S
C3638 C3640 1.378 . S
C3638 C3642 1.350 . S
C3639 C3642 1.463 . S
C3639 C3644 1.350 . S
C3639 N3647 1.427 . S
C3640 H3631 0.930 . S
C3640 C3638 1.378 . S
C3640 C3641 1.367 . S
C3641 C3640 1.367 . S
C3641 C3643 1.433 . S
C3642 C3638 1.350 . S
C3642 C3639 1.463 . S
C3642 N3646 1.427 . S
C3643 H3633 0.929 . S
C3643 C3641 1.433 . S
C3643 N3646 1.384 . S
C3644 H3635 0.929 . S
C3644 C3636 1.378 . S
C3644 C3639 1.350 . S
C3645 H3632 0.929 . S
C3645 C3637 1.433 . S
C3645 N3647 1.384 . S
N3646 C3642 1.427 . S
N3646 C3643 1.384 . S
N3647 C3639 1.427 . S
N3647 C3645 1.384 . S
H3648 C3654 0.930 . S
H3649 C3658 0.930 . S
H3650 C3663 0.929 . S
H3651 C3661 0.929 . S
H3652 C3656 0.929 . S
H3653 C3662 0.929 . S
C3654 H3648 0.930 . S
C3654 C3655 1.367 . S
C3654 C3662 1.378 . S
C3655 C3654 1.367 . S
C3655 C3663 1.433 . S
C3656 H3652 0.929 . S
C3656 C3658 1.378 . S
C3656 C3660 1.350 . S
C3657 C3660 1.463 . S
C3657 C3662 1.350 . S
C3657 N3665 1.427 . S
C3658 H3649 0.930 . S
C3658 C3656 1.378 . S
C3658 C3659 1.367 . S
C3659 C3658 1.367 . S
C3659 C3661 1.433 . S
C3660 C3656 1.350 . S
C3660 C3657 1.463 . S
C3660 N3664 1.427 . S
C3661 H3651 0.929 . S
C3661 C3659 1.433 . S
C3661 N3664 1.384 . S
C3662 H3653 0.929 . S
C3662 C3654 1.378 . S
C3662 C3657 1.350 . S
C3663 H3650 0.929 . S
C3663 C3655 1.433 . S
C3663 N3665 1.384 . S
N3664 C3660 1.427 . S
N3664 C3661 1.384 . S
N3665 C3657 1.427 . S
N3665 C3663 1.384 . S
H3666 C3672 0.930 . S
H3667 C3676 0.930 . S
H3668 C3681 0.929 . S
H3669 C3679 0.929 . S
H3670 C3674 0.929 . S
H3671 C3680 0.929 . S
C3672 H3666 0.930 . S
C3672 C3673 1.367 . S
C3672 C3680 1.378 . S
C3673 C3672 1.367 . S
C3673 C3681 1.433 . S
C3674 H3670 0.929 . S
C3674 C3676 1.378 . S
C3674 C3678 1.350 . S
C3675 C3678 1.463 . S
C3675 C3680 1.350 . S
C3675 N3683 1.427 . S
C3676 H3667 0.930 . S
C3676 C3674 1.378 . S
C3676 C3677 1.367 . S
C3677 C3676 1.367 . S
C3677 C3679 1.433 . S
C3678 C3674 1.350 . S
C3678 C3675 1.463 . S
C3678 N3682 1.427 . S
C3679 H3669 0.929 . S
C3679 C3677 1.433 . S
C3679 N3682 1.384 . S
C3680 H3671 0.929 . S
C3680 C3672 1.378 . S
C3680 C3675 1.350 . S
C3681 H3668 0.929 . S
C3681 C3673 1.433 . S
C3681 N3683 1.384 . S
N3682 C3678 1.427 . S
N3682 C3679 1.384 . S
N3683 C3675 1.427 . S
N3683 C3681 1.384 . S
H3684 C3690 0.930 . S
H3685 C3694 0.930 . S
H3686 C3699 0.929 . S
H3687 C3697 0.929 . S
H3688 C3692 0.929 . S
H3689 C3698 0.929 . S
C3690 H3684 0.930 . S
C3690 C3691 1.367 . S
C3690 C3698 1.378 . S
C3691 C3690 1.367 . S
C3691 C3699 1.433 . S
C3692 H3688 0.929 . S
C3692 C3694 1.378 . S
C3692 C3696 1.350 . S
C3693 C3696 1.463 . S
C3693 C3698 1.350 . S
C3693 N3701 1.427 . S
C3694 H3685 0.930 . S
C3694 C3692 1.378 . S
C3694 C3695 1.367 . S
C3695 C3694 1.367 . S
C3695 C3697 1.433 . S
C3696 C3692 1.350 . S
C3696 C3693 1.463 . S
C3696 N3700 1.427 . S
C3697 H3687 0.929 . S
C3697 C3695 1.433 . S
C3697 N3700 1.384 . S
C3698 H3689 0.929 . S
C3698 C3690 1.378 . S
C3698 C3693 1.350 . S
C3699 H3686 0.929 . S
C3699 C3691 1.433 . S
C3699 N3701 1.384 . S
N3700 C3696 1.427 . S
N3700 C3697 1.384 . S
N3701 C3693 1.427 . S
N3701 C3699 1.384 . S
H3702 C3708 0.930 . S
H3703 C3712 0.930 . S
H3704 C3717 0.929 . S
H3705 C3715 0.929 . S
H3706 C3710 0.929 . S
H3707 C3716 0.929 . S
C3708 H3702 0.930 . S
C3708 C3709 1.367 . S
C3708 C3716 1.378 . S
C3709 C3708 1.367 . S
C3709 C3717 1.433 . S
C3710 H3706 0.929 . S
C3710 C3712 1.378 . S
C3710 C3714 1.350 . S
C3711 C3714 1.463 . S
C3711 C3716 1.350 . S
C3711 N3719 1.427 . S
C3712 H3703 0.930 . S
C3712 C3710 1.378 . S
C3712 C3713 1.367 . S
C3713 C3712 1.367 . S
C3713 C3715 1.433 . S
C3714 C3710 1.350 . S
C3714 C3711 1.463 . S
C3714 N3718 1.427 . S
C3715 H3705 0.929 . S
C3715 C3713 1.433 . S
C3715 N3718 1.384 . S
C3716 H3707 0.929 . S
C3716 C3708 1.378 . S
C3716 C3711 1.350 . S
C3717 H3704 0.929 . S
C3717 C3709 1.433 . S
C3717 N3719 1.384 . S
N3718 C3714 1.427 . S
N3718 C3715 1.384 . S
N3719 C3711 1.427 . S
N3719 C3717 1.384 . S
H3720 C3726 0.930 . S
H3721 C3730 0.930 . S
H3722 C3735 0.929 . S
H3723 C3733 0.929 . S
H3724 C3728 0.929 . S
H3725 C3734 0.929 . S
C3726 H3720 0.930 . S
C3726 C3727 1.367 . S
C3726 C3734 1.378 . S
C3727 C3726 1.367 . S
C3727 C3735 1.433 . S
C3728 H3724 0.929 . S
C3728 C3730 1.378 . S
C3728 C3732 1.350 . S
C3729 C3732 1.463 . S
C3729 C3734 1.350 . S
C3729 N3737 1.427 . S
C3730 H3721 0.930 . S
C3730 C3728 1.378 . S
C3730 C3731 1.367 . S
C3731 C3730 1.367 . S
C3731 C3733 1.433 . S
C3732 C3728 1.350 . S
C3732 C3729 1.463 . S
C3732 N3736 1.427 . S
C3733 H3723 0.929 . S
C3733 C3731 1.433 . S
C3733 N3736 1.384 . S
C3734 H3725 0.929 . S
C3734 C3726 1.378 . S
C3734 C3729 1.350 . S
C3735 H3722 0.929 . S
C3735 C3727 1.433 . S
C3735 N3737 1.384 . S
N3736 C3732 1.427 . S
N3736 C3733 1.384 . S
N3737 C3729 1.427 . S
N3737 C3735 1.384 . S
H3738 C3744 0.930 . S
H3739 C3748 0.930 . S
H3740 C3753 0.929 . S
H3741 C3751 0.929 . S
H3742 C3746 0.929 . S
H3743 C3752 0.929 . S
C3744 H3738 0.930 . S
C3744 C3745 1.367 . S
C3744 C3752 1.378 . S
C3745 C3744 1.367 . S
C3745 C3753 1.433 . S
C3746 H3742 0.929 . S
C3746 C3748 1.378 . S
C3746 C3750 1.350 . S
C3747 C3750 1.463 . S
C3747 C3752 1.350 . S
C3747 N3755 1.427 . S
C3748 H3739 0.930 . S
C3748 C3746 1.378 . S
C3748 C3749 1.367 . S
C3749 C3748 1.367 . S
C3749 C3751 1.433 . S
C3750 C3746 1.350 . S
C3750 C3747 1.463 . S
C3750 N3754 1.427 . S
C3751 H3741 0.929 . S
C3751 C3749 1.433 . S
C3751 N3754 1.384 . S
C3752 H3743 0.929 . S
C3752 C3744 1.378 . S
C3752 C3747 1.350 . S
C3753 H3740 0.929 . S
C3753 C3745 1.433 . S
C3753 N3755 1.384 . S
N3754 C3750 1.427 . S
N3754 C3751 1.384 . S
N3755 C3747 1.427 . S
N3755 C3753 1.384 . S
H3756 C3762 0.930 . S
H3757 C3766 0.930 . S
H3758 C3771 0.929 . S
H3759 C3769 0.929 . S
H3760 C3764 0.929 . S
H3761 C3770 0.929 . S
C3762 H3756 0.930 . S
C3762 C3763 1.367 . S
C3762 C3770 1.378 . S
C3763 C3762 1.367 . S
C3763 C3771 1.433 . S
C3764 H3760 0.929 . S
C3764 C3766 1.378 . S
C3764 C3768 1.350 . S
C3765 C3768 1.463 . S
C3765 C3770 1.350 . S
C3765 N3773 1.427 . S
C3766 H3757 0.930 . S
C3766 C3764 1.378 . S
C3766 C3767 1.367 . S
C3767 C3766 1.367 . S
C3767 C3769 1.433 . S
C3768 C3764 1.350 . S
C3768 C3765 1.463 . S
C3768 N3772 1.427 . S
C3769 H3759 0.929 . S
C3769 C3767 1.433 . S
C3769 N3772 1.384 . S
C3770 H3761 0.929 . S
C3770 C3762 1.378 . S
C3770 C3765 1.350 . S
C3771 H3758 0.929 . S
C3771 C3763 1.433 . S
C3771 N3773 1.384 . S
N3772 C3768 1.427 . S
N3772 C3769 1.384 . S
N3773 C3765 1.427 . S
N3773 C3771 1.384 . S
H3774 C3780 0.930 . S
H3775 C3784 0.930 . S
H3776 C3789 0.929 . S
H3777 C3787 0.929 . S
H3778 C3782 0.929 . S
H3779 C3788 0.929 . S
C3780 H3774 0.930 . S
C3780 C3781 1.367 . S
C3780 C3788 1.378 . S
C3781 C3780 1.367 . S
C3781 C3789 1.433 . S
C3782 H3778 0.929 . S
C3782 C3784 1.378 . S
C3782 C3786 1.350 . S
C3783 C3786 1.463 . S
C3783 C3788 1.350 . S
C3783 N3791 1.427 . S
C3784 H3775 0.930 . S
C3784 C3782 1.378 . S
C3784 C3785 1.367 . S
C3785 C3784 1.367 . S
C3785 C3787 1.433 . S
C3786 C3782 1.350 . S
C3786 C3783 1.463 . S
C3786 N3790 1.427 . S
C3787 H3777 0.929 . S
C3787 C3785 1.433 . S
C3787 N3790 1.384 . S
C3788 H3779 0.929 . S
C3788 C3780 1.378 . S
C3788 C3783 1.350 . S
C3789 H3776 0.929 . S
C3789 C3781 1.433 . S
C3789 N3791 1.384 . S
N3790 C3786 1.427 . S
N3790 C3787 1.384 . S
N3791 C3783 1.427 . S
N3791 C3789 1.384 . S
H3792 C3798 0.930 . S
H3793 C3802 0.930 . S
H3794 C3807 0.929 . S
H3795 C3805 0.929 . S
H3796 C3800 0.929 . S
H3797 C3806 0.929 . S
C3798 H3792 0.930 . S
C3798 C3799 1.367 . S
C3798 C3806 1.378 . S
C3799 C3798 1.367 . S
C3799 C3807 1.433 . S
C3800 H3796 0.929 . S
C3800 C3802 1.378 . S
C3800 C3804 1.350 . S
C3801 C3804 1.463 . S
C3801 C3806 1.350 . S
C3801 N3809 1.427 . S
C3802 H3793 0.930 . S
C3802 C3800 1.378 . S
C3802 C3803 1.367 . S
C3803 C3802 1.367 . S
C3803 C3805 1.433 . S
C3804 C3800 1.350 . S
C3804 C3801 1.463 . S
C3804 N3808 1.427 . S
C3805 H3795 0.929 . S
C3805 C3803 1.433 . S
C3805 N3808 1.384 . S
C3806 H3797 0.929 . S
C3806 C3798 1.378 . S
C3806 C3801 1.350 . S
C3807 H3794 0.929 . S
C3807 C3799 1.433 . S
C3807 N3809 1.384 . S
N3808 C3804 1.427 . S
N3808 C3805 1.384 . S
N3809 C3801 1.427 . S
N3809 C3807 1.384 . S
H3810 C3816 0.930 . S
H3811 C3820 0.930 . S
H3812 C3825 0.929 . S
H3813 C3823 0.929 . S
H3814 C3818 0.929 . S
H3815 C3824 0.929 . S
C3816 H3810 0.930 . S
C3816 C3817 1.367 . S
C3816 C3824 1.378 . S
C3817 C3816 1.367 . S
C3817 C3825 1.433 . S
C3818 H3814 0.929 . S
C3818 C3820 1.378 . S
C3818 C3822 1.350 . S
C3819 C3822 1.463 . S
C3819 C3824 1.350 . S
C3819 N3827 1.427 . S
C3820 H3811 0.930 . S
C3820 C3818 1.378 . S
C3820 C3821 1.367 . S
C3821 C3820 1.367 . S
C3821 C3823 1.433 . S
C3822 C3818 1.350 . S
C3822 C3819 1.463 . S
C3822 N3826 1.427 . S
C3823 H3813 0.929 . S
C3823 C3821 1.433 . S
C3823 N3826 1.384 . S
C3824 H3815 0.929 . S
C3824 C3816 1.378 . S
C3824 C3819 1.350 . S
C3825 H3812 0.929 . S
C3825 C3817 1.433 . S
C3825 N3827 1.384 . S
N3826 C3822 1.427 . S
N3826 C3823 1.384 . S
N3827 C3819 1.427 . S
N3827 C3825 1.384 . S
H3828 C3834 0.930 . S
H3829 C3838 0.930 . S
H3830 C3843 0.929 . S
H3831 C3841 0.929 . S
H3832 C3836 0.929 . S
H3833 C3842 0.929 . S
C3834 H3828 0.930 . S
C3834 C3835 1.367 . S
C3834 C3842 1.378 . S
C3835 C3834 1.367 . S
C3835 C3843 1.433 . S
C3836 H3832 0.929 . S
C3836 C3838 1.378 . S
C3836 C3840 1.350 . S
C3837 C3840 1.463 . S
C3837 C3842 1.350 . S
C3837 N3845 1.427 . S
C3838 H3829 0.930 . S
C3838 C3836 1.378 . S
C3838 C3839 1.367 . S
C3839 C3838 1.367 . S
C3839 C3841 1.433 . S
C3840 C3836 1.350 . S
C3840 C3837 1.463 . S
C3840 N3844 1.427 . S
C3841 H3831 0.929 . S
C3841 C3839 1.433 . S
C3841 N3844 1.384 . S
C3842 H3833 0.929 . S
C3842 C3834 1.378 . S
C3842 C3837 1.350 . S
C3843 H3830 0.929 . S
C3843 C3835 1.433 . S
C3843 N3845 1.384 . S
N3844 C3840 1.427 . S
N3844 C3841 1.384 . S
N3845 C3837 1.427 . S
N3845 C3843 1.384 . S
H3846 C3852 0.930 . S
H3847 C3856 0.930 . S
H3848 C3861 0.929 . S
H3849 C3859 0.929 . S
H3850 C3854 0.929 . S
H3851 C3860 0.929 . S
C3852 H3846 0.930 . S
C3852 C3853 1.367 . S
C3852 C3860 1.378 . S
C3853 C3852 1.367 . S
C3853 C3861 1.433 . S
C3854 H3850 0.929 . S
C3854 C3856 1.378 . S
C3854 C3858 1.350 . S
C3855 C3858 1.463 . S
C3855 C3860 1.350 . S
C3855 N3863 1.427 . S
C3856 H3847 0.930 . S
C3856 C3854 1.378 . S
C3856 C3857 1.367 . S
C3857 C3856 1.367 . S
C3857 C3859 1.433 . S
C3858 C3854 1.350 . S
C3858 C3855 1.463 . S
C3858 N3862 1.427 . S
C3859 H3849 0.929 . S
C3859 C3857 1.433 . S
C3859 N3862 1.384 . S
C3860 H3851 0.929 . S
C3860 C3852 1.378 . S
C3860 C3855 1.350 . S
C3861 H3848 0.929 . S
C3861 C3853 1.433 . S
C3861 N3863 1.384 . S
N3862 C3858 1.427 . S
N3862 C3859 1.384 . S
N3863 C3855 1.427 . S
N3863 C3861 1.384 . S
H3864 C3870 0.930 . S
H3865 C3874 0.930 . S
H3866 C3879 0.929 . S
H3867 C3877 0.929 . S
H3868 C3872 0.929 . S
H3869 C3878 0.929 . S
C3870 H3864 0.930 . S
C3870 C3871 1.367 . S
C3870 C3878 1.378 . S
C3871 C3870 1.367 . S
C3871 C3879 1.433 . S
C3872 H3868 0.929 . S
C3872 C3874 1.378 . S
C3872 C3876 1.350 . S
C3873 C3876 1.463 . S
C3873 C3878 1.350 . S
C3873 N3881 1.427 . S
C3874 H3865 0.930 . S
C3874 C3872 1.378 . S
C3874 C3875 1.367 . S
C3875 C3874 1.367 . S
C3875 C3877 1.433 . S
C3876 C3872 1.350 . S
C3876 C3873 1.463 . S
C3876 N3880 1.427 . S
C3877 H3867 0.929 . S
C3877 C3875 1.433 . S
C3877 N3880 1.384 . S
C3878 H3869 0.929 . S
C3878 C3870 1.378 . S
C3878 C3873 1.350 . S
C3879 H3866 0.929 . S
C3879 C3871 1.433 . S
C3879 N3881 1.384 . S
N3880 C3876 1.427 . S
N3880 C3877 1.384 . S
N3881 C3873 1.427 . S
N3881 C3879 1.384 . S
H3882 C3888 0.930 . S
H3883 C3892 0.930 . S
H3884 C3897 0.929 . S
H3885 C3895 0.929 . S
H3886 C3890 0.929 . S
H3887 C3896 0.929 . S
C3888 H3882 0.930 . S
C3888 C3889 1.367 . S
C3888 C3896 1.378 . S
C3889 C3888 1.367 . S
C3889 C3897 1.433 . S
C3890 H3886 0.929 . S
C3890 C3892 1.378 . S
C3890 C3894 1.350 . S
C3891 C3894 1.463 . S
C3891 C3896 1.350 . S
C3891 N3899 1.427 . S
C3892 H3883 0.930 . S
C3892 C3890 1.378 . S
C3892 C3893 1.367 . S
C3893 C3892 1.367 . S
C3893 C3895 1.433 . S
C3894 C3890 1.350 . S
C3894 C3891 1.463 . S
C3894 N3898 1.427 . S
C3895 H3885 0.929 . S
C3895 C3893 1.433 . S
C3895 N3898 1.384 . S
C3896 H3887 0.929 . S
C3896 C3888 1.378 . S
C3896 C3891 1.350 . S
C3897 H3884 0.929 . S
C3897 C3889 1.433 . S
C3897 N3899 1.384 . S
N3898 C3894 1.427 . S
N3898 C3895 1.384 . S
N3899 C3891 1.427 . S
N3899 C3897 1.384 . S
H3900 C3906 0.930 . S
H3901 C3910 0.930 . S
H3902 C3915 0.929 . S
H3903 C3913 0.929 . S
H3904 C3908 0.929 . S
H3905 C3914 0.929 . S
C3906 H3900 0.930 . S
C3906 C3907 1.367 . S
C3906 C3914 1.378 . S
C3907 C3906 1.367 . S
C3907 C3915 1.433 . S
C3908 H3904 0.929 . S
C3908 C3910 1.378 . S
C3908 C3912 1.350 . S
C3909 C3912 1.463 . S
C3909 C3914 1.350 . S
C3909 N3917 1.427 . S
C3910 H3901 0.930 . S
C3910 C3908 1.378 . S
C3910 C3911 1.367 . S
C3911 C3910 1.367 . S
C3911 C3913 1.433 . S
C3912 C3908 1.350 . S
C3912 C3909 1.463 . S
C3912 N3916 1.427 . S
C3913 H3903 0.929 . S
C3913 C3911 1.433 . S
C3913 N3916 1.384 . S
C3914 H3905 0.929 . S
C3914 C3906 1.378 . S
C3914 C3909 1.350 . S
C3915 H3902 0.929 . S
C3915 C3907 1.433 . S
C3915 N3917 1.384 . S
N3916 C3912 1.427 . S
N3916 C3913 1.384 . S
N3917 C3909 1.427 . S
N3917 C3915 1.384 . S
H3918 C3924 0.930 . S
H3919 C3928 0.930 . S
H3920 C3933 0.929 . S
H3921 C3931 0.929 . S
H3922 C3926 0.929 . S
H3923 C3932 0.929 . S
C3924 H3918 0.930 . S
C3924 C3925 1.367 . S
C3924 C3932 1.378 . S
C3925 C3924 1.367 . S
C3925 C3933 1.433 . S
C3926 H3922 0.929 . S
C3926 C3928 1.378 . S
C3926 C3930 1.350 . S
C3927 C3930 1.463 . S
C3927 C3932 1.350 . S
C3927 N3935 1.427 . S
C3928 H3919 0.930 . S
C3928 C3926 1.378 . S
C3928 C3929 1.367 . S
C3929 C3928 1.367 . S
C3929 C3931 1.433 . S
C3930 C3926 1.350 . S
C3930 C3927 1.463 . S
C3930 N3934 1.427 . S
C3931 H3921 0.929 . S
C3931 C3929 1.433 . S
C3931 N3934 1.384 . S
C3932 H3923 0.929 . S
C3932 C3924 1.378 . S
C3932 C3927 1.350 . S
C3933 H3920 0.929 . S
C3933 C3925 1.433 . S
C3933 N3935 1.384 . S
N3934 C3930 1.427 . S
N3934 C3931 1.384 . S
N3935 C3927 1.427 . S
N3935 C3933 1.384 . S
H3936 C3942 0.930 . S
H3937 C3946 0.930 . S
H3938 C3951 0.929 . S
H3939 C3949 0.929 . S
H3940 C3944 0.929 . S
H3941 C3950 0.929 . S
C3942 H3936 0.930 . S
C3942 C3943 1.367 . S
C3942 C3950 1.378 . S
C3943 C3942 1.367 . S
C3943 C3951 1.433 . S
C3944 H3940 0.929 . S
C3944 C3946 1.378 . S
C3944 C3948 1.350 . S
C3945 C3948 1.463 . S
C3945 C3950 1.350 . S
C3945 N3953 1.427 . S
C3946 H3937 0.930 . S
C3946 C3944 1.378 . S
C3946 C3947 1.367 . S
C3947 C3946 1.367 . S
C3947 C3949 1.433 . S
C3948 C3944 1.350 . S
C3948 C3945 1.463 . S
C3948 N3952 1.427 . S
C3949 H3939 0.929 . S
C3949 C3947 1.433 . S
C3949 N3952 1.384 . S
C3950 H3941 0.929 . S
C3950 C3942 1.378 . S
C3950 C3945 1.350 . S
C3951 H3938 0.929 . S
C3951 C3943 1.433 . S
C3951 N3953 1.384 . S
N3952 C3948 1.427 . S
N3952 C3949 1.384 . S
N3953 C3945 1.427 . S
N3953 C3951 1.384 . S
H3954 C3960 0.930 . S
H3955 C3964 0.930 . S
H3956 C3969 0.929 . S
H3957 C3967 0.929 . S
H3958 C3962 0.929 . S
H3959 C3968 0.929 . S
C3960 H3954 0.930 . S
C3960 C3961 1.367 . S
C3960 C3968 1.378 . S
C3961 C3960 1.367 . S
C3961 C3969 1.433 . S
C3962 H3958 0.929 . S
C3962 C3964 1.378 . S
C3962 C3966 1.350 . S
C3963 C3966 1.463 . S
C3963 C3968 1.350 . S
C3963 N3971 1.427 . S
C3964 H3955 0.930 . S
C3964 C3962 1.378 . S
C3964 C3965 1.367 . S
C3965 C3964 1.367 . S
C3965 C3967 1.433 . S
C3966 C3962 1.350 . S
C3966 C3963 1.463 . S
C3966 N3970 1.427 . S
C3967 H3957 0.929 . S
C3967 C3965 1.433 . S
C3967 N3970 1.384 . S
C3968 H3959 0.929 . S
C3968 C3960 1.378 . S
C3968 C3963 1.350 . S
C3969 H3956 0.929 . S
C3969 C3961 1.433 . S
C3969 N3971 1.384 . S
N3970 C3966 1.427 . S
N3970 C3967 1.384 . S
N3971 C3963 1.427 . S
N3971 C3969 1.384 . S
H3972 C3978 0.930 . S
H3973 C3982 0.930 . S
H3974 C3987 0.929 . S
H3975 C3985 0.929 . S
H3976 C3980 0.929 . S
H3977 C3986 0.929 . S
C3978 H3972 0.930 . S
C3978 C3979 1.367 . S
C3978 C3986 1.378 . S
C3979 C3978 1.367 . S
C3979 C3987 1.433 . S
C3980 H3976 0.929 . S
C3980 C3982 1.378 . S
C3980 C3984 1.350 . S
C3981 C3984 1.463 . S
C3981 C3986 1.350 . S
C3981 N3989 1.427 . S
C3982 H3973 0.930 . S
C3982 C3980 1.378 . S
C3982 C3983 1.367 . S
C3983 C3982 1.367 . S
C3983 C3985 1.433 . S
C3984 C3980 1.350 . S
C3984 C3981 1.463 . S
C3984 N3988 1.427 . S
C3985 H3975 0.929 . S
C3985 C3983 1.433 . S
C3985 N3988 1.384 . S
C3986 H3977 0.929 . S
C3986 C3978 1.378 . S
C3986 C3981 1.350 . S
C3987 H3974 0.929 . S
C3987 C3979 1.433 . S
C3987 N3989 1.384 . S
N3988 C3984 1.427 . S
N3988 C3985 1.384 . S
N3989 C3981 1.427 . S
N3989 C3987 1.384 . S
H3990 C3996 0.930 . S
H3991 C4000 0.930 . S
H3992 C4005 0.929 . S
H3993 C4003 0.929 . S
H3994 C3998 0.929 . S
H3995 C4004 0.929 . S
C3996 H3990 0.930 . S
C3996 C3997 1.367 . S
C3996 C4004 1.378 . S
C3997 C3996 1.367 . S
C3997 C4005 1.433 . S
C3998 H3994 0.929 . S
C3998 C4000 1.378 . S
C3998 C4002 1.350 . S
C3999 C4002 1.463 . S
C3999 C4004 1.350 . S
C3999 N4007 1.427 . S
C4000 H3991 0.930 . S
C4000 C3998 1.378 . S
C4000 C4001 1.367 . S
C4001 C4000 1.367 . S
C4001 C4003 1.433 . S
C4002 C3998 1.350 . S
C4002 C3999 1.463 . S
C4002 N4006 1.427 . S
C4003 H3993 0.929 . S
C4003 C4001 1.433 . S
C4003 N4006 1.384 . S
C4004 H3995 0.929 . S
C4004 C3996 1.378 . S
C4004 C3999 1.350 . S
C4005 H3992 0.929 . S
C4005 C3997 1.433 . S
C4005 N4007 1.384 . S
N4006 C4002 1.427 . S
N4006 C4003 1.384 . S
N4007 C3999 1.427 . S
N4007 C4005 1.384 . S
H4008 C4014 0.930 . S
H4009 C4018 0.930 . S
H4010 C4023 0.929 . S
H4011 C4021 0.929 . S
H4012 C4016 0.929 . S
H4013 C4022 0.929 . S
C4014 H4008 0.930 . S
C4014 C4015 1.367 . S
C4014 C4022 1.378 . S
C4015 C4014 1.367 . S
C4015 C4023 1.433 . S
C4016 H4012 0.929 . S
C4016 C4018 1.378 . S
C4016 C4020 1.350 . S
C4017 C4020 1.463 . S
C4017 C4022 1.350 . S
C4017 N4025 1.427 . S
C4018 H4009 0.930 . S
C4018 C4016 1.378 . S
C4018 C4019 1.367 . S
C4019 C4018 1.367 . S
C4019 C4021 1.433 . S
C4020 C4016 1.350 . S
C4020 C4017 1.463 . S
C4020 N4024 1.427 . S
C4021 H4011 0.929 . S
C4021 C4019 1.433 . S
C4021 N4024 1.384 . S
C4022 H4013 0.929 . S
C4022 C4014 1.378 . S
C4022 C4017 1.350 . S
C4023 H4010 0.929 . S
C4023 C4015 1.433 . S
C4023 N4025 1.384 . S
N4024 C4020 1.427 . S
N4024 C4021 1.384 . S
N4025 C4017 1.427 . S
N4025 C4023 1.384 . S
H4026 C4032 0.930 . S
H4027 C4036 0.930 . S
H4028 C4041 0.929 . S
H4029 C4039 0.929 . S
H4030 C4034 0.929 . S
H4031 C4040 0.929 . S
C4032 H4026 0.930 . S
C4032 C4033 1.367 . S
C4032 C4040 1.378 . S
C4033 C4032 1.367 . S
C4033 C4041 1.433 . S
C4034 H4030 0.929 . S
C4034 C4036 1.378 . S
C4034 C4038 1.350 . S
C4035 C4038 1.463 . S
C4035 C4040 1.350 . S
C4035 N4043 1.427 . S
C4036 H4027 0.930 . S
C4036 C4034 1.378 . S
C4036 C4037 1.367 . S
C4037 C4036 1.367 . S
C4037 C4039 1.433 . S
C4038 C4034 1.350 . S
C4038 C4035 1.463 . S
C4038 N4042 1.427 . S
C4039 H4029 0.929 . S
C4039 C4037 1.433 . S
C4039 N4042 1.384 . S
C4040 H4031 0.929 . S
C4040 C4032 1.378 . S
C4040 C4035 1.350 . S
C4041 H4028 0.929 . S
C4041 C4033 1.433 . S
C4041 N4043 1.384 . S
N4042 C4038 1.427 . S
N4042 C4039 1.384 . S
N4043 C4035 1.427 . S
N4043 C4041 1.384 . S
H4044 C4050 0.930 . S
H4045 C4054 0.930 . S
H4046 C4059 0.929 . S
H4047 C4057 0.929 . S
H4048 C4052 0.929 . S
H4049 C4058 0.929 . S
C4050 H4044 0.930 . S
C4050 C4051 1.367 . S
C4050 C4058 1.378 . S
C4051 C4050 1.367 . S
C4051 C4059 1.433 . S
C4052 H4048 0.929 . S
C4052 C4054 1.378 . S
C4052 C4056 1.350 . S
C4053 C4056 1.463 . S
C4053 C4058 1.350 . S
C4053 N4061 1.427 . S
C4054 H4045 0.930 . S
C4054 C4052 1.378 . S
C4054 C4055 1.367 . S
C4055 C4054 1.367 . S
C4055 C4057 1.433 . S
C4056 C4052 1.350 . S
C4056 C4053 1.463 . S
C4056 N4060 1.427 . S
C4057 H4047 0.929 . S
C4057 C4055 1.433 . S
C4057 N4060 1.384 . S
C4058 H4049 0.929 . S
C4058 C4050 1.378 . S
C4058 C4053 1.350 . S
C4059 H4046 0.929 . S
C4059 C4051 1.433 . S
C4059 N4061 1.384 . S
N4060 C4056 1.427 . S
N4060 C4057 1.384 . S
N4061 C4053 1.427 . S
N4061 C4059 1.384 . S
H4062 C4068 0.930 . S
H4063 C4072 0.930 . S
H4064 C4077 0.929 . S
H4065 C4075 0.929 . S
H4066 C4070 0.929 . S
H4067 C4076 0.929 . S
C4068 H4062 0.930 . S
C4068 C4069 1.367 . S
C4068 C4076 1.378 . S
C4069 C4068 1.367 . S
C4069 C4077 1.433 . S
C4070 H4066 0.929 . S
C4070 C4072 1.378 . S
C4070 C4074 1.350 . S
C4071 C4074 1.463 . S
C4071 C4076 1.350 . S
C4071 N4079 1.427 . S
C4072 H4063 0.930 . S
C4072 C4070 1.378 . S
C4072 C4073 1.367 . S
C4073 C4072 1.367 . S
C4073 C4075 1.433 . S
C4074 C4070 1.350 . S
C4074 C4071 1.463 . S
C4074 N4078 1.427 . S
C4075 H4065 0.929 . S
C4075 C4073 1.433 . S
C4075 N4078 1.384 . S
C4076 H4067 0.929 . S
C4076 C4068 1.378 . S
C4076 C4071 1.350 . S
C4077 H4064 0.929 . S
C4077 C4069 1.433 . S
C4077 N4079 1.384 . S
N4078 C4074 1.427 . S
N4078 C4075 1.384 . S
N4079 C4071 1.427 . S
N4079 C4077 1.384 . S
H4080 C4086 0.930 . S
H4081 C4090 0.930 . S
H4082 C4095 0.929 . S
H4083 C4093 0.929 . S
H4084 C4088 0.929 . S
H4085 C4094 0.929 . S
C4086 H4080 0.930 . S
C4086 C4087 1.367 . S
C4086 C4094 1.378 . S
C4087 C4086 1.367 . S
C4087 C4095 1.433 . S
C4088 H4084 0.929 . S
C4088 C4090 1.378 . S
C4088 C4092 1.350 . S
C4089 C4092 1.463 . S
C4089 C4094 1.350 . S
C4089 N4097 1.427 . S
C4090 H4081 0.930 . S
C4090 C4088 1.378 . S
C4090 C4091 1.367 . S
C4091 C4090 1.367 . S
C4091 C4093 1.433 . S
C4092 C4088 1.350 . S
C4092 C4089 1.463 . S
C4092 N4096 1.427 . S
C4093 H4083 0.929 . S
C4093 C4091 1.433 . S
C4093 N4096 1.384 . S
C4094 H4085 0.929 . S
C4094 C4086 1.378 . S
C4094 C4089 1.350 . S
C4095 H4082 0.929 . S
C4095 C4087 1.433 . S
C4095 N4097 1.384 . S
N4096 C4092 1.427 . S
N4096 C4093 1.384 . S
N4097 C4089 1.427 . S
N4097 C4095 1.384 . S
H4098 C4104 0.930 . S
H4099 C4108 0.930 . S
H4100 C4113 0.929 . S
H4101 C4111 0.929 . S
H4102 C4106 0.929 . S
H4103 C4112 0.929 . S
C4104 H4098 0.930 . S
C4104 C4105 1.367 . S
C4104 C4112 1.378 . S
C4105 C4104 1.367 . S
C4105 C4113 1.433 . S
C4106 H4102 0.929 . S
C4106 C4108 1.378 . S
C4106 C4110 1.350 . S
C4107 C4110 1.463 . S
C4107 C4112 1.350 . S
C4107 N4115 1.427 . S
C4108 H4099 0.930 . S
C4108 C4106 1.378 . S
C4108 C4109 1.367 . S
C4109 C4108 1.367 . S
C4109 C4111 1.433 . S
C4110 C4106 1.350 . S
C4110 C4107 1.463 . S
C4110 N4114 1.427 . S
C4111 H4101 0.929 . S
C4111 C4109 1.433 . S
C4111 N4114 1.384 . S
C4112 H4103 0.929 . S
C4112 C4104 1.378 . S
C4112 C4107 1.350 . S
C4113 H4100 0.929 . S
C4113 C4105 1.433 . S
C4113 N4115 1.384 . S
N4114 C4110 1.427 . S
N4114 C4111 1.384 . S
N4115 C4107 1.427 . S
N4115 C4113 1.384 . S
H4116 C4122 0.930 . S
H4117 C4126 0.930 . S
H4118 C4131 0.929 . S
H4119 C4129 0.929 . S
H4120 C4124 0.929 . S
H4121 C4130 0.929 . S
C4122 H4116 0.930 . S
C4122 C4123 1.367 . S
C4122 C4130 1.378 . S
C4123 C4122 1.367 . S
C4123 C4131 1.433 . S
C4124 H4120 0.929 . S
C4124 C4126 1.378 . S
C4124 C4128 1.350 . S
C4125 C4128 1.463 . S
C4125 C4130 1.350 . S
C4125 N4133 1.427 . S
C4126 H4117 0.930 . S
C4126 C4124 1.378 . S
C4126 C4127 1.367 . S
C4127 C4126 1.367 . S
C4127 C4129 1.433 . S
C4128 C4124 1.350 . S
C4128 C4125 1.463 . S
C4128 N4132 1.427 . S
C4129 H4119 0.929 . S
C4129 C4127 1.433 . S
C4129 N4132 1.384 . S
C4130 H4121 0.929 . S
C4130 C4122 1.378 . S
C4130 C4125 1.350 . S
C4131 H4118 0.929 . S
C4131 C4123 1.433 . S
C4131 N4133 1.384 . S
N4132 C4128 1.427 . S
N4132 C4129 1.384 . S
N4133 C4125 1.427 . S
N4133 C4131 1.384 . S
H4134 C4140 0.930 . S
H4135 C4144 0.930 . S
H4136 C4149 0.929 . S
H4137 C4147 0.929 . S
H4138 C4142 0.929 . S
H4139 C4148 0.929 . S
C4140 H4134 0.930 . S
C4140 C4141 1.367 . S
C4140 C4148 1.378 . S
C4141 C4140 1.367 . S
C4141 C4149 1.433 . S
C4142 H4138 0.929 . S
C4142 C4144 1.378 . S
C4142 C4146 1.350 . S
C4143 C4146 1.463 . S
C4143 C4148 1.350 . S
C4143 N4151 1.427 . S
C4144 H4135 0.930 . S
C4144 C4142 1.378 . S
C4144 C4145 1.367 . S
C4145 C4144 1.367 . S
C4145 C4147 1.433 . S
C4146 C4142 1.350 . S
C4146 C4143 1.463 . S
C4146 N4150 1.427 . S
C4147 H4137 0.929 . S
C4147 C4145 1.433 . S
C4147 N4150 1.384 . S
C4148 H4139 0.929 . S
C4148 C4140 1.378 . S
C4148 C4143 1.350 . S
C4149 H4136 0.929 . S
C4149 C4141 1.433 . S
C4149 N4151 1.384 . S
N4150 C4146 1.427 . S
N4150 C4147 1.384 . S
N4151 C4143 1.427 . S
N4151 C4149 1.384 . S
H4152 C4158 0.930 . S
H4153 C4162 0.930 . S
H4154 C4167 0.929 . S
H4155 C4165 0.929 . S
H4156 C4160 0.929 . S
H4157 C4166 0.929 . S
C4158 H4152 0.930 . S
C4158 C4159 1.367 . S
C4158 C4166 1.378 . S
C4159 C4158 1.367 . S
C4159 C4167 1.433 . S
C4160 H4156 0.929 . S
C4160 C4162 1.378 . S
C4160 C4164 1.350 . S
C4161 C4164 1.463 . S
C4161 C4166 1.350 . S
C4161 N4169 1.427 . S
C4162 H4153 0.930 . S
C4162 C4160 1.378 . S
C4162 C4163 1.367 . S
C4163 C4162 1.367 . S
C4163 C4165 1.433 . S
C4164 C4160 1.350 . S
C4164 C4161 1.463 . S
C4164 N4168 1.427 . S
C4165 H4155 0.929 . S
C4165 C4163 1.433 . S
C4165 N4168 1.384 . S
C4166 H4157 0.929 . S
C4166 C4158 1.378 . S
C4166 C4161 1.350 . S
C4167 H4154 0.929 . S
C4167 C4159 1.433 . S
C4167 N4169 1.384 . S
N4168 C4164 1.427 . S
N4168 C4165 1.384 . S
N4169 C4161 1.427 . S
N4169 C4167 1.384 . S
H4170 C4176 0.930 . S
H4171 C4180 0.930 . S
H4172 C4185 0.929 . S
H4173 C4183 0.929 . S
H4174 C4178 0.929 . S
H4175 C4184 0.929 . S
C4176 H4170 0.930 . S
C4176 C4177 1.367 . S
C4176 C4184 1.378 . S
C4177 C4176 1.367 . S
C4177 C4185 1.433 . S
C4178 H4174 0.929 . S
C4178 C4180 1.378 . S
C4178 C4182 1.350 . S
C4179 C4182 1.463 . S
C4179 C4184 1.350 . S
C4179 N4187 1.427 . S
C4180 H4171 0.930 . S
C4180 C4178 1.378 . S
C4180 C4181 1.367 . S
C4181 C4180 1.367 . S
C4181 C4183 1.433 . S
C4182 C4178 1.350 . S
C4182 C4179 1.463 . S
C4182 N4186 1.427 . S
C4183 H4173 0.929 . S
C4183 C4181 1.433 . S
C4183 N4186 1.384 . S
C4184 H4175 0.929 . S
C4184 C4176 1.378 . S
C4184 C4179 1.350 . S
C4185 H4172 0.929 . S
C4185 C4177 1.433 . S
C4185 N4187 1.384 . S
N4186 C4182 1.427 . S
N4186 C4183 1.384 . S
N4187 C4179 1.427 . S
N4187 C4185 1.384 . S
H4188 C4194 0.930 . S
H4189 C4198 0.930 . S
H4190 C4203 0.929 . S
H4191 C4201 0.929 . S
H4192 C4196 0.929 . S
H4193 C4202 0.929 . S
C4194 H4188 0.930 . S
C4194 C4195 1.367 . S
C4194 C4202 1.378 . S
C4195 C4194 1.367 . S
C4195 C4203 1.433 . S
C4196 H4192 0.929 . S
C4196 C4198 1.378 . S
C4196 C4200 1.350 . S
C4197 C4200 1.463 . S
C4197 C4202 1.350 . S
C4197 N4205 1.427 . S
C4198 H4189 0.930 . S
C4198 C4196 1.378 . S
C4198 C4199 1.367 . S
C4199 C4198 1.367 . S
C4199 C4201 1.433 . S
C4200 C4196 1.350 . S
C4200 C4197 1.463 . S
C4200 N4204 1.427 . S
C4201 H4191 0.929 . S
C4201 C4199 1.433 . S
C4201 N4204 1.384 . S
C4202 H4193 0.929 . S
C4202 C4194 1.378 . S
C4202 C4197 1.350 . S
C4203 H4190 0.929 . S
C4203 C4195 1.433 . S
C4203 N4205 1.384 . S
N4204 C4200 1.427 . S
N4204 C4201 1.384 . S
N4205 C4197 1.427 . S
N4205 C4203 1.384 . S
H4206 C4212 0.930 . S
H4207 C4216 0.930 . S
H4208 C4221 0.929 . S
H4209 C4219 0.929 . S
H4210 C4214 0.929 . S
H4211 C4220 0.929 . S
C4212 H4206 0.930 . S
C4212 C4213 1.367 . S
C4212 C4220 1.378 . S
C4213 C4212 1.367 . S
C4213 C4221 1.433 . S
C4214 H4210 0.929 . S
C4214 C4216 1.378 . S
C4214 C4218 1.350 . S
C4215 C4218 1.463 . S
C4215 C4220 1.350 . S
C4215 N4223 1.427 . S
C4216 H4207 0.930 . S
C4216 C4214 1.378 . S
C4216 C4217 1.367 . S
C4217 C4216 1.367 . S
C4217 C4219 1.433 . S
C4218 C4214 1.350 . S
C4218 C4215 1.463 . S
C4218 N4222 1.427 . S
C4219 H4209 0.929 . S
C4219 C4217 1.433 . S
C4219 N4222 1.384 . S
C4220 H4211 0.929 . S
C4220 C4212 1.378 . S
C4220 C4215 1.350 . S
C4221 H4208 0.929 . S
C4221 C4213 1.433 . S
C4221 N4223 1.384 . S
N4222 C4218 1.427 . S
N4222 C4219 1.384 . S
N4223 C4215 1.427 . S
N4223 C4221 1.384 . S
H4224 C4230 0.930 . S
H4225 C4234 0.930 . S
H4226 C4239 0.929 . S
H4227 C4237 0.929 . S
H4228 C4232 0.929 . S
H4229 C4238 0.929 . S
C4230 H4224 0.930 . S
C4230 C4231 1.367 . S
C4230 C4238 1.378 . S
C4231 C4230 1.367 . S
C4231 C4239 1.433 . S
C4232 H4228 0.929 . S
C4232 C4234 1.378 . S
C4232 C4236 1.350 . S
C4233 C4236 1.463 . S
C4233 C4238 1.350 . S
C4233 N4241 1.427 . S
C4234 H4225 0.930 . S
C4234 C4232 1.378 . S
C4234 C4235 1.367 . S
C4235 C4234 1.367 . S
C4235 C4237 1.433 . S
C4236 C4232 1.350 . S
C4236 C4233 1.463 . S
C4236 N4240 1.427 . S
C4237 H4227 0.929 . S
C4237 C4235 1.433 . S
C4237 N4240 1.384 . S
C4238 H4229 0.929 . S
C4238 C4230 1.378 . S
C4238 C4233 1.350 . S
C4239 H4226 0.929 . S
C4239 C4231 1.433 . S
C4239 N4241 1.384 . S
N4240 C4236 1.427 . S
N4240 C4237 1.384 . S
N4241 C4233 1.427 . S
N4241 C4239 1.384 . S
H4242 C4248 0.930 . S
H4243 C4252 0.930 . S
H4244 C4257 0.929 . S
H4245 C4255 0.929 . S
H4246 C4250 0.929 . S
H4247 C4256 0.929 . S
C4248 H4242 0.930 . S
C4248 C4249 1.367 . S
C4248 C4256 1.378 . S
C4249 C4248 1.367 . S
C4249 C4257 1.433 . S
C4250 H4246 0.929 . S
C4250 C4252 1.378 . S
C4250 C4254 1.350 . S
C4251 C4254 1.463 . S
C4251 C4256 1.350 . S
C4251 N4259 1.427 . S
C4252 H4243 0.930 . S
C4252 C4250 1.378 . S
C4252 C4253 1.367 . S
C4253 C4252 1.367 . S
C4253 C4255 1.433 . S
C4254 C4250 1.350 . S
C4254 C4251 1.463 . S
C4254 N4258 1.427 . S
C4255 H4245 0.929 . S
C4255 C4253 1.433 . S
C4255 N4258 1.384 . S
C4256 H4247 0.929 . S
C4256 C4248 1.378 . S
C4256 C4251 1.350 . S
C4257 H4244 0.929 . S
C4257 C4249 1.433 . S
C4257 N4259 1.384 . S
N4258 C4254 1.427 . S
N4258 C4255 1.384 . S
N4259 C4251 1.427 . S
N4259 C4257 1.384 . S
H4260 C4266 0.930 . S
H4261 C4270 0.930 . S
H4262 C4275 0.929 . S
H4263 C4273 0.929 . S
H4264 C4268 0.929 . S
H4265 C4274 0.929 . S
C4266 H4260 0.930 . S
C4266 C4267 1.367 . S
C4266 C4274 1.378 . S
C4267 C4266 1.367 . S
C4267 C4275 1.433 . S
C4268 H4264 0.929 . S
C4268 C4270 1.378 . S
C4268 C4272 1.350 . S
C4269 C4272 1.463 . S
C4269 C4274 1.350 . S
C4269 N4277 1.427 . S
C4270 H4261 0.930 . S
C4270 C4268 1.378 . S
C4270 C4271 1.367 . S
C4271 C4270 1.367 . S
C4271 C4273 1.433 . S
C4272 C4268 1.350 . S
C4272 C4269 1.463 . S
C4272 N4276 1.427 . S
C4273 H4263 0.929 . S
C4273 C4271 1.433 . S
C4273 N4276 1.384 . S
C4274 H4265 0.929 . S
C4274 C4266 1.378 . S
C4274 C4269 1.350 . S
C4275 H4262 0.929 . S
C4275 C4267 1.433 . S
C4275 N4277 1.384 . S
N4276 C4272 1.427 . S
N4276 C4273 1.384 . S
N4277 C4269 1.427 . S
N4277 C4275 1.384 . S
H4278 C4284 0.930 . S
H4279 C4288 0.930 . S
H4280 C4293 0.929 . S
H4281 C4291 0.929 . S
H4282 C4286 0.929 . S
H4283 C4292 0.929 . S
C4284 H4278 0.930 . S
C4284 C4285 1.367 . S
C4284 C4292 1.378 . S
C4285 C4284 1.367 . S
C4285 C4293 1.433 . S
C4286 H4282 0.929 . S
C4286 C4288 1.378 . S
C4286 C4290 1.350 . S
C4287 C4290 1.463 . S
C4287 C4292 1.350 . S
C4287 N4295 1.427 . S
C4288 H4279 0.930 . S
C4288 C4286 1.378 . S
C4288 C4289 1.367 . S
C4289 C4288 1.367 . S
C4289 C4291 1.433 . S
C4290 C4286 1.350 . S
C4290 C4287 1.463 . S
C4290 N4294 1.427 . S
C4291 H4281 0.929 . S
C4291 C4289 1.433 . S
C4291 N4294 1.384 . S
C4292 H4283 0.929 . S
C4292 C4284 1.378 . S
C4292 C4287 1.350 . S
C4293 H4280 0.929 . S
C4293 C4285 1.433 . S
C4293 N4295 1.384 . S
N4294 C4290 1.427 . S
N4294 C4291 1.384 . S
N4295 C4287 1.427 . S
N4295 C4293 1.384 . S
H4296 C4302 0.930 . S
H4297 C4306 0.930 . S
H4298 C4311 0.929 . S
H4299 C4309 0.929 . S
H4300 C4304 0.929 . S
H4301 C4310 0.929 . S
C4302 H4296 0.930 . S
C4302 C4303 1.367 . S
C4302 C4310 1.378 . S
C4303 C4302 1.367 . S
C4303 C4311 1.433 . S
C4304 H4300 0.929 . S
C4304 C4306 1.378 . S
C4304 C4308 1.350 . S
C4305 C4308 1.463 . S
C4305 C4310 1.350 . S
C4305 N4313 1.427 . S
C4306 H4297 0.930 . S
C4306 C4304 1.378 . S
C4306 C4307 1.367 . S
C4307 C4306 1.367 . S
C4307 C4309 1.433 . S
C4308 C4304 1.350 . S
C4308 C4305 1.463 . S
C4308 N4312 1.427 . S
C4309 H4299 0.929 . S
C4309 C4307 1.433 . S
C4309 N4312 1.384 . S
C4310 H4301 0.929 . S
C4310 C4302 1.378 . S
C4310 C4305 1.350 . S
C4311 H4298 0.929 . S
C4311 C4303 1.433 . S
C4311 N4313 1.384 . S
N4312 C4308 1.427 . S
N4312 C4309 1.384 . S
N4313 C4305 1.427 . S
N4313 C4311 1.384 . S
H4314 C4320 0.930 . S
H4315 C4324 0.930 . S
H4316 C4329 0.929 . S
H4317 C4327 0.929 . S
H4318 C4322 0.929 . S
H4319 C4328 0.929 . S
C4320 H4314 0.930 . S
C4320 C4321 1.367 . S
C4320 C4328 1.378 . S
C4321 C4320 1.367 . S
C4321 C4329 1.433 . S
C4322 H4318 0.929 . S
C4322 C4324 1.378 . S
C4322 C4326 1.350 . S
C4323 C4326 1.463 . S
C4323 C4328 1.350 . S
C4323 N4331 1.427 . S
C4324 H4315 0.930 . S
C4324 C4322 1.378 . S
C4324 C4325 1.367 . S
C4325 C4324 1.367 . S
C4325 C4327 1.433 . S
C4326 C4322 1.350 . S
C4326 C4323 1.463 . S
C4326 N4330 1.427 . S
C4327 H4317 0.929 . S
C4327 C4325 1.433 . S
C4327 N4330 1.384 . S
C4328 H4319 0.929 . S
C4328 C4320 1.378 . S
C4328 C4323 1.350 . S
C4329 H4316 0.929 . S
C4329 C4321 1.433 . S
C4329 N4331 1.384 . S
N4330 C4326 1.427 . S
N4330 C4327 1.384 . S
N4331 C4323 1.427 . S
N4331 C4329 1.384 . S
H4332 C4338 0.930 . S
H4333 C4342 0.930 . S
H4334 C4347 0.929 . S
H4335 C4345 0.929 . S
H4336 C4340 0.929 . S
H4337 C4346 0.929 . S
C4338 H4332 0.930 . S
C4338 C4339 1.367 . S
C4338 C4346 1.378 . S
C4339 C4338 1.367 . S
C4339 C4347 1.433 . S
C4340 H4336 0.929 . S
C4340 C4342 1.378 . S
C4340 C4344 1.350 . S
C4341 C4344 1.463 . S
C4341 C4346 1.350 . S
C4341 N4349 1.427 . S
C4342 H4333 0.930 . S
C4342 C4340 1.378 . S
C4342 C4343 1.367 . S
C4343 C4342 1.367 . S
C4343 C4345 1.433 . S
C4344 C4340 1.350 . S
C4344 C4341 1.463 . S
C4344 N4348 1.427 . S
C4345 H4335 0.929 . S
C4345 C4343 1.433 . S
C4345 N4348 1.384 . S
C4346 H4337 0.929 . S
C4346 C4338 1.378 . S
C4346 C4341 1.350 . S
C4347 H4334 0.929 . S
C4347 C4339 1.433 . S
C4347 N4349 1.384 . S
N4348 C4344 1.427 . S
N4348 C4345 1.384 . S
N4349 C4341 1.427 . S
N4349 C4347 1.384 . S
H4350 C4356 0.930 . S
H4351 C4360 0.930 . S
H4352 C4365 0.929 . S
H4353 C4363 0.929 . S
H4354 C4358 0.929 . S
H4355 C4364 0.929 . S
C4356 H4350 0.930 . S
C4356 C4357 1.367 . S
C4356 C4364 1.378 . S
C4357 C4356 1.367 . S
C4357 C4365 1.433 . S
C4358 H4354 0.929 . S
C4358 C4360 1.378 . S
C4358 C4362 1.350 . S
C4359 C4362 1.463 . S
C4359 C4364 1.350 . S
C4359 N4367 1.427 . S
C4360 H4351 0.930 . S
C4360 C4358 1.378 . S
C4360 C4361 1.367 . S
C4361 C4360 1.367 . S
C4361 C4363 1.433 . S
C4362 C4358 1.350 . S
C4362 C4359 1.463 . S
C4362 N4366 1.427 . S
C4363 H4353 0.929 . S
C4363 C4361 1.433 . S
C4363 N4366 1.384 . S
C4364 H4355 0.929 . S
C4364 C4356 1.378 . S
C4364 C4359 1.350 . S
C4365 H4352 0.929 . S
C4365 C4357 1.433 . S
C4365 N4367 1.384 . S
N4366 C4362 1.427 . S
N4366 C4363 1.384 . S
N4367 C4359 1.427 . S
N4367 C4365 1.384 . S
H4368 C4374 0.930 . S
H4369 C4378 0.930 . S
H4370 C4383 0.929 . S
H4371 C4381 0.929 . S
H4372 C4376 0.929 . S
H4373 C4382 0.929 . S
C4374 H4368 0.930 . S
C4374 C4375 1.367 . S
C4374 C4382 1.378 . S
C4375 C4374 1.367 . S
C4375 C4383 1.433 . S
C4376 H4372 0.929 . S
C4376 C4378 1.378 . S
C4376 C4380 1.350 . S
C4377 C4380 1.463 . S
C4377 C4382 1.350 . S
C4377 N4385 1.427 . S
C4378 H4369 0.930 . S
C4378 C4376 1.378 . S
C4378 C4379 1.367 . S
C4379 C4378 1.367 . S
C4379 C4381 1.433 . S
C4380 C4376 1.350 . S
C4380 C4377 1.463 . S
C4380 N4384 1.427 . S
C4381 H4371 0.929 . S
C4381 C4379 1.433 . S
C4381 N4384 1.384 . S
C4382 H4373 0.929 . S
C4382 C4374 1.378 . S
C4382 C4377 1.350 . S
C4383 H4370 0.929 . S
C4383 C4375 1.433 . S
C4383 N4385 1.384 . S
N4384 C4380 1.427 . S
N4384 C4381 1.384 . S
N4385 C4377 1.427 . S
N4385 C4383 1.384 . S
H4386 C4392 0.930 . S
H4387 C4396 0.930 . S
H4388 C4401 0.929 . S
H4389 C4399 0.929 . S
H4390 C4394 0.929 . S
H4391 C4400 0.929 . S
C4392 H4386 0.930 . S
C4392 C4393 1.367 . S
C4392 C4400 1.378 . S
C4393 C4392 1.367 . S
C4393 C4401 1.433 . S
C4394 H4390 0.929 . S
C4394 C4396 1.378 . S
C4394 C4398 1.350 . S
C4395 C4398 1.463 . S
C4395 C4400 1.350 . S
C4395 N4403 1.427 . S
C4396 H4387 0.930 . S
C4396 C4394 1.378 . S
C4396 C4397 1.367 . S
C4397 C4396 1.367 . S
C4397 C4399 1.433 . S
C4398 C4394 1.350 . S
C4398 C4395 1.463 . S
C4398 N4402 1.427 . S
C4399 H4389 0.929 . S
C4399 C4397 1.433 . S
C4399 N4402 1.384 . S
C4400 H4391 0.929 . S
C4400 C4392 1.378 . S
C4400 C4395 1.350 . S
C4401 H4388 0.929 . S
C4401 C4393 1.433 . S
C4401 N4403 1.384 . S
N4402 C4398 1.427 . S
N4402 C4399 1.384 . S
N4403 C4395 1.427 . S
N4403 C4401 1.384 . S
H4404 C4410 0.930 . S
H4405 C4414 0.930 . S
H4406 C4419 0.929 . S
H4407 C4417 0.929 . S
H4408 C4412 0.929 . S
H4409 C4418 0.929 . S
C4410 H4404 0.930 . S
C4410 C4411 1.367 . S
C4410 C4418 1.378 . S
C4411 C4410 1.367 . S
C4411 C4419 1.433 . S
C4412 H4408 0.929 . S
C4412 C4414 1.378 . S
C4412 C4416 1.350 . S
C4413 C4416 1.463 . S
C4413 C4418 1.350 . S
C4413 N4421 1.427 . S
C4414 H4405 0.930 . S
C4414 C4412 1.378 . S
C4414 C4415 1.367 . S
C4415 C4414 1.367 . S
C4415 C4417 1.433 . S
C4416 C4412 1.350 . S
C4416 C4413 1.463 . S
C4416 N4420 1.427 . S
C4417 H4407 0.929 . S
C4417 C4415 1.433 . S
C4417 N4420 1.384 . S
C4418 H4409 0.929 . S
C4418 C4410 1.378 . S
C4418 C4413 1.350 . S
C4419 H4406 0.929 . S
C4419 C4411 1.433 . S
C4419 N4421 1.384 . S
N4420 C4416 1.427 . S
N4420 C4417 1.384 . S
N4421 C4413 1.427 . S
N4421 C4419 1.384 . S
H4422 C4428 0.930 . S
H4423 C4432 0.930 . S
H4424 C4437 0.929 . S
H4425 C4435 0.929 . S
H4426 C4430 0.929 . S
H4427 C4436 0.929 . S
C4428 H4422 0.930 . S
C4428 C4429 1.367 . S
C4428 C4436 1.378 . S
C4429 C4428 1.367 . S
C4429 C4437 1.433 . S
C4430 H4426 0.929 . S
C4430 C4432 1.378 . S
C4430 C4434 1.350 . S
C4431 C4434 1.463 . S
C4431 C4436 1.350 . S
C4431 N4439 1.427 . S
C4432 H4423 0.930 . S
C4432 C4430 1.378 . S
C4432 C4433 1.367 . S
C4433 C4432 1.367 . S
C4433 C4435 1.433 . S
C4434 C4430 1.350 . S
C4434 C4431 1.463 . S
C4434 N4438 1.427 . S
C4435 H4425 0.929 . S
C4435 C4433 1.433 . S
C4435 N4438 1.384 . S
C4436 H4427 0.929 . S
C4436 C4428 1.378 . S
C4436 C4431 1.350 . S
C4437 H4424 0.929 . S
C4437 C4429 1.433 . S
C4437 N4439 1.384 . S
N4438 C4434 1.427 . S
N4438 C4435 1.384 . S
N4439 C4431 1.427 . S
N4439 C4437 1.384 . S
H4440 C4446 0.930 . S
H4441 C4450 0.930 . S
H4442 C4455 0.929 . S
H4443 C4453 0.929 . S
H4444 C4448 0.929 . S
H4445 C4454 0.929 . S
C4446 H4440 0.930 . S
C4446 C4447 1.367 . S
C4446 C4454 1.378 . S
C4447 C4446 1.367 . S
C4447 C4455 1.433 . S
C4448 H4444 0.929 . S
C4448 C4450 1.378 . S
C4448 C4452 1.350 . S
C4449 C4452 1.463 . S
C4449 C4454 1.350 . S
C4449 N4457 1.427 . S
C4450 H4441 0.930 . S
C4450 C4448 1.378 . S
C4450 C4451 1.367 . S
C4451 C4450 1.367 . S
C4451 C4453 1.433 . S
C4452 C4448 1.350 . S
C4452 C4449 1.463 . S
C4452 N4456 1.427 . S
C4453 H4443 0.929 . S
C4453 C4451 1.433 . S
C4453 N4456 1.384 . S
C4454 H4445 0.929 . S
C4454 C4446 1.378 . S
C4454 C4449 1.350 . S
C4455 H4442 0.929 . S
C4455 C4447 1.433 . S
C4455 N4457 1.384 . S
N4456 C4452 1.427 . S
N4456 C4453 1.384 . S
N4457 C4449 1.427 . S
N4457 C4455 1.384 . S
H4458 C4464 0.930 . S
H4459 C4468 0.930 . S
H4460 C4473 0.929 . S
H4461 C4471 0.929 . S
H4462 C4466 0.929 . S
H4463 C4472 0.929 . S
C4464 H4458 0.930 . S
C4464 C4465 1.367 . S
C4464 C4472 1.378 . S
C4465 C4464 1.367 . S
C4465 C4473 1.433 . S
C4466 H4462 0.929 . S
C4466 C4468 1.378 . S
C4466 C4470 1.350 . S
C4467 C4470 1.463 . S
C4467 C4472 1.350 . S
C4467 N4475 1.427 . S
C4468 H4459 0.930 . S
C4468 C4466 1.378 . S
C4468 C4469 1.367 . S
C4469 C4468 1.367 . S
C4469 C4471 1.433 . S
C4470 C4466 1.350 . S
C4470 C4467 1.463 . S
C4470 N4474 1.427 . S
C4471 H4461 0.929 . S
C4471 C4469 1.433 . S
C4471 N4474 1.384 . S
C4472 H4463 0.929 . S
C4472 C4464 1.378 . S
C4472 C4467 1.350 . S
C4473 H4460 0.929 . S
C4473 C4465 1.433 . S
C4473 N4475 1.384 . S
N4474 C4470 1.427 . S
N4474 C4471 1.384 . S
N4475 C4467 1.427 . S
N4475 C4473 1.384 . S
H4476 C4482 0.930 . S
H4477 C4486 0.930 . S
H4478 C4491 0.929 1_554 S
H4479 C4489 0.929 . S
H4480 C4484 0.929 . S
H4481 C4490 0.929 . S
C4482 H4476 0.930 . S
C4482 C4483 1.367 . S
C4482 C4490 1.378 . S
C4483 C4482 1.367 . S
C4483 C4491 1.433 . S
C4484 H4480 0.929 . S
C4484 C4486 1.378 . S
C4484 C4488 1.350 . S
C4485 C4488 1.463 . S
C4485 C4490 1.350 . S
C4485 N4493 1.427 . S
C4486 H4477 0.930 . S
C4486 C4484 1.378 . S
C4486 C4487 1.367 . S
C4487 C4486 1.367 . S
C4487 C4489 1.433 . S
C4488 C4484 1.350 . S
C4488 C4485 1.463 . S
C4488 N4492 1.427 . S
C4489 H4479 0.929 . S
C4489 C4487 1.433 . S
C4489 N4492 1.384 . S
C4490 H4481 0.929 . S
C4490 C4482 1.378 . S
C4490 C4485 1.350 . S
C4491 H4478 0.929 1_556 S
C4491 C4483 1.433 . S
C4491 N4493 1.384 . S
N4492 C4488 1.427 . S
N4492 C4489 1.384 . S
N4493 C4485 1.427 . S
N4493 C4491 1.384 . S
H4494 C4500 0.930 . S
H4495 C4504 0.930 . S
H4496 C4509 0.929 . S
H4497 C4507 0.929 . S
H4498 C4502 0.929 . S
H4499 C4508 0.929 . S
C4500 H4494 0.930 . S
C4500 C4501 1.367 . S
C4500 C4508 1.378 . S
C4501 C4500 1.367 . S
C4501 C4509 1.433 . S
C4502 H4498 0.929 . S
C4502 C4504 1.378 . S
C4502 C4506 1.350 . S
C4503 C4506 1.463 . S
C4503 C4508 1.350 . S
C4503 N4511 1.427 . S
C4504 H4495 0.930 . S
C4504 C4502 1.378 . S
C4504 C4505 1.367 . S
C4505 C4504 1.367 . S
C4505 C4507 1.433 . S
C4506 C4502 1.350 . S
C4506 C4503 1.463 . S
C4506 N4510 1.427 . S
C4507 H4497 0.929 . S
C4507 C4505 1.433 . S
C4507 N4510 1.384 . S
C4508 H4499 0.929 . S
C4508 C4500 1.378 . S
C4508 C4503 1.350 . S
C4509 H4496 0.929 . S
C4509 C4501 1.433 . S
C4509 N4511 1.384 . S
N4510 C4506 1.427 . S
N4510 C4507 1.384 . S
N4511 C4503 1.427 . S
N4511 C4509 1.384 . S
H4512 C4518 0.930 . S
H4513 C4522 0.930 . S
H4514 C4527 0.929 . S
H4515 C4525 0.929 . S
H4516 C4520 0.929 . S
H4517 C4526 0.929 . S
C4518 H4512 0.930 . S
C4518 C4519 1.367 . S
C4518 C4526 1.378 . S
C4519 C4518 1.367 . S
C4519 C4527 1.433 . S
C4520 H4516 0.929 . S
C4520 C4522 1.378 . S
C4520 C4524 1.350 . S
C4521 C4524 1.463 . S
C4521 C4526 1.350 . S
C4521 N4529 1.427 . S
C4522 H4513 0.930 . S
C4522 C4520 1.378 . S
C4522 C4523 1.367 . S
C4523 C4522 1.367 . S
C4523 C4525 1.433 . S
C4524 C4520 1.350 . S
C4524 C4521 1.463 . S
C4524 N4528 1.427 . S
C4525 H4515 0.929 . S
C4525 C4523 1.433 . S
C4525 N4528 1.384 . S
C4526 H4517 0.929 . S
C4526 C4518 1.378 . S
C4526 C4521 1.350 . S
C4527 H4514 0.929 . S
C4527 C4519 1.433 . S
C4527 N4529 1.384 . S
N4528 C4524 1.427 . S
N4528 C4525 1.384 . S
N4529 C4521 1.427 . S
N4529 C4527 1.384 . S
H4530 C4536 0.930 . S
H4531 C4540 0.930 . S
H4532 C4545 0.929 . S
H4533 C4543 0.929 . S
H4534 C4538 0.929 . S
H4535 C4544 0.929 . S
C4536 H4530 0.930 . S
C4536 C4537 1.367 . S
C4536 C4544 1.378 . S
C4537 C4536 1.367 . S
C4537 C4545 1.433 . S
C4538 H4534 0.929 . S
C4538 C4540 1.378 . S
C4538 C4542 1.350 . S
C4539 C4542 1.463 . S
C4539 C4544 1.350 . S
C4539 N4547 1.427 . S
C4540 H4531 0.930 . S
C4540 C4538 1.378 . S
C4540 C4541 1.367 . S
C4541 C4540 1.367 . S
C4541 C4543 1.433 . S
C4542 C4538 1.350 . S
C4542 C4539 1.463 . S
C4542 N4546 1.427 . S
C4543 H4533 0.929 . S
C4543 C4541 1.433 . S
C4543 N4546 1.384 . S
C4544 H4535 0.929 . S
C4544 C4536 1.378 . S
C4544 C4539 1.350 . S
C4545 H4532 0.929 . S
C4545 C4537 1.433 . S
C4545 N4547 1.384 . S
N4546 C4542 1.427 . S
N4546 C4543 1.384 . S
N4547 C4539 1.427 . S
N4547 C4545 1.384 . S
H4548 C4554 0.930 . S
H4549 C4558 0.930 . S
H4550 C4563 0.929 . S
H4551 C4561 0.929 . S
H4552 C4556 0.929 . S
H4553 C4562 0.929 . S
C4554 H4548 0.930 . S
C4554 C4555 1.367 . S
C4554 C4562 1.378 . S
C4555 C4554 1.367 . S
C4555 C4563 1.433 . S
C4556 H4552 0.929 . S
C4556 C4558 1.378 . S
C4556 C4560 1.350 . S
C4557 C4560 1.463 . S
C4557 C4562 1.350 . S
C4557 N4565 1.427 . S
C4558 H4549 0.930 . S
C4558 C4556 1.378 . S
C4558 C4559 1.367 . S
C4559 C4558 1.367 . S
C4559 C4561 1.433 . S
C4560 C4556 1.350 . S
C4560 C4557 1.463 . S
C4560 N4564 1.427 . S
C4561 H4551 0.929 . S
C4561 C4559 1.433 . S
C4561 N4564 1.384 . S
C4562 H4553 0.929 . S
C4562 C4554 1.378 . S
C4562 C4557 1.350 . S
C4563 H4550 0.929 . S
C4563 C4555 1.433 . S
C4563 N4565 1.384 . S
N4564 C4560 1.427 . S
N4564 C4561 1.384 . S
N4565 C4557 1.427 . S
N4565 C4563 1.384 . S
H4566 C4572 0.930 . S
H4567 C4576 0.930 . S
H4568 C4581 0.929 . S
H4569 C4579 0.929 . S
H4570 C4574 0.929 . S
H4571 C4580 0.929 . S
C4572 H4566 0.930 . S
C4572 C4573 1.367 . S
C4572 C4580 1.378 . S
C4573 C4572 1.367 . S
C4573 C4581 1.433 . S
C4574 H4570 0.929 . S
C4574 C4576 1.378 . S
C4574 C4578 1.350 . S
C4575 C4578 1.463 . S
C4575 C4580 1.350 . S
C4575 N4583 1.427 . S
C4576 H4567 0.930 . S
C4576 C4574 1.378 . S
C4576 C4577 1.367 . S
C4577 C4576 1.367 . S
C4577 C4579 1.433 . S
C4578 C4574 1.350 . S
C4578 C4575 1.463 . S
C4578 N4582 1.427 . S
C4579 H4569 0.929 . S
C4579 C4577 1.433 . S
C4579 N4582 1.384 . S
C4580 H4571 0.929 . S
C4580 C4572 1.378 . S
C4580 C4575 1.350 . S
C4581 H4568 0.929 . S
C4581 C4573 1.433 . S
C4581 N4583 1.384 . S
N4582 C4578 1.427 . S
N4582 C4579 1.384 . S
N4583 C4575 1.427 . S
N4583 C4581 1.384 . S
H4584 C4590 0.930 . S
H4585 C4594 0.930 . S
H4586 C4599 0.929 . S
H4587 C4597 0.929 . S
H4588 C4592 0.929 . S
H4589 C4598 0.929 . S
C4590 H4584 0.930 . S
C4590 C4591 1.367 . S
C4590 C4598 1.378 . S
C4591 C4590 1.367 . S
C4591 C4599 1.433 . S
C4592 H4588 0.929 . S
C4592 C4594 1.378 . S
C4592 C4596 1.350 . S
C4593 C4596 1.463 . S
C4593 C4598 1.350 . S
C4593 N4601 1.427 . S
C4594 H4585 0.930 . S
C4594 C4592 1.378 . S
C4594 C4595 1.367 . S
C4595 C4594 1.367 . S
C4595 C4597 1.433 . S
C4596 C4592 1.350 . S
C4596 C4593 1.463 . S
C4596 N4600 1.427 . S
C4597 H4587 0.929 . S
C4597 C4595 1.433 . S
C4597 N4600 1.384 . S
C4598 H4589 0.929 . S
C4598 C4590 1.378 . S
C4598 C4593 1.350 . S
C4599 H4586 0.929 . S
C4599 C4591 1.433 . S
C4599 N4601 1.384 . S
N4600 C4596 1.427 . S
N4600 C4597 1.384 . S
N4601 C4593 1.427 . S
N4601 C4599 1.384 . S
H4602 C4608 0.930 . S
H4603 C4612 0.930 . S
H4604 C4617 0.929 . S
H4605 C4615 0.929 . S
H4606 C4610 0.929 . S
H4607 C4616 0.929 . S
C4608 H4602 0.930 . S
C4608 C4609 1.367 . S
C4608 C4616 1.378 . S
C4609 C4608 1.367 . S
C4609 C4617 1.433 . S
C4610 H4606 0.929 . S
C4610 C4612 1.378 . S
C4610 C4614 1.350 . S
C4611 C4614 1.463 . S
C4611 C4616 1.350 . S
C4611 N4619 1.427 . S
C4612 H4603 0.930 . S
C4612 C4610 1.378 . S
C4612 C4613 1.367 . S
C4613 C4612 1.367 . S
C4613 C4615 1.433 . S
C4614 C4610 1.350 . S
C4614 C4611 1.463 . S
C4614 N4618 1.427 . S
C4615 H4605 0.929 . S
C4615 C4613 1.433 . S
C4615 N4618 1.384 . S
C4616 H4607 0.929 . S
C4616 C4608 1.378 . S
C4616 C4611 1.350 . S
C4617 H4604 0.929 . S
C4617 C4609 1.433 . S
C4617 N4619 1.384 . S
N4618 C4614 1.427 . S
N4618 C4615 1.384 . S
N4619 C4611 1.427 . S
N4619 C4617 1.384 . S
H4620 C4626 0.930 . S
H4621 C4630 0.930 . S
H4622 C4635 0.929 . S
H4623 C4633 0.929 . S
H4624 C4628 0.929 . S
H4625 C4634 0.929 . S
C4626 H4620 0.930 . S
C4626 C4627 1.367 . S
C4626 C4634 1.378 . S
C4627 C4626 1.367 . S
C4627 C4635 1.433 . S
C4628 H4624 0.929 . S
C4628 C4630 1.378 . S
C4628 C4632 1.350 . S
C4629 C4632 1.463 . S
C4629 C4634 1.350 . S
C4629 N4637 1.427 . S
C4630 H4621 0.930 . S
C4630 C4628 1.378 . S
C4630 C4631 1.367 . S
C4631 C4630 1.367 . S
C4631 C4633 1.433 . S
C4632 C4628 1.350 . S
C4632 C4629 1.463 . S
C4632 N4636 1.427 . S
C4633 H4623 0.929 . S
C4633 C4631 1.433 . S
C4633 N4636 1.384 . S
C4634 H4625 0.929 . S
C4634 C4626 1.378 . S
C4634 C4629 1.350 . S
C4635 H4622 0.929 . S
C4635 C4627 1.433 . S
C4635 N4637 1.384 . S
N4636 C4632 1.427 . S
N4636 C4633 1.384 . S
N4637 C4629 1.427 . S
N4637 C4635 1.384 . S
H4638 C4644 0.930 . S
H4639 C4648 0.930 . S
H4640 C4653 0.929 . S
H4641 C4651 0.929 . S
H4642 C4646 0.929 . S
H4643 C4652 0.929 . S
C4644 H4638 0.930 . S
C4644 C4645 1.367 . S
C4644 C4652 1.378 . S
C4645 C4644 1.367 . S
C4645 C4653 1.433 . S
C4646 H4642 0.929 . S
C4646 C4648 1.378 . S
C4646 C4650 1.350 . S
C4647 C4650 1.463 . S
C4647 C4652 1.350 . S
C4647 N4655 1.427 . S
C4648 H4639 0.930 . S
C4648 C4646 1.378 . S
C4648 C4649 1.367 . S
C4649 C4648 1.367 . S
C4649 C4651 1.433 . S
C4650 C4646 1.350 . S
C4650 C4647 1.463 . S
C4650 N4654 1.427 . S
C4651 H4641 0.929 . S
C4651 C4649 1.433 . S
C4651 N4654 1.384 . S
C4652 H4643 0.929 . S
C4652 C4644 1.378 . S
C4652 C4647 1.350 . S
C4653 H4640 0.929 . S
C4653 C4645 1.433 . S
C4653 N4655 1.384 . S
N4654 C4650 1.427 . S
N4654 C4651 1.384 . S
N4655 C4647 1.427 . S
N4655 C4653 1.384 . S
H4656 C4662 0.930 . S
H4657 C4666 0.930 . S
H4658 C4671 0.929 . S
H4659 C4669 0.929 . S
H4660 C4664 0.929 . S
H4661 C4670 0.929 . S
C4662 H4656 0.930 . S
C4662 C4663 1.367 . S
C4662 C4670 1.378 . S
C4663 C4662 1.367 . S
C4663 C4671 1.433 . S
C4664 H4660 0.929 . S
C4664 C4666 1.378 . S
C4664 C4668 1.350 . S
C4665 C4668 1.463 . S
C4665 C4670 1.350 . S
C4665 N4673 1.427 . S
C4666 H4657 0.930 . S
C4666 C4664 1.378 . S
C4666 C4667 1.367 . S
C4667 C4666 1.367 . S
C4667 C4669 1.433 . S
C4668 C4664 1.350 . S
C4668 C4665 1.463 . S
C4668 N4672 1.427 . S
C4669 H4659 0.929 . S
C4669 C4667 1.433 . S
C4669 N4672 1.384 . S
C4670 H4661 0.929 . S
C4670 C4662 1.378 . S
C4670 C4665 1.350 . S
C4671 H4658 0.929 . S
C4671 C4663 1.433 . S
C4671 N4673 1.384 . S
N4672 C4668 1.427 . S
N4672 C4669 1.384 . S
N4673 C4665 1.427 . S
N4673 C4671 1.384 . S
H4674 C4680 0.930 . S
H4675 C4684 0.930 . S
H4676 C4689 0.929 . S
H4677 C4687 0.929 . S
H4678 C4682 0.929 . S
H4679 C4688 0.929 . S
C4680 H4674 0.930 . S
C4680 C4681 1.367 . S
C4680 C4688 1.378 . S
C4681 C4680 1.367 . S
C4681 C4689 1.433 . S
C4682 H4678 0.929 . S
C4682 C4684 1.378 . S
C4682 C4686 1.350 . S
C4683 C4686 1.463 . S
C4683 C4688 1.350 . S
C4683 N4691 1.427 . S
C4684 H4675 0.930 . S
C4684 C4682 1.378 . S
C4684 C4685 1.367 . S
C4685 C4684 1.367 . S
C4685 C4687 1.433 . S
C4686 C4682 1.350 . S
C4686 C4683 1.463 . S
C4686 N4690 1.427 . S
C4687 H4677 0.929 . S
C4687 C4685 1.433 . S
C4687 N4690 1.384 . S
C4688 H4679 0.929 . S
C4688 C4680 1.378 . S
C4688 C4683 1.350 . S
C4689 H4676 0.929 . S
C4689 C4681 1.433 . S
C4689 N4691 1.384 . S
N4690 C4686 1.427 . S
N4690 C4687 1.384 . S
N4691 C4683 1.427 . S
N4691 C4689 1.384 . S
H4692 C4698 0.930 . S
H4693 C4702 0.930 . S
H4694 C4707 0.929 . S
H4695 C4705 0.929 . S
H4696 C4700 0.929 . S
H4697 C4706 0.929 . S
C4698 H4692 0.930 . S
C4698 C4699 1.367 . S
C4698 C4706 1.378 . S
C4699 C4698 1.367 . S
C4699 C4707 1.433 . S
C4700 H4696 0.929 . S
C4700 C4702 1.378 . S
C4700 C4704 1.350 . S
C4701 C4704 1.463 . S
C4701 C4706 1.350 . S
C4701 N4709 1.427 . S
C4702 H4693 0.930 . S
C4702 C4700 1.378 . S
C4702 C4703 1.367 . S
C4703 C4702 1.367 . S
C4703 C4705 1.433 . S
C4704 C4700 1.350 . S
C4704 C4701 1.463 . S
C4704 N4708 1.427 . S
C4705 H4695 0.929 . S
C4705 C4703 1.433 . S
C4705 N4708 1.384 . S
C4706 H4697 0.929 . S
C4706 C4698 1.378 . S
C4706 C4701 1.350 . S
C4707 H4694 0.929 . S
C4707 C4699 1.433 . S
C4707 N4709 1.384 . S
N4708 C4704 1.427 . S
N4708 C4705 1.384 . S
N4709 C4701 1.427 . S
N4709 C4707 1.384 . S
H4710 C4716 0.930 . S
H4711 C4720 0.930 . S
H4712 C4725 0.929 . S
H4713 C4723 0.929 . S
H4714 C4718 0.929 . S
H4715 C4724 0.929 . S
C4716 H4710 0.930 . S
C4716 C4717 1.367 . S
C4716 C4724 1.378 . S
C4717 C4716 1.367 . S
C4717 C4725 1.433 . S
C4718 H4714 0.929 . S
C4718 C4720 1.378 . S
C4718 C4722 1.350 . S
C4719 C4722 1.463 . S
C4719 C4724 1.350 . S
C4719 N4727 1.427 . S
C4720 H4711 0.930 . S
C4720 C4718 1.378 . S
C4720 C4721 1.367 . S
C4721 C4720 1.367 . S
C4721 C4723 1.433 . S
C4722 C4718 1.350 . S
C4722 C4719 1.463 . S
C4722 N4726 1.427 . S
C4723 H4713 0.929 . S
C4723 C4721 1.433 . S
C4723 N4726 1.384 . S
C4724 H4715 0.929 . S
C4724 C4716 1.378 . S
C4724 C4719 1.350 . S
C4725 H4712 0.929 . S
C4725 C4717 1.433 . S
C4725 N4727 1.384 . S
N4726 C4722 1.427 . S
N4726 C4723 1.384 . S
N4727 C4719 1.427 . S
N4727 C4725 1.384 . S
H4728 C4734 0.930 . S
H4729 C4738 0.930 . S
H4730 C4743 0.929 . S
H4731 C4741 0.929 . S
H4732 C4736 0.929 . S
H4733 C4742 0.929 . S
C4734 H4728 0.930 . S
C4734 C4735 1.367 . S
C4734 C4742 1.378 . S
C4735 C4734 1.367 . S
C4735 C4743 1.433 . S
C4736 H4732 0.929 . S
C4736 C4738 1.378 . S
C4736 C4740 1.350 . S
C4737 C4740 1.463 . S
C4737 C4742 1.350 . S
C4737 N4745 1.427 . S
C4738 H4729 0.930 . S
C4738 C4736 1.378 . S
C4738 C4739 1.367 . S
C4739 C4738 1.367 . S
C4739 C4741 1.433 . S
C4740 C4736 1.350 . S
C4740 C4737 1.463 . S
C4740 N4744 1.427 . S
C4741 H4731 0.929 . S
C4741 C4739 1.433 . S
C4741 N4744 1.384 . S
C4742 H4733 0.929 . S
C4742 C4734 1.378 . S
C4742 C4737 1.350 . S
C4743 H4730 0.929 . S
C4743 C4735 1.433 . S
C4743 N4745 1.384 . S
N4744 C4740 1.427 . S
N4744 C4741 1.384 . S
N4745 C4737 1.427 . S
N4745 C4743 1.384 . S
H4746 C4752 0.930 . S
H4747 C4756 0.930 . S
H4748 C4761 0.929 . S
H4749 C4759 0.929 . S
H4750 C4754 0.929 . S
H4751 C4760 0.929 . S
C4752 H4746 0.930 . S
C4752 C4753 1.367 . S
C4752 C4760 1.378 . S
C4753 C4752 1.367 . S
C4753 C4761 1.433 . S
C4754 H4750 0.929 . S
C4754 C4756 1.378 . S
C4754 C4758 1.350 . S
C4755 C4758 1.463 . S
C4755 C4760 1.350 . S
C4755 N4763 1.427 . S
C4756 H4747 0.930 . S
C4756 C4754 1.378 . S
C4756 C4757 1.367 . S
C4757 C4756 1.367 . S
C4757 C4759 1.433 . S
C4758 C4754 1.350 . S
C4758 C4755 1.463 . S
C4758 N4762 1.427 . S
C4759 H4749 0.929 . S
C4759 C4757 1.433 . S
C4759 N4762 1.384 . S
C4760 H4751 0.929 . S
C4760 C4752 1.378 . S
C4760 C4755 1.350 . S
C4761 H4748 0.929 . S
C4761 C4753 1.433 . S
C4761 N4763 1.384 . S
N4762 C4758 1.427 . S
N4762 C4759 1.384 . S
N4763 C4755 1.427 . S
N4763 C4761 1.384 . S
H4764 C4770 0.930 . S
H4765 C4774 0.930 . S
H4766 C4779 0.929 . S
H4767 C4777 0.929 . S
H4768 C4772 0.929 . S
H4769 C4778 0.929 . S
C4770 H4764 0.930 . S
C4770 C4771 1.367 . S
C4770 C4778 1.378 . S
C4771 C4770 1.367 . S
C4771 C4779 1.433 . S
C4772 H4768 0.929 . S
C4772 C4774 1.378 . S
C4772 C4776 1.350 . S
C4773 C4776 1.463 . S
C4773 C4778 1.350 . S
C4773 N4781 1.427 . S
C4774 H4765 0.930 . S
C4774 C4772 1.378 . S
C4774 C4775 1.367 . S
C4775 C4774 1.367 . S
C4775 C4777 1.433 . S
C4776 C4772 1.350 . S
C4776 C4773 1.463 . S
C4776 N4780 1.427 . S
C4777 H4767 0.929 . S
C4777 C4775 1.433 . S
C4777 N4780 1.384 . S
C4778 H4769 0.929 . S
C4778 C4770 1.378 . S
C4778 C4773 1.350 . S
C4779 H4766 0.929 . S
C4779 C4771 1.433 . S
C4779 N4781 1.384 . S
N4780 C4776 1.427 . S
N4780 C4777 1.384 . S
N4781 C4773 1.427 . S
N4781 C4779 1.384 . S
H4782 C4788 0.930 . S
H4783 C4792 0.930 . S
H4784 C4797 0.929 . S
H4785 C4795 0.929 . S
H4786 C4790 0.929 . S
H4787 C4796 0.929 . S
C4788 H4782 0.930 . S
C4788 C4789 1.367 . S
C4788 C4796 1.378 . S
C4789 C4788 1.367 . S
C4789 C4797 1.433 . S
C4790 H4786 0.929 . S
C4790 C4792 1.378 . S
C4790 C4794 1.350 . S
C4791 C4794 1.463 . S
C4791 C4796 1.350 . S
C4791 N4799 1.427 . S
C4792 H4783 0.930 . S
C4792 C4790 1.378 . S
C4792 C4793 1.367 . S
C4793 C4792 1.367 . S
C4793 C4795 1.433 . S
C4794 C4790 1.350 . S
C4794 C4791 1.463 . S
C4794 N4798 1.427 . S
C4795 H4785 0.929 . S
C4795 C4793 1.433 . S
C4795 N4798 1.384 . S
C4796 H4787 0.929 . S
C4796 C4788 1.378 . S
C4796 C4791 1.350 . S
C4797 H4784 0.929 . S
C4797 C4789 1.433 . S
C4797 N4799 1.384 . S
N4798 C4794 1.427 . S
N4798 C4795 1.384 . S
N4799 C4791 1.427 . S
N4799 C4797 1.384 . S
C1351 C5 1.309 . S
C1355 C1059 1.258 . S
C1369 C345 1.257 . S
C1373 C23 1.294 . S
C1387 C1031 1.253 . S
C1391 C33 1.314 . S
C1405 C373 1.238 . S
C1409 C51 1.300 . S
C1423 C61 1.306 . S
C1427 C1087 1.257 . S
C1441 C79 1.300 . S
C1445 C429 1.242 . S
C1459 C1115 1.270 . S
C1463 C89 1.312 . S
C1477 C107 1.295 . S
C1481 C401 1.248 . S
C1495 C117 1.319 . S
C1499 C1269 1.272 . S
C1513 C611 1.260 . S
C1517 C131 1.316 . S
C1531 C145 1.321 . S
C1535 C625 1.258 . S
C1549 C159 1.314 . S
C1553 C583 1.254 . S
C1567 C173 1.323 . S
C1571 C1325 1.271 . S
C1585 C187 1.312 . S
C1589 C1241 1.253 . S
C1603 C201 1.320 . S
C1607 C1339 1.258 . S
C1621 C215 1.315 . S
C1625 C1311 1.256 . S
C1639 C1143 1.256 . S
C1643 C233 1.295 . S
C1657 C247 1.300 . S
C1661 C555 1.239 . S
C1675 C257 1.320 . S
C1679 C1185 1.276 . S
C1693 C527 1.239 . S
C1697 C275 1.300 . S
C1711 C285 1.318 . S
C1715 C541 1.271 . S
C1729 C1171 1.256 . S
C1733 C303 1.294 . S
C1747 C313 1.322 . S
C1751 C1129 1.272 . S
C1765 C1157 1.275 . S
C1769 C327 1.321 . S
C1783 C719 1.257 . S
C1787 C341 1.286 . S
C1801 C9 1.221 . S
C1805 C355 1.264 . S
C1819 C369 1.287 . S
C1823 C691 1.260 . S
C1837 C383 1.253 . S
C1841 C37 1.215 . S
C1855 C397 1.290 . S
C1859 C747 1.254 . S
C1873 C93 1.212 . S
C1877 C411 1.256 . S
C1891 C425 1.289 . S
C1895 C775 1.246 . S
C1909 C439 1.258 . S
C1913 C65 1.228 . S
C1927 C453 1.275 . S
C1931 C933 1.228 . S
C1945 C271 1.248 . S
C1949 C467 1.287 . S
C1963 C481 1.276 . S
C1967 C289 1.228 . S
C1981 C243 1.251 . S
C1985 C495 1.289 . S
C1999 C509 1.278 . S
C2003 C989 1.228 . S
C2017 C523 1.286 . S
C2021 C901 1.249 . S
C2035 C537 1.277 . S
C2039 C1003 1.212 . S
C2053 C971 1.259 . S
C2057 C551 1.289 . S
C2071 C807 1.214 . S
C2075 C565 1.254 . S
C2089 C219 1.202 . S
C2093 C579 1.253 . S
C2107 C849 1.227 . S
C2111 C593 1.275 . S
C2125 C607 1.256 . S
C2129 C191 1.204 . S
C2143 C621 1.275 . S
C2147 C205 1.214 . S
C2161 C635 1.255 . S
C2165 C835 1.199 . S
C2179 C793 1.228 . S
C2183 C649 1.275 . S
C2197 C663 1.279 . S
C2201 C821 1.218 . S
C2215 C387 1.256 . S
C2219 C677 1.311 . S
C2233 C1017 1.242 . S
C2237 C695 1.298 . S
C2251 C705 1.305 . S
C2255 C359 1.250 . S
C2269 C1045 1.249 . S
C2273 C723 1.294 . S
C2287 C733 1.313 . S
C2291 C415 1.271 . S
C2305 C1101 1.243 . S
C2309 C751 1.297 . S
C2323 C761 1.309 . S
C2327 C443 1.246 . S
C2341 C1073 1.239 . S
C2345 C779 1.299 . S
C2359 C597 1.264 . S
C2363 C789 1.318 . S
C2377 C803 1.314 . S
C2381 C1283 1.257 . S
C2395 C1297 1.275 . S
C2399 C817 1.322 . S
C2413 C831 1.315 . S
C2417 C1255 1.259 . S
C2431 C653 1.273 . S
C2435 C845 1.322 . S
C2449 C859 1.316 . S
C2453 C569 1.260 . S
C2467 C667 1.263 . S
C2471 C873 1.319 . S
C2485 C639 1.263 . S
C2489 C887 1.310 . S
C2503 C471 1.257 . S
C2507 C905 1.293 . S
C2521 C1227 1.257 . S
C2525 C919 1.295 . S
C2539 C929 1.322 . S
C2543 C513 1.272 . S
C2557 C947 1.299 . S
C2561 C1199 1.239 . S
C2575 C1213 1.265 . S
C2579 C957 1.318 . S
C2593 C499 1.257 . S
C2597 C975 1.294 . S
C2611 C457 1.259 . S
C2615 C985 1.319 . S
C2629 C485 1.268 . S
C2633 C999 1.322 . S
C2647 C1013 1.286 . S
C2651 C47 1.255 . S
C2665 C1027 1.253 . S
C2669 C681 1.201 . S
C2683 C1041 1.286 . S
C2687 C19 1.251 . S
C2701 C1055 1.258 . S
C2705 C709 1.227 . S
C2719 C75 1.245 . S
C2723 C1069 1.288 . S
C2737 C765 1.212 . S
C2741 C1083 1.262 . S
C2755 C103 1.261 . S
C2759 C1097 1.287 . S
C2773 C737 1.199 . S
C2777 C1111 1.254 . S
C2791 C1125 1.279 . S
C2795 C261 1.213 . S
C2809 C943 1.258 . S
C2813 C1139 1.288 . S
C2827 C1153 1.277 . S
C2831 C961 1.228 . S
C2845 C1167 1.287 . S
C2849 C915 1.261 . S
C2863 C317 1.227 . S
C2867 C1181 1.275 . S
C2881 C229 1.256 . S
C2885 C1195 1.289 . S
C2899 C1209 1.276 . S
C2903 C331 1.211 . S
C2917 C299 1.246 . S
C2921 C1223 1.287 . S
C2935 C1237 1.257 . S
C2939 C135 1.201 . S
C2953 C1251 1.254 . S
C2957 C891 1.215 . S
C2971 C177 1.224 . S
C2975 C1265 1.275 . S
C2989 C1279 1.255 . S
C2993 C863 1.198 . S
C3007 C877 1.231 . S
C3011 C1293 1.276 . S
C3025 C1307 1.255 . S
C3029 C163 1.199 . S
C3043 C1321 1.278 . S
C3047 C121 1.211 . S
C3061 C1335 1.278 . S
C3065 C149 1.217 . S
C3079 C0 1.278 . S
C3083 C613 1.308 . S
C3097 C627 1.302 . S
C3101 C25 1.275 . S
C3115 C585 1.321 . S
C3119 C28 1.288 . S
C3133 C53 1.272 . S
C3137 C1271 1.303 . S
C3151 C56 1.288 . S
C3155 C1313 1.309 . S
C3169 C81 1.275 . S
C3173 C1327 1.301 . S
C3187 C1243 1.319 . S
C3191 C84 1.283 . S
C3205 C1341 1.302 . S
C3209 C109 1.284 . S
C3223 C375 1.402 . S
C3227 C112 1.366 . S
C3241 C126 1.293 . S
C3245 C1061 1.320 . S
C3259 C347 1.406 . S
C3263 C140 1.359 . S
C3277 C1033 1.318 . S
C3281 C154 1.286 . S
C3295 C431 1.402 . S
C3299 C168 1.373 . S
C3313 C182 1.285 . S
C3317 C1117 1.322 . S
C3331 C196 1.366 . S
C3335 C403 1.407 . S
C3349 C210 1.291 . S
C3353 C1089 1.320 . S
C3367 C235 1.278 . S
C3371 C1187 1.301 . S
C3385 C459 1.302 . S
C3389 C249 1.282 . S
C3403 C252 1.366 . S
C3407 C1145 1.402 . S
C3421 C277 1.277 . S
C3425 C487 1.304 . S
C3439 C280 1.365 . S
C3443 C501 1.406 . S
C3457 C305 1.284 . S
C3461 C1215 1.301 . S
C3475 C1229 1.406 . S
C3479 C308 1.360 . S
C3493 C1201 1.403 . S
C3497 C322 1.373 . S
C3511 C266 1.368 . S
C3515 C336 1.329 . S
C3529 C350 1.341 . S
C3533 C291 1.372 . S
C3547 C364 1.323 . S
C3551 C238 1.369 . S
C3565 C378 1.332 . S
C3569 C935 1.374 . S
C3583 C966 1.365 . S
C3587 C392 1.333 . S
C3601 C991 1.376 . S
C3605 C406 1.329 . S
C3619 C420 1.321 . S
C3623 C896 1.371 . S
C3637 C1005 1.371 . S
C3641 C434 1.338 . S
C3655 C448 1.302 . S
C3659 C39 1.348 . S
C3673 C714 1.369 . S
C3677 C462 1.322 . S
C3691 C476 1.317 . S
C3695 C11 1.350 . S
C3709 C686 1.367 . S
C3713 C490 1.336 . S
C3727 C504 1.303 . S
C3731 C95 1.348 . S
C3745 C770 1.370 . S
C3749 C518 1.321 . S
C3763 C67 1.349 . S
C3767 C532 1.315 . S
C3781 C742 1.367 . S
C3785 C546 1.335 . S
C3799 C560 1.340 . S
C3803 C851 1.377 . S
C3817 C574 1.340 . S
C3821 C123 1.376 . S
C3835 C809 1.344 . S
C3839 C588 1.306 . S
C3853 C602 1.341 . S
C3857 C151 1.376 . S
C3871 C165 1.344 . S
C3875 C616 1.308 . S
C3889 C879 1.376 . S
C3893 C630 1.329 . S
C3907 C893 1.348 . S
C3911 C644 1.305 . S
C3925 C865 1.350 . S
C3929 C658 1.308 . S
C3943 C672 1.286 . S
C3947 C1285 1.318 . S
C3961 C697 1.283 . S
C3965 C1299 1.302 . S
C3979 C700 1.277 . S
C3983 C1257 1.308 . S
C3997 C599 1.303 . S
C4001 C725 1.281 . S
C4015 C728 1.293 . S
C4019 C641 1.319 . S
C4033 C655 1.302 . S
C4037 C753 1.276 . S
C4051 C571 1.318 . S
C4055 C756 1.276 . S
C4069 C669 1.301 . S
C4073 C781 1.278 . S
C4087 C784 1.366 . S
C4091 C1047 1.407 . S
C4105 C389 1.318 . S
C4109 C798 1.292 . S
C4123 C812 1.371 . S
C4127 C1019 1.405 . S
C4141 C826 1.289 . S
C4145 C361 1.320 . S
C4159 C840 1.359 . S
C4163 C1103 1.406 . S
C4177 C854 1.289 . S
C4181 C445 1.323 . S
C4195 C1075 1.402 . S
C4199 C868 1.371 . S
C4213 C417 1.318 . S
C4217 C882 1.293 . S
C4231 C907 1.271 . S
C4235 C515 1.302 . S
C4249 C921 1.272 . S
C4253 C1131 1.303 . S
C4267 C924 1.360 . S
C4271 C473 1.404 . S
C4285 C1159 1.301 . S
C4289 C949 1.276 . S
C4303 C952 1.359 . S
C4307 C1173 1.404 . S
C4321 C977 1.279 . S
C4325 C543 1.301 . S
C4339 C557 1.402 . S
C4343 C980 1.371 . S
C4357 C994 1.373 . S
C4361 C529 1.404 . S
C4375 C1008 1.333 . S
C4379 C938 1.366 . S
C4393 C963 1.374 . S
C4397 C1022 1.344 . S
C4411 C910 1.368 . S
C4415 C1036 1.323 . S
C4429 C1050 1.337 . S
C4433 C263 1.373 . S
C4447 C1064 1.321 . S
C4451 C294 1.371 . S
C4465 C1078 1.330 . S
C4469 C319 1.371 . S
C4483 C224 1.367 . S
C4487 C1092 1.332 . S
C4501 C1106 1.339 . S
C4505 C333 1.376 . S
C4519 C1120 1.303 . S
C4523 C711 1.352 . S
C4537 C1134 1.321 . S
C4541 C42 1.371 . S
C4555 C1148 1.316 . S
C4559 C683 1.345 . S
C4573 C1162 1.322 . S
C4577 C14 1.370 . S
C4591 C1176 1.302 . S
C4595 C767 1.352 . S
C4609 C1190 1.333 . S
C4613 C98 1.365 . S
C4627 C1204 1.305 . S
C4631 C739 1.348 . S
C4645 C1218 1.323 . S
C4649 C70 1.371 . S
C4663 C1232 1.337 . S
C4667 C179 1.377 . S
C4681 C1246 1.344 . S
C4685 C795 1.375 . S
C4699 C1260 1.317 . S
C4703 C137 1.346 . S
C4717 C1274 1.331 . S
C4721 C823 1.375 . S
C4735 C1288 1.304 . S
C4739 C837 1.350 . S
C4753 C207 1.375 . S
C4757 C1302 1.344 . S
C4771 C1316 1.308 . S
C4775 C221 1.346 . S
C4789 C1330 1.306 . S
C4793 C193 1.348 . S
