# Generated by pormake.
# Topology flu-e, (6)-cn, num edge types: 1
# Building blocks:
#     Node 0, Type 0, BuildingBlock: MAKGUD_clean_sbu_1, # of connection points: 6
#     Node 1, Type 0, BuildingBlock: MAKGUD_clean_sbu_1, # of connection points: 6
#     Node 2, Type 0, BuildingBlock: MAKGUD_clean_sbu_1, # of connection points: 6
#     Node 3, Type 0, BuildingBlock: MAKGUD_clean_sbu_1, # of connection points: 6
#     Node 4, Type 0, BuildingBlock: MAKGUD_clean_sbu_1, # of connection points: 6
#     Node 5, Type 0, BuildingBlock: MAKGUD_clean_sbu_1, # of connection points: 6
#     Node 6, Type 0, BuildingBlock: MAKGUD_clean_sbu_1, # of connection points: 6
#     Node 7, Type 0, BuildingBlock: MAKGUD_clean_sbu_1, # of connection points: 6
#     Node 8, Type 0, BuildingBlock: MAKGUD_clean_sbu_1, # of connection points: 6
#     Node 9, Type 0, BuildingBlock: MAKGUD_clean_sbu_1, # of connection points: 6
#     Node 10, Type 0, BuildingBlock: MAKGUD_clean_sbu_1, # of connection points: 6
#     Node 11, Type 0, BuildingBlock: MAKGUD_clean_sbu_1, # of connection points: 6
#     Node 12, Type 0, BuildingBlock: MAKGUD_clean_sbu_1, # of connection points: 6
#     Node 13, Type 0, BuildingBlock: MAKGUD_clean_sbu_1, # of connection points: 6
#     Node 14, Type 0, BuildingBlock: MAKGUD_clean_sbu_1, # of connection points: 6
#     Node 15, Type 0, BuildingBlock: MAKGUD_clean_sbu_1, # of connection points: 6
#     Node 16, Type 0, BuildingBlock: MAKGUD_clean_sbu_1, # of connection points: 6
#     Node 17, Type 0, BuildingBlock: MAKGUD_clean_sbu_1, # of connection points: 6
#     Node 18, Type 0, BuildingBlock: MAKGUD_clean_sbu_1, # of connection points: 6
#     Node 19, Type 0, BuildingBlock: MAKGUD_clean_sbu_1, # of connection points: 6
#     Node 20, Type 0, BuildingBlock: MAKGUD_clean_sbu_1, # of connection points: 6
#     Node 21, Type 0, BuildingBlock: MAKGUD_clean_sbu_1, # of connection points: 6
#     Node 22, Type 0, BuildingBlock: MAKGUD_clean_sbu_1, # of connection points: 6
#     Node 23, Type 0, BuildingBlock: MAKGUD_clean_sbu_1, # of connection points: 6
#     Node 24, Type 0, BuildingBlock: MAKGUD_clean_sbu_1, # of connection points: 6
#     Node 25, Type 0, BuildingBlock: MAKGUD_clean_sbu_1, # of connection points: 6
#     Node 26, Type 0, BuildingBlock: MAKGUD_clean_sbu_1, # of connection points: 6
#     Node 27, Type 0, BuildingBlock: MAKGUD_clean_sbu_1, # of connection points: 6
#     Node 28, Type 0, BuildingBlock: MAKGUD_clean_sbu_1, # of connection points: 6
#     Node 29, Type 0, BuildingBlock: MAKGUD_clean_sbu_1, # of connection points: 6
#     Node 30, Type 0, BuildingBlock: MAKGUD_clean_sbu_1, # of connection points: 6
#     Node 31, Type 0, BuildingBlock: MAKGUD_clean_sbu_1, # of connection points: 6
#     Edge 32, Type (0, 0), BuildingBlock: XIVTED_clean_linker_0, # of connection points: 2
#     Edge 33, Type (0, 0), BuildingBlock: XIVTED_clean_linker_0, # of connection points: 2
#     Edge 34, Type (0, 0), BuildingBlock: XIVTED_clean_linker_0, # of connection points: 2
#     Edge 35, Type (0, 0), BuildingBlock: XIVTED_clean_linker_0, # of connection points: 2
#     Edge 36, Type (0, 0), BuildingBlock: XIVTED_clean_linker_0, # of connection points: 2
#     Edge 37, Type (0, 0), BuildingBlock: XIVTED_clean_linker_0, # of connection points: 2
#     Edge 38, Type (0, 0), BuildingBlock: XIVTED_clean_linker_0, # of connection points: 2
#     Edge 39, Type (0, 0), BuildingBlock: XIVTED_clean_linker_0, # of connection points: 2
#     Edge 40, Type (0, 0), BuildingBlock: XIVTED_clean_linker_0, # of connection points: 2
#     Edge 41, Type (0, 0), BuildingBlock: XIVTED_clean_linker_0, # of connection points: 2
#     Edge 42, Type (0, 0), BuildingBlock: XIVTED_clean_linker_0, # of connection points: 2
#     Edge 43, Type (0, 0), BuildingBlock: XIVTED_clean_linker_0, # of connection points: 2
#     Edge 44, Type (0, 0), BuildingBlock: XIVTED_clean_linker_0, # of connection points: 2
#     Edge 45, Type (0, 0), BuildingBlock: XIVTED_clean_linker_0, # of connection points: 2
#     Edge 46, Type (0, 0), BuildingBlock: XIVTED_clean_linker_0, # of connection points: 2
#     Edge 47, Type (0, 0), BuildingBlock: XIVTED_clean_linker_0, # of connection points: 2
#     Edge 48, Type (0, 0), BuildingBlock: XIVTED_clean_linker_0, # of connection points: 2
#     Edge 49, Type (0, 0), BuildingBlock: XIVTED_clean_linker_0, # of connection points: 2
#     Edge 50, Type (0, 0), BuildingBlock: XIVTED_clean_linker_0, # of connection points: 2
#     Edge 51, Type (0, 0), BuildingBlock: XIVTED_clean_linker_0, # of connection points: 2
#     Edge 52, Type (0, 0), BuildingBlock: XIVTED_clean_linker_0, # of connection points: 2
#     Edge 53, Type (0, 0), BuildingBlock: XIVTED_clean_linker_0, # of connection points: 2
#     Edge 54, Type (0, 0), BuildingBlock: XIVTED_clean_linker_0, # of connection points: 2
#     Edge 55, Type (0, 0), BuildingBlock: XIVTED_clean_linker_0, # of connection points: 2
#     Edge 56, Type (0, 0), BuildingBlock: XIVTED_clean_linker_0, # of connection points: 2
#     Edge 57, Type (0, 0), BuildingBlock: XIVTED_clean_linker_0, # of connection points: 2
#     Edge 58, Type (0, 0), BuildingBlock: XIVTED_clean_linker_0, # of connection points: 2
#     Edge 59, Type (0, 0), BuildingBlock: XIVTED_clean_linker_0, # of connection points: 2
#     Edge 60, Type (0, 0), BuildingBlock: XIVTED_clean_linker_0, # of connection points: 2
#     Edge 61, Type (0, 0), BuildingBlock: XIVTED_clean_linker_0, # of connection points: 2
#     Edge 62, Type (0, 0), BuildingBlock: XIVTED_clean_linker_0, # of connection points: 2
#     Edge 63, Type (0, 0), BuildingBlock: XIVTED_clean_linker_0, # of connection points: 2
#     Edge 64, Type (0, 0), BuildingBlock: XIVTED_clean_linker_0, # of connection points: 2
#     Edge 65, Type (0, 0), BuildingBlock: XIVTED_clean_linker_0, # of connection points: 2
#     Edge 66, Type (0, 0), BuildingBlock: XIVTED_clean_linker_0, # of connection points: 2
#     Edge 67, Type (0, 0), BuildingBlock: XIVTED_clean_linker_0, # of connection points: 2
#     Edge 68, Type (0, 0), BuildingBlock: XIVTED_clean_linker_0, # of connection points: 2
#     Edge 69, Type (0, 0), BuildingBlock: XIVTED_clean_linker_0, # of connection points: 2
#     Edge 70, Type (0, 0), BuildingBlock: XIVTED_clean_linker_0, # of connection points: 2
#     Edge 71, Type (0, 0), BuildingBlock: XIVTED_clean_linker_0, # of connection points: 2
#     Edge 72, Type (0, 0), BuildingBlock: XIVTED_clean_linker_0, # of connection points: 2
#     Edge 73, Type (0, 0), BuildingBlock: XIVTED_clean_linker_0, # of connection points: 2
#     Edge 74, Type (0, 0), BuildingBlock: XIVTED_clean_linker_0, # of connection points: 2
#     Edge 75, Type (0, 0), BuildingBlock: XIVTED_clean_linker_0, # of connection points: 2
#     Edge 76, Type (0, 0), BuildingBlock: XIVTED_clean_linker_0, # of connection points: 2
#     Edge 77, Type (0, 0), BuildingBlock: XIVTED_clean_linker_0, # of connection points: 2
#     Edge 78, Type (0, 0), BuildingBlock: XIVTED_clean_linker_0, # of connection points: 2
#     Edge 79, Type (0, 0), BuildingBlock: XIVTED_clean_linker_0, # of connection points: 2
#     Edge 80, Type (0, 0), BuildingBlock: XIVTED_clean_linker_0, # of connection points: 2
#     Edge 81, Type (0, 0), BuildingBlock: XIVTED_clean_linker_0, # of connection points: 2
#     Edge 82, Type (0, 0), BuildingBlock: XIVTED_clean_linker_0, # of connection points: 2
#     Edge 83, Type (0, 0), BuildingBlock: XIVTED_clean_linker_0, # of connection points: 2
#     Edge 84, Type (0, 0), BuildingBlock: XIVTED_clean_linker_0, # of connection points: 2
#     Edge 85, Type (0, 0), BuildingBlock: XIVTED_clean_linker_0, # of connection points: 2
#     Edge 86, Type (0, 0), BuildingBlock: XIVTED_clean_linker_0, # of connection points: 2
#     Edge 87, Type (0, 0), BuildingBlock: XIVTED_clean_linker_0, # of connection points: 2
#     Edge 88, Type (0, 0), BuildingBlock: XIVTED_clean_linker_0, # of connection points: 2
#     Edge 89, Type (0, 0), BuildingBlock: XIVTED_clean_linker_0, # of connection points: 2
#     Edge 90, Type (0, 0), BuildingBlock: XIVTED_clean_linker_0, # of connection points: 2
#     Edge 91, Type (0, 0), BuildingBlock: XIVTED_clean_linker_0, # of connection points: 2
#     Edge 92, Type (0, 0), BuildingBlock: XIVTED_clean_linker_0, # of connection points: 2
#     Edge 93, Type (0, 0), BuildingBlock: XIVTED_clean_linker_0, # of connection points: 2
#     Edge 94, Type (0, 0), BuildingBlock: XIVTED_clean_linker_0, # of connection points: 2
#     Edge 95, Type (0, 0), BuildingBlock: XIVTED_clean_linker_0, # of connection points: 2
#     Edge 96, Type (0, 0), BuildingBlock: XIVTED_clean_linker_0, # of connection points: 2
#     Edge 97, Type (0, 0), BuildingBlock: XIVTED_clean_linker_0, # of connection points: 2
#     Edge 98, Type (0, 0), BuildingBlock: XIVTED_clean_linker_0, # of connection points: 2
#     Edge 99, Type (0, 0), BuildingBlock: XIVTED_clean_linker_0, # of connection points: 2
#     Edge 100, Type (0, 0), BuildingBlock: XIVTED_clean_linker_0, # of connection points: 2
#     Edge 101, Type (0, 0), BuildingBlock: XIVTED_clean_linker_0, # of connection points: 2
#     Edge 102, Type (0, 0), BuildingBlock: XIVTED_clean_linker_0, # of connection points: 2
#     Edge 103, Type (0, 0), BuildingBlock: XIVTED_clean_linker_0, # of connection points: 2
#     Edge 104, Type (0, 0), BuildingBlock: XIVTED_clean_linker_0, # of connection points: 2
#     Edge 105, Type (0, 0), BuildingBlock: XIVTED_clean_linker_0, # of connection points: 2
#     Edge 106, Type (0, 0), BuildingBlock: XIVTED_clean_linker_0, # of connection points: 2
#     Edge 107, Type (0, 0), BuildingBlock: XIVTED_clean_linker_0, # of connection points: 2
#     Edge 108, Type (0, 0), BuildingBlock: XIVTED_clean_linker_0, # of connection points: 2
#     Edge 109, Type (0, 0), BuildingBlock: XIVTED_clean_linker_0, # of connection points: 2
#     Edge 110, Type (0, 0), BuildingBlock: XIVTED_clean_linker_0, # of connection points: 2
#     Edge 111, Type (0, 0), BuildingBlock: XIVTED_clean_linker_0, # of connection points: 2
#     Edge 112, Type (0, 0), BuildingBlock: XIVTED_clean_linker_0, # of connection points: 2
#     Edge 113, Type (0, 0), BuildingBlock: XIVTED_clean_linker_0, # of connection points: 2
#     Edge 114, Type (0, 0), BuildingBlock: XIVTED_clean_linker_0, # of connection points: 2
#     Edge 115, Type (0, 0), BuildingBlock: XIVTED_clean_linker_0, # of connection points: 2
#     Edge 116, Type (0, 0), BuildingBlock: XIVTED_clean_linker_0, # of connection points: 2
#     Edge 117, Type (0, 0), BuildingBlock: XIVTED_clean_linker_0, # of connection points: 2
#     Edge 118, Type (0, 0), BuildingBlock: XIVTED_clean_linker_0, # of connection points: 2
#     Edge 119, Type (0, 0), BuildingBlock: XIVTED_clean_linker_0, # of connection points: 2
#     Edge 120, Type (0, 0), BuildingBlock: XIVTED_clean_linker_0, # of connection points: 2
#     Edge 121, Type (0, 0), BuildingBlock: XIVTED_clean_linker_0, # of connection points: 2
#     Edge 122, Type (0, 0), BuildingBlock: XIVTED_clean_linker_0, # of connection points: 2
#     Edge 123, Type (0, 0), BuildingBlock: XIVTED_clean_linker_0, # of connection points: 2
#     Edge 124, Type (0, 0), BuildingBlock: XIVTED_clean_linker_0, # of connection points: 2
#     Edge 125, Type (0, 0), BuildingBlock: XIVTED_clean_linker_0, # of connection points: 2
#     Edge 126, Type (0, 0), BuildingBlock: XIVTED_clean_linker_0, # of connection points: 2
#     Edge 127, Type (0, 0), BuildingBlock: XIVTED_clean_linker_0, # of connection points: 2
# Relax obj value: 0.234
# Max RMSD: 0.305
# Mean RMSD: 0.281
data_MOF--net-flu-e--node1-MAKGUD_clean_sbu_1--edge1-XIVTED_clean_linker_0
_symmetry_space_group_name_H-M    P1
_symmetry_Int_Tables_number       1
_symmetry_cell_setting            triclinic
loop_
_symmetry_equiv_pos_as_xyz
'x, y, z'
_cell_length_a     56.549509
_cell_length_b     53.983036
_cell_length_c     58.882481
_cell_angle_alpha  92.270488
_cell_angle_beta   86.374844
_cell_angle_gamma 90.892262
loop_
_atom_site_label
_atom_site_type_symbol
_atom_site_fract_x
_atom_site_fract_y
_atom_site_fract_z
_atom_type_partial_charge
O0 O 0.21783 0.12631 0.39784 0.0
Tb1 Tb 0.20283 0.16025 0.38527 0.0
C2 C 0.15648 0.19384 0.38096 0.0
O3 O 0.20597 0.1908 0.34044 0.0
Tb4 Tb 0.20108 0.22479 0.36091 0.0
C5 C 0.19536 0.2586 0.32967 0.0
O6 O 0.23103 0.16872 0.35956 0.0
O7 O 0.23143 0.23824 0.37969 0.0
C8 C 0.2527 0.23969 0.36907 0.0
O9 O 0.25578 0.2297 0.34842 0.0
O10 O 0.16701 0.17201 0.37774 0.0
O11 O 0.16818 0.21537 0.38069 0.0
O12 O 0.20479 0.17701 0.41943 0.0
C13 C 0.22596 0.17904 0.34072 0.0
C14 C 0.20315 0.11063 0.38877 0.0
O15 O 0.20819 0.23891 0.32691 0.0
O16 O 0.18533 0.25933 0.35023 0.0
C17 C 0.18751 0.17164 0.43456 0.0
O18 O 0.16949 0.15836 0.42761 0.0
O19 O 0.18814 0.12296 0.3779 0.0
O20 O 0.91419 0.16864 0.45019 0.0
Tb21 Tb 0.92502 0.18262 0.4166 0.0
C22 C 0.97636 0.20132 0.39417 0.0
O23 O 0.9073 0.23875 0.39953 0.0
Tb24 Tb 0.9324 0.22551 0.37263 0.0
C25 C 0.93644 0.25822 0.33966 0.0
O26 O 0.89217 0.20037 0.40671 0.0
O27 O 0.91251 0.19489 0.35745 0.0
C28 C 0.89121 0.1999 0.35112 0.0
O29 O 0.88242 0.22189 0.3565 0.0
O30 O 0.96294 0.18403 0.40424 0.0
O31 O 0.96756 0.22007 0.384 0.0
O32 O 0.92323 0.14293 0.40723 0.0
C33 C 0.88939 0.22467 0.40642 0.0
C34 C 0.92336 0.18663 0.46221 0.0
O35 O 0.93206 0.26368 0.36122 0.0
O36 O 0.93875 0.23441 0.33675 0.0
C37 C 0.93754 0.12796 0.41691 0.0
O38 O 0.95243 0.13777 0.4311 0.0
O39 O 0.93348 0.20257 0.44848 0.0
O40 O 0.93937 0.87432 0.45691 0.0
Tb41 Tb 0.93164 0.88844 0.42347 0.0
C42 C 0.9322 0.94116 0.39822 0.0
O43 O 0.88255 0.89162 0.39779 0.0
Tb44 Tb 0.90532 0.90214 0.36873 0.0
C45 C 0.87767 0.91714 0.33677 0.0
O46 O 0.90523 0.86176 0.41082 0.0
O47 O 0.91982 0.8668 0.3561 0.0
C48 C 0.90503 0.84872 0.35081 0.0
O49 O 0.88223 0.8518 0.3555 0.0
O50 O 0.92991 0.92835 0.417 0.0
O51 O 0.93046 0.931 0.37768 0.0
O52 O 0.96896 0.88057 0.41278 0.0
C53 C 0.88429 0.86945 0.40569 0.0
C54 C 0.92446 0.88836 0.46902 0.0
O55 O 0.872 0.91734 0.35851 0.0
O56 O 0.89909 0.90889 0.33309 0.0
C57 C 0.98593 0.89181 0.42395 0.0
O58 O 0.97962 0.90829 0.44014 0.0
O59 O 0.91381 0.90223 0.45545 0.0
O60 O 0.22373 0.89624 0.45516 0.0
Tb61 Tb 0.21374 0.87434 0.42501 0.0
C62 C 0.1623 0.85637 0.40569 0.0
O63 O 0.22758 0.81664 0.40006 0.0
Tb64 Tb 0.20811 0.83816 0.37702 0.0
C65 C 0.21273 0.81646 0.3352 0.0
O66 O 0.2449 0.8505 0.41707 0.0
O67 O 0.22874 0.87222 0.37567 0.0
C68 C 0.25152 0.87019 0.37029 0.0
O69 O 0.26047 0.84795 0.36676 0.0
O70 O 0.1757 0.86962 0.41945 0.0
O71 O 0.17113 0.84133 0.38919 0.0
O72 O 0.21803 0.91089 0.40987 0.0
C73 C 0.24508 0.8266 0.41113 0.0
C74 C 0.21377 0.88171 0.47016 0.0
O75 O 0.21871 0.80686 0.35387 0.0
O76 O 0.20366 0.83814 0.34015 0.0
C77 C 0.20055 0.9269 0.41295 0.0
O78 O 0.18089 0.9199 0.42411 0.0
O79 O 0.20384 0.86299 0.45971 0.0
O80 O 0.15429 0.93073 0.70106 0.0
Tb81 Tb 0.18641 0.91152 0.68767 0.0
C82 C 0.21163 0.90514 0.64055 0.0
O83 O 0.22294 0.86539 0.69488 0.0
Tb84 Tb 0.243 0.8958 0.67883 0.0
C85 C 0.28335 0.87595 0.66204 0.0
O86 O 0.19561 0.88915 0.71552 0.0
O87 O 0.25124 0.91914 0.70835 0.0
C88 C 0.25618 0.90795 0.72692 0.0
O89 O 0.25389 0.88375 0.72734 0.0
O90 O 0.19425 0.89596 0.6535 0.0
O91 O 0.23018 0.91458 0.65015 0.0
O92 O 0.20336 0.94764 0.68409 0.0
C93 C 0.20743 0.86842 0.71238 0.0
C94 C 0.13977 0.91658 0.68998 0.0
O95 O 0.26231 0.8674 0.65833 0.0
O96 O 0.28174 0.89558 0.67547 0.0
C97 C 0.19512 0.96259 0.66939 0.0
O98 O 0.17796 0.95451 0.65687 0.0
O99 O 0.15149 0.89963 0.67802 0.0
O100 O 0.29557 0.16443 0.71874 0.0
Tb101 Tb 0.27542 0.18278 0.69438 0.0
C102 C 0.22374 0.20655 0.68824 0.0
O103 O 0.24496 0.15671 0.65368 0.0
Tb104 Tb 0.20913 0.17111 0.65165 0.0
C105 C 0.16992 0.14347 0.65883 0.0
O106 O 0.26984 0.14536 0.68008 0.0
O107 O 0.20891 0.18615 0.61775 0.0
C108 C 0.21346 0.17046 0.60035 0.0
O109 O 0.21908 0.14765 0.60454 0.0
O110 O 0.24171 0.19234 0.68204 0.0
O111 O 0.20567 0.2033 0.67545 0.0
O112 O 0.30128 0.20822 0.67916 0.0
C113 C 0.25203 0.13977 0.66722 0.0
C114 C 0.28593 0.17579 0.73683 0.0
O115 O 0.18269 0.15319 0.67459 0.0
O116 O 0.1803 0.14807 0.63912 0.0
C117 C 0.29466 0.22678 0.66732 0.0
O118 O 0.27286 0.22703 0.66086 0.0
O119 O 0.26984 0.19114 0.73107 0.0
O120 O 0.98445 0.17774 0.69025 0.0
Tb121 Tb 0.95429 0.19424 0.67524 0.0
C122 C 0.92461 0.19139 0.63363 0.0
O123 O 0.91227 0.2049 0.71114 0.0
Tb124 Tb 0.89503 0.19944 0.67909 0.0
C125 C 0.87938 0.24193 0.66537 0.0
O126 O 0.94621 0.22472 0.69926 0.0
O127 O 0.86595 0.18199 0.69926 0.0
C128 C 0.8527 0.19705 0.71275 0.0
O129 O 0.85729 0.22097 0.71237 0.0
O130 O 0.9424 0.20348 0.64247 0.0
O131 O 0.90823 0.18065 0.64712 0.0
O132 O 0.93423 0.1601 0.67956 0.0
C133 C 0.9284 0.22228 0.71439 0.0
C134 C 0.99974 0.18168 0.67332 0.0
O135 O 0.89982 0.23919 0.67394 0.0
O136 O 0.86778 0.22095 0.66493 0.0
C137 C 0.93928 0.14169 0.66485 0.0
O138 O 0.95564 0.14521 0.64838 0.0
O139 O 0.98956 0.19327 0.65769 0.0
O140 O 0.95413 0.91003 0.67332 0.0
Tb141 Tb 0.91882 0.91396 0.68952 0.0
C142 C 0.90072 0.96822 0.69918 0.0
O143 O 0.91692 0.91121 0.74572 0.0
Tb144 Tb 0.88801 0.93339 0.73652 0.0
C145 C 0.85851 0.94482 0.77218 0.0
O146 O 0.91515 0.88467 0.71474 0.0
O147 O 0.87174 0.90576 0.71469 0.0
C148 C 0.86312 0.88596 0.72463 0.0
O149 O 0.86364 0.88502 0.74687 0.0
O150 O 0.89955 0.94847 0.68536 0.0
O151 O 0.90207 0.96588 0.72102 0.0
O152 O 0.91117 0.89892 0.6556 0.0
C153 C 0.92012 0.88904 0.73624 0.0
C154 C 0.96464 0.92509 0.68729 0.0
O155 O 0.88055 0.93865 0.77319 0.0
O156 O 0.85311 0.94453 0.75102 0.0
C157 C 0.91422 0.91417 0.63863 0.0
O158 O 0.92102 0.93708 0.64326 0.0
O159 O 0.94929 0.93411 0.70273 0.0
O160 O 0.48373 0.19158 0.18818 0.0
Tb161 Tb 0.45043 0.2062 0.17785 0.0
C162 C 0.42149 0.19615 0.13642 0.0
O163 O 0.40662 0.21043 0.21431 0.0
Tb164 Tb 0.39168 0.20434 0.18112 0.0
C165 C 0.37722 0.24644 0.16551 0.0
O166 O 0.4389 0.2337 0.20352 0.0
O167 O 0.36168 0.18724 0.20011 0.0
C168 C 0.34768 0.20251 0.21254 0.0
O169 O 0.35205 0.22645 0.21174 0.0
O170 O 0.43709 0.21156 0.14494 0.0
O171 O 0.40614 0.18446 0.15024 0.0
O172 O 0.43575 0.16926 0.18278 0.0
C173 C 0.4217 0.22856 0.21859 0.0
C174 C 0.49743 0.20426 0.17424 0.0
O175 O 0.39714 0.24382 0.17508 0.0
O176 O 0.36544 0.22557 0.16516 0.0
C177 C 0.4432 0.15109 0.16869 0.0
O178 O 0.45916 0.15602 0.15223 0.0
O179 O 0.48466 0.21814 0.16241 0.0
O180 O 0.95025 0.41803 0.16166 0.0
Tb181 Tb 0.91578 0.41223 0.17926 0.0
C182 C 0.89143 0.46287 0.19171 0.0
O183 O 0.91862 0.40811 0.23349 0.0
Tb184 Tb 0.88562 0.42597 0.22877 0.0
C185 C 0.86006 0.43118 0.26818 0.0
O186 O 0.91594 0.38173 0.20284 0.0
O187 O 0.86838 0.39924 0.20686 0.0
C188 C 0.86407 0.37712 0.21462 0.0
O189 O 0.8705 0.37198 0.23493 0.0
O190 O 0.89196 0.44356 0.17727 0.0
O191 O 0.894 0.4604 0.21343 0.0
O192 O 0.91163 0.39364 0.14607 0.0
C193 C 0.92249 0.38622 0.22374 0.0
C194 C 0.95948 0.43097 0.178 0.0
O195 O 0.88215 0.42473 0.26588 0.0
O196 O 0.85244 0.43495 0.24825 0.0
C197 C 0.89551 0.40038 0.13241 0.0
O198 O 0.87929 0.41627 0.14011 0.0
O199 O 0.94402 0.43351 0.19522 0.0
O200 O 0.65789 0.92749 0.20025 0.0
Tb201 Tb 0.68911 0.90765 0.18564 0.0
C202 C 0.71133 0.90477 0.1377 0.0
O203 O 0.73197 0.86526 0.19213 0.0
Tb204 Tb 0.74769 0.89352 0.17 0.0
C205 C 0.77406 0.86647 0.13991 0.0
O206 O 0.70167 0.88617 0.21241 0.0
O207 O 0.77026 0.91285 0.19384 0.0
C208 C 0.76291 0.91975 0.21476 0.0
O209 O 0.74023 0.91836 0.22089 0.0
O210 O 0.69544 0.89351 0.15089 0.0
O211 O 0.72932 0.91568 0.1471 0.0
O212 O 0.70596 0.94339 0.18085 0.0
C213 C 0.7162 0.86741 0.20953 0.0
C214 C 0.64253 0.91239 0.19139 0.0
O215 O 0.75203 0.862 0.14605 0.0
O216 O 0.7815 0.88597 0.15119 0.0
C217 C 0.69682 0.95744 0.16604 0.0
O218 O 0.678 0.94929 0.15589 0.0
O219 O 0.65343 0.89461 0.17971 0.0
O220 O 0.30049 0.66557 0.21775 0.0
Tb221 Tb 0.27789 0.68605 0.19662 0.0
C222 C 0.23635 0.72118 0.18769 0.0
O223 O 0.24908 0.6747 0.15548 0.0
Tb224 Tb 0.21633 0.6915 0.14692 0.0
C225 C 0.17197 0.68347 0.16197 0.0
O226 O 0.27096 0.65225 0.17692 0.0
O227 O 0.21841 0.69301 0.10968 0.0
C228 C 0.20526 0.67695 0.09843 0.0
O229 O 0.19216 0.66114 0.11028 0.0
O230 O 0.24175 0.69862 0.19309 0.0
O231 O 0.22472 0.72386 0.16909 0.0
O232 O 0.30313 0.71359 0.18365 0.0
C233 C 0.25362 0.65287 0.16317 0.0
C234 C 0.29117 0.67392 0.23728 0.0
O235 O 0.18818 0.6662 0.16011 0.0
O236 O 0.18097 0.70446 0.15528 0.0
C237 C 0.2984 0.73073 0.16939 0.0
O238 O 0.27869 0.72936 0.15877 0.0
O239 O 0.27386 0.68875 0.23391 0.0
O240 O 0.44005 0.8749 0.95563 0.0
Tb241 Tb 0.43161 0.88778 0.92196 0.0
C242 C 0.43249 0.94028 0.89664 0.0
O243 O 0.38292 0.89009 0.89697 0.0
Tb244 Tb 0.40429 0.90213 0.86758 0.0
C245 C 0.37377 0.92094 0.84021 0.0
O246 O 0.40595 0.8603 0.90933 0.0
O247 O 0.41636 0.86653 0.85275 0.0
C248 C 0.43303 0.86575 0.83611 0.0
O249 O 0.44402 0.88648 0.83053 0.0
O250 O 0.42991 0.92768 0.91551 0.0
O251 O 0.43084 0.92977 0.87623 0.0
O252 O 0.46877 0.87986 0.91082 0.0
C253 C 0.38508 0.86741 0.9035 0.0
C254 C 0.4242 0.8881 0.96743 0.0
O255 O 0.37015 0.9186 0.86201 0.0
O256 O 0.3948 0.91292 0.83378 0.0
C257 C 0.48594 0.89078 0.9219 0.0
O258 O 0.47999 0.90703 0.9384 0.0
O259 O 0.41272 0.90086 0.95361 0.0
O260 O 0.22239 0.39068 0.95403 0.0
Tb261 Tb 0.21116 0.36605 0.92604 0.0
C262 C 0.16098 0.35222 0.90417 0.0
O263 O 0.22403 0.30884 0.9008 0.0
Tb264 Tb 0.20681 0.33111 0.87673 0.0
C265 C 0.21018 0.30675 0.83609 0.0
O266 O 0.24192 0.34156 0.91901 0.0
O267 O 0.22512 0.36649 0.87409 0.0
C268 C 0.24839 0.36689 0.87295 0.0
O269 O 0.25974 0.3459 0.87341 0.0
O270 O 0.17342 0.3574 0.92212 0.0
O271 O 0.1707 0.34382 0.88445 0.0
O272 O 0.21344 0.40119 0.90842 0.0
C273 C 0.24168 0.31792 0.91222 0.0
C274 C 0.21221 0.3782 0.97045 0.0
O275 O 0.19368 0.30329 0.85211 0.0
O276 O 0.22459 0.32405 0.84291 0.0
C277 C 0.19585 0.417 0.91169 0.0
O278 O 0.17696 0.41033 0.92423 0.0
O279 O 0.2016 0.35881 0.96185 0.0
O280 O 0.72198 0.11667 0.89856 0.0
Tb281 Tb 0.70866 0.15147 0.8861 0.0
C282 C 0.6626 0.18634 0.88355 0.0
O283 O 0.71229 0.18325 0.84232 0.0
Tb284 Tb 0.70767 0.21662 0.86376 0.0
C285 C 0.70044 0.2505 0.83319 0.0
O286 O 0.73698 0.15972 0.86038 0.0
O287 O 0.73869 0.23046 0.88143 0.0
C288 C 0.75947 0.23271 0.86996 0.0
O289 O 0.76183 0.22309 0.84911 0.0
O290 O 0.67262 0.16424 0.88026 0.0
O291 O 0.6749 0.20749 0.88385 0.0
O292 O 0.71282 0.16727 0.92031 0.0
C293 C 0.73218 0.17121 0.84207 0.0
C294 C 0.70732 0.10173 0.88853 0.0
O295 O 0.71314 0.2308 0.82972 0.0
O296 O 0.69148 0.25127 0.85413 0.0
C297 C 0.69655 0.16143 0.93625 0.0
O298 O 0.67802 0.14843 0.93008 0.0
O299 O 0.69331 0.11486 0.87727 0.0
O300 O 0.92033 0.6652 0.96275 0.0
Tb301 Tb 0.92925 0.68005 0.92908 0.0
C302 C 0.97964 0.69685 0.90214 0.0
O303 O 0.91369 0.73702 0.91275 0.0
Tb304 Tb 0.93485 0.72436 0.88261 0.0
C305 C 0.93833 0.75841 0.85065 0.0
O306 O 0.89714 0.69919 0.91953 0.0
O307 O 0.90791 0.69935 0.8696 0.0
C308 C 0.88825 0.71049 0.8651 0.0
O309 O 0.88675 0.73445 0.8697 0.0
O310 O 0.96696 0.68252 0.91635 0.0
O311 O 0.97054 0.71324 0.88918 0.0
O312 O 0.92371 0.64021 0.92113 0.0
C313 C 0.89512 0.72359 0.91929 0.0
C314 C 0.92818 0.68384 0.97485 0.0
O315 O 0.93647 0.7632 0.87257 0.0
O316 O 0.93864 0.73453 0.84689 0.0
C317 C 0.93634 0.62722 0.90532 0.0
O318 O 0.95178 0.63879 0.89177 0.0
O319 O 0.93677 0.70056 0.96109 0.0
O320 O 0.14761 0.44838 0.19856 0.0
Tb321 Tb 0.18017 0.43004 0.18502 0.0
C322 C 0.20636 0.42191 0.13819 0.0
O323 O 0.21492 0.38281 0.19146 0.0
Tb324 Tb 0.23762 0.41131 0.17577 0.0
C325 C 0.27523 0.38674 0.15821 0.0
O326 O 0.18923 0.40767 0.21303 0.0
O327 O 0.2476 0.43224 0.20614 0.0
C328 C 0.2525 0.41935 0.22375 0.0
O329 O 0.2499 0.39515 0.22244 0.0
O330 O 0.1887 0.4135 0.15133 0.0
O331 O 0.2251 0.43113 0.14764 0.0
O332 O 0.19705 0.46614 0.18126 0.0
C333 C 0.20057 0.38667 0.20969 0.0
C334 C 0.13353 0.43517 0.18614 0.0
O335 O 0.25331 0.38025 0.15584 0.0
O336 O 0.27607 0.40714 0.17062 0.0
C337 C 0.19053 0.48027 0.16508 0.0
O338 O 0.1752 0.4714 0.15088 0.0
O339 O 0.14567 0.41904 0.17357 0.0
O340 O 0.22007 0.61372 0.88369 0.0
Tb341 Tb 0.20268 0.64894 0.87802 0.0
C342 C 0.15925 0.68508 0.8826 0.0
O343 O 0.23765 0.69354 0.86433 0.0
Tb344 Tb 0.2067 0.71694 0.87083 0.0
C345 C 0.19769 0.74331 0.83492 0.0
O346 O 0.22442 0.65806 0.84746 0.0
O347 O 0.23021 0.74161 0.88996 0.0
C348 C 0.24623 0.75423 0.87761 0.0
O349 O 0.24645 0.75162 0.85533 0.0
O350 O 0.16784 0.66407 0.87343 0.0
O351 O 0.17312 0.70416 0.88841 0.0
O352 O 0.20893 0.66463 0.91203 0.0
C353 C 0.23925 0.67697 0.84741 0.0
C354 C 0.20175 0.59932 0.88085 0.0
O355 O 0.20411 0.72013 0.83389 0.0
O356 O 0.19584 0.75118 0.85612 0.0
C357 C 0.19278 0.65921 0.9283 0.0
O358 O 0.17412 0.64623 0.92245 0.0
O359 O 0.18393 0.61293 0.87638 0.0
O360 O 0.41948 0.16711 0.95256 0.0
Tb361 Tb 0.43116 0.1819 0.91947 0.0
C362 C 0.48241 0.19868 0.89442 0.0
O363 O 0.41592 0.23934 0.90445 0.0
Tb364 Tb 0.43787 0.22633 0.87485 0.0
C365 C 0.44157 0.26039 0.84303 0.0
O366 O 0.3993 0.20135 0.90997 0.0
O367 O 0.41068 0.2015 0.86205 0.0
C368 C 0.3911 0.21286 0.85765 0.0
O369 O 0.39008 0.23696 0.86163 0.0
O370 O 0.46933 0.18509 0.90889 0.0
O371 O 0.47357 0.21459 0.88083 0.0
O372 O 0.42928 0.14241 0.90895 0.0
C373 C 0.39735 0.22578 0.91083 0.0
C374 C 0.4281 0.18505 0.96502 0.0
O375 O 0.44054 0.26514 0.86495 0.0
O376 O 0.4409 0.23654 0.83916 0.0
C377 C 0.44315 0.12694 0.91857 0.0
O378 O 0.4579 0.13622 0.93316 0.0
O379 O 0.43852 0.20125 0.9518 0.0
O380 O 0.94053 0.37508 0.95135 0.0
Tb381 Tb 0.93088 0.38636 0.91763 0.0
C382 C 0.92969 0.43918 0.89453 0.0
O383 O 0.88109 0.38255 0.89167 0.0
Tb384 Tb 0.90206 0.40117 0.86501 0.0
C385 C 0.87163 0.4222 0.839 0.0
O386 O 0.90955 0.35673 0.90171 0.0
O387 O 0.91539 0.36796 0.84655 0.0
C388 C 0.8997 0.35174 0.83918 0.0
O389 O 0.87711 0.35591 0.84426 0.0
O390 O 0.92696 0.42646 0.91325 0.0
O391 O 0.92908 0.42824 0.87422 0.0
O392 O 0.96865 0.37986 0.90773 0.0
C393 C 0.88729 0.36049 0.89748 0.0
C394 C 0.92113 0.3824 0.96251 0.0
O395 O 0.86868 0.42007 0.86092 0.0
O396 O 0.89185 0.4127 0.8318 0.0
C397 C 0.98531 0.39119 0.91925 0.0
O398 O 0.9787 0.40756 0.93543 0.0
O399 O 0.90731 0.39169 0.94836 0.0
O400 O 0.72177 0.88854 0.95324 0.0
Tb401 Tb 0.71191 0.86567 0.92363 0.0
C402 C 0.66137 0.85207 0.90175 0.0
O403 O 0.72442 0.80836 0.89859 0.0
Tb404 Tb 0.70732 0.83089 0.8746 0.0
C405 C 0.71182 0.80738 0.8336 0.0
O406 O 0.74248 0.84112 0.91654 0.0
O407 O 0.72493 0.86675 0.87237 0.0
C408 C 0.7482 0.86755 0.87129 0.0
O409 O 0.75987 0.84676 0.8718 0.0
O410 O 0.67406 0.85874 0.91916 0.0
O411 O 0.67081 0.84235 0.8824 0.0
O412 O 0.71629 0.90185 0.90793 0.0
C413 C 0.74191 0.81735 0.91027 0.0
C414 C 0.71199 0.87428 0.96855 0.0
O415 O 0.69476 0.80375 0.84905 0.0
O416 O 0.72612 0.82435 0.84119 0.0
C417 C 0.69844 0.91744 0.90907 0.0
O418 O 0.67786 0.9101 0.9182 0.0
O419 O 0.7023 0.85516 0.95855 0.0
O420 O 0.98164 0.66424 0.19269 0.0
Tb421 Tb 0.94934 0.68585 0.19061 0.0
C422 C 0.92389 0.68839 0.14688 0.0
O423 O 0.91167 0.73077 0.20567 0.0
Tb424 Tb 0.88999 0.70577 0.1854 0.0
C425 C 0.86862 0.73539 0.15876 0.0
O426 O 0.93478 0.70311 0.22235 0.0
O427 O 0.86619 0.69293 0.21372 0.0
C428 C 0.8564 0.70971 0.22825 0.0
O429 O 0.86179 0.73316 0.22519 0.0
O430 O 0.94183 0.69839 0.15718 0.0
O431 O 0.90562 0.68007 0.15945 0.0
O432 O 0.93138 0.65029 0.18888 0.0
C433 C 0.92327 0.72407 0.22301 0.0
C434 C 0.99623 0.6831 0.1916 0.0
O435 O 0.89014 0.7383 0.16488 0.0
O436 O 0.8586 0.71633 0.16847 0.0
C437 C 0.93606 0.63498 0.17133 0.0
O438 O 0.95221 0.64123 0.15547 0.0
O439 O 0.98436 0.70336 0.19014 0.0
O440 O 0.45702 0.91518 0.17006 0.0
Tb441 Tb 0.42203 0.91976 0.18688 0.0
C442 C 0.4046 0.97429 0.1982 0.0
O443 O 0.42019 0.91601 0.24257 0.0
Tb444 Tb 0.39035 0.93761 0.23466 0.0
C445 C 0.3631 0.94806 0.27213 0.0
O446 O 0.41754 0.89002 0.21149 0.0
O447 O 0.37312 0.90924 0.21415 0.0
C448 C 0.36526 0.88978 0.22519 0.0
O449 O 0.36718 0.88987 0.24732 0.0
O450 O 0.40435 0.95534 0.18338 0.0
O451 O 0.40401 0.97092 0.22006 0.0
O452 O 0.41351 0.90454 0.15332 0.0
C453 C 0.423 0.89392 0.23287 0.0
C454 C 0.46829 0.92871 0.18467 0.0
O455 O 0.38506 0.94119 0.27164 0.0
O456 O 0.35647 0.94906 0.25143 0.0
C457 C 0.41517 0.91964 0.13619 0.0
O458 O 0.42092 0.94297 0.14033 0.0
O459 O 0.45343 0.93754 0.20064 0.0
O460 O 0.80745 0.16582 0.1995 0.0
Tb461 Tb 0.77214 0.1691 0.1864 0.0
C462 C 0.73028 0.20177 0.20028 0.0
O463 O 0.72726 0.14419 0.15814 0.0
Tb464 Tb 0.72052 0.18321 0.15325 0.0
C465 C 0.67359 0.18711 0.15689 0.0
O466 O 0.76786 0.14102 0.15979 0.0
O467 O 0.73026 0.18399 0.11681 0.0
C468 C 0.71821 0.16794 0.10446 0.0
O469 O 0.70368 0.15265 0.11542 0.0
O470 O 0.73893 0.18004 0.20396 0.0
O471 O 0.7314 0.20967 0.17942 0.0
O472 O 0.78304 0.20525 0.17476 0.0
C473 C 0.74713 0.13171 0.15478 0.0
C474 C 0.80026 0.15633 0.21877 0.0
O475 O 0.68567 0.17083 0.16676 0.0
O476 O 0.68793 0.20118 0.14484 0.0
C477 C 0.78401 0.2231 0.19046 0.0
O478 O 0.77869 0.21806 0.21184 0.0
O479 O 0.77737 0.15343 0.21938 0.0
O480 O 0.49637 0.677 0.69453 0.0
Tb481 Tb 0.4654 0.69321 0.68053 0.0
C482 C 0.43444 0.69304 0.6401 0.0
O483 O 0.42468 0.70952 0.71737 0.0
Tb484 Tb 0.40625 0.70252 0.68602 0.0
C485 C 0.39163 0.74441 0.67044 0.0
O486 O 0.46004 0.72511 0.70348 0.0
O487 O 0.3766 0.68777 0.70744 0.0
C488 C 0.36722 0.70385 0.72283 0.0
O489 O 0.37573 0.72664 0.72283 0.0
O490 O 0.45298 0.70407 0.64853 0.0
O491 O 0.41805 0.68282 0.65396 0.0
O492 O 0.44374 0.66022 0.6855 0.0
C493 C 0.44247 0.72537 0.7191 0.0
C494 C 0.51035 0.67883 0.67625 0.0
O495 O 0.41209 0.74173 0.67895 0.0
O496 O 0.37935 0.7239 0.67138 0.0
C497 C 0.44729 0.64186 0.67037 0.0
O498 O 0.46341 0.64474 0.65358 0.0
O499 O 0.49917 0.68928 0.66061 0.0
O500 O 0.64758 0.4419 0.70372 0.0
Tb501 Tb 0.67947 0.42199 0.69073 0.0
C502 C 0.70467 0.41488 0.64353 0.0
O503 O 0.71506 0.37569 0.69646 0.0
Tb504 Tb 0.73673 0.40488 0.68061 0.0
C505 C 0.77483 0.38132 0.66273 0.0
O506 O 0.68875 0.39953 0.71839 0.0
O507 O 0.74663 0.42708 0.71027 0.0
C508 C 0.75135 0.41514 0.72849 0.0
O509 O 0.74836 0.39098 0.72833 0.0
O510 O 0.68751 0.40583 0.65686 0.0
O511 O 0.72348 0.42438 0.65266 0.0
O512 O 0.6981 0.45699 0.68682 0.0
C513 C 0.70059 0.37892 0.7147 0.0
C514 C 0.633 0.42827 0.6922 0.0
O515 O 0.75304 0.37486 0.65971 0.0
O516 O 0.77528 0.40113 0.67596 0.0
C517 C 0.69083 0.47227 0.67195 0.0
O518 O 0.67305 0.46544 0.65969 0.0
O519 O 0.64456 0.41111 0.68036 0.0
O520 O 0.43171 0.37797 0.45606 0.0
Tb521 Tb 0.42343 0.39129 0.4226 0.0
C522 C 0.42386 0.44326 0.39786 0.0
O523 O 0.37383 0.38896 0.39628 0.0
Tb524 Tb 0.39546 0.40547 0.3689 0.0
C525 C 0.36649 0.42605 0.34112 0.0
O526 O 0.40114 0.36228 0.40708 0.0
O527 O 0.40782 0.37104 0.35209 0.0
C528 C 0.39177 0.35527 0.34468 0.0
O529 O 0.36927 0.36055 0.34885 0.0
O530 O 0.42046 0.43131 0.41699 0.0
O531 O 0.42329 0.43165 0.37785 0.0
O532 O 0.4613 0.38468 0.41352 0.0
C533 C 0.37912 0.3668 0.40255 0.0
C534 C 0.41393 0.38837 0.46763 0.0
O535 O 0.36253 0.42444 0.36301 0.0
O536 O 0.3869 0.41634 0.33496 0.0
C537 C 0.47758 0.3948 0.42631 0.0
O538 O 0.47058 0.41024 0.44313 0.0
O539 O 0.40158 0.40023 0.45382 0.0
O540 O 0.68115 0.6105 0.40124 0.0
Tb541 Tb 0.69972 0.64148 0.3842 0.0
C542 C 0.6625 0.68625 0.38206 0.0
O543 O 0.71996 0.68116 0.36689 0.0
Tb544 Tb 0.70949 0.71864 0.367 0.0
C545 C 0.70186 0.74012 0.32845 0.0
O546 O 0.73057 0.64365 0.35997 0.0
O547 O 0.73657 0.73968 0.38503 0.0
C548 C 0.73879 0.76385 0.38286 0.0
O549 O 0.72287 0.77523 0.37192 0.0
O550 O 0.67131 0.66517 0.3725 0.0
O551 O 0.67526 0.7073 0.38438 0.0
O552 O 0.7132 0.6556 0.41623 0.0
C553 C 0.73445 0.66653 0.35479 0.0
C554 C 0.6889 0.59308 0.38686 0.0
O555 O 0.71667 0.72215 0.33032 0.0
O556 O 0.69096 0.74538 0.34815 0.0
C557 C 0.69807 0.66417 0.43251 0.0
O558 O 0.67555 0.66506 0.42838 0.0
O559 O 0.70213 0.60309 0.37081 0.0
O560 O 0.42244 0.66905 0.45656 0.0
Tb561 Tb 0.43094 0.68465 0.42317 0.0
C562 C 0.4825 0.70092 0.39835 0.0
O563 O 0.41662 0.74251 0.40859 0.0
Tb564 Tb 0.4386 0.72933 0.37919 0.0
C565 C 0.44182 0.76366 0.34748 0.0
O566 O 0.39903 0.70501 0.41454 0.0
O567 O 0.41316 0.70261 0.36608 0.0
C568 C 0.39296 0.71228 0.36108 0.0
O569 O 0.38997 0.73618 0.36509 0.0
O570 O 0.46887 0.68535 0.41054 0.0
O571 O 0.47416 0.71913 0.38698 0.0
O572 O 0.42333 0.64519 0.41524 0.0
C573 C 0.39768 0.72952 0.41482 0.0
C574 C 0.43017 0.68758 0.46886 0.0
O575 O 0.43983 0.7682 0.3694 0.0
O576 O 0.44242 0.73983 0.3435 0.0
C577 C 0.43687 0.63089 0.40126 0.0
O578 O 0.45447 0.64099 0.38911 0.0
O579 O 0.43851 0.70466 0.45536 0.0
O580 O 0.71233 0.38652 0.45976 0.0
Tb581 Tb 0.70106 0.36199 0.43176 0.0
C582 C 0.65161 0.34999 0.41053 0.0
O583 O 0.71604 0.30809 0.40319 0.0
Tb584 Tb 0.6972 0.33183 0.38136 0.0
C585 C 0.6961 0.30716 0.34129 0.0
O586 O 0.73306 0.34018 0.42268 0.0
O587 O 0.72295 0.36188 0.37801 0.0
C588 C 0.74498 0.35606 0.37185 0.0
O589 O 0.75047 0.33254 0.36895 0.0
O590 O 0.66386 0.35059 0.42891 0.0
O591 O 0.66187 0.34614 0.39005 0.0
O592 O 0.69901 0.39682 0.4144 0.0
C593 C 0.73358 0.31696 0.41483 0.0
C594 C 0.70343 0.37308 0.47611 0.0
O595 O 0.68991 0.29814 0.36097 0.0
O596 O 0.70274 0.33016 0.34416 0.0
C597 C 0.68244 0.41242 0.42224 0.0
O598 O 0.66754 0.40533 0.43884 0.0
O599 O 0.69336 0.35338 0.46747 0.0
O600 O 0.44864 0.41885 0.66848 0.0
Tb601 Tb 0.41373 0.41818 0.68615 0.0
C602 C 0.39398 0.47102 0.69815 0.0
O603 O 0.41412 0.41366 0.74196 0.0
Tb604 Tb 0.38342 0.4341 0.73445 0.0
C605 C 0.35555 0.44419 0.77152 0.0
O606 O 0.41239 0.38802 0.71041 0.0
O607 O 0.36718 0.40561 0.71336 0.0
C608 C 0.36037 0.38526 0.72356 0.0
O609 O 0.36264 0.38427 0.74558 0.0
O610 O 0.39279 0.45182 0.68375 0.0
O611 O 0.3957 0.46779 0.7198 0.0
O612 O 0.40572 0.40147 0.65298 0.0
C613 C 0.41815 0.39203 0.73169 0.0
C614 C 0.45879 0.43265 0.68371 0.0
O615 O 0.37758 0.43759 0.77139 0.0
O616 O 0.34917 0.44491 0.75072 0.0
C617 C 0.40292 0.41633 0.63612 0.0
O618 O 0.40419 0.44037 0.64017 0.0
O619 O 0.4435 0.43847 0.70043 0.0
O620 O 0.80176 0.666 0.71802 0.0
Tb621 Tb 0.78273 0.68484 0.69305 0.0
C622 C 0.73114 0.7089 0.68527 0.0
O623 O 0.75485 0.66109 0.65063 0.0
Tb624 Tb 0.71863 0.67376 0.6476 0.0
C625 C 0.68049 0.64457 0.65467 0.0
O626 O 0.7786 0.64796 0.67716 0.0
O627 O 0.7187 0.68758 0.61324 0.0
C628 C 0.73291 0.6772 0.59708 0.0
O629 O 0.74817 0.66081 0.60281 0.0
O630 O 0.74916 0.69437 0.68017 0.0
O631 O 0.71389 0.70585 0.67142 0.0
O632 O 0.80906 0.70988 0.67821 0.0
C633 C 0.76176 0.64308 0.66303 0.0
C634 C 0.79179 0.67743 0.7359 0.0
O635 O 0.6938 0.65348 0.67036 0.0
O636 O 0.68973 0.65093 0.63496 0.0
C637 C 0.803 0.72806 0.66566 0.0
O638 O 0.78131 0.72855 0.65893 0.0
O639 O 0.77616 0.69304 0.72969 0.0
H640 H 0.22013 0.34054 0.20744 0.0
H641 H 0.17183 0.30314 0.33284 0.0
H642 H 0.17563 0.38852 0.25156 0.0
H643 H 0.21584 0.25689 0.28675 0.0
H644 H 0.17167 0.33436 0.30344 0.0
H645 H 0.21748 0.30944 0.23633 0.0
C646 C 0.20969 0.34455 0.22317 0.0
C647 C 0.19808 0.36727 0.22699 0.0
C648 C 0.18128 0.31733 0.29977 0.0
C649 C 0.19504 0.33149 0.26047 0.0
C650 C 0.18133 0.29952 0.31652 0.0
C651 C 0.19388 0.27744 0.31221 0.0
C652 C 0.19387 0.31293 0.27863 0.0
C653 C 0.20595 0.27367 0.29082 0.0
C654 C 0.20819 0.32671 0.23974 0.0
C655 C 0.18484 0.37127 0.24782 0.0
N656 N 0.20567 0.2912 0.27492 0.0
N657 N 0.18374 0.3536 0.2638 0.0
H658 H 0.78487 0.14702 0.2624 0.0
H659 H 0.9109 0.17363 0.31407 0.0
H660 H 0.84849 0.16163 0.22049 0.0
H661 H 0.84392 0.19147 0.34947 0.0
H662 H 0.88952 0.15643 0.28174 0.0
H663 H 0.80792 0.15053 0.29625 0.0
C664 C 0.80379 0.15047 0.26028 0.0
C665 C 0.81477 0.15426 0.23864 0.0
C666 C 0.87956 0.1636 0.29682 0.0
C667 C 0.84122 0.15824 0.2773 0.0
C668 C 0.8917 0.17314 0.31534 0.0
C669 C 0.87909 0.18393 0.33441 0.0
C670 C 0.85468 0.16451 0.29766 0.0
C671 C 0.85426 0.18331 0.33504 0.0
C672 C 0.8169 0.15257 0.27961 0.0
C673 C 0.83933 0.15872 0.2369 0.0
N674 N 0.84287 0.17389 0.31691 0.0
N675 N 0.85174 0.16076 0.25601 0.0
H676 H 0.88691 0.8016 0.34957 0.0
H677 H 0.92731 0.77434 0.22313 0.0
H678 H 0.94 0.84852 0.3167 0.0
H679 H 0.92166 0.7131 0.26808 0.0
H680 H 0.92732 0.80316 0.2564 0.0
H681 H 0.89511 0.76934 0.31957 0.0
C682 C 0.90061 0.80487 0.33628 0.0
C683 C 0.91289 0.82765 0.3356 0.0
C684 C 0.92633 0.7834 0.25894 0.0
C685 C 0.92166 0.7914 0.30104 0.0
C686 C 0.92618 0.767 0.24003 0.0
C687 C 0.92454 0.74137 0.24295 0.0
C688 C 0.92404 0.77414 0.2809 0.0
C689 C 0.92312 0.73276 0.26519 0.0
C690 C 0.90526 0.78652 0.31924 0.0
C691 C 0.93032 0.83111 0.31794 0.0
N692 N 0.92246 0.74916 0.2834 0.0
N693 N 0.93383 0.81338 0.30104 0.0
H694 H 0.23875 0.91373 0.35246 0.0
H695 H 0.37398 0.94045 0.31564 0.0
H696 H 0.29845 0.87566 0.37607 0.0
H697 H 0.31562 0.95731 0.27535 0.0
H698 H 0.34577 0.93158 0.34757 0.0
H699 H 0.26624 0.94386 0.3344 0.0
C700 C 0.25758 0.91222 0.35446 0.0
C701 C 0.26654 0.89194 0.36517 0.0
C702 C 0.33917 0.93784 0.33193 0.0
C703 C 0.29776 0.92607 0.34486 0.0
C704 C 0.35524 0.94291 0.31373 0.0
C705 C 0.34699 0.94896 0.29274 0.0
C706 C 0.31476 0.93873 0.32899 0.0
C707 C 0.3226 0.95221 0.29119 0.0
C708 C 0.27321 0.92931 0.34411 0.0
C709 C 0.29098 0.89078 0.36746 0.0
N710 N 0.30724 0.94655 0.30898 0.0
N711 N 0.3058 0.90741 0.35708 0.0
H712 H 0.18101 0.8707 0.75303 0.0
H713 H 0.21247 0.73401 0.78999 0.0
H714 H 0.22641 0.82154 0.71108 0.0
H715 H 0.18044 0.79009 0.83563 0.0
H716 H 0.21367 0.76354 0.75912 0.0
H717 H 0.17673 0.83925 0.78167 0.0
C718 C 0.19002 0.85325 0.74975 0.0
C719 C 0.20417 0.84889 0.72954 0.0
C720 C 0.20622 0.76929 0.77585 0.0
C721 C 0.19925 0.81252 0.76251 0.0
C722 C 0.20539 0.7524 0.79342 0.0
C723 C 0.1963 0.75962 0.81538 0.0
C724 C 0.19772 0.79348 0.78028 0.0
C725 C 0.18759 0.78375 0.81896 0.0
C726 C 0.18759 0.83526 0.76619 0.0
C727 C 0.21538 0.82581 0.72639 0.0
N728 N 0.18852 0.79976 0.80165 0.0
N729 N 0.2127 0.80852 0.74267 0.0
H730 H 0.31808 0.14328 0.74996 0.0
H731 H 0.34541 0.2275 0.85917 0.0
H732 H 0.27602 0.20575 0.77487 0.0
H733 H 0.39186 0.17031 0.83026 0.0
H734 H 0.31493 0.21296 0.83418 0.0
H735 H 0.33991 0.14633 0.78446 0.0
C736 C 0.31313 0.15736 0.76294 0.0
C737 C 0.29547 0.17454 0.75948 0.0
C738 C 0.33161 0.20329 0.8335 0.0
C739 C 0.32057 0.1783 0.79887 0.0
C740 C 0.34903 0.21155 0.84779 0.0
C741 C 0.37134 0.20035 0.84642 0.0
C742 C 0.33659 0.18383 0.81751 0.0
C743 C 0.37495 0.17956 0.8317 0.0
C744 C 0.32565 0.15912 0.78261 0.0
C745 C 0.28964 0.19226 0.77685 0.0
N746 N 0.35788 0.17222 0.81747 0.0
N747 N 0.30243 0.19393 0.79569 0.0
H748 H 0.94221 0.34373 0.81467 0.0
H749 H 0.89307 0.22275 0.74838 0.0
H750 H 0.87282 0.31121 0.82822 0.0
H751 H 0.95846 0.26009 0.72751 0.0
H752 H 0.88796 0.25216 0.78075 0.0
H753 H 0.95106 0.31037 0.78592 0.0
C754 C 0.92896 0.32943 0.81181 0.0
C755 C 0.90666 0.33039 0.82371 0.0
C756 C 0.90351 0.25388 0.76919 0.0
C757 C 0.91661 0.29228 0.79086 0.0
C758 C 0.90648 0.23702 0.75067 0.0
C759 C 0.92619 0.23897 0.73507 0.0
C760 C 0.92035 0.27294 0.77227 0.0
C761 C 0.94296 0.2579 0.73904 0.0
C762 C 0.93397 0.31047 0.79533 0.0
C763 C 0.89015 0.31139 0.81928 0.0
N764 N 0.93961 0.27421 0.75718 0.0
N765 N 0.89542 0.29324 0.80319 0.0
H766 H 0.81104 0.95322 0.7722 0.0
H767 H 0.79232 0.88071 0.88313 0.0
H768 H 0.86667 0.93976 0.81682 0.0
H769 H 0.73432 0.90577 0.84622 0.0
H770 H 0.81819 0.9115 0.86483 0.0
H771 H 0.78164 0.94549 0.80345 0.0
C772 C 0.81705 0.94924 0.78876 0.0
C773 C 0.84121 0.94645 0.79187 0.0
C774 C 0.7997 0.91077 0.86105 0.0
C775 C 0.80782 0.93724 0.82751 0.0
C776 C 0.78493 0.89318 0.87153 0.0
C777 C 0.76143 0.89035 0.86563 0.0
C778 C 0.79102 0.92504 0.84403 0.0
C779 C 0.75252 0.90717 0.85089 0.0
C780 C 0.80027 0.94485 0.80662 0.0
C781 C 0.84814 0.94159 0.81365 0.0
N782 N 0.76754 0.92337 0.84002 0.0
N783 N 0.8315 0.93659 0.83053 0.0
H784 H 0.34595 0.16184 0.23962 0.0
H785 H 0.21976 0.19907 0.2997 0.0
H786 H 0.30547 0.22456 0.22213 0.0
H787 H 0.27046 0.15821 0.33468 0.0
H788 H 0.24805 0.20129 0.26695 0.0
H789 H 0.31541 0.15302 0.27023 0.0
C790 C 0.3304 0.17336 0.24188 0.0
C791 C 0.32814 0.19392 0.22834 0.0
C792 C 0.25301 0.19175 0.28174 0.0
C793 C 0.29343 0.18405 0.26308 0.0
C794 C 0.23685 0.19052 0.30056 0.0
C795 C 0.24281 0.1788 0.32024 0.0
C796 C 0.27535 0.18093 0.2823 0.0
C797 C 0.26515 0.16763 0.31997 0.0
C798 C 0.31316 0.1685 0.25945 0.0
C799 C 0.30789 0.20854 0.2322 0.0
N800 N 0.28067 0.16903 0.30131 0.0
N801 N 0.29138 0.20332 0.24914 0.0
H802 H 0.93713 0.24836 0.29366 0.0
H803 H 0.94105 0.392 0.26503 0.0
H804 H 0.93791 0.30862 0.34391 0.0
H805 H 0.92039 0.33522 0.21624 0.0
H806 H 0.94714 0.36033 0.29211 0.0
H807 H 0.93713 0.27866 0.26355 0.0
C808 C 0.93748 0.26797 0.29832 0.0
C809 C 0.93747 0.27608 0.32127 0.0
C810 C 0.94138 0.35469 0.27547 0.0
C811 C 0.93766 0.31066 0.28706 0.0
C812 C 0.93796 0.37279 0.25988 0.0
C813 C 0.92977 0.36633 0.23839 0.0
C814 C 0.93664 0.32975 0.26967 0.0
C815 C 0.92648 0.34105 0.23268 0.0
C816 C 0.93742 0.2852 0.28116 0.0
C817 C 0.93784 0.30161 0.32643 0.0
N818 N 0.92971 0.32364 0.24834 0.0
N819 N 0.93795 0.31797 0.30948 0.0
H820 H 0.81142 0.92071 0.20865 0.0
H821 H 0.8312 0.93065 0.34235 0.0
H822 H 0.75458 0.93054 0.26054 0.0
H823 H 0.88703 0.91539 0.29062 0.0
H824 H 0.80359 0.93563 0.31246 0.0
H825 H 0.83995 0.92395 0.23814 0.0
C826 C 0.80491 0.92387 0.22621 0.0
C827 C 0.78048 0.92516 0.23209 0.0
C828 C 0.82192 0.9314 0.30762 0.0
C829 C 0.81318 0.92868 0.26607 0.0
C830 C 0.83769 0.92861 0.32468 0.0
C831 C 0.86139 0.92251 0.31892 0.0
C832 C 0.8299 0.92804 0.28461 0.0
C833 C 0.86887 0.92005 0.29578 0.0
C834 C 0.82125 0.92563 0.24307 0.0
C835 C 0.7732 0.92931 0.25517 0.0
N836 N 0.85316 0.92268 0.27948 0.0
N837 N 0.78944 0.93072 0.2713 0.0
H838 H 0.1945 0.82981 0.29539 0.0
H839 H 0.27023 0.73034 0.21813 0.0
H840 H 0.24161 0.77782 0.3222 0.0
H841 H 0.20409 0.75802 0.19787 0.0
H842 H 0.26565 0.75562 0.25356 0.0
H843 H 0.20271 0.81066 0.25709 0.0
C844 C 0.20659 0.81442 0.29319 0.0
C845 C 0.21725 0.80523 0.31199 0.0
C846 C 0.25223 0.75635 0.24128 0.0
C847 C 0.22712 0.78371 0.26831 0.0
C848 C 0.25481 0.74184 0.22112 0.0
C849 C 0.23718 0.74141 0.20543 0.0
C850 C 0.23196 0.7709 0.24567 0.0
C851 C 0.21808 0.75768 0.20958 0.0
C852 C 0.21128 0.80354 0.27138 0.0
C853 C 0.23286 0.78533 0.30821 0.0
N854 N 0.21581 0.77156 0.22944 0.0
N855 N 0.23739 0.77532 0.28683 0.0
H856 H 0.2937 0.94011 0.72188 0.0
H857 H 0.32668 0.92719 0.85097 0.0
H858 H 0.24949 0.90272 0.77244 0.0
H859 H 0.37913 0.92966 0.79464 0.0
H860 H 0.29555 0.93222 0.82448 0.0
H861 H 0.32206 0.95056 0.75094 0.0
C862 C 0.28953 0.93499 0.7393 0.0
C863 C 0.26929 0.92061 0.7449 0.0
C864 C 0.31391 0.93209 0.818 0.0
C865 C 0.30148 0.93223 0.77792 0.0
C866 C 0.33167 0.92928 0.83308 0.0
C867 C 0.35545 0.92773 0.82489 0.0
C868 C 0.32001 0.93367 0.79462 0.0
C869 C 0.36096 0.93055 0.80156 0.0
C870 C 0.30581 0.94067 0.75575 0.0
C871 C 0.26491 0.91389 0.76754 0.0
N872 N 0.34333 0.93322 0.78717 0.0
N873 N 0.28095 0.91962 0.78321 0.0
H874 H 0.24753 0.30748 0.80421 0.0
H875 H 0.1841 0.21745 0.71473 0.0
H876 H 0.17846 0.27431 0.81753 0.0
H877 H 0.25928 0.23243 0.70939 0.0
H878 H 0.18083 0.24228 0.75034 0.0
H879 H 0.25142 0.28381 0.7677 0.0
C880 C 0.23316 0.29526 0.7994 0.0
C881 C 0.21262 0.29284 0.81389 0.0
C882 C 0.19808 0.24014 0.74146 0.0
C883 C 0.21688 0.26588 0.77213 0.0
C884 C 0.19995 0.22607 0.72104 0.0
C885 C 0.22206 0.22259 0.70926 0.0
C886 C 0.21844 0.25123 0.7501 0.0
C887 C 0.24198 0.23428 0.71819 0.0
C888 C 0.23543 0.28172 0.77861 0.0
C889 C 0.19459 0.27671 0.80688 0.0
N890 N 0.23972 0.2481 0.7381 0.0
N891 N 0.19709 0.26395 0.78648 0.0
H892 H 0.85101 0.15557 0.73898 0.0
H893 H 0.72591 0.19269 0.80169 0.0
H894 H 0.81099 0.21953 0.72389 0.0
H895 H 0.77652 0.15002 0.83503 0.0
H896 H 0.75397 0.1957 0.76885 0.0
H897 H 0.82092 0.14634 0.76993 0.0
C898 C 0.83566 0.1673 0.74184 0.0
C899 C 0.83342 0.18831 0.72884 0.0
C900 C 0.75898 0.1856 0.7833 0.0
C901 C 0.79917 0.17796 0.76399 0.0
C902 C 0.74294 0.18392 0.80218 0.0
C903 C 0.74892 0.17144 0.82146 0.0
C904 C 0.78124 0.17448 0.78333 0.0
C905 C 0.77118 0.16001 0.82066 0.0
C906 C 0.81867 0.1622 0.75961 0.0
C907 C 0.81342 0.20316 0.7335 0.0
N908 N 0.78658 0.16185 0.80193 0.0
N909 N 0.79714 0.1977 0.75058 0.0
H910 H 0.93554 0.7499 0.80474 0.0
H911 H 0.93628 0.89441 0.77867 0.0
H912 H 0.94016 0.80897 0.85577 0.0
H913 H 0.91773 0.83791 0.72873 0.0
H914 H 0.94241 0.86252 0.80551 0.0
H915 H 0.93316 0.78088 0.77553 0.0
C916 C 0.93623 0.7694 0.80977 0.0
C917 C 0.93807 0.77691 0.83272 0.0
C918 C 0.93708 0.85696 0.78869 0.0
C919 C 0.9354 0.81241 0.7994 0.0
C920 C 0.9336 0.87522 0.77323 0.0
C921 C 0.92626 0.86893 0.75135 0.0
C922 C 0.93326 0.83196 0.78244 0.0
C923 C 0.92337 0.84365 0.74538 0.0
C924 C 0.93479 0.78705 0.79309 0.0
C925 C 0.93876 0.80237 0.8383 0.0
N926 N 0.92675 0.82606 0.7609 0.0
N927 N 0.93745 0.81915 0.82179 0.0
H928 H 0.39235 0.29386 0.17547 0.0
H929 H 0.27603 0.34783 0.12777 0.0
H930 H 0.34134 0.2516 0.13799 0.0
H931 H 0.31995 0.38937 0.17336 0.0
H932 H 0.3064 0.3162 0.1226 0.0
H933 H 0.37231 0.33212 0.16677 0.0
C934 C 0.37721 0.29273 0.16506 0.0
C935 C 0.3681 0.2697 0.15775 0.0
C936 C 0.30963 0.3324 0.13347 0.0
C937 C 0.34535 0.31295 0.14773 0.0
C938 C 0.29232 0.35046 0.13636 0.0
C939 C 0.29541 0.37085 0.15134 0.0
C940 C 0.32995 0.33458 0.14599 0.0
C941 C 0.31689 0.37367 0.16185 0.0
C942 C 0.36581 0.31449 0.16013 0.0
C943 C 0.3486 0.26905 0.14426 0.0
N944 N 0.33323 0.35539 0.15935 0.0
N945 N 0.33773 0.29036 0.13987 0.0
H946 H 0.2517 0.80242 0.86813 0.0
H947 H 0.38052 0.81837 0.9163 0.0
H948 H 0.28093 0.74606 0.90739 0.0
H949 H 0.34131 0.87742 0.88953 0.0
H950 H 0.34518 0.79119 0.91387 0.0
H951 H 0.28468 0.83003 0.87694 0.0
C952 C 0.26486 0.79611 0.87912 0.0
C953 C 0.26334 0.77212 0.8874 0.0
C954 C 0.34436 0.81017 0.9087 0.0
C955 C 0.30203 0.80338 0.89689 0.0
C956 C 0.36456 0.82567 0.91001 0.0
C957 C 0.36406 0.85028 0.90303 0.0
C958 C 0.32359 0.8193 0.90021 0.0
C959 C 0.34277 0.85866 0.89508 0.0
C960 C 0.28385 0.81181 0.88403 0.0
C961 C 0.28119 0.76464 0.90111 0.0
N962 N 0.32362 0.84326 0.89379 0.0
N963 N 0.29999 0.78011 0.90522 0.0
H964 H 0.35294 0.20347 0.91267 0.0
H965 H 0.24807 0.26825 0.90068 0.0
H966 H 0.38677 0.27557 0.91419 0.0
H967 H 0.2854 0.33224 0.92719 0.0
H968 H 0.28428 0.24428 0.90101 0.0
H969 H 0.31433 0.22344 0.9143 0.0
C970 C 0.3523 0.22352 0.9134 0.0
C971 C 0.37338 0.23772 0.91323 0.0
C972 C 0.2846 0.26338 0.90723 0.0
C973 C 0.3287 0.26112 0.91458 0.0
C974 C 0.26377 0.27724 0.90691 0.0
C975 C 0.26336 0.30242 0.91409 0.0
C976 C 0.30552 0.27466 0.91475 0.0
C977 C 0.28459 0.3129 0.92168 0.0
C978 C 0.33009 0.23503 0.91406 0.0
C979 C 0.37116 0.26372 0.9142 0.0
N980 N 0.30468 0.2991 0.92165 0.0
N981 N 0.34938 0.27447 0.91487 0.0
H982 H 0.75649 0.272 0.90142 0.0
H983 H 0.89451 0.31061 0.88754 0.0
H984 H 0.80688 0.23109 0.85718 0.0
H985 H 0.8392 0.36328 0.90513 0.0
H986 H 0.86403 0.27789 0.88338 0.0
H987 H 0.78808 0.30201 0.91038 0.0
C988 C 0.77427 0.26901 0.89395 0.0
C989 C 0.77896 0.24892 0.8785 0.0
C990 C 0.85861 0.29658 0.88838 0.0
C991 C 0.81529 0.2833 0.88871 0.0
C992 C 0.87601 0.31523 0.89089 0.0
C993 C 0.86945 0.33977 0.89675 0.0
C994 C 0.83445 0.30234 0.89224 0.0
C995 C 0.84512 0.34467 0.90055 0.0
C996 C 0.79226 0.28629 0.89892 0.0
C997 C 0.80238 0.24629 0.86914 0.0
N998 N 0.82859 0.3262 0.89834 0.0
N999 N 0.81959 0.26319 0.87438 0.0
H1000 H 0.74796 0.76739 0.89963 0.0
H1001 H 0.85065 0.70138 0.91875 0.0
H1002 H 0.78463 0.83112 0.92753 0.0
H1003 H 0.88478 0.77328 0.92212 0.0
H1004 H 0.81233 0.72165 0.91773 0.0
H1005 H 0.78344 0.74275 0.90265 0.0
C1006 C 0.76336 0.77619 0.90669 0.0
C1007 C 0.76302 0.8015 0.91344 0.0
C1008 C 0.82813 0.73311 0.91851 0.0
C1009 C 0.80421 0.77301 0.91725 0.0
C1010 C 0.85012 0.72144 0.9194 0.0
C1011 C 0.87119 0.73552 0.92049 0.0
C1012 C 0.82699 0.75921 0.91876 0.0
C1013 C 0.86917 0.76152 0.9212 0.0
C1014 C 0.78372 0.76196 0.90857 0.0
C1015 C 0.7838 0.81172 0.92221 0.0
N1016 N 0.84762 0.77241 0.92036 0.0
N1017 N 0.80343 0.79757 0.9237 0.0
H1018 H 0.88831 0.7755 0.13812 0.0
H1019 H 0.7609 0.82287 0.11943 0.0
H1020 H 0.82359 0.73233 0.14476 0.0
H1021 H 0.8219 0.86949 0.13114 0.0
H1022 H 0.78713 0.78788 0.11034 0.0
H1023 H 0.86747 0.80676 0.11842 0.0
C1024 C 0.86977 0.77246 0.13509 0.0
C1025 C 0.8573 0.75191 0.14374 0.0
C1026 C 0.79483 0.80595 0.1142 0.0
C1027 C 0.83355 0.7873 0.12126 0.0
C1028 C 0.77989 0.8259 0.11936 0.0
C1029 C 0.78936 0.84866 0.12695 0.0
C1030 C 0.81918 0.80894 0.11697 0.0
C1031 C 0.81398 0.85192 0.12604 0.0
C1032 C 0.85797 0.79018 0.12372 0.0
C1033 C 0.83357 0.74837 0.13889 0.0
N1034 N 0.82812 0.832 0.12178 0.0
N1035 N 0.82228 0.76622 0.12833 0.0
H1036 H 0.28775 0.77627 0.15337 0.0
H1037 H 0.37043 0.84313 0.23888 0.0
H1038 H 0.3413 0.73826 0.18723 0.0
H1039 H 0.34456 0.88376 0.18409 0.0
H1040 H 0.35821 0.80457 0.22011 0.0
H1041 H 0.30727 0.81593 0.16302 0.0
C1042 C 0.30391 0.77618 0.16229 0.0
C1043 C 0.31268 0.75393 0.16986 0.0
C1044 C 0.35532 0.82185 0.21202 0.0
C1045 C 0.33467 0.79906 0.18124 0.0
C1046 C 0.3621 0.84391 0.22285 0.0
C1047 C 0.35824 0.86665 0.21311 0.0
C1048 C 0.34406 0.82241 0.19149 0.0
C1049 C 0.34772 0.86653 0.19215 0.0
C1050 C 0.31498 0.79882 0.16785 0.0
C1051 C 0.33366 0.75494 0.18139 0.0
N1052 N 0.34058 0.84469 0.18214 0.0
N1053 N 0.34366 0.77713 0.18707 0.0
H1054 H 0.76633 0.26616 0.20873 0.0
H1055 H 0.88283 0.33421 0.19719 0.0
H1056 H 0.81997 0.23672 0.16023 0.0
H1057 H 0.81873 0.37663 0.20221 0.0
H1058 H 0.8608 0.29863 0.18168 0.0
H1059 H 0.78423 0.30738 0.20515 0.0
C1060 C 0.78158 0.26857 0.19692 0.0
C1061 C 0.79188 0.24821 0.18487 0.0
C1062 C 0.8517 0.31595 0.1855 0.0
C1063 C 0.81279 0.29489 0.18122 0.0
C1064 C 0.86421 0.3361 0.19444 0.0
C1065 C 0.85237 0.35802 0.20098 0.0
C1066 C 0.82712 0.31766 0.18401 0.0
C1067 C 0.82829 0.35985 0.19727 0.0
C1068 C 0.79171 0.29206 0.19479 0.0
C1069 C 0.81163 0.25211 0.1698 0.0
N1070 N 0.81621 0.3396 0.18956 0.0
N1071 N 0.82195 0.27499 0.16888 0.0
H1072 H 0.82389 0.64522 0.74972 0.0
H1073 H 0.84252 0.72457 0.86418 0.0
H1074 H 0.77979 0.7063 0.77421 0.0
H1075 H 0.89148 0.66933 0.83597 0.0
H1076 H 0.81439 0.71125 0.83629 0.0
H1077 H 0.84356 0.64729 0.78553 0.0
C1078 C 0.81806 0.65881 0.76284 0.0
C1079 C 0.8004 0.67583 0.75894 0.0
C1080 C 0.8311 0.70173 0.83638 0.0
C1081 C 0.823 0.67845 0.79989 0.0
C1082 C 0.84716 0.70926 0.85235 0.0
C1083 C 0.86953 0.69829 0.8521 0.0
C1084 C 0.83749 0.6832 0.81985 0.0
C1085 C 0.87448 0.67836 0.83665 0.0
C1086 C 0.82934 0.66 0.78326 0.0
C1087 C 0.79343 0.69293 0.77651 0.0
N1088 N 0.85874 0.67173 0.82084 0.0
N1089 N 0.80498 0.69403 0.79613 0.0
H1090 H 0.29335 0.37869 0.88323 0.0
H1091 H 0.30826 0.45402 0.77393 0.0
H1092 H 0.23411 0.40628 0.84961 0.0
H1093 H 0.36581 0.43768 0.81539 0.0
H1094 H 0.28019 0.44646 0.80627 0.0
H1095 H 0.31897 0.40964 0.86486 0.0
C1096 C 0.28567 0.3917 0.87233 0.0
C1097 C 0.26185 0.38953 0.86729 0.0
C1098 C 0.29898 0.44514 0.80852 0.0
C1099 C 0.29108 0.42446 0.84566 0.0
C1100 C 0.31499 0.44941 0.79004 0.0
C1101 C 0.33924 0.44574 0.79193 0.0
C1102 C 0.30738 0.43674 0.82879 0.0
C1103 C 0.34715 0.44015 0.81316 0.0
C1104 C 0.30027 0.40941 0.86184 0.0
C1105 C 0.25256 0.4071 0.85352 0.0
N1106 N 0.3312 0.43527 0.83066 0.0
N1107 N 0.26739 0.42342 0.84258 0.0
H1108 H 0.3459 0.72108 0.36271 0.0
H1109 H 0.32978 0.64673 0.24557 0.0
H1110 H 0.39896 0.67241 0.33076 0.0
H1111 H 0.27767 0.6958 0.2786 0.0
H1112 H 0.35199 0.64912 0.27997 0.0
H1113 H 0.31757 0.70503 0.33614 0.0
C1114 C 0.35143 0.7066 0.35034 0.0
C1115 C 0.37487 0.69826 0.34871 0.0
C1116 C 0.33549 0.65901 0.27987 0.0
C1117 C 0.34264 0.68019 0.31776 0.0
C1118 C 0.32277 0.6576 0.26025 0.0
C1119 C 0.30202 0.67133 0.25919 0.0
C1120 C 0.32745 0.67438 0.29848 0.0
C1121 C 0.29368 0.68506 0.27867 0.0
C1122 C 0.33525 0.69748 0.3351 0.0
C1123 C 0.38105 0.67936 0.33251 0.0
N1124 N 0.30659 0.68651 0.2974 0.0
N1125 N 0.36515 0.67128 0.31732 0.0
H1126 H 0.73697 0.40169 0.35527 0.0
H1127 H 0.87211 0.41428 0.30881 0.0
H1128 H 0.79288 0.35318 0.37153 0.0
H1129 H 0.81343 0.44336 0.27531 0.0
H1130 H 0.8448 0.40317 0.34082 0.0
H1131 H 0.76658 0.428 0.33516 0.0
C1132 C 0.75553 0.39697 0.35514 0.0
C1133 C 0.76254 0.37503 0.36462 0.0
C1134 C 0.83799 0.41245 0.32667 0.0
C1135 C 0.79625 0.40487 0.34185 0.0
C1136 C 0.85355 0.41885 0.30845 0.0
C1137 C 0.84486 0.42933 0.28929 0.0
C1138 C 0.81364 0.41664 0.32568 0.0
C1139 C 0.82072 0.43498 0.28969 0.0
C1140 C 0.77236 0.41189 0.34358 0.0
C1141 C 0.78676 0.36974 0.36404 0.0
N1142 N 0.80584 0.42825 0.30749 0.0
N1143 N 0.80274 0.38439 0.35259 0.0
H1144 H 0.27476 0.71179 0.84485 0.0
H1145 H 0.33925 0.66095 0.72691 0.0
H1146 H 0.24869 0.64694 0.80866 0.0
H1147 H 0.35254 0.73217 0.75993 0.0
H1148 H 0.30823 0.65271 0.75731 0.0
H1149 H 0.30571 0.71666 0.8148 0.0
C1150 C 0.27548 0.69852 0.83056 0.0
C1151 C 0.25884 0.67903 0.82933 0.0
C1152 C 0.31801 0.67011 0.75778 0.0
C1153 C 0.29477 0.68447 0.79444 0.0
C1154 C 0.33573 0.67479 0.74048 0.0
C1155 C 0.34852 0.69734 0.74072 0.0
C1156 C 0.31331 0.68801 0.77552 0.0
C1157 C 0.34316 0.71457 0.75877 0.0
C1158 C 0.29328 0.70131 0.8133 0.0
C1159 C 0.26107 0.66229 0.81035 0.0
N1160 N 0.32614 0.70953 0.77529 0.0
N1161 N 0.27867 0.6654 0.79364 0.0
H1162 H 0.87703 0.43261 0.79396 0.0
H1163 H 0.74426 0.40839 0.77373 0.0
H1164 H 0.82464 0.4294 0.85027 0.0
H1165 H 0.78948 0.44669 0.72459 0.0
H1166 H 0.77259 0.41802 0.80264 0.0
H1167 H 0.8454 0.43961 0.76841 0.0
C1168 C 0.85889 0.4338 0.80098 0.0
C1169 C 0.85335 0.43022 0.82417 0.0
C1170 C 0.77606 0.42494 0.78572 0.0
C1171 C 0.81714 0.43778 0.79509 0.0
C1172 C 0.75986 0.41952 0.76927 0.0
C1173 C 0.76457 0.42688 0.74687 0.0
C1174 C 0.79752 0.43702 0.77948 0.0
C1175 C 0.78515 0.44094 0.74179 0.0
C1176 C 0.84087 0.43789 0.78643 0.0
C1177 C 0.82961 0.43198 0.83245 0.0
N1178 N 0.80121 0.44504 0.75785 0.0
N1179 N 0.81231 0.43514 0.81785 0.0
H1180 H 0.37428 0.43638 0.29624 0.0
H1181 H 0.24359 0.41063 0.26843 0.0
H1182 H 0.31896 0.43242 0.34986 0.0
H1183 H 0.29052 0.45123 0.22245 0.0
H1184 H 0.27026 0.41968 0.29894 0.0
H1185 H 0.34418 0.4429 0.26893 0.0
C1186 C 0.35581 0.4373 0.3023 0.0
C1187 C 0.34902 0.43371 0.32526 0.0
C1188 C 0.27445 0.42719 0.28236 0.0
C1189 C 0.31456 0.44068 0.29416 0.0
C1190 C 0.2592 0.42211 0.265 0.0
C1191 C 0.26486 0.43037 0.24304 0.0
C1192 C 0.29593 0.43986 0.27748 0.0
C1193 C 0.28545 0.44482 0.23928 0.0
C1194 C 0.33867 0.44111 0.28675 0.0
C1195 C 0.3249 0.43507 0.33227 0.0
N1196 N 0.30059 0.44862 0.25622 0.0
N1197 N 0.30847 0.43796 0.3167 0.0
H1198 H 0.75246 0.63673 0.31988 0.0
H1199 H 0.83693 0.7406 0.26218 0.0
H1200 H 0.75764 0.71162 0.34743 0.0
H1201 H 0.83599 0.66403 0.23831 0.0
H1202 H 0.80759 0.73067 0.2928 0.0
H1203 H 0.78226 0.64668 0.28965 0.0
C1204 C 0.75976 0.65539 0.3195 0.0
C1205 C 0.75209 0.6735 0.33606 0.0
C1206 C 0.81379 0.71598 0.28094 0.0
C1207 C 0.78668 0.68506 0.30126 0.0
C1208 C 0.83062 0.72162 0.26334 0.0
C1209 C 0.83906 0.70313 0.24744 0.0
C1210 C 0.80506 0.69162 0.28283 0.0
C1211 C 0.83011 0.67891 0.25008 0.0
C1212 C 0.77686 0.66105 0.30217 0.0
C1213 C 0.76248 0.69725 0.33474 0.0
N1214 N 0.8136 0.67391 0.26732 0.0
N1215 N 0.77915 0.70235 0.31764 0.0
H1216 H 0.36061 0.74759 0.63791 0.0
H1217 H 0.32722 0.88372 0.67817 0.0
H1218 H 0.4027 0.79247 0.68263 0.0
H1219 H 0.28905 0.83827 0.63055 0.0
H1220 H 0.36061 0.85524 0.67283 0.0
H1221 H 0.34041 0.78455 0.62756 0.0
C1222 C 0.36575 0.76541 0.64531 0.0
C1223 C 0.38284 0.76714 0.66147 0.0
C1224 C 0.34517 0.85183 0.66313 0.0
C1225 C 0.35944 0.80943 0.65028 0.0
C1226 C 0.32616 0.86807 0.66616 0.0
C1227 C 0.30528 0.86282 0.6552 0.0
C1228 C 0.34302 0.83031 0.64914 0.0
C1229 C 0.30472 0.84257 0.63969 0.0
C1230 C 0.35429 0.78654 0.63938 0.0
C1231 C 0.38932 0.79054 0.67028 0.0
N1232 N 0.32318 0.8268 0.6374 0.0
N1233 N 0.37715 0.81085 0.665 0.0
H1234 H 0.33102 0.3712 0.40782 0.0
H1235 H 0.30042 0.23651 0.3584 0.0
H1236 H 0.38529 0.31656 0.39368 0.0
H1237 H 0.24929 0.27954 0.39987 0.0
H1238 H 0.33161 0.26597 0.36916 0.0
H1239 H 0.30073 0.33883 0.40287 0.0
C1240 C 0.33659 0.35233 0.40384 0.0
C1241 C 0.3608 0.34663 0.40129 0.0
C1242 C 0.31364 0.2688 0.37617 0.0
C1243 C 0.32602 0.30938 0.39513 0.0
C1244 C 0.29578 0.25197 0.37004 0.0
C1245 C 0.27212 0.25544 0.37829 0.0
C1246 C 0.30783 0.28971 0.39025 0.0
C1247 C 0.26725 0.27594 0.39323 0.0
C1248 C 0.31924 0.33383 0.40107 0.0
C1249 C 0.36688 0.3218 0.39605 0.0
N1250 N 0.28484 0.29246 0.39844 0.0
N1251 N 0.34964 0.30419 0.39285 0.0
H1252 H 0.28842 0.84277 0.42537 0.0
H1253 H 0.35219 0.7098 0.41191 0.0
H1254 H 0.25226 0.77624 0.40271 0.0
H1255 H 0.38944 0.7793 0.42173 0.0
H1256 H 0.31477 0.73261 0.41207 0.0
H1257 H 0.32454 0.81886 0.4277 0.0
C1258 C 0.28792 0.8231 0.42104 0.0
C1259 C 0.26699 0.81167 0.41384 0.0
C1260 C 0.33112 0.74284 0.41435 0.0
C1261 C 0.30884 0.78384 0.41649 0.0
C1262 C 0.35254 0.72978 0.41442 0.0
C1263 C 0.3742 0.74252 0.41688 0.0
C1264 C 0.33117 0.76892 0.41704 0.0
C1265 C 0.37334 0.76854 0.41975 0.0
C1266 C 0.30871 0.8094 0.4223 0.0
C1267 C 0.26783 0.786 0.40835 0.0
N1268 N 0.35236 0.78074 0.41977 0.0
N1269 N 0.28827 0.77304 0.4098 0.0
H1270 H 0.78169 0.74632 0.39556 0.0
H1271 H 0.8386 0.88337 0.40333 0.0
H1272 H 0.74439 0.81402 0.38672 0.0
H1273 H 0.88067 0.81814 0.40878 0.0
H1274 H 0.8035 0.85733 0.40065 0.0
H1275 H 0.81735 0.77114 0.40376 0.0
C1276 C 0.78086 0.76635 0.39564 0.0
C1277 C 0.75994 0.77806 0.39037 0.0
C1278 C 0.8203 0.84854 0.40254 0.0
C1279 C 0.80069 0.80652 0.39961 0.0
C1280 C 0.84049 0.86349 0.40411 0.0
C1281 C 0.86279 0.85302 0.40621 0.0
C1282 C 0.8221 0.82265 0.40293 0.0
C1283 C 0.86387 0.82706 0.40725 0.0
C1284 C 0.80127 0.78049 0.4002 0.0
C1285 C 0.76004 0.80408 0.39055 0.0
N1286 N 0.84384 0.81273 0.40543 0.0
N1287 N 0.77999 0.8173 0.39499 0.0
H1288 H 0.77678 0.33273 0.4293 0.0
H1289 H 0.84444 0.20312 0.40461 0.0
H1290 H 0.74166 0.26749 0.40238 0.0
H1291 H 0.87959 0.27354 0.41601 0.0
H1292 H 0.80602 0.22448 0.40781 0.0
H1293 H 0.81362 0.30961 0.42871 0.0
C1294 C 0.77667 0.31346 0.42345 0.0
C1295 C 0.75582 0.30219 0.41591 0.0
C1296 C 0.82216 0.2352 0.40972 0.0
C1297 C 0.79853 0.27528 0.41516 0.0
C1298 C 0.84413 0.22297 0.40805 0.0
C1299 C 0.86545 0.23645 0.41006 0.0
C1300 C 0.82139 0.26111 0.41375 0.0
C1301 C 0.86377 0.26226 0.41426 0.0
C1302 C 0.79787 0.30024 0.42302 0.0
C1303 C 0.75716 0.27708 0.40837 0.0
N1304 N 0.84231 0.2736 0.41599 0.0
N1305 N 0.77804 0.26453 0.40821 0.0
H1306 H 0.89388 0.28927 0.67656 0.0
H1307 H 0.77636 0.34353 0.6311 0.0
H1308 H 0.84269 0.24748 0.63892 0.0
H1309 H 0.81933 0.38369 0.67846 0.0
H1310 H 0.80713 0.31239 0.62515 0.0
H1311 H 0.87299 0.32755 0.66943 0.0
C1312 C 0.87853 0.28827 0.66645 0.0
C1313 C 0.86965 0.26534 0.65862 0.0
C1314 C 0.81006 0.32819 0.63659 0.0
C1315 C 0.84595 0.3086 0.65034 0.0
C1316 C 0.79253 0.34597 0.63993 0.0
C1317 C 0.79524 0.36582 0.65559 0.0
C1318 C 0.83023 0.33009 0.64933 0.0
C1319 C 0.81657 0.36841 0.66641 0.0
C1320 C 0.86663 0.31003 0.66241 0.0
C1321 C 0.84982 0.26484 0.64555 0.0
N1322 N 0.83315 0.35041 0.66343 0.0
N1323 N 0.83851 0.28613 0.642 0.0
H1324 H 0.34435 0.38137 0.68033 0.0
H1325 H 0.28465 0.27123 0.64912 0.0
H1326 H 0.3611 0.3378 0.73693 0.0
H1327 H 0.33717 0.23531 0.68607 0.0
H1328 H 0.30345 0.31125 0.65788 0.0
H1329 H 0.33198 0.34311 0.65996 0.0
C1330 C 0.34536 0.36379 0.68845 0.0
C1331 C 0.35325 0.36276 0.71052 0.0
C1332 C 0.31131 0.29456 0.66344 0.0
C1333 C 0.3394 0.31921 0.68745 0.0
C1334 C 0.30053 0.27165 0.6585 0.0
C1335 C 0.3091 0.24988 0.66718 0.0
C1336 C 0.33066 0.29561 0.67729 0.0
C1337 C 0.32974 0.25159 0.67924 0.0
C1338 C 0.33824 0.34203 0.67688 0.0
C1339 C 0.35463 0.33953 0.72015 0.0
N1340 N 0.33946 0.2741 0.68436 0.0
N1341 N 0.34781 0.31872 0.70855 0.0
H1342 H 0.84583 0.88217 0.68203 0.0
H1343 H 0.84726 0.73444 0.68112 0.0
H1344 H 0.86831 0.83855 0.73641 0.0
H1345 H 0.79267 0.77354 0.64963 0.0
H1346 H 0.86624 0.77404 0.69053 0.0
H1347 H 0.83595 0.84345 0.66074 0.0
C1348 C 0.84879 0.86448 0.68937 0.0
C1349 C 0.85743 0.86342 0.71112 0.0
C1350 C 0.85037 0.77387 0.68114 0.0
C1351 C 0.84717 0.81964 0.68677 0.0
C1352 C 0.83955 0.75129 0.67566 0.0
C1353 C 0.81795 0.75073 0.66516 0.0
C1354 C 0.8396 0.796 0.67598 0.0
C1355 C 0.80908 0.77317 0.65813 0.0
C1356 C 0.84327 0.84255 0.67725 0.0
C1357 C 0.86123 0.84016 0.71988 0.0
N1358 N 0.81972 0.79504 0.66406 0.0
N1359 N 0.85612 0.81921 0.70765 0.0
H1360 H 0.67689 0.2949 0.83761 0.0
H1361 H 0.72024 0.3329 0.71127 0.0
H1362 H 0.71857 0.24856 0.78954 0.0
H1363 H 0.67648 0.38015 0.75684 0.0
H1364 H 0.71848 0.30146 0.7398 0.0
H1365 H 0.67514 0.32609 0.80839 0.0
C1366 C 0.68553 0.29127 0.82089 0.0
C1367 C 0.69794 0.26922 0.81595 0.0
C1368 C 0.70915 0.31864 0.7436 0.0
C1369 C 0.69611 0.30459 0.78262 0.0
C1370 C 0.71014 0.33666 0.72725 0.0
C1371 C 0.69851 0.35927 0.73163 0.0
C1372 C 0.69651 0.32318 0.76463 0.0
C1373 C 0.6857 0.36298 0.75271 0.0
C1374 C 0.68456 0.30903 0.80425 0.0
C1375 C 0.70886 0.26536 0.79408 0.0
N1376 N 0.68513 0.34516 0.76848 0.0
N1377 N 0.70775 0.28286 0.7783 0.0
H1378 H 0.46807 0.85711 0.80264 0.0
H1379 H 0.41021 0.73023 0.756 0.0
H1380 H 0.40693 0.82226 0.83616 0.0
H1381 H 0.47503 0.76241 0.72691 0.0
H1382 H 0.40947 0.76251 0.78644 0.0
H1383 H 0.47187 0.82138 0.776 0.0
C1384 C 0.45555 0.84183 0.80456 0.0
C1385 C 0.43708 0.84281 0.82165 0.0
C1386 C 0.42395 0.7624 0.77349 0.0
C1387 C 0.44117 0.80175 0.79088 0.0
C1388 C 0.42438 0.74395 0.75606 0.0
C1389 C 0.44266 0.7436 0.73872 0.0
C1390 C 0.44186 0.78075 0.7736 0.0
C1391 C 0.46055 0.76189 0.73983 0.0
C1392 C 0.45772 0.8214 0.78928 0.0
C1393 C 0.42145 0.82235 0.82328 0.0
N1394 N 0.45962 0.77974 0.75682 0.0
N1395 N 0.42372 0.80279 0.80797 0.0
H1396 H 0.67167 0.77771 0.32292 0.0
H1397 H 0.74243 0.82497 0.21037 0.0
H1398 H 0.73075 0.73853 0.28932 0.0
H1399 H 0.68441 0.86397 0.24632 0.0
H1400 H 0.73726 0.7918 0.23749 0.0
H1401 H 0.67422 0.80759 0.29283 0.0
C1402 C 0.68497 0.77522 0.30898 0.0
C1403 C 0.70106 0.75572 0.30857 0.0
C1404 C 0.72566 0.80762 0.23938 0.0
C1405 C 0.70441 0.7901 0.27425 0.0
C1406 C 0.72864 0.82662 0.22395 0.0
C1407 C 0.71389 0.8474 0.22607 0.0
C1408 C 0.70779 0.80939 0.25703 0.0
C1409 C 0.69628 0.84842 0.24399 0.0
C1410 C 0.68652 0.79236 0.29186 0.0
C1411 C 0.71799 0.75334 0.29018 0.0
N1412 N 0.69376 0.82973 0.25873 0.0
N1413 N 0.71937 0.7705 0.27381 0.0
H1414 H 0.4351 0.34462 0.32303 0.0
H1415 H 0.38471 0.22822 0.25115 0.0
H1416 H 0.36347 0.31632 0.33206 0.0
H1417 H 0.45213 0.26399 0.23491 0.0
H1418 H 0.37893 0.25637 0.28458 0.0
H1419 H 0.44396 0.31107 0.29464 0.0
C1420 C 0.42133 0.33118 0.31927 0.0
C1421 C 0.39844 0.33345 0.32973 0.0
C1422 C 0.39507 0.25792 0.2738 0.0
C1423 C 0.4084 0.2951 0.29721 0.0
C1424 C 0.39842 0.2418 0.25472 0.0
C1425 C 0.41887 0.24383 0.24007 0.0
C1426 C 0.41233 0.27618 0.27834 0.0
C1427 C 0.43601 0.26183 0.24561 0.0
C1428 C 0.42636 0.3121 0.30298 0.0
C1429 C 0.38129 0.31547 0.3242 0.0
N1430 N 0.43231 0.27736 0.26421 0.0
N1431 N 0.38657 0.29718 0.30824 0.0
H1432 H 0.43658 0.25226 0.79743 0.0
H1433 H 0.43839 0.39696 0.77224 0.0
H1434 H 0.44532 0.31081 0.84828 0.0
H1435 H 0.41493 0.34114 0.72387 0.0
H1436 H 0.44641 0.36468 0.7982 0.0
H1437 H 0.43353 0.28353 0.76862 0.0
C1438 C 0.43806 0.27171 0.80248 0.0
C1439 C 0.4412 0.27901 0.82527 0.0
C1440 C 0.43964 0.35937 0.78189 0.0
C1441 C 0.43777 0.3148 0.79244 0.0
C1442 C 0.43508 0.37783 0.76696 0.0
C1443 C 0.42578 0.37181 0.74584 0.0
C1444 C 0.4349 0.33449 0.77583 0.0
C1445 C 0.42214 0.34663 0.73994 0.0
C1446 C 0.43625 0.28952 0.78605 0.0
C1447 C 0.44289 0.30439 0.83091 0.0
N1448 N 0.42654 0.32887 0.75495 0.0
N1449 N 0.44115 0.32134 0.81463 0.0
H1450 H 0.75039 0.80829 0.8032 0.0
H1451 H 0.69035 0.72088 0.70951 0.0
H1452 H 0.68055 0.77581 0.81318 0.0
H1453 H 0.76577 0.73408 0.70824 0.0
H1454 H 0.6856 0.74549 0.74519 0.0
H1455 H 0.75561 0.78531 0.76644 0.0
C1456 C 0.73612 0.79637 0.79761 0.0
C1457 C 0.71499 0.79392 0.81123 0.0
C1458 C 0.70322 0.74302 0.73717 0.0
C1459 C 0.72077 0.76777 0.76917 0.0
C1460 C 0.70594 0.7291 0.71672 0.0
C1461 C 0.72855 0.72515 0.7061 0.0
C1462 C 0.72322 0.75347 0.747 0.0
C1463 C 0.7481 0.73628 0.71615 0.0
C1464 C 0.73915 0.78323 0.77667 0.0
C1465 C 0.69712 0.7782 0.80322 0.0
N1466 N 0.745 0.74996 0.73608 0.0
N1467 N 0.70038 0.76582 0.78269 0.0
H1468 H 0.70858 0.32378 0.29882 0.0
H1469 H 0.71862 0.18735 0.24325 0.0
H1470 H 0.68713 0.25789 0.33421 0.0
H1471 H 0.72236 0.25212 0.20243 0.0
H1472 H 0.70734 0.21341 0.27667 0.0
H1473 H 0.71393 0.29861 0.26325 0.0
C1474 C 0.70479 0.30405 0.29903 0.0
C1475 C 0.69751 0.29281 0.31943 0.0
C1476 C 0.71044 0.22199 0.26042 0.0
C1477 C 0.70376 0.264 0.27904 0.0
C1478 C 0.71696 0.20711 0.24129 0.0
C1479 C 0.72163 0.21761 0.22003 0.0
C1480 C 0.70883 0.24772 0.25846 0.0
C1481 C 0.71897 0.2433 0.21853 0.0
C1482 C 0.70781 0.28973 0.27876 0.0
C1483 C 0.69283 0.26725 0.31885 0.0
N1484 N 0.71301 0.25756 0.23758 0.0
N1485 N 0.69623 0.25368 0.29903 0.0
H1486 H 0.42017 0.84303 0.22436 0.0
H1487 H 0.4437 0.81399 0.35354 0.0
H1488 H 0.43879 0.89816 0.27551 0.0
H1489 H 0.43868 0.75611 0.30142 0.0
H1490 H 0.44116 0.84492 0.32463 0.0
H1491 H 0.42643 0.81053 0.25153 0.0
C1492 C 0.42583 0.8483 0.24113 0.0
C1493 C 0.42882 0.87341 0.24764 0.0
C1494 C 0.44074 0.82547 0.3194 0.0
C1495 C 0.43577 0.83646 0.27881 0.0
C1496 C 0.44219 0.80781 0.33596 0.0
C1497 C 0.44145 0.78249 0.32986 0.0
C1498 C 0.43828 0.81782 0.29653 0.0
C1499 C 0.4394 0.77551 0.3068 0.0
C1500 C 0.42932 0.82976 0.25665 0.0
C1501 C 0.43603 0.87913 0.26968 0.0
N1502 N 0.43774 0.79306 0.29097 0.0
N1503 N 0.4391 0.8609 0.2844 0.0
H1504 H 0.24101 0.95583 0.40549 0.0
H1505 H 0.16918 0.07681 0.37681 0.0
H1506 H 0.1649 0.95774 0.40428 0.0
H1507 H 0.23805 0.08191 0.40421 0.0
H1508 H 0.16967 1.03169 0.38014 0.0
H1509 H 0.24268 1.00054 0.39813 0.0
C1510 C 0.22472 0.96552 0.40336 0.0
C1511 C 0.20277 0.95301 0.40565 0.0
C1512 C 0.18472 1.04265 0.38538 0.0
C1513 C 0.20455 1.00401 0.39713 0.0
C1514 C 0.18445 0.06842 0.38346 0.0
C1515 C 0.20352 0.08318 0.39038 0.0
C1516 C 0.20438 1.03137 0.39397 0.0
C1517 C 0.22289 0.07124 0.39882 0.0
C1518 C 0.22566 0.99105 0.39933 0.0
C1519 C 0.18221 0.96659 0.40283 0.0
N1520 N 0.22287 0.04605 0.40032 0.0
N1521 N 0.18361 0.99121 0.39871 0.0
H1522 H 1.00902 0.23738 0.38234 0.0
H1523 H 0.12506 0.15482 0.38914 0.0
H1524 H 1.00493 0.16216 0.40463 0.0
H1525 H 0.12673 0.2338 0.38035 0.0
H1526 H 0.08158 0.15608 0.3935 0.0
H1527 H 1.05205 0.23527 0.38013 0.0
C1528 C 1.01709 0.22032 0.38681 0.0
C1529 C 1.00297 0.19988 0.39366 0.0
C1530 C 0.09148 0.17313 0.39069 0.0
C1531 C 1.05308 0.19736 0.391 0.0
C1532 C 0.11639 0.17245 0.38813 0.0
C1533 C 0.12987 0.19424 0.3843 0.0
C1534 C 0.07972 0.19573 0.38919 0.0
C1535 C 0.11736 0.21648 0.3833 0.0
C1536 C 1.04185 0.21919 0.38557 0.0
C1537 C 1.01489 0.17844 0.3993 0.0
N1538 N 0.09319 0.21659 0.38558 0.0
N1539 N 1.03916 0.17769 0.39772 0.0
H1540 H 0.91546 0.09999 0.38372 0.0
H1541 H 0.94561 0.96967 0.43514 0.0
H1542 H 0.95773 0.09316 0.44159 0.0
H1543 H 0.92419 0.97566 0.36653 0.0
H1544 H 0.94705 1.01499 0.43915 0.0
H1545 H 0.91507 0.05449 0.37846 0.0
C1546 C 0.9246 0.08899 0.39532 0.0
C1547 C 0.93667 0.1005 0.41309 0.0
C1548 C 0.94215 1.00638 0.42316 0.0
C1549 C 0.93614 0.04847 0.40731 0.0
C1550 C 0.94134 0.98046 0.42086 0.0
C1551 C 0.93488 0.96869 0.40043 0.0
C1552 C 0.93609 1.0208 0.40506 0.0
C1553 C 0.92947 0.98381 0.38255 0.0
C1554 C 0.92446 0.06303 0.39226 0.0
C1555 C 0.94826 0.08522 0.42758 0.0
N1556 N 0.93002 1.009 0.38534 0.0
N1557 N 0.94759 0.06013 0.42445 0.0
H1558 H 1.00762 0.8576 0.39285 0.0
H1559 H 0.13742 0.88583 0.43762 0.0
H1560 H 1.02335 0.91176 0.44579 0.0
H1561 H 0.12656 0.83538 0.3804 0.0
H1562 H 0.0951 0.89362 0.44125 0.0
H1563 H 1.05019 0.84775 0.38811 0.0
C1564 C 1.01992 0.86747 0.40342 0.0
C1565 C 1.01167 0.88559 0.41976 0.0
C1566 C 0.10184 0.88078 0.42789 0.0
C1567 C 1.06049 0.87425 0.41453 0.0
C1568 C 0.12619 0.87621 0.42582 0.0
C1569 C 0.13592 0.85985 0.40864 0.0
C1570 C 0.08663 0.86897 0.41272 0.0
C1571 C 0.12005 0.8481 0.39395 0.0
C1572 C 1.04425 0.8618 0.40072 0.0
C1573 C 1.02861 0.89767 0.43296 0.0
N1574 N 0.09628 0.8529 0.3963 0.0
N1575 N 1.05196 0.89178 0.43009 0.0
H1576 H 0.26115 0.10448 0.69684 0.0
H1577 H 0.18157 0.99782 0.64073 0.0
H1578 H 0.22009 0.11671 0.63906 0.0
H1579 H 0.22777 0.98681 0.69497 0.0
H1580 H 0.19424 1.04136 0.64005 0.0
H1581 H 0.24735 0.0618 0.69696 0.0
C1582 C 0.24914 0.09823 0.68412 0.0
C1583 C 0.24192 0.11429 0.66775 0.0
C1584 C 0.20163 1.0294 0.65204 0.0
C1585 C 0.22596 0.06489 0.66782 0.0
C1586 C 0.19445 1.00451 0.65245 0.0
C1587 C 0.20361 0.98861 0.66798 0.0
C1588 C 0.21804 1.03849 0.66733 0.0
C1589 C 0.22023 0.99834 0.68271 0.0
C1590 C 0.24127 0.07371 0.68421 0.0
C1591 C 0.22614 0.10501 0.65193 0.0
N1592 N 0.22684 1.02262 0.68206 0.0
N1593 N 0.21873 0.08084 0.65229 0.0
H1594 H 1.02993 0.17956 0.63542 0.0
H1595 H 0.14252 0.14308 0.69887 0.0
H1596 H 1.02485 0.1623 0.70646 0.0
H1597 H 0.13869 0.13483 0.62603 0.0
H1598 H 0.09946 0.14836 0.70273 0.0
H1599 H 0.07019 0.16333 0.63203 0.0
C1600 C 1.03736 0.1724 0.65032 0.0
C1601 C 1.02421 0.17243 0.67128 0.0
C1602 C 0.10798 0.14484 0.68596 0.0
C1603 C 0.07019 0.15376 0.66757 0.0
C1604 C 0.13253 0.14161 0.68376 0.0
C1605 C 0.14418 0.13878 0.66209 0.0
C1606 C 0.0952 0.14561 0.6663 0.0
C1607 C 0.13042 0.13714 0.64306 0.0
C1608 C 1.06024 0.16292 0.64835 0.0
C1609 C 1.03453 0.16272 0.69002 0.0
N1610 N 0.10672 0.1411 0.64557 0.0
N1611 N 1.05704 0.15399 0.68779 0.0
H1612 H 0.90738 0.12665 0.69864 0.0
H1613 H 0.91291 0.98414 0.65612 0.0
H1614 H 0.94506 0.10077 0.63634 0.0
H1615 H 0.88676 1.00996 0.7232 0.0
H1616 H 0.91715 1.02737 0.64495 0.0
H1617 H 0.89215 0.08456 0.70419 0.0
C1618 C 0.91228 0.11217 0.68603 0.0
C1619 C 0.92785 0.1171 0.66723 0.0
C1620 C 0.91019 1.02349 0.66202 0.0
C1621 C 0.91054 0.06896 0.67346 0.0
C1622 C 0.90768 0.99884 0.66834 0.0
C1623 C 0.8999 0.99351 0.69071 0.0
C1624 C 0.90468 1.04277 0.67817 0.0
C1625 C 0.89328 1.01326 0.70588 0.0
C1626 C 0.90358 0.08815 0.68919 0.0
C1627 C 0.93338 0.0977 0.65128 0.0
N1628 N 0.89602 1.03699 0.6994 0.0
N1629 N 0.92492 0.07441 0.65487 0.0
H1630 H 0.99107 0.94966 0.71886 0.0
H1631 H 0.11036 0.89201 0.6624 0.0
H1632 H 0.99659 0.90824 0.6546 0.0
H1633 H 0.11116 0.94866 0.71614 0.0
H1634 H 0.06797 0.89734 0.66069 0.0
H1635 H 1.03458 0.95014 0.71921 0.0
C1636 C 1.00148 0.94101 0.70472 0.0
C1637 C 0.99041 0.92868 0.68679 0.0
C1638 C 0.07732 0.90874 0.67283 0.0
C1639 C 1.03963 0.9289 0.68717 0.0
C1640 C 0.10152 0.90558 0.67389 0.0
C1641 C 0.11413 0.91987 0.68948 0.0
C1642 C 1.06553 0.92617 0.68763 0.0
C1643 C 0.10191 0.93728 0.70392 0.0
C1644 C 1.0262 0.94124 0.70494 0.0
C1645 C 1.00449 0.91774 0.66886 0.0
N1646 N 0.07811 0.93988 0.70276 0.0
N1647 N 1.02835 0.91792 0.66961 0.0
H1648 H 0.39495 0.1637 0.11008 0.0
H1649 H 0.44772 0.22018 0.99285 0.0
H1650 H 0.44782 0.22213 0.10505 0.0
H1651 H 0.40476 0.15351 0.99447 0.0
H1652 H 0.44534 0.22239 1.03445 0.0
H1653 H 0.39581 0.16056 0.06814 0.0
C1654 C 0.40669 0.17583 0.10024 0.0
C1655 C 0.42133 0.19317 0.1112 0.0
C1656 C 0.43641 0.20723 1.02578 0.0
C1657 C 0.42231 0.18981 0.06338 0.0
C1658 C 0.43775 0.20601 1.002 0.0
C1659 C 0.42648 0.18662 0.99023 0.0
C1660 C 0.42358 0.18897 1.03799 0.0
C1661 C 0.41376 0.16876 1.00295 0.0
C1662 C 0.4072 0.17402 0.07633 0.0
C1663 C 0.43621 0.20841 0.09753 0.0
N1664 N 0.41262 0.17035 1.02616 0.0
N1665 N 0.43625 0.2064 0.0745 0.0
H1666 H 0.88142 0.39841 0.98696 0.0
H1667 H 0.93083 0.37373 0.10873 0.0
H1668 H 0.94922 0.36541 0.99482 0.0
H1669 H 0.86542 0.41118 0.09959 0.0
H1670 H 0.93625 0.3667 0.06737 0.0
H1671 H 0.87381 0.39969 1.02831 0.0
C1672 C 0.89466 0.39129 0.99742 0.0
C1673 C 0.91602 0.38187 0.98747 0.0
C1674 C 0.92062 0.37628 0.07444 0.0
C1675 C 0.90747 0.38332 1.03495 0.0
C1676 C 0.91745 0.3802 0.09809 0.0
C1677 C 0.89767 0.39318 0.10773 0.0
C1678 C 0.9039 0.38536 0.06027 0.0
C1679 C 0.88098 0.40117 0.09301 0.0
C1680 C 0.89032 0.39204 1.02106 0.0
C1681 C 0.93253 0.37287 1.00183 0.0
N1682 N 0.88454 0.39726 0.07009 0.0
N1683 N 0.92796 0.37391 1.02486 0.0
H1684 H 0.68793 0.84841 1.0016 0.0
H1685 H 0.74057 0.92692 0.10527 0.0
H1686 H 0.73497 0.91126 0.99184 0.0
H1687 H 0.68106 0.87626 0.11303 0.0
H1688 H 0.74054 0.92021 0.06386 0.0
H1689 H 0.68712 0.85678 0.04277 0.0
C1690 C 0.69811 0.86397 1.00817 0.0
C1691 C 0.71154 0.87917 0.99338 0.0
C1692 C 0.72743 0.91067 0.07465 0.0
C1693 C 0.71078 0.88885 0.04043 0.0
C1694 C 0.72745 0.91447 0.09827 0.0
C1695 C 0.71084 0.90207 0.11263 0.0
C1696 C 0.71083 0.89417 0.06535 0.0
C1697 C 0.69421 0.8862 0.10263 0.0
C1698 C 0.69759 0.8688 1.03165 0.0
C1699 C 0.72438 0.89911 1.00273 0.0
N1700 N 0.69473 0.88259 0.07965 0.0
N1701 N 0.72377 0.90334 1.02569 0.0
H1702 H 0.17357 0.6517 0.07329 0.0
H1703 H 0.23091 0.68151 0.94946 0.0
H1704 H 0.23434 0.70069 0.06572 0.0
H1705 H 0.16086 0.6508 0.96364 0.0
H1706 H 0.23478 0.68783 0.9909 0.0
H1707 H 0.17121 0.64956 1.03235 0.0
C1708 C 0.1865 0.66209 0.06302 0.0
C1709 C 0.20419 0.67643 0.07315 0.0
C1710 C 0.21855 0.67988 0.9848 0.0
C1711 C 0.20157 0.67397 1.02551 0.0
C1712 C 0.21632 0.67629 0.96117 0.0
C1713 C 0.19558 0.66542 0.95293 0.0
C1714 C 0.19999 0.67237 1.00021 0.0
C1715 C 0.17728 0.65904 0.96898 0.0
C1716 C 0.18508 0.66091 0.03948 0.0
C1717 C 0.22036 0.68946 0.05869 0.0
N1718 N 0.18 0.66244 0.99163 0.0
N1719 N 0.21876 0.68783 1.03555 0.0
H1720 H 0.39434 0.91884 0.99248 0.0
H1721 H 0.42635 0.87432 0.11508 0.0
H1722 H 0.44516 0.86136 0.99959 0.0
H1723 H 0.3985 0.94609 0.10269 0.0
H1724 H 0.42686 0.86399 0.07381 0.0
H1725 H 0.38918 0.92366 1.03386 0.0
C1726 C 0.40434 0.9071 1.00278 0.0
C1727 C 0.42035 0.88981 0.99258 0.0
C1728 C 0.42041 0.88187 0.08025 0.0
C1729 C 0.41443 0.89517 0.04016 0.0
C1730 C 0.4199 0.88766 0.10376 0.0
C1731 C 0.41239 0.9111 0.11227 0.0
C1732 C 0.41292 0.8995 0.06535 0.0
C1733 C 0.40452 0.92785 0.09685 0.0
C1734 C 0.4014 0.90989 1.02643 0.0
C1735 C 0.43274 0.87503 1.00681 0.0
N1736 N 0.40498 0.92174 0.07424 0.0
N1737 N 0.42957 0.87807 1.02994 0.0
H1738 H 0.17376 0.39572 0.11434 0.0
H1739 H 0.23761 0.41533 0.99114 0.0
H1740 H 0.23939 0.43704 0.10496 0.0
H1741 H 0.18595 0.35753 1.0054 0.0
H1742 H 0.23616 0.4272 1.03193 0.0
H1743 H 0.17526 0.38566 0.07356 0.0
C1744 C 0.18846 0.40282 0.1037 0.0
C1745 C 0.20656 0.41717 0.11318 0.0
C1746 C 0.22519 0.41189 1.02611 0.0
C1747 C 0.20833 0.40566 0.06624 0.0
C1748 C 0.22599 0.40514 1.00288 0.0
C1749 C 0.21191 0.38539 0.99495 0.0
C1750 C 0.20995 0.399 0.04144 0.0
C1751 C 0.19715 0.37282 1.01082 0.0
C1752 C 0.18934 0.39695 0.08039 0.0
C1753 C 0.22511 0.42584 0.09843 0.0
N1754 N 0.19647 0.3799 1.03327 0.0
N1755 N 0.22551 0.41997 0.07568 0.0
H1756 H 0.74339 0.1983 0.07387 0.0
H1757 H 0.66596 0.15013 0.97191 0.0
H1758 H 0.69204 0.13832 0.07729 0.0
H1759 H 0.73487 0.18331 0.95701 0.0
H1760 H 0.67265 0.15331 1.01222 0.0
H1761 H 0.73896 0.1992 1.03234 0.0
C1762 C 0.73137 0.18528 0.06597 0.0
C1763 C 0.718 0.16829 0.0792 0.0
C1764 C 0.68635 0.15999 1.0002 0.0
C1765 C 0.71255 0.16959 1.03212 0.0
C1766 C 0.6825 0.15829 0.97708 0.0
C1767 C 0.69997 0.16621 0.9609 0.0
C1768 C 0.70782 0.16983 1.00753 0.0
C1769 C 0.72095 0.17684 0.96888 0.0
C1770 C 0.72884 0.18583 0.04233 0.0
C1771 C 0.70267 0.15187 0.06801 0.0
N1772 N 0.72437 0.17827 0.99168 0.0
N1773 N 0.70027 0.15309 0.04533 0.0
H1774 H 0.94961 0.71823 1.00283 0.0
H1775 H 0.89388 0.66246 0.11919 0.0
H1776 H 0.90491 0.65285 1.00458 0.0
H1777 H 0.95409 0.71253 0.11658 0.0
H1778 H 0.89458 0.66168 0.07743 0.0
H1779 H 0.94841 0.71954 0.04469 0.0
C1780 C 0.93949 0.70421 1.01202 0.0
C1781 C 0.92739 0.68538 1.00018 0.0
C1782 C 0.90765 0.67282 0.08601 0.0
C1783 C 0.92576 0.68684 0.04811 0.0
C1784 C 0.90722 0.67332 0.10988 0.0
C1785 C 0.92399 0.68753 0.1215 0.0
C1786 C 0.92476 0.6869 0.07358 0.0
C1787 C 0.94088 0.7012 0.10842 0.0
C1788 C 0.93886 0.70491 1.03591 0.0
C1789 C 0.91456 0.66767 1.01299 0.0
N1790 N 0.94076 0.70064 0.08526 0.0
N1791 N 0.914 0.66887 1.03619 0.0
H1792 H 0.10332 0.46267 0.21519 0.0
H1793 H 0.99218 0.42659 0.1426 0.0
H1794 H 0.10588 0.41551 0.15421 0.0
H1795 H 0.98383 0.45104 0.21326 0.0
H1796 H 1.03493 0.43199 0.14383 0.0
H1797 H 1.06024 0.46676 0.21239 0.0
C1798 C 0.09481 0.45331 0.20122 0.0
C1799 C 0.10795 0.43857 0.18501 0.0
C1800 C 1.02377 0.4364 0.15904 0.0
C1801 C 1.05935 0.44348 0.1815 0.0
C1802 C 0.99938 0.43342 0.15831 0.0
C1803 C 0.98463 0.43807 0.17794 0.0
C1804 C 1.03347 0.444 0.17958 0.0
C1805 C 0.99476 0.44711 0.19781 0.0
C1806 C 0.07036 0.45565 0.19962 0.0
C1807 C 0.0963 0.42687 0.16717 0.0
N1808 N 1.01872 0.44954 0.19824 0.0
N1809 N 0.07268 0.4296 0.16589 0.0
H1810 H 0.12666 0.6469 0.88731 0.0
H1811 H 1.01226 0.73207 0.88805 0.0
H1812 H 0.13122 0.72674 0.88841 0.0
H1813 H 1.00817 0.6578 0.91258 0.0
H1814 H 1.05545 0.72943 0.88476 0.0
H1815 H 0.08343 0.64951 0.89336 0.0
C1816 C 0.11864 0.66503 0.88883 0.0
C1817 C 0.13284 0.68665 0.88728 0.0
C1818 C 1.04517 0.71371 0.89092 0.0
C1819 C 0.0829 0.6897 0.89398 0.0
C1820 C 1.02037 0.71511 0.89273 0.0
C1821 C 1.00625 0.69509 0.90059 0.0
C1822 C 1.05633 0.69193 0.89659 0.0
C1823 C 1.01814 0.67376 0.90651 0.0
C1824 C 0.09387 0.66647 0.89238 0.0
C1825 C 0.12118 0.70955 0.88956 0.0
N1826 N 1.04237 0.67266 0.90419 0.0
N1827 N 0.09701 0.71045 0.89253 0.0
H1828 H 0.42546 0.97475 0.86453 0.0
H1829 H 0.46246 0.0915 0.94316 0.0
H1830 H 0.44594 0.96895 0.93346 0.0
H1831 H 0.42094 0.09941 0.88494 0.0
H1832 H 0.46059 0.04663 0.93727 0.0
H1833 H 0.42788 1.02008 0.86913 0.0
C1834 C 0.43071 0.98293 0.88056 0.0
C1835 C 0.43557 0.96783 0.89862 0.0
C1836 C 0.45186 0.05809 0.92575 0.0
C1837 C 0.43834 1.01993 0.90395 0.0
C1838 C 0.45297 0.08385 0.92904 0.0
C1839 C 0.44182 0.09946 0.91453 0.0
C1840 C 0.43976 0.04752 0.9076 0.0
C1841 C 0.42974 0.08819 0.8966 0.0
C1842 C 0.4319 1.00887 0.8832 0.0
C1843 C 0.44201 0.97969 0.91905 0.0
N1844 N 0.42913 0.06293 0.89357 0.0
N1845 N 0.44329 1.00491 0.9211 0.0
H1846 H 0.13487 0.37503 0.93982 0.0
H1847 H 1.00783 0.36018 0.88596 0.0
H1848 H 0.12685 0.33987 0.8736 0.0
H1849 H 1.02184 0.4075 0.94446 0.0
H1850 H 1.05027 0.34984 0.88185 0.0
H1851 H 0.09262 0.38391 0.94276 0.0
C1852 C 0.12427 0.36899 0.92589 0.0
C1853 C 0.13473 0.3566 0.90641 0.0
C1854 C 1.044 0.36252 0.89554 0.0
C1855 C 0.08569 0.36691 0.90972 0.0
C1856 C 1.01974 0.36844 0.8979 0.0
C1857 C 1.01105 0.38482 0.91557 0.0
C1858 C 1.05972 0.37281 0.91111 0.0
C1859 C 1.0275 0.39486 0.93052 0.0
C1860 C 0.10001 0.3742 0.92756 0.0
C1861 C 0.11975 0.34946 0.88896 0.0
N1862 N 1.05079 0.38865 0.928 0.0
N1863 N 0.09608 0.35466 0.89104 0.0
H1864 H 0.73961 0.94555 0.90415 0.0
H1865 H 0.67295 0.06942 0.87454 0.0
H1866 H 0.66399 0.94944 0.89927 0.0
H1867 H 0.74035 0.07143 0.90494 0.0
H1868 H 0.67182 1.02417 0.87708 0.0
H1869 H 0.74274 0.99035 0.89773 0.0
C1870 C 0.72373 0.9557 0.90142 0.0
C1871 C 0.70148 0.9437 0.9024 0.0
C1872 C 0.6869 1.03449 0.88315 0.0
C1873 C 0.70495 0.99487 0.89496 0.0
C1874 C 0.68756 0.06032 0.88168 0.0
C1875 C 0.7067 0.07424 0.88966 0.0
C1876 C 0.7057 1.02231 0.89236 0.0
C1877 C 0.72518 0.06142 0.89871 0.0
C1878 C 0.72551 0.98129 0.89792 0.0
C1879 C 0.6815 0.95789 0.89883 0.0
N1880 N 0.72427 1.0362 0.89976 0.0
N1881 N 0.6837 0.98259 0.89527 0.0
H1882 H 1.02718 0.72178 0.19284 0.0
H1883 H 0.1445 0.64084 0.16822 0.0
H1884 H 1.0245 0.64189 0.18793 0.0
H1885 H 0.14219 0.7207 0.17362 0.0
H1886 H 0.10137 0.63939 0.17821 0.0
H1887 H 0.07017 0.72054 0.18867 0.0
C1888 C 1.03572 0.70393 0.191 0.0
C1889 C 1.02232 0.68193 0.19062 0.0
C1890 C 0.11046 0.65717 0.17736 0.0
C1891 C 0.07179 0.68023 0.18559 0.0
C1892 C 0.135 0.65796 0.17174 0.0
C1893 C 0.14681 0.68091 0.16993 0.0
C1894 C 0.09797 0.67948 0.18123 0.0
C1895 C 0.13377 0.70259 0.17461 0.0
C1896 C 1.06033 0.70318 0.1886 0.0
C1897 C 1.0343 0.65928 0.18827 0.0
N1898 N 0.11017 0.70132 0.17991 0.0
N1899 N 1.05843 0.65898 0.18565 0.0
H1900 H 0.42143 0.99185 0.15687 0.0
H1901 H 0.41178 0.13373 0.20186 0.0
H1902 H 0.39026 1.01564 0.22276 0.0
H1903 H 0.45343 0.11015 0.1411 0.0
H1904 H 0.39847 0.09088 0.2067 0.0
H1905 H 0.42776 1.03551 0.14758 0.0
C1906 C 0.41555 1.00621 0.16919 0.0
C1907 C 0.40553 1.00011 0.19068 0.0
C1908 C 0.41044 0.09509 0.19224 0.0
C1909 C 0.4128 0.04991 0.18031 0.0
C1910 C 0.41805 0.11957 0.18948 0.0
C1911 C 0.43397 0.12549 0.17121 0.0
C1912 C 0.41876 0.07637 0.17659 0.0
C1913 C 0.44134 0.10639 0.15558 0.0
C1914 C 0.4193 1.03111 0.16397 0.0
C1915 C 0.39835 1.01948 0.20608 0.0
N1916 N 0.43378 0.08266 0.15869 0.0
N1917 N 0.40224 1.04344 0.20065 0.0
H1918 H 0.68246 0.98937 0.1352 0.0
H1919 H 0.77647 0.09501 0.16671 0.0
H1920 H 0.73607 0.98004 0.18314 0.0
H1921 H 0.71249 0.10729 0.13271 0.0
H1922 H 0.76772 0.05039 0.16526 0.0
H1923 H 0.69904 1.03016 0.127 0.0
C1924 C 0.69779 0.99587 0.14397 0.0
C1925 C 0.70765 0.98151 0.1602 0.0
C1926 C 0.75584 0.06287 0.1578 0.0
C1927 C 0.72675 1.02818 0.1508 0.0
C1928 C 0.76089 0.08828 0.15847 0.0
C1929 C 0.74496 0.10483 0.15009 0.0
C1930 C 0.73487 0.05413 0.14852 0.0
C1931 C 0.72504 0.09518 0.13965 0.0
C1932 C 0.70728 1.01914 0.13921 0.0
C1933 C 0.72772 0.99071 0.17075 0.0
N1934 N 0.72044 0.07047 0.13935 0.0
N1935 N 0.73652 1.01363 0.16601 0.0
H1936 H 0.1632 0.56809 0.88046 0.0
H1937 H 0.23568 0.44351 0.89647 0.0
H1938 H 0.23881 0.56819 0.88621 0.0
H1939 H 0.15991 0.44954 0.9085 0.0
H1940 H 0.23767 0.48759 0.88708 0.0
H1941 H 0.16217 0.52321 0.88536 0.0
C1942 C 0.17961 0.55864 0.88265 0.0
C1943 C 0.2011 0.57194 0.88303 0.0
C1944 C 0.22062 0.47917 0.89166 0.0
C1945 C 0.20012 0.52038 0.88854 0.0
C1946 C 0.21946 0.45397 0.89688 0.0
C1947 C 0.19761 0.44277 0.90344 0.0
C1948 C 0.19976 0.4932 0.89272 0.0
C1949 C 0.17718 0.45734 0.90372 0.0
C1950 C 0.17903 0.53299 0.88549 0.0
C1951 C 0.22183 0.55867 0.88591 0.0
N1952 N 0.17876 0.48166 0.8985 0.0
N1953 N 0.22084 0.53366 0.88855 0.0
H1954 H 0.91416 0.59564 0.93594 0.0
H1955 H 0.9432 0.47125 0.86071 0.0
H1956 H 0.95437 0.59528 0.8712 0.0
H1957 H 0.92109 0.47069 0.93216 0.0
H1958 H 0.94453 0.51662 0.86326 0.0
H1959 H 0.91319 0.55011 0.93374 0.0
C1960 C 0.92264 0.58605 0.92117 0.0
C1961 C 0.93435 0.59949 0.90372 0.0
C1962 C 0.93948 0.50659 0.87842 0.0
C1963 C 0.93329 0.54711 0.9011 0.0
C1964 C 0.93872 0.4806 0.87699 0.0
C1965 C 0.93209 0.46689 0.89627 0.0
C1966 C 0.93323 0.51928 0.8992 0.0
C1967 C 0.92645 0.4803 0.91686 0.0
C1968 C 0.9222 0.56 0.92 0.0
C1969 C 0.94514 0.58586 0.8851 0.0
N1970 N 0.92699 0.50564 0.91773 0.0
N1971 N 0.94427 0.56056 0.88425 0.0
H1972 H 0.21355 0.50757 0.19705 0.0
H1973 H 0.23385 0.62938 0.12615 0.0
H1974 H 0.18541 0.51269 0.13096 0.0
H1975 H 0.23772 0.62675 0.19889 0.0
H1976 H 0.21606 0.58723 0.12595 0.0
H1977 H 0.2246 0.55131 0.19626 0.0
C1978 C 0.20981 0.51787 0.18229 0.0
C1979 C 0.19854 0.50645 0.16407 0.0
C1980 C 0.22043 0.59617 0.14196 0.0
C1981 C 0.21105 0.55678 0.16305 0.0
C1982 C 0.23032 0.62022 0.14207 0.0
C1983 C 0.23741 0.63129 0.16253 0.0
C1984 C 0.21795 0.58339 0.16241 0.0
C1985 C 0.23276 0.61868 0.18271 0.0
C1986 C 0.21594 0.54295 0.18192 0.0
C1987 C 0.19404 0.52082 0.14542 0.0
N1988 N 0.22365 0.59535 0.1821 0.0
N1989 N 0.20042 0.54526 0.14531 0.0
H1990 H 0.87032 0.50189 0.21459 0.0
H1991 H 0.94309 0.59766 0.13879 0.0
H1992 H 0.90807 0.481 0.15095 0.0
H1993 H 0.90059 0.61747 0.20015 0.0
H1994 H 0.92506 0.5562 0.13899 0.0
H1995 H 0.87485 0.54531 0.20533 0.0
C1996 C 0.87919 0.50652 0.19842 0.0
C1997 C 0.88921 0.48803 0.18365 0.0
C1998 C 0.91946 0.56974 0.15222 0.0
C1999 C 0.89507 0.53764 0.17319 0.0
C2000 C 0.92981 0.59336 0.15218 0.0
C2001 C 0.92372 0.61081 0.16979 0.0
C2002 C 0.90301 0.56358 0.17005 0.0
C2003 C 0.90617 0.60443 0.18649 0.0
C2004 C 0.88181 0.5313 0.19313 0.0
C2005 C 0.90024 0.49485 0.16281 0.0
N2006 N 0.89665 0.58123 0.18636 0.0
N2007 N 0.90338 0.51925 0.15839 0.0
H2008 H 0.46 0.72057 0.60922 0.0
H2009 H 0.40883 0.65485 0.4982 0.0
H2010 H 0.40498 0.66435 0.61337 0.0
H2011 H 0.45017 0.7226 0.49709 0.0
H2012 H 0.40857 0.65625 0.53992 0.0
H2013 H 0.45809 0.7197 0.56803 0.0
C2014 C 0.44748 0.70795 0.60149 0.0
C2015 C 0.43266 0.69243 0.61493 0.0
C2016 C 0.41762 0.67086 0.53058 0.0
C2017 C 0.43046 0.69134 0.56728 0.0
C2018 C 0.41783 0.67005 0.50675 0.0
C2019 C 0.42958 0.68864 0.49414 0.0
C2020 C 0.42948 0.69026 0.54194 0.0
C2021 C 0.4409 0.7079 0.50612 0.0
C2022 C 0.44636 0.70757 0.57787 0.0
C2023 C 0.41672 0.67666 0.60376 0.0
N2024 N 0.44069 0.70812 0.52929 0.0
N2025 N 0.41614 0.67641 0.58058 0.0
H2026 H 0.89627 0.92018 0.49476 0.0
H2027 H 0.9243 0.86908 0.61631 0.0
H2028 H 0.94356 0.85919 0.50059 0.0
H2029 H 0.89873 0.9423 0.6058 0.0
H2030 H 0.92517 0.86033 0.57474 0.0
H2031 H 0.89075 0.92367 0.53618 0.0
C2032 C 0.90543 0.90741 0.50479 0.0
C2033 C 0.92054 0.88949 0.4942 0.0
C2034 C 0.91913 0.87818 0.58165 0.0
C2035 C 0.91421 0.89333 0.54189 0.0
C2036 C 0.91841 0.88308 0.60534 0.0
C2037 C 0.91144 0.90646 0.61448 0.0
C2038 C 0.91242 0.89667 0.56721 0.0
C2039 C 0.90431 0.92406 0.59949 0.0
C2040 C 0.90229 0.90944 0.52848 0.0
C2041 C 0.93186 0.87338 0.5081 0.0
N2042 N 0.90498 0.91883 0.57671 0.0
N2043 N 0.92851 0.87569 0.53127 0.0
H2044 H 0.73603 0.43241 0.61006 0.0
H2045 H 0.67989 0.34979 0.51107 0.0
H2046 H 0.67259 0.38762 0.62005 0.0
H2047 H 0.72777 0.41099 0.49686 0.0
H2048 H 0.67994 0.361 0.5517 0.0
H2049 H 0.73592 0.42287 0.56894 0.0
C2050 C 0.72204 0.42068 0.60362 0.0
C2051 C 0.70433 0.41074 0.61854 0.0
C2052 C 0.69042 0.37202 0.53972 0.0
C2053 C 0.70428 0.39957 0.57169 0.0
C2054 C 0.69047 0.36557 0.51655 0.0
C2055 C 0.70383 0.37952 0.50066 0.0
C2056 C 0.70404 0.39243 0.5471 0.0
C2057 C 0.7172 0.3998 0.50863 0.0
C2058 C 0.72199 0.41527 0.58018 0.0
C2059 C 0.68662 0.39569 0.60925 0.0
N2060 N 0.71706 0.40562 0.53135 0.0
N2061 N 0.68715 0.39043 0.58649 0.0
H2062 H 0.23037 0.20828 0.57316 0.0
H2063 H 0.15553 0.15976 0.46906 0.0
H2064 H 0.18382 0.14434 0.57436 0.0
H2065 H 0.22363 0.19567 0.45684 0.0
H2066 H 0.16027 0.16363 0.50982 0.0
H2067 H 0.22305 0.21271 0.53247 0.0
C2068 C 0.21832 0.19552 0.56496 0.0
C2069 C 0.20762 0.17594 0.57699 0.0
C2070 C 0.17412 0.17086 0.49826 0.0
C2071 C 0.19907 0.18097 0.53104 0.0
C2072 C 0.17142 0.16873 0.47491 0.0
C2073 C 0.18936 0.1771 0.45937 0.0
C2074 C 0.19483 0.18163 0.50639 0.0
C2075 C 0.20943 0.18878 0.46818 0.0
C2076 C 0.2143 0.19792 0.54181 0.0
C2077 C 0.19241 0.15966 0.56563 0.0
N2078 N 0.21172 0.19058 0.49115 0.0
N2079 N 0.18853 0.16259 0.5434 0.0
H2080 H 0.4214 0.37412 0.61421 0.0
H2081 H 0.37918 0.41279 0.49305 0.0
H2082 H 0.37931 0.43814 0.60386 0.0
H2083 H 0.43826 0.36446 0.49914 0.0
H2084 H 0.37331 0.41574 0.53452 0.0
H2085 H 0.42198 0.36385 0.57297 0.0
C2086 C 0.41187 0.38566 0.60336 0.0
C2087 C 0.40036 0.40705 0.6124 0.0
C2088 C 0.38748 0.40434 0.52683 0.0
C2089 C 0.40097 0.39554 0.5655 0.0
C2090 C 0.39081 0.40262 0.50314 0.0
C2091 C 0.40935 0.38853 0.49267 0.0
C2092 C 0.40274 0.3918 0.54027 0.0
C2093 C 0.42383 0.37565 0.50659 0.0
C2094 C 0.41238 0.37995 0.57985 0.0
C2095 C 0.38852 0.42157 0.59757 0.0
N2096 N 0.4203 0.37767 0.52972 0.0
N2097 N 0.38917 0.41559 0.57494 0.0
H2098 H 0.2382 0.91703 0.4941 0.0
H2099 H 0.17958 0.87951 0.61545 0.0
H2100 H 0.18875 0.85607 0.50298 0.0
H2101 H 0.24259 0.92537 0.60821 0.0
H2102 H 0.17988 0.87427 0.57404 0.0
H2103 H 0.23747 0.92366 0.53562 0.0
C2104 C 0.22718 0.90506 0.50481 0.0
C2105 C 0.21354 0.88594 0.49515 0.0
C2106 C 0.19364 0.88549 0.58149 0.0
C2107 C 0.21245 0.89353 0.54256 0.0
C2108 C 0.19344 0.88859 0.60517 0.0
C2109 C 0.21115 0.90285 0.61538 0.0
C2110 C 0.21154 0.89692 0.5678 0.0
C2111 C 0.22864 0.91414 0.6011 0.0
C2112 C 0.2268 0.90882 0.52848 0.0
C2113 C 0.19957 0.87097 0.50976 0.0
N2114 N 0.22838 0.91098 0.57805 0.0
N2115 N 0.19932 0.87514 0.53272 0.0
H2116 H 0.74139 0.65712 0.45005 0.0
H2117 H 0.69638 0.70002 0.57756 0.0
H2118 H 0.67161 0.68563 0.46833 0.0
H2119 H 0.76213 0.66212 0.56054 0.0
H2120 H 0.68942 0.70052 0.53689 0.0
H2121 H 0.75159 0.66427 0.48965 0.0
C2122 C 0.72829 0.66511 0.4623 0.0
C2123 C 0.70554 0.67057 0.45583 0.0
C2124 C 0.70549 0.69231 0.54205 0.0
C2125 C 0.71708 0.67878 0.50128 0.0
C2126 C 0.70952 0.69214 0.56529 0.0
C2127 C 0.72979 0.68085 0.57254 0.0
C2128 C 0.72186 0.6812 0.52591 0.0
C2129 C 0.74615 0.67085 0.5558 0.0
C2130 C 0.7341 0.66913 0.48495 0.0
C2131 C 0.68931 0.68093 0.47252 0.0
N2132 N 0.74178 0.67113 0.53335 0.0
N2133 N 0.69534 0.68456 0.49443 0.0
H2134 H 0.89483 0.16304 0.60721 0.0
H2135 H 0.94562 0.22056 0.48971 0.0
H2136 H 0.95175 0.21712 0.60233 0.0
H2137 H 0.89999 0.15589 0.49218 0.0
H2138 H 0.94532 0.22176 0.5314 0.0
H2139 H 0.8938 0.16208 0.56549 0.0
C2140 C 0.90708 0.1747 0.59743 0.0
C2141 C 0.92344 0.19012 0.60839 0.0
C2142 C 0.93534 0.2073 0.52285 0.0
C2143 C 0.92224 0.18927 0.56064 0.0
C2144 C 0.93548 0.20667 0.49904 0.0
C2145 C 0.92286 0.18809 0.48747 0.0
C2146 C 0.92235 0.18931 0.53526 0.0
C2147 C 0.91001 0.17052 0.50044 0.0
C2148 C 0.90651 0.17413 0.57361 0.0
C2149 C 0.93889 0.20483 0.59474 0.0
N2150 N 0.91005 0.17157 0.5236 0.0
N2151 N 0.93785 0.20408 0.57171 0.0
H2152 H 0.41062 0.60181 0.43133 0.0
H2153 H 0.44042 0.47316 0.36346 0.0
H2154 H 0.45618 0.59676 0.3698 0.0
H2155 H 0.41408 0.4767 0.43387 0.0
H2156 H 0.44311 0.51846 0.36416 0.0
H2157 H 0.408 0.55632 0.43103 0.0
C2158 C 0.4199 0.59121 0.41763 0.0
C2159 C 0.43362 0.6033 0.40054 0.0
C2160 C 0.43683 0.50936 0.37951 0.0
C2161 C 0.43069 0.55101 0.40012 0.0
C2162 C 0.43529 0.4834 0.37914 0.0
C2163 C 0.42708 0.47088 0.39867 0.0
C2164 C 0.42977 0.52319 0.39945 0.0
C2165 C 0.42068 0.4854 0.41843 0.0
C2166 C 0.41852 0.56519 0.41757 0.0
C2167 C 0.4454 0.58839 0.38336 0.0
N2168 N 0.42198 0.51069 0.41826 0.0
N2169 N 0.44359 0.56317 0.38355 0.0
H2170 H 0.71009 0.55543 0.36112 0.0
H2171 H 0.65156 0.4485 0.4377 0.0
H2172 H 0.66133 0.5692 0.41937 0.0
H2173 H 0.71137 0.43567 0.38964 0.0
H2174 H 0.65166 0.4918 0.42764 0.0
H2175 H 0.70753 0.51089 0.36789 0.0
C2176 C 0.69866 0.54904 0.37521 0.0
C2177 C 0.68589 0.56603 0.38973 0.0
C2178 C 0.66473 0.47956 0.4192 0.0
C2179 C 0.68292 0.51509 0.39759 0.0
C2180 C 0.66467 0.45471 0.42488 0.0
C2181 C 0.68159 0.43832 0.4146 0.0
C2182 C 0.68175 0.48831 0.40297 0.0
C2183 C 0.69804 0.44761 0.39806 0.0
C2184 C 0.6973 0.52363 0.37912 0.0
C2185 C 0.67146 0.55676 0.40777 0.0
N2186 N 0.69774 0.47201 0.3928 0.0
N2187 N 0.67038 0.53195 0.41119 0.0
H2188 H 0.41454 0.62813 0.70404 0.0
H2189 H 0.40844 0.48776 0.65598 0.0
H2190 H 0.44943 0.60192 0.64046 0.0
H2191 H 0.38119 0.51265 0.72296 0.0
H2192 H 0.41629 0.53103 0.64651 0.0
H2193 H 0.39538 0.58745 0.70791 0.0
C2194 C 0.41803 0.61389 0.69082 0.0
C2195 C 0.43392 0.61825 0.67212 0.0
C2196 C 0.40823 0.52701 0.66315 0.0
C2197 C 0.41208 0.57175 0.67638 0.0
C2198 C 0.40359 0.50233 0.66848 0.0
C2199 C 0.39448 0.49664 0.69036 0.0
C2200 C 0.40364 0.54599 0.67985 0.0
C2201 C 0.38862 0.51623 0.70599 0.0
C2202 C 0.40707 0.59068 0.69301 0.0
C2203 C 0.43758 0.59923 0.65535 0.0
N2204 N 0.39354 0.54 0.70052 0.0
N2205 N 0.42693 0.57674 0.65799 0.0
H2206 H 0.72637 0.49289 0.69598 0.0
H2207 H 0.72964 0.62254 0.63396 0.0
H2208 H 0.68004 0.50832 0.64287 0.0
H2209 H 0.76766 0.60728 0.69306 0.0
H2210 H 0.7119 0.58066 0.6354 0.0
H2211 H 0.7431 0.53455 0.69321 0.0
C2212 C 0.71975 0.50503 0.68368 0.0
C2213 C 0.70173 0.49715 0.66971 0.0
C2214 C 0.7241 0.58662 0.64804 0.0
C2215 C 0.72077 0.54504 0.66645 0.0
C2216 C 0.73409 0.61051 0.64729 0.0
C2217 C 0.75003 0.61846 0.66345 0.0
C2218 C 0.73035 0.57067 0.66496 0.0
C2219 C 0.7555 0.60202 0.68017 0.0
C2220 C 0.72927 0.52888 0.68213 0.0
C2221 C 0.69389 0.51369 0.65403 0.0
N2222 N 0.74574 0.57898 0.68044 0.0
N2223 N 0.70344 0.53691 0.65283 0.0
H2224 H 0.51591 0.23086 0.87607 0.0
H2225 H 0.63003 0.14882 0.8937 0.0
H2226 H 0.5102 0.16168 0.91036 0.0
H2227 H 0.6339 0.22664 0.87973 0.0
H2228 H 0.58653 0.15134 0.89709 0.0
H2229 H 0.55901 0.22771 0.87428 0.0
C2230 C 0.52362 0.2149 0.88319 0.0
C2231 C 0.50904 0.1965 0.89339 0.0
C2232 C 0.59692 0.16787 0.89337 0.0
C2233 C 0.55914 0.19272 0.89121 0.0
C2234 C 0.62183 0.16646 0.89136 0.0
C2235 C 0.63595 0.18756 0.88642 0.0
C2236 C 0.58577 0.19046 0.89005 0.0
C2237 C 0.62402 0.20986 0.88365 0.0
C2238 C 0.5484 0.21319 0.88223 0.0
C2239 C 0.5205 0.17639 0.90239 0.0
N2240 N 0.59982 0.21064 0.88532 0.0
N2241 N 0.54474 0.17497 0.90096 0.0
H2242 H 0.63618 0.87579 0.93732 0.0
H2243 H 0.50715 0.85943 0.88804 0.0
H2244 H 0.62632 0.83871 0.87224 0.0
H2245 H 0.52348 0.90727 0.94552 0.0
H2246 H 0.54956 0.8491 0.88242 0.0
H2247 H 0.59405 0.88447 0.94128 0.0
C2248 C 0.6252 0.8693 0.92382 0.0
C2249 C 0.63513 0.85642 0.90437 0.0
C2250 C 0.54378 0.86189 0.89621 0.0
C2251 C 0.5861 0.86653 0.9089 0.0
C2252 C 0.51955 0.8678 0.89944 0.0
C2253 C 0.51154 0.8843 0.91729 0.0
C2254 C 0.56012 0.87236 0.91108 0.0
C2255 C 0.52859 0.89451 0.9315 0.0
C2256 C 0.60098 0.8744 0.9261 0.0
C2257 C 0.61962 0.84869 0.88755 0.0
N2258 N 0.55182 0.88833 0.92813 0.0
N2259 N 0.59594 0.85382 0.8902 0.0
H2260 H 0.52806 0.23013 0.14609 0.0
H2261 H 0.64244 0.15982 0.18302 0.0
H2262 H 0.52562 0.17424 0.19658 0.0
H2263 H 0.64604 0.21971 0.13651 0.0
H2264 H 0.59942 0.16419 0.18745 0.0
H2265 H 0.5712 0.22616 0.14166 0.0
C2266 C 0.53666 0.21706 0.15627 0.0
C2267 C 0.52339 0.20249 0.17172 0.0
C2268 C 0.60958 0.17641 0.17627 0.0
C2269 C 0.57255 0.19775 0.16672 0.0
C2270 C 0.63411 0.17388 0.17372 0.0
C2271 C 0.64769 0.18944 0.15939 0.0
C2272 C 0.59858 0.1946 0.16435 0.0
C2273 C 0.63612 0.20736 0.14774 0.0
C2274 C 0.56125 0.21479 0.15374 0.0
C2275 C 0.53528 0.18583 0.18449 0.0
N2276 N 0.61218 0.20946 0.15046 0.0
N2277 N 0.5592 0.18388 0.18167 0.0
H2278 H 0.61612 0.94779 0.21572 0.0
H2279 H 0.49966 0.90957 0.15246 0.0
H2280 H 0.61091 0.88577 0.16768 0.0
H2281 H 0.49564 0.95123 0.21663 0.0
H2282 H 0.54243 0.90732 0.15425 0.0
H2283 H 0.57335 0.95469 0.21369 0.0
C2284 C 0.60593 0.9356 0.20488 0.0
C2285 C 0.61688 0.91617 0.19187 0.0
C2286 C 0.53225 0.91706 0.16792 0.0
C2287 C 0.56862 0.92419 0.18914 0.0
C2288 C 0.50787 0.91848 0.16684 0.0
C2289 C 0.4942 0.9304 0.18454 0.0
C2290 C 0.54308 0.92768 0.18683 0.0
C2291 C 0.50568 0.94178 0.20271 0.0
C2292 C 0.58167 0.93956 0.20371 0.0
C2293 C 0.60309 0.90092 0.17803 0.0
N2294 N 0.5296 0.94002 0.20349 0.0
N2295 N 0.57971 0.90535 0.17693 0.0
H2296 H 0.49131 0.42147 0.64933 0.0
H2297 H 0.60405 0.45943 0.71907 0.0
H2298 H 0.48426 0.45486 0.71717 0.0
H2299 H 0.60434 0.40644 0.66224 0.0
H2300 H 0.56122 0.46501 0.71589 0.0
H2301 H 0.53425 0.42412 0.65049 0.0
C2302 C 0.49886 0.42964 0.66438 0.0
C2303 C 0.48437 0.43767 0.68329 0.0
C2304 C 0.57078 0.45226 0.70413 0.0
C2305 C 0.53342 0.4405 0.68489 0.0
C2306 C 0.59509 0.44906 0.70594 0.0
C2307 C 0.60753 0.43232 0.691 0.0
C2308 C 0.5592 0.43887 0.68703 0.0
C2309 C 0.59532 0.41938 0.67421 0.0
C2310 C 0.52335 0.43106 0.66509 0.0
C2311 C 0.49497 0.44831 0.70231 0.0
N2312 N 0.57185 0.42295 0.67268 0.0
N2313 N 0.519 0.44921 0.70275 0.0
H2314 H 0.51632 0.73579 0.38622 0.0
H2315 H 0.6295 0.64814 0.38682 0.0
H2316 H 0.50995 0.66038 0.40768 0.0
H2317 H 0.63435 0.72793 0.3864 0.0
H2318 H 0.58612 0.65108 0.39189 0.0
H2319 H 0.55934 0.73205 0.38346 0.0
C2320 C 0.52387 0.71834 0.39035 0.0
C2321 C 0.50911 0.69836 0.39719 0.0
C2322 C 0.59668 0.66794 0.39078 0.0
C2323 C 0.55919 0.69392 0.39384 0.0
C2324 C 0.62154 0.6663 0.3878 0.0
C2325 C 0.63592 0.68781 0.38609 0.0
C2326 C 0.58581 0.69126 0.39172 0.0
C2327 C 0.62429 0.71077 0.38766 0.0
C2328 C 0.54863 0.71628 0.38883 0.0
C2329 C 0.5204 0.67635 0.40241 0.0
N2330 N 0.60011 0.71183 0.39016 0.0
N2331 N 0.54463 0.67467 0.40046 0.0
H2332 H 0.61869 0.34246 0.37821 0.0
H2333 H 0.51293 0.40755 0.45433 0.0
H2334 H 0.62466 0.36855 0.44784 0.0
H2335 H 0.50097 0.36607 0.39188 0.0
H2336 H 0.55441 0.39563 0.45069 0.0
H2337 H 0.57645 0.3526 0.38157 0.0
C2338 C 0.61117 0.35019 0.39427 0.0
C2339 C 0.62546 0.35456 0.41279 0.0
C2340 C 0.54279 0.38907 0.43774 0.0
C2341 C 0.57686 0.36658 0.41661 0.0
C2342 C 0.51898 0.39598 0.43974 0.0
C2343 C 0.50319 0.38788 0.42337 0.0
C2344 C 0.55131 0.37403 0.41909 0.0
C2345 C 0.51237 0.37281 0.40493 0.0
C2346 C 0.58697 0.35598 0.39615 0.0
C2347 C 0.61449 0.36467 0.43311 0.0
N2348 N 0.53578 0.36647 0.40325 0.0
N2349 N 0.59102 0.37046 0.4344 0.0
H2350 H 0.53771 0.67381 0.63672 0.0
H2351 H 0.65485 0.64196 0.69556 0.0
H2352 H 0.53786 0.66134 0.70859 0.0
H2353 H 0.64814 0.63518 0.62302 0.0
H2354 H 0.61172 0.64545 0.70121 0.0
H2355 H 0.57795 0.65784 0.63157 0.0
C2356 C 0.54627 0.66769 0.65142 0.0
C2357 C 0.53461 0.6691 0.67313 0.0
C2358 C 0.61964 0.64263 0.68409 0.0
C2359 C 0.58067 0.65074 0.66743 0.0
C2360 C 0.64424 0.64042 0.68087 0.0
C2361 C 0.65506 0.63861 0.65877 0.0
C2362 C 0.60592 0.64333 0.66504 0.0
C2363 C 0.64051 0.63678 0.64034 0.0
C2364 C 0.56917 0.65838 0.64847 0.0
C2365 C 0.54637 0.6607 0.69158 0.0
N2366 N 0.61673 0.6397 0.64385 0.0
N2367 N 0.56889 0.65211 0.68836 0.0
loop_
_geom_bond_atom_site_label_1
_geom_bond_atom_site_label_2
_geom_bond_distance
_geom_bond_site_symmetry_2
_ccdc_geom_bond_type
O0 Tb1 2.506 . S
O0 C14 1.265 . S
Tb1 O0 2.506 . S
Tb1 O6 2.312 . S
Tb1 O10 2.271 . S
Tb1 O12 2.338 . S
Tb1 O19 2.441 . S
C2 O10 1.252 . S
C2 O11 1.253 . S
O3 Tb4 2.271 . S
O3 C13 1.252 . S
Tb4 O3 2.271 . S
Tb4 O7 2.338 . S
Tb4 O11 2.312 . S
Tb4 O15 2.441 . S
Tb4 O16 2.506 . S
C5 O15 1.244 . S
C5 O16 1.265 . S
O6 Tb1 2.312 . S
O6 C13 1.253 . S
O7 Tb4 2.338 . S
O7 C8 1.258 . S
C8 O7 1.258 . S
C8 O9 1.251 . S
O9 C8 1.251 . S
O10 Tb1 2.271 . S
O10 C2 1.252 . S
O11 C2 1.253 . S
O11 Tb4 2.312 . S
O12 Tb1 2.338 . S
O12 C17 1.258 . S
C13 O3 1.252 . S
C13 O6 1.253 . S
C14 O0 1.265 . S
C14 O19 1.244 . S
O15 Tb4 2.441 . S
O15 C5 1.244 . S
O16 Tb4 2.506 . S
O16 C5 1.265 . S
C17 O12 1.258 . S
C17 O18 1.251 . S
O18 C17 1.251 . S
O19 Tb1 2.441 . S
O19 C14 1.244 . S
O20 Tb21 2.506 . S
O20 C34 1.265 . S
Tb21 O20 2.506 . S
Tb21 O26 2.312 . S
Tb21 O30 2.271 . S
Tb21 O32 2.338 . S
Tb21 O39 2.441 . S
C22 O30 1.252 . S
C22 O31 1.253 . S
O23 Tb24 2.271 . S
O23 C33 1.252 . S
Tb24 O23 2.271 . S
Tb24 O27 2.338 . S
Tb24 O31 2.312 . S
Tb24 O35 2.441 . S
Tb24 O36 2.506 . S
C25 O35 1.244 . S
C25 O36 1.265 . S
O26 Tb21 2.312 . S
O26 C33 1.253 . S
O27 Tb24 2.338 . S
O27 C28 1.258 . S
C28 O27 1.258 . S
C28 O29 1.251 . S
O29 C28 1.251 . S
O30 Tb21 2.271 . S
O30 C22 1.252 . S
O31 C22 1.253 . S
O31 Tb24 2.312 . S
O32 Tb21 2.338 . S
O32 C37 1.258 . S
C33 O23 1.252 . S
C33 O26 1.253 . S
C34 O20 1.265 . S
C34 O39 1.244 . S
O35 Tb24 2.441 . S
O35 C25 1.244 . S
O36 Tb24 2.506 . S
O36 C25 1.265 . S
C37 O32 1.258 . S
C37 O38 1.251 . S
O38 C37 1.251 . S
O39 Tb21 2.441 . S
O39 C34 1.244 . S
O40 Tb41 2.506 . S
O40 C54 1.265 . S
Tb41 O40 2.506 . S
Tb41 O46 2.312 . S
Tb41 O50 2.271 . S
Tb41 O52 2.338 . S
Tb41 O59 2.441 . S
C42 O50 1.252 . S
C42 O51 1.253 . S
O43 Tb44 2.271 . S
O43 C53 1.252 . S
Tb44 O43 2.271 . S
Tb44 O47 2.338 . S
Tb44 O51 2.312 . S
Tb44 O55 2.441 . S
Tb44 O56 2.506 . S
C45 O55 1.244 . S
C45 O56 1.265 . S
O46 Tb41 2.312 . S
O46 C53 1.253 . S
O47 Tb44 2.338 . S
O47 C48 1.258 . S
C48 O47 1.258 . S
C48 O49 1.251 . S
O49 C48 1.251 . S
O50 Tb41 2.271 . S
O50 C42 1.252 . S
O51 C42 1.253 . S
O51 Tb44 2.312 . S
O52 Tb41 2.338 . S
O52 C57 1.258 . S
C53 O43 1.252 . S
C53 O46 1.253 . S
C54 O40 1.265 . S
C54 O59 1.244 . S
O55 Tb44 2.441 . S
O55 C45 1.244 . S
O56 Tb44 2.506 . S
O56 C45 1.265 . S
C57 O52 1.258 . S
C57 O58 1.251 . S
O58 C57 1.251 . S
O59 Tb41 2.441 . S
O59 C54 1.244 . S
O60 Tb61 2.506 . S
O60 C74 1.265 . S
Tb61 O60 2.506 . S
Tb61 O66 2.312 . S
Tb61 O70 2.271 . S
Tb61 O72 2.338 . S
Tb61 O79 2.441 . S
C62 O70 1.252 . S
C62 O71 1.253 . S
O63 Tb64 2.271 . S
O63 C73 1.252 . S
Tb64 O63 2.271 . S
Tb64 O67 2.338 . S
Tb64 O71 2.312 . S
Tb64 O75 2.441 . S
Tb64 O76 2.506 . S
C65 O75 1.244 . S
C65 O76 1.265 . S
O66 Tb61 2.312 . S
O66 C73 1.253 . S
O67 Tb64 2.338 . S
O67 C68 1.258 . S
C68 O67 1.258 . S
C68 O69 1.251 . S
O69 C68 1.251 . S
O70 Tb61 2.271 . S
O70 C62 1.252 . S
O71 C62 1.253 . S
O71 Tb64 2.312 . S
O72 Tb61 2.338 . S
O72 C77 1.258 . S
C73 O63 1.252 . S
C73 O66 1.253 . S
C74 O60 1.265 . S
C74 O79 1.244 . S
O75 Tb64 2.441 . S
O75 C65 1.244 . S
O76 Tb64 2.506 . S
O76 C65 1.265 . S
C77 O72 1.258 . S
C77 O78 1.251 . S
O78 C77 1.251 . S
O79 Tb61 2.441 . S
O79 C74 1.244 . S
O80 Tb81 2.506 . S
O80 C94 1.265 . S
Tb81 O80 2.506 . S
Tb81 O86 2.312 . S
Tb81 O90 2.271 . S
Tb81 O92 2.338 . S
Tb81 O99 2.441 . S
C82 O90 1.252 . S
C82 O91 1.253 . S
O83 Tb84 2.271 . S
O83 C93 1.252 . S
Tb84 O83 2.271 . S
Tb84 O87 2.338 . S
Tb84 O91 2.312 . S
Tb84 O95 2.441 . S
Tb84 O96 2.506 . S
C85 O95 1.244 . S
C85 O96 1.265 . S
O86 Tb81 2.312 . S
O86 C93 1.253 . S
O87 Tb84 2.338 . S
O87 C88 1.258 . S
C88 O87 1.258 . S
C88 O89 1.251 . S
O89 C88 1.251 . S
O90 Tb81 2.271 . S
O90 C82 1.252 . S
O91 C82 1.253 . S
O91 Tb84 2.312 . S
O92 Tb81 2.338 . S
O92 C97 1.258 . S
C93 O83 1.252 . S
C93 O86 1.253 . S
C94 O80 1.265 . S
C94 O99 1.244 . S
O95 Tb84 2.441 . S
O95 C85 1.244 . S
O96 Tb84 2.506 . S
O96 C85 1.265 . S
C97 O92 1.258 . S
C97 O98 1.251 . S
O98 C97 1.251 . S
O99 Tb81 2.441 . S
O99 C94 1.244 . S
O100 Tb101 2.506 . S
O100 C114 1.265 . S
Tb101 O100 2.506 . S
Tb101 O106 2.312 . S
Tb101 O110 2.271 . S
Tb101 O112 2.338 . S
Tb101 O119 2.441 . S
C102 O110 1.252 . S
C102 O111 1.253 . S
O103 Tb104 2.271 . S
O103 C113 1.252 . S
Tb104 O103 2.271 . S
Tb104 O107 2.338 . S
Tb104 O111 2.312 . S
Tb104 O115 2.441 . S
Tb104 O116 2.506 . S
C105 O115 1.244 . S
C105 O116 1.265 . S
O106 Tb101 2.312 . S
O106 C113 1.253 . S
O107 Tb104 2.338 . S
O107 C108 1.258 . S
C108 O107 1.258 . S
C108 O109 1.251 . S
O109 C108 1.251 . S
O110 Tb101 2.271 . S
O110 C102 1.252 . S
O111 C102 1.253 . S
O111 Tb104 2.312 . S
O112 Tb101 2.338 . S
O112 C117 1.258 . S
C113 O103 1.252 . S
C113 O106 1.253 . S
C114 O100 1.265 . S
C114 O119 1.244 . S
O115 Tb104 2.441 . S
O115 C105 1.244 . S
O116 Tb104 2.506 . S
O116 C105 1.265 . S
C117 O112 1.258 . S
C117 O118 1.251 . S
O118 C117 1.251 . S
O119 Tb101 2.441 . S
O119 C114 1.244 . S
O120 Tb121 2.506 . S
O120 C134 1.265 . S
Tb121 O120 2.506 . S
Tb121 O126 2.312 . S
Tb121 O130 2.271 . S
Tb121 O132 2.338 . S
Tb121 O139 2.441 . S
C122 O130 1.252 . S
C122 O131 1.253 . S
O123 Tb124 2.271 . S
O123 C133 1.252 . S
Tb124 O123 2.271 . S
Tb124 O127 2.338 . S
Tb124 O131 2.312 . S
Tb124 O135 2.441 . S
Tb124 O136 2.506 . S
C125 O135 1.244 . S
C125 O136 1.265 . S
O126 Tb121 2.312 . S
O126 C133 1.253 . S
O127 Tb124 2.338 . S
O127 C128 1.258 . S
C128 O127 1.258 . S
C128 O129 1.251 . S
O129 C128 1.251 . S
O130 Tb121 2.271 . S
O130 C122 1.252 . S
O131 C122 1.253 . S
O131 Tb124 2.312 . S
O132 Tb121 2.338 . S
O132 C137 1.258 . S
C133 O123 1.252 . S
C133 O126 1.253 . S
C134 O120 1.265 . S
C134 O139 1.244 . S
O135 Tb124 2.441 . S
O135 C125 1.244 . S
O136 Tb124 2.506 . S
O136 C125 1.265 . S
C137 O132 1.258 . S
C137 O138 1.251 . S
O138 C137 1.251 . S
O139 Tb121 2.441 . S
O139 C134 1.244 . S
O140 Tb141 2.506 . S
O140 C154 1.265 . S
Tb141 O140 2.506 . S
Tb141 O146 2.312 . S
Tb141 O150 2.271 . S
Tb141 O152 2.338 . S
Tb141 O159 2.441 . S
C142 O150 1.252 . S
C142 O151 1.253 . S
O143 Tb144 2.271 . S
O143 C153 1.252 . S
Tb144 O143 2.271 . S
Tb144 O147 2.338 . S
Tb144 O151 2.312 . S
Tb144 O155 2.441 . S
Tb144 O156 2.506 . S
C145 O155 1.244 . S
C145 O156 1.265 . S
O146 Tb141 2.312 . S
O146 C153 1.253 . S
O147 Tb144 2.338 . S
O147 C148 1.258 . S
C148 O147 1.258 . S
C148 O149 1.251 . S
O149 C148 1.251 . S
O150 Tb141 2.271 . S
O150 C142 1.252 . S
O151 C142 1.253 . S
O151 Tb144 2.312 . S
O152 Tb141 2.338 . S
O152 C157 1.258 . S
C153 O143 1.252 . S
C153 O146 1.253 . S
C154 O140 1.265 . S
C154 O159 1.244 . S
O155 Tb144 2.441 . S
O155 C145 1.244 . S
O156 Tb144 2.506 . S
O156 C145 1.265 . S
C157 O152 1.258 . S
C157 O158 1.251 . S
O158 C157 1.251 . S
O159 Tb141 2.441 . S
O159 C154 1.244 . S
O160 Tb161 2.506 . S
O160 C174 1.265 . S
Tb161 O160 2.506 . S
Tb161 O166 2.312 . S
Tb161 O170 2.271 . S
Tb161 O172 2.338 . S
Tb161 O179 2.441 . S
C162 O170 1.252 . S
C162 O171 1.253 . S
O163 Tb164 2.271 . S
O163 C173 1.252 . S
Tb164 O163 2.271 . S
Tb164 O167 2.338 . S
Tb164 O171 2.312 . S
Tb164 O175 2.441 . S
Tb164 O176 2.506 . S
C165 O175 1.244 . S
C165 O176 1.265 . S
O166 Tb161 2.312 . S
O166 C173 1.253 . S
O167 Tb164 2.338 . S
O167 C168 1.258 . S
C168 O167 1.258 . S
C168 O169 1.251 . S
O169 C168 1.251 . S
O170 Tb161 2.271 . S
O170 C162 1.252 . S
O171 C162 1.253 . S
O171 Tb164 2.312 . S
O172 Tb161 2.338 . S
O172 C177 1.258 . S
C173 O163 1.252 . S
C173 O166 1.253 . S
C174 O160 1.265 . S
C174 O179 1.244 . S
O175 Tb164 2.441 . S
O175 C165 1.244 . S
O176 Tb164 2.506 . S
O176 C165 1.265 . S
C177 O172 1.258 . S
C177 O178 1.251 . S
O178 C177 1.251 . S
O179 Tb161 2.441 . S
O179 C174 1.244 . S
O180 Tb181 2.506 . S
O180 C194 1.265 . S
Tb181 O180 2.506 . S
Tb181 O186 2.312 . S
Tb181 O190 2.271 . S
Tb181 O192 2.338 . S
Tb181 O199 2.441 . S
C182 O190 1.252 . S
C182 O191 1.253 . S
O183 Tb184 2.271 . S
O183 C193 1.252 . S
Tb184 O183 2.271 . S
Tb184 O187 2.338 . S
Tb184 O191 2.312 . S
Tb184 O195 2.441 . S
Tb184 O196 2.506 . S
C185 O195 1.244 . S
C185 O196 1.265 . S
O186 Tb181 2.312 . S
O186 C193 1.253 . S
O187 Tb184 2.338 . S
O187 C188 1.258 . S
C188 O187 1.258 . S
C188 O189 1.251 . S
O189 C188 1.251 . S
O190 Tb181 2.271 . S
O190 C182 1.252 . S
O191 C182 1.253 . S
O191 Tb184 2.312 . S
O192 Tb181 2.338 . S
O192 C197 1.258 . S
C193 O183 1.252 . S
C193 O186 1.253 . S
C194 O180 1.265 . S
C194 O199 1.244 . S
O195 Tb184 2.441 . S
O195 C185 1.244 . S
O196 Tb184 2.506 . S
O196 C185 1.265 . S
C197 O192 1.258 . S
C197 O198 1.251 . S
O198 C197 1.251 . S
O199 Tb181 2.441 . S
O199 C194 1.244 . S
O200 Tb201 2.506 . S
O200 C214 1.265 . S
Tb201 O200 2.506 . S
Tb201 O206 2.312 . S
Tb201 O210 2.271 . S
Tb201 O212 2.338 . S
Tb201 O219 2.441 . S
C202 O210 1.252 . S
C202 O211 1.253 . S
O203 Tb204 2.271 . S
O203 C213 1.252 . S
Tb204 O203 2.271 . S
Tb204 O207 2.338 . S
Tb204 O211 2.312 . S
Tb204 O215 2.441 . S
Tb204 O216 2.506 . S
C205 O215 1.244 . S
C205 O216 1.265 . S
O206 Tb201 2.312 . S
O206 C213 1.253 . S
O207 Tb204 2.338 . S
O207 C208 1.258 . S
C208 O207 1.258 . S
C208 O209 1.251 . S
O209 C208 1.251 . S
O210 Tb201 2.271 . S
O210 C202 1.252 . S
O211 C202 1.253 . S
O211 Tb204 2.312 . S
O212 Tb201 2.338 . S
O212 C217 1.258 . S
C213 O203 1.252 . S
C213 O206 1.253 . S
C214 O200 1.265 . S
C214 O219 1.244 . S
O215 Tb204 2.441 . S
O215 C205 1.244 . S
O216 Tb204 2.506 . S
O216 C205 1.265 . S
C217 O212 1.258 . S
C217 O218 1.251 . S
O218 C217 1.251 . S
O219 Tb201 2.441 . S
O219 C214 1.244 . S
O220 Tb221 2.506 . S
O220 C234 1.265 . S
Tb221 O220 2.506 . S
Tb221 O226 2.312 . S
Tb221 O230 2.271 . S
Tb221 O232 2.338 . S
Tb221 O239 2.441 . S
C222 O230 1.252 . S
C222 O231 1.253 . S
O223 Tb224 2.271 . S
O223 C233 1.252 . S
Tb224 O223 2.271 . S
Tb224 O227 2.338 . S
Tb224 O231 2.312 . S
Tb224 O235 2.441 . S
Tb224 O236 2.506 . S
C225 O235 1.244 . S
C225 O236 1.265 . S
O226 Tb221 2.312 . S
O226 C233 1.253 . S
O227 Tb224 2.338 . S
O227 C228 1.258 . S
C228 O227 1.258 . S
C228 O229 1.251 . S
O229 C228 1.251 . S
O230 Tb221 2.271 . S
O230 C222 1.252 . S
O231 C222 1.253 . S
O231 Tb224 2.312 . S
O232 Tb221 2.338 . S
O232 C237 1.258 . S
C233 O223 1.252 . S
C233 O226 1.253 . S
C234 O220 1.265 . S
C234 O239 1.244 . S
O235 Tb224 2.441 . S
O235 C225 1.244 . S
O236 Tb224 2.506 . S
O236 C225 1.265 . S
C237 O232 1.258 . S
C237 O238 1.251 . S
O238 C237 1.251 . S
O239 Tb221 2.441 . S
O239 C234 1.244 . S
O240 Tb241 2.506 . S
O240 C254 1.265 . S
Tb241 O240 2.506 . S
Tb241 O246 2.312 . S
Tb241 O250 2.271 . S
Tb241 O252 2.338 . S
Tb241 O259 2.441 . S
C242 O250 1.252 . S
C242 O251 1.253 . S
O243 Tb244 2.271 . S
O243 C253 1.252 . S
Tb244 O243 2.271 . S
Tb244 O247 2.338 . S
Tb244 O251 2.312 . S
Tb244 O255 2.441 . S
Tb244 O256 2.506 . S
C245 O255 1.244 . S
C245 O256 1.265 . S
O246 Tb241 2.312 . S
O246 C253 1.253 . S
O247 Tb244 2.338 . S
O247 C248 1.258 . S
C248 O247 1.258 . S
C248 O249 1.251 . S
O249 C248 1.251 . S
O250 Tb241 2.271 . S
O250 C242 1.252 . S
O251 C242 1.253 . S
O251 Tb244 2.312 . S
O252 Tb241 2.338 . S
O252 C257 1.258 . S
C253 O243 1.252 . S
C253 O246 1.253 . S
C254 O240 1.265 . S
C254 O259 1.244 . S
O255 Tb244 2.441 . S
O255 C245 1.244 . S
O256 Tb244 2.506 . S
O256 C245 1.265 . S
C257 O252 1.258 . S
C257 O258 1.251 . S
O258 C257 1.251 . S
O259 Tb241 2.441 . S
O259 C254 1.244 . S
O260 Tb261 2.506 . S
O260 C274 1.265 . S
Tb261 O260 2.506 . S
Tb261 O266 2.312 . S
Tb261 O270 2.271 . S
Tb261 O272 2.338 . S
Tb261 O279 2.441 . S
C262 O270 1.252 . S
C262 O271 1.253 . S
O263 Tb264 2.271 . S
O263 C273 1.252 . S
Tb264 O263 2.271 . S
Tb264 O267 2.338 . S
Tb264 O271 2.312 . S
Tb264 O275 2.441 . S
Tb264 O276 2.506 . S
C265 O275 1.244 . S
C265 O276 1.265 . S
O266 Tb261 2.312 . S
O266 C273 1.253 . S
O267 Tb264 2.338 . S
O267 C268 1.258 . S
C268 O267 1.258 . S
C268 O269 1.251 . S
O269 C268 1.251 . S
O270 Tb261 2.271 . S
O270 C262 1.252 . S
O271 C262 1.253 . S
O271 Tb264 2.312 . S
O272 Tb261 2.338 . S
O272 C277 1.258 . S
C273 O263 1.252 . S
C273 O266 1.253 . S
C274 O260 1.265 . S
C274 O279 1.244 . S
O275 Tb264 2.441 . S
O275 C265 1.244 . S
O276 Tb264 2.506 . S
O276 C265 1.265 . S
C277 O272 1.258 . S
C277 O278 1.251 . S
O278 C277 1.251 . S
O279 Tb261 2.441 . S
O279 C274 1.244 . S
O280 Tb281 2.506 . S
O280 C294 1.265 . S
Tb281 O280 2.506 . S
Tb281 O286 2.312 . S
Tb281 O290 2.271 . S
Tb281 O292 2.338 . S
Tb281 O299 2.441 . S
C282 O290 1.252 . S
C282 O291 1.253 . S
O283 Tb284 2.271 . S
O283 C293 1.252 . S
Tb284 O283 2.271 . S
Tb284 O287 2.338 . S
Tb284 O291 2.312 . S
Tb284 O295 2.441 . S
Tb284 O296 2.506 . S
C285 O295 1.244 . S
C285 O296 1.265 . S
O286 Tb281 2.312 . S
O286 C293 1.253 . S
O287 Tb284 2.338 . S
O287 C288 1.258 . S
C288 O287 1.258 . S
C288 O289 1.251 . S
O289 C288 1.251 . S
O290 Tb281 2.271 . S
O290 C282 1.252 . S
O291 C282 1.253 . S
O291 Tb284 2.312 . S
O292 Tb281 2.338 . S
O292 C297 1.258 . S
C293 O283 1.252 . S
C293 O286 1.253 . S
C294 O280 1.265 . S
C294 O299 1.244 . S
O295 Tb284 2.441 . S
O295 C285 1.244 . S
O296 Tb284 2.506 . S
O296 C285 1.265 . S
C297 O292 1.258 . S
C297 O298 1.251 . S
O298 C297 1.251 . S
O299 Tb281 2.441 . S
O299 C294 1.244 . S
O300 Tb301 2.506 . S
O300 C314 1.265 . S
Tb301 O300 2.506 . S
Tb301 O306 2.312 . S
Tb301 O310 2.271 . S
Tb301 O312 2.338 . S
Tb301 O319 2.441 . S
C302 O310 1.252 . S
C302 O311 1.253 . S
O303 Tb304 2.271 . S
O303 C313 1.252 . S
Tb304 O303 2.271 . S
Tb304 O307 2.338 . S
Tb304 O311 2.312 . S
Tb304 O315 2.441 . S
Tb304 O316 2.506 . S
C305 O315 1.244 . S
C305 O316 1.265 . S
O306 Tb301 2.312 . S
O306 C313 1.253 . S
O307 Tb304 2.338 . S
O307 C308 1.258 . S
C308 O307 1.258 . S
C308 O309 1.251 . S
O309 C308 1.251 . S
O310 Tb301 2.271 . S
O310 C302 1.252 . S
O311 C302 1.253 . S
O311 Tb304 2.312 . S
O312 Tb301 2.338 . S
O312 C317 1.258 . S
C313 O303 1.252 . S
C313 O306 1.253 . S
C314 O300 1.265 . S
C314 O319 1.244 . S
O315 Tb304 2.441 . S
O315 C305 1.244 . S
O316 Tb304 2.506 . S
O316 C305 1.265 . S
C317 O312 1.258 . S
C317 O318 1.251 . S
O318 C317 1.251 . S
O319 Tb301 2.441 . S
O319 C314 1.244 . S
O320 Tb321 2.506 . S
O320 C334 1.265 . S
Tb321 O320 2.506 . S
Tb321 O326 2.312 . S
Tb321 O330 2.271 . S
Tb321 O332 2.338 . S
Tb321 O339 2.441 . S
C322 O330 1.252 . S
C322 O331 1.253 . S
O323 Tb324 2.271 . S
O323 C333 1.252 . S
Tb324 O323 2.271 . S
Tb324 O327 2.338 . S
Tb324 O331 2.312 . S
Tb324 O335 2.441 . S
Tb324 O336 2.506 . S
C325 O335 1.244 . S
C325 O336 1.265 . S
O326 Tb321 2.312 . S
O326 C333 1.253 . S
O327 Tb324 2.338 . S
O327 C328 1.258 . S
C328 O327 1.258 . S
C328 O329 1.251 . S
O329 C328 1.251 . S
O330 Tb321 2.271 . S
O330 C322 1.252 . S
O331 C322 1.253 . S
O331 Tb324 2.312 . S
O332 Tb321 2.338 . S
O332 C337 1.258 . S
C333 O323 1.252 . S
C333 O326 1.253 . S
C334 O320 1.265 . S
C334 O339 1.244 . S
O335 Tb324 2.441 . S
O335 C325 1.244 . S
O336 Tb324 2.506 . S
O336 C325 1.265 . S
C337 O332 1.258 . S
C337 O338 1.251 . S
O338 C337 1.251 . S
O339 Tb321 2.441 . S
O339 C334 1.244 . S
O340 Tb341 2.506 . S
O340 C354 1.265 . S
Tb341 O340 2.506 . S
Tb341 O346 2.312 . S
Tb341 O350 2.271 . S
Tb341 O352 2.338 . S
Tb341 O359 2.441 . S
C342 O350 1.252 . S
C342 O351 1.253 . S
O343 Tb344 2.271 . S
O343 C353 1.252 . S
Tb344 O343 2.271 . S
Tb344 O347 2.338 . S
Tb344 O351 2.312 . S
Tb344 O355 2.441 . S
Tb344 O356 2.506 . S
C345 O355 1.244 . S
C345 O356 1.265 . S
O346 Tb341 2.312 . S
O346 C353 1.253 . S
O347 Tb344 2.338 . S
O347 C348 1.258 . S
C348 O347 1.258 . S
C348 O349 1.251 . S
O349 C348 1.251 . S
O350 Tb341 2.271 . S
O350 C342 1.252 . S
O351 C342 1.253 . S
O351 Tb344 2.312 . S
O352 Tb341 2.338 . S
O352 C357 1.258 . S
C353 O343 1.252 . S
C353 O346 1.253 . S
C354 O340 1.265 . S
C354 O359 1.244 . S
O355 Tb344 2.441 . S
O355 C345 1.244 . S
O356 Tb344 2.506 . S
O356 C345 1.265 . S
C357 O352 1.258 . S
C357 O358 1.251 . S
O358 C357 1.251 . S
O359 Tb341 2.441 . S
O359 C354 1.244 . S
O360 Tb361 2.506 . S
O360 C374 1.265 . S
Tb361 O360 2.506 . S
Tb361 O366 2.312 . S
Tb361 O370 2.271 . S
Tb361 O372 2.338 . S
Tb361 O379 2.441 . S
C362 O370 1.252 . S
C362 O371 1.253 . S
O363 Tb364 2.271 . S
O363 C373 1.252 . S
Tb364 O363 2.271 . S
Tb364 O367 2.338 . S
Tb364 O371 2.312 . S
Tb364 O375 2.441 . S
Tb364 O376 2.506 . S
C365 O375 1.244 . S
C365 O376 1.265 . S
O366 Tb361 2.312 . S
O366 C373 1.253 . S
O367 Tb364 2.338 . S
O367 C368 1.258 . S
C368 O367 1.258 . S
C368 O369 1.251 . S
O369 C368 1.251 . S
O370 Tb361 2.271 . S
O370 C362 1.252 . S
O371 C362 1.253 . S
O371 Tb364 2.312 . S
O372 Tb361 2.338 . S
O372 C377 1.258 . S
C373 O363 1.252 . S
C373 O366 1.253 . S
C374 O360 1.265 . S
C374 O379 1.244 . S
O375 Tb364 2.441 . S
O375 C365 1.244 . S
O376 Tb364 2.506 . S
O376 C365 1.265 . S
C377 O372 1.258 . S
C377 O378 1.251 . S
O378 C377 1.251 . S
O379 Tb361 2.441 . S
O379 C374 1.244 . S
O380 Tb381 2.506 . S
O380 C394 1.265 . S
Tb381 O380 2.506 . S
Tb381 O386 2.312 . S
Tb381 O390 2.271 . S
Tb381 O392 2.338 . S
Tb381 O399 2.441 . S
C382 O390 1.252 . S
C382 O391 1.253 . S
O383 Tb384 2.271 . S
O383 C393 1.252 . S
Tb384 O383 2.271 . S
Tb384 O387 2.338 . S
Tb384 O391 2.312 . S
Tb384 O395 2.441 . S
Tb384 O396 2.506 . S
C385 O395 1.244 . S
C385 O396 1.265 . S
O386 Tb381 2.312 . S
O386 C393 1.253 . S
O387 Tb384 2.338 . S
O387 C388 1.258 . S
C388 O387 1.258 . S
C388 O389 1.251 . S
O389 C388 1.251 . S
O390 Tb381 2.271 . S
O390 C382 1.252 . S
O391 C382 1.253 . S
O391 Tb384 2.312 . S
O392 Tb381 2.338 . S
O392 C397 1.258 . S
C393 O383 1.252 . S
C393 O386 1.253 . S
C394 O380 1.265 . S
C394 O399 1.244 . S
O395 Tb384 2.441 . S
O395 C385 1.244 . S
O396 Tb384 2.506 . S
O396 C385 1.265 . S
C397 O392 1.258 . S
C397 O398 1.251 . S
O398 C397 1.251 . S
O399 Tb381 2.441 . S
O399 C394 1.244 . S
O400 Tb401 2.506 . S
O400 C414 1.265 . S
Tb401 O400 2.506 . S
Tb401 O406 2.312 . S
Tb401 O410 2.271 . S
Tb401 O412 2.338 . S
Tb401 O419 2.441 . S
C402 O410 1.252 . S
C402 O411 1.253 . S
O403 Tb404 2.271 . S
O403 C413 1.252 . S
Tb404 O403 2.271 . S
Tb404 O407 2.338 . S
Tb404 O411 2.312 . S
Tb404 O415 2.441 . S
Tb404 O416 2.506 . S
C405 O415 1.244 . S
C405 O416 1.265 . S
O406 Tb401 2.312 . S
O406 C413 1.253 . S
O407 Tb404 2.338 . S
O407 C408 1.258 . S
C408 O407 1.258 . S
C408 O409 1.251 . S
O409 C408 1.251 . S
O410 Tb401 2.271 . S
O410 C402 1.252 . S
O411 C402 1.253 . S
O411 Tb404 2.312 . S
O412 Tb401 2.338 . S
O412 C417 1.258 . S
C413 O403 1.252 . S
C413 O406 1.253 . S
C414 O400 1.265 . S
C414 O419 1.244 . S
O415 Tb404 2.441 . S
O415 C405 1.244 . S
O416 Tb404 2.506 . S
O416 C405 1.265 . S
C417 O412 1.258 . S
C417 O418 1.251 . S
O418 C417 1.251 . S
O419 Tb401 2.441 . S
O419 C414 1.244 . S
O420 Tb421 2.506 . S
O420 C434 1.265 . S
Tb421 O420 2.506 . S
Tb421 O426 2.312 . S
Tb421 O430 2.271 . S
Tb421 O432 2.338 . S
Tb421 O439 2.441 . S
C422 O430 1.252 . S
C422 O431 1.253 . S
O423 Tb424 2.271 . S
O423 C433 1.252 . S
Tb424 O423 2.271 . S
Tb424 O427 2.338 . S
Tb424 O431 2.312 . S
Tb424 O435 2.441 . S
Tb424 O436 2.506 . S
C425 O435 1.244 . S
C425 O436 1.265 . S
O426 Tb421 2.312 . S
O426 C433 1.253 . S
O427 Tb424 2.338 . S
O427 C428 1.258 . S
C428 O427 1.258 . S
C428 O429 1.251 . S
O429 C428 1.251 . S
O430 Tb421 2.271 . S
O430 C422 1.252 . S
O431 C422 1.253 . S
O431 Tb424 2.312 . S
O432 Tb421 2.338 . S
O432 C437 1.258 . S
C433 O423 1.252 . S
C433 O426 1.253 . S
C434 O420 1.265 . S
C434 O439 1.244 . S
O435 Tb424 2.441 . S
O435 C425 1.244 . S
O436 Tb424 2.506 . S
O436 C425 1.265 . S
C437 O432 1.258 . S
C437 O438 1.251 . S
O438 C437 1.251 . S
O439 Tb421 2.441 . S
O439 C434 1.244 . S
O440 Tb441 2.506 . S
O440 C454 1.265 . S
Tb441 O440 2.506 . S
Tb441 O446 2.312 . S
Tb441 O450 2.271 . S
Tb441 O452 2.338 . S
Tb441 O459 2.441 . S
C442 O450 1.252 . S
C442 O451 1.253 . S
O443 Tb444 2.271 . S
O443 C453 1.252 . S
Tb444 O443 2.271 . S
Tb444 O447 2.338 . S
Tb444 O451 2.312 . S
Tb444 O455 2.441 . S
Tb444 O456 2.506 . S
C445 O455 1.244 . S
C445 O456 1.265 . S
O446 Tb441 2.312 . S
O446 C453 1.253 . S
O447 Tb444 2.338 . S
O447 C448 1.258 . S
C448 O447 1.258 . S
C448 O449 1.251 . S
O449 C448 1.251 . S
O450 Tb441 2.271 . S
O450 C442 1.252 . S
O451 C442 1.253 . S
O451 Tb444 2.312 . S
O452 Tb441 2.338 . S
O452 C457 1.258 . S
C453 O443 1.252 . S
C453 O446 1.253 . S
C454 O440 1.265 . S
C454 O459 1.244 . S
O455 Tb444 2.441 . S
O455 C445 1.244 . S
O456 Tb444 2.506 . S
O456 C445 1.265 . S
C457 O452 1.258 . S
C457 O458 1.251 . S
O458 C457 1.251 . S
O459 Tb441 2.441 . S
O459 C454 1.244 . S
O460 Tb461 2.506 . S
O460 C474 1.265 . S
Tb461 O460 2.506 . S
Tb461 O466 2.312 . S
Tb461 O470 2.271 . S
Tb461 O472 2.338 . S
Tb461 O479 2.441 . S
C462 O470 1.252 . S
C462 O471 1.253 . S
O463 Tb464 2.271 . S
O463 C473 1.252 . S
Tb464 O463 2.271 . S
Tb464 O467 2.338 . S
Tb464 O471 2.312 . S
Tb464 O475 2.441 . S
Tb464 O476 2.506 . S
C465 O475 1.244 . S
C465 O476 1.265 . S
O466 Tb461 2.312 . S
O466 C473 1.253 . S
O467 Tb464 2.338 . S
O467 C468 1.258 . S
C468 O467 1.258 . S
C468 O469 1.251 . S
O469 C468 1.251 . S
O470 Tb461 2.271 . S
O470 C462 1.252 . S
O471 C462 1.253 . S
O471 Tb464 2.312 . S
O472 Tb461 2.338 . S
O472 C477 1.258 . S
C473 O463 1.252 . S
C473 O466 1.253 . S
C474 O460 1.265 . S
C474 O479 1.244 . S
O475 Tb464 2.441 . S
O475 C465 1.244 . S
O476 Tb464 2.506 . S
O476 C465 1.265 . S
C477 O472 1.258 . S
C477 O478 1.251 . S
O478 C477 1.251 . S
O479 Tb461 2.441 . S
O479 C474 1.244 . S
O480 Tb481 2.506 . S
O480 C494 1.265 . S
Tb481 O480 2.506 . S
Tb481 O486 2.312 . S
Tb481 O490 2.271 . S
Tb481 O492 2.338 . S
Tb481 O499 2.441 . S
C482 O490 1.252 . S
C482 O491 1.253 . S
O483 Tb484 2.271 . S
O483 C493 1.252 . S
Tb484 O483 2.271 . S
Tb484 O487 2.338 . S
Tb484 O491 2.312 . S
Tb484 O495 2.441 . S
Tb484 O496 2.506 . S
C485 O495 1.244 . S
C485 O496 1.265 . S
O486 Tb481 2.312 . S
O486 C493 1.253 . S
O487 Tb484 2.338 . S
O487 C488 1.258 . S
C488 O487 1.258 . S
C488 O489 1.251 . S
O489 C488 1.251 . S
O490 Tb481 2.271 . S
O490 C482 1.252 . S
O491 C482 1.253 . S
O491 Tb484 2.312 . S
O492 Tb481 2.338 . S
O492 C497 1.258 . S
C493 O483 1.252 . S
C493 O486 1.253 . S
C494 O480 1.265 . S
C494 O499 1.244 . S
O495 Tb484 2.441 . S
O495 C485 1.244 . S
O496 Tb484 2.506 . S
O496 C485 1.265 . S
C497 O492 1.258 . S
C497 O498 1.251 . S
O498 C497 1.251 . S
O499 Tb481 2.441 . S
O499 C494 1.244 . S
O500 Tb501 2.506 . S
O500 C514 1.265 . S
Tb501 O500 2.506 . S
Tb501 O506 2.312 . S
Tb501 O510 2.271 . S
Tb501 O512 2.338 . S
Tb501 O519 2.441 . S
C502 O510 1.252 . S
C502 O511 1.253 . S
O503 Tb504 2.271 . S
O503 C513 1.252 . S
Tb504 O503 2.271 . S
Tb504 O507 2.338 . S
Tb504 O511 2.312 . S
Tb504 O515 2.441 . S
Tb504 O516 2.506 . S
C505 O515 1.244 . S
C505 O516 1.265 . S
O506 Tb501 2.312 . S
O506 C513 1.253 . S
O507 Tb504 2.338 . S
O507 C508 1.258 . S
C508 O507 1.258 . S
C508 O509 1.251 . S
O509 C508 1.251 . S
O510 Tb501 2.271 . S
O510 C502 1.252 . S
O511 C502 1.253 . S
O511 Tb504 2.312 . S
O512 Tb501 2.338 . S
O512 C517 1.258 . S
C513 O503 1.252 . S
C513 O506 1.253 . S
C514 O500 1.265 . S
C514 O519 1.244 . S
O515 Tb504 2.441 . S
O515 C505 1.244 . S
O516 Tb504 2.506 . S
O516 C505 1.265 . S
C517 O512 1.258 . S
C517 O518 1.251 . S
O518 C517 1.251 . S
O519 Tb501 2.441 . S
O519 C514 1.244 . S
O520 Tb521 2.506 . S
O520 C534 1.265 . S
Tb521 O520 2.506 . S
Tb521 O526 2.312 . S
Tb521 O530 2.271 . S
Tb521 O532 2.338 . S
Tb521 O539 2.441 . S
C522 O530 1.252 . S
C522 O531 1.253 . S
O523 Tb524 2.271 . S
O523 C533 1.252 . S
Tb524 O523 2.271 . S
Tb524 O527 2.338 . S
Tb524 O531 2.312 . S
Tb524 O535 2.441 . S
Tb524 O536 2.506 . S
C525 O535 1.244 . S
C525 O536 1.265 . S
O526 Tb521 2.312 . S
O526 C533 1.253 . S
O527 Tb524 2.338 . S
O527 C528 1.258 . S
C528 O527 1.258 . S
C528 O529 1.251 . S
O529 C528 1.251 . S
O530 Tb521 2.271 . S
O530 C522 1.252 . S
O531 C522 1.253 . S
O531 Tb524 2.312 . S
O532 Tb521 2.338 . S
O532 C537 1.258 . S
C533 O523 1.252 . S
C533 O526 1.253 . S
C534 O520 1.265 . S
C534 O539 1.244 . S
O535 Tb524 2.441 . S
O535 C525 1.244 . S
O536 Tb524 2.506 . S
O536 C525 1.265 . S
C537 O532 1.258 . S
C537 O538 1.251 . S
O538 C537 1.251 . S
O539 Tb521 2.441 . S
O539 C534 1.244 . S
O540 Tb541 2.506 . S
O540 C554 1.265 . S
Tb541 O540 2.506 . S
Tb541 O546 2.312 . S
Tb541 O550 2.271 . S
Tb541 O552 2.338 . S
Tb541 O559 2.441 . S
C542 O550 1.252 . S
C542 O551 1.253 . S
O543 Tb544 2.271 . S
O543 C553 1.252 . S
Tb544 O543 2.271 . S
Tb544 O547 2.338 . S
Tb544 O551 2.312 . S
Tb544 O555 2.441 . S
Tb544 O556 2.506 . S
C545 O555 1.244 . S
C545 O556 1.265 . S
O546 Tb541 2.312 . S
O546 C553 1.253 . S
O547 Tb544 2.338 . S
O547 C548 1.258 . S
C548 O547 1.258 . S
C548 O549 1.251 . S
O549 C548 1.251 . S
O550 Tb541 2.271 . S
O550 C542 1.252 . S
O551 C542 1.253 . S
O551 Tb544 2.312 . S
O552 Tb541 2.338 . S
O552 C557 1.258 . S
C553 O543 1.252 . S
C553 O546 1.253 . S
C554 O540 1.265 . S
C554 O559 1.244 . S
O555 Tb544 2.441 . S
O555 C545 1.244 . S
O556 Tb544 2.506 . S
O556 C545 1.265 . S
C557 O552 1.258 . S
C557 O558 1.251 . S
O558 C557 1.251 . S
O559 Tb541 2.441 . S
O559 C554 1.244 . S
O560 Tb561 2.506 . S
O560 C574 1.265 . S
Tb561 O560 2.506 . S
Tb561 O566 2.312 . S
Tb561 O570 2.271 . S
Tb561 O572 2.338 . S
Tb561 O579 2.441 . S
C562 O570 1.252 . S
C562 O571 1.253 . S
O563 Tb564 2.271 . S
O563 C573 1.252 . S
Tb564 O563 2.271 . S
Tb564 O567 2.338 . S
Tb564 O571 2.312 . S
Tb564 O575 2.441 . S
Tb564 O576 2.506 . S
C565 O575 1.244 . S
C565 O576 1.265 . S
O566 Tb561 2.312 . S
O566 C573 1.253 . S
O567 Tb564 2.338 . S
O567 C568 1.258 . S
C568 O567 1.258 . S
C568 O569 1.251 . S
O569 C568 1.251 . S
O570 Tb561 2.271 . S
O570 C562 1.252 . S
O571 C562 1.253 . S
O571 Tb564 2.312 . S
O572 Tb561 2.338 . S
O572 C577 1.258 . S
C573 O563 1.252 . S
C573 O566 1.253 . S
C574 O560 1.265 . S
C574 O579 1.244 . S
O575 Tb564 2.441 . S
O575 C565 1.244 . S
O576 Tb564 2.506 . S
O576 C565 1.265 . S
C577 O572 1.258 . S
C577 O578 1.251 . S
O578 C577 1.251 . S
O579 Tb561 2.441 . S
O579 C574 1.244 . S
O580 Tb581 2.506 . S
O580 C594 1.265 . S
Tb581 O580 2.506 . S
Tb581 O586 2.312 . S
Tb581 O590 2.271 . S
Tb581 O592 2.338 . S
Tb581 O599 2.441 . S
C582 O590 1.252 . S
C582 O591 1.253 . S
O583 Tb584 2.271 . S
O583 C593 1.252 . S
Tb584 O583 2.271 . S
Tb584 O587 2.338 . S
Tb584 O591 2.312 . S
Tb584 O595 2.441 . S
Tb584 O596 2.506 . S
C585 O595 1.244 . S
C585 O596 1.265 . S
O586 Tb581 2.312 . S
O586 C593 1.253 . S
O587 Tb584 2.338 . S
O587 C588 1.258 . S
C588 O587 1.258 . S
C588 O589 1.251 . S
O589 C588 1.251 . S
O590 Tb581 2.271 . S
O590 C582 1.252 . S
O591 C582 1.253 . S
O591 Tb584 2.312 . S
O592 Tb581 2.338 . S
O592 C597 1.258 . S
C593 O583 1.252 . S
C593 O586 1.253 . S
C594 O580 1.265 . S
C594 O599 1.244 . S
O595 Tb584 2.441 . S
O595 C585 1.244 . S
O596 Tb584 2.506 . S
O596 C585 1.265 . S
C597 O592 1.258 . S
C597 O598 1.251 . S
O598 C597 1.251 . S
O599 Tb581 2.441 . S
O599 C594 1.244 . S
O600 Tb601 2.506 . S
O600 C614 1.265 . S
Tb601 O600 2.506 . S
Tb601 O606 2.312 . S
Tb601 O610 2.271 . S
Tb601 O612 2.338 . S
Tb601 O619 2.441 . S
C602 O610 1.252 . S
C602 O611 1.253 . S
O603 Tb604 2.271 . S
O603 C613 1.252 . S
Tb604 O603 2.271 . S
Tb604 O607 2.338 . S
Tb604 O611 2.312 . S
Tb604 O615 2.441 . S
Tb604 O616 2.506 . S
C605 O615 1.244 . S
C605 O616 1.265 . S
O606 Tb601 2.312 . S
O606 C613 1.253 . S
O607 Tb604 2.338 . S
O607 C608 1.258 . S
C608 O607 1.258 . S
C608 O609 1.251 . S
O609 C608 1.251 . S
O610 Tb601 2.271 . S
O610 C602 1.252 . S
O611 C602 1.253 . S
O611 Tb604 2.312 . S
O612 Tb601 2.338 . S
O612 C617 1.258 . S
C613 O603 1.252 . S
C613 O606 1.253 . S
C614 O600 1.265 . S
C614 O619 1.244 . S
O615 Tb604 2.441 . S
O615 C605 1.244 . S
O616 Tb604 2.506 . S
O616 C605 1.265 . S
C617 O612 1.258 . S
C617 O618 1.251 . S
O618 C617 1.251 . S
O619 Tb601 2.441 . S
O619 C614 1.244 . S
O620 Tb621 2.506 . S
O620 C634 1.265 . S
Tb621 O620 2.506 . S
Tb621 O626 2.312 . S
Tb621 O630 2.271 . S
Tb621 O632 2.338 . S
Tb621 O639 2.441 . S
C622 O630 1.252 . S
C622 O631 1.253 . S
O623 Tb624 2.271 . S
O623 C633 1.252 . S
Tb624 O623 2.271 . S
Tb624 O627 2.338 . S
Tb624 O631 2.312 . S
Tb624 O635 2.441 . S
Tb624 O636 2.506 . S
C625 O635 1.244 . S
C625 O636 1.265 . S
O626 Tb621 2.312 . S
O626 C633 1.253 . S
O627 Tb624 2.338 . S
O627 C628 1.258 . S
C628 O627 1.258 . S
C628 O629 1.251 . S
O629 C628 1.251 . S
O630 Tb621 2.271 . S
O630 C622 1.252 . S
O631 C622 1.253 . S
O631 Tb624 2.312 . S
O632 Tb621 2.338 . S
O632 C637 1.258 . S
C633 O623 1.252 . S
C633 O626 1.253 . S
C634 O620 1.265 . S
C634 O639 1.244 . S
O635 Tb624 2.441 . S
O635 C625 1.244 . S
O636 Tb624 2.506 . S
O636 C625 1.265 . S
C637 O632 1.258 . S
C637 O638 1.251 . S
O638 C637 1.251 . S
O639 Tb621 2.441 . S
O639 C634 1.244 . S
H640 C646 0.930 . S
H641 C650 0.930 . S
H642 C655 0.929 . S
H643 C653 0.929 . S
H644 C648 0.929 . S
H645 C654 0.929 . S
C646 H640 0.930 . S
C646 C647 1.367 . S
C646 C654 1.378 . S
C647 C646 1.367 . S
C647 C655 1.433 . S
C648 H644 0.929 . S
C648 C650 1.378 . S
C648 C652 1.350 . S
C649 C652 1.463 . S
C649 C654 1.350 . S
C649 N657 1.427 . S
C650 H641 0.930 . S
C650 C648 1.378 . S
C650 C651 1.367 . S
C651 C650 1.367 . S
C651 C653 1.433 . S
C652 C648 1.350 . S
C652 C649 1.463 . S
C652 N656 1.427 . S
C653 H643 0.929 . S
C653 C651 1.433 . S
C653 N656 1.384 . S
C654 H645 0.929 . S
C654 C646 1.378 . S
C654 C649 1.350 . S
C655 H642 0.929 . S
C655 C647 1.433 . S
C655 N657 1.384 . S
N656 C652 1.427 . S
N656 C653 1.384 . S
N657 C649 1.427 . S
N657 C655 1.384 . S
H658 C664 0.930 . S
H659 C668 0.930 . S
H660 C673 0.929 . S
H661 C671 0.929 . S
H662 C666 0.929 . S
H663 C672 0.929 . S
C664 H658 0.930 . S
C664 C665 1.367 . S
C664 C672 1.378 . S
C665 C664 1.367 . S
C665 C673 1.433 . S
C666 H662 0.929 . S
C666 C668 1.378 . S
C666 C670 1.350 . S
C667 C670 1.463 . S
C667 C672 1.350 . S
C667 N675 1.427 . S
C668 H659 0.930 . S
C668 C666 1.378 . S
C668 C669 1.367 . S
C669 C668 1.367 . S
C669 C671 1.433 . S
C670 C666 1.350 . S
C670 C667 1.463 . S
C670 N674 1.427 . S
C671 H661 0.929 . S
C671 C669 1.433 . S
C671 N674 1.384 . S
C672 H663 0.929 . S
C672 C664 1.378 . S
C672 C667 1.350 . S
C673 H660 0.929 . S
C673 C665 1.433 . S
C673 N675 1.384 . S
N674 C670 1.427 . S
N674 C671 1.384 . S
N675 C667 1.427 . S
N675 C673 1.384 . S
H676 C682 0.930 . S
H677 C686 0.930 . S
H678 C691 0.929 . S
H679 C689 0.929 . S
H680 C684 0.929 . S
H681 C690 0.929 . S
C682 H676 0.930 . S
C682 C683 1.367 . S
C682 C690 1.378 . S
C683 C682 1.367 . S
C683 C691 1.433 . S
C684 H680 0.929 . S
C684 C686 1.378 . S
C684 C688 1.350 . S
C685 C688 1.463 . S
C685 C690 1.350 . S
C685 N693 1.427 . S
C686 H677 0.930 . S
C686 C684 1.378 . S
C686 C687 1.367 . S
C687 C686 1.367 . S
C687 C689 1.433 . S
C688 C684 1.350 . S
C688 C685 1.463 . S
C688 N692 1.427 . S
C689 H679 0.929 . S
C689 C687 1.433 . S
C689 N692 1.384 . S
C690 H681 0.929 . S
C690 C682 1.378 . S
C690 C685 1.350 . S
C691 H678 0.929 . S
C691 C683 1.433 . S
C691 N693 1.384 . S
N692 C688 1.427 . S
N692 C689 1.384 . S
N693 C685 1.427 . S
N693 C691 1.384 . S
H694 C700 0.930 . S
H695 C704 0.930 . S
H696 C709 0.929 . S
H697 C707 0.929 . S
H698 C702 0.929 . S
H699 C708 0.929 . S
C700 H694 0.930 . S
C700 C701 1.367 . S
C700 C708 1.378 . S
C701 C700 1.367 . S
C701 C709 1.433 . S
C702 H698 0.929 . S
C702 C704 1.378 . S
C702 C706 1.350 . S
C703 C706 1.463 . S
C703 C708 1.350 . S
C703 N711 1.427 . S
C704 H695 0.930 . S
C704 C702 1.378 . S
C704 C705 1.367 . S
C705 C704 1.367 . S
C705 C707 1.433 . S
C706 C702 1.350 . S
C706 C703 1.463 . S
C706 N710 1.427 . S
C707 H697 0.929 . S
C707 C705 1.433 . S
C707 N710 1.384 . S
C708 H699 0.929 . S
C708 C700 1.378 . S
C708 C703 1.350 . S
C709 H696 0.929 . S
C709 C701 1.433 . S
C709 N711 1.384 . S
N710 C706 1.427 . S
N710 C707 1.384 . S
N711 C703 1.427 . S
N711 C709 1.384 . S
H712 C718 0.930 . S
H713 C722 0.930 . S
H714 C727 0.929 . S
H715 C725 0.929 . S
H716 C720 0.929 . S
H717 C726 0.929 . S
C718 H712 0.930 . S
C718 C719 1.367 . S
C718 C726 1.378 . S
C719 C718 1.367 . S
C719 C727 1.433 . S
C720 H716 0.929 . S
C720 C722 1.378 . S
C720 C724 1.350 . S
C721 C724 1.463 . S
C721 C726 1.350 . S
C721 N729 1.427 . S
C722 H713 0.930 . S
C722 C720 1.378 . S
C722 C723 1.367 . S
C723 C722 1.367 . S
C723 C725 1.433 . S
C724 C720 1.350 . S
C724 C721 1.463 . S
C724 N728 1.427 . S
C725 H715 0.929 . S
C725 C723 1.433 . S
C725 N728 1.384 . S
C726 H717 0.929 . S
C726 C718 1.378 . S
C726 C721 1.350 . S
C727 H714 0.929 . S
C727 C719 1.433 . S
C727 N729 1.384 . S
N728 C724 1.427 . S
N728 C725 1.384 . S
N729 C721 1.427 . S
N729 C727 1.384 . S
H730 C736 0.930 . S
H731 C740 0.930 . S
H732 C745 0.929 . S
H733 C743 0.929 . S
H734 C738 0.929 . S
H735 C744 0.929 . S
C736 H730 0.930 . S
C736 C737 1.367 . S
C736 C744 1.378 . S
C737 C736 1.367 . S
C737 C745 1.433 . S
C738 H734 0.929 . S
C738 C740 1.378 . S
C738 C742 1.350 . S
C739 C742 1.463 . S
C739 C744 1.350 . S
C739 N747 1.427 . S
C740 H731 0.930 . S
C740 C738 1.378 . S
C740 C741 1.367 . S
C741 C740 1.367 . S
C741 C743 1.433 . S
C742 C738 1.350 . S
C742 C739 1.463 . S
C742 N746 1.427 . S
C743 H733 0.929 . S
C743 C741 1.433 . S
C743 N746 1.384 . S
C744 H735 0.929 . S
C744 C736 1.378 . S
C744 C739 1.350 . S
C745 H732 0.929 . S
C745 C737 1.433 . S
C745 N747 1.384 . S
N746 C742 1.427 . S
N746 C743 1.384 . S
N747 C739 1.427 . S
N747 C745 1.384 . S
H748 C754 0.930 . S
H749 C758 0.930 . S
H750 C763 0.929 . S
H751 C761 0.929 . S
H752 C756 0.929 . S
H753 C762 0.929 . S
C754 H748 0.930 . S
C754 C755 1.367 . S
C754 C762 1.378 . S
C755 C754 1.367 . S
C755 C763 1.433 . S
C756 H752 0.929 . S
C756 C758 1.378 . S
C756 C760 1.350 . S
C757 C760 1.463 . S
C757 C762 1.350 . S
C757 N765 1.427 . S
C758 H749 0.930 . S
C758 C756 1.378 . S
C758 C759 1.367 . S
C759 C758 1.367 . S
C759 C761 1.433 . S
C760 C756 1.350 . S
C760 C757 1.463 . S
C760 N764 1.427 . S
C761 H751 0.929 . S
C761 C759 1.433 . S
C761 N764 1.384 . S
C762 H753 0.929 . S
C762 C754 1.378 . S
C762 C757 1.350 . S
C763 H750 0.929 . S
C763 C755 1.433 . S
C763 N765 1.384 . S
N764 C760 1.427 . S
N764 C761 1.384 . S
N765 C757 1.427 . S
N765 C763 1.384 . S
H766 C772 0.930 . S
H767 C776 0.930 . S
H768 C781 0.929 . S
H769 C779 0.929 . S
H770 C774 0.929 . S
H771 C780 0.929 . S
C772 H766 0.930 . S
C772 C773 1.367 . S
C772 C780 1.378 . S
C773 C772 1.367 . S
C773 C781 1.433 . S
C774 H770 0.929 . S
C774 C776 1.378 . S
C774 C778 1.350 . S
C775 C778 1.463 . S
C775 C780 1.350 . S
C775 N783 1.427 . S
C776 H767 0.930 . S
C776 C774 1.378 . S
C776 C777 1.367 . S
C777 C776 1.367 . S
C777 C779 1.433 . S
C778 C774 1.350 . S
C778 C775 1.463 . S
C778 N782 1.427 . S
C779 H769 0.929 . S
C779 C777 1.433 . S
C779 N782 1.384 . S
C780 H771 0.929 . S
C780 C772 1.378 . S
C780 C775 1.350 . S
C781 H768 0.929 . S
C781 C773 1.433 . S
C781 N783 1.384 . S
N782 C778 1.427 . S
N782 C779 1.384 . S
N783 C775 1.427 . S
N783 C781 1.384 . S
H784 C790 0.930 . S
H785 C794 0.930 . S
H786 C799 0.929 . S
H787 C797 0.929 . S
H788 C792 0.929 . S
H789 C798 0.929 . S
C790 H784 0.930 . S
C790 C791 1.367 . S
C790 C798 1.378 . S
C791 C790 1.367 . S
C791 C799 1.433 . S
C792 H788 0.929 . S
C792 C794 1.378 . S
C792 C796 1.350 . S
C793 C796 1.463 . S
C793 C798 1.350 . S
C793 N801 1.427 . S
C794 H785 0.930 . S
C794 C792 1.378 . S
C794 C795 1.367 . S
C795 C794 1.367 . S
C795 C797 1.433 . S
C796 C792 1.350 . S
C796 C793 1.463 . S
C796 N800 1.427 . S
C797 H787 0.929 . S
C797 C795 1.433 . S
C797 N800 1.384 . S
C798 H789 0.929 . S
C798 C790 1.378 . S
C798 C793 1.350 . S
C799 H786 0.929 . S
C799 C791 1.433 . S
C799 N801 1.384 . S
N800 C796 1.427 . S
N800 C797 1.384 . S
N801 C793 1.427 . S
N801 C799 1.384 . S
H802 C808 0.930 . S
H803 C812 0.930 . S
H804 C817 0.929 . S
H805 C815 0.929 . S
H806 C810 0.929 . S
H807 C816 0.929 . S
C808 H802 0.930 . S
C808 C809 1.367 . S
C808 C816 1.378 . S
C809 C808 1.367 . S
C809 C817 1.433 . S
C810 H806 0.929 . S
C810 C812 1.378 . S
C810 C814 1.350 . S
C811 C814 1.463 . S
C811 C816 1.350 . S
C811 N819 1.427 . S
C812 H803 0.930 . S
C812 C810 1.378 . S
C812 C813 1.367 . S
C813 C812 1.367 . S
C813 C815 1.433 . S
C814 C810 1.350 . S
C814 C811 1.463 . S
C814 N818 1.427 . S
C815 H805 0.929 . S
C815 C813 1.433 . S
C815 N818 1.384 . S
C816 H807 0.929 . S
C816 C808 1.378 . S
C816 C811 1.350 . S
C817 H804 0.929 . S
C817 C809 1.433 . S
C817 N819 1.384 . S
N818 C814 1.427 . S
N818 C815 1.384 . S
N819 C811 1.427 . S
N819 C817 1.384 . S
H820 C826 0.930 . S
H821 C830 0.930 . S
H822 C835 0.929 . S
H823 C833 0.929 . S
H824 C828 0.929 . S
H825 C834 0.929 . S
C826 H820 0.930 . S
C826 C827 1.367 . S
C826 C834 1.378 . S
C827 C826 1.367 . S
C827 C835 1.433 . S
C828 H824 0.929 . S
C828 C830 1.378 . S
C828 C832 1.350 . S
C829 C832 1.463 . S
C829 C834 1.350 . S
C829 N837 1.427 . S
C830 H821 0.930 . S
C830 C828 1.378 . S
C830 C831 1.367 . S
C831 C830 1.367 . S
C831 C833 1.433 . S
C832 C828 1.350 . S
C832 C829 1.463 . S
C832 N836 1.427 . S
C833 H823 0.929 . S
C833 C831 1.433 . S
C833 N836 1.384 . S
C834 H825 0.929 . S
C834 C826 1.378 . S
C834 C829 1.350 . S
C835 H822 0.929 . S
C835 C827 1.433 . S
C835 N837 1.384 . S
N836 C832 1.427 . S
N836 C833 1.384 . S
N837 C829 1.427 . S
N837 C835 1.384 . S
H838 C844 0.930 . S
H839 C848 0.930 . S
H840 C853 0.929 . S
H841 C851 0.929 . S
H842 C846 0.929 . S
H843 C852 0.929 . S
C844 H838 0.930 . S
C844 C845 1.367 . S
C844 C852 1.378 . S
C845 C844 1.367 . S
C845 C853 1.433 . S
C846 H842 0.929 . S
C846 C848 1.378 . S
C846 C850 1.350 . S
C847 C850 1.463 . S
C847 C852 1.350 . S
C847 N855 1.427 . S
C848 H839 0.930 . S
C848 C846 1.378 . S
C848 C849 1.367 . S
C849 C848 1.367 . S
C849 C851 1.433 . S
C850 C846 1.350 . S
C850 C847 1.463 . S
C850 N854 1.427 . S
C851 H841 0.929 . S
C851 C849 1.433 . S
C851 N854 1.384 . S
C852 H843 0.929 . S
C852 C844 1.378 . S
C852 C847 1.350 . S
C853 H840 0.929 . S
C853 C845 1.433 . S
C853 N855 1.384 . S
N854 C850 1.427 . S
N854 C851 1.384 . S
N855 C847 1.427 . S
N855 C853 1.384 . S
H856 C862 0.930 . S
H857 C866 0.930 . S
H858 C871 0.929 . S
H859 C869 0.929 . S
H860 C864 0.929 . S
H861 C870 0.929 . S
C862 H856 0.930 . S
C862 C863 1.367 . S
C862 C870 1.378 . S
C863 C862 1.367 . S
C863 C871 1.433 . S
C864 H860 0.929 . S
C864 C866 1.378 . S
C864 C868 1.350 . S
C865 C868 1.463 . S
C865 C870 1.350 . S
C865 N873 1.427 . S
C866 H857 0.930 . S
C866 C864 1.378 . S
C866 C867 1.367 . S
C867 C866 1.367 . S
C867 C869 1.433 . S
C868 C864 1.350 . S
C868 C865 1.463 . S
C868 N872 1.427 . S
C869 H859 0.929 . S
C869 C867 1.433 . S
C869 N872 1.384 . S
C870 H861 0.929 . S
C870 C862 1.378 . S
C870 C865 1.350 . S
C871 H858 0.929 . S
C871 C863 1.433 . S
C871 N873 1.384 . S
N872 C868 1.427 . S
N872 C869 1.384 . S
N873 C865 1.427 . S
N873 C871 1.384 . S
H874 C880 0.930 . S
H875 C884 0.930 . S
H876 C889 0.929 . S
H877 C887 0.929 . S
H878 C882 0.929 . S
H879 C888 0.929 . S
C880 H874 0.930 . S
C880 C881 1.367 . S
C880 C888 1.378 . S
C881 C880 1.367 . S
C881 C889 1.433 . S
C882 H878 0.929 . S
C882 C884 1.378 . S
C882 C886 1.350 . S
C883 C886 1.463 . S
C883 C888 1.350 . S
C883 N891 1.427 . S
C884 H875 0.930 . S
C884 C882 1.378 . S
C884 C885 1.367 . S
C885 C884 1.367 . S
C885 C887 1.433 . S
C886 C882 1.350 . S
C886 C883 1.463 . S
C886 N890 1.427 . S
C887 H877 0.929 . S
C887 C885 1.433 . S
C887 N890 1.384 . S
C888 H879 0.929 . S
C888 C880 1.378 . S
C888 C883 1.350 . S
C889 H876 0.929 . S
C889 C881 1.433 . S
C889 N891 1.384 . S
N890 C886 1.427 . S
N890 C887 1.384 . S
N891 C883 1.427 . S
N891 C889 1.384 . S
H892 C898 0.930 . S
H893 C902 0.930 . S
H894 C907 0.929 . S
H895 C905 0.929 . S
H896 C900 0.929 . S
H897 C906 0.929 . S
C898 H892 0.930 . S
C898 C899 1.367 . S
C898 C906 1.378 . S
C899 C898 1.367 . S
C899 C907 1.433 . S
C900 H896 0.929 . S
C900 C902 1.378 . S
C900 C904 1.350 . S
C901 C904 1.463 . S
C901 C906 1.350 . S
C901 N909 1.427 . S
C902 H893 0.930 . S
C902 C900 1.378 . S
C902 C903 1.367 . S
C903 C902 1.367 . S
C903 C905 1.433 . S
C904 C900 1.350 . S
C904 C901 1.463 . S
C904 N908 1.427 . S
C905 H895 0.929 . S
C905 C903 1.433 . S
C905 N908 1.384 . S
C906 H897 0.929 . S
C906 C898 1.378 . S
C906 C901 1.350 . S
C907 H894 0.929 . S
C907 C899 1.433 . S
C907 N909 1.384 . S
N908 C904 1.427 . S
N908 C905 1.384 . S
N909 C901 1.427 . S
N909 C907 1.384 . S
H910 C916 0.930 . S
H911 C920 0.930 . S
H912 C925 0.929 . S
H913 C923 0.929 . S
H914 C918 0.929 . S
H915 C924 0.929 . S
C916 H910 0.930 . S
C916 C917 1.367 . S
C916 C924 1.378 . S
C917 C916 1.367 . S
C917 C925 1.433 . S
C918 H914 0.929 . S
C918 C920 1.378 . S
C918 C922 1.350 . S
C919 C922 1.463 . S
C919 C924 1.350 . S
C919 N927 1.427 . S
C920 H911 0.930 . S
C920 C918 1.378 . S
C920 C921 1.367 . S
C921 C920 1.367 . S
C921 C923 1.433 . S
C922 C918 1.350 . S
C922 C919 1.463 . S
C922 N926 1.427 . S
C923 H913 0.929 . S
C923 C921 1.433 . S
C923 N926 1.384 . S
C924 H915 0.929 . S
C924 C916 1.378 . S
C924 C919 1.350 . S
C925 H912 0.929 . S
C925 C917 1.433 . S
C925 N927 1.384 . S
N926 C922 1.427 . S
N926 C923 1.384 . S
N927 C919 1.427 . S
N927 C925 1.384 . S
H928 C934 0.930 . S
H929 C938 0.930 . S
H930 C943 0.929 . S
H931 C941 0.929 . S
H932 C936 0.929 . S
H933 C942 0.929 . S
C934 H928 0.930 . S
C934 C935 1.367 . S
C934 C942 1.378 . S
C935 C934 1.367 . S
C935 C943 1.433 . S
C936 H932 0.929 . S
C936 C938 1.378 . S
C936 C940 1.350 . S
C937 C940 1.463 . S
C937 C942 1.350 . S
C937 N945 1.427 . S
C938 H929 0.930 . S
C938 C936 1.378 . S
C938 C939 1.367 . S
C939 C938 1.367 . S
C939 C941 1.433 . S
C940 C936 1.350 . S
C940 C937 1.463 . S
C940 N944 1.427 . S
C941 H931 0.929 . S
C941 C939 1.433 . S
C941 N944 1.384 . S
C942 H933 0.929 . S
C942 C934 1.378 . S
C942 C937 1.350 . S
C943 H930 0.929 . S
C943 C935 1.433 . S
C943 N945 1.384 . S
N944 C940 1.427 . S
N944 C941 1.384 . S
N945 C937 1.427 . S
N945 C943 1.384 . S
H946 C952 0.930 . S
H947 C956 0.930 . S
H948 C961 0.929 . S
H949 C959 0.929 . S
H950 C954 0.929 . S
H951 C960 0.929 . S
C952 H946 0.930 . S
C952 C953 1.367 . S
C952 C960 1.378 . S
C953 C952 1.367 . S
C953 C961 1.433 . S
C954 H950 0.929 . S
C954 C956 1.378 . S
C954 C958 1.350 . S
C955 C958 1.463 . S
C955 C960 1.350 . S
C955 N963 1.427 . S
C956 H947 0.930 . S
C956 C954 1.378 . S
C956 C957 1.367 . S
C957 C956 1.367 . S
C957 C959 1.433 . S
C958 C954 1.350 . S
C958 C955 1.463 . S
C958 N962 1.427 . S
C959 H949 0.929 . S
C959 C957 1.433 . S
C959 N962 1.384 . S
C960 H951 0.929 . S
C960 C952 1.378 . S
C960 C955 1.350 . S
C961 H948 0.929 . S
C961 C953 1.433 . S
C961 N963 1.384 . S
N962 C958 1.427 . S
N962 C959 1.384 . S
N963 C955 1.427 . S
N963 C961 1.384 . S
H964 C970 0.930 . S
H965 C974 0.930 . S
H966 C979 0.929 . S
H967 C977 0.929 . S
H968 C972 0.929 . S
H969 C978 0.929 . S
C970 H964 0.930 . S
C970 C971 1.367 . S
C970 C978 1.378 . S
C971 C970 1.367 . S
C971 C979 1.433 . S
C972 H968 0.929 . S
C972 C974 1.378 . S
C972 C976 1.350 . S
C973 C976 1.463 . S
C973 C978 1.350 . S
C973 N981 1.427 . S
C974 H965 0.930 . S
C974 C972 1.378 . S
C974 C975 1.367 . S
C975 C974 1.367 . S
C975 C977 1.433 . S
C976 C972 1.350 . S
C976 C973 1.463 . S
C976 N980 1.427 . S
C977 H967 0.929 . S
C977 C975 1.433 . S
C977 N980 1.384 . S
C978 H969 0.929 . S
C978 C970 1.378 . S
C978 C973 1.350 . S
C979 H966 0.929 . S
C979 C971 1.433 . S
C979 N981 1.384 . S
N980 C976 1.427 . S
N980 C977 1.384 . S
N981 C973 1.427 . S
N981 C979 1.384 . S
H982 C988 0.930 . S
H983 C992 0.930 . S
H984 C997 0.929 . S
H985 C995 0.929 . S
H986 C990 0.929 . S
H987 C996 0.929 . S
C988 H982 0.930 . S
C988 C989 1.367 . S
C988 C996 1.378 . S
C989 C988 1.367 . S
C989 C997 1.433 . S
C990 H986 0.929 . S
C990 C992 1.378 . S
C990 C994 1.350 . S
C991 C994 1.463 . S
C991 C996 1.350 . S
C991 N999 1.427 . S
C992 H983 0.930 . S
C992 C990 1.378 . S
C992 C993 1.367 . S
C993 C992 1.367 . S
C993 C995 1.433 . S
C994 C990 1.350 . S
C994 C991 1.463 . S
C994 N998 1.427 . S
C995 H985 0.929 . S
C995 C993 1.433 . S
C995 N998 1.384 . S
C996 H987 0.929 . S
C996 C988 1.378 . S
C996 C991 1.350 . S
C997 H984 0.929 . S
C997 C989 1.433 . S
C997 N999 1.384 . S
N998 C994 1.427 . S
N998 C995 1.384 . S
N999 C991 1.427 . S
N999 C997 1.384 . S
H1000 C1006 0.930 . S
H1001 C1010 0.930 . S
H1002 C1015 0.929 . S
H1003 C1013 0.929 . S
H1004 C1008 0.929 . S
H1005 C1014 0.929 . S
C1006 H1000 0.930 . S
C1006 C1007 1.367 . S
C1006 C1014 1.378 . S
C1007 C1006 1.367 . S
C1007 C1015 1.433 . S
C1008 H1004 0.929 . S
C1008 C1010 1.378 . S
C1008 C1012 1.350 . S
C1009 C1012 1.463 . S
C1009 C1014 1.350 . S
C1009 N1017 1.427 . S
C1010 H1001 0.930 . S
C1010 C1008 1.378 . S
C1010 C1011 1.367 . S
C1011 C1010 1.367 . S
C1011 C1013 1.433 . S
C1012 C1008 1.350 . S
C1012 C1009 1.463 . S
C1012 N1016 1.427 . S
C1013 H1003 0.929 . S
C1013 C1011 1.433 . S
C1013 N1016 1.384 . S
C1014 H1005 0.929 . S
C1014 C1006 1.378 . S
C1014 C1009 1.350 . S
C1015 H1002 0.929 . S
C1015 C1007 1.433 . S
C1015 N1017 1.384 . S
N1016 C1012 1.427 . S
N1016 C1013 1.384 . S
N1017 C1009 1.427 . S
N1017 C1015 1.384 . S
H1018 C1024 0.930 . S
H1019 C1028 0.930 . S
H1020 C1033 0.929 . S
H1021 C1031 0.929 . S
H1022 C1026 0.929 . S
H1023 C1032 0.929 . S
C1024 H1018 0.930 . S
C1024 C1025 1.367 . S
C1024 C1032 1.378 . S
C1025 C1024 1.367 . S
C1025 C1033 1.433 . S
C1026 H1022 0.929 . S
C1026 C1028 1.378 . S
C1026 C1030 1.350 . S
C1027 C1030 1.463 . S
C1027 C1032 1.350 . S
C1027 N1035 1.427 . S
C1028 H1019 0.930 . S
C1028 C1026 1.378 . S
C1028 C1029 1.367 . S
C1029 C1028 1.367 . S
C1029 C1031 1.433 . S
C1030 C1026 1.350 . S
C1030 C1027 1.463 . S
C1030 N1034 1.427 . S
C1031 H1021 0.929 . S
C1031 C1029 1.433 . S
C1031 N1034 1.384 . S
C1032 H1023 0.929 . S
C1032 C1024 1.378 . S
C1032 C1027 1.350 . S
C1033 H1020 0.929 . S
C1033 C1025 1.433 . S
C1033 N1035 1.384 . S
N1034 C1030 1.427 . S
N1034 C1031 1.384 . S
N1035 C1027 1.427 . S
N1035 C1033 1.384 . S
H1036 C1042 0.930 . S
H1037 C1046 0.930 . S
H1038 C1051 0.929 . S
H1039 C1049 0.929 . S
H1040 C1044 0.929 . S
H1041 C1050 0.929 . S
C1042 H1036 0.930 . S
C1042 C1043 1.367 . S
C1042 C1050 1.378 . S
C1043 C1042 1.367 . S
C1043 C1051 1.433 . S
C1044 H1040 0.929 . S
C1044 C1046 1.378 . S
C1044 C1048 1.350 . S
C1045 C1048 1.463 . S
C1045 C1050 1.350 . S
C1045 N1053 1.427 . S
C1046 H1037 0.930 . S
C1046 C1044 1.378 . S
C1046 C1047 1.367 . S
C1047 C1046 1.367 . S
C1047 C1049 1.433 . S
C1048 C1044 1.350 . S
C1048 C1045 1.463 . S
C1048 N1052 1.427 . S
C1049 H1039 0.929 . S
C1049 C1047 1.433 . S
C1049 N1052 1.384 . S
C1050 H1041 0.929 . S
C1050 C1042 1.378 . S
C1050 C1045 1.350 . S
C1051 H1038 0.929 . S
C1051 C1043 1.433 . S
C1051 N1053 1.384 . S
N1052 C1048 1.427 . S
N1052 C1049 1.384 . S
N1053 C1045 1.427 . S
N1053 C1051 1.384 . S
H1054 C1060 0.930 . S
H1055 C1064 0.930 . S
H1056 C1069 0.929 . S
H1057 C1067 0.929 . S
H1058 C1062 0.929 . S
H1059 C1068 0.929 . S
C1060 H1054 0.930 . S
C1060 C1061 1.367 . S
C1060 C1068 1.378 . S
C1061 C1060 1.367 . S
C1061 C1069 1.433 . S
C1062 H1058 0.929 . S
C1062 C1064 1.378 . S
C1062 C1066 1.350 . S
C1063 C1066 1.463 . S
C1063 C1068 1.350 . S
C1063 N1071 1.427 . S
C1064 H1055 0.930 . S
C1064 C1062 1.378 . S
C1064 C1065 1.367 . S
C1065 C1064 1.367 . S
C1065 C1067 1.433 . S
C1066 C1062 1.350 . S
C1066 C1063 1.463 . S
C1066 N1070 1.427 . S
C1067 H1057 0.929 . S
C1067 C1065 1.433 . S
C1067 N1070 1.384 . S
C1068 H1059 0.929 . S
C1068 C1060 1.378 . S
C1068 C1063 1.350 . S
C1069 H1056 0.929 . S
C1069 C1061 1.433 . S
C1069 N1071 1.384 . S
N1070 C1066 1.427 . S
N1070 C1067 1.384 . S
N1071 C1063 1.427 . S
N1071 C1069 1.384 . S
H1072 C1078 0.930 . S
H1073 C1082 0.930 . S
H1074 C1087 0.929 . S
H1075 C1085 0.929 . S
H1076 C1080 0.929 . S
H1077 C1086 0.929 . S
C1078 H1072 0.930 . S
C1078 C1079 1.367 . S
C1078 C1086 1.378 . S
C1079 C1078 1.367 . S
C1079 C1087 1.433 . S
C1080 H1076 0.929 . S
C1080 C1082 1.378 . S
C1080 C1084 1.350 . S
C1081 C1084 1.463 . S
C1081 C1086 1.350 . S
C1081 N1089 1.427 . S
C1082 H1073 0.930 . S
C1082 C1080 1.378 . S
C1082 C1083 1.367 . S
C1083 C1082 1.367 . S
C1083 C1085 1.433 . S
C1084 C1080 1.350 . S
C1084 C1081 1.463 . S
C1084 N1088 1.427 . S
C1085 H1075 0.929 . S
C1085 C1083 1.433 . S
C1085 N1088 1.384 . S
C1086 H1077 0.929 . S
C1086 C1078 1.378 . S
C1086 C1081 1.350 . S
C1087 H1074 0.929 . S
C1087 C1079 1.433 . S
C1087 N1089 1.384 . S
N1088 C1084 1.427 . S
N1088 C1085 1.384 . S
N1089 C1081 1.427 . S
N1089 C1087 1.384 . S
H1090 C1096 0.930 . S
H1091 C1100 0.930 . S
H1092 C1105 0.929 . S
H1093 C1103 0.929 . S
H1094 C1098 0.929 . S
H1095 C1104 0.929 . S
C1096 H1090 0.930 . S
C1096 C1097 1.367 . S
C1096 C1104 1.378 . S
C1097 C1096 1.367 . S
C1097 C1105 1.433 . S
C1098 H1094 0.929 . S
C1098 C1100 1.378 . S
C1098 C1102 1.350 . S
C1099 C1102 1.463 . S
C1099 C1104 1.350 . S
C1099 N1107 1.427 . S
C1100 H1091 0.930 . S
C1100 C1098 1.378 . S
C1100 C1101 1.367 . S
C1101 C1100 1.367 . S
C1101 C1103 1.433 . S
C1102 C1098 1.350 . S
C1102 C1099 1.463 . S
C1102 N1106 1.427 . S
C1103 H1093 0.929 . S
C1103 C1101 1.433 . S
C1103 N1106 1.384 . S
C1104 H1095 0.929 . S
C1104 C1096 1.378 . S
C1104 C1099 1.350 . S
C1105 H1092 0.929 . S
C1105 C1097 1.433 . S
C1105 N1107 1.384 . S
N1106 C1102 1.427 . S
N1106 C1103 1.384 . S
N1107 C1099 1.427 . S
N1107 C1105 1.384 . S
H1108 C1114 0.930 . S
H1109 C1118 0.930 . S
H1110 C1123 0.929 . S
H1111 C1121 0.929 . S
H1112 C1116 0.929 . S
H1113 C1122 0.929 . S
C1114 H1108 0.930 . S
C1114 C1115 1.367 . S
C1114 C1122 1.378 . S
C1115 C1114 1.367 . S
C1115 C1123 1.433 . S
C1116 H1112 0.929 . S
C1116 C1118 1.378 . S
C1116 C1120 1.350 . S
C1117 C1120 1.463 . S
C1117 C1122 1.350 . S
C1117 N1125 1.427 . S
C1118 H1109 0.930 . S
C1118 C1116 1.378 . S
C1118 C1119 1.367 . S
C1119 C1118 1.367 . S
C1119 C1121 1.433 . S
C1120 C1116 1.350 . S
C1120 C1117 1.463 . S
C1120 N1124 1.427 . S
C1121 H1111 0.929 . S
C1121 C1119 1.433 . S
C1121 N1124 1.384 . S
C1122 H1113 0.929 . S
C1122 C1114 1.378 . S
C1122 C1117 1.350 . S
C1123 H1110 0.929 . S
C1123 C1115 1.433 . S
C1123 N1125 1.384 . S
N1124 C1120 1.427 . S
N1124 C1121 1.384 . S
N1125 C1117 1.427 . S
N1125 C1123 1.384 . S
H1126 C1132 0.930 . S
H1127 C1136 0.930 . S
H1128 C1141 0.929 . S
H1129 C1139 0.929 . S
H1130 C1134 0.929 . S
H1131 C1140 0.929 . S
C1132 H1126 0.930 . S
C1132 C1133 1.367 . S
C1132 C1140 1.378 . S
C1133 C1132 1.367 . S
C1133 C1141 1.433 . S
C1134 H1130 0.929 . S
C1134 C1136 1.378 . S
C1134 C1138 1.350 . S
C1135 C1138 1.463 . S
C1135 C1140 1.350 . S
C1135 N1143 1.427 . S
C1136 H1127 0.930 . S
C1136 C1134 1.378 . S
C1136 C1137 1.367 . S
C1137 C1136 1.367 . S
C1137 C1139 1.433 . S
C1138 C1134 1.350 . S
C1138 C1135 1.463 . S
C1138 N1142 1.427 . S
C1139 H1129 0.929 . S
C1139 C1137 1.433 . S
C1139 N1142 1.384 . S
C1140 H1131 0.929 . S
C1140 C1132 1.378 . S
C1140 C1135 1.350 . S
C1141 H1128 0.929 . S
C1141 C1133 1.433 . S
C1141 N1143 1.384 . S
N1142 C1138 1.427 . S
N1142 C1139 1.384 . S
N1143 C1135 1.427 . S
N1143 C1141 1.384 . S
H1144 C1150 0.930 . S
H1145 C1154 0.930 . S
H1146 C1159 0.929 . S
H1147 C1157 0.929 . S
H1148 C1152 0.929 . S
H1149 C1158 0.929 . S
C1150 H1144 0.930 . S
C1150 C1151 1.367 . S
C1150 C1158 1.378 . S
C1151 C1150 1.367 . S
C1151 C1159 1.433 . S
C1152 H1148 0.929 . S
C1152 C1154 1.378 . S
C1152 C1156 1.350 . S
C1153 C1156 1.463 . S
C1153 C1158 1.350 . S
C1153 N1161 1.427 . S
C1154 H1145 0.930 . S
C1154 C1152 1.378 . S
C1154 C1155 1.367 . S
C1155 C1154 1.367 . S
C1155 C1157 1.433 . S
C1156 C1152 1.350 . S
C1156 C1153 1.463 . S
C1156 N1160 1.427 . S
C1157 H1147 0.929 . S
C1157 C1155 1.433 . S
C1157 N1160 1.384 . S
C1158 H1149 0.929 . S
C1158 C1150 1.378 . S
C1158 C1153 1.350 . S
C1159 H1146 0.929 . S
C1159 C1151 1.433 . S
C1159 N1161 1.384 . S
N1160 C1156 1.427 . S
N1160 C1157 1.384 . S
N1161 C1153 1.427 . S
N1161 C1159 1.384 . S
H1162 C1168 0.930 . S
H1163 C1172 0.930 . S
H1164 C1177 0.929 . S
H1165 C1175 0.929 . S
H1166 C1170 0.929 . S
H1167 C1176 0.929 . S
C1168 H1162 0.930 . S
C1168 C1169 1.367 . S
C1168 C1176 1.378 . S
C1169 C1168 1.367 . S
C1169 C1177 1.433 . S
C1170 H1166 0.929 . S
C1170 C1172 1.378 . S
C1170 C1174 1.350 . S
C1171 C1174 1.463 . S
C1171 C1176 1.350 . S
C1171 N1179 1.427 . S
C1172 H1163 0.930 . S
C1172 C1170 1.378 . S
C1172 C1173 1.367 . S
C1173 C1172 1.367 . S
C1173 C1175 1.433 . S
C1174 C1170 1.350 . S
C1174 C1171 1.463 . S
C1174 N1178 1.427 . S
C1175 H1165 0.929 . S
C1175 C1173 1.433 . S
C1175 N1178 1.384 . S
C1176 H1167 0.929 . S
C1176 C1168 1.378 . S
C1176 C1171 1.350 . S
C1177 H1164 0.929 . S
C1177 C1169 1.433 . S
C1177 N1179 1.384 . S
N1178 C1174 1.427 . S
N1178 C1175 1.384 . S
N1179 C1171 1.427 . S
N1179 C1177 1.384 . S
H1180 C1186 0.930 . S
H1181 C1190 0.930 . S
H1182 C1195 0.929 . S
H1183 C1193 0.929 . S
H1184 C1188 0.929 . S
H1185 C1194 0.929 . S
C1186 H1180 0.930 . S
C1186 C1187 1.367 . S
C1186 C1194 1.378 . S
C1187 C1186 1.367 . S
C1187 C1195 1.433 . S
C1188 H1184 0.929 . S
C1188 C1190 1.378 . S
C1188 C1192 1.350 . S
C1189 C1192 1.463 . S
C1189 C1194 1.350 . S
C1189 N1197 1.427 . S
C1190 H1181 0.930 . S
C1190 C1188 1.378 . S
C1190 C1191 1.367 . S
C1191 C1190 1.367 . S
C1191 C1193 1.433 . S
C1192 C1188 1.350 . S
C1192 C1189 1.463 . S
C1192 N1196 1.427 . S
C1193 H1183 0.929 . S
C1193 C1191 1.433 . S
C1193 N1196 1.384 . S
C1194 H1185 0.929 . S
C1194 C1186 1.378 . S
C1194 C1189 1.350 . S
C1195 H1182 0.929 . S
C1195 C1187 1.433 . S
C1195 N1197 1.384 . S
N1196 C1192 1.427 . S
N1196 C1193 1.384 . S
N1197 C1189 1.427 . S
N1197 C1195 1.384 . S
H1198 C1204 0.930 . S
H1199 C1208 0.930 . S
H1200 C1213 0.929 . S
H1201 C1211 0.929 . S
H1202 C1206 0.929 . S
H1203 C1212 0.929 . S
C1204 H1198 0.930 . S
C1204 C1205 1.367 . S
C1204 C1212 1.378 . S
C1205 C1204 1.367 . S
C1205 C1213 1.433 . S
C1206 H1202 0.929 . S
C1206 C1208 1.378 . S
C1206 C1210 1.350 . S
C1207 C1210 1.463 . S
C1207 C1212 1.350 . S
C1207 N1215 1.427 . S
C1208 H1199 0.930 . S
C1208 C1206 1.378 . S
C1208 C1209 1.367 . S
C1209 C1208 1.367 . S
C1209 C1211 1.433 . S
C1210 C1206 1.350 . S
C1210 C1207 1.463 . S
C1210 N1214 1.427 . S
C1211 H1201 0.929 . S
C1211 C1209 1.433 . S
C1211 N1214 1.384 . S
C1212 H1203 0.929 . S
C1212 C1204 1.378 . S
C1212 C1207 1.350 . S
C1213 H1200 0.929 . S
C1213 C1205 1.433 . S
C1213 N1215 1.384 . S
N1214 C1210 1.427 . S
N1214 C1211 1.384 . S
N1215 C1207 1.427 . S
N1215 C1213 1.384 . S
H1216 C1222 0.930 . S
H1217 C1226 0.930 . S
H1218 C1231 0.929 . S
H1219 C1229 0.929 . S
H1220 C1224 0.929 . S
H1221 C1230 0.929 . S
C1222 H1216 0.930 . S
C1222 C1223 1.367 . S
C1222 C1230 1.378 . S
C1223 C1222 1.367 . S
C1223 C1231 1.433 . S
C1224 H1220 0.929 . S
C1224 C1226 1.378 . S
C1224 C1228 1.350 . S
C1225 C1228 1.463 . S
C1225 C1230 1.350 . S
C1225 N1233 1.427 . S
C1226 H1217 0.930 . S
C1226 C1224 1.378 . S
C1226 C1227 1.367 . S
C1227 C1226 1.367 . S
C1227 C1229 1.433 . S
C1228 C1224 1.350 . S
C1228 C1225 1.463 . S
C1228 N1232 1.427 . S
C1229 H1219 0.929 . S
C1229 C1227 1.433 . S
C1229 N1232 1.384 . S
C1230 H1221 0.929 . S
C1230 C1222 1.378 . S
C1230 C1225 1.350 . S
C1231 H1218 0.929 . S
C1231 C1223 1.433 . S
C1231 N1233 1.384 . S
N1232 C1228 1.427 . S
N1232 C1229 1.384 . S
N1233 C1225 1.427 . S
N1233 C1231 1.384 . S
H1234 C1240 0.930 . S
H1235 C1244 0.930 . S
H1236 C1249 0.929 . S
H1237 C1247 0.929 . S
H1238 C1242 0.929 . S
H1239 C1248 0.929 . S
C1240 H1234 0.930 . S
C1240 C1241 1.367 . S
C1240 C1248 1.378 . S
C1241 C1240 1.367 . S
C1241 C1249 1.433 . S
C1242 H1238 0.929 . S
C1242 C1244 1.378 . S
C1242 C1246 1.350 . S
C1243 C1246 1.463 . S
C1243 C1248 1.350 . S
C1243 N1251 1.427 . S
C1244 H1235 0.930 . S
C1244 C1242 1.378 . S
C1244 C1245 1.367 . S
C1245 C1244 1.367 . S
C1245 C1247 1.433 . S
C1246 C1242 1.350 . S
C1246 C1243 1.463 . S
C1246 N1250 1.427 . S
C1247 H1237 0.929 . S
C1247 C1245 1.433 . S
C1247 N1250 1.384 . S
C1248 H1239 0.929 . S
C1248 C1240 1.378 . S
C1248 C1243 1.350 . S
C1249 H1236 0.929 . S
C1249 C1241 1.433 . S
C1249 N1251 1.384 . S
N1250 C1246 1.427 . S
N1250 C1247 1.384 . S
N1251 C1243 1.427 . S
N1251 C1249 1.384 . S
H1252 C1258 0.930 . S
H1253 C1262 0.930 . S
H1254 C1267 0.929 . S
H1255 C1265 0.929 . S
H1256 C1260 0.929 . S
H1257 C1266 0.929 . S
C1258 H1252 0.930 . S
C1258 C1259 1.367 . S
C1258 C1266 1.378 . S
C1259 C1258 1.367 . S
C1259 C1267 1.433 . S
C1260 H1256 0.929 . S
C1260 C1262 1.378 . S
C1260 C1264 1.350 . S
C1261 C1264 1.463 . S
C1261 C1266 1.350 . S
C1261 N1269 1.427 . S
C1262 H1253 0.930 . S
C1262 C1260 1.378 . S
C1262 C1263 1.367 . S
C1263 C1262 1.367 . S
C1263 C1265 1.433 . S
C1264 C1260 1.350 . S
C1264 C1261 1.463 . S
C1264 N1268 1.427 . S
C1265 H1255 0.929 . S
C1265 C1263 1.433 . S
C1265 N1268 1.384 . S
C1266 H1257 0.929 . S
C1266 C1258 1.378 . S
C1266 C1261 1.350 . S
C1267 H1254 0.929 . S
C1267 C1259 1.433 . S
C1267 N1269 1.384 . S
N1268 C1264 1.427 . S
N1268 C1265 1.384 . S
N1269 C1261 1.427 . S
N1269 C1267 1.384 . S
H1270 C1276 0.930 . S
H1271 C1280 0.930 . S
H1272 C1285 0.929 . S
H1273 C1283 0.929 . S
H1274 C1278 0.929 . S
H1275 C1284 0.929 . S
C1276 H1270 0.930 . S
C1276 C1277 1.367 . S
C1276 C1284 1.378 . S
C1277 C1276 1.367 . S
C1277 C1285 1.433 . S
C1278 H1274 0.929 . S
C1278 C1280 1.378 . S
C1278 C1282 1.350 . S
C1279 C1282 1.463 . S
C1279 C1284 1.350 . S
C1279 N1287 1.427 . S
C1280 H1271 0.930 . S
C1280 C1278 1.378 . S
C1280 C1281 1.367 . S
C1281 C1280 1.367 . S
C1281 C1283 1.433 . S
C1282 C1278 1.350 . S
C1282 C1279 1.463 . S
C1282 N1286 1.427 . S
C1283 H1273 0.929 . S
C1283 C1281 1.433 . S
C1283 N1286 1.384 . S
C1284 H1275 0.929 . S
C1284 C1276 1.378 . S
C1284 C1279 1.350 . S
C1285 H1272 0.929 . S
C1285 C1277 1.433 . S
C1285 N1287 1.384 . S
N1286 C1282 1.427 . S
N1286 C1283 1.384 . S
N1287 C1279 1.427 . S
N1287 C1285 1.384 . S
H1288 C1294 0.930 . S
H1289 C1298 0.930 . S
H1290 C1303 0.929 . S
H1291 C1301 0.929 . S
H1292 C1296 0.929 . S
H1293 C1302 0.929 . S
C1294 H1288 0.930 . S
C1294 C1295 1.367 . S
C1294 C1302 1.378 . S
C1295 C1294 1.367 . S
C1295 C1303 1.433 . S
C1296 H1292 0.929 . S
C1296 C1298 1.378 . S
C1296 C1300 1.350 . S
C1297 C1300 1.463 . S
C1297 C1302 1.350 . S
C1297 N1305 1.427 . S
C1298 H1289 0.930 . S
C1298 C1296 1.378 . S
C1298 C1299 1.367 . S
C1299 C1298 1.367 . S
C1299 C1301 1.433 . S
C1300 C1296 1.350 . S
C1300 C1297 1.463 . S
C1300 N1304 1.427 . S
C1301 H1291 0.929 . S
C1301 C1299 1.433 . S
C1301 N1304 1.384 . S
C1302 H1293 0.929 . S
C1302 C1294 1.378 . S
C1302 C1297 1.350 . S
C1303 H1290 0.929 . S
C1303 C1295 1.433 . S
C1303 N1305 1.384 . S
N1304 C1300 1.427 . S
N1304 C1301 1.384 . S
N1305 C1297 1.427 . S
N1305 C1303 1.384 . S
H1306 C1312 0.930 . S
H1307 C1316 0.930 . S
H1308 C1321 0.929 . S
H1309 C1319 0.929 . S
H1310 C1314 0.929 . S
H1311 C1320 0.929 . S
C1312 H1306 0.930 . S
C1312 C1313 1.367 . S
C1312 C1320 1.378 . S
C1313 C1312 1.367 . S
C1313 C1321 1.433 . S
C1314 H1310 0.929 . S
C1314 C1316 1.378 . S
C1314 C1318 1.350 . S
C1315 C1318 1.463 . S
C1315 C1320 1.350 . S
C1315 N1323 1.427 . S
C1316 H1307 0.930 . S
C1316 C1314 1.378 . S
C1316 C1317 1.367 . S
C1317 C1316 1.367 . S
C1317 C1319 1.433 . S
C1318 C1314 1.350 . S
C1318 C1315 1.463 . S
C1318 N1322 1.427 . S
C1319 H1309 0.929 . S
C1319 C1317 1.433 . S
C1319 N1322 1.384 . S
C1320 H1311 0.929 . S
C1320 C1312 1.378 . S
C1320 C1315 1.350 . S
C1321 H1308 0.929 . S
C1321 C1313 1.433 . S
C1321 N1323 1.384 . S
N1322 C1318 1.427 . S
N1322 C1319 1.384 . S
N1323 C1315 1.427 . S
N1323 C1321 1.384 . S
H1324 C1330 0.930 . S
H1325 C1334 0.930 . S
H1326 C1339 0.929 . S
H1327 C1337 0.929 . S
H1328 C1332 0.929 . S
H1329 C1338 0.929 . S
C1330 H1324 0.930 . S
C1330 C1331 1.367 . S
C1330 C1338 1.378 . S
C1331 C1330 1.367 . S
C1331 C1339 1.433 . S
C1332 H1328 0.929 . S
C1332 C1334 1.378 . S
C1332 C1336 1.350 . S
C1333 C1336 1.463 . S
C1333 C1338 1.350 . S
C1333 N1341 1.427 . S
C1334 H1325 0.930 . S
C1334 C1332 1.378 . S
C1334 C1335 1.367 . S
C1335 C1334 1.367 . S
C1335 C1337 1.433 . S
C1336 C1332 1.350 . S
C1336 C1333 1.463 . S
C1336 N1340 1.427 . S
C1337 H1327 0.929 . S
C1337 C1335 1.433 . S
C1337 N1340 1.384 . S
C1338 H1329 0.929 . S
C1338 C1330 1.378 . S
C1338 C1333 1.350 . S
C1339 H1326 0.929 . S
C1339 C1331 1.433 . S
C1339 N1341 1.384 . S
N1340 C1336 1.427 . S
N1340 C1337 1.384 . S
N1341 C1333 1.427 . S
N1341 C1339 1.384 . S
H1342 C1348 0.930 . S
H1343 C1352 0.930 . S
H1344 C1357 0.929 . S
H1345 C1355 0.929 . S
H1346 C1350 0.929 . S
H1347 C1356 0.929 . S
C1348 H1342 0.930 . S
C1348 C1349 1.367 . S
C1348 C1356 1.378 . S
C1349 C1348 1.367 . S
C1349 C1357 1.433 . S
C1350 H1346 0.929 . S
C1350 C1352 1.378 . S
C1350 C1354 1.350 . S
C1351 C1354 1.463 . S
C1351 C1356 1.350 . S
C1351 N1359 1.427 . S
C1352 H1343 0.930 . S
C1352 C1350 1.378 . S
C1352 C1353 1.367 . S
C1353 C1352 1.367 . S
C1353 C1355 1.433 . S
C1354 C1350 1.350 . S
C1354 C1351 1.463 . S
C1354 N1358 1.427 . S
C1355 H1345 0.929 . S
C1355 C1353 1.433 . S
C1355 N1358 1.384 . S
C1356 H1347 0.929 . S
C1356 C1348 1.378 . S
C1356 C1351 1.350 . S
C1357 H1344 0.929 . S
C1357 C1349 1.433 . S
C1357 N1359 1.384 . S
N1358 C1354 1.427 . S
N1358 C1355 1.384 . S
N1359 C1351 1.427 . S
N1359 C1357 1.384 . S
H1360 C1366 0.930 . S
H1361 C1370 0.930 . S
H1362 C1375 0.929 . S
H1363 C1373 0.929 . S
H1364 C1368 0.929 . S
H1365 C1374 0.929 . S
C1366 H1360 0.930 . S
C1366 C1367 1.367 . S
C1366 C1374 1.378 . S
C1367 C1366 1.367 . S
C1367 C1375 1.433 . S
C1368 H1364 0.929 . S
C1368 C1370 1.378 . S
C1368 C1372 1.350 . S
C1369 C1372 1.463 . S
C1369 C1374 1.350 . S
C1369 N1377 1.427 . S
C1370 H1361 0.930 . S
C1370 C1368 1.378 . S
C1370 C1371 1.367 . S
C1371 C1370 1.367 . S
C1371 C1373 1.433 . S
C1372 C1368 1.350 . S
C1372 C1369 1.463 . S
C1372 N1376 1.427 . S
C1373 H1363 0.929 . S
C1373 C1371 1.433 . S
C1373 N1376 1.384 . S
C1374 H1365 0.929 . S
C1374 C1366 1.378 . S
C1374 C1369 1.350 . S
C1375 H1362 0.929 . S
C1375 C1367 1.433 . S
C1375 N1377 1.384 . S
N1376 C1372 1.427 . S
N1376 C1373 1.384 . S
N1377 C1369 1.427 . S
N1377 C1375 1.384 . S
H1378 C1384 0.930 . S
H1379 C1388 0.930 . S
H1380 C1393 0.929 . S
H1381 C1391 0.929 . S
H1382 C1386 0.929 . S
H1383 C1392 0.929 . S
C1384 H1378 0.930 . S
C1384 C1385 1.367 . S
C1384 C1392 1.378 . S
C1385 C1384 1.367 . S
C1385 C1393 1.433 . S
C1386 H1382 0.929 . S
C1386 C1388 1.378 . S
C1386 C1390 1.350 . S
C1387 C1390 1.463 . S
C1387 C1392 1.350 . S
C1387 N1395 1.427 . S
C1388 H1379 0.930 . S
C1388 C1386 1.378 . S
C1388 C1389 1.367 . S
C1389 C1388 1.367 . S
C1389 C1391 1.433 . S
C1390 C1386 1.350 . S
C1390 C1387 1.463 . S
C1390 N1394 1.427 . S
C1391 H1381 0.929 . S
C1391 C1389 1.433 . S
C1391 N1394 1.384 . S
C1392 H1383 0.929 . S
C1392 C1384 1.378 . S
C1392 C1387 1.350 . S
C1393 H1380 0.929 . S
C1393 C1385 1.433 . S
C1393 N1395 1.384 . S
N1394 C1390 1.427 . S
N1394 C1391 1.384 . S
N1395 C1387 1.427 . S
N1395 C1393 1.384 . S
H1396 C1402 0.930 . S
H1397 C1406 0.930 . S
H1398 C1411 0.929 . S
H1399 C1409 0.929 . S
H1400 C1404 0.929 . S
H1401 C1410 0.929 . S
C1402 H1396 0.930 . S
C1402 C1403 1.367 . S
C1402 C1410 1.378 . S
C1403 C1402 1.367 . S
C1403 C1411 1.433 . S
C1404 H1400 0.929 . S
C1404 C1406 1.378 . S
C1404 C1408 1.350 . S
C1405 C1408 1.463 . S
C1405 C1410 1.350 . S
C1405 N1413 1.427 . S
C1406 H1397 0.930 . S
C1406 C1404 1.378 . S
C1406 C1407 1.367 . S
C1407 C1406 1.367 . S
C1407 C1409 1.433 . S
C1408 C1404 1.350 . S
C1408 C1405 1.463 . S
C1408 N1412 1.427 . S
C1409 H1399 0.929 . S
C1409 C1407 1.433 . S
C1409 N1412 1.384 . S
C1410 H1401 0.929 . S
C1410 C1402 1.378 . S
C1410 C1405 1.350 . S
C1411 H1398 0.929 . S
C1411 C1403 1.433 . S
C1411 N1413 1.384 . S
N1412 C1408 1.427 . S
N1412 C1409 1.384 . S
N1413 C1405 1.427 . S
N1413 C1411 1.384 . S
H1414 C1420 0.930 . S
H1415 C1424 0.930 . S
H1416 C1429 0.929 . S
H1417 C1427 0.929 . S
H1418 C1422 0.929 . S
H1419 C1428 0.929 . S
C1420 H1414 0.930 . S
C1420 C1421 1.367 . S
C1420 C1428 1.378 . S
C1421 C1420 1.367 . S
C1421 C1429 1.433 . S
C1422 H1418 0.929 . S
C1422 C1424 1.378 . S
C1422 C1426 1.350 . S
C1423 C1426 1.463 . S
C1423 C1428 1.350 . S
C1423 N1431 1.427 . S
C1424 H1415 0.930 . S
C1424 C1422 1.378 . S
C1424 C1425 1.367 . S
C1425 C1424 1.367 . S
C1425 C1427 1.433 . S
C1426 C1422 1.350 . S
C1426 C1423 1.463 . S
C1426 N1430 1.427 . S
C1427 H1417 0.929 . S
C1427 C1425 1.433 . S
C1427 N1430 1.384 . S
C1428 H1419 0.929 . S
C1428 C1420 1.378 . S
C1428 C1423 1.350 . S
C1429 H1416 0.929 . S
C1429 C1421 1.433 . S
C1429 N1431 1.384 . S
N1430 C1426 1.427 . S
N1430 C1427 1.384 . S
N1431 C1423 1.427 . S
N1431 C1429 1.384 . S
H1432 C1438 0.930 . S
H1433 C1442 0.930 . S
H1434 C1447 0.929 . S
H1435 C1445 0.929 . S
H1436 C1440 0.929 . S
H1437 C1446 0.929 . S
C1438 H1432 0.930 . S
C1438 C1439 1.367 . S
C1438 C1446 1.378 . S
C1439 C1438 1.367 . S
C1439 C1447 1.433 . S
C1440 H1436 0.929 . S
C1440 C1442 1.378 . S
C1440 C1444 1.350 . S
C1441 C1444 1.463 . S
C1441 C1446 1.350 . S
C1441 N1449 1.427 . S
C1442 H1433 0.930 . S
C1442 C1440 1.378 . S
C1442 C1443 1.367 . S
C1443 C1442 1.367 . S
C1443 C1445 1.433 . S
C1444 C1440 1.350 . S
C1444 C1441 1.463 . S
C1444 N1448 1.427 . S
C1445 H1435 0.929 . S
C1445 C1443 1.433 . S
C1445 N1448 1.384 . S
C1446 H1437 0.929 . S
C1446 C1438 1.378 . S
C1446 C1441 1.350 . S
C1447 H1434 0.929 . S
C1447 C1439 1.433 . S
C1447 N1449 1.384 . S
N1448 C1444 1.427 . S
N1448 C1445 1.384 . S
N1449 C1441 1.427 . S
N1449 C1447 1.384 . S
H1450 C1456 0.930 . S
H1451 C1460 0.930 . S
H1452 C1465 0.929 . S
H1453 C1463 0.929 . S
H1454 C1458 0.929 . S
H1455 C1464 0.929 . S
C1456 H1450 0.930 . S
C1456 C1457 1.367 . S
C1456 C1464 1.378 . S
C1457 C1456 1.367 . S
C1457 C1465 1.433 . S
C1458 H1454 0.929 . S
C1458 C1460 1.378 . S
C1458 C1462 1.350 . S
C1459 C1462 1.463 . S
C1459 C1464 1.350 . S
C1459 N1467 1.427 . S
C1460 H1451 0.930 . S
C1460 C1458 1.378 . S
C1460 C1461 1.367 . S
C1461 C1460 1.367 . S
C1461 C1463 1.433 . S
C1462 C1458 1.350 . S
C1462 C1459 1.463 . S
C1462 N1466 1.427 . S
C1463 H1453 0.929 . S
C1463 C1461 1.433 . S
C1463 N1466 1.384 . S
C1464 H1455 0.929 . S
C1464 C1456 1.378 . S
C1464 C1459 1.350 . S
C1465 H1452 0.929 . S
C1465 C1457 1.433 . S
C1465 N1467 1.384 . S
N1466 C1462 1.427 . S
N1466 C1463 1.384 . S
N1467 C1459 1.427 . S
N1467 C1465 1.384 . S
H1468 C1474 0.930 . S
H1469 C1478 0.930 . S
H1470 C1483 0.929 . S
H1471 C1481 0.929 . S
H1472 C1476 0.929 . S
H1473 C1482 0.929 . S
C1474 H1468 0.930 . S
C1474 C1475 1.367 . S
C1474 C1482 1.378 . S
C1475 C1474 1.367 . S
C1475 C1483 1.433 . S
C1476 H1472 0.929 . S
C1476 C1478 1.378 . S
C1476 C1480 1.350 . S
C1477 C1480 1.463 . S
C1477 C1482 1.350 . S
C1477 N1485 1.427 . S
C1478 H1469 0.930 . S
C1478 C1476 1.378 . S
C1478 C1479 1.367 . S
C1479 C1478 1.367 . S
C1479 C1481 1.433 . S
C1480 C1476 1.350 . S
C1480 C1477 1.463 . S
C1480 N1484 1.427 . S
C1481 H1471 0.929 . S
C1481 C1479 1.433 . S
C1481 N1484 1.384 . S
C1482 H1473 0.929 . S
C1482 C1474 1.378 . S
C1482 C1477 1.350 . S
C1483 H1470 0.929 . S
C1483 C1475 1.433 . S
C1483 N1485 1.384 . S
N1484 C1480 1.427 . S
N1484 C1481 1.384 . S
N1485 C1477 1.427 . S
N1485 C1483 1.384 . S
H1486 C1492 0.930 . S
H1487 C1496 0.930 . S
H1488 C1501 0.929 . S
H1489 C1499 0.929 . S
H1490 C1494 0.929 . S
H1491 C1500 0.929 . S
C1492 H1486 0.930 . S
C1492 C1493 1.367 . S
C1492 C1500 1.378 . S
C1493 C1492 1.367 . S
C1493 C1501 1.433 . S
C1494 H1490 0.929 . S
C1494 C1496 1.378 . S
C1494 C1498 1.350 . S
C1495 C1498 1.463 . S
C1495 C1500 1.350 . S
C1495 N1503 1.427 . S
C1496 H1487 0.930 . S
C1496 C1494 1.378 . S
C1496 C1497 1.367 . S
C1497 C1496 1.367 . S
C1497 C1499 1.433 . S
C1498 C1494 1.350 . S
C1498 C1495 1.463 . S
C1498 N1502 1.427 . S
C1499 H1489 0.929 . S
C1499 C1497 1.433 . S
C1499 N1502 1.384 . S
C1500 H1491 0.929 . S
C1500 C1492 1.378 . S
C1500 C1495 1.350 . S
C1501 H1488 0.929 . S
C1501 C1493 1.433 . S
C1501 N1503 1.384 . S
N1502 C1498 1.427 . S
N1502 C1499 1.384 . S
N1503 C1495 1.427 . S
N1503 C1501 1.384 . S
H1504 C1510 0.930 . S
H1505 C1514 0.930 . S
H1506 C1519 0.929 . S
H1507 C1517 0.929 . S
H1508 C1512 0.929 . S
H1509 C1518 0.929 . S
C1510 H1504 0.930 . S
C1510 C1511 1.367 . S
C1510 C1518 1.378 . S
C1511 C1510 1.367 . S
C1511 C1519 1.433 . S
C1512 H1508 0.929 . S
C1512 C1514 1.378 . S
C1512 C1516 1.348 . S
C1513 C1516 1.467 1_565 S
C1513 C1518 1.350 . S
C1513 N1521 1.427 . S
C1514 H1505 0.930 . S
C1514 C1512 1.378 . S
C1514 C1515 1.367 . S
C1515 C1514 1.367 . S
C1515 C1517 1.433 . S
C1516 C1512 1.348 . S
C1516 C1513 1.467 1_545 S
C1516 N1520 1.425 . S
C1517 H1507 0.929 . S
C1517 C1515 1.433 . S
C1517 N1520 1.384 . S
C1518 H1509 0.929 . S
C1518 C1510 1.378 . S
C1518 C1513 1.350 . S
C1519 H1506 0.929 . S
C1519 C1511 1.433 . S
C1519 N1521 1.384 . S
N1520 C1516 1.425 . S
N1520 C1517 1.384 . S
N1521 C1513 1.427 . S
N1521 C1519 1.384 . S
H1522 C1528 0.930 . S
H1523 C1532 0.930 . S
H1524 C1537 0.929 . S
H1525 C1535 0.929 . S
H1526 C1530 0.929 . S
H1527 C1536 0.929 . S
C1528 H1522 0.930 . S
C1528 C1529 1.367 . S
C1528 C1536 1.378 . S
C1529 C1528 1.367 . S
C1529 C1537 1.433 . S
C1530 H1526 0.929 . S
C1530 C1532 1.378 . S
C1530 C1534 1.350 . S
C1531 C1534 1.463 1_655 S
C1531 C1536 1.350 . S
C1531 N1539 1.427 . S
C1532 H1523 0.930 . S
C1532 C1530 1.378 . S
C1532 C1533 1.367 . S
C1533 C1532 1.367 . S
C1533 C1535 1.433 . S
C1534 C1530 1.350 . S
C1534 C1531 1.463 1_455 S
C1534 N1538 1.427 . S
C1535 H1525 0.929 . S
C1535 C1533 1.433 . S
C1535 N1538 1.384 . S
C1536 H1527 0.929 . S
C1536 C1528 1.378 . S
C1536 C1531 1.350 . S
C1537 H1524 0.929 . S
C1537 C1529 1.433 . S
C1537 N1539 1.384 . S
N1538 C1534 1.427 . S
N1538 C1535 1.384 . S
N1539 C1531 1.427 . S
N1539 C1537 1.384 . S
H1540 C1546 0.930 . S
H1541 C1550 0.930 . S
H1542 C1555 0.929 . S
H1543 C1553 0.929 . S
H1544 C1548 0.929 . S
H1545 C1554 0.929 . S
C1546 H1540 0.930 . S
C1546 C1547 1.367 . S
C1546 C1554 1.378 . S
C1547 C1546 1.367 . S
C1547 C1555 1.433 . S
C1548 H1544 0.929 . S
C1548 C1550 1.378 . S
C1548 C1552 1.350 . S
C1549 C1552 1.463 1_545 S
C1549 C1554 1.350 . S
C1549 N1557 1.427 . S
C1550 H1541 0.930 . S
C1550 C1548 1.378 . S
C1550 C1551 1.367 . S
C1551 C1550 1.367 . S
C1551 C1553 1.433 . S
C1552 C1548 1.350 . S
C1552 C1549 1.463 1_565 S
C1552 N1556 1.427 . S
C1553 H1543 0.929 . S
C1553 C1551 1.433 . S
C1553 N1556 1.384 . S
C1554 H1545 0.929 . S
C1554 C1546 1.378 . S
C1554 C1549 1.350 . S
C1555 H1542 0.929 . S
C1555 C1547 1.433 . S
C1555 N1557 1.384 . S
N1556 C1552 1.427 . S
N1556 C1553 1.384 . S
N1557 C1549 1.427 . S
N1557 C1555 1.384 . S
H1558 C1564 0.930 . S
H1559 C1568 0.930 . S
H1560 C1573 0.929 . S
H1561 C1571 0.929 . S
H1562 C1566 0.929 . S
H1563 C1572 0.929 1_455 S
C1564 H1558 0.930 . S
C1564 C1565 1.367 . S
C1564 C1572 1.378 . S
C1565 C1564 1.367 . S
C1565 C1573 1.433 . S
C1566 H1562 0.929 . S
C1566 C1568 1.378 . S
C1566 C1570 1.350 . S
C1567 C1570 1.463 . S
C1567 C1572 1.350 1_455 S
C1567 N1575 1.427 . S
C1568 H1559 0.930 . S
C1568 C1566 1.378 . S
C1568 C1569 1.367 . S
C1569 C1568 1.367 . S
C1569 C1571 1.433 . S
C1570 C1566 1.350 . S
C1570 C1567 1.463 . S
C1570 N1574 1.427 . S
C1571 H1561 0.929 . S
C1571 C1569 1.433 . S
C1571 N1574 1.384 . S
C1572 H1563 0.929 1_655 S
C1572 C1564 1.378 . S
C1572 C1567 1.350 1_655 S
C1573 H1560 0.929 . S
C1573 C1565 1.433 . S
C1573 N1575 1.384 1_655 S
N1574 C1570 1.427 . S
N1574 C1571 1.384 . S
N1575 C1567 1.427 . S
N1575 C1573 1.384 1_455 S
H1576 C1582 0.930 . S
H1577 C1586 0.930 . S
H1578 C1591 0.929 . S
H1579 C1589 0.929 . S
H1580 C1584 0.929 1_545 S
H1581 C1590 0.929 . S
C1582 H1576 0.930 . S
C1582 C1583 1.367 . S
C1582 C1590 1.378 . S
C1583 C1582 1.367 . S
C1583 C1591 1.433 . S
C1584 H1580 0.929 1_565 S
C1584 C1586 1.378 . S
C1584 C1588 1.350 1_565 S
C1585 C1588 1.463 . S
C1585 C1590 1.350 . S
C1585 N1593 1.427 . S
C1586 H1577 0.930 . S
C1586 C1584 1.378 . S
C1586 C1587 1.367 . S
C1587 C1586 1.367 . S
C1587 C1589 1.433 . S
C1588 C1584 1.350 1_545 S
C1588 C1585 1.463 . S
C1588 N1592 1.427 1_545 S
C1589 H1579 0.929 . S
C1589 C1587 1.433 . S
C1589 N1592 1.384 . S
C1590 H1581 0.929 . S
C1590 C1582 1.378 . S
C1590 C1585 1.350 . S
C1591 H1578 0.929 . S
C1591 C1583 1.433 . S
C1591 N1593 1.384 . S
N1592 C1588 1.427 1_565 S
N1592 C1589 1.384 . S
N1593 C1585 1.427 . S
N1593 C1591 1.384 . S
H1594 C1600 0.930 . S
H1595 C1604 0.930 . S
H1596 C1609 0.929 . S
H1597 C1607 0.929 . S
H1598 C1602 0.911 1_655 S
H1599 C1608 0.929 . S
C1600 H1594 0.930 . S
C1600 C1601 1.367 . S
C1600 C1608 1.378 . S
C1601 C1600 1.367 . S
C1601 C1609 1.433 . S
C1602 H1598 0.911 1_455 S
C1602 C1604 1.378 . S
C1602 C1606 1.365 . S
C1603 C1606 1.430 1_655 S
C1603 C1608 1.350 . S
C1603 N1611 1.427 . S
C1604 H1595 0.930 . S
C1604 C1602 1.378 . S
C1604 C1605 1.367 . S
C1605 C1604 1.367 . S
C1605 C1607 1.433 . S
C1606 C1602 1.365 . S
C1606 C1603 1.430 1_455 S
C1606 N1610 1.444 . S
C1607 H1597 0.929 . S
C1607 C1605 1.433 . S
C1607 N1610 1.384 . S
C1608 H1599 0.929 . S
C1608 C1600 1.378 . S
C1608 C1603 1.350 . S
C1609 H1596 0.929 . S
C1609 C1601 1.433 . S
C1609 N1611 1.384 . S
N1610 C1606 1.444 . S
N1610 C1607 1.384 . S
N1611 C1603 1.427 . S
N1611 C1609 1.384 . S
H1612 C1618 0.930 . S
H1613 C1622 0.930 . S
H1614 C1627 0.929 . S
H1615 C1625 0.929 . S
H1616 C1620 0.929 . S
H1617 C1626 0.930 1_565 S
C1618 H1612 0.930 . S
C1618 C1619 1.367 . S
C1618 C1626 1.378 . S
C1619 C1618 1.367 . S
C1619 C1627 1.433 . S
C1620 H1616 0.929 . S
C1620 C1622 1.378 . S
C1620 C1624 1.350 . S
C1621 C1624 1.463 . S
C1621 C1626 1.350 1_565 S
C1621 N1629 1.427 1_565 S
C1622 H1613 0.930 . S
C1622 C1620 1.378 . S
C1622 C1623 1.367 . S
C1623 C1622 1.367 . S
C1623 C1625 1.433 . S
C1624 C1620 1.350 . S
C1624 C1621 1.463 . S
C1624 N1628 1.427 . S
C1625 H1615 0.929 . S
C1625 C1623 1.433 . S
C1625 N1628 1.384 . S
C1626 H1617 0.930 1_545 S
C1626 C1618 1.378 . S
C1626 C1621 1.350 1_545 S
C1627 H1614 0.929 . S
C1627 C1619 1.433 . S
C1627 N1629 1.384 . S
N1628 C1624 1.427 . S
N1628 C1625 1.384 . S
N1629 C1621 1.427 1_545 S
N1629 C1627 1.384 . S
H1630 C1636 0.930 . S
H1631 C1640 0.930 . S
H1632 C1645 0.929 . S
H1633 C1643 0.929 . S
H1634 C1638 0.929 . S
H1635 C1644 0.929 . S
C1636 H1630 0.930 . S
C1636 C1637 1.367 . S
C1636 C1644 1.378 . S
C1637 C1636 1.367 . S
C1637 C1645 1.433 . S
C1638 H1634 0.929 . S
C1638 C1640 1.378 . S
C1638 C1642 1.350 . S
C1639 C1642 1.463 1_655 S
C1639 C1644 1.350 . S
C1639 N1647 1.427 . S
C1640 H1631 0.930 . S
C1640 C1638 1.378 . S
C1640 C1641 1.367 . S
C1641 C1640 1.367 . S
C1641 C1643 1.433 . S
C1642 C1638 1.350 . S
C1642 C1639 1.463 1_455 S
C1642 N1646 1.427 . S
C1643 H1633 0.929 . S
C1643 C1641 1.433 . S
C1643 N1646 1.384 . S
C1644 H1635 0.929 . S
C1644 C1636 1.378 . S
C1644 C1639 1.350 . S
C1645 H1632 0.929 . S
C1645 C1637 1.433 . S
C1645 N1647 1.384 . S
N1646 C1642 1.427 . S
N1646 C1643 1.384 . S
N1647 C1639 1.427 . S
N1647 C1645 1.384 . S
H1648 C1654 0.930 . S
H1649 C1658 0.930 . S
H1650 C1663 0.929 . S
H1651 C1661 0.929 . S
H1652 C1656 0.929 . S
H1653 C1662 0.929 . S
C1654 H1648 0.930 . S
C1654 C1655 1.367 . S
C1654 C1662 1.378 . S
C1655 C1654 1.367 . S
C1655 C1663 1.433 . S
C1656 H1652 0.929 . S
C1656 C1658 1.378 1_554 S
C1656 C1660 1.350 . S
C1657 C1660 1.463 . S
C1657 C1662 1.350 . S
C1657 N1665 1.427 . S
C1658 H1649 0.930 . S
C1658 C1656 1.378 1_556 S
C1658 C1659 1.367 . S
C1659 C1658 1.367 . S
C1659 C1661 1.433 . S
C1660 C1656 1.350 . S
C1660 C1657 1.463 . S
C1660 N1664 1.427 1_554 S
C1661 H1651 0.929 . S
C1661 C1659 1.433 . S
C1661 N1664 1.384 . S
C1662 H1653 0.929 . S
C1662 C1654 1.378 . S
C1662 C1657 1.350 . S
C1663 H1650 0.929 . S
C1663 C1655 1.433 . S
C1663 N1665 1.384 . S
N1664 C1660 1.427 1_556 S
N1664 C1661 1.384 . S
N1665 C1657 1.427 . S
N1665 C1663 1.384 . S
H1666 C1672 0.930 . S
H1667 C1676 0.930 . S
H1668 C1681 0.929 . S
H1669 C1679 0.929 . S
H1670 C1674 0.929 . S
H1671 C1680 0.929 . S
C1672 H1666 0.930 . S
C1672 C1673 1.367 . S
C1672 C1680 1.378 . S
C1673 C1672 1.367 . S
C1673 C1681 1.433 . S
C1674 H1670 0.929 . S
C1674 C1676 1.378 . S
C1674 C1678 1.350 . S
C1675 C1678 1.463 1_556 S
C1675 C1680 1.350 . S
C1675 N1683 1.427 . S
C1676 H1667 0.930 . S
C1676 C1674 1.378 . S
C1676 C1677 1.367 . S
C1677 C1676 1.367 . S
C1677 C1679 1.433 . S
C1678 C1674 1.350 . S
C1678 C1675 1.463 1_554 S
C1678 N1682 1.427 . S
C1679 H1669 0.929 . S
C1679 C1677 1.433 . S
C1679 N1682 1.384 . S
C1680 H1671 0.929 . S
C1680 C1672 1.378 . S
C1680 C1675 1.350 . S
C1681 H1668 0.929 . S
C1681 C1673 1.433 . S
C1681 N1683 1.384 . S
N1682 C1678 1.427 . S
N1682 C1679 1.384 . S
N1683 C1675 1.427 . S
N1683 C1681 1.384 . S
H1684 C1690 0.930 . S
H1685 C1694 0.930 . S
H1686 C1699 0.929 . S
H1687 C1697 0.929 . S
H1688 C1692 0.929 . S
H1689 C1698 0.929 . S
C1690 H1684 0.930 . S
C1690 C1691 1.367 . S
C1690 C1698 1.378 1_556 S
C1691 C1690 1.367 . S
C1691 C1699 1.433 . S
C1692 H1688 0.929 . S
C1692 C1694 1.378 . S
C1692 C1696 1.350 . S
C1693 C1696 1.463 . S
C1693 C1698 1.350 . S
C1693 N1701 1.427 . S
C1694 H1685 0.930 . S
C1694 C1692 1.378 . S
C1694 C1695 1.367 . S
C1695 C1694 1.367 . S
C1695 C1697 1.433 . S
C1696 C1692 1.350 . S
C1696 C1693 1.463 . S
C1696 N1700 1.427 . S
C1697 H1687 0.929 . S
C1697 C1695 1.433 . S
C1697 N1700 1.384 . S
C1698 H1689 0.929 . S
C1698 C1690 1.378 1_554 S
C1698 C1693 1.350 . S
C1699 H1686 0.929 . S
C1699 C1691 1.433 . S
C1699 N1701 1.384 1_556 S
N1700 C1696 1.427 . S
N1700 C1697 1.384 . S
N1701 C1693 1.427 . S
N1701 C1699 1.384 1_554 S
H1702 C1708 0.930 . S
H1703 C1712 0.930 . S
H1704 C1717 0.929 . S
H1705 C1715 0.929 . S
H1706 C1710 0.929 . S
H1707 C1716 0.929 . S
C1708 H1702 0.930 . S
C1708 C1709 1.367 . S
C1708 C1716 1.378 . S
C1709 C1708 1.367 . S
C1709 C1717 1.433 . S
C1710 H1706 0.929 . S
C1710 C1712 1.378 . S
C1710 C1714 1.350 . S
C1711 C1714 1.463 1_554 S
C1711 C1716 1.350 . S
C1711 N1719 1.427 . S
C1712 H1703 0.930 . S
C1712 C1710 1.378 . S
C1712 C1713 1.367 . S
C1713 C1712 1.367 . S
C1713 C1715 1.433 . S
C1714 C1710 1.350 . S
C1714 C1711 1.463 1_556 S
C1714 N1718 1.427 . S
C1715 H1705 0.929 . S
C1715 C1713 1.433 . S
C1715 N1718 1.384 . S
C1716 H1707 0.929 . S
C1716 C1708 1.378 . S
C1716 C1711 1.350 . S
C1717 H1704 0.929 . S
C1717 C1709 1.433 . S
C1717 N1719 1.384 . S
N1718 C1714 1.427 . S
N1718 C1715 1.384 . S
N1719 C1711 1.427 . S
N1719 C1717 1.384 . S
H1720 C1726 0.930 . S
H1721 C1730 0.930 . S
H1722 C1735 0.929 . S
H1723 C1733 0.929 . S
H1724 C1728 0.929 . S
H1725 C1734 0.929 . S
C1726 H1720 0.930 . S
C1726 C1727 1.367 . S
C1726 C1734 1.378 . S
C1727 C1726 1.367 . S
C1727 C1735 1.433 . S
C1728 H1724 0.929 . S
C1728 C1730 1.378 . S
C1728 C1732 1.350 . S
C1729 C1732 1.463 1_556 S
C1729 C1734 1.350 . S
C1729 N1737 1.427 . S
C1730 H1721 0.930 . S
C1730 C1728 1.378 . S
C1730 C1731 1.367 . S
C1731 C1730 1.367 . S
C1731 C1733 1.433 . S
C1732 C1728 1.350 . S
C1732 C1729 1.463 1_554 S
C1732 N1736 1.427 . S
C1733 H1723 0.929 . S
C1733 C1731 1.433 . S
C1733 N1736 1.384 . S
C1734 H1725 0.929 . S
C1734 C1726 1.378 . S
C1734 C1729 1.350 . S
C1735 H1722 0.929 . S
C1735 C1727 1.433 . S
C1735 N1737 1.384 . S
N1736 C1732 1.427 . S
N1736 C1733 1.384 . S
N1737 C1729 1.427 . S
N1737 C1735 1.384 . S
H1738 C1744 0.930 . S
H1739 C1748 0.930 . S
H1740 C1753 0.929 . S
H1741 C1751 0.929 . S
H1742 C1746 0.918 1_554 S
H1743 C1752 0.929 . S
C1744 H1738 0.930 . S
C1744 C1745 1.367 . S
C1744 C1752 1.378 . S
C1745 C1744 1.367 . S
C1745 C1753 1.433 . S
C1746 H1742 0.918 1_556 S
C1746 C1748 1.413 . S
C1746 C1750 1.327 1_556 S
C1747 C1750 1.463 . S
C1747 C1752 1.350 . S
C1747 N1755 1.427 . S
C1748 H1739 0.930 . S
C1748 C1746 1.413 . S
C1748 C1749 1.367 . S
C1749 C1748 1.367 . S
C1749 C1751 1.433 . S
C1750 C1746 1.327 1_554 S
C1750 C1747 1.463 . S
C1750 N1754 1.427 . S
C1751 H1741 0.929 . S
C1751 C1749 1.433 . S
C1751 N1754 1.384 1_556 S
C1752 H1743 0.929 . S
C1752 C1744 1.378 . S
C1752 C1747 1.350 . S
C1753 H1740 0.929 . S
C1753 C1745 1.433 . S
C1753 N1755 1.384 . S
N1754 C1750 1.427 . S
N1754 C1751 1.384 1_554 S
N1755 C1747 1.427 . S
N1755 C1753 1.384 . S
H1756 C1762 0.930 . S
H1757 C1766 0.930 . S
H1758 C1771 0.929 . S
H1759 C1769 0.929 . S
H1760 C1764 0.929 . S
H1761 C1770 0.929 . S
C1762 H1756 0.930 . S
C1762 C1763 1.367 . S
C1762 C1770 1.378 . S
C1763 C1762 1.367 . S
C1763 C1771 1.433 . S
C1764 H1760 0.929 . S
C1764 C1766 1.378 . S
C1764 C1768 1.350 . S
C1765 C1768 1.463 1_554 S
C1765 C1770 1.350 . S
C1765 N1773 1.427 . S
C1766 H1757 0.930 . S
C1766 C1764 1.378 . S
C1766 C1767 1.367 . S
C1767 C1766 1.367 . S
C1767 C1769 1.433 . S
C1768 C1764 1.350 . S
C1768 C1765 1.463 1_556 S
C1768 N1772 1.427 . S
C1769 H1759 0.929 . S
C1769 C1767 1.433 . S
C1769 N1772 1.384 . S
C1770 H1761 0.929 . S
C1770 C1762 1.378 . S
C1770 C1765 1.350 . S
C1771 H1758 0.929 . S
C1771 C1763 1.433 . S
C1771 N1773 1.384 . S
N1772 C1768 1.427 . S
N1772 C1769 1.384 . S
N1773 C1765 1.427 . S
N1773 C1771 1.384 . S
H1774 C1780 0.930 . S
H1775 C1784 0.930 . S
H1776 C1789 0.929 . S
H1777 C1787 0.929 . S
H1778 C1782 0.929 . S
H1779 C1788 0.929 . S
C1780 H1774 0.930 . S
C1780 C1781 1.367 . S
C1780 C1788 1.378 1_556 S
C1781 C1780 1.367 . S
C1781 C1789 1.433 . S
C1782 H1778 0.929 . S
C1782 C1784 1.378 . S
C1782 C1786 1.350 . S
C1783 C1786 1.463 . S
C1783 C1788 1.350 . S
C1783 N1791 1.404 1_554 S
C1784 H1775 0.930 . S
C1784 C1782 1.378 . S
C1784 C1785 1.367 . S
C1785 C1784 1.367 . S
C1785 C1787 1.433 . S
C1786 C1782 1.350 . S
C1786 C1783 1.463 . S
C1786 N1790 1.427 . S
C1787 H1777 0.929 . S
C1787 C1785 1.433 . S
C1787 N1790 1.384 . S
C1788 H1779 0.929 . S
C1788 C1780 1.378 1_554 S
C1788 C1783 1.350 . S
C1789 H1776 0.929 . S
C1789 C1781 1.433 . S
C1789 N1791 1.420 . S
N1790 C1786 1.427 . S
N1790 C1787 1.384 . S
N1791 C1783 1.404 1_556 S
N1791 C1789 1.420 . S
H1792 C1798 0.930 . S
H1793 C1802 0.930 . S
H1794 C1807 0.929 . S
H1795 C1805 0.929 . S
H1796 C1800 0.929 . S
H1797 C1806 0.929 . S
C1798 H1792 0.930 . S
C1798 C1799 1.367 . S
C1798 C1806 1.378 . S
C1799 C1798 1.367 . S
C1799 C1807 1.433 . S
C1800 H1796 0.929 . S
C1800 C1802 1.378 . S
C1800 C1804 1.350 . S
C1801 C1804 1.463 1_455 S
C1801 C1806 1.350 . S
C1801 N1809 1.427 . S
C1802 H1793 0.930 . S
C1802 C1800 1.378 . S
C1802 C1803 1.367 . S
C1803 C1802 1.367 . S
C1803 C1805 1.433 . S
C1804 C1800 1.350 . S
C1804 C1801 1.463 1_655 S
C1804 N1808 1.427 . S
C1805 H1795 0.929 . S
C1805 C1803 1.433 . S
C1805 N1808 1.384 . S
C1806 H1797 0.929 . S
C1806 C1798 1.378 . S
C1806 C1801 1.350 . S
C1807 H1794 0.929 . S
C1807 C1799 1.433 . S
C1807 N1809 1.384 . S
N1808 C1804 1.427 . S
N1808 C1805 1.384 . S
N1809 C1801 1.427 . S
N1809 C1807 1.384 . S
H1810 C1816 0.930 . S
H1811 C1820 0.930 . S
H1812 C1825 0.929 . S
H1813 C1823 0.929 . S
H1814 C1818 0.929 . S
H1815 C1824 0.929 . S
C1816 H1810 0.930 . S
C1816 C1817 1.367 . S
C1816 C1824 1.378 . S
C1817 C1816 1.367 . S
C1817 C1825 1.433 . S
C1818 H1814 0.929 . S
C1818 C1820 1.378 . S
C1818 C1822 1.350 . S
C1819 C1822 1.463 1_455 S
C1819 C1824 1.350 . S
C1819 N1827 1.427 . S
C1820 H1811 0.930 . S
C1820 C1818 1.378 . S
C1820 C1821 1.367 . S
C1821 C1820 1.367 . S
C1821 C1823 1.433 . S
C1822 C1818 1.350 . S
C1822 C1819 1.463 1_655 S
C1822 N1826 1.427 . S
C1823 H1813 0.929 . S
C1823 C1821 1.433 . S
C1823 N1826 1.384 . S
C1824 H1815 0.929 . S
C1824 C1816 1.378 . S
C1824 C1819 1.350 . S
C1825 H1812 0.929 . S
C1825 C1817 1.433 . S
C1825 N1827 1.384 . S
N1826 C1822 1.427 . S
N1826 C1823 1.384 . S
N1827 C1819 1.427 . S
N1827 C1825 1.384 . S
H1828 C1834 0.930 . S
H1829 C1838 0.930 . S
H1830 C1843 0.929 . S
H1831 C1841 0.929 . S
H1832 C1836 0.907 1_565 S
H1833 C1842 0.929 . S
C1834 H1828 0.930 . S
C1834 C1835 1.367 . S
C1834 C1842 1.378 . S
C1835 C1834 1.367 . S
C1835 C1843 1.433 . S
C1836 H1832 0.907 1_545 S
C1836 C1838 1.378 . S
C1836 C1840 1.350 . S
C1837 C1840 1.463 1_565 S
C1837 C1842 1.350 . S
C1837 N1845 1.427 . S
C1838 H1829 0.930 . S
C1838 C1836 1.378 . S
C1838 C1839 1.367 . S
C1839 C1838 1.367 . S
C1839 C1841 1.433 . S
C1840 C1836 1.350 . S
C1840 C1837 1.463 1_545 S
C1840 N1844 1.427 . S
C1841 H1831 0.929 . S
C1841 C1839 1.433 . S
C1841 N1844 1.384 . S
C1842 H1833 0.929 . S
C1842 C1834 1.378 . S
C1842 C1837 1.350 . S
C1843 H1830 0.929 . S
C1843 C1835 1.433 . S
C1843 N1845 1.384 . S
N1844 C1840 1.427 . S
N1844 C1841 1.384 . S
N1845 C1837 1.427 . S
N1845 C1843 1.384 . S
H1846 C1852 0.930 . S
H1847 C1856 0.930 . S
H1848 C1861 0.929 . S
H1849 C1859 0.929 . S
H1850 C1854 0.920 1_455 S
H1851 C1860 0.929 . S
C1852 H1846 0.930 . S
C1852 C1853 1.367 . S
C1852 C1860 1.378 . S
C1853 C1852 1.367 . S
C1853 C1861 1.433 . S
C1854 H1850 0.920 1_655 S
C1854 C1856 1.397 . S
C1854 C1858 1.341 1_655 S
C1855 C1858 1.463 . S
C1855 C1860 1.350 . S
C1855 N1863 1.427 . S
C1856 H1847 0.930 . S
C1856 C1854 1.397 . S
C1856 C1857 1.367 . S
C1857 C1856 1.367 . S
C1857 C1859 1.433 . S
C1858 C1854 1.341 1_455 S
C1858 C1855 1.463 . S
C1858 N1862 1.427 1_455 S
C1859 H1849 0.929 . S
C1859 C1857 1.433 . S
C1859 N1862 1.384 . S
C1860 H1851 0.929 . S
C1860 C1852 1.378 . S
C1860 C1855 1.350 . S
C1861 H1848 0.929 . S
C1861 C1853 1.433 . S
C1861 N1863 1.384 . S
N1862 C1858 1.427 1_655 S
N1862 C1859 1.384 . S
N1863 C1855 1.427 . S
N1863 C1861 1.384 . S
H1864 C1870 0.930 . S
H1865 C1874 0.930 . S
H1866 C1879 0.929 . S
H1867 C1877 0.929 . S
H1868 C1872 0.929 1_565 S
H1869 C1878 0.929 . S
C1870 H1864 0.930 . S
C1870 C1871 1.367 . S
C1870 C1878 1.378 . S
C1871 C1870 1.367 . S
C1871 C1879 1.433 . S
C1872 H1868 0.929 1_545 S
C1872 C1874 1.378 . S
C1872 C1876 1.349 1_545 S
C1873 C1876 1.466 . S
C1873 C1878 1.350 . S
C1873 N1881 1.427 . S
C1874 H1865 0.930 . S
C1874 C1872 1.378 . S
C1874 C1875 1.367 . S
C1875 C1874 1.367 . S
C1875 C1877 1.433 . S
C1876 C1872 1.349 1_565 S
C1876 C1873 1.466 . S
C1876 N1880 1.425 1_565 S
C1877 H1867 0.929 . S
C1877 C1875 1.433 . S
C1877 N1880 1.384 . S
C1878 H1869 0.929 . S
C1878 C1870 1.378 . S
C1878 C1873 1.350 . S
C1879 H1866 0.929 . S
C1879 C1871 1.433 . S
C1879 N1881 1.384 . S
N1880 C1876 1.425 1_545 S
N1880 C1877 1.384 . S
N1881 C1873 1.427 . S
N1881 C1879 1.384 . S
H1882 C1888 0.930 . S
H1883 C1892 0.930 . S
H1884 C1897 0.929 . S
H1885 C1895 0.929 . S
H1886 C1890 0.939 . S
H1887 C1896 0.929 . S
C1888 H1882 0.930 . S
C1888 C1889 1.367 . S
C1888 C1896 1.378 . S
C1889 C1888 1.367 . S
C1889 C1897 1.433 . S
C1890 H1886 0.939 . S
C1890 C1892 1.378 . S
C1890 C1894 1.366 . S
C1891 C1894 1.429 1_655 S
C1891 C1896 1.350 . S
C1891 N1899 1.427 . S
C1892 H1883 0.930 . S
C1892 C1890 1.378 . S
C1892 C1893 1.367 . S
C1893 C1892 1.367 . S
C1893 C1895 1.433 . S
C1894 C1890 1.366 . S
C1894 C1891 1.429 1_455 S
C1894 N1898 1.444 . S
C1895 H1885 0.929 . S
C1895 C1893 1.433 . S
C1895 N1898 1.384 . S
C1896 H1887 0.929 . S
C1896 C1888 1.378 . S
C1896 C1891 1.350 . S
C1897 H1884 0.929 . S
C1897 C1889 1.433 . S
C1897 N1899 1.384 . S
N1898 C1894 1.444 . S
N1898 C1895 1.384 . S
N1899 C1891 1.427 . S
N1899 C1897 1.384 . S
H1900 C1906 0.930 . S
H1901 C1910 0.930 . S
H1902 C1915 0.929 . S
H1903 C1913 0.929 . S
H1904 C1908 0.929 . S
H1905 C1914 0.929 . S
C1906 H1900 0.930 . S
C1906 C1907 1.367 . S
C1906 C1914 1.378 . S
C1907 C1906 1.367 . S
C1907 C1915 1.433 . S
C1908 H1904 0.929 . S
C1908 C1910 1.378 . S
C1908 C1912 1.350 1_545 S
C1909 C1912 1.463 . S
C1909 C1914 1.350 . S
C1909 N1917 1.427 . S
C1910 H1901 0.930 . S
C1910 C1908 1.378 . S
C1910 C1911 1.367 . S
C1911 C1910 1.367 . S
C1911 C1913 1.433 . S
C1912 C1908 1.350 1_565 S
C1912 C1909 1.463 . S
C1912 N1916 1.427 1_565 S
C1913 H1903 0.929 . S
C1913 C1911 1.433 . S
C1913 N1916 1.384 . S
C1914 H1905 0.929 . S
C1914 C1906 1.378 . S
C1914 C1909 1.350 . S
C1915 H1902 0.929 . S
C1915 C1907 1.433 . S
C1915 N1917 1.384 . S
N1916 C1912 1.427 1_545 S
N1916 C1913 1.384 . S
N1917 C1909 1.427 . S
N1917 C1915 1.384 . S
H1918 C1924 0.930 . S
H1919 C1928 0.930 . S
H1920 C1933 0.929 . S
H1921 C1931 0.929 . S
H1922 C1926 0.929 . S
H1923 C1932 0.929 1_545 S
C1924 H1918 0.930 . S
C1924 C1925 1.367 . S
C1924 C1932 1.378 . S
C1925 C1924 1.367 . S
C1925 C1933 1.433 . S
C1926 H1922 0.929 . S
C1926 C1928 1.378 . S
C1926 C1930 1.350 . S
C1927 C1930 1.463 . S
C1927 C1932 1.350 1_545 S
C1927 N1935 1.427 1_545 S
C1928 H1919 0.930 . S
C1928 C1926 1.378 . S
C1928 C1929 1.367 . S
C1929 C1928 1.367 . S
C1929 C1931 1.433 . S
C1930 C1926 1.350 . S
C1930 C1927 1.463 . S
C1930 N1934 1.427 . S
C1931 H1921 0.929 . S
C1931 C1929 1.433 . S
C1931 N1934 1.384 . S
C1932 H1923 0.929 1_565 S
C1932 C1924 1.378 . S
C1932 C1927 1.350 1_565 S
C1933 H1920 0.929 . S
C1933 C1925 1.433 . S
C1933 N1935 1.384 . S
N1934 C1930 1.427 . S
N1934 C1931 1.384 . S
N1935 C1927 1.427 1_565 S
N1935 C1933 1.384 . S
H1936 C1942 0.930 . S
H1937 C1946 0.930 . S
H1938 C1951 0.929 . S
H1939 C1949 0.929 . S
H1940 C1944 0.929 . S
H1941 C1950 0.929 . S
C1942 H1936 0.930 . S
C1942 C1943 1.367 . S
C1942 C1950 1.378 . S
C1943 C1942 1.367 . S
C1943 C1951 1.433 . S
C1944 H1940 0.929 . S
C1944 C1946 1.378 . S
C1944 C1948 1.350 . S
C1945 C1948 1.463 . S
C1945 C1950 1.350 . S
C1945 N1953 1.427 . S
C1946 H1937 0.930 . S
C1946 C1944 1.378 . S
C1946 C1947 1.367 . S
C1947 C1946 1.367 . S
C1947 C1949 1.433 . S
C1948 C1944 1.350 . S
C1948 C1945 1.463 . S
C1948 N1952 1.427 . S
C1949 H1939 0.929 . S
C1949 C1947 1.433 . S
C1949 N1952 1.384 . S
C1950 H1941 0.929 . S
C1950 C1942 1.378 . S
C1950 C1945 1.350 . S
C1951 H1938 0.929 . S
C1951 C1943 1.433 . S
C1951 N1953 1.384 . S
N1952 C1948 1.427 . S
N1952 C1949 1.384 . S
N1953 C1945 1.427 . S
N1953 C1951 1.384 . S
H1954 C1960 0.930 . S
H1955 C1964 0.930 . S
H1956 C1969 0.929 . S
H1957 C1967 0.929 . S
H1958 C1962 0.929 . S
H1959 C1968 0.929 . S
C1960 H1954 0.930 . S
C1960 C1961 1.367 . S
C1960 C1968 1.378 . S
C1961 C1960 1.367 . S
C1961 C1969 1.433 . S
C1962 H1958 0.929 . S
C1962 C1964 1.378 . S
C1962 C1966 1.350 . S
C1963 C1966 1.463 . S
C1963 C1968 1.350 . S
C1963 N1971 1.427 . S
C1964 H1955 0.930 . S
C1964 C1962 1.378 . S
C1964 C1965 1.367 . S
C1965 C1964 1.367 . S
C1965 C1967 1.433 . S
C1966 C1962 1.350 . S
C1966 C1963 1.463 . S
C1966 N1970 1.427 . S
C1967 H1957 0.929 . S
C1967 C1965 1.433 . S
C1967 N1970 1.384 . S
C1968 H1959 0.929 . S
C1968 C1960 1.378 . S
C1968 C1963 1.350 . S
C1969 H1956 0.929 . S
C1969 C1961 1.433 . S
C1969 N1971 1.384 . S
N1970 C1966 1.427 . S
N1970 C1967 1.384 . S
N1971 C1963 1.427 . S
N1971 C1969 1.384 . S
H1972 C1978 0.930 . S
H1973 C1982 0.930 . S
H1974 C1987 0.929 . S
H1975 C1985 0.929 . S
H1976 C1980 0.929 . S
H1977 C1986 0.929 . S
C1978 H1972 0.930 . S
C1978 C1979 1.367 . S
C1978 C1986 1.378 . S
C1979 C1978 1.367 . S
C1979 C1987 1.433 . S
C1980 H1976 0.929 . S
C1980 C1982 1.378 . S
C1980 C1984 1.350 . S
C1981 C1984 1.463 . S
C1981 C1986 1.350 . S
C1981 N1989 1.427 . S
C1982 H1973 0.930 . S
C1982 C1980 1.378 . S
C1982 C1983 1.367 . S
C1983 C1982 1.367 . S
C1983 C1985 1.433 . S
C1984 C1980 1.350 . S
C1984 C1981 1.463 . S
C1984 N1988 1.427 . S
C1985 H1975 0.929 . S
C1985 C1983 1.433 . S
C1985 N1988 1.384 . S
C1986 H1977 0.929 . S
C1986 C1978 1.378 . S
C1986 C1981 1.350 . S
C1987 H1974 0.929 . S
C1987 C1979 1.433 . S
C1987 N1989 1.384 . S
N1988 C1984 1.427 . S
N1988 C1985 1.384 . S
N1989 C1981 1.427 . S
N1989 C1987 1.384 . S
H1990 C1996 0.930 . S
H1991 C2000 0.930 . S
H1992 C2005 0.929 . S
H1993 C2003 0.929 . S
H1994 C1998 0.929 . S
H1995 C2004 0.929 . S
C1996 H1990 0.930 . S
C1996 C1997 1.367 . S
C1996 C2004 1.378 . S
C1997 C1996 1.367 . S
C1997 C2005 1.433 . S
C1998 H1994 0.929 . S
C1998 C2000 1.378 . S
C1998 C2002 1.350 . S
C1999 C2002 1.463 . S
C1999 C2004 1.350 . S
C1999 N2007 1.427 . S
C2000 H1991 0.930 . S
C2000 C1998 1.378 . S
C2000 C2001 1.367 . S
C2001 C2000 1.367 . S
C2001 C2003 1.433 . S
C2002 C1998 1.350 . S
C2002 C1999 1.463 . S
C2002 N2006 1.427 . S
C2003 H1993 0.929 . S
C2003 C2001 1.433 . S
C2003 N2006 1.384 . S
C2004 H1995 0.929 . S
C2004 C1996 1.378 . S
C2004 C1999 1.350 . S
C2005 H1992 0.929 . S
C2005 C1997 1.433 . S
C2005 N2007 1.384 . S
N2006 C2002 1.427 . S
N2006 C2003 1.384 . S
N2007 C1999 1.427 . S
N2007 C2005 1.384 . S
H2008 C2014 0.930 . S
H2009 C2018 0.930 . S
H2010 C2023 0.929 . S
H2011 C2021 0.929 . S
H2012 C2016 0.929 . S
H2013 C2022 0.929 . S
C2014 H2008 0.930 . S
C2014 C2015 1.367 . S
C2014 C2022 1.378 . S
C2015 C2014 1.367 . S
C2015 C2023 1.433 . S
C2016 H2012 0.929 . S
C2016 C2018 1.378 . S
C2016 C2020 1.350 . S
C2017 C2020 1.463 . S
C2017 C2022 1.350 . S
C2017 N2025 1.427 . S
C2018 H2009 0.930 . S
C2018 C2016 1.378 . S
C2018 C2019 1.367 . S
C2019 C2018 1.367 . S
C2019 C2021 1.433 . S
C2020 C2016 1.350 . S
C2020 C2017 1.463 . S
C2020 N2024 1.427 . S
C2021 H2011 0.929 . S
C2021 C2019 1.433 . S
C2021 N2024 1.384 . S
C2022 H2013 0.929 . S
C2022 C2014 1.378 . S
C2022 C2017 1.350 . S
C2023 H2010 0.929 . S
C2023 C2015 1.433 . S
C2023 N2025 1.384 . S
N2024 C2020 1.427 . S
N2024 C2021 1.384 . S
N2025 C2017 1.427 . S
N2025 C2023 1.384 . S
H2026 C2032 0.930 . S
H2027 C2036 0.930 . S
H2028 C2041 0.929 . S
H2029 C2039 0.929 . S
H2030 C2034 0.929 . S
H2031 C2040 0.929 . S
C2032 H2026 0.930 . S
C2032 C2033 1.367 . S
C2032 C2040 1.378 . S
C2033 C2032 1.367 . S
C2033 C2041 1.433 . S
C2034 H2030 0.929 . S
C2034 C2036 1.378 . S
C2034 C2038 1.350 . S
C2035 C2038 1.463 . S
C2035 C2040 1.350 . S
C2035 N2043 1.427 . S
C2036 H2027 0.930 . S
C2036 C2034 1.378 . S
C2036 C2037 1.367 . S
C2037 C2036 1.367 . S
C2037 C2039 1.433 . S
C2038 C2034 1.350 . S
C2038 C2035 1.463 . S
C2038 N2042 1.427 . S
C2039 H2029 0.929 . S
C2039 C2037 1.433 . S
C2039 N2042 1.384 . S
C2040 H2031 0.929 . S
C2040 C2032 1.378 . S
C2040 C2035 1.350 . S
C2041 H2028 0.929 . S
C2041 C2033 1.433 . S
C2041 N2043 1.384 . S
N2042 C2038 1.427 . S
N2042 C2039 1.384 . S
N2043 C2035 1.427 . S
N2043 C2041 1.384 . S
H2044 C2050 0.930 . S
H2045 C2054 0.930 . S
H2046 C2059 0.929 . S
H2047 C2057 0.929 . S
H2048 C2052 0.929 . S
H2049 C2058 0.929 . S
C2050 H2044 0.930 . S
C2050 C2051 1.367 . S
C2050 C2058 1.378 . S
C2051 C2050 1.367 . S
C2051 C2059 1.433 . S
C2052 H2048 0.929 . S
C2052 C2054 1.378 . S
C2052 C2056 1.350 . S
C2053 C2056 1.463 . S
C2053 C2058 1.350 . S
C2053 N2061 1.427 . S
C2054 H2045 0.930 . S
C2054 C2052 1.378 . S
C2054 C2055 1.367 . S
C2055 C2054 1.367 . S
C2055 C2057 1.433 . S
C2056 C2052 1.350 . S
C2056 C2053 1.463 . S
C2056 N2060 1.427 . S
C2057 H2047 0.929 . S
C2057 C2055 1.433 . S
C2057 N2060 1.384 . S
C2058 H2049 0.929 . S
C2058 C2050 1.378 . S
C2058 C2053 1.350 . S
C2059 H2046 0.929 . S
C2059 C2051 1.433 . S
C2059 N2061 1.384 . S
N2060 C2056 1.427 . S
N2060 C2057 1.384 . S
N2061 C2053 1.427 . S
N2061 C2059 1.384 . S
H2062 C2068 0.930 . S
H2063 C2072 0.930 . S
H2064 C2077 0.929 . S
H2065 C2075 0.929 . S
H2066 C2070 0.929 . S
H2067 C2076 0.929 . S
C2068 H2062 0.930 . S
C2068 C2069 1.367 . S
C2068 C2076 1.378 . S
C2069 C2068 1.367 . S
C2069 C2077 1.433 . S
C2070 H2066 0.929 . S
C2070 C2072 1.378 . S
C2070 C2074 1.350 . S
C2071 C2074 1.463 . S
C2071 C2076 1.350 . S
C2071 N2079 1.427 . S
C2072 H2063 0.930 . S
C2072 C2070 1.378 . S
C2072 C2073 1.367 . S
C2073 C2072 1.367 . S
C2073 C2075 1.433 . S
C2074 C2070 1.350 . S
C2074 C2071 1.463 . S
C2074 N2078 1.427 . S
C2075 H2065 0.929 . S
C2075 C2073 1.433 . S
C2075 N2078 1.384 . S
C2076 H2067 0.929 . S
C2076 C2068 1.378 . S
C2076 C2071 1.350 . S
C2077 H2064 0.929 . S
C2077 C2069 1.433 . S
C2077 N2079 1.384 . S
N2078 C2074 1.427 . S
N2078 C2075 1.384 . S
N2079 C2071 1.427 . S
N2079 C2077 1.384 . S
H2080 C2086 0.930 . S
H2081 C2090 0.930 . S
H2082 C2095 0.929 . S
H2083 C2093 0.929 . S
H2084 C2088 0.929 . S
H2085 C2094 0.929 . S
C2086 H2080 0.930 . S
C2086 C2087 1.367 . S
C2086 C2094 1.378 . S
C2087 C2086 1.367 . S
C2087 C2095 1.433 . S
C2088 H2084 0.929 . S
C2088 C2090 1.378 . S
C2088 C2092 1.350 . S
C2089 C2092 1.463 . S
C2089 C2094 1.350 . S
C2089 N2097 1.427 . S
C2090 H2081 0.930 . S
C2090 C2088 1.378 . S
C2090 C2091 1.367 . S
C2091 C2090 1.367 . S
C2091 C2093 1.433 . S
C2092 C2088 1.350 . S
C2092 C2089 1.463 . S
C2092 N2096 1.427 . S
C2093 H2083 0.929 . S
C2093 C2091 1.433 . S
C2093 N2096 1.384 . S
C2094 H2085 0.929 . S
C2094 C2086 1.378 . S
C2094 C2089 1.350 . S
C2095 H2082 0.929 . S
C2095 C2087 1.433 . S
C2095 N2097 1.384 . S
N2096 C2092 1.427 . S
N2096 C2093 1.384 . S
N2097 C2089 1.427 . S
N2097 C2095 1.384 . S
H2098 C2104 0.930 . S
H2099 C2108 0.930 . S
H2100 C2113 0.929 . S
H2101 C2111 0.929 . S
H2102 C2106 0.929 . S
H2103 C2112 0.929 . S
C2104 H2098 0.930 . S
C2104 C2105 1.367 . S
C2104 C2112 1.378 . S
C2105 C2104 1.367 . S
C2105 C2113 1.433 . S
C2106 H2102 0.929 . S
C2106 C2108 1.378 . S
C2106 C2110 1.350 . S
C2107 C2110 1.463 . S
C2107 C2112 1.350 . S
C2107 N2115 1.427 . S
C2108 H2099 0.930 . S
C2108 C2106 1.378 . S
C2108 C2109 1.367 . S
C2109 C2108 1.367 . S
C2109 C2111 1.433 . S
C2110 C2106 1.350 . S
C2110 C2107 1.463 . S
C2110 N2114 1.427 . S
C2111 H2101 0.929 . S
C2111 C2109 1.433 . S
C2111 N2114 1.384 . S
C2112 H2103 0.929 . S
C2112 C2104 1.378 . S
C2112 C2107 1.350 . S
C2113 H2100 0.929 . S
C2113 C2105 1.433 . S
C2113 N2115 1.384 . S
N2114 C2110 1.427 . S
N2114 C2111 1.384 . S
N2115 C2107 1.427 . S
N2115 C2113 1.384 . S
H2116 C2122 0.930 . S
H2117 C2126 0.930 . S
H2118 C2131 0.929 . S
H2119 C2129 0.929 . S
H2120 C2124 0.929 . S
H2121 C2130 0.929 . S
C2122 H2116 0.930 . S
C2122 C2123 1.367 . S
C2122 C2130 1.378 . S
C2123 C2122 1.367 . S
C2123 C2131 1.433 . S
C2124 H2120 0.929 . S
C2124 C2126 1.378 . S
C2124 C2128 1.350 . S
C2125 C2128 1.463 . S
C2125 C2130 1.350 . S
C2125 N2133 1.427 . S
C2126 H2117 0.930 . S
C2126 C2124 1.378 . S
C2126 C2127 1.367 . S
C2127 C2126 1.367 . S
C2127 C2129 1.433 . S
C2128 C2124 1.350 . S
C2128 C2125 1.463 . S
C2128 N2132 1.427 . S
C2129 H2119 0.929 . S
C2129 C2127 1.433 . S
C2129 N2132 1.384 . S
C2130 H2121 0.929 . S
C2130 C2122 1.378 . S
C2130 C2125 1.350 . S
C2131 H2118 0.929 . S
C2131 C2123 1.433 . S
C2131 N2133 1.384 . S
N2132 C2128 1.427 . S
N2132 C2129 1.384 . S
N2133 C2125 1.427 . S
N2133 C2131 1.384 . S
H2134 C2140 0.930 . S
H2135 C2144 0.930 . S
H2136 C2149 0.929 . S
H2137 C2147 0.929 . S
H2138 C2142 0.929 . S
H2139 C2148 0.929 . S
C2140 H2134 0.930 . S
C2140 C2141 1.367 . S
C2140 C2148 1.378 . S
C2141 C2140 1.367 . S
C2141 C2149 1.433 . S
C2142 H2138 0.929 . S
C2142 C2144 1.378 . S
C2142 C2146 1.350 . S
C2143 C2146 1.463 . S
C2143 C2148 1.350 . S
C2143 N2151 1.427 . S
C2144 H2135 0.930 . S
C2144 C2142 1.378 . S
C2144 C2145 1.367 . S
C2145 C2144 1.367 . S
C2145 C2147 1.433 . S
C2146 C2142 1.350 . S
C2146 C2143 1.463 . S
C2146 N2150 1.427 . S
C2147 H2137 0.929 . S
C2147 C2145 1.433 . S
C2147 N2150 1.384 . S
C2148 H2139 0.929 . S
C2148 C2140 1.378 . S
C2148 C2143 1.350 . S
C2149 H2136 0.929 . S
C2149 C2141 1.433 . S
C2149 N2151 1.384 . S
N2150 C2146 1.427 . S
N2150 C2147 1.384 . S
N2151 C2143 1.427 . S
N2151 C2149 1.384 . S
H2152 C2158 0.930 . S
H2153 C2162 0.930 . S
H2154 C2167 0.929 . S
H2155 C2165 0.929 . S
H2156 C2160 0.929 . S
H2157 C2166 0.929 . S
C2158 H2152 0.930 . S
C2158 C2159 1.367 . S
C2158 C2166 1.378 . S
C2159 C2158 1.367 . S
C2159 C2167 1.433 . S
C2160 H2156 0.929 . S
C2160 C2162 1.378 . S
C2160 C2164 1.350 . S
C2161 C2164 1.463 . S
C2161 C2166 1.350 . S
C2161 N2169 1.427 . S
C2162 H2153 0.930 . S
C2162 C2160 1.378 . S
C2162 C2163 1.367 . S
C2163 C2162 1.367 . S
C2163 C2165 1.433 . S
C2164 C2160 1.350 . S
C2164 C2161 1.463 . S
C2164 N2168 1.427 . S
C2165 H2155 0.929 . S
C2165 C2163 1.433 . S
C2165 N2168 1.384 . S
C2166 H2157 0.929 . S
C2166 C2158 1.378 . S
C2166 C2161 1.350 . S
C2167 H2154 0.929 . S
C2167 C2159 1.433 . S
C2167 N2169 1.384 . S
N2168 C2164 1.427 . S
N2168 C2165 1.384 . S
N2169 C2161 1.427 . S
N2169 C2167 1.384 . S
H2170 C2176 0.930 . S
H2171 C2180 0.930 . S
H2172 C2185 0.929 . S
H2173 C2183 0.929 . S
H2174 C2178 0.929 . S
H2175 C2184 0.929 . S
C2176 H2170 0.930 . S
C2176 C2177 1.367 . S
C2176 C2184 1.378 . S
C2177 C2176 1.367 . S
C2177 C2185 1.433 . S
C2178 H2174 0.929 . S
C2178 C2180 1.378 . S
C2178 C2182 1.350 . S
C2179 C2182 1.463 . S
C2179 C2184 1.350 . S
C2179 N2187 1.427 . S
C2180 H2171 0.930 . S
C2180 C2178 1.378 . S
C2180 C2181 1.367 . S
C2181 C2180 1.367 . S
C2181 C2183 1.433 . S
C2182 C2178 1.350 . S
C2182 C2179 1.463 . S
C2182 N2186 1.427 . S
C2183 H2173 0.929 . S
C2183 C2181 1.433 . S
C2183 N2186 1.384 . S
C2184 H2175 0.929 . S
C2184 C2176 1.378 . S
C2184 C2179 1.350 . S
C2185 H2172 0.929 . S
C2185 C2177 1.433 . S
C2185 N2187 1.384 . S
N2186 C2182 1.427 . S
N2186 C2183 1.384 . S
N2187 C2179 1.427 . S
N2187 C2185 1.384 . S
H2188 C2194 0.930 . S
H2189 C2198 0.930 . S
H2190 C2203 0.929 . S
H2191 C2201 0.929 . S
H2192 C2196 0.929 . S
H2193 C2202 0.929 . S
C2194 H2188 0.930 . S
C2194 C2195 1.367 . S
C2194 C2202 1.378 . S
C2195 C2194 1.367 . S
C2195 C2203 1.433 . S
C2196 H2192 0.929 . S
C2196 C2198 1.378 . S
C2196 C2200 1.350 . S
C2197 C2200 1.463 . S
C2197 C2202 1.350 . S
C2197 N2205 1.427 . S
C2198 H2189 0.930 . S
C2198 C2196 1.378 . S
C2198 C2199 1.367 . S
C2199 C2198 1.367 . S
C2199 C2201 1.433 . S
C2200 C2196 1.350 . S
C2200 C2197 1.463 . S
C2200 N2204 1.427 . S
C2201 H2191 0.929 . S
C2201 C2199 1.433 . S
C2201 N2204 1.384 . S
C2202 H2193 0.929 . S
C2202 C2194 1.378 . S
C2202 C2197 1.350 . S
C2203 H2190 0.929 . S
C2203 C2195 1.433 . S
C2203 N2205 1.384 . S
N2204 C2200 1.427 . S
N2204 C2201 1.384 . S
N2205 C2197 1.427 . S
N2205 C2203 1.384 . S
H2206 C2212 0.930 . S
H2207 C2216 0.930 . S
H2208 C2221 0.929 . S
H2209 C2219 0.929 . S
H2210 C2214 0.929 . S
H2211 C2220 0.929 . S
C2212 H2206 0.930 . S
C2212 C2213 1.367 . S
C2212 C2220 1.378 . S
C2213 C2212 1.367 . S
C2213 C2221 1.433 . S
C2214 H2210 0.929 . S
C2214 C2216 1.378 . S
C2214 C2218 1.350 . S
C2215 C2218 1.463 . S
C2215 C2220 1.350 . S
C2215 N2223 1.427 . S
C2216 H2207 0.930 . S
C2216 C2214 1.378 . S
C2216 C2217 1.367 . S
C2217 C2216 1.367 . S
C2217 C2219 1.433 . S
C2218 C2214 1.350 . S
C2218 C2215 1.463 . S
C2218 N2222 1.427 . S
C2219 H2209 0.929 . S
C2219 C2217 1.433 . S
C2219 N2222 1.384 . S
C2220 H2211 0.929 . S
C2220 C2212 1.378 . S
C2220 C2215 1.350 . S
C2221 H2208 0.929 . S
C2221 C2213 1.433 . S
C2221 N2223 1.384 . S
N2222 C2218 1.427 . S
N2222 C2219 1.384 . S
N2223 C2215 1.427 . S
N2223 C2221 1.384 . S
H2224 C2230 0.930 . S
H2225 C2234 0.930 . S
H2226 C2239 0.929 . S
H2227 C2237 0.929 . S
H2228 C2232 0.929 . S
H2229 C2238 0.929 . S
C2230 H2224 0.930 . S
C2230 C2231 1.367 . S
C2230 C2238 1.378 . S
C2231 C2230 1.367 . S
C2231 C2239 1.433 . S
C2232 H2228 0.929 . S
C2232 C2234 1.378 . S
C2232 C2236 1.350 . S
C2233 C2236 1.463 . S
C2233 C2238 1.350 . S
C2233 N2241 1.427 . S
C2234 H2225 0.930 . S
C2234 C2232 1.378 . S
C2234 C2235 1.367 . S
C2235 C2234 1.367 . S
C2235 C2237 1.433 . S
C2236 C2232 1.350 . S
C2236 C2233 1.463 . S
C2236 N2240 1.427 . S
C2237 H2227 0.929 . S
C2237 C2235 1.433 . S
C2237 N2240 1.384 . S
C2238 H2229 0.929 . S
C2238 C2230 1.378 . S
C2238 C2233 1.350 . S
C2239 H2226 0.929 . S
C2239 C2231 1.433 . S
C2239 N2241 1.384 . S
N2240 C2236 1.427 . S
N2240 C2237 1.384 . S
N2241 C2233 1.427 . S
N2241 C2239 1.384 . S
H2242 C2248 0.930 . S
H2243 C2252 0.930 . S
H2244 C2257 0.929 . S
H2245 C2255 0.929 . S
H2246 C2250 0.929 . S
H2247 C2256 0.929 . S
C2248 H2242 0.930 . S
C2248 C2249 1.367 . S
C2248 C2256 1.378 . S
C2249 C2248 1.367 . S
C2249 C2257 1.433 . S
C2250 H2246 0.929 . S
C2250 C2252 1.378 . S
C2250 C2254 1.350 . S
C2251 C2254 1.463 . S
C2251 C2256 1.350 . S
C2251 N2259 1.427 . S
C2252 H2243 0.930 . S
C2252 C2250 1.378 . S
C2252 C2253 1.367 . S
C2253 C2252 1.367 . S
C2253 C2255 1.433 . S
C2254 C2250 1.350 . S
C2254 C2251 1.463 . S
C2254 N2258 1.427 . S
C2255 H2245 0.929 . S
C2255 C2253 1.433 . S
C2255 N2258 1.384 . S
C2256 H2247 0.929 . S
C2256 C2248 1.378 . S
C2256 C2251 1.350 . S
C2257 H2244 0.929 . S
C2257 C2249 1.433 . S
C2257 N2259 1.384 . S
N2258 C2254 1.427 . S
N2258 C2255 1.384 . S
N2259 C2251 1.427 . S
N2259 C2257 1.384 . S
H2260 C2266 0.930 . S
H2261 C2270 0.930 . S
H2262 C2275 0.929 . S
H2263 C2273 0.929 . S
H2264 C2268 0.929 . S
H2265 C2274 0.929 . S
C2266 H2260 0.930 . S
C2266 C2267 1.367 . S
C2266 C2274 1.378 . S
C2267 C2266 1.367 . S
C2267 C2275 1.433 . S
C2268 H2264 0.929 . S
C2268 C2270 1.378 . S
C2268 C2272 1.350 . S
C2269 C2272 1.463 . S
C2269 C2274 1.350 . S
C2269 N2277 1.427 . S
C2270 H2261 0.930 . S
C2270 C2268 1.378 . S
C2270 C2271 1.367 . S
C2271 C2270 1.367 . S
C2271 C2273 1.433 . S
C2272 C2268 1.350 . S
C2272 C2269 1.463 . S
C2272 N2276 1.427 . S
C2273 H2263 0.929 . S
C2273 C2271 1.433 . S
C2273 N2276 1.384 . S
C2274 H2265 0.929 . S
C2274 C2266 1.378 . S
C2274 C2269 1.350 . S
C2275 H2262 0.929 . S
C2275 C2267 1.433 . S
C2275 N2277 1.384 . S
N2276 C2272 1.427 . S
N2276 C2273 1.384 . S
N2277 C2269 1.427 . S
N2277 C2275 1.384 . S
H2278 C2284 0.930 . S
H2279 C2288 0.930 . S
H2280 C2293 0.929 . S
H2281 C2291 0.929 . S
H2282 C2286 0.929 . S
H2283 C2292 0.929 . S
C2284 H2278 0.930 . S
C2284 C2285 1.367 . S
C2284 C2292 1.378 . S
C2285 C2284 1.367 . S
C2285 C2293 1.433 . S
C2286 H2282 0.929 . S
C2286 C2288 1.378 . S
C2286 C2290 1.350 . S
C2287 C2290 1.463 . S
C2287 C2292 1.350 . S
C2287 N2295 1.427 . S
C2288 H2279 0.930 . S
C2288 C2286 1.378 . S
C2288 C2289 1.367 . S
C2289 C2288 1.367 . S
C2289 C2291 1.433 . S
C2290 C2286 1.350 . S
C2290 C2287 1.463 . S
C2290 N2294 1.427 . S
C2291 H2281 0.929 . S
C2291 C2289 1.433 . S
C2291 N2294 1.384 . S
C2292 H2283 0.929 . S
C2292 C2284 1.378 . S
C2292 C2287 1.350 . S
C2293 H2280 0.929 . S
C2293 C2285 1.433 . S
C2293 N2295 1.384 . S
N2294 C2290 1.427 . S
N2294 C2291 1.384 . S
N2295 C2287 1.427 . S
N2295 C2293 1.384 . S
H2296 C2302 0.930 . S
H2297 C2306 0.930 . S
H2298 C2311 0.929 . S
H2299 C2309 0.929 . S
H2300 C2304 0.929 . S
H2301 C2310 0.929 . S
C2302 H2296 0.930 . S
C2302 C2303 1.367 . S
C2302 C2310 1.378 . S
C2303 C2302 1.367 . S
C2303 C2311 1.433 . S
C2304 H2300 0.929 . S
C2304 C2306 1.378 . S
C2304 C2308 1.350 . S
C2305 C2308 1.463 . S
C2305 C2310 1.350 . S
C2305 N2313 1.427 . S
C2306 H2297 0.930 . S
C2306 C2304 1.378 . S
C2306 C2307 1.367 . S
C2307 C2306 1.367 . S
C2307 C2309 1.433 . S
C2308 C2304 1.350 . S
C2308 C2305 1.463 . S
C2308 N2312 1.427 . S
C2309 H2299 0.929 . S
C2309 C2307 1.433 . S
C2309 N2312 1.384 . S
C2310 H2301 0.929 . S
C2310 C2302 1.378 . S
C2310 C2305 1.350 . S
C2311 H2298 0.929 . S
C2311 C2303 1.433 . S
C2311 N2313 1.384 . S
N2312 C2308 1.427 . S
N2312 C2309 1.384 . S
N2313 C2305 1.427 . S
N2313 C2311 1.384 . S
H2314 C2320 0.930 . S
H2315 C2324 0.930 . S
H2316 C2329 0.929 . S
H2317 C2327 0.929 . S
H2318 C2322 0.929 . S
H2319 C2328 0.929 . S
C2320 H2314 0.930 . S
C2320 C2321 1.367 . S
C2320 C2328 1.378 . S
C2321 C2320 1.367 . S
C2321 C2329 1.433 . S
C2322 H2318 0.929 . S
C2322 C2324 1.378 . S
C2322 C2326 1.350 . S
C2323 C2326 1.463 . S
C2323 C2328 1.350 . S
C2323 N2331 1.427 . S
C2324 H2315 0.930 . S
C2324 C2322 1.378 . S
C2324 C2325 1.367 . S
C2325 C2324 1.367 . S
C2325 C2327 1.433 . S
C2326 C2322 1.350 . S
C2326 C2323 1.463 . S
C2326 N2330 1.427 . S
C2327 H2317 0.929 . S
C2327 C2325 1.433 . S
C2327 N2330 1.384 . S
C2328 H2319 0.929 . S
C2328 C2320 1.378 . S
C2328 C2323 1.350 . S
C2329 H2316 0.929 . S
C2329 C2321 1.433 . S
C2329 N2331 1.384 . S
N2330 C2326 1.427 . S
N2330 C2327 1.384 . S
N2331 C2323 1.427 . S
N2331 C2329 1.384 . S
H2332 C2338 0.930 . S
H2333 C2342 0.930 . S
H2334 C2347 0.929 . S
H2335 C2345 0.929 . S
H2336 C2340 0.929 . S
H2337 C2346 0.929 . S
C2338 H2332 0.930 . S
C2338 C2339 1.367 . S
C2338 C2346 1.378 . S
C2339 C2338 1.367 . S
C2339 C2347 1.433 . S
C2340 H2336 0.929 . S
C2340 C2342 1.378 . S
C2340 C2344 1.350 . S
C2341 C2344 1.463 . S
C2341 C2346 1.350 . S
C2341 N2349 1.427 . S
C2342 H2333 0.930 . S
C2342 C2340 1.378 . S
C2342 C2343 1.367 . S
C2343 C2342 1.367 . S
C2343 C2345 1.433 . S
C2344 C2340 1.350 . S
C2344 C2341 1.463 . S
C2344 N2348 1.427 . S
C2345 H2335 0.929 . S
C2345 C2343 1.433 . S
C2345 N2348 1.384 . S
C2346 H2337 0.929 . S
C2346 C2338 1.378 . S
C2346 C2341 1.350 . S
C2347 H2334 0.929 . S
C2347 C2339 1.433 . S
C2347 N2349 1.384 . S
N2348 C2344 1.427 . S
N2348 C2345 1.384 . S
N2349 C2341 1.427 . S
N2349 C2347 1.384 . S
H2350 C2356 0.930 . S
H2351 C2360 0.930 . S
H2352 C2365 0.929 . S
H2353 C2363 0.929 . S
H2354 C2358 0.929 . S
H2355 C2364 0.929 . S
C2356 H2350 0.930 . S
C2356 C2357 1.367 . S
C2356 C2364 1.378 . S
C2357 C2356 1.367 . S
C2357 C2365 1.433 . S
C2358 H2354 0.929 . S
C2358 C2360 1.378 . S
C2358 C2362 1.350 . S
C2359 C2362 1.463 . S
C2359 C2364 1.350 . S
C2359 N2367 1.427 . S
C2360 H2351 0.930 . S
C2360 C2358 1.378 . S
C2360 C2361 1.367 . S
C2361 C2360 1.367 . S
C2361 C2363 1.433 . S
C2362 C2358 1.350 . S
C2362 C2359 1.463 . S
C2362 N2366 1.427 . S
C2363 H2353 0.929 . S
C2363 C2361 1.433 . S
C2363 N2366 1.384 . S
C2364 H2355 0.929 . S
C2364 C2356 1.378 . S
C2364 C2359 1.350 . S
C2365 H2352 0.929 . S
C2365 C2357 1.433 . S
C2365 N2367 1.384 . S
N2366 C2362 1.427 . S
N2366 C2363 1.384 . S
N2367 C2359 1.427 . S
N2367 C2365 1.384 . S
C647 C333 1.935 . S
C651 C5 1.970 . S
C665 C474 1.745 . S
C669 C28 1.637 . S
C683 C48 2.123 . S
C687 C433 2.120 . S
C701 C68 1.216 . S
C705 C445 1.327 . S
C719 C93 1.935 . S
C723 C345 1.975 . S
C737 C114 1.744 . S
C741 C368 1.654 . S
C755 C388 2.121 . S
C759 C133 2.122 . S
C773 C145 1.324 . S
C777 C408 1.240 . S
C791 C168 2.497 . S
C795 C13 2.520 . S
C809 C25 1.699 . S
C813 C193 1.656 . S
C827 C208 1.592 . S
C831 C45 1.649 . S
C845 C65 1.683 . S
C849 C222 1.673 . S
C863 C88 1.591 . S
C867 C245 1.649 . S
C881 C265 1.690 . S
C885 C102 1.671 . S
C899 C128 2.497 . S
C903 C293 2.521 . S
C917 C305 1.697 . S
C921 C153 1.663 . S
C935 C165 0.718 . S
C939 C325 0.709 . S
C953 C348 2.661 . S
C957 C253 2.652 . S
C971 C373 3.411 . S
C975 C273 3.425 . S
C989 C288 2.655 . S
C993 C393 2.657 . S
C1007 C413 3.425 . S
C1011 C313 3.412 . S
C1025 C425 0.710 . S
C1029 C205 0.712 . S
C1043 C237 1.377 . S
C1047 C448 1.386 . S
C1061 C477 1.387 . S
C1065 C188 1.378 . S
C1079 C634 1.742 . S
C1083 C308 1.645 . S
C1097 C268 1.239 . S
C1101 C605 1.324 . S
C1115 C568 1.643 . S
C1119 C234 1.742 . S
C1133 C588 1.215 . S
C1137 C185 1.328 . S
C1151 C353 2.524 . S
C1155 C488 2.499 . S
C1169 C385 1.643 . S
C1173 C508 1.605 . S
C1187 C525 1.644 . S
C1191 C328 1.605 . S
C1205 C553 2.516 . S
C1209 C428 2.504 . S
C1223 C485 0.704 . S
C1227 C85 0.714 . S
C1241 C533 2.648 . S
C1245 C8 2.659 . S
C1259 C73 3.425 . S
C1263 C573 3.412 . S
C1277 C548 2.651 . S
C1281 C53 2.654 . S
C1295 C593 3.426 . S
C1299 C33 3.413 . S
C1313 C125 0.714 . S
C1317 C505 0.711 . S
C1331 C608 1.370 . S
C1335 C117 1.393 . S
C1349 C148 1.379 . S
C1353 C637 1.380 . S
C1367 C285 1.973 . S
C1371 C513 1.930 . S
C1385 C248 2.120 . S
C1389 C493 2.124 . S
C1403 C545 1.970 . S
C1407 C213 1.937 . S
C1421 C528 2.119 . S
C1425 C173 2.127 . S
C1439 C365 1.698 . S
C1443 C613 1.656 . S
C1457 C405 1.691 . S
C1461 C622 1.673 . S
C1475 C585 1.686 . S
C1479 C462 1.669 . S
C1493 C453 1.670 . S
C1497 C565 1.702 . S
C1511 C77 2.290 . S
C1515 C14 2.377 . S
C1529 C22 3.047 . S
C1533 C2 3.026 . S
C1547 C37 2.522 . S
C1551 C42 2.649 . S
C1565 C57 2.494 . S
C1569 C62 2.750 . S
C1583 C113 1.481 . S
C1587 C97 1.330 . S
C1601 C134 1.470 . S
C1605 C105 1.467 . S
C1619 C137 2.119 . S
C1623 C142 2.313 . S
C1637 C154 1.096 . S
C1641 C94 1.059 . S
C1655 C162 2.188 . S
C1659 C374 2.134 . S
C1673 C394 2.154 . S
C1677 C197 2.032 . S
C1691 C414 1.571 . S
C1695 C202 1.608 . S
C1709 C228 2.405 . S
C1713 C357 2.443 . S
C1727 C254 2.154 . S
C1731 C457 2.031 . S
C1745 C322 1.594 . S
C1749 C274 1.579 . S
C1763 C468 2.391 . S
C1767 C297 2.455 . S
C1781 C314 2.141 . S
C1785 C422 2.180 . S
C1799 C334 1.075 . S
C1803 C194 1.079 . S
C1817 C342 3.026 . S
C1821 C302 3.048 . S
C1835 C242 2.652 . S
C1839 C377 2.529 . S
C1853 C262 2.747 . S
C1857 C397 2.492 . S
C1871 C417 2.299 . S
C1875 C294 2.373 . S
C1889 C434 1.478 . S
C1893 C225 1.458 . S
C1907 C442 2.314 . S
C1911 C177 2.120 . S
C1925 C217 1.332 . S
C1929 C473 1.484 . S
C1943 C354 2.376 . S
C1947 C277 2.291 . S
C1961 C317 2.522 . S
C1965 C382 2.657 . S
C1979 C337 1.303 . S
C1983 C233 1.495 . S
C1997 C182 2.306 . S
C2001 C437 2.130 . S
C2015 C482 2.176 . S
C2019 C574 2.134 . S
C2033 C54 2.150 . S
C2037 C157 2.037 . S
C2051 C502 1.603 . S
C2055 C594 1.588 . S
C2069 C108 2.391 . S
C2073 C17 2.455 . S
C2087 C617 2.032 . S
C2091 C534 2.154 . S
C2105 C74 1.569 . S
C2109 C82 1.604 . S
C2123 C557 2.448 . S
C2127 C628 2.395 . S
C2141 C122 2.188 . S
C2145 C34 2.137 . S
C2159 C577 2.525 . S
C2163 C522 2.655 . S
C2177 C554 2.372 . S
C2181 C597 2.301 . S
C2195 C497 2.119 . S
C2199 C602 2.314 . S
C2213 C517 1.304 . S
C2217 C633 1.493 . S
C2231 C362 3.045 . S
C2235 C282 3.021 . S
C2249 C402 2.746 . S
C2253 C257 2.493 . S
C2267 C174 1.480 . S
C2271 C465 1.454 . S
C2285 C214 1.079 . S
C2289 C454 1.076 . S
C2303 C614 1.075 . S
C2307 C514 1.082 . S
C2321 C562 3.047 . S
C2325 C542 3.026 . S
C2339 C582 2.746 . S
C2343 C537 2.502 . S
C2357 C494 1.476 . S
C2361 C625 1.461 . S
