# Generated by pormake.
# Topology wme, (6)-cn, num edge types: 1
# Building blocks:
#     Node 0, Type 0, BuildingBlock: LEVNOQ01_clean_sbu_1, # of connection points: 6
#     Node 1, Type 0, BuildingBlock: LEVNOQ01_clean_sbu_1, # of connection points: 6
#     Node 2, Type 0, BuildingBlock: LEVNOQ01_clean_sbu_1, # of connection points: 6
#     Node 3, Type 0, BuildingBlock: LEVNOQ01_clean_sbu_1, # of connection points: 6
#     Node 4, Type 0, BuildingBlock: LEVNOQ01_clean_sbu_1, # of connection points: 6
#     Node 5, Type 0, BuildingBlock: LEVNOQ01_clean_sbu_1, # of connection points: 6
#     Node 6, Type 0, BuildingBlock: LEVNOQ01_clean_sbu_1, # of connection points: 6
#     Node 7, Type 0, BuildingBlock: LEVNOQ01_clean_sbu_1, # of connection points: 6
#     Node 8, Type 0, BuildingBlock: LEVNOQ01_clean_sbu_1, # of connection points: 6
#     Node 9, Type 0, BuildingBlock: LEVNOQ01_clean_sbu_1, # of connection points: 6
#     Node 10, Type 0, BuildingBlock: LEVNOQ01_clean_sbu_1, # of connection points: 6
#     Node 11, Type 0, BuildingBlock: LEVNOQ01_clean_sbu_1, # of connection points: 6
#     Edge 12, Type (0, 0), BuildingBlock: AJUNOK_clean_linker_0, # of connection points: 2
#     Edge 13, Type (0, 0), BuildingBlock: AJUNOK_clean_linker_0, # of connection points: 2
#     Edge 14, Type (0, 0), BuildingBlock: AJUNOK_clean_linker_0, # of connection points: 2
#     Edge 15, Type (0, 0), BuildingBlock: AJUNOK_clean_linker_0, # of connection points: 2
#     Edge 16, Type (0, 0), BuildingBlock: AJUNOK_clean_linker_0, # of connection points: 2
#     Edge 17, Type (0, 0), BuildingBlock: AJUNOK_clean_linker_0, # of connection points: 2
#     Edge 18, Type (0, 0), BuildingBlock: AJUNOK_clean_linker_0, # of connection points: 2
#     Edge 19, Type (0, 0), BuildingBlock: AJUNOK_clean_linker_0, # of connection points: 2
#     Edge 20, Type (0, 0), BuildingBlock: AJUNOK_clean_linker_0, # of connection points: 2
#     Edge 21, Type (0, 0), BuildingBlock: AJUNOK_clean_linker_0, # of connection points: 2
#     Edge 22, Type (0, 0), BuildingBlock: AJUNOK_clean_linker_0, # of connection points: 2
#     Edge 23, Type (0, 0), BuildingBlock: AJUNOK_clean_linker_0, # of connection points: 2
#     Edge 24, Type (0, 0), BuildingBlock: AJUNOK_clean_linker_0, # of connection points: 2
#     Edge 25, Type (0, 0), BuildingBlock: AJUNOK_clean_linker_0, # of connection points: 2
#     Edge 26, Type (0, 0), BuildingBlock: AJUNOK_clean_linker_0, # of connection points: 2
#     Edge 27, Type (0, 0), BuildingBlock: AJUNOK_clean_linker_0, # of connection points: 2
#     Edge 28, Type (0, 0), BuildingBlock: AJUNOK_clean_linker_0, # of connection points: 2
#     Edge 29, Type (0, 0), BuildingBlock: AJUNOK_clean_linker_0, # of connection points: 2
#     Edge 30, Type (0, 0), BuildingBlock: AJUNOK_clean_linker_0, # of connection points: 2
#     Edge 31, Type (0, 0), BuildingBlock: AJUNOK_clean_linker_0, # of connection points: 2
#     Edge 32, Type (0, 0), BuildingBlock: AJUNOK_clean_linker_0, # of connection points: 2
#     Edge 33, Type (0, 0), BuildingBlock: AJUNOK_clean_linker_0, # of connection points: 2
#     Edge 34, Type (0, 0), BuildingBlock: AJUNOK_clean_linker_0, # of connection points: 2
#     Edge 35, Type (0, 0), BuildingBlock: AJUNOK_clean_linker_0, # of connection points: 2
#     Edge 36, Type (0, 0), BuildingBlock: AJUNOK_clean_linker_0, # of connection points: 2
#     Edge 37, Type (0, 0), BuildingBlock: AJUNOK_clean_linker_0, # of connection points: 2
#     Edge 38, Type (0, 0), BuildingBlock: AJUNOK_clean_linker_0, # of connection points: 2
#     Edge 39, Type (0, 0), BuildingBlock: AJUNOK_clean_linker_0, # of connection points: 2
#     Edge 40, Type (0, 0), BuildingBlock: AJUNOK_clean_linker_0, # of connection points: 2
#     Edge 41, Type (0, 0), BuildingBlock: AJUNOK_clean_linker_0, # of connection points: 2
#     Edge 42, Type (0, 0), BuildingBlock: AJUNOK_clean_linker_0, # of connection points: 2
#     Edge 43, Type (0, 0), BuildingBlock: AJUNOK_clean_linker_0, # of connection points: 2
#     Edge 44, Type (0, 0), BuildingBlock: AJUNOK_clean_linker_0, # of connection points: 2
#     Edge 45, Type (0, 0), BuildingBlock: AJUNOK_clean_linker_0, # of connection points: 2
#     Edge 46, Type (0, 0), BuildingBlock: AJUNOK_clean_linker_0, # of connection points: 2
#     Edge 47, Type (0, 0), BuildingBlock: AJUNOK_clean_linker_0, # of connection points: 2
# Relax obj value: 0.152
# Max RMSD: 0.186
# Mean RMSD: 0.186
data_MOF--net-wme--node1-LEVNOQ01_clean_sbu_1--edge1-AJUNOK_clean_linker_0
_symmetry_space_group_name_H-M    P1
_symmetry_Int_Tables_number       1
_symmetry_cell_setting            triclinic
loop_
_symmetry_equiv_pos_as_xyz
'x, y, z'
_cell_length_a     23.363487
_cell_length_b     23.34562
_cell_length_c     43.669241
_cell_angle_alpha  90.441458
_cell_angle_beta   89.81605
_cell_angle_gamma 119.95526
loop_
_atom_site_label
_atom_site_type_symbol
_atom_site_fract_x
_atom_site_fract_y
_atom_site_fract_z
_atom_type_partial_charge
O0 O 0.14764 0.17101 0.15216 0.0
Mg1 Mg 0.11409 0.22891 0.17144 0.0
O2 O 0.18085 0.23023 0.10972 0.0
Mg3 Mg 0.16048 0.31749 0.11032 0.0
O4 O 0.14747 0.32729 0.16275 0.0
O5 O 0.21899 0.30079 0.17563 0.0
O6 O 0.14052 0.40439 0.11547 0.0
O7 O 0.27013 0.38681 0.11836 0.0
Mg8 Mg 0.18467 0.39711 0.06349 0.0
O9 O 0.1738 0.3056 0.05645 0.0
O10 O 0.10262 0.41064 0.07106 0.0
O11 O 0.27609 0.46146 0.0857 0.0
O12 O 0.19536 0.37913 0.01906 0.0
C13 C 0.00817 0.20362 0.11888 0.0
C14 C 0.17553 0.18339 0.12637 0.0
C15 C 0.19524 0.33835 0.18057 0.0
C16 C 0.10763 0.42249 0.0994 0.0
C17 C 0.30175 0.44355 0.10642 0.0
C18 C 0.18517 0.32201 0.02762 0.0
O19 O 0.0229 0.19092 0.14506 0.0
O20 O 0.05096 0.24851 0.10195 0.0
O21 O 0.96576 0.21338 0.65028 0.0
Mg22 Mg 0.86434 0.17164 0.63981 0.0
O23 O 0.93763 0.19168 0.60268 0.0
Mg24 Mg 0.82334 0.16305 0.60832 0.0
O25 O 0.78218 0.13832 0.66286 0.0
O26 O 0.86444 0.23113 0.67746 0.0
O27 O 0.71461 0.13034 0.60826 0.0
O28 O 0.84881 0.27189 0.62013 0.0
Mg29 Mg 0.80477 0.22899 0.56062 0.0
O30 O 0.85409 0.17882 0.55479 0.0
O31 O 0.7029 0.18277 0.56952 0.0
O32 O 0.86801 0.32453 0.57692 0.0
O33 O 0.8211 0.21904 0.5164 0.0
C34 C 0.80894 0.03038 0.61978 0.0
C35 C -0.01843 0.20927 0.62318 0.0
C36 C 0.80751 0.18307 0.68352 0.0
C37 C 0.67876 0.14395 0.59189 0.0
C38 C 0.86642 0.3253 0.60572 0.0
C39 C 0.85543 0.19318 0.52575 0.0
O40 O 0.84462 0.06805 0.64141 0.0
O41 O 0.79117 0.05593 0.59926 0.0
O42 O 0.76882 -0.00754 0.151 0.0
Mg43 Mg 0.73549 0.90169 0.17215 0.0
O44 O 0.71354 0.94996 0.10829 0.0
Mg45 Mg 0.63926 0.83773 0.11281 0.0
O46 O 0.6429 0.82405 0.16382 0.0
O47 O 0.66172 0.88819 0.20319 0.0
O48 O 0.57088 0.7265 0.11497 0.0
O49 O 0.55048 0.85397 0.12482 0.0
Mg50 Mg 0.53871 0.80674 0.06514 0.0
O51 O 0.63734 0.84937 0.05941 0.0
O52 O 0.48911 0.71023 0.08425 0.0
O53 O 0.52511 0.88366 0.08228 0.0
O54 O 0.56549 0.81412 0.02052 0.0
C55 C 0.7655 0.8179 0.12611 0.0
C56 C 0.75596 -0.00083 0.12374 0.0
C57 C 0.6212 0.83524 0.18883 0.0
C58 C 0.51456 0.68903 0.10344 0.0
C59 C 0.519 0.87728 0.11088 0.0
C60 C 0.62566 0.84799 0.03015 0.0
O61 O 0.77574 0.84552 0.15243 0.0
O62 O 0.72358 0.81622 0.10692 0.0
O63 O 0.69929 0.72078 0.64639 0.0
Mg64 Mg 0.78205 0.70907 0.65587 0.0
O65 O 0.75713 0.73231 0.60644 0.0
Mg66 Mg 0.78114 0.64589 0.61127 0.0
O67 O 0.78456 0.62452 0.66418 0.0
O68 O 0.76496 0.6814 0.70003 0.0
O69 O 0.81675 0.57189 0.61059 0.0
O70 O 0.67159 0.56161 0.62014 0.0
Mg71 Mg 0.71016 0.56566 0.56528 0.0
O72 O 0.77709 0.66215 0.55825 0.0
O73 O 0.73672 0.49572 0.58291 0.0
O74 O 0.62261 0.56466 0.57933 0.0
O75 O 0.73034 0.58768 0.52039 0.0
C76 C 0.9155 0.77494 0.62393 0.0
C77 C 0.72167 0.74947 0.62141 0.0
C78 C 0.77346 0.63288 0.69251 0.0
C79 C 0.78586 0.51341 0.60047 0.0
C80 C 0.61799 0.54089 0.6055 0.0
C81 C 0.7638 0.6486 0.52927 0.0
O82 O 0.88207 0.78496 0.64422 0.0
O83 O 0.88878 0.72239 0.60804 0.0
O84 O 0.96458 0.75383 0.15841 0.0
Mg85 Mg 0.06044 0.81377 0.17177 0.0
O86 O 0.00407 0.7579 0.11254 0.0
Mg87 Mg 0.11544 0.79331 0.10928 0.0
O88 O 0.14617 0.81475 0.16015 0.0
O89 O 0.07088 0.73078 0.18413 0.0
O90 O 0.22591 0.83555 0.10485 0.0
O91 O 0.09965 0.69068 0.12309 0.0
Mg92 Mg 0.12087 0.71564 0.06679 0.0
O93 O 0.08562 0.77734 0.0559 0.0
O94 O 0.21991 0.74839 0.08287 0.0
O95 O 0.04269 0.628 0.08543 0.0
O96 O 0.11129 0.72278 0.02109 0.0
C97 C 0.12785 0.93054 0.12201 0.0
C98 C 0.95547 0.74313 0.13023 0.0
C99 C 0.13188 0.77209 0.18132 0.0
C100 C 0.25295 0.80227 0.09749 0.0
C101 C 0.06291 0.63313 0.11249 0.0
C102 C 0.08373 0.75743 0.02766 0.0
O103 O 0.10178 0.90922 0.14828 0.0
O104 O 0.13489 0.89464 0.10227 0.0
O105 O 0.20364 0.97027 0.66167 0.0
Mg106 Mg 0.22341 0.06802 0.6694 0.0
O107 O 0.22113 0.01215 0.61627 0.0
Mg108 Mg 0.30761 0.12089 0.61728 0.0
O109 O 0.32006 0.14197 0.66944 0.0
O110 O 0.25696 0.10437 0.71153 0.0
O111 O 0.38791 0.22878 0.61551 0.0
O112 O 0.39034 0.09227 0.62425 0.0
Mg113 Mg 0.39174 0.13249 0.5583 0.0
O114 O 0.29688 0.1029 0.56473 0.0
O115 O 0.45166 0.22925 0.57793 0.0
O116 O 0.37743 0.0459 0.58001 0.0
O117 O 0.33858 0.11721 0.51807 0.0
C118 C 0.18001 0.13941 0.62621 0.0
C119 C 0.19184 0.96195 0.63339 0.0
C120 C 0.31296 0.14371 0.6988 0.0
C121 C 0.44011 0.25869 0.59968 0.0
C122 C 0.40492 0.05935 0.6057 0.0
C123 C 0.28746 0.09007 0.53565 0.0
O124 O 0.16331 0.10163 0.64921 0.0
O125 O 0.23304 0.15608 0.61165 0.0
O126 O 0.77831 0.84774 0.34953 0.0
Mg127 Mg 0.70509 0.87509 0.34098 0.0
O128 O 0.71214 0.75464 0.37351 0.0
Mg129 Mg 0.63523 0.78703 0.38017 0.0
O130 O 0.62244 0.79421 0.32713 0.0
O131 O 0.68848 0.87801 0.29604 0.0
O132 O 0.56017 0.82502 0.38412 0.0
O133 O 0.55067 0.68397 0.36717 0.0
Mg134 Mg 0.53935 0.71502 0.43439 0.0
O135 O 0.63868 0.76595 0.43147 0.0
O136 O 0.49214 0.76908 0.42183 0.0
O137 O 0.51373 0.62767 0.40996 0.0
O138 O 0.58629 0.72909 0.47589 0.0
C139 C 0.72735 0.94639 0.39001 0.0
C140 C 0.76806 0.79442 0.36187 0.0
C141 C 0.63706 0.82068 0.30024 0.0
C142 C 0.50934 0.81061 0.40027 0.0
C143 C 0.51582 0.6298 0.38102 0.0
C144 C 0.64044 0.75405 0.46033 0.0
O145 O 0.69614 0.94792 0.36695 0.0
O146 O 0.72245 0.89116 0.39628 0.0
O147 O -0.01268 0.78863 0.85115 0.0
Mg148 Mg 0.90209 0.74141 0.82454 0.0
O149 O 0.93698 0.72154 0.88933 0.0
Mg150 Mg 0.82849 0.64378 0.88054 0.0
O151 O 0.82176 0.64571 0.82791 0.0
O152 O 0.91575 0.65837 0.81533 0.0
O153 O 0.71746 0.56691 0.8764 0.0
O154 O 0.85412 0.56279 0.87314 0.0
Mg155 Mg 0.77241 0.54466 0.94101 0.0
O156 O 0.83435 0.63821 0.93119 0.0
O157 O 0.67968 0.52333 0.92237 0.0
O158 O 0.82131 0.50361 0.9161 0.0
O159 O 0.82171 0.60565 0.9789 0.0
C160 C 0.80748 0.76727 0.86853 0.0
C161 C -0.01176 0.76945 0.87792 0.0
C162 C 0.8537 0.62606 0.81125 0.0
C163 C 0.67003 0.53215 0.89457 0.0
C164 C 0.84788 0.51548 0.88965 0.0
C165 C 0.85457 0.65094 0.95904 0.0
O166 O 0.84182 0.77928 0.84415 0.0
O167 O 0.79953 0.72214 0.88698 0.0
O168 O 0.2413 -0.01448 0.35369 0.0
Mg169 Mg 0.17107 0.8816 0.35453 0.0
O170 O 0.17761 0.95013 0.39229 0.0
Mg171 Mg 0.15385 0.83592 0.38335 0.0
O172 O 0.1383 0.79947 0.32908 0.0
O173 O 0.22357 0.8903 0.31419 0.0
O174 O 0.11785 0.72713 0.38439 0.0
O175 O 0.26588 0.85822 0.37226 0.0
Mg176 Mg 0.2259 0.83545 0.42387 0.0
O177 O 0.1585 0.86037 0.43688 0.0
O178 O 0.19968 0.73505 0.4118 0.0
O179 O 0.31089 0.92456 0.4097 0.0
O180 O 0.22174 0.84198 0.46933 0.0
C181 C 0.02985 0.83563 0.36985 0.0
C182 C 0.21575 -0.00132 0.37593 0.0
C183 C 0.18089 0.83081 0.30828 0.0
C184 C 0.14844 0.70076 0.39573 0.0
C185 C 0.31869 0.89858 0.38612 0.0
C186 C 0.18155 0.86365 0.46432 0.0
O187 O 0.07288 0.87556 0.35105 0.0
O188 O 0.04727 0.80681 0.3888 0.0
O189 O 0.17123 0.16967 0.84196 0.0
Mg190 Mg 0.20267 0.10176 0.83168 0.0
O191 O 0.21938 0.19039 0.88729 0.0
Mg192 Mg 0.30413 0.16842 0.88403 0.0
O193 O 0.30235 0.15486 0.83205 0.0
O194 O 0.24423 0.10728 0.78977 0.0
O195 O 0.38611 0.14365 0.87949 0.0
O196 O 0.37741 0.27678 0.87584 0.0
Mg197 Mg 0.4035 0.20901 0.94217 0.0
O198 O 0.31003 0.18452 0.93454 0.0
O199 O 0.4122 0.12739 0.92589 0.0
O200 O 0.44857 0.29709 0.91433 0.0
O201 O 0.34822 0.20656 0.98135 0.0
C202 C 0.18445 0.00983 0.88392 0.0
C203 C 0.17849 0.19253 0.86895 0.0
C204 C 0.30022 0.14638 0.80269 0.0
C205 C 0.41101 0.11906 0.8971 0.0
C206 C 0.43014 0.31504 0.89047 0.0
C207 C 0.30133 0.19513 0.96256 0.0
O208 O 0.16296 0.01445 0.85798 0.0
O209 O 0.23395 0.05881 0.89624 0.0
O210 O 0.94658 0.22025 0.3533 0.0
Mg211 Mg 0.03806 0.23901 0.33451 0.0
O212 O 0.00781 0.22379 0.39078 0.0
Mg213 Mg 0.11119 0.31432 0.38099 0.0
O214 O 0.12423 0.32656 0.32828 0.0
O215 O 0.04367 0.28517 0.29395 0.0
O216 O 0.21671 0.39922 0.37531 0.0
O217 O 0.07645 0.39024 0.37998 0.0
Mg218 Mg 0.18398 0.40651 0.43984 0.0
O219 O 0.1079 0.3167 0.43129 0.0
O220 O 0.26829 0.41117 0.41917 0.0
O221 O 0.14632 0.45946 0.4156 0.0
O222 O 0.13222 0.35091 0.47872 0.0
C223 C 0.12456 0.18804 0.3656 0.0
C224 C 0.95077 0.20159 0.3796 0.0
C225 C 0.10349 0.32738 0.30101 0.0
C226 C 0.26964 0.41981 0.3905 0.0
C227 C 0.10303 0.44502 0.3947 0.0
C228 C 0.09233 0.30682 0.45961 0.0
O229 O 0.07967 0.17603 0.34571 0.0
O230 O 0.14804 0.24012 0.38213 0.0
O231 O 0.82884 0.01591 0.86543 0.0
Mg232 Mg 0.84491 0.09329 0.83652 0.0
O233 O 0.73545 0.0063 0.88056 0.0
Mg234 Mg 0.77559 0.11844 0.88414 0.0
O235 O 0.79034 0.14005 0.83232 0.0
O236 O 0.75816 0.04631 0.80935 0.0
O237 O 0.81176 0.22855 0.88557 0.0
O238 O 0.67193 0.09567 0.8749 0.0
Mg239 Mg 0.73402 0.17234 0.94264 0.0
O240 O 0.75695 0.10008 0.9357 0.0
O241 O 0.81193 0.2678 0.93152 0.0
O242 O 0.64635 0.1364 0.91579 0.0
O243 O 0.73477 0.12326 0.98203 0.0
C244 C 0.93573 0.1773 0.87954 0.0
C245 C 0.77302 -0.0178 0.87749 0.0
C246 C 0.76079 0.10212 0.80936 0.0
C247 C 0.82742 0.27702 0.90347 0.0
C248 C 0.63214 0.10702 0.88987 0.0
C249 C 0.7465 0.08563 0.96449 0.0
O250 O 0.93092 0.18055 0.85081 0.0
O251 O 0.8834 0.14391 0.8952 0.0
C252 C 0.12162 0.01984 0.09541 0.0
C253 C 0.15529 4e-05 0.11525 0.0
C254 C 0.13721 0.0858 0.095 0.0
C255 C 0.18735 0.13282 0.11385 0.0
H256 H 0.07883 -0.01657 0.08276 0.0
H257 H 0.10349 0.09786 0.08367 0.0
S258 S 0.299 0.10663 0.1643 0.0
N259 N 0.24757 0.03265 0.15002 0.0
N260 N 0.27754 0.1576 0.14884 0.0
C261 C 0.22703 0.11485 0.1305 0.0
C262 C 0.21055 0.04768 0.13136 0.0
C263 C 0.15134 0.22791 0.62461 0.0
C264 C 0.1361 0.16328 0.61681 0.0
C265 C 0.10165 0.24497 0.6252 0.0
C266 C 0.03639 0.19761 0.61775 0.0
H267 H 0.20051 0.26368 0.63244 0.0
H268 H 0.11355 0.29398 0.63279 0.0
S269 S -0.02519 0.02523 0.59123 0.0
N270 N 0.05438 0.05517 0.59766 0.0
N271 N 0.96037 0.08576 0.59993 0.0
C272 C 0.02191 0.13416 0.60827 0.0
C273 C 0.07229 0.1175 0.60717 0.0
C274 C 0.82445 0.12008 0.12169 0.0
C275 C 0.80693 0.05849 0.1084 0.0
C276 C 0.89026 0.17156 0.12165 0.0
C277 C 0.93991 0.1629 0.10803 0.0
H278 H 0.789 0.12557 0.13563 0.0
H279 H 0.90335 0.21567 0.13505 0.0
S280 S 0.91754 0.01569 0.06515 0.0
N281 N 0.84288 -0.00496 0.07758 0.0
N282 N 0.96614 0.09284 0.07661 0.0
C283 C 0.92161 0.10514 0.09096 0.0
C284 C 0.85476 0.05255 0.09119 0.0
C285 C 0.7958 0.86518 0.63743 0.0
C286 C 0.74112 0.81983 0.61993 0.0
C287 C 0.8181 0.93306 0.63689 0.0
C288 C 0.78624 0.95837 0.6189 0.0
H289 H 0.82135 0.84795 0.65199 0.0
H290 H 0.86049 0.96583 0.65077 0.0
S291 S 0.63942 0.85929 0.56922 0.0
N292 N 0.65549 0.80397 0.5841 0.0
N293 N 0.69586 0.93166 0.58323 0.0
C294 C 0.73132 0.91318 0.60107 0.0
C295 C 0.70903 0.84385 0.60156 0.0
C296 C 0.91413 0.80799 0.10638 0.0
C297 C 0.89938 0.74666 0.11862 0.0
C298 C 0.86692 0.82763 0.10554 0.0
C299 C 0.80445 0.78749 0.11807 0.0
H300 H 0.96422 0.84355 0.0996 0.0
H301 H 0.88128 0.87687 0.09759 0.0
S302 S 0.7426 0.62499 0.15511 0.0
N303 N 0.8185 0.64664 0.14415 0.0
N304 N 0.72937 0.68468 0.14359 0.0
C305 C 0.78796 0.72527 0.12972 0.0
C306 C 0.83582 0.70465 0.12994 0.0
C307 C 0.00931 0.88953 0.62569 0.0
C308 C -0.01365 0.82238 0.6203 0.0
C309 C 0.07676 0.93441 0.62755 0.0
C310 C 0.12366 0.91377 0.62489 0.0
H311 H -0.02512 0.90717 0.62961 0.0
H312 H 0.09217 -0.01484 0.63306 0.0
S313 S 0.08931 0.74443 0.60683 0.0
N314 N 0.01566 0.73809 0.60822 0.0
N315 N 0.14316 0.82273 0.61443 0.0
C316 C 0.10185 0.84745 0.61786 0.0
C317 C 0.03281 0.80169 0.61476 0.0
C318 C 0.92056 0.78697 0.34368 0.0
C319 C 0.96038 0.81964 0.36921 0.0
C320 C 0.85418 0.77116 0.3427 0.0
C321 C 0.82592 0.7873 0.36729 0.0
H322 H 0.94121 0.77475 0.32414 0.0
H323 H 0.82594 0.74969 0.32195 0.0
S324 S 0.90761 0.86812 0.44026 0.0
N325 N 0.96547 0.86308 0.42052 0.0
N326 N 0.84097 0.83412 0.41842 0.0
C327 C 0.86399 0.81621 0.39365 0.0
C328 C 0.93135 0.83226 0.39468 0.0
C329 C 0.0294 0.86856 0.90874 0.0
C330 C 0.03969 0.81751 0.8981 0.0
C331 C 0.08184 0.93357 0.90981 0.0
C332 C 0.1454 0.94827 0.90076 0.0
H333 H -0.02041 0.86024 0.91117 0.0
H334 H 0.07089 0.97302 0.91345 0.0
S335 S 0.20104 0.82766 0.88599 0.0
N336 N 0.11974 0.78215 0.88869 0.0
N337 N 0.21943 0.90513 0.8917 0.0
C338 C 0.15817 0.89607 0.89696 0.0
C339 C 0.10456 0.82988 0.89538 0.0
C340 C 0.18151 0.13806 0.39572 0.0
C341 C 0.15137 0.14233 0.36842 0.0
C342 C 0.20525 0.09323 0.39824 0.0
C343 C 0.20195 0.05355 0.37313 0.0
H344 H 0.18498 0.16799 0.41547 0.0
H345 H 0.22535 0.08896 0.41989 0.0
S346 S 0.12582 0.0439 0.29751 0.0
N347 N 0.11796 0.10074 0.31659 0.0
N348 N 0.16436 0.01944 0.32095 0.0
C349 C 0.17278 0.05812 0.3459 0.0
C350 C 0.14707 0.10173 0.34364 0.0
C351 C 0.11746 0.24891 0.88677 0.0
C352 C 0.12076 0.19121 0.88199 0.0
C353 C 0.05576 0.24473 0.89052 0.0
C354 C -0.00262 0.18284 0.89031 0.0
H355 H 0.1615 0.29698 0.88482 0.0
H356 H 0.05321 0.2898 0.89079 0.0
S357 S -0.01693 0.01815 0.88208 0.0
N358 N 0.06283 0.07138 0.87943 0.0
N359 N 0.94836 0.06346 0.88903 0.0
C360 C 0.00192 0.12521 0.88946 0.0
C361 C 0.06359 0.12941 0.8845 0.0
C362 C 0.83993 0.12801 0.4027 0.0
C363 C 0.89842 0.13649 0.3895 0.0
C364 C 0.78528 0.06434 0.40651 0.0
C365 C 0.78839 0.00795 0.39755 0.0
H366 H 0.83516 0.17068 0.40836 0.0
H367 H 0.73905 0.05935 0.41445 0.0
S368 S 0.93209 0.00483 0.36303 0.0
N369 N 0.957 0.08394 0.36819 0.0
N370 N 0.85646 0.96507 0.377 0.0
C371 C 0.84868 0.01616 0.38672 0.0
C372 C 0.90325 0.08048 0.38211 0.0
C373 C 0.78512 0.83948 0.90314 0.0
C374 C 0.77585 0.80682 0.87484 0.0
C375 C 0.7726 0.89214 0.90598 0.0
C376 C 0.74968 0.91205 0.8808 0.0
H377 H 0.80849 0.8291 0.922 0.0
H378 H 0.78811 0.92204 0.92668 0.0
S379 S 0.70425 0.83232 0.80437 0.0
N380 N 0.73192 0.79004 0.82325 0.0
N381 N 0.70815 0.88872 0.82869 0.0
C382 C 0.73171 0.8737 0.85399 0.0
C383 C 0.74522 0.82108 0.85094 0.0
C384 C 0.13894 0.59149 0.11928 0.0
C385 C 0.07441 0.58057 0.12277 0.0
C386 C 0.14954 0.53881 0.11326 0.0
C387 C 0.096 0.47413 0.11136 0.0
H388 H 0.18057 0.64125 0.11764 0.0
H389 H 0.19916 0.54913 0.10795 0.0
S390 S 0.92168 0.41892 0.13004 0.0
N391 N 0.95909 0.50054 0.13154 0.0
N392 N -0.02069 0.40026 0.12106 0.0
C393 C 0.03283 0.46185 0.11935 0.0
C394 C 0.02198 0.5157 0.12512 0.0
C395 C 0.56577 0.09031 0.57304 0.0
C396 C 0.60831 0.11308 0.59805 0.0
C397 C 0.49904 0.06691 0.5768 0.0
C398 C 0.47206 0.06823 0.60565 0.0
H399 H 0.58445 0.09189 0.55011 0.0
H400 H 0.46953 0.05185 0.55609 0.0
S401 S 0.56338 0.116 0.67933 0.0
N402 N 0.62003 0.12846 0.65335 0.0
N403 N 0.49305 0.08831 0.66043 0.0
C404 C 0.5138 0.08768 0.6314 0.0
C405 C 0.58239 0.10932 0.62758 0.0
C406 C 0.4742 0.57039 0.09562 0.0
C407 C 0.47566 0.62097 0.11369 0.0
C408 C 0.42056 0.50605 0.0974 0.0
C409 C 0.36751 0.49173 0.11704 0.0
H410 H 0.51078 0.58194 0.07785 0.0
H411 H 0.41656 0.46979 0.08061 0.0
S412 S 0.35627 0.60419 0.17372 0.0
N413 N 0.42653 0.65073 0.1555 0.0
N414 N 0.32538 0.52919 0.15885 0.0
C415 C 0.37341 0.53961 0.13831 0.0
C416 C 0.42776 0.60502 0.13645 0.0
C417 C 0.87382 0.48671 0.6143 0.0
C418 C 0.80648 0.46593 0.60978 0.0
C419 C 0.89475 0.44026 0.61786 0.0
C420 C 0.84859 0.3724 0.61843 0.0
H421 H 0.91085 0.53851 0.61246 0.0
H422 H 0.94715 0.457 0.61745 0.0
S423 S 0.66617 0.29447 0.61472 0.0
N424 N 0.69363 0.37424 0.6106 0.0
N425 N 0.73259 0.2877 0.61961 0.0
C426 C 0.78093 0.35221 0.61838 0.0
C427 C 0.75985 0.39883 0.61326 0.0
C428 C 0.40478 0.79287 0.11792 0.0
C429 C 0.45316 0.85957 0.12186 0.0
C430 C 0.33985 0.77496 0.11066 0.0
C431 C 0.32044 0.82286 0.10836 0.0
H432 H 0.41877 0.7551 0.1167 0.0
H433 H 0.30542 0.72347 0.10554 0.0
S434 S 0.42455 0.00135 0.12754 0.0
N435 N 0.47553 0.9717 0.12976 0.0
N436 N 0.35159 0.93793 0.11831 0.0
C437 C 0.36626 0.88851 0.11704 0.0
C438 C 0.4332 0.90689 0.12342 0.0
C439 C 0.5782 0.43054 0.58434 0.0
C440 C 0.57214 0.46945 0.60733 0.0
C441 C 0.5371 0.36272 0.58323 0.0
C442 C 0.48643 0.3301 0.60469 0.0
H443 H 0.61475 0.45279 0.56642 0.0
H444 H 0.54431 0.33617 0.56455 0.0
S445 S 0.45309 0.40883 0.67165 0.0
N446 N 0.51581 0.471 0.65394 0.0
N447 N 0.43487 0.34163 0.6514 0.0
C448 C 0.4807 0.36795 0.62877 0.0
C449 C 0.52444 0.4381 0.63022 0.0
C450 C 0.39339 0.87484 0.41631 0.0
C451 C 0.37424 0.88481 0.38715 0.0
C452 C 0.43881 0.85344 0.41989 0.0
C453 C 0.46859 0.8418 0.39459 0.0
H454 H 0.37075 0.88059 0.43692 0.0
H455 H 0.44956 0.84447 0.4429 0.0
S456 S 0.4395 0.86352 0.313 0.0
N457 N 0.39026 0.88299 0.33214 0.0
N458 N 0.47849 0.84438 0.33898 0.0
C459 C 0.4525 0.85389 0.36509 0.0
C460 C 0.40442 0.87465 0.36134 0.0
C461 C 0.59026 0.44118 0.86159 0.0
C462 C 0.603 0.49227 0.88248 0.0
C463 C 0.52708 0.38548 0.85965 0.0
C464 C 0.47596 0.38032 0.87849 0.0
H465 H 0.6306 0.44023 0.84973 0.0
H466 H 0.52079 0.34287 0.84673 0.0
S467 S 0.47973 0.51095 0.92823 0.0
N468 N 0.55665 0.54182 0.91618 0.0
N469 N 0.43716 0.4373 0.91189 0.0
C470 C 0.48548 0.43599 0.89503 0.0
C471 C 0.54975 0.49216 0.89735 0.0
C472 C 0.12349 0.60086 0.36463 0.0
C473 C 0.12037 0.62939 0.39264 0.0
C474 C 0.10606 0.53391 0.36319 0.0
C475 C 0.08367 0.49466 0.3896 0.0
H476 H 0.1444 0.63147 0.34458 0.0
H477 H 0.11705 0.51514 0.34256 0.0
S478 S 0.05237 0.54305 0.46581 0.0
N479 N 0.08442 0.61171 0.44559 0.0
N480 N 0.04659 0.485 0.44212 0.0
C481 C 0.07064 0.52056 0.41601 0.0
C482 C 0.09122 0.58872 0.41793 0.0
C483 C 0.56055 0.13361 0.86035 0.0
C484 C 0.56754 0.0868 0.87733 0.0
C485 C 0.50344 0.13812 0.86346 0.0
C486 C 0.45351 0.09627 0.88387 0.0
H487 H 0.60251 0.17248 0.84833 0.0
H488 H 0.50254 0.1798 0.8532 0.0
S489 S 0.44049 0.95102 0.92364 0.0
N490 N 0.51404 -0.0135 0.90726 0.0
N491 N 0.40681 -0.00391 0.91415 0.0
C492 C 0.45547 0.04223 0.89629 0.0
C493 C 0.51284 0.03692 0.89252 0.0
C494 C 0.38431 0.46004 0.3733 0.0
C495 C 0.33069 0.47058 0.37691 0.0
C496 C 0.44747 0.51329 0.36766 0.0
C497 C 0.4577 0.5777 0.36597 0.0
H498 H 0.37835 0.41163 0.37734 0.0
H499 H 0.4893 0.50532 0.36871 0.0
S500 S 0.33132 0.62894 0.36994 0.0
N501 N 0.28994 0.54813 0.37519 0.0
N502 N 0.40858 0.648 0.36369 0.0
C503 C 0.40291 0.58714 0.3652 0.0
C504 C 0.33906 0.53344 0.37149 0.0
C505 C 0.90439 0.45328 0.87726 0.0
C506 C 0.84764 0.45924 0.87523 0.0
C507 C 0.89837 0.3919 0.8842 0.0
C508 C 0.83572 0.33708 0.88967 0.0
H509 H 0.95296 0.49703 0.87735 0.0
H510 H 0.94249 0.3887 0.88795 0.0
S511 S 0.67333 0.32757 0.88187 0.0
N512 N 0.72815 0.40417 0.87264 0.0
N513 N 0.71663 0.29092 0.88915 0.0
C514 C 0.77904 0.34132 0.88384 0.0
C515 C 0.78524 0.40211 0.8749 0.0
C516 C 0.15802 0.29547 0.26377 0.0
C517 C 0.14987 0.34671 0.27556 0.0
C518 C 0.17515 0.29527 0.2334 0.0
C519 C 0.1869 0.34744 0.21357 0.0
H520 H 0.14406 0.25154 0.27725 0.0
H521 H 0.17496 0.25137 0.22504 0.0
S522 S 0.19254 0.50339 0.23659 0.0
N523 N 0.16782 0.45751 0.26783 0.0
N524 N 0.20251 0.45837 0.2099 0.0
C525 C 0.18644 0.40294 0.22608 0.0
C526 C 0.16779 0.40256 0.25741 0.0
C527 C 0.7446 0.17014 0.73282 0.0
C528 C 0.79316 0.16494 0.71578 0.0
C529 C 0.7352 0.15318 0.76419 0.0
C530 C 0.7752 0.13223 0.77882 0.0
H531 H 0.71367 0.18637 0.72186 0.0
H532 H 0.69587 0.15472 0.7767 0.0
S533 S 0.91079 0.11469 0.74392 0.0
N534 N 0.88095 0.13823 0.7156 0.0
N535 N 0.8675 0.1121 0.77427 0.0
C536 C 0.82573 0.13059 0.76199 0.0
C537 C 0.83339 0.14513 0.73046 0.0
C538 C 0.54038 0.78989 0.22947 0.0
C539 C 0.58239 0.78013 0.20967 0.0
C540 C 0.5511 0.79372 0.2612 0.0
C541 C 0.60053 0.78307 0.27329 0.0
H542 H 0.51008 0.80896 0.22045 0.0
H543 H 0.52743 0.81382 0.27559 0.0
S544 S 0.69998 0.72495 0.2315 0.0
N545 N 0.65613 0.73521 0.20473 0.0
N546 N 0.67669 0.74269 0.26428 0.0
C547 C 0.62991 0.75657 0.25424 0.0
C548 C 0.61848 0.75229 0.22212 0.0
C549 C 0.86018 0.64647 0.72601 0.0
C550 C 0.79458 0.60587 0.71712 0.0
C551 C 0.87908 0.64872 0.75625 0.0
C552 C 0.83341 0.6091 0.77885 0.0
H553 H 0.89547 0.68304 0.71036 0.0
H554 H 0.92895 0.68635 0.7622 0.0
S555 S 0.66034 0.47767 0.7643 0.0
N556 N 0.6868 0.51411 0.73076 0.0
N557 N 0.72279 0.51687 0.78848 0.0
C558 C 0.76926 0.56175 0.76937 0.0
C559 C 0.7498 0.56013 0.73818 0.0
C560 C 0.17391 0.75464 0.23049 0.0
C561 C 0.16227 0.7964 0.21151 0.0
C562 C 0.1787 0.76371 0.2625 0.0
C563 C 0.16798 0.81225 0.27608 0.0
H564 H 0.17691 0.71351 0.22061 0.0
H565 H 0.18997 0.73256 0.27655 0.0
S566 S 0.13203 0.9311 0.2374 0.0
N567 N 0.14457 0.89085 0.20943 0.0
N568 N 0.14068 0.89858 0.26916 0.0
C569 C 0.15463 0.85261 0.25755 0.0
C570 C 0.15566 0.84751 0.22532 0.0
C571 C 0.34757 0.23418 0.76573 0.0
C572 C 0.356 0.18783 0.78262 0.0
C573 C 0.35341 0.23577 0.73374 0.0
C574 C 0.36666 0.19024 0.71872 0.0
H575 H 0.32332 0.25872 0.77616 0.0
H576 H 0.33288 0.26097 0.72098 0.0
S577 S 0.43667 0.09598 0.75419 0.0
N578 N 0.40958 0.12152 0.78336 0.0
N579 N 0.42261 0.12701 0.72309 0.0
C580 C 0.39666 0.16216 0.73592 0.0
C581 C 0.38954 0.15916 0.76836 0.0
C582 C 0.27409 0.28355 0.96569 0.0
C583 C 0.25461 0.21721 0.97111 0.0
C584 C 0.24686 0.31538 0.98249 0.0
C585 C 0.19945 0.28203 0.00551 0.0
H586 H 0.31483 0.31269 0.95031 0.0
H587 H 0.26727 0.36793 0.97904 0.0
S588 S 0.11551 0.10162 0.01969 0.0
N589 N 0.1745 0.11489 0.995 0.0
N590 N 0.12231 0.17448 0.02688 0.0
C591 C 0.17372 0.21341 0.0083 0.0
C592 C 0.20166 0.18101 0.991 0.0
C593 C 0.96928 0.25094 0.45781 0.0
C594 C 0.02685 0.25556 0.47009 0.0
C595 C 0.90997 0.22068 0.47444 0.0
C596 C 0.90709 0.19654 0.50439 0.0
H597 H -0.02852 0.2766 0.4369 0.0
H598 H 0.86827 0.22291 0.46505 0.0
S599 S 0.04197 0.18224 0.54127 0.0
N600 N 0.07498 0.2218 0.50938 0.0
N601 N 0.96474 0.16669 0.54174 0.0
C602 C 0.96249 0.19332 0.51465 0.0
C603 C 0.02221 0.22298 0.49728 0.0
C604 C 0.72468 0.95922 0.02289 0.0
C605 C 0.67442 0.90036 0.0097 0.0
C606 C 0.75397 0.01884 0.00669 0.0
C607 C 0.73427 0.02166 0.97662 0.0
H608 H 0.73603 0.96104 0.04693 0.0
H609 H 0.78793 0.06398 0.01871 0.0
S610 S 0.61036 0.88038 0.93036 0.0
N611 N 0.61286 0.84726 0.96322 0.0
N612 N 0.66471 0.95989 0.93365 0.0
C613 C 0.68877 0.96226 0.96217 0.0
C614 C 0.65981 0.90134 0.97847 0.0
C615 C 0.74592 0.74396 0.52198 0.0
C616 C 0.76244 0.6986 0.50898 0.0
C617 C 0.71273 0.76904 0.50481 0.0
C618 C 0.69679 0.75132 0.47389 0.0
H619 H 0.75092 0.75378 0.54637 0.0
H620 H 0.69403 0.79741 0.51654 0.0
S621 S 0.74076 0.645 0.42773 0.0
N622 N 0.76993 0.64586 0.46222 0.0
N623 N 0.70745 0.69277 0.43008 0.0
C624 C 0.72057 0.71307 0.45973 0.0
C625 C 0.75387 0.6871 0.47724 0.0
C626 C -0.02334 0.70478 0.95723 0.0
C627 C 0.9202 0.70537 0.96784 0.0
C628 C 0.03443 0.73188 0.97506 0.0
C629 C 0.03682 0.75829 0.00459 0.0
H630 H -0.0261 0.6765 0.93695 0.0
H631 H 0.07457 0.72503 0.96708 0.0
S632 S 0.90708 0.78841 0.0369 0.0
N633 N 0.87462 0.74801 0.00484 0.0
N634 N -0.01842 0.79699 0.03958 0.0
C635 C -0.01635 0.7676 0.01303 0.0
C636 C 0.92562 0.74122 0.99436 0.0
C637 C 0.17742 0.96581 0.47753 0.0
C638 C 0.17921 0.90933 0.48741 0.0
C639 C 0.20459 0.02372 0.49557 0.0
C640 C 0.23222 0.02631 0.52447 0.0
H641 H 0.16271 0.96838 0.45433 0.0
H642 H 0.21024 0.06854 0.48552 0.0
S643 S 0.24232 0.88942 0.56177 0.0
N644 N 0.20496 0.85771 0.52895 0.0
N645 N 0.25301 0.96471 0.56307 0.0
C646 C 0.22615 0.96736 0.53602 0.0
C647 C 0.20016 0.90916 0.51746 0.0
loop_
_geom_bond_atom_site_label_1
_geom_bond_atom_site_label_2
_geom_bond_distance
_geom_bond_site_symmetry_2
_ccdc_geom_bond_type
O0 Mg1 1.990 . S
O0 C14 1.253 . S
Mg1 O0 1.990 . S
Mg1 O4 2.180 . S
Mg1 O5 2.117 . S
Mg1 O19 2.030 . S
O2 Mg3 2.072 . S
O2 C14 1.260 . S
Mg3 O2 2.072 . S
Mg3 O4 2.099 . S
Mg3 O6 2.079 . S
Mg3 O7 2.072 . S
Mg3 O9 2.099 . S
Mg3 O20 2.079 . S
O4 Mg1 2.180 . S
O4 Mg3 2.099 . S
O4 C15 1.279 . S
O5 Mg1 2.117 . S
O5 C15 1.250 . S
O6 Mg3 2.079 . S
O6 C16 1.264 . S
O7 Mg3 2.072 . S
O7 C17 1.260 . S
Mg8 O9 2.180 . S
Mg8 O10 2.030 . S
Mg8 O11 1.990 . S
Mg8 O12 2.117 . S
O9 Mg3 2.099 . S
O9 Mg8 2.180 . S
O9 C18 1.279 . S
O10 Mg8 2.030 . S
O10 C16 1.248 . S
O11 Mg8 1.990 . S
O11 C17 1.253 . S
O12 Mg8 2.117 . S
O12 C18 1.250 . S
C13 O19 1.248 . S
C13 O20 1.264 . S
C14 O0 1.253 . S
C14 O2 1.260 . S
C15 O4 1.279 . S
C15 O5 1.250 . S
C16 O6 1.264 . S
C16 O10 1.248 . S
C17 O7 1.260 . S
C17 O11 1.253 . S
C18 O9 1.279 . S
C18 O12 1.250 . S
O19 Mg1 2.030 . S
O19 C13 1.248 . S
O20 Mg3 2.079 . S
O20 C13 1.264 . S
O21 Mg22 1.990 . S
O21 C35 1.253 . S
Mg22 O21 1.990 . S
Mg22 O25 2.180 . S
Mg22 O26 2.117 . S
Mg22 O40 2.030 . S
O23 Mg24 2.072 . S
O23 C35 1.260 . S
Mg24 O23 2.072 . S
Mg24 O25 2.099 . S
Mg24 O27 2.079 . S
Mg24 O28 2.072 . S
Mg24 O30 2.099 . S
Mg24 O41 2.079 . S
O25 Mg22 2.180 . S
O25 Mg24 2.099 . S
O25 C36 1.279 . S
O26 Mg22 2.117 . S
O26 C36 1.250 . S
O27 Mg24 2.079 . S
O27 C37 1.264 . S
O28 Mg24 2.072 . S
O28 C38 1.260 . S
Mg29 O30 2.180 . S
Mg29 O31 2.030 . S
Mg29 O32 1.990 . S
Mg29 O33 2.117 . S
O30 Mg24 2.099 . S
O30 Mg29 2.180 . S
O30 C39 1.279 . S
O31 Mg29 2.030 . S
O31 C37 1.248 . S
O32 Mg29 1.990 . S
O32 C38 1.253 . S
O33 Mg29 2.117 . S
O33 C39 1.250 . S
C34 O40 1.248 . S
C34 O41 1.264 . S
C35 O21 1.253 . S
C35 O23 1.260 . S
C36 O25 1.279 . S
C36 O26 1.250 . S
C37 O27 1.264 . S
C37 O31 1.248 . S
C38 O28 1.260 . S
C38 O32 1.253 . S
C39 O30 1.279 . S
C39 O33 1.250 . S
O40 Mg22 2.030 . S
O40 C34 1.248 . S
O41 Mg24 2.079 . S
O41 C34 1.264 . S
O42 Mg43 1.990 . S
O42 C56 1.253 . S
Mg43 O42 1.990 . S
Mg43 O46 2.180 . S
Mg43 O47 2.117 . S
Mg43 O61 2.030 . S
O44 Mg45 2.072 . S
O44 C56 1.260 . S
Mg45 O44 2.072 . S
Mg45 O46 2.099 . S
Mg45 O48 2.079 . S
Mg45 O49 2.072 . S
Mg45 O51 2.099 . S
Mg45 O62 2.079 . S
O46 Mg43 2.180 . S
O46 Mg45 2.099 . S
O46 C57 1.279 . S
O47 Mg43 2.117 . S
O47 C57 1.250 . S
O48 Mg45 2.079 . S
O48 C58 1.264 . S
O49 Mg45 2.072 . S
O49 C59 1.260 . S
Mg50 O51 2.180 . S
Mg50 O52 2.030 . S
Mg50 O53 1.990 . S
Mg50 O54 2.117 . S
O51 Mg45 2.099 . S
O51 Mg50 2.180 . S
O51 C60 1.279 . S
O52 Mg50 2.030 . S
O52 C58 1.248 . S
O53 Mg50 1.990 . S
O53 C59 1.253 . S
O54 Mg50 2.117 . S
O54 C60 1.250 . S
C55 O61 1.248 . S
C55 O62 1.264 . S
C56 O42 1.253 . S
C56 O44 1.260 . S
C57 O46 1.279 . S
C57 O47 1.250 . S
C58 O48 1.264 . S
C58 O52 1.248 . S
C59 O49 1.260 . S
C59 O53 1.253 . S
C60 O51 1.279 . S
C60 O54 1.250 . S
O61 Mg43 2.030 . S
O61 C55 1.248 . S
O62 Mg45 2.079 . S
O62 C55 1.264 . S
O63 Mg64 1.990 . S
O63 C77 1.253 . S
Mg64 O63 1.990 . S
Mg64 O67 2.180 . S
Mg64 O68 2.117 . S
Mg64 O82 2.030 . S
O65 Mg66 2.072 . S
O65 C77 1.260 . S
Mg66 O65 2.072 . S
Mg66 O67 2.099 . S
Mg66 O69 2.079 . S
Mg66 O70 2.072 . S
Mg66 O72 2.099 . S
Mg66 O83 2.079 . S
O67 Mg64 2.180 . S
O67 Mg66 2.099 . S
O67 C78 1.279 . S
O68 Mg64 2.117 . S
O68 C78 1.250 . S
O69 Mg66 2.079 . S
O69 C79 1.264 . S
O70 Mg66 2.072 . S
O70 C80 1.260 . S
Mg71 O72 2.180 . S
Mg71 O73 2.030 . S
Mg71 O74 1.990 . S
Mg71 O75 2.117 . S
O72 Mg66 2.099 . S
O72 Mg71 2.180 . S
O72 C81 1.279 . S
O73 Mg71 2.030 . S
O73 C79 1.248 . S
O74 Mg71 1.990 . S
O74 C80 1.253 . S
O75 Mg71 2.117 . S
O75 C81 1.250 . S
C76 O82 1.248 . S
C76 O83 1.264 . S
C77 O63 1.253 . S
C77 O65 1.260 . S
C78 O67 1.279 . S
C78 O68 1.250 . S
C79 O69 1.264 . S
C79 O73 1.248 . S
C80 O70 1.260 . S
C80 O74 1.253 . S
C81 O72 1.279 . S
C81 O75 1.250 . S
O82 Mg64 2.030 . S
O82 C76 1.248 . S
O83 Mg66 2.079 . S
O83 C76 1.264 . S
O84 Mg85 1.990 . S
O84 C98 1.253 . S
Mg85 O84 1.990 . S
Mg85 O88 2.180 . S
Mg85 O89 2.117 . S
Mg85 O103 2.030 . S
O86 Mg87 2.072 . S
O86 C98 1.260 . S
Mg87 O86 2.072 . S
Mg87 O88 2.099 . S
Mg87 O90 2.079 . S
Mg87 O91 2.072 . S
Mg87 O93 2.099 . S
Mg87 O104 2.079 . S
O88 Mg85 2.180 . S
O88 Mg87 2.099 . S
O88 C99 1.279 . S
O89 Mg85 2.117 . S
O89 C99 1.250 . S
O90 Mg87 2.079 . S
O90 C100 1.264 . S
O91 Mg87 2.072 . S
O91 C101 1.260 . S
Mg92 O93 2.180 . S
Mg92 O94 2.030 . S
Mg92 O95 1.990 . S
Mg92 O96 2.117 . S
O93 Mg87 2.099 . S
O93 Mg92 2.180 . S
O93 C102 1.279 . S
O94 Mg92 2.030 . S
O94 C100 1.248 . S
O95 Mg92 1.990 . S
O95 C101 1.253 . S
O96 Mg92 2.117 . S
O96 C102 1.250 . S
C97 O103 1.248 . S
C97 O104 1.264 . S
C98 O84 1.253 . S
C98 O86 1.260 . S
C99 O88 1.279 . S
C99 O89 1.250 . S
C100 O90 1.264 . S
C100 O94 1.248 . S
C101 O91 1.260 . S
C101 O95 1.253 . S
C102 O93 1.279 . S
C102 O96 1.250 . S
O103 Mg85 2.030 . S
O103 C97 1.248 . S
O104 Mg87 2.079 . S
O104 C97 1.264 . S
O105 Mg106 1.990 . S
O105 C119 1.253 . S
Mg106 O105 1.990 . S
Mg106 O109 2.180 . S
Mg106 O110 2.117 . S
Mg106 O124 2.030 . S
O107 Mg108 2.072 . S
O107 C119 1.260 . S
Mg108 O107 2.072 . S
Mg108 O109 2.099 . S
Mg108 O111 2.079 . S
Mg108 O112 2.072 . S
Mg108 O114 2.099 . S
Mg108 O125 2.079 . S
O109 Mg106 2.180 . S
O109 Mg108 2.099 . S
O109 C120 1.279 . S
O110 Mg106 2.117 . S
O110 C120 1.250 . S
O111 Mg108 2.079 . S
O111 C121 1.264 . S
O112 Mg108 2.072 . S
O112 C122 1.260 . S
Mg113 O114 2.180 . S
Mg113 O115 2.030 . S
Mg113 O116 1.990 . S
Mg113 O117 2.117 . S
O114 Mg108 2.099 . S
O114 Mg113 2.180 . S
O114 C123 1.279 . S
O115 Mg113 2.030 . S
O115 C121 1.248 . S
O116 Mg113 1.990 . S
O116 C122 1.253 . S
O117 Mg113 2.117 . S
O117 C123 1.250 . S
C118 O124 1.248 . S
C118 O125 1.264 . S
C119 O105 1.253 . S
C119 O107 1.260 . S
C120 O109 1.279 . S
C120 O110 1.250 . S
C121 O111 1.264 . S
C121 O115 1.248 . S
C122 O112 1.260 . S
C122 O116 1.253 . S
C123 O114 1.279 . S
C123 O117 1.250 . S
O124 Mg106 2.030 . S
O124 C118 1.248 . S
O125 Mg108 2.079 . S
O125 C118 1.264 . S
O126 Mg127 1.990 . S
O126 C140 1.253 . S
Mg127 O126 1.990 . S
Mg127 O130 2.180 . S
Mg127 O131 2.117 . S
Mg127 O145 2.030 . S
O128 Mg129 2.072 . S
O128 C140 1.260 . S
Mg129 O128 2.072 . S
Mg129 O130 2.099 . S
Mg129 O132 2.079 . S
Mg129 O133 2.072 . S
Mg129 O135 2.099 . S
Mg129 O146 2.079 . S
O130 Mg127 2.180 . S
O130 Mg129 2.099 . S
O130 C141 1.279 . S
O131 Mg127 2.117 . S
O131 C141 1.250 . S
O132 Mg129 2.079 . S
O132 C142 1.264 . S
O133 Mg129 2.072 . S
O133 C143 1.260 . S
Mg134 O135 2.180 . S
Mg134 O136 2.030 . S
Mg134 O137 1.990 . S
Mg134 O138 2.117 . S
O135 Mg129 2.099 . S
O135 Mg134 2.180 . S
O135 C144 1.279 . S
O136 Mg134 2.030 . S
O136 C142 1.248 . S
O137 Mg134 1.990 . S
O137 C143 1.253 . S
O138 Mg134 2.117 . S
O138 C144 1.250 . S
C139 O145 1.248 . S
C139 O146 1.264 . S
C140 O126 1.253 . S
C140 O128 1.260 . S
C141 O130 1.279 . S
C141 O131 1.250 . S
C142 O132 1.264 . S
C142 O136 1.248 . S
C143 O133 1.260 . S
C143 O137 1.253 . S
C144 O135 1.279 . S
C144 O138 1.250 . S
O145 Mg127 2.030 . S
O145 C139 1.248 . S
O146 Mg129 2.079 . S
O146 C139 1.264 . S
O147 Mg148 1.990 . S
O147 C161 1.253 . S
Mg148 O147 1.990 . S
Mg148 O151 2.180 . S
Mg148 O152 2.117 . S
Mg148 O166 2.030 . S
O149 Mg150 2.072 . S
O149 C161 1.260 . S
Mg150 O149 2.072 . S
Mg150 O151 2.099 . S
Mg150 O153 2.079 . S
Mg150 O154 2.072 . S
Mg150 O156 2.099 . S
Mg150 O167 2.079 . S
O151 Mg148 2.180 . S
O151 Mg150 2.099 . S
O151 C162 1.279 . S
O152 Mg148 2.117 . S
O152 C162 1.250 . S
O153 Mg150 2.079 . S
O153 C163 1.264 . S
O154 Mg150 2.072 . S
O154 C164 1.260 . S
Mg155 O156 2.180 . S
Mg155 O157 2.030 . S
Mg155 O158 1.990 . S
Mg155 O159 2.117 . S
O156 Mg150 2.099 . S
O156 Mg155 2.180 . S
O156 C165 1.279 . S
O157 Mg155 2.030 . S
O157 C163 1.248 . S
O158 Mg155 1.990 . S
O158 C164 1.253 . S
O159 Mg155 2.117 . S
O159 C165 1.250 . S
C160 O166 1.248 . S
C160 O167 1.264 . S
C161 O147 1.253 . S
C161 O149 1.260 . S
C162 O151 1.279 . S
C162 O152 1.250 . S
C163 O153 1.264 . S
C163 O157 1.248 . S
C164 O154 1.260 . S
C164 O158 1.253 . S
C165 O156 1.279 . S
C165 O159 1.250 . S
O166 Mg148 2.030 . S
O166 C160 1.248 . S
O167 Mg150 2.079 . S
O167 C160 1.264 . S
O168 Mg169 1.990 . S
O168 C182 1.253 . S
Mg169 O168 1.990 . S
Mg169 O172 2.180 . S
Mg169 O173 2.117 . S
Mg169 O187 2.030 . S
O170 Mg171 2.072 . S
O170 C182 1.260 . S
Mg171 O170 2.072 . S
Mg171 O172 2.099 . S
Mg171 O174 2.079 . S
Mg171 O175 2.072 . S
Mg171 O177 2.099 . S
Mg171 O188 2.079 . S
O172 Mg169 2.180 . S
O172 Mg171 2.099 . S
O172 C183 1.279 . S
O173 Mg169 2.117 . S
O173 C183 1.250 . S
O174 Mg171 2.079 . S
O174 C184 1.264 . S
O175 Mg171 2.072 . S
O175 C185 1.260 . S
Mg176 O177 2.180 . S
Mg176 O178 2.030 . S
Mg176 O179 1.990 . S
Mg176 O180 2.117 . S
O177 Mg171 2.099 . S
O177 Mg176 2.180 . S
O177 C186 1.279 . S
O178 Mg176 2.030 . S
O178 C184 1.248 . S
O179 Mg176 1.990 . S
O179 C185 1.253 . S
O180 Mg176 2.117 . S
O180 C186 1.250 . S
C181 O187 1.248 . S
C181 O188 1.264 . S
C182 O168 1.253 . S
C182 O170 1.260 . S
C183 O172 1.279 . S
C183 O173 1.250 . S
C184 O174 1.264 . S
C184 O178 1.248 . S
C185 O175 1.260 . S
C185 O179 1.253 . S
C186 O177 1.279 . S
C186 O180 1.250 . S
O187 Mg169 2.030 . S
O187 C181 1.248 . S
O188 Mg171 2.079 . S
O188 C181 1.264 . S
O189 Mg190 1.990 . S
O189 C203 1.253 . S
Mg190 O189 1.990 . S
Mg190 O193 2.180 . S
Mg190 O194 2.117 . S
Mg190 O208 2.030 . S
O191 Mg192 2.072 . S
O191 C203 1.260 . S
Mg192 O191 2.072 . S
Mg192 O193 2.099 . S
Mg192 O195 2.079 . S
Mg192 O196 2.072 . S
Mg192 O198 2.099 . S
Mg192 O209 2.079 . S
O193 Mg190 2.180 . S
O193 Mg192 2.099 . S
O193 C204 1.279 . S
O194 Mg190 2.117 . S
O194 C204 1.250 . S
O195 Mg192 2.079 . S
O195 C205 1.264 . S
O196 Mg192 2.072 . S
O196 C206 1.260 . S
Mg197 O198 2.180 . S
Mg197 O199 2.030 . S
Mg197 O200 1.990 . S
Mg197 O201 2.117 . S
O198 Mg192 2.099 . S
O198 Mg197 2.180 . S
O198 C207 1.279 . S
O199 Mg197 2.030 . S
O199 C205 1.248 . S
O200 Mg197 1.990 . S
O200 C206 1.253 . S
O201 Mg197 2.117 . S
O201 C207 1.250 . S
C202 O208 1.248 . S
C202 O209 1.264 . S
C203 O189 1.253 . S
C203 O191 1.260 . S
C204 O193 1.279 . S
C204 O194 1.250 . S
C205 O195 1.264 . S
C205 O199 1.248 . S
C206 O196 1.260 . S
C206 O200 1.253 . S
C207 O198 1.279 . S
C207 O201 1.250 . S
O208 Mg190 2.030 . S
O208 C202 1.248 . S
O209 Mg192 2.079 . S
O209 C202 1.264 . S
O210 Mg211 1.990 . S
O210 C224 1.253 . S
Mg211 O210 1.990 . S
Mg211 O214 2.180 . S
Mg211 O215 2.117 . S
Mg211 O229 2.030 . S
O212 Mg213 2.072 . S
O212 C224 1.260 . S
Mg213 O212 2.072 . S
Mg213 O214 2.099 . S
Mg213 O216 2.079 . S
Mg213 O217 2.072 . S
Mg213 O219 2.099 . S
Mg213 O230 2.079 . S
O214 Mg211 2.180 . S
O214 Mg213 2.099 . S
O214 C225 1.279 . S
O215 Mg211 2.117 . S
O215 C225 1.250 . S
O216 Mg213 2.079 . S
O216 C226 1.264 . S
O217 Mg213 2.072 . S
O217 C227 1.260 . S
Mg218 O219 2.180 . S
Mg218 O220 2.030 . S
Mg218 O221 1.990 . S
Mg218 O222 2.117 . S
O219 Mg213 2.099 . S
O219 Mg218 2.180 . S
O219 C228 1.279 . S
O220 Mg218 2.030 . S
O220 C226 1.248 . S
O221 Mg218 1.990 . S
O221 C227 1.253 . S
O222 Mg218 2.117 . S
O222 C228 1.250 . S
C223 O229 1.248 . S
C223 O230 1.264 . S
C224 O210 1.253 . S
C224 O212 1.260 . S
C225 O214 1.279 . S
C225 O215 1.250 . S
C226 O216 1.264 . S
C226 O220 1.248 . S
C227 O217 1.260 . S
C227 O221 1.253 . S
C228 O219 1.279 . S
C228 O222 1.250 . S
O229 Mg211 2.030 . S
O229 C223 1.248 . S
O230 Mg213 2.079 . S
O230 C223 1.264 . S
O231 Mg232 1.990 . S
O231 C245 1.253 . S
Mg232 O231 1.990 . S
Mg232 O235 2.180 . S
Mg232 O236 2.117 . S
Mg232 O250 2.030 . S
O233 Mg234 2.072 . S
O233 C245 1.260 . S
Mg234 O233 2.072 . S
Mg234 O235 2.099 . S
Mg234 O237 2.079 . S
Mg234 O238 2.072 . S
Mg234 O240 2.099 . S
Mg234 O251 2.079 . S
O235 Mg232 2.180 . S
O235 Mg234 2.099 . S
O235 C246 1.279 . S
O236 Mg232 2.117 . S
O236 C246 1.250 . S
O237 Mg234 2.079 . S
O237 C247 1.264 . S
O238 Mg234 2.072 . S
O238 C248 1.260 . S
Mg239 O240 2.180 . S
Mg239 O241 2.030 . S
Mg239 O242 1.990 . S
Mg239 O243 2.117 . S
O240 Mg234 2.099 . S
O240 Mg239 2.180 . S
O240 C249 1.279 . S
O241 Mg239 2.030 . S
O241 C247 1.248 . S
O242 Mg239 1.990 . S
O242 C248 1.253 . S
O243 Mg239 2.117 . S
O243 C249 1.250 . S
C244 O250 1.248 . S
C244 O251 1.264 . S
C245 O231 1.253 . S
C245 O233 1.260 . S
C246 O235 1.279 . S
C246 O236 1.250 . S
C247 O237 1.264 . S
C247 O241 1.248 . S
C248 O238 1.260 . S
C248 O242 1.253 . S
C249 O240 1.279 . S
C249 O243 1.250 . S
O250 Mg232 2.030 . S
O250 C244 1.248 . S
O251 Mg234 2.079 . S
O251 C244 1.264 . S
C252 C253 1.369 . S
C252 C254 1.419 . S
C252 H256 0.930 . S
C253 C252 1.369 . S
C253 C262 1.429 . S
C254 C252 1.419 . S
C254 C255 1.363 . S
C254 H257 0.929 . S
C255 C254 1.363 . S
C255 C261 1.428 . S
H256 C252 0.930 . S
H257 C254 0.929 . S
S258 N259 1.613 . S
S258 N260 1.610 . S
N259 S258 1.613 . S
N259 C262 1.350 . S
N260 S258 1.610 . S
N260 C261 1.351 . S
C261 C255 1.428 . S
C261 N260 1.351 . S
C261 C262 1.434 . S
C262 C253 1.429 . S
C262 N259 1.350 . S
C262 C261 1.434 . S
C263 C264 1.369 . S
C263 C265 1.419 . S
C263 H267 0.930 . S
C264 C263 1.369 . S
C264 C273 1.429 . S
C265 C263 1.419 . S
C265 C266 1.363 . S
C265 H268 0.929 . S
C266 C265 1.363 . S
C266 C272 1.428 . S
H267 C263 0.930 . S
H268 C265 0.929 . S
S269 N270 1.613 1_655 S
S269 N271 1.610 . S
N270 S269 1.613 1_455 S
N270 C273 1.350 . S
N271 S269 1.610 . S
N271 C272 1.351 1_655 S
C272 C266 1.428 . S
C272 N271 1.351 1_455 S
C272 C273 1.434 . S
C273 C264 1.429 . S
C273 N270 1.350 . S
C273 C272 1.434 . S
C274 C275 1.369 . S
C274 C276 1.419 . S
C274 H278 0.930 . S
C275 C274 1.369 . S
C275 C284 1.429 . S
C276 C274 1.419 . S
C276 C277 1.363 . S
C276 H279 0.929 . S
C277 C276 1.363 . S
C277 C283 1.428 . S
H278 C274 0.930 . S
H279 C276 0.929 . S
S280 N281 1.613 1_545 S
S280 N282 1.610 . S
N281 S280 1.613 1_565 S
N281 C284 1.350 1_565 S
N282 S280 1.610 . S
N282 C283 1.351 . S
C283 C277 1.428 . S
C283 N282 1.351 . S
C283 C284 1.434 . S
C284 C275 1.429 . S
C284 N281 1.350 1_545 S
C284 C283 1.434 . S
C285 C286 1.369 . S
C285 C287 1.419 . S
C285 H289 0.930 . S
C286 C285 1.369 . S
C286 C295 1.429 . S
C287 C285 1.419 . S
C287 C288 1.363 . S
C287 H290 0.929 . S
C288 C287 1.363 . S
C288 C294 1.428 . S
H289 C285 0.930 . S
H290 C287 0.929 . S
S291 N292 1.613 . S
S291 N293 1.610 . S
N292 S291 1.613 . S
N292 C295 1.350 . S
N293 S291 1.610 . S
N293 C294 1.351 . S
C294 C288 1.428 . S
C294 N293 1.351 . S
C294 C295 1.434 . S
C295 C286 1.429 . S
C295 N292 1.350 . S
C295 C294 1.434 . S
C296 C297 1.369 . S
C296 C298 1.419 . S
C296 H300 0.930 . S
C297 C296 1.369 . S
C297 C306 1.429 . S
C298 C296 1.419 . S
C298 C299 1.363 . S
C298 H301 0.929 . S
C299 C298 1.363 . S
C299 C305 1.428 . S
H300 C296 0.930 . S
H301 C298 0.929 . S
S302 N303 1.613 . S
S302 N304 1.610 . S
N303 S302 1.613 . S
N303 C306 1.350 . S
N304 S302 1.610 . S
N304 C305 1.351 . S
C305 C299 1.428 . S
C305 N304 1.351 . S
C305 C306 1.434 . S
C306 C297 1.429 . S
C306 N303 1.350 . S
C306 C305 1.434 . S
C307 C308 1.369 . S
C307 C309 1.419 . S
C307 H311 0.925 1_455 S
C308 C307 1.369 . S
C308 C317 1.429 . S
C309 C307 1.419 . S
C309 C310 1.363 . S
C309 H312 0.929 . S
C310 C309 1.363 . S
C310 C316 1.428 . S
H311 C307 0.925 1_655 S
H312 C309 0.929 . S
S313 N314 1.613 . S
S313 N315 1.610 . S
N314 S313 1.613 . S
N314 C317 1.350 . S
N315 S313 1.610 . S
N315 C316 1.351 . S
C316 C310 1.428 . S
C316 N315 1.351 . S
C316 C317 1.434 . S
C317 C308 1.429 . S
C317 N314 1.350 . S
C317 C316 1.434 . S
C318 C319 1.369 . S
C318 C320 1.419 . S
C318 H322 0.930 . S
C319 C318 1.369 . S
C319 C328 1.429 . S
C320 C318 1.419 . S
C320 C321 1.363 . S
C320 H323 0.929 . S
C321 C320 1.363 . S
C321 C327 1.428 . S
H322 C318 0.930 . S
H323 C320 0.929 . S
S324 N325 1.613 . S
S324 N326 1.610 . S
N325 S324 1.613 . S
N325 C328 1.350 . S
N326 S324 1.610 . S
N326 C327 1.351 . S
C327 C321 1.428 . S
C327 N326 1.351 . S
C327 C328 1.434 . S
C328 C319 1.429 . S
C328 N325 1.350 . S
C328 C327 1.434 . S
C329 C330 1.369 . S
C329 C331 1.419 . S
C329 H333 0.930 1_455 S
C330 C329 1.369 . S
C330 C339 1.429 . S
C331 C329 1.419 . S
C331 C332 1.363 . S
C331 H334 0.929 1_565 S
C332 C331 1.363 . S
C332 C338 1.428 . S
H333 C329 0.930 1_655 S
H334 C331 0.929 1_545 S
S335 N336 1.613 . S
S335 N337 1.610 . S
N336 S335 1.613 . S
N336 C339 1.350 . S
N337 S335 1.610 . S
N337 C338 1.351 . S
C338 C332 1.428 . S
C338 N337 1.351 . S
C338 C339 1.434 . S
C339 C330 1.429 . S
C339 N336 1.350 . S
C339 C338 1.434 . S
C340 C341 1.369 . S
C340 C342 1.419 . S
C340 H344 0.930 . S
C341 C340 1.369 . S
C341 C350 1.429 . S
C342 C340 1.419 . S
C342 C343 1.363 . S
C342 H345 0.929 . S
C343 C342 1.363 . S
C343 C349 1.428 . S
H344 C340 0.930 . S
H345 C342 0.929 . S
S346 N347 1.613 . S
S346 N348 1.610 . S
N347 S346 1.613 . S
N347 C350 1.350 . S
N348 S346 1.610 . S
N348 C349 1.351 . S
C349 C343 1.428 . S
C349 N348 1.351 . S
C349 C350 1.434 . S
C350 C341 1.429 . S
C350 N347 1.350 . S
C350 C349 1.434 . S
C351 C352 1.369 . S
C351 C353 1.419 . S
C351 H355 0.930 . S
C352 C351 1.369 . S
C352 C361 1.429 . S
C353 C351 1.419 . S
C353 C354 1.363 . S
C353 H356 0.929 . S
C354 C353 1.363 . S
C354 C360 1.428 . S
H355 C351 0.930 . S
H356 C353 0.929 . S
S357 N358 1.613 . S
S357 N359 1.610 1_455 S
N358 S357 1.613 . S
N358 C361 1.350 . S
N359 S357 1.610 1_655 S
N359 C360 1.351 1_655 S
C360 C354 1.428 . S
C360 N359 1.351 1_455 S
C360 C361 1.434 . S
C361 C352 1.429 . S
C361 N358 1.350 . S
C361 C360 1.434 . S
C362 C363 1.369 . S
C362 C364 1.419 . S
C362 H366 0.930 . S
C363 C362 1.369 . S
C363 C372 1.429 . S
C364 C362 1.419 . S
C364 C365 1.363 . S
C364 H367 0.929 . S
C365 C364 1.363 . S
C365 C371 1.428 . S
H366 C362 0.930 . S
H367 C364 0.929 . S
S368 N369 1.611 . S
S368 N370 1.610 1_545 S
N369 S368 1.611 . S
N369 C372 1.364 . S
N370 S368 1.610 1_565 S
N370 C371 1.351 1_565 S
C371 C365 1.428 . S
C371 N370 1.351 1_545 S
C371 C372 1.434 . S
C372 C363 1.429 . S
C372 N369 1.364 . S
C372 C371 1.434 . S
C373 C374 1.369 . S
C373 C375 1.419 . S
C373 H377 0.930 . S
C374 C373 1.369 . S
C374 C383 1.429 . S
C375 C373 1.419 . S
C375 C376 1.363 . S
C375 H378 0.929 . S
C376 C375 1.363 . S
C376 C382 1.428 . S
H377 C373 0.930 . S
H378 C375 0.929 . S
S379 N380 1.613 . S
S379 N381 1.610 . S
N380 S379 1.613 . S
N380 C383 1.350 . S
N381 S379 1.610 . S
N381 C382 1.351 . S
C382 C376 1.428 . S
C382 N381 1.351 . S
C382 C383 1.434 . S
C383 C374 1.429 . S
C383 N380 1.350 . S
C383 C382 1.434 . S
C384 C385 1.369 . S
C384 C386 1.419 . S
C384 H388 0.930 . S
C385 C384 1.369 . S
C385 C394 1.429 . S
C386 C384 1.419 . S
C386 C387 1.363 . S
C386 H389 0.929 . S
C387 C386 1.363 . S
C387 C393 1.428 . S
H388 C384 0.930 . S
H389 C386 0.929 . S
S390 N391 1.613 1_655 S
S390 N392 1.610 1_655 S
N391 S390 1.613 1_455 S
N391 C394 1.350 . S
N392 S390 1.610 1_455 S
N392 C393 1.351 . S
C393 C387 1.428 . S
C393 N392 1.351 . S
C393 C394 1.434 . S
C394 C385 1.429 . S
C394 N391 1.350 . S
C394 C393 1.434 . S
C395 C396 1.369 . S
C395 C397 1.419 . S
C395 H399 0.930 . S
C396 C395 1.369 . S
C396 C405 1.429 . S
C397 C395 1.419 . S
C397 C398 1.363 . S
C397 H400 0.929 . S
C398 C397 1.363 . S
C398 C404 1.428 . S
H399 C395 0.930 . S
H400 C397 0.929 . S
S401 N402 1.613 . S
S401 N403 1.610 . S
N402 S401 1.613 . S
N402 C405 1.350 . S
N403 S401 1.610 . S
N403 C404 1.351 . S
C404 C398 1.428 . S
C404 N403 1.351 . S
C404 C405 1.434 . S
C405 C396 1.429 . S
C405 N402 1.350 . S
C405 C404 1.434 . S
C406 C407 1.369 . S
C406 C408 1.419 . S
C406 H410 0.930 . S
C407 C406 1.369 . S
C407 C416 1.429 . S
C408 C406 1.419 . S
C408 C409 1.363 . S
C408 H411 0.929 . S
C409 C408 1.363 . S
C409 C415 1.428 . S
H410 C406 0.930 . S
H411 C408 0.929 . S
S412 N413 1.613 . S
S412 N414 1.610 . S
N413 S412 1.613 . S
N413 C416 1.350 . S
N414 S412 1.610 . S
N414 C415 1.351 . S
C415 C409 1.428 . S
C415 N414 1.351 . S
C415 C416 1.434 . S
C416 C407 1.429 . S
C416 N413 1.350 . S
C416 C415 1.434 . S
C417 C418 1.369 . S
C417 C419 1.419 . S
C417 H421 0.930 . S
C418 C417 1.369 . S
C418 C427 1.429 . S
C419 C417 1.419 . S
C419 C420 1.363 . S
C419 H422 0.929 . S
C420 C419 1.363 . S
C420 C426 1.428 . S
H421 C417 0.930 . S
H422 C419 0.929 . S
S423 N424 1.613 . S
S423 N425 1.610 . S
N424 S423 1.613 . S
N424 C427 1.350 . S
N425 S423 1.610 . S
N425 C426 1.351 . S
C426 C420 1.428 . S
C426 N425 1.351 . S
C426 C427 1.434 . S
C427 C418 1.429 . S
C427 N424 1.350 . S
C427 C426 1.434 . S
C428 C429 1.369 . S
C428 C430 1.419 . S
C428 H432 0.930 . S
C429 C428 1.369 . S
C429 C438 1.429 . S
C430 C428 1.419 . S
C430 C431 1.363 . S
C430 H433 0.929 . S
C431 C430 1.363 . S
C431 C437 1.428 . S
H432 C428 0.930 . S
H433 C430 0.929 . S
S434 N435 1.613 1_545 S
S434 N436 1.610 1_545 S
N435 S434 1.613 1_565 S
N435 C438 1.350 . S
N436 S434 1.610 1_565 S
N436 C437 1.351 . S
C437 C431 1.428 . S
C437 N436 1.351 . S
C437 C438 1.434 . S
C438 C429 1.429 . S
C438 N435 1.350 . S
C438 C437 1.434 . S
C439 C440 1.369 . S
C439 C441 1.419 . S
C439 H443 0.930 . S
C440 C439 1.369 . S
C440 C449 1.429 . S
C441 C439 1.419 . S
C441 C442 1.363 . S
C441 H444 0.929 . S
C442 C441 1.363 . S
C442 C448 1.428 . S
H443 C439 0.930 . S
H444 C441 0.929 . S
S445 N446 1.613 . S
S445 N447 1.610 . S
N446 S445 1.613 . S
N446 C449 1.350 . S
N447 S445 1.610 . S
N447 C448 1.351 . S
C448 C442 1.428 . S
C448 N447 1.351 . S
C448 C449 1.434 . S
C449 C440 1.429 . S
C449 N446 1.350 . S
C449 C448 1.434 . S
C450 C451 1.369 . S
C450 C452 1.419 . S
C450 H454 0.930 . S
C451 C450 1.369 . S
C451 C460 1.429 . S
C452 C450 1.419 . S
C452 C453 1.363 . S
C452 H455 0.929 . S
C453 C452 1.363 . S
C453 C459 1.428 . S
H454 C450 0.930 . S
H455 C452 0.929 . S
S456 N457 1.613 . S
S456 N458 1.610 . S
N457 S456 1.613 . S
N457 C460 1.350 . S
N458 S456 1.610 . S
N458 C459 1.351 . S
C459 C453 1.428 . S
C459 N458 1.351 . S
C459 C460 1.434 . S
C460 C451 1.429 . S
C460 N457 1.350 . S
C460 C459 1.434 . S
C461 C462 1.369 . S
C461 C463 1.419 . S
C461 H465 0.930 . S
C462 C461 1.369 . S
C462 C471 1.429 . S
C463 C461 1.419 . S
C463 C464 1.363 . S
C463 H466 0.929 . S
C464 C463 1.363 . S
C464 C470 1.428 . S
H465 C461 0.930 . S
H466 C463 0.929 . S
S467 N468 1.613 . S
S467 N469 1.610 . S
N468 S467 1.613 . S
N468 C471 1.350 . S
N469 S467 1.610 . S
N469 C470 1.351 . S
C470 C464 1.428 . S
C470 N469 1.351 . S
C470 C471 1.434 . S
C471 C462 1.429 . S
C471 N468 1.350 . S
C471 C470 1.434 . S
C472 C473 1.369 . S
C472 C474 1.419 . S
C472 H476 0.930 . S
C473 C472 1.369 . S
C473 C482 1.429 . S
C474 C472 1.419 . S
C474 C475 1.363 . S
C474 H477 0.929 . S
C475 C474 1.363 . S
C475 C481 1.428 . S
H476 C472 0.930 . S
H477 C474 0.929 . S
S478 N479 1.613 . S
S478 N480 1.610 . S
N479 S478 1.613 . S
N479 C482 1.350 . S
N480 S478 1.610 . S
N480 C481 1.351 . S
C481 C475 1.428 . S
C481 N480 1.351 . S
C481 C482 1.434 . S
C482 C473 1.429 . S
C482 N479 1.350 . S
C482 C481 1.434 . S
C483 C484 1.369 . S
C483 C485 1.419 . S
C483 H487 0.930 . S
C484 C483 1.369 . S
C484 C493 1.429 . S
C485 C483 1.419 . S
C485 C486 1.363 . S
C485 H488 0.929 . S
C486 C485 1.363 . S
C486 C492 1.428 . S
H487 C483 0.930 . S
H488 C485 0.929 . S
S489 N490 1.613 1_565 S
S489 N491 1.610 1_565 S
N490 S489 1.613 1_545 S
N490 C493 1.350 . S
N491 S489 1.610 1_545 S
N491 C492 1.351 . S
C492 C486 1.428 . S
C492 N491 1.351 . S
C492 C493 1.434 . S
C493 C484 1.429 . S
C493 N490 1.350 . S
C493 C492 1.434 . S
C494 C495 1.369 . S
C494 C496 1.419 . S
C494 H498 0.930 . S
C495 C494 1.369 . S
C495 C504 1.429 . S
C496 C494 1.419 . S
C496 C497 1.363 . S
C496 H499 0.929 . S
C497 C496 1.363 . S
C497 C503 1.428 . S
H498 C494 0.930 . S
H499 C496 0.929 . S
S500 N501 1.613 . S
S500 N502 1.610 . S
N501 S500 1.613 . S
N501 C504 1.350 . S
N502 S500 1.610 . S
N502 C503 1.351 . S
C503 C497 1.428 . S
C503 N502 1.351 . S
C503 C504 1.434 . S
C504 C495 1.429 . S
C504 N501 1.350 . S
C504 C503 1.434 . S
C505 C506 1.369 . S
C505 C507 1.419 . S
C505 H509 0.930 . S
C506 C505 1.369 . S
C506 C515 1.429 . S
C507 C505 1.419 . S
C507 C508 1.363 . S
C507 H510 0.929 . S
C508 C507 1.363 . S
C508 C514 1.428 . S
H509 C505 0.930 . S
H510 C507 0.929 . S
S511 N512 1.613 . S
S511 N513 1.610 . S
N512 S511 1.613 . S
N512 C515 1.350 . S
N513 S511 1.610 . S
N513 C514 1.351 . S
C514 C508 1.428 . S
C514 N513 1.351 . S
C514 C515 1.434 . S
C515 C506 1.429 . S
C515 N512 1.350 . S
C515 C514 1.434 . S
C516 C517 1.369 . S
C516 C518 1.419 . S
C516 H520 0.930 . S
C517 C516 1.369 . S
C517 C526 1.429 . S
C518 C516 1.419 . S
C518 C519 1.363 . S
C518 H521 0.929 . S
C519 C518 1.363 . S
C519 C525 1.428 . S
H520 C516 0.930 . S
H521 C518 0.929 . S
S522 N523 1.613 . S
S522 N524 1.610 . S
N523 S522 1.613 . S
N523 C526 1.350 . S
N524 S522 1.610 . S
N524 C525 1.351 . S
C525 C519 1.428 . S
C525 N524 1.351 . S
C525 C526 1.434 . S
C526 C517 1.429 . S
C526 N523 1.350 . S
C526 C525 1.434 . S
C527 C528 1.369 . S
C527 C529 1.419 . S
C527 H531 0.930 . S
C528 C527 1.369 . S
C528 C537 1.429 . S
C529 C527 1.419 . S
C529 C530 1.363 . S
C529 H532 0.929 . S
C530 C529 1.363 . S
C530 C536 1.428 . S
H531 C527 0.930 . S
H532 C529 0.929 . S
S533 N534 1.613 . S
S533 N535 1.610 . S
N534 S533 1.613 . S
N534 C537 1.350 . S
N535 S533 1.610 . S
N535 C536 1.351 . S
C536 C530 1.428 . S
C536 N535 1.351 . S
C536 C537 1.434 . S
C537 C528 1.429 . S
C537 N534 1.350 . S
C537 C536 1.434 . S
C538 C539 1.369 . S
C538 C540 1.419 . S
C538 H542 0.930 . S
C539 C538 1.369 . S
C539 C548 1.429 . S
C540 C538 1.419 . S
C540 C541 1.363 . S
C540 H543 0.929 . S
C541 C540 1.363 . S
C541 C547 1.428 . S
H542 C538 0.930 . S
H543 C540 0.929 . S
S544 N545 1.613 . S
S544 N546 1.610 . S
N545 S544 1.613 . S
N545 C548 1.350 . S
N546 S544 1.610 . S
N546 C547 1.351 . S
C547 C541 1.428 . S
C547 N546 1.351 . S
C547 C548 1.434 . S
C548 C539 1.429 . S
C548 N545 1.350 . S
C548 C547 1.434 . S
C549 C550 1.369 . S
C549 C551 1.419 . S
C549 H553 0.930 . S
C550 C549 1.369 . S
C550 C559 1.429 . S
C551 C549 1.419 . S
C551 C552 1.363 . S
C551 H554 0.929 . S
C552 C551 1.363 . S
C552 C558 1.428 . S
H553 C549 0.930 . S
H554 C551 0.929 . S
S555 N556 1.613 . S
S555 N557 1.610 . S
N556 S555 1.613 . S
N556 C559 1.350 . S
N557 S555 1.610 . S
N557 C558 1.351 . S
C558 C552 1.428 . S
C558 N557 1.351 . S
C558 C559 1.434 . S
C559 C550 1.429 . S
C559 N556 1.350 . S
C559 C558 1.434 . S
C560 C561 1.369 . S
C560 C562 1.419 . S
C560 H564 0.930 . S
C561 C560 1.369 . S
C561 C570 1.429 . S
C562 C560 1.419 . S
C562 C563 1.363 . S
C562 H565 0.929 . S
C563 C562 1.363 . S
C563 C569 1.428 . S
H564 C560 0.930 . S
H565 C562 0.929 . S
S566 N567 1.613 . S
S566 N568 1.610 . S
N567 S566 1.613 . S
N567 C570 1.350 . S
N568 S566 1.610 . S
N568 C569 1.351 . S
C569 C563 1.428 . S
C569 N568 1.351 . S
C569 C570 1.434 . S
C570 C561 1.429 . S
C570 N567 1.350 . S
C570 C569 1.434 . S
C571 C572 1.369 . S
C571 C573 1.419 . S
C571 H575 0.930 . S
C572 C571 1.369 . S
C572 C581 1.429 . S
C573 C571 1.419 . S
C573 C574 1.363 . S
C573 H576 0.929 . S
C574 C573 1.363 . S
C574 C580 1.428 . S
H575 C571 0.930 . S
H576 C573 0.929 . S
S577 N578 1.613 . S
S577 N579 1.610 . S
N578 S577 1.613 . S
N578 C581 1.350 . S
N579 S577 1.610 . S
N579 C580 1.351 . S
C580 C574 1.428 . S
C580 N579 1.351 . S
C580 C581 1.434 . S
C581 C572 1.429 . S
C581 N578 1.350 . S
C581 C580 1.434 . S
C582 C583 1.369 . S
C582 C584 1.421 1_556 S
C582 H586 0.930 . S
C583 C582 1.369 . S
C583 C592 1.419 1_556 S
C584 C582 1.421 1_554 S
C584 C585 1.360 . S
C584 H587 0.929 1_554 S
C585 C584 1.360 . S
C585 C591 1.428 . S
H586 C582 0.930 . S
H587 C584 0.929 1_556 S
S588 N589 1.613 . S
S588 N590 1.610 . S
N589 S588 1.613 . S
N589 C592 1.351 . S
N590 S588 1.610 . S
N590 C591 1.351 . S
C591 C585 1.428 . S
C591 N590 1.351 . S
C591 C592 1.443 . S
C592 C583 1.419 1_554 S
C592 N589 1.351 . S
C592 C591 1.443 . S
C593 C594 1.369 1_655 S
C593 C595 1.419 . S
C593 H597 0.930 . S
C594 C593 1.369 1_455 S
C594 C603 1.429 . S
C595 C593 1.419 . S
C595 C596 1.363 . S
C595 H598 0.929 . S
C596 C595 1.363 . S
C596 C602 1.428 1_655 S
H597 C593 0.930 . S
H598 C595 0.929 . S
S599 N600 1.613 . S
S599 N601 1.610 . S
N600 S599 1.613 . S
N600 C603 1.350 . S
N601 S599 1.610 . S
N601 C602 1.351 . S
C602 C596 1.428 1_455 S
C602 N601 1.351 . S
C602 C603 1.434 . S
C603 C594 1.429 . S
C603 N600 1.350 . S
C603 C602 1.434 . S
C604 C605 1.369 1_545 S
C604 C606 1.419 . S
C604 H608 0.930 . S
C605 C604 1.369 1_565 S
C605 C614 1.429 1_554 S
C606 C604 1.419 . S
C606 C607 1.363 1_554 S
C606 H609 0.929 . S
C607 C606 1.363 1_556 S
C607 C613 1.428 1_545 S
H608 C604 0.930 . S
H609 C606 0.929 . S
S610 N611 1.613 . S
S610 N612 1.610 . S
N611 S610 1.613 . S
N611 C614 1.350 . S
N612 S610 1.610 . S
N612 C613 1.351 . S
C613 C607 1.428 1_565 S
C613 N612 1.351 . S
C613 C614 1.434 . S
C614 C605 1.429 1_556 S
C614 N611 1.350 . S
C614 C613 1.434 . S
C615 C616 1.369 . S
C615 C617 1.419 . S
C615 H619 0.930 . S
C616 C615 1.369 . S
C616 C625 1.429 . S
C617 C615 1.419 . S
C617 C618 1.363 . S
C617 H620 0.929 . S
C618 C617 1.363 . S
C618 C624 1.428 . S
H619 C615 0.930 . S
H620 C617 0.929 . S
S621 N622 1.613 . S
S621 N623 1.610 . S
N622 S621 1.613 . S
N622 C625 1.350 . S
N623 S621 1.610 . S
N623 C624 1.351 . S
C624 C618 1.428 . S
C624 N623 1.351 . S
C624 C625 1.434 . S
C625 C616 1.429 . S
C625 N622 1.350 . S
C625 C624 1.434 . S
C626 C627 1.369 1_455 S
C626 C628 1.419 . S
C626 H630 0.930 . S
C627 C626 1.369 1_655 S
C627 C636 1.429 1_556 S
C628 C626 1.419 . S
C628 C629 1.363 1_556 S
C628 H631 0.929 . S
C629 C628 1.363 1_554 S
C629 C635 1.428 1_455 S
H630 C626 0.930 . S
H631 C628 0.929 . S
S632 N633 1.613 . S
S632 N634 1.610 . S
N633 S632 1.613 . S
N633 C636 1.350 . S
N634 S632 1.610 . S
N634 C635 1.351 . S
C635 C629 1.428 1_655 S
C635 N634 1.351 . S
C635 C636 1.434 . S
C636 C627 1.429 1_554 S
C636 N633 1.350 . S
C636 C635 1.434 . S
C637 C638 1.369 1_545 S
C637 C639 1.419 . S
C637 H641 0.930 . S
C638 C637 1.369 1_565 S
C638 C647 1.429 . S
C639 C637 1.419 . S
C639 C640 1.363 . S
C639 H642 0.929 . S
C640 C639 1.363 . S
C640 C646 1.428 1_545 S
H641 C637 0.930 . S
H642 C639 0.929 . S
S643 N644 1.613 . S
S643 N645 1.610 . S
N644 S643 1.613 . S
N644 C647 1.350 . S
N645 S643 1.610 . S
N645 C646 1.351 . S
C646 C640 1.428 1_565 S
C646 N645 1.351 . S
C646 C647 1.434 . S
C647 C638 1.429 . S
C647 N644 1.350 . S
C647 C646 1.434 . S
C253 C97 1.104 1_545 S
C255 C14 1.154 . S
C264 C118 1.111 . S
C266 C35 1.152 1_455 S
C275 C56 1.152 1_545 S
C277 C13 1.111 1_655 S
C286 C77 1.160 . S
C288 C34 1.117 1_565 S
C297 C98 1.158 1_655 S
C299 C55 1.109 . S
C308 C76 1.114 1_455 S
C310 C119 1.159 1_565 S
C319 C181 1.119 1_655 S
C321 C140 1.159 . S
C330 C161 1.161 1_455 S
C332 C202 1.115 1_565 S
C341 C223 1.103 . S
C343 C182 1.151 1_545 S
C352 C203 1.149 . S
C354 C244 1.105 1_455 S
C363 C224 1.150 1_655 S
C365 C139 1.104 1_545 S
C374 C160 1.102 . S
C376 C245 1.151 1_565 S
C385 C101 1.212 . S
C387 C16 1.317 . S
C396 C37 1.317 . S
C398 C122 1.211 . S
C407 C58 1.315 . S
C409 C17 1.209 . S
C418 C79 1.311 . S
C420 C38 1.200 . S
C429 C59 1.212 . S
C431 C100 1.317 . S
C440 C80 1.212 . S
C442 C121 1.316 . S
C451 C185 1.211 . S
C453 C142 1.315 . S
C462 C163 1.316 . S
C464 C206 1.201 . S
C473 C184 1.312 . S
C475 C227 1.197 . S
C484 C248 1.205 . S
C486 C205 1.317 . S
C495 C226 1.311 . S
C497 C143 1.202 . S
C506 C164 1.196 . S
C508 C247 1.312 . S
C517 C225 1.353 . S
C519 C15 1.352 . S
C528 C36 1.337 . S
C530 C246 1.339 . S
C539 C57 1.340 . S
C541 C141 1.341 . S
C550 C78 1.352 . S
C552 C162 1.351 . S
C561 C99 1.338 . S
C563 C183 1.339 . S
C572 C204 1.354 . S
C574 C120 1.352 . S
C583 C207 1.641 . S
C585 C18 1.640 . S
C594 C228 1.639 . S
C596 C39 1.638 . S
C605 C60 1.634 . S
C607 C249 1.635 . S
C616 C81 1.638 . S
C618 C144 1.638 . S
C627 C165 1.639 . S
C629 C102 1.639 . S
C638 C186 1.634 . S
C640 C123 1.635 . S
