# Generated by pormake.
# Topology eta-c, (3)-cn, num edge types: 1
# Building blocks:
#     Node 0, Type 0, BuildingBlock: WUSLED_clean_sbu_0, # of connection points: 3
#     Node 1, Type 0, BuildingBlock: WUSLED_clean_sbu_0, # of connection points: 3
#     Node 2, Type 0, BuildingBlock: WUSLED_clean_sbu_0, # of connection points: 3
#     Node 3, Type 0, BuildingBlock: WUSLED_clean_sbu_0, # of connection points: 3
#     Node 4, Type 0, BuildingBlock: WUSLED_clean_sbu_0, # of connection points: 3
#     Node 5, Type 0, BuildingBlock: WUSLED_clean_sbu_0, # of connection points: 3
#     Edge 6, Type (0, 0), BuildingBlock: EZIPEK_clean_linker_0, # of connection points: 2
#     Edge 7, Type (0, 0), BuildingBlock: EZIPEK_clean_linker_0, # of connection points: 2
#     Edge 8, Type (0, 0), BuildingBlock: EZIPEK_clean_linker_0, # of connection points: 2
#     Edge 9, Type (0, 0), BuildingBlock: EZIPEK_clean_linker_0, # of connection points: 2
#     Edge 10, Type (0, 0), BuildingBlock: EZIPEK_clean_linker_0, # of connection points: 2
#     Edge 11, Type (0, 0), BuildingBlock: EZIPEK_clean_linker_0, # of connection points: 2
#     Edge 12, Type (0, 0), BuildingBlock: EZIPEK_clean_linker_0, # of connection points: 2
#     Edge 13, Type (0, 0), BuildingBlock: EZIPEK_clean_linker_0, # of connection points: 2
#     Edge 14, Type (0, 0), BuildingBlock: EZIPEK_clean_linker_0, # of connection points: 2
# Relax obj value: 0.000
# Max RMSD: 0.004
# Mean RMSD: 0.003
data_MOF--net-eta-c--node1-WUSLED_clean_sbu_0--edge1-EZIPEK_clean_linker_0
_symmetry_space_group_name_H-M    P1
_symmetry_Int_Tables_number       1
_symmetry_cell_setting            triclinic
loop_
_symmetry_equiv_pos_as_xyz
'x, y, z'
_cell_length_a     54.297329
_cell_length_b     55.036523
_cell_length_c     22.526156
_cell_angle_alpha  90.886337
_cell_angle_beta   89.403503
_cell_angle_gamma 119.22566
loop_
_atom_site_label
_atom_site_type_symbol
_atom_site_fract_x
_atom_site_fract_y
_atom_site_fract_z
_atom_type_partial_charge
C0 C 0.41089 0.81214 0.20022 0.0
C1 C 0.40838 0.78563 0.19258 0.0
C2 C 0.37925 0.76942 0.28152 0.0
C3 C 0.39282 0.76449 0.23314 0.0
C4 C 0.38166 0.79586 0.28906 0.0
C5 C 0.39742 0.81708 0.24872 0.0
U6 U 0.44021 0.83593 0.04461 0.0
O7 O 0.44271 0.87034 0.99112 0.0
O8 O 0.48139 0.86946 1.01456 0.0
C9 C 0.47045 0.8836 0.99024 0.0
C10 C 0.42704 0.83458 0.15755 0.0
C11 C 0.48448 0.91381 1.00381 0.0
C12 C 0.51045 0.95352 0.07034 0.0
C13 C 0.49596 0.92464 0.06004 0.0
C14 C 0.50163 0.96108 0.96894 0.0
C15 C 0.51355 0.97196 1.02469 0.0
C16 C 0.48726 0.93228 0.95861 0.0
C17 C 0.42235 0.7767 0.92762 0.0
C18 C 0.44716 0.7742 0.839 0.0
C19 C 0.3977 0.7407 0.85253 0.0
C20 C 0.39766 0.75355 0.90656 0.0
C21 C 0.42251 0.75076 0.81859 0.0
C22 C 0.44711 0.78711 0.89313 0.0
C23 C 0.42188 0.78824 0.98709 0.0
O24 O 0.45098 0.83662 0.13872 0.0
O25 O 0.41215 0.83704 0.11479 0.0
O26 O 0.40714 0.80129 0.99248 0.0
O27 O 0.44578 0.80045 1.01658 0.0
H28 H 0.4184 0.78127 0.15521 0.0
H29 H 0.39113 0.74419 0.22657 0.0
H30 H 0.37131 0.80001 0.32609 0.0
H31 H 0.39901 0.83735 0.25523 0.0
H32 H 0.5195 0.96152 0.11367 0.0
H33 H 0.49404 0.91082 0.09567 0.0
H34 H 0.50377 0.97494 0.9332 0.0
H35 H 0.47859 0.9244 0.91495 0.0
H36 H 0.46649 0.78227 0.81331 0.0
H37 H 0.37847 0.72272 0.83746 0.0
H38 H 0.37837 0.74515 0.93245 0.0
H39 H 0.46645 0.80493 0.90833 0.0
C40 C 0.62437 0.39395 0.53112 0.0
C41 C 0.64736 0.38886 0.53051 0.0
C42 C 0.62886 0.36008 0.61836 0.0
C43 C 0.64964 0.37212 0.57403 0.0
C44 C 0.60587 0.36509 0.61865 0.0
C45 C 0.60368 0.38192 0.57543 0.0
U46 U 0.63825 0.42684 0.37658 0.0
O47 O 0.60971 0.43317 0.31812 0.0
O48 O 0.64828 0.46926 0.35121 0.0
C49 C 0.62452 0.46047 0.32206 0.0
C50 C 0.62154 0.41175 0.48639 0.0
C51 C 0.60851 0.47527 0.3352 0.0
C52 C 0.57136 0.47957 0.38787 0.0
C53 C 0.58665 0.46543 0.37757 0.0
C54 C 0.59981 0.51371 0.31433 0.0
C55 C 0.57781 0.50377 0.35617 0.0
C56 C 0.615 0.49955 0.30391 0.0
C57 C 0.68234 0.40962 0.26461 0.0
C58 C 0.69021 0.42292 0.16071 0.0
C59 C 0.71326 0.39913 0.20354 0.0
C60 C 0.70046 0.39831 0.25824 0.0
C61 C 0.70818 0.41136 0.15435 0.0
C62 C 0.67734 0.42205 0.21556 0.0
C63 C 0.6687 0.40775 0.32256 0.0
O64 O 0.64475 0.4347 0.47272 0.0
O65 O 0.60607 0.39868 0.43986 0.0
O66 O 0.64096 0.3945 0.3228 0.0
O67 O 0.67967 0.43056 0.35536 0.0
H68 H 0.66351 0.39784 0.49654 0.0
H69 H 0.66752 0.36846 0.57307 0.0
H70 H 0.58963 0.35597 0.65241 0.0
H71 H 0.58579 0.38556 0.57661 0.0
H72 H 0.5545 0.47165 0.42046 0.0
H73 H 0.58134 0.44679 0.40239 0.0
H74 H 0.60512 0.53236 0.28955 0.0
H75 H 0.63178 0.5075 0.2711 0.0
H76 H 0.6861 0.43248 0.12319 0.0
H77 H 0.72712 0.39023 0.19952 0.0
H78 H 0.70466 0.38877 0.29563 0.0
H79 H 0.66345 0.43093 0.21967 0.0
C80 C 0.265 0.66567 0.54718 0.0
C81 C 0.29356 0.68165 0.56185 0.0
C82 C 0.30643 0.69218 0.45655 0.0
C83 C 0.31382 0.69538 0.51759 0.0
C84 C 0.2771 0.67836 0.44404 0.0
C85 C 0.25686 0.66475 0.48827 0.0
U86 U 0.24474 0.63628 0.7033 0.0
O87 O 0.2113 0.63357 0.76396 0.0
O88 O 0.2112 0.5955 0.73319 0.0
C89 C 0.19763 0.6062 0.76257 0.0
C90 C 0.24349 0.65015 0.59271 0.0
C91 C 0.16674 0.59266 0.7533 0.0
C92 C 0.12476 0.5662 0.69257 0.0
C93 C 0.15425 0.58042 0.69856 0.0
C94 C 0.11991 0.57682 0.79534 0.0
C95 C 0.10737 0.56414 0.74109 0.0
C96 C 0.14931 0.59091 0.80136 0.0
C97 C 0.30646 0.65051 0.80887 0.0
C98 C 0.30177 0.6355 0.91136 0.0
C99 C 0.34791 0.65852 0.86466 0.0
C100 C 0.33571 0.66094 0.8123 0.0
C101 C 0.33105 0.64566 0.91447 0.0
C102 C 0.28952 0.63786 0.85878 0.0
C103 C 0.29428 0.65274 0.75246 0.0
O104 O 0.24145 0.62626 0.60774 0.0
O105 O 0.24276 0.66485 0.63858 0.0
O106 O 0.28132 0.66763 0.75373 0.0
O107 O 0.28075 0.6296 0.72124 0.0
H108 H 0.30019 0.68375 0.60773 0.0
H109 H 0.33499 0.70895 0.53284 0.0
H110 H 0.26914 0.67823 0.40029 0.0
H111 H 0.23472 0.65361 0.47635 0.0
H112 H 0.11548 0.55653 0.65037 0.0
H113 H 0.16723 0.5815 0.66076 0.0
H114 H 0.10689 0.57545 0.83328 0.0
H115 H 0.15845 0.60013 0.84398 0.0
H116 H 0.28844 0.62549 0.94938 0.0
H117 H 0.37049 0.66644 0.86624 0.0
H118 H 0.34913 0.67079 0.77425 0.0
H119 H 0.2669 0.62967 0.85688 0.0
C120 C 0.62395 0.24833 0.88858 0.0
C121 C 0.64973 0.27288 0.87953 0.0
C122 C 0.62848 0.28678 0.80174 0.0
C123 C 0.652 0.29188 0.83618 0.0
C124 C 0.60268 0.26249 0.81148 0.0
C125 C 0.60047 0.24342 0.8544 0.0
U126 U 0.63972 0.22757 0.03967 0.0
O127 O 0.61183 0.194 0.09981 0.0
O128 O 0.64925 0.19413 0.06177 0.0
C129 C 0.62605 0.18045 0.09325 0.0
C130 C 0.62111 0.22734 0.93233 0.0
C131 C 0.60929 0.15021 0.08081 0.0
C132 C 0.57057 0.11033 0.03142 0.0
C133 C 0.58643 0.1392 0.04115 0.0
C134 C 0.60039 0.10318 0.10016 0.0
C135 C 0.57742 0.09213 0.06098 0.0
C136 C 0.61616 0.13197 0.11 0.0
C137 C 0.68788 0.28736 0.14761 0.0
C138 C 0.6993 0.28211 0.24916 0.0
C139 C 0.72183 0.32769 0.20412 0.0
C140 C 0.70675 0.31604 0.15181 0.0
C141 C 0.71827 0.31085 0.25314 0.0
C142 C 0.68419 0.27041 0.1966 0.0
C143 C 0.67242 0.27589 0.09166 0.0
O144 O 0.64394 0.22553 0.9428 0.0
O145 O 0.60673 0.2259 0.9807 0.0
O146 O 0.64473 0.26294 0.09528 0.0
O147 O 0.68203 0.26308 0.05658 0.0
H148 H 0.66813 0.27726 0.90557 0.0
H149 H 0.67208 0.31051 0.82934 0.0
H150 H 0.58431 0.2582 0.7854 0.0
H151 H 0.58042 0.22467 0.86065 0.0
H152 H 0.55297 0.10218 1.00089 0.0
H153 H 0.5808 0.15288 1.01797 0.0
H154 H 0.60604 0.08949 0.12325 0.0
H155 H 0.6337 0.14001 0.1407 0.0
H156 H 0.69631 0.26881 0.28658 0.0
H157 H 0.73644 0.34985 0.20631 0.0
H158 H 0.70991 0.32943 0.11445 0.0
H159 H 0.66972 0.24822 0.19413 0.0
C160 C 0.41781 0.62431 0.21046 0.0
C161 C 0.39641 0.63095 0.22371 0.0
C162 C 0.38846 0.63319 0.11818 0.0
C163 C 0.38177 0.63529 0.1778 0.0
C164 C 0.41017 0.62702 0.10515 0.0
C165 C 0.4247 0.62261 0.15092 0.0
U166 U 0.44273 0.62903 0.3717 0.0
O167 O 0.44453 0.59685 0.42574 0.0
O168 O 0.48342 0.63542 0.40524 0.0
C169 C 0.47222 0.61052 0.42873 0.0
C170 C 0.43276 0.61842 0.25759 0.0
C171 C 0.48663 0.59416 0.41559 0.0
C172 C 0.51139 0.57835 0.34806 0.0
C173 C 0.49698 0.59334 0.35854 0.0
C174 C 0.50483 0.56442 0.45107 0.0
C175 C 0.51553 0.56388 0.39436 0.0
C176 C 0.49053 0.57946 0.46156 0.0
C177 C 0.42264 0.66926 0.48798 0.0
C178 C 0.44616 0.69247 0.57995 0.0
C179 C 0.39834 0.68287 0.56154 0.0
C180 C 0.39857 0.6705 0.50693 0.0
C181 C 0.42225 0.69424 0.59811 0.0
C182 C 0.44637 0.68003 0.52526 0.0
C183 C 0.42284 0.65808 0.42797 0.0
O184 O 0.45563 0.63998 0.27846 0.0
O185 O 0.41684 0.60137 0.29928 0.0
O186 O 0.40838 0.63089 0.42124 0.0
O187 O 0.44718 0.66941 0.39975 0.0
H188 H 0.39083 0.63245 0.26941 0.0
H189 H 0.36504 0.63998 0.18868 0.0
H190 H 0.41559 0.62527 0.05945 0.0
H191 H 0.44114 0.61754 0.13981 0.0
H192 H 0.51949 0.57816 0.304 0.0
H193 H 0.49412 0.60445 0.32234 0.0
H194 H 0.50777 0.55339 0.4873 0.0
H195 H 0.48269 0.57979 0.50583 0.0
H196 H 0.46478 0.70109 0.60769 0.0
H197 H 0.37969 0.68399 0.57489 0.0
H198 H 0.38006 0.66231 0.47889 0.0
H199 H 0.46518 0.67927 0.51172 0.0
C200 C 0.8275 0.40061 0.54603 0.0
C201 C 0.80021 0.37939 0.56044 0.0
C202 C 0.78909 0.36918 0.45538 0.0
C203 C 0.78115 0.3637 0.51537 0.0
C204 C 0.81627 0.39057 0.44117 0.0
C205 C 0.8353 0.40612 0.48613 0.0
U206 U 0.84712 0.43043 0.70464 0.0
O207 O 0.88172 0.43499 0.762 0.0
O208 O 0.87981 0.47212 0.73461 0.0
C209 C 0.89439 0.46236 0.76186 0.0
C210 C 0.84824 0.41709 0.5924 0.0
C211 C 0.92523 0.47714 0.75115 0.0
C212 C 0.96777 0.48003 0.70699 0.0
C213 C 0.93827 0.46628 0.71304 0.0
C214 C 0.97151 0.51593 0.77579 0.0
C215 C 0.98461 0.50482 0.73882 0.0
C216 C 0.94211 0.50219 0.78192 0.0
C217 C 0.78638 0.41317 0.8173 0.0
C218 C 0.78883 0.4161 0.92526 0.0
C219 C 0.74709 0.4106 0.87521 0.0
C220 C 0.75935 0.41055 0.82031 0.0
C221 C 0.76165 0.41322 0.92812 0.0
C222 C 0.80116 0.41614 0.8702 0.0
C223 C 0.79806 0.41181 0.7586 0.0
O224 O 0.84844 0.4401 0.60967 0.0
O225 O 0.85041 0.40298 0.63671 0.0
O226 O 0.81198 0.39787 0.75542 0.0
O227 O 0.81008 0.43503 0.72834 0.0
H228 H 0.79372 0.37487 0.60642 0.0
H229 H 0.76029 0.34727 0.52718 0.0
H230 H 0.82278 0.39509 0.3952 0.0
H231 H 0.85622 0.42241 0.4741 0.0
H232 H 0.9775 0.47116 0.6782 0.0
H233 H 0.92571 0.44702 0.68869 0.0
H234 H 0.98412 0.53501 0.80069 0.0
H235 H 0.93253 0.51093 0.81155 0.0
H236 H 0.80038 0.41818 0.96565 0.0
H237 H 0.72614 0.4084 0.87651 0.0
H238 H 0.74758 0.40819 0.78006 0.0
H239 H 0.82205 0.41823 0.86894 0.0
C240 C 0.55723 1.01831 1.00908 0.0
C241 C 0.52991 1.00277 0.03454 0.0
C242 C 0.53444 0.04561 0.08041 0.0
C243 C 0.5607 0.06138 0.05093 0.0
N244 N 0.59519 0.06355 0.97991 0.0
N245 N 0.49056 1.00187 0.08695 0.0
C246 C 0.57155 0.04793 1.01315 0.0
C247 C 0.51797 1.0165 0.06823 0.0
N248 N 0.5699 1.00468 0.98273 0.0
N249 N 0.52562 0.05832 0.1214 0.0
H250 H 0.47792 0.98055 0.0792 0.0
H251 H 0.4796 1.01117 0.10596 0.0
H252 H 0.53687 0.07962 0.13084 0.0
H253 H 0.50835 0.04751 0.14934 0.0
H254 H 0.59091 1.01458 0.9691 0.0
H255 H 0.56014 0.98304 0.97897 0.0
H256 H 0.60241 0.05523 0.94663 0.0
H257 H 0.60638 0.08525 0.9821 0.0
C258 C 0.51871 0.52264 0.35268 0.0
C259 C 0.53151 0.54849 0.38399 0.0
C260 C 0.57338 0.54348 0.40215 0.0
C261 C 0.56157 0.51887 0.36663 0.0
N262 N 0.52493 0.48703 0.30072 0.0
N263 N 0.57267 0.58585 0.43048 0.0
C264 C 0.53474 0.509 0.33983 0.0
C265 C 0.55932 0.55955 0.40658 0.0
N266 N 0.49092 0.51068 0.33696 0.0
N267 N 0.59769 0.5511 0.43295 0.0
H268 H 0.56312 0.59828 0.43439 0.0
H269 H 0.59395 0.5963 0.44183 0.0
H270 H 0.60871 0.54001 0.43036 0.0
H271 H 0.60571 0.567 0.46476 0.0
H272 H 0.47947 0.4905 0.31996 0.0
H273 H 0.47855 0.52008 0.34533 0.0
H274 H 0.50711 0.48081 0.27454 0.0
H275 H 0.53585 0.47626 0.2909 0.0
C276 C 0.06095 0.52168 0.76411 0.0
C277 C 0.07594 0.54796 0.73622 0.0
C278 C 1.03107 0.54352 0.70171 0.0
C279 C 1.01608 0.51888 0.73534 0.0
N280 N 1.01652 0.48616 0.80472 0.0
N281 N 0.07547 0.58561 0.68389 0.0
C282 C 1.03096 0.50833 0.76803 0.0
C283 C 0.06105 0.5593 0.70615 0.0
N284 N 0.07538 0.50916 0.78559 0.0
N285 N 1.01663 0.5515 0.66459 0.0
H286 H 0.09739 0.5977 0.68586 0.0
H287 H 0.06567 0.59631 0.66747 0.0
H288 H 0.9947 0.54052 0.66056 0.0
H289 H 1.02641 0.56754 0.63418 0.0
H290 H 0.06559 0.48876 0.80072 0.0
H291 H 0.09732 0.51827 0.78341 0.0
H292 H 1.02632 0.47955 0.83498 0.0
H293 H 0.99457 0.47559 0.80837 0.0
C294 C 0.33564 0.72441 0.30646 0.0
C295 C 0.36229 0.74667 0.32388 0.0
C296 C 0.35749 0.7234 0.41869 0.0
C297 C 0.32835 0.70573 0.40704 0.0
N298 N 0.30114 0.6766 0.32538 0.0
N299 N 0.39988 0.76641 0.39614 0.0
C300 C 0.32036 0.70227 0.34641 0.0
C301 C 0.37367 0.74588 0.37987 0.0
N302 N 0.3244 0.72466 0.25268 0.0
N303 N 0.37071 0.71568 0.45932 0.0
H304 H 0.41301 0.7825 0.36793 0.0
H305 H 0.40772 0.76816 0.43898 0.0
H306 H 0.36034 0.69609 0.47884 0.0
H307 H 0.39245 0.7264 0.46623 0.0
H308 H 0.30379 0.71016 0.24087 0.0
H309 H 0.33481 0.74051 0.22197 0.0
H310 H 0.29642 0.67222 0.28042 0.0
H311 H 0.29305 0.65906 0.35232 0.0
C312 C 0.62594 0.31491 0.64959 0.0
C313 C 0.63092 0.34208 0.6647 0.0
C314 C 0.63396 0.33301 0.77009 0.0
C315 C 0.63077 0.30652 0.75452 0.0
N316 N 0.63003 0.2748 0.6786 0.0
N317 N 0.64562 0.37919 0.73726 0.0
C318 C 0.62867 0.29824 0.69393 0.0
C319 C 0.63675 0.3518 0.72441 0.0
N320 N 0.61746 0.30455 0.59346 0.0
N321 N 0.63312 0.33979 0.82844 0.0
H322 H 0.64806 0.39357 0.7049 0.0
H323 H 0.65304 0.3882 0.77886 0.0
H324 H 0.63095 0.32659 0.86321 0.0
H325 H 0.63219 0.35748 0.84221 0.0
H326 H 0.61044 0.28383 0.58166 0.0
H327 H 0.61512 0.31602 0.5597 0.0
H328 H 0.63158 0.26926 0.63486 0.0
H329 H 0.63235 0.26224 0.70977 0.0
C330 C 0.377 0.66319 0.05278 0.0
C331 C 0.37216 0.63635 0.06886 0.0
C332 C 0.34075 0.61568 0.98323 0.0
C333 C 0.34419 0.64223 0.96923 0.0
N334 N 0.36141 0.69037 0.99619 0.0
N335 N 0.3452 0.58647 0.05704 0.0
C336 C 0.3611 0.66575 1.00574 0.0
C337 C 0.35272 0.61241 0.03634 0.0
N338 N 0.39753 0.68629 0.081 0.0
N339 N 0.32707 0.59381 0.94448 0.0
H340 H 0.35348 0.58324 0.09584 0.0
H341 H 0.32893 0.56823 0.03888 0.0
H342 H 0.31798 0.59529 0.9051 0.0
H343 H 0.32673 0.57484 0.9488 0.0
H344 H 0.4043 0.70653 0.06702 0.0
H345 H 0.4094 0.68523 0.11597 0.0
H346 H 0.37101 0.70753 1.02472 0.0
H347 H 0.34997 0.69292 0.96226 0.0
C348 C 0.74611 0.35625 0.39238 0.0
C349 C 0.76929 0.35229 0.40693 0.0
C350 C 0.75883 0.32074 0.32102 0.0
C351 C 0.73482 0.3236 0.30829 0.0
N352 N 0.70215 0.33926 0.3385 0.0
N353 N 0.79417 0.32639 0.39314 0.0
C354 C 0.7274 0.3399 0.34611 0.0
C355 C 0.77455 0.33317 0.37363 0.0
N356 N 0.74265 0.37648 0.42097 0.0
N357 N 0.76728 0.30709 0.28165 0.0
H358 H 0.80597 0.33497 0.43163 0.0
H359 H 0.79694 0.31048 0.37439 0.0
H360 H 0.7562 0.29747 0.24296 0.0
H361 H 0.7864 0.3071 0.28492 0.0
H362 H 0.72814 0.38253 0.40775 0.0
H363 H 0.75583 0.38884 0.45516 0.0
H364 H 0.69408 0.3482 0.3685 0.0
H365 H 0.68804 0.32767 0.30484 0.0
C366 C 0.4254 0.73585 0.65312 0.0
C367 C 0.42246 0.70877 0.65471 0.0
C368 C 0.42213 0.71035 0.76373 0.0
C369 C 0.42268 0.7364 0.76202 0.0
N370 N 0.42023 0.77198 0.70546 0.0
N371 N 0.4133 0.66819 0.7106 0.0
C372 C 0.42306 0.74863 0.70675 0.0
C373 C 0.41951 0.69543 0.70982 0.0
N374 N 0.43124 0.74969 0.60049 0.0
N375 N 0.42504 0.70029 0.81677 0.0
H376 H 0.41144 0.65667 0.67206 0.0
H377 H 0.40768 0.65633 0.74899 0.0
H378 H 0.42695 0.71055 0.8572 0.0
H379 H 0.42784 0.68295 0.82037 0.0
H380 H 0.43667 0.77057 0.59729 0.0
H381 H 0.43295 0.741 0.56024 0.0
H382 H 0.41718 0.78014 0.66658 0.0
H383 H 0.41859 0.78199 0.74378 0.0
C384 C 0.72586 0.38726 1.00802 0.0
C385 C 0.7482 0.41273 0.98653 0.0
C386 C 0.74567 0.43686 0.07716 0.0
C387 C 0.72176 0.41196 0.09611 0.0
N388 N 0.68634 0.36444 0.07607 0.0
N389 N 0.77661 0.46262 0.99576 0.0
C390 C 0.71108 0.3874 0.06052 0.0
C391 C 0.75738 0.43779 1.01982 0.0
N392 N 0.71936 0.36281 0.97922 0.0
N393 N 0.75771 0.4594 0.11473 0.0
H394 H 0.78574 0.46416 0.95404 0.0
H395 H 0.78183 0.48188 1.01487 0.0
H396 H 0.74957 0.45962 0.15677 0.0
H397 H 0.77699 0.47705 0.10633 0.0
H398 H 0.70543 0.34328 0.99604 0.0
H399 H 0.7297 0.36187 0.94068 0.0
H400 H 0.6758 0.34692 0.04882 0.0
H401 H 0.67507 0.36368 0.11443 0.0
loop_
_geom_bond_atom_site_label_1
_geom_bond_atom_site_label_2
_geom_bond_distance
_geom_bond_site_symmetry_2
_ccdc_geom_bond_type
C0 C1 1.264 . S
C0 C5 1.479 . S
C0 C10 1.465 . S
C1 C0 1.264 . S
C1 C3 1.339 . S
C1 H28 0.931 . S
C2 C3 1.395 . S
C2 C4 1.320 . S
C3 C1 1.339 . S
C3 C2 1.395 . S
C3 H29 0.929 . S
C4 C2 1.320 . S
C4 C5 1.405 . S
C4 H30 0.930 . S
C5 C0 1.479 . S
C5 C4 1.405 . S
C5 H31 0.931 . S
U6 O7 2.454 . S
U6 O8 2.458 1_554 S
U6 C9 2.984 . S
U6 C10 2.847 . S
U6 C23 2.882 1_554 S
U6 O24 2.441 . S
U6 O25 2.420 . S
U6 O26 2.455 1_554 S
U6 O27 2.449 1_554 S
O7 U6 2.454 . S
O7 C9 1.353 . S
O8 U6 2.458 1_556 S
O8 C9 1.286 1_556 S
C9 U6 2.984 . S
C9 O7 1.353 . S
C9 O8 1.286 1_554 S
C9 C11 1.363 . S
C10 C0 1.465 . S
C10 U6 2.847 . S
C10 O24 1.249 . S
C10 O25 1.202 . S
C11 C9 1.363 . S
C11 C13 1.408 . S
C11 C16 1.342 1_554 S
C12 C13 1.310 . S
C12 C15 1.461 . S
C12 H32 0.932 . S
C13 C11 1.408 . S
C13 C12 1.310 . S
C13 H33 0.930 . S
C14 C15 1.474 1_556 S
C14 C16 1.285 . S
C14 H34 0.929 . S
C15 C12 1.461 . S
C15 C14 1.474 1_554 S
C16 C11 1.342 1_556 S
C16 C14 1.285 . S
C16 H35 0.930 . S
C17 C20 1.424 . S
C17 C22 1.245 . S
C17 C23 1.428 . S
C18 C21 1.260 . S
C18 C22 1.477 . S
C18 H36 0.932 . S
C19 C20 1.384 . S
C19 C21 1.479 . S
C19 H37 0.929 . S
C20 C17 1.424 . S
C20 C19 1.384 . S
C20 H38 0.928 . S
C21 C18 1.260 . S
C21 C19 1.479 . S
C22 C17 1.245 . S
C22 C18 1.477 . S
C22 H39 0.932 . S
C23 U6 2.882 1_556 S
C23 C17 1.428 . S
C23 O26 1.301 . S
C23 O27 1.282 . S
O24 U6 2.441 . S
O24 C10 1.249 . S
O25 U6 2.420 . S
O25 C10 1.202 . S
O26 U6 2.455 1_556 S
O26 C23 1.301 . S
O27 U6 2.449 1_556 S
O27 C23 1.282 . S
H28 C1 0.931 . S
H29 C3 0.929 . S
H30 C4 0.930 . S
H31 C5 0.931 . S
H32 C12 0.932 . S
H33 C13 0.930 . S
H34 C14 0.929 . S
H35 C16 0.930 . S
H36 C18 0.932 . S
H37 C19 0.929 . S
H38 C20 0.928 . S
H39 C22 0.932 . S
C40 C41 1.264 . S
C40 C45 1.479 . S
C40 C50 1.465 . S
C41 C40 1.264 . S
C41 C43 1.339 . S
C41 H68 0.931 . S
C42 C43 1.395 . S
C42 C44 1.320 . S
C43 C41 1.339 . S
C43 C42 1.395 . S
C43 H69 0.929 . S
C44 C42 1.320 . S
C44 C45 1.405 . S
C44 H70 0.930 . S
C45 C40 1.479 . S
C45 C44 1.405 . S
C45 H71 0.931 . S
U46 O47 2.454 . S
U46 O48 2.458 . S
U46 C49 2.984 . S
U46 C50 2.847 . S
U46 C63 2.882 . S
U46 O64 2.441 . S
U46 O65 2.420 . S
U46 O66 2.455 . S
U46 O67 2.449 . S
O47 U46 2.454 . S
O47 C49 1.353 . S
O48 U46 2.458 . S
O48 C49 1.286 . S
C49 U46 2.984 . S
C49 O47 1.353 . S
C49 O48 1.286 . S
C49 C51 1.363 . S
C50 C40 1.465 . S
C50 U46 2.847 . S
C50 O64 1.249 . S
C50 O65 1.202 . S
C51 C49 1.363 . S
C51 C53 1.408 . S
C51 C56 1.342 . S
C52 C53 1.310 . S
C52 C55 1.461 . S
C52 H72 0.932 . S
C53 C51 1.408 . S
C53 C52 1.310 . S
C53 H73 0.930 . S
C54 C55 1.474 . S
C54 C56 1.285 . S
C54 H74 0.929 . S
C55 C52 1.461 . S
C55 C54 1.474 . S
C56 C51 1.342 . S
C56 C54 1.285 . S
C56 H75 0.930 . S
C57 C60 1.424 . S
C57 C62 1.245 . S
C57 C63 1.428 . S
C58 C61 1.260 . S
C58 C62 1.477 . S
C58 H76 0.932 . S
C59 C60 1.384 . S
C59 C61 1.479 . S
C59 H77 0.929 . S
C60 C57 1.424 . S
C60 C59 1.384 . S
C60 H78 0.928 . S
C61 C58 1.260 . S
C61 C59 1.479 . S
C62 C57 1.245 . S
C62 C58 1.477 . S
C62 H79 0.932 . S
C63 U46 2.882 . S
C63 C57 1.428 . S
C63 O66 1.301 . S
C63 O67 1.282 . S
O64 U46 2.441 . S
O64 C50 1.249 . S
O65 U46 2.420 . S
O65 C50 1.202 . S
O66 U46 2.455 . S
O66 C63 1.301 . S
O67 U46 2.449 . S
O67 C63 1.282 . S
H68 C41 0.931 . S
H69 C43 0.929 . S
H70 C44 0.930 . S
H71 C45 0.931 . S
H72 C52 0.932 . S
H73 C53 0.930 . S
H74 C54 0.929 . S
H75 C56 0.930 . S
H76 C58 0.932 . S
H77 C59 0.929 . S
H78 C60 0.928 . S
H79 C62 0.932 . S
C80 C81 1.264 . S
C80 C85 1.479 . S
C80 C90 1.465 . S
C81 C80 1.264 . S
C81 C83 1.339 . S
C81 H108 0.931 . S
C82 C83 1.395 . S
C82 C84 1.320 . S
C83 C81 1.339 . S
C83 C82 1.395 . S
C83 H109 0.929 . S
C84 C82 1.320 . S
C84 C85 1.405 . S
C84 H110 0.930 . S
C85 C80 1.479 . S
C85 C84 1.405 . S
C85 H111 0.931 . S
U86 O87 2.454 . S
U86 O88 2.458 . S
U86 C89 2.984 . S
U86 C90 2.847 . S
U86 C103 2.882 . S
U86 O104 2.441 . S
U86 O105 2.420 . S
U86 O106 2.455 . S
U86 O107 2.449 . S
O87 U86 2.454 . S
O87 C89 1.353 . S
O88 U86 2.458 . S
O88 C89 1.286 . S
C89 U86 2.984 . S
C89 O87 1.353 . S
C89 O88 1.286 . S
C89 C91 1.363 . S
C90 C80 1.465 . S
C90 U86 2.847 . S
C90 O104 1.249 . S
C90 O105 1.202 . S
C91 C89 1.363 . S
C91 C93 1.408 . S
C91 C96 1.342 . S
C92 C93 1.310 . S
C92 C95 1.461 . S
C92 H112 0.932 . S
C93 C91 1.408 . S
C93 C92 1.310 . S
C93 H113 0.930 . S
C94 C95 1.474 . S
C94 C96 1.285 . S
C94 H114 0.929 . S
C95 C92 1.461 . S
C95 C94 1.474 . S
C96 C91 1.342 . S
C96 C94 1.285 . S
C96 H115 0.930 . S
C97 C100 1.424 . S
C97 C102 1.245 . S
C97 C103 1.428 . S
C98 C101 1.260 . S
C98 C102 1.477 . S
C98 H116 0.932 . S
C99 C100 1.384 . S
C99 C101 1.479 . S
C99 H117 0.929 . S
C100 C97 1.424 . S
C100 C99 1.384 . S
C100 H118 0.928 . S
C101 C98 1.260 . S
C101 C99 1.479 . S
C102 C97 1.245 . S
C102 C98 1.477 . S
C102 H119 0.932 . S
C103 U86 2.882 . S
C103 C97 1.428 . S
C103 O106 1.301 . S
C103 O107 1.282 . S
O104 U86 2.441 . S
O104 C90 1.249 . S
O105 U86 2.420 . S
O105 C90 1.202 . S
O106 U86 2.455 . S
O106 C103 1.301 . S
O107 U86 2.449 . S
O107 C103 1.282 . S
H108 C81 0.931 . S
H109 C83 0.929 . S
H110 C84 0.930 . S
H111 C85 0.931 . S
H112 C92 0.932 . S
H113 C93 0.930 . S
H114 C94 0.929 . S
H115 C96 0.930 . S
H116 C98 0.932 . S
H117 C99 0.929 . S
H118 C100 0.928 . S
H119 C102 0.932 . S
C120 C121 1.264 . S
C120 C125 1.479 . S
C120 C130 1.465 . S
C121 C120 1.264 . S
C121 C123 1.339 . S
C121 H148 0.931 . S
C122 C123 1.395 . S
C122 C124 1.320 . S
C123 C121 1.339 . S
C123 C122 1.395 . S
C123 H149 0.929 . S
C124 C122 1.320 . S
C124 C125 1.405 . S
C124 H150 0.930 . S
C125 C120 1.479 . S
C125 C124 1.405 . S
C125 H151 0.931 . S
U126 O127 2.454 1_554 S
U126 O128 2.458 . S
U126 C129 2.984 . S
U126 C130 2.847 1_554 S
U126 C143 2.882 . S
U126 O144 2.441 1_554 S
U126 O145 2.420 1_554 S
U126 O146 2.455 . S
U126 O147 2.449 . S
O127 U126 2.454 1_556 S
O127 C129 1.353 1_556 S
O128 U126 2.458 . S
O128 C129 1.286 . S
C129 U126 2.984 . S
C129 O127 1.353 1_554 S
C129 O128 1.286 . S
C129 C131 1.363 . S
C130 C120 1.465 . S
C130 U126 2.847 1_556 S
C130 O144 1.249 . S
C130 O145 1.202 . S
C131 C129 1.363 . S
C131 C133 1.408 1_554 S
C131 C136 1.342 . S
C132 C133 1.310 . S
C132 C135 1.461 1_556 S
C132 H152 0.932 . S
C133 C131 1.408 1_556 S
C133 C132 1.310 . S
C133 H153 0.930 . S
C134 C135 1.474 . S
C134 C136 1.285 . S
C134 H154 0.929 . S
C135 C132 1.461 1_554 S
C135 C134 1.474 . S
C136 C131 1.342 . S
C136 C134 1.285 . S
C136 H155 0.930 . S
C137 C140 1.424 . S
C137 C142 1.245 . S
C137 C143 1.428 . S
C138 C141 1.260 . S
C138 C142 1.477 . S
C138 H156 0.932 . S
C139 C140 1.384 . S
C139 C141 1.479 . S
C139 H157 0.929 . S
C140 C137 1.424 . S
C140 C139 1.384 . S
C140 H158 0.928 . S
C141 C138 1.260 . S
C141 C139 1.479 . S
C142 C137 1.245 . S
C142 C138 1.477 . S
C142 H159 0.932 . S
C143 U126 2.882 . S
C143 C137 1.428 . S
C143 O146 1.301 . S
C143 O147 1.282 . S
O144 U126 2.441 1_556 S
O144 C130 1.249 . S
O145 U126 2.420 1_556 S
O145 C130 1.202 . S
O146 U126 2.455 . S
O146 C143 1.301 . S
O147 U126 2.449 . S
O147 C143 1.282 . S
H148 C121 0.931 . S
H149 C123 0.929 . S
H150 C124 0.930 . S
H151 C125 0.931 . S
H152 C132 0.932 . S
H153 C133 0.930 . S
H154 C134 0.929 . S
H155 C136 0.930 . S
H156 C138 0.932 . S
H157 C139 0.929 . S
H158 C140 0.928 . S
H159 C142 0.932 . S
C160 C161 1.264 . S
C160 C165 1.479 . S
C160 C170 1.465 . S
C161 C160 1.264 . S
C161 C163 1.339 . S
C161 H188 0.931 . S
C162 C163 1.395 . S
C162 C164 1.320 . S
C163 C161 1.339 . S
C163 C162 1.395 . S
C163 H189 0.929 . S
C164 C162 1.320 . S
C164 C165 1.405 . S
C164 H190 0.930 . S
C165 C160 1.479 . S
C165 C164 1.405 . S
C165 H191 0.931 . S
U166 O167 2.454 . S
U166 O168 2.458 . S
U166 C169 2.984 . S
U166 C170 2.847 . S
U166 C183 2.882 . S
U166 O184 2.441 . S
U166 O185 2.420 . S
U166 O186 2.455 . S
U166 O187 2.449 . S
O167 U166 2.454 . S
O167 C169 1.353 . S
O168 U166 2.458 . S
O168 C169 1.286 . S
C169 U166 2.984 . S
C169 O167 1.353 . S
C169 O168 1.286 . S
C169 C171 1.363 . S
C170 C160 1.465 . S
C170 U166 2.847 . S
C170 O184 1.249 . S
C170 O185 1.202 . S
C171 C169 1.363 . S
C171 C173 1.408 . S
C171 C176 1.342 . S
C172 C173 1.310 . S
C172 C175 1.461 . S
C172 H192 0.932 . S
C173 C171 1.408 . S
C173 C172 1.310 . S
C173 H193 0.930 . S
C174 C175 1.474 . S
C174 C176 1.285 . S
C174 H194 0.929 . S
C175 C172 1.461 . S
C175 C174 1.474 . S
C176 C171 1.342 . S
C176 C174 1.285 . S
C176 H195 0.930 . S
C177 C180 1.424 . S
C177 C182 1.245 . S
C177 C183 1.428 . S
C178 C181 1.260 . S
C178 C182 1.477 . S
C178 H196 0.932 . S
C179 C180 1.384 . S
C179 C181 1.479 . S
C179 H197 0.929 . S
C180 C177 1.424 . S
C180 C179 1.384 . S
C180 H198 0.928 . S
C181 C178 1.260 . S
C181 C179 1.479 . S
C182 C177 1.245 . S
C182 C178 1.477 . S
C182 H199 0.932 . S
C183 U166 2.882 . S
C183 C177 1.428 . S
C183 O186 1.301 . S
C183 O187 1.282 . S
O184 U166 2.441 . S
O184 C170 1.249 . S
O185 U166 2.420 . S
O185 C170 1.202 . S
O186 U166 2.455 . S
O186 C183 1.301 . S
O187 U166 2.449 . S
O187 C183 1.282 . S
H188 C161 0.931 . S
H189 C163 0.929 . S
H190 C164 0.930 . S
H191 C165 0.931 . S
H192 C172 0.932 . S
H193 C173 0.930 . S
H194 C174 0.929 . S
H195 C176 0.930 . S
H196 C178 0.932 . S
H197 C179 0.929 . S
H198 C180 0.928 . S
H199 C182 0.932 . S
C200 C201 1.264 . S
C200 C205 1.479 . S
C200 C210 1.465 . S
C201 C200 1.264 . S
C201 C203 1.339 . S
C201 H228 0.931 . S
C202 C203 1.395 . S
C202 C204 1.320 . S
C203 C201 1.339 . S
C203 C202 1.395 . S
C203 H229 0.929 . S
C204 C202 1.320 . S
C204 C205 1.405 . S
C204 H230 0.930 . S
C205 C200 1.479 . S
C205 C204 1.405 . S
C205 H231 0.931 . S
U206 O207 2.454 . S
U206 O208 2.458 . S
U206 C209 2.984 . S
U206 C210 2.847 . S
U206 C223 2.882 . S
U206 O224 2.441 . S
U206 O225 2.420 . S
U206 O226 2.455 . S
U206 O227 2.449 . S
O207 U206 2.454 . S
O207 C209 1.353 . S
O208 U206 2.458 . S
O208 C209 1.286 . S
C209 U206 2.984 . S
C209 O207 1.353 . S
C209 O208 1.286 . S
C209 C211 1.363 . S
C210 C200 1.465 . S
C210 U206 2.847 . S
C210 O224 1.249 . S
C210 O225 1.202 . S
C211 C209 1.363 . S
C211 C213 1.408 . S
C211 C216 1.342 . S
C212 C213 1.310 . S
C212 C215 1.461 . S
C212 H232 0.932 . S
C213 C211 1.408 . S
C213 C212 1.310 . S
C213 H233 0.930 . S
C214 C215 1.474 . S
C214 C216 1.285 . S
C214 H234 0.929 . S
C215 C212 1.461 . S
C215 C214 1.474 . S
C216 C211 1.342 . S
C216 C214 1.285 . S
C216 H235 0.930 . S
C217 C220 1.424 . S
C217 C222 1.245 . S
C217 C223 1.428 . S
C218 C221 1.260 . S
C218 C222 1.477 . S
C218 H236 0.932 . S
C219 C220 1.384 . S
C219 C221 1.479 . S
C219 H237 0.929 . S
C220 C217 1.424 . S
C220 C219 1.384 . S
C220 H238 0.928 . S
C221 C218 1.260 . S
C221 C219 1.479 . S
C222 C217 1.245 . S
C222 C218 1.477 . S
C222 H239 0.932 . S
C223 U206 2.882 . S
C223 C217 1.428 . S
C223 O226 1.301 . S
C223 O227 1.282 . S
O224 U206 2.441 . S
O224 C210 1.249 . S
O225 U206 2.420 . S
O225 C210 1.202 . S
O226 U206 2.455 . S
O226 C223 1.301 . S
O227 U206 2.449 . S
O227 C223 1.282 . S
H228 C201 0.931 . S
H229 C203 0.929 . S
H230 C204 0.930 . S
H231 C205 0.931 . S
H232 C212 0.932 . S
H233 C213 0.930 . S
H234 C214 0.929 . S
H235 C216 0.930 . S
H236 C218 0.932 . S
H237 C219 0.929 . S
H238 C220 0.928 . S
H239 C222 0.932 . S
C240 C241 1.363 1_556 S
C240 C246 1.379 1_565 S
C240 N248 1.356 . S
C241 C240 1.363 1_554 S
C241 C247 1.363 . S
C242 C243 1.363 . S
C242 C247 1.379 1_545 S
C242 N249 1.356 . S
C243 C242 1.363 . S
C243 C246 1.363 1_554 S
N244 C246 1.356 . S
N244 H256 0.984 . S
N244 H257 0.985 . S
N245 C247 1.356 . S
N245 H250 0.984 . S
N245 H251 0.985 . S
C246 C240 1.379 1_545 S
C246 C243 1.363 1_556 S
C246 N244 1.356 . S
C247 C241 1.363 . S
C247 C242 1.379 1_565 S
C247 N245 1.356 . S
N248 C240 1.356 . S
N248 H254 0.984 . S
N248 H255 0.984 . S
N249 C242 1.356 . S
N249 H252 0.984 . S
N249 H253 0.985 . S
H250 N245 0.984 . S
H251 N245 0.985 . S
H252 N249 0.984 . S
H253 N249 0.985 . S
H254 N248 0.984 . S
H255 N248 0.984 . S
H256 N244 0.984 . S
H257 N244 0.985 . S
C258 C259 1.363 . S
C258 C264 1.379 . S
C258 N266 1.356 . S
C259 C258 1.363 . S
C259 C265 1.363 . S
C260 C261 1.363 . S
C260 C265 1.379 . S
C260 N267 1.356 . S
C261 C260 1.363 . S
C261 C264 1.363 . S
N262 C264 1.356 . S
N262 H274 0.984 . S
N262 H275 0.985 . S
N263 C265 1.356 . S
N263 H268 0.984 . S
N263 H269 0.985 . S
C264 C258 1.379 . S
C264 C261 1.363 . S
C264 N262 1.356 . S
C265 C259 1.363 . S
C265 C260 1.379 . S
C265 N263 1.356 . S
N266 C258 1.356 . S
N266 H272 0.984 . S
N266 H273 0.984 . S
N267 C260 1.356 . S
N267 H270 0.984 . S
N267 H271 0.985 . S
H268 N263 0.984 . S
H269 N263 0.985 . S
H270 N267 0.984 . S
H271 N267 0.985 . S
H272 N266 0.984 . S
H273 N266 0.984 . S
H274 N262 0.984 . S
H275 N262 0.985 . S
C276 C277 1.363 . S
C276 C282 1.379 1_455 S
C276 N284 1.356 . S
C277 C276 1.363 . S
C277 C283 1.363 . S
C278 C279 1.363 . S
C278 C283 1.379 1_655 S
C278 N285 1.356 . S
C279 C278 1.363 . S
C279 C282 1.363 . S
N280 C282 1.356 . S
N280 H292 0.984 . S
N280 H293 0.985 . S
N281 C283 1.356 . S
N281 H286 0.984 . S
N281 H287 0.985 . S
C282 C276 1.379 1_655 S
C282 C279 1.363 . S
C282 N280 1.356 . S
C283 C277 1.363 . S
C283 C278 1.379 1_455 S
C283 N281 1.356 . S
N284 C276 1.356 . S
N284 H290 0.984 . S
N284 H291 0.984 . S
N285 C278 1.356 . S
N285 H288 0.984 . S
N285 H289 0.985 . S
H286 N281 0.984 . S
H287 N281 0.985 . S
H288 N285 0.984 . S
H289 N285 0.985 . S
H290 N284 0.984 . S
H291 N284 0.984 . S
H292 N280 0.984 . S
H293 N280 0.985 . S
C294 C295 1.363 . S
C294 C300 1.379 . S
C294 N302 1.356 . S
C295 C294 1.363 . S
C295 C301 1.363 . S
C296 C297 1.363 . S
C296 C301 1.379 . S
C296 N303 1.356 . S
C297 C296 1.363 . S
C297 C300 1.363 . S
N298 C300 1.356 . S
N298 H310 0.984 . S
N298 H311 0.985 . S
N299 C301 1.356 . S
N299 H304 0.984 . S
N299 H305 0.985 . S
C300 C294 1.379 . S
C300 C297 1.363 . S
C300 N298 1.356 . S
C301 C295 1.363 . S
C301 C296 1.379 . S
C301 N299 1.356 . S
N302 C294 1.356 . S
N302 H308 0.984 . S
N302 H309 0.984 . S
N303 C296 1.356 . S
N303 H306 0.984 . S
N303 H307 0.985 . S
H304 N299 0.984 . S
H305 N299 0.985 . S
H306 N303 0.984 . S
H307 N303 0.985 . S
H308 N302 0.984 . S
H309 N302 0.984 . S
H310 N298 0.984 . S
H311 N298 0.985 . S
C312 C313 1.363 . S
C312 C318 1.379 . S
C312 N320 1.356 . S
C313 C312 1.363 . S
C313 C319 1.363 . S
C314 C315 1.363 . S
C314 C319 1.379 . S
C314 N321 1.356 . S
C315 C314 1.363 . S
C315 C318 1.363 . S
N316 C318 1.356 . S
N316 H328 0.984 . S
N316 H329 0.985 . S
N317 C319 1.356 . S
N317 H322 0.984 . S
N317 H323 0.985 . S
C318 C312 1.379 . S
C318 C315 1.363 . S
C318 N316 1.356 . S
C319 C313 1.363 . S
C319 C314 1.379 . S
C319 N317 1.356 . S
N320 C312 1.356 . S
N320 H326 0.984 . S
N320 H327 0.984 . S
N321 C314 1.356 . S
N321 H324 0.984 . S
N321 H325 0.985 . S
H322 N317 0.984 . S
H323 N317 0.985 . S
H324 N321 0.984 . S
H325 N321 0.985 . S
H326 N320 0.984 . S
H327 N320 0.984 . S
H328 N316 0.984 . S
H329 N316 0.985 . S
C330 C331 1.363 . S
C330 C336 1.379 . S
C330 N338 1.356 . S
C331 C330 1.363 . S
C331 C337 1.363 . S
C332 C333 1.363 . S
C332 C337 1.379 1_556 S
C332 N339 1.356 . S
C333 C332 1.363 . S
C333 C336 1.363 1_556 S
N334 C336 1.356 1_556 S
N334 H346 0.984 1_556 S
N334 H347 0.985 . S
N335 C337 1.356 . S
N335 H340 0.984 . S
N335 H341 0.985 . S
C336 C330 1.379 . S
C336 C333 1.363 1_554 S
C336 N334 1.356 1_554 S
C337 C331 1.363 . S
C337 C332 1.379 1_554 S
C337 N335 1.356 . S
N338 C330 1.356 . S
N338 H344 0.984 . S
N338 H345 0.984 . S
N339 C332 1.356 . S
N339 H342 0.984 . S
N339 H343 0.985 . S
H340 N335 0.984 . S
H341 N335 0.985 . S
H342 N339 0.984 . S
H343 N339 0.985 . S
H344 N338 0.984 . S
H345 N338 0.984 . S
H346 N334 0.984 1_554 S
H347 N334 0.985 . S
C348 C349 1.363 . S
C348 C354 1.379 . S
C348 N356 1.356 . S
C349 C348 1.363 . S
C349 C355 1.363 . S
C350 C351 1.363 . S
C350 C355 1.379 . S
C350 N357 1.356 . S
C351 C350 1.363 . S
C351 C354 1.363 . S
N352 C354 1.356 . S
N352 H364 0.984 . S
N352 H365 0.985 . S
N353 C355 1.356 . S
N353 H358 0.984 . S
N353 H359 0.985 . S
C354 C348 1.379 . S
C354 C351 1.363 . S
C354 N352 1.356 . S
C355 C349 1.363 . S
C355 C350 1.379 . S
C355 N353 1.356 . S
N356 C348 1.356 . S
N356 H362 0.984 . S
N356 H363 0.984 . S
N357 C350 1.356 . S
N357 H360 0.984 . S
N357 H361 0.985 . S
H358 N353 0.984 . S
H359 N353 0.985 . S
H360 N357 0.984 . S
H361 N357 0.985 . S
H362 N356 0.984 . S
H363 N356 0.984 . S
H364 N352 0.984 . S
H365 N352 0.985 . S
C366 C367 1.363 . S
C366 C372 1.379 . S
C366 N374 1.356 . S
C367 C366 1.363 . S
C367 C373 1.363 . S
C368 C369 1.363 . S
C368 C373 1.379 . S
C368 N375 1.356 . S
C369 C368 1.363 . S
C369 C372 1.363 . S
N370 C372 1.356 . S
N370 H382 0.984 . S
N370 H383 0.985 . S
N371 C373 1.356 . S
N371 H376 0.984 . S
N371 H377 0.985 . S
C372 C366 1.379 . S
C372 C369 1.363 . S
C372 N370 1.356 . S
C373 C367 1.363 . S
C373 C368 1.379 . S
C373 N371 1.356 . S
N374 C366 1.356 . S
N374 H380 0.984 . S
N374 H381 0.984 . S
N375 C368 1.356 . S
N375 H378 0.984 . S
N375 H379 0.985 . S
H376 N371 0.984 . S
H377 N371 0.985 . S
H378 N375 0.984 . S
H379 N375 0.985 . S
H380 N374 0.984 . S
H381 N374 0.984 . S
H382 N370 0.984 . S
H383 N370 0.985 . S
C384 C385 1.363 . S
C384 C390 1.379 1_556 S
C384 N392 1.356 . S
C385 C384 1.363 . S
C385 C391 1.363 1_556 S
C386 C387 1.363 . S
C386 C391 1.379 . S
C386 N393 1.356 . S
C387 C386 1.363 . S
C387 C390 1.363 . S
N388 C390 1.356 . S
N388 H400 0.984 . S
N388 H401 0.985 . S
N389 C391 1.356 1_556 S
N389 H394 0.984 . S
N389 H395 0.985 1_556 S
C390 C384 1.379 1_554 S
C390 C387 1.363 . S
C390 N388 1.356 . S
C391 C385 1.363 1_554 S
C391 C386 1.379 . S
C391 N389 1.356 1_554 S
N392 C384 1.356 . S
N392 H398 0.984 . S
N392 H399 0.984 . S
N393 C386 1.356 . S
N393 H396 0.984 . S
N393 H397 0.985 . S
H394 N389 0.984 . S
H395 N389 0.985 1_554 S
H396 N393 0.984 . S
H397 N393 0.985 . S
H398 N392 0.984 . S
H399 N392 0.984 . S
H400 N388 0.984 . S
H401 N388 0.985 . S
C241 C15 1.500 . S
C243 C135 1.500 . S
C259 C175 1.500 . S
C261 C55 1.500 . S
C277 C95 1.506 . S
C279 C215 1.506 . S
C295 C2 1.487 . S
C297 C82 1.492 . S
C313 C42 1.486 . S
C315 C122 1.488 . S
C331 C162 1.489 . S
C333 C101 1.494 . S
C349 C202 1.495 . S
C351 C141 1.493 . S
C367 C181 1.487 . S
C369 C21 1.490 . S
C385 C221 1.497 . S
C387 C61 1.489 . S
