# Generated by pormake.
# Topology ukf, (4)-cn, num edge types: 1
# Building blocks:
#     Node 0, Type 0, BuildingBlock: QUQFOY_clean_sbu_1, # of connection points: 4
#     Node 1, Type 0, BuildingBlock: QUQFOY_clean_sbu_1, # of connection points: 4
#     Node 2, Type 0, BuildingBlock: QUQFOY_clean_sbu_1, # of connection points: 4
#     Node 3, Type 0, BuildingBlock: QUQFOY_clean_sbu_1, # of connection points: 4
#     Node 4, Type 0, BuildingBlock: QUQFOY_clean_sbu_1, # of connection points: 4
#     Node 5, Type 0, BuildingBlock: QUQFOY_clean_sbu_1, # of connection points: 4
#     Node 6, Type 0, BuildingBlock: QUQFOY_clean_sbu_1, # of connection points: 4
#     Node 7, Type 0, BuildingBlock: QUQFOY_clean_sbu_1, # of connection points: 4
#     Node 8, Type 0, BuildingBlock: QUQFOY_clean_sbu_1, # of connection points: 4
#     Node 9, Type 0, BuildingBlock: QUQFOY_clean_sbu_1, # of connection points: 4
#     Node 10, Type 0, BuildingBlock: QUQFOY_clean_sbu_1, # of connection points: 4
#     Node 11, Type 0, BuildingBlock: QUQFOY_clean_sbu_1, # of connection points: 4
#     Edge 12, Type (0, 0), BuildingBlock: AJUNOK_clean_linker_0, # of connection points: 2
#     Edge 13, Type (0, 0), BuildingBlock: AJUNOK_clean_linker_0, # of connection points: 2
#     Edge 14, Type (0, 0), BuildingBlock: AJUNOK_clean_linker_0, # of connection points: 2
#     Edge 15, Type (0, 0), BuildingBlock: AJUNOK_clean_linker_0, # of connection points: 2
#     Edge 16, Type (0, 0), BuildingBlock: AJUNOK_clean_linker_0, # of connection points: 2
#     Edge 17, Type (0, 0), BuildingBlock: AJUNOK_clean_linker_0, # of connection points: 2
#     Edge 18, Type (0, 0), BuildingBlock: AJUNOK_clean_linker_0, # of connection points: 2
#     Edge 19, Type (0, 0), BuildingBlock: AJUNOK_clean_linker_0, # of connection points: 2
#     Edge 20, Type (0, 0), BuildingBlock: AJUNOK_clean_linker_0, # of connection points: 2
#     Edge 21, Type (0, 0), BuildingBlock: AJUNOK_clean_linker_0, # of connection points: 2
#     Edge 22, Type (0, 0), BuildingBlock: AJUNOK_clean_linker_0, # of connection points: 2
#     Edge 23, Type (0, 0), BuildingBlock: AJUNOK_clean_linker_0, # of connection points: 2
#     Edge 24, Type (0, 0), BuildingBlock: AJUNOK_clean_linker_0, # of connection points: 2
#     Edge 25, Type (0, 0), BuildingBlock: AJUNOK_clean_linker_0, # of connection points: 2
#     Edge 26, Type (0, 0), BuildingBlock: AJUNOK_clean_linker_0, # of connection points: 2
#     Edge 27, Type (0, 0), BuildingBlock: AJUNOK_clean_linker_0, # of connection points: 2
#     Edge 28, Type (0, 0), BuildingBlock: AJUNOK_clean_linker_0, # of connection points: 2
#     Edge 29, Type (0, 0), BuildingBlock: AJUNOK_clean_linker_0, # of connection points: 2
#     Edge 30, Type (0, 0), BuildingBlock: AJUNOK_clean_linker_0, # of connection points: 2
#     Edge 31, Type (0, 0), BuildingBlock: AJUNOK_clean_linker_0, # of connection points: 2
#     Edge 32, Type (0, 0), BuildingBlock: AJUNOK_clean_linker_0, # of connection points: 2
#     Edge 33, Type (0, 0), BuildingBlock: AJUNOK_clean_linker_0, # of connection points: 2
#     Edge 34, Type (0, 0), BuildingBlock: AJUNOK_clean_linker_0, # of connection points: 2
#     Edge 35, Type (0, 0), BuildingBlock: AJUNOK_clean_linker_0, # of connection points: 2
# Relax obj value: 0.114
# Max RMSD: 0.128
# Mean RMSD: 0.128
data_MOF--net-ukf--node1-QUQFOY_clean_sbu_1--edge1-AJUNOK_clean_linker_0
_symmetry_space_group_name_H-M    P1
_symmetry_Int_Tables_number       1
_symmetry_cell_setting            triclinic
loop_
_symmetry_equiv_pos_as_xyz
'x, y, z'
_cell_length_a     23.728991
_cell_length_b     23.703553
_cell_length_c     55.027091
_cell_angle_alpha  89.988431
_cell_angle_beta   90.054545
_cell_angle_gamma 119.9671
loop_
_atom_site_label
_atom_site_type_symbol
_atom_site_fract_x
_atom_site_fract_y
_atom_site_fract_z
_atom_type_partial_charge
O0 O 0.47703 0.34367 0.07922 0.0
Cd1 Cd 0.46155 0.25241 0.08829 0.0
Cd2 Cd 0.39351 0.23131 0.04291 0.0
O3 O 0.41418 0.32678 0.04712 0.0
O4 O 0.51165 0.27365 0.11941 0.0
O5 O 0.4062 0.20642 0.11809 0.0
C6 C 0.45864 0.23662 0.13089 0.0
C7 C 0.29612 0.13858 0.03169 0.0
C8 C 0.45443 0.36502 0.06293 0.0
C9 C 0.51001 0.21314 0.04438 0.0
O10 O 0.47075 0.22267 0.03179 0.0
O11 O 0.50981 0.21662 0.06746 0.0
O12 O 0.3284 0.18527 1.01647 0.0
O13 O 0.31549 0.1481 0.05408 0.0
O14 O 0.13642 0.46875 0.41451 0.0
Cd15 Cd 0.2124 0.45333 0.42279 0.0
Cd16 Cd 0.16116 0.38313 0.37872 0.0
O17 O 0.08562 0.40223 0.38378 0.0
O18 O 0.24292 0.50511 0.4535 0.0
O19 O 0.2039 0.39939 0.45293 0.0
C20 C 0.22619 0.45243 0.46539 0.0
C21 C 0.15908 0.2858 0.36968 0.0
C22 C 0.08985 0.44402 0.39932 0.0
C23 C 0.2952 0.49935 0.37772 0.0
O24 O 0.24462 0.46038 0.36592 0.0
O25 O 0.29451 0.49977 0.40086 0.0
O26 O 0.14104 0.31399 0.35389 0.0
O27 O 0.17103 0.30912 0.39153 0.0
O28 O 0.67111 0.13375 0.74568 0.0
Cd29 Cd 0.76285 0.20863 0.75446 0.0
Cd30 Cd 0.78277 0.16131 0.70969 0.0
O31 O 0.68756 0.08642 0.71395 0.0
O32 O 0.74356 0.2371 0.78609 0.0
O33 O 0.80967 0.19754 0.7836 0.0
C34 C 0.78019 0.21943 0.79699 0.0
C35 C 0.87654 0.15718 0.69994 0.0
C36 C 0.6495 0.08926 0.72961 0.0
C37 C 0.80095 0.29577 0.71048 0.0
O38 O 0.79072 0.2466 0.69798 0.0
O39 O 0.79855 0.29261 0.73358 0.0
O40 O 0.83073 0.14186 0.68419 0.0
O41 O 0.86558 0.16777 0.72204 0.0
O42 O 0.5417 0.66696 0.07949 0.0
Cd43 Cd 0.55526 0.75716 0.08902 0.0
Cd44 Cd 0.62369 0.78004 0.043 0.0
O45 O 0.60376 0.68473 0.0471 0.0
O46 O 0.50454 0.73332 0.12001 0.0
O47 O 0.60956 0.80244 0.11916 0.0
C48 C 0.55708 0.77044 0.13177 0.0
C49 C 0.71982 0.87195 0.02997 0.0
C50 C 0.56431 0.64619 0.06302 0.0
C51 C 0.50558 0.79625 0.04538 0.0
O52 O 0.54544 0.788 0.03266 0.0
O53 O 0.50576 0.79211 0.06843 0.0
O54 O 0.68555 0.82404 1.01547 0.0
O55 O 0.70331 0.86422 0.05266 0.0
O56 O 0.87488 0.53309 0.41379 0.0
Cd57 Cd 0.80122 0.55233 0.4216 0.0
Cd58 Cd 0.85304 0.62018 0.37788 0.0
O59 O 0.92776 0.60003 0.38346 0.0
O60 O 0.77081 0.50563 0.45334 0.0
O61 O 0.81405 0.61181 0.45033 0.0
C62 C 0.79076 0.56073 0.46397 0.0
C63 C 0.85586 0.71746 0.36801 0.0
C64 C 0.92205 0.5574 0.39889 0.0
C65 C 0.71823 0.50567 0.37677 0.0
O66 O 0.7694 0.54319 0.36501 0.0
O67 O 0.7185 0.50637 0.39992 0.0
O68 O 0.87415 0.68858 0.35266 0.0
O69 O 0.84357 0.69504 0.38999 0.0
O70 O 0.34723 0.87747 0.74632 0.0
Cd71 Cd 0.25625 0.80178 0.75538 0.0
Cd72 Cd 0.23502 0.8464 0.70958 0.0
O73 O 0.3302 0.92161 0.71368 0.0
O74 O 0.27665 0.77515 0.78723 0.0
O75 O 0.20875 0.81247 0.78434 0.0
C76 C 0.23906 0.79185 0.79793 0.0
C77 C 0.14228 0.85047 0.69771 0.0
C78 C 0.36841 0.9206 0.72975 0.0
C79 C 0.21874 0.71242 0.71197 0.0
O80 O 0.22734 0.76038 0.69903 0.0
O81 O 0.22206 0.71708 0.73503 0.0
O82 O 0.18928 0.86447 0.68273 0.0
O83 O 0.15143 0.84131 0.72022 0.0
O84 O 0.67178 0.53444 0.62039 0.0
Cd85 Cd 0.76458 0.5534 0.6126 0.0
Cd86 Cd 0.78146 0.62245 0.65577 0.0
O87 O 0.68669 0.60254 0.65042 0.0
O88 O 0.74835 0.50632 0.58094 0.0
O89 O 0.81119 0.61252 0.58382 0.0
C90 C 0.78344 0.56129 0.57025 0.0
C91 C 0.87674 0.72005 0.66412 0.0
C92 C 0.64939 0.55942 0.63522 0.0
C93 C 0.80134 0.50778 0.65764 0.0
O94 O 0.7881 0.54592 0.66922 0.0
O95 O 0.8014 0.50776 0.63449 0.0
O96 O 0.83076 0.69306 0.68003 0.0
O97 O 0.86498 0.69541 0.64246 0.0
O98 O 0.14742 0.66449 0.95575 0.0
Cd99 Cd 0.2172 0.75808 0.94642 0.0
Cd100 Cd 0.16263 0.7788 0.98661 0.0
O101 O 0.08535 0.68604 0.97936 0.0
O102 O 0.24906 0.74389 0.91465 0.0
O103 O 0.20062 0.80215 0.91779 0.0
C104 C 0.22663 0.7771 0.90411 0.0
C105 C 0.16162 0.87438 0.99634 0.0
C106 C 0.09544 0.64519 0.96789 0.0
C107 C 0.29592 0.79714 0.99136 0.0
O108 O 0.24256 0.78111 1.00196 0.0
O109 O 0.29906 0.8001 0.96827 0.0
O110 O 0.13936 0.82586 1.01123 0.0
O111 O 0.17734 0.86544 0.97475 0.0
O112 O 0.47327 0.13194 0.28827 0.0
Cd113 Cd 0.45727 0.20758 0.27982 0.0
Cd114 Cd 0.39082 0.15842 0.32527 0.0
O115 O 0.41072 0.08335 0.32012 0.0
O116 O 0.50902 0.23767 0.24911 0.0
O117 O 0.40359 0.1993 0.24955 0.0
C118 C 0.45662 0.22155 0.23716 0.0
C119 C 0.29371 0.15459 0.33623 0.0
C120 C 0.45073 0.08659 0.30398 0.0
C121 C 0.50648 0.29318 0.32432 0.0
O122 O 0.46866 0.2435 0.3368 0.0
O123 O 0.50466 0.29068 0.3012 0.0
O124 O 0.32491 0.13859 0.35139 0.0
O125 O 0.31395 0.16552 0.31396 0.0
O126 O 0.34583 0.47036 0.62156 0.0
Cd127 Cd 0.25363 0.45389 0.61416 0.0
Cd128 Cd 0.2376 0.38403 0.65775 0.0
O129 O 0.33171 0.40285 0.65174 0.0
O130 O 0.27214 0.50543 0.5835 0.0
O131 O 0.20716 0.39941 0.58425 0.0
C132 C 0.23624 0.45248 0.57174 0.0
C133 C 0.14262 0.28706 0.66718 0.0
C134 C 0.36846 0.44524 0.63624 0.0
C135 C 0.21934 0.49972 0.65989 0.0
O136 O 0.23263 0.46138 0.6713 0.0
O137 O 0.21819 0.49947 0.63674 0.0
O138 O 0.18989 0.31463 0.68257 0.0
O139 O 0.1528 0.31064 0.64537 0.0
O140 O 0.86494 0.34501 0.9553 0.0
Cd141 Cd 0.79722 0.25103 0.94558 0.0
Cd142 Cd 0.85248 0.23169 0.98545 0.0
O143 O 0.92896 0.3252 0.97855 0.0
O144 O 0.76551 0.26472 0.91367 0.0
O145 O 0.81602 0.20847 0.91703 0.0
C146 C 0.78945 0.23276 0.90323 0.0
C147 C 0.85352 0.13566 0.99405 0.0
C148 C 0.91701 0.36536 0.96749 0.0
C149 C 0.71838 0.21091 0.99023 0.0
O150 O 0.77209 0.22817 1.00082 0.0
O151 O 0.71505 0.20737 0.96716 0.0
O152 O 0.87565 0.18312 1.00944 0.0
O153 O 0.83795 0.14602 0.97263 0.0
O154 O 0.54091 0.87252 0.28877 0.0
Cd155 Cd 0.55682 0.79667 0.28067 0.0
Cd156 Cd 0.62305 0.84594 0.32579 0.0
O157 O 0.60377 0.92141 0.32055 0.0
O158 O 0.50546 0.76604 0.24987 0.0
O159 O 0.61099 0.80483 0.25063 0.0
C160 C 0.55807 0.78216 0.23809 0.0
C161 C 0.72045 0.84865 0.3352 0.0
C162 C 0.56376 0.91813 0.30438 0.0
C163 C 0.50721 0.71168 0.3253 0.0
O164 O 0.54519 0.76147 0.33773 0.0
O165 O 0.50912 0.71389 0.30219 0.0
O166 O 0.69126 0.86544 0.35099 0.0
O167 O 0.69789 0.83732 0.31323 0.0
C168 C 0.21023 0.99435 0.98904 0.0
C169 C 0.17966 0.94103 1.00503 0.0
C170 C 0.2428 0.05871 0.99771 0.0
C171 C 0.24673 0.07261 0.02277 0.0
H172 H 0.21269 0.98641 0.96978 0.0
H173 H 0.269 0.09748 0.9847 0.0
S174 S 0.16407 0.95149 0.07188 0.0
N175 N 0.14694 0.9073 0.04691 0.0
N176 N 0.2088 0.02798 0.0631 0.0
C177 C 0.21116 0.02019 0.03873 0.0
C178 C 0.17747 0.95455 0.02989 0.0
C179 C 0.1842 0.2287 0.33671 0.0
C180 C 0.17719 0.23676 0.36171 0.0
C181 C 0.21719 0.19692 0.32851 0.0
C182 C 0.24424 0.17135 0.34493 0.0
H183 H 0.16826 0.25114 0.32327 0.0
H184 H 0.22508 0.19622 0.30915 0.0
S185 S 0.22727 0.16732 0.41217 0.0
N186 N 0.19136 0.20766 0.40271 0.0
N187 N 0.25253 0.14735 0.3874 0.0
C188 C 0.23162 0.1731 0.3699 0.0
C189 C 0.19838 0.20594 0.37826 0.0
C190 C 0.95858 0.18312 0.66689 0.0
C191 C 0.94308 0.17377 0.69184 0.0
C192 C 0.02342 0.21489 0.65885 0.0
C193 C 0.07565 0.23827 0.67539 0.0
H194 H 0.92067 0.17008 0.65344 0.0
H195 H 0.03256 0.22483 0.63961 0.0
S196 S 0.06093 0.21378 0.74232 0.0
N197 N 0.98509 0.18159 0.73274 0.0
N198 N 0.10668 0.2404 0.71774 0.0
C199 C 0.06057 0.22313 0.7002 0.0
C200 C 0.99443 0.19118 0.70839 0.0
C201 C 0.79923 0.99089 0.03615 0.0
C202 C 0.76862 0.93729 0.02027 0.0
C203 C 0.832 0.05511 0.02734 0.0
C204 C 0.83519 0.06861 1.00226 0.0
H205 H 0.79442 0.98359 0.05564 0.0
H206 H 0.85086 0.0944 0.04047 0.0
S207 S 0.77451 0.94575 0.95278 0.0
N208 N 0.75262 0.90217 0.97799 0.0
N209 N 0.81335 0.02262 0.96156 0.0
C210 C 0.81025 0.01548 0.98611 0.0
C211 C 0.77726 0.94996 0.99508 0.0
C212 C 0.77743 0.82316 0.36815 0.0
C213 C 0.77016 0.83147 0.34319 0.0
C214 C 0.81034 0.79111 0.3762 0.0
C215 C 0.83788 0.76639 0.35965 0.0
H216 H 0.75358 0.83729 0.38163 0.0
H217 H 0.81042 0.78205 0.39549 0.0
S218 S 0.8443 0.78757 0.29257 0.0
N219 N 0.80187 0.82108 0.30218 0.0
N220 N 0.86429 0.76173 0.3172 0.0
C221 C 0.83678 0.78039 0.33478 0.0
C222 C 0.80278 0.81263 0.32658 0.0
C223 C 0.95918 0.77921 0.69683 0.0
C224 C 0.94406 0.76912 0.67185 0.0
C225 C 0.02388 0.81074 0.70507 0.0
C226 C 0.07638 0.834 0.6887 0.0
H227 H 0.92082 0.75853 0.7103 0.0
H228 H 0.03246 0.81303 0.72448 0.0
S229 S 0.06351 0.83222 0.62133 0.0
N230 N 0.98732 0.79392 0.63078 0.0
N231 N 0.10867 0.85372 0.64615 0.0
C232 C 0.06207 0.83028 0.66365 0.0
C233 C 0.99605 0.79772 0.65526 0.0
C234 C 0.60759 0.1983 0.99282 0.0
C235 C 0.66157 0.20149 1.00468 0.0
C236 C 0.55754 0.19903 1.00595 0.0
C237 C 0.55917 0.20289 0.03153 0.0
H238 H 0.60502 0.19794 0.97316 0.0
H239 H 0.51831 0.19881 0.99578 0.0
S240 S 0.68507 0.20248 0.07152 0.0
N241 N 0.71024 0.20129 0.04368 0.0
N242 N 0.61614 0.20296 0.06834 0.0
C243 C 0.61074 0.20178 0.04373 0.0
C244 C 0.6619 0.20105 0.03031 0.0
C245 C 0.40297 0.60207 0.3765 0.0
C246 C 0.35334 0.54813 0.3642 0.0
C247 C 0.45387 0.65325 0.36378 0.0
C248 C 0.45741 0.65271 0.3382 0.0
H249 H 0.40131 0.60624 0.39605 0.0
H250 H 0.48953 0.69461 0.37415 0.0
S251 S 0.34453 0.51825 0.2976 0.0
N252 N 0.31462 0.49385 0.32511 0.0
N253 N 0.41014 0.59027 0.30124 0.0
C254 C 0.41025 0.59721 0.32577 0.0
C255 C 0.35832 0.54496 0.33875 0.0
C256 C 0.80833 0.35509 0.67197 0.0
C257 C 0.81049 0.35495 0.69758 0.0
C258 C 0.80861 0.40619 0.65914 0.0
C259 C 0.81103 0.45939 0.67136 0.0
H260 H 0.80406 0.31426 0.66162 0.0
H261 H 0.8042 0.40248 0.63953 0.0
S262 S 0.82704 0.48761 0.73812 0.0
N263 N 0.82208 0.41614 0.73456 0.0
N264 N 0.82302 0.51247 0.71049 0.0
C265 C 0.81743 0.46202 0.69689 0.0
C266 C 0.81708 0.40982 0.70999 0.0
C267 C 0.40695 0.8103 0.99395 0.0
C268 C 0.3527 0.80634 1.00583 0.0
C269 C 0.45733 0.81003 1.00704 0.0
C270 C 0.45581 0.80581 0.03261 0.0
H271 H 0.40958 0.8111 0.97429 0.0
H272 H 0.4968 0.81095 0.99682 0.0
S273 S 0.32911 0.80391 0.0727 0.0
N274 N 0.30373 0.80523 0.04488 0.0
N275 N 0.39848 0.80436 0.06946 0.0
C276 C 0.40387 0.80599 0.04485 0.0
C277 C 0.35236 0.80629 0.03147 0.0
C278 C 0.55927 0.35219 0.36279 0.0
C279 C 0.55606 0.35238 0.3372 0.0
C280 C 0.61009 0.40345 0.37554 0.0
C281 C 0.65995 0.45711 0.36324 0.0
H282 H 0.52344 0.311 0.37317 0.0
H283 H 0.61158 0.39951 0.39511 0.0
S284 S 0.66944 0.48632 0.29659 0.0
N285 N 0.60373 0.41438 0.30021 0.0
N286 N 0.69911 0.51098 0.32414 0.0
C287 C 0.65522 0.46004 0.33777 0.0
C288 C 0.60336 0.40771 0.32476 0.0
C289 C 0.20725 0.59861 0.66133 0.0
C290 C 0.21026 0.54835 0.67373 0.0
C291 C 0.20706 0.64973 0.67396 0.0
C292 C 0.2099 0.65291 0.69955 0.0
H293 H 0.20737 0.59992 0.64166 0.0
H294 H 0.2068 0.68819 0.6634 0.0
S295 S 0.20987 0.52899 0.74084 0.0
N296 N 0.20959 0.50149 0.71327 0.0
N297 N 0.2097 0.59792 0.73692 0.0
C298 C 0.20908 0.60102 0.71226 0.0
C299 C 0.2092 0.54877 0.69938 0.0
C300 C 0.39985 0.20406 0.17111 0.0
C301 C 0.45849 0.23133 0.15789 0.0
C302 C 0.39949 0.20178 0.19669 0.0
C303 C 0.45772 0.22635 0.2101 0.0
H304 H 0.35384 0.18499 0.16165 0.0
H305 H 0.35313 0.1803 0.206 0.0
S306 S 0.62445 0.30117 0.18417 0.0
N307 N 0.57634 0.28226 0.16027 0.0
N308 N 0.57576 0.27808 0.20796 0.0
C309 C 0.51663 0.25328 0.19704 0.0
C310 C 0.51699 0.25571 0.17109 0.0
C311 C 0.20372 0.39454 0.50575 0.0
C312 C 0.22986 0.45312 0.49247 0.0
C313 C 0.20458 0.39446 0.53134 0.0
C314 C 0.23186 0.45296 0.54471 0.0
H315 H 0.18208 0.34825 0.49634 0.0
H316 H 0.18441 0.34816 0.54068 0.0
S317 S 0.30588 0.61977 0.51877 0.0
N318 N 0.28333 0.57137 0.49486 0.0
N319 N 0.2848 0.57114 0.54258 0.0
C320 C 0.25783 0.51182 0.53164 0.0
C321 C 0.2569 0.51193 0.50567 0.0
C322 C 0.75536 0.25229 0.86256 0.0
C323 C 0.78782 0.22691 0.87622 0.0
C324 C 0.75411 0.25011 0.83714 0.0
C325 C 0.78539 0.22258 0.82402 0.0
H326 H 0.7305 0.27432 0.87154 0.0
H327 H 0.72807 0.27029 0.82772 0.0
S328 S 0.87765 0.14928 0.8509 0.0
N329 N 0.8524 0.17326 0.87463 0.0
N330 N 0.85002 0.16914 0.82672 0.0
C331 C 0.81826 0.19701 0.83736 0.0
C332 C 0.81941 0.19909 0.86343 0.0
C333 C 0.61544 0.80535 0.17207 0.0
C334 C 0.55676 0.77388 0.15884 0.0
C335 C 0.61573 0.80682 0.19767 0.0
C336 C 0.55734 0.77722 0.21106 0.0
H337 H 0.66164 0.82871 0.16263 0.0
H338 H 0.66211 0.832 0.20698 0.0
S339 S 0.39029 0.68818 0.1852 0.0
N340 N 0.43854 0.71225 0.16127 0.0
N341 N 0.4391 0.71494 0.20898 0.0
C342 C 0.49836 0.7455 0.19802 0.0
C343 C 0.49806 0.74388 0.17206 0.0
C344 C 0.75905 0.50578 0.52986 0.0
C345 C 0.7883 0.56426 0.54322 0.0
C346 C 0.75953 0.50566 0.50442 0.0
C347 C 0.78911 0.56401 0.491 0.0
H348 H 0.73519 0.4592 0.53908 0.0
H349 H 0.73639 0.45898 0.49524 0.0
S350 S 0.87281 0.73091 0.51702 0.0
N351 N 0.8479 0.6826 0.54101 0.0
N352 N 0.84885 0.68236 0.49308 0.0
C353 C 0.81862 0.62309 0.50403 0.0
C354 C 0.8183 0.62322 0.53011 0.0
C355 C 0.26196 0.75812 0.86364 0.0
C356 C 0.22931 0.78354 0.87712 0.0
C357 C 0.26403 0.76071 0.83822 0.0
C358 C 0.23337 0.78865 0.82494 0.0
H359 H 0.2863 0.7357 0.87275 0.0
H360 H 0.2901 0.7404 0.82894 0.0
S361 S 0.14121 0.86254 0.85132 0.0
N362 N 0.16544 0.83793 0.87518 0.0
N363 N 0.16931 0.84275 0.82729 0.0
C364 C 0.20041 0.81437 0.8381 0.0
C365 C 0.19847 0.81192 0.86416 0.0
C366 C 0.52503 0.53975 0.08393 0.0
C367 C 0.53996 0.57519 0.06209 0.0
C368 C 0.49626 0.47179 0.08393 0.0
C369 C 0.47947 0.43617 0.06209 0.0
H370 H 0.53582 0.56481 0.10125 0.0
H371 H 0.48675 0.44686 0.10123 0.0
S372 S 0.50724 0.50548 0.9999 0.0
N373 N 0.53577 0.56965 0.01797 0.0
N374 N 0.48017 0.44144 0.01796 0.0
C375 C 0.4935 0.47082 0.04007 0.0
C376 C 0.52427 0.54041 0.04007 0.0
C377 C 0.988 0.51682 0.37719 0.0
C378 C 0.96743 0.53159 0.39907 0.0
C379 C 0.02498 0.4853 0.37726 0.0
C380 C 0.04364 0.46879 0.39923 0.0
H381 H 0.97417 0.52832 0.35992 0.0
H382 H 0.04052 0.4754 0.36007 0.0
S383 S 1.00277 0.49758 0.46135 0.0
N384 N 0.96814 0.5269 0.44318 0.0
N385 N 0.03897 0.46974 0.44332 0.0
C386 C 0.02371 0.48378 0.42116 0.0
C387 C 0.98527 0.51462 0.42108 0.0
C388 C 0.54278 0.02595 0.75063 0.0
C389 C 0.57836 0.04366 0.7288 0.0
C390 C 0.47484 0.98745 0.75064 0.0
C391 C 0.43942 0.96656 0.7288 0.0
H392 H 0.56772 0.04176 0.76792 0.0
H393 H 0.44977 0.97402 0.76795 0.0
S394 S 0.50906 1.00055 0.66664 0.0
N395 N 0.57309 0.03755 0.68469 0.0
N396 N 0.44493 0.96623 0.68469 0.0
C397 C 0.47417 0.98449 0.70679 0.0
C398 C 0.54373 0.0226 0.70679 0.0
C399 C 0.54375 0.51867 0.65743 0.0
C400 C 0.57828 0.53358 0.63537 0.0
C401 C 0.47533 0.48692 0.6577 0.0
C402 C 0.43942 0.47035 0.63591 0.0
H403 H 0.56966 0.53019 0.67457 0.0
H404 H 0.45051 0.47687 0.67503 0.0
S405 S 0.50684 0.49953 0.57344 0.0
N406 N 0.57138 0.52894 0.59129 0.0
N407 N 0.44347 0.4715 0.59178 0.0
C408 C 0.47353 0.48555 0.6138 0.0
C409 C 0.54276 0.51656 0.61353 0.0
C410 C 0.07211 0.52996 0.96787 0.0
C411 C 0.04879 0.57423 0.96918 0.0
C412 C 0.02953 0.46234 0.9682 0.0
C413 C 0.96195 0.43652 0.96919 0.0
H414 H 0.12386 0.54771 0.9666 0.0
H415 H 0.04954 0.43018 0.96692 0.0
S416 S 0.876 0.53098 0.97376 0.0
N417 N 0.95379 0.58706 0.97255 0.0
N418 N 0.87353 0.46017 0.9724 0.0
C419 C 0.93799 0.48014 0.97084 0.0
C420 C 0.98143 0.54893 0.97107 0.0
C421 C 0.52268 0.98373 0.3261 0.0
C422 C 0.53868 0.9642 0.30424 0.0
C423 C 0.49135 0.02091 0.32599 0.0
C424 C 0.47616 0.0408 0.30401 0.0
H425 H 0.53293 0.96882 0.34338 0.0
H426 H 0.48037 0.03545 0.34319 0.0
S427 S 0.50868 1.00305 0.2419 0.0
N428 N 0.53684 0.96744 0.26011 0.0
N429 N 0.47978 0.03834 0.2599 0.0
C430 C 0.49249 0.02197 0.28209 0.0
C431 C 0.52326 0.98344 0.28221 0.0
loop_
_geom_bond_atom_site_label_1
_geom_bond_atom_site_label_2
_geom_bond_distance
_geom_bond_site_symmetry_2
_ccdc_geom_bond_type
O0 Cd1 2.223 . S
O0 C8 1.315 . S
Cd1 O0 2.223 . S
Cd1 O4 2.297 . S
Cd1 O5 2.439 . S
Cd1 O11 2.240 . S
Cd2 O3 2.240 . S
Cd2 O10 2.223 . S
Cd2 O12 2.297 . S
Cd2 O13 2.439 . S
O3 Cd2 2.240 . S
O3 C8 1.279 . S
O4 Cd1 2.297 . S
O4 C6 1.247 . S
O5 Cd1 2.439 . S
O5 C6 1.208 . S
C6 O4 1.247 . S
C6 O5 1.208 . S
C7 O12 1.247 . S
C7 O13 1.208 . S
C8 O0 1.315 . S
C8 O3 1.279 . S
C9 O10 1.315 . S
C9 O11 1.279 . S
O10 Cd2 2.223 . S
O10 C9 1.315 . S
O11 Cd1 2.240 . S
O11 C9 1.279 . S
O12 Cd2 2.297 . S
O12 C7 1.247 . S
O13 Cd2 2.439 . S
O13 C7 1.208 . S
O14 Cd15 2.223 . S
O14 C22 1.315 . S
Cd15 O14 2.223 . S
Cd15 O18 2.297 . S
Cd15 O19 2.439 . S
Cd15 O25 2.240 . S
Cd16 O17 2.240 . S
Cd16 O24 2.223 . S
Cd16 O26 2.297 . S
Cd16 O27 2.439 . S
O17 Cd16 2.240 . S
O17 C22 1.279 . S
O18 Cd15 2.297 . S
O18 C20 1.247 . S
O19 Cd15 2.439 . S
O19 C20 1.208 . S
C20 O18 1.247 . S
C20 O19 1.208 . S
C21 O26 1.247 . S
C21 O27 1.208 . S
C22 O14 1.315 . S
C22 O17 1.279 . S
C23 O24 1.315 . S
C23 O25 1.279 . S
O24 Cd16 2.223 . S
O24 C23 1.315 . S
O25 Cd15 2.240 . S
O25 C23 1.279 . S
O26 Cd16 2.297 . S
O26 C21 1.247 . S
O27 Cd16 2.439 . S
O27 C21 1.208 . S
O28 Cd29 2.223 . S
O28 C36 1.315 . S
Cd29 O28 2.223 . S
Cd29 O32 2.297 . S
Cd29 O33 2.439 . S
Cd29 O39 2.240 . S
Cd30 O31 2.240 . S
Cd30 O38 2.223 . S
Cd30 O40 2.297 . S
Cd30 O41 2.439 . S
O31 Cd30 2.240 . S
O31 C36 1.279 . S
O32 Cd29 2.297 . S
O32 C34 1.247 . S
O33 Cd29 2.439 . S
O33 C34 1.208 . S
C34 O32 1.247 . S
C34 O33 1.208 . S
C35 O40 1.247 . S
C35 O41 1.208 . S
C36 O28 1.315 . S
C36 O31 1.279 . S
C37 O38 1.315 . S
C37 O39 1.279 . S
O38 Cd30 2.223 . S
O38 C37 1.315 . S
O39 Cd29 2.240 . S
O39 C37 1.279 . S
O40 Cd30 2.297 . S
O40 C35 1.247 . S
O41 Cd30 2.439 . S
O41 C35 1.208 . S
O42 Cd43 2.223 . S
O42 C50 1.315 . S
Cd43 O42 2.223 . S
Cd43 O46 2.297 . S
Cd43 O47 2.439 . S
Cd43 O53 2.240 . S
Cd44 O45 2.240 . S
Cd44 O52 2.223 . S
Cd44 O54 2.297 . S
Cd44 O55 2.439 . S
O45 Cd44 2.240 . S
O45 C50 1.279 . S
O46 Cd43 2.297 . S
O46 C48 1.247 . S
O47 Cd43 2.439 . S
O47 C48 1.208 . S
C48 O46 1.247 . S
C48 O47 1.208 . S
C49 O54 1.247 . S
C49 O55 1.208 . S
C50 O42 1.315 . S
C50 O45 1.279 . S
C51 O52 1.315 . S
C51 O53 1.279 . S
O52 Cd44 2.223 . S
O52 C51 1.315 . S
O53 Cd43 2.240 . S
O53 C51 1.279 . S
O54 Cd44 2.297 . S
O54 C49 1.247 . S
O55 Cd44 2.439 . S
O55 C49 1.208 . S
O56 Cd57 2.223 . S
O56 C64 1.315 . S
Cd57 O56 2.223 . S
Cd57 O60 2.297 . S
Cd57 O61 2.439 . S
Cd57 O67 2.240 . S
Cd58 O59 2.240 . S
Cd58 O66 2.223 . S
Cd58 O68 2.297 . S
Cd58 O69 2.439 . S
O59 Cd58 2.240 . S
O59 C64 1.279 . S
O60 Cd57 2.297 . S
O60 C62 1.247 . S
O61 Cd57 2.439 . S
O61 C62 1.208 . S
C62 O60 1.247 . S
C62 O61 1.208 . S
C63 O68 1.247 . S
C63 O69 1.208 . S
C64 O56 1.315 . S
C64 O59 1.279 . S
C65 O66 1.315 . S
C65 O67 1.279 . S
O66 Cd58 2.223 . S
O66 C65 1.315 . S
O67 Cd57 2.240 . S
O67 C65 1.279 . S
O68 Cd58 2.297 . S
O68 C63 1.247 . S
O69 Cd58 2.439 . S
O69 C63 1.208 . S
O70 Cd71 2.223 . S
O70 C78 1.315 . S
Cd71 O70 2.223 . S
Cd71 O74 2.297 . S
Cd71 O75 2.439 . S
Cd71 O81 2.240 . S
Cd72 O73 2.240 . S
Cd72 O80 2.223 . S
Cd72 O82 2.297 . S
Cd72 O83 2.439 . S
O73 Cd72 2.240 . S
O73 C78 1.279 . S
O74 Cd71 2.297 . S
O74 C76 1.247 . S
O75 Cd71 2.439 . S
O75 C76 1.208 . S
C76 O74 1.247 . S
C76 O75 1.208 . S
C77 O82 1.247 . S
C77 O83 1.208 . S
C78 O70 1.315 . S
C78 O73 1.279 . S
C79 O80 1.315 . S
C79 O81 1.279 . S
O80 Cd72 2.223 . S
O80 C79 1.315 . S
O81 Cd71 2.240 . S
O81 C79 1.279 . S
O82 Cd72 2.297 . S
O82 C77 1.247 . S
O83 Cd72 2.439 . S
O83 C77 1.208 . S
O84 Cd85 2.223 . S
O84 C92 1.315 . S
Cd85 O84 2.223 . S
Cd85 O88 2.297 . S
Cd85 O89 2.439 . S
Cd85 O95 2.240 . S
Cd86 O87 2.240 . S
Cd86 O94 2.223 . S
Cd86 O96 2.297 . S
Cd86 O97 2.439 . S
O87 Cd86 2.240 . S
O87 C92 1.279 . S
O88 Cd85 2.297 . S
O88 C90 1.247 . S
O89 Cd85 2.439 . S
O89 C90 1.208 . S
C90 O88 1.247 . S
C90 O89 1.208 . S
C91 O96 1.247 . S
C91 O97 1.208 . S
C92 O84 1.315 . S
C92 O87 1.279 . S
C93 O94 1.315 . S
C93 O95 1.279 . S
O94 Cd86 2.223 . S
O94 C93 1.315 . S
O95 Cd85 2.240 . S
O95 C93 1.279 . S
O96 Cd86 2.297 . S
O96 C91 1.247 . S
O97 Cd86 2.439 . S
O97 C91 1.208 . S
O98 Cd99 2.223 . S
O98 C106 1.315 . S
Cd99 O98 2.223 . S
Cd99 O102 2.297 . S
Cd99 O103 2.439 . S
Cd99 O109 2.240 . S
Cd100 O101 2.240 . S
Cd100 O108 2.223 . S
Cd100 O110 2.297 . S
Cd100 O111 2.439 . S
O101 Cd100 2.240 . S
O101 C106 1.279 . S
O102 Cd99 2.297 . S
O102 C104 1.247 . S
O103 Cd99 2.439 . S
O103 C104 1.208 . S
C104 O102 1.247 . S
C104 O103 1.208 . S
C105 O110 1.247 . S
C105 O111 1.208 . S
C106 O98 1.315 . S
C106 O101 1.279 . S
C107 O108 1.315 . S
C107 O109 1.279 . S
O108 Cd100 2.223 . S
O108 C107 1.315 . S
O109 Cd99 2.240 . S
O109 C107 1.279 . S
O110 Cd100 2.297 . S
O110 C105 1.247 . S
O111 Cd100 2.439 . S
O111 C105 1.208 . S
O112 Cd113 2.223 . S
O112 C120 1.315 . S
Cd113 O112 2.223 . S
Cd113 O116 2.297 . S
Cd113 O117 2.439 . S
Cd113 O123 2.240 . S
Cd114 O115 2.240 . S
Cd114 O122 2.223 . S
Cd114 O124 2.297 . S
Cd114 O125 2.439 . S
O115 Cd114 2.240 . S
O115 C120 1.279 . S
O116 Cd113 2.297 . S
O116 C118 1.247 . S
O117 Cd113 2.439 . S
O117 C118 1.208 . S
C118 O116 1.247 . S
C118 O117 1.208 . S
C119 O124 1.247 . S
C119 O125 1.208 . S
C120 O112 1.315 . S
C120 O115 1.279 . S
C121 O122 1.315 . S
C121 O123 1.279 . S
O122 Cd114 2.223 . S
O122 C121 1.315 . S
O123 Cd113 2.240 . S
O123 C121 1.279 . S
O124 Cd114 2.297 . S
O124 C119 1.247 . S
O125 Cd114 2.439 . S
O125 C119 1.208 . S
O126 Cd127 2.223 . S
O126 C134 1.315 . S
Cd127 O126 2.223 . S
Cd127 O130 2.297 . S
Cd127 O131 2.439 . S
Cd127 O137 2.240 . S
Cd128 O129 2.240 . S
Cd128 O136 2.223 . S
Cd128 O138 2.297 . S
Cd128 O139 2.439 . S
O129 Cd128 2.240 . S
O129 C134 1.279 . S
O130 Cd127 2.297 . S
O130 C132 1.247 . S
O131 Cd127 2.439 . S
O131 C132 1.208 . S
C132 O130 1.247 . S
C132 O131 1.208 . S
C133 O138 1.247 . S
C133 O139 1.208 . S
C134 O126 1.315 . S
C134 O129 1.279 . S
C135 O136 1.315 . S
C135 O137 1.279 . S
O136 Cd128 2.223 . S
O136 C135 1.315 . S
O137 Cd127 2.240 . S
O137 C135 1.279 . S
O138 Cd128 2.297 . S
O138 C133 1.247 . S
O139 Cd128 2.439 . S
O139 C133 1.208 . S
O140 Cd141 2.223 . S
O140 C148 1.315 . S
Cd141 O140 2.223 . S
Cd141 O144 2.297 . S
Cd141 O145 2.439 . S
Cd141 O151 2.240 . S
Cd142 O143 2.240 . S
Cd142 O150 2.223 . S
Cd142 O152 2.297 . S
Cd142 O153 2.439 . S
O143 Cd142 2.240 . S
O143 C148 1.279 . S
O144 Cd141 2.297 . S
O144 C146 1.247 . S
O145 Cd141 2.439 . S
O145 C146 1.208 . S
C146 O144 1.247 . S
C146 O145 1.208 . S
C147 O152 1.247 . S
C147 O153 1.208 . S
C148 O140 1.315 . S
C148 O143 1.279 . S
C149 O150 1.315 . S
C149 O151 1.279 . S
O150 Cd142 2.223 . S
O150 C149 1.315 . S
O151 Cd141 2.240 . S
O151 C149 1.279 . S
O152 Cd142 2.297 . S
O152 C147 1.247 . S
O153 Cd142 2.439 . S
O153 C147 1.208 . S
O154 Cd155 2.223 . S
O154 C162 1.315 . S
Cd155 O154 2.223 . S
Cd155 O158 2.297 . S
Cd155 O159 2.439 . S
Cd155 O165 2.240 . S
Cd156 O157 2.240 . S
Cd156 O164 2.223 . S
Cd156 O166 2.297 . S
Cd156 O167 2.439 . S
O157 Cd156 2.240 . S
O157 C162 1.279 . S
O158 Cd155 2.297 . S
O158 C160 1.247 . S
O159 Cd155 2.439 . S
O159 C160 1.208 . S
C160 O158 1.247 . S
C160 O159 1.208 . S
C161 O166 1.247 . S
C161 O167 1.208 . S
C162 O154 1.315 . S
C162 O157 1.279 . S
C163 O164 1.315 . S
C163 O165 1.279 . S
O164 Cd156 2.223 . S
O164 C163 1.315 . S
O165 Cd155 2.240 . S
O165 C163 1.279 . S
O166 Cd156 2.297 . S
O166 C161 1.247 . S
O167 Cd156 2.439 . S
O167 C161 1.208 . S
C168 C169 1.369 . S
C168 C170 1.419 1_565 S
C168 H172 0.930 . S
C169 C168 1.369 . S
C169 C178 1.429 1_556 S
C170 C168 1.419 1_545 S
C170 C171 1.363 1_556 S
C170 H173 0.929 . S
C171 C170 1.363 1_554 S
C171 C177 1.428 . S
H172 C168 0.930 . S
H173 C170 0.929 . S
S174 N175 1.613 . S
S174 N176 1.610 1_565 S
N175 S174 1.613 . S
N175 C178 1.350 . S
N176 S174 1.610 1_545 S
N176 C177 1.351 . S
C177 C171 1.428 . S
C177 N176 1.351 . S
C177 C178 1.434 1_545 S
C178 C169 1.429 1_554 S
C178 N175 1.350 . S
C178 C177 1.434 1_565 S
C179 C180 1.369 . S
C179 C181 1.419 . S
C179 H183 0.930 . S
C180 C179 1.369 . S
C180 C189 1.429 . S
C181 C179 1.419 . S
C181 C182 1.363 . S
C181 H184 0.929 . S
C182 C181 1.363 . S
C182 C188 1.428 . S
H183 C179 0.930 . S
H184 C181 0.929 . S
S185 N186 1.613 . S
S185 N187 1.610 . S
N186 S185 1.613 . S
N186 C189 1.350 . S
N187 S185 1.610 . S
N187 C188 1.351 . S
C188 C182 1.428 . S
C188 N187 1.351 . S
C188 C189 1.434 . S
C189 C180 1.429 . S
C189 N186 1.350 . S
C189 C188 1.434 . S
C190 C191 1.369 . S
C190 C192 1.419 1_655 S
C190 H194 0.930 . S
C191 C190 1.369 . S
C191 C200 1.429 . S
C192 C190 1.419 1_455 S
C192 C193 1.363 . S
C192 H195 0.929 . S
C193 C192 1.363 . S
C193 C199 1.428 . S
H194 C190 0.930 . S
H195 C192 0.929 . S
S196 N197 1.613 1_455 S
S196 N198 1.610 . S
N197 S196 1.613 1_655 S
N197 C200 1.350 . S
N198 S196 1.610 . S
N198 C199 1.351 . S
C199 C193 1.428 . S
C199 N198 1.351 . S
C199 C200 1.434 1_455 S
C200 C191 1.429 . S
C200 N197 1.350 . S
C200 C199 1.434 1_655 S
C201 C202 1.369 . S
C201 C203 1.441 1_565 S
C201 H205 0.930 . S
C202 C201 1.369 . S
C202 C211 1.429 1_554 S
C203 C201 1.441 1_545 S
C203 C204 1.339 1_554 S
C203 H206 0.933 . S
C204 C203 1.339 1_556 S
C204 C210 1.428 . S
H205 C201 0.930 . S
H206 C203 0.933 . S
S207 N208 1.613 . S
S207 N209 1.610 1_565 S
N208 S207 1.613 . S
N208 C211 1.350 . S
N209 S207 1.610 1_545 S
N209 C210 1.351 . S
C210 C204 1.428 . S
C210 N209 1.351 . S
C210 C211 1.434 1_545 S
C211 C202 1.429 1_556 S
C211 N208 1.350 . S
C211 C210 1.434 1_565 S
C212 C213 1.369 . S
C212 C214 1.419 . S
C212 H216 0.930 . S
C213 C212 1.369 . S
C213 C222 1.429 . S
C214 C212 1.419 . S
C214 C215 1.363 . S
C214 H217 0.929 . S
C215 C214 1.363 . S
C215 C221 1.428 . S
H216 C212 0.930 . S
H217 C214 0.929 . S
S218 N219 1.613 . S
S218 N220 1.610 . S
N219 S218 1.613 . S
N219 C222 1.350 . S
N220 S218 1.610 . S
N220 C221 1.351 . S
C221 C215 1.428 . S
C221 N220 1.351 . S
C221 C222 1.434 . S
C222 C213 1.429 . S
C222 N219 1.350 . S
C222 C221 1.434 . S
C223 C224 1.369 . S
C223 C225 1.419 1_655 S
C223 H227 0.930 . S
C224 C223 1.369 . S
C224 C233 1.429 . S
C225 C223 1.419 1_455 S
C225 C226 1.363 . S
C225 H228 0.929 . S
C226 C225 1.363 . S
C226 C232 1.428 . S
H227 C223 0.930 . S
H228 C225 0.929 . S
S229 N230 1.613 1_455 S
S229 N231 1.610 . S
N230 S229 1.613 1_655 S
N230 C233 1.350 . S
N231 S229 1.610 . S
N231 C232 1.351 . S
C232 C226 1.428 . S
C232 N231 1.351 . S
C232 C233 1.434 1_455 S
C233 C224 1.429 . S
C233 N230 1.350 . S
C233 C232 1.434 1_655 S
C234 C235 1.369 . S
C234 C236 1.419 . S
C234 H238 0.930 . S
C235 C234 1.369 . S
C235 C244 1.429 1_556 S
C236 C234 1.419 . S
C236 C237 1.363 1_556 S
C236 H239 0.929 . S
C237 C236 1.363 1_554 S
C237 C243 1.428 . S
H238 C234 0.930 . S
H239 C236 0.929 . S
S240 N241 1.613 . S
S240 N242 1.610 . S
N241 S240 1.613 . S
N241 C244 1.350 . S
N242 S240 1.610 . S
N242 C243 1.351 . S
C243 C237 1.428 . S
C243 N242 1.351 . S
C243 C244 1.434 . S
C244 C235 1.429 1_554 S
C244 N241 1.350 . S
C244 C243 1.434 . S
C245 C246 1.369 . S
C245 C247 1.419 . S
C245 H249 0.930 . S
C246 C245 1.369 . S
C246 C255 1.429 . S
C247 C245 1.419 . S
C247 C248 1.363 . S
C247 H250 0.929 . S
C248 C247 1.363 . S
C248 C254 1.428 . S
H249 C245 0.930 . S
H250 C247 0.929 . S
S251 N252 1.613 . S
S251 N253 1.610 . S
N252 S251 1.613 . S
N252 C255 1.350 . S
N253 S251 1.610 . S
N253 C254 1.351 . S
C254 C248 1.428 . S
C254 N253 1.351 . S
C254 C255 1.434 . S
C255 C246 1.429 . S
C255 N252 1.350 . S
C255 C254 1.434 . S
C256 C257 1.369 . S
C256 C258 1.419 . S
C256 H260 0.930 . S
C257 C256 1.369 . S
C257 C266 1.429 . S
C258 C256 1.419 . S
C258 C259 1.363 . S
C258 H261 0.929 . S
C259 C258 1.363 . S
C259 C265 1.428 . S
H260 C256 0.930 . S
H261 C258 0.929 . S
S262 N263 1.613 . S
S262 N264 1.610 . S
N263 S262 1.613 . S
N263 C266 1.350 . S
N264 S262 1.610 . S
N264 C265 1.351 . S
C265 C259 1.428 . S
C265 N264 1.351 . S
C265 C266 1.434 . S
C266 C257 1.429 . S
C266 N263 1.350 . S
C266 C265 1.434 . S
C267 C268 1.369 . S
C267 C269 1.419 . S
C267 H271 0.930 . S
C268 C267 1.369 . S
C268 C277 1.429 1_556 S
C269 C267 1.419 . S
C269 C270 1.363 1_556 S
C269 H272 0.929 . S
C270 C269 1.363 1_554 S
C270 C276 1.428 . S
H271 C267 0.930 . S
H272 C269 0.929 . S
S273 N274 1.613 . S
S273 N275 1.610 . S
N274 S273 1.613 . S
N274 C277 1.350 . S
N275 S273 1.610 . S
N275 C276 1.351 . S
C276 C270 1.428 . S
C276 N275 1.351 . S
C276 C277 1.434 . S
C277 C268 1.429 1_554 S
C277 N274 1.350 . S
C277 C276 1.434 . S
C278 C279 1.369 . S
C278 C280 1.419 . S
C278 H282 0.930 . S
C279 C278 1.369 . S
C279 C288 1.429 . S
C280 C278 1.419 . S
C280 C281 1.363 . S
C280 H283 0.929 . S
C281 C280 1.363 . S
C281 C287 1.428 . S
H282 C278 0.930 . S
H283 C280 0.929 . S
S284 N285 1.613 . S
S284 N286 1.610 . S
N285 S284 1.613 . S
N285 C288 1.350 . S
N286 S284 1.610 . S
N286 C287 1.351 . S
C287 C281 1.428 . S
C287 N286 1.351 . S
C287 C288 1.434 . S
C288 C279 1.429 . S
C288 N285 1.350 . S
C288 C287 1.434 . S
C289 C290 1.369 . S
C289 C291 1.419 . S
C289 H293 0.930 . S
C290 C289 1.369 . S
C290 C299 1.429 . S
C291 C289 1.419 . S
C291 C292 1.363 . S
C291 H294 0.929 . S
C292 C291 1.363 . S
C292 C298 1.428 . S
H293 C289 0.930 . S
H294 C291 0.929 . S
S295 N296 1.613 . S
S295 N297 1.610 . S
N296 S295 1.613 . S
N296 C299 1.350 . S
N297 S295 1.610 . S
N297 C298 1.351 . S
C298 C292 1.428 . S
C298 N297 1.351 . S
C298 C299 1.434 . S
C299 C290 1.429 . S
C299 N296 1.350 . S
C299 C298 1.434 . S
C300 C301 1.369 . S
C300 C302 1.419 . S
C300 H304 0.930 . S
C301 C300 1.369 . S
C301 C310 1.429 . S
C302 C300 1.419 . S
C302 C303 1.363 . S
C302 H305 0.929 . S
C303 C302 1.363 . S
C303 C309 1.428 . S
H304 C300 0.930 . S
H305 C302 0.929 . S
S306 N307 1.613 . S
S306 N308 1.610 . S
N307 S306 1.613 . S
N307 C310 1.350 . S
N308 S306 1.610 . S
N308 C309 1.351 . S
C309 C303 1.428 . S
C309 N308 1.351 . S
C309 C310 1.434 . S
C310 C301 1.429 . S
C310 N307 1.350 . S
C310 C309 1.434 . S
C311 C312 1.369 . S
C311 C313 1.419 . S
C311 H315 0.930 . S
C312 C311 1.369 . S
C312 C321 1.429 . S
C313 C311 1.419 . S
C313 C314 1.363 . S
C313 H316 0.929 . S
C314 C313 1.363 . S
C314 C320 1.428 . S
H315 C311 0.930 . S
H316 C313 0.929 . S
S317 N318 1.613 . S
S317 N319 1.610 . S
N318 S317 1.613 . S
N318 C321 1.350 . S
N319 S317 1.610 . S
N319 C320 1.351 . S
C320 C314 1.428 . S
C320 N319 1.351 . S
C320 C321 1.434 . S
C321 C312 1.429 . S
C321 N318 1.350 . S
C321 C320 1.434 . S
C322 C323 1.369 . S
C322 C324 1.419 . S
C322 H326 0.930 . S
C323 C322 1.369 . S
C323 C332 1.429 . S
C324 C322 1.419 . S
C324 C325 1.363 . S
C324 H327 0.929 . S
C325 C324 1.363 . S
C325 C331 1.428 . S
H326 C322 0.930 . S
H327 C324 0.929 . S
S328 N329 1.613 . S
S328 N330 1.610 . S
N329 S328 1.613 . S
N329 C332 1.350 . S
N330 S328 1.610 . S
N330 C331 1.351 . S
C331 C325 1.428 . S
C331 N330 1.351 . S
C331 C332 1.434 . S
C332 C323 1.429 . S
C332 N329 1.350 . S
C332 C331 1.434 . S
C333 C334 1.369 . S
C333 C335 1.419 . S
C333 H337 0.930 . S
C334 C333 1.369 . S
C334 C343 1.429 . S
C335 C333 1.419 . S
C335 C336 1.363 . S
C335 H338 0.929 . S
C336 C335 1.363 . S
C336 C342 1.428 . S
H337 C333 0.930 . S
H338 C335 0.929 . S
S339 N340 1.613 . S
S339 N341 1.610 . S
N340 S339 1.613 . S
N340 C343 1.350 . S
N341 S339 1.610 . S
N341 C342 1.351 . S
C342 C336 1.428 . S
C342 N341 1.351 . S
C342 C343 1.434 . S
C343 C334 1.429 . S
C343 N340 1.350 . S
C343 C342 1.434 . S
C344 C345 1.369 . S
C344 C346 1.419 . S
C344 H348 0.930 . S
C345 C344 1.369 . S
C345 C354 1.429 . S
C346 C344 1.419 . S
C346 C347 1.363 . S
C346 H349 0.929 . S
C347 C346 1.363 . S
C347 C353 1.428 . S
H348 C344 0.930 . S
H349 C346 0.929 . S
S350 N351 1.613 . S
S350 N352 1.610 . S
N351 S350 1.613 . S
N351 C354 1.350 . S
N352 S350 1.610 . S
N352 C353 1.351 . S
C353 C347 1.428 . S
C353 N352 1.351 . S
C353 C354 1.434 . S
C354 C345 1.429 . S
C354 N351 1.350 . S
C354 C353 1.434 . S
C355 C356 1.369 . S
C355 C357 1.419 . S
C355 H359 0.930 . S
C356 C355 1.369 . S
C356 C365 1.429 . S
C357 C355 1.419 . S
C357 C358 1.363 . S
C357 H360 0.929 . S
C358 C357 1.363 . S
C358 C364 1.428 . S
H359 C355 0.930 . S
H360 C357 0.929 . S
S361 N362 1.613 . S
S361 N363 1.610 . S
N362 S361 1.613 . S
N362 C365 1.350 . S
N363 S361 1.610 . S
N363 C364 1.351 . S
C364 C358 1.428 . S
C364 N363 1.351 . S
C364 C365 1.434 . S
C365 C356 1.429 . S
C365 N362 1.350 . S
C365 C364 1.434 . S
C366 C367 1.369 . S
C366 C368 1.419 . S
C366 H370 0.930 . S
C367 C366 1.369 . S
C367 C376 1.429 . S
C368 C366 1.419 . S
C368 C369 1.363 . S
C368 H371 0.929 . S
C369 C368 1.363 . S
C369 C375 1.428 . S
H370 C366 0.930 . S
H371 C368 0.929 . S
S372 N373 1.613 1_556 S
S372 N374 1.610 1_556 S
N373 S372 1.613 1_554 S
N373 C376 1.350 . S
N374 S372 1.610 1_554 S
N374 C375 1.351 . S
C375 C369 1.428 . S
C375 N374 1.351 . S
C375 C376 1.434 . S
C376 C367 1.429 . S
C376 N373 1.350 . S
C376 C375 1.434 . S
C377 C378 1.369 1_455 S
C377 C379 1.419 . S
C377 H381 0.930 . S
C378 C377 1.369 1_655 S
C378 C387 1.429 . S
C379 C377 1.419 . S
C379 C380 1.363 . S
C379 H382 0.929 . S
C380 C379 1.363 . S
C380 C386 1.428 1_455 S
H381 C377 0.930 . S
H382 C379 0.929 . S
S383 N384 1.613 . S
S383 N385 1.610 . S
N384 S383 1.613 . S
N384 C387 1.350 . S
N385 S383 1.610 . S
N385 C386 1.351 . S
C386 C380 1.428 1_655 S
C386 N385 1.351 . S
C386 C387 1.434 . S
C387 C378 1.429 . S
C387 N384 1.350 . S
C387 C386 1.434 . S
C388 C389 1.369 . S
C388 C390 1.419 . S
C388 H392 0.930 . S
C389 C388 1.369 . S
C389 C398 1.429 1_545 S
C390 C388 1.419 . S
C390 C391 1.363 1_545 S
C390 H393 0.929 . S
C391 C390 1.363 1_565 S
C391 C397 1.428 . S
H392 C388 0.930 . S
H393 C390 0.929 . S
S394 N395 1.613 . S
S394 N396 1.610 . S
N395 S394 1.613 . S
N395 C398 1.350 . S
N396 S394 1.610 . S
N396 C397 1.351 . S
C397 C391 1.428 . S
C397 N396 1.351 . S
C397 C398 1.434 . S
C398 C389 1.429 1_565 S
C398 N395 1.350 . S
C398 C397 1.434 . S
C399 C400 1.369 . S
C399 C401 1.419 . S
C399 H403 0.930 . S
C400 C399 1.369 . S
C400 C409 1.429 . S
C401 C399 1.419 . S
C401 C402 1.363 . S
C401 H404 0.929 . S
C402 C401 1.363 . S
C402 C408 1.428 . S
H403 C399 0.930 . S
H404 C401 0.929 . S
S405 N406 1.613 . S
S405 N407 1.610 . S
N406 S405 1.613 . S
N406 C409 1.350 . S
N407 S405 1.610 . S
N407 C408 1.351 . S
C408 C402 1.428 . S
C408 N407 1.351 . S
C408 C409 1.434 . S
C409 C400 1.429 . S
C409 N406 1.350 . S
C409 C408 1.434 . S
C410 C411 1.369 . S
C410 C412 1.419 . S
C410 H414 0.930 . S
C411 C410 1.369 . S
C411 C420 1.429 1_455 S
C412 C410 1.419 . S
C412 C413 1.363 1_455 S
C412 H415 0.929 . S
C413 C412 1.363 1_655 S
C413 C419 1.428 . S
H414 C410 0.930 . S
H415 C412 0.929 . S
S416 N417 1.613 . S
S416 N418 1.610 . S
N417 S416 1.613 . S
N417 C420 1.350 . S
N418 S416 1.610 . S
N418 C419 1.351 . S
C419 C413 1.428 . S
C419 N418 1.351 . S
C419 C420 1.434 . S
C420 C411 1.429 1_655 S
C420 N417 1.350 . S
C420 C419 1.434 . S
C421 C422 1.369 . S
C421 C423 1.419 1_565 S
C421 H425 0.930 . S
C422 C421 1.369 . S
C422 C431 1.429 . S
C423 C421 1.419 1_545 S
C423 C424 1.363 . S
C423 H426 0.929 . S
C424 C423 1.363 . S
C424 C430 1.428 . S
H425 C421 0.930 . S
H426 C423 0.929 . S
S427 N428 1.613 1_545 S
S427 N429 1.610 . S
N428 S427 1.613 1_565 S
N428 C431 1.350 . S
N429 S427 1.610 . S
N429 C430 1.351 . S
C430 C424 1.428 . S
C430 N429 1.351 . S
C430 C431 1.434 1_545 S
C431 C422 1.429 . S
C431 N428 1.350 . S
C431 C430 1.434 1_565 S
C169 C105 1.278 . S
C171 C7 1.281 . S
C180 C21 1.283 . S
C182 C119 1.276 . S
C191 C35 1.283 . S
C193 C133 1.277 . S
C202 C49 1.276 . S
C204 C147 1.281 . S
C213 C161 1.282 . S
C215 C63 1.276 . S
C224 C91 1.280 . S
C226 C77 1.277 . S
C235 C149 1.691 . S
C237 C9 1.692 . S
C246 C23 1.693 . S
C248 C163 1.694 . S
C257 C37 1.695 . S
C259 C93 1.694 . S
C268 C107 1.691 . S
C270 C51 1.692 . S
C279 C121 1.695 . S
C281 C65 1.694 . S
C290 C135 1.694 . S
C292 C79 1.694 . S
C301 C6 1.711 . S
C303 C118 1.715 . S
C312 C20 1.710 . S
C314 C132 1.710 . S
C323 C146 1.717 . S
C325 C34 1.715 . S
C334 C48 1.709 . S
C336 C160 1.710 . S
C345 C90 1.717 . S
C347 C62 1.716 . S
C356 C104 1.713 . S
C358 C76 1.716 . S
C367 C50 1.353 . S
C369 C8 1.355 . S
C378 C64 1.348 . S
C380 C22 1.350 . S
C389 C36 1.356 . S
C391 C78 1.354 . S
C400 C92 1.348 . S
C402 C134 1.350 . S
C411 C106 1.356 . S
C413 C148 1.353 . S
C422 C162 1.351 . S
C424 C120 1.348 . S
