# Generated by pormake.
# Topology smd, (6)-cn, num edge types: 1
# Building blocks:
#     Node 0, Type 0, BuildingBlock: PAMTUU_clean_sbu_0, # of connection points: 6
#     Node 1, Type 0, BuildingBlock: PAMTUU_clean_sbu_0, # of connection points: 6
#     Node 2, Type 0, BuildingBlock: PAMTUU_clean_sbu_0, # of connection points: 6
#     Node 3, Type 0, BuildingBlock: PAMTUU_clean_sbu_0, # of connection points: 6
#     Node 4, Type 0, BuildingBlock: PAMTUU_clean_sbu_0, # of connection points: 6
#     Node 5, Type 0, BuildingBlock: PAMTUU_clean_sbu_0, # of connection points: 6
#     Node 6, Type 0, BuildingBlock: PAMTUU_clean_sbu_0, # of connection points: 6
#     Node 7, Type 0, BuildingBlock: PAMTUU_clean_sbu_0, # of connection points: 6
#     Node 8, Type 0, BuildingBlock: PAMTUU_clean_sbu_0, # of connection points: 6
#     Node 9, Type 0, BuildingBlock: PAMTUU_clean_sbu_0, # of connection points: 6
#     Node 10, Type 0, BuildingBlock: PAMTUU_clean_sbu_0, # of connection points: 6
#     Node 11, Type 0, BuildingBlock: PAMTUU_clean_sbu_0, # of connection points: 6
#     Node 12, Type 0, BuildingBlock: PAMTUU_clean_sbu_0, # of connection points: 6
#     Node 13, Type 0, BuildingBlock: PAMTUU_clean_sbu_0, # of connection points: 6
#     Node 14, Type 0, BuildingBlock: PAMTUU_clean_sbu_0, # of connection points: 6
#     Node 15, Type 0, BuildingBlock: PAMTUU_clean_sbu_0, # of connection points: 6
#     Node 16, Type 0, BuildingBlock: PAMTUU_clean_sbu_0, # of connection points: 6
#     Node 17, Type 0, BuildingBlock: PAMTUU_clean_sbu_0, # of connection points: 6
#     Edge 18, Type (0, 0), BuildingBlock: EZIPEK_clean_linker_0, # of connection points: 2
#     Edge 19, Type (0, 0), BuildingBlock: EZIPEK_clean_linker_0, # of connection points: 2
#     Edge 20, Type (0, 0), BuildingBlock: EZIPEK_clean_linker_0, # of connection points: 2
#     Edge 21, Type (0, 0), BuildingBlock: EZIPEK_clean_linker_0, # of connection points: 2
#     Edge 22, Type (0, 0), BuildingBlock: EZIPEK_clean_linker_0, # of connection points: 2
#     Edge 23, Type (0, 0), BuildingBlock: EZIPEK_clean_linker_0, # of connection points: 2
#     Edge 24, Type (0, 0), BuildingBlock: EZIPEK_clean_linker_0, # of connection points: 2
#     Edge 25, Type (0, 0), BuildingBlock: EZIPEK_clean_linker_0, # of connection points: 2
#     Edge 26, Type (0, 0), BuildingBlock: EZIPEK_clean_linker_0, # of connection points: 2
#     Edge 27, Type (0, 0), BuildingBlock: EZIPEK_clean_linker_0, # of connection points: 2
#     Edge 28, Type (0, 0), BuildingBlock: EZIPEK_clean_linker_0, # of connection points: 2
#     Edge 29, Type (0, 0), BuildingBlock: EZIPEK_clean_linker_0, # of connection points: 2
#     Edge 30, Type (0, 0), BuildingBlock: EZIPEK_clean_linker_0, # of connection points: 2
#     Edge 31, Type (0, 0), BuildingBlock: EZIPEK_clean_linker_0, # of connection points: 2
#     Edge 32, Type (0, 0), BuildingBlock: EZIPEK_clean_linker_0, # of connection points: 2
#     Edge 33, Type (0, 0), BuildingBlock: EZIPEK_clean_linker_0, # of connection points: 2
#     Edge 34, Type (0, 0), BuildingBlock: EZIPEK_clean_linker_0, # of connection points: 2
#     Edge 35, Type (0, 0), BuildingBlock: EZIPEK_clean_linker_0, # of connection points: 2
#     Edge 36, Type (0, 0), BuildingBlock: EZIPEK_clean_linker_0, # of connection points: 2
#     Edge 37, Type (0, 0), BuildingBlock: EZIPEK_clean_linker_0, # of connection points: 2
#     Edge 38, Type (0, 0), BuildingBlock: EZIPEK_clean_linker_0, # of connection points: 2
#     Edge 39, Type (0, 0), BuildingBlock: EZIPEK_clean_linker_0, # of connection points: 2
#     Edge 40, Type (0, 0), BuildingBlock: EZIPEK_clean_linker_0, # of connection points: 2
#     Edge 41, Type (0, 0), BuildingBlock: EZIPEK_clean_linker_0, # of connection points: 2
#     Edge 42, Type (0, 0), BuildingBlock: EZIPEK_clean_linker_0, # of connection points: 2
#     Edge 43, Type (0, 0), BuildingBlock: EZIPEK_clean_linker_0, # of connection points: 2
#     Edge 44, Type (0, 0), BuildingBlock: EZIPEK_clean_linker_0, # of connection points: 2
#     Edge 45, Type (0, 0), BuildingBlock: EZIPEK_clean_linker_0, # of connection points: 2
#     Edge 46, Type (0, 0), BuildingBlock: EZIPEK_clean_linker_0, # of connection points: 2
#     Edge 47, Type (0, 0), BuildingBlock: EZIPEK_clean_linker_0, # of connection points: 2
#     Edge 48, Type (0, 0), BuildingBlock: EZIPEK_clean_linker_0, # of connection points: 2
#     Edge 49, Type (0, 0), BuildingBlock: EZIPEK_clean_linker_0, # of connection points: 2
#     Edge 50, Type (0, 0), BuildingBlock: EZIPEK_clean_linker_0, # of connection points: 2
#     Edge 51, Type (0, 0), BuildingBlock: EZIPEK_clean_linker_0, # of connection points: 2
#     Edge 52, Type (0, 0), BuildingBlock: EZIPEK_clean_linker_0, # of connection points: 2
#     Edge 53, Type (0, 0), BuildingBlock: EZIPEK_clean_linker_0, # of connection points: 2
#     Edge 54, Type (0, 0), BuildingBlock: EZIPEK_clean_linker_0, # of connection points: 2
#     Edge 55, Type (0, 0), BuildingBlock: EZIPEK_clean_linker_0, # of connection points: 2
#     Edge 56, Type (0, 0), BuildingBlock: EZIPEK_clean_linker_0, # of connection points: 2
#     Edge 57, Type (0, 0), BuildingBlock: EZIPEK_clean_linker_0, # of connection points: 2
#     Edge 58, Type (0, 0), BuildingBlock: EZIPEK_clean_linker_0, # of connection points: 2
#     Edge 59, Type (0, 0), BuildingBlock: EZIPEK_clean_linker_0, # of connection points: 2
#     Edge 60, Type (0, 0), BuildingBlock: EZIPEK_clean_linker_0, # of connection points: 2
#     Edge 61, Type (0, 0), BuildingBlock: EZIPEK_clean_linker_0, # of connection points: 2
#     Edge 62, Type (0, 0), BuildingBlock: EZIPEK_clean_linker_0, # of connection points: 2
#     Edge 63, Type (0, 0), BuildingBlock: EZIPEK_clean_linker_0, # of connection points: 2
#     Edge 64, Type (0, 0), BuildingBlock: EZIPEK_clean_linker_0, # of connection points: 2
#     Edge 65, Type (0, 0), BuildingBlock: EZIPEK_clean_linker_0, # of connection points: 2
#     Edge 66, Type (0, 0), BuildingBlock: EZIPEK_clean_linker_0, # of connection points: 2
#     Edge 67, Type (0, 0), BuildingBlock: EZIPEK_clean_linker_0, # of connection points: 2
#     Edge 68, Type (0, 0), BuildingBlock: EZIPEK_clean_linker_0, # of connection points: 2
#     Edge 69, Type (0, 0), BuildingBlock: EZIPEK_clean_linker_0, # of connection points: 2
#     Edge 70, Type (0, 0), BuildingBlock: EZIPEK_clean_linker_0, # of connection points: 2
#     Edge 71, Type (0, 0), BuildingBlock: EZIPEK_clean_linker_0, # of connection points: 2
# Relax obj value: 0.252
# Max RMSD: 0.338
# Mean RMSD: 0.338
data_MOF--net-smd--node1-PAMTUU_clean_sbu_0--edge1-EZIPEK_clean_linker_0
_symmetry_space_group_name_H-M    P1
_symmetry_Int_Tables_number       1
_symmetry_cell_setting            triclinic
loop_
_symmetry_equiv_pos_as_xyz
'x, y, z'
_cell_length_a     46.903864
_cell_length_b     47.071131
_cell_length_c     20.734968
_cell_angle_alpha  89.799235
_cell_angle_beta   90.010402
_cell_angle_gamma 119.70616
loop_
_atom_site_label
_atom_site_type_symbol
_atom_site_fract_x
_atom_site_fract_y
_atom_site_fract_z
_atom_type_partial_charge
Tb0 Tb 0.05242 0.25392 0.60934 0.0
Tb1 Tb 1.00699 0.23672 0.48367 0.0
C2 C 0.06497 0.30438 0.49445 0.0
C3 C 0.07813 0.2699 0.78022 0.0
C4 C 0.05995 0.26544 0.9113 0.0
C5 C 0.08728 0.26259 0.89321 0.0
C6 C 0.09629 0.26481 0.82815 0.0
C7 C 0.05107 0.27327 0.79849 0.0
C8 C 0.04212 0.27115 0.86355 0.0
C9 C 0.0864 0.26966 0.71145 0.0
O10 O 1.01987 0.27197 0.63374 0.0
O11 O 0.97798 0.24482 0.56115 0.0
O12 O 0.98259 0.19052 0.53372 0.0
O13 O 1.00634 0.20709 0.63377 0.0
O14 O 0.98617 0.25255 0.41181 0.0
O15 O 0.98484 0.20652 0.4033 0.0
O16 O 0.0543 0.23819 0.45706 0.0
O17 O 0.06766 0.22516 0.55383 0.0
O18 O 0.07926 0.29169 0.53083 0.0
O19 O 0.03329 0.28858 0.49539 0.0
C20 C 0.98989 0.26239 0.61497 0.0
O21 O 0.07373 0.24091 0.68494 0.0
O22 O 0.08393 0.29054 0.6737 0.0
C23 C 0.98353 0.18481 0.59527 0.0
C24 C 0.99236 0.23644 0.30716 0.0
C25 C 1.01566 0.24865 0.17851 0.0
C26 C 0.98184 0.23346 0.19163 0.0
C27 C 0.97031 0.22737 0.2554 0.0
C28 C 0.02625 0.2524 0.29424 0.0
C29 C 0.0378 0.25842 0.23042 0.0
C30 C 0.97978 0.22812 0.37402 0.0
C31 C 0.07177 0.22841 0.49161 0.0
H32 H 0.10131 0.25819 0.92939 0.0
H33 H 0.11712 0.26199 0.81513 0.0
H34 H 0.03653 0.27701 0.76245 0.0
H35 H 1.02095 0.27338 0.87657 0.0
H36 H 0.96435 0.22582 0.15239 0.0
H37 H 0.9441 0.21511 0.26427 0.0
H38 H 0.04373 0.25981 0.33346 0.0
H39 H 0.06397 0.27028 0.22146 0.0
Tb40 Tb 0.79761 0.80944 0.6087 0.0
Tb41 Tb 0.81894 0.7857 0.48329 0.0
C42 C 0.74928 0.77483 0.48723 0.0
C43 C 0.78029 0.81502 0.78227 0.0
C44 C 0.78264 0.79797 0.91239 0.0
C45 C 0.76586 0.77353 0.86609 0.0
C46 C 0.76477 0.78195 0.80152 0.0
C47 C 0.79633 0.83935 0.82909 0.0
C48 C 0.79755 0.83093 0.89347 0.0
C49 C 0.7812 0.82476 0.71376 0.0
O50 O 0.77731 0.75823 0.62797 0.0
O51 O 0.81216 0.74998 0.56398 0.0
O52 O 0.8656 0.80924 0.531 0.0
O53 O 0.84611 0.81148 0.6311 0.0
O54 O 0.80804 0.74852 0.41527 0.0
O55 O 0.84992 0.79645 0.4028 0.0
O56 O 0.81772 0.83179 0.45676 0.0
O57 O 0.82205 0.85467 0.55583 0.0
O58 O 0.75966 0.79907 0.53005 0.0
O59 O 0.76662 0.76044 0.48095 0.0
C60 C 0.79187 0.74159 0.61482 0.0
O61 O 0.81026 0.84129 0.68794 0.0
O62 O 0.76047 0.80276 0.67419 0.0
C63 C 0.87004 0.81355 0.59291 0.0
C64 C 0.82127 0.76969 0.30768 0.0
C65 C 0.80393 0.77408 0.17864 0.0
C66 C 0.83572 0.79533 0.20135 0.0
C67 C 0.84433 0.79307 0.265 0.0
C68 C 0.78949 0.7481 0.2846 0.0
C69 C 0.78091 0.75024 0.22062 0.0
C70 C 0.83084 0.7684 0.37563 0.0
C71 C 0.82288 0.8572 0.49319 0.0
H72 H 0.75409 0.74796 0.87978 0.0
H73 H 0.75226 0.76257 0.76664 0.0
H74 H 0.80845 0.86497 0.81559 0.0
H75 H 0.81061 0.85013 0.92844 0.0
H76 H 0.85391 0.81373 0.16966 0.0
H77 H 0.86908 0.80982 0.28099 0.0
H78 H 0.77124 0.72963 0.31597 0.0
H79 H 0.75633 0.73343 0.2039 0.0
Tb80 Tb 0.24642 1.00154 0.60552 0.0
Tb81 Tb 0.27024 0.0472 0.48029 0.0
C82 C 0.28032 0.98788 0.48405 0.0
C83 C 0.23861 0.97701 0.78 0.0
C84 C 0.2505 0.99408 0.91202 0.0
C85 C 0.2756 0.99547 0.87284 0.0
C86 C 0.26965 0.98675 0.8074 0.0
C87 C 0.21344 0.97481 0.82013 0.0
C88 C 0.21933 0.98328 0.88523 0.0
C89 C 0.2318 0.96923 0.71023 0.0
O90 O 0.29831 0.03324 0.62017 0.0
O91 O 0.30343 0.07666 0.56252 0.0
O92 O 0.24365 0.06753 0.52755 0.0
O93 O 0.24216 0.04642 0.62827 0.0
O94 O 0.30824 0.07261 0.4128 0.0
O95 O 0.26097 0.06866 0.39979 0.0
O96 O 0.22464 1.00062 0.45248 0.0
O97 O 0.20142 0.98092 0.55142 0.0
O98 O 0.25575 0.97403 0.52625 0.0
O99 O 0.29532 0.01959 0.48045 0.0
C100 C 0.31302 0.06473 0.61124 0.0
O101 O 0.21334 0.97908 0.68225 0.0
O102 O 0.25618 0.97392 0.67316 0.0
C103 C 0.23891 0.0674 0.58957 0.0
C104 C 0.28696 0.06437 0.30666 0.0
C105 C 0.27156 0.03769 0.17976 0.0
C106 C 0.28491 0.07169 0.19112 0.0
C107 C 0.29146 0.08457 0.25367 0.0
C108 C 0.27891 0.03191 0.29558 0.0
C109 C 0.27272 0.01919 0.23288 0.0
C110 C 0.28906 0.07668 0.37298 0.0
C111 C 0.19925 0.98001 0.48866 0.0
H112 H 0.29982 1.0037 0.89263 0.0
H113 H 0.28952 0.98837 0.77811 0.0
H114 H 0.18918 0.96692 0.80089 0.0
H115 H 0.19961 0.9819 0.9147 0.0
H116 H 0.29009 0.08879 0.15201 0.0
H117 H 0.29943 0.11024 0.26063 0.0
H118 H 0.27698 0.0162 0.33559 0.0
H119 H 0.26916 0.9949 0.22778 0.0
Tb120 Tb 0.05853 0.80645 0.59811 0.0
Tb121 Tb 1.0124 0.78686 0.47308 0.0
C122 C 0.08131 0.85736 0.48678 0.0
C123 C 0.079 0.81174 0.77368 0.0
C124 C 0.05849 0.79811 0.90405 0.0
C125 C 0.05127 0.81869 0.86691 0.0
C126 C 0.06146 0.82554 0.80252 0.0
C127 C 0.08644 0.79132 0.81128 0.0
C128 C 0.07628 0.78455 0.87592 0.0
C129 C 0.08898 0.81798 0.70461 0.0
O130 O 1.01344 0.81001 0.62435 0.0
O131 O 0.99239 0.81209 0.52576 0.0
O132 O 0.98409 0.7513 0.55399 0.0
O133 O 0.02868 0.75405 0.6017 0.0
O134 O 0.99204 0.79979 0.39587 0.0
O135 O 0.98316 0.75055 0.40578 0.0
O136 O 0.04151 0.76392 0.45644 0.0
O137 O 0.08599 0.79834 0.51664 0.0
O138 O 0.08284 0.85246 0.5482 0.0
O139 O 0.05833 0.83446 0.44947 0.0
C140 C 0.99254 0.81472 0.58826 0.0
O141 O 0.08183 0.7926 0.6689 0.0
O142 O 0.08319 0.83879 0.67405 0.0
C143 C 0.99693 0.73987 0.59742 0.0
C144 C 0.99159 0.77296 0.29921 0.0
C145 C 1.01379 0.77844 0.17045 0.0
C146 C 1.01185 0.75354 0.21088 0.0
C147 C 1.00093 0.75085 0.27477 0.0
C148 C 0.99298 0.79741 0.25792 0.0
C149 C 1.00408 0.80019 0.19434 0.0
C150 C 0.98134 0.77166 0.36758 0.0
C151 C 0.07285 0.77763 0.46725 0.0
H152 H 0.03769 0.82948 0.88787 0.0
H153 H 0.05518 0.84131 0.7752 0.0
H154 H 0.09991 0.78039 0.7905 0.0
H155 H 0.0822 0.7687 0.90393 0.0
H156 H 1.01904 0.73639 0.19311 0.0
H157 H 1.00015 0.73167 0.30505 0.0
H158 H 0.98581 0.81468 0.2751 0.0
H159 H 1.00524 0.81945 0.16374 0.0
Tb160 Tb 0.25166 0.26339 0.60504 0.0
Tb161 Tb 0.26978 0.23977 0.47651 0.0
C162 C 0.19796 0.23658 0.49862 0.0
C163 C 0.25471 0.28624 0.77735 0.0
C164 C 0.26712 0.27985 0.90821 0.0
C165 C 0.24205 0.28652 0.89108 0.0
C166 C 0.23597 0.2898 0.8261 0.0
C167 C 0.27997 0.27981 0.79462 0.0
C168 C 0.28627 0.27686 0.85953 0.0
C169 C 0.24751 0.28898 0.70896 0.0
O170 O 0.23504 0.20999 0.6228 0.0
O171 O 0.25404 0.19597 0.53236 0.0
O172 O 0.31394 0.26736 0.54211 0.0
O173 O 0.28729 0.25068 0.63622 0.0
O174 O 0.26481 0.20802 0.40089 0.0
O175 O 0.30818 0.25576 0.40929 0.0
O176 O 0.26174 0.27709 0.43876 0.0
O177 O 0.2771 0.30524 0.53186 0.0
O178 O 0.20642 0.24881 0.55632 0.0
O179 O 0.21773 0.23023 0.46203 0.0
C180 C 0.24003 0.18866 0.58906 0.0
O181 O 0.27278 0.30238 0.6702 0.0
O182 O 0.22291 0.26312 0.68341 0.0
C183 C 0.31452 0.262 0.60505 0.0
C184 C 0.28858 0.23806 0.30467 0.0
C185 C 0.2844 0.25523 0.17608 0.0
C186 C 0.31296 0.25575 0.19814 0.0
C187 C 0.31499 0.24715 0.26203 0.0
C188 C 0.26032 0.23831 0.28286 0.0
C189 C 0.25818 0.24662 0.2189 0.0
C190 C 0.29155 0.23034 0.37253 0.0
C191 C 0.2731 0.30474 0.4678 0.0
H192 H 0.22693 0.28873 0.92799 0.0
H193 H 0.21639 0.29475 0.81385 0.0
H194 H 0.29462 0.27673 0.75799 0.0
H195 H 0.30562 0.27158 0.87178 0.0
H196 H 0.33344 0.2624 0.16571 0.0
H197 H 0.33721 0.24768 0.27823 0.0
H198 H 0.23991 0.23208 0.31525 0.0
H199 H 0.23601 0.24618 0.20265 0.0
Tb200 Tb 0.79012 0.99959 0.59987 0.0
Tb201 Tb 0.81466 0.04501 0.4729 0.0
C202 C 0.81906 0.97669 0.48995 0.0
C203 C 0.77067 0.98449 0.77311 0.0
C204 C 0.77716 1.01035 0.89852 0.0
C205 C 0.76483 0.97668 0.88951 0.0
C206 C 0.76165 0.96386 0.82727 0.0
C207 C 0.78194 0.01803 0.78196 0.0
C208 C 0.78512 0.03085 0.84417 0.0
C209 C 0.77015 0.97142 0.70807 0.0
O210 O 0.83868 0.04374 0.62546 0.0
O211 O 0.85961 0.06725 0.52681 0.0
O212 O 0.80753 0.07423 0.55207 0.0
O213 O 0.76781 0.02976 0.60202 0.0
O214 O 0.84661 0.0651 0.39375 0.0
O215 O 0.80558 0.07313 0.40488 0.0
O216 O 0.76242 1.01453 0.46012 0.0
O217 O 0.75597 0.97073 0.51826 0.0
O218 O 0.81201 0.97482 0.5513 0.0
O219 O 0.81897 0.99978 0.45219 0.0
C220 C 0.86318 0.0657 0.58898 0.0
O221 O 0.75127 0.97438 0.6657 0.0
O222 O 0.7988 0.97967 0.68357 0.0
C223 C 0.78413 0.06144 0.59695 0.0
C224 C 0.82047 0.06824 0.29734 0.0
C225 C 0.80404 0.05366 0.16517 0.0
C226 C 0.8011 0.07879 0.19538 0.0
C227 C 0.80904 0.08582 0.2609 0.0
C228 C 0.82421 0.04371 0.26648 0.0
C229 C 0.81578 0.03632 0.20143 0.0
C230 C 0.82899 0.07621 0.36663 0.0
C231 C 0.74681 0.98305 0.46953 0.0
H232 H 0.75861 0.96049 0.93079 0.0
H233 H 0.75292 0.93797 0.82153 0.0
H234 H 0.78908 0.03442 0.74083 0.0
H235 H 0.79469 0.05688 0.85004 0.0
H236 H 0.79273 0.09297 0.16822 0.0
H237 H 0.80663 0.1053 0.28303 0.0
H238 H 0.83329 0.02989 0.29272 0.0
H239 H 0.8187 0.01714 0.17907 0.0
Tb240 Tb 0.72361 0.58869 0.9343 0.0
Tb241 Tb 0.67759 0.56837 0.8091 0.0
C242 C 0.73861 0.63556 0.80915 0.0
C243 C 0.74564 0.60381 0.10819 0.0
C244 C 0.72456 0.59869 0.23775 0.0
C245 C 0.72427 0.62221 0.19635 0.0
C246 C 0.73471 0.62478 0.13211 0.0
C247 C 0.74664 0.58089 0.15051 0.0
C248 C 0.73617 0.57833 0.21455 0.0
C249 C 0.75517 0.6047 1.03943 0.0
O250 O 0.69334 0.61041 0.95006 0.0
O251 O 0.64919 0.57433 0.89142 0.0
O252 O 0.65583 0.52219 0.85819 0.0
O253 O 0.67775 0.54114 0.95828 0.0
O254 O 0.65241 0.58052 0.73956 0.0
O255 O 0.65474 0.53621 0.73199 0.0
O256 O 0.72344 0.56646 0.78349 0.0
O257 O 0.74266 0.56225 0.88235 0.0
O258 O 0.75151 0.62463 0.8536 0.0
O259 O 0.70691 0.62075 0.80303 0.0
C260 C 0.66181 0.59504 0.94087 0.0
O261 O 0.74442 0.57641 1.0118 0.0
O262 O 0.75275 0.6254 1.00103 0.0
C263 C 0.65605 0.51766 0.92016 0.0
C264 C 0.65772 0.56357 0.63355 0.0
C265 C 0.67898 0.57778 0.5036 0.0
C266 C 0.6721 0.59913 0.53878 0.0
C267 C 0.66151 0.59208 0.60316 0.0
C268 C 0.66399 0.54198 0.59734 0.0
C269 C 0.67454 0.54905 0.5332 0.0
C270 C 0.64737 0.55617 0.70243 0.0
C271 C 0.74342 0.56063 0.81977 0.0
H272 H 0.7157 0.63837 0.21364 0.0
H273 H 0.73369 0.6428 0.10106 0.0
H274 H 0.75515 0.56459 0.13375 0.0
H275 H 0.73677 0.56017 0.24591 0.0
H276 H 0.6751 0.62131 0.51652 0.0
H277 H 0.65662 0.6091 0.62927 0.0
H278 H 0.66092 0.51959 0.61866 0.0
H279 H 0.67941 0.53212 0.50663 0.0
Tb280 Tb 0.46109 0.14255 0.93757 0.0
Tb281 Tb 0.48065 0.11665 0.80976 0.0
C282 C 0.41487 0.11448 0.81092 0.0
C283 C 0.443 0.14489 0.11115 0.0
C284 C 0.44136 0.12459 0.24042 0.0
C285 C 0.41503 0.12733 0.21506 0.0
C286 C 0.41584 0.13735 0.15088 0.0
C287 C 0.46904 0.14159 0.13653 0.0
C288 C 0.46817 0.13146 0.20043 0.0
C289 C 0.44393 0.15607 0.04369 0.0
O290 O 0.44005 0.09107 0.95509 0.0
O291 O 0.47357 0.08135 0.89044 0.0
O292 O 0.52659 0.13563 0.85996 0.0
O293 O 0.51034 0.14635 0.95766 0.0
O294 O 0.46765 0.07795 0.74445 0.0
O295 O 0.50992 0.12514 0.72715 0.0
O296 O 0.48704 0.16673 0.78663 0.0
O297 O 0.48512 0.18775 0.88562 0.0
O298 O 0.42623 0.13733 0.85664 0.0
O299 O 0.42834 0.09633 0.8043 0.0
C300 C 0.45433 0.07416 0.94233 0.0
O301 O 0.47287 0.17355 1.0177 0.0
O302 O 0.42343 0.1343 1.0035 0.0
C303 C 0.53247 0.1442 0.92044 0.0
C304 C 0.48007 0.09582 0.63468 0.0
C305 C 0.46166 0.09908 0.50582 0.0
C306 C 0.49456 0.11752 0.5253 0.0
C307 C 0.50364 0.11594 0.58892 0.0
C308 C 0.44729 0.0761 0.61438 0.0
C309 C 0.43812 0.07802 0.55069 0.0
C310 C 0.4902 0.09642 0.70298 0.0
C311 C 0.4899 0.19124 0.82349 0.0
H312 H 0.39416 0.12222 0.24522 0.0
H313 H 0.3954 0.13956 0.13245 0.0
H314 H 0.4903 0.14718 0.10721 0.0
H315 H 0.48875 0.12959 0.21914 0.0
H316 H 0.51314 0.13384 0.4915 0.0
H317 H 0.52911 0.13101 0.60272 0.0
H318 H 0.42849 0.06012 0.64815 0.0
H319 H 0.41258 0.06363 0.5368 0.0
Tb320 Tb 0.91459 0.33326 0.9434 0.0
Tb321 Tb 0.93771 0.3756 0.81493 0.0
C322 C 0.93668 0.31158 0.81349 0.0
C323 C 0.91466 0.31445 0.11659 0.0
C324 C 0.93122 0.33588 0.24494 0.0
C325 C 0.9304 0.30708 0.22454 0.0
C326 C 0.92219 0.29645 0.16075 0.0
C327 C 0.91618 0.34365 0.1367 0.0
C328 C 0.92423 0.35418 0.20054 0.0
C329 C 0.90724 0.30358 0.04899 0.0
O330 O 0.95095 0.38062 0.976 0.0
O331 O 0.97992 0.38982 0.88484 0.0
O332 O 0.92519 0.40619 0.87081 0.0
O333 O 0.89619 0.36921 0.95186 0.0
O334 O 0.97685 0.39488 0.74933 0.0
O335 O 0.93602 0.40359 0.73696 0.0
O336 O 0.88381 0.33934 0.80072 0.0
O337 O 0.87268 0.30291 0.88486 0.0
O338 O 0.94174 0.3166 0.87661 0.0
O339 O 0.9259 0.32808 0.78252 0.0
C340 C 0.97907 0.39543 0.94749 0.0
O341 O 0.88384 0.30644 1.02074 0.0
O342 O 0.9329 0.31352 1.01187 0.0
C343 C 0.90597 0.39763 0.92129 0.0
C344 C 0.96006 0.39602 0.64278 0.0
C345 C 0.95465 0.37721 0.51242 0.0
C346 C 0.96412 0.40964 0.52861 0.0
C347 C 0.96682 0.41898 0.59341 0.0
C348 C 0.95114 0.36369 0.62641 0.0
C349 C 0.94848 0.35437 0.56174 0.0
C350 C 0.96249 0.40595 0.71093 0.0
C351 C 0.86399 0.31116 0.83117 0.0
H352 H 0.93575 0.29268 0.25819 0.0
H353 H 0.92172 0.27418 0.14585 0.0
H354 H 0.91111 0.35826 0.10308 0.0
H355 H 0.92478 0.37647 0.21551 0.0
H356 H 0.96885 0.42752 0.4911 0.0
H357 H 0.97388 0.44404 0.60499 0.0
H358 H 0.94598 0.34556 0.66352 0.0
H359 H 0.94108 0.32923 0.55011 0.0
Tb360 Tb 0.72283 0.14122 0.93972 0.0
Tb361 Tb 0.6772 0.12095 0.81437 0.0
C362 C 0.74424 0.19178 0.82732 0.0
C363 C 0.74515 0.14515 0.1149 0.0
C364 C 0.72525 0.12962 0.24553 0.0
C365 C 0.73383 0.16053 0.22012 0.0
C366 C 0.74361 0.16819 0.15568 0.0
C367 C 0.73798 0.11463 0.14121 0.0
C368 C 0.72784 0.10685 0.20574 0.0
C369 C 0.75398 0.15332 0.04554 0.0
O370 O 0.6777 0.14533 0.96384 0.0
O371 O 0.65766 0.14753 0.86413 0.0
O372 O 0.64737 0.08708 0.89614 0.0
O373 O 0.69042 0.0893 0.95009 0.0
O374 O 0.65659 0.13155 0.73433 0.0
O375 O 0.64968 0.08322 0.74802 0.0
O376 O 0.70582 0.09704 0.80569 0.0
O377 O 0.75108 0.13325 0.85944 0.0
O378 O 0.7443 0.18719 0.88942 0.0
O379 O 0.72315 0.16793 0.78903 0.0
C380 C 0.65734 0.15042 0.9266 0.0
O381 O 0.74941 0.12966 1.00686 0.0
O382 O 0.74487 0.17256 1.01854 0.0
C383 C 0.65883 0.07602 0.94312 0.0
C384 C 0.6589 0.10382 0.64119 0.0
C385 C 0.67997 0.10634 0.5124 0.0
C386 C 0.64996 0.08004 0.53376 0.0
C387 C 0.63945 0.07889 0.59759 0.0
C388 C 0.68955 0.12936 0.62044 0.0
C389 C 0.69986 0.1307 0.5566 0.0
C390 C 0.64719 0.1032 0.70786 0.0
C391 C 0.73748 0.11103 0.8129 0.0
H392 H 0.73231 0.17858 0.25 0.0
H393 H 0.74954 0.1921 0.13748 0.0
H394 H 0.73932 0.09642 0.11159 0.0
H395 H 0.72151 0.0829 0.22435 0.0
H396 H 0.63434 0.06087 0.50058 0.0
H397 H 0.61595 0.05877 0.61268 0.0
H398 H 0.70533 0.14862 0.65331 0.0
H399 H 0.72315 0.15108 0.54132 0.0
Tb400 Tb 0.91996 0.59217 0.93145 0.0
Tb401 Tb 0.93912 0.5674 0.80323 0.0
C402 C 0.86765 0.56599 0.82328 0.0
C403 C 0.92433 0.61367 0.10469 0.0
C404 C 0.93698 0.60553 0.23468 0.0
C405 C 0.91803 0.62019 0.21938 0.0
C406 C 0.91178 0.62424 0.15483 0.0
C407 C 0.94373 0.59946 0.1201 0.0
C408 C 0.95003 0.59546 0.18454 0.0
C409 C 0.91713 0.61754 1.03679 0.0
O410 O 0.89978 0.53815 0.94719 0.0
O411 O 0.92367 0.525 0.86355 0.0
O412 O 0.98319 0.59477 0.86874 0.0
O413 O 0.95505 0.57834 0.96125 0.0
O414 O 0.93075 0.53369 0.72924 0.0
O415 O 0.97689 0.57886 0.7362 0.0
O416 O 0.93746 0.60765 0.76221 0.0
O417 O 0.94206 0.63381 0.85721 0.0
O418 O 0.87557 0.57861 0.88083 0.0
O419 O 0.8875 0.5591 0.78818 0.0
C420 C 0.90658 0.51719 0.91692 0.0
O421 O 0.94237 0.6305 0.99791 0.0
O422 O 0.89192 0.59246 1.01059 0.0
C423 C 0.98276 0.5897 0.93191 0.0
C424 C 0.95582 0.56168 0.632 0.0
C425 C 0.95264 0.57887 0.50267 0.0
C426 C 0.97738 0.57217 0.52235 0.0
C427 C 0.97894 0.56362 0.5866 0.0
C428 C 0.93146 0.569 0.61246 0.0
C429 C 0.92981 0.57739 0.54825 0.0
C430 C 0.95826 0.55377 0.70014 0.0
C431 C 0.94302 0.63381 0.79243 0.0
H432 H 0.90767 0.62801 0.25743 0.0
H433 H 0.89688 0.63537 0.14407 0.0
H434 H 0.95382 0.59121 0.08244 0.0
H435 H 0.96466 0.58405 0.19536 0.0
H436 H 0.99521 0.57322 0.48783 0.0
H437 H 0.99818 0.55852 0.60085 0.0
H438 H 0.91367 0.56818 0.64683 0.0
H439 H 0.9106 0.58254 0.53398 0.0
Tb440 Tb 0.46117 0.33351 0.93284 0.0
Tb441 Tb 0.48438 0.37875 0.80539 0.0
C442 C 0.4904 0.31188 0.82137 0.0
C443 C 0.44031 0.31454 0.10635 0.0
C444 C 0.4426 0.3359 0.23435 0.0
C445 C 0.43589 0.30385 0.22189 0.0
C446 C 0.43474 0.29327 0.15838 0.0
C447 C 0.44609 0.34633 0.11864 0.0
C448 C 0.4471 0.35689 0.18219 0.0
C449 C 0.44163 0.30389 0.03999 0.0
O450 O 0.51043 0.37737 0.95559 0.0
O451 O 0.53009 0.40091 0.85609 0.0
O452 O 0.47933 0.40894 0.88466 0.0
O453 O 0.4407 0.36514 0.9388 0.0
O454 O 0.51423 0.39825 0.72335 0.0
O455 O 0.47307 0.40573 0.73885 0.0
O456 O 0.43209 0.34897 0.79799 0.0
O457 O 0.42534 0.3047 0.85379 0.0
O458 O 0.48375 0.31012 0.88285 0.0
O459 O 0.48852 0.33385 0.7832 0.0
C460 C 0.53456 0.39893 0.91772 0.0
O461 O 0.42248 0.30658 0.99791 0.0
O462 O 0.47089 0.31428 1.01642 0.0
C463 C 0.45694 0.39673 0.93137 0.0
C464 C 0.48352 0.39679 0.63132 0.0
C465 C 0.46442 0.37725 0.50244 0.0
C466 C 0.46752 0.40671 0.52538 0.0
C467 C 0.47713 0.41646 0.5893 0.0
C468 C 0.479 0.36665 0.60896 0.0
C469 C 0.46975 0.35709 0.54498 0.0
C470 C 0.49512 0.40799 0.69784 0.0
C471 C 0.41569 0.31749 0.80705 0.0
H472 H 0.43247 0.28735 0.26143 0.0
H473 H 0.43026 0.26869 0.14993 0.0
H474 H 0.45058 0.3632 0.07919 0.0
H475 H 0.45239 0.38173 0.19077 0.0
H476 H 0.46346 0.42257 0.49329 0.0
H477 H 0.48008 0.4396 0.60565 0.0
H478 H 0.48322 0.35074 0.64058 0.0
H479 H 0.4674 0.33426 0.52823 0.0
Tb480 Tb 0.38036 0.92367 0.26547 0.0
Tb481 Tb 0.33671 0.90518 0.13765 0.0
C482 C 0.39922 0.97078 0.13967 0.0
C483 C 0.39852 0.94338 0.43927 0.0
C484 C 0.37933 0.95148 0.56605 0.0
C485 C 0.41045 0.95441 0.55341 0.0
C486 C 0.42009 0.95124 0.49113 0.0
C487 C 0.36669 0.93761 0.45107 0.0
C488 C 0.35698 0.94076 0.51348 0.0
C489 C 0.40888 0.93948 0.37404 0.0
O490 O 0.35415 0.94986 0.27269 0.0
O491 O 0.30889 0.91318 0.21952 0.0
O492 O 0.31273 0.85801 0.18297 0.0
O493 O 0.33311 0.87595 0.28449 0.0
O494 O 0.31733 0.87627 0.05468 0.0
O495 O 0.31034 0.91738 0.07101 0.0
O496 O 0.3823 0.90123 0.11606 0.0
O497 O 0.40233 0.89949 0.21619 0.0
O498 O 0.41068 0.95897 0.18538 0.0
O499 O 0.36772 0.95727 0.1323 0.0
C500 C 0.3226 0.93539 0.2662 0.0
O501 O 0.39436 0.90987 0.3512 0.0
O502 O 0.41097 0.96046 0.33059 0.0
C503 C 0.31218 0.85259 0.24463 0.0
C504 C 0.31664 0.90558 0.96102 0.0
C505 C 0.33487 0.92511 0.83066 0.0
C506 C 0.32632 0.94343 0.87174 0.0
C507 C 0.31733 0.93381 0.93615 0.0
C508 C 0.32419 0.88674 0.91898 0.0
C509 C 0.33324 0.89642 0.85468 0.0
C510 C 0.30741 0.89528 1.02972 0.0
C511 C 0.40299 0.89686 0.15379 0.0
H512 H 0.42761 0.9581 0.59146 0.0
H513 H 0.44432 0.95428 0.48378 0.0
H514 H 0.34901 0.9299 0.41216 0.0
H515 H 0.33143 0.93337 0.51933 0.0
H516 H 0.32728 0.96561 0.85425 0.0
H517 H 0.3113 0.94873 0.96664 0.0
H518 H 0.32342 0.86458 0.93592 0.0
H519 H 0.33953 0.88179 0.82387 0.0
Tb520 Tb 0.12805 0.46781 0.27317 0.0
Tb521 Tb 0.14622 0.44152 0.14642 0.0
C522 C 0.07911 0.43781 0.15165 0.0
C523 C 0.11191 0.46887 0.44762 0.0
C524 C 0.11084 0.44753 0.57565 0.0
C525 C 0.08379 0.44911 0.55075 0.0
C526 C 0.0844 0.45983 0.4873 0.0
C527 C 0.13834 0.46589 0.4719 0.0
C528 C 0.13788 0.45554 0.53546 0.0
C529 C 0.11264 0.48111 0.38126 0.0
O530 O 0.10375 0.41597 0.28598 0.0
O531 O 0.13931 0.40671 0.22879 0.0
O532 O 0.19321 0.46182 0.19247 0.0
O533 O 0.17677 0.4697 0.29218 0.0
O534 O 0.1325 0.40198 0.08316 0.0
O535 O 0.17422 0.44907 0.06231 0.0
O536 O 0.15121 0.49081 0.12059 0.0
O537 O 0.15045 0.51255 0.21933 0.0
O538 O 0.09085 0.46115 0.19635 0.0
O539 O 0.09406 0.42114 0.14262 0.0
C540 C 0.11865 0.39931 0.27827 0.0
O541 O 0.1414 0.49833 0.35439 0.0
O542 O 0.0914 0.46014 0.34102 0.0
C543 C 0.19916 0.46873 0.25349 0.0
C544 C 0.14304 0.41826 0.97347 0.0
C545 C 0.12565 0.42126 0.84423 0.0
C546 C 0.1525 0.41688 0.8584 0.0
C547 C 0.16109 0.41537 0.92249 0.0
C548 C 0.11545 0.42153 0.95946 0.0
C549 C 0.10675 0.42289 0.89525 0.0
C550 C 0.15455 0.41986 0.04041 0.0
C551 C 0.15463 0.51576 0.15695 0.0
H552 H 0.06267 0.44296 0.58102 0.0
H553 H 0.06355 0.46147 0.46945 0.0
H554 H 0.15962 0.47203 0.44213 0.0
H555 H 0.1589 0.45433 0.55373 0.0
H556 H 0.16744 0.41571 0.8198 0.0
H557 H 0.18245 0.41289 0.93226 0.0
H558 H 0.10121 0.4239 0.99806 0.0
H559 H 0.08601 0.42639 0.88532 0.0
Tb560 Tb 0.58617 0.66932 0.26799 0.0
Tb561 Tb 0.60913 0.71247 0.14172 0.0
C562 C 0.6118 0.64909 0.13762 0.0
C563 C 0.58578 0.65342 0.443 0.0
C564 C 0.60613 0.67725 0.56926 0.0
C565 C 0.58158 0.64467 0.55919 0.0
C566 C 0.57147 0.63287 0.49653 0.0
C567 C 0.61111 0.68575 0.45291 0.0
C568 C 0.62123 0.69757 0.5156 0.0
C569 C 0.57298 0.64163 0.37754 0.0
O570 O 0.63835 0.69425 0.27462 0.0
O571 O 0.64605 0.73932 0.22256 0.0
O572 O 0.57659 0.72627 0.18667 0.0
O573 O 0.59016 0.71885 0.28678 0.0
O574 O 0.64701 0.74015 0.07488 0.0
O575 O 0.59958 0.73596 0.06511 0.0
O576 O 0.5608 0.66697 0.11838 0.0
O577 O 0.53978 0.6485 0.21937 0.0
O578 O 0.59134 0.63852 0.18853 0.0
O579 O 0.62775 0.68002 0.12416 0.0
C580 C 0.65531 0.72573 0.26841 0.0
O581 O 0.55669 0.65444 0.35131 0.0
O582 O 0.5934 0.64039 0.33662 0.0
C583 C 0.58069 0.73481 0.24676 0.0
C584 C 0.62684 0.73602 0.9683 0.0
C585 C 0.62583 0.71936 0.83678 0.0
C586 C 0.6547 0.74435 0.86464 0.0
C587 C 0.65518 0.75252 0.92987 0.0
C588 C 0.59802 0.71102 0.94016 0.0
C589 C 0.59758 0.70275 0.87521 0.0
C590 C 0.62765 0.74502 1.03723 0.0
C591 C 0.53602 0.64708 0.15697 0.0
H592 H 0.56958 0.62868 0.59994 0.0
H593 H 0.5519 0.6079 0.48994 0.0
H594 H 0.62245 0.70205 0.41226 0.0
H595 H 0.64016 0.7228 0.52233 0.0
H596 H 0.67671 0.75767 0.83576 0.0
H597 H 0.67763 0.77193 0.95024 0.0
H598 H 0.57574 0.69778 0.96829 0.0
H599 H 0.57501 0.68353 0.85465 0.0
Tb600 Tb 0.39516 0.47747 0.26843 0.0
Tb601 Tb 0.34992 0.455 0.14248 0.0
C602 C 0.41474 0.52706 0.15552 0.0
C603 C 0.41506 0.47885 0.44206 0.0
C604 C 0.39432 0.46053 0.571 0.0
C605 C 0.42698 0.48411 0.55711 0.0
C606 C 0.43725 0.4932 0.49314 0.0
C607 C 0.38263 0.45452 0.45574 0.0
C608 C 0.37235 0.4454 0.51972 0.0
C609 C 0.42541 0.49049 0.37523 0.0
O610 O 0.34698 0.47454 0.294 0.0
O611 O 0.32889 0.47974 0.19454 0.0
O612 O 0.32247 0.41779 0.22095 0.0
O613 O 0.3673 0.42526 0.27477 0.0
O614 O 0.3292 0.46522 0.062 0.0
O615 O 0.32304 0.41722 0.07586 0.0
O616 O 0.38074 0.43379 0.13376 0.0
O617 O 0.42497 0.47091 0.18972 0.0
O618 O 0.41359 0.52331 0.21806 0.0
O619 O 0.39556 0.50209 0.11753 0.0
C620 C 0.32688 0.48005 0.25725 0.0
O621 O 0.42435 0.46904 0.33442 0.0
O622 O 0.41316 0.50752 0.35027 0.0
C623 C 0.33594 0.40738 0.26502 0.0
C624 C 0.33185 0.43753 0.96886 0.0
C625 C 0.35259 0.43989 0.83989 0.0
C626 C 0.32271 0.41355 0.86152 0.0
C627 C 0.3124 0.41244 0.9255 0.0
C628 C 0.36237 0.46315 0.94773 0.0
C629 C 0.37252 0.46441 0.88374 0.0
C630 C 0.32018 0.43693 1.03561 0.0
C631 C 0.41225 0.44844 0.14342 0.0
H632 H 0.44426 0.49615 0.59593 0.0
H633 H 0.46235 0.512 0.48363 0.0
H634 H 0.36508 0.44316 0.41704 0.0
H635 H 0.34704 0.42723 0.52937 0.0
H636 H 0.307 0.39439 0.82841 0.0
H637 H 0.28898 0.39226 0.94085 0.0
H638 H 0.37813 0.48254 0.98038 0.0
H639 H 0.39566 0.48487 0.86804 0.0
Tb640 Tb 0.57621 0.92576 0.26817 0.0
Tb641 Tb 0.59906 0.90613 0.14011 0.0
C642 C 0.52666 0.89963 0.15601 0.0
C643 C 0.57396 0.94317 0.44185 0.0
C644 C 0.59616 0.94322 0.56859 0.0
C645 C 0.56256 0.93025 0.55604 0.0
C646 C 0.55158 0.93029 0.49325 0.0
C647 C 0.60773 0.95679 0.4547 0.0
C648 C 0.61872 0.95699 0.51767 0.0
C649 C 0.56151 0.9407 0.37523 0.0
O650 O 0.57904 0.87959 0.28527 0.0
O651 O 0.56592 0.85991 0.18497 0.0
O652 O 0.63542 0.91214 0.2198 0.0
O653 O 0.62783 0.94608 0.28672 0.0
O654 O 0.58785 0.87541 0.05946 0.0
O655 O 0.63664 0.91538 0.07303 0.0
O656 O 0.62148 0.95812 0.13101 0.0
O657 O 0.58319 0.96267 0.18939 0.0
O658 O 0.52998 0.89926 0.21847 0.0
O659 O 0.55201 0.90639 0.11744 0.0
C660 C 0.57126 0.85517 0.24427 0.0
O661 O 0.58141 0.96213 0.33336 0.0
O662 O 0.5462 0.91135 0.35092 0.0
C663 C 0.64423 0.93144 0.27165 0.0
C664 C 0.61729 0.90341 0.96469 0.0
C665 C 0.61887 0.92194 0.83398 0.0
C666 C 0.64805 0.93447 0.8698 0.0
C667 C 0.64725 0.92533 0.93462 0.0
C668 C 0.58822 0.89083 0.92826 0.0
C669 C 0.58903 0.90009 0.8638 0.0
C670 C 0.61654 0.89325 1.0331 0.0
C671 C 0.60522 0.97322 0.14148 0.0
H672 H 0.54479 0.91941 0.59469 0.0
H673 H 0.52548 0.91959 0.48457 0.0
H674 H 0.62559 0.96679 0.41604 0.0
H675 H 0.64474 0.96737 0.52657 0.0
H676 H 0.67138 0.95115 0.8475 0.0
H677 H 0.67009 0.93525 0.96111 0.0
H678 H 0.56471 0.87379 0.94942 0.0
H679 H 0.5663 0.88997 0.83687 0.0
Tb680 Tb 0.12472 0.65745 0.26852 0.0
Tb681 Tb 0.14771 0.70241 0.14208 0.0
C682 C 0.15329 0.63555 0.15545 0.0
C683 C 0.10641 0.63586 0.44374 0.0
C684 C 0.10809 0.65556 0.57339 0.0
C685 C 0.12936 0.64455 0.55215 0.0
C686 C 0.1285 0.6348 0.48817 0.0
C687 C 0.08423 0.64578 0.46564 0.0
C688 C 0.08516 0.65565 0.52982 0.0
C689 C 0.10731 0.62695 0.3752 0.0
O690 O 0.17267 0.70382 0.29094 0.0
O691 O 0.19411 0.72384 0.19095 0.0
O692 O 0.1411 0.7311 0.22309 0.0
O693 O 0.10219 0.68742 0.27861 0.0
O694 O 0.17781 0.72266 0.06055 0.0
O695 O 0.13626 0.72944 0.0759 0.0
O696 O 0.09554 0.67351 0.13491 0.0
O697 O 0.08877 0.62892 0.18889 0.0
O698 O 0.14837 0.63509 0.21756 0.0
O699 O 0.15044 0.65698 0.11749 0.0
C700 C 0.19753 0.72456 0.25336 0.0
O701 O 0.08712 0.62908 0.33489 0.0
O702 O 0.13633 0.63816 0.34962 0.0
C703 C 0.11866 0.71891 0.27025 0.0
C704 C 0.14697 0.72056 0.96852 0.0
C705 C 0.12827 0.70006 0.83979 0.0
C706 C 0.13355 0.73074 0.86041 0.0
C707 C 0.14295 0.74094 0.92422 0.0
C708 C 0.14022 0.68929 0.94859 0.0
C709 C 0.13114 0.67923 0.88475 0.0
C710 C 0.15847 0.73207 1.03495 0.0
C711 C 0.07919 0.64201 0.14253 0.0
H712 H 0.14714 0.64414 0.58495 0.0
H713 H 0.14557 0.62688 0.47311 0.0
H714 H 0.06667 0.64668 0.43297 0.0
H715 H 0.06846 0.66396 0.54517 0.0
H716 H 0.13129 0.74711 0.82661 0.0
H717 H 0.1476 0.76496 0.93868 0.0
H718 H 0.14258 0.67286 0.98205 0.0
H719 H 0.12702 0.65542 0.87003 0.0
C720 C 0.12919 0.37553 0.38291 0.0
C721 C 0.1095 0.37178 0.32719 0.0
C722 C 0.06179 0.33356 0.39167 0.0
C723 C 0.08165 0.33087 0.44145 0.0
N724 N 0.1369 0.35263 0.48236 0.0
N725 N 0.05658 0.34088 0.27772 0.0
C726 C 0.11627 0.35233 0.43572 0.0
C727 C 0.07591 0.34791 0.33103 0.0
N728 N 0.15898 0.40305 0.38915 0.0
N729 N 0.03047 0.32688 0.40413 0.0
H730 H 0.06619 0.35154 0.23296 0.0
H731 H 0.03208 0.3223 0.27734 0.0
H732 H 1.02161 0.32533 0.45084 0.0
H733 H 1.01585 0.32963 0.36956 0.0
H734 H 0.17293 0.40908 0.43118 0.0
H735 H 0.16798 0.42154 0.35482 0.0
H736 H 0.16231 0.36458 0.4763 0.0
H737 H 0.12878 0.34049 0.52625 0.0
C738 C 0.70974 0.73231 0.40932 0.0
C739 C 0.72051 0.76329 0.43877 0.0
C740 C 0.68606 0.77138 0.35614 0.0
C741 C 0.6819 0.74355 0.3201 0.0
N742 N 0.69981 0.70377 0.30836 0.0
N743 N 0.71599 0.81222 0.43929 0.0
C744 C 0.69716 0.72629 0.34542 0.0
C745 C 0.70789 0.78293 0.41181 0.0
N746 N 0.70998 0.70761 0.44365 0.0
N747 N 0.66814 0.78593 0.33974 0.0
H748 H 0.72904 0.82014 0.48217 0.0
H749 H 0.7107 0.82921 0.4183 0.0
H750 H 0.6527 0.77891 0.29994 0.0
H751 H 0.66678 0.80343 0.3681 0.0
H752 H 0.7003 0.68394 0.42559 0.0
H753 H 0.71557 0.70974 0.49278 0.0
H754 H 0.71201 0.69156 0.32407 0.0
H755 H 0.69329 0.70032 0.25969 0.0
C756 C 0.3172 0.99037 0.39093 0.0
C757 C 0.29022 0.9704 0.43269 0.0
C758 C 0.28349 0.92373 0.36471 0.0
C759 C 0.30499 0.94539 0.31592 0.0
N760 N 0.33615 1.00144 0.28061 0.0
N761 N 0.24704 0.91487 0.45535 0.0
C762 C 0.31915 0.97932 0.32813 0.0
C763 C 0.27277 0.93613 0.41795 0.0
N764 N 0.34315 0.01872 0.41295 0.0
N765 N 0.27584 0.89181 0.36445 0.0
H766 H 0.24049 0.92138 0.49831 0.0
H767 H 0.23137 0.8907 0.44181 0.0
H768 H 0.28584 0.88296 0.33081 0.0
H769 H 0.26308 0.87546 0.40168 0.0
H770 H 0.36391 0.03297 0.38482 0.0
H771 H 0.34636 0.02485 0.46175 0.0
H772 H 0.34532 0.02649 0.28664 0.0
H773 H 0.33786 0.9943 0.23379 0.0
C774 C 0.37225 0.10489 0.64451 0.0
C775 C 0.33874 0.08545 0.66179 0.0
C776 C 0.35557 0.09575 0.77782 0.0
C777 C 0.3891 0.10991 0.76043 0.0
N778 N 0.42926 0.12663 0.67473 0.0
N779 N 0.29853 0.0616 0.74748 0.0
C780 C 0.39734 0.11443 0.693 0.0
C781 C 0.33048 0.08103 0.72926 0.0
N782 N 0.38027 0.11345 0.58131 0.0
N783 N 0.34758 0.09578 0.84119 0.0
H784 H 0.27927 0.05095 0.7149 0.0
H785 H 0.29103 0.05461 0.79485 0.0
H786 H 0.36517 0.10532 0.87759 0.0
H787 H 0.32407 0.0892 0.85718 0.0
H788 H 0.40367 0.13057 0.56561 0.0
H789 H 0.36284 0.1057 0.54467 0.0
H790 H 0.43715 0.12921 0.62718 0.0
H791 H 0.44817 0.13287 0.70737 0.0
C792 C 0.92949 0.26457 0.74142 0.0
C793 C 0.95067 0.29544 0.77065 0.0
C794 C 0.99038 0.30694 0.68256 0.0
C795 C 0.9718 0.27446 0.65838 0.0
N796 N 0.92213 0.22239 0.66403 0.0
N797 N 1.00368 0.34394 0.77303 0.0
C798 C 0.94076 0.25328 0.68747 0.0
C799 C 0.98189 0.31579 0.74245 0.0
N800 N 0.89833 0.24629 0.76493 0.0
N801 N 1.0155 0.33005 0.6461 0.0
H802 H 0.99845 0.35089 0.81721 0.0
H803 H 0.02788 0.35858 0.75797 0.0
H804 H 1.02123 0.32492 0.60051 0.0
H805 H 0.02778 0.35487 0.65729 0.0
H806 H 0.88005 0.22543 0.74265 0.0
H807 H 0.89033 0.25302 0.80611 0.0
H808 H 0.90061 0.20458 0.68563 0.0
H809 H 0.9288 0.2141 0.62338 0.0
C810 C 0.7926 0.72091 0.7296 0.0
C811 C 0.78489 0.71388 0.66233 0.0
C812 C 0.75253 0.65511 0.69152 0.0
C813 C 0.75842 0.66226 0.75908 0.0
N814 N 0.78281 0.70257 0.84205 0.0
N815 N 0.75444 0.67418 0.58122 0.0
C816 C 0.77869 0.69532 0.77773 0.0
C817 C 0.76452 0.68085 0.64394 0.0
N818 N 0.81316 0.75246 0.74786 0.0
N819 N 0.73557 0.62328 0.67221 0.0
H820 H 0.76357 0.69181 0.54476 0.0
H821 H 0.73543 0.6518 0.56579 0.0
H822 H 0.72465 0.60376 0.70413 0.0
H823 H 0.73429 0.61587 0.6247 0.0
H824 H 0.82361 0.75933 0.79336 0.0
H825 H 0.82152 0.77206 0.71614 0.0
H826 H 0.79379 0.72611 0.8606 0.0
H827 H 0.77362 0.6847 0.87804 0.0
C828 C 0.95171 0.68242 0.635 0.0
C829 C 0.97753 0.71428 0.64954 0.0
C830 C 0.97951 0.69461 0.76042 0.0
C831 C 0.95207 0.66332 0.74809 0.0
N832 N 0.90735 0.63084 0.67439 0.0
N833 N 1.00777 0.75213 0.73473 0.0
C834 C 0.93669 0.65842 0.6857 0.0
C835 C 0.98871 0.72069 0.71486 0.0
N836 N 0.94259 0.67418 0.57227 0.0
N837 N 0.99889 0.69933 0.81292 0.0
H838 H 1.01466 0.77211 0.70441 0.0
H839 H 1.01316 0.75814 0.78314 0.0
H840 H 0.99402 0.68138 0.84733 0.0
H841 H 1.02173 0.72028 0.81852 0.0
H842 H 0.92706 0.65022 0.55738 0.0
H843 H 0.95272 0.69087 0.53436 0.0
H844 H 0.8935 0.62757 0.63297 0.0
H845 H 0.89515 0.61257 0.70868 0.0
C846 C 0.35691 0.25714 0.67525 0.0
C847 C 0.34487 0.27698 0.64765 0.0
C848 C 0.37025 0.31543 0.73805 0.0
C849 C 0.38672 0.29873 0.76074 0.0
N850 N 0.39415 0.25175 0.75019 0.0
N851 N 0.34556 0.3283 0.64824 0.0
C852 C 0.37951 0.26889 0.72921 0.0
C853 C 0.35363 0.30725 0.67749 0.0
N854 N 0.3462 0.2267 0.65027 0.0
N855 N 0.36855 0.33794 0.77686 0.0
H856 H 0.33354 0.32303 0.60398 0.0
H857 H 0.35351 0.35194 0.66473 0.0
H858 H 0.37786 0.34253 0.82369 0.0
H859 H 0.3542 0.34856 0.76609 0.0
H860 H 0.35042 0.20906 0.67146 0.0
H861 H 0.33151 0.21854 0.60911 0.0
H862 H 0.3924 0.23154 0.7264 0.0
H863 H 0.40905 0.25823 0.79077 0.0
C864 C 0.73575 0.06867 0.73602 0.0
C865 C 0.75511 0.1001 0.76405 0.0
C866 C 0.79706 0.10972 0.67853 0.0
C867 C 0.77459 0.07993 0.64636 0.0
N868 N 0.71716 0.03979 0.63567 0.0
N869 N 0.80585 0.15153 0.7586 0.0
C870 C 0.74233 0.06234 0.67242 0.0
C871 C 0.78636 0.12099 0.73432 0.0
N872 N 0.71128 0.04399 0.77095 0.0
N873 N 0.82856 0.12724 0.65668 0.0
H874 H 0.80005 0.15981 0.80029 0.0
H875 H 0.82717 0.16922 0.73619 0.0
H876 H 0.83671 0.12107 0.61526 0.0
H877 H 0.84711 0.1471 0.68097 0.0
H878 H 0.69797 0.02012 0.75359 0.0
H879 H 0.7075 0.04651 0.81974 0.0
H880 H 0.69288 0.02778 0.65172 0.0
H881 H 0.72006 0.03649 0.58682 0.0
C882 C 0.70495 0.95817 0.30238 0.0
C883 C 0.67172 0.93647 0.31814 0.0
C884 C 0.68806 0.94016 0.43406 0.0
C885 C 0.72125 0.96265 0.41831 0.0
N886 N 0.76199 0.98379 0.33368 0.0
N887 N 0.6344 0.89843 0.3965 0.0
C888 C 0.7298 0.96877 0.35132 0.0
C889 C 0.66417 0.92499 0.38341 0.0
N890 N 0.71289 0.97001 0.24089 0.0
N891 N 0.67898 0.93398 0.49739 0.0
H892 H 0.6185 0.88493 0.35975 0.0
H893 H 0.62755 0.88712 0.44147 0.0
H894 H 0.69563 0.94438 0.53515 0.0
H895 H 0.65475 0.92017 0.51278 0.0
H896 H 0.73606 0.98886 0.22787 0.0
H897 H 0.69577 0.96202 0.20354 0.0
H898 H 0.76942 0.98366 0.28644 0.0
H899 H 0.78101 0.99273 0.36688 0.0
C900 C 0.10552 0.74926 0.43679 0.0
C901 C 0.09215 0.76931 0.41861 0.0
C902 C 0.10012 0.75999 0.30257 0.0
C903 C 0.11308 0.73954 0.32062 0.0
N904 N 0.13151 0.71767 0.40659 0.0
N905 N 0.08059 0.79716 0.33353 0.0
C906 C 0.11678 0.73518 0.38829 0.0
C907 C 0.09082 0.77571 0.35124 0.0
N908 N 0.10562 0.74201 0.50072 0.0
N909 N 0.09455 0.76265 0.23866 0.0
H910 H 0.07197 0.8077 0.3664 0.0
H911 H 0.08282 0.80654 0.28725 0.0
H912 H 0.10128 0.75197 0.20211 0.0
H913 H 0.08164 0.77373 0.22137 0.0
H914 H 0.11136 0.72478 0.51836 0.0
H915 H 0.09857 0.7525 0.53709 0.0
H916 H 0.1395 0.71725 0.45315 0.0
H917 H 0.13802 0.70507 0.37432 0.0
C918 C 0.33579 0.37266 0.36109 0.0
C919 C 0.31734 0.3784 0.31256 0.0
C920 C 0.26772 0.33434 0.36713 0.0
C921 C 0.28651 0.33444 0.4223 0.0
N922 N 0.33955 0.36181 0.47379 0.0
N923 N 0.26294 0.36147 0.27127 0.0
C924 C 0.32072 0.35674 0.42037 0.0
C925 C 0.28247 0.35861 0.31659 0.0
N926 N 0.36701 0.37908 0.34848 0.0
N927 N 0.23601 0.30979 0.36023 0.0
H928 H 0.27154 0.37345 0.22746 0.0
H929 H 0.2378 0.35197 0.27788 0.0
H930 H 0.22381 0.29154 0.39436 0.0
H931 H 0.2226 0.30576 0.31789 0.0
H932 H 0.38085 0.37433 0.38158 0.0
H933 H 0.37667 0.38342 0.30188 0.0
H934 H 0.36446 0.37921 0.47502 0.0
H935 H 0.32953 0.35191 0.51852 0.0
C936 C 1.01596 0.38749 1.02445 0.0
C937 C 1.00839 0.40965 0.99278 0.0
C938 C 0.04323 0.45174 0.07427 0.0
C939 C 0.04981 0.42869 0.10652 0.0
N940 N 0.02849 0.37129 0.12637 0.0
N941 N 1.00973 0.4613 0.99594 0.0
C942 C 0.03202 0.39561 0.08552 0.0
C943 C 1.02056 0.44137 1.02037 0.0
N944 N 1.00766 0.35822 0.99636 0.0
N945 N 0.0583 0.48337 0.09474 0.0
H946 H 0.99482 0.45514 0.95512 0.0
H947 H 1.01386 0.48284 1.0179 0.0
H948 H 0.07318 0.49139 0.13538 0.0
H949 H 0.05683 0.50198 0.07051 0.0
H950 H 1.01497 0.34222 1.01498 0.0
H951 H 0.99648 0.35167 0.95122 0.0
H952 H 1.01229 0.34664 0.11716 0.0
H953 H 0.03816 0.37607 0.17294 0.0
C954 C 0.62451 0.61796 0.97258 0.0
C955 C 0.64171 0.60155 0.99069 0.0
C956 C 0.63318 0.61025 0.10692 0.0
C957 C 0.61675 0.62748 0.08881 0.0
N958 N 0.59382 0.64467 1.0025 0.0
N959 N 0.66007 0.57952 0.07623 0.0
C960 C 0.61144 0.63013 1.02111 0.0
C961 C 0.64509 0.59684 0.05826 0.0
N962 N 0.62306 0.62449 0.90865 0.0
N963 N 0.63954 0.60879 0.17085 0.0
H964 H 0.67157 0.57174 0.04381 0.0
H965 H 0.65957 0.57097 0.12263 0.0
H966 H 0.63054 0.6174 0.2073 0.0
H967 H 0.65475 0.60038 0.18844 0.0
H968 H 0.61512 0.64017 0.89144 0.0
H969 H 0.6316 0.61558 0.8719 0.0
H970 H 0.58367 0.64223 0.95686 0.0
H971 H 0.5872 0.6574 1.03392 0.0
C972 C 0.42423 1.01389 0.97319 0.0
C973 C 0.44725 0.04649 0.98957 0.0
C974 C 0.44335 0.02882 0.10493 0.0
C975 C 0.42007 0.99615 0.08833 0.0
N976 N 0.39379 0.95673 1.0029 0.0
N977 N 0.48201 0.08436 0.07076 0.0
C978 C 0.4123 0.98857 1.02133 0.0
C979 C 0.45788 0.05359 0.05538 0.0
N980 N 0.41178 1.00733 0.91207 0.0
N981 N 0.45006 0.03671 0.1686 0.0
H982 H 0.49166 0.10334 1.03743 0.0
H983 H 0.49415 0.09071 0.11484 0.0
H984 H 0.44055 0.01932 0.20543 0.0
H985 H 0.46358 0.06051 0.18572 0.0
H986 H 0.39086 0.98571 0.89959 0.0
H987 H 0.42087 0.02445 0.87467 0.0
H988 H 0.39114 0.9491 0.95518 0.0
H989 H 0.38335 0.93744 1.03535 0.0
C990 C 0.643 0.05826 0.06198 0.0
C991 C 0.63759 0.05075 0.99434 0.0
C992 C 0.60624 0.99238 1.02428 0.0
C993 C 0.61068 0.99972 0.09206 0.0
N994 N 0.62695 0.04082 0.17365 0.0
N995 N 0.60465 1.01074 0.91527 0.0
C996 C 0.62663 0.03309 0.11013 0.0
C997 C 0.61588 0.01792 0.97709 0.0
N998 N 0.6646 0.08942 0.0808 0.0
N999 N 0.59447 0.96104 1.00369 0.0
H1000 H 0.61164 0.02851 0.87939 0.0
H1001 H 0.58589 0.98773 0.90145 0.0
H1002 H 0.58682 0.94127 1.03471 0.0
H1003 H 0.59473 0.95505 0.95546 0.0
H1004 H 0.67162 0.09607 0.12836 0.0
H1005 H 0.67675 0.1087 0.04861 0.0
H1006 H 0.63487 0.06445 0.1899 0.0
H1007 H 0.61624 0.02311 0.20969 0.0
C1008 C 0.04453 0.59435 0.06152 0.0
C1009 C 0.05119 0.62382 0.09385 0.0
C1010 C 1.02088 0.63399 1.00688 0.0
C1011 C 1.01232 0.60391 0.97654 0.0
N1012 N 1.01207 0.55285 0.98094 0.0
N1013 N 0.03313 0.66332 0.10776 0.0
C1014 C 1.02306 0.58334 1.00581 0.0
C1015 C 0.03562 0.64111 0.06934 0.0
N1016 N 0.05868 0.57686 0.08317 0.0
N1017 N 1.01457 0.65596 0.97612 0.0
H1018 H 0.04094 0.66711 0.1557 0.0
H1019 H 1.01958 0.67456 0.09498 0.0
H1020 H 1.00412 0.65155 0.93027 0.0
H1021 H 1.02275 0.67956 0.99322 0.0
H1022 H 0.05747 0.55707 0.05858 0.0
H1023 H 0.07281 0.58279 0.12479 0.0
H1024 H 1.01523 0.53483 1.00349 0.0
H1025 H 0.99812 0.54506 0.9388 0.0
C1026 C 0.46076 0.45835 0.06505 0.0
C1027 C 0.43053 0.43724 0.09763 0.0
C1028 C 0.41664 0.39789 1.00948 0.0
C1029 C 0.44804 0.41583 0.98005 0.0
N1030 N 0.50115 0.4648 0.98272 0.0
N1031 N 0.38844 0.38085 0.11119 0.0
C1032 C 0.4706 0.44666 1.00873 0.0
C1033 C 0.4116 0.40505 0.07323 0.0
N1034 N 0.48004 0.4893 0.08754 0.0
N1035 N 0.39079 0.37439 0.97564 0.0
H1036 H 0.38547 0.38461 0.15978 0.0
H1037 H 0.37534 0.35653 0.09624 0.0
H1038 H 0.39239 0.37081 0.92643 0.0
H1039 H 0.3671 0.36178 0.99459 0.0
H1040 H 0.50081 0.50707 0.06379 0.0
H1041 H 0.47468 0.49757 0.12982 0.0
H1042 H 0.51982 0.48581 1.00384 0.0
H1043 H 0.50839 0.45825 0.94057 0.0
C1044 C 0.13092 0.25849 0.45621 0.0
C1045 C 0.10201 0.22819 0.46616 0.0
C1046 C 0.13694 0.20207 0.4699 0.0
C1047 C 0.16575 0.23328 0.47487 0.0
N1048 N 0.1877 0.29187 0.48556 0.0
N1049 N 0.07728 0.17013 0.48086 0.0
C1050 C 0.1621 0.26168 0.47086 0.0
C1051 C 0.10501 0.19959 0.47173 0.0
N1052 N 0.12881 0.28458 0.43346 0.0
N1053 N 0.14003 0.17482 0.4653 0.0
H1054 H 0.0539 0.1676 0.47852 0.0
H1055 H 0.07749 0.14873 0.49284 0.0
H1056 H 0.16287 0.17611 0.46434 0.0
H1057 H 0.12035 0.15151 0.45688 0.0
H1058 H 0.14942 0.30651 0.41999 0.0
H1059 H 0.10653 0.28269 0.42005 0.0
H1060 H 0.185 0.31245 0.49049 0.0
H1061 H 0.211 0.29607 0.49767 0.0
C1062 C 0.8543 0.94972 0.48442 0.0
C1063 C 0.8253 0.94974 0.46496 0.0
C1064 C 0.80258 0.89161 0.4328 0.0
C1065 C 0.82791 0.88975 0.46695 0.0
N1066 N 0.88048 0.91865 0.51899 0.0
N1067 N 0.77161 0.92004 0.41767 0.0
C1068 C 0.85473 0.91949 0.49018 0.0
C1069 C 0.79965 0.92061 0.43706 0.0
N1070 N 0.88171 0.979 0.4961 0.0
N1071 N 0.78148 0.86588 0.39572 0.0
H1072 H 0.76941 0.94097 0.41767 0.0
H1073 H 0.75033 0.89874 0.40457 0.0
H1074 H 0.78315 0.84471 0.39133 0.0
H1075 H 0.76476 0.86699 0.36418 0.0
H1076 H 0.90462 0.98168 0.50656 0.0
H1077 H 0.88194 1.00094 0.48748 0.0
H1078 H 0.8989 0.93819 0.54432 0.0
H1079 H 0.88278 0.8977 0.51881 0.0
C1080 C 0.13825 0.89322 0.43745 0.0
C1081 C 0.10826 0.88998 0.46131 0.0
C1082 C 0.13706 0.9497 0.48058 0.0
C1083 C 0.16749 0.95241 0.46149 0.0
N1084 N 0.19427 0.92905 0.40047 0.0
N1085 N 0.0774 0.91627 0.48906 0.0
C1086 C 0.16707 0.92493 0.43248 0.0
C1087 C 0.10719 0.91878 0.47705 0.0
N1088 N 0.13986 0.86575 0.42362 0.0
N1089 N 0.13711 0.97682 0.50383 0.0
H1090 H 0.05553 0.89401 0.48555 0.0
H1091 H 0.07393 0.93615 0.497 0.0
H1092 H 0.158 0.99992 0.50155 0.0
H1093 H 0.11706 0.97653 0.52593 0.0
H1094 H 0.16168 0.86579 0.41404 0.0
H1095 H 0.1193 0.84255 0.42532 0.0
H1096 H 0.19466 0.91081 0.37287 0.0
H1097 H 0.21542 0.95179 0.39594 0.0
C1098 C 0.25413 0.15112 0.65252 0.0
C1099 C 0.23127 0.1549 0.61373 0.0
C1100 C 0.20523 0.09598 0.58697 0.0
C1101 C 0.23231 0.09422 0.61348 0.0
N1102 N 0.28316 0.12122 0.67234 0.0
N1103 N 0.18327 0.13004 0.54703 0.0
C1104 C 0.25653 0.12189 0.64789 0.0
C1105 C 0.20596 0.12681 0.58274 0.0
N1106 N 0.27377 0.17571 0.69346 0.0
N1107 N 0.17871 0.06786 0.5659 0.0
H1108 H 0.18215 0.15165 0.54672 0.0
H1109 H 0.16649 0.11199 0.51648 0.0
H1110 H 0.1775 0.04521 0.57072 0.0
H1111 H 0.15698 0.06644 0.55011 0.0
H1112 H 0.28916 0.17377 0.72722 0.0
H1113 H 0.27189 0.19678 0.6981 0.0
H1114 H 0.30375 0.14169 0.69057 0.0
H1115 H 0.28527 0.10031 0.67099 0.0
C1116 C 0.925 0.09352 0.58108 0.0
C1117 C 0.89709 0.09027 0.61475 0.0
C1118 C 0.93246 0.1453 0.66179 0.0
C1119 C 0.95798 0.15073 0.61766 0.0
N1120 N 0.98295 0.12707 0.55258 0.0
N1121 N 0.87731 0.1081 0.70389 0.0
C1122 C 0.95557 0.12364 0.58311 0.0
C1123 C 0.9019 0.11454 0.66108 0.0
N1124 N 0.92172 0.06743 0.5466 0.0
N1125 N 0.93732 0.16978 0.70311 0.0
H1126 H 0.85548 0.08582 0.7048 0.0
H1127 H 0.87886 0.12367 0.74079 0.0
H1128 H 0.95958 0.19162 0.70552 0.0
H1129 H 0.91991 0.16869 0.73551 0.0
H1130 H 0.93937 0.06779 0.51582 0.0
H1131 H 0.90066 0.04459 0.55062 0.0
H1132 H 0.98408 0.10875 0.52688 0.0
H1133 H 1.00569 0.14837 0.55651 0.0
C1134 C 0.96285 0.84751 0.59726 0.0
C1135 C 0.965 0.81942 0.61559 0.0
C1136 C 0.90536 0.79059 0.63933 0.0
C1137 C 0.90272 0.81799 0.61743 0.0
N1138 N 0.93039 0.87511 0.59129 0.0
N1139 N 0.94002 0.76799 0.6719 0.0
C1140 C 0.93211 0.84735 0.60191 0.0
C1141 C 0.93683 0.79238 0.6431 0.0
N1142 N 0.99022 0.87405 0.57314 0.0
N1143 N 0.87745 0.7619 0.65232 0.0
H1144 H 0.9625 0.76873 0.67526 0.0
H1145 H 0.92137 0.7489 0.69802 0.0
H1146 H 0.85455 0.76015 0.65194 0.0
H1147 H 0.87674 0.73969 0.65995 0.0
H1148 H 0.99016 0.89398 0.55138 0.0
H1149 H 1.01319 0.87557 0.57362 0.0
H1150 H 0.95077 0.89813 0.5841 0.0
H1151 H 0.90836 0.8754 0.59547 0.0
C1152 C 0.83286 0.59136 0.79041 0.0
C1153 C 0.83575 0.5627 0.79796 0.0
C1154 C 0.77496 0.53003 0.80063 0.0
C1155 C 0.77257 0.55885 0.79285 0.0
N1156 N 0.79934 0.61448 0.75577 0.0
N1157 N 0.80889 0.50406 0.79432 0.0
C1158 C 0.80159 0.58855 0.77891 0.0
C1159 C 0.80649 0.53174 0.7971 0.0
N1160 N 0.85959 0.62164 0.79886 0.0
N1161 N 0.74712 0.5012 0.81369 0.0
H1162 H 0.83153 0.50501 0.79078 0.0
H1163 H 0.78875 0.4807 0.78932 0.0
H1164 H 0.72393 0.4992 0.81301 0.0
H1165 H 0.74712 0.47989 0.82727 0.0
H1166 H 0.85808 0.64295 0.80162 0.0
H1167 H 0.8829 0.62531 0.80853 0.0
H1168 H 0.81954 0.63611 0.73975 0.0
H1169 H 0.77679 0.61249 0.74507 0.0
C1170 C 0.47807 0.26126 0.75491 0.0
C1171 C 0.49904 0.28642 0.79792 0.0
C1172 C 0.52422 0.25243 0.82603 0.0
C1173 C 0.49763 0.22457 0.79761 0.0
N1174 N 0.448 0.20282 0.73498 0.0
N1175 N 0.54392 0.30587 0.87345 0.0
C1176 C 0.47462 0.22923 0.76062 0.0
C1177 C 0.52307 0.28212 0.83221 0.0
N1178 N 0.46126 0.26772 0.70901 0.0
N1179 N 0.55044 0.25016 0.84811 0.0
H1180 H 0.54454 0.32816 0.87773 0.0
H1181 H 0.55913 0.30274 0.90584 0.0
H1182 H 0.55176 0.2288 0.84273 0.0
H1183 H 0.57198 0.27009 0.86491 0.0
H1184 H 0.448 0.25127 0.6725 0.0
H1185 H 0.4634 0.29072 0.70373 0.0
H1186 H 0.4285 0.20402 0.71369 0.0
H1187 H 0.44461 0.17937 0.73932 0.0
C1188 C 0.79545 0.2316 0.76106 0.0
C1189 C 0.76944 0.22586 0.80405 0.0
C1190 C 0.80244 0.2822 0.84528 0.0
C1191 C 0.82984 0.2869 0.80792 0.0
N1192 N 0.84971 0.27026 0.71731 0.0
N1193 N 0.7437 0.25007 0.86505 0.0
C1194 C 0.82525 0.26297 0.76097 0.0
C1195 C 0.77161 0.25282 0.83869 0.0
N1196 N 0.79207 0.20684 0.72208 0.0
N1197 N 0.80638 0.30517 0.88983 0.0
H1198 H 0.72094 0.2292 0.85797 0.0
H1199 H 0.74251 0.26934 0.88692 0.0
H1200 H 0.82818 0.32737 0.89422 0.0
H1201 H 0.78875 0.30158 0.92433 0.0
H1202 H 0.81058 0.20808 0.6926 0.0
H1203 H 0.77031 0.18453 0.71956 0.0
H1204 H 0.84816 0.25513 0.67946 0.0
H1205 H 0.87103 0.29305 0.71636 0.0
C1206 C 0.87233 0.45639 0.90398 0.0
C1207 C 0.89569 0.48296 0.94121 0.0
C1208 C 0.91394 0.44611 0.98814 0.0
C1209 C 0.89548 0.422 0.94106 0.0
N1210 N 0.85582 0.40353 0.85535 0.0
N1211 N 0.93622 0.50247 1.0249 0.0
C1212 C 0.87374 0.42672 0.90033 0.0
C1213 C 0.91528 0.47735 0.9862 0.0
N1214 N 0.84902 0.46 0.87148 0.0
N1215 N 0.93069 0.43922 1.03366 0.0
H1216 H 0.93598 0.52449 1.02676 0.0
H1217 H 0.95389 0.50187 0.05425 0.0
H1218 H 0.92955 0.41654 1.03594 0.0
H1219 H 0.94348 0.45459 0.07177 0.0
H1220 H 0.82954 0.44119 0.84674 0.0
H1221 H 0.84757 0.48137 0.87514 0.0
H1222 H 0.84245 0.40678 0.81889 0.0
H1223 H 0.85559 0.38129 0.8529 0.0
C1224 C 0.59678 0.42723 0.90953 0.0
C1225 C 0.56843 0.42386 0.94209 0.0
C1226 C 0.60161 0.48092 0.97936 0.0
C1227 C 0.62942 0.48463 0.94434 0.0
N1228 N 0.65612 0.45793 0.89553 0.0
N1229 N 0.54852 0.44387 1.0276 0.0
C1230 C 0.6278 0.45643 0.91648 0.0
C1231 C 0.57251 0.4494 0.98405 0.0
N1232 N 0.59374 0.40312 0.869 0.0
N1233 N 0.60184 0.50784 1.00382 0.0
H1234 H 0.52713 0.42132 1.03194 0.0
H1235 H 0.55142 0.46055 0.06344 0.0
H1236 H 0.62225 0.53101 0.99998 0.0
H1237 H 0.58122 0.50746 1.0235 0.0
H1238 H 0.6122 0.40562 0.83766 0.0
H1239 H 0.57186 0.38119 0.86413 0.0
H1240 H 0.6574 0.43764 0.87949 0.0
H1241 H 0.67895 0.47901 0.90074 0.0
C1242 C 0.62574 0.18152 0.93656 0.0
C1243 C 0.62859 0.15357 0.95247 0.0
C1244 C 0.5683 0.12165 0.96469 0.0
C1245 C 0.56504 0.14911 0.94607 0.0
N1246 N 0.5914 0.2071 0.92953 0.0
N1247 N 0.60337 0.10119 1.00455 0.0
C1248 C 0.59415 0.17976 0.93739 0.0
C1249 C 0.60008 0.12512 0.97439 0.0
N1250 N 0.65342 0.20963 0.91935 0.0
N1251 N 0.54107 0.09151 0.96924 0.0
H1252 H 0.62635 0.10413 1.01429 0.0
H1253 H 0.58406 0.08087 1.02676 0.0
H1254 H 0.51761 0.08796 0.96355 0.0
H1255 H 0.54187 0.06988 0.97415 0.0
H1256 H 0.65347 0.23003 0.89972 0.0
H1257 H 0.67662 0.21201 0.92451 0.0
H1258 H 0.61133 0.23072 0.92687 0.0
H1259 H 0.56872 0.20618 0.93128 0.0
C1260 C 0.46425 0.86588 0.15227 0.0
C1261 C 0.49359 0.89444 0.13222 0.0
C1262 C 0.45998 0.91999 0.10267 0.0
C1263 C 0.43126 0.89274 0.12862 0.0
N1264 N 0.40441 0.83679 0.16289 0.0
N1265 N 0.51798 0.94563 0.07456 0.0
C1266 C 0.43302 0.86468 0.14818 0.0
C1267 C 0.49087 0.92033 0.10234 0.0
N1268 N 0.46657 0.84015 0.17706 0.0
N1269 N 0.45807 0.94649 0.08181 0.0
H1270 H 0.54081 0.94717 0.07543 0.0
H1271 H 0.51765 0.96385 0.04662 0.0
H1272 H 0.4357 0.94573 0.07656 0.0
H1273 H 0.47819 0.96918 0.0709 0.0
H1274 H 0.44739 0.81993 0.19954 0.0
H1275 H 0.48841 0.83934 0.17599 0.0
H1276 H 0.40272 0.81444 0.17391 0.0
H1277 H 0.3816 0.83551 0.15909 0.0
C1278 C 0.14386 0.58594 0.08534 0.0
C1279 C 0.16268 0.61044 0.13188 0.0
C1280 C 0.18801 0.57723 0.16499 0.0
C1281 C 0.16344 0.5497 0.13135 0.0
N1282 N 0.12472 0.5305 0.04437 0.0
N1283 N 0.20857 0.63271 0.20448 0.0
C1284 C 0.14369 0.55503 0.08603 0.0
C1285 C 0.18694 0.60714 0.1673 0.0
N1286 N 0.12625 0.59227 0.04093 0.0
N1287 N 0.21274 0.57452 0.19391 0.0
H1288 H 0.21039 0.6557 0.20197 0.0
H1289 H 0.22437 0.63134 0.23795 0.0
H1290 H 0.21449 0.55333 0.18991 0.0
H1291 H 0.23287 0.59364 0.21649 0.0
H1292 H 0.11265 0.57654 1.00395 0.0
H1293 H 0.12672 0.6146 1.03883 0.0
H1294 H 0.10883 0.53155 1.01076 0.0
H1295 H 0.12534 0.5087 0.04268 0.0
C1296 C 0.4992 0.59204 0.1002 0.0
C1297 C 0.50282 0.62024 0.13306 0.0
C1298 C 0.44358 0.58908 0.15998 0.0
C1299 C 0.44076 0.56044 0.13083 0.0
N1300 N 0.46238 0.54007 0.04935 0.0
N1301 N 0.47599 0.64801 0.17701 0.0
C1302 C 0.46734 0.56378 0.09268 0.0
C1303 C 0.47402 0.61947 0.15696 0.0
N1304 N 0.52633 0.59085 0.08105 0.0
N1305 N 0.41711 0.58686 0.19203 0.0
H1306 H 0.49782 0.67037 0.17433 0.0
H1307 H 0.45577 0.65013 0.19055 0.0
H1308 H 0.39404 0.56588 0.19004 0.0
H1309 H 0.4181 0.6052 0.22145 0.0
H1310 H 0.52558 0.56979 0.06337 0.0
H1311 H 0.54977 0.61022 0.0884 0.0
H1312 H 0.48006 0.54285 1.01559 0.0
H1313 H 0.4395 0.51945 0.04221 0.0
C1314 C 0.60357 0.79459 0.21881 0.0
C1315 C 0.58336 0.76797 0.26034 0.0
C1316 C 0.56165 0.80271 0.30557 0.0
C1317 C 0.57813 0.82692 0.25659 0.0
N1318 N 0.61365 0.8429 0.16215 0.0
N1319 N 0.54256 0.74676 0.34392 0.0
C1320 C 0.59891 0.82206 0.21282 0.0
C1321 C 0.5626 0.7723 0.30478 0.0
N1322 N 0.62821 0.79428 0.18437 0.0
N1323 N 0.54457 0.80845 0.35207 0.0
H1324 H 0.54342 0.72503 0.34514 0.0
H1325 H 0.52421 0.74638 0.3727 0.0
H1326 H 0.54258 0.82956 0.35249 0.0
H1327 H 0.53433 0.79359 0.3924 0.0
H1328 H 0.64758 0.81516 0.16368 0.0
H1329 H 0.63085 0.77394 0.17959 0.0
H1330 H 0.62253 0.83672 0.12158 0.0
H1331 H 0.61597 0.86574 0.15808 0.0
C1332 C 0.25157 0.81455 0.27187 0.0
C1333 C 0.28417 0.81976 0.26746 0.0
C1334 C 0.25981 0.75923 0.27009 0.0
C1335 C 0.22775 0.7549 0.27856 0.0
N1336 N 0.19694 0.78013 0.31365 0.0
N1337 N 0.31923 0.79602 0.27275 0.0
C1338 C 0.22514 0.78319 0.28891 0.0
C1339 C 0.28824 0.79168 0.27081 0.0
N1340 N 0.24474 0.8384 0.25381 0.0
N1341 N 0.26292 0.73234 0.25915 0.0
H1342 H 0.34007 0.81922 0.27229 0.0
H1343 H 0.32417 0.77698 0.27994 0.0
H1344 H 0.24282 0.7087 0.2618 0.0
H1345 H 0.28483 0.73354 0.24538 0.0
H1346 H 0.22087 0.83451 0.25071 0.0
H1347 H 0.26232 0.86063 0.23472 0.0
H1348 H 0.1942 0.80013 0.32588 0.0
H1349 H 0.17848 0.75762 0.32995 0.0
C1350 C 0.29277 0.50842 0.27084 0.0
C1351 C 0.297 0.48092 0.28313 0.0
C1352 C 0.23695 0.44625 0.28832 0.0
C1353 C 0.23213 0.47359 0.27716 0.0
N1354 N 0.25668 0.53207 0.27258 0.0
N1355 N 0.27294 0.42705 0.32902 0.0
C1356 C 0.26056 0.5052 0.27393 0.0
C1357 C 0.26904 0.45115 0.30111 0.0
N1358 N 0.31958 0.53747 0.25428 0.0
N1359 N 0.2116 0.41515 0.28108 0.0
H1360 H 0.29601 0.43013 0.33972 0.0
H1361 H 0.25335 0.40594 0.34854 0.0
H1362 H 0.18832 0.41007 0.2674 0.0
H1363 H 0.21462 0.39465 0.28213 0.0
H1364 H 0.31822 0.55759 0.23724 0.0
H1365 H 0.34329 0.5408 0.25572 0.0
H1366 H 0.27616 0.55597 0.27482 0.0
H1367 H 0.23358 0.53017 0.27524 0.0
C1368 C 1.02262 0.22563 0.07369 0.0
C1369 C 0.02772 0.25323 0.11025 0.0
C1370 C 0.05736 0.28927 1.01845 0.0
C1371 C 0.04931 0.26135 0.98018 0.0
N1372 N 1.02049 0.20273 0.968 0.0
N1373 N 0.0464 0.31089 0.11563 0.0
C1374 C 0.0309 0.22945 1.00692 0.0
C1375 C 0.04427 0.285 0.08215 0.0
N1376 N 1.01098 0.19593 0.1034 0.0
N1377 N 0.0778 0.31981 0.99398 0.0
H1378 H 0.03547 0.30819 0.16062 0.0
H1379 H 0.05664 0.33449 0.09713 0.0
H1380 H 0.08727 0.32376 0.94722 0.0
H1381 H 0.08743 0.34115 1.02103 0.0
H1382 H 1.01014 0.17571 0.08123 0.0
H1383 H 1.00486 0.19216 0.15224 0.0
H1384 H 1.00384 0.17901 0.98277 0.0
H1385 H 0.02642 0.20445 0.91912 0.0
C1386 C 0.81015 0.76859 0.05956 0.0
C1387 C 0.79536 0.77688 0.11034 0.0
C1388 C 0.76758 0.79345 1.03038 0.0
C1389 C 0.78584 0.78927 0.98036 0.0
N1390 N 0.82842 0.77762 0.94835 0.0
N1391 N 0.76255 0.80053 0.14491 0.0
C1392 C 0.80808 0.77794 0.99517 0.0
C1393 C 0.77452 0.78999 0.096 0.0
N1394 N 0.82564 0.75113 0.07277 0.0
N1395 N 0.74325 0.80027 1.01503 0.0
H1396 H 0.767 0.79841 0.19348 0.0
H1397 H 0.7503 0.81361 0.13737 0.0
H1398 H 0.73792 0.80345 0.9676 0.0
H1399 H 0.72664 0.80006 0.04859 0.0
H1400 H 0.83394 0.74142 1.03712 0.0
H1401 H 0.82732 0.74357 0.1193 0.0
H1402 H 0.84754 0.77296 0.95772 0.0
H1403 H 0.8281 0.78483 0.90088 0.0
C1404 C 0.25107 0.99063 0.09558 0.0
C1405 C 0.25932 0.02315 0.11237 0.0
C1406 C 0.25765 0.03488 0.99713 0.0
C1407 C 0.2563 1.00503 0.98065 0.0
N1408 N 0.25308 0.95452 1.01519 0.0
N1409 N 0.24309 0.06205 0.07797 0.0
C1410 C 0.25378 0.98307 1.03021 0.0
C1411 C 0.25512 0.04177 0.06285 0.0
N1412 N 0.23377 0.96566 0.13792 0.0
N1413 N 0.26158 0.05693 0.95011 0.0
H1414 H 0.23499 0.06289 0.12444 0.0
H1415 H 0.23662 0.07394 0.04335 0.0
H1416 H 0.2634 0.05278 0.90128 0.0
H1417 H 0.26594 0.08041 0.96046 0.0
H1418 H 0.22498 0.94115 0.12662 0.0
H1419 H 0.22298 0.96906 0.17902 0.0
H1420 H 0.25445 0.9393 0.05027 0.0
H1421 H 0.25378 0.94748 0.96784 0.0
C1422 C 1.01595 0.76563 0.98885 0.0
C1423 C 0.04785 0.79147 0.97298 0.0
C1424 C 0.0587 0.80616 0.08761 0.0
C1425 C 0.02594 0.78196 0.10275 0.0
N1426 N 0.97219 0.74059 0.06827 0.0
N1427 N 0.09894 0.83807 1.00528 0.0
C1428 C 1.0043 0.76202 0.05352 0.0
C1429 C 0.06914 0.81209 1.02195 0.0
N1430 N 0.9969 0.74435 0.94197 0.0
N1431 N 0.07996 0.82313 0.13633 0.0
H1432 H 0.10787 0.84256 0.95809 0.0
H1433 H 0.11414 0.85637 1.03716 0.0
H1434 H 0.07276 0.82052 0.18451 0.0
H1435 H 0.1051 0.83823 0.12995 0.0
H1436 H 0.97519 0.72266 0.95104 0.0
H1437 H 1.00394 0.74738 0.89375 0.0
H1438 H 0.95409 0.72799 1.03394 0.0
H1439 H 0.9629 0.73686 0.11513 0.0
C1440 C 0.2895 0.29426 0.08733 0.0
C1441 C 0.28114 0.26213 0.10717 0.0
C1442 C 0.26168 0.24156 0.99812 0.0
C1443 C 0.27206 0.27398 0.97697 0.0
N1444 N 0.2989 0.33183 0.99845 0.0
N1445 N 0.26382 0.20605 0.08063 0.0
C1446 C 0.2868 0.30057 1.02085 0.0
C1447 C 0.26863 0.23606 0.06222 0.0
N1448 N 0.29959 0.31855 0.13232 0.0
N1449 N 0.24377 0.21583 0.95774 0.0
H1450 H 0.26746 0.20063 0.12769 0.0
H1451 H 0.25861 0.18719 0.0484 0.0
H1452 H 0.23789 0.21871 0.91057 0.0
H1453 H 0.23226 0.19146 0.97244 0.0
H1454 H 0.3029 0.34172 0.12288 0.0
H1455 H 0.303 0.31501 0.1808 0.0
H1456 H 0.31221 0.35263 1.02638 0.0
H1457 H 0.29756 0.33726 0.95011 0.0
C1458 C 0.82339 0.05275 0.05245 0.0
C1459 C 0.79705 0.04651 0.09464 0.0
C1460 C 0.75828 0.02226 1.00415 0.0
C1461 C 0.78412 0.02436 0.96503 0.0
N1462 N 0.8409 0.03875 0.95343 0.0
N1463 N 0.73895 0.02466 0.11161 0.0
C1464 C 0.81662 0.03903 0.98948 0.0
C1465 C 0.76434 0.03138 0.07058 0.0
N1466 N 0.85501 0.07274 0.07207 0.0
N1467 N 0.72811 1.01208 0.97734 0.0
H1468 H 0.74241 0.03213 0.15957 0.0
H1469 H 0.71433 1.01019 0.09936 0.0
H1470 H 0.72287 1.00491 0.92923 0.0
H1471 H 0.70903 1.01307 1.00091 0.0
H1472 H 0.87521 0.08102 0.04148 0.0
H1473 H 0.86088 0.08382 0.1173 0.0
H1474 H 0.86409 0.04546 0.97151 0.0
H1475 H 0.83719 0.02941 0.90675 0.0
C1476 C 0.73514 0.61163 0.35597 0.0
C1477 C 0.71255 0.59502 0.30556 0.0
C1478 C 0.66744 0.57144 0.38438 0.0
C1479 C 0.6905 0.58504 0.43528 0.0
N1480 N 0.74695 0.61335 0.47005 0.0
N1481 N 0.65803 0.55465 0.27247 0.0
C1482 C 0.72457 0.60398 0.42124 0.0
C1483 C 0.67886 0.57376 0.3199 0.0
N1484 N 0.76667 0.63485 0.34147 0.0
N1485 N 0.63459 0.55649 0.39761 0.0
H1486 H 0.66568 0.55518 0.22511 0.0
H1487 H 0.63399 0.53626 0.2811 0.0
H1488 H 0.62534 0.55377 0.44436 0.0
H1489 H 0.61667 0.54927 0.36203 0.0
H1490 H 0.78328 0.65031 0.37581 0.0
H1491 H 0.77546 0.64055 0.29426 0.0
H1492 H 0.77216 0.62431 0.46249 0.0
H1493 H 0.74013 0.60737 0.5181 0.0
C1494 C 0.45517 0.13449 0.42257 0.0
C1495 C 0.45208 0.10379 0.43942 0.0
C1496 C 0.43423 0.08449 0.32868 0.0
C1497 C 0.44218 0.11663 0.30999 0.0
N1498 N 0.46271 0.17319 0.33776 0.0
N1499 N 0.44086 0.04995 0.40757 0.0
C1500 C 0.45309 0.14185 0.35669 0.0
C1501 C 0.44185 0.07871 0.39235 0.0
N1502 N 0.45935 0.15637 0.4699 0.0
N1503 N 0.41893 0.05944 0.28573 0.0
H1504 H 0.44627 0.04481 0.45344 0.0
H1505 H 0.43701 0.03211 0.37374 0.0
H1506 H 0.41299 0.06298 0.23899 0.0
H1507 H 0.40955 0.03493 0.29794 0.0
H1508 H 0.45818 0.17761 0.46162 0.0
H1509 H 0.46088 0.15185 0.51868 0.0
H1510 H 0.47469 0.19331 0.36808 0.0
H1511 H 0.46086 0.17954 0.29033 0.0
C1512 C 0.91065 0.33752 0.35572 0.0
C1513 C 0.93762 0.34602 0.31377 0.0
C1514 C 0.976 0.37282 0.40339 0.0
C1515 C 0.94904 0.36655 0.44384 0.0
N1516 N 0.8912 0.34737 0.4569 0.0
N1517 N 0.99595 0.37424 0.29446 0.0
C1518 C 0.91648 0.35006 0.41956 0.0
C1519 C 0.97037 0.36436 0.33676 0.0
N1520 N 0.87942 0.31669 0.33495 0.0
N1521 N 1.00682 0.38623 0.42917 0.0
H1522 H 0.99256 0.36794 0.24579 0.0
H1523 H 1.02034 0.39028 0.30621 0.0
H1524 H 1.01174 0.39289 0.47756 0.0
H1525 H 0.02723 0.38887 0.40415 0.0
H1526 H 0.85903 0.30648 0.36529 0.0
H1527 H 0.87405 0.30739 0.28821 0.0
H1528 H 0.86755 0.33907 0.43959 0.0
H1529 H 0.89434 0.35591 0.50417 0.0
C1530 C 0.68219 0.11916 0.32958 0.0
C1531 C 0.71252 0.12107 0.31323 0.0
C1532 C 0.71803 0.10708 0.42531 0.0
C1533 C 0.69007 0.1095 0.4431 0.0
N1534 N 0.64852 0.12321 0.41352 0.0
N1535 N 0.76198 0.12186 0.34795 0.0
C1536 C 0.67283 0.11683 0.39553 0.0
C1537 C 0.73111 0.11618 0.36171 0.0
N1538 N 0.66192 0.1189 0.28195 0.0
N1539 N 0.73173 0.0955 0.46886 0.0
H1540 H 0.77273 0.12949 0.30257 0.0
H1541 H 0.77803 0.12195 0.3828 0.0
H1542 H 0.72265 0.08844 0.51561 0.0
H1543 H 0.75005 0.09004 0.45689 0.0
H1544 H 0.63797 0.11387 0.29045 0.0
H1545 H 0.66784 0.12065 0.2331 0.0
H1546 H 0.63771 0.13231 0.38187 0.0
H1547 H 0.64113 0.12231 0.46125 0.0
C1548 C 0.92184 0.567 0.32911 0.0
C1549 C 0.94156 0.59892 0.30328 0.0
C1550 C 0.96773 0.6183 0.4091 0.0
C1551 C 0.94953 0.58588 0.43358 0.0
N1552 N 0.91315 0.5284 0.41507 0.0
N1553 N 0.98636 0.65404 0.31507 0.0
C1554 C 0.92771 0.55995 0.39297 0.0
C1555 C 0.9654 0.62437 0.34233 0.0
N1556 N 0.89668 0.54367 0.29327 0.0
N1557 N 0.9866 0.64337 0.45012 0.0
H1558 H 0.98504 0.65939 0.26665 0.0
H1559 H 1.00651 0.67257 0.33888 0.0
H1560 H 0.98944 0.63968 0.49881 0.0
H1561 H 0.99765 0.66797 0.43725 0.0
H1562 H 0.87905 0.52114 0.31174 0.0
H1563 H 0.89175 0.54771 0.24612 0.0
H1564 H 0.90005 0.50809 0.38572 0.0
H1565 H 0.91629 0.52228 0.4619 0.0
C1566 C 0.42032 0.33839 0.34396 0.0
C1567 C 0.44766 0.34815 0.30213 0.0
C1568 C 0.48509 0.38061 0.38933 0.0
C1569 C 0.45812 0.36849 0.43272 0.0
N1570 N 0.40033 0.33433 0.45389 0.0
N1571 N 0.50631 0.37471 0.28668 0.0
C1572 C 0.42574 0.34694 0.41069 0.0
C1573 C 0.48011 0.36843 0.32517 0.0
N1574 N 0.38924 0.32155 0.31934 0.0
N1575 N 0.51555 0.40405 0.40938 0.0
H1576 H 0.50387 0.36637 0.23938 0.0
H1577 H 0.53044 0.38592 0.30301 0.0
H1578 H 0.5206 0.41268 0.45661 0.0
H1579 H 0.53533 0.4168 0.37825 0.0
H1580 H 0.36811 0.31585 0.34543 0.0
H1581 H 0.38457 0.31515 0.27079 0.0
H1582 H 0.37665 0.31596 0.44295 0.0
H1583 H 0.40329 0.34119 0.50231 0.0
C1584 C 0.39214 0.96523 0.68645 0.0
C1585 C 0.36943 0.95532 0.63479 0.0
C1586 C 0.32471 0.93507 0.71455 0.0
C1587 C 0.34683 0.93677 0.7634 0.0
N1588 N 0.40286 0.95422 0.79469 0.0
N1589 N 0.32033 0.95768 0.61256 0.0
C1590 C 0.38095 0.95225 0.74916 0.0
C1591 C 0.33701 0.94762 0.65167 0.0
N1592 N 0.42322 0.99068 0.67782 0.0
N1593 N 0.29191 0.92081 0.72736 0.0
H1594 H 0.3318 0.97323 0.57338 0.0
H1595 H 0.29755 0.95502 0.62437 0.0
H1596 H 0.28193 0.91149 0.77268 0.0
H1597 H 0.27451 0.91611 0.69161 0.0
H1598 H 0.43992 1.00119 0.7155 0.0
H1599 H 0.43035 1.0039 0.63462 0.0
H1600 H 0.42753 0.96271 0.78411 0.0
H1601 H 0.39598 0.94507 0.84131 0.0
C1602 C 0.10552 0.40101 0.73142 0.0
C1603 C 0.11945 0.42724 0.77618 0.0
C1604 C 0.12318 0.46549 0.69115 0.0
C1605 C 0.11214 0.4399 0.64518 0.0
N1606 N 0.09556 0.38398 0.61917 0.0
N1607 N 0.14611 0.4852 0.79716 0.0
C1608 C 0.10402 0.40778 0.66469 0.0
C1609 C 0.1293 0.45966 0.75573 0.0
N1610 N 0.09306 0.36959 0.75313 0.0
N1611 N 0.12773 0.49544 0.67311 0.0
H1612 H 0.15119 0.48217 0.84484 0.0
H1613 H 0.15745 0.50965 0.78309 0.0
H1614 H 0.12508 0.50129 0.62576 0.0
H1615 H 0.13178 0.51382 0.70577 0.0
H1616 H 0.07965 0.34906 0.72449 0.0
H1617 H 0.09379 0.36388 0.80155 0.0
H1618 H 0.09292 0.36108 0.62882 0.0
H1619 H 0.09288 0.38773 0.57043 0.0
C1620 C 0.63877 0.69349 0.74229 0.0
C1621 C 0.6242 0.71158 0.76648 0.0
C1622 C 0.59872 0.70794 0.66097 0.0
C1623 C 0.61396 0.69064 0.63617 0.0
N1624 N 0.65319 0.67214 0.64866 0.0
N1625 N 0.59698 0.74263 0.7453 0.0
C1626 C 0.63549 0.68504 0.67553 0.0
C1627 C 0.60619 0.7208 0.72462 0.0
N1628 N 0.6547 0.68336 0.7836 0.0
N1629 N 0.57612 0.71105 0.62446 0.0
H1630 H 0.60226 0.75279 0.79138 0.0
H1631 H 0.58689 0.75307 0.71513 0.0
H1632 H 0.57038 0.7026 0.5772 0.0
H1633 H 0.56125 0.71983 0.64247 0.0
H1634 H 0.66256 0.66697 0.77093 0.0
H1635 H 0.65829 0.68976 0.83222 0.0
H1636 H 0.67181 0.67049 0.67266 0.0
H1637 H 0.65102 0.6654 0.60024 0.0
C1638 C 0.38277 0.43164 0.7471 0.0
C1639 C 0.36198 0.44335 0.77023 0.0
C1640 C 0.36354 0.46726 0.66379 0.0
C1641 C 0.38254 0.45375 0.63936 0.0
N1642 N 0.4065 0.41925 0.65444 0.0
N1643 N 0.3284 0.46791 0.74887 0.0
C1644 C 0.39112 0.43483 0.68017 0.0
C1645 C 0.35105 0.45975 0.72791 0.0
N1646 N 0.39506 0.4181 0.78947 0.0
N1647 N 0.35873 0.4886 0.62665 0.0
H1648 H 0.31953 0.464 0.79607 0.0
H1649 H 0.31645 0.47627 0.7184 0.0
H1650 H 0.36745 0.49487 0.57954 0.0
H1651 H 0.34851 0.50229 0.6441 0.0
H1652 H 0.41319 0.4124 0.77758 0.0
H1653 H 0.38847 0.4143 0.83811 0.0
H1654 H 0.41086 0.40267 0.67985 0.0
H1655 H 0.41276 0.42099 0.60573 0.0
C1656 C 0.61377 0.90625 0.71718 0.0
C1657 C 0.61908 0.9302 0.76422 0.0
C1658 C 0.61721 0.966 0.67939 0.0
C1659 C 0.60717 0.94009 0.63446 0.0
N1660 N 0.59576 0.88551 0.60901 0.0
N1661 N 0.62682 0.98325 0.79151 0.0
C1662 C 0.60574 0.9103 0.65281 0.0
C1663 C 0.62156 0.96044 0.74553 0.0
N1664 N 0.61717 0.87997 0.73408 0.0
N1665 N 0.62256 0.99586 0.65857 0.0
H1666 H 0.6312 0.98041 0.83974 0.0
H1667 H 0.62564 1.00442 0.78285 0.0
H1668 H 0.61882 1.00037 0.61091 0.0
H1669 H 0.63292 0.01682 0.68683 0.0
H1670 H 0.61684 0.86316 0.70121 0.0
H1671 H 0.62327 0.87649 0.78071 0.0
H1672 H 0.59019 0.86181 0.62096 0.0
H1673 H 0.59137 0.88811 0.56062 0.0
C1674 C 0.14047 0.69767 0.65778 0.0
C1675 C 0.1114 0.66857 0.64043 0.0
C1676 C 0.09077 0.66403 0.75131 0.0
C1677 C 0.12172 0.69035 0.77037 0.0
N1678 N 0.17799 0.72912 0.74312 0.0
N1679 N 0.06016 0.62171 0.67247 0.0
C1680 C 0.14706 0.70648 0.72389 0.0
C1681 C 0.08673 0.6512 0.6876 0.0
N1682 N 0.16154 0.71735 0.61083 0.0
N1683 N 0.06504 0.65177 0.79368 0.0
H1684 H 0.05631 0.61149 0.62657 0.0
H1685 H 0.04336 0.60615 0.70664 0.0
H1686 H 0.06711 0.66071 0.84045 0.0
H1687 H 0.04105 0.63492 0.7807 0.0
H1688 H 0.18124 0.74057 0.61994 0.0
H1689 H 0.1575 0.71186 0.56186 0.0
H1690 H 0.19823 0.73889 0.71235 0.0
H1691 H 0.18418 0.73602 0.79106 0.0
loop_
_geom_bond_atom_site_label_1
_geom_bond_atom_site_label_2
_geom_bond_distance
_geom_bond_site_symmetry_2
_ccdc_geom_bond_type
Tb0 C9 2.764 . S
Tb0 O10 2.325 1_455 S
Tb0 O13 2.303 1_455 S
Tb0 O17 2.322 . S
Tb0 O18 2.349 . S
Tb0 O21 2.415 . S
Tb0 O22 2.399 . S
Tb1 O11 2.322 . S
Tb1 O12 2.349 . S
Tb1 O14 2.415 1_655 S
Tb1 O15 2.399 . S
Tb1 O16 2.325 1_655 S
Tb1 O19 2.303 1_655 S
Tb1 C30 2.764 . S
C2 O18 1.261 . S
C2 O19 1.257 . S
C3 C6 1.358 . S
C3 C7 1.332 1_455 S
C3 C9 1.504 . S
C4 C5 1.373 . S
C4 C8 1.308 1_455 S
C5 C4 1.373 . S
C5 C6 1.429 . S
C5 H32 0.932 . S
C6 C3 1.358 . S
C6 C5 1.429 . S
C6 H33 0.930 . S
C7 C3 1.332 1_655 S
C7 C8 1.394 . S
C7 H34 0.932 . S
C8 C4 1.308 1_655 S
C8 C7 1.394 . S
C8 H35 0.929 . S
C9 Tb0 2.764 . S
C9 C3 1.504 . S
C9 O21 1.239 . S
C9 O22 1.263 . S
O10 Tb0 2.325 1_655 S
O10 C20 1.236 . S
O11 Tb1 2.322 . S
O11 C20 1.257 . S
O12 Tb1 2.349 . S
O12 C23 1.261 . S
O13 Tb0 2.303 1_655 S
O13 C23 1.257 . S
O14 Tb1 2.415 1_455 S
O14 C30 1.239 1_455 S
O15 Tb1 2.399 . S
O15 C30 1.263 . S
O16 Tb1 2.325 1_455 S
O16 C31 1.236 . S
O17 Tb0 2.322 . S
O17 C31 1.257 . S
O18 Tb0 2.349 . S
O18 C2 1.261 . S
O19 Tb1 2.303 1_455 S
O19 C2 1.257 . S
C20 O10 1.236 . S
C20 O11 1.257 . S
O21 Tb0 2.415 . S
O21 C9 1.239 . S
O22 Tb0 2.399 . S
O22 C9 1.263 . S
C23 O12 1.261 . S
C23 O13 1.257 . S
C24 C27 1.344 1_455 S
C24 C28 1.353 . S
C24 C30 1.498 1_455 S
C25 C26 1.373 1_455 S
C25 C29 1.308 . S
C26 C25 1.373 1_655 S
C26 C27 1.429 . S
C26 H36 0.932 . S
C27 C24 1.344 1_655 S
C27 C26 1.429 . S
C27 H37 0.930 . S
C28 C24 1.353 . S
C28 C29 1.394 . S
C28 H38 0.932 . S
C29 C25 1.308 . S
C29 C28 1.394 . S
C29 H39 0.929 . S
C30 Tb1 2.764 . S
C30 O14 1.239 1_655 S
C30 O15 1.263 . S
C30 C24 1.498 1_655 S
C31 O16 1.236 . S
C31 O17 1.257 . S
H32 C5 0.932 . S
H33 C6 0.930 . S
H34 C7 0.932 . S
H35 C8 0.929 . S
H36 C26 0.932 . S
H37 C27 0.930 . S
H38 C28 0.932 . S
H39 C29 0.929 . S
Tb40 C49 2.764 . S
Tb40 O50 2.325 . S
Tb40 O53 2.303 . S
Tb40 O57 2.322 . S
Tb40 O58 2.349 . S
Tb40 O61 2.415 . S
Tb40 O62 2.399 . S
Tb41 O51 2.322 . S
Tb41 O52 2.349 . S
Tb41 O54 2.415 . S
Tb41 O55 2.399 . S
Tb41 O56 2.325 . S
Tb41 O59 2.303 . S
Tb41 C70 2.764 . S
C42 O58 1.261 . S
C42 O59 1.257 . S
C43 C46 1.358 . S
C43 C47 1.332 . S
C43 C49 1.504 . S
C44 C45 1.373 . S
C44 C48 1.308 . S
C45 C44 1.373 . S
C45 C46 1.429 . S
C45 H72 0.932 . S
C46 C43 1.358 . S
C46 C45 1.429 . S
C46 H73 0.930 . S
C47 C43 1.332 . S
C47 C48 1.394 . S
C47 H74 0.932 . S
C48 C44 1.308 . S
C48 C47 1.394 . S
C48 H75 0.929 . S
C49 Tb40 2.764 . S
C49 C43 1.504 . S
C49 O61 1.239 . S
C49 O62 1.263 . S
O50 Tb40 2.325 . S
O50 C60 1.236 . S
O51 Tb41 2.322 . S
O51 C60 1.257 . S
O52 Tb41 2.349 . S
O52 C63 1.261 . S
O53 Tb40 2.303 . S
O53 C63 1.257 . S
O54 Tb41 2.415 . S
O54 C70 1.239 . S
O55 Tb41 2.399 . S
O55 C70 1.263 . S
O56 Tb41 2.325 . S
O56 C71 1.236 . S
O57 Tb40 2.322 . S
O57 C71 1.257 . S
O58 Tb40 2.349 . S
O58 C42 1.261 . S
O59 Tb41 2.303 . S
O59 C42 1.257 . S
C60 O50 1.236 . S
C60 O51 1.257 . S
O61 Tb40 2.415 . S
O61 C49 1.239 . S
O62 Tb40 2.399 . S
O62 C49 1.263 . S
C63 O52 1.261 . S
C63 O53 1.257 . S
C64 C67 1.358 . S
C64 C68 1.332 . S
C64 C70 1.504 . S
C65 C66 1.373 . S
C65 C69 1.308 . S
C66 C65 1.373 . S
C66 C67 1.429 . S
C66 H76 0.932 . S
C67 C64 1.358 . S
C67 C66 1.429 . S
C67 H77 0.930 . S
C68 C64 1.332 . S
C68 C69 1.394 . S
C68 H78 0.932 . S
C69 C65 1.308 . S
C69 C68 1.394 . S
C69 H79 0.929 . S
C70 Tb41 2.764 . S
C70 O54 1.239 . S
C70 O55 1.263 . S
C70 C64 1.504 . S
C71 O56 1.236 . S
C71 O57 1.257 . S
H72 C45 0.932 . S
H73 C46 0.930 . S
H74 C47 0.932 . S
H75 C48 0.929 . S
H76 C66 0.932 . S
H77 C67 0.930 . S
H78 C68 0.932 . S
H79 C69 0.929 . S
Tb80 C89 2.764 . S
Tb80 O90 2.325 1_565 S
Tb80 O93 2.303 1_565 S
Tb80 O97 2.322 . S
Tb80 O98 2.349 . S
Tb80 O101 2.415 1_565 S
Tb80 O102 2.399 . S
Tb81 O91 2.322 . S
Tb81 O92 2.349 . S
Tb81 O94 2.414 1_545 S
Tb81 O95 2.399 . S
Tb81 O96 2.325 1_545 S
Tb81 O99 2.303 1_545 S
Tb81 C110 2.764 . S
C82 O98 1.261 . S
C82 O99 1.257 . S
C83 C86 1.358 . S
C83 C87 1.332 1_565 S
C83 C89 1.504 . S
C84 C85 1.335 1_545 S
C84 C88 1.344 . S
C85 C84 1.335 1_565 S
C85 C86 1.429 . S
C85 H112 0.932 . S
C86 C83 1.358 . S
C86 C85 1.429 . S
C86 H113 0.930 . S
C87 C83 1.332 1_545 S
C87 C88 1.394 . S
C87 H114 0.932 . S
C88 C84 1.344 . S
C88 C87 1.394 . S
C88 H115 0.929 . S
C89 Tb80 2.764 . S
C89 C83 1.504 . S
C89 O101 1.239 1_565 S
C89 O102 1.263 . S
O90 Tb80 2.325 1_545 S
O90 C100 1.236 . S
O91 Tb81 2.322 . S
O91 C100 1.257 . S
O92 Tb81 2.349 . S
O92 C103 1.261 . S
O93 Tb80 2.303 1_545 S
O93 C103 1.257 . S
O94 Tb81 2.414 1_565 S
O94 C110 1.238 1_565 S
O95 Tb81 2.399 . S
O95 C110 1.263 . S
O96 Tb81 2.325 1_565 S
O96 C111 1.236 . S
O97 Tb80 2.322 . S
O97 C111 1.257 . S
O98 Tb80 2.349 . S
O98 C82 1.261 . S
O99 Tb81 2.303 1_565 S
O99 C82 1.257 . S
C100 O90 1.236 . S
C100 O91 1.257 . S
O101 Tb80 2.415 1_545 S
O101 C89 1.239 1_545 S
O102 Tb80 2.399 . S
O102 C89 1.263 . S
C103 O92 1.261 . S
C103 O93 1.257 . S
C104 C107 1.358 . S
C104 C108 1.332 1_545 S
C104 C110 1.504 . S
C105 C106 1.373 . S
C105 C109 1.308 1_545 S
C106 C105 1.373 . S
C106 C107 1.429 . S
C106 H116 0.932 . S
C107 C104 1.358 . S
C107 C106 1.429 . S
C107 H117 0.930 . S
C108 C104 1.332 1_565 S
C108 C109 1.394 . S
C108 H118 0.932 . S
C109 C105 1.308 1_565 S
C109 C108 1.394 . S
C109 H119 0.929 . S
C110 Tb81 2.764 . S
C110 O94 1.238 1_545 S
C110 O95 1.263 . S
C110 C104 1.504 . S
C111 O96 1.236 . S
C111 O97 1.257 . S
H112 C85 0.932 . S
H113 C86 0.930 . S
H114 C87 0.932 . S
H115 C88 0.929 . S
H116 C106 0.932 . S
H117 C107 0.930 . S
H118 C108 0.932 . S
H119 C109 0.929 . S
Tb120 C129 2.764 . S
Tb120 O130 2.325 1_455 S
Tb120 O133 2.303 1_455 S
Tb120 O137 2.322 . S
Tb120 O138 2.349 . S
Tb120 O141 2.409 1_455 S
Tb120 O142 2.399 . S
Tb121 O131 2.322 . S
Tb121 O132 2.349 . S
Tb121 O134 2.415 1_655 S
Tb121 O135 2.399 . S
Tb121 O136 2.325 1_655 S
Tb121 O139 2.303 1_655 S
Tb121 C150 2.764 . S
C122 O138 1.261 . S
C122 O139 1.257 . S
C123 C126 1.358 . S
C123 C127 1.332 1_455 S
C123 C129 1.504 . S
C124 C125 1.373 . S
C124 C128 1.308 1_455 S
C125 C124 1.373 . S
C125 C126 1.429 . S
C125 H152 0.932 . S
C126 C123 1.358 . S
C126 C125 1.429 . S
C126 H153 0.930 . S
C127 C123 1.332 1_655 S
C127 C128 1.394 . S
C127 H154 0.932 . S
C128 C124 1.308 1_655 S
C128 C127 1.394 . S
C128 H155 0.929 . S
C129 Tb120 2.764 . S
C129 C123 1.504 . S
C129 O141 1.234 1_455 S
C129 O142 1.263 . S
O130 Tb120 2.325 1_655 S
O130 C140 1.236 . S
O131 Tb121 2.322 . S
O131 C140 1.257 . S
O132 Tb121 2.349 . S
O132 C143 1.261 . S
O133 Tb120 2.303 1_655 S
O133 C143 1.257 . S
O134 Tb121 2.415 1_455 S
O134 C150 1.239 1_455 S
O135 Tb121 2.399 . S
O135 C150 1.263 . S
O136 Tb121 2.325 1_455 S
O136 C151 1.236 . S
O137 Tb120 2.322 . S
O137 C151 1.257 . S
O138 Tb120 2.349 . S
O138 C122 1.261 . S
O139 Tb121 2.303 1_455 S
O139 C122 1.257 . S
C140 O130 1.236 . S
C140 O131 1.257 . S
O141 Tb120 2.409 1_655 S
O141 C129 1.234 1_655 S
O142 Tb120 2.399 . S
O142 C129 1.263 . S
C143 O132 1.261 . S
C143 O133 1.257 . S
C144 C147 1.358 . S
C144 C148 1.332 1_655 S
C144 C150 1.504 . S
C145 C146 1.359 1_455 S
C145 C149 1.319 . S
C146 C145 1.359 1_655 S
C146 C147 1.429 . S
C146 H156 0.932 . S
C147 C144 1.358 . S
C147 C146 1.429 . S
C147 H157 0.930 . S
C148 C144 1.332 1_455 S
C148 C149 1.394 . S
C148 H158 0.932 . S
C149 C145 1.319 . S
C149 C148 1.394 . S
C149 H159 0.929 . S
C150 Tb121 2.764 . S
C150 O134 1.239 1_655 S
C150 O135 1.263 . S
C150 C144 1.504 . S
C151 O136 1.236 . S
C151 O137 1.257 . S
H152 C125 0.932 . S
H153 C126 0.930 . S
H154 C127 0.932 . S
H155 C128 0.929 . S
H156 C146 0.932 . S
H157 C147 0.930 . S
H158 C148 0.932 . S
H159 C149 0.929 . S
Tb160 C169 2.764 . S
Tb160 O170 2.325 . S
Tb160 O173 2.303 . S
Tb160 O177 2.322 . S
Tb160 O178 2.349 . S
Tb160 O181 2.415 . S
Tb160 O182 2.399 . S
Tb161 O171 2.322 . S
Tb161 O172 2.349 . S
Tb161 O174 2.415 . S
Tb161 O175 2.399 . S
Tb161 O176 2.325 . S
Tb161 O179 2.303 . S
Tb161 C190 2.764 . S
C162 O178 1.261 . S
C162 O179 1.257 . S
C163 C166 1.358 . S
C163 C167 1.332 . S
C163 C169 1.504 . S
C164 C165 1.373 . S
C164 C168 1.308 . S
C165 C164 1.373 . S
C165 C166 1.429 . S
C165 H192 0.932 . S
C166 C163 1.358 . S
C166 C165 1.429 . S
C166 H193 0.930 . S
C167 C163 1.332 . S
C167 C168 1.394 . S
C167 H194 0.932 . S
C168 C164 1.308 . S
C168 C167 1.394 . S
C168 H195 0.929 . S
C169 Tb160 2.764 . S
C169 C163 1.504 . S
C169 O181 1.239 . S
C169 O182 1.263 . S
O170 Tb160 2.325 . S
O170 C180 1.236 . S
O171 Tb161 2.322 . S
O171 C180 1.257 . S
O172 Tb161 2.349 . S
O172 C183 1.261 . S
O173 Tb160 2.303 . S
O173 C183 1.257 . S
O174 Tb161 2.415 . S
O174 C190 1.239 . S
O175 Tb161 2.399 . S
O175 C190 1.263 . S
O176 Tb161 2.325 . S
O176 C191 1.236 . S
O177 Tb160 2.322 . S
O177 C191 1.257 . S
O178 Tb160 2.349 . S
O178 C162 1.261 . S
O179 Tb161 2.303 . S
O179 C162 1.257 . S
C180 O170 1.236 . S
C180 O171 1.257 . S
O181 Tb160 2.415 . S
O181 C169 1.239 . S
O182 Tb160 2.399 . S
O182 C169 1.263 . S
C183 O172 1.261 . S
C183 O173 1.257 . S
C184 C187 1.358 . S
C184 C188 1.332 . S
C184 C190 1.504 . S
C185 C186 1.373 . S
C185 C189 1.308 . S
C186 C185 1.373 . S
C186 C187 1.429 . S
C186 H196 0.932 . S
C187 C184 1.358 . S
C187 C186 1.429 . S
C187 H197 0.930 . S
C188 C184 1.332 . S
C188 C189 1.394 . S
C188 H198 0.932 . S
C189 C185 1.308 . S
C189 C188 1.394 . S
C189 H199 0.929 . S
C190 Tb161 2.764 . S
C190 O174 1.239 . S
C190 O175 1.263 . S
C190 C184 1.504 . S
C191 O176 1.236 . S
C191 O177 1.257 . S
H192 C165 0.932 . S
H193 C166 0.930 . S
H194 C167 0.932 . S
H195 C168 0.929 . S
H196 C186 0.932 . S
H197 C187 0.930 . S
H198 C188 0.932 . S
H199 C189 0.929 . S
Tb200 C209 2.764 . S
Tb200 O210 2.325 1_565 S
Tb200 O213 2.303 1_565 S
Tb200 O217 2.322 . S
Tb200 O218 2.349 . S
Tb200 O221 2.415 1_565 S
Tb200 O222 2.399 . S
Tb201 O211 2.322 . S
Tb201 O212 2.349 . S
Tb201 O214 2.415 . S
Tb201 O215 2.399 . S
Tb201 O216 2.325 1_545 S
Tb201 O219 2.303 1_545 S
Tb201 C230 2.764 . S
C202 O218 1.261 . S
C202 O219 1.257 . S
C203 C206 1.358 1_545 S
C203 C207 1.332 . S
C203 C209 1.504 1_545 S
C204 C205 1.373 1_545 S
C204 C208 1.308 . S
C205 C204 1.373 1_565 S
C205 C206 1.429 . S
C205 H232 0.932 . S
C206 C203 1.358 1_565 S
C206 C205 1.429 . S
C206 H233 0.930 . S
C207 C203 1.332 . S
C207 C208 1.394 . S
C207 H234 0.932 . S
C208 C204 1.308 . S
C208 C207 1.394 . S
C208 H235 0.929 . S
C209 Tb200 2.764 . S
C209 C203 1.504 1_565 S
C209 O221 1.239 1_565 S
C209 O222 1.263 . S
O210 Tb200 2.325 1_545 S
O210 C220 1.236 . S
O211 Tb201 2.322 . S
O211 C220 1.257 . S
O212 Tb201 2.349 . S
O212 C223 1.261 . S
O213 Tb200 2.303 1_545 S
O213 C223 1.257 . S
O214 Tb201 2.415 . S
O214 C230 1.239 . S
O215 Tb201 2.399 . S
O215 C230 1.263 . S
O216 Tb201 2.325 1_565 S
O216 C231 1.236 . S
O217 Tb200 2.322 . S
O217 C231 1.257 . S
O218 Tb200 2.349 . S
O218 C202 1.261 . S
O219 Tb201 2.303 1_565 S
O219 C202 1.257 . S
C220 O210 1.236 . S
C220 O211 1.257 . S
O221 Tb200 2.415 1_545 S
O221 C209 1.239 1_545 S
O222 Tb200 2.399 . S
O222 C209 1.263 . S
C223 O212 1.261 . S
C223 O213 1.257 . S
C224 C227 1.358 . S
C224 C228 1.332 1_545 S
C224 C230 1.504 . S
C225 C226 1.373 . S
C225 C229 1.308 1_545 S
C226 C225 1.373 . S
C226 C227 1.429 . S
C226 H236 0.932 . S
C227 C224 1.358 . S
C227 C226 1.429 . S
C227 H237 0.930 . S
C228 C224 1.332 1_565 S
C228 C229 1.394 . S
C228 H238 0.932 . S
C229 C225 1.308 1_565 S
C229 C228 1.394 . S
C229 H239 0.929 . S
C230 Tb201 2.764 . S
C230 O214 1.239 . S
C230 O215 1.263 . S
C230 C224 1.504 . S
C231 O216 1.236 . S
C231 O217 1.257 . S
H232 C205 0.932 . S
H233 C206 0.930 . S
H234 C207 0.932 . S
H235 C208 0.929 . S
H236 C226 0.932 . S
H237 C227 0.930 . S
H238 C228 0.932 . S
H239 C229 0.929 . S
Tb240 C249 2.764 1_556 S
Tb240 O250 2.325 . S
Tb240 O253 2.303 . S
Tb240 O257 2.322 . S
Tb240 O258 2.349 . S
Tb240 O261 2.415 1_556 S
Tb240 O262 2.399 1_556 S
Tb241 O251 2.322 . S
Tb241 O252 2.349 . S
Tb241 O254 2.415 . S
Tb241 O255 2.399 . S
Tb241 O256 2.325 . S
Tb241 O259 2.303 . S
Tb241 C270 2.764 . S
C242 O258 1.261 . S
C242 O259 1.257 . S
C243 C246 1.358 . S
C243 C247 1.332 . S
C243 C249 1.504 . S
C244 C245 1.373 . S
C244 C248 1.308 . S
C245 C244 1.373 . S
C245 C246 1.429 . S
C245 H272 0.932 . S
C246 C243 1.358 . S
C246 C245 1.429 . S
C246 H273 0.930 . S
C247 C243 1.332 . S
C247 C248 1.394 . S
C247 H274 0.932 . S
C248 C244 1.308 . S
C248 C247 1.394 . S
C248 H275 0.929 . S
C249 Tb240 2.764 1_554 S
C249 C243 1.504 . S
C249 O261 1.239 . S
C249 O262 1.263 . S
O250 Tb240 2.325 . S
O250 C260 1.236 . S
O251 Tb241 2.322 . S
O251 C260 1.257 . S
O252 Tb241 2.349 . S
O252 C263 1.261 . S
O253 Tb240 2.303 . S
O253 C263 1.257 . S
O254 Tb241 2.415 . S
O254 C270 1.239 . S
O255 Tb241 2.399 . S
O255 C270 1.263 . S
O256 Tb241 2.325 . S
O256 C271 1.236 . S
O257 Tb240 2.322 . S
O257 C271 1.257 . S
O258 Tb240 2.349 . S
O258 C242 1.261 . S
O259 Tb241 2.303 . S
O259 C242 1.257 . S
C260 O250 1.236 . S
C260 O251 1.257 . S
O261 Tb240 2.415 1_554 S
O261 C249 1.239 . S
O262 Tb240 2.399 1_554 S
O262 C249 1.263 . S
C263 O252 1.261 . S
C263 O253 1.257 . S
C264 C267 1.358 . S
C264 C268 1.332 . S
C264 C270 1.504 . S
C265 C266 1.373 . S
C265 C269 1.308 . S
C266 C265 1.373 . S
C266 C267 1.429 . S
C266 H276 0.932 . S
C267 C264 1.358 . S
C267 C266 1.429 . S
C267 H277 0.930 . S
C268 C264 1.332 . S
C268 C269 1.394 . S
C268 H278 0.932 . S
C269 C265 1.308 . S
C269 C268 1.394 . S
C269 H279 0.929 . S
C270 Tb241 2.764 . S
C270 O254 1.239 . S
C270 O255 1.263 . S
C270 C264 1.504 . S
C271 O256 1.236 . S
C271 O257 1.257 . S
H272 C245 0.932 . S
H273 C246 0.930 . S
H274 C247 0.932 . S
H275 C248 0.929 . S
H276 C266 0.932 . S
H277 C267 0.930 . S
H278 C268 0.932 . S
H279 C269 0.929 . S
Tb280 C289 2.764 1_556 S
Tb280 O290 2.325 . S
Tb280 O293 2.303 . S
Tb280 O297 2.322 . S
Tb280 O298 2.349 . S
Tb280 O301 2.415 1_556 S
Tb280 O302 2.399 1_556 S
Tb281 O291 2.322 . S
Tb281 O292 2.349 . S
Tb281 O294 2.415 . S
Tb281 O295 2.399 . S
Tb281 O296 2.325 . S
Tb281 O299 2.303 . S
Tb281 C310 2.764 . S
C282 O298 1.261 . S
C282 O299 1.257 . S
C283 C286 1.358 . S
C283 C287 1.332 . S
C283 C289 1.504 . S
C284 C285 1.373 . S
C284 C288 1.308 . S
C285 C284 1.373 . S
C285 C286 1.429 . S
C285 H312 0.932 . S
C286 C283 1.358 . S
C286 C285 1.429 . S
C286 H313 0.930 . S
C287 C283 1.332 . S
C287 C288 1.394 . S
C287 H314 0.932 . S
C288 C284 1.308 . S
C288 C287 1.394 . S
C288 H315 0.929 . S
C289 Tb280 2.764 1_554 S
C289 C283 1.504 . S
C289 O301 1.239 . S
C289 O302 1.263 . S
O290 Tb280 2.325 . S
O290 C300 1.236 . S
O291 Tb281 2.322 . S
O291 C300 1.257 . S
O292 Tb281 2.349 . S
O292 C303 1.261 . S
O293 Tb280 2.303 . S
O293 C303 1.257 . S
O294 Tb281 2.415 . S
O294 C310 1.239 . S
O295 Tb281 2.399 . S
O295 C310 1.263 . S
O296 Tb281 2.325 . S
O296 C311 1.236 . S
O297 Tb280 2.322 . S
O297 C311 1.257 . S
O298 Tb280 2.349 . S
O298 C282 1.261 . S
O299 Tb281 2.303 . S
O299 C282 1.257 . S
C300 O290 1.236 . S
C300 O291 1.257 . S
O301 Tb280 2.415 1_554 S
O301 C289 1.239 . S
O302 Tb280 2.399 1_554 S
O302 C289 1.263 . S
C303 O292 1.261 . S
C303 O293 1.257 . S
C304 C307 1.358 . S
C304 C308 1.332 . S
C304 C310 1.504 . S
C305 C306 1.373 . S
C305 C309 1.308 . S
C306 C305 1.373 . S
C306 C307 1.429 . S
C306 H316 0.932 . S
C307 C304 1.358 . S
C307 C306 1.429 . S
C307 H317 0.930 . S
C308 C304 1.332 . S
C308 C309 1.394 . S
C308 H318 0.932 . S
C309 C305 1.308 . S
C309 C308 1.394 . S
C309 H319 0.929 . S
C310 Tb281 2.764 . S
C310 O294 1.239 . S
C310 O295 1.263 . S
C310 C304 1.504 . S
C311 O296 1.236 . S
C311 O297 1.257 . S
H312 C285 0.932 . S
H313 C286 0.930 . S
H314 C287 0.932 . S
H315 C288 0.929 . S
H316 C306 0.932 . S
H317 C307 0.930 . S
H318 C308 0.932 . S
H319 C309 0.929 . S
Tb320 C329 2.764 1_556 S
Tb320 O330 2.325 . S
Tb320 O333 2.303 . S
Tb320 O337 2.322 . S
Tb320 O338 2.349 . S
Tb320 O341 2.415 1_556 S
Tb320 O342 2.399 1_556 S
Tb321 O331 2.322 . S
Tb321 O332 2.349 . S
Tb321 O334 2.415 . S
Tb321 O335 2.399 . S
Tb321 O336 2.325 . S
Tb321 O339 2.303 . S
Tb321 C350 2.764 . S
C322 O338 1.261 . S
C322 O339 1.257 . S
C323 C326 1.358 . S
C323 C327 1.332 . S
C323 C329 1.504 . S
C324 C325 1.373 . S
C324 C328 1.308 . S
C325 C324 1.373 . S
C325 C326 1.429 . S
C325 H352 0.932 . S
C326 C323 1.358 . S
C326 C325 1.429 . S
C326 H353 0.930 . S
C327 C323 1.332 . S
C327 C328 1.394 . S
C327 H354 0.932 . S
C328 C324 1.308 . S
C328 C327 1.394 . S
C328 H355 0.929 . S
C329 Tb320 2.764 1_554 S
C329 C323 1.504 . S
C329 O341 1.239 . S
C329 O342 1.263 . S
O330 Tb320 2.325 . S
O330 C340 1.236 . S
O331 Tb321 2.322 . S
O331 C340 1.257 . S
O332 Tb321 2.349 . S
O332 C343 1.261 . S
O333 Tb320 2.303 . S
O333 C343 1.257 . S
O334 Tb321 2.415 . S
O334 C350 1.239 . S
O335 Tb321 2.399 . S
O335 C350 1.263 . S
O336 Tb321 2.325 . S
O336 C351 1.236 . S
O337 Tb320 2.322 . S
O337 C351 1.257 . S
O338 Tb320 2.349 . S
O338 C322 1.261 . S
O339 Tb321 2.303 . S
O339 C322 1.257 . S
C340 O330 1.236 . S
C340 O331 1.257 . S
O341 Tb320 2.415 1_554 S
O341 C329 1.239 . S
O342 Tb320 2.399 1_554 S
O342 C329 1.263 . S
C343 O332 1.261 . S
C343 O333 1.257 . S
C344 C347 1.358 . S
C344 C348 1.332 . S
C344 C350 1.504 . S
C345 C346 1.373 . S
C345 C349 1.308 . S
C346 C345 1.373 . S
C346 C347 1.429 . S
C346 H356 0.932 . S
C347 C344 1.358 . S
C347 C346 1.429 . S
C347 H357 0.930 . S
C348 C344 1.332 . S
C348 C349 1.394 . S
C348 H358 0.932 . S
C349 C345 1.308 . S
C349 C348 1.394 . S
C349 H359 0.929 . S
C350 Tb321 2.764 . S
C350 O334 1.239 . S
C350 O335 1.263 . S
C350 C344 1.504 . S
C351 O336 1.236 . S
C351 O337 1.257 . S
H352 C325 0.932 . S
H353 C326 0.930 . S
H354 C327 0.932 . S
H355 C328 0.929 . S
H356 C346 0.932 . S
H357 C347 0.930 . S
H358 C348 0.932 . S
H359 C349 0.929 . S
Tb360 C369 2.764 . S
Tb360 O370 2.325 . S
Tb360 O373 2.303 . S
Tb360 O377 2.322 . S
Tb360 O378 2.349 . S
Tb360 O381 2.415 . S
Tb360 O382 2.399 . S
Tb361 O371 2.322 . S
Tb361 O372 2.349 . S
Tb361 O374 2.415 . S
Tb361 O375 2.399 . S
Tb361 O376 2.325 . S
Tb361 O379 2.303 . S
Tb361 C390 2.764 . S
C362 O378 1.261 . S
C362 O379 1.257 . S
C363 C366 1.358 . S
C363 C367 1.332 . S
C363 C369 1.504 1_554 S
C364 C365 1.373 . S
C364 C368 1.308 . S
C365 C364 1.373 . S
C365 C366 1.429 . S
C365 H392 0.932 . S
C366 C363 1.358 . S
C366 C365 1.429 . S
C366 H393 0.930 . S
C367 C363 1.332 . S
C367 C368 1.394 . S
C367 H394 0.932 . S
C368 C364 1.308 . S
C368 C367 1.394 . S
C368 H395 0.929 . S
C369 Tb360 2.764 . S
C369 C363 1.504 1_556 S
C369 O381 1.239 . S
C369 O382 1.263 . S
O370 Tb360 2.325 . S
O370 C380 1.236 . S
O371 Tb361 2.322 . S
O371 C380 1.257 . S
O372 Tb361 2.349 . S
O372 C383 1.261 . S
O373 Tb360 2.303 . S
O373 C383 1.257 . S
O374 Tb361 2.415 . S
O374 C390 1.239 . S
O375 Tb361 2.399 . S
O375 C390 1.263 . S
O376 Tb361 2.325 . S
O376 C391 1.236 . S
O377 Tb360 2.322 . S
O377 C391 1.257 . S
O378 Tb360 2.349 . S
O378 C362 1.261 . S
O379 Tb361 2.303 . S
O379 C362 1.257 . S
C380 O370 1.236 . S
C380 O371 1.257 . S
O381 Tb360 2.415 . S
O381 C369 1.239 . S
O382 Tb360 2.399 . S
O382 C369 1.263 . S
C383 O372 1.261 . S
C383 O373 1.257 . S
C384 C387 1.358 . S
C384 C388 1.332 . S
C384 C390 1.504 . S
C385 C386 1.373 . S
C385 C389 1.308 . S
C386 C385 1.373 . S
C386 C387 1.429 . S
C386 H396 0.932 . S
C387 C384 1.358 . S
C387 C386 1.429 . S
C387 H397 0.930 . S
C388 C384 1.332 . S
C388 C389 1.394 . S
C388 H398 0.932 . S
C389 C385 1.308 . S
C389 C388 1.394 . S
C389 H399 0.929 . S
C390 Tb361 2.764 . S
C390 O374 1.239 . S
C390 O375 1.263 . S
C390 C384 1.504 . S
C391 O376 1.236 . S
C391 O377 1.257 . S
H392 C365 0.932 . S
H393 C366 0.930 . S
H394 C367 0.932 . S
H395 C368 0.929 . S
H396 C386 0.932 . S
H397 C387 0.930 . S
H398 C388 0.932 . S
H399 C389 0.929 . S
Tb400 C409 2.764 . S
Tb400 O410 2.325 . S
Tb400 O413 2.303 . S
Tb400 O417 2.322 . S
Tb400 O418 2.349 . S
Tb400 O421 2.415 . S
Tb400 O422 2.399 . S
Tb401 O411 2.322 . S
Tb401 O412 2.349 . S
Tb401 O414 2.415 . S
Tb401 O415 2.399 . S
Tb401 O416 2.325 . S
Tb401 O419 2.303 . S
Tb401 C430 2.764 . S
C402 O418 1.261 . S
C402 O419 1.257 . S
C403 C406 1.358 . S
C403 C407 1.332 . S
C403 C409 1.504 1_554 S
C404 C405 1.373 . S
C404 C408 1.308 . S
C405 C404 1.373 . S
C405 C406 1.429 . S
C405 H432 0.932 . S
C406 C403 1.358 . S
C406 C405 1.429 . S
C406 H433 0.930 . S
C407 C403 1.332 . S
C407 C408 1.394 . S
C407 H434 0.932 . S
C408 C404 1.308 . S
C408 C407 1.394 . S
C408 H435 0.929 . S
C409 Tb400 2.764 . S
C409 C403 1.504 1_556 S
C409 O421 1.239 . S
C409 O422 1.263 . S
O410 Tb400 2.325 . S
O410 C420 1.236 . S
O411 Tb401 2.322 . S
O411 C420 1.257 . S
O412 Tb401 2.349 . S
O412 C423 1.261 . S
O413 Tb400 2.303 . S
O413 C423 1.257 . S
O414 Tb401 2.415 . S
O414 C430 1.239 . S
O415 Tb401 2.399 . S
O415 C430 1.263 . S
O416 Tb401 2.325 . S
O416 C431 1.236 . S
O417 Tb400 2.322 . S
O417 C431 1.257 . S
O418 Tb400 2.349 . S
O418 C402 1.261 . S
O419 Tb401 2.303 . S
O419 C402 1.257 . S
C420 O410 1.236 . S
C420 O411 1.257 . S
O421 Tb400 2.415 . S
O421 C409 1.239 . S
O422 Tb400 2.399 . S
O422 C409 1.263 . S
C423 O412 1.261 . S
C423 O413 1.257 . S
C424 C427 1.358 . S
C424 C428 1.332 . S
C424 C430 1.504 . S
C425 C426 1.373 . S
C425 C429 1.308 . S
C426 C425 1.373 . S
C426 C427 1.429 . S
C426 H436 0.932 . S
C427 C424 1.358 . S
C427 C426 1.429 . S
C427 H437 0.930 . S
C428 C424 1.332 . S
C428 C429 1.394 . S
C428 H438 0.932 . S
C429 C425 1.308 . S
C429 C428 1.394 . S
C429 H439 0.929 . S
C430 Tb401 2.764 . S
C430 O414 1.239 . S
C430 O415 1.263 . S
C430 C424 1.504 . S
C431 O416 1.236 . S
C431 O417 1.257 . S
H432 C405 0.932 . S
H433 C406 0.930 . S
H434 C407 0.932 . S
H435 C408 0.929 . S
H436 C426 0.932 . S
H437 C427 0.930 . S
H438 C428 0.932 . S
H439 C429 0.929 . S
Tb440 C449 2.764 . S
Tb440 O450 2.325 . S
Tb440 O453 2.303 . S
Tb440 O457 2.322 . S
Tb440 O458 2.349 . S
Tb440 O461 2.415 . S
Tb440 O462 2.399 . S
Tb441 O451 2.322 . S
Tb441 O452 2.349 . S
Tb441 O454 2.415 . S
Tb441 O455 2.399 . S
Tb441 O456 2.325 . S
Tb441 O459 2.303 . S
Tb441 C470 2.764 . S
C442 O458 1.261 . S
C442 O459 1.257 . S
C443 C446 1.358 . S
C443 C447 1.332 . S
C443 C449 1.504 1_554 S
C444 C445 1.373 . S
C444 C448 1.308 . S
C445 C444 1.373 . S
C445 C446 1.429 . S
C445 H472 0.932 . S
C446 C443 1.358 . S
C446 C445 1.429 . S
C446 H473 0.930 . S
C447 C443 1.332 . S
C447 C448 1.394 . S
C447 H474 0.932 . S
C448 C444 1.308 . S
C448 C447 1.394 . S
C448 H475 0.929 . S
C449 Tb440 2.764 . S
C449 C443 1.504 1_556 S
C449 O461 1.239 . S
C449 O462 1.263 . S
O450 Tb440 2.325 . S
O450 C460 1.236 . S
O451 Tb441 2.322 . S
O451 C460 1.257 . S
O452 Tb441 2.349 . S
O452 C463 1.261 . S
O453 Tb440 2.303 . S
O453 C463 1.257 . S
O454 Tb441 2.415 . S
O454 C470 1.239 . S
O455 Tb441 2.399 . S
O455 C470 1.263 . S
O456 Tb441 2.325 . S
O456 C471 1.236 . S
O457 Tb440 2.322 . S
O457 C471 1.257 . S
O458 Tb440 2.349 . S
O458 C442 1.261 . S
O459 Tb441 2.303 . S
O459 C442 1.257 . S
C460 O450 1.236 . S
C460 O451 1.257 . S
O461 Tb440 2.415 . S
O461 C449 1.239 . S
O462 Tb440 2.399 . S
O462 C449 1.263 . S
C463 O452 1.261 . S
C463 O453 1.257 . S
C464 C467 1.358 . S
C464 C468 1.332 . S
C464 C470 1.504 . S
C465 C466 1.373 . S
C465 C469 1.308 . S
C466 C465 1.373 . S
C466 C467 1.429 . S
C466 H476 0.932 . S
C467 C464 1.358 . S
C467 C466 1.429 . S
C467 H477 0.930 . S
C468 C464 1.332 . S
C468 C469 1.394 . S
C468 H478 0.932 . S
C469 C465 1.308 . S
C469 C468 1.394 . S
C469 H479 0.929 . S
C470 Tb441 2.764 . S
C470 O454 1.239 . S
C470 O455 1.263 . S
C470 C464 1.504 . S
C471 O456 1.236 . S
C471 O457 1.257 . S
H472 C445 0.932 . S
H473 C446 0.930 . S
H474 C447 0.932 . S
H475 C448 0.929 . S
H476 C466 0.932 . S
H477 C467 0.930 . S
H478 C468 0.932 . S
H479 C469 0.929 . S
Tb480 C489 2.764 . S
Tb480 O490 2.325 . S
Tb480 O493 2.303 . S
Tb480 O497 2.322 . S
Tb480 O498 2.349 . S
Tb480 O501 2.415 . S
Tb480 O502 2.399 . S
Tb481 O491 2.322 . S
Tb481 O492 2.349 . S
Tb481 O494 2.415 . S
Tb481 O495 2.399 . S
Tb481 O496 2.325 . S
Tb481 O499 2.303 . S
Tb481 C510 2.764 . S
C482 O498 1.261 . S
C482 O499 1.257 . S
C483 C486 1.358 . S
C483 C487 1.332 . S
C483 C489 1.504 . S
C484 C485 1.373 . S
C484 C488 1.308 . S
C485 C484 1.373 . S
C485 C486 1.429 . S
C485 H512 0.932 . S
C486 C483 1.358 . S
C486 C485 1.429 . S
C486 H513 0.930 . S
C487 C483 1.332 . S
C487 C488 1.394 . S
C487 H514 0.932 . S
C488 C484 1.308 . S
C488 C487 1.394 . S
C488 H515 0.929 . S
C489 Tb480 2.764 . S
C489 C483 1.504 . S
C489 O501 1.239 . S
C489 O502 1.263 . S
O490 Tb480 2.325 . S
O490 C500 1.236 . S
O491 Tb481 2.322 . S
O491 C500 1.257 . S
O492 Tb481 2.349 . S
O492 C503 1.261 . S
O493 Tb480 2.303 . S
O493 C503 1.257 . S
O494 Tb481 2.415 . S
O494 C510 1.239 . S
O495 Tb481 2.399 . S
O495 C510 1.263 . S
O496 Tb481 2.325 . S
O496 C511 1.236 . S
O497 Tb480 2.322 . S
O497 C511 1.257 . S
O498 Tb480 2.349 . S
O498 C482 1.261 . S
O499 Tb481 2.303 . S
O499 C482 1.257 . S
C500 O490 1.236 . S
C500 O491 1.257 . S
O501 Tb480 2.415 . S
O501 C489 1.239 . S
O502 Tb480 2.399 . S
O502 C489 1.263 . S
C503 O492 1.261 . S
C503 O493 1.257 . S
C504 C507 1.358 . S
C504 C508 1.332 . S
C504 C510 1.504 1_556 S
C505 C506 1.373 . S
C505 C509 1.308 . S
C506 C505 1.373 . S
C506 C507 1.429 . S
C506 H516 0.932 . S
C507 C504 1.358 . S
C507 C506 1.429 . S
C507 H517 0.930 . S
C508 C504 1.332 . S
C508 C509 1.394 . S
C508 H518 0.932 . S
C509 C505 1.308 . S
C509 C508 1.394 . S
C509 H519 0.929 . S
C510 Tb481 2.764 . S
C510 O494 1.239 . S
C510 O495 1.263 . S
C510 C504 1.504 1_554 S
C511 O496 1.236 . S
C511 O497 1.257 . S
H512 C485 0.932 . S
H513 C486 0.930 . S
H514 C487 0.932 . S
H515 C488 0.929 . S
H516 C506 0.932 . S
H517 C507 0.930 . S
H518 C508 0.932 . S
H519 C509 0.929 . S
Tb520 C529 2.764 . S
Tb520 O530 2.325 . S
Tb520 O533 2.303 . S
Tb520 O537 2.322 . S
Tb520 O538 2.349 . S
Tb520 O541 2.415 . S
Tb520 O542 2.399 . S
Tb521 O531 2.322 . S
Tb521 O532 2.349 . S
Tb521 O534 2.415 . S
Tb521 O535 2.399 . S
Tb521 O536 2.325 . S
Tb521 O539 2.303 . S
Tb521 C550 2.764 . S
C522 O538 1.261 . S
C522 O539 1.257 . S
C523 C526 1.358 . S
C523 C527 1.332 . S
C523 C529 1.504 . S
C524 C525 1.373 . S
C524 C528 1.308 . S
C525 C524 1.373 . S
C525 C526 1.429 . S
C525 H552 0.932 . S
C526 C523 1.358 . S
C526 C525 1.429 . S
C526 H553 0.930 . S
C527 C523 1.332 . S
C527 C528 1.394 . S
C527 H554 0.932 . S
C528 C524 1.308 . S
C528 C527 1.394 . S
C528 H555 0.929 . S
C529 Tb520 2.764 . S
C529 C523 1.504 . S
C529 O541 1.239 . S
C529 O542 1.263 . S
O530 Tb520 2.325 . S
O530 C540 1.236 . S
O531 Tb521 2.322 . S
O531 C540 1.257 . S
O532 Tb521 2.349 . S
O532 C543 1.261 . S
O533 Tb520 2.303 . S
O533 C543 1.257 . S
O534 Tb521 2.415 . S
O534 C550 1.239 . S
O535 Tb521 2.399 . S
O535 C550 1.263 . S
O536 Tb521 2.325 . S
O536 C551 1.236 . S
O537 Tb520 2.322 . S
O537 C551 1.257 . S
O538 Tb520 2.349 . S
O538 C522 1.261 . S
O539 Tb521 2.303 . S
O539 C522 1.257 . S
C540 O530 1.236 . S
C540 O531 1.257 . S
O541 Tb520 2.415 . S
O541 C529 1.239 . S
O542 Tb520 2.399 . S
O542 C529 1.263 . S
C543 O532 1.261 . S
C543 O533 1.257 . S
C544 C547 1.358 . S
C544 C548 1.332 . S
C544 C550 1.504 1_556 S
C545 C546 1.373 . S
C545 C549 1.308 . S
C546 C545 1.373 . S
C546 C547 1.429 . S
C546 H556 0.932 . S
C547 C544 1.358 . S
C547 C546 1.429 . S
C547 H557 0.930 . S
C548 C544 1.332 . S
C548 C549 1.394 . S
C548 H558 0.932 . S
C549 C545 1.308 . S
C549 C548 1.394 . S
C549 H559 0.929 . S
C550 Tb521 2.764 . S
C550 O534 1.239 . S
C550 O535 1.263 . S
C550 C544 1.504 1_554 S
C551 O536 1.236 . S
C551 O537 1.257 . S
H552 C525 0.932 . S
H553 C526 0.930 . S
H554 C527 0.932 . S
H555 C528 0.929 . S
H556 C546 0.932 . S
H557 C547 0.930 . S
H558 C548 0.932 . S
H559 C549 0.929 . S
Tb560 C569 2.764 . S
Tb560 O570 2.325 . S
Tb560 O573 2.303 . S
Tb560 O577 2.322 . S
Tb560 O578 2.349 . S
Tb560 O581 2.415 . S
Tb560 O582 2.399 . S
Tb561 O571 2.322 . S
Tb561 O572 2.349 . S
Tb561 O574 2.415 . S
Tb561 O575 2.399 . S
Tb561 O576 2.325 . S
Tb561 O579 2.303 . S
Tb561 C590 2.764 . S
C562 O578 1.261 . S
C562 O579 1.257 . S
C563 C566 1.358 . S
C563 C567 1.332 . S
C563 C569 1.504 . S
C564 C565 1.373 . S
C564 C568 1.308 . S
C565 C564 1.373 . S
C565 C566 1.429 . S
C565 H592 0.932 . S
C566 C563 1.358 . S
C566 C565 1.429 . S
C566 H593 0.930 . S
C567 C563 1.332 . S
C567 C568 1.394 . S
C567 H594 0.932 . S
C568 C564 1.308 . S
C568 C567 1.394 . S
C568 H595 0.929 . S
C569 Tb560 2.764 . S
C569 C563 1.504 . S
C569 O581 1.239 . S
C569 O582 1.263 . S
O570 Tb560 2.325 . S
O570 C580 1.236 . S
O571 Tb561 2.322 . S
O571 C580 1.257 . S
O572 Tb561 2.349 . S
O572 C583 1.261 . S
O573 Tb560 2.303 . S
O573 C583 1.257 . S
O574 Tb561 2.415 . S
O574 C590 1.239 . S
O575 Tb561 2.399 . S
O575 C590 1.263 . S
O576 Tb561 2.325 . S
O576 C591 1.236 . S
O577 Tb560 2.322 . S
O577 C591 1.257 . S
O578 Tb560 2.349 . S
O578 C562 1.261 . S
O579 Tb561 2.303 . S
O579 C562 1.257 . S
C580 O570 1.236 . S
C580 O571 1.257 . S
O581 Tb560 2.415 . S
O581 C569 1.239 . S
O582 Tb560 2.399 . S
O582 C569 1.263 . S
C583 O572 1.261 . S
C583 O573 1.257 . S
C584 C587 1.358 . S
C584 C588 1.332 . S
C584 C590 1.504 1_556 S
C585 C586 1.373 . S
C585 C589 1.308 . S
C586 C585 1.373 . S
C586 C587 1.429 . S
C586 H596 0.932 . S
C587 C584 1.358 . S
C587 C586 1.429 . S
C587 H597 0.930 . S
C588 C584 1.332 . S
C588 C589 1.394 . S
C588 H598 0.932 . S
C589 C585 1.308 . S
C589 C588 1.394 . S
C589 H599 0.929 . S
C590 Tb561 2.764 . S
C590 O574 1.239 . S
C590 O575 1.263 . S
C590 C584 1.504 1_554 S
C591 O576 1.236 . S
C591 O577 1.257 . S
H592 C565 0.932 . S
H593 C566 0.930 . S
H594 C567 0.932 . S
H595 C568 0.929 . S
H596 C586 0.932 . S
H597 C587 0.930 . S
H598 C588 0.932 . S
H599 C589 0.929 . S
Tb600 C609 2.764 . S
Tb600 O610 2.325 . S
Tb600 O613 2.303 . S
Tb600 O617 2.322 . S
Tb600 O618 2.349 . S
Tb600 O621 2.415 . S
Tb600 O622 2.399 . S
Tb601 O611 2.322 . S
Tb601 O612 2.349 . S
Tb601 O614 2.415 1_554 S
Tb601 O615 2.399 1_554 S
Tb601 O616 2.325 . S
Tb601 O619 2.303 . S
Tb601 C630 2.764 1_554 S
C602 O618 1.261 . S
C602 O619 1.257 . S
C603 C606 1.358 . S
C603 C607 1.332 . S
C603 C609 1.504 . S
C604 C605 1.373 . S
C604 C608 1.308 . S
C605 C604 1.373 . S
C605 C606 1.429 . S
C605 H632 0.932 . S
C606 C603 1.358 . S
C606 C605 1.429 . S
C606 H633 0.930 . S
C607 C603 1.332 . S
C607 C608 1.394 . S
C607 H634 0.932 . S
C608 C604 1.308 . S
C608 C607 1.394 . S
C608 H635 0.929 . S
C609 Tb600 2.764 . S
C609 C603 1.504 . S
C609 O621 1.239 . S
C609 O622 1.263 . S
O610 Tb600 2.325 . S
O610 C620 1.236 . S
O611 Tb601 2.322 . S
O611 C620 1.257 . S
O612 Tb601 2.349 . S
O612 C623 1.261 . S
O613 Tb600 2.303 . S
O613 C623 1.257 . S
O614 Tb601 2.415 1_556 S
O614 C630 1.239 . S
O615 Tb601 2.399 1_556 S
O615 C630 1.263 . S
O616 Tb601 2.325 . S
O616 C631 1.236 . S
O617 Tb600 2.322 . S
O617 C631 1.257 . S
O618 Tb600 2.349 . S
O618 C602 1.261 . S
O619 Tb601 2.303 . S
O619 C602 1.257 . S
C620 O610 1.236 . S
C620 O611 1.257 . S
O621 Tb600 2.415 . S
O621 C609 1.239 . S
O622 Tb600 2.399 . S
O622 C609 1.263 . S
C623 O612 1.261 . S
C623 O613 1.257 . S
C624 C627 1.358 . S
C624 C628 1.332 . S
C624 C630 1.504 . S
C625 C626 1.373 . S
C625 C629 1.308 . S
C626 C625 1.373 . S
C626 C627 1.429 . S
C626 H636 0.932 . S
C627 C624 1.358 . S
C627 C626 1.429 . S
C627 H637 0.930 . S
C628 C624 1.332 . S
C628 C629 1.394 . S
C628 H638 0.932 . S
C629 C625 1.308 . S
C629 C628 1.394 . S
C629 H639 0.929 . S
C630 Tb601 2.764 1_556 S
C630 O614 1.239 . S
C630 O615 1.263 . S
C630 C624 1.504 . S
C631 O616 1.236 . S
C631 O617 1.257 . S
H632 C605 0.932 . S
H633 C606 0.930 . S
H634 C607 0.932 . S
H635 C608 0.929 . S
H636 C626 0.932 . S
H637 C627 0.930 . S
H638 C628 0.932 . S
H639 C629 0.929 . S
Tb640 C649 2.764 . S
Tb640 O650 2.325 . S
Tb640 O653 2.303 . S
Tb640 O657 2.322 . S
Tb640 O658 2.349 . S
Tb640 O661 2.415 . S
Tb640 O662 2.399 . S
Tb641 O651 2.322 . S
Tb641 O652 2.349 . S
Tb641 O654 2.415 1_554 S
Tb641 O655 2.399 1_554 S
Tb641 O656 2.325 . S
Tb641 O659 2.303 . S
Tb641 C670 2.764 1_554 S
C642 O658 1.261 . S
C642 O659 1.257 . S
C643 C646 1.358 . S
C643 C647 1.332 . S
C643 C649 1.504 . S
C644 C645 1.373 . S
C644 C648 1.308 . S
C645 C644 1.373 . S
C645 C646 1.429 . S
C645 H672 0.932 . S
C646 C643 1.358 . S
C646 C645 1.429 . S
C646 H673 0.930 . S
C647 C643 1.332 . S
C647 C648 1.394 . S
C647 H674 0.932 . S
C648 C644 1.308 . S
C648 C647 1.394 . S
C648 H675 0.929 . S
C649 Tb640 2.764 . S
C649 C643 1.504 . S
C649 O661 1.239 . S
C649 O662 1.263 . S
O650 Tb640 2.325 . S
O650 C660 1.236 . S
O651 Tb641 2.322 . S
O651 C660 1.257 . S
O652 Tb641 2.349 . S
O652 C663 1.261 . S
O653 Tb640 2.303 . S
O653 C663 1.257 . S
O654 Tb641 2.415 1_556 S
O654 C670 1.239 . S
O655 Tb641 2.399 1_556 S
O655 C670 1.263 . S
O656 Tb641 2.325 . S
O656 C671 1.236 . S
O657 Tb640 2.322 . S
O657 C671 1.257 . S
O658 Tb640 2.349 . S
O658 C642 1.261 . S
O659 Tb641 2.303 . S
O659 C642 1.257 . S
C660 O650 1.236 . S
C660 O651 1.257 . S
O661 Tb640 2.415 . S
O661 C649 1.239 . S
O662 Tb640 2.399 . S
O662 C649 1.263 . S
C663 O652 1.261 . S
C663 O653 1.257 . S
C664 C667 1.358 . S
C664 C668 1.332 . S
C664 C670 1.504 . S
C665 C666 1.373 . S
C665 C669 1.308 . S
C666 C665 1.373 . S
C666 C667 1.429 . S
C666 H676 0.932 . S
C667 C664 1.358 . S
C667 C666 1.429 . S
C667 H677 0.930 . S
C668 C664 1.332 . S
C668 C669 1.394 . S
C668 H678 0.932 . S
C669 C665 1.308 . S
C669 C668 1.394 . S
C669 H679 0.929 . S
C670 Tb641 2.764 1_556 S
C670 O654 1.239 . S
C670 O655 1.263 . S
C670 C664 1.504 . S
C671 O656 1.236 . S
C671 O657 1.257 . S
H672 C645 0.932 . S
H673 C646 0.930 . S
H674 C647 0.932 . S
H675 C648 0.929 . S
H676 C666 0.932 . S
H677 C667 0.930 . S
H678 C668 0.932 . S
H679 C669 0.929 . S
Tb680 C689 2.764 . S
Tb680 O690 2.325 . S
Tb680 O693 2.303 . S
Tb680 O697 2.322 . S
Tb680 O698 2.349 . S
Tb680 O701 2.415 . S
Tb680 O702 2.399 . S
Tb681 O691 2.322 . S
Tb681 O692 2.349 . S
Tb681 O694 2.415 1_554 S
Tb681 O695 2.399 1_554 S
Tb681 O696 2.325 . S
Tb681 O699 2.303 . S
Tb681 C710 2.764 1_554 S
C682 O698 1.261 . S
C682 O699 1.257 . S
C683 C686 1.358 . S
C683 C687 1.332 . S
C683 C689 1.504 . S
C684 C685 1.373 . S
C684 C688 1.308 . S
C685 C684 1.373 . S
C685 C686 1.429 . S
C685 H712 0.932 . S
C686 C683 1.358 . S
C686 C685 1.429 . S
C686 H713 0.930 . S
C687 C683 1.332 . S
C687 C688 1.394 . S
C687 H714 0.932 . S
C688 C684 1.308 . S
C688 C687 1.394 . S
C688 H715 0.929 . S
C689 Tb680 2.764 . S
C689 C683 1.504 . S
C689 O701 1.239 . S
C689 O702 1.263 . S
O690 Tb680 2.325 . S
O690 C700 1.236 . S
O691 Tb681 2.322 . S
O691 C700 1.257 . S
O692 Tb681 2.349 . S
O692 C703 1.261 . S
O693 Tb680 2.303 . S
O693 C703 1.257 . S
O694 Tb681 2.415 1_556 S
O694 C710 1.239 . S
O695 Tb681 2.399 1_556 S
O695 C710 1.263 . S
O696 Tb681 2.325 . S
O696 C711 1.236 . S
O697 Tb680 2.322 . S
O697 C711 1.257 . S
O698 Tb680 2.349 . S
O698 C682 1.261 . S
O699 Tb681 2.303 . S
O699 C682 1.257 . S
C700 O690 1.236 . S
C700 O691 1.257 . S
O701 Tb680 2.415 . S
O701 C689 1.239 . S
O702 Tb680 2.399 . S
O702 C689 1.263 . S
C703 O692 1.261 . S
C703 O693 1.257 . S
C704 C707 1.358 . S
C704 C708 1.332 . S
C704 C710 1.504 . S
C705 C706 1.373 . S
C705 C709 1.308 . S
C706 C705 1.373 . S
C706 C707 1.429 . S
C706 H716 0.932 . S
C707 C704 1.358 . S
C707 C706 1.429 . S
C707 H717 0.930 . S
C708 C704 1.332 . S
C708 C709 1.394 . S
C708 H718 0.932 . S
C709 C705 1.308 . S
C709 C708 1.394 . S
C709 H719 0.929 . S
C710 Tb681 2.764 1_556 S
C710 O694 1.239 . S
C710 O695 1.263 . S
C710 C704 1.504 . S
C711 O696 1.236 . S
C711 O697 1.257 . S
H712 C685 0.932 . S
H713 C686 0.930 . S
H714 C687 0.932 . S
H715 C688 0.929 . S
H716 C706 0.932 . S
H717 C707 0.930 . S
H718 C708 0.932 . S
H719 C709 0.929 . S
C720 C721 1.363 . S
C720 C726 1.379 . S
C720 N728 1.356 . S
C721 C720 1.363 . S
C721 C727 1.363 . S
C722 C723 1.363 . S
C722 C727 1.379 . S
C722 N729 1.356 . S
C723 C722 1.363 . S
C723 C726 1.363 . S
N724 C726 1.356 . S
N724 H736 0.984 . S
N724 H737 0.985 . S
N725 C727 1.356 . S
N725 H730 0.984 . S
N725 H731 0.985 . S
C726 C720 1.379 . S
C726 C723 1.363 . S
C726 N724 1.356 . S
C727 C721 1.363 . S
C727 C722 1.379 . S
C727 N725 1.356 . S
N728 C720 1.356 . S
N728 H734 0.984 . S
N728 H735 0.984 . S
N729 C722 1.356 . S
N729 H732 0.984 . S
N729 H733 0.985 . S
H730 N725 0.984 . S
H731 N725 0.985 . S
H732 N729 0.984 . S
H733 N729 0.985 . S
H734 N728 0.984 . S
H735 N728 0.984 . S
H736 N724 0.984 . S
H737 N724 0.985 . S
C738 C739 1.363 . S
C738 C744 1.379 . S
C738 N746 1.356 . S
C739 C738 1.363 . S
C739 C745 1.363 . S
C740 C741 1.363 . S
C740 C745 1.379 . S
C740 N747 1.356 . S
C741 C740 1.363 . S
C741 C744 1.363 . S
N742 C744 1.356 . S
N742 H754 0.984 . S
N742 H755 0.985 . S
N743 C745 1.356 . S
N743 H748 0.984 . S
N743 H749 0.985 . S
C744 C738 1.379 . S
C744 C741 1.363 . S
C744 N742 1.356 . S
C745 C739 1.363 . S
C745 C740 1.379 . S
C745 N743 1.356 . S
N746 C738 1.356 . S
N746 H752 0.984 . S
N746 H753 0.984 . S
N747 C740 1.356 . S
N747 H750 0.984 . S
N747 H751 0.985 . S
H748 N743 0.984 . S
H749 N743 0.985 . S
H750 N747 0.984 . S
H751 N747 0.985 . S
H752 N746 0.984 . S
H753 N746 0.984 . S
H754 N742 0.984 . S
H755 N742 0.985 . S
C756 C757 1.363 . S
C756 C762 1.379 . S
C756 N764 1.356 . S
C757 C756 1.363 . S
C757 C763 1.363 . S
C758 C759 1.363 . S
C758 C763 1.379 . S
C758 N765 1.356 . S
C759 C758 1.363 . S
C759 C762 1.363 . S
N760 C762 1.356 . S
N760 H772 0.984 . S
N760 H773 0.985 . S
N761 C763 1.356 . S
N761 H766 0.984 . S
N761 H767 0.985 . S
C762 C756 1.379 . S
C762 C759 1.363 . S
C762 N760 1.356 . S
C763 C757 1.363 . S
C763 C758 1.379 . S
C763 N761 1.356 . S
N764 C756 1.356 . S
N764 H770 0.984 . S
N764 H771 0.984 . S
N765 C758 1.356 . S
N765 H768 0.984 . S
N765 H769 0.985 . S
H766 N761 0.984 . S
H767 N761 0.985 . S
H768 N765 0.984 . S
H769 N765 0.985 . S
H770 N764 0.984 . S
H771 N764 0.984 . S
H772 N760 0.984 . S
H773 N760 0.985 . S
C774 C775 1.363 . S
C774 C780 1.379 . S
C774 N782 1.356 . S
C775 C774 1.363 . S
C775 C781 1.363 . S
C776 C777 1.363 . S
C776 C781 1.379 . S
C776 N783 1.356 . S
C777 C776 1.363 . S
C777 C780 1.363 . S
N778 C780 1.356 . S
N778 H790 0.984 . S
N778 H791 0.985 . S
N779 C781 1.356 . S
N779 H784 0.984 . S
N779 H785 0.985 . S
C780 C774 1.379 . S
C780 C777 1.363 . S
C780 N778 1.356 . S
C781 C775 1.363 . S
C781 C776 1.379 . S
C781 N779 1.356 . S
N782 C774 1.356 . S
N782 H788 0.984 . S
N782 H789 0.984 . S
N783 C776 1.356 . S
N783 H786 0.984 . S
N783 H787 0.985 . S
H784 N779 0.984 . S
H785 N779 0.985 . S
H786 N783 0.984 . S
H787 N783 0.985 . S
H788 N782 0.984 . S
H789 N782 0.984 . S
H790 N778 0.984 . S
H791 N778 0.985 . S
C792 C793 1.363 . S
C792 C798 1.379 . S
C792 N800 1.356 . S
C793 C792 1.363 . S
C793 C799 1.363 . S
C794 C795 1.363 . S
C794 C799 1.379 . S
C794 N801 1.356 . S
C795 C794 1.363 . S
C795 C798 1.363 . S
N796 C798 1.356 . S
N796 H808 0.984 . S
N796 H809 0.985 . S
N797 C799 1.356 . S
N797 H802 0.984 . S
N797 H803 0.985 . S
C798 C792 1.379 . S
C798 C795 1.363 . S
C798 N796 1.356 . S
C799 C793 1.363 . S
C799 C794 1.379 . S
C799 N797 1.356 . S
N800 C792 1.356 . S
N800 H806 0.984 . S
N800 H807 0.984 . S
N801 C794 1.356 . S
N801 H804 0.984 . S
N801 H805 0.985 . S
H802 N797 0.984 . S
H803 N797 0.985 . S
H804 N801 0.984 . S
H805 N801 0.985 . S
H806 N800 0.984 . S
H807 N800 0.984 . S
H808 N796 0.984 . S
H809 N796 0.985 . S
C810 C811 1.363 . S
C810 C816 1.379 . S
C810 N818 1.356 . S
C811 C810 1.363 . S
C811 C817 1.363 . S
C812 C813 1.363 . S
C812 C817 1.379 . S
C812 N819 1.356 . S
C813 C812 1.363 . S
C813 C816 1.363 . S
N814 C816 1.356 . S
N814 H826 0.984 . S
N814 H827 0.985 . S
N815 C817 1.356 . S
N815 H820 0.984 . S
N815 H821 0.985 . S
C816 C810 1.379 . S
C816 C813 1.363 . S
C816 N814 1.356 . S
C817 C811 1.363 . S
C817 C812 1.379 . S
C817 N815 1.356 . S
N818 C810 1.356 . S
N818 H824 0.984 . S
N818 H825 0.984 . S
N819 C812 1.356 . S
N819 H822 0.984 . S
N819 H823 0.985 . S
H820 N815 0.984 . S
H821 N815 0.985 . S
H822 N819 0.984 . S
H823 N819 0.985 . S
H824 N818 0.984 . S
H825 N818 0.984 . S
H826 N814 0.984 . S
H827 N814 0.985 . S
C828 C829 1.363 . S
C828 C834 1.379 . S
C828 N836 1.356 . S
C829 C828 1.363 . S
C829 C835 1.363 . S
C830 C831 1.363 . S
C830 C835 1.379 . S
C830 N837 1.356 . S
C831 C830 1.363 . S
C831 C834 1.363 . S
N832 C834 1.356 . S
N832 H844 0.984 . S
N832 H845 0.985 . S
N833 C835 1.356 . S
N833 H838 0.984 . S
N833 H839 0.985 . S
C834 C828 1.379 . S
C834 C831 1.363 . S
C834 N832 1.356 . S
C835 C829 1.363 . S
C835 C830 1.379 . S
C835 N833 1.356 . S
N836 C828 1.356 . S
N836 H842 0.984 . S
N836 H843 0.984 . S
N837 C830 1.356 . S
N837 H840 0.984 . S
N837 H841 0.985 . S
H838 N833 0.984 . S
H839 N833 0.985 . S
H840 N837 0.984 . S
H841 N837 0.985 . S
H842 N836 0.984 . S
H843 N836 0.984 . S
H844 N832 0.984 . S
H845 N832 0.985 . S
C846 C847 1.363 . S
C846 C852 1.379 . S
C846 N854 1.356 . S
C847 C846 1.363 . S
C847 C853 1.363 . S
C848 C849 1.363 . S
C848 C853 1.379 . S
C848 N855 1.356 . S
C849 C848 1.363 . S
C849 C852 1.363 . S
N850 C852 1.356 . S
N850 H862 0.984 . S
N850 H863 0.985 . S
N851 C853 1.356 . S
N851 H856 0.984 . S
N851 H857 0.985 . S
C852 C846 1.379 . S
C852 C849 1.363 . S
C852 N850 1.356 . S
C853 C847 1.363 . S
C853 C848 1.379 . S
C853 N851 1.356 . S
N854 C846 1.356 . S
N854 H860 0.984 . S
N854 H861 0.984 . S
N855 C848 1.356 . S
N855 H858 0.984 . S
N855 H859 0.985 . S
H856 N851 0.984 . S
H857 N851 0.985 . S
H858 N855 0.984 . S
H859 N855 0.985 . S
H860 N854 0.984 . S
H861 N854 0.984 . S
H862 N850 0.984 . S
H863 N850 0.985 . S
C864 C865 1.363 . S
C864 C870 1.379 . S
C864 N872 1.356 . S
C865 C864 1.363 . S
C865 C871 1.363 . S
C866 C867 1.363 . S
C866 C871 1.379 . S
C866 N873 1.356 . S
C867 C866 1.363 . S
C867 C870 1.363 . S
N868 C870 1.356 . S
N868 H880 0.984 . S
N868 H881 0.985 . S
N869 C871 1.356 . S
N869 H874 0.984 . S
N869 H875 0.985 . S
C870 C864 1.379 . S
C870 C867 1.363 . S
C870 N868 1.356 . S
C871 C865 1.363 . S
C871 C866 1.379 . S
C871 N869 1.356 . S
N872 C864 1.356 . S
N872 H878 0.984 . S
N872 H879 0.984 . S
N873 C866 1.356 . S
N873 H876 0.984 . S
N873 H877 0.985 . S
H874 N869 0.984 . S
H875 N869 0.985 . S
H876 N873 0.984 . S
H877 N873 0.985 . S
H878 N872 0.984 . S
H879 N872 0.984 . S
H880 N868 0.984 . S
H881 N868 0.985 . S
C882 C883 1.363 . S
C882 C888 1.379 . S
C882 N890 1.356 . S
C883 C882 1.363 . S
C883 C889 1.363 . S
C884 C885 1.363 . S
C884 C889 1.379 . S
C884 N891 1.356 . S
C885 C884 1.363 . S
C885 C888 1.363 . S
N886 C888 1.356 . S
N886 H898 0.984 . S
N886 H899 0.985 . S
N887 C889 1.356 . S
N887 H892 0.984 . S
N887 H893 0.985 . S
C888 C882 1.379 . S
C888 C885 1.363 . S
C888 N886 1.356 . S
C889 C883 1.363 . S
C889 C884 1.379 . S
C889 N887 1.356 . S
N890 C882 1.356 . S
N890 H896 0.984 . S
N890 H897 0.984 . S
N891 C884 1.356 . S
N891 H894 0.984 . S
N891 H895 0.985 . S
H892 N887 0.984 . S
H893 N887 0.985 . S
H894 N891 0.984 . S
H895 N891 0.985 . S
H896 N890 0.984 . S
H897 N890 0.984 . S
H898 N886 0.984 . S
H899 N886 0.985 . S
C900 C901 1.363 . S
C900 C906 1.379 . S
C900 N908 1.356 . S
C901 C900 1.363 . S
C901 C907 1.363 . S
C902 C903 1.363 . S
C902 C907 1.379 . S
C902 N909 1.356 . S
C903 C902 1.363 . S
C903 C906 1.363 . S
N904 C906 1.356 . S
N904 H916 0.984 . S
N904 H917 0.985 . S
N905 C907 1.356 . S
N905 H910 0.984 . S
N905 H911 0.985 . S
C906 C900 1.379 . S
C906 C903 1.363 . S
C906 N904 1.356 . S
C907 C901 1.363 . S
C907 C902 1.379 . S
C907 N905 1.356 . S
N908 C900 1.356 . S
N908 H914 0.984 . S
N908 H915 0.984 . S
N909 C902 1.356 . S
N909 H912 0.984 . S
N909 H913 0.985 . S
H910 N905 0.984 . S
H911 N905 0.985 . S
H912 N909 0.984 . S
H913 N909 0.985 . S
H914 N908 0.984 . S
H915 N908 0.984 . S
H916 N904 0.984 . S
H917 N904 0.985 . S
C918 C919 1.363 . S
C918 C924 1.379 . S
C918 N926 1.356 . S
C919 C918 1.363 . S
C919 C925 1.363 . S
C920 C921 1.363 . S
C920 C925 1.379 . S
C920 N927 1.356 . S
C921 C920 1.363 . S
C921 C924 1.363 . S
N922 C924 1.356 . S
N922 H934 0.984 . S
N922 H935 0.985 . S
N923 C925 1.356 . S
N923 H928 0.984 . S
N923 H929 0.985 . S
C924 C918 1.379 . S
C924 C921 1.363 . S
C924 N922 1.356 . S
C925 C919 1.363 . S
C925 C920 1.379 . S
C925 N923 1.356 . S
N926 C918 1.356 . S
N926 H932 0.984 . S
N926 H933 0.984 . S
N927 C920 1.356 . S
N927 H930 0.984 . S
N927 H931 0.985 . S
H928 N923 0.984 . S
H929 N923 0.985 . S
H930 N927 0.984 . S
H931 N927 0.985 . S
H932 N926 0.984 . S
H933 N926 0.984 . S
H934 N922 0.984 . S
H935 N922 0.985 . S
C936 C937 1.363 . S
C936 C942 1.379 1_655 S
C936 N944 1.356 1_554 S
C937 C936 1.363 . S
C937 C943 1.363 . S
C938 C939 1.363 . S
C938 C943 1.379 1_455 S
C938 N945 1.356 . S
C939 C938 1.363 . S
C939 C942 1.363 . S
N940 C942 1.356 . S
N940 H952 0.984 . S
N940 H953 0.985 . S
N941 C943 1.356 1_556 S
N941 H946 0.984 . S
N941 H947 0.985 1_556 S
C942 C936 1.379 1_455 S
C942 C939 1.363 . S
C942 N940 1.356 . S
C943 C937 1.363 . S
C943 C938 1.379 1_655 S
C943 N941 1.356 1_554 S
N944 C936 1.356 1_556 S
N944 H950 0.984 1_556 S
N944 H951 0.984 . S
N945 C938 1.356 . S
N945 H948 0.984 . S
N945 H949 0.985 . S
H946 N941 0.984 . S
H947 N941 0.985 1_554 S
H948 N945 0.984 . S
H949 N945 0.985 . S
H950 N944 0.984 1_554 S
H951 N944 0.984 . S
H952 N940 0.984 . S
H953 N940 0.985 . S
C954 C955 1.363 . S
C954 C960 1.379 . S
C954 N962 1.356 1_554 S
C955 C954 1.363 . S
C955 C961 1.363 . S
C956 C957 1.363 . S
C956 C961 1.379 . S
C956 N963 1.356 . S
C957 C956 1.363 . S
C957 C960 1.363 . S
N958 C960 1.356 . S
N958 H970 0.984 . S
N958 H971 0.985 . S
N959 C961 1.356 . S
N959 H964 0.984 1_554 S
N959 H965 0.985 . S
C960 C954 1.379 . S
C960 C957 1.363 . S
C960 N958 1.356 . S
C961 C955 1.363 . S
C961 C956 1.379 . S
C961 N959 1.356 . S
N962 C954 1.356 1_556 S
N962 H968 0.984 . S
N962 H969 0.984 . S
N963 C956 1.356 . S
N963 H966 0.984 . S
N963 H967 0.985 . S
H964 N959 0.984 1_556 S
H965 N959 0.985 . S
H966 N963 0.984 . S
H967 N963 0.985 . S
H968 N962 0.984 . S
H969 N962 0.984 . S
H970 N958 0.984 . S
H971 N958 0.985 . S
C972 C973 1.363 1_565 S
C972 C978 1.379 . S
C972 N980 1.356 1_554 S
C973 C972 1.363 1_545 S
C973 C979 1.363 . S
C974 C975 1.363 1_545 S
C974 C979 1.379 . S
C974 N981 1.356 . S
C975 C974 1.363 1_565 S
C975 C978 1.363 . S
N976 C978 1.356 . S
N976 H988 0.984 . S
N976 H989 0.985 . S
N977 C979 1.356 . S
N977 H982 0.984 1_554 S
N977 H983 0.985 . S
C978 C972 1.379 . S
C978 C975 1.363 . S
C978 N976 1.356 . S
C979 C973 1.363 . S
C979 C974 1.379 . S
C979 N977 1.356 . S
N980 C972 1.356 1_556 S
N980 H986 0.984 . S
N980 H987 0.984 1_565 S
N981 C974 1.356 . S
N981 H984 0.984 . S
N981 H985 0.985 . S
H982 N977 0.984 1_556 S
H983 N977 0.985 . S
H984 N981 0.984 . S
H985 N981 0.985 . S
H986 N980 0.984 . S
H987 N980 0.984 1_545 S
H988 N976 0.984 . S
H989 N976 0.985 . S
C990 C991 1.363 . S
C990 C996 1.379 . S
C990 N998 1.356 . S
C991 C990 1.363 . S
C991 C997 1.363 1_545 S
C992 C993 1.363 . S
C992 C997 1.379 . S
C992 N999 1.356 . S
C993 C992 1.363 . S
C993 C996 1.363 1_565 S
N994 C996 1.356 1_554 S
N994 H1006 0.984 . S
N994 H1007 0.985 . S
N995 C997 1.356 . S
N995 H1000 0.982 . S
N995 H1001 0.985 . S
C996 C990 1.379 . S
C996 C993 1.363 1_545 S
C996 N994 1.356 1_556 S
C997 C991 1.363 1_565 S
C997 C992 1.379 . S
C997 N995 1.356 . S
N998 C990 1.356 . S
N998 H1004 0.984 . S
N998 H1005 0.984 . S
N999 C992 1.356 . S
N999 H1002 0.978 1_556 S
N999 H1003 0.985 . S
H1000 N995 0.982 . S
H1001 N995 0.985 . S
H1002 N999 0.978 1_554 S
H1003 N999 0.985 . S
H1004 N998 0.984 . S
H1005 N998 0.984 . S
H1006 N994 0.984 . S
H1007 N994 0.985 . S
C1008 C1009 1.363 . S
C1008 C1014 1.379 . S
C1008 N1016 1.356 . S
C1009 C1008 1.363 . S
C1009 C1015 1.384 . S
C1010 C1011 1.363 . S
C1010 C1015 1.370 1_655 S
C1010 N1017 1.356 . S
C1011 C1010 1.363 . S
C1011 C1014 1.363 1_655 S
N1012 C1014 1.356 . S
N1012 H1024 0.984 . S
N1012 H1025 0.985 . S
N1013 C1015 1.350 1_654 S
N1013 H1018 0.984 1_655 S
N1013 H1019 0.985 . S
C1014 C1008 1.379 . S
C1014 C1011 1.363 1_455 S
C1014 N1012 1.356 . S
C1015 C1009 1.384 . S
C1015 C1010 1.370 1_455 S
C1015 N1013 1.350 1_456 S
N1016 C1008 1.356 . S
N1016 H1022 0.984 . S
N1016 H1023 0.984 1_556 S
N1017 C1010 1.356 . S
N1017 H1020 0.984 . S
N1017 H1021 0.985 . S
H1018 N1013 0.984 1_455 S
H1019 N1013 0.985 . S
H1020 N1017 0.984 . S
H1021 N1017 0.985 . S
H1022 N1016 0.984 . S
H1023 N1016 0.984 1_554 S
H1024 N1012 0.984 . S
H1025 N1012 0.985 . S
C1026 C1027 1.363 . S
C1026 C1032 1.379 . S
C1026 N1034 1.356 . S
C1027 C1026 1.363 . S
C1027 C1033 1.363 . S
C1028 C1029 1.363 . S
C1028 C1033 1.379 . S
C1028 N1035 1.356 . S
C1029 C1028 1.363 . S
C1029 C1032 1.363 . S
N1030 C1032 1.356 . S
N1030 H1042 0.984 . S
N1030 H1043 0.985 . S
N1031 C1033 1.356 1_554 S
N1031 H1036 0.984 . S
N1031 H1037 0.985 . S
C1032 C1026 1.379 . S
C1032 C1029 1.363 . S
C1032 N1030 1.356 . S
C1033 C1027 1.363 . S
C1033 C1028 1.379 . S
C1033 N1031 1.356 1_556 S
N1034 C1026 1.356 . S
N1034 H1040 0.984 . S
N1034 H1041 0.984 1_556 S
N1035 C1028 1.356 . S
N1035 H1038 0.984 . S
N1035 H1039 0.985 . S
H1036 N1031 0.984 . S
H1037 N1031 0.985 . S
H1038 N1035 0.984 . S
H1039 N1035 0.985 . S
H1040 N1034 0.984 . S
H1041 N1034 0.984 1_554 S
H1042 N1030 0.984 . S
H1043 N1030 0.985 . S
C1044 C1045 1.363 . S
C1044 C1050 1.379 . S
C1044 N1052 1.356 . S
C1045 C1044 1.363 . S
C1045 C1051 1.363 . S
C1046 C1047 1.363 . S
C1046 C1051 1.379 . S
C1046 N1053 1.356 . S
C1047 C1046 1.363 . S
C1047 C1050 1.363 . S
N1048 C1050 1.356 . S
N1048 H1060 0.984 . S
N1048 H1061 0.985 . S
N1049 C1051 1.356 . S
N1049 H1054 0.984 . S
N1049 H1055 0.985 . S
C1050 C1044 1.379 . S
C1050 C1047 1.363 . S
C1050 N1048 1.356 . S
C1051 C1045 1.363 . S
C1051 C1046 1.379 . S
C1051 N1049 1.356 . S
N1052 C1044 1.356 . S
N1052 H1058 0.984 . S
N1052 H1059 0.984 . S
N1053 C1046 1.356 . S
N1053 H1056 0.984 . S
N1053 H1057 0.985 . S
H1054 N1049 0.984 . S
H1055 N1049 0.985 . S
H1056 N1053 0.984 . S
H1057 N1053 0.985 . S
H1058 N1052 0.984 . S
H1059 N1052 0.984 . S
H1060 N1048 0.984 . S
H1061 N1048 0.985 . S
C1062 C1063 1.363 . S
C1062 C1068 1.379 . S
C1062 N1070 1.356 . S
C1063 C1062 1.363 . S
C1063 C1069 1.363 . S
C1064 C1065 1.363 . S
C1064 C1069 1.379 . S
C1064 N1071 1.356 . S
C1065 C1064 1.363 . S
C1065 C1068 1.363 . S
N1066 C1068 1.356 . S
N1066 H1078 0.984 . S
N1066 H1079 0.985 . S
N1067 C1069 1.356 . S
N1067 H1072 0.984 . S
N1067 H1073 0.985 . S
C1068 C1062 1.379 . S
C1068 C1065 1.363 . S
C1068 N1066 1.356 . S
C1069 C1063 1.363 . S
C1069 C1064 1.379 . S
C1069 N1067 1.356 . S
N1070 C1062 1.356 . S
N1070 H1076 0.984 . S
N1070 H1077 0.984 . S
N1071 C1064 1.356 . S
N1071 H1074 0.984 . S
N1071 H1075 0.985 . S
H1072 N1067 0.984 . S
H1073 N1067 0.985 . S
H1074 N1071 0.984 . S
H1075 N1071 0.985 . S
H1076 N1070 0.984 . S
H1077 N1070 0.984 . S
H1078 N1066 0.984 . S
H1079 N1066 0.985 . S
C1080 C1081 1.363 . S
C1080 C1086 1.379 . S
C1080 N1088 1.356 . S
C1081 C1080 1.363 . S
C1081 C1087 1.363 . S
C1082 C1083 1.363 . S
C1082 C1087 1.379 . S
C1082 N1089 1.356 . S
C1083 C1082 1.363 . S
C1083 C1086 1.363 . S
N1084 C1086 1.356 . S
N1084 H1096 0.984 . S
N1084 H1097 0.985 . S
N1085 C1087 1.356 . S
N1085 H1090 0.984 . S
N1085 H1091 0.985 . S
C1086 C1080 1.379 . S
C1086 C1083 1.363 . S
C1086 N1084 1.356 . S
C1087 C1081 1.363 . S
C1087 C1082 1.379 . S
C1087 N1085 1.356 . S
N1088 C1080 1.356 . S
N1088 H1094 0.984 . S
N1088 H1095 0.984 . S
N1089 C1082 1.356 . S
N1089 H1092 0.984 . S
N1089 H1093 0.985 . S
H1090 N1085 0.984 . S
H1091 N1085 0.985 . S
H1092 N1089 0.984 . S
H1093 N1089 0.985 . S
H1094 N1088 0.984 . S
H1095 N1088 0.984 . S
H1096 N1084 0.984 . S
H1097 N1084 0.985 . S
C1098 C1099 1.363 . S
C1098 C1104 1.379 . S
C1098 N1106 1.356 . S
C1099 C1098 1.363 . S
C1099 C1105 1.363 . S
C1100 C1101 1.363 . S
C1100 C1105 1.379 . S
C1100 N1107 1.356 . S
C1101 C1100 1.363 . S
C1101 C1104 1.363 . S
N1102 C1104 1.356 . S
N1102 H1114 0.984 . S
N1102 H1115 0.985 . S
N1103 C1105 1.356 . S
N1103 H1108 0.984 . S
N1103 H1109 0.985 . S
C1104 C1098 1.379 . S
C1104 C1101 1.363 . S
C1104 N1102 1.356 . S
C1105 C1099 1.363 . S
C1105 C1100 1.379 . S
C1105 N1103 1.356 . S
N1106 C1098 1.356 . S
N1106 H1112 0.984 . S
N1106 H1113 0.984 . S
N1107 C1100 1.356 . S
N1107 H1110 0.984 . S
N1107 H1111 0.985 . S
H1108 N1103 0.984 . S
H1109 N1103 0.985 . S
H1110 N1107 0.984 . S
H1111 N1107 0.985 . S
H1112 N1106 0.984 . S
H1113 N1106 0.984 . S
H1114 N1102 0.984 . S
H1115 N1102 0.985 . S
C1116 C1117 1.363 . S
C1116 C1122 1.379 . S
C1116 N1124 1.356 . S
C1117 C1116 1.363 . S
C1117 C1123 1.363 . S
C1118 C1119 1.363 . S
C1118 C1123 1.379 . S
C1118 N1125 1.356 . S
C1119 C1118 1.363 . S
C1119 C1122 1.363 . S
N1120 C1122 1.356 . S
N1120 H1132 0.984 . S
N1120 H1133 0.985 . S
N1121 C1123 1.356 . S
N1121 H1126 0.984 . S
N1121 H1127 0.985 . S
C1122 C1116 1.379 . S
C1122 C1119 1.363 . S
C1122 N1120 1.356 . S
C1123 C1117 1.363 . S
C1123 C1118 1.379 . S
C1123 N1121 1.356 . S
N1124 C1116 1.356 . S
N1124 H1130 0.984 . S
N1124 H1131 0.984 . S
N1125 C1118 1.356 . S
N1125 H1128 0.984 . S
N1125 H1129 0.985 . S
H1126 N1121 0.984 . S
H1127 N1121 0.985 . S
H1128 N1125 0.984 . S
H1129 N1125 0.985 . S
H1130 N1124 0.984 . S
H1131 N1124 0.984 . S
H1132 N1120 0.984 . S
H1133 N1120 0.985 . S
C1134 C1135 1.363 . S
C1134 C1140 1.379 . S
C1134 N1142 1.356 . S
C1135 C1134 1.363 . S
C1135 C1141 1.363 . S
C1136 C1137 1.363 . S
C1136 C1141 1.379 . S
C1136 N1143 1.356 . S
C1137 C1136 1.363 . S
C1137 C1140 1.363 . S
N1138 C1140 1.356 . S
N1138 H1150 0.984 . S
N1138 H1151 0.985 . S
N1139 C1141 1.356 . S
N1139 H1144 0.984 . S
N1139 H1145 0.985 . S
C1140 C1134 1.379 . S
C1140 C1137 1.363 . S
C1140 N1138 1.356 . S
C1141 C1135 1.363 . S
C1141 C1136 1.379 . S
C1141 N1139 1.356 . S
N1142 C1134 1.356 . S
N1142 H1148 0.984 . S
N1142 H1149 0.984 . S
N1143 C1136 1.356 . S
N1143 H1146 0.984 . S
N1143 H1147 0.985 . S
H1144 N1139 0.984 . S
H1145 N1139 0.985 . S
H1146 N1143 0.984 . S
H1147 N1143 0.985 . S
H1148 N1142 0.984 . S
H1149 N1142 0.984 . S
H1150 N1138 0.984 . S
H1151 N1138 0.985 . S
C1152 C1153 1.363 . S
C1152 C1158 1.379 . S
C1152 N1160 1.356 . S
C1153 C1152 1.363 . S
C1153 C1159 1.363 . S
C1154 C1155 1.363 . S
C1154 C1159 1.379 . S
C1154 N1161 1.356 . S
C1155 C1154 1.363 . S
C1155 C1158 1.363 . S
N1156 C1158 1.356 . S
N1156 H1168 0.984 . S
N1156 H1169 0.985 . S
N1157 C1159 1.356 . S
N1157 H1162 0.984 . S
N1157 H1163 0.985 . S
C1158 C1152 1.379 . S
C1158 C1155 1.363 . S
C1158 N1156 1.356 . S
C1159 C1153 1.363 . S
C1159 C1154 1.379 . S
C1159 N1157 1.356 . S
N1160 C1152 1.356 . S
N1160 H1166 0.984 . S
N1160 H1167 0.984 . S
N1161 C1154 1.356 . S
N1161 H1164 0.984 . S
N1161 H1165 0.985 . S
H1162 N1157 0.984 . S
H1163 N1157 0.985 . S
H1164 N1161 0.984 . S
H1165 N1161 0.985 . S
H1166 N1160 0.984 . S
H1167 N1160 0.984 . S
H1168 N1156 0.984 . S
H1169 N1156 0.985 . S
C1170 C1171 1.363 . S
C1170 C1176 1.379 . S
C1170 N1178 1.356 . S
C1171 C1170 1.363 . S
C1171 C1177 1.363 . S
C1172 C1173 1.363 . S
C1172 C1177 1.379 . S
C1172 N1179 1.356 . S
C1173 C1172 1.363 . S
C1173 C1176 1.363 . S
N1174 C1176 1.356 . S
N1174 H1186 0.984 . S
N1174 H1187 0.985 . S
N1175 C1177 1.356 . S
N1175 H1180 0.984 . S
N1175 H1181 0.985 . S
C1176 C1170 1.379 . S
C1176 C1173 1.363 . S
C1176 N1174 1.356 . S
C1177 C1171 1.363 . S
C1177 C1172 1.379 . S
C1177 N1175 1.356 . S
N1178 C1170 1.356 . S
N1178 H1184 0.984 . S
N1178 H1185 0.984 . S
N1179 C1172 1.356 . S
N1179 H1182 0.984 . S
N1179 H1183 0.985 . S
H1180 N1175 0.984 . S
H1181 N1175 0.985 . S
H1182 N1179 0.984 . S
H1183 N1179 0.985 . S
H1184 N1178 0.984 . S
H1185 N1178 0.984 . S
H1186 N1174 0.984 . S
H1187 N1174 0.985 . S
C1188 C1189 1.363 . S
C1188 C1194 1.379 . S
C1188 N1196 1.356 . S
C1189 C1188 1.363 . S
C1189 C1195 1.363 . S
C1190 C1191 1.363 . S
C1190 C1195 1.379 . S
C1190 N1197 1.356 . S
C1191 C1190 1.363 . S
C1191 C1194 1.363 . S
N1192 C1194 1.356 . S
N1192 H1204 0.984 . S
N1192 H1205 0.985 . S
N1193 C1195 1.356 . S
N1193 H1198 0.984 . S
N1193 H1199 0.985 . S
C1194 C1188 1.379 . S
C1194 C1191 1.363 . S
C1194 N1192 1.356 . S
C1195 C1189 1.363 . S
C1195 C1190 1.379 . S
C1195 N1193 1.356 . S
N1196 C1188 1.356 . S
N1196 H1202 0.984 . S
N1196 H1203 0.984 . S
N1197 C1190 1.356 . S
N1197 H1200 0.984 . S
N1197 H1201 0.985 . S
H1198 N1193 0.984 . S
H1199 N1193 0.985 . S
H1200 N1197 0.984 . S
H1201 N1197 0.985 . S
H1202 N1196 0.984 . S
H1203 N1196 0.984 . S
H1204 N1192 0.984 . S
H1205 N1192 0.985 . S
C1206 C1207 1.363 . S
C1206 C1212 1.379 . S
C1206 N1214 1.356 . S
C1207 C1206 1.363 . S
C1207 C1213 1.363 . S
C1208 C1209 1.363 . S
C1208 C1213 1.379 . S
C1208 N1215 1.356 . S
C1209 C1208 1.363 . S
C1209 C1212 1.363 . S
N1210 C1212 1.356 . S
N1210 H1222 0.984 . S
N1210 H1223 0.985 . S
N1211 C1213 1.356 . S
N1211 H1216 0.984 . S
N1211 H1217 0.985 . S
C1212 C1206 1.379 . S
C1212 C1209 1.363 . S
C1212 N1210 1.356 . S
C1213 C1207 1.363 . S
C1213 C1208 1.379 . S
C1213 N1211 1.356 . S
N1214 C1206 1.356 . S
N1214 H1220 0.984 . S
N1214 H1221 0.984 . S
N1215 C1208 1.356 . S
N1215 H1218 0.984 . S
N1215 H1219 0.985 . S
H1216 N1211 0.984 . S
H1217 N1211 0.985 . S
H1218 N1215 0.984 . S
H1219 N1215 0.985 . S
H1220 N1214 0.984 . S
H1221 N1214 0.984 . S
H1222 N1210 0.984 . S
H1223 N1210 0.985 . S
C1224 C1225 1.363 . S
C1224 C1230 1.379 . S
C1224 N1232 1.356 . S
C1225 C1224 1.363 . S
C1225 C1231 1.363 . S
C1226 C1227 1.363 . S
C1226 C1231 1.379 . S
C1226 N1233 1.356 . S
C1227 C1226 1.363 . S
C1227 C1230 1.363 . S
N1228 C1230 1.356 . S
N1228 H1240 0.984 . S
N1228 H1241 0.985 . S
N1229 C1231 1.356 . S
N1229 H1234 0.984 . S
N1229 H1235 0.985 . S
C1230 C1224 1.379 . S
C1230 C1227 1.363 . S
C1230 N1228 1.356 . S
C1231 C1225 1.363 . S
C1231 C1226 1.379 . S
C1231 N1229 1.356 . S
N1232 C1224 1.356 . S
N1232 H1238 0.984 . S
N1232 H1239 0.984 . S
N1233 C1226 1.356 . S
N1233 H1236 0.984 . S
N1233 H1237 0.985 1_556 S
H1234 N1229 0.984 . S
H1235 N1229 0.985 . S
H1236 N1233 0.984 . S
H1237 N1233 0.985 1_554 S
H1238 N1232 0.984 . S
H1239 N1232 0.984 . S
H1240 N1228 0.984 . S
H1241 N1228 0.985 . S
C1242 C1243 1.363 . S
C1242 C1248 1.379 . S
C1242 N1250 1.356 . S
C1243 C1242 1.363 . S
C1243 C1249 1.363 . S
C1244 C1245 1.363 . S
C1244 C1249 1.379 . S
C1244 N1251 1.356 . S
C1245 C1244 1.363 . S
C1245 C1248 1.363 . S
N1246 C1248 1.356 . S
N1246 H1258 0.984 . S
N1246 H1259 0.985 . S
N1247 C1249 1.356 . S
N1247 H1252 0.984 . S
N1247 H1253 0.985 . S
C1248 C1242 1.379 . S
C1248 C1245 1.363 . S
C1248 N1246 1.356 . S
C1249 C1243 1.363 . S
C1249 C1244 1.379 . S
C1249 N1247 1.356 . S
N1250 C1242 1.356 . S
N1250 H1256 0.984 . S
N1250 H1257 0.984 . S
N1251 C1244 1.356 . S
N1251 H1254 0.984 . S
N1251 H1255 0.985 . S
H1252 N1247 0.984 . S
H1253 N1247 0.985 . S
H1254 N1251 0.984 . S
H1255 N1251 0.985 . S
H1256 N1250 0.984 . S
H1257 N1250 0.984 . S
H1258 N1246 0.984 . S
H1259 N1246 0.985 . S
C1260 C1261 1.363 . S
C1260 C1266 1.379 . S
C1260 N1268 1.356 . S
C1261 C1260 1.363 . S
C1261 C1267 1.363 . S
C1262 C1263 1.363 . S
C1262 C1267 1.379 . S
C1262 N1269 1.356 . S
C1263 C1262 1.363 . S
C1263 C1266 1.363 . S
N1264 C1266 1.356 . S
N1264 H1276 0.984 . S
N1264 H1277 0.985 . S
N1265 C1267 1.356 . S
N1265 H1270 0.984 . S
N1265 H1271 0.985 . S
C1266 C1260 1.379 . S
C1266 C1263 1.363 . S
C1266 N1264 1.356 . S
C1267 C1261 1.363 . S
C1267 C1262 1.379 . S
C1267 N1265 1.356 . S
N1268 C1260 1.356 . S
N1268 H1274 0.984 . S
N1268 H1275 0.984 . S
N1269 C1262 1.356 . S
N1269 H1272 0.984 . S
N1269 H1273 0.985 . S
H1270 N1265 0.984 . S
H1271 N1265 0.985 . S
H1272 N1269 0.984 . S
H1273 N1269 0.985 . S
H1274 N1268 0.984 . S
H1275 N1268 0.984 . S
H1276 N1264 0.984 . S
H1277 N1264 0.985 . S
C1278 C1279 1.363 . S
C1278 C1284 1.379 . S
C1278 N1286 1.356 . S
C1279 C1278 1.363 . S
C1279 C1285 1.363 . S
C1280 C1281 1.363 . S
C1280 C1285 1.379 . S
C1280 N1287 1.356 . S
C1281 C1280 1.363 . S
C1281 C1284 1.363 . S
N1282 C1284 1.356 . S
N1282 H1294 0.984 . S
N1282 H1295 0.985 . S
N1283 C1285 1.356 . S
N1283 H1288 0.984 . S
N1283 H1289 0.985 . S
C1284 C1278 1.379 . S
C1284 C1281 1.363 . S
C1284 N1282 1.356 . S
C1285 C1279 1.363 . S
C1285 C1280 1.379 . S
C1285 N1283 1.356 . S
N1286 C1278 1.356 . S
N1286 H1292 0.984 . S
N1286 H1293 0.984 . S
N1287 C1280 1.356 . S
N1287 H1290 0.984 . S
N1287 H1291 0.985 . S
H1288 N1283 0.984 . S
H1289 N1283 0.985 . S
H1290 N1287 0.984 . S
H1291 N1287 0.985 . S
H1292 N1286 0.984 . S
H1293 N1286 0.984 . S
H1294 N1282 0.984 . S
H1295 N1282 0.985 . S
C1296 C1297 1.363 . S
C1296 C1302 1.379 . S
C1296 N1304 1.356 . S
C1297 C1296 1.363 . S
C1297 C1303 1.363 . S
C1298 C1299 1.363 . S
C1298 C1303 1.379 . S
C1298 N1305 1.356 . S
C1299 C1298 1.363 . S
C1299 C1302 1.363 . S
N1300 C1302 1.356 . S
N1300 H1312 0.984 1_554 S
N1300 H1313 0.985 . S
N1301 C1303 1.356 . S
N1301 H1306 0.984 . S
N1301 H1307 0.985 . S
C1302 C1296 1.379 . S
C1302 C1299 1.363 . S
C1302 N1300 1.356 . S
C1303 C1297 1.363 . S
C1303 C1298 1.379 . S
C1303 N1301 1.356 . S
N1304 C1296 1.356 . S
N1304 H1310 0.984 1_554 S
N1304 H1311 0.984 . S
N1305 C1298 1.356 . S
N1305 H1308 0.984 . S
N1305 H1309 0.985 . S
H1306 N1301 0.984 . S
H1307 N1301 0.985 . S
H1308 N1305 0.984 . S
H1309 N1305 0.985 . S
H1310 N1304 0.984 1_556 S
H1311 N1304 0.984 . S
H1312 N1300 0.984 1_556 S
H1313 N1300 0.985 . S
C1314 C1315 1.363 . S
C1314 C1320 1.379 . S
C1314 N1322 1.356 . S
C1315 C1314 1.363 . S
C1315 C1321 1.363 . S
C1316 C1317 1.363 . S
C1316 C1321 1.379 . S
C1316 N1323 1.356 . S
C1317 C1316 1.363 . S
C1317 C1320 1.363 . S
N1318 C1320 1.356 . S
N1318 H1330 0.984 . S
N1318 H1331 0.985 . S
N1319 C1321 1.356 . S
N1319 H1324 0.984 . S
N1319 H1325 0.985 . S
C1320 C1314 1.379 . S
C1320 C1317 1.363 . S
C1320 N1318 1.356 . S
C1321 C1315 1.363 . S
C1321 C1316 1.379 . S
C1321 N1319 1.356 . S
N1322 C1314 1.356 . S
N1322 H1328 0.984 . S
N1322 H1329 0.984 . S
N1323 C1316 1.356 . S
N1323 H1326 0.984 . S
N1323 H1327 0.985 . S
H1324 N1319 0.984 . S
H1325 N1319 0.985 . S
H1326 N1323 0.984 . S
H1327 N1323 0.985 . S
H1328 N1322 0.984 . S
H1329 N1322 0.984 . S
H1330 N1318 0.984 . S
H1331 N1318 0.985 . S
C1332 C1333 1.363 . S
C1332 C1338 1.379 . S
C1332 N1340 1.356 . S
C1333 C1332 1.363 . S
C1333 C1339 1.363 . S
C1334 C1335 1.363 . S
C1334 C1339 1.379 . S
C1334 N1341 1.356 . S
C1335 C1334 1.363 . S
C1335 C1338 1.363 . S
N1336 C1338 1.356 . S
N1336 H1348 0.984 . S
N1336 H1349 0.985 . S
N1337 C1339 1.356 . S
N1337 H1342 0.984 . S
N1337 H1343 0.985 . S
C1338 C1332 1.379 . S
C1338 C1335 1.363 . S
C1338 N1336 1.356 . S
C1339 C1333 1.363 . S
C1339 C1334 1.379 . S
C1339 N1337 1.356 . S
N1340 C1332 1.356 . S
N1340 H1346 0.984 . S
N1340 H1347 0.984 . S
N1341 C1334 1.356 . S
N1341 H1344 0.984 . S
N1341 H1345 0.985 . S
H1342 N1337 0.984 . S
H1343 N1337 0.985 . S
H1344 N1341 0.984 . S
H1345 N1341 0.985 . S
H1346 N1340 0.984 . S
H1347 N1340 0.984 . S
H1348 N1336 0.984 . S
H1349 N1336 0.985 . S
C1350 C1351 1.363 . S
C1350 C1356 1.379 . S
C1350 N1358 1.356 . S
C1351 C1350 1.363 . S
C1351 C1357 1.363 . S
C1352 C1353 1.363 . S
C1352 C1357 1.379 . S
C1352 N1359 1.356 . S
C1353 C1352 1.363 . S
C1353 C1356 1.363 . S
N1354 C1356 1.356 . S
N1354 H1366 0.984 . S
N1354 H1367 0.985 . S
N1355 C1357 1.356 . S
N1355 H1360 0.984 . S
N1355 H1361 0.985 . S
C1356 C1350 1.379 . S
C1356 C1353 1.363 . S
C1356 N1354 1.356 . S
C1357 C1351 1.363 . S
C1357 C1352 1.379 . S
C1357 N1355 1.356 . S
N1358 C1350 1.356 . S
N1358 H1364 0.984 . S
N1358 H1365 0.984 . S
N1359 C1352 1.356 . S
N1359 H1362 0.984 . S
N1359 H1363 0.985 . S
H1360 N1355 0.984 . S
H1361 N1355 0.985 . S
H1362 N1359 0.984 . S
H1363 N1359 0.985 . S
H1364 N1358 0.984 . S
H1365 N1358 0.984 . S
H1366 N1354 0.984 . S
H1367 N1354 0.985 . S
C1368 C1369 1.363 . S
C1368 C1374 1.379 1_554 S
C1368 N1376 1.356 . S
C1369 C1368 1.363 . S
C1369 C1375 1.363 . S
C1370 C1371 1.363 1_554 S
C1370 C1375 1.379 . S
C1370 N1377 1.356 . S
C1371 C1370 1.363 1_556 S
C1371 C1374 1.363 . S
N1372 C1374 1.356 . S
N1372 H1384 0.984 . S
N1372 H1385 0.985 . S
N1373 C1375 1.356 . S
N1373 H1378 0.984 . S
N1373 H1379 0.985 . S
C1374 C1368 1.379 1_556 S
C1374 C1371 1.363 . S
C1374 N1372 1.356 . S
C1375 C1369 1.363 . S
C1375 C1370 1.379 . S
C1375 N1373 1.356 . S
N1376 C1368 1.356 . S
N1376 H1382 0.984 . S
N1376 H1383 0.984 . S
N1377 C1370 1.356 . S
N1377 H1380 0.984 1_554 S
N1377 H1381 0.985 . S
H1378 N1373 0.984 . S
H1379 N1373 0.985 . S
H1380 N1377 0.984 1_556 S
H1381 N1377 0.985 . S
H1382 N1376 0.984 . S
H1383 N1376 0.984 . S
H1384 N1372 0.984 . S
H1385 N1372 0.985 . S
C1386 C1387 1.363 . S
C1386 C1392 1.379 . S
C1386 N1394 1.356 . S
C1387 C1386 1.363 . S
C1387 C1393 1.363 . S
C1388 C1389 1.363 1_554 S
C1388 C1393 1.379 . S
C1388 N1395 1.356 1_554 S
C1389 C1388 1.363 1_556 S
C1389 C1392 1.363 1_556 S
N1390 C1392 1.356 1_556 S
N1390 H1402 0.984 . S
N1390 H1403 0.985 . S
N1391 C1393 1.356 . S
N1391 H1396 0.984 . S
N1391 H1397 0.985 . S
C1392 C1386 1.379 . S
C1392 C1389 1.363 1_554 S
C1392 N1390 1.356 1_554 S
C1393 C1387 1.363 . S
C1393 C1388 1.379 . S
C1393 N1391 1.356 . S
N1394 C1386 1.356 . S
N1394 H1400 0.984 . S
N1394 H1401 0.984 . S
N1395 C1388 1.356 1_556 S
N1395 H1398 0.984 . S
N1395 H1399 0.985 . S
H1396 N1391 0.984 . S
H1397 N1391 0.985 . S
H1398 N1395 0.984 . S
H1399 N1395 0.985 . S
H1400 N1394 0.984 . S
H1401 N1394 0.984 . S
H1402 N1390 0.984 . S
H1403 N1390 0.985 . S
C1404 C1405 1.363 1_565 S
C1404 C1410 1.379 . S
C1404 N1412 1.356 . S
C1405 C1404 1.363 1_545 S
C1405 C1411 1.363 . S
C1406 C1407 1.394 . S
C1406 C1411 1.379 1_556 S
C1406 N1413 1.356 . S
C1407 C1406 1.394 . S
C1407 C1410 1.341 1_546 S
N1408 C1410 1.356 1_556 S
N1408 H1420 0.984 1_556 S
N1408 H1421 0.985 . S
N1409 C1411 1.356 . S
N1409 H1414 0.984 . S
N1409 H1415 0.985 . S
C1410 C1404 1.379 . S
C1410 C1407 1.341 1_564 S
C1410 N1408 1.356 1_554 S
C1411 C1405 1.363 . S
C1411 C1406 1.379 1_554 S
C1411 N1409 1.356 . S
N1412 C1404 1.356 . S
N1412 H1418 0.984 . S
N1412 H1419 0.984 . S
N1413 C1406 1.356 . S
N1413 H1416 0.984 . S
N1413 H1417 0.985 . S
H1414 N1409 0.984 . S
H1415 N1409 0.985 . S
H1416 N1413 0.984 . S
H1417 N1413 0.985 . S
H1418 N1412 0.984 . S
H1419 N1412 0.984 . S
H1420 N1408 0.984 1_554 S
H1421 N1408 0.985 . S
C1422 C1423 1.363 1_655 S
C1422 C1428 1.379 . S
C1422 N1430 1.356 . S
C1423 C1422 1.363 1_455 S
C1423 C1429 1.363 . S
C1424 C1425 1.372 1_556 S
C1424 C1429 1.379 . S
C1424 N1431 1.356 1_556 S
C1425 C1424 1.372 1_554 S
C1425 C1428 1.353 1_454 S
N1426 C1428 1.356 1_554 S
N1426 H1438 0.984 . S
N1426 H1439 0.985 . S
N1427 C1429 1.356 . S
N1427 H1432 0.984 . S
N1427 H1433 0.985 . S
C1428 C1422 1.379 . S
C1428 C1425 1.353 1_656 S
C1428 N1426 1.356 1_556 S
C1429 C1423 1.363 . S
C1429 C1424 1.379 . S
C1429 N1427 1.356 . S
N1430 C1422 1.356 . S
N1430 H1436 0.984 . S
N1430 H1437 0.984 . S
N1431 C1424 1.356 1_554 S
N1431 H1434 0.984 . S
N1431 H1435 0.985 . S
H1432 N1427 0.984 . S
H1433 N1427 0.985 . S
H1434 N1431 0.984 . S
H1435 N1431 0.985 . S
H1436 N1430 0.984 . S
H1437 N1430 0.984 . S
H1438 N1426 0.984 . S
H1439 N1426 0.985 . S
C1440 C1441 1.363 1_556 S
C1440 C1446 1.379 . S
C1440 N1448 1.356 1_556 S
C1441 C1440 1.363 1_554 S
C1441 C1447 1.363 1_554 S
C1442 C1443 1.363 . S
C1442 C1447 1.379 . S
C1442 N1449 1.356 . S
C1443 C1442 1.363 . S
C1443 C1446 1.363 . S
N1444 C1446 1.356 . S
N1444 H1456 0.984 . S
N1444 H1457 0.985 . S
N1445 C1447 1.356 1_554 S
N1445 H1450 0.984 . S
N1445 H1451 0.985 . S
C1446 C1440 1.379 . S
C1446 C1443 1.363 . S
C1446 N1444 1.356 . S
C1447 C1441 1.363 1_556 S
C1447 C1442 1.379 . S
C1447 N1445 1.356 1_556 S
N1448 C1440 1.356 1_554 S
N1448 H1454 0.984 . S
N1448 H1455 0.984 . S
N1449 C1442 1.356 . S
N1449 H1452 0.984 . S
N1449 H1453 0.985 . S
H1450 N1445 0.984 . S
H1451 N1445 0.985 . S
H1452 N1449 0.984 . S
H1453 N1449 0.985 . S
H1454 N1448 0.984 . S
H1455 N1448 0.984 . S
H1456 N1444 0.984 . S
H1457 N1444 0.985 . S
C1458 C1459 1.363 1_565 S
C1458 C1464 1.379 1_554 S
C1458 N1466 1.356 . S
C1459 C1458 1.363 1_545 S
C1459 C1465 1.363 1_554 S
C1460 C1461 1.363 . S
C1460 C1465 1.379 . S
C1460 N1467 1.356 . S
C1461 C1460 1.363 . S
C1461 C1464 1.363 1_545 S
N1462 C1464 1.356 . S
N1462 H1474 0.984 . S
N1462 H1475 0.985 . S
N1463 C1465 1.350 1_554 S
N1463 H1468 0.997 . S
N1463 H1469 0.978 1_554 S
C1464 C1458 1.379 1_556 S
C1464 C1461 1.363 1_565 S
C1464 N1462 1.356 . S
C1465 C1459 1.363 1_556 S
C1465 C1460 1.379 . S
C1465 N1463 1.350 1_556 S
N1466 C1458 1.356 . S
N1466 H1472 0.984 . S
N1466 H1473 0.984 . S
N1467 C1460 1.356 . S
N1467 H1470 0.984 . S
N1467 H1471 0.985 . S
H1468 N1463 0.997 . S
H1469 N1463 0.978 1_556 S
H1470 N1467 0.984 . S
H1471 N1467 0.985 . S
H1472 N1466 0.984 . S
H1473 N1466 0.984 . S
H1474 N1462 0.984 . S
H1475 N1462 0.985 . S
C1476 C1477 1.363 . S
C1476 C1482 1.379 . S
C1476 N1484 1.356 . S
C1477 C1476 1.363 . S
C1477 C1483 1.363 . S
C1478 C1479 1.363 . S
C1478 C1483 1.379 . S
C1478 N1485 1.356 . S
C1479 C1478 1.363 . S
C1479 C1482 1.363 . S
N1480 C1482 1.356 . S
N1480 H1492 0.984 . S
N1480 H1493 0.985 . S
N1481 C1483 1.356 . S
N1481 H1486 0.984 . S
N1481 H1487 0.985 . S
C1482 C1476 1.379 . S
C1482 C1479 1.363 . S
C1482 N1480 1.356 . S
C1483 C1477 1.363 . S
C1483 C1478 1.379 . S
C1483 N1481 1.356 . S
N1484 C1476 1.356 . S
N1484 H1490 0.984 . S
N1484 H1491 0.984 . S
N1485 C1478 1.356 . S
N1485 H1488 0.984 . S
N1485 H1489 0.985 . S
H1486 N1481 0.984 . S
H1487 N1481 0.985 . S
H1488 N1485 0.984 . S
H1489 N1485 0.985 . S
H1490 N1484 0.984 . S
H1491 N1484 0.984 . S
H1492 N1480 0.984 . S
H1493 N1480 0.985 . S
C1494 C1495 1.363 . S
C1494 C1500 1.379 . S
C1494 N1502 1.356 . S
C1495 C1494 1.363 . S
C1495 C1501 1.363 . S
C1496 C1497 1.363 . S
C1496 C1501 1.379 . S
C1496 N1503 1.356 . S
C1497 C1496 1.363 . S
C1497 C1500 1.363 . S
N1498 C1500 1.356 . S
N1498 H1510 0.984 . S
N1498 H1511 0.985 . S
N1499 C1501 1.356 . S
N1499 H1504 0.984 . S
N1499 H1505 0.985 . S
C1500 C1494 1.379 . S
C1500 C1497 1.363 . S
C1500 N1498 1.356 . S
C1501 C1495 1.363 . S
C1501 C1496 1.379 . S
C1501 N1499 1.356 . S
N1502 C1494 1.356 . S
N1502 H1508 0.984 . S
N1502 H1509 0.984 . S
N1503 C1496 1.356 . S
N1503 H1506 0.984 . S
N1503 H1507 0.985 . S
H1504 N1499 0.984 . S
H1505 N1499 0.985 . S
H1506 N1503 0.984 . S
H1507 N1503 0.985 . S
H1508 N1502 0.984 . S
H1509 N1502 0.984 . S
H1510 N1498 0.984 . S
H1511 N1498 0.985 . S
C1512 C1513 1.363 . S
C1512 C1518 1.379 . S
C1512 N1520 1.356 . S
C1513 C1512 1.363 . S
C1513 C1519 1.363 . S
C1514 C1515 1.363 . S
C1514 C1519 1.379 . S
C1514 N1521 1.356 . S
C1515 C1514 1.363 . S
C1515 C1518 1.363 . S
N1516 C1518 1.356 . S
N1516 H1528 0.984 . S
N1516 H1529 0.985 . S
N1517 C1519 1.356 . S
N1517 H1522 0.984 . S
N1517 H1523 0.985 . S
C1518 C1512 1.379 . S
C1518 C1515 1.363 . S
C1518 N1516 1.356 . S
C1519 C1513 1.363 . S
C1519 C1514 1.379 . S
C1519 N1517 1.356 . S
N1520 C1512 1.356 . S
N1520 H1526 0.984 . S
N1520 H1527 0.984 . S
N1521 C1514 1.356 . S
N1521 H1524 0.984 . S
N1521 H1525 0.985 . S
H1522 N1517 0.984 . S
H1523 N1517 0.985 . S
H1524 N1521 0.984 . S
H1525 N1521 0.985 . S
H1526 N1520 0.984 . S
H1527 N1520 0.984 . S
H1528 N1516 0.984 . S
H1529 N1516 0.985 . S
C1530 C1531 1.363 . S
C1530 C1536 1.379 . S
C1530 N1538 1.356 . S
C1531 C1530 1.363 . S
C1531 C1537 1.363 . S
C1532 C1533 1.363 . S
C1532 C1537 1.379 . S
C1532 N1539 1.356 . S
C1533 C1532 1.363 . S
C1533 C1536 1.363 . S
N1534 C1536 1.356 . S
N1534 H1546 0.984 . S
N1534 H1547 0.985 . S
N1535 C1537 1.356 . S
N1535 H1540 0.984 . S
N1535 H1541 0.985 . S
C1536 C1530 1.379 . S
C1536 C1533 1.363 . S
C1536 N1534 1.356 . S
C1537 C1531 1.363 . S
C1537 C1532 1.379 . S
C1537 N1535 1.356 . S
N1538 C1530 1.356 . S
N1538 H1544 0.984 . S
N1538 H1545 0.984 . S
N1539 C1532 1.356 . S
N1539 H1542 0.984 . S
N1539 H1543 0.985 . S
H1540 N1535 0.984 . S
H1541 N1535 0.985 . S
H1542 N1539 0.984 . S
H1543 N1539 0.985 . S
H1544 N1538 0.984 . S
H1545 N1538 0.984 . S
H1546 N1534 0.984 . S
H1547 N1534 0.985 . S
C1548 C1549 1.363 . S
C1548 C1554 1.379 . S
C1548 N1556 1.356 . S
C1549 C1548 1.363 . S
C1549 C1555 1.363 . S
C1550 C1551 1.363 . S
C1550 C1555 1.379 . S
C1550 N1557 1.356 . S
C1551 C1550 1.363 . S
C1551 C1554 1.363 . S
N1552 C1554 1.356 . S
N1552 H1564 0.984 . S
N1552 H1565 0.985 . S
N1553 C1555 1.356 . S
N1553 H1558 0.984 . S
N1553 H1559 0.985 . S
C1554 C1548 1.379 . S
C1554 C1551 1.363 . S
C1554 N1552 1.356 . S
C1555 C1549 1.363 . S
C1555 C1550 1.379 . S
C1555 N1553 1.356 . S
N1556 C1548 1.356 . S
N1556 H1562 0.984 . S
N1556 H1563 0.984 . S
N1557 C1550 1.356 . S
N1557 H1560 0.984 . S
N1557 H1561 0.985 . S
H1558 N1553 0.984 . S
H1559 N1553 0.985 . S
H1560 N1557 0.984 . S
H1561 N1557 0.985 . S
H1562 N1556 0.984 . S
H1563 N1556 0.984 . S
H1564 N1552 0.984 . S
H1565 N1552 0.985 . S
C1566 C1567 1.363 . S
C1566 C1572 1.379 . S
C1566 N1574 1.356 . S
C1567 C1566 1.363 . S
C1567 C1573 1.363 . S
C1568 C1569 1.363 . S
C1568 C1573 1.379 . S
C1568 N1575 1.356 . S
C1569 C1568 1.363 . S
C1569 C1572 1.363 . S
N1570 C1572 1.356 . S
N1570 H1582 0.984 . S
N1570 H1583 0.985 . S
N1571 C1573 1.356 . S
N1571 H1576 0.984 . S
N1571 H1577 0.985 . S
C1572 C1566 1.379 . S
C1572 C1569 1.363 . S
C1572 N1570 1.356 . S
C1573 C1567 1.363 . S
C1573 C1568 1.379 . S
C1573 N1571 1.356 . S
N1574 C1566 1.356 . S
N1574 H1580 0.984 . S
N1574 H1581 0.984 . S
N1575 C1568 1.356 . S
N1575 H1578 0.984 . S
N1575 H1579 0.985 . S
H1576 N1571 0.984 . S
H1577 N1571 0.985 . S
H1578 N1575 0.984 . S
H1579 N1575 0.985 . S
H1580 N1574 0.984 . S
H1581 N1574 0.984 . S
H1582 N1570 0.984 . S
H1583 N1570 0.985 . S
C1584 C1585 1.363 . S
C1584 C1590 1.379 . S
C1584 N1592 1.356 . S
C1585 C1584 1.363 . S
C1585 C1591 1.363 . S
C1586 C1587 1.363 . S
C1586 C1591 1.379 . S
C1586 N1593 1.356 . S
C1587 C1586 1.363 . S
C1587 C1590 1.363 . S
N1588 C1590 1.356 . S
N1588 H1600 0.984 . S
N1588 H1601 0.985 . S
N1589 C1591 1.356 . S
N1589 H1594 0.984 . S
N1589 H1595 0.985 . S
C1590 C1584 1.379 . S
C1590 C1587 1.363 . S
C1590 N1588 1.356 . S
C1591 C1585 1.363 . S
C1591 C1586 1.379 . S
C1591 N1589 1.356 . S
N1592 C1584 1.356 . S
N1592 H1598 0.984 . S
N1592 H1599 0.984 . S
N1593 C1586 1.356 . S
N1593 H1596 0.984 . S
N1593 H1597 0.985 . S
H1594 N1589 0.984 . S
H1595 N1589 0.985 . S
H1596 N1593 0.984 . S
H1597 N1593 0.985 . S
H1598 N1592 0.984 . S
H1599 N1592 0.984 . S
H1600 N1588 0.984 . S
H1601 N1588 0.985 . S
C1602 C1603 1.363 . S
C1602 C1608 1.379 . S
C1602 N1610 1.356 . S
C1603 C1602 1.363 . S
C1603 C1609 1.363 . S
C1604 C1605 1.363 . S
C1604 C1609 1.379 . S
C1604 N1611 1.356 . S
C1605 C1604 1.363 . S
C1605 C1608 1.363 . S
N1606 C1608 1.356 . S
N1606 H1618 0.984 . S
N1606 H1619 0.985 . S
N1607 C1609 1.356 . S
N1607 H1612 0.984 . S
N1607 H1613 0.985 . S
C1608 C1602 1.379 . S
C1608 C1605 1.363 . S
C1608 N1606 1.356 . S
C1609 C1603 1.363 . S
C1609 C1604 1.379 . S
C1609 N1607 1.356 . S
N1610 C1602 1.356 . S
N1610 H1616 0.984 . S
N1610 H1617 0.984 . S
N1611 C1604 1.356 . S
N1611 H1614 0.984 . S
N1611 H1615 0.985 . S
H1612 N1607 0.984 . S
H1613 N1607 0.985 . S
H1614 N1611 0.984 . S
H1615 N1611 0.985 . S
H1616 N1610 0.984 . S
H1617 N1610 0.984 . S
H1618 N1606 0.984 . S
H1619 N1606 0.985 . S
C1620 C1621 1.363 . S
C1620 C1626 1.379 . S
C1620 N1628 1.356 . S
C1621 C1620 1.363 . S
C1621 C1627 1.363 . S
C1622 C1623 1.363 . S
C1622 C1627 1.379 . S
C1622 N1629 1.356 . S
C1623 C1622 1.363 . S
C1623 C1626 1.363 . S
N1624 C1626 1.356 . S
N1624 H1636 0.984 . S
N1624 H1637 0.985 . S
N1625 C1627 1.356 . S
N1625 H1630 0.984 . S
N1625 H1631 0.985 . S
C1626 C1620 1.379 . S
C1626 C1623 1.363 . S
C1626 N1624 1.356 . S
C1627 C1621 1.363 . S
C1627 C1622 1.379 . S
C1627 N1625 1.356 . S
N1628 C1620 1.356 . S
N1628 H1634 0.984 . S
N1628 H1635 0.984 . S
N1629 C1622 1.356 . S
N1629 H1632 0.984 . S
N1629 H1633 0.985 . S
H1630 N1625 0.984 . S
H1631 N1625 0.985 . S
H1632 N1629 0.984 . S
H1633 N1629 0.985 . S
H1634 N1628 0.984 . S
H1635 N1628 0.984 . S
H1636 N1624 0.984 . S
H1637 N1624 0.985 . S
C1638 C1639 1.363 . S
C1638 C1644 1.379 . S
C1638 N1646 1.356 . S
C1639 C1638 1.363 . S
C1639 C1645 1.363 . S
C1640 C1641 1.363 . S
C1640 C1645 1.379 . S
C1640 N1647 1.356 . S
C1641 C1640 1.363 . S
C1641 C1644 1.363 . S
N1642 C1644 1.356 . S
N1642 H1654 0.984 . S
N1642 H1655 0.985 . S
N1643 C1645 1.356 . S
N1643 H1648 0.984 . S
N1643 H1649 0.985 . S
C1644 C1638 1.379 . S
C1644 C1641 1.363 . S
C1644 N1642 1.356 . S
C1645 C1639 1.363 . S
C1645 C1640 1.379 . S
C1645 N1643 1.356 . S
N1646 C1638 1.356 . S
N1646 H1652 0.984 . S
N1646 H1653 0.984 . S
N1647 C1640 1.356 . S
N1647 H1650 0.984 . S
N1647 H1651 0.985 . S
H1648 N1643 0.984 . S
H1649 N1643 0.985 . S
H1650 N1647 0.984 . S
H1651 N1647 0.985 . S
H1652 N1646 0.984 . S
H1653 N1646 0.984 . S
H1654 N1642 0.984 . S
H1655 N1642 0.985 . S
C1656 C1657 1.363 . S
C1656 C1662 1.379 . S
C1656 N1664 1.356 . S
C1657 C1656 1.363 . S
C1657 C1663 1.363 . S
C1658 C1659 1.363 . S
C1658 C1663 1.379 . S
C1658 N1665 1.356 . S
C1659 C1658 1.363 . S
C1659 C1662 1.363 . S
N1660 C1662 1.356 . S
N1660 H1672 0.984 . S
N1660 H1673 0.985 . S
N1661 C1663 1.356 . S
N1661 H1666 0.984 . S
N1661 H1667 0.985 . S
C1662 C1656 1.379 . S
C1662 C1659 1.363 . S
C1662 N1660 1.356 . S
C1663 C1657 1.363 . S
C1663 C1658 1.379 . S
C1663 N1661 1.356 . S
N1664 C1656 1.356 . S
N1664 H1670 0.984 . S
N1664 H1671 0.984 . S
N1665 C1658 1.356 . S
N1665 H1668 0.984 . S
N1665 H1669 0.985 . S
H1666 N1661 0.984 . S
H1667 N1661 0.985 . S
H1668 N1665 0.984 . S
H1669 N1665 0.985 . S
H1670 N1664 0.984 . S
H1671 N1664 0.984 . S
H1672 N1660 0.984 . S
H1673 N1660 0.985 . S
C1674 C1675 1.363 . S
C1674 C1680 1.379 . S
C1674 N1682 1.356 . S
C1675 C1674 1.363 . S
C1675 C1681 1.363 . S
C1676 C1677 1.363 . S
C1676 C1681 1.379 . S
C1676 N1683 1.356 . S
C1677 C1676 1.363 . S
C1677 C1680 1.363 . S
N1678 C1680 1.356 . S
N1678 H1690 0.984 . S
N1678 H1691 0.985 . S
N1679 C1681 1.356 . S
N1679 H1684 0.984 . S
N1679 H1685 0.985 . S
C1680 C1674 1.379 . S
C1680 C1677 1.363 . S
C1680 N1678 1.356 . S
C1681 C1675 1.363 . S
C1681 C1676 1.379 . S
C1681 N1679 1.356 . S
N1682 C1674 1.356 . S
N1682 H1688 0.984 . S
N1682 H1689 0.984 . S
N1683 C1676 1.356 . S
N1683 H1686 0.984 . S
N1683 H1687 0.985 . S
H1684 N1679 0.984 . S
H1685 N1679 0.985 . S
H1686 N1683 0.984 . S
H1687 N1683 0.985 . S
H1688 N1682 0.984 . S
H1689 N1682 0.984 . S
H1690 N1678 0.984 . S
H1691 N1678 0.985 . S
C721 C540 2.284 . S
C723 C2 2.318 . S
C739 C42 2.318 . S
C741 C580 2.284 . S
C757 C82 2.318 . S
C759 C500 2.284 . S
C775 C100 2.284 . S
C777 C282 2.318 . S
C793 C322 2.318 . S
C795 C20 2.284 . S
C811 C60 2.284 . S
C813 C242 2.318 . S
C829 C143 2.318 . S
C831 C431 2.284 . S
C847 C183 2.318 . S
C849 C471 2.284 . S
C865 C391 2.284 . S
C867 C223 2.318 . S
C883 C663 2.318 . S
C885 C231 2.284 . S
C901 C151 2.284 . S
C903 C703 2.318 . S
C919 C623 2.318 . S
C921 C191 2.284 . S
C937 C340 2.284 1_554 S
C939 C522 2.318 . S
C955 C260 2.284 1_554 S
C957 C562 2.318 . S
C973 C300 2.284 1_554 S
C975 C482 2.318 . S
C991 C383 2.318 . S
C993 C671 2.284 1_556 S
C1009 C711 2.284 1_556 S
C1011 C423 2.318 . S
C1027 C631 2.284 1_556 S
C1029 C463 2.318 . S
C1045 C31 1.824 . S
C1047 C162 1.668 . S
C1063 C202 1.669 . S
C1065 C71 1.824 . S
C1081 C122 1.669 . S
C1083 C111 1.825 . S
C1099 C180 1.824 . S
C1101 C103 1.668 . S
C1117 C220 1.824 . S
C1119 C23 1.668 . S
C1135 C140 1.825 . S
C1137 C63 1.669 . S
C1153 C402 1.669 . S
C1155 C271 1.825 . S
C1171 C442 1.668 . S
C1173 C311 1.824 . S
C1189 C362 1.668 . S
C1191 C351 1.824 . S
C1207 C420 1.825 . S
C1209 C343 1.669 . S
C1225 C460 1.825 . S
C1227 C263 1.669 . S
C1243 C380 1.824 . S
C1245 C303 1.668 . S
C1261 C642 1.668 . S
C1263 C511 1.824 . S
C1279 C682 1.669 . S
C1281 C551 1.825 . S
C1297 C591 1.825 . S
C1299 C602 1.669 . S
C1315 C583 1.669 . S
C1317 C660 1.825 . S
C1333 C503 1.669 . S
C1335 C700 1.825 . S
C1351 C620 1.824 . S
C1353 C543 1.668 . S
C1369 C25 1.201 . S
C1371 C4 1.201 . S
C1387 C65 1.201 . S
C1389 C44 1.201 . S
C1405 C105 1.201 . S
C1407 C84 1.201 . S
C1423 C124 1.201 . S
C1425 C145 1.200 . S
C1441 C185 1.201 . S
C1443 C164 1.201 . S
C1459 C225 1.201 . S
C1461 C204 1.201 . S
C1477 C244 1.201 . S
C1479 C265 1.201 . S
C1495 C305 1.201 . S
C1497 C284 1.201 . S
C1513 C324 1.201 . S
C1515 C345 1.201 . S
C1531 C364 1.201 . S
C1533 C385 1.201 . S
C1549 C404 1.201 . S
C1551 C425 1.201 . S
C1567 C444 1.201 . S
C1569 C465 1.201 . S
C1585 C484 1.201 . S
C1587 C505 1.201 . S
C1603 C545 1.201 . S
C1605 C524 1.201 . S
C1621 C585 1.201 . S
C1623 C564 1.201 . S
C1639 C625 1.201 . S
C1641 C604 1.201 . S
C1657 C665 1.201 . S
C1659 C644 1.201 . S
C1675 C684 1.201 . S
C1677 C705 1.201 . S
