# Generated by pormake.
# Topology smc, (6)-cn, num edge types: 1
# Building blocks:
#     Node 0, Type 0, BuildingBlock: HISSIN_clean_sbu_0, # of connection points: 6
#     Node 1, Type 0, BuildingBlock: HISSIN_clean_sbu_0, # of connection points: 6
#     Node 2, Type 0, BuildingBlock: HISSIN_clean_sbu_0, # of connection points: 6
#     Node 3, Type 0, BuildingBlock: HISSIN_clean_sbu_0, # of connection points: 6
#     Node 4, Type 0, BuildingBlock: HISSIN_clean_sbu_0, # of connection points: 6
#     Node 5, Type 0, BuildingBlock: HISSIN_clean_sbu_0, # of connection points: 6
#     Node 6, Type 0, BuildingBlock: HISSIN_clean_sbu_0, # of connection points: 6
#     Node 7, Type 0, BuildingBlock: HISSIN_clean_sbu_0, # of connection points: 6
#     Node 8, Type 0, BuildingBlock: HISSIN_clean_sbu_0, # of connection points: 6
#     Edge 9, Type (0, 0), BuildingBlock: UVAHIK_clean_linker_0, # of connection points: 2
#     Edge 10, Type (0, 0), BuildingBlock: UVAHIK_clean_linker_0, # of connection points: 2
#     Edge 11, Type (0, 0), BuildingBlock: UVAHIK_clean_linker_0, # of connection points: 2
#     Edge 12, Type (0, 0), BuildingBlock: UVAHIK_clean_linker_0, # of connection points: 2
#     Edge 13, Type (0, 0), BuildingBlock: UVAHIK_clean_linker_0, # of connection points: 2
#     Edge 14, Type (0, 0), BuildingBlock: UVAHIK_clean_linker_0, # of connection points: 2
#     Edge 15, Type (0, 0), BuildingBlock: UVAHIK_clean_linker_0, # of connection points: 2
#     Edge 16, Type (0, 0), BuildingBlock: UVAHIK_clean_linker_0, # of connection points: 2
#     Edge 17, Type (0, 0), BuildingBlock: UVAHIK_clean_linker_0, # of connection points: 2
#     Edge 18, Type (0, 0), BuildingBlock: UVAHIK_clean_linker_0, # of connection points: 2
#     Edge 19, Type (0, 0), BuildingBlock: UVAHIK_clean_linker_0, # of connection points: 2
#     Edge 20, Type (0, 0), BuildingBlock: UVAHIK_clean_linker_0, # of connection points: 2
#     Edge 21, Type (0, 0), BuildingBlock: UVAHIK_clean_linker_0, # of connection points: 2
#     Edge 22, Type (0, 0), BuildingBlock: UVAHIK_clean_linker_0, # of connection points: 2
#     Edge 23, Type (0, 0), BuildingBlock: UVAHIK_clean_linker_0, # of connection points: 2
#     Edge 24, Type (0, 0), BuildingBlock: UVAHIK_clean_linker_0, # of connection points: 2
#     Edge 25, Type (0, 0), BuildingBlock: UVAHIK_clean_linker_0, # of connection points: 2
#     Edge 26, Type (0, 0), BuildingBlock: UVAHIK_clean_linker_0, # of connection points: 2
#     Edge 27, Type (0, 0), BuildingBlock: UVAHIK_clean_linker_0, # of connection points: 2
#     Edge 28, Type (0, 0), BuildingBlock: UVAHIK_clean_linker_0, # of connection points: 2
#     Edge 29, Type (0, 0), BuildingBlock: UVAHIK_clean_linker_0, # of connection points: 2
#     Edge 30, Type (0, 0), BuildingBlock: UVAHIK_clean_linker_0, # of connection points: 2
#     Edge 31, Type (0, 0), BuildingBlock: UVAHIK_clean_linker_0, # of connection points: 2
#     Edge 32, Type (0, 0), BuildingBlock: UVAHIK_clean_linker_0, # of connection points: 2
#     Edge 33, Type (0, 0), BuildingBlock: UVAHIK_clean_linker_0, # of connection points: 2
#     Edge 34, Type (0, 0), BuildingBlock: UVAHIK_clean_linker_0, # of connection points: 2
#     Edge 35, Type (0, 0), BuildingBlock: UVAHIK_clean_linker_0, # of connection points: 2
# Relax obj value: 0.269
# Max RMSD: 0.347
# Mean RMSD: 0.306
data_MOF--net-smc--node1-HISSIN_clean_sbu_0--edge1-UVAHIK_clean_linker_0
_symmetry_space_group_name_H-M    P1
_symmetry_Int_Tables_number       1
_symmetry_cell_setting            triclinic
loop_
_symmetry_equiv_pos_as_xyz
'x, y, z'
_cell_length_a     51.96309
_cell_length_b     41.150946
_cell_length_c     52.533208
_cell_angle_alpha  91.577106
_cell_angle_beta   90.798338
_cell_angle_gamma 119.47005
loop_
_atom_site_label
_atom_site_type_symbol
_atom_site_fract_x
_atom_site_fract_y
_atom_site_fract_z
_atom_type_partial_charge
Eu0 Eu 0.04719 0.47271 0.02079 0.0
Eu1 Eu 0.06959 0.4141 1.00693 0.0
C2 C 1.02924 0.42684 0.96538 0.0
C3 C 1.00155 0.51962 0.03924 0.0
C4 C 0.97434 0.49068 0.02947 0.0
C5 C 0.97614 0.54843 0.06019 0.0
C6 C 0.9481 0.4908 0.03494 0.0
C7 C 1.00228 0.5484 0.0546 0.0
C8 C 0.94876 0.51963 0.05047 0.0
C9 C 1.02934 0.51981 0.03445 0.0
O10 O 0.11027 0.47238 1.01074 0.0
O11 O 0.08771 0.50475 0.99822 0.0
C12 C 0.11184 0.50287 1.00191 0.0
O13 O 0.07947 0.47797 0.05303 0.0
O14 O 0.09909 0.39969 0.98642 0.0
O15 O 0.07061 0.3629 0.01483 0.0
O16 O 0.06791 0.41736 0.04961 0.0
C17 C 0.07895 0.44872 0.06311 0.0
O18 O 1.01212 0.41737 0.03427 0.0
O19 O 1.01991 0.37859 1.00726 0.0
O20 O 0.05071 0.41902 0.96913 0.0
O21 O 1.03661 0.5019 0.05048 0.0
O22 O 1.03424 0.51397 1.01094 0.0
O23 O 1.02184 0.44343 0.9835 0.0
C24 C 0.12125 0.38093 0.0173 0.0
C25 C 0.12329 0.39178 0.04325 0.0
C26 C 0.17469 0.40996 0.01705 0.0
C27 C 0.15081 0.41404 0.05533 0.0
C28 C 0.14708 0.38812 1.0048 0.0
C29 C 0.17666 0.42507 0.04181 0.0
C30 C 0.09471 0.37349 1.00213 0.0
C31 C 1.00286 0.38476 0.02257 0.0
H32 H 0.97341 0.468 0.01777 0.0
H33 H 0.97741 0.57132 0.07187 0.0
H34 H 0.9273 0.46813 0.02734 0.0
H35 H 1.02313 0.57086 0.06233 0.0
H36 H 0.1038 0.38653 0.05353 0.0
H37 H 0.19443 0.41828 1.00623 0.0
H38 H 0.15184 0.42519 0.07449 0.0
H39 H 0.1461 0.38034 0.98479 0.0
Eu40 Eu 0.55289 0.59431 0.98862 0.0
Eu41 Eu 0.61399 0.62769 0.01831 0.0
C42 C 0.56073 0.59952 0.0495 0.0
C43 C 0.47932 0.58463 0.97628 0.0
C44 C 0.47651 0.59335 1.00175 0.0
C45 C 0.44527 0.60595 0.96318 0.0
C46 C 0.45767 0.60716 1.00795 0.0
C47 C 0.46397 0.59161 0.95699 0.0
C48 C 0.4415 0.6133 0.98882 0.0
C49 C 0.49992 0.57097 0.96996 0.0
O50 O 0.60204 0.565 1.01071 0.0
O51 O 0.55433 0.54039 0.99529 0.0
C52 C 0.5763 0.5353 1.00319 0.0
O53 O 0.58501 0.60143 0.95644 0.0
O54 O 0.63837 0.64589 0.05503 0.0
O55 O 0.66176 0.65227 0.02016 0.0
O56 O 0.62833 0.64088 0.97809 0.0
C57 C 0.61402 0.62387 0.95684 0.0
O58 O 0.56685 0.65577 0.98844 0.0
O59 O 0.60079 0.67548 0.02133 0.0
O60 O 0.57887 0.58805 0.04292 0.0
O61 O 0.52361 0.59454 0.95844 0.0
O62 O 0.50577 0.55423 0.98809 0.0
O63 O 0.55037 0.61083 0.03079 0.0
C64 C 0.68028 0.63764 0.05611 0.0
C65 C 0.67291 0.60081 0.04928 0.0
C66 C 0.72426 0.64599 0.07869 0.0
C67 C 0.69162 0.58704 0.05638 0.0
C68 C 0.7056 0.65982 0.0714 0.0
C69 C 0.71798 0.60985 0.07056 0.0
C70 C 0.66356 0.65416 0.04496 0.0
C71 C 0.58281 0.68143 1.00604 0.0
H72 H 0.48863 0.58908 0.01702 0.0
H73 H 0.43349 0.61079 0.94793 0.0
H74 H 0.45502 0.61161 0.02792 0.0
H75 H 0.46643 0.58595 0.93718 0.0
H76 H 0.65344 0.58332 0.03739 0.0
H77 H 0.74408 0.66403 0.09003 0.0
H78 H 0.68619 0.55926 0.04955 0.0
H79 H 0.71155 0.68829 0.07688 0.0
Eu80 Eu 0.54033 0.08385 0.0323 0.0
Eu81 Eu 0.47378 0.04021 0.01535 0.0
C82 C 0.51944 0.07608 0.97278 0.0
C83 C 0.62614 0.14118 0.04056 0.0
C84 C 0.64032 0.12783 0.02415 0.0
C85 C 0.6726 0.1993 0.04704 0.0
C86 C 0.67042 0.14961 0.01971 0.0
C87 C 0.64247 0.17738 0.05161 0.0
C88 C 0.68711 0.18529 0.03155 0.0
C89 C 0.59563 0.11614 0.04854 0.0
O90 O 0.48807 0.99518 0.02437 0.0
O91 O 0.53601 1.03031 0.01471 0.0
C92 C 0.51376 0.99716 0.01888 0.0
O93 O 0.5118 0.05527 0.06699 0.0
O94 O 0.43526 1.01552 0.98876 0.0
O95 O 0.42961 1.00402 0.02885 0.0
O96 O 0.47612 0.06662 0.05366 0.0
C97 C 0.48856 0.05878 0.07227 0.0
O98 O 0.53113 0.13241 0.03151 0.0
O99 O 0.48621 0.10353 1.00991 0.0
O100 O 0.49709 0.04451 0.97927 0.0
O101 O 0.5784 0.13027 0.05271 0.0
O102 O 0.58152 0.08308 0.03743 0.0
O103 O 0.53829 0.09916 0.9906 0.0
C104 C 0.39661 0.95576 1.0005 0.0
C105 C 0.36615 0.94264 0.99786 0.0
C106 C 0.38674 0.89135 0.99782 0.0
C107 C 0.3461 0.90424 0.99545 0.0
C108 C 0.40681 0.92985 1.00024 0.0
C109 C 0.35603 0.87794 0.99567 0.0
C110 C 0.41693 0.99597 1.00624 0.0
C111 C 0.5097 0.13489 0.01958 0.0
H112 H 0.6285 0.09992 0.01547 0.0
H113 H 0.68468 0.2269 0.05614 0.0
H114 H 0.68086 0.13765 1.00797 0.0
H115 H 0.63217 0.18829 0.06446 0.0
H116 H 0.35776 0.96209 0.99841 0.0
H117 H 0.39532 0.87211 0.99774 0.0
H118 H 0.3227 0.89518 0.99426 0.0
H119 H 0.43023 0.93935 1.00247 0.0
Eu120 Eu 0.6753 0.80412 0.35661 0.0
Eu121 Eu 0.7303 0.77838 0.34416 0.0
C122 C 0.68264 0.76831 0.29959 0.0
C123 C 0.61257 0.83865 0.36045 0.0
C124 C 0.61076 0.86099 0.34138 0.0
C125 C 0.56837 0.83623 0.37887 0.0
C126 C 0.58807 0.87049 0.34091 0.0
C127 C 0.59104 0.82664 0.37927 0.0
C128 C 0.56615 0.85808 0.35952 0.0
C129 C 0.63526 0.82575 0.35942 0.0
O130 O 0.73896 0.83379 0.32925 0.0
O131 O 0.72034 0.85427 0.36063 0.0
C132 C 0.7409 0.86091 0.34429 0.0
O133 O 0.69263 0.8003 0.39651 0.0
O134 O 0.75859 0.75268 0.3327 0.0
O135 O 0.77822 0.80966 0.34839 0.0
O136 O 0.73059 0.7879 0.38644 0.0
C137 C 0.71516 0.7951 0.40303 0.0
O138 O 0.65155 0.74226 0.35553 0.0
O139 O 0.68739 0.72321 0.35375 0.0
O140 O 0.70404 0.76186 0.30715 0.0
O141 O 0.63607 0.80167 0.37473 0.0
O142 O 0.65705 0.83927 0.34364 0.0
O143 O 0.67216 0.78588 0.31415 0.0
C144 C 0.81525 0.7913 0.3376 0.0
C145 C 0.83905 0.8265 0.34589 0.0
C146 C 0.85328 0.77404 0.32605 0.0
C147 C 0.86901 0.83533 0.3443 0.0
C148 C 0.82308 0.76517 0.32768 0.0
C149 C 0.87717 0.80955 0.33422 0.0
C150 C 0.78318 0.78356 0.33928 0.0
C151 C 0.65939 0.71646 0.3557 0.0
H152 H 0.62658 0.87052 0.32633 0.0
H153 H 0.55257 0.82643 0.39391 0.0
H154 H 0.58733 0.8868 0.32539 0.0
H155 H 0.59147 0.80933 0.39425 0.0
H156 H 0.8346 0.84777 0.35378 0.0
H157 H 0.8578 0.753 0.31791 0.0
H158 H 0.88582 0.86265 0.35145 0.0
H159 H 0.80586 0.7378 0.32095 0.0
Eu160 Eu 0.2415 0.87355 0.32296 0.0
Eu161 Eu 0.26809 0.96062 0.33381 0.0
C162 C 0.28062 0.93408 0.27915 0.0
C163 C 0.23494 0.78667 0.29526 0.0
C164 C 0.22841 0.7793 0.26894 0.0
C165 C 0.27177 0.76703 0.29128 0.0
C166 C 0.24329 0.7656 0.25397 0.0
C167 C 0.25702 0.78074 0.30616 0.0
C168 C 0.26485 0.75875 0.26505 0.0
C169 C 0.2208 0.80369 0.31075 0.0
O170 O 0.21867 0.94148 0.32373 0.0
O171 O 0.19995 0.87864 0.32686 0.0
C172 C 0.19554 0.90733 0.32482 0.0
O173 O 0.25344 0.88581 0.36582 0.0
O174 O 0.27651 1.01693 0.32696 0.0
O175 O 0.29397 1.006 0.36148 0.0
O176 O 0.24104 0.93083 0.36688 0.0
C177 C 0.24743 0.90862 0.37918 0.0
O178 O 0.2894 0.89147 0.32134 0.0
O179 O 0.3069 0.94827 0.34213 0.0
O180 O 0.28345 0.96195 0.29388 0.0
O181 O 0.23327 0.81835 0.33307 0.0
O182 O 0.21302 0.82489 0.29853 0.0
O183 O 0.26461 0.89909 0.28584 0.0
C184 C 0.27533 0.04708 0.36494 0.0
C185 C 0.24598 1.02548 0.37231 0.0
C186 C 0.27758 0.10178 0.38554 0.0
C187 C 0.23225 0.04211 0.38571 0.0
C188 C 0.29128 0.0851 0.372 0.0
C189 C 0.24775 0.08055 0.39202 0.0
C190 C 0.28882 1.0297 0.34956 0.0
C191 C 0.31113 0.92083 0.33295 0.0
H192 H 0.21173 0.78403 0.25991 0.0
H193 H 0.28755 0.76109 0.30077 0.0
H194 H 0.23731 0.75934 0.23389 0.0
H195 H 0.26283 0.78636 0.3263 0.0
H196 H 0.23348 0.99592 0.36716 0.0
H197 H 0.28989 0.13157 0.3899 0.0
H198 H 0.20931 1.02515 0.3906 0.0
H199 H 0.31401 0.102 0.36651 0.0
Eu200 Eu 0.19273 0.43213 0.37795 0.0
Eu201 Eu 0.12113 0.38033 0.35648 0.0
C202 C 0.17245 0.41465 0.31802 0.0
C203 C 0.28116 0.48389 0.38533 0.0
C204 C 0.29553 0.50664 0.36478 0.0
C205 C 0.32891 0.48962 0.39847 0.0
C206 C 0.32607 0.52073 0.3612 0.0
C207 C 0.2984 0.47552 0.40199 0.0
C208 C 0.34355 0.51288 0.37814 0.0
C209 C 0.24956 0.47239 0.39149 0.0
O210 O 0.13395 0.3421 0.37604 0.0
O211 O 0.18296 0.37424 0.36629 0.0
C212 C 0.15977 0.3439 0.37376 0.0
O213 O 0.16466 0.41196 0.41446 0.0
O214 O 0.09103 0.33858 0.32838 0.0
O215 O 0.07471 0.36618 0.35397 0.0
O216 O 0.11618 0.38514 0.3983 0.0
C217 C 0.13542 0.39566 0.4175 0.0
O218 O 0.16744 0.46243 0.38406 0.0
O219 O 0.13817 0.44107 0.34859 0.0
O220 O 0.15168 0.3828 0.32596 0.0
O221 O 0.23215 0.43863 0.39904 0.0
O222 O 0.23511 0.48446 0.37773 0.0
O223 O 0.18999 0.44092 0.33496 0.0
C224 C 0.04137 0.3039 0.33925 0.0
C225 C 1.03484 0.28636 0.36268 0.0
C226 C 0.99928 0.24946 0.31935 0.0
C227 C 1.01055 0.25042 0.3644 0.0
C228 C 1.02332 0.28537 0.31771 0.0
C229 C 0.9928 0.23144 0.34263 0.0
C230 C 0.06796 0.34017 0.33619 0.0
C231 C 0.15622 0.4693 0.36384 0.0
H232 H 0.28328 0.51417 0.35161 0.0
H233 H 0.34117 0.48313 0.41231 0.0
H234 H 0.33596 0.53791 0.34506 0.0
H235 H 0.28842 0.45875 0.41831 0.0
H236 H 0.04879 0.30012 0.37946 0.0
H237 H 0.98577 0.23573 0.30236 0.0
H238 H 1.00616 0.23707 0.38253 0.0
H239 H 1.02816 0.29846 0.29946 0.0
Eu240 Eu 0.37352 0.12602 0.6834 0.0
Eu241 Eu 0.39583 0.06604 0.68074 0.0
C242 C 0.36405 0.07516 0.63117 0.0
C243 C 0.32846 0.17727 0.69201 0.0
C244 C 0.30088 0.14984 0.68173 0.0
C245 C 0.30504 0.21001 0.71122 0.0
C246 C 0.27551 0.1527 0.68606 0.0
C247 C 0.33032 0.20727 0.70675 0.0
C248 C 0.27734 0.18277 0.70096 0.0
C249 C 0.3556 0.1752 0.68822 0.0
O250 O 0.43674 0.12466 0.68415 0.0
O251 O 0.41624 0.15425 0.66326 0.0
C252 C 0.43974 0.15371 0.67178 0.0
O253 O 0.40376 0.13629 0.71878 0.0
O254 O 0.42669 0.04809 0.66753 0.0
O255 O 0.3946 1.01613 0.69547 0.0
O256 O 0.38908 0.07519 0.72167 0.0
C257 C 0.40151 0.10861 0.73231 0.0
O258 O 0.33702 0.07383 0.6993 0.0
O259 O 0.34563 1.03175 0.67701 0.0
O260 O 0.3853 0.06943 0.6397 0.0
O261 O 0.36457 0.16333 0.70726 0.0
O262 O 0.35854 0.1619 0.66632 0.0
O263 O 0.35305 0.09168 0.64594 0.0
C264 C 0.44457 1.03363 0.70398 0.0
C265 C 0.44409 0.04824 0.72843 0.0
C266 C 0.49789 0.06223 0.70847 0.0
C267 C 0.47043 0.0721 0.7418 0.0
C268 C 0.4715 0.03872 0.69492 0.0
C269 C 0.49759 0.0811 0.73113 0.0
C270 C 0.41996 1.02439 0.68567 0.0
C271 C 0.32774 0.04003 0.68964 0.0
H272 H 0.29896 0.12625 0.67047 0.0
H273 H 0.30727 0.23378 0.72245 0.0
H274 H 0.25442 0.13117 0.67807 0.0
H275 H 0.35141 0.22867 0.71485 0.0
H276 H 0.42366 0.04458 0.73608 0.0
H277 H 0.5186 0.06882 0.69978 0.0
H278 H 0.46965 0.08602 0.75935 0.0
H279 H 0.47247 1.02799 0.6761 0.0
Eu280 Eu 0.87452 0.25909 0.66274 0.0
Eu281 Eu 0.93472 0.28975 0.69364 0.0
C282 C 0.88102 0.26324 0.72378 0.0
C283 C 0.80037 0.24918 0.65097 0.0
C284 C 0.79912 0.25997 0.67628 0.0
C285 C 0.76203 0.26381 0.63893 0.0
C286 C 0.77889 0.27135 0.68304 0.0
C287 C 0.78215 0.2519 0.63222 0.0
C288 C 0.75969 0.27289 0.66456 0.0
C289 C 0.82145 0.23649 0.64424 0.0
O290 O 0.92245 0.2273 0.68495 0.0
O291 O 0.87543 0.20452 0.66828 0.0
C292 C 0.89671 0.19838 0.67661 0.0
O293 O 0.90686 0.26805 0.6303 0.0
O294 O 0.95782 0.29658 0.73027 0.0
O295 O 0.98265 0.32394 0.69744 0.0
O296 O 0.95045 0.29749 0.65372 0.0
C297 C 0.93618 0.28569 0.63173 0.0
O298 O 0.89066 0.32095 0.66196 0.0
O299 O 0.92188 0.33803 0.69667 0.0
O300 O 0.89837 0.25053 0.71736 0.0
O301 O 0.8452 0.26085 0.6332 0.0
O302 O 0.82735 0.21926 0.66198 0.0
O303 O 0.87175 0.27568 0.70494 0.0
C304 C 1.00418 0.30023 0.72529 0.0
C305 C 0.99823 0.26601 0.71373 0.0
C306 C 0.05126 0.30918 0.74152 0.0
C307 C 1.01883 0.25367 0.71573 0.0
C308 C 1.0306 0.32152 0.73948 0.0
C309 C 0.04582 0.27538 0.72931 0.0
C310 C 0.98397 0.31498 0.72079 0.0
C311 C 0.90564 0.3456 0.68034 0.0
H312 H 0.81339 0.25885 0.69106 0.0
H313 H 0.74798 0.26524 0.62411 0.0
H314 H 0.77754 0.27734 0.70301 0.0
H315 H 0.78328 0.24448 0.61249 0.0
H316 H 0.97803 0.24937 0.70249 0.0
H317 H 0.07166 0.32632 0.75241 0.0
H318 H 1.01406 0.2278 0.7058 0.0
H319 H 1.03555 0.34806 0.74847 0.0
Eu320 Eu 0.85954 0.74894 0.69823 0.0
Eu321 Eu 0.79094 0.6991 0.68305 0.0
C322 C 0.83244 0.7387 0.63942 0.0
C323 C 0.94764 0.80777 0.6999 0.0
C324 C 0.9622 0.7988 0.68092 0.0
C325 C 0.99486 0.8623 0.71256 0.0
C326 C 0.9927 0.82062 0.67821 0.0
C327 C 0.96425 0.84016 0.71543 0.0
C328 C 1.00967 0.85225 0.69434 0.0
C329 C 0.91684 0.77995 0.70606 0.0
O330 O 0.80558 0.65365 0.68177 0.0
O331 O 0.85209 0.68928 0.69907 0.0
C332 C 0.83091 0.65662 0.69019 0.0
O333 O 0.83455 0.74074 0.73588 0.0
O334 O 0.75374 0.6663 0.65633 0.0
O335 O 0.74516 0.67576 0.69509 0.0
O336 O 0.79492 0.6853 0.72332 0.0
C337 C 0.80977 0.71034 0.74133 0.0
O338 O 0.85154 0.79727 0.69646 0.0
O339 O 0.80219 0.76375 0.68424 0.0
O340 O 0.81256 0.70568 0.64596 0.0
O341 O 0.90039 0.78957 0.71941 0.0
O342 O 0.90153 0.75342 0.68897 0.0
O343 O 0.8515 0.76213 0.657 0.0
C344 C 0.71265 0.61655 0.67516 0.0
C345 C 0.68263 0.60238 0.66877 0.0
C346 C 0.70235 0.55307 0.68286 0.0
C347 C 0.66263 0.5639 0.66929 0.0
C348 C 0.72232 0.59158 0.68236 0.0
C349 C 0.67219 0.53854 0.67616 0.0
C350 C 0.73381 0.65707 0.67359 0.0
C351 C 0.8269 0.79681 0.68998 0.0
H352 H 0.95033 0.77369 0.66889 0.0
H353 H 1.007 0.88678 0.72507 0.0
H354 H 1.00309 0.81135 0.66427 0.0
H355 H 0.95381 0.84762 0.73045 0.0
H356 H 0.67463 0.62108 0.66322 0.0
H357 H 0.71074 0.53461 0.68796 0.0
H358 H 0.63959 0.55407 0.66441 0.0
H359 H 0.74541 0.60182 0.68732 0.0
C360 C 0.39068 0.60504 0.98318 0.0
C361 C 0.41833 0.62271 0.99617 0.0
C362 C 0.36627 0.60475 0.99408 0.0
C363 C 0.31622 0.60582 0.02242 0.0
H364 H 0.31184 0.54886 0.08145 0.0
C365 C 0.20523 0.49195 0.05601 0.0
C366 C 0.20458 0.45779 0.05098 0.0
C367 C 0.23218 0.52518 0.05846 0.0
C368 C 0.31283 0.56555 0.06551 0.0
H369 H 0.44295 0.65917 0.02873 0.0
H370 H 0.39974 0.65665 0.04843 0.0
H371 H 0.35992 0.59203 0.06485 0.0
H372 H 0.23111 0.43088 0.04667 0.0
H373 H 0.27837 0.48885 0.05179 0.0
H374 H 0.26891 0.57681 0.02187 0.0
C375 C 0.39712 0.64309 0.02986 0.0
C376 C 0.34032 0.59047 0.05607 0.0
C377 C 0.42172 0.64406 0.01869 0.0
C378 C 0.23116 0.45688 0.05066 0.0
C379 C 0.25809 0.49 0.05371 0.0
C380 C 0.28871 0.58133 0.03213 0.0
C381 C 0.36894 0.62164 0.0183 0.0
C382 C 0.3421 0.60876 0.0334 0.0
C383 C 0.2588 0.52453 0.05654 0.0
C384 C 0.28683 0.55916 0.05267 0.0
H385 H 0.38707 0.58829 0.96586 0.0
H386 H 0.34474 0.58776 0.98479 0.0
H387 H 0.31707 0.61972 1.00498 0.0
H388 H 0.18493 0.49331 0.05608 0.0
H389 H 0.23223 0.55149 0.06043 0.0
C390 C 0.49715 0.92588 0.0217 0.0
C391 C 0.51931 0.96337 0.01836 0.0
C392 C 0.50363 0.89576 0.0213 0.0
C393 C 0.56878 0.87486 0.02453 0.0
H394 H 0.5095 0.77495 1.00219 0.0
C395 C 0.59215 0.74541 0.02703 0.0
C396 C 0.57754 0.71539 1.00881 0.0
C397 C 0.58538 0.77527 0.02909 0.0
C398 C 0.52674 0.80257 1.00836 0.0
H399 H 0.56626 0.99671 1.01191 0.0
H400 H 0.57721 0.94571 1.01113 0.0
H401 H 0.49728 0.82508 1.00353 0.0
H402 H 0.5436 0.69507 0.97866 0.0
H403 H 0.53233 0.74552 0.98211 0.0
H404 H 0.59833 0.85237 0.02911 0.0
C405 C 0.55465 0.939 0.01441 0.0
C406 C 0.51944 0.83183 1.00944 0.0
C407 C 0.54816 0.96883 0.01465 0.0
C408 C 0.55584 0.71703 0.993 0.0
C409 C 0.54897 0.74642 0.99517 0.0
C410 C 0.57602 0.84553 0.02362 0.0
C411 C 0.5327 0.90142 0.01776 0.0
C412 C 0.54028 0.86906 0.01735 0.0
C413 C 0.56337 0.77655 1.01328 0.0
C414 C 0.55533 0.80845 0.01528 0.0
H415 H 0.47463 0.91966 0.02467 0.0
H416 H 0.48566 0.86789 0.0242 0.0
H417 H 0.58585 0.90232 0.03119 0.0
H418 H 0.60878 0.74583 0.03988 0.0
H419 H 0.5972 0.79712 0.04357 0.0
C420 C 0.30834 0.82244 0.97895 0.0
C421 C 0.33431 0.83685 0.99432 0.0
C422 C 0.28732 0.78435 0.97851 0.0
C423 C 0.26158 0.69874 0.01591 0.0
H424 H 0.21654 0.65016 0.95357 0.0
C425 C 0.1671 0.54278 1.01026 0.0
C426 C 0.14076 0.53707 0.99819 0.0
C427 C 0.19341 0.57713 1.0087 0.0
C428 C 0.22885 0.66328 0.97118 0.0
H429 H 0.35832 0.82175 0.02126 0.0
H430 H 0.32205 0.75525 0.02002 0.0
H431 H 0.25721 0.71413 0.95299 0.0
H432 H 0.12184 0.56258 0.97424 0.0
H433 H 0.16727 0.62165 0.97133 0.0
H434 H 0.23288 0.6477 0.03407 0.0
C435 C 0.31775 0.77359 1.00851 0.0
C436 C 0.25216 0.70013 0.97089 0.0
C437 C 0.3388 0.81178 1.00896 0.0
C438 C 0.14164 0.56592 0.98382 0.0
C439 C 0.16783 0.59986 0.98202 0.0
C440 C 0.23829 0.66171 0.01617 0.0
C441 C 0.29159 0.7593 0.99336 0.0
C442 C 0.26848 0.71878 0.99335 0.0
C443 C 0.19401 0.60624 0.99469 0.0
C444 C 0.22117 0.64379 0.99392 0.0
H445 H 0.30415 0.84062 0.96716 0.0
H446 H 0.26736 0.77472 0.96686 0.0
H447 H 0.27341 0.7121 0.03366 0.0
H448 H 0.16716 0.52121 0.02155 0.0
H449 H 0.21323 0.58099 0.01856 0.0
C450 C 0.54031 0.2062 0.0277 0.0
C451 C 0.51427 0.17502 0.01708 0.0
C452 C 0.54641 0.24372 0.02569 0.0
C453 C 0.51235 0.30541 1.0085 0.0
H454 H 0.59413 0.38416 1.01081 0.0
C455 C 0.54337 0.46399 0.99474 0.0
C456 C 0.57054 0.4945 1.00413 0.0
C457 C 0.53673 0.42607 0.99597 0.0
C458 C 0.57101 0.3631 1.01045 0.0
H459 H 0.4742 0.16167 0.99564 0.0
H460 H 0.48462 0.2267 0.99212 0.0
H461 H 0.58217 0.31931 1.01297 0.0
H462 H 0.61193 0.50639 0.02254 0.0
H463 H 0.60056 0.44118 0.02498 0.0
H464 H 0.50116 0.3492 1.0061 0.0
C465 C 0.50058 0.22191 1.00237 0.0
C466 C 0.56395 0.32494 1.01172 0.0
C467 C 0.49447 0.18397 1.00431 0.0
C468 C 0.59081 0.48459 0.01482 0.0
C469 C 0.58412 0.44643 0.01613 0.0
C470 C 0.5194 0.34363 1.00732 0.0
C471 C 0.52693 0.2531 1.0129 0.0
C472 C 0.53438 0.29472 1.01087 0.0
C473 C 0.55673 0.41577 1.00681 0.0
C474 C 0.54901 0.37391 1.00826 0.0
H475 H 0.55656 0.20181 0.03784 0.0
H476 H 0.56665 0.2655 0.03473 0.0
H477 H 0.48925 0.28418 1.00806 0.0
H478 H 0.52677 0.46931 0.98623 0.0
H479 H 0.51563 0.40478 0.98795 0.0
C480 C 0.73812 0.22551 0.0507 0.0
C481 C 0.71979 0.20631 0.0293 0.0
C482 C 0.76882 0.2424 0.04936 0.0
C483 C 0.83001 0.27491 1.00406 0.0
H484 H 0.87341 0.2694 0.06293 0.0
C485 C 0.95613 0.33087 1.0043 0.0
C486 C 0.97148 0.35641 0.02465 0.0
C487 C 0.92537 0.30839 1.00461 0.0
C488 C 0.86155 0.2711 0.04636 0.0
H489 H 0.71958 0.19113 0.98938 0.0
H490 H 0.77311 0.2196 0.98725 0.0
H491 H 0.81966 0.23981 0.06346 0.0
H492 H 0.96709 0.37711 0.06181 0.0
H493 H 0.91358 0.33735 0.06259 0.0
H494 H 0.8721 0.30616 0.98701 0.0
C495 C 0.76374 0.22194 1.00503 0.0
C496 C 0.83078 0.25442 0.0467 0.0
C497 C 0.73301 0.20526 1.00633 0.0
C498 C 0.9558 0.35765 0.04587 0.0
C499 C 0.9252 0.33482 0.04635 0.0
C500 C 0.86078 0.29129 1.00364 0.0
C501 C 0.78202 0.24027 0.02665 0.0
C502 C 0.81465 0.25663 0.02572 0.0
C503 C 0.9096 0.31066 0.02547 0.0
C504 C 0.87686 0.28999 0.02493 0.0
H505 H 0.72878 0.22655 0.0688 0.0
H506 H 0.78222 0.25694 0.06624 0.0
H507 H 0.81837 0.27753 0.98768 0.0
H508 H 0.96766 0.32963 0.98759 0.0
H509 H 0.91384 0.2898 0.98834 0.0
C510 C 0.91673 0.53021 0.08096 0.0
C511 C 0.92121 0.52043 0.05624 0.0
C512 C 0.89226 0.53456 0.08597 0.0
C513 C 0.81933 0.51594 0.05984 0.0
H514 H 0.83729 0.60609 0.09931 0.0
C515 C 0.73106 0.55974 0.07942 0.0
C516 C 0.74004 0.59727 0.07466 0.0
C517 C 0.75177 0.54741 0.08057 0.0
C518 C 0.8319 0.58078 0.08829 0.0
H519 H 0.90304 0.50623 0.01758 0.0
H520 H 0.86037 0.51413 0.02624 0.0
H521 H 0.87532 0.58842 0.09422 0.0
H522 H 0.77798 0.65123 0.06761 0.0
H523 H 0.81394 0.6299 0.06999 0.0
H524 H 0.7762 0.50924 0.0531 0.0
C525 C 0.87558 0.51799 0.04185 0.0
C526 C 0.85359 0.57041 0.08559 0.0
C527 C 0.90005 0.51353 0.03685 0.0
C528 C 0.77029 0.62234 0.07186 0.0
C529 C 0.79095 0.61008 0.07314 0.0
C530 C 0.79757 0.52629 0.0626 0.0
C531 C 0.87176 0.52932 0.06635 0.0
C532 C 0.84773 0.53821 0.07099 0.0
C533 C 0.7819 0.57239 0.07715 0.0
C534 C 0.80382 0.55921 0.07647 0.0
H535 H 0.93239 0.53501 0.09639 0.0
H536 H 0.88964 0.54259 0.10515 0.0
H537 H 0.81404 0.49078 0.04869 0.0
H538 H 0.70797 0.53978 0.08198 0.0
H539 H 0.7442 0.51828 0.08399 0.0
C540 C 0.93296 0.85739 0.33006 0.0
C541 C 0.91011 0.81994 0.33241 0.0
C542 C 0.96328 0.86732 0.32896 0.0
C543 C 1.01701 0.82982 0.34062 0.0
H544 H 0.07237 0.9184 0.30633 0.0
C545 C 0.13964 0.86246 0.32556 0.0
C546 C 0.16335 0.89959 0.32471 0.0
C547 C 0.1097 0.8539 0.32634 0.0
C548 C 0.05756 0.89372 0.31632 0.0
H549 H 0.90341 0.76384 0.33528 0.0
H550 H 0.95529 0.78069 0.3328 0.0
H551 H 1.02032 0.90137 0.30756 0.0
H552 H 0.17244 0.95684 0.32398 0.0
H553 H 0.12049 0.94214 0.32535 0.0
H554 H 0.05416 0.82211 0.34937 0.0
C555 C 0.9499 0.80292 0.33222 0.0
C556 C 1.02714 0.88375 0.31706 0.0
C557 C 0.91951 0.79297 0.33331 0.0
C558 C 0.15533 0.92786 0.32448 0.0
C559 C 0.12513 0.91923 0.3252 0.0
C560 C 0.04734 0.83973 0.33983 0.0
C561 C 0.97276 0.84044 0.33009 0.0
C562 C 1.00589 0.85141 0.3292 0.0
C563 C 0.10143 0.88192 0.32634 0.0
C564 C 0.06856 0.87189 0.32757 0.0
H565 H 0.92756 0.87956 0.32879 0.0
H566 H 0.97938 0.89658 0.32759 0.0
H567 H 1.00235 0.80522 0.35074 0.0
H568 H 0.14414 0.83942 0.32568 0.0
H569 H 0.09291 0.82477 0.32663 0.0
C570 C 0.18912 0.31114 0.37403 0.0
C571 C 0.16376 0.31243 0.3813 0.0
C572 C 0.19476 0.28371 0.38299 0.0
C573 C 0.1601 0.19089 0.40971 0.0
H574 H 0.24239 0.21958 0.42235 0.0
C575 C 0.20526 0.09246 0.39088 0.0
C576 C 0.23202 0.09931 0.40253 0.0
C577 C 0.19285 0.11471 0.39731 0.0
C578 C 0.21918 0.21094 0.41965 0.0
H579 H 0.12407 0.28566 0.40332 0.0
H580 H 0.13411 0.2375 0.41922 0.0
H581 H 0.2289 0.26734 0.41603 0.0
H582 H 0.26536 0.13223 0.4317 0.0
H583 H 0.24324 0.17071 0.44357 0.0
H584 H 0.15043 0.13436 0.41326 0.0
C585 C 0.14949 0.25768 0.40643 0.0
C586 C 0.21152 0.23841 0.41555 0.0
C587 C 0.14371 0.28513 0.39727 0.0
C588 C 0.24492 0.12683 0.4222 0.0
C589 C 0.23227 0.14884 0.42891 0.0
C590 C 0.16773 0.16333 0.41415 0.0
C591 C 0.17535 0.25711 0.39967 0.0
C592 C 0.18216 0.22856 0.40921 0.0
C593 C 0.20681 0.14412 0.41572 0.0
C594 C 0.19756 0.17294 0.41787 0.0
H595 H 0.20484 0.33156 0.36154 0.0
H596 H 0.2144 0.28334 0.37675 0.0
H597 H 0.13723 0.18244 0.40508 0.0
H598 H 0.19498 0.07162 0.37549 0.0
H599 H 0.17353 0.11049 0.38643 0.0
C600 C 0.94754 0.18268 0.36348 0.0
C601 C 0.96788 0.1927 0.34386 0.0
C602 C 0.92331 0.14654 0.3638 0.0
C603 C 0.8958 0.04991 0.33939 0.0
H604 H 0.81839 0.03891 0.35077 0.0
C605 C 0.78854 0.90755 0.32527 0.0
C606 C 0.76639 0.89914 0.34307 0.0
C607 C 0.81318 0.9434 0.32506 0.0
C608 C 0.83987 0.0414 0.34788 0.0
H609 H 0.97944 0.17249 0.30977 0.0
H610 H 0.93717 0.10944 0.31034 0.0
H611 H 0.86176 0.10105 0.35219 0.0
H612 H 0.75283 0.92178 0.37467 0.0
H613 H 0.79583 0.98375 0.37458 0.0
H614 H 0.87404 0.99029 0.33537 0.0
C615 C 0.93989 0.12948 0.32541 0.0
C616 C 0.86472 0.07704 0.34869 0.0
C617 C 0.96392 0.16565 0.32496 0.0
C618 C 0.76934 0.92734 0.36054 0.0
C619 C 0.79398 0.96303 0.36041 0.0
C620 C 0.87097 1.01422 0.33875 0.0
C621 C 0.91916 0.11964 0.34468 0.0
C622 C 0.89293 0.08168 0.34442 0.0
C623 C 0.81626 0.97154 0.34272 0.0
C624 C 0.84268 1.00952 0.34298 0.0
H625 H 0.95 0.20301 0.37823 0.0
H626 H 0.90783 0.13961 0.37902 0.0
H627 H 0.91732 0.05263 0.33628 0.0
H628 H 0.78695 0.88643 0.31157 0.0
H629 H 0.82973 0.9491 0.31095 0.0
C630 C 0.30319 0.73969 0.25822 0.0
C631 C 0.27555 0.73589 0.25131 0.0
C632 C 0.30635 0.70793 0.25897 0.0
C633 C 0.25641 0.60442 0.26137 0.0
H634 H 0.26171 0.631 0.33345 0.0
C635 C 0.1662 0.51119 0.32747 0.0
C636 C 0.17429 0.50544 0.35184 0.0
C637 C 0.18711 0.53868 0.31246 0.0
C638 C 0.26051 0.62272 0.31353 0.0
H639 H 0.23348 0.69912 0.23182 0.0
H640 H 0.23907 0.64467 0.23286 0.0
H641 H 0.29182 0.67802 0.30421 0.0
H642 H 0.20956 0.52741 0.38088 0.0
H643 H 0.2462 0.57436 0.35442 0.0
H644 H 0.22371 0.54939 0.27095 0.0
C645 C 0.25796 0.67121 0.23889 0.0
C646 C 0.27814 0.64971 0.29661 0.0
C647 C 0.25463 0.70278 0.23835 0.0
C648 C 0.20276 0.53047 0.36193 0.0
C649 C 0.22385 0.55742 0.34673 0.0
C650 C 0.2389 0.5773 0.27838 0.0
C651 C 0.28177 0.67269 0.25296 0.0
C652 C 0.27468 0.64157 0.27013 0.0
C653 C 0.21658 0.56062 0.32143 0.0
C654 C 0.23939 0.58688 0.30438 0.0
H655 H 0.32045 0.76561 0.26698 0.0
H656 H 0.32571 0.71012 0.26869 0.0
H657 H 0.25355 0.59716 0.24116 0.0
H658 H 0.1443 0.4928 0.31927 0.0
H659 H 0.18048 0.54162 0.29341 0.0
C660 C 0.39168 0.51008 0.38248 0.0
C661 C 0.37677 0.52938 0.37504 0.0
C662 C 0.42255 0.52573 0.38011 0.0
C663 C 0.48805 0.60106 0.34711 0.0
H664 H 0.53403 0.58358 0.39808 0.0
C665 C 0.61475 0.66176 0.33597 0.0
C666 C 0.63308 0.67851 0.35788 0.0
C667 C 0.58389 0.63855 0.33772 0.0
C668 C 0.5217 0.58895 0.38362 0.0
H669 H 0.38413 0.58145 0.35943 0.0
H670 H 0.43727 0.60827 0.35515 0.0
H671 H 0.48057 0.55557 0.40193 0.0
H672 H 0.63262 0.68246 0.39895 0.0
H673 H 0.57944 0.64123 0.4022 0.0
H674 H 0.52916 0.63516 0.32913 0.0
C675 C 0.42501 0.58059 0.36254 0.0
C676 C 0.49071 0.57245 0.3857 0.0
C677 C 0.39417 0.565 0.36499 0.0
C678 C 0.61965 0.66887 0.38168 0.0
C679 C 0.58879 0.64557 0.38349 0.0
C680 C 0.51897 0.61739 0.34496 0.0
C681 C 0.43992 0.56135 0.37009 0.0
C682 C 0.47322 0.57835 0.36758 0.0
C683 C 0.57007 0.63134 0.36148 0.0
C684 C 0.53654 0.61187 0.36322 0.0
H685 H 0.37947 0.48241 0.3899 0.0
H686 H 0.43271 0.50946 0.38581 0.0
H687 H 0.47574 0.60619 0.33249 0.0
H688 H 0.62388 0.66957 0.31727 0.0
H689 H 0.57068 0.62776 0.32023 0.0
C690 C 0.34378 0.8934 0.3217 0.0
C691 C 0.34009 0.92043 0.3359 0.0
C692 C 0.36881 0.88918 0.32514 0.0
C693 C 0.44678 0.93439 0.35226 0.0
H694 H 0.43318 0.83305 0.3459 0.0
C695 C 0.54472 0.90067 0.34831 0.0
C696 C 0.54096 0.86715 0.35841 0.0
C697 C 0.52114 0.90855 0.34676 0.0
C698 C 0.43767 0.86162 0.34804 0.0
H699 H 0.36142 0.96511 0.36464 0.0
H700 H 0.40547 0.95784 0.37069 0.0
H701 H 0.39185 0.84463 0.34191 0.0
H702 H 0.50816 0.81575 0.37475 0.0
H703 H 0.46787 0.82972 0.3727 0.0
H704 H 0.49271 0.95118 0.35882 0.0
C705 C 0.3886 0.93978 0.35671 0.0
C706 C 0.41371 0.86841 0.34535 0.0
C707 C 0.36323 0.94404 0.35325 0.0
C708 C 0.51257 0.84208 0.36709 0.0
C709 C 0.48903 0.84995 0.36555 0.0
C710 C 0.47088 0.92758 0.3549 0.0
C711 C 0.3916 0.9117 0.343 0.0
C712 C 0.41767 0.90494 0.34717 0.0
C713 C 0.49267 0.88325 0.35519 0.0
C714 C 0.46687 0.89099 0.35276 0.0
H715 H 0.32697 0.87479 0.30783 0.0
H716 H 0.3702 0.86796 0.31355 0.0
H717 H 0.45112 0.96295 0.35372 0.0
H718 H 0.56605 0.92124 0.34166 0.0
H719 H 0.52523 0.93437 0.33843 0.0
C720 C 0.70686 0.25821 0.66134 0.0
C721 C 0.73524 0.27942 0.67276 0.0
C722 C 0.68232 0.25667 0.67292 0.0
C723 C 0.6326 0.25844 0.70143 0.0
H724 H 0.63315 0.21277 0.76493 0.0
C725 C 0.5247 0.14944 0.74158 0.0
C726 C 0.52479 0.1153 0.73998 0.0
C727 C 0.55129 0.18324 0.74233 0.0
C728 C 0.63276 0.2263 0.74764 0.0
H729 H 0.76043 0.31995 0.70335 0.0
H730 H 0.71718 0.31547 0.72429 0.0
H731 H 0.67974 0.25339 0.74492 0.0
H732 H 0.55237 0.08951 0.74073 0.0
H733 H 0.59889 0.1485 0.74267 0.0
H734 H 0.58545 0.2288 0.70307 0.0
C735 C 0.71411 0.3001 0.70639 0.0
C736 C 0.65941 0.24974 0.73623 0.0
C737 C 0.73878 0.30226 0.69451 0.0
C738 C 0.55178 0.11547 0.74193 0.0
C739 C 0.57835 0.14925 0.74318 0.0
C740 C 0.60596 0.2354 0.71301 0.0
C741 C 0.68558 0.27588 0.69632 0.0
C742 C 0.6594 0.26396 0.71221 0.0
C743 C 0.57832 0.18335 0.74203 0.0
C744 C 0.60578 0.21721 0.73533 0.0
H745 H 0.70307 0.2401 0.64472 0.0
H746 H 0.66054 0.23748 0.66482 0.0
H747 H 0.63207 0.26925 0.68297 0.0
H748 H 0.50414 0.15008 0.73994 0.0
H749 H 0.55071 0.20915 0.74142 0.0
C750 C 0.90796 0.40383 0.70469 0.0
C751 C 0.90099 0.38003 0.68264 0.0
C752 C 0.90043 0.43305 0.70634 0.0
C753 C 0.85283 0.46921 0.67224 0.0
H754 H 0.89544 0.55571 0.71778 0.0
C755 C 0.81626 0.58633 0.68174 0.0
C756 C 0.83714 0.62337 0.6899 0.0
C757 C 0.82331 0.5567 0.6815 0.0
C758 C 0.88316 0.53217 0.70458 0.0
H759 H 0.88054 0.3706 0.64489 0.0
H760 H 0.86852 0.42038 0.64743 0.0
H761 H 0.90944 0.5073 0.71605 0.0
H762 H 0.88251 0.65654 0.70406 0.0
H763 H 0.89459 0.60664 0.70327 0.0
H764 H 0.82697 0.49435 0.66035 0.0
C765 C 0.87916 0.41652 0.66399 0.0
C766 C 0.89115 0.5035 0.70386 0.0
C767 C 0.88655 0.38756 0.6624 0.0
C768 C 0.86531 0.62892 0.69774 0.0
C769 C 0.87234 0.59955 0.69745 0.0
C770 C 0.84486 0.49786 0.67295 0.0
C771 C 0.88547 0.44008 0.68606 0.0
C772 C 0.8764 0.47112 0.68752 0.0
C773 C 0.85165 0.56236 0.68937 0.0
C774 C 0.85985 0.53049 0.68902 0.0
H775 H 0.91863 0.39936 0.72101 0.0
H776 H 0.90586 0.4496 0.72396 0.0
H777 H 0.83995 0.44515 0.6596 0.0
H778 H 0.79429 0.58004 0.67551 0.0
H779 H 0.80609 0.52908 0.67532 0.0
C780 C 0.65301 0.47439 0.69438 0.0
C781 C 0.65092 0.49722 0.67588 0.0
C782 C 0.63312 0.43575 0.69392 0.0
C783 C 0.57902 0.35701 0.65079 0.0
H784 H 0.54753 0.30661 0.71353 0.0
C785 C 0.47196 0.215 0.65224 0.0
C786 C 0.46878 0.18867 0.67023 0.0
C787 C 0.49711 0.25039 0.65259 0.0
C788 C 0.55644 0.32003 0.69583 0.0
H789 H 0.62608 0.49645 0.64211 0.0
H790 H 0.59127 0.42978 0.64165 0.0
H791 H 0.58498 0.37276 0.71514 0.0
H792 H 0.49027 0.17884 0.70237 0.0
H793 H 0.53462 0.24101 0.70296 0.0
H794 H 0.55016 0.30461 0.63144 0.0
C795 C 0.60851 0.44157 0.65642 0.0
C796 C 0.57795 0.35812 0.69674 0.0
C797 C 0.62832 0.48012 0.6569 0.0
C798 C 0.49209 0.19831 0.68812 0.0
C799 C 0.51735 0.23412 0.68862 0.0
C800 C 0.55755 0.31907 0.64988 0.0
C801 C 0.61059 0.41868 0.67487 0.0
C802 C 0.58917 0.3774 0.67419 0.0
C803 C 0.51999 0.26086 0.67104 0.0
C804 C 0.54546 0.30013 0.67234 0.0
H805 H 0.66985 0.48641 0.70947 0.0
H806 H 0.63567 0.41918 0.70837 0.0
H807 H 0.58758 0.37042 0.63301 0.0
H808 H 0.45449 0.20865 0.6382 0.0
H809 H 0.49801 0.27013 0.63893 0.0
C810 C 0.80993 0.84522 0.67623 0.0
C811 C 0.82971 0.83625 0.68903 0.0
C812 C 0.8159 0.88323 0.67466 0.0
C813 C 0.86898 0.98429 0.70243 0.0
H814 H 0.83689 1.01534 0.64741 0.0
C815 C 0.90937 0.14624 0.68865 0.0
C816 C 0.89012 0.15722 0.67718 0.0
C817 C 0.90181 0.10779 0.68988 0.0
C818 C 0.8461 1.00767 0.66322 0.0
H819 H 0.87171 0.86314 0.71031 0.0
H820 H 0.88184 0.92644 0.70728 0.0
H821 H 0.82342 0.94969 0.65008 0.0
H822 H 0.84716 0.13361 0.65791 0.0
H823 H 0.83434 0.06833 0.65995 0.0
H824 H 0.8917 0.0421 0.71555 0.0
C825 C 0.86125 0.9048 0.69869 0.0
C826 C 0.83817 0.96916 0.66477 0.0
C827 C 0.85535 0.8674 0.70024 0.0
C828 C 0.86309 0.12745 0.66686 0.0
C829 C 0.85563 0.08921 0.66794 0.0
C830 C 0.877 1.0227 0.7008 0.0
C831 C 0.84191 0.91434 0.68588 0.0
C832 C 0.84947 0.95611 0.68437 0.0
C833 C 0.87461 0.07793 0.67958 0.0
C834 C 0.86593 0.03583 0.68113 0.0
H835 H 0.79004 0.82301 0.66698 0.0
H836 H 0.79985 0.88804 0.66462 0.0
H837 H 0.87807 0.97687 0.71843 0.0
H838 H 0.93036 0.16744 0.697 0.0
H839 H 0.91771 0.10163 0.69883 0.0
C840 C 0.06053 0.88714 0.71559 0.0
C841 C 0.04273 0.87273 0.6932 0.0
C842 C 0.09134 0.90335 0.71482 0.0
C843 C 0.15435 0.94081 0.67013 0.0
H844 H 0.19576 0.92792 0.72755 0.0
C845 C 0.27996 0.98872 0.67033 0.0
C846 C 0.29584 1.01285 0.69117 0.0
C847 C 0.24894 0.96814 0.67024 0.0
C848 C 0.18447 0.93168 0.71136 0.0
H849 H 0.04407 0.8658 0.6522 0.0
H850 H 0.0973 0.89224 0.65104 0.0
H851 H 0.14214 0.90032 0.72776 0.0
H852 H 0.292 1.03307 0.72864 0.0
H853 H 0.23814 0.99624 0.72888 0.0
H854 H 0.19693 0.97167 0.65366 0.0
C855 C 0.08759 0.89164 0.66923 0.0
C856 C 0.1537 0.91618 0.71155 0.0
C857 C 0.05682 0.87589 0.66995 0.0
C858 C 0.28031 1.01455 0.71238 0.0
C859 C 0.24948 0.99345 0.71252 0.0
C860 C 0.18509 0.9558 0.6698 0.0
C861 C 0.10534 0.90527 0.6917 0.0
C862 C 0.13817 0.92093 0.69109 0.0
C863 C 0.23339 0.97073 0.69122 0.0
C864 C 0.20051 0.9518 0.69055 0.0
H865 H 0.05069 0.88496 0.73393 0.0
H866 H 0.10413 0.91424 0.7325 0.0
H867 H 0.14346 0.94569 0.65418 0.0
H868 H 0.29136 0.98731 0.65358 0.0
H869 H 0.23707 0.95072 0.65361 0.0
C870 C 0.24615 0.19728 0.73001 0.0
C871 C 0.25072 0.18638 0.70567 0.0
C872 C 0.22248 0.20365 0.73413 0.0
C873 C 0.15084 0.18728 0.70645 0.0
H874 H 0.16822 0.27579 0.74767 0.0
C875 C 0.06088 0.22597 0.73151 0.0
C876 C 0.06876 0.26374 0.7295 0.0
C877 C 0.08232 0.21488 0.73008 0.0
C878 C 0.16302 0.25106 0.73603 0.0
H879 H 0.2336 0.17268 0.66668 0.0
H880 H 0.19231 0.18406 0.6738 0.0
H881 H 0.20647 0.25867 0.74183 0.0
H882 H 0.10544 0.31942 0.72436 0.0
H883 H 0.14276 0.30014 0.72203 0.0
H884 H 0.10761 0.18038 0.70006 0.0
C885 C 0.20684 0.18726 0.6898 0.0
C886 C 0.18485 0.24097 0.73293 0.0
C887 C 0.23051 0.18076 0.6857 0.0
C888 C 0.09865 0.29021 0.72645 0.0
C889 C 0.12007 0.27913 0.72506 0.0
C890 C 0.12897 0.19737 0.70959 0.0
C891 C 0.20284 0.19938 0.71398 0.0
C892 C 0.1791 0.20908 0.71798 0.0
C893 C 0.11214 0.24131 0.72667 0.0
C894 C 0.13489 0.22955 0.72426 0.0
H895 H 0.26104 0.20116 0.7459 0.0
H896 H 0.21968 0.21217 0.75311 0.0
H897 H 0.1456 0.16237 0.69501 0.0
H898 H 0.03811 0.20493 0.7342 0.0
H899 H 0.07556 0.1856 0.73177 0.0
C900 C 0.15292 0.39222 0.27328 0.0
C901 C 0.17093 0.42217 0.2904 0.0
C902 C 0.14586 0.39842 0.24872 0.0
C903 C 0.16382 0.46974 0.19901 0.0
H904 H 0.08306 0.40076 0.17648 0.0
C905 C 0.10825 0.48357 0.10378 0.0
C906 C 0.09079 0.44992 0.08956 0.0
C907 C 0.1196 0.4834 0.12837 0.0
C908 C 0.10578 0.42017 0.18226 0.0
H909 H 0.19761 0.4823 0.2939 0.0
H910 H 0.18449 0.49337 0.25103 0.0
H911 H 0.10069 0.39467 0.21809 0.0
H912 H 0.07187 0.38974 0.09044 0.0
H913 H 0.09127 0.38953 0.13258 0.0
H914 H 0.16849 0.49534 0.16286 0.0
C915 C 0.17589 0.46492 0.25677 0.0
C916 C 0.11603 0.41659 0.20626 0.0
C917 C 0.18331 0.45862 0.28145 0.0
C918 C 0.08508 0.41632 0.10064 0.0
C919 C 0.09614 0.41613 0.12506 0.0
C920 C 0.15344 0.47344 0.17486 0.0
C921 C 0.15625 0.43486 0.2403 0.0
C922 C 0.1454 0.44075 0.21494 0.0
C923 C 0.11346 0.44955 0.13946 0.0
C924 C 0.12438 0.44821 0.16593 0.0
H925 H 0.14326 0.36365 0.27916 0.0
H926 H 0.13159 0.37436 0.23649 0.0
H927 H 0.18655 0.48897 0.20486 0.0
H928 H 0.11331 0.51002 0.09587 0.0
H929 H 0.13277 0.50972 0.13886 0.0
C930 C 0.65015 0.7647 0.26159 0.0
C931 C 0.66881 0.75344 0.2735 0.0
C932 C 0.63668 0.74949 0.23743 0.0
C933 C 0.64076 0.6929 0.18112 0.0
H934 H 0.56366 0.67979 0.16247 0.0
C935 C 0.57355 0.59794 0.09529 0.0
C936 C 0.56355 0.61343 0.07662 0.0
C937 C 0.58382 0.61556 0.11937 0.0
C938 C 0.58529 0.68349 0.16734 0.0
H939 H 0.68699 0.71622 0.26916 0.0
H940 H 0.66313 0.68914 0.22815 0.0
H941 H 0.58704 0.70943 0.20385 0.0
H942 H 0.55503 0.65896 0.06954 0.0
H943 H 0.57217 0.68928 0.11225 0.0
H944 H 0.63852 0.66585 0.14504 0.0
C945 C 0.65957 0.71075 0.23673 0.0
C946 C 0.59888 0.7007 0.19111 0.0
C947 C 0.67328 0.72627 0.26059 0.0
C948 C 0.56215 0.64588 0.08348 0.0
C949 C 0.57222 0.66344 0.10791 0.0
C950 C 0.62702 0.67525 0.15769 0.0
C951 C 0.64113 0.72216 0.22451 0.0
C952 C 0.62679 0.70535 0.1986 0.0
C953 C 0.5842 0.64916 0.12584 0.0
C954 C 0.59896 0.66989 0.15051 0.0
H955 H 0.64604 0.78547 0.27086 0.0
H956 H 0.62303 0.75958 0.22882 0.0
H957 H 0.66256 0.69681 0.18539 0.0
H958 H 0.57496 0.57302 0.0908 0.0
H959 H 0.59236 0.60336 0.13276 0.0
C960 C 0.4566 0.06598 0.10475 0.0
C961 C 0.47273 0.0484 0.09694 0.0
C962 C 0.43752 0.05318 0.12529 0.0
C963 C 0.39105 0.96855 0.1612 0.0
H964 H 0.3868 0.0388 0.20917 0.0
C965 C 0.30929 0.91937 0.24629 0.0
C966 C 0.29915 0.94325 0.25587 0.0
C967 C 0.33051 0.93085 0.22713 0.0
C968 C 0.38706 1.01853 0.19576 0.0
H969 H 0.48117 1.00314 0.105 0.0
H970 H 0.44745 0.98031 0.14091 0.0
H971 H 0.42411 0.0614 0.1769 0.0
H972 H 0.3028 0.99755 0.2517 0.0
H973 H 0.33814 1.01668 0.21781 0.0
H974 H 0.35344 0.9257 0.17953 0.0
C975 C 0.44989 1.00444 0.13111 0.0
C976 C 0.40885 1.03167 0.17723 0.0
C977 C 0.46956 1.01782 0.11073 0.0
C978 C 0.31003 0.97832 0.24496 0.0
C979 C 0.33082 0.98955 0.22561 0.0
C980 C 0.36891 0.95537 0.17958 0.0
C981 C 0.43333 1.02175 0.13857 0.0
C982 C 0.41115 1.00701 0.15948 0.0
C983 C 0.34214 0.96651 0.21668 0.0
C984 C 0.36625 0.98015 0.19713 0.0
H985 H 0.45816 0.08931 0.09445 0.0
H986 H 0.42512 0.06716 0.13014 0.0
H987 H 0.39181 0.94862 0.14777 0.0
H988 H 0.30188 0.89239 0.25443 0.0
H989 H 0.33853 0.91211 0.22124 0.0
C990 C 0.50183 0.05913 0.92735 0.0
C991 C 0.51844 0.08726 0.94608 0.0
C992 C 0.4932 0.06761 0.90426 0.0
C993 C 0.50416 0.1357 0.85697 0.0
H994 H 0.41866 0.08057 0.84935 0.0
C995 C 0.43956 0.14745 0.76751 0.0
C996 C 0.41502 0.11373 0.75848 0.0
C997 C 0.454 0.14935 0.79098 0.0
C998 C 0.44258 0.09595 0.85083 0.0
H999 H 0.54064 0.14701 0.95417 0.0
H1000 H 0.52618 0.16202 0.91309 0.0
H1001 H 0.44265 0.07434 0.88746 0.0
H1002 H 0.38639 0.05584 0.76738 0.0
H1003 H 0.41122 0.05886 0.80725 0.0
H1004 H 0.50408 0.15602 0.81965 0.0
C1005 C 0.51975 0.13326 0.91665 0.0
C1006 C 0.45633 0.09252 0.8729 0.0
C1007 C 0.52823 0.12467 0.9401 0.0
C1008 C 0.40503 0.08243 0.7737 0.0
C1009 C 0.4193 0.08425 0.79686 0.0
C1010 C 0.49034 0.13872 0.83451 0.0
C1011 C 0.50114 0.10457 0.89891 0.0
C1012 C 0.48728 0.11176 0.87613 0.0
C1013 C 0.44409 0.11762 0.80601 0.0
C1014 C 0.45928 0.11819 0.83086 0.0
H1015 H 0.4939 1.03002 0.93115 0.0
H1016 H 0.47918 0.04493 0.89091 0.0
H1017 H 0.52807 0.15089 0.8589 0.0
H1018 H 0.44817 0.17197 0.75612 0.0
H1019 H 0.47293 0.17563 0.7973 0.0
C1020 C 1.01034 0.38261 0.92689 0.0
C1021 C 1.01112 0.41276 0.94097 0.0
C1022 C 0.99239 0.36752 0.90474 0.0
C1023 C 0.95727 0.38699 0.8511 0.0
H1024 H 0.9049 0.2799 0.8467 0.0
C1025 C 0.88752 0.31259 0.7575 0.0
C1026 C 0.88442 0.27742 0.75087 0.0
C1027 C 0.89869 0.3295 0.78194 0.0
C1028 C 0.91964 0.30978 0.8472 0.0
H1029 H 0.99363 0.4509 0.94216 0.0
H1030 H 0.96305 0.42533 0.90268 0.0
H1031 H 0.93415 0.30923 0.88559 0.0
H1032 H 0.88951 0.23205 0.76526 0.0
H1033 H 0.90897 0.26097 0.80686 0.0
H1034 H 0.94412 0.38749 0.81226 0.0
C1035 C 0.9762 0.41318 0.90919 0.0
C1036 C 0.93631 0.32666 0.86977 0.0
C1037 C 0.99369 0.42778 0.93184 0.0
C1038 C 0.89121 0.25893 0.76972 0.0
C1039 C 0.90245 0.27574 0.79385 0.0
C1040 C 0.94101 0.36998 0.82821 0.0
C1041 C 0.97506 0.38251 0.89552 0.0
C1042 C 0.95567 0.36541 0.87197 0.0
C1043 C 0.90713 0.31176 0.80038 0.0
C1044 C 0.92224 0.33087 0.82564 0.0
H1045 H 1.02316 0.36996 0.93331 0.0
H1046 H 0.9922 0.34406 0.89467 0.0
H1047 H 0.97203 0.41691 0.8521 0.0
H1048 H 0.88301 0.328 0.7434 0.0
H1049 H 0.90136 0.35692 0.78608 0.0
C1050 C 0.77872 0.66759 0.77524 0.0
C1051 C 0.79553 0.70428 0.76682 0.0
C1052 C 0.7601 0.65953 0.79609 0.0
C1053 C 0.71629 0.69349 0.83227 0.0
H1054 H 0.71057 0.62206 0.88159 0.0
C1055 C 0.62252 0.63036 0.90866 0.0
C1056 C 0.63253 0.62995 0.93368 0.0
C1057 C 0.64185 0.63945 0.88795 0.0
C1058 C 0.71175 0.64206 0.86802 0.0
H1059 H 0.8055 0.76135 0.77419 0.0
H1060 H 0.77277 0.74734 0.81063 0.0
H1061 H 0.74649 0.63949 0.84795 0.0
H1062 H 0.67079 0.63785 0.95596 0.0
H1063 H 0.70355 0.65232 0.92035 0.0
H1064 H 0.68121 0.69565 0.85237 0.0
C1065 C 0.7743 0.72472 0.80107 0.0
C1066 C 0.7324 0.65201 0.84856 0.0
C1067 C 0.7935 0.73292 0.7804 0.0
C1068 C 0.66208 0.63789 0.93711 0.0
C1069 C 0.68102 0.64612 0.91654 0.0
C1070 C 0.6952 0.68301 0.85155 0.0
C1071 C 0.75697 0.68774 0.80909 0.0
C1072 C 0.73522 0.67805 0.83036 0.0
C1073 C 0.67148 0.64744 0.89159 0.0
C1074 C 0.6927 0.65727 0.86989 0.0
H1075 H 0.77923 0.64465 0.76508 0.0
H1076 H 0.74712 0.63073 0.80134 0.0
H1077 H 0.71743 0.71329 0.81856 0.0
H1078 H 0.60007 0.62468 0.90519 0.0
H1079 H 0.63353 0.63995 0.86904 0.0
C1080 C 0.75647 0.81551 0.43536 0.0
C1081 C 0.72576 0.79827 0.43018 0.0
C1082 C 0.76793 0.81318 0.45913 0.0
C1083 C 0.74807 0.75365 0.51567 0.0
H1084 H 0.8241 0.83211 0.54236 0.0
C1085 C 0.81204 0.72374 0.59439 0.0
C1086 C 0.82742 0.75088 0.61402 0.0
C1087 C 0.80063 0.73203 0.57267 0.0
C1088 C 0.80276 0.8099 0.53541 0.0
H1089 H 0.683 0.76565 0.44669 0.0
H1090 H 0.70296 0.76179 0.48865 0.0
H1091 H 0.8009 0.84302 0.50534 0.0
H1092 H 0.84337 0.80874 0.6255 0.0
H1093 H 0.82369 0.82348 0.58747 0.0
H1094 H 0.74972 0.72067 0.54588 0.0
C1095 C 0.71828 0.77708 0.47401 0.0
C1096 C 0.78946 0.81604 0.51387 0.0
C1097 C 0.70673 0.77972 0.45005 0.0
C1098 C 0.83224 0.78728 0.61061 0.0
C1099 C 0.82066 0.79561 0.58878 0.0
C1100 C 0.76138 0.74749 0.53717 0.0
C1101 C 0.74915 0.79324 0.4788 0.0
C1102 C 0.76203 0.78786 0.50335 0.0
C1103 C 0.8039 0.76779 0.56973 0.0
C1104 C 0.7892 0.77528 0.54726 0.0
H1105 H 0.77188 0.82985 0.42052 0.0
H1106 H 0.79168 0.82565 0.46158 0.0
H1107 H 0.72715 0.73103 0.50828 0.0
H1108 H 0.80776 0.69536 0.59628 0.0
H1109 H 0.78872 0.70997 0.55832 0.0
C1110 C 0.24098 0.93463 0.42074 0.0
C1111 C 0.25366 0.91627 0.40722 0.0
C1112 C 0.25067 0.94913 0.44565 0.0
C1113 C 0.29655 0.94956 0.50173 0.0
H1114 H 0.30073 0.04452 0.51837 0.0
C1115 C 0.36292 0.04092 0.59034 0.0
C1116 C 0.3509 0.05903 0.60515 0.0
C1117 C 0.34988 1.02298 0.56685 0.0
C1118 C 0.29941 1.0178 0.51423 0.0
H1119 H 0.28612 0.89797 0.40983 0.0
H1120 H 0.30333 0.92348 0.4533 0.0
H1121 H 0.28029 1.01324 0.47704 0.0
H1122 H 0.3156 0.07265 0.60613 0.0
H1123 H 0.2929 0.04154 0.5648 0.0
H1124 H 0.31628 0.95465 0.53881 0.0
C1125 C 0.28545 0.92623 0.44477 0.0
C1126 C 0.28756 0.99965 0.49041 0.0
C1127 C 0.2755 0.91137 0.41979 0.0
C1128 C 0.32563 0.05925 0.59531 0.0
C1129 C 0.31261 0.04137 0.57156 0.0
C1130 C 0.30856 0.96784 0.52548 0.0
C1131 C 0.27369 0.94622 0.45789 0.0
C1132 C 0.28595 0.96521 0.48368 0.0
C1133 C 0.32435 1.02252 0.55712 0.0
C1134 C 0.31034 1.00236 0.53208 0.0
H1135 H 0.22408 0.93895 0.41171 0.0
H1136 H 0.24034 0.96326 0.45512 0.0
H1137 H 0.29534 0.92291 0.49766 0.0
H1138 H 0.38239 0.0401 0.59701 0.0
H1139 H 0.36 1.00954 0.5562 0.0
C1140 C 0.9854 0.30466 0.61221 0.0
C1141 C 0.95519 0.29379 0.60863 0.0
C1142 C 1.00484 0.31566 0.59191 0.0
C1143 C 1.00891 0.31367 0.52061 0.0
H1144 H 0.09003 0.39096 0.53507 0.0
C1145 C 0.09923 0.34767 0.44579 0.0
C1146 C 0.12153 0.38495 0.44298 0.0
C1147 C 0.08009 0.33734 0.46634 0.0
C1148 C 0.0675 0.36954 0.53047 0.0
H1149 H 0.92204 0.28542 0.57987 0.0
H1150 H 0.95608 0.30479 0.54416 0.0
H1151 H 0.05398 0.37214 0.56851 0.0
H1152 H 0.14105 0.44064 0.46016 0.0
H1153 H 0.10784 0.42279 0.49636 0.0
H1154 H 1.02228 0.31166 0.48241 0.0
C1155 C 0.96467 0.30459 0.56301 0.0
C1156 C 0.04667 0.35827 0.5499 0.0
C1157 C 0.94499 0.2934 0.58355 0.0
C1158 C 0.12476 0.41153 0.46203 0.0
C1159 C 0.10539 0.40118 0.48273 0.0
C1160 C 1.02976 0.32492 0.50117 0.0
C1161 C 0.99514 0.31652 0.56692 0.0
C1162 C 1.01699 0.3298 0.54548 0.0
C1163 C 0.08212 0.36398 0.48489 0.0
C1164 C 0.05959 0.35283 0.50574 0.0
H1165 H 0.9944 0.30499 0.631 0.0
H1166 H 1.02766 0.32337 0.59595 0.0
H1167 H 0.98652 0.29167 0.51618 0.0
H1168 H 0.09579 0.32648 0.43134 0.0
H1169 H 0.06325 0.30831 0.46735 0.0
loop_
_geom_bond_atom_site_label_1
_geom_bond_atom_site_label_2
_geom_bond_distance
_geom_bond_site_symmetry_2
_ccdc_geom_bond_type
Eu0 C9 2.828 . S
Eu0 O11 2.392 1_655 S
Eu0 O13 2.418 . S
Eu0 O18 2.373 . S
Eu0 O21 2.488 . S
Eu0 O22 2.471 1_554 S
Eu0 O23 2.349 1_554 S
Eu1 O10 2.373 1_554 S
Eu1 O14 2.488 1_554 S
Eu1 O15 2.471 . S
Eu1 O16 2.349 . S
Eu1 O19 2.392 1_455 S
Eu1 O20 2.418 1_554 S
Eu1 C30 2.828 . S
C2 O20 1.244 1_655 S
C2 O23 1.265 . S
C3 C4 1.379 1_554 S
C3 C7 1.373 . S
C3 C9 1.505 . S
C4 C3 1.379 1_556 S
C4 C6 1.369 . S
C4 H32 0.930 . S
C5 C7 1.383 . S
C5 C8 1.382 . S
C5 H33 0.930 . S
C6 C4 1.369 . S
C6 C8 1.392 1_556 S
C6 H34 0.930 . S
C7 C3 1.373 . S
C7 C5 1.383 . S
C7 H35 0.931 . S
C8 C5 1.382 . S
C8 C6 1.392 1_554 S
C9 Eu0 2.828 . S
C9 C3 1.505 . S
C9 O21 1.249 . S
C9 O22 1.244 1_554 S
O10 Eu1 2.373 1_556 S
O10 C12 1.258 1_556 S
O11 Eu0 2.392 1_455 S
O11 C12 1.242 . S
C12 O10 1.258 1_554 S
C12 O11 1.242 . S
O13 Eu0 2.418 . S
O13 C17 1.244 1_655 S
O14 Eu1 2.488 1_556 S
O14 C30 1.249 1_556 S
O15 Eu1 2.471 . S
O15 C30 1.244 . S
O16 Eu1 2.349 . S
O16 C17 1.265 . S
C17 O13 1.244 1_455 S
C17 O16 1.265 . S
O18 Eu0 2.373 . S
O18 C31 1.258 . S
O19 Eu1 2.392 1_655 S
O19 C31 1.242 . S
O20 Eu1 2.418 1_556 S
O20 C2 1.244 1_455 S
O21 Eu0 2.488 . S
O21 C9 1.249 . S
O22 Eu0 2.471 1_556 S
O22 C9 1.244 1_556 S
O23 Eu0 2.349 1_556 S
O23 C2 1.265 . S
C24 C25 1.379 . S
C24 C28 1.373 1_554 S
C24 C30 1.505 . S
C25 C24 1.379 . S
C25 C27 1.369 . S
C25 H36 0.930 . S
C26 C28 1.383 . S
C26 C29 1.382 1_556 S
C26 H37 0.930 . S
C27 C25 1.369 . S
C27 C29 1.392 . S
C27 H38 0.930 . S
C28 C24 1.373 1_556 S
C28 C26 1.383 . S
C28 H39 0.931 . S
C29 C26 1.382 1_554 S
C29 C27 1.392 . S
C30 Eu1 2.828 . S
C30 O14 1.249 1_554 S
C30 O15 1.244 . S
C30 C24 1.505 . S
C31 O18 1.258 . S
C31 O19 1.242 . S
H32 C4 0.930 . S
H33 C5 0.930 . S
H34 C6 0.930 . S
H35 C7 0.931 . S
H36 C25 0.930 . S
H37 C26 0.930 . S
H38 C27 0.930 . S
H39 C28 0.931 . S
Eu40 C49 2.828 . S
Eu40 O51 2.392 . S
Eu40 O53 2.418 . S
Eu40 O58 2.373 . S
Eu40 O61 2.488 . S
Eu40 O62 2.471 1_556 S
Eu40 O63 2.349 1_556 S
Eu41 O50 2.373 . S
Eu41 O54 2.488 . S
Eu41 O55 2.471 1_554 S
Eu41 O56 2.349 1_554 S
Eu41 O59 2.392 . S
Eu41 O60 2.418 . S
Eu41 C70 2.828 . S
C42 O60 1.244 . S
C42 O63 1.265 . S
C43 C44 1.379 1_556 S
C43 C47 1.373 . S
C43 C49 1.505 . S
C44 C43 1.379 1_554 S
C44 C46 1.369 . S
C44 H72 0.930 . S
C45 C47 1.383 . S
C45 C48 1.382 . S
C45 H73 0.930 . S
C46 C44 1.369 . S
C46 C48 1.392 1_554 S
C46 H74 0.930 . S
C47 C43 1.373 . S
C47 C45 1.383 . S
C47 H75 0.931 . S
C48 C45 1.382 . S
C48 C46 1.392 1_556 S
C49 Eu40 2.828 . S
C49 C43 1.505 . S
C49 O61 1.249 . S
C49 O62 1.244 1_556 S
O50 Eu41 2.373 . S
O50 C52 1.258 . S
O51 Eu40 2.392 . S
O51 C52 1.242 1_556 S
C52 O50 1.258 . S
C52 O51 1.242 1_554 S
O53 Eu40 2.418 . S
O53 C57 1.244 . S
O54 Eu41 2.488 . S
O54 C70 1.249 . S
O55 Eu41 2.471 1_556 S
O55 C70 1.244 1_556 S
O56 Eu41 2.349 1_556 S
O56 C57 1.265 . S
C57 O53 1.244 . S
C57 O56 1.265 . S
O58 Eu40 2.373 . S
O58 C71 1.258 . S
O59 Eu41 2.392 . S
O59 C71 1.242 1_554 S
O60 Eu41 2.418 . S
O60 C42 1.244 . S
O61 Eu40 2.488 . S
O61 C49 1.249 . S
O62 Eu40 2.471 1_554 S
O62 C49 1.244 1_554 S
O63 Eu40 2.349 1_554 S
O63 C42 1.265 . S
C64 C65 1.379 1_554 S
C64 C68 1.373 . S
C64 C70 1.505 . S
C65 C64 1.379 1_556 S
C65 C67 1.369 . S
C65 H76 0.930 . S
C66 C68 1.383 . S
C66 C69 1.382 . S
C66 H77 0.930 . S
C67 C65 1.369 . S
C67 C69 1.392 1_556 S
C67 H78 0.930 . S
C68 C64 1.373 . S
C68 C66 1.383 . S
C68 H79 0.931 . S
C69 C66 1.382 . S
C69 C67 1.392 1_554 S
C70 Eu41 2.828 . S
C70 O54 1.249 . S
C70 O55 1.244 1_554 S
C70 C64 1.505 . S
C71 O58 1.258 . S
C71 O59 1.242 1_556 S
H72 C44 0.930 . S
H73 C45 0.930 . S
H74 C46 0.930 . S
H75 C47 0.931 . S
H76 C65 0.930 . S
H77 C66 0.930 . S
H78 C67 0.930 . S
H79 C68 0.931 . S
Eu80 C89 2.828 . S
Eu80 O91 2.392 1_545 S
Eu80 O93 2.418 . S
Eu80 O98 2.373 . S
Eu80 O101 2.488 . S
Eu80 O102 2.471 1_554 S
Eu80 O103 2.349 1_554 S
Eu81 O90 2.372 1_554 S
Eu81 O94 2.484 1_554 S
Eu81 O95 2.477 . S
Eu81 O96 2.358 . S
Eu81 O99 2.393 1_565 S
Eu81 O100 2.407 1_554 S
Eu81 C110 2.826 . S
C82 O100 1.244 1_545 S
C82 O103 1.265 . S
C83 C84 1.379 1_554 S
C83 C87 1.373 . S
C83 C89 1.505 . S
C84 C83 1.379 1_556 S
C84 C86 1.369 . S
C84 H112 0.930 . S
C85 C87 1.383 . S
C85 C88 1.382 . S
C85 H113 0.930 . S
C86 C84 1.369 . S
C86 C88 1.392 1_556 S
C86 H114 0.930 . S
C87 C83 1.373 . S
C87 C85 1.383 . S
C87 H115 0.931 . S
C88 C85 1.382 . S
C88 C86 1.392 1_554 S
C89 Eu80 2.828 . S
C89 C83 1.505 . S
C89 O101 1.249 . S
C89 O102 1.244 1_554 S
O90 Eu81 2.372 1_556 S
O90 C92 1.258 1_556 S
O91 Eu80 2.392 1_565 S
O91 C92 1.242 . S
C92 O90 1.258 1_554 S
C92 O91 1.242 . S
O93 Eu80 2.418 . S
O93 C97 1.244 1_545 S
O94 Eu81 2.484 1_556 S
O94 C110 1.212 1_556 S
O95 Eu81 2.477 . S
O95 C110 1.280 . S
O96 Eu81 2.358 . S
O96 C97 1.264 . S
C97 O93 1.244 1_565 S
C97 O96 1.264 . S
O98 Eu80 2.373 . S
O98 C111 1.258 . S
O99 Eu81 2.393 1_545 S
O99 C111 1.242 . S
O100 Eu81 2.407 1_556 S
O100 C82 1.244 1_565 S
O101 Eu80 2.488 . S
O101 C89 1.249 . S
O102 Eu80 2.471 1_556 S
O102 C89 1.244 1_556 S
O103 Eu80 2.349 1_556 S
O103 C82 1.265 . S
C104 C105 1.416 . S
C104 C108 1.340 1_554 S
C104 C110 1.505 . S
C105 C104 1.416 . S
C105 C107 1.369 . S
C105 H116 0.930 . S
C106 C108 1.383 . S
C106 C109 1.382 1_556 S
C106 H117 0.930 . S
C107 C105 1.369 . S
C107 C109 1.392 . S
C107 H118 0.930 . S
C108 C104 1.340 1_556 S
C108 C106 1.383 . S
C108 H119 0.931 . S
C109 C106 1.382 1_554 S
C109 C107 1.392 . S
C110 Eu81 2.826 . S
C110 O94 1.212 1_554 S
C110 O95 1.280 . S
C110 C104 1.505 . S
C111 O98 1.258 . S
C111 O99 1.242 . S
H112 C84 0.930 . S
H113 C85 0.930 . S
H114 C86 0.930 . S
H115 C87 0.931 . S
H116 C105 0.930 . S
H117 C106 0.930 . S
H118 C107 0.930 . S
H119 C108 0.931 . S
Eu120 C129 2.828 . S
Eu120 O131 2.392 . S
Eu120 O133 2.418 . S
Eu120 O138 2.373 . S
Eu120 O141 2.488 . S
Eu120 O142 2.471 . S
Eu120 O143 2.349 . S
Eu121 O130 2.373 . S
Eu121 O134 2.488 . S
Eu121 O135 2.471 . S
Eu121 O136 2.349 . S
Eu121 O139 2.392 . S
Eu121 O140 2.418 . S
Eu121 C150 2.828 . S
C122 O140 1.244 . S
C122 O143 1.265 . S
C123 C124 1.379 . S
C123 C127 1.373 . S
C123 C129 1.505 . S
C124 C123 1.379 . S
C124 C126 1.369 . S
C124 H152 0.930 . S
C125 C127 1.383 . S
C125 C128 1.382 . S
C125 H153 0.930 . S
C126 C124 1.369 . S
C126 C128 1.392 . S
C126 H154 0.930 . S
C127 C123 1.373 . S
C127 C125 1.383 . S
C127 H155 0.931 . S
C128 C125 1.382 . S
C128 C126 1.392 . S
C129 Eu120 2.828 . S
C129 C123 1.505 . S
C129 O141 1.249 . S
C129 O142 1.244 . S
O130 Eu121 2.373 . S
O130 C132 1.258 . S
O131 Eu120 2.392 . S
O131 C132 1.242 . S
C132 O130 1.258 . S
C132 O131 1.242 . S
O133 Eu120 2.418 . S
O133 C137 1.244 . S
O134 Eu121 2.488 . S
O134 C150 1.249 . S
O135 Eu121 2.471 . S
O135 C150 1.244 . S
O136 Eu121 2.349 . S
O136 C137 1.265 . S
C137 O133 1.244 . S
C137 O136 1.265 . S
O138 Eu120 2.373 . S
O138 C151 1.258 . S
O139 Eu121 2.392 . S
O139 C151 1.242 . S
O140 Eu121 2.418 . S
O140 C122 1.244 . S
O141 Eu120 2.488 . S
O141 C129 1.249 . S
O142 Eu120 2.471 . S
O142 C129 1.244 . S
O143 Eu120 2.349 . S
O143 C122 1.265 . S
C144 C145 1.379 . S
C144 C148 1.373 . S
C144 C150 1.505 . S
C145 C144 1.379 . S
C145 C147 1.369 . S
C145 H156 0.930 . S
C146 C148 1.383 . S
C146 C149 1.382 . S
C146 H157 0.930 . S
C147 C145 1.369 . S
C147 C149 1.392 . S
C147 H158 0.930 . S
C148 C144 1.373 . S
C148 C146 1.383 . S
C148 H159 0.931 . S
C149 C146 1.382 . S
C149 C147 1.392 . S
C150 Eu121 2.828 . S
C150 O134 1.249 . S
C150 O135 1.244 . S
C150 C144 1.505 . S
C151 O138 1.258 . S
C151 O139 1.242 . S
H152 C124 0.930 . S
H153 C125 0.930 . S
H154 C126 0.930 . S
H155 C127 0.931 . S
H156 C145 0.930 . S
H157 C146 0.930 . S
H158 C147 0.930 . S
H159 C148 0.931 . S
Eu160 C169 2.828 . S
Eu160 O171 2.392 . S
Eu160 O173 2.418 . S
Eu160 O178 2.373 . S
Eu160 O181 2.488 . S
Eu160 O182 2.471 . S
Eu160 O183 2.349 . S
Eu161 O170 2.373 . S
Eu161 O174 2.488 . S
Eu161 O175 2.471 . S
Eu161 O176 2.349 . S
Eu161 O179 2.392 . S
Eu161 O180 2.418 . S
Eu161 C190 2.837 . S
C162 O180 1.244 . S
C162 O183 1.265 . S
C163 C164 1.379 . S
C163 C167 1.373 . S
C163 C169 1.505 . S
C164 C163 1.379 . S
C164 C166 1.369 . S
C164 H192 0.930 . S
C165 C167 1.383 . S
C165 C168 1.382 . S
C165 H193 0.930 . S
C166 C164 1.369 . S
C166 C168 1.392 . S
C166 H194 0.930 . S
C167 C163 1.373 . S
C167 C165 1.383 . S
C167 H195 0.931 . S
C168 C165 1.382 . S
C168 C166 1.392 . S
C169 Eu160 2.828 . S
C169 C163 1.505 . S
C169 O181 1.249 . S
C169 O182 1.244 . S
O170 Eu161 2.373 . S
O170 C172 1.258 . S
O171 Eu160 2.392 . S
O171 C172 1.242 . S
C172 O170 1.258 . S
C172 O171 1.242 . S
O173 Eu160 2.418 . S
O173 C177 1.244 . S
O174 Eu161 2.488 . S
O174 C190 1.253 . S
O175 Eu161 2.471 . S
O175 C190 1.250 . S
O176 Eu161 2.349 . S
O176 C177 1.265 . S
C177 O173 1.244 . S
C177 O176 1.265 . S
O178 Eu160 2.373 . S
O178 C191 1.258 . S
O179 Eu161 2.392 . S
O179 C191 1.242 . S
O180 Eu161 2.418 . S
O180 C162 1.244 . S
O181 Eu160 2.488 . S
O181 C169 1.249 . S
O182 Eu160 2.471 . S
O182 C169 1.244 . S
O183 Eu160 2.349 . S
O183 C162 1.265 . S
C184 C185 1.379 . S
C184 C188 1.373 . S
C184 C190 1.496 1_545 S
C185 C184 1.379 . S
C185 C187 1.369 . S
C185 H196 0.930 . S
C186 C188 1.383 . S
C186 C189 1.382 . S
C186 H197 0.930 . S
C187 C185 1.369 . S
C187 C189 1.392 . S
C187 H198 0.930 . S
C188 C184 1.373 . S
C188 C186 1.383 . S
C188 H199 0.931 . S
C189 C186 1.382 . S
C189 C187 1.392 . S
C190 Eu161 2.837 . S
C190 O174 1.253 . S
C190 O175 1.250 . S
C190 C184 1.496 1_565 S
C191 O178 1.258 . S
C191 O179 1.242 . S
H192 C164 0.930 . S
H193 C165 0.930 . S
H194 C166 0.930 . S
H195 C167 0.931 . S
H196 C185 0.930 . S
H197 C186 0.930 . S
H198 C187 0.930 . S
H199 C188 0.931 . S
Eu200 C209 2.828 . S
Eu200 O211 2.392 . S
Eu200 O213 2.418 . S
Eu200 O218 2.373 . S
Eu200 O221 2.488 . S
Eu200 O222 2.471 . S
Eu200 O223 2.349 . S
Eu201 O210 2.373 . S
Eu201 O214 2.488 . S
Eu201 O215 2.471 . S
Eu201 O216 2.349 . S
Eu201 O219 2.392 . S
Eu201 O220 2.418 . S
Eu201 C230 2.828 . S
C202 O220 1.244 . S
C202 O223 1.265 . S
C203 C204 1.379 . S
C203 C207 1.373 . S
C203 C209 1.505 . S
C204 C203 1.379 . S
C204 C206 1.369 . S
C204 H232 0.930 . S
C205 C207 1.383 . S
C205 C208 1.382 . S
C205 H233 0.930 . S
C206 C204 1.369 . S
C206 C208 1.392 . S
C206 H234 0.930 . S
C207 C203 1.373 . S
C207 C205 1.383 . S
C207 H235 0.931 . S
C208 C205 1.382 . S
C208 C206 1.392 . S
C209 Eu200 2.828 . S
C209 C203 1.505 . S
C209 O221 1.249 . S
C209 O222 1.244 . S
O210 Eu201 2.373 . S
O210 C212 1.258 . S
O211 Eu200 2.392 . S
O211 C212 1.242 . S
C212 O210 1.258 . S
C212 O211 1.242 . S
O213 Eu200 2.418 . S
O213 C217 1.244 . S
O214 Eu201 2.488 . S
O214 C230 1.249 . S
O215 Eu201 2.471 . S
O215 C230 1.244 . S
O216 Eu201 2.349 . S
O216 C217 1.265 . S
C217 O213 1.244 . S
C217 O216 1.265 . S
O218 Eu200 2.373 . S
O218 C231 1.258 . S
O219 Eu201 2.392 . S
O219 C231 1.242 . S
O220 Eu201 2.418 . S
O220 C202 1.244 . S
O221 Eu200 2.488 . S
O221 C209 1.249 . S
O222 Eu200 2.471 . S
O222 C209 1.244 . S
O223 Eu200 2.349 . S
O223 C202 1.265 . S
C224 C225 1.379 . S
C224 C228 1.373 1_455 S
C224 C230 1.505 . S
C225 C224 1.379 . S
C225 C227 1.369 1_455 S
C225 H236 0.930 . S
C226 C228 1.383 . S
C226 C229 1.382 . S
C226 H237 0.930 . S
C227 C225 1.369 1_655 S
C227 C229 1.392 . S
C227 H238 0.930 . S
C228 C224 1.373 1_655 S
C228 C226 1.383 . S
C228 H239 0.931 . S
C229 C226 1.382 . S
C229 C227 1.392 . S
C230 Eu201 2.828 . S
C230 O214 1.249 . S
C230 O215 1.244 . S
C230 C224 1.505 . S
C231 O218 1.258 . S
C231 O219 1.242 . S
H232 C204 0.930 . S
H233 C205 0.930 . S
H234 C206 0.930 . S
H235 C207 0.931 . S
H236 C225 0.930 . S
H237 C226 0.930 . S
H238 C227 0.930 . S
H239 C228 0.931 . S
Eu240 C249 2.828 . S
Eu240 O251 2.392 . S
Eu240 O253 2.418 . S
Eu240 O258 2.373 . S
Eu240 O261 2.488 . S
Eu240 O262 2.471 . S
Eu240 O263 2.349 . S
Eu241 O250 2.373 . S
Eu241 O254 2.488 . S
Eu241 O255 2.471 . S
Eu241 O256 2.349 . S
Eu241 O259 2.392 . S
Eu241 O260 2.418 . S
Eu241 C270 2.828 . S
C242 O260 1.244 . S
C242 O263 1.265 . S
C243 C244 1.379 . S
C243 C247 1.373 . S
C243 C249 1.505 . S
C244 C243 1.379 . S
C244 C246 1.369 . S
C244 H272 0.930 . S
C245 C247 1.383 . S
C245 C248 1.382 . S
C245 H273 0.930 . S
C246 C244 1.369 . S
C246 C248 1.392 . S
C246 H274 0.930 . S
C247 C243 1.373 . S
C247 C245 1.383 . S
C247 H275 0.931 . S
C248 C245 1.382 . S
C248 C246 1.392 . S
C249 Eu240 2.828 . S
C249 C243 1.505 . S
C249 O261 1.249 . S
C249 O262 1.244 . S
O250 Eu241 2.373 . S
O250 C252 1.258 . S
O251 Eu240 2.392 . S
O251 C252 1.242 . S
C252 O250 1.258 . S
C252 O251 1.242 . S
O253 Eu240 2.418 . S
O253 C257 1.244 . S
O254 Eu241 2.488 . S
O254 C270 1.249 . S
O255 Eu241 2.471 . S
O255 C270 1.244 . S
O256 Eu241 2.349 . S
O256 C257 1.265 . S
C257 O253 1.244 . S
C257 O256 1.265 . S
O258 Eu240 2.373 . S
O258 C271 1.258 . S
O259 Eu241 2.392 . S
O259 C271 1.242 . S
O260 Eu241 2.418 . S
O260 C242 1.244 . S
O261 Eu240 2.488 . S
O261 C249 1.249 . S
O262 Eu240 2.471 . S
O262 C249 1.244 . S
O263 Eu240 2.349 . S
O263 C242 1.265 . S
C264 C265 1.379 . S
C264 C268 1.373 . S
C264 C270 1.505 . S
C265 C264 1.379 . S
C265 C267 1.369 . S
C265 H276 0.930 . S
C266 C268 1.383 . S
C266 C269 1.382 . S
C266 H277 0.930 . S
C267 C265 1.369 . S
C267 C269 1.392 . S
C267 H278 0.930 . S
C268 C264 1.373 . S
C268 C266 1.383 . S
C268 H279 0.931 . S
C269 C266 1.382 . S
C269 C267 1.392 . S
C270 Eu241 2.828 . S
C270 O254 1.249 . S
C270 O255 1.244 . S
C270 C264 1.505 . S
C271 O258 1.258 . S
C271 O259 1.242 . S
H272 C244 0.930 . S
H273 C245 0.930 . S
H274 C246 0.930 . S
H275 C247 0.931 . S
H276 C265 0.930 . S
H277 C266 0.930 . S
H278 C267 0.930 . S
H279 C268 0.931 . S
Eu280 C289 2.828 . S
Eu280 O291 2.392 . S
Eu280 O293 2.418 . S
Eu280 O298 2.373 . S
Eu280 O301 2.488 . S
Eu280 O302 2.471 . S
Eu280 O303 2.349 . S
Eu281 O290 2.373 . S
Eu281 O294 2.488 . S
Eu281 O295 2.471 . S
Eu281 O296 2.349 . S
Eu281 O299 2.392 . S
Eu281 O300 2.418 . S
Eu281 C310 2.828 . S
C282 O300 1.244 . S
C282 O303 1.265 . S
C283 C284 1.379 . S
C283 C287 1.373 . S
C283 C289 1.505 . S
C284 C283 1.379 . S
C284 C286 1.369 . S
C284 H312 0.930 . S
C285 C287 1.383 . S
C285 C288 1.382 . S
C285 H313 0.930 . S
C286 C284 1.369 . S
C286 C288 1.392 . S
C286 H314 0.930 . S
C287 C283 1.373 . S
C287 C285 1.383 . S
C287 H315 0.931 . S
C288 C285 1.382 . S
C288 C286 1.392 . S
C289 Eu280 2.828 . S
C289 C283 1.505 . S
C289 O301 1.249 . S
C289 O302 1.244 . S
O290 Eu281 2.373 . S
O290 C292 1.258 . S
O291 Eu280 2.392 . S
O291 C292 1.242 . S
C292 O290 1.258 . S
C292 O291 1.242 . S
O293 Eu280 2.418 . S
O293 C297 1.244 . S
O294 Eu281 2.488 . S
O294 C310 1.249 . S
O295 Eu281 2.471 . S
O295 C310 1.244 . S
O296 Eu281 2.349 . S
O296 C297 1.265 . S
C297 O293 1.244 . S
C297 O296 1.265 . S
O298 Eu280 2.373 . S
O298 C311 1.258 . S
O299 Eu281 2.392 . S
O299 C311 1.242 . S
O300 Eu281 2.418 . S
O300 C282 1.244 . S
O301 Eu280 2.488 . S
O301 C289 1.249 . S
O302 Eu280 2.471 . S
O302 C289 1.244 . S
O303 Eu280 2.349 . S
O303 C282 1.265 . S
C304 C305 1.379 . S
C304 C308 1.373 . S
C304 C310 1.505 1_455 S
C305 C304 1.379 . S
C305 C307 1.369 . S
C305 H316 0.930 1_455 S
C306 C308 1.383 . S
C306 C309 1.382 . S
C306 H317 0.930 . S
C307 C305 1.369 . S
C307 C309 1.392 . S
C307 H318 0.930 . S
C308 C304 1.373 . S
C308 C306 1.383 . S
C308 H319 0.931 . S
C309 C306 1.382 . S
C309 C307 1.392 . S
C310 Eu281 2.828 . S
C310 O294 1.249 . S
C310 O295 1.244 . S
C310 C304 1.505 1_655 S
C311 O298 1.258 . S
C311 O299 1.242 . S
H312 C284 0.930 . S
H313 C285 0.930 . S
H314 C286 0.930 . S
H315 C287 0.931 . S
H316 C305 0.930 1_655 S
H317 C306 0.930 . S
H318 C307 0.930 . S
H319 C308 0.931 . S
Eu320 C329 2.828 . S
Eu320 O331 2.392 . S
Eu320 O333 2.418 . S
Eu320 O338 2.373 . S
Eu320 O341 2.488 . S
Eu320 O342 2.471 . S
Eu320 O343 2.349 . S
Eu321 O330 2.373 . S
Eu321 O334 2.488 . S
Eu321 O335 2.471 . S
Eu321 O336 2.349 . S
Eu321 O339 2.392 . S
Eu321 O340 2.418 . S
Eu321 C350 2.828 . S
C322 O340 1.244 . S
C322 O343 1.265 . S
C323 C324 1.379 . S
C323 C327 1.373 . S
C323 C329 1.505 . S
C324 C323 1.379 . S
C324 C326 1.369 . S
C324 H352 0.930 . S
C325 C327 1.383 . S
C325 C328 1.382 . S
C325 H353 0.930 . S
C326 C324 1.369 . S
C326 C328 1.392 . S
C326 H354 0.930 . S
C327 C323 1.373 . S
C327 C325 1.383 . S
C327 H355 0.931 . S
C328 C325 1.382 . S
C328 C326 1.392 . S
C329 Eu320 2.828 . S
C329 C323 1.505 . S
C329 O341 1.249 . S
C329 O342 1.244 . S
O330 Eu321 2.373 . S
O330 C332 1.258 . S
O331 Eu320 2.392 . S
O331 C332 1.242 . S
C332 O330 1.258 . S
C332 O331 1.242 . S
O333 Eu320 2.418 . S
O333 C337 1.244 . S
O334 Eu321 2.488 . S
O334 C350 1.249 . S
O335 Eu321 2.471 . S
O335 C350 1.244 . S
O336 Eu321 2.349 . S
O336 C337 1.265 . S
C337 O333 1.244 . S
C337 O336 1.265 . S
O338 Eu320 2.373 . S
O338 C351 1.258 . S
O339 Eu321 2.392 . S
O339 C351 1.242 . S
O340 Eu321 2.418 . S
O340 C322 1.244 . S
O341 Eu320 2.488 . S
O341 C329 1.249 . S
O342 Eu320 2.471 . S
O342 C329 1.244 . S
O343 Eu320 2.349 . S
O343 C322 1.265 . S
C344 C345 1.379 . S
C344 C348 1.373 . S
C344 C350 1.505 . S
C345 C344 1.379 . S
C345 C347 1.369 . S
C345 H356 0.930 . S
C346 C348 1.383 . S
C346 C349 1.382 . S
C346 H357 0.930 . S
C347 C345 1.369 . S
C347 C349 1.392 . S
C347 H358 0.930 . S
C348 C344 1.373 . S
C348 C346 1.383 . S
C348 H359 0.931 . S
C349 C346 1.382 . S
C349 C347 1.392 . S
C350 Eu321 2.828 . S
C350 O334 1.249 . S
C350 O335 1.244 . S
C350 C344 1.505 . S
C351 O338 1.258 . S
C351 O339 1.242 . S
H352 C324 0.930 . S
H353 C325 0.930 . S
H354 C326 0.930 . S
H355 C327 0.931 . S
H356 C345 0.930 . S
H357 C346 0.930 . S
H358 C347 0.930 . S
H359 C348 0.931 . S
C360 C361 1.349 . S
C360 C362 1.327 . S
C360 H385 0.950 . S
C361 C360 1.349 . S
C361 C377 1.349 1_556 S
C362 C360 1.327 . S
C362 C381 1.429 . S
C362 H386 0.950 . S
C363 C380 1.574 . S
C363 C382 1.367 1_554 S
C363 H387 0.949 . S
H364 C368 0.949 . S
C365 C366 1.349 . S
C365 C367 1.327 . S
C365 H388 0.950 . S
C366 C365 1.349 . S
C366 C378 1.349 1_554 S
C367 C365 1.327 . S
C367 C383 1.429 . S
C367 H389 0.950 . S
C368 H364 0.949 . S
C368 C376 1.574 . S
C368 C384 1.368 1_556 S
H369 C377 0.950 . S
H370 C375 0.950 . S
H371 C376 0.949 . S
H372 C378 0.950 . S
H373 C379 0.950 . S
H374 C380 0.949 . S
C375 H370 0.950 . S
C375 C377 1.327 . S
C375 C381 1.429 1_554 S
C376 C368 1.574 . S
C376 H371 0.949 . S
C376 C382 1.370 . S
C377 C361 1.349 1_554 S
C377 H369 0.950 . S
C377 C375 1.327 . S
C378 C366 1.349 1_556 S
C378 H372 0.950 . S
C378 C379 1.327 . S
C379 H373 0.950 . S
C379 C378 1.327 . S
C379 C383 1.429 1_556 S
C380 C363 1.574 . S
C380 H374 0.949 . S
C380 C384 1.368 . S
C381 C362 1.429 . S
C381 C375 1.429 1_556 S
C381 C382 1.523 . S
C382 C363 1.367 1_556 S
C382 C376 1.370 . S
C382 C381 1.523 . S
C383 C367 1.429 . S
C383 C379 1.429 1_554 S
C383 C384 1.523 . S
C384 C368 1.368 1_554 S
C384 C380 1.368 . S
C384 C383 1.523 . S
H385 C360 0.950 . S
H386 C362 0.950 . S
H387 C363 0.949 . S
H388 C365 0.950 . S
H389 C367 0.950 . S
C390 C391 1.349 1_554 S
C390 C392 1.327 . S
C390 H415 0.950 . S
C391 C390 1.349 1_556 S
C391 C407 1.348 . S
C392 C390 1.327 . S
C392 C411 1.396 1_554 S
C392 H416 0.950 . S
C393 C410 1.574 . S
C393 C412 1.368 . S
C393 H417 0.949 . S
H394 C398 0.949 . S
C395 C396 1.349 . S
C395 C397 1.327 . S
C395 H418 0.950 . S
C396 C395 1.349 . S
C396 C408 1.349 1_556 S
C397 C395 1.327 . S
C397 C413 1.429 . S
C397 H419 0.950 . S
C398 H394 0.949 . S
C398 C406 1.574 . S
C398 C414 1.368 1_554 S
H399 C407 0.950 . S
H400 C405 0.950 . S
H401 C406 0.949 . S
H402 C408 0.950 . S
H403 C409 0.950 . S
H404 C410 0.949 . S
C405 H400 0.950 . S
C405 C407 1.327 . S
C405 C411 1.462 . S
C406 C398 1.574 . S
C406 H401 0.949 . S
C406 C412 1.368 1_554 S
C407 C391 1.348 . S
C407 H399 0.950 . S
C407 C405 1.327 . S
C408 C396 1.349 1_554 S
C408 H402 0.950 . S
C408 C409 1.327 . S
C409 H403 0.950 . S
C409 C408 1.327 . S
C409 C413 1.429 1_554 S
C410 C393 1.574 . S
C410 H404 0.949 . S
C410 C414 1.368 . S
C411 C392 1.396 1_556 S
C411 C405 1.462 . S
C411 C412 1.524 . S
C412 C393 1.368 . S
C412 C406 1.368 1_556 S
C412 C411 1.524 . S
C413 C397 1.429 . S
C413 C409 1.429 1_556 S
C413 C414 1.523 . S
C414 C398 1.368 1_556 S
C414 C410 1.368 . S
C414 C413 1.523 . S
H415 C390 0.950 . S
H416 C392 0.950 . S
H417 C393 0.949 . S
H418 C395 0.950 . S
H419 C397 0.950 . S
C420 C421 1.349 . S
C420 C422 1.327 . S
C420 H445 0.950 . S
C421 C420 1.349 . S
C421 C437 1.349 1_554 S
C422 C420 1.327 . S
C422 C441 1.429 . S
C422 H446 0.950 . S
C423 C440 1.574 . S
C423 C442 1.368 1_556 S
C423 H447 0.949 . S
H424 C428 0.949 . S
C425 C426 1.349 1_556 S
C425 C427 1.327 . S
C425 H448 0.950 . S
C426 C425 1.349 1_554 S
C426 C438 1.349 . S
C427 C425 1.327 . S
C427 C443 1.429 1_556 S
C427 H449 0.950 . S
C428 H424 0.949 . S
C428 C436 1.574 . S
C428 C444 1.368 . S
H429 C437 0.950 . S
H430 C435 0.950 . S
H431 C436 0.949 . S
H432 C438 0.950 . S
H433 C439 0.950 . S
H434 C440 0.949 . S
C435 H430 0.950 . S
C435 C437 1.327 . S
C435 C441 1.429 1_556 S
C436 C428 1.574 . S
C436 H431 0.949 . S
C436 C442 1.368 . S
C437 C421 1.349 1_556 S
C437 H429 0.950 . S
C437 C435 1.327 . S
C438 C426 1.349 . S
C438 H432 0.950 . S
C438 C439 1.327 . S
C439 H433 0.950 . S
C439 C438 1.327 . S
C439 C443 1.429 . S
C440 C423 1.574 . S
C440 H434 0.949 . S
C440 C444 1.368 1_556 S
C441 C422 1.429 . S
C441 C435 1.429 1_554 S
C441 C442 1.523 . S
C442 C423 1.368 1_554 S
C442 C436 1.368 . S
C442 C441 1.523 . S
C443 C427 1.429 1_554 S
C443 C439 1.429 . S
C443 C444 1.523 . S
C444 C428 1.368 . S
C444 C440 1.368 1_554 S
C444 C443 1.523 . S
H445 C420 0.950 . S
H446 C422 0.950 . S
H447 C423 0.949 . S
H448 C425 0.950 . S
H449 C427 0.950 . S
C450 C451 1.349 . S
C450 C452 1.327 . S
C450 H475 0.950 . S
C451 C450 1.349 . S
C451 C467 1.349 1_554 S
C452 C450 1.327 . S
C452 C471 1.429 . S
C452 H476 0.950 . S
C453 C470 1.574 . S
C453 C472 1.368 1_556 S
C453 H477 0.949 . S
H454 C458 0.949 . S
C455 C456 1.349 1_556 S
C455 C457 1.327 . S
C455 H478 0.950 . S
C456 C455 1.349 1_554 S
C456 C468 1.349 . S
C457 C455 1.327 . S
C457 C473 1.429 1_556 S
C457 H479 0.950 . S
C458 H454 0.949 . S
C458 C466 1.574 . S
C458 C474 1.368 . S
H459 C467 0.950 . S
H460 C465 0.950 . S
H461 C466 0.949 . S
H462 C468 0.950 . S
H463 C469 0.950 . S
H464 C470 0.949 . S
C465 H460 0.950 . S
C465 C467 1.327 . S
C465 C471 1.429 1_556 S
C466 C458 1.574 . S
C466 H461 0.949 . S
C466 C472 1.368 . S
C467 C451 1.349 1_556 S
C467 H459 0.950 . S
C467 C465 1.327 . S
C468 C456 1.349 . S
C468 H462 0.950 . S
C468 C469 1.327 . S
C469 H463 0.950 . S
C469 C468 1.327 . S
C469 C473 1.429 . S
C470 C453 1.574 . S
C470 H464 0.949 . S
C470 C474 1.368 1_556 S
C471 C452 1.429 . S
C471 C465 1.429 1_554 S
C471 C472 1.523 . S
C472 C453 1.368 1_554 S
C472 C466 1.368 . S
C472 C471 1.523 . S
C473 C457 1.429 1_554 S
C473 C469 1.429 . S
C473 C474 1.523 . S
C474 C458 1.368 . S
C474 C470 1.368 1_554 S
C474 C473 1.523 . S
H475 C450 0.950 . S
H476 C452 0.950 . S
H477 C453 0.949 . S
H478 C455 0.950 . S
H479 C457 0.950 . S
C480 C481 1.349 . S
C480 C482 1.327 . S
C480 H505 0.950 . S
C481 C480 1.349 . S
C481 C497 1.349 1_554 S
C482 C480 1.327 . S
C482 C501 1.429 . S
C482 H506 0.950 . S
C483 C500 1.574 . S
C483 C502 1.368 1_556 S
C483 H507 0.949 . S
H484 C488 0.949 . S
C485 C486 1.349 1_556 S
C485 C487 1.327 . S
C485 H508 0.950 . S
C486 C485 1.349 1_554 S
C486 C498 1.349 . S
C487 C485 1.327 . S
C487 C503 1.429 1_556 S
C487 H509 0.950 . S
C488 H484 0.949 . S
C488 C496 1.574 . S
C488 C504 1.368 . S
H489 C497 0.950 . S
H490 C495 0.950 . S
H491 C496 0.949 . S
H492 C498 0.950 . S
H493 C499 0.950 . S
H494 C500 0.949 . S
C495 H490 0.950 . S
C495 C497 1.327 . S
C495 C501 1.429 1_556 S
C496 C488 1.574 . S
C496 H491 0.949 . S
C496 C502 1.368 . S
C497 C481 1.349 1_556 S
C497 H489 0.950 . S
C497 C495 1.327 . S
C498 C486 1.349 . S
C498 H492 0.950 . S
C498 C499 1.327 . S
C499 H493 0.950 . S
C499 C498 1.327 . S
C499 C503 1.429 . S
C500 C483 1.574 . S
C500 H494 0.949 . S
C500 C504 1.368 1_556 S
C501 C482 1.429 . S
C501 C495 1.429 1_554 S
C501 C502 1.523 . S
C502 C483 1.368 1_554 S
C502 C496 1.368 . S
C502 C501 1.523 . S
C503 C487 1.429 1_554 S
C503 C499 1.429 . S
C503 C504 1.523 . S
C504 C488 1.368 . S
C504 C500 1.368 1_554 S
C504 C503 1.523 . S
H505 C480 0.950 . S
H506 C482 0.950 . S
H507 C483 0.949 . S
H508 C485 0.950 . S
H509 C487 0.950 . S
C510 C511 1.349 . S
C510 C512 1.327 . S
C510 H535 0.950 . S
C511 C510 1.349 . S
C511 C527 1.349 1_554 S
C512 C510 1.327 . S
C512 C531 1.429 . S
C512 H536 0.950 . S
C513 C530 1.574 . S
C513 C532 1.368 1_556 S
C513 H537 0.949 . S
H514 C518 0.949 . S
C515 C516 1.349 1_556 S
C515 C517 1.327 . S
C515 H538 0.950 . S
C516 C515 1.349 1_554 S
C516 C528 1.349 . S
C517 C515 1.327 . S
C517 C533 1.429 1_556 S
C517 H539 0.950 . S
C518 H514 0.949 . S
C518 C526 1.574 . S
C518 C534 1.368 . S
H519 C527 0.950 . S
H520 C525 0.950 . S
H521 C526 0.949 . S
H522 C528 0.950 . S
H523 C529 0.950 . S
H524 C530 0.949 . S
C525 H520 0.950 . S
C525 C527 1.327 . S
C525 C531 1.429 1_556 S
C526 C518 1.574 . S
C526 H521 0.949 . S
C526 C532 1.368 . S
C527 C511 1.349 1_556 S
C527 H519 0.950 . S
C527 C525 1.327 . S
C528 C516 1.349 . S
C528 H522 0.950 . S
C528 C529 1.327 . S
C529 H523 0.950 . S
C529 C528 1.327 . S
C529 C533 1.429 . S
C530 C513 1.574 . S
C530 H524 0.949 . S
C530 C534 1.368 1_556 S
C531 C512 1.429 . S
C531 C525 1.429 1_554 S
C531 C532 1.523 . S
C532 C513 1.368 1_554 S
C532 C526 1.368 . S
C532 C531 1.523 . S
C533 C517 1.429 1_554 S
C533 C529 1.429 . S
C533 C534 1.523 . S
C534 C518 1.368 . S
C534 C530 1.368 1_554 S
C534 C533 1.523 . S
H535 C510 0.950 . S
H536 C512 0.950 . S
H537 C513 0.949 . S
H538 C515 0.950 . S
H539 C517 0.950 . S
C540 C541 1.349 . S
C540 C542 1.327 . S
C540 H565 0.950 . S
C541 C540 1.349 . S
C541 C557 1.349 . S
C542 C540 1.327 . S
C542 C561 1.429 . S
C542 H566 0.950 . S
C543 C560 1.574 1_655 S
C543 C562 1.368 . S
C543 H567 0.949 . S
H544 C548 0.949 . S
C545 C546 1.349 . S
C545 C547 1.327 . S
C545 H568 0.950 . S
C546 C545 1.349 . S
C546 C558 1.349 . S
C547 C545 1.327 . S
C547 C563 1.429 . S
C547 H569 0.950 . S
C548 H544 0.949 . S
C548 C556 1.574 1_455 S
C548 C564 1.368 . S
H549 C557 0.950 . S
H550 C555 0.950 . S
H551 C556 0.949 . S
H552 C558 0.950 . S
H553 C559 0.950 . S
H554 C560 0.949 . S
C555 H550 0.950 . S
C555 C557 1.327 . S
C555 C561 1.429 . S
C556 C548 1.574 1_655 S
C556 H551 0.949 . S
C556 C562 1.368 . S
C557 C541 1.349 . S
C557 H549 0.950 . S
C557 C555 1.327 . S
C558 C546 1.349 . S
C558 H552 0.950 . S
C558 C559 1.327 . S
C559 H553 0.950 . S
C559 C558 1.327 . S
C559 C563 1.429 . S
C560 C543 1.574 1_455 S
C560 H554 0.949 . S
C560 C564 1.368 . S
C561 C542 1.429 . S
C561 C555 1.429 . S
C561 C562 1.523 . S
C562 C543 1.368 . S
C562 C556 1.368 . S
C562 C561 1.523 . S
C563 C547 1.429 . S
C563 C559 1.429 . S
C563 C564 1.523 . S
C564 C548 1.368 . S
C564 C560 1.368 . S
C564 C563 1.523 . S
H565 C540 0.950 . S
H566 C542 0.950 . S
H567 C543 0.949 . S
H568 C545 0.950 . S
H569 C547 0.950 . S
C570 C571 1.349 . S
C570 C572 1.327 . S
C570 H595 0.950 . S
C571 C570 1.349 . S
C571 C587 1.349 . S
C572 C570 1.327 . S
C572 C591 1.429 . S
C572 H596 0.950 . S
C573 C590 1.574 . S
C573 C592 1.368 . S
C573 H597 0.949 . S
H574 C578 0.949 . S
C575 C576 1.349 . S
C575 C577 1.327 . S
C575 H598 0.950 . S
C576 C575 1.349 . S
C576 C588 1.349 . S
C577 C575 1.327 . S
C577 C593 1.429 . S
C577 H599 0.950 . S
C578 H574 0.949 . S
C578 C586 1.574 . S
C578 C594 1.368 . S
H579 C587 0.950 . S
H580 C585 0.950 . S
H581 C586 0.949 . S
H582 C588 0.950 . S
H583 C589 0.950 . S
H584 C590 0.949 . S
C585 H580 0.950 . S
C585 C587 1.327 . S
C585 C591 1.429 . S
C586 C578 1.574 . S
C586 H581 0.949 . S
C586 C592 1.368 . S
C587 C571 1.349 . S
C587 H579 0.950 . S
C587 C585 1.327 . S
C588 C576 1.349 . S
C588 H582 0.950 . S
C588 C589 1.327 . S
C589 H583 0.950 . S
C589 C588 1.327 . S
C589 C593 1.429 . S
C590 C573 1.574 . S
C590 H584 0.949 . S
C590 C594 1.368 . S
C591 C572 1.429 . S
C591 C585 1.429 . S
C591 C592 1.523 . S
C592 C573 1.368 . S
C592 C586 1.368 . S
C592 C591 1.523 . S
C593 C577 1.429 . S
C593 C589 1.429 . S
C593 C594 1.523 . S
C594 C578 1.368 . S
C594 C590 1.368 . S
C594 C593 1.523 . S
H595 C570 0.950 . S
H596 C572 0.950 . S
H597 C573 0.949 . S
H598 C575 0.950 . S
H599 C577 0.950 . S
C600 C601 1.349 . S
C600 C602 1.327 . S
C600 H625 0.950 . S
C601 C600 1.349 . S
C601 C617 1.349 . S
C602 C600 1.327 . S
C602 C621 1.429 . S
C602 H626 0.950 . S
C603 C620 1.574 1_545 S
C603 C622 1.368 . S
C603 H627 0.949 . S
H604 C608 0.949 . S
C605 C606 1.349 . S
C605 C607 1.327 . S
C605 H628 0.950 . S
C606 C605 1.349 . S
C606 C618 1.349 . S
C607 C605 1.327 . S
C607 C623 1.429 . S
C607 H629 0.950 . S
C608 H604 0.949 . S
C608 C616 1.574 1_565 S
C608 C624 1.368 . S
H609 C617 0.950 . S
H610 C615 0.950 . S
H611 C616 0.949 . S
H612 C618 0.950 . S
H613 C619 0.950 . S
H614 C620 0.949 . S
C615 H610 0.950 . S
C615 C617 1.327 . S
C615 C621 1.429 . S
C616 C608 1.574 1_545 S
C616 H611 0.949 . S
C616 C622 1.368 . S
C617 C601 1.349 . S
C617 H609 0.950 . S
C617 C615 1.327 . S
C618 C606 1.349 . S
C618 H612 0.950 . S
C618 C619 1.327 . S
C619 H613 0.950 . S
C619 C618 1.327 . S
C619 C623 1.429 . S
C620 C603 1.574 1_565 S
C620 H614 0.949 . S
C620 C624 1.368 . S
C621 C602 1.429 . S
C621 C615 1.429 . S
C621 C622 1.523 . S
C622 C603 1.368 . S
C622 C616 1.368 . S
C622 C621 1.523 . S
C623 C607 1.429 . S
C623 C619 1.429 . S
C623 C624 1.523 . S
C624 C608 1.368 . S
C624 C620 1.368 . S
C624 C623 1.523 . S
H625 C600 0.950 . S
H626 C602 0.950 . S
H627 C603 0.949 . S
H628 C605 0.950 . S
H629 C607 0.950 . S
C630 C631 1.349 . S
C630 C632 1.327 . S
C630 H655 0.950 . S
C631 C630 1.349 . S
C631 C647 1.349 . S
C632 C630 1.327 . S
C632 C651 1.429 . S
C632 H656 0.950 . S
C633 C650 1.574 . S
C633 C652 1.368 . S
C633 H657 0.949 . S
H634 C638 0.949 . S
C635 C636 1.349 . S
C635 C637 1.327 . S
C635 H658 0.950 . S
C636 C635 1.349 . S
C636 C648 1.349 . S
C637 C635 1.327 . S
C637 C653 1.429 . S
C637 H659 0.950 . S
C638 H634 0.949 . S
C638 C646 1.574 . S
C638 C654 1.368 . S
H639 C647 0.950 . S
H640 C645 0.950 . S
H641 C646 0.949 . S
H642 C648 0.950 . S
H643 C649 0.950 . S
H644 C650 0.949 . S
C645 H640 0.950 . S
C645 C647 1.327 . S
C645 C651 1.429 . S
C646 C638 1.574 . S
C646 H641 0.949 . S
C646 C652 1.368 . S
C647 C631 1.349 . S
C647 H639 0.950 . S
C647 C645 1.327 . S
C648 C636 1.349 . S
C648 H642 0.950 . S
C648 C649 1.327 . S
C649 H643 0.950 . S
C649 C648 1.327 . S
C649 C653 1.429 . S
C650 C633 1.574 . S
C650 H644 0.949 . S
C650 C654 1.368 . S
C651 C632 1.429 . S
C651 C645 1.429 . S
C651 C652 1.523 . S
C652 C633 1.368 . S
C652 C646 1.368 . S
C652 C651 1.523 . S
C653 C637 1.429 . S
C653 C649 1.429 . S
C653 C654 1.523 . S
C654 C638 1.368 . S
C654 C650 1.368 . S
C654 C653 1.523 . S
H655 C630 0.950 . S
H656 C632 0.950 . S
H657 C633 0.949 . S
H658 C635 0.950 . S
H659 C637 0.950 . S
C660 C661 1.349 . S
C660 C662 1.327 . S
C660 H685 0.950 . S
C661 C660 1.349 . S
C661 C677 1.349 . S
C662 C660 1.327 . S
C662 C681 1.429 . S
C662 H686 0.950 . S
C663 C680 1.574 . S
C663 C682 1.368 . S
C663 H687 0.949 . S
H664 C668 0.949 . S
C665 C666 1.349 . S
C665 C667 1.327 . S
C665 H688 0.950 . S
C666 C665 1.349 . S
C666 C678 1.349 . S
C667 C665 1.327 . S
C667 C683 1.429 . S
C667 H689 0.950 . S
C668 H664 0.949 . S
C668 C676 1.574 . S
C668 C684 1.368 . S
H669 C677 0.950 . S
H670 C675 0.950 . S
H671 C676 0.949 . S
H672 C678 0.950 . S
H673 C679 0.950 . S
H674 C680 0.949 . S
C675 H670 0.950 . S
C675 C677 1.327 . S
C675 C681 1.429 . S
C676 C668 1.574 . S
C676 H671 0.949 . S
C676 C682 1.368 . S
C677 C661 1.349 . S
C677 H669 0.950 . S
C677 C675 1.327 . S
C678 C666 1.349 . S
C678 H672 0.950 . S
C678 C679 1.327 . S
C679 H673 0.950 . S
C679 C678 1.327 . S
C679 C683 1.429 . S
C680 C663 1.574 . S
C680 H674 0.949 . S
C680 C684 1.368 . S
C681 C662 1.429 . S
C681 C675 1.429 . S
C681 C682 1.523 . S
C682 C663 1.368 . S
C682 C676 1.368 . S
C682 C681 1.523 . S
C683 C667 1.429 . S
C683 C679 1.429 . S
C683 C684 1.523 . S
C684 C668 1.368 . S
C684 C680 1.368 . S
C684 C683 1.523 . S
H685 C660 0.950 . S
H686 C662 0.950 . S
H687 C663 0.949 . S
H688 C665 0.950 . S
H689 C667 0.950 . S
C690 C691 1.349 . S
C690 C692 1.327 . S
C690 H715 0.950 . S
C691 C690 1.349 . S
C691 C707 1.349 . S
C692 C690 1.327 . S
C692 C711 1.429 . S
C692 H716 0.950 . S
C693 C710 1.574 . S
C693 C712 1.368 . S
C693 H717 0.949 . S
H694 C698 0.949 . S
C695 C696 1.349 . S
C695 C697 1.327 . S
C695 H718 0.950 . S
C696 C695 1.349 . S
C696 C708 1.349 . S
C697 C695 1.327 . S
C697 C713 1.429 . S
C697 H719 0.950 . S
C698 H694 0.949 . S
C698 C706 1.574 . S
C698 C714 1.368 . S
H699 C707 0.950 . S
H700 C705 0.950 . S
H701 C706 0.949 . S
H702 C708 0.950 . S
H703 C709 0.950 . S
H704 C710 0.949 . S
C705 H700 0.950 . S
C705 C707 1.327 . S
C705 C711 1.429 . S
C706 C698 1.574 . S
C706 H701 0.949 . S
C706 C712 1.368 . S
C707 C691 1.349 . S
C707 H699 0.950 . S
C707 C705 1.327 . S
C708 C696 1.349 . S
C708 H702 0.950 . S
C708 C709 1.327 . S
C709 H703 0.950 . S
C709 C708 1.327 . S
C709 C713 1.429 . S
C710 C693 1.574 . S
C710 H704 0.949 . S
C710 C714 1.368 . S
C711 C692 1.429 . S
C711 C705 1.429 . S
C711 C712 1.523 . S
C712 C693 1.368 . S
C712 C706 1.368 . S
C712 C711 1.523 . S
C713 C697 1.429 . S
C713 C709 1.429 . S
C713 C714 1.523 . S
C714 C698 1.368 . S
C714 C710 1.368 . S
C714 C713 1.523 . S
H715 C690 0.950 . S
H716 C692 0.950 . S
H717 C693 0.949 . S
H718 C695 0.950 . S
H719 C697 0.950 . S
C720 C721 1.349 . S
C720 C722 1.327 . S
C720 H745 0.950 . S
C721 C720 1.349 . S
C721 C737 1.349 . S
C722 C720 1.327 . S
C722 C741 1.429 . S
C722 H746 0.950 . S
C723 C740 1.574 . S
C723 C742 1.368 . S
C723 H747 0.949 . S
H724 C728 0.949 . S
C725 C726 1.349 . S
C725 C727 1.327 . S
C725 H748 0.950 . S
C726 C725 1.349 . S
C726 C738 1.349 . S
C727 C725 1.327 . S
C727 C743 1.429 . S
C727 H749 0.950 . S
C728 H724 0.949 . S
C728 C736 1.574 . S
C728 C744 1.368 . S
H729 C737 0.950 . S
H730 C735 0.950 . S
H731 C736 0.949 . S
H732 C738 0.950 . S
H733 C739 0.950 . S
H734 C740 0.949 . S
C735 H730 0.950 . S
C735 C737 1.327 . S
C735 C741 1.429 . S
C736 C728 1.574 . S
C736 H731 0.949 . S
C736 C742 1.368 . S
C737 C721 1.349 . S
C737 H729 0.950 . S
C737 C735 1.327 . S
C738 C726 1.349 . S
C738 H732 0.950 . S
C738 C739 1.327 . S
C739 H733 0.950 . S
C739 C738 1.327 . S
C739 C743 1.429 . S
C740 C723 1.574 . S
C740 H734 0.949 . S
C740 C744 1.368 . S
C741 C722 1.429 . S
C741 C735 1.429 . S
C741 C742 1.523 . S
C742 C723 1.368 . S
C742 C736 1.368 . S
C742 C741 1.523 . S
C743 C727 1.429 . S
C743 C739 1.429 . S
C743 C744 1.523 . S
C744 C728 1.368 . S
C744 C740 1.368 . S
C744 C743 1.523 . S
H745 C720 0.950 . S
H746 C722 0.950 . S
H747 C723 0.949 . S
H748 C725 0.950 . S
H749 C727 0.950 . S
C750 C751 1.349 . S
C750 C752 1.327 . S
C750 H775 0.950 . S
C751 C750 1.349 . S
C751 C767 1.349 . S
C752 C750 1.327 . S
C752 C771 1.429 . S
C752 H776 0.950 . S
C753 C770 1.574 . S
C753 C772 1.368 . S
C753 H777 0.949 . S
H754 C758 0.949 . S
C755 C756 1.349 . S
C755 C757 1.327 . S
C755 H778 0.950 . S
C756 C755 1.349 . S
C756 C768 1.349 . S
C757 C755 1.327 . S
C757 C773 1.429 . S
C757 H779 0.950 . S
C758 H754 0.949 . S
C758 C766 1.574 . S
C758 C774 1.368 . S
H759 C767 0.950 . S
H760 C765 0.950 . S
H761 C766 0.949 . S
H762 C768 0.950 . S
H763 C769 0.950 . S
H764 C770 0.949 . S
C765 H760 0.950 . S
C765 C767 1.327 . S
C765 C771 1.429 . S
C766 C758 1.574 . S
C766 H761 0.949 . S
C766 C772 1.368 . S
C767 C751 1.349 . S
C767 H759 0.950 . S
C767 C765 1.327 . S
C768 C756 1.349 . S
C768 H762 0.950 . S
C768 C769 1.327 . S
C769 H763 0.950 . S
C769 C768 1.327 . S
C769 C773 1.429 . S
C770 C753 1.574 . S
C770 H764 0.949 . S
C770 C774 1.368 . S
C771 C752 1.429 . S
C771 C765 1.429 . S
C771 C772 1.523 . S
C772 C753 1.368 . S
C772 C766 1.368 . S
C772 C771 1.523 . S
C773 C757 1.429 . S
C773 C769 1.429 . S
C773 C774 1.523 . S
C774 C758 1.368 . S
C774 C770 1.368 . S
C774 C773 1.523 . S
H775 C750 0.950 . S
H776 C752 0.950 . S
H777 C753 0.949 . S
H778 C755 0.950 . S
H779 C757 0.950 . S
C780 C781 1.349 . S
C780 C782 1.327 . S
C780 H805 0.950 . S
C781 C780 1.349 . S
C781 C797 1.349 . S
C782 C780 1.327 . S
C782 C801 1.429 . S
C782 H806 0.950 . S
C783 C800 1.574 . S
C783 C802 1.368 . S
C783 H807 0.949 . S
H784 C788 0.949 . S
C785 C786 1.349 . S
C785 C787 1.327 . S
C785 H808 0.950 . S
C786 C785 1.349 . S
C786 C798 1.349 . S
C787 C785 1.327 . S
C787 C803 1.429 . S
C787 H809 0.950 . S
C788 H784 0.949 . S
C788 C796 1.574 . S
C788 C804 1.368 . S
H789 C797 0.950 . S
H790 C795 0.950 . S
H791 C796 0.949 . S
H792 C798 0.950 . S
H793 C799 0.950 . S
H794 C800 0.949 . S
C795 H790 0.950 . S
C795 C797 1.327 . S
C795 C801 1.429 . S
C796 C788 1.574 . S
C796 H791 0.949 . S
C796 C802 1.368 . S
C797 C781 1.349 . S
C797 H789 0.950 . S
C797 C795 1.327 . S
C798 C786 1.349 . S
C798 H792 0.950 . S
C798 C799 1.327 . S
C799 H793 0.950 . S
C799 C798 1.327 . S
C799 C803 1.429 . S
C800 C783 1.574 . S
C800 H794 0.949 . S
C800 C804 1.368 . S
C801 C782 1.429 . S
C801 C795 1.429 . S
C801 C802 1.523 . S
C802 C783 1.368 . S
C802 C796 1.368 . S
C802 C801 1.523 . S
C803 C787 1.429 . S
C803 C799 1.429 . S
C803 C804 1.523 . S
C804 C788 1.368 . S
C804 C800 1.368 . S
C804 C803 1.523 . S
H805 C780 0.950 . S
H806 C782 0.950 . S
H807 C783 0.949 . S
H808 C785 0.950 . S
H809 C787 0.950 . S
C810 C811 1.349 . S
C810 C812 1.327 . S
C810 H835 0.950 . S
C811 C810 1.349 . S
C811 C827 1.349 . S
C812 C810 1.327 . S
C812 C831 1.429 . S
C812 H836 0.950 . S
C813 C830 1.574 . S
C813 C832 1.368 . S
C813 H837 0.949 . S
H814 C818 0.949 . S
C815 C816 1.349 . S
C815 C817 1.327 . S
C815 H838 0.950 . S
C816 C815 1.349 . S
C816 C828 1.349 . S
C817 C815 1.327 . S
C817 C833 1.429 . S
C817 H839 0.950 . S
C818 H814 0.949 . S
C818 C826 1.574 . S
C818 C834 1.368 . S
H819 C827 0.950 . S
H820 C825 0.950 . S
H821 C826 0.949 . S
H822 C828 0.950 . S
H823 C829 0.950 . S
H824 C830 0.949 1_545 S
C825 H820 0.950 . S
C825 C827 1.327 . S
C825 C831 1.429 . S
C826 C818 1.574 . S
C826 H821 0.949 . S
C826 C832 1.368 . S
C827 C811 1.349 . S
C827 H819 0.950 . S
C827 C825 1.327 . S
C828 C816 1.349 . S
C828 H822 0.950 . S
C828 C829 1.327 . S
C829 H823 0.950 . S
C829 C828 1.327 . S
C829 C833 1.429 . S
C830 C813 1.574 . S
C830 H824 0.949 1_565 S
C830 C834 1.368 . S
C831 C812 1.429 . S
C831 C825 1.429 . S
C831 C832 1.523 . S
C832 C813 1.368 . S
C832 C826 1.368 . S
C832 C831 1.523 . S
C833 C817 1.429 . S
C833 C829 1.429 . S
C833 C834 1.523 1_545 S
C834 C818 1.368 . S
C834 C830 1.368 . S
C834 C833 1.523 1_565 S
H835 C810 0.950 . S
H836 C812 0.950 . S
H837 C813 0.949 . S
H838 C815 0.950 . S
H839 C817 0.950 . S
C840 C841 1.349 . S
C840 C842 1.327 . S
C840 H865 0.950 . S
C841 C840 1.349 . S
C841 C857 1.349 . S
C842 C840 1.327 . S
C842 C861 1.429 . S
C842 H866 0.950 . S
C843 C860 1.574 . S
C843 C862 1.368 . S
C843 H867 0.949 . S
H844 C848 0.949 . S
C845 C846 1.349 . S
C845 C847 1.327 . S
C845 H868 0.950 . S
C846 C845 1.349 . S
C846 C858 1.349 . S
C847 C845 1.327 . S
C847 C863 1.429 1_545 S
C847 H869 0.950 . S
C848 H844 0.949 . S
C848 C856 1.574 . S
C848 C864 1.368 . S
H849 C857 0.950 . S
H850 C855 0.950 . S
H851 C856 0.949 . S
H852 C858 0.929 1_565 S
H853 C859 0.950 . S
H854 C860 0.949 1_545 S
C855 H850 0.950 . S
C855 C857 1.327 . S
C855 C861 1.429 . S
C856 C848 1.574 . S
C856 H851 0.949 . S
C856 C862 1.368 . S
C857 C841 1.349 . S
C857 H849 0.950 . S
C857 C855 1.327 . S
C858 C846 1.349 . S
C858 H852 0.929 1_545 S
C858 C859 1.327 1_545 S
C859 H853 0.950 . S
C859 C858 1.327 1_565 S
C859 C863 1.429 . S
C860 C843 1.574 . S
C860 H854 0.949 1_565 S
C860 C864 1.368 . S
C861 C842 1.429 . S
C861 C855 1.429 . S
C861 C862 1.523 . S
C862 C843 1.368 . S
C862 C856 1.368 . S
C862 C861 1.523 . S
C863 C847 1.429 1_565 S
C863 C859 1.429 . S
C863 C864 1.523 . S
C864 C848 1.368 . S
C864 C860 1.368 . S
C864 C863 1.523 . S
H865 C840 0.950 . S
H866 C842 0.950 . S
H867 C843 0.949 . S
H868 C845 0.950 . S
H869 C847 0.950 . S
C870 C871 1.349 . S
C870 C872 1.327 . S
C870 H895 0.950 . S
C871 C870 1.349 . S
C871 C887 1.349 . S
C872 C870 1.327 . S
C872 C891 1.429 . S
C872 H896 0.950 . S
C873 C890 1.574 . S
C873 C892 1.368 . S
C873 H897 0.949 . S
H874 C878 0.949 . S
C875 C876 1.349 . S
C875 C877 1.327 . S
C875 H898 0.950 . S
C876 C875 1.349 . S
C876 C888 1.349 . S
C877 C875 1.327 . S
C877 C893 1.429 . S
C877 H899 0.950 . S
C878 H874 0.949 . S
C878 C886 1.574 . S
C878 C894 1.368 . S
H879 C887 0.950 . S
H880 C885 0.950 . S
H881 C886 0.949 . S
H882 C888 0.950 . S
H883 C889 0.950 . S
H884 C890 0.949 . S
C885 H880 0.950 . S
C885 C887 1.327 . S
C885 C891 1.429 . S
C886 C878 1.574 . S
C886 H881 0.949 . S
C886 C892 1.368 . S
C887 C871 1.349 . S
C887 H879 0.950 . S
C887 C885 1.327 . S
C888 C876 1.349 . S
C888 H882 0.950 . S
C888 C889 1.327 . S
C889 H883 0.950 . S
C889 C888 1.327 . S
C889 C893 1.429 . S
C890 C873 1.574 . S
C890 H884 0.949 . S
C890 C894 1.368 . S
C891 C872 1.429 . S
C891 C885 1.429 . S
C891 C892 1.523 . S
C892 C873 1.368 . S
C892 C886 1.368 . S
C892 C891 1.523 . S
C893 C877 1.429 . S
C893 C889 1.429 . S
C893 C894 1.523 . S
C894 C878 1.368 . S
C894 C890 1.368 . S
C894 C893 1.523 . S
H895 C870 0.950 . S
H896 C872 0.950 . S
H897 C873 0.949 . S
H898 C875 0.950 . S
H899 C877 0.950 . S
C900 C901 1.349 . S
C900 C902 1.327 . S
C900 H925 0.950 . S
C901 C900 1.349 . S
C901 C917 1.349 . S
C902 C900 1.327 . S
C902 C921 1.429 . S
C902 H926 0.950 . S
C903 C920 1.574 . S
C903 C922 1.368 . S
C903 H927 0.949 . S
H904 C908 0.949 . S
C905 C906 1.349 . S
C905 C907 1.327 . S
C905 H928 0.950 . S
C906 C905 1.349 . S
C906 C918 1.349 . S
C907 C905 1.327 . S
C907 C923 1.429 . S
C907 H929 0.950 . S
C908 H904 0.949 . S
C908 C916 1.574 . S
C908 C924 1.368 . S
H909 C917 0.950 . S
H910 C915 0.950 . S
H911 C916 0.949 . S
H912 C918 0.950 1_655 S
H913 C919 0.950 . S
H914 C920 0.949 . S
C915 H910 0.950 . S
C915 C917 1.327 . S
C915 C921 1.429 . S
C916 C908 1.574 . S
C916 H911 0.949 . S
C916 C922 1.368 . S
C917 C901 1.349 . S
C917 H909 0.950 . S
C917 C915 1.327 . S
C918 C906 1.349 . S
C918 H912 0.950 1_455 S
C918 C919 1.327 . S
C919 H913 0.950 . S
C919 C918 1.327 . S
C919 C923 1.429 . S
C920 C903 1.574 . S
C920 H914 0.949 . S
C920 C924 1.368 . S
C921 C902 1.429 . S
C921 C915 1.429 . S
C921 C922 1.523 . S
C922 C903 1.368 . S
C922 C916 1.368 . S
C922 C921 1.523 . S
C923 C907 1.429 . S
C923 C919 1.429 . S
C923 C924 1.523 . S
C924 C908 1.368 . S
C924 C920 1.368 . S
C924 C923 1.523 . S
H925 C900 0.950 . S
H926 C902 0.950 . S
H927 C903 0.949 . S
H928 C905 0.950 . S
H929 C907 0.950 . S
C930 C931 1.349 . S
C930 C932 1.327 . S
C930 H955 0.950 . S
C931 C930 1.349 . S
C931 C947 1.349 . S
C932 C930 1.327 . S
C932 C951 1.429 . S
C932 H956 0.950 . S
C933 C950 1.574 . S
C933 C952 1.368 . S
C933 H957 0.949 . S
H934 C938 0.949 . S
C935 C936 1.349 . S
C935 C937 1.327 . S
C935 H958 0.950 . S
C936 C935 1.349 . S
C936 C948 1.349 . S
C937 C935 1.327 . S
C937 C953 1.429 . S
C937 H959 0.950 . S
C938 H934 0.949 . S
C938 C946 1.574 . S
C938 C954 1.368 . S
H939 C947 0.950 . S
H940 C945 0.950 . S
H941 C946 0.949 . S
H942 C948 0.950 . S
H943 C949 0.950 . S
H944 C950 0.949 . S
C945 H940 0.950 . S
C945 C947 1.327 . S
C945 C951 1.429 . S
C946 C938 1.574 . S
C946 H941 0.949 . S
C946 C952 1.368 . S
C947 C931 1.349 . S
C947 H939 0.950 . S
C947 C945 1.327 . S
C948 C936 1.349 . S
C948 H942 0.950 . S
C948 C949 1.327 . S
C949 H943 0.950 . S
C949 C948 1.327 . S
C949 C953 1.429 . S
C950 C933 1.574 . S
C950 H944 0.949 . S
C950 C954 1.368 . S
C951 C932 1.429 . S
C951 C945 1.429 . S
C951 C952 1.523 . S
C952 C933 1.368 . S
C952 C946 1.368 . S
C952 C951 1.523 . S
C953 C937 1.429 . S
C953 C949 1.429 . S
C953 C954 1.523 . S
C954 C938 1.368 . S
C954 C950 1.368 . S
C954 C953 1.523 . S
H955 C930 0.950 . S
H956 C932 0.950 . S
H957 C933 0.949 . S
H958 C935 0.950 . S
H959 C937 0.950 . S
C960 C961 1.351 . S
C960 C962 1.327 . S
C960 H985 0.947 1_565 S
C961 C960 1.351 . S
C961 C977 1.349 . S
C962 C960 1.327 . S
C962 C981 1.429 . S
C962 H986 0.950 1_565 S
C963 C980 1.574 . S
C963 C982 1.368 . S
C963 H987 0.949 . S
H964 C968 0.949 . S
C965 C966 1.349 . S
C965 C967 1.327 . S
C965 H988 0.950 . S
C966 C965 1.349 . S
C966 C978 1.349 . S
C967 C965 1.327 . S
C967 C983 1.429 . S
C967 H989 0.950 . S
C968 H964 0.949 . S
C968 C976 1.574 . S
C968 C984 1.368 . S
H969 C977 0.950 . S
H970 C975 0.950 . S
H971 C976 0.949 . S
H972 C978 0.950 . S
H973 C979 0.950 . S
H974 C980 0.949 . S
C975 H970 0.950 . S
C975 C977 1.327 . S
C975 C981 1.429 . S
C976 C968 1.574 . S
C976 H971 0.949 . S
C976 C982 1.368 . S
C977 C961 1.349 . S
C977 H969 0.950 . S
C977 C975 1.327 . S
C978 C966 1.349 . S
C978 H972 0.950 . S
C978 C979 1.327 . S
C979 H973 0.950 . S
C979 C978 1.327 . S
C979 C983 1.429 . S
C980 C963 1.574 . S
C980 H974 0.949 . S
C980 C984 1.368 . S
C981 C962 1.429 . S
C981 C975 1.429 . S
C981 C982 1.523 . S
C982 C963 1.368 . S
C982 C976 1.368 . S
C982 C981 1.523 . S
C983 C967 1.429 . S
C983 C979 1.429 . S
C983 C984 1.523 . S
C984 C968 1.368 . S
C984 C980 1.368 . S
C984 C983 1.523 . S
H985 C960 0.947 1_545 S
H986 C962 0.950 1_545 S
H987 C963 0.949 . S
H988 C965 0.950 . S
H989 C967 0.950 . S
C990 C991 1.352 . S
C990 C992 1.337 . S
C990 H1015 0.937 1_545 S
C991 C990 1.352 . S
C991 C1007 1.349 . S
C992 C990 1.337 . S
C992 C1011 1.429 . S
C992 H1016 0.950 1_545 S
C993 C1010 1.574 . S
C993 C1012 1.368 . S
C993 H1017 0.949 . S
H994 C998 0.949 . S
C995 C996 1.349 . S
C995 C997 1.327 . S
C995 H1018 0.950 . S
C996 C995 1.349 . S
C996 C1008 1.349 . S
C997 C995 1.327 . S
C997 C1013 1.429 . S
C997 H1019 0.950 . S
C998 H994 0.949 . S
C998 C1006 1.574 . S
C998 C1014 1.368 . S
H999 C1007 0.950 . S
H1000 C1005 0.950 . S
H1001 C1006 0.949 . S
H1002 C1008 0.950 . S
H1003 C1009 0.950 . S
H1004 C1010 0.949 . S
C1005 H1000 0.950 . S
C1005 C1007 1.327 . S
C1005 C1011 1.429 . S
C1006 C998 1.574 . S
C1006 H1001 0.949 . S
C1006 C1012 1.368 . S
C1007 C991 1.349 . S
C1007 H999 0.950 . S
C1007 C1005 1.327 . S
C1008 C996 1.349 . S
C1008 H1002 0.950 . S
C1008 C1009 1.327 . S
C1009 H1003 0.950 . S
C1009 C1008 1.327 . S
C1009 C1013 1.429 . S
C1010 C993 1.574 . S
C1010 H1004 0.949 . S
C1010 C1014 1.368 . S
C1011 C992 1.429 . S
C1011 C1005 1.429 . S
C1011 C1012 1.523 . S
C1012 C993 1.368 . S
C1012 C1006 1.368 . S
C1012 C1011 1.523 . S
C1013 C997 1.429 . S
C1013 C1009 1.429 . S
C1013 C1014 1.523 . S
C1014 C998 1.368 . S
C1014 C1010 1.368 . S
C1014 C1013 1.523 . S
H1015 C990 0.937 1_565 S
H1016 C992 0.950 1_565 S
H1017 C993 0.949 . S
H1018 C995 0.950 . S
H1019 C997 0.950 . S
C1020 C1021 1.349 . S
C1020 C1022 1.327 . S
C1020 H1045 0.950 . S
C1021 C1020 1.349 . S
C1021 C1037 1.349 . S
C1022 C1020 1.327 . S
C1022 C1041 1.429 . S
C1022 H1046 0.950 . S
C1023 C1040 1.574 . S
C1023 C1042 1.368 . S
C1023 H1047 0.949 . S
H1024 C1028 0.949 . S
C1025 C1026 1.349 . S
C1025 C1027 1.327 . S
C1025 H1048 0.950 . S
C1026 C1025 1.349 . S
C1026 C1038 1.349 . S
C1027 C1025 1.327 . S
C1027 C1043 1.429 . S
C1027 H1049 0.950 . S
C1028 H1024 0.949 . S
C1028 C1036 1.574 . S
C1028 C1044 1.368 . S
H1029 C1037 0.950 . S
H1030 C1035 0.950 . S
H1031 C1036 0.949 . S
H1032 C1038 0.950 . S
H1033 C1039 0.950 . S
H1034 C1040 0.949 . S
C1035 H1030 0.950 . S
C1035 C1037 1.327 . S
C1035 C1041 1.429 . S
C1036 C1028 1.574 . S
C1036 H1031 0.949 . S
C1036 C1042 1.368 . S
C1037 C1021 1.349 . S
C1037 H1029 0.950 . S
C1037 C1035 1.327 . S
C1038 C1026 1.349 . S
C1038 H1032 0.950 . S
C1038 C1039 1.327 . S
C1039 H1033 0.950 . S
C1039 C1038 1.327 . S
C1039 C1043 1.429 . S
C1040 C1023 1.574 . S
C1040 H1034 0.949 . S
C1040 C1044 1.368 . S
C1041 C1022 1.429 . S
C1041 C1035 1.429 . S
C1041 C1042 1.523 . S
C1042 C1023 1.368 . S
C1042 C1036 1.368 . S
C1042 C1041 1.523 . S
C1043 C1027 1.429 . S
C1043 C1039 1.429 . S
C1043 C1044 1.523 . S
C1044 C1028 1.368 . S
C1044 C1040 1.368 . S
C1044 C1043 1.523 . S
H1045 C1020 0.950 . S
H1046 C1022 0.950 . S
H1047 C1023 0.949 . S
H1048 C1025 0.950 . S
H1049 C1027 0.950 . S
C1050 C1051 1.349 . S
C1050 C1052 1.327 . S
C1050 H1075 0.950 . S
C1051 C1050 1.349 . S
C1051 C1067 1.349 . S
C1052 C1050 1.327 . S
C1052 C1071 1.429 . S
C1052 H1076 0.950 . S
C1053 C1070 1.574 . S
C1053 C1072 1.368 . S
C1053 H1077 0.949 . S
H1054 C1058 0.949 . S
C1055 C1056 1.349 . S
C1055 C1057 1.327 . S
C1055 H1078 0.950 . S
C1056 C1055 1.349 . S
C1056 C1068 1.349 . S
C1057 C1055 1.327 . S
C1057 C1073 1.429 . S
C1057 H1079 0.950 . S
C1058 H1054 0.949 . S
C1058 C1066 1.574 . S
C1058 C1074 1.368 . S
H1059 C1067 0.950 . S
H1060 C1065 0.950 . S
H1061 C1066 0.949 . S
H1062 C1068 0.950 . S
H1063 C1069 0.950 . S
H1064 C1070 0.949 . S
C1065 H1060 0.950 . S
C1065 C1067 1.327 . S
C1065 C1071 1.429 . S
C1066 C1058 1.574 . S
C1066 H1061 0.949 . S
C1066 C1072 1.368 . S
C1067 C1051 1.349 . S
C1067 H1059 0.950 . S
C1067 C1065 1.327 . S
C1068 C1056 1.349 . S
C1068 H1062 0.950 . S
C1068 C1069 1.327 . S
C1069 H1063 0.950 . S
C1069 C1068 1.327 . S
C1069 C1073 1.429 . S
C1070 C1053 1.574 . S
C1070 H1064 0.949 . S
C1070 C1074 1.368 . S
C1071 C1052 1.429 . S
C1071 C1065 1.429 . S
C1071 C1072 1.523 . S
C1072 C1053 1.368 . S
C1072 C1066 1.368 . S
C1072 C1071 1.523 . S
C1073 C1057 1.429 . S
C1073 C1069 1.429 . S
C1073 C1074 1.523 . S
C1074 C1058 1.368 . S
C1074 C1070 1.368 . S
C1074 C1073 1.523 . S
H1075 C1050 0.950 . S
H1076 C1052 0.950 . S
H1077 C1053 0.949 . S
H1078 C1055 0.950 . S
H1079 C1057 0.950 . S
C1080 C1081 1.349 . S
C1080 C1082 1.327 . S
C1080 H1105 0.950 . S
C1081 C1080 1.349 . S
C1081 C1097 1.349 . S
C1082 C1080 1.327 . S
C1082 C1101 1.429 . S
C1082 H1106 0.950 . S
C1083 C1100 1.574 . S
C1083 C1102 1.368 . S
C1083 H1107 0.949 . S
H1084 C1088 0.949 . S
C1085 C1086 1.349 . S
C1085 C1087 1.327 . S
C1085 H1108 0.950 . S
C1086 C1085 1.349 . S
C1086 C1098 1.349 . S
C1087 C1085 1.327 . S
C1087 C1103 1.429 . S
C1087 H1109 0.950 . S
C1088 H1084 0.949 . S
C1088 C1096 1.574 . S
C1088 C1104 1.368 . S
H1089 C1097 0.950 . S
H1090 C1095 0.950 . S
H1091 C1096 0.949 . S
H1092 C1098 0.950 . S
H1093 C1099 0.950 . S
H1094 C1100 0.949 . S
C1095 H1090 0.950 . S
C1095 C1097 1.327 . S
C1095 C1101 1.429 . S
C1096 C1088 1.574 . S
C1096 H1091 0.949 . S
C1096 C1102 1.368 . S
C1097 C1081 1.349 . S
C1097 H1089 0.950 . S
C1097 C1095 1.327 . S
C1098 C1086 1.349 . S
C1098 H1092 0.950 . S
C1098 C1099 1.327 . S
C1099 H1093 0.950 . S
C1099 C1098 1.327 . S
C1099 C1103 1.429 . S
C1100 C1083 1.574 . S
C1100 H1094 0.949 . S
C1100 C1104 1.368 . S
C1101 C1082 1.429 . S
C1101 C1095 1.429 . S
C1101 C1102 1.523 . S
C1102 C1083 1.368 . S
C1102 C1096 1.368 . S
C1102 C1101 1.523 . S
C1103 C1087 1.429 . S
C1103 C1099 1.429 . S
C1103 C1104 1.523 . S
C1104 C1088 1.368 . S
C1104 C1100 1.368 . S
C1104 C1103 1.523 . S
H1105 C1080 0.950 . S
H1106 C1082 0.950 . S
H1107 C1083 0.949 . S
H1108 C1085 0.950 . S
H1109 C1087 0.950 . S
C1110 C1111 1.349 . S
C1110 C1112 1.327 . S
C1110 H1135 0.950 . S
C1111 C1110 1.349 . S
C1111 C1127 1.349 . S
C1112 C1110 1.327 . S
C1112 C1131 1.429 . S
C1112 H1136 0.950 . S
C1113 C1130 1.574 1_565 S
C1113 C1132 1.368 . S
C1113 H1137 0.949 . S
H1114 C1118 0.949 . S
C1115 C1116 1.349 . S
C1115 C1117 1.327 . S
C1115 H1138 0.950 . S
C1116 C1115 1.349 . S
C1116 C1128 1.349 . S
C1117 C1115 1.327 . S
C1117 C1133 1.429 . S
C1117 H1139 0.950 . S
C1118 H1114 0.949 . S
C1118 C1126 1.574 . S
C1118 C1134 1.368 . S
H1119 C1127 0.950 . S
H1120 C1125 0.950 . S
H1121 C1126 0.949 . S
H1122 C1128 0.950 . S
H1123 C1129 0.950 . S
H1124 C1130 0.949 . S
C1125 H1120 0.950 . S
C1125 C1127 1.327 . S
C1125 C1131 1.429 . S
C1126 C1118 1.574 . S
C1126 H1121 0.949 . S
C1126 C1132 1.368 1_545 S
C1127 C1111 1.349 . S
C1127 H1119 0.950 . S
C1127 C1125 1.327 . S
C1128 C1116 1.349 . S
C1128 H1122 0.950 . S
C1128 C1129 1.327 . S
C1129 H1123 0.950 . S
C1129 C1128 1.327 . S
C1129 C1133 1.429 . S
C1130 C1113 1.574 1_545 S
C1130 H1124 0.949 . S
C1130 C1134 1.368 . S
C1131 C1112 1.429 . S
C1131 C1125 1.429 . S
C1131 C1132 1.523 . S
C1132 C1113 1.368 . S
C1132 C1126 1.368 1_565 S
C1132 C1131 1.523 . S
C1133 C1117 1.429 . S
C1133 C1129 1.429 . S
C1133 C1134 1.523 . S
C1134 C1118 1.368 . S
C1134 C1130 1.368 . S
C1134 C1133 1.523 . S
H1135 C1110 0.950 . S
H1136 C1112 0.950 . S
H1137 C1113 0.949 . S
H1138 C1115 0.950 . S
H1139 C1117 0.950 . S
C1140 C1141 1.349 . S
C1140 C1142 1.327 . S
C1140 H1165 0.950 . S
C1141 C1140 1.349 . S
C1141 C1157 1.349 . S
C1142 C1140 1.327 . S
C1142 C1161 1.429 . S
C1142 H1166 0.950 . S
C1143 C1160 1.574 1_655 S
C1143 C1162 1.368 . S
C1143 H1167 0.949 . S
H1144 C1148 0.949 . S
C1145 C1146 1.349 . S
C1145 C1147 1.327 . S
C1145 H1168 0.950 . S
C1146 C1145 1.349 . S
C1146 C1158 1.349 . S
C1147 C1145 1.327 . S
C1147 C1163 1.429 . S
C1147 H1169 0.950 . S
C1148 H1144 0.949 . S
C1148 C1156 1.574 . S
C1148 C1164 1.368 . S
H1149 C1157 0.950 . S
H1150 C1155 0.950 . S
H1151 C1156 0.949 . S
H1152 C1158 0.950 . S
H1153 C1159 0.950 . S
H1154 C1160 0.949 1_655 S
C1155 H1150 0.950 . S
C1155 C1157 1.327 . S
C1155 C1161 1.429 . S
C1156 C1148 1.574 . S
C1156 H1151 0.949 . S
C1156 C1162 1.368 1_455 S
C1157 C1141 1.349 . S
C1157 H1149 0.950 . S
C1157 C1155 1.327 . S
C1158 C1146 1.349 . S
C1158 H1152 0.950 . S
C1158 C1159 1.327 . S
C1159 H1153 0.950 . S
C1159 C1158 1.327 . S
C1159 C1163 1.429 . S
C1160 C1143 1.574 1_455 S
C1160 H1154 0.949 1_455 S
C1160 C1164 1.368 . S
C1161 C1142 1.429 . S
C1161 C1155 1.429 . S
C1161 C1162 1.523 . S
C1162 C1143 1.368 . S
C1162 C1156 1.368 1_655 S
C1162 C1161 1.523 . S
C1163 C1147 1.429 . S
C1163 C1159 1.429 . S
C1163 C1164 1.523 . S
C1164 C1148 1.368 . S
C1164 C1160 1.368 . S
C1164 C1163 1.523 . S
H1165 C1140 0.950 . S
H1166 C1142 0.950 . S
H1167 C1143 0.949 . S
H1168 C1145 0.950 . S
H1169 C1147 0.950 . S
C361 C48 0.533 . S
C366 C29 0.369 . S
C391 C92 3.230 1_556 S
C396 C71 3.276 . S
C421 C109 1.017 . S
C426 C12 1.011 . S
C451 C111 3.045 . S
C456 C52 3.021 . S
C481 C88 1.981 . S
C486 C31 2.073 . S
C511 C8 0.579 . S
C516 C69 0.324 . S
C541 C149 2.830 . S
C546 C172 2.791 . S
C571 C212 0.653 . S
C576 C189 0.629 . S
C601 C229 0.880 . S
C606 C132 0.876 . S
C631 C168 0.491 . S
C636 C231 0.328 . S
C661 C208 2.050 . S
C666 C151 2.139 . S
C691 C191 2.408 . S
C696 C128 2.376 . S
C721 C288 0.526 . S
C726 C269 0.317 . S
C751 C311 3.302 . S
C756 C332 3.257 . S
C781 C349 1.019 . S
C786 C252 1.012 . S
C811 C351 2.967 . S
C816 C292 2.944 . S
C841 C328 1.987 1_455 S
C846 C271 2.079 . S
C871 C248 0.552 . S
C876 C309 0.300 . S
C901 C202 2.271 . S
C906 C17 2.555 . S
C931 C122 1.979 . S
C936 C42 1.951 . S
C961 C97 2.975 . S
C966 C162 2.712 . S
C991 C82 2.284 . S
C996 C257 2.560 . S
C1021 C2 1.872 . S
C1026 C282 1.847 . S
C1051 C337 2.960 . S
C1056 C57 2.964 . S
C1081 C137 2.620 . S
C1086 C322 2.332 . S
C1111 C177 2.070 . S
C1116 C242 1.882 . S
C1141 C297 2.859 . S
C1146 C217 2.854 . S
