# Generated by pormake.
# Topology wjm, (5)-cn, num edge types: 1
# Building blocks:
#     Node 0, Type 0, BuildingBlock: BEQFEK_clean_sbu_0, # of connection points: 5
#     Node 1, Type 0, BuildingBlock: BEQFEK_clean_sbu_0, # of connection points: 5
#     Node 2, Type 0, BuildingBlock: BEQFEK_clean_sbu_0, # of connection points: 5
#     Node 3, Type 0, BuildingBlock: BEQFEK_clean_sbu_0, # of connection points: 5
#     Node 4, Type 0, BuildingBlock: BEQFEK_clean_sbu_0, # of connection points: 5
#     Node 5, Type 0, BuildingBlock: BEQFEK_clean_sbu_0, # of connection points: 5
#     Node 6, Type 0, BuildingBlock: BEQFEK_clean_sbu_0, # of connection points: 5
#     Node 7, Type 0, BuildingBlock: BEQFEK_clean_sbu_0, # of connection points: 5
#     Node 8, Type 0, BuildingBlock: BEQFEK_clean_sbu_0, # of connection points: 5
#     Node 9, Type 0, BuildingBlock: BEQFEK_clean_sbu_0, # of connection points: 5
#     Node 10, Type 0, BuildingBlock: BEQFEK_clean_sbu_0, # of connection points: 5
#     Node 11, Type 0, BuildingBlock: BEQFEK_clean_sbu_0, # of connection points: 5
#     Edge 12, Type (0, 0), BuildingBlock: AJUNOK_clean_linker_0, # of connection points: 2
#     Edge 13, Type (0, 0), BuildingBlock: AJUNOK_clean_linker_0, # of connection points: 2
#     Edge 14, Type (0, 0), BuildingBlock: AJUNOK_clean_linker_0, # of connection points: 2
#     Edge 15, Type (0, 0), BuildingBlock: AJUNOK_clean_linker_0, # of connection points: 2
#     Edge 16, Type (0, 0), BuildingBlock: AJUNOK_clean_linker_0, # of connection points: 2
#     Edge 17, Type (0, 0), BuildingBlock: AJUNOK_clean_linker_0, # of connection points: 2
#     Edge 18, Type (0, 0), BuildingBlock: AJUNOK_clean_linker_0, # of connection points: 2
#     Edge 19, Type (0, 0), BuildingBlock: AJUNOK_clean_linker_0, # of connection points: 2
#     Edge 20, Type (0, 0), BuildingBlock: AJUNOK_clean_linker_0, # of connection points: 2
#     Edge 21, Type (0, 0), BuildingBlock: AJUNOK_clean_linker_0, # of connection points: 2
#     Edge 22, Type (0, 0), BuildingBlock: AJUNOK_clean_linker_0, # of connection points: 2
#     Edge 23, Type (0, 0), BuildingBlock: AJUNOK_clean_linker_0, # of connection points: 2
#     Edge 24, Type (0, 0), BuildingBlock: AJUNOK_clean_linker_0, # of connection points: 2
#     Edge 25, Type (0, 0), BuildingBlock: AJUNOK_clean_linker_0, # of connection points: 2
#     Edge 26, Type (0, 0), BuildingBlock: AJUNOK_clean_linker_0, # of connection points: 2
#     Edge 27, Type (0, 0), BuildingBlock: AJUNOK_clean_linker_0, # of connection points: 2
#     Edge 28, Type (0, 0), BuildingBlock: AJUNOK_clean_linker_0, # of connection points: 2
#     Edge 29, Type (0, 0), BuildingBlock: AJUNOK_clean_linker_0, # of connection points: 2
#     Edge 30, Type (0, 0), BuildingBlock: AJUNOK_clean_linker_0, # of connection points: 2
#     Edge 31, Type (0, 0), BuildingBlock: AJUNOK_clean_linker_0, # of connection points: 2
#     Edge 32, Type (0, 0), BuildingBlock: AJUNOK_clean_linker_0, # of connection points: 2
#     Edge 33, Type (0, 0), BuildingBlock: AJUNOK_clean_linker_0, # of connection points: 2
#     Edge 34, Type (0, 0), BuildingBlock: AJUNOK_clean_linker_0, # of connection points: 2
#     Edge 35, Type (0, 0), BuildingBlock: AJUNOK_clean_linker_0, # of connection points: 2
#     Edge 36, Type (0, 0), BuildingBlock: AJUNOK_clean_linker_0, # of connection points: 2
#     Edge 37, Type (0, 0), BuildingBlock: AJUNOK_clean_linker_0, # of connection points: 2
#     Edge 38, Type (0, 0), BuildingBlock: AJUNOK_clean_linker_0, # of connection points: 2
#     Edge 39, Type (0, 0), BuildingBlock: AJUNOK_clean_linker_0, # of connection points: 2
#     Edge 40, Type (0, 0), BuildingBlock: AJUNOK_clean_linker_0, # of connection points: 2
#     Edge 41, Type (0, 0), BuildingBlock: AJUNOK_clean_linker_0, # of connection points: 2
# Relax obj value: 0.719
# Max RMSD: 0.248
# Mean RMSD: 0.248
data_MOF--net-wjm--node1-BEQFEK_clean_sbu_0--edge1-AJUNOK_clean_linker_0
_symmetry_space_group_name_H-M    P1
_symmetry_Int_Tables_number       1
_symmetry_cell_setting            triclinic
loop_
_symmetry_equiv_pos_as_xyz
'x, y, z'
_cell_length_a     26.006244
_cell_length_b     26.110034
_cell_length_c     33.682417
_cell_angle_alpha  89.735296
_cell_angle_beta   90.23311
_cell_angle_gamma 120.1096
loop_
_atom_site_label
_atom_site_type_symbol
_atom_site_fract_x
_atom_site_fract_y
_atom_site_fract_z
_atom_type_partial_charge
Co0 Co 0.28468 0.44647 0.30855 0.0
Co1 Co 0.25051 0.37042 0.22916 0.0
C2 C 0.23236 0.31073 0.30549 0.0
O3 O 0.25471 0.36278 0.31912 0.0
O4 O 0.22406 0.30149 0.26809 0.0
C5 C 0.29421 0.5165 0.38412 0.0
O6 O 0.26717 0.51525 0.41723 0.0
C7 C 0.19934 0.31119 0.14836 0.0
C8 C 0.2754 0.37339 0.11156 0.0
C9 C 0.21901 0.32444 0.10889 0.0
N10 N 0.24247 0.351 0.17265 0.0
N11 N 0.28772 0.38736 0.15002 0.0
C12 C 0.14184 0.26053 0.16272 0.0
H13 H 0.14503 0.25212 0.19472 0.0
H14 H 0.10576 0.27095 0.15879 0.0
H15 H 0.13006 0.22026 0.1451 0.0
C16 C 0.23208 0.50359 0.26414 0.0
N17 N 0.24005 0.4572 0.26941 0.0
N18 N 0.21659 0.42032 0.23966 0.0
C19 C 0.18752 0.43981 0.21621 0.0
C20 C 0.19713 0.49452 0.23059 0.0
C21 C 0.26853 0.56017 0.2861 0.0
H22 H 0.30963 0.56207 0.29703 0.0
H23 H 0.24251 0.56142 0.31167 0.0
H24 H 0.28157 0.59936 0.26686 0.0
O25 O 0.36636 0.48041 0.28936 0.0
O26 O 0.34052 0.4214 0.2363 0.0
H27 H 0.17331 0.40813 0.15645 0.0
H28 H 0.11305 0.41606 0.17703 0.0
C29 C 0.14699 0.40326 0.18348 0.0
H30 H 0.12403 0.35609 0.19251 0.0
H31 H 0.32678 0.42335 0.16071 0.0
O32 O 0.27056 0.47158 0.36155 0.0
C33 C 0.38 0.4622 0.25824 0.0
Co34 Co 0.84526 0.26912 0.64212 0.0
Co35 Co 0.89959 0.26453 0.55961 0.0
C36 C 0.9261 0.22016 0.63723 0.0
O37 O 0.89044 0.23192 0.65486 0.0
O38 O 0.93587 0.23021 0.59982 0.0
C39 C 0.78232 0.28707 0.71219 0.0
O40 O 0.75525 0.26373 0.7459 0.0
C41 C 0.90318 0.21062 0.48091 0.0
C42 C 0.941 0.29072 0.44347 0.0
C43 C 0.91661 0.22984 0.4413 0.0
N44 N 0.91795 0.25793 0.50444 0.0
N45 N 0.94154 0.30559 0.48165 0.0
C46 C 0.87723 0.14887 0.49659 0.0
H47 H 0.89025 0.14981 0.52812 0.0
H48 H 0.82804 0.12619 0.49525 0.0
H49 H 0.89245 0.12343 0.47865 0.0
C50 C 0.73244 0.20495 0.59705 0.0
N51 N 0.79185 0.22783 0.59983 0.0
N52 N 0.81412 0.2319 0.56421 0.0
C53 C 0.76967 0.21641 0.53742 0.0
C54 C 0.71636 0.19891 0.5574 0.0
C55 C 0.69202 0.19412 0.63156 0.0
H56 H 0.70975 0.18446 0.65869 0.0
H57 H 0.64721 0.15585 0.62568 0.0
H58 H 0.68687 0.23327 0.63645 0.0
O59 O 0.90595 0.35543 0.63062 0.0
O60 O 0.94022 0.35184 0.57098 0.0
H61 H 0.81749 0.26711 0.48648 0.0
H62 H 0.73868 0.21776 0.47779 0.0
C63 C 0.77866 0.22313 0.49347 0.0
H64 H 0.78761 0.18857 0.48241 0.0
H65 H 0.95541 0.34823 0.49189 0.0
O66 O 0.80085 0.25865 0.69198 0.0
C67 C 0.93982 0.38136 0.60096 0.0
Co68 Co 0.57464 0.83206 0.96917 0.0
Co69 Co 0.6308 0.88582 0.88601 0.0
C70 C 0.69972 0.9212 0.96737 0.0
O71 O 0.65644 0.8791 0.98545 0.0
O72 O 0.69635 0.92892 0.92983 0.0
C73 C 0.48627 0.74882 0.03604 0.0
O74 O 0.49288 0.72964 0.07075 0.0
C75 C 0.6771 0.86684 0.8091 0.0
C76 C 0.67415 0.93406 0.77085 0.0
C77 C 0.68352 0.88632 0.76966 0.0
N78 N 0.66293 0.90046 0.83193 0.0
N79 N 0.6624 0.94118 0.80874 0.0
C80 C 0.68633 0.81851 0.82522 0.0
H81 H 0.706 0.83041 0.85542 0.0
H82 H 0.64312 0.77694 0.8279 0.0
H83 H 0.71563 0.81061 0.80538 0.0
C84 C 0.52654 0.72098 0.92679 0.0
N85 N 0.5655 0.77957 0.92828 0.0
N86 N 0.57695 0.80145 0.89216 0.0
C87 C 0.54 0.75791 0.86699 0.0
C88 C 0.50764 0.70526 0.88812 0.0
C89 C 0.50721 0.67991 0.96165 0.0
H90 H 0.54117 0.69818 0.98553 0.0
H91 H 0.50025 0.63608 0.95246 0.0
H92 H 0.46424 0.6727 0.97294 0.0
O93 O 0.54905 0.89145 0.95271 0.0
O94 O 0.58169 0.92342 0.89155 0.0
H95 H 0.47808 0.75694 0.82484 0.0
H96 H 0.53007 0.73833 0.8051 0.0
C97 C 0.52534 0.76838 0.82593 0.0
H98 H 0.55361 0.81511 0.81676 0.0
H99 H 0.6509 0.97203 0.81837 0.0
O100 O 0.5334 0.78385 1.01707 0.0
C101 C 0.55279 0.92275 0.92223 0.0
Co102 Co 0.72791 0.56866 0.30359 0.0
Co103 Co 0.76422 0.6428 0.22415 0.0
C104 C 0.78968 0.70237 0.30361 0.0
O105 O 0.76678 0.65109 0.31881 0.0
O106 O 0.79309 0.70933 0.26576 0.0
C107 C 0.72361 0.49854 0.38342 0.0
O108 O 0.77176 0.51805 0.40521 0.0
C109 C 0.8251 0.69844 0.14408 0.0
C110 C 0.74459 0.66265 0.10718 0.0
C111 C 0.80585 0.69406 0.10477 0.0
N112 N 0.77731 0.6701 0.16835 0.0
N113 N 0.72954 0.65073 0.14563 0.0
C114 C 0.8883 0.73121 0.15764 0.0
H115 H 0.89126 0.72773 0.19033 0.0
H116 H 0.9143 0.71439 0.14195 0.0
H117 H 0.90805 0.77857 0.14932 0.0
C118 C 0.77651 0.50573 0.26462 0.0
N119 N 0.76868 0.55263 0.26561 0.0
N120 N 0.79309 0.5869 0.2346 0.0
C121 C 0.82321 0.56491 0.21477 0.0
C122 C 0.81375 0.51239 0.23322 0.0
C123 C 0.73793 0.45055 0.28803 0.0
H124 H 0.69467 0.44743 0.29467 0.0
H125 H 0.75999 0.45241 0.31661 0.0
H126 H 0.72919 0.41021 0.27163 0.0
O127 O 0.64925 0.54332 0.28414 0.0
O128 O 0.67236 0.59648 0.22855 0.0
H129 H 0.83776 0.59807 0.15557 0.0
H130 H 0.88953 0.57463 0.17174 0.0
C131 C 0.86382 0.59589 0.18086 0.0
H132 H 0.89637 0.64125 0.19049 0.0
H133 H 0.68604 0.6259 0.15597 0.0
O134 O 0.72519 0.52604 0.352 0.0
C135 C 0.63369 0.55906 0.25274 0.0
Co136 Co 0.18878 0.75509 0.63816 0.0
Co137 Co 0.12751 0.75398 0.55702 0.0
C138 C 0.09687 0.79219 0.63368 0.0
O139 O 0.13516 0.78293 0.65004 0.0
O140 O 0.08748 0.78432 0.59623 0.0
C141 C 0.247 0.74993 0.71263 0.0
O142 O 0.27557 0.77596 0.74539 0.0
C143 C 0.1206 0.80681 0.47944 0.0
C144 C 0.08796 0.72897 0.44047 0.0
C145 C 0.11099 0.78979 0.43933 0.0
N146 N 0.10642 0.75873 0.50215 0.0
N147 N 0.08541 0.71225 0.47857 0.0
C148 C 0.14103 0.86665 0.49676 0.0
H149 H 0.11724 0.86183 0.52504 0.0
H150 H 0.18907 0.88816 0.50403 0.0
H151 H 0.13275 0.89483 0.47595 0.0
C152 C 0.29756 0.81479 0.58985 0.0
N153 N 0.23895 0.79487 0.59483 0.0
N154 N 0.21389 0.79048 0.56001 0.0
C155 C 0.25583 0.80394 0.53172 0.0
C156 C 0.31019 0.8202 0.54976 0.0
C157 C 0.34008 0.82026 0.62194 0.0
H158 H 0.32383 0.82242 0.65157 0.0
H159 H 0.38345 0.8612 0.61763 0.0
H160 H 0.3484 0.78261 0.6202 0.0
O161 O 0.13645 0.66701 0.62761 0.0
O162 O 0.09292 0.66791 0.57059 0.0
H163 H 0.204 0.74961 0.48325 0.0
H164 H 0.28166 0.79804 0.47156 0.0
C165 C 0.24315 0.79407 0.48825 0.0
H166 H 0.2335 0.82801 0.47659 0.0
H167 H 0.07285 0.66952 0.48823 0.0
O168 O 0.23475 0.77894 0.68804 0.0
C169 C 0.09963 0.63955 0.59933 0.0
Co170 Co 0.44823 0.1712 0.9704 0.0
Co171 Co 0.37424 0.12757 0.89011 0.0
C172 C 0.31282 0.09087 0.96773 0.0
O173 O 0.36371 0.12318 0.98316 0.0
O174 O 0.30628 0.08669 0.9299 0.0
C175 C 0.52944 0.24525 0.04174 0.0
O176 O 0.52604 0.26924 0.07508 0.0
C177 C 0.31587 0.12435 0.81011 0.0
C178 C 0.37324 0.10447 0.77284 0.0
C179 C 0.32817 0.11784 0.77061 0.0
N180 N 0.3529 0.11587 0.83412 0.0
N181 N 0.38614 0.10316 0.81126 0.0
C182 C 0.26736 0.13438 0.8247 0.0
H183 H 0.26408 0.13065 0.85755 0.0
H184 H 0.27573 0.17874 0.8157 0.0
H185 H 0.22451 0.10134 0.81106 0.0
C186 C 0.51167 0.27876 0.924 0.0
N187 N 0.46422 0.22474 0.92901 0.0
N188 N 0.42714 0.2122 0.89936 0.0
C189 C 0.447 0.26198 0.87698 0.0
C190 C 0.50162 0.30691 0.89223 0.0
C191 C 0.57072 0.29399 0.94105 0.0
H192 H 0.57226 0.25283 0.94594 0.0
H193 H 0.57648 0.31654 0.96974 0.0
H194 H 0.60778 0.32298 0.9209 0.0
O195 O 0.46865 0.11236 0.95477 0.0
O196 O 0.41952 0.08232 0.89764 0.0
H197 H 0.42516 0.25092 0.81525 0.0
H198 H 0.42297 0.31255 0.83821 0.0
C199 C 0.41331 0.26642 0.8425 0.0
H200 H 0.36526 0.23803 0.84812 0.0
H201 H 0.4198 0.096 0.82178 0.0
O202 O 0.48207 0.21521 1.02153 0.0
C203 C 0.45288 0.07919 0.92444 0.0
Co204 Co 0.57693 0.73958 0.41149 0.0
Co205 Co 0.6367 0.74789 0.49598 0.0
C206 C 0.70796 0.78756 0.41972 0.0
O207 O 0.6601 0.77325 0.40151 0.0
O208 O 0.70813 0.78151 0.45749 0.0
C209 C 0.50487 0.73065 0.33706 0.0
O210 O 0.50384 0.7571 0.30408 0.0
C211 C 0.68109 0.80168 0.57754 0.0
C212 C 0.66735 0.72221 0.60978 0.0
C213 C 0.6822 0.78059 0.6157 0.0
N214 N 0.66387 0.7569 0.55115 0.0
N215 N 0.65747 0.71019 0.57083 0.0
C216 C 0.69319 0.86232 0.56655 0.0
H217 H 0.67729 0.86283 0.53604 0.0
H218 H 0.67221 0.87818 0.58815 0.0
H219 H 0.74187 0.89332 0.56752 0.0
C220 C 0.52412 0.79891 0.45489 0.0
N221 N 0.5636 0.77997 0.45314 0.0
N222 N 0.58211 0.7779 0.48928 0.0
C223 C 0.55044 0.79092 0.51519 0.0
C224 C 0.51413 0.80629 0.49403 0.0
C225 C 0.48927 0.80116 0.42047 0.0
H226 H 0.51765 0.81786 0.39374 0.0
H227 H 0.47025 0.82999 0.42682 0.0
H228 H 0.45228 0.75572 0.41536 0.0
O229 O 0.54686 0.65382 0.42564 0.0
O230 O 0.59047 0.66078 0.4842 0.0
H231 H 0.49637 0.7554 0.56735 0.0
H232 H 0.56885 0.81685 0.57599 0.0
C233 C 0.5437 0.77578 0.55844 0.0
H234 H 0.55931 0.74436 0.56537 0.0
H235 H 0.64319 0.66893 0.55795 0.0
O236 O 0.55115 0.75486 0.35871 0.0
C237 C 0.55756 0.62969 0.45539 0.0
Co238 Co 0.84099 0.57007 0.7481 0.0
Co239 Co 0.88785 0.63755 0.83038 0.0
C240 C 0.92855 0.70277 0.75386 0.0
O241 O 0.89511 0.65264 0.73864 0.0
O242 O 0.93289 0.70832 0.79172 0.0
C243 C 0.79336 0.50756 0.66925 0.0
O244 O 0.7722 0.51111 0.63451 0.0
C245 C 0.89251 0.68995 0.91397 0.0
C246 C 0.92373 0.63727 0.94638 0.0
C247 C 0.9024 0.67557 0.95238 0.0
N248 N 0.90412 0.65836 0.88712 0.0
N249 N 0.92462 0.62882 0.90729 0.0
C250 C 0.87291 0.73317 0.90337 0.0
H251 H 0.86727 0.73447 0.87077 0.0
H252 H 0.83114 0.72177 0.91921 0.0
H253 H 0.90726 0.77798 0.91326 0.0
C254 C 0.72574 0.51713 0.78958 0.0
N255 N 0.78412 0.55765 0.78738 0.0
N256 N 0.80143 0.58864 0.82036 0.0
C257 C 0.75303 0.5697 0.84397 0.0
C258 C 0.70338 0.52103 0.82641 0.0
C259 C 0.69214 0.4752 0.75662 0.0
H260 H 0.72064 0.48054 0.73147 0.0
H261 H 0.65834 0.48524 0.74477 0.0
H262 H 0.6706 0.42869 0.76724 0.0
O263 O 0.88981 0.53567 0.76524 0.0
O264 O 0.92284 0.58295 0.82243 0.0
H265 H 0.77459 0.60353 0.90316 0.0
H266 H 0.70457 0.59428 0.88435 0.0
C267 C 0.75091 0.60685 0.87672 0.0
H268 H 0.7731 0.6533 0.86641 0.0
H269 H 0.93594 0.59954 0.89471 0.0
O270 O 0.80628 0.54885 0.69395 0.0
C271 C 0.92014 0.54546 0.79692 0.0
Co272 Co 0.29962 0.84368 0.09194 0.0
Co273 Co 0.25523 0.88216 0.16719 0.0
C274 C 0.23925 0.91903 0.08639 0.0
O275 O 0.26323 0.89028 0.07317 0.0
O276 O 0.23067 0.92087 0.1238 0.0
C277 C 0.28051 0.75185 0.03343 0.0
O278 O 0.22762 0.71796 0.04882 0.0
C279 C 0.19437 0.88201 0.24624 0.0
C280 C 0.2716 0.90467 0.2848 0.0
C281 C 0.21245 0.88908 0.28614 0.0
N282 N 0.24115 0.89248 0.22292 0.0
N283 N 0.28694 0.90673 0.2467 0.0
C284 C 0.13506 0.86897 0.23072 0.0
H285 H 0.13644 0.87417 0.19794 0.0
H286 H 0.10054 0.82325 0.23857 0.0
H287 H 0.12225 0.89935 0.24473 0.0
C288 C 0.2524 0.73603 0.13837 0.0
N289 N 0.25597 0.78818 0.13101 0.0
N290 N 0.22595 0.79868 0.15773 0.0
C291 C 0.19483 0.74875 0.17965 0.0
C292 C 0.20949 0.70654 0.16729 0.0
C293 C 0.3053 0.72838 0.13219 0.0
H294 H 0.33374 0.75716 0.10787 0.0
H295 H 0.29307 0.68191 0.12722 0.0
H296 H 0.33259 0.74247 0.15968 0.0
O297 O 0.37714 0.89702 0.1136 0.0
O298 O 0.34645 0.92753 0.16497 0.0
H299 H 0.17842 0.76206 0.23965 0.0
H300 H 0.11993 0.69491 0.21745 0.0
C301 C 0.15296 0.74218 0.21198 0.0
H302 H 0.12922 0.76571 0.20327 0.0
H303 H 0.32863 0.91541 0.23718 0.0
O304 O 0.31267 0.80449 0.04609 0.0
C305 C 0.3881 0.92862 0.14431 0.0
Co306 Co 0.44256 0.25919 0.41879 0.0
Co307 Co 0.38368 0.25876 0.50102 0.0
C308 C 0.31395 0.21983 0.42286 0.0
O309 O 0.36003 0.22712 0.40513 0.0
O310 O 0.31506 0.22961 0.46027 0.0
C311 C 0.52893 0.26841 0.35582 0.0
O312 O 0.53933 0.24416 0.32512 0.0
C313 C 0.32292 0.20219 0.57741 0.0
C314 C 0.36652 0.27914 0.61738 0.0
C315 C 0.32906 0.21818 0.61767 0.0
N316 N 0.35689 0.2511 0.55546 0.0
N317 N 0.38158 0.29698 0.57961 0.0
C318 C 0.28416 0.14279 0.55916 0.0
H319 H 0.26685 0.14821 0.53021 0.0
H320 H 0.31099 0.12149 0.553 0.0
H321 H 0.24631 0.11417 0.5789 0.0
C322 C 0.48809 0.19569 0.46568 0.0
N323 N 0.45147 0.21793 0.46189 0.0
N324 N 0.43363 0.22347 0.49723 0.0
C325 C 0.46284 0.20924 0.52464 0.0
C326 C 0.49836 0.19109 0.50539 0.0
C327 C 0.51857 0.18462 0.43219 0.0
H328 H 0.48809 0.16588 0.40648 0.0
H329 H 0.53365 0.15332 0.44129 0.0
H330 H 0.55817 0.22689 0.42383 0.0
O331 O 0.47342 0.34596 0.43159 0.0
O332 O 0.43339 0.34508 0.49004 0.0
H333 H 0.46831 0.26539 0.57252 0.0
H334 H 0.5018 0.2204 0.58307 0.0
C335 C 0.46432 0.22151 0.56803 0.0
H336 H 0.42226 0.18721 0.58168 0.0
H337 H 0.41161 0.34015 0.57058 0.0
O338 O 0.47679 0.24382 0.37022 0.0
C339 C 0.4656 0.37328 0.46034 0.0
Co340 Co 0.15075 0.42557 0.75617 0.0
Co341 Co 0.11436 0.35957 0.83835 0.0
C342 C 0.08932 0.29705 0.75665 0.0
O343 O 0.12387 0.34616 0.74018 0.0
O344 O 0.07875 0.29425 0.79419 0.0
C345 C 0.20725 0.51468 0.69053 0.0
O346 O 0.25278 0.5106 0.67805 0.0
C347 C 0.12327 0.29942 0.91495 0.0
C348 C 0.08526 0.33766 0.95568 0.0
C349 C 0.11289 0.30423 0.95535 0.0
N350 N 0.10425 0.3306 0.8932 0.0
N351 N 0.08044 0.35184 0.91811 0.0
C352 C 0.14646 0.26259 0.89707 0.0
H353 H 0.12094 0.24098 0.86972 0.0
H354 H 0.19353 0.29095 0.88823 0.0
H355 H 0.14288 0.22838 0.91838 0.0
C356 C 0.2695 0.49421 0.79688 0.0
N357 N 0.21226 0.45002 0.79498 0.0
N358 N 0.19702 0.42212 0.82951 0.0
C359 C 0.24404 0.4497 0.85454 0.0
C360 C 0.29155 0.49583 0.83456 0.0
C361 C 0.30174 0.53747 0.76436 0.0
H362 H 0.2758 0.55804 0.75486 0.0
H363 H 0.30744 0.51361 0.73923 0.0
H364 H 0.34611 0.57357 0.77358 0.0
O365 O 0.08348 0.43239 0.77635 0.0
O366 O 0.06439 0.39831 0.83768 0.0
H367 H 0.20494 0.43469 0.9123 0.0
H368 H 0.28487 0.46612 0.91286 0.0
C369 C 0.24296 0.43472 0.89752 0.0
H370 H 0.2375 0.39013 0.90013 0.0
H371 H 0.06334 0.37888 0.90985 0.0
O372 O 0.16328 0.47044 0.7062 0.0
C373 C 0.05519 0.42356 0.80849 0.0
Co374 Co 0.73723 0.17487 0.09701 0.0
Co375 Co 0.77143 0.12702 0.17114 0.0
C376 C 0.78978 0.09614 0.08758 0.0
O377 O 0.7717 0.13055 0.07586 0.0
O378 O 0.79374 0.08811 0.12502 0.0
C379 C 0.74905 0.26445 0.03291 0.0
O380 O 0.80277 0.30901 0.03958 0.0
C381 C 0.83364 0.12542 0.24905 0.0
C382 C 0.75784 0.10318 0.28871 0.0
C383 C 0.81759 0.12099 0.28928 0.0
N384 N 0.78543 0.11269 0.22635 0.0
N385 N 0.74041 0.09814 0.25074 0.0
C386 C 0.89084 0.13354 0.23279 0.0
H387 H 0.8835 0.11397 0.20267 0.0
H388 H 0.92482 0.18088 0.23039 0.0
H389 H 0.90875 0.11235 0.25287 0.0
C390 C 0.77923 0.2774 0.14467 0.0
N391 N 0.77695 0.22609 0.13714 0.0
N392 N 0.80269 0.21274 0.1655 0.0
C393 C 0.82952 0.26045 0.18995 0.0
C394 C 0.81554 0.30364 0.17732 0.0
C395 C 0.73431 0.29187 0.12801 0.0
H396 H 0.69513 0.25147 0.11619 0.0
H397 H 0.75432 0.32458 0.1037 0.0
H398 H 0.71885 0.31104 0.15124 0.0
O399 O 0.65858 0.12084 0.11515 0.0
O400 O 0.67953 0.08488 0.16855 0.0
H401 H 0.84623 0.24445 0.24952 0.0
H402 H 0.9045 0.31319 0.22802 0.0
C403 C 0.87149 0.2661 0.22211 0.0
H404 H 0.89576 0.24371 0.21262 0.0
H405 H 0.69803 0.08814 0.24165 0.0
O406 O 0.72795 0.2181 0.05419 0.0
C407 C 0.64171 0.08742 0.14535 0.0
C408 C 0.5306 0.47457 0.26003 0.0
C409 C 0.56883 0.53237 0.24575 0.0
C410 C 0.46897 0.451 0.26172 0.0
C411 C 0.4433 0.4846 0.24973 0.0
H412 H 0.54869 0.44815 0.27174 0.0
H413 H 0.44162 0.40745 0.27464 0.0
S414 S 0.52143 0.63399 0.20421 0.0
N415 N 0.57512 0.61959 0.21461 0.0
N416 N 0.45885 0.57539 0.21882 0.0
C417 C 0.48002 0.54067 0.23287 0.0
C418 C 0.54299 0.56449 0.23048 0.0
C419 C 0.99414 0.48003 0.56592 0.0
C420 C 0.98055 0.44704 0.6014 0.0
C421 C 0.03284 0.54182 0.5655 0.0
C422 C 0.061 0.5734 0.60039 0.0
H423 H 0.974 0.45802 0.53823 0.0
H424 H 0.04085 0.56499 0.53743 0.0
S425 S 0.04301 0.50757 0.70062 0.0
N426 N 0.99954 0.45058 0.67221 0.0
N427 N 0.07318 0.56606 0.67126 0.0
C428 C 0.04862 0.54068 0.6359 0.0
C429 C 1.0082 0.4779 0.63646 0.0
C430 C 0.49728 0.02673 0.88786 0.0
C431 C 0.47158 0.03411 0.92234 0.0
C432 C 0.52263 0.99003 0.88792 0.0
C433 C 0.52295 0.95909 0.92241 0.0
H434 H 0.49988 0.05118 0.86116 0.0
H435 H 0.54305 0.9868 0.86081 0.0
S436 S 0.45531 0.95957 1.01934 0.0
N437 N 0.44313 1.00394 0.99077 0.0
N438 N 0.4915 0.93638 0.99139 0.0
C439 C 0.49494 0.96449 0.95659 0.0
C440 C 0.46891 1.0014 0.95635 0.0
C441 C 0.52576 0.53393 0.49224 0.0
C442 C 0.53372 0.56426 0.456 0.0
C443 C 0.50429 0.4725 0.4934 0.0
C444 C 0.49088 0.43883 0.45834 0.0
H445 H 0.53563 0.55771 0.52007 0.0
H446 H 0.49837 0.45127 0.52205 0.0
S447 S 0.50445 0.49683 0.35597 0.0
N448 N 0.52772 0.55571 0.38427 0.0
N449 N 0.48581 0.44061 0.38644 0.0
C450 C 0.4988 0.46865 0.42201 0.0
C451 C 0.52052 0.53109 0.42085 0.0
C452 C 0.97217 0.43406 0.78112 0.0
C453 C 0.01403 0.44699 0.81141 0.0
C454 C 0.94161 0.46535 0.77743 0.0
C455 C 0.95148 0.51119 0.80387 0.0
H456 H 0.96485 0.40111 0.75895 0.0
H457 H 0.91149 0.45463 0.7526 0.0
S458 S 0.05509 0.5597 0.88995 0.0
N459 N 0.06214 0.50608 0.86967 0.0
N460 N 1.00535 0.56574 0.86279 0.0
C461 C 0.9917 0.52276 0.83545 0.0
C462 C 0.02258 0.49032 0.8393 0.0
C463 C 0.48945 0.95485 0.16873 0.0
C464 C 0.45073 0.97243 0.15247 0.0
C465 C 0.55146 0.99362 0.16899 0.0
C466 C 0.57654 0.05048 0.15194 0.0
H467 H 0.47184 0.91014 0.17983 0.0
H468 H 0.57993 0.97773 0.18043 0.0
S469 S 0.49291 0.11733 0.10689 0.0
N470 N 0.44096 0.0503 0.1205 0.0
N471 N 0.5567 0.12306 0.12033 0.0
C472 C 0.53757 0.0689 0.13695 0.0
C473 C 0.47486 0.02982 0.13727 0.0
C474 C 0.12736 0.28612 0.06572 0.0
C475 C 0.18726 0.30171 0.07017 0.0
C476 C 0.102 0.28064 1.0279 0.0
C477 C 0.13535 0.29101 0.99277 0.0
H478 H 0.10097 0.28296 0.09127 0.0
H479 H 0.05688 0.27247 1.02625 0.0
S480 S 0.29219 0.32553 0.98822 0.0
N481 N 0.27715 0.31999 0.03611 0.0
N482 N 0.23059 0.31274 0.96543 0.0
C483 C 0.19392 0.30208 0.99679 0.0
C484 C 0.21951 0.30681 0.03534 0.0
C485 C 0.82719 0.11296 0.3626 0.0
C486 C 0.8535 0.14216 0.32666 0.0
C487 C 0.84972 0.13932 0.39973 0.0
C488 C 0.90029 0.19613 0.40285 0.0
H489 H 0.78617 0.07071 0.36201 0.0
H490 H 0.82428 0.1163 0.42566 0.0
S491 S 0.98929 0.29006 0.31802 0.0
N492 N 0.93486 0.23046 0.29696 0.0
N493 N 0.9791 0.2786 0.36628 0.0
C494 C 0.92951 0.22408 0.36715 0.0
C495 C 0.90593 0.1975 0.32928 0.0
C496 C 0.723 0.89317 0.70035 0.0
C497 C 0.68757 0.85794 0.73214 0.0
C498 C 0.72236 0.86843 0.66302 0.0
C499 C 0.68537 0.80744 0.65564 0.0
H500 H 0.75122 0.94049 0.70428 0.0
H501 H 0.75119 0.89747 0.63997 0.0
S502 S 0.58057 0.69637 0.72796 0.0
N503 N 0.61259 0.75917 0.75276 0.0
N504 N 0.61104 0.71285 0.68349 0.0
C505 C 0.6499 0.77185 0.68732 0.0
C506 C 0.65091 0.79697 0.72521 0.0
C507 C 0.86228 0.74133 0.04133 0.0
C508 C 0.83743 0.69347 0.06824 0.0
C509 C 0.88373 0.73626 1.00382 0.0
C510 C 0.8805 0.68293 0.99192 0.0
H511 H 0.864 0.78241 0.04898 0.0
H512 H 0.90295 0.77431 0.98427 0.0
S513 S 0.81564 0.54372 0.05135 0.0
N514 N 0.80914 0.59114 0.08004 0.0
N515 N 0.8481 0.58081 1.01052 0.0
C516 C 0.85556 0.63503 1.01899 0.0
C517 C 0.83432 0.64046 0.0568 0.0
C518 C 0.09982 0.79774 0.36587 0.0
C519 C 0.13049 0.82486 0.40134 0.0
C520 C 0.12344 0.82128 0.32821 0.0
C521 C 0.17853 0.87372 0.32425 0.0
H522 H 0.05873 0.75563 0.36709 0.0
H523 H 0.10049 0.79536 0.3024 0.0
S524 S 0.275 0.96613 0.40673 0.0
N525 N 0.21883 0.90941 0.42902 0.0
N526 N 0.26028 0.95548 0.35885 0.0
C527 C 0.20732 0.90389 0.3593 0.0
C528 C 0.18417 0.8792 0.39763 0.0
C529 C 0.30798 0.18571 0.72833 0.0
C530 C 0.30978 0.13304 0.73239 0.0
C531 C 0.30845 0.20944 0.69068 0.0
C532 C 0.31205 0.18245 0.65534 0.0
H533 H 0.31142 0.21173 0.7541 0.0
H534 H 0.31015 0.25174 0.68943 0.0
S535 S 0.31234 0.0402 0.65035 0.0
N536 N 0.30838 0.05088 0.69818 0.0
N537 N 0.31422 0.09737 0.62787 0.0
C538 C 0.31026 0.12773 0.65913 0.0
C539 C 0.30804 0.10279 0.6975 0.0
C540 C 0.24036 0.25133 0.40561 0.0
C541 C 0.26647 0.21706 0.39634 0.0
C542 C 0.22048 0.2746 0.3754 0.0
C543 C 0.22625 0.26488 0.33477 0.0
H544 H 0.24202 0.26647 0.43573 0.0
H545 H 0.20672 0.30593 0.38382 0.0
S546 S 0.27381 0.16272 0.29601 0.0
N547 N 0.28263 0.16205 0.34456 0.0
N548 N 0.24699 0.20734 0.28789 0.0
C549 C 0.24305 0.22297 0.32566 0.0
C550 C 0.26268 0.19865 0.35649 0.0
C551 C 0.02692 0.23792 0.65642 0.0
C552 C 0.96576 0.2098 0.66426 0.0
C553 C 0.06841 0.2564 0.68775 0.0
C554 C 0.05032 0.24933 0.72805 0.0
H555 H 0.0432 0.25258 0.62658 0.0
H556 H 0.11499 0.28387 0.68026 0.0
S557 S 0.89522 0.15853 0.76317 0.0
N558 N 0.88928 0.15908 0.71437 0.0
N559 N 0.96708 0.19738 0.77304 0.0
C560 C 0.98967 0.21169 0.73575 0.0
C561 C 0.94746 0.19122 0.70381 0.0
C562 C 0.75151 0.95422 0.03353 0.0
C563 C 0.74569 0.96855 0.99371 0.0
C564 C 0.77366 0.99725 0.06391 0.0
C565 C 0.79156 0.05674 0.05576 0.0
H566 H 0.73333 0.9083 0.04209 0.0
H567 H 0.77091 0.98259 0.09435 0.0
S568 S 0.79828 0.12022 0.95542 0.0
N569 N 0.76886 0.04859 0.94734 0.0
N570 N 0.8126 0.12939 1.00345 0.0
C571 C 0.79373 0.07281 1.01525 0.0
C572 C 0.77037 0.0289 0.9845 0.0
C573 C 0.78736 0.76422 0.40295 0.0
C574 C 0.75774 0.79532 0.39379 0.0
C575 C 0.808 0.74233 0.37254 0.0
C576 C 0.7991 0.75012 0.33196 0.0
H577 H 0.7874 0.74972 0.43312 0.0
H578 H 0.82393 0.71255 0.38087 0.0
S579 S 0.74215 0.84528 0.29338 0.0
N580 N 0.73566 0.84673 0.34205 0.0
N581 N 0.77225 0.80367 0.28511 0.0
C582 C 0.77943 0.78995 0.32291 0.0
C583 C 0.75933 0.81307 0.35388 0.0
C584 C 0.95139 0.74234 0.68452 0.0
C585 C 0.96888 0.74943 0.72499 0.0
C586 C 0.9933 0.76468 0.65353 0.0
C587 C 0.05445 0.796 0.66177 0.0
H588 H 0.9052 0.71335 0.67658 0.0
H589 H 0.9778 0.75113 0.62342 0.0
S590 S 0.12268 0.84392 0.76175 0.0
N591 N 0.05093 0.80173 0.77091 0.0
N592 N 0.12945 0.84633 0.71295 0.0
C593 C 0.07167 0.81241 0.70177 0.0
C594 C 0.02903 0.78852 0.73336 0.0
C595 C 0.22526 0.94301 1.01647 0.0
C596 C 0.23272 0.95868 0.05708 0.0
C597 C 0.24213 0.98589 0.9862 0.0
C598 C 0.26764 0.04632 0.99533 0.0
H599 H 0.21184 0.89804 1.00794 0.0
H600 H 0.24209 0.97234 0.95584 0.0
S601 S 0.28406 0.10922 0.0962 0.0
N602 N 0.25726 0.03779 0.10421 0.0
N603 N 0.289 0.11809 0.04752 0.0
C604 C 0.26752 0.06131 0.0355 0.0
C605 C 0.25015 0.01764 0.06634 0.0
C606 C 0.4008 0.57111 0.36466 0.0
C607 C 0.34782 0.57108 0.37249 0.0
C608 C 0.45236 0.62367 0.35393 0.0
C609 C 0.45138 0.67661 0.34955 0.0
H610 H 0.40246 0.53062 0.36738 0.0
H611 H 0.49278 0.62286 0.34795 0.0
S612 S 0.32221 0.69794 0.36349 0.0
N613 N 0.29727 0.62794 0.37536 0.0
N614 N 0.39226 0.72491 0.35032 0.0
C615 C 0.39799 0.67635 0.35559 0.0
C616 C 0.3467 0.624 0.36874 0.0
C617 C 0.79212 0.38374 0.72925 0.0
C618 C 0.791 0.3453 0.69987 0.0
C619 C 0.79524 0.43716 0.71929 0.0
C620 C 0.79738 0.45457 0.67955 0.0
H621 H 0.78969 0.37221 0.7604 0.0
H622 H 0.79338 0.46335 0.74317 0.0
S623 S 0.79534 0.36996 0.5911 0.0
N624 N 0.79106 0.32815 0.62919 0.0
N625 N 0.79967 0.4298 0.61047 0.0
C626 C 0.79767 0.41727 0.64984 0.0
C627 C 0.79385 0.36243 0.66 0.0
C628 C 0.32074 0.68549 0.04152 0.0
C629 C 0.31367 0.72503 1.01704 0.0
C630 C 0.3764 0.68977 0.04512 0.0
C631 C 0.42511 0.73092 1.02222 0.0
H632 H 0.28613 0.65754 0.0621 0.0
H633 H 0.38221 0.66418 0.06828 0.0
S634 S 0.41278 0.81057 0.93472 0.0
N635 N 0.34907 0.78591 0.95816 0.0
N636 N 0.45181 0.78823 0.96104 0.0
C637 C 0.41286 0.75819 0.99044 0.0
C638 C 0.35706 0.75606 0.98838 0.0
C639 C 0.61587 0.42911 0.38286 0.0
C640 C 0.67347 0.43848 0.38832 0.0
C641 C 0.56843 0.37269 0.37454 0.0
C642 C 0.577 0.32404 0.37187 0.0
H643 H 0.60842 0.46637 0.38202 0.0
H644 H 0.52588 0.36788 0.36669 0.0
S645 S 0.71936 0.32538 0.38451 0.0
N646 N 0.73661 0.39469 0.39199 0.0
N647 N 0.64715 0.28834 0.37554 0.0
C648 C 0.63401 0.33238 0.3788 0.0
C649 C 0.6823 0.38975 0.38777 0.0
C650 C 0.23625 0.61494 0.66417 0.0
C651 C 0.21196 0.57287 0.69476 0.0
C652 C 0.24405 0.67165 0.6691 0.0
C653 C 0.22987 0.68828 0.70522 0.0
H654 H 0.24945 0.60403 0.63646 0.0
H655 H 0.26291 0.70301 0.64502 0.0
S656 S 0.16176 0.59359 0.79336 0.0
N657 N 0.16999 0.55063 0.76135 0.0
N658 N 0.18742 0.65809 0.77088 0.0
C659 C 0.20396 0.64624 0.73542 0.0
C660 C 0.19427 0.5882 0.7301 0.0
C661 C 0.63901 0.31126 0.03476 0.0
C662 C 0.58784 0.25555 1.02867 0.0
C663 C 0.69591 0.31985 1.02758 0.0
C664 C 0.70274 0.27273 1.0142 0.0
H665 H 0.63516 0.34734 0.04727 0.0
H666 H 0.73417 0.36071 0.03743 0.0
S667 S 0.58493 0.12094 0.99192 0.0
N668 N 0.54946 0.1536 1.00945 0.0
N669 N 0.65512 0.17303 0.98872 0.0
C670 C 0.65197 0.22043 1.00212 0.0
C671 C 0.5947 0.21012 1.01254 0.0
C672 C 0.18382 0.63282 0.22335 0.0
C673 C 0.1904 0.64578 0.1826 0.0
C674 C 0.1781 0.57963 0.2378 0.0
C675 C 0.18428 0.53981 0.21266 0.0
H676 H 0.18633 0.66496 0.24456 0.0
H677 H 0.17316 0.57194 0.26949 0.0
S678 S 0.18751 0.54753 0.10246 0.0
N679 N 0.18502 0.60669 0.11647 0.0
N680 N 0.18912 0.51443 0.14385 0.0
C681 C 0.18594 0.55028 0.17153 0.0
C682 C 0.18578 0.60156 0.15663 0.0
C683 C 0.55189 0.14426 0.53838 0.0
C684 C 0.55339 0.19369 0.52047 0.0
C685 C 0.60489 0.14532 0.5491 0.0
C686 C 0.66097 0.19563 0.54195 0.0
H687 H 0.50965 0.10445 0.54369 0.0
H688 H 0.60201 0.10656 0.56313 0.0
S689 S 0.68814 0.33618 0.49559 0.0
N690 N 0.61507 0.29396 0.49592 0.0
N691 N 0.71409 0.296 0.51594 0.0
C692 C 0.66264 0.24504 0.52384 0.0
C693 C 0.60901 0.24405 0.51316 0.0
C694 C 0.40295 0.56077 0.83532 0.0
C695 C 0.34706 0.54563 0.85132 0.0
C696 C 0.45492 0.61269 0.84708 0.0
C697 C 0.45268 0.65069 0.87552 0.0
H698 H 0.40616 0.53303 0.8128 0.0
H699 H 0.49702 0.62322 0.83385 0.0
S700 S 0.31713 0.6319 0.92519 0.0
N701 N 0.2926 0.57367 0.896 0.0
N702 N 0.38978 0.67012 0.9186 0.0
C703 C 0.39713 0.63562 0.89187 0.0
C704 C 0.34445 0.5833 0.87971 0.0
C705 C 0.8287 0.45478 0.17918 0.0
C706 C 0.82973 0.46747 0.21969 0.0
C707 C 0.83265 0.40594 0.16642 0.0
C708 C 0.83021 0.36312 0.19332 0.0
H709 H 0.82159 0.48052 0.15689 0.0
H710 H 0.83352 0.39979 0.13478 0.0
S711 S 0.84462 0.38168 0.3027 0.0
N712 N 0.84573 0.44191 0.28639 0.0
N713 N 0.83583 0.34134 0.26298 0.0
C714 C 0.83488 0.37701 0.23394 0.0
C715 C 0.83808 0.43083 0.24682 0.0
C716 C 0.40484 0.76326 0.50366 0.0
C717 C 0.46301 0.81089 0.50881 0.0
C718 C 0.35544 0.76747 0.51561 0.0
C719 C 0.36248 0.81985 0.53241 0.0
H720 H 0.39759 0.72231 0.4906 0.0
H721 H 0.31148 0.72907 0.51245 0.0
S722 S 0.50545 0.95814 0.54991 0.0
N723 N 0.52499 0.91228 0.53069 0.0
N724 N 0.43206 0.92098 0.55212 0.0
C725 C 0.42041 0.86813 0.5369 0.0
C726 C 0.47072 0.86348 0.52529 0.0
C727 C 0.59603 0.43568 0.82153 0.0
C728 C 0.64542 0.47435 0.84524 0.0
C729 C 0.54919 0.38216 0.83631 0.0
C730 C 0.54461 0.36824 0.8769 0.0
H731 H 0.59331 0.44476 0.79076 0.0
H732 H 0.518 0.3512 0.81512 0.0
S733 S 0.64719 0.46525 0.95555 0.0
N734 N 0.68095 0.49652 0.91362 0.0
N735 N 0.58252 0.40869 0.94239 0.0
C736 C 0.58673 0.41251 0.90219 0.0
C737 C 0.63919 0.46242 0.88645 0.0
loop_
_geom_bond_atom_site_label_1
_geom_bond_atom_site_label_2
_geom_bond_distance
_geom_bond_site_symmetry_2
_ccdc_geom_bond_type
Co0 O3 1.970 . S
Co0 N17 1.989 . S
Co0 O25 1.967 . S
Co0 O32 1.920 . S
Co1 O4 1.966 . S
Co1 N10 2.022 . S
Co1 N18 1.993 . S
Co1 O26 1.941 . S
C2 O3 1.258 . S
C2 O4 1.263 . S
O3 Co0 1.970 . S
O3 C2 1.258 . S
O4 Co1 1.966 . S
O4 C2 1.263 . S
C5 O6 1.235 . S
C5 O32 1.289 . S
O6 C5 1.235 . S
C7 C9 1.400 . S
C7 N10 1.351 . S
C7 C12 1.501 . S
C8 C9 1.387 . S
C8 N11 1.341 . S
C9 C7 1.400 . S
C9 C8 1.387 . S
N10 Co1 2.022 . S
N10 C7 1.351 . S
N10 N11 1.365 . S
N11 C8 1.341 . S
N11 N10 1.365 . S
N11 H31 0.862 . S
C12 C7 1.501 . S
C12 H13 0.961 . S
C12 H14 0.961 . S
C12 H15 0.960 . S
H13 C12 0.961 . S
H14 C12 0.961 . S
H15 C12 0.960 . S
C16 N17 1.342 . S
C16 C20 1.401 . S
C16 C21 1.499 . S
N17 Co0 1.989 . S
N17 C16 1.342 . S
N17 N18 1.388 . S
N18 Co1 1.993 . S
N18 N17 1.388 . S
N18 C19 1.346 . S
C19 N18 1.346 . S
C19 C20 1.396 . S
C19 C29 1.510 . S
C20 C16 1.401 . S
C20 C19 1.396 . S
C21 C16 1.499 . S
C21 H22 0.959 . S
C21 H23 0.960 . S
C21 H24 0.961 . S
H22 C21 0.959 . S
H23 C21 0.960 . S
H24 C21 0.961 . S
O25 Co0 1.967 . S
O25 C33 1.258 . S
O26 Co1 1.941 . S
O26 C33 1.266 . S
H27 C29 0.959 . S
H28 C29 0.961 . S
C29 C19 1.510 . S
C29 H27 0.959 . S
C29 H28 0.961 . S
C29 H30 0.960 . S
H30 C29 0.960 . S
H31 N11 0.862 . S
O32 Co0 1.920 . S
O32 C5 1.289 . S
C33 O25 1.258 . S
C33 O26 1.266 . S
Co34 O37 1.970 . S
Co34 N51 1.989 . S
Co34 O59 1.967 . S
Co34 O66 1.920 . S
Co35 O38 1.966 . S
Co35 N44 2.022 . S
Co35 N52 1.993 . S
Co35 O60 1.941 . S
C36 O37 1.258 . S
C36 O38 1.263 . S
O37 Co34 1.970 . S
O37 C36 1.258 . S
O38 Co35 1.966 . S
O38 C36 1.263 . S
C39 O40 1.235 . S
C39 O66 1.289 . S
O40 C39 1.235 . S
C41 C43 1.400 . S
C41 N44 1.351 . S
C41 C46 1.501 . S
C42 C43 1.387 . S
C42 N45 1.341 . S
C43 C41 1.400 . S
C43 C42 1.387 . S
N44 Co35 2.022 . S
N44 C41 1.351 . S
N44 N45 1.365 . S
N45 C42 1.341 . S
N45 N44 1.365 . S
N45 H65 0.862 . S
C46 C41 1.501 . S
C46 H47 0.961 . S
C46 H48 0.961 . S
C46 H49 0.960 . S
H47 C46 0.961 . S
H48 C46 0.961 . S
H49 C46 0.960 . S
C50 N51 1.342 . S
C50 C54 1.401 . S
C50 C55 1.499 . S
N51 Co34 1.989 . S
N51 C50 1.342 . S
N51 N52 1.388 . S
N52 Co35 1.993 . S
N52 N51 1.388 . S
N52 C53 1.346 . S
C53 N52 1.346 . S
C53 C54 1.396 . S
C53 C63 1.510 . S
C54 C50 1.401 . S
C54 C53 1.396 . S
C55 C50 1.499 . S
C55 H56 0.959 . S
C55 H57 0.960 . S
C55 H58 0.961 . S
H56 C55 0.959 . S
H57 C55 0.960 . S
H58 C55 0.961 . S
O59 Co34 1.967 . S
O59 C67 1.258 . S
O60 Co35 1.941 . S
O60 C67 1.266 . S
H61 C63 0.959 . S
H62 C63 0.961 . S
C63 C53 1.510 . S
C63 H61 0.959 . S
C63 H62 0.961 . S
C63 H64 0.960 . S
H64 C63 0.960 . S
H65 N45 0.862 . S
O66 Co34 1.920 . S
O66 C39 1.289 . S
C67 O59 1.258 . S
C67 O60 1.266 . S
Co68 O71 1.970 . S
Co68 N85 1.989 . S
Co68 O93 1.967 . S
Co68 O100 1.920 . S
Co69 O72 1.966 . S
Co69 N78 2.022 . S
Co69 N86 1.993 . S
Co69 O94 1.941 . S
C70 O71 1.258 . S
C70 O72 1.263 . S
O71 Co68 1.970 . S
O71 C70 1.258 . S
O72 Co69 1.966 . S
O72 C70 1.263 . S
C73 O74 1.235 . S
C73 O100 1.289 . S
O74 C73 1.235 . S
C75 C77 1.400 . S
C75 N78 1.351 . S
C75 C80 1.501 . S
C76 C77 1.387 . S
C76 N79 1.341 . S
C77 C75 1.400 . S
C77 C76 1.387 . S
N78 Co69 2.022 . S
N78 C75 1.351 . S
N78 N79 1.365 . S
N79 C76 1.341 . S
N79 N78 1.365 . S
N79 H99 0.862 . S
C80 C75 1.501 . S
C80 H81 0.961 . S
C80 H82 0.961 . S
C80 H83 0.960 . S
H81 C80 0.961 . S
H82 C80 0.961 . S
H83 C80 0.960 . S
C84 N85 1.342 . S
C84 C88 1.401 . S
C84 C89 1.499 . S
N85 Co68 1.989 . S
N85 C84 1.342 . S
N85 N86 1.388 . S
N86 Co69 1.993 . S
N86 N85 1.388 . S
N86 C87 1.346 . S
C87 N86 1.346 . S
C87 C88 1.396 . S
C87 C97 1.510 . S
C88 C84 1.401 . S
C88 C87 1.396 . S
C89 C84 1.499 . S
C89 H90 0.959 . S
C89 H91 0.960 . S
C89 H92 0.961 . S
H90 C89 0.959 . S
H91 C89 0.960 . S
H92 C89 0.961 . S
O93 Co68 1.967 . S
O93 C101 1.258 . S
O94 Co69 1.941 . S
O94 C101 1.266 . S
H95 C97 0.959 . S
H96 C97 0.961 . S
C97 C87 1.510 . S
C97 H95 0.959 . S
C97 H96 0.961 . S
C97 H98 0.960 . S
H98 C97 0.960 . S
H99 N79 0.862 . S
O100 Co68 1.920 . S
O100 C73 1.289 . S
C101 O93 1.258 . S
C101 O94 1.266 . S
Co102 O105 1.970 . S
Co102 N119 1.989 . S
Co102 O127 1.967 . S
Co102 O134 1.920 . S
Co103 O106 1.966 . S
Co103 N112 2.022 . S
Co103 N120 1.993 . S
Co103 O128 1.941 . S
C104 O105 1.258 . S
C104 O106 1.263 . S
O105 Co102 1.970 . S
O105 C104 1.258 . S
O106 Co103 1.966 . S
O106 C104 1.263 . S
C107 O108 1.235 . S
C107 O134 1.289 . S
O108 C107 1.235 . S
C109 C111 1.400 . S
C109 N112 1.351 . S
C109 C114 1.501 . S
C110 C111 1.387 . S
C110 N113 1.341 . S
C111 C109 1.400 . S
C111 C110 1.387 . S
N112 Co103 2.022 . S
N112 C109 1.351 . S
N112 N113 1.365 . S
N113 C110 1.341 . S
N113 N112 1.365 . S
N113 H133 0.862 . S
C114 C109 1.501 . S
C114 H115 0.961 . S
C114 H116 0.961 . S
C114 H117 0.960 . S
H115 C114 0.961 . S
H116 C114 0.961 . S
H117 C114 0.960 . S
C118 N119 1.342 . S
C118 C122 1.401 . S
C118 C123 1.499 . S
N119 Co102 1.989 . S
N119 C118 1.342 . S
N119 N120 1.388 . S
N120 Co103 1.993 . S
N120 N119 1.388 . S
N120 C121 1.346 . S
C121 N120 1.346 . S
C121 C122 1.396 . S
C121 C131 1.510 . S
C122 C118 1.401 . S
C122 C121 1.396 . S
C123 C118 1.499 . S
C123 H124 0.959 . S
C123 H125 0.960 . S
C123 H126 0.961 . S
H124 C123 0.959 . S
H125 C123 0.960 . S
H126 C123 0.961 . S
O127 Co102 1.967 . S
O127 C135 1.258 . S
O128 Co103 1.941 . S
O128 C135 1.266 . S
H129 C131 0.959 . S
H130 C131 0.961 . S
C131 C121 1.510 . S
C131 H129 0.959 . S
C131 H130 0.961 . S
C131 H132 0.960 . S
H132 C131 0.960 . S
H133 N113 0.862 . S
O134 Co102 1.920 . S
O134 C107 1.289 . S
C135 O127 1.258 . S
C135 O128 1.266 . S
Co136 O139 1.970 . S
Co136 N153 1.989 . S
Co136 O161 1.967 . S
Co136 O168 1.920 . S
Co137 O140 1.966 . S
Co137 N146 2.022 . S
Co137 N154 1.993 . S
Co137 O162 1.941 . S
C138 O139 1.258 . S
C138 O140 1.263 . S
O139 Co136 1.970 . S
O139 C138 1.258 . S
O140 Co137 1.966 . S
O140 C138 1.263 . S
C141 O142 1.235 . S
C141 O168 1.289 . S
O142 C141 1.235 . S
C143 C145 1.400 . S
C143 N146 1.351 . S
C143 C148 1.501 . S
C144 C145 1.387 . S
C144 N147 1.341 . S
C145 C143 1.400 . S
C145 C144 1.387 . S
N146 Co137 2.022 . S
N146 C143 1.351 . S
N146 N147 1.365 . S
N147 C144 1.341 . S
N147 N146 1.365 . S
N147 H167 0.862 . S
C148 C143 1.501 . S
C148 H149 0.961 . S
C148 H150 0.961 . S
C148 H151 0.960 . S
H149 C148 0.961 . S
H150 C148 0.961 . S
H151 C148 0.960 . S
C152 N153 1.342 . S
C152 C156 1.401 . S
C152 C157 1.499 . S
N153 Co136 1.989 . S
N153 C152 1.342 . S
N153 N154 1.388 . S
N154 Co137 1.993 . S
N154 N153 1.388 . S
N154 C155 1.346 . S
C155 N154 1.346 . S
C155 C156 1.396 . S
C155 C165 1.510 . S
C156 C152 1.401 . S
C156 C155 1.396 . S
C157 C152 1.499 . S
C157 H158 0.959 . S
C157 H159 0.960 . S
C157 H160 0.961 . S
H158 C157 0.959 . S
H159 C157 0.960 . S
H160 C157 0.961 . S
O161 Co136 1.967 . S
O161 C169 1.258 . S
O162 Co137 1.941 . S
O162 C169 1.266 . S
H163 C165 0.959 . S
H164 C165 0.961 . S
C165 C155 1.510 . S
C165 H163 0.959 . S
C165 H164 0.961 . S
C165 H166 0.960 . S
H166 C165 0.960 . S
H167 N147 0.862 . S
O168 Co136 1.920 . S
O168 C141 1.289 . S
C169 O161 1.258 . S
C169 O162 1.266 . S
Co170 O173 1.970 . S
Co170 N187 1.989 . S
Co170 O195 1.967 . S
Co170 O202 1.920 . S
Co171 O174 1.966 . S
Co171 N180 2.022 . S
Co171 N188 1.993 . S
Co171 O196 1.941 . S
C172 O173 1.258 . S
C172 O174 1.263 . S
O173 Co170 1.970 . S
O173 C172 1.258 . S
O174 Co171 1.966 . S
O174 C172 1.263 . S
C175 O176 1.235 . S
C175 O202 1.289 . S
O176 C175 1.235 . S
C177 C179 1.400 . S
C177 N180 1.351 . S
C177 C182 1.501 . S
C178 C179 1.387 . S
C178 N181 1.341 . S
C179 C177 1.400 . S
C179 C178 1.387 . S
N180 Co171 2.022 . S
N180 C177 1.351 . S
N180 N181 1.365 . S
N181 C178 1.341 . S
N181 N180 1.365 . S
N181 H201 0.862 . S
C182 C177 1.501 . S
C182 H183 0.961 . S
C182 H184 0.961 . S
C182 H185 0.960 . S
H183 C182 0.961 . S
H184 C182 0.961 . S
H185 C182 0.960 . S
C186 N187 1.342 . S
C186 C190 1.401 . S
C186 C191 1.499 . S
N187 Co170 1.989 . S
N187 C186 1.342 . S
N187 N188 1.388 . S
N188 Co171 1.993 . S
N188 N187 1.388 . S
N188 C189 1.346 . S
C189 N188 1.346 . S
C189 C190 1.396 . S
C189 C199 1.510 . S
C190 C186 1.401 . S
C190 C189 1.396 . S
C191 C186 1.499 . S
C191 H192 0.959 . S
C191 H193 0.960 . S
C191 H194 0.961 . S
H192 C191 0.959 . S
H193 C191 0.960 . S
H194 C191 0.961 . S
O195 Co170 1.967 . S
O195 C203 1.258 . S
O196 Co171 1.941 . S
O196 C203 1.266 . S
H197 C199 0.959 . S
H198 C199 0.961 . S
C199 C189 1.510 . S
C199 H197 0.959 . S
C199 H198 0.961 . S
C199 H200 0.960 . S
H200 C199 0.960 . S
H201 N181 0.862 . S
O202 Co170 1.920 . S
O202 C175 1.289 . S
C203 O195 1.258 . S
C203 O196 1.266 . S
Co204 O207 1.970 . S
Co204 N221 1.989 . S
Co204 O229 1.967 . S
Co204 O236 1.920 . S
Co205 O208 1.966 . S
Co205 N214 2.022 . S
Co205 N222 1.993 . S
Co205 O230 1.941 . S
C206 O207 1.258 . S
C206 O208 1.263 . S
O207 Co204 1.970 . S
O207 C206 1.258 . S
O208 Co205 1.966 . S
O208 C206 1.263 . S
C209 O210 1.235 . S
C209 O236 1.289 . S
O210 C209 1.235 . S
C211 C213 1.400 . S
C211 N214 1.351 . S
C211 C216 1.501 . S
C212 C213 1.387 . S
C212 N215 1.341 . S
C213 C211 1.400 . S
C213 C212 1.387 . S
N214 Co205 2.022 . S
N214 C211 1.351 . S
N214 N215 1.365 . S
N215 C212 1.341 . S
N215 N214 1.365 . S
N215 H235 0.862 . S
C216 C211 1.501 . S
C216 H217 0.961 . S
C216 H218 0.961 . S
C216 H219 0.960 . S
H217 C216 0.961 . S
H218 C216 0.961 . S
H219 C216 0.960 . S
C220 N221 1.342 . S
C220 C224 1.401 . S
C220 C225 1.499 . S
N221 Co204 1.989 . S
N221 C220 1.342 . S
N221 N222 1.388 . S
N222 Co205 1.993 . S
N222 N221 1.388 . S
N222 C223 1.346 . S
C223 N222 1.346 . S
C223 C224 1.396 . S
C223 C233 1.510 . S
C224 C220 1.401 . S
C224 C223 1.396 . S
C225 C220 1.499 . S
C225 H226 0.959 . S
C225 H227 0.960 . S
C225 H228 0.961 . S
H226 C225 0.959 . S
H227 C225 0.960 . S
H228 C225 0.961 . S
O229 Co204 1.967 . S
O229 C237 1.258 . S
O230 Co205 1.941 . S
O230 C237 1.266 . S
H231 C233 0.959 . S
H232 C233 0.961 . S
C233 C223 1.510 . S
C233 H231 0.959 . S
C233 H232 0.961 . S
C233 H234 0.960 . S
H234 C233 0.960 . S
H235 N215 0.862 . S
O236 Co204 1.920 . S
O236 C209 1.289 . S
C237 O229 1.258 . S
C237 O230 1.266 . S
Co238 O241 1.970 . S
Co238 N255 1.989 . S
Co238 O263 1.967 . S
Co238 O270 1.920 . S
Co239 O242 1.966 . S
Co239 N248 2.022 . S
Co239 N256 1.993 . S
Co239 O264 1.941 . S
C240 O241 1.258 . S
C240 O242 1.263 . S
O241 Co238 1.970 . S
O241 C240 1.258 . S
O242 Co239 1.966 . S
O242 C240 1.263 . S
C243 O244 1.235 . S
C243 O270 1.289 . S
O244 C243 1.235 . S
C245 C247 1.400 . S
C245 N248 1.351 . S
C245 C250 1.501 . S
C246 C247 1.387 . S
C246 N249 1.341 . S
C247 C245 1.400 . S
C247 C246 1.387 . S
N248 Co239 2.022 . S
N248 C245 1.351 . S
N248 N249 1.365 . S
N249 C246 1.341 . S
N249 N248 1.365 . S
N249 H269 0.862 . S
C250 C245 1.501 . S
C250 H251 0.961 . S
C250 H252 0.961 . S
C250 H253 0.960 . S
H251 C250 0.961 . S
H252 C250 0.961 . S
H253 C250 0.960 . S
C254 N255 1.342 . S
C254 C258 1.401 . S
C254 C259 1.499 . S
N255 Co238 1.989 . S
N255 C254 1.342 . S
N255 N256 1.388 . S
N256 Co239 1.993 . S
N256 N255 1.388 . S
N256 C257 1.346 . S
C257 N256 1.346 . S
C257 C258 1.396 . S
C257 C267 1.510 . S
C258 C254 1.401 . S
C258 C257 1.396 . S
C259 C254 1.499 . S
C259 H260 0.959 . S
C259 H261 0.960 . S
C259 H262 0.961 . S
H260 C259 0.959 . S
H261 C259 0.960 . S
H262 C259 0.961 . S
O263 Co238 1.967 . S
O263 C271 1.258 . S
O264 Co239 1.941 . S
O264 C271 1.266 . S
H265 C267 0.959 . S
H266 C267 0.961 . S
C267 C257 1.510 . S
C267 H265 0.959 . S
C267 H266 0.961 . S
C267 H268 0.960 . S
H268 C267 0.960 . S
H269 N249 0.862 . S
O270 Co238 1.920 . S
O270 C243 1.289 . S
C271 O263 1.258 . S
C271 O264 1.266 . S
Co272 O275 1.970 . S
Co272 N289 1.989 . S
Co272 O297 1.967 . S
Co272 O304 1.920 . S
Co273 O276 1.966 . S
Co273 N282 2.022 . S
Co273 N290 1.993 . S
Co273 O298 1.941 . S
C274 O275 1.258 . S
C274 O276 1.263 . S
O275 Co272 1.970 . S
O275 C274 1.258 . S
O276 Co273 1.966 . S
O276 C274 1.263 . S
C277 O278 1.235 . S
C277 O304 1.289 . S
O278 C277 1.235 . S
C279 C281 1.400 . S
C279 N282 1.351 . S
C279 C284 1.501 . S
C280 C281 1.387 . S
C280 N283 1.341 . S
C281 C279 1.400 . S
C281 C280 1.387 . S
N282 Co273 2.022 . S
N282 C279 1.351 . S
N282 N283 1.365 . S
N283 C280 1.341 . S
N283 N282 1.365 . S
N283 H303 0.862 . S
C284 C279 1.501 . S
C284 H285 0.961 . S
C284 H286 0.961 . S
C284 H287 0.960 . S
H285 C284 0.961 . S
H286 C284 0.961 . S
H287 C284 0.960 . S
C288 N289 1.342 . S
C288 C292 1.401 . S
C288 C293 1.499 . S
N289 Co272 1.989 . S
N289 C288 1.342 . S
N289 N290 1.388 . S
N290 Co273 1.993 . S
N290 N289 1.388 . S
N290 C291 1.346 . S
C291 N290 1.346 . S
C291 C292 1.396 . S
C291 C301 1.510 . S
C292 C288 1.401 . S
C292 C291 1.396 . S
C293 C288 1.499 . S
C293 H294 0.959 . S
C293 H295 0.960 . S
C293 H296 0.961 . S
H294 C293 0.959 . S
H295 C293 0.960 . S
H296 C293 0.961 . S
O297 Co272 1.967 . S
O297 C305 1.258 . S
O298 Co273 1.941 . S
O298 C305 1.266 . S
H299 C301 0.959 . S
H300 C301 0.961 . S
C301 C291 1.510 . S
C301 H299 0.959 . S
C301 H300 0.961 . S
C301 H302 0.960 . S
H302 C301 0.960 . S
H303 N283 0.862 . S
O304 Co272 1.920 . S
O304 C277 1.289 . S
C305 O297 1.258 . S
C305 O298 1.266 . S
Co306 O309 1.970 . S
Co306 N323 1.989 . S
Co306 O331 1.967 . S
Co306 O338 1.920 . S
Co307 O310 1.966 . S
Co307 N316 2.022 . S
Co307 N324 1.993 . S
Co307 O332 1.941 . S
C308 O309 1.258 . S
C308 O310 1.263 . S
O309 Co306 1.970 . S
O309 C308 1.258 . S
O310 Co307 1.966 . S
O310 C308 1.263 . S
C311 O312 1.235 . S
C311 O338 1.289 . S
O312 C311 1.235 . S
C313 C315 1.400 . S
C313 N316 1.351 . S
C313 C318 1.501 . S
C314 C315 1.387 . S
C314 N317 1.341 . S
C315 C313 1.400 . S
C315 C314 1.387 . S
N316 Co307 2.022 . S
N316 C313 1.351 . S
N316 N317 1.365 . S
N317 C314 1.341 . S
N317 N316 1.365 . S
N317 H337 0.862 . S
C318 C313 1.501 . S
C318 H319 0.961 . S
C318 H320 0.961 . S
C318 H321 0.960 . S
H319 C318 0.961 . S
H320 C318 0.961 . S
H321 C318 0.960 . S
C322 N323 1.342 . S
C322 C326 1.401 . S
C322 C327 1.499 . S
N323 Co306 1.989 . S
N323 C322 1.342 . S
N323 N324 1.388 . S
N324 Co307 1.993 . S
N324 N323 1.388 . S
N324 C325 1.346 . S
C325 N324 1.346 . S
C325 C326 1.396 . S
C325 C335 1.510 . S
C326 C322 1.401 . S
C326 C325 1.396 . S
C327 C322 1.499 . S
C327 H328 0.959 . S
C327 H329 0.960 . S
C327 H330 0.961 . S
H328 C327 0.959 . S
H329 C327 0.960 . S
H330 C327 0.961 . S
O331 Co306 1.967 . S
O331 C339 1.258 . S
O332 Co307 1.941 . S
O332 C339 1.266 . S
H333 C335 0.959 . S
H334 C335 0.961 . S
C335 C325 1.510 . S
C335 H333 0.959 . S
C335 H334 0.961 . S
C335 H336 0.960 . S
H336 C335 0.960 . S
H337 N317 0.862 . S
O338 Co306 1.920 . S
O338 C311 1.289 . S
C339 O331 1.258 . S
C339 O332 1.266 . S
Co340 O343 1.970 . S
Co340 N357 1.989 . S
Co340 O365 1.967 . S
Co340 O372 1.920 . S
Co341 O344 1.966 . S
Co341 N350 2.022 . S
Co341 N358 1.993 . S
Co341 O366 1.941 . S
C342 O343 1.258 . S
C342 O344 1.263 . S
O343 Co340 1.970 . S
O343 C342 1.258 . S
O344 Co341 1.966 . S
O344 C342 1.263 . S
C345 O346 1.235 . S
C345 O372 1.289 . S
O346 C345 1.235 . S
C347 C349 1.400 . S
C347 N350 1.351 . S
C347 C352 1.501 . S
C348 C349 1.387 . S
C348 N351 1.341 . S
C349 C347 1.400 . S
C349 C348 1.387 . S
N350 Co341 2.022 . S
N350 C347 1.351 . S
N350 N351 1.365 . S
N351 C348 1.341 . S
N351 N350 1.365 . S
N351 H371 0.862 . S
C352 C347 1.501 . S
C352 H353 0.961 . S
C352 H354 0.961 . S
C352 H355 0.960 . S
H353 C352 0.961 . S
H354 C352 0.961 . S
H355 C352 0.960 . S
C356 N357 1.342 . S
C356 C360 1.401 . S
C356 C361 1.499 . S
N357 Co340 1.989 . S
N357 C356 1.342 . S
N357 N358 1.388 . S
N358 Co341 1.993 . S
N358 N357 1.388 . S
N358 C359 1.346 . S
C359 N358 1.346 . S
C359 C360 1.396 . S
C359 C369 1.510 . S
C360 C356 1.401 . S
C360 C359 1.396 . S
C361 C356 1.499 . S
C361 H362 0.959 . S
C361 H363 0.960 . S
C361 H364 0.961 . S
H362 C361 0.959 . S
H363 C361 0.960 . S
H364 C361 0.961 . S
O365 Co340 1.967 . S
O365 C373 1.258 . S
O366 Co341 1.941 . S
O366 C373 1.266 . S
H367 C369 0.959 . S
H368 C369 0.961 . S
C369 C359 1.510 . S
C369 H367 0.959 . S
C369 H368 0.961 . S
C369 H370 0.960 . S
H370 C369 0.960 . S
H371 N351 0.862 . S
O372 Co340 1.920 . S
O372 C345 1.289 . S
C373 O365 1.258 . S
C373 O366 1.266 . S
Co374 O377 1.970 . S
Co374 N391 1.989 . S
Co374 O399 1.967 . S
Co374 O406 1.920 . S
Co375 O378 1.966 . S
Co375 N384 2.022 . S
Co375 N392 1.993 . S
Co375 O400 1.941 . S
C376 O377 1.258 . S
C376 O378 1.263 . S
O377 Co374 1.970 . S
O377 C376 1.258 . S
O378 Co375 1.966 . S
O378 C376 1.263 . S
C379 O380 1.235 . S
C379 O406 1.289 . S
O380 C379 1.235 . S
C381 C383 1.400 . S
C381 N384 1.351 . S
C381 C386 1.501 . S
C382 C383 1.387 . S
C382 N385 1.341 . S
C383 C381 1.400 . S
C383 C382 1.387 . S
N384 Co375 2.022 . S
N384 C381 1.351 . S
N384 N385 1.365 . S
N385 C382 1.341 . S
N385 N384 1.365 . S
N385 H405 0.862 . S
C386 C381 1.501 . S
C386 H387 0.961 . S
C386 H388 0.961 . S
C386 H389 0.960 . S
H387 C386 0.961 . S
H388 C386 0.961 . S
H389 C386 0.960 . S
C390 N391 1.342 . S
C390 C394 1.401 . S
C390 C395 1.499 . S
N391 Co374 1.989 . S
N391 C390 1.342 . S
N391 N392 1.388 . S
N392 Co375 1.993 . S
N392 N391 1.388 . S
N392 C393 1.346 . S
C393 N392 1.346 . S
C393 C394 1.396 . S
C393 C403 1.510 . S
C394 C390 1.401 . S
C394 C393 1.396 . S
C395 C390 1.499 . S
C395 H396 0.959 . S
C395 H397 0.960 . S
C395 H398 0.961 . S
H396 C395 0.959 . S
H397 C395 0.960 . S
H398 C395 0.961 . S
O399 Co374 1.967 . S
O399 C407 1.258 . S
O400 Co375 1.941 . S
O400 C407 1.266 . S
H401 C403 0.959 . S
H402 C403 0.961 . S
C403 C393 1.510 . S
C403 H401 0.959 . S
C403 H402 0.961 . S
C403 H404 0.960 . S
H404 C403 0.960 . S
H405 N385 0.862 . S
O406 Co374 1.920 . S
O406 C379 1.289 . S
C407 O399 1.258 . S
C407 O400 1.266 . S
C408 C409 1.369 . S
C408 C410 1.419 . S
C408 H412 0.930 . S
C409 C408 1.369 . S
C409 C418 1.429 . S
C410 C408 1.419 . S
C410 C411 1.363 . S
C410 H413 0.929 . S
C411 C410 1.363 . S
C411 C417 1.428 . S
H412 C408 0.930 . S
H413 C410 0.929 . S
S414 N415 1.613 . S
S414 N416 1.610 . S
N415 S414 1.613 . S
N415 C418 1.350 . S
N416 S414 1.610 . S
N416 C417 1.351 . S
C417 C411 1.428 . S
C417 N416 1.351 . S
C417 C418 1.434 . S
C418 C409 1.429 . S
C418 N415 1.350 . S
C418 C417 1.434 . S
C419 C420 1.369 . S
C419 C421 1.419 . S
C419 H423 0.930 . S
C420 C419 1.369 . S
C420 C429 1.429 1_655 S
C421 C419 1.419 . S
C421 C422 1.363 1_655 S
C421 H424 0.929 . S
C422 C421 1.363 1_455 S
C422 C428 1.428 . S
H423 C419 0.930 . S
H424 C421 0.929 . S
S425 N426 1.613 . S
S425 N427 1.610 . S
N426 S425 1.613 . S
N426 C429 1.350 . S
N427 S425 1.610 . S
N427 C428 1.351 . S
C428 C422 1.428 . S
C428 N427 1.351 . S
C428 C429 1.434 . S
C429 C420 1.429 1_455 S
C429 N426 1.350 . S
C429 C428 1.434 . S
C430 C431 1.369 . S
C430 C432 1.405 1_545 S
C430 H434 0.930 . S
C431 C430 1.369 . S
C431 C440 1.429 . S
C432 C430 1.405 1_565 S
C432 C433 1.372 . S
C432 H435 0.932 . S
C433 C432 1.372 . S
C433 C439 1.428 . S
H434 C430 0.930 . S
H435 C432 0.932 . S
S436 N437 1.613 1_565 S
S436 N438 1.610 . S
N437 S436 1.613 1_545 S
N437 C440 1.350 . S
N438 S436 1.610 . S
N438 C439 1.351 . S
C439 C433 1.428 . S
C439 N438 1.351 . S
C439 C440 1.434 1_565 S
C440 C431 1.429 . S
C440 N437 1.350 . S
C440 C439 1.434 1_545 S
C441 C442 1.369 . S
C441 C443 1.419 . S
C441 H445 0.930 . S
C442 C441 1.369 . S
C442 C451 1.429 . S
C443 C441 1.419 . S
C443 C444 1.363 . S
C443 H446 0.929 . S
C444 C443 1.363 . S
C444 C450 1.428 . S
H445 C441 0.930 . S
H446 C443 0.929 . S
S447 N448 1.613 . S
S447 N449 1.610 . S
N448 S447 1.613 . S
N448 C451 1.350 . S
N449 S447 1.610 . S
N449 C450 1.351 . S
C450 C444 1.428 . S
C450 N449 1.351 . S
C450 C451 1.434 . S
C451 C442 1.429 . S
C451 N448 1.350 . S
C451 C450 1.434 . S
C452 C453 1.369 1_655 S
C452 C454 1.419 . S
C452 H456 0.930 . S
C453 C452 1.369 1_455 S
C453 C462 1.429 . S
C454 C452 1.419 . S
C454 C455 1.363 . S
C454 H457 0.929 . S
C455 C454 1.363 . S
C455 C461 1.428 1_655 S
H456 C452 0.930 . S
H457 C454 0.929 . S
S458 N459 1.613 . S
S458 N460 1.610 . S
N459 S458 1.613 . S
N459 C462 1.350 . S
N460 S458 1.610 . S
N460 C461 1.351 . S
C461 C455 1.428 1_455 S
C461 N460 1.351 . S
C461 C462 1.434 . S
C462 C453 1.429 . S
C462 N459 1.350 . S
C462 C461 1.434 . S
C463 C464 1.369 . S
C463 C465 1.419 . S
C463 H467 0.930 . S
C464 C463 1.369 . S
C464 C473 1.429 1_565 S
C465 C463 1.419 . S
C465 C466 1.363 1_565 S
C465 H468 0.929 . S
C466 C465 1.363 1_545 S
C466 C472 1.428 . S
H467 C463 0.930 . S
H468 C465 0.929 . S
S469 N470 1.613 . S
S469 N471 1.610 . S
N470 S469 1.613 . S
N470 C473 1.350 . S
N471 S469 1.610 . S
N471 C472 1.351 . S
C472 C466 1.428 . S
C472 N471 1.351 . S
C472 C473 1.434 . S
C473 C464 1.429 1_545 S
C473 N470 1.350 . S
C473 C472 1.434 . S
C474 C475 1.369 . S
C474 C476 1.419 1_554 S
C474 H478 0.930 . S
C475 C474 1.369 . S
C475 C484 1.429 . S
C476 C474 1.419 1_556 S
C476 C477 1.363 . S
C476 H479 0.929 . S
C477 C476 1.363 . S
C477 C483 1.428 . S
H478 C474 0.930 . S
H479 C476 0.929 . S
S480 N481 1.613 . S
S480 N482 1.610 1_554 S
N481 S480 1.613 . S
N481 C484 1.350 . S
N482 S480 1.610 1_556 S
N482 C483 1.351 . S
C483 C477 1.428 . S
C483 N482 1.351 . S
C483 C484 1.434 1_556 S
C484 C475 1.429 . S
C484 N481 1.350 . S
C484 C483 1.434 1_554 S
C485 C486 1.369 . S
C485 C487 1.419 . S
C485 H489 0.930 . S
C486 C485 1.369 . S
C486 C495 1.429 . S
C487 C485 1.419 . S
C487 C488 1.363 . S
C487 H490 0.929 . S
C488 C487 1.363 . S
C488 C494 1.428 . S
H489 C485 0.930 . S
H490 C487 0.929 . S
S491 N492 1.613 . S
S491 N493 1.610 . S
N492 S491 1.613 . S
N492 C495 1.350 . S
N493 S491 1.610 . S
N493 C494 1.351 . S
C494 C488 1.428 . S
C494 N493 1.351 . S
C494 C495 1.434 . S
C495 C486 1.429 . S
C495 N492 1.350 . S
C495 C494 1.434 . S
C496 C497 1.369 . S
C496 C498 1.419 . S
C496 H500 0.930 . S
C497 C496 1.369 . S
C497 C506 1.429 . S
C498 C496 1.419 . S
C498 C499 1.363 . S
C498 H501 0.929 . S
C499 C498 1.363 . S
C499 C505 1.428 . S
H500 C496 0.930 . S
H501 C498 0.929 . S
S502 N503 1.613 . S
S502 N504 1.610 . S
N503 S502 1.613 . S
N503 C506 1.350 . S
N504 S502 1.610 . S
N504 C505 1.351 . S
C505 C499 1.428 . S
C505 N504 1.351 . S
C505 C506 1.434 . S
C506 C497 1.429 . S
C506 N503 1.350 . S
C506 C505 1.434 . S
C507 C508 1.369 . S
C507 C509 1.419 1_554 S
C507 H511 0.930 . S
C508 C507 1.369 . S
C508 C517 1.429 . S
C509 C507 1.419 1_556 S
C509 C510 1.363 . S
C509 H512 0.929 . S
C510 C509 1.363 . S
C510 C516 1.428 . S
H511 C507 0.930 . S
H512 C509 0.929 . S
S513 N514 1.613 1_556 S
S513 N515 1.610 . S
N514 S513 1.613 1_554 S
N514 C517 1.350 . S
N515 S513 1.610 . S
N515 C516 1.351 . S
C516 C510 1.428 . S
C516 N515 1.351 . S
C516 C517 1.434 1_556 S
C517 C508 1.429 . S
C517 N514 1.350 . S
C517 C516 1.434 1_554 S
C518 C519 1.369 . S
C518 C520 1.419 . S
C518 H522 0.930 . S
C519 C518 1.369 . S
C519 C528 1.429 . S
C520 C518 1.419 . S
C520 C521 1.363 . S
C520 H523 0.929 . S
C521 C520 1.363 . S
C521 C527 1.428 . S
H522 C518 0.930 . S
H523 C520 0.929 . S
S524 N525 1.613 . S
S524 N526 1.610 . S
N525 S524 1.613 . S
N525 C528 1.350 . S
N526 S524 1.610 . S
N526 C527 1.351 . S
C527 C521 1.428 . S
C527 N526 1.351 . S
C527 C528 1.434 . S
C528 C519 1.429 . S
C528 N525 1.350 . S
C528 C527 1.434 . S
C529 C530 1.369 . S
C529 C531 1.419 . S
C529 H533 0.930 . S
C530 C529 1.369 . S
C530 C539 1.429 . S
C531 C529 1.419 . S
C531 C532 1.363 . S
C531 H534 0.929 . S
C532 C531 1.363 . S
C532 C538 1.428 . S
H533 C529 0.930 . S
H534 C531 0.929 . S
S535 N536 1.613 1_565 S
S535 N537 1.610 1_565 S
N536 S535 1.613 1_545 S
N536 C539 1.350 . S
N537 S535 1.610 1_545 S
N537 C538 1.351 . S
C538 C532 1.428 . S
C538 N537 1.351 . S
C538 C539 1.434 . S
C539 C530 1.429 . S
C539 N536 1.350 . S
C539 C538 1.434 . S
C540 C541 1.369 . S
C540 C542 1.419 . S
C540 H544 0.930 . S
C541 C540 1.369 . S
C541 C550 1.429 . S
C542 C540 1.419 . S
C542 C543 1.363 . S
C542 H545 0.929 . S
C543 C542 1.363 . S
C543 C549 1.428 . S
H544 C540 0.930 . S
H545 C542 0.929 . S
S546 N547 1.613 . S
S546 N548 1.610 . S
N547 S546 1.613 . S
N547 C550 1.350 . S
N548 S546 1.610 . S
N548 C549 1.351 . S
C549 C543 1.428 . S
C549 N548 1.351 . S
C549 C550 1.434 . S
C550 C541 1.429 . S
C550 N547 1.350 . S
C550 C549 1.434 . S
C551 C552 1.369 1_455 S
C551 C553 1.419 . S
C551 H555 0.930 . S
C552 C551 1.369 1_655 S
C552 C561 1.429 . S
C553 C551 1.419 . S
C553 C554 1.363 . S
C553 H556 0.929 . S
C554 C553 1.363 . S
C554 C560 1.428 1_455 S
H555 C551 0.930 . S
H556 C553 0.929 . S
S557 N558 1.613 . S
S557 N559 1.610 . S
N558 S557 1.613 . S
N558 C561 1.350 . S
N559 S557 1.610 . S
N559 C560 1.351 . S
C560 C554 1.428 1_655 S
C560 N559 1.351 . S
C560 C561 1.434 . S
C561 C552 1.429 . S
C561 N558 1.350 . S
C561 C560 1.434 . S
C562 C563 1.369 . S
C562 C564 1.411 1_566 S
C562 H566 0.930 . S
C563 C562 1.369 . S
C563 C572 1.429 1_565 S
C564 C562 1.411 1_544 S
C564 C565 1.378 . S
C564 H567 0.922 1_545 S
C565 C564 1.378 . S
C565 C571 1.428 . S
H566 C562 0.930 . S
H567 C564 0.922 1_565 S
S568 N569 1.613 . S
S568 N570 1.610 1_556 S
N569 S568 1.613 . S
N569 C572 1.350 . S
N570 S568 1.610 1_554 S
N570 C571 1.351 . S
C571 C565 1.428 . S
C571 N570 1.351 . S
C571 C572 1.434 1_554 S
C572 C563 1.429 1_545 S
C572 N569 1.350 . S
C572 C571 1.434 1_556 S
C573 C574 1.369 . S
C573 C575 1.419 . S
C573 H577 0.930 . S
C574 C573 1.369 . S
C574 C583 1.429 . S
C575 C573 1.419 . S
C575 C576 1.363 . S
C575 H578 0.929 . S
C576 C575 1.363 . S
C576 C582 1.428 . S
H577 C573 0.930 . S
H578 C575 0.929 . S
S579 N580 1.613 . S
S579 N581 1.610 . S
N580 S579 1.613 . S
N580 C583 1.350 . S
N581 S579 1.610 . S
N581 C582 1.351 . S
C582 C576 1.428 . S
C582 N581 1.351 . S
C582 C583 1.434 . S
C583 C574 1.429 . S
C583 N580 1.350 . S
C583 C582 1.434 . S
C584 C585 1.369 . S
C584 C586 1.419 . S
C584 H588 0.930 . S
C585 C584 1.369 . S
C585 C594 1.429 1_655 S
C586 C584 1.419 . S
C586 C587 1.363 1_655 S
C586 H589 0.929 . S
C587 C586 1.363 1_455 S
C587 C593 1.428 . S
H588 C584 0.930 . S
H589 C586 0.929 . S
S590 N591 1.613 . S
S590 N592 1.610 . S
N591 S590 1.613 . S
N591 C594 1.350 . S
N592 S590 1.610 . S
N592 C593 1.351 . S
C593 C587 1.428 . S
C593 N592 1.351 . S
C593 C594 1.434 . S
C594 C585 1.429 1_455 S
C594 N591 1.350 . S
C594 C593 1.434 . S
C595 C596 1.391 . S
C595 C597 1.398 1_554 S
C595 H599 0.929 1_554 S
C596 C595 1.391 . S
C596 C605 1.429 1_565 S
C597 C595 1.398 1_556 S
C597 C598 1.363 1_565 S
C597 H600 0.929 . S
C598 C597 1.363 1_545 S
C598 C604 1.415 1_556 S
H599 C595 0.929 1_556 S
H600 C597 0.929 . S
S601 N602 1.613 . S
S601 N603 1.610 . S
N602 S601 1.613 . S
N602 C605 1.350 . S
N603 S601 1.610 . S
N603 C604 1.353 . S
C604 C598 1.415 1_554 S
C604 N603 1.353 . S
C604 C605 1.447 . S
C605 C596 1.429 1_545 S
C605 N602 1.350 . S
C605 C604 1.447 . S
C606 C607 1.369 . S
C606 C608 1.419 . S
C606 H610 0.930 . S
C607 C606 1.369 . S
C607 C616 1.429 . S
C608 C606 1.419 . S
C608 C609 1.363 . S
C608 H611 0.929 . S
C609 C608 1.363 . S
C609 C615 1.428 . S
H610 C606 0.930 . S
H611 C608 0.929 . S
S612 N613 1.613 . S
S612 N614 1.610 . S
N613 S612 1.613 . S
N613 C616 1.350 . S
N614 S612 1.610 . S
N614 C615 1.351 . S
C615 C609 1.428 . S
C615 N614 1.351 . S
C615 C616 1.434 . S
C616 C607 1.429 . S
C616 N613 1.350 . S
C616 C615 1.434 . S
C617 C618 1.369 . S
C617 C619 1.419 . S
C617 H621 0.930 . S
C618 C617 1.369 . S
C618 C627 1.429 . S
C619 C617 1.419 . S
C619 C620 1.363 . S
C619 H622 0.929 . S
C620 C619 1.363 . S
C620 C626 1.428 . S
H621 C617 0.930 . S
H622 C619 0.929 . S
S623 N624 1.613 . S
S623 N625 1.610 . S
N624 S623 1.613 . S
N624 C627 1.350 . S
N625 S623 1.610 . S
N625 C626 1.351 . S
C626 C620 1.428 . S
C626 N625 1.351 . S
C626 C627 1.434 . S
C627 C618 1.429 . S
C627 N624 1.350 . S
C627 C626 1.434 . S
C628 C629 1.369 1_554 S
C628 C630 1.419 . S
C628 H632 0.930 . S
C629 C628 1.369 1_556 S
C629 C638 1.429 . S
C630 C628 1.419 . S
C630 C631 1.363 . S
C630 H633 0.929 . S
C631 C630 1.363 . S
C631 C637 1.428 1_554 S
H632 C628 0.930 . S
H633 C630 0.929 . S
S634 N635 1.613 . S
S634 N636 1.610 . S
N635 S634 1.613 . S
N635 C638 1.350 . S
N636 S634 1.610 . S
N636 C637 1.351 . S
C637 C631 1.428 1_556 S
C637 N636 1.351 . S
C637 C638 1.434 . S
C638 C629 1.429 . S
C638 N635 1.350 . S
C638 C637 1.434 . S
C639 C640 1.369 . S
C639 C641 1.419 . S
C639 H643 0.930 . S
C640 C639 1.369 . S
C640 C649 1.429 . S
C641 C639 1.419 . S
C641 C642 1.363 . S
C641 H644 0.929 . S
C642 C641 1.363 . S
C642 C648 1.428 . S
H643 C639 0.930 . S
H644 C641 0.929 . S
S645 N646 1.613 . S
S645 N647 1.610 . S
N646 S645 1.613 . S
N646 C649 1.350 . S
N647 S645 1.610 . S
N647 C648 1.351 . S
C648 C642 1.428 . S
C648 N647 1.351 . S
C648 C649 1.434 . S
C649 C640 1.429 . S
C649 N646 1.350 . S
C649 C648 1.434 . S
C650 C651 1.369 . S
C650 C652 1.419 . S
C650 H654 0.930 . S
C651 C650 1.369 . S
C651 C660 1.429 . S
C652 C650 1.419 . S
C652 C653 1.363 . S
C652 H655 0.929 . S
C653 C652 1.363 . S
C653 C659 1.428 . S
H654 C650 0.930 . S
H655 C652 0.929 . S
S656 N657 1.613 . S
S656 N658 1.610 . S
N657 S656 1.613 . S
N657 C660 1.350 . S
N658 S656 1.610 . S
N658 C659 1.351 . S
C659 C653 1.428 . S
C659 N658 1.351 . S
C659 C660 1.434 . S
C660 C651 1.429 . S
C660 N657 1.350 . S
C660 C659 1.434 . S
C661 C662 1.369 . S
C661 C663 1.419 . S
C661 H665 0.930 . S
C662 C661 1.369 . S
C662 C671 1.429 1_554 S
C663 C661 1.419 . S
C663 C664 1.363 1_554 S
C663 H666 0.929 . S
C664 C663 1.363 1_556 S
C664 C670 1.428 . S
H665 C661 0.930 . S
H666 C663 0.929 . S
S667 N668 1.613 . S
S667 N669 1.610 . S
N668 S667 1.613 . S
N668 C671 1.350 . S
N669 S667 1.610 . S
N669 C670 1.351 . S
C670 C664 1.428 . S
C670 N669 1.351 . S
C670 C671 1.434 . S
C671 C662 1.429 1_556 S
C671 N668 1.350 . S
C671 C670 1.434 . S
C672 C673 1.369 . S
C672 C674 1.419 . S
C672 H676 0.930 . S
C673 C672 1.369 . S
C673 C682 1.429 . S
C674 C672 1.419 . S
C674 C675 1.363 . S
C674 H677 0.929 . S
C675 C674 1.363 . S
C675 C681 1.428 . S
H676 C672 0.930 . S
H677 C674 0.929 . S
S678 N679 1.613 . S
S678 N680 1.610 . S
N679 S678 1.613 . S
N679 C682 1.350 . S
N680 S678 1.610 . S
N680 C681 1.351 . S
C681 C675 1.428 . S
C681 N680 1.351 . S
C681 C682 1.434 . S
C682 C673 1.429 . S
C682 N679 1.350 . S
C682 C681 1.434 . S
C683 C684 1.369 . S
C683 C685 1.419 . S
C683 H687 0.930 . S
C684 C683 1.369 . S
C684 C693 1.429 . S
C685 C683 1.419 . S
C685 C686 1.363 . S
C685 H688 0.929 . S
C686 C685 1.363 . S
C686 C692 1.428 . S
H687 C683 0.930 . S
H688 C685 0.929 . S
S689 N690 1.613 . S
S689 N691 1.610 . S
N690 S689 1.613 . S
N690 C693 1.350 . S
N691 S689 1.610 . S
N691 C692 1.351 . S
C692 C686 1.428 . S
C692 N691 1.351 . S
C692 C693 1.434 . S
C693 C684 1.429 . S
C693 N690 1.350 . S
C693 C692 1.434 . S
C694 C695 1.369 . S
C694 C696 1.419 . S
C694 H698 0.930 . S
C695 C694 1.369 . S
C695 C704 1.429 . S
C696 C694 1.419 . S
C696 C697 1.363 . S
C696 H699 0.929 . S
C697 C696 1.363 . S
C697 C703 1.428 . S
H698 C694 0.930 . S
H699 C696 0.929 . S
S700 N701 1.613 . S
S700 N702 1.610 . S
N701 S700 1.613 . S
N701 C704 1.350 . S
N702 S700 1.610 . S
N702 C703 1.351 . S
C703 C697 1.428 . S
C703 N702 1.351 . S
C703 C704 1.434 . S
C704 C695 1.429 . S
C704 N701 1.350 . S
C704 C703 1.434 . S
C705 C706 1.369 . S
C705 C707 1.419 . S
C705 H709 0.930 . S
C706 C705 1.369 . S
C706 C715 1.429 . S
C707 C705 1.419 . S
C707 C708 1.363 . S
C707 H710 0.929 . S
C708 C707 1.363 . S
C708 C714 1.428 . S
H709 C705 0.930 . S
H710 C707 0.929 . S
S711 N712 1.613 . S
S711 N713 1.610 . S
N712 S711 1.613 . S
N712 C715 1.350 . S
N713 S711 1.610 . S
N713 C714 1.351 . S
C714 C708 1.428 . S
C714 N713 1.351 . S
C714 C715 1.434 . S
C715 C706 1.429 . S
C715 N712 1.350 . S
C715 C714 1.434 . S
C716 C717 1.369 . S
C716 C718 1.419 . S
C716 H720 0.930 . S
C717 C716 1.369 . S
C717 C726 1.429 . S
C718 C716 1.419 . S
C718 C719 1.363 . S
C718 H721 0.929 . S
C719 C718 1.363 . S
C719 C725 1.428 . S
H720 C716 0.930 . S
H721 C718 0.929 . S
S722 N723 1.613 . S
S722 N724 1.610 . S
N723 S722 1.613 . S
N723 C726 1.350 . S
N724 S722 1.610 . S
N724 C725 1.351 . S
C725 C719 1.428 . S
C725 N724 1.351 . S
C725 C726 1.434 . S
C726 C717 1.429 . S
C726 N723 1.350 . S
C726 C725 1.434 . S
C727 C728 1.369 . S
C727 C729 1.419 . S
C727 H731 0.930 . S
C728 C727 1.369 . S
C728 C737 1.429 . S
C729 C727 1.419 . S
C729 C730 1.363 . S
C729 H732 0.929 . S
C730 C729 1.363 . S
C730 C736 1.428 . S
H731 C727 0.930 . S
H732 C729 0.929 . S
S733 N734 1.613 . S
S733 N735 1.610 . S
N734 S733 1.613 . S
N734 C737 1.350 . S
N735 S733 1.610 . S
N735 C736 1.351 . S
C736 C730 1.428 . S
C736 N735 1.351 . S
C736 C737 1.434 . S
C737 C728 1.429 . S
C737 N734 1.350 . S
C737 C736 1.434 . S
C409 C135 1.536 . S
C411 C33 1.530 . S
C420 C67 1.530 . S
C422 C169 1.531 . S
C431 C203 1.530 . S
C433 C101 1.532 . S
C442 C237 1.531 . S
C444 C339 1.531 . S
C453 C373 1.530 . S
C455 C271 1.535 . S
C464 C305 1.534 . S
C466 C407 1.529 . S
C475 C9 1.786 . S
C477 C349 1.791 . S
C486 C383 1.793 . S
C488 C43 1.788 . S
C497 C77 1.792 . S
C499 C213 1.788 . S
C508 C111 1.792 . S
C510 C247 1.788 . S
C519 C145 1.799 . S
C521 C281 1.790 . S
C530 C179 1.789 . S
C532 C315 1.797 . S
C541 C308 2.024 . S
C543 C2 2.027 . S
C552 C36 2.025 . S
C554 C342 2.028 . S
C563 C70 2.023 . S
C565 C376 2.021 . S
C574 C206 2.020 . S
C576 C104 2.023 . S
C585 C240 2.026 . S
C587 C138 2.023 . S
C596 C274 2.028 . S
C598 C172 2.025 . S
C607 C5 1.513 . S
C609 C209 1.509 . S
C618 C39 1.503 . S
C620 C243 1.516 . S
C629 C277 1.518 1_556 S
C631 C73 1.505 1_554 S
C640 C107 1.506 . S
C642 C311 1.515 . S
C651 C345 1.505 . S
C653 C141 1.515 . S
C662 C175 1.509 1_554 S
C664 C379 1.512 1_556 S
C673 C292 1.320 . S
C675 C20 1.321 . S
C684 C326 1.319 . S
C686 C54 1.320 . S
C695 C360 1.320 . S
C697 C88 1.319 . S
C706 C122 1.321 . S
C708 C394 1.321 . S
C717 C224 1.321 . S
C719 C156 1.320 . S
C728 C258 1.320 . S
C730 C190 1.319 . S
