# Generated by pormake.
# Topology umf, (4)-cn, num edge types: 1
# Building blocks:
#     Node 0, Type 0, BuildingBlock: QUQFOY_clean_sbu_3, # of connection points: 4
#     Node 1, Type 0, BuildingBlock: QUQFOY_clean_sbu_3, # of connection points: 4
#     Node 2, Type 0, BuildingBlock: QUQFOY_clean_sbu_3, # of connection points: 4
#     Node 3, Type 0, BuildingBlock: QUQFOY_clean_sbu_3, # of connection points: 4
#     Node 4, Type 0, BuildingBlock: QUQFOY_clean_sbu_3, # of connection points: 4
#     Node 5, Type 0, BuildingBlock: QUQFOY_clean_sbu_3, # of connection points: 4
#     Node 6, Type 0, BuildingBlock: QUQFOY_clean_sbu_3, # of connection points: 4
#     Node 7, Type 0, BuildingBlock: QUQFOY_clean_sbu_3, # of connection points: 4
#     Edge 8, Type (0, 0), BuildingBlock: UVAHIK_clean_linker_0, # of connection points: 2
#     Edge 9, Type (0, 0), BuildingBlock: UVAHIK_clean_linker_0, # of connection points: 2
#     Edge 10, Type (0, 0), BuildingBlock: UVAHIK_clean_linker_0, # of connection points: 2
#     Edge 11, Type (0, 0), BuildingBlock: UVAHIK_clean_linker_0, # of connection points: 2
#     Edge 12, Type (0, 0), BuildingBlock: UVAHIK_clean_linker_0, # of connection points: 2
#     Edge 13, Type (0, 0), BuildingBlock: UVAHIK_clean_linker_0, # of connection points: 2
#     Edge 14, Type (0, 0), BuildingBlock: UVAHIK_clean_linker_0, # of connection points: 2
#     Edge 15, Type (0, 0), BuildingBlock: UVAHIK_clean_linker_0, # of connection points: 2
#     Edge 16, Type (0, 0), BuildingBlock: UVAHIK_clean_linker_0, # of connection points: 2
#     Edge 17, Type (0, 0), BuildingBlock: UVAHIK_clean_linker_0, # of connection points: 2
#     Edge 18, Type (0, 0), BuildingBlock: UVAHIK_clean_linker_0, # of connection points: 2
#     Edge 19, Type (0, 0), BuildingBlock: UVAHIK_clean_linker_0, # of connection points: 2
#     Edge 20, Type (0, 0), BuildingBlock: UVAHIK_clean_linker_0, # of connection points: 2
#     Edge 21, Type (0, 0), BuildingBlock: UVAHIK_clean_linker_0, # of connection points: 2
#     Edge 22, Type (0, 0), BuildingBlock: UVAHIK_clean_linker_0, # of connection points: 2
#     Edge 23, Type (0, 0), BuildingBlock: UVAHIK_clean_linker_0, # of connection points: 2
# Relax obj value: 0.168
# Max RMSD: 0.286
# Mean RMSD: 0.286
data_MOF--net-umf--node1-QUQFOY_clean_sbu_3--edge1-UVAHIK_clean_linker_0
_symmetry_space_group_name_H-M    P1
_symmetry_Int_Tables_number       1
_symmetry_cell_setting            triclinic
loop_
_symmetry_equiv_pos_as_xyz
'x, y, z'
_cell_length_a     37.518802
_cell_length_b     37.422075
_cell_length_c     69.272793
_cell_angle_alpha  90.00871
_cell_angle_beta   89.610041
_cell_angle_gamma 90.090833
loop_
_atom_site_label
_atom_site_type_symbol
_atom_site_fract_x
_atom_site_fract_y
_atom_site_fract_z
_atom_type_partial_charge
C0 C 0.15664 0.22839 0.14485 0.0
O1 O 0.16941 0.21399 0.12976 0.0
Cd2 Cd 0.12535 0.19422 0.10638 0.0
O3 O 0.12358 0.23523 0.14577 0.0
Cd4 Cd 0.06934 0.23412 0.12656 0.0
C5 C 0.0678 0.14706 0.13548 0.0
O6 O 0.0856 0.23775 0.09172 0.0
O7 O 0.03381 0.21615 0.0997 0.0
O8 O 0.07047 0.29731 0.13196 0.0
C9 C 0.05471 0.22726 0.08653 0.0
O10 O 0.09187 0.14669 0.12243 0.0
C11 C 0.03991 0.29962 0.13979 0.0
O12 O 0.05481 0.17658 0.14138 0.0
O13 O 0.022 0.27083 0.14146 0.0
C14 C 0.73218 0.15578 0.6475 0.0
O15 O 0.74951 0.16801 0.63318 0.0
Cd16 Cd 0.76919 0.12263 0.61037 0.0
O17 O 0.72287 0.12319 0.64769 0.0
Cd18 Cd 0.72206 0.06919 0.6279 0.0
C19 C 0.80668 0.06092 0.64064 0.0
O20 O 0.72546 0.08633 0.59312 0.0
O21 O 0.73801 0.03184 0.60152 0.0
O22 O 0.65895 0.07689 0.63125 0.0
C23 C 0.7321 0.05412 0.58813 0.0
O24 O 0.81078 0.08666 0.62882 0.0
C25 C 0.65245 0.04651 0.63857 0.0
O26 O 0.77585 0.04806 0.6441 0.0
O27 O 0.67879 0.02558 0.64092 0.0
C28 C 0.81245 0.73485 0.14723 0.0
O29 O 0.80039 0.75172 0.13283 0.0
Cd30 Cd 0.84505 0.76929 0.10885 0.0
O31 O 0.84496 0.72576 0.14749 0.0
Cd32 Cd 0.89959 0.72528 0.12842 0.0
C33 C 0.90561 0.81248 0.13747 0.0
O34 O 0.88221 0.72353 0.09375 0.0
O35 O 0.93648 0.73816 0.10121 0.0
O36 O 0.89312 0.66268 0.13445 0.0
C37 C 0.9141 0.73027 0.08825 0.0
O38 O 0.88125 0.81419 0.1248 0.0
C39 C 0.92364 0.65781 0.14172 0.0
O40 O 0.91736 0.78228 0.14305 0.0
O41 O 0.9442 0.68486 0.14277 0.0
C42 C 0.22384 0.81268 0.64614 0.0
O43 O 0.20687 0.79859 0.63233 0.0
Cd44 Cd 0.1847 0.84086 0.60855 0.0
O45 O 0.23104 0.84578 0.64564 0.0
Cd46 Cd 0.22671 0.89832 0.62496 0.0
C47 C 0.14113 0.90105 0.63736 0.0
O48 O 0.22649 0.87893 0.5906 0.0
O49 O 0.20572 0.93142 0.59786 0.0
O50 O 0.29026 0.89867 0.62804 0.0
C51 C 0.21571 0.90952 0.58495 0.0
O52 O 0.13885 0.87527 0.62543 0.0
C53 C 0.29288 0.92982 0.63509 0.0
O54 O 0.1713 0.91485 0.64123 0.0
O55 O 0.26413 0.94744 0.63728 0.0
C56 C 0.15049 0.73554 0.83535 0.0
O57 O 0.16111 0.75077 0.85062 0.0
Cd58 Cd 0.11416 0.76604 0.87369 0.0
O59 O 0.11825 0.72565 0.83409 0.0
Cd60 Cd 0.06252 0.72049 0.85207 0.0
C61 C 0.05427 0.80761 0.84378 0.0
O62 O 0.07716 0.71855 0.88709 0.0
O63 O 0.02293 0.73082 0.8785 0.0
O64 O 0.07225 0.65844 0.84552 0.0
C65 C 0.0447 0.72404 0.89193 0.0
O66 O 0.0778 0.80968 0.8569 0.0
C67 C 0.04263 0.65257 0.8374 0.0
O68 O 0.04356 0.77726 0.83778 0.0
O69 O 0.02111 0.67875 0.83612 0.0
C70 C 0.22942 0.15435 0.33346 0.0
O71 O 0.21296 0.1669 0.34798 0.0
Cd72 Cd 0.19203 0.12263 0.37129 0.0
O73 O 0.23643 0.12125 0.33272 0.0
Cd74 Cd 0.2322 0.06604 0.35121 0.0
C75 C 0.14554 0.06654 0.34152 0.0
O76 O 0.23425 0.0815 0.38613 0.0
O77 O 0.21298 0.02984 0.37771 0.0
O78 O 0.29538 0.06633 0.34633 0.0
C79 C 0.22337 0.05044 0.39108 0.0
O80 O 0.14501 0.09019 0.35474 0.0
C81 C 0.29758 0.03595 0.33832 0.0
O82 O 0.17503 0.05327 0.33576 0.0
O83 O 0.26873 0.01839 0.33635 0.0
C84 C 0.81165 0.22772 0.83578 0.0
O85 O 0.79897 0.21379 0.85103 0.0
Cd86 Cd 0.84322 0.19342 0.87411 0.0
O87 O 0.84486 0.23366 0.8345 0.0
Cd88 Cd 0.89998 0.23127 0.85289 0.0
C89 C 0.89806 0.14389 0.84471 0.0
O90 O 0.88465 0.23669 0.88776 0.0
O91 O 0.93578 0.21379 0.87975 0.0
O92 O 0.90048 0.29404 0.8463 0.0
C93 C 0.91539 0.22579 0.8929 0.0
O94 O 0.87457 0.1445 0.85807 0.0
C95 C 0.93097 0.29514 0.83832 0.0
O96 O 0.91173 0.17288 0.83845 0.0
O97 O 0.94816 0.26589 0.83717 0.0
C98 C 0.73574 0.81595 0.33566 0.0
O99 O 0.75067 0.80451 0.35081 0.0
Cd100 Cd 0.76795 0.85082 0.3737 0.0
O101 O 0.72703 0.8486 0.33453 0.0
Cd102 Cd 0.7238 0.90415 0.35271 0.0
C103 C 0.81068 0.9101 0.34343 0.0
O104 O 0.72204 0.88889 0.3877 0.0
O105 O 0.73583 0.94307 0.3791 0.0
O106 O 0.66166 0.89551 0.34676 0.0
C107 C 0.72853 0.92119 0.39255 0.0
O108 O 0.81232 0.88632 0.35654 0.0
C109 C 0.65613 0.92551 0.33883 0.0
O110 O 0.78059 0.92171 0.33774 0.0
O111 O 0.68257 0.94678 0.33738 0.0
C112 C 0.04917 0.36425 0.14664 0.0
C113 C 0.0261 0.33465 0.14611 0.0
C114 C 0.03622 0.39816 0.15106 0.0
C115 C 0.95535 0.45055 0.14701 0.0
H116 H 0.0086 0.52073 0.17635 0.0
C117 C 0.90819 0.59551 0.15103 0.0
C118 C 0.9344 0.62179 0.148 0.0
C119 C 0.91777 0.56033 0.15497 0.0
C120 C -0.00647 0.50147 0.16805 0.0
H121 H 0.97159 0.31707 0.15054 0.0
H122 H 0.94873 0.37677 0.15817 0.0
H123 H 0.02782 0.45835 0.17615 0.0
H124 H -0.00882 0.63234 0.14758 0.0
H125 H 0.00816 0.57039 0.15395 0.0
H126 H 0.92192 0.49355 0.13823 0.0
C127 C 0.97688 0.37355 0.15508 0.0
C128 C 0.00443 0.46577 0.168 0.0
C129 C -0.01006 0.33943 0.15078 0.0
C130 C 0.97045 0.61257 0.14986 0.0
C131 C -0.01989 0.57713 0.1536 0.0
C132 C 0.94455 0.48618 0.14699 0.0
C133 C -0.00015 0.40332 0.15496 0.0
C134 C -0.0142 0.44008 0.1572 0.0
C135 C 0.95383 0.55047 0.15574 0.0
C136 C 0.96382 0.51219 0.15726 0.0
H137 H 0.07724 0.3614 0.14321 0.0
H138 H 0.05451 0.42058 0.15061 0.0
H139 H 0.94081 0.43152 0.13828 0.0
H140 H 0.88012 0.60198 0.14999 0.0
H141 H 0.89686 0.54068 0.157 0.0
C142 C 0.35761 0.92137 0.64111 0.0
C143 C 0.32808 0.94436 0.64031 0.0
C144 C 0.39146 0.93472 0.64504 0.0
C145 C 0.44446 0.01506 0.63934 0.0
H146 H 0.51217 0.96462 0.67145 0.0
C147 C 0.58914 0.06279 0.64482 0.0
C148 C 0.61555 0.0363 0.64358 0.0
C149 C 0.55359 0.05352 0.64795 0.0
C150 C 0.49364 0.97887 0.66235 0.0
H151 H 0.31061 -0.00077 0.64352 0.0
H152 H 0.3703 0.02282 0.65017 0.0
H153 H 0.44996 0.9453 0.67083 0.0
H154 H 0.62575 0.97945 0.64534 0.0
H155 H 0.56329 0.96299 0.65027 0.0
H156 H 0.4881 0.04768 0.63018 0.0
C157 C 0.36702 -0.00559 0.64775 0.0
C158 C 0.45803 0.96792 0.66207 0.0
C159 C 0.33294 0.98094 0.644 0.0
C160 C 0.60591 0.00039 0.64624 0.0
C161 C 0.57015 -0.00896 0.64917 0.0
C162 C 0.48006 0.02585 0.63951 0.0
C163 C 0.39663 0.97141 0.64813 0.0
C164 C 0.43324 -0.01443 0.65032 0.0
C165 C 0.54351 0.0175 0.64969 0.0
C166 C 0.5052 0.00757 0.6508 0.0
H167 H 0.3547 0.89299 0.63844 0.0
H168 H 0.41382 0.91643 0.64499 0.0
H169 H 0.42607 0.0288 0.62992 0.0
H170 H 0.59586 0.09078 0.6431 0.0
H171 H 0.53391 0.07463 0.64872 0.0
C172 C 0.92276 0.359 0.82952 0.0
C173 C 0.94552 0.32942 0.83127 0.0
C174 C 0.93632 0.39247 0.82461 0.0
C175 C 0.01683 0.4448 0.83006 0.0
H176 H 0.96602 0.51381 0.79883 0.0
C177 C 0.06108 0.59103 0.82817 0.0
C178 C 0.0338 0.61638 0.83046 0.0
C179 C 0.05303 0.55568 0.82359 0.0
C180 C -0.01956 0.49487 0.80763 0.0
H181 H 0.00012 0.31126 0.82842 0.0
H182 H 0.02409 0.37027 0.82 0.0
H183 H 0.94745 0.45118 0.79872 0.0
H184 H 0.97685 0.62512 0.82888 0.0
H185 H 0.96251 0.56293 0.82141 0.0
H186 H 0.04875 0.4884 0.83972 0.0
C187 C -0.00431 0.36737 0.82248 0.0
C188 C 0.96992 0.45903 0.8075 0.0
C189 C -0.01799 0.33365 0.82724 0.0
C190 C -0.00163 0.60609 0.8272 0.0
C191 C -0.00976 0.57051 0.82282 0.0
C192 C 0.02723 0.48059 0.83026 0.0
C193 C 0.97301 0.39721 0.82146 0.0
C194 C -0.01249 0.4338 0.81906 0.0
C195 C 0.01746 0.54473 0.82143 0.0
C196 C 0.0087 0.5062 0.81938 0.0
H197 H 0.89444 0.35652 0.8324 0.0
H198 H 0.91822 0.41497 0.82418 0.0
H199 H 0.03054 0.42612 0.83935 0.0
H200 H 0.08873 0.59833 0.8303 0.0
H201 H 0.07468 0.53673 0.82219 0.0
C202 C 0.36195 0.04534 0.33112 0.0
C203 C 0.33257 0.02205 0.33206 0.0
C204 C 0.39585 0.03242 0.32678 0.0
C205 C 0.44875 0.95223 0.33216 0.0
H206 H 0.51841 0.00496 0.3018 0.0
C207 C 0.59451 0.90786 0.32983 0.0
C208 C 0.62005 0.93495 0.33225 0.0
C209 C 0.5593 0.91633 0.32554 0.0
C210 C 0.49931 -0.00997 0.31039 0.0
H211 H 0.31536 0.96717 0.32844 0.0
H212 H 0.37513 0.94432 0.32103 0.0
H213 H 0.45591 0.02321 0.30152 0.0
H214 H 0.62924 -0.00793 0.33125 0.0
H215 H 0.56726 0.00713 0.32428 0.0
H216 H 0.49203 0.92004 0.34175 0.0
C217 C 0.37171 0.97263 0.32369 0.0
C218 C 0.46353 0.00037 0.31015 0.0
C219 C 0.33756 -0.01432 0.32787 0.0
C220 C 0.61006 0.97068 0.32946 0.0
C221 C 0.5746 0.97924 0.32537 0.0
C222 C 0.48448 0.94202 0.33248 0.0
C223 C 0.40125 -0.00414 0.3234 0.0
C224 C 0.43804 -0.01802 0.32134 0.0
C225 C 0.54866 0.95215 0.3238 0.0
C226 C 0.5103 0.96117 0.32187 0.0
H227 H 0.35891 0.07358 0.33415 0.0
H228 H 0.4181 0.05091 0.3269 0.0
H229 H 0.42984 0.93791 0.34118 0.0
H230 H 0.60158 0.88 0.33161 0.0
H231 H 0.54023 0.89478 0.32398 0.0
C232 C 0.95933 0.20949 0.91826 0.0
C233 C 0.92808 0.2277 0.91309 0.0
C234 C 0.97289 0.21211 0.93691 0.0
C235 C 0.94853 0.23703 0.98707 0.0
H236 H 0.05111 0.2356 -0.00631 0.0
C237 C 0.06049 0.24871 0.05214 0.0
C238 C 0.04236 0.22866 0.06627 0.0
C239 C 0.04688 0.25132 0.03337 0.0
C240 C 0.02243 0.23651 -0.00784 0.0
H241 H 0.88639 0.26285 0.92353 0.0
H242 H 0.9105 0.26811 0.95617 0.0
H243 H 0.02631 0.23665 0.96135 0.0
H244 H -0.00358 0.1947 0.07162 0.0
H245 H 0.97353 0.19825 0.03905 0.0
H246 H 0.94465 0.23789 0.01787 0.0
C247 C 0.92424 0.25128 0.94582 0.0
C248 C 0.00812 0.23657 0.97356 0.0
C249 C 0.91042 0.24837 0.92711 0.0
C250 C 0.0109 0.21069 0.06114 0.0
C251 C -0.00247 0.213 0.04245 0.0
C252 C 0.96283 0.23727 0.00567 0.0
C253 C 0.95585 0.23335 0.95092 0.0
C254 C 0.97097 0.23614 0.97075 0.0
C255 C 0.01501 0.2337 0.02833 0.0
C256 C -3e-05 0.2363 0.00848 0.0
H257 H 0.97345 0.19304 0.90787 0.0
H258 H -0.00331 0.19713 0.94035 0.0
H259 H 0.91983 0.23653 0.98555 0.0
H260 H 0.08471 0.263 0.05568 0.0
H261 H 0.06096 0.26771 0.02293 0.0
C262 C 0.72775 0.06557 0.5523 0.0
C263 C 0.73096 0.04166 0.56782 0.0
C264 C 0.72683 0.05279 0.53325 0.0
C265 C 0.74909 0.9721 0.50392 0.0
H266 H 0.687 0.01559 0.46615 0.0
C267 C 0.72453 0.90988 0.42839 0.0
C268 C 0.72672 0.93385 0.41281 0.0
C269 C 0.72397 0.92266 0.44743 0.0
C270 C 0.7046 0.00327 0.47653 0.0
H271 H 0.73508 -0.01445 0.57549 0.0
H272 H 0.73262 0.96352 0.54269 0.0
H273 H 0.68884 0.03957 0.49891 0.0
H274 H 0.72943 -0.00999 0.40502 0.0
H275 H 0.72825 0.01203 0.43801 0.0
H276 H 0.76452 0.93559 0.48156 0.0
C277 C 0.73176 -0.00788 0.545 0.0
C278 C 0.70581 0.01714 0.49528 0.0
C279 C 0.73293 0.00483 0.5639 0.0
C280 C 0.72778 0.97075 0.41667 0.0
C281 C 0.72686 -0.01654 0.43559 0.0
C282 C 0.74765 0.95809 0.48523 0.0
C283 C 0.72893 0.01584 0.52938 0.0
C284 C 0.72809 0.00174 0.50924 0.0
C285 C 0.72515 0.95963 0.45121 0.0
C286 C 0.72548 0.97356 0.47131 0.0
H287 H 0.72622 0.09408 0.55485 0.0
H288 H 0.72498 0.07189 0.52156 0.0
H289 H 0.76709 0.95992 0.51414 0.0
H290 H 0.72368 0.88132 0.42588 0.0
H291 H 0.72242 0.90365 0.45919 0.0
C292 C 0.9625 0.7297 0.06337 0.0
C293 C 0.92592 0.72749 0.06784 0.0
C294 C 0.97452 0.72724 0.04433 0.0
C295 C 0.94692 0.74082 -0.00567 0.0
H296 H 0.03058 0.68408 0.98215 0.0
C297 C -0.00507 0.72179 0.91596 0.0
C298 C 0.0318 0.72189 0.91217 0.0
C299 C -0.01808 0.72085 0.93486 0.0
C300 C 0.00748 0.70042 0.98532 0.0
H301 H 0.87323 0.72099 0.0557 0.0
H302 H 0.89435 0.71701 0.02215 0.0
H303 H 0.00714 0.68489 0.01509 0.0
H304 H 0.08399 0.72077 0.92533 0.0
H305 H 0.06127 0.71992 0.95856 0.0
H306 H 0.94758 0.75705 0.96475 0.0
C307 C 0.91364 0.72064 0.03354 0.0
C308 C -0.00606 0.70074 0.00419 0.0
C309 C 0.90156 0.72278 0.05273 0.0
C310 C 0.05545 0.72062 0.92779 0.0
C311 C 0.04237 0.71997 0.94681 0.0
C312 C 0.96059 0.74071 0.97549 0.0
C313 C 0.9503 0.72275 0.02917 0.0
C314 C 0.96357 0.72103 0.00892 0.0
C315 C 0.00539 0.72033 0.95058 0.0
C316 C -0.00893 0.72052 0.97073 0.0
H317 H -0.01793 0.73333 0.07463 0.0
H318 H 0.00285 0.72948 0.04144 0.0
H319 H 0.92384 0.75717 -0.00243 0.0
H320 H 0.9759 0.72239 0.90428 0.0
H321 H 0.95334 0.72032 0.93712 0.0
C322 C 0.2426 0.05551 0.4258 0.0
C323 C 0.22371 0.0375 0.4113 0.0
C324 C 0.24415 0.04138 0.44455 0.0
C325 C 0.22673 0.01576 0.48538 0.0
H326 H 0.22806 0.91277 0.49178 0.0
C327 C 0.19727 0.95135 0.55891 0.0
C328 C 0.2165 0.92088 0.56446 0.0
C329 C 0.19989 0.96468 0.54016 0.0
C330 C 0.22812 0.94157 0.49031 0.0
H331 H 0.19076 -0.00884 0.40525 0.0
H332 H 0.19255 0.96735 0.43776 0.0
H333 H 0.23113 0.93836 0.45952 0.0
H334 H 0.25309 0.88002 0.55454 0.0
H335 H 0.25829 0.90371 0.52166 0.0
H336 H 0.22471 0.01901 0.51617 0.0
C337 C 0.20716 -0.00831 0.43469 0.0
C338 C 0.22938 0.95631 0.47175 0.0
C339 C 0.20586 0.00559 0.41602 0.0
C340 C 0.23781 0.90344 0.55065 0.0
C341 C 0.24074 0.91705 0.53182 0.0
C342 C 0.22574 0.00103 0.50394 0.0
C343 C 0.22664 0.0091 0.44918 0.0
C344 C 0.22805 -0.0064 0.46902 0.0
C345 C 0.22216 0.94818 0.52642 0.0
C346 C 0.22575 0.96372 0.50665 0.0
H347 H 0.25676 0.08006 0.42258 0.0
H348 H 0.25963 0.05543 0.45529 0.0
H349 H 0.22548 0.04453 0.4839 0.0
H350 H 0.18028 0.96522 0.56915 0.0
H351 H 0.18436 -0.01198 0.53645 0.0
C352 C 0.21144 0.21696 0.16469 0.0
C353 C 0.17857 0.23428 0.16229 0.0
C354 C 0.22832 0.21726 0.18269 0.0
C355 C 0.22435 0.25702 0.23242 0.0
H356 H 0.25014 0.16112 0.24799 0.0
C357 C 0.21471 0.20435 0.31076 0.0
C358 C 0.23739 0.17637 0.31624 0.0
C359 C 0.21713 0.21889 0.29214 0.0
C360 C 0.24389 0.18831 0.24389 0.0
H361 H 0.13929 0.2681 0.17639 0.0
H362 H 0.1682 0.26816 0.20754 0.0
H363 H 0.23812 0.17335 0.21435 0.0
H364 H 0.28279 0.14438 0.30743 0.0
H365 H 0.28774 0.17042 0.27533 0.0
H366 H 0.22855 0.27139 0.2623 0.0
C367 C 0.18124 0.25447 0.19568 0.0
C368 C 0.23703 0.19535 0.22449 0.0
C369 C 0.16443 0.25415 0.17778 0.0
C370 C 0.26461 0.16561 0.30349 0.0
C371 C 0.2673 0.18036 0.28504 0.0
C372 C 0.23117 0.24993 0.25191 0.0
C373 C 0.2127 0.23495 0.19858 0.0
C374 C 0.22621 0.22954 0.21855 0.0
C375 C 0.2425 0.20589 0.27879 0.0
C376 C 0.24018 0.21525 0.25794 0.0
H377 H 0.22312 0.20157 0.15302 0.0
H378 H 0.25288 0.20244 0.18435 0.0
H379 H 0.2166 0.2838 0.2283 0.0
H380 H 0.19339 0.21305 0.32026 0.0
H381 H 0.19751 0.23844 0.28781 0.0
C382 C 0.75602 0.21738 0.81642 0.0
C383 C 0.78931 0.23409 0.81855 0.0
C384 C 0.73865 0.21799 0.79857 0.0
C385 C 0.74223 0.25762 0.7488 0.0
H386 H 0.71419 0.16215 0.73344 0.0
C387 C 0.74918 0.20478 0.67043 0.0
C388 C 0.72558 0.17745 0.66502 0.0
C389 C 0.74759 0.2192 0.6891 0.0
C390 C 0.72108 0.18923 0.73749 0.0
H391 H 0.82889 0.26724 0.80416 0.0
H392 H 0.79914 0.26785 0.77325 0.0
H393 H 0.72714 0.17423 0.767 0.0
H394 H 0.67951 0.14649 0.67408 0.0
H395 H 0.67613 0.17226 0.70629 0.0
H396 H 0.73775 0.27199 0.71893 0.0
C397 C 0.78614 0.25438 0.78521 0.0
C398 C 0.72847 0.1962 0.75684 0.0
C399 C 0.80343 0.25374 0.80297 0.0
C400 C 0.69842 0.16717 0.67795 0.0
C401 C 0.6966 0.18179 0.69646 0.0
C402 C 0.7349 0.2506 0.72936 0.0
C403 C 0.75421 0.23541 0.78255 0.0
C404 C 0.7401 0.2302 0.76269 0.0
C405 C 0.72218 0.20673 0.70258 0.0
C406 C 0.72508 0.21607 0.72341 0.0
H407 H 0.74435 0.20217 0.82818 0.0
H408 H 0.71375 0.2036 0.7971 0.0
H409 H 0.75061 0.28427 0.75285 0.0
H410 H 0.77046 0.21313 0.66079 0.0
H411 H 0.76781 0.23827 0.69334 0.0
C412 C 0.74954 0.76075 0.31618 0.0
C413 C 0.73092 0.79304 0.31841 0.0
C414 C 0.74984 0.74307 0.29833 0.0
C415 C 0.70983 0.74398 0.24871 0.0
H416 H 0.80597 0.71939 0.23298 0.0
C417 C 0.76315 0.7517 0.17019 0.0
C418 C 0.79064 0.72827 0.16475 0.0
C419 C 0.74862 0.75016 0.18888 0.0
C420 C 0.77875 0.72536 0.23715 0.0
H421 H 0.6955 0.83038 0.30417 0.0
H422 H 0.69659 0.80027 0.27328 0.0
H423 H 0.79354 0.73253 0.26658 0.0
H424 H 0.82179 0.68252 0.17377 0.0
H425 H 0.796 0.67936 0.20605 0.0
H426 H 0.69569 0.73857 0.21888 0.0
C427 C 0.71081 0.7882 0.28516 0.0
C428 C 0.77158 0.73282 0.25652 0.0
C429 C 0.71048 0.80575 0.30292 0.0
C430 C 0.80099 0.7013 0.17766 0.0
C431 C 0.78635 0.69958 0.1962 0.0
C432 C 0.71709 0.7367 0.22924 0.0
C433 C 0.7315 0.75735 0.2824 0.0
C434 C 0.73725 0.74318 0.26251 0.0
C435 C 0.76122 0.72501 0.20234 0.0
C436 C 0.75184 0.72809 0.22318 0.0
H437 H 0.76538 0.75015 0.32787 0.0
H438 H 0.76555 0.71898 0.2968 0.0
H439 H 0.68293 0.75128 0.25285 0.0
H440 H 0.75473 0.77281 0.16056 0.0
H441 H 0.72936 0.77022 0.19317 0.0
C442 C 0.2581 0.80599 0.67661 0.0
C443 C 0.2323 0.7925 0.6639 0.0
C444 C 0.26123 0.79223 0.69524 0.0
C445 C 0.23091 0.7204 0.7288 0.0
H446 H 0.22889 0.79798 0.76591 0.0
C447 C 0.16261 0.7101 0.80271 0.0
C448 C 0.17379 0.73179 0.81811 0.0
C449 C 0.18009 0.71133 0.7849 0.0
C450 C 0.23037 0.77579 0.75591 0.0
H451 H 0.19149 0.75212 0.66022 0.0
H452 H 0.19652 0.72833 0.69296 0.0
H453 H 0.24064 0.81079 0.73219 0.0
H454 H 0.21402 0.76957 0.82736 0.0
H455 H 0.24506 0.77145 0.79618 0.0
H456 H 0.21933 0.68557 0.75258 0.0
C457 C 0.21459 0.74937 0.68845 0.0
C458 C 0.23704 0.78317 0.73646 0.0
C459 C 0.21164 0.76301 0.66968 0.0
C460 C 0.20464 0.75269 0.81575 0.0
C461 C 0.22222 0.75395 0.79783 0.0
C462 C 0.22437 0.71297 0.74832 0.0
C463 C 0.23843 0.76485 0.70168 0.0
C464 C 0.23646 0.75573 0.72258 0.0
C465 C 0.20932 0.73426 0.78199 0.0
C466 C 0.22295 0.74075 0.76203 0.0
H467 H 0.2748 0.8284 0.67248 0.0
H468 H 0.28045 0.80418 0.7049 0.0
H469 H 0.23079 0.6986 0.71851 0.0
H470 H 0.13911 0.69339 0.80408 0.0
H471 H 0.16912 0.696 0.77308 0.0
C472 C 0.02802 0.11153 0.15776 0.0
C473 C 0.05423 0.11265 0.14316 0.0
C474 C 0.01372 0.07879 0.16385 0.0
C475 C 0.02657 0.97981 0.15975 0.0
H476 H 0.9235 0.97747 0.16335 0.0
C477 C 0.90725 0.8791 0.13867 0.0
C478 C 0.92081 0.8462 0.14506 0.0
C479 C 0.92292 0.91114 0.14434 0.0
C480 C 0.95233 0.97763 0.16243 0.0
H481 H 0.0868 0.08011 0.12403 0.0
H482 H 0.06138 0.02368 0.13415 0.0
H483 H 0.95415 0.03466 0.16209 0.0
H484 H 0.96056 0.82133 0.16322 0.0
H485 H -0.01213 0.87767 0.17335 0.0
H486 H 0.02454 0.92278 0.15851 0.0
C487 C 0.05227 0.04778 0.14127 0.0
C488 C 0.96999 0.0105 0.16198 0.0
C489 C 0.06664 0.08033 0.13529 0.0
C490 C 0.94962 0.84621 0.15793 0.0
C491 C 0.96533 0.87847 0.16368 0.0
C492 C 0.00889 0.94693 0.15999 0.0
C493 C 0.02525 0.04654 0.15542 0.0
C494 C 0.00724 0.01201 0.15985 0.0
C495 C 0.9525 0.91131 0.15667 0.0
C496 C 0.97146 0.94549 0.16053 0.0
H497 H 0.01808 0.13593 0.16423 0.0
H498 H -0.00675 0.0788 0.17494 0.0
H499 H 0.05537 0.97997 0.1586 0.0
H500 H 0.88503 0.88021 0.12878 0.0
H501 H 0.91266 0.93575 0.13832 0.0
C502 C 0.07574 0.89737 0.64431 0.0
C503 C 0.10811 0.91613 0.64581 0.0
C504 C 0.04376 0.91315 0.65017 0.0
C505 C 0.00405 0.00076 0.65228 0.0
H506 H 0.92487 0.95235 0.67737 0.0
C507 C 0.86771 0.06727 0.65389 0.0
C508 C 0.83865 0.04521 0.64943 0.0
C509 C 0.90028 0.05242 0.65916 0.0
C510 C 0.94665 0.96619 0.67025 0.0
H511 H 0.13255 0.96542 0.6556 0.0
H512 H 0.07644 -0.00679 0.66558 0.0
H513 H -0.01652 0.92385 0.67624 0.0
H514 H 0.81998 -0.00945 0.64795 0.0
H515 H 0.8774 0.96429 0.65624 0.0
H516 H 0.96743 0.04195 0.64511 0.0
C517 C 0.07596 0.96627 0.65986 0.0
C518 C -0.01978 0.94994 0.66972 0.0
C519 C 0.10804 0.95033 0.65419 0.0
C520 C 0.84204 0.00808 0.65141 0.0
C521 C 0.87497 -0.00689 0.65624 0.0
C522 C 0.97054 0.01675 0.65258 0.0
C523 C 0.04344 0.94814 0.65748 0.0
C524 C 0.00908 0.96687 0.66045 0.0
C525 C 0.90484 0.01512 0.65955 0.0
C526 C 0.94119 -0.00051 0.6613 0.0
H527 H 0.07492 0.87085 0.63806 0.0
H528 H 0.01909 0.89865 0.64802 0.0
H529 H 0.02563 0.01415 0.64472 0.0
H530 H 0.86554 0.09606 0.65273 0.0
H531 H 0.92227 0.07027 0.66223 0.0
C532 C 0.9354 0.1069 0.82199 0.0
C533 C 0.91022 0.10897 0.83707 0.0
C534 C 0.94855 0.07373 0.81592 0.0
C535 C 0.93425 0.9751 0.82128 0.0
H536 H 0.03707 0.97134 0.81612 0.0
C537 C 0.0529 0.87415 0.84208 0.0
C538 C 0.03901 0.84112 0.83605 0.0
C539 C 0.03734 0.90607 0.83623 0.0
C540 C 0.00829 0.97191 0.81745 0.0
H541 H 0.87814 0.07768 0.85707 0.0
H542 H 0.90162 0.02044 0.84698 0.0
H543 H 0.00737 0.02894 0.81716 0.0
H544 H -0.00135 0.81583 0.8184 0.0
H545 H 0.97139 0.87199 0.80802 0.0
H546 H 0.93554 0.91809 0.82314 0.0
C547 C 0.9108 0.04414 0.83947 0.0
C548 C -0.00884 0.00499 0.81779 0.0
C549 C 0.89755 0.07715 0.84543 0.0
C550 C 0.00988 0.84083 0.82338 0.0
C551 C -0.0058 0.87297 0.81749 0.0
C552 C 0.95143 0.942 0.82113 0.0
C553 C 0.93689 0.04197 0.82486 0.0
C554 C 0.95406 0.00704 0.8205 0.0
C555 C 0.00748 0.90595 0.8241 0.0
C556 C -0.0112 0.94011 0.82003 0.0
H557 H 0.94548 0.1309 0.81511 0.0
H558 H 0.9683 0.07301 0.80445 0.0
H559 H 0.90553 0.97568 0.8229 0.0
H560 H 0.07539 0.87549 0.85178 0.0
H561 H 0.04792 0.93082 0.84194 0.0
C562 C 0.8445 0.95241 0.32167 0.0
C563 C 0.84436 0.92459 0.33532 0.0
C564 C 0.87676 0.9673 0.31525 0.0
C565 C 0.9755 0.95306 0.31608 0.0
H566 H 0.97932 0.05649 0.31723 0.0
C567 C 0.07904 0.06731 0.34089 0.0
C568 C 0.11129 0.05366 0.33357 0.0
C569 C 0.0465 0.05337 0.33489 0.0
C570 C 0.97874 0.02757 0.31681 0.0
H571 H 0.87814 0.88978 0.35235 0.0
H572 H 0.93367 0.91605 0.34165 0.0
H573 H 0.92184 0.02645 0.31836 0.0
H574 H 0.13451 0.01587 0.31337 0.0
H575 H 0.07737 -0.00827 0.30263 0.0
H576 H 0.0324 0.95407 0.31618 0.0
C577 C 0.90916 0.92609 0.33553 0.0
C578 C 0.94569 0.01032 0.31718 0.0
C579 C 0.87712 0.91123 0.34187 0.0
C580 C 0.11014 0.02677 0.31941 0.0
C581 C 0.07741 0.01287 0.31331 0.0
C582 C 0.00854 0.9703 0.31594 0.0
C583 C 0.90947 0.95463 0.32235 0.0
C584 C 0.94374 0.97282 0.31767 0.0
C585 C 0.0452 0.02553 0.32128 0.0
C586 C 0.01058 0.00774 0.31714 0.0
H587 H 0.81972 0.96316 0.31625 0.0
H588 H 0.87607 -0.01093 0.30497 0.0
H589 H 0.97493 0.92413 0.31594 0.0
H590 H 0.07881 0.08808 0.35178 0.0
H591 H 0.02242 0.0634 0.34166 0.0
loop_
_geom_bond_atom_site_label_1
_geom_bond_atom_site_label_2
_geom_bond_distance
_geom_bond_site_symmetry_2
_ccdc_geom_bond_type
C0 O1 1.306 . S
C0 O3 1.160 . S
O1 C0 1.306 . S
O1 Cd2 2.228 . S
Cd2 O1 2.228 . S
Cd2 O6 2.273 . S
Cd2 O10 2.277 . S
O3 C0 1.160 . S
O3 Cd4 2.203 . S
Cd4 O3 2.203 . S
Cd4 O6 2.411 . S
Cd4 O7 2.333 . S
Cd4 O8 2.352 . S
Cd4 O12 2.277 . S
Cd4 O13 2.356 . S
C5 O10 1.209 . S
C5 O12 1.226 . S
O6 Cd2 2.273 . S
O6 Cd4 2.411 . S
O6 C9 1.320 . S
O7 Cd4 2.333 . S
O7 C9 1.214 . S
O8 Cd4 2.352 . S
O8 C11 1.258 . S
C9 O6 1.320 . S
C9 O7 1.214 . S
O10 Cd2 2.277 . S
O10 C5 1.209 . S
C11 O8 1.258 . S
C11 O13 1.282 . S
O12 Cd4 2.277 . S
O12 C5 1.226 . S
O13 Cd4 2.356 . S
O13 C11 1.282 . S
C14 O15 1.306 . S
C14 O17 1.160 . S
O15 C14 1.306 . S
O15 Cd16 2.228 . S
Cd16 O15 2.228 . S
Cd16 O20 2.273 . S
Cd16 O24 2.277 . S
O17 C14 1.160 . S
O17 Cd18 2.203 . S
Cd18 O17 2.203 . S
Cd18 O20 2.411 . S
Cd18 O21 2.333 . S
Cd18 O22 2.352 . S
Cd18 O26 2.277 . S
Cd18 O27 2.356 . S
C19 O24 1.209 . S
C19 O26 1.226 . S
O20 Cd16 2.273 . S
O20 Cd18 2.411 . S
O20 C23 1.320 . S
O21 Cd18 2.333 . S
O21 C23 1.214 . S
O22 Cd18 2.352 . S
O22 C25 1.258 . S
C23 O20 1.320 . S
C23 O21 1.214 . S
O24 Cd16 2.277 . S
O24 C19 1.209 . S
C25 O22 1.258 . S
C25 O27 1.282 . S
O26 Cd18 2.277 . S
O26 C19 1.226 . S
O27 Cd18 2.356 . S
O27 C25 1.282 . S
C28 O29 1.306 . S
C28 O31 1.160 . S
O29 C28 1.306 . S
O29 Cd30 2.228 . S
Cd30 O29 2.228 . S
Cd30 O34 2.273 . S
Cd30 O38 2.277 . S
O31 C28 1.160 . S
O31 Cd32 2.203 . S
Cd32 O31 2.203 . S
Cd32 O34 2.411 . S
Cd32 O35 2.333 . S
Cd32 O36 2.352 . S
Cd32 O40 2.277 . S
Cd32 O41 2.356 . S
C33 O38 1.209 . S
C33 O40 1.226 . S
O34 Cd30 2.273 . S
O34 Cd32 2.411 . S
O34 C37 1.320 . S
O35 Cd32 2.333 . S
O35 C37 1.214 . S
O36 Cd32 2.352 . S
O36 C39 1.258 . S
C37 O34 1.320 . S
C37 O35 1.214 . S
O38 Cd30 2.277 . S
O38 C33 1.209 . S
C39 O36 1.258 . S
C39 O41 1.282 . S
O40 Cd32 2.277 . S
O40 C33 1.226 . S
O41 Cd32 2.356 . S
O41 C39 1.282 . S
C42 O43 1.306 . S
C42 O45 1.160 . S
O43 C42 1.306 . S
O43 Cd44 2.228 . S
Cd44 O43 2.228 . S
Cd44 O48 2.273 . S
Cd44 O52 2.277 . S
O45 C42 1.160 . S
O45 Cd46 2.203 . S
Cd46 O45 2.203 . S
Cd46 O48 2.411 . S
Cd46 O49 2.333 . S
Cd46 O50 2.352 . S
Cd46 O54 2.277 . S
Cd46 O55 2.356 . S
C47 O52 1.209 . S
C47 O54 1.226 . S
O48 Cd44 2.273 . S
O48 Cd46 2.411 . S
O48 C51 1.320 . S
O49 Cd46 2.333 . S
O49 C51 1.214 . S
O50 Cd46 2.352 . S
O50 C53 1.258 . S
C51 O48 1.320 . S
C51 O49 1.214 . S
O52 Cd44 2.277 . S
O52 C47 1.209 . S
C53 O50 1.258 . S
C53 O55 1.282 . S
O54 Cd46 2.277 . S
O54 C47 1.226 . S
O55 Cd46 2.356 . S
O55 C53 1.282 . S
C56 O57 1.306 . S
C56 O59 1.160 . S
O57 C56 1.306 . S
O57 Cd58 2.228 . S
Cd58 O57 2.228 . S
Cd58 O62 2.273 . S
Cd58 O66 2.277 . S
O59 C56 1.160 . S
O59 Cd60 2.203 . S
Cd60 O59 2.203 . S
Cd60 O62 2.411 . S
Cd60 O63 2.333 . S
Cd60 O64 2.352 . S
Cd60 O68 2.277 . S
Cd60 O69 2.356 . S
C61 O66 1.209 . S
C61 O68 1.226 . S
O62 Cd58 2.273 . S
O62 Cd60 2.411 . S
O62 C65 1.320 . S
O63 Cd60 2.333 . S
O63 C65 1.214 . S
O64 Cd60 2.352 . S
O64 C67 1.258 . S
C65 O62 1.320 . S
C65 O63 1.214 . S
O66 Cd58 2.277 . S
O66 C61 1.209 . S
C67 O64 1.258 . S
C67 O69 1.282 . S
O68 Cd60 2.277 . S
O68 C61 1.226 . S
O69 Cd60 2.356 . S
O69 C67 1.282 . S
C70 O71 1.306 . S
C70 O73 1.160 . S
O71 C70 1.306 . S
O71 Cd72 2.228 . S
Cd72 O71 2.228 . S
Cd72 O76 2.273 . S
Cd72 O80 2.277 . S
O73 C70 1.160 . S
O73 Cd74 2.203 . S
Cd74 O73 2.203 . S
Cd74 O76 2.411 . S
Cd74 O77 2.333 . S
Cd74 O78 2.352 . S
Cd74 O82 2.277 . S
Cd74 O83 2.356 . S
C75 O80 1.209 . S
C75 O82 1.226 . S
O76 Cd72 2.273 . S
O76 Cd74 2.411 . S
O76 C79 1.320 . S
O77 Cd74 2.333 . S
O77 C79 1.214 . S
O78 Cd74 2.352 . S
O78 C81 1.258 . S
C79 O76 1.320 . S
C79 O77 1.214 . S
O80 Cd72 2.277 . S
O80 C75 1.209 . S
C81 O78 1.258 . S
C81 O83 1.282 . S
O82 Cd74 2.277 . S
O82 C75 1.226 . S
O83 Cd74 2.356 . S
O83 C81 1.282 . S
C84 O85 1.306 . S
C84 O87 1.160 . S
O85 C84 1.306 . S
O85 Cd86 2.228 . S
Cd86 O85 2.228 . S
Cd86 O90 2.273 . S
Cd86 O94 2.277 . S
O87 C84 1.160 . S
O87 Cd88 2.203 . S
Cd88 O87 2.203 . S
Cd88 O90 2.411 . S
Cd88 O91 2.333 . S
Cd88 O92 2.352 . S
Cd88 O96 2.277 . S
Cd88 O97 2.356 . S
C89 O94 1.209 . S
C89 O96 1.226 . S
O90 Cd86 2.273 . S
O90 Cd88 2.411 . S
O90 C93 1.320 . S
O91 Cd88 2.333 . S
O91 C93 1.214 . S
O92 Cd88 2.352 . S
O92 C95 1.258 . S
C93 O90 1.320 . S
C93 O91 1.214 . S
O94 Cd86 2.277 . S
O94 C89 1.209 . S
C95 O92 1.258 . S
C95 O97 1.282 . S
O96 Cd88 2.277 . S
O96 C89 1.226 . S
O97 Cd88 2.356 . S
O97 C95 1.282 . S
C98 O99 1.306 . S
C98 O101 1.160 . S
O99 C98 1.306 . S
O99 Cd100 2.228 . S
Cd100 O99 2.228 . S
Cd100 O104 2.273 . S
Cd100 O108 2.277 . S
O101 C98 1.160 . S
O101 Cd102 2.203 . S
Cd102 O101 2.203 . S
Cd102 O104 2.411 . S
Cd102 O105 2.333 . S
Cd102 O106 2.352 . S
Cd102 O110 2.277 . S
Cd102 O111 2.356 . S
C103 O108 1.209 . S
C103 O110 1.226 . S
O104 Cd100 2.273 . S
O104 Cd102 2.411 . S
O104 C107 1.320 . S
O105 Cd102 2.333 . S
O105 C107 1.214 . S
O106 Cd102 2.352 . S
O106 C109 1.258 . S
C107 O104 1.320 . S
C107 O105 1.214 . S
O108 Cd100 2.277 . S
O108 C103 1.209 . S
C109 O106 1.258 . S
C109 O111 1.282 . S
O110 Cd102 2.277 . S
O110 C103 1.226 . S
O111 Cd102 2.356 . S
O111 C109 1.282 . S
C112 C113 1.349 . S
C112 C114 1.327 . S
C112 H137 0.950 . S
C113 C112 1.349 . S
C113 C129 1.349 . S
C114 C112 1.327 . S
C114 C133 1.429 . S
C114 H138 0.950 . S
C115 C132 1.574 . S
C115 C134 1.368 1_655 S
C115 H139 0.949 . S
H116 C120 0.949 . S
C117 C118 1.349 . S
C117 C119 1.327 . S
C117 H140 0.950 . S
C118 C117 1.349 . S
C118 C130 1.349 . S
C119 C117 1.327 . S
C119 C135 1.429 . S
C119 H141 0.950 . S
C120 H116 0.949 . S
C120 C128 1.574 . S
C120 C136 1.368 1_455 S
H121 C129 0.950 . S
H122 C127 0.950 1_655 S
H123 C128 0.949 . S
H124 C130 0.950 . S
H125 C131 0.950 1_455 S
H126 C132 0.949 . S
C127 H122 0.950 1_455 S
C127 C129 1.327 . S
C127 C133 1.429 . S
C128 C120 1.574 . S
C128 H123 0.949 . S
C128 C134 1.368 . S
C129 C113 1.349 . S
C129 H121 0.950 . S
C129 C127 1.327 . S
C130 C118 1.349 . S
C130 H124 0.950 . S
C130 C131 1.327 . S
C131 H125 0.950 1_655 S
C131 C130 1.327 . S
C131 C135 1.429 . S
C132 C115 1.574 . S
C132 H126 0.949 . S
C132 C136 1.368 . S
C133 C114 1.429 . S
C133 C127 1.429 . S
C133 C134 1.523 . S
C134 C115 1.368 1_455 S
C134 C128 1.368 . S
C134 C133 1.523 . S
C135 C119 1.429 . S
C135 C131 1.429 . S
C135 C136 1.523 . S
C136 C120 1.368 1_655 S
C136 C132 1.368 . S
C136 C135 1.523 . S
H137 C112 0.950 . S
H138 C114 0.950 . S
H139 C115 0.949 . S
H140 C117 0.950 . S
H141 C119 0.950 . S
C142 C143 1.349 . S
C142 C144 1.327 . S
C142 H167 0.950 . S
C143 C142 1.349 . S
C143 C159 1.349 . S
C144 C142 1.327 . S
C144 C163 1.429 . S
C144 H168 0.950 . S
C145 C162 1.574 . S
C145 C164 1.368 1_545 S
C145 H169 0.949 . S
H146 C150 0.949 . S
C147 C148 1.349 . S
C147 C149 1.327 . S
C147 H170 0.950 . S
C148 C147 1.349 . S
C148 C160 1.349 . S
C149 C147 1.327 . S
C149 C165 1.429 . S
C149 H171 0.950 . S
C150 H146 0.949 . S
C150 C158 1.574 . S
C150 C166 1.368 1_565 S
H151 C159 0.950 . S
H152 C157 0.950 1_545 S
H153 C158 0.949 . S
H154 C160 0.950 . S
H155 C161 0.950 1_565 S
H156 C162 0.949 . S
C157 H152 0.950 1_565 S
C157 C159 1.327 . S
C157 C163 1.429 . S
C158 C150 1.574 . S
C158 H153 0.949 . S
C158 C164 1.368 . S
C159 C143 1.349 . S
C159 H151 0.950 . S
C159 C157 1.327 . S
C160 C148 1.349 . S
C160 H154 0.950 . S
C160 C161 1.327 . S
C161 H155 0.950 1_545 S
C161 C160 1.327 . S
C161 C165 1.429 . S
C162 C145 1.574 . S
C162 H156 0.949 . S
C162 C166 1.368 . S
C163 C144 1.429 . S
C163 C157 1.429 . S
C163 C164 1.523 . S
C164 C145 1.368 1_565 S
C164 C158 1.368 . S
C164 C163 1.523 . S
C165 C149 1.429 . S
C165 C161 1.429 . S
C165 C166 1.523 . S
C166 C150 1.368 1_545 S
C166 C162 1.368 . S
C166 C165 1.523 . S
H167 C142 0.950 . S
H168 C144 0.950 . S
H169 C145 0.949 . S
H170 C147 0.950 . S
H171 C149 0.950 . S
C172 C173 1.349 . S
C172 C174 1.327 . S
C172 H197 0.950 . S
C173 C172 1.349 . S
C173 C189 1.349 . S
C174 C172 1.327 . S
C174 C193 1.429 . S
C174 H198 0.950 . S
C175 C192 1.574 . S
C175 C194 1.368 1_455 S
C175 H199 0.949 . S
H176 C180 0.949 . S
C177 C178 1.349 . S
C177 C179 1.327 . S
C177 H200 0.950 . S
C178 C177 1.349 . S
C178 C190 1.349 . S
C179 C177 1.327 . S
C179 C195 1.429 . S
C179 H201 0.950 . S
C180 H176 0.949 . S
C180 C188 1.574 . S
C180 C196 1.368 1_655 S
H181 C189 0.950 . S
H182 C187 0.950 1_455 S
H183 C188 0.949 . S
H184 C190 0.950 . S
H185 C191 0.950 1_655 S
H186 C192 0.949 . S
C187 H182 0.950 1_655 S
C187 C189 1.327 . S
C187 C193 1.429 . S
C188 C180 1.574 . S
C188 H183 0.949 . S
C188 C194 1.368 . S
C189 C173 1.349 . S
C189 H181 0.950 . S
C189 C187 1.327 . S
C190 C178 1.349 . S
C190 H184 0.950 . S
C190 C191 1.327 . S
C191 H185 0.950 1_455 S
C191 C190 1.327 . S
C191 C195 1.429 . S
C192 C175 1.574 . S
C192 H186 0.949 . S
C192 C196 1.368 . S
C193 C174 1.429 . S
C193 C187 1.429 . S
C193 C194 1.523 . S
C194 C175 1.368 1_655 S
C194 C188 1.368 . S
C194 C193 1.523 . S
C195 C179 1.429 . S
C195 C191 1.429 . S
C195 C196 1.523 . S
C196 C180 1.368 1_455 S
C196 C192 1.368 . S
C196 C195 1.523 . S
H197 C172 0.950 . S
H198 C174 0.950 . S
H199 C175 0.949 . S
H200 C177 0.950 . S
H201 C179 0.950 . S
C202 C203 1.349 . S
C202 C204 1.327 . S
C202 H227 0.950 . S
C203 C202 1.349 . S
C203 C219 1.349 . S
C204 C202 1.327 . S
C204 C223 1.429 . S
C204 H228 0.950 . S
C205 C222 1.574 . S
C205 C224 1.368 1_565 S
C205 H229 0.949 . S
H206 C210 0.949 . S
C207 C208 1.349 . S
C207 C209 1.327 . S
C207 H230 0.950 . S
C208 C207 1.349 . S
C208 C220 1.349 . S
C209 C207 1.327 . S
C209 C225 1.429 . S
C209 H231 0.950 . S
C210 H206 0.949 . S
C210 C218 1.574 . S
C210 C226 1.368 1_545 S
H211 C219 0.950 . S
H212 C217 0.950 1_565 S
H213 C218 0.949 . S
H214 C220 0.950 . S
H215 C221 0.950 1_545 S
H216 C222 0.949 . S
C217 H212 0.950 1_545 S
C217 C219 1.327 . S
C217 C223 1.429 . S
C218 C210 1.574 . S
C218 H213 0.949 . S
C218 C224 1.368 . S
C219 C203 1.349 . S
C219 H211 0.950 . S
C219 C217 1.327 . S
C220 C208 1.349 . S
C220 H214 0.950 . S
C220 C221 1.327 . S
C221 H215 0.950 1_565 S
C221 C220 1.327 . S
C221 C225 1.429 . S
C222 C205 1.574 . S
C222 H216 0.949 . S
C222 C226 1.368 . S
C223 C204 1.429 . S
C223 C217 1.429 . S
C223 C224 1.523 . S
C224 C205 1.368 1_545 S
C224 C218 1.368 . S
C224 C223 1.523 . S
C225 C209 1.429 . S
C225 C221 1.429 . S
C225 C226 1.523 . S
C226 C210 1.368 1_565 S
C226 C222 1.368 . S
C226 C225 1.523 . S
H227 C202 0.950 . S
H228 C204 0.950 . S
H229 C205 0.949 . S
H230 C207 0.950 . S
H231 C209 0.950 . S
C232 C233 1.349 . S
C232 C234 1.327 . S
C232 H257 0.950 . S
C233 C232 1.349 . S
C233 C249 1.349 . S
C234 C232 1.327 . S
C234 C253 1.429 . S
C234 H258 0.950 . S
C235 C252 1.574 1_556 S
C235 C254 1.368 . S
C235 H259 0.949 . S
H236 C240 0.949 . S
C237 C238 1.349 . S
C237 C239 1.327 . S
C237 H260 0.950 . S
C238 C237 1.349 . S
C238 C250 1.349 . S
C239 C237 1.327 . S
C239 C255 1.429 . S
C239 H261 0.950 . S
C240 H236 0.949 . S
C240 C248 1.574 1_554 S
C240 C256 1.368 . S
H241 C249 0.950 . S
H242 C247 0.950 . S
H243 C248 0.949 . S
H244 C250 0.950 . S
H245 C251 0.950 . S
H246 C252 0.949 . S
C247 H242 0.950 . S
C247 C249 1.327 . S
C247 C253 1.429 . S
C248 C240 1.574 1_556 S
C248 H243 0.949 . S
C248 C254 1.368 1_455 S
C249 C233 1.349 . S
C249 H241 0.950 . S
C249 C247 1.327 . S
C250 C238 1.349 . S
C250 H244 0.950 . S
C250 C251 1.327 . S
C251 H245 0.950 . S
C251 C250 1.327 . S
C251 C255 1.429 . S
C252 C235 1.574 1_554 S
C252 H246 0.949 . S
C252 C256 1.368 1_655 S
C253 C234 1.429 . S
C253 C247 1.429 . S
C253 C254 1.523 . S
C254 C235 1.368 . S
C254 C248 1.368 1_655 S
C254 C253 1.523 . S
C255 C239 1.429 . S
C255 C251 1.429 . S
C255 C256 1.523 . S
C256 C240 1.368 . S
C256 C252 1.368 1_455 S
C256 C255 1.523 . S
H257 C232 0.950 . S
H258 C234 0.950 . S
H259 C235 0.949 . S
H260 C237 0.950 . S
H261 C239 0.950 . S
C262 C263 1.349 . S
C262 C264 1.327 . S
C262 H287 0.950 . S
C263 C262 1.349 . S
C263 C279 1.349 . S
C264 C262 1.327 . S
C264 C283 1.429 . S
C264 H288 0.950 . S
C265 C282 1.574 . S
C265 C284 1.368 1_565 S
C265 H289 0.949 . S
H266 C270 0.949 . S
C267 C268 1.349 . S
C267 C269 1.327 . S
C267 H290 0.950 . S
C268 C267 1.349 . S
C268 C280 1.349 . S
C269 C267 1.327 . S
C269 C285 1.429 . S
C269 H291 0.950 . S
C270 H266 0.949 . S
C270 C278 1.574 . S
C270 C286 1.368 1_545 S
H271 C279 0.950 . S
H272 C277 0.950 . S
H273 C278 0.949 . S
H274 C280 0.950 . S
H275 C281 0.950 . S
H276 C282 0.949 . S
C277 H272 0.950 . S
C277 C279 1.327 . S
C277 C283 1.429 . S
C278 C270 1.574 . S
C278 H273 0.949 . S
C278 C284 1.368 . S
C279 C263 1.349 . S
C279 H271 0.950 . S
C279 C277 1.327 . S
C280 C268 1.349 . S
C280 H274 0.950 . S
C280 C281 1.327 . S
C281 H275 0.950 . S
C281 C280 1.327 . S
C281 C285 1.429 . S
C282 C265 1.574 . S
C282 H276 0.949 . S
C282 C286 1.368 . S
C283 C264 1.429 . S
C283 C277 1.429 . S
C283 C284 1.523 . S
C284 C265 1.368 1_545 S
C284 C278 1.368 . S
C284 C283 1.523 . S
C285 C269 1.429 . S
C285 C281 1.429 . S
C285 C286 1.523 . S
C286 C270 1.368 1_565 S
C286 C282 1.368 . S
C286 C285 1.523 . S
H287 C262 0.950 . S
H288 C264 0.950 . S
H289 C265 0.949 . S
H290 C267 0.950 . S
H291 C269 0.950 . S
C292 C293 1.349 . S
C292 C294 1.327 . S
C292 H317 0.950 . S
C293 C292 1.349 . S
C293 C309 1.349 . S
C294 C292 1.327 . S
C294 C313 1.429 . S
C294 H318 0.950 . S
C295 C312 1.574 1_554 S
C295 C314 1.368 . S
C295 H319 0.949 . S
H296 C300 0.949 . S
C297 C298 1.349 . S
C297 C299 1.327 . S
C297 H320 0.950 . S
C298 C297 1.349 . S
C298 C310 1.349 . S
C299 C297 1.327 . S
C299 C315 1.429 . S
C299 H321 0.950 . S
C300 H296 0.949 . S
C300 C308 1.574 1_556 S
C300 C316 1.368 . S
H301 C309 0.950 . S
H302 C307 0.950 . S
H303 C308 0.949 . S
H304 C310 0.950 . S
H305 C311 0.950 . S
H306 C312 0.949 . S
C307 H302 0.950 . S
C307 C309 1.327 . S
C307 C313 1.429 . S
C308 C300 1.574 1_554 S
C308 H303 0.949 . S
C308 C314 1.368 1_455 S
C309 C293 1.349 . S
C309 H301 0.950 . S
C309 C307 1.327 . S
C310 C298 1.349 . S
C310 H304 0.950 . S
C310 C311 1.327 . S
C311 H305 0.950 . S
C311 C310 1.327 . S
C311 C315 1.429 . S
C312 C295 1.574 1_556 S
C312 H306 0.949 . S
C312 C316 1.368 1_655 S
C313 C294 1.429 . S
C313 C307 1.429 . S
C313 C314 1.523 . S
C314 C295 1.368 . S
C314 C308 1.368 1_655 S
C314 C313 1.523 . S
C315 C299 1.429 . S
C315 C311 1.429 . S
C315 C316 1.523 . S
C316 C300 1.368 . S
C316 C312 1.368 1_455 S
C316 C315 1.523 . S
H317 C292 0.950 . S
H318 C294 0.950 . S
H319 C295 0.949 . S
H320 C297 0.950 . S
H321 C299 0.950 . S
C322 C323 1.349 . S
C322 C324 1.327 . S
C322 H347 0.950 . S
C323 C322 1.349 . S
C323 C339 1.349 . S
C324 C322 1.327 . S
C324 C343 1.429 . S
C324 H348 0.950 . S
C325 C342 1.574 . S
C325 C344 1.368 . S
C325 H349 0.949 . S
H326 C330 0.949 . S
C327 C328 1.349 . S
C327 C329 1.327 . S
C327 H350 0.950 . S
C328 C327 1.349 . S
C328 C340 1.349 . S
C329 C327 1.327 . S
C329 C345 1.429 . S
C329 H351 0.950 . S
C330 H326 0.949 . S
C330 C338 1.574 . S
C330 C346 1.368 . S
H331 C339 0.950 . S
H332 C337 0.950 . S
H333 C338 0.949 . S
H334 C340 0.950 . S
H335 C341 0.950 . S
H336 C342 0.949 . S
C337 H332 0.950 . S
C337 C339 1.327 . S
C337 C343 1.429 . S
C338 C330 1.574 . S
C338 H333 0.949 . S
C338 C344 1.368 1_565 S
C339 C323 1.349 . S
C339 H331 0.950 . S
C339 C337 1.327 . S
C340 C328 1.349 . S
C340 H334 0.950 . S
C340 C341 1.327 . S
C341 H335 0.950 . S
C341 C340 1.327 . S
C341 C345 1.429 . S
C342 C325 1.574 . S
C342 H336 0.949 . S
C342 C346 1.368 1_545 S
C343 C324 1.429 . S
C343 C337 1.429 . S
C343 C344 1.523 . S
C344 C325 1.368 . S
C344 C338 1.368 1_545 S
C344 C343 1.523 . S
C345 C329 1.429 . S
C345 C341 1.429 . S
C345 C346 1.523 . S
C346 C330 1.368 . S
C346 C342 1.368 1_565 S
C346 C345 1.523 . S
H347 C322 0.950 . S
H348 C324 0.950 . S
H349 C325 0.949 . S
H350 C327 0.950 . S
H351 C329 0.950 . S
C352 C353 1.349 . S
C352 C354 1.327 . S
C352 H377 0.950 . S
C353 C352 1.349 . S
C353 C369 1.349 . S
C354 C352 1.327 . S
C354 C373 1.429 . S
C354 H378 0.950 . S
C355 C372 1.574 . S
C355 C374 1.368 . S
C355 H379 0.949 . S
H356 C360 0.949 . S
C357 C358 1.349 . S
C357 C359 1.327 . S
C357 H380 0.950 . S
C358 C357 1.349 . S
C358 C370 1.349 . S
C359 C357 1.327 . S
C359 C375 1.429 . S
C359 H381 0.950 . S
C360 H356 0.949 . S
C360 C368 1.574 . S
C360 C376 1.368 . S
H361 C369 0.950 . S
H362 C367 0.950 . S
H363 C368 0.949 . S
H364 C370 0.950 . S
H365 C371 0.950 . S
H366 C372 0.949 . S
C367 H362 0.950 . S
C367 C369 1.327 . S
C367 C373 1.429 . S
C368 C360 1.574 . S
C368 H363 0.949 . S
C368 C374 1.368 . S
C369 C353 1.349 . S
C369 H361 0.950 . S
C369 C367 1.327 . S
C370 C358 1.349 . S
C370 H364 0.950 . S
C370 C371 1.327 . S
C371 H365 0.950 . S
C371 C370 1.327 . S
C371 C375 1.429 . S
C372 C355 1.574 . S
C372 H366 0.949 . S
C372 C376 1.368 . S
C373 C354 1.429 . S
C373 C367 1.429 . S
C373 C374 1.523 . S
C374 C355 1.368 . S
C374 C368 1.368 . S
C374 C373 1.523 . S
C375 C359 1.429 . S
C375 C371 1.429 . S
C375 C376 1.523 . S
C376 C360 1.368 . S
C376 C372 1.368 . S
C376 C375 1.523 . S
H377 C352 0.950 . S
H378 C354 0.950 . S
H379 C355 0.949 . S
H380 C357 0.950 . S
H381 C359 0.950 . S
C382 C383 1.349 . S
C382 C384 1.327 . S
C382 H407 0.950 . S
C383 C382 1.349 . S
C383 C399 1.349 . S
C384 C382 1.327 . S
C384 C403 1.429 . S
C384 H408 0.950 . S
C385 C402 1.574 . S
C385 C404 1.368 . S
C385 H409 0.949 . S
H386 C390 0.949 . S
C387 C388 1.349 . S
C387 C389 1.327 . S
C387 H410 0.950 . S
C388 C387 1.349 . S
C388 C400 1.349 . S
C389 C387 1.327 . S
C389 C405 1.429 . S
C389 H411 0.950 . S
C390 H386 0.949 . S
C390 C398 1.574 . S
C390 C406 1.368 . S
H391 C399 0.950 . S
H392 C397 0.950 . S
H393 C398 0.949 . S
H394 C400 0.950 . S
H395 C401 0.950 . S
H396 C402 0.949 . S
C397 H392 0.950 . S
C397 C399 1.327 . S
C397 C403 1.429 . S
C398 C390 1.574 . S
C398 H393 0.949 . S
C398 C404 1.368 . S
C399 C383 1.349 . S
C399 H391 0.950 . S
C399 C397 1.327 . S
C400 C388 1.349 . S
C400 H394 0.950 . S
C400 C401 1.327 . S
C401 H395 0.950 . S
C401 C400 1.327 . S
C401 C405 1.429 . S
C402 C385 1.574 . S
C402 H396 0.949 . S
C402 C406 1.368 . S
C403 C384 1.429 . S
C403 C397 1.429 . S
C403 C404 1.523 . S
C404 C385 1.368 . S
C404 C398 1.368 . S
C404 C403 1.523 . S
C405 C389 1.429 . S
C405 C401 1.429 . S
C405 C406 1.523 . S
C406 C390 1.368 . S
C406 C402 1.368 . S
C406 C405 1.523 . S
H407 C382 0.950 . S
H408 C384 0.950 . S
H409 C385 0.949 . S
H410 C387 0.950 . S
H411 C389 0.950 . S
C412 C413 1.349 . S
C412 C414 1.327 . S
C412 H437 0.950 . S
C413 C412 1.349 . S
C413 C429 1.349 . S
C414 C412 1.327 . S
C414 C433 1.429 . S
C414 H438 0.950 . S
C415 C432 1.574 . S
C415 C434 1.368 . S
C415 H439 0.949 . S
H416 C420 0.949 . S
C417 C418 1.349 . S
C417 C419 1.327 . S
C417 H440 0.950 . S
C418 C417 1.349 . S
C418 C430 1.349 . S
C419 C417 1.327 . S
C419 C435 1.429 . S
C419 H441 0.950 . S
C420 H416 0.949 . S
C420 C428 1.574 . S
C420 C436 1.368 . S
H421 C429 0.950 . S
H422 C427 0.950 . S
H423 C428 0.949 . S
H424 C430 0.950 . S
H425 C431 0.950 . S
H426 C432 0.949 . S
C427 H422 0.950 . S
C427 C429 1.327 . S
C427 C433 1.429 . S
C428 C420 1.574 . S
C428 H423 0.949 . S
C428 C434 1.368 . S
C429 C413 1.349 . S
C429 H421 0.950 . S
C429 C427 1.327 . S
C430 C418 1.349 . S
C430 H424 0.950 . S
C430 C431 1.327 . S
C431 H425 0.950 . S
C431 C430 1.327 . S
C431 C435 1.429 . S
C432 C415 1.574 . S
C432 H426 0.949 . S
C432 C436 1.368 . S
C433 C414 1.429 . S
C433 C427 1.429 . S
C433 C434 1.523 . S
C434 C415 1.368 . S
C434 C428 1.368 . S
C434 C433 1.523 . S
C435 C419 1.429 . S
C435 C431 1.429 . S
C435 C436 1.523 . S
C436 C420 1.368 . S
C436 C432 1.368 . S
C436 C435 1.523 . S
H437 C412 0.950 . S
H438 C414 0.950 . S
H439 C415 0.949 . S
H440 C417 0.950 . S
H441 C419 0.950 . S
C442 C443 1.349 . S
C442 C444 1.327 . S
C442 H467 0.950 . S
C443 C442 1.349 . S
C443 C459 1.349 . S
C444 C442 1.327 . S
C444 C463 1.429 . S
C444 H468 0.950 . S
C445 C462 1.574 . S
C445 C464 1.368 . S
C445 H469 0.949 . S
H446 C450 0.949 . S
C447 C448 1.349 . S
C447 C449 1.327 . S
C447 H470 0.950 . S
C448 C447 1.349 . S
C448 C460 1.349 . S
C449 C447 1.327 . S
C449 C465 1.429 . S
C449 H471 0.950 . S
C450 H446 0.949 . S
C450 C458 1.574 . S
C450 C466 1.368 . S
H451 C459 0.950 . S
H452 C457 0.950 . S
H453 C458 0.949 . S
H454 C460 0.950 . S
H455 C461 0.950 . S
H456 C462 0.949 . S
C457 H452 0.950 . S
C457 C459 1.327 . S
C457 C463 1.429 . S
C458 C450 1.574 . S
C458 H453 0.949 . S
C458 C464 1.368 . S
C459 C443 1.349 . S
C459 H451 0.950 . S
C459 C457 1.327 . S
C460 C448 1.349 . S
C460 H454 0.950 . S
C460 C461 1.327 . S
C461 H455 0.950 . S
C461 C460 1.327 . S
C461 C465 1.429 . S
C462 C445 1.574 . S
C462 H456 0.949 . S
C462 C466 1.368 . S
C463 C444 1.429 . S
C463 C457 1.429 . S
C463 C464 1.523 . S
C464 C445 1.368 . S
C464 C458 1.368 . S
C464 C463 1.523 . S
C465 C449 1.429 . S
C465 C461 1.429 . S
C465 C466 1.523 . S
C466 C450 1.368 . S
C466 C462 1.368 . S
C466 C465 1.523 . S
H467 C442 0.950 . S
H468 C444 0.950 . S
H469 C445 0.949 . S
H470 C447 0.950 . S
H471 C449 0.950 . S
C472 C473 1.349 . S
C472 C474 1.327 . S
C472 H497 0.950 . S
C473 C472 1.349 . S
C473 C489 1.349 . S
C474 C472 1.327 . S
C474 C493 1.429 . S
C474 H498 0.950 1_455 S
C475 C492 1.574 1_545 S
C475 C494 1.368 . S
C475 H499 0.949 . S
H476 C480 0.949 . S
C477 C478 1.349 . S
C477 C479 1.327 . S
C477 H500 0.950 . S
C478 C477 1.349 . S
C478 C490 1.349 . S
C479 C477 1.327 . S
C479 C495 1.429 . S
C479 H501 0.950 1_655 S
C480 H476 0.949 . S
C480 C488 1.574 1_565 S
C480 C496 1.368 . S
H481 C489 0.950 . S
H482 C487 0.950 . S
H483 C488 0.949 . S
H484 C490 0.950 . S
H485 C491 0.950 . S
H486 C492 0.949 . S
C487 H482 0.950 . S
C487 C489 1.327 . S
C487 C493 1.429 . S
C488 C480 1.574 1_545 S
C488 H483 0.949 . S
C488 C494 1.368 1_655 S
C489 C473 1.349 . S
C489 H481 0.950 . S
C489 C487 1.327 . S
C490 C478 1.349 . S
C490 H484 0.950 . S
C490 C491 1.327 . S
C491 H485 0.950 . S
C491 C490 1.327 . S
C491 C495 1.429 . S
C492 C475 1.574 1_565 S
C492 H486 0.949 . S
C492 C496 1.368 1_455 S
C493 C474 1.429 . S
C493 C487 1.429 . S
C493 C494 1.523 . S
C494 C475 1.368 . S
C494 C488 1.368 1_455 S
C494 C493 1.523 . S
C495 C479 1.429 . S
C495 C491 1.429 . S
C495 C496 1.523 . S
C496 C480 1.368 . S
C496 C492 1.368 1_655 S
C496 C495 1.523 . S
H497 C472 0.950 . S
H498 C474 0.950 1_655 S
H499 C475 0.949 . S
H500 C477 0.950 . S
H501 C479 0.950 1_455 S
C502 C503 1.349 . S
C502 C504 1.327 . S
C502 H527 0.950 . S
C503 C502 1.349 . S
C503 C519 1.349 . S
C504 C502 1.327 . S
C504 C523 1.429 . S
C504 H528 0.950 . S
C505 C522 1.574 1_455 S
C505 C524 1.368 1_545 S
C505 H529 0.949 . S
H506 C510 0.949 . S
C507 C508 1.349 . S
C507 C509 1.327 . S
C507 H530 0.950 . S
C508 C507 1.349 . S
C508 C520 1.349 . S
C509 C507 1.327 . S
C509 C525 1.429 . S
C509 H531 0.950 . S
C510 H506 0.949 . S
C510 C518 1.574 1_655 S
C510 C526 1.368 1_565 S
H511 C519 0.950 . S
H512 C517 0.950 1_545 S
H513 C518 0.949 . S
H514 C520 0.950 . S
H515 C521 0.950 1_565 S
H516 C522 0.949 . S
C517 H512 0.950 1_565 S
C517 C519 1.327 . S
C517 C523 1.429 . S
C518 C510 1.574 1_455 S
C518 H513 0.949 . S
C518 C524 1.368 . S
C519 C503 1.349 . S
C519 H511 0.950 . S
C519 C517 1.327 . S
C520 C508 1.349 . S
C520 H514 0.950 . S
C520 C521 1.327 . S
C521 H515 0.950 1_545 S
C521 C520 1.327 . S
C521 C525 1.429 . S
C522 C505 1.574 1_655 S
C522 H516 0.949 . S
C522 C526 1.368 . S
C523 C504 1.429 . S
C523 C517 1.429 . S
C523 C524 1.523 . S
C524 C505 1.368 1_565 S
C524 C518 1.368 . S
C524 C523 1.523 . S
C525 C509 1.429 . S
C525 C521 1.429 . S
C525 C526 1.523 . S
C526 C510 1.368 1_545 S
C526 C522 1.368 . S
C526 C525 1.523 . S
H527 C502 0.950 . S
H528 C504 0.950 . S
H529 C505 0.949 . S
H530 C507 0.950 . S
H531 C509 0.950 . S
C532 C533 1.349 . S
C532 C534 1.327 . S
C532 H557 0.950 . S
C533 C532 1.349 . S
C533 C549 1.349 . S
C534 C532 1.327 . S
C534 C553 1.429 . S
C534 H558 0.950 1_655 S
C535 C552 1.574 1_545 S
C535 C554 1.368 . S
C535 H559 0.949 . S
H536 C540 0.949 . S
C537 C538 1.349 . S
C537 C539 1.327 . S
C537 H560 0.950 . S
C538 C537 1.349 . S
C538 C550 1.349 . S
C539 C537 1.327 . S
C539 C555 1.429 . S
C539 H561 0.950 1_455 S
C540 H536 0.949 . S
C540 C548 1.574 1_565 S
C540 C556 1.368 . S
H541 C549 0.950 . S
H542 C547 0.950 . S
H543 C548 0.949 . S
H544 C550 0.950 . S
H545 C551 0.950 . S
H546 C552 0.949 . S
C547 H542 0.950 . S
C547 C549 1.327 . S
C547 C553 1.429 . S
C548 C540 1.574 1_545 S
C548 H543 0.949 . S
C548 C554 1.368 1_455 S
C549 C533 1.349 . S
C549 H541 0.950 . S
C549 C547 1.327 . S
C550 C538 1.349 . S
C550 H544 0.950 . S
C550 C551 1.327 . S
C551 H545 0.950 . S
C551 C550 1.327 . S
C551 C555 1.429 . S
C552 C535 1.574 1_565 S
C552 H546 0.949 . S
C552 C556 1.368 1_655 S
C553 C534 1.429 . S
C553 C547 1.429 . S
C553 C554 1.523 . S
C554 C535 1.368 . S
C554 C548 1.368 1_655 S
C554 C553 1.523 . S
C555 C539 1.429 . S
C555 C551 1.429 . S
C555 C556 1.523 . S
C556 C540 1.368 . S
C556 C552 1.368 1_455 S
C556 C555 1.523 . S
H557 C532 0.950 . S
H558 C534 0.950 1_455 S
H559 C535 0.949 . S
H560 C537 0.950 . S
H561 C539 0.950 1_655 S
C562 C563 1.349 . S
C562 C564 1.327 . S
C562 H587 0.950 . S
C563 C562 1.349 . S
C563 C579 1.349 . S
C564 C562 1.327 . S
C564 C583 1.429 . S
C564 H588 0.950 1_565 S
C565 C582 1.574 1_655 S
C565 C584 1.368 . S
C565 H589 0.949 . S
H566 C570 0.949 . S
C567 C568 1.349 . S
C567 C569 1.327 . S
C567 H590 0.950 . S
C568 C567 1.349 . S
C568 C580 1.349 . S
C569 C567 1.327 . S
C569 C585 1.429 . S
C569 H591 0.950 1_545 S
C570 H566 0.949 . S
C570 C578 1.574 1_455 S
C570 C586 1.368 . S
H571 C579 0.950 . S
H572 C577 0.950 . S
H573 C578 0.949 . S
H574 C580 0.950 . S
H575 C581 0.950 . S
H576 C582 0.949 . S
C577 H572 0.950 . S
C577 C579 1.327 . S
C577 C583 1.429 . S
C578 C570 1.574 1_655 S
C578 H573 0.949 . S
C578 C584 1.368 1_545 S
C579 C563 1.349 . S
C579 H571 0.950 . S
C579 C577 1.327 . S
C580 C568 1.349 . S
C580 H574 0.950 . S
C580 C581 1.327 . S
C581 H575 0.950 . S
C581 C580 1.327 . S
C581 C585 1.429 . S
C582 C565 1.574 1_455 S
C582 H576 0.949 . S
C582 C586 1.368 1_565 S
C583 C564 1.429 . S
C583 C577 1.429 . S
C583 C584 1.523 . S
C584 C565 1.368 . S
C584 C578 1.368 1_565 S
C584 C583 1.523 . S
C585 C569 1.429 . S
C585 C581 1.429 . S
C585 C586 1.523 . S
C586 C570 1.368 . S
C586 C582 1.368 1_545 S
C586 C585 1.523 . S
H587 C562 0.950 . S
H588 C564 0.950 1_545 S
H589 C565 0.949 . S
H590 C567 0.950 . S
H591 C569 0.950 1_565 S
C113 C11 1.350 . S
C118 C39 1.350 . S
C143 C53 1.350 . S
C148 C25 1.350 . S
C173 C95 1.350 . S
C178 C67 1.350 . S
C203 C81 1.350 . S
C208 C109 1.350 . S
C233 C93 1.379 . S
C238 C9 1.379 . S
C263 C23 1.379 . S
C268 C107 1.379 . S
C293 C37 1.379 . S
C298 C65 1.379 . S
C323 C79 1.379 . S
C328 C51 1.379 . S
C353 C0 1.280 . S
C358 C70 1.280 . S
C383 C84 1.280 . S
C388 C14 1.280 . S
C413 C98 1.280 . S
C418 C28 1.280 . S
C443 C42 1.280 . S
C448 C56 1.280 . S
C473 C5 0.796 . S
C478 C33 0.796 . S
C503 C47 0.796 . S
C508 C19 0.796 . S
C533 C89 0.796 . S
C538 C61 0.796 . S
C563 C103 0.796 . S
C568 C75 0.796 . S
