# Generated by pormake.
# Topology zfa, (5)-cn, num edge types: 1
# Building blocks:
#     Node 0, Type 0, BuildingBlock: XOMCOT_clean_sbu_0, # of connection points: 5
#     Node 1, Type 0, BuildingBlock: XOMCOT_clean_sbu_0, # of connection points: 5
#     Node 2, Type 0, BuildingBlock: XOMCOT_clean_sbu_0, # of connection points: 5
#     Node 3, Type 0, BuildingBlock: XOMCOT_clean_sbu_0, # of connection points: 5
#     Node 4, Type 0, BuildingBlock: XOMCOT_clean_sbu_0, # of connection points: 5
#     Node 5, Type 0, BuildingBlock: XOMCOT_clean_sbu_0, # of connection points: 5
#     Node 6, Type 0, BuildingBlock: XOMCOT_clean_sbu_0, # of connection points: 5
#     Node 7, Type 0, BuildingBlock: XOMCOT_clean_sbu_0, # of connection points: 5
#     Edge 8, Type (0, 0), BuildingBlock: OJICUG_clean_linker_0, # of connection points: 2
#     Edge 9, Type (0, 0), BuildingBlock: OJICUG_clean_linker_0, # of connection points: 2
#     Edge 10, Type (0, 0), BuildingBlock: OJICUG_clean_linker_0, # of connection points: 2
#     Edge 11, Type (0, 0), BuildingBlock: OJICUG_clean_linker_0, # of connection points: 2
#     Edge 12, Type (0, 0), BuildingBlock: OJICUG_clean_linker_0, # of connection points: 2
#     Edge 13, Type (0, 0), BuildingBlock: OJICUG_clean_linker_0, # of connection points: 2
#     Edge 14, Type (0, 0), BuildingBlock: OJICUG_clean_linker_0, # of connection points: 2
#     Edge 15, Type (0, 0), BuildingBlock: OJICUG_clean_linker_0, # of connection points: 2
#     Edge 16, Type (0, 0), BuildingBlock: OJICUG_clean_linker_0, # of connection points: 2
#     Edge 17, Type (0, 0), BuildingBlock: OJICUG_clean_linker_0, # of connection points: 2
#     Edge 18, Type (0, 0), BuildingBlock: OJICUG_clean_linker_0, # of connection points: 2
#     Edge 19, Type (0, 0), BuildingBlock: OJICUG_clean_linker_0, # of connection points: 2
#     Edge 20, Type (0, 0), BuildingBlock: OJICUG_clean_linker_0, # of connection points: 2
#     Edge 21, Type (0, 0), BuildingBlock: OJICUG_clean_linker_0, # of connection points: 2
#     Edge 22, Type (0, 0), BuildingBlock: OJICUG_clean_linker_0, # of connection points: 2
#     Edge 23, Type (0, 0), BuildingBlock: OJICUG_clean_linker_0, # of connection points: 2
#     Edge 24, Type (0, 0), BuildingBlock: OJICUG_clean_linker_0, # of connection points: 2
#     Edge 25, Type (0, 0), BuildingBlock: OJICUG_clean_linker_0, # of connection points: 2
#     Edge 26, Type (0, 0), BuildingBlock: OJICUG_clean_linker_0, # of connection points: 2
#     Edge 27, Type (0, 0), BuildingBlock: OJICUG_clean_linker_0, # of connection points: 2
# Relax obj value: 0.223
# Max RMSD: 0.196
# Mean RMSD: 0.196
data_MOF--net-zfa--node1-XOMCOT_clean_sbu_0--edge1-OJICUG_clean_linker_0
_symmetry_space_group_name_H-M    P1
_symmetry_Int_Tables_number       1
_symmetry_cell_setting            triclinic
loop_
_symmetry_equiv_pos_as_xyz
'x, y, z'
_cell_length_a     23.862719
_cell_length_b     23.870823
_cell_length_c     30.108412
_cell_angle_alpha  89.875614
_cell_angle_beta   90.006094
_cell_angle_gamma 89.999657
loop_
_atom_site_label
_atom_site_type_symbol
_atom_site_fract_x
_atom_site_fract_y
_atom_site_fract_z
_atom_type_partial_charge
Co0 Co 0.1349 0.26439 0.36893 0.0
C1 C 0.11276 0.38626 0.35895 0.0
C2 C 0.12362 0.36298 0.42705 0.0
C3 C 0.10657 0.41772 0.4255 0.0
N4 N 0.12972 0.34327 0.38527 0.0
N5 N 0.09929 0.43217 0.38277 0.0
H6 H 0.10547 0.38274 0.32361 0.0
H7 H 0.12474 0.33814 0.457 0.0
C8 C 0.20637 0.26786 0.45004 0.0
O9 O 0.2332 0.3097 0.43113 0.0
N10 N 0.13675 0.18645 0.35231 0.0
C11 C 0.15672 0.16624 0.31363 0.0
C12 C 0.13498 0.11377 0.30691 0.0
C13 C 0.10287 0.14614 0.36843 0.0
N14 N 0.10018 0.10171 0.34091 0.0
C15 C 0.22527 0.31271 0.31537 0.0
C16 C 0.30513 0.23541 0.34214 0.0
C17 C 0.32087 0.27675 0.3116 0.0
C18 C 0.27994 0.31569 0.29795 0.0
C19 C 0.2506 0.23381 0.35843 0.0
N20 N 0.21136 0.27258 0.34581 0.0
H21 H 0.19408 0.34203 0.30384 0.0
H22 H 0.23959 0.20031 0.38099 0.0
H23 H 0.18096 0.18999 0.28979 0.0
H24 H 0.07552 0.15215 0.39669 0.0
O25 O 0.09063 0.27841 0.31575 0.0
O26 O 0.05596 0.25746 0.38195 0.0
O27 O 0.16526 0.24458 0.4299 0.0
C28 C 0.04667 0.26803 0.34024 0.0
H29 H 0.09397 0.44286 0.4537 0.0
H30 H 0.14066 0.08861 0.27739 0.0
H31 H 0.33435 0.2033 0.35265 0.0
H32 H 0.29002 0.34817 0.27411 0.0
Co33 Co 0.27087 0.63429 0.86893 0.0
C34 C 0.14925 0.61084 0.85898 0.0
C35 C 0.17223 0.62167 0.92709 0.0
C36 C 0.11764 0.6041 0.92552 0.0
N37 N 0.19201 0.62811 0.88531 0.0
N38 N 0.10338 0.59687 0.88278 0.0
H39 H 0.15292 0.60374 0.82363 0.0
H40 H 0.19698 0.62299 0.95704 0.0
C41 C 0.26667 0.70527 0.95023 0.0
O42 O 0.22449 0.73177 0.93151 0.0
N43 N 0.34883 0.63717 0.85231 0.0
C44 C 0.36897 0.65755 0.81367 0.0
C45 C 0.42176 0.6365 0.80701 0.0
C46 C 0.3895 0.60376 0.86846 0.0
N47 N 0.43411 0.60172 0.841 0.0
C48 C 0.22139 0.72434 0.81562 0.0
C49 C 0.2976 0.80508 0.84238 0.0
C50 C 0.25598 0.82045 0.812 0.0
C51 C 0.21761 0.77907 0.79835 0.0
C52 C 0.3 0.75046 0.85855 0.0
N53 N 0.26176 0.71078 0.84594 0.0
H54 H 0.19249 0.69283 0.80407 0.0
H55 H 0.33368 0.73977 0.88102 0.0
H56 H 0.34501 0.68159 0.78983 0.0
H57 H 0.38367 0.57623 0.89669 0.0
O58 O 0.25745 0.59014 0.81568 0.0
O59 O 0.27871 0.55532 0.88178 0.0
O60 O 0.29031 0.66451 0.92995 0.0
C61 C 0.26829 0.54614 0.84006 0.0
H62 H 0.0925 0.5912 0.9537 0.0
H63 H 0.44698 0.64257 0.77751 0.0
H64 H 0.32933 0.83466 0.8529 0.0
H65 H 0.18492 0.78882 0.77462 0.0
Co66 Co 0.90021 0.77284 0.36897 0.0
C67 C 0.92897 0.65249 0.35985 0.0
C68 C 0.91846 0.67638 0.42775 0.0
C69 C 0.94197 0.62414 0.42671 0.0
N70 N 0.90877 0.69431 0.38583 0.0
N71 N 0.94916 0.60932 0.3841 0.0
H72 H 0.93547 0.65632 0.32442 0.0
H73 H 0.91659 0.70195 0.4572 0.0
C74 C 0.83012 0.76668 0.45069 0.0
O75 O 0.80514 0.72342 0.43235 0.0
N76 N 0.89514 0.85059 0.35208 0.0
C77 C 0.87427 0.87026 0.31347 0.0
C78 C 0.89376 0.92371 0.3069 0.0
C79 C 0.9272 0.89216 0.36833 0.0
N80 N 0.92802 0.93694 0.34095 0.0
C81 C 0.81101 0.72095 0.31635 0.0
C82 C 0.72881 0.79566 0.34305 0.0
C83 C 0.71423 0.7539 0.31265 0.0
C84 C 0.75633 0.71623 0.29908 0.0
C85 C 0.78335 0.79901 0.35918 0.0
N86 N 0.82381 0.76164 0.34649 0.0
H87 H 0.8431 0.69256 0.30494 0.0
H88 H 0.79337 0.83289 0.38156 0.0
H89 H 0.85098 0.8457 0.28962 0.0
H90 H 0.95479 0.88698 0.39658 0.0
O91 O 0.94444 0.76037 0.31552 0.0
O92 O 0.9791 0.78282 0.38131 0.0
O93 O 0.86981 0.79174 0.43003 0.0
C94 C 0.98834 0.77224 0.33963 0.0
H95 H 0.95949 0.60204 0.45494 0.0
H96 H 0.88708 0.94884 0.27741 0.0
H97 H 0.69868 0.82687 0.35354 0.0
H98 H 0.74718 0.68343 0.27538 0.0
Co99 Co 0.76246 0.39927 0.8688 0.0
C100 C 0.88314 0.42672 0.85941 0.0
C101 C 0.85938 0.41577 0.92735 0.0
C102 C 0.9119 0.43868 0.92621 0.0
N103 N 0.84117 0.40671 0.88546 0.0
N104 N 0.92664 0.44617 0.88357 0.0
H105 H 0.87923 0.43367 0.82404 0.0
H106 H 0.83389 0.41397 0.95689 0.0
C107 C 0.76789 0.3287 0.95036 0.0
O108 O 0.81075 0.30323 0.93181 0.0
N109 N 0.6846 0.39531 0.85205 0.0
C110 C 0.66473 0.37485 0.81343 0.0
C111 C 0.61157 0.39508 0.80686 0.0
C112 C 0.64343 0.42791 0.86829 0.0
N113 N 0.59872 0.42941 0.8409 0.0
C114 C 0.81309 0.30969 0.81591 0.0
C115 C 0.73721 0.22847 0.84271 0.0
C116 C 0.77871 0.21347 0.81217 0.0
C117 C 0.81697 0.25507 0.79854 0.0
C118 C 0.73468 0.28292 0.85893 0.0
N119 N 0.77261 0.3229 0.84618 0.0
H120 H 0.84192 0.34143 0.80449 0.0
H121 H 0.70098 0.29331 0.88142 0.0
H122 H 0.68903 0.35132 0.78957 0.0
H123 H 0.64889 0.45535 0.89654 0.0
O124 O 0.77542 0.44362 0.81541 0.0
O125 O 0.75351 0.47811 0.88135 0.0
O126 O 0.74328 0.3688 0.92985 0.0
C127 C 0.76411 0.48747 0.83966 0.0
H128 H 0.93425 0.45575 0.95443 0.0
H129 H 0.5864 0.38881 0.77738 0.0
H130 H 0.70559 0.19874 0.85325 0.0
H131 H 0.84959 0.24556 0.77473 0.0
Co132 Co 0.63488 0.26974 0.21075 0.0
C133 C 0.61275 0.14788 0.22071 0.0
C134 C 0.62359 0.17117 0.15262 0.0
C135 C 0.60654 0.11643 0.15415 0.0
N136 N 0.6297 0.19087 0.1944 0.0
N137 N 0.59927 0.10197 0.19688 0.0
H138 H 0.60547 0.15138 0.25606 0.0
H139 H 0.6247 0.19602 0.12267 0.0
C140 C 0.70635 0.26628 0.12965 0.0
O141 O 0.73317 0.22444 0.14856 0.0
N142 N 0.63673 0.34768 0.22738 0.0
C143 C 0.65671 0.36788 0.26606 0.0
C144 C 0.63497 0.42034 0.2728 0.0
C145 C 0.60284 0.388 0.21128 0.0
N146 N 0.60016 0.43242 0.23881 0.0
C147 C 0.72527 0.22141 0.26431 0.0
C148 C 0.80512 0.29872 0.23755 0.0
C149 C 0.82086 0.25737 0.26808 0.0
C150 C 0.77995 0.21843 0.28172 0.0
C151 C 0.75058 0.30032 0.22126 0.0
N152 N 0.71135 0.26155 0.23387 0.0
H153 H 0.69408 0.19209 0.27583 0.0
H154 H 0.73956 0.33383 0.19871 0.0
H155 H 0.68096 0.34412 0.2899 0.0
H156 H 0.57548 0.38199 0.18301 0.0
O157 O 0.59062 0.25571 0.26392 0.0
O158 O 0.55593 0.27667 0.19773 0.0
O159 O 0.66523 0.28957 0.14979 0.0
C160 C 0.54665 0.2661 0.23944 0.0
H161 H 0.59393 0.09129 0.12596 0.0
H162 H 0.64065 0.4455 0.30232 0.0
H163 H 0.83433 0.33084 0.22704 0.0
H164 H 0.79003 0.18594 0.30556 0.0
Co165 Co 0.26248 0.13488 0.7109 0.0
C166 C 0.38316 0.10743 0.72028 0.0
C167 C 0.35938 0.1184 0.65235 0.0
C168 C 0.4119 0.09548 0.65348 0.0
N169 N 0.34118 0.12745 0.69424 0.0
N170 N 0.42665 0.08798 0.69611 0.0
H171 H 0.37927 0.10047 0.75565 0.0
H172 H 0.33388 0.1202 0.6228 0.0
C173 C 0.26788 0.20547 0.62935 0.0
O174 O 0.31074 0.23093 0.64791 0.0
N175 N 0.18462 0.13883 0.72765 0.0
C176 C 0.16477 0.15929 0.76628 0.0
C177 C 0.11161 0.13904 0.77286 0.0
C178 C 0.14345 0.10622 0.71142 0.0
N179 N 0.09876 0.10471 0.73881 0.0
C180 C 0.31312 0.22446 0.76379 0.0
C181 C 0.23722 0.30567 0.737 0.0
C182 C 0.27872 0.32068 0.76754 0.0
C183 C 0.317 0.27908 0.78116 0.0
C184 C 0.23469 0.25122 0.72078 0.0
N185 N 0.27263 0.21125 0.73353 0.0
H186 H 0.34196 0.19272 0.77521 0.0
H187 H 0.20098 0.24083 0.69829 0.0
H188 H 0.18907 0.18282 0.79014 0.0
H189 H 0.14891 0.07879 0.68317 0.0
O190 O 0.27545 0.09053 0.76429 0.0
O191 O 0.25353 0.05604 0.69835 0.0
O192 O 0.24328 0.16535 0.64986 0.0
C193 C 0.26414 0.04667 0.74003 0.0
H194 H 0.43423 0.07842 0.62526 0.0
H195 H 0.08645 0.1453 0.80234 0.0
H196 H 0.20558 0.3354 0.72647 0.0
H197 H 0.34963 0.2886 0.80497 0.0
Co198 Co 0.40018 0.7613 0.21076 0.0
C199 C 0.42896 0.88165 0.21985 0.0
C200 C 0.4184 0.85774 0.15195 0.0
C201 C 0.44193 0.90997 0.15297 0.0
N202 N 0.40873 0.83982 0.19388 0.0
N203 N 0.44914 0.92481 0.19558 0.0
H204 H 0.43548 0.87784 0.25527 0.0
H205 H 0.41653 0.83216 0.12251 0.0
C206 C 0.33006 0.76743 0.12903 0.0
O207 O 0.30509 0.81069 0.14738 0.0
N208 N 0.39513 0.68355 0.22766 0.0
C209 C 0.37428 0.66389 0.26628 0.0
C210 C 0.39377 0.61045 0.27285 0.0
C211 C 0.42718 0.64198 0.21141 0.0
N212 N 0.42801 0.5972 0.23879 0.0
C213 C 0.311 0.81321 0.26337 0.0
C214 C 0.2288 0.73848 0.23669 0.0
C215 C 0.21422 0.78025 0.26707 0.0
C216 C 0.25633 0.81793 0.28064 0.0
C217 C 0.28333 0.73512 0.22056 0.0
N218 N 0.32379 0.7725 0.23324 0.0
H219 H 0.34309 0.84161 0.27476 0.0
H220 H 0.29335 0.70124 0.19818 0.0
H221 H 0.35101 0.68846 0.29012 0.0
H222 H 0.45475 0.64715 0.18315 0.0
O223 O 0.44444 0.77379 0.2642 0.0
O224 O 0.47908 0.75131 0.19841 0.0
O225 O 0.36977 0.74238 0.1497 0.0
C226 C 0.48833 0.76191 0.24009 0.0
H227 H 0.45944 0.93206 0.12473 0.0
H228 H 0.38711 0.58531 0.30234 0.0
H229 H 0.19867 0.70726 0.22621 0.0
H230 H 0.24718 0.85074 0.30433 0.0
Co231 Co 0.77089 0.89986 0.71077 0.0
C232 C 0.64926 0.92331 0.7207 0.0
C233 C 0.67225 0.91247 0.6526 0.0
C234 C 0.61766 0.93005 0.65415 0.0
N235 N 0.69203 0.90604 0.69438 0.0
N236 N 0.6034 0.93728 0.69689 0.0
H237 H 0.65293 0.93041 0.75605 0.0
H238 H 0.697 0.91115 0.62265 0.0
C239 C 0.7667 0.82887 0.62947 0.0
O240 O 0.72452 0.80237 0.64818 0.0
N241 N 0.84885 0.89698 0.72741 0.0
C242 C 0.86898 0.8766 0.76605 0.0
C243 C 0.92178 0.89764 0.77272 0.0
C244 C 0.88952 0.93037 0.71126 0.0
N245 N 0.93413 0.93241 0.73873 0.0
C246 C 0.7214 0.80981 0.76407 0.0
C247 C 0.79761 0.72907 0.73733 0.0
C248 C 0.75598 0.7137 0.7677 0.0
C249 C 0.71761 0.75508 0.78134 0.0
C250 C 0.80002 0.78369 0.72117 0.0
N251 N 0.76177 0.82337 0.73377 0.0
H252 H 0.6925 0.84132 0.77562 0.0
H253 H 0.8337 0.79437 0.69871 0.0
H254 H 0.84503 0.85256 0.78989 0.0
H255 H 0.88369 0.95791 0.68303 0.0
O256 O 0.75746 0.94401 0.76402 0.0
O257 O 0.77873 0.97883 0.69793 0.0
O258 O 0.79033 0.86964 0.64976 0.0
C259 C 0.7683 0.98801 0.73964 0.0
H260 H 0.59252 0.94295 0.62597 0.0
H261 H 0.947 0.89158 0.80222 0.0
H262 H 0.82933 0.69948 0.72682 0.0
H263 H 0.68492 0.74533 0.80506 0.0
C264 C 0.04647 0.57779 0.38177 0.0
C265 C 0.99012 0.56902 0.37036 0.0
H266 H 0.1263 0.53968 0.39424 0.0
C267 C 0.97342 0.51652 0.35434 0.0
H268 H 0.05979 0.61802 0.39457 0.0
C269 C 1.01173 0.47196 0.35344 0.0
C270 C 0.06672 0.47961 0.3691 0.0
H271 H 0.92991 0.50896 0.34608 0.0
H272 H 0.99711 0.43048 0.34467 0.0
C273 C 0.08436 0.53331 0.38146 0.0
C274 C 0.95788 0.54354 0.88097 0.0
C275 C 0.96701 0.48718 0.86993 0.0
H276 H 0.99557 0.62353 0.89338 0.0
C277 C 0.01986 0.47055 0.85449 0.0
H278 H 0.91739 0.55678 0.89338 0.0
C279 C 0.0643 0.50899 0.85375 0.0
C280 C 0.05623 0.56402 0.86903 0.0
H281 H 0.02769 0.42704 0.84654 0.0
H282 H 0.10599 0.49448 0.84539 0.0
C283 C 1.00226 0.58156 0.88087 0.0
C284 C 0.54646 0.95635 0.19784 0.0
C285 C 0.49013 0.9651 0.2093 0.0
H286 H 0.62627 0.99447 0.18533 0.0
C287 C 0.47344 0.01759 0.22536 0.0
H288 H 0.55976 0.91613 0.185 0.0
C289 C 0.51175 0.06214 0.22626 0.0
C290 C 0.56672 0.05452 0.21055 0.0
H291 H 0.42995 0.02514 0.23367 0.0
H292 H 0.49715 0.10362 0.23507 0.0
C293 C 0.58435 1.00082 0.19815 0.0
C294 C 0.56431 0.02514 0.72595 0.0
C295 C 0.55624 0.97012 0.71063 0.0
H296 H 0.5277 0.10708 0.7332 0.0
C297 C 0.50228 0.9526 0.69876 0.0
H298 H 0.606 0.03963 0.73433 0.0
C299 C 0.4579 0.99061 0.69866 0.0
C300 C 0.46702 0.04696 0.70975 0.0
H301 H 0.4956 0.91063 0.68623 0.0
H302 H 0.41741 0.97737 0.68624 0.0
C303 C 0.51986 0.06358 0.72521 0.0
C304 C 0.4434 0.28296 0.23062 0.0
C305 C 0.48914 0.26911 0.25809 0.0
H306 H 0.35475 0.29633 0.22575 0.0
C307 C 0.47944 0.26011 0.30352 0.0
H308 H 0.44943 0.29054 0.19547 0.0
C309 C 0.42517 0.26407 0.32096 0.0
C310 C 0.37914 0.27703 0.29341 0.0
H311 H 0.51377 0.25003 0.32567 0.0
H312 H 0.41928 0.25695 0.35619 0.0
C313 C 0.3891 0.28692 0.24806 0.0
C314 C 0.24765 0.94339 0.73129 0.0
C315 C 0.26119 0.98912 0.75874 0.0
H316 H 0.23533 0.85465 0.72633 0.0
C317 C 0.27056 0.97927 0.80411 0.0
H318 H 0.23987 0.94951 0.69617 0.0
C319 C 0.26735 0.92487 0.82148 0.0
C320 C 0.2548 0.87884 0.79393 0.0
H321 H 0.28048 1.01357 0.82625 0.0
H322 H 0.27478 0.91888 0.85666 0.0
C323 C 0.24444 0.88896 0.74866 0.0
C324 C 0.5553 0.76746 0.30439 0.0
C325 C 0.54578 0.75852 0.25896 0.0
H326 H 0.61531 0.77139 0.35713 0.0
C327 C 0.59175 0.74517 0.23162 0.0
H328 H 0.52082 0.77717 0.32647 0.0
C329 C 0.64611 0.74194 0.24914 0.0
C330 C 0.65591 0.75207 0.29446 0.0
H331 H 0.58588 0.7377 0.19646 0.0
H332 H 0.68063 0.73314 0.22688 0.0
C333 C 0.6096 0.76418 0.32192 0.0
C334 C 0.78933 0.14555 0.74853 0.0
C335 C 0.77964 0.15526 0.79392 0.0
H336 H 0.79266 0.08549 0.69582 0.0
C337 C 0.76712 0.10902 0.82142 0.0
H338 H 0.79843 0.18004 0.72626 0.0
C339 C 0.76313 0.05486 0.80389 0.0
C340 C 0.77173 0.04542 0.75841 0.0
H341 H 0.76021 0.11468 0.85668 0.0
H342 H 0.75326 0.02041 0.82602 0.0
C343 C 0.78537 0.09132 0.73101 0.0
C344 C 0.94342 0.25115 0.34905 0.0
C345 C 0.98915 0.26501 0.32159 0.0
H346 H 0.85477 0.23778 0.35393 0.0
C347 C 0.97943 0.27401 0.27616 0.0
H348 H 0.94946 0.24357 0.38421 0.0
C349 C 0.92516 0.27005 0.25872 0.0
C350 C 0.87914 0.25709 0.28627 0.0
H351 H 1.01376 0.2841 0.254 0.0
H352 H 0.91926 0.27718 0.22349 0.0
C353 C 0.88911 0.24719 0.33162 0.0
C354 C 0.28538 0.44283 0.8487 0.0
C355 C 0.27172 0.48873 0.82129 0.0
H356 H 0.29846 0.35411 0.85345 0.0
C357 C 0.26312 0.47929 0.77581 0.0
H358 H 0.29268 0.44866 0.88389 0.0
C359 C 0.26712 0.42513 0.75828 0.0
C360 C 0.27966 0.37889 0.78579 0.0
H361 H 0.25324 0.51374 0.75369 0.0
H362 H 0.2602 0.41946 0.72303 0.0
C363 C 0.28935 0.38861 0.83117 0.0
C364 C 0.0553 0.76669 0.27533 0.0
C365 C 0.04579 0.77563 0.32076 0.0
H366 H 0.11529 0.76275 0.22259 0.0
C367 C 0.09176 0.789 0.3481 0.0
H368 H 0.02082 0.75696 0.25326 0.0
C369 C 0.14612 0.79223 0.33058 0.0
C370 C 0.1559 0.78209 0.28526 0.0
H371 H 0.0859 0.79648 0.38326 0.0
H372 H 0.18064 0.80104 0.35284 0.0
C373 C 0.10959 0.76996 0.2578 0.0
C374 C 0.74442 0.64519 0.83104 0.0
C375 C 0.75479 0.65531 0.78577 0.0
H376 H 0.73984 0.58463 0.88352 0.0
C377 C 0.76734 0.60928 0.75821 0.0
H378 H 0.73531 0.6795 0.85336 0.0
C379 C 0.77054 0.55487 0.77559 0.0
C380 C 0.76116 0.54503 0.82096 0.0
H381 H 0.77478 0.61527 0.72304 0.0
H382 H 0.78046 0.52057 0.75345 0.0
C383 C 0.74762 0.59076 0.8484 0.0
C384 C 0.26557 0.27848 0.51783 0.0
C385 C 0.22172 0.25084 0.49575 0.0
H386 H 0.3141 0.28616 0.577 0.0
C387 C 0.19261 0.208 0.51811 0.0
H388 H 0.28889 0.31171 0.5017 0.0
C389 C 0.20716 0.19325 0.56169 0.0
C390 C 0.25109 0.22108 0.58365 0.0
H391 H 0.15854 0.18595 0.50203 0.0
H392 H 0.18411 0.16004 0.57808 0.0
C393 C 0.28001 0.26384 0.56118 0.0
C394 C 0.34183 0.70641 0.06157 0.0
C395 C 0.31421 0.75049 0.08345 0.0
H396 H 0.34875 0.65752 1.0021 0.0
C397 C 0.27137 0.77937 0.06105 0.0
H398 H 0.3751 0.68338 0.0779 0.0
C399 C 0.25645 0.76474 1.01784 0.0
C400 C 0.2839 0.72075 0.99583 0.0
H401 H 0.24919 0.81356 0.07682 0.0
H402 H 0.22317 0.78804 1.00176 0.0
C403 C 0.32683 0.69169 1.01812 0.0
C404 C 0.7565 0.76938 0.56188 0.0
C405 C 0.78394 0.81338 0.58388 0.0
H406 H 0.74926 0.72053 0.50291 0.0
C407 C 0.82686 0.84245 0.5616 0.0
H408 H 0.72323 0.74607 0.57796 0.0
C409 C 0.84187 0.82771 0.51816 0.0
C410 C 0.81426 0.78362 0.49627 0.0
H411 H 0.84877 0.87662 0.57762 0.0
H412 H 0.87513 0.85075 0.50182 0.0
C413 C 0.77143 0.75473 0.51867 0.0
C414 C 0.76556 0.25569 0.06189 0.0
C415 C 0.7217 0.28332 0.08394 0.0
H416 H 0.81411 0.24802 1.00273 0.0
C417 C 0.69259 0.32615 0.06158 0.0
H418 H 0.78889 0.22246 0.07802 0.0
C419 C 0.70715 0.34091 1.01801 0.0
C420 C 0.75109 0.31309 0.99606 0.0
H421 H 0.65851 0.34819 0.07765 0.0
H422 H 0.68409 0.37411 1.00161 0.0
C423 C 0.78002 0.27033 1.01854 0.0
C424 C 0.99141 1.00101 0.30111 0.0
C425 C 0.96947 0.98061 0.34128 0.0
H426 H 0.04995 0.05522 0.26948 0.0
C427 C 0.99177 1.00023 0.38154 0.0
H428 H 0.97607 0.98605 0.26947 0.0
C429 C 0.03529 0.03943 0.38153 0.0
C430 C 0.05744 0.05932 0.34126 0.0
H431 H 0.97562 0.98513 0.41296 0.0
H432 H 0.05188 0.05393 0.41293 0.0
C433 C 0.03481 0.03985 0.3011 0.0
C434 C 0.49658 0.53702 0.80114 0.0
C435 C 0.47684 0.55932 0.84131 0.0
H436 H 0.55045 0.47839 0.76947 0.0
C437 C 0.49661 0.53698 0.88157 0.0
H438 H 0.48136 0.55233 0.76952 0.0
C439 C 0.53577 0.49343 0.88155 0.0
C440 C 0.55547 0.47129 0.84127 0.0
H441 H 0.48193 0.55335 0.91299 0.0
H442 H 0.55067 0.47703 0.91295 0.0
C443 C 0.53537 0.49358 0.80111 0.0
C444 C 0.49174 0.53391 0.19819 0.0
C445 C 0.46945 0.55353 0.23846 0.0
H446 H 0.55183 0.4802 0.16679 0.0
C447 C 0.49141 0.53312 0.27863 0.0
H448 H 0.47558 0.54901 0.16678 0.0
C449 C 0.53481 0.49427 0.27862 0.0
C450 C 0.55741 0.4748 0.23846 0.0
H451 H 0.47609 0.54807 0.31026 0.0
H452 H 0.54996 0.4789 0.31024 0.0
C453 C 0.53525 0.49471 0.19819 0.0
C454 C 0.0358 0.04069 0.69817 0.0
C455 C 0.05551 0.06283 0.73845 0.0
H456 H 0.98194 0.98078 0.66674 0.0
C457 C 0.03543 0.04054 0.77861 0.0
H458 H 0.05068 0.05709 0.66677 0.0
C459 C 0.99663 0.9971 0.77859 0.0
C460 C 0.97687 0.9748 0.73841 0.0
H461 H 0.05052 0.05573 0.81025 0.0
H462 H 0.98142 0.98179 0.8102 0.0
C463 C 0.99664 0.99715 0.69815 0.0
loop_
_geom_bond_atom_site_label_1
_geom_bond_atom_site_label_2
_geom_bond_distance
_geom_bond_site_symmetry_2
_ccdc_geom_bond_type
Co0 N4 2.148 . S
Co0 N10 2.128 . S
Co0 N20 2.194 . S
Co0 O25 2.351 1_455 S
Co0 O26 2.155 1_455 S
Co0 O27 2.096 . S
C1 N4 1.301 . S
C1 N5 1.328 . S
C1 H6 0.930 . S
C2 C3 1.333 . S
C2 N4 1.317 . S
C2 H7 0.930 . S
C3 C2 1.333 . S
C3 N5 1.350 . S
C3 H29 0.931 . S
N4 Co0 2.148 . S
N4 C1 1.301 . S
N4 C2 1.317 . S
N5 C1 1.328 . S
N5 C3 1.350 . S
H6 C1 0.930 . S
H7 C2 0.930 . S
C8 O9 1.224 . S
C8 O27 1.247 . S
O9 C8 1.224 . S
N10 Co0 2.128 . S
N10 C11 1.355 . S
N10 C13 1.311 . S
C11 N10 1.355 . S
C11 C12 1.363 . S
C11 H23 0.929 . S
C12 C11 1.363 . S
C12 N14 1.375 . S
C12 H30 0.931 . S
C13 N10 1.311 . S
C13 N14 1.347 . S
C13 H24 0.929 . S
N14 C12 1.375 . S
N14 C13 1.347 . S
C15 C18 1.365 . S
C15 N20 1.328 . S
C15 H21 0.929 . S
C16 C17 1.362 . S
C16 C19 1.378 . S
C16 H31 0.929 . S
C17 C16 1.362 . S
C17 C18 1.366 . S
C18 C15 1.365 . S
C18 C17 1.366 . S
C18 H32 0.930 . S
C19 C16 1.378 . S
C19 N20 1.315 . S
C19 H22 0.930 . S
N20 Co0 2.194 . S
N20 C15 1.328 . S
N20 C19 1.315 . S
H21 C15 0.929 . S
H22 C19 0.930 . S
H23 C11 0.929 . S
H24 C13 0.929 . S
O25 Co0 2.351 1_655 S
O25 C28 1.244 . S
O26 Co0 2.155 1_655 S
O26 C28 1.240 . S
O27 Co0 2.096 . S
O27 C8 1.247 . S
C28 O25 1.244 . S
C28 O26 1.240 . S
H29 C3 0.931 . S
H30 C12 0.931 . S
H31 C16 0.929 . S
H32 C18 0.930 . S
Co33 N37 2.148 . S
Co33 N43 2.128 . S
Co33 N53 2.194 . S
Co33 O58 2.351 . S
Co33 O59 2.155 . S
Co33 O60 2.096 . S
C34 N37 1.301 . S
C34 N38 1.328 . S
C34 H39 0.930 . S
C35 C36 1.333 . S
C35 N37 1.317 . S
C35 H40 0.930 . S
C36 C35 1.333 . S
C36 N38 1.350 . S
C36 H62 0.931 . S
N37 Co33 2.148 . S
N37 C34 1.301 . S
N37 C35 1.317 . S
N38 C34 1.328 . S
N38 C36 1.350 . S
H39 C34 0.930 . S
H40 C35 0.930 . S
C41 O42 1.224 . S
C41 O60 1.247 . S
O42 C41 1.224 . S
N43 Co33 2.128 . S
N43 C44 1.355 . S
N43 C46 1.311 . S
C44 N43 1.355 . S
C44 C45 1.363 . S
C44 H56 0.929 . S
C45 C44 1.363 . S
C45 N47 1.375 . S
C45 H63 0.931 . S
C46 N43 1.311 . S
C46 N47 1.347 . S
C46 H57 0.929 . S
N47 C45 1.375 . S
N47 C46 1.347 . S
C48 C51 1.365 . S
C48 N53 1.328 . S
C48 H54 0.929 . S
C49 C50 1.362 . S
C49 C52 1.378 . S
C49 H64 0.929 . S
C50 C49 1.362 . S
C50 C51 1.366 . S
C51 C48 1.365 . S
C51 C50 1.366 . S
C51 H65 0.930 . S
C52 C49 1.378 . S
C52 N53 1.315 . S
C52 H55 0.930 . S
N53 Co33 2.194 . S
N53 C48 1.328 . S
N53 C52 1.315 . S
H54 C48 0.929 . S
H55 C52 0.930 . S
H56 C44 0.929 . S
H57 C46 0.929 . S
O58 Co33 2.351 . S
O58 C61 1.244 . S
O59 Co33 2.155 . S
O59 C61 1.240 . S
O60 Co33 2.096 . S
O60 C41 1.247 . S
C61 O58 1.244 . S
C61 O59 1.240 . S
H62 C36 0.931 . S
H63 C45 0.931 . S
H64 C49 0.929 . S
H65 C51 0.930 . S
Co66 N70 2.148 . S
Co66 N76 2.128 . S
Co66 N86 2.194 . S
Co66 O91 2.351 1_655 S
Co66 O92 2.155 1_655 S
Co66 O93 2.096 . S
C67 N70 1.301 . S
C67 N71 1.328 . S
C67 H72 0.930 . S
C68 C69 1.333 . S
C68 N70 1.317 . S
C68 H73 0.930 . S
C69 C68 1.333 . S
C69 N71 1.350 . S
C69 H95 0.931 . S
N70 Co66 2.148 . S
N70 C67 1.301 . S
N70 C68 1.317 . S
N71 C67 1.328 . S
N71 C69 1.350 . S
H72 C67 0.930 . S
H73 C68 0.930 . S
C74 O75 1.224 . S
C74 O93 1.247 . S
O75 C74 1.224 . S
N76 Co66 2.128 . S
N76 C77 1.355 . S
N76 C79 1.311 . S
C77 N76 1.355 . S
C77 C78 1.363 . S
C77 H89 0.929 . S
C78 C77 1.363 . S
C78 N80 1.375 . S
C78 H96 0.931 . S
C79 N76 1.311 . S
C79 N80 1.347 . S
C79 H90 0.929 . S
N80 C78 1.375 . S
N80 C79 1.347 . S
C81 C84 1.365 . S
C81 N86 1.328 . S
C81 H87 0.929 . S
C82 C83 1.362 . S
C82 C85 1.378 . S
C82 H97 0.929 . S
C83 C82 1.362 . S
C83 C84 1.366 . S
C84 C81 1.365 . S
C84 C83 1.366 . S
C84 H98 0.930 . S
C85 C82 1.378 . S
C85 N86 1.315 . S
C85 H88 0.930 . S
N86 Co66 2.194 . S
N86 C81 1.328 . S
N86 C85 1.315 . S
H87 C81 0.929 . S
H88 C85 0.930 . S
H89 C77 0.929 . S
H90 C79 0.929 . S
O91 Co66 2.351 1_455 S
O91 C94 1.244 . S
O92 Co66 2.155 1_455 S
O92 C94 1.240 . S
O93 Co66 2.096 . S
O93 C74 1.247 . S
C94 O91 1.244 . S
C94 O92 1.240 . S
H95 C69 0.931 . S
H96 C78 0.931 . S
H97 C82 0.929 . S
H98 C84 0.930 . S
Co99 N103 2.148 . S
Co99 N109 2.128 . S
Co99 N119 2.194 . S
Co99 O124 2.351 . S
Co99 O125 2.155 . S
Co99 O126 2.096 . S
C100 N103 1.301 . S
C100 N104 1.328 . S
C100 H105 0.930 . S
C101 C102 1.333 . S
C101 N103 1.317 . S
C101 H106 0.930 . S
C102 C101 1.333 . S
C102 N104 1.350 . S
C102 H128 0.931 . S
N103 Co99 2.148 . S
N103 C100 1.301 . S
N103 C101 1.317 . S
N104 C100 1.328 . S
N104 C102 1.350 . S
H105 C100 0.930 . S
H106 C101 0.930 . S
C107 O108 1.224 . S
C107 O126 1.247 . S
O108 C107 1.224 . S
N109 Co99 2.128 . S
N109 C110 1.355 . S
N109 C112 1.311 . S
C110 N109 1.355 . S
C110 C111 1.363 . S
C110 H122 0.929 . S
C111 C110 1.363 . S
C111 N113 1.375 . S
C111 H129 0.931 . S
C112 N109 1.311 . S
C112 N113 1.347 . S
C112 H123 0.929 . S
N113 C111 1.375 . S
N113 C112 1.347 . S
C114 C117 1.365 . S
C114 N119 1.328 . S
C114 H120 0.929 . S
C115 C116 1.362 . S
C115 C118 1.378 . S
C115 H130 0.929 . S
C116 C115 1.362 . S
C116 C117 1.366 . S
C117 C114 1.365 . S
C117 C116 1.366 . S
C117 H131 0.930 . S
C118 C115 1.378 . S
C118 N119 1.315 . S
C118 H121 0.930 . S
N119 Co99 2.194 . S
N119 C114 1.328 . S
N119 C118 1.315 . S
H120 C114 0.929 . S
H121 C118 0.930 . S
H122 C110 0.929 . S
H123 C112 0.929 . S
O124 Co99 2.351 . S
O124 C127 1.244 . S
O125 Co99 2.155 . S
O125 C127 1.240 . S
O126 Co99 2.096 . S
O126 C107 1.247 . S
C127 O124 1.244 . S
C127 O125 1.240 . S
H128 C102 0.931 . S
H129 C111 0.931 . S
H130 C115 0.929 . S
H131 C117 0.930 . S
Co132 N136 2.148 . S
Co132 N142 2.128 . S
Co132 N152 2.194 . S
Co132 O157 2.351 . S
Co132 O158 2.155 . S
Co132 O159 2.096 . S
C133 N136 1.301 . S
C133 N137 1.328 . S
C133 H138 0.930 . S
C134 C135 1.333 . S
C134 N136 1.317 . S
C134 H139 0.930 . S
C135 C134 1.333 . S
C135 N137 1.350 . S
C135 H161 0.931 . S
N136 Co132 2.148 . S
N136 C133 1.301 . S
N136 C134 1.317 . S
N137 C133 1.328 . S
N137 C135 1.350 . S
H138 C133 0.930 . S
H139 C134 0.930 . S
C140 O141 1.224 . S
C140 O159 1.247 . S
O141 C140 1.224 . S
N142 Co132 2.128 . S
N142 C143 1.355 . S
N142 C145 1.311 . S
C143 N142 1.355 . S
C143 C144 1.363 . S
C143 H155 0.929 . S
C144 C143 1.363 . S
C144 N146 1.375 . S
C144 H162 0.931 . S
C145 N142 1.311 . S
C145 N146 1.347 . S
C145 H156 0.929 . S
N146 C144 1.375 . S
N146 C145 1.347 . S
C147 C150 1.365 . S
C147 N152 1.328 . S
C147 H153 0.929 . S
C148 C149 1.362 . S
C148 C151 1.378 . S
C148 H163 0.929 . S
C149 C148 1.362 . S
C149 C150 1.366 . S
C150 C147 1.365 . S
C150 C149 1.366 . S
C150 H164 0.930 . S
C151 C148 1.378 . S
C151 N152 1.315 . S
C151 H154 0.930 . S
N152 Co132 2.194 . S
N152 C147 1.328 . S
N152 C151 1.315 . S
H153 C147 0.929 . S
H154 C151 0.930 . S
H155 C143 0.929 . S
H156 C145 0.929 . S
O157 Co132 2.351 . S
O157 C160 1.244 . S
O158 Co132 2.155 . S
O158 C160 1.240 . S
O159 Co132 2.096 . S
O159 C140 1.247 . S
C160 O157 1.244 . S
C160 O158 1.240 . S
H161 C135 0.931 . S
H162 C144 0.931 . S
H163 C148 0.929 . S
H164 C150 0.930 . S
Co165 N169 2.148 . S
Co165 N175 2.128 . S
Co165 N185 2.194 . S
Co165 O190 2.351 1_545 S
Co165 O191 2.155 1_545 S
Co165 O192 2.096 . S
C166 N169 1.301 . S
C166 N170 1.328 . S
C166 H171 0.930 . S
C167 C168 1.333 . S
C167 N169 1.317 . S
C167 H172 0.930 . S
C168 C167 1.333 . S
C168 N170 1.350 . S
C168 H194 0.931 . S
N169 Co165 2.148 . S
N169 C166 1.301 . S
N169 C167 1.317 . S
N170 C166 1.328 . S
N170 C168 1.350 . S
H171 C166 0.930 . S
H172 C167 0.930 . S
C173 O174 1.224 . S
C173 O192 1.247 . S
O174 C173 1.224 . S
N175 Co165 2.128 . S
N175 C176 1.355 . S
N175 C178 1.311 . S
C176 N175 1.355 . S
C176 C177 1.363 . S
C176 H188 0.929 . S
C177 C176 1.363 . S
C177 N179 1.375 . S
C177 H195 0.931 . S
C178 N175 1.311 . S
C178 N179 1.347 . S
C178 H189 0.929 . S
N179 C177 1.375 . S
N179 C178 1.347 . S
C180 C183 1.365 . S
C180 N185 1.328 . S
C180 H186 0.929 . S
C181 C182 1.362 . S
C181 C184 1.378 . S
C181 H196 0.929 . S
C182 C181 1.362 . S
C182 C183 1.366 . S
C183 C180 1.365 . S
C183 C182 1.366 . S
C183 H197 0.930 . S
C184 C181 1.378 . S
C184 N185 1.315 . S
C184 H187 0.930 . S
N185 Co165 2.194 . S
N185 C180 1.328 . S
N185 C184 1.315 . S
H186 C180 0.929 . S
H187 C184 0.930 . S
H188 C176 0.929 . S
H189 C178 0.929 . S
O190 Co165 2.351 1_565 S
O190 C193 1.244 . S
O191 Co165 2.155 1_565 S
O191 C193 1.240 . S
O192 Co165 2.096 . S
O192 C173 1.247 . S
C193 O190 1.244 . S
C193 O191 1.240 . S
H194 C168 0.931 . S
H195 C177 0.931 . S
H196 C181 0.929 . S
H197 C183 0.930 . S
Co198 N202 2.148 . S
Co198 N208 2.128 . S
Co198 N218 2.194 . S
Co198 O223 2.351 . S
Co198 O224 2.155 . S
Co198 O225 2.096 . S
C199 N202 1.301 . S
C199 N203 1.328 . S
C199 H204 0.930 . S
C200 C201 1.333 . S
C200 N202 1.317 . S
C200 H205 0.930 . S
C201 C200 1.333 . S
C201 N203 1.350 . S
C201 H227 0.931 . S
N202 Co198 2.148 . S
N202 C199 1.301 . S
N202 C200 1.317 . S
N203 C199 1.328 . S
N203 C201 1.350 . S
H204 C199 0.930 . S
H205 C200 0.930 . S
C206 O207 1.224 . S
C206 O225 1.247 . S
O207 C206 1.224 . S
N208 Co198 2.128 . S
N208 C209 1.355 . S
N208 C211 1.311 . S
C209 N208 1.355 . S
C209 C210 1.363 . S
C209 H221 0.929 . S
C210 C209 1.363 . S
C210 N212 1.375 . S
C210 H228 0.931 . S
C211 N208 1.311 . S
C211 N212 1.347 . S
C211 H222 0.929 . S
N212 C210 1.375 . S
N212 C211 1.347 . S
C213 C216 1.365 . S
C213 N218 1.328 . S
C213 H219 0.929 . S
C214 C215 1.362 . S
C214 C217 1.378 . S
C214 H229 0.929 . S
C215 C214 1.362 . S
C215 C216 1.366 . S
C216 C213 1.365 . S
C216 C215 1.366 . S
C216 H230 0.930 . S
C217 C214 1.378 . S
C217 N218 1.315 . S
C217 H220 0.930 . S
N218 Co198 2.194 . S
N218 C213 1.328 . S
N218 C217 1.315 . S
H219 C213 0.929 . S
H220 C217 0.930 . S
H221 C209 0.929 . S
H222 C211 0.929 . S
O223 Co198 2.351 . S
O223 C226 1.244 . S
O224 Co198 2.155 . S
O224 C226 1.240 . S
O225 Co198 2.096 . S
O225 C206 1.247 . S
C226 O223 1.244 . S
C226 O224 1.240 . S
H227 C201 0.931 . S
H228 C210 0.931 . S
H229 C214 0.929 . S
H230 C216 0.930 . S
Co231 N235 2.148 . S
Co231 N241 2.128 . S
Co231 N251 2.194 . S
Co231 O256 2.351 1_565 S
Co231 O257 2.155 1_565 S
Co231 O258 2.096 . S
C232 N235 1.301 . S
C232 N236 1.328 . S
C232 H237 0.930 . S
C233 C234 1.333 . S
C233 N235 1.317 . S
C233 H238 0.930 . S
C234 C233 1.333 . S
C234 N236 1.350 . S
C234 H260 0.931 . S
N235 Co231 2.148 . S
N235 C232 1.301 . S
N235 C233 1.317 . S
N236 C232 1.328 . S
N236 C234 1.350 . S
H237 C232 0.930 . S
H238 C233 0.930 . S
C239 O240 1.224 . S
C239 O258 1.247 . S
O240 C239 1.224 . S
N241 Co231 2.128 . S
N241 C242 1.355 . S
N241 C244 1.311 . S
C242 N241 1.355 . S
C242 C243 1.363 . S
C242 H254 0.929 . S
C243 C242 1.363 . S
C243 N245 1.375 . S
C243 H261 0.931 . S
C244 N241 1.311 . S
C244 N245 1.347 . S
C244 H255 0.929 . S
N245 C243 1.375 . S
N245 C244 1.347 . S
C246 C249 1.365 . S
C246 N251 1.328 . S
C246 H252 0.929 . S
C247 C248 1.362 . S
C247 C250 1.378 . S
C247 H262 0.929 . S
C248 C247 1.362 . S
C248 C249 1.366 . S
C249 C246 1.365 . S
C249 C248 1.366 . S
C249 H263 0.930 . S
C250 C247 1.378 . S
C250 N251 1.315 . S
C250 H253 0.930 . S
N251 Co231 2.194 . S
N251 C246 1.328 . S
N251 C250 1.315 . S
H252 C246 0.929 . S
H253 C250 0.930 . S
H254 C242 0.929 . S
H255 C244 0.929 . S
O256 Co231 2.351 1_545 S
O256 C259 1.244 . S
O257 Co231 2.155 1_545 S
O257 C259 1.240 . S
O258 Co231 2.096 . S
O258 C239 1.247 . S
C259 O256 1.244 . S
C259 O257 1.240 . S
H260 C234 0.931 . S
H261 C243 0.931 . S
H262 C247 0.929 . S
H263 C249 0.930 . S
C264 C265 1.387 . S
C264 H268 0.950 . S
C264 C273 1.390 1_655 S
C265 C264 1.387 . S
C265 C267 1.387 . S
H266 C273 0.950 . S
C267 C265 1.387 . S
C267 C269 1.390 1_655 S
C267 H271 0.950 . S
H268 C264 0.950 . S
C269 C267 1.390 1_455 S
C269 C270 1.387 . S
C269 H272 0.950 . S
C270 C269 1.387 . S
C270 C273 1.387 . S
H271 C267 0.950 . S
H272 C269 0.950 . S
C273 C264 1.390 1_455 S
C273 H266 0.950 . S
C273 C270 1.387 . S
C274 C275 1.387 . S
C274 H278 0.950 . S
C274 C283 1.390 1_655 S
C275 C274 1.387 . S
C275 C277 1.387 . S
H276 C283 0.950 . S
C277 C275 1.387 . S
C277 C279 1.390 1_655 S
C277 H281 0.950 . S
H278 C274 0.950 . S
C279 C277 1.390 1_455 S
C279 C280 1.387 . S
C279 H282 0.950 . S
C280 C279 1.387 . S
C280 C283 1.387 . S
H281 C277 0.950 . S
H282 C279 0.950 . S
C283 C274 1.390 1_455 S
C283 H276 0.950 . S
C283 C280 1.387 . S
C284 C285 1.387 . S
C284 H288 0.950 . S
C284 C293 1.390 1_565 S
C285 C284 1.387 . S
C285 C287 1.387 . S
H286 C293 0.950 . S
C287 C285 1.387 . S
C287 C289 1.390 1_565 S
C287 H291 0.950 . S
H288 C284 0.950 . S
C289 C287 1.390 1_545 S
C289 C290 1.387 . S
C289 H292 0.950 . S
C290 C289 1.387 . S
C290 C293 1.387 . S
H291 C287 0.950 . S
H292 C289 0.950 . S
C293 C284 1.390 1_545 S
C293 H286 0.950 . S
C293 C290 1.387 . S
C294 C295 1.387 . S
C294 H298 0.950 . S
C294 C303 1.390 1_565 S
C295 C294 1.387 . S
C295 C297 1.387 . S
H296 C303 0.950 . S
C297 C295 1.387 . S
C297 C299 1.390 1_565 S
C297 H301 0.950 . S
H298 C294 0.950 . S
C299 C297 1.390 1_545 S
C299 C300 1.387 . S
C299 H302 0.950 . S
C300 C299 1.387 . S
C300 C303 1.387 . S
H301 C297 0.950 . S
H302 C299 0.950 . S
C303 C294 1.390 1_545 S
C303 H296 0.950 . S
C303 C300 1.387 . S
C304 C305 1.387 . S
C304 H308 0.950 . S
C304 C313 1.390 . S
C305 C304 1.387 . S
C305 C307 1.387 . S
H306 C313 0.950 . S
C307 C305 1.387 . S
C307 C309 1.390 . S
C307 H311 0.950 . S
H308 C304 0.950 . S
C309 C307 1.390 . S
C309 C310 1.387 . S
C309 H312 0.950 . S
C310 C309 1.387 . S
C310 C313 1.387 . S
H311 C307 0.950 . S
H312 C309 0.950 . S
C313 C304 1.390 . S
C313 H306 0.950 . S
C313 C310 1.387 . S
C314 C315 1.387 . S
C314 H318 0.950 . S
C314 C323 1.390 . S
C315 C314 1.387 . S
C315 C317 1.387 . S
H316 C323 0.950 . S
C317 C315 1.387 . S
C317 C319 1.390 . S
C317 H321 0.950 . S
H318 C314 0.950 . S
C319 C317 1.390 . S
C319 C320 1.387 . S
C319 H322 0.950 . S
C320 C319 1.387 . S
C320 C323 1.387 . S
H321 C317 0.950 . S
H322 C319 0.950 . S
C323 C314 1.390 . S
C323 H316 0.950 . S
C323 C320 1.387 . S
C324 C325 1.387 . S
C324 H328 0.950 . S
C324 C333 1.390 . S
C325 C324 1.387 . S
C325 C327 1.387 . S
H326 C333 0.950 . S
C327 C325 1.387 . S
C327 C329 1.390 . S
C327 H331 0.950 . S
H328 C324 0.950 . S
C329 C327 1.390 . S
C329 C330 1.387 . S
C329 H332 0.950 . S
C330 C329 1.387 . S
C330 C333 1.387 . S
H331 C327 0.950 . S
H332 C329 0.950 . S
C333 C324 1.390 . S
C333 H326 0.950 . S
C333 C330 1.387 . S
C334 C335 1.387 . S
C334 H338 0.950 . S
C334 C343 1.390 . S
C335 C334 1.387 . S
C335 C337 1.387 . S
H336 C343 0.950 . S
C337 C335 1.387 . S
C337 C339 1.390 . S
C337 H341 0.950 . S
H338 C334 0.950 . S
C339 C337 1.390 . S
C339 C340 1.387 . S
C339 H342 0.950 . S
C340 C339 1.387 . S
C340 C343 1.387 . S
H341 C337 0.950 . S
H342 C339 0.950 . S
C343 C334 1.390 . S
C343 H336 0.950 . S
C343 C340 1.387 . S
C344 C345 1.387 . S
C344 H348 0.950 . S
C344 C353 1.390 . S
C345 C344 1.387 . S
C345 C347 1.387 . S
H346 C353 0.950 . S
C347 C345 1.387 . S
C347 C349 1.390 . S
C347 H351 0.950 . S
H348 C344 0.950 . S
C349 C347 1.390 . S
C349 C350 1.387 . S
C349 H352 0.950 . S
C350 C349 1.387 . S
C350 C353 1.387 . S
H351 C347 0.950 . S
H352 C349 0.950 . S
C353 C344 1.390 . S
C353 H346 0.950 . S
C353 C350 1.387 . S
C354 C355 1.387 . S
C354 H358 0.950 . S
C354 C363 1.390 . S
C355 C354 1.387 . S
C355 C357 1.387 . S
H356 C363 0.950 . S
C357 C355 1.387 . S
C357 C359 1.390 . S
C357 H361 0.950 . S
H358 C354 0.950 . S
C359 C357 1.390 . S
C359 C360 1.387 . S
C359 H362 0.950 . S
C360 C359 1.387 . S
C360 C363 1.387 . S
H361 C357 0.950 . S
H362 C359 0.950 . S
C363 C354 1.390 . S
C363 H356 0.950 . S
C363 C360 1.387 . S
C364 C365 1.387 . S
C364 H368 0.950 . S
C364 C373 1.390 . S
C365 C364 1.387 . S
C365 C367 1.387 . S
H366 C373 0.950 . S
C367 C365 1.387 . S
C367 C369 1.390 . S
C367 H371 0.950 . S
H368 C364 0.950 . S
C369 C367 1.390 . S
C369 C370 1.387 . S
C369 H372 0.950 . S
C370 C369 1.387 . S
C370 C373 1.387 . S
H371 C367 0.950 . S
H372 C369 0.950 . S
C373 C364 1.390 . S
C373 H366 0.950 . S
C373 C370 1.387 . S
C374 C375 1.387 . S
C374 H378 0.950 . S
C374 C383 1.390 . S
C375 C374 1.387 . S
C375 C377 1.387 . S
H376 C383 0.950 . S
C377 C375 1.387 . S
C377 C379 1.390 . S
C377 H381 0.950 . S
H378 C374 0.950 . S
C379 C377 1.390 . S
C379 C380 1.387 . S
C379 H382 0.950 . S
C380 C379 1.387 . S
C380 C383 1.387 . S
H381 C377 0.950 . S
H382 C379 0.950 . S
C383 C374 1.390 . S
C383 H376 0.950 . S
C383 C380 1.387 . S
C384 C385 1.387 . S
C384 H388 0.950 . S
C384 C393 1.390 . S
C385 C384 1.387 . S
C385 C387 1.387 . S
H386 C393 0.950 . S
C387 C385 1.387 . S
C387 C389 1.390 . S
C387 H391 0.950 . S
H388 C384 0.950 . S
C389 C387 1.390 . S
C389 C390 1.387 . S
C389 H392 0.950 . S
C390 C389 1.387 . S
C390 C393 1.387 . S
H391 C387 0.950 . S
H392 C389 0.950 . S
C393 C384 1.390 . S
C393 H386 0.950 . S
C393 C390 1.387 . S
C394 C395 1.387 . S
C394 H398 0.950 . S
C394 C403 1.390 . S
C395 C394 1.387 . S
C395 C397 1.387 1_554 S
H396 C403 0.950 . S
C397 C395 1.387 1_556 S
C397 C399 1.390 . S
C397 H401 0.950 . S
H398 C394 0.950 . S
C399 C397 1.390 . S
C399 C400 1.387 . S
C399 H402 0.950 . S
C400 C399 1.387 . S
C400 C403 1.387 1_556 S
H401 C397 0.950 . S
H402 C399 0.950 . S
C403 C394 1.390 . S
C403 H396 0.950 . S
C403 C400 1.387 1_554 S
C404 C405 1.387 . S
C404 H408 0.950 . S
C404 C413 1.390 . S
C405 C404 1.387 . S
C405 C407 1.387 . S
H406 C413 0.950 . S
C407 C405 1.387 . S
C407 C409 1.390 . S
C407 H411 0.950 . S
H408 C404 0.950 . S
C409 C407 1.390 . S
C409 C410 1.387 . S
C409 H412 0.950 . S
C410 C409 1.387 . S
C410 C413 1.387 . S
H411 C407 0.950 . S
H412 C409 0.950 . S
C413 C404 1.390 . S
C413 H406 0.950 . S
C413 C410 1.387 . S
C414 C415 1.387 1_556 S
C414 H418 0.950 . S
C414 C423 1.390 . S
C415 C414 1.387 1_554 S
C415 C417 1.387 . S
H416 C423 0.950 . S
C417 C415 1.387 . S
C417 C419 1.390 . S
C417 H421 0.950 . S
H418 C414 0.950 . S
C419 C417 1.390 . S
C419 C420 1.387 1_554 S
C419 H422 0.950 . S
C420 C419 1.387 1_556 S
C420 C423 1.387 . S
H421 C417 0.950 . S
H422 C419 0.950 . S
C423 C414 1.390 . S
C423 H416 0.950 . S
C423 C420 1.387 . S
C424 C425 1.387 . S
C424 H428 0.950 . S
C424 C433 1.390 1_665 S
C425 C424 1.387 . S
C425 C427 1.387 . S
H426 C433 0.950 . S
C427 C425 1.387 . S
C427 C429 1.390 1_665 S
C427 H431 0.950 . S
H428 C424 0.950 . S
C429 C427 1.390 1_445 S
C429 C430 1.387 . S
C429 H432 0.950 . S
C430 C429 1.387 . S
C430 C433 1.387 . S
H431 C427 0.950 . S
H432 C429 0.950 . S
C433 C424 1.390 1_445 S
C433 H426 0.950 . S
C433 C430 1.387 . S
C434 C435 1.387 . S
C434 H438 0.950 . S
C434 C443 1.390 . S
C435 C434 1.387 . S
C435 C437 1.387 . S
H436 C443 0.950 . S
C437 C435 1.387 . S
C437 C439 1.390 . S
C437 H441 0.950 . S
H438 C434 0.950 . S
C439 C437 1.390 . S
C439 C440 1.387 . S
C439 H442 0.950 . S
C440 C439 1.387 . S
C440 C443 1.387 . S
H441 C437 0.950 . S
H442 C439 0.950 . S
C443 C434 1.390 . S
C443 H436 0.950 . S
C443 C440 1.387 . S
C444 C445 1.387 . S
C444 H448 0.950 . S
C444 C453 1.390 . S
C445 C444 1.387 . S
C445 C447 1.387 . S
H446 C453 0.950 . S
C447 C445 1.387 . S
C447 C449 1.390 . S
C447 H451 0.950 . S
H448 C444 0.950 . S
C449 C447 1.390 . S
C449 C450 1.387 . S
C449 H452 0.950 . S
C450 C449 1.387 . S
C450 C453 1.387 . S
H451 C447 0.950 . S
H452 C449 0.950 . S
C453 C444 1.390 . S
C453 H446 0.950 . S
C453 C450 1.387 . S
C454 C455 1.387 . S
C454 H458 0.950 . S
C454 C463 1.390 1_445 S
C455 C454 1.387 . S
C455 C457 1.387 . S
H456 C463 0.950 . S
C457 C455 1.387 . S
C457 C459 1.390 1_445 S
C457 H461 0.950 . S
H458 C454 0.950 . S
C459 C457 1.390 1_665 S
C459 C460 1.387 . S
C459 H462 0.950 . S
C460 C459 1.387 . S
C460 C463 1.387 . S
H461 C457 0.950 . S
H462 C459 0.950 . S
C463 C454 1.390 1_665 S
C463 H456 0.950 . S
C463 C460 1.387 . S
C265 N71 1.230 . S
C270 N5 1.230 . S
C275 N104 1.230 . S
C280 N38 1.230 . S
C285 N203 1.230 . S
C290 N137 1.230 . S
C295 N236 1.233 . S
C300 N170 1.233 . S
C305 C160 1.888 . S
C310 C17 1.885 . S
C315 C193 1.887 . S
C320 C50 1.885 . S
C325 C226 1.887 . S
C330 C83 1.884 . S
C335 C116 1.885 . S
C340 C259 1.888 . S
C345 C28 1.888 . S
C350 C149 1.885 . S
C355 C61 1.888 . S
C360 C182 1.885 . S
C365 C94 1.887 . S
C370 C215 1.884 . S
C375 C248 1.885 . S
C380 C127 1.887 . S
C385 C8 1.868 . S
C390 C173 1.869 . S
C395 C206 1.869 . S
C400 C41 1.869 . S
C405 C239 1.868 . S
C410 C74 1.868 . S
C415 C140 1.868 . S
C420 C107 1.868 . S
C425 N80 0.748 . S
C430 N14 0.748 . S
C435 N47 0.748 . S
C440 N113 0.748 . S
C445 N212 0.758 . S
C450 N146 0.758 . S
C455 N179 0.758 . S
C460 N245 0.758 . S
