# Generated by pormake.
# Topology ske, (6)-cn, num edge types: 1
# Building blocks:
#     Node 0, Type 0, BuildingBlock: BETDIP_clean_sbu_0, # of connection points: 6
#     Node 1, Type 0, BuildingBlock: BETDIP_clean_sbu_0, # of connection points: 6
#     Node 2, Type 0, BuildingBlock: BETDIP_clean_sbu_0, # of connection points: 6
#     Node 3, Type 0, BuildingBlock: BETDIP_clean_sbu_0, # of connection points: 6
#     Node 4, Type 0, BuildingBlock: BETDIP_clean_sbu_0, # of connection points: 6
#     Node 5, Type 0, BuildingBlock: BETDIP_clean_sbu_0, # of connection points: 6
#     Node 6, Type 0, BuildingBlock: BETDIP_clean_sbu_0, # of connection points: 6
#     Node 7, Type 0, BuildingBlock: BETDIP_clean_sbu_0, # of connection points: 6
#     Edge 8, Type (0, 0), BuildingBlock: OJICUG_clean_linker_0, # of connection points: 2
#     Edge 9, Type (0, 0), BuildingBlock: OJICUG_clean_linker_0, # of connection points: 2
#     Edge 10, Type (0, 0), BuildingBlock: OJICUG_clean_linker_0, # of connection points: 2
#     Edge 11, Type (0, 0), BuildingBlock: OJICUG_clean_linker_0, # of connection points: 2
#     Edge 12, Type (0, 0), BuildingBlock: OJICUG_clean_linker_0, # of connection points: 2
#     Edge 13, Type (0, 0), BuildingBlock: OJICUG_clean_linker_0, # of connection points: 2
#     Edge 14, Type (0, 0), BuildingBlock: OJICUG_clean_linker_0, # of connection points: 2
#     Edge 15, Type (0, 0), BuildingBlock: OJICUG_clean_linker_0, # of connection points: 2
#     Edge 16, Type (0, 0), BuildingBlock: OJICUG_clean_linker_0, # of connection points: 2
#     Edge 17, Type (0, 0), BuildingBlock: OJICUG_clean_linker_0, # of connection points: 2
#     Edge 18, Type (0, 0), BuildingBlock: OJICUG_clean_linker_0, # of connection points: 2
#     Edge 19, Type (0, 0), BuildingBlock: OJICUG_clean_linker_0, # of connection points: 2
#     Edge 20, Type (0, 0), BuildingBlock: OJICUG_clean_linker_0, # of connection points: 2
#     Edge 21, Type (0, 0), BuildingBlock: OJICUG_clean_linker_0, # of connection points: 2
#     Edge 22, Type (0, 0), BuildingBlock: OJICUG_clean_linker_0, # of connection points: 2
#     Edge 23, Type (0, 0), BuildingBlock: OJICUG_clean_linker_0, # of connection points: 2
#     Edge 24, Type (0, 0), BuildingBlock: OJICUG_clean_linker_0, # of connection points: 2
#     Edge 25, Type (0, 0), BuildingBlock: OJICUG_clean_linker_0, # of connection points: 2
#     Edge 26, Type (0, 0), BuildingBlock: OJICUG_clean_linker_0, # of connection points: 2
#     Edge 27, Type (0, 0), BuildingBlock: OJICUG_clean_linker_0, # of connection points: 2
#     Edge 28, Type (0, 0), BuildingBlock: OJICUG_clean_linker_0, # of connection points: 2
#     Edge 29, Type (0, 0), BuildingBlock: OJICUG_clean_linker_0, # of connection points: 2
#     Edge 30, Type (0, 0), BuildingBlock: OJICUG_clean_linker_0, # of connection points: 2
#     Edge 31, Type (0, 0), BuildingBlock: OJICUG_clean_linker_0, # of connection points: 2
# Relax obj value: 0.219
# Max RMSD: 0.220
# Mean RMSD: 0.213
data_MOF--net-ske--node1-BETDIP_clean_sbu_0--edge1-OJICUG_clean_linker_0
_symmetry_space_group_name_H-M    P1
_symmetry_Int_Tables_number       1
_symmetry_cell_setting            triclinic
loop_
_symmetry_equiv_pos_as_xyz
'x, y, z'
_cell_length_a     86.73212
_cell_length_b     20.982428
_cell_length_c     11.357261
_cell_angle_alpha  89.891304
_cell_angle_beta   89.979229
_cell_angle_gamma 89.994612
loop_
_atom_site_label
_atom_site_type_symbol
_atom_site_fract_x
_atom_site_fract_y
_atom_site_fract_z
_atom_type_partial_charge
Tb0 Tb 0.16486 0.25901 0.56987 0.0
Tb1 Tb 0.13112 0.25624 0.58091 0.0
C2 C 0.19314 0.28741 0.58346 0.0
C3 C 0.20763 0.28362 0.65285 0.0
C4 C 0.21534 0.34035 0.68126 0.0
C5 C 0.23019 0.33905 0.72943 0.0
C6 C 0.2378 0.28082 0.75037 0.0
C7 C 0.22985 0.22383 0.72529 0.0
C8 C 0.21496 0.22518 0.67692 0.0
C9 C 0.15303 0.14291 0.54579 0.0
C10 C 0.14791 0.25096 0.82166 0.0
C11 C 0.10238 0.24462 0.56347 0.0
C12 C 0.08535 0.24012 0.55095 0.0
C13 C 0.07704 0.18918 0.60058 0.0
C14 C 0.06084 0.18886 0.59842 0.0
C15 C 0.05257 0.23955 0.54668 0.0
C16 C 0.06098 0.28942 0.49407 0.0
C17 C 0.07711 0.28976 0.49642 0.0
C18 C 0.14381 0.37085 0.60619 0.0
C19 C 0.14783 0.2575 0.33339 0.0
O20 O 0.18205 0.32434 0.62157 0.0
O21 O 0.18789 0.23533 0.53498 0.0
O22 O 0.14843 0.18549 0.61598 0.0
O23 O 0.16519 0.16385 0.49253 0.0
O24 O 0.16081 0.26223 0.76209 0.0
O25 O 0.13473 0.24041 0.76712 0.0
O26 O 0.11116 0.19863 0.60361 0.0
O27 O 0.10993 0.29533 0.52985 0.0
O28 O 0.14761 0.32863 0.53305 0.0
O29 O 0.13244 0.34917 0.6679 0.0
O30 O 0.13604 0.23462 0.39449 0.0
O31 O 0.15975 0.2826 0.38829 0.0
H32 H 0.21011 0.38607 0.66177 0.0
H33 H 0.23594 0.38397 0.7457 0.0
H34 H 0.23522 0.17807 0.74171 0.0
H35 H 0.20939 0.18051 0.65533 0.0
H36 H 0.08303 0.15042 0.64394 0.0
H37 H 0.05479 0.14981 0.64045 0.0
H38 H 0.0551 0.32856 0.45103 0.0
H39 H 0.08313 0.32968 0.45697 0.0
Tb40 Tb 0.87496 0.25356 0.48153 0.0
Tb41 Tb 0.90878 0.26147 0.48907 0.0
C42 C 0.84688 0.22216 0.50009 0.0
C43 C 0.83224 0.23275 0.56582 0.0
C44 C 0.82752 0.18966 0.65372 0.0
C45 C 0.81264 0.19298 0.70179 0.0
C46 C 0.80201 0.23918 0.66263 0.0
C47 C 0.80693 0.2836 0.57753 0.0
C48 C 0.8218 0.2803 0.52955 0.0
C49 C 0.88573 0.37167 0.45902 0.0
C50 C 0.89238 0.26172 0.73214 0.0
C51 C 0.93712 0.28335 0.45425 0.0
C52 C 0.95316 0.26742 0.49095 0.0
C53 C 0.96176 0.22313 0.42516 0.0
C54 C 0.97757 0.21489 0.44511 0.0
C55 C 0.9853 0.25097 0.5311 0.0
C56 C 0.97658 0.29372 0.59985 0.0
C57 C 0.96073 0.30204 0.57971 0.0
C58 C 0.8975 0.14454 0.51394 0.0
C59 C 0.8915 0.25825 0.24484 0.0
O60 O 0.85816 0.19165 0.55222 0.0
O61 O 0.85193 0.26834 0.433 0.0
O62 O 0.89089 0.32896 0.52645 0.0
O63 O 0.87342 0.35014 0.40905 0.0
O64 O 0.87943 0.25061 0.67307 0.0
O65 O 0.90555 0.27297 0.67724 0.0
O66 O 0.92925 0.23891 0.40078 0.0
O67 O 0.92843 0.31778 0.52386 0.0
O68 O 0.89284 0.1868 0.44359 0.0
O69 O 0.90942 0.16644 0.56911 0.0
O70 O 0.90258 0.28611 0.30603 0.0
O71 O 0.88028 0.22857 0.30069 0.0
H72 H 0.83515 0.1519 0.68271 0.0
H73 H 0.80938 0.15855 0.76844 0.0
H74 H 0.79908 0.31937 0.54391 0.0
H75 H 0.82489 0.31362 0.46051 0.0
H76 H 0.95642 0.19654 0.35444 0.0
H77 H 0.98385 0.18228 0.389 0.0
H78 H 0.98205 0.32175 0.668 0.0
H79 H 0.95453 0.33711 0.63118 0.0
Tb80 Tb 0.16545 0.75216 0.57451 0.0
Tb81 Tb 0.1316 0.76013 0.5669 0.0
C82 C 0.19356 0.72085 0.55635 0.0
C83 C 0.20829 0.7316 0.49157 0.0
C84 C 0.21279 0.69075 0.39966 0.0
C85 C 0.22771 0.694 0.35203 0.0
C86 C 0.2386 0.73787 0.39559 0.0
C87 C 0.23391 0.78003 0.48501 0.0
C88 C 0.21901 0.7768 0.53251 0.0
C89 C 0.15467 0.87027 0.59666 0.0
C90 C 0.14803 0.76038 0.32386 0.0
C91 C 0.10326 0.78222 0.60179 0.0
C92 C 0.08716 0.7669 0.56572 0.0
C93 C 0.07859 0.72189 0.63042 0.0
C94 C 0.06274 0.71429 0.61156 0.0
C95 C 0.05491 0.75174 0.52778 0.0
C96 C 0.0636 0.79525 0.46006 0.0
C97 C 0.07949 0.80293 0.47913 0.0
C98 C 0.14288 0.64315 0.54253 0.0
C99 C 0.14889 0.75662 0.81115 0.0
O100 O 0.1823 0.69064 0.50356 0.0
O101 O 0.18848 0.76675 0.62361 0.0
O102 O 0.14951 0.82763 0.52937 0.0
O103 O 0.16699 0.8487 0.64654 0.0
O104 O 0.16098 0.74924 0.38301 0.0
O105 O 0.13486 0.77167 0.37867 0.0
O106 O 0.11111 0.73748 0.65498 0.0
O107 O 0.11197 0.81667 0.5321 0.0
O108 O 0.14756 0.68536 0.61267 0.0
O109 O 0.13096 0.66515 0.48736 0.0
O110 O 0.13781 0.78454 0.74984 0.0
O111 O 0.16012 0.72696 0.75543 0.0
H112 H 0.20494 0.65476 0.36695 0.0
H113 H 0.23077 0.66136 0.2821 0.0
H114 H 0.24197 0.81388 0.52221 0.0
H115 H 0.21611 0.80822 0.60475 0.0
H116 H 0.08401 0.69419 0.69956 0.0
H117 H 0.0565 0.68102 0.66686 0.0
H118 H 0.05807 0.82435 0.39353 0.0
H119 H 0.08565 0.83861 0.42863 0.0
Tb120 Tb 0.87524 0.76015 0.4892 0.0
Tb121 Tb 0.90896 0.75794 0.47793 0.0
C122 C 0.84682 0.78693 0.47531 0.0
C123 C 0.83201 0.77576 0.41218 0.0
C124 C 0.82734 0.81597 0.31956 0.0
C125 C 0.81231 0.81249 0.27413 0.0
C126 C 0.8015 0.76905 0.32065 0.0
C127 C 0.80637 0.72749 0.4107 0.0
C128 C 0.82137 0.73095 0.45601 0.0
C129 C 0.88716 0.64391 0.51229 0.0
C130 C 0.89217 0.75271 0.23712 0.0
C131 C 0.93773 0.74657 0.49573 0.0
C132 C 0.95477 0.74205 0.50839 0.0
C133 C 0.9631 0.69147 0.45805 0.0
C134 C 0.9793 0.69109 0.46055 0.0
C135 C 0.98757 0.74134 0.5134 0.0
C136 C 0.97913 0.79086 0.56665 0.0
C137 C 0.96299 0.79128 0.56392 0.0
C138 C 0.89618 0.87244 0.45155 0.0
C139 C 0.89232 0.75983 0.72504 0.0
O140 O 0.85769 0.81998 0.42336 0.0
O141 O 0.85244 0.7403 0.53853 0.0
O142 O 0.89173 0.68695 0.44287 0.0
O143 O 0.87487 0.66423 0.56418 0.0
O144 O 0.87925 0.76354 0.2968 0.0
O145 O 0.90537 0.74239 0.29166 0.0
O146 O 0.92898 0.70077 0.45477 0.0
O147 O 0.93013 0.79699 0.52995 0.0
O148 O 0.8924 0.83026 0.52508 0.0
O149 O 0.90759 0.85085 0.39037 0.0
O150 O 0.90399 0.73587 0.6642 0.0
O151 O 0.88057 0.78596 0.66942 0.0
H152 H 0.83512 0.85167 0.28464 0.0
H153 H 0.8091 0.84465 0.20362 0.0
H154 H 0.79838 0.69399 0.45011 0.0
H155 H 0.82442 0.70011 0.52895 0.0
H156 H 0.95712 0.65303 0.41389 0.0
H157 H 0.98535 0.65232 0.41792 0.0
H158 H 0.985 0.82967 0.61053 0.0
H159 H 0.95696 0.83093 0.60394 0.0
Tb160 Tb 0.66375 0.75442 0.99618 0.0
Tb161 Tb 0.62983 0.74386 1.00525 0.0
C162 C 0.69174 0.78744 1.0133 0.0
C163 C 0.70655 0.77712 0.07709 0.0
C164 C 0.71192 0.82294 0.15739 0.0
C165 C 0.72694 0.81954 0.20278 0.0
C166 C 0.73707 0.77047 0.16837 0.0
C167 C 0.73149 0.72344 0.09104 0.0
C168 C 0.71648 0.72681 0.04581 0.0
C169 C 0.65338 0.63576 0.97464 0.0
C170 C 0.6464 0.74575 0.24739 0.0
C171 C 0.60168 0.71667 0.97523 0.0
C172 C 0.58567 0.72272 1.02105 0.0
C173 C 0.57673 0.66742 0.03457 0.0
C174 C 0.56086 0.67142 0.05672 0.0
C175 C 0.55345 0.73097 0.06528 0.0
C176 C 0.56258 0.78641 0.05749 0.0
C177 C 0.57849 0.78236 0.03535 0.0
C178 C 0.64071 0.86155 1.02799 0.0
C179 C 0.64703 0.75022 0.75973 0.0
O180 O 0.68043 0.81666 0.06748 0.0
O181 O 0.68676 0.74168 0.94532 0.0
O182 O 0.64814 0.67813 0.04226 0.0
O183 O 0.66559 0.65799 0.92423 0.0
O184 O 0.6593 0.75745 0.18786 0.0
O185 O 0.63325 0.73354 0.19318 0.0
O186 O 0.61138 0.67953 1.03098 0.0
O187 O 0.60835 0.76776 0.93325 0.0
O188 O 0.6455 0.81936 0.9582 0.0
O189 O 0.6289 0.83911 0.0843 0.0
O190 O 0.63586 0.72253 0.82057 0.0
O191 O 0.65828 0.7796 0.81557 0.0
H192 H 0.70468 0.86279 0.18222 0.0
H193 H 0.73069 0.85608 0.26357 0.0
H194 H 0.73894 0.68534 0.06118 0.0
H195 H 0.71288 0.69118 0.98264 0.0
H196 H 0.5819 0.62083 1.02317 0.0
H197 H 0.55433 0.62762 0.06432 0.0
H198 H 0.55733 0.83314 0.06269 0.0
H199 H 0.58501 0.82601 1.02468 0.0
Tb200 Tb 0.37591 0.75416 0.06092 0.0
Tb201 Tb 0.40959 0.76684 0.06734 0.0
C202 C 0.34807 0.71907 0.07968 0.0
C203 C 0.33323 0.72938 0.14312 0.0
C204 C 0.32794 0.68384 0.22463 0.0
C205 C 0.31294 0.68724 0.27056 0.0
C206 C 0.30275 0.73603 0.23557 0.0
C207 C 0.30824 0.78273 0.15679 0.0
C208 C 0.32323 0.77936 0.11099 0.0
C209 C 0.3856 0.87431 0.03964 0.0
C210 C 0.39328 0.76477 0.31103 0.0
C211 C 0.43757 0.79402 1.02709 0.0
C212 C 0.45403 0.77698 0.04674 0.0
C213 C 0.46289 0.75853 0.94905 0.0
C214 C 0.47875 0.74811 0.95934 0.0
C215 C 0.48632 0.75594 0.0679 0.0
C216 C 0.47743 0.77397 0.16646 0.0
C217 C 0.46145 0.78447 0.15601 0.0
C218 C 0.39947 0.6478 0.09176 0.0
C219 C 0.39225 0.76203 0.82423 0.0
O220 O 0.3595 0.69171 0.13569 0.0
O221 O 0.35286 0.764 1.00875 0.0
O222 O 0.3912 0.83202 0.10594 0.0
O223 O 0.3734 0.85104 0.99081 0.0
O224 O 0.38047 0.75091 0.2522 0.0
O225 O 0.40626 0.77888 0.25563 0.0
O226 O 0.42939 0.75451 0.96425 0.0
O227 O 0.42949 0.81977 0.11196 0.0
O228 O 0.39429 0.68955 1.02241 0.0
O229 O 0.41141 0.67121 0.14436 0.0
O230 O 0.40287 0.79249 0.8858 0.0
O231 O 0.38146 0.72971 0.88014 0.0
H232 H 0.33523 0.64425 0.25014 0.0
H233 H 0.30927 0.65096 0.33242 0.0
H234 H 0.30074 0.82061 0.12645 0.0
H235 H 0.32677 0.81477 0.04694 0.0
H236 H 0.45759 0.75371 0.86312 0.0
H237 H 0.48516 0.73574 0.88079 0.0
H238 H 0.48282 0.78006 0.25168 0.0
H239 H 0.45499 0.79931 0.23283 0.0
Tb240 Tb 0.6647 0.24618 1.00033 0.0
Tb241 Tb 0.63111 0.24936 0.98921 0.0
C242 C 0.69308 0.21908 0.98546 0.0
C243 C 0.70774 0.23026 0.92008 0.0
C244 C 0.71255 0.18787 0.83162 0.0
C245 C 0.72746 0.19179 0.78416 0.0
C246 C 0.73801 0.23791 0.82448 0.0
C247 C 0.73299 0.28163 0.91019 0.0
C248 C 0.7181 0.27771 0.95757 0.0
C249 C 0.65301 0.36278 1.02337 0.0
C250 C 0.64785 0.25402 0.74822 0.0
C251 C 0.60241 0.26223 1.00663 0.0
C252 C 0.58541 0.26811 1.01898 0.0
C253 C 0.57723 0.3165 0.96035 0.0
C254 C 0.56103 0.31733 0.96166 0.0
C255 C 0.55266 0.26977 1.02175 0.0
C256 C 0.56095 0.22275 0.08369 0.0
C257 C 0.57708 0.22183 0.082 0.0
C258 C 0.64355 0.13407 0.96371 0.0
C259 C 0.64769 0.24691 0.23627 0.0
O260 O 0.68215 0.18578 0.93522 0.0
O261 O 0.68755 0.2659 0.04826 0.0
O262 O 0.64838 0.3201 0.95373 0.0
O263 O 0.66521 0.34191 0.07583 0.0
O264 O 0.66074 0.24298 0.80796 0.0
O265 O 0.63466 0.2645 0.80273 0.0
O266 O 0.61128 0.30706 0.96341 0.0
O267 O 0.60984 0.21188 0.04353 0.0
O268 O 0.64747 0.17615 0.03685 0.0
O269 O 0.63223 0.15638 0.90241 0.0
O270 O 0.6361 0.27137 0.17528 0.0
O271 O 0.65939 0.22038 0.18074 0.0
H272 H 0.70499 0.15018 0.80167 0.0
H273 H 0.7308 0.15789 0.71704 0.0
H274 H 0.74079 0.31729 0.9447 0.0
H275 H 0.71493 0.31042 1.02717 0.0
H276 H 0.58331 0.35258 0.9103 0.0
H277 H 0.55509 0.35407 0.91231 0.0
H278 H 0.55496 0.1862 0.13326 0.0
H279 H 0.58301 0.18399 0.12853 0.0
Tb280 Tb 0.37519 0.26757 0.07169 0.0
Tb281 Tb 0.40881 0.25561 0.06405 0.0
C282 C 0.34741 0.30302 0.05484 0.0
C283 C 0.33265 0.29601 0.99027 0.0
C284 C 0.32439 0.3512 0.96036 0.0
C285 C 0.30932 0.34714 0.91692 0.0
C286 C 0.30208 0.28764 0.90243 0.0
C287 C 0.31062 0.23211 0.92759 0.0
C288 C 0.32573 0.23623 0.97148 0.0
C289 C 0.38506 0.14782 0.09314 0.0
C290 C 0.39246 0.25729 0.82093 0.0
C291 C 0.43698 0.23044 0.09894 0.0
C292 C 0.45309 0.24531 0.06292 0.0
C293 C 0.46142 0.29332 0.12152 0.0
C294 C 0.4773 0.30056 0.10363 0.0
C295 C 0.48536 0.25979 1.02703 0.0
C296 C 0.47692 0.21335 0.96489 0.0
C297 C 0.46101 0.20601 0.98303 0.0
C298 C 0.39848 0.37419 0.03886 0.0
C299 C 0.39162 0.26044 0.30828 0.0
O300 O 0.35887 0.33235 1.00273 0.0
O301 O 0.35207 0.25504 0.11916 0.0
O302 O 0.39051 0.19008 1.02601 0.0
O303 O 0.37297 0.17097 0.14376 0.0
O304 O 0.37961 0.27011 0.88007 0.0
O305 O 0.40553 0.24435 0.87588 0.0
O306 O 0.42931 0.27494 0.15401 0.0
O307 O 0.42814 0.19767 1.02776 0.0
O308 O 0.39349 0.33267 0.10962 0.0
O309 O 0.4102 0.35043 0.98376 0.0
O310 O 0.40245 0.23112 0.24684 0.0
O311 O 0.38064 0.29164 0.25259 0.0
H312 H 0.32941 0.39785 0.97459 0.0
H313 H 0.30324 0.39086 0.89637 0.0
H314 H 0.30541 0.1855 0.918 0.0
H315 H 0.33177 0.19277 0.99442 0.0
H316 H 0.45581 0.32376 0.18542 0.0
H317 H 0.48336 0.33625 0.15445 0.0
H318 H 0.48265 0.18165 0.90381 0.0
H319 H 0.45503 0.16803 0.9375 0.0
C320 C 0.2649 0.23587 0.74967 0.0
C321 C 0.25412 0.28011 0.79364 0.0
H322 H 0.2884 0.20384 0.74788 0.0
C323 C 0.25923 0.32547 0.87595 0.0
H324 H 0.26148 0.20077 0.68496 0.0
C325 C 0.27469 0.32747 0.9113 0.0
C326 C 0.28553 0.28408 0.86575 0.0
H327 H 0.25127 0.35952 0.9137 0.0
H328 H 0.27812 0.36289 0.97538 0.0
C329 C 0.28038 0.23774 0.78544 0.0
C330 C 0.76227 0.29636 0.76299 0.0
C331 C 0.75436 0.23859 0.78167 0.0
H332 H 0.78339 0.34208 0.71291 0.0
C333 C 0.76236 0.18119 0.76205 0.0
H334 H 0.75651 0.34155 0.77628 0.0
C335 C 0.77776 0.18149 0.72472 0.0
C336 C 0.78568 0.23921 0.70587 0.0
H337 H 0.75679 0.13572 0.77706 0.0
H338 H 0.7834 0.13625 0.709 0.0
C339 C 0.77769 0.29666 0.72553 0.0
C340 C 0.27796 0.67962 0.28965 0.0
C341 C 0.28632 0.73679 0.27711 0.0
H342 H 0.25665 0.63495 0.33699 0.0
C343 C 0.27872 0.79451 0.30227 0.0
H344 H 0.28328 0.63423 0.26952 0.0
C345 C 0.26328 0.79499 0.3393 0.0
C346 C 0.25495 0.73777 0.35222 0.0
H347 H 0.28475 0.83951 0.29461 0.0
H348 H 0.25785 0.84043 0.35705 0.0
C349 C 0.26254 0.68011 0.32666 0.0
C350 C 0.76116 0.71221 0.2344 0.0
C351 C 0.75355 0.76985 0.20857 0.0
H352 H 0.78213 0.66645 0.28774 0.0
C353 C 0.76194 0.82702 0.21864 0.0
H354 H 0.7551 0.66722 0.22865 0.0
C355 C 0.77744 0.82662 0.2537 0.0
C356 C 0.78506 0.76904 0.27969 0.0
H357 H 0.75661 0.87233 0.19793 0.0
H358 H 0.78337 0.87178 0.26207 0.0
C359 C 0.77668 0.71182 0.26948 0.0
C360 C 0.15275 0.97901 0.68486 0.0
C361 C 0.15153 0.93944 0.58554 0.0
H362 H 0.1535 0.07498 0.75071 0.0
C363 C 0.14907 0.96749 0.47473 0.0
H364 H 0.15473 0.95847 0.77114 0.0
C365 C 0.14885 0.0341 0.46266 0.0
C366 C 0.15049 0.07367 0.56161 0.0
H367 H 0.14826 0.93811 0.39663 0.0
H368 H 0.14788 0.05478 0.37548 0.0
C369 C 0.15197 0.04554 0.67331 0.0
C370 C 0.88737 0.48082 0.3716 0.0
C371 C 0.88882 0.4408 0.4704 0.0
H372 H 0.88637 0.57709 0.30682 0.0
C373 C 0.89149 0.46835 0.58117 0.0
H374 H 0.88522 0.46066 0.28538 0.0
C375 C 0.89167 0.53488 0.59386 0.0
C376 C 0.88978 0.57487 0.49549 0.0
H377 H 0.89249 0.43861 0.65889 0.0
H378 H 0.89279 0.55516 0.68111 0.0
C379 C 0.88809 0.54728 0.38371 0.0
C380 C 0.89273 0.98259 0.37174 0.0
C381 C 0.89395 0.94166 0.4693 0.0
H382 H 0.8923 0.07942 0.30986 0.0
C383 C 0.89493 0.96815 0.58259 0.0
H384 H 0.89209 0.96321 0.28351 0.0
C385 C 0.8956 0.03445 0.59731 0.0
C386 C 0.89475 0.07538 0.49948 0.0
H387 H 0.89607 0.93761 0.65912 0.0
H388 H 0.89714 0.05376 0.68493 0.0
C389 C 0.89283 0.04893 0.38685 0.0
C390 C 0.14715 0.54731 0.67062 0.0
C391 C 0.14554 0.57391 0.55764 0.0
H392 H 0.14756 0.46149 0.77439 0.0
C393 C 0.14488 0.53307 0.45988 0.0
H394 H 0.14754 0.57773 0.74755 0.0
C395 C 0.14544 0.46672 0.47495 0.0
C396 C 0.14612 0.4401 0.58846 0.0
H397 H 0.14357 0.55248 0.37199 0.0
H398 H 0.14446 0.43627 0.39838 0.0
C399 C 0.14715 0.48095 0.68601 0.0
C400 C 0.64882 0.53787 0.09725 0.0
C401 C 0.65053 0.56638 0.98602 0.0
H402 H 0.64856 0.45027 0.19594 0.0
C403 C 0.65137 0.52713 0.886 0.0
H404 H 0.64833 0.567 0.17583 0.0
C405 C 0.65095 0.46051 0.89713 0.0
C406 C 0.65022 0.43199 1.00894 0.0
H407 H 0.65279 0.54804 0.79937 0.0
H408 H 0.65215 0.43137 0.819 0.0
C409 C 0.64896 0.47122 0.10872 0.0
C410 C 0.38765 0.97168 0.1667 0.0
C411 C 0.38781 0.94391 0.05425 0.0
H412 H 0.38633 0.05854 0.26657 0.0
C413 C 0.38834 0.98388 0.95485 0.0
H414 H 0.38703 0.94194 0.24466 0.0
C415 C 0.38849 0.05046 0.96748 0.0
C416 C 0.38748 0.07823 0.0797 0.0
H417 H 0.38834 0.96355 0.86723 0.0
H418 H 0.38854 0.08016 0.88933 0.0
C419 C 0.3872 0.03825 0.17916 0.0
C420 C 0.39578 0.48384 0.95412 0.0
C421 C 0.3965 0.4439 0.05345 0.0
H422 H 0.39553 0.58007 0.88859 0.0
C423 C 0.39697 0.47171 0.16585 0.0
H424 H 0.39552 0.46349 0.86653 0.0
C425 C 0.39754 0.53824 0.17824 0.0
C426 C 0.39706 0.57819 0.07882 0.0
H427 H 0.39772 0.442 0.24377 0.0
H428 H 0.39863 0.55852 0.26551 0.0
C429 C 0.39576 0.55041 0.96676 0.0
C430 C 0.64313 0.03829 0.0959 0.0
C431 C 0.64529 0.06462 0.98322 0.0
H432 H 0.63966 0.95295 0.19772 0.0
C433 C 0.64716 0.02345 0.8869 0.0
H434 H 0.64144 0.06902 0.17137 0.0
C435 C 0.64662 0.95711 0.90251 0.0
C436 C 0.6436 0.93083 1.01413 0.0
H437 H 0.64869 0.04266 0.79904 0.0
H438 H 0.64776 0.92652 0.82625 0.0
C439 C 0.64204 0.97201 0.11086 0.0
C440 C 0.16107 0.27288 0.13844 0.0
C441 C 0.14786 0.25485 0.20252 0.0
H442 H 0.17154 0.28533 0.96893 0.0
C443 C 0.13481 0.23413 0.14015 0.0
H444 H 0.17138 0.28882 0.18344 0.0
C445 C 0.1349 0.2323 1.01682 0.0
C446 C 0.14809 0.2507 0.95269 0.0
H447 H 0.12446 0.21977 0.18646 0.0
H448 H 0.12458 0.21658 0.97182 0.0
C449 C 0.1612 0.27064 1.01517 0.0
C450 C 0.87889 0.23857 0.04864 0.0
C451 C 0.89168 0.26004 0.11372 0.0
H452 H 0.86901 0.22268 0.87826 0.0
C453 C 0.90463 0.28284 0.05206 0.0
H454 H 0.8687 0.22083 0.09303 0.0
C455 C 0.90484 0.28349 0.92855 0.0
C456 C 0.89206 0.26196 0.86341 0.0
H457 H 0.91468 0.2997 0.09915 0.0
H458 H 0.91506 0.30103 0.8842 0.0
C459 C 0.87905 0.2398 0.92519 0.0
C460 C 0.13556 0.78206 0.12726 0.0
C461 C 0.14835 0.76055 0.19259 0.0
H462 H 0.12572 0.79818 0.95653 0.0
C463 C 0.16135 0.73827 0.13098 0.0
H464 H 0.12535 0.79967 0.17146 0.0
C465 C 0.1615 0.73694 1.00754 0.0
C466 C 0.14872 0.75842 0.94227 0.0
H467 H 0.17139 0.72115 0.17806 0.0
H468 H 0.17169 0.71914 0.96329 0.0
C469 C 0.13578 0.78132 1.00376 0.0
C470 C 0.90525 0.73585 0.91861 0.0
C471 C 0.89226 0.75724 0.85602 0.0
H472 H 0.91541 0.71758 0.08705 0.0
C473 C 0.87909 0.7758 0.91998 0.0
H474 H 0.91557 0.72107 0.87243 0.0
C475 C 0.87894 0.77334 0.04334 0.0
C476 C 0.89199 0.75269 0.10601 0.0
H477 H 0.86884 0.79225 0.87481 0.0
H478 H 0.86864 0.78842 0.0895 0.0
C479 C 0.90514 0.73384 0.04196 0.0
C480 C 0.63391 0.72418 0.44368 0.0
C481 C 0.64669 0.74594 0.37856 0.0
H482 H 0.624 0.70807 0.61411 0.0
C483 C 0.65962 0.76879 0.44024 0.0
H484 H 0.62376 0.70614 0.39941 0.0
C485 C 0.6597 0.77035 0.56367 0.0
C486 C 0.64691 0.74858 0.62869 0.0
H487 H 0.66965 0.78612 0.39325 0.0
H488 H 0.66983 0.78851 0.60808 0.0
C489 C 0.63405 0.72521 0.56708 0.0
C490 C 0.40512 0.78925 0.63137 0.0
C491 C 0.39246 0.76375 0.69297 0.0
H492 H 0.41539 0.80931 0.46349 0.0
C493 C 0.38002 0.73924 0.62765 0.0
H494 H 0.41492 0.80843 0.67861 0.0
C495 C 0.38022 0.7402 0.50417 0.0
C496 C 0.39295 0.76511 0.44243 0.0
H497 H 0.37005 0.71932 0.6719 0.0
H498 H 0.37044 0.72073 0.45716 0.0
C499 C 0.4054 0.78962 0.50777 0.0
C500 C 0.63481 0.27128 0.42968 0.0
C501 C 0.64776 0.24952 0.3672 0.0
H502 H 0.62467 0.28983 0.59804 0.0
C503 C 0.6609 0.2306 0.43122 0.0
H504 H 0.62451 0.28636 0.38343 0.0
C505 C 0.66105 0.23305 0.55455 0.0
C506 C 0.64803 0.25405 0.61712 0.0
H507 H 0.67113 0.21386 0.38611 0.0
H508 H 0.67133 0.21769 0.60078 0.0
C509 C 0.63492 0.27328 0.55301 0.0
C510 C 0.40454 0.23413 0.50105 0.0
C511 C 0.39178 0.25858 0.43939 0.0
H512 H 0.41483 0.21479 0.66894 0.0
C513 C 0.37916 0.28178 0.50446 0.0
H514 H 0.41447 0.21593 0.45394 0.0
C515 C 0.37931 0.28068 0.6279 0.0
C516 C 0.39214 0.25691 0.68969 0.0
H517 H 0.36911 0.30081 0.46008 0.0
H518 H 0.3694 0.29916 0.67481 0.0
C519 C 0.40476 0.23361 0.62457 0.0
C520 C 0.02649 0.18583 0.5317 0.0
C521 C 0.0353 0.24141 0.54869 0.0
H522 H 1.00396 0.14481 0.51481 0.0
C523 C 0.02744 0.2994 0.56581 0.0
H524 H 0.03208 0.14034 0.51771 0.0
C525 C 1.01131 0.30212 0.5629 0.0
C526 C 1.00249 0.24688 0.54313 0.0
H527 H 0.03377 0.34308 0.58127 0.0
H528 H 1.00579 0.34807 0.57297 0.0
C529 C 1.01032 0.18854 0.52886 0.0
C530 C 1.01364 0.68725 0.527 0.0
C531 C 1.00485 0.74309 0.5118 0.0
H532 H 0.03614 0.64573 0.54196 0.0
C533 C 1.01275 0.80117 0.4965 0.0
H534 H 1.00803 0.64166 0.53964 0.0
C535 C 0.02889 0.80365 0.49913 0.0
C536 C 0.0377 0.74808 0.51679 0.0
H537 H 1.00646 0.8451 0.48247 0.0
H538 H 0.03444 0.84963 0.49033 0.0
C539 C 0.02982 0.68971 0.52954 0.0
C540 C 0.52685 0.69283 1.00929 0.0
C541 C 0.5362 0.7351 0.07371 0.0
H542 H 0.50406 0.66518 0.95895 0.0
C543 C 0.5289 0.78249 0.14153 0.0
H544 H 0.53196 0.65621 0.95473 0.0
C545 C 0.51275 0.78818 0.14275 0.0
C546 C 0.50345 0.74686 0.07569 0.0
H547 H 0.53566 0.81553 0.19326 0.0
H548 H 0.50758 0.82626 0.19347 0.0
C549 C 0.51077 0.69853 1.01047 0.0
C550 C 0.51141 0.20694 1.01131 0.0
C551 C 0.50259 0.26309 1.01842 0.0
H552 H 0.53387 0.16497 1.00496 0.0
C553 C 0.51042 0.32186 1.02311 0.0
H554 H 0.50588 0.1607 1.00906 0.0
C555 C 0.5266 0.32426 1.02291 0.0
C556 C 0.5354 0.26794 1.01815 0.0
H557 H 0.50406 0.3662 1.02736 0.0
H558 H 0.53219 0.37027 1.02908 0.0
C559 C 0.52754 0.20934 1.01093 0.0
loop_
_geom_bond_atom_site_label_1
_geom_bond_atom_site_label_2
_geom_bond_distance
_geom_bond_site_symmetry_2
_ccdc_geom_bond_type
Tb0 C2 2.809 . S
Tb0 O20 2.484 . S
Tb0 O21 2.440 . S
Tb0 O22 2.658 . S
Tb0 O23 2.409 . S
Tb0 O24 2.378 . S
Tb0 O28 2.325 . S
Tb0 O31 2.341 . S
Tb1 C11 2.809 . S
Tb1 O22 2.325 . S
Tb1 O25 2.341 . S
Tb1 O26 2.484 . S
Tb1 O27 2.440 . S
Tb1 O28 2.658 . S
Tb1 O29 2.409 . S
Tb1 O30 2.378 . S
C2 Tb0 2.809 . S
C2 C3 1.514 . S
C2 O20 1.248 . S
C2 O21 1.266 . S
C3 C2 1.514 . S
C3 C4 1.359 . S
C3 C8 1.348 . S
C4 C3 1.359 . S
C4 C5 1.380 . S
C4 H32 0.929 . S
C5 C4 1.380 . S
C5 C6 1.347 . S
C5 H33 0.931 . S
C6 C5 1.347 . S
C6 C7 1.369 . S
C7 C6 1.369 . S
C7 C8 1.408 . S
C7 H34 0.930 . S
C8 C3 1.348 . S
C8 C7 1.408 . S
C8 H35 0.930 . S
C9 O22 1.281 . S
C9 O23 1.254 . S
C10 O24 1.236 . S
C10 O25 1.266 . S
C11 Tb1 2.809 . S
C11 C12 1.514 . S
C11 O26 1.248 . S
C11 O27 1.266 . S
C12 C11 1.514 . S
C12 C13 1.359 . S
C12 C17 1.348 . S
C13 C12 1.359 . S
C13 C14 1.380 . S
C13 H36 0.929 . S
C14 C13 1.380 . S
C14 C15 1.347 . S
C14 H37 0.931 . S
C15 C14 1.347 . S
C15 C16 1.369 . S
C16 C15 1.369 . S
C16 C17 1.408 . S
C16 H38 0.930 . S
C17 C12 1.348 . S
C17 C16 1.408 . S
C17 H39 0.930 . S
C18 O28 1.281 . S
C18 O29 1.254 . S
C19 O30 1.236 . S
C19 O31 1.266 . S
O20 Tb0 2.484 . S
O20 C2 1.248 . S
O21 Tb0 2.440 . S
O21 C2 1.266 . S
O22 Tb0 2.658 . S
O22 Tb1 2.325 . S
O22 C9 1.281 . S
O23 Tb0 2.409 . S
O23 C9 1.254 . S
O24 Tb0 2.378 . S
O24 C10 1.236 . S
O25 Tb1 2.341 . S
O25 C10 1.266 . S
O26 Tb1 2.484 . S
O26 C11 1.248 . S
O27 Tb1 2.440 . S
O27 C11 1.266 . S
O28 Tb0 2.325 . S
O28 Tb1 2.658 . S
O28 C18 1.281 . S
O29 Tb1 2.409 . S
O29 C18 1.254 . S
O30 Tb1 2.378 . S
O30 C19 1.236 . S
O31 Tb0 2.341 . S
O31 C19 1.266 . S
H32 C4 0.929 . S
H33 C5 0.931 . S
H34 C7 0.930 . S
H35 C8 0.930 . S
H36 C13 0.929 . S
H37 C14 0.931 . S
H38 C16 0.930 . S
H39 C17 0.930 . S
Tb40 C42 2.809 . S
Tb40 O60 2.484 . S
Tb40 O61 2.440 . S
Tb40 O62 2.658 . S
Tb40 O63 2.409 . S
Tb40 O64 2.378 . S
Tb40 O68 2.325 . S
Tb40 O71 2.341 . S
Tb41 C51 2.809 . S
Tb41 O62 2.325 . S
Tb41 O65 2.341 . S
Tb41 O66 2.484 . S
Tb41 O67 2.440 . S
Tb41 O68 2.658 . S
Tb41 O69 2.409 . S
Tb41 O70 2.378 . S
C42 Tb40 2.809 . S
C42 C43 1.514 . S
C42 O60 1.248 . S
C42 O61 1.266 . S
C43 C42 1.514 . S
C43 C44 1.359 . S
C43 C48 1.348 . S
C44 C43 1.359 . S
C44 C45 1.380 . S
C44 H72 0.929 . S
C45 C44 1.380 . S
C45 C46 1.347 . S
C45 H73 0.931 . S
C46 C45 1.347 . S
C46 C47 1.369 . S
C47 C46 1.369 . S
C47 C48 1.408 . S
C47 H74 0.930 . S
C48 C43 1.348 . S
C48 C47 1.408 . S
C48 H75 0.930 . S
C49 O62 1.281 . S
C49 O63 1.254 . S
C50 O64 1.236 . S
C50 O65 1.266 . S
C51 Tb41 2.809 . S
C51 C52 1.514 . S
C51 O66 1.248 . S
C51 O67 1.266 . S
C52 C51 1.514 . S
C52 C53 1.359 . S
C52 C57 1.348 . S
C53 C52 1.359 . S
C53 C54 1.380 . S
C53 H76 0.929 . S
C54 C53 1.380 . S
C54 C55 1.347 . S
C54 H77 0.931 . S
C55 C54 1.347 . S
C55 C56 1.369 . S
C56 C55 1.369 . S
C56 C57 1.408 . S
C56 H78 0.930 . S
C57 C52 1.348 . S
C57 C56 1.408 . S
C57 H79 0.930 . S
C58 O68 1.281 . S
C58 O69 1.254 . S
C59 O70 1.236 . S
C59 O71 1.266 . S
O60 Tb40 2.484 . S
O60 C42 1.248 . S
O61 Tb40 2.440 . S
O61 C42 1.266 . S
O62 Tb40 2.658 . S
O62 Tb41 2.325 . S
O62 C49 1.281 . S
O63 Tb40 2.409 . S
O63 C49 1.254 . S
O64 Tb40 2.378 . S
O64 C50 1.236 . S
O65 Tb41 2.341 . S
O65 C50 1.266 . S
O66 Tb41 2.484 . S
O66 C51 1.248 . S
O67 Tb41 2.440 . S
O67 C51 1.266 . S
O68 Tb40 2.325 . S
O68 Tb41 2.658 . S
O68 C58 1.281 . S
O69 Tb41 2.409 . S
O69 C58 1.254 . S
O70 Tb41 2.378 . S
O70 C59 1.236 . S
O71 Tb40 2.341 . S
O71 C59 1.266 . S
H72 C44 0.929 . S
H73 C45 0.931 . S
H74 C47 0.930 . S
H75 C48 0.930 . S
H76 C53 0.929 . S
H77 C54 0.931 . S
H78 C56 0.930 . S
H79 C57 0.930 . S
Tb80 C82 2.809 . S
Tb80 O100 2.484 . S
Tb80 O101 2.440 . S
Tb80 O102 2.658 . S
Tb80 O103 2.409 . S
Tb80 O104 2.378 . S
Tb80 O108 2.325 . S
Tb80 O111 2.341 . S
Tb81 C91 2.809 . S
Tb81 O102 2.325 . S
Tb81 O105 2.341 . S
Tb81 O106 2.484 . S
Tb81 O107 2.440 . S
Tb81 O108 2.658 . S
Tb81 O109 2.409 . S
Tb81 O110 2.378 . S
C82 Tb80 2.809 . S
C82 C83 1.514 . S
C82 O100 1.248 . S
C82 O101 1.266 . S
C83 C82 1.514 . S
C83 C84 1.359 . S
C83 C88 1.348 . S
C84 C83 1.359 . S
C84 C85 1.380 . S
C84 H112 0.929 . S
C85 C84 1.380 . S
C85 C86 1.347 . S
C85 H113 0.931 . S
C86 C85 1.347 . S
C86 C87 1.369 . S
C87 C86 1.369 . S
C87 C88 1.408 . S
C87 H114 0.930 . S
C88 C83 1.348 . S
C88 C87 1.408 . S
C88 H115 0.930 . S
C89 O102 1.281 . S
C89 O103 1.254 . S
C90 O104 1.236 . S
C90 O105 1.266 . S
C91 Tb81 2.809 . S
C91 C92 1.514 . S
C91 O106 1.248 . S
C91 O107 1.266 . S
C92 C91 1.514 . S
C92 C93 1.359 . S
C92 C97 1.348 . S
C93 C92 1.359 . S
C93 C94 1.380 . S
C93 H116 0.929 . S
C94 C93 1.380 . S
C94 C95 1.347 . S
C94 H117 0.931 . S
C95 C94 1.347 . S
C95 C96 1.369 . S
C96 C95 1.369 . S
C96 C97 1.408 . S
C96 H118 0.930 . S
C97 C92 1.348 . S
C97 C96 1.408 . S
C97 H119 0.930 . S
C98 O108 1.281 . S
C98 O109 1.254 . S
C99 O110 1.236 . S
C99 O111 1.266 . S
O100 Tb80 2.484 . S
O100 C82 1.248 . S
O101 Tb80 2.440 . S
O101 C82 1.266 . S
O102 Tb80 2.658 . S
O102 Tb81 2.325 . S
O102 C89 1.281 . S
O103 Tb80 2.409 . S
O103 C89 1.254 . S
O104 Tb80 2.378 . S
O104 C90 1.236 . S
O105 Tb81 2.341 . S
O105 C90 1.266 . S
O106 Tb81 2.484 . S
O106 C91 1.248 . S
O107 Tb81 2.440 . S
O107 C91 1.266 . S
O108 Tb80 2.325 . S
O108 Tb81 2.658 . S
O108 C98 1.281 . S
O109 Tb81 2.409 . S
O109 C98 1.254 . S
O110 Tb81 2.378 . S
O110 C99 1.236 . S
O111 Tb80 2.341 . S
O111 C99 1.266 . S
H112 C84 0.929 . S
H113 C85 0.931 . S
H114 C87 0.930 . S
H115 C88 0.930 . S
H116 C93 0.929 . S
H117 C94 0.931 . S
H118 C96 0.930 . S
H119 C97 0.930 . S
Tb120 C122 2.809 . S
Tb120 O140 2.484 . S
Tb120 O141 2.440 . S
Tb120 O142 2.658 . S
Tb120 O143 2.409 . S
Tb120 O144 2.378 . S
Tb120 O148 2.325 . S
Tb120 O151 2.341 . S
Tb121 C131 2.809 . S
Tb121 O142 2.325 . S
Tb121 O145 2.341 . S
Tb121 O146 2.484 . S
Tb121 O147 2.440 . S
Tb121 O148 2.658 . S
Tb121 O149 2.409 . S
Tb121 O150 2.378 . S
C122 Tb120 2.809 . S
C122 C123 1.514 . S
C122 O140 1.248 . S
C122 O141 1.266 . S
C123 C122 1.514 . S
C123 C124 1.359 . S
C123 C128 1.348 . S
C124 C123 1.359 . S
C124 C125 1.380 . S
C124 H152 0.929 . S
C125 C124 1.380 . S
C125 C126 1.347 . S
C125 H153 0.931 . S
C126 C125 1.347 . S
C126 C127 1.369 . S
C127 C126 1.369 . S
C127 C128 1.408 . S
C127 H154 0.930 . S
C128 C123 1.348 . S
C128 C127 1.408 . S
C128 H155 0.930 . S
C129 O142 1.281 . S
C129 O143 1.254 . S
C130 O144 1.236 . S
C130 O145 1.266 . S
C131 Tb121 2.809 . S
C131 C132 1.514 . S
C131 O146 1.248 . S
C131 O147 1.266 . S
C132 C131 1.514 . S
C132 C133 1.359 . S
C132 C137 1.348 . S
C133 C132 1.359 . S
C133 C134 1.380 . S
C133 H156 0.929 . S
C134 C133 1.380 . S
C134 C135 1.347 . S
C134 H157 0.931 . S
C135 C134 1.347 . S
C135 C136 1.369 . S
C136 C135 1.369 . S
C136 C137 1.408 . S
C136 H158 0.930 . S
C137 C132 1.348 . S
C137 C136 1.408 . S
C137 H159 0.930 . S
C138 O148 1.281 . S
C138 O149 1.254 . S
C139 O150 1.236 . S
C139 O151 1.266 . S
O140 Tb120 2.484 . S
O140 C122 1.248 . S
O141 Tb120 2.440 . S
O141 C122 1.266 . S
O142 Tb120 2.658 . S
O142 Tb121 2.325 . S
O142 C129 1.281 . S
O143 Tb120 2.409 . S
O143 C129 1.254 . S
O144 Tb120 2.378 . S
O144 C130 1.236 . S
O145 Tb121 2.341 . S
O145 C130 1.266 . S
O146 Tb121 2.484 . S
O146 C131 1.248 . S
O147 Tb121 2.440 . S
O147 C131 1.266 . S
O148 Tb120 2.325 . S
O148 Tb121 2.658 . S
O148 C138 1.281 . S
O149 Tb121 2.409 . S
O149 C138 1.254 . S
O150 Tb121 2.378 . S
O150 C139 1.236 . S
O151 Tb120 2.341 . S
O151 C139 1.266 . S
H152 C124 0.929 . S
H153 C125 0.931 . S
H154 C127 0.930 . S
H155 C128 0.930 . S
H156 C133 0.929 . S
H157 C134 0.931 . S
H158 C136 0.930 . S
H159 C137 0.930 . S
Tb160 C162 2.809 1_556 S
Tb160 O180 2.484 1_556 S
Tb160 O181 2.440 1_556 S
Tb160 O182 2.658 . S
Tb160 O183 2.409 . S
Tb160 O184 2.378 1_556 S
Tb160 O188 2.325 1_556 S
Tb160 O191 2.341 . S
Tb161 C171 2.809 1_554 S
Tb161 O182 2.325 1_554 S
Tb161 O185 2.341 . S
Tb161 O186 2.484 1_554 S
Tb161 O187 2.440 1_554 S
Tb161 O188 2.658 . S
Tb161 O189 2.409 . S
Tb161 O190 2.378 1_554 S
C162 Tb160 2.809 1_554 S
C162 C163 1.514 . S
C162 O180 1.248 . S
C162 O181 1.266 . S
C163 C162 1.514 . S
C163 C164 1.359 . S
C163 C168 1.348 . S
C164 C163 1.359 . S
C164 C165 1.380 . S
C164 H192 0.929 . S
C165 C164 1.380 . S
C165 C166 1.347 . S
C165 H193 0.931 . S
C166 C165 1.347 . S
C166 C167 1.369 . S
C167 C166 1.369 . S
C167 C168 1.408 . S
C167 H194 0.930 . S
C168 C163 1.348 . S
C168 C167 1.408 . S
C168 H195 0.930 . S
C169 O182 1.281 . S
C169 O183 1.254 . S
C170 O184 1.236 . S
C170 O185 1.266 . S
C171 Tb161 2.809 1_556 S
C171 C172 1.514 . S
C171 O186 1.248 . S
C171 O187 1.266 . S
C172 C171 1.514 . S
C172 C173 1.359 . S
C172 C177 1.348 . S
C173 C172 1.359 . S
C173 C174 1.380 . S
C173 H196 0.929 . S
C174 C173 1.380 . S
C174 C175 1.347 . S
C174 H197 0.931 . S
C175 C174 1.347 . S
C175 C176 1.369 . S
C176 C175 1.369 . S
C176 C177 1.408 . S
C176 H198 0.930 . S
C177 C172 1.348 . S
C177 C176 1.408 . S
C177 H199 0.930 . S
C178 O188 1.281 . S
C178 O189 1.254 . S
C179 O190 1.236 . S
C179 O191 1.266 . S
O180 Tb160 2.484 1_554 S
O180 C162 1.248 . S
O181 Tb160 2.440 1_554 S
O181 C162 1.266 . S
O182 Tb160 2.658 . S
O182 Tb161 2.325 1_556 S
O182 C169 1.281 . S
O183 Tb160 2.409 . S
O183 C169 1.254 . S
O184 Tb160 2.378 1_554 S
O184 C170 1.236 . S
O185 Tb161 2.341 . S
O185 C170 1.266 . S
O186 Tb161 2.484 1_556 S
O186 C171 1.248 . S
O187 Tb161 2.440 1_556 S
O187 C171 1.266 . S
O188 Tb160 2.325 1_554 S
O188 Tb161 2.658 . S
O188 C178 1.281 . S
O189 Tb161 2.409 . S
O189 C178 1.254 . S
O190 Tb161 2.378 1_556 S
O190 C179 1.236 . S
O191 Tb160 2.341 . S
O191 C179 1.266 . S
H192 C164 0.929 . S
H193 C165 0.931 . S
H194 C167 0.930 . S
H195 C168 0.930 . S
H196 C173 0.929 . S
H197 C174 0.931 . S
H198 C176 0.930 . S
H199 C177 0.930 . S
Tb200 C202 2.809 1_556 S
Tb200 O220 2.484 1_556 S
Tb200 O221 2.440 1_556 S
Tb200 O222 2.658 . S
Tb200 O223 2.409 . S
Tb200 O224 2.378 1_556 S
Tb200 O228 2.325 1_556 S
Tb200 O231 2.341 . S
Tb201 C211 2.809 1_554 S
Tb201 O222 2.325 1_554 S
Tb201 O225 2.341 . S
Tb201 O226 2.484 1_554 S
Tb201 O227 2.440 1_554 S
Tb201 O228 2.658 . S
Tb201 O229 2.409 . S
Tb201 O230 2.378 1_554 S
C202 Tb200 2.809 1_554 S
C202 C203 1.514 . S
C202 O220 1.248 . S
C202 O221 1.266 . S
C203 C202 1.514 . S
C203 C204 1.359 . S
C203 C208 1.348 . S
C204 C203 1.359 . S
C204 C205 1.380 . S
C204 H232 0.929 . S
C205 C204 1.380 . S
C205 C206 1.347 . S
C205 H233 0.931 . S
C206 C205 1.347 . S
C206 C207 1.369 . S
C207 C206 1.369 . S
C207 C208 1.408 . S
C207 H234 0.930 . S
C208 C203 1.348 . S
C208 C207 1.408 . S
C208 H235 0.930 . S
C209 O222 1.281 . S
C209 O223 1.254 . S
C210 O224 1.236 . S
C210 O225 1.266 . S
C211 Tb201 2.809 1_556 S
C211 C212 1.514 . S
C211 O226 1.248 . S
C211 O227 1.266 . S
C212 C211 1.514 . S
C212 C213 1.359 . S
C212 C217 1.348 . S
C213 C212 1.359 . S
C213 C214 1.380 . S
C213 H236 0.929 . S
C214 C213 1.380 . S
C214 C215 1.347 . S
C214 H237 0.931 . S
C215 C214 1.347 . S
C215 C216 1.369 . S
C216 C215 1.369 . S
C216 C217 1.408 . S
C216 H238 0.930 . S
C217 C212 1.348 . S
C217 C216 1.408 . S
C217 H239 0.930 . S
C218 O228 1.281 . S
C218 O229 1.254 . S
C219 O230 1.236 . S
C219 O231 1.266 . S
O220 Tb200 2.484 1_554 S
O220 C202 1.248 . S
O221 Tb200 2.440 1_554 S
O221 C202 1.266 . S
O222 Tb200 2.658 . S
O222 Tb201 2.325 1_556 S
O222 C209 1.281 . S
O223 Tb200 2.409 . S
O223 C209 1.254 . S
O224 Tb200 2.378 1_554 S
O224 C210 1.236 . S
O225 Tb201 2.341 . S
O225 C210 1.266 . S
O226 Tb201 2.484 1_556 S
O226 C211 1.248 . S
O227 Tb201 2.440 1_556 S
O227 C211 1.266 . S
O228 Tb200 2.325 1_554 S
O228 Tb201 2.658 . S
O228 C218 1.281 . S
O229 Tb201 2.409 . S
O229 C218 1.254 . S
O230 Tb201 2.378 1_556 S
O230 C219 1.236 . S
O231 Tb200 2.341 . S
O231 C219 1.266 . S
H232 C204 0.929 . S
H233 C205 0.931 . S
H234 C207 0.930 . S
H235 C208 0.930 . S
H236 C213 0.929 . S
H237 C214 0.931 . S
H238 C216 0.930 . S
H239 C217 0.930 . S
Tb240 C242 2.809 1_554 S
Tb240 O260 2.484 1_554 S
Tb240 O261 2.440 1_554 S
Tb240 O262 2.658 . S
Tb240 O263 2.409 . S
Tb240 O264 2.378 1_554 S
Tb240 O268 2.325 1_554 S
Tb240 O271 2.341 . S
Tb241 C251 2.809 1_556 S
Tb241 O262 2.325 1_556 S
Tb241 O265 2.341 . S
Tb241 O266 2.484 1_556 S
Tb241 O267 2.440 1_556 S
Tb241 O268 2.658 . S
Tb241 O269 2.409 . S
Tb241 O270 2.378 1_556 S
C242 Tb240 2.809 1_556 S
C242 C243 1.514 . S
C242 O260 1.248 . S
C242 O261 1.266 . S
C243 C242 1.514 . S
C243 C244 1.359 . S
C243 C248 1.348 . S
C244 C243 1.359 . S
C244 C245 1.380 . S
C244 H272 0.929 . S
C245 C244 1.380 . S
C245 C246 1.347 . S
C245 H273 0.931 . S
C246 C245 1.347 . S
C246 C247 1.369 . S
C247 C246 1.369 . S
C247 C248 1.408 . S
C247 H274 0.930 . S
C248 C243 1.348 . S
C248 C247 1.408 . S
C248 H275 0.930 . S
C249 O262 1.281 . S
C249 O263 1.254 . S
C250 O264 1.236 . S
C250 O265 1.266 . S
C251 Tb241 2.809 1_554 S
C251 C252 1.514 . S
C251 O266 1.248 . S
C251 O267 1.266 . S
C252 C251 1.514 . S
C252 C253 1.359 . S
C252 C257 1.348 . S
C253 C252 1.359 . S
C253 C254 1.380 . S
C253 H276 0.929 . S
C254 C253 1.380 . S
C254 C255 1.347 . S
C254 H277 0.931 . S
C255 C254 1.347 . S
C255 C256 1.369 . S
C256 C255 1.369 . S
C256 C257 1.408 . S
C256 H278 0.930 . S
C257 C252 1.348 . S
C257 C256 1.408 . S
C257 H279 0.930 . S
C258 O268 1.281 . S
C258 O269 1.254 . S
C259 O270 1.236 . S
C259 O271 1.266 . S
O260 Tb240 2.484 1_556 S
O260 C242 1.248 . S
O261 Tb240 2.440 1_556 S
O261 C242 1.266 . S
O262 Tb240 2.658 . S
O262 Tb241 2.325 1_554 S
O262 C249 1.281 . S
O263 Tb240 2.409 . S
O263 C249 1.254 . S
O264 Tb240 2.378 1_556 S
O264 C250 1.236 . S
O265 Tb241 2.341 . S
O265 C250 1.266 . S
O266 Tb241 2.484 1_554 S
O266 C251 1.248 . S
O267 Tb241 2.440 1_554 S
O267 C251 1.266 . S
O268 Tb240 2.325 1_556 S
O268 Tb241 2.658 . S
O268 C258 1.281 . S
O269 Tb241 2.409 . S
O269 C258 1.254 . S
O270 Tb241 2.378 1_554 S
O270 C259 1.236 . S
O271 Tb240 2.341 . S
O271 C259 1.266 . S
H272 C244 0.929 . S
H273 C245 0.931 . S
H274 C247 0.930 . S
H275 C248 0.930 . S
H276 C253 0.929 . S
H277 C254 0.931 . S
H278 C256 0.930 . S
H279 C257 0.930 . S
Tb280 C282 2.809 1_554 S
Tb280 O300 2.484 1_554 S
Tb280 O301 2.440 1_554 S
Tb280 O302 2.658 . S
Tb280 O303 2.409 . S
Tb280 O304 2.378 1_554 S
Tb280 O308 2.325 1_554 S
Tb280 O311 2.341 . S
Tb281 C291 2.809 1_556 S
Tb281 O302 2.325 1_556 S
Tb281 O305 2.341 . S
Tb281 O306 2.484 1_556 S
Tb281 O307 2.440 1_556 S
Tb281 O308 2.658 . S
Tb281 O309 2.409 . S
Tb281 O310 2.378 1_556 S
C282 Tb280 2.809 1_556 S
C282 C283 1.514 . S
C282 O300 1.248 . S
C282 O301 1.266 . S
C283 C282 1.514 . S
C283 C284 1.359 . S
C283 C288 1.348 . S
C284 C283 1.359 . S
C284 C285 1.380 . S
C284 H312 0.929 . S
C285 C284 1.380 . S
C285 C286 1.347 . S
C285 H313 0.931 . S
C286 C285 1.347 . S
C286 C287 1.369 . S
C287 C286 1.369 . S
C287 C288 1.408 . S
C287 H314 0.930 . S
C288 C283 1.348 . S
C288 C287 1.408 . S
C288 H315 0.930 . S
C289 O302 1.281 . S
C289 O303 1.254 . S
C290 O304 1.236 . S
C290 O305 1.266 . S
C291 Tb281 2.809 1_554 S
C291 C292 1.514 . S
C291 O306 1.248 . S
C291 O307 1.266 . S
C292 C291 1.514 . S
C292 C293 1.359 . S
C292 C297 1.348 . S
C293 C292 1.359 . S
C293 C294 1.380 . S
C293 H316 0.929 . S
C294 C293 1.380 . S
C294 C295 1.347 . S
C294 H317 0.931 . S
C295 C294 1.347 . S
C295 C296 1.369 . S
C296 C295 1.369 . S
C296 C297 1.408 . S
C296 H318 0.930 . S
C297 C292 1.348 . S
C297 C296 1.408 . S
C297 H319 0.930 . S
C298 O308 1.281 . S
C298 O309 1.254 . S
C299 O310 1.236 . S
C299 O311 1.266 . S
O300 Tb280 2.484 1_556 S
O300 C282 1.248 . S
O301 Tb280 2.440 1_556 S
O301 C282 1.266 . S
O302 Tb280 2.658 . S
O302 Tb281 2.325 1_554 S
O302 C289 1.281 . S
O303 Tb280 2.409 . S
O303 C289 1.254 . S
O304 Tb280 2.378 1_556 S
O304 C290 1.236 . S
O305 Tb281 2.341 . S
O305 C290 1.266 . S
O306 Tb281 2.484 1_554 S
O306 C291 1.248 . S
O307 Tb281 2.440 1_554 S
O307 C291 1.266 . S
O308 Tb280 2.325 1_556 S
O308 Tb281 2.658 . S
O308 C298 1.281 . S
O309 Tb281 2.409 . S
O309 C298 1.254 . S
O310 Tb281 2.378 1_554 S
O310 C299 1.236 . S
O311 Tb280 2.341 . S
O311 C299 1.266 . S
H312 C284 0.929 . S
H313 C285 0.931 . S
H314 C287 0.930 . S
H315 C288 0.930 . S
H316 C293 0.929 . S
H317 C294 0.931 . S
H318 C296 0.930 . S
H319 C297 0.930 . S
C320 C321 1.387 . S
C320 H324 0.950 . S
C320 C329 1.390 . S
C321 C320 1.387 . S
C321 C323 1.387 . S
H322 C329 0.950 . S
C323 C321 1.387 . S
C323 C325 1.390 . S
C323 H327 0.950 . S
H324 C320 0.950 . S
C325 C323 1.390 . S
C325 C326 1.387 . S
C325 H328 0.950 . S
C326 C325 1.387 . S
C326 C329 1.387 . S
H327 C323 0.950 . S
H328 C325 0.950 . S
C329 C320 1.390 . S
C329 H322 0.950 . S
C329 C326 1.387 . S
C330 C331 1.387 . S
C330 H334 0.950 . S
C330 C339 1.390 . S
C331 C330 1.387 . S
C331 C333 1.387 . S
H332 C339 0.950 . S
C333 C331 1.387 . S
C333 C335 1.390 . S
C333 H337 0.950 . S
H334 C330 0.950 . S
C335 C333 1.390 . S
C335 C336 1.387 . S
C335 H338 0.950 . S
C336 C335 1.387 . S
C336 C339 1.387 . S
H337 C333 0.950 . S
H338 C335 0.950 . S
C339 C330 1.390 . S
C339 H332 0.950 . S
C339 C336 1.387 . S
C340 C341 1.387 . S
C340 H344 0.950 . S
C340 C349 1.390 . S
C341 C340 1.387 . S
C341 C343 1.387 . S
H342 C349 0.950 . S
C343 C341 1.387 . S
C343 C345 1.390 . S
C343 H347 0.950 . S
H344 C340 0.950 . S
C345 C343 1.390 . S
C345 C346 1.387 . S
C345 H348 0.950 . S
C346 C345 1.387 . S
C346 C349 1.387 . S
H347 C343 0.950 . S
H348 C345 0.950 . S
C349 C340 1.390 . S
C349 H342 0.950 . S
C349 C346 1.387 . S
C350 C351 1.387 . S
C350 H354 0.950 . S
C350 C359 1.390 . S
C351 C350 1.387 . S
C351 C353 1.387 . S
H352 C359 0.950 . S
C353 C351 1.387 . S
C353 C355 1.390 . S
C353 H357 0.950 . S
H354 C350 0.950 . S
C355 C353 1.390 . S
C355 C356 1.387 . S
C355 H358 0.950 . S
C356 C355 1.387 . S
C356 C359 1.387 . S
H357 C353 0.950 . S
H358 C355 0.950 . S
C359 C350 1.390 . S
C359 H352 0.950 . S
C359 C356 1.387 . S
C360 C361 1.387 . S
C360 H364 0.950 . S
C360 C369 1.390 1_565 S
C361 C360 1.387 . S
C361 C363 1.387 . S
H362 C369 0.950 . S
C363 C361 1.387 . S
C363 C365 1.390 1_565 S
C363 H367 0.950 . S
H364 C360 0.950 . S
C365 C363 1.390 1_545 S
C365 C366 1.387 . S
C365 H368 0.950 . S
C366 C365 1.387 . S
C366 C369 1.387 . S
H367 C363 0.950 . S
H368 C365 0.950 . S
C369 C360 1.390 1_545 S
C369 H362 0.950 . S
C369 C366 1.387 . S
C370 C371 1.387 . S
C370 H374 0.950 . S
C370 C379 1.390 . S
C371 C370 1.387 . S
C371 C373 1.387 . S
H372 C379 0.950 . S
C373 C371 1.387 . S
C373 C375 1.390 . S
C373 H377 0.950 . S
H374 C370 0.950 . S
C375 C373 1.390 . S
C375 C376 1.387 . S
C375 H378 0.950 . S
C376 C375 1.387 . S
C376 C379 1.387 . S
H377 C373 0.950 . S
H378 C375 0.950 . S
C379 C370 1.390 . S
C379 H372 0.950 . S
C379 C376 1.387 . S
C380 C381 1.387 . S
C380 H384 0.950 . S
C380 C389 1.390 1_565 S
C381 C380 1.387 . S
C381 C383 1.387 . S
H382 C389 0.950 . S
C383 C381 1.387 . S
C383 C385 1.390 1_565 S
C383 H387 0.950 . S
H384 C380 0.950 . S
C385 C383 1.390 1_545 S
C385 C386 1.387 . S
C385 H388 0.950 . S
C386 C385 1.387 . S
C386 C389 1.387 . S
H387 C383 0.950 . S
H388 C385 0.950 . S
C389 C380 1.390 1_545 S
C389 H382 0.950 . S
C389 C386 1.387 . S
C390 C391 1.387 . S
C390 H394 0.950 . S
C390 C399 1.390 . S
C391 C390 1.387 . S
C391 C393 1.387 . S
H392 C399 0.950 . S
C393 C391 1.387 . S
C393 C395 1.390 . S
C393 H397 0.950 . S
H394 C390 0.950 . S
C395 C393 1.390 . S
C395 C396 1.387 . S
C395 H398 0.950 . S
C396 C395 1.387 . S
C396 C399 1.387 . S
H397 C393 0.950 . S
H398 C395 0.950 . S
C399 C390 1.390 . S
C399 H392 0.950 . S
C399 C396 1.387 . S
C400 C401 1.387 1_556 S
C400 H404 0.950 . S
C400 C409 1.390 . S
C401 C400 1.387 1_554 S
C401 C403 1.387 . S
H402 C409 0.950 . S
C403 C401 1.387 . S
C403 C405 1.390 . S
C403 H407 0.950 . S
H404 C400 0.950 . S
C405 C403 1.390 . S
C405 C406 1.387 1_554 S
C405 H408 0.950 . S
C406 C405 1.387 1_556 S
C406 C409 1.387 . S
H407 C403 0.950 . S
H408 C405 0.950 . S
C409 C400 1.390 . S
C409 H402 0.950 . S
C409 C406 1.387 . S
C410 C411 1.387 1_556 S
C410 H414 0.950 . S
C410 C419 1.390 1_565 S
C411 C410 1.387 1_554 S
C411 C413 1.387 . S
H412 C419 0.950 . S
C413 C411 1.387 . S
C413 C415 1.390 1_565 S
C413 H417 0.950 . S
H414 C410 0.950 . S
C415 C413 1.390 1_545 S
C415 C416 1.387 1_554 S
C415 H418 0.950 . S
C416 C415 1.387 1_556 S
C416 C419 1.387 . S
H417 C413 0.950 . S
H418 C415 0.950 . S
C419 C410 1.390 1_545 S
C419 H412 0.950 . S
C419 C416 1.387 . S
C420 C421 1.388 . S
C420 H424 0.950 . S
C420 C429 1.390 1_554 S
C421 C420 1.388 . S
C421 C423 1.388 . S
H422 C429 0.950 . S
C423 C421 1.388 . S
C423 C425 1.390 1_554 S
C423 H427 0.950 . S
H424 C420 0.950 . S
C425 C423 1.390 1_556 S
C425 C426 1.387 . S
C425 H428 0.950 . S
C426 C425 1.387 . S
C426 C429 1.387 . S
H427 C423 0.950 . S
H428 C425 0.950 . S
C429 C420 1.390 1_556 S
C429 H422 0.950 . S
C429 C426 1.387 . S
C430 C431 1.388 . S
C430 H434 0.950 . S
C430 C439 1.390 1_545 S
C431 C430 1.388 . S
C431 C433 1.387 1_554 S
H432 C439 0.950 . S
C433 C431 1.387 1_556 S
C433 C435 1.390 1_545 S
C433 H437 0.950 . S
H434 C430 0.950 . S
C435 C433 1.390 1_565 S
C435 C436 1.388 . S
C435 H438 0.950 . S
C436 C435 1.388 . S
C436 C439 1.387 1_556 S
H437 C433 0.950 . S
H438 C435 0.950 . S
C439 C430 1.390 1_565 S
C439 H432 0.950 . S
C439 C436 1.387 1_554 S
C440 C441 1.387 1_556 S
C440 H444 0.950 1_556 S
C440 C449 1.390 . S
C441 C440 1.387 1_554 S
C441 C443 1.387 1_554 S
H442 C449 0.950 . S
C443 C441 1.387 1_556 S
C443 C445 1.390 . S
C443 H447 0.950 1_556 S
H444 C440 0.950 1_554 S
C445 C443 1.390 . S
C445 C446 1.387 . S
C445 H448 0.950 . S
C446 C445 1.387 . S
C446 C449 1.387 . S
H447 C443 0.950 1_554 S
H448 C445 0.950 . S
C449 C440 1.390 . S
C449 H442 0.950 . S
C449 C446 1.387 . S
C450 C451 1.387 1_556 S
C450 H454 0.950 1_556 S
C450 C459 1.390 . S
C451 C450 1.387 1_554 S
C451 C453 1.387 1_554 S
H452 C459 0.950 . S
C453 C451 1.387 1_556 S
C453 C455 1.390 . S
C453 H457 0.950 1_556 S
H454 C450 0.950 1_554 S
C455 C453 1.390 . S
C455 C456 1.387 . S
C455 H458 0.950 . S
C456 C455 1.387 . S
C456 C459 1.387 . S
H457 C453 0.950 1_554 S
H458 C455 0.950 . S
C459 C450 1.390 . S
C459 H452 0.950 . S
C459 C456 1.387 . S
C460 C461 1.387 . S
C460 H464 0.950 . S
C460 C469 1.390 . S
C461 C460 1.387 . S
C461 C463 1.387 . S
H462 C469 0.950 1_556 S
C463 C461 1.387 . S
C463 C465 1.390 . S
C463 H467 0.950 . S
H464 C460 0.950 . S
C465 C463 1.390 . S
C465 C466 1.387 1_554 S
C465 H468 0.950 1_554 S
C466 C465 1.387 1_556 S
C466 C469 1.387 1_556 S
H467 C463 0.950 . S
H468 C465 0.950 1_556 S
C469 C460 1.390 . S
C469 H462 0.950 1_554 S
C469 C466 1.387 1_554 S
C470 C471 1.387 1_554 S
C470 H474 0.950 1_554 S
C470 C479 1.390 . S
C471 C470 1.387 1_556 S
C471 C473 1.387 1_556 S
H472 C479 0.950 . S
C473 C471 1.387 1_554 S
C473 C475 1.390 . S
C473 H477 0.950 1_554 S
H474 C470 0.950 1_556 S
C475 C473 1.390 . S
C475 C476 1.387 . S
C475 H478 0.950 . S
C476 C475 1.387 . S
C476 C479 1.387 . S
H477 C473 0.950 1_556 S
H478 C475 0.950 . S
C479 C470 1.390 . S
C479 H472 0.950 . S
C479 C476 1.387 . S
C480 C481 1.387 . S
C480 H484 0.950 . S
C480 C489 1.390 . S
C481 C480 1.387 . S
C481 C483 1.387 . S
H482 C489 0.950 . S
C483 C481 1.387 . S
C483 C485 1.390 . S
C483 H487 0.950 . S
H484 C480 0.950 . S
C485 C483 1.390 . S
C485 C486 1.387 . S
C485 H488 0.950 . S
C486 C485 1.387 . S
C486 C489 1.387 . S
H487 C483 0.950 . S
H488 C485 0.950 . S
C489 C480 1.390 . S
C489 H482 0.950 . S
C489 C486 1.387 . S
C490 C491 1.387 . S
C490 H494 0.950 . S
C490 C499 1.390 . S
C491 C490 1.387 . S
C491 C493 1.387 . S
H492 C499 0.950 . S
C493 C491 1.387 . S
C493 C495 1.390 . S
C493 H497 0.950 . S
H494 C490 0.950 . S
C495 C493 1.390 . S
C495 C496 1.387 . S
C495 H498 0.950 . S
C496 C495 1.387 . S
C496 C499 1.387 . S
H497 C493 0.950 . S
H498 C495 0.950 . S
C499 C490 1.390 . S
C499 H492 0.950 . S
C499 C496 1.387 . S
C500 C501 1.387 . S
C500 H504 0.950 . S
C500 C509 1.390 . S
C501 C500 1.387 . S
C501 C503 1.387 . S
H502 C509 0.950 . S
C503 C501 1.387 . S
C503 C505 1.390 . S
C503 H507 0.950 . S
H504 C500 0.950 . S
C505 C503 1.390 . S
C505 C506 1.387 . S
C505 H508 0.950 . S
C506 C505 1.387 . S
C506 C509 1.387 . S
H507 C503 0.950 . S
H508 C505 0.950 . S
C509 C500 1.390 . S
C509 H502 0.950 . S
C509 C506 1.387 . S
C510 C511 1.387 . S
C510 H514 0.950 . S
C510 C519 1.390 . S
C511 C510 1.387 . S
C511 C513 1.387 . S
H512 C519 0.950 . S
C513 C511 1.387 . S
C513 C515 1.390 . S
C513 H517 0.950 . S
H514 C510 0.950 . S
C515 C513 1.390 . S
C515 C516 1.387 . S
C515 H518 0.950 . S
C516 C515 1.387 . S
C516 C519 1.387 . S
H517 C513 0.950 . S
H518 C515 0.950 . S
C519 C510 1.390 . S
C519 H512 0.950 . S
C519 C516 1.387 . S
C520 C521 1.387 . S
C520 H524 0.950 1_554 S
C520 C529 1.390 1_455 S
C521 C520 1.387 . S
C521 C523 1.387 . S
H522 C529 0.950 1_556 S
C523 C521 1.387 . S
C523 C525 1.390 1_455 S
C523 H527 0.950 . S
H524 C520 0.950 1_556 S
C525 C523 1.390 1_655 S
C525 C526 1.387 . S
C525 H528 0.950 . S
C526 C525 1.387 . S
C526 C529 1.387 . S
H527 C523 0.950 . S
H528 C525 0.950 . S
C529 C520 1.390 1_655 S
C529 H522 0.950 1_554 S
C529 C526 1.387 . S
C530 C531 1.387 . S
C530 H534 0.950 1_556 S
C530 C539 1.390 1_655 S
C531 C530 1.387 . S
C531 C533 1.387 . S
H532 C539 0.950 1_554 S
C533 C531 1.387 . S
C533 C535 1.390 1_655 S
C533 H537 0.950 . S
H534 C530 0.950 1_554 S
C535 C533 1.390 1_455 S
C535 C536 1.387 . S
C535 H538 0.950 . S
C536 C535 1.387 . S
C536 C539 1.387 . S
H537 C533 0.950 . S
H538 C535 0.950 . S
C539 C530 1.390 1_455 S
C539 H532 0.950 1_556 S
C539 C536 1.387 . S
C540 C541 1.387 . S
C540 H544 0.950 . S
C540 C549 1.390 . S
C541 C540 1.387 . S
C541 C543 1.387 . S
H542 C549 0.950 . S
C543 C541 1.387 . S
C543 C545 1.390 . S
C543 H547 0.950 . S
H544 C540 0.950 . S
C545 C543 1.390 . S
C545 C546 1.387 . S
C545 H548 0.950 . S
C546 C545 1.387 . S
C546 C549 1.387 . S
H547 C543 0.950 . S
H548 C545 0.950 . S
C549 C540 1.390 . S
C549 H542 0.950 . S
C549 C546 1.387 . S
C550 C551 1.387 . S
C550 H554 0.950 . S
C550 C559 1.390 . S
C551 C550 1.387 . S
C551 C553 1.387 . S
H552 C559 0.950 . S
C553 C551 1.387 . S
C553 C555 1.390 . S
C553 H557 0.950 . S
H554 C550 0.950 . S
C555 C553 1.390 . S
C555 C556 1.387 . S
C555 H558 0.950 . S
C556 C555 1.387 . S
C556 C559 1.387 . S
H557 C553 0.950 . S
H558 C555 0.950 . S
C559 C550 1.390 . S
C559 H552 0.950 . S
C559 C556 1.387 . S
C321 C6 1.737 . S
C326 C286 1.737 . S
C331 C246 1.737 . S
C336 C46 1.737 . S
C341 C206 1.734 . S
C346 C86 1.734 . S
C351 C166 1.737 . S
C356 C126 1.737 . S
C361 C89 1.860 . S
C366 C9 1.860 . S
C371 C49 1.860 . S
C376 C129 1.860 . S
C381 C138 1.385 . S
C386 C58 1.385 . S
C391 C98 1.381 . S
C396 C18 1.381 . S
C401 C169 1.666 1_554 S
C406 C249 1.666 1_556 S
C411 C209 1.666 1_554 S
C416 C289 1.666 1_556 S
C421 C298 1.195 1_554 S
C426 C218 1.195 1_556 S
C431 C258 1.193 1_554 S
C436 C178 1.192 1_556 S
C441 C19 2.092 . S
C446 C10 2.092 . S
C451 C59 2.092 . S
C456 C50 2.092 . S
C461 C90 2.090 . S
C466 C99 2.090 . S
C471 C139 2.090 . S
C476 C130 2.090 . S
C481 C170 2.089 . S
C486 C179 2.089 . S
C491 C219 2.089 . S
C496 C210 2.089 . S
C501 C259 2.089 . S
C506 C250 2.089 . S
C511 C299 2.089 . S
C516 C290 2.089 . S
C521 C15 2.285 . S
C526 C55 2.285 . S
C531 C135 2.285 . S
C536 C95 2.285 . S
C541 C175 2.286 . S
C546 C215 2.286 . S
C551 C295 2.287 . S
C556 C255 2.287 . S
