# Generated by pormake.
# Topology swf, (7)-cn, num edge types: 1
# Building blocks:
#     Node 0, Type 0, BuildingBlock: HICVOG_clean_sbu_0, # of connection points: 7
#     Node 1, Type 0, BuildingBlock: HICVOG_clean_sbu_0, # of connection points: 7
#     Node 2, Type 0, BuildingBlock: HICVOG_clean_sbu_0, # of connection points: 7
#     Node 3, Type 0, BuildingBlock: HICVOG_clean_sbu_0, # of connection points: 7
#     Node 4, Type 0, BuildingBlock: HICVOG_clean_sbu_0, # of connection points: 7
#     Node 5, Type 0, BuildingBlock: HICVOG_clean_sbu_0, # of connection points: 7
#     Node 6, Type 0, BuildingBlock: HICVOG_clean_sbu_0, # of connection points: 7
#     Node 7, Type 0, BuildingBlock: HICVOG_clean_sbu_0, # of connection points: 7
#     Node 8, Type 0, BuildingBlock: HICVOG_clean_sbu_0, # of connection points: 7
#     Node 9, Type 0, BuildingBlock: HICVOG_clean_sbu_0, # of connection points: 7
#     Node 10, Type 0, BuildingBlock: HICVOG_clean_sbu_0, # of connection points: 7
#     Node 11, Type 0, BuildingBlock: HICVOG_clean_sbu_0, # of connection points: 7
#     Edge 12, Type (0, 0), BuildingBlock: CIFDUS_clean_linker_0, # of connection points: 2
#     Edge 13, Type (0, 0), BuildingBlock: CIFDUS_clean_linker_0, # of connection points: 2
#     Edge 14, Type (0, 0), BuildingBlock: CIFDUS_clean_linker_0, # of connection points: 2
#     Edge 15, Type (0, 0), BuildingBlock: CIFDUS_clean_linker_0, # of connection points: 2
#     Edge 16, Type (0, 0), BuildingBlock: CIFDUS_clean_linker_0, # of connection points: 2
#     Edge 17, Type (0, 0), BuildingBlock: CIFDUS_clean_linker_0, # of connection points: 2
#     Edge 18, Type (0, 0), BuildingBlock: CIFDUS_clean_linker_0, # of connection points: 2
#     Edge 19, Type (0, 0), BuildingBlock: CIFDUS_clean_linker_0, # of connection points: 2
#     Edge 20, Type (0, 0), BuildingBlock: CIFDUS_clean_linker_0, # of connection points: 2
#     Edge 21, Type (0, 0), BuildingBlock: CIFDUS_clean_linker_0, # of connection points: 2
#     Edge 22, Type (0, 0), BuildingBlock: CIFDUS_clean_linker_0, # of connection points: 2
#     Edge 23, Type (0, 0), BuildingBlock: CIFDUS_clean_linker_0, # of connection points: 2
#     Edge 24, Type (0, 0), BuildingBlock: CIFDUS_clean_linker_0, # of connection points: 2
#     Edge 25, Type (0, 0), BuildingBlock: CIFDUS_clean_linker_0, # of connection points: 2
#     Edge 26, Type (0, 0), BuildingBlock: CIFDUS_clean_linker_0, # of connection points: 2
#     Edge 27, Type (0, 0), BuildingBlock: CIFDUS_clean_linker_0, # of connection points: 2
#     Edge 28, Type (0, 0), BuildingBlock: CIFDUS_clean_linker_0, # of connection points: 2
#     Edge 29, Type (0, 0), BuildingBlock: CIFDUS_clean_linker_0, # of connection points: 2
#     Edge 30, Type (0, 0), BuildingBlock: CIFDUS_clean_linker_0, # of connection points: 2
#     Edge 31, Type (0, 0), BuildingBlock: CIFDUS_clean_linker_0, # of connection points: 2
#     Edge 32, Type (0, 0), BuildingBlock: CIFDUS_clean_linker_0, # of connection points: 2
#     Edge 33, Type (0, 0), BuildingBlock: CIFDUS_clean_linker_0, # of connection points: 2
#     Edge 34, Type (0, 0), BuildingBlock: CIFDUS_clean_linker_0, # of connection points: 2
#     Edge 35, Type (0, 0), BuildingBlock: CIFDUS_clean_linker_0, # of connection points: 2
#     Edge 36, Type (0, 0), BuildingBlock: CIFDUS_clean_linker_0, # of connection points: 2
#     Edge 37, Type (0, 0), BuildingBlock: CIFDUS_clean_linker_0, # of connection points: 2
#     Edge 38, Type (0, 0), BuildingBlock: CIFDUS_clean_linker_0, # of connection points: 2
#     Edge 39, Type (0, 0), BuildingBlock: CIFDUS_clean_linker_0, # of connection points: 2
#     Edge 40, Type (0, 0), BuildingBlock: CIFDUS_clean_linker_0, # of connection points: 2
#     Edge 41, Type (0, 0), BuildingBlock: CIFDUS_clean_linker_0, # of connection points: 2
#     Edge 42, Type (0, 0), BuildingBlock: CIFDUS_clean_linker_0, # of connection points: 2
#     Edge 43, Type (0, 0), BuildingBlock: CIFDUS_clean_linker_0, # of connection points: 2
#     Edge 44, Type (0, 0), BuildingBlock: CIFDUS_clean_linker_0, # of connection points: 2
#     Edge 45, Type (0, 0), BuildingBlock: CIFDUS_clean_linker_0, # of connection points: 2
#     Edge 46, Type (0, 0), BuildingBlock: CIFDUS_clean_linker_0, # of connection points: 2
#     Edge 47, Type (0, 0), BuildingBlock: CIFDUS_clean_linker_0, # of connection points: 2
#     Edge 48, Type (0, 0), BuildingBlock: CIFDUS_clean_linker_0, # of connection points: 2
#     Edge 49, Type (0, 0), BuildingBlock: CIFDUS_clean_linker_0, # of connection points: 2
#     Edge 50, Type (0, 0), BuildingBlock: CIFDUS_clean_linker_0, # of connection points: 2
#     Edge 51, Type (0, 0), BuildingBlock: CIFDUS_clean_linker_0, # of connection points: 2
#     Edge 52, Type (0, 0), BuildingBlock: CIFDUS_clean_linker_0, # of connection points: 2
#     Edge 53, Type (0, 0), BuildingBlock: CIFDUS_clean_linker_0, # of connection points: 2
# Relax obj value: 0.379
# Max RMSD: 0.198
# Mean RMSD: 0.198
data_MOF--net-swf--node1-HICVOG_clean_sbu_0--edge1-CIFDUS_clean_linker_0
_symmetry_space_group_name_H-M    P1
_symmetry_Int_Tables_number       1
_symmetry_cell_setting            triclinic
loop_
_symmetry_equiv_pos_as_xyz
'x, y, z'
_cell_length_a     41.613764
_cell_length_b     41.38257
_cell_length_c     20.879404
_cell_angle_alpha  89.745625
_cell_angle_beta   90.439169
_cell_angle_gamma 120.2367
loop_
_atom_site_label
_atom_site_type_symbol
_atom_site_fract_x
_atom_site_fract_y
_atom_site_fract_z
_atom_type_partial_charge
Zn0 Zn 0.45169 0.13773 0.9909 0.0
C1 C 0.47281 0.21641 0.12705 0.0
N2 N 0.47161 0.23621 1.07465 0.0
C3 C 0.46819 0.21493 1.02197 0.0
N4 N 0.46778 0.18325 1.04203 0.0
N5 N 0.47123 0.18413 0.1059 0.0
C6 C 0.43538 0.09242 0.21905 0.0
O7 O 0.42477 0.08319 0.15926 0.0
O8 O 0.46741 0.1514 0.89953 0.0
Zn9 Zn 0.48999 0.15329 0.14885 0.0
N10 N 0.39842 0.11083 1.00081 0.0
C11 C 0.34608 0.09264 1.06828 0.0
C12 C 0.38437 0.11264 1.05848 0.0
C13 C 0.37566 0.09016 0.95225 0.0
N14 N 0.3233 0.07115 1.02026 0.0
C15 C 0.33708 0.06961 0.96222 0.0
O16 O 0.49358 0.10998 0.10496 0.0
C17 C 0.48572 0.09181 1.05271 0.0
O18 O 0.47044 0.10021 1.00759 0.0
H19 H 0.40269 0.12902 0.09703 0.0
H20 H 0.38769 0.0886 0.9074 0.0
C21 C 0.56055 0.2086 0.20786 0.0
C22 C 0.59763 0.23784 0.20207 0.0
C23 C 0.59422 0.22875 1.08982 0.0
C24 C 0.5577 0.19964 0.09585 0.0
N25 N 0.5416 0.19022 0.15453 0.0
N26 N 0.61351 0.24695 0.14312 0.0
H27 H 0.54721 0.1998 0.25399 0.0
C28 C 0.50123 0.17668 0.89244 0.0
O29 O 0.52092 0.19435 0.94327 0.0
O30 O 0.46263 0.12521 0.23068 0.0
H31 H 0.54191 0.18471 1.05398 0.0
H32 H 0.3346 0.09361 0.11406 0.0
H33 H 0.60728 0.23655 1.04333 0.0
Zn34 Zn 0.32136 0.47269 1.04151 0.0
C35 C 0.25067 0.477 0.17017 0.0
N36 N 0.23159 0.477 0.116 0.0
C37 C 0.25244 0.47687 1.06521 0.0
N38 N 0.28372 0.47771 1.0888 0.0
N39 N 0.28271 0.47799 0.15266 0.0
C40 C 0.33191 0.43068 0.23641 0.0
O41 O 0.33055 0.43166 0.17364 0.0
O42 O 0.3336 0.50537 0.9647 0.0
Zn43 Zn 0.32644 0.49374 0.20955 0.0
N44 N 0.2967 0.42058 1.01966 0.0
C45 C 0.24787 0.35875 1.0413 0.0
C46 C 0.26984 0.39593 1.05971 0.0
C47 C 0.3029 0.40963 0.96228 0.0
N48 N 0.25341 0.34789 0.98325 0.0
C49 C 0.28017 0.37232 0.94255 0.0
O50 O 0.37908 0.51272 0.17369 0.0
C51 C 0.39427 0.50645 0.1263 0.0
O52 O 0.37474 0.48916 1.07726 0.0
H53 H 0.26494 0.40523 0.10496 0.0
H54 H 0.32489 0.43028 0.93265 0.0
C55 C 0.3268 0.53992 0.3155 0.0
C56 C 0.32629 0.57148 0.3394 0.0
C57 C 0.33222 0.59474 0.23346 0.0
C58 C 0.33241 0.5634 0.21015 0.0
N59 N 0.32973 0.53668 0.25149 0.0
N60 N 0.32939 0.59814 0.29736 0.0
H61 H 0.32529 0.51832 0.34682 0.0
C62 C 0.35294 0.53984 0.97883 0.0
O63 O 0.36012 0.5496 1.03935 0.0
O64 O 0.32465 0.45258 0.26803 0.0
H65 H 0.33417 0.55999 0.15921 0.0
H66 H 0.22626 0.33877 1.07243 0.0
H67 H 0.33435 0.61624 0.20115 0.0
Zn68 Zn 0.8801 0.30564 0.9862 0.0
C69 C 0.8022 0.24015 0.12021 0.0
N70 N 0.78171 0.22047 1.06749 0.0
C71 C 0.80306 0.23884 1.01498 0.0
N72 N 0.83515 0.26974 1.03561 0.0
N73 N 0.83484 0.27038 0.09963 0.0
C74 C 0.90905 0.31315 0.23146 0.0
O75 O 0.91865 0.30577 0.17597 0.0
O76 O 0.86634 0.31358 0.8972 0.0
Zn77 Zn 0.86454 0.31884 0.1432 0.0
N78 N 0.91002 0.28226 0.99413 0.0
C79 C 0.91403 0.22935 1.02764 0.0
C80 C 0.89359 0.24457 1.00173 0.0
C81 C 0.94603 0.30517 1.01114 0.0
N82 N 0.94981 0.25246 1.04633 0.0
C83 C 0.96649 0.29029 1.03979 0.0
O84 O 0.91508 0.36277 0.11424 0.0
C85 C 0.93052 0.37963 1.0627 0.0
O86 O 0.91705 0.36309 1.00955 0.0
H87 H 0.86439 0.22658 0.99122 0.0
H88 H 0.95798 0.33473 1.00317 0.0
C89 C 0.80825 0.33655 0.17382 0.0
C90 C 0.78246 0.34778 0.15725 0.0
C91 C 0.80773 0.3629 1.05274 0.0
C92 C 0.83356 0.35246 1.06995 0.0
N93 N 0.83313 0.33936 0.12991 0.0
N94 N 0.78302 0.36067 0.0969 0.0
H95 H 0.80967 0.3266 0.2211 0.0
C96 C 0.83859 0.31864 0.89587 0.0
O97 O 0.81642 0.30808 0.94546 0.0
O98 O 0.87946 0.31516 0.23419 0.0
H99 H 0.85325 0.35386 1.0353 0.0
H100 H 0.9013 0.19946 1.03439 0.0
H101 H 0.80752 0.37304 1.00497 0.0
Zn102 Zn 0.52183 0.84926 0.14202 0.0
C103 C 0.55333 0.80078 1.01025 0.0
N104 N 0.55133 0.77853 1.0612 0.0
C105 C 0.54851 0.79613 0.115 0.0
N106 N 0.54832 0.82778 0.09678 0.0
N107 N 0.55257 0.83142 1.03344 0.0
C108 C 0.52049 0.86067 0.90944 0.0
O109 O 0.50593 0.84348 0.96354 0.0
O110 O 0.54425 0.86983 0.22925 0.0
Zn111 Zn 0.56897 0.88162 0.99479 0.0
N112 N 0.47079 0.81042 0.12964 0.0
C113 C 0.42248 0.78675 1.05107 0.0
C114 C 0.4547 0.81617 1.07723 0.0
C115 C 0.45484 0.77651 0.15887 0.0
N116 N 0.40594 0.7532 1.08108 0.0
C117 C 0.42067 0.74715 0.13517 0.0
O118 O 0.54644 0.91596 1.01901 0.0
C119 C 0.52976 0.91955 1.06682 0.0
O120 O 0.52082 0.89652 0.11282 0.0
H121 H 0.46764 0.8431 1.05412 0.0
H122 H 0.46803 0.77312 0.20118 0.0
C123 C 0.6321 0.94942 1.0204 0.0
C124 C 0.66555 0.97407 1.05174 0.0
C125 C 0.67521 0.92317 1.07271 0.0
C126 C 0.64125 0.89868 1.04313 0.0
N127 N 0.62053 0.91251 1.01738 0.0
N128 N 0.68666 0.96026 1.07619 0.0
H129 H 0.61499 0.95923 0.99845 0.0
C130 C 0.57487 0.89956 0.21608 0.0
O131 O 0.58717 0.90455 0.15701 0.0
O132 O 0.55554 0.87669 0.90212 0.0
H133 H 0.63095 0.86892 1.04277 0.0
H134 H 0.41011 0.79081 1.00826 0.0
H135 H 0.69212 0.91271 0.09345 0.0
Zn136 Zn 0.67914 0.56831 1.02692 0.0
C137 C 0.74534 0.55296 0.15431 0.0
N138 N 0.76717 0.55953 0.10021 0.0
C139 C 0.74675 0.56093 1.0489 0.0
N140 N 0.71385 0.55616 1.07233 0.0
N141 N 0.71205 0.55003 0.13541 0.0
C142 C 0.68077 0.56996 0.28162 0.0
O143 O 0.70861 0.59072 0.24341 0.0
O144 O 0.658 0.53528 0.94814 0.0
Zn145 Zn 0.66022 0.52653 0.17327 0.0
N146 N 0.70866 0.62242 1.02356 0.0
C147 C 0.74448 0.67664 1.08794 0.0
C148 C 0.72179 0.63801 1.08213 0.0
C149 C 0.71717 0.64403 0.9704 0.0
N150 N 0.75305 0.69833 1.03482 0.0
C151 C 0.74041 0.68289 0.97608 0.0
O152 O 0.61966 0.54137 0.15592 0.0
C153 C 0.60917 0.55153 0.10646 0.0
O154 O 0.62936 0.56071 1.05712 0.0
H155 H 0.71456 0.62042 0.12412 0.0
H156 H 0.70554 0.6312 0.92451 0.0
C157 C 0.6424 0.4491 0.15904 0.0
C158 C 0.62582 0.41394 0.12765 0.0
C159 C 0.5958 0.43467 1.05571 0.0
C160 C 0.6121 0.46905 1.08685 0.0
N161 N 0.63486 0.47569 0.1384 0.0
N162 N 0.60277 0.40788 1.077 0.0
H163 H 0.66009 0.45521 0.20074 0.0
C164 C 0.65893 0.50506 0.94522 0.0
O165 O 0.6771 0.49757 0.98881 0.0
O166 O 0.66003 0.53544 0.26808 0.0
H167 H 0.6071 0.49042 1.06852 0.0
H168 H 0.75489 0.6893 0.13434 0.0
H169 H 0.57721 0.42901 1.01555 0.0
Zn170 Zn 0.15105 0.66003 0.1566 0.0
C171 C 0.21252 0.74601 1.03159 0.0
N172 N 0.23359 0.7633 1.085 0.0
C173 C 0.21418 0.74114 0.13633 0.0
N174 N 0.18258 0.71014 0.11409 0.0
N175 N 0.18127 0.71375 1.05065 0.0
C176 C 0.17175 0.67822 0.90742 0.0
O177 O 0.18283 0.66823 0.95902 0.0
O178 O 0.11767 0.65898 0.23109 0.0
Zn179 Zn 0.13407 0.68429 1.00445 0.0
N180 N 0.18865 0.64783 0.17599 0.0
C181 C 0.23263 0.63545 0.12617 0.0
C182 C 0.20338 0.64254 0.12184 0.0
C183 C 0.20206 0.64653 0.23465 0.0
N184 N 0.24601 0.63389 0.1847 0.0
C185 C 0.23172 0.63951 0.23912 0.0
O186 O 0.09896 0.62638 1.01587 0.0
C187 C 0.09405 0.60126 1.05663 0.0
O188 O 0.11318 0.61108 0.10813 0.0
H189 H 0.19249 0.64412 1.0755 0.0
H190 H 0.18942 0.65031 0.27691 0.0
C191 C 0.09354 0.7229 0.98304 0.0
C192 C 0.07633 0.7429 1.00272 0.0
C193 C 0.091 0.73797 0.11051 0.0
C194 C 0.10786 0.71792 1.0909 0.0
N195 N 0.10825 0.71021 1.02767 0.0
N196 N 0.07494 0.74943 1.06609 0.0
H197 H 0.09407 0.71626 0.93308 0.0
C198 C 0.08349 0.64693 0.21676 0.0
O199 O 0.07308 0.63963 0.15658 0.0
O200 O 0.14663 0.68694 0.91213 0.0
H201 H 0.12061 0.70869 0.126 0.0
H202 H 0.24455 0.63114 1.08347 0.0
H203 H 0.09014 0.74382 0.16072 0.0
Zn204 Zn 0.84844 0.52148 0.51943 0.0
C205 C 0.80308 0.55639 0.65628 0.0
N206 N 0.78175 0.5568 0.6053 0.0
C207 C 0.79721 0.55127 0.5505 0.0
N208 N 0.82655 0.54686 0.5684 0.0
N209 N 0.82994 0.54975 0.63211 0.0
C210 C 0.82589 0.48958 0.75933 0.0
O211 O 0.79789 0.48784 0.72704 0.0
O212 O 0.87077 0.54466 0.4321 0.0
Zn213 Zn 0.87411 0.554 0.67796 0.0
N214 N 0.80902 0.47115 0.52382 0.0
C215 C 0.7736 0.42106 0.59596 0.0
C216 C 0.80152 0.45775 0.58464 0.0
C217 C 0.79049 0.44934 0.47336 0.0
N218 N 0.75538 0.39868 0.5454 0.0
C219 C 0.76309 0.41183 0.48427 0.0
O220 O 0.91071 0.53781 0.64622 0.0
C221 C 0.91324 0.52078 0.59801 0.0
O222 O 0.89114 0.51375 0.55115 0.0
H223 H 0.81795 0.47548 0.6236 0.0
H224 H 0.79882 0.46067 0.42562 0.0
C225 C 0.9172 0.62729 0.74262 0.0
C226 C 0.93344 0.66643 0.74156 0.0
C227 C 0.92355 0.66462 0.62961 0.0
C228 C 0.90677 0.62586 0.63102 0.0
N229 N 0.90391 0.60788 0.68725 0.0
N230 N 0.93663 0.68407 0.68485 0.0
H231 H 0.91486 0.61241 0.7867 0.0
C232 C 0.90412 0.5715 0.44082 0.0
O233 O 0.91499 0.58317 0.49962 0.0
O234 O 0.85836 0.51789 0.75345 0.0
H235 H 0.89509 0.61004 0.58771 0.0
H236 H 0.76739 0.4101 0.64424 0.0
H237 H 0.92593 0.67912 0.5851 0.0
Zn238 Zn 0.33875 0.84322 0.50437 0.0
C239 C 0.25588 0.79178 0.63575 0.0
N240 N 0.2357 0.76947 0.58496 0.0
C241 C 0.25715 0.78586 0.53134 0.0
N242 N 0.28961 0.81716 0.54961 0.0
N243 N 0.28791 0.82142 0.61249 0.0
C244 C 0.3502 0.85213 0.73253 0.0
O245 O 0.34861 0.8362 0.67755 0.0
O246 O 0.34195 0.87641 0.42737 0.0
Zn247 Zn 0.31835 0.87137 0.65016 0.0
N248 N 0.34585 0.80154 0.48843 0.0
C249 C 0.35438 0.75524 0.54125 0.0
C250 C 0.35301 0.78809 0.54291 0.0
C251 C 0.34023 0.78354 0.43181 0.0
N252 N 0.34869 0.7371 0.48485 0.0
C253 C 0.34142 0.75014 0.42991 0.0
O254 O 0.37386 0.90742 0.62459 0.0
C255 C 0.39867 0.90621 0.59091 0.0
O256 O 0.38886 0.88033 0.54959 0.0
H257 H 0.35699 0.80252 0.58763 0.0
H258 H 0.33538 0.79543 0.38919 0.0
C259 C 0.29095 0.92068 0.67923 0.0
C260 C 0.27336 0.94116 0.66455 0.0
C261 C 0.25579 0.91193 0.56316 0.0
C262 C 0.27348 0.89173 0.57771 0.0
N263 N 0.29104 0.89684 0.6352 0.0
N264 N 0.25654 0.93662 0.60656 0.0
H265 H 0.30575 0.92473 0.72409 0.0
C266 C 0.34865 0.90932 0.441 0.0
O267 O 0.34872 0.91801 0.50136 0.0
O268 O 0.32939 0.86605 0.74128 0.0
H269 H 0.27389 0.87276 0.54279 0.0
H270 H 0.35989 0.7442 0.58436 0.0
H271 H 0.24217 0.90851 0.5173 0.0
Zn272 Zn 0.44687 0.31868 0.65019 0.0
C273 C 0.47209 0.26179 0.52239 0.0
N274 N 0.46935 0.24051 0.57545 0.0
C275 C 0.46679 0.25953 0.62722 0.0
N276 N 0.4669 0.29082 0.60561 0.0
N277 N 0.47113 0.29294 0.54217 0.0
C278 C 0.42787 0.33954 0.44972 0.0
O279 O 0.42104 0.32945 0.5101 0.0
O280 O 0.46467 0.32761 0.74064 0.0
Zn281 Zn 0.49065 0.34214 0.49827 0.0
N282 N 0.39367 0.28743 0.64535 0.0
C283 C 0.33897 0.23233 0.6102 0.0
C284 C 0.3776 0.25532 0.61032 0.0
C285 C 0.37274 0.29786 0.67893 0.0
N286 N 0.31799 0.24235 0.64513 0.0
C287 C 0.33396 0.27485 0.67893 0.0
O288 O 0.49872 0.3904 0.54313 0.0
C289 C 0.48468 0.39936 0.58874 0.0
O290 O 0.46253 0.37408 0.62739 0.0
H291 H 0.39447 0.24733 0.58316 0.0
H292 H 0.38645 0.32327 0.70708 0.0
C293 C 0.55501 0.34588 0.43528 0.0
C294 C 0.59073 0.34999 0.43983 0.0
C295 C 0.59612 0.37125 0.5467 0.0
C296 C 0.56129 0.36792 0.54138 0.0
N297 N 0.54125 0.35492 0.48627 0.0
N298 N 0.61015 0.36252 0.49574 0.0
H299 H 0.53858 0.33654 0.39185 0.0
C300 C 0.49987 0.34693 0.73781 0.0
O301 O 0.51606 0.35063 0.68249 0.0
O302 O 0.4574 0.34277 0.42518 0.0
H303 H 0.54975 0.37466 0.58163 0.0
H304 H 0.32582 0.20653 0.58318 0.0
H305 H 0.61206 0.38108 0.59066 0.0
Zn306 Zn 0.13443 0.47535 0.5407 0.0
C307 C 0.20481 0.466 0.66812 0.0
N308 N 0.22351 0.4659 0.61426 0.0
C309 C 0.20256 0.46634 0.56311 0.0
N310 N 0.17159 0.46616 0.58562 0.0
N311 N 0.1725 0.46462 0.64953 0.0
C312 C 0.1771 0.5418 0.70432 0.0
O313 O 0.20328 0.53931 0.67426 0.0
O314 O 0.11249 0.44514 0.45921 0.0
Zn315 Zn 0.13408 0.46124 0.70851 0.0
N316 N 0.15567 0.52825 0.52944 0.0
C317 C 0.14364 0.57861 0.53132 0.0
C318 C 0.13118 0.54077 0.52394 0.0
C319 C 0.19239 0.55224 0.53994 0.0
N320 N 0.18044 0.60272 0.54006 0.0
C321 C 0.2057 0.59094 0.54352 0.0
O322 O 0.07957 0.44672 0.6859 0.0
C323 C 0.06814 0.45654 0.63684 0.0
O324 O 0.0879 0.46683 0.58693 0.0
H325 H 0.1019 0.52134 0.51651 0.0
H326 H 0.21093 0.54121 0.54481 0.0
C327 C 0.12864 0.43435 0.83998 0.0
C328 C 0.13258 0.4116 0.88642 0.0
C329 C 0.14425 0.37993 0.80284 0.0
C330 C 0.13835 0.40102 0.75758 0.0
N331 N 0.13234 0.42884 0.77695 0.0
N332 N 0.141 0.38554 0.86564 0.0
H333 H 0.1228 0.45612 0.85265 0.0
C334 C 0.08294 0.4139 0.4692 0.0
O335 O 0.074 0.40215 0.52846 0.0
O336 O 0.15056 0.51352 0.73155 0.0
H337 H 0.1405 0.39661 0.70718 0.0
H338 H 0.12437 0.58891 0.52883 0.0
H339 H 0.15067 0.35877 0.7883 0.0
Zn340 Zn 0.68106 0.13188 0.66022 0.0
C341 C 0.75343 0.19246 0.51448 0.0
N342 N 0.77663 0.21042 0.56584 0.0
C343 C 0.75572 0.19471 0.6198 0.0
N344 N 0.72086 0.16729 0.6014 0.0
N345 N 0.71939 0.16534 0.53743 0.0
C346 C 0.68382 0.09188 0.40746 0.0
O347 O 0.69896 0.08795 0.46022 0.0
O348 O 0.65621 0.15721 0.7011 0.0
Zn349 Zn 0.67045 0.12992 0.49782 0.0
N350 N 0.70859 0.11764 0.71679 0.0
C351 C 0.75899 0.1061 0.71613 0.0
C352 C 0.73192 0.10994 0.68369 0.0
C353 C 0.70984 0.11978 0.78184 0.0
N354 N 0.76089 0.10897 0.78071 0.0
C355 C 0.73714 0.11558 0.81529 0.0
O356 O 0.63723 0.07561 0.53034 0.0
C357 C 0.62018 0.06276 0.58284 0.0
O358 O 0.63302 0.08235 0.63336 0.0
H359 H 0.73048 0.10846 0.63196 0.0
H360 H 0.69104 0.1264 0.80608 0.0
C361 C 0.65492 0.18923 0.5048 0.0
C362 C 0.63335 0.20617 0.51607 0.0
C363 C 0.58324 0.14698 0.54793 0.0
C364 C 0.60364 0.13017 0.53107 0.0
N365 N 0.63928 0.15165 0.5106 0.0
N366 N 0.59822 0.18424 0.53891 0.0
H367 H 0.68349 0.20502 0.48961 0.0
C368 C 0.65911 0.18826 0.68519 0.0
O369 O 0.68446 0.21046 0.64415 0.0
O370 O 0.67407 0.11654 0.40637 0.0
H371 H 0.59098 0.1003 0.53481 0.0
H372 H 0.77836 0.10086 0.69034 0.0
H373 H 0.55515 0.13036 0.56561 0.0
Zn374 Zn 0.53773 0.67123 0.4963 0.0
C375 C 0.54856 0.75388 0.61513 0.0
N376 N 0.54779 0.77255 0.56099 0.0
C377 C 0.5469 0.75099 0.50985 0.0
N378 N 0.54669 0.71978 0.53296 0.0
N379 N 0.5479 0.72198 0.59683 0.0
C380 C 0.50231 0.67624 0.73368 0.0
O381 O 0.488 0.67417 0.67668 0.0
O382 O 0.54885 0.67004 0.40329 0.0
Zn383 Zn 0.55815 0.68937 0.6508 0.0
N384 N 0.4869 0.63469 0.51476 0.0
C385 C 0.44329 0.57084 0.53512 0.0
C386 C 0.476 0.59803 0.50682 0.0
C387 C 0.46526 0.64531 0.5461 0.0
N388 N 0.42178 0.58141 0.5669 0.0
C389 C 0.43125 0.61803 0.57274 0.0
O390 O 0.53794 0.63292 0.62744 0.0
C391 C 0.54989 0.62225 0.58082 0.0
O392 O 0.56492 0.64492 0.53433 0.0
H393 H 0.4937 0.59017 0.48184 0.0
H394 H 0.47471 0.67474 0.55007 0.0
C395 C 0.63349 0.72595 0.70175 0.0
C396 C 0.67231 0.74697 0.69487 0.0
C397 C 0.66521 0.74581 0.5823 0.0
C398 C 0.62677 0.72505 0.58931 0.0
N399 N 0.61165 0.71521 0.64868 0.0
N400 N 0.6872 0.75593 0.63522 0.0
H401 H 0.62076 0.71757 0.74848 0.0
C402 C 0.58335 0.68285 0.39412 0.0
O403 O 0.60704 0.71168 0.42851 0.0
O404 O 0.53645 0.68576 0.7381 0.0
H405 H 0.60897 0.71709 0.54778 0.0
H406 H 0.43482 0.54155 0.53136 0.0
H407 H 0.67749 0.75354 0.53521 0.0
H408 H 0.39419 0.01733 0.20112 0.0
H409 H 0.4407 0.10088 0.35002 0.0
H410 H 0.41624 0.05141 0.43144 0.0
H411 H 0.38351 0.98452 0.45991 0.0
H412 H 0.34039 0.90116 0.31045 0.0
H413 H 0.36168 0.95063 0.22945 0.0
C414 C 0.39873 0.02487 0.2514 0.0
C415 C 0.4191 0.06295 0.26938 0.0
C416 C 0.38532 0.99628 0.29775 0.0
C417 C 0.4251 0.07195 0.3348 0.0
C418 C 0.41113 0.04362 0.38133 0.0
C419 C 0.37845 0.97706 0.40962 0.0
C420 C 0.36012 0.93901 0.39135 0.0
C421 C 0.39146 0.0057 0.36332 0.0
C422 C 0.35433 0.93007 0.3259 0.0
C423 C 0.36653 0.95839 0.27959 0.0
H424 H 0.3288 0.40885 0.36222 0.0
H425 H 0.37544 0.40796 0.17884 0.0
H426 H 0.40865 0.37944 0.2268 0.0
H427 H 0.42677 0.3564 0.32199 0.0
H428 H 0.37744 0.35417 0.50424 0.0
H429 H 0.34334 0.38158 0.45585 0.0
C430 C 0.34598 0.40212 0.33276 0.0
C431 C 0.34941 0.4106 0.26697 0.0
C432 C 0.36484 0.38503 0.36053 0.0
C433 C 0.37184 0.40153 0.22954 0.0
C434 C 0.39113 0.3853 0.25697 0.0
C435 C 0.40832 0.36162 0.35093 0.0
C436 C 0.40498 0.35321 0.41678 0.0
C437 C 0.38813 0.37712 0.32257 0.0
C438 C 0.3807 0.36012 0.45337 0.0
C439 C 0.36114 0.37602 0.4258 0.0
H440 H 0.00832 0.3717 0.48143 0.0
H441 H 0.09562 0.41354 0.34068 0.0
H442 H 0.04906 0.38345 0.2553 0.0
H443 H 0.98369 0.34745 0.22088 0.0
H444 H 0.89622 0.31095 0.3605 0.0
H445 H 0.94285 0.33669 0.44673 0.0
C446 C 0.01722 0.37385 0.43212 0.0
C447 C 0.05542 0.39441 0.41735 0.0
C448 C 0.99028 0.35756 0.38339 0.0
C449 C 0.06644 0.39772 0.35317 0.0
C450 C 0.03983 0.38056 0.30448 0.0
C451 C 0.97477 0.34468 0.27029 0.0
C452 C 0.93651 0.3268 0.28455 0.0
C453 C 1.0017 0.36066 0.31906 0.0
C454 C 0.92545 0.32431 0.34852 0.0
C455 C 0.9521 0.33908 0.39766 0.0
H456 H 0.61403 0.97269 0.18574 0.0
H457 H 0.5765 0.89756 0.34758 0.0
H458 H 0.60925 0.95101 0.42047 0.0
H459 H 0.64851 0.01885 0.43743 0.0
H460 H 0.67973 0.09425 0.27663 0.0
H461 H 0.64966 0.04063 0.20314 0.0
C462 C 0.61323 0.96793 0.23701 0.0
C463 C 0.59359 0.93114 0.2614 0.0
C464 C 0.63104 0.99876 0.2783 0.0
C465 C 0.59185 0.92552 0.32783 0.0
C466 C 0.61054 0.95605 0.36932 0.0
C467 C 0.6489 0.02351 0.3862 0.0
C468 C 0.66681 0.06031 0.36204 0.0
C469 C 0.63031 0.99272 0.34499 0.0
C470 C 0.6664 0.06612 0.29593 0.0
C471 C 0.64918 0.03553 0.25419 0.0
H472 H 0.60924 0.55462 0.28841 0.0
H473 H 0.72041 0.63118 0.3555 0.0
H474 H 0.70018 0.67366 0.39467 0.0
H475 H 0.6524 0.69128 0.40186 0.0
H476 H 0.54135 0.61598 0.3317 0.0
H477 H 0.56021 0.57111 0.30063 0.0
C478 C 0.62871 0.58006 0.31335 0.0
C479 C 0.66618 0.58958 0.31998 0.0
C480 C 0.61722 0.60512 0.33317 0.0
C481 C 0.69136 0.6231 0.35079 0.0
C482 C 0.67991 0.64759 0.37232 0.0
C483 C 0.63229 0.66524 0.37916 0.0
C484 C 0.59558 0.65737 0.3684 0.0
C485 C 0.64321 0.63941 0.36201 0.0
C486 C 0.56992 0.62312 0.33977 0.0
C487 C 0.58062 0.59726 0.32241 0.0
H488 H 0.97886 0.61471 0.45559 0.0
H489 H 0.89397 0.55947 0.31055 0.0
H490 H 0.94229 0.57958 0.22855 0.0
H491 H 0.00845 0.61058 0.19922 0.0
H492 H 0.09311 0.66317 0.34551 0.0
H493 H 0.04476 0.64624 0.42624 0.0
C494 C 0.97071 0.60728 0.40596 0.0
C495 C 0.93261 0.58563 0.38931 0.0
C496 C 0.99862 0.61829 0.35951 0.0
C497 C 0.92291 0.57608 0.32477 0.0
C498 C 0.95058 0.58754 0.27795 0.0
C499 C 0.0165 0.61864 0.24869 0.0
C500 C 0.05459 0.63828 0.26615 0.0
C501 C 0.98851 0.60831 0.29492 0.0
C502 C 0.0642 0.64813 0.33063 0.0
C503 C 0.0365 0.63842 0.37679 0.0
H504 H 0.68303 0.10381 0.90431 0.0
H505 H 0.79447 0.12207 0.8892 0.0
H506 H 0.78507 0.0851 0.9852 0.0
H507 H 0.73741 0.02942 1.04186 0.0
H508 H 0.62641 0.01159 1.05772 0.0
H509 H 0.64401 0.06761 0.99444 0.0
C510 C 0.70599 0.10127 0.92291 0.0
C511 C 0.73822 0.11279 0.8862 0.0
C512 C 0.70014 0.07916 0.97749 0.0
C513 C 0.76831 0.1112 0.91422 0.0
C514 C 0.76301 0.08997 0.96926 0.0
C515 C 0.71756 0.03878 1.03432 0.0
C516 C 0.67995 0.01486 1.04893 0.0
C517 C 0.72768 0.0706 0.99675 0.0
C518 C 0.65503 0.02833 1.04235 0.0
C519 C 0.66505 0.0604 1.0062 0.0
H520 H 0.72362 0.73695 0.96713 0.0
H521 H 0.76945 0.68057 0.86127 0.0
H522 H 0.76122 0.70637 0.76091 0.0
H523 H 0.72649 0.73073 0.70388 0.0
H524 H 0.6713 0.7778 0.80949 0.0
H525 H 0.69816 0.77086 0.9097 0.0
C526 C 0.73306 0.73164 0.92216 0.0
C527 C 0.74661 0.70682 0.92053 0.0
C528 C 0.72582 0.74437 0.86481 0.0
C529 C 0.75864 0.69953 0.86268 0.0
C530 C 0.75372 0.71404 0.80558 0.0
C531 C 0.72157 0.7407 0.74868 0.0
C532 C 0.69656 0.75393 0.75038 0.0
C533 C 0.73513 0.7344 0.8059 0.0
C534 C 0.69003 0.76682 0.80808 0.0
C535 C 0.70527 0.76276 0.86508 0.0
H536 H 1.0035 0.71529 1.00978 0.0
H537 H 0.09897 0.78321 0.89228 0.0
H538 H 0.05854 0.77233 0.79947 0.0
H539 H 0.99919 0.72958 0.74825 0.0
H540 H 0.90572 0.65301 0.86328 0.0
H541 H 0.94168 0.68118 0.96098 0.0
C542 C 0.0151 0.72901 0.96441 0.0
C543 C 0.05372 0.74956 0.9568 0.0
C544 C 0.99201 0.71999 0.91066 0.0
C545 C 0.06907 0.76715 0.89832 0.0
C546 C 0.04603 0.76054 0.84537 0.0
C547 C 0.98641 0.71995 0.79482 0.0
C548 C 0.95057 0.68874 0.79923 0.0
C549 C 0.00785 0.73479 0.85016 0.0
C550 C 0.93386 0.67642 0.85934 0.0
C551 C 0.95433 0.69253 0.91498 0.0
H552 H 0.33548 0.08232 0.83519 0.0
H553 H 0.28352 0.99777 0.98116 0.0
H554 H 0.25296 0.94962 0.89907 0.0
H555 H 0.25103 0.93084 0.7871 0.0
H556 H 0.30328 0.01503 0.64095 0.0
H557 H 0.32341 0.06444 0.72159 0.0
C558 C 0.31683 0.05342 0.84871 0.0
C559 C 0.31233 0.04315 0.91355 0.0
C560 C 0.29981 0.02599 0.80139 0.0
C561 C 0.2875 0.00601 0.93121 0.0
C562 C 0.27026 0.97852 0.88441 0.0
C563 C 0.26593 0.96008 0.77307 0.0
C564 C 0.27637 0.96971 0.70911 0.0
C565 C 0.27768 0.98802 0.81956 0.0
C566 C 0.2952 0.00736 0.69039 0.0
C567 C 0.30691 0.03547 0.73641 0.0
H568 H 0.3368 0.34121 0.68575 0.0
H569 H 0.28127 0.22954 0.76363 0.0
H570 H 0.25541 0.24943 0.84965 0.0
H571 H 0.25762 0.30067 0.9111 0.0
H572 H 0.31302 0.41251 0.83179 0.0
H573 H 0.33013 0.39036 0.73804 0.0
C574 C 0.31842 0.32118 0.721 0.0
C575 C 0.31141 0.28432 0.71977 0.0
C576 C 0.30447 0.33297 0.77066 0.0
C577 C 0.28703 0.25816 0.76429 0.0
C578 C 0.2726 0.26959 0.81364 0.0
C579 C 0.27297 0.32023 0.87303 0.0
C580 C 0.28559 0.35857 0.88048 0.0
C581 C 0.28254 0.30731 0.81875 0.0
C582 C 0.30461 0.3832 0.82961 0.0
C583 C 0.31407 0.3705 0.77527 0.0
H584 H 0.12852 0.36267 0.97738 0.0
H585 H 0.11007 0.45583 0.95416 0.0
H586 H 0.05866 0.42711 1.02884 0.0
H587 H 0.00669 0.36673 1.06328 0.0
H588 H 0.01811 0.26862 1.0575 0.0
H589 H 0.08411 0.30773 1.03616 0.0
C590 C 0.11386 0.37729 0.98939 0.0
C591 C 0.12018 0.40902 0.95401 0.0
C592 C 0.08192 0.35876 1.02684 0.0
C593 C 0.10355 0.42939 0.97548 0.0
C594 C 0.07398 0.41295 1.01855 0.0
C595 C 0.02339 0.35367 1.05698 0.0
C596 C 0.00666 0.31438 1.05534 0.0
C597 C 0.0604 0.3758 1.03784 0.0
C598 C 0.02974 0.29863 1.0552 0.0
C599 C 0.0676 0.32102 1.04263 0.0
H600 H 0.51914 0.96131 0.97091 0.0
H601 H 0.52357 0.9517 0.17613 0.0
H602 H 0.51173 1.00327 0.19018 0.0
H603 H 0.49937 0.05171 0.14547 0.0
H604 H 0.49104 0.0596 0.94078 0.0
H605 H 0.5048 0.00911 0.92591 0.0
C606 C 0.51762 0.97052 1.01874 0.0
C607 C 0.5224 0.95199 1.07235 0.0
C608 C 0.50991 1.00034 1.02688 0.0
C609 C 0.51986 0.96469 0.13371 0.0
C610 C 0.51314 0.99452 0.14194 0.0
C611 C 0.50066 0.04258 0.09745 0.0
C612 C 0.49423 0.06024 1.04439 0.0
C613 C 0.50798 0.01265 1.08907 0.0
C614 C 0.49572 0.04707 0.98283 0.0
C615 C 0.50371 0.01798 0.9742 0.0
H616 H 0.44737 0.52407 1.03135 0.0
H617 H 0.43251 0.51023 0.2357 0.0
H618 H 0.49624 0.52297 0.24881 0.0
H619 H 0.55693 0.53665 0.2023 0.0
H620 H 0.57295 0.55475 0.99867 0.0
H621 H 0.50938 0.5421 0.9859 0.0
C622 C 0.45807 0.52396 1.07881 0.0
C623 C 0.43451 0.51603 0.13237 0.0
C624 C 0.49559 0.53226 1.08644 0.0
C625 C 0.44955 0.51642 0.19339 0.0
C626 C 0.48625 0.52365 0.20103 0.0
C627 C 0.54679 0.53839 0.15523 0.0
C628 C 0.57059 0.54699 0.10175 0.0
C629 C 0.50971 0.53154 0.14797 0.0
C630 C 0.55608 0.5486 1.04118 0.0
C631 C 0.51932 0.54113 1.03359 0.0
H632 H 0.06828 0.54055 0.13998 0.0
H633 H 0.05103 0.56845 0.94853 0.0
H634 H 1.00137 0.5037 0.93136 0.0
H635 H 0.96025 0.4381 0.97171 0.0
H636 H 0.97732 0.41179 0.16461 0.0
H637 H 0.02866 0.47554 0.17915 0.0
C638 C 0.05394 0.53263 0.09419 0.0
C639 C 0.06414 0.56031 1.04575 0.0
C640 C 0.0247 0.49488 1.08461 0.0
C641 C 0.04441 0.54855 0.98713 0.0
C642 C 0.0157 0.51115 0.97716 0.0
C643 C 0.97534 0.44613 1.01679 0.0
C644 C 0.96411 0.41925 1.06697 0.0
C645 C 0.00522 0.48387 1.02562 0.0
C646 C 0.98448 0.43115 0.12495 0.0
C647 C 0.01418 0.46798 0.13348 0.0
H648 H 0.94421 0.50067 0.69821 0.0
H649 H 0.94658 0.51194 0.49262 0.0
H650 H 0.99217 0.49135 0.48608 0.0
H651 H 0.03289 0.4713 0.53811 0.0
H652 H 0.02945 0.45753 0.74324 0.0
H653 H 0.98274 0.47686 0.75012 0.0
C654 C 0.9548 0.49879 0.65196 0.0
C655 C 0.94189 0.50844 0.59594 0.0
C656 C 0.98077 0.48592 0.64826 0.0
C657 C 0.95574 0.50496 0.53658 0.0
C658 C 0.98194 0.49307 0.53277 0.0
C659 C 0.02173 0.47206 0.58447 0.0
C660 C 0.03512 0.46264 0.6401 0.0
C661 C 0.99478 0.48349 0.58818 0.0
C662 C 0.01983 0.46404 0.69936 0.0
C663 C 0.99319 0.47553 0.70341 0.0
H664 H 0.46002 0.9217 0.51586 0.0
H665 H 0.43052 0.95771 0.68796 0.0
H666 H 0.49542 0.00633 0.70379 0.0
H667 H 0.56119 0.04134 0.66687 0.0
H668 H 0.59023 0.00686 0.49264 0.0
H669 H 0.52611 0.9557 0.48044 0.0
C670 C 0.46767 0.94001 0.55708 0.0
C671 C 0.43954 0.93557 0.60036 0.0
C672 C 0.5056 0.96861 0.56586 0.0
C673 C 0.45082 0.9601 0.65326 0.0
C674 C 0.48828 0.9881 0.66256 0.0
C675 C 0.55378 0.02225 0.62682 0.0
C676 C 0.58145 0.02823 0.58127 0.0
C677 C 0.51605 0.99297 0.61902 0.0
C678 C 0.5703 1.00327 0.52902 0.0
C679 C 0.53326 0.97388 0.52174 0.0
H680 H 0.5077 0.56094 0.66041 0.0
H681 H 0.57388 0.59203 0.48887 0.0
H682 H 0.56013 0.52766 0.47611 0.0
H683 H 0.52877 0.46135 0.51235 0.0
H684 H 0.46206 0.42982 0.68323 0.0
H685 H 0.47648 0.49445 0.69697 0.0
C686 C 0.51944 0.55383 0.62045 0.0
C687 C 0.54226 0.58222 0.57605 0.0
C688 C 0.51112 0.51606 0.61289 0.0
C689 C 0.55653 0.57154 0.52431 0.0
C690 C 0.54855 0.53438 0.51679 0.0
C691 C 0.51733 0.46844 0.55279 0.0
C692 C 0.49412 0.43986 0.59662 0.0
C693 C 0.52578 0.50621 0.56058 0.0
C694 C 0.47985 0.45048 0.64841 0.0
C695 C 0.48817 0.48778 0.65642 0.0
H696 H 0.578 0.25685 0.31299 0.0
H697 H 0.6684 0.25391 0.21908 0.0
H698 H 0.6983 0.25926 0.32167 0.0
H699 H 0.69236 0.25284 0.43617 0.0
H700 H 0.59727 0.24647 0.52892 0.0
H701 H 0.58029 0.26573 0.43013 0.0
C702 C 0.60544 0.25992 0.31484 0.0
C703 C 0.62078 0.25447 0.2592 0.0
C704 C 0.62293 0.26387 0.37398 0.0
C705 C 0.65608 0.25799 0.26158 0.0
C706 C 0.67342 0.26141 0.32029 0.0
C707 C 0.66803 0.25586 0.43556 0.0
C708 C 0.64289 0.24281 0.48685 0.0
C709 C 0.65617 0.26253 0.37687 0.0
C710 C 0.61534 0.25308 0.48791 0.0
C711 C 0.60507 0.26335 0.43094 0.0
H712 H 0.35532 0.6383 0.3995 0.0
H713 H 0.29448 0.5197 0.43618 0.0
H714 H 0.30997 0.53055 0.54939 0.0
H715 H 0.36078 0.57144 0.62173 0.0
H716 H 0.42985 0.68702 0.578 0.0
H717 H 0.38906 0.68182 0.48915 0.0
C718 C 0.34452 0.61487 0.43244 0.0
C719 C 0.32604 0.57802 0.40895 0.0
C720 C 0.35512 0.62137 0.49688 0.0
C721 C 0.31073 0.54811 0.45264 0.0
C722 C 0.31919 0.55438 0.51767 0.0
C723 C 0.36602 0.5958 0.59384 0.0
C724 C 0.40217 0.62697 0.59335 0.0
C725 C 0.3446 0.59057 0.53861 0.0
C726 C 0.40522 0.6602 0.56896 0.0
C727 C 0.3821 0.65724 0.51762 0.0
H728 H 0.75589 0.3082 0.26868 0.0
H729 H 0.75733 0.3969 0.15652 0.0
H730 H 0.74244 0.42051 0.25074 0.0
H731 H 0.74428 0.42479 0.36743 0.0
H732 H 0.751 0.34119 0.48105 0.0
H733 H 0.74926 0.30774 0.38444 0.0
C734 C 0.75258 0.33249 0.26471 0.0
C735 C 0.75988 0.3521 0.20664 0.0
C736 C 0.74601 0.34714 0.31978 0.0
C737 C 0.75273 0.38174 0.20111 0.0
C738 C 0.74438 0.39545 0.2552 0.0
C739 C 0.74363 0.39831 0.37084 0.0
C740 C 0.74838 0.3857 0.43049 0.0
C741 C 0.7432 0.37968 0.3152 0.0
C742 C 0.74734 0.35138 0.43526 0.0
C743 C 0.74652 0.33234 0.38002 0.0
H744 H 0.37563 0.71177 0.40051 0.0
H745 H 0.29991 0.74477 0.32328 0.0
H746 H 0.30612 0.72476 0.21717 0.0
H747 H 0.34728 0.71791 0.14563 0.0
H748 H 0.43719 0.70583 0.22152 0.0
H749 H 0.40892 0.6928 0.32761 0.0
C750 C 0.35966 0.71354 0.36078 0.0
C751 C 0.33842 0.73092 0.36915 0.0
C752 C 0.36579 0.70486 0.29918 0.0
C753 C 0.31785 0.73311 0.3174 0.0
C754 C 0.32098 0.72115 0.25688 0.0
C755 C 0.36005 0.71103 0.18487 0.0
C756 C 0.39577 0.71604 0.17763 0.0
C757 C 0.3471 0.70989 0.24663 0.0
C758 C 0.41063 0.70433 0.22721 0.0
C759 C 0.39484 0.69767 0.28808 0.0
H760 H 0.56101 0.30611 0.33315 0.0
H761 H 0.66447 0.39078 0.41744 0.0
H762 H 0.69082 0.41038 0.31245 0.0
H763 H 0.68055 0.41355 0.20028 0.0
H764 H 0.57213 0.33963 0.1205 0.0
H765 H 0.5551 0.30069 0.21604 0.0
C766 C 0.58999 0.32763 0.3286 0.0
C767 C 0.61012 0.34829 0.38249 0.0
C768 C 0.60541 0.33891 0.2677 0.0
C769 C 0.6481 0.37472 0.37658 0.0
C770 C 0.66374 0.38562 0.31632 0.0
C771 C 0.65344 0.38843 0.2035 0.0
C772 C 0.62624 0.38167 0.15734 0.0
C773 C 0.642 0.36957 0.26174 0.0
C774 C 0.59288 0.34694 0.15783 0.0
C775 C 0.58277 0.32497 0.21308 0.0
H776 H 0.24345 0.68121 0.3462 0.0
H777 H 0.24988 0.58762 0.27124 0.0
H778 H 0.26129 0.57245 0.37831 0.0
H779 H 0.26284 0.58198 0.493 0.0
H780 H 0.24664 0.66851 0.56748 0.0
H781 H 0.25699 0.69739 0.46153 0.0
C782 C 0.24926 0.65865 0.35293 0.0
C783 C 0.24574 0.63543 0.30137 0.0
C784 C 0.25802 0.65135 0.41395 0.0
C785 C 0.25294 0.60608 0.31041 0.0
C786 C 0.26047 0.59791 0.37136 0.0
C787 C 0.26203 0.60752 0.48604 0.0
C788 C 0.24561 0.61883 0.53259 0.0
C789 C 0.2623 0.61985 0.42354 0.0
C790 C 0.2537 0.65616 0.52835 0.0
C791 C 0.25813 0.67195 0.46733 0.0
H792 H 0.41563 0.86169 0.69646 0.0
H793 H 0.35433 0.86128 0.86277 0.0
H794 H 0.40558 0.86876 0.93219 0.0
H795 H 0.46393 0.86899 0.94431 0.0
H796 H 0.52375 0.86618 0.7784 0.0
H797 H 0.47649 0.86715 0.7083 0.0
C798 C 0.41342 0.86318 0.748 0.0
C799 C 0.38112 0.85997 0.77525 0.0
C800 C 0.44241 0.86697 0.78673 0.0
C801 C 0.37893 0.86329 0.84145 0.0
C802 C 0.40805 0.86747 0.88074 0.0
C803 C 0.46664 0.86859 0.8927 0.0
C804 C 0.49641 0.86649 0.86585 0.0
C805 C 0.4393 0.86829 0.85374 0.0
C806 C 0.50068 0.86744 0.79942 0.0
C807 C 0.47369 0.86778 0.75978 0.0
H808 H 0.57028 0.36682 0.76549 0.0
H809 H 0.4799 0.38236 0.8245 0.0
H810 H 0.52277 0.43576 0.89074 0.0
H811 H 0.58677 0.48068 0.92467 0.0
H812 H 0.67619 0.46214 0.87244 0.0
H813 H 0.63306 0.40773 0.80812 0.0
C814 C 0.55996 0.38148 0.79408 0.0
C815 C 0.52231 0.37108 0.79041 0.0
C816 C 0.5847 0.41217 0.83103 0.0
C817 C 0.50884 0.38981 0.82753 0.0
C818 C 0.53339 0.42066 0.86435 0.0
C819 C 0.59671 0.46493 0.89823 0.0
C820 C 0.63439 0.47547 0.9013 0.0
C821 C 0.57151 0.43272 0.86475 0.0
C822 C 0.64718 0.45446 0.86936 0.0
C823 C 0.62258 0.42331 0.8334 0.0
H824 H 0.23446 0.609 0.73611 0.0
H825 H 0.11964 0.55214 0.67655 0.0
H826 H 0.11272 0.60385 0.71515 0.0
H827 H 0.13271 0.65112 0.7988 0.0
H828 H 0.24228 0.69647 0.88072 0.0
H829 H 0.25913 0.66623 0.79896 0.0
C830 C 0.20855 0.60897 0.72946 0.0
C831 C 0.17728 0.57697 0.70621 0.0
C832 C 0.20399 0.63714 0.75679 0.0
C833 C 0.14368 0.57657 0.69652 0.0
C834 C 0.13975 0.60602 0.71855 0.0
C835 C 0.16076 0.65572 0.79639 0.0
C836 C 0.18604 0.67515 0.84564 0.0
C837 C 0.16865 0.63457 0.75414 0.0
C838 C 0.22242 0.68137 0.8429 0.0
C839 C 0.23186 0.66355 0.79677 0.0
H840 H 0.58555 0.14318 0.68702 0.0
H841 H 0.6726 0.25364 0.74008 0.0
H842 H 0.62779 0.26328 0.80089 0.0
H843 H 0.5666 0.23514 0.85336 0.0
H844 H 0.47991 0.12467 0.79784 0.0
H845 H 0.52142 0.12079 0.72043 0.0
C846 C 0.59438 0.16972 0.71056 0.0
C847 C 0.63206 0.19746 0.7106 0.0
C848 C 0.56859 0.17498 0.74449 0.0
C849 C 0.64356 0.23192 0.74025 0.0
C850 C 0.61803 0.23732 0.77496 0.0
C851 C 0.55655 0.2107 0.8229 0.0
C852 C 0.52077 0.17978 0.83241 0.0
C853 C 0.58083 0.20835 0.77958 0.0
C854 C 0.50754 0.14864 0.79182 0.0
C855 C 0.53137 0.14622 0.74807 0.0
H856 H 0.42872 0.62829 0.72915 0.0
H857 H 0.52003 0.68859 0.86127 0.0
H858 H 0.47909 0.65476 0.95123 0.0
H859 H 0.41976 0.60276 0.98975 0.0
H860 H 0.33117 0.53808 0.85511 0.0
H861 H 0.36866 0.57933 0.76798 0.0
C862 C 0.43956 0.63459 0.77771 0.0
C863 C 0.47732 0.66063 0.78882 0.0
C864 C 0.41642 0.61401 0.82834 0.0
C865 C 0.49108 0.66834 0.85181 0.0
C866 C 0.46772 0.649 0.90303 0.0
C867 C 0.40842 0.59821 0.94152 0.0
C868 C 0.37291 0.56754 0.92845 0.0
C869 C 0.43069 0.62096 0.89155 0.0
C870 C 0.35857 0.5615 0.86587 0.0
C871 C 0.37997 0.58498 0.81624 0.0
H872 H 0.78361 0.33462 0.88212 0.0
H873 H 0.89315 0.36594 0.81334 0.0
H874 H 0.89894 0.42266 0.76576 0.0
H875 H 0.87548 0.46616 0.75375 0.0
H876 H 0.76606 0.43496 0.8222 0.0
H877 H 0.75798 0.3755 0.86199 0.0
C878 C 0.8085 0.3535 0.8557 0.0
C879 C 0.83812 0.34639 0.85206 0.0
C880 C 0.81212 0.38652 0.83046 0.0
C881 C 0.86996 0.37078 0.8169 0.0
C882 C 0.8735 0.40347 0.79048 0.0
C883 C 0.85007 0.4465 0.77818 0.0
C884 C 0.82179 0.45513 0.78713 0.0
C885 C 0.84534 0.41222 0.79917 0.0
C886 C 0.78841 0.42899 0.81627 0.0
C887 C 0.78371 0.395 0.83838 0.0
H888 H 0.48516 0.19033 0.24946 0.0
H889 H 0.46411 0.27428 0.17157 0.0
H890 H 0.46257 0.29569 0.27972 0.0
H891 H 0.46468 0.29009 0.40006 0.0
H892 H 0.4866 0.20697 0.47887 0.0
H893 H 0.48969 0.1863 0.37045 0.0
C894 C 0.47987 0.21299 0.25532 0.0
C895 C 0.4742 0.22957 0.1987 0.0
C896 C 0.47901 0.22575 0.32001 0.0
C897 C 0.46847 0.25998 0.21129 0.0
C898 C 0.46748 0.2725 0.27442 0.0
C899 C 0.47048 0.26773 0.39438 0.0
C900 C 0.47547 0.25087 0.45116 0.0
C901 C 0.47236 0.25558 0.32984 0.0
C902 C 0.48252 0.22129 0.43888 0.0
C903 C 0.48433 0.20919 0.37564 0.0
H904 H 0.18716 0.49472 0.44684 0.0
H905 H 0.24247 0.43627 0.51275 0.0
H906 H 0.26068 0.43316 0.40292 0.0
H907 H 0.26263 0.44749 0.28531 0.0
H908 H 0.20918 0.50722 0.21818 0.0
H909 H 0.18947 0.50934 0.32791 0.0
C910 C 0.20307 0.48111 0.43778 0.0
C911 C 0.21291 0.46559 0.49115 0.0
C912 C 0.21448 0.4799 0.37249 0.0
C913 C 0.23404 0.44862 0.47517 0.0
C914 C 0.24457 0.44669 0.41126 0.0
C915 C 0.24711 0.46147 0.2942 0.0
C916 C 0.2384 0.47771 0.24082 0.0
C917 C 0.23544 0.46252 0.35906 0.0
C918 C 0.21693 0.49444 0.25603 0.0
C919 C 0.20549 0.4957 0.31984 0.0
H920 H 0.7138 0.18801 0.39576 0.0
H921 H 0.82387 0.22168 0.4659 0.0
H922 H 0.84833 0.2391 0.35745 0.0
H923 H 0.83985 0.24404 0.23852 0.0
H924 H 0.73052 0.2115 0.16704 0.0
H925 H 0.70555 0.19412 0.27583 0.0
C926 C 0.74306 0.1984 0.38783 0.0
C927 C 0.76625 0.20217 0.44233 0.0
C928 C 0.75773 0.20911 0.32293 0.0
C929 C 0.80446 0.21762 0.42767 0.0
C930 C 0.81881 0.22783 0.36441 0.0
C931 C 0.81074 0.23431 0.24632 0.0
C932 C 0.78792 0.23066 0.19159 0.0
C933 C 0.79601 0.2239 0.31098 0.0
C934 C 0.74967 0.21548 0.2057 0.0
C935 C 0.73508 0.20531 0.26911 0.0
H936 H 0.57874 0.83494 0.23197 0.0
H937 H 0.51151 0.7228 0.16158 0.0
H938 H 0.50475 0.69865 0.27149 0.0
H939 H 0.51667 0.70884 0.39213 0.0
H940 H 0.58195 0.82208 0.46048 0.0
H941 H 0.58908 0.84531 0.35075 0.0
C942 C 0.5613 0.80531 0.24027 0.0
C943 C 0.54462 0.7814 0.18579 0.0
C944 C 0.5571 0.79128 0.30535 0.0
C945 C 0.52465 0.74266 0.20022 0.0
C946 C 0.52065 0.72863 0.2642 0.0
C947 C 0.53294 0.73863 0.38347 0.0
C948 C 0.54925 0.7632 0.43769 0.0
C949 C 0.53667 0.7525 0.31796 0.0
C950 C 0.5689 0.8018 0.42237 0.0
C951 C 0.57308 0.81539 0.35848 0.0
H952 H 0.83476 0.58038 0.43018 0.0
H953 H 0.72393 0.51461 0.50423 0.0
H954 H 0.69854 0.50693 0.39507 0.0
H955 H 0.70683 0.51716 0.27386 0.0
H956 H 0.81743 0.5875 0.202 0.0
H957 H 0.84266 0.59259 0.31015 0.0
C958 C 0.80498 0.56378 0.42312 0.0
C959 C 0.78196 0.54764 0.47904 0.0
C960 C 0.78994 0.5599 0.35813 0.0
C961 C 0.74326 0.52761 0.46517 0.0
C962 C 0.72845 0.52304 0.40138 0.0
C963 C 0.73631 0.53506 0.2814 0.0
C964 C 0.75928 0.55314 0.22604 0.0
C965 C 0.75126 0.53909 0.34666 0.0
C966 C 0.79796 0.57329 0.24043 0.0
C967 C 0.81275 0.57648 0.30376 0.0
H968 H 0.18154 0.70486 0.25695 0.0
H969 H 0.27684 0.80342 0.18289 0.0
H970 H 0.29798 0.82512 0.29194 0.0
H971 H 0.28947 0.81796 0.41108 0.0
H972 H 0.19591 0.71944 0.48736 0.0
H973 H 0.17468 0.69655 0.37803 0.0
C974 C 0.20697 0.73094 0.26392 0.0
C975 C 0.22692 0.75189 0.20822 0.0
C976 C 0.2196 0.74374 0.32905 0.0
C977 C 0.2601 0.78589 0.22197 0.0
C978 C 0.27244 0.79865 0.28551 0.0
C979 C 0.26472 0.79147 0.40463 0.0
C980 C 0.24517 0.77117 0.46065 0.0
C981 C 0.25247 0.77812 0.33994 0.0
C982 C 0.21242 0.73656 0.44773 0.0
C983 C 0.20003 0.72322 0.38407 0.0
H984 H 0.59316 0.76164 0.72672 0.0
H985 H 0.49968 0.77271 0.66917 0.0
H986 H 0.49189 0.78651 0.78026 0.0
H987 H 0.50906 0.79248 0.89796 0.0
H988 H 0.60467 0.78528 0.9553 0.0
H989 H 0.61226 0.77099 0.84433 0.0
C990 C 0.571 0.76705 0.73787 0.0
C991 C 0.54689 0.76543 0.68646 0.0
C992 C 0.56662 0.77545 0.80391 0.0
C993 C 0.51898 0.77345 0.70503 0.0
C994 C 0.51432 0.78127 0.76977 0.0
C995 C 0.53293 0.78998 0.88646 0.0
C996 C 0.55744 0.7925 0.93783 0.0
C997 C 0.53782 0.78237 0.8203 0.0
C998 C 0.58558 0.7848 0.91926 0.0
C999 C 0.59008 0.77659 0.85459 0.0
H1000 H 0.74666 0.56345 0.73161 0.0
H1001 H 0.85071 0.56872 0.75889 0.0
H1002 H 0.84284 0.56352 0.87341 0.0
H1003 H 0.80467 0.55665 0.97378 0.0
H1004 H 0.71882 0.58291 0.94699 0.0
H1005 H 0.72031 0.57709 0.83219 0.0
C1006 C 0.76782 0.56323 0.76178 0.0
C1007 C 0.79801 0.56152 0.73131 0.0
C1008 C 0.76524 0.56539 0.83178 0.0
C1009 C 0.82522 0.56477 0.77616 0.0
C1010 C 0.82104 0.56302 0.844 0.0
C1011 C 0.78593 0.56106 0.94366 0.0
C1012 C 0.75743 0.56565 0.97415 0.0
C1013 C 0.7906 0.56256 0.8737 0.0
C1014 C 0.73708 0.57432 0.92946 0.0
C1015 C 0.73895 0.5721 0.86156 0.0
H1016 H 0.29144 0.78495 0.74934 0.0
H1017 H 0.18935 0.77878 0.69018 0.0
H1018 H 0.1678 0.76708 0.80174 0.0
H1019 H 0.17729 0.75859 0.92041 0.0
H1020 H 0.27989 0.76481 0.97762 0.0
H1021 H 0.30227 0.77961 0.86724 0.0
C1022 C 0.26514 0.78281 0.7604 0.0
C1023 C 0.24326 0.78478 0.70829 0.0
C1024 C 0.2527 0.77628 0.82669 0.0
C1025 C 0.20779 0.77838 0.72664 0.0
C1026 C 0.1953 0.77169 0.79168 0.0
C1027 C 0.20447 0.7627 0.90919 0.0
C1028 C 0.22589 0.75879 0.96032 0.0
C1029 C 0.21733 0.77049 0.84291 0.0
C1030 C 0.26178 0.7665 0.9419 0.0
C1031 C 0.27477 0.77492 0.87749 0.0
H1032 H 0.51409 0.29056 0.73686 0.0
H1033 H 0.40889 0.19569 0.6834 0.0
H1034 H 0.3991 0.17368 0.79508 0.0
H1035 H 0.41964 0.18117 0.91233 0.0
H1036 H 0.52296 0.27907 0.96535 0.0
H1037 H 0.53274 0.30016 0.85367 0.0
C1038 C 0.48823 0.26577 0.74937 0.0
C1039 C 0.46173 0.24601 0.69905 0.0
C1040 C 0.48213 0.25351 0.8158 0.0
C1041 C 0.42992 0.21238 0.71871 0.0
C1042 C 0.42417 0.19969 0.78374 0.0
C1043 C 0.44428 0.20734 0.90003 0.0
C1044 C 0.47065 0.22802 0.95028 0.0
C1045 C 0.44986 0.21997 0.83355 0.0
C1046 C 0.50192 0.262 0.93031 0.0
C1047 C 0.50773 0.27416 0.86526 0.0
H1048 H 0.19675 0.49987 0.78283 0.0
H1049 H 0.24592 0.43578 0.71989 0.0
H1050 H 0.2649 0.43338 0.83068 0.0
H1051 H 0.26593 0.44728 0.94911 0.0
H1052 H 0.2139 0.50871 1.01165 0.0
H1053 H 0.19743 0.51331 0.90049 0.0
C1054 C 0.21146 0.48516 0.79225 0.0
C1055 C 0.21865 0.46737 0.73952 0.0
C1056 C 0.22198 0.48321 0.85813 0.0
C1057 C 0.23902 0.44959 0.7567 0.0
C1058 C 0.24993 0.44804 0.82128 0.0
C1059 C 0.25151 0.46217 0.93931 0.0
C1060 C 0.24235 0.47821 0.99234 0.0
C1061 C 0.24137 0.46441 0.87317 0.0
C1062 C 0.22218 0.49612 0.97474 0.0
C1063 C 0.2127 0.49895 0.90993 0.0
H1064 H 0.71923 0.19279 0.73703 0.0
H1065 H 0.82764 0.22268 0.66873 0.0
H1066 H 0.85189 0.23793 0.77892 0.0
H1067 H 0.84264 0.24224 0.89851 0.0
H1068 H 0.73254 0.20962 0.96463 0.0
H1069 H 0.70926 0.19551 0.85442 0.0
C1070 C 0.74801 0.20235 0.74505 0.0
C1071 C 0.77058 0.20545 0.69106 0.0
C1072 C 0.76192 0.21071 0.81037 0.0
C1073 C 0.80852 0.21915 0.70662 0.0
C1074 C 0.82262 0.22789 0.77085 0.0
C1075 C 0.81348 0.23214 0.88962 0.0
C1076 C 0.78994 0.22795 0.94322 0.0
C1077 C 0.79966 0.22364 0.82392 0.0
C1078 C 0.75208 0.21377 0.9271 0.0
C1079 C 0.73855 0.20578 0.8629 0.0
loop_
_geom_bond_atom_site_label_1
_geom_bond_atom_site_label_2
_geom_bond_distance
_geom_bond_site_symmetry_2
_ccdc_geom_bond_type
Zn0 N4 2.020 . S
Zn0 O8 2.019 . S
Zn0 N10 2.119 . S
Zn0 O18 1.975 . S
C1 N2 1.334 . S
C1 N5 1.336 . S
N2 C1 1.334 . S
N2 C3 1.333 1_554 S
C3 N2 1.333 1_556 S
C3 N4 1.336 . S
N4 Zn0 2.020 . S
N4 C3 1.336 . S
N4 N5 1.354 1_556 S
N5 C1 1.336 . S
N5 N4 1.354 1_554 S
N5 Zn9 2.020 . S
C6 O7 1.244 . S
C6 O30 1.257 . S
O7 C6 1.244 . S
O8 Zn0 2.019 . S
O8 C28 1.257 . S
Zn9 N5 2.020 . S
Zn9 O16 1.975 . S
Zn9 N25 2.119 . S
Zn9 O30 2.019 . S
N10 Zn0 2.119 . S
N10 C12 1.334 . S
N10 C13 1.328 . S
C11 C12 1.391 . S
C11 N14 1.329 . S
C11 H32 0.930 . S
C12 N10 1.334 . S
C12 C11 1.391 . S
C12 H19 0.930 . S
C13 N10 1.328 . S
C13 C15 1.392 . S
C13 H20 0.930 . S
N14 C11 1.329 . S
N14 C15 1.331 . S
C15 C13 1.392 . S
C15 N14 1.331 . S
O16 Zn9 1.975 . S
O16 C17 1.252 . S
C17 O16 1.252 . S
C17 O18 1.252 1_554 S
O18 Zn0 1.975 . S
O18 C17 1.252 1_556 S
H19 C12 0.930 . S
H20 C13 0.930 . S
C21 C22 1.392 . S
C21 N25 1.328 . S
C21 H27 0.930 . S
C22 C21 1.392 . S
C22 N26 1.331 . S
C23 C24 1.391 . S
C23 N26 1.329 . S
C23 H33 0.930 . S
C24 C23 1.391 . S
C24 N25 1.334 . S
C24 H31 0.930 . S
N25 Zn9 2.119 . S
N25 C21 1.328 . S
N25 C24 1.334 . S
N26 C22 1.331 . S
N26 C23 1.329 . S
H27 C21 0.930 . S
C28 O8 1.257 . S
C28 O29 1.244 . S
O29 C28 1.244 . S
O30 C6 1.257 . S
O30 Zn9 2.019 . S
H31 C24 0.930 . S
H32 C11 0.930 . S
H33 C23 0.930 . S
Zn34 N38 2.020 . S
Zn34 O42 2.019 . S
Zn34 N44 2.119 . S
Zn34 O52 1.975 . S
C35 N36 1.334 . S
C35 N39 1.336 . S
N36 C35 1.334 . S
N36 C37 1.333 1_554 S
C37 N36 1.333 1_556 S
C37 N38 1.336 . S
N38 Zn34 2.020 . S
N38 C37 1.336 . S
N38 N39 1.354 1_556 S
N39 C35 1.336 . S
N39 N38 1.354 1_554 S
N39 Zn43 2.020 . S
C40 O41 1.244 . S
C40 O64 1.257 . S
O41 C40 1.244 . S
O42 Zn34 2.019 . S
O42 C62 1.257 . S
Zn43 N39 2.020 . S
Zn43 O50 1.975 . S
Zn43 N59 2.119 . S
Zn43 O64 2.019 . S
N44 Zn34 2.119 . S
N44 C46 1.334 . S
N44 C47 1.328 . S
C45 C46 1.391 . S
C45 N48 1.329 . S
C45 H66 0.930 . S
C46 N44 1.334 . S
C46 C45 1.391 . S
C46 H53 0.930 . S
C47 N44 1.328 . S
C47 C49 1.392 . S
C47 H54 0.930 . S
N48 C45 1.329 . S
N48 C49 1.331 . S
C49 C47 1.392 . S
C49 N48 1.331 . S
O50 Zn43 1.975 . S
O50 C51 1.252 . S
C51 O50 1.252 . S
C51 O52 1.252 1_554 S
O52 Zn34 1.975 . S
O52 C51 1.252 1_556 S
H53 C46 0.930 . S
H54 C47 0.930 . S
C55 C56 1.392 . S
C55 N59 1.328 . S
C55 H61 0.930 . S
C56 C55 1.392 . S
C56 N60 1.331 . S
C57 C58 1.391 . S
C57 N60 1.329 . S
C57 H67 0.930 . S
C58 C57 1.391 . S
C58 N59 1.334 . S
C58 H65 0.930 . S
N59 Zn43 2.119 . S
N59 C55 1.328 . S
N59 C58 1.334 . S
N60 C56 1.331 . S
N60 C57 1.329 . S
H61 C55 0.930 . S
C62 O42 1.257 . S
C62 O63 1.244 . S
O63 C62 1.244 . S
O64 C40 1.257 . S
O64 Zn43 2.019 . S
H65 C58 0.930 . S
H66 C45 0.930 . S
H67 C57 0.930 . S
Zn68 N72 2.020 . S
Zn68 O76 2.019 . S
Zn68 N78 2.119 . S
Zn68 O86 1.975 . S
C69 N70 1.334 . S
C69 N73 1.336 . S
N70 C69 1.334 . S
N70 C71 1.333 1_554 S
C71 N70 1.333 1_556 S
C71 N72 1.336 . S
N72 Zn68 2.020 . S
N72 C71 1.336 . S
N72 N73 1.354 1_556 S
N73 C69 1.336 . S
N73 N72 1.354 1_554 S
N73 Zn77 2.020 . S
C74 O75 1.244 . S
C74 O98 1.257 . S
O75 C74 1.244 . S
O76 Zn68 2.019 . S
O76 C96 1.257 . S
Zn77 N73 2.020 . S
Zn77 O84 1.975 . S
Zn77 N93 2.119 . S
Zn77 O98 2.019 . S
N78 Zn68 2.119 . S
N78 C80 1.334 . S
N78 C81 1.328 . S
C79 C80 1.391 . S
C79 N82 1.329 . S
C79 H100 0.930 . S
C80 N78 1.334 . S
C80 C79 1.391 . S
C80 H87 0.930 . S
C81 N78 1.328 . S
C81 C83 1.392 . S
C81 H88 0.930 . S
N82 C79 1.329 . S
N82 C83 1.331 . S
C83 C81 1.392 . S
C83 N82 1.331 . S
O84 Zn77 1.975 . S
O84 C85 1.252 . S
C85 O84 1.252 . S
C85 O86 1.252 1_554 S
O86 Zn68 1.975 . S
O86 C85 1.252 1_556 S
H87 C80 0.930 . S
H88 C81 0.930 . S
C89 C90 1.392 . S
C89 N93 1.328 . S
C89 H95 0.930 . S
C90 C89 1.392 . S
C90 N94 1.331 . S
C91 C92 1.391 . S
C91 N94 1.329 . S
C91 H101 0.930 . S
C92 C91 1.391 . S
C92 N93 1.334 . S
C92 H99 0.930 . S
N93 Zn77 2.119 . S
N93 C89 1.328 . S
N93 C92 1.334 . S
N94 C90 1.331 . S
N94 C91 1.329 . S
H95 C89 0.930 . S
C96 O76 1.257 . S
C96 O97 1.244 . S
O97 C96 1.244 . S
O98 C74 1.257 . S
O98 Zn77 2.019 . S
H99 C92 0.930 . S
H100 C79 0.930 . S
H101 C91 0.930 . S
Zn102 N106 2.020 . S
Zn102 O110 2.019 . S
Zn102 N112 2.119 . S
Zn102 O120 1.975 . S
C103 N104 1.333 1_556 S
C103 N107 1.336 . S
N104 C103 1.333 1_554 S
N104 C105 1.334 . S
C105 N104 1.334 . S
C105 N106 1.336 . S
N106 Zn102 2.020 . S
N106 C105 1.336 . S
N106 N107 1.354 1_554 S
N107 C103 1.336 . S
N107 N106 1.354 1_556 S
N107 Zn111 2.020 . S
C108 O109 1.244 . S
C108 O132 1.257 . S
O109 C108 1.244 . S
O110 Zn102 2.019 . S
O110 C130 1.257 . S
Zn111 N107 2.020 . S
Zn111 O118 1.975 . S
Zn111 N127 2.119 . S
Zn111 O132 2.019 . S
N112 Zn102 2.119 . S
N112 C114 1.334 . S
N112 C115 1.328 . S
C113 C114 1.391 . S
C113 N116 1.329 . S
C113 H134 0.930 . S
C114 N112 1.334 . S
C114 C113 1.391 . S
C114 H121 0.930 . S
C115 N112 1.328 . S
C115 C117 1.392 . S
C115 H122 0.930 . S
N116 C113 1.329 . S
N116 C117 1.331 . S
C117 C115 1.392 . S
C117 N116 1.331 . S
O118 Zn111 1.975 . S
O118 C119 1.252 1_556 S
C119 O118 1.252 1_554 S
C119 O120 1.252 . S
O120 Zn102 1.975 . S
O120 C119 1.252 . S
H121 C114 0.930 . S
H122 C115 0.930 . S
C123 C124 1.392 . S
C123 N127 1.328 . S
C123 H129 0.930 . S
C124 C123 1.392 . S
C124 N128 1.331 . S
C125 C126 1.391 . S
C125 N128 1.329 . S
C125 H135 0.930 . S
C126 C125 1.391 . S
C126 N127 1.334 . S
C126 H133 0.930 . S
N127 Zn111 2.119 . S
N127 C123 1.328 . S
N127 C126 1.334 . S
N128 C124 1.331 . S
N128 C125 1.329 . S
H129 C123 0.930 . S
C130 O110 1.257 . S
C130 O131 1.244 . S
O131 C130 1.244 . S
O132 C108 1.257 . S
O132 Zn111 2.019 . S
H133 C126 0.930 . S
H134 C113 0.930 . S
H135 C125 0.930 . S
Zn136 N140 2.020 . S
Zn136 O144 2.019 . S
Zn136 N146 2.119 . S
Zn136 O154 1.975 . S
C137 N138 1.334 . S
C137 N141 1.336 . S
N138 C137 1.334 . S
N138 C139 1.333 1_554 S
C139 N138 1.333 1_556 S
C139 N140 1.336 . S
N140 Zn136 2.020 . S
N140 C139 1.336 . S
N140 N141 1.354 1_556 S
N141 C137 1.336 . S
N141 N140 1.354 1_554 S
N141 Zn145 2.020 . S
C142 O143 1.244 . S
C142 O166 1.257 . S
O143 C142 1.244 . S
O144 Zn136 2.019 . S
O144 C164 1.257 . S
Zn145 N141 2.020 . S
Zn145 O152 1.975 . S
Zn145 N161 2.119 . S
Zn145 O166 2.019 . S
N146 Zn136 2.119 . S
N146 C148 1.334 . S
N146 C149 1.328 . S
C147 C148 1.391 . S
C147 N150 1.329 . S
C147 H168 0.930 . S
C148 N146 1.334 . S
C148 C147 1.391 . S
C148 H155 0.930 . S
C149 N146 1.328 . S
C149 C151 1.392 . S
C149 H156 0.930 . S
N150 C147 1.329 . S
N150 C151 1.331 . S
C151 C149 1.392 . S
C151 N150 1.331 . S
O152 Zn145 1.975 . S
O152 C153 1.252 . S
C153 O152 1.252 . S
C153 O154 1.252 1_554 S
O154 Zn136 1.975 . S
O154 C153 1.252 1_556 S
H155 C148 0.930 . S
H156 C149 0.930 . S
C157 C158 1.392 . S
C157 N161 1.328 . S
C157 H163 0.930 . S
C158 C157 1.392 . S
C158 N162 1.331 . S
C159 C160 1.391 . S
C159 N162 1.329 . S
C159 H169 0.930 . S
C160 C159 1.391 . S
C160 N161 1.334 . S
C160 H167 0.930 . S
N161 Zn145 2.119 . S
N161 C157 1.328 . S
N161 C160 1.334 . S
N162 C158 1.331 . S
N162 C159 1.329 . S
H163 C157 0.930 . S
C164 O144 1.257 . S
C164 O165 1.244 . S
O165 C164 1.244 . S
O166 C142 1.257 . S
O166 Zn145 2.019 . S
H167 C160 0.930 . S
H168 C147 0.930 . S
H169 C159 0.930 . S
Zn170 N174 2.020 . S
Zn170 O178 2.019 . S
Zn170 N180 2.119 . S
Zn170 O188 1.975 . S
C171 N172 1.333 1_556 S
C171 N175 1.336 . S
N172 C171 1.333 1_554 S
N172 C173 1.334 . S
C173 N172 1.334 . S
C173 N174 1.336 . S
N174 Zn170 2.020 . S
N174 C173 1.336 . S
N174 N175 1.354 1_554 S
N175 C171 1.336 . S
N175 N174 1.354 1_556 S
N175 Zn179 2.020 . S
C176 O177 1.244 . S
C176 O200 1.257 . S
O177 C176 1.244 . S
O178 Zn170 2.019 . S
O178 C198 1.257 . S
Zn179 N175 2.020 . S
Zn179 O186 1.975 . S
Zn179 N195 2.119 . S
Zn179 O200 2.019 . S
N180 Zn170 2.119 . S
N180 C182 1.334 . S
N180 C183 1.328 . S
C181 C182 1.391 . S
C181 N184 1.329 . S
C181 H202 0.930 . S
C182 N180 1.334 . S
C182 C181 1.391 . S
C182 H189 0.930 . S
C183 N180 1.328 . S
C183 C185 1.392 . S
C183 H190 0.930 . S
N184 C181 1.329 . S
N184 C185 1.331 . S
C185 C183 1.392 . S
C185 N184 1.331 . S
O186 Zn179 1.975 . S
O186 C187 1.252 1_556 S
C187 O186 1.252 1_554 S
C187 O188 1.252 . S
O188 Zn170 1.975 . S
O188 C187 1.252 . S
H189 C182 0.930 . S
H190 C183 0.930 . S
C191 C192 1.392 . S
C191 N195 1.328 . S
C191 H197 0.930 . S
C192 C191 1.392 . S
C192 N196 1.331 . S
C193 C194 1.391 . S
C193 N196 1.329 . S
C193 H203 0.930 . S
C194 C193 1.391 . S
C194 N195 1.334 . S
C194 H201 0.930 . S
N195 Zn179 2.119 . S
N195 C191 1.328 . S
N195 C194 1.334 . S
N196 C192 1.331 . S
N196 C193 1.329 . S
H197 C191 0.930 . S
C198 O178 1.257 . S
C198 O199 1.244 . S
O199 C198 1.244 . S
O200 C176 1.257 . S
O200 Zn179 2.019 . S
H201 C194 0.930 . S
H202 C181 0.930 . S
H203 C193 0.930 . S
Zn204 N208 2.020 . S
Zn204 O212 2.019 . S
Zn204 N214 2.119 . S
Zn204 O222 1.975 . S
C205 N206 1.334 . S
C205 N209 1.336 . S
N206 C205 1.334 . S
N206 C207 1.334 . S
C207 N206 1.334 . S
C207 N208 1.336 . S
N208 Zn204 2.020 . S
N208 C207 1.336 . S
N208 N209 1.354 . S
N209 C205 1.336 . S
N209 N208 1.354 . S
N209 Zn213 2.020 . S
C210 O211 1.244 . S
C210 O234 1.257 . S
O211 C210 1.244 . S
O212 Zn204 2.019 . S
O212 C232 1.257 . S
Zn213 N209 2.020 . S
Zn213 O220 1.975 . S
Zn213 N229 2.119 . S
Zn213 O234 2.019 . S
N214 Zn204 2.119 . S
N214 C216 1.334 . S
N214 C217 1.328 . S
C215 C216 1.391 . S
C215 N218 1.329 . S
C215 H236 0.930 . S
C216 N214 1.334 . S
C216 C215 1.391 . S
C216 H223 0.930 . S
C217 N214 1.328 . S
C217 C219 1.392 . S
C217 H224 0.930 . S
N218 C215 1.329 . S
N218 C219 1.331 . S
C219 C217 1.392 . S
C219 N218 1.331 . S
O220 Zn213 1.975 . S
O220 C221 1.252 . S
C221 O220 1.252 . S
C221 O222 1.252 . S
O222 Zn204 1.975 . S
O222 C221 1.252 . S
H223 C216 0.930 . S
H224 C217 0.930 . S
C225 C226 1.392 . S
C225 N229 1.328 . S
C225 H231 0.930 . S
C226 C225 1.392 . S
C226 N230 1.331 . S
C227 C228 1.391 . S
C227 N230 1.329 . S
C227 H237 0.930 . S
C228 C227 1.391 . S
C228 N229 1.334 . S
C228 H235 0.930 . S
N229 Zn213 2.119 . S
N229 C225 1.328 . S
N229 C228 1.334 . S
N230 C226 1.331 . S
N230 C227 1.329 . S
H231 C225 0.930 . S
C232 O212 1.257 . S
C232 O233 1.244 . S
O233 C232 1.244 . S
O234 C210 1.257 . S
O234 Zn213 2.019 . S
H235 C228 0.930 . S
H236 C215 0.930 . S
H237 C227 0.930 . S
Zn238 N242 2.020 . S
Zn238 O246 2.019 . S
Zn238 N248 2.119 . S
Zn238 O256 1.975 . S
C239 N240 1.334 . S
C239 N243 1.336 . S
N240 C239 1.334 . S
N240 C241 1.334 . S
C241 N240 1.334 . S
C241 N242 1.336 . S
N242 Zn238 2.020 . S
N242 C241 1.336 . S
N242 N243 1.354 . S
N243 C239 1.336 . S
N243 N242 1.354 . S
N243 Zn247 2.020 . S
C244 O245 1.244 . S
C244 O268 1.257 . S
O245 C244 1.244 . S
O246 Zn238 2.019 . S
O246 C266 1.257 . S
Zn247 N243 2.020 . S
Zn247 O254 1.975 . S
Zn247 N263 2.119 . S
Zn247 O268 2.019 . S
N248 Zn238 2.119 . S
N248 C250 1.334 . S
N248 C251 1.328 . S
C249 C250 1.391 . S
C249 N252 1.329 . S
C249 H270 0.930 . S
C250 N248 1.334 . S
C250 C249 1.391 . S
C250 H257 0.930 . S
C251 N248 1.328 . S
C251 C253 1.392 . S
C251 H258 0.930 . S
N252 C249 1.329 . S
N252 C253 1.331 . S
C253 C251 1.392 . S
C253 N252 1.331 . S
O254 Zn247 1.975 . S
O254 C255 1.252 . S
C255 O254 1.252 . S
C255 O256 1.252 . S
O256 Zn238 1.975 . S
O256 C255 1.252 . S
H257 C250 0.930 . S
H258 C251 0.930 . S
C259 C260 1.392 . S
C259 N263 1.328 . S
C259 H265 0.930 . S
C260 C259 1.392 . S
C260 N264 1.331 . S
C261 C262 1.391 . S
C261 N264 1.329 . S
C261 H271 0.930 . S
C262 C261 1.391 . S
C262 N263 1.334 . S
C262 H269 0.930 . S
N263 Zn247 2.119 . S
N263 C259 1.328 . S
N263 C262 1.334 . S
N264 C260 1.331 . S
N264 C261 1.329 . S
H265 C259 0.930 . S
C266 O246 1.257 . S
C266 O267 1.244 . S
O267 C266 1.244 . S
O268 C244 1.257 . S
O268 Zn247 2.019 . S
H269 C262 0.930 . S
H270 C249 0.930 . S
H271 C261 0.930 . S
Zn272 N276 2.020 . S
Zn272 O280 2.019 . S
Zn272 N282 2.119 . S
Zn272 O290 1.975 . S
C273 N274 1.334 . S
C273 N277 1.336 . S
N274 C273 1.334 . S
N274 C275 1.334 . S
C275 N274 1.334 . S
C275 N276 1.336 . S
N276 Zn272 2.020 . S
N276 C275 1.336 . S
N276 N277 1.354 . S
N277 C273 1.336 . S
N277 N276 1.354 . S
N277 Zn281 2.020 . S
C278 O279 1.244 . S
C278 O302 1.257 . S
O279 C278 1.244 . S
O280 Zn272 2.019 . S
O280 C300 1.257 . S
Zn281 N277 2.020 . S
Zn281 O288 1.975 . S
Zn281 N297 2.119 . S
Zn281 O302 2.019 . S
N282 Zn272 2.119 . S
N282 C284 1.334 . S
N282 C285 1.328 . S
C283 C284 1.391 . S
C283 N286 1.329 . S
C283 H304 0.930 . S
C284 N282 1.334 . S
C284 C283 1.391 . S
C284 H291 0.930 . S
C285 N282 1.328 . S
C285 C287 1.392 . S
C285 H292 0.930 . S
N286 C283 1.329 . S
N286 C287 1.331 . S
C287 C285 1.392 . S
C287 N286 1.331 . S
O288 Zn281 1.975 . S
O288 C289 1.252 . S
C289 O288 1.252 . S
C289 O290 1.252 . S
O290 Zn272 1.975 . S
O290 C289 1.252 . S
H291 C284 0.930 . S
H292 C285 0.930 . S
C293 C294 1.392 . S
C293 N297 1.328 . S
C293 H299 0.930 . S
C294 C293 1.392 . S
C294 N298 1.331 . S
C295 C296 1.391 . S
C295 N298 1.329 . S
C295 H305 0.930 . S
C296 C295 1.391 . S
C296 N297 1.334 . S
C296 H303 0.930 . S
N297 Zn281 2.119 . S
N297 C293 1.328 . S
N297 C296 1.334 . S
N298 C294 1.331 . S
N298 C295 1.329 . S
H299 C293 0.930 . S
C300 O280 1.257 . S
C300 O301 1.244 . S
O301 C300 1.244 . S
O302 C278 1.257 . S
O302 Zn281 2.019 . S
H303 C296 0.930 . S
H304 C283 0.930 . S
H305 C295 0.930 . S
Zn306 N310 2.020 . S
Zn306 O314 2.019 . S
Zn306 N316 2.119 . S
Zn306 O324 1.975 . S
C307 N308 1.334 . S
C307 N311 1.336 . S
N308 C307 1.334 . S
N308 C309 1.334 . S
C309 N308 1.334 . S
C309 N310 1.336 . S
N310 Zn306 2.020 . S
N310 C309 1.336 . S
N310 N311 1.354 . S
N311 C307 1.336 . S
N311 N310 1.354 . S
N311 Zn315 2.020 . S
C312 O313 1.244 . S
C312 O336 1.257 . S
O313 C312 1.244 . S
O314 Zn306 2.019 . S
O314 C334 1.257 . S
Zn315 N311 2.020 . S
Zn315 O322 1.975 . S
Zn315 N331 2.119 . S
Zn315 O336 2.019 . S
N316 Zn306 2.119 . S
N316 C318 1.334 . S
N316 C319 1.328 . S
C317 C318 1.391 . S
C317 N320 1.329 . S
C317 H338 0.930 . S
C318 N316 1.334 . S
C318 C317 1.391 . S
C318 H325 0.930 . S
C319 N316 1.328 . S
C319 C321 1.392 . S
C319 H326 0.930 . S
N320 C317 1.329 . S
N320 C321 1.331 . S
C321 C319 1.392 . S
C321 N320 1.331 . S
O322 Zn315 1.975 . S
O322 C323 1.252 . S
C323 O322 1.252 . S
C323 O324 1.252 . S
O324 Zn306 1.975 . S
O324 C323 1.252 . S
H325 C318 0.930 . S
H326 C319 0.930 . S
C327 C328 1.392 . S
C327 N331 1.328 . S
C327 H333 0.930 . S
C328 C327 1.392 . S
C328 N332 1.331 . S
C329 C330 1.391 . S
C329 N332 1.329 . S
C329 H339 0.930 . S
C330 C329 1.391 . S
C330 N331 1.334 . S
C330 H337 0.930 . S
N331 Zn315 2.119 . S
N331 C327 1.328 . S
N331 C330 1.334 . S
N332 C328 1.331 . S
N332 C329 1.329 . S
H333 C327 0.930 . S
C334 O314 1.257 . S
C334 O335 1.244 . S
O335 C334 1.244 . S
O336 C312 1.257 . S
O336 Zn315 2.019 . S
H337 C330 0.930 . S
H338 C317 0.930 . S
H339 C329 0.930 . S
Zn340 N344 2.020 . S
Zn340 O348 2.019 . S
Zn340 N350 2.119 . S
Zn340 O358 1.975 . S
C341 N342 1.334 . S
C341 N345 1.336 . S
N342 C341 1.334 . S
N342 C343 1.334 . S
C343 N342 1.334 . S
C343 N344 1.336 . S
N344 Zn340 2.020 . S
N344 C343 1.336 . S
N344 N345 1.354 . S
N345 C341 1.336 . S
N345 N344 1.354 . S
N345 Zn349 2.020 . S
C346 O347 1.244 . S
C346 O370 1.257 . S
O347 C346 1.244 . S
O348 Zn340 2.019 . S
O348 C368 1.257 . S
Zn349 N345 2.020 . S
Zn349 O356 1.975 . S
Zn349 N365 2.119 . S
Zn349 O370 2.019 . S
N350 Zn340 2.119 . S
N350 C352 1.334 . S
N350 C353 1.328 . S
C351 C352 1.391 . S
C351 N354 1.329 . S
C351 H372 0.930 . S
C352 N350 1.334 . S
C352 C351 1.391 . S
C352 H359 0.930 . S
C353 N350 1.328 . S
C353 C355 1.392 . S
C353 H360 0.930 . S
N354 C351 1.329 . S
N354 C355 1.331 . S
C355 C353 1.392 . S
C355 N354 1.331 . S
O356 Zn349 1.975 . S
O356 C357 1.252 . S
C357 O356 1.252 . S
C357 O358 1.252 . S
O358 Zn340 1.975 . S
O358 C357 1.252 . S
H359 C352 0.930 . S
H360 C353 0.930 . S
C361 C362 1.392 . S
C361 N365 1.328 . S
C361 H367 0.930 . S
C362 C361 1.392 . S
C362 N366 1.331 . S
C363 C364 1.391 . S
C363 N366 1.329 . S
C363 H373 0.930 . S
C364 C363 1.391 . S
C364 N365 1.334 . S
C364 H371 0.930 . S
N365 Zn349 2.119 . S
N365 C361 1.328 . S
N365 C364 1.334 . S
N366 C362 1.331 . S
N366 C363 1.329 . S
H367 C361 0.930 . S
C368 O348 1.257 . S
C368 O369 1.244 . S
O369 C368 1.244 . S
O370 C346 1.257 . S
O370 Zn349 2.019 . S
H371 C364 0.930 . S
H372 C351 0.930 . S
H373 C363 0.930 . S
Zn374 N378 2.020 . S
Zn374 O382 2.019 . S
Zn374 N384 2.119 . S
Zn374 O392 1.975 . S
C375 N376 1.334 . S
C375 N379 1.336 . S
N376 C375 1.334 . S
N376 C377 1.334 . S
C377 N376 1.334 . S
C377 N378 1.336 . S
N378 Zn374 2.020 . S
N378 C377 1.336 . S
N378 N379 1.354 . S
N379 C375 1.336 . S
N379 N378 1.354 . S
N379 Zn383 2.020 . S
C380 O381 1.244 . S
C380 O404 1.257 . S
O381 C380 1.244 . S
O382 Zn374 2.019 . S
O382 C402 1.257 . S
Zn383 N379 2.020 . S
Zn383 O390 1.975 . S
Zn383 N399 2.119 . S
Zn383 O404 2.019 . S
N384 Zn374 2.119 . S
N384 C386 1.334 . S
N384 C387 1.328 . S
C385 C386 1.391 . S
C385 N388 1.329 . S
C385 H406 0.930 . S
C386 N384 1.334 . S
C386 C385 1.391 . S
C386 H393 0.930 . S
C387 N384 1.328 . S
C387 C389 1.392 . S
C387 H394 0.930 . S
N388 C385 1.329 . S
N388 C389 1.331 . S
C389 C387 1.392 . S
C389 N388 1.331 . S
O390 Zn383 1.975 . S
O390 C391 1.252 . S
C391 O390 1.252 . S
C391 O392 1.252 . S
O392 Zn374 1.975 . S
O392 C391 1.252 . S
H393 C386 0.930 . S
H394 C387 0.930 . S
C395 C396 1.392 . S
C395 N399 1.328 . S
C395 H401 0.930 . S
C396 C395 1.392 . S
C396 N400 1.331 . S
C397 C398 1.391 . S
C397 N400 1.329 . S
C397 H407 0.930 . S
C398 C397 1.391 . S
C398 N399 1.334 . S
C398 H405 0.930 . S
N399 Zn383 2.119 . S
N399 C395 1.328 . S
N399 C398 1.334 . S
N400 C396 1.331 . S
N400 C397 1.329 . S
H401 C395 0.930 . S
C402 O382 1.257 . S
C402 O403 1.244 . S
O403 C402 1.244 . S
O404 C380 1.257 . S
O404 Zn383 2.019 . S
H405 C398 0.930 . S
H406 C385 0.930 . S
H407 C397 0.930 . S
H408 C414 0.930 . S
H409 C417 0.930 . S
H410 C418 0.930 . S
H411 C419 0.930 . S
H412 C422 0.930 . S
H413 C423 0.930 . S
C414 H408 0.930 . S
C414 C415 1.355 . S
C414 C416 1.415 . S
C415 C414 1.355 . S
C415 C417 1.419 . S
C416 C414 1.415 . S
C416 C421 1.425 1_545 S
C416 C423 1.409 . S
C417 H409 0.930 . S
C417 C415 1.419 . S
C417 C418 1.362 1_545 S
C418 H410 0.930 . S
C418 C417 1.362 1_565 S
C418 C421 1.409 . S
C419 H411 0.930 . S
C419 C420 1.355 . S
C419 C421 1.415 . S
C420 C419 1.355 . S
C420 C422 1.419 . S
C421 C416 1.425 1_565 S
C421 C418 1.409 . S
C421 C419 1.415 . S
C422 H412 0.930 . S
C422 C420 1.419 . S
C422 C423 1.362 1_565 S
C423 H413 0.930 . S
C423 C416 1.409 . S
C423 C422 1.362 1_545 S
H424 C430 0.930 . S
H425 C433 0.930 . S
H426 C434 0.930 . S
H427 C435 0.930 . S
H428 C438 0.930 . S
H429 C439 0.930 . S
C430 H424 0.930 . S
C430 C431 1.355 . S
C430 C432 1.415 . S
C431 C430 1.355 . S
C431 C433 1.419 . S
C432 C430 1.415 . S
C432 C437 1.425 . S
C432 C439 1.409 . S
C433 H425 0.930 . S
C433 C431 1.419 . S
C433 C434 1.362 . S
C434 H426 0.930 . S
C434 C433 1.362 . S
C434 C437 1.409 . S
C435 H427 0.930 . S
C435 C436 1.355 . S
C435 C437 1.415 . S
C436 C435 1.355 . S
C436 C438 1.419 . S
C437 C432 1.425 . S
C437 C434 1.409 . S
C437 C435 1.415 . S
C438 H428 0.930 . S
C438 C436 1.419 . S
C438 C439 1.362 . S
C439 H429 0.930 . S
C439 C432 1.409 . S
C439 C438 1.362 . S
H440 C446 0.930 . S
H441 C449 0.930 . S
H442 C450 0.930 . S
H443 C451 0.930 . S
H444 C454 0.930 . S
H445 C455 0.930 . S
C446 H440 0.930 . S
C446 C447 1.355 . S
C446 C448 1.397 1_455 S
C447 C446 1.355 . S
C447 C449 1.419 . S
C448 C446 1.397 1_655 S
C448 C453 1.396 1_655 S
C448 C455 1.442 . S
C449 H441 0.930 . S
C449 C447 1.419 . S
C449 C450 1.362 . S
C450 H442 0.930 . S
C450 C449 1.362 . S
C450 C453 1.442 . S
C451 H443 0.930 . S
C451 C452 1.355 . S
C451 C453 1.397 1_655 S
C452 C451 1.355 . S
C452 C454 1.419 . S
C453 C448 1.396 1_455 S
C453 C450 1.442 . S
C453 C451 1.397 1_455 S
C454 H444 0.930 . S
C454 C452 1.419 . S
C454 C455 1.362 . S
C455 H445 0.930 . S
C455 C448 1.442 . S
C455 C454 1.362 . S
H456 C462 0.930 . S
H457 C465 0.930 . S
H458 C466 0.930 . S
H459 C467 0.930 . S
H460 C470 0.930 . S
H461 C471 0.930 . S
C462 H456 0.930 . S
C462 C463 1.355 . S
C462 C464 1.415 1_565 S
C463 C462 1.355 . S
C463 C465 1.419 . S
C464 C462 1.415 1_545 S
C464 C469 1.425 1_545 S
C464 C471 1.409 . S
C465 H457 0.930 . S
C465 C463 1.419 . S
C465 C466 1.362 . S
C466 H458 0.930 . S
C466 C465 1.362 . S
C466 C469 1.409 . S
C467 H459 0.930 . S
C467 C468 1.355 . S
C467 C469 1.415 1_545 S
C468 C467 1.355 . S
C468 C470 1.419 . S
C469 C464 1.425 1_565 S
C469 C466 1.409 . S
C469 C467 1.415 1_565 S
C470 H460 0.930 . S
C470 C468 1.419 . S
C470 C471 1.362 . S
C471 H461 0.930 . S
C471 C464 1.409 . S
C471 C470 1.362 . S
H472 C478 0.930 . S
H473 C481 0.930 . S
H474 C482 0.930 . S
H475 C483 0.930 . S
H476 C486 0.930 . S
H477 C487 0.930 . S
C478 H472 0.930 . S
C478 C479 1.355 . S
C478 C480 1.415 . S
C479 C478 1.355 . S
C479 C481 1.419 . S
C480 C478 1.415 . S
C480 C485 1.425 . S
C480 C487 1.409 . S
C481 H473 0.930 . S
C481 C479 1.419 . S
C481 C482 1.362 . S
C482 H474 0.930 . S
C482 C481 1.362 . S
C482 C485 1.409 . S
C483 H475 0.930 . S
C483 C484 1.355 . S
C483 C485 1.415 . S
C484 C483 1.355 . S
C484 C486 1.419 . S
C485 C480 1.425 . S
C485 C482 1.409 . S
C485 C483 1.415 . S
C486 H476 0.930 . S
C486 C484 1.419 . S
C486 C487 1.362 . S
C487 H477 0.930 . S
C487 C480 1.409 . S
C487 C486 1.362 . S
H488 C494 0.930 . S
H489 C497 0.930 . S
H490 C498 0.921 1_455 S
H491 C499 0.930 . S
H492 C502 0.930 . S
H493 C503 0.921 1_655 S
C494 H488 0.930 . S
C494 C495 1.355 . S
C494 C496 1.415 . S
C495 C494 1.355 . S
C495 C497 1.419 . S
C496 C494 1.415 . S
C496 C501 1.425 1_655 S
C496 C503 1.409 1_655 S
C497 H489 0.930 . S
C497 C495 1.419 . S
C497 C498 1.362 . S
C498 H490 0.921 1_655 S
C498 C497 1.362 . S
C498 C501 1.409 1_655 S
C499 H491 0.930 . S
C499 C500 1.355 . S
C499 C501 1.415 . S
C500 C499 1.355 . S
C500 C502 1.419 . S
C501 C496 1.425 1_455 S
C501 C498 1.409 1_455 S
C501 C499 1.415 . S
C502 H492 0.930 . S
C502 C500 1.419 . S
C502 C503 1.362 . S
C503 H493 0.921 1_455 S
C503 C496 1.409 1_455 S
C503 C502 1.362 . S
H504 C510 0.930 . S
H505 C513 0.930 . S
H506 C514 0.930 . S
H507 C515 0.930 . S
H508 C518 0.930 . S
H509 C519 0.930 . S
C510 H504 0.930 . S
C510 C511 1.355 . S
C510 C512 1.415 . S
C511 C510 1.355 . S
C511 C513 1.419 . S
C512 C510 1.415 . S
C512 C517 1.425 1_545 S
C512 C519 1.409 . S
C513 H505 0.930 . S
C513 C511 1.419 . S
C513 C514 1.362 1_545 S
C514 H506 0.930 . S
C514 C513 1.362 1_565 S
C514 C517 1.409 . S
C515 H507 0.930 . S
C515 C516 1.355 . S
C515 C517 1.415 . S
C516 C515 1.355 . S
C516 C518 1.419 . S
C517 C512 1.425 1_565 S
C517 C514 1.409 . S
C517 C515 1.415 . S
C518 H508 0.930 . S
C518 C516 1.419 . S
C518 C519 1.362 1_565 S
C519 H509 0.930 . S
C519 C512 1.409 . S
C519 C518 1.362 1_545 S
H520 C526 0.930 . S
H521 C529 0.930 . S
H522 C530 0.930 . S
H523 C531 0.930 . S
H524 C534 0.930 . S
H525 C535 0.930 . S
C526 H520 0.930 . S
C526 C527 1.355 . S
C526 C528 1.415 . S
C527 C526 1.355 . S
C527 C529 1.419 . S
C528 C526 1.415 . S
C528 C533 1.425 . S
C528 C535 1.409 . S
C529 H521 0.930 . S
C529 C527 1.419 . S
C529 C530 1.362 . S
C530 H522 0.930 . S
C530 C529 1.362 . S
C530 C533 1.409 . S
C531 H523 0.930 . S
C531 C532 1.355 . S
C531 C533 1.415 . S
C532 C531 1.355 . S
C532 C534 1.419 . S
C533 C528 1.425 . S
C533 C530 1.409 . S
C533 C531 1.415 . S
C534 H524 0.930 . S
C534 C532 1.419 . S
C534 C535 1.362 . S
C535 H525 0.930 . S
C535 C528 1.409 . S
C535 C534 1.362 . S
H536 C542 0.930 . S
H537 C545 0.930 . S
H538 C546 0.930 . S
H539 C547 0.930 . S
H540 C550 0.930 . S
H541 C551 0.930 . S
C542 H536 0.930 . S
C542 C543 1.355 . S
C542 C544 1.415 1_455 S
C543 C542 1.355 . S
C543 C545 1.419 . S
C544 C542 1.415 1_655 S
C544 C549 1.425 1_655 S
C544 C551 1.409 . S
C545 H537 0.930 . S
C545 C543 1.419 . S
C545 C546 1.362 . S
C546 H538 0.930 . S
C546 C545 1.362 . S
C546 C549 1.409 . S
C547 H539 0.930 . S
C547 C548 1.355 . S
C547 C549 1.415 1_655 S
C548 C547 1.355 . S
C548 C550 1.419 . S
C549 C544 1.425 1_455 S
C549 C546 1.409 . S
C549 C547 1.415 1_455 S
C550 H540 0.930 . S
C550 C548 1.419 . S
C550 C551 1.362 . S
C551 H541 0.930 . S
C551 C544 1.409 . S
C551 C550 1.362 . S
H552 C558 0.930 . S
H553 C561 0.930 . S
H554 C562 0.930 . S
H555 C563 0.930 . S
H556 C566 0.930 . S
H557 C567 0.930 . S
C558 H552 0.930 . S
C558 C559 1.355 . S
C558 C560 1.415 . S
C559 C558 1.355 . S
C559 C561 1.419 . S
C560 C558 1.415 . S
C560 C565 1.425 1_545 S
C560 C567 1.409 . S
C561 H553 0.930 . S
C561 C559 1.419 . S
C561 C562 1.362 1_545 S
C562 H554 0.930 . S
C562 C561 1.362 1_565 S
C562 C565 1.409 . S
C563 H555 0.930 . S
C563 C564 1.355 . S
C563 C565 1.415 . S
C564 C563 1.355 . S
C564 C566 1.419 . S
C565 C560 1.425 1_565 S
C565 C562 1.409 . S
C565 C563 1.415 . S
C566 H556 0.930 . S
C566 C564 1.419 . S
C566 C567 1.362 1_565 S
C567 H557 0.930 . S
C567 C560 1.409 . S
C567 C566 1.362 1_545 S
H568 C574 0.930 . S
H569 C577 0.930 . S
H570 C578 0.930 . S
H571 C579 0.930 . S
H572 C582 0.930 . S
H573 C583 0.930 . S
C574 H568 0.930 . S
C574 C575 1.355 . S
C574 C576 1.415 . S
C575 C574 1.355 . S
C575 C577 1.419 . S
C576 C574 1.415 . S
C576 C581 1.425 . S
C576 C583 1.409 . S
C577 H569 0.930 . S
C577 C575 1.419 . S
C577 C578 1.362 . S
C578 H570 0.930 . S
C578 C577 1.362 . S
C578 C581 1.409 . S
C579 H571 0.930 . S
C579 C580 1.355 . S
C579 C581 1.415 . S
C580 C579 1.355 . S
C580 C582 1.419 . S
C581 C576 1.425 . S
C581 C578 1.409 . S
C581 C579 1.415 . S
C582 H572 0.930 . S
C582 C580 1.419 . S
C582 C583 1.362 . S
C583 H573 0.930 . S
C583 C576 1.409 . S
C583 C582 1.362 . S
H584 C590 0.930 . S
H585 C593 0.930 . S
H586 C594 0.930 . S
H587 C595 0.930 . S
H588 C598 0.930 . S
H589 C599 0.930 . S
C590 H584 0.930 . S
C590 C591 1.355 . S
C590 C592 1.440 . S
C591 C590 1.355 . S
C591 C593 1.419 . S
C592 C590 1.440 . S
C592 C597 1.392 1_455 S
C592 C599 1.401 1_455 S
C593 H585 0.930 . S
C593 C591 1.419 . S
C593 C594 1.362 . S
C594 H586 0.930 . S
C594 C593 1.362 . S
C594 C597 1.401 1_455 S
C595 H587 0.930 . S
C595 C596 1.355 . S
C595 C597 1.440 . S
C596 C595 1.355 . S
C596 C598 1.419 . S
C597 C592 1.392 1_655 S
C597 C594 1.401 1_655 S
C597 C595 1.440 . S
C598 H588 0.930 . S
C598 C596 1.419 . S
C598 C599 1.362 . S
C599 H589 0.930 . S
C599 C592 1.401 1_655 S
C599 C598 1.362 . S
H600 C606 0.930 1_545 S
H601 C609 0.930 . S
H602 C610 0.930 . S
H603 C611 0.930 1_565 S
H604 C614 0.930 . S
H605 C615 0.930 . S
C606 H600 0.930 1_565 S
C606 C607 1.355 . S
C606 C608 1.414 1_564 S
C607 C606 1.355 . S
C607 C609 1.419 . S
C608 C606 1.414 1_546 S
C608 C613 1.425 1_546 S
C608 C615 1.410 . S
C609 H601 0.930 . S
C609 C607 1.419 . S
C609 C610 1.362 . S
C610 H602 0.930 . S
C610 C609 1.362 . S
C610 C613 1.410 . S
C611 H603 0.930 1_545 S
C611 C612 1.355 . S
C611 C613 1.414 1_546 S
C612 C611 1.355 . S
C612 C614 1.419 . S
C613 C608 1.425 1_564 S
C613 C610 1.410 . S
C613 C611 1.414 1_564 S
C614 H604 0.930 . S
C614 C612 1.419 . S
C614 C615 1.362 . S
C615 H605 0.930 . S
C615 C608 1.410 . S
C615 C614 1.362 . S
H616 C622 0.930 . S
H617 C625 0.930 . S
H618 C626 0.930 . S
H619 C627 0.930 . S
H620 C630 0.930 . S
H621 C631 0.930 . S
C622 H616 0.930 . S
C622 C623 1.355 1_556 S
C622 C624 1.415 . S
C623 C622 1.355 1_554 S
C623 C625 1.419 . S
C624 C622 1.415 . S
C624 C629 1.425 1_556 S
C624 C631 1.409 . S
C625 H617 0.930 . S
C625 C623 1.419 . S
C625 C626 1.362 . S
C626 H618 0.930 . S
C626 C625 1.362 . S
C626 C629 1.409 . S
C627 H619 0.930 . S
C627 C628 1.355 1_554 S
C627 C629 1.415 . S
C628 C627 1.355 1_556 S
C628 C630 1.419 . S
C629 C624 1.425 1_554 S
C629 C626 1.409 . S
C629 C627 1.415 . S
C630 H620 0.930 . S
C630 C628 1.419 . S
C630 C631 1.362 . S
C631 H621 0.930 . S
C631 C624 1.409 . S
C631 C630 1.362 . S
H632 C638 0.930 1_655 S
H633 C641 0.930 . S
H634 C642 0.931 . S
H635 C643 0.930 1_455 S
H636 C646 0.930 . S
H637 C647 0.930 . S
C638 H632 0.930 1_455 S
C638 C639 1.355 . S
C638 C640 1.415 1_455 S
C639 C638 1.355 . S
C639 C641 1.419 1_554 S
C640 C638 1.415 1_655 S
C640 C645 1.425 1_654 S
C640 C647 1.409 . S
C641 H633 0.930 . S
C641 C639 1.419 1_556 S
C641 C642 1.362 . S
C642 H634 0.931 . S
C642 C641 1.362 . S
C642 C645 1.409 . S
C643 H635 0.930 1_655 S
C643 C644 1.355 . S
C643 C645 1.416 1_655 S
C644 C643 1.355 . S
C644 C646 1.419 1_556 S
C645 C640 1.425 1_456 S
C645 C642 1.409 . S
C645 C643 1.416 1_455 S
C646 H636 0.930 . S
C646 C644 1.419 1_554 S
C646 C647 1.362 . S
C647 H637 0.930 . S
C647 C640 1.409 . S
C647 C646 1.362 . S
H648 C654 0.930 1_455 S
H649 C657 0.930 . S
H650 C658 0.930 . S
H651 C659 0.930 1_655 S
H652 C662 0.930 . S
H653 C663 0.930 . S
C654 H648 0.930 1_655 S
C654 C655 1.355 . S
C654 C656 1.415 1_655 S
C655 C654 1.355 . S
C655 C657 1.419 . S
C656 C654 1.415 1_455 S
C656 C661 1.425 1_455 S
C656 C663 1.409 . S
C657 H649 0.930 . S
C657 C655 1.419 . S
C657 C658 1.362 . S
C658 H650 0.930 . S
C658 C657 1.362 . S
C658 C661 1.409 . S
C659 H651 0.930 1_455 S
C659 C660 1.355 . S
C659 C661 1.415 1_455 S
C660 C659 1.355 . S
C660 C662 1.419 . S
C661 C656 1.425 1_655 S
C661 C658 1.409 . S
C661 C659 1.415 1_655 S
C662 H652 0.930 . S
C662 C660 1.419 . S
C662 C663 1.362 . S
C663 H653 0.930 . S
C663 C656 1.409 . S
C663 C662 1.362 . S
H664 C670 0.930 . S
H665 C673 0.930 . S
H666 C674 0.930 . S
H667 C675 0.930 . S
H668 C678 0.930 . S
H669 C679 0.930 . S
C670 H664 0.930 . S
C670 C671 1.355 . S
C670 C672 1.415 . S
C671 C670 1.355 . S
C671 C673 1.419 . S
C672 C670 1.415 . S
C672 C677 1.425 1_565 S
C672 C679 1.409 . S
C673 H665 0.930 . S
C673 C671 1.419 . S
C673 C674 1.362 1_565 S
C674 H666 0.930 . S
C674 C673 1.362 1_545 S
C674 C677 1.409 . S
C675 H667 0.930 . S
C675 C676 1.355 . S
C675 C677 1.415 . S
C676 C675 1.355 . S
C676 C678 1.419 . S
C677 C672 1.425 1_545 S
C677 C674 1.409 . S
C677 C675 1.415 . S
C678 H668 0.930 . S
C678 C676 1.419 . S
C678 C679 1.362 1_545 S
C679 H669 0.930 . S
C679 C672 1.409 . S
C679 C678 1.362 1_565 S
H680 C686 0.930 . S
H681 C689 0.930 . S
H682 C690 0.930 . S
H683 C691 0.930 . S
H684 C694 0.930 . S
H685 C695 0.930 . S
C686 H680 0.930 . S
C686 C687 1.355 . S
C686 C688 1.415 . S
C687 C686 1.355 . S
C687 C689 1.419 . S
C688 C686 1.415 . S
C688 C693 1.425 . S
C688 C695 1.409 . S
C689 H681 0.930 . S
C689 C687 1.419 . S
C689 C690 1.362 . S
C690 H682 0.930 . S
C690 C689 1.362 . S
C690 C693 1.409 . S
C691 H683 0.930 . S
C691 C692 1.355 . S
C691 C693 1.415 . S
C692 C691 1.355 . S
C692 C694 1.419 . S
C693 C688 1.425 . S
C693 C690 1.409 . S
C693 C691 1.415 . S
C694 H684 0.930 . S
C694 C692 1.419 . S
C694 C695 1.362 . S
C695 H685 0.930 . S
C695 C688 1.409 . S
C695 C694 1.362 . S
H696 C702 0.930 . S
H697 C705 0.930 . S
H698 C706 0.930 . S
H699 C707 0.930 . S
H700 C710 0.930 . S
H701 C711 0.930 . S
C702 H696 0.930 . S
C702 C703 1.355 . S
C702 C704 1.415 . S
C703 C702 1.355 . S
C703 C705 1.419 . S
C704 C702 1.415 . S
C704 C709 1.425 . S
C704 C711 1.409 . S
C705 H697 0.930 . S
C705 C703 1.419 . S
C705 C706 1.362 . S
C706 H698 0.930 . S
C706 C705 1.362 . S
C706 C709 1.409 . S
C707 H699 0.930 . S
C707 C708 1.355 . S
C707 C709 1.415 . S
C708 C707 1.355 . S
C708 C710 1.419 . S
C709 C704 1.425 . S
C709 C706 1.409 . S
C709 C707 1.415 . S
C710 H700 0.930 . S
C710 C708 1.419 . S
C710 C711 1.362 . S
C711 H701 0.930 . S
C711 C704 1.409 . S
C711 C710 1.362 . S
H712 C718 0.930 . S
H713 C721 0.930 . S
H714 C722 0.930 . S
H715 C723 0.930 . S
H716 C726 0.930 . S
H717 C727 0.930 . S
C718 H712 0.930 . S
C718 C719 1.355 . S
C718 C720 1.415 . S
C719 C718 1.355 . S
C719 C721 1.419 . S
C720 C718 1.415 . S
C720 C725 1.425 . S
C720 C727 1.409 . S
C721 H713 0.930 . S
C721 C719 1.419 . S
C721 C722 1.362 . S
C722 H714 0.930 . S
C722 C721 1.362 . S
C722 C725 1.409 . S
C723 H715 0.930 . S
C723 C724 1.355 . S
C723 C725 1.415 . S
C724 C723 1.355 . S
C724 C726 1.419 . S
C725 C720 1.425 . S
C725 C722 1.409 . S
C725 C723 1.415 . S
C726 H716 0.930 . S
C726 C724 1.419 . S
C726 C727 1.362 . S
C727 H717 0.930 . S
C727 C720 1.409 . S
C727 C726 1.362 . S
H728 C734 0.930 . S
H729 C737 0.930 . S
H730 C738 0.930 . S
H731 C739 0.930 . S
H732 C742 0.930 . S
H733 C743 0.930 . S
C734 H728 0.930 . S
C734 C735 1.355 . S
C734 C736 1.415 . S
C735 C734 1.355 . S
C735 C737 1.419 . S
C736 C734 1.415 . S
C736 C741 1.425 . S
C736 C743 1.409 . S
C737 H729 0.930 . S
C737 C735 1.419 . S
C737 C738 1.362 . S
C738 H730 0.930 . S
C738 C737 1.362 . S
C738 C741 1.409 . S
C739 H731 0.930 . S
C739 C740 1.355 . S
C739 C741 1.415 . S
C740 C739 1.355 . S
C740 C742 1.419 . S
C741 C736 1.425 . S
C741 C738 1.409 . S
C741 C739 1.415 . S
C742 H732 0.930 . S
C742 C740 1.419 . S
C742 C743 1.362 . S
C743 H733 0.930 . S
C743 C736 1.409 . S
C743 C742 1.362 . S
H744 C750 0.930 . S
H745 C753 0.930 . S
H746 C754 0.930 . S
H747 C755 0.930 . S
H748 C758 0.930 . S
H749 C759 0.930 . S
C750 H744 0.930 . S
C750 C751 1.355 . S
C750 C752 1.415 . S
C751 C750 1.355 . S
C751 C753 1.419 . S
C752 C750 1.415 . S
C752 C757 1.425 . S
C752 C759 1.409 . S
C753 H745 0.930 . S
C753 C751 1.419 . S
C753 C754 1.362 . S
C754 H746 0.930 . S
C754 C753 1.362 . S
C754 C757 1.409 . S
C755 H747 0.930 . S
C755 C756 1.355 . S
C755 C757 1.415 . S
C756 C755 1.355 . S
C756 C758 1.419 . S
C757 C752 1.425 . S
C757 C754 1.409 . S
C757 C755 1.415 . S
C758 H748 0.930 . S
C758 C756 1.419 . S
C758 C759 1.362 . S
C759 H749 0.930 . S
C759 C752 1.409 . S
C759 C758 1.362 . S
H760 C766 0.930 . S
H761 C769 0.930 . S
H762 C770 0.930 . S
H763 C771 0.930 . S
H764 C774 0.930 . S
H765 C775 0.930 . S
C766 H760 0.930 . S
C766 C767 1.355 . S
C766 C768 1.415 . S
C767 C766 1.355 . S
C767 C769 1.419 . S
C768 C766 1.415 . S
C768 C773 1.425 . S
C768 C775 1.409 . S
C769 H761 0.930 . S
C769 C767 1.419 . S
C769 C770 1.362 . S
C770 H762 0.930 . S
C770 C769 1.362 . S
C770 C773 1.409 . S
C771 H763 0.930 . S
C771 C772 1.355 . S
C771 C773 1.415 . S
C772 C771 1.355 . S
C772 C774 1.419 . S
C773 C768 1.425 . S
C773 C770 1.409 . S
C773 C771 1.415 . S
C774 H764 0.930 . S
C774 C772 1.419 . S
C774 C775 1.362 . S
C775 H765 0.930 . S
C775 C768 1.409 . S
C775 C774 1.362 . S
H776 C782 0.930 . S
H777 C785 0.930 . S
H778 C786 0.930 . S
H779 C787 0.930 . S
H780 C790 0.930 . S
H781 C791 0.930 . S
C782 H776 0.930 . S
C782 C783 1.355 . S
C782 C784 1.415 . S
C783 C782 1.355 . S
C783 C785 1.419 . S
C784 C782 1.415 . S
C784 C789 1.425 . S
C784 C791 1.409 . S
C785 H777 0.930 . S
C785 C783 1.419 . S
C785 C786 1.362 . S
C786 H778 0.930 . S
C786 C785 1.362 . S
C786 C789 1.409 . S
C787 H779 0.930 . S
C787 C788 1.355 . S
C787 C789 1.415 . S
C788 C787 1.355 . S
C788 C790 1.419 . S
C789 C784 1.425 . S
C789 C786 1.409 . S
C789 C787 1.415 . S
C790 H780 0.930 . S
C790 C788 1.419 . S
C790 C791 1.362 . S
C791 H781 0.930 . S
C791 C784 1.409 . S
C791 C790 1.362 . S
H792 C798 0.930 . S
H793 C801 0.930 . S
H794 C802 0.930 . S
H795 C803 0.930 . S
H796 C806 0.930 . S
H797 C807 0.930 . S
C798 H792 0.930 . S
C798 C799 1.355 . S
C798 C800 1.415 . S
C799 C798 1.355 . S
C799 C801 1.419 . S
C800 C798 1.415 . S
C800 C805 1.425 . S
C800 C807 1.409 . S
C801 H793 0.930 . S
C801 C799 1.419 . S
C801 C802 1.362 . S
C802 H794 0.930 . S
C802 C801 1.362 . S
C802 C805 1.409 . S
C803 H795 0.930 . S
C803 C804 1.355 . S
C803 C805 1.415 . S
C804 C803 1.355 . S
C804 C806 1.419 . S
C805 C800 1.425 . S
C805 C802 1.409 . S
C805 C803 1.415 . S
C806 H796 0.930 . S
C806 C804 1.419 . S
C806 C807 1.362 . S
C807 H797 0.930 . S
C807 C800 1.409 . S
C807 C806 1.362 . S
H808 C814 0.930 . S
H809 C817 0.930 . S
H810 C818 0.930 . S
H811 C819 0.930 . S
H812 C822 0.930 . S
H813 C823 0.930 . S
C814 H808 0.930 . S
C814 C815 1.355 . S
C814 C816 1.415 . S
C815 C814 1.355 . S
C815 C817 1.419 . S
C816 C814 1.415 . S
C816 C821 1.425 . S
C816 C823 1.409 . S
C817 H809 0.930 . S
C817 C815 1.419 . S
C817 C818 1.362 . S
C818 H810 0.930 . S
C818 C817 1.362 . S
C818 C821 1.409 . S
C819 H811 0.930 . S
C819 C820 1.355 . S
C819 C821 1.415 . S
C820 C819 1.355 . S
C820 C822 1.419 . S
C821 C816 1.425 . S
C821 C818 1.409 . S
C821 C819 1.415 . S
C822 H812 0.930 . S
C822 C820 1.419 . S
C822 C823 1.362 . S
C823 H813 0.930 . S
C823 C816 1.409 . S
C823 C822 1.362 . S
H824 C830 0.930 . S
H825 C833 0.930 . S
H826 C834 0.930 . S
H827 C835 0.930 . S
H828 C838 0.930 . S
H829 C839 0.930 . S
C830 H824 0.930 . S
C830 C831 1.355 . S
C830 C832 1.415 . S
C831 C830 1.355 . S
C831 C833 1.419 . S
C832 C830 1.415 . S
C832 C837 1.425 . S
C832 C839 1.409 . S
C833 H825 0.930 . S
C833 C831 1.419 . S
C833 C834 1.362 . S
C834 H826 0.930 . S
C834 C833 1.362 . S
C834 C837 1.409 . S
C835 H827 0.930 . S
C835 C836 1.355 . S
C835 C837 1.415 . S
C836 C835 1.355 . S
C836 C838 1.419 . S
C837 C832 1.425 . S
C837 C834 1.409 . S
C837 C835 1.415 . S
C838 H828 0.930 . S
C838 C836 1.419 . S
C838 C839 1.362 . S
C839 H829 0.930 . S
C839 C832 1.409 . S
C839 C838 1.362 . S
H840 C846 0.930 . S
H841 C849 0.930 . S
H842 C850 0.930 . S
H843 C851 0.930 . S
H844 C854 0.930 . S
H845 C855 0.930 . S
C846 H840 0.930 . S
C846 C847 1.355 . S
C846 C848 1.415 . S
C847 C846 1.355 . S
C847 C849 1.419 . S
C848 C846 1.415 . S
C848 C853 1.425 . S
C848 C855 1.409 . S
C849 H841 0.930 . S
C849 C847 1.419 . S
C849 C850 1.362 . S
C850 H842 0.930 . S
C850 C849 1.362 . S
C850 C853 1.409 . S
C851 H843 0.930 . S
C851 C852 1.355 . S
C851 C853 1.415 . S
C852 C851 1.355 . S
C852 C854 1.419 . S
C853 C848 1.425 . S
C853 C850 1.409 . S
C853 C851 1.415 . S
C854 H844 0.930 . S
C854 C852 1.419 . S
C854 C855 1.362 . S
C855 H845 0.930 . S
C855 C848 1.409 . S
C855 C854 1.362 . S
H856 C862 0.930 . S
H857 C865 0.930 . S
H858 C866 0.930 . S
H859 C867 0.930 . S
H860 C870 0.930 . S
H861 C871 0.930 . S
C862 H856 0.930 . S
C862 C863 1.355 . S
C862 C864 1.415 . S
C863 C862 1.355 . S
C863 C865 1.419 . S
C864 C862 1.415 . S
C864 C869 1.425 . S
C864 C871 1.409 . S
C865 H857 0.930 . S
C865 C863 1.419 . S
C865 C866 1.362 . S
C866 H858 0.930 . S
C866 C865 1.362 . S
C866 C869 1.409 . S
C867 H859 0.930 . S
C867 C868 1.355 . S
C867 C869 1.415 . S
C868 C867 1.355 . S
C868 C870 1.419 . S
C869 C864 1.425 . S
C869 C866 1.409 . S
C869 C867 1.415 . S
C870 H860 0.930 . S
C870 C868 1.419 . S
C870 C871 1.362 . S
C871 H861 0.930 . S
C871 C864 1.409 . S
C871 C870 1.362 . S
H872 C878 0.930 . S
H873 C881 0.930 . S
H874 C882 0.930 . S
H875 C883 0.930 . S
H876 C886 0.930 . S
H877 C887 0.930 . S
C878 H872 0.930 . S
C878 C879 1.355 . S
C878 C880 1.415 . S
C879 C878 1.355 . S
C879 C881 1.419 . S
C880 C878 1.415 . S
C880 C885 1.425 . S
C880 C887 1.409 . S
C881 H873 0.930 . S
C881 C879 1.419 . S
C881 C882 1.362 . S
C882 H874 0.930 . S
C882 C881 1.362 . S
C882 C885 1.409 . S
C883 H875 0.930 . S
C883 C884 1.355 . S
C883 C885 1.415 . S
C884 C883 1.355 . S
C884 C886 1.419 . S
C885 C880 1.425 . S
C885 C882 1.409 . S
C885 C883 1.415 . S
C886 H876 0.930 . S
C886 C884 1.419 . S
C886 C887 1.362 . S
C887 H877 0.930 . S
C887 C880 1.409 . S
C887 C886 1.362 . S
H888 C894 0.930 . S
H889 C897 0.930 . S
H890 C898 0.930 . S
H891 C899 0.930 . S
H892 C902 0.930 . S
H893 C903 0.930 . S
C894 H888 0.930 . S
C894 C895 1.355 . S
C894 C896 1.415 . S
C895 C894 1.355 . S
C895 C897 1.419 . S
C896 C894 1.415 . S
C896 C901 1.425 . S
C896 C903 1.409 . S
C897 H889 0.930 . S
C897 C895 1.419 . S
C897 C898 1.362 . S
C898 H890 0.930 . S
C898 C897 1.362 . S
C898 C901 1.409 . S
C899 H891 0.930 . S
C899 C900 1.355 . S
C899 C901 1.415 . S
C900 C899 1.355 . S
C900 C902 1.419 . S
C901 C896 1.425 . S
C901 C898 1.409 . S
C901 C899 1.415 . S
C902 H892 0.930 . S
C902 C900 1.419 . S
C902 C903 1.362 . S
C903 H893 0.930 . S
C903 C896 1.409 . S
C903 C902 1.362 . S
H904 C910 0.930 . S
H905 C913 0.930 . S
H906 C914 0.930 . S
H907 C915 0.930 . S
H908 C918 0.930 . S
H909 C919 0.930 . S
C910 H904 0.930 . S
C910 C911 1.355 . S
C910 C912 1.415 . S
C911 C910 1.355 . S
C911 C913 1.419 . S
C912 C910 1.415 . S
C912 C917 1.425 . S
C912 C919 1.409 . S
C913 H905 0.930 . S
C913 C911 1.419 . S
C913 C914 1.362 . S
C914 H906 0.930 . S
C914 C913 1.362 . S
C914 C917 1.409 . S
C915 H907 0.930 . S
C915 C916 1.355 . S
C915 C917 1.415 . S
C916 C915 1.355 . S
C916 C918 1.419 . S
C917 C912 1.425 . S
C917 C914 1.409 . S
C917 C915 1.415 . S
C918 H908 0.930 . S
C918 C916 1.419 . S
C918 C919 1.362 . S
C919 H909 0.930 . S
C919 C912 1.409 . S
C919 C918 1.362 . S
H920 C926 0.930 . S
H921 C929 0.930 . S
H922 C930 0.930 . S
H923 C931 0.930 . S
H924 C934 0.930 . S
H925 C935 0.930 . S
C926 H920 0.930 . S
C926 C927 1.355 . S
C926 C928 1.415 . S
C927 C926 1.355 . S
C927 C929 1.419 . S
C928 C926 1.415 . S
C928 C933 1.425 . S
C928 C935 1.409 . S
C929 H921 0.930 . S
C929 C927 1.419 . S
C929 C930 1.362 . S
C930 H922 0.930 . S
C930 C929 1.362 . S
C930 C933 1.409 . S
C931 H923 0.930 . S
C931 C932 1.355 . S
C931 C933 1.415 . S
C932 C931 1.355 . S
C932 C934 1.419 . S
C933 C928 1.425 . S
C933 C930 1.409 . S
C933 C931 1.415 . S
C934 H924 0.930 . S
C934 C932 1.419 . S
C934 C935 1.362 . S
C935 H925 0.930 . S
C935 C928 1.409 . S
C935 C934 1.362 . S
H936 C942 0.930 . S
H937 C945 0.930 . S
H938 C946 0.930 . S
H939 C947 0.930 . S
H940 C950 0.930 . S
H941 C951 0.930 . S
C942 H936 0.930 . S
C942 C943 1.355 . S
C942 C944 1.415 . S
C943 C942 1.355 . S
C943 C945 1.419 . S
C944 C942 1.415 . S
C944 C949 1.425 . S
C944 C951 1.409 . S
C945 H937 0.930 . S
C945 C943 1.419 . S
C945 C946 1.362 . S
C946 H938 0.930 . S
C946 C945 1.362 . S
C946 C949 1.409 . S
C947 H939 0.930 . S
C947 C948 1.355 . S
C947 C949 1.415 . S
C948 C947 1.355 . S
C948 C950 1.419 . S
C949 C944 1.425 . S
C949 C946 1.409 . S
C949 C947 1.415 . S
C950 H940 0.930 . S
C950 C948 1.419 . S
C950 C951 1.362 . S
C951 H941 0.930 . S
C951 C944 1.409 . S
C951 C950 1.362 . S
H952 C958 0.930 . S
H953 C961 0.930 . S
H954 C962 0.930 . S
H955 C963 0.930 . S
H956 C966 0.930 . S
H957 C967 0.930 . S
C958 H952 0.930 . S
C958 C959 1.355 . S
C958 C960 1.415 . S
C959 C958 1.355 . S
C959 C961 1.419 . S
C960 C958 1.415 . S
C960 C965 1.425 . S
C960 C967 1.409 . S
C961 H953 0.930 . S
C961 C959 1.419 . S
C961 C962 1.362 . S
C962 H954 0.930 . S
C962 C961 1.362 . S
C962 C965 1.409 . S
C963 H955 0.930 . S
C963 C964 1.355 . S
C963 C965 1.415 . S
C964 C963 1.355 . S
C964 C966 1.419 . S
C965 C960 1.425 . S
C965 C962 1.409 . S
C965 C963 1.415 . S
C966 H956 0.930 . S
C966 C964 1.419 . S
C966 C967 1.362 . S
C967 H957 0.930 . S
C967 C960 1.409 . S
C967 C966 1.362 . S
H968 C974 0.930 . S
H969 C977 0.930 . S
H970 C978 0.930 . S
H971 C979 0.930 . S
H972 C982 0.930 . S
H973 C983 0.930 . S
C974 H968 0.930 . S
C974 C975 1.355 . S
C974 C976 1.415 . S
C975 C974 1.355 . S
C975 C977 1.419 . S
C976 C974 1.415 . S
C976 C981 1.425 . S
C976 C983 1.409 . S
C977 H969 0.930 . S
C977 C975 1.419 . S
C977 C978 1.362 . S
C978 H970 0.930 . S
C978 C977 1.362 . S
C978 C981 1.409 . S
C979 H971 0.930 . S
C979 C980 1.355 . S
C979 C981 1.415 . S
C980 C979 1.355 . S
C980 C982 1.419 . S
C981 C976 1.425 . S
C981 C978 1.409 . S
C981 C979 1.415 . S
C982 H972 0.930 . S
C982 C980 1.419 . S
C982 C983 1.362 . S
C983 H973 0.930 . S
C983 C976 1.409 . S
C983 C982 1.362 . S
H984 C990 0.930 . S
H985 C993 0.930 . S
H986 C994 0.930 . S
H987 C995 0.930 . S
H988 C998 0.930 . S
H989 C999 0.930 . S
C990 H984 0.930 . S
C990 C991 1.355 . S
C990 C992 1.415 . S
C991 C990 1.355 . S
C991 C993 1.419 . S
C992 C990 1.415 . S
C992 C997 1.425 . S
C992 C999 1.409 . S
C993 H985 0.930 . S
C993 C991 1.419 . S
C993 C994 1.362 . S
C994 H986 0.930 . S
C994 C993 1.362 . S
C994 C997 1.409 . S
C995 H987 0.930 . S
C995 C996 1.355 . S
C995 C997 1.415 . S
C996 C995 1.355 . S
C996 C998 1.419 . S
C997 C992 1.425 . S
C997 C994 1.409 . S
C997 C995 1.415 . S
C998 H988 0.930 . S
C998 C996 1.419 . S
C998 C999 1.362 . S
C999 H989 0.930 . S
C999 C992 1.409 . S
C999 C998 1.362 . S
H1000 C1006 0.930 . S
H1001 C1009 0.930 . S
H1002 C1010 0.930 . S
H1003 C1011 0.930 . S
H1004 C1014 0.930 . S
H1005 C1015 0.930 . S
C1006 H1000 0.930 . S
C1006 C1007 1.355 . S
C1006 C1008 1.415 . S
C1007 C1006 1.355 . S
C1007 C1009 1.419 . S
C1008 C1006 1.415 . S
C1008 C1013 1.425 . S
C1008 C1015 1.409 . S
C1009 H1001 0.930 . S
C1009 C1007 1.419 . S
C1009 C1010 1.362 . S
C1010 H1002 0.930 . S
C1010 C1009 1.362 . S
C1010 C1013 1.409 . S
C1011 H1003 0.930 . S
C1011 C1012 1.355 . S
C1011 C1013 1.415 . S
C1012 C1011 1.355 . S
C1012 C1014 1.419 . S
C1013 C1008 1.425 . S
C1013 C1010 1.409 . S
C1013 C1011 1.415 . S
C1014 H1004 0.930 . S
C1014 C1012 1.419 . S
C1014 C1015 1.362 . S
C1015 H1005 0.930 . S
C1015 C1008 1.409 . S
C1015 C1014 1.362 . S
H1016 C1022 0.930 . S
H1017 C1025 0.930 . S
H1018 C1026 0.930 . S
H1019 C1027 0.930 . S
H1020 C1030 0.930 . S
H1021 C1031 0.930 . S
C1022 H1016 0.930 . S
C1022 C1023 1.355 . S
C1022 C1024 1.415 . S
C1023 C1022 1.355 . S
C1023 C1025 1.419 . S
C1024 C1022 1.415 . S
C1024 C1029 1.425 . S
C1024 C1031 1.409 . S
C1025 H1017 0.930 . S
C1025 C1023 1.419 . S
C1025 C1026 1.362 . S
C1026 H1018 0.930 . S
C1026 C1025 1.362 . S
C1026 C1029 1.409 . S
C1027 H1019 0.930 . S
C1027 C1028 1.355 . S
C1027 C1029 1.415 . S
C1028 C1027 1.355 . S
C1028 C1030 1.419 . S
C1029 C1024 1.425 . S
C1029 C1026 1.409 . S
C1029 C1027 1.415 . S
C1030 H1020 0.930 . S
C1030 C1028 1.419 . S
C1030 C1031 1.362 . S
C1031 H1021 0.930 . S
C1031 C1024 1.409 . S
C1031 C1030 1.362 . S
H1032 C1038 0.930 . S
H1033 C1041 0.930 . S
H1034 C1042 0.930 . S
H1035 C1043 0.930 . S
H1036 C1046 0.930 . S
H1037 C1047 0.930 . S
C1038 H1032 0.930 . S
C1038 C1039 1.355 . S
C1038 C1040 1.415 . S
C1039 C1038 1.355 . S
C1039 C1041 1.419 . S
C1040 C1038 1.415 . S
C1040 C1045 1.425 . S
C1040 C1047 1.409 . S
C1041 H1033 0.930 . S
C1041 C1039 1.419 . S
C1041 C1042 1.362 . S
C1042 H1034 0.930 . S
C1042 C1041 1.362 . S
C1042 C1045 1.409 . S
C1043 H1035 0.930 . S
C1043 C1044 1.355 . S
C1043 C1045 1.415 . S
C1044 C1043 1.355 . S
C1044 C1046 1.419 . S
C1045 C1040 1.425 . S
C1045 C1042 1.409 . S
C1045 C1043 1.415 . S
C1046 H1036 0.930 . S
C1046 C1044 1.419 . S
C1046 C1047 1.362 . S
C1047 H1037 0.930 . S
C1047 C1040 1.409 . S
C1047 C1046 1.362 . S
H1048 C1054 0.930 . S
H1049 C1057 0.930 . S
H1050 C1058 0.930 . S
H1051 C1059 0.930 . S
H1052 C1062 0.930 . S
H1053 C1063 0.930 . S
C1054 H1048 0.930 . S
C1054 C1055 1.355 . S
C1054 C1056 1.415 . S
C1055 C1054 1.355 . S
C1055 C1057 1.419 . S
C1056 C1054 1.415 . S
C1056 C1061 1.425 . S
C1056 C1063 1.409 . S
C1057 H1049 0.930 . S
C1057 C1055 1.419 . S
C1057 C1058 1.362 . S
C1058 H1050 0.930 . S
C1058 C1057 1.362 . S
C1058 C1061 1.409 . S
C1059 H1051 0.930 . S
C1059 C1060 1.355 . S
C1059 C1061 1.415 . S
C1060 C1059 1.355 . S
C1060 C1062 1.419 . S
C1061 C1056 1.425 . S
C1061 C1058 1.409 . S
C1061 C1059 1.415 . S
C1062 H1052 0.930 . S
C1062 C1060 1.419 . S
C1062 C1063 1.362 . S
C1063 H1053 0.930 . S
C1063 C1056 1.409 . S
C1063 C1062 1.362 . S
H1064 C1070 0.930 . S
H1065 C1073 0.930 . S
H1066 C1074 0.930 . S
H1067 C1075 0.930 . S
H1068 C1078 0.930 . S
H1069 C1079 0.930 . S
C1070 H1064 0.930 . S
C1070 C1071 1.355 . S
C1070 C1072 1.415 . S
C1071 C1070 1.355 . S
C1071 C1073 1.419 . S
C1072 C1070 1.415 . S
C1072 C1077 1.425 . S
C1072 C1079 1.409 . S
C1073 H1065 0.930 . S
C1073 C1071 1.419 . S
C1073 C1074 1.362 . S
C1074 H1066 0.930 . S
C1074 C1073 1.362 . S
C1074 C1077 1.409 . S
C1075 H1067 0.930 . S
C1075 C1076 1.355 . S
C1075 C1077 1.415 . S
C1076 C1075 1.355 . S
C1076 C1078 1.419 . S
C1077 C1072 1.425 . S
C1077 C1074 1.409 . S
C1077 C1075 1.415 . S
C1078 H1068 0.930 . S
C1078 C1076 1.419 . S
C1078 C1079 1.362 . S
C1079 H1069 0.930 . S
C1079 C1072 1.409 . S
C1079 C1078 1.362 . S
C415 C6 1.083 . S
C420 C266 1.149 . S
C431 C40 1.087 . S
C436 C278 1.107 . S
C447 C334 1.161 . S
C452 C74 1.091 . S
C463 C130 1.159 . S
C468 C346 1.135 . S
C479 C142 1.163 . S
C484 C402 1.127 . S
C495 C232 1.092 . S
C500 C198 1.159 . S
C511 C355 0.507 . S
C516 C124 0.467 . S
C527 C151 0.672 . S
C532 C396 0.678 . S
C543 C192 0.659 . S
C548 C226 0.675 . S
C559 C15 0.428 . S
C564 C260 0.415 . S
C575 C287 0.652 . S
C580 C49 0.672 . S
C591 C328 0.545 . S
C596 C83 0.589 . S
C607 C119 1.376 . S
C612 C17 1.376 1_556 S
C623 C51 1.405 . S
C628 C153 1.405 1_556 S
C639 C187 1.375 . S
C644 C85 1.376 1_556 S
C655 C221 1.376 . S
C660 C323 1.376 . S
C671 C255 1.401 . S
C676 C357 1.401 . S
C687 C391 1.376 . S
C692 C289 1.376 . S
C703 C22 0.403 . S
C708 C362 0.412 . S
C719 C56 0.575 . S
C724 C389 0.604 . S
C735 C90 0.498 . S
C740 C219 0.462 . S
C751 C253 0.624 . S
C756 C117 0.643 . S
C767 C294 0.589 . S
C772 C158 0.555 . S
C783 C185 0.606 . S
C788 C321 0.574 . S
C799 C244 1.187 . S
C804 C108 1.174 . S
C815 C300 1.140 . S
C820 C164 1.192 . S
C831 C312 1.123 . S
C836 C176 1.173 . S
C847 C368 1.129 . S
C852 C28 1.184 . S
C863 C380 1.174 . S
C868 C62 1.125 . S
C879 C96 1.139 . S
C884 C210 1.192 . S
C895 C1 2.973 . S
C900 C273 2.969 . S
C911 C309 2.974 . S
C916 C35 2.968 . S
C927 C341 2.982 . S
C932 C69 2.967 . S
C943 C105 2.968 . S
C948 C377 2.978 . S
C959 C207 2.976 . S
C964 C137 2.978 . S
C975 C173 2.968 . S
C980 C241 2.977 . S
C991 C375 2.957 . S
C996 C103 2.953 . S
C1007 C205 2.953 . S
C1012 C139 2.959 . S
C1023 C239 2.951 . S
C1028 C171 2.959 . S
C1039 C275 2.952 . S
C1044 C3 2.959 . S
C1055 C307 2.952 . S
C1060 C37 2.956 . S
C1071 C343 2.951 . S
C1076 C71 2.958 . S
