# Generated by pormake.
# Topology lcs, (4)-cn, num edge types: 1
# Building blocks:
#     Node 0, Type 0, BuildingBlock: QUQFOY_clean_sbu_3, # of connection points: 4
#     Node 1, Type 0, BuildingBlock: QUQFOY_clean_sbu_3, # of connection points: 4
#     Node 2, Type 0, BuildingBlock: QUQFOY_clean_sbu_3, # of connection points: 4
#     Node 3, Type 0, BuildingBlock: QUQFOY_clean_sbu_3, # of connection points: 4
#     Node 4, Type 0, BuildingBlock: QUQFOY_clean_sbu_3, # of connection points: 4
#     Node 5, Type 0, BuildingBlock: QUQFOY_clean_sbu_3, # of connection points: 4
#     Node 6, Type 0, BuildingBlock: QUQFOY_clean_sbu_3, # of connection points: 4
#     Node 7, Type 0, BuildingBlock: QUQFOY_clean_sbu_3, # of connection points: 4
#     Node 8, Type 0, BuildingBlock: QUQFOY_clean_sbu_3, # of connection points: 4
#     Node 9, Type 0, BuildingBlock: QUQFOY_clean_sbu_3, # of connection points: 4
#     Node 10, Type 0, BuildingBlock: QUQFOY_clean_sbu_3, # of connection points: 4
#     Node 11, Type 0, BuildingBlock: QUQFOY_clean_sbu_3, # of connection points: 4
#     Node 12, Type 0, BuildingBlock: QUQFOY_clean_sbu_3, # of connection points: 4
#     Node 13, Type 0, BuildingBlock: QUQFOY_clean_sbu_3, # of connection points: 4
#     Node 14, Type 0, BuildingBlock: QUQFOY_clean_sbu_3, # of connection points: 4
#     Node 15, Type 0, BuildingBlock: QUQFOY_clean_sbu_3, # of connection points: 4
#     Node 16, Type 0, BuildingBlock: QUQFOY_clean_sbu_3, # of connection points: 4
#     Node 17, Type 0, BuildingBlock: QUQFOY_clean_sbu_3, # of connection points: 4
#     Node 18, Type 0, BuildingBlock: QUQFOY_clean_sbu_3, # of connection points: 4
#     Node 19, Type 0, BuildingBlock: QUQFOY_clean_sbu_3, # of connection points: 4
#     Node 20, Type 0, BuildingBlock: QUQFOY_clean_sbu_3, # of connection points: 4
#     Node 21, Type 0, BuildingBlock: QUQFOY_clean_sbu_3, # of connection points: 4
#     Node 22, Type 0, BuildingBlock: QUQFOY_clean_sbu_3, # of connection points: 4
#     Node 23, Type 0, BuildingBlock: QUQFOY_clean_sbu_3, # of connection points: 4
#     Edge 24, Type (0, 0), BuildingBlock: XIVTED_clean_linker_0, # of connection points: 2
#     Edge 25, Type (0, 0), BuildingBlock: XIVTED_clean_linker_0, # of connection points: 2
#     Edge 26, Type (0, 0), BuildingBlock: XIVTED_clean_linker_0, # of connection points: 2
#     Edge 27, Type (0, 0), BuildingBlock: XIVTED_clean_linker_0, # of connection points: 2
#     Edge 28, Type (0, 0), BuildingBlock: XIVTED_clean_linker_0, # of connection points: 2
#     Edge 29, Type (0, 0), BuildingBlock: XIVTED_clean_linker_0, # of connection points: 2
#     Edge 30, Type (0, 0), BuildingBlock: XIVTED_clean_linker_0, # of connection points: 2
#     Edge 31, Type (0, 0), BuildingBlock: XIVTED_clean_linker_0, # of connection points: 2
#     Edge 32, Type (0, 0), BuildingBlock: XIVTED_clean_linker_0, # of connection points: 2
#     Edge 33, Type (0, 0), BuildingBlock: XIVTED_clean_linker_0, # of connection points: 2
#     Edge 34, Type (0, 0), BuildingBlock: XIVTED_clean_linker_0, # of connection points: 2
#     Edge 35, Type (0, 0), BuildingBlock: XIVTED_clean_linker_0, # of connection points: 2
#     Edge 36, Type (0, 0), BuildingBlock: XIVTED_clean_linker_0, # of connection points: 2
#     Edge 37, Type (0, 0), BuildingBlock: XIVTED_clean_linker_0, # of connection points: 2
#     Edge 38, Type (0, 0), BuildingBlock: XIVTED_clean_linker_0, # of connection points: 2
#     Edge 39, Type (0, 0), BuildingBlock: XIVTED_clean_linker_0, # of connection points: 2
#     Edge 40, Type (0, 0), BuildingBlock: XIVTED_clean_linker_0, # of connection points: 2
#     Edge 41, Type (0, 0), BuildingBlock: XIVTED_clean_linker_0, # of connection points: 2
#     Edge 42, Type (0, 0), BuildingBlock: XIVTED_clean_linker_0, # of connection points: 2
#     Edge 43, Type (0, 0), BuildingBlock: XIVTED_clean_linker_0, # of connection points: 2
#     Edge 44, Type (0, 0), BuildingBlock: XIVTED_clean_linker_0, # of connection points: 2
#     Edge 45, Type (0, 0), BuildingBlock: XIVTED_clean_linker_0, # of connection points: 2
#     Edge 46, Type (0, 0), BuildingBlock: XIVTED_clean_linker_0, # of connection points: 2
#     Edge 47, Type (0, 0), BuildingBlock: XIVTED_clean_linker_0, # of connection points: 2
#     Edge 48, Type (0, 0), BuildingBlock: XIVTED_clean_linker_0, # of connection points: 2
#     Edge 49, Type (0, 0), BuildingBlock: XIVTED_clean_linker_0, # of connection points: 2
#     Edge 50, Type (0, 0), BuildingBlock: XIVTED_clean_linker_0, # of connection points: 2
#     Edge 51, Type (0, 0), BuildingBlock: XIVTED_clean_linker_0, # of connection points: 2
#     Edge 52, Type (0, 0), BuildingBlock: XIVTED_clean_linker_0, # of connection points: 2
#     Edge 53, Type (0, 0), BuildingBlock: XIVTED_clean_linker_0, # of connection points: 2
#     Edge 54, Type (0, 0), BuildingBlock: XIVTED_clean_linker_0, # of connection points: 2
#     Edge 55, Type (0, 0), BuildingBlock: XIVTED_clean_linker_0, # of connection points: 2
#     Edge 56, Type (0, 0), BuildingBlock: XIVTED_clean_linker_0, # of connection points: 2
#     Edge 57, Type (0, 0), BuildingBlock: XIVTED_clean_linker_0, # of connection points: 2
#     Edge 58, Type (0, 0), BuildingBlock: XIVTED_clean_linker_0, # of connection points: 2
#     Edge 59, Type (0, 0), BuildingBlock: XIVTED_clean_linker_0, # of connection points: 2
#     Edge 60, Type (0, 0), BuildingBlock: XIVTED_clean_linker_0, # of connection points: 2
#     Edge 61, Type (0, 0), BuildingBlock: XIVTED_clean_linker_0, # of connection points: 2
#     Edge 62, Type (0, 0), BuildingBlock: XIVTED_clean_linker_0, # of connection points: 2
#     Edge 63, Type (0, 0), BuildingBlock: XIVTED_clean_linker_0, # of connection points: 2
#     Edge 64, Type (0, 0), BuildingBlock: XIVTED_clean_linker_0, # of connection points: 2
#     Edge 65, Type (0, 0), BuildingBlock: XIVTED_clean_linker_0, # of connection points: 2
#     Edge 66, Type (0, 0), BuildingBlock: XIVTED_clean_linker_0, # of connection points: 2
#     Edge 67, Type (0, 0), BuildingBlock: XIVTED_clean_linker_0, # of connection points: 2
#     Edge 68, Type (0, 0), BuildingBlock: XIVTED_clean_linker_0, # of connection points: 2
#     Edge 69, Type (0, 0), BuildingBlock: XIVTED_clean_linker_0, # of connection points: 2
#     Edge 70, Type (0, 0), BuildingBlock: XIVTED_clean_linker_0, # of connection points: 2
#     Edge 71, Type (0, 0), BuildingBlock: XIVTED_clean_linker_0, # of connection points: 2
# Relax obj value: 0.004
# Max RMSD: 0.037
# Mean RMSD: 0.027
data_MOF--net-lcs--node1-QUQFOY_clean_sbu_3--edge1-XIVTED_clean_linker_0
_symmetry_space_group_name_H-M    P1
_symmetry_Int_Tables_number       1
_symmetry_cell_setting            triclinic
loop_
_symmetry_equiv_pos_as_xyz
'x, y, z'
_cell_length_a     51.039871
_cell_length_b     51.848332
_cell_length_c     51.793271
_cell_angle_alpha  91.554091
_cell_angle_beta   89.92452
_cell_angle_gamma 91.272211
loop_
_atom_site_label
_atom_site_type_symbol
_atom_site_fract_x
_atom_site_fract_y
_atom_site_fract_z
_atom_type_partial_charge
C0 C 0.94766 0.24003 0.41627 0.0
O1 O 0.95744 0.22223 0.42929 0.0
Cd2 Cd -0.00452 0.19936 0.41728 0.0
O3 O 0.95871 0.24756 0.3956 0.0
Cd4 Cd -0.00097 0.23796 0.37021 0.0
C5 C 0.97643 0.17759 0.35653 0.0
O6 O 0.02662 0.23236 0.40701 0.0
O7 O 0.04346 0.21965 0.37085 0.0
O8 O 0.00772 0.28368 0.36697 0.0
C9 C 0.04634 0.22406 0.39489 0.0
O10 O 0.98107 0.17307 0.3801 0.0
C11 C 0.00963 0.28377 0.34256 0.0
O12 O 0.9805 0.19994 0.34755 0.0
O13 O 0.00554 0.26241 0.33047 0.0
C14 C 0.95193 0.75745 0.56609 0.0
O15 O 0.97272 0.76669 0.5561 0.0
Cd16 Cd 0.01533 0.76341 0.57462 0.0
O17 O 0.95278 0.74512 0.58702 0.0
Cd18 Cd -0.01472 0.73085 0.61867 0.0
C19 C 0.00556 0.79199 0.63428 0.0
O20 O 0.0183 0.71949 0.58713 0.0
O21 O 0.02945 0.71633 0.62722 0.0
O22 O 0.96421 0.68889 0.62317 0.0
C23 C 0.03528 0.71329 0.60355 0.0
O24 O 0.01525 0.79329 0.61168 0.0
C25 C 0.95795 0.69236 0.64671 0.0
O26 O -0.00653 0.77177 0.64163 0.0
O27 O 0.96389 0.71411 0.65722 0.0
C28 C 0.44939 0.75608 0.9301 0.0
O29 O 0.45934 0.73853 0.94336 0.0
Cd30 Cd 0.49658 0.71429 0.93138 0.0
O31 O 0.45989 0.76284 0.90889 0.0
Cd32 Cd 0.49938 0.7514 0.88304 0.0
C33 C 0.47526 0.69093 0.87214 0.0
O34 O 0.52862 0.74605 0.91928 0.0
O35 O 0.54304 0.73271 0.88229 0.0
O36 O 0.50593 0.797 0.87379 0.0
C37 C 0.54738 0.73709 0.90609 0.0
O38 O 0.48051 0.68656 0.89562 0.0
C39 C 0.50966 0.79319 0.84975 0.0
O40 O 0.47939 0.71308 0.86279 0.0
O41 O 0.50755 0.77008 0.84117 0.0
C42 C 0.44721 0.25329 0.07117 0.0
O43 O 0.46809 0.25621 0.05812 0.0
Cd44 Cd 0.50944 0.24003 0.07163 0.0
O45 O 0.44741 0.24157 0.09245 0.0
Cd46 Cd 0.47799 0.21981 0.12078 0.0
C47 C 0.51558 0.2735 0.12943 0.0
O48 O 0.50067 0.19718 0.08614 0.0
O49 O 0.51847 0.196 0.12378 0.0
O50 O 0.44112 0.19139 0.13061 0.0
C51 C 0.51851 0.18857 0.10028 0.0
O52 O 0.52457 0.26907 0.10682 0.0
C53 C 0.44554 0.19123 0.15472 0.0
O54 O 0.49697 0.2597 0.13843 0.0
O55 O 0.46484 0.20483 0.16314 0.0
C56 C 0.9535 0.71936 0.07829 0.0
O57 O 0.96382 0.73435 0.062 0.0
Cd58 Cd -0.00203 0.76429 0.07338 0.0
O59 O 0.96279 0.7178 0.10103 0.0
Cd60 Cd 0.0012 0.73304 0.12722 0.0
C61 C 0.97363 0.79106 0.13095 0.0
O62 O 0.02994 0.73722 0.09089 0.0
O63 O 0.04469 0.75491 0.12608 0.0
O64 O 0.00349 0.68774 0.13616 0.0
C65 C 0.04831 0.74954 0.10235 0.0
O66 O 0.97876 0.79254 0.10692 0.0
C67 C 0.00885 0.69069 0.15997 0.0
O68 O 0.97921 0.77113 0.1435 0.0
O69 O 0.01061 0.71371 0.16899 0.0
C70 C 0.44088 0.71854 0.39992 0.0
O71 O 0.45986 0.71694 0.41551 0.0
Cd72 Cd 0.50343 0.72018 0.39961 0.0
O73 O 0.44456 0.72575 0.37686 0.0
Cd74 Cd 0.48019 0.74438 0.35003 0.0
C75 C 0.49922 0.68399 0.34217 0.0
O76 O 0.50815 0.76288 0.38376 0.0
O77 O 0.52634 0.75708 0.34642 0.0
O78 O 0.45098 0.77979 0.34584 0.0
C79 C 0.52787 0.76633 0.36928 0.0
O80 O 0.50606 0.68609 0.36581 0.0
C81 C 0.4541 0.78236 0.32175 0.0
O82 O 0.48874 0.70256 0.33077 0.0
O83 O 0.46917 0.76661 0.3102 0.0
C84 C 0.45378 0.23349 0.58949 0.0
O85 O 0.46217 0.25174 0.57564 0.0
Cd86 Cd 0.50288 0.27437 0.5827 0.0
O87 O 0.46694 0.22624 0.60876 0.0
Cd88 Cd 0.50871 0.23701 0.63089 0.0
C89 C 0.4916 0.29821 0.64433 0.0
O90 O 0.53332 0.24172 0.59144 0.0
O91 O 0.55335 0.25523 0.62583 0.0
O92 O 0.50934 0.19091 0.63706 0.0
C93 C 0.55399 0.25119 0.6016 0.0
O94 O 0.49656 0.30239 0.62068 0.0
C95 C 0.51766 0.19237 0.66013 0.0
O96 O 0.49206 0.27549 0.65306 0.0
O97 O 0.52154 0.21484 0.66999 0.0
C98 C 0.94467 0.23646 0.91888 0.0
O99 O 0.96475 0.23174 0.93223 0.0
Cd100 Cd 0.00809 0.23917 0.91595 0.0
O101 O 0.94708 0.24588 0.89654 0.0
Cd102 Cd 0.98095 0.26104 0.86632 0.0
C103 C 0.00438 0.20126 0.86023 0.0
O104 O 0.00921 0.2816 0.89868 0.0
O105 O 0.02622 0.27604 0.86079 0.0
O106 O 0.9506 0.29519 0.85919 0.0
C107 C 0.0282 0.2857 0.88345 0.0
O108 O 0.01411 0.20552 0.88262 0.0
C109 C 0.95316 0.29524 0.83484 0.0
O110 O -0.01025 0.21771 0.84994 0.0
O111 O 0.96844 0.27879 0.82473 0.0
C112 C 0.39101 0.94635 0.24961 0.0
O113 O 0.40393 0.95822 0.23247 0.0
Cd114 Cd 0.38977 -0.00145 0.21592 0.0
O115 O 0.37063 0.9562 0.25962 0.0
Cd116 Cd 0.34413 -0.00488 0.25807 0.0
C117 C 0.32743 0.97903 0.19708 0.0
O118 O 0.37871 0.02706 0.25104 0.0
O119 O 0.33922 0.03875 0.24305 0.0
O120 O 0.34561 -0.00187 0.30444 0.0
C121 C 0.36334 0.04485 0.24504 0.0
O122 O 0.3504 -0.0129 0.19126 0.0
C123 C 0.32106 -0.00062 0.30793 0.0
O124 O 0.32008 0.97787 0.22056 0.0
O125 O 0.30661 -0.00258 0.28795 0.0
C126 C 0.19491 0.16491 0.502 0.0
O127 O 0.20088 0.17689 0.52295 0.0
Cd128 Cd 0.23536 0.16474 0.55092 0.0
O129 O 0.20692 0.14463 0.49493 0.0
Cd130 Cd 0.24235 0.11784 0.51125 0.0
C131 C 0.21286 0.1052 0.56817 0.0
O132 O 0.27042 0.15421 0.52236 0.0
O133 O 0.28413 0.11782 0.53559 0.0
O134 O 0.26001 0.11069 0.46841 0.0
C135 C 0.2885 0.14175 0.5326 0.0
O136 O 0.21915 0.12819 0.57528 0.0
C137 C 0.2563 0.08643 0.46761 0.0
O138 O 0.21736 0.09698 0.54526 0.0
O139 O 0.24548 0.07637 0.48711 0.0
C140 C 0.04837 0.03831 0.76256 0.0
O141 O 0.03539 0.0305 0.7428 0.0
Cd142 Cd 0.04454 -0.00783 0.71712 0.0
O143 O 0.0682 0.02607 0.77015 0.0
Cd144 Cd 0.09356 -0.01207 0.75761 0.0
C145 C 0.10576 0.00955 0.69678 0.0
O146 O 0.05506 0.96104 0.74848 0.0
O147 O 0.0921 0.94251 0.74317 0.0
O148 O 0.10544 0.98451 0.80301 0.0
C149 C 0.06734 0.94089 0.74222 0.0
O150 O 0.08221 0.00388 0.6904 0.0
C151 C 0.12968 0.98138 0.79848 0.0
O152 O 0.11367 0.00691 0.71983 0.0
O153 O 0.13698 0.98189 0.77506 0.0
C154 C 0.27808 0.82763 -0.01083 0.0
O155 O 0.26607 0.81516 0.00652 0.0
Cd156 Cd 0.22493 0.82511 0.02563 0.0
O157 O 0.26828 0.84779 0.97984 0.0
Cd158 Cd 0.22774 0.87286 0.98652 0.0
C159 C 0.24196 0.88564 0.04934 0.0
O160 O 0.19803 0.83637 -0.0094 0.0
O161 O 0.18226 0.87283 0.00239 0.0
O162 O 0.22668 0.88096 0.94046 0.0
C163 C 0.17859 0.84874 -0.00103 0.0
O164 O 0.23413 0.86269 0.05382 0.0
C165 C 0.22221 0.90487 0.94324 0.0
O166 O 0.24364 0.89361 0.02634 0.0
O167 O 0.22132 0.91406 0.96619 0.0
C168 C 0.27777 0.32327 0.00982 0.0
O169 O 0.25677 0.31084 0.01485 0.0
Cd170 Cd 0.21452 0.32704 0.0066 0.0
O171 O 0.27706 0.34489 -0.00126 0.0
Cd172 Cd 0.24379 0.37336 0.98045 0.0
C173 C 0.21962 0.38556 0.03953 0.0
O174 O 0.21425 0.34011 0.96252 0.0
O175 O 0.19886 0.3785 0.966 0.0
O176 O 0.27285 0.37833 0.94371 0.0
C177 C 0.19609 0.35546 0.95751 0.0
O178 O 0.2102 0.36262 0.03807 0.0
C179 C 0.2712 0.40267 0.94298 0.0
O180 O 0.23365 0.39465 0.02147 0.0
O181 O 0.25747 0.41361 0.96037 0.0
C182 C 0.76648 0.17351 0.96913 0.0
O183 O 0.74615 0.18451 0.96121 0.0
Cd184 Cd 0.70353 0.16483 0.96482 0.0
O185 O 0.76464 0.15163 0.9796 0.0
Cd186 Cd 0.73041 0.11992 -0.00854 0.0
C187 C 0.71175 0.1083 0.93017 0.0
O188 O 0.69838 0.14977 0.00799 0.0
O189 O 0.68412 0.11066 0.0003 0.0
O190 O 0.74888 0.11465 0.03372 0.0
C191 C 0.68039 0.13278 0.01054 0.0
O192 O 0.70101 0.1302 0.93204 0.0
C193 C 0.75433 0.09106 0.03053 0.0
O194 O 0.7253 0.10002 0.94867 0.0
O195 O 0.74926 0.08058 0.0086 0.0
C196 C 0.15634 0.494 0.28969 0.0
O197 O 0.17206 0.47685 0.28169 0.0
Cd198 Cd 0.16531 0.45171 0.24251 0.0
O199 O 0.13626 0.49949 0.27647 0.0
Cd200 Cd 0.11314 0.48902 0.23559 0.0
C201 C 0.10289 0.4279 0.25607 0.0
O202 O 0.15333 0.483 0.21208 0.0
O203 O 0.11813 0.4774 0.18954 0.0
O204 O 0.10535 0.535 0.23704 0.0
C205 C 0.14292 0.47711 0.19051 0.0
O206 O 0.12751 0.42485 0.25398 0.0
C207 C 0.08142 0.53297 0.23047 0.0
O208 O 0.09245 0.44923 0.25086 0.0
O209 O 0.07204 0.51029 0.22653 0.0
C210 C 0.77593 0.80422 0.50036 0.0
O211 O 0.75542 0.79075 0.50471 0.0
Cd212 Cd 0.71241 0.80491 0.49436 0.0
O213 O 0.77436 0.82606 0.48987 0.0
Cd214 Cd 0.74045 0.85394 0.47278 0.0
C215 C 0.71128 0.86156 0.53024 0.0
O216 O 0.71297 0.82077 0.45139 0.0
O217 O 0.69575 0.85808 0.45771 0.0
O218 O 0.76989 0.863 0.43723 0.0
C219 C 0.69422 0.83573 0.44725 0.0
O220 O 0.70169 0.83899 0.52577 0.0
C221 C 0.76695 0.88724 0.43811 0.0
O222 O 0.72826 0.87136 0.51513 0.0
O223 O 0.75249 0.89626 0.45601 0.0
C224 C 0.81474 0.98277 0.27956 0.0
O225 O 0.79997 0.00072 0.27263 0.0
Cd226 Cd 0.8096 0.02688 0.23618 0.0
O227 O 0.83476 0.97673 0.26618 0.0
Cd228 Cd 0.85799 -0.01173 0.2261 0.0
C229 C 0.87228 0.04656 0.25394 0.0
O230 O 0.82005 -0.00133 0.20064 0.0
O231 O 0.85795 0.00828 0.18418 0.0
O232 O 0.85954 0.94343 0.21264 0.0
C233 C 0.83321 0.00731 0.18182 0.0
O234 O 0.84803 0.05115 0.25143 0.0
C235 C 0.88433 0.94229 0.21184 0.0
O236 O 0.88164 0.02498 0.24663 0.0
O237 O 0.89732 0.96259 0.21854 0.0
C238 C 0.26694 0.65954 0.46476 0.0
O239 O 0.24644 0.67284 0.46305 0.0
Cd240 Cd 0.20449 0.65877 0.47858 0.0
O241 O 0.26687 0.63844 0.47683 0.0
Cd242 Cd 0.23764 0.61126 0.50344 0.0
C243 C 0.20176 0.59764 0.4497 0.0
O244 O 0.21482 0.6474 0.5214 0.0
O245 O 0.19881 0.61046 0.53201 0.0
O246 O 0.27572 0.60662 0.5308 0.0
C247 C 0.19779 0.63483 0.53388 0.0
O248 O 0.19341 0.62063 0.45133 0.0
C249 C 0.27188 0.58269 0.53436 0.0
O250 O 0.2185 0.58971 0.46568 0.0
O251 O 0.25246 0.57184 0.52283 0.0
C252 C 0.33135 0.48887 0.7826 0.0
O253 O 0.31623 0.50494 0.77261 0.0
Cd254 Cd 0.32935 0.52943 0.73621 0.0
O255 O 0.35344 0.48396 0.77232 0.0
Cd256 Cd 0.38049 0.49529 0.7344 0.0
C257 C 0.38729 0.55463 0.76152 0.0
O258 O 0.34501 0.49962 0.70366 0.0
O259 O 0.38293 0.51451 0.69199 0.0
O260 O 0.38845 0.44939 0.73088 0.0
C261 C 0.35926 0.5093 0.68616 0.0
O262 O 0.36343 0.55767 0.75537 0.0
C263 C 0.41295 0.45176 0.7272 0.0
O264 O 0.39867 0.53347 0.75663 0.0
O265 O 0.42262 0.47456 0.72736 0.0
C266 C 0.67084 -0.00618 0.77613 0.0
O267 O 0.68407 0.97435 0.76927 0.0
Cd268 Cd 0.66983 0.94682 0.73329 0.0
O269 O 0.65002 -0.00086 0.76411 0.0
Cd270 Cd 0.62193 0.98508 0.72805 0.0
C271 C 0.60879 0.92794 0.75501 0.0
O272 O 0.65751 0.97389 0.69857 0.0
O273 O 0.61835 0.96262 0.68644 0.0
O274 O 0.61733 0.03107 0.72317 0.0
C275 C 0.64263 0.96371 0.68135 0.0
O276 O 0.63188 0.92173 0.74828 0.0
C277 C 0.59265 0.03023 0.72017 0.0
O278 O 0.60068 0.95069 0.75194 0.0
O279 O 0.58137 0.00815 0.72061 0.0
C280 C 0.69908 0.66462 -0.00086 0.0
O281 O 0.70821 0.67527 0.01973 0.0
Cd282 Cd 0.74313 0.65892 0.0451 0.0
O283 O 0.70789 0.64326 -0.00958 0.0
Cd284 Cd 0.74052 0.61051 0.0003 0.0
C285 C 0.71381 0.60059 0.05968 0.0
O286 O 0.77163 0.64367 0.01225 0.0
O287 O 0.78675 0.60535 0.0138 0.0
O288 O 0.74049 0.60339 0.95372 0.0
C289 C 0.79054 0.6294 0.01733 0.0
O290 O 0.72293 0.62261 0.06714 0.0
C291 C 0.74252 0.57905 0.95458 0.0
O292 O 0.71638 0.59248 0.03641 0.0
O293 O 0.74314 0.56929 0.97679 0.0
C294 C 0.88934 0.44989 0.74603 0.0
O295 O 0.90349 0.46012 0.72869 0.0
Cd296 Cd 0.89483 0.5005 0.70892 0.0
O297 O 0.86893 0.46102 0.75458 0.0
Cd298 Cd 0.84349 0.5004 0.74859 0.0
C299 C 0.83365 0.48335 0.68542 0.0
O300 O 0.88171 0.5278 0.74392 0.0
O301 O 0.84508 0.54665 0.73869 0.0
O302 O 0.83453 0.49829 0.79456 0.0
C303 C 0.86987 0.54826 0.73896 0.0
O304 O 0.85743 0.48994 0.68114 0.0
C305 C 0.81048 0.50375 0.79271 0.0
O306 O 0.82423 0.48387 0.70822 0.0
O307 O 0.80157 0.50692 0.77014 0.0
C308 C 0.78194 0.31952 0.48078 0.0
O309 O 0.77016 0.30814 0.499 0.0
Cd310 Cd 0.73034 0.32056 0.51934 0.0
O311 O 0.77278 0.33994 0.47139 0.0
Cd312 Cd 0.73402 0.36709 0.47971 0.0
C313 C 0.75056 0.38041 0.54178 0.0
O314 O 0.70263 0.33203 0.4849 0.0
O315 O 0.68926 0.36925 0.49735 0.0
O316 O 0.73087 0.37594 0.43388 0.0
C317 C 0.68415 0.3454 0.49384 0.0
O318 O 0.74157 0.35805 0.54703 0.0
C319 C 0.72849 0.40013 0.43726 0.0
O320 O 0.75226 0.38763 0.51853 0.0
O321 O 0.72969 0.40896 0.46034 0.0
C322 C 0.55034 0.52039 0.25327 0.0
O323 O 0.53613 0.50822 0.23673 0.0
Cd324 Cd 0.55291 0.47326 0.2107 0.0
O325 O 0.57323 0.51287 0.25866 0.0
Cd326 Cd 0.60246 0.47679 0.24837 0.0
C327 C 0.61039 0.50188 0.18976 0.0
O328 O 0.56955 0.44294 0.24024 0.0
O329 O 0.60867 0.43498 0.22695 0.0
O330 O 0.61212 0.47449 0.29419 0.0
C331 C 0.58526 0.42704 0.23005 0.0
O332 O 0.58777 0.49259 0.18389 0.0
C333 C 0.63678 0.47337 0.29115 0.0
O334 O 0.61957 0.49995 0.21241 0.0
O335 O 0.64545 0.47426 0.2682 0.0
H336 H 0.05177 0.41394 0.24489 0.0
H337 H 0.03474 0.32556 0.3643 0.0
H338 H 0.11746 0.39474 0.29253 0.0
H339 H 0.00621 0.29488 0.291 0.0
H340 H 0.05535 0.36166 0.34204 0.0
H341 H 0.0256 0.37927 0.26518 0.0
C342 C 0.06061 0.40245 0.25956 0.0
C343 C 0.08678 0.40699 0.26703 0.0
C344 C 0.04425 0.34716 0.33096 0.0
C345 C 0.05708 0.36846 0.29047 0.0
C346 C 0.03239 0.32665 0.34358 0.0
C347 C 0.01894 0.30711 0.3294 0.0
C348 C 0.04215 0.34847 0.3041 0.0
C349 C 0.01661 0.3095 0.30255 0.0
C350 C 0.04578 0.38278 0.27097 0.0
C351 C 0.09743 0.39167 0.28609 0.0
N352 N 0.02817 0.32991 0.29065 0.0
N353 N 0.08243 0.3733 0.29741 0.0
H354 H 0.9418 0.78763 0.52489 0.0
H355 H 0.78675 0.76265 0.52984 0.0
H356 H 0.90377 0.73751 0.57945 0.0
H357 H 0.82412 0.82449 0.48822 0.0
H358 H 0.82988 0.74895 0.54383 0.0
H359 H 0.89907 0.79695 0.50677 0.0
C360 C 0.9245 0.77845 0.53297 0.0
C361 C 0.92636 0.76192 0.55387 0.0
C362 C 0.8286 0.76546 0.53156 0.0
C363 C 0.8774 0.77254 0.5332 0.0
C364 C 0.80401 0.77326 0.52352 0.0
C365 C 0.80182 0.79487 0.50798 0.0
C366 C 0.85113 0.77926 0.52386 0.0
C367 C 0.82486 0.80785 0.50035 0.0
C368 C 0.9001 0.78384 0.52264 0.0
C369 C 0.90325 0.75053 0.56347 0.0
N370 N 0.84854 0.79987 0.50841 0.0
N371 N 0.87969 0.75612 0.5531 0.0
H372 H 0.43927 0.56863 0.75929 0.0
H373 H 0.44038 0.65364 0.88662 0.0
H374 H 0.36677 0.58702 0.79782 0.0
H375 H 0.48309 0.6814 0.82061 0.0
H376 H 0.41916 0.62039 0.85867 0.0
H377 H 0.46186 0.60235 0.78596 0.0
C378 C 0.42818 0.57978 0.77331 0.0
C379 C 0.40117 0.57527 0.77636 0.0
C380 C 0.43328 0.63375 0.85045 0.0
C381 C 0.42678 0.61282 0.80705 0.0
C382 C 0.44545 0.65254 0.8663 0.0
C383 C 0.46336 0.67023 0.85578 0.0
C384 C 0.43972 0.63223 0.82415 0.0
C385 C 0.4692 0.66815 0.82933 0.0
C386 C 0.441 0.59893 0.78837 0.0
C387 C 0.38758 0.59014 0.79477 0.0
N388 N 0.45756 0.64926 0.81435 0.0
N389 N 0.40062 0.60806 0.80972 0.0
H390 H 0.52117 0.16278 0.05372 0.0
H391 H 0.67436 0.16962 0.0481 0.0
H392 H 0.56747 0.18524 0.12065 0.0
H393 H 0.63205 0.1092 0.00574 0.0
H394 H 0.63435 0.17958 0.07199 0.0
H395 H 0.56071 0.1459 0.0329 0.0
C396 C 0.53959 0.16388 0.06411 0.0
C397 C 0.54119 0.17553 0.08883 0.0
C398 C 0.6339 0.16404 0.05757 0.0
C399 C 0.58616 0.15686 0.06508 0.0
C400 C 0.65659 0.1585 0.04382 0.0
C401 C 0.65635 0.13866 0.02492 0.0
C402 C 0.61071 0.15004 0.05193 0.0
C403 C 0.63293 0.12465 0.02023 0.0
C404 C 0.56203 0.15422 0.05228 0.0
C405 C 0.56543 0.17643 0.10155 0.0
N406 N 0.61083 0.13084 0.03346 0.0
N407 N 0.58711 0.1676 0.08934 0.0
H408 H 0.0337 0.53532 0.20682 0.0
H409 H 0.03554 0.68961 0.20581 0.0
H410 H 0.09389 0.58314 0.24358 0.0
H411 H -0.00546 0.6406 0.14983 0.0
H412 H 0.04909 0.65101 0.22825 0.0
H413 H 0.0112 0.57429 0.19444 0.0
C414 C 0.04197 0.554 0.21261 0.0
C415 C 0.06588 0.55605 0.22589 0.0
C416 C 0.03684 0.6488 0.21124 0.0
C417 C 0.04028 0.60056 0.21187 0.0
C418 C 0.02904 0.67077 0.19851 0.0
C419 C 0.01422 0.6682 0.17577 0.0
C420 C 0.02945 0.62425 0.20126 0.0
C421 C 0.00628 0.64338 0.16711 0.0
C422 C 0.02918 0.5762 0.20548 0.0
C423 C 0.07567 0.58073 0.23302 0.0
N424 N 0.01412 0.62234 0.17979 0.0
N425 N 0.06293 0.60207 0.22575 0.0
H426 H 0.5337 0.79788 0.41182 0.0
H427 H 0.68825 0.79363 0.41481 0.0
H428 H 0.57737 0.76165 0.34987 0.0
H429 H 0.64587 0.85695 0.44933 0.0
H430 H 0.64761 0.77787 0.39403 0.0
H431 H 0.5747 0.81622 0.42945 0.0
C432 C 0.55194 0.79385 0.40193 0.0
C433 C 0.55227 0.77824 0.37942 0.0
C434 C 0.64734 0.79531 0.40602 0.0
C435 C 0.599 0.79881 0.39956 0.0
C436 C 0.67041 0.80421 0.41794 0.0
C437 C 0.6703 0.82655 0.43381 0.0
C438 C 0.62403 0.80857 0.41049 0.0
C439 C 0.64676 0.83966 0.43719 0.0
C440 C 0.57524 0.80439 0.41191 0.0
C441 C 0.57634 0.77367 0.36724 0.0
N442 N 0.62445 0.83031 0.42583 0.0
N443 N 0.59888 0.7837 0.37764 0.0
H444 H 0.46303 0.29716 0.68918 0.0
H445 H 0.46197 0.45093 0.70589 0.0
H446 H 0.50352 0.34916 0.6382 0.0
H447 H 0.40006 0.40099 0.73396 0.0
H448 H 0.48522 0.41285 0.69001 0.0
H449 H 0.44749 0.33451 0.71446 0.0
C450 C 0.46893 0.31639 0.68353 0.0
C451 C 0.48428 0.32013 0.66139 0.0
C452 C 0.4667 0.41027 0.69994 0.0
C453 C 0.46688 0.36268 0.69024 0.0
C454 C 0.45349 0.43195 0.7091 0.0
C455 C 0.42892 0.42907 0.72094 0.0
C456 C 0.45535 0.38562 0.70293 0.0
C457 C 0.41883 0.40404 0.72463 0.0
C458 C 0.46002 0.33764 0.69789 0.0
C459 C 0.49139 0.34545 0.65492 0.0
N460 N 0.43202 0.38323 0.7155 0.0
N461 N 0.48257 0.36577 0.66923 0.0
H462 H 0.89771 0.25127 0.89963 0.0
H463 H 0.81332 0.15896 -0.01094 0.0
H464 H 0.93141 0.20774 0.96077 0.0
H465 H 0.77917 0.21532 0.94007 0.0
H466 H 0.85673 0.17692 0.97948 0.0
H467 H 0.85408 0.23868 0.91456 0.0
C468 C 0.89594 0.23915 0.91628 0.0
C469 C 0.91824 0.23036 0.92886 0.0
C470 C 0.83972 0.18551 0.97102 0.0
C471 C 0.86833 0.21579 0.94596 0.0
C472 C 0.81493 0.17522 0.97641 0.0
C473 C 0.7926 0.18552 0.96516 0.0
C474 C 0.84223 0.20605 0.95403 0.0
C475 C 0.79585 0.20671 0.94909 0.0
C476 C 0.871 0.23205 0.92485 0.0
C477 C 0.91475 0.21489 0.95046 0.0
N478 N 0.82025 0.21612 0.9438 0.0
N479 N 0.89023 0.20788 0.95819 0.0
H480 H 0.29805 0.09673 0.43717 0.0
H481 H 0.26952 -0.00049 0.32382 0.0
H482 H 0.23528 0.04087 0.44768 0.0
H483 H 0.34855 0.01505 0.35058 0.0
H484 H 0.25296 0.01752 0.36506 0.0
H485 H 0.31357 0.07115 0.40014 0.0
C486 C 0.28751 0.07908 0.43159 0.0
C487 C 0.26541 0.07081 0.44539 0.0
C488 C 0.2739 0.01647 0.3619 0.0
C489 C 0.28281 0.04178 0.403 0.0
C490 C 0.28334 0.00629 0.33847 0.0
C491 C 0.31043 0.00602 0.33371 0.0
C492 C 0.29171 0.02693 0.38015 0.0
C493 C 0.32752 0.015 0.35333 0.0
C494 C 0.29645 0.06446 0.41064 0.0
C495 C 0.2525 0.04774 0.4375 0.0
N496 N 0.31787 0.02556 0.37548 0.0
N497 N 0.26119 0.03408 0.41646 0.0
H498 H 0.15267 0.03457 0.70568 0.0
H499 H 0.18255 0.06195 0.55756 0.0
H500 H 0.10017 0.0097 0.64412 0.0
H501 H 0.21254 0.10993 0.62075 0.0
H502 H 0.15818 0.03585 0.58867 0.0
H503 H 0.18096 0.0554 0.67401 0.0
C504 C 0.1472 0.03328 0.68548 0.0
C505 C 0.1239 0.02056 0.67754 0.0
C506 C 0.17023 0.05203 0.59564 0.0
C507 C 0.15625 0.04426 0.64129 0.0
C508 C 0.1842 0.06684 0.57797 0.0
C509 C 0.19942 0.08823 0.58662 0.0
C510 C 0.17188 0.05845 0.62209 0.0
C511 C 0.20084 0.09375 0.61325 0.0
C512 C 0.1633 0.04526 0.66746 0.0
C513 C 0.11782 0.01951 0.6511 0.0
N514 N 0.18725 0.07892 0.63006 0.0
N515 N 0.13392 0.03125 0.63387 0.0
H516 H 0.18015 0.96546 0.79343 0.0
H517 H 0.23035 0.89359 0.89207 0.0
H518 H 0.12142 0.98384 0.8507 0.0
H519 H 0.19807 0.95134 0.94379 0.0
H520 H 0.21266 0.91628 0.8555 0.0
H521 H 0.2087 0.95082 0.8277 0.0
C522 C 0.17334 0.9666 0.81324 0.0
C523 C 0.1482 0.97545 0.81922 0.0
C524 C 0.21009 0.92443 0.87477 0.0
C525 C 0.18055 0.95841 0.85834 0.0
C526 C 0.22003 0.91137 0.89567 0.0
C527 C 0.21556 0.92056 0.92096 0.0
C528 C 0.19531 0.94664 0.87929 0.0
C529 C 0.20197 0.94362 0.92458 0.0
C530 C 0.18956 0.95803 0.83273 0.0
C531 C 0.1405 0.97678 0.84522 0.0
N532 N 0.19184 0.9556 0.90396 0.0
N533 N 0.1566 0.96822 0.86385 0.0
H534 H 0.26715 0.93275 0.04741 0.0
H535 H 0.28379 0.94747 0.20067 0.0
H536 H 0.2354 0.87784 0.10104 0.0
H537 H 0.33148 -0.01144 0.14571 0.0
H538 H 0.25865 0.92771 0.16475 0.0
H539 H 0.28367 0.95916 0.08386 0.0
C540 C 0.26345 0.92634 0.06683 0.0
C541 C 0.25019 0.90286 0.07117 0.0
C542 C 0.27447 0.94126 0.16064 0.0
C543 C 0.26897 0.93303 0.11291 0.0
C544 C 0.28873 0.95261 0.1811 0.0
C545 C 0.30997 0.96939 0.17613 0.0
C546 C 0.28139 0.94695 0.13512 0.0
C547 C 0.3155 0.97542 0.1504 0.0
C548 C 0.27292 0.94142 0.08762 0.0
C549 C 0.24583 0.89563 0.09678 0.0
N550 N 0.3014 0.96409 0.13086 0.0
N551 N 0.25534 0.91059 0.1167 0.0
H552 H 0.32718 0.34055 -0.00298 0.0
H553 H 0.39796 0.24328 0.0894 0.0
H554 H 0.28615 0.28212 0.04029 0.0
H555 H 0.43967 0.28616 0.03132 0.0
H556 H 0.3569 0.26002 0.07372 0.0
H557 H 0.36885 0.32331 0.01128 0.0
C558 C 0.32692 0.32409 0.00946 0.0
C559 C 0.30315 0.31278 0.01751 0.0
C560 C 0.37502 0.26572 0.06434 0.0
C561 C 0.35062 0.29314 0.03394 0.0
C562 C 0.3985 0.25625 0.07335 0.0
C563 C 0.4223 0.26334 0.06165 0.0
C564 C 0.37529 0.28261 0.04363 0.0
C565 C 0.42176 0.28014 0.04085 0.0
C566 C 0.35069 0.31424 0.01752 0.0
C567 C 0.30398 0.29144 0.03357 0.0
N568 N 0.39859 0.28931 0.03255 0.0
N569 N 0.32732 0.28242 0.04136 0.0
H570 H 0.97973 0.80793 0.18114 0.0
H571 H 0.86344 0.90534 0.17948 0.0
H572 H 0.93824 0.82341 0.1109 0.0
H573 H 0.93426 0.92625 0.22119 0.0
H574 H 0.8854 0.86785 0.16058 0.0
H575 H 0.9581 0.84479 0.20245 0.0
C576 C 0.96598 0.819 0.1703 0.0
C577 C 0.96072 0.81277 0.14426 0.0
C578 C 0.89602 0.88061 0.17398 0.0
C579 C 0.93582 0.85416 0.16848 0.0
C580 C 0.88353 0.90187 0.18487 0.0
C581 C 0.89714 0.9189 0.20183 0.0
C582 C 0.92207 0.87602 0.18058 0.0
C583 C 0.92319 0.9136 0.20806 0.0
C584 C 0.95384 0.83999 0.18239 0.0
C585 C 0.94291 0.82773 0.13096 0.0
N586 N 0.93485 0.89243 0.19753 0.0
N587 N 0.93085 0.8476 0.14331 0.0
H588 H 0.18085 0.68324 0.52546 0.0
H589 H 0.0674 0.68218 0.63036 0.0
H590 H 0.16442 0.61592 0.57051 0.0
H591 H 0.0605 0.72096 0.55808 0.0
H592 H 0.10875 0.6637 0.61509 0.0
H593 H 0.14225 0.70368 0.5442 0.0
C594 C 0.16926 0.67288 0.5395 0.0
C595 C 0.17564 0.64782 0.54638 0.0
C596 C 0.09814 0.67635 0.60272 0.0
C597 C 0.13185 0.67114 0.56794 0.0
C598 C 0.07473 0.68694 0.6114 0.0
C599 C 0.0606 0.70295 0.59534 0.0
C600 C 0.10763 0.6824 0.57814 0.0
C601 C 0.07077 0.70852 0.57092 0.0
C602 C 0.14724 0.68449 0.55005 0.0
C603 C 0.15996 0.6352 0.5646 0.0
N604 N 0.0938 0.69835 0.56309 0.0
N605 N 0.13872 0.64706 0.57487 0.0
H606 H 0.95976 0.64076 0.63655 0.0
H607 H 0.85279 0.59773 0.73667 0.0
H608 H 0.92751 0.69687 0.69009 0.0
H609 H 0.9186 0.54993 0.71755 0.0
H610 H 0.87513 0.63406 0.71568 0.0
H611 H 0.93943 0.60623 0.66145 0.0
C612 C 0.94828 0.64579 0.65348 0.0
C613 C 0.94524 0.67162 0.66133 0.0
C614 C 0.88469 0.61564 0.71638 0.0
C615 C 0.92186 0.63239 0.68961 0.0
C616 C 0.872 0.59498 0.72824 0.0
C617 C 0.8839 0.57088 0.72875 0.0
C618 C 0.90902 0.61184 0.70444 0.0
C619 C 0.90879 0.56824 0.71762 0.0
C620 C 0.93689 0.62612 0.66774 0.0
C621 C 0.93033 0.67713 0.68351 0.0
N622 N 0.92039 0.5884 0.70555 0.0
N623 N 0.9189 0.65762 0.6968 0.0
H624 H 0.16179 0.20435 0.5132 0.0
H625 H 0.08735 0.19494 0.37737 0.0
H626 H 0.18052 0.14816 0.45327 0.0
H627 H 0.0591 0.23704 0.44447 0.0
H628 H 0.12502 0.18144 0.40269 0.0
H629 H 0.12719 0.22034 0.48596 0.0
C630 C 0.15865 0.19538 0.4943 0.0
C631 C 0.17398 0.17478 0.48557 0.0
C632 C 0.11057 0.1937 0.41178 0.0
C633 C 0.13442 0.19308 0.45422 0.0
C634 C 0.08919 0.20147 0.39734 0.0
C635 C 0.07005 0.21696 0.40893 0.0
C636 C 0.11283 0.20173 0.43782 0.0
C637 C 0.07331 0.22492 0.43484 0.0
C638 C 0.13887 0.20451 0.47875 0.0
C639 C 0.16905 0.16397 0.46084 0.0
N640 N 0.09426 0.21719 0.44841 0.0
N641 N 0.14966 0.17326 0.446 0.0
H642 H 0.53695 0.40383 0.23499 0.0
H643 H 0.56113 0.30088 0.1213 0.0
H644 H 0.6119 0.39463 0.1975 0.0
H645 H 0.49572 0.29497 0.17397 0.0
H646 H 0.57908 0.33677 0.1477 0.0
H647 H 0.52053 0.36502 0.21183 0.0
C648 C 0.55 0.39353 0.22204 0.0
C649 C 0.57577 0.4025 0.21803 0.0
C650 C 0.56087 0.32752 0.15354 0.0
C651 C 0.55708 0.3584 0.19135 0.0
C652 C 0.55054 0.30713 0.13841 0.0
C653 C 0.52685 0.29497 0.1454 0.0
C654 C 0.54726 0.33603 0.17563 0.0
C655 C 0.51406 0.30377 0.16787 0.0
C656 C 0.54063 0.3714 0.20886 0.0
C657 C 0.59188 0.38841 0.20111 0.0
N658 N 0.52434 0.32391 0.18211 0.0
N659 N 0.58218 0.36718 0.18819 0.0
H660 H 0.30842 0.84583 0.9493 0.0
H661 H 0.42189 0.74545 0.97384 0.0
H662 H 0.30645 0.78863 0.00843 0.0
H663 H 0.42121 0.79407 0.90742 0.0
H664 H 0.38096 0.76394 -0.01174 0.0
H665 H 0.35098 0.8297 0.93493 0.0
C666 C 0.31691 0.82994 0.95927 0.0
C667 C 0.3038 0.81853 0.98007 0.0
C668 C 0.38971 0.77063 0.97053 0.0
C669 C 0.35236 0.80014 0.96383 0.0
C670 C 0.41317 0.76009 0.96227 0.0
C671 C 0.42499 0.76812 0.93929 0.0
C672 C 0.37783 0.78943 0.95577 0.0
C673 C 0.41273 0.78725 0.92522 0.0
C674 C 0.34116 0.82074 0.95104 0.0
C675 C 0.31573 0.798 -0.00774 0.0
N676 N 0.38974 0.79724 0.93367 0.0
N677 N 0.33928 0.78952 0.98397 0.0
H678 H 0.92845 0.41783 0.72969 0.0
H679 H 0.91331 0.32631 0.84987 0.0
H680 H 0.86708 0.42504 0.78677 0.0
H681 H 0.96384 0.30893 0.78511 0.0
H682 H 0.89544 0.36197 0.82631 0.0
H683 H 0.94139 0.37756 0.74906 0.0
C684 C 0.91764 0.41092 0.74623 0.0
C685 C 0.89678 0.42496 0.75675 0.0
C686 C 0.91024 0.35023 0.8171 0.0
C687 C 0.91151 0.37894 0.77897 0.0
C688 C 0.92047 0.32987 0.83056 0.0
C689 C 0.94021 0.31479 0.81947 0.0
C690 C 0.92007 0.3558 0.7925 0.0
C691 C 0.94866 0.32015 0.79436 0.0
C692 C 0.92497 0.38788 0.7572 0.0
C693 C 0.88336 0.41496 0.77807 0.0
N694 N 0.93875 0.34045 0.7818 0.0
N695 N 0.89109 0.39268 0.78858 0.0
H696 H 0.30336 0.19143 0.52433 0.0
H697 H 0.43403 0.18814 0.60839 0.0
H698 H 0.32842 0.12269 0.56159 0.0
H699 H 0.41701 0.24793 0.55481 0.0
H700 H 0.39346 0.16538 0.59528 0.0
H701 H 0.34308 0.21389 0.53919 0.0
C702 C 0.31724 0.18104 0.53569 0.0
C703 C 0.31263 0.15513 0.54172 0.0
C704 C 0.39866 0.18349 0.58645 0.0
C705 C 0.3582 0.18083 0.55885 0.0
C706 C 0.42172 0.19655 0.59398 0.0
C707 C 0.42892 0.21997 0.58263 0.0
C708 C 0.38265 0.19407 0.56765 0.0
C709 C 0.41229 0.22991 0.564 0.0
C710 C 0.33996 0.19389 0.54411 0.0
C711 C 0.33131 0.14266 0.55648 0.0
N712 N 0.38992 0.21692 0.55713 0.0
N713 N 0.35334 0.15567 0.56462 0.0
H714 H 0.5171 0.67868 0.29288 0.0
H715 H 0.5018 0.52927 0.27348 0.0
H716 H 0.493 0.63484 0.35877 0.0
H717 H 0.57751 0.56539 0.26085 0.0
H718 H 0.48718 0.56957 0.29489 0.0
H719 H 0.52834 0.63817 0.27004 0.0
C720 C 0.51386 0.66049 0.30234 0.0
C721 C 0.5043 0.65989 0.32769 0.0
C722 C 0.50691 0.5685 0.28726 0.0
C723 C 0.5163 0.61407 0.30167 0.0
C724 C 0.51519 0.54574 0.27508 0.0
C725 C 0.54087 0.54419 0.26566 0.0
C726 C 0.52419 0.58986 0.28901 0.0
C727 C 0.55763 0.5659 0.26814 0.0
C728 C 0.52031 0.63758 0.2894 0.0
C729 C 0.50054 0.63595 0.33927 0.0
N730 N 0.54889 0.58804 0.27937 0.0
N731 N 0.50639 0.61382 0.32606 0.0
H732 H 0.06575 0.73613 0.05429 0.0
H733 H 0.14563 0.86769 0.03616 0.0
H734 H 0.07699 0.79292 0.11599 0.0
H735 H 0.16266 0.7986 -0.00858 0.0
H736 H 0.11408 0.84283 0.0616 0.0
H737 H 0.0964 0.76072 0.02752 0.0
C738 C 0.07488 0.75365 0.06226 0.0
C739 C 0.06896 0.76252 0.08736 0.0
C740 C 0.12464 0.8332 0.0461 0.0
C741 C 0.10333 0.79091 0.05676 0.0
C742 C 0.14241 0.84739 0.03142 0.0
C743 C 0.1568 0.8351 0.01175 0.0
C744 C 0.12101 0.80669 0.04078 0.0
C745 C 0.152 0.80874 0.00651 0.0
C746 C 0.09226 0.76765 0.04699 0.0
C747 C 0.0812 0.78534 0.09679 0.0
N748 N 0.13447 0.79536 0.02098 0.0
N749 N 0.09765 0.79894 0.08135 0.0
H750 H 0.66754 0.85213 0.55903 0.0
H751 H 0.69283 0.96603 0.66249 0.0
H752 H 0.73309 0.90568 0.55251 0.0
H753 H 0.61659 0.93105 0.6477 0.0
H754 H 0.71023 0.94162 0.62524 0.0
H755 H 0.65103 0.87798 0.59526 0.0
C756 C 0.67855 0.86927 0.56529 0.0
C757 C 0.70173 0.87678 0.55271 0.0
C758 C 0.68967 0.93947 0.63013 0.0
C759 C 0.68288 0.90644 0.59422 0.0
C760 C 0.67976 0.95332 0.65135 0.0
C761 C 0.65325 0.95049 0.65819 0.0
C762 C 0.67302 0.92244 0.61601 0.0
C763 C 0.63714 0.93383 0.64311 0.0
C764 C 0.66901 0.8841 0.58588 0.0
C765 C 0.71509 0.89926 0.56162 0.0
N766 N 0.64733 0.92027 0.62286 0.0
N767 N 0.70552 0.91329 0.58196 0.0
H768 H 0.83858 0.94008 0.29757 0.0
H769 H 0.75585 0.93755 0.42881 0.0
H770 H 0.7788 -0.00501 0.31707 0.0
H771 H 0.80209 0.87403 0.40051 0.0
H772 H 0.76924 0.96216 0.39117 0.0
H773 H 0.82987 0.91855 0.33811 0.0
C774 C 0.8236 0.94761 0.31036 0.0
C775 C 0.80927 0.96929 0.30382 0.0
C776 C 0.7766 0.94291 0.39333 0.0
C777 C 0.79939 0.94483 0.35038 0.0
C778 C 0.76912 0.92893 0.41488 0.0
C779 C 0.77773 0.90365 0.41766 0.0
C780 C 0.79291 0.93156 0.37457 0.0
C781 C 0.79485 0.8934 0.39902 0.0
C782 C 0.81867 0.93532 0.33352 0.0
C783 C 0.79017 0.97823 0.32122 0.0
N784 N 0.80178 0.90735 0.37819 0.0
N785 N 0.7858 0.96596 0.34372 0.0
H786 H 0.78573 0.04885 0.02768 0.0
H787 H 0.78373 0.02556 0.17845 0.0
H788 H 0.74746 0.10042 0.08177 0.0
H789 H 0.85337 0.01167 0.13327 0.0
H790 H 0.76336 0.0442 0.14061 0.0
H791 H 0.80444 0.02616 0.06432 0.0
C792 C 0.78117 0.05524 0.04723 0.0
C793 C 0.76526 0.07657 0.05185 0.0
C794 C 0.78304 0.0369 0.13903 0.0
C795 C 0.78587 0.05063 0.09331 0.0
C796 C 0.79461 0.02622 0.1605 0.0
C797 C 0.82029 0.0173 0.15892 0.0
C798 C 0.79707 0.03807 0.11577 0.0
C799 C 0.83359 0.01861 0.13525 0.0
C800 C 0.79186 0.04241 0.06799 0.0
C801 C 0.75988 0.08419 0.07745 0.0
N802 N 0.82177 0.02876 0.11447 0.0
N803 N 0.77003 0.07111 0.09727 0.0
H804 H 0.7094 0.98582 0.81207 0.0
H805 H 0.68283 0.11936 0.88774 0.0
H806 H 0.65137 0.04055 0.79025 0.0
H807 H 0.73166 0.06053 0.91847 0.0
H808 H 0.67488 0.09206 0.84953 0.0
H809 H 0.72141 0.01426 0.84905 0.0
C810 C 0.69928 0.00382 0.81497 0.0
C811 C 0.67926 0.01075 0.79812 0.0
C812 C 0.68738 0.08509 0.86459 0.0
C813 C 0.69291 0.04325 0.84014 0.0
C814 C 0.69197 0.10072 0.88644 0.0
C815 C 0.70782 0.09218 0.90645 0.0
C816 C 0.69871 0.06068 0.86261 0.0
C817 C 0.71921 0.06784 0.90357 0.0
C818 C 0.7061 0.01998 0.83608 0.0
C819 C 0.66679 0.03428 0.8028 0.0
N820 N 0.71437 0.05288 0.88205 0.0
N821 N 0.67382 0.04962 0.82333 0.0
H822 H 0.58666 0.70855 0.88465 0.0
H823 H 0.66965 0.70556 0.01527 0.0
H824 H 0.56299 0.7465 0.95589 0.0
H825 H 0.68049 0.65227 0.95077 0.0
H826 H 0.63414 0.72531 -0.00824 0.0
H827 H 0.62511 0.69246 0.90667 0.0
C828 C 0.58966 0.71364 0.90488 0.0
C829 C 0.57155 0.72871 0.91855 0.0
C830 C 0.64434 0.70931 0.98277 0.0
C831 C 0.61539 0.71042 0.94376 0.0
C832 C 0.66463 0.69806 -0.00385 0.0
C833 C 0.67794 0.67713 0.98503 0.0
C834 C 0.63749 0.69971 0.95804 0.0
C835 C 0.67062 0.66824 0.96017 0.0
C836 C 0.61153 0.70438 0.91743 0.0
C837 C 0.57639 0.73477 0.94469 0.0
N838 N 0.65088 0.67959 0.94751 0.0
N839 N 0.59785 0.72556 0.95648 0.0
H840 H 0.01026 0.07244 0.75013 0.0
H841 H 0.03713 0.16336 0.87499 0.0
H842 H 0.06909 0.05829 0.80763 0.0
H843 H -0.01487 0.18358 0.81335 0.0
H844 H 0.04705 0.12348 0.85148 0.0
H845 H -0.00122 0.11199 0.77398 0.0
C846 C 0.02072 0.07759 0.76778 0.0
C847 C 0.04071 0.06203 0.77686 0.0
C848 C 0.03346 0.13662 0.84306 0.0
C849 C 0.02765 0.10718 0.80419 0.0
C850 C 0.02775 0.15943 0.85651 0.0
C851 C 0.01029 0.17691 0.84611 0.0
C852 C 0.0216 0.13113 0.81904 0.0
C853 C -0.00124 0.1707 0.82207 0.0
C854 C 0.01418 0.10019 0.78135 0.0
C855 C 0.0536 0.06969 0.79983 0.0
N856 N 0.00462 0.14829 0.80934 0.0
N857 N 0.04684 0.09169 0.81268 0.0
H858 H 0.91821 0.22701 0.45809 0.0
H859 H 0.8121 0.33632 0.44018 0.0
H860 H 0.92149 0.28044 0.39553 0.0
H861 H 0.80783 0.27795 0.49809 0.0
H862 H 0.8527 0.3174 0.4239 0.0
H863 H 0.87822 0.24677 0.47341 0.0
C864 C 0.91053 0.24293 0.44753 0.0
C865 C 0.92326 0.25206 0.42545 0.0
C866 C 0.8428 0.30879 0.44016 0.0
C867 C 0.87724 0.27488 0.443 0.0
C868 C 0.81967 0.31958 0.44948 0.0
C869 C 0.80651 0.3087 0.47053 0.0
C870 C 0.85281 0.28707 0.45205 0.0
C871 C 0.81721 0.287 0.48181 0.0
C872 C 0.88761 0.25422 0.4563 0.0
C873 C 0.9123 0.27276 0.41261 0.0
N874 N 0.8397 0.27696 0.47244 0.0
N875 N 0.88987 0.28352 0.4216 0.0
H876 H 0.61191 0.87561 0.75033 0.0
H877 H 0.51003 0.84523 0.86044 0.0
H878 H 0.56589 0.93576 0.78589 0.0
H879 H 0.53062 0.78884 0.80143 0.0
H880 H 0.53117 0.87895 0.83492 0.0
H881 H 0.58378 0.84336 0.77075 0.0
C882 C 0.59585 0.88202 0.76242 0.0
C883 C 0.59129 0.90838 0.76656 0.0
C884 C 0.53068 0.85924 0.82743 0.0
C885 C 0.55916 0.87161 0.79006 0.0
C886 C 0.51868 0.84001 0.84197 0.0
C887 C 0.51877 0.8142 0.8331 0.0
C888 C 0.54326 0.85245 0.80419 0.0
C889 C 0.53017 0.80849 0.80902 0.0
C890 C 0.5797 0.86361 0.77391 0.0
C891 C 0.57006 0.91561 0.78221 0.0
N892 N 0.54233 0.82741 0.79558 0.0
N893 N 0.55493 0.8973 0.79369 0.0
H894 H 0.97957 0.17049 0.30383 0.0
H895 H 0.85775 0.07851 0.29322 0.0
H896 H 0.94485 0.13828 0.37219 0.0
H897 H 0.92452 0.05826 0.24626 0.0
H898 H 0.88537 0.10959 0.31761 0.0
H899 H 0.95596 0.13722 0.27738 0.0
C900 C 0.96713 0.15638 0.31323 0.0
C901 C 0.96409 0.15706 0.34018 0.0
C902 C 0.89388 0.09838 0.30188 0.0
C903 C 0.93696 0.11986 0.31029 0.0
C904 C 0.87819 0.08081 0.2879 0.0
C905 C 0.88897 0.06586 0.26777 0.0
C906 C 0.92033 0.10152 0.29526 0.0
C907 C 0.91561 0.06941 0.26178 0.0
C908 C 0.95387 0.13746 0.2982 0.0
C909 C 0.94783 0.13835 0.35149 0.0
N910 N 0.93048 0.08719 0.27537 0.0
N911 N 0.93451 0.12076 0.33644 0.0
H912 H 0.54326 0.03428 0.70037 0.0
H913 H 0.5485 0.1886 0.70295 0.0
H914 H 0.60887 0.07996 0.7299 0.0
H915 H 0.50195 0.14279 0.64854 0.0
H916 H 0.5637 0.1488 0.72189 0.0
H917 H 0.52108 0.07416 0.68992 0.0
C918 C 0.55285 0.05269 0.70491 0.0
C919 C 0.57804 0.05389 0.71571 0.0
C920 C 0.54992 0.14754 0.70599 0.0
C921 C 0.55278 0.09932 0.70411 0.0
C922 C 0.54116 0.17019 0.69528 0.0
C923 C 0.52421 0.16892 0.67397 0.0
C924 C 0.54138 0.12355 0.69551 0.0
C925 C 0.51529 0.14459 0.66476 0.0
C926 C 0.54023 0.07537 0.69891 0.0
C927 C 0.58959 0.07821 0.72127 0.0
N928 N 0.52408 0.12282 0.67551 0.0
N929 N 0.57689 0.09999 0.71535 0.0
H930 H 0.18879 0.31228 0.92696 0.0
H931 H 0.03467 0.31831 0.92514 0.0
H932 H 0.14828 0.3779 0.95918 0.0
H933 H 0.07726 0.28103 0.86306 0.0
H934 H 0.076 0.33699 0.94176 0.0
H935 H 0.1477 0.29675 0.90695 0.0
C936 C 0.17124 0.3234 0.92977 0.0
C937 C 0.1718 0.34633 0.94474 0.0
C938 C 0.0762 0.32488 0.92439 0.0
C939 C 0.12501 0.32862 0.9223 0.0
C940 C 0.05273 0.31416 0.91499 0.0
C941 C 0.05268 0.29813 0.89277 0.0
C942 C 0.09975 0.319 0.91179 0.0
C943 C 0.07653 0.29338 0.88023 0.0
C944 C 0.14793 0.31462 0.91827 0.0
C945 C 0.14862 0.36013 0.94772 0.0
N946 N 0.09923 0.30355 0.89011 0.0
N947 N 0.12602 0.3509 0.93682 0.0
H948 H 0.41846 0.72996 0.4464 0.0
H949 H 0.30292 0.63145 0.43824 0.0
H950 H 0.40338 0.6913 0.37295 0.0
H951 H 0.28656 0.70878 0.46553 0.0
H952 H 0.34477 0.64737 0.42044 0.0
H953 H 0.37428 0.71694 0.46079 0.0
C954 C 0.4058 0.71875 0.43337 0.0
C955 C 0.41432 0.71165 0.40851 0.0
C956 C 0.33185 0.66076 0.43022 0.0
C957 C 0.36466 0.69637 0.42493 0.0
C958 C 0.30819 0.65175 0.44042 0.0
C959 C 0.29147 0.66893 0.45322 0.0
C960 C 0.33902 0.68685 0.43374 0.0
C961 C 0.29898 0.69506 0.45559 0.0
C962 C 0.38073 0.71151 0.4415 0.0
C963 C 0.39732 0.69721 0.39221 0.0
N964 N 0.32254 0.70323 0.44629 0.0
N965 N 0.37331 0.68961 0.40088 0.0
H966 H 0.76438 0.52943 0.79605 0.0
H967 H 0.76145 0.53024 0.95028 0.0
H968 H 0.82031 0.48976 0.84217 0.0
H969 H 0.73189 0.59186 0.90493 0.0
H970 H 0.77282 0.50674 0.91029 0.0
H971 H 0.74208 0.5436 0.83569 0.0
C972 C 0.77165 0.52327 0.81447 0.0
C973 C 0.79442 0.50871 0.81591 0.0
C974 C 0.7635 0.52524 0.90917 0.0
C975 C 0.76901 0.52472 0.86109 0.0
C976 C 0.75694 0.53861 0.93192 0.0
C977 C 0.74605 0.56317 0.93085 0.0
C978 C 0.75879 0.53638 0.88528 0.0
C979 C 0.74058 0.57312 0.90657 0.0
C980 C 0.759 0.53146 0.83703 0.0
C981 C 0.803 0.50126 0.84027 0.0
N982 N 0.74715 0.55973 0.8847 0.0
N983 N 0.79038 0.5095 0.86196 0.0
H984 H 0.65422 0.53193 0.19806 0.0
H985 H 0.6812 0.55883 0.04949 0.0
H986 H 0.6028 0.50284 0.13728 0.0
H987 H 0.71348 0.60597 0.11224 0.0
H988 H 0.65622 0.53372 0.08089 0.0
H989 H 0.68013 0.55482 0.16613 0.0
C990 C 0.6484 0.53028 0.17797 0.0
C991 C 0.62624 0.5155 0.17032 0.0
C992 C 0.66881 0.54956 0.0877 0.0
C993 C 0.65596 0.54165 0.13367 0.0
C994 C 0.68315 0.5638 0.06985 0.0
C995 C 0.69938 0.58456 0.07828 0.0
C996 C 0.67103 0.55595 0.11412 0.0
C997 C 0.7011 0.59023 0.10487 0.0
C998 C 0.66318 0.54345 0.15977 0.0
C999 C 0.61965 0.51414 0.14401 0.0
N1000 N 0.68714 0.57595 0.12184 0.0
N1001 N 0.63452 0.52703 0.12656 0.0
H1002 H 0.71068 0.44943 0.44014 0.0
H1003 H 0.62689 0.48243 0.34234 0.0
H1004 H 0.73043 0.38855 0.38548 0.0
H1005 H 0.68626 0.45449 0.28988 0.0
H1006 H 0.65405 0.47036 0.3787 0.0
H1007 H 0.69218 0.4736 0.40484 0.0
C1008 C 0.71147 0.44132 0.42066 0.0
C1009 C 0.72163 0.41673 0.41575 0.0
C1010 C 0.66147 0.46753 0.35926 0.0
C1011 C 0.70023 0.44405 0.37556 0.0
C1012 C 0.64587 0.47417 0.33852 0.0
C1013 C 0.65434 0.46933 0.31314 0.0
C1014 C 0.6855 0.45557 0.3545 0.0
C1015 C 0.67906 0.45857 0.3092 0.0
C1016 C 0.70069 0.45502 0.40062 0.0
C1017 C 0.72238 0.40725 0.39014 0.0
N1018 N 0.69357 0.45152 0.32971 0.0
N1019 N 0.71162 0.42088 0.37097 0.0
H1020 H 0.84261 0.48828 0.63376 0.0
H1021 H 0.74198 0.37581 0.59363 0.0
H1022 H 0.78852 0.45397 0.68778 0.0
H1023 H 0.77936 0.42533 0.53817 0.0
H1024 H 0.75868 0.40427 0.62846 0.0
H1025 H 0.81928 0.46591 0.59836 0.0
C1026 C 0.82565 0.47625 0.63815 0.0
C1027 C 0.81764 0.47277 0.66377 0.0
C1028 C 0.76303 0.40902 0.60866 0.0
C1029 C 0.79108 0.44689 0.62339 0.0
C1030 C 0.75363 0.39271 0.58877 0.0
C1031 C 0.75949 0.39808 0.56296 0.0
C1032 C 0.77867 0.43067 0.60271 0.0
C1033 C 0.77445 0.42039 0.55779 0.0
C1034 C 0.81231 0.46352 0.61793 0.0
C1035 C 0.7954 0.45714 0.66832 0.0
N1036 N 0.78376 0.43573 0.57752 0.0
N1037 N 0.7831 0.44446 0.64833 0.0
H1038 H 0.41222 0.06604 0.25288 0.0
H1039 H 0.3976 0.16866 0.14528 0.0
H1040 H 0.33764 0.08069 0.21756 0.0
H1041 H 0.45886 0.17513 0.20261 0.0
H1042 H 0.37516 0.13631 0.17131 0.0
H1043 H 0.43003 0.10579 0.23464 0.0
C1044 C 0.39955 0.07776 0.24149 0.0
C1045 C 0.37353 0.06999 0.23648 0.0
C1046 C 0.39331 0.1451 0.17838 0.0
C1047 C 0.39377 0.11517 0.21542 0.0
C1048 C 0.40615 0.16348 0.16351 0.0
C1049 C 0.4302 0.17436 0.17174 0.0
C1050 C 0.40492 0.13722 0.20133 0.0
C1051 C 0.44037 0.16712 0.19556 0.0
C1052 C 0.40967 0.10047 0.2312 0.0
C1053 C 0.35787 0.08594 0.22177 0.0
N1054 N 0.42788 0.14864 0.20936 0.0
N1055 N 0.36835 0.10761 0.21141 0.0
H1056 H 0.00524 0.84306 0.62364 0.0
H1057 H 0.0821 0.8909 0.74427 0.0
H1058 H 0.01527 0.7906 0.68594 0.0
H1059 H 0.02273 0.93931 0.71339 0.0
H1060 H 0.06224 0.85369 0.7207 0.0
H1061 H 0.0158 0.87934 0.6535 0.0
C1062 C 0.00946 0.83927 0.64366 0.0
C1063 C 0.00948 0.81395 0.65246 0.0
C1064 C 0.05339 0.87241 0.71947 0.0
C1065 C 0.02202 0.85498 0.68624 0.0
C1066 C 0.06472 0.89357 0.73275 0.0
C1067 C 0.05398 0.91805 0.73064 0.0
C1068 C 0.03178 0.87608 0.7034 0.0
C1069 C 0.03146 0.92064 0.71553 0.0
C1070 C 0.0153 0.85989 0.66064 0.0
C1071 C 0.01499 0.80993 0.67854 0.0
N1072 N 0.02137 0.89995 0.70198 0.0
N1073 N 0.0216 0.83027 0.6945 0.0
H1074 H 0.41397 0.81171 0.33908 0.0
H1075 H 0.43128 0.91694 0.23063 0.0
H1076 H 0.46686 0.80216 0.27462 0.0
H1077 H 0.36967 0.91746 0.28789 0.0
H1078 H 0.44475 0.87491 0.24582 0.0
H1079 H 0.39716 0.85024 0.31974 0.0
C1080 C 0.42189 0.81763 0.3207 0.0
C1081 C 0.44193 0.80383 0.30849 0.0
C1082 C 0.4282 0.88421 0.25492 0.0
C1083 C 0.423 0.84821 0.28633 0.0
C1084 C 0.42058 0.90824 0.24635 0.0
C1085 C 0.39942 0.92084 0.25811 0.0
C1086 C 0.41466 0.87284 0.27548 0.0
C1087 C 0.38616 0.90857 0.27829 0.0
C1088 C 0.41228 0.83965 0.30964 0.0
C1089 C 0.45137 0.81228 0.28464 0.0
N1090 N 0.39409 0.88536 0.28639 0.0
N1091 N 0.44201 0.83415 0.27443 0.0
H1092 H 0.79563 0.67058 0.05047 0.0
H1093 H 0.94408 0.69613 0.03144 0.0
H1094 H 0.84039 0.61291 0.00951 0.0
H1095 H 0.91113 0.70644 0.10768 0.0
H1096 H 0.9048 0.67088 0.01836 0.0
H1097 H 0.83652 0.6899 0.06764 0.0
C1098 C 0.8141 0.662 0.04517 0.0
C1099 C 0.81486 0.64023 0.02858 0.0
C1100 C 0.90639 0.67852 0.03799 0.0
C1101 C 0.86125 0.6624 0.04758 0.0
C1102 C 0.92857 0.69301 0.04538 0.0
C1103 C 0.93062 0.70334 0.07061 0.0
C1104 C 0.88594 0.67516 0.05572 0.0
C1105 C 0.91018 0.69868 0.08808 0.0
C1106 C 0.83727 0.67289 0.05507 0.0
C1107 C 0.83916 0.62967 0.02234 0.0
N1108 N 0.88836 0.68526 0.08016 0.0
N1109 N 0.86159 0.64118 0.03151 0.0
H1110 H 0.56575 0.23929 0.55144 0.0
H1111 H 0.65429 0.36529 0.53305 0.0
H1112 H 0.58741 0.29122 0.61477 0.0
H1113 H 0.66437 0.29668 0.4853 0.0
H1114 H 0.62241 0.34162 0.55923 0.0
H1115 H 0.5961 0.26287 0.52337 0.0
C1116 C 0.57708 0.25551 0.55945 0.0
C1117 C 0.57422 0.26331 0.58542 0.0
C1118 C 0.6315 0.33186 0.54289 0.0
C1119 C 0.60817 0.29059 0.55344 0.0
C1120 C 0.64944 0.34539 0.5278 0.0
C1121 C 0.66201 0.33282 0.50708 0.0
C1122 C 0.62583 0.30579 0.53691 0.0
C1123 C 0.65515 0.30698 0.50121 0.0
C1124 C 0.59427 0.26893 0.54346 0.0
C1125 C 0.58922 0.28447 0.59489 0.0
N1126 N 0.63747 0.29425 0.51609 0.0
N1127 N 0.60539 0.29759 0.5788 0.0
H1128 H 0.20831 0.43671 0.04047 0.0
H1129 H 0.1882 0.45032 0.19205 0.0
H1130 H 0.2159 0.37144 0.0896 0.0
H1131 H 0.1325 0.48143 0.1393 0.0
H1132 H 0.21105 0.43019 0.15515 0.0
H1133 H 0.19276 0.4624 0.07788 0.0
C1134 C 0.20715 0.42799 0.05922 0.0
C1135 C 0.21316 0.40198 0.0621 0.0
C1136 C 0.19404 0.44176 0.15177 0.0
C1137 C 0.19613 0.43112 0.10455 0.0
C1138 C 0.1811 0.45328 0.17267 0.0
C1139 C 0.1584 0.46733 0.16856 0.0
C1140 C 0.18457 0.44503 0.12671 0.0
C1141 C 0.14984 0.47052 0.14316 0.0
C1142 C 0.19822 0.44255 0.08039 0.0
C1143 C 0.21121 0.39141 0.08667 0.0
N1144 N 0.16301 0.45948 0.12308 0.0
N1145 N 0.20292 0.40608 0.10707 0.0
H1146 H 0.35389 0.44754 0.80487 0.0
H1147 H 0.26227 0.45249 0.93005 0.0
H1148 H 0.29168 0.50192 0.81572 0.0
H1149 H 0.30652 0.38567 0.90708 0.0
H1150 H 0.27824 0.47441 0.89165 0.0
H1151 H 0.34145 0.42774 0.84553 0.0
C1152 C 0.33762 0.45532 0.81579 0.0
C1153 C 0.32371 0.47634 0.80682 0.0
C1154 C 0.28455 0.455 0.89513 0.0
C1155 C 0.30962 0.45396 0.85343 0.0
C1156 C 0.2756 0.44256 0.9171 0.0
C1157 C 0.28298 0.41718 0.92164 0.0
C1158 C 0.30117 0.44205 0.87776 0.0
C1159 C 0.30023 0.40518 0.90421 0.0
C1160 C 0.33055 0.444 0.83897 0.0
C1161 C 0.30282 0.48563 0.82179 0.0
N1162 N 0.30871 0.41771 0.88298 0.0
N1163 N 0.29645 0.47442 0.84442 0.0
H1164 H 0.31888 0.59802 0.55548 0.0
H1165 H 0.31142 0.49554 0.66586 0.0
H1166 H 0.26113 0.53593 0.55553 0.0
H1167 H 0.38181 0.53999 0.64986 0.0
H1168 H 0.2923 0.51036 0.62576 0.0
H1169 H 0.34233 0.57725 0.5901 0.0
C1170 C 0.31131 0.57986 0.56259 0.0
C1171 C 0.28795 0.56875 0.55279 0.0
C1172 C 0.31203 0.51665 0.63091 0.0
C1173 C 0.31441 0.54513 0.59257 0.0
C1174 C 0.32289 0.50831 0.65383 0.0
C1175 C 0.34813 0.51673 0.66126 0.0
C1176 C 0.32638 0.53384 0.61554 0.0
C1177 C 0.36223 0.53312 0.64489 0.0
C1178 C 0.32471 0.568 0.5823 0.0
C1179 C 0.27906 0.54516 0.56259 0.0
N1180 N 0.35103 0.54139 0.62292 0.0
N1181 N 0.29212 0.53429 0.58223 0.0
H1182 H 0.12947 0.53464 0.31044 0.0
H1183 H 0.21994 0.54983 0.43607 0.0
H1184 H 0.19467 0.48548 0.32537 0.0
H1185 H 0.16383 0.60627 0.41376 0.0
H1186 H 0.20753 0.52323 0.39824 0.0
H1187 H 0.13867 0.5584 0.35078 0.0
C1188 C 0.14569 0.52877 0.32223 0.0
C1189 C 0.16142 0.5081 0.31442 0.0
C1190 C 0.19787 0.54139 0.4017 0.0
C1191 C 0.17201 0.53525 0.3607 0.0
C1192 C 0.20487 0.55656 0.42335 0.0
C1193 C 0.19302 0.58043 0.42803 0.0
C1194 C 0.17882 0.55007 0.38467 0.0
C1195 C 0.17361 0.58811 0.41086 0.0
C1196 C 0.15094 0.54239 0.34526 0.0
C1197 C 0.18213 0.50137 0.33054 0.0
N1198 N 0.16718 0.573 0.3899 0.0
N1199 N 0.18684 0.51495 0.35292 0.0
loop_
_geom_bond_atom_site_label_1
_geom_bond_atom_site_label_2
_geom_bond_distance
_geom_bond_site_symmetry_2
_ccdc_geom_bond_type
C0 O1 1.306 . S
C0 O3 1.160 . S
O1 C0 1.306 . S
O1 Cd2 2.228 . S
Cd2 O1 2.228 . S
Cd2 O6 2.273 1_655 S
Cd2 O10 2.277 . S
O3 C0 1.160 . S
O3 Cd4 2.203 1_655 S
Cd4 O3 2.203 1_455 S
Cd4 O6 2.411 . S
Cd4 O7 2.333 . S
Cd4 O8 2.352 . S
Cd4 O12 2.277 1_455 S
Cd4 O13 2.356 . S
C5 O10 1.209 . S
C5 O12 1.226 . S
O6 Cd2 2.273 1_455 S
O6 Cd4 2.411 . S
O6 C9 1.320 . S
O7 Cd4 2.333 . S
O7 C9 1.214 . S
O8 Cd4 2.352 . S
O8 C11 1.258 . S
C9 O6 1.320 . S
C9 O7 1.214 . S
O10 Cd2 2.277 . S
O10 C5 1.209 . S
C11 O8 1.258 . S
C11 O13 1.282 . S
O12 Cd4 2.277 1_655 S
O12 C5 1.226 . S
O13 Cd4 2.356 . S
O13 C11 1.282 . S
C14 O15 1.306 . S
C14 O17 1.160 . S
O15 C14 1.306 . S
O15 Cd16 2.228 1_655 S
Cd16 O15 2.228 1_455 S
Cd16 O20 2.273 . S
Cd16 O24 2.277 . S
O17 C14 1.160 . S
O17 Cd18 2.204 . S
Cd18 O17 2.204 . S
Cd18 O20 2.411 1_655 S
Cd18 O21 2.332 1_655 S
Cd18 O22 2.352 . S
Cd18 O26 2.277 1_655 S
Cd18 O27 2.356 . S
C19 O24 1.209 . S
C19 O26 1.226 . S
O20 Cd16 2.273 . S
O20 Cd18 2.411 1_455 S
O20 C23 1.320 . S
O21 Cd18 2.332 1_455 S
O21 C23 1.214 . S
O22 Cd18 2.352 . S
O22 C25 1.258 . S
C23 O20 1.320 . S
C23 O21 1.214 . S
O24 Cd16 2.277 . S
O24 C19 1.209 . S
C25 O22 1.258 . S
C25 O27 1.282 . S
O26 Cd18 2.277 1_455 S
O26 C19 1.226 . S
O27 Cd18 2.356 . S
O27 C25 1.282 . S
C28 O29 1.306 . S
C28 O31 1.160 . S
O29 C28 1.306 . S
O29 Cd30 2.228 . S
Cd30 O29 2.228 . S
Cd30 O34 2.273 . S
Cd30 O38 2.277 . S
O31 C28 1.160 . S
O31 Cd32 2.203 . S
Cd32 O31 2.203 . S
Cd32 O34 2.411 . S
Cd32 O35 2.333 . S
Cd32 O36 2.352 . S
Cd32 O40 2.277 . S
Cd32 O41 2.356 . S
C33 O38 1.209 . S
C33 O40 1.226 . S
O34 Cd30 2.273 . S
O34 Cd32 2.411 . S
O34 C37 1.320 . S
O35 Cd32 2.333 . S
O35 C37 1.214 . S
O36 Cd32 2.352 . S
O36 C39 1.258 . S
C37 O34 1.320 . S
C37 O35 1.214 . S
O38 Cd30 2.277 . S
O38 C33 1.209 . S
C39 O36 1.258 . S
C39 O41 1.282 . S
O40 Cd32 2.277 . S
O40 C33 1.226 . S
O41 Cd32 2.356 . S
O41 C39 1.282 . S
C42 O43 1.306 . S
C42 O45 1.160 . S
O43 C42 1.306 . S
O43 Cd44 2.228 . S
Cd44 O43 2.228 . S
Cd44 O48 2.273 . S
Cd44 O52 2.277 . S
O45 C42 1.160 . S
O45 Cd46 2.203 . S
Cd46 O45 2.203 . S
Cd46 O48 2.411 . S
Cd46 O49 2.333 . S
Cd46 O50 2.352 . S
Cd46 O54 2.277 . S
Cd46 O55 2.356 . S
C47 O52 1.209 . S
C47 O54 1.226 . S
O48 Cd44 2.273 . S
O48 Cd46 2.411 . S
O48 C51 1.320 . S
O49 Cd46 2.333 . S
O49 C51 1.214 . S
O50 Cd46 2.352 . S
O50 C53 1.258 . S
C51 O48 1.320 . S
C51 O49 1.214 . S
O52 Cd44 2.277 . S
O52 C47 1.209 . S
C53 O50 1.258 . S
C53 O55 1.282 . S
O54 Cd46 2.277 . S
O54 C47 1.226 . S
O55 Cd46 2.356 . S
O55 C53 1.282 . S
C56 O57 1.306 . S
C56 O59 1.160 . S
O57 C56 1.306 . S
O57 Cd58 2.228 . S
Cd58 O57 2.228 . S
Cd58 O62 2.273 1_655 S
Cd58 O66 2.277 . S
O59 C56 1.160 . S
O59 Cd60 2.203 1_655 S
Cd60 O59 2.203 1_455 S
Cd60 O62 2.411 . S
Cd60 O63 2.333 . S
Cd60 O64 2.352 . S
Cd60 O68 2.277 1_455 S
Cd60 O69 2.356 . S
C61 O66 1.209 . S
C61 O68 1.226 . S
O62 Cd58 2.273 1_455 S
O62 Cd60 2.411 . S
O62 C65 1.320 . S
O63 Cd60 2.333 . S
O63 C65 1.214 . S
O64 Cd60 2.352 . S
O64 C67 1.258 . S
C65 O62 1.320 . S
C65 O63 1.214 . S
O66 Cd58 2.277 . S
O66 C61 1.209 . S
C67 O64 1.258 . S
C67 O69 1.282 . S
O68 Cd60 2.277 1_655 S
O68 C61 1.226 . S
O69 Cd60 2.356 . S
O69 C67 1.282 . S
C70 O71 1.306 . S
C70 O73 1.160 . S
O71 C70 1.306 . S
O71 Cd72 2.228 . S
Cd72 O71 2.228 . S
Cd72 O76 2.273 . S
Cd72 O80 2.277 . S
O73 C70 1.160 . S
O73 Cd74 2.203 . S
Cd74 O73 2.203 . S
Cd74 O76 2.411 . S
Cd74 O77 2.333 . S
Cd74 O78 2.352 . S
Cd74 O82 2.277 . S
Cd74 O83 2.356 . S
C75 O80 1.209 . S
C75 O82 1.226 . S
O76 Cd72 2.273 . S
O76 Cd74 2.411 . S
O76 C79 1.320 . S
O77 Cd74 2.333 . S
O77 C79 1.214 . S
O78 Cd74 2.352 . S
O78 C81 1.258 . S
C79 O76 1.320 . S
C79 O77 1.214 . S
O80 Cd72 2.277 . S
O80 C75 1.209 . S
C81 O78 1.258 . S
C81 O83 1.282 . S
O82 Cd74 2.277 . S
O82 C75 1.226 . S
O83 Cd74 2.356 . S
O83 C81 1.282 . S
C84 O85 1.306 . S
C84 O87 1.160 . S
O85 C84 1.306 . S
O85 Cd86 2.228 . S
Cd86 O85 2.228 . S
Cd86 O90 2.273 . S
Cd86 O94 2.277 . S
O87 C84 1.160 . S
O87 Cd88 2.203 . S
Cd88 O87 2.203 . S
Cd88 O90 2.411 . S
Cd88 O91 2.333 . S
Cd88 O92 2.352 . S
Cd88 O96 2.277 . S
Cd88 O97 2.356 . S
C89 O94 1.209 . S
C89 O96 1.226 . S
O90 Cd86 2.273 . S
O90 Cd88 2.411 . S
O90 C93 1.320 . S
O91 Cd88 2.333 . S
O91 C93 1.214 . S
O92 Cd88 2.352 . S
O92 C95 1.258 . S
C93 O90 1.320 . S
C93 O91 1.214 . S
O94 Cd86 2.277 . S
O94 C89 1.209 . S
C95 O92 1.258 . S
C95 O97 1.282 . S
O96 Cd88 2.277 . S
O96 C89 1.226 . S
O97 Cd88 2.356 . S
O97 C95 1.282 . S
C98 O99 1.306 . S
C98 O101 1.160 . S
O99 C98 1.306 . S
O99 Cd100 2.228 1_655 S
Cd100 O99 2.228 1_455 S
Cd100 O104 2.273 . S
Cd100 O108 2.277 . S
O101 C98 1.160 . S
O101 Cd102 2.206 1_655 S
Cd102 O101 2.206 1_455 S
Cd102 O104 2.409 . S
Cd102 O105 2.330 . S
Cd102 O106 2.353 1_455 S
Cd102 O110 2.276 . S
Cd102 O111 2.357 1_455 S
C103 O108 1.209 . S
C103 O110 1.226 . S
O104 Cd100 2.273 . S
O104 Cd102 2.409 . S
O104 C107 1.320 . S
O105 Cd102 2.330 . S
O105 C107 1.214 . S
O106 Cd102 2.353 1_655 S
O106 C109 1.258 . S
C107 O104 1.320 . S
C107 O105 1.214 . S
O108 Cd100 2.277 . S
O108 C103 1.209 . S
C109 O106 1.258 . S
C109 O111 1.282 . S
O110 Cd102 2.276 . S
O110 C103 1.226 . S
O111 Cd102 2.357 1_655 S
O111 C109 1.282 . S
C112 O113 1.306 . S
C112 O115 1.160 . S
O113 C112 1.306 . S
O113 Cd114 2.228 . S
Cd114 O113 2.228 . S
Cd114 O118 2.273 1_565 S
Cd114 O122 2.277 . S
O115 C112 1.160 . S
O115 Cd116 2.203 1_565 S
Cd116 O115 2.203 1_545 S
Cd116 O118 2.411 . S
Cd116 O119 2.333 . S
Cd116 O120 2.352 . S
Cd116 O124 2.277 1_545 S
Cd116 O125 2.356 . S
C117 O122 1.209 . S
C117 O124 1.226 . S
O118 Cd114 2.273 1_545 S
O118 Cd116 2.411 . S
O118 C121 1.320 . S
O119 Cd116 2.333 . S
O119 C121 1.214 . S
O120 Cd116 2.352 . S
O120 C123 1.258 . S
C121 O118 1.320 . S
C121 O119 1.214 . S
O122 Cd114 2.277 . S
O122 C117 1.209 . S
C123 O120 1.258 . S
C123 O125 1.282 . S
O124 Cd116 2.277 1_565 S
O124 C117 1.226 . S
O125 Cd116 2.356 . S
O125 C123 1.282 . S
C126 O127 1.306 . S
C126 O129 1.160 . S
O127 C126 1.306 . S
O127 Cd128 2.228 . S
Cd128 O127 2.228 . S
Cd128 O132 2.273 . S
Cd128 O136 2.277 . S
O129 C126 1.160 . S
O129 Cd130 2.203 . S
Cd130 O129 2.203 . S
Cd130 O132 2.411 . S
Cd130 O133 2.333 . S
Cd130 O134 2.352 . S
Cd130 O138 2.277 . S
Cd130 O139 2.356 . S
C131 O136 1.209 . S
C131 O138 1.226 . S
O132 Cd128 2.273 . S
O132 Cd130 2.411 . S
O132 C135 1.320 . S
O133 Cd130 2.333 . S
O133 C135 1.214 . S
O134 Cd130 2.352 . S
O134 C137 1.258 . S
C135 O132 1.320 . S
C135 O133 1.214 . S
O136 Cd128 2.277 . S
O136 C131 1.209 . S
C137 O134 1.258 . S
C137 O139 1.282 . S
O138 Cd130 2.277 . S
O138 C131 1.226 . S
O139 Cd130 2.356 . S
O139 C137 1.282 . S
C140 O141 1.306 . S
C140 O143 1.160 . S
O141 C140 1.306 . S
O141 Cd142 2.228 . S
Cd142 O141 2.228 . S
Cd142 O146 2.273 1_545 S
Cd142 O150 2.277 . S
O143 C140 1.160 . S
O143 Cd144 2.203 . S
Cd144 O143 2.203 . S
Cd144 O146 2.411 1_545 S
Cd144 O147 2.333 1_545 S
Cd144 O148 2.352 1_545 S
Cd144 O152 2.277 . S
Cd144 O153 2.356 1_545 S
C145 O150 1.209 . S
C145 O152 1.226 . S
O146 Cd142 2.273 1_565 S
O146 Cd144 2.411 1_565 S
O146 C149 1.320 . S
O147 Cd144 2.333 1_565 S
O147 C149 1.214 . S
O148 Cd144 2.352 1_565 S
O148 C151 1.258 . S
C149 O146 1.320 . S
C149 O147 1.214 . S
O150 Cd142 2.277 . S
O150 C145 1.209 . S
C151 O148 1.258 . S
C151 O153 1.282 . S
O152 Cd144 2.277 . S
O152 C145 1.226 . S
O153 Cd144 2.356 1_565 S
O153 C151 1.282 . S
C154 O155 1.306 1_556 S
C154 O157 1.160 . S
O155 C154 1.306 1_554 S
O155 Cd156 2.228 . S
Cd156 O155 2.228 . S
Cd156 O160 2.273 . S
Cd156 O164 2.277 . S
O157 C154 1.160 . S
O157 Cd158 2.203 1_556 S
Cd158 O157 2.203 1_554 S
Cd158 O160 2.411 . S
Cd158 O161 2.333 . S
Cd158 O162 2.352 1_554 S
Cd158 O166 2.277 . S
Cd158 O167 2.356 1_554 S
C159 O164 1.209 . S
C159 O166 1.226 . S
O160 Cd156 2.273 . S
O160 Cd158 2.411 . S
O160 C163 1.320 . S
O161 Cd158 2.333 . S
O161 C163 1.214 . S
O162 Cd158 2.352 1_556 S
O162 C165 1.258 . S
C163 O160 1.320 . S
C163 O161 1.214 . S
O164 Cd156 2.277 . S
O164 C159 1.209 . S
C165 O162 1.258 . S
C165 O167 1.282 . S
O166 Cd158 2.277 . S
O166 C159 1.226 . S
O167 Cd158 2.356 1_556 S
O167 C165 1.282 . S
C168 O169 1.306 . S
C168 O171 1.160 . S
O169 C168 1.306 . S
O169 Cd170 2.228 . S
Cd170 O169 2.228 . S
Cd170 O174 2.273 1_554 S
Cd170 O178 2.277 . S
O171 C168 1.160 . S
O171 Cd172 2.203 . S
Cd172 O171 2.203 . S
Cd172 O174 2.411 1_554 S
Cd172 O175 2.333 1_554 S
Cd172 O176 2.352 1_554 S
Cd172 O180 2.277 . S
Cd172 O181 2.356 1_554 S
C173 O178 1.209 . S
C173 O180 1.226 . S
O174 Cd170 2.273 1_556 S
O174 Cd172 2.411 1_556 S
O174 C177 1.320 . S
O175 Cd172 2.333 1_556 S
O175 C177 1.214 . S
O176 Cd172 2.352 1_556 S
O176 C179 1.258 . S
C177 O174 1.320 . S
C177 O175 1.214 . S
O178 Cd170 2.277 . S
O178 C173 1.209 . S
C179 O176 1.258 . S
C179 O181 1.282 . S
O180 Cd172 2.277 . S
O180 C173 1.226 . S
O181 Cd172 2.356 1_556 S
O181 C179 1.282 . S
C182 O183 1.306 . S
C182 O185 1.160 . S
O183 C182 1.306 . S
O183 Cd184 2.228 . S
Cd184 O183 2.228 . S
Cd184 O188 2.273 1_556 S
Cd184 O192 2.277 . S
O185 C182 1.160 . S
O185 Cd186 2.203 1_556 S
Cd186 O185 2.203 1_554 S
Cd186 O188 2.411 . S
Cd186 O189 2.333 . S
Cd186 O190 2.352 . S
Cd186 O194 2.277 1_554 S
Cd186 O195 2.356 . S
C187 O192 1.209 . S
C187 O194 1.226 . S
O188 Cd184 2.273 1_554 S
O188 Cd186 2.411 . S
O188 C191 1.320 . S
O189 Cd186 2.333 . S
O189 C191 1.214 . S
O190 Cd186 2.352 . S
O190 C193 1.258 . S
C191 O188 1.320 . S
C191 O189 1.214 . S
O192 Cd184 2.277 . S
O192 C187 1.209 . S
C193 O190 1.258 . S
C193 O195 1.282 . S
O194 Cd186 2.277 1_556 S
O194 C187 1.226 . S
O195 Cd186 2.356 . S
O195 C193 1.282 . S
C196 O197 1.306 . S
C196 O199 1.160 . S
O197 C196 1.306 . S
O197 Cd198 2.228 . S
Cd198 O197 2.228 . S
Cd198 O202 2.273 . S
Cd198 O206 2.277 . S
O199 C196 1.160 . S
O199 Cd200 2.203 . S
Cd200 O199 2.203 . S
Cd200 O202 2.411 . S
Cd200 O203 2.333 . S
Cd200 O204 2.352 . S
Cd200 O208 2.277 . S
Cd200 O209 2.356 . S
C201 O206 1.209 . S
C201 O208 1.226 . S
O202 Cd198 2.273 . S
O202 Cd200 2.411 . S
O202 C205 1.320 . S
O203 Cd200 2.333 . S
O203 C205 1.214 . S
O204 Cd200 2.352 . S
O204 C207 1.258 . S
C205 O202 1.320 . S
C205 O203 1.214 . S
O206 Cd198 2.277 . S
O206 C201 1.209 . S
C207 O204 1.258 . S
C207 O209 1.282 . S
O208 Cd200 2.277 . S
O208 C201 1.226 . S
O209 Cd200 2.356 . S
O209 C207 1.282 . S
C210 O211 1.306 . S
C210 O213 1.160 . S
O211 C210 1.306 . S
O211 Cd212 2.228 . S
Cd212 O211 2.228 . S
Cd212 O216 2.273 . S
Cd212 O220 2.277 . S
O213 C210 1.160 . S
O213 Cd214 2.203 . S
Cd214 O213 2.203 . S
Cd214 O216 2.411 . S
Cd214 O217 2.333 . S
Cd214 O218 2.352 . S
Cd214 O222 2.277 . S
Cd214 O223 2.356 . S
C215 O220 1.209 . S
C215 O222 1.226 . S
O216 Cd212 2.273 . S
O216 Cd214 2.411 . S
O216 C219 1.320 . S
O217 Cd214 2.333 . S
O217 C219 1.214 . S
O218 Cd214 2.352 . S
O218 C221 1.258 . S
C219 O216 1.320 . S
C219 O217 1.214 . S
O220 Cd212 2.277 . S
O220 C215 1.209 . S
C221 O218 1.258 . S
C221 O223 1.282 . S
O222 Cd214 2.277 . S
O222 C215 1.226 . S
O223 Cd214 2.356 . S
O223 C221 1.282 . S
C224 O225 1.306 1_565 S
C224 O227 1.160 . S
O225 C224 1.306 1_545 S
O225 Cd226 2.228 . S
Cd226 O225 2.228 . S
Cd226 O230 2.273 . S
Cd226 O234 2.277 . S
O227 C224 1.160 . S
O227 Cd228 2.189 1_565 S
Cd228 O227 2.189 1_545 S
Cd228 O230 2.423 . S
Cd228 O231 2.349 . S
Cd228 O232 2.321 1_545 S
Cd228 O236 2.300 . S
Cd228 O237 2.338 1_545 S
C229 O234 1.209 . S
C229 O236 1.226 . S
O230 Cd226 2.273 . S
O230 Cd228 2.423 . S
O230 C233 1.320 . S
O231 Cd228 2.349 . S
O231 C233 1.214 . S
O232 Cd228 2.321 1_565 S
O232 C235 1.258 . S
C233 O230 1.320 . S
C233 O231 1.214 . S
O234 Cd226 2.277 . S
O234 C229 1.209 . S
C235 O232 1.258 . S
C235 O237 1.282 . S
O236 Cd228 2.300 . S
O236 C229 1.226 . S
O237 Cd228 2.338 1_565 S
O237 C235 1.282 . S
C238 O239 1.306 . S
C238 O241 1.160 . S
O239 C238 1.306 . S
O239 Cd240 2.228 . S
Cd240 O239 2.228 . S
Cd240 O244 2.273 . S
Cd240 O248 2.277 . S
O241 C238 1.160 . S
O241 Cd242 2.203 . S
Cd242 O241 2.203 . S
Cd242 O244 2.411 . S
Cd242 O245 2.333 . S
Cd242 O246 2.352 . S
Cd242 O250 2.277 . S
Cd242 O251 2.356 . S
C243 O248 1.209 . S
C243 O250 1.226 . S
O244 Cd240 2.273 . S
O244 Cd242 2.411 . S
O244 C247 1.320 . S
O245 Cd242 2.333 . S
O245 C247 1.214 . S
O246 Cd242 2.352 . S
O246 C249 1.258 . S
C247 O244 1.320 . S
C247 O245 1.214 . S
O248 Cd240 2.277 . S
O248 C243 1.209 . S
C249 O246 1.258 . S
C249 O251 1.282 . S
O250 Cd242 2.277 . S
O250 C243 1.226 . S
O251 Cd242 2.356 . S
O251 C249 1.282 . S
C252 O253 1.306 . S
C252 O255 1.160 . S
O253 C252 1.306 . S
O253 Cd254 2.228 . S
Cd254 O253 2.228 . S
Cd254 O258 2.273 . S
Cd254 O262 2.277 . S
O255 C252 1.160 . S
O255 Cd256 2.203 . S
Cd256 O255 2.203 . S
Cd256 O258 2.411 . S
Cd256 O259 2.333 . S
Cd256 O260 2.352 . S
Cd256 O264 2.277 . S
Cd256 O265 2.356 . S
C257 O262 1.209 . S
C257 O264 1.226 . S
O258 Cd254 2.273 . S
O258 Cd256 2.411 . S
O258 C261 1.320 . S
O259 Cd256 2.333 . S
O259 C261 1.214 . S
O260 Cd256 2.352 . S
O260 C263 1.258 . S
C261 O258 1.320 . S
C261 O259 1.214 . S
O262 Cd254 2.277 . S
O262 C257 1.209 . S
C263 O260 1.258 . S
C263 O265 1.282 . S
O264 Cd256 2.277 . S
O264 C257 1.226 . S
O265 Cd256 2.356 . S
O265 C263 1.282 . S
C266 O267 1.306 . S
C266 O269 1.160 . S
O267 C266 1.306 . S
O267 Cd268 2.228 1_545 S
Cd268 O267 2.228 1_565 S
Cd268 O272 2.273 . S
Cd268 O276 2.277 . S
O269 C266 1.160 . S
O269 Cd270 2.203 . S
Cd270 O269 2.203 . S
Cd270 O272 2.411 1_545 S
Cd270 O273 2.333 1_545 S
Cd270 O274 2.352 . S
Cd270 O278 2.277 1_545 S
Cd270 O279 2.356 . S
C271 O276 1.209 . S
C271 O278 1.226 . S
O272 Cd268 2.273 . S
O272 Cd270 2.411 1_565 S
O272 C275 1.320 . S
O273 Cd270 2.333 1_565 S
O273 C275 1.214 . S
O274 Cd270 2.352 . S
O274 C277 1.258 . S
C275 O272 1.320 . S
C275 O273 1.214 . S
O276 Cd268 2.277 . S
O276 C271 1.209 . S
C277 O274 1.258 . S
C277 O279 1.282 . S
O278 Cd270 2.277 1_565 S
O278 C271 1.226 . S
O279 Cd270 2.356 . S
O279 C277 1.282 . S
C280 O281 1.306 1_556 S
C280 O283 1.160 . S
O281 C280 1.306 1_554 S
O281 Cd282 2.228 . S
Cd282 O281 2.228 . S
Cd282 O286 2.273 . S
Cd282 O290 2.277 . S
O283 C280 1.160 . S
O283 Cd284 2.203 1_556 S
Cd284 O283 2.203 1_554 S
Cd284 O286 2.411 . S
Cd284 O287 2.333 . S
Cd284 O288 2.352 1_554 S
Cd284 O292 2.277 . S
Cd284 O293 2.356 1_554 S
C285 O290 1.209 . S
C285 O292 1.226 . S
O286 Cd282 2.273 . S
O286 Cd284 2.411 . S
O286 C289 1.320 . S
O287 Cd284 2.333 . S
O287 C289 1.214 . S
O288 Cd284 2.352 1_556 S
O288 C291 1.258 . S
C289 O286 1.320 . S
C289 O287 1.214 . S
O290 Cd282 2.277 . S
O290 C285 1.209 . S
C291 O288 1.258 . S
C291 O293 1.282 . S
O292 Cd284 2.277 . S
O292 C285 1.226 . S
O293 Cd284 2.356 1_556 S
O293 C291 1.282 . S
C294 O295 1.306 . S
C294 O297 1.160 . S
O295 C294 1.306 . S
O295 Cd296 2.228 . S
Cd296 O295 2.228 . S
Cd296 O300 2.273 . S
Cd296 O304 2.277 . S
O297 C294 1.160 . S
O297 Cd298 2.203 . S
Cd298 O297 2.203 . S
Cd298 O300 2.411 . S
Cd298 O301 2.333 . S
Cd298 O302 2.352 . S
Cd298 O306 2.277 . S
Cd298 O307 2.356 . S
C299 O304 1.209 . S
C299 O306 1.226 . S
O300 Cd296 2.273 . S
O300 Cd298 2.411 . S
O300 C303 1.320 . S
O301 Cd298 2.333 . S
O301 C303 1.214 . S
O302 Cd298 2.352 . S
O302 C305 1.258 . S
C303 O300 1.320 . S
C303 O301 1.214 . S
O304 Cd296 2.277 . S
O304 C299 1.209 . S
C305 O302 1.258 . S
C305 O307 1.282 . S
O306 Cd298 2.277 . S
O306 C299 1.226 . S
O307 Cd298 2.356 . S
O307 C305 1.282 . S
C308 O309 1.306 . S
C308 O311 1.160 . S
O309 C308 1.306 . S
O309 Cd310 2.228 . S
Cd310 O309 2.228 . S
Cd310 O314 2.273 . S
Cd310 O318 2.277 . S
O311 C308 1.160 . S
O311 Cd312 2.203 . S
Cd312 O311 2.203 . S
Cd312 O314 2.411 . S
Cd312 O315 2.333 . S
Cd312 O316 2.352 . S
Cd312 O320 2.277 . S
Cd312 O321 2.356 . S
C313 O318 1.209 . S
C313 O320 1.226 . S
O314 Cd310 2.273 . S
O314 Cd312 2.411 . S
O314 C317 1.320 . S
O315 Cd312 2.333 . S
O315 C317 1.214 . S
O316 Cd312 2.352 . S
O316 C319 1.258 . S
C317 O314 1.320 . S
C317 O315 1.214 . S
O318 Cd310 2.277 . S
O318 C313 1.209 . S
C319 O316 1.258 . S
C319 O321 1.282 . S
O320 Cd312 2.277 . S
O320 C313 1.226 . S
O321 Cd312 2.356 . S
O321 C319 1.282 . S
C322 O323 1.306 . S
C322 O325 1.160 . S
O323 C322 1.306 . S
O323 Cd324 2.228 . S
Cd324 O323 2.228 . S
Cd324 O328 2.273 . S
Cd324 O332 2.277 . S
O325 C322 1.160 . S
O325 Cd326 2.203 . S
Cd326 O325 2.203 . S
Cd326 O328 2.411 . S
Cd326 O329 2.333 . S
Cd326 O330 2.352 . S
Cd326 O334 2.277 . S
Cd326 O335 2.356 . S
C327 O332 1.209 . S
C327 O334 1.226 . S
O328 Cd324 2.273 . S
O328 Cd326 2.411 . S
O328 C331 1.320 . S
O329 Cd326 2.333 . S
O329 C331 1.214 . S
O330 Cd326 2.352 . S
O330 C333 1.258 . S
C331 O328 1.320 . S
C331 O329 1.214 . S
O332 Cd324 2.277 . S
O332 C327 1.209 . S
C333 O330 1.258 . S
C333 O335 1.282 . S
O334 Cd326 2.277 . S
O334 C327 1.226 . S
O335 Cd326 2.356 . S
O335 C333 1.282 . S
H336 C342 0.930 . S
H337 C346 0.930 . S
H338 C351 0.929 . S
H339 C349 0.929 . S
H340 C344 0.929 . S
H341 C350 0.929 . S
C342 H336 0.930 . S
C342 C343 1.367 . S
C342 C350 1.378 . S
C343 C342 1.367 . S
C343 C351 1.433 . S
C344 H340 0.929 . S
C344 C346 1.378 . S
C344 C348 1.350 . S
C345 C348 1.463 . S
C345 C350 1.350 . S
C345 N353 1.427 . S
C346 H337 0.930 . S
C346 C344 1.378 . S
C346 C347 1.367 . S
C347 C346 1.367 . S
C347 C349 1.433 . S
C348 C344 1.350 . S
C348 C345 1.463 . S
C348 N352 1.427 . S
C349 H339 0.929 . S
C349 C347 1.433 . S
C349 N352 1.384 . S
C350 H341 0.929 . S
C350 C342 1.378 . S
C350 C345 1.350 . S
C351 H338 0.929 . S
C351 C343 1.433 . S
C351 N353 1.384 . S
N352 C348 1.427 . S
N352 C349 1.384 . S
N353 C345 1.427 . S
N353 C351 1.384 . S
H354 C360 0.930 . S
H355 C364 0.930 . S
H356 C369 0.929 . S
H357 C367 0.929 . S
H358 C362 0.929 . S
H359 C368 0.929 . S
C360 H354 0.930 . S
C360 C361 1.367 . S
C360 C368 1.378 . S
C361 C360 1.367 . S
C361 C369 1.433 . S
C362 H358 0.929 . S
C362 C364 1.378 . S
C362 C366 1.350 . S
C363 C366 1.463 . S
C363 C368 1.350 . S
C363 N371 1.427 . S
C364 H355 0.930 . S
C364 C362 1.378 . S
C364 C365 1.367 . S
C365 C364 1.367 . S
C365 C367 1.433 . S
C366 C362 1.350 . S
C366 C363 1.463 . S
C366 N370 1.427 . S
C367 H357 0.929 . S
C367 C365 1.433 . S
C367 N370 1.384 . S
C368 H359 0.929 . S
C368 C360 1.378 . S
C368 C363 1.350 . S
C369 H356 0.929 . S
C369 C361 1.433 . S
C369 N371 1.384 . S
N370 C366 1.427 . S
N370 C367 1.384 . S
N371 C363 1.427 . S
N371 C369 1.384 . S
H372 C378 0.930 . S
H373 C382 0.930 . S
H374 C387 0.929 . S
H375 C385 0.929 . S
H376 C380 0.929 . S
H377 C386 0.929 . S
C378 H372 0.930 . S
C378 C379 1.367 . S
C378 C386 1.378 . S
C379 C378 1.367 . S
C379 C387 1.433 . S
C380 H376 0.929 . S
C380 C382 1.378 . S
C380 C384 1.350 . S
C381 C384 1.463 . S
C381 C386 1.350 . S
C381 N389 1.427 . S
C382 H373 0.930 . S
C382 C380 1.378 . S
C382 C383 1.367 . S
C383 C382 1.367 . S
C383 C385 1.433 . S
C384 C380 1.350 . S
C384 C381 1.463 . S
C384 N388 1.427 . S
C385 H375 0.929 . S
C385 C383 1.433 . S
C385 N388 1.384 . S
C386 H377 0.929 . S
C386 C378 1.378 . S
C386 C381 1.350 . S
C387 H374 0.929 . S
C387 C379 1.433 . S
C387 N389 1.384 . S
N388 C384 1.427 . S
N388 C385 1.384 . S
N389 C381 1.427 . S
N389 C387 1.384 . S
H390 C396 0.930 . S
H391 C400 0.930 . S
H392 C405 0.929 . S
H393 C403 0.929 . S
H394 C398 0.929 . S
H395 C404 0.929 . S
C396 H390 0.930 . S
C396 C397 1.367 . S
C396 C404 1.378 . S
C397 C396 1.367 . S
C397 C405 1.433 . S
C398 H394 0.929 . S
C398 C400 1.378 . S
C398 C402 1.350 . S
C399 C402 1.463 . S
C399 C404 1.350 . S
C399 N407 1.427 . S
C400 H391 0.930 . S
C400 C398 1.378 . S
C400 C401 1.367 . S
C401 C400 1.367 . S
C401 C403 1.433 . S
C402 C398 1.350 . S
C402 C399 1.463 . S
C402 N406 1.427 . S
C403 H393 0.929 . S
C403 C401 1.433 . S
C403 N406 1.384 . S
C404 H395 0.929 . S
C404 C396 1.378 . S
C404 C399 1.350 . S
C405 H392 0.929 . S
C405 C397 1.433 . S
C405 N407 1.384 . S
N406 C402 1.427 . S
N406 C403 1.384 . S
N407 C399 1.427 . S
N407 C405 1.384 . S
H408 C414 0.930 . S
H409 C418 0.930 . S
H410 C423 0.929 . S
H411 C421 0.929 . S
H412 C416 0.929 . S
H413 C422 0.929 . S
C414 H408 0.930 . S
C414 C415 1.367 . S
C414 C422 1.378 . S
C415 C414 1.367 . S
C415 C423 1.433 . S
C416 H412 0.929 . S
C416 C418 1.378 . S
C416 C420 1.350 . S
C417 C420 1.463 . S
C417 C422 1.350 . S
C417 N425 1.427 . S
C418 H409 0.930 . S
C418 C416 1.378 . S
C418 C419 1.367 . S
C419 C418 1.367 . S
C419 C421 1.433 . S
C420 C416 1.350 . S
C420 C417 1.463 . S
C420 N424 1.427 . S
C421 H411 0.929 . S
C421 C419 1.433 . S
C421 N424 1.384 . S
C422 H413 0.929 . S
C422 C414 1.378 . S
C422 C417 1.350 . S
C423 H410 0.929 . S
C423 C415 1.433 . S
C423 N425 1.384 . S
N424 C420 1.427 . S
N424 C421 1.384 . S
N425 C417 1.427 . S
N425 C423 1.384 . S
H426 C432 0.930 . S
H427 C436 0.930 . S
H428 C441 0.929 . S
H429 C439 0.929 . S
H430 C434 0.929 . S
H431 C440 0.929 . S
C432 H426 0.930 . S
C432 C433 1.367 . S
C432 C440 1.378 . S
C433 C432 1.367 . S
C433 C441 1.433 . S
C434 H430 0.929 . S
C434 C436 1.378 . S
C434 C438 1.350 . S
C435 C438 1.463 . S
C435 C440 1.350 . S
C435 N443 1.427 . S
C436 H427 0.930 . S
C436 C434 1.378 . S
C436 C437 1.367 . S
C437 C436 1.367 . S
C437 C439 1.433 . S
C438 C434 1.350 . S
C438 C435 1.463 . S
C438 N442 1.427 . S
C439 H429 0.929 . S
C439 C437 1.433 . S
C439 N442 1.384 . S
C440 H431 0.929 . S
C440 C432 1.378 . S
C440 C435 1.350 . S
C441 H428 0.929 . S
C441 C433 1.433 . S
C441 N443 1.384 . S
N442 C438 1.427 . S
N442 C439 1.384 . S
N443 C435 1.427 . S
N443 C441 1.384 . S
H444 C450 0.930 . S
H445 C454 0.930 . S
H446 C459 0.929 . S
H447 C457 0.929 . S
H448 C452 0.929 . S
H449 C458 0.929 . S
C450 H444 0.930 . S
C450 C451 1.367 . S
C450 C458 1.378 . S
C451 C450 1.367 . S
C451 C459 1.433 . S
C452 H448 0.929 . S
C452 C454 1.378 . S
C452 C456 1.350 . S
C453 C456 1.463 . S
C453 C458 1.350 . S
C453 N461 1.427 . S
C454 H445 0.930 . S
C454 C452 1.378 . S
C454 C455 1.367 . S
C455 C454 1.367 . S
C455 C457 1.433 . S
C456 C452 1.350 . S
C456 C453 1.463 . S
C456 N460 1.427 . S
C457 H447 0.929 . S
C457 C455 1.433 . S
C457 N460 1.384 . S
C458 H449 0.929 . S
C458 C450 1.378 . S
C458 C453 1.350 . S
C459 H446 0.929 . S
C459 C451 1.433 . S
C459 N461 1.384 . S
N460 C456 1.427 . S
N460 C457 1.384 . S
N461 C453 1.427 . S
N461 C459 1.384 . S
H462 C468 0.930 . S
H463 C472 0.930 . S
H464 C477 0.929 . S
H465 C475 0.929 . S
H466 C470 0.929 . S
H467 C476 0.929 . S
C468 H462 0.930 . S
C468 C469 1.367 . S
C468 C476 1.378 . S
C469 C468 1.367 . S
C469 C477 1.433 . S
C470 H466 0.929 . S
C470 C472 1.378 . S
C470 C474 1.350 . S
C471 C474 1.463 . S
C471 C476 1.350 . S
C471 N479 1.427 . S
C472 H463 0.930 . S
C472 C470 1.378 . S
C472 C473 1.367 . S
C473 C472 1.367 . S
C473 C475 1.433 . S
C474 C470 1.350 . S
C474 C471 1.463 . S
C474 N478 1.427 . S
C475 H465 0.929 . S
C475 C473 1.433 . S
C475 N478 1.384 . S
C476 H467 0.929 . S
C476 C468 1.378 . S
C476 C471 1.350 . S
C477 H464 0.929 . S
C477 C469 1.433 . S
C477 N479 1.384 . S
N478 C474 1.427 . S
N478 C475 1.384 . S
N479 C471 1.427 . S
N479 C477 1.384 . S
H480 C486 0.930 . S
H481 C490 0.930 . S
H482 C495 0.929 . S
H483 C493 0.929 . S
H484 C488 0.929 . S
H485 C494 0.929 . S
C486 H480 0.930 . S
C486 C487 1.367 . S
C486 C494 1.378 . S
C487 C486 1.367 . S
C487 C495 1.433 . S
C488 H484 0.929 . S
C488 C490 1.378 . S
C488 C492 1.350 . S
C489 C492 1.463 . S
C489 C494 1.350 . S
C489 N497 1.427 . S
C490 H481 0.930 . S
C490 C488 1.378 . S
C490 C491 1.367 . S
C491 C490 1.367 . S
C491 C493 1.433 . S
C492 C488 1.350 . S
C492 C489 1.463 . S
C492 N496 1.427 . S
C493 H483 0.929 . S
C493 C491 1.433 . S
C493 N496 1.384 . S
C494 H485 0.929 . S
C494 C486 1.378 . S
C494 C489 1.350 . S
C495 H482 0.929 . S
C495 C487 1.433 . S
C495 N497 1.384 . S
N496 C492 1.427 . S
N496 C493 1.384 . S
N497 C489 1.427 . S
N497 C495 1.384 . S
H498 C504 0.930 . S
H499 C508 0.930 . S
H500 C513 0.929 . S
H501 C511 0.929 . S
H502 C506 0.929 . S
H503 C512 0.929 . S
C504 H498 0.930 . S
C504 C505 1.367 . S
C504 C512 1.378 . S
C505 C504 1.367 . S
C505 C513 1.433 . S
C506 H502 0.929 . S
C506 C508 1.378 . S
C506 C510 1.350 . S
C507 C510 1.463 . S
C507 C512 1.350 . S
C507 N515 1.427 . S
C508 H499 0.930 . S
C508 C506 1.378 . S
C508 C509 1.367 . S
C509 C508 1.367 . S
C509 C511 1.433 . S
C510 C506 1.350 . S
C510 C507 1.463 . S
C510 N514 1.427 . S
C511 H501 0.929 . S
C511 C509 1.433 . S
C511 N514 1.384 . S
C512 H503 0.929 . S
C512 C504 1.378 . S
C512 C507 1.350 . S
C513 H500 0.929 . S
C513 C505 1.433 . S
C513 N515 1.384 . S
N514 C510 1.427 . S
N514 C511 1.384 . S
N515 C507 1.427 . S
N515 C513 1.384 . S
H516 C522 0.930 . S
H517 C526 0.930 . S
H518 C531 0.929 . S
H519 C529 0.929 . S
H520 C524 0.929 . S
H521 C530 0.929 . S
C522 H516 0.930 . S
C522 C523 1.367 . S
C522 C530 1.378 . S
C523 C522 1.367 . S
C523 C531 1.433 . S
C524 H520 0.929 . S
C524 C526 1.378 . S
C524 C528 1.350 . S
C525 C528 1.463 . S
C525 C530 1.350 . S
C525 N533 1.427 . S
C526 H517 0.930 . S
C526 C524 1.378 . S
C526 C527 1.367 . S
C527 C526 1.367 . S
C527 C529 1.433 . S
C528 C524 1.350 . S
C528 C525 1.463 . S
C528 N532 1.427 . S
C529 H519 0.929 . S
C529 C527 1.433 . S
C529 N532 1.384 . S
C530 H521 0.929 . S
C530 C522 1.378 . S
C530 C525 1.350 . S
C531 H518 0.929 . S
C531 C523 1.433 . S
C531 N533 1.384 . S
N532 C528 1.427 . S
N532 C529 1.384 . S
N533 C525 1.427 . S
N533 C531 1.384 . S
H534 C540 0.930 . S
H535 C544 0.930 . S
H536 C549 0.929 . S
H537 C547 0.888 1_545 S
H538 C542 0.929 . S
H539 C548 0.929 . S
C540 H534 0.930 . S
C540 C541 1.367 . S
C540 C548 1.378 . S
C541 C540 1.367 . S
C541 C549 1.433 . S
C542 H538 0.929 . S
C542 C544 1.378 . S
C542 C546 1.350 . S
C543 C546 1.463 . S
C543 C548 1.350 . S
C543 N551 1.427 . S
C544 H535 0.930 . S
C544 C542 1.378 . S
C544 C545 1.367 . S
C545 C544 1.367 . S
C545 C547 1.433 . S
C546 C542 1.350 . S
C546 C543 1.463 . S
C546 N550 1.427 . S
C547 H537 0.888 1_565 S
C547 C545 1.433 . S
C547 N550 1.384 . S
C548 H539 0.929 . S
C548 C540 1.378 . S
C548 C543 1.350 . S
C549 H536 0.929 . S
C549 C541 1.433 . S
C549 N551 1.384 . S
N550 C546 1.427 . S
N550 C547 1.384 . S
N551 C543 1.427 . S
N551 C549 1.384 . S
H552 C558 0.930 . S
H553 C562 0.930 . S
H554 C567 0.929 . S
H555 C565 0.929 . S
H556 C560 0.929 . S
H557 C566 0.929 . S
C558 H552 0.930 . S
C558 C559 1.367 . S
C558 C566 1.378 . S
C559 C558 1.367 . S
C559 C567 1.433 . S
C560 H556 0.929 . S
C560 C562 1.378 . S
C560 C564 1.350 . S
C561 C564 1.463 . S
C561 C566 1.350 . S
C561 N569 1.427 . S
C562 H553 0.930 . S
C562 C560 1.378 . S
C562 C563 1.367 . S
C563 C562 1.367 . S
C563 C565 1.433 . S
C564 C560 1.350 . S
C564 C561 1.463 . S
C564 N568 1.427 . S
C565 H555 0.929 . S
C565 C563 1.433 . S
C565 N568 1.384 . S
C566 H557 0.929 . S
C566 C558 1.378 . S
C566 C561 1.350 . S
C567 H554 0.929 . S
C567 C559 1.433 . S
C567 N569 1.384 . S
N568 C564 1.427 . S
N568 C565 1.384 . S
N569 C561 1.427 . S
N569 C567 1.384 . S
H570 C576 0.930 . S
H571 C580 0.930 . S
H572 C585 0.929 . S
H573 C583 0.929 . S
H574 C578 0.929 . S
H575 C584 0.929 . S
C576 H570 0.930 . S
C576 C577 1.367 . S
C576 C584 1.378 . S
C577 C576 1.367 . S
C577 C585 1.433 . S
C578 H574 0.929 . S
C578 C580 1.378 . S
C578 C582 1.350 . S
C579 C582 1.463 . S
C579 C584 1.350 . S
C579 N587 1.427 . S
C580 H571 0.930 . S
C580 C578 1.378 . S
C580 C581 1.367 . S
C581 C580 1.367 . S
C581 C583 1.433 . S
C582 C578 1.350 . S
C582 C579 1.463 . S
C582 N586 1.427 . S
C583 H573 0.929 . S
C583 C581 1.433 . S
C583 N586 1.384 . S
C584 H575 0.929 . S
C584 C576 1.378 . S
C584 C579 1.350 . S
C585 H572 0.929 . S
C585 C577 1.433 . S
C585 N587 1.384 . S
N586 C582 1.427 . S
N586 C583 1.384 . S
N587 C579 1.427 . S
N587 C585 1.384 . S
H588 C594 0.930 . S
H589 C598 0.930 . S
H590 C603 0.929 . S
H591 C601 0.929 . S
H592 C596 0.929 . S
H593 C602 0.929 . S
C594 H588 0.930 . S
C594 C595 1.367 . S
C594 C602 1.378 . S
C595 C594 1.367 . S
C595 C603 1.433 . S
C596 H592 0.929 . S
C596 C598 1.378 . S
C596 C600 1.350 . S
C597 C600 1.463 . S
C597 C602 1.350 . S
C597 N605 1.427 . S
C598 H589 0.930 . S
C598 C596 1.378 . S
C598 C599 1.367 . S
C599 C598 1.367 . S
C599 C601 1.433 . S
C600 C596 1.350 . S
C600 C597 1.463 . S
C600 N604 1.427 . S
C601 H591 0.929 . S
C601 C599 1.433 . S
C601 N604 1.384 . S
C602 H593 0.929 . S
C602 C594 1.378 . S
C602 C597 1.350 . S
C603 H590 0.929 . S
C603 C595 1.433 . S
C603 N605 1.384 . S
N604 C600 1.427 . S
N604 C601 1.384 . S
N605 C597 1.427 . S
N605 C603 1.384 . S
H606 C612 0.930 . S
H607 C616 0.930 . S
H608 C621 0.929 . S
H609 C619 0.929 . S
H610 C614 0.929 . S
H611 C620 0.929 . S
C612 H606 0.930 . S
C612 C613 1.367 . S
C612 C620 1.378 . S
C613 C612 1.367 . S
C613 C621 1.433 . S
C614 H610 0.929 . S
C614 C616 1.378 . S
C614 C618 1.350 . S
C615 C618 1.463 . S
C615 C620 1.350 . S
C615 N623 1.427 . S
C616 H607 0.930 . S
C616 C614 1.378 . S
C616 C617 1.367 . S
C617 C616 1.367 . S
C617 C619 1.433 . S
C618 C614 1.350 . S
C618 C615 1.463 . S
C618 N622 1.427 . S
C619 H609 0.929 . S
C619 C617 1.433 . S
C619 N622 1.384 . S
C620 H611 0.929 . S
C620 C612 1.378 . S
C620 C615 1.350 . S
C621 H608 0.929 . S
C621 C613 1.433 . S
C621 N623 1.384 . S
N622 C618 1.427 . S
N622 C619 1.384 . S
N623 C615 1.427 . S
N623 C621 1.384 . S
H624 C630 0.930 . S
H625 C634 0.930 . S
H626 C639 0.929 . S
H627 C637 0.929 . S
H628 C632 0.929 . S
H629 C638 0.929 . S
C630 H624 0.930 . S
C630 C631 1.367 . S
C630 C638 1.378 . S
C631 C630 1.367 . S
C631 C639 1.433 . S
C632 H628 0.929 . S
C632 C634 1.378 . S
C632 C636 1.350 . S
C633 C636 1.463 . S
C633 C638 1.350 . S
C633 N641 1.427 . S
C634 H625 0.930 . S
C634 C632 1.378 . S
C634 C635 1.367 . S
C635 C634 1.367 . S
C635 C637 1.433 . S
C636 C632 1.350 . S
C636 C633 1.463 . S
C636 N640 1.427 . S
C637 H627 0.929 . S
C637 C635 1.433 . S
C637 N640 1.384 . S
C638 H629 0.929 . S
C638 C630 1.378 . S
C638 C633 1.350 . S
C639 H626 0.929 . S
C639 C631 1.433 . S
C639 N641 1.384 . S
N640 C636 1.427 . S
N640 C637 1.384 . S
N641 C633 1.427 . S
N641 C639 1.384 . S
H642 C648 0.930 . S
H643 C652 0.930 . S
H644 C657 0.929 . S
H645 C655 0.929 . S
H646 C650 0.929 . S
H647 C656 0.929 . S
C648 H642 0.930 . S
C648 C649 1.367 . S
C648 C656 1.378 . S
C649 C648 1.367 . S
C649 C657 1.433 . S
C650 H646 0.929 . S
C650 C652 1.378 . S
C650 C654 1.350 . S
C651 C654 1.463 . S
C651 C656 1.350 . S
C651 N659 1.427 . S
C652 H643 0.930 . S
C652 C650 1.378 . S
C652 C653 1.367 . S
C653 C652 1.367 . S
C653 C655 1.433 . S
C654 C650 1.350 . S
C654 C651 1.463 . S
C654 N658 1.427 . S
C655 H645 0.929 . S
C655 C653 1.433 . S
C655 N658 1.384 . S
C656 H647 0.929 . S
C656 C648 1.378 . S
C656 C651 1.350 . S
C657 H644 0.929 . S
C657 C649 1.433 . S
C657 N659 1.384 . S
N658 C654 1.427 . S
N658 C655 1.384 . S
N659 C651 1.427 . S
N659 C657 1.384 . S
H660 C666 0.930 . S
H661 C670 0.930 . S
H662 C675 0.929 1_554 S
H663 C673 0.929 . S
H664 C668 0.929 . S
H665 C674 0.929 . S
C666 H660 0.930 . S
C666 C667 1.367 . S
C666 C674 1.378 . S
C667 C666 1.367 . S
C667 C675 1.433 . S
C668 H664 0.929 . S
C668 C670 1.378 . S
C668 C672 1.350 . S
C669 C672 1.463 . S
C669 C674 1.350 . S
C669 N677 1.427 . S
C670 H661 0.930 . S
C670 C668 1.378 . S
C670 C671 1.367 . S
C671 C670 1.367 . S
C671 C673 1.433 . S
C672 C668 1.350 . S
C672 C669 1.463 . S
C672 N676 1.427 . S
C673 H663 0.929 . S
C673 C671 1.433 . S
C673 N676 1.384 . S
C674 H665 0.929 . S
C674 C666 1.378 . S
C674 C669 1.350 . S
C675 H662 0.929 1_556 S
C675 C667 1.433 . S
C675 N677 1.384 . S
N676 C672 1.427 . S
N676 C673 1.384 . S
N677 C669 1.427 . S
N677 C675 1.384 . S
H678 C684 0.930 . S
H679 C688 0.930 . S
H680 C693 0.929 . S
H681 C691 0.929 . S
H682 C686 0.929 . S
H683 C692 0.929 . S
C684 H678 0.930 . S
C684 C685 1.367 . S
C684 C692 1.378 . S
C685 C684 1.367 . S
C685 C693 1.433 . S
C686 H682 0.929 . S
C686 C688 1.378 . S
C686 C690 1.350 . S
C687 C690 1.463 . S
C687 C692 1.350 . S
C687 N695 1.427 . S
C688 H679 0.930 . S
C688 C686 1.378 . S
C688 C689 1.367 . S
C689 C688 1.367 . S
C689 C691 1.433 . S
C690 C686 1.350 . S
C690 C687 1.463 . S
C690 N694 1.427 . S
C691 H681 0.929 . S
C691 C689 1.433 . S
C691 N694 1.384 . S
C692 H683 0.929 . S
C692 C684 1.378 . S
C692 C687 1.350 . S
C693 H680 0.929 . S
C693 C685 1.433 . S
C693 N695 1.384 . S
N694 C690 1.427 . S
N694 C691 1.384 . S
N695 C687 1.427 . S
N695 C693 1.384 . S
H696 C702 0.930 . S
H697 C706 0.930 . S
H698 C711 0.929 . S
H699 C709 0.929 . S
H700 C704 0.929 . S
H701 C710 0.929 . S
C702 H696 0.930 . S
C702 C703 1.367 . S
C702 C710 1.378 . S
C703 C702 1.367 . S
C703 C711 1.433 . S
C704 H700 0.929 . S
C704 C706 1.378 . S
C704 C708 1.350 . S
C705 C708 1.463 . S
C705 C710 1.350 . S
C705 N713 1.427 . S
C706 H697 0.930 . S
C706 C704 1.378 . S
C706 C707 1.367 . S
C707 C706 1.367 . S
C707 C709 1.433 . S
C708 C704 1.350 . S
C708 C705 1.463 . S
C708 N712 1.427 . S
C709 H699 0.929 . S
C709 C707 1.433 . S
C709 N712 1.384 . S
C710 H701 0.929 . S
C710 C702 1.378 . S
C710 C705 1.350 . S
C711 H698 0.929 . S
C711 C703 1.433 . S
C711 N713 1.384 . S
N712 C708 1.427 . S
N712 C709 1.384 . S
N713 C705 1.427 . S
N713 C711 1.384 . S
H714 C720 0.930 . S
H715 C724 0.930 . S
H716 C729 0.929 . S
H717 C727 0.929 . S
H718 C722 0.929 . S
H719 C728 0.929 . S
C720 H714 0.930 . S
C720 C721 1.367 . S
C720 C728 1.378 . S
C721 C720 1.367 . S
C721 C729 1.433 . S
C722 H718 0.929 . S
C722 C724 1.378 . S
C722 C726 1.350 . S
C723 C726 1.463 . S
C723 C728 1.350 . S
C723 N731 1.427 . S
C724 H715 0.930 . S
C724 C722 1.378 . S
C724 C725 1.367 . S
C725 C724 1.367 . S
C725 C727 1.433 . S
C726 C722 1.350 . S
C726 C723 1.463 . S
C726 N730 1.427 . S
C727 H717 0.929 . S
C727 C725 1.433 . S
C727 N730 1.384 . S
C728 H719 0.929 . S
C728 C720 1.378 . S
C728 C723 1.350 . S
C729 H716 0.929 . S
C729 C721 1.433 . S
C729 N731 1.384 . S
N730 C726 1.427 . S
N730 C727 1.384 . S
N731 C723 1.427 . S
N731 C729 1.384 . S
H732 C738 0.930 . S
H733 C742 0.930 . S
H734 C747 0.929 . S
H735 C745 0.929 . S
H736 C740 0.929 . S
H737 C746 0.929 . S
C738 H732 0.930 . S
C738 C739 1.367 . S
C738 C746 1.378 . S
C739 C738 1.367 . S
C739 C747 1.433 . S
C740 H736 0.929 . S
C740 C742 1.378 . S
C740 C744 1.350 . S
C741 C744 1.463 . S
C741 C746 1.350 . S
C741 N749 1.427 . S
C742 H733 0.930 . S
C742 C740 1.378 . S
C742 C743 1.367 . S
C743 C742 1.367 . S
C743 C745 1.433 . S
C744 C740 1.350 . S
C744 C741 1.463 . S
C744 N748 1.427 . S
C745 H735 0.929 . S
C745 C743 1.433 . S
C745 N748 1.384 . S
C746 H737 0.929 . S
C746 C738 1.378 . S
C746 C741 1.350 . S
C747 H734 0.929 . S
C747 C739 1.433 . S
C747 N749 1.384 . S
N748 C744 1.427 . S
N748 C745 1.384 . S
N749 C741 1.427 . S
N749 C747 1.384 . S
H750 C756 0.930 . S
H751 C760 0.930 1_545 S
H752 C765 0.929 . S
H753 C763 0.929 . S
H754 C758 0.929 . S
H755 C764 0.929 . S
C756 H750 0.930 . S
C756 C757 1.367 . S
C756 C764 1.378 . S
C757 C756 1.367 . S
C757 C765 1.433 . S
C758 H754 0.929 . S
C758 C760 1.378 . S
C758 C762 1.350 . S
C759 C762 1.463 . S
C759 C764 1.350 . S
C759 N767 1.427 . S
C760 H751 0.930 1_565 S
C760 C758 1.378 . S
C760 C761 1.367 . S
C761 C760 1.367 . S
C761 C763 1.433 . S
C762 C758 1.350 . S
C762 C759 1.463 . S
C762 N766 1.427 . S
C763 H753 0.929 . S
C763 C761 1.433 . S
C763 N766 1.384 . S
C764 H755 0.929 . S
C764 C756 1.378 . S
C764 C759 1.350 . S
C765 H752 0.929 . S
C765 C757 1.433 . S
C765 N767 1.384 . S
N766 C762 1.427 . S
N766 C763 1.384 . S
N767 C759 1.427 . S
N767 C765 1.384 . S
H768 C774 0.930 . S
H769 C778 0.930 . S
H770 C783 0.929 . S
H771 C781 0.929 . S
H772 C776 0.929 . S
H773 C782 0.929 . S
C774 H768 0.930 . S
C774 C775 1.367 . S
C774 C782 1.378 . S
C775 C774 1.367 . S
C775 C783 1.433 . S
C776 H772 0.929 . S
C776 C778 1.378 . S
C776 C780 1.350 . S
C777 C780 1.463 . S
C777 C782 1.350 . S
C777 N785 1.427 . S
C778 H769 0.930 . S
C778 C776 1.378 . S
C778 C779 1.367 . S
C779 C778 1.367 . S
C779 C781 1.433 . S
C780 C776 1.350 . S
C780 C777 1.463 . S
C780 N784 1.427 . S
C781 H771 0.929 . S
C781 C779 1.433 . S
C781 N784 1.384 . S
C782 H773 0.929 . S
C782 C774 1.378 . S
C782 C777 1.350 . S
C783 H770 0.929 . S
C783 C775 1.433 . S
C783 N785 1.384 . S
N784 C780 1.427 . S
N784 C781 1.384 . S
N785 C777 1.427 . S
N785 C783 1.384 . S
H786 C792 0.930 . S
H787 C796 0.930 . S
H788 C801 0.929 . S
H789 C799 0.929 . S
H790 C794 0.929 . S
H791 C800 0.929 . S
C792 H786 0.930 . S
C792 C793 1.367 . S
C792 C800 1.378 . S
C793 C792 1.367 . S
C793 C801 1.433 . S
C794 H790 0.929 . S
C794 C796 1.378 . S
C794 C798 1.350 . S
C795 C798 1.463 . S
C795 C800 1.350 . S
C795 N803 1.427 . S
C796 H787 0.930 . S
C796 C794 1.378 . S
C796 C797 1.367 . S
C797 C796 1.367 . S
C797 C799 1.433 . S
C798 C794 1.350 . S
C798 C795 1.463 . S
C798 N802 1.427 . S
C799 H789 0.929 . S
C799 C797 1.433 . S
C799 N802 1.384 . S
C800 H791 0.929 . S
C800 C792 1.378 . S
C800 C795 1.350 . S
C801 H788 0.929 . S
C801 C793 1.433 . S
C801 N803 1.384 . S
N802 C798 1.427 . S
N802 C799 1.384 . S
N803 C795 1.427 . S
N803 C801 1.384 . S
H804 C810 0.930 . S
H805 C814 0.930 . S
H806 C819 0.929 . S
H807 C817 0.929 . S
H808 C812 0.929 . S
H809 C818 0.929 . S
C810 H804 0.930 . S
C810 C811 1.367 . S
C810 C818 1.378 . S
C811 C810 1.367 . S
C811 C819 1.433 . S
C812 H808 0.929 . S
C812 C814 1.378 . S
C812 C816 1.350 . S
C813 C816 1.463 . S
C813 C818 1.350 . S
C813 N821 1.427 . S
C814 H805 0.930 . S
C814 C812 1.378 . S
C814 C815 1.367 . S
C815 C814 1.367 . S
C815 C817 1.433 . S
C816 C812 1.350 . S
C816 C813 1.463 . S
C816 N820 1.427 . S
C817 H807 0.929 . S
C817 C815 1.433 . S
C817 N820 1.384 . S
C818 H809 0.929 . S
C818 C810 1.378 . S
C818 C813 1.350 . S
C819 H806 0.929 . S
C819 C811 1.433 . S
C819 N821 1.384 . S
N820 C816 1.427 . S
N820 C817 1.384 . S
N821 C813 1.427 . S
N821 C819 1.384 . S
H822 C828 0.930 . S
H823 C832 0.930 1_554 S
H824 C837 0.929 . S
H825 C835 0.929 . S
H826 C830 0.929 . S
H827 C836 0.929 . S
C828 H822 0.930 . S
C828 C829 1.367 . S
C828 C836 1.378 . S
C829 C828 1.367 . S
C829 C837 1.433 . S
C830 H826 0.929 . S
C830 C832 1.378 . S
C830 C834 1.350 . S
C831 C834 1.463 . S
C831 C836 1.350 . S
C831 N839 1.427 . S
C832 H823 0.930 1_556 S
C832 C830 1.378 . S
C832 C833 1.367 . S
C833 C832 1.367 . S
C833 C835 1.433 . S
C834 C830 1.350 . S
C834 C831 1.463 . S
C834 N838 1.427 . S
C835 H825 0.929 . S
C835 C833 1.433 . S
C835 N838 1.384 . S
C836 H827 0.929 . S
C836 C828 1.378 . S
C836 C831 1.350 . S
C837 H824 0.929 . S
C837 C829 1.433 . S
C837 N839 1.384 . S
N838 C834 1.427 . S
N838 C835 1.384 . S
N839 C831 1.427 . S
N839 C837 1.384 . S
H840 C846 0.930 . S
H841 C850 0.930 . S
H842 C855 0.929 . S
H843 C853 0.929 . S
H844 C848 0.929 . S
H845 C854 0.929 . S
C846 H840 0.930 . S
C846 C847 1.367 . S
C846 C854 1.378 . S
C847 C846 1.367 . S
C847 C855 1.433 . S
C848 H844 0.929 . S
C848 C850 1.378 . S
C848 C852 1.350 . S
C849 C852 1.463 . S
C849 C854 1.350 . S
C849 N857 1.427 . S
C850 H841 0.930 . S
C850 C848 1.378 . S
C850 C851 1.367 . S
C851 C850 1.367 . S
C851 C853 1.433 . S
C852 C848 1.350 . S
C852 C849 1.463 . S
C852 N856 1.427 . S
C853 H843 0.929 . S
C853 C851 1.433 . S
C853 N856 1.384 . S
C854 H845 0.929 . S
C854 C846 1.378 . S
C854 C849 1.350 . S
C855 H842 0.929 . S
C855 C847 1.433 . S
C855 N857 1.384 . S
N856 C852 1.427 . S
N856 C853 1.384 . S
N857 C849 1.427 . S
N857 C855 1.384 . S
H858 C864 0.930 . S
H859 C868 0.930 . S
H860 C873 0.929 . S
H861 C871 0.929 . S
H862 C866 0.929 . S
H863 C872 0.929 . S
C864 H858 0.930 . S
C864 C865 1.367 . S
C864 C872 1.378 . S
C865 C864 1.367 . S
C865 C873 1.433 . S
C866 H862 0.929 . S
C866 C868 1.378 . S
C866 C870 1.350 . S
C867 C870 1.463 . S
C867 C872 1.350 . S
C867 N875 1.427 . S
C868 H859 0.930 . S
C868 C866 1.378 . S
C868 C869 1.367 . S
C869 C868 1.367 . S
C869 C871 1.433 . S
C870 C866 1.350 . S
C870 C867 1.463 . S
C870 N874 1.427 . S
C871 H861 0.929 . S
C871 C869 1.433 . S
C871 N874 1.384 . S
C872 H863 0.929 . S
C872 C864 1.378 . S
C872 C867 1.350 . S
C873 H860 0.929 . S
C873 C865 1.433 . S
C873 N875 1.384 . S
N874 C870 1.427 . S
N874 C871 1.384 . S
N875 C867 1.427 . S
N875 C873 1.384 . S
H876 C882 0.930 . S
H877 C886 0.930 . S
H878 C891 0.929 . S
H879 C889 0.929 . S
H880 C884 0.929 . S
H881 C890 0.929 . S
C882 H876 0.930 . S
C882 C883 1.367 . S
C882 C890 1.378 . S
C883 C882 1.367 . S
C883 C891 1.433 . S
C884 H880 0.929 . S
C884 C886 1.378 . S
C884 C888 1.350 . S
C885 C888 1.463 . S
C885 C890 1.350 . S
C885 N893 1.427 . S
C886 H877 0.930 . S
C886 C884 1.378 . S
C886 C887 1.367 . S
C887 C886 1.367 . S
C887 C889 1.433 . S
C888 C884 1.350 . S
C888 C885 1.463 . S
C888 N892 1.427 . S
C889 H879 0.929 . S
C889 C887 1.433 . S
C889 N892 1.384 . S
C890 H881 0.929 . S
C890 C882 1.378 . S
C890 C885 1.350 . S
C891 H878 0.929 . S
C891 C883 1.433 . S
C891 N893 1.384 . S
N892 C888 1.427 . S
N892 C889 1.384 . S
N893 C885 1.427 . S
N893 C891 1.384 . S
H894 C900 0.930 . S
H895 C904 0.930 . S
H896 C909 0.929 . S
H897 C907 0.929 . S
H898 C902 0.929 . S
H899 C908 0.929 . S
C900 H894 0.930 . S
C900 C901 1.367 . S
C900 C908 1.378 . S
C901 C900 1.367 . S
C901 C909 1.433 . S
C902 H898 0.929 . S
C902 C904 1.378 . S
C902 C906 1.350 . S
C903 C906 1.463 . S
C903 C908 1.350 . S
C903 N911 1.427 . S
C904 H895 0.930 . S
C904 C902 1.378 . S
C904 C905 1.367 . S
C905 C904 1.367 . S
C905 C907 1.433 . S
C906 C902 1.350 . S
C906 C903 1.463 . S
C906 N910 1.427 . S
C907 H897 0.929 . S
C907 C905 1.433 . S
C907 N910 1.384 . S
C908 H899 0.929 . S
C908 C900 1.378 . S
C908 C903 1.350 . S
C909 H896 0.929 . S
C909 C901 1.433 . S
C909 N911 1.384 . S
N910 C906 1.427 . S
N910 C907 1.384 . S
N911 C903 1.427 . S
N911 C909 1.384 . S
H912 C918 0.930 . S
H913 C922 0.930 . S
H914 C927 0.929 . S
H915 C925 0.929 . S
H916 C920 0.929 . S
H917 C926 0.929 . S
C918 H912 0.930 . S
C918 C919 1.367 . S
C918 C926 1.378 . S
C919 C918 1.367 . S
C919 C927 1.433 . S
C920 H916 0.929 . S
C920 C922 1.378 . S
C920 C924 1.350 . S
C921 C924 1.463 . S
C921 C926 1.350 . S
C921 N929 1.427 . S
C922 H913 0.930 . S
C922 C920 1.378 . S
C922 C923 1.367 . S
C923 C922 1.367 . S
C923 C925 1.433 . S
C924 C920 1.350 . S
C924 C921 1.463 . S
C924 N928 1.427 . S
C925 H915 0.929 . S
C925 C923 1.433 . S
C925 N928 1.384 . S
C926 H917 0.929 . S
C926 C918 1.378 . S
C926 C921 1.350 . S
C927 H914 0.929 . S
C927 C919 1.433 . S
C927 N929 1.384 . S
N928 C924 1.427 . S
N928 C925 1.384 . S
N929 C921 1.427 . S
N929 C927 1.384 . S
H930 C936 0.930 . S
H931 C940 0.930 . S
H932 C945 0.929 . S
H933 C943 0.929 . S
H934 C938 0.929 . S
H935 C944 0.929 . S
C936 H930 0.930 . S
C936 C937 1.367 . S
C936 C944 1.378 . S
C937 C936 1.367 . S
C937 C945 1.433 . S
C938 H934 0.929 . S
C938 C940 1.378 . S
C938 C942 1.350 . S
C939 C942 1.463 . S
C939 C944 1.350 . S
C939 N947 1.427 . S
C940 H931 0.930 . S
C940 C938 1.378 . S
C940 C941 1.367 . S
C941 C940 1.367 . S
C941 C943 1.433 . S
C942 C938 1.350 . S
C942 C939 1.463 . S
C942 N946 1.427 . S
C943 H933 0.929 . S
C943 C941 1.433 . S
C943 N946 1.384 . S
C944 H935 0.929 . S
C944 C936 1.378 . S
C944 C939 1.350 . S
C945 H932 0.929 . S
C945 C937 1.433 . S
C945 N947 1.384 . S
N946 C942 1.427 . S
N946 C943 1.384 . S
N947 C939 1.427 . S
N947 C945 1.384 . S
H948 C954 0.930 . S
H949 C958 0.930 . S
H950 C963 0.929 . S
H951 C961 0.929 . S
H952 C956 0.929 . S
H953 C962 0.929 . S
C954 H948 0.930 . S
C954 C955 1.367 . S
C954 C962 1.378 . S
C955 C954 1.367 . S
C955 C963 1.433 . S
C956 H952 0.929 . S
C956 C958 1.378 . S
C956 C960 1.350 . S
C957 C960 1.463 . S
C957 C962 1.350 . S
C957 N965 1.427 . S
C958 H949 0.930 . S
C958 C956 1.378 . S
C958 C959 1.367 . S
C959 C958 1.367 . S
C959 C961 1.433 . S
C960 C956 1.350 . S
C960 C957 1.463 . S
C960 N964 1.427 . S
C961 H951 0.929 . S
C961 C959 1.433 . S
C961 N964 1.384 . S
C962 H953 0.929 . S
C962 C954 1.378 . S
C962 C957 1.350 . S
C963 H950 0.929 . S
C963 C955 1.433 . S
C963 N965 1.384 . S
N964 C960 1.427 . S
N964 C961 1.384 . S
N965 C957 1.427 . S
N965 C963 1.384 . S
H966 C972 0.930 . S
H967 C976 0.930 . S
H968 C981 0.929 . S
H969 C979 0.929 . S
H970 C974 0.929 . S
H971 C980 0.929 . S
C972 H966 0.930 . S
C972 C973 1.367 . S
C972 C980 1.378 . S
C973 C972 1.367 . S
C973 C981 1.433 . S
C974 H970 0.929 . S
C974 C976 1.378 . S
C974 C978 1.350 . S
C975 C978 1.463 . S
C975 C980 1.350 . S
C975 N983 1.427 . S
C976 H967 0.930 . S
C976 C974 1.378 . S
C976 C977 1.367 . S
C977 C976 1.367 . S
C977 C979 1.433 . S
C978 C974 1.350 . S
C978 C975 1.463 . S
C978 N982 1.427 . S
C979 H969 0.929 . S
C979 C977 1.433 . S
C979 N982 1.384 . S
C980 H971 0.929 . S
C980 C972 1.378 . S
C980 C975 1.350 . S
C981 H968 0.929 . S
C981 C973 1.433 . S
C981 N983 1.384 . S
N982 C978 1.427 . S
N982 C979 1.384 . S
N983 C975 1.427 . S
N983 C981 1.384 . S
H984 C990 0.930 . S
H985 C994 0.930 . S
H986 C999 0.929 . S
H987 C997 0.929 . S
H988 C992 0.929 . S
H989 C998 0.929 . S
C990 H984 0.930 . S
C990 C991 1.367 . S
C990 C998 1.378 . S
C991 C990 1.367 . S
C991 C999 1.433 . S
C992 H988 0.929 . S
C992 C994 1.378 . S
C992 C996 1.350 . S
C993 C996 1.463 . S
C993 C998 1.350 . S
C993 N1001 1.427 . S
C994 H985 0.930 . S
C994 C992 1.378 . S
C994 C995 1.367 . S
C995 C994 1.367 . S
C995 C997 1.433 . S
C996 C992 1.350 . S
C996 C993 1.463 . S
C996 N1000 1.427 . S
C997 H987 0.929 . S
C997 C995 1.433 . S
C997 N1000 1.384 . S
C998 H989 0.929 . S
C998 C990 1.378 . S
C998 C993 1.350 . S
C999 H986 0.929 . S
C999 C991 1.433 . S
C999 N1001 1.384 . S
N1000 C996 1.427 . S
N1000 C997 1.384 . S
N1001 C993 1.427 . S
N1001 C999 1.384 . S
H1002 C1008 0.930 . S
H1003 C1012 0.930 . S
H1004 C1017 0.929 . S
H1005 C1015 0.929 . S
H1006 C1010 0.929 . S
H1007 C1016 0.929 . S
C1008 H1002 0.930 . S
C1008 C1009 1.367 . S
C1008 C1016 1.378 . S
C1009 C1008 1.367 . S
C1009 C1017 1.433 . S
C1010 H1006 0.929 . S
C1010 C1012 1.378 . S
C1010 C1014 1.350 . S
C1011 C1014 1.463 . S
C1011 C1016 1.350 . S
C1011 N1019 1.427 . S
C1012 H1003 0.930 . S
C1012 C1010 1.378 . S
C1012 C1013 1.367 . S
C1013 C1012 1.367 . S
C1013 C1015 1.433 . S
C1014 C1010 1.350 . S
C1014 C1011 1.463 . S
C1014 N1018 1.427 . S
C1015 H1005 0.929 . S
C1015 C1013 1.433 . S
C1015 N1018 1.384 . S
C1016 H1007 0.929 . S
C1016 C1008 1.378 . S
C1016 C1011 1.350 . S
C1017 H1004 0.929 . S
C1017 C1009 1.433 . S
C1017 N1019 1.384 . S
N1018 C1014 1.427 . S
N1018 C1015 1.384 . S
N1019 C1011 1.427 . S
N1019 C1017 1.384 . S
H1020 C1026 0.930 . S
H1021 C1030 0.930 . S
H1022 C1035 0.929 . S
H1023 C1033 0.929 . S
H1024 C1028 0.929 . S
H1025 C1034 0.929 . S
C1026 H1020 0.930 . S
C1026 C1027 1.367 . S
C1026 C1034 1.378 . S
C1027 C1026 1.367 . S
C1027 C1035 1.433 . S
C1028 H1024 0.929 . S
C1028 C1030 1.378 . S
C1028 C1032 1.350 . S
C1029 C1032 1.463 . S
C1029 C1034 1.350 . S
C1029 N1037 1.427 . S
C1030 H1021 0.930 . S
C1030 C1028 1.378 . S
C1030 C1031 1.367 . S
C1031 C1030 1.367 . S
C1031 C1033 1.433 . S
C1032 C1028 1.350 . S
C1032 C1029 1.463 . S
C1032 N1036 1.427 . S
C1033 H1023 0.929 . S
C1033 C1031 1.433 . S
C1033 N1036 1.384 . S
C1034 H1025 0.929 . S
C1034 C1026 1.378 . S
C1034 C1029 1.350 . S
C1035 H1022 0.929 . S
C1035 C1027 1.433 . S
C1035 N1037 1.384 . S
N1036 C1032 1.427 . S
N1036 C1033 1.384 . S
N1037 C1029 1.427 . S
N1037 C1035 1.384 . S
H1038 C1044 0.930 . S
H1039 C1048 0.930 . S
H1040 C1053 0.929 . S
H1041 C1051 0.929 . S
H1042 C1046 0.929 . S
H1043 C1052 0.929 . S
C1044 H1038 0.930 . S
C1044 C1045 1.367 . S
C1044 C1052 1.378 . S
C1045 C1044 1.367 . S
C1045 C1053 1.433 . S
C1046 H1042 0.929 . S
C1046 C1048 1.378 . S
C1046 C1050 1.350 . S
C1047 C1050 1.463 . S
C1047 C1052 1.350 . S
C1047 N1055 1.427 . S
C1048 H1039 0.930 . S
C1048 C1046 1.378 . S
C1048 C1049 1.367 . S
C1049 C1048 1.367 . S
C1049 C1051 1.433 . S
C1050 C1046 1.350 . S
C1050 C1047 1.463 . S
C1050 N1054 1.427 . S
C1051 H1041 0.929 . S
C1051 C1049 1.433 . S
C1051 N1054 1.384 . S
C1052 H1043 0.929 . S
C1052 C1044 1.378 . S
C1052 C1047 1.350 . S
C1053 H1040 0.929 . S
C1053 C1045 1.433 . S
C1053 N1055 1.384 . S
N1054 C1050 1.427 . S
N1054 C1051 1.384 . S
N1055 C1047 1.427 . S
N1055 C1053 1.384 . S
H1056 C1062 0.930 . S
H1057 C1066 0.930 . S
H1058 C1071 0.929 . S
H1059 C1069 0.929 . S
H1060 C1064 0.929 . S
H1061 C1070 0.929 . S
C1062 H1056 0.930 . S
C1062 C1063 1.367 . S
C1062 C1070 1.378 . S
C1063 C1062 1.367 . S
C1063 C1071 1.433 . S
C1064 H1060 0.929 . S
C1064 C1066 1.378 . S
C1064 C1068 1.350 . S
C1065 C1068 1.463 . S
C1065 C1070 1.350 . S
C1065 N1073 1.427 . S
C1066 H1057 0.930 . S
C1066 C1064 1.378 . S
C1066 C1067 1.367 . S
C1067 C1066 1.367 . S
C1067 C1069 1.433 . S
C1068 C1064 1.350 . S
C1068 C1065 1.463 . S
C1068 N1072 1.427 . S
C1069 H1059 0.929 . S
C1069 C1067 1.433 . S
C1069 N1072 1.384 . S
C1070 H1061 0.929 . S
C1070 C1062 1.378 . S
C1070 C1065 1.350 . S
C1071 H1058 0.929 . S
C1071 C1063 1.433 . S
C1071 N1073 1.384 . S
N1072 C1068 1.427 . S
N1072 C1069 1.384 . S
N1073 C1065 1.427 . S
N1073 C1071 1.384 . S
H1074 C1080 0.930 . S
H1075 C1084 0.930 . S
H1076 C1089 0.929 . S
H1077 C1087 0.929 . S
H1078 C1082 0.929 . S
H1079 C1088 0.929 . S
C1080 H1074 0.930 . S
C1080 C1081 1.367 . S
C1080 C1088 1.378 . S
C1081 C1080 1.367 . S
C1081 C1089 1.433 . S
C1082 H1078 0.929 . S
C1082 C1084 1.378 . S
C1082 C1086 1.350 . S
C1083 C1086 1.463 . S
C1083 C1088 1.350 . S
C1083 N1091 1.427 . S
C1084 H1075 0.930 . S
C1084 C1082 1.378 . S
C1084 C1085 1.367 . S
C1085 C1084 1.367 . S
C1085 C1087 1.433 . S
C1086 C1082 1.350 . S
C1086 C1083 1.463 . S
C1086 N1090 1.427 . S
C1087 H1077 0.929 . S
C1087 C1085 1.433 . S
C1087 N1090 1.384 . S
C1088 H1079 0.929 . S
C1088 C1080 1.378 . S
C1088 C1083 1.350 . S
C1089 H1076 0.929 . S
C1089 C1081 1.433 . S
C1089 N1091 1.384 . S
N1090 C1086 1.427 . S
N1090 C1087 1.384 . S
N1091 C1083 1.427 . S
N1091 C1089 1.384 . S
H1092 C1098 0.930 . S
H1093 C1102 0.930 . S
H1094 C1107 0.929 . S
H1095 C1105 0.929 . S
H1096 C1100 0.929 . S
H1097 C1106 0.929 . S
C1098 H1092 0.930 . S
C1098 C1099 1.367 . S
C1098 C1106 1.378 . S
C1099 C1098 1.367 . S
C1099 C1107 1.433 . S
C1100 H1096 0.929 . S
C1100 C1102 1.378 . S
C1100 C1104 1.350 . S
C1101 C1104 1.463 . S
C1101 C1106 1.350 . S
C1101 N1109 1.427 . S
C1102 H1093 0.930 . S
C1102 C1100 1.378 . S
C1102 C1103 1.367 . S
C1103 C1102 1.367 . S
C1103 C1105 1.433 . S
C1104 C1100 1.350 . S
C1104 C1101 1.463 . S
C1104 N1108 1.427 . S
C1105 H1095 0.929 . S
C1105 C1103 1.433 . S
C1105 N1108 1.384 . S
C1106 H1097 0.929 . S
C1106 C1098 1.378 . S
C1106 C1101 1.350 . S
C1107 H1094 0.929 . S
C1107 C1099 1.433 . S
C1107 N1109 1.384 . S
N1108 C1104 1.427 . S
N1108 C1105 1.384 . S
N1109 C1101 1.427 . S
N1109 C1107 1.384 . S
H1110 C1116 0.930 . S
H1111 C1120 0.930 . S
H1112 C1125 0.929 . S
H1113 C1123 0.929 . S
H1114 C1118 0.929 . S
H1115 C1124 0.929 . S
C1116 H1110 0.930 . S
C1116 C1117 1.367 . S
C1116 C1124 1.378 . S
C1117 C1116 1.367 . S
C1117 C1125 1.433 . S
C1118 H1114 0.929 . S
C1118 C1120 1.378 . S
C1118 C1122 1.350 . S
C1119 C1122 1.463 . S
C1119 C1124 1.350 . S
C1119 N1127 1.427 . S
C1120 H1111 0.930 . S
C1120 C1118 1.378 . S
C1120 C1121 1.367 . S
C1121 C1120 1.367 . S
C1121 C1123 1.433 . S
C1122 C1118 1.350 . S
C1122 C1119 1.463 . S
C1122 N1126 1.427 . S
C1123 H1113 0.929 . S
C1123 C1121 1.433 . S
C1123 N1126 1.384 . S
C1124 H1115 0.929 . S
C1124 C1116 1.378 . S
C1124 C1119 1.350 . S
C1125 H1112 0.929 . S
C1125 C1117 1.433 . S
C1125 N1127 1.384 . S
N1126 C1122 1.427 . S
N1126 C1123 1.384 . S
N1127 C1119 1.427 . S
N1127 C1125 1.384 . S
H1128 C1134 0.930 . S
H1129 C1138 0.930 . S
H1130 C1143 0.929 . S
H1131 C1141 0.929 . S
H1132 C1136 0.929 . S
H1133 C1142 0.929 . S
C1134 H1128 0.930 . S
C1134 C1135 1.367 . S
C1134 C1142 1.378 . S
C1135 C1134 1.367 . S
C1135 C1143 1.433 . S
C1136 H1132 0.929 . S
C1136 C1138 1.378 . S
C1136 C1140 1.350 . S
C1137 C1140 1.463 . S
C1137 C1142 1.350 . S
C1137 N1145 1.427 . S
C1138 H1129 0.930 . S
C1138 C1136 1.378 . S
C1138 C1139 1.367 . S
C1139 C1138 1.367 . S
C1139 C1141 1.433 . S
C1140 C1136 1.350 . S
C1140 C1137 1.463 . S
C1140 N1144 1.427 . S
C1141 H1131 0.929 . S
C1141 C1139 1.433 . S
C1141 N1144 1.384 . S
C1142 H1133 0.929 . S
C1142 C1134 1.378 . S
C1142 C1137 1.350 . S
C1143 H1130 0.929 . S
C1143 C1135 1.433 . S
C1143 N1145 1.384 . S
N1144 C1140 1.427 . S
N1144 C1141 1.384 . S
N1145 C1137 1.427 . S
N1145 C1143 1.384 . S
H1146 C1152 0.930 . S
H1147 C1156 0.930 . S
H1148 C1161 0.929 . S
H1149 C1159 0.929 . S
H1150 C1154 0.929 . S
H1151 C1160 0.929 . S
C1152 H1146 0.930 . S
C1152 C1153 1.367 . S
C1152 C1160 1.378 . S
C1153 C1152 1.367 . S
C1153 C1161 1.433 . S
C1154 H1150 0.929 . S
C1154 C1156 1.378 . S
C1154 C1158 1.350 . S
C1155 C1158 1.463 . S
C1155 C1160 1.350 . S
C1155 N1163 1.427 . S
C1156 H1147 0.930 . S
C1156 C1154 1.378 . S
C1156 C1157 1.367 . S
C1157 C1156 1.367 . S
C1157 C1159 1.433 . S
C1158 C1154 1.350 . S
C1158 C1155 1.463 . S
C1158 N1162 1.427 . S
C1159 H1149 0.929 . S
C1159 C1157 1.433 . S
C1159 N1162 1.384 . S
C1160 H1151 0.929 . S
C1160 C1152 1.378 . S
C1160 C1155 1.350 . S
C1161 H1148 0.929 . S
C1161 C1153 1.433 . S
C1161 N1163 1.384 . S
N1162 C1158 1.427 . S
N1162 C1159 1.384 . S
N1163 C1155 1.427 . S
N1163 C1161 1.384 . S
H1164 C1170 0.930 . S
H1165 C1174 0.930 . S
H1166 C1179 0.929 . S
H1167 C1177 0.929 . S
H1168 C1172 0.929 . S
H1169 C1178 0.929 . S
C1170 H1164 0.930 . S
C1170 C1171 1.367 . S
C1170 C1178 1.378 . S
C1171 C1170 1.367 . S
C1171 C1179 1.433 . S
C1172 H1168 0.929 . S
C1172 C1174 1.378 . S
C1172 C1176 1.350 . S
C1173 C1176 1.463 . S
C1173 C1178 1.350 . S
C1173 N1181 1.427 . S
C1174 H1165 0.930 . S
C1174 C1172 1.378 . S
C1174 C1175 1.367 . S
C1175 C1174 1.367 . S
C1175 C1177 1.433 . S
C1176 C1172 1.350 . S
C1176 C1173 1.463 . S
C1176 N1180 1.427 . S
C1177 H1167 0.929 . S
C1177 C1175 1.433 . S
C1177 N1180 1.384 . S
C1178 H1169 0.929 . S
C1178 C1170 1.378 . S
C1178 C1173 1.350 . S
C1179 H1166 0.929 . S
C1179 C1171 1.433 . S
C1179 N1181 1.384 . S
N1180 C1176 1.427 . S
N1180 C1177 1.384 . S
N1181 C1173 1.427 . S
N1181 C1179 1.384 . S
H1182 C1188 0.930 . S
H1183 C1192 0.930 . S
H1184 C1197 0.929 . S
H1185 C1195 0.929 . S
H1186 C1190 0.929 . S
H1187 C1196 0.929 . S
C1188 H1182 0.930 . S
C1188 C1189 1.367 . S
C1188 C1196 1.378 . S
C1189 C1188 1.367 . S
C1189 C1197 1.433 . S
C1190 H1186 0.929 . S
C1190 C1192 1.378 . S
C1190 C1194 1.350 . S
C1191 C1194 1.463 . S
C1191 C1196 1.350 . S
C1191 N1199 1.427 . S
C1192 H1183 0.930 . S
C1192 C1190 1.378 . S
C1192 C1193 1.367 . S
C1193 C1192 1.367 . S
C1193 C1195 1.433 . S
C1194 C1190 1.350 . S
C1194 C1191 1.463 . S
C1194 N1198 1.427 . S
C1195 H1185 0.929 . S
C1195 C1193 1.433 . S
C1195 N1198 1.384 . S
C1196 H1187 0.929 . S
C1196 C1188 1.378 . S
C1196 C1191 1.350 . S
C1197 H1184 0.929 . S
C1197 C1189 1.433 . S
C1197 N1199 1.384 . S
N1198 C1194 1.427 . S
N1198 C1195 1.384 . S
N1199 C1191 1.427 . S
N1199 C1197 1.384 . S
C343 C201 1.496 . S
C347 C11 1.494 . S
C361 C14 1.529 . S
C365 C210 1.529 . S
C379 C257 1.498 . S
C383 C33 1.498 . S
C397 C51 1.590 . S
C401 C191 1.598 . S
C415 C207 1.442 . S
C419 C67 1.442 . S
C433 C79 1.578 . S
C437 C219 1.571 . S
C451 C89 1.448 . S
C455 C263 1.447 . S
C469 C98 1.509 . S
C473 C182 1.507 . S
C487 C137 1.394 . S
C491 C123 1.394 . S
C505 C145 1.547 . S
C509 C131 1.548 . S
C523 C151 1.460 . S
C527 C165 1.460 . S
C541 C159 1.479 . S
C545 C117 1.479 . S
C559 C168 1.531 . S
C563 C42 1.530 . S
C577 C61 1.448 . S
C581 C235 1.447 . S
C595 C247 1.598 . S
C599 C23 1.590 . S
C613 C25 1.474 . S
C617 C303 1.466 . S
C631 C126 1.430 . S
C635 C9 1.427 . S
C649 C331 1.520 . S
C653 C47 1.529 . S
C667 C154 1.425 . S
C671 C28 1.424 . S
C685 C294 1.441 . S
C689 C109 1.445 . S
C703 C135 1.450 . S
C707 C84 1.455 . S
C721 C75 1.494 . S
C725 C322 1.491 . S
C739 C65 1.456 . S
C743 C163 1.454 . S
C757 C215 1.533 . S
C761 C275 1.524 . S
C775 C224 1.437 . S
C779 C221 1.434 . S
C793 C193 1.485 . S
C797 C233 1.483 . S
C811 C266 1.479 . S
C815 C187 1.484 . S
C829 C37 1.428 . S
C833 C280 1.431 . S
C847 C140 1.488 . S
C851 C103 1.493 . S
C865 C0 1.422 . S
C869 C308 1.423 . S
C883 C271 1.496 . S
C887 C39 1.494 . S
C901 C5 1.498 . S
C905 C229 1.497 . S
C919 C277 1.442 . S
C923 C95 1.441 . S
C937 C177 1.575 . S
C941 C107 1.575 . S
C955 C70 1.507 . S
C959 C238 1.505 . S
C973 C305 1.393 . S
C977 C291 1.392 . S
C991 C327 1.548 . S
C995 C285 1.548 . S
C1009 C319 1.458 . S
C1013 C333 1.460 . S
C1027 C299 1.478 . S
C1031 C313 1.479 . S
C1045 C121 1.470 . S
C1049 C53 1.477 . S
C1063 C19 1.528 . S
C1067 C149 1.516 . S
C1081 C81 1.444 . S
C1085 C112 1.441 . S
C1099 C289 1.451 . S
C1103 C56 1.453 . S
C1117 C93 1.457 . S
C1121 C317 1.456 . S
C1135 C173 1.534 . S
C1139 C205 1.527 . S
C1153 C252 1.438 . S
C1157 C179 1.435 . S
C1171 C249 1.487 . S
C1175 C261 1.481 . S
C1189 C196 1.483 . S
C1193 C243 1.485 . S
