# Generated by pormake.
# Topology vbw, (6)-cn, num edge types: 1
# Building blocks:
#     Node 0, Type 0, BuildingBlock: IZENUY_clean_sbu_0, # of connection points: 6
#     Node 1, Type 0, BuildingBlock: IZENUY_clean_sbu_0, # of connection points: 6
#     Node 2, Type 0, BuildingBlock: IZENUY_clean_sbu_0, # of connection points: 6
#     Node 3, Type 0, BuildingBlock: IZENUY_clean_sbu_0, # of connection points: 6
#     Node 4, Type 0, BuildingBlock: IZENUY_clean_sbu_0, # of connection points: 6
#     Node 5, Type 0, BuildingBlock: IZENUY_clean_sbu_0, # of connection points: 6
#     Node 6, Type 0, BuildingBlock: IZENUY_clean_sbu_0, # of connection points: 6
#     Node 7, Type 0, BuildingBlock: IZENUY_clean_sbu_0, # of connection points: 6
#     Node 8, Type 0, BuildingBlock: IZENUY_clean_sbu_0, # of connection points: 6
#     Node 9, Type 0, BuildingBlock: IZENUY_clean_sbu_0, # of connection points: 6
#     Node 10, Type 0, BuildingBlock: IZENUY_clean_sbu_0, # of connection points: 6
#     Node 11, Type 0, BuildingBlock: IZENUY_clean_sbu_0, # of connection points: 6
#     Node 12, Type 0, BuildingBlock: IZENUY_clean_sbu_0, # of connection points: 6
#     Node 13, Type 0, BuildingBlock: IZENUY_clean_sbu_0, # of connection points: 6
#     Node 14, Type 0, BuildingBlock: IZENUY_clean_sbu_0, # of connection points: 6
#     Node 15, Type 0, BuildingBlock: IZENUY_clean_sbu_0, # of connection points: 6
#     Edge 16, Type (0, 0), BuildingBlock: UVAHIK_clean_linker_0, # of connection points: 2
#     Edge 17, Type (0, 0), BuildingBlock: UVAHIK_clean_linker_0, # of connection points: 2
#     Edge 18, Type (0, 0), BuildingBlock: UVAHIK_clean_linker_0, # of connection points: 2
#     Edge 19, Type (0, 0), BuildingBlock: UVAHIK_clean_linker_0, # of connection points: 2
#     Edge 20, Type (0, 0), BuildingBlock: UVAHIK_clean_linker_0, # of connection points: 2
#     Edge 21, Type (0, 0), BuildingBlock: UVAHIK_clean_linker_0, # of connection points: 2
#     Edge 22, Type (0, 0), BuildingBlock: UVAHIK_clean_linker_0, # of connection points: 2
#     Edge 23, Type (0, 0), BuildingBlock: UVAHIK_clean_linker_0, # of connection points: 2
#     Edge 24, Type (0, 0), BuildingBlock: UVAHIK_clean_linker_0, # of connection points: 2
#     Edge 25, Type (0, 0), BuildingBlock: UVAHIK_clean_linker_0, # of connection points: 2
#     Edge 26, Type (0, 0), BuildingBlock: UVAHIK_clean_linker_0, # of connection points: 2
#     Edge 27, Type (0, 0), BuildingBlock: UVAHIK_clean_linker_0, # of connection points: 2
#     Edge 28, Type (0, 0), BuildingBlock: UVAHIK_clean_linker_0, # of connection points: 2
#     Edge 29, Type (0, 0), BuildingBlock: UVAHIK_clean_linker_0, # of connection points: 2
#     Edge 30, Type (0, 0), BuildingBlock: UVAHIK_clean_linker_0, # of connection points: 2
#     Edge 31, Type (0, 0), BuildingBlock: UVAHIK_clean_linker_0, # of connection points: 2
#     Edge 32, Type (0, 0), BuildingBlock: UVAHIK_clean_linker_0, # of connection points: 2
#     Edge 33, Type (0, 0), BuildingBlock: UVAHIK_clean_linker_0, # of connection points: 2
#     Edge 34, Type (0, 0), BuildingBlock: UVAHIK_clean_linker_0, # of connection points: 2
#     Edge 35, Type (0, 0), BuildingBlock: UVAHIK_clean_linker_0, # of connection points: 2
#     Edge 36, Type (0, 0), BuildingBlock: UVAHIK_clean_linker_0, # of connection points: 2
#     Edge 37, Type (0, 0), BuildingBlock: UVAHIK_clean_linker_0, # of connection points: 2
#     Edge 38, Type (0, 0), BuildingBlock: UVAHIK_clean_linker_0, # of connection points: 2
#     Edge 39, Type (0, 0), BuildingBlock: UVAHIK_clean_linker_0, # of connection points: 2
#     Edge 40, Type (0, 0), BuildingBlock: UVAHIK_clean_linker_0, # of connection points: 2
#     Edge 41, Type (0, 0), BuildingBlock: UVAHIK_clean_linker_0, # of connection points: 2
#     Edge 42, Type (0, 0), BuildingBlock: UVAHIK_clean_linker_0, # of connection points: 2
#     Edge 43, Type (0, 0), BuildingBlock: UVAHIK_clean_linker_0, # of connection points: 2
#     Edge 44, Type (0, 0), BuildingBlock: UVAHIK_clean_linker_0, # of connection points: 2
#     Edge 45, Type (0, 0), BuildingBlock: UVAHIK_clean_linker_0, # of connection points: 2
#     Edge 46, Type (0, 0), BuildingBlock: UVAHIK_clean_linker_0, # of connection points: 2
#     Edge 47, Type (0, 0), BuildingBlock: UVAHIK_clean_linker_0, # of connection points: 2
#     Edge 48, Type (0, 0), BuildingBlock: UVAHIK_clean_linker_0, # of connection points: 2
#     Edge 49, Type (0, 0), BuildingBlock: UVAHIK_clean_linker_0, # of connection points: 2
#     Edge 50, Type (0, 0), BuildingBlock: UVAHIK_clean_linker_0, # of connection points: 2
#     Edge 51, Type (0, 0), BuildingBlock: UVAHIK_clean_linker_0, # of connection points: 2
#     Edge 52, Type (0, 0), BuildingBlock: UVAHIK_clean_linker_0, # of connection points: 2
#     Edge 53, Type (0, 0), BuildingBlock: UVAHIK_clean_linker_0, # of connection points: 2
#     Edge 54, Type (0, 0), BuildingBlock: UVAHIK_clean_linker_0, # of connection points: 2
#     Edge 55, Type (0, 0), BuildingBlock: UVAHIK_clean_linker_0, # of connection points: 2
#     Edge 56, Type (0, 0), BuildingBlock: UVAHIK_clean_linker_0, # of connection points: 2
#     Edge 57, Type (0, 0), BuildingBlock: UVAHIK_clean_linker_0, # of connection points: 2
#     Edge 58, Type (0, 0), BuildingBlock: UVAHIK_clean_linker_0, # of connection points: 2
#     Edge 59, Type (0, 0), BuildingBlock: UVAHIK_clean_linker_0, # of connection points: 2
#     Edge 60, Type (0, 0), BuildingBlock: UVAHIK_clean_linker_0, # of connection points: 2
#     Edge 61, Type (0, 0), BuildingBlock: UVAHIK_clean_linker_0, # of connection points: 2
#     Edge 62, Type (0, 0), BuildingBlock: UVAHIK_clean_linker_0, # of connection points: 2
#     Edge 63, Type (0, 0), BuildingBlock: UVAHIK_clean_linker_0, # of connection points: 2
# Relax obj value: 0.219
# Max RMSD: 0.232
# Mean RMSD: 0.232
data_MOF--net-vbw--node1-IZENUY_clean_sbu_0--edge1-UVAHIK_clean_linker_0
_symmetry_space_group_name_H-M    P1
_symmetry_Int_Tables_number       1
_symmetry_cell_setting            triclinic
loop_
_symmetry_equiv_pos_as_xyz
'x, y, z'
_cell_length_a     71.77952
_cell_length_b     58.505753
_cell_length_c     35.271905
_cell_angle_alpha  89.934192
_cell_angle_beta   89.99282
_cell_angle_gamma 90.01899
loop_
_atom_site_label
_atom_site_type_symbol
_atom_site_fract_x
_atom_site_fract_y
_atom_site_fract_z
_atom_type_partial_charge
Fe0 Fe 0.12673 0.20222 0.08471 0.0
Fe1 Fe 0.12241 0.15829 0.13135 0.0
O2 O 0.13349 0.1738 0.0947 0.0
Fe3 Fe 0.15153 0.16091 0.06835 0.0
O4 O 0.16789 0.18224 0.0838 0.0
O5 O 0.15022 0.21172 0.07029 0.0
O6 O 0.13254 0.21138 0.13225 0.0
C7 C 0.12559 0.20302 0.162 0.0
C8 C 0.13229 0.1876 0.01276 0.0
O9 O 0.11776 0.18356 0.16131 0.0
C10 C 0.12759 0.12511 0.07339 0.0
O11 O 0.10208 0.1976 0.09705 0.0
O12 O 0.10014 0.16062 0.10788 0.0
O13 O 0.14658 0.17675 0.02401 0.0
O14 O 0.12057 0.19497 0.03636 0.0
C15 C 0.15876 0.14674 0.14333 0.0
O16 O 0.12511 0.13015 0.10806 0.0
O17 O 0.13606 0.1387 0.05162 0.0
C18 C 0.09261 0.1793 0.09874 0.0
O19 O 0.14411 0.15534 0.15683 0.0
O20 O 0.16018 0.14318 0.10797 0.0
C21 C 0.16618 0.20318 0.07658 0.0
Fe22 Fe 0.35776 0.86188 0.6311 0.0
Fe23 Fe 0.33245 0.85184 0.56222 0.0
O24 O 0.34997 0.8432 0.59467 0.0
Fe25 Fe 0.35955 0.81528 0.59107 0.0
O26 O 0.36498 0.81206 0.6413 0.0
O27 O 0.35161 0.84135 0.66819 0.0
O28 O 0.33488 0.87498 0.63968 0.0
C29 C 0.31869 0.86884 0.62971 0.0
C30 C 0.3907 0.84083 0.60285 0.0
O31 O 0.31611 0.85724 0.60011 0.0
C32 C 0.35451 0.82742 0.5141 0.0
O33 O 0.36433 0.8841 0.59739 0.0
O34 O 0.33967 0.88175 0.56052 0.0
O35 O 0.38231 0.82694 0.58145 0.0
O36 O 0.38206 0.85185 0.62845 0.0
C37 C 0.32255 0.80691 0.582 0.0
O38 O 0.3473 0.84665 0.52107 0.0
O39 O 0.35624 0.8127 0.54003 0.0
C40 C 0.35413 0.89219 0.57145 0.0
O41 O 0.32205 0.8235 0.55902 0.0
O42 O 0.33707 0.80218 0.60056 0.0
C43 C 0.35749 0.82107 0.66989 0.0
Fe44 Fe 0.12597 0.81605 0.92955 0.0
Fe45 Fe 0.12265 0.86013 0.88307 0.0
O46 O 0.13299 0.84449 0.92044 0.0
Fe47 Fe 0.15052 0.85732 0.9483 0.0
O48 O 0.1671 0.836 0.93413 0.0
O49 O 0.14918 0.80636 0.94534 0.0
O50 O 0.13254 0.80706 0.88238 0.0
C51 C 0.12604 0.81547 0.8523 0.0
C52 C 0.13029 0.83018 1.00215 0.0
O53 O 0.11828 0.83496 0.85263 0.0
C54 C 0.12696 0.89333 0.94131 0.0
O55 O 0.10151 0.82092 0.91568 0.0
O56 O 0.10007 0.85797 0.90506 0.0
O57 O 0.14464 0.84144 0.99225 0.0
O58 O 0.11905 0.82301 0.97745 0.0
C59 C 0.15917 0.87151 0.8738 0.0
O60 O 0.12512 0.88821 0.90653 0.0
O61 O 0.13483 0.87964 0.96383 0.0
C62 C 0.09225 0.83937 0.91365 0.0
O63 O 0.14476 0.86292 0.85923 0.0
O64 O 0.16003 0.87498 0.9093 0.0
C65 C 0.1652 0.81495 0.94013 0.0
Fe66 Fe 0.35752 0.15652 0.38505 0.0
Fe67 Fe 0.33294 0.16572 0.45526 0.0
O68 O 0.35022 0.17476 0.42255 0.0
Fe69 Fe 0.36007 0.20249 0.42707 0.0
O70 O 0.36457 0.20669 0.37663 0.0
O71 O 0.35112 0.17756 0.34909 0.0
O72 O 0.33444 0.1437 0.37718 0.0
C73 C 0.31839 0.15011 0.38771 0.0
C74 C 0.39097 0.17685 0.4121 0.0
O75 O 0.31619 0.16144 0.41771 0.0
C76 C 0.35593 0.18868 0.50354 0.0
O77 O 0.36436 0.13384 0.41771 0.0
O78 O 0.3398 0.13567 0.45485 0.0
O79 O 0.38293 0.19044 0.43454 0.0
O80 O 0.3819 0.16633 0.38657 0.0
C81 C 0.3233 0.21127 0.43923 0.0
O82 O 0.34828 0.16979 0.49595 0.0
O83 O 0.35763 0.20392 0.47842 0.0
C84 C 0.35421 0.12536 0.44341 0.0
O85 O 0.32288 0.19408 0.46091 0.0
O86 O 0.33756 0.21611 0.41991 0.0
C87 C 0.3568 0.19796 0.34808 0.0
Fe88 Fe 0.86163 0.86363 0.87802 0.0
Fe89 Fe 0.85899 0.81791 0.9202 0.0
O90 O 0.85181 0.8466 0.91446 0.0
Fe91 Fe 0.83468 0.8583 0.9447 0.0
O92 O 0.82445 0.87695 0.90789 0.0
O93 O 0.83916 0.86714 0.8557 0.0
O94 O 0.86572 0.83959 0.8449 0.0
C95 C 0.85795 0.82013 0.84304 0.0
C96 C 0.85787 0.89489 0.93939 0.0
O97 O 0.85172 0.81073 0.87256 0.0
C98 C 0.85599 0.8297 0.99452 0.0
O99 O 0.88456 0.86081 0.89856 0.0
O100 O 0.88316 0.82344 0.90543 0.0
O101 O 0.85049 0.88031 0.96104 0.0
O102 O 0.85936 0.89091 0.90413 0.0
C103 C 0.82002 0.81602 0.93316 0.0
O104 O 0.8666 0.82297 0.96835 0.0
O105 O 0.84149 0.84125 0.98679 0.0
C106 C 0.89242 0.84193 0.90505 0.0
O107 O 0.83615 0.80745 0.93633 0.0
O108 O 0.81785 0.83726 0.93014 0.0
C109 C 0.82487 0.87483 0.87206 0.0
Fe110 Fe 0.64832 0.16479 0.45156 0.0
Fe111 Fe 0.62426 0.15557 0.3801 0.0
O112 O 0.63177 0.17404 0.41731 0.0
Fe113 Fe 0.6228 0.20235 0.42015 0.0
O114 O 0.64575 0.21462 0.41279 0.0
O115 O 0.65952 0.19269 0.45529 0.0
O116 O 0.66532 0.15844 0.4153 0.0
C117 C 0.66318 0.14733 0.38504 0.0
C118 C 0.62592 0.1903 0.49768 0.0
O119 O 0.64711 0.14209 0.37299 0.0
C120 C 0.59126 0.17757 0.4061 0.0
O121 O 0.64025 0.1352 0.45319 0.0
O122 O 0.61686 0.1333 0.41292 0.0
O123 O 0.62504 0.20492 0.47144 0.0
O124 O 0.63277 0.17079 0.49141 0.0
C125 C 0.626 0.1964 0.34135 0.0
O126 O 0.60009 0.16615 0.38124 0.0
O127 O 0.59956 0.19146 0.42769 0.0
C128 C 0.62613 0.12502 0.44006 0.0
O129 O 0.63112 0.17585 0.34326 0.0
O130 O 0.61861 0.20598 0.36952 0.0
C131 C 0.65981 0.20939 0.43247 0.0
Fe132 Fe 0.86303 0.15717 0.14287 0.0
Fe133 Fe 0.85944 0.20217 0.09899 0.0
O134 O 0.8526 0.17348 0.10625 0.0
Fe135 Fe 0.8352 0.16107 0.07742 0.0
O136 O 0.8256 0.14284 0.11554 0.0
O137 O 0.84086 0.15376 0.16642 0.0
O138 O 0.86729 0.18175 0.17478 0.0
C139 C 0.85928 0.20107 0.1763 0.0
C140 C 0.85876 0.12489 0.08305 0.0
O141 O 0.85268 0.20998 0.1467 0.0
C142 C 0.85561 0.18926 0.02534 0.0
O143 O 0.8857 0.15997 0.12106 0.0
O144 O 0.88384 0.1972 0.11271 0.0
O145 O 0.85099 0.13902 0.06117 0.0
O146 O 0.86069 0.12947 0.11802 0.0
C147 C 0.8203 0.20332 0.08787 0.0
O148 O 0.8665 0.19648 0.05068 0.0
O149 O 0.84133 0.17759 0.03428 0.0
C150 C 0.89329 0.17887 0.11326 0.0
O151 O 0.83632 0.21205 0.08361 0.0
O152 O 0.81836 0.18211 0.09198 0.0
C153 C 0.8264 0.14563 0.15121 0.0
Fe154 Fe 0.62329 0.81829 0.6011 0.0
Fe155 Fe 0.64785 0.85847 0.57628 0.0
O156 O 0.63093 0.84679 0.60712 0.0
Fe157 Fe 0.62187 0.86373 0.64447 0.0
O158 O 0.6177 0.8396 0.67738 0.0
O159 O 0.63065 0.81052 0.64851 0.0
O160 O 0.64595 0.8075 0.58449 0.0
C161 C 0.66219 0.81589 0.58705 0.0
C162 C 0.5904 0.84314 0.61819 0.0
O163 O 0.66462 0.83712 0.58987 0.0
C164 C 0.62512 0.89529 0.5833 0.0
O165 O 0.6155 0.82368 0.55309 0.0
O166 O 0.64062 0.84174 0.53425 0.0
O167 O 0.59865 0.86169 0.62529 0.0
O168 O 0.59926 0.82438 0.61632 0.0
C169 C 0.6588 0.87423 0.64857 0.0
O170 O 0.63199 0.88075 0.56096 0.0
O171 O 0.62426 0.89116 0.61863 0.0
C172 C 0.62607 0.83027 0.52674 0.0
O173 O 0.6586 0.87681 0.61282 0.0
O174 O 0.64471 0.86645 0.6656 0.0
C175 C 0.62492 0.81983 0.67847 0.0
Fe176 Fe 0.6225 0.70132 0.10112 0.0
Fe177 Fe 0.62223 0.65579 0.1446 0.0
O178 O 0.63094 0.67317 0.10741 0.0
Fe179 Fe 0.64834 0.6623 0.07693 0.0
O180 O 0.66441 0.68432 0.09109 0.0
O181 O 0.64493 0.71308 0.08498 0.0
O182 O 0.62942 0.7094 0.1486 0.0
C183 C 0.62405 0.69977 0.1786 0.0
C184 C 0.62605 0.68953 0.0269 0.0
O185 O 0.61739 0.67969 0.17756 0.0
C186 C 0.62652 0.62459 0.08323 0.0
O187 O 0.59859 0.6942 0.11591 0.0
O188 O 0.59908 0.65692 0.12514 0.0
O189 O 0.64092 0.67883 0.03486 0.0
O190 O 0.61511 0.69561 0.05294 0.0
C191 C 0.6593 0.64652 0.14921 0.0
O192 O 0.62534 0.62855 0.11858 0.0
O193 O 0.63319 0.63947 0.06117 0.0
C194 C 0.59031 0.67504 0.11777 0.0
O195 O 0.64503 0.65387 0.16605 0.0
O196 O 0.65934 0.64421 0.11345 0.0
C197 C 0.66138 0.70543 0.08818 0.0
Fe198 Fe 0.86053 0.36285 0.64297 0.0
Fe199 Fe 0.83462 0.35917 0.57448 0.0
O200 O 0.85109 0.34657 0.60527 0.0
Fe201 Fe 0.85794 0.3178 0.59882 0.0
O202 O 0.85013 0.30999 0.64598 0.0
O203 O 0.86396 0.3383 0.67531 0.0
O204 O 0.83776 0.36632 0.664 0.0
C205 C 0.8239 0.37472 0.64704 0.0
C206 C 0.89148 0.34115 0.61682 0.0
O207 O 0.82421 0.37757 0.61134 0.0
C208 C 0.85596 0.33064 0.52475 0.0
O209 O 0.85895 0.39056 0.61779 0.0
O210 O 0.85105 0.38095 0.55989 0.0
O211 O 0.8821 0.32276 0.61463 0.0
O212 O 0.88368 0.35999 0.62386 0.0
C213 C 0.81901 0.31719 0.58335 0.0
O214 O 0.84163 0.34254 0.53216 0.0
O215 O 0.86614 0.32333 0.55119 0.0
C216 C 0.85816 0.3951 0.5826 0.0
O217 O 0.81727 0.33842 0.58732 0.0
O218 O 0.83502 0.30808 0.58132 0.0
C219 C 0.85611 0.31888 0.67611 0.0
Fe220 Fe 0.62191 0.31746 0.92314 0.0
Fe221 Fe 0.62163 0.36259 0.87872 0.0
O222 O 0.63056 0.34543 0.91593 0.0
Fe223 Fe 0.64833 0.3563 0.94558 0.0
O224 O 0.66405 0.33392 0.93133 0.0
O225 O 0.64433 0.30556 0.93902 0.0
O226 O 0.62849 0.30887 0.87586 0.0
C227 C 0.62302 0.31826 0.84578 0.0
C228 C 0.62617 0.32959 0.99676 0.0
O229 O 0.61648 0.33842 0.84644 0.0
C230 C 0.62672 0.39423 0.93924 0.0
O231 O 0.59796 0.32462 0.90873 0.0
O232 O 0.5986 0.3618 0.89894 0.0
O233 O 0.64106 0.34013 0.98828 0.0
O234 O 0.61489 0.32384 0.97117 0.0
C235 C 0.65874 0.37156 0.87249 0.0
O236 O 0.62509 0.38996 0.90407 0.0
O237 O 0.63358 0.37952 0.96138 0.0
C238 C 0.58975 0.3438 0.90678 0.0
O239 O 0.64424 0.36425 0.85644 0.0
O240 O 0.65926 0.37393 0.90824 0.0
C241 C 0.66083 0.31289 0.93494 0.0
Fe242 Fe 0.86027 0.70201 0.42108 0.0
Fe243 Fe 0.8616 0.65641 0.37825 0.0
O244 O 0.85235 0.67362 0.41502 0.0
Fe245 Fe 0.83502 0.66239 0.44535 0.0
O246 O 0.81865 0.684 0.43087 0.0
O247 O 0.83765 0.71319 0.43722 0.0
O248 O 0.85319 0.70975 0.37354 0.0
C249 C 0.85888 0.70021 0.34375 0.0
C250 C 0.85693 0.69009 0.49528 0.0
O251 O 0.86607 0.68041 0.34516 0.0
C252 C 0.85753 0.62522 0.43975 0.0
O253 O 0.88431 0.69564 0.4063 0.0
O254 O 0.88465 0.65831 0.39815 0.0
O255 O 0.84217 0.67913 0.4874 0.0
O256 O 0.86776 0.69645 0.4692 0.0
C257 C 0.8247 0.64614 0.37293 0.0
O258 O 0.8589 0.62916 0.40443 0.0
O259 O 0.85042 0.63991 0.46151 0.0
C260 C 0.89303 0.67678 0.40497 0.0
O261 O 0.83899 0.6537 0.35639 0.0
O262 O 0.82436 0.64405 0.40875 0.0
C263 C 0.82133 0.70517 0.43389 0.0
Fe264 Fe 0.35812 0.36265 0.88214 0.0
Fe265 Fe 0.3602 0.31567 0.92034 0.0
O266 O 0.34977 0.34317 0.91689 0.0
Fe267 Fe 0.33112 0.35032 0.9477 0.0
O268 O 0.31576 0.35718 0.90878 0.0
O269 O 0.33528 0.37467 0.87032 0.0
O270 O 0.35395 0.34224 0.8437 0.0
C271 C 0.36114 0.32264 0.84225 0.0
C272 C 0.35197 0.39182 0.94291 0.0
O273 O 0.36831 0.31417 0.87152 0.0
C274 C 0.3509 0.32402 0.99698 0.0
O275 O 0.38257 0.35384 0.88874 0.0
O276 O 0.38191 0.3284 0.93519 0.0
O277 O 0.33801 0.38021 0.95352 0.0
O278 O 0.36265 0.38486 0.9169 0.0
C279 C 0.32324 0.3056 0.92165 0.0
O280 O 0.35442 0.31083 0.96979 0.0
O281 O 0.34458 0.34375 0.99054 0.0
C282 C 0.39053 0.34321 0.91579 0.0
O283 O 0.33872 0.30197 0.90564 0.0
O284 O 0.32108 0.3216 0.94556 0.0
C285 C 0.31892 0.36891 0.87957 0.0
Fe286 Fe 0.15069 0.66494 0.45432 0.0
Fe287 Fe 0.12497 0.65613 0.38569 0.0
O288 O 0.1333 0.6744 0.42217 0.0
Fe289 Fe 0.1244 0.70264 0.42624 0.0
O290 O 0.14718 0.71502 0.41717 0.0
O291 O 0.16167 0.6929 0.45829 0.0
O292 O 0.16687 0.65937 0.41608 0.0
C293 C 0.16383 0.64798 0.38643 0.0
C294 C 0.129 0.68959 0.50299 0.0
O295 O 0.14747 0.64225 0.37701 0.0
C296 C 0.09264 0.67819 0.41416 0.0
O297 O 0.14292 0.63523 0.45535 0.0
O298 O 0.11793 0.63406 0.41934 0.0
O299 O 0.12766 0.70462 0.47742 0.0
O300 O 0.13593 0.67024 0.49561 0.0
C301 C 0.12622 0.69705 0.34711 0.0
O302 O 0.10099 0.66699 0.38845 0.0
O303 O 0.1013 0.69183 0.4355 0.0
C304 C 0.12813 0.62537 0.44472 0.0
O305 O 0.13147 0.67649 0.34859 0.0
O306 O 0.11921 0.70641 0.37593 0.0
C307 C 0.16156 0.7097 0.43574 0.0
Fe308 Fe 0.36093 0.70163 0.0925 0.0
Fe309 Fe 0.33193 0.66665 0.06563 0.0
O310 O 0.3504 0.67422 0.0966 0.0
Fe311 Fe 0.35833 0.65505 0.13222 0.0
O312 O 0.35347 0.67571 0.16979 0.0
O313 O 0.36774 0.70409 0.14218 0.0
O314 O 0.33927 0.71575 0.10458 0.0
C315 C 0.32404 0.71186 0.08792 0.0
C316 C 0.39126 0.67437 0.10089 0.0
O317 O 0.32222 0.69547 0.06475 0.0
C318 C 0.35265 0.62523 0.07266 0.0
O319 O 0.35641 0.70506 0.04201 0.0
O320 O 0.34589 0.67184 0.02317 0.0
O321 O 0.38282 0.66399 0.12752 0.0
O322 O 0.38295 0.68878 0.08028 0.0
C323 C 0.31914 0.64928 0.13375 0.0
O324 O 0.33846 0.63648 0.0623 0.0
O325 O 0.3635 0.63274 0.09795 0.0
C326 C 0.35342 0.69084 0.01588 0.0
O327 O 0.31623 0.66119 0.10462 0.0
O328 O 0.33537 0.64285 0.1427 0.0
C329 C 0.36015 0.69561 0.17114 0.0
Fe330 Fe 0.12315 0.31477 0.59126 0.0
Fe331 Fe 0.14947 0.35198 0.56148 0.0
O332 O 0.13212 0.34304 0.59409 0.0
Fe333 Fe 0.12394 0.36183 0.62991 0.0
O334 O 0.13059 0.34195 0.66755 0.0
O335 O 0.11789 0.31175 0.6418 0.0
O336 O 0.14597 0.30254 0.60077 0.0
C337 C 0.1603 0.30752 0.58176 0.0
C338 C 0.09141 0.33927 0.60278 0.0
O339 O 0.16035 0.32391 0.55839 0.0
C340 C 0.12707 0.39179 0.56987 0.0
O341 O 0.12639 0.31205 0.54008 0.0
O342 O 0.13456 0.34623 0.52063 0.0
O343 O 0.09986 0.35097 0.6278 0.0
O344 O 0.10007 0.32548 0.58167 0.0
C345 C 0.16286 0.36975 0.62859 0.0
O346 O 0.1418 0.38174 0.55946 0.0
O347 O 0.11687 0.38346 0.59558 0.0
C348 C 0.1277 0.32675 0.51394 0.0
O349 O 0.16577 0.35796 0.59932 0.0
O350 O 0.14653 0.37575 0.63787 0.0
C351 C 0.1249 0.32164 0.67013 0.0
C352 C 0.1726 0.14473 0.20839 0.0
C353 C 0.17452 0.14144 0.1691 0.0
C354 C 0.18792 0.14256 0.23247 0.0
C355 C 0.23603 0.12031 0.24049 0.0
H356 H 0.24121 0.16927 0.31375 0.0
C357 C 0.30381 0.13674 0.32678 0.0
C358 C 0.30184 0.14472 0.36417 0.0
C359 C 0.28817 0.13403 0.30345 0.0
C360 C 0.23987 0.15524 0.29393 0.0
H361 H 0.19401 0.13238 0.12456 0.0
H362 H 0.22084 0.12865 0.16678 0.0
H363 H 0.21416 0.16829 0.27246 0.0
H364 H 0.28176 0.15507 0.40685 0.0
H365 H 0.25462 0.14985 0.36666 0.0
H366 H 0.26189 0.10733 0.26206 0.0
C367 C 0.2074 0.13278 0.17888 0.0
C368 C 0.22434 0.1547 0.27017 0.0
C369 C 0.19201 0.13496 0.15469 0.0
C370 C 0.28384 0.14907 0.37812 0.0
C371 C 0.26825 0.14623 0.35494 0.0
C372 C 0.2516 0.12079 0.26446 0.0
C373 C 0.2056 0.13708 0.21794 0.0
C374 C 0.22218 0.13722 0.24325 0.0
C375 C 0.27022 0.13916 0.31705 0.0
C376 C 0.25368 0.13825 0.29157 0.0
H377 H 0.15932 0.14961 0.22056 0.0
H378 H 0.18599 0.14557 0.26251 0.0
H379 H 0.23471 0.10654 0.22018 0.0
H380 H 0.31748 0.13335 0.31507 0.0
H381 H 0.29023 0.12872 0.27435 0.0
C382 C 0.19275 0.88262 0.86428 0.0
C383 C 0.17522 0.87707 0.84896 0.0
C384 C 0.20833 0.88496 0.84061 0.0
C385 C 0.22524 0.86462 0.74839 0.0
H386 H 0.26354 0.91093 0.75896 0.0
C387 C 0.28424 0.87115 0.63989 0.0
C388 C 0.30239 0.8746 0.6537 0.0
C389 C 0.26884 0.87403 0.66353 0.0
C390 C 0.25304 0.89777 0.75588 0.0
H391 H 0.16019 0.87084 0.79655 0.0
H392 H 0.18718 0.87513 0.75561 0.0
H393 H 0.23641 0.91144 0.80112 0.0
H394 H 0.31852 0.88454 0.70301 0.0
H395 H 0.29156 0.88922 0.74457 0.0
H396 H 0.2418 0.85062 0.70387 0.0
C397 C 0.18899 0.87726 0.7859 0.0
C398 C 0.23751 0.89809 0.78 0.0
C399 C 0.17348 0.87494 0.80941 0.0
C400 C 0.30472 0.88185 0.69142 0.0
C401 C 0.28925 0.88459 0.71523 0.0
C402 C 0.24072 0.86424 0.72451 0.0
C403 C 0.20668 0.88173 0.80124 0.0
C404 C 0.22337 0.88161 0.77626 0.0
C405 C 0.27114 0.88023 0.70176 0.0
C406 C 0.25476 0.88089 0.72768 0.0
H407 H 0.19459 0.88429 0.89462 0.0
H408 H 0.2218 0.88832 0.8533 0.0
H409 H 0.21483 0.85134 0.74535 0.0
H410 H 0.28191 0.86575 0.6109 0.0
H411 H 0.25508 0.87106 0.65192 0.0
C412 C 0.69268 0.88462 0.65217 0.0
C413 C 0.67568 0.88026 0.67063 0.0
C414 C 0.70903 0.88786 0.6731 0.0
C415 C 0.72721 0.90104 0.76892 0.0
H416 H 0.7699 0.86562 0.73621 0.0
C417 C 0.7907 0.88312 0.86587 0.0
C418 C 0.80836 0.88106 0.84902 0.0
C419 C 0.7748 0.88617 0.84346 0.0
C420 C 0.75827 0.87599 0.74546 0.0
H421 H 0.66245 0.87673 0.72566 0.0
H422 H 0.69092 0.88247 0.76205 0.0
H423 H 0.74171 0.86572 0.69801 0.0
H424 H 0.82327 0.88173 0.79553 0.0
H425 H 0.7957 0.88771 0.75665 0.0
H426 H 0.74375 0.91121 0.81655 0.0
C427 C 0.6916 0.88347 0.73141 0.0
C428 C 0.74207 0.87601 0.72352 0.0
C429 C 0.67529 0.88006 0.71051 0.0
C430 C 0.80986 0.88309 0.80942 0.0
C431 C 0.79401 0.88634 0.78708 0.0
C432 C 0.74348 0.90116 0.7908 0.0
C433 C 0.70872 0.88698 0.71295 0.0
C434 C 0.72629 0.88835 0.73515 0.0
C435 C 0.77621 0.88738 0.80369 0.0
C436 C 0.75918 0.88845 0.77953 0.0
H437 H 0.6935 0.88483 0.62151 0.0
H438 H 0.72197 0.89077 0.65807 0.0
H439 H 0.71533 0.91091 0.77843 0.0
H440 H 0.78905 0.88143 0.89627 0.0
H441 H 0.76133 0.88663 0.85728 0.0
C442 C 0.67836 0.13451 0.32436 0.0
C443 C 0.67992 0.1413 0.36248 0.0
C444 C 0.69431 0.13171 0.30191 0.0
C445 C 0.74323 0.15127 0.29756 0.0
H446 H 0.74841 0.10522 0.21928 0.0
C447 C 0.81152 0.14175 0.2151 0.0
C448 C 0.81016 0.13988 0.17546 0.0
C449 C 0.79579 0.13919 0.23799 0.0
C450 C 0.74709 0.11826 0.24088 0.0
H451 H 0.69956 0.14921 0.40738 0.0
H452 H 0.72721 0.14382 0.36868 0.0
H453 H 0.72061 0.10547 0.25953 0.0
H454 H 0.79121 0.13294 0.12895 0.0
H455 H 0.76366 0.12855 0.16908 0.0
H456 H 0.76954 0.16418 0.27899 0.0
C457 C 0.71369 0.14125 0.35574 0.0
C458 C 0.73117 0.11842 0.26392 0.0
C459 C 0.6978 0.14418 0.37805 0.0
C460 C 0.79278 0.13441 0.15939 0.0
C461 C 0.77698 0.13185 0.18239 0.0
C462 C 0.7591 0.15106 0.27472 0.0
C463 C 0.71216 0.13555 0.31714 0.0
C464 C 0.72908 0.13491 0.29265 0.0
C465 C 0.77825 0.13475 0.2219 0.0
C466 C 0.76128 0.13453 0.24618 0.0
H467 H 0.6648 0.13226 0.31141 0.0
H468 H 0.69259 0.12746 0.27225 0.0
H469 H 0.74192 0.1646 0.31867 0.0
H470 H 0.82468 0.14581 0.22853 0.0
H471 H 0.79732 0.14109 0.26838 0.0
C472 C 0.8098 0.63725 0.31058 0.0
C473 C 0.80823 0.63977 0.35007 0.0
C474 C 0.79399 0.63375 0.2883 0.0
C475 C 0.74351 0.61918 0.29206 0.0
H476 H 0.74195 0.65441 0.1989 0.0
C477 C 0.67561 0.64079 0.21133 0.0
C478 C 0.67608 0.64046 0.17147 0.0
C479 C 0.69184 0.63721 0.23236 0.0
C480 C 0.74225 0.64417 0.2245 0.0
H481 H 0.78888 0.63996 0.39727 0.0
H482 H 0.7612 0.63436 0.35829 0.0
H483 H 0.77008 0.6545 0.23719 0.0
H484 H 0.69391 0.63539 0.1225 0.0
H485 H 0.72224 0.62914 0.15929 0.0
H486 H 0.71534 0.60951 0.27969 0.0
C487 C 0.77469 0.63463 0.34457 0.0
C488 C 0.75842 0.64418 0.24649 0.0
C489 C 0.79056 0.63791 0.36694 0.0
C490 C 0.69305 0.63576 0.15315 0.0
C491 C 0.7093 0.63231 0.1742 0.0
C492 C 0.72727 0.61929 0.27012 0.0
C493 C 0.77619 0.63296 0.30488 0.0
C494 C 0.75923 0.63181 0.28067 0.0
C495 C 0.70893 0.63336 0.21401 0.0
C496 C 0.72644 0.63192 0.23624 0.0
H497 H 0.82324 0.63839 0.29673 0.0
H498 H 0.79572 0.63203 0.25793 0.0
H499 H 0.74373 0.60921 0.31794 0.0
H500 H 0.66278 0.64438 0.22636 0.0
H501 H 0.69114 0.63833 0.26298 0.0
C502 C 0.67344 0.37968 0.80951 0.0
C503 C 0.67514 0.37765 0.84907 0.0
C504 C 0.68912 0.38339 0.7869 0.0
C505 C 0.73925 0.39996 0.7899 0.0
H506 H 0.74148 0.36504 0.69663 0.0
C507 C 0.80752 0.38071 0.70898 0.0
C508 C 0.80708 0.3809 0.66911 0.0
C509 C 0.79122 0.38391 0.72995 0.0
C510 C 0.74097 0.3752 0.72226 0.0
H511 H 0.69465 0.37838 0.89597 0.0
H512 H 0.72211 0.38434 0.85647 0.0
H513 H 0.71346 0.36374 0.73528 0.0
H514 H 0.78921 0.38534 0.62005 0.0
H515 H 0.76072 0.39091 0.65677 0.0
H516 H 0.76712 0.41076 0.77723 0.0
C517 C 0.70859 0.38354 0.84292 0.0
C518 C 0.72488 0.37449 0.74447 0.0
C519 C 0.69285 0.38004 0.8656 0.0
C520 C 0.79005 0.38516 0.65071 0.0
C521 C 0.77371 0.38818 0.67172 0.0
C522 C 0.75543 0.40054 0.76776 0.0
C523 C 0.70696 0.3849 0.8032 0.0
C524 C 0.72383 0.38672 0.77874 0.0
C525 C 0.77407 0.38719 0.71156 0.0
C526 C 0.75651 0.38802 0.73383 0.0
H527 H 0.65998 0.37811 0.79586 0.0
H528 H 0.68727 0.38484 0.75652 0.0
H529 H 0.73885 0.40987 0.8158 0.0
H530 H 0.8204 0.37746 0.72407 0.0
H531 H 0.79193 0.38285 0.76058 0.0
C532 C 0.30569 0.37855 0.81579 0.0
C533 C 0.30307 0.37516 0.85486 0.0
C534 C 0.29037 0.38163 0.79177 0.0
C535 C 0.23932 0.37062 0.78895 0.0
H536 H 0.242 0.40563 0.6957 0.0
C537 C 0.17572 0.38232 0.69121 0.0
C538 C 0.17877 0.37585 0.65333 0.0
C539 C 0.19074 0.38536 0.71595 0.0
C540 C 0.24109 0.39581 0.72168 0.0
H541 H 0.28247 0.37362 0.89972 0.0
H542 H 0.2559 0.38009 0.85833 0.0
H543 H 0.2684 0.40584 0.73945 0.0
H544 H 0.20003 0.36845 0.61135 0.0
H545 H 0.22625 0.37423 0.65448 0.0
H546 H 0.21191 0.36087 0.77128 0.0
C547 C 0.26965 0.37948 0.8458 0.0
C548 C 0.25624 0.39579 0.74669 0.0
C549 C 0.28492 0.37598 0.86966 0.0
C550 C 0.1972 0.37345 0.64034 0.0
C551 C 0.21222 0.37684 0.66497 0.0
C552 C 0.22411 0.37095 0.76428 0.0
C553 C 0.2721 0.38175 0.80636 0.0
C554 C 0.25564 0.38299 0.78054 0.0
C555 C 0.20911 0.38233 0.7032 0.0
C556 C 0.2249 0.38335 0.73024 0.0
H557 H 0.31951 0.37777 0.80352 0.0
H558 H 0.29288 0.383 0.76159 0.0
H559 H 0.2384 0.36009 0.81414 0.0
H560 H 0.16171 0.38418 0.70219 0.0
H561 H 0.18797 0.38972 0.74525 0.0
C562 C 0.28502 0.64326 0.14382 0.0
C563 C 0.30322 0.64333 0.15841 0.0
C564 C 0.26977 0.63976 0.16773 0.0
C565 C 0.25647 0.62198 0.26616 0.0
H566 H 0.21262 0.65833 0.24405 0.0
C567 C 0.19811 0.64405 0.37423 0.0
C568 C 0.17964 0.642 0.36137 0.0
C569 C 0.21303 0.64074 0.34933 0.0
C570 C 0.22469 0.64787 0.25034 0.0
H571 H 0.31977 0.63947 0.20939 0.0
H572 H 0.29319 0.63429 0.25144 0.0
H573 H 0.23895 0.65931 0.20082 0.0
H574 H 0.16237 0.63436 0.31248 0.0
H575 H 0.18846 0.629 0.26896 0.0
H576 H 0.24227 0.61156 0.31689 0.0
C577 C 0.29062 0.63621 0.22137 0.0
C578 C 0.2398 0.64831 0.22545 0.0
C579 C 0.3059 0.63928 0.19728 0.0
C580 C 0.17642 0.63595 0.32336 0.0
C581 C 0.19133 0.633 0.29837 0.0
C582 C 0.24143 0.62186 0.29141 0.0
C583 C 0.27231 0.63675 0.20701 0.0
C584 C 0.25594 0.63541 0.23299 0.0
C585 C 0.20975 0.63569 0.31099 0.0
C586 C 0.22542 0.63484 0.28372 0.0
H587 H 0.28253 0.64614 0.1139 0.0
H588 H 0.25597 0.63969 0.15538 0.0
H589 H 0.26849 0.61153 0.27269 0.0
H590 H 0.20106 0.64871 0.40333 0.0
H591 H 0.22711 0.64307 0.35969 0.0
C592 C 0.14859 0.20413 0.95637 0.0
C593 C 0.1319 0.19727 0.97395 0.0
C594 C 0.14822 0.21694 0.92282 0.0
C595 C 0.12167 0.2302 0.83848 0.0
H596 H 0.14379 0.29062 0.84268 0.0
C597 C 0.11114 0.29362 0.71553 0.0
C598 C 0.1253 0.30932 0.70682 0.0
C599 C 0.11201 0.28037 0.74846 0.0
C600 C 0.13783 0.27368 0.84053 0.0
H601 H 0.10181 0.1977 0.96946 0.0
H602 H 0.10122 0.21915 0.90961 0.0
H603 H 0.14587 0.26531 0.89754 0.0
H604 H 0.15147 0.32363 0.72582 0.0
H605 H 0.15361 0.29971 0.78249 0.0
H606 H 0.11428 0.23779 0.78127 0.0
C607 C 0.11453 0.21488 0.92225 0.0
C608 C 0.13895 0.25924 0.87217 0.0
C609 C 0.11487 0.20259 0.95636 0.0
C610 C 0.14027 0.31179 0.73208 0.0
C611 C 0.14141 0.29806 0.76467 0.0
C612 C 0.12092 0.24438 0.80654 0.0
C613 C 0.13119 0.22264 0.90569 0.0
C614 C 0.13072 0.23747 0.87155 0.0
C615 C 0.12738 0.28192 0.77318 0.0
C616 C 0.12876 0.26652 0.80714 0.0
H617 H 0.16192 0.20065 0.96959 0.0
H618 H 0.16124 0.22268 0.91052 0.0
H619 H 0.11535 0.2134 0.83721 0.0
H620 H 0.09931 0.29153 0.69675 0.0
H621 H 0.10057 0.26885 0.75432 0.0
C622 C 0.34564 0.82581 0.44515 0.0
C623 C 0.35766 0.81954 0.47481 0.0
C624 C 0.34604 0.81386 0.41064 0.0
C625 C 0.35938 0.75684 0.37459 0.0
H626 H 0.35273 0.78375 0.27513 0.0
C627 C 0.3501 0.70178 0.23896 0.0
C628 C 0.35977 0.70927 0.20659 0.0
C629 C 0.34913 0.71562 0.27136 0.0
C630 C 0.35468 0.77597 0.30272 0.0
H631 H 0.38051 0.7973 0.49067 0.0
H632 H 0.38159 0.77706 0.43054 0.0
H633 H 0.3535 0.80838 0.33101 0.0
H634 H 0.37618 0.73716 0.18322 0.0
H635 H 0.3747 0.76086 0.23946 0.0
H636 H 0.36096 0.72452 0.34641 0.0
C637 C 0.37144 0.79059 0.43407 0.0
C638 C 0.35495 0.79009 0.33475 0.0
C639 C 0.37096 0.80237 0.46839 0.0
C640 C 0.36855 0.73078 0.20754 0.0
C641 C 0.36757 0.74455 0.23975 0.0
C642 C 0.35907 0.74274 0.34263 0.0
C643 C 0.35852 0.79554 0.40531 0.0
C644 C 0.35756 0.78072 0.37105 0.0
C645 C 0.35776 0.73726 0.27201 0.0
C646 C 0.35693 0.75214 0.30623 0.0
H647 H 0.33512 0.83882 0.44947 0.0
H648 H 0.33592 0.81813 0.38901 0.0
H649 H 0.36104 0.74898 0.4022 0.0
H650 H 0.34306 0.68539 0.2391 0.0
H651 H 0.34135 0.70955 0.29567 0.0
C652 C 0.13341 0.70069 0.27704 0.0
C653 C 0.12729 0.71047 0.31128 0.0
C654 C 0.13439 0.71392 0.24382 0.0
C655 C 0.13694 0.77417 0.21068 0.0
H656 H 0.1183 0.74998 0.11577 0.0
C657 C 0.14414 0.82184 0.06634 0.0
C658 C 0.12904 0.82035 0.04102 0.0
C659 C 0.14422 0.80919 0.10014 0.0
C660 C 0.12346 0.75705 0.14211 0.0
H661 H 0.11756 0.74197 0.33718 0.0
H662 H 0.11921 0.76467 0.27977 0.0
H663 H 0.1184 0.72581 0.17226 0.0
H664 H 0.1017 0.80528 0.03268 0.0
H665 H 0.10176 0.78359 0.09161 0.0
H666 H 0.14172 0.80552 0.1807 0.0
C667 C 0.1234 0.74691 0.27848 0.0
C668 C 0.12374 0.74308 0.17439 0.0
C669 C 0.12231 0.73375 0.31144 0.0
C670 C 0.11364 0.80679 0.05131 0.0
C671 C 0.11374 0.79413 0.08497 0.0
C672 C 0.13676 0.7881 0.17836 0.0
C673 C 0.12946 0.73723 0.24422 0.0
C674 C 0.13029 0.75154 0.2092 0.0
C675 C 0.1292 0.79473 0.1094 0.0
C676 C 0.12983 0.77981 0.14374 0.0
H677 H 0.13743 0.68286 0.2759 0.0
H678 H 0.13924 0.70597 0.21792 0.0
H679 H 0.14228 0.78117 0.23694 0.0
H680 H 0.1563 0.83197 0.05931 0.0
H681 H 0.15638 0.81002 0.11824 0.0
C682 C 0.37326 0.28964 0.80506 0.0
C683 C 0.36195 0.30926 0.80659 0.0
C684 C 0.37321 0.27553 0.7733 0.0
C685 C 0.34484 0.25878 0.69104 0.0
H686 H 0.3914 0.23274 0.6557 0.0
C687 C 0.34685 0.1907 0.57211 0.0
C688 C 0.35957 0.1957 0.54301 0.0
C689 C 0.34781 0.20245 0.60672 0.0
C690 C 0.37827 0.23984 0.6652 0.0
H691 H 0.34185 0.32956 0.77548 0.0
H692 H 0.3419 0.30481 0.71928 0.0
H693 H 0.39158 0.25956 0.7084 0.0
H694 H 0.38393 0.21558 0.52794 0.0
H695 H 0.38584 0.23564 0.58811 0.0
H696 H 0.33162 0.23942 0.64704 0.0
C697 C 0.35069 0.30036 0.74312 0.0
C698 C 0.37835 0.25514 0.69556 0.0
C699 C 0.35079 0.31465 0.77509 0.0
C700 C 0.37401 0.21133 0.55002 0.0
C701 C 0.37509 0.22283 0.58454 0.0
C702 C 0.34476 0.24341 0.66063 0.0
C703 C 0.36185 0.28055 0.74202 0.0
C704 C 0.36166 0.26485 0.70884 0.0
C705 C 0.36165 0.21913 0.61285 0.0
C706 C 0.3615 0.23386 0.64722 0.0
H707 H 0.38204 0.28489 0.82878 0.0
H708 H 0.38178 0.26029 0.7737 0.0
H709 H 0.33172 0.26574 0.70087 0.0
H710 H 0.33544 0.17895 0.56724 0.0
H711 H 0.3374 0.19902 0.62821 0.0
C712 C 0.8725 0.80345 0.03985 0.0
C713 C 0.85851 0.81985 0.03317 0.0
C714 C 0.87328 0.79152 0.07421 0.0
C715 C 0.85812 0.7919 0.1741 0.0
H716 H 0.86278 0.72604 0.16624 0.0
C717 C 0.84773 0.73326 0.30444 0.0
C718 C 0.85872 0.71344 0.3077 0.0
C719 C 0.84793 0.74634 0.27122 0.0
C720 C 0.86177 0.74441 0.16917 0.0
H721 H 0.83494 0.83728 0.05854 0.0
H722 H 0.83654 0.81668 0.11885 0.0
H723 H 0.86345 0.74941 0.10907 0.0
H724 H 0.87852 0.69186 0.2783 0.0
H725 H 0.8793 0.71498 0.22071 0.0
H726 H 0.85678 0.78707 0.23416 0.0
C727 C 0.84682 0.813 0.09722 0.0
C728 C 0.8621 0.75783 0.13627 0.0
C729 C 0.84591 0.82481 0.06262 0.0
C730 C 0.86981 0.70694 0.27669 0.0
C731 C 0.87017 0.7202 0.24354 0.0
C732 C 0.85801 0.77851 0.20708 0.0
C733 C 0.86024 0.79582 0.10304 0.0
C734 C 0.86022 0.78173 0.1383 0.0
C735 C 0.85929 0.74017 0.24034 0.0
C736 C 0.85974 0.75453 0.20513 0.0
H737 H 0.88251 0.79917 0.01801 0.0
H738 H 0.88398 0.77867 0.07802 0.0
H739 H 0.85683 0.81028 0.17667 0.0
H740 H 0.83887 0.73867 0.32762 0.0
H741 H 0.83901 0.76123 0.26973 0.0
C742 C 0.61017 0.21739 0.54149 0.0
C743 C 0.62194 0.1984 0.5367 0.0
C744 C 0.60903 0.2286 0.57629 0.0
C745 C 0.61943 0.22506 0.67871 0.0
H746 H 0.62351 0.29098 0.66972 0.0
C747 C 0.63176 0.28313 0.80913 0.0
C748 C 0.62278 0.30451 0.81031 0.0
C749 C 0.63123 0.26966 0.77642 0.0
C750 C 0.62207 0.27265 0.67288 0.0
H751 H 0.64084 0.17537 0.56555 0.0
H752 H 0.63879 0.19501 0.62693 0.0
H753 H 0.62265 0.26755 0.61286 0.0
H754 H 0.60622 0.32845 0.77768 0.0
H755 H 0.60502 0.3048 0.72075 0.0
H756 H 0.61873 0.2302 0.73881 0.0
C757 C 0.63045 0.20119 0.60348 0.0
C758 C 0.62162 0.25917 0.64019 0.0
C759 C 0.63159 0.18988 0.56839 0.0
C760 C 0.61336 0.31214 0.77775 0.0
C761 C 0.61274 0.29857 0.74501 0.0
C762 C 0.61977 0.23858 0.71151 0.0
C763 C 0.61965 0.22117 0.60738 0.0
C764 C 0.62023 0.23521 0.64263 0.0
C765 C 0.62164 0.2771 0.74393 0.0
C766 C 0.62109 0.2626 0.70904 0.0
H767 H 0.60236 0.22423 0.51776 0.0
H768 H 0.60021 0.24355 0.57855 0.0
H769 H 0.61822 0.20668 0.68157 0.0
H770 H 0.63929 0.27673 0.83354 0.0
H771 H 0.63857 0.25349 0.77654 0.0
C772 C 0.84453 0.28564 0.71477 0.0
C773 C 0.85575 0.30528 0.71179 0.0
C774 C 0.84459 0.27236 0.74786 0.0
C775 C 0.85878 0.27384 0.8499 0.0
H776 H 0.85329 0.20804 0.84256 0.0
C777 C 0.87149 0.21494 0.97822 0.0
C778 C 0.85751 0.19874 0.98628 0.0
C779 C 0.87169 0.22669 0.94368 0.0
C780 C 0.85473 0.2264 0.84507 0.0
H781 H 0.8759 0.32627 0.74146 0.0
H782 H 0.87645 0.30287 0.79857 0.0
H783 H 0.85276 0.23131 0.78505 0.0
H784 H 0.83333 0.18145 0.96307 0.0
H785 H 0.83392 0.20177 0.90236 0.0
H786 H 0.86114 0.2688 0.90986 0.0
C787 C 0.8672 0.29794 0.77577 0.0
C788 C 0.85434 0.23982 0.81209 0.0
C789 C 0.86697 0.31136 0.74284 0.0
C790 C 0.84431 0.19377 0.95792 0.0
C791 C 0.84464 0.20541 0.9231 0.0
C792 C 0.85939 0.26041 0.88273 0.0
C793 C 0.85603 0.27819 0.77881 0.0
C794 C 0.85636 0.26378 0.81398 0.0
C795 C 0.85805 0.22245 0.91601 0.0
C796 C 0.8574 0.23653 0.88075 0.0
H797 H 0.8356 0.28052 0.69152 0.0
H798 H 0.83549 0.25762 0.7492 0.0
H799 H 0.85996 0.2922 0.85284 0.0
H800 H 0.88196 0.21921 0.99917 0.0
H801 H 0.88239 0.23943 0.93885 0.0
C802 C 0.63463 0.73339 0.21719 0.0
C803 C 0.62414 0.71312 0.21453 0.0
C804 C 0.63442 0.74653 0.25033 0.0
C805 C 0.6062 0.75927 0.33483 0.0
H806 H 0.65242 0.78322 0.37547 0.0
C807 C 0.6101 0.80318 0.48192 0.0
C808 C 0.62353 0.82032 0.48817 0.0
C809 C 0.60947 0.79125 0.44755 0.0
C810 C 0.6393 0.77708 0.36425 0.0
H811 H 0.60524 0.69078 0.245 0.0
H812 H 0.60472 0.71391 0.30287 0.0
H813 H 0.65297 0.75972 0.31854 0.0
H814 H 0.64619 0.83909 0.462 0.0
H815 H 0.64466 0.81891 0.40163 0.0
H816 H 0.59244 0.77691 0.37999 0.0
C817 C 0.6131 0.7196 0.27912 0.0
C818 C 0.63966 0.76344 0.33163 0.0
C819 C 0.6135 0.70626 0.24606 0.0
C820 C 0.63571 0.82595 0.45834 0.0
C821 C 0.63496 0.81414 0.42378 0.0
C822 C 0.60581 0.77313 0.36723 0.0
C823 C 0.62356 0.73991 0.28164 0.0
C824 C 0.62313 0.75429 0.31658 0.0
C825 C 0.62211 0.79623 0.41815 0.0
C826 C 0.62237 0.78219 0.38258 0.0
H827 H 0.64303 0.7392 0.19355 0.0
H828 H 0.64251 0.76214 0.25116 0.0
H829 H 0.59318 0.75277 0.32365 0.0
H830 H 0.60051 0.79824 0.50418 0.0
H831 H 0.59949 0.77748 0.44473 0.0
C832 C 0.61 0.71624 0.98151 0.0
C833 C 0.62352 0.69929 0.98819 0.0
C834 C 0.60943 0.72805 0.94697 0.0
C835 C 0.63966 0.74239 0.86437 0.0
H836 H 0.59363 0.76598 0.8222 0.0
C837 C 0.6357 0.78629 0.71717 0.0
C838 C 0.62501 0.80637 0.71432 0.0
C839 C 0.63539 0.77304 0.75024 0.0
C840 C 0.60662 0.75967 0.83381 0.0
H841 H 0.64639 0.68065 0.96264 0.0
H842 H 0.64499 0.70062 0.90201 0.0
H843 H 0.59269 0.7419 0.87869 0.0
H844 H 0.60562 0.82827 0.74434 0.0
H845 H 0.60495 0.80496 0.80202 0.0
H846 H 0.65351 0.75991 0.81901 0.0
C847 C 0.63517 0.70535 0.92393 0.0
C848 C 0.60611 0.74585 0.8663 0.0
C849 C 0.63585 0.69367 0.95864 0.0
C850 C 0.61406 0.81294 0.74555 0.0
C851 C 0.61356 0.7995 0.77851 0.0
C852 C 0.64014 0.75599 0.83169 0.0
C853 C 0.62225 0.72311 0.91788 0.0
C854 C 0.62263 0.73707 0.88222 0.0
C855 C 0.62421 0.77936 0.78122 0.0
C856 C 0.62364 0.76489 0.81608 0.0
H857 H 0.6003 0.72115 1.00357 0.0
H858 H 0.59938 0.74171 0.94377 0.0
H859 H 0.65274 0.73645 0.87606 0.0
H860 H 0.64433 0.78071 0.69375 0.0
H861 H 0.64365 0.75756 0.75125 0.0
C862 C 0.87283 0.30493 0.47924 0.0
C863 C 0.85868 0.3211 0.48599 0.0
C864 C 0.87374 0.29312 0.44482 0.0
C865 C 0.8582 0.29327 0.345 0.0
H866 H 0.86396 0.22754 0.35311 0.0
C867 C 0.84786 0.23403 0.21546 0.0
C868 C 0.85922 0.21454 0.21206 0.0
C869 C 0.84809 0.24724 0.24851 0.0
C870 C 0.86263 0.24588 0.35011 0.0
H871 H 0.83496 0.33827 0.46067 0.0
H872 H 0.83674 0.31784 0.40032 0.0
H873 H 0.86455 0.25094 0.41012 0.0
H874 H 0.87973 0.1937 0.24103 0.0
H875 H 0.88052 0.21703 0.29827 0.0
H876 H 0.85655 0.28834 0.28499 0.0
C877 C 0.84707 0.31427 0.4219 0.0
C878 C 0.86293 0.25932 0.38292 0.0
C879 C 0.84606 0.32598 0.45653 0.0
C880 C 0.87073 0.20852 0.24273 0.0
C881 C 0.8711 0.22189 0.2757 0.0
C882 C 0.85809 0.27985 0.31209 0.0
C883 C 0.86064 0.29727 0.41603 0.0
C884 C 0.86067 0.28317 0.38081 0.0
C885 C 0.85982 0.24151 0.27905 0.0
C886 C 0.86023 0.25592 0.31415 0.0
H887 H 0.88288 0.30073 0.50107 0.0
H888 H 0.88456 0.28043 0.44097 0.0
H889 H 0.8566 0.31161 0.34235 0.0
H890 H 0.83869 0.23908 0.19256 0.0
H891 H 0.83889 0.26187 0.25015 0.0
C892 C 0.63519 0.32605 0.06565 0.0
C893 C 0.62428 0.31879 0.03477 0.0
C894 C 0.63521 0.31366 0.09976 0.0
C895 C 0.6315 0.25629 0.13553 0.0
H896 H 0.61685 0.28174 0.23234 0.0
C897 C 0.62484 0.19944 0.27011 0.0
C898 C 0.62762 0.20962 0.30566 0.0
C899 C 0.62479 0.21285 0.23705 0.0
C900 C 0.62141 0.27435 0.20581 0.0
H901 H 0.60457 0.29296 0.01603 0.0
H902 H 0.60507 0.27121 0.07502 0.0
H903 H 0.61628 0.30572 0.17583 0.0
H904 H 0.63357 0.24146 0.33444 0.0
H905 H 0.6347 0.26448 0.27724 0.0
H906 H 0.63741 0.22523 0.16513 0.0
C907 C 0.61342 0.2866 0.07287 0.0
C908 C 0.62091 0.28816 0.17337 0.0
C909 C 0.61305 0.29921 0.03921 0.0
C910 C 0.63111 0.23321 0.3074 0.0
C911 C 0.63155 0.24647 0.27446 0.0
C912 C 0.63244 0.2426 0.16809 0.0
C913 C 0.62467 0.29351 0.10325 0.0
C914 C 0.6258 0.2792 0.13792 0.0
C915 C 0.62798 0.23667 0.23874 0.0
C916 C 0.6273 0.25135 0.20381 0.0
H917 H 0.64404 0.34098 0.06315 0.0
H918 H 0.64398 0.31932 0.12289 0.0
H919 H 0.63547 0.24905 0.10845 0.0
H920 H 0.62199 0.1813 0.26799 0.0
H921 H 0.62173 0.20455 0.21037 0.0
C922 C 0.87364 0.71602 0.54074 0.0
C923 C 0.85949 0.69985 0.53392 0.0
C924 C 0.87438 0.72799 0.57503 0.0
C925 C 0.85835 0.72814 0.67448 0.0
H926 H 0.86375 0.7939 0.66597 0.0
C927 C 0.84669 0.7874 0.80325 0.0
C928 C 0.85796 0.80694 0.80702 0.0
C929 C 0.84718 0.77424 0.77018 0.0
C930 C 0.86252 0.77555 0.66908 0.0
H931 H 0.83562 0.68282 0.55894 0.0
H932 H 0.83712 0.70349 0.61905 0.0
H933 H 0.86488 0.77032 0.60916 0.0
H934 H 0.87854 0.828 0.77865 0.0
H935 H 0.87978 0.80476 0.72133 0.0
H936 H 0.85628 0.73322 0.73438 0.0
C937 C 0.84756 0.70696 0.59764 0.0
C938 C 0.86313 0.76202 0.63639 0.0
C939 C 0.8467 0.69512 0.56315 0.0
C940 C 0.86959 0.81314 0.77663 0.0
C941 C 0.87023 0.79981 0.74364 0.0
C942 C 0.85794 0.74165 0.70725 0.0
C943 C 0.86113 0.72395 0.6036 0.0
C944 C 0.86098 0.73816 0.63866 0.0
C945 C 0.8591 0.78007 0.73999 0.0
C946 C 0.85991 0.76559 0.70504 0.0
H947 H 0.88379 0.72012 0.51905 0.0
H948 H 0.88519 0.74069 0.57897 0.0
H949 H 0.85684 0.70979 0.67724 0.0
H950 H 0.83742 0.78223 0.82594 0.0
H951 H 0.83807 0.75954 0.76827 0.0
C952 C 0.35866 0.23552 0.31433 0.0
C953 C 0.35544 0.21179 0.31289 0.0
C954 C 0.35772 0.24889 0.28154 0.0
C955 C 0.36283 0.24511 0.17868 0.0
H956 H 0.33696 0.30335 0.17627 0.0
C957 C 0.34878 0.28987 0.03847 0.0
C958 C 0.35067 0.31374 0.03546 0.0
C959 C 0.34924 0.27904 0.07351 0.0
C960 C 0.34449 0.28731 0.17666 0.0
H961 H 0.34841 0.18358 0.27576 0.0
H962 H 0.34702 0.20696 0.21817 0.0
H963 H 0.33751 0.28082 0.23488 0.0
H964 H 0.35386 0.34507 0.06741 0.0
H965 H 0.3551 0.32585 0.12963 0.0
H966 H 0.3701 0.25152 0.12098 0.0
C967 C 0.35032 0.21515 0.24487 0.0
C968 C 0.34472 0.27435 0.21014 0.0
C969 C 0.35104 0.20177 0.27783 0.0
C970 C 0.35249 0.32666 0.06883 0.0
C971 C 0.35314 0.31564 0.10436 0.0
C972 C 0.36276 0.2581 0.14547 0.0
C973 C 0.35372 0.23884 0.24638 0.0
C974 C 0.35366 0.25294 0.21128 0.0
C975 C 0.35184 0.29161 0.10692 0.0
C976 C 0.35328 0.27916 0.14372 0.0
H977 H 0.36194 0.24387 0.3409 0.0
H978 H 0.36054 0.26703 0.2836 0.0
H979 H 0.37022 0.22897 0.17891 0.0
H980 H 0.34685 0.27933 0.01352 0.0
H981 H 0.34752 0.26065 0.07431 0.0
C982 C 0.11609 0.80834 0.78494 0.0
C983 C 0.12598 0.80134 0.81731 0.0
C984 C 0.11577 0.79469 0.75237 0.0
C985 C 0.12455 0.73533 0.7184 0.0
H986 H 0.1261 0.76498 0.62017 0.0
C987 C 0.13572 0.6884 0.57323 0.0
C988 C 0.12539 0.69698 0.54248 0.0
C989 C 0.13483 0.6992 0.60877 0.0
C990 C 0.12546 0.75641 0.64738 0.0
H991 H 0.14352 0.77452 0.84049 0.0
H992 H 0.14328 0.75104 0.78357 0.0
H993 H 0.12695 0.78806 0.67736 0.0
H994 H 0.10489 0.72224 0.52565 0.0
H995 H 0.10316 0.74067 0.58724 0.0
H996 H 0.12337 0.70358 0.68792 0.0
C997 C 0.13541 0.76684 0.78355 0.0
C998 C 0.12591 0.76968 0.68024 0.0
C999 C 0.13565 0.78042 0.81617 0.0
C1000 C 0.11321 0.71541 0.54865 0.0
C1001 C 0.11231 0.72609 0.58389 0.0
C1002 C 0.12422 0.722 0.68537 0.0
C1003 C 0.12545 0.77376 0.7512 0.0
C1004 C 0.1253 0.75938 0.71624 0.0
C1005 C 0.1236 0.7187 0.61399 0.0
C1006 C 0.12446 0.73243 0.64948 0.0
H1007 H 0.1084 0.82427 0.78485 0.0
H1008 H 0.10771 0.80045 0.72824 0.0
H1009 H 0.12388 0.72678 0.74561 0.0
H1010 H 0.14529 0.6743 0.56927 0.0
H1011 H 0.14367 0.69307 0.63148 0.0
C1012 C 0.3688 0.71634 0.96905 0.0
C1013 C 0.35565 0.69911 0.97646 0.0
C1014 C 0.36868 0.72814 0.93469 0.0
C1015 C 0.35075 0.72815 0.83637 0.0
H1016 H 0.35802 0.79364 0.84579 0.0
C1017 C 0.36459 0.78566 0.70694 0.0
C1018 C 0.35655 0.8076 0.70559 0.0
C1019 C 0.36335 0.77223 0.73954 0.0
C1020 C 0.35575 0.77544 0.84264 0.0
H1021 H 0.33267 0.67985 0.95277 0.0
H1022 H 0.33242 0.70057 0.89226 0.0
H1023 H 0.35832 0.76969 0.90228 0.0
H1024 H 0.34084 0.83254 0.73781 0.0
H1025 H 0.33864 0.80895 0.7951 0.0
H1026 H 0.34795 0.73399 0.77669 0.0
C1027 C 0.34289 0.70487 0.91316 0.0
C1028 C 0.35619 0.76163 0.875 0.0
C1029 C 0.34308 0.69291 0.94771 0.0
C1030 C 0.34729 0.81581 0.73795 0.0
C1031 C 0.34605 0.80229 0.77077 0.0
C1032 C 0.35033 0.74198 0.80395 0.0
C1033 C 0.35531 0.72316 0.90682 0.0
C1034 C 0.35398 0.73776 0.87225 0.0
C1035 C 0.35401 0.78027 0.77185 0.0
C1036 C 0.35307 0.76578 0.80662 0.0
H1037 H 0.37877 0.72137 0.99056 0.0
H1038 H 0.3788 0.74163 0.93037 0.0
H1039 H 0.34899 0.70986 0.8332 0.0
H1040 H 0.37189 0.77872 0.68267 0.0
H1041 H 0.36998 0.75561 0.73953 0.0
C1042 C 0.13377 0.32829 0.44345 0.0
C1043 C 0.12421 0.31891 0.47461 0.0
C1044 C 0.13291 0.31762 0.40781 0.0
C1045 C 0.125 0.26021 0.36815 0.0
H1046 H 0.12155 0.29084 0.27095 0.0
C1047 C 0.11558 0.20948 0.22948 0.0
C1048 C 0.12521 0.21704 0.19711 0.0
C1049 C 0.11513 0.22283 0.26236 0.0
C1050 C 0.12274 0.28203 0.29786 0.0
H1051 H 0.10507 0.29221 0.49209 0.0
H1052 H 0.10336 0.27401 0.43033 0.0
H1053 H 0.12094 0.31336 0.32938 0.0
H1054 H 0.14204 0.24463 0.17418 0.0
H1055 H 0.14151 0.26766 0.23166 0.0
H1056 H 0.12705 0.22899 0.33708 0.0
C1057 C 0.11193 0.28913 0.43343 0.0
C1058 C 0.12235 0.29496 0.33132 0.0
C1059 C 0.11282 0.29968 0.4688 0.0
C1060 C 0.13441 0.23828 0.19851 0.0
C1061 C 0.13401 0.2516 0.23143 0.0
C1062 C 0.12546 0.24734 0.33485 0.0
C1063 C 0.12245 0.29746 0.40282 0.0
C1064 C 0.12329 0.28415 0.36687 0.0
C1065 C 0.12438 0.24405 0.26384 0.0
C1066 C 0.12418 0.25802 0.29923 0.0
H1067 H 0.14271 0.34304 0.44706 0.0
H1068 H 0.14115 0.32448 0.38474 0.0
H1069 H 0.1262 0.25137 0.39503 0.0
H1070 H 0.10827 0.19328 0.2294 0.0
H1071 H 0.10734 0.2166 0.28654 0.0
C1072 C 0.06149 0.1601 0.09668 0.0
C1073 C 0.07216 0.18019 0.09403 0.0
C1074 C 0.04212 0.16098 0.09396 0.0
C1075 C 0.00288 0.20003 0.10827 0.0
H1076 H 0.97492 0.1527 0.05645 0.0
C1077 C 0.92256 0.20083 0.10022 0.0
C1078 C 0.91367 0.17986 0.10751 0.0
C1079 C 0.94183 0.20175 0.09491 0.0
C1080 C 0.98255 0.16596 0.07122 0.0
H1081 H 0.07085 0.21689 0.08526 0.0
H1082 H 0.03697 0.21835 0.08036 0.0
H1083 H 0.00886 0.15285 0.05285 0.0
H1084 H 0.91803 0.14337 0.11444 0.0
H1085 H 0.95163 0.14506 0.10564 0.0
H1086 H 0.97659 0.21292 0.12718 0.0
C1087 C 0.04363 0.20198 0.08503 0.0
C1088 C 0.00196 0.16605 0.06914 0.0
C1089 C 0.06304 0.20112 0.08769 0.0
C1090 C 0.92444 0.15982 0.10896 0.0
C1091 C 0.94368 0.16075 0.10361 0.0
C1092 C 0.98346 0.19993 0.11035 0.0
C1093 C 0.03297 0.18194 0.0885 0.0
C1094 C 0.01234 0.1829 0.08809 0.0
C1095 C 0.95259 0.18173 0.09667 0.0
C1096 C 0.97311 0.18271 0.0923 0.0
H1097 H 0.06805 0.14368 0.10143 0.0
H1098 H 0.03428 0.14527 0.09721 0.0
H1099 H 0.0105 0.21306 0.1236 0.0
H1100 H 0.91467 0.21658 0.09864 0.0
H1101 H 0.94829 0.21813 0.08919 0.0
C1102 C 0.42089 0.85952 0.6201 0.0
C1103 C 0.41121 0.8422 0.60081 0.0
C1104 C 0.44033 0.86022 0.61926 0.0
C1105 C 0.48061 0.82316 0.60895 0.0
H1106 H 0.50788 0.87912 0.5891 0.0
C1107 C 0.56065 0.8243 0.5987 0.0
C1108 C 0.56993 0.84311 0.61465 0.0
C1109 C 0.5413 0.82443 0.59492 0.0
C1110 C 0.50048 0.86341 0.59517 0.0
H1111 H 0.41429 0.81228 0.56492 0.0
H1112 H 0.44823 0.81342 0.56397 0.0
H1113 H 0.4739 0.87926 0.58648 0.0
H1114 H 0.56622 0.87675 0.63937 0.0
H1115 H 0.53246 0.87668 0.63395 0.0
H1116 H 0.50699 0.80737 0.61878 0.0
C1117 C 0.44075 0.82638 0.57973 0.0
C1118 C 0.48105 0.86351 0.59351 0.0
C1119 C 0.42133 0.82582 0.58018 0.0
C1120 C 0.55948 0.86203 0.6268 0.0
C1121 C 0.54012 0.86206 0.62342 0.0
C1122 C 0.50001 0.8231 0.61104 0.0
C1123 C 0.45041 0.84348 0.59948 0.0
C1124 C 0.47097 0.84339 0.60043 0.0
C1125 C 0.5308 0.84328 0.60739 0.0
C1126 C 0.51018 0.84324 0.60426 0.0
H1127 H 0.41347 0.87245 0.63605 0.0
H1128 H 0.4475 0.87351 0.63488 0.0
H1129 H 0.47311 0.80748 0.61487 0.0
H1130 H 0.56836 0.80958 0.58869 0.0
H1131 H 0.53459 0.80985 0.58186 0.0
C1132 C 0.92223 0.82018 0.91297 0.0
C1133 C 0.9129 0.84117 0.90889 0.0
C1134 C 0.94162 0.81951 0.91581 0.0
C1135 C 0.98312 0.85322 0.89169 0.0
H1136 H 0.00836 0.8131 0.96267 0.0
C1137 C 0.06165 0.85952 0.91646 0.0
C1138 C 0.07175 0.83894 0.91723 0.0
C1139 C 0.04226 0.85931 0.91772 0.0
C1140 C 0.00148 0.82422 0.94249 0.0
H1141 H 0.91659 0.87796 0.90571 0.0
H1142 H 0.95036 0.87677 0.91095 0.0
H1143 H 0.97431 0.8137 0.96059 0.0
H1144 H 0.06942 0.80203 0.92125 0.0
H1145 H 0.03539 0.80171 0.92305 0.0
H1146 H 0.01017 0.86373 0.87346 0.0
C1147 C 0.94271 0.86081 0.91128 0.0
C1148 C 0.98202 0.82457 0.94129 0.0
C1149 C 0.92334 0.86149 0.90842 0.0
C1150 C 0.06203 0.81817 0.92046 0.0
C1151 C 0.04257 0.81798 0.92168 0.0
C1152 C 0.00251 0.85288 0.8929 0.0
C1153 C 0.95206 0.83982 0.91466 0.0
C1154 C 0.97266 0.83917 0.91599 0.0
C1155 C 0.03251 0.83855 0.91972 0.0
C1156 C 0.0119 0.83849 0.91843 0.0
H1157 H 0.91459 0.80422 0.91355 0.0
H1158 H 0.94847 0.80307 0.91808 0.0
H1159 H 0.97631 0.8643 0.87135 0.0
H1160 H 0.0687 0.87585 0.91449 0.0
H1161 H 0.03489 0.87546 0.91694 0.0
C1162 C 0.42115 0.16161 0.38669 0.0
C1163 C 0.41151 0.17498 0.41336 0.0
C1164 C 0.4406 0.16064 0.38709 0.0
C1165 C 0.48134 0.1935 0.41894 0.0
H1166 H 0.50826 0.13697 0.40191 0.0
C1167 C 0.56081 0.18815 0.43582 0.0
C1168 C 0.57071 0.17597 0.40802 0.0
C1169 C 0.54141 0.18706 0.43733 0.0
C1170 C 0.50092 0.15292 0.40633 0.0
H1171 H 0.41478 0.19723 0.46217 0.0
H1172 H 0.44863 0.1954 0.46294 0.0
H1173 H 0.47423 0.13665 0.40321 0.0
H1174 H 0.56796 0.15275 0.36038 0.0
H1175 H 0.53403 0.1511 0.36277 0.0
H1176 H 0.50793 0.20983 0.42182 0.0
C1177 C 0.44116 0.18598 0.44132 0.0
C1178 C 0.48145 0.15273 0.4071 0.0
C1179 C 0.42174 0.18694 0.44095 0.0
C1180 C 0.56077 0.16238 0.38212 0.0
C1181 C 0.54133 0.16132 0.38362 0.0
C1182 C 0.50076 0.19369 0.41815 0.0
C1183 C 0.45081 0.17303 0.41415 0.0
C1184 C 0.47147 0.17303 0.41349 0.0
C1185 C 0.53144 0.17379 0.41106 0.0
C1186 C 0.51078 0.17341 0.41191 0.0
H1187 H 0.4137 0.15213 0.36511 0.0
H1188 H 0.44766 0.15066 0.36561 0.0
H1189 H 0.47404 0.20949 0.42322 0.0
H1190 H 0.56802 0.1986 0.45647 0.0
H1191 H 0.53421 0.19656 0.45922 0.0
C1192 C 0.55992 0.69248 0.09855 0.0
C1193 C 0.56989 0.67395 0.11371 0.0
C1194 C 0.54061 0.69115 0.09422 0.0
C1195 C 0.49982 0.66274 0.13308 0.0
H1196 H 0.47564 0.68058 0.03927 0.0
C1197 C 0.42083 0.65357 0.11479 0.0
C1198 C 0.41161 0.67192 0.09732 0.0
C1199 C 0.44021 0.65207 0.11355 0.0
C1200 C 0.48218 0.67574 0.06577 0.0
H1201 H 0.56749 0.63946 0.13611 0.0
H1202 H 0.53379 0.63735 0.129 0.0
H1203 H 0.50957 0.68214 0.04405 0.0
H1204 H 0.41537 0.70276 0.06389 0.0
H1205 H 0.44916 0.70054 0.06277 0.0
H1206 H 0.47259 0.65702 0.15541 0.0
C1207 C 0.54092 0.65285 0.12048 0.0
C1208 C 0.50156 0.67661 0.06842 0.0
C1209 C 0.5602 0.65407 0.12442 0.0
C1210 C 0.42208 0.68838 0.07762 0.0
C1211 C 0.44147 0.68703 0.07676 0.0
C1212 C 0.48046 0.6621 0.13059 0.0
C1213 C 0.53097 0.67137 0.10538 0.0
C1214 C 0.51051 0.67017 0.10214 0.0
C1215 C 0.45077 0.66904 0.09519 0.0
C1216 C 0.4714 0.66867 0.09696 0.0
H1217 H 0.56702 0.70796 0.0898 0.0
H1218 H 0.53318 0.70571 0.08275 0.0
H1219 H 0.50642 0.65794 0.15954 0.0
H1220 H 0.41309 0.64045 0.12972 0.0
H1221 H 0.44693 0.63771 0.12732 0.0
C1222 C 0.92106 0.32127 0.59859 0.0
C1223 C 0.91199 0.34044 0.61382 0.0
C1224 C 0.94045 0.321 0.595 0.0
C1225 C 0.98149 0.35969 0.59368 0.0
H1226 H 0.00889 0.3041 0.61551 0.0
C1227 C 0.06087 0.35727 0.61951 0.0
C1228 C 0.07086 0.3399 0.60099 0.0
C1229 C 0.04143 0.35746 0.61865 0.0
C1230 C 0.00138 0.31968 0.60898 0.0
H1231 H 0.91613 0.37423 0.63777 0.0
H1232 H 0.94984 0.37348 0.63262 0.0
H1233 H 0.97495 0.30393 0.61902 0.0
H1234 H 0.06827 0.30924 0.56671 0.0
H1235 H 0.0343 0.3095 0.56568 0.0
H1236 H 0.00804 0.37553 0.58473 0.0
C1237 C 0.94203 0.35888 0.62244 0.0
C1238 C 0.98195 0.31958 0.61086 0.0
C1239 C 0.92268 0.35924 0.62567 0.0
C1240 C 0.061 0.32286 0.5813 0.0
C1241 C 0.04156 0.32291 0.58084 0.0
C1242 C 0.00091 0.35983 0.59221 0.0
C1243 C 0.95116 0.33983 0.60688 0.0
C1244 C 0.97178 0.33964 0.60347 0.0
C1245 C 0.03161 0.34016 0.59961 0.0
C1246 C 0.01103 0.33986 0.60003 0.0
H1247 H 0.91317 0.30661 0.58891 0.0
H1248 H 0.94701 0.30617 0.58243 0.0
H1249 H 0.97409 0.37531 0.58703 0.0
H1250 H 0.06807 0.37069 0.63476 0.0
H1251 H 0.03405 0.37087 0.63355 0.0
C1252 C 0.5597 0.36506 0.90107 0.0
C1253 C 0.56932 0.34499 0.91102 0.0
C1254 C 0.5404 0.36624 0.90472 0.0
C1255 C 0.50051 0.34124 0.95409 0.0
H1256 H 0.4724 0.36261 0.86713 0.0
C1257 C 0.42112 0.32904 0.94029 0.0
C1258 C 0.41081 0.34581 0.92096 0.0
C1259 C 0.44049 0.33055 0.94232 0.0
C1260 C 0.48001 0.35702 0.89197 0.0
H1261 H 0.56627 0.31064 0.93345 0.0
H1262 H 0.53242 0.31281 0.93995 0.0
H1263 H 0.50625 0.36207 0.8645 0.0
H1264 H 0.41255 0.37799 0.8906 0.0
H1265 H 0.44632 0.38099 0.89508 0.0
H1266 H 0.47428 0.33632 0.98174 0.0
C1267 C 0.53991 0.32756 0.92931 0.0
C1268 C 0.4994 0.35662 0.89034 0.0
C1269 C 0.55924 0.32627 0.9253 0.0
C1270 C 0.42016 0.36463 0.90518 0.0
C1271 C 0.43951 0.36628 0.9076 0.0
C1272 C 0.48108 0.34186 0.9559 0.0
C1273 C 0.53033 0.3475 0.91876 0.0
C1274 C 0.50981 0.34855 0.92124 0.0
C1275 C 0.44994 0.349 0.92547 0.0
C1276 C 0.4706 0.34958 0.92471 0.0
H1277 H 0.56705 0.37983 0.89011 0.0
H1278 H 0.53332 0.38188 0.89671 0.0
H1279 H 0.50827 0.33519 0.97845 0.0
H1280 H 0.4143 0.31431 0.95271 0.0
H1281 H 0.44808 0.31681 0.95591 0.0
C1282 C 0.06253 0.65884 0.39942 0.0
C1283 C 0.07218 0.67693 0.41666 0.0
C1284 C 0.04313 0.65802 0.40062 0.0
C1285 C 0.00194 0.68246 0.44954 0.0
H1286 H 0.97647 0.66316 0.35802 0.0
C1287 C 0.92314 0.6957 0.42208 0.0
C1288 C 0.9135 0.67654 0.40823 0.0
C1289 C 0.94254 0.69533 0.42502 0.0
C1290 C 0.98342 0.66842 0.38384 0.0
H1291 H 0.06913 0.70817 0.44921 0.0
H1292 H 0.03525 0.70712 0.45027 0.0
H1293 H 0.01036 0.66313 0.35984 0.0
H1294 H 0.91659 0.64191 0.38693 0.0
H1295 H 0.95043 0.64148 0.39166 0.0
H1296 H 0.97481 0.68829 0.47299 0.0
C1297 C 0.04265 0.6933 0.43652 0.0
C1298 C 0.00282 0.6683 0.385 0.0
C1299 C 0.06208 0.69398 0.43571 0.0
C1300 C 0.9236 0.65698 0.39761 0.0
C1301 C 0.94296 0.65673 0.40017 0.0
C1302 C 0.98251 0.68281 0.4482 0.0
C1303 C 0.03296 0.67541 0.41869 0.0
C1304 C 0.01231 0.67527 0.41788 0.0
C1305 C 0.95259 0.6759 0.41377 0.0
C1306 C 0.97312 0.67573 0.41537 0.0
H1307 H 0.06997 0.64529 0.38499 0.0
H1308 H 0.03611 0.64374 0.38733 0.0
H1309 H 0.00882 0.68762 0.47548 0.0
H1310 H 0.91572 0.71094 0.43071 0.0
H1311 H 0.94971 0.71037 0.43541 0.0
C1312 C 0.12276 0.09731 0.02033 0.0
C1313 C 0.12323 0.1018 0.05945 0.0
C1314 C 0.12034 0.07503 1.00694 0.0
C1315 C 0.1069 0.01585 0.03642 0.0
H1316 H 0.1366 0.99896 0.949 0.0
C1317 C 0.12311 0.92222 0.99333 0.0
C1318 C 0.12272 0.91685 0.95446 0.0
C1319 C 0.12077 0.94478 1.00556 0.0
C1320 C 0.12802 1.00346 0.97313 0.0
H1321 H 0.121 0.08642 0.11522 0.0
H1322 H 0.11732 0.04747 0.09196 0.0
H1323 H 0.13708 0.03821 0.97151 0.0
H1324 H 0.1189 0.93098 0.89808 0.0
H1325 H 0.11498 0.97036 0.91949 0.0
H1326 H 0.09843 0.98069 0.03859 0.0
C1327 C 0.11844 0.0612 0.07149 0.0
C1328 C 0.12824 0.02603 0.98604 0.0
C1329 C 0.12063 0.08356 0.08489 0.0
C1330 C 0.11933 0.93449 0.92821 0.0
C1331 C 0.11719 0.95708 0.94044 0.0
C1332 C 0.10685 0.99317 0.0237 0.0
C1333 C 0.11856 0.05657 0.0323 0.0
C1334 C 0.11772 0.03257 0.01794 0.0
C1335 C 0.11815 0.96252 0.97921 0.0
C1336 C 0.11745 0.98673 0.99196 0.0
H1337 H 0.12449 0.11102 0.99995 0.0
H1338 H 0.12003 0.07229 0.97659 0.0
H1339 H 0.09839 0.02025 0.06069 0.0
H1340 H 0.12561 0.90905 0.01433 0.0
H1341 H 0.1217 0.94845 0.0356 0.0
C1342 C 0.34718 0.92331 0.52487 0.0
C1343 C 0.35791 0.91528 0.55549 0.0
C1344 C 0.34918 0.94566 0.51165 0.0
C1345 C 0.37926 0.99697 0.51162 0.0
H1346 H 0.33227 0.02821 0.4955 0.0
C1347 C 0.34712 0.09357 0.48859 0.0
C1348 C 0.35792 0.10202 0.45837 0.0
C1349 C 0.34908 0.07107 0.501 0.0
C1350 C 0.34553 0.01982 0.50004 0.0
H1351 H 0.37989 0.92429 0.59493 0.0
H1352 H 0.3833 0.96361 0.57179 0.0
H1353 H 0.33228 0.98844 0.51527 0.0
H1354 H 0.37997 0.09355 0.41876 0.0
H1355 H 0.38334 0.05391 0.44055 0.0
H1356 H 0.39242 0.02874 0.49657 0.0
C1357 C 0.37336 0.95243 0.55807 0.0
C1358 C 0.34554 0.99691 0.51099 0.0
C1359 C 0.37134 0.92993 0.57141 0.0
C1360 C 0.37137 0.08758 0.44198 0.0
C1361 C 0.37335 0.06491 0.45454 0.0
C1362 C 0.37924 0.02001 0.50032 0.0
C1363 C 0.36195 0.96068 0.52862 0.0
C1364 C 0.36237 0.98516 0.51692 0.0
C1365 C 0.3619 0.05628 0.48362 0.0
C1366 C 0.36234 0.03171 0.49468 0.0
H1367 H 0.33688 0.91247 0.51145 0.0
H1368 H 0.34046 0.9513 0.48838 0.0
H1369 H 0.39245 0.98835 0.5158 0.0
H1370 H 0.33681 0.10423 0.50236 0.0
H1371 H 0.34032 0.06512 0.52401 0.0
C1372 C 0.86611 0.08336 0.09419 0.0
C1373 C 0.86279 0.10148 0.06882 0.0
C1374 C 0.86805 0.06093 0.08089 0.0
C1375 C 0.87786 0.02626 0.9954 0.0
H1376 H 0.84848 0.98003 0.04669 0.0
C1377 C 0.86414 0.93685 0.93007 0.0
C1378 C 0.86201 0.91804 0.95455 0.0
C1379 C 0.8662 0.959 0.94461 0.0
C1380 C 0.85708 0.99254 0.03234 0.0
H1381 H 0.85974 0.11025 0.00935 0.0
H1382 H 0.86329 0.0712 0.98625 0.0
H1383 H 0.849 0.01888 0.07112 0.0
H1384 H 0.86132 0.9077 0.01359 0.0
H1385 H 0.86549 0.94605 0.03887 0.0
H1386 H 0.88602 0.99994 0.95666 0.0
C1387 C 0.86434 0.07434 0.01643 0.0
C1388 C 0.85732 0.0149 0.04638 0.0
C1389 C 0.86221 0.09672 0.02973 0.0
C1390 C 0.86272 0.92182 0.99389 0.0
C1391 C 0.86498 0.9439 1.00841 0.0
C1392 C 0.87777 1.00382 0.98152 0.0
C1393 C 0.86694 0.05611 0.04189 0.0
C1394 C 0.86759 0.03208 0.02793 0.0
C1395 C 0.86637 0.96289 0.98402 0.0
C1396 C 0.86724 0.98665 0.99962 0.0
H1397 H 0.86666 0.08637 0.12446 0.0
H1398 H 0.87025 0.04731 0.10121 0.0
H1399 H 0.88607 0.03905 0.98075 0.0
H1400 H 0.86357 0.9346 0.89962 0.0
H1401 H 0.86701 0.97313 0.92483 0.0
C1402 C 0.61281 0.08546 0.43247 0.0
C1403 C 0.62152 0.10203 0.45526 0.0
C1404 C 0.61039 0.06306 0.44584 0.0
C1405 C 0.60765 0.02785 0.53212 0.0
H1406 H 0.62842 0.9794 0.47039 0.0
C1407 C 0.62143 0.93757 0.59313 0.0
C1408 C 0.62098 0.91858 0.56879 0.0
C1409 C 0.61929 0.95976 0.57881 0.0
C1410 C 0.62215 0.99253 0.4878 0.0
H1411 H 0.63372 0.10834 0.51051 0.0
H1412 H 0.629 0.06951 0.53409 0.0
H1413 H 0.62783 0.01837 0.44618 0.0
H1414 H 0.61702 0.90795 0.51053 0.0
H1415 H 0.6124 0.94641 0.48577 0.0
H1416 H 0.60164 1.00218 0.57354 0.0
C1417 C 0.62425 0.07375 0.50579 0.0
C1418 C 0.6219 0.01495 0.47386 0.0
C1419 C 0.62702 0.09596 0.4922 0.0
C1420 C 0.61762 0.92224 0.53 0.0
C1421 C 0.61514 0.94439 0.51576 0.0
C1422 C 0.60758 1.00537 0.54583 0.0
C1423 C 0.61623 0.05694 0.48254 0.0
C1424 C 0.61492 0.0329 0.49608 0.0
C1425 C 0.61629 0.96356 0.5398 0.0
C1426 C 0.61512 0.98737 0.52416 0.0
H1427 H 0.6085 0.08957 0.40383 0.0
H1428 H 0.60409 0.05045 0.42738 0.0
H1429 H 0.60203 0.04134 0.54974 0.0
H1430 H 0.62414 0.93538 0.62313 0.0
H1431 H 0.6206 0.97393 0.59832 0.0
C1432 C 0.62123 0.58243 0.09294 0.0
C1433 C 0.62291 0.60124 0.06831 0.0
C1434 C 0.61956 0.5602 0.07857 0.0
C1435 C 0.62905 0.52668 0.99104 0.0
H1436 H 0.60032 0.47983 0.04237 0.0
C1437 C 0.62023 0.43601 0.92844 0.0
C1438 C 0.62322 0.41773 0.95366 0.0
C1439 C 0.61848 0.45841 0.94196 0.0
C1440 C 0.60848 0.49271 0.02782 0.0
H1441 H 0.62322 0.61145 0.00918 0.0
H1442 H 0.61978 0.57293 0.98421 0.0
H1443 H 0.60011 0.5189 0.06662 0.0
H1444 H 0.62599 0.40868 0.01308 0.0
H1445 H 0.62282 0.44769 0.03655 0.0
H1446 H 0.63735 0.50049 0.9522 0.0
C1447 C 0.62033 0.57518 0.01465 0.0
C1448 C 0.60841 0.51513 0.04178 0.0
C1449 C 0.62217 0.59735 0.029 0.0
C1450 C 0.62377 0.42233 0.99281 0.0
C1451 C 0.62185 0.4447 1.00632 0.0
C1452 C 0.62899 0.50434 0.97695 0.0
C1453 C 0.61935 0.55622 0.03918 0.0
C1454 C 0.61879 0.53243 0.02371 0.0
C1455 C 0.61947 0.46306 0.98103 0.0
C1456 C 0.6188 0.48703 0.99527 0.0
H1457 H 0.62182 0.58478 0.12337 0.0
H1458 H 0.61905 0.54609 0.09842 0.0
H1459 H 0.63754 0.53932 0.97674 0.0
H1460 H 0.61969 0.43313 0.89814 0.0
H1461 H 0.61643 0.47214 0.92175 0.0
C1462 C 0.86393 0.58329 0.43052 0.0
C1463 C 0.86159 0.60204 0.45497 0.0
C1464 C 0.86605 0.56116 0.4451 0.0
C1465 C 0.85652 0.5274 0.53237 0.0
H1466 H 0.8866 0.48145 0.4822 0.0
C1467 C 0.86524 0.4366 0.59443 0.0
C1468 C 0.86249 0.41853 0.56877 0.0
C1469 C 0.8673 0.45908 0.58135 0.0
C1470 C 0.87808 0.49409 0.49644 0.0
H1471 H 0.86058 0.6123 0.51401 0.0
H1472 H 0.86479 0.57395 0.53936 0.0
H1473 H 0.88639 0.5206 0.45806 0.0
H1474 H 0.86063 0.40987 0.50908 0.0
H1475 H 0.86433 0.44899 0.48638 0.0
H1476 H 0.84824 0.50089 0.57072 0.0
C1477 C 0.86442 0.57616 0.50888 0.0
C1478 C 0.8779 0.51653 0.48254 0.0
C1479 C 0.86214 0.59823 0.49432 0.0
C1480 C 0.86264 0.42336 0.52968 0.0
C1481 C 0.86487 0.4458 0.51661 0.0
C1482 C 0.85682 0.50504 0.54641 0.0
C1483 C 0.86605 0.55723 0.48451 0.0
C1484 C 0.867 0.53348 0.50014 0.0
C1485 C 0.86686 0.46399 0.54231 0.0
C1486 C 0.86748 0.48805 0.52846 0.0
H1487 H 0.86352 0.58558 0.40006 0.0
H1488 H 0.86706 0.54705 0.42537 0.0
H1489 H 0.84764 0.53977 0.54629 0.0
H1490 H 0.86523 0.43353 0.62472 0.0
H1491 H 0.86904 0.47267 0.60186 0.0
C1492 C 0.36849 0.42984 0.94485 0.0
C1493 C 0.35481 0.41495 0.95935 0.0
C1494 C 0.36992 0.45233 0.95823 0.0
C1495 C 0.37497 0.49659 1.00383 0.0
H1496 H 0.3281 0.5281 0.01962 0.0
C1497 C 0.36901 0.58706 0.07212 0.0
C1498 C 0.35539 0.60184 0.05717 0.0
C1499 C 0.3703 0.56438 0.05955 0.0
C1500 C 0.34133 0.51965 0.01508 0.0
H1501 H 0.33254 0.41185 1.00069 0.0
H1502 H 0.3352 0.45077 0.02414 0.0
H1503 H 0.32798 0.48833 0.99988 0.0
H1504 H 0.33306 0.60454 0.01588 0.0
H1505 H 0.33546 0.56533 0.99387 0.0
H1506 H 0.38827 0.52824 0.01847 0.0
C1507 C 0.34456 0.44526 1.00187 0.0
C1508 C 0.34127 0.49671 1.00424 0.0
C1509 C 0.34311 0.42285 0.98853 0.0
C1510 C 0.34359 0.59363 0.0284 0.0
C1511 C 0.34489 0.57105 0.01588 0.0
C1512 C 0.37504 0.51963 0.01483 0.0
C1513 C 0.35773 0.46043 0.9864 0.0
C1514 C 0.35806 0.48485 0.99846 0.0
C1515 C 0.358 0.55599 0.03178 0.0
C1516 C 0.3582 0.53146 0.02039 0.0
H1517 H 0.37776 0.42436 0.92241 0.0
H1518 H 0.38015 0.46359 0.94553 0.0
H1519 H 0.38816 0.48794 0.99987 0.0
H1520 H 0.37835 0.59279 0.09427 0.0
H1521 H 0.38051 0.55321 0.07251 0.0
C1522 C 0.11039 0.58799 0.44387 0.0
C1523 C 0.12409 0.60219 0.46003 0.0
C1524 C 0.10822 0.56533 0.45637 0.0
C1525 C 0.10218 0.52022 0.50148 0.0
H1526 H 0.14897 0.48814 0.51523 0.0
C1527 C 0.10976 0.42945 0.57036 0.0
C1528 C 0.12314 0.41487 0.55405 0.0
C1529 C 0.10778 0.45205 0.55749 0.0
C1530 C 0.13575 0.49675 0.51129 0.0
H1531 H 0.1454 0.60402 0.50365 0.0
H1532 H 0.14154 0.56493 0.52525 0.0
H1533 H 0.1492 0.52806 0.49638 0.0
H1534 H 0.14404 0.41229 0.50974 0.0
H1535 H 0.14051 0.45131 0.48745 0.0
H1536 H 0.08881 0.48855 0.51632 0.0
C1537 C 0.13274 0.57105 0.50244 0.0
C1538 C 0.13589 0.51975 0.50088 0.0
C1539 C 0.1349 0.59355 0.49007 0.0
C1540 C 0.13379 0.42307 0.52344 0.0
C1541 C 0.13183 0.44552 0.51068 0.0
C1542 C 0.10205 0.4971 0.51223 0.0
C1543 C 0.11972 0.55647 0.48518 0.0
C1544 C 0.11914 0.53184 0.49593 0.0
C1545 C 0.11916 0.46049 0.52812 0.0
C1546 C 0.11887 0.48508 0.51707 0.0
H1547 H 0.10179 0.5941 0.42078 0.0
H1548 H 0.09807 0.5545 0.44247 0.0
H1549 H 0.08905 0.5291 0.49803 0.0
H1550 H 0.10128 0.42368 0.5939 0.0
H1551 H 0.09791 0.46318 0.57156 0.0
C1552 C 0.18178 0.23446 0.04029 0.0
C1553 C 0.18308 0.2155 0.06459 0.0
C1554 C 0.19757 0.24245 0.02131 0.0
C1555 C 0.24906 0.23876 0.0187 0.0
H1556 H 0.24199 0.25439 0.91272 0.0
C1557 C 0.31096 0.26643 0.93065 0.0
C1558 C 0.30817 0.28899 0.91858 0.0
C1559 C 0.29564 0.25293 0.94047 0.0
C1560 C 0.24414 0.24982 0.94217 0.0
H1561 H 0.20213 0.19132 0.09068 0.0
H1562 H 0.22949 0.20504 0.05737 0.0
H1563 H 0.2153 0.24235 0.95083 0.0
H1564 H 0.28775 0.31455 0.9032 0.0
H1565 H 0.26099 0.29087 0.91939 0.0
H1566 H 0.27784 0.24645 0.01015 0.0
C1567 C 0.21638 0.21378 0.05283 0.0
C1568 C 0.22887 0.24326 0.96413 0.0
C1569 C 0.20067 0.20589 0.07191 0.0
C1570 C 0.29007 0.29707 0.9123 0.0
C1571 C 0.2748 0.28351 0.9215 0.0
C1572 C 0.26432 0.24509 0.99668 0.0
C1573 C 0.21488 0.23161 0.02634 0.0
C1574 C 0.23113 0.23809 1.00282 0.0
C1575 C 0.2775 0.26187 0.93781 0.0
C1576 C 0.26195 0.25106 0.95842 0.0
H1577 H 0.16844 0.24225 0.03409 0.0
H1578 H 0.19609 0.25664 1.00179 0.0
H1579 H 0.25125 0.23509 0.04847 0.0
H1580 H 0.32488 0.26007 0.93605 0.0
H1581 H 0.29801 0.23621 0.95279 0.0
C1582 C 0.30755 0.77108 0.56152 0.0
C1583 C 0.30658 0.7916 0.5818 0.0
C1584 C 0.29122 0.76098 0.54798 0.0
C1585 C 0.24605 0.78107 0.51529 0.0
H1586 H 0.23509 0.7168 0.50139 0.0
C1587 C 0.1768 0.74529 0.45677 0.0
C1588 C 0.17774 0.72468 0.43675 0.0
C1589 C 0.1931 0.75519 0.47083 0.0
C1590 C 0.23816 0.73483 0.50452 0.0
H1591 H 0.2883 0.81668 0.60714 0.0
H1592 H 0.2597 0.79862 0.58481 0.0
H1593 H 0.26162 0.72804 0.54029 0.0
H1594 H 0.19598 0.6992 0.41239 0.0
H1595 H 0.22457 0.71697 0.43546 0.0
H1596 H 0.22263 0.78787 0.47944 0.0
C1597 C 0.27293 0.79054 0.57858 0.0
C1598 C 0.25323 0.74122 0.52706 0.0
C1599 C 0.28921 0.80067 0.59183 0.0
C1600 C 0.1951 0.71528 0.42753 0.0
C1601 C 0.21136 0.72524 0.44122 0.0
C1602 C 0.23099 0.77469 0.49272 0.0
C1603 C 0.27386 0.77142 0.55465 0.0
C1604 C 0.25729 0.76439 0.53273 0.0
C1605 C 0.21042 0.74449 0.46487 0.0
C1606 C 0.22693 0.75151 0.48703 0.0
H1607 H 0.3209 0.76418 0.55289 0.0
H1608 H 0.29234 0.74626 0.52953 0.0
H1609 H 0.24912 0.7991 0.51843 0.0
H1610 H 0.16344 0.75244 0.46477 0.0
H1611 H 0.19196 0.77002 0.48903 0.0
C1612 C 0.18078 0.78302 0.97481 0.0
C1613 C 0.18203 0.80219 0.95099 0.0
C1614 C 0.19671 0.77454 0.99264 0.0
C1615 C 0.24828 0.77754 0.99262 0.0
H1616 H 0.24244 0.76192 0.09892 0.0
C1617 C 0.3112 0.75074 0.07839 0.0
C1618 C 0.30873 0.72812 0.0904 0.0
C1619 C 0.29567 0.76397 0.06903 0.0
C1620 C 0.24424 0.76649 0.06937 0.0
H1621 H 0.20104 0.82622 0.92434 0.0
H1622 H 0.22864 0.81168 0.95568 0.0
H1623 H 0.21531 0.77398 0.06215 0.0
H1624 H 0.2887 0.70214 0.10615 0.0
H1625 H 0.26157 0.72537 0.09073 0.0
H1626 H 0.27715 0.7699 0.99979 0.0
C1627 C 0.21548 0.80313 0.96075 0.0
C1628 C 0.22872 0.77304 0.04818 0.0
C1629 C 0.19963 0.81151 0.94284 0.0
C1630 C 0.29076 0.71966 0.09699 0.0
C1631 C 0.27529 0.73296 0.08828 0.0
C1632 C 0.26378 0.77124 0.01388 0.0
C1633 C 0.21409 0.7851 0.98686 0.0
C1634 C 0.23055 0.77826 0.00941 0.0
C1635 C 0.27766 0.7547 0.07216 0.0
C1636 C 0.26185 0.76533 0.05226 0.0
H1637 H 0.16741 0.77546 0.98156 0.0
H1638 H 0.19532 0.76021 0.0119 0.0
H1639 H 0.25012 0.78123 0.96276 0.0
H1640 H 0.32503 0.75739 0.07288 0.0
H1641 H 0.29776 0.78077 0.0568 0.0
C1642 C 0.28996 0.21835 0.43089 0.0
C1643 C 0.30748 0.22679 0.44139 0.0
C1644 C 0.27383 0.22832 0.44522 0.0
C1645 C 0.25461 0.27685 0.49918 0.0
H1646 H 0.22246 0.23005 0.54196 0.0
C1647 C 0.19371 0.30226 0.59282 0.0
C1648 C 0.17664 0.29276 0.58179 0.0
C1649 C 0.21037 0.29254 0.5806 0.0
C1650 C 0.23125 0.2433 0.53006 0.0
H1651 H 0.32219 0.2529 0.47272 0.0
H1652 H 0.29387 0.27064 0.49783 0.0
H1653 H 0.24956 0.21896 0.50466 0.0
H1654 H 0.16322 0.26515 0.55165 0.0
H1655 H 0.19238 0.24799 0.52998 0.0
H1656 H 0.23621 0.30121 0.52424 0.0
C1657 C 0.29255 0.25651 0.47821 0.0
C1658 C 0.24668 0.23698 0.50848 0.0
C1659 C 0.30873 0.24654 0.46364 0.0
C1660 C 0.17633 0.27235 0.56113 0.0
C1661 C 0.19302 0.26269 0.54857 0.0
C1662 C 0.23914 0.28318 0.52067 0.0
C1663 C 0.27504 0.2467 0.47068 0.0
C1664 C 0.25844 0.2537 0.4926 0.0
C1665 C 0.21013 0.2734 0.55659 0.0
C1666 C 0.22726 0.26646 0.53626 0.0
H1667 H 0.28881 0.20289 0.41413 0.0
H1668 H 0.26049 0.22074 0.43833 0.0
H1669 H 0.2634 0.29006 0.48718 0.0
H1670 H 0.19413 0.31823 0.60838 0.0
H1671 H 0.22336 0.30086 0.58792 0.0
C1672 C 0.80523 0.7812 0.96093 0.0
C1673 C 0.80346 0.80206 0.94153 0.0
C1674 C 0.78951 0.77043 0.97582 0.0
C1675 C 0.73818 0.76905 0.97367 0.0
H1676 H 0.74334 0.75196 0.07949 0.0
C1677 C 0.67493 0.74125 0.0612 0.0
C1678 C 0.6774 0.72041 0.08033 0.0
C1679 C 0.69032 0.75305 0.04693 0.0
C1680 C 0.74173 0.75657 0.04993 0.0
H1681 H 0.7838 0.82696 0.91954 0.0
H1682 H 0.75641 0.80812 0.94551 0.0
H1683 H 0.77031 0.76637 0.04485 0.0
H1684 H 0.69787 0.6966 0.10256 0.0
H1685 H 0.72463 0.71711 0.07759 0.0
H1686 H 0.70963 0.75911 0.97866 0.0
C1687 C 0.7699 0.80017 0.94942 0.0
C1688 C 0.75716 0.76465 0.03004 0.0
C1689 C 0.7856 0.81099 0.9347 0.0
C1690 C 0.69554 0.71252 0.08757 0.0
C1691 C 0.71088 0.72433 0.07344 0.0
C1692 C 0.72274 0.76093 0.99355 0.0
C1693 C 0.77179 0.78025 0.97128 0.0
C1694 C 0.75555 0.77086 0.99169 0.0
C1695 C 0.70837 0.74425 0.05184 0.0
C1696 C 0.72439 0.75454 0.03182 0.0
H1697 H 0.81882 0.77387 0.96653 0.0
H1698 H 0.79127 0.75482 0.992 0.0
H1699 H 0.73659 0.77362 0.94408 0.0
H1700 H 0.66111 0.74779 0.05532 0.0
H1701 H 0.68805 0.76861 0.03092 0.0
C1702 C 0.80372 0.28324 0.55337 0.0
C1703 C 0.80223 0.30421 0.57247 0.0
C1704 C 0.78805 0.27351 0.53625 0.0
C1705 C 0.73643 0.27705 0.5315 0.0
H1706 H 0.74387 0.25205 0.4308 0.0
C1707 C 0.67452 0.24741 0.44243 0.0
C1708 C 0.6762 0.22419 0.43344 0.0
C1709 C 0.69028 0.25979 0.45351 0.0
C1710 C 0.74163 0.25913 0.4588 0.0
H1711 H 0.78297 0.33051 0.59116 0.0
H1712 H 0.7559 0.31383 0.56095 0.0
H1713 H 0.77057 0.26642 0.46649 0.0
H1714 H 0.69535 0.19603 0.42547 0.0
H1715 H 0.72291 0.21772 0.44376 0.0
H1716 H 0.7075 0.26977 0.5237 0.0
C1717 C 0.76903 0.30478 0.55916 0.0
C1718 C 0.7569 0.26708 0.47944 0.0
C1719 C 0.78461 0.31441 0.57637 0.0
C1720 C 0.69387 0.214 0.43226 0.0
C1721 C 0.70959 0.22641 0.44262 0.0
C1722 C 0.72117 0.26934 0.51071 0.0
C1723 C 0.77067 0.28459 0.53795 0.0
C1724 C 0.75449 0.27589 0.5162 0.0
C1725 C 0.70781 0.24908 0.45501 0.0
C1726 C 0.72366 0.2601 0.47436 0.0
H1727 H 0.8171 0.27495 0.54996 0.0
H1728 H 0.78966 0.25763 0.52084 0.0
H1729 H 0.73411 0.28348 0.55989 0.0
H1730 H 0.66094 0.25544 0.44381 0.0
H1731 H 0.68863 0.27732 0.46277 0.0
C1732 C 0.67417 0.27699 0.96202 0.0
C1733 C 0.67674 0.29771 0.94256 0.0
C1734 C 0.68952 0.26497 0.97589 0.0
C1735 C 0.74089 0.26068 0.97128 0.0
H1736 H 0.73646 0.24442 0.0776 0.0
C1737 C 0.80501 0.23756 0.05936 0.0
C1738 C 0.80355 0.21689 0.07943 0.0
C1739 C 0.78911 0.2479 0.04445 0.0
C1740 C 0.73784 0.24875 0.04786 0.0
H1741 H 0.69731 0.32107 0.91938 0.0
H1742 H 0.72401 0.3002 0.94367 0.0
H1743 H 0.70929 0.25879 0.04353 0.0
H1744 H 0.78425 0.19192 0.10257 0.0
H1745 H 0.75653 0.21004 0.07658 0.0
H1746 H 0.76949 0.25087 0.97573 0.0
C1747 C 0.71021 0.29322 0.94836 0.0
C1748 C 0.72229 0.25679 0.02828 0.0
C1749 C 0.69491 0.30525 0.93463 0.0
C1750 C 0.78581 0.20775 0.08689 0.0
C1751 C 0.76993 0.21815 0.07214 0.0
C1752 C 0.75644 0.2527 0.99087 0.0
C1753 C 0.70764 0.27342 0.97025 0.0
C1754 C 0.7237 0.26297 0.98987 0.0
C1755 C 0.77152 0.23785 0.04965 0.0
C1756 C 0.75508 0.24683 0.0294 0.0
H1757 H 0.66032 0.27071 0.96843 0.0
H1758 H 0.6872 0.24951 0.99215 0.0
H1759 H 0.74232 0.26511 0.94159 0.0
H1760 H 0.81849 0.24505 0.05327 0.0
H1761 H 0.79064 0.26336 0.02779 0.0
C1762 C 0.78703 0.71139 0.43471 0.0
C1763 C 0.80506 0.71973 0.44179 0.0
C1764 C 0.77152 0.72286 0.44877 0.0
C1765 C 0.7591 0.75948 0.52817 0.0
H1766 H 0.71167 0.76459 0.47625 0.0
C1767 C 0.69654 0.81031 0.58551 0.0
C1768 C 0.67859 0.80167 0.57865 0.0
C1769 C 0.71214 0.79918 0.57105 0.0
C1770 C 0.72477 0.76294 0.49126 0.0
H1771 H 0.82094 0.74753 0.46654 0.0
H1772 H 0.7937 0.76774 0.49084 0.0
H1773 H 0.73873 0.74998 0.4422 0.0
H1774 H 0.66294 0.77372 0.55377 0.0
H1775 H 0.69031 0.7541 0.52876 0.0
H1776 H 0.74513 0.77241 0.57725 0.0
C1777 C 0.79166 0.75209 0.47499 0.0
C1778 C 0.74026 0.75475 0.4717 0.0
C1779 C 0.80722 0.74065 0.46077 0.0
C1780 C 0.6766 0.78082 0.5594 0.0
C1781 C 0.69223 0.76972 0.54477 0.0
C1782 C 0.74361 0.76767 0.54773 0.0
C1783 C 0.77374 0.74288 0.47018 0.0
C1784 C 0.75757 0.75292 0.48999 0.0
C1785 C 0.71007 0.77922 0.54944 0.0
C1786 C 0.72629 0.76944 0.52947 0.0
H1787 H 0.78494 0.69539 0.41984 0.0
H1788 H 0.75788 0.71532 0.4447 0.0
H1789 H 0.77219 0.75779 0.54321 0.0
H1790 H 0.69851 0.82627 0.60055 0.0
H1791 H 0.72571 0.80692 0.57502 0.0
loop_
_geom_bond_atom_site_label_1
_geom_bond_atom_site_label_2
_geom_bond_distance
_geom_bond_site_symmetry_2
_ccdc_geom_bond_type
Fe0 O2 1.918 . S
Fe0 O5 1.997 . S
Fe0 O6 2.002 . S
Fe0 O11 1.976 . S
Fe0 O14 1.996 . S
Fe1 O2 1.918 . S
Fe1 O9 1.997 . S
Fe1 O12 1.996 . S
Fe1 O16 1.976 . S
Fe1 O19 2.002 . S
O2 Fe0 1.918 . S
O2 Fe1 1.918 . S
O2 Fe3 1.918 . S
Fe3 O2 1.918 . S
Fe3 O4 2.002 . S
Fe3 O13 1.976 1_554 S
Fe3 O17 1.996 . S
Fe3 O20 1.997 . S
O4 Fe3 2.002 . S
O4 C21 1.295 . S
O5 Fe0 1.997 . S
O5 C21 1.235 . S
O6 Fe0 2.002 . S
O6 C7 1.295 . S
C7 O6 1.295 . S
C7 O9 1.235 . S
C8 O13 1.287 . S
C8 O14 1.255 1_556 S
O9 Fe1 1.997 . S
O9 C7 1.235 . S
C10 O16 1.287 . S
C10 O17 1.255 . S
O11 Fe0 1.976 . S
O11 C18 1.287 . S
O12 Fe1 1.996 . S
O12 C18 1.255 . S
O13 Fe3 1.976 1_556 S
O13 C8 1.287 . S
O14 Fe0 1.996 . S
O14 C8 1.255 1_554 S
C15 O19 1.295 . S
C15 O20 1.235 . S
O16 Fe1 1.976 . S
O16 C10 1.287 . S
O17 Fe3 1.996 . S
O17 C10 1.255 . S
C18 O11 1.287 . S
C18 O12 1.255 . S
O19 Fe1 2.002 . S
O19 C15 1.295 . S
O20 Fe3 1.997 . S
O20 C15 1.235 . S
C21 O4 1.295 . S
C21 O5 1.235 . S
Fe22 O24 1.918 . S
Fe22 O27 1.997 . S
Fe22 O28 2.002 . S
Fe22 O33 1.976 . S
Fe22 O36 1.996 . S
Fe23 O24 1.918 . S
Fe23 O31 1.997 . S
Fe23 O34 1.996 . S
Fe23 O38 1.976 . S
Fe23 O41 2.002 . S
O24 Fe22 1.918 . S
O24 Fe23 1.918 . S
O24 Fe25 1.918 . S
Fe25 O24 1.918 . S
Fe25 O26 2.002 . S
Fe25 O35 1.976 . S
Fe25 O39 1.996 . S
Fe25 O42 1.997 . S
O26 Fe25 2.002 . S
O26 C43 1.295 . S
O27 Fe22 1.997 . S
O27 C43 1.235 . S
O28 Fe22 2.002 . S
O28 C29 1.295 . S
C29 O28 1.295 . S
C29 O31 1.235 . S
C30 O35 1.287 . S
C30 O36 1.255 . S
O31 Fe23 1.997 . S
O31 C29 1.235 . S
C32 O38 1.287 . S
C32 O39 1.255 . S
O33 Fe22 1.976 . S
O33 C40 1.287 . S
O34 Fe23 1.996 . S
O34 C40 1.255 . S
O35 Fe25 1.976 . S
O35 C30 1.287 . S
O36 Fe22 1.996 . S
O36 C30 1.255 . S
C37 O41 1.295 . S
C37 O42 1.235 . S
O38 Fe23 1.976 . S
O38 C32 1.287 . S
O39 Fe25 1.996 . S
O39 C32 1.255 . S
C40 O33 1.287 . S
C40 O34 1.255 . S
O41 Fe23 2.002 . S
O41 C37 1.295 . S
O42 Fe25 1.997 . S
O42 C37 1.235 . S
C43 O26 1.295 . S
C43 O27 1.235 . S
Fe44 O46 1.918 . S
Fe44 O49 1.997 . S
Fe44 O50 2.002 . S
Fe44 O55 1.976 . S
Fe44 O58 1.996 . S
Fe45 O46 1.918 . S
Fe45 O53 1.997 . S
Fe45 O56 1.996 . S
Fe45 O60 1.976 . S
Fe45 O63 2.002 . S
O46 Fe44 1.918 . S
O46 Fe45 1.918 . S
O46 Fe47 1.918 . S
Fe47 O46 1.918 . S
Fe47 O48 2.002 . S
Fe47 O57 1.976 1_556 S
Fe47 O61 1.996 . S
Fe47 O64 1.997 . S
O48 Fe47 2.002 . S
O48 C65 1.295 . S
O49 Fe44 1.997 . S
O49 C65 1.235 . S
O50 Fe44 2.002 . S
O50 C51 1.295 . S
C51 O50 1.295 . S
C51 O53 1.235 . S
C52 O57 1.287 . S
C52 O58 1.255 1_554 S
O53 Fe45 1.997 . S
O53 C51 1.235 . S
C54 O60 1.287 . S
C54 O61 1.255 . S
O55 Fe44 1.976 . S
O55 C62 1.287 . S
O56 Fe45 1.996 . S
O56 C62 1.255 . S
O57 Fe47 1.976 1_554 S
O57 C52 1.287 . S
O58 Fe44 1.996 . S
O58 C52 1.255 1_556 S
C59 O63 1.295 . S
C59 O64 1.235 . S
O60 Fe45 1.976 . S
O60 C54 1.287 . S
O61 Fe47 1.996 . S
O61 C54 1.255 . S
C62 O55 1.287 . S
C62 O56 1.255 . S
O63 Fe45 2.002 . S
O63 C59 1.295 . S
O64 Fe47 1.997 . S
O64 C59 1.235 . S
C65 O48 1.295 . S
C65 O49 1.235 . S
Fe66 O68 1.918 . S
Fe66 O71 1.997 . S
Fe66 O72 2.002 . S
Fe66 O77 1.976 . S
Fe66 O80 1.996 . S
Fe67 O68 1.918 . S
Fe67 O75 1.997 . S
Fe67 O78 1.996 . S
Fe67 O82 1.976 . S
Fe67 O85 2.002 . S
O68 Fe66 1.918 . S
O68 Fe67 1.918 . S
O68 Fe69 1.918 . S
Fe69 O68 1.918 . S
Fe69 O70 2.002 . S
Fe69 O79 1.976 . S
Fe69 O83 1.996 . S
Fe69 O86 1.997 . S
O70 Fe69 2.002 . S
O70 C87 1.295 . S
O71 Fe66 1.997 . S
O71 C87 1.235 . S
O72 Fe66 2.002 . S
O72 C73 1.295 . S
C73 O72 1.295 . S
C73 O75 1.235 . S
C74 O79 1.287 . S
C74 O80 1.255 . S
O75 Fe67 1.997 . S
O75 C73 1.235 . S
C76 O82 1.287 . S
C76 O83 1.255 . S
O77 Fe66 1.976 . S
O77 C84 1.287 . S
O78 Fe67 1.996 . S
O78 C84 1.255 . S
O79 Fe69 1.976 . S
O79 C74 1.287 . S
O80 Fe66 1.996 . S
O80 C74 1.255 . S
C81 O85 1.295 . S
C81 O86 1.235 . S
O82 Fe67 1.976 . S
O82 C76 1.287 . S
O83 Fe69 1.996 . S
O83 C76 1.255 . S
C84 O77 1.287 . S
C84 O78 1.255 . S
O85 Fe67 2.002 . S
O85 C81 1.295 . S
O86 Fe69 1.997 . S
O86 C81 1.235 . S
C87 O70 1.295 . S
C87 O71 1.235 . S
Fe88 O90 1.918 . S
Fe88 O93 1.997 . S
Fe88 O94 2.002 . S
Fe88 O99 1.976 . S
Fe88 O102 1.996 . S
Fe89 O90 1.918 . S
Fe89 O97 1.997 . S
Fe89 O100 1.996 . S
Fe89 O104 1.976 . S
Fe89 O107 2.002 . S
O90 Fe88 1.918 . S
O90 Fe89 1.918 . S
O90 Fe91 1.918 . S
Fe91 O90 1.918 . S
Fe91 O92 2.002 . S
Fe91 O101 1.976 . S
Fe91 O105 1.996 1_556 S
Fe91 O108 1.997 . S
O92 Fe91 2.002 . S
O92 C109 1.295 . S
O93 Fe88 1.997 . S
O93 C109 1.235 . S
O94 Fe88 2.002 . S
O94 C95 1.295 . S
C95 O94 1.295 . S
C95 O97 1.235 . S
C96 O101 1.287 . S
C96 O102 1.255 . S
O97 Fe89 1.997 . S
O97 C95 1.235 . S
C98 O104 1.287 1_554 S
C98 O105 1.255 . S
O99 Fe88 1.976 . S
O99 C106 1.287 . S
O100 Fe89 1.996 . S
O100 C106 1.255 . S
O101 Fe91 1.976 . S
O101 C96 1.287 . S
O102 Fe88 1.996 . S
O102 C96 1.255 . S
C103 O107 1.295 . S
C103 O108 1.235 . S
O104 Fe89 1.976 . S
O104 C98 1.287 1_556 S
O105 Fe91 1.996 1_554 S
O105 C98 1.255 . S
C106 O99 1.287 . S
C106 O100 1.255 . S
O107 Fe89 2.002 . S
O107 C103 1.295 . S
O108 Fe91 1.997 . S
O108 C103 1.235 . S
C109 O92 1.295 . S
C109 O93 1.235 . S
Fe110 O112 1.918 . S
Fe110 O115 1.997 . S
Fe110 O116 2.002 . S
Fe110 O121 1.976 . S
Fe110 O124 1.996 . S
Fe111 O112 1.918 . S
Fe111 O119 1.997 . S
Fe111 O122 1.996 . S
Fe111 O126 1.976 . S
Fe111 O129 2.002 . S
O112 Fe110 1.918 . S
O112 Fe111 1.918 . S
O112 Fe113 1.918 . S
Fe113 O112 1.918 . S
Fe113 O114 2.002 . S
Fe113 O123 1.976 . S
Fe113 O127 1.996 . S
Fe113 O130 1.997 . S
O114 Fe113 2.002 . S
O114 C131 1.295 . S
O115 Fe110 1.997 . S
O115 C131 1.235 . S
O116 Fe110 2.002 . S
O116 C117 1.295 . S
C117 O116 1.295 . S
C117 O119 1.235 . S
C118 O123 1.287 . S
C118 O124 1.255 . S
O119 Fe111 1.997 . S
O119 C117 1.235 . S
C120 O126 1.287 . S
C120 O127 1.255 . S
O121 Fe110 1.976 . S
O121 C128 1.287 . S
O122 Fe111 1.996 . S
O122 C128 1.255 . S
O123 Fe113 1.976 . S
O123 C118 1.287 . S
O124 Fe110 1.996 . S
O124 C118 1.255 . S
C125 O129 1.295 . S
C125 O130 1.235 . S
O126 Fe111 1.976 . S
O126 C120 1.287 . S
O127 Fe113 1.996 . S
O127 C120 1.255 . S
C128 O121 1.287 . S
C128 O122 1.255 . S
O129 Fe111 2.002 . S
O129 C125 1.295 . S
O130 Fe113 1.997 . S
O130 C125 1.235 . S
C131 O114 1.295 . S
C131 O115 1.235 . S
Fe132 O134 1.918 . S
Fe132 O137 1.997 . S
Fe132 O138 2.002 . S
Fe132 O143 1.976 . S
Fe132 O146 1.996 . S
Fe133 O134 1.918 . S
Fe133 O141 1.997 . S
Fe133 O144 1.996 . S
Fe133 O148 1.976 . S
Fe133 O151 2.002 . S
O134 Fe132 1.918 . S
O134 Fe133 1.918 . S
O134 Fe135 1.918 . S
Fe135 O134 1.918 . S
Fe135 O136 2.002 . S
Fe135 O145 1.976 . S
Fe135 O149 1.996 1_554 S
Fe135 O152 1.997 . S
O136 Fe135 2.002 . S
O136 C153 1.295 . S
O137 Fe132 1.997 . S
O137 C153 1.235 . S
O138 Fe132 2.002 . S
O138 C139 1.295 . S
C139 O138 1.295 . S
C139 O141 1.235 . S
C140 O145 1.287 . S
C140 O146 1.255 . S
O141 Fe133 1.997 . S
O141 C139 1.235 . S
C142 O148 1.287 1_556 S
C142 O149 1.255 . S
O143 Fe132 1.976 . S
O143 C150 1.287 . S
O144 Fe133 1.996 . S
O144 C150 1.255 . S
O145 Fe135 1.976 . S
O145 C140 1.287 . S
O146 Fe132 1.996 . S
O146 C140 1.255 . S
C147 O151 1.295 . S
C147 O152 1.235 . S
O148 Fe133 1.976 . S
O148 C142 1.287 1_554 S
O149 Fe135 1.996 1_556 S
O149 C142 1.255 . S
C150 O143 1.287 . S
C150 O144 1.255 . S
O151 Fe133 2.002 . S
O151 C147 1.295 . S
O152 Fe135 1.997 . S
O152 C147 1.235 . S
C153 O136 1.295 . S
C153 O137 1.235 . S
Fe154 O156 1.918 . S
Fe154 O159 1.997 . S
Fe154 O160 2.002 . S
Fe154 O165 1.976 . S
Fe154 O168 1.996 . S
Fe155 O156 1.918 . S
Fe155 O163 1.997 . S
Fe155 O166 1.996 . S
Fe155 O170 1.976 . S
Fe155 O173 2.002 . S
O156 Fe154 1.918 . S
O156 Fe155 1.918 . S
O156 Fe157 1.918 . S
Fe157 O156 1.918 . S
Fe157 O158 2.002 . S
Fe157 O167 1.976 . S
Fe157 O171 1.996 . S
Fe157 O174 1.997 . S
O158 Fe157 2.002 . S
O158 C175 1.295 . S
O159 Fe154 1.997 . S
O159 C175 1.235 . S
O160 Fe154 2.002 . S
O160 C161 1.295 . S
C161 O160 1.295 . S
C161 O163 1.235 . S
C162 O167 1.287 . S
C162 O168 1.255 . S
O163 Fe155 1.997 . S
O163 C161 1.235 . S
C164 O170 1.287 . S
C164 O171 1.255 . S
O165 Fe154 1.976 . S
O165 C172 1.287 . S
O166 Fe155 1.996 . S
O166 C172 1.255 . S
O167 Fe157 1.976 . S
O167 C162 1.287 . S
O168 Fe154 1.996 . S
O168 C162 1.255 . S
C169 O173 1.295 . S
C169 O174 1.235 . S
O170 Fe155 1.976 . S
O170 C164 1.287 . S
O171 Fe157 1.996 . S
O171 C164 1.255 . S
C172 O165 1.287 . S
C172 O166 1.255 . S
O173 Fe155 2.002 . S
O173 C169 1.295 . S
O174 Fe157 1.997 . S
O174 C169 1.235 . S
C175 O158 1.295 . S
C175 O159 1.235 . S
Fe176 O178 1.918 . S
Fe176 O181 1.997 . S
Fe176 O182 2.002 . S
Fe176 O187 1.976 . S
Fe176 O190 1.996 . S
Fe177 O178 1.918 . S
Fe177 O185 1.997 . S
Fe177 O188 1.996 . S
Fe177 O192 1.976 . S
Fe177 O195 2.002 . S
O178 Fe176 1.918 . S
O178 Fe177 1.918 . S
O178 Fe179 1.918 . S
Fe179 O178 1.918 . S
Fe179 O180 2.002 . S
Fe179 O189 1.976 1_554 S
Fe179 O193 1.996 . S
Fe179 O196 1.997 . S
O180 Fe179 2.002 . S
O180 C197 1.295 . S
O181 Fe176 1.997 . S
O181 C197 1.235 . S
O182 Fe176 2.002 . S
O182 C183 1.295 . S
C183 O182 1.295 . S
C183 O185 1.235 . S
C184 O189 1.287 . S
C184 O190 1.255 1_556 S
O185 Fe177 1.997 . S
O185 C183 1.235 . S
C186 O192 1.287 . S
C186 O193 1.255 . S
O187 Fe176 1.976 . S
O187 C194 1.287 . S
O188 Fe177 1.996 . S
O188 C194 1.255 . S
O189 Fe179 1.976 1_556 S
O189 C184 1.287 . S
O190 Fe176 1.996 . S
O190 C184 1.255 1_554 S
C191 O195 1.295 . S
C191 O196 1.235 . S
O192 Fe177 1.976 . S
O192 C186 1.287 . S
O193 Fe179 1.996 . S
O193 C186 1.255 . S
C194 O187 1.287 . S
C194 O188 1.255 . S
O195 Fe177 2.002 . S
O195 C191 1.295 . S
O196 Fe179 1.997 . S
O196 C191 1.235 . S
C197 O180 1.295 . S
C197 O181 1.235 . S
Fe198 O200 1.918 . S
Fe198 O203 1.997 . S
Fe198 O204 2.002 . S
Fe198 O209 1.976 . S
Fe198 O212 1.996 . S
Fe199 O200 1.918 . S
Fe199 O207 1.997 . S
Fe199 O210 1.996 . S
Fe199 O214 1.976 . S
Fe199 O217 2.002 . S
O200 Fe198 1.918 . S
O200 Fe199 1.918 . S
O200 Fe201 1.918 . S
Fe201 O200 1.918 . S
Fe201 O202 2.002 . S
Fe201 O211 1.976 . S
Fe201 O215 1.996 . S
Fe201 O218 1.997 . S
O202 Fe201 2.002 . S
O202 C219 1.295 . S
O203 Fe198 1.997 . S
O203 C219 1.235 . S
O204 Fe198 2.002 . S
O204 C205 1.295 . S
C205 O204 1.295 . S
C205 O207 1.235 . S
C206 O211 1.287 . S
C206 O212 1.255 . S
O207 Fe199 1.997 . S
O207 C205 1.235 . S
C208 O214 1.287 . S
C208 O215 1.255 . S
O209 Fe198 1.976 . S
O209 C216 1.287 . S
O210 Fe199 1.996 . S
O210 C216 1.255 . S
O211 Fe201 1.976 . S
O211 C206 1.287 . S
O212 Fe198 1.996 . S
O212 C206 1.255 . S
C213 O217 1.295 . S
C213 O218 1.235 . S
O214 Fe199 1.976 . S
O214 C208 1.287 . S
O215 Fe201 1.996 . S
O215 C208 1.255 . S
C216 O209 1.287 . S
C216 O210 1.255 . S
O217 Fe199 2.002 . S
O217 C213 1.295 . S
O218 Fe201 1.997 . S
O218 C213 1.235 . S
C219 O202 1.295 . S
C219 O203 1.235 . S
Fe220 O222 1.918 . S
Fe220 O225 1.997 . S
Fe220 O226 2.002 . S
Fe220 O231 1.976 . S
Fe220 O234 1.996 . S
Fe221 O222 1.918 . S
Fe221 O229 1.997 . S
Fe221 O232 1.996 . S
Fe221 O236 1.976 . S
Fe221 O239 2.002 . S
O222 Fe220 1.918 . S
O222 Fe221 1.918 . S
O222 Fe223 1.918 . S
Fe223 O222 1.918 . S
Fe223 O224 2.002 . S
Fe223 O233 1.976 1_556 S
Fe223 O237 1.996 . S
Fe223 O240 1.997 . S
O224 Fe223 2.002 . S
O224 C241 1.295 . S
O225 Fe220 1.997 . S
O225 C241 1.235 . S
O226 Fe220 2.002 . S
O226 C227 1.295 . S
C227 O226 1.295 . S
C227 O229 1.235 . S
C228 O233 1.287 . S
C228 O234 1.255 1_554 S
O229 Fe221 1.997 . S
O229 C227 1.235 . S
C230 O236 1.287 . S
C230 O237 1.255 . S
O231 Fe220 1.976 . S
O231 C238 1.287 . S
O232 Fe221 1.996 . S
O232 C238 1.255 . S
O233 Fe223 1.976 1_554 S
O233 C228 1.287 . S
O234 Fe220 1.996 . S
O234 C228 1.255 1_556 S
C235 O239 1.295 . S
C235 O240 1.235 . S
O236 Fe221 1.976 . S
O236 C230 1.287 . S
O237 Fe223 1.996 . S
O237 C230 1.255 . S
C238 O231 1.287 . S
C238 O232 1.255 . S
O239 Fe221 2.002 . S
O239 C235 1.295 . S
O240 Fe223 1.997 . S
O240 C235 1.235 . S
C241 O224 1.295 . S
C241 O225 1.235 . S
Fe242 O244 1.918 . S
Fe242 O247 1.997 . S
Fe242 O248 2.002 . S
Fe242 O253 1.976 . S
Fe242 O256 1.996 . S
Fe243 O244 1.918 . S
Fe243 O251 1.997 . S
Fe243 O254 1.996 . S
Fe243 O258 1.976 . S
Fe243 O261 2.002 . S
O244 Fe242 1.918 . S
O244 Fe243 1.918 . S
O244 Fe245 1.918 . S
Fe245 O244 1.918 . S
Fe245 O246 2.002 . S
Fe245 O255 1.976 . S
Fe245 O259 1.996 . S
Fe245 O262 1.997 . S
O246 Fe245 2.002 . S
O246 C263 1.295 . S
O247 Fe242 1.997 . S
O247 C263 1.235 . S
O248 Fe242 2.002 . S
O248 C249 1.295 . S
C249 O248 1.295 . S
C249 O251 1.235 . S
C250 O255 1.287 . S
C250 O256 1.255 . S
O251 Fe243 1.997 . S
O251 C249 1.235 . S
C252 O258 1.287 . S
C252 O259 1.255 . S
O253 Fe242 1.976 . S
O253 C260 1.287 . S
O254 Fe243 1.996 . S
O254 C260 1.255 . S
O255 Fe245 1.976 . S
O255 C250 1.287 . S
O256 Fe242 1.996 . S
O256 C250 1.255 . S
C257 O261 1.295 . S
C257 O262 1.235 . S
O258 Fe243 1.976 . S
O258 C252 1.287 . S
O259 Fe245 1.996 . S
O259 C252 1.255 . S
C260 O253 1.287 . S
C260 O254 1.255 . S
O261 Fe243 2.002 . S
O261 C257 1.295 . S
O262 Fe245 1.997 . S
O262 C257 1.235 . S
C263 O246 1.295 . S
C263 O247 1.235 . S
Fe264 O266 1.918 . S
Fe264 O269 1.997 . S
Fe264 O270 2.002 . S
Fe264 O275 1.976 . S
Fe264 O278 1.996 . S
Fe265 O266 1.918 . S
Fe265 O273 1.997 . S
Fe265 O276 1.996 . S
Fe265 O280 1.976 . S
Fe265 O283 2.002 . S
O266 Fe264 1.918 . S
O266 Fe265 1.918 . S
O266 Fe267 1.918 . S
Fe267 O266 1.918 . S
Fe267 O268 2.002 . S
Fe267 O277 1.976 . S
Fe267 O281 1.996 1_556 S
Fe267 O284 1.997 . S
O268 Fe267 2.002 . S
O268 C285 1.295 . S
O269 Fe264 1.997 . S
O269 C285 1.235 . S
O270 Fe264 2.002 . S
O270 C271 1.295 . S
C271 O270 1.295 . S
C271 O273 1.235 . S
C272 O277 1.287 . S
C272 O278 1.255 . S
O273 Fe265 1.997 . S
O273 C271 1.235 . S
C274 O280 1.287 1_554 S
C274 O281 1.255 . S
O275 Fe264 1.976 . S
O275 C282 1.287 . S
O276 Fe265 1.996 . S
O276 C282 1.255 . S
O277 Fe267 1.976 . S
O277 C272 1.287 . S
O278 Fe264 1.996 . S
O278 C272 1.255 . S
C279 O283 1.295 . S
C279 O284 1.235 . S
O280 Fe265 1.976 . S
O280 C274 1.287 1_556 S
O281 Fe267 1.996 1_554 S
O281 C274 1.255 . S
C282 O275 1.287 . S
C282 O276 1.255 . S
O283 Fe265 2.002 . S
O283 C279 1.295 . S
O284 Fe267 1.997 . S
O284 C279 1.235 . S
C285 O268 1.295 . S
C285 O269 1.235 . S
Fe286 O288 1.918 . S
Fe286 O291 1.997 . S
Fe286 O292 2.002 . S
Fe286 O297 1.976 . S
Fe286 O300 1.996 . S
Fe287 O288 1.918 . S
Fe287 O295 1.997 . S
Fe287 O298 1.996 . S
Fe287 O302 1.976 . S
Fe287 O305 2.002 . S
O288 Fe286 1.918 . S
O288 Fe287 1.918 . S
O288 Fe289 1.918 . S
Fe289 O288 1.918 . S
Fe289 O290 2.002 . S
Fe289 O299 1.976 . S
Fe289 O303 1.996 . S
Fe289 O306 1.997 . S
O290 Fe289 2.002 . S
O290 C307 1.295 . S
O291 Fe286 1.997 . S
O291 C307 1.235 . S
O292 Fe286 2.002 . S
O292 C293 1.295 . S
C293 O292 1.295 . S
C293 O295 1.235 . S
C294 O299 1.287 . S
C294 O300 1.255 . S
O295 Fe287 1.997 . S
O295 C293 1.235 . S
C296 O302 1.287 . S
C296 O303 1.255 . S
O297 Fe286 1.976 . S
O297 C304 1.287 . S
O298 Fe287 1.996 . S
O298 C304 1.255 . S
O299 Fe289 1.976 . S
O299 C294 1.287 . S
O300 Fe286 1.996 . S
O300 C294 1.255 . S
C301 O305 1.295 . S
C301 O306 1.235 . S
O302 Fe287 1.976 . S
O302 C296 1.287 . S
O303 Fe289 1.996 . S
O303 C296 1.255 . S
C304 O297 1.287 . S
C304 O298 1.255 . S
O305 Fe287 2.002 . S
O305 C301 1.295 . S
O306 Fe289 1.997 . S
O306 C301 1.235 . S
C307 O290 1.295 . S
C307 O291 1.235 . S
Fe308 O310 1.918 . S
Fe308 O313 1.997 . S
Fe308 O314 2.002 . S
Fe308 O319 1.976 . S
Fe308 O322 1.996 . S
Fe309 O310 1.918 . S
Fe309 O317 1.997 . S
Fe309 O320 1.996 1_554 S
Fe309 O324 1.976 . S
Fe309 O327 2.002 . S
O310 Fe308 1.918 . S
O310 Fe309 1.918 . S
O310 Fe311 1.918 . S
Fe311 O310 1.918 . S
Fe311 O312 2.002 . S
Fe311 O321 1.976 . S
Fe311 O325 1.996 . S
Fe311 O328 1.997 . S
O312 Fe311 2.002 . S
O312 C329 1.295 . S
O313 Fe308 1.997 . S
O313 C329 1.235 . S
O314 Fe308 2.002 . S
O314 C315 1.295 . S
C315 O314 1.295 . S
C315 O317 1.235 . S
C316 O321 1.287 . S
C316 O322 1.255 . S
O317 Fe309 1.997 . S
O317 C315 1.235 . S
C318 O324 1.287 . S
C318 O325 1.255 . S
O319 Fe308 1.976 . S
O319 C326 1.287 1_554 S
O320 Fe309 1.996 1_556 S
O320 C326 1.255 . S
O321 Fe311 1.976 . S
O321 C316 1.287 . S
O322 Fe308 1.996 . S
O322 C316 1.255 . S
C323 O327 1.295 . S
C323 O328 1.235 . S
O324 Fe309 1.976 . S
O324 C318 1.287 . S
O325 Fe311 1.996 . S
O325 C318 1.255 . S
C326 O319 1.287 1_556 S
C326 O320 1.255 . S
O327 Fe309 2.002 . S
O327 C323 1.295 . S
O328 Fe311 1.997 . S
O328 C323 1.235 . S
C329 O312 1.295 . S
C329 O313 1.235 . S
Fe330 O332 1.918 . S
Fe330 O335 1.997 . S
Fe330 O336 2.002 . S
Fe330 O341 1.976 . S
Fe330 O344 1.996 . S
Fe331 O332 1.918 . S
Fe331 O339 1.997 . S
Fe331 O342 1.996 . S
Fe331 O346 1.976 . S
Fe331 O349 2.002 . S
O332 Fe330 1.918 . S
O332 Fe331 1.918 . S
O332 Fe333 1.918 . S
Fe333 O332 1.918 . S
Fe333 O334 2.002 . S
Fe333 O343 1.976 . S
Fe333 O347 1.996 . S
Fe333 O350 1.997 . S
O334 Fe333 2.002 . S
O334 C351 1.295 . S
O335 Fe330 1.997 . S
O335 C351 1.235 . S
O336 Fe330 2.002 . S
O336 C337 1.295 . S
C337 O336 1.295 . S
C337 O339 1.235 . S
C338 O343 1.287 . S
C338 O344 1.255 . S
O339 Fe331 1.997 . S
O339 C337 1.235 . S
C340 O346 1.287 . S
C340 O347 1.255 . S
O341 Fe330 1.976 . S
O341 C348 1.287 . S
O342 Fe331 1.996 . S
O342 C348 1.255 . S
O343 Fe333 1.976 . S
O343 C338 1.287 . S
O344 Fe330 1.996 . S
O344 C338 1.255 . S
C345 O349 1.295 . S
C345 O350 1.235 . S
O346 Fe331 1.976 . S
O346 C340 1.287 . S
O347 Fe333 1.996 . S
O347 C340 1.255 . S
C348 O341 1.287 . S
C348 O342 1.255 . S
O349 Fe331 2.002 . S
O349 C345 1.295 . S
O350 Fe333 1.997 . S
O350 C345 1.235 . S
C351 O334 1.295 . S
C351 O335 1.235 . S
C352 C353 1.349 . S
C352 C354 1.327 . S
C352 H377 0.950 . S
C353 C352 1.349 . S
C353 C369 1.349 . S
C354 C352 1.327 . S
C354 C373 1.429 . S
C354 H378 0.950 . S
C355 C372 1.574 . S
C355 C374 1.368 . S
C355 H379 0.949 . S
H356 C360 0.949 . S
C357 C358 1.349 . S
C357 C359 1.327 . S
C357 H380 0.950 . S
C358 C357 1.349 . S
C358 C370 1.349 . S
C359 C357 1.327 . S
C359 C375 1.429 . S
C359 H381 0.950 . S
C360 H356 0.949 . S
C360 C368 1.574 . S
C360 C376 1.368 . S
H361 C369 0.950 . S
H362 C367 0.950 . S
H363 C368 0.949 . S
H364 C370 0.950 . S
H365 C371 0.950 . S
H366 C372 0.949 . S
C367 H362 0.950 . S
C367 C369 1.327 . S
C367 C373 1.429 . S
C368 C360 1.574 . S
C368 H363 0.949 . S
C368 C374 1.368 . S
C369 C353 1.349 . S
C369 H361 0.950 . S
C369 C367 1.327 . S
C370 C358 1.349 . S
C370 H364 0.950 . S
C370 C371 1.327 . S
C371 H365 0.950 . S
C371 C370 1.327 . S
C371 C375 1.429 . S
C372 C355 1.574 . S
C372 H366 0.949 . S
C372 C376 1.368 . S
C373 C354 1.429 . S
C373 C367 1.429 . S
C373 C374 1.523 . S
C374 C355 1.368 . S
C374 C368 1.368 . S
C374 C373 1.523 . S
C375 C359 1.429 . S
C375 C371 1.429 . S
C375 C376 1.523 . S
C376 C360 1.368 . S
C376 C372 1.368 . S
C376 C375 1.523 . S
H377 C352 0.950 . S
H378 C354 0.950 . S
H379 C355 0.949 . S
H380 C357 0.950 . S
H381 C359 0.950 . S
C382 C383 1.349 . S
C382 C384 1.327 . S
C382 H407 0.950 . S
C383 C382 1.349 . S
C383 C399 1.349 . S
C384 C382 1.327 . S
C384 C403 1.429 . S
C384 H408 0.950 . S
C385 C402 1.574 . S
C385 C404 1.368 . S
C385 H409 0.949 . S
H386 C390 0.949 . S
C387 C388 1.349 . S
C387 C389 1.327 . S
C387 H410 0.950 . S
C388 C387 1.349 . S
C388 C400 1.349 . S
C389 C387 1.327 . S
C389 C405 1.429 . S
C389 H411 0.950 . S
C390 H386 0.949 . S
C390 C398 1.574 . S
C390 C406 1.368 . S
H391 C399 0.950 . S
H392 C397 0.950 . S
H393 C398 0.949 . S
H394 C400 0.950 . S
H395 C401 0.950 . S
H396 C402 0.949 . S
C397 H392 0.950 . S
C397 C399 1.327 . S
C397 C403 1.429 . S
C398 C390 1.574 . S
C398 H393 0.949 . S
C398 C404 1.368 . S
C399 C383 1.349 . S
C399 H391 0.950 . S
C399 C397 1.327 . S
C400 C388 1.349 . S
C400 H394 0.950 . S
C400 C401 1.327 . S
C401 H395 0.950 . S
C401 C400 1.327 . S
C401 C405 1.429 . S
C402 C385 1.574 . S
C402 H396 0.949 . S
C402 C406 1.368 . S
C403 C384 1.429 . S
C403 C397 1.429 . S
C403 C404 1.523 . S
C404 C385 1.368 . S
C404 C398 1.368 . S
C404 C403 1.523 . S
C405 C389 1.429 . S
C405 C401 1.429 . S
C405 C406 1.523 . S
C406 C390 1.368 . S
C406 C402 1.368 . S
C406 C405 1.523 . S
H407 C382 0.950 . S
H408 C384 0.950 . S
H409 C385 0.949 . S
H410 C387 0.950 . S
H411 C389 0.950 . S
C412 C413 1.349 . S
C412 C414 1.327 . S
C412 H437 0.950 . S
C413 C412 1.349 . S
C413 C429 1.349 . S
C414 C412 1.327 . S
C414 C433 1.429 . S
C414 H438 0.950 . S
C415 C432 1.574 . S
C415 C434 1.368 . S
C415 H439 0.949 . S
H416 C420 0.949 . S
C417 C418 1.349 . S
C417 C419 1.327 . S
C417 H440 0.950 . S
C418 C417 1.349 . S
C418 C430 1.349 . S
C419 C417 1.327 . S
C419 C435 1.429 . S
C419 H441 0.950 . S
C420 H416 0.949 . S
C420 C428 1.574 . S
C420 C436 1.368 . S
H421 C429 0.950 . S
H422 C427 0.950 . S
H423 C428 0.949 . S
H424 C430 0.950 . S
H425 C431 0.950 . S
H426 C432 0.949 . S
C427 H422 0.950 . S
C427 C429 1.327 . S
C427 C433 1.429 . S
C428 C420 1.574 . S
C428 H423 0.949 . S
C428 C434 1.368 . S
C429 C413 1.349 . S
C429 H421 0.950 . S
C429 C427 1.327 . S
C430 C418 1.349 . S
C430 H424 0.950 . S
C430 C431 1.327 . S
C431 H425 0.950 . S
C431 C430 1.327 . S
C431 C435 1.429 . S
C432 C415 1.574 . S
C432 H426 0.949 . S
C432 C436 1.368 . S
C433 C414 1.429 . S
C433 C427 1.429 . S
C433 C434 1.523 . S
C434 C415 1.368 . S
C434 C428 1.368 . S
C434 C433 1.523 . S
C435 C419 1.429 . S
C435 C431 1.429 . S
C435 C436 1.523 . S
C436 C420 1.368 . S
C436 C432 1.368 . S
C436 C435 1.523 . S
H437 C412 0.950 . S
H438 C414 0.950 . S
H439 C415 0.949 . S
H440 C417 0.950 . S
H441 C419 0.950 . S
C442 C443 1.349 . S
C442 C444 1.327 . S
C442 H467 0.950 . S
C443 C442 1.349 . S
C443 C459 1.349 . S
C444 C442 1.327 . S
C444 C463 1.429 . S
C444 H468 0.950 . S
C445 C462 1.574 . S
C445 C464 1.368 . S
C445 H469 0.949 . S
H446 C450 0.949 . S
C447 C448 1.349 . S
C447 C449 1.327 . S
C447 H470 0.950 . S
C448 C447 1.349 . S
C448 C460 1.349 . S
C449 C447 1.327 . S
C449 C465 1.429 . S
C449 H471 0.950 . S
C450 H446 0.949 . S
C450 C458 1.574 . S
C450 C466 1.368 . S
H451 C459 0.950 . S
H452 C457 0.950 . S
H453 C458 0.949 . S
H454 C460 0.950 . S
H455 C461 0.950 . S
H456 C462 0.949 . S
C457 H452 0.950 . S
C457 C459 1.327 . S
C457 C463 1.429 . S
C458 C450 1.574 . S
C458 H453 0.949 . S
C458 C464 1.368 . S
C459 C443 1.349 . S
C459 H451 0.950 . S
C459 C457 1.327 . S
C460 C448 1.349 . S
C460 H454 0.950 . S
C460 C461 1.327 . S
C461 H455 0.950 . S
C461 C460 1.327 . S
C461 C465 1.429 . S
C462 C445 1.574 . S
C462 H456 0.949 . S
C462 C466 1.368 . S
C463 C444 1.429 . S
C463 C457 1.429 . S
C463 C464 1.523 . S
C464 C445 1.368 . S
C464 C458 1.368 . S
C464 C463 1.523 . S
C465 C449 1.429 . S
C465 C461 1.429 . S
C465 C466 1.523 . S
C466 C450 1.368 . S
C466 C462 1.368 . S
C466 C465 1.523 . S
H467 C442 0.950 . S
H468 C444 0.950 . S
H469 C445 0.949 . S
H470 C447 0.950 . S
H471 C449 0.950 . S
C472 C473 1.349 . S
C472 C474 1.327 . S
C472 H497 0.950 . S
C473 C472 1.349 . S
C473 C489 1.349 . S
C474 C472 1.327 . S
C474 C493 1.429 . S
C474 H498 0.950 . S
C475 C492 1.574 . S
C475 C494 1.368 . S
C475 H499 0.949 . S
H476 C480 0.949 . S
C477 C478 1.349 . S
C477 C479 1.327 . S
C477 H500 0.950 . S
C478 C477 1.349 . S
C478 C490 1.349 . S
C479 C477 1.327 . S
C479 C495 1.429 . S
C479 H501 0.950 . S
C480 H476 0.949 . S
C480 C488 1.574 . S
C480 C496 1.368 . S
H481 C489 0.950 . S
H482 C487 0.950 . S
H483 C488 0.949 . S
H484 C490 0.950 . S
H485 C491 0.950 . S
H486 C492 0.949 . S
C487 H482 0.950 . S
C487 C489 1.327 . S
C487 C493 1.429 . S
C488 C480 1.574 . S
C488 H483 0.949 . S
C488 C494 1.368 . S
C489 C473 1.349 . S
C489 H481 0.950 . S
C489 C487 1.327 . S
C490 C478 1.349 . S
C490 H484 0.950 . S
C490 C491 1.327 . S
C491 H485 0.950 . S
C491 C490 1.327 . S
C491 C495 1.429 . S
C492 C475 1.574 . S
C492 H486 0.949 . S
C492 C496 1.368 . S
C493 C474 1.429 . S
C493 C487 1.429 . S
C493 C494 1.523 . S
C494 C475 1.368 . S
C494 C488 1.368 . S
C494 C493 1.523 . S
C495 C479 1.429 . S
C495 C491 1.429 . S
C495 C496 1.523 . S
C496 C480 1.368 . S
C496 C492 1.368 . S
C496 C495 1.523 . S
H497 C472 0.950 . S
H498 C474 0.950 . S
H499 C475 0.949 . S
H500 C477 0.950 . S
H501 C479 0.950 . S
C502 C503 1.349 . S
C502 C504 1.327 . S
C502 H527 0.950 . S
C503 C502 1.349 . S
C503 C519 1.349 . S
C504 C502 1.327 . S
C504 C523 1.429 . S
C504 H528 0.950 . S
C505 C522 1.574 . S
C505 C524 1.368 . S
C505 H529 0.949 . S
H506 C510 0.949 . S
C507 C508 1.349 . S
C507 C509 1.327 . S
C507 H530 0.950 . S
C508 C507 1.349 . S
C508 C520 1.349 . S
C509 C507 1.327 . S
C509 C525 1.429 . S
C509 H531 0.950 . S
C510 H506 0.949 . S
C510 C518 1.574 . S
C510 C526 1.368 . S
H511 C519 0.950 . S
H512 C517 0.950 . S
H513 C518 0.949 . S
H514 C520 0.950 . S
H515 C521 0.950 . S
H516 C522 0.949 . S
C517 H512 0.950 . S
C517 C519 1.327 . S
C517 C523 1.429 . S
C518 C510 1.574 . S
C518 H513 0.949 . S
C518 C524 1.368 . S
C519 C503 1.349 . S
C519 H511 0.950 . S
C519 C517 1.327 . S
C520 C508 1.349 . S
C520 H514 0.950 . S
C520 C521 1.327 . S
C521 H515 0.950 . S
C521 C520 1.327 . S
C521 C525 1.429 . S
C522 C505 1.574 . S
C522 H516 0.949 . S
C522 C526 1.368 . S
C523 C504 1.429 . S
C523 C517 1.429 . S
C523 C524 1.523 . S
C524 C505 1.368 . S
C524 C518 1.368 . S
C524 C523 1.523 . S
C525 C509 1.429 . S
C525 C521 1.429 . S
C525 C526 1.523 . S
C526 C510 1.368 . S
C526 C522 1.368 . S
C526 C525 1.523 . S
H527 C502 0.950 . S
H528 C504 0.950 . S
H529 C505 0.949 . S
H530 C507 0.950 . S
H531 C509 0.950 . S
C532 C533 1.349 . S
C532 C534 1.327 . S
C532 H557 0.950 . S
C533 C532 1.349 . S
C533 C549 1.349 . S
C534 C532 1.327 . S
C534 C553 1.429 . S
C534 H558 0.950 . S
C535 C552 1.574 . S
C535 C554 1.368 . S
C535 H559 0.949 . S
H536 C540 0.949 . S
C537 C538 1.349 . S
C537 C539 1.327 . S
C537 H560 0.950 . S
C538 C537 1.349 . S
C538 C550 1.349 . S
C539 C537 1.327 . S
C539 C555 1.429 . S
C539 H561 0.950 . S
C540 H536 0.949 . S
C540 C548 1.574 . S
C540 C556 1.368 . S
H541 C549 0.950 . S
H542 C547 0.950 . S
H543 C548 0.949 . S
H544 C550 0.950 . S
H545 C551 0.950 . S
H546 C552 0.949 . S
C547 H542 0.950 . S
C547 C549 1.327 . S
C547 C553 1.429 . S
C548 C540 1.574 . S
C548 H543 0.949 . S
C548 C554 1.368 . S
C549 C533 1.349 . S
C549 H541 0.950 . S
C549 C547 1.327 . S
C550 C538 1.349 . S
C550 H544 0.950 . S
C550 C551 1.327 . S
C551 H545 0.950 . S
C551 C550 1.327 . S
C551 C555 1.429 . S
C552 C535 1.574 . S
C552 H546 0.949 . S
C552 C556 1.368 . S
C553 C534 1.429 . S
C553 C547 1.429 . S
C553 C554 1.523 . S
C554 C535 1.368 . S
C554 C548 1.368 . S
C554 C553 1.523 . S
C555 C539 1.429 . S
C555 C551 1.429 . S
C555 C556 1.523 . S
C556 C540 1.368 . S
C556 C552 1.368 . S
C556 C555 1.523 . S
H557 C532 0.950 . S
H558 C534 0.950 . S
H559 C535 0.949 . S
H560 C537 0.950 . S
H561 C539 0.950 . S
C562 C563 1.349 . S
C562 C564 1.327 . S
C562 H587 0.950 . S
C563 C562 1.349 . S
C563 C579 1.349 . S
C564 C562 1.327 . S
C564 C583 1.429 . S
C564 H588 0.950 . S
C565 C582 1.574 . S
C565 C584 1.368 . S
C565 H589 0.949 . S
H566 C570 0.949 . S
C567 C568 1.349 . S
C567 C569 1.327 . S
C567 H590 0.950 . S
C568 C567 1.349 . S
C568 C580 1.349 . S
C569 C567 1.327 . S
C569 C585 1.429 . S
C569 H591 0.950 . S
C570 H566 0.949 . S
C570 C578 1.574 . S
C570 C586 1.368 . S
H571 C579 0.950 . S
H572 C577 0.950 . S
H573 C578 0.949 . S
H574 C580 0.950 . S
H575 C581 0.950 . S
H576 C582 0.949 . S
C577 H572 0.950 . S
C577 C579 1.327 . S
C577 C583 1.429 . S
C578 C570 1.574 . S
C578 H573 0.949 . S
C578 C584 1.368 . S
C579 C563 1.349 . S
C579 H571 0.950 . S
C579 C577 1.327 . S
C580 C568 1.349 . S
C580 H574 0.950 . S
C580 C581 1.327 . S
C581 H575 0.950 . S
C581 C580 1.327 . S
C581 C585 1.429 . S
C582 C565 1.574 . S
C582 H576 0.949 . S
C582 C586 1.368 . S
C583 C564 1.429 . S
C583 C577 1.429 . S
C583 C584 1.523 . S
C584 C565 1.368 . S
C584 C578 1.368 . S
C584 C583 1.523 . S
C585 C569 1.429 . S
C585 C581 1.429 . S
C585 C586 1.523 . S
C586 C570 1.368 . S
C586 C582 1.368 . S
C586 C585 1.523 . S
H587 C562 0.950 . S
H588 C564 0.950 . S
H589 C565 0.949 . S
H590 C567 0.950 . S
H591 C569 0.950 . S
C592 C593 1.349 . S
C592 C594 1.327 . S
C592 H617 0.950 . S
C593 C592 1.349 . S
C593 C609 1.349 . S
C594 C592 1.327 . S
C594 C613 1.429 . S
C594 H618 0.950 . S
C595 C612 1.574 . S
C595 C614 1.368 . S
C595 H619 0.949 . S
H596 C600 0.949 . S
C597 C598 1.349 . S
C597 C599 1.327 . S
C597 H620 0.950 . S
C598 C597 1.349 . S
C598 C610 1.349 . S
C599 C597 1.327 . S
C599 C615 1.429 . S
C599 H621 0.950 . S
C600 H596 0.949 . S
C600 C608 1.574 . S
C600 C616 1.368 . S
H601 C609 0.950 . S
H602 C607 0.950 . S
H603 C608 0.949 . S
H604 C610 0.950 . S
H605 C611 0.950 . S
H606 C612 0.949 . S
C607 H602 0.950 . S
C607 C609 1.327 . S
C607 C613 1.429 . S
C608 C600 1.574 . S
C608 H603 0.949 . S
C608 C614 1.368 . S
C609 C593 1.349 . S
C609 H601 0.950 . S
C609 C607 1.327 . S
C610 C598 1.349 . S
C610 H604 0.950 . S
C610 C611 1.327 . S
C611 H605 0.950 . S
C611 C610 1.327 . S
C611 C615 1.429 . S
C612 C595 1.574 . S
C612 H606 0.949 . S
C612 C616 1.368 . S
C613 C594 1.429 . S
C613 C607 1.429 . S
C613 C614 1.523 . S
C614 C595 1.368 . S
C614 C608 1.368 . S
C614 C613 1.523 . S
C615 C599 1.429 . S
C615 C611 1.429 . S
C615 C616 1.523 . S
C616 C600 1.368 . S
C616 C612 1.368 . S
C616 C615 1.523 . S
H617 C592 0.950 . S
H618 C594 0.950 . S
H619 C595 0.949 . S
H620 C597 0.950 . S
H621 C599 0.950 . S
C622 C623 1.349 . S
C622 C624 1.327 . S
C622 H647 0.950 . S
C623 C622 1.349 . S
C623 C639 1.349 . S
C624 C622 1.327 . S
C624 C643 1.429 . S
C624 H648 0.950 . S
C625 C642 1.574 . S
C625 C644 1.368 . S
C625 H649 0.949 . S
H626 C630 0.949 . S
C627 C628 1.349 . S
C627 C629 1.327 . S
C627 H650 0.950 . S
C628 C627 1.349 . S
C628 C640 1.349 . S
C629 C627 1.327 . S
C629 C645 1.429 . S
C629 H651 0.950 . S
C630 H626 0.949 . S
C630 C638 1.574 . S
C630 C646 1.368 . S
H631 C639 0.950 . S
H632 C637 0.950 . S
H633 C638 0.949 . S
H634 C640 0.950 . S
H635 C641 0.950 . S
H636 C642 0.949 . S
C637 H632 0.950 . S
C637 C639 1.327 . S
C637 C643 1.429 . S
C638 C630 1.574 . S
C638 H633 0.949 . S
C638 C644 1.368 . S
C639 C623 1.349 . S
C639 H631 0.950 . S
C639 C637 1.327 . S
C640 C628 1.349 . S
C640 H634 0.950 . S
C640 C641 1.327 . S
C641 H635 0.950 . S
C641 C640 1.327 . S
C641 C645 1.429 . S
C642 C625 1.574 . S
C642 H636 0.949 . S
C642 C646 1.368 . S
C643 C624 1.429 . S
C643 C637 1.429 . S
C643 C644 1.523 . S
C644 C625 1.368 . S
C644 C638 1.368 . S
C644 C643 1.523 . S
C645 C629 1.429 . S
C645 C641 1.429 . S
C645 C646 1.523 . S
C646 C630 1.368 . S
C646 C642 1.368 . S
C646 C645 1.523 . S
H647 C622 0.950 . S
H648 C624 0.950 . S
H649 C625 0.949 . S
H650 C627 0.950 . S
H651 C629 0.950 . S
C652 C653 1.349 . S
C652 C654 1.327 . S
C652 H677 0.950 . S
C653 C652 1.349 . S
C653 C669 1.349 . S
C654 C652 1.327 . S
C654 C673 1.429 . S
C654 H678 0.950 . S
C655 C672 1.574 . S
C655 C674 1.368 . S
C655 H679 0.949 . S
H656 C660 0.949 . S
C657 C658 1.349 . S
C657 C659 1.327 . S
C657 H680 0.950 . S
C658 C657 1.349 . S
C658 C670 1.349 . S
C659 C657 1.327 . S
C659 C675 1.429 . S
C659 H681 0.950 . S
C660 H656 0.949 . S
C660 C668 1.574 . S
C660 C676 1.368 . S
H661 C669 0.950 . S
H662 C667 0.950 . S
H663 C668 0.949 . S
H664 C670 0.950 . S
H665 C671 0.950 . S
H666 C672 0.949 . S
C667 H662 0.950 . S
C667 C669 1.327 . S
C667 C673 1.429 . S
C668 C660 1.574 . S
C668 H663 0.949 . S
C668 C674 1.368 . S
C669 C653 1.349 . S
C669 H661 0.950 . S
C669 C667 1.327 . S
C670 C658 1.349 . S
C670 H664 0.950 . S
C670 C671 1.327 . S
C671 H665 0.950 . S
C671 C670 1.327 . S
C671 C675 1.429 . S
C672 C655 1.574 . S
C672 H666 0.949 . S
C672 C676 1.368 . S
C673 C654 1.429 . S
C673 C667 1.429 . S
C673 C674 1.523 . S
C674 C655 1.368 . S
C674 C668 1.368 . S
C674 C673 1.523 . S
C675 C659 1.429 . S
C675 C671 1.429 . S
C675 C676 1.523 . S
C676 C660 1.368 . S
C676 C672 1.368 . S
C676 C675 1.523 . S
H677 C652 0.950 . S
H678 C654 0.950 . S
H679 C655 0.949 . S
H680 C657 0.950 . S
H681 C659 0.950 . S
C682 C683 1.349 . S
C682 C684 1.327 . S
C682 H707 0.950 . S
C683 C682 1.349 . S
C683 C699 1.349 . S
C684 C682 1.327 . S
C684 C703 1.429 . S
C684 H708 0.950 . S
C685 C702 1.574 . S
C685 C704 1.368 . S
C685 H709 0.949 . S
H686 C690 0.949 . S
C687 C688 1.349 . S
C687 C689 1.327 . S
C687 H710 0.950 . S
C688 C687 1.349 . S
C688 C700 1.349 . S
C689 C687 1.327 . S
C689 C705 1.429 . S
C689 H711 0.950 . S
C690 H686 0.949 . S
C690 C698 1.574 . S
C690 C706 1.368 . S
H691 C699 0.950 . S
H692 C697 0.950 . S
H693 C698 0.949 . S
H694 C700 0.950 . S
H695 C701 0.950 . S
H696 C702 0.949 . S
C697 H692 0.950 . S
C697 C699 1.327 . S
C697 C703 1.429 . S
C698 C690 1.574 . S
C698 H693 0.949 . S
C698 C704 1.368 . S
C699 C683 1.349 . S
C699 H691 0.950 . S
C699 C697 1.327 . S
C700 C688 1.349 . S
C700 H694 0.950 . S
C700 C701 1.327 . S
C701 H695 0.950 . S
C701 C700 1.327 . S
C701 C705 1.429 . S
C702 C685 1.574 . S
C702 H696 0.949 . S
C702 C706 1.368 . S
C703 C684 1.429 . S
C703 C697 1.429 . S
C703 C704 1.523 . S
C704 C685 1.368 . S
C704 C698 1.368 . S
C704 C703 1.523 . S
C705 C689 1.429 . S
C705 C701 1.429 . S
C705 C706 1.523 . S
C706 C690 1.368 . S
C706 C702 1.368 . S
C706 C705 1.523 . S
H707 C682 0.950 . S
H708 C684 0.950 . S
H709 C685 0.949 . S
H710 C687 0.950 . S
H711 C689 0.950 . S
C712 C713 1.349 . S
C712 C714 1.327 . S
C712 H737 0.950 . S
C713 C712 1.349 . S
C713 C729 1.349 . S
C714 C712 1.327 . S
C714 C733 1.429 . S
C714 H738 0.950 . S
C715 C732 1.574 . S
C715 C734 1.368 . S
C715 H739 0.949 . S
H716 C720 0.949 . S
C717 C718 1.349 . S
C717 C719 1.327 . S
C717 H740 0.950 . S
C718 C717 1.349 . S
C718 C730 1.349 . S
C719 C717 1.327 . S
C719 C735 1.429 . S
C719 H741 0.950 . S
C720 H716 0.949 . S
C720 C728 1.574 . S
C720 C736 1.368 . S
H721 C729 0.950 . S
H722 C727 0.950 . S
H723 C728 0.949 . S
H724 C730 0.950 . S
H725 C731 0.950 . S
H726 C732 0.949 . S
C727 H722 0.950 . S
C727 C729 1.327 . S
C727 C733 1.429 . S
C728 C720 1.574 . S
C728 H723 0.949 . S
C728 C734 1.368 . S
C729 C713 1.349 . S
C729 H721 0.950 . S
C729 C727 1.327 . S
C730 C718 1.349 . S
C730 H724 0.950 . S
C730 C731 1.327 . S
C731 H725 0.950 . S
C731 C730 1.327 . S
C731 C735 1.429 . S
C732 C715 1.574 . S
C732 H726 0.949 . S
C732 C736 1.368 . S
C733 C714 1.429 . S
C733 C727 1.429 . S
C733 C734 1.523 . S
C734 C715 1.368 . S
C734 C728 1.368 . S
C734 C733 1.523 . S
C735 C719 1.429 . S
C735 C731 1.429 . S
C735 C736 1.523 . S
C736 C720 1.368 . S
C736 C732 1.368 . S
C736 C735 1.523 . S
H737 C712 0.950 . S
H738 C714 0.950 . S
H739 C715 0.949 . S
H740 C717 0.950 . S
H741 C719 0.950 . S
C742 C743 1.349 . S
C742 C744 1.327 . S
C742 H767 0.950 . S
C743 C742 1.349 . S
C743 C759 1.349 . S
C744 C742 1.327 . S
C744 C763 1.429 . S
C744 H768 0.950 . S
C745 C762 1.574 . S
C745 C764 1.368 . S
C745 H769 0.949 . S
H746 C750 0.949 . S
C747 C748 1.349 . S
C747 C749 1.327 . S
C747 H770 0.950 . S
C748 C747 1.349 . S
C748 C760 1.349 . S
C749 C747 1.327 . S
C749 C765 1.429 . S
C749 H771 0.950 . S
C750 H746 0.949 . S
C750 C758 1.574 . S
C750 C766 1.368 . S
H751 C759 0.950 . S
H752 C757 0.950 . S
H753 C758 0.949 . S
H754 C760 0.950 . S
H755 C761 0.950 . S
H756 C762 0.949 . S
C757 H752 0.950 . S
C757 C759 1.327 . S
C757 C763 1.429 . S
C758 C750 1.574 . S
C758 H753 0.949 . S
C758 C764 1.368 . S
C759 C743 1.349 . S
C759 H751 0.950 . S
C759 C757 1.327 . S
C760 C748 1.349 . S
C760 H754 0.950 . S
C760 C761 1.327 . S
C761 H755 0.950 . S
C761 C760 1.327 . S
C761 C765 1.429 . S
C762 C745 1.574 . S
C762 H756 0.949 . S
C762 C766 1.368 . S
C763 C744 1.429 . S
C763 C757 1.429 . S
C763 C764 1.523 . S
C764 C745 1.368 . S
C764 C758 1.368 . S
C764 C763 1.523 . S
C765 C749 1.429 . S
C765 C761 1.429 . S
C765 C766 1.523 . S
C766 C750 1.368 . S
C766 C762 1.368 . S
C766 C765 1.523 . S
H767 C742 0.950 . S
H768 C744 0.950 . S
H769 C745 0.949 . S
H770 C747 0.950 . S
H771 C749 0.950 . S
C772 C773 1.349 . S
C772 C774 1.327 . S
C772 H797 0.950 . S
C773 C772 1.349 . S
C773 C789 1.349 . S
C774 C772 1.327 . S
C774 C793 1.429 . S
C774 H798 0.950 . S
C775 C792 1.574 . S
C775 C794 1.368 . S
C775 H799 0.949 . S
H776 C780 0.949 . S
C777 C778 1.349 . S
C777 C779 1.327 . S
C777 H800 0.950 . S
C778 C777 1.349 . S
C778 C790 1.349 . S
C779 C777 1.327 . S
C779 C795 1.429 . S
C779 H801 0.950 . S
C780 H776 0.949 . S
C780 C788 1.574 . S
C780 C796 1.368 . S
H781 C789 0.950 . S
H782 C787 0.950 . S
H783 C788 0.949 . S
H784 C790 0.950 . S
H785 C791 0.950 . S
H786 C792 0.949 . S
C787 H782 0.950 . S
C787 C789 1.327 . S
C787 C793 1.429 . S
C788 C780 1.574 . S
C788 H783 0.949 . S
C788 C794 1.368 . S
C789 C773 1.349 . S
C789 H781 0.950 . S
C789 C787 1.327 . S
C790 C778 1.349 . S
C790 H784 0.950 . S
C790 C791 1.327 . S
C791 H785 0.950 . S
C791 C790 1.327 . S
C791 C795 1.429 . S
C792 C775 1.574 . S
C792 H786 0.949 . S
C792 C796 1.368 . S
C793 C774 1.429 . S
C793 C787 1.429 . S
C793 C794 1.523 . S
C794 C775 1.368 . S
C794 C788 1.368 . S
C794 C793 1.523 . S
C795 C779 1.429 . S
C795 C791 1.429 . S
C795 C796 1.523 . S
C796 C780 1.368 . S
C796 C792 1.368 . S
C796 C795 1.523 . S
H797 C772 0.950 . S
H798 C774 0.950 . S
H799 C775 0.949 . S
H800 C777 0.950 . S
H801 C779 0.950 . S
C802 C803 1.349 . S
C802 C804 1.327 . S
C802 H827 0.950 . S
C803 C802 1.349 . S
C803 C819 1.349 . S
C804 C802 1.327 . S
C804 C823 1.429 . S
C804 H828 0.950 . S
C805 C822 1.574 . S
C805 C824 1.368 . S
C805 H829 0.949 . S
H806 C810 0.949 . S
C807 C808 1.349 . S
C807 C809 1.327 . S
C807 H830 0.950 . S
C808 C807 1.349 . S
C808 C820 1.349 . S
C809 C807 1.327 . S
C809 C825 1.429 . S
C809 H831 0.950 . S
C810 H806 0.949 . S
C810 C818 1.574 . S
C810 C826 1.368 . S
H811 C819 0.950 . S
H812 C817 0.950 . S
H813 C818 0.949 . S
H814 C820 0.950 . S
H815 C821 0.950 . S
H816 C822 0.949 . S
C817 H812 0.950 . S
C817 C819 1.327 . S
C817 C823 1.429 . S
C818 C810 1.574 . S
C818 H813 0.949 . S
C818 C824 1.368 . S
C819 C803 1.349 . S
C819 H811 0.950 . S
C819 C817 1.327 . S
C820 C808 1.349 . S
C820 H814 0.950 . S
C820 C821 1.327 . S
C821 H815 0.950 . S
C821 C820 1.327 . S
C821 C825 1.429 . S
C822 C805 1.574 . S
C822 H816 0.949 . S
C822 C826 1.368 . S
C823 C804 1.429 . S
C823 C817 1.429 . S
C823 C824 1.523 . S
C824 C805 1.368 . S
C824 C818 1.368 . S
C824 C823 1.523 . S
C825 C809 1.429 . S
C825 C821 1.429 . S
C825 C826 1.523 . S
C826 C810 1.368 . S
C826 C822 1.368 . S
C826 C825 1.523 . S
H827 C802 0.950 . S
H828 C804 0.950 . S
H829 C805 0.949 . S
H830 C807 0.950 . S
H831 C809 0.950 . S
C832 C833 1.349 . S
C832 C834 1.327 . S
C832 H857 0.950 . S
C833 C832 1.349 . S
C833 C849 1.349 . S
C834 C832 1.327 . S
C834 C853 1.429 . S
C834 H858 0.950 . S
C835 C852 1.574 . S
C835 C854 1.368 . S
C835 H859 0.949 . S
H836 C840 0.949 . S
C837 C838 1.349 . S
C837 C839 1.327 . S
C837 H860 0.950 . S
C838 C837 1.349 . S
C838 C850 1.349 . S
C839 C837 1.327 . S
C839 C855 1.429 . S
C839 H861 0.950 . S
C840 H836 0.949 . S
C840 C848 1.574 . S
C840 C856 1.368 . S
H841 C849 0.950 . S
H842 C847 0.950 . S
H843 C848 0.949 . S
H844 C850 0.950 . S
H845 C851 0.950 . S
H846 C852 0.949 . S
C847 H842 0.950 . S
C847 C849 1.327 . S
C847 C853 1.429 . S
C848 C840 1.574 . S
C848 H843 0.949 . S
C848 C854 1.368 . S
C849 C833 1.349 . S
C849 H841 0.950 . S
C849 C847 1.327 . S
C850 C838 1.349 . S
C850 H844 0.950 . S
C850 C851 1.327 . S
C851 H845 0.950 . S
C851 C850 1.327 . S
C851 C855 1.429 . S
C852 C835 1.574 . S
C852 H846 0.949 . S
C852 C856 1.368 . S
C853 C834 1.429 . S
C853 C847 1.429 . S
C853 C854 1.523 . S
C854 C835 1.368 . S
C854 C848 1.368 . S
C854 C853 1.523 . S
C855 C839 1.429 . S
C855 C851 1.429 . S
C855 C856 1.523 . S
C856 C840 1.368 . S
C856 C852 1.368 . S
C856 C855 1.523 . S
H857 C832 0.950 . S
H858 C834 0.950 . S
H859 C835 0.949 . S
H860 C837 0.950 . S
H861 C839 0.950 . S
C862 C863 1.349 . S
C862 C864 1.327 . S
C862 H887 0.950 . S
C863 C862 1.349 . S
C863 C879 1.349 . S
C864 C862 1.327 . S
C864 C883 1.429 . S
C864 H888 0.950 . S
C865 C882 1.574 . S
C865 C884 1.368 . S
C865 H889 0.949 . S
H866 C870 0.949 . S
C867 C868 1.349 . S
C867 C869 1.327 . S
C867 H890 0.950 . S
C868 C867 1.349 . S
C868 C880 1.349 . S
C869 C867 1.327 . S
C869 C885 1.429 . S
C869 H891 0.950 . S
C870 H866 0.949 . S
C870 C878 1.574 . S
C870 C886 1.368 . S
H871 C879 0.950 . S
H872 C877 0.950 . S
H873 C878 0.949 . S
H874 C880 0.950 . S
H875 C881 0.950 . S
H876 C882 0.949 . S
C877 H872 0.950 . S
C877 C879 1.327 . S
C877 C883 1.429 . S
C878 C870 1.574 . S
C878 H873 0.949 . S
C878 C884 1.368 . S
C879 C863 1.349 . S
C879 H871 0.950 . S
C879 C877 1.327 . S
C880 C868 1.349 . S
C880 H874 0.950 . S
C880 C881 1.327 . S
C881 H875 0.950 . S
C881 C880 1.327 . S
C881 C885 1.429 . S
C882 C865 1.574 . S
C882 H876 0.949 . S
C882 C886 1.368 . S
C883 C864 1.429 . S
C883 C877 1.429 . S
C883 C884 1.523 . S
C884 C865 1.368 . S
C884 C878 1.368 . S
C884 C883 1.523 . S
C885 C869 1.429 . S
C885 C881 1.429 . S
C885 C886 1.523 . S
C886 C870 1.368 . S
C886 C882 1.368 . S
C886 C885 1.523 . S
H887 C862 0.950 . S
H888 C864 0.950 . S
H889 C865 0.949 . S
H890 C867 0.950 . S
H891 C869 0.950 . S
C892 C893 1.349 . S
C892 C894 1.327 . S
C892 H917 0.950 . S
C893 C892 1.349 . S
C893 C909 1.349 . S
C894 C892 1.327 . S
C894 C913 1.429 . S
C894 H918 0.950 . S
C895 C912 1.574 . S
C895 C914 1.368 . S
C895 H919 0.949 . S
H896 C900 0.949 . S
C897 C898 1.349 . S
C897 C899 1.327 . S
C897 H920 0.950 . S
C898 C897 1.349 . S
C898 C910 1.349 . S
C899 C897 1.327 . S
C899 C915 1.429 . S
C899 H921 0.950 . S
C900 H896 0.949 . S
C900 C908 1.574 . S
C900 C916 1.368 . S
H901 C909 0.950 . S
H902 C907 0.950 . S
H903 C908 0.949 . S
H904 C910 0.950 . S
H905 C911 0.950 . S
H906 C912 0.949 . S
C907 H902 0.950 . S
C907 C909 1.327 . S
C907 C913 1.429 . S
C908 C900 1.574 . S
C908 H903 0.949 . S
C908 C914 1.368 . S
C909 C893 1.349 . S
C909 H901 0.950 . S
C909 C907 1.327 . S
C910 C898 1.349 . S
C910 H904 0.950 . S
C910 C911 1.327 . S
C911 H905 0.950 . S
C911 C910 1.327 . S
C911 C915 1.429 . S
C912 C895 1.574 . S
C912 H906 0.949 . S
C912 C916 1.368 . S
C913 C894 1.429 . S
C913 C907 1.429 . S
C913 C914 1.523 . S
C914 C895 1.368 . S
C914 C908 1.368 . S
C914 C913 1.523 . S
C915 C899 1.429 . S
C915 C911 1.429 . S
C915 C916 1.523 . S
C916 C900 1.368 . S
C916 C912 1.368 . S
C916 C915 1.523 . S
H917 C892 0.950 . S
H918 C894 0.950 . S
H919 C895 0.949 . S
H920 C897 0.950 . S
H921 C899 0.950 . S
C922 C923 1.349 . S
C922 C924 1.327 . S
C922 H947 0.950 . S
C923 C922 1.349 . S
C923 C939 1.349 . S
C924 C922 1.327 . S
C924 C943 1.429 . S
C924 H948 0.950 . S
C925 C942 1.574 . S
C925 C944 1.368 . S
C925 H949 0.949 . S
H926 C930 0.949 . S
C927 C928 1.349 . S
C927 C929 1.327 . S
C927 H950 0.950 . S
C928 C927 1.349 . S
C928 C940 1.349 . S
C929 C927 1.327 . S
C929 C945 1.429 . S
C929 H951 0.950 . S
C930 H926 0.949 . S
C930 C938 1.574 . S
C930 C946 1.368 . S
H931 C939 0.950 . S
H932 C937 0.950 . S
H933 C938 0.949 . S
H934 C940 0.950 . S
H935 C941 0.950 . S
H936 C942 0.949 . S
C937 H932 0.950 . S
C937 C939 1.327 . S
C937 C943 1.429 . S
C938 C930 1.574 . S
C938 H933 0.949 . S
C938 C944 1.368 . S
C939 C923 1.349 . S
C939 H931 0.950 . S
C939 C937 1.327 . S
C940 C928 1.349 . S
C940 H934 0.950 . S
C940 C941 1.327 . S
C941 H935 0.950 . S
C941 C940 1.327 . S
C941 C945 1.429 . S
C942 C925 1.574 . S
C942 H936 0.949 . S
C942 C946 1.368 . S
C943 C924 1.429 . S
C943 C937 1.429 . S
C943 C944 1.523 . S
C944 C925 1.368 . S
C944 C938 1.368 . S
C944 C943 1.523 . S
C945 C929 1.429 . S
C945 C941 1.429 . S
C945 C946 1.523 . S
C946 C930 1.368 . S
C946 C942 1.368 . S
C946 C945 1.523 . S
H947 C922 0.950 . S
H948 C924 0.950 . S
H949 C925 0.949 . S
H950 C927 0.950 . S
H951 C929 0.950 . S
C952 C953 1.349 . S
C952 C954 1.327 . S
C952 H977 0.950 . S
C953 C952 1.349 . S
C953 C969 1.349 . S
C954 C952 1.327 . S
C954 C973 1.429 . S
C954 H978 0.950 . S
C955 C972 1.574 . S
C955 C974 1.368 . S
C955 H979 0.949 . S
H956 C960 0.949 . S
C957 C958 1.349 . S
C957 C959 1.327 . S
C957 H980 0.950 . S
C958 C957 1.349 . S
C958 C970 1.349 . S
C959 C957 1.327 . S
C959 C975 1.429 . S
C959 H981 0.950 . S
C960 H956 0.949 . S
C960 C968 1.574 . S
C960 C976 1.368 . S
H961 C969 0.950 . S
H962 C967 0.950 . S
H963 C968 0.949 . S
H964 C970 0.950 . S
H965 C971 0.950 . S
H966 C972 0.949 . S
C967 H962 0.950 . S
C967 C969 1.327 . S
C967 C973 1.429 . S
C968 C960 1.574 . S
C968 H963 0.949 . S
C968 C974 1.368 . S
C969 C953 1.349 . S
C969 H961 0.950 . S
C969 C967 1.327 . S
C970 C958 1.349 . S
C970 H964 0.950 . S
C970 C971 1.327 . S
C971 H965 0.950 . S
C971 C970 1.327 . S
C971 C975 1.429 . S
C972 C955 1.574 . S
C972 H966 0.949 . S
C972 C976 1.368 . S
C973 C954 1.429 . S
C973 C967 1.429 . S
C973 C974 1.523 . S
C974 C955 1.368 . S
C974 C968 1.368 . S
C974 C973 1.523 . S
C975 C959 1.429 . S
C975 C971 1.429 . S
C975 C976 1.523 . S
C976 C960 1.368 . S
C976 C972 1.368 . S
C976 C975 1.523 . S
H977 C952 0.950 . S
H978 C954 0.950 . S
H979 C955 0.949 . S
H980 C957 0.950 . S
H981 C959 0.950 . S
C982 C983 1.349 . S
C982 C984 1.327 . S
C982 H1007 0.950 . S
C983 C982 1.349 . S
C983 C999 1.349 . S
C984 C982 1.327 . S
C984 C1003 1.429 . S
C984 H1008 0.950 . S
C985 C1002 1.574 . S
C985 C1004 1.368 . S
C985 H1009 0.949 . S
H986 C990 0.949 . S
C987 C988 1.349 . S
C987 C989 1.327 . S
C987 H1010 0.950 . S
C988 C987 1.349 . S
C988 C1000 1.349 . S
C989 C987 1.327 . S
C989 C1005 1.429 . S
C989 H1011 0.950 . S
C990 H986 0.949 . S
C990 C998 1.574 . S
C990 C1006 1.368 . S
H991 C999 0.950 . S
H992 C997 0.950 . S
H993 C998 0.949 . S
H994 C1000 0.950 . S
H995 C1001 0.950 . S
H996 C1002 0.949 . S
C997 H992 0.950 . S
C997 C999 1.327 . S
C997 C1003 1.429 . S
C998 C990 1.574 . S
C998 H993 0.949 . S
C998 C1004 1.368 . S
C999 C983 1.349 . S
C999 H991 0.950 . S
C999 C997 1.327 . S
C1000 C988 1.349 . S
C1000 H994 0.950 . S
C1000 C1001 1.327 . S
C1001 H995 0.950 . S
C1001 C1000 1.327 . S
C1001 C1005 1.429 . S
C1002 C985 1.574 . S
C1002 H996 0.949 . S
C1002 C1006 1.368 . S
C1003 C984 1.429 . S
C1003 C997 1.429 . S
C1003 C1004 1.523 . S
C1004 C985 1.368 . S
C1004 C998 1.368 . S
C1004 C1003 1.523 . S
C1005 C989 1.429 . S
C1005 C1001 1.429 . S
C1005 C1006 1.523 . S
C1006 C990 1.368 . S
C1006 C1002 1.368 . S
C1006 C1005 1.523 . S
H1007 C982 0.950 . S
H1008 C984 0.950 . S
H1009 C985 0.949 . S
H1010 C987 0.950 . S
H1011 C989 0.950 . S
C1012 C1013 1.349 . S
C1012 C1014 1.327 . S
C1012 H1037 0.950 . S
C1013 C1012 1.349 . S
C1013 C1029 1.349 . S
C1014 C1012 1.327 . S
C1014 C1033 1.429 . S
C1014 H1038 0.950 . S
C1015 C1032 1.574 . S
C1015 C1034 1.368 . S
C1015 H1039 0.949 . S
H1016 C1020 0.949 . S
C1017 C1018 1.349 . S
C1017 C1019 1.327 . S
C1017 H1040 0.950 . S
C1018 C1017 1.349 . S
C1018 C1030 1.349 . S
C1019 C1017 1.327 . S
C1019 C1035 1.429 . S
C1019 H1041 0.950 . S
C1020 H1016 0.949 . S
C1020 C1028 1.574 . S
C1020 C1036 1.368 . S
H1021 C1029 0.950 . S
H1022 C1027 0.950 . S
H1023 C1028 0.949 . S
H1024 C1030 0.950 . S
H1025 C1031 0.950 . S
H1026 C1032 0.949 . S
C1027 H1022 0.950 . S
C1027 C1029 1.327 . S
C1027 C1033 1.429 . S
C1028 C1020 1.574 . S
C1028 H1023 0.949 . S
C1028 C1034 1.368 . S
C1029 C1013 1.349 . S
C1029 H1021 0.950 . S
C1029 C1027 1.327 . S
C1030 C1018 1.349 . S
C1030 H1024 0.950 . S
C1030 C1031 1.327 . S
C1031 H1025 0.950 . S
C1031 C1030 1.327 . S
C1031 C1035 1.429 . S
C1032 C1015 1.574 . S
C1032 H1026 0.949 . S
C1032 C1036 1.368 . S
C1033 C1014 1.429 . S
C1033 C1027 1.429 . S
C1033 C1034 1.523 . S
C1034 C1015 1.368 . S
C1034 C1028 1.368 . S
C1034 C1033 1.523 . S
C1035 C1019 1.429 . S
C1035 C1031 1.429 . S
C1035 C1036 1.523 . S
C1036 C1020 1.368 . S
C1036 C1032 1.368 . S
C1036 C1035 1.523 . S
H1037 C1012 0.950 . S
H1038 C1014 0.950 . S
H1039 C1015 0.949 . S
H1040 C1017 0.950 . S
H1041 C1019 0.950 . S
C1042 C1043 1.349 . S
C1042 C1044 1.327 . S
C1042 H1067 0.950 . S
C1043 C1042 1.349 . S
C1043 C1059 1.349 . S
C1044 C1042 1.327 . S
C1044 C1063 1.429 . S
C1044 H1068 0.950 . S
C1045 C1062 1.574 . S
C1045 C1064 1.368 . S
C1045 H1069 0.949 . S
H1046 C1050 0.949 . S
C1047 C1048 1.349 . S
C1047 C1049 1.327 . S
C1047 H1070 0.950 . S
C1048 C1047 1.349 . S
C1048 C1060 1.349 . S
C1049 C1047 1.327 . S
C1049 C1065 1.429 . S
C1049 H1071 0.950 . S
C1050 H1046 0.949 . S
C1050 C1058 1.574 . S
C1050 C1066 1.368 . S
H1051 C1059 0.950 . S
H1052 C1057 0.950 . S
H1053 C1058 0.949 . S
H1054 C1060 0.950 . S
H1055 C1061 0.950 . S
H1056 C1062 0.949 . S
C1057 H1052 0.950 . S
C1057 C1059 1.327 . S
C1057 C1063 1.429 . S
C1058 C1050 1.574 . S
C1058 H1053 0.949 . S
C1058 C1064 1.368 . S
C1059 C1043 1.349 . S
C1059 H1051 0.950 . S
C1059 C1057 1.327 . S
C1060 C1048 1.349 . S
C1060 H1054 0.950 . S
C1060 C1061 1.327 . S
C1061 H1055 0.950 . S
C1061 C1060 1.327 . S
C1061 C1065 1.429 . S
C1062 C1045 1.574 . S
C1062 H1056 0.949 . S
C1062 C1066 1.368 . S
C1063 C1044 1.429 . S
C1063 C1057 1.429 . S
C1063 C1064 1.523 . S
C1064 C1045 1.368 . S
C1064 C1058 1.368 . S
C1064 C1063 1.523 . S
C1065 C1049 1.429 . S
C1065 C1061 1.429 . S
C1065 C1066 1.523 . S
C1066 C1050 1.368 . S
C1066 C1062 1.368 . S
C1066 C1065 1.523 . S
H1067 C1042 0.950 . S
H1068 C1044 0.950 . S
H1069 C1045 0.949 . S
H1070 C1047 0.950 . S
H1071 C1049 0.950 . S
C1072 C1073 1.349 . S
C1072 C1074 1.327 . S
C1072 H1097 0.950 . S
C1073 C1072 1.349 . S
C1073 C1089 1.349 . S
C1074 C1072 1.327 . S
C1074 C1093 1.429 . S
C1074 H1098 0.950 . S
C1075 C1092 1.574 1_455 S
C1075 C1094 1.368 . S
C1075 H1099 0.949 . S
H1076 C1080 0.949 . S
C1077 C1078 1.349 . S
C1077 C1079 1.327 . S
C1077 H1100 0.950 . S
C1078 C1077 1.349 . S
C1078 C1090 1.349 . S
C1079 C1077 1.327 . S
C1079 C1095 1.429 . S
C1079 H1101 0.950 . S
C1080 H1076 0.949 . S
C1080 C1088 1.574 1_655 S
C1080 C1096 1.368 . S
H1081 C1089 0.950 . S
H1082 C1087 0.950 . S
H1083 C1088 0.949 . S
H1084 C1090 0.950 . S
H1085 C1091 0.950 . S
H1086 C1092 0.949 . S
C1087 H1082 0.950 . S
C1087 C1089 1.327 . S
C1087 C1093 1.429 . S
C1088 C1080 1.574 1_455 S
C1088 H1083 0.949 . S
C1088 C1094 1.368 . S
C1089 C1073 1.349 . S
C1089 H1081 0.950 . S
C1089 C1087 1.327 . S
C1090 C1078 1.349 . S
C1090 H1084 0.950 . S
C1090 C1091 1.327 . S
C1091 H1085 0.950 . S
C1091 C1090 1.327 . S
C1091 C1095 1.429 . S
C1092 C1075 1.574 1_655 S
C1092 H1086 0.949 . S
C1092 C1096 1.368 . S
C1093 C1074 1.429 . S
C1093 C1087 1.429 . S
C1093 C1094 1.523 . S
C1094 C1075 1.368 . S
C1094 C1088 1.368 . S
C1094 C1093 1.523 . S
C1095 C1079 1.429 . S
C1095 C1091 1.429 . S
C1095 C1096 1.523 . S
C1096 C1080 1.368 . S
C1096 C1092 1.368 . S
C1096 C1095 1.523 . S
H1097 C1072 0.950 . S
H1098 C1074 0.950 . S
H1099 C1075 0.949 . S
H1100 C1077 0.950 . S
H1101 C1079 0.950 . S
C1102 C1103 1.349 . S
C1102 C1104 1.327 . S
C1102 H1127 0.950 . S
C1103 C1102 1.349 . S
C1103 C1119 1.349 . S
C1104 C1102 1.327 . S
C1104 C1123 1.429 . S
C1104 H1128 0.950 . S
C1105 C1122 1.574 . S
C1105 C1124 1.368 . S
C1105 H1129 0.949 . S
H1106 C1110 0.949 . S
C1107 C1108 1.349 . S
C1107 C1109 1.327 . S
C1107 H1130 0.950 . S
C1108 C1107 1.349 . S
C1108 C1120 1.349 . S
C1109 C1107 1.327 . S
C1109 C1125 1.429 . S
C1109 H1131 0.950 . S
C1110 H1106 0.949 . S
C1110 C1118 1.574 . S
C1110 C1126 1.368 . S
H1111 C1119 0.950 . S
H1112 C1117 0.950 . S
H1113 C1118 0.949 . S
H1114 C1120 0.950 . S
H1115 C1121 0.950 . S
H1116 C1122 0.949 . S
C1117 H1112 0.950 . S
C1117 C1119 1.327 . S
C1117 C1123 1.429 . S
C1118 C1110 1.574 . S
C1118 H1113 0.949 . S
C1118 C1124 1.368 . S
C1119 C1103 1.349 . S
C1119 H1111 0.950 . S
C1119 C1117 1.327 . S
C1120 C1108 1.349 . S
C1120 H1114 0.950 . S
C1120 C1121 1.327 . S
C1121 H1115 0.950 . S
C1121 C1120 1.327 . S
C1121 C1125 1.429 . S
C1122 C1105 1.574 . S
C1122 H1116 0.949 . S
C1122 C1126 1.368 . S
C1123 C1104 1.429 . S
C1123 C1117 1.429 . S
C1123 C1124 1.523 . S
C1124 C1105 1.368 . S
C1124 C1118 1.368 . S
C1124 C1123 1.523 . S
C1125 C1109 1.429 . S
C1125 C1121 1.429 . S
C1125 C1126 1.523 . S
C1126 C1110 1.368 . S
C1126 C1122 1.368 . S
C1126 C1125 1.523 . S
H1127 C1102 0.950 . S
H1128 C1104 0.950 . S
H1129 C1105 0.949 . S
H1130 C1107 0.950 . S
H1131 C1109 0.950 . S
C1132 C1133 1.349 . S
C1132 C1134 1.327 . S
C1132 H1157 0.950 . S
C1133 C1132 1.349 . S
C1133 C1149 1.349 . S
C1134 C1132 1.327 . S
C1134 C1153 1.429 . S
C1134 H1158 0.950 . S
C1135 C1152 1.574 1_655 S
C1135 C1154 1.368 . S
C1135 H1159 0.949 . S
H1136 C1140 0.949 . S
C1137 C1138 1.349 . S
C1137 C1139 1.327 . S
C1137 H1160 0.950 . S
C1138 C1137 1.349 . S
C1138 C1150 1.349 . S
C1139 C1137 1.327 . S
C1139 C1155 1.429 . S
C1139 H1161 0.950 . S
C1140 H1136 0.949 . S
C1140 C1148 1.574 1_455 S
C1140 C1156 1.368 . S
H1141 C1149 0.950 . S
H1142 C1147 0.950 . S
H1143 C1148 0.949 . S
H1144 C1150 0.950 . S
H1145 C1151 0.950 . S
H1146 C1152 0.949 . S
C1147 H1142 0.950 . S
C1147 C1149 1.327 . S
C1147 C1153 1.429 . S
C1148 C1140 1.574 1_655 S
C1148 H1143 0.949 . S
C1148 C1154 1.368 . S
C1149 C1133 1.349 . S
C1149 H1141 0.950 . S
C1149 C1147 1.327 . S
C1150 C1138 1.349 . S
C1150 H1144 0.950 . S
C1150 C1151 1.327 . S
C1151 H1145 0.950 . S
C1151 C1150 1.327 . S
C1151 C1155 1.429 . S
C1152 C1135 1.574 1_455 S
C1152 H1146 0.949 . S
C1152 C1156 1.368 . S
C1153 C1134 1.429 . S
C1153 C1147 1.429 . S
C1153 C1154 1.523 . S
C1154 C1135 1.368 . S
C1154 C1148 1.368 . S
C1154 C1153 1.523 . S
C1155 C1139 1.429 . S
C1155 C1151 1.429 . S
C1155 C1156 1.523 . S
C1156 C1140 1.368 . S
C1156 C1152 1.368 . S
C1156 C1155 1.523 . S
H1157 C1132 0.950 . S
H1158 C1134 0.950 . S
H1159 C1135 0.949 . S
H1160 C1137 0.950 . S
H1161 C1139 0.950 . S
C1162 C1163 1.349 . S
C1162 C1164 1.327 . S
C1162 H1187 0.950 . S
C1163 C1162 1.349 . S
C1163 C1179 1.349 . S
C1164 C1162 1.327 . S
C1164 C1183 1.429 . S
C1164 H1188 0.950 . S
C1165 C1182 1.574 . S
C1165 C1184 1.368 . S
C1165 H1189 0.949 . S
H1166 C1170 0.949 . S
C1167 C1168 1.349 . S
C1167 C1169 1.327 . S
C1167 H1190 0.950 . S
C1168 C1167 1.349 . S
C1168 C1180 1.349 . S
C1169 C1167 1.327 . S
C1169 C1185 1.429 . S
C1169 H1191 0.950 . S
C1170 H1166 0.949 . S
C1170 C1178 1.574 . S
C1170 C1186 1.368 . S
H1171 C1179 0.950 . S
H1172 C1177 0.950 . S
H1173 C1178 0.949 . S
H1174 C1180 0.950 . S
H1175 C1181 0.950 . S
H1176 C1182 0.949 . S
C1177 H1172 0.950 . S
C1177 C1179 1.327 . S
C1177 C1183 1.429 . S
C1178 C1170 1.574 . S
C1178 H1173 0.949 . S
C1178 C1184 1.368 . S
C1179 C1163 1.349 . S
C1179 H1171 0.950 . S
C1179 C1177 1.327 . S
C1180 C1168 1.349 . S
C1180 H1174 0.950 . S
C1180 C1181 1.327 . S
C1181 H1175 0.950 . S
C1181 C1180 1.327 . S
C1181 C1185 1.429 . S
C1182 C1165 1.574 . S
C1182 H1176 0.949 . S
C1182 C1186 1.368 . S
C1183 C1164 1.429 . S
C1183 C1177 1.429 . S
C1183 C1184 1.523 . S
C1184 C1165 1.368 . S
C1184 C1178 1.368 . S
C1184 C1183 1.523 . S
C1185 C1169 1.429 . S
C1185 C1181 1.429 . S
C1185 C1186 1.523 . S
C1186 C1170 1.368 . S
C1186 C1182 1.368 . S
C1186 C1185 1.523 . S
H1187 C1162 0.950 . S
H1188 C1164 0.950 . S
H1189 C1165 0.949 . S
H1190 C1167 0.950 . S
H1191 C1169 0.950 . S
C1192 C1193 1.349 . S
C1192 C1194 1.327 . S
C1192 H1217 0.950 . S
C1193 C1192 1.349 . S
C1193 C1209 1.349 . S
C1194 C1192 1.327 . S
C1194 C1213 1.429 . S
C1194 H1218 0.950 . S
C1195 C1212 1.574 . S
C1195 C1214 1.368 . S
C1195 H1219 0.949 . S
H1196 C1200 0.949 . S
C1197 C1198 1.349 . S
C1197 C1199 1.327 . S
C1197 H1220 0.950 . S
C1198 C1197 1.349 . S
C1198 C1210 1.349 . S
C1199 C1197 1.327 . S
C1199 C1215 1.429 . S
C1199 H1221 0.950 . S
C1200 H1196 0.949 . S
C1200 C1208 1.574 . S
C1200 C1216 1.368 . S
H1201 C1209 0.950 . S
H1202 C1207 0.950 . S
H1203 C1208 0.949 . S
H1204 C1210 0.950 . S
H1205 C1211 0.950 . S
H1206 C1212 0.949 . S
C1207 H1202 0.950 . S
C1207 C1209 1.327 . S
C1207 C1213 1.429 . S
C1208 C1200 1.574 . S
C1208 H1203 0.949 . S
C1208 C1214 1.368 . S
C1209 C1193 1.349 . S
C1209 H1201 0.950 . S
C1209 C1207 1.327 . S
C1210 C1198 1.349 . S
C1210 H1204 0.950 . S
C1210 C1211 1.327 . S
C1211 H1205 0.950 . S
C1211 C1210 1.327 . S
C1211 C1215 1.429 . S
C1212 C1195 1.574 . S
C1212 H1206 0.949 . S
C1212 C1216 1.368 . S
C1213 C1194 1.429 . S
C1213 C1207 1.429 . S
C1213 C1214 1.523 . S
C1214 C1195 1.368 . S
C1214 C1208 1.368 . S
C1214 C1213 1.523 . S
C1215 C1199 1.429 . S
C1215 C1211 1.429 . S
C1215 C1216 1.523 . S
C1216 C1200 1.368 . S
C1216 C1212 1.368 . S
C1216 C1215 1.523 . S
H1217 C1192 0.950 . S
H1218 C1194 0.950 . S
H1219 C1195 0.949 . S
H1220 C1197 0.950 . S
H1221 C1199 0.950 . S
C1222 C1223 1.349 . S
C1222 C1224 1.327 . S
C1222 H1247 0.950 . S
C1223 C1222 1.349 . S
C1223 C1239 1.349 . S
C1224 C1222 1.327 . S
C1224 C1243 1.429 . S
C1224 H1248 0.950 . S
C1225 C1242 1.574 1_655 S
C1225 C1244 1.368 . S
C1225 H1249 0.949 . S
H1226 C1230 0.949 . S
C1227 C1228 1.349 . S
C1227 C1229 1.327 . S
C1227 H1250 0.950 . S
C1228 C1227 1.349 . S
C1228 C1240 1.349 . S
C1229 C1227 1.327 . S
C1229 C1245 1.429 . S
C1229 H1251 0.950 . S
C1230 H1226 0.949 . S
C1230 C1238 1.574 1_455 S
C1230 C1246 1.368 . S
H1231 C1239 0.950 . S
H1232 C1237 0.950 . S
H1233 C1238 0.949 . S
H1234 C1240 0.950 . S
H1235 C1241 0.950 . S
H1236 C1242 0.949 . S
C1237 H1232 0.950 . S
C1237 C1239 1.327 . S
C1237 C1243 1.429 . S
C1238 C1230 1.574 1_655 S
C1238 H1233 0.949 . S
C1238 C1244 1.368 . S
C1239 C1223 1.349 . S
C1239 H1231 0.950 . S
C1239 C1237 1.327 . S
C1240 C1228 1.349 . S
C1240 H1234 0.950 . S
C1240 C1241 1.327 . S
C1241 H1235 0.950 . S
C1241 C1240 1.327 . S
C1241 C1245 1.429 . S
C1242 C1225 1.574 1_455 S
C1242 H1236 0.949 . S
C1242 C1246 1.368 . S
C1243 C1224 1.429 . S
C1243 C1237 1.429 . S
C1243 C1244 1.523 . S
C1244 C1225 1.368 . S
C1244 C1238 1.368 . S
C1244 C1243 1.523 . S
C1245 C1229 1.429 . S
C1245 C1241 1.429 . S
C1245 C1246 1.523 . S
C1246 C1230 1.368 . S
C1246 C1242 1.368 . S
C1246 C1245 1.523 . S
H1247 C1222 0.950 . S
H1248 C1224 0.950 . S
H1249 C1225 0.949 . S
H1250 C1227 0.950 . S
H1251 C1229 0.950 . S
C1252 C1253 1.349 . S
C1252 C1254 1.327 . S
C1252 H1277 0.950 . S
C1253 C1252 1.349 . S
C1253 C1269 1.349 . S
C1254 C1252 1.327 . S
C1254 C1273 1.429 . S
C1254 H1278 0.950 . S
C1255 C1272 1.574 . S
C1255 C1274 1.368 . S
C1255 H1279 0.949 . S
H1256 C1260 0.949 . S
C1257 C1258 1.349 . S
C1257 C1259 1.327 . S
C1257 H1280 0.950 . S
C1258 C1257 1.349 . S
C1258 C1270 1.349 . S
C1259 C1257 1.327 . S
C1259 C1275 1.429 . S
C1259 H1281 0.950 . S
C1260 H1256 0.949 . S
C1260 C1268 1.574 . S
C1260 C1276 1.368 . S
H1261 C1269 0.950 . S
H1262 C1267 0.950 . S
H1263 C1268 0.949 . S
H1264 C1270 0.950 . S
H1265 C1271 0.950 . S
H1266 C1272 0.949 . S
C1267 H1262 0.950 . S
C1267 C1269 1.327 . S
C1267 C1273 1.429 . S
C1268 C1260 1.574 . S
C1268 H1263 0.949 . S
C1268 C1274 1.368 . S
C1269 C1253 1.349 . S
C1269 H1261 0.950 . S
C1269 C1267 1.327 . S
C1270 C1258 1.349 . S
C1270 H1264 0.950 . S
C1270 C1271 1.327 . S
C1271 H1265 0.950 . S
C1271 C1270 1.327 . S
C1271 C1275 1.429 . S
C1272 C1255 1.574 . S
C1272 H1266 0.949 . S
C1272 C1276 1.368 . S
C1273 C1254 1.429 . S
C1273 C1267 1.429 . S
C1273 C1274 1.523 . S
C1274 C1255 1.368 . S
C1274 C1268 1.368 . S
C1274 C1273 1.523 . S
C1275 C1259 1.429 . S
C1275 C1271 1.429 . S
C1275 C1276 1.523 . S
C1276 C1260 1.368 . S
C1276 C1272 1.368 . S
C1276 C1275 1.523 . S
H1277 C1252 0.950 . S
H1278 C1254 0.950 . S
H1279 C1255 0.949 . S
H1280 C1257 0.950 . S
H1281 C1259 0.950 . S
C1282 C1283 1.349 . S
C1282 C1284 1.327 . S
C1282 H1307 0.950 . S
C1283 C1282 1.349 . S
C1283 C1299 1.349 . S
C1284 C1282 1.327 . S
C1284 C1303 1.429 . S
C1284 H1308 0.950 . S
C1285 C1302 1.574 1_455 S
C1285 C1304 1.368 . S
C1285 H1309 0.949 . S
H1286 C1290 0.949 . S
C1287 C1288 1.349 . S
C1287 C1289 1.327 . S
C1287 H1310 0.950 . S
C1288 C1287 1.349 . S
C1288 C1300 1.349 . S
C1289 C1287 1.327 . S
C1289 C1305 1.429 . S
C1289 H1311 0.950 . S
C1290 H1286 0.949 . S
C1290 C1298 1.574 1_655 S
C1290 C1306 1.368 . S
H1291 C1299 0.950 . S
H1292 C1297 0.950 . S
H1293 C1298 0.949 . S
H1294 C1300 0.950 . S
H1295 C1301 0.950 . S
H1296 C1302 0.949 . S
C1297 H1292 0.950 . S
C1297 C1299 1.327 . S
C1297 C1303 1.429 . S
C1298 C1290 1.574 1_455 S
C1298 H1293 0.949 . S
C1298 C1304 1.368 . S
C1299 C1283 1.349 . S
C1299 H1291 0.950 . S
C1299 C1297 1.327 . S
C1300 C1288 1.349 . S
C1300 H1294 0.950 . S
C1300 C1301 1.327 . S
C1301 H1295 0.950 . S
C1301 C1300 1.327 . S
C1301 C1305 1.429 . S
C1302 C1285 1.574 1_655 S
C1302 H1296 0.949 . S
C1302 C1306 1.368 . S
C1303 C1284 1.429 . S
C1303 C1297 1.429 . S
C1303 C1304 1.523 . S
C1304 C1285 1.368 . S
C1304 C1298 1.368 . S
C1304 C1303 1.523 . S
C1305 C1289 1.429 . S
C1305 C1301 1.429 . S
C1305 C1306 1.523 . S
C1306 C1290 1.368 . S
C1306 C1302 1.368 . S
C1306 C1305 1.523 . S
H1307 C1282 0.950 . S
H1308 C1284 0.950 . S
H1309 C1285 0.949 . S
H1310 C1287 0.950 . S
H1311 C1289 0.950 . S
C1312 C1313 1.349 . S
C1312 C1314 1.327 . S
C1312 H1337 0.957 . S
C1313 C1312 1.349 . S
C1313 C1329 1.349 . S
C1314 C1312 1.327 . S
C1314 C1333 1.429 . S
C1314 H1338 0.950 1_554 S
C1315 C1332 1.574 1_545 S
C1315 C1334 1.368 . S
C1315 H1339 0.949 . S
H1316 C1320 0.949 . S
C1317 C1318 1.349 . S
C1317 C1319 1.327 . S
C1317 H1340 0.957 . S
C1318 C1317 1.349 . S
C1318 C1330 1.349 . S
C1319 C1317 1.327 . S
C1319 C1335 1.429 . S
C1319 H1341 0.950 1_556 S
C1320 H1316 0.949 . S
C1320 C1328 1.574 1_565 S
C1320 C1336 1.368 . S
H1321 C1329 0.950 . S
H1322 C1327 0.950 . S
H1323 C1328 0.949 . S
H1324 C1330 0.950 . S
H1325 C1331 0.950 . S
H1326 C1332 0.949 . S
C1327 H1322 0.950 . S
C1327 C1329 1.327 . S
C1327 C1333 1.429 . S
C1328 C1320 1.574 1_545 S
C1328 H1323 0.949 . S
C1328 C1334 1.368 1_556 S
C1329 C1313 1.349 . S
C1329 H1321 0.950 . S
C1329 C1327 1.327 . S
C1330 C1318 1.349 . S
C1330 H1324 0.950 . S
C1330 C1331 1.327 . S
C1331 H1325 0.950 . S
C1331 C1330 1.327 . S
C1331 C1335 1.429 . S
C1332 C1315 1.574 1_565 S
C1332 H1326 0.949 . S
C1332 C1336 1.368 1_554 S
C1333 C1314 1.429 . S
C1333 C1327 1.429 . S
C1333 C1334 1.523 . S
C1334 C1315 1.368 . S
C1334 C1328 1.368 1_554 S
C1334 C1333 1.523 . S
C1335 C1319 1.429 . S
C1335 C1331 1.429 . S
C1335 C1336 1.523 . S
C1336 C1320 1.368 . S
C1336 C1332 1.368 1_556 S
C1336 C1335 1.523 . S
H1337 C1312 0.957 . S
H1338 C1314 0.950 1_556 S
H1339 C1315 0.949 . S
H1340 C1317 0.957 . S
H1341 C1319 0.950 1_554 S
C1342 C1343 1.349 . S
C1342 C1344 1.327 . S
C1342 H1367 0.950 . S
C1343 C1342 1.349 . S
C1343 C1359 1.349 . S
C1344 C1342 1.327 . S
C1344 C1363 1.429 . S
C1344 H1368 0.950 . S
C1345 C1362 1.574 1_565 S
C1345 C1364 1.368 . S
C1345 H1369 0.949 . S
H1346 C1350 0.949 . S
C1347 C1348 1.349 . S
C1347 C1349 1.327 . S
C1347 H1370 0.950 . S
C1348 C1347 1.349 . S
C1348 C1360 1.349 . S
C1349 C1347 1.327 . S
C1349 C1365 1.429 . S
C1349 H1371 0.950 . S
C1350 H1346 0.949 . S
C1350 C1358 1.574 1_545 S
C1350 C1366 1.368 . S
H1351 C1359 0.950 . S
H1352 C1357 0.950 . S
H1353 C1358 0.949 . S
H1354 C1360 0.950 . S
H1355 C1361 0.950 . S
H1356 C1362 0.949 . S
C1357 H1352 0.950 . S
C1357 C1359 1.327 . S
C1357 C1363 1.429 . S
C1358 C1350 1.574 1_565 S
C1358 H1353 0.949 . S
C1358 C1364 1.368 . S
C1359 C1343 1.349 . S
C1359 H1351 0.950 . S
C1359 C1357 1.327 . S
C1360 C1348 1.349 . S
C1360 H1354 0.950 . S
C1360 C1361 1.327 . S
C1361 H1355 0.950 . S
C1361 C1360 1.327 . S
C1361 C1365 1.429 . S
C1362 C1345 1.574 1_545 S
C1362 H1356 0.949 . S
C1362 C1366 1.368 . S
C1363 C1344 1.429 . S
C1363 C1357 1.429 . S
C1363 C1364 1.523 . S
C1364 C1345 1.368 . S
C1364 C1358 1.368 . S
C1364 C1363 1.523 . S
C1365 C1349 1.429 . S
C1365 C1361 1.429 . S
C1365 C1366 1.523 . S
C1366 C1350 1.368 . S
C1366 C1362 1.368 . S
C1366 C1365 1.523 . S
H1367 C1342 0.950 . S
H1368 C1344 0.950 . S
H1369 C1345 0.949 . S
H1370 C1347 0.950 . S
H1371 C1349 0.950 . S
C1372 C1373 1.349 . S
C1372 C1374 1.327 . S
C1372 H1397 0.950 . S
C1373 C1372 1.349 . S
C1373 C1389 1.349 . S
C1374 C1372 1.327 . S
C1374 C1393 1.429 . S
C1374 H1398 0.950 . S
C1375 C1392 1.574 1_545 S
C1375 C1394 1.368 1_556 S
C1375 H1399 0.949 . S
H1376 C1380 0.949 . S
C1377 C1378 1.349 . S
C1377 C1379 1.327 . S
C1377 H1400 0.950 . S
C1378 C1377 1.349 . S
C1378 C1390 1.349 . S
C1379 C1377 1.327 . S
C1379 C1395 1.429 . S
C1379 H1401 0.950 . S
C1380 H1376 0.949 . S
C1380 C1388 1.574 1_565 S
C1380 C1396 1.368 1_554 S
H1381 C1389 0.955 . S
H1382 C1387 0.950 1_556 S
H1383 C1388 0.949 . S
H1384 C1390 0.955 . S
H1385 C1391 0.950 1_554 S
H1386 C1392 0.949 . S
C1387 H1382 0.950 1_554 S
C1387 C1389 1.327 . S
C1387 C1393 1.429 . S
C1388 C1380 1.574 1_545 S
C1388 H1383 0.949 . S
C1388 C1394 1.368 . S
C1389 C1373 1.349 . S
C1389 H1381 0.955 . S
C1389 C1387 1.327 . S
C1390 C1378 1.349 . S
C1390 H1384 0.955 . S
C1390 C1391 1.327 . S
C1391 H1385 0.950 1_556 S
C1391 C1390 1.327 . S
C1391 C1395 1.429 . S
C1392 C1375 1.574 1_565 S
C1392 H1386 0.949 . S
C1392 C1396 1.368 . S
C1393 C1374 1.429 . S
C1393 C1387 1.429 . S
C1393 C1394 1.523 . S
C1394 C1375 1.368 1_554 S
C1394 C1388 1.368 . S
C1394 C1393 1.523 . S
C1395 C1379 1.429 . S
C1395 C1391 1.429 . S
C1395 C1396 1.523 . S
C1396 C1380 1.368 1_556 S
C1396 C1392 1.368 . S
C1396 C1395 1.523 . S
H1397 C1372 0.950 . S
H1398 C1374 0.950 . S
H1399 C1375 0.949 . S
H1400 C1377 0.950 . S
H1401 C1379 0.950 . S
C1402 C1403 1.349 . S
C1402 C1404 1.327 . S
C1402 H1427 0.950 . S
C1403 C1402 1.349 . S
C1403 C1419 1.349 . S
C1404 C1402 1.327 . S
C1404 C1423 1.429 . S
C1404 H1428 0.950 . S
C1405 C1422 1.574 1_545 S
C1405 C1424 1.368 . S
C1405 H1429 0.949 . S
H1406 C1410 0.949 . S
C1407 C1408 1.349 . S
C1407 C1409 1.327 . S
C1407 H1430 0.950 . S
C1408 C1407 1.349 . S
C1408 C1420 1.349 . S
C1409 C1407 1.327 . S
C1409 C1425 1.429 . S
C1409 H1431 0.950 . S
C1410 H1406 0.949 . S
C1410 C1418 1.574 1_565 S
C1410 C1426 1.368 . S
H1411 C1419 0.950 . S
H1412 C1417 0.950 . S
H1413 C1418 0.949 . S
H1414 C1420 0.950 . S
H1415 C1421 0.950 . S
H1416 C1422 0.949 . S
C1417 H1412 0.950 . S
C1417 C1419 1.327 . S
C1417 C1423 1.429 . S
C1418 C1410 1.574 1_545 S
C1418 H1413 0.949 . S
C1418 C1424 1.368 . S
C1419 C1403 1.349 . S
C1419 H1411 0.950 . S
C1419 C1417 1.327 . S
C1420 C1408 1.349 . S
C1420 H1414 0.950 . S
C1420 C1421 1.327 . S
C1421 H1415 0.950 . S
C1421 C1420 1.327 . S
C1421 C1425 1.429 . S
C1422 C1405 1.574 1_565 S
C1422 H1416 0.949 . S
C1422 C1426 1.368 . S
C1423 C1404 1.429 . S
C1423 C1417 1.429 . S
C1423 C1424 1.523 . S
C1424 C1405 1.368 . S
C1424 C1418 1.368 . S
C1424 C1423 1.523 . S
C1425 C1409 1.429 . S
C1425 C1421 1.429 . S
C1425 C1426 1.523 . S
C1426 C1410 1.368 . S
C1426 C1422 1.368 . S
C1426 C1425 1.523 . S
H1427 C1402 0.950 . S
H1428 C1404 0.950 . S
H1429 C1405 0.949 . S
H1430 C1407 0.950 . S
H1431 C1409 0.950 . S
C1432 C1433 1.349 . S
C1432 C1434 1.327 . S
C1432 H1457 0.950 . S
C1433 C1432 1.349 . S
C1433 C1449 1.349 . S
C1434 C1432 1.327 . S
C1434 C1453 1.429 . S
C1434 H1458 0.950 . S
C1435 C1452 1.574 . S
C1435 C1454 1.368 1_556 S
C1435 H1459 0.949 . S
H1436 C1440 0.949 . S
C1437 C1438 1.349 . S
C1437 C1439 1.327 . S
C1437 H1460 0.950 . S
C1438 C1437 1.349 . S
C1438 C1450 1.349 . S
C1439 C1437 1.327 . S
C1439 C1455 1.429 . S
C1439 H1461 0.950 . S
C1440 H1436 0.949 . S
C1440 C1448 1.574 . S
C1440 C1456 1.368 1_554 S
H1441 C1449 0.950 . S
H1442 C1447 0.950 1_556 S
H1443 C1448 0.949 . S
H1444 C1450 0.950 . S
H1445 C1451 0.950 1_554 S
H1446 C1452 0.949 . S
C1447 H1442 0.950 1_554 S
C1447 C1449 1.327 . S
C1447 C1453 1.429 . S
C1448 C1440 1.574 . S
C1448 H1443 0.949 . S
C1448 C1454 1.368 . S
C1449 C1433 1.349 . S
C1449 H1441 0.950 . S
C1449 C1447 1.327 . S
C1450 C1438 1.349 . S
C1450 H1444 0.950 . S
C1450 C1451 1.327 . S
C1451 H1445 0.950 1_556 S
C1451 C1450 1.327 . S
C1451 C1455 1.429 . S
C1452 C1435 1.574 . S
C1452 H1446 0.949 . S
C1452 C1456 1.368 . S
C1453 C1434 1.429 . S
C1453 C1447 1.429 . S
C1453 C1454 1.523 . S
C1454 C1435 1.368 1_554 S
C1454 C1448 1.368 . S
C1454 C1453 1.523 . S
C1455 C1439 1.429 . S
C1455 C1451 1.429 . S
C1455 C1456 1.523 . S
C1456 C1440 1.368 1_556 S
C1456 C1452 1.368 . S
C1456 C1455 1.523 . S
H1457 C1432 0.950 . S
H1458 C1434 0.950 . S
H1459 C1435 0.949 . S
H1460 C1437 0.950 . S
H1461 C1439 0.950 . S
C1462 C1463 1.349 . S
C1462 C1464 1.327 . S
C1462 H1487 0.950 . S
C1463 C1462 1.349 . S
C1463 C1479 1.349 . S
C1464 C1462 1.327 . S
C1464 C1483 1.429 . S
C1464 H1488 0.950 . S
C1465 C1482 1.574 . S
C1465 C1484 1.368 . S
C1465 H1489 0.949 . S
H1466 C1470 0.949 . S
C1467 C1468 1.349 . S
C1467 C1469 1.327 . S
C1467 H1490 0.950 . S
C1468 C1467 1.349 . S
C1468 C1480 1.349 . S
C1469 C1467 1.327 . S
C1469 C1485 1.429 . S
C1469 H1491 0.950 . S
C1470 H1466 0.949 . S
C1470 C1478 1.574 . S
C1470 C1486 1.368 . S
H1471 C1479 0.950 . S
H1472 C1477 0.950 . S
H1473 C1478 0.949 . S
H1474 C1480 0.950 . S
H1475 C1481 0.950 . S
H1476 C1482 0.949 . S
C1477 H1472 0.950 . S
C1477 C1479 1.327 . S
C1477 C1483 1.429 . S
C1478 C1470 1.574 . S
C1478 H1473 0.949 . S
C1478 C1484 1.368 . S
C1479 C1463 1.349 . S
C1479 H1471 0.950 . S
C1479 C1477 1.327 . S
C1480 C1468 1.349 . S
C1480 H1474 0.950 . S
C1480 C1481 1.327 . S
C1481 H1475 0.950 . S
C1481 C1480 1.327 . S
C1481 C1485 1.429 . S
C1482 C1465 1.574 . S
C1482 H1476 0.949 . S
C1482 C1486 1.368 . S
C1483 C1464 1.429 . S
C1483 C1477 1.429 . S
C1483 C1484 1.523 . S
C1484 C1465 1.368 . S
C1484 C1478 1.368 . S
C1484 C1483 1.523 . S
C1485 C1469 1.429 . S
C1485 C1481 1.429 . S
C1485 C1486 1.523 . S
C1486 C1470 1.368 . S
C1486 C1482 1.368 . S
C1486 C1485 1.523 . S
H1487 C1462 0.950 . S
H1488 C1464 0.950 . S
H1489 C1465 0.949 . S
H1490 C1467 0.950 . S
H1491 C1469 0.950 . S
C1492 C1493 1.349 . S
C1492 C1494 1.327 . S
C1492 H1517 0.950 . S
C1493 C1492 1.349 . S
C1493 C1509 1.349 . S
C1494 C1492 1.327 . S
C1494 C1513 1.429 . S
C1494 H1518 0.950 . S
C1495 C1512 1.574 . S
C1495 C1514 1.368 1_554 S
C1495 H1519 0.949 . S
H1496 C1500 0.949 . S
C1497 C1498 1.349 . S
C1497 C1499 1.327 . S
C1497 H1520 0.950 . S
C1498 C1497 1.349 . S
C1498 C1510 1.349 . S
C1499 C1497 1.327 . S
C1499 C1515 1.429 . S
C1499 H1521 0.950 . S
C1500 H1496 0.949 . S
C1500 C1508 1.574 . S
C1500 C1516 1.368 1_556 S
H1501 C1509 0.953 . S
H1502 C1507 0.950 1_554 S
H1503 C1508 0.949 . S
H1504 C1510 0.953 . S
H1505 C1511 0.950 1_556 S
H1506 C1512 0.949 . S
C1507 H1502 0.950 1_556 S
C1507 C1509 1.327 . S
C1507 C1513 1.429 . S
C1508 C1500 1.574 . S
C1508 H1503 0.949 . S
C1508 C1514 1.368 . S
C1509 C1493 1.349 . S
C1509 H1501 0.953 . S
C1509 C1507 1.327 . S
C1510 C1498 1.349 . S
C1510 H1504 0.953 . S
C1510 C1511 1.327 . S
C1511 H1505 0.950 1_554 S
C1511 C1510 1.327 . S
C1511 C1515 1.429 . S
C1512 C1495 1.574 . S
C1512 H1506 0.949 . S
C1512 C1516 1.368 . S
C1513 C1494 1.429 . S
C1513 C1507 1.429 . S
C1513 C1514 1.523 . S
C1514 C1495 1.368 1_556 S
C1514 C1508 1.368 . S
C1514 C1513 1.523 . S
C1515 C1499 1.429 . S
C1515 C1511 1.429 . S
C1515 C1516 1.523 . S
C1516 C1500 1.368 1_554 S
C1516 C1512 1.368 . S
C1516 C1515 1.523 . S
H1517 C1492 0.950 . S
H1518 C1494 0.950 . S
H1519 C1495 0.949 . S
H1520 C1497 0.950 . S
H1521 C1499 0.950 . S
C1522 C1523 1.349 . S
C1522 C1524 1.327 . S
C1522 H1547 0.950 . S
C1523 C1522 1.349 . S
C1523 C1539 1.349 . S
C1524 C1522 1.327 . S
C1524 C1543 1.429 . S
C1524 H1548 0.950 . S
C1525 C1542 1.574 . S
C1525 C1544 1.368 . S
C1525 H1549 0.949 . S
H1526 C1530 0.949 . S
C1527 C1528 1.349 . S
C1527 C1529 1.327 . S
C1527 H1550 0.950 . S
C1528 C1527 1.349 . S
C1528 C1540 1.349 . S
C1529 C1527 1.327 . S
C1529 C1545 1.429 . S
C1529 H1551 0.950 . S
C1530 H1526 0.949 . S
C1530 C1538 1.574 . S
C1530 C1546 1.368 . S
H1531 C1539 0.950 . S
H1532 C1537 0.950 . S
H1533 C1538 0.949 . S
H1534 C1540 0.950 . S
H1535 C1541 0.950 . S
H1536 C1542 0.949 . S
C1537 H1532 0.950 . S
C1537 C1539 1.327 . S
C1537 C1543 1.429 . S
C1538 C1530 1.574 . S
C1538 H1533 0.949 . S
C1538 C1544 1.368 . S
C1539 C1523 1.349 . S
C1539 H1531 0.950 . S
C1539 C1537 1.327 . S
C1540 C1528 1.349 . S
C1540 H1534 0.950 . S
C1540 C1541 1.327 . S
C1541 H1535 0.950 . S
C1541 C1540 1.327 . S
C1541 C1545 1.429 . S
C1542 C1525 1.574 . S
C1542 H1536 0.949 . S
C1542 C1546 1.368 . S
C1543 C1524 1.429 . S
C1543 C1537 1.429 . S
C1543 C1544 1.523 . S
C1544 C1525 1.368 . S
C1544 C1538 1.368 . S
C1544 C1543 1.523 . S
C1545 C1529 1.429 . S
C1545 C1541 1.429 . S
C1545 C1546 1.523 . S
C1546 C1530 1.368 . S
C1546 C1542 1.368 . S
C1546 C1545 1.523 . S
H1547 C1522 0.950 . S
H1548 C1524 0.950 . S
H1549 C1525 0.949 . S
H1550 C1527 0.950 . S
H1551 C1529 0.950 . S
C1552 C1553 1.349 . S
C1552 C1554 1.327 . S
C1552 H1577 0.950 . S
C1553 C1552 1.349 . S
C1553 C1569 1.349 . S
C1554 C1552 1.327 . S
C1554 C1573 1.429 . S
C1554 H1578 0.950 1_554 S
C1555 C1572 1.574 . S
C1555 C1574 1.368 . S
C1555 H1579 0.949 . S
H1556 C1560 0.949 . S
C1557 C1558 1.349 . S
C1557 C1559 1.327 . S
C1557 H1580 0.950 . S
C1558 C1557 1.349 . S
C1558 C1570 1.349 . S
C1559 C1557 1.327 . S
C1559 C1575 1.429 . S
C1559 H1581 0.950 1_556 S
C1560 H1556 0.949 . S
C1560 C1568 1.574 . S
C1560 C1576 1.368 . S
H1561 C1569 0.950 . S
H1562 C1567 0.950 . S
H1563 C1568 0.949 . S
H1564 C1570 0.950 . S
H1565 C1571 0.950 . S
H1566 C1572 0.949 . S
C1567 H1562 0.950 . S
C1567 C1569 1.327 . S
C1567 C1573 1.429 . S
C1568 C1560 1.574 . S
C1568 H1563 0.949 . S
C1568 C1574 1.368 1_556 S
C1569 C1553 1.349 . S
C1569 H1561 0.950 . S
C1569 C1567 1.327 . S
C1570 C1558 1.349 . S
C1570 H1564 0.950 . S
C1570 C1571 1.327 . S
C1571 H1565 0.950 . S
C1571 C1570 1.327 . S
C1571 C1575 1.429 . S
C1572 C1555 1.574 . S
C1572 H1566 0.949 . S
C1572 C1576 1.368 1_554 S
C1573 C1554 1.429 . S
C1573 C1567 1.429 . S
C1573 C1574 1.523 . S
C1574 C1555 1.368 . S
C1574 C1568 1.368 1_554 S
C1574 C1573 1.523 . S
C1575 C1559 1.429 . S
C1575 C1571 1.429 . S
C1575 C1576 1.523 . S
C1576 C1560 1.368 . S
C1576 C1572 1.368 1_556 S
C1576 C1575 1.523 . S
H1577 C1552 0.950 . S
H1578 C1554 0.950 1_556 S
H1579 C1555 0.949 . S
H1580 C1557 0.950 . S
H1581 C1559 0.950 1_554 S
C1582 C1583 1.349 . S
C1582 C1584 1.327 . S
C1582 H1607 0.950 . S
C1583 C1582 1.349 . S
C1583 C1599 1.349 . S
C1584 C1582 1.327 . S
C1584 C1603 1.429 . S
C1584 H1608 0.950 . S
C1585 C1602 1.574 . S
C1585 C1604 1.368 . S
C1585 H1609 0.949 . S
H1586 C1590 0.949 . S
C1587 C1588 1.349 . S
C1587 C1589 1.327 . S
C1587 H1610 0.950 . S
C1588 C1587 1.349 . S
C1588 C1600 1.349 . S
C1589 C1587 1.327 . S
C1589 C1605 1.429 . S
C1589 H1611 0.950 . S
C1590 H1586 0.949 . S
C1590 C1598 1.574 . S
C1590 C1606 1.368 . S
H1591 C1599 0.950 . S
H1592 C1597 0.950 . S
H1593 C1598 0.949 . S
H1594 C1600 0.950 . S
H1595 C1601 0.950 . S
H1596 C1602 0.949 . S
C1597 H1592 0.950 . S
C1597 C1599 1.327 . S
C1597 C1603 1.429 . S
C1598 C1590 1.574 . S
C1598 H1593 0.949 . S
C1598 C1604 1.368 . S
C1599 C1583 1.349 . S
C1599 H1591 0.950 . S
C1599 C1597 1.327 . S
C1600 C1588 1.349 . S
C1600 H1594 0.950 . S
C1600 C1601 1.327 . S
C1601 H1595 0.950 . S
C1601 C1600 1.327 . S
C1601 C1605 1.429 . S
C1602 C1585 1.574 . S
C1602 H1596 0.949 . S
C1602 C1606 1.368 . S
C1603 C1584 1.429 . S
C1603 C1597 1.429 . S
C1603 C1604 1.523 . S
C1604 C1585 1.368 . S
C1604 C1598 1.368 . S
C1604 C1603 1.523 . S
C1605 C1589 1.429 . S
C1605 C1601 1.429 . S
C1605 C1606 1.523 . S
C1606 C1590 1.368 . S
C1606 C1602 1.368 . S
C1606 C1605 1.523 . S
H1607 C1582 0.950 . S
H1608 C1584 0.950 . S
H1609 C1585 0.949 . S
H1610 C1587 0.950 . S
H1611 C1589 0.950 . S
C1612 C1613 1.349 . S
C1612 C1614 1.327 . S
C1612 H1637 0.950 . S
C1613 C1612 1.349 . S
C1613 C1629 1.349 . S
C1614 C1612 1.327 . S
C1614 C1633 1.429 . S
C1614 H1638 0.950 1_556 S
C1615 C1632 1.574 . S
C1615 C1634 1.368 . S
C1615 H1639 0.949 . S
H1616 C1620 0.949 . S
C1617 C1618 1.349 . S
C1617 C1619 1.327 . S
C1617 H1640 0.950 . S
C1618 C1617 1.349 . S
C1618 C1630 1.349 . S
C1619 C1617 1.327 . S
C1619 C1635 1.429 . S
C1619 H1641 0.950 1_554 S
C1620 H1616 0.949 . S
C1620 C1628 1.574 . S
C1620 C1636 1.368 . S
H1621 C1629 0.950 . S
H1622 C1627 0.950 . S
H1623 C1628 0.949 . S
H1624 C1630 0.950 . S
H1625 C1631 0.950 . S
H1626 C1632 0.949 . S
C1627 H1622 0.950 . S
C1627 C1629 1.327 . S
C1627 C1633 1.429 . S
C1628 C1620 1.574 . S
C1628 H1623 0.949 . S
C1628 C1634 1.368 1_554 S
C1629 C1613 1.349 . S
C1629 H1621 0.950 . S
C1629 C1627 1.327 . S
C1630 C1618 1.349 . S
C1630 H1624 0.950 . S
C1630 C1631 1.327 . S
C1631 H1625 0.950 . S
C1631 C1630 1.327 . S
C1631 C1635 1.429 . S
C1632 C1615 1.574 . S
C1632 H1626 0.949 . S
C1632 C1636 1.368 1_556 S
C1633 C1614 1.429 . S
C1633 C1627 1.429 . S
C1633 C1634 1.523 . S
C1634 C1615 1.368 . S
C1634 C1628 1.368 1_556 S
C1634 C1633 1.523 . S
C1635 C1619 1.429 . S
C1635 C1631 1.429 . S
C1635 C1636 1.523 . S
C1636 C1620 1.368 . S
C1636 C1632 1.368 1_554 S
C1636 C1635 1.523 . S
H1637 C1612 0.950 . S
H1638 C1614 0.950 1_554 S
H1639 C1615 0.949 . S
H1640 C1617 0.950 . S
H1641 C1619 0.950 1_556 S
C1642 C1643 1.349 . S
C1642 C1644 1.327 . S
C1642 H1667 0.950 . S
C1643 C1642 1.349 . S
C1643 C1659 1.349 . S
C1644 C1642 1.327 . S
C1644 C1663 1.429 . S
C1644 H1668 0.950 . S
C1645 C1662 1.574 . S
C1645 C1664 1.368 . S
C1645 H1669 0.949 . S
H1646 C1650 0.949 . S
C1647 C1648 1.349 . S
C1647 C1649 1.327 . S
C1647 H1670 0.950 . S
C1648 C1647 1.349 . S
C1648 C1660 1.349 . S
C1649 C1647 1.327 . S
C1649 C1665 1.429 . S
C1649 H1671 0.950 . S
C1650 H1646 0.949 . S
C1650 C1658 1.574 . S
C1650 C1666 1.368 . S
H1651 C1659 0.950 . S
H1652 C1657 0.950 . S
H1653 C1658 0.949 . S
H1654 C1660 0.950 . S
H1655 C1661 0.950 . S
H1656 C1662 0.949 . S
C1657 H1652 0.950 . S
C1657 C1659 1.327 . S
C1657 C1663 1.429 . S
C1658 C1650 1.574 . S
C1658 H1653 0.949 . S
C1658 C1664 1.368 . S
C1659 C1643 1.349 . S
C1659 H1651 0.950 . S
C1659 C1657 1.327 . S
C1660 C1648 1.349 . S
C1660 H1654 0.950 . S
C1660 C1661 1.327 . S
C1661 H1655 0.950 . S
C1661 C1660 1.327 . S
C1661 C1665 1.429 . S
C1662 C1645 1.574 . S
C1662 H1656 0.949 . S
C1662 C1666 1.368 . S
C1663 C1644 1.429 . S
C1663 C1657 1.429 . S
C1663 C1664 1.523 . S
C1664 C1645 1.368 . S
C1664 C1658 1.368 . S
C1664 C1663 1.523 . S
C1665 C1649 1.429 . S
C1665 C1661 1.429 . S
C1665 C1666 1.523 . S
C1666 C1650 1.368 . S
C1666 C1662 1.368 . S
C1666 C1665 1.523 . S
H1667 C1642 0.950 . S
H1668 C1644 0.950 . S
H1669 C1645 0.949 . S
H1670 C1647 0.950 . S
H1671 C1649 0.950 . S
C1672 C1673 1.349 . S
C1672 C1674 1.327 . S
C1672 H1697 0.950 . S
C1673 C1672 1.349 . S
C1673 C1689 1.349 . S
C1674 C1672 1.327 . S
C1674 C1693 1.429 . S
C1674 H1698 0.950 . S
C1675 C1692 1.574 . S
C1675 C1694 1.368 . S
C1675 H1699 0.949 . S
H1676 C1680 0.949 . S
C1677 C1678 1.349 . S
C1677 C1679 1.327 . S
C1677 H1700 0.950 . S
C1678 C1677 1.349 . S
C1678 C1690 1.349 . S
C1679 C1677 1.327 . S
C1679 C1695 1.429 . S
C1679 H1701 0.950 . S
C1680 H1676 0.949 . S
C1680 C1688 1.574 . S
C1680 C1696 1.368 . S
H1681 C1689 0.950 . S
H1682 C1687 0.950 . S
H1683 C1688 0.949 . S
H1684 C1690 0.950 . S
H1685 C1691 0.950 . S
H1686 C1692 0.949 . S
C1687 H1682 0.950 . S
C1687 C1689 1.327 . S
C1687 C1693 1.429 . S
C1688 C1680 1.574 . S
C1688 H1683 0.949 . S
C1688 C1694 1.368 1_554 S
C1689 C1673 1.349 . S
C1689 H1681 0.950 . S
C1689 C1687 1.327 . S
C1690 C1678 1.349 . S
C1690 H1684 0.950 . S
C1690 C1691 1.327 . S
C1691 H1685 0.950 . S
C1691 C1690 1.327 . S
C1691 C1695 1.429 . S
C1692 C1675 1.574 . S
C1692 H1686 0.949 . S
C1692 C1696 1.368 1_556 S
C1693 C1674 1.429 . S
C1693 C1687 1.429 . S
C1693 C1694 1.523 . S
C1694 C1675 1.368 . S
C1694 C1688 1.368 1_556 S
C1694 C1693 1.523 . S
C1695 C1679 1.429 . S
C1695 C1691 1.429 . S
C1695 C1696 1.523 . S
C1696 C1680 1.368 . S
C1696 C1692 1.368 1_554 S
C1696 C1695 1.523 . S
H1697 C1672 0.950 . S
H1698 C1674 0.950 . S
H1699 C1675 0.949 . S
H1700 C1677 0.950 . S
H1701 C1679 0.950 . S
C1702 C1703 1.349 . S
C1702 C1704 1.327 . S
C1702 H1727 0.950 . S
C1703 C1702 1.349 . S
C1703 C1719 1.349 . S
C1704 C1702 1.327 . S
C1704 C1723 1.429 . S
C1704 H1728 0.950 . S
C1705 C1722 1.574 . S
C1705 C1724 1.368 . S
C1705 H1729 0.949 . S
H1706 C1710 0.949 . S
C1707 C1708 1.349 . S
C1707 C1709 1.327 . S
C1707 H1730 0.950 . S
C1708 C1707 1.349 . S
C1708 C1720 1.349 . S
C1709 C1707 1.327 . S
C1709 C1725 1.429 . S
C1709 H1731 0.950 . S
C1710 H1706 0.949 . S
C1710 C1718 1.574 . S
C1710 C1726 1.368 . S
H1711 C1719 0.950 . S
H1712 C1717 0.950 . S
H1713 C1718 0.949 . S
H1714 C1720 0.950 . S
H1715 C1721 0.950 . S
H1716 C1722 0.949 . S
C1717 H1712 0.950 . S
C1717 C1719 1.327 . S
C1717 C1723 1.429 . S
C1718 C1710 1.574 . S
C1718 H1713 0.949 . S
C1718 C1724 1.368 . S
C1719 C1703 1.349 . S
C1719 H1711 0.950 . S
C1719 C1717 1.327 . S
C1720 C1708 1.349 . S
C1720 H1714 0.950 . S
C1720 C1721 1.327 . S
C1721 H1715 0.950 . S
C1721 C1720 1.327 . S
C1721 C1725 1.429 . S
C1722 C1705 1.574 . S
C1722 H1716 0.949 . S
C1722 C1726 1.368 . S
C1723 C1704 1.429 . S
C1723 C1717 1.429 . S
C1723 C1724 1.523 . S
C1724 C1705 1.368 . S
C1724 C1718 1.368 . S
C1724 C1723 1.523 . S
C1725 C1709 1.429 . S
C1725 C1721 1.429 . S
C1725 C1726 1.523 . S
C1726 C1710 1.368 . S
C1726 C1722 1.368 . S
C1726 C1725 1.523 . S
H1727 C1702 0.950 . S
H1728 C1704 0.950 . S
H1729 C1705 0.949 . S
H1730 C1707 0.950 . S
H1731 C1709 0.950 . S
C1732 C1733 1.349 . S
C1732 C1734 1.327 . S
C1732 H1757 0.950 . S
C1733 C1732 1.349 . S
C1733 C1749 1.349 . S
C1734 C1732 1.327 . S
C1734 C1753 1.429 . S
C1734 H1758 0.950 1_556 S
C1735 C1752 1.574 . S
C1735 C1754 1.368 . S
C1735 H1759 0.949 . S
H1736 C1740 0.949 . S
C1737 C1738 1.349 . S
C1737 C1739 1.327 . S
C1737 H1760 0.950 . S
C1738 C1737 1.349 . S
C1738 C1750 1.349 . S
C1739 C1737 1.327 . S
C1739 C1755 1.429 . S
C1739 H1761 0.950 1_554 S
C1740 H1736 0.949 . S
C1740 C1748 1.574 . S
C1740 C1756 1.368 . S
H1741 C1749 0.950 . S
H1742 C1747 0.950 . S
H1743 C1748 0.949 . S
H1744 C1750 0.950 . S
H1745 C1751 0.950 . S
H1746 C1752 0.949 . S
C1747 H1742 0.950 . S
C1747 C1749 1.327 . S
C1747 C1753 1.429 . S
C1748 C1740 1.574 . S
C1748 H1743 0.949 . S
C1748 C1754 1.368 1_554 S
C1749 C1733 1.349 . S
C1749 H1741 0.950 . S
C1749 C1747 1.327 . S
C1750 C1738 1.349 . S
C1750 H1744 0.950 . S
C1750 C1751 1.327 . S
C1751 H1745 0.950 . S
C1751 C1750 1.327 . S
C1751 C1755 1.429 . S
C1752 C1735 1.574 . S
C1752 H1746 0.949 . S
C1752 C1756 1.368 1_556 S
C1753 C1734 1.429 . S
C1753 C1747 1.429 . S
C1753 C1754 1.523 . S
C1754 C1735 1.368 . S
C1754 C1748 1.368 1_556 S
C1754 C1753 1.523 . S
C1755 C1739 1.429 . S
C1755 C1751 1.429 . S
C1755 C1756 1.523 . S
C1756 C1740 1.368 . S
C1756 C1752 1.368 1_554 S
C1756 C1755 1.523 . S
H1757 C1732 0.950 . S
H1758 C1734 0.950 1_554 S
H1759 C1735 0.949 . S
H1760 C1737 0.950 . S
H1761 C1739 0.950 1_556 S
C1762 C1763 1.349 . S
C1762 C1764 1.327 . S
C1762 H1787 0.950 . S
C1763 C1762 1.349 . S
C1763 C1779 1.349 . S
C1764 C1762 1.327 . S
C1764 C1783 1.429 . S
C1764 H1788 0.950 . S
C1765 C1782 1.574 . S
C1765 C1784 1.368 . S
C1765 H1789 0.949 . S
H1766 C1770 0.949 . S
C1767 C1768 1.349 . S
C1767 C1769 1.327 . S
C1767 H1790 0.950 . S
C1768 C1767 1.349 . S
C1768 C1780 1.349 . S
C1769 C1767 1.327 . S
C1769 C1785 1.429 . S
C1769 H1791 0.950 . S
C1770 H1766 0.949 . S
C1770 C1778 1.574 . S
C1770 C1786 1.368 . S
H1771 C1779 0.950 . S
H1772 C1777 0.950 . S
H1773 C1778 0.949 . S
H1774 C1780 0.950 . S
H1775 C1781 0.950 . S
H1776 C1782 0.949 . S
C1777 H1772 0.950 . S
C1777 C1779 1.327 . S
C1777 C1783 1.429 . S
C1778 C1770 1.574 . S
C1778 H1773 0.949 . S
C1778 C1784 1.368 . S
C1779 C1763 1.349 . S
C1779 H1771 0.950 . S
C1779 C1777 1.327 . S
C1780 C1768 1.349 . S
C1780 H1774 0.950 . S
C1780 C1781 1.327 . S
C1781 H1775 0.950 . S
C1781 C1780 1.327 . S
C1781 C1785 1.429 . S
C1782 C1765 1.574 . S
C1782 H1776 0.949 . S
C1782 C1786 1.368 . S
C1783 C1764 1.429 . S
C1783 C1777 1.429 . S
C1783 C1784 1.523 . S
C1784 C1765 1.368 . S
C1784 C1778 1.368 . S
C1784 C1783 1.523 . S
C1785 C1769 1.429 . S
C1785 C1781 1.429 . S
C1785 C1786 1.523 . S
C1786 C1770 1.368 . S
C1786 C1782 1.368 . S
C1786 C1785 1.523 . S
H1787 C1762 0.950 . S
H1788 C1764 0.950 . S
H1789 C1765 0.949 . S
H1790 C1767 0.950 . S
H1791 C1769 0.950 . S
C353 C15 1.258 . S
C358 C73 1.258 . S
C383 C59 1.258 . S
C388 C29 1.258 . S
C413 C169 1.272 . S
C418 C109 1.272 . S
C443 C117 1.272 . S
C448 C153 1.272 . S
C473 C257 1.258 . S
C478 C191 1.258 . S
C503 C235 1.258 . S
C508 C205 1.258 . S
C533 C285 1.272 . S
C538 C345 1.272 . S
C563 C323 1.272 . S
C568 C293 1.272 . S
C593 C8 1.505 . S
C598 C351 1.551 . S
C623 C32 1.505 . S
C628 C329 1.551 . S
C653 C301 1.551 . S
C658 C52 1.505 . S
C683 C271 1.551 . S
C688 C76 1.505 . S
C713 C98 1.517 . S
C718 C249 1.558 . S
C743 C118 1.517 . S
C748 C227 1.558 . S
C773 C219 1.558 . S
C778 C142 1.517 . S
C803 C183 1.558 . S
C808 C172 1.517 . S
C833 C184 1.505 . S
C838 C175 1.551 . S
C863 C208 1.505 . S
C868 C139 1.551 . S
C893 C228 1.505 . S
C898 C125 1.551 . S
C923 C250 1.505 . S
C928 C95 1.551 . S
C953 C87 1.558 . S
C958 C274 1.517 . S
C983 C51 1.558 . S
C988 C294 1.517 . S
C1013 C326 1.517 . S
C1018 C43 1.558 . S
C1043 C348 1.517 . S
C1048 C7 1.558 . S
C1073 C18 1.420 . S
C1078 C150 1.420 . S
C1103 C30 1.420 . S
C1108 C162 1.420 . S
C1133 C106 1.420 . S
C1138 C62 1.420 . S
C1163 C74 1.420 . S
C1168 C120 1.420 . S
C1193 C194 1.420 . S
C1198 C316 1.420 . S
C1223 C206 1.420 . S
C1228 C338 1.420 . S
C1253 C238 1.420 . S
C1258 C282 1.420 . S
C1283 C296 1.420 . S
C1288 C260 1.420 . S
C1313 C10 1.546 . S
C1318 C54 1.546 . S
C1343 C40 1.546 . S
C1348 C84 1.546 . S
C1373 C140 1.541 . S
C1378 C96 1.541 . S
C1403 C128 1.541 . S
C1408 C164 1.541 . S
C1433 C186 1.546 . S
C1438 C230 1.546 . S
C1463 C252 1.546 . S
C1468 C216 1.546 . S
C1493 C272 1.541 . S
C1498 C318 1.541 . S
C1523 C304 1.541 . S
C1528 C340 1.541 . S
C1553 C21 0.672 . S
C1558 C279 0.670 . S
C1583 C37 0.672 . S
C1588 C307 0.670 . S
C1613 C65 0.672 . S
C1618 C315 0.670 . S
C1643 C81 0.672 . S
C1648 C337 0.670 . S
C1673 C103 0.670 . S
C1678 C197 0.672 . S
C1703 C213 0.672 . S
C1708 C131 0.670 . S
C1733 C241 0.672 . S
C1738 C147 0.670 . S
C1763 C263 0.672 . S
C1768 C161 0.670 . S
