# Generated by pormake.
# Topology fns, (5)-cn, num edge types: 1
# Building blocks:
#     Node 0, Type 0, BuildingBlock: XOMCOT_clean_sbu_0, # of connection points: 5
#     Node 1, Type 0, BuildingBlock: XOMCOT_clean_sbu_0, # of connection points: 5
#     Node 2, Type 0, BuildingBlock: XOMCOT_clean_sbu_0, # of connection points: 5
#     Node 3, Type 0, BuildingBlock: XOMCOT_clean_sbu_0, # of connection points: 5
#     Node 4, Type 0, BuildingBlock: XOMCOT_clean_sbu_0, # of connection points: 5
#     Node 5, Type 0, BuildingBlock: XOMCOT_clean_sbu_0, # of connection points: 5
#     Edge 6, Type (0, 0), BuildingBlock: TEMPAE_clean_linker_10, # of connection points: 2
#     Edge 7, Type (0, 0), BuildingBlock: TEMPAE_clean_linker_10, # of connection points: 2
#     Edge 8, Type (0, 0), BuildingBlock: TEMPAE_clean_linker_10, # of connection points: 2
#     Edge 9, Type (0, 0), BuildingBlock: TEMPAE_clean_linker_10, # of connection points: 2
#     Edge 10, Type (0, 0), BuildingBlock: TEMPAE_clean_linker_10, # of connection points: 2
#     Edge 11, Type (0, 0), BuildingBlock: TEMPAE_clean_linker_10, # of connection points: 2
#     Edge 12, Type (0, 0), BuildingBlock: TEMPAE_clean_linker_10, # of connection points: 2
#     Edge 13, Type (0, 0), BuildingBlock: TEMPAE_clean_linker_10, # of connection points: 2
#     Edge 14, Type (0, 0), BuildingBlock: TEMPAE_clean_linker_10, # of connection points: 2
#     Edge 15, Type (0, 0), BuildingBlock: TEMPAE_clean_linker_10, # of connection points: 2
#     Edge 16, Type (0, 0), BuildingBlock: TEMPAE_clean_linker_10, # of connection points: 2
#     Edge 17, Type (0, 0), BuildingBlock: TEMPAE_clean_linker_10, # of connection points: 2
#     Edge 18, Type (0, 0), BuildingBlock: TEMPAE_clean_linker_10, # of connection points: 2
#     Edge 19, Type (0, 0), BuildingBlock: TEMPAE_clean_linker_10, # of connection points: 2
#     Edge 20, Type (0, 0), BuildingBlock: TEMPAE_clean_linker_10, # of connection points: 2
# Relax obj value: 0.192
# Max RMSD: 0.296
# Mean RMSD: 0.296
data_MOF--net-fns--node1-XOMCOT_clean_sbu_0--edge1-TEMPAE_clean_linker_10
_symmetry_space_group_name_H-M    P1
_symmetry_Int_Tables_number       1
_symmetry_cell_setting            triclinic
loop_
_symmetry_equiv_pos_as_xyz
'x, y, z'
_cell_length_a     56.473911
_cell_length_b     56.378965
_cell_length_c     17.759489
_cell_angle_alpha  90.00484
_cell_angle_beta   89.999707
_cell_angle_gamma 120.11662
loop_
_atom_site_label
_atom_site_type_symbol
_atom_site_fract_x
_atom_site_fract_y
_atom_site_fract_z
_atom_type_partial_charge
Co0 Co 0.19415 0.62757 0.16647 0.0
C1 C 0.198 0.62704 0.33258 0.0
C2 C 0.21936 0.60893 0.27985 0.0
C3 C 0.22155 0.60753 0.35677 0.0
N4 N 0.20434 0.62087 0.26483 0.0
N5 N 0.20824 0.61903 0.38956 0.0
H6 H 0.18586 0.63684 0.34009 0.0
H7 H 0.2283 0.60186 0.23804 0.0
C8 C 0.18412 0.57793 0.07652 0.0
O9 O 0.16122 0.57516 0.04936 0.0
N10 N 0.18483 0.63484 0.06659 0.0
C11 C 0.1688 0.64536 0.04765 0.0
C12 C 0.16839 0.64741 0.97053 0.0
C13 C 0.19522 0.63227 1.00039 0.0
N14 N 0.18489 0.63899 0.94089 0.0
C15 C 0.13844 0.61295 0.19954 0.0
C16 C 0.1197 0.55812 0.22745 0.0
C17 C 0.10094 0.5674 0.22546 0.0
C18 C 0.11062 0.59531 0.21329 0.0
C19 C 0.14723 0.57638 0.21183 0.0
N20 N 0.15595 0.60302 0.19274 0.0
H21 H 0.14591 0.63461 0.1955 0.0
H22 H 0.16149 0.56896 0.21501 0.0
H23 H 0.15876 0.65221 0.08612 0.0
H24 H 0.20982 0.62525 0.99563 0.0
O25 O 0.1989 0.66218 0.20257 0.0
O26 O 0.23114 0.65612 0.15021 0.0
O27 O 0.19826 0.59678 0.12419 0.0
C28 C 0.22436 0.67267 0.18173 0.0
H29 H 0.23247 0.59916 0.38641 0.0
H30 H 0.15726 0.65506 0.93873 0.0
H31 H 0.11306 0.53682 0.23904 0.0
H32 H 0.09682 0.60341 0.21497 0.0
Co33 Co 0.56826 0.1948 0.49443 0.0
C34 C 0.57249 0.19919 0.66049 0.0
C35 C 0.61143 0.2243 0.6072 0.0
C36 C 0.61501 0.22717 0.68405 0.0
N37 N 0.58485 0.20658 0.59261 0.0
N38 N 0.59052 0.21143 0.71735 0.0
H39 H 0.55086 0.18492 0.66809 0.0
H40 H 0.62712 0.23462 0.56503 0.0
C41 C 0.6094 0.18681 0.40531 0.0
O42 O 0.58992 0.16383 0.37611 0.0
N43 N 0.55196 0.18366 0.39477 0.0
C44 C 0.52698 0.16292 0.37517 0.0
C45 C 0.52474 0.16201 0.29798 0.0
C46 C 0.56405 0.19575 0.32892 0.0
N47 N 0.5481 0.18254 0.26901 0.0
C48 C 0.52763 0.14074 0.54137 0.0
C49 C 0.56236 0.11988 0.55739 0.0
C50 C 0.53411 0.10217 0.56573 0.0
C51 C 0.51677 0.11316 0.56001 0.0
C52 C 0.57231 0.14736 0.53876 0.0
N53 N 0.55478 0.15697 0.52531 0.0
H54 H 0.514 0.14893 0.53882 0.0
H55 H 0.59416 0.16077 0.53557 0.0
H56 H 0.51111 0.14927 0.41306 0.0
H57 H 0.58456 0.21321 0.32483 0.0
O58 O 0.53797 0.19936 0.52686 0.0
O59 O 0.57618 0.23144 0.47351 0.0
O60 O 0.60377 0.19966 0.45483 0.0
C61 C 0.5527 0.22463 0.50396 0.0
H62 H 0.63407 0.24017 0.71323 0.0
H63 H 0.50722 0.14737 0.26555 0.0
H64 H 0.57665 0.11251 0.56343 0.0
H65 H 0.49495 0.10054 0.56956 0.0
Co66 Co 0.37813 0.57644 0.84878 0.0
C67 C 0.37831 0.58104 0.01495 0.0
C68 C 0.39512 0.62033 0.96102 0.0
C69 C 0.39649 0.6242 0.03782 0.0
N70 N 0.38399 0.59333 0.94686 0.0
N71 N 0.38587 0.5995 0.07149 0.0
H72 H 0.36931 0.55915 0.02293 0.0
H73 H 0.40173 0.63613 0.91857 0.0
C74 C 0.42893 0.61439 0.76054 0.0
O75 O 0.4301 0.59351 0.73185 0.0
N76 N 0.372 0.56002 0.74901 0.0
C77 C 0.36556 0.53437 0.72892 0.0
C78 C 0.36441 0.53243 0.65165 0.0
C79 C 0.37347 0.57287 0.68336 0.0
N80 N 0.36957 0.5567 0.62311 0.0
C81 C 0.38688 0.53269 0.89529 0.0
C82 C 0.44284 0.5642 0.91463 0.0
C83 C 0.4303 0.53564 0.92108 0.0
C84 C 0.4018 0.51991 0.91376 0.0
C85 C 0.4271 0.57608 0.89581 0.0
N86 N 0.3998 0.56013 0.88057 0.0
H87 H 0.36489 0.52035 0.89162 0.0
H88 H 0.43705 0.59813 0.89366 0.0
H89 H 0.36169 0.51785 0.76647 0.0
H90 H 0.37841 0.59404 0.67972 0.0
O91 O 0.34203 0.54794 0.87993 0.0
O92 O 0.35175 0.58739 0.82668 0.0
O93 O 0.41089 0.61057 0.80984 0.0
C94 C 0.33351 0.56421 0.85594 0.0
H95 H 0.40435 0.64362 0.06673 0.0
H96 H 0.36002 0.51448 0.61892 0.0
H97 H 0.46472 0.57725 0.92197 0.0
H98 H 0.39114 0.49789 0.92174 0.0
Co99 Co 0.80534 0.37601 0.16451 0.0
C100 C 0.80391 0.38062 0.33242 0.0
C101 C 0.76903 0.37849 0.27797 0.0
C102 C 0.76547 0.37851 0.35461 0.0
N103 N 0.79325 0.38003 0.26382 0.0
N104 N 0.78744 0.37987 0.38865 0.0
H105 H 0.82255 0.38025 0.34197 0.0
H106 H 0.75464 0.37688 0.23526 0.0
C107 C 0.80293 0.42804 0.15813 0.0
O108 O 0.81102 0.43368 0.22846 0.0
N109 N 0.81643 0.37142 0.06562 0.0
C110 C 0.83382 0.36246 0.0484 0.0
C111 C 0.83532 0.36132 0.97111 0.0
C112 C 0.80755 0.3756 0.99921 0.0
N113 N 0.81881 0.36962 0.9404 0.0
C114 C 0.85698 0.39016 0.23295 0.0
C115 C 0.88603 0.44258 0.17456 0.0
C116 C 0.89941 0.43322 0.22165 0.0
C117 C 0.88482 0.40648 0.24993 0.0
C118 C 0.85846 0.42543 0.15767 0.0
N119 N 0.8438 0.40007 0.18993 0.0
H120 H 0.84605 0.36942 0.25417 0.0
H121 H 0.84947 0.4325 0.11639 0.0
H122 H 0.84451 0.35699 0.08914 0.0
H123 H 0.79267 0.38225 0.99408 0.0
O124 O 0.80034 0.34067 0.1954 0.0
O125 O 0.76868 0.34755 0.1431 0.0
O126 O 0.80105 0.40705 0.12517 0.0
C127 C 0.77514 0.33047 0.17247 0.0
H128 H 0.74796 0.37732 0.38309 0.0
H129 H 0.84775 0.35506 0.93997 0.0
H130 H 0.89708 0.4627 0.14883 0.0
H131 H 0.89483 0.39834 0.28477 0.0
Co132 Co 0.42501 0.80475 0.51507 0.0
C133 C 0.42016 0.80318 0.68116 0.0
C134 C 0.38263 0.77392 0.62741 0.0
C135 C 0.3791 0.77075 0.70417 0.0
N136 N 0.40832 0.79423 0.61322 0.0
N137 N 0.40269 0.78914 0.7378 0.0
H138 H 0.44135 0.81891 0.68885 0.0
H139 H 0.36775 0.76177 0.58483 0.0
C140 C 0.3851 0.81595 0.43031 0.0
O141 O 0.40511 0.83911 0.40356 0.0
N142 N 0.4413 0.81422 0.41506 0.0
C143 C 0.46809 0.82696 0.39629 0.0
C144 C 0.47044 0.82657 0.31921 0.0
C145 C 0.42786 0.80517 0.3489 0.0
N146 N 0.44509 0.81301 0.28961 0.0
C147 C 0.46773 0.85977 0.54738 0.0
C148 C 0.4338 0.88072 0.57806 0.0
C149 C 0.46217 0.89869 0.57546 0.0
C150 C 0.47923 0.88771 0.56231 0.0
C151 C 0.42321 0.8529 0.56276 0.0
N152 N 0.44005 0.84311 0.5424 0.0
H153 H 0.48115 0.85155 0.54081 0.0
H154 H 0.40137 0.83929 0.56683 0.0
H155 H 0.485 0.83479 0.43516 0.0
H156 H 0.40593 0.79206 0.34408 0.0
O157 O 0.45436 0.79896 0.54904 0.0
O158 O 0.41545 0.76748 0.49686 0.0
O159 O 0.39013 0.80146 0.47569 0.0
C160 C 0.4388 0.77365 0.52718 0.0
H161 H 0.36067 0.75593 0.73304 0.0
H162 H 0.48934 0.83533 0.28749 0.0
H163 H 0.41983 0.88815 0.58983 0.0
H164 H 0.5013 0.9006 0.56364 0.0
Co165 Co 0.613 0.42064 0.86184 0.0
C166 C 0.61157 0.41598 0.02811 0.0
C167 C 0.58993 0.37639 0.97557 0.0
C168 C 0.58874 0.37282 0.05252 0.0
N169 N 0.60408 0.40346 0.96034 0.0
N170 N 0.60248 0.3977 0.08531 0.0
H171 H 0.62335 0.43799 0.03551 0.0
H172 H 0.58136 0.36024 0.93395 0.0
C173 C 0.56539 0.38182 0.76425 0.0
O174 O 0.56325 0.40232 0.73687 0.0
N175 N 0.62242 0.43759 0.76222 0.0
C176 C 0.63197 0.46406 0.74341 0.0
C177 C 0.63481 0.46675 0.66646 0.0
C178 C 0.6211 0.42494 0.69617 0.0
N179 N 0.62773 0.44209 0.63672 0.0
C180 C 0.60014 0.46266 0.8958 0.0
C181 C 0.54429 0.42847 0.91032 0.0
C182 C 0.5552 0.45687 0.91559 0.0
C183 C 0.5836 0.474 0.91014 0.0
C184 C 0.56162 0.41805 0.89556 0.0
N185 N 0.58895 0.43523 0.88315 0.0
H186 H 0.62202 0.47601 0.89622 0.0
H187 H 0.55294 0.3961 0.89484 0.0
H188 H 0.63703 0.48066 0.78187 0.0
H189 H 0.61452 0.40337 0.69135 0.0
O190 O 0.647 0.45008 0.90182 0.0
O191 O 0.64124 0.41143 0.85198 0.0
O192 O 0.58278 0.386 0.81598 0.0
C193 C 0.6573 0.43461 0.8853 0.0
H194 H 0.57909 0.3534 0.08207 0.0
H195 H 0.64163 0.48547 0.63477 0.0
H196 H 0.52252 0.41442 0.91639 0.0
H197 H 0.593 0.49597 0.91775 0.0
C198 C 0.19074 0.55342 0.96795 0.0
C199 C 0.19709 0.56346 0.04183 0.0
C200 C 0.20792 0.54638 0.92838 0.0
C201 C 0.23204 0.54999 0.96345 0.0
C202 C 0.23693 0.55751 0.04037 0.0
C203 C 0.21918 0.56381 0.07875 0.0
C204 C 0.20133 0.53733 0.84742 0.0
C205 C 0.26244 0.56177 0.08024 0.0
C206 C 0.28487 0.53262 0.89474 0.0
C207 C 0.30525 0.55834 0.86878 0.0
C208 C 0.25934 0.52855 0.9184 0.0
C209 C 0.25465 0.55097 0.91831 0.0
C210 C 0.2744 0.57632 0.88655 0.0
C211 C 0.29934 0.57958 0.86142 0.0
C212 C 0.23813 0.50079 0.94781 0.0
C213 C 0.27026 0.60083 0.88516 0.0
H214 H 0.17353 0.55286 0.93919 0.0
H215 H 0.22379 0.57093 0.13643 0.0
H216 H 0.20898 0.52334 0.8314 0.0
H217 H 0.17891 0.52684 0.83711 0.0
H218 H 0.2112 0.55556 0.81014 0.0
H219 H 0.26218 0.56584 0.14136 0.0
H220 H 0.2648 0.54352 0.0736 0.0
H221 H 0.28072 0.57948 0.05479 0.0
H222 H 0.28916 0.51596 0.89909 0.0
H223 H 0.3149 0.59942 0.84052 0.0
H224 H 0.21723 0.49591 0.93092 0.0
H225 H 0.23887 0.50084 0.01021 0.0
H226 H 0.24183 0.48434 0.92704 0.0
H227 H 0.25054 0.5954 0.85781 0.0
H228 H 0.28694 0.61856 0.85469 0.0
H229 H 0.26948 0.60732 0.9437 0.0
C230 C 0.65709 0.22625 0.40219 0.0
C231 C 0.63742 0.20067 0.3733 0.0
C232 C 0.6817 0.24277 0.36429 0.0
C233 C 0.68723 0.23322 0.2965 0.0
C234 C 0.66877 0.2063 0.27101 0.0
C235 C 0.64385 0.1904 0.3093 0.0
C236 C 0.70063 0.27142 0.39356 0.0
C237 C 0.67435 0.19488 0.20075 0.0
C238 C 0.72652 0.29333 0.16741 0.0
C239 C 0.75357 0.30195 0.18859 0.0
C240 C 0.7046 0.26932 0.19691 0.0
C241 C 0.70992 0.25325 0.24788 0.0
C242 C 0.7373 0.26008 0.26229 0.0
C243 C 0.75892 0.28463 0.2331 0.0
C244 C 0.67573 0.26275 0.1794 0.0
C245 C 0.74374 0.24264 0.31315 0.0
H246 H 0.65261 0.23424 0.45227 0.0
H247 H 0.62896 0.17051 0.28699 0.0
H248 H 0.72178 0.27515 0.39912 0.0
H249 H 0.70122 0.28669 0.35301 0.0
H250 H 0.69404 0.27509 0.44918 0.0
H251 H 0.6638 0.17213 0.20281 0.0
H252 H 0.66646 0.20068 0.15107 0.0
H253 H 0.69661 0.20307 0.19252 0.0
H254 H 0.72223 0.30635 0.1318 0.0
H255 H 0.77982 0.29094 0.24868 0.0
H256 H 0.66629 0.26568 0.23078 0.0
H257 H 0.663 0.24105 0.16185 0.0
H258 H 0.67509 0.276 0.13407 0.0
H259 H 0.74193 0.24737 0.37278 0.0
H260 H 0.76489 0.24662 0.30397 0.0
H261 H 0.72907 0.22051 0.30389 0.0
C262 C 0.47165 0.75856 0.56868 0.0
C263 C 0.44554 0.75204 0.54353 0.0
C264 C 0.47666 0.73793 0.59478 0.0
C265 C 0.45478 0.7105 0.59821 0.0
C266 C 0.42893 0.70366 0.56783 0.0
C267 C 0.42476 0.7245 0.54004 0.0
C268 C 0.5049 0.74577 0.62255 0.0
C269 C 0.40493 0.67466 0.57029 0.0
C270 C 0.45355 0.64499 0.65106 0.0
C271 C 0.44396 0.6418 0.72533 0.0
C272 C 0.46039 0.66899 0.6104 0.0
C273 C 0.45695 0.68976 0.64467 0.0
C274 C 0.4502 0.68779 0.72207 0.0
C275 C 0.44419 0.66398 0.76164 0.0
C276 C 0.46885 0.67089 0.52906 0.0
C277 C 0.44615 0.70932 0.76115 0.0
H278 H 0.48793 0.7798 0.57012 0.0
H279 H 0.40459 0.7193 0.51995 0.0
H280 H 0.5058 0.74845 0.68454 0.0
H281 H 0.5099 0.72953 0.60947 0.0
H282 H 0.52076 0.76539 0.59715 0.0
H283 H 0.3865 0.67268 0.54181 0.0
H284 H 0.41036 0.66036 0.54288 0.0
H285 H 0.39956 0.66801 0.62973 0.0
H286 H 0.45376 0.62805 0.62278 0.0
H287 H 0.43746 0.66189 0.81965 0.0
H288 H 0.48283 0.69247 0.512 0.0
H289 H 0.45042 0.6624 0.49266 0.0
H290 H 0.47911 0.65876 0.51871 0.0
H291 H 0.46407 0.73002 0.75202 0.0
H292 H 0.44296 0.70568 0.82276 0.0
H293 H 0.42798 0.70927 0.73709 0.0
C294 C 0.68936 0.41914 0.92495 0.0
C295 C 0.68431 0.44077 0.91366 0.0
C296 C 0.71278 0.42326 0.96312 0.0
C297 C 0.73213 0.44993 0.98839 0.0
C298 C 0.72806 0.47225 0.97269 0.0
C299 C 0.70382 0.4673 0.93671 0.0
C300 C 0.71602 0.39872 0.97975 0.0
C301 C 0.74874 0.50111 0.99598 0.0
C302 C 0.77001 0.44476 0.15621 0.0
C303 C 0.79074 0.44242 0.12005 0.0
C304 C 0.75191 0.44982 0.11452 0.0
C305 C 0.75539 0.45345 0.03548 0.0
C306 C 0.77848 0.45458 1.00064 0.0
C307 C 0.79558 0.44839 0.04318 0.0
C308 C 0.72726 0.4479 0.15369 0.0
C309 C 0.78359 0.45962 0.91721 0.0
H310 H 0.67423 0.39856 0.90766 0.0
H311 H 0.69996 0.48408 0.9277 0.0
H312 H 0.73534 0.4017 0.95497 0.0
H313 H 0.71716 0.39643 0.04151 0.0
H314 H 0.69881 0.37933 0.95713 0.0
H315 H 0.74585 0.51654 0.96468 0.0
H316 H 0.74646 0.50376 0.05692 0.0
H317 H 0.76994 0.50532 0.98655 0.0
H318 H 0.76618 0.43982 0.21561 0.0
H319 H 0.81175 0.44661 0.0155 0.0
H320 H 0.7087 0.42841 0.13752 0.0
H321 H 0.72402 0.46492 0.13615 0.0
H322 H 0.72929 0.44834 0.21598 0.0
H323 H 0.77001 0.44046 0.88599 0.0
H324 H 0.80512 0.46609 0.90247 0.0
H325 H 0.77895 0.47557 0.8979 0.0
C326 C 0.35241 0.81284 0.32948 0.0
C327 C 0.35735 0.80313 0.39702 0.0
C328 C 0.32802 0.79686 0.28902 0.0
C329 C 0.30863 0.77053 0.31624 0.0
C330 C 0.3124 0.76194 0.3879 0.0
C331 C 0.33654 0.77852 0.42775 0.0
C332 C 0.32367 0.80731 0.21511 0.0
C333 C 0.29226 0.73403 0.41943 0.0
C334 C 0.23897 0.71845 0.24058 0.0
C335 C 0.24559 0.70094 0.20152 0.0
C336 C 0.25963 0.74312 0.27193 0.0
C337 C 0.28732 0.74985 0.26563 0.0
C338 C 0.29413 0.73336 0.22071 0.0
C339 C 0.27317 0.70928 0.18859 0.0
C340 C 0.25154 0.76077 0.31627 0.0
C341 C 0.32337 0.73961 0.21252 0.0
H342 H 0.36819 0.83208 0.30596 0.0
H343 H 0.33987 0.77119 0.48088 0.0
H344 H 0.32405 0.79457 0.16807 0.0
H345 H 0.30321 0.80559 0.21457 0.0
H346 H 0.33956 0.829 0.20459 0.0
H347 H 0.29748 0.73117 0.47779 0.0
H348 H 0.2713 0.731 0.41961 0.0
H349 H 0.29197 0.71782 0.38329 0.0
H350 H 0.21768 0.71234 0.24974 0.0
H351 H 0.27848 0.69605 0.15751 0.0
H352 H 0.26774 0.7827 0.31473 0.0
H353 H 0.24806 0.75399 0.37589 0.0
H354 H 0.23218 0.75875 0.29435 0.0
H355 H 0.33691 0.76119 0.19494 0.0
H356 H 0.32536 0.72605 0.17074 0.0
H357 H 0.33092 0.73688 0.26772 0.0
C358 C 0.56465 0.27343 0.50899 0.0
C359 C 0.54537 0.24576 0.5216 0.0
C360 C 0.56137 0.2943 0.5409 0.0
C361 C 0.53791 0.28729 0.58518 0.0
C362 C 0.51681 0.25955 0.59032 0.0
C363 C 0.52095 0.23897 0.55931 0.0
C364 C 0.58432 0.32366 0.5333 0.0
C365 C 0.49082 0.25145 0.63334 0.0
C366 C 0.55663 0.33411 0.75302 0.0
C367 C 0.55222 0.35491 0.72557 0.0
C368 C 0.55027 0.311 0.70954 0.0
C369 C 0.53848 0.30817 0.63737 0.0
C370 C 0.53131 0.32762 0.61254 0.0
C371 C 0.53856 0.35101 0.65668 0.0
C372 C 0.55854 0.29094 0.73831 0.0
C373 C 0.51771 0.32486 0.53738 0.0
H374 H 0.58337 0.27886 0.47872 0.0
H375 H 0.5057 0.2176 0.56797 0.0
H376 H 0.57625 0.33689 0.51357 0.0
H377 H 0.594 0.33151 0.58907 0.0
H378 H 0.60038 0.32574 0.49332 0.0
H379 H 0.47418 0.23067 0.61706 0.0
H380 H 0.49466 0.25129 0.69453 0.0
H381 H 0.48383 0.26642 0.62361 0.0
H382 H 0.56676 0.33668 0.8067 0.0
H383 H 0.53477 0.36681 0.63528 0.0
H384 H 0.57483 0.29166 0.70171 0.0
H385 H 0.54092 0.26971 0.73638 0.0
H386 H 0.56636 0.29546 0.79702 0.0
H387 H 0.53364 0.33511 0.49345 0.0
H388 H 0.50513 0.33496 0.53827 0.0
H389 H 0.50449 0.30305 0.5211 0.0
C390 C 0.16787 0.62902 0.81039 0.0
C391 C 0.18922 0.63636 0.86204 0.0
C392 C 0.17145 0.62603 0.7335 0.0
C393 C 0.1972 0.63097 0.70717 0.0
C394 C 0.2189 0.63841 0.75903 0.0
C395 C 0.21456 0.64076 0.83601 0.0
C396 C 0.14756 0.61731 0.68053 0.0
C397 C 0.24676 0.64418 0.73313 0.0
C398 C 0.19927 0.6003 0.51818 0.0
C399 C 0.20576 0.62216 0.46902 0.0
C400 C 0.19655 0.60289 0.59591 0.0
C401 C 0.20122 0.62825 0.6253 0.0
C402 C 0.20849 0.65062 0.57587 0.0
C403 C 0.21025 0.64716 0.4981 0.0
C404 C 0.18805 0.57833 0.64627 0.0
C405 C 0.21436 0.6782 0.60512 0.0
H406 H 0.14811 0.62507 0.83049 0.0
H407 H 0.23114 0.64655 0.87572 0.0
H408 H 0.15263 0.63341 0.63746 0.0
H409 H 0.1433 0.59834 0.6503 0.0
H410 H 0.12865 0.61344 0.71036 0.0
H411 H 0.26162 0.65033 0.78031 0.0
H412 H 0.24509 0.6257 0.70588 0.0
H413 H 0.25497 0.66078 0.69039 0.0
H414 H 0.19569 0.58095 0.49529 0.0
H415 H 0.21565 0.66412 0.45993 0.0
H416 H 0.16846 0.57285 0.67468 0.0
H417 H 0.20355 0.58329 0.691 0.0
H418 H 0.1854 0.56015 0.61461 0.0
H419 H 0.19559 0.67638 0.63055 0.0
H420 H 0.22162 0.69397 0.56004 0.0
H421 H 0.23014 0.68533 0.65002 0.0
C422 C 0.60406 0.20811 0.84719 0.0
C423 C 0.58503 0.2084 0.79707 0.0
C424 C 0.59892 0.20483 0.92499 0.0
C425 C 0.57434 0.20229 0.95353 0.0
C426 C 0.55529 0.20317 0.90326 0.0
C427 C 0.56074 0.20592 0.82553 0.0
C428 C 0.6195 0.20344 0.97641 0.0
C429 C 0.52911 0.20109 0.93155 0.0
C430 C 0.54631 0.16576 0.13995 0.0
C431 C 0.55511 0.18774 0.19037 0.0
C432 C 0.55274 0.17025 0.06307 0.0
C433 C 0.56795 0.19742 0.03548 0.0
C434 C 0.57694 0.21974 0.08617 0.0
C435 C 0.57066 0.21461 0.16325 0.0
C436 C 0.54337 0.14586 0.01142 0.0
C437 C 0.59288 0.24901 0.05883 0.0
H438 H 0.62274 0.20979 0.82517 0.0
H439 H 0.54621 0.20655 0.78695 0.0
H440 H 0.62632 0.21949 0.02051 0.0
H441 H 0.60983 0.18332 1.00557 0.0
H442 H 0.6378 0.20616 0.94544 0.0
H443 H 0.51724 0.20373 0.88573 0.0
H444 H 0.51608 0.18078 0.9582 0.0
H445 H 0.53377 0.21689 0.9753 0.0
H446 H 0.53471 0.14497 0.16105 0.0
H447 H 0.57737 0.23159 0.20215 0.0
H448 H 0.56123 0.14698 0.98195 0.0
H449 H 0.52948 0.14611 0.96765 0.0
H450 H 0.53246 0.12606 0.04218 0.0
H451 H 0.61227 0.25291 0.0322 0.0
H452 H 0.59782 0.26403 0.10514 0.0
H453 H 0.58093 0.25258 0.01524 0.0
C454 C 0.36418 0.5824 0.51811 0.0
C455 C 0.37235 0.56418 0.54466 0.0
C456 C 0.36615 0.58913 0.44121 0.0
C457 C 0.37703 0.57776 0.39003 0.0
C458 C 0.386 0.55996 0.41706 0.0
C459 C 0.38333 0.55323 0.49382 0.0
C460 C 0.35612 0.60798 0.41455 0.0
C461 C 0.39846 0.54802 0.3649 0.0
C462 C 0.36019 0.57141 0.1809 0.0
C463 C 0.38345 0.59423 0.15129 0.0
C464 C 0.35745 0.5663 0.25878 0.0
C465 C 0.3788 0.58408 0.30799 0.0
C466 C 0.40239 0.60714 0.27825 0.0
C467 C 0.40427 0.61209 0.20033 0.0
C468 C 0.33174 0.54182 0.28841 0.0
C469 C 0.42588 0.62624 0.32849 0.0
H470 H 0.35564 0.59085 0.55728 0.0
H471 H 0.39021 0.53961 0.51441 0.0
H472 H 0.3729 0.62612 0.38593 0.0
H473 H 0.33946 0.59717 0.37275 0.0
H474 H 0.34834 0.6152 0.46153 0.0
H475 H 0.40547 0.53544 0.39539 0.0
H476 H 0.38327 0.53497 0.32179 0.0
H477 H 0.41619 0.56473 0.33467 0.0
H478 H 0.34394 0.55783 0.14308 0.0
H479 H 0.42236 0.62961 0.17734 0.0
H480 H 0.32235 0.54841 0.33256 0.0
H481 H 0.33685 0.52713 0.31489 0.0
H482 H 0.31638 0.53097 0.24334 0.0
H483 H 0.41859 0.63505 0.37245 0.0
H484 H 0.4427 0.64334 0.29657 0.0
H485 H 0.43424 0.61466 0.3579 0.0
C486 C 0.81504 0.35312 0.80981 0.0
C487 C 0.81394 0.37137 0.86142 0.0
C488 C 0.81037 0.35455 0.73274 0.0
C489 C 0.80475 0.37493 0.70639 0.0
C490 C 0.80364 0.39345 0.7582 0.0
C491 C 0.8081 0.39135 0.83514 0.0
C492 C 0.81136 0.33416 0.67952 0.0
C493 C 0.79796 0.41562 0.73231 0.0
C494 C 0.81816 0.3935 0.49877 0.0
C495 C 0.79171 0.37906 0.46841 0.0
C496 C 0.82265 0.39275 0.57631 0.0
C497 C 0.80016 0.37685 0.62452 0.0
C498 C 0.77339 0.36222 0.59415 0.0
C499 C 0.76948 0.36364 0.51654 0.0
C500 C 0.85146 0.40891 0.60662 0.0
C501 C 0.74893 0.34471 0.64343 0.0
H502 H 0.81914 0.33741 0.82995 0.0
H503 H 0.80751 0.40568 0.87467 0.0
H504 H 0.7916 0.32262 0.64912 0.0
H505 H 0.82752 0.34511 0.63659 0.0
H506 H 0.81553 0.31929 0.70918 0.0
H507 H 0.7982 0.42865 0.77958 0.0
H508 H 0.81347 0.4289 0.69013 0.0
H509 H 0.77767 0.40628 0.70439 0.0
H510 H 0.83532 0.40567 0.46181 0.0
H511 H 0.74905 0.35216 0.49315 0.0
H512 H 0.85743 0.39481 0.63281 0.0
H513 H 0.85252 0.42321 0.65117 0.0
H514 H 0.86658 0.42092 0.56204 0.0
H515 H 0.75152 0.32848 0.67098 0.0
H516 H 0.72945 0.33478 0.61115 0.0
H517 H 0.74735 0.35736 0.6888 0.0
C518 C 0.41455 0.80811 0.18416 0.0
C519 C 0.4379 0.80813 0.21106 0.0
C520 C 0.40811 0.8049 0.10708 0.0
C521 C 0.42512 0.801 0.05595 0.0
C522 C 0.44834 0.80031 0.08317 0.0
C523 C 0.45458 0.80413 0.16029 0.0
C524 C 0.38328 0.80598 0.08042 0.0
C525 C 0.46666 0.79562 0.03077 0.0
C526 C 0.39619 0.76919 0.86495 0.0
C527 C 0.40827 0.79216 0.81746 0.0
C528 C 0.40143 0.77175 0.94268 0.0
C529 C 0.41892 0.79799 0.97383 0.0
C530 C 0.43097 0.82131 0.92624 0.0
C531 C 0.42567 0.81807 0.84851 0.0
C532 C 0.38856 0.74633 0.99126 0.0
C533 C 0.44933 0.84969 0.95754 0.0
H534 H 0.40174 0.8114 0.22325 0.0
H535 H 0.47241 0.80375 0.18113 0.0
H536 H 0.3889 0.8209 0.03362 0.0
H537 H 0.36773 0.7856 0.05851 0.0
H538 H 0.37384 0.81185 0.12623 0.0
H539 H 0.48333 0.79464 0.06127 0.0
H540 H 0.45443 0.77618 0.99926 0.0
H541 H 0.476 0.8124 0.98871 0.0
H542 H 0.38301 0.74909 0.84098 0.0
H543 H 0.43476 0.83588 0.81202 0.0
H544 H 0.37577 0.7482 0.03565 0.0
H545 H 0.40476 0.74409 0.02009 0.0
H546 H 0.37558 0.72743 0.95819 0.0
H547 H 0.43826 0.85433 1.00147 0.0
H548 H 0.45646 0.86577 0.91334 0.0
H549 H 0.46749 0.8507 0.98476 0.0
C550 C 0.63222 0.42418 0.19157 0.0
C551 C 0.60692 0.40332 0.16483 0.0
C552 C 0.63684 0.42967 0.26909 0.0
C553 C 0.61539 0.41438 0.32095 0.0
C554 C 0.58984 0.39317 0.29411 0.0
C555 C 0.58603 0.38773 0.21647 0.0
C556 C 0.66459 0.45199 0.2954 0.0
C557 C 0.5663 0.37666 0.34722 0.0
C558 C 0.63026 0.41482 0.53084 0.0
C559 C 0.62507 0.43517 0.5577 0.0
C560 C 0.62765 0.40809 0.45374 0.0
C561 C 0.61907 0.42163 0.40266 0.0
C562 C 0.61349 0.44193 0.42981 0.0
C563 C 0.61676 0.44858 0.50669 0.0
C564 C 0.63429 0.3867 0.42682 0.0
C565 C 0.60367 0.4564 0.37777 0.0
H566 H 0.64852 0.43593 0.15176 0.0
H567 H 0.56643 0.37168 0.19576 0.0
H568 H 0.66276 0.46899 0.32068 0.0
H569 H 0.67257 0.44398 0.33973 0.0
H570 H 0.6797 0.46039 0.24871 0.0
H571 H 0.54791 0.36056 0.31754 0.0
H572 H 0.57245 0.36669 0.39075 0.0
H573 H 0.56068 0.39045 0.37695 0.0
H574 H 0.63679 0.4045 0.56999 0.0
H575 H 0.6122 0.46392 0.52731 0.0
H576 H 0.65066 0.39567 0.38359 0.0
H577 H 0.61605 0.36948 0.3998 0.0
H578 H 0.64112 0.3784 0.47341 0.0
H579 H 0.61906 0.46737 0.33303 0.0
H580 H 0.59986 0.47143 0.40796 0.0
H581 H 0.58443 0.44117 0.3496 0.0
C582 C 0.93849 0.47697 0.26885 0.0
C583 C 0.9289 0.45104 0.23676 0.0
C584 C 0.96664 0.49552 0.27537 0.0
C585 C 0.98552 0.48815 0.24718 0.0
C586 C 0.97587 0.4616 0.21687 0.0
C587 C 0.94758 0.44321 0.21275 0.0
C588 C 0.97614 0.52338 0.30962 0.0
C589 C 0.99533 0.45316 0.18491 0.0
C590 C 0.05338 0.54609 0.17646 0.0
C591 C 0.07133 0.54789 0.23342 0.0
C592 C 0.02543 0.52661 0.18019 0.0
C593 C 0.01513 0.50896 0.24338 0.0
C594 C 0.03312 0.51114 0.30199 0.0
C595 C 0.06116 0.53039 0.2958 0.0
C596 C 0.00701 0.52458 0.11583 0.0
C597 C 0.02275 0.49315 0.37101 0.0
H598 H 0.92389 0.48288 0.28752 0.0
H599 H 0.94002 0.4232 0.18728 0.0
H600 H 0.99228 0.52817 0.3523 0.0
H601 H 0.98522 0.53934 0.26525 0.0
H602 H 0.9591 0.52471 0.33666 0.0
H603 H 0.98467 0.43124 0.16797 0.0
H604 H 0.0058 0.4659 0.13479 0.0
H605 H 0.01138 0.45675 0.22669 0.0
H606 H 0.06141 0.55948 0.12788 0.0
H607 H 0.07515 0.53193 0.3399 0.0
H608 H 0.99066 0.52836 0.13653 0.0
H609 H -0.00316 0.50357 0.09179 0.0
H610 H 0.01838 0.53947 0.07016 0.0
H611 H 0.00636 0.49549 0.39833 0.0
H612 H 0.03924 0.49814 0.41279 0.0
H613 H 0.01362 0.4713 0.35466 0.0
C614 C 0.49944 0.0534 0.5371 0.0
C615 C 0.5227 0.07228 0.57739 0.0
C616 C 0.48938 0.02513 0.54285 0.0
C617 C 0.50292 0.01546 0.59006 0.0
C618 C 0.52594 0.03432 0.6326 0.0
C619 C 0.5356 0.06254 0.62565 0.0
C620 C 0.46483 0.00568 0.49632 0.0
C621 C 0.54078 0.02473 0.68387 0.0
C622 C 0.46351 0.93946 0.6373 0.0
C623 C 0.47385 0.92875 0.5836 0.0
C624 C 0.47334 0.96777 0.64169 0.0
C625 C 0.49389 0.98573 0.59097 0.0
C626 C 0.50486 0.9751 0.5379 0.0
C627 C 0.49472 0.94677 0.53489 0.0
C628 C 0.46129 0.9784 0.69932 0.0
C629 C 0.5267 0.99357 0.48258 0.0
H630 H 0.48958 0.06078 0.49893 0.0
H631 H 0.55337 0.077 0.65771 0.0
H632 H 0.47091 0.99508 0.45457 0.0
H633 H 0.44887 0.98969 0.53283 0.0
H634 H 0.45573 0.01638 0.46568 0.0
H635 H 0.55716 0.04181 0.71694 0.0
H636 H 0.52615 0.00894 0.72344 0.0
H637 H 0.55016 0.01505 0.64994 0.0
H638 H 0.44763 0.92567 0.67572 0.0
H639 H 0.50255 0.93862 0.49258 0.0
H640 H 0.4503 0.98748 0.67035 0.0
H641 H 0.47781 0.99488 0.73342 0.0
H642 H 0.44674 0.962 0.73779 0.0
H643 H 0.51851 0.00341 0.44477 0.0
H644 H 0.53404 0.98224 0.44747 0.0
H645 H 0.54444 0.0102 0.51293 0.0
C646 C 0.44168 0.49957 0.8872 0.0
C647 C 0.44697 0.5223 0.93148 0.0
C648 C 0.45873 0.48817 0.89056 0.0
C649 C 0.48155 0.49973 0.93965 0.0
C650 C 0.4864 0.52201 0.98666 0.0
C651 C 0.46909 0.53312 0.9818 0.0
C652 C 0.45297 0.46452 0.83916 0.0
C653 C 0.51039 0.53467 0.04024 0.0
C654 C 0.51532 0.45717 0.97674 0.0
C655 C 0.53711 0.46864 0.92536 0.0
C656 C 0.49742 0.46754 0.98361 0.0
C657 C 0.50134 0.48971 0.93752 0.0
C658 C 0.52358 0.50163 0.88645 0.0
C659 C 0.54123 0.49099 0.88117 0.0
C660 C 0.47408 0.45451 0.03916 0.0
C661 C 0.5283 0.52516 0.83587 0.0
H662 H 0.42481 0.49134 0.84755 0.0
H663 H 0.47303 0.55048 0.01679 0.0
H664 H 0.46986 0.47113 0.7978 0.0
H665 H 0.45206 0.44736 0.87206 0.0
H666 H 0.43344 0.4568 0.80784 0.0
H667 H 0.50996 0.5503 0.07743 0.0
H668 H 0.51056 0.51859 0.07585 0.0
H669 H 0.52979 0.54459 1.00778 0.0
H670 H 0.51228 0.44009 0.01161 0.0
H671 H 0.55786 0.4997 0.84076 0.0
H672 H 0.45428 0.44505 1.00861 0.0
H673 H 0.47455 0.47034 0.07724 0.0
H674 H 0.47478 0.43847 0.07379 0.0
H675 H 0.51051 0.51856 0.79771 0.0
H676 H 0.54707 0.53268 0.80107 0.0
H677 H 0.53011 0.54246 0.87005 0.0
loop_
_geom_bond_atom_site_label_1
_geom_bond_atom_site_label_2
_geom_bond_distance
_geom_bond_site_symmetry_2
_ccdc_geom_bond_type
Co0 N4 2.148 . S
Co0 N10 2.128 . S
Co0 N20 2.194 . S
Co0 O25 2.351 . S
Co0 O26 2.155 . S
Co0 O27 2.096 . S
C1 N4 1.301 . S
C1 N5 1.328 . S
C1 H6 0.930 . S
C2 C3 1.333 . S
C2 N4 1.317 . S
C2 H7 0.930 . S
C3 C2 1.333 . S
C3 N5 1.350 . S
C3 H29 0.931 . S
N4 Co0 2.148 . S
N4 C1 1.301 . S
N4 C2 1.317 . S
N5 C1 1.328 . S
N5 C3 1.350 . S
H6 C1 0.930 . S
H7 C2 0.930 . S
C8 O9 1.224 . S
C8 O27 1.247 . S
O9 C8 1.224 . S
N10 Co0 2.128 . S
N10 C11 1.355 . S
N10 C13 1.311 1_554 S
C11 N10 1.355 . S
C11 C12 1.363 1_554 S
C11 H23 0.929 . S
C12 C11 1.363 1_556 S
C12 N14 1.375 . S
C12 H30 0.931 . S
C13 N10 1.311 1_556 S
C13 N14 1.347 . S
C13 H24 0.929 . S
N14 C12 1.375 . S
N14 C13 1.347 . S
C15 C18 1.365 . S
C15 N20 1.328 . S
C15 H21 0.929 . S
C16 C17 1.362 . S
C16 C19 1.378 . S
C16 H31 0.929 . S
C17 C16 1.362 . S
C17 C18 1.366 . S
C18 C15 1.365 . S
C18 C17 1.366 . S
C18 H32 0.930 . S
C19 C16 1.378 . S
C19 N20 1.315 . S
C19 H22 0.930 . S
N20 Co0 2.194 . S
N20 C15 1.328 . S
N20 C19 1.315 . S
H21 C15 0.929 . S
H22 C19 0.930 . S
H23 C11 0.929 . S
H24 C13 0.929 . S
O25 Co0 2.351 . S
O25 C28 1.244 . S
O26 Co0 2.155 . S
O26 C28 1.240 . S
O27 Co0 2.096 . S
O27 C8 1.247 . S
C28 O25 1.244 . S
C28 O26 1.240 . S
H29 C3 0.931 . S
H30 C12 0.931 . S
H31 C16 0.929 . S
H32 C18 0.930 . S
Co33 N37 2.148 . S
Co33 N43 2.128 . S
Co33 N53 2.194 . S
Co33 O58 2.351 . S
Co33 O59 2.155 . S
Co33 O60 2.096 . S
C34 N37 1.301 . S
C34 N38 1.328 . S
C34 H39 0.930 . S
C35 C36 1.333 . S
C35 N37 1.317 . S
C35 H40 0.930 . S
C36 C35 1.333 . S
C36 N38 1.350 . S
C36 H62 0.931 . S
N37 Co33 2.148 . S
N37 C34 1.301 . S
N37 C35 1.317 . S
N38 C34 1.328 . S
N38 C36 1.350 . S
H39 C34 0.930 . S
H40 C35 0.930 . S
C41 O42 1.224 . S
C41 O60 1.247 . S
O42 C41 1.224 . S
N43 Co33 2.128 . S
N43 C44 1.355 . S
N43 C46 1.311 . S
C44 N43 1.355 . S
C44 C45 1.363 . S
C44 H56 0.929 . S
C45 C44 1.363 . S
C45 N47 1.375 . S
C45 H63 0.931 . S
C46 N43 1.311 . S
C46 N47 1.347 . S
C46 H57 0.929 . S
N47 C45 1.375 . S
N47 C46 1.347 . S
C48 C51 1.365 . S
C48 N53 1.328 . S
C48 H54 0.929 . S
C49 C50 1.362 . S
C49 C52 1.378 . S
C49 H64 0.929 . S
C50 C49 1.362 . S
C50 C51 1.366 . S
C51 C48 1.365 . S
C51 C50 1.366 . S
C51 H65 0.930 . S
C52 C49 1.378 . S
C52 N53 1.315 . S
C52 H55 0.930 . S
N53 Co33 2.194 . S
N53 C48 1.328 . S
N53 C52 1.315 . S
H54 C48 0.929 . S
H55 C52 0.930 . S
H56 C44 0.929 . S
H57 C46 0.929 . S
O58 Co33 2.351 . S
O58 C61 1.244 . S
O59 Co33 2.155 . S
O59 C61 1.240 . S
O60 Co33 2.096 . S
O60 C41 1.247 . S
C61 O58 1.244 . S
C61 O59 1.240 . S
H62 C36 0.931 . S
H63 C45 0.931 . S
H64 C49 0.929 . S
H65 C51 0.930 . S
Co66 N70 2.148 . S
Co66 N76 2.128 . S
Co66 N86 2.194 . S
Co66 O91 2.351 . S
Co66 O92 2.155 . S
Co66 O93 2.096 . S
C67 N70 1.301 1_554 S
C67 N71 1.328 . S
C67 H72 0.930 . S
C68 C69 1.333 1_556 S
C68 N70 1.317 . S
C68 H73 0.930 . S
C69 C68 1.333 1_554 S
C69 N71 1.350 . S
C69 H95 0.931 . S
N70 Co66 2.148 . S
N70 C67 1.301 1_556 S
N70 C68 1.317 . S
N71 C67 1.328 . S
N71 C69 1.350 . S
H72 C67 0.930 . S
H73 C68 0.930 . S
C74 O75 1.224 . S
C74 O93 1.247 . S
O75 C74 1.224 . S
N76 Co66 2.128 . S
N76 C77 1.355 . S
N76 C79 1.311 . S
C77 N76 1.355 . S
C77 C78 1.363 . S
C77 H89 0.929 . S
C78 C77 1.363 . S
C78 N80 1.375 . S
C78 H96 0.931 . S
C79 N76 1.311 . S
C79 N80 1.347 . S
C79 H90 0.929 . S
N80 C78 1.375 . S
N80 C79 1.347 . S
C81 C84 1.365 . S
C81 N86 1.328 . S
C81 H87 0.929 . S
C82 C83 1.362 . S
C82 C85 1.378 . S
C82 H97 0.929 . S
C83 C82 1.362 . S
C83 C84 1.366 . S
C84 C81 1.365 . S
C84 C83 1.366 . S
C84 H98 0.930 . S
C85 C82 1.378 . S
C85 N86 1.315 . S
C85 H88 0.930 . S
N86 Co66 2.194 . S
N86 C81 1.328 . S
N86 C85 1.315 . S
H87 C81 0.929 . S
H88 C85 0.930 . S
H89 C77 0.929 . S
H90 C79 0.929 . S
O91 Co66 2.351 . S
O91 C94 1.244 . S
O92 Co66 2.155 . S
O92 C94 1.240 . S
O93 Co66 2.096 . S
O93 C74 1.247 . S
C94 O91 1.244 . S
C94 O92 1.240 . S
H95 C69 0.931 . S
H96 C78 0.931 . S
H97 C82 0.929 . S
H98 C84 0.930 . S
Co99 N103 2.148 . S
Co99 N109 2.128 . S
Co99 N119 2.194 . S
Co99 O124 2.351 . S
Co99 O125 2.155 . S
Co99 O126 2.096 . S
C100 N103 1.301 . S
C100 N104 1.328 . S
C100 H105 0.930 . S
C101 C102 1.333 . S
C101 N103 1.317 . S
C101 H106 0.930 . S
C102 C101 1.333 . S
C102 N104 1.350 . S
C102 H128 0.931 . S
N103 Co99 2.148 . S
N103 C100 1.301 . S
N103 C101 1.317 . S
N104 C100 1.328 . S
N104 C102 1.350 . S
H105 C100 0.930 . S
H106 C101 0.930 . S
C107 O108 1.224 . S
C107 O126 1.247 . S
O108 C107 1.224 . S
N109 Co99 2.128 . S
N109 C110 1.355 . S
N109 C112 1.311 1_554 S
C110 N109 1.355 . S
C110 C111 1.363 1_554 S
C110 H122 0.929 . S
C111 C110 1.363 1_556 S
C111 N113 1.375 . S
C111 H129 0.931 . S
C112 N109 1.311 1_556 S
C112 N113 1.347 . S
C112 H123 0.929 . S
N113 C111 1.375 . S
N113 C112 1.347 . S
C114 C117 1.365 . S
C114 N119 1.328 . S
C114 H120 0.929 . S
C115 C116 1.362 . S
C115 C118 1.378 . S
C115 H130 0.929 . S
C116 C115 1.362 . S
C116 C117 1.366 . S
C117 C114 1.365 . S
C117 C116 1.366 . S
C117 H131 0.930 . S
C118 C115 1.378 . S
C118 N119 1.315 . S
C118 H121 0.930 . S
N119 Co99 2.194 . S
N119 C114 1.328 . S
N119 C118 1.315 . S
H120 C114 0.929 . S
H121 C118 0.930 . S
H122 C110 0.929 . S
H123 C112 0.929 . S
O124 Co99 2.351 . S
O124 C127 1.244 . S
O125 Co99 2.155 . S
O125 C127 1.240 . S
O126 Co99 2.096 . S
O126 C107 1.247 . S
C127 O124 1.244 . S
C127 O125 1.240 . S
H128 C102 0.931 . S
H129 C111 0.931 . S
H130 C115 0.929 . S
H131 C117 0.930 . S
Co132 N136 2.148 . S
Co132 N142 2.128 . S
Co132 N152 2.194 . S
Co132 O157 2.351 . S
Co132 O158 2.155 . S
Co132 O159 2.096 . S
C133 N136 1.301 . S
C133 N137 1.328 . S
C133 H138 0.930 . S
C134 C135 1.333 . S
C134 N136 1.317 . S
C134 H139 0.930 . S
C135 C134 1.333 . S
C135 N137 1.350 . S
C135 H161 0.931 . S
N136 Co132 2.148 . S
N136 C133 1.301 . S
N136 C134 1.317 . S
N137 C133 1.328 . S
N137 C135 1.350 . S
H138 C133 0.930 . S
H139 C134 0.930 . S
C140 O141 1.224 . S
C140 O159 1.247 . S
O141 C140 1.224 . S
N142 Co132 2.128 . S
N142 C143 1.355 . S
N142 C145 1.311 . S
C143 N142 1.355 . S
C143 C144 1.363 . S
C143 H155 0.929 . S
C144 C143 1.363 . S
C144 N146 1.375 . S
C144 H162 0.931 . S
C145 N142 1.311 . S
C145 N146 1.347 . S
C145 H156 0.929 . S
N146 C144 1.375 . S
N146 C145 1.347 . S
C147 C150 1.365 . S
C147 N152 1.328 . S
C147 H153 0.929 . S
C148 C149 1.362 . S
C148 C151 1.378 . S
C148 H163 0.929 . S
C149 C148 1.362 . S
C149 C150 1.366 . S
C150 C147 1.365 . S
C150 C149 1.366 . S
C150 H164 0.930 . S
C151 C148 1.378 . S
C151 N152 1.315 . S
C151 H154 0.930 . S
N152 Co132 2.194 . S
N152 C147 1.328 . S
N152 C151 1.315 . S
H153 C147 0.929 . S
H154 C151 0.930 . S
H155 C143 0.929 . S
H156 C145 0.929 . S
O157 Co132 2.351 . S
O157 C160 1.244 . S
O158 Co132 2.155 . S
O158 C160 1.240 . S
O159 Co132 2.096 . S
O159 C140 1.247 . S
C160 O157 1.244 . S
C160 O158 1.240 . S
H161 C135 0.931 . S
H162 C144 0.931 . S
H163 C148 0.929 . S
H164 C150 0.930 . S
Co165 N169 2.148 . S
Co165 N175 2.128 . S
Co165 N185 2.194 . S
Co165 O190 2.351 . S
Co165 O191 2.155 . S
Co165 O192 2.096 . S
C166 N169 1.301 1_554 S
C166 N170 1.328 . S
C166 H171 0.930 . S
C167 C168 1.333 1_556 S
C167 N169 1.317 . S
C167 H172 0.930 . S
C168 C167 1.333 1_554 S
C168 N170 1.350 . S
C168 H194 0.931 . S
N169 Co165 2.148 . S
N169 C166 1.301 1_556 S
N169 C167 1.317 . S
N170 C166 1.328 . S
N170 C168 1.350 . S
H171 C166 0.930 . S
H172 C167 0.930 . S
C173 O174 1.224 . S
C173 O192 1.247 . S
O174 C173 1.224 . S
N175 Co165 2.128 . S
N175 C176 1.355 . S
N175 C178 1.311 . S
C176 N175 1.355 . S
C176 C177 1.363 . S
C176 H188 0.929 . S
C177 C176 1.363 . S
C177 N179 1.375 . S
C177 H195 0.931 . S
C178 N175 1.311 . S
C178 N179 1.347 . S
C178 H189 0.929 . S
N179 C177 1.375 . S
N179 C178 1.347 . S
C180 C183 1.365 . S
C180 N185 1.328 . S
C180 H186 0.929 . S
C181 C182 1.362 . S
C181 C184 1.378 . S
C181 H196 0.929 . S
C182 C181 1.362 . S
C182 C183 1.366 . S
C183 C180 1.365 . S
C183 C182 1.366 . S
C183 H197 0.930 . S
C184 C181 1.378 . S
C184 N185 1.315 . S
C184 H187 0.930 . S
N185 Co165 2.194 . S
N185 C180 1.328 . S
N185 C184 1.315 . S
H186 C180 0.929 . S
H187 C184 0.930 . S
H188 C176 0.929 . S
H189 C178 0.929 . S
O190 Co165 2.351 . S
O190 C193 1.244 . S
O191 Co165 2.155 . S
O191 C193 1.240 . S
O192 Co165 2.096 . S
O192 C173 1.247 . S
C193 O190 1.244 . S
C193 O191 1.240 . S
H194 C168 0.931 . S
H195 C177 0.931 . S
H196 C181 0.929 . S
H197 C183 0.930 . S
C198 C199 1.391 . S
C198 C200 1.394 1_554 S
C198 H214 0.931 1_554 S
C199 C198 1.391 . S
C199 C203 1.376 . S
C200 C198 1.394 1_556 S
C200 C201 1.369 1_556 S
C200 C204 1.531 . S
C201 C200 1.369 1_554 S
C201 C202 1.410 . S
C201 C209 1.503 1_554 S
C202 C201 1.410 . S
C202 C203 1.392 . S
C202 C205 1.511 . S
C203 C199 1.376 . S
C203 C202 1.392 . S
C203 H215 0.929 . S
C204 C200 1.531 . S
C204 H216 0.960 . S
C204 H217 0.962 . S
C204 H218 0.960 . S
C205 C202 1.511 . S
C205 H219 0.961 . S
C205 H220 0.961 . S
C205 H221 0.961 . S
C206 C207 1.370 . S
C206 C208 1.363 . S
C206 H222 0.931 . S
C207 C206 1.370 . S
C207 C211 1.408 . S
C208 C206 1.363 . S
C208 C209 1.370 . S
C208 C212 1.524 . S
C209 C201 1.503 1_556 S
C209 C208 1.370 . S
C209 C210 1.403 . S
C210 C209 1.403 . S
C210 C211 1.404 . S
C210 C213 1.539 1_556 S
C211 C207 1.408 . S
C211 C210 1.404 . S
C211 H223 0.930 . S
C212 C208 1.524 . S
C212 H224 0.956 . S
C212 H225 0.961 1_556 S
C212 H226 0.961 . S
C213 C210 1.539 1_554 S
C213 H227 0.958 1_554 S
C213 H228 0.961 . S
C213 H229 0.960 . S
H214 C198 0.931 1_556 S
H215 C203 0.929 . S
H216 C204 0.960 . S
H217 C204 0.962 . S
H218 C204 0.960 . S
H219 C205 0.961 . S
H220 C205 0.961 . S
H221 C205 0.961 . S
H222 C206 0.931 . S
H223 C211 0.930 . S
H224 C212 0.956 . S
H225 C212 0.961 1_554 S
H226 C212 0.961 . S
H227 C213 0.958 1_556 S
H228 C213 0.961 . S
H229 C213 0.960 . S
C230 C231 1.391 . S
C230 C232 1.394 . S
C230 H246 0.931 . S
C231 C230 1.391 . S
C231 C235 1.376 . S
C232 C230 1.394 . S
C232 C233 1.369 . S
C232 C236 1.531 . S
C233 C232 1.369 . S
C233 C234 1.410 . S
C233 C241 1.503 . S
C234 C233 1.410 . S
C234 C235 1.392 . S
C234 C237 1.511 . S
C235 C231 1.376 . S
C235 C234 1.392 . S
C235 H247 0.929 . S
C236 C232 1.531 . S
C236 H248 0.960 . S
C236 H249 0.962 . S
C236 H250 0.960 . S
C237 C234 1.511 . S
C237 H251 0.961 . S
C237 H252 0.961 . S
C237 H253 0.961 . S
C238 C239 1.370 . S
C238 C240 1.363 . S
C238 H254 0.931 . S
C239 C238 1.370 . S
C239 C243 1.408 . S
C240 C238 1.363 . S
C240 C241 1.370 . S
C240 C244 1.524 . S
C241 C233 1.503 . S
C241 C240 1.370 . S
C241 C242 1.403 . S
C242 C241 1.403 . S
C242 C243 1.404 . S
C242 C245 1.539 . S
C243 C239 1.408 . S
C243 C242 1.404 . S
C243 H255 0.930 . S
C244 C240 1.524 . S
C244 H256 0.956 . S
C244 H257 0.961 . S
C244 H258 0.961 . S
C245 C242 1.539 . S
C245 H259 0.958 . S
C245 H260 0.961 . S
C245 H261 0.960 . S
H246 C230 0.931 . S
H247 C235 0.929 . S
H248 C236 0.960 . S
H249 C236 0.962 . S
H250 C236 0.960 . S
H251 C237 0.961 . S
H252 C237 0.961 . S
H253 C237 0.961 . S
H254 C238 0.931 . S
H255 C243 0.930 . S
H256 C244 0.956 . S
H257 C244 0.961 . S
H258 C244 0.961 . S
H259 C245 0.958 . S
H260 C245 0.961 . S
H261 C245 0.960 . S
C262 C263 1.391 . S
C262 C264 1.394 . S
C262 H278 0.931 . S
C263 C262 1.391 . S
C263 C267 1.376 . S
C264 C262 1.394 . S
C264 C265 1.369 . S
C264 C268 1.531 . S
C265 C264 1.369 . S
C265 C266 1.410 . S
C265 C273 1.503 . S
C266 C265 1.410 . S
C266 C267 1.392 . S
C266 C269 1.511 . S
C267 C263 1.376 . S
C267 C266 1.392 . S
C267 H279 0.929 . S
C268 C264 1.531 . S
C268 H280 0.960 . S
C268 H281 0.962 . S
C268 H282 0.960 . S
C269 C266 1.511 . S
C269 H283 0.961 . S
C269 H284 0.961 . S
C269 H285 0.961 . S
C270 C271 1.370 . S
C270 C272 1.363 . S
C270 H286 0.931 . S
C271 C270 1.370 . S
C271 C275 1.408 . S
C272 C270 1.363 . S
C272 C273 1.370 . S
C272 C276 1.524 . S
C273 C265 1.503 . S
C273 C272 1.370 . S
C273 C274 1.403 . S
C274 C273 1.403 . S
C274 C275 1.404 . S
C274 C277 1.539 . S
C275 C271 1.408 . S
C275 C274 1.404 . S
C275 H287 0.930 . S
C276 C272 1.524 . S
C276 H288 0.956 . S
C276 H289 0.961 . S
C276 H290 0.961 . S
C277 C274 1.539 . S
C277 H291 0.958 . S
C277 H292 0.961 . S
C277 H293 0.960 . S
H278 C262 0.931 . S
H279 C267 0.929 . S
H280 C268 0.960 . S
H281 C268 0.962 . S
H282 C268 0.960 . S
H283 C269 0.961 . S
H284 C269 0.961 . S
H285 C269 0.961 . S
H286 C270 0.931 . S
H287 C275 0.930 . S
H288 C276 0.956 . S
H289 C276 0.961 . S
H290 C276 0.961 . S
H291 C277 0.958 . S
H292 C277 0.961 . S
H293 C277 0.960 . S
C294 C295 1.391 . S
C294 C296 1.394 . S
C294 H310 0.931 . S
C295 C294 1.391 . S
C295 C299 1.376 . S
C296 C294 1.394 . S
C296 C297 1.369 . S
C296 C300 1.531 . S
C297 C296 1.369 . S
C297 C298 1.410 . S
C297 C305 1.503 1_556 S
C298 C297 1.410 . S
C298 C299 1.392 . S
C298 C301 1.511 1_556 S
C299 C295 1.376 . S
C299 C298 1.392 . S
C299 H311 0.929 . S
C300 C296 1.531 . S
C300 H312 0.960 . S
C300 H313 0.962 . S
C300 H314 0.960 . S
C301 C298 1.511 1_554 S
C301 H315 0.961 . S
C301 H316 0.961 . S
C301 H317 0.961 . S
C302 C303 1.370 . S
C302 C304 1.363 . S
C302 H318 0.931 . S
C303 C302 1.370 . S
C303 C307 1.408 . S
C304 C302 1.363 . S
C304 C305 1.370 . S
C304 C308 1.524 . S
C305 C297 1.503 1_554 S
C305 C304 1.370 . S
C305 C306 1.403 1_554 S
C306 C305 1.403 1_556 S
C306 C307 1.404 1_556 S
C306 C309 1.539 . S
C307 C303 1.408 . S
C307 C306 1.404 1_554 S
C307 H319 0.930 . S
C308 C304 1.524 . S
C308 H320 0.956 . S
C308 H321 0.961 . S
C308 H322 0.961 . S
C309 C306 1.539 . S
C309 H323 0.958 . S
C309 H324 0.961 . S
C309 H325 0.960 . S
H310 C294 0.931 . S
H311 C299 0.929 . S
H312 C300 0.960 . S
H313 C300 0.962 . S
H314 C300 0.960 . S
H315 C301 0.961 . S
H316 C301 0.961 . S
H317 C301 0.961 . S
H318 C302 0.931 . S
H319 C307 0.930 . S
H320 C308 0.956 . S
H321 C308 0.961 . S
H322 C308 0.961 . S
H323 C309 0.958 . S
H324 C309 0.961 . S
H325 C309 0.960 . S
C326 C327 1.391 . S
C326 C328 1.394 . S
C326 H342 0.931 . S
C327 C326 1.391 . S
C327 C331 1.376 . S
C328 C326 1.394 . S
C328 C329 1.369 . S
C328 C332 1.531 . S
C329 C328 1.369 . S
C329 C330 1.410 . S
C329 C337 1.503 . S
C330 C329 1.410 . S
C330 C331 1.392 . S
C330 C333 1.511 . S
C331 C327 1.376 . S
C331 C330 1.392 . S
C331 H343 0.929 . S
C332 C328 1.531 . S
C332 H344 0.960 . S
C332 H345 0.962 . S
C332 H346 0.960 . S
C333 C330 1.511 . S
C333 H347 0.961 . S
C333 H348 0.961 . S
C333 H349 0.961 . S
C334 C335 1.370 . S
C334 C336 1.363 . S
C334 H350 0.931 . S
C335 C334 1.370 . S
C335 C339 1.408 . S
C336 C334 1.363 . S
C336 C337 1.370 . S
C336 C340 1.524 . S
C337 C329 1.503 . S
C337 C336 1.370 . S
C337 C338 1.403 . S
C338 C337 1.403 . S
C338 C339 1.404 . S
C338 C341 1.539 . S
C339 C335 1.408 . S
C339 C338 1.404 . S
C339 H351 0.930 . S
C340 C336 1.524 . S
C340 H352 0.956 . S
C340 H353 0.961 . S
C340 H354 0.961 . S
C341 C338 1.539 . S
C341 H355 0.958 . S
C341 H356 0.961 . S
C341 H357 0.960 . S
H342 C326 0.931 . S
H343 C331 0.929 . S
H344 C332 0.960 . S
H345 C332 0.962 . S
H346 C332 0.960 . S
H347 C333 0.961 . S
H348 C333 0.961 . S
H349 C333 0.961 . S
H350 C334 0.931 . S
H351 C339 0.930 . S
H352 C340 0.956 . S
H353 C340 0.961 . S
H354 C340 0.961 . S
H355 C341 0.958 . S
H356 C341 0.961 . S
H357 C341 0.960 . S
C358 C359 1.391 . S
C358 C360 1.394 . S
C358 H374 0.931 . S
C359 C358 1.391 . S
C359 C363 1.376 . S
C360 C358 1.394 . S
C360 C361 1.369 . S
C360 C364 1.531 . S
C361 C360 1.369 . S
C361 C362 1.410 . S
C361 C369 1.503 . S
C362 C361 1.410 . S
C362 C363 1.392 . S
C362 C365 1.511 . S
C363 C359 1.376 . S
C363 C362 1.392 . S
C363 H375 0.929 . S
C364 C360 1.531 . S
C364 H376 0.960 . S
C364 H377 0.962 . S
C364 H378 0.960 . S
C365 C362 1.511 . S
C365 H379 0.961 . S
C365 H380 0.961 . S
C365 H381 0.961 . S
C366 C367 1.370 . S
C366 C368 1.363 . S
C366 H382 0.931 . S
C367 C366 1.370 . S
C367 C371 1.408 . S
C368 C366 1.363 . S
C368 C369 1.370 . S
C368 C372 1.524 . S
C369 C361 1.503 . S
C369 C368 1.370 . S
C369 C370 1.403 . S
C370 C369 1.403 . S
C370 C371 1.404 . S
C370 C373 1.539 . S
C371 C367 1.408 . S
C371 C370 1.404 . S
C371 H383 0.930 . S
C372 C368 1.524 . S
C372 H384 0.956 . S
C372 H385 0.961 . S
C372 H386 0.961 . S
C373 C370 1.539 . S
C373 H387 0.958 . S
C373 H388 0.961 . S
C373 H389 0.960 . S
H374 C358 0.931 . S
H375 C363 0.929 . S
H376 C364 0.960 . S
H377 C364 0.962 . S
H378 C364 0.960 . S
H379 C365 0.961 . S
H380 C365 0.961 . S
H381 C365 0.961 . S
H382 C366 0.931 . S
H383 C371 0.930 . S
H384 C372 0.956 . S
H385 C372 0.961 . S
H386 C372 0.961 . S
H387 C373 0.958 . S
H388 C373 0.961 . S
H389 C373 0.960 . S
C390 C391 1.391 . S
C390 C392 1.394 . S
C390 H406 0.931 . S
C391 C390 1.391 . S
C391 C395 1.376 . S
C392 C390 1.394 . S
C392 C393 1.369 . S
C392 C396 1.531 . S
C393 C392 1.369 . S
C393 C394 1.410 . S
C393 C401 1.503 . S
C394 C393 1.410 . S
C394 C395 1.392 . S
C394 C397 1.511 . S
C395 C391 1.376 . S
C395 C394 1.392 . S
C395 H407 0.929 . S
C396 C392 1.531 . S
C396 H408 0.960 . S
C396 H409 0.962 . S
C396 H410 0.960 . S
C397 C394 1.511 . S
C397 H411 0.961 . S
C397 H412 0.961 . S
C397 H413 0.961 . S
C398 C399 1.370 . S
C398 C400 1.363 . S
C398 H414 0.931 . S
C399 C398 1.370 . S
C399 C403 1.408 . S
C400 C398 1.363 . S
C400 C401 1.370 . S
C400 C404 1.524 . S
C401 C393 1.503 . S
C401 C400 1.370 . S
C401 C402 1.403 . S
C402 C401 1.403 . S
C402 C403 1.404 . S
C402 C405 1.539 . S
C403 C399 1.408 . S
C403 C402 1.404 . S
C403 H415 0.930 . S
C404 C400 1.524 . S
C404 H416 0.956 . S
C404 H417 0.961 . S
C404 H418 0.961 . S
C405 C402 1.539 . S
C405 H419 0.958 . S
C405 H420 0.961 . S
C405 H421 0.960 . S
H406 C390 0.931 . S
H407 C395 0.929 . S
H408 C396 0.960 . S
H409 C396 0.962 . S
H410 C396 0.960 . S
H411 C397 0.961 . S
H412 C397 0.961 . S
H413 C397 0.961 . S
H414 C398 0.931 . S
H415 C403 0.930 . S
H416 C404 0.956 . S
H417 C404 0.961 . S
H418 C404 0.961 . S
H419 C405 0.958 . S
H420 C405 0.961 . S
H421 C405 0.960 . S
C422 C423 1.391 . S
C422 C424 1.394 . S
C422 H438 0.931 . S
C423 C422 1.391 . S
C423 C427 1.376 . S
C424 C422 1.394 . S
C424 C425 1.369 . S
C424 C428 1.531 . S
C425 C424 1.369 . S
C425 C426 1.410 . S
C425 C433 1.503 1_556 S
C426 C425 1.410 . S
C426 C427 1.392 . S
C426 C429 1.511 . S
C427 C423 1.376 . S
C427 C426 1.392 . S
C427 H439 0.929 . S
C428 C424 1.531 . S
C428 H440 0.960 1_556 S
C428 H441 0.962 1_556 S
C428 H442 0.960 . S
C429 C426 1.511 . S
C429 H443 0.961 . S
C429 H444 0.961 . S
C429 H445 0.961 . S
C430 C431 1.370 . S
C430 C432 1.363 . S
C430 H446 0.931 . S
C431 C430 1.370 . S
C431 C435 1.408 . S
C432 C430 1.363 . S
C432 C433 1.370 . S
C432 C436 1.524 . S
C433 C425 1.503 1_554 S
C433 C432 1.370 . S
C433 C434 1.403 . S
C434 C433 1.403 . S
C434 C435 1.404 . S
C434 C437 1.539 . S
C435 C431 1.408 . S
C435 C434 1.404 . S
C435 H447 0.930 . S
C436 C432 1.524 . S
C436 H448 0.956 . S
C436 H449 0.961 . S
C436 H450 0.961 . S
C437 C434 1.539 . S
C437 H451 0.958 . S
C437 H452 0.961 . S
C437 H453 0.960 1_554 S
H438 C422 0.931 . S
H439 C427 0.929 . S
H440 C428 0.960 1_554 S
H441 C428 0.962 1_554 S
H442 C428 0.960 . S
H443 C429 0.961 . S
H444 C429 0.961 . S
H445 C429 0.961 . S
H446 C430 0.931 . S
H447 C435 0.930 . S
H448 C436 0.956 . S
H449 C436 0.961 . S
H450 C436 0.961 . S
H451 C437 0.958 . S
H452 C437 0.961 . S
H453 C437 0.960 1_556 S
C454 C455 1.391 . S
C454 C456 1.394 . S
C454 H470 0.931 . S
C455 C454 1.391 . S
C455 C459 1.376 . S
C456 C454 1.394 . S
C456 C457 1.369 . S
C456 C460 1.531 . S
C457 C456 1.369 . S
C457 C458 1.410 . S
C457 C465 1.503 . S
C458 C457 1.410 . S
C458 C459 1.392 . S
C458 C461 1.511 . S
C459 C455 1.376 . S
C459 C458 1.392 . S
C459 H471 0.929 . S
C460 C456 1.531 . S
C460 H472 0.960 . S
C460 H473 0.962 . S
C460 H474 0.960 . S
C461 C458 1.511 . S
C461 H475 0.961 . S
C461 H476 0.961 . S
C461 H477 0.961 . S
C462 C463 1.370 . S
C462 C464 1.363 . S
C462 H478 0.931 . S
C463 C462 1.370 . S
C463 C467 1.408 . S
C464 C462 1.363 . S
C464 C465 1.370 . S
C464 C468 1.524 . S
C465 C457 1.503 . S
C465 C464 1.370 . S
C465 C466 1.403 . S
C466 C465 1.403 . S
C466 C467 1.404 . S
C466 C469 1.539 . S
C467 C463 1.408 . S
C467 C466 1.404 . S
C467 H479 0.930 . S
C468 C464 1.524 . S
C468 H480 0.956 . S
C468 H481 0.961 . S
C468 H482 0.961 . S
C469 C466 1.539 . S
C469 H483 0.958 . S
C469 H484 0.961 . S
C469 H485 0.960 . S
H470 C454 0.931 . S
H471 C459 0.929 . S
H472 C460 0.960 . S
H473 C460 0.962 . S
H474 C460 0.960 . S
H475 C461 0.961 . S
H476 C461 0.961 . S
H477 C461 0.961 . S
H478 C462 0.931 . S
H479 C467 0.930 . S
H480 C468 0.956 . S
H481 C468 0.961 . S
H482 C468 0.961 . S
H483 C469 0.958 . S
H484 C469 0.961 . S
H485 C469 0.960 . S
C486 C487 1.391 . S
C486 C488 1.394 . S
C486 H502 0.931 . S
C487 C486 1.391 . S
C487 C491 1.376 . S
C488 C486 1.394 . S
C488 C489 1.369 . S
C488 C492 1.531 . S
C489 C488 1.369 . S
C489 C490 1.410 . S
C489 C497 1.503 . S
C490 C489 1.410 . S
C490 C491 1.392 . S
C490 C493 1.511 . S
C491 C487 1.376 . S
C491 C490 1.392 . S
C491 H503 0.929 . S
C492 C488 1.531 . S
C492 H504 0.960 . S
C492 H505 0.962 . S
C492 H506 0.960 . S
C493 C490 1.511 . S
C493 H507 0.961 . S
C493 H508 0.961 . S
C493 H509 0.961 . S
C494 C495 1.370 . S
C494 C496 1.363 . S
C494 H510 0.931 . S
C495 C494 1.370 . S
C495 C499 1.408 . S
C496 C494 1.363 . S
C496 C497 1.370 . S
C496 C500 1.524 . S
C497 C489 1.503 . S
C497 C496 1.370 . S
C497 C498 1.403 . S
C498 C497 1.403 . S
C498 C499 1.404 . S
C498 C501 1.539 . S
C499 C495 1.408 . S
C499 C498 1.404 . S
C499 H511 0.930 . S
C500 C496 1.524 . S
C500 H512 0.956 . S
C500 H513 0.961 . S
C500 H514 0.961 . S
C501 C498 1.539 . S
C501 H515 0.958 . S
C501 H516 0.961 . S
C501 H517 0.960 . S
H502 C486 0.931 . S
H503 C491 0.929 . S
H504 C492 0.960 . S
H505 C492 0.962 . S
H506 C492 0.960 . S
H507 C493 0.961 . S
H508 C493 0.961 . S
H509 C493 0.961 . S
H510 C494 0.931 . S
H511 C499 0.930 . S
H512 C500 0.956 . S
H513 C500 0.961 . S
H514 C500 0.961 . S
H515 C501 0.958 . S
H516 C501 0.961 . S
H517 C501 0.960 . S
C518 C519 1.391 . S
C518 C520 1.394 . S
C518 H534 0.931 . S
C519 C518 1.391 . S
C519 C523 1.376 . S
C520 C518 1.394 . S
C520 C521 1.369 . S
C520 C524 1.531 . S
C521 C520 1.369 . S
C521 C522 1.410 . S
C521 C529 1.503 1_554 S
C522 C521 1.410 . S
C522 C523 1.392 . S
C522 C525 1.511 . S
C523 C519 1.376 . S
C523 C522 1.392 . S
C523 H535 0.929 . S
C524 C520 1.531 . S
C524 H536 0.960 . S
C524 H537 0.962 . S
C524 H538 0.960 . S
C525 C522 1.511 . S
C525 H539 0.961 . S
C525 H540 0.961 1_554 S
C525 H541 0.961 1_554 S
C526 C527 1.370 . S
C526 C528 1.363 . S
C526 H542 0.931 . S
C527 C526 1.370 . S
C527 C531 1.408 . S
C528 C526 1.363 . S
C528 C529 1.370 . S
C528 C532 1.524 . S
C529 C521 1.503 1_556 S
C529 C528 1.370 . S
C529 C530 1.403 . S
C530 C529 1.403 . S
C530 C531 1.404 . S
C530 C533 1.539 . S
C531 C527 1.408 . S
C531 C530 1.404 . S
C531 H543 0.930 . S
C532 C528 1.524 . S
C532 H544 0.956 1_556 S
C532 H545 0.961 1_556 S
C532 H546 0.961 . S
C533 C530 1.539 . S
C533 H547 0.958 . S
C533 H548 0.961 . S
C533 H549 0.960 . S
H534 C518 0.931 . S
H535 C523 0.929 . S
H536 C524 0.960 . S
H537 C524 0.962 . S
H538 C524 0.960 . S
H539 C525 0.961 . S
H540 C525 0.961 1_556 S
H541 C525 0.961 1_556 S
H542 C526 0.931 . S
H543 C531 0.930 . S
H544 C532 0.956 1_554 S
H545 C532 0.961 1_554 S
H546 C532 0.961 . S
H547 C533 0.958 . S
H548 C533 0.961 . S
H549 C533 0.960 . S
C550 C551 1.391 . S
C550 C552 1.394 . S
C550 H566 0.931 . S
C551 C550 1.391 . S
C551 C555 1.376 . S
C552 C550 1.394 . S
C552 C553 1.369 . S
C552 C556 1.531 . S
C553 C552 1.369 . S
C553 C554 1.410 . S
C553 C561 1.503 . S
C554 C553 1.410 . S
C554 C555 1.392 . S
C554 C557 1.511 . S
C555 C551 1.376 . S
C555 C554 1.392 . S
C555 H567 0.929 . S
C556 C552 1.531 . S
C556 H568 0.960 . S
C556 H569 0.962 . S
C556 H570 0.960 . S
C557 C554 1.511 . S
C557 H571 0.961 . S
C557 H572 0.961 . S
C557 H573 0.961 . S
C558 C559 1.370 . S
C558 C560 1.363 . S
C558 H574 0.931 . S
C559 C558 1.370 . S
C559 C563 1.408 . S
C560 C558 1.363 . S
C560 C561 1.370 . S
C560 C564 1.524 . S
C561 C553 1.503 . S
C561 C560 1.370 . S
C561 C562 1.403 . S
C562 C561 1.403 . S
C562 C563 1.404 . S
C562 C565 1.539 . S
C563 C559 1.408 . S
C563 C562 1.404 . S
C563 H575 0.930 . S
C564 C560 1.524 . S
C564 H576 0.956 . S
C564 H577 0.961 . S
C564 H578 0.961 . S
C565 C562 1.539 . S
C565 H579 0.958 . S
C565 H580 0.961 . S
C565 H581 0.960 . S
H566 C550 0.931 . S
H567 C555 0.929 . S
H568 C556 0.960 . S
H569 C556 0.962 . S
H570 C556 0.960 . S
H571 C557 0.961 . S
H572 C557 0.961 . S
H573 C557 0.961 . S
H574 C558 0.931 . S
H575 C563 0.930 . S
H576 C564 0.956 . S
H577 C564 0.961 . S
H578 C564 0.961 . S
H579 C565 0.958 . S
H580 C565 0.961 . S
H581 C565 0.960 . S
C582 C583 1.391 . S
C582 C584 1.394 . S
C582 H598 0.931 . S
C583 C582 1.391 . S
C583 C587 1.376 . S
C584 C582 1.394 . S
C584 C585 1.369 . S
C584 C588 1.531 . S
C585 C584 1.369 . S
C585 C586 1.410 . S
C585 C593 1.503 1_655 S
C586 C585 1.410 . S
C586 C587 1.392 . S
C586 C589 1.511 . S
C587 C583 1.376 . S
C587 C586 1.392 . S
C587 H599 0.929 . S
C588 C584 1.531 . S
C588 H600 0.976 . S
C588 H601 0.962 . S
C588 H602 0.960 . S
C589 C586 1.511 . S
C589 H603 0.961 . S
C589 H604 0.961 1_655 S
C589 H605 0.961 . S
C590 C591 1.370 . S
C590 C592 1.363 . S
C590 H606 0.931 . S
C591 C590 1.370 . S
C591 C595 1.408 . S
C592 C590 1.363 . S
C592 C593 1.370 . S
C592 C596 1.524 . S
C593 C585 1.503 1_455 S
C593 C592 1.370 . S
C593 C594 1.403 . S
C594 C593 1.403 . S
C594 C595 1.404 . S
C594 C597 1.539 . S
C595 C591 1.408 . S
C595 C594 1.404 . S
C595 H607 0.930 . S
C596 C592 1.524 . S
C596 H608 0.956 1_455 S
C596 H609 0.961 1_455 S
C596 H610 0.961 . S
C597 C594 1.539 . S
C597 H611 0.958 . S
C597 H612 0.961 . S
C597 H613 0.960 . S
H598 C582 0.931 . S
H599 C587 0.929 . S
H600 C588 0.976 . S
H601 C588 0.962 . S
H602 C588 0.960 . S
H603 C589 0.961 . S
H604 C589 0.961 1_455 S
H605 C589 0.961 . S
H606 C590 0.931 . S
H607 C595 0.930 . S
H608 C596 0.956 1_655 S
H609 C596 0.961 1_655 S
H610 C596 0.961 . S
H611 C597 0.958 . S
H612 C597 0.961 . S
H613 C597 0.960 . S
C614 C615 1.391 . S
C614 C616 1.394 . S
C614 H630 0.931 . S
C615 C614 1.391 . S
C615 C619 1.376 . S
C616 C614 1.394 . S
C616 C617 1.369 . S
C616 C620 1.531 . S
C617 C616 1.369 . S
C617 C618 1.410 . S
C617 C625 1.503 1_545 S
C618 C617 1.410 . S
C618 C619 1.392 . S
C618 C621 1.511 . S
C619 C615 1.376 . S
C619 C618 1.392 . S
C619 H631 0.929 . S
C620 C616 1.531 . S
C620 H632 0.960 1_545 S
C620 H633 0.962 . S
C620 H634 0.960 . S
C621 C618 1.511 . S
C621 H635 0.961 . S
C621 H636 0.983 . S
C621 H637 0.961 . S
C622 C623 1.370 . S
C622 C624 1.363 . S
C622 H638 0.931 . S
C623 C622 1.370 . S
C623 C627 1.408 . S
C624 C622 1.363 . S
C624 C625 1.370 . S
C624 C628 1.524 . S
C625 C617 1.503 1_565 S
C625 C624 1.370 . S
C625 C626 1.403 . S
C626 C625 1.403 . S
C626 C627 1.404 . S
C626 C629 1.539 . S
C627 C623 1.408 . S
C627 C626 1.404 . S
C627 H639 0.930 . S
C628 C624 1.524 . S
C628 H640 0.956 . S
C628 H641 0.961 1_565 S
C628 H642 0.961 . S
C629 C626 1.539 . S
C629 H643 0.958 . S
C629 H644 0.961 . S
C629 H645 0.960 1_565 S
H630 C614 0.931 . S
H631 C619 0.929 . S
H632 C620 0.960 1_565 S
H633 C620 0.962 . S
H634 C620 0.960 . S
H635 C621 0.961 . S
H636 C621 0.983 . S
H637 C621 0.961 . S
H638 C622 0.931 . S
H639 C627 0.930 . S
H640 C628 0.956 . S
H641 C628 0.961 1_545 S
H642 C628 0.961 . S
H643 C629 0.958 . S
H644 C629 0.961 . S
H645 C629 0.960 1_545 S
C646 C647 1.391 . S
C646 C648 1.394 . S
C646 H662 0.931 . S
C647 C646 1.391 . S
C647 C651 1.376 . S
C648 C646 1.394 . S
C648 C649 1.369 . S
C648 C652 1.531 . S
C649 C648 1.369 . S
C649 C650 1.410 . S
C649 C657 1.503 . S
C650 C649 1.410 . S
C650 C651 1.392 . S
C650 C653 1.511 . S
C651 C647 1.376 . S
C651 C650 1.392 . S
C651 H663 0.929 . S
C652 C648 1.531 . S
C652 H664 0.960 . S
C652 H665 0.962 . S
C652 H666 0.960 . S
C653 C650 1.511 . S
C653 H667 0.961 . S
C653 H668 0.961 . S
C653 H669 0.961 . S
C654 C655 1.370 . S
C654 C656 1.363 . S
C654 H670 0.931 . S
C655 C654 1.370 . S
C655 C659 1.408 . S
C656 C654 1.363 . S
C656 C657 1.370 . S
C656 C660 1.524 . S
C657 C649 1.503 . S
C657 C656 1.370 . S
C657 C658 1.403 . S
C658 C657 1.403 . S
C658 C659 1.404 . S
C658 C661 1.539 . S
C659 C655 1.408 . S
C659 C658 1.404 . S
C659 H671 0.930 . S
C660 C656 1.524 . S
C660 H672 0.956 . S
C660 H673 0.961 . S
C660 H674 0.961 . S
C661 C658 1.539 . S
C661 H675 0.958 . S
C661 H676 0.961 . S
C661 H677 0.960 . S
H662 C646 0.931 . S
H663 C651 0.929 . S
H664 C652 0.960 . S
H665 C652 0.962 . S
H666 C652 0.960 . S
H667 C653 0.961 . S
H668 C653 0.961 . S
H669 C653 0.961 . S
H670 C654 0.931 . S
H671 C659 0.930 . S
H672 C660 0.956 . S
H673 C660 0.961 . S
H674 C660 0.961 . S
H675 C661 0.958 . S
H676 C661 0.961 . S
H677 C661 0.960 . S
C199 C8 0.760 . S
C207 C94 0.767 . S
C231 C41 0.788 . S
C239 C127 0.781 . S
C263 C160 0.828 . S
C271 C74 0.808 . S
C295 C193 0.826 . S
C303 C107 0.800 . S
C327 C140 0.771 . S
C335 C28 0.783 . S
C359 C61 0.843 . S
C367 C173 0.807 . S
C391 N14 1.508 . S
C399 N5 1.500 . S
C423 N38 1.489 . S
C431 N47 1.506 . S
C455 N80 1.502 . S
C463 N71 1.504 . S
C487 N113 1.510 . S
C495 N104 1.499 . S
C519 N146 1.487 . S
C527 N137 1.506 . S
C551 N170 1.511 . S
C559 N179 1.494 . S
C583 C116 1.185 . S
C591 C17 1.187 . S
C615 C50 1.193 . S
C623 C149 1.195 . S
C647 C83 1.191 . S
C655 C182 1.196 . S
