# Generated by pormake.
# Topology yfh, (5)-cn, num edge types: 1
# Building blocks:
#     Node 0, Type 0, BuildingBlock: XOMCOT_clean_sbu_0, # of connection points: 5
#     Node 1, Type 0, BuildingBlock: XOMCOT_clean_sbu_0, # of connection points: 5
#     Node 2, Type 0, BuildingBlock: XOMCOT_clean_sbu_0, # of connection points: 5
#     Node 3, Type 0, BuildingBlock: XOMCOT_clean_sbu_0, # of connection points: 5
#     Node 4, Type 0, BuildingBlock: XOMCOT_clean_sbu_0, # of connection points: 5
#     Node 5, Type 0, BuildingBlock: XOMCOT_clean_sbu_0, # of connection points: 5
#     Node 6, Type 0, BuildingBlock: XOMCOT_clean_sbu_0, # of connection points: 5
#     Node 7, Type 0, BuildingBlock: XOMCOT_clean_sbu_0, # of connection points: 5
#     Edge 8, Type (0, 0), None
#     Edge 9, Type (0, 0), None
#     Edge 10, Type (0, 0), None
#     Edge 11, Type (0, 0), None
#     Edge 12, Type (0, 0), None
#     Edge 13, Type (0, 0), None
#     Edge 14, Type (0, 0), None
#     Edge 15, Type (0, 0), None
#     Edge 16, Type (0, 0), None
#     Edge 17, Type (0, 0), None
#     Edge 18, Type (0, 0), None
#     Edge 19, Type (0, 0), None
#     Edge 20, Type (0, 0), None
#     Edge 21, Type (0, 0), None
#     Edge 22, Type (0, 0), None
#     Edge 23, Type (0, 0), None
#     Edge 24, Type (0, 0), None
#     Edge 25, Type (0, 0), None
#     Edge 26, Type (0, 0), None
#     Edge 27, Type (0, 0), None
# Relax obj value: 0.485
# Max RMSD: 0.279
# Mean RMSD: 0.279
data_MOF--net-yfh--node1-XOMCOT_clean_sbu_0--edge1-none
_symmetry_space_group_name_H-M    P1
_symmetry_Int_Tables_number       1
_symmetry_cell_setting            triclinic
loop_
_symmetry_equiv_pos_as_xyz
'x, y, z'
_cell_length_a     12.202261
_cell_length_b     12.150735
_cell_length_c     34.912762
_cell_angle_alpha  89.996856
_cell_angle_beta   89.996964
_cell_angle_gamma 90.004408
loop_
_atom_site_label
_atom_site_type_symbol
_atom_site_fract_x
_atom_site_fract_y
_atom_site_fract_z
_atom_type_partial_charge
Co0 Co 0.40851 0.14395 0.06708 0.0
C1 C 0.29849 0.17575 -0.00797 0.0
C2 C 0.19837 0.08617 0.03196 0.0
C3 C 0.1415 0.09519 -0.00193 0.0
N4 N 0.29782 0.13373 0.02774 0.0
N5 N 0.20498 0.15157 -0.0265 0.0
H6 H 0.36441 0.22333 -0.02022 0.0
H7 H 0.16959 1.04701 0.0579 0.0
C8 C 0.36013 0.90072 0.05836 0.0
O9 O 0.35534 0.91125 0.02097 0.0
N10 N 0.51699 0.15384 0.10804 0.0
C11 C 0.61503 0.10273 0.11024 0.0
C12 C 0.64806 0.09939 0.14808 0.0
C13 C 0.49436 0.18314 0.14454 0.0
N14 N 0.57051 0.1481 0.16971 0.0
C15 C 0.56203 0.20835 0.00983 0.0
C16 C 0.61172 1.00149 -0.01789 0.0
C17 C 0.62932 0.09332 -0.04128 0.0
C18 C 0.61303 0.19792 -0.02555 0.0
C19 C 0.56209 1.01624 0.01806 0.0
N20 N 0.52496 0.11788 0.02908 0.0
H21 H 0.54396 0.29026 0.01967 0.0
H22 H 0.55149 0.94533 0.03608 0.0
H23 H 0.65491 1.06005 0.08701 0.0
H24 H 0.4177 0.21862 0.15361 0.0
O25 O 0.40183 0.30299 0.06342 0.0
O26 O 0.29654 0.20247 0.10123 0.0
O27 O 0.38634 0.98216 0.07984 0.0
C28 C 0.32409 0.29933 0.08861 0.0
H29 H 1.05956 1.06554 -0.0078 0.0
H30 H 0.71622 1.05205 0.15917 0.0
H31 H 0.6299 0.91934 -0.02808 0.0
H32 H 0.63269 0.27153 -0.04163 0.0
Co33 Co 0.48348 0.90301 0.3177 0.0
C34 C 0.4396 0.7788 0.24533 0.0
C35 C 0.53903 0.68889 0.28529 0.0
C36 C 0.5282 0.62623 0.25272 0.0
N37 N 0.48662 0.78587 0.2802 0.0
N38 N 0.46549 0.68326 0.22814 0.0
H39 H 0.38859 0.84093 0.23242 0.0
H40 H 0.58381 0.66608 0.31082 0.0
C41 C 0.72469 0.85665 0.30545 0.0
O42 O 0.71129 0.85617 0.26814 0.0
N43 N 0.48216 1.01391 0.35698 0.0
C44 C 0.4144 0.10039 0.36214 0.0
C45 C 0.42066 0.13293 0.40023 0.0
C46 C 0.52766 0.99512 0.39134 0.0
N47 N 0.49063 1.06461 0.41839 0.0
C48 C 0.42503 1.04045 0.25509 0.0
C49 C 0.63226 0.11396 0.23657 0.0
C50 C 0.54821 0.12259 0.20931 0.0
C51 C 0.44194 0.09255 0.22029 0.0
C52 C 0.61013 1.06385 0.27203 0.0
N53 N 0.51086 1.0148 0.27844 0.0
H54 H 0.34344 1.01162 0.2611 0.0
H55 H 0.67469 1.05919 0.29305 0.0
H56 H 0.35805 0.13144 0.34081 0.0
H57 H 0.58051 0.92551 0.39709 0.0
O58 O 0.32563 0.90424 0.31569 0.0
O59 O 0.42318 0.79957 0.35484 0.0
O60 O 0.64473 0.87684 0.32814 0.0
C61 C 0.32744 0.83093 0.34252 0.0
H62 H 0.56267 0.54553 0.24751 0.0
H63 H 0.37166 0.19579 0.41399 0.0
H64 H 0.71445 0.14166 0.22997 0.0
H65 H 0.37312 0.09941 0.20092 0.0
Co66 Co 0.73384 1.00332 0.56706 0.0
C67 C 0.84385 0.97156 0.49201 0.0
C68 C 0.94398 1.06109 0.53193 0.0
C69 C 1.00085 1.0521 0.49805 0.0
N70 N 0.84452 1.01355 0.52772 0.0
N71 N 0.93735 0.99575 0.47348 0.0
H72 H 0.77793 0.92398 0.47976 0.0
H73 H 0.97276 0.10023 0.55788 0.0
C74 C 0.78224 0.24654 0.55832 0.0
O75 O 0.78698 0.23598 0.52092 0.0
N76 N 0.62536 0.99343 0.60803 0.0
C77 C 0.52732 1.04455 0.61023 0.0
C78 C 0.49429 1.04784 0.64808 0.0
C79 C 0.64797 0.96407 0.64452 0.0
N80 N 0.57182 0.99909 0.6697 0.0
C81 C 0.58033 0.93896 0.50981 0.0
C82 C 0.53063 0.14584 0.48211 0.0
C83 C 0.51307 1.05403 0.4587 0.0
C84 C 0.52936 0.94942 0.47442 0.0
C85 C 0.58024 0.13105 0.51806 0.0
N86 N 0.61738 1.02941 0.52907 0.0
H87 H 0.59841 0.85704 0.51964 0.0
H88 H 0.59083 0.20194 0.53609 0.0
H89 H 0.48746 0.08726 0.58701 0.0
H90 H 0.72462 0.92856 0.65359 0.0
O91 O 0.7405 0.84429 0.5634 0.0
O92 O 0.8458 0.94477 0.6012 0.0
O93 O 0.75603 0.16512 0.57981 0.0
C94 C 0.81824 0.84792 0.58858 0.0
H95 H 0.0828 0.08173 0.49217 0.0
H96 H 0.42613 0.09517 0.65917 0.0
H97 H 0.51244 0.22799 0.47193 0.0
H98 H 0.50974 0.87583 0.45833 0.0
Co99 Co 0.65884 0.24415 0.81766 0.0
C100 C 0.70271 0.36829 0.74527 0.0
C101 C 0.6033 0.45822 0.78522 0.0
C102 C 0.6141 0.52085 0.75264 0.0
N103 N 0.65571 0.36125 0.78015 0.0
N104 N 0.67679 0.46381 0.72806 0.0
H105 H 0.75372 0.30615 0.73235 0.0
H106 H 0.55853 0.48106 0.81075 0.0
C107 C 0.41762 0.29049 0.80542 0.0
O108 O 0.43102 0.29094 0.7681 0.0
N109 N 0.66014 0.13333 0.85698 0.0
C110 C 0.72766 1.04665 0.86211 0.0
C111 C 0.72147 1.01419 0.90021 0.0
C112 C 0.61486 0.15231 0.89135 0.0
N113 N 0.65185 0.08281 0.91841 0.0
C114 C 0.71731 0.10665 0.75508 0.0
C115 C 0.51006 1.03318 0.73656 0.0
C116 C 0.59412 1.02454 0.7093 0.0
C117 C 0.7004 1.05455 0.72028 0.0
C118 C 0.53219 0.08327 0.77203 0.0
N119 N 0.63146 0.13231 0.77843 0.0
H120 H 0.7989 0.13547 0.76109 0.0
H121 H 0.46763 0.08794 0.79304 0.0
H122 H 0.78379 1.01536 0.84075 0.0
H123 H 0.56216 0.22204 0.89711 0.0
O124 O 0.81669 0.24289 0.81566 0.0
O125 O 0.71915 0.34764 0.85478 0.0
O126 O 0.49759 0.27034 0.82811 0.0
C127 C 0.81489 0.31623 0.84247 0.0
H128 H 0.57963 0.60155 0.74743 0.0
H129 H 0.77027 0.95114 0.91395 0.0
H130 H 0.42787 1.0055 0.72996 0.0
H131 H 0.76922 1.04768 0.70091 0.0
Co132 Co 0.90824 0.50332 0.59708 0.0
C133 C 0.79838 0.47139 0.67215 0.0
C134 C 0.69813 0.56092 0.63226 0.0
C135 C 0.64131 0.5518 0.66615 0.0
N136 N 0.79762 0.51345 0.63644 0.0
N137 N 0.70488 0.49543 0.69069 0.0
H138 H 0.86438 0.42388 0.68437 0.0
H139 H 0.66928 0.6001 0.60633 0.0
C140 C 0.85978 0.74652 0.60583 0.0
O141 O 0.85494 0.73596 0.64323 0.0
N142 N 1.01668 0.4935 0.5561 0.0
C143 C 0.11478 0.54453 0.55392 0.0
C144 C 0.14782 0.54791 0.51608 0.0
C145 C 0.99403 0.46431 0.5196 0.0
N146 N 1.07023 0.49932 0.49443 0.0
C147 C 1.06198 0.43884 0.65423 0.0
C148 C 0.11144 0.64562 0.68209 0.0
C149 C 0.12921 0.55367 0.70541 0.0
C150 C 0.11303 0.44914 0.68961 0.0
C151 C 1.06176 0.63099 0.64614 0.0
N152 N 1.02474 0.52936 0.63506 0.0
H153 H 1.04403 0.35696 0.64434 0.0
H154 H 1.05106 0.70198 0.62817 0.0
H155 H 0.15469 0.58711 0.57717 0.0
H156 H 0.91733 0.4289 0.51052 0.0
O157 O 0.90159 0.34428 0.60073 0.0
O158 O 0.79624 0.44479 0.56295 0.0
O159 O 0.88604 0.66512 0.58435 0.0
C160 C 0.82384 0.34793 0.57556 0.0
H161 H 0.55937 0.58138 0.67205 0.0
H162 H 0.21604 0.5952 0.505 0.0
H163 H 0.12954 0.72773 0.69233 0.0
H164 H 0.13283 0.37547 0.70563 0.0
Co165 Co 0.15886 0.40252 0.84646 0.0
C166 C 0.20267 0.27864 0.9189 0.0
C167 C 0.10342 0.18846 0.87896 0.0
C168 C 0.11422 0.12595 0.91157 0.0
N169 N 0.15574 0.28551 0.88401 0.0
N170 N 0.17678 0.18316 0.93614 0.0
H171 H 0.25361 0.34087 0.9318 0.0
H172 H 1.05873 0.16551 0.85343 0.0
C173 C 0.91765 0.35607 0.85871 0.0
O174 O 0.93103 0.35551 0.89603 0.0
N175 N 0.16017 0.51329 0.80713 0.0
C176 C 0.22744 0.60019 0.80204 0.0
C177 C 0.2212 0.63277 0.76396 0.0
C178 C 0.115 0.49426 0.77274 0.0
N179 N 0.15181 0.56398 0.74572 0.0
C180 C 0.21751 0.54032 0.90894 0.0
C181 C 1.01026 0.61332 0.92767 0.0
C182 C 0.09452 0.62218 0.95484 0.0
C183 C 0.20077 0.59242 0.94375 0.0
C184 C 1.03222 0.56325 0.89218 0.0
N185 N 0.13154 0.51443 0.88568 0.0
H186 H 0.29911 0.51164 0.90287 0.0
H187 H 0.96751 0.55847 0.87123 0.0
H188 H 0.28338 0.63164 0.82344 0.0
H189 H 1.06245 0.42443 0.76696 0.0
O190 O 0.31671 0.40376 0.84845 0.0
O191 O 0.21912 0.29895 0.80936 0.0
O192 O 0.99761 0.37632 0.83603 0.0
C193 C 0.31487 0.33038 0.82165 0.0
H194 H 0.07985 1.04521 0.9168 0.0
H195 H 0.26978 0.69607 0.75026 0.0
H196 H 0.92807 0.64083 0.93434 0.0
H197 H 0.26974 0.59943 -0.03696 0.0
Co198 Co 0.23416 0.64394 0.09714 0.0
C199 C 0.34394 0.67575 0.17222 0.0
C200 C 0.44421 0.58623 0.13233 0.0
C201 C 0.50099 0.59527 0.16623 0.0
N202 N 0.34473 0.63373 0.13651 0.0
N203 N 0.43741 0.65163 0.19078 0.0
H204 H 0.27795 0.72328 0.18445 0.0
H205 H 0.47307 0.54708 0.1064 0.0
C206 C 0.28255 0.40071 0.10587 0.0
O207 O 0.28732 0.41121 0.14327 0.0
N208 N 0.12582 0.6538 0.05614 0.0
C209 C 1.02749 0.60318 0.05398 0.0
C210 C 0.99455 0.59957 0.01612 0.0
C211 C 0.14873 0.68254 0.01961 0.0
N212 N 0.07252 0.64751 -0.00553 0.0
C213 C 0.08038 0.70839 0.15428 0.0
C214 C 1.03086 0.50159 0.18211 0.0
C215 C 1.01311 0.59351 0.20545 0.0
C216 C 1.02931 0.69806 0.18966 0.0
C217 C 0.08054 0.51625 0.14616 0.0
N218 N 0.1176 0.61788 0.1351 0.0
H219 H 0.09837 0.79028 0.1444 0.0
H220 H 0.09122 0.44529 0.12818 0.0
H221 H 0.98727 0.56107 0.07727 0.0
H222 H 0.22556 0.71767 0.01053 0.0
O223 O 0.24082 0.80298 0.10079 0.0
O224 O 0.34624 0.70248 0.06303 0.0
O225 O 0.25636 0.48215 0.08439 0.0
C226 C 0.31859 0.79934 0.07562 0.0
H227 H 0.58292 0.56567 0.17214 0.0
H228 H 0.92608 0.5526 0.00507 0.0
H229 H 1.01273 0.41947 0.19234 0.0
H230 H 1.00953 0.77171 0.20569 0.0
Co231 Co 0.98347 0.74464 0.34649 0.0
C232 C 0.93964 0.86864 0.4189 0.0
C233 C 1.03899 0.9587 0.37895 0.0
C234 C 1.0282 1.02126 0.41155 0.0
N235 N 0.98661 0.86169 0.38402 0.0
N236 N 0.96557 0.96412 0.43613 0.0
H237 H 0.88862 0.80647 0.4318 0.0
H238 H 0.08373 0.9816 0.35342 0.0
C239 C 0.22468 0.79102 0.35874 0.0
O240 O 0.21127 0.79148 0.39606 0.0
N241 N 0.98216 0.63385 0.30717 0.0
C242 C 0.91483 0.547 0.30207 0.0
C243 C 0.92107 0.51443 0.26399 0.0
C244 C 1.02737 0.65285 0.27278 0.0
N245 N 0.99052 0.58316 0.24576 0.0
C246 C 0.92492 0.60701 0.40904 0.0
C247 C 0.13214 0.5336 0.4276 0.0
C248 C 1.04802 0.52486 0.45484 0.0
C249 C 0.94176 0.55485 0.44383 0.0
C250 C 0.11008 0.58377 0.39214 0.0
N251 N 1.01081 0.63276 0.38572 0.0
H252 H 0.84333 0.63581 0.40301 0.0
H253 H 0.17469 0.58849 0.37115 0.0
H254 H 0.85884 0.51559 0.32347 0.0
H255 H 0.07996 0.72265 0.267 0.0
O256 O 0.82562 0.74339 0.34849 0.0
O257 O 0.92319 0.84818 0.30938 0.0
O258 O 0.14472 0.77085 0.33605 0.0
C259 C 0.82744 0.81675 0.32168 0.0
H260 H 1.06262 0.10198 0.41677 0.0
H261 H 0.87244 0.45118 0.25028 0.0
H262 H 0.21432 0.50593 0.43422 0.0
H263 H 0.87289 0.54791 0.46318 0.0
loop_
_geom_bond_atom_site_label_1
_geom_bond_atom_site_label_2
_geom_bond_distance
_geom_bond_site_symmetry_2
_ccdc_geom_bond_type
Co0 N4 2.148 . S
Co0 N10 2.128 . S
Co0 N20 2.194 . S
Co0 O25 2.351 . S
Co0 O26 2.155 . S
Co0 O27 2.096 . S
C1 N4 1.301 . S
C1 N5 1.328 . S
C1 H6 0.930 . S
C2 C3 1.333 . S
C2 N4 1.317 . S
C2 H7 0.930 . S
C3 C2 1.333 . S
C3 N5 1.350 . S
C3 H29 0.931 1_554 S
N4 Co0 2.148 . S
N4 C1 1.301 . S
N4 C2 1.317 . S
N5 C1 1.328 . S
N5 C3 1.350 . S
H6 C1 0.930 . S
H7 C2 0.930 . S
C8 O9 1.224 1_545 S
C8 O27 1.247 . S
O9 C8 1.224 1_565 S
N10 Co0 2.128 . S
N10 C11 1.355 . S
N10 C13 1.311 . S
C11 N10 1.355 . S
C11 C12 1.363 . S
C11 H23 0.929 . S
C12 C11 1.363 . S
C12 N14 1.375 . S
C12 H30 0.931 . S
C13 N10 1.311 . S
C13 N14 1.347 . S
C13 H24 0.929 . S
N14 C12 1.375 . S
N14 C13 1.347 . S
C15 C18 1.365 . S
C15 N20 1.328 . S
C15 H21 0.929 . S
C16 C17 1.362 . S
C16 C19 1.378 . S
C16 H31 0.929 . S
C17 C16 1.362 . S
C17 C18 1.366 . S
C18 C15 1.365 . S
C18 C17 1.366 . S
C18 H32 0.930 . S
C19 C16 1.378 . S
C19 N20 1.315 . S
C19 H22 0.930 . S
N20 Co0 2.194 . S
N20 C15 1.328 . S
N20 C19 1.315 . S
H21 C15 0.929 . S
H22 C19 0.930 . S
H23 C11 0.929 . S
H24 C13 0.929 . S
O25 Co0 2.351 . S
O25 C28 1.244 . S
O26 Co0 2.155 . S
O26 C28 1.240 . S
O27 Co0 2.096 . S
O27 C8 1.247 . S
C28 O25 1.244 . S
C28 O26 1.240 . S
H29 C3 0.931 1_556 S
H30 C12 0.931 . S
H31 C16 0.929 . S
H32 C18 0.930 . S
Co33 N37 2.148 . S
Co33 N43 2.128 . S
Co33 N53 2.194 . S
Co33 O58 2.351 . S
Co33 O59 2.155 . S
Co33 O60 2.096 . S
C34 N37 1.301 . S
C34 N38 1.328 . S
C34 H39 0.930 . S
C35 C36 1.333 . S
C35 N37 1.317 . S
C35 H40 0.930 . S
C36 C35 1.333 . S
C36 N38 1.350 . S
C36 H62 0.931 . S
N37 Co33 2.148 . S
N37 C34 1.301 . S
N37 C35 1.317 . S
N38 C34 1.328 . S
N38 C36 1.350 . S
H39 C34 0.930 . S
H40 C35 0.930 . S
C41 O42 1.224 . S
C41 O60 1.247 . S
O42 C41 1.224 . S
N43 Co33 2.128 . S
N43 C44 1.355 1_565 S
N43 C46 1.311 . S
C44 N43 1.355 1_545 S
C44 C45 1.363 . S
C44 H56 0.929 . S
C45 C44 1.363 . S
C45 N47 1.375 1_545 S
C45 H63 0.931 . S
C46 N43 1.311 . S
C46 N47 1.347 . S
C46 H57 0.929 . S
N47 C45 1.375 1_565 S
N47 C46 1.347 . S
C48 C51 1.365 . S
C48 N53 1.328 1_545 S
C48 H54 0.929 . S
C49 C50 1.362 . S
C49 C52 1.378 . S
C49 H64 0.929 . S
C50 C49 1.362 . S
C50 C51 1.366 . S
C51 C48 1.365 . S
C51 C50 1.366 . S
C51 H65 0.930 . S
C52 C49 1.378 . S
C52 N53 1.315 1_545 S
C52 H55 0.930 1_545 S
N53 Co33 2.194 . S
N53 C48 1.328 1_565 S
N53 C52 1.315 1_565 S
H54 C48 0.929 . S
H55 C52 0.930 1_565 S
H56 C44 0.929 . S
H57 C46 0.929 . S
O58 Co33 2.351 . S
O58 C61 1.244 . S
O59 Co33 2.155 . S
O59 C61 1.240 . S
O60 Co33 2.096 . S
O60 C41 1.247 . S
C61 O58 1.244 . S
C61 O59 1.240 . S
H62 C36 0.931 . S
H63 C45 0.931 . S
H64 C49 0.929 . S
H65 C51 0.930 . S
Co66 N70 2.148 . S
Co66 N76 2.128 . S
Co66 N86 2.194 . S
Co66 O91 2.351 . S
Co66 O92 2.155 . S
Co66 O93 2.096 . S
C67 N70 1.301 . S
C67 N71 1.328 . S
C67 H72 0.930 . S
C68 C69 1.333 . S
C68 N70 1.317 . S
C68 H73 0.930 . S
C69 C68 1.333 . S
C69 N71 1.350 . S
C69 H95 0.931 . S
N70 Co66 2.148 . S
N70 C67 1.301 . S
N70 C68 1.317 . S
N71 C67 1.328 . S
N71 C69 1.350 . S
H72 C67 0.930 . S
H73 C68 0.930 . S
C74 O75 1.224 1_565 S
C74 O93 1.247 . S
O75 C74 1.224 1_545 S
N76 Co66 2.128 . S
N76 C77 1.355 . S
N76 C79 1.311 . S
C77 N76 1.355 . S
C77 C78 1.363 . S
C77 H89 0.929 . S
C78 C77 1.363 . S
C78 N80 1.375 . S
C78 H96 0.931 . S
C79 N76 1.311 . S
C79 N80 1.347 . S
C79 H90 0.929 . S
N80 C78 1.375 . S
N80 C79 1.347 . S
C81 C84 1.365 . S
C81 N86 1.328 . S
C81 H87 0.929 . S
C82 C83 1.362 . S
C82 C85 1.378 . S
C82 H97 0.929 . S
C83 C82 1.362 . S
C83 C84 1.366 . S
C84 C81 1.365 . S
C84 C83 1.366 . S
C84 H98 0.930 . S
C85 C82 1.378 . S
C85 N86 1.315 . S
C85 H88 0.930 . S
N86 Co66 2.194 . S
N86 C81 1.328 . S
N86 C85 1.315 . S
H87 C81 0.929 . S
H88 C85 0.930 . S
H89 C77 0.929 . S
H90 C79 0.929 . S
O91 Co66 2.351 . S
O91 C94 1.244 . S
O92 Co66 2.155 . S
O92 C94 1.240 . S
O93 Co66 2.096 . S
O93 C74 1.247 . S
C94 O91 1.244 . S
C94 O92 1.240 . S
H95 C69 0.931 . S
H96 C78 0.931 . S
H97 C82 0.929 . S
H98 C84 0.930 . S
Co99 N103 2.148 . S
Co99 N109 2.128 . S
Co99 N119 2.194 . S
Co99 O124 2.351 . S
Co99 O125 2.155 . S
Co99 O126 2.096 . S
C100 N103 1.301 . S
C100 N104 1.328 . S
C100 H105 0.930 . S
C101 C102 1.333 . S
C101 N103 1.317 . S
C101 H106 0.930 . S
C102 C101 1.333 . S
C102 N104 1.350 . S
C102 H128 0.931 . S
N103 Co99 2.148 . S
N103 C100 1.301 . S
N103 C101 1.317 . S
N104 C100 1.328 . S
N104 C102 1.350 . S
H105 C100 0.930 . S
H106 C101 0.930 . S
C107 O108 1.224 . S
C107 O126 1.247 . S
O108 C107 1.224 . S
N109 Co99 2.128 . S
N109 C110 1.355 1_545 S
N109 C112 1.311 . S
C110 N109 1.355 1_565 S
C110 C111 1.363 . S
C110 H122 0.929 . S
C111 C110 1.363 . S
C111 N113 1.375 1_565 S
C111 H129 0.931 . S
C112 N109 1.311 . S
C112 N113 1.347 . S
C112 H123 0.929 . S
N113 C111 1.375 1_545 S
N113 C112 1.347 . S
C114 C117 1.365 . S
C114 N119 1.328 1_565 S
C114 H120 0.929 . S
C115 C116 1.362 . S
C115 C118 1.378 . S
C115 H130 0.929 . S
C116 C115 1.362 . S
C116 C117 1.366 . S
C117 C114 1.365 . S
C117 C116 1.366 . S
C117 H131 0.930 . S
C118 C115 1.378 . S
C118 N119 1.315 1_565 S
C118 H121 0.930 1_565 S
N119 Co99 2.194 . S
N119 C114 1.328 1_545 S
N119 C118 1.315 1_545 S
H120 C114 0.929 . S
H121 C118 0.930 1_545 S
H122 C110 0.929 . S
H123 C112 0.929 . S
O124 Co99 2.351 . S
O124 C127 1.244 . S
O125 Co99 2.155 . S
O125 C127 1.240 . S
O126 Co99 2.096 . S
O126 C107 1.247 . S
C127 O124 1.244 . S
C127 O125 1.240 . S
H128 C102 0.931 . S
H129 C111 0.931 . S
H130 C115 0.929 . S
H131 C117 0.930 . S
Co132 N136 2.148 . S
Co132 N142 2.128 . S
Co132 N152 2.194 . S
Co132 O157 2.351 . S
Co132 O158 2.155 . S
Co132 O159 2.096 . S
C133 N136 1.301 . S
C133 N137 1.328 . S
C133 H138 0.930 . S
C134 C135 1.333 . S
C134 N136 1.317 . S
C134 H139 0.930 . S
C135 C134 1.333 . S
C135 N137 1.350 . S
C135 H161 0.931 . S
N136 Co132 2.148 . S
N136 C133 1.301 . S
N136 C134 1.317 . S
N137 C133 1.328 . S
N137 C135 1.350 . S
H138 C133 0.930 . S
H139 C134 0.930 . S
C140 O141 1.224 . S
C140 O159 1.247 . S
O141 C140 1.224 . S
N142 Co132 2.128 . S
N142 C143 1.355 1_655 S
N142 C145 1.311 . S
C143 N142 1.355 1_455 S
C143 C144 1.363 . S
C143 H155 0.929 . S
C144 C143 1.363 . S
C144 N146 1.375 1_455 S
C144 H162 0.931 . S
C145 N142 1.311 . S
C145 N146 1.347 . S
C145 H156 0.929 . S
N146 C144 1.375 1_655 S
N146 C145 1.347 . S
C147 C150 1.365 . S
C147 N152 1.328 1_455 S
C147 H153 0.929 . S
C148 C149 1.362 . S
C148 C151 1.378 . S
C148 H163 0.929 . S
C149 C148 1.362 . S
C149 C150 1.366 . S
C150 C147 1.365 . S
C150 C149 1.366 . S
C150 H164 0.930 . S
C151 C148 1.378 . S
C151 N152 1.315 1_455 S
C151 H154 0.930 1_455 S
N152 Co132 2.194 . S
N152 C147 1.328 1_655 S
N152 C151 1.315 1_655 S
H153 C147 0.929 . S
H154 C151 0.930 1_655 S
H155 C143 0.929 . S
H156 C145 0.929 . S
O157 Co132 2.351 . S
O157 C160 1.244 . S
O158 Co132 2.155 . S
O158 C160 1.240 . S
O159 Co132 2.096 . S
O159 C140 1.247 . S
C160 O157 1.244 . S
C160 O158 1.240 . S
H161 C135 0.931 . S
H162 C144 0.931 . S
H163 C148 0.929 . S
H164 C150 0.930 . S
Co165 N169 2.148 . S
Co165 N175 2.128 . S
Co165 N185 2.194 . S
Co165 O190 2.351 . S
Co165 O191 2.155 . S
Co165 O192 2.096 . S
C166 N169 1.301 . S
C166 N170 1.328 . S
C166 H171 0.930 . S
C167 C168 1.333 . S
C167 N169 1.317 . S
C167 H172 0.930 . S
C168 C167 1.333 . S
C168 N170 1.350 . S
C168 H194 0.931 1_556 S
N169 Co165 2.148 . S
N169 C166 1.301 . S
N169 C167 1.317 . S
N170 C166 1.328 . S
N170 C168 1.350 . S
H171 C166 0.930 . S
H172 C167 0.930 . S
C173 O174 1.224 1_455 S
C173 O192 1.247 . S
O174 C173 1.224 1_655 S
N175 Co165 2.128 . S
N175 C176 1.355 . S
N175 C178 1.311 . S
C176 N175 1.355 . S
C176 C177 1.363 . S
C176 H188 0.929 . S
C177 C176 1.363 . S
C177 N179 1.375 . S
C177 H195 0.931 . S
C178 N175 1.311 . S
C178 N179 1.347 . S
C178 H189 0.929 . S
N179 C177 1.375 . S
N179 C178 1.347 . S
C180 C183 1.365 . S
C180 N185 1.328 . S
C180 H186 0.929 . S
C181 C182 1.362 . S
C181 C184 1.378 . S
C181 H196 0.929 . S
C182 C181 1.362 . S
C182 C183 1.366 . S
C183 C180 1.365 . S
C183 C182 1.366 . S
C183 H197 0.930 . S
C184 C181 1.378 . S
C184 N185 1.315 . S
C184 H187 0.930 . S
N185 Co165 2.194 . S
N185 C180 1.328 . S
N185 C184 1.315 . S
H186 C180 0.929 . S
H187 C184 0.930 . S
H188 C176 0.929 . S
H189 C178 0.929 . S
O190 Co165 2.351 . S
O190 C193 1.244 . S
O191 Co165 2.155 . S
O191 C193 1.240 . S
O192 Co165 2.096 . S
O192 C173 1.247 . S
C193 O190 1.244 . S
C193 O191 1.240 . S
H194 C168 0.931 1_554 S
H195 C177 0.931 . S
H196 C181 0.929 . S
H197 C183 0.930 . S
Co198 N202 2.148 . S
Co198 N208 2.128 . S
Co198 N218 2.194 . S
Co198 O223 2.351 . S
Co198 O224 2.155 . S
Co198 O225 2.096 . S
C199 N202 1.301 . S
C199 N203 1.328 . S
C199 H204 0.930 . S
C200 C201 1.333 . S
C200 N202 1.317 . S
C200 H205 0.930 . S
C201 C200 1.333 . S
C201 N203 1.350 . S
C201 H227 0.931 . S
N202 Co198 2.148 . S
N202 C199 1.301 . S
N202 C200 1.317 . S
N203 C199 1.328 . S
N203 C201 1.350 . S
H204 C199 0.930 . S
H205 C200 0.930 . S
C206 O207 1.224 . S
C206 O225 1.247 . S
O207 C206 1.224 . S
N208 Co198 2.128 . S
N208 C209 1.355 1_455 S
N208 C211 1.311 . S
C209 N208 1.355 1_655 S
C209 C210 1.363 . S
C209 H221 0.929 . S
C210 C209 1.363 . S
C210 N212 1.375 1_655 S
C210 H228 0.931 . S
C211 N208 1.311 . S
C211 N212 1.347 . S
C211 H222 0.929 . S
N212 C210 1.375 1_455 S
N212 C211 1.347 . S
C213 C216 1.365 . S
C213 N218 1.328 1_655 S
C213 H219 0.929 . S
C214 C215 1.362 . S
C214 C217 1.378 . S
C214 H229 0.929 . S
C215 C214 1.362 . S
C215 C216 1.366 . S
C216 C213 1.365 . S
C216 C215 1.366 . S
C216 H230 0.930 . S
C217 C214 1.378 . S
C217 N218 1.315 1_655 S
C217 H220 0.930 1_655 S
N218 Co198 2.194 . S
N218 C213 1.328 1_455 S
N218 C217 1.315 1_455 S
H219 C213 0.929 . S
H220 C217 0.930 1_455 S
H221 C209 0.929 . S
H222 C211 0.929 . S
O223 Co198 2.351 . S
O223 C226 1.244 . S
O224 Co198 2.155 . S
O224 C226 1.240 . S
O225 Co198 2.096 . S
O225 C206 1.247 . S
C226 O223 1.244 . S
C226 O224 1.240 . S
H227 C201 0.931 . S
H228 C210 0.931 . S
H229 C214 0.929 . S
H230 C216 0.930 . S
Co231 N235 2.148 . S
Co231 N241 2.128 . S
Co231 N251 2.194 . S
Co231 O256 2.351 . S
Co231 O257 2.155 . S
Co231 O258 2.096 . S
C232 N235 1.301 . S
C232 N236 1.328 . S
C232 H237 0.930 . S
C233 C234 1.333 . S
C233 N235 1.317 . S
C233 H238 0.930 . S
C234 C233 1.333 . S
C234 N236 1.350 . S
C234 H260 0.931 . S
N235 Co231 2.148 . S
N235 C232 1.301 . S
N235 C233 1.317 . S
N236 C232 1.328 . S
N236 C234 1.350 . S
H237 C232 0.930 . S
H238 C233 0.930 . S
C239 O240 1.224 1_655 S
C239 O258 1.247 . S
O240 C239 1.224 1_455 S
N241 Co231 2.128 . S
N241 C242 1.355 . S
N241 C244 1.311 . S
C242 N241 1.355 . S
C242 C243 1.363 . S
C242 H254 0.929 . S
C243 C242 1.363 . S
C243 N245 1.375 . S
C243 H261 0.931 . S
C244 N241 1.311 . S
C244 N245 1.347 . S
C244 H255 0.929 . S
N245 C243 1.375 . S
N245 C244 1.347 . S
C246 C249 1.365 . S
C246 N251 1.328 . S
C246 H252 0.929 . S
C247 C248 1.362 . S
C247 C250 1.378 . S
C247 H262 0.929 . S
C248 C247 1.362 . S
C248 C249 1.366 . S
C249 C246 1.365 . S
C249 C248 1.366 . S
C249 H263 0.930 . S
C250 C247 1.378 . S
C250 N251 1.315 . S
C250 H253 0.930 . S
N251 Co231 2.194 . S
N251 C246 1.328 . S
N251 C250 1.315 . S
H252 C246 0.929 . S
H253 C250 0.930 . S
H254 C242 0.929 . S
H255 C244 0.929 . S
O256 Co231 2.351 . S
O256 C259 1.244 . S
O257 Co231 2.155 . S
O257 C259 1.240 . S
O258 Co231 2.096 . S
O258 C239 1.247 . S
C259 O256 1.244 . S
C259 O257 1.240 . S
H260 C234 0.931 . S
H261 C243 0.931 . S
H262 C247 0.929 . S
H263 C249 0.930 . S
N5 N170 0.928 1_554 S
N203 N38 0.927 . S
N236 N71 0.927 . S
N137 N104 0.927 . S
N113 C17 3.014 1_556 S
C50 N14 3.014 . S
N47 C83 3.014 . S
C116 N80 3.015 . S
N179 C149 3.014 . S
C182 N212 3.014 1_556 S
C215 N245 3.015 . S
C248 N146 3.014 . S
C226 C8 2.581 1_565 S
C259 C41 2.581 . S
C74 C160 2.581 1_565 S
C107 C193 2.581 . S
C140 C94 2.581 . S
C127 C173 2.581 1_655 S
C206 C28 2.581 . S
C61 C239 2.581 1_455 S
