# Generated by pormake.
# Topology bsn, (6)-cn, num edge types: 1
# Building blocks:
#     Node 0, Type 0, BuildingBlock: LEVNOQ01_clean_sbu_1, # of connection points: 6
#     Node 1, Type 0, BuildingBlock: LEVNOQ01_clean_sbu_1, # of connection points: 6
#     Node 2, Type 0, BuildingBlock: LEVNOQ01_clean_sbu_1, # of connection points: 6
#     Node 3, Type 0, BuildingBlock: LEVNOQ01_clean_sbu_1, # of connection points: 6
#     Edge 4, Type (0, 0), BuildingBlock: ZUJKAS_clean_linker_0, # of connection points: 2
#     Edge 5, Type (0, 0), BuildingBlock: ZUJKAS_clean_linker_0, # of connection points: 2
#     Edge 6, Type (0, 0), BuildingBlock: ZUJKAS_clean_linker_0, # of connection points: 2
#     Edge 7, Type (0, 0), BuildingBlock: ZUJKAS_clean_linker_0, # of connection points: 2
#     Edge 8, Type (0, 0), BuildingBlock: ZUJKAS_clean_linker_0, # of connection points: 2
#     Edge 9, Type (0, 0), BuildingBlock: ZUJKAS_clean_linker_0, # of connection points: 2
#     Edge 10, Type (0, 0), BuildingBlock: ZUJKAS_clean_linker_0, # of connection points: 2
#     Edge 11, Type (0, 0), BuildingBlock: ZUJKAS_clean_linker_0, # of connection points: 2
#     Edge 12, Type (0, 0), BuildingBlock: ZUJKAS_clean_linker_0, # of connection points: 2
#     Edge 13, Type (0, 0), BuildingBlock: ZUJKAS_clean_linker_0, # of connection points: 2
#     Edge 14, Type (0, 0), BuildingBlock: ZUJKAS_clean_linker_0, # of connection points: 2
#     Edge 15, Type (0, 0), BuildingBlock: ZUJKAS_clean_linker_0, # of connection points: 2
# Relax obj value: 0.174
# Max RMSD: 0.189
# Mean RMSD: 0.189
data_MOF--net-bsn--node1-LEVNOQ01_clean_sbu_1--edge1-ZUJKAS_clean_linker_0
_symmetry_space_group_name_H-M    P1
_symmetry_Int_Tables_number       1
_symmetry_cell_setting            triclinic
loop_
_symmetry_equiv_pos_as_xyz
'x, y, z'
_cell_length_a     39.900322
_cell_length_b     38.817183
_cell_length_c     19.709379
_cell_angle_alpha  89.639552
_cell_angle_beta   99.885875
_cell_angle_gamma 90.079955
loop_
_atom_site_label
_atom_site_type_symbol
_atom_site_fract_x
_atom_site_fract_y
_atom_site_fract_z
_atom_type_partial_charge
O0 O 0.03648 0.21226 0.51412 0.0
Mg1 Mg 0.00977 0.2037 0.41582 0.0
O2 O 0.05349 0.25875 0.46614 0.0
Mg3 Mg 0.03646 0.25305 0.34636 0.0
O4 O 0.039 0.19054 0.34309 0.0
O5 O 0.00996 0.1535 0.40022 0.0
O6 O 0.01906 0.24919 0.22619 0.0
O7 O 0.09462 0.24577 0.34133 0.0
Mg8 Mg 0.0638 0.31089 0.27901 0.0
O9 O 0.03529 0.31447 0.35479 0.0
O10 O 0.03527 0.29821 0.18444 0.0
O11 O 0.1143 0.29471 0.30691 0.0
O12 O 0.05583 0.35984 0.30276 0.0
C13 C 0.9528 0.24398 0.36005 0.0
C14 C 0.05276 0.2402 0.51943 0.0
C15 C 0.03076 0.1591 0.35827 0.0
C16 C 0.0191 0.27016 0.17611 0.0
C17 C 0.11934 0.26416 0.32852 0.0
C18 C 0.03871 0.34775 0.34748 0.0
O19 O 0.95867 0.21614 0.39276 0.0
O20 O 0.97749 0.2609 0.34313 0.0
O21 O 0.00919 0.73626 0.44153 0.0
Mg22 Mg 0.04197 0.72164 0.52998 0.0
O23 O 0.00867 0.78142 0.50632 0.0
Mg24 Mg 0.01924 0.76112 0.62149 0.0
O25 O 0.01859 0.69958 0.6047 0.0
O26 O 0.04405 0.67061 0.52847 0.0
O27 O 0.02886 0.74583 0.73696 0.0
O28 O 0.95991 0.75363 0.61979 0.0
Mg29 Mg 0.98359 0.81639 0.69902 0.0
O30 O 0.01994 0.82 0.63942 0.0
O31 O 0.99887 0.78395 0.78528 0.0
O32 O 0.93718 0.80382 0.63681 0.0
O33 O 1.00266 0.86535 0.69287 0.0
C34 C 0.10135 0.75768 0.60057 0.0
C35 C 1.00255 0.76761 0.44718 0.0
C36 C 0.02652 0.67073 0.57749 0.0
C37 C 0.01729 0.75714 0.7889 0.0
C38 C 0.93368 0.77215 0.62268 0.0
C39 C 0.02031 0.85304 0.64954 0.0
O40 O 0.09292 0.7388 0.54854 0.0
O41 O 0.07857 0.76768 0.63406 0.0
O42 O 0.54995 0.73082 0.02435 0.0
Mg43 Mg 0.51699 0.71798 0.93369 0.0
O44 O 0.54717 0.77623 0.95881 0.0
Mg45 Mg 0.54086 0.75791 0.84392 0.0
O46 O 0.53857 0.69615 0.85612 0.0
O47 O 0.51233 0.66694 0.93154 0.0
O48 O 0.53329 0.74675 0.727 0.0
O49 O 0.60036 0.74702 0.85455 0.0
Mg50 Mg 0.58242 0.80961 0.78247 0.0
O51 O 0.54307 0.81783 0.83375 0.0
O52 O 0.56858 0.78317 0.68848 0.0
O53 O 0.62762 0.79568 0.84694 0.0
O54 O 0.56912 0.86002 0.78518 0.0
C55 C 0.45908 0.75706 0.8603 0.0
C56 C 0.55322 0.76284 0.01855 0.0
C57 C 0.52936 0.66718 0.88169 0.0
C58 C 0.54711 0.75884 0.67825 0.0
C59 C 0.62831 0.76371 0.85882 0.0
C60 C 0.54718 0.85055 0.82272 0.0
O61 O 0.46706 0.73875 0.91387 0.0
O62 O 0.48193 0.76579 0.82569 0.0
O63 O 0.54388 0.25525 0.97324 0.0
Mg64 Mg 0.54627 0.22127 0.05854 0.0
O65 O 0.49601 0.27047 0.002 0.0
Mg66 Mg 0.51599 0.25668 0.11733 0.0
O67 O 0.51032 0.19425 0.09955 0.0
O68 O 0.53665 0.17542 0.01463 0.0
O69 O 0.53418 0.24328 0.23513 0.0
O70 O 0.45852 0.25176 0.12879 0.0
Mg71 Mg 0.49758 0.31569 0.21443 0.0
O72 O 0.51822 0.31601 0.12828 0.0
O73 O 0.53183 0.29197 0.29254 0.0
O74 O 0.44745 0.29648 0.19132 0.0
O75 O 0.50909 0.36412 0.18345 0.0
C76 C 0.6008 0.24637 0.12771 0.0
C77 C 0.51601 0.27094 0.9587 0.0
C78 C 0.51748 0.16956 0.05959 0.0
C79 C 0.541 0.26085 0.29047 0.0
C80 C 0.43782 0.26955 0.1572 0.0
C81 C 0.51986 0.34934 0.13284 0.0
O82 O 0.59401 0.21516 0.11637 0.0
O83 O 0.57623 0.26792 0.1189 0.0
H84 H 0.04166 0.3484 0.48664 0.0
H85 H 0.02906 0.39788 0.55587 0.0
H86 H 0.99193 0.4545 0.36932 0.0
H87 H 0.00448 0.40532 0.3009 0.0
H88 H 0.06202 0.47017 0.50883 0.0
H89 H 0.92421 0.46904 0.52579 0.0
H90 H 0.94828 0.42965 0.52412 0.0
H91 H 0.93752 0.45514 0.44739 0.0
C92 C 0.02931 0.37078 0.46101 0.0
C93 C 0.02356 0.37293 0.38894 0.0
C94 C 0.02245 0.39911 0.50026 0.0
C95 C 0.00932 0.42965 0.4675 0.0
C96 C 1.0016 0.43098 0.39547 0.0
H97 H 0.9719 0.63925 0.50746 0.0
H98 H 0.96577 0.57696 0.49736 0.0
C99 C 0.00878 0.40292 0.35653 0.0
C100 C 0.00864 0.46189 0.50675 0.0
H101 H 0.95489 0.51994 0.56069 0.0
C102 C 0.03883 0.48089 0.52176 0.0
C103 C 0.97812 0.47586 0.52154 0.0
C104 C 0.94504 0.45648 0.50423 0.0
C105 C 0.03912 0.51437 0.54832 0.0
C106 C 0.00847 0.52863 0.56337 0.0
C107 C 0.97846 0.5089 0.55049 0.0
C108 C 0.00621 0.56546 0.58272 0.0
C109 C 0.07173 0.53487 0.55478 0.0
C110 C 0.02907 0.57991 0.63753 0.0
C111 C 0.03283 0.61575 0.64274 0.0
C112 C 0.01289 0.63739 0.59476 0.0
C113 C 0.98703 0.62301 0.54594 0.0
C114 C 0.98376 0.58733 0.53979 0.0
H115 H 0.09024 0.52301 0.52571 0.0
H116 H 0.06668 0.56162 0.53545 0.0
H117 H 0.08391 0.53596 0.60971 0.0
H118 H 0.04593 0.56356 0.67271 0.0
H119 H 0.05338 0.62631 0.6799 0.0
H120 H 0.69256 0.7813 0.91882 0.0
H121 H 0.74466 0.76579 0.87597 0.0
H122 H 0.68799 0.69355 0.73553 0.0
H123 H 0.63595 0.70835 0.77935 0.0
H124 H 0.7775 0.69401 0.84656 0.0
H125 H 0.72608 0.7776 0.62161 0.0
H126 H 0.71143 0.78143 0.70298 0.0
H127 H 0.69905 0.74497 0.6491 0.0
C128 C 0.69157 0.76093 0.88119 0.0
C129 C 0.6603 0.7458 0.85295 0.0
C130 C 0.72124 0.75232 0.85629 0.0
C131 C 0.72 0.72889 0.80198 0.0
C132 C 0.68941 0.7117 0.77745 0.0
H133 H 0.87981 0.7384 0.54179 0.0
H134 H 0.82692 0.71897 0.58005 0.0
C135 C 0.6598 0.71986 0.80322 0.0
C136 C 0.74967 0.72569 0.76634 0.0
H137 H 0.78208 0.75796 0.62947 0.0
C138 C 0.77839 0.70749 0.79852 0.0
C139 C 0.7506 0.74305 0.70334 0.0
C140 C 0.72029 0.76303 0.66692 0.0
C141 C 0.80848 0.70711 0.77048 0.0
C142 C 0.81024 0.7264 0.70979 0.0
C143 C 0.78085 0.74313 0.6758 0.0
C144 C 0.84319 0.73368 0.6866 0.0
C145 C 0.83823 0.6864 0.80704 0.0
C146 C 0.86978 0.74828 0.73336 0.0
C147 C 0.89959 0.75886 0.71186 0.0
C148 C 0.9035 0.75578 0.64273 0.0
C149 C 0.87742 0.74063 0.59549 0.0
C150 C 0.84729 0.72973 0.61735 0.0
H151 H 0.82934 0.66324 0.83224 0.0
H152 H 0.85524 0.67801 0.77123 0.0
H153 H 0.85312 0.70233 0.84815 0.0
H154 H 0.86701 0.75288 0.78625 0.0
H155 H 0.91932 0.77076 0.74908 0.0
H156 H 0.56664 0.39923 0.16289 0.0
H157 H 0.57725 0.4469 0.08779 0.0
H158 H 0.51246 0.39883 0.91692 0.0
H159 H 0.50217 0.35044 -0.00775 0.0
H160 H 0.59291 0.45059 0.92653 0.0
H161 H 0.47033 0.49614 -0.00554 0.0
H162 H 0.49832 0.46791 0.05108 0.0
H163 H 0.47482 0.45158 0.97218 0.0
C164 C 0.55582 0.39813 0.1086 0.0
C165 C 0.53369 0.37127 0.08309 0.0
C166 C 0.56193 0.42534 0.06581 0.0
C167 C 0.54561 0.42635 -0.00299 0.0
C168 C 0.52552 0.39824 0.96985 0.0
H169 H 0.49172 0.62178 0.7974 0.0
H170 H 0.49896 0.55925 0.80687 0.0
C171 C 0.51976 0.37061 0.01269 0.0
C172 C 0.54477 0.45932 0.95866 0.0
H173 H 0.49927 0.53388 0.93221 0.0
C174 C 0.57222 0.46867 0.92646 0.0
C175 C 0.51799 0.48293 0.95991 0.0
C176 C 0.48862 0.47446 -0.0037 0.0
C177 C 0.57355 0.50134 0.89542 0.0
C178 C 0.54699 0.52524 0.89773 0.0
C179 C 0.51937 0.51544 0.92923 0.0
C180 C 0.54805 0.56154 0.87349 0.0
C181 C 0.60344 0.50998 0.86092 0.0
C182 C 0.57421 0.58366 0.90393 0.0
C183 C 0.57041 0.61941 0.8969 0.0
C184 C 0.54026 0.63352 0.86015 0.0
C185 C 0.51559 0.61147 0.82435 0.0
C186 C 0.51956 0.57574 0.83057 0.0
H187 H 0.61489 0.48636 0.84304 0.0
H188 H 0.59594 0.52758 0.81628 0.0
H189 H 0.62328 0.52293 0.89856 0.0
H190 H 0.59603 0.57356 0.93864 0.0
H191 H 0.58924 0.63594 0.92682 0.0
H192 H 0.89663 0.20477 0.35936 0.0
H193 H 0.83778 0.21992 0.31762 0.0
H194 H 0.86826 0.32228 0.26685 0.0
H195 H 0.92822 0.30673 0.30683 0.0
H196 H 0.80014 0.26839 0.36542 0.0
H197 H 0.8069 0.2937 0.08942 0.0
H198 H 0.84107 0.273 0.14711 0.0
H199 H 0.83476 0.31866 0.15185 0.0
C200 C 0.89102 0.23061 0.33958 0.0
C201 C 0.91712 0.25466 0.33684 0.0
C202 C 0.85726 0.2392 0.31556 0.0
C203 C 0.84859 0.27215 0.28882 0.0
C204 C 0.87445 0.29651 0.28629 0.0
H205 H 0.62703 0.31139 0.15813 0.0
H206 H 0.68733 0.32634 0.19745 0.0
C207 C 0.9086 0.28771 0.30963 0.0
C208 C 0.81215 0.28024 0.26535 0.0
H209 H 0.75274 0.2936 0.12077 0.0
C210 C 0.78983 0.27475 0.31225 0.0
C211 C 0.79877 0.2883 0.19581 0.0
C212 C 0.82148 0.29355 0.14279 0.0
C213 C 0.75454 0.27494 0.29072 0.0
C214 C 0.74125 0.28145 0.22083 0.0
C215 C 0.76329 0.28911 0.17457 0.0
C216 C 0.70532 0.27399 0.19332 0.0
C217 C 0.73168 0.26563 0.34158 0.0
C218 C 0.69602 0.23985 0.1778 0.0
C219 C 0.6621 0.2313 0.15584 0.0
C220 C 0.63666 0.25678 0.14887 0.0
C221 C 0.64608 0.29125 0.16323 0.0
C222 C 0.68036 0.29982 0.18541 0.0
H223 H 0.74529 0.26681 0.39566 0.0
H224 H 0.70935 0.28312 0.33548 0.0
H225 H 0.72204 0.23899 0.33136 0.0
H226 H 0.71505 0.21965 0.18382 0.0
H227 H 0.65586 0.20449 0.14508 0.0
H228 H 0.41216 0.20359 0.15048 0.0
H229 H 0.35513 0.18613 0.16981 0.0
H230 H 0.32742 0.293 0.18192 0.0
H231 H 0.3836 0.3104 0.16262 0.0
H232 H 0.32932 0.20385 0.29098 0.0
H233 H 0.24432 0.25251 0.05908 0.0
H234 H 0.2893 0.24575 0.06118 0.0
H235 H 0.27432 0.28462 0.09548 0.0
C236 C 0.39348 0.22325 0.15527 0.0
C237 C 0.40227 0.25834 0.15518 0.0
C238 C 0.36107 0.21327 0.16671 0.0
C239 C 0.33697 0.23829 0.17666 0.0
C240 C 0.34534 0.27326 0.17313 0.0
H241 H 0.18038 0.29486 0.36901 0.0
H242 H 0.23453 0.27747 0.33735 0.0
C243 C 0.37757 0.28317 0.16247 0.0
C244 C 0.30431 0.22875 0.19789 0.0
H245 H 0.21981 0.24858 0.16371 0.0
C246 C 0.30518 0.21264 0.26225 0.0
C247 C 0.27285 0.24024 0.16039 0.0
C248 C 0.27008 0.25644 0.08987 0.0
C249 C 0.27577 0.21029 0.29237 0.0
C250 C 0.24501 0.22422 0.25704 0.0
C251 C 0.24359 0.23796 0.19066 0.0
C252 C 0.21525 0.22944 0.2911 0.0
C253 C 0.27791 0.1948 0.36325 0.0
C254 C 0.18708 0.20732 0.27827 0.0
C255 C 0.15622 0.21691 0.29763 0.0
C256 C 0.15318 0.2491 0.32832 0.0
C257 C 0.18216 0.26991 0.34552 0.0
C258 C 0.21303 0.26004 0.32742 0.0
H259 H 0.30232 0.181 0.38017 0.0
H260 H 0.27562 0.21558 0.40064 0.0
H261 H 0.25649 0.1766 0.36416 0.0
H262 H 0.18838 0.18375 0.24971 0.0
H263 H 0.1341 0.20064 0.28309 0.0
H264 H 0.40744 0.75849 0.93479 0.0
H265 H 0.34646 0.76501 0.89104 0.0
H266 H 0.36739 0.77949 0.68544 0.0
H267 H 0.42857 0.77328 0.72875 0.0
H268 H 0.31215 0.82801 0.75882 0.0
H269 H 0.29797 0.68529 0.73852 0.0
H270 H 0.32701 0.70407 0.8089 0.0
H271 H 0.33644 0.70634 0.72337 0.0
C272 C 0.39912 0.76356 0.8804 0.0
C273 C 0.42282 0.76537 0.83521 0.0
C274 C 0.36432 0.76733 0.85559 0.0
C275 C 0.35256 0.77269 0.78515 0.0
C276 C 0.3761 0.77561 0.7401 0.0
H277 H 0.15507 0.74206 0.53725 0.0
H278 H 0.21556 0.74871 0.58247 0.0
C279 C 0.411 0.77214 0.76496 0.0
C280 C 0.31558 0.77274 0.75808 0.0
H281 H 0.24877 0.71867 0.70559 0.0
C282 C 0.29817 0.80419 0.74719 0.0
C283 C 0.29762 0.74157 0.74306 0.0
C284 C 0.31548 0.70724 0.75381 0.0
C285 C 0.26304 0.80524 0.72116 0.0
C286 C 0.24501 0.774 0.70618 0.0
C287 C 0.26259 0.74259 0.7172 0.0
C288 C 0.20811 0.77307 0.67711 0.0
C289 C 0.24561 0.8397 0.70853 0.0
C290 C 0.18369 0.78493 0.71501 0.0
C291 C 0.14887 0.78121 0.68917 0.0
C292 C 0.13789 0.76536 0.62514 0.0
C293 C 0.16252 0.75437 0.58673 0.0
C294 C 0.19718 0.75809 0.61253 0.0
H295 H 0.26417 0.86107 0.70843 0.0
H296 H 0.2278 0.83987 0.65861 0.0
H297 H 0.23063 0.84466 0.74997 0.0
H298 H 0.19154 0.79607 0.76549 0.0
H299 H 0.13063 0.78975 0.72033 0.0
H300 H 0.51318 0.84413 0.93322 0.0
H301 H 0.49186 0.89145 -0.00298 0.0
H302 H 0.52313 0.96488 0.85499 0.0
H303 H 0.54344 0.91849 0.79115 0.0
H304 H 0.52815 0.94569 0.06349 0.0
H305 H 0.4285 0.99813 0.86132 0.0
H306 H 0.44579 0.9554 0.85641 0.0
H307 H 0.4671 0.9924 0.82787 0.0
C308 C 0.51464 0.87034 0.91481 0.0
C309 C 0.52979 0.87751 0.8568 0.0
C310 C 0.50266 0.89734 0.95149 0.0
C311 C 0.50524 0.93174 0.92999 0.0
C312 C 0.51987 0.93861 0.87154 0.0
H313 H 0.56264 0.11867 0.08232 0.0
H314 H 0.55196 0.05744 0.06984 0.0
C315 C 0.53174 0.91193 0.83523 0.0
C316 C 0.4952 0.96124 0.96998 0.0
H317 H 0.4574 0.04006 0.94355 0.0
C318 C 0.51183 0.96593 0.03808 0.0
C319 C 0.47325 0.98741 0.93788 0.0
C320 C 0.45237 0.98287 0.86709 0.0
C321 C 0.50985 0.99747 0.07199 0.0
C322 C 0.49144 0.02521 0.03621 0.0
C323 C 0.47194 0.01915 0.97103 0.0
C324 C 0.49714 0.06164 0.05879 0.0
C325 C 0.52875 1.00114 0.14472 0.0
C326 C 0.46993 0.08501 0.05711 0.0
C327 C 0.47613 0.12065 0.06358 0.0
C328 C 0.50957 0.13313 0.07115 0.0
C329 C 0.53661 0.1096 0.07713 0.0
C330 C 0.53051 0.0744 0.07067 0.0
H331 H 0.52805 0.97661 0.17378 0.0
H332 H 0.55587 0.00705 0.14354 0.0
H333 H 0.51794 0.02198 0.1727 0.0
H334 H 0.44391 0.07584 0.04719 0.0
H335 H 0.45488 0.13838 0.05781 0.0
H336 H 0.04757 0.91511 0.68962 0.0
H337 H 0.06191 0.96154 0.61517 0.0
H338 H 0.04252 0.89397 0.44013 0.0
H339 H 0.02849 0.84707 0.51482 0.0
H340 H 0.10933 0.9574 0.48294 0.0
H341 H 0.97051 0.98707 0.4399 0.0
H342 H 0.99114 0.96888 0.5208 0.0
H343 H 0.98534 0.94306 0.44469 0.0
C344 C 0.04744 0.90979 0.63567 0.0
C345 C 0.03702 0.87743 0.60803 0.0
C346 C 0.05564 0.93633 0.59326 0.0
C347 C 0.05324 0.93114 0.52231 0.0
C348 C 0.04482 0.89831 0.49497 0.0
H349 H 0.00892 0.11043 0.26252 0.0
H350 H 0.02096 0.04935 0.28566 0.0
C351 C 0.03699 0.8715 0.53772 0.0
C352 C 0.05512 0.96124 0.47659 0.0
H353 H 0.00613 0.02652 0.39728 0.0
C354 C 0.08678 0.97232 0.46299 0.0
C355 C 0.02566 0.9805 0.45084 0.0
C356 C 0.9911 0.96951 0.46445 0.0
C357 C 0.08982 1.00274 0.42513 0.0
C358 C 0.06047 0.02298 0.40178 0.0
C359 C 0.02869 0.01107 0.41405 0.0
C360 C 0.06193 0.05818 0.37123 0.0
C361 C 0.12449 0.01277 0.411 0.0
C362 C 0.08296 0.08359 0.40697 0.0
C363 C 0.07715 0.11848 0.39113 0.0
C364 C 0.04932 0.12863 0.34142 0.0
C365 C 0.031 0.10332 0.30007 0.0
C366 C 0.03746 0.06834 0.31442 0.0
H367 H 0.14009 0.98956 0.40577 0.0
H368 H 0.12281 0.02862 0.36347 0.0
H369 H 0.13799 0.02776 0.45519 0.0
H370 H 0.10142 0.07694 0.45203 0.0
H371 H 0.09103 0.13747 0.42509 0.0
H372 H 0.97981 0.31274 0.08801 0.0
H373 H 0.97591 0.31092 0.96325 0.0
H374 H 0.01892 0.20882 0.98003 0.0
H375 H 0.02294 0.21052 0.10543 0.0
H376 H 0.05922 0.28288 0.95803 0.0
H377 H 0.94455 0.24577 0.76876 0.0
H378 H 0.94081 0.26633 0.8492 0.0
H379 H 0.95485 0.22252 0.84934 0.0
C380 C 0.98656 0.2891 0.06465 0.0
C381 C 1.00246 0.26207 0.10581 0.0
C382 C 0.98414 0.28807 -0.00662 0.0
C383 C 0.99763 0.25998 0.96309 0.0
C384 C 0.00833 0.23065 0.00303 0.0
H385 H 0.08198 0.20389 0.63206 0.0
H386 H 0.07778 0.21946 0.75017 0.0
C387 C 0.01064 0.23161 0.07457 0.0
C388 C 0.0114 0.26597 0.89958 0.0
H389 H 0.99489 0.25801 0.72538 0.0
C390 C 0.04515 0.27771 0.90694 0.0
C391 C 0.99253 0.25994 0.83365 0.0
C392 C 0.95609 0.24801 0.82404 0.0
C393 C 0.06126 0.28178 0.84972 0.0
C394 C 0.04299 0.27396 0.78414 0.0
C395 C 0.00866 0.26402 0.77633 0.0
C396 C 0.05967 0.27109 0.72366 0.0
C397 C 0.09785 0.29325 0.85954 0.0
C398 C 0.05359 0.29609 0.67149 0.0
C399 C 0.05653 0.28738 0.60419 0.0
C400 C 0.0647 0.25351 0.58884 0.0
C401 C 0.0754 0.23014 0.64281 0.0
C402 C 0.07308 0.23902 0.71019 0.0
H403 H 0.10693 0.30293 0.91245 0.0
H404 H 0.11404 0.27118 0.84995 0.0
H405 H 0.101 0.31386 0.8218 0.0
H406 H 0.04307 0.32092 0.68129 0.0
H407 H 0.04794 0.30558 0.5634 0.0
H408 H 0.97225 0.73876 0.86893 0.0
H409 H 0.98494 0.73079 -0.00691 0.0
H410 H 0.09239 0.72997 -0.01431 0.0
H411 H 0.07953 0.73776 0.85982 0.0
H412 H 0.02807 0.69255 0.10563 0.0
H413 H 0.07161 0.82645 0.06215 0.0
H414 H 0.04918 0.802 -0.00901 0.0
H415 H 0.09165 0.79004 0.0296 0.0
C416 C 0.99852 0.73527 0.89341 0.0
C417 C 0.02501 0.73971 0.85582 0.0
C418 C 0.00577 0.73051 0.96429 0.0
C419 C 0.03959 0.73083 -0.00152 0.0
C420 C 0.06613 0.73021 0.95996 0.0
H421 H 0.05096 0.80947 0.41438 0.0
H422 H 0.06587 0.80502 0.2998 0.0
C423 C 0.0588 0.73459 0.88832 0.0
C424 C 0.04541 0.74112 0.07142 0.0
H425 H 0.049 0.81606 0.16233 0.0
C426 C 0.03371 0.71925 0.11905 0.0
C427 C 0.05321 0.7759 0.08908 0.0
C428 C 0.06715 0.80015 0.04058 0.0
C429 C 0.02663 0.73206 0.18133 0.0
C430 C 0.02997 0.7679 0.19451 0.0
C431 C 0.04516 0.78895 0.1505 0.0
C432 C 0.01733 0.78344 0.25356 0.0
C433 C 0.01463 0.7072 0.23137 0.0
C434 C 0.9837 0.77726 0.26277 0.0
C435 C 0.97538 0.77918 0.32851 0.0
C436 C 1.00046 0.78818 0.38441 0.0
C437 C 0.03132 0.80215 0.3718 0.0
C438 C 0.04009 0.79911 0.30649 0.0
H439 H 0.024 0.68068 0.22494 0.0
H440 H 0.02333 0.7152 0.28555 0.0
H441 H 0.98641 0.70632 0.22147 0.0
H442 H 0.96529 0.76664 0.22134 0.0
H443 H 0.95129 0.76861 0.33709 0.0
H444 H 0.59586 0.76585 0.14148 0.0
H445 H 0.5756 0.77448 0.25027 0.0
H446 H 0.47889 0.80954 0.13966 0.0
H447 H 0.49984 0.80296 0.03091 0.0
H448 H 0.50559 0.83269 0.29791 0.0
H449 H 0.49736 0.69388 0.23351 0.0
H450 H 0.53728 0.71305 0.22374 0.0
H451 H 0.49876 0.7273 0.16978 0.0
C452 C 0.57126 0.77774 0.14078 0.0
C453 C 0.54927 0.78349 0.07841 0.0
C454 C 0.55957 0.78248 0.20273 0.0
C455 C 0.5255 0.79167 0.20231 0.0
C456 C 0.5052 0.80235 0.14074 0.0
H457 H 0.48236 0.74277 0.61642 0.0
H458 H 0.46145 0.74413 0.49135 0.0
C459 C 0.51732 0.79871 0.07875 0.0
C460 C 0.50981 0.78102 0.26144 0.0
H461 H 0.50339 0.70794 0.35497 0.0
C462 C 0.50365 0.80549 0.30959 0.0
C463 C 0.50616 0.74551 0.27529 0.0
C464 C 0.50986 0.71839 0.22251 0.0
C465 C 0.49838 0.795 0.3752 0.0
C466 C 0.50044 0.75955 0.39259 0.0
C467 C 0.50214 0.73511 0.34151 0.0
C468 C 0.51161 0.74921 0.4648 0.0
C469 C 0.49462 0.82185 0.42829 0.0
C470 C 0.54663 0.74968 0.49003 0.0
C471 C 0.55848 0.74937 0.56055 0.0
C472 C 0.53545 0.74811 0.6068 0.0
C473 C 0.50056 0.74366 0.58148 0.0
C474 C 0.48858 0.74456 0.51037 0.0
H475 H 0.48746 0.84735 0.40424 0.0
H476 H 0.475 0.81379 0.45888 0.0
H477 H 0.51911 0.8246 0.4643 0.0
H478 H 0.56468 0.7532 0.45524 0.0
H479 H 0.58549 0.75266 0.57893 0.0
H480 H 0.59353 0.28272 0.38518 0.0
H481 H 0.59179 0.28025 0.50823 0.0
H482 H 0.51309 0.20311 0.47152 0.0
H483 H 0.5148 0.20553 0.34805 0.0
H484 H 0.51858 0.29932 0.51682 0.0
H485 H 0.56995 0.1863 0.67717 0.0
H486 H 0.58965 0.20222 0.60709 0.0
H487 H 0.55032 0.17899 0.58892 0.0
C488 C 0.57755 0.26352 0.40393 0.0
C489 C 0.55386 0.24475 0.3574 0.0
C490 C 0.57638 0.26234 0.4742 0.0
C491 C 0.55179 0.24208 0.49841 0.0
C492 C 0.53222 0.21893 0.45355 0.0
H493 H 0.46249 0.2499 0.86441 0.0
H494 H 0.46277 0.2501 0.74011 0.0
C495 C 0.53343 0.22008 0.38301 0.0
C496 C 0.54027 0.25205 0.56279 0.0
H497 H 0.53703 0.2262 0.72691 0.0
C498 C 0.52264 0.28341 0.56295 0.0
C499 C 0.54541 0.23104 0.62215 0.0
C500 C 0.56498 0.19776 0.62459 0.0
C501 C 0.5101 0.29438 0.62146 0.0
C502 C 0.5153 0.27337 0.68082 0.0
C503 C 0.53269 0.24192 0.68052 0.0
C504 C 0.50593 0.2844 0.74649 0.0
C505 C 0.49136 0.32814 0.61978 0.0
C506 C 0.52851 0.30565 0.78983 0.0
C507 C 0.52863 0.3052 0.86063 0.0
C508 C 0.50587 0.2839 0.88828 0.0
C509 C 0.48004 0.26675 0.84389 0.0
C510 C 0.48028 0.26672 0.77303 0.0
H511 H 0.48637 0.33974 0.56732 0.0
H512 H 0.46676 0.32428 0.63795 0.0
H513 H 0.50665 0.34655 0.65533 0.0
H514 H 0.54854 0.31933 0.77014 0.0
H515 H 0.54881 0.3185 0.8943 0.0
loop_
_geom_bond_atom_site_label_1
_geom_bond_atom_site_label_2
_geom_bond_distance
_geom_bond_site_symmetry_2
_ccdc_geom_bond_type
O0 Mg1 1.990 1_455 S
O0 C14 1.253 . S
Mg1 O0 1.990 1_655 S
Mg1 O4 2.180 1_655 S
Mg1 O5 2.117 1_655 S
Mg1 O19 2.030 . S
O2 Mg3 2.072 . S
O2 C14 1.260 . S
Mg3 O2 2.072 . S
Mg3 O4 2.099 . S
Mg3 O6 2.079 . S
Mg3 O7 2.072 . S
Mg3 O9 2.099 . S
Mg3 O20 2.079 1_455 S
O4 Mg1 2.180 1_455 S
O4 Mg3 2.099 . S
O4 C15 1.279 . S
O5 Mg1 2.117 1_455 S
O5 C15 1.250 . S
O6 Mg3 2.079 . S
O6 C16 1.264 . S
O7 Mg3 2.072 . S
O7 C17 1.260 . S
Mg8 O9 2.180 . S
Mg8 O10 2.030 . S
Mg8 O11 1.990 . S
Mg8 O12 2.117 . S
O9 Mg3 2.099 . S
O9 Mg8 2.180 . S
O9 C18 1.279 . S
O10 Mg8 2.030 . S
O10 C16 1.248 . S
O11 Mg8 1.990 . S
O11 C17 1.253 . S
O12 Mg8 2.117 . S
O12 C18 1.250 . S
C13 O19 1.248 . S
C13 O20 1.264 . S
C14 O0 1.253 . S
C14 O2 1.260 . S
C15 O4 1.279 . S
C15 O5 1.250 . S
C16 O6 1.264 . S
C16 O10 1.248 . S
C17 O7 1.260 . S
C17 O11 1.253 . S
C18 O9 1.279 . S
C18 O12 1.250 . S
O19 Mg1 2.030 . S
O19 C13 1.248 . S
O20 Mg3 2.079 1_655 S
O20 C13 1.264 . S
O21 Mg22 1.990 . S
O21 C35 1.253 . S
Mg22 O21 1.990 . S
Mg22 O25 2.180 . S
Mg22 O26 2.117 . S
Mg22 O40 2.030 . S
O23 Mg24 2.072 . S
O23 C35 1.260 . S
Mg24 O23 2.072 . S
Mg24 O25 2.099 . S
Mg24 O27 2.079 . S
Mg24 O28 2.072 1_455 S
Mg24 O30 2.099 . S
Mg24 O41 2.079 . S
O25 Mg22 2.180 . S
O25 Mg24 2.099 . S
O25 C36 1.279 . S
O26 Mg22 2.117 . S
O26 C36 1.250 . S
O27 Mg24 2.079 . S
O27 C37 1.264 . S
O28 Mg24 2.072 1_655 S
O28 C38 1.260 . S
Mg29 O30 2.180 1_655 S
Mg29 O31 2.030 . S
Mg29 O32 1.990 . S
Mg29 O33 2.117 . S
O30 Mg24 2.099 . S
O30 Mg29 2.180 1_455 S
O30 C39 1.279 . S
O31 Mg29 2.030 . S
O31 C37 1.248 1_655 S
O32 Mg29 1.990 . S
O32 C38 1.253 . S
O33 Mg29 2.117 . S
O33 C39 1.250 1_655 S
C34 O40 1.248 . S
C34 O41 1.264 . S
C35 O21 1.253 . S
C35 O23 1.260 . S
C36 O25 1.279 . S
C36 O26 1.250 . S
C37 O27 1.264 . S
C37 O31 1.248 1_455 S
C38 O28 1.260 . S
C38 O32 1.253 . S
C39 O30 1.279 . S
C39 O33 1.250 1_455 S
O40 Mg22 2.030 . S
O40 C34 1.248 . S
O41 Mg24 2.079 . S
O41 C34 1.264 . S
O42 Mg43 1.990 1_554 S
O42 C56 1.253 . S
Mg43 O42 1.990 1_556 S
Mg43 O46 2.180 . S
Mg43 O47 2.117 . S
Mg43 O61 2.030 . S
O44 Mg45 2.072 . S
O44 C56 1.260 1_556 S
Mg45 O44 2.072 . S
Mg45 O46 2.099 . S
Mg45 O48 2.079 . S
Mg45 O49 2.072 . S
Mg45 O51 2.099 . S
Mg45 O62 2.079 . S
O46 Mg43 2.180 . S
O46 Mg45 2.099 . S
O46 C57 1.279 . S
O47 Mg43 2.117 . S
O47 C57 1.250 . S
O48 Mg45 2.079 . S
O48 C58 1.264 . S
O49 Mg45 2.072 . S
O49 C59 1.260 . S
Mg50 O51 2.180 . S
Mg50 O52 2.030 . S
Mg50 O53 1.990 . S
Mg50 O54 2.117 . S
O51 Mg45 2.099 . S
O51 Mg50 2.180 . S
O51 C60 1.279 . S
O52 Mg50 2.030 . S
O52 C58 1.248 . S
O53 Mg50 1.990 . S
O53 C59 1.253 . S
O54 Mg50 2.117 . S
O54 C60 1.250 . S
C55 O61 1.248 . S
C55 O62 1.264 . S
C56 O42 1.253 . S
C56 O44 1.260 1_554 S
C57 O46 1.279 . S
C57 O47 1.250 . S
C58 O48 1.264 . S
C58 O52 1.248 . S
C59 O49 1.260 . S
C59 O53 1.253 . S
C60 O51 1.279 . S
C60 O54 1.250 . S
O61 Mg43 2.030 . S
O61 C55 1.248 . S
O62 Mg45 2.079 . S
O62 C55 1.264 . S
O63 Mg64 1.990 1_556 S
O63 C77 1.253 . S
Mg64 O63 1.990 1_554 S
Mg64 O67 2.180 . S
Mg64 O68 2.117 . S
Mg64 O82 2.030 . S
O65 Mg66 2.072 . S
O65 C77 1.260 1_554 S
Mg66 O65 2.072 . S
Mg66 O67 2.099 . S
Mg66 O69 2.079 . S
Mg66 O70 2.072 . S
Mg66 O72 2.099 . S
Mg66 O83 2.079 . S
O67 Mg64 2.180 . S
O67 Mg66 2.099 . S
O67 C78 1.279 . S
O68 Mg64 2.117 . S
O68 C78 1.250 . S
O69 Mg66 2.079 . S
O69 C79 1.264 . S
O70 Mg66 2.072 . S
O70 C80 1.260 . S
Mg71 O72 2.180 . S
Mg71 O73 2.030 . S
Mg71 O74 1.990 . S
Mg71 O75 2.117 . S
O72 Mg66 2.099 . S
O72 Mg71 2.180 . S
O72 C81 1.279 . S
O73 Mg71 2.030 . S
O73 C79 1.248 . S
O74 Mg71 1.990 . S
O74 C80 1.253 . S
O75 Mg71 2.117 . S
O75 C81 1.250 . S
C76 O82 1.248 . S
C76 O83 1.264 . S
C77 O63 1.253 . S
C77 O65 1.260 1_556 S
C78 O67 1.279 . S
C78 O68 1.250 . S
C79 O69 1.264 . S
C79 O73 1.248 . S
C80 O70 1.260 . S
C80 O74 1.253 . S
C81 O72 1.279 . S
C81 O75 1.250 . S
O82 Mg64 2.030 . S
O82 C76 1.248 . S
O83 Mg66 2.079 . S
O83 C76 1.264 . S
H84 C92 0.929 . S
H85 C94 0.930 . S
H86 C96 0.930 1_655 S
H87 C99 0.929 1_655 S
H88 C102 0.930 . S
H89 C104 0.960 . S
H90 C104 0.960 . S
H91 C104 0.960 . S
C92 H84 0.929 . S
C92 C93 1.377 . S
C92 C94 1.384 . S
C93 C92 1.377 . S
C93 C99 1.390 . S
C94 H85 0.930 . S
C94 C92 1.384 . S
C94 C95 1.372 . S
C95 C94 1.372 . S
C95 C96 1.400 . S
C95 C100 1.490 . S
C96 H86 0.930 1_455 S
C96 C95 1.400 . S
C96 C99 1.386 . S
H97 C113 0.930 1_655 S
H98 C114 0.927 1_655 S
C99 H87 0.929 1_455 S
C99 C93 1.390 . S
C99 C96 1.386 . S
C100 C95 1.490 . S
C100 C102 1.395 . S
C100 C103 1.403 1_455 S
H101 C107 0.930 . S
C102 H88 0.930 . S
C102 C100 1.395 . S
C102 C105 1.403 . S
C103 C100 1.403 1_655 S
C103 C104 1.524 . S
C103 C107 1.400 . S
C104 H89 0.960 . S
C104 H90 0.960 . S
C104 H91 0.960 . S
C104 C103 1.524 . S
C105 C102 1.403 . S
C105 C106 1.392 . S
C105 C109 1.495 . S
C106 C105 1.392 . S
C106 C107 1.385 1_455 S
C106 C108 1.478 . S
C107 H101 0.930 . S
C107 C103 1.400 . S
C107 C106 1.385 1_655 S
C108 C106 1.478 . S
C108 C110 1.381 . S
C108 C114 1.383 . S
C109 C105 1.495 . S
C109 H115 0.959 . S
C109 H116 0.961 . S
C109 H117 0.960 . S
C110 C108 1.381 . S
C110 C111 1.394 . S
C110 H118 0.930 . S
C111 C110 1.394 . S
C111 C112 1.383 . S
C111 H119 0.929 . S
C112 C111 1.383 . S
C112 C113 1.377 . S
C113 H97 0.930 1_455 S
C113 C112 1.377 . S
C113 C114 1.379 . S
C114 H98 0.927 1_455 S
C114 C108 1.383 . S
C114 C113 1.379 . S
H115 C109 0.959 . S
H116 C109 0.961 . S
H117 C109 0.960 . S
H118 C110 0.930 . S
H119 C111 0.929 . S
H120 C128 0.929 . S
H121 C130 0.930 . S
H122 C132 0.930 . S
H123 C135 0.929 . S
H124 C138 0.930 . S
H125 C140 0.960 . S
H126 C140 0.960 . S
H127 C140 0.960 . S
C128 H120 0.929 . S
C128 C129 1.377 . S
C128 C130 1.384 . S
C129 C128 1.377 . S
C129 C135 1.390 . S
C130 H121 0.930 . S
C130 C128 1.384 . S
C130 C131 1.372 . S
C131 C130 1.372 . S
C131 C132 1.400 . S
C131 C136 1.490 . S
C132 H122 0.930 . S
C132 C131 1.400 . S
C132 C135 1.386 . S
H133 C149 0.930 . S
H134 C150 0.931 . S
C135 H123 0.929 . S
C135 C129 1.390 . S
C135 C132 1.386 . S
C136 C131 1.490 . S
C136 C138 1.395 . S
C136 C139 1.403 . S
H137 C143 0.930 . S
C138 H124 0.930 . S
C138 C136 1.395 . S
C138 C141 1.403 . S
C139 C136 1.403 . S
C139 C140 1.524 . S
C139 C143 1.400 . S
C140 H125 0.960 . S
C140 H126 0.960 . S
C140 H127 0.960 . S
C140 C139 1.524 . S
C141 C138 1.403 . S
C141 C142 1.392 . S
C141 C145 1.495 . S
C142 C141 1.392 . S
C142 C143 1.385 . S
C142 C144 1.478 . S
C143 H137 0.930 . S
C143 C139 1.400 . S
C143 C142 1.385 . S
C144 C142 1.478 . S
C144 C146 1.381 . S
C144 C150 1.383 . S
C145 C141 1.495 . S
C145 H151 0.959 . S
C145 H152 0.961 . S
C145 H153 0.960 . S
C146 C144 1.381 . S
C146 C147 1.394 . S
C146 H154 0.930 . S
C147 C146 1.394 . S
C147 C148 1.383 . S
C147 H155 0.929 . S
C148 C147 1.383 . S
C148 C149 1.377 . S
C149 H133 0.930 . S
C149 C148 1.377 . S
C149 C150 1.379 . S
C150 H134 0.931 . S
C150 C144 1.383 . S
C150 C149 1.379 . S
H151 C145 0.959 . S
H152 C145 0.961 . S
H153 C145 0.960 . S
H154 C146 0.930 . S
H155 C147 0.929 . S
H156 C164 0.929 . S
H157 C166 0.930 . S
H158 C168 0.930 1_556 S
H159 C171 0.929 . S
H160 C174 0.930 . S
H161 C176 0.960 . S
H162 C176 0.960 . S
H163 C176 0.960 . S
C164 H156 0.929 . S
C164 C165 1.377 . S
C164 C166 1.384 . S
C165 C164 1.377 . S
C165 C171 1.390 . S
C166 H157 0.930 . S
C166 C164 1.384 . S
C166 C167 1.372 . S
C167 C166 1.372 . S
C167 C168 1.400 . S
C167 C172 1.490 . S
C168 H158 0.930 1_554 S
C168 C167 1.400 . S
C168 C171 1.386 . S
H169 C185 0.930 . S
H170 C186 0.931 . S
C171 H159 0.929 . S
C171 C165 1.390 . S
C171 C168 1.386 . S
C172 C167 1.490 . S
C172 C174 1.395 1_554 S
C172 C175 1.403 . S
H173 C179 0.930 . S
C174 H160 0.930 . S
C174 C172 1.395 1_556 S
C174 C177 1.403 . S
C175 C172 1.403 . S
C175 C176 1.524 . S
C175 C179 1.400 1_554 S
C176 H161 0.960 . S
C176 H162 0.960 . S
C176 H163 0.960 . S
C176 C175 1.524 . S
C177 C174 1.403 . S
C177 C178 1.392 . S
C177 C181 1.495 . S
C178 C177 1.392 . S
C178 C179 1.385 . S
C178 C180 1.478 . S
C179 H173 0.930 . S
C179 C175 1.400 1_556 S
C179 C178 1.385 . S
C180 C178 1.478 . S
C180 C182 1.381 . S
C180 C186 1.383 . S
C181 C177 1.495 . S
C181 H187 0.959 . S
C181 H188 0.961 . S
C181 H189 0.960 . S
C182 C180 1.381 . S
C182 C183 1.394 . S
C182 H190 0.930 . S
C183 C182 1.394 . S
C183 C184 1.383 . S
C183 H191 0.929 . S
C184 C183 1.383 . S
C184 C185 1.377 . S
C185 H169 0.930 . S
C185 C184 1.377 . S
C185 C186 1.379 . S
C186 H170 0.931 . S
C186 C180 1.383 . S
C186 C185 1.379 . S
H187 C181 0.959 . S
H188 C181 0.961 . S
H189 C181 0.960 . S
H190 C182 0.930 . S
H191 C183 0.929 . S
H192 C200 0.929 . S
H193 C202 0.930 . S
H194 C204 0.930 . S
H195 C207 0.929 . S
H196 C210 0.930 . S
H197 C212 0.960 . S
H198 C212 0.960 . S
H199 C212 0.960 . S
C200 H192 0.929 . S
C200 C201 1.377 . S
C200 C202 1.384 . S
C201 C200 1.377 . S
C201 C207 1.390 . S
C202 H193 0.930 . S
C202 C200 1.384 . S
C202 C203 1.372 . S
C203 C202 1.372 . S
C203 C204 1.400 . S
C203 C208 1.490 . S
C204 H194 0.930 . S
C204 C203 1.400 . S
C204 C207 1.386 . S
H205 C221 0.930 . S
H206 C222 0.931 . S
C207 H195 0.929 . S
C207 C201 1.390 . S
C207 C204 1.386 . S
C208 C203 1.490 . S
C208 C210 1.395 . S
C208 C211 1.403 . S
H209 C215 0.930 . S
C210 H196 0.930 . S
C210 C208 1.395 . S
C210 C213 1.403 . S
C211 C208 1.403 . S
C211 C212 1.524 . S
C211 C215 1.400 . S
C212 H197 0.960 . S
C212 H198 0.960 . S
C212 H199 0.960 . S
C212 C211 1.524 . S
C213 C210 1.403 . S
C213 C214 1.392 . S
C213 C217 1.495 . S
C214 C213 1.392 . S
C214 C215 1.385 . S
C214 C216 1.478 . S
C215 H209 0.930 . S
C215 C211 1.400 . S
C215 C214 1.385 . S
C216 C214 1.478 . S
C216 C218 1.381 . S
C216 C222 1.383 . S
C217 C213 1.495 . S
C217 H223 0.959 . S
C217 H224 0.961 . S
C217 H225 0.960 . S
C218 C216 1.381 . S
C218 C219 1.394 . S
C218 H226 0.930 . S
C219 C218 1.394 . S
C219 C220 1.383 . S
C219 H227 0.929 . S
C220 C219 1.383 . S
C220 C221 1.377 . S
C221 H205 0.930 . S
C221 C220 1.377 . S
C221 C222 1.379 . S
C222 H206 0.931 . S
C222 C216 1.383 . S
C222 C221 1.379 . S
H223 C217 0.959 . S
H224 C217 0.961 . S
H225 C217 0.960 . S
H226 C218 0.930 . S
H227 C219 0.929 . S
H228 C236 0.929 . S
H229 C238 0.930 . S
H230 C240 0.930 . S
H231 C243 0.929 . S
H232 C246 0.930 . S
H233 C248 0.960 . S
H234 C248 0.960 . S
H235 C248 0.960 . S
C236 H228 0.929 . S
C236 C237 1.377 . S
C236 C238 1.384 . S
C237 C236 1.377 . S
C237 C243 1.390 . S
C238 H229 0.930 . S
C238 C236 1.384 . S
C238 C239 1.372 . S
C239 C238 1.372 . S
C239 C240 1.400 . S
C239 C244 1.490 . S
C240 H230 0.930 . S
C240 C239 1.400 . S
C240 C243 1.386 . S
H241 C257 0.930 . S
H242 C258 0.931 . S
C243 H231 0.929 . S
C243 C237 1.390 . S
C243 C240 1.386 . S
C244 C239 1.490 . S
C244 C246 1.395 . S
C244 C247 1.403 . S
H245 C251 0.930 . S
C246 H232 0.930 . S
C246 C244 1.395 . S
C246 C249 1.403 . S
C247 C244 1.403 . S
C247 C248 1.524 . S
C247 C251 1.400 . S
C248 H233 0.960 . S
C248 H234 0.960 . S
C248 H235 0.960 . S
C248 C247 1.524 . S
C249 C246 1.403 . S
C249 C250 1.392 . S
C249 C253 1.495 . S
C250 C249 1.392 . S
C250 C251 1.385 . S
C250 C252 1.478 . S
C251 H245 0.930 . S
C251 C247 1.400 . S
C251 C250 1.385 . S
C252 C250 1.478 . S
C252 C254 1.381 . S
C252 C258 1.383 . S
C253 C249 1.495 . S
C253 H259 0.959 . S
C253 H260 0.961 . S
C253 H261 0.960 . S
C254 C252 1.381 . S
C254 C255 1.394 . S
C254 H262 0.930 . S
C255 C254 1.394 . S
C255 C256 1.383 . S
C255 H263 0.929 . S
C256 C255 1.383 . S
C256 C257 1.377 . S
C257 H241 0.930 . S
C257 C256 1.377 . S
C257 C258 1.379 . S
C258 H242 0.931 . S
C258 C252 1.383 . S
C258 C257 1.379 . S
H259 C253 0.959 . S
H260 C253 0.961 . S
H261 C253 0.960 . S
H262 C254 0.930 . S
H263 C255 0.929 . S
H264 C272 0.929 . S
H265 C274 0.930 . S
H266 C276 0.930 . S
H267 C279 0.929 . S
H268 C282 0.930 . S
H269 C284 0.960 . S
H270 C284 0.960 . S
H271 C284 0.960 . S
C272 H264 0.929 . S
C272 C273 1.377 . S
C272 C274 1.384 . S
C273 C272 1.377 . S
C273 C279 1.390 . S
C274 H265 0.930 . S
C274 C272 1.384 . S
C274 C275 1.372 . S
C275 C274 1.372 . S
C275 C276 1.400 . S
C275 C280 1.490 . S
C276 H266 0.930 . S
C276 C275 1.400 . S
C276 C279 1.386 . S
H277 C293 0.930 . S
H278 C294 0.931 . S
C279 H267 0.929 . S
C279 C273 1.390 . S
C279 C276 1.386 . S
C280 C275 1.490 . S
C280 C282 1.395 . S
C280 C283 1.403 . S
H281 C287 0.930 . S
C282 H268 0.930 . S
C282 C280 1.395 . S
C282 C285 1.403 . S
C283 C280 1.403 . S
C283 C284 1.524 . S
C283 C287 1.400 . S
C284 H269 0.960 . S
C284 H270 0.960 . S
C284 H271 0.960 . S
C284 C283 1.524 . S
C285 C282 1.403 . S
C285 C286 1.392 . S
C285 C289 1.495 . S
C286 C285 1.392 . S
C286 C287 1.385 . S
C286 C288 1.478 . S
C287 H281 0.930 . S
C287 C283 1.400 . S
C287 C286 1.385 . S
C288 C286 1.478 . S
C288 C290 1.381 . S
C288 C294 1.383 . S
C289 C285 1.495 . S
C289 H295 0.959 . S
C289 H296 0.961 . S
C289 H297 0.960 . S
C290 C288 1.381 . S
C290 C291 1.394 . S
C290 H298 0.930 . S
C291 C290 1.394 . S
C291 C292 1.383 . S
C291 H299 0.929 . S
C292 C291 1.383 . S
C292 C293 1.377 . S
C293 H277 0.930 . S
C293 C292 1.377 . S
C293 C294 1.379 . S
C294 H278 0.931 . S
C294 C288 1.383 . S
C294 C293 1.379 . S
H295 C289 0.959 . S
H296 C289 0.961 . S
H297 C289 0.960 . S
H298 C290 0.930 . S
H299 C291 0.929 . S
H300 C308 0.929 . S
H301 C310 0.930 1_554 S
H302 C312 0.930 . S
H303 C315 0.929 . S
H304 C318 0.930 . S
H305 C320 0.960 1_545 S
H306 C320 0.960 . S
H307 C320 0.960 . S
C308 H300 0.929 . S
C308 C309 1.377 . S
C308 C310 1.384 . S
C309 C308 1.377 . S
C309 C315 1.390 . S
C310 H301 0.930 1_556 S
C310 C308 1.384 . S
C310 C311 1.372 . S
C311 C310 1.372 . S
C311 C312 1.400 . S
C311 C316 1.490 . S
C312 H302 0.930 . S
C312 C311 1.400 . S
C312 C315 1.386 . S
H313 C329 0.930 . S
H314 C330 0.931 . S
C315 H303 0.929 . S
C315 C309 1.390 . S
C315 C312 1.386 . S
C316 C311 1.490 . S
C316 C318 1.395 1_556 S
C316 C319 1.403 . S
H317 C323 0.930 . S
C318 H304 0.930 . S
C318 C316 1.395 1_554 S
C318 C321 1.403 1_565 S
C319 C316 1.403 . S
C319 C320 1.524 . S
C319 C323 1.400 1_565 S
C320 H305 0.960 1_565 S
C320 H306 0.960 . S
C320 H307 0.960 . S
C320 C319 1.524 . S
C321 C318 1.403 1_545 S
C321 C322 1.392 . S
C321 C325 1.495 . S
C322 C321 1.392 . S
C322 C323 1.385 1_554 S
C322 C324 1.478 . S
C323 H317 0.930 . S
C323 C319 1.400 1_545 S
C323 C322 1.385 1_556 S
C324 C322 1.478 . S
C324 C326 1.381 . S
C324 C330 1.383 . S
C325 C321 1.495 . S
C325 H331 0.959 1_545 S
C325 H332 0.961 . S
C325 H333 0.960 . S
C326 C324 1.381 . S
C326 C327 1.394 . S
C326 H334 0.930 . S
C327 C326 1.394 . S
C327 C328 1.383 . S
C327 H335 0.929 . S
C328 C327 1.383 . S
C328 C329 1.377 . S
C329 H313 0.930 . S
C329 C328 1.377 . S
C329 C330 1.379 . S
C330 H314 0.931 . S
C330 C324 1.383 . S
C330 C329 1.379 . S
H331 C325 0.959 1_565 S
H332 C325 0.961 . S
H333 C325 0.960 . S
H334 C326 0.930 . S
H335 C327 0.929 . S
H336 C344 0.929 . S
H337 C346 0.930 . S
H338 C348 0.930 1_655 S
H339 C351 0.929 1_655 S
H340 C354 0.930 . S
H341 C356 0.960 . S
H342 C356 0.960 . S
H343 C356 0.960 . S
C344 H336 0.929 . S
C344 C345 1.377 . S
C344 C346 1.384 . S
C345 C344 1.377 . S
C345 C351 1.390 . S
C346 H337 0.930 . S
C346 C344 1.384 . S
C346 C347 1.372 . S
C347 C346 1.372 . S
C347 C348 1.400 . S
C347 C352 1.490 . S
C348 H338 0.930 1_455 S
C348 C347 1.400 . S
C348 C351 1.386 . S
H349 C365 0.930 . S
H350 C366 0.931 . S
C351 H339 0.929 1_455 S
C351 C345 1.390 . S
C351 C348 1.386 . S
C352 C347 1.490 . S
C352 C354 1.395 . S
C352 C355 1.403 . S
H353 C359 0.930 1_655 S
C354 H340 0.930 . S
C354 C352 1.395 . S
C354 C357 1.403 1_565 S
C355 C352 1.403 . S
C355 C356 1.524 1_455 S
C355 C359 1.400 1_565 S
C356 H341 0.960 . S
C356 H342 0.960 . S
C356 H343 0.960 . S
C356 C355 1.524 1_655 S
C357 C354 1.403 1_545 S
C357 C358 1.392 . S
C357 C361 1.495 . S
C358 C357 1.392 . S
C358 C359 1.385 . S
C358 C360 1.478 . S
C359 H353 0.930 1_455 S
C359 C355 1.400 1_545 S
C359 C358 1.385 . S
C360 C358 1.478 . S
C360 C362 1.381 . S
C360 C366 1.383 . S
C361 C357 1.495 . S
C361 H367 0.959 . S
C361 H368 0.961 . S
C361 H369 0.960 . S
C362 C360 1.381 . S
C362 C363 1.394 . S
C362 H370 0.930 . S
C363 C362 1.394 . S
C363 C364 1.383 . S
C363 H371 0.929 . S
C364 C363 1.383 . S
C364 C365 1.377 . S
C365 H349 0.930 . S
C365 C364 1.377 . S
C365 C366 1.379 . S
C366 H350 0.931 . S
C366 C360 1.383 . S
C366 C365 1.379 . S
H367 C361 0.959 . S
H368 C361 0.961 . S
H369 C361 0.960 . S
H370 C362 0.930 . S
H371 C363 0.929 . S
H372 C380 0.929 . S
H373 C382 0.930 . S
H374 C384 0.930 . S
H375 C387 0.929 . S
H376 C390 0.930 . S
H377 C392 0.960 . S
H378 C392 0.960 . S
H379 C392 0.960 . S
C380 H372 0.929 . S
C380 C381 1.377 . S
C380 C382 1.384 . S
C381 C380 1.377 . S
C381 C387 1.390 . S
C382 H373 0.930 . S
C382 C380 1.384 . S
C382 C383 1.372 . S
C383 C382 1.372 . S
C383 C384 1.400 . S
C383 C388 1.490 1_554 S
C384 H374 0.930 . S
C384 C383 1.400 . S
C384 C387 1.386 . S
H385 C401 0.930 . S
H386 C402 0.931 . S
C387 H375 0.929 . S
C387 C381 1.390 . S
C387 C384 1.386 . S
C388 C383 1.490 1_556 S
C388 C390 1.395 . S
C388 C391 1.403 1_455 S
H389 C395 0.949 . S
C390 H376 0.930 . S
C390 C388 1.395 . S
C390 C393 1.403 . S
C391 C388 1.403 1_655 S
C391 C392 1.524 . S
C391 C395 1.407 . S
C392 H377 0.960 . S
C392 H378 0.960 . S
C392 H379 0.960 . S
C392 C391 1.524 . S
C393 C390 1.403 . S
C393 C394 1.392 . S
C393 C397 1.495 . S
C394 C393 1.392 . S
C394 C395 1.361 1_455 S
C394 C396 1.478 . S
C395 H389 0.949 . S
C395 C391 1.407 . S
C395 C394 1.361 1_655 S
C396 C394 1.478 . S
C396 C398 1.381 . S
C396 C402 1.383 . S
C397 C393 1.495 . S
C397 H403 0.959 . S
C397 H404 0.961 . S
C397 H405 0.960 . S
C398 C396 1.381 . S
C398 C399 1.394 . S
C398 H406 0.930 . S
C399 C398 1.394 . S
C399 C400 1.383 . S
C399 H407 0.929 . S
C400 C399 1.383 . S
C400 C401 1.377 . S
C401 H385 0.930 . S
C401 C400 1.377 . S
C401 C402 1.379 . S
C402 H386 0.931 . S
C402 C396 1.383 . S
C402 C401 1.379 . S
H403 C397 0.959 . S
H404 C397 0.961 . S
H405 C397 0.960 . S
H406 C398 0.930 . S
H407 C399 0.929 . S
H408 C416 0.929 . S
H409 C418 0.930 . S
H410 C420 0.930 . S
H411 C423 0.929 . S
H412 C426 0.938 . S
H413 C428 0.960 . S
H414 C428 0.960 . S
H415 C428 0.960 . S
C416 H408 0.929 . S
C416 C417 1.377 1_655 S
C416 C418 1.384 . S
C417 C416 1.377 1_455 S
C417 C423 1.390 . S
C418 H409 0.930 . S
C418 C416 1.384 . S
C418 C419 1.372 1_655 S
C419 C418 1.372 1_455 S
C419 C420 1.400 . S
C419 C424 1.490 1_556 S
C420 H410 0.930 . S
C420 C419 1.400 . S
C420 C423 1.386 . S
H421 C437 0.930 . S
H422 C438 0.931 . S
C423 H411 0.929 . S
C423 C417 1.390 . S
C423 C420 1.386 . S
C424 C419 1.490 1_554 S
C424 C426 1.383 1_455 S
C424 C427 1.403 . S
H425 C431 0.930 . S
C426 H412 0.938 . S
C426 C424 1.383 1_655 S
C426 C429 1.407 . S
C427 C424 1.403 . S
C427 C428 1.524 . S
C427 C431 1.400 . S
C428 H413 0.960 . S
C428 H414 0.960 . S
C428 H415 0.960 . S
C428 C427 1.524 . S
C429 C426 1.407 . S
C429 C430 1.392 1_655 S
C429 C433 1.495 . S
C430 C429 1.392 1_455 S
C430 C431 1.385 . S
C430 C432 1.478 . S
C431 H425 0.930 . S
C431 C427 1.400 . S
C431 C430 1.385 . S
C432 C430 1.478 . S
C432 C434 1.381 1_455 S
C432 C438 1.383 . S
C433 C429 1.495 . S
C433 H439 0.959 . S
C433 H440 0.961 . S
C433 H441 0.960 . S
C434 C432 1.381 1_655 S
C434 C435 1.394 . S
C434 H442 0.930 . S
C435 C434 1.394 . S
C435 C436 1.383 1_655 S
C435 H443 0.929 . S
C436 C435 1.383 1_455 S
C436 C437 1.377 . S
C437 H421 0.930 . S
C437 C436 1.377 . S
C437 C438 1.379 . S
C438 H422 0.931 . S
C438 C432 1.383 . S
C438 C437 1.379 . S
H439 C433 0.959 . S
H440 C433 0.961 . S
H441 C433 0.960 . S
H442 C434 0.930 . S
H443 C435 0.929 . S
H444 C452 0.929 . S
H445 C454 0.930 . S
H446 C456 0.930 . S
H447 C459 0.929 . S
H448 C462 0.930 . S
H449 C464 0.960 . S
H450 C464 0.960 . S
H451 C464 0.960 . S
C452 H444 0.929 . S
C452 C453 1.377 . S
C452 C454 1.384 . S
C453 C452 1.377 . S
C453 C459 1.390 . S
C454 H445 0.930 . S
C454 C452 1.384 . S
C454 C455 1.372 . S
C455 C454 1.372 . S
C455 C456 1.400 . S
C455 C460 1.490 . S
C456 H446 0.930 . S
C456 C455 1.400 . S
C456 C459 1.386 . S
H457 C473 0.930 . S
H458 C474 0.931 . S
C459 H447 0.929 . S
C459 C453 1.390 . S
C459 C456 1.386 . S
C460 C455 1.490 . S
C460 C462 1.395 . S
C460 C463 1.403 . S
H461 C467 0.930 . S
C462 H448 0.930 . S
C462 C460 1.395 . S
C462 C465 1.403 . S
C463 C460 1.403 . S
C463 C464 1.524 . S
C463 C467 1.400 . S
C464 H449 0.960 . S
C464 H450 0.960 . S
C464 H451 0.960 . S
C464 C463 1.524 . S
C465 C462 1.403 . S
C465 C466 1.392 . S
C465 C469 1.495 . S
C466 C465 1.392 . S
C466 C467 1.385 . S
C466 C468 1.478 . S
C467 H461 0.930 . S
C467 C463 1.400 . S
C467 C466 1.385 . S
C468 C466 1.478 . S
C468 C470 1.381 . S
C468 C474 1.383 . S
C469 C465 1.495 . S
C469 H475 0.959 . S
C469 H476 0.961 . S
C469 H477 0.960 . S
C470 C468 1.381 . S
C470 C471 1.394 . S
C470 H478 0.930 . S
C471 C470 1.394 . S
C471 C472 1.383 . S
C471 H479 0.929 . S
C472 C471 1.383 . S
C472 C473 1.377 . S
C473 H457 0.930 . S
C473 C472 1.377 . S
C473 C474 1.379 . S
C474 H458 0.931 . S
C474 C468 1.383 . S
C474 C473 1.379 . S
H475 C469 0.959 . S
H476 C469 0.961 . S
H477 C469 0.960 . S
H478 C470 0.930 . S
H479 C471 0.929 . S
H480 C488 0.929 . S
H481 C490 0.930 . S
H482 C492 0.930 . S
H483 C495 0.929 . S
H484 C498 0.930 . S
H485 C500 0.960 . S
H486 C500 0.960 . S
H487 C500 0.960 . S
C488 H480 0.929 . S
C488 C489 1.377 . S
C488 C490 1.384 . S
C489 C488 1.377 . S
C489 C495 1.390 . S
C490 H481 0.930 . S
C490 C488 1.384 . S
C490 C491 1.372 . S
C491 C490 1.372 . S
C491 C492 1.400 . S
C491 C496 1.490 . S
C492 H482 0.930 . S
C492 C491 1.400 . S
C492 C495 1.386 . S
H493 C509 0.930 . S
H494 C510 0.931 . S
C495 H483 0.929 . S
C495 C489 1.390 . S
C495 C492 1.386 . S
C496 C491 1.490 . S
C496 C498 1.395 . S
C496 C499 1.403 . S
H497 C503 0.930 . S
C498 H484 0.930 . S
C498 C496 1.395 . S
C498 C501 1.403 . S
C499 C496 1.403 . S
C499 C500 1.524 . S
C499 C503 1.400 . S
C500 H485 0.960 . S
C500 H486 0.960 . S
C500 H487 0.960 . S
C500 C499 1.524 . S
C501 C498 1.403 . S
C501 C502 1.392 . S
C501 C505 1.495 . S
C502 C501 1.392 . S
C502 C503 1.385 . S
C502 C504 1.478 . S
C503 H497 0.930 . S
C503 C499 1.400 . S
C503 C502 1.385 . S
C504 C502 1.478 . S
C504 C506 1.381 . S
C504 C510 1.383 . S
C505 C501 1.495 . S
C505 H511 0.959 . S
C505 H512 0.961 . S
C505 H513 0.960 . S
C506 C504 1.381 . S
C506 C507 1.394 . S
C506 H514 0.930 . S
C507 C506 1.394 . S
C507 C508 1.383 . S
C507 H515 0.929 . S
C508 C507 1.383 . S
C508 C509 1.377 . S
C509 H493 0.930 . S
C509 C508 1.377 . S
C509 C510 1.379 . S
C510 H494 0.931 . S
C510 C504 1.383 . S
C510 C509 1.379 . S
H511 C505 0.959 . S
H512 C505 0.961 . S
H513 C505 0.960 . S
H514 C506 0.930 . S
H515 C507 0.929 . S
C93 C18 1.677 . S
C112 C36 1.351 . S
C129 C59 2.104 . S
C148 C38 2.107 . S
C165 C81 1.666 . S
C184 C57 1.440 . S
C201 C13 1.269 . S
C220 C76 1.262 . S
C237 C80 2.112 . S
C256 C17 2.125 . S
C273 C55 1.271 . S
C292 C34 1.297 . S
C309 C60 1.675 . S
C328 C78 1.414 . S
C345 C39 1.664 . S
C364 C15 1.428 . S
C381 C16 0.803 . S
C400 C14 0.827 . S
C417 C37 0.795 . S
C436 C35 0.765 . S
C453 C56 0.803 . S
C472 C58 0.767 . S
C489 C79 0.809 . S
C508 C77 0.852 . S
