# Generated by pormake.
# Topology sxb, (6)-cn, num edge types: 1
# Building blocks:
#     Node 0, Type 0, BuildingBlock: KUMBOL_clean_sbu_1, # of connection points: 6
#     Node 1, Type 0, BuildingBlock: KUMBOL_clean_sbu_1, # of connection points: 6
#     Node 2, Type 0, BuildingBlock: KUMBOL_clean_sbu_1, # of connection points: 6
#     Node 3, Type 0, BuildingBlock: KUMBOL_clean_sbu_1, # of connection points: 6
#     Edge 4, Type (0, 0), BuildingBlock: TEMPAE_clean_linker_10, # of connection points: 2
#     Edge 5, Type (0, 0), BuildingBlock: TEMPAE_clean_linker_10, # of connection points: 2
#     Edge 6, Type (0, 0), BuildingBlock: TEMPAE_clean_linker_10, # of connection points: 2
#     Edge 7, Type (0, 0), BuildingBlock: TEMPAE_clean_linker_10, # of connection points: 2
#     Edge 8, Type (0, 0), BuildingBlock: TEMPAE_clean_linker_10, # of connection points: 2
#     Edge 9, Type (0, 0), BuildingBlock: TEMPAE_clean_linker_10, # of connection points: 2
#     Edge 10, Type (0, 0), BuildingBlock: TEMPAE_clean_linker_10, # of connection points: 2
#     Edge 11, Type (0, 0), BuildingBlock: TEMPAE_clean_linker_10, # of connection points: 2
#     Edge 12, Type (0, 0), BuildingBlock: TEMPAE_clean_linker_10, # of connection points: 2
#     Edge 13, Type (0, 0), BuildingBlock: TEMPAE_clean_linker_10, # of connection points: 2
#     Edge 14, Type (0, 0), BuildingBlock: TEMPAE_clean_linker_10, # of connection points: 2
#     Edge 15, Type (0, 0), BuildingBlock: TEMPAE_clean_linker_10, # of connection points: 2
# Relax obj value: 0.014
# Max RMSD: 0.058
# Mean RMSD: 0.058
data_MOF--net-sxb--node1-KUMBOL_clean_sbu_1--edge1-TEMPAE_clean_linker_10
_symmetry_space_group_name_H-M    P1
_symmetry_Int_Tables_number       1
_symmetry_cell_setting            triclinic
loop_
_symmetry_equiv_pos_as_xyz
'x, y, z'
_cell_length_a     15.127501
_cell_length_b     47.514317
_cell_length_c     30.158457
_cell_angle_alpha  114.19594
_cell_angle_beta   90.03848
_cell_angle_gamma 90.102488
loop_
_atom_site_label
_atom_site_type_symbol
_atom_site_fract_x
_atom_site_fract_y
_atom_site_fract_z
_atom_type_partial_charge
C0 C 0.17511 0.10051 0.05957 0.0
C1 C 0.24897 0.10726 0.99321 0.0
C2 C 0.17724 0.09595 0.01105 0.0
C3 C 0.31912 0.12245 0.02446 0.0
C4 C 0.24441 0.11636 0.09132 0.0
C5 C 0.31664 0.12712 0.07343 0.0
N6 N 0.10624 0.08868 0.07539 0.0
C7 C 0.1001 0.09316 0.12293 0.0
C8 C 0.2396 0.12047 0.13997 0.0
C9 C 0.16689 0.10895 0.15587 0.0
Gd10 Gd 0.99996 0.96927 0.96758 0.0
Gd11 Gd 0.99586 0.06379 0.01831 0.0
N12 N 0.10838 0.08111 0.98165 0.0
C13 C 0.24716 0.10352 0.94472 0.0
C14 C 0.10327 0.07968 0.93564 0.0
C15 C 0.17325 0.09012 0.91605 0.0
H16 H 0.04413 0.07164 0.91453 0.0
H17 H 0.16929 0.08839 0.87917 0.0
H18 H 0.90293 0.95488 0.0546 0.0
H19 H 0.04332 0.08485 0.13566 0.0
H20 H 0.7629 0.93222 0.068 0.0
H21 H 0.30099 0.11184 0.92961 0.0
H22 H 0.37505 0.13106 0.01127 0.0
H23 H 1.01531 0.94396 0.84477 0.0
H24 H 0.29154 0.1325 0.1655 0.0
H25 H 0.16215 0.1123 0.19351 0.0
H26 H 0.60458 0.90415 0.9175 0.0
H27 H 0.37098 0.13905 0.09715 0.0
H28 H 0.76132 0.91043 0.78382 0.0
H29 H 0.91583 0.92403 0.77398 0.0
N30 N 0.91516 0.94625 0.89572 0.0
C31 C 0.8329 0.93651 0.90115 0.0
C32 C 0.94674 0.94007 0.85024 0.0
C33 C 0.80395 0.92026 0.81539 0.0
C34 C 0.89103 0.92796 0.8097 0.0
C35 C 0.77477 0.92349 0.86124 0.0
H36 H 0.64515 0.90323 0.83787 0.0
N37 N 0.86783 0.94922 0.98326 0.0
C38 C 0.80944 0.93723 0.94597 0.0
C39 C 0.71119 0.92319 -0.00324 0.0
C40 C 0.72828 0.92467 0.95211 0.0
C41 C 0.85373 0.94656 0.02611 0.0
C42 C 0.77484 0.93374 0.03367 0.0
O43 O 0.12177 0.0395 0.02496 0.0
O44 O 0.12417 0.9928 0.95799 0.0
O45 O 0.06496 0.94502 0.00575 0.0
O46 O 0.0487 0.92237 0.92807 0.0
O47 O 0.96382 0.03517 0.93919 0.0
O48 O 0.04481 0.99004 0.91549 0.0
O49 O 0.87463 0.99576 0.00115 0.0
O50 O 0.87954 0.03528 0.97683 0.0
O51 O 0.95359 0.10469 0.00906 0.0
O52 O 0.90933 0.09725 0.0716 0.0
O53 O 1.03632 0.99956 0.04505 0.0
O54 O 0.95255 0.04398 0.0718 0.0
C55 C 0.16501 0.0168 0.99098 0.0
C56 C 1.00727 0.01209 0.90616 0.0
C57 C 0.1654 0.90522 0.96356 0.0
C58 C 0.25239 0.86388 0.9709 0.0
C59 C 0.32461 0.90449 0.95433 0.0
C60 C 0.24293 0.91837 0.95506 0.0
C61 C 0.32952 0.87749 0.96225 0.0
C62 C 0.17032 0.87802 0.97135 0.0
C63 C 0.07902 0.92011 0.96684 0.0
C64 C 0.66809 0.91334 0.91325 0.0
C65 C 0.69114 0.91289 0.86794 0.0
H66 H 0.64983 0.91352 0.00282 0.0
C67 C 0.83442 0.01656 0.99026 0.0
C68 C 0.98729 0.02044 0.07831 0.0
C69 C 0.92441 0.14942 0.08002 0.0
C70 C 0.912 0.20291 0.08875 0.0
C71 C 0.96586 0.19174 0.1559 0.0
C72 C 0.95632 0.16013 0.12789 0.0
C73 C 0.94354 0.21301 0.13667 0.0
C74 C 0.90299 0.17096 0.06054 0.0
C75 C 0.91101 0.11611 0.05002 0.0
H76 H 0.38439 0.91475 0.94775 0.0
H77 H 0.24017 0.93939 0.94937 0.0
H78 H 0.39363 0.86712 0.96114 0.0
H79 H 0.11024 0.86829 0.97886 0.0
H80 H 0.99052 0.19982 0.19277 0.0
H81 H 0.97348 0.14415 0.14378 0.0
H82 H 0.95205 0.2374 0.15911 0.0
H83 H 0.87785 0.16284 0.0237 0.0
C84 C 0.18418 0.92361 0.40817 0.0
C85 C 0.26883 0.91564 0.47047 0.0
C86 C 0.19379 0.92752 0.45627 0.0
C87 C 0.33384 0.9 0.43596 0.0
C88 C 0.24909 0.90773 0.37338 0.0
C89 C 0.32377 0.89592 0.38753 0.0
N90 N 0.1131 0.9364 0.39584 0.0
C91 C 0.10075 0.93299 0.3491 0.0
C92 C 0.23777 0.90468 0.32554 0.0
C93 C 0.16311 0.91726 0.31334 0.0
Gd94 Gd 1.01535 0.05522 0.51118 0.0
Gd95 Gd 1.01023 0.96048 0.45769 0.0
N96 N 0.13018 0.94303 0.48911 0.0
C97 C 0.27602 0.91959 0.51893 0.0
C98 C 0.13457 0.94532 0.53562 0.0
C99 C 0.20807 0.93419 0.55149 0.0
H100 H 0.08054 0.95473 0.56025 0.0
H101 H 0.21156 0.93643 0.58865 0.0
H102 H 0.91986 0.0691 0.42317 0.0
H103 H 0.04209 0.94178 0.33892 0.0
H104 H 0.7813 0.09206 0.40905 0.0
H105 H 0.33272 0.91086 0.53128 0.0
H106 H 0.39204 0.89085 0.44632 0.0
H107 H 1.03108 0.0813 0.63381 0.0
H108 H 0.28618 0.89265 0.29778 0.0
H109 H 0.15327 0.91469 0.27632 0.0
H110 H 0.62402 0.12282 0.56015 0.0
H111 H 0.37456 0.88382 0.36136 0.0
H112 H 0.77916 0.11701 0.69475 0.0
H113 H 0.93246 0.10246 0.70477 0.0
N114 N 0.93139 0.07934 0.58287 0.0
C115 C 0.84993 0.0895 0.57725 0.0
C116 C 0.9629 0.08559 0.6284 0.0
C117 C 0.82135 0.10665 0.66317 0.0
C118 C 0.90773 0.09841 0.66896 0.0
C119 C 0.79239 0.10321 0.61715 0.0
H120 H 0.66405 0.12441 0.64029 0.0
N121 N 0.88463 0.0757 0.49488 0.0
C122 C 0.82679 0.08842 0.53217 0.0
C123 C 0.72977 0.10226 0.48066 0.0
C124 C 0.74653 0.10129 0.52571 0.0
C125 C 0.87094 0.07788 0.45163 0.0
C126 C 0.79291 0.09092 0.44369 0.0
O127 O 0.13676 0.98542 0.45378 0.0
O128 O 0.13801 0.03154 0.52181 0.0
O129 O 0.08177 0.07894 0.4726 0.0
O130 O 0.06735 0.10181 0.55037 0.0
O131 O 0.98009 0.98752 0.53729 0.0
O132 O 0.05598 0.03413 0.56369 0.0
O133 O 0.88823 0.02937 0.47901 0.0
O134 O 0.89325 0.98814 0.49964 0.0
O135 O 0.97196 0.92002 0.46943 0.0
O136 O 0.92532 0.9254 0.40552 0.0
O137 O 0.05005 0.02458 0.43364 0.0
O138 O 0.96178 0.98133 0.40665 0.0
C139 C 0.17933 1.00784 0.48876 0.0
C140 C 1.01942 1.01129 0.57154 0.0
C141 C 0.18492 0.11812 0.5141 0.0
C142 C 0.27413 0.159 0.50654 0.0
C143 C 0.3446 0.11702 0.51992 0.0
C144 C 0.26204 0.1039 0.5204 0.0
C145 C 0.35083 0.14429 0.51282 0.0
C146 C 0.19116 0.1457 0.50749 0.0
C147 C 0.0976 0.1038 0.51139 0.0
C148 C 0.68686 0.11337 0.56462 0.0
C149 C 0.70959 0.1142 0.61021 0.0
H150 H 0.66909 0.11213 0.47433 0.0
C151 C 0.8483 1.00813 0.48904 0.0
C152 C 0.99725 1.00499 0.40083 0.0
C153 C 0.94714 0.87409 0.39979 0.0
C154 C 0.94051 0.82087 0.39306 0.0
C155 C 1.00044 0.83192 0.32693 0.0
C156 C 0.98486 0.86337 0.35326 0.0
C157 C 0.97837 0.8108 0.34651 0.0
C158 C 0.92545 0.85272 0.41958 0.0
C159 C 0.92972 0.9073 0.4284 0.0
H160 H 0.40403 0.10592 0.52475 0.0
H161 H 0.25823 0.08258 0.52516 0.0
H162 H 0.41558 0.154 0.51263 0.0
H163 H 0.13141 0.15635 0.50176 0.0
H164 H 1.02981 0.82385 0.29114 0.0
H165 H 1.00218 0.87919 0.33714 0.0
H166 H 0.992 0.78657 0.32541 0.0
H167 H 0.89572 0.86089 0.45536 0.0
C168 C 0.70567 0.59038 0.0923 0.0
C169 C 0.81178 0.60384 0.04381 0.0
C170 C 0.73007 0.59104 0.04851 0.0
C171 C 0.87171 0.61381 0.08284 0.0
C172 C 0.7635 0.60212 0.13254 0.0
C173 C 0.84779 0.6128 0.12707 0.0
N174 N 0.62269 0.58075 0.09664 0.0
C175 C 0.59023 0.58589 0.14159 0.0
C176 C 0.73335 0.60413 0.17759 0.0
C177 C 0.64566 0.59661 0.18234 0.0
Gd178 Gd 0.54007 0.4657 0.97167 0.0
Gd179 Gd 0.53846 0.56003 0.02419 0.0
N180 N 0.67176 0.58045 0.01103 0.0
C181 C 0.82952 0.60703 0.00051 0.0
C182 C 0.68657 0.58473 0.96956 0.0
C183 C 0.766 0.59788 0.96351 0.0
H184 H 0.63744 0.57744 0.94098 0.0
H185 H 0.77847 0.60072 0.93024 0.0
H186 H 0.52141 0.45463 0.0752 0.0
H187 H 0.5213 0.58203 0.1465 0.0
H188 H 0.40557 0.44027 0.11953 0.0
H189 H 0.89127 0.61698 -0.00439 0.0
H190 H 0.93563 0.62314 0.07964 0.0
H191 H 0.47061 0.44276 0.85779 0.0
H192 H 0.77574 0.61293 0.20936 0.0
H193 H 0.6202 0.59961 0.21753 0.0
H194 H 0.16509 0.40577 0.00586 0.0
H195 H 0.89354 0.62148 0.15738 0.0
H196 H 0.21611 0.40025 0.8455 0.0
H197 H 0.34058 0.4164 0.80788 0.0
N198 N 0.41867 0.44185 0.92255 0.0
C199 C 0.3529 0.43206 0.94349 0.0
C200 C 0.41621 0.43583 0.8743 0.0
C201 C 0.27297 0.41167 0.86739 0.0
C202 C 0.34301 0.42084 0.84604 0.0
C203 C 0.2773 0.41721 0.91669 0.0
H204 H 0.14953 0.39748 0.92015 0.0
N205 N 0.43845 0.44928 0.0154 0.0
C206 C 0.36202 0.4367 0.99175 0.0
C207 C 0.30984 0.42925 0.06188 0.0
C208 C 0.29519 0.42664 0.01452 0.0
C209 C 0.45642 0.44883 0.05944 0.0
C210 C 0.39164 0.43977 0.08402 0.0
O211 O 0.66206 0.5329 0.98828 0.0
O212 O 0.65855 0.49317 0.01224 0.0
O213 O 0.57569 0.42091 0.96994 0.0
O214 O 0.62778 0.43511 0.9157 0.0
O215 O 0.50573 0.53275 0.94505 0.0
O216 O 0.57778 0.48542 0.91748 0.0
O217 O 0.41781 0.49087 0.96235 0.0
O218 O 0.41296 0.53624 0.03122 0.0
O219 O 0.47154 0.58571 0.98888 0.0
O220 O 0.49457 0.60723 0.06612 0.0
O221 O 0.57714 0.49446 0.04979 0.0
O222 O 0.48948 0.53776 0.07331 0.0
C223 C 0.70304 0.51184 -0.00166 0.0
C224 C 0.54663 0.50943 0.91095 0.0
C225 C 0.72012 0.40382 0.9414 0.0
C226 C 0.81137 0.36938 0.965 0.0
C227 C 0.88018 0.40514 0.93602 0.0
C228 C 0.79739 0.41604 0.93022 0.0
C229 C 0.88735 0.38201 0.95308 0.0
C230 C 0.72768 0.38049 0.95879 0.0
C231 C 0.63153 0.41483 0.93449 0.0
C232 C 0.21762 0.41326 0.98875 0.0
C233 C 0.2089 0.40841 0.93987 0.0
H234 H 0.26017 0.42184 0.08071 0.0
C235 C 0.37299 0.51291 -0.00345 0.0
C236 C 0.5301 0.5163 0.08263 0.0
C237 C 0.37577 0.62624 0.03487 0.0
C238 C 0.28953 0.66891 0.03146 0.0
C239 C 0.21866 0.62958 0.05181 0.0
C240 C 0.29938 0.61438 0.04723 0.0
C241 C 0.21359 0.65664 0.04407 0.0
C242 C 0.37061 0.65338 0.02698 0.0
C243 C 0.46128 0.61038 0.02867 0.0
H244 H 0.93924 0.41458 0.92704 0.0
H245 H 0.79411 0.43399 0.91688 0.0
H246 H 0.9527 0.37374 0.95624 0.0
H247 H 0.66827 0.37129 0.968 0.0
H248 H 0.15967 0.62027 0.06114 0.0
H249 H 0.30226 0.59341 0.05311 0.0
H250 H 0.14993 0.66769 0.04721 0.0
H251 H 0.43012 0.66252 0.0177 0.0
C252 C 0.73719 0.42791 0.43345 0.0
C253 C 0.80067 0.42152 0.50259 0.0
C254 C 0.7316 0.43192 0.48166 0.0
C255 C 0.87636 0.40819 0.47503 0.0
C256 C 0.81127 0.41334 0.40503 0.0
C257 C 0.88142 0.40395 0.4263 0.0
N258 N 0.67008 0.4384 0.41436 0.0
C259 C 0.66982 0.43347 0.36652 0.0
C260 C 0.8127 0.40884 0.35612 0.0
C261 C 0.74145 0.41881 0.33674 0.0
Gd262 Gd 0.55344 0.55536 0.52215 0.0
Gd263 Gd 0.55074 0.46088 0.46565 0.0
N264 N 0.65695 0.44454 0.50722 0.0
C265 C 0.79032 0.42387 0.55009 0.0
C266 C 0.64328 0.44396 0.55159 0.0
C267 C 0.71052 0.43457 0.57431 0.0
H268 H 0.57979 0.44976 0.56905 0.0
H269 H 0.69996 0.43493 0.61005 0.0
H270 H 0.45009 0.57508 0.4424 0.0
H271 H 0.61433 0.44088 0.35145 0.0
H272 H 0.3085 0.59915 0.43497 0.0
H273 H 0.84188 0.4162 0.56751 0.0
H274 H 0.93045 0.4004 0.49071 0.0
H275 H 0.58021 0.57708 0.64352 0.0
H276 H 0.86834 0.39768 0.33304 0.0
H277 H 0.74168 0.4152 0.2989 0.0
H278 H 0.1606 0.62004 0.58635 0.0
H279 H 0.93957 0.39317 0.40528 0.0
H280 H 0.33038 0.60845 0.71207 0.0
H281 H 0.48676 0.59471 0.71678 0.0
N282 N 0.4749 0.5765 0.59625 0.0
C283 C 0.3915 0.58632 0.59377 0.0
C284 C 0.51091 0.58132 0.64035 0.0
C285 C 0.37038 0.59972 0.67944 0.0
C286 C 0.45859 0.59199 0.68224 0.0
C287 C 0.33668 0.59801 0.63517 0.0
H288 H 0.20834 0.61762 0.6628 0.0
N289 N 0.41991 0.57701 0.51228 0.0
C290 C 0.36395 0.58736 0.55073 0.0
C291 C 0.26154 0.60448 0.50549 0.0
C292 C 0.28197 0.60058 0.54794 0.0
C293 C 0.40271 0.5821 0.47173 0.0
C294 C 0.32293 0.59571 0.46754 0.0
O295 O 0.67254 0.48696 0.45795 0.0
O296 O 0.67712 0.53084 0.52896 0.0
O297 O 0.62098 0.5805 0.48605 0.0
O298 O 0.6024 0.60201 0.5636 0.0
O299 O 0.51342 0.48765 0.54436 0.0
O300 O 0.60026 0.53144 0.5693 0.0
O301 O 0.42798 0.52909 0.48693 0.0
O302 O 0.43119 0.48731 0.50646 0.0
O303 O 0.52155 0.41527 0.46244 0.0
O304 O 0.46272 0.42975 0.40999 0.0
O305 O 0.58403 0.52853 0.44275 0.0
O306 O 0.50919 0.48174 0.41345 0.0
C307 C 0.71739 0.50837 0.49324 0.0
C308 C 0.55721 0.51022 0.5782 0.0
C309 C 0.72437 0.61867 0.53093 0.0
C310 C 0.82277 0.65594 0.51871 0.0
C311 C 0.87868 0.62149 0.554 0.0
C312 C 0.79496 0.60827 0.55028 0.0
C313 C 0.89261 0.64518 0.53854 0.0
C314 C 0.73853 0.64234 0.51506 0.0
C315 C 0.63581 0.60477 0.52585 0.0
C316 C 0.22474 0.61041 0.58808 0.0
C317 C 0.25189 0.60898 0.63158 0.0
H318 H 0.19951 0.61478 0.50204 0.0
C319 C 0.38706 0.50729 0.4953 0.0
C320 C 0.53901 0.5065 0.40859 0.0
C321 C 0.38001 0.39509 0.43336 0.0
C322 C 0.30057 0.35405 0.44638 0.0
C323 C 0.21948 0.39506 0.43565 0.0
C324 C 0.29874 0.40856 0.43062 0.0
C325 C 0.22017 0.36799 0.44335 0.0
C326 C 0.3804 0.36789 0.44149 0.0
C327 C 0.46491 0.40866 0.4272 0.0
H328 H 0.93301 0.61341 0.56905 0.0
H329 H 0.7852 0.59 0.56245 0.0
H330 H 0.95797 0.65528 0.54266 0.0
H331 H 0.68398 0.64975 0.49913 0.0
H332 H 0.15715 0.40558 0.43348 0.0
H333 H 0.29628 0.42946 0.42447 0.0
H334 H 0.15772 0.35813 0.44744 0.0
H335 H 0.44289 0.35723 0.44318 0.0
C336 C 0.23292 0.72279 0.05306 0.0
C337 C 0.28407 0.69764 0.02268 0.0
C338 C 0.22709 0.74994 0.04517 0.0
C339 C 0.27332 0.75211 0.00583 0.0
C340 C 0.32497 0.72681 0.97499 0.0
C341 C 0.32977 0.69996 0.98379 0.0
C342 C 0.17167 0.77639 0.07909 0.0
C343 C 0.37496 0.72805 0.93251 0.0
C344 C 0.19616 0.81123 0.95862 0.0
C345 C 0.25762 0.83523 0.97989 0.0
C346 C 0.20052 0.78411 0.96669 0.0
C347 C 0.26776 0.78083 -0.00304 0.0
C348 C 0.32982 0.80501 0.01868 0.0
C349 C 0.32411 0.83182 0.00983 0.0
C350 C 0.13333 0.75888 0.9426 0.0
C351 C 0.40218 0.80259 0.05144 0.0
H352 H 0.19824 0.72142 0.08355 0.0
H353 H 0.36844 0.68055 0.95968 0.0
H354 H 0.21346 0.79726 0.09668 0.0
H355 H 0.11953 0.7821 0.05824 0.0
H356 H 0.13959 0.77106 0.10789 0.0
H357 H 0.41211 0.70646 0.91194 0.0
H358 H 0.32834 0.73209 0.90732 0.0
H359 H 0.42231 0.74763 0.94555 0.0
H360 H 0.14521 0.81346 0.93498 0.0
H361 H 0.37117 0.85036 0.02699 0.0
H362 H 0.09656 0.75408 0.97057 0.0
H363 H 0.16735 0.73724 0.91899 0.0
H364 H 0.0851 0.76498 0.92018 0.0
H365 H 0.37281 0.79932 0.08271 0.0
H366 H 0.44518 0.8234 0.0656 0.0
H367 H 0.4439 0.78212 0.03135 0.0
C368 C 0.75993 0.31998 0.96972 0.0
C369 C 0.82024 0.34466 0.98352 0.0
C370 C 0.76963 0.29622 0.98588 0.0
C371 C 0.84201 0.29681 0.01611 0.0
C372 C 0.90277 0.32169 0.03036 0.0
C373 C 0.89074 0.34534 0.01434 0.0
C374 C 0.70271 0.27035 0.97032 0.0
C375 C 0.9811 0.32324 0.06238 0.0
C376 C 0.83782 0.25179 0.09561 0.0
C377 C 0.8892 0.22584 0.06852 0.0
C378 C 0.81956 0.27451 0.07829 0.0
C379 C 0.85462 0.27155 0.03303 0.0
C380 C 0.9053 0.24512 0.00512 0.0
C381 C 0.9214 0.22249 0.02302 0.0
C382 C 0.76393 0.30198 0.10885 0.0
C383 C 0.94492 0.24121 0.95702 0.0
H384 H 0.70583 0.31887 0.9455 0.0
H385 H 0.93678 0.36452 0.02623 0.0
H386 H 0.73567 0.24808 0.94866 0.0
H387 H 0.6736 0.26845 0.00275 0.0
H388 H 0.64843 0.27378 0.94821 0.0
H389 H 1.02338 0.34378 0.0694 0.0
H390 H 0.958 0.324 0.09775 0.0
H391 H 1.02211 0.30221 0.04508 0.0
H392 H 0.81185 0.25432 0.13054 0.0
H393 H 0.9617 0.20262 0.00209 0.0
H394 H 0.70807 0.30465 0.08702 0.0
H395 H 0.80425 0.32335 0.12073 0.0
H396 H 0.73691 0.2999 0.14162 0.0
H397 H 0.89257 0.24268 0.9323 0.0
H398 H 0.97981 0.21883 0.93886 0.0
H399 H 0.99261 0.26017 0.96275 0.0
C400 C 0.34222 0.19013 0.46502 0.0
C401 C 0.28069 0.18781 0.4982 0.0
C402 C 0.34806 0.21692 0.45611 0.0
C403 C 0.29174 0.24226 0.48139 0.0
C404 C 0.23021 0.24018 0.51536 0.0
C405 C 0.22505 0.21296 0.5231 0.0
C406 C 0.41369 0.21795 0.41911 0.0
C407 C 0.16968 0.26674 0.54353 0.0
C408 C 0.35635 0.32194 0.48933 0.0
C409 C 0.30056 0.32508 0.45445 0.0
C410 C 0.35431 0.29516 0.49847 0.0
C411 C 0.2959 0.2707 0.47165 0.0
C412 C 0.24055 0.27356 0.4358 0.0
C413 C 0.24318 0.30073 0.42787 0.0
C414 C 0.4137 0.29323 0.53736 0.0
C415 C 0.17828 0.24792 0.40586 0.0
H416 H 0.38476 0.17067 0.44523 0.0
H417 H 0.17802 0.21147 0.54916 0.0
H418 H 0.37838 0.22148 0.38954 0.0
H419 H 0.45948 0.23774 0.43628 0.0
H420 H 0.45327 0.19645 0.40284 0.0
H421 H 0.12728 0.26183 0.56959 0.0
H422 H 0.20924 0.2878 0.56397 0.0
H423 H 0.12643 0.27189 0.51809 0.0
H424 H 0.40024 0.34077 0.51032 0.0
H425 H 0.20064 0.30283 0.40045 0.0
H426 H 0.4572 0.27274 0.52158 0.0
H427 H 0.3731 0.29034 0.56585 0.0
H428 H 0.45574 0.31411 0.55477 0.0
H429 H 0.21577 0.22625 0.38666 0.0
H430 H 0.14133 0.25338 0.37852 0.0
H431 H 0.12996 0.24353 0.42996 0.0
C432 C 0.93951 0.80357 0.46167 0.0
C433 C 0.91749 0.79802 0.41358 0.0
C434 C 0.92253 0.78136 0.48037 0.0
C435 C 0.88187 0.75298 0.45043 0.0
C436 C 0.85759 0.74759 0.40224 0.0
C437 C 0.87591 0.77007 0.38441 0.0
C438 C 0.95002 0.78798 0.53183 0.0
C439 C 0.8132 0.71786 0.36922 0.0
C440 C 0.91699 0.6823 0.47799 0.0
C441 C 0.838 0.68106 0.50164 0.0
C442 C 0.93244 0.70574 0.4618 0.0
C443 C 0.86711 0.7285 0.46887 0.0
C444 C 0.78722 0.72743 0.49262 0.0
C445 C 0.7738 0.70387 0.50885 0.0
C446 C 1.01862 0.70599 0.43672 0.0
C447 C 0.71566 0.75114 0.50073 0.0
H448 H 0.97236 0.82495 0.48432 0.0
H449 H 0.85749 0.76577 0.34744 0.0
H450 H 0.89252 0.78552 0.55278 0.0
H451 H 1.00034 0.77095 0.53155 0.0
H452 H 0.97804 0.81154 0.55098 0.0
H453 H 0.79554 0.71767 0.33334 0.0
H454 H 0.8577 0.69809 0.3632 0.0
H455 H 0.7522 0.71418 0.38657 0.0
H456 H 0.96657 0.66461 0.47141 0.0
H457 H 0.71312 0.70353 0.5277 0.0
H458 H 0.05264 0.72847 0.45584 0.0
H459 H 1.00556 0.70328 0.39898 0.0
H460 H 0.06386 0.68728 0.43543 0.0
H461 H 0.74198 0.7746 0.52254 0.0
H462 H 0.65733 0.74714 0.51979 0.0
H463 H 0.69365 0.75067 0.46534 0.0
C464 C 0.30988 0.03812 0.03156 0.0
C465 C 0.2633 0.01736 0.99113 0.0
C466 C 0.40258 0.03961 0.03172 0.0
C467 C 0.45047 0.01873 0.99137 0.0
C468 C 0.40412 0.99693 0.95107 0.0
C469 C 0.31117 0.99693 0.95102 0.0
C470 C 0.44929 0.06348 0.07517 0.0
C471 C 0.45274 0.97332 0.90832 0.0
C472 C 0.69012 0.03539 0.97105 0.0
C473 C 0.73627 0.01826 0.99198 0.0
C474 C 0.59709 0.03623 0.97137 0.0
C475 C 0.54908 0.01899 0.9921 0.0
C476 C 0.59536 1.00205 0.01385 0.0
C477 C 0.68809 1.00247 0.01439 0.0
C478 C 0.55011 0.05551 0.94944 0.0
C479 C 0.54717 0.98285 0.0356 0.0
H480 H 0.27401 0.053 0.06353 0.0
H481 H 0.27605 0.98067 0.91959 0.0
H482 H 0.49703 0.0522 0.09061 0.0
H483 H 0.48752 0.07927 0.06364 0.0
H484 H 0.40259 0.07739 0.10427 0.0
H485 H 0.407 0.95752 0.88029 0.0
H486 H 0.49555 0.98506 0.89125 0.0
H487 H 0.49647 0.95934 0.92093 0.0
H488 H 0.72658 0.04803 0.95416 0.0
H489 H 0.72288 0.99035 0.03248 0.0
H490 H 0.50436 0.0719 0.97648 0.0
H491 H 0.50956 0.04043 0.91798 0.0
H492 H 0.59689 0.0688 0.93699 0.0
H493 H 0.49311 0.9962 0.05987 0.0
H494 H 0.592 0.97444 0.0567 0.0
H495 H 0.51669 0.96257 0.00595 0.0
C496 C 0.32449 0.98687 0.44898 0.0
C497 C 0.27753 1.00734 0.48937 0.0
C498 C 0.41711 0.98556 0.44922 0.0
C499 C 0.46458 1.00628 0.49005 0.0
C500 C 0.4179 0.02768 0.53045 0.0
C501 C 0.32495 0.02754 0.53003 0.0
C502 C 0.46419 0.96214 0.40559 0.0
C503 C 0.46617 0.05109 0.57373 0.0
C504 C 0.70445 0.98939 0.50901 0.0
C505 C 0.75016 1.00685 0.48846 0.0
C506 C 0.61144 0.98868 0.5093 0.0
C507 C 0.5631 1.00634 0.48951 0.0
C508 C 0.60893 0.02373 0.46834 0.0
C509 C 0.70159 0.02325 0.46728 0.0
C510 C 0.56484 0.969 0.53068 0.0
C511 C 0.56035 0.04334 0.44752 0.0
H512 H 0.28902 0.97209 0.41669 0.0
H513 H 0.2895 0.04356 0.56142 0.0
H514 H 0.51266 0.97375 0.39108 0.0
H515 H 0.50159 0.94598 0.41663 0.0
H516 H 0.41779 0.94858 0.37591 0.0
H517 H 0.42019 0.06638 0.60202 0.0
H518 H 0.5096 0.03919 0.59022 0.0
H519 H 0.50925 0.06562 0.56182 0.0
H520 H 0.74126 0.97634 0.52502 0.0
H521 H 0.73599 0.03567 0.44952 0.0
H522 H 0.51945 0.95254 0.50332 0.0
H523 H 0.52393 0.98377 0.5621 0.0
H524 H 0.61186 0.95575 0.54302 0.0
H525 H 0.50547 0.03025 0.42348 0.0
H526 H 0.60468 0.05191 0.4264 0.0
H527 H 0.53097 0.06352 0.47768 0.0
C528 C 0.84867 0.5266 0.9743 0.0
C529 C 0.80124 0.50984 -0.00466 0.0
C530 C 0.94141 0.52704 0.9743 0.0
C531 C 0.9886 0.50898 0.99372 0.0
C532 C 0.94132 0.49046 0.01242 0.0
C533 C 0.84826 0.49148 0.01374 0.0
C534 C 0.9887 0.54751 0.9546 0.0
C535 C 0.9891 0.46968 0.0312 0.0
C536 C 0.22885 0.49251 0.95391 0.0
C537 C 0.27462 0.5121 -0.00437 0.0
C538 C 0.13612 0.49053 0.95323 0.0
C539 C 0.08732 0.50972 0.99462 0.0
C540 C 0.13288 0.53053 0.03624 0.0
C541 C 0.22586 0.53106 0.03657 0.0
C542 C 0.09054 0.46767 0.90831 0.0
C543 C 0.08336 0.55257 0.08017 0.0
H544 H 0.81329 0.53958 0.95788 0.0
H545 H 0.81247 0.47793 0.02929 0.0
H546 H 1.01926 0.56722 0.98523 0.0
H547 H 0.04261 0.53484 0.92952 0.0
H548 H 0.94328 0.55677 0.93491 0.0
H549 H 0.94286 0.45497 0.04104 0.0
H550 H 1.03587 0.45453 0.00331 0.0
H551 H 1.02861 0.4838 0.06378 0.0
H552 H 0.26551 0.4788 0.92149 0.0
H553 H 0.2603 0.54647 0.06898 0.0
H554 H 1.03543 0.4787 0.89714 0.0
H555 H 0.06176 0.44883 0.91649 0.0
H556 H 0.13663 0.45737 0.87718 0.0
H557 H 1.03837 0.5671 0.06935 0.0
H558 H 0.12846 0.56794 0.10908 0.0
H559 H 0.04178 0.53949 0.09549 0.0
C560 C 0.24144 0.52335 0.47357 0.0
C561 C 0.28879 0.50569 0.49299 0.0
C562 C 0.14873 0.52392 0.47385 0.0
C563 C 0.10148 0.50509 0.49184 0.0
C564 C 0.1486 0.48585 0.50913 0.0
C565 C 0.24166 0.48675 0.51027 0.0
C566 C 0.1016 0.54531 0.45596 0.0
C567 C 0.10065 0.46436 0.52649 0.0
C568 C 0.86407 0.52596 0.53439 0.0
C569 C 0.81569 0.50771 0.49269 0.0
C570 C 0.957 0.52564 0.53443 0.0
C571 C 1.00284 0.50564 0.49243 0.0
C572 C 0.95445 0.48708 0.45032 0.0
C573 C 0.86176 0.48901 0.4506 0.0
C574 C 1.00615 0.54704 0.5792 0.0
C575 C 1.00063 0.4651 0.40499 0.0
H576 H 0.27683 0.53685 0.45804 0.0
H577 H 0.27738 0.4726 0.5247 0.0
H578 H 0.04709 0.53321 0.43072 0.0
H579 H 0.07186 0.5646 0.48743 0.0
H580 H 0.14697 0.55514 0.43703 0.0
H581 H 0.14676 0.44928 0.53549 0.0
H582 H 0.06119 0.47794 0.55929 0.0
H583 H 0.0538 0.44958 0.49813 0.0
H584 H 0.82936 0.54065 0.56711 0.0
H585 H 0.82541 0.47593 0.41763 0.0
H586 H 0.0516 0.56205 0.56961 0.0
H587 H 0.04722 0.53345 0.59379 0.0
H588 H 0.96081 0.56193 0.60828 0.0
H589 H 0.052 0.47735 0.39343 0.0
H590 H 0.95411 0.45384 0.37426 0.0
H591 H 1.03455 0.44695 0.41285 0.0
C592 C 0.04039 0.02837 0.3436 0.0
C593 C 0.98571 1.0081 0.35433 0.0
C594 C 1.03248 0.03148 0.29961 0.0
C595 C 0.968 0.01398 0.26541 0.0
C596 C 0.91081 0.9941 0.27645 0.0
C597 C 0.92059 0.99128 0.3208 0.0
C598 C 0.09541 0.0527 0.28904 0.0
C599 C 0.84086 0.97527 0.24091 0.0
C600 C 0.92344 0.03871 0.16243 0.0
C601 C 0.97863 0.01854 0.12591 0.0
C602 C 0.91673 0.03689 0.2077 0.0
C603 C 0.96666 0.0145 0.2165 0.0
C604 C 1.02104 0.99375 0.17946 0.0
C605 C 1.02628 0.99601 0.13474 0.0
C606 C 0.85774 0.05928 0.24641 0.0
C607 C 0.07591 0.96968 0.18748 0.0
H608 H 0.09094 0.04151 0.36925 0.0
H609 H 0.87751 0.97584 0.3291 0.0
H610 H 0.1387 0.03894 0.25805 0.0
H611 H 0.05814 0.06903 0.27836 0.0
H612 H 0.1379 0.06619 0.32077 0.0
H613 H 0.79667 0.96307 0.25668 0.0
H614 H 0.80012 0.99031 0.22901 0.0
H615 H 0.87282 0.95788 0.20801 0.0
H616 H 0.88591 0.05601 0.1558 0.0
H617 H 0.06909 0.98024 0.10689 0.0
H618 H 0.89851 0.07469 0.2775 0.0
H619 H 0.81194 0.04661 0.26049 0.0
H620 H 0.81829 0.07374 0.23268 0.0
H621 H 0.12542 0.98117 0.21652 0.0
H622 H 0.11138 0.95431 0.1541 0.0
H623 H 1.03333 0.95526 0.19981 0.0
C624 C 0.95214 0.02842 0.84242 0.0
C625 C 1.01151 1.01086 0.85636 0.0
C626 C 0.95815 0.02945 0.79682 0.0
C627 C 1.02274 1.01145 0.76345 0.0
C628 C 0.08163 0.99305 0.7767 0.0
C629 C 0.07624 0.99337 0.82339 0.0
C630 C 0.89537 0.04987 0.78441 0.0
C631 C 0.14954 0.97281 0.7414 0.0
C632 C 0.96614 0.99171 0.63192 0.0
C633 C 1.02122 1.01186 0.62104 0.0
C634 C 0.96874 0.99054 0.6775 0.0
C635 C 1.02527 1.01087 0.7139 0.0
C636 C 0.08052 0.03151 0.70355 0.0
C637 C 0.07918 0.0313 0.65683 0.0
C638 C 0.91053 0.96761 0.68673 0.0
C639 C 0.13985 0.05412 0.74202 0.0
H640 H 0.90162 0.04192 0.8676 0.0
H641 H 0.12289 0.98001 0.8341 0.0
H642 H 0.93299 0.06542 0.77208 0.0
H643 H 0.85147 0.03552 0.75406 0.0
H644 H 0.85349 0.06418 0.8158 0.0
H645 H 0.18946 0.95953 0.75712 0.0
H646 H 0.11618 0.95633 0.70805 0.0
H647 H 0.1948 0.98709 0.7302 0.0
H648 H 0.92126 0.97646 0.60454 0.0
H649 H 0.12363 0.04633 0.64841 0.0
H650 H 0.86005 0.98003 0.7145 0.0
H651 H 0.95054 0.95373 0.70126 0.0
H652 H 0.87603 0.95167 0.65331 0.0
H653 H 0.0996 0.06922 0.77354 0.0
H654 H 0.17801 0.06887 0.72826 0.0
H655 H 0.18695 0.04157 0.75555 0.0
C656 C 0.55765 0.53547 0.35647 0.0
C657 C 0.52822 0.50887 0.36149 0.0
C658 C 0.55099 0.5381 0.3121 0.0
C659 C 0.51468 0.51343 0.27151 0.0
C660 C 0.48265 0.48683 0.2764 0.0
C661 C 0.48953 0.48489 0.32149 0.0
C662 C 0.5856 0.5669 0.30828 0.0
C663 C 0.44372 0.46006 0.23364 0.0
C664 C 0.45203 0.52843 0.16123 0.0
C665 C 0.52679 0.51724 0.13196 0.0
C666 C 0.44656 0.52718 0.20683 0.0
C667 C 0.51763 0.51449 0.22314 0.0
C668 C 0.5937 0.50359 0.19386 0.0
C669 C 0.59747 0.50525 0.1487 0.0
C670 C 0.3648 0.5392 0.23739 0.0
C671 C 0.67105 0.49007 0.21014 0.0
H672 H 0.58709 0.55428 0.38712 0.0
H673 H 0.4661 0.46435 0.32507 0.0
H674 H 0.64392 0.56106 0.28388 0.0
H675 H 0.53472 0.57663 0.29208 0.0
H676 H 0.60538 0.58496 0.34416 0.0
H677 H 0.41737 0.44179 0.24407 0.0
H678 H 0.38957 0.4682 0.21704 0.0
H679 H 0.49506 0.44975 0.20533 0.0
H680 H 0.39721 0.53754 0.14801 0.0
H681 H 0.65562 0.4968 0.12613 0.0
H682 H 0.38302 0.55772 0.27308 0.0
H683 H 0.33321 0.52045 0.24469 0.0
H684 H 0.31567 0.5485 0.21951 0.0
H685 H 0.699 0.50754 0.2444 0.0
H686 H 0.72447 0.48208 0.1825 0.0
H687 H 0.64865 0.47023 0.21773 0.0
C688 C 0.63135 0.52346 0.65821 0.0
C689 C 0.55859 0.51116 0.62758 0.0
C690 C 0.63419 0.52326 0.70456 0.0
C691 C 0.56257 0.51044 0.72027 0.0
C692 C 0.48891 0.49807 0.68941 0.0
C693 C 0.48781 0.49861 0.6434 0.0
C694 C 0.71368 0.53669 0.73664 0.0
C695 C 0.41111 0.48435 0.70506 0.0
C696 C 0.59201 0.48508 0.82334 0.0
C697 C 0.55339 0.50976 0.86222 0.0
C698 C 0.59712 0.48523 0.77698 0.0
C699 C 0.563 0.51068 0.76953 0.0
C700 C 0.5254 0.53587 0.80873 0.0
C701 C 0.52097 0.53509 0.85455 0.0
C702 C 0.63759 0.45797 0.73578 0.0
C703 C 0.4885 0.56344 0.80209 0.0
H704 H 0.68648 0.53286 0.64567 0.0
H705 H 0.43136 0.48919 0.6197 0.0
H706 H 0.69284 0.5559 0.77097 0.0
H707 H 0.74465 0.51891 0.74655 0.0
H708 H 0.76414 0.54551 0.71876 0.0
H709 H 0.35979 0.47516 0.67627 0.0
H710 H 0.43369 0.46537 0.71469 0.0
H711 H 0.38042 0.50213 0.73803 0.0
H712 H 0.61761 0.46549 0.82892 0.0
H713 H 0.49145 0.5544 0.8843 0.0
H714 H 0.69178 0.46582 0.71876 0.0
H715 H 0.58715 0.44667 0.70721 0.0
H716 H 0.66432 0.44057 0.74801 0.0
H717 H 0.54007 0.57372 0.78713 0.0
H718 H 0.46381 0.58155 0.83668 0.0
H719 H 0.43328 0.55606 0.77551 0.0
loop_
_geom_bond_atom_site_label_1
_geom_bond_atom_site_label_2
_geom_bond_distance
_geom_bond_site_symmetry_2
_ccdc_geom_bond_type
C0 C2 1.422 . S
C0 C4 1.415 . S
C0 N6 1.369 . S
C1 C2 1.421 . S
C1 C3 1.417 . S
C1 C13 1.441 . S
C2 C0 1.422 . S
C2 C1 1.421 . S
C2 N12 1.359 . S
C3 C1 1.417 . S
C3 C5 1.329 . S
C3 H22 0.930 . S
C4 C0 1.415 . S
C4 C5 1.437 . S
C4 C8 1.413 . S
C5 C3 1.329 . S
C5 C4 1.437 . S
C5 H27 0.929 . S
N6 C0 1.369 . S
N6 C7 1.338 . S
N6 Gd11 2.622 . S
C7 N6 1.338 . S
C7 C9 1.378 . S
C7 H19 0.929 . S
C8 C4 1.413 . S
C8 C9 1.348 . S
C8 H24 0.931 . S
C9 C7 1.378 . S
C9 C8 1.348 . S
C9 H25 0.930 . S
Gd10 N30 2.622 . S
Gd10 N37 2.570 . S
Gd10 O44 2.353 1_655 S
Gd10 O45 2.468 1_655 S
Gd10 O46 2.427 1_655 S
Gd10 O48 2.388 1_655 S
Gd10 O49 2.386 . S
Gd10 O53 2.307 1_556 S
Gd10 C63 2.805 1_655 S
Gd11 N6 2.622 . S
Gd11 N12 2.570 . S
Gd11 O43 2.386 . S
Gd11 O47 2.307 1_554 S
Gd11 O50 2.353 1_455 S
Gd11 O51 2.468 1_455 S
Gd11 O52 2.427 1_455 S
Gd11 O54 2.388 1_455 S
Gd11 C75 2.805 1_455 S
N12 C2 1.359 . S
N12 Gd11 2.570 . S
N12 C14 1.343 1_554 S
C13 C1 1.441 . S
C13 C15 1.311 1_554 S
C13 H21 0.923 1_554 S
C14 N12 1.343 1_556 S
C14 C15 1.390 . S
C14 H16 0.931 . S
C15 C13 1.311 1_556 S
C15 C14 1.390 . S
C15 H17 0.930 . S
H16 C14 0.931 . S
H17 C15 0.930 . S
H18 C41 0.931 . S
H19 C7 0.929 . S
H20 C42 0.930 . S
H21 C13 0.923 1_556 S
H22 C3 0.930 . S
H23 C32 0.929 . S
H24 C8 0.931 . S
H25 C9 0.930 . S
H26 C64 0.930 . S
H27 C5 0.929 . S
H28 C33 0.931 . S
H29 C34 0.930 . S
N30 Gd10 2.622 . S
N30 C31 1.369 . S
N30 C32 1.338 . S
C31 N30 1.369 . S
C31 C35 1.415 . S
C31 C38 1.422 . S
C32 H23 0.929 . S
C32 N30 1.338 . S
C32 C34 1.378 . S
C33 H28 0.931 . S
C33 C34 1.348 . S
C33 C35 1.413 . S
C34 H29 0.930 . S
C34 C32 1.378 . S
C34 C33 1.348 . S
C35 C31 1.415 . S
C35 C33 1.413 . S
C35 C65 1.437 . S
H36 C65 0.929 . S
N37 Gd10 2.570 . S
N37 C38 1.359 . S
N37 C41 1.343 1_556 S
C38 C31 1.422 . S
C38 N37 1.359 . S
C38 C40 1.421 . S
C39 C40 1.435 . S
C39 C42 1.314 1_556 S
C39 H66 0.925 1_556 S
C40 C38 1.421 . S
C40 C39 1.435 . S
C40 C64 1.417 . S
C41 H18 0.931 . S
C41 N37 1.343 1_554 S
C41 C42 1.390 . S
C42 H20 0.930 . S
C42 C39 1.314 1_554 S
C42 C41 1.390 . S
O43 Gd11 2.386 . S
O43 C55 1.265 1_545 S
O44 Gd10 2.353 1_455 S
O44 C55 1.242 1_556 S
O45 Gd10 2.468 1_455 S
O45 C63 1.263 . S
O46 Gd10 2.427 1_455 S
O46 C63 1.252 . S
O47 Gd11 2.307 1_556 S
O47 C56 1.261 1_545 S
O48 Gd10 2.388 1_455 S
O48 C56 1.252 . S
O49 Gd10 2.386 . S
O49 C67 1.265 1_565 S
O50 Gd11 2.353 1_655 S
O50 C67 1.242 1_554 S
O51 Gd11 2.468 1_655 S
O51 C75 1.263 . S
O52 Gd11 2.427 1_655 S
O52 C75 1.252 . S
O53 Gd10 2.307 1_554 S
O53 C68 1.261 1_565 S
O54 Gd11 2.388 1_655 S
O54 C68 1.252 . S
C55 O43 1.265 1_565 S
C55 O44 1.242 1_554 S
C56 O47 1.261 1_565 S
C56 O48 1.252 . S
C57 C60 1.394 . S
C57 C62 1.370 . S
C57 C63 1.500 . S
C58 C61 1.383 . S
C58 C62 1.395 . S
C59 C60 1.396 . S
C59 C61 1.365 . S
C59 H76 0.929 . S
C60 C57 1.394 . S
C60 C59 1.396 . S
C60 H77 0.930 . S
C61 C58 1.383 . S
C61 C59 1.365 . S
C61 H78 0.931 . S
C62 C57 1.370 . S
C62 C58 1.395 . S
C62 H79 0.930 1_556 S
C63 Gd10 2.805 1_455 S
C63 O45 1.263 . S
C63 O46 1.252 . S
C63 C57 1.500 . S
C64 H26 0.930 . S
C64 C40 1.417 . S
C64 C65 1.329 . S
C65 C35 1.437 . S
C65 H36 0.929 . S
C65 C64 1.329 . S
H66 C39 0.925 1_554 S
C67 O49 1.265 1_545 S
C67 O50 1.242 1_556 S
C68 O53 1.261 1_545 S
C68 O54 1.252 . S
C69 C72 1.394 . S
C69 C74 1.370 . S
C69 C75 1.500 . S
C70 C73 1.383 . S
C70 C74 1.395 . S
C71 C72 1.396 . S
C71 C73 1.365 . S
C71 H80 0.929 . S
C72 C69 1.394 . S
C72 C71 1.396 . S
C72 H81 0.930 . S
C73 C70 1.383 . S
C73 C71 1.365 . S
C73 H82 0.931 . S
C74 C69 1.370 . S
C74 C70 1.395 . S
C74 H83 0.930 1_554 S
C75 Gd11 2.805 1_655 S
C75 O51 1.263 . S
C75 O52 1.252 . S
C75 C69 1.500 . S
H76 C59 0.929 . S
H77 C60 0.930 . S
H78 C61 0.931 . S
H79 C62 0.930 1_554 S
H80 C71 0.929 . S
H81 C72 0.930 . S
H82 C73 0.931 . S
H83 C74 0.930 1_556 S
C84 C86 1.422 . S
C84 C88 1.415 . S
C84 N90 1.369 . S
C85 C86 1.421 . S
C85 C87 1.417 . S
C85 C97 1.422 . S
C86 C84 1.422 . S
C86 C85 1.421 . S
C86 N96 1.359 . S
C87 C85 1.417 . S
C87 C89 1.329 . S
C87 H106 0.930 . S
C88 C84 1.415 . S
C88 C89 1.437 . S
C88 C92 1.413 . S
C89 C87 1.329 . S
C89 C88 1.437 . S
C89 H111 0.929 . S
N90 C84 1.369 . S
N90 C91 1.338 . S
N90 Gd95 2.622 . S
C91 N90 1.338 . S
C91 C93 1.378 . S
C91 H103 0.929 . S
C92 C88 1.413 . S
C92 C93 1.348 . S
C92 H108 0.931 . S
C93 C91 1.378 . S
C93 C92 1.348 . S
C93 H109 0.930 . S
Gd94 N114 2.622 . S
Gd94 N121 2.570 . S
Gd94 O128 2.353 1_655 S
Gd94 O129 2.468 1_655 S
Gd94 O130 2.427 1_655 S
Gd94 O132 2.388 1_655 S
Gd94 O133 2.386 . S
Gd94 O137 2.307 . S
Gd94 C147 2.805 1_655 S
Gd95 N90 2.622 . S
Gd95 N96 2.570 . S
Gd95 O127 2.386 . S
Gd95 O131 2.307 . S
Gd95 O134 2.353 1_455 S
Gd95 O135 2.468 1_455 S
Gd95 O136 2.427 1_455 S
Gd95 O138 2.388 1_455 S
Gd95 C159 2.805 1_455 S
N96 C86 1.359 . S
N96 Gd95 2.570 . S
N96 C98 1.343 . S
C97 C85 1.422 . S
C97 C99 1.321 . S
C97 H105 0.931 . S
C98 N96 1.343 . S
C98 C99 1.390 . S
C98 H100 0.931 . S
C99 C97 1.321 . S
C99 C98 1.390 . S
C99 H101 0.930 . S
H100 C98 0.931 . S
H101 C99 0.930 . S
H102 C125 0.931 . S
H103 C91 0.929 . S
H104 C126 0.930 . S
H105 C97 0.931 . S
H106 C87 0.930 . S
H107 C116 0.929 . S
H108 C92 0.931 . S
H109 C93 0.930 . S
H110 C148 0.930 . S
H111 C89 0.929 . S
H112 C117 0.931 . S
H113 C118 0.930 . S
N114 Gd94 2.622 . S
N114 C115 1.369 . S
N114 C116 1.338 . S
C115 N114 1.369 . S
C115 C119 1.415 . S
C115 C122 1.422 . S
C116 H107 0.929 . S
C116 N114 1.338 . S
C116 C118 1.378 . S
C117 H112 0.931 . S
C117 C118 1.348 . S
C117 C119 1.413 . S
C118 H113 0.930 . S
C118 C116 1.378 . S
C118 C117 1.348 . S
C119 C115 1.415 . S
C119 C117 1.413 . S
C119 C149 1.437 . S
H120 C149 0.929 . S
N121 Gd94 2.570 . S
N121 C122 1.359 . S
N121 C125 1.343 . S
C122 C115 1.422 . S
C122 N121 1.359 . S
C122 C124 1.421 . S
C123 C124 1.422 . S
C123 C126 1.321 . S
C123 H150 0.931 . S
C124 C122 1.421 . S
C124 C123 1.422 . S
C124 C148 1.417 . S
C125 H102 0.931 . S
C125 N121 1.343 . S
C125 C126 1.390 . S
C126 H104 0.930 . S
C126 C123 1.321 . S
C126 C125 1.390 . S
O127 Gd95 2.386 . S
O127 C139 1.265 1_565 S
O128 Gd94 2.353 1_455 S
O128 C139 1.242 . S
O129 Gd94 2.468 1_455 S
O129 C147 1.263 . S
O130 Gd94 2.427 1_455 S
O130 C147 1.252 . S
O131 Gd95 2.307 . S
O131 C140 1.261 1_565 S
O132 Gd94 2.388 1_455 S
O132 C140 1.252 . S
O133 Gd94 2.386 . S
O133 C151 1.265 1_545 S
O134 Gd95 2.353 1_655 S
O134 C151 1.242 . S
O135 Gd95 2.468 1_655 S
O135 C159 1.263 . S
O136 Gd95 2.427 1_655 S
O136 C159 1.252 . S
O137 Gd94 2.307 . S
O137 C152 1.261 1_545 S
O138 Gd95 2.388 1_655 S
O138 C152 1.252 . S
C139 O127 1.265 1_545 S
C139 O128 1.242 . S
C140 O131 1.261 1_545 S
C140 O132 1.252 . S
C141 C144 1.394 . S
C141 C146 1.370 . S
C141 C147 1.500 . S
C142 C145 1.383 . S
C142 C146 1.395 . S
C143 C144 1.396 . S
C143 C145 1.365 . S
C143 H160 0.929 . S
C144 C141 1.394 . S
C144 C143 1.396 . S
C144 H161 0.930 . S
C145 C142 1.383 . S
C145 C143 1.365 . S
C145 H162 0.931 . S
C146 C141 1.370 . S
C146 C142 1.395 . S
C146 H163 0.930 . S
C147 Gd94 2.805 1_455 S
C147 O129 1.263 . S
C147 O130 1.252 . S
C147 C141 1.500 . S
C148 H110 0.930 . S
C148 C124 1.417 . S
C148 C149 1.329 . S
C149 C119 1.437 . S
C149 H120 0.929 . S
C149 C148 1.329 . S
H150 C123 0.931 . S
C151 O133 1.265 1_565 S
C151 O134 1.242 . S
C152 O137 1.261 1_565 S
C152 O138 1.252 . S
C153 C156 1.394 . S
C153 C158 1.370 . S
C153 C159 1.500 . S
C154 C157 1.383 . S
C154 C158 1.395 . S
C155 C156 1.396 . S
C155 C157 1.365 . S
C155 H164 0.929 . S
C156 C153 1.394 . S
C156 C155 1.396 . S
C156 H165 0.930 . S
C157 C154 1.383 . S
C157 C155 1.365 . S
C157 H166 0.931 . S
C158 C153 1.370 . S
C158 C154 1.395 . S
C158 H167 0.930 . S
C159 Gd95 2.805 1_655 S
C159 O135 1.263 . S
C159 O136 1.252 . S
C159 C153 1.500 . S
H160 C143 0.929 . S
H161 C144 0.930 . S
H162 C145 0.931 . S
H163 C146 0.930 . S
H164 C155 0.929 . S
H165 C156 0.930 . S
H166 C157 0.931 . S
H167 C158 0.930 . S
C168 C170 1.422 . S
C168 C172 1.415 . S
C168 N174 1.369 . S
C169 C170 1.421 . S
C169 C171 1.417 . S
C169 C181 1.441 . S
C170 C168 1.422 . S
C170 C169 1.421 . S
C170 N180 1.359 . S
C171 C169 1.417 . S
C171 C173 1.329 . S
C171 H190 0.930 . S
C172 C168 1.415 . S
C172 C173 1.437 . S
C172 C176 1.413 . S
C173 C171 1.329 . S
C173 C172 1.437 . S
C173 H195 0.929 . S
N174 C168 1.369 . S
N174 C175 1.338 . S
N174 Gd179 2.622 . S
C175 N174 1.338 . S
C175 C177 1.378 . S
C175 H187 0.929 . S
C176 C172 1.413 . S
C176 C177 1.348 . S
C176 H192 0.931 . S
C177 C175 1.378 . S
C177 C176 1.348 . S
C177 H193 0.930 . S
Gd178 N198 2.622 . S
Gd178 N205 2.570 . S
Gd178 O212 2.353 . S
Gd178 O213 2.468 . S
Gd178 O214 2.427 . S
Gd178 O216 2.388 . S
Gd178 O217 2.386 . S
Gd178 O221 2.307 1_556 S
Gd178 C231 2.805 . S
Gd179 N174 2.622 . S
Gd179 N180 2.570 . S
Gd179 O211 2.386 . S
Gd179 O215 2.307 1_554 S
Gd179 O218 2.353 . S
Gd179 O219 2.468 . S
Gd179 O220 2.427 . S
Gd179 O222 2.388 . S
Gd179 C243 2.805 . S
N180 C170 1.359 . S
N180 Gd179 2.570 . S
N180 C182 1.343 1_554 S
C181 C169 1.441 . S
C181 C183 1.311 1_554 S
C181 H189 0.923 1_554 S
C182 N180 1.343 1_556 S
C182 C183 1.390 . S
C182 H184 0.931 . S
C183 C181 1.311 1_556 S
C183 C182 1.390 . S
C183 H185 0.930 . S
H184 C182 0.931 . S
H185 C183 0.930 . S
H186 C209 0.931 . S
H187 C175 0.929 . S
H188 C210 0.930 . S
H189 C181 0.923 1_556 S
H190 C171 0.930 . S
H191 C200 0.929 . S
H192 C176 0.931 . S
H193 C177 0.930 . S
H194 C232 0.930 . S
H195 C173 0.929 . S
H196 C201 0.931 . S
H197 C202 0.930 . S
N198 Gd178 2.622 . S
N198 C199 1.369 . S
N198 C200 1.338 . S
C199 N198 1.369 . S
C199 C203 1.415 . S
C199 C206 1.422 . S
C200 H191 0.929 . S
C200 N198 1.338 . S
C200 C202 1.378 . S
C201 H196 0.931 . S
C201 C202 1.348 . S
C201 C203 1.413 . S
C202 H197 0.930 . S
C202 C200 1.378 . S
C202 C201 1.348 . S
C203 C199 1.415 . S
C203 C201 1.413 . S
C203 C233 1.437 . S
H204 C233 0.929 . S
N205 Gd178 2.570 . S
N205 C206 1.359 . S
N205 C209 1.343 1_556 S
C206 C199 1.422 . S
C206 N205 1.359 . S
C206 C208 1.421 . S
C207 C208 1.435 . S
C207 C210 1.314 1_556 S
C207 H234 0.925 1_556 S
C208 C206 1.421 . S
C208 C207 1.435 . S
C208 C232 1.417 . S
C209 H186 0.931 . S
C209 N205 1.343 1_554 S
C209 C210 1.390 . S
C210 H188 0.930 . S
C210 C207 1.314 1_554 S
C210 C209 1.390 . S
O211 Gd179 2.386 . S
O211 C223 1.265 . S
O212 Gd178 2.353 . S
O212 C223 1.242 1_556 S
O213 Gd178 2.468 . S
O213 C231 1.263 . S
O214 Gd178 2.427 . S
O214 C231 1.252 . S
O215 Gd179 2.307 1_556 S
O215 C224 1.261 . S
O216 Gd178 2.388 . S
O216 C224 1.252 . S
O217 Gd178 2.386 . S
O217 C235 1.265 . S
O218 Gd179 2.353 . S
O218 C235 1.242 1_554 S
O219 Gd179 2.468 . S
O219 C243 1.263 . S
O220 Gd179 2.427 . S
O220 C243 1.252 . S
O221 Gd178 2.307 1_554 S
O221 C236 1.261 . S
O222 Gd179 2.388 . S
O222 C236 1.252 . S
C223 O211 1.265 . S
C223 O212 1.242 1_554 S
C224 O215 1.261 . S
C224 O216 1.252 . S
C225 C228 1.394 . S
C225 C230 1.370 . S
C225 C231 1.500 . S
C226 C229 1.383 . S
C226 C230 1.395 . S
C227 C228 1.396 . S
C227 C229 1.365 . S
C227 H244 0.929 . S
C228 C225 1.394 . S
C228 C227 1.396 . S
C228 H245 0.930 . S
C229 C226 1.383 . S
C229 C227 1.365 . S
C229 H246 0.931 . S
C230 C225 1.370 . S
C230 C226 1.395 . S
C230 H247 0.930 1_556 S
C231 Gd178 2.805 . S
C231 O213 1.263 . S
C231 O214 1.252 . S
C231 C225 1.500 . S
C232 H194 0.930 . S
C232 C208 1.417 . S
C232 C233 1.329 . S
C233 C203 1.437 . S
C233 H204 0.929 . S
C233 C232 1.329 . S
H234 C207 0.925 1_554 S
C235 O217 1.265 . S
C235 O218 1.242 1_556 S
C236 O221 1.261 . S
C236 O222 1.252 . S
C237 C240 1.394 . S
C237 C242 1.370 . S
C237 C243 1.500 . S
C238 C241 1.383 . S
C238 C242 1.395 . S
C239 C240 1.396 . S
C239 C241 1.365 . S
C239 H248 0.929 . S
C240 C237 1.394 . S
C240 C239 1.396 . S
C240 H249 0.930 . S
C241 C238 1.383 . S
C241 C239 1.365 . S
C241 H250 0.931 . S
C242 C237 1.370 . S
C242 C238 1.395 . S
C242 H251 0.930 1_554 S
C243 Gd179 2.805 . S
C243 O219 1.263 . S
C243 O220 1.252 . S
C243 C237 1.500 . S
H244 C227 0.929 . S
H245 C228 0.930 . S
H246 C229 0.931 . S
H247 C230 0.930 1_554 S
H248 C239 0.929 . S
H249 C240 0.930 . S
H250 C241 0.931 . S
H251 C242 0.930 1_556 S
C252 C254 1.422 . S
C252 C256 1.415 . S
C252 N258 1.369 . S
C253 C254 1.421 . S
C253 C255 1.417 . S
C253 C265 1.422 . S
C254 C252 1.422 . S
C254 C253 1.421 . S
C254 N264 1.359 . S
C255 C253 1.417 . S
C255 C257 1.329 . S
C255 H274 0.930 . S
C256 C252 1.415 . S
C256 C257 1.437 . S
C256 C260 1.413 . S
C257 C255 1.329 . S
C257 C256 1.437 . S
C257 H279 0.929 . S
N258 C252 1.369 . S
N258 C259 1.338 . S
N258 Gd263 2.622 . S
C259 N258 1.338 . S
C259 C261 1.378 . S
C259 H271 0.929 . S
C260 C256 1.413 . S
C260 C261 1.348 . S
C260 H276 0.931 . S
C261 C259 1.378 . S
C261 C260 1.348 . S
C261 H277 0.930 . S
Gd262 N282 2.622 . S
Gd262 N289 2.570 . S
Gd262 O296 2.353 . S
Gd262 O297 2.468 . S
Gd262 O298 2.427 . S
Gd262 O300 2.388 . S
Gd262 O301 2.386 . S
Gd262 O305 2.307 . S
Gd262 C315 2.805 . S
Gd263 N258 2.622 . S
Gd263 N264 2.570 . S
Gd263 O295 2.386 . S
Gd263 O299 2.307 . S
Gd263 O302 2.353 . S
Gd263 O303 2.468 . S
Gd263 O304 2.427 . S
Gd263 O306 2.388 . S
Gd263 C327 2.805 . S
N264 C254 1.359 . S
N264 Gd263 2.570 . S
N264 C266 1.343 . S
C265 C253 1.422 . S
C265 C267 1.321 . S
C265 H273 0.931 . S
C266 N264 1.343 . S
C266 C267 1.390 . S
C266 H268 0.931 . S
C267 C265 1.321 . S
C267 C266 1.390 . S
C267 H269 0.930 . S
H268 C266 0.931 . S
H269 C267 0.930 . S
H270 C293 0.931 . S
H271 C259 0.929 . S
H272 C294 0.930 . S
H273 C265 0.931 . S
H274 C255 0.930 . S
H275 C284 0.929 . S
H276 C260 0.931 . S
H277 C261 0.930 . S
H278 C316 0.930 . S
H279 C257 0.929 . S
H280 C285 0.931 . S
H281 C286 0.930 . S
N282 Gd262 2.622 . S
N282 C283 1.369 . S
N282 C284 1.338 . S
C283 N282 1.369 . S
C283 C287 1.415 . S
C283 C290 1.422 . S
C284 H275 0.929 . S
C284 N282 1.338 . S
C284 C286 1.378 . S
C285 H280 0.931 . S
C285 C286 1.348 . S
C285 C287 1.413 . S
C286 H281 0.930 . S
C286 C284 1.378 . S
C286 C285 1.348 . S
C287 C283 1.415 . S
C287 C285 1.413 . S
C287 C317 1.437 . S
H288 C317 0.929 . S
N289 Gd262 2.570 . S
N289 C290 1.359 . S
N289 C293 1.343 . S
C290 C283 1.422 . S
C290 N289 1.359 . S
C290 C292 1.421 . S
C291 C292 1.422 . S
C291 C294 1.321 . S
C291 H318 0.931 . S
C292 C290 1.421 . S
C292 C291 1.422 . S
C292 C316 1.417 . S
C293 H270 0.931 . S
C293 N289 1.343 . S
C293 C294 1.390 . S
C294 H272 0.930 . S
C294 C291 1.321 . S
C294 C293 1.390 . S
O295 Gd263 2.386 . S
O295 C307 1.265 . S
O296 Gd262 2.353 . S
O296 C307 1.242 . S
O297 Gd262 2.468 . S
O297 C315 1.263 . S
O298 Gd262 2.427 . S
O298 C315 1.252 . S
O299 Gd263 2.307 . S
O299 C308 1.261 . S
O300 Gd262 2.388 . S
O300 C308 1.252 . S
O301 Gd262 2.386 . S
O301 C319 1.265 . S
O302 Gd263 2.353 . S
O302 C319 1.242 . S
O303 Gd263 2.468 . S
O303 C327 1.263 . S
O304 Gd263 2.427 . S
O304 C327 1.252 . S
O305 Gd262 2.307 . S
O305 C320 1.261 . S
O306 Gd263 2.388 . S
O306 C320 1.252 . S
C307 O295 1.265 . S
C307 O296 1.242 . S
C308 O299 1.261 . S
C308 O300 1.252 . S
C309 C312 1.394 . S
C309 C314 1.370 . S
C309 C315 1.500 . S
C310 C313 1.383 . S
C310 C314 1.395 . S
C311 C312 1.396 . S
C311 C313 1.365 . S
C311 H328 0.929 . S
C312 C309 1.394 . S
C312 C311 1.396 . S
C312 H329 0.930 . S
C313 C310 1.383 . S
C313 C311 1.365 . S
C313 H330 0.931 . S
C314 C309 1.370 . S
C314 C310 1.395 . S
C314 H331 0.930 . S
C315 Gd262 2.805 . S
C315 O297 1.263 . S
C315 O298 1.252 . S
C315 C309 1.500 . S
C316 H278 0.930 . S
C316 C292 1.417 . S
C316 C317 1.329 . S
C317 C287 1.437 . S
C317 H288 0.929 . S
C317 C316 1.329 . S
H318 C291 0.931 . S
C319 O301 1.265 . S
C319 O302 1.242 . S
C320 O305 1.261 . S
C320 O306 1.252 . S
C321 C324 1.394 . S
C321 C326 1.370 . S
C321 C327 1.500 . S
C322 C325 1.383 . S
C322 C326 1.395 . S
C323 C324 1.396 . S
C323 C325 1.365 . S
C323 H332 0.929 . S
C324 C321 1.394 . S
C324 C323 1.396 . S
C324 H333 0.930 . S
C325 C322 1.383 . S
C325 C323 1.365 . S
C325 H334 0.931 . S
C326 C321 1.370 . S
C326 C322 1.395 . S
C326 H335 0.930 . S
C327 Gd263 2.805 . S
C327 O303 1.263 . S
C327 O304 1.252 . S
C327 C321 1.500 . S
H328 C311 0.929 . S
H329 C312 0.930 . S
H330 C313 0.931 . S
H331 C314 0.930 . S
H332 C323 0.929 . S
H333 C324 0.930 . S
H334 C325 0.931 . S
H335 C326 0.930 . S
C336 C337 1.383 1_554 S
C336 C338 1.394 . S
C336 H352 0.931 . S
C337 C336 1.383 1_556 S
C337 C341 1.389 . S
C338 C336 1.394 . S
C338 C339 1.369 . S
C338 C342 1.531 . S
C339 C338 1.369 . S
C339 C340 1.410 1_554 S
C339 C347 1.503 . S
C340 C339 1.410 1_556 S
C340 C341 1.392 . S
C340 C343 1.511 . S
C341 C337 1.389 . S
C341 C340 1.392 . S
C341 H353 0.929 . S
C342 C338 1.531 . S
C342 H354 0.960 . S
C342 H355 0.962 . S
C342 H356 0.960 . S
C343 C340 1.511 . S
C343 H357 0.961 . S
C343 H358 0.961 . S
C343 H359 0.961 . S
C344 C345 1.370 1_556 S
C344 C346 1.363 . S
C344 H360 0.931 . S
C345 C344 1.370 1_554 S
C345 C349 1.408 . S
C346 C344 1.363 . S
C346 C347 1.370 1_556 S
C346 C350 1.524 . S
C347 C339 1.503 . S
C347 C346 1.370 1_554 S
C347 C348 1.403 . S
C348 C347 1.403 . S
C348 C349 1.404 . S
C348 C351 1.539 . S
C349 C345 1.408 . S
C349 C348 1.404 . S
C349 H361 0.930 . S
C350 C346 1.524 . S
C350 H362 0.956 1_556 S
C350 H363 0.961 . S
C350 H364 0.961 . S
C351 C348 1.539 . S
C351 H365 0.958 . S
C351 H366 0.961 . S
C351 H367 0.960 . S
H352 C336 0.931 . S
H353 C341 0.929 . S
H354 C342 0.960 . S
H355 C342 0.962 . S
H356 C342 0.960 . S
H357 C343 0.961 . S
H358 C343 0.961 . S
H359 C343 0.961 . S
H360 C344 0.931 . S
H361 C349 0.930 . S
H362 C350 0.956 1_554 S
H363 C350 0.961 . S
H364 C350 0.961 . S
H365 C351 0.958 . S
H366 C351 0.961 . S
H367 C351 0.960 . S
C368 C369 1.400 . S
C368 C370 1.394 . S
C368 H384 0.931 . S
C369 C368 1.400 . S
C369 C373 1.359 1_556 S
C370 C368 1.394 . S
C370 C371 1.369 . S
C370 C374 1.531 . S
C371 C370 1.369 . S
C371 C372 1.410 1_556 S
C371 C379 1.503 . S
C372 C371 1.410 1_554 S
C372 C373 1.392 . S
C372 C375 1.511 . S
C373 C369 1.359 1_554 S
C373 C372 1.392 . S
C373 H385 0.929 . S
C374 C370 1.531 . S
C374 H386 0.960 . S
C374 H387 0.962 . S
C374 H388 0.960 . S
C375 C372 1.511 . S
C375 H389 0.961 . S
C375 H390 0.961 . S
C375 H391 0.961 . S
C376 C377 1.370 1_554 S
C376 C378 1.363 . S
C376 H392 0.931 . S
C377 C376 1.370 1_556 S
C377 C381 1.408 . S
C378 C376 1.363 . S
C378 C379 1.370 1_554 S
C378 C382 1.524 . S
C379 C371 1.503 . S
C379 C378 1.370 1_556 S
C379 C380 1.403 . S
C380 C379 1.403 . S
C380 C381 1.404 . S
C380 C383 1.539 . S
C381 C377 1.408 . S
C381 C380 1.404 . S
C381 H393 0.930 . S
C382 C378 1.524 . S
C382 H394 0.956 . S
C382 H395 0.961 . S
C382 H396 0.961 . S
C383 C380 1.539 . S
C383 H397 0.958 . S
C383 H398 0.961 . S
C383 H399 0.960 . S
H384 C368 0.931 . S
H385 C373 0.929 . S
H386 C374 0.960 . S
H387 C374 0.962 . S
H388 C374 0.960 . S
H389 C375 0.961 . S
H390 C375 0.961 . S
H391 C375 0.961 . S
H392 C376 0.931 . S
H393 C381 0.930 . S
H394 C382 0.956 . S
H395 C382 0.961 . S
H396 C382 0.961 . S
H397 C383 0.958 . S
H398 C383 0.961 . S
H399 C383 0.960 . S
C400 C401 1.391 . S
C400 C402 1.394 . S
C400 H416 0.931 . S
C401 C400 1.391 . S
C401 C405 1.376 . S
C402 C400 1.394 . S
C402 C403 1.369 . S
C402 C406 1.531 . S
C403 C402 1.369 . S
C403 C404 1.410 . S
C403 C411 1.503 . S
C404 C403 1.410 . S
C404 C405 1.392 . S
C404 C407 1.511 . S
C405 C401 1.376 . S
C405 C404 1.392 . S
C405 H417 0.929 . S
C406 C402 1.531 . S
C406 H418 0.960 . S
C406 H419 0.962 . S
C406 H420 0.960 . S
C407 C404 1.511 . S
C407 H421 0.961 . S
C407 H422 0.961 . S
C407 H423 0.961 . S
C408 C409 1.370 . S
C408 C410 1.363 . S
C408 H424 0.931 . S
C409 C408 1.370 . S
C409 C413 1.408 . S
C410 C408 1.363 . S
C410 C411 1.370 . S
C410 C414 1.524 . S
C411 C403 1.503 . S
C411 C410 1.370 . S
C411 C412 1.403 . S
C412 C411 1.403 . S
C412 C413 1.404 . S
C412 C415 1.539 . S
C413 C409 1.408 . S
C413 C412 1.404 . S
C413 H425 0.930 . S
C414 C410 1.524 . S
C414 H426 0.956 . S
C414 H427 0.961 . S
C414 H428 0.961 . S
C415 C412 1.539 . S
C415 H429 0.958 . S
C415 H430 0.961 . S
C415 H431 0.960 . S
H416 C400 0.931 . S
H417 C405 0.929 . S
H418 C406 0.960 . S
H419 C406 0.962 . S
H420 C406 0.960 . S
H421 C407 0.961 . S
H422 C407 0.961 . S
H423 C407 0.961 . S
H424 C408 0.931 . S
H425 C413 0.930 . S
H426 C414 0.956 . S
H427 C414 0.961 . S
H428 C414 0.961 . S
H429 C415 0.958 . S
H430 C415 0.961 . S
H431 C415 0.960 . S
C432 C433 1.391 . S
C432 C434 1.394 . S
C432 H448 0.931 . S
C433 C432 1.391 . S
C433 C437 1.376 . S
C434 C432 1.394 . S
C434 C435 1.369 . S
C434 C438 1.531 . S
C435 C434 1.369 . S
C435 C436 1.410 . S
C435 C443 1.503 . S
C436 C435 1.410 . S
C436 C437 1.392 . S
C436 C439 1.511 . S
C437 C433 1.376 . S
C437 C436 1.392 . S
C437 H449 0.929 . S
C438 C434 1.531 . S
C438 H450 0.960 . S
C438 H451 0.962 . S
C438 H452 0.960 . S
C439 C436 1.511 . S
C439 H453 0.961 . S
C439 H454 0.961 . S
C439 H455 0.961 . S
C440 C441 1.370 . S
C440 C442 1.363 . S
C440 H456 0.931 . S
C441 C440 1.370 . S
C441 C445 1.408 . S
C442 C440 1.363 . S
C442 C443 1.370 . S
C442 C446 1.524 . S
C443 C435 1.503 . S
C443 C442 1.370 . S
C443 C444 1.403 . S
C444 C443 1.403 . S
C444 C445 1.404 . S
C444 C447 1.539 . S
C445 C441 1.408 . S
C445 C444 1.404 . S
C445 H457 0.930 . S
C446 C442 1.524 . S
C446 H458 0.956 . S
C446 H459 0.961 . S
C446 H460 0.961 . S
C447 C444 1.539 . S
C447 H461 0.958 . S
C447 H462 0.961 . S
C447 H463 0.960 . S
H448 C432 0.931 . S
H449 C437 0.929 . S
H450 C438 0.960 . S
H451 C438 0.962 . S
H452 C438 0.960 . S
H453 C439 0.961 . S
H454 C439 0.961 . S
H455 C439 0.961 . S
H456 C440 0.931 . S
H457 C445 0.930 . S
H458 C446 0.956 . S
H459 C446 0.961 . S
H460 C446 0.961 . S
H461 C447 0.958 . S
H462 C447 0.961 . S
H463 C447 0.960 . S
C464 C465 1.391 1_545 S
C464 C466 1.394 . S
C464 H480 0.931 . S
C465 C464 1.391 1_565 S
C465 C469 1.376 1_554 S
C466 C464 1.394 . S
C466 C467 1.369 1_545 S
C466 C470 1.531 . S
C467 C466 1.369 1_565 S
C467 C468 1.410 1_554 S
C467 C475 1.506 . S
C468 C467 1.410 1_556 S
C468 C469 1.392 . S
C468 C471 1.511 . S
C469 C465 1.376 1_556 S
C469 C468 1.392 . S
C469 H481 0.929 . S
C470 C466 1.531 . S
C470 H482 0.960 . S
C470 H483 0.962 . S
C470 H484 0.960 . S
C471 C468 1.511 . S
C471 H485 0.961 . S
C471 H486 0.961 . S
C471 H487 0.961 . S
C472 C473 1.370 1_556 S
C472 C474 1.363 . S
C472 H488 0.931 . S
C473 C472 1.370 1_554 S
C473 C477 1.408 1_545 S
C474 C472 1.363 . S
C474 C475 1.354 1_546 S
C474 C478 1.524 . S
C475 C467 1.506 . S
C475 C474 1.354 1_564 S
C475 C476 1.417 . S
C476 C475 1.417 . S
C476 C477 1.404 . S
C476 C479 1.539 . S
C477 C473 1.408 1_565 S
C477 C476 1.404 . S
C477 H489 0.930 . S
C478 C474 1.524 . S
C478 H490 0.956 . S
C478 H491 0.961 . S
C478 H492 0.961 . S
C479 C476 1.539 . S
C479 H493 0.958 . S
C479 H494 0.961 . S
C479 H495 0.960 . S
H480 C464 0.931 . S
H481 C469 0.929 . S
H482 C470 0.960 . S
H483 C470 0.962 . S
H484 C470 0.960 . S
H485 C471 0.961 . S
H486 C471 0.961 . S
H487 C471 0.961 . S
H488 C472 0.931 . S
H489 C477 0.930 . S
H490 C478 0.956 . S
H491 C478 0.961 . S
H492 C478 0.961 . S
H493 C479 0.958 . S
H494 C479 0.961 . S
H495 C479 0.960 . S
C496 C497 1.391 1_565 S
C496 C498 1.394 . S
C496 H512 0.931 . S
C497 C496 1.391 1_545 S
C497 C501 1.376 . S
C498 C496 1.394 . S
C498 C499 1.343 1_565 S
C498 C502 1.531 . S
C499 C498 1.343 1_545 S
C499 C500 1.437 . S
C499 C507 1.500 1_545 S
C500 C499 1.437 . S
C500 C501 1.392 . S
C500 C503 1.511 . S
C501 C497 1.376 . S
C501 C500 1.392 . S
C501 H513 0.929 . S
C502 C498 1.531 . S
C502 H514 0.960 . S
C502 H515 0.962 . S
C502 H516 0.960 . S
C503 C500 1.511 . S
C503 H517 0.961 . S
C503 H518 0.961 . S
C503 H519 0.961 . S
C504 C505 1.370 . S
C504 C506 1.363 . S
C504 H520 0.931 . S
C505 C504 1.370 . S
C505 C509 1.408 . S
C506 C504 1.363 . S
C506 C507 1.383 . S
C506 C510 1.524 . S
C507 C499 1.500 1_565 S
C507 C506 1.383 . S
C507 C508 1.399 . S
C508 C507 1.399 . S
C508 C509 1.405 . S
C508 C511 1.530 1_565 S
C509 C505 1.408 . S
C509 C508 1.405 . S
C509 H521 0.930 . S
C510 C506 1.524 . S
C510 H522 0.956 . S
C510 H523 0.961 1_565 S
C510 H524 0.961 . S
C511 C508 1.530 1_545 S
C511 H525 0.958 1_545 S
C511 H526 0.961 . S
C511 H527 0.960 . S
H512 C496 0.931 . S
H513 C501 0.929 . S
H514 C502 0.960 . S
H515 C502 0.962 . S
H516 C502 0.960 . S
H517 C503 0.961 . S
H518 C503 0.961 . S
H519 C503 0.961 . S
H520 C504 0.931 . S
H521 C509 0.930 . S
H522 C510 0.956 . S
H523 C510 0.961 1_545 S
H524 C510 0.961 . S
H525 C511 0.958 1_565 S
H526 C511 0.961 . S
H527 C511 0.960 . S
C528 C529 1.391 1_556 S
C528 C530 1.394 . S
C528 H544 0.931 . S
C529 C528 1.391 1_554 S
C529 C533 1.376 . S
C530 C528 1.394 . S
C530 C531 1.369 1_556 S
C530 C534 1.531 . S
C531 C530 1.369 1_554 S
C531 C532 1.410 . S
C531 C539 1.503 1_655 S
C532 C531 1.410 . S
C532 C533 1.392 . S
C532 C535 1.511 . S
C533 C529 1.376 . S
C533 C532 1.392 . S
C533 H545 0.929 . S
C534 C530 1.531 . S
C534 H546 0.967 . S
C534 H547 0.962 . S
C534 H548 0.960 . S
C535 C532 1.511 . S
C535 H549 0.961 . S
C535 H550 0.961 1_655 S
C535 H551 0.961 . S
C536 C537 1.370 1_556 S
C536 C538 1.363 . S
C536 H552 0.931 . S
C537 C536 1.370 1_554 S
C537 C541 1.408 . S
C538 C536 1.363 . S
C538 C539 1.370 1_556 S
C538 C542 1.524 . S
C539 C531 1.503 1_455 S
C539 C538 1.370 1_554 S
C539 C540 1.403 . S
C540 C539 1.403 . S
C540 C541 1.404 . S
C540 C543 1.539 . S
C541 C537 1.408 . S
C541 C540 1.404 . S
C541 H553 0.930 . S
C542 C538 1.524 . S
C542 H554 0.956 . S
C542 H555 0.961 . S
C542 H556 0.961 . S
C543 C540 1.539 . S
C543 H557 0.958 . S
C543 H558 0.961 . S
C543 H559 0.960 1_455 S
H544 C528 0.931 . S
H545 C533 0.929 . S
H546 C534 0.967 . S
H547 C534 0.962 . S
H548 C534 0.960 . S
H549 C535 0.961 . S
H550 C535 0.961 1_455 S
H551 C535 0.961 . S
H552 C536 0.931 . S
H553 C541 0.930 . S
H554 C542 0.956 . S
H555 C542 0.961 . S
H556 C542 0.961 . S
H557 C543 0.958 . S
H558 C543 0.961 . S
H559 C543 0.960 1_655 S
C560 C561 1.391 . S
C560 C562 1.394 . S
C560 H576 0.931 . S
C561 C560 1.391 . S
C561 C565 1.376 . S
C562 C560 1.394 . S
C562 C563 1.369 . S
C562 C566 1.531 . S
C563 C562 1.369 . S
C563 C564 1.410 . S
C563 C571 1.503 1_455 S
C564 C563 1.410 . S
C564 C565 1.392 . S
C564 C567 1.511 . S
C565 C561 1.376 . S
C565 C564 1.392 . S
C565 H577 0.929 . S
C566 C562 1.531 . S
C566 H578 0.960 1_455 S
C566 H579 0.962 . S
C566 H580 0.960 . S
C567 C564 1.511 . S
C567 H581 0.961 . S
C567 H582 0.961 1_455 S
C567 H583 0.961 . S
C568 C569 1.370 . S
C568 C570 1.363 . S
C568 H584 0.931 . S
C569 C568 1.370 . S
C569 C573 1.408 . S
C570 C568 1.363 . S
C570 C571 1.370 . S
C570 C574 1.524 . S
C571 C563 1.503 1_655 S
C571 C570 1.370 . S
C571 C572 1.403 . S
C572 C571 1.403 . S
C572 C573 1.404 . S
C572 C575 1.539 . S
C573 C569 1.408 . S
C573 C572 1.404 . S
C573 H585 0.930 . S
C574 C570 1.524 . S
C574 H586 0.956 1_655 S
C574 H587 0.961 1_655 S
C574 H588 0.961 . S
C575 C572 1.539 . S
C575 H589 0.958 . S
C575 H590 0.961 . S
C575 H591 0.960 . S
H576 C560 0.931 . S
H577 C565 0.929 . S
H578 C566 0.960 1_655 S
H579 C566 0.962 . S
H580 C566 0.960 . S
H581 C567 0.961 . S
H582 C567 0.961 1_655 S
H583 C567 0.961 . S
H584 C568 0.931 . S
H585 C573 0.930 . S
H586 C574 0.956 1_455 S
H587 C574 0.961 1_455 S
H588 C574 0.961 . S
H589 C575 0.958 . S
H590 C575 0.961 . S
H591 C575 0.960 . S
C592 C593 1.391 1_455 S
C592 C594 1.394 . S
C592 H608 0.931 . S
C593 C592 1.391 1_655 S
C593 C597 1.376 1_565 S
C594 C592 1.394 . S
C594 C595 1.369 1_455 S
C594 C598 1.531 . S
C595 C594 1.369 1_655 S
C595 C596 1.410 1_565 S
C595 C603 1.503 . S
C596 C595 1.410 1_545 S
C596 C597 1.392 . S
C596 C599 1.511 . S
C597 C593 1.376 1_545 S
C597 C596 1.392 . S
C597 H609 0.929 . S
C598 C594 1.531 . S
C598 H610 0.960 . S
C598 H611 0.962 . S
C598 H612 0.960 . S
C599 C596 1.511 . S
C599 H613 0.961 . S
C599 H614 0.961 . S
C599 H615 0.961 . S
C600 C601 1.359 1_445 S
C600 C602 1.363 . S
C600 H616 0.931 . S
C601 C600 1.359 1_665 S
C601 C605 1.442 . S
C602 C600 1.363 . S
C602 C603 1.370 1_445 S
C602 C606 1.524 . S
C603 C595 1.503 . S
C603 C602 1.370 1_665 S
C603 C604 1.403 . S
C604 C603 1.403 . S
C604 C605 1.404 . S
C604 C607 1.539 . S
C605 C601 1.442 . S
C605 C604 1.404 . S
C605 H617 0.930 . S
C606 C602 1.524 . S
C606 H618 0.956 . S
C606 H619 0.961 . S
C606 H620 0.961 . S
C607 C604 1.539 . S
C607 H621 0.958 . S
C607 H622 0.961 . S
C607 H623 0.960 . S
H608 C592 0.931 . S
H609 C597 0.929 . S
H610 C598 0.960 . S
H611 C598 0.962 . S
H612 C598 0.960 . S
H613 C599 0.961 . S
H614 C599 0.961 . S
H615 C599 0.961 . S
H616 C600 0.931 . S
H617 C605 0.930 . S
H618 C606 0.956 . S
H619 C606 0.961 . S
H620 C606 0.961 . S
H621 C607 0.958 . S
H622 C607 0.961 . S
H623 C607 0.960 . S
C624 C625 1.406 . S
C624 C626 1.394 . S
C624 H640 0.931 . S
C625 C624 1.406 . S
C625 C629 1.367 1_545 S
C626 C624 1.394 . S
C626 C627 1.377 . S
C626 C630 1.531 . S
C627 C626 1.377 . S
C627 C628 1.395 1_545 S
C627 C635 1.511 . S
C628 C627 1.395 1_565 S
C628 C629 1.392 . S
C628 C631 1.511 . S
C629 C625 1.367 1_565 S
C629 C628 1.392 . S
C629 H641 0.929 . S
C630 C626 1.531 . S
C630 H642 0.960 . S
C630 H643 0.962 1_455 S
C630 H644 0.960 . S
C631 C628 1.511 . S
C631 H645 0.961 1_455 S
C631 H646 0.961 1_455 S
C631 H647 0.961 . S
C632 C633 1.375 1_645 S
C632 C634 1.380 . S
C632 H648 0.931 . S
C633 C632 1.375 1_465 S
C633 C637 1.413 . S
C634 C632 1.380 . S
C634 C635 1.362 1_655 S
C634 C638 1.517 . S
C635 C627 1.511 . S
C635 C634 1.362 1_455 S
C635 C636 1.408 1_545 S
C636 C635 1.408 1_565 S
C636 C637 1.393 . S
C636 C639 1.546 . S
C637 C633 1.413 . S
C637 C636 1.393 . S
C637 H649 0.930 . S
C638 C634 1.517 . S
C638 H650 0.956 . S
C638 H651 0.961 1_545 S
C638 H652 0.962 1_545 S
C639 C636 1.546 . S
C639 H653 0.958 1_565 S
C639 H654 0.961 . S
C639 H655 0.960 . S
H640 C624 0.931 . S
H641 C629 0.929 . S
H642 C630 0.960 . S
H643 C630 0.962 1_655 S
H644 C630 0.960 . S
H645 C631 0.961 1_655 S
H646 C631 0.961 1_655 S
H647 C631 0.961 . S
H648 C632 0.931 . S
H649 C637 0.930 . S
H650 C638 0.956 . S
H651 C638 0.961 1_565 S
H652 C638 0.962 1_565 S
H653 C639 0.958 1_545 S
H654 C639 0.961 . S
H655 C639 0.960 . S
C656 C657 1.391 . S
C656 C658 1.394 . S
C656 H672 0.931 . S
C657 C656 1.391 . S
C657 C661 1.376 . S
C658 C656 1.394 . S
C658 C659 1.369 . S
C658 C662 1.531 . S
C659 C658 1.369 . S
C659 C660 1.410 . S
C659 C667 1.503 . S
C660 C659 1.410 . S
C660 C661 1.392 . S
C660 C663 1.511 . S
C661 C657 1.376 . S
C661 C660 1.392 . S
C661 H673 0.929 . S
C662 C658 1.531 . S
C662 H674 0.960 . S
C662 H675 0.962 . S
C662 H676 0.960 . S
C663 C660 1.511 . S
C663 H677 0.961 . S
C663 H678 0.961 . S
C663 H679 0.961 . S
C664 C665 1.370 . S
C664 C666 1.363 . S
C664 H680 0.931 . S
C665 C664 1.370 . S
C665 C669 1.408 . S
C666 C664 1.363 . S
C666 C667 1.370 . S
C666 C670 1.524 . S
C667 C659 1.503 . S
C667 C666 1.370 . S
C667 C668 1.403 . S
C668 C667 1.403 . S
C668 C669 1.404 . S
C668 C671 1.539 . S
C669 C665 1.408 . S
C669 C668 1.404 . S
C669 H681 0.930 . S
C670 C666 1.524 . S
C670 H682 0.956 . S
C670 H683 0.961 . S
C670 H684 0.961 . S
C671 C668 1.539 . S
C671 H685 0.958 . S
C671 H686 0.961 . S
C671 H687 0.960 . S
H672 C656 0.931 . S
H673 C661 0.929 . S
H674 C662 0.960 . S
H675 C662 0.962 . S
H676 C662 0.960 . S
H677 C663 0.961 . S
H678 C663 0.961 . S
H679 C663 0.961 . S
H680 C664 0.931 . S
H681 C669 0.930 . S
H682 C670 0.956 . S
H683 C670 0.961 . S
H684 C670 0.961 . S
H685 C671 0.958 . S
H686 C671 0.961 . S
H687 C671 0.960 . S
C688 C689 1.391 . S
C688 C690 1.394 . S
C688 H704 0.931 . S
C689 C688 1.391 . S
C689 C693 1.376 . S
C690 C688 1.394 . S
C690 C691 1.369 . S
C690 C694 1.531 . S
C691 C690 1.369 . S
C691 C692 1.410 . S
C691 C699 1.503 . S
C692 C691 1.410 . S
C692 C693 1.392 . S
C692 C695 1.511 . S
C693 C689 1.376 . S
C693 C692 1.392 . S
C693 H705 0.929 . S
C694 C690 1.531 . S
C694 H706 0.960 . S
C694 H707 0.962 . S
C694 H708 0.960 . S
C695 C692 1.511 . S
C695 H709 0.961 . S
C695 H710 0.961 . S
C695 H711 0.961 . S
C696 C697 1.370 . S
C696 C698 1.363 . S
C696 H712 0.931 . S
C697 C696 1.370 . S
C697 C701 1.408 . S
C698 C696 1.363 . S
C698 C699 1.370 . S
C698 C702 1.524 . S
C699 C691 1.503 . S
C699 C698 1.370 . S
C699 C700 1.403 . S
C700 C699 1.403 . S
C700 C701 1.404 . S
C700 C703 1.539 . S
C701 C697 1.408 . S
C701 C700 1.404 . S
C701 H713 0.930 . S
C702 C698 1.524 . S
C702 H714 0.956 . S
C702 H715 0.961 . S
C702 H716 0.961 . S
C703 C700 1.539 . S
C703 H717 0.958 . S
C703 H718 0.961 . S
C703 H719 0.960 . S
H704 C688 0.931 . S
H705 C693 0.929 . S
H706 C694 0.960 . S
H707 C694 0.962 . S
H708 C694 0.960 . S
H709 C695 0.961 . S
H710 C695 0.961 . S
H711 C695 0.961 . S
H712 C696 0.931 . S
H713 C701 0.930 . S
H714 C702 0.956 . S
H715 C702 0.961 . S
H716 C702 0.961 . S
H717 C703 0.958 . S
H718 C703 0.961 . S
H719 C703 0.960 . S
C337 C238 1.371 1_556 S
C345 C58 1.413 1_554 S
C369 C226 1.391 . S
C377 C70 1.409 1_556 S
C401 C142 1.442 . S
C409 C322 1.381 . S
C433 C154 1.426 . S
C441 C310 1.402 . S
C465 C55 1.966 . S
C473 C67 1.975 1_554 S
C497 C139 1.965 . S
C505 C151 1.976 . S
C529 C223 1.963 . S
C537 C235 1.977 1_554 S
C561 C319 1.976 . S
C569 C307 1.972 . S
C593 C152 1.455 . S
C601 C68 1.451 1_565 S
C625 C56 1.453 1_545 S
C633 C140 1.466 1_565 S
C657 C320 1.467 . S
C665 C236 1.483 . S
C689 C308 1.486 . S
C697 C224 1.487 . S
