# Generated by pormake.
# Topology vbm, (6)-cn, num edge types: 1
# Building blocks:
#     Node 0, Type 0, BuildingBlock: FUNLAD_clean_sbu_0, # of connection points: 6
#     Node 1, Type 0, BuildingBlock: FUNLAD_clean_sbu_0, # of connection points: 6
#     Node 2, Type 0, BuildingBlock: FUNLAD_clean_sbu_0, # of connection points: 6
#     Node 3, Type 0, BuildingBlock: FUNLAD_clean_sbu_0, # of connection points: 6
#     Node 4, Type 0, BuildingBlock: FUNLAD_clean_sbu_0, # of connection points: 6
#     Node 5, Type 0, BuildingBlock: FUNLAD_clean_sbu_0, # of connection points: 6
#     Node 6, Type 0, BuildingBlock: FUNLAD_clean_sbu_0, # of connection points: 6
#     Node 7, Type 0, BuildingBlock: FUNLAD_clean_sbu_0, # of connection points: 6
#     Node 8, Type 0, BuildingBlock: FUNLAD_clean_sbu_0, # of connection points: 6
#     Node 9, Type 0, BuildingBlock: FUNLAD_clean_sbu_0, # of connection points: 6
#     Node 10, Type 0, BuildingBlock: FUNLAD_clean_sbu_0, # of connection points: 6
#     Node 11, Type 0, BuildingBlock: FUNLAD_clean_sbu_0, # of connection points: 6
#     Node 12, Type 0, BuildingBlock: FUNLAD_clean_sbu_0, # of connection points: 6
#     Node 13, Type 0, BuildingBlock: FUNLAD_clean_sbu_0, # of connection points: 6
#     Node 14, Type 0, BuildingBlock: FUNLAD_clean_sbu_0, # of connection points: 6
#     Node 15, Type 0, BuildingBlock: FUNLAD_clean_sbu_0, # of connection points: 6
#     Edge 16, Type (0, 0), BuildingBlock: XIVTED_clean_linker_0, # of connection points: 2
#     Edge 17, Type (0, 0), BuildingBlock: XIVTED_clean_linker_0, # of connection points: 2
#     Edge 18, Type (0, 0), BuildingBlock: XIVTED_clean_linker_0, # of connection points: 2
#     Edge 19, Type (0, 0), BuildingBlock: XIVTED_clean_linker_0, # of connection points: 2
#     Edge 20, Type (0, 0), BuildingBlock: XIVTED_clean_linker_0, # of connection points: 2
#     Edge 21, Type (0, 0), BuildingBlock: XIVTED_clean_linker_0, # of connection points: 2
#     Edge 22, Type (0, 0), BuildingBlock: XIVTED_clean_linker_0, # of connection points: 2
#     Edge 23, Type (0, 0), BuildingBlock: XIVTED_clean_linker_0, # of connection points: 2
#     Edge 24, Type (0, 0), BuildingBlock: XIVTED_clean_linker_0, # of connection points: 2
#     Edge 25, Type (0, 0), BuildingBlock: XIVTED_clean_linker_0, # of connection points: 2
#     Edge 26, Type (0, 0), BuildingBlock: XIVTED_clean_linker_0, # of connection points: 2
#     Edge 27, Type (0, 0), BuildingBlock: XIVTED_clean_linker_0, # of connection points: 2
#     Edge 28, Type (0, 0), BuildingBlock: XIVTED_clean_linker_0, # of connection points: 2
#     Edge 29, Type (0, 0), BuildingBlock: XIVTED_clean_linker_0, # of connection points: 2
#     Edge 30, Type (0, 0), BuildingBlock: XIVTED_clean_linker_0, # of connection points: 2
#     Edge 31, Type (0, 0), BuildingBlock: XIVTED_clean_linker_0, # of connection points: 2
#     Edge 32, Type (0, 0), BuildingBlock: XIVTED_clean_linker_0, # of connection points: 2
#     Edge 33, Type (0, 0), BuildingBlock: XIVTED_clean_linker_0, # of connection points: 2
#     Edge 34, Type (0, 0), BuildingBlock: XIVTED_clean_linker_0, # of connection points: 2
#     Edge 35, Type (0, 0), BuildingBlock: XIVTED_clean_linker_0, # of connection points: 2
#     Edge 36, Type (0, 0), BuildingBlock: XIVTED_clean_linker_0, # of connection points: 2
#     Edge 37, Type (0, 0), BuildingBlock: XIVTED_clean_linker_0, # of connection points: 2
#     Edge 38, Type (0, 0), BuildingBlock: XIVTED_clean_linker_0, # of connection points: 2
#     Edge 39, Type (0, 0), BuildingBlock: XIVTED_clean_linker_0, # of connection points: 2
#     Edge 40, Type (0, 0), BuildingBlock: XIVTED_clean_linker_0, # of connection points: 2
#     Edge 41, Type (0, 0), BuildingBlock: XIVTED_clean_linker_0, # of connection points: 2
#     Edge 42, Type (0, 0), BuildingBlock: XIVTED_clean_linker_0, # of connection points: 2
#     Edge 43, Type (0, 0), BuildingBlock: XIVTED_clean_linker_0, # of connection points: 2
#     Edge 44, Type (0, 0), BuildingBlock: XIVTED_clean_linker_0, # of connection points: 2
#     Edge 45, Type (0, 0), BuildingBlock: XIVTED_clean_linker_0, # of connection points: 2
#     Edge 46, Type (0, 0), BuildingBlock: XIVTED_clean_linker_0, # of connection points: 2
#     Edge 47, Type (0, 0), BuildingBlock: XIVTED_clean_linker_0, # of connection points: 2
#     Edge 48, Type (0, 0), BuildingBlock: XIVTED_clean_linker_0, # of connection points: 2
#     Edge 49, Type (0, 0), BuildingBlock: XIVTED_clean_linker_0, # of connection points: 2
#     Edge 50, Type (0, 0), BuildingBlock: XIVTED_clean_linker_0, # of connection points: 2
#     Edge 51, Type (0, 0), BuildingBlock: XIVTED_clean_linker_0, # of connection points: 2
#     Edge 52, Type (0, 0), BuildingBlock: XIVTED_clean_linker_0, # of connection points: 2
#     Edge 53, Type (0, 0), BuildingBlock: XIVTED_clean_linker_0, # of connection points: 2
#     Edge 54, Type (0, 0), BuildingBlock: XIVTED_clean_linker_0, # of connection points: 2
#     Edge 55, Type (0, 0), BuildingBlock: XIVTED_clean_linker_0, # of connection points: 2
#     Edge 56, Type (0, 0), BuildingBlock: XIVTED_clean_linker_0, # of connection points: 2
#     Edge 57, Type (0, 0), BuildingBlock: XIVTED_clean_linker_0, # of connection points: 2
#     Edge 58, Type (0, 0), BuildingBlock: XIVTED_clean_linker_0, # of connection points: 2
#     Edge 59, Type (0, 0), BuildingBlock: XIVTED_clean_linker_0, # of connection points: 2
#     Edge 60, Type (0, 0), BuildingBlock: XIVTED_clean_linker_0, # of connection points: 2
#     Edge 61, Type (0, 0), BuildingBlock: XIVTED_clean_linker_0, # of connection points: 2
#     Edge 62, Type (0, 0), BuildingBlock: XIVTED_clean_linker_0, # of connection points: 2
#     Edge 63, Type (0, 0), BuildingBlock: XIVTED_clean_linker_0, # of connection points: 2
# Relax obj value: 0.031
# Max RMSD: 0.081
# Mean RMSD: 0.081
data_MOF--net-vbm--node1-FUNLAD_clean_sbu_0--edge1-XIVTED_clean_linker_0
_symmetry_space_group_name_H-M    P1
_symmetry_Int_Tables_number       1
_symmetry_cell_setting            triclinic
loop_
_symmetry_equiv_pos_as_xyz
'x, y, z'
_cell_length_a     58.627953
_cell_length_b     15.325913
_cell_length_c     87.667234
_cell_angle_alpha  90.020499
_cell_angle_beta   89.993064
_cell_angle_gamma 90.094991
loop_
_atom_site_label
_atom_site_type_symbol
_atom_site_fract_x
_atom_site_fract_y
_atom_site_fract_z
_atom_type_partial_charge
C0 C 0.12208 0.20012 0.13433 0.0
N1 N 0.1278 0.02466 0.09805 0.0
C2 C 0.11144 0.07036 0.09051 0.0
C3 C 0.11108 0.07192 0.07457 0.0
C4 C 0.12774 0.02611 0.06629 0.0
C5 C 0.14441 -0.02055 0.07441 0.0
C6 C 0.14412 -0.0204 0.09034 0.0
Zn7 Zn 0.12801 0.02359 0.12142 0.0
C8 C 0.17417 0.05592 0.13401 0.0
N9 N 0.12861 0.0217 0.17023 0.0
C10 C 0.11297 0.06823 0.17832 0.0
C11 C 0.14422 0.97043 0.17739 0.0
C12 C 0.14423 0.96312 0.19326 0.0
C13 C 0.12814 0.00959 0.20189 0.0
C14 C 0.11251 0.06343 0.19424 0.0
Zn15 Zn 0.12828 0.02429 0.14688 0.0
O16 O 0.12298 0.15835 0.12184 0.0
C17 C 0.08186 -0.00162 0.1344 0.0
O18 O 0.12356 0.15942 0.14691 0.0
H19 H 0.15659 0.93432 0.17077 0.0
H20 H 0.09866 0.10598 0.09685 0.0
H21 H 0.10064 0.10827 0.1724 0.0
O22 O 0.0925 0.003 0.1218 0.0
O23 O 0.09281 0.00489 0.14685 0.0
H24 H 0.15694 0.94349 0.09655 0.0
O25 O 0.133 0.8893 0.14641 0.0
O26 O 0.13304 0.88851 0.12137 0.0
O27 O 0.16364 0.04593 0.14655 0.0
O28 O 0.16346 0.04673 0.12151 0.0
C29 C 0.13424 0.84765 0.13393 0.0
H30 H 0.09808 0.10968 0.06881 0.0
H31 H 0.1574 0.94226 0.06852 0.0
H32 H 0.15677 0.9218 0.19872 0.0
H33 H 0.09972 0.09981 0.20047 0.0
C34 C 0.87156 0.74699 0.13478 0.0
N35 N 0.86523 0.92233 0.09856 0.0
C36 C 0.88155 0.87669 0.09095 0.0
C37 C 0.8819 0.87565 0.07502 0.0
C38 C 0.86526 0.92193 0.06681 0.0
C39 C 0.84858 0.96824 0.07498 0.0
C40 C 0.84889 0.96759 0.09091 0.0
Zn41 Zn 0.86535 0.92358 0.1219 0.0
C42 C 0.81948 0.8913 0.13482 0.0
N43 N 0.86569 0.92567 0.17071 0.0
C44 C 0.88142 0.87932 0.17874 0.0
C45 C 0.85013 -0.02304 0.17793 0.0
C46 C 0.85026 -0.01554 0.19379 0.0
C47 C 0.86644 0.93815 0.20236 0.0
C48 C 0.88202 0.88431 0.19466 0.0
Zn49 Zn 0.86567 0.92277 0.14735 0.0
O50 O 0.87034 0.78875 0.1223 0.0
C51 C 0.9118 0.94864 0.13444 0.0
O52 O 0.8704 0.7877 0.14737 0.0
H53 H 0.83768 0.01289 0.17136 0.0
H54 H 0.89435 0.84091 0.09725 0.0
H55 H 0.89369 0.83925 0.17277 0.0
O56 O 0.9008 0.94401 0.12198 0.0
O57 O 0.90121 0.94219 0.14703 0.0
H58 H 0.83611 0.00365 0.09717 0.0
O59 O 0.86094 0.05781 0.14689 0.0
O60 O 0.86036 0.05861 0.12186 0.0
O61 O 0.83025 0.90096 0.14728 0.0
O62 O 0.82997 0.90076 0.12225 0.0
C63 C 0.85943 0.09947 0.13444 0.0
H64 H 0.8949 0.83811 0.06921 0.0
H65 H 0.83561 0.00571 0.06913 0.0
H66 H 0.83775 0.02575 0.1993 0.0
H67 H 0.89487 0.84802 0.20084 0.0
C68 C 0.1216 0.74692 0.38302 0.0
N69 N 0.12717 0.92021 0.41966 0.0
C70 C 0.11076 0.8741 0.42713 0.0
C71 C 0.11023 0.87253 0.44306 0.0
C72 C 0.12676 0.91875 0.45141 0.0
C73 C 0.14353 0.96559 0.44338 0.0
C74 C 0.14341 0.96546 0.42745 0.0
Zn75 Zn 0.12747 0.92258 0.39631 0.0
C76 C 0.17365 0.892 0.38375 0.0
N77 N 0.12814 0.92777 0.34752 0.0
C78 C 0.11255 0.88125 0.33937 0.0
C79 C 0.14375 -0.02039 0.34043 0.0
C80 C 0.14382 -0.01262 0.32457 0.0
C81 C 0.1278 0.94079 0.31588 0.0
C82 C 0.11215 0.8865 0.32345 0.0
Zn83 Zn 0.12777 0.92378 0.37086 0.0
O84 O 0.12252 0.78769 0.39562 0.0
C85 C 0.08132 0.94798 0.38337 0.0
O86 O 0.12304 0.78866 0.37055 0.0
H87 H 0.15608 0.01569 0.34711 0.0
H88 H 0.09805 0.83837 0.42072 0.0
H89 H 0.10022 0.84077 0.34522 0.0
O90 O 0.09198 0.94244 0.39595 0.0
O91 O 0.09225 0.94273 0.3709 0.0
H92 H 0.15626 0.00192 0.4213 0.0
O93 O 0.13247 0.05885 0.37162 0.0
O94 O 0.13242 0.05768 0.39665 0.0
O95 O 0.16318 0.90246 0.3712 0.0
O96 O 0.16287 0.90033 0.39624 0.0
C97 C 0.13365 0.09954 0.38419 0.0
H98 H 0.09716 0.83464 0.44876 0.0
H99 H 0.15642 0.00309 0.44933 0.0
H100 H 0.15637 0.02906 0.31916 0.0
H101 H 0.0994 0.85003 0.31717 0.0
C102 C 0.87109 0.1982 0.38392 0.0
N103 N 0.86496 0.02271 0.42016 0.0
C104 C 0.88128 0.06871 0.42774 0.0
C105 C 0.88167 0.06979 0.44367 0.0
C106 C 0.86512 0.02304 0.45191 0.0
C107 C 0.84845 -0.0237 0.44377 0.0
C108 C 0.84868 -0.02294 0.42784 0.0
Zn109 Zn 0.86495 0.02153 0.39681 0.0
C110 C 0.81898 0.05344 0.38401 0.0
N111 N 0.865 0.01954 0.34799 0.0
C112 C 0.88075 0.06609 0.33999 0.0
C113 C 0.84946 0.96805 0.34076 0.0
C114 C 0.84966 0.96053 0.32489 0.0
C115 C 0.86587 0.00702 0.31635 0.0
C116 C 0.88142 0.06109 0.32407 0.0
Zn117 Zn 0.86504 0.02232 0.37135 0.0
O118 O 0.86998 0.15642 0.3964 0.0
C119 C 0.91128 -0.00319 0.38412 0.0
O120 O 0.86981 0.15746 0.37134 0.0
H121 H 0.837 0.93193 0.34732 0.0
H122 H 0.89409 0.1044 0.42142 0.0
H123 H 0.89302 0.10629 0.34597 0.0
O124 O 0.9004 0.00138 0.39663 0.0
O125 O 0.90057 0.00318 0.37158 0.0
H126 H 0.83582 0.94113 0.42159 0.0
O127 O 0.86028 0.88723 0.37181 0.0
O128 O 0.85993 0.88644 0.39684 0.0
O129 O 0.82963 0.04383 0.37151 0.0
O130 O 0.82957 0.04408 0.39655 0.0
C131 C 0.85888 0.84556 0.38427 0.0
H132 H 0.89501 0.10583 0.44945 0.0
H133 H 0.83519 0.9403 0.44963 0.0
H134 H 0.83717 0.91905 0.31937 0.0
H135 H 0.8943 0.0975 0.31791 0.0
C136 C 0.8578 0.10398 0.88477 0.0
N137 N 0.86401 0.93216 0.84817 0.0
C138 C 0.84783 -0.01923 0.84101 0.0
C139 C 0.84768 -0.01224 0.82514 0.0
C140 C 0.86431 0.94418 0.81648 0.0
C141 C 0.88069 0.89377 0.82417 0.0
C142 C 0.88023 0.88865 0.84009 0.0
Zn143 Zn 0.86408 0.92826 0.87151 0.0
C144 C 0.9103 0.95385 0.88435 0.0
N145 N 0.86389 0.92482 0.92029 0.0
C146 C 0.84751 0.96979 0.92797 0.0
C147 C 0.88017 0.87891 0.92788 0.0
C148 C 0.88042 0.87722 0.94381 0.0
C149 C 0.86373 0.92313 0.95204 0.0
C150 C 0.84711 0.9698 0.94389 0.0
Zn151 Zn 0.86398 0.92716 0.89695 0.0
O152 O 0.85913 0.06324 0.8722 0.0
C153 C 0.81803 0.89505 0.88411 0.0
O154 O 0.85894 0.06218 0.89723 0.0
H155 H 0.893 0.8434 0.92156 0.0
H156 H 0.83514 0.01511 0.84764 0.0
H157 H 0.83476 0.00608 0.92172 0.0
O158 O 0.82868 0.90549 0.87162 0.0
O159 O 0.82862 0.90413 0.89665 0.0
H160 H 0.89292 0.85029 0.84601 0.0
O161 O 0.86901 0.79229 0.89629 0.0
O162 O 0.86904 0.79329 0.87122 0.0
O163 O 0.89944 0.9478 0.89685 0.0
O164 O 0.89957 0.94853 0.8718 0.0
C165 C 0.87023 0.75154 0.8837 0.0
H166 H 0.83492 0.02838 0.81975 0.0
H167 H 0.89365 0.85815 0.81797 0.0
H168 H 0.89339 0.83946 0.9496 0.0
H169 H 0.8341 0.00705 0.94975 0.0
C170 C 0.13266 0.85035 0.88417 0.0
N171 N 0.1271 0.02215 0.84751 0.0
C172 C 0.14266 0.97043 0.84039 0.0
C173 C 0.14274 0.96299 0.82452 0.0
C174 C 0.12678 0.0098 0.81585 0.0
C175 C 0.11116 0.06391 0.82347 0.0
C176 C 0.11155 0.06883 0.83939 0.0
Zn177 Zn 0.12681 0.026 0.87088 0.0
C178 C 0.08039 0.00171 0.88348 0.0
N179 N 0.12644 0.02948 0.91971 0.0
C180 C 0.14272 -0.01574 0.92744 0.0
C181 C 0.11009 0.07534 0.92726 0.0
C182 C 0.10966 0.07664 0.94319 0.0
C183 C 0.12624 0.03043 0.95147 0.0
C184 C 0.14294 -0.01612 0.94336 0.0
Zn185 Zn 0.1266 0.02728 0.89635 0.0
O186 O 0.13144 0.89097 0.8716 0.0
C187 C 0.17275 0.05801 0.88369 0.0
O188 O 0.13149 0.89225 0.89663 0.0
H189 H 0.09735 0.11105 0.92091 0.0
H190 H 0.15496 0.93424 0.84704 0.0
H191 H 0.15552 0.948 0.92123 0.0
O192 O 0.16223 0.04745 0.87115 0.0
O193 O 0.16201 0.04971 0.89619 0.0
H194 H 0.09926 0.10923 0.84527 0.0
O195 O 0.12172 0.16212 0.89569 0.0
O196 O 0.12215 0.16106 0.87062 0.0
O197 O 0.0911 0.00726 0.89604 0.0
O198 O 0.09129 0.00695 0.87099 0.0
C199 C 0.12077 0.20283 0.88309 0.0
H200 H 0.15526 0.92144 0.81909 0.0
H201 H 0.09846 0.10054 0.81721 0.0
H202 H 0.09664 0.11432 0.94896 0.0
H203 H 0.15586 0.94638 0.94925 0.0
C204 C 0.85872 0.84965 0.63396 0.0
N205 N 0.86418 0.02175 0.67058 0.0
C206 C 0.84781 0.97317 0.67758 0.0
C207 C 0.84727 0.96639 0.69345 0.0
C208 C 0.86371 0.01013 0.70227 0.0
C209 C 0.88032 0.06046 0.69473 0.0
C210 C 0.88024 0.06538 0.67881 0.0
Zn211 Zn 0.86475 0.02547 0.64724 0.0
C212 C 0.9112 0.00051 0.63481 0.0
N213 N 0.86544 0.02859 0.59845 0.0
C214 C 0.84924 -0.01697 0.59068 0.0
C215 C 0.88181 0.07478 0.59095 0.0
C216 C 0.88231 0.07616 0.57502 0.0
C217 C 0.86583 0.02947 0.5667 0.0
C218 C 0.84912 -0.01744 0.57476 0.0
Zn219 Zn 0.86509 0.02654 0.62179 0.0
O220 O 0.8598 0.89042 0.64654 0.0
C221 C 0.81891 0.0579 0.63424 0.0
O222 O 0.86011 0.89144 0.62151 0.0
H223 H 0.89456 0.1104 0.59734 0.0
H224 H 0.83525 0.93871 0.67084 0.0
H225 H 0.83634 0.94694 0.59685 0.0
O226 O 0.82936 0.04787 0.64681 0.0
O227 O 0.82969 0.04885 0.62178 0.0
H228 H 0.89309 0.10372 0.67301 0.0
O229 O 0.87005 0.1615 0.62247 0.0
O230 O 0.86972 0.16048 0.64754 0.0
O231 O 0.90057 0.00656 0.62223 0.0
O232 O 0.90024 0.00555 0.64728 0.0
C233 C 0.87109 0.20225 0.63507 0.0
H234 H 0.83435 0.92582 0.69872 0.0
H235 H 0.89315 0.09618 0.70106 0.0
H236 H 0.89568 0.11237 0.56929 0.0
H237 H 0.83589 0.94665 0.56883 0.0
C238 C 0.13363 0.10282 0.63345 0.0
N239 N 0.12777 0.93094 0.67011 0.0
C240 C 0.14335 -0.0174 0.67727 0.0
C241 C 0.14332 -0.00986 0.69314 0.0
C242 C 0.12724 0.94348 0.70177 0.0
C243 C 0.1116 0.88943 0.69412 0.0
C244 C 0.1121 0.88442 0.6782 0.0
Zn245 Zn 0.1276 0.92697 0.64675 0.0
C246 C 0.08125 0.9514 0.63403 0.0
N247 N 0.12746 0.92351 0.59794 0.0
C248 C 0.14379 0.96873 0.59024 0.0
C249 C 0.11118 0.87714 0.59039 0.0
C250 C 0.11093 0.87514 0.57445 0.0
C251 C 0.1276 0.92117 0.56619 0.0
C252 C 0.14419 0.96843 0.57432 0.0
Zn253 Zn 0.1275 0.92596 0.62129 0.0
O254 O 0.13241 0.06209 0.64602 0.0
C255 C 0.17358 0.89504 0.63398 0.0
O256 O 0.13242 0.061 0.62099 0.0
H257 H 0.09839 0.84144 0.59673 0.0
H258 H 0.15574 0.01868 0.67065 0.0
H259 H 0.15653 0.00539 0.59646 0.0
O260 O 0.16305 0.90506 0.64652 0.0
O261 O 0.16286 0.90397 0.62149 0.0
H262 H 0.0998 0.84407 0.67229 0.0
O263 O 0.12259 0.79097 0.62196 0.0
O264 O 0.12277 0.79195 0.64703 0.0
O265 O 0.09205 0.94568 0.62151 0.0
O266 O 0.09204 0.94629 0.64656 0.0
C267 C 0.1215 0.7502 0.63455 0.0
H268 H 0.15586 0.03165 0.69861 0.0
H269 H 0.0988 0.85292 0.70034 0.0
H270 H 0.09799 0.83696 0.56868 0.0
H271 H 0.15717 0.00582 0.56844 0.0
C272 C 0.62196 0.6985 0.13556 0.0
N273 N 0.62753 0.52492 0.09896 0.0
C274 C 0.61123 0.57108 0.09143 0.0
C275 C 0.61089 0.57293 0.0755 0.0
C276 C 0.62751 0.52695 0.06721 0.0
C277 C 0.6441 0.47982 0.0753 0.0
C278 C 0.64379 0.47968 0.09122 0.0
Zn279 Zn 0.62785 0.52283 0.12229 0.0
C280 C 0.67407 0.55442 0.1347 0.0
N281 N 0.6288 0.51815 0.17106 0.0
C282 C 0.61275 0.56169 0.17928 0.0
C283 C 0.64514 0.46967 0.17807 0.0
C284 C 0.64565 0.46288 0.19394 0.0
C285 C 0.6292 0.50649 0.20274 0.0
C286 C 0.61264 0.55675 0.1952 0.0
Zn287 Zn 0.62824 0.52182 0.14773 0.0
O288 O 0.62297 0.65775 0.12296 0.0
C289 C 0.58175 0.49681 0.13532 0.0
O290 O 0.62333 0.65676 0.14803 0.0
H291 H 0.6577 0.43529 0.17133 0.0
H292 H 0.5985 0.6068 0.0978 0.0
H293 H 0.59993 0.59995 0.17347 0.0
O294 O 0.59237 0.50286 0.12273 0.0
O295 O 0.59274 0.50174 0.14778 0.0
H296 H 0.65656 0.44317 0.09742 0.0
O297 O 0.63314 0.38682 0.14703 0.0
O298 O 0.63272 0.38779 0.122 0.0
O299 O 0.66365 0.54447 0.14729 0.0
O300 O 0.66323 0.54519 0.12226 0.0
C301 C 0.63415 0.34604 0.13446 0.0
H302 H 0.59794 0.61098 0.06975 0.0
H303 H 0.65705 0.44245 0.0694 0.0
H304 H 0.65854 0.42238 0.19922 0.0
H305 H 0.5998 0.59238 0.20152 0.0
C306 C 0.37148 0.25085 0.13446 0.0
N307 N 0.36572 0.4267 0.09825 0.0
C308 C 0.38211 0.38099 0.09072 0.0
C309 C 0.38261 0.37996 0.07479 0.0
C310 C 0.36607 0.4263 0.06651 0.0
C311 C 0.34935 0.47283 0.0746 0.0
C312 C 0.3495 0.47217 0.09053 0.0
Zn313 Zn 0.36541 0.42754 0.12158 0.0
C314 C 0.31931 0.39456 0.13402 0.0
N315 N 0.36478 0.42901 0.17037 0.0
C316 C 0.38094 0.38549 0.17849 0.0
C317 C 0.3485 0.47731 0.17749 0.0
C318 C 0.34821 0.48416 0.19336 0.0
C319 C 0.36481 0.44076 0.20206 0.0
C320 C 0.38126 0.39046 0.19441 0.0
Zn321 Zn 0.36522 0.42652 0.14702 0.0
O322 O 0.37037 0.29261 0.12197 0.0
C323 C 0.4116 0.4529 0.13451 0.0
O324 O 0.37018 0.29157 0.14704 0.0
H325 H 0.33586 0.51171 0.17083 0.0
H326 H 0.3948 0.34506 0.09707 0.0
H327 H 0.39372 0.34739 0.1726 0.0
O328 O 0.40084 0.44784 0.12197 0.0
O329 O 0.40076 0.44679 0.14702 0.0
H330 H 0.33666 0.50828 0.09673 0.0
O331 O 0.36027 0.56154 0.1466 0.0
O332 O 0.36045 0.56255 0.12157 0.0
O333 O 0.32981 0.40366 0.1466 0.0
O334 O 0.33005 0.40487 0.12156 0.0
C335 C 0.35912 0.6033 0.13414 0.0
H336 H 0.39564 0.34229 0.06903 0.0
H337 H 0.33645 0.51039 0.0687 0.0
H338 H 0.33539 0.5247 0.19872 0.0
H339 H 0.3942 0.35497 0.20065 0.0
C340 C 0.62142 0.24504 0.38404 0.0
N341 N 0.62732 0.41828 0.42066 0.0
C342 C 0.61095 0.37188 0.42811 0.0
C343 C 0.61043 0.37005 0.44404 0.0
C344 C 0.62691 0.41648 0.4524 0.0
C345 C 0.64363 0.46363 0.44439 0.0
C346 C 0.64352 0.46362 0.42846 0.0
Zn347 Zn 0.62757 0.42078 0.39734 0.0
C348 C 0.67364 0.38915 0.38476 0.0
N349 N 0.62808 0.42581 0.34858 0.0
C350 C 0.61192 0.38231 0.34042 0.0
C351 C 0.64434 0.47463 0.34151 0.0
C352 C 0.64463 0.48192 0.32564 0.0
C353 C 0.62805 0.43842 0.3169 0.0
C354 C 0.6116 0.38771 0.3245 0.0
Zn355 Zn 0.62771 0.42179 0.3719 0.0
O356 O 0.62257 0.28581 0.39663 0.0
C357 C 0.58137 0.44705 0.3845 0.0
O358 O 0.6227 0.2868 0.37156 0.0
H359 H 0.65699 0.50897 0.3482 0.0
H360 H 0.59819 0.33645 0.42169 0.0
H361 H 0.59916 0.34379 0.34626 0.0
O362 O 0.59213 0.44095 0.39703 0.0
O363 O 0.5922 0.4419 0.37198 0.0
H364 H 0.65642 0.49988 0.42232 0.0
O365 O 0.63271 0.55685 0.37264 0.0
O366 O 0.63259 0.55586 0.39767 0.0
O367 O 0.66311 0.39917 0.37222 0.0
O368 O 0.66293 0.39836 0.39725 0.0
C369 C 0.63389 0.59764 0.38521 0.0
H370 H 0.59706 0.33369 0.44973 0.0
H371 H 0.65685 0.49938 0.45035 0.0
H372 H 0.65745 0.52274 0.32032 0.0
H373 H 0.59867 0.35213 0.31823 0.0
C374 C 0.37141 0.70133 0.38377 0.0
N375 N 0.36583 0.52572 0.42005 0.0
C376 C 0.3823 0.57154 0.42752 0.0
C377 C 0.38288 0.57295 0.44345 0.0
C378 C 0.36633 0.52688 0.4518 0.0
C379 C 0.34954 0.48013 0.44378 0.0
C380 C 0.34961 0.48041 0.42785 0.0
Zn381 Zn 0.36533 0.52467 0.3967 0.0
C382 C 0.31916 0.55735 0.38439 0.0
N383 N 0.3643 0.52285 0.34791 0.0
C384 C 0.38039 0.56633 0.33969 0.0
C385 C 0.34787 0.47458 0.34089 0.0
C386 C 0.34732 0.46783 0.32502 0.0
C387 C 0.36383 0.51127 0.31621 0.0
C388 C 0.38047 0.56142 0.32376 0.0
Zn389 Zn 0.36497 0.52551 0.37126 0.0
O390 O 0.37038 0.6596 0.39626 0.0
C391 C 0.41141 0.49924 0.38356 0.0
O392 O 0.36999 0.66055 0.37119 0.0
H393 H 0.33529 0.4402 0.34763 0.0
H394 H 0.39499 0.60735 0.42111 0.0
H395 H 0.39329 0.60439 0.34549 0.0
O396 O 0.40077 0.50438 0.39616 0.0
O397 O 0.40046 0.50537 0.37111 0.0
H398 H 0.33671 0.4442 0.4217 0.0
O399 O 0.35996 0.39047 0.37172 0.0
O400 O 0.36027 0.38956 0.39676 0.0
O401 O 0.32961 0.54807 0.37181 0.0
O402 O 0.32994 0.54735 0.39684 0.0
C403 C 0.35886 0.34874 0.3842 0.0
H404 H 0.39597 0.61077 0.44914 0.0
H405 H 0.33663 0.44275 0.44973 0.0
H406 H 0.33437 0.4274 0.31975 0.0
H407 H 0.39335 0.59691 0.31743 0.0
C408 C 0.35829 0.60181 0.88409 0.0
N409 N 0.36396 0.42714 0.84792 0.0
C410 C 0.34772 0.47542 0.84076 0.0
C411 C 0.34748 0.48196 0.82489 0.0
C412 C 0.36409 0.43827 0.81624 0.0
C413 C 0.3805 0.38802 0.82393 0.0
C414 C 0.38012 0.38335 0.83985 0.0
Zn415 Zn 0.36432 0.42501 0.87125 0.0
C416 C 0.41072 0.45124 0.88374 0.0
N417 N 0.36476 0.42555 0.92002 0.0
C418 C 0.34848 0.47118 0.92766 0.0
C419 C 0.38107 0.3799 0.92763 0.0
C420 C 0.3814 0.37902 0.94356 0.0
C421 C 0.36477 0.42545 0.95176 0.0
C422 C 0.34816 0.472 0.94358 0.0
Zn423 Zn 0.36456 0.42603 0.89669 0.0
O424 O 0.35941 0.56002 0.87163 0.0
C425 C 0.31842 0.3933 0.8842 0.0
O426 O 0.35963 0.56108 0.89666 0.0
H427 H 0.39382 0.34385 0.92133 0.0
H428 H 0.33507 0.51003 0.84739 0.0
H429 H 0.33571 0.50724 0.92139 0.0
O430 O 0.32894 0.40242 0.87163 0.0
O431 O 0.32915 0.40341 0.89666 0.0
H432 H 0.39287 0.34529 0.84577 0.0
O433 O 0.3695 0.29113 0.89634 0.0
O434 O 0.36924 0.29004 0.87127 0.0
O435 O 0.40004 0.44622 0.89631 0.0
O436 O 0.39981 0.44515 0.87127 0.0
C437 C 0.37057 0.24935 0.88386 0.0
H438 H 0.33469 0.52247 0.8195 0.0
H439 H 0.39344 0.35233 0.81772 0.0
H440 H 0.39436 0.34135 0.94938 0.0
H441 H 0.33521 0.50965 0.94942 0.0
C442 C 0.63328 0.34643 0.88522 0.0
N443 N 0.6274 0.51811 0.84859 0.0
C444 C 0.64358 0.46934 0.84147 0.0
C445 C 0.64377 0.46204 0.8256 0.0
C446 C 0.62716 0.50547 0.81691 0.0
C447 C 0.61079 0.55614 0.82457 0.0
C448 C 0.61121 0.56155 0.84048 0.0
Zn449 Zn 0.62714 0.52216 0.87193 0.0
C450 C 0.58083 0.49686 0.88461 0.0
N451 N 0.62688 0.52579 0.92071 0.0
C452 C 0.64311 0.48071 0.9285 0.0
C453 C 0.61051 0.57189 0.92818 0.0
C454 C 0.61 0.57363 0.9441 0.0
C455 C 0.62652 0.5276 0.95245 0.0
C456 C 0.64325 0.48076 0.94442 0.0
Zn457 Zn 0.62707 0.52324 0.89737 0.0
O458 O 0.63208 0.38716 0.87265 0.0
C459 C 0.67312 0.55508 0.88473 0.0
O460 O 0.63201 0.38823 0.89769 0.0
H461 H 0.5978 0.60748 0.92177 0.0
H462 H 0.65625 0.43505 0.84813 0.0
H463 H 0.65594 0.44426 0.92234 0.0
O464 O 0.66256 0.54498 0.87219 0.0
O465 O 0.66243 0.54581 0.89723 0.0
H466 H 0.59851 0.60003 0.84637 0.0
O467 O 0.62214 0.65817 0.89668 0.0
O468 O 0.62219 0.65709 0.87161 0.0
O469 O 0.59162 0.50297 0.89712 0.0
O470 O 0.59163 0.50192 0.87208 0.0
C471 C 0.62097 0.69887 0.88409 0.0
H472 H 0.65653 0.42126 0.82024 0.0
H473 H 0.59784 0.59168 0.81834 0.0
H474 H 0.59696 0.61152 0.94981 0.0
H475 H 0.65614 0.44342 0.95038 0.0
C476 C 0.35831 0.34857 0.63383 0.0
N477 N 0.36385 0.52032 0.67045 0.0
C478 C 0.34748 0.4716 0.67743 0.0
C479 C 0.34695 0.46441 0.69328 0.0
C480 C 0.36341 0.5079 0.70212 0.0
C481 C 0.38002 0.55842 0.69462 0.0
C482 C 0.37992 0.56375 0.6787 0.0
Zn483 Zn 0.36439 0.52427 0.64713 0.0
C484 C 0.41085 0.49912 0.63471 0.0
N485 N 0.36505 0.52772 0.59834 0.0
C486 C 0.3487 0.48265 0.59063 0.0
C487 C 0.38144 0.57353 0.5908 0.0
C488 C 0.3818 0.5751 0.57486 0.0
C489 C 0.3651 0.52921 0.56659 0.0
C490 C 0.3484 0.48253 0.5747 0.0
Zn491 Zn 0.36477 0.52557 0.62169 0.0
O492 O 0.35945 0.38927 0.64641 0.0
C493 C 0.31859 0.55727 0.63421 0.0
O494 O 0.35967 0.39044 0.62138 0.0
H495 H 0.39424 0.60911 0.59715 0.0
H496 H 0.33491 0.4373 0.67066 0.0
H497 H 0.33587 0.44641 0.59684 0.0
O498 O 0.32905 0.54657 0.64675 0.0
O499 O 0.32935 0.54859 0.62172 0.0
H500 H 0.39277 0.6022 0.67293 0.0
O501 O 0.36987 0.66044 0.62238 0.0
O502 O 0.36936 0.65936 0.64745 0.0
O503 O 0.40028 0.50509 0.6221 0.0
O504 O 0.39984 0.50438 0.64716 0.0
C505 C 0.37083 0.70116 0.63498 0.0
H506 H 0.33404 0.42371 0.69853 0.0
H507 H 0.39286 0.59394 0.70098 0.0
H508 H 0.39483 0.61284 0.56909 0.0
H509 H 0.3354 0.44523 0.56882 0.0
C510 C 0.63338 0.59959 0.63442 0.0
N511 N 0.62734 0.42772 0.671 0.0
C512 C 0.64369 0.47621 0.67805 0.0
C513 C 0.64416 0.48286 0.69392 0.0
C514 C 0.62768 0.43907 0.70269 0.0
C515 C 0.61107 0.38897 0.69511 0.0
C516 C 0.61122 0.38417 0.67918 0.0
Zn517 Zn 0.62708 0.4238 0.64766 0.0
C518 C 0.58089 0.44875 0.63485 0.0
N519 N 0.62724 0.42048 0.59889 0.0
C520 C 0.64351 0.46617 0.59121 0.0
C521 C 0.61095 0.37434 0.59131 0.0
C522 C 0.61056 0.37328 0.57538 0.0
C523 C 0.62709 0.42024 0.56715 0.0
C524 C 0.64375 0.46696 0.57529 0.0
Zn525 Zn 0.62726 0.42267 0.62222 0.0
O526 O 0.63203 0.55887 0.64698 0.0
C527 C 0.67319 0.39132 0.63498 0.0
O528 O 0.63226 0.55775 0.62195 0.0
H529 H 0.59813 0.33864 0.59763 0.0
H530 H 0.6563 0.51061 0.67135 0.0
H531 H 0.65635 0.50222 0.59746 0.0
O532 O 0.66252 0.40143 0.64746 0.0
O533 O 0.66261 0.40027 0.62243 0.0
H534 H 0.59839 0.34589 0.67335 0.0
O535 O 0.62226 0.28771 0.62287 0.0
O536 O 0.62213 0.2888 0.64794 0.0
O537 O 0.59182 0.44276 0.62238 0.0
O538 O 0.59154 0.44364 0.64743 0.0
C539 C 0.62099 0.247 0.63546 0.0
H540 H 0.65708 0.52328 0.69923 0.0
H541 H 0.5982 0.35325 0.7014 0.0
H542 H 0.59724 0.33721 0.56958 0.0
H543 H 0.65701 0.50306 0.56943 0.0
H544 H 0.20101 0.09337 0.15866 0.0
H545 H 0.29303 0.35474 0.10918 0.0
H546 H 0.19969 0.10708 0.10945 0.0
H547 H 0.2933 0.34513 0.15843 0.0
H548 H 0.25838 0.26642 0.10903 0.0
H549 H 0.23568 0.18139 0.15871 0.0
C550 C 0.20822 0.11363 0.14784 0.0
C551 C 0.19736 0.09325 0.13403 0.0
C552 C 0.26593 0.28421 0.11988 0.0
C553 C 0.23677 0.19555 0.13403 0.0
C554 C 0.2856 0.33535 0.11998 0.0
C555 C 0.29615 0.35697 0.13384 0.0
C556 C 0.25679 0.25435 0.13373 0.0
C557 C 0.28578 0.32986 0.14747 0.0
C558 C 0.22791 0.16462 0.14789 0.0
C559 C 0.20747 0.12137 0.12037 0.0
N560 N 0.26676 0.27932 0.14706 0.0
N561 N 0.22652 0.17174 0.12073 0.0
H562 H 0.79326 0.85031 0.15962 0.0
H563 H 0.70019 0.5959 0.10989 0.0
H564 H 0.79332 0.84393 0.11035 0.0
H565 H 0.70031 0.60146 0.15915 0.0
H566 H 0.73492 0.68366 0.10984 0.0
H567 H 0.75852 0.7626 0.15965 0.0
C568 C 0.78576 0.83175 0.14879 0.0
C569 C 0.79629 0.85408 0.13496 0.0
C570 C 0.72744 0.66513 0.12066 0.0
C571 C 0.7568 0.75216 0.13493 0.0
C572 C 0.70772 0.61429 0.1207 0.0
C573 C 0.69725 0.59171 0.13455 0.0
C574 C 0.73673 0.69369 0.13456 0.0
C575 C 0.70777 0.61752 0.14821 0.0
C576 C 0.76604 0.78094 0.14883 0.0
C577 C 0.78582 0.82806 0.12129 0.0
N578 N 0.72684 0.66778 0.14787 0.0
N579 N 0.76674 0.77784 0.12163 0.0
H580 H 0.29311 0.59975 0.40921 0.0
H581 H 0.20039 0.8527 0.35914 0.0
H582 H 0.2929 0.60332 0.35993 0.0
H583 H 0.19935 0.84397 0.40839 0.0
H584 H 0.23518 0.76578 0.35929 0.0
H585 H 0.25836 0.68713 0.40917 0.0
C586 C 0.28555 0.61762 0.39837 0.0
C587 C 0.29599 0.59458 0.38455 0.0
C588 C 0.22744 0.78341 0.37007 0.0
C589 C 0.25652 0.6961 0.38444 0.0
C590 C 0.20768 0.83379 0.37 0.0
C591 C 0.19687 0.85522 0.38378 0.0
C592 C 0.23642 0.7542 0.384 0.0
C593 C 0.20708 0.82877 0.39749 0.0
C594 C 0.26582 0.66822 0.39837 0.0
C595 C 0.28546 0.61976 0.37087 0.0
N596 N 0.2262 0.77901 0.39725 0.0
N597 N 0.2664 0.66979 0.37117 0.0
H598 H 0.79258 0.09443 0.35932 0.0
H599 H 0.69997 0.34768 0.40946 0.0
H600 H 0.793 0.10038 0.40859 0.0
H601 H 0.69963 0.34223 0.3602 0.0
H602 H 0.73467 0.26019 0.40935 0.0
H603 H 0.75784 0.18177 0.35944 0.0
C604 C 0.78516 0.11282 0.37017 0.0
C605 C 0.79579 0.09047 0.38397 0.0
C606 C 0.7271 0.27868 0.39856 0.0
C607 C 0.75631 0.19197 0.38416 0.0
C608 C 0.70739 0.32936 0.39861 0.0
C609 C 0.69681 0.35192 0.38481 0.0
C610 C 0.73625 0.25024 0.38462 0.0
C611 C 0.70718 0.3262 0.37111 0.0
C612 C 0.76544 0.16342 0.37023 0.0
C613 C 0.78543 0.11627 0.39768 0.0
N614 N 0.72624 0.27609 0.37136 0.0
N615 N 0.76635 0.16629 0.39742 0.0
H616 H 0.69953 0.5964 0.90941 0.0
H617 H 0.79177 0.85319 0.85937 0.0
H618 H 0.69899 0.60296 0.86015 0.0
H619 H 0.79205 0.84733 0.90863 0.0
H620 H 0.75717 0.76458 0.85943 0.0
H621 H 0.73414 0.68482 0.90931 0.0
C622 C 0.7069 0.61516 0.89856 0.0
C623 C 0.69627 0.59267 0.88476 0.0
C624 C 0.76471 0.78324 0.87023 0.0
C625 C 0.73561 0.69541 0.88459 0.0
C626 C 0.78435 0.83456 0.87021 0.0
C627 C 0.79489 0.8573 0.88402 0.0
C628 C 0.75559 0.75437 0.88415 0.0
C629 C 0.78453 0.83115 0.89771 0.0
C630 C 0.72655 0.66637 0.89852 0.0
C631 C 0.70658 0.61894 0.87106 0.0
N632 N 0.76555 0.78044 0.89742 0.0
N633 N 0.72558 0.66957 0.87132 0.0
H634 H 0.29218 0.35208 0.90898 0.0
H635 H 0.19944 0.0972 0.85903 0.0
H636 H 0.29229 0.34614 0.85971 0.0
H637 H 0.19854 0.10639 0.90828 0.0
H638 H 0.23427 0.18435 0.85912 0.0
H639 H 0.25738 0.26458 0.90896 0.0
C640 C 0.28468 0.33366 0.89815 0.0
C641 C 0.29523 0.35606 0.88432 0.0
C642 C 0.22655 0.16676 0.86991 0.0
C643 C 0.2557 0.25441 0.88424 0.0
C644 C 0.20677 0.11626 0.86988 0.0
C645 C 0.19599 0.09489 0.88367 0.0
C646 C 0.23558 0.19618 0.88383 0.0
C647 C 0.20625 0.12153 0.89737 0.0
C648 C 0.26493 0.28299 0.89815 0.0
C649 C 0.28478 0.3302 0.87064 0.0
N650 N 0.22539 0.17142 0.89709 0.0
N651 N 0.26568 0.28011 0.87095 0.0
H652 H 0.69945 0.34953 0.6597 0.0
H653 H 0.79275 0.10028 0.6095 0.0
H654 H 0.69932 0.34545 0.61043 0.0
H655 H 0.79266 0.10319 0.65878 0.0
H656 H 0.75792 0.18709 0.60962 0.0
H657 H 0.73428 0.26273 0.65957 0.0
C658 C 0.70695 0.33166 0.64884 0.0
C659 C 0.69638 0.35439 0.63505 0.0
C660 C 0.76543 0.16818 0.62041 0.0
C661 C 0.73597 0.25353 0.63484 0.0
C662 C 0.78521 0.1179 0.62035 0.0
C663 C 0.79571 0.09483 0.63415 0.0
C664 C 0.75612 0.1957 0.63436 0.0
C665 C 0.78518 0.11965 0.64786 0.0
C666 C 0.72672 0.28137 0.64878 0.0
C667 C 0.70685 0.32923 0.62134 0.0
N668 N 0.76606 0.16938 0.64761 0.0
N669 N 0.72598 0.27953 0.62158 0.0
H670 H 0.20012 0.85623 0.60924 0.0
H671 H 0.29178 0.59506 0.65886 0.0
H672 H 0.19937 0.84558 0.65848 0.0
H673 H 0.29315 0.60852 0.60965 0.0
H674 H 0.25719 0.68314 0.65888 0.0
H675 H 0.23477 0.7684 0.60918 0.0
C676 C 0.20745 0.8367 0.62006 0.0
C677 C 0.19675 0.85788 0.63389 0.0
C678 C 0.26496 0.66629 0.64807 0.0
C679 C 0.23613 0.7558 0.63388 0.0
C680 C 0.2846 0.61528 0.64804 0.0
C681 C 0.29545 0.59478 0.63423 0.0
C682 C 0.25612 0.69714 0.63421 0.0
C683 C 0.28538 0.62289 0.62057 0.0
C684 C 0.22712 0.78585 0.62 0.0
C685 C 0.20701 0.83067 0.64754 0.0
N686 N 0.26637 0.67327 0.62091 0.0
N687 N 0.22603 0.78037 0.64718 0.0
H688 H 0.12324 0.8116 0.29445 0.0
H689 H 0.1234 0.13886 0.22328 0.0
H690 H 0.13114 0.09037 0.29895 0.0
H691 H 0.13139 0.8602 0.21884 0.0
H692 H 0.12271 0.1224 0.25106 0.0
H693 H 0.1227 0.82816 0.26668 0.0
C694 C 0.12476 0.87631 0.28959 0.0
C695 C 0.1273 0.94969 0.29902 0.0
C696 C 0.12464 0.06488 0.244 0.0
C697 C 0.12673 0.96915 0.26727 0.0
C698 C 0.1249 0.0742 0.22816 0.0
C699 C 0.12753 0.00082 0.21874 0.0
C700 C 0.12678 -0.01853 0.25049 0.0
C701 C 0.12962 0.91863 0.22568 0.0
C702 C 0.12458 0.88569 0.27375 0.0
C703 C 0.12942 0.03194 0.2921 0.0
N704 N 0.12913 0.91115 0.24112 0.0
N705 N 0.12902 0.03949 0.27666 0.0
H706 H 0.87088 0.1362 0.29498 0.0
H707 H 0.87128 0.80897 0.22374 0.0
H708 H 0.86279 0.85748 0.29938 0.0
H709 H 0.86327 0.08761 0.21932 0.0
H710 H 0.87191 0.82547 0.25152 0.0
H711 H 0.87182 0.11964 0.2672 0.0
C712 C 0.86941 0.0715 0.29009 0.0
C713 C 0.86668 -0.00186 0.29949 0.0
C714 C 0.87 0.88297 0.24447 0.0
C715 C 0.86771 -0.02132 0.26775 0.0
C716 C 0.86978 0.87363 0.22862 0.0
C717 C 0.86714 0.94699 0.21921 0.0
C718 C 0.86781 0.96638 0.25096 0.0
C719 C 0.86505 0.02919 0.22615 0.0
C720 C 0.86982 0.06212 0.27425 0.0
C721 C 0.86464 0.91589 0.29255 0.0
N722 N 0.86548 0.03669 0.2416 0.0
N723 N 0.86526 0.90836 0.27711 0.0
H724 H 0.82683 0.00742 0.72156 0.0
H725 H 0.90149 0.9598 0.79758 0.0
H726 H 0.90039 -0.00533 0.7216 0.0
H727 H 0.82792 0.94764 0.79677 0.0
H728 H 0.90155 -0.02416 0.76985 0.0
H729 H 0.827 -0.01013 0.74922 0.0
C730 C 0.84304 0.00055 0.72736 0.0
C731 C 0.86363 0.00226 0.71918 0.0
C732 C 0.88539 0.96956 0.77575 0.0
C733 C 0.86395 -0.01696 0.75097 0.0
C734 C 0.88535 0.95982 0.79158 0.0
C735 C 0.86466 0.95236 0.79957 0.0
C736 C 0.86461 0.97202 0.76779 0.0
C737 C 0.84427 0.95441 0.79116 0.0
C738 C 0.84312 -0.00908 0.74319 0.0
C739 C 0.88411 -0.00523 0.72741 0.0
N740 N 0.84477 0.9641 0.77576 0.0
N741 N 0.88374 -0.01464 0.74283 0.0
H742 H 0.12235 0.13953 0.79453 0.0
H743 H 0.12247 0.81385 0.72309 0.0
H744 H 0.13008 0.86068 0.79879 0.0
H745 H 0.13061 0.09263 0.71884 0.0
H746 H 0.12177 0.82978 0.75087 0.0
H747 H 0.1219 0.12366 0.76674 0.0
C748 C 0.12384 0.07495 0.78961 0.0
C749 C 0.12632 0.00134 0.79898 0.0
C750 C 0.12374 0.88744 0.74386 0.0
C751 C 0.12584 -0.01732 0.76721 0.0
C752 C 0.124 0.87844 0.72801 0.0
C753 C 0.12666 0.952 0.71864 0.0
C754 C 0.12591 0.97073 0.75041 0.0
C755 C 0.12881 0.03406 0.72564 0.0
C756 C 0.12372 0.06597 0.77376 0.0
C757 C 0.12841 0.91928 0.79199 0.0
N758 N 0.12832 0.04125 0.74109 0.0
N759 N 0.12806 0.91213 0.77654 0.0
H760 H 0.59098 0.4544 0.29794 0.0
H761 H 0.66601 0.50393 0.22209 0.0
H762 H 0.66455 0.44264 0.29728 0.0
H763 H 0.59244 0.49052 0.222 0.0
H764 H 0.66572 0.48602 0.24974 0.0
H765 H 0.59107 0.47109 0.27023 0.0
C766 C 0.60716 0.45464 0.29197 0.0
C767 C 0.6278 0.44706 0.3 0.0
C768 C 0.64963 0.48702 0.24368 0.0
C769 C 0.62802 0.4675 0.26824 0.0
C770 C 0.64978 0.49686 0.22786 0.0
C771 C 0.62922 0.49847 0.21965 0.0
C772 C 0.62876 0.47883 0.25142 0.0
C773 C 0.60871 0.4907 0.22784 0.0
C774 C 0.6072 0.46476 0.27614 0.0
C775 C 0.64823 0.44946 0.29164 0.0
N776 N 0.60901 0.48108 0.24325 0.0
N777 N 0.64782 0.4595 0.27624 0.0
H778 H 0.32702 0.50843 0.29686 0.0
H779 H 0.40193 0.45696 0.221 0.0
H780 H 0.40057 0.49493 0.29695 0.0
H781 H 0.32835 0.44461 0.22173 0.0
H782 H 0.40189 0.4742 0.24871 0.0
H783 H 0.32728 0.48964 0.26922 0.0
C784 C 0.34324 0.50117 0.29109 0.0
C785 C 0.36381 0.503 0.2993 0.0
C786 C 0.38575 0.46761 0.24281 0.0
C787 C 0.36423 0.48232 0.26754 0.0
C788 C 0.38576 0.45715 0.22698 0.0
C789 C 0.3651 0.44931 0.21897 0.0
C790 C 0.36494 0.47043 0.25073 0.0
C791 C 0.34469 0.45165 0.22736 0.0
C792 C 0.34338 0.49081 0.27528 0.0
C793 C 0.38431 0.49496 0.29111 0.0
N794 N 0.34513 0.46206 0.24275 0.0
N795 N 0.38399 0.48484 0.27571 0.0
H796 H 0.40126 0.45422 0.79735 0.0
H797 H 0.32656 0.5048 0.72142 0.0
H798 H 0.3277 0.44156 0.79653 0.0
H799 H 0.40012 0.49154 0.7214 0.0
H800 H 0.32676 0.48604 0.74906 0.0
H801 H 0.40131 0.47106 0.76964 0.0
C802 C 0.38512 0.45426 0.79135 0.0
C803 C 0.36444 0.44648 0.79933 0.0
C804 C 0.34287 0.48724 0.74302 0.0
C805 C 0.36437 0.4671 0.76758 0.0
C806 C 0.34277 0.49758 0.72721 0.0
C807 C 0.36336 0.49947 0.71902 0.0
C808 C 0.3637 0.47885 0.75077 0.0
C809 C 0.38384 0.4915 0.72723 0.0
C810 C 0.38516 0.46447 0.77552 0.0
C811 C 0.34405 0.44858 0.79093 0.0
N812 N 0.38349 0.48141 0.74263 0.0
N813 N 0.34454 0.45876 0.77554 0.0
H814 H 0.58996 0.48959 0.79803 0.0
H815 H 0.66455 0.44104 0.72198 0.0
H816 H 0.66354 0.50127 0.79719 0.0
H817 H 0.591 0.45447 0.72204 0.0
H818 H 0.6644 0.45839 0.74964 0.0
H819 H 0.58988 0.47313 0.77031 0.0
C820 C 0.6061 0.48937 0.79203 0.0
C821 C 0.6268 0.49687 0.8 0.0
C822 C 0.64828 0.45752 0.74362 0.0
C823 C 0.62682 0.4767 0.76823 0.0
C824 C 0.64835 0.44801 0.72779 0.0
C825 C 0.62775 0.44661 0.71961 0.0
C826 C 0.62746 0.46559 0.75141 0.0
C827 C 0.60729 0.45418 0.72785 0.0
C828 C 0.60604 0.47938 0.77619 0.0
C829 C 0.64718 0.4945 0.79159 0.0
N830 N 0.60766 0.46349 0.74327 0.0
N831 N 0.64667 0.4846 0.77619 0.0
H832 H 0.08936 0.02042 0.97071 0.0
H833 H 0.16451 0.03743 0.047 0.0
H834 H 0.16281 0.04044 0.97097 0.0
H835 H 0.09106 0.01719 0.04685 0.0
H836 H 0.1642 0.03809 0.01915 0.0
H837 H 0.08958 0.02036 0.99858 0.0
C838 C 0.10553 0.02536 0.97662 0.0
C839 C 0.1261 0.0305 0.96845 0.0
C840 C 0.14814 0.03353 0.0252 0.0
C841 C 0.12649 0.02952 1.00042 0.0
C842 C 0.14831 0.03262 0.04113 0.0
C843 C 0.12778 0.02712 0.04932 0.0
C844 C 0.12729 0.02882 0.01735 0.0
C845 C 0.10729 0.02261 0.04104 0.0
C846 C 0.10565 0.02479 0.99255 0.0
C847 C 0.14656 0.03525 0.97675 0.0
N848 N 0.10758 0.02344 0.02553 0.0
N849 N 0.14622 0.03472 0.99226 0.0
H850 H 0.82693 0.91199 0.97131 0.0
H851 H 0.90207 0.93271 0.04755 0.0
H852 H 0.90037 0.93293 0.97147 0.0
H853 H 0.82864 0.91155 0.04737 0.0
H854 H 0.90181 0.93211 0.01969 0.0
H855 H 0.82721 0.91249 0.99916 0.0
C856 C 0.84312 0.91715 0.97719 0.0
C857 C 0.86366 0.92252 0.969 0.0
C858 C 0.88575 0.92759 0.02574 0.0
C859 C 0.86411 0.92222 1.00096 0.0
C860 C 0.88589 0.92742 0.04166 0.0
C861 C 0.86535 0.92204 0.04985 0.0
C862 C 0.86491 0.92224 0.01789 0.0
C863 C 0.84488 0.91687 0.04157 0.0
C864 C 0.84327 0.91694 0.99311 0.0
C865 C 0.88413 0.92758 0.97728 0.0
N866 N 0.84519 0.917 0.02606 0.0
N867 N 0.88383 0.92742 0.99279 0.0
H868 H 0.08977 0.92824 0.47054 0.0
H869 H 0.16447 0.91011 0.547 0.0
H870 H 0.16321 0.90841 0.47098 0.0
H871 H 0.09102 0.92946 0.54668 0.0
H872 H 0.16432 0.90979 0.51915 0.0
H873 H 0.08982 0.92754 0.49841 0.0
C874 C 0.10591 0.9232 0.47649 0.0
C875 C 0.12652 0.91832 0.46837 0.0
C876 C 0.14822 0.91406 0.52517 0.0
C877 C 0.12671 0.91842 0.50034 0.0
C878 C 0.1483 0.91476 0.54109 0.0
C879 C 0.12772 0.91997 0.54923 0.0
C880 C 0.12741 0.9187 0.51727 0.0
C881 C 0.10728 0.9243 0.54091 0.0
C882 C 0.10593 0.92332 0.49242 0.0
C883 C 0.14692 0.9134 0.47673 0.0
N884 N 0.10765 0.9237 0.5254 0.0
N885 N 0.14649 0.91351 0.49223 0.0
H886 H 0.87472 0.16654 0.54741 0.0
H887 H 0.85665 0.88584 0.47123 0.0
H888 H 0.85742 0.89264 0.54726 0.0
H889 H 0.87397 0.15972 0.4713 0.0
H890 H 0.85678 0.88721 0.49908 0.0
H891 H 0.87491 0.16507 0.51955 0.0
C892 C 0.87109 0.10593 0.54153 0.0
C893 C 0.86605 0.02959 0.54973 0.0
C894 C 0.86056 0.94703 0.49301 0.0
C895 C 0.86599 0.02768 0.51777 0.0
C896 C 0.86036 0.94643 0.47709 0.0
C897 C 0.86527 0.02284 0.46887 0.0
C898 C 0.86569 0.02462 0.50083 0.0
C899 C 0.87034 0.09902 0.47713 0.0
C900 C 0.87107 0.10527 0.52561 0.0
C901 C 0.86111 0.95334 0.54145 0.0
N902 N 0.87039 0.09798 0.49264 0.0
N903 N 0.86122 0.95434 0.52595 0.0
H904 H 0.66433 0.53837 0.048 0.0
H905 H 0.58955 0.51798 0.9716 0.0
H906 H 0.59088 0.51819 0.04774 0.0
H907 H 0.66299 0.53859 0.97199 0.0
H908 H 0.58962 0.51924 0.99947 0.0
H909 H 0.66414 0.53828 0.02015 0.0
C910 C 0.64816 0.53347 0.04209 0.0
C911 C 0.62759 0.5281 0.05025 0.0
C912 C 0.60572 0.52351 0.99346 0.0
C913 C 0.62723 0.52889 0.0183 0.0
C914 C 0.60569 0.5233 0.97754 0.0
C915 C 0.6263 0.52825 0.96941 0.0
C916 C 0.62652 0.52881 1.00137 0.0
C917 C 0.64671 0.53354 0.97775 0.0
C918 C 0.64805 0.53392 0.02618 0.0
C919 C 0.60713 0.52346 0.04195 0.0
N920 N 0.64629 0.53375 0.99325 0.0
N921 N 0.60748 0.52381 0.02644 0.0
H922 H 0.32798 0.41498 0.97101 0.0
H923 H 0.40297 0.43653 0.04731 0.0
H924 H 0.40142 0.43546 0.97119 0.0
H925 H 0.32954 0.41565 0.04702 0.0
H926 H 0.4028 0.4355 0.01944 0.0
H927 H 0.32823 0.41597 0.99886 0.0
C928 C 0.34416 0.42017 0.9769 0.0
C929 C 0.36471 0.42527 0.96872 0.0
C930 C 0.38672 0.43114 0.02547 0.0
C931 C 0.36514 0.4255 1.00067 0.0
C932 C 0.38681 0.43122 0.0414 0.0
C933 C 0.36623 0.42609 0.04955 0.0
C934 C 0.3659 0.42577 0.0176 0.0
C935 C 0.34579 0.42083 0.04124 0.0
C936 C 0.3443 0.42023 0.99282 0.0
C937 C 0.38518 0.43034 0.977 0.0
N938 N 0.34615 0.42071 0.02574 0.0
N939 N 0.38487 0.43044 0.9925 0.0
H940 H 0.61806 0.27881 0.47155 0.0
H941 H 0.6354 0.55801 0.54795 0.0
H942 H 0.63518 0.55286 0.47194 0.0
H943 H 0.61837 0.28387 0.54766 0.0
H944 H 0.63542 0.55725 0.52011 0.0
H945 H 0.6177 0.27961 0.49941 0.0
C946 C 0.62162 0.3393 0.47748 0.0
C947 C 0.62666 0.4159 0.46936 0.0
C948 C 0.63167 0.49724 0.52612 0.0
C949 C 0.6265 0.41705 0.50131 0.0
C950 C 0.63179 0.49749 0.54204 0.0
C951 C 0.62693 0.42081 0.55019 0.0
C952 C 0.62667 0.41973 0.51824 0.0
C953 C 0.62196 0.34475 0.54188 0.0
C954 C 0.62153 0.33958 0.4934 0.0
C955 C 0.6315 0.49199 0.4777 0.0
N956 N 0.62199 0.34612 0.52638 0.0
N957 N 0.63128 0.49063 0.4932 0.0
H958 H 0.32835 0.54041 0.54733 0.0
H959 H 0.40327 0.51757 0.47099 0.0
H960 H 0.40177 0.51965 0.54715 0.0
H961 H 0.32984 0.53803 0.47132 0.0
H962 H 0.40314 0.5195 0.49886 0.0
H963 H 0.3286 0.53942 0.51948 0.0
C964 C 0.34453 0.53519 0.54144 0.0
C965 C 0.36507 0.52992 0.54963 0.0
C966 C 0.38705 0.52357 0.49284 0.0
C967 C 0.3655 0.52968 0.51767 0.0
C968 C 0.38712 0.52297 0.47691 0.0
C969 C 0.36653 0.52769 0.46877 0.0
C970 C 0.36625 0.52906 0.50073 0.0
C971 C 0.34611 0.53312 0.4771 0.0
C972 C 0.34467 0.53513 0.52552 0.0
C973 C 0.38554 0.52486 0.54134 0.0
N974 N 0.3465 0.53374 0.49259 0.0
N975 N 0.38523 0.52472 0.52583 0.0
H976 H 0.93975 0.96115 0.10958 0.0
H977 H 0.0539 -0.01298 0.15927 0.0
H978 H 0.94074 0.95775 0.15885 0.0
H979 H 0.05295 -0.01209 0.11 0.0
H980 H 0.0124 -0.02406 0.15934 0.0
H981 H 0.98125 0.97216 0.10951 0.0
C982 C 0.94869 0.96303 0.12039 0.0
C983 C 0.93678 0.95852 0.13425 0.0
C984 C 0.02127 -0.02159 0.14851 0.0
C985 C 0.98426 0.9707 0.13424 0.0
C986 C 0.04496 -0.01541 0.14846 0.0
C987 C 0.05688 -0.01158 0.1346 0.0
C988 C 0.00941 -0.02386 0.13461 0.0
C989 C 0.04444 -0.01491 0.12095 0.0
C990 C 0.97239 0.96914 0.12033 0.0
C991 C 0.94924 0.9611 0.1479 0.0
N992 N 0.02135 -0.02073 0.1213 0.0
N993 N 0.97233 0.96691 0.14755 0.0
H994 H 0.93948 -0.01602 0.40884 0.0
H995 H 0.05315 0.95995 0.35861 0.0
H996 H 0.93995 -0.01185 0.35957 0.0
H997 H 0.0526 0.95711 0.40788 0.0
H998 H 0.01164 0.97072 0.35872 0.0
H999 H 0.98097 0.97303 0.4087 0.0
C1000 C 0.94831 -0.01771 0.39799 0.0
C1001 C 0.93626 -0.01299 0.38419 0.0
C1002 C 0.02061 0.96788 0.3695 0.0
C1003 C 0.98372 -0.02511 0.38395 0.0
C1004 C 0.04431 0.96188 0.36945 0.0
C1005 C 0.05634 0.95761 0.38326 0.0
C1006 C 0.00887 0.96953 0.38346 0.0
C1007 C 0.04401 0.96028 0.39697 0.0
C1008 C 0.972 -0.02379 0.39792 0.0
C1009 C 0.94857 -0.01535 0.37047 0.0
N1010 N 0.02092 0.96595 0.39672 0.0
N1011 N 0.97166 -0.02113 0.3707 0.0
H1012 H 0.05213 -0.00948 0.85875 0.0
H1013 H 0.93856 0.96515 0.90908 0.0
H1014 H 0.05174 -0.0078 0.90803 0.0
H1015 H 0.93892 0.96448 0.8598 0.0
H1016 H 0.98007 -0.02406 0.90892 0.0
H1017 H 0.01061 -0.01977 0.85891 0.0
C1018 C 0.04332 -0.01158 0.86961 0.0
C1019 C 0.0554 -0.00777 0.8834 0.0
C1020 C 0.97107 0.97359 0.89814 0.0
C1021 C 0.00791 -0.01912 0.88366 0.0
C1022 C 0.94736 0.9676 0.89822 0.0
C1023 C 0.93528 0.96387 0.88443 0.0
C1024 C 0.98276 -0.02421 0.88417 0.0
C1025 C 0.94756 0.9672 0.8707 0.0
C1026 C 0.01961 -0.01728 0.86969 0.0
C1027 C 0.0431 -0.01062 0.89712 0.0
N1028 N 0.97065 0.97283 0.87093 0.0
N1029 N 0.02001 -0.01601 0.8969 0.0
H1030 H 0.93935 -0.01152 0.65959 0.0
H1031 H 0.05297 0.96284 0.60933 0.0
H1032 H 0.93992 -0.00916 0.61032 0.0
H1033 H 0.05263 0.96119 0.65861 0.0
H1034 H 0.01149 0.97364 0.6095 0.0
H1035 H 0.98087 -0.02252 0.65949 0.0
C1036 C 0.9482 -0.01362 0.64875 0.0
C1037 C 0.93618 -0.00939 0.63494 0.0
C1038 C 0.02048 0.97105 0.62028 0.0
C1039 C 0.98364 -0.02157 0.63475 0.0
C1040 C 0.04418 0.96504 0.6202 0.0
C1041 C 0.05626 0.96109 0.63398 0.0
C1042 C 0.00879 0.97305 0.63425 0.0
C1043 C 0.04399 0.9641 0.64771 0.0
C1044 C 0.9719 -0.01974 0.6487 0.0
C1045 C 0.94851 -0.01227 0.62124 0.0
N1046 N 0.02089 0.96978 0.64749 0.0
N1047 N 0.97159 -0.01807 0.62149 0.0
H1048 H 0.4399 0.46572 0.10986 0.0
H1049 H 0.5536 0.48495 0.16012 0.0
H1050 H 0.4402 0.46085 0.15913 0.0
H1051 H 0.55299 0.4883 0.11084 0.0
H1052 H 0.51204 0.47557 0.16003 0.0
H1053 H 0.4814 0.47526 0.11005 0.0
C1054 C 0.44869 0.467 0.12073 0.0
C1055 C 0.43659 0.46244 0.13451 0.0
C1056 C 0.52101 0.4782 0.14924 0.0
C1057 C 0.48409 0.4729 0.1348 0.0
C1058 C 0.54473 0.48337 0.14928 0.0
C1059 C 0.55676 0.48744 0.13546 0.0
C1060 C 0.50925 0.47718 0.13529 0.0
C1061 C 0.5444 0.48528 0.12177 0.0
C1062 C 0.4724 0.47226 0.12083 0.0
C1063 C 0.44886 0.46426 0.14824 0.0
N1064 N 0.5213 0.48044 0.12203 0.0
N1065 N 0.47197 0.46921 0.14804 0.0
H1066 H 0.43962 0.48854 0.35878 0.0
H1067 H 0.55302 0.45833 0.40916 0.0
H1068 H 0.44005 0.48758 0.40806 0.0
H1069 H 0.55288 0.45818 0.35988 0.0
H1070 H 0.51156 0.47002 0.40893 0.0
H1071 H 0.48113 0.47688 0.35891 0.0
C1072 C 0.44843 0.48558 0.36963 0.0
C1073 C 0.43637 0.48905 0.38343 0.0
C1074 C 0.52059 0.46756 0.39817 0.0
C1075 C 0.48382 0.47612 0.38365 0.0
C1076 C 0.54428 0.46105 0.39828 0.0
C1077 C 0.55641 0.45725 0.38451 0.0
C1078 C 0.50896 0.47024 0.38418 0.0
C1079 C 0.54419 0.46095 0.37077 0.0
C1080 C 0.47213 0.47908 0.36969 0.0
C1081 C 0.44866 0.48508 0.39714 0.0
N1082 N 0.52111 0.46712 0.37095 0.0
N1083 N 0.47173 0.47894 0.3969 0.0
H1084 H 0.43896 0.4614 0.85897 0.0
H1085 H 0.55251 0.48623 0.9093 0.0
H1086 H 0.43938 0.46191 0.90825 0.0
H1087 H 0.55226 0.48643 0.86002 0.0
H1088 H 0.51101 0.47627 0.90911 0.0
H1089 H 0.4805 0.47125 0.8591 0.0
C1090 C 0.44778 0.46392 0.86982 0.0
C1091 C 0.43571 0.46081 0.88363 0.0
C1092 C 0.52003 0.47834 0.89834 0.0
C1093 C 0.4832 0.47163 0.88385 0.0
C1094 C 0.54373 0.48384 0.89843 0.0
C1095 C 0.55584 0.4872 0.88465 0.0
C1096 C 0.50836 0.47625 0.88436 0.0
C1097 C 0.54359 0.48398 0.87091 0.0
C1098 C 0.47149 0.46937 0.86988 0.0
C1099 C 0.44801 0.46418 0.89734 0.0
N1100 N 0.52049 0.47882 0.87112 0.0
N1101 N 0.4711 0.46927 0.8971 0.0
H1102 H 0.43873 0.48658 0.65961 0.0
H1103 H 0.55295 0.46055 0.60999 0.0
H1104 H 0.43985 0.48961 0.61034 0.0
H1105 H 0.55195 0.45876 0.65926 0.0
H1106 H 0.51147 0.47169 0.60991 0.0
H1107 H 0.48022 0.47533 0.65971 0.0
C1108 C 0.44769 0.48458 0.64881 0.0
C1109 C 0.43583 0.48906 0.63493 0.0
C1110 C 0.52032 0.46901 0.62074 0.0
C1111 C 0.48329 0.4766 0.63499 0.0
C1112 C 0.54401 0.4628 0.6208 0.0
C1113 C 0.55591 0.4587 0.63466 0.0
C1114 C 0.50844 0.47105 0.63464 0.0
C1115 C 0.54345 0.46179 0.64831 0.0
C1116 C 0.47139 0.47832 0.64888 0.0
C1117 C 0.44831 0.48629 0.62129 0.0
N1118 N 0.52037 0.46766 0.64795 0.0
N1119 N 0.47139 0.48035 0.62167 0.0
H1120 H 0.13623 0.74073 0.15875 0.0
H1121 H 0.12015 0.30701 0.10949 0.0
H1122 H 0.13288 0.73712 0.10951 0.0
H1123 H 0.12368 0.31068 0.15873 0.0
H1124 H 0.12419 0.46519 0.1093 0.0
H1125 H 0.13237 0.5825 0.15894 0.0
C1126 C 0.1349 0.70654 0.14797 0.0
C1127 C 0.13474 0.75198 0.13409 0.0
C1128 C 0.12398 0.43142 0.12014 0.0
C1129 C 0.13006 0.5714 0.13424 0.0
C1130 C 0.12155 0.3412 0.12027 0.0
C1131 C 0.12169 0.29579 0.13415 0.0
C1132 C 0.12658 0.47629 0.13399 0.0
C1133 C 0.12354 0.34323 0.14777 0.0
C1134 C 0.13258 0.61628 0.14809 0.0
C1135 C 0.13302 0.70454 0.12047 0.0
N1136 N 0.12603 0.43109 0.14734 0.0
N1137 N 0.13062 0.61664 0.12089 0.0
H1138 H 0.85799 0.2064 0.15929 0.0
H1139 H 0.87289 0.64009 0.10991 0.0
H1140 H 0.86023 0.20997 0.11002 0.0
H1141 H 0.87053 0.63645 0.15918 0.0
H1142 H 0.86886 0.48191 0.10974 0.0
H1143 H 0.86183 0.36463 0.15945 0.0
C1144 C 0.85908 0.24058 0.1485 0.0
C1145 C 0.85893 0.19513 0.13462 0.0
C1146 C 0.86932 0.51569 0.12059 0.0
C1147 C 0.86359 0.37571 0.13474 0.0
C1148 C 0.87174 0.6059 0.1207 0.0
C1149 C 0.87193 0.65132 0.13459 0.0
C1150 C 0.86705 0.47082 0.13445 0.0
C1151 C 0.87041 0.6039 0.14822 0.0
C1152 C 0.86138 0.33084 0.14861 0.0
C1153 C 0.86033 0.24256 0.12098 0.0
N1154 N 0.86791 0.51604 0.1478 0.0
N1155 N 0.86274 0.33046 0.12139 0.0
H1156 H 0.13344 0.20788 0.40893 0.0
H1157 H 0.1221 0.63859 0.3583 0.0
H1158 H 0.13445 0.20867 0.35964 0.0
H1159 H 0.12082 0.6378 0.40758 0.0
H1160 H 0.1261 0.48035 0.35856 0.0
H1161 H 0.12963 0.36622 0.40868 0.0
C1162 C 0.13309 0.24146 0.39806 0.0
C1163 C 0.13413 0.19522 0.38428 0.0
C1164 C 0.12484 0.5148 0.36931 0.0
C1165 C 0.1295 0.37575 0.38391 0.0
C1166 C 0.12243 0.60503 0.36917 0.0
C1167 C 0.12124 0.65124 0.38294 0.0
C1168 C 0.12608 0.4708 0.38332 0.0
C1169 C 0.12175 0.60463 0.3967 0.0
C1170 C 0.13079 0.33174 0.39792 0.0
C1171 C 0.13361 0.24185 0.37053 0.0
N1172 N 0.12425 0.5168 0.39654 0.0
N1173 N 0.13121 0.32971 0.3707 0.0
H1174 H 0.87258 0.30516 0.40878 0.0
H1175 H 0.85727 0.73855 0.35943 0.0
H1176 H 0.86989 0.30868 0.35952 0.0
H1177 H 0.85984 0.73511 0.40869 0.0
H1178 H 0.86113 0.58037 0.35926 0.0
H1179 H 0.86852 0.46328 0.40896 0.0
C1180 C 0.87136 0.33931 0.39799 0.0
C1181 C 0.87146 0.29387 0.38411 0.0
C1182 C 0.86075 0.61418 0.37011 0.0
C1183 C 0.86654 0.4743 0.38425 0.0
C1184 C 0.85843 0.70441 0.37022 0.0
C1185 C 0.85837 0.74989 0.3841 0.0
C1186 C 0.86306 0.56937 0.38397 0.0
C1187 C 0.85987 0.7025 0.39773 0.0
C1188 C 0.86892 0.4295 0.39811 0.0
C1189 C 0.86985 0.34125 0.37048 0.0
N1190 N 0.86229 0.61463 0.39732 0.0
N1191 N 0.86733 0.42908 0.3709 0.0
H1192 H 0.8576 0.21236 0.9095 0.0
H1193 H 0.87018 0.64319 0.85897 0.0
H1194 H 0.85742 0.21315 0.86021 0.0
H1195 H 0.87055 0.64236 0.90826 0.0
H1196 H 0.86606 0.48493 0.85919 0.0
H1197 H 0.86153 0.37071 0.90928 0.0
C1198 C 0.85816 0.24594 0.89863 0.0
C1199 C 0.85732 0.19968 0.88485 0.0
C1200 C 0.86715 0.51937 0.86996 0.0
C1201 C 0.86209 0.38027 0.88452 0.0
C1202 C 0.86963 0.60961 0.86984 0.0
C1203 C 0.8706 0.65584 0.88362 0.0
C1204 C 0.8656 0.47534 0.88396 0.0
C1205 C 0.8698 0.60919 0.89737 0.0
C1206 C 0.86053 0.33624 0.89852 0.0
C1207 C 0.85809 0.24634 0.8711 0.0
N1208 N 0.86723 0.52135 0.89718 0.0
N1209 N 0.86056 0.33422 0.87129 0.0
H1210 H 0.12111 0.31097 0.85836 0.0
H1211 H 0.13264 0.74221 0.90892 0.0
H1212 H 0.12015 0.31208 0.90765 0.0
H1213 H 0.1333 0.74109 0.85962 0.0
H1214 H 0.12888 0.58381 0.90869 0.0
H1215 H 0.12506 0.46927 0.85859 0.0
C1216 C 0.1215 0.34462 0.86923 0.0
C1217 C 0.12041 0.29849 0.88301 0.0
C1218 C 0.12994 0.61823 0.89793 0.0
C1219 C 0.1252 0.479 0.88336 0.0
C1220 C 0.13222 0.70854 0.89805 0.0
C1221 C 0.13315 0.75469 0.88427 0.0
C1222 C 0.12858 0.5741 0.88393 0.0
C1223 C 0.13255 0.70797 0.87052 0.0
C1224 C 0.12389 0.43488 0.86935 0.0
C1225 C 0.121 0.34519 0.89676 0.0
N1226 N 0.13018 0.62007 0.8707 0.0
N1227 N 0.12348 0.43306 0.89658 0.0
H1228 H 0.85888 0.74132 0.60922 0.0
H1229 H 0.87071 0.31054 0.6598 0.0
H1230 H 0.85797 0.74043 0.65852 0.0
H1231 H 0.87173 0.31148 0.61051 0.0
H1232 H 0.86661 0.46876 0.65957 0.0
H1233 H 0.8628 0.58303 0.60946 0.0
C1234 C 0.85928 0.70773 0.62009 0.0
C1235 C 0.85824 0.75394 0.63387 0.0
C1236 C 0.86783 0.43435 0.64881 0.0
C1237 C 0.86299 0.57342 0.63422 0.0
C1238 C 0.87031 0.34414 0.64893 0.0
C1239 C 0.87145 0.29795 0.63515 0.0
C1240 C 0.86648 0.47839 0.6348 0.0
C1241 C 0.87084 0.34461 0.62141 0.0
C1242 C 0.86164 0.61746 0.62022 0.0
C1243 C 0.8588 0.70727 0.64762 0.0
N1244 N 0.86828 0.43242 0.62158 0.0
N1245 N 0.86127 0.61942 0.64745 0.0
H1246 H 0.13376 0.21107 0.60872 0.0
H1247 H 0.12162 0.64198 0.65927 0.0
H1248 H 0.13411 0.21205 0.65802 0.0
H1249 H 0.12111 0.64097 0.60998 0.0
H1250 H 0.12565 0.48375 0.65904 0.0
H1251 H 0.12993 0.36939 0.60895 0.0
C1252 C 0.13326 0.24469 0.61959 0.0
C1253 C 0.13412 0.19851 0.63337 0.0
C1254 C 0.12456 0.51815 0.64828 0.0
C1255 C 0.12946 0.37904 0.63371 0.0
C1256 C 0.12213 0.60837 0.64841 0.0
C1257 C 0.12114 0.65452 0.63462 0.0
C1258 C 0.12602 0.47408 0.63428 0.0
C1259 C 0.12187 0.60785 0.62087 0.0
C1260 C 0.13094 0.33497 0.61971 0.0
C1261 C 0.13342 0.24519 0.64712 0.0
N1262 N 0.12439 0.52003 0.62105 0.0
N1263 N 0.131 0.33306 0.64694 0.0
H1264 H 0.62233 0.80677 0.16029 0.0
H1265 H 0.63396 0.23774 0.10972 0.0
H1266 H 0.62131 0.8077 0.111 0.0
H1267 H 0.63491 0.23685 0.15901 0.0
H1268 H 0.6301 0.07939 0.10996 0.0
H1269 H 0.62636 0.96505 0.16006 0.0
C1270 C 0.62272 0.84037 0.14943 0.0
C1271 C 0.62159 0.79418 0.13564 0.0
C1272 C 0.63125 0.11384 0.12071 0.0
C1273 C 0.62648 -0.02531 0.1353 0.0
C1274 C 0.63358 0.20414 0.12059 0.0
C1275 C 0.63462 0.25036 0.13437 0.0
C1276 C 0.62993 0.06977 0.13472 0.0
C1277 C 0.63408 0.20368 0.14812 0.0
C1278 C 0.62515 0.93063 0.1493 0.0
C1279 C 0.62219 0.84085 0.1219 0.0
N1280 N 0.63164 0.11579 0.14794 0.0
N1281 N 0.62471 0.9287 0.12207 0.0
H1282 H 0.35737 0.71037 0.15898 0.0
H1283 H 0.373 0.14381 0.10961 0.0
H1284 H 0.36024 0.71375 0.10972 0.0
H1285 H 0.37023 0.1404 0.15886 0.0
H1286 H 0.3689 -0.01435 0.10944 0.0
H1287 H 0.36128 0.86862 0.15914 0.0
C1288 C 0.3586 0.74451 0.14819 0.0
C1289 C 0.35862 0.69899 0.13431 0.0
C1290 C 0.36929 0.01947 0.12029 0.0
C1291 C 0.36335 0.87957 0.13443 0.0
C1292 C 0.37176 0.10968 0.1204 0.0
C1293 C 0.37185 0.15517 0.13428 0.0
C1294 C 0.36687 -0.02533 0.13415 0.0
C1295 C 0.37019 0.1078 0.14791 0.0
C1296 C 0.36095 0.83477 0.14829 0.0
C1297 C 0.36021 0.74637 0.12068 0.0
N1298 N 0.36765 0.01995 0.14749 0.0
N1299 N 0.36265 0.83426 0.12109 0.0
H1300 H 0.62172 0.13663 0.35932 0.0
H1301 H 0.63383 0.70609 0.40993 0.0
H1302 H 0.62089 0.1359 0.40861 0.0
H1303 H 0.63454 0.70677 0.36064 0.0
H1304 H 0.62989 0.86438 0.40968 0.0
H1305 H 0.62585 -0.02158 0.35957 0.0
C1306 C 0.62217 0.10309 0.37019 0.0
C1307 C 0.62106 0.14933 0.38396 0.0
C1308 C 0.63101 0.8299 0.39892 0.0
C1309 C 0.62608 0.9689 0.38433 0.0
C1310 C 0.63339 0.73964 0.39906 0.0
C1311 C 0.63438 0.69335 0.38528 0.0
C1312 C 0.6296 0.87388 0.38492 0.0
C1313 C 0.63375 0.73997 0.37153 0.0
C1314 C 0.62466 0.01287 0.37032 0.0
C1315 C 0.62174 0.10273 0.39772 0.0
N1316 N 0.63127 0.82781 0.3717 0.0
N1317 N 0.62432 0.01492 0.39755 0.0
H1318 H 0.37327 0.80839 0.40861 0.0
H1319 H 0.35682 0.24166 0.35937 0.0
H1320 H 0.36983 0.81182 0.35937 0.0
H1321 H 0.36029 0.23825 0.4086 0.0
H1322 H 0.36079 0.08349 0.35917 0.0
H1323 H 0.36911 0.96648 0.40881 0.0
C1324 C 0.37187 0.84252 0.39783 0.0
C1325 C 0.37178 0.79704 0.38395 0.0
C1326 C 0.36058 0.1173 0.37002 0.0
C1327 C 0.36675 -0.02253 0.38412 0.0
C1328 C 0.35819 0.20752 0.37015 0.0
C1329 C 0.35836 0.25303 0.38402 0.0
C1330 C 0.36318 0.07251 0.38386 0.0
C1331 C 0.36014 0.20564 0.39764 0.0
C1332 C 0.36937 0.93269 0.39796 0.0
C1333 C 0.36994 0.84441 0.37033 0.0
N1334 N 0.36262 0.11779 0.39721 0.0
N1335 N 0.36737 0.93222 0.37077 0.0
H1336 H 0.35659 0.70886 0.85926 0.0
H1337 H 0.37211 0.14232 0.90869 0.0
H1338 H 0.35939 0.71225 0.90852 0.0
H1339 H 0.36935 0.1389 0.85944 0.0
H1340 H 0.36805 -0.01586 0.90884 0.0
H1341 H 0.36049 0.86711 0.85912 0.0
C1342 C 0.3578 0.743 0.87006 0.0
C1343 C 0.3578 0.69749 0.88393 0.0
C1344 C 0.36843 0.01797 0.898 0.0
C1345 C 0.36254 0.87806 0.88383 0.0
C1346 C 0.37088 0.10818 0.8979 0.0
C1347 C 0.37096 0.15367 0.88403 0.0
C1348 C 0.36604 0.97317 0.88413 0.0
C1349 C 0.36932 0.1063 0.87039 0.0
C1350 C 0.36015 0.83326 0.86996 0.0
C1351 C 0.35938 0.74487 0.89757 0.0
N1352 N 0.3668 0.01844 0.87079 0.0
N1353 N 0.36182 0.83276 0.89717 0.0
H1354 H 0.63333 0.23812 0.90995 0.0
H1355 H 0.62117 0.80715 0.85936 0.0
H1356 H 0.63384 0.23722 0.86065 0.0
H1357 H 0.62053 0.8081 0.90866 0.0
H1358 H 0.62525 0.96542 0.8596 0.0
H1359 H 0.62945 0.07976 0.90971 0.0
C1360 C 0.63286 0.20451 0.89908 0.0
C1361 C 0.63377 0.25074 0.8853 0.0
C1362 C 0.62412 0.931 0.87036 0.0
C1363 C 0.62906 0.07014 0.88494 0.0
C1364 C 0.62165 0.84075 0.87023 0.0
C1365 C 0.62062 0.79457 0.88401 0.0
C1366 C 0.62558 -0.02494 0.88437 0.0
C1367 C 0.62133 0.84124 0.89776 0.0
C1368 C 0.63051 0.11421 0.89895 0.0
C1369 C 0.63311 0.20406 0.87155 0.0
N1370 N 0.62389 0.92908 0.89759 0.0
N1371 N 0.63066 0.11617 0.87172 0.0
H1372 H 0.37023 0.80948 0.65972 0.0
H1373 H 0.35862 0.24022 0.60909 0.0
H1374 H 0.37167 0.81041 0.61043 0.0
H1375 H 0.35743 0.23933 0.65838 0.0
H1376 H 0.36257 0.08191 0.60934 0.0
H1377 H 0.36608 0.96768 0.65946 0.0
C1378 C 0.36991 0.84307 0.64885 0.0
C1379 C 0.37119 0.79688 0.63507 0.0
C1380 C 0.36134 0.11636 0.6201 0.0
C1381 C 0.36616 -0.0227 0.6347 0.0
C1382 C 0.35896 0.20662 0.61996 0.0
C1383 C 0.35783 0.25285 0.63374 0.0
C1384 C 0.36263 0.07233 0.63411 0.0
C1385 C 0.35833 0.20618 0.64749 0.0
C1386 C 0.36741 0.93328 0.64871 0.0
C1387 C 0.37068 0.84354 0.62132 0.0
N1388 N 0.36082 0.11834 0.64732 0.0
N1389 N 0.36808 0.93134 0.62148 0.0
H1390 H 0.63369 0.70786 0.60968 0.0
H1391 H 0.62093 0.13875 0.66019 0.0
H1392 H 0.63367 0.70887 0.65898 0.0
H1393 H 0.62079 0.13771 0.61089 0.0
H1394 H 0.62504 -0.01946 0.65997 0.0
H1395 H 0.62977 0.86617 0.6099 0.0
C1396 C 0.63309 0.74149 0.62055 0.0
C1397 C 0.63387 0.6953 0.63434 0.0
C1398 C 0.624 0.01492 0.64921 0.0
C1399 C 0.62911 0.87582 0.63466 0.0
C1400 C 0.62153 0.10514 0.64932 0.0
C1401 C 0.62062 0.15129 0.63554 0.0
C1402 C 0.62561 0.97086 0.63521 0.0
C1403 C 0.62148 0.1046 0.62179 0.0
C1404 C 0.63073 0.83175 0.62066 0.0
C1405 C 0.63304 0.742 0.64808 0.0
N1406 N 0.62405 0.01679 0.62198 0.0
N1407 N 0.63058 0.82985 0.64789 0.0
loop_
_geom_bond_atom_site_label_1
_geom_bond_atom_site_label_2
_geom_bond_distance
_geom_bond_site_symmetry_2
_ccdc_geom_bond_type
C0 O16 1.251 . S
C0 O18 1.254 . S
N1 C2 1.333 . S
N1 C6 1.307 . S
N1 Zn7 2.020 . S
C2 N1 1.333 . S
C2 C3 1.379 . S
C2 H20 0.952 . S
C3 C2 1.379 . S
C3 C4 1.390 . S
C3 H30 0.949 . S
C4 C3 1.390 . S
C4 C5 1.357 . S
C5 C4 1.357 . S
C5 C6 1.370 . S
C5 H31 0.950 . S
C6 N1 1.307 . S
C6 C5 1.370 . S
C6 H24 0.948 1_545 S
Zn7 N1 2.020 . S
Zn7 O16 2.039 . S
Zn7 O22 2.034 . S
Zn7 O26 2.025 1_545 S
Zn7 O28 2.024 . S
C8 O27 1.246 . S
C8 O28 1.249 . S
N9 C10 1.307 . S
N9 C11 1.333 . S
N9 Zn15 2.020 . S
C10 N9 1.307 . S
C10 C14 1.370 . S
C10 H21 0.948 . S
C11 N9 1.333 . S
C11 C12 1.379 . S
C11 H19 0.952 1_545 S
C12 C11 1.379 . S
C12 C13 1.390 . S
C12 H32 0.949 1_545 S
C13 C12 1.390 . S
C13 C14 1.357 . S
C14 C10 1.370 . S
C14 C13 1.357 . S
C14 H33 0.950 . S
Zn15 N9 2.020 . S
Zn15 O18 2.025 . S
Zn15 O23 2.024 . S
Zn15 O25 2.039 1_545 S
Zn15 O27 2.034 . S
O16 C0 1.251 . S
O16 Zn7 2.039 . S
C17 O22 1.246 . S
C17 O23 1.249 . S
O18 C0 1.254 . S
O18 Zn15 2.025 . S
H19 C11 0.952 1_565 S
H20 C2 0.952 . S
H21 C10 0.948 . S
O22 Zn7 2.034 . S
O22 C17 1.246 . S
O23 Zn15 2.024 . S
O23 C17 1.249 . S
H24 C6 0.948 1_565 S
O25 Zn15 2.039 1_565 S
O25 C29 1.251 . S
O26 Zn7 2.025 1_565 S
O26 C29 1.254 . S
O27 C8 1.246 . S
O27 Zn15 2.034 . S
O28 Zn7 2.024 . S
O28 C8 1.249 . S
C29 O25 1.251 . S
C29 O26 1.254 . S
H30 C3 0.949 . S
H31 C5 0.950 . S
H32 C12 0.949 1_565 S
H33 C14 0.950 . S
C34 O50 1.251 . S
C34 O52 1.254 . S
N35 C36 1.333 . S
N35 C40 1.307 . S
N35 Zn41 2.020 . S
C36 N35 1.333 . S
C36 C37 1.379 . S
C36 H54 0.952 . S
C37 C36 1.379 . S
C37 C38 1.390 . S
C37 H64 0.949 . S
C38 C37 1.390 . S
C38 C39 1.357 . S
C39 C38 1.357 . S
C39 C40 1.370 . S
C39 H65 0.950 . S
C40 N35 1.307 . S
C40 C39 1.370 . S
C40 H58 0.948 1_565 S
Zn41 N35 2.020 . S
Zn41 O50 2.039 . S
Zn41 O56 2.034 . S
Zn41 O60 2.025 1_565 S
Zn41 O62 2.024 . S
C42 O61 1.246 . S
C42 O62 1.249 . S
N43 C44 1.307 . S
N43 C45 1.333 . S
N43 Zn49 2.020 . S
C44 N43 1.307 . S
C44 C48 1.370 . S
C44 H55 0.948 . S
C45 N43 1.333 . S
C45 C46 1.379 . S
C45 H53 0.952 1_565 S
C46 C45 1.379 . S
C46 C47 1.390 . S
C46 H66 0.949 1_565 S
C47 C46 1.390 . S
C47 C48 1.357 . S
C48 C44 1.370 . S
C48 C47 1.357 . S
C48 H67 0.950 . S
Zn49 N43 2.020 . S
Zn49 O52 2.025 . S
Zn49 O57 2.024 . S
Zn49 O59 2.039 1_565 S
Zn49 O61 2.034 . S
O50 C34 1.251 . S
O50 Zn41 2.039 . S
C51 O56 1.246 . S
C51 O57 1.249 . S
O52 C34 1.254 . S
O52 Zn49 2.025 . S
H53 C45 0.952 1_545 S
H54 C36 0.952 . S
H55 C44 0.948 . S
O56 Zn41 2.034 . S
O56 C51 1.246 . S
O57 Zn49 2.024 . S
O57 C51 1.249 . S
H58 C40 0.948 1_545 S
O59 Zn49 2.039 1_545 S
O59 C63 1.251 . S
O60 Zn41 2.025 1_545 S
O60 C63 1.254 . S
O61 C42 1.246 . S
O61 Zn49 2.034 . S
O62 Zn41 2.024 . S
O62 C42 1.249 . S
C63 O59 1.251 . S
C63 O60 1.254 . S
H64 C37 0.949 . S
H65 C39 0.950 . S
H66 C46 0.949 1_545 S
H67 C48 0.950 . S
C68 O84 1.251 . S
C68 O86 1.254 . S
N69 C70 1.333 . S
N69 C74 1.307 . S
N69 Zn75 2.020 . S
C70 N69 1.333 . S
C70 C71 1.379 . S
C70 H88 0.952 . S
C71 C70 1.379 . S
C71 C72 1.390 . S
C71 H98 0.949 . S
C72 C71 1.390 . S
C72 C73 1.357 . S
C73 C72 1.357 . S
C73 C74 1.370 . S
C73 H99 0.950 . S
C74 N69 1.307 . S
C74 C73 1.370 . S
C74 H92 0.948 1_565 S
Zn75 N69 2.020 . S
Zn75 O84 2.039 . S
Zn75 O90 2.034 . S
Zn75 O94 2.025 1_565 S
Zn75 O96 2.024 . S
C76 O95 1.246 . S
C76 O96 1.249 . S
N77 C78 1.307 . S
N77 C79 1.333 . S
N77 Zn83 2.020 . S
C78 N77 1.307 . S
C78 C82 1.370 . S
C78 H89 0.948 . S
C79 N77 1.333 . S
C79 C80 1.379 . S
C79 H87 0.952 1_565 S
C80 C79 1.379 . S
C80 C81 1.390 . S
C80 H100 0.949 1_565 S
C81 C80 1.390 . S
C81 C82 1.357 . S
C82 C78 1.370 . S
C82 C81 1.357 . S
C82 H101 0.950 . S
Zn83 N77 2.020 . S
Zn83 O86 2.025 . S
Zn83 O91 2.024 . S
Zn83 O93 2.039 1_565 S
Zn83 O95 2.034 . S
O84 C68 1.251 . S
O84 Zn75 2.039 . S
C85 O90 1.246 . S
C85 O91 1.249 . S
O86 C68 1.254 . S
O86 Zn83 2.025 . S
H87 C79 0.952 1_545 S
H88 C70 0.952 . S
H89 C78 0.948 . S
O90 Zn75 2.034 . S
O90 C85 1.246 . S
O91 Zn83 2.024 . S
O91 C85 1.249 . S
H92 C74 0.948 1_545 S
O93 Zn83 2.039 1_545 S
O93 C97 1.251 . S
O94 Zn75 2.025 1_545 S
O94 C97 1.254 . S
O95 C76 1.246 . S
O95 Zn83 2.034 . S
O96 Zn75 2.024 . S
O96 C76 1.249 . S
C97 O93 1.251 . S
C97 O94 1.254 . S
H98 C71 0.949 . S
H99 C73 0.950 . S
H100 C80 0.949 1_545 S
H101 C82 0.950 . S
C102 O118 1.251 . S
C102 O120 1.254 . S
N103 C104 1.333 . S
N103 C108 1.307 . S
N103 Zn109 2.020 . S
C104 N103 1.333 . S
C104 C105 1.379 . S
C104 H122 0.952 . S
C105 C104 1.379 . S
C105 C106 1.390 . S
C105 H132 0.949 . S
C106 C105 1.390 . S
C106 C107 1.357 . S
C107 C106 1.357 . S
C107 C108 1.370 . S
C107 H133 0.950 . S
C108 N103 1.307 . S
C108 C107 1.370 . S
C108 H126 0.948 1_545 S
Zn109 N103 2.020 . S
Zn109 O118 2.039 . S
Zn109 O124 2.034 . S
Zn109 O128 2.025 1_545 S
Zn109 O130 2.024 . S
C110 O129 1.246 . S
C110 O130 1.249 . S
N111 C112 1.307 . S
N111 C113 1.333 . S
N111 Zn117 2.020 . S
C112 N111 1.307 . S
C112 C116 1.370 . S
C112 H123 0.948 . S
C113 N111 1.333 . S
C113 C114 1.379 . S
C113 H121 0.952 1_545 S
C114 C113 1.379 . S
C114 C115 1.390 . S
C114 H134 0.949 1_545 S
C115 C114 1.390 . S
C115 C116 1.357 . S
C116 C112 1.370 . S
C116 C115 1.357 . S
C116 H135 0.950 . S
Zn117 N111 2.020 . S
Zn117 O120 2.025 . S
Zn117 O125 2.024 . S
Zn117 O127 2.039 1_545 S
Zn117 O129 2.034 . S
O118 C102 1.251 . S
O118 Zn109 2.039 . S
C119 O124 1.246 . S
C119 O125 1.249 . S
O120 C102 1.254 . S
O120 Zn117 2.025 . S
H121 C113 0.952 1_565 S
H122 C104 0.952 . S
H123 C112 0.948 . S
O124 Zn109 2.034 . S
O124 C119 1.246 . S
O125 Zn117 2.024 . S
O125 C119 1.249 . S
H126 C108 0.948 1_565 S
O127 Zn117 2.039 1_565 S
O127 C131 1.251 . S
O128 Zn109 2.025 1_565 S
O128 C131 1.254 . S
O129 C110 1.246 . S
O129 Zn117 2.034 . S
O130 Zn109 2.024 . S
O130 C110 1.249 . S
C131 O127 1.251 . S
C131 O128 1.254 . S
H132 C105 0.949 . S
H133 C107 0.950 . S
H134 C114 0.949 1_565 S
H135 C116 0.950 . S
C136 O152 1.251 . S
C136 O154 1.254 . S
N137 C138 1.333 . S
N137 C142 1.307 . S
N137 Zn143 2.020 . S
C138 N137 1.333 . S
C138 C139 1.379 . S
C138 H156 0.952 1_565 S
C139 C138 1.379 . S
C139 C140 1.390 . S
C139 H166 0.949 1_565 S
C140 C139 1.390 . S
C140 C141 1.357 . S
C141 C140 1.357 . S
C141 C142 1.370 . S
C141 H167 0.950 . S
C142 N137 1.307 . S
C142 C141 1.370 . S
C142 H160 0.948 . S
Zn143 N137 2.020 . S
Zn143 O152 2.039 1_565 S
Zn143 O158 2.034 . S
Zn143 O162 2.025 . S
Zn143 O164 2.024 . S
C144 O163 1.246 . S
C144 O164 1.249 . S
N145 C146 1.307 . S
N145 C147 1.333 . S
N145 Zn151 2.020 . S
C146 N145 1.307 . S
C146 C150 1.370 . S
C146 H157 0.948 1_565 S
C147 N145 1.333 . S
C147 C148 1.379 . S
C147 H155 0.952 . S
C148 C147 1.379 . S
C148 C149 1.390 . S
C148 H168 0.949 . S
C149 C148 1.390 . S
C149 C150 1.357 . S
C150 C146 1.370 . S
C150 C149 1.357 . S
C150 H169 0.950 . S
Zn151 N145 2.020 . S
Zn151 O154 2.025 1_565 S
Zn151 O159 2.024 . S
Zn151 O161 2.039 . S
Zn151 O163 2.034 . S
O152 C136 1.251 . S
O152 Zn143 2.039 1_545 S
C153 O158 1.246 . S
C153 O159 1.249 . S
O154 C136 1.254 . S
O154 Zn151 2.025 1_545 S
H155 C147 0.952 . S
H156 C138 0.952 1_545 S
H157 C146 0.948 1_545 S
O158 Zn143 2.034 . S
O158 C153 1.246 . S
O159 Zn151 2.024 . S
O159 C153 1.249 . S
H160 C142 0.948 . S
O161 Zn151 2.039 . S
O161 C165 1.251 . S
O162 Zn143 2.025 . S
O162 C165 1.254 . S
O163 C144 1.246 . S
O163 Zn151 2.034 . S
O164 Zn143 2.024 . S
O164 C144 1.249 . S
C165 O161 1.251 . S
C165 O162 1.254 . S
H166 C139 0.949 1_545 S
H167 C141 0.950 . S
H168 C148 0.949 . S
H169 C150 0.950 . S
C170 O186 1.251 . S
C170 O188 1.254 . S
N171 C172 1.333 . S
N171 C176 1.307 . S
N171 Zn177 2.020 . S
C172 N171 1.333 . S
C172 C173 1.379 . S
C172 H190 0.952 1_545 S
C173 C172 1.379 . S
C173 C174 1.390 . S
C173 H200 0.949 1_545 S
C174 C173 1.390 . S
C174 C175 1.357 . S
C175 C174 1.357 . S
C175 C176 1.370 . S
C175 H201 0.950 . S
C176 N171 1.307 . S
C176 C175 1.370 . S
C176 H194 0.948 . S
Zn177 N171 2.020 . S
Zn177 O186 2.039 1_545 S
Zn177 O192 2.034 . S
Zn177 O196 2.025 . S
Zn177 O198 2.024 . S
C178 O197 1.246 . S
C178 O198 1.249 . S
N179 C180 1.307 . S
N179 C181 1.333 . S
N179 Zn185 2.020 . S
C180 N179 1.307 . S
C180 C184 1.370 . S
C180 H191 0.948 1_545 S
C181 N179 1.333 . S
C181 C182 1.379 . S
C181 H189 0.952 . S
C182 C181 1.379 . S
C182 C183 1.390 . S
C182 H202 0.949 . S
C183 C182 1.390 . S
C183 C184 1.357 . S
C184 C180 1.370 . S
C184 C183 1.357 . S
C184 H203 0.950 . S
Zn185 N179 2.020 . S
Zn185 O188 2.025 1_545 S
Zn185 O193 2.024 . S
Zn185 O195 2.039 . S
Zn185 O197 2.034 . S
O186 C170 1.251 . S
O186 Zn177 2.039 1_565 S
C187 O192 1.246 . S
C187 O193 1.249 . S
O188 C170 1.254 . S
O188 Zn185 2.025 1_565 S
H189 C181 0.952 . S
H190 C172 0.952 1_565 S
H191 C180 0.948 1_565 S
O192 Zn177 2.034 . S
O192 C187 1.246 . S
O193 Zn185 2.024 . S
O193 C187 1.249 . S
H194 C176 0.948 . S
O195 Zn185 2.039 . S
O195 C199 1.251 . S
O196 Zn177 2.025 . S
O196 C199 1.254 . S
O197 C178 1.246 . S
O197 Zn185 2.034 . S
O198 Zn177 2.024 . S
O198 C178 1.249 . S
C199 O195 1.251 . S
C199 O196 1.254 . S
H200 C173 0.949 1_565 S
H201 C175 0.950 . S
H202 C182 0.949 . S
H203 C184 0.950 . S
C204 O220 1.251 . S
C204 O222 1.254 . S
N205 C206 1.333 . S
N205 C210 1.307 . S
N205 Zn211 2.020 . S
C206 N205 1.333 . S
C206 C207 1.379 . S
C206 H224 0.952 1_545 S
C207 C206 1.379 . S
C207 C208 1.390 . S
C207 H234 0.949 1_545 S
C208 C207 1.390 . S
C208 C209 1.357 . S
C209 C208 1.357 . S
C209 C210 1.370 . S
C209 H235 0.950 . S
C210 N205 1.307 . S
C210 C209 1.370 . S
C210 H228 0.948 . S
Zn211 N205 2.020 . S
Zn211 O220 2.039 1_545 S
Zn211 O226 2.034 . S
Zn211 O230 2.025 . S
Zn211 O232 2.024 . S
C212 O231 1.246 . S
C212 O232 1.249 . S
N213 C214 1.307 . S
N213 C215 1.333 . S
N213 Zn219 2.020 . S
C214 N213 1.307 . S
C214 C218 1.370 . S
C214 H225 0.948 1_545 S
C215 N213 1.333 . S
C215 C216 1.379 . S
C215 H223 0.952 . S
C216 C215 1.379 . S
C216 C217 1.390 . S
C216 H236 0.949 . S
C217 C216 1.390 . S
C217 C218 1.357 . S
C218 C214 1.370 . S
C218 C217 1.357 . S
C218 H237 0.950 . S
Zn219 N213 2.020 . S
Zn219 O222 2.025 1_545 S
Zn219 O227 2.024 . S
Zn219 O229 2.039 . S
Zn219 O231 2.034 . S
O220 C204 1.251 . S
O220 Zn211 2.039 1_565 S
C221 O226 1.246 . S
C221 O227 1.249 . S
O222 C204 1.254 . S
O222 Zn219 2.025 1_565 S
H223 C215 0.952 . S
H224 C206 0.952 1_565 S
H225 C214 0.948 1_565 S
O226 Zn211 2.034 . S
O226 C221 1.246 . S
O227 Zn219 2.024 . S
O227 C221 1.249 . S
H228 C210 0.948 . S
O229 Zn219 2.039 . S
O229 C233 1.251 . S
O230 Zn211 2.025 . S
O230 C233 1.254 . S
O231 C212 1.246 . S
O231 Zn219 2.034 . S
O232 Zn211 2.024 . S
O232 C212 1.249 . S
C233 O229 1.251 . S
C233 O230 1.254 . S
H234 C207 0.949 1_565 S
H235 C209 0.950 . S
H236 C216 0.949 . S
H237 C218 0.950 . S
C238 O254 1.251 . S
C238 O256 1.254 . S
N239 C240 1.333 . S
N239 C244 1.307 . S
N239 Zn245 2.020 . S
C240 N239 1.333 . S
C240 C241 1.379 . S
C240 H258 0.952 1_565 S
C241 C240 1.379 . S
C241 C242 1.390 . S
C241 H268 0.949 1_565 S
C242 C241 1.390 . S
C242 C243 1.357 . S
C243 C242 1.357 . S
C243 C244 1.370 . S
C243 H269 0.950 . S
C244 N239 1.307 . S
C244 C243 1.370 . S
C244 H262 0.948 . S
Zn245 N239 2.020 . S
Zn245 O254 2.039 1_565 S
Zn245 O260 2.034 . S
Zn245 O264 2.025 . S
Zn245 O266 2.024 . S
C246 O265 1.246 . S
C246 O266 1.249 . S
N247 C248 1.307 . S
N247 C249 1.333 . S
N247 Zn253 2.020 . S
C248 N247 1.307 . S
C248 C252 1.370 . S
C248 H259 0.948 1_565 S
C249 N247 1.333 . S
C249 C250 1.379 . S
C249 H257 0.952 . S
C250 C249 1.379 . S
C250 C251 1.390 . S
C250 H270 0.949 . S
C251 C250 1.390 . S
C251 C252 1.357 . S
C252 C248 1.370 . S
C252 C251 1.357 . S
C252 H271 0.950 . S
Zn253 N247 2.020 . S
Zn253 O256 2.025 1_565 S
Zn253 O261 2.024 . S
Zn253 O263 2.039 . S
Zn253 O265 2.034 . S
O254 C238 1.251 . S
O254 Zn245 2.039 1_545 S
C255 O260 1.246 . S
C255 O261 1.249 . S
O256 C238 1.254 . S
O256 Zn253 2.025 1_545 S
H257 C249 0.952 . S
H258 C240 0.952 1_545 S
H259 C248 0.948 1_545 S
O260 Zn245 2.034 . S
O260 C255 1.246 . S
O261 Zn253 2.024 . S
O261 C255 1.249 . S
H262 C244 0.948 . S
O263 Zn253 2.039 . S
O263 C267 1.251 . S
O264 Zn245 2.025 . S
O264 C267 1.254 . S
O265 C246 1.246 . S
O265 Zn253 2.034 . S
O266 Zn245 2.024 . S
O266 C246 1.249 . S
C267 O263 1.251 . S
C267 O264 1.254 . S
H268 C241 0.949 1_545 S
H269 C243 0.950 . S
H270 C250 0.949 . S
H271 C252 0.950 . S
C272 O288 1.251 . S
C272 O290 1.254 . S
N273 C274 1.333 . S
N273 C278 1.307 . S
N273 Zn279 2.020 . S
C274 N273 1.333 . S
C274 C275 1.379 . S
C274 H292 0.952 . S
C275 C274 1.379 . S
C275 C276 1.390 . S
C275 H302 0.949 . S
C276 C275 1.390 . S
C276 C277 1.357 . S
C277 C276 1.357 . S
C277 C278 1.370 . S
C277 H303 0.950 . S
C278 N273 1.307 . S
C278 C277 1.370 . S
C278 H296 0.948 . S
Zn279 N273 2.020 . S
Zn279 O288 2.039 . S
Zn279 O294 2.034 . S
Zn279 O298 2.025 . S
Zn279 O300 2.024 . S
C280 O299 1.246 . S
C280 O300 1.249 . S
N281 C282 1.307 . S
N281 C283 1.333 . S
N281 Zn287 2.020 . S
C282 N281 1.307 . S
C282 C286 1.370 . S
C282 H293 0.948 . S
C283 N281 1.333 . S
C283 C284 1.379 . S
C283 H291 0.952 . S
C284 C283 1.379 . S
C284 C285 1.390 . S
C284 H304 0.949 . S
C285 C284 1.390 . S
C285 C286 1.357 . S
C286 C282 1.370 . S
C286 C285 1.357 . S
C286 H305 0.950 . S
Zn287 N281 2.020 . S
Zn287 O290 2.025 . S
Zn287 O295 2.024 . S
Zn287 O297 2.039 . S
Zn287 O299 2.034 . S
O288 C272 1.251 . S
O288 Zn279 2.039 . S
C289 O294 1.246 . S
C289 O295 1.249 . S
O290 C272 1.254 . S
O290 Zn287 2.025 . S
H291 C283 0.952 . S
H292 C274 0.952 . S
H293 C282 0.948 . S
O294 Zn279 2.034 . S
O294 C289 1.246 . S
O295 Zn287 2.024 . S
O295 C289 1.249 . S
H296 C278 0.948 . S
O297 Zn287 2.039 . S
O297 C301 1.251 . S
O298 Zn279 2.025 . S
O298 C301 1.254 . S
O299 C280 1.246 . S
O299 Zn287 2.034 . S
O300 Zn279 2.024 . S
O300 C280 1.249 . S
C301 O297 1.251 . S
C301 O298 1.254 . S
H302 C275 0.949 . S
H303 C277 0.950 . S
H304 C284 0.949 . S
H305 C286 0.950 . S
C306 O322 1.251 . S
C306 O324 1.254 . S
N307 C308 1.333 . S
N307 C312 1.307 . S
N307 Zn313 2.020 . S
C308 N307 1.333 . S
C308 C309 1.379 . S
C308 H326 0.952 . S
C309 C308 1.379 . S
C309 C310 1.390 . S
C309 H336 0.949 . S
C310 C309 1.390 . S
C310 C311 1.357 . S
C311 C310 1.357 . S
C311 C312 1.370 . S
C311 H337 0.950 . S
C312 N307 1.307 . S
C312 C311 1.370 . S
C312 H330 0.948 . S
Zn313 N307 2.020 . S
Zn313 O322 2.039 . S
Zn313 O328 2.034 . S
Zn313 O332 2.025 . S
Zn313 O334 2.024 . S
C314 O333 1.246 . S
C314 O334 1.249 . S
N315 C316 1.307 . S
N315 C317 1.333 . S
N315 Zn321 2.020 . S
C316 N315 1.307 . S
C316 C320 1.370 . S
C316 H327 0.948 . S
C317 N315 1.333 . S
C317 C318 1.379 . S
C317 H325 0.952 . S
C318 C317 1.379 . S
C318 C319 1.390 . S
C318 H338 0.949 . S
C319 C318 1.390 . S
C319 C320 1.357 . S
C320 C316 1.370 . S
C320 C319 1.357 . S
C320 H339 0.950 . S
Zn321 N315 2.020 . S
Zn321 O324 2.025 . S
Zn321 O329 2.024 . S
Zn321 O331 2.039 . S
Zn321 O333 2.034 . S
O322 C306 1.251 . S
O322 Zn313 2.039 . S
C323 O328 1.246 . S
C323 O329 1.249 . S
O324 C306 1.254 . S
O324 Zn321 2.025 . S
H325 C317 0.952 . S
H326 C308 0.952 . S
H327 C316 0.948 . S
O328 Zn313 2.034 . S
O328 C323 1.246 . S
O329 Zn321 2.024 . S
O329 C323 1.249 . S
H330 C312 0.948 . S
O331 Zn321 2.039 . S
O331 C335 1.251 . S
O332 Zn313 2.025 . S
O332 C335 1.254 . S
O333 C314 1.246 . S
O333 Zn321 2.034 . S
O334 Zn313 2.024 . S
O334 C314 1.249 . S
C335 O331 1.251 . S
C335 O332 1.254 . S
H336 C309 0.949 . S
H337 C311 0.950 . S
H338 C318 0.949 . S
H339 C320 0.950 . S
C340 O356 1.251 . S
C340 O358 1.254 . S
N341 C342 1.333 . S
N341 C346 1.307 . S
N341 Zn347 2.020 . S
C342 N341 1.333 . S
C342 C343 1.379 . S
C342 H360 0.952 . S
C343 C342 1.379 . S
C343 C344 1.390 . S
C343 H370 0.949 . S
C344 C343 1.390 . S
C344 C345 1.357 . S
C345 C344 1.357 . S
C345 C346 1.370 . S
C345 H371 0.950 . S
C346 N341 1.307 . S
C346 C345 1.370 . S
C346 H364 0.948 . S
Zn347 N341 2.020 . S
Zn347 O356 2.039 . S
Zn347 O362 2.034 . S
Zn347 O366 2.025 . S
Zn347 O368 2.024 . S
C348 O367 1.246 . S
C348 O368 1.249 . S
N349 C350 1.307 . S
N349 C351 1.333 . S
N349 Zn355 2.020 . S
C350 N349 1.307 . S
C350 C354 1.370 . S
C350 H361 0.948 . S
C351 N349 1.333 . S
C351 C352 1.379 . S
C351 H359 0.952 . S
C352 C351 1.379 . S
C352 C353 1.390 . S
C352 H372 0.949 . S
C353 C352 1.390 . S
C353 C354 1.357 . S
C354 C350 1.370 . S
C354 C353 1.357 . S
C354 H373 0.950 . S
Zn355 N349 2.020 . S
Zn355 O358 2.025 . S
Zn355 O363 2.024 . S
Zn355 O365 2.039 . S
Zn355 O367 2.034 . S
O356 C340 1.251 . S
O356 Zn347 2.039 . S
C357 O362 1.246 . S
C357 O363 1.249 . S
O358 C340 1.254 . S
O358 Zn355 2.025 . S
H359 C351 0.952 . S
H360 C342 0.952 . S
H361 C350 0.948 . S
O362 Zn347 2.034 . S
O362 C357 1.246 . S
O363 Zn355 2.024 . S
O363 C357 1.249 . S
H364 C346 0.948 . S
O365 Zn355 2.039 . S
O365 C369 1.251 . S
O366 Zn347 2.025 . S
O366 C369 1.254 . S
O367 C348 1.246 . S
O367 Zn355 2.034 . S
O368 Zn347 2.024 . S
O368 C348 1.249 . S
C369 O365 1.251 . S
C369 O366 1.254 . S
H370 C343 0.949 . S
H371 C345 0.950 . S
H372 C352 0.949 . S
H373 C354 0.950 . S
C374 O390 1.251 . S
C374 O392 1.254 . S
N375 C376 1.333 . S
N375 C380 1.307 . S
N375 Zn381 2.020 . S
C376 N375 1.333 . S
C376 C377 1.379 . S
C376 H394 0.952 . S
C377 C376 1.379 . S
C377 C378 1.390 . S
C377 H404 0.949 . S
C378 C377 1.390 . S
C378 C379 1.357 . S
C379 C378 1.357 . S
C379 C380 1.370 . S
C379 H405 0.950 . S
C380 N375 1.307 . S
C380 C379 1.370 . S
C380 H398 0.948 . S
Zn381 N375 2.020 . S
Zn381 O390 2.039 . S
Zn381 O396 2.034 . S
Zn381 O400 2.025 . S
Zn381 O402 2.024 . S
C382 O401 1.246 . S
C382 O402 1.249 . S
N383 C384 1.307 . S
N383 C385 1.333 . S
N383 Zn389 2.020 . S
C384 N383 1.307 . S
C384 C388 1.370 . S
C384 H395 0.948 . S
C385 N383 1.333 . S
C385 C386 1.379 . S
C385 H393 0.952 . S
C386 C385 1.379 . S
C386 C387 1.390 . S
C386 H406 0.949 . S
C387 C386 1.390 . S
C387 C388 1.357 . S
C388 C384 1.370 . S
C388 C387 1.357 . S
C388 H407 0.950 . S
Zn389 N383 2.020 . S
Zn389 O392 2.025 . S
Zn389 O397 2.024 . S
Zn389 O399 2.039 . S
Zn389 O401 2.034 . S
O390 C374 1.251 . S
O390 Zn381 2.039 . S
C391 O396 1.246 . S
C391 O397 1.249 . S
O392 C374 1.254 . S
O392 Zn389 2.025 . S
H393 C385 0.952 . S
H394 C376 0.952 . S
H395 C384 0.948 . S
O396 Zn381 2.034 . S
O396 C391 1.246 . S
O397 Zn389 2.024 . S
O397 C391 1.249 . S
H398 C380 0.948 . S
O399 Zn389 2.039 . S
O399 C403 1.251 . S
O400 Zn381 2.025 . S
O400 C403 1.254 . S
O401 C382 1.246 . S
O401 Zn389 2.034 . S
O402 Zn381 2.024 . S
O402 C382 1.249 . S
C403 O399 1.251 . S
C403 O400 1.254 . S
H404 C377 0.949 . S
H405 C379 0.950 . S
H406 C386 0.949 . S
H407 C388 0.950 . S
C408 O424 1.251 . S
C408 O426 1.254 . S
N409 C410 1.333 . S
N409 C414 1.307 . S
N409 Zn415 2.020 . S
C410 N409 1.333 . S
C410 C411 1.379 . S
C410 H428 0.952 . S
C411 C410 1.379 . S
C411 C412 1.390 . S
C411 H438 0.949 . S
C412 C411 1.390 . S
C412 C413 1.357 . S
C413 C412 1.357 . S
C413 C414 1.370 . S
C413 H439 0.950 . S
C414 N409 1.307 . S
C414 C413 1.370 . S
C414 H432 0.948 . S
Zn415 N409 2.020 . S
Zn415 O424 2.039 . S
Zn415 O430 2.034 . S
Zn415 O434 2.025 . S
Zn415 O436 2.024 . S
C416 O435 1.246 . S
C416 O436 1.249 . S
N417 C418 1.307 . S
N417 C419 1.333 . S
N417 Zn423 2.020 . S
C418 N417 1.307 . S
C418 C422 1.370 . S
C418 H429 0.948 . S
C419 N417 1.333 . S
C419 C420 1.379 . S
C419 H427 0.952 . S
C420 C419 1.379 . S
C420 C421 1.390 . S
C420 H440 0.949 . S
C421 C420 1.390 . S
C421 C422 1.357 . S
C422 C418 1.370 . S
C422 C421 1.357 . S
C422 H441 0.950 . S
Zn423 N417 2.020 . S
Zn423 O426 2.025 . S
Zn423 O431 2.024 . S
Zn423 O433 2.039 . S
Zn423 O435 2.034 . S
O424 C408 1.251 . S
O424 Zn415 2.039 . S
C425 O430 1.246 . S
C425 O431 1.249 . S
O426 C408 1.254 . S
O426 Zn423 2.025 . S
H427 C419 0.952 . S
H428 C410 0.952 . S
H429 C418 0.948 . S
O430 Zn415 2.034 . S
O430 C425 1.246 . S
O431 Zn423 2.024 . S
O431 C425 1.249 . S
H432 C414 0.948 . S
O433 Zn423 2.039 . S
O433 C437 1.251 . S
O434 Zn415 2.025 . S
O434 C437 1.254 . S
O435 C416 1.246 . S
O435 Zn423 2.034 . S
O436 Zn415 2.024 . S
O436 C416 1.249 . S
C437 O433 1.251 . S
C437 O434 1.254 . S
H438 C411 0.949 . S
H439 C413 0.950 . S
H440 C420 0.949 . S
H441 C422 0.950 . S
C442 O458 1.251 . S
C442 O460 1.254 . S
N443 C444 1.333 . S
N443 C448 1.307 . S
N443 Zn449 2.020 . S
C444 N443 1.333 . S
C444 C445 1.379 . S
C444 H462 0.952 . S
C445 C444 1.379 . S
C445 C446 1.390 . S
C445 H472 0.949 . S
C446 C445 1.390 . S
C446 C447 1.357 . S
C447 C446 1.357 . S
C447 C448 1.370 . S
C447 H473 0.950 . S
C448 N443 1.307 . S
C448 C447 1.370 . S
C448 H466 0.948 . S
Zn449 N443 2.020 . S
Zn449 O458 2.039 . S
Zn449 O464 2.034 . S
Zn449 O468 2.025 . S
Zn449 O470 2.024 . S
C450 O469 1.246 . S
C450 O470 1.249 . S
N451 C452 1.307 . S
N451 C453 1.333 . S
N451 Zn457 2.020 . S
C452 N451 1.307 . S
C452 C456 1.370 . S
C452 H463 0.948 . S
C453 N451 1.333 . S
C453 C454 1.379 . S
C453 H461 0.952 . S
C454 C453 1.379 . S
C454 C455 1.390 . S
C454 H474 0.949 . S
C455 C454 1.390 . S
C455 C456 1.357 . S
C456 C452 1.370 . S
C456 C455 1.357 . S
C456 H475 0.950 . S
Zn457 N451 2.020 . S
Zn457 O460 2.025 . S
Zn457 O465 2.024 . S
Zn457 O467 2.039 . S
Zn457 O469 2.034 . S
O458 C442 1.251 . S
O458 Zn449 2.039 . S
C459 O464 1.246 . S
C459 O465 1.249 . S
O460 C442 1.254 . S
O460 Zn457 2.025 . S
H461 C453 0.952 . S
H462 C444 0.952 . S
H463 C452 0.948 . S
O464 Zn449 2.034 . S
O464 C459 1.246 . S
O465 Zn457 2.024 . S
O465 C459 1.249 . S
H466 C448 0.948 . S
O467 Zn457 2.039 . S
O467 C471 1.251 . S
O468 Zn449 2.025 . S
O468 C471 1.254 . S
O469 C450 1.246 . S
O469 Zn457 2.034 . S
O470 Zn449 2.024 . S
O470 C450 1.249 . S
C471 O467 1.251 . S
C471 O468 1.254 . S
H472 C445 0.949 . S
H473 C447 0.950 . S
H474 C454 0.949 . S
H475 C456 0.950 . S
C476 O492 1.251 . S
C476 O494 1.254 . S
N477 C478 1.333 . S
N477 C482 1.307 . S
N477 Zn483 2.020 . S
C478 N477 1.333 . S
C478 C479 1.379 . S
C478 H496 0.952 . S
C479 C478 1.379 . S
C479 C480 1.390 . S
C479 H506 0.949 . S
C480 C479 1.390 . S
C480 C481 1.357 . S
C481 C480 1.357 . S
C481 C482 1.370 . S
C481 H507 0.950 . S
C482 N477 1.307 . S
C482 C481 1.370 . S
C482 H500 0.948 . S
Zn483 N477 2.020 . S
Zn483 O492 2.039 . S
Zn483 O498 2.034 . S
Zn483 O502 2.025 . S
Zn483 O504 2.024 . S
C484 O503 1.246 . S
C484 O504 1.249 . S
N485 C486 1.307 . S
N485 C487 1.333 . S
N485 Zn491 2.020 . S
C486 N485 1.307 . S
C486 C490 1.370 . S
C486 H497 0.948 . S
C487 N485 1.333 . S
C487 C488 1.379 . S
C487 H495 0.952 . S
C488 C487 1.379 . S
C488 C489 1.390 . S
C488 H508 0.949 . S
C489 C488 1.390 . S
C489 C490 1.357 . S
C490 C486 1.370 . S
C490 C489 1.357 . S
C490 H509 0.950 . S
Zn491 N485 2.020 . S
Zn491 O494 2.025 . S
Zn491 O499 2.024 . S
Zn491 O501 2.039 . S
Zn491 O503 2.034 . S
O492 C476 1.251 . S
O492 Zn483 2.039 . S
C493 O498 1.246 . S
C493 O499 1.249 . S
O494 C476 1.254 . S
O494 Zn491 2.025 . S
H495 C487 0.952 . S
H496 C478 0.952 . S
H497 C486 0.948 . S
O498 Zn483 2.034 . S
O498 C493 1.246 . S
O499 Zn491 2.024 . S
O499 C493 1.249 . S
H500 C482 0.948 . S
O501 Zn491 2.039 . S
O501 C505 1.251 . S
O502 Zn483 2.025 . S
O502 C505 1.254 . S
O503 C484 1.246 . S
O503 Zn491 2.034 . S
O504 Zn483 2.024 . S
O504 C484 1.249 . S
C505 O501 1.251 . S
C505 O502 1.254 . S
H506 C479 0.949 . S
H507 C481 0.950 . S
H508 C488 0.949 . S
H509 C490 0.950 . S
C510 O526 1.251 . S
C510 O528 1.254 . S
N511 C512 1.333 . S
N511 C516 1.307 . S
N511 Zn517 2.020 . S
C512 N511 1.333 . S
C512 C513 1.379 . S
C512 H530 0.952 . S
C513 C512 1.379 . S
C513 C514 1.390 . S
C513 H540 0.949 . S
C514 C513 1.390 . S
C514 C515 1.357 . S
C515 C514 1.357 . S
C515 C516 1.370 . S
C515 H541 0.950 . S
C516 N511 1.307 . S
C516 C515 1.370 . S
C516 H534 0.948 . S
Zn517 N511 2.020 . S
Zn517 O526 2.039 . S
Zn517 O532 2.034 . S
Zn517 O536 2.025 . S
Zn517 O538 2.024 . S
C518 O537 1.246 . S
C518 O538 1.249 . S
N519 C520 1.307 . S
N519 C521 1.333 . S
N519 Zn525 2.020 . S
C520 N519 1.307 . S
C520 C524 1.370 . S
C520 H531 0.948 . S
C521 N519 1.333 . S
C521 C522 1.379 . S
C521 H529 0.952 . S
C522 C521 1.379 . S
C522 C523 1.390 . S
C522 H542 0.949 . S
C523 C522 1.390 . S
C523 C524 1.357 . S
C524 C520 1.370 . S
C524 C523 1.357 . S
C524 H543 0.950 . S
Zn525 N519 2.020 . S
Zn525 O528 2.025 . S
Zn525 O533 2.024 . S
Zn525 O535 2.039 . S
Zn525 O537 2.034 . S
O526 C510 1.251 . S
O526 Zn517 2.039 . S
C527 O532 1.246 . S
C527 O533 1.249 . S
O528 C510 1.254 . S
O528 Zn525 2.025 . S
H529 C521 0.952 . S
H530 C512 0.952 . S
H531 C520 0.948 . S
O532 Zn517 2.034 . S
O532 C527 1.246 . S
O533 Zn525 2.024 . S
O533 C527 1.249 . S
H534 C516 0.948 . S
O535 Zn525 2.039 . S
O535 C539 1.251 . S
O536 Zn517 2.025 . S
O536 C539 1.254 . S
O537 C518 1.246 . S
O537 Zn525 2.034 . S
O538 Zn517 2.024 . S
O538 C518 1.249 . S
C539 O535 1.251 . S
C539 O536 1.254 . S
H540 C513 0.949 . S
H541 C515 0.950 . S
H542 C522 0.949 . S
H543 C524 0.950 . S
H544 C550 0.930 . S
H545 C554 0.930 . S
H546 C559 0.929 . S
H547 C557 0.929 . S
H548 C552 0.929 . S
H549 C558 0.929 . S
C550 H544 0.930 . S
C550 C551 1.367 . S
C550 C558 1.378 . S
C551 C550 1.367 . S
C551 C559 1.433 . S
C552 H548 0.929 . S
C552 C554 1.378 . S
C552 C556 1.350 . S
C553 C556 1.463 . S
C553 C558 1.350 . S
C553 N561 1.427 . S
C554 H545 0.930 . S
C554 C552 1.378 . S
C554 C555 1.367 . S
C555 C554 1.367 . S
C555 C557 1.433 . S
C556 C552 1.350 . S
C556 C553 1.463 . S
C556 N560 1.427 . S
C557 H547 0.929 . S
C557 C555 1.433 . S
C557 N560 1.384 . S
C558 H549 0.929 . S
C558 C550 1.378 . S
C558 C553 1.350 . S
C559 H546 0.929 . S
C559 C551 1.433 . S
C559 N561 1.384 . S
N560 C556 1.427 . S
N560 C557 1.384 . S
N561 C553 1.427 . S
N561 C559 1.384 . S
H562 C568 0.930 . S
H563 C572 0.930 . S
H564 C577 0.929 . S
H565 C575 0.929 . S
H566 C570 0.929 . S
H567 C576 0.929 . S
C568 H562 0.930 . S
C568 C569 1.367 . S
C568 C576 1.378 . S
C569 C568 1.367 . S
C569 C577 1.433 . S
C570 H566 0.929 . S
C570 C572 1.378 . S
C570 C574 1.350 . S
C571 C574 1.463 . S
C571 C576 1.350 . S
C571 N579 1.427 . S
C572 H563 0.930 . S
C572 C570 1.378 . S
C572 C573 1.367 . S
C573 C572 1.367 . S
C573 C575 1.433 . S
C574 C570 1.350 . S
C574 C571 1.463 . S
C574 N578 1.427 . S
C575 H565 0.929 . S
C575 C573 1.433 . S
C575 N578 1.384 . S
C576 H567 0.929 . S
C576 C568 1.378 . S
C576 C571 1.350 . S
C577 H564 0.929 . S
C577 C569 1.433 . S
C577 N579 1.384 . S
N578 C574 1.427 . S
N578 C575 1.384 . S
N579 C571 1.427 . S
N579 C577 1.384 . S
H580 C586 0.930 . S
H581 C590 0.930 . S
H582 C595 0.929 . S
H583 C593 0.929 . S
H584 C588 0.929 . S
H585 C594 0.929 . S
C586 H580 0.930 . S
C586 C587 1.367 . S
C586 C594 1.378 . S
C587 C586 1.367 . S
C587 C595 1.433 . S
C588 H584 0.929 . S
C588 C590 1.378 . S
C588 C592 1.350 . S
C589 C592 1.463 . S
C589 C594 1.350 . S
C589 N597 1.427 . S
C590 H581 0.930 . S
C590 C588 1.378 . S
C590 C591 1.367 . S
C591 C590 1.367 . S
C591 C593 1.433 . S
C592 C588 1.350 . S
C592 C589 1.463 . S
C592 N596 1.427 . S
C593 H583 0.929 . S
C593 C591 1.433 . S
C593 N596 1.384 . S
C594 H585 0.929 . S
C594 C586 1.378 . S
C594 C589 1.350 . S
C595 H582 0.929 . S
C595 C587 1.433 . S
C595 N597 1.384 . S
N596 C592 1.427 . S
N596 C593 1.384 . S
N597 C589 1.427 . S
N597 C595 1.384 . S
H598 C604 0.930 . S
H599 C608 0.930 . S
H600 C613 0.929 . S
H601 C611 0.929 . S
H602 C606 0.929 . S
H603 C612 0.929 . S
C604 H598 0.930 . S
C604 C605 1.367 . S
C604 C612 1.378 . S
C605 C604 1.367 . S
C605 C613 1.433 . S
C606 H602 0.929 . S
C606 C608 1.378 . S
C606 C610 1.350 . S
C607 C610 1.463 . S
C607 C612 1.350 . S
C607 N615 1.427 . S
C608 H599 0.930 . S
C608 C606 1.378 . S
C608 C609 1.367 . S
C609 C608 1.367 . S
C609 C611 1.433 . S
C610 C606 1.350 . S
C610 C607 1.463 . S
C610 N614 1.427 . S
C611 H601 0.929 . S
C611 C609 1.433 . S
C611 N614 1.384 . S
C612 H603 0.929 . S
C612 C604 1.378 . S
C612 C607 1.350 . S
C613 H600 0.929 . S
C613 C605 1.433 . S
C613 N615 1.384 . S
N614 C610 1.427 . S
N614 C611 1.384 . S
N615 C607 1.427 . S
N615 C613 1.384 . S
H616 C622 0.930 . S
H617 C626 0.930 . S
H618 C631 0.929 . S
H619 C629 0.929 . S
H620 C624 0.929 . S
H621 C630 0.929 . S
C622 H616 0.930 . S
C622 C623 1.367 . S
C622 C630 1.378 . S
C623 C622 1.367 . S
C623 C631 1.433 . S
C624 H620 0.929 . S
C624 C626 1.378 . S
C624 C628 1.350 . S
C625 C628 1.463 . S
C625 C630 1.350 . S
C625 N633 1.427 . S
C626 H617 0.930 . S
C626 C624 1.378 . S
C626 C627 1.367 . S
C627 C626 1.367 . S
C627 C629 1.433 . S
C628 C624 1.350 . S
C628 C625 1.463 . S
C628 N632 1.427 . S
C629 H619 0.929 . S
C629 C627 1.433 . S
C629 N632 1.384 . S
C630 H621 0.929 . S
C630 C622 1.378 . S
C630 C625 1.350 . S
C631 H618 0.929 . S
C631 C623 1.433 . S
C631 N633 1.384 . S
N632 C628 1.427 . S
N632 C629 1.384 . S
N633 C625 1.427 . S
N633 C631 1.384 . S
H634 C640 0.930 . S
H635 C644 0.930 . S
H636 C649 0.929 . S
H637 C647 0.929 . S
H638 C642 0.929 . S
H639 C648 0.929 . S
C640 H634 0.930 . S
C640 C641 1.367 . S
C640 C648 1.378 . S
C641 C640 1.367 . S
C641 C649 1.433 . S
C642 H638 0.929 . S
C642 C644 1.378 . S
C642 C646 1.350 . S
C643 C646 1.463 . S
C643 C648 1.350 . S
C643 N651 1.427 . S
C644 H635 0.930 . S
C644 C642 1.378 . S
C644 C645 1.367 . S
C645 C644 1.367 . S
C645 C647 1.433 . S
C646 C642 1.350 . S
C646 C643 1.463 . S
C646 N650 1.427 . S
C647 H637 0.929 . S
C647 C645 1.433 . S
C647 N650 1.384 . S
C648 H639 0.929 . S
C648 C640 1.378 . S
C648 C643 1.350 . S
C649 H636 0.929 . S
C649 C641 1.433 . S
C649 N651 1.384 . S
N650 C646 1.427 . S
N650 C647 1.384 . S
N651 C643 1.427 . S
N651 C649 1.384 . S
H652 C658 0.930 . S
H653 C662 0.930 . S
H654 C667 0.929 . S
H655 C665 0.929 . S
H656 C660 0.929 . S
H657 C666 0.929 . S
C658 H652 0.930 . S
C658 C659 1.367 . S
C658 C666 1.378 . S
C659 C658 1.367 . S
C659 C667 1.433 . S
C660 H656 0.929 . S
C660 C662 1.378 . S
C660 C664 1.350 . S
C661 C664 1.463 . S
C661 C666 1.350 . S
C661 N669 1.427 . S
C662 H653 0.930 . S
C662 C660 1.378 . S
C662 C663 1.367 . S
C663 C662 1.367 . S
C663 C665 1.433 . S
C664 C660 1.350 . S
C664 C661 1.463 . S
C664 N668 1.427 . S
C665 H655 0.929 . S
C665 C663 1.433 . S
C665 N668 1.384 . S
C666 H657 0.929 . S
C666 C658 1.378 . S
C666 C661 1.350 . S
C667 H654 0.929 . S
C667 C659 1.433 . S
C667 N669 1.384 . S
N668 C664 1.427 . S
N668 C665 1.384 . S
N669 C661 1.427 . S
N669 C667 1.384 . S
H670 C676 0.930 . S
H671 C680 0.930 . S
H672 C685 0.929 . S
H673 C683 0.929 . S
H674 C678 0.929 . S
H675 C684 0.929 . S
C676 H670 0.930 . S
C676 C677 1.367 . S
C676 C684 1.378 . S
C677 C676 1.367 . S
C677 C685 1.433 . S
C678 H674 0.929 . S
C678 C680 1.378 . S
C678 C682 1.350 . S
C679 C682 1.463 . S
C679 C684 1.350 . S
C679 N687 1.427 . S
C680 H671 0.930 . S
C680 C678 1.378 . S
C680 C681 1.367 . S
C681 C680 1.367 . S
C681 C683 1.433 . S
C682 C678 1.350 . S
C682 C679 1.463 . S
C682 N686 1.427 . S
C683 H673 0.929 . S
C683 C681 1.433 . S
C683 N686 1.384 . S
C684 H675 0.929 . S
C684 C676 1.378 . S
C684 C679 1.350 . S
C685 H672 0.929 . S
C685 C677 1.433 . S
C685 N687 1.384 . S
N686 C682 1.427 . S
N686 C683 1.384 . S
N687 C679 1.427 . S
N687 C685 1.384 . S
H688 C694 0.930 . S
H689 C698 0.930 . S
H690 C703 0.929 . S
H691 C701 0.929 . S
H692 C696 0.929 . S
H693 C702 0.929 . S
C694 H688 0.930 . S
C694 C695 1.367 . S
C694 C702 1.378 . S
C695 C694 1.367 . S
C695 C703 1.433 1_565 S
C696 H692 0.929 . S
C696 C698 1.378 . S
C696 C700 1.350 . S
C697 C700 1.463 1_565 S
C697 C702 1.350 . S
C697 N705 1.427 1_565 S
C698 H689 0.930 . S
C698 C696 1.378 . S
C698 C699 1.367 . S
C699 C698 1.367 . S
C699 C701 1.433 1_545 S
C700 C696 1.350 . S
C700 C697 1.463 1_545 S
C700 N704 1.427 1_545 S
C701 H691 0.929 . S
C701 C699 1.433 1_565 S
C701 N704 1.384 . S
C702 H693 0.929 . S
C702 C694 1.378 . S
C702 C697 1.350 . S
C703 H690 0.929 . S
C703 C695 1.433 1_545 S
C703 N705 1.384 . S
N704 C700 1.427 1_565 S
N704 C701 1.384 . S
N705 C697 1.427 1_545 S
N705 C703 1.384 . S
H706 C712 0.930 . S
H707 C716 0.930 . S
H708 C721 0.929 . S
H709 C719 0.929 . S
H710 C714 0.929 . S
H711 C720 0.929 . S
C712 H706 0.930 . S
C712 C713 1.367 . S
C712 C720 1.378 . S
C713 C712 1.367 . S
C713 C721 1.433 1_545 S
C714 H710 0.929 . S
C714 C716 1.378 . S
C714 C718 1.350 . S
C715 C718 1.463 1_545 S
C715 C720 1.350 . S
C715 N723 1.427 1_545 S
C716 H707 0.930 . S
C716 C714 1.378 . S
C716 C717 1.367 . S
C717 C716 1.367 . S
C717 C719 1.433 1_565 S
C718 C714 1.350 . S
C718 C715 1.463 1_565 S
C718 N722 1.427 1_565 S
C719 H709 0.929 . S
C719 C717 1.433 1_545 S
C719 N722 1.384 . S
C720 H711 0.929 . S
C720 C712 1.378 . S
C720 C715 1.350 . S
C721 H708 0.929 . S
C721 C713 1.433 1_565 S
C721 N723 1.384 . S
N722 C718 1.427 1_545 S
N722 C719 1.384 . S
N723 C715 1.427 1_565 S
N723 C721 1.384 . S
H724 C730 0.930 . S
H725 C734 0.930 . S
H726 C739 0.929 . S
H727 C737 0.929 . S
H728 C732 0.929 . S
H729 C738 0.929 . S
C730 H724 0.930 . S
C730 C731 1.367 . S
C730 C738 1.378 . S
C731 C730 1.367 . S
C731 C739 1.433 1_545 S
C732 H728 0.929 . S
C732 C734 1.378 . S
C732 C736 1.350 . S
C733 C736 1.463 1_545 S
C733 C738 1.350 . S
C733 N741 1.427 1_545 S
C734 H725 0.930 . S
C734 C732 1.378 . S
C734 C735 1.367 . S
C735 C734 1.367 . S
C735 C737 1.433 1_565 S
C736 C732 1.350 . S
C736 C733 1.463 1_565 S
C736 N740 1.427 1_565 S
C737 H727 0.929 . S
C737 C735 1.433 1_545 S
C737 N740 1.384 . S
C738 H729 0.929 . S
C738 C730 1.378 . S
C738 C733 1.350 . S
C739 H726 0.929 . S
C739 C731 1.433 1_565 S
C739 N741 1.384 . S
N740 C736 1.427 1_545 S
N740 C737 1.384 . S
N741 C733 1.427 1_565 S
N741 C739 1.384 . S
H742 C748 0.930 . S
H743 C752 0.930 . S
H744 C757 0.929 . S
H745 C755 0.929 . S
H746 C750 0.929 . S
H747 C756 0.929 . S
C748 H742 0.930 . S
C748 C749 1.367 . S
C748 C756 1.378 . S
C749 C748 1.367 . S
C749 C757 1.433 1_545 S
C750 H746 0.929 . S
C750 C752 1.378 . S
C750 C754 1.350 . S
C751 C754 1.463 1_545 S
C751 C756 1.350 . S
C751 N759 1.427 1_545 S
C752 H743 0.930 . S
C752 C750 1.378 . S
C752 C753 1.367 . S
C753 C752 1.367 . S
C753 C755 1.433 1_565 S
C754 C750 1.350 . S
C754 C751 1.463 1_565 S
C754 N758 1.427 1_565 S
C755 H745 0.929 . S
C755 C753 1.433 1_545 S
C755 N758 1.384 . S
C756 H747 0.929 . S
C756 C748 1.378 . S
C756 C751 1.350 . S
C757 H744 0.929 . S
C757 C749 1.433 1_565 S
C757 N759 1.384 . S
N758 C754 1.427 1_545 S
N758 C755 1.384 . S
N759 C751 1.427 1_565 S
N759 C757 1.384 . S
H760 C766 0.930 . S
H761 C770 0.930 . S
H762 C775 0.929 . S
H763 C773 0.929 . S
H764 C768 0.929 . S
H765 C774 0.929 . S
C766 H760 0.930 . S
C766 C767 1.367 . S
C766 C774 1.378 . S
C767 C766 1.367 . S
C767 C775 1.433 . S
C768 H764 0.929 . S
C768 C770 1.378 . S
C768 C772 1.350 . S
C769 C772 1.463 . S
C769 C774 1.350 . S
C769 N777 1.427 . S
C770 H761 0.930 . S
C770 C768 1.378 . S
C770 C771 1.367 . S
C771 C770 1.367 . S
C771 C773 1.433 . S
C772 C768 1.350 . S
C772 C769 1.463 . S
C772 N776 1.427 . S
C773 H763 0.929 . S
C773 C771 1.433 . S
C773 N776 1.384 . S
C774 H765 0.929 . S
C774 C766 1.378 . S
C774 C769 1.350 . S
C775 H762 0.929 . S
C775 C767 1.433 . S
C775 N777 1.384 . S
N776 C772 1.427 . S
N776 C773 1.384 . S
N777 C769 1.427 . S
N777 C775 1.384 . S
H778 C784 0.930 . S
H779 C788 0.930 . S
H780 C793 0.929 . S
H781 C791 0.929 . S
H782 C786 0.929 . S
H783 C792 0.929 . S
C784 H778 0.930 . S
C784 C785 1.367 . S
C784 C792 1.378 . S
C785 C784 1.367 . S
C785 C793 1.433 . S
C786 H782 0.929 . S
C786 C788 1.378 . S
C786 C790 1.350 . S
C787 C790 1.463 . S
C787 C792 1.350 . S
C787 N795 1.427 . S
C788 H779 0.930 . S
C788 C786 1.378 . S
C788 C789 1.367 . S
C789 C788 1.367 . S
C789 C791 1.433 . S
C790 C786 1.350 . S
C790 C787 1.463 . S
C790 N794 1.427 . S
C791 H781 0.929 . S
C791 C789 1.433 . S
C791 N794 1.384 . S
C792 H783 0.929 . S
C792 C784 1.378 . S
C792 C787 1.350 . S
C793 H780 0.929 . S
C793 C785 1.433 . S
C793 N795 1.384 . S
N794 C790 1.427 . S
N794 C791 1.384 . S
N795 C787 1.427 . S
N795 C793 1.384 . S
H796 C802 0.930 . S
H797 C806 0.930 . S
H798 C811 0.929 . S
H799 C809 0.929 . S
H800 C804 0.929 . S
H801 C810 0.929 . S
C802 H796 0.930 . S
C802 C803 1.367 . S
C802 C810 1.378 . S
C803 C802 1.367 . S
C803 C811 1.433 . S
C804 H800 0.929 . S
C804 C806 1.378 . S
C804 C808 1.350 . S
C805 C808 1.463 . S
C805 C810 1.350 . S
C805 N813 1.427 . S
C806 H797 0.930 . S
C806 C804 1.378 . S
C806 C807 1.367 . S
C807 C806 1.367 . S
C807 C809 1.433 . S
C808 C804 1.350 . S
C808 C805 1.463 . S
C808 N812 1.427 . S
C809 H799 0.929 . S
C809 C807 1.433 . S
C809 N812 1.384 . S
C810 H801 0.929 . S
C810 C802 1.378 . S
C810 C805 1.350 . S
C811 H798 0.929 . S
C811 C803 1.433 . S
C811 N813 1.384 . S
N812 C808 1.427 . S
N812 C809 1.384 . S
N813 C805 1.427 . S
N813 C811 1.384 . S
H814 C820 0.930 . S
H815 C824 0.930 . S
H816 C829 0.929 . S
H817 C827 0.929 . S
H818 C822 0.929 . S
H819 C828 0.929 . S
C820 H814 0.930 . S
C820 C821 1.367 . S
C820 C828 1.378 . S
C821 C820 1.367 . S
C821 C829 1.433 . S
C822 H818 0.929 . S
C822 C824 1.378 . S
C822 C826 1.350 . S
C823 C826 1.463 . S
C823 C828 1.350 . S
C823 N831 1.427 . S
C824 H815 0.930 . S
C824 C822 1.378 . S
C824 C825 1.367 . S
C825 C824 1.367 . S
C825 C827 1.433 . S
C826 C822 1.350 . S
C826 C823 1.463 . S
C826 N830 1.427 . S
C827 H817 0.929 . S
C827 C825 1.433 . S
C827 N830 1.384 . S
C828 H819 0.929 . S
C828 C820 1.378 . S
C828 C823 1.350 . S
C829 H816 0.929 . S
C829 C821 1.433 . S
C829 N831 1.384 . S
N830 C826 1.427 . S
N830 C827 1.384 . S
N831 C823 1.427 . S
N831 C829 1.384 . S
H832 C838 0.930 . S
H833 C842 0.930 . S
H834 C847 0.929 . S
H835 C845 0.929 . S
H836 C840 0.929 . S
H837 C846 0.929 . S
C838 H832 0.930 . S
C838 C839 1.367 . S
C838 C846 1.378 . S
C839 C838 1.367 . S
C839 C847 1.433 . S
C840 H836 0.929 . S
C840 C842 1.378 . S
C840 C844 1.350 . S
C841 C844 1.463 1_556 S
C841 C846 1.350 . S
C841 N849 1.427 . S
C842 H833 0.930 . S
C842 C840 1.378 . S
C842 C843 1.367 . S
C843 C842 1.367 . S
C843 C845 1.433 . S
C844 C840 1.350 . S
C844 C841 1.463 1_554 S
C844 N848 1.427 . S
C845 H835 0.929 . S
C845 C843 1.433 . S
C845 N848 1.384 . S
C846 H837 0.929 . S
C846 C838 1.378 . S
C846 C841 1.350 . S
C847 H834 0.929 . S
C847 C839 1.433 . S
C847 N849 1.384 . S
N848 C844 1.427 . S
N848 C845 1.384 . S
N849 C841 1.427 . S
N849 C847 1.384 . S
H850 C856 0.930 . S
H851 C860 0.930 . S
H852 C865 0.929 . S
H853 C863 0.929 . S
H854 C858 0.929 . S
H855 C864 0.929 . S
C856 H850 0.930 . S
C856 C857 1.367 . S
C856 C864 1.378 . S
C857 C856 1.367 . S
C857 C865 1.433 . S
C858 H854 0.929 . S
C858 C860 1.378 . S
C858 C862 1.350 . S
C859 C862 1.463 1_556 S
C859 C864 1.350 . S
C859 N867 1.427 . S
C860 H851 0.930 . S
C860 C858 1.378 . S
C860 C861 1.367 . S
C861 C860 1.367 . S
C861 C863 1.433 . S
C862 C858 1.350 . S
C862 C859 1.463 1_554 S
C862 N866 1.427 . S
C863 H853 0.929 . S
C863 C861 1.433 . S
C863 N866 1.384 . S
C864 H855 0.929 . S
C864 C856 1.378 . S
C864 C859 1.350 . S
C865 H852 0.929 . S
C865 C857 1.433 . S
C865 N867 1.384 . S
N866 C862 1.427 . S
N866 C863 1.384 . S
N867 C859 1.427 . S
N867 C865 1.384 . S
H868 C874 0.930 . S
H869 C878 0.930 . S
H870 C883 0.929 . S
H871 C881 0.929 . S
H872 C876 0.929 . S
H873 C882 0.929 . S
C874 H868 0.930 . S
C874 C875 1.367 . S
C874 C882 1.378 . S
C875 C874 1.367 . S
C875 C883 1.433 . S
C876 H872 0.929 . S
C876 C878 1.378 . S
C876 C880 1.350 . S
C877 C880 1.463 . S
C877 C882 1.350 . S
C877 N885 1.427 . S
C878 H869 0.930 . S
C878 C876 1.378 . S
C878 C879 1.367 . S
C879 C878 1.367 . S
C879 C881 1.433 . S
C880 C876 1.350 . S
C880 C877 1.463 . S
C880 N884 1.427 . S
C881 H871 0.929 . S
C881 C879 1.433 . S
C881 N884 1.384 . S
C882 H873 0.929 . S
C882 C874 1.378 . S
C882 C877 1.350 . S
C883 H870 0.929 . S
C883 C875 1.433 . S
C883 N885 1.384 . S
N884 C880 1.427 . S
N884 C881 1.384 . S
N885 C877 1.427 . S
N885 C883 1.384 . S
H886 C892 0.930 . S
H887 C896 0.930 1_565 S
H888 C901 0.929 1_565 S
H889 C899 0.929 . S
H890 C894 0.929 1_565 S
H891 C900 0.929 . S
C892 H886 0.930 . S
C892 C893 1.367 . S
C892 C900 1.378 . S
C893 C892 1.367 . S
C893 C901 1.433 . S
C894 H890 0.929 1_545 S
C894 C896 1.378 . S
C894 C898 1.350 . S
C895 C898 1.463 . S
C895 C900 1.350 . S
C895 N903 1.427 . S
C896 H887 0.930 1_545 S
C896 C894 1.378 . S
C896 C897 1.367 . S
C897 C896 1.367 . S
C897 C899 1.433 . S
C898 C894 1.350 . S
C898 C895 1.463 . S
C898 N902 1.427 . S
C899 H889 0.929 . S
C899 C897 1.433 . S
C899 N902 1.384 . S
C900 H891 0.929 . S
C900 C892 1.378 . S
C900 C895 1.350 . S
C901 H888 0.929 1_545 S
C901 C893 1.433 . S
C901 N903 1.384 . S
N902 C898 1.427 . S
N902 C899 1.384 . S
N903 C895 1.427 . S
N903 C901 1.384 . S
H904 C910 0.930 . S
H905 C914 0.930 . S
H906 C919 0.929 . S
H907 C917 0.929 . S
H908 C912 0.929 . S
H909 C918 0.929 . S
C910 H904 0.930 . S
C910 C911 1.367 . S
C910 C918 1.378 . S
C911 C910 1.367 . S
C911 C919 1.433 . S
C912 H908 0.929 . S
C912 C914 1.378 . S
C912 C916 1.350 . S
C913 C916 1.463 1_554 S
C913 C918 1.350 . S
C913 N921 1.427 . S
C914 H905 0.930 . S
C914 C912 1.378 . S
C914 C915 1.367 . S
C915 C914 1.367 . S
C915 C917 1.433 . S
C916 C912 1.350 . S
C916 C913 1.463 1_556 S
C916 N920 1.427 . S
C917 H907 0.929 . S
C917 C915 1.433 . S
C917 N920 1.384 . S
C918 H909 0.929 . S
C918 C910 1.378 . S
C918 C913 1.350 . S
C919 H906 0.929 . S
C919 C911 1.433 . S
C919 N921 1.384 . S
N920 C916 1.427 . S
N920 C917 1.384 . S
N921 C913 1.427 . S
N921 C919 1.384 . S
H922 C928 0.930 . S
H923 C932 0.930 . S
H924 C937 0.929 . S
H925 C935 0.929 . S
H926 C930 0.929 . S
H927 C936 0.929 . S
C928 H922 0.930 . S
C928 C929 1.367 . S
C928 C936 1.378 . S
C929 C928 1.367 . S
C929 C937 1.433 . S
C930 H926 0.929 . S
C930 C932 1.378 . S
C930 C934 1.350 . S
C931 C934 1.463 1_556 S
C931 C936 1.350 . S
C931 N939 1.427 . S
C932 H923 0.930 . S
C932 C930 1.378 . S
C932 C933 1.367 . S
C933 C932 1.367 . S
C933 C935 1.433 . S
C934 C930 1.350 . S
C934 C931 1.463 1_554 S
C934 N938 1.427 . S
C935 H925 0.929 . S
C935 C933 1.433 . S
C935 N938 1.384 . S
C936 H927 0.929 . S
C936 C928 1.378 . S
C936 C931 1.350 . S
C937 H924 0.929 . S
C937 C929 1.433 . S
C937 N939 1.384 . S
N938 C934 1.427 . S
N938 C935 1.384 . S
N939 C931 1.427 . S
N939 C937 1.384 . S
H940 C946 0.930 . S
H941 C950 0.930 . S
H942 C955 0.929 . S
H943 C953 0.929 . S
H944 C948 0.929 . S
H945 C954 0.929 . S
C946 H940 0.930 . S
C946 C947 1.367 . S
C946 C954 1.378 . S
C947 C946 1.367 . S
C947 C955 1.433 . S
C948 H944 0.929 . S
C948 C950 1.378 . S
C948 C952 1.350 . S
C949 C952 1.463 . S
C949 C954 1.350 . S
C949 N957 1.427 . S
C950 H941 0.930 . S
C950 C948 1.378 . S
C950 C951 1.367 . S
C951 C950 1.367 . S
C951 C953 1.433 . S
C952 C948 1.350 . S
C952 C949 1.463 . S
C952 N956 1.427 . S
C953 H943 0.929 . S
C953 C951 1.433 . S
C953 N956 1.384 . S
C954 H945 0.929 . S
C954 C946 1.378 . S
C954 C949 1.350 . S
C955 H942 0.929 . S
C955 C947 1.433 . S
C955 N957 1.384 . S
N956 C952 1.427 . S
N956 C953 1.384 . S
N957 C949 1.427 . S
N957 C955 1.384 . S
H958 C964 0.930 . S
H959 C968 0.930 . S
H960 C973 0.929 . S
H961 C971 0.929 . S
H962 C966 0.929 . S
H963 C972 0.929 . S
C964 H958 0.930 . S
C964 C965 1.367 . S
C964 C972 1.378 . S
C965 C964 1.367 . S
C965 C973 1.433 . S
C966 H962 0.929 . S
C966 C968 1.378 . S
C966 C970 1.350 . S
C967 C970 1.463 . S
C967 C972 1.350 . S
C967 N975 1.427 . S
C968 H959 0.930 . S
C968 C966 1.378 . S
C968 C969 1.367 . S
C969 C968 1.367 . S
C969 C971 1.433 . S
C970 C966 1.350 . S
C970 C967 1.463 . S
C970 N974 1.427 . S
C971 H961 0.929 . S
C971 C969 1.433 . S
C971 N974 1.384 . S
C972 H963 0.929 . S
C972 C964 1.378 . S
C972 C967 1.350 . S
C973 H960 0.929 . S
C973 C965 1.433 . S
C973 N975 1.384 . S
N974 C970 1.427 . S
N974 C971 1.384 . S
N975 C967 1.427 . S
N975 C973 1.384 . S
H976 C982 0.930 . S
H977 C986 0.930 . S
H978 C991 0.929 . S
H979 C989 0.929 . S
H980 C984 0.929 . S
H981 C990 0.929 . S
C982 H976 0.930 . S
C982 C983 1.367 . S
C982 C990 1.378 . S
C983 C982 1.367 . S
C983 C991 1.433 1_565 S
C984 H980 0.929 . S
C984 C986 1.378 . S
C984 C988 1.350 . S
C985 C988 1.463 1_665 S
C985 C990 1.350 . S
C985 N993 1.427 1_565 S
C986 H977 0.930 . S
C986 C984 1.378 . S
C986 C987 1.367 . S
C987 C986 1.367 . S
C987 C989 1.433 1_545 S
C988 C984 1.350 . S
C988 C985 1.463 1_445 S
C988 N992 1.427 1_545 S
C989 H979 0.929 . S
C989 C987 1.433 1_565 S
C989 N992 1.384 . S
C990 H981 0.929 . S
C990 C982 1.378 . S
C990 C985 1.350 . S
C991 H978 0.929 . S
C991 C983 1.433 1_545 S
C991 N993 1.384 . S
N992 C988 1.427 1_565 S
N992 C989 1.384 . S
N993 C985 1.427 1_545 S
N993 C991 1.384 . S
H994 C1000 0.930 . S
H995 C1004 0.930 . S
H996 C1009 0.929 . S
H997 C1007 0.929 . S
H998 C1002 0.929 . S
H999 C1008 0.929 . S
C1000 H994 0.930 . S
C1000 C1001 1.367 . S
C1000 C1008 1.378 . S
C1001 C1000 1.367 . S
C1001 C1009 1.433 1_545 S
C1002 H998 0.929 . S
C1002 C1004 1.378 . S
C1002 C1006 1.350 . S
C1003 C1006 1.463 1_645 S
C1003 C1008 1.350 . S
C1003 N1011 1.427 1_545 S
C1004 H995 0.930 . S
C1004 C1002 1.378 . S
C1004 C1005 1.367 . S
C1005 C1004 1.367 . S
C1005 C1007 1.433 1_565 S
C1006 C1002 1.350 . S
C1006 C1003 1.463 1_465 S
C1006 N1010 1.427 1_565 S
C1007 H997 0.929 . S
C1007 C1005 1.433 1_545 S
C1007 N1010 1.384 . S
C1008 H999 0.929 . S
C1008 C1000 1.378 . S
C1008 C1003 1.350 . S
C1009 H996 0.929 . S
C1009 C1001 1.433 1_565 S
C1009 N1011 1.384 . S
N1010 C1006 1.427 1_545 S
N1010 C1007 1.384 . S
N1011 C1003 1.427 1_565 S
N1011 C1009 1.384 . S
H1012 C1018 0.930 . S
H1013 C1022 0.930 . S
H1014 C1027 0.929 . S
H1015 C1025 0.929 . S
H1016 C1020 0.929 . S
H1017 C1026 0.929 . S
C1018 H1012 0.930 . S
C1018 C1019 1.367 . S
C1018 C1026 1.378 . S
C1019 C1018 1.367 . S
C1019 C1027 1.433 . S
C1020 H1016 0.929 . S
C1020 C1022 1.378 . S
C1020 C1024 1.350 . S
C1021 C1024 1.463 1_445 S
C1021 C1026 1.350 . S
C1021 N1029 1.427 . S
C1022 H1013 0.930 . S
C1022 C1020 1.378 . S
C1022 C1023 1.367 . S
C1023 C1022 1.367 . S
C1023 C1025 1.433 . S
C1024 C1020 1.350 . S
C1024 C1021 1.463 1_665 S
C1024 N1028 1.427 . S
C1025 H1015 0.929 . S
C1025 C1023 1.433 . S
C1025 N1028 1.384 . S
C1026 H1017 0.929 . S
C1026 C1018 1.378 . S
C1026 C1021 1.350 . S
C1027 H1014 0.929 . S
C1027 C1019 1.433 . S
C1027 N1029 1.384 . S
N1028 C1024 1.427 . S
N1028 C1025 1.384 . S
N1029 C1021 1.427 . S
N1029 C1027 1.384 . S
H1030 C1036 0.930 . S
H1031 C1040 0.930 . S
H1032 C1045 0.929 . S
H1033 C1043 0.929 . S
H1034 C1038 0.929 . S
H1035 C1044 0.929 . S
C1036 H1030 0.930 . S
C1036 C1037 1.367 1_565 S
C1036 C1044 1.378 . S
C1037 C1036 1.367 1_545 S
C1037 C1045 1.433 . S
C1038 H1034 0.929 . S
C1038 C1040 1.378 . S
C1038 C1042 1.350 1_545 S
C1039 C1042 1.463 1_645 S
C1039 C1044 1.350 1_545 S
C1039 N1047 1.427 . S
C1040 H1031 0.930 . S
C1040 C1038 1.378 . S
C1040 C1041 1.367 1_545 S
C1041 C1040 1.367 1_565 S
C1041 C1043 1.433 . S
C1042 C1038 1.350 1_565 S
C1042 C1039 1.463 1_465 S
C1042 N1046 1.427 . S
C1043 H1033 0.929 . S
C1043 C1041 1.433 . S
C1043 N1046 1.384 . S
C1044 H1035 0.929 . S
C1044 C1036 1.378 . S
C1044 C1039 1.350 1_565 S
C1045 H1032 0.929 . S
C1045 C1037 1.433 . S
C1045 N1047 1.384 . S
N1046 C1042 1.427 . S
N1046 C1043 1.384 . S
N1047 C1039 1.427 . S
N1047 C1045 1.384 . S
H1048 C1054 0.930 . S
H1049 C1058 0.930 . S
H1050 C1063 0.929 . S
H1051 C1061 0.929 . S
H1052 C1056 0.929 . S
H1053 C1062 0.929 . S
C1054 H1048 0.930 . S
C1054 C1055 1.367 . S
C1054 C1062 1.378 . S
C1055 C1054 1.367 . S
C1055 C1063 1.433 . S
C1056 H1052 0.929 . S
C1056 C1058 1.378 . S
C1056 C1060 1.350 . S
C1057 C1060 1.463 . S
C1057 C1062 1.350 . S
C1057 N1065 1.427 . S
C1058 H1049 0.930 . S
C1058 C1056 1.378 . S
C1058 C1059 1.367 . S
C1059 C1058 1.367 . S
C1059 C1061 1.433 . S
C1060 C1056 1.350 . S
C1060 C1057 1.463 . S
C1060 N1064 1.427 . S
C1061 H1051 0.929 . S
C1061 C1059 1.433 . S
C1061 N1064 1.384 . S
C1062 H1053 0.929 . S
C1062 C1054 1.378 . S
C1062 C1057 1.350 . S
C1063 H1050 0.929 . S
C1063 C1055 1.433 . S
C1063 N1065 1.384 . S
N1064 C1060 1.427 . S
N1064 C1061 1.384 . S
N1065 C1057 1.427 . S
N1065 C1063 1.384 . S
H1066 C1072 0.930 . S
H1067 C1076 0.930 . S
H1068 C1081 0.929 . S
H1069 C1079 0.929 . S
H1070 C1074 0.929 . S
H1071 C1080 0.929 . S
C1072 H1066 0.930 . S
C1072 C1073 1.367 . S
C1072 C1080 1.378 . S
C1073 C1072 1.367 . S
C1073 C1081 1.433 . S
C1074 H1070 0.929 . S
C1074 C1076 1.378 . S
C1074 C1078 1.350 . S
C1075 C1078 1.463 . S
C1075 C1080 1.350 . S
C1075 N1083 1.427 . S
C1076 H1067 0.930 . S
C1076 C1074 1.378 . S
C1076 C1077 1.367 . S
C1077 C1076 1.367 . S
C1077 C1079 1.433 . S
C1078 C1074 1.350 . S
C1078 C1075 1.463 . S
C1078 N1082 1.427 . S
C1079 H1069 0.929 . S
C1079 C1077 1.433 . S
C1079 N1082 1.384 . S
C1080 H1071 0.929 . S
C1080 C1072 1.378 . S
C1080 C1075 1.350 . S
C1081 H1068 0.929 . S
C1081 C1073 1.433 . S
C1081 N1083 1.384 . S
N1082 C1078 1.427 . S
N1082 C1079 1.384 . S
N1083 C1075 1.427 . S
N1083 C1081 1.384 . S
H1084 C1090 0.930 . S
H1085 C1094 0.930 . S
H1086 C1099 0.929 . S
H1087 C1097 0.929 . S
H1088 C1092 0.929 . S
H1089 C1098 0.929 . S
C1090 H1084 0.930 . S
C1090 C1091 1.367 . S
C1090 C1098 1.378 . S
C1091 C1090 1.367 . S
C1091 C1099 1.433 . S
C1092 H1088 0.929 . S
C1092 C1094 1.378 . S
C1092 C1096 1.350 . S
C1093 C1096 1.463 . S
C1093 C1098 1.350 . S
C1093 N1101 1.427 . S
C1094 H1085 0.930 . S
C1094 C1092 1.378 . S
C1094 C1095 1.367 . S
C1095 C1094 1.367 . S
C1095 C1097 1.433 . S
C1096 C1092 1.350 . S
C1096 C1093 1.463 . S
C1096 N1100 1.427 . S
C1097 H1087 0.929 . S
C1097 C1095 1.433 . S
C1097 N1100 1.384 . S
C1098 H1089 0.929 . S
C1098 C1090 1.378 . S
C1098 C1093 1.350 . S
C1099 H1086 0.929 . S
C1099 C1091 1.433 . S
C1099 N1101 1.384 . S
N1100 C1096 1.427 . S
N1100 C1097 1.384 . S
N1101 C1093 1.427 . S
N1101 C1099 1.384 . S
H1102 C1108 0.930 . S
H1103 C1112 0.930 . S
H1104 C1117 0.929 . S
H1105 C1115 0.929 . S
H1106 C1110 0.929 . S
H1107 C1116 0.929 . S
C1108 H1102 0.930 . S
C1108 C1109 1.367 . S
C1108 C1116 1.378 . S
C1109 C1108 1.367 . S
C1109 C1117 1.433 . S
C1110 H1106 0.929 . S
C1110 C1112 1.378 . S
C1110 C1114 1.350 . S
C1111 C1114 1.463 . S
C1111 C1116 1.350 . S
C1111 N1119 1.427 . S
C1112 H1103 0.930 . S
C1112 C1110 1.378 . S
C1112 C1113 1.367 . S
C1113 C1112 1.367 . S
C1113 C1115 1.433 . S
C1114 C1110 1.350 . S
C1114 C1111 1.463 . S
C1114 N1118 1.427 . S
C1115 H1105 0.929 . S
C1115 C1113 1.433 . S
C1115 N1118 1.384 . S
C1116 H1107 0.929 . S
C1116 C1108 1.378 . S
C1116 C1111 1.350 . S
C1117 H1104 0.929 . S
C1117 C1109 1.433 . S
C1117 N1119 1.384 . S
N1118 C1114 1.427 . S
N1118 C1115 1.384 . S
N1119 C1111 1.427 . S
N1119 C1117 1.384 . S
H1120 C1126 0.930 . S
H1121 C1130 0.930 . S
H1122 C1135 0.929 . S
H1123 C1133 0.929 . S
H1124 C1128 0.929 . S
H1125 C1134 0.929 . S
C1126 H1120 0.930 . S
C1126 C1127 1.367 . S
C1126 C1134 1.378 . S
C1127 C1126 1.367 . S
C1127 C1135 1.433 . S
C1128 H1124 0.929 . S
C1128 C1130 1.378 . S
C1128 C1132 1.350 . S
C1129 C1132 1.463 . S
C1129 C1134 1.350 . S
C1129 N1137 1.427 . S
C1130 H1121 0.930 . S
C1130 C1128 1.378 . S
C1130 C1131 1.367 . S
C1131 C1130 1.367 . S
C1131 C1133 1.433 . S
C1132 C1128 1.350 . S
C1132 C1129 1.463 . S
C1132 N1136 1.427 . S
C1133 H1123 0.929 . S
C1133 C1131 1.433 . S
C1133 N1136 1.384 . S
C1134 H1125 0.929 . S
C1134 C1126 1.378 . S
C1134 C1129 1.350 . S
C1135 H1122 0.929 . S
C1135 C1127 1.433 . S
C1135 N1137 1.384 . S
N1136 C1132 1.427 . S
N1136 C1133 1.384 . S
N1137 C1129 1.427 . S
N1137 C1135 1.384 . S
H1138 C1144 0.930 . S
H1139 C1148 0.930 . S
H1140 C1153 0.929 . S
H1141 C1151 0.929 . S
H1142 C1146 0.929 . S
H1143 C1152 0.929 . S
C1144 H1138 0.930 . S
C1144 C1145 1.367 . S
C1144 C1152 1.378 . S
C1145 C1144 1.367 . S
C1145 C1153 1.433 . S
C1146 H1142 0.929 . S
C1146 C1148 1.378 . S
C1146 C1150 1.350 . S
C1147 C1150 1.463 . S
C1147 C1152 1.350 . S
C1147 N1155 1.427 . S
C1148 H1139 0.930 . S
C1148 C1146 1.378 . S
C1148 C1149 1.367 . S
C1149 C1148 1.367 . S
C1149 C1151 1.433 . S
C1150 C1146 1.350 . S
C1150 C1147 1.463 . S
C1150 N1154 1.427 . S
C1151 H1141 0.929 . S
C1151 C1149 1.433 . S
C1151 N1154 1.384 . S
C1152 H1143 0.929 . S
C1152 C1144 1.378 . S
C1152 C1147 1.350 . S
C1153 H1140 0.929 . S
C1153 C1145 1.433 . S
C1153 N1155 1.384 . S
N1154 C1150 1.427 . S
N1154 C1151 1.384 . S
N1155 C1147 1.427 . S
N1155 C1153 1.384 . S
H1156 C1162 0.930 . S
H1157 C1166 0.930 . S
H1158 C1171 0.929 . S
H1159 C1169 0.929 . S
H1160 C1164 0.929 . S
H1161 C1170 0.929 . S
C1162 H1156 0.930 . S
C1162 C1163 1.367 . S
C1162 C1170 1.378 . S
C1163 C1162 1.367 . S
C1163 C1171 1.433 . S
C1164 H1160 0.929 . S
C1164 C1166 1.378 . S
C1164 C1168 1.350 . S
C1165 C1168 1.463 . S
C1165 C1170 1.350 . S
C1165 N1173 1.427 . S
C1166 H1157 0.930 . S
C1166 C1164 1.378 . S
C1166 C1167 1.367 . S
C1167 C1166 1.367 . S
C1167 C1169 1.433 . S
C1168 C1164 1.350 . S
C1168 C1165 1.463 . S
C1168 N1172 1.427 . S
C1169 H1159 0.929 . S
C1169 C1167 1.433 . S
C1169 N1172 1.384 . S
C1170 H1161 0.929 . S
C1170 C1162 1.378 . S
C1170 C1165 1.350 . S
C1171 H1158 0.929 . S
C1171 C1163 1.433 . S
C1171 N1173 1.384 . S
N1172 C1168 1.427 . S
N1172 C1169 1.384 . S
N1173 C1165 1.427 . S
N1173 C1171 1.384 . S
H1174 C1180 0.930 . S
H1175 C1184 0.930 . S
H1176 C1189 0.929 . S
H1177 C1187 0.929 . S
H1178 C1182 0.929 . S
H1179 C1188 0.929 . S
C1180 H1174 0.930 . S
C1180 C1181 1.367 . S
C1180 C1188 1.378 . S
C1181 C1180 1.367 . S
C1181 C1189 1.433 . S
C1182 H1178 0.929 . S
C1182 C1184 1.378 . S
C1182 C1186 1.350 . S
C1183 C1186 1.463 . S
C1183 C1188 1.350 . S
C1183 N1191 1.427 . S
C1184 H1175 0.930 . S
C1184 C1182 1.378 . S
C1184 C1185 1.367 . S
C1185 C1184 1.367 . S
C1185 C1187 1.433 . S
C1186 C1182 1.350 . S
C1186 C1183 1.463 . S
C1186 N1190 1.427 . S
C1187 H1177 0.929 . S
C1187 C1185 1.433 . S
C1187 N1190 1.384 . S
C1188 H1179 0.929 . S
C1188 C1180 1.378 . S
C1188 C1183 1.350 . S
C1189 H1176 0.929 . S
C1189 C1181 1.433 . S
C1189 N1191 1.384 . S
N1190 C1186 1.427 . S
N1190 C1187 1.384 . S
N1191 C1183 1.427 . S
N1191 C1189 1.384 . S
H1192 C1198 0.930 . S
H1193 C1202 0.930 . S
H1194 C1207 0.929 . S
H1195 C1205 0.929 . S
H1196 C1200 0.929 . S
H1197 C1206 0.929 . S
C1198 H1192 0.930 . S
C1198 C1199 1.367 . S
C1198 C1206 1.378 . S
C1199 C1198 1.367 . S
C1199 C1207 1.433 . S
C1200 H1196 0.929 . S
C1200 C1202 1.378 . S
C1200 C1204 1.350 . S
C1201 C1204 1.463 . S
C1201 C1206 1.350 . S
C1201 N1209 1.427 . S
C1202 H1193 0.930 . S
C1202 C1200 1.378 . S
C1202 C1203 1.367 . S
C1203 C1202 1.367 . S
C1203 C1205 1.433 . S
C1204 C1200 1.350 . S
C1204 C1201 1.463 . S
C1204 N1208 1.427 . S
C1205 H1195 0.929 . S
C1205 C1203 1.433 . S
C1205 N1208 1.384 . S
C1206 H1197 0.929 . S
C1206 C1198 1.378 . S
C1206 C1201 1.350 . S
C1207 H1194 0.929 . S
C1207 C1199 1.433 . S
C1207 N1209 1.384 . S
N1208 C1204 1.427 . S
N1208 C1205 1.384 . S
N1209 C1201 1.427 . S
N1209 C1207 1.384 . S
H1210 C1216 0.930 . S
H1211 C1220 0.930 . S
H1212 C1225 0.929 . S
H1213 C1223 0.929 . S
H1214 C1218 0.929 . S
H1215 C1224 0.929 . S
C1216 H1210 0.930 . S
C1216 C1217 1.367 . S
C1216 C1224 1.378 . S
C1217 C1216 1.367 . S
C1217 C1225 1.433 . S
C1218 H1214 0.929 . S
C1218 C1220 1.378 . S
C1218 C1222 1.350 . S
C1219 C1222 1.463 . S
C1219 C1224 1.350 . S
C1219 N1227 1.427 . S
C1220 H1211 0.930 . S
C1220 C1218 1.378 . S
C1220 C1221 1.367 . S
C1221 C1220 1.367 . S
C1221 C1223 1.433 . S
C1222 C1218 1.350 . S
C1222 C1219 1.463 . S
C1222 N1226 1.427 . S
C1223 H1213 0.929 . S
C1223 C1221 1.433 . S
C1223 N1226 1.384 . S
C1224 H1215 0.929 . S
C1224 C1216 1.378 . S
C1224 C1219 1.350 . S
C1225 H1212 0.929 . S
C1225 C1217 1.433 . S
C1225 N1227 1.384 . S
N1226 C1222 1.427 . S
N1226 C1223 1.384 . S
N1227 C1219 1.427 . S
N1227 C1225 1.384 . S
H1228 C1234 0.930 . S
H1229 C1238 0.930 . S
H1230 C1243 0.929 . S
H1231 C1241 0.929 . S
H1232 C1236 0.929 . S
H1233 C1242 0.929 . S
C1234 H1228 0.930 . S
C1234 C1235 1.367 . S
C1234 C1242 1.378 . S
C1235 C1234 1.367 . S
C1235 C1243 1.433 . S
C1236 H1232 0.929 . S
C1236 C1238 1.378 . S
C1236 C1240 1.350 . S
C1237 C1240 1.463 . S
C1237 C1242 1.350 . S
C1237 N1245 1.427 . S
C1238 H1229 0.930 . S
C1238 C1236 1.378 . S
C1238 C1239 1.367 . S
C1239 C1238 1.367 . S
C1239 C1241 1.433 . S
C1240 C1236 1.350 . S
C1240 C1237 1.463 . S
C1240 N1244 1.427 . S
C1241 H1231 0.929 . S
C1241 C1239 1.433 . S
C1241 N1244 1.384 . S
C1242 H1233 0.929 . S
C1242 C1234 1.378 . S
C1242 C1237 1.350 . S
C1243 H1230 0.929 . S
C1243 C1235 1.433 . S
C1243 N1245 1.384 . S
N1244 C1240 1.427 . S
N1244 C1241 1.384 . S
N1245 C1237 1.427 . S
N1245 C1243 1.384 . S
H1246 C1252 0.930 . S
H1247 C1256 0.930 . S
H1248 C1261 0.929 . S
H1249 C1259 0.929 . S
H1250 C1254 0.929 . S
H1251 C1260 0.929 . S
C1252 H1246 0.930 . S
C1252 C1253 1.367 . S
C1252 C1260 1.378 . S
C1253 C1252 1.367 . S
C1253 C1261 1.433 . S
C1254 H1250 0.929 . S
C1254 C1256 1.378 . S
C1254 C1258 1.350 . S
C1255 C1258 1.463 . S
C1255 C1260 1.350 . S
C1255 N1263 1.427 . S
C1256 H1247 0.930 . S
C1256 C1254 1.378 . S
C1256 C1257 1.367 . S
C1257 C1256 1.367 . S
C1257 C1259 1.433 . S
C1258 C1254 1.350 . S
C1258 C1255 1.463 . S
C1258 N1262 1.427 . S
C1259 H1249 0.929 . S
C1259 C1257 1.433 . S
C1259 N1262 1.384 . S
C1260 H1251 0.929 . S
C1260 C1252 1.378 . S
C1260 C1255 1.350 . S
C1261 H1248 0.929 . S
C1261 C1253 1.433 . S
C1261 N1263 1.384 . S
N1262 C1258 1.427 . S
N1262 C1259 1.384 . S
N1263 C1255 1.427 . S
N1263 C1261 1.384 . S
H1264 C1270 0.930 . S
H1265 C1274 0.930 . S
H1266 C1279 0.929 . S
H1267 C1277 0.929 . S
H1268 C1272 0.929 . S
H1269 C1278 0.929 . S
C1270 H1264 0.930 . S
C1270 C1271 1.367 . S
C1270 C1278 1.378 1_565 S
C1271 C1270 1.367 . S
C1271 C1279 1.433 . S
C1272 H1268 0.929 . S
C1272 C1274 1.378 . S
C1272 C1276 1.350 . S
C1273 C1276 1.463 . S
C1273 C1278 1.350 . S
C1273 N1281 1.427 . S
C1274 H1265 0.930 . S
C1274 C1272 1.378 . S
C1274 C1275 1.367 . S
C1275 C1274 1.367 . S
C1275 C1277 1.433 . S
C1276 C1272 1.350 . S
C1276 C1273 1.463 . S
C1276 N1280 1.427 . S
C1277 H1267 0.929 . S
C1277 C1275 1.433 . S
C1277 N1280 1.384 . S
C1278 H1269 0.929 . S
C1278 C1270 1.378 1_545 S
C1278 C1273 1.350 . S
C1279 H1266 0.929 . S
C1279 C1271 1.433 . S
C1279 N1281 1.384 1_565 S
N1280 C1276 1.427 . S
N1280 C1277 1.384 . S
N1281 C1273 1.427 . S
N1281 C1279 1.384 1_545 S
H1282 C1288 0.930 . S
H1283 C1292 0.930 . S
H1284 C1297 0.929 . S
H1285 C1295 0.929 . S
H1286 C1290 0.933 . S
H1287 C1296 0.929 . S
C1288 H1282 0.930 . S
C1288 C1289 1.367 . S
C1288 C1296 1.378 . S
C1289 C1288 1.367 . S
C1289 C1297 1.433 . S
C1290 H1286 0.933 . S
C1290 C1292 1.369 1_565 S
C1290 C1294 1.355 . S
C1291 C1294 1.463 . S
C1291 C1296 1.350 . S
C1291 N1299 1.427 . S
C1292 H1283 0.930 . S
C1292 C1290 1.369 1_545 S
C1292 C1293 1.367 . S
C1293 C1292 1.367 . S
C1293 C1295 1.433 . S
C1294 C1290 1.355 . S
C1294 C1291 1.463 . S
C1294 N1298 1.427 . S
C1295 H1285 0.929 . S
C1295 C1293 1.433 . S
C1295 N1298 1.384 1_545 S
C1296 H1287 0.929 . S
C1296 C1288 1.378 . S
C1296 C1291 1.350 . S
C1297 H1284 0.929 . S
C1297 C1289 1.433 . S
C1297 N1299 1.384 . S
N1298 C1294 1.427 . S
N1298 C1295 1.384 1_565 S
N1299 C1291 1.427 . S
N1299 C1297 1.384 . S
H1300 C1306 0.930 . S
H1301 C1310 0.930 . S
H1302 C1315 0.929 . S
H1303 C1313 0.929 . S
H1304 C1308 0.929 . S
H1305 C1314 0.929 1_565 S
C1306 H1300 0.930 . S
C1306 C1307 1.367 . S
C1306 C1314 1.378 . S
C1307 C1306 1.367 . S
C1307 C1315 1.433 . S
C1308 H1304 0.929 . S
C1308 C1310 1.378 . S
C1308 C1312 1.350 . S
C1309 C1312 1.463 . S
C1309 C1314 1.350 1_565 S
C1309 N1317 1.427 . S
C1310 H1301 0.930 . S
C1310 C1308 1.378 . S
C1310 C1311 1.367 . S
C1311 C1310 1.367 . S
C1311 C1313 1.433 . S
C1312 C1308 1.350 . S
C1312 C1309 1.463 . S
C1312 N1316 1.427 . S
C1313 H1303 0.929 . S
C1313 C1311 1.433 . S
C1313 N1316 1.384 . S
C1314 H1305 0.929 1_545 S
C1314 C1306 1.378 . S
C1314 C1309 1.350 1_545 S
C1315 H1302 0.929 . S
C1315 C1307 1.433 . S
C1315 N1317 1.384 1_545 S
N1316 C1312 1.427 . S
N1316 C1313 1.384 . S
N1317 C1309 1.427 . S
N1317 C1315 1.384 1_565 S
H1318 C1324 0.930 . S
H1319 C1328 0.930 . S
H1320 C1333 0.929 . S
H1321 C1331 0.929 . S
H1322 C1326 0.929 . S
H1323 C1332 0.929 . S
C1324 H1318 0.930 . S
C1324 C1325 1.367 . S
C1324 C1332 1.378 1_565 S
C1325 C1324 1.367 . S
C1325 C1333 1.433 . S
C1326 H1322 0.929 . S
C1326 C1328 1.378 . S
C1326 C1330 1.350 . S
C1327 C1330 1.463 . S
C1327 C1332 1.350 . S
C1327 N1335 1.427 . S
C1328 H1319 0.930 . S
C1328 C1326 1.378 . S
C1328 C1329 1.367 . S
C1329 C1328 1.367 . S
C1329 C1331 1.433 . S
C1330 C1326 1.350 . S
C1330 C1327 1.463 . S
C1330 N1334 1.427 . S
C1331 H1321 0.929 . S
C1331 C1329 1.433 . S
C1331 N1334 1.384 . S
C1332 H1323 0.929 . S
C1332 C1324 1.378 1_545 S
C1332 C1327 1.350 . S
C1333 H1320 0.929 . S
C1333 C1325 1.433 . S
C1333 N1335 1.384 1_565 S
N1334 C1330 1.427 . S
N1334 C1331 1.384 . S
N1335 C1327 1.427 . S
N1335 C1333 1.384 1_545 S
H1336 C1342 0.930 . S
H1337 C1346 0.930 . S
H1338 C1351 0.929 . S
H1339 C1349 0.929 . S
H1340 C1344 0.929 . S
H1341 C1350 0.929 . S
C1342 H1336 0.930 . S
C1342 C1343 1.367 . S
C1342 C1350 1.378 . S
C1343 C1342 1.367 . S
C1343 C1351 1.433 . S
C1344 H1340 0.929 . S
C1344 C1346 1.378 1_565 S
C1344 C1348 1.350 . S
C1345 C1348 1.463 . S
C1345 C1350 1.350 . S
C1345 N1353 1.427 . S
C1346 H1337 0.930 . S
C1346 C1344 1.378 1_545 S
C1346 C1347 1.367 . S
C1347 C1346 1.367 . S
C1347 C1349 1.433 . S
C1348 C1344 1.350 . S
C1348 C1345 1.463 . S
C1348 N1352 1.427 1_565 S
C1349 H1339 0.929 . S
C1349 C1347 1.433 . S
C1349 N1352 1.384 . S
C1350 H1341 0.929 . S
C1350 C1342 1.378 . S
C1350 C1345 1.350 . S
C1351 H1338 0.929 . S
C1351 C1343 1.433 . S
C1351 N1353 1.384 . S
N1352 C1348 1.427 1_545 S
N1352 C1349 1.384 . S
N1353 C1345 1.427 . S
N1353 C1351 1.384 . S
H1354 C1360 0.930 . S
H1355 C1364 0.930 . S
H1356 C1369 0.929 . S
H1357 C1367 0.929 . S
H1358 C1362 0.929 . S
H1359 C1368 0.929 . S
C1360 H1354 0.930 . S
C1360 C1361 1.367 . S
C1360 C1368 1.378 . S
C1361 C1360 1.367 . S
C1361 C1369 1.433 . S
C1362 H1358 0.929 . S
C1362 C1364 1.378 1_545 S
C1362 C1366 1.350 . S
C1363 C1366 1.463 . S
C1363 C1368 1.350 . S
C1363 N1371 1.427 . S
C1364 H1355 0.930 . S
C1364 C1362 1.378 1_565 S
C1364 C1365 1.367 . S
C1365 C1364 1.367 . S
C1365 C1367 1.433 . S
C1366 C1362 1.350 . S
C1366 C1363 1.463 . S
C1366 N1370 1.427 . S
C1367 H1357 0.929 . S
C1367 C1365 1.433 . S
C1367 N1370 1.384 1_565 S
C1368 H1359 0.929 . S
C1368 C1360 1.378 . S
C1368 C1363 1.350 . S
C1369 H1356 0.929 . S
C1369 C1361 1.433 . S
C1369 N1371 1.384 . S
N1370 C1366 1.427 . S
N1370 C1367 1.384 1_545 S
N1371 C1363 1.427 . S
N1371 C1369 1.384 . S
H1372 C1378 0.930 . S
H1373 C1382 0.930 . S
H1374 C1387 0.929 . S
H1375 C1385 0.929 . S
H1376 C1380 0.929 . S
H1377 C1386 0.929 1_545 S
C1378 H1372 0.930 . S
C1378 C1379 1.367 . S
C1378 C1386 1.378 . S
C1379 C1378 1.367 . S
C1379 C1387 1.433 . S
C1380 H1376 0.929 . S
C1380 C1382 1.378 . S
C1380 C1384 1.350 . S
C1381 C1384 1.463 . S
C1381 C1386 1.350 1_545 S
C1381 N1389 1.427 . S
C1382 H1373 0.930 . S
C1382 C1380 1.378 . S
C1382 C1383 1.367 . S
C1383 C1382 1.367 . S
C1383 C1385 1.433 . S
C1384 C1380 1.350 . S
C1384 C1381 1.463 . S
C1384 N1388 1.427 . S
C1385 H1375 0.929 . S
C1385 C1383 1.433 . S
C1385 N1388 1.384 . S
C1386 H1377 0.929 1_565 S
C1386 C1378 1.378 . S
C1386 C1381 1.350 1_565 S
C1387 H1374 0.929 . S
C1387 C1379 1.433 . S
C1387 N1389 1.384 1_565 S
N1388 C1384 1.427 . S
N1388 C1385 1.384 . S
N1389 C1381 1.427 . S
N1389 C1387 1.384 1_545 S
H1390 C1396 0.930 . S
H1391 C1400 0.930 . S
H1392 C1405 0.929 . S
H1393 C1403 0.929 . S
H1394 C1398 0.929 . S
H1395 C1404 0.929 . S
C1396 H1390 0.930 . S
C1396 C1397 1.367 . S
C1396 C1404 1.378 . S
C1397 C1396 1.367 . S
C1397 C1405 1.433 . S
C1398 H1394 0.929 . S
C1398 C1400 1.378 1_565 S
C1398 C1402 1.350 . S
C1399 C1402 1.463 . S
C1399 C1404 1.350 . S
C1399 N1407 1.427 . S
C1400 H1391 0.930 . S
C1400 C1398 1.378 1_545 S
C1400 C1401 1.367 . S
C1401 C1400 1.367 . S
C1401 C1403 1.433 . S
C1402 C1398 1.350 . S
C1402 C1399 1.463 . S
C1402 N1406 1.427 . S
C1403 H1393 0.929 . S
C1403 C1401 1.433 . S
C1403 N1406 1.384 1_545 S
C1404 H1395 0.929 . S
C1404 C1396 1.378 . S
C1404 C1399 1.350 . S
C1405 H1392 0.929 . S
C1405 C1397 1.433 . S
C1405 N1407 1.384 . S
N1406 C1402 1.427 . S
N1406 C1403 1.384 1_565 S
N1407 C1399 1.427 . S
N1407 C1405 1.384 . S
C551 C8 1.556 . S
C555 C314 1.554 . S
C569 C42 1.555 . S
C573 C280 1.554 . S
C587 C382 1.557 . S
C591 C76 1.558 . S
C605 C110 1.554 . S
C609 C348 1.554 . S
C623 C459 1.557 . S
C627 C153 1.557 . S
C641 C425 1.556 . S
C645 C187 1.557 . S
C659 C527 1.557 . S
C663 C221 1.555 . S
C677 C255 1.555 . S
C681 C493 1.557 . S
C695 C81 1.555 . S
C699 C13 1.555 . S
C713 C115 1.555 . S
C717 C47 1.555 . S
C731 C208 1.554 . S
C735 C140 1.554 . S
C749 C174 1.555 . S
C753 C242 1.555 . S
C767 C353 1.553 . S
C771 C285 1.554 . S
C785 C387 1.553 . S
C789 C319 1.553 . S
C803 C412 1.553 . S
C807 C480 1.553 . S
C821 C446 1.553 . S
C825 C514 1.553 . S
C839 C183 1.525 . S
C843 C4 1.522 . S
C857 C149 1.522 . S
C861 C38 1.525 . S
C875 C72 1.522 . S
C879 C251 1.525 . S
C893 C217 1.526 . S
C897 C106 1.521 . S
C911 C276 1.524 . S
C915 C455 1.523 . S
C929 C421 1.522 . S
C933 C310 1.525 . S
C947 C344 1.525 . S
C951 C523 1.522 . S
C965 C489 1.522 . S
C969 C378 1.525 . S
C983 C51 1.506 . S
C987 C17 1.506 . S
C1001 C119 1.507 . S
C1005 C85 1.506 . S
C1019 C178 1.506 . S
C1023 C144 1.508 . S
C1037 C212 1.507 . S
C1041 C246 1.509 . S
C1055 C323 1.508 . S
C1059 C289 1.506 . S
C1073 C391 1.506 . S
C1077 C357 1.507 . S
C1091 C416 1.506 . S
C1095 C450 1.507 . S
C1109 C484 1.506 . S
C1113 C518 1.508 . S
C1127 C29 1.270 . S
C1131 C0 1.270 . S
C1145 C63 1.266 . S
C1149 C34 1.266 . S
C1163 C97 1.268 . S
C1167 C68 1.268 . S
C1181 C102 1.270 . S
C1185 C131 1.270 . S
C1199 C136 1.267 . S
C1203 C165 1.267 . S
C1217 C199 1.269 . S
C1221 C170 1.269 . S
C1235 C204 1.267 . S
C1239 C233 1.267 . S
C1253 C238 1.266 . S
C1257 C267 1.266 . S
C1271 C272 1.268 . S
C1275 C301 1.268 . S
C1289 C335 1.268 . S
C1293 C306 1.268 . S
C1307 C340 1.266 . S
C1311 C369 1.266 . S
C1325 C374 1.268 . S
C1329 C403 1.268 . S
C1343 C408 1.269 . S
C1347 C437 1.269 . S
C1361 C442 1.268 . S
C1365 C471 1.268 . S
C1379 C505 1.266 . S
C1383 C476 1.266 . S
C1397 C510 1.267 . S
C1401 C539 1.267 . S
