# Generated by pormake.
# Topology unp, (4)-cn, num edge types: 1
# Building blocks:
#     Node 0, Type 0, BuildingBlock: QUQFOY_clean_sbu_1, # of connection points: 4
#     Node 1, Type 0, BuildingBlock: QUQFOY_clean_sbu_1, # of connection points: 4
#     Node 2, Type 0, BuildingBlock: QUQFOY_clean_sbu_1, # of connection points: 4
#     Node 3, Type 0, BuildingBlock: QUQFOY_clean_sbu_1, # of connection points: 4
#     Node 4, Type 0, BuildingBlock: QUQFOY_clean_sbu_1, # of connection points: 4
#     Node 5, Type 0, BuildingBlock: QUQFOY_clean_sbu_1, # of connection points: 4
#     Node 6, Type 0, BuildingBlock: QUQFOY_clean_sbu_1, # of connection points: 4
#     Node 7, Type 0, BuildingBlock: QUQFOY_clean_sbu_1, # of connection points: 4
#     Node 8, Type 0, BuildingBlock: QUQFOY_clean_sbu_1, # of connection points: 4
#     Node 9, Type 0, BuildingBlock: QUQFOY_clean_sbu_1, # of connection points: 4
#     Node 10, Type 0, BuildingBlock: QUQFOY_clean_sbu_1, # of connection points: 4
#     Node 11, Type 0, BuildingBlock: QUQFOY_clean_sbu_1, # of connection points: 4
#     Node 12, Type 0, BuildingBlock: QUQFOY_clean_sbu_1, # of connection points: 4
#     Node 13, Type 0, BuildingBlock: QUQFOY_clean_sbu_1, # of connection points: 4
#     Node 14, Type 0, BuildingBlock: QUQFOY_clean_sbu_1, # of connection points: 4
#     Node 15, Type 0, BuildingBlock: QUQFOY_clean_sbu_1, # of connection points: 4
#     Node 16, Type 0, BuildingBlock: QUQFOY_clean_sbu_1, # of connection points: 4
#     Node 17, Type 0, BuildingBlock: QUQFOY_clean_sbu_1, # of connection points: 4
#     Edge 18, Type (0, 0), BuildingBlock: MIFKUJ_clean_linker_0, # of connection points: 2
#     Edge 19, Type (0, 0), BuildingBlock: MIFKUJ_clean_linker_0, # of connection points: 2
#     Edge 20, Type (0, 0), BuildingBlock: MIFKUJ_clean_linker_0, # of connection points: 2
#     Edge 21, Type (0, 0), BuildingBlock: MIFKUJ_clean_linker_0, # of connection points: 2
#     Edge 22, Type (0, 0), BuildingBlock: MIFKUJ_clean_linker_0, # of connection points: 2
#     Edge 23, Type (0, 0), BuildingBlock: MIFKUJ_clean_linker_0, # of connection points: 2
#     Edge 24, Type (0, 0), BuildingBlock: MIFKUJ_clean_linker_0, # of connection points: 2
#     Edge 25, Type (0, 0), BuildingBlock: MIFKUJ_clean_linker_0, # of connection points: 2
#     Edge 26, Type (0, 0), BuildingBlock: MIFKUJ_clean_linker_0, # of connection points: 2
#     Edge 27, Type (0, 0), BuildingBlock: MIFKUJ_clean_linker_0, # of connection points: 2
#     Edge 28, Type (0, 0), BuildingBlock: MIFKUJ_clean_linker_0, # of connection points: 2
#     Edge 29, Type (0, 0), BuildingBlock: MIFKUJ_clean_linker_0, # of connection points: 2
#     Edge 30, Type (0, 0), BuildingBlock: MIFKUJ_clean_linker_0, # of connection points: 2
#     Edge 31, Type (0, 0), BuildingBlock: MIFKUJ_clean_linker_0, # of connection points: 2
#     Edge 32, Type (0, 0), BuildingBlock: MIFKUJ_clean_linker_0, # of connection points: 2
#     Edge 33, Type (0, 0), BuildingBlock: MIFKUJ_clean_linker_0, # of connection points: 2
#     Edge 34, Type (0, 0), BuildingBlock: MIFKUJ_clean_linker_0, # of connection points: 2
#     Edge 35, Type (0, 0), BuildingBlock: MIFKUJ_clean_linker_0, # of connection points: 2
#     Edge 36, Type (0, 0), BuildingBlock: MIFKUJ_clean_linker_0, # of connection points: 2
#     Edge 37, Type (0, 0), BuildingBlock: MIFKUJ_clean_linker_0, # of connection points: 2
#     Edge 38, Type (0, 0), BuildingBlock: MIFKUJ_clean_linker_0, # of connection points: 2
#     Edge 39, Type (0, 0), BuildingBlock: MIFKUJ_clean_linker_0, # of connection points: 2
#     Edge 40, Type (0, 0), BuildingBlock: MIFKUJ_clean_linker_0, # of connection points: 2
#     Edge 41, Type (0, 0), BuildingBlock: MIFKUJ_clean_linker_0, # of connection points: 2
#     Edge 42, Type (0, 0), BuildingBlock: MIFKUJ_clean_linker_0, # of connection points: 2
#     Edge 43, Type (0, 0), BuildingBlock: MIFKUJ_clean_linker_0, # of connection points: 2
#     Edge 44, Type (0, 0), BuildingBlock: MIFKUJ_clean_linker_0, # of connection points: 2
#     Edge 45, Type (0, 0), BuildingBlock: MIFKUJ_clean_linker_0, # of connection points: 2
#     Edge 46, Type (0, 0), BuildingBlock: MIFKUJ_clean_linker_0, # of connection points: 2
#     Edge 47, Type (0, 0), BuildingBlock: MIFKUJ_clean_linker_0, # of connection points: 2
#     Edge 48, Type (0, 0), BuildingBlock: MIFKUJ_clean_linker_0, # of connection points: 2
#     Edge 49, Type (0, 0), BuildingBlock: MIFKUJ_clean_linker_0, # of connection points: 2
#     Edge 50, Type (0, 0), BuildingBlock: MIFKUJ_clean_linker_0, # of connection points: 2
#     Edge 51, Type (0, 0), BuildingBlock: MIFKUJ_clean_linker_0, # of connection points: 2
#     Edge 52, Type (0, 0), BuildingBlock: MIFKUJ_clean_linker_0, # of connection points: 2
#     Edge 53, Type (0, 0), BuildingBlock: MIFKUJ_clean_linker_0, # of connection points: 2
# Relax obj value: 0.379
# Max RMSD: 0.177
# Mean RMSD: 0.177
data_MOF--net-unp--node1-QUQFOY_clean_sbu_1--edge1-MIFKUJ_clean_linker_0
_symmetry_space_group_name_H-M    P1
_symmetry_Int_Tables_number       1
_symmetry_cell_setting            triclinic
loop_
_symmetry_equiv_pos_as_xyz
'x, y, z'
_cell_length_a     61.862028
_cell_length_b     61.87979
_cell_length_c     92.627663
_cell_angle_alpha  90.001657
_cell_angle_beta   90.003091
_cell_angle_gamma 119.99792
loop_
_atom_site_label
_atom_site_type_symbol
_atom_site_fract_x
_atom_site_fract_y
_atom_site_fract_z
_atom_type_partial_charge
O0 O 0.16555 0.13579 0.13236 0.0
Cd1 Cd 0.16884 0.17056 0.13125 0.0
Cd2 Cd 0.16498 0.16252 0.10187 0.0
O3 O 0.16864 0.13278 0.10884 0.0
O4 O 0.187 0.18941 0.14874 0.0
O5 O 0.20231 0.19984 0.12657 0.0
C6 C 0.20518 0.20388 0.14033 0.0
C7 C 0.18038 0.1759 0.07839 0.0
C8 C 0.16706 0.12413 0.12148 0.0
C9 C 0.12351 0.1661 0.11776 0.0
O10 O 0.13171 0.16163 0.10621 0.0
O11 O 0.13626 0.17161 0.1293 0.0
O12 O 0.16083 0.15472 0.08089 0.0
O13 O 0.1915 0.1901 0.08932 0.0
O14 O 0.85013 0.02384 0.12924 0.0
Cd15 Cd 0.8154 0.99267 0.12696 0.0
Cd16 Cd 0.82629 0.99937 0.09824 0.0
O17 O 0.85507 0.03276 0.10602 0.0
O18 O 0.79479 0.99141 0.14368 0.0
O19 O 0.78673 0.99709 0.1211 0.0
C20 C 0.78125 0.99545 0.13468 0.0
C21 C 0.81383 0.00081 0.07444 0.0
C22 C 0.86264 0.03829 0.11897 0.0
C23 C 0.82194 0.9534 0.1135 0.0
O24 O 0.82782 0.96725 0.10238 0.0
O25 O 0.81456 0.95923 0.12487 0.0
O26 O 0.83528 0.00344 0.07745 0.0
O27 O 0.79909 0.99772 0.08507 0.0
O28 O 0.96562 0.82287 0.1247 0.0
Cd29 Cd 0.99677 0.81934 0.12703 0.0
Cd30 Cd 0.00297 0.83006 0.09773 0.0
O31 O 0.97096 0.83196 0.10149 0.0
O32 O 0.99211 0.8001 0.14503 0.0
O33 O 0.99433 0.78623 0.12334 0.0
C34 C 0.99153 0.78265 0.13713 0.0
C35 C 0.00562 0.81642 0.07446 0.0
C36 C 0.95867 0.82851 0.11309 0.0
C37 C 0.04369 0.86506 0.1185 0.0
O38 O 0.0363 0.85877 0.10558 0.0
O39 O 0.03045 0.8519 0.12899 0.0
O40 O 0.00808 0.83801 0.07678 0.0
O41 O 0.00147 0.80205 0.08545 0.0
O42 O 0.13441 0.16557 0.87684 0.0
Cd43 Cd 0.16926 0.16916 0.87578 0.0
Cd44 Cd 0.16302 0.16145 0.9056 0.0
O45 O 0.13061 0.16184 0.90053 0.0
O46 O 0.18457 0.18707 0.85752 0.0
O47 O 0.19944 0.20275 0.87915 0.0
C48 C 0.20079 0.20531 0.86527 0.0
C49 C 0.17824 0.17506 0.92907 0.0
C50 C 0.12202 0.16305 0.88827 0.0
C51 C 0.16867 0.12387 0.88672 0.0
O52 O 0.16593 0.131 0.89912 0.0
O53 O 0.17076 0.13671 0.87558 0.0
O54 O 0.15824 0.15421 0.92664 0.0
O55 O 0.18984 0.18885 0.91809 0.0
O56 O 0.82521 0.96887 0.87132 0.0
Cd57 Cd 0.82008 0.99916 0.8698 0.0
Cd58 Cd 0.82507 0.00127 0.89983 0.0
O59 O 0.82687 0.9695 0.8951 0.0
O60 O 0.79987 0.99517 0.85233 0.0
O61 O 0.78669 0.99494 0.87464 0.0
C62 C 0.78242 0.993 0.86089 0.0
C63 C 0.81205 0.0013 0.92371 0.0
C64 C 0.82727 0.95965 0.88313 0.0
C65 C 0.86283 0.04521 0.88128 0.0
O66 O 0.85456 0.03545 0.89358 0.0
O67 O 0.85167 0.03378 0.86984 0.0
O68 O 0.83339 0.00371 0.92068 0.0
O69 O 0.79756 0.99888 0.91307 0.0
O70 O 0.02515 0.85245 0.87182 0.0
Cd71 Cd 0.99326 0.81802 0.87203 0.0
Cd72 Cd 0.99586 0.82414 0.90192 0.0
O73 O 0.02903 0.85487 0.8955 0.0
O74 O 0.99294 0.8007 0.85393 0.0
O75 O 0.99617 0.78768 0.87571 0.0
C76 C 0.99562 0.78501 0.86183 0.0
C77 C 0.99815 0.81092 0.92541 0.0
C78 C 0.03719 0.86389 0.88305 0.0
C79 C 0.95148 0.82123 0.88554 0.0
O80 O 0.96293 0.82388 0.89739 0.0
O81 O 0.96004 0.81781 0.87383 0.0
O82 O 0.9987 0.8316 0.92294 0.0
O83 O 0.99582 0.79702 0.91447 0.0
O84 O 0.83459 0.4669 0.45721 0.0
Cd85 Cd 0.83754 0.50155 0.45806 0.0
Cd86 Cd 0.82851 0.49442 0.4288 0.0
O87 O 0.82917 0.46217 0.43365 0.0
O88 O 0.85703 0.51823 0.47569 0.0
O89 O 0.87029 0.53204 0.45354 0.0
C90 C 0.87423 0.5343 0.46732 0.0
C91 C 0.8425 0.51046 0.40555 0.0
C92 C 0.83129 0.45406 0.44587 0.0
C93 C 0.79103 0.49942 0.44792 0.0
O94 O 0.79766 0.49638 0.43545 0.0
O95 O 0.80471 0.50242 0.45883 0.0
O96 O 0.82172 0.49023 0.40773 0.0
O97 O 0.85596 0.52184 0.41667 0.0
O98 O 0.51818 0.35778 0.46264 0.0
Cd99 Cd 0.48318 0.32675 0.46398 0.0
Cd100 Cd 0.49085 0.32211 0.43455 0.0
O101 O 0.52346 0.35485 0.43932 0.0
O102 O 0.46816 0.33097 0.48193 0.0
O103 O 0.4529 0.32991 0.46015 0.0
C104 C 0.45175 0.33226 0.47396 0.0
C105 C 0.47691 0.31938 0.41064 0.0
C106 C 0.5314 0.36607 0.45131 0.0
C107 C 0.48367 0.28065 0.45532 0.0
O108 O 0.48696 0.28912 0.44252 0.0
O109 O 0.48142 0.29275 0.46572 0.0
O110 O 0.49649 0.31817 0.41382 0.0
O111 O 0.46488 0.32231 0.42112 0.0
O112 O 0.6266 0.15265 0.46182 0.0
Cd113 Cd 0.65739 0.14876 0.45846 0.0
Cd114 Cd 0.65137 0.15646 0.43021 0.0
O115 O 0.61908 0.15354 0.43865 0.0
O116 O 0.65902 0.12859 0.47462 0.0
O117 O 0.65196 0.11561 0.45188 0.0
C118 C 0.6542 0.11125 0.46529 0.0
C119 C 0.64794 0.14088 0.40674 0.0
C120 C 0.61305 0.15345 0.45177 0.0
C121 C 0.69823 0.19514 0.4457 0.0
O122 O 0.68469 0.18882 0.43442 0.0
O123 O 0.69132 0.18099 0.4567 0.0
O124 O 0.64604 0.16025 0.40941 0.0
O125 O 0.65177 0.12991 0.41748 0.0
O126 O 0.80447 0.49924 0.20245 0.0
Cd127 Cd 0.83931 0.50289 0.20487 0.0
Cd128 Cd 0.82812 0.49826 0.23327 0.0
O129 O 0.80014 0.50409 0.22561 0.0
O130 O 0.86008 0.52248 0.18825 0.0
O131 O 0.8676 0.53605 0.21088 0.0
C132 C 0.87327 0.54007 0.19733 0.0
C133 C 0.84178 0.51367 0.25668 0.0
C134 C 0.79234 0.50183 0.21271 0.0
C135 C 0.83167 0.45647 0.21801 0.0
O136 O 0.82488 0.46388 0.22901 0.0
O137 O 0.84053 0.47045 0.20702 0.0
O138 O 0.81999 0.49494 0.25419 0.0
O139 O 0.85638 0.52392 0.24578 0.0
O140 O 0.49258 0.30155 0.20521 0.0
Cd141 Cd 0.487 0.33161 0.20673 0.0
Cd142 Cd 0.49205 0.32697 0.23579 0.0
O143 O 0.48787 0.29349 0.22854 0.0
O144 O 0.46683 0.33079 0.18987 0.0
O145 O 0.45341 0.32593 0.2125 0.0
C146 C 0.44919 0.32656 0.19887 0.0
C147 C 0.4787 0.32483 0.25981 0.0
C148 C 0.4906 0.28766 0.2158 0.0
C149 C 0.5323 0.37267 0.21945 0.0
O150 O 0.52509 0.35941 0.23084 0.0
O151 O 0.51861 0.36592 0.20826 0.0
O152 O 0.49827 0.3237 0.25652 0.0
O153 O 0.46641 0.32752 0.24938 0.0
O154 O 0.68832 0.18423 0.20235 0.0
Cd155 Cd 0.65863 0.14886 0.20612 0.0
Cd156 Cd 0.67151 0.16174 0.23332 0.0
O157 O 0.70485 0.18706 0.22377 0.0
O158 O 0.65426 0.12845 0.18868 0.0
O159 O 0.66544 0.12103 0.21005 0.0
C160 C 0.66089 0.11547 0.1965 0.0
C161 C 0.67408 0.14648 0.25599 0.0
C162 C 0.70635 0.19555 0.21111 0.0
C163 C 0.62431 0.15916 0.22197 0.0
O164 O 0.64189 0.16837 0.23121 0.0
O165 O 0.62545 0.14689 0.2113 0.0
O166 O 0.6808 0.16955 0.25399 0.0
O167 O 0.66601 0.13166 0.24502 0.0
O168 O 0.49691 0.80112 0.79522 0.0
Cd169 Cd 0.50073 0.83625 0.79432 0.0
Cd170 Cd 0.49427 0.82689 0.7655 0.0
O171 O 0.49824 0.79705 0.77165 0.0
O172 O 0.52031 0.85528 0.81141 0.0
O173 O 0.53408 0.86507 0.7889 0.0
C174 C 0.53792 0.86944 0.8026 0.0
C175 C 0.50826 0.8424 0.74216 0.0
C176 C 0.49741 0.78886 0.78434 0.0
C177 C 0.45427 0.83108 0.78257 0.0
O178 O 0.46113 0.82533 0.77097 0.0
O179 O 0.46843 0.83811 0.79356 0.0
O180 O 0.4887 0.82109 0.74439 0.0
O181 O 0.5206 0.85516 0.75328 0.0
O182 O 0.18303 0.68698 0.79977 0.0
Cd183 Cd 0.14808 0.65669 0.79655 0.0
Cd184 Cd 0.15949 0.66688 0.76816 0.0
O185 O 0.18707 0.69988 0.77722 0.0
O186 O 0.12583 0.6546 0.81257 0.0
O187 O 0.121 0.66287 0.78984 0.0
C188 C 0.11392 0.66019 0.80319 0.0
C189 C 0.14829 0.67028 0.74435 0.0
C190 C 0.19493 0.70329 0.79016 0.0
C191 C 0.15501 0.61926 0.78158 0.0
O192 O 0.16148 0.63464 0.77114 0.0
O193 O 0.14679 0.62336 0.7932 0.0
O194 O 0.16984 0.67336 0.74758 0.0
O195 O 0.13278 0.66575 0.75479 0.0
O196 O 0.29996 0.48931 0.79221 0.0
Cd197 Cd 0.33042 0.48457 0.79431 0.0
Cd198 Cd 0.33639 0.4941 0.76482 0.0
O199 O 0.30397 0.49517 0.76865 0.0
O200 O 0.32518 0.46304 0.81133 0.0
O201 O 0.32695 0.45169 0.78883 0.0
C202 C 0.32396 0.44637 0.80245 0.0
C203 C 0.33993 0.48303 0.74099 0.0
C204 C 0.29239 0.49341 0.78033 0.0
C205 C 0.37741 0.52948 0.78562 0.0
O206 O 0.36947 0.52303 0.7728 0.0
O207 O 0.36457 0.51649 0.79627 0.0
O208 O 0.34149 0.50397 0.74414 0.0
O209 O 0.33611 0.46777 0.75145 0.0
O210 O 0.46931 0.83422 0.54056 0.0
Cd211 Cd 0.50404 0.8372 0.54038 0.0
Cd212 Cd 0.49543 0.82796 0.56988 0.0
O213 O 0.4639 0.82932 0.5641 0.0
O214 O 0.51953 0.85399 0.52188 0.0
O215 O 0.53457 0.87081 0.54326 0.0
C216 C 0.53593 0.87257 0.52935 0.0
C217 C 0.50952 0.8428 0.59332 0.0
C218 C 0.45621 0.83133 0.55173 0.0
C219 C 0.50119 0.79049 0.55143 0.0
O220 O 0.4971 0.7967 0.56378 0.0
O221 O 0.50519 0.80452 0.54057 0.0
O222 O 0.4892 0.8222 0.59095 0.0
O223 O 0.52254 0.85518 0.58228 0.0
O224 O 0.15842 0.63965 0.53822 0.0
Cd225 Cd 0.15236 0.6694 0.53931 0.0
Cd226 Cd 0.15882 0.66633 0.56875 0.0
O227 O 0.15528 0.63292 0.56172 0.0
O228 O 0.13351 0.66843 0.52176 0.0
O229 O 0.11798 0.66298 0.5439 0.0
C230 C 0.115 0.66379 0.53013 0.0
C231 C 0.14661 0.66517 0.59294 0.0
C232 C 0.1573 0.62647 0.549 0.0
C233 C 0.19743 0.71194 0.5516 0.0
O234 O 0.19088 0.6994 0.56327 0.0
O235 O 0.18361 0.704 0.5405 0.0
O236 O 0.16636 0.66453 0.58943 0.0
O237 O 0.13331 0.6665 0.58263 0.0
O238 O 0.35302 0.51966 0.53577 0.0
Cd239 Cd 0.32276 0.48481 0.53982 0.0
Cd240 Cd 0.33377 0.49845 0.56757 0.0
O241 O 0.3664 0.52563 0.55824 0.0
O242 O 0.31993 0.46234 0.52376 0.0
O243 O 0.32946 0.45793 0.54626 0.0
C244 C 0.32619 0.4507 0.53293 0.0
C245 C 0.33831 0.48662 0.59099 0.0
C246 C 0.36952 0.53253 0.54513 0.0
C247 C 0.28616 0.49358 0.55455 0.0
O248 O 0.30224 0.50158 0.56464 0.0
O249 O 0.28924 0.48328 0.54349 0.0
O250 O 0.34117 0.50824 0.5882 0.0
O251 O 0.33279 0.47123 0.58037 0.0
H252 H 0.40773 0.31607 0.21478 0.0
H253 H 0.36557 0.30199 0.20573 0.0
H254 H 0.39224 0.30962 0.16195 0.0
H255 H 0.43442 0.32417 0.17087 0.0
H256 H 0.35739 0.32346 0.16394 0.0
H257 H 0.36623 0.25359 0.1791 0.0
H258 H 0.37593 0.22924 0.19634 0.0
H259 H 0.31906 0.22414 0.22505 0.0
H260 H 0.30925 0.24877 0.20805 0.0
H261 H 0.24953 0.23231 0.12624 0.0
H262 H 0.29028 0.25984 0.13713 0.0
H263 H 0.25588 0.24682 0.17916 0.0
H264 H 0.21521 0.21894 0.1684 0.0
H265 H 0.29359 0.23842 0.1796 0.0
H266 H 0.2814 0.3044 0.16244 0.0
H267 H 0.27177 0.32793 0.14458 0.0
H268 H 0.33454 0.33959 0.11894 0.0
H269 H 0.34435 0.31583 0.13655 0.0
C270 C 0.40469 0.31512 0.20323 0.0
C271 C 0.42436 0.32095 0.19355 0.0
C272 C 0.38058 0.30702 0.19807 0.0
C273 C 0.3757 0.30436 0.18317 0.0
C274 C 0.39557 0.31148 0.17349 0.0
C275 C 0.41967 0.31969 0.17862 0.0
C276 C 0.34973 0.29231 0.17764 0.0
C277 C 0.34342 0.30483 0.1673 0.0
C278 C 0.33142 0.26816 0.1822 0.0
C279 C 0.33721 0.25325 0.19239 0.0
C280 C 0.35592 0.24743 0.18914 0.0
C281 C 0.36142 0.23356 0.19886 0.0
C282 C 0.34817 0.22521 0.2118 0.0
C283 C 0.32934 0.23066 0.21503 0.0
C284 C 0.3238 0.24457 0.20536 0.0
C285 C 0.25058 0.23567 0.13776 0.0
C286 C 0.22918 0.2233 0.14647 0.0
C287 C 0.27388 0.25151 0.14397 0.0
C288 C 0.27613 0.25547 0.15897 0.0
C289 C 0.2546 0.244 0.16757 0.0
C290 C 0.23136 0.22809 0.16139 0.0
C291 C 0.30111 0.2695 0.16584 0.0
C292 C 0.30733 0.25724 0.17639 0.0
C293 C 0.31929 0.29379 0.16138 0.0
C294 C 0.31349 0.30816 0.15077 0.0
C295 C 0.29304 0.31182 0.15294 0.0
C296 C 0.28757 0.32523 0.14287 0.0
C297 C 0.3025 0.3352 0.13062 0.0
C298 C 0.32298 0.33184 0.12843 0.0
C299 C 0.32852 0.31843 0.13847 0.0
H300 H 0.29824 0.34558 0.12283 0.0
H301 H 0.35245 0.21447 0.21931 0.0
H302 H 0.75042 0.00622 0.11882 0.0
H303 H 0.72164 0.0193 0.12803 0.0
H304 H 0.73884 0.00875 0.1717 0.0
H305 H 0.76715 0.99519 0.16261 0.0
H306 H 0.69032 0.99533 0.16932 0.0
H307 H 0.76988 0.06575 0.15573 0.0
H308 H 0.8046 0.09099 0.13906 0.0
H309 H 0.75411 0.09842 0.11041 0.0
H310 H 0.71901 0.07291 0.12685 0.0
H311 H 0.67723 0.08648 0.2095 0.0
H312 H 0.6893 0.05877 0.19765 0.0
H313 H 0.66612 0.07311 0.15656 0.0
H314 H 0.65418 0.10094 0.16827 0.0
H315 H 0.7131 0.08169 0.15565 0.0
H316 H 0.63427 0.01574 0.17174 0.0
H317 H 0.60065 0.99147 0.18921 0.0
H318 H 0.65039 0.97659 0.21403 0.0
H319 H 0.68444 0.00108 0.19682 0.0
C320 C 0.74773 0.00625 0.13037 0.0
C321 C 0.76131 -2e-05 0.13999 0.0
C322 C 0.73133 0.01378 0.13562 0.0
C323 C 0.72844 0.01541 0.15056 0.0
C324 C 0.74081 0.00769 0.16013 0.0
C325 C 0.7571 5e-05 0.15491 0.0
C326 C 0.71446 0.02725 0.15629 0.0
C327 C 0.69531 0.01424 0.16638 0.0
C328 C 0.72072 0.05177 0.15227 0.0
C329 C 0.7418 0.06719 0.14242 0.0
C330 C 0.76616 0.07261 0.14582 0.0
C331 C 0.78591 0.08698 0.13642 0.0
C332 C 0.78155 0.09624 0.12366 0.0
C333 C 0.75744 0.09119 0.12029 0.0
C334 C 0.73762 0.07679 0.12964 0.0
C335 C 0.67427 0.08338 0.19798 0.0
C336 C 0.66493 0.09606 0.18981 0.0
C337 C 0.68108 0.06744 0.19123 0.0
C338 C 0.67855 0.06383 0.17622 0.0
C339 C 0.66824 0.07565 0.16815 0.0
C340 C 0.6614 0.09153 0.17488 0.0
C341 C 0.68901 0.04987 0.16878 0.0
C342 C 0.70768 0.06259 0.15841 0.0
C343 C 0.68241 0.0252 0.17266 0.0
C344 C 0.66198 0.01043 0.18304 0.0
C345 C 0.63811 0.00747 0.18098 0.0
C346 C 0.61896 0.99363 0.19083 0.0
C347 C 0.62339 0.98254 0.20274 0.0
C348 C 0.64698 0.98521 0.20481 0.0
C349 C 0.66621 0.99904 0.195 0.0
H350 H 0.60854 0.97183 0.21035 0.0
H351 H 0.79686 0.10737 0.1164 0.0
H352 H 0.90235 0.58207 0.21329 0.0
H353 H 0.93003 0.62423 0.20415 0.0
H354 H 0.91563 0.59622 0.16049 0.0
H355 H 0.88833 0.55404 0.16952 0.0
H356 H 0.96394 0.63345 0.16378 0.0
H357 H 0.88149 0.61915 0.1751 0.0
H358 H 0.84524 0.60746 0.19094 0.0
H359 H 0.89151 0.66645 0.22026 0.0
H360 H 0.92813 0.67827 0.20467 0.0
H361 H 0.97956 0.73872 0.12356 0.0
H362 H 0.96663 0.69836 0.13491 0.0
H363 H 0.97963 0.7326 0.17698 0.0
H364 H 0.99192 0.77277 0.16574 0.0
H365 H 0.93533 0.69318 0.17598 0.0
H366 H 0.01726 0.71059 0.16288 0.0
H367 H 0.05299 0.72215 0.14663 0.0
H368 H 0.00794 0.65791 0.12031 0.0
H369 H 0.97183 0.64613 0.13628 0.0
C370 C 0.90546 0.5848 0.20176 0.0
C371 C 0.89288 0.56477 0.19212 0.0
C372 C 0.92124 0.60891 0.19656 0.0
C373 C 0.92453 0.61339 0.18163 0.0
C374 C 0.91331 0.59318 0.17205 0.0
C375 C 0.8976 0.56909 0.17723 0.0
C376 C 0.93757 0.63923 0.17591 0.0
C377 C 0.95769 0.64654 0.16638 0.0
C378 C 0.9296 0.65638 0.17949 0.0
C379 C 0.90758 0.6494 0.18881 0.0
C380 C 0.88396 0.62951 0.18498 0.0
C381 C 0.86335 0.62288 0.1939 0.0
C382 C 0.86609 0.63616 0.20662 0.0
C383 C 0.88943 0.65615 0.21042 0.0
C384 C 0.91011 0.66283 0.20154 0.0
C385 C 0.98002 0.7377 0.13522 0.0
C386 C 0.98658 0.75888 0.14376 0.0
C387 C 0.97275 0.71464 0.1417 0.0
C388 C 0.97228 0.71245 0.15681 0.0
C389 C 0.97978 0.73381 0.16531 0.0
C390 C 0.98681 0.75677 0.15886 0.0
C391 C 0.96186 0.68763 0.16381 0.0
C392 C 0.942 0.68037 0.17353 0.0
C393 C 0.97008 0.67061 0.16034 0.0
C394 C 0.99178 0.6776 0.15072 0.0
C395 C 0.01491 0.69903 0.15356 0.0
C396 C 0.03525 0.7056 0.14441 0.0
C397 C 0.03272 0.6908 0.13243 0.0
C398 C 0.00987 0.66936 0.12959 0.0
C399 C 0.98947 0.66271 0.1387 0.0
H400 H 0.04849 0.69592 0.12536 0.0
H401 H 0.85011 0.631 0.21352 0.0
H402 H 0.32472 0.43256 0.8303 0.0
H403 H 0.30993 0.39048 0.83951 0.0
H404 H 0.29401 0.36158 0.79606 0.0
H405 H 0.30894 0.40377 0.78672 0.0
H406 H 0.25382 0.3376 0.81452 0.0
H407 H 0.33978 0.36051 0.81398 0.0
H408 H 0.38475 0.38689 0.81896 0.0
H409 H 0.37016 0.37932 0.86453 0.0
H410 H 0.32503 0.35318 0.85983 0.0
H411 H 0.21043 0.21429 0.83652 0.0
H412 H 0.2371 0.25433 0.8248 0.0
H413 H 0.25924 0.29003 0.86645 0.0
H414 H 0.23282 0.24982 0.87831 0.0
H415 H 0.29828 0.30947 0.84735 0.0
H416 H 0.21311 0.2912 0.84824 0.0
H417 H 0.16779 0.26585 0.84394 0.0
H418 H 0.18077 0.2662 0.79838 0.0
H419 H 0.22622 0.29128 0.80244 0.0
C420 C 0.31844 0.41732 0.82267 0.0
C421 C 0.31786 0.42144 0.80779 0.0
C422 C 0.31013 0.3933 0.82795 0.0
C423 C 0.30098 0.37295 0.81846 0.0
C424 C 0.30109 0.37708 0.80355 0.0
C425 C 0.30966 0.40118 0.79824 0.0
C426 C 0.28912 0.34722 0.82426 0.0
C427 C 0.26369 0.33125 0.82143 0.0
C428 C 0.30184 0.33929 0.83366 0.0
C429 C 0.32897 0.35504 0.83654 0.0
C430 C 0.34613 0.36464 0.82506 0.0
C431 C 0.37166 0.37952 0.82784 0.0
C432 C 0.3803 0.38482 0.84205 0.0
C433 C 0.36343 0.37521 0.85353 0.0
C434 C 0.33787 0.36034 0.85081 0.0
C435 C 0.22122 0.23057 0.84321 0.0
C436 C 0.21928 0.22895 0.85834 0.0
C437 C 0.23643 0.25346 0.83649 0.0
C438 C 0.24979 0.27521 0.84475 0.0
C439 C 0.24901 0.27345 0.85987 0.0
C440 C 0.23386 0.25049 0.86663 0.0
C441 C 0.26301 0.29994 0.8376 0.0
C442 C 0.28857 0.31574 0.84025 0.0
C443 C 0.25039 0.30789 0.82813 0.0
C444 C 0.22307 0.29286 0.82566 0.0
C445 C 0.20631 0.2857 0.83732 0.0
C446 C 0.1806 0.27141 0.83493 0.0
C447 C 0.17141 0.26435 0.8209 0.0
C448 C 0.18792 0.27163 0.80924 0.0
C449 C 0.21365 0.28589 0.81158 0.0
H450 H 0.1515 0.2533 0.81907 0.0
H451 H 0.40008 0.39633 0.84418 0.0
H452 H 0.74157 0.987 0.87586 0.0
H453 H 0.69969 0.97284 0.86631 0.0
H454 H 0.72555 0.97077 0.82336 0.0
H455 H 0.76747 0.98537 0.83274 0.0
H456 H 0.69262 0.98731 0.82279 0.0
H457 H 0.69722 0.9183 0.84405 0.0
H458 H 0.70527 0.89628 0.86366 0.0
H459 H 0.65004 0.89983 0.89003 0.0
H460 H 0.64189 0.92218 0.87063 0.0
H461 H 0.58227 0.89437 0.78808 0.0
H462 H 0.62348 0.92204 0.79839 0.0
H463 H 0.58985 0.91642 0.84007 0.0
H464 H 0.54876 0.88818 0.82992 0.0
H465 H 0.62597 0.9069 0.84257 0.0
H466 H 0.61784 0.97181 0.8198 0.0
H467 H 0.60975 0.99315 0.79983 0.0
H468 H 0.67102 0.99692 0.77594 0.0
H469 H 0.67929 0.97529 0.7957 0.0
C470 C 0.73841 0.98386 0.86435 0.0
C471 C 0.75777 0.98703 0.85508 0.0
C472 C 0.71447 0.97572 0.85892 0.0
C473 C 0.70942 0.97037 0.84416 0.0
C474 C 0.72901 0.97475 0.83479 0.0
C475 C 0.75295 0.98298 0.84019 0.0
C476 C 0.6835 0.95846 0.83858 0.0
C477 C 0.67802 0.96967 0.82705 0.0
C478 C 0.66437 0.93569 0.84433 0.0
C479 C 0.66915 0.92215 0.85596 0.0
C480 C 0.68692 0.91454 0.85407 0.0
C481 C 0.69148 0.90198 0.86514 0.0
C482 C 0.67823 0.89673 0.8781 0.0
C483 C 0.66033 0.90396 0.88 0.0
C484 C 0.65572 0.91656 0.86897 0.0
C485 C 0.58363 0.8994 0.79938 0.0
C486 C 0.56231 0.88896 0.80821 0.0
C487 C 0.6072 0.91533 0.80525 0.0
C488 C 0.60979 0.92144 0.82001 0.0
C489 C 0.58834 0.91192 0.82867 0.0
C490 C 0.56486 0.8958 0.82285 0.0
C491 C 0.63492 0.93566 0.82671 0.0
C492 C 0.64034 0.92476 0.83842 0.0
C493 C 0.65392 0.95865 0.82108 0.0
C494 C 0.64906 0.97175 0.8092 0.0
C495 C 0.62948 0.97703 0.81025 0.0
C496 C 0.62488 0.9892 0.79897 0.0
C497 C 0.63983 0.99634 0.78661 0.0
C498 C 0.65945 0.99137 0.78552 0.0
C499 C 0.66413 0.97918 0.79676 0.0
H500 H 0.63623 0.00576 0.77789 0.0
H501 H 0.68178 0.887 0.88666 0.0
H502 H 0.08742 0.67547 0.78659 0.0
H503 H 0.05942 0.69002 0.79507 0.0
H504 H 0.06818 0.6719 0.83886 0.0
H505 H 0.09584 0.657 0.83048 0.0
H506 H 0.0206 0.66223 0.83386 0.0
H507 H 0.10474 0.72992 0.82643 0.0
H508 H 0.14313 0.75534 0.81234 0.0
H509 H 0.10178 0.77246 0.78168 0.0
H510 H 0.06305 0.74682 0.7955 0.0
H511 H 0.00582 0.75155 0.87514 0.0
H512 H 0.01806 0.72373 0.86359 0.0
H513 H 0.00713 0.74714 0.82167 0.0
H514 H 0.99513 0.77512 0.8331 0.0
H515 H 0.0523 0.75194 0.82394 0.0
H516 H 0.96861 0.68794 0.83355 0.0
H517 H 0.93091 0.663 0.84825 0.0
H518 H 0.97155 0.63953 0.87547 0.0
H519 H 0.00961 0.66462 0.86105 0.0
C520 C 0.08301 0.67414 0.79799 0.0
C521 C 0.09411 0.6654 0.80789 0.0
C522 C 0.06704 0.68249 0.80282 0.0
C523 C 0.06206 0.68241 0.81762 0.0
C524 C 0.07181 0.67218 0.82739 0.0
C525 C 0.08773 0.66377 0.82258 0.0
C526 C 0.04882 0.69517 0.82311 0.0
C527 C 0.02753 0.68187 0.83176 0.0
C528 C 0.05769 0.72069 0.82017 0.0
C529 C 0.08097 0.73622 0.8119 0.0
C530 C 0.10381 0.73895 0.81662 0.0
C531 C 0.12563 0.75342 0.8087 0.0
C532 C 0.12488 0.76544 0.7961 0.0
C533 C 0.10232 0.76308 0.79143 0.0
C534 C 0.08043 0.74859 0.7993 0.0
C535 C 0.00559 0.75045 0.86347 0.0
C536 C -0.0003 0.76569 0.85504 0.0
C537 C 0.01248 0.73445 0.85688 0.0
C538 C 0.01344 0.73331 0.84176 0.0
C539 C 0.00654 0.74774 0.83335 0.0
C540 C -0.00033 0.76372 0.83992 0.0
C541 C 0.02399 0.71906 0.83474 0.0
C542 C 0.04499 0.73218 0.82587 0.0
C543 C 0.01489 0.69346 0.83757 0.0
C544 C 0.99203 0.67834 0.84628 0.0
C545 C 0.96957 0.67763 0.84274 0.0
C546 C 0.94812 0.66343 0.85101 0.0
C547 C 0.94884 0.64974 0.86281 0.0
C548 C 0.97102 0.65017 0.86634 0.0
C549 C 0.99253 0.66435 0.85811 0.0
H550 H 0.93221 0.63875 0.86919 0.0
H551 H 0.14179 0.77664 0.78998 0.0
H552 H 0.91496 0.57034 0.45277 0.0
H553 H 0.95599 0.59955 0.46286 0.0
H554 H 0.92895 0.57111 0.50558 0.0
H555 H 0.88789 0.54229 0.49566 0.0
H556 H 0.95997 0.62095 0.50626 0.0
H557 H 0.96022 0.54911 0.48577 0.0
H558 H 0.9546 0.51951 0.46631 0.0
H559 H 0.00953 0.57969 0.44058 0.0
H560 H 0.01523 0.60969 0.45983 0.0
H561 H 0.06959 0.6425 0.54362 0.0
H562 H 0.02881 0.62756 0.53235 0.0
H563 H 0.06465 0.65709 0.49135 0.0
H564 H 0.10536 0.67141 0.50247 0.0
H565 H 0.02997 0.61087 0.48831 0.0
H566 H 0.0335 0.68228 0.51049 0.0
H567 H 0.03919 0.71124 0.53032 0.0
H568 H 0.97771 0.65214 0.55323 0.0
H569 H 0.97186 0.62273 0.53363 0.0
C570 C 0.91766 0.57055 0.46433 0.0
C571 C 0.89825 0.55381 0.4734 0.0
C572 C 0.94113 0.58722 0.47008 0.0
C573 C 0.94562 0.58724 0.48495 0.0
C574 C 0.92592 0.57141 0.49408 0.0
C575 C 0.90247 0.55484 0.48837 0.0
C576 C 0.97118 0.60225 0.49093 0.0
C577 C 0.9753 0.61873 0.5024 0.0
C578 C 0.99126 0.59968 0.4857 0.0
C579 C 0.98794 0.58166 0.47416 0.0
C580 C 0.97096 0.55604 0.47592 0.0
C581 C 0.96778 0.5392 0.46494 0.0
C582 C 0.98164 0.54773 0.4522 0.0
C583 C 0.99877 0.57312 0.45044 0.0
C584 C 0.00199 0.59005 0.46138 0.0
C585 C 0.06879 0.6462 0.53227 0.0
C586 C 0.09066 0.65796 0.52391 0.0
C587 C 0.04546 0.63776 0.52583 0.0
C588 C 0.04363 0.64131 0.51099 0.0
C589 C 0.06557 0.65407 0.5028 0.0
C590 C 0.08884 0.66227 0.50918 0.0
C591 C 0.01891 0.62962 0.50374 0.0
C592 C 0.01486 0.61357 0.49205 0.0
C593 C 0.99896 0.63258 0.50882 0.0
C594 C 0.00237 0.65025 0.52062 0.0
C595 C 0.02131 0.67541 0.5198 0.0
C596 C 0.02454 0.69192 0.53099 0.0
C597 C 0.00885 0.68353 0.54304 0.0
C598 C 0.98986 0.65862 0.5439 0.0
C599 C 0.98655 0.64202 0.53274 0.0
H600 H 0.01139 0.69634 0.55169 0.0
H601 H 0.97916 0.53466 0.44371 0.0
H602 H 0.34305 0.42502 0.54902 0.0
H603 H 0.35828 0.39789 0.54002 0.0
H604 H 0.33759 0.4057 0.49668 0.0
H605 H 0.322 0.43251 0.50559 0.0
H606 H 0.32961 0.35857 0.50152 0.0
H607 H 0.3958 0.4435 0.50802 0.0
H608 H 0.42101 0.48242 0.52171 0.0
H609 H 0.44141 0.44317 0.55202 0.0
H610 H 0.41601 0.40392 0.53861 0.0
H611 H 0.4182 0.34193 0.46024 0.0
H612 H 0.39092 0.35534 0.47135 0.0
H613 H 0.416 0.34808 0.51359 0.0
H614 H 0.44348 0.33505 0.5026 0.0
H615 H 0.42003 0.39252 0.51034 0.0
H616 H 0.35645 0.3078 0.50203 0.0
H617 H 0.33161 0.26954 0.48775 0.0
H618 H 0.30684 0.30861 0.46014 0.0
H619 H 0.33182 0.34722 0.47414 0.0
C620 C 0.34128 0.42057 0.53762 0.0
C621 C 0.33163 0.43119 0.52799 0.0
C622 C 0.35003 0.4051 0.53249 0.0
C623 C 0.34945 0.40015 0.51765 0.0
C624 C 0.33828 0.40934 0.50817 0.0
C625 C 0.32948 0.42476 0.51328 0.0
C626 C 0.36262 0.38755 0.51183 0.0
C627 C 0.3494 0.36601 0.50336 0.0
C628 C 0.38838 0.39714 0.51439 0.0
C629 C 0.40379 0.42074 0.52242 0.0
C630 C 0.40551 0.44314 0.51767 0.0
C631 C 0.41985 0.46526 0.52537 0.0
C632 C 0.43274 0.46526 0.53775 0.0
C633 C 0.43138 0.44314 0.54244 0.0
C634 C 0.41702 0.42095 0.5348 0.0
C635 C 0.41762 0.34284 0.4719 0.0
C636 C 0.43313 0.33761 0.48053 0.0
C637 C 0.40194 0.3504 0.47824 0.0
C638 C 0.40137 0.35263 0.49331 0.0
C639 C 0.41618 0.34654 0.50194 0.0
C640 C 0.43188 0.33908 0.49563 0.0
C641 C 0.38705 0.36335 0.50006 0.0
C642 C 0.40015 0.38476 0.50863 0.0
C643 C 0.36126 0.35367 0.4975 0.0
C644 C 0.3462 0.33047 0.48906 0.0
C645 C 0.34587 0.3083 0.49284 0.0
C646 C 0.33173 0.28653 0.48481 0.0
C647 C 0.3177 0.28666 0.47302 0.0
C648 C 0.31774 0.30854 0.46926 0.0
C649 C 0.33186 0.33037 0.47725 0.0
H650 H 0.30676 0.26979 0.46682 0.0
H651 H 0.44384 0.4824 0.54369 0.0
H652 H 0.66115 0.09804 0.49224 0.0
H653 H 0.64769 0.05611 0.50115 0.0
H654 H 0.62288 0.02637 0.45838 0.0
H655 H 0.63617 0.06839 0.44937 0.0
H656 H 0.58668 0.0031 0.47813 0.0
H657 H 0.67177 0.02458 0.47373 0.0
H658 H 0.71735 0.05028 0.47677 0.0
H659 H 0.70878 0.04392 0.52284 0.0
H660 H 0.66309 0.01846 0.52009 0.0
H661 H 0.54434 0.88023 0.50043 0.0
H662 H 0.57086 0.91966 0.48809 0.0
H663 H 0.59586 0.95686 0.52916 0.0
H664 H 0.56946 0.91728 0.54166 0.0
H665 H 0.63393 0.97479 0.50846 0.0
H666 H 0.54931 0.95814 0.51284 0.0
H667 H 0.5036 0.933 0.51014 0.0
H668 H 0.51168 0.93132 0.46417 0.0
H669 H 0.5575 0.95617 0.46663 0.0
C670 C 0.65325 0.08266 0.48465 0.0
C671 C 0.64954 0.0865 0.47012 0.0
C672 C 0.64571 0.05869 0.48976 0.0
C673 C 0.63438 0.03812 0.48042 0.0
C674 C 0.63163 0.04202 0.46576 0.0
C675 C 0.63928 0.06604 0.46062 0.0
C676 C 0.62293 0.01246 0.48633 0.0
C677 C 0.59716 0.99672 0.48447 0.0
C678 C 0.63647 0.00443 0.49497 0.0
C679 C 0.66395 0.01976 0.49669 0.0
C680 C 0.67957 0.02883 0.48451 0.0
C681 C 0.70544 0.04332 0.48619 0.0
C682 C 0.71595 0.04877 0.49999 0.0
C683 C 0.70061 0.03969 0.51215 0.0
C684 C 0.67472 0.0252 0.51054 0.0
C685 C 0.55574 0.89669 0.50687 0.0
C686 C 0.55455 0.89571 0.52203 0.0
C687 C 0.5709 0.91922 0.49979 0.0
C688 C 0.58501 0.94122 0.50772 0.0
C689 C 0.58506 0.94007 0.52285 0.0
C690 C 0.5699 0.91747 0.52997 0.0
C691 C 0.59779 0.96564 0.50025 0.0
C692 C 0.62365 0.98112 0.5019 0.0
C693 C 0.58438 0.97358 0.49144 0.0
C694 C 0.55683 0.95875 0.48993 0.0
C695 C 0.54135 0.95223 0.50217 0.0
C696 C 0.51542 0.93806 0.50068 0.0
C697 C 0.50474 0.9305 0.487 0.0
C698 C 0.51998 0.93715 0.47477 0.0
C699 C 0.54593 0.95128 0.4762 0.0
H700 H 0.48466 0.91954 0.48587 0.0
H701 H 0.73598 0.05999 0.50126 0.0
H702 H 0.08974 0.14975 0.09571 0.0
H703 H 0.04534 0.1358 0.09721 0.0
H704 H 0.05397 0.15848 0.14183 0.0
H705 H 0.09863 0.17239 0.14051 0.0
H706 H 0.01471 0.09759 0.11667 0.0
H707 H 0.00489 0.17308 0.14746 0.0
H708 H 0.02783 0.21874 0.15085 0.0
H709 H 0.06145 0.22835 0.10904 0.0
H710 H 0.03846 0.18279 0.10532 0.0
H711 H 0.89245 0.04629 0.14242 0.0
H712 H 0.93709 0.07635 0.14423 0.0
H713 H 0.93444 0.10898 0.10364 0.0
H714 H 0.88985 0.07865 0.10155 0.0
H715 H 0.97043 0.14405 0.12753 0.0
H716 H 0.94636 0.06875 0.09844 0.0
H717 H 0.92281 0.02307 0.09519 0.0
H718 H 0.95806 0.0139 0.13279 0.0
H719 H 0.98149 0.05956 0.13639 0.0
C720 C 0.0824 0.15226 0.1058 0.0
C721 C 0.09774 0.16193 0.11805 0.0
C722 C 0.05698 0.14422 0.10662 0.0
C723 C 0.04641 0.146 0.11964 0.0
C724 C 0.06185 0.15706 0.13166 0.0
C725 C 0.08734 0.16495 0.13089 0.0
C726 C 0.01894 0.13376 0.12093 0.0
C727 C 0.00511 0.10782 0.11905 0.0
C728 C 0.00643 0.14706 0.12416 0.0
C729 C 0.02017 0.1745 0.12619 0.0
C730 C 0.01713 0.18494 0.13897 0.0
C731 C 0.03014 0.21081 0.14096 0.0
C732 C 0.04616 0.22643 0.13019 0.0
C733 C 0.04913 0.21622 0.1174 0.0
C734 C 0.03615 0.19037 0.11537 0.0
C735 C 0.90115 0.06035 0.13409 0.0
C736 C 0.88773 0.05989 0.12173 0.0
C737 C 0.92665 0.07754 0.13518 0.0
C738 C 0.93896 0.09475 0.12404 0.0
C739 C 0.92516 0.0959 0.11237 0.0
C740 C 0.89975 0.07845 0.11115 0.0
C741 C 0.96649 0.10806 0.12322 0.0
C742 C 0.98022 0.13399 0.12524 0.0
C743 C 0.97908 0.09485 0.1201 0.0
C744 C 0.96544 0.06749 0.11777 0.0
C745 C 0.94892 0.05697 0.10607 0.0
C746 C 0.93562 0.03109 0.10416 0.0
C747 C 0.93888 0.01558 0.1138 0.0
C748 C 0.95552 0.02593 0.12535 0.0
C749 C 0.96882 0.0518 0.12733 0.0
H750 H 0.92856 0.99555 0.11231 0.0
H751 H 0.05622 0.24645 0.13175 0.0
H752 H 0.83814 0.93639 0.09115 0.0
H753 H 0.85213 0.90602 0.09222 0.0
H754 H 0.8301 0.89141 0.13695 0.0
H755 H 0.81644 0.9223 0.13607 0.0
H756 H 0.87687 0.90222 0.13363 0.0
H757 H 0.80006 0.84611 0.1107 0.0
H758 H 0.76627 0.83231 0.09275 0.0
H759 H 0.81788 0.84316 0.05872 0.0
H760 H 0.85207 0.85738 0.07643 0.0
H761 H 0.92722 0.82193 0.13564 0.0
H762 H 0.89517 0.834 0.13662 0.0
H763 H 0.91001 0.85777 0.09218 0.0
H764 H 0.94165 0.84531 0.09098 0.0
H765 H 0.86086 0.83611 0.09791 0.0
H766 H 0.9379 0.89926 0.11981 0.0
H767 H 0.97281 0.91489 0.13713 0.0
H768 H 0.92111 0.89214 0.1725 0.0
H769 H 0.88585 0.87608 0.15536 0.0
C770 C 0.83578 0.9264 0.10117 0.0
C771 C 0.82635 0.93196 0.11357 0.0
C772 C 0.84365 0.90886 0.10172 0.0
C773 C 0.84203 0.89628 0.11464 0.0
C774 C 0.8315 0.90088 0.12686 0.0
C775 C 0.82364 0.9185 0.12633 0.0
C776 C 0.85398 0.88067 0.11572 0.0
C777 C 0.87286 0.88729 0.12606 0.0
C778 C 0.84923 0.86163 0.10561 0.0
C779 C 0.82868 0.85294 0.09491 0.0
C780 C 0.80425 0.84572 0.09938 0.0
C781 C 0.78501 0.83779 0.08924 0.0
C782 C 0.78993 0.83689 0.0746 0.0
C783 C 0.81409 0.84386 0.07007 0.0
C784 C 0.8334 0.85182 0.08016 0.0
C785 C 0.92342 0.82939 0.126 0.0
C786 C 0.93724 0.83294 0.11328 0.0
C787 C 0.90512 0.83631 0.1266 0.0
C788 C 0.90049 0.84717 0.11454 0.0
C789 C 0.91328 0.84947 0.10162 0.0
C790 C 0.93147 0.84242 0.10098 0.0
C791 C 0.8839 0.85801 0.11564 0.0
C792 C 0.86433 0.8506 0.10569 0.0
C793 C 0.88808 0.87649 0.12603 0.0
C794 C 0.90925 0.8862 0.13632 0.0
C795 C 0.93398 0.89743 0.13129 0.0
C796 C 0.95382 0.90639 0.14106 0.0
C797 C 0.94918 0.90443 0.15591 0.0
C798 C 0.92467 0.89358 0.161 0.0
C799 C 0.90476 0.88456 0.15126 0.0
H800 H 0.96456 0.91138 0.16346 0.0
H801 H 0.77501 0.83076 0.06677 0.0
H802 H 0.15148 0.09391 0.14537 0.0
H803 H 0.14005 0.04997 0.14651 0.0
H804 H 0.16534 0.05394 0.10267 0.0
H805 H 0.17635 0.09763 0.10136 0.0
H806 H 0.1186 0.018 0.10566 0.0
H807 H 0.19478 0.04384 0.13146 0.0
H808 H 0.22609 0.06556 0.15054 0.0
H809 H 0.17179 0.02255 0.18294 0.0
H810 H 0.14004 0.00081 0.16406 0.0
H811 H 0.08151 0.89314 0.09975 0.0
H812 H 0.11248 0.93734 0.10218 0.0
H813 H 0.08664 0.93734 0.14543 0.0
H814 H 0.05606 0.8929 0.14323 0.0
H815 H 0.13684 0.97126 0.14262 0.0
H816 H 0.06016 0.9501 0.11791 0.0
H817 H 0.02743 0.92843 0.09952 0.0
H818 H 0.08167 0.96373 0.06583 0.0
H819 H 0.11481 0.98533 0.08405 0.0
C820 C 0.15515 0.08559 0.13609 0.0
C821 C 0.16451 0.09917 0.12321 0.0
C822 C 0.14871 0.06047 0.13678 0.0
C823 C 0.15182 0.04864 0.12466 0.0
C824 C 0.16269 0.06266 0.11213 0.0
C825 C 0.16895 0.08764 0.1114 0.0
C826 C 0.14078 0.02113 0.12433 0.0
C827 C 0.12309 0.00789 0.11356 0.0
C828 C 0.14589 0.00783 0.13496 0.0
C829 C 0.16497 0.02083 0.14634 0.0
C830 C 0.18945 0.03915 0.14266 0.0
C831 C 0.20729 0.05144 0.15344 0.0
C832 C 0.20092 0.04548 0.16795 0.0
C833 C 0.1767 0.02716 0.1717 0.0
C834 C 0.15878 0.01483 0.16096 0.0
C835 C 0.08289 0.90236 0.10993 0.0
C836 C 0.06603 0.88967 0.1212 0.0
C837 C 0.10061 0.92762 0.11131 0.0
C838 C 0.1014 0.94074 0.12385 0.0
C839 C 0.08625 0.92759 0.13563 0.0
C840 C 0.06873 0.90218 0.13434 0.0
C841 C 0.11506 0.96841 0.12384 0.0
C842 C 0.13287 0.98156 0.13459 0.0
C843 C 0.10993 0.98181 0.1133 0.0
C844 C 0.08999 0.96911 0.10233 0.0
C845 C 0.06513 0.95311 0.10658 0.0
C846 C 0.0465 0.94085 0.09619 0.0
C847 C 0.05248 0.94464 0.08152 0.0
C848 C 0.07708 0.96077 0.0772 0.0
C849 C 0.09579 0.97303 0.08755 0.0
H850 H 0.03804 0.93513 0.07349 0.0
H851 H 0.21476 0.05501 0.17628 0.0
H852 H 0.07077 0.89043 0.90422 0.0
H853 H 0.10243 0.93458 0.90372 0.0
H854 H 0.08536 0.93894 0.85905 0.0
H855 H 0.05381 0.89454 0.85936 0.0
H856 H 0.13623 0.97041 0.86553 0.0
H857 H 0.05566 0.95198 0.88366 0.0
H858 H 0.01869 0.93059 0.8994 0.0
H859 H 0.06514 0.96106 0.93688 0.0
H860 H 0.10245 0.98234 0.92134 0.0
H861 H 0.15957 0.096 0.86214 0.0
H862 H 0.14661 0.05174 0.86076 0.0
H863 H 0.15912 0.05093 0.90653 0.0
H864 H 0.17153 0.09499 0.90806 0.0
H865 H 0.11335 0.01726 0.89985 0.0
H866 H 0.19395 0.04012 0.88109 0.0
H867 H 0.23033 0.06159 0.86495 0.0
H868 H 0.18411 0.02389 0.82836 0.0
H869 H 0.14735 0.00245 0.84425 0.0
C870 C 0.07409 0.9006 0.89418 0.0
C871 C 0.05944 0.88909 0.8819 0.0
C872 C 0.09224 0.92583 0.89392 0.0
C873 C 0.09587 0.9401 0.88143 0.0
C874 C 0.08277 0.92824 0.8688 0.0
C875 C 0.06468 0.90289 0.86902 0.0
C876 C 0.11069 0.96769 0.88216 0.0
C877 C 0.13125 0.98076 0.87296 0.0
C878 C 0.10429 0.98108 0.892 0.0
C879 C 0.08186 0.96852 0.90135 0.0
C880 C 0.058 0.95396 0.89526 0.0
C881 C 0.03699 0.94188 0.90414 0.0
C882 C 0.03957 0.9444 0.91913 0.0
C883 C 0.06317 0.95908 0.92527 0.0
C884 C 0.08426 0.97117 0.91643 0.0
C885 C 0.16021 0.08658 0.87185 0.0
C886 C 0.16624 0.09893 0.88525 0.0
C887 C 0.15288 0.06125 0.87103 0.0
C888 C 0.15182 0.04796 0.88356 0.0
C889 C 0.15966 0.06077 0.89674 0.0
C890 C 0.16676 0.08598 0.89759 0.0
C891 C 0.13929 0.0203 0.88333 0.0
C892 C 0.1188 0.00709 0.89256 0.0
C893 C 0.14577 0.00697 0.87347 0.0
C894 C 0.16784 0.01983 0.86386 0.0
C895 C 0.19149 0.03656 0.86959 0.0
C896 C 0.21219 0.0487 0.86048 0.0
C897 C 0.20952 0.04415 0.84563 0.0
C898 C 0.18614 0.02741 0.83986 0.0
C899 C 0.16537 0.01524 0.84892 0.0
H900 H 0.22558 0.05357 0.8386 0.0
H901 H 0.02328 0.93504 0.92599 0.0
H902 H 0.09496 0.15815 0.86384 0.0
H903 H 0.05122 0.14714 0.86237 0.0
H904 H 0.04774 0.14933 0.90883 0.0
H905 H 0.09132 0.15986 0.91042 0.0
H906 H 0.01139 0.10693 0.89882 0.0
H907 H 0.04397 0.193 0.8872 0.0
H908 H 0.06996 0.23238 0.8741 0.0
H909 H 0.03301 0.19765 0.83443 0.0
H910 H 0.00702 0.15793 0.84725 0.0
H911 H 0.88867 0.07728 0.90319 0.0
H912 H 0.93327 0.10737 0.90354 0.0
H913 H 0.9382 0.09466 0.85821 0.0
H914 H 0.89341 0.06455 0.85769 0.0
H915 H 0.97361 0.14507 0.86809 0.0
H916 H 0.94474 0.05853 0.87928 0.0
H917 H 0.91762 0.01927 0.89221 0.0
H918 H 0.9485 0.05538 0.9327 0.0
H919 H 0.97532 0.0951 0.92001 0.0
C920 C 0.08503 0.1567 0.87374 0.0
C921 C 0.0966 0.15966 0.88725 0.0
C922 C 0.06003 0.15054 0.87288 0.0
C923 C 0.0462 0.14751 0.88549 0.0
C924 C 0.05803 0.15153 0.89896 0.0
C925 C 0.08297 0.15756 0.89984 0.0
C926 C 0.01888 0.13766 0.88474 0.0
C927 C 0.00325 0.11564 0.89233 0.0
C928 C 0.00814 0.14854 0.87592 0.0
C929 C 0.02369 0.17241 0.86817 0.0
C930 C 0.04152 0.19369 0.87566 0.0
C931 C 0.05623 0.21609 0.86829 0.0
C932 C 0.05318 0.2175 0.85344 0.0
C933 C 0.03537 0.19653 0.84593 0.0
C934 C 0.02062 0.17407 0.85325 0.0
C935 C 0.89903 0.08143 0.89317 0.0
C936 C 0.88761 0.06809 0.88048 0.0
C937 C 0.92452 0.09872 0.89339 0.0
C938 C 0.93904 0.10281 0.88098 0.0
C939 C 0.92727 0.09167 0.86791 0.0
C940 C 0.90167 0.0744 0.86765 0.0
C941 C 0.96649 0.11471 0.88229 0.0
C942 C 0.98199 0.13677 0.87473 0.0
C943 C 0.97727 0.1039 0.89109 0.0
C944 C 0.96182 0.07984 0.89871 0.0
C945 C 0.94563 0.05814 0.89095 0.0
C946 C 0.93032 0.0358 0.89823 0.0
C947 C 0.93132 0.03483 0.91327 0.0
C948 C 0.94772 0.05618 0.92105 0.0
C949 C 0.96296 0.07862 0.91382 0.0
H950 H 0.91938 0.01755 0.91889 0.0
H951 H 0.06459 0.23487 0.84775 0.0
H952 H 0.92554 0.82445 0.90851 0.0
H953 H 0.89585 0.83951 0.9083 0.0
H954 H 0.89974 0.84379 0.8618 0.0
H955 H 0.92906 0.82824 0.8619 0.0
H956 H 0.90864 0.88467 0.89948 0.0
H957 H 0.848 0.84312 0.84809 0.0
H958 H 0.82788 0.80364 0.83441 0.0
H959 H 0.82483 0.76324 0.87277 0.0
H960 H 0.84459 0.80241 0.88672 0.0
H961 H 0.83744 0.93864 0.85991 0.0
H962 H 0.85125 0.90784 0.86048 0.0
H963 H 0.84173 0.90193 0.90671 0.0
H964 H 0.82833 0.93289 0.9063 0.0
H965 H 0.83286 0.85949 0.86989 0.0
H966 H 0.89101 0.90136 0.92159 0.0
H967 H 0.91263 0.94144 0.93468 0.0
H968 H 0.92232 0.98112 0.89498 0.0
H969 H 0.9009 0.94132 0.88167 0.0
C970 C 0.91962 0.82799 0.89821 0.0
C971 C 0.9299 0.82541 0.88523 0.0
C972 C 0.90265 0.83663 0.89811 0.0
C973 C 0.89561 0.84287 0.88505 0.0
C974 C 0.90461 0.8388 0.87201 0.0
C975 C 0.92148 0.82999 0.87209 0.0
C976 C 0.88166 0.85663 0.8852 0.0
C977 C 0.89173 0.87879 0.89325 0.0
C978 C 0.86011 0.84949 0.87668 0.0
C979 C 0.848 0.82577 0.86842 0.0
C980 C 0.84294 0.82581 0.85362 0.0
C981 C 0.83162 0.80347 0.84582 0.0
C982 C 0.82515 0.78095 0.85271 0.0
C983 C 0.82994 0.78071 0.86743 0.0
C984 C 0.84124 0.80298 0.87529 0.0
C985 C 0.83792 0.93051 0.87018 0.0
C986 C 0.83214 0.93852 0.88309 0.0
C987 C 0.84574 0.91285 0.87047 0.0
C988 C 0.84791 0.90293 0.88366 0.0
C989 C 0.84059 0.90968 0.89644 0.0
C990 C 0.83292 0.92739 0.89617 0.0
C991 C 0.8598 0.88725 0.88425 0.0
C992 C 0.84952 0.865 0.87627 0.0
C993 C 0.8813 0.89429 0.89277 0.0
C994 C 0.89411 0.91835 0.90068 0.0
C995 C 0.89776 0.91865 0.91567 0.0
C996 C 0.90996 0.94132 0.92312 0.0
C997 C 0.91874 0.96381 0.91568 0.0
C998 C 0.91536 0.96369 0.90076 0.0
C999 C 0.90315 0.94108 0.89325 0.0
H1000 H 0.92826 0.98133 0.92146 0.0
H1001 H 0.8164 0.76369 0.84664 0.0
H1002 H 0.75692 0.49177 0.42696 0.0
H1003 H 0.71318 0.47906 0.43023 0.0
H1004 H 0.72398 0.48743 0.47635 0.0
H1005 H 0.76791 0.49965 0.47319 0.0
H1006 H 0.68688 0.44312 0.47015 0.0
H1007 H 0.70785 0.52512 0.45632 0.0
H1008 H 0.72741 0.56364 0.44177 0.0
H1009 H 0.68428 0.52278 0.40489 0.0
H1010 H 0.66471 0.48393 0.41915 0.0
H1011 H 0.55628 0.39247 0.47545 0.0
H1012 H 0.60029 0.42462 0.47727 0.0
H1013 H 0.60863 0.42069 0.43128 0.0
H1014 H 0.56468 0.38882 0.4293 0.0
H1015 H 0.63587 0.46875 0.4413 0.0
H1016 H 0.62246 0.38666 0.45381 0.0
H1017 H 0.60352 0.34752 0.46782 0.0
H1018 H 0.63345 0.38913 0.50697 0.0
H1019 H 0.6523 0.42856 0.49319 0.0
C1020 C 0.7502 0.49145 0.4378 0.0
C1021 C 0.76591 0.49648 0.44983 0.0
C1022 C 0.72513 0.48434 0.43965 0.0
C1023 C 0.71524 0.48241 0.45354 0.0
C1024 C 0.7312 0.48881 0.46553 0.0
C1025 C 0.75633 0.49585 0.4637 0.0
C1026 C 0.68781 0.47065 0.4555 0.0
C1027 C 0.6758 0.44921 0.46416 0.0
C1028 C 0.67325 0.4782 0.44744 0.0
C1029 C 0.68488 0.50156 0.43881 0.0
C1030 C 0.70264 0.5243 0.44508 0.0
C1031 C 0.71372 0.54621 0.43689 0.0
C1032 C 0.70711 0.54565 0.42241 0.0
C1033 C 0.68937 0.52319 0.41611 0.0
C1034 C 0.67825 0.50122 0.42425 0.0
C1035 C 0.56736 0.39873 0.46568 0.0
C1036 C 0.55702 0.38781 0.45225 0.0
C1037 C 0.59251 0.41709 0.46676 0.0
C1038 C 0.60779 0.42478 0.45444 0.0
C1039 C 0.59717 0.41501 0.44092 0.0
C1040 C 0.57205 0.39667 0.43983 0.0
C1041 C 0.63521 0.44112 0.4557 0.0
C1042 C 0.64711 0.46323 0.4476 0.0
C1043 C 0.64976 0.43421 0.46423 0.0
C1044 C 0.6385 0.41054 0.4725 0.0
C1045 C 0.62483 0.38746 0.46542 0.0
C1046 C 0.61414 0.36523 0.47331 0.0
C1047 C 0.61721 0.36585 0.48828 0.0
C1048 C 0.63104 0.38869 0.49538 0.0
C1049 C 0.64173 0.41098 0.48753 0.0
H1050 H 0.60893 0.34862 0.49437 0.0
H1051 H 0.71572 0.56263 0.41608 0.0
H1052 H 0.4832 0.24748 0.4357 0.0
H1053 H 0.49493 0.21583 0.43988 0.0
H1054 H 0.50093 0.23137 0.48556 0.0
H1055 H 0.48929 0.26329 0.48146 0.0
H1056 H 0.54339 0.23647 0.47462 0.0
H1057 H 0.45805 0.17386 0.47336 0.0
H1058 H 0.41481 0.1513 0.4643 0.0
H1059 H 0.43988 0.13465 0.42483 0.0
H1060 H 0.48335 0.15742 0.43354 0.0
H1061 H 0.59755 0.15975 0.47841 0.0
H1062 H 0.566 0.17156 0.48349 0.0
H1063 H 0.54862 0.16683 0.4381 0.0
H1064 H 0.57971 0.1547 0.43294 0.0
H1065 H 0.50691 0.15108 0.45435 0.0
H1066 H 0.59129 0.22174 0.45299 0.0
H1067 H 0.63527 0.24645 0.46065 0.0
H1068 H 0.61196 0.24942 0.50392 0.0
H1069 H 0.5678 0.22444 0.49653 0.0
C1070 C 0.4864 0.24378 0.44669 0.0
C1071 C 0.4856 0.25814 0.45823 0.0
C1072 C 0.49294 0.22551 0.44908 0.0
C1073 C 0.49877 0.22119 0.46304 0.0
C1074 C 0.49646 0.23438 0.4747 0.0
C1075 C 0.48975 0.25259 0.47233 0.0
C1076 C 0.51075 0.20577 0.46499 0.0
C1077 C 0.53508 0.21749 0.47059 0.0
C1078 C 0.50017 0.18126 0.45942 0.0
C1079 C 0.47402 0.16748 0.4541 0.0
C1080 C 0.45439 0.16555 0.4627 0.0
C1081 C 0.42982 0.15269 0.45763 0.0
C1082 C 0.42461 0.14157 0.44399 0.0
C1083 C 0.44395 0.14326 0.4354 0.0
C1084 C 0.46856 0.15611 0.44041 0.0
C1085 C 0.58666 0.16072 0.46954 0.0
C1086 C 0.59144 0.15665 0.45524 0.0
C1087 C 0.56866 0.16751 0.47247 0.0
C1088 C 0.55525 0.17045 0.46114 0.0
C1089 C 0.55877 0.16471 0.447 0.0
C1090 C 0.5767 0.15791 0.44407 0.0
C1091 C 0.53963 0.18208 0.46365 0.0
C1092 C 0.51479 0.16973 0.45881 0.0
C1093 C 0.54978 0.20617 0.46978 0.0
C1094 C 0.57629 0.22095 0.47426 0.0
C1095 C 0.59556 0.22747 0.46417 0.0
C1096 C 0.62051 0.24155 0.46845 0.0
C1097 C 0.6264 0.24943 0.48277 0.0
C1098 C 0.60736 0.24325 0.49284 0.0
C1099 C 0.58237 0.22913 0.48861 0.0
H1100 H 0.64571 0.26042 0.48606 0.0
H1101 H 0.40557 0.13162 0.44009 0.0
H1102 H 0.8332 0.42972 0.47018 0.0
H1103 H 0.82149 0.38579 0.47227 0.0
H1104 H 0.80846 0.37662 0.42633 0.0
H1105 H 0.82063 0.42042 0.4241 0.0
H1106 H 0.77724 0.34816 0.46718 0.0
H1107 H 0.81392 0.32964 0.41305 0.0
H1108 H 0.85143 0.35053 0.39771 0.0
H1109 H 0.89503 0.3926 0.43417 0.0
H1110 H 0.85788 0.37171 0.44979 0.0
H1111 H 0.71909 0.22941 0.42401 0.0
H1112 H 0.75172 0.27299 0.4262 0.0
H1113 H 0.7613 0.26144 0.47113 0.0
H1114 H 0.72839 0.21775 0.4691 0.0
H1115 H 0.80116 0.29987 0.43465 0.0
H1116 H 0.76691 0.31238 0.48949 0.0
H1117 H 0.7296 0.29166 0.50507 0.0
H1118 H 0.68275 0.26312 0.4676 0.0
H1119 H 0.71974 0.28396 0.45182 0.0
C1120 C 0.82836 0.41848 0.46047 0.0
C1121 C 0.82768 0.42857 0.44698 0.0
C1122 C 0.82165 0.39336 0.4617 0.0
C1123 C 0.81423 0.37789 0.44946 0.0
C1124 C 0.81458 0.38822 0.4359 0.0
C1125 C 0.82138 0.41331 0.43466 0.0
C1126 C 0.80331 0.35048 0.45095 0.0
C1127 C 0.78298 0.33769 0.46034 0.0
C1128 C 0.8105 0.3367 0.4419 0.0
C1129 C 0.83302 0.34918 0.43258 0.0
C1130 C 0.83153 0.34323 0.41783 0.0
C1131 C 0.85273 0.35511 0.40907 0.0
C1132 C 0.87559 0.37292 0.41495 0.0
C1133 C 0.8773 0.37885 0.42961 0.0
C1134 C 0.85616 0.36703 0.43842 0.0
C1135 C 0.7284 0.23596 0.43431 0.0
C1136 C 0.72083 0.22018 0.44644 0.0
C1137 C 0.74717 0.26088 0.43552 0.0
C1138 C 0.75866 0.27052 0.44887 0.0
C1139 C 0.75243 0.25441 0.46076 0.0
C1140 C 0.73364 0.22944 0.45957 0.0
C1141 C 0.77489 0.29785 0.45058 0.0
C1142 C 0.79603 0.31053 0.44175 0.0
C1143 C 0.76857 0.3116 0.46019 0.0
C1144 C 0.74611 0.29944 0.46951 0.0
C1145 C 0.74863 0.30175 0.48459 0.0
C1146 C 0.72755 0.28999 0.49345 0.0
C1147 C 0.70383 0.27599 0.48733 0.0
C1148 C 0.70113 0.27388 0.47233 0.0
C1149 C 0.72215 0.28565 0.46343 0.0
H1150 H 0.68757 0.26682 0.49422 0.0
H1151 H 0.89197 0.38209 0.40815 0.0
H1152 H 0.75429 0.21832 0.22119 0.0
H1153 H 0.78517 0.26284 0.21969 0.0
H1154 H 0.73455 0.27451 0.1931 0.0
H1155 H 0.70462 0.22995 0.19373 0.0
H1156 H 0.77769 0.30704 0.18587 0.0
H1157 H 0.73704 0.27904 0.23205 0.0
H1158 H 0.72471 0.25384 0.25434 0.0
H1159 H 0.80183 0.28412 0.26572 0.0
H1160 H 0.8146 0.30928 0.24338 0.0
H1161 H 0.79821 0.41743 0.2342 0.0
H1162 H 0.78514 0.37357 0.23127 0.0
H1163 H 0.84079 0.39241 0.19808 0.0
H1164 H 0.85299 0.43653 0.20042 0.0
H1165 H 0.80222 0.34508 0.23455 0.0
H1166 H 0.82083 0.3458 0.17346 0.0
H1167 H 0.82436 0.37042 0.1517 0.0
H1168 H 0.77679 0.39429 0.17118 0.0
H1169 H 0.77277 0.3696 0.19296 0.0
C1170 C 0.75018 0.23034 0.21466 0.0
C1171 C 0.727 0.22078 0.20769 0.0
C1172 C 0.76772 0.2558 0.2139 0.0
C1173 C 0.7619 0.27226 0.2067 0.0
C1174 C 0.73954 0.26234 0.1988 0.0
C1175 C 0.72237 0.23679 0.19917 0.0
C1176 C 0.77741 0.29978 0.20864 0.0
C1177 C 0.78326 0.31534 0.19651 0.0
C1178 C 0.78437 0.31079 0.22253 0.0
C1179 C 0.77677 0.29577 0.23598 0.0
C1180 C 0.75136 0.2802 0.23927 0.0
C1181 C 0.74429 0.26594 0.25191 0.0
C1182 C 0.76248 0.26731 0.26142 0.0
C1183 C 0.78777 0.28302 0.25832 0.0
C1184 C 0.79493 0.29728 0.24568 0.0
C1185 C 0.80789 0.41233 0.22638 0.0
C1186 C 0.82651 0.43043 0.21746 0.0
C1187 C 0.80042 0.38716 0.22472 0.0
C1188 C 0.81167 0.37949 0.2143 0.0
C1189 C 0.83136 0.39772 0.20596 0.0
C1190 C 0.83845 0.42295 0.20737 0.0
C1191 C 0.80167 0.35233 0.21183 0.0
C1192 C 0.79708 0.33683 0.22387 0.0
C1193 C 0.79461 0.34135 0.19795 0.0
C1194 C 0.79681 0.35615 0.18489 0.0
C1195 C 0.81112 0.35629 0.17307 0.0
C1196 C 0.81319 0.37025 0.16074 0.0
C1197 C 0.8009 0.38399 0.16008 0.0
C1198 C 0.7864 0.38373 0.17173 0.0
C1199 C 0.78423 0.36978 0.18407 0.0
H1200 H 0.80255 0.3948 0.15054 0.0
H1201 H 0.75698 0.25626 0.2712 0.0
H1202 H 0.76553 0.51442 0.23078 0.0
H1203 H 0.72111 0.50071 0.229 0.0
H1204 H 0.71806 0.46841 0.18728 0.0
H1205 H 0.76258 0.48216 0.18891 0.0
H1206 H 0.68579 0.50263 0.20889 0.0
H1207 H 0.67008 0.40798 0.19057 0.0
H1208 H 0.69227 0.38409 0.18996 0.0
H1209 H 0.73212 0.42109 0.22854 0.0
H1210 H 0.70988 0.44485 0.22949 0.0
H1211 H 0.55451 0.40612 0.19724 0.0
H1212 H 0.59914 0.43627 0.19449 0.0
H1213 H 0.61317 0.41709 0.23683 0.0
H1214 H 0.56883 0.38734 0.23981 0.0
H1215 H 0.63969 0.41027 0.21305 0.0
H1216 H 0.62103 0.47073 0.23384 0.0
H1217 H 0.59933 0.49496 0.23516 0.0
H1218 H 0.62781 0.52634 0.19337 0.0
H1219 H 0.6494 0.50199 0.19171 0.0
C1220 C 0.75559 0.50503 0.22103 0.0
C1221 C 0.76745 0.49897 0.2101 0.0
C1222 C 0.73025 0.49739 0.21999 0.0
C1223 C 0.71632 0.48334 0.20809 0.0
C1224 C 0.72855 0.4792 0.19657 0.0
C1225 C 0.75398 0.48705 0.19753 0.0
C1226 C 0.68876 0.4694 0.209 0.0
C1227 C 0.67561 0.48243 0.20963 0.0
C1228 C 0.67561 0.44308 0.21018 0.0
C1229 C 0.68855 0.42837 0.20999 0.0
C1230 C 0.6835 0.4109 0.19895 0.0
C1231 C 0.69609 0.3974 0.19855 0.0
C1232 C 0.71366 0.40114 0.20918 0.0
C1233 C 0.71858 0.41827 0.22029 0.0
C1234 C 0.70599 0.43176 0.22076 0.0
C1235 C 0.56701 0.40875 0.2061 0.0
C1236 C 0.55811 0.39411 0.21869 0.0
C1237 C 0.59247 0.42599 0.20451 0.0
C1238 C 0.60936 0.42869 0.21542 0.0
C1239 C 0.60037 0.41516 0.22828 0.0
C1240 C 0.57498 0.39819 0.22996 0.0
C1241 C 0.63658 0.44343 0.21295 0.0
C1242 C 0.64971 0.43045 0.21204 0.0
C1243 C 0.64957 0.46971 0.21159 0.0
C1244 C 0.63657 0.48429 0.21257 0.0
C1245 C 0.62244 0.48258 0.22486 0.0
C1246 C 0.61022 0.49639 0.22569 0.0
C1247 C 0.61212 0.51211 0.21434 0.0
C1248 C 0.62631 0.51411 0.20215 0.0
C1249 C 0.63856 0.50032 0.20126 0.0
H1250 H 0.60265 0.5228 0.215 0.0
H1251 H 0.72344 0.39072 0.20882 0.0
H1252 H 0.46933 0.2436 0.23053 0.0
H1253 H 0.48283 0.21255 0.23039 0.0
H1254 H 0.53728 0.25479 0.1975 0.0
H1255 H 0.5225 0.28467 0.19688 0.0
H1256 H 0.52454 0.20994 0.19359 0.0
H1257 H 0.54963 0.26239 0.23597 0.0
H1258 H 0.54268 0.28069 0.25792 0.0
H1259 H 0.49908 0.20758 0.2763 0.0
H1260 H 0.50554 0.18883 0.25436 0.0
H1261 H 0.62481 0.19754 0.23654 0.0
H1262 H 0.59454 0.21161 0.23503 0.0
H1263 H 0.54721 0.1483 0.20815 0.0
H1264 H 0.57835 0.1349 0.20896 0.0
H1265 H 0.5505 0.19756 0.24213 0.0
H1266 H 0.51556 0.16345 0.18426 0.0
H1267 H 0.5298 0.15293 0.16181 0.0
H1268 H 0.60612 0.20249 0.17375 0.0
H1269 H 0.59231 0.2135 0.19616 0.0
C1270 C 0.48367 0.24577 0.22299 0.0
C1271 C 0.49504 0.26658 0.2138 0.0
C1272 C 0.49154 0.22816 0.22299 0.0
C1273 C 0.51168 0.23172 0.21429 0.0
C1274 C 0.52179 0.2516 0.20438 0.0
C1275 C 0.51336 0.26873 0.20403 0.0
C1276 C 0.52393 0.21648 0.2164 0.0
C1277 C 0.53002 0.20706 0.20422 0.0
C1278 C 0.53152 0.21298 0.23024 0.0
C1279 C 0.52781 0.22421 0.24348 0.0
C1280 C 0.53846 0.25022 0.24467 0.0
C1281 C 0.53461 0.26067 0.2571 0.0
C1282 C 0.52038 0.2453 0.26848 0.0
C1283 C 0.51005 0.21945 0.26746 0.0
C1284 C 0.51379 0.2089 0.25504 0.0
C1285 C 0.60784 0.18642 0.23043 0.0
C1286 C 0.60408 0.16525 0.22274 0.0
C1287 C 0.59046 0.19447 0.22959 0.0
C1288 C 0.56872 0.18131 0.22125 0.0
C1289 C 0.56413 0.15918 0.21434 0.0
C1290 C 0.58185 0.15143 0.21489 0.0
C1291 C 0.55183 0.19174 0.21928 0.0
C1292 C 0.54468 0.20007 0.23151 0.0
C1293 C 0.5444 0.19537 0.20543 0.0
C1294 C 0.55289 0.18901 0.19196 0.0
C1295 C 0.53537 0.17211 0.18207 0.0
C1296 C 0.54336 0.16607 0.16936 0.0
C1297 C 0.56885 0.17695 0.16639 0.0
C1298 C 0.58639 0.19399 0.17609 0.0
C1299 C 0.57849 0.20012 0.1888 0.0
H1300 H 0.575 0.17224 0.15655 0.0
H1301 H 0.51741 0.25342 0.27809 0.0
H1302 H 0.21581 0.75117 0.78026 0.0
H1303 H 0.25977 0.78377 0.78214 0.0
H1304 H 0.27453 0.7342 0.80775 0.0
H1305 H 0.23042 0.70273 0.80694 0.0
H1306 H 0.30532 0.77684 0.81565 0.0
H1307 H 0.27953 0.73994 0.7681 0.0
H1308 H 0.25479 0.72908 0.74564 0.0
H1309 H 0.28203 0.80675 0.73726 0.0
H1310 H 0.30671 0.81803 0.75977 0.0
H1311 H 0.41471 0.80002 0.76601 0.0
H1312 H 0.37125 0.78789 0.76943 0.0
H1313 H 0.39173 0.84062 0.8045 0.0
H1314 H 0.43552 0.85165 0.80168 0.0
H1315 H 0.34382 0.80597 0.76742 0.0
H1316 H 0.34428 0.82021 0.82873 0.0
H1317 H 0.36867 0.82238 0.85035 0.0
H1318 H 0.39209 0.77541 0.82964 0.0
H1319 H 0.36764 0.77277 0.80798 0.0
C1320 C 0.22842 0.74766 0.78664 0.0
C1321 C 0.2199 0.72447 0.79337 0.0
C1322 C 0.25356 0.76617 0.78761 0.0
C1323 C 0.27078 0.76123 0.79466 0.0
C1324 C 0.2618 0.73861 0.8022 0.0
C1325 C 0.23654 0.72053 0.8017 0.0
C1326 C 0.29822 0.77802 0.79296 0.0
C1327 C 0.31371 0.78337 0.8051 0.0
C1328 C 0.30941 0.7865 0.77921 0.0
C1329 C 0.29467 0.77979 0.76568 0.0
C1330 C 0.28011 0.75467 0.76149 0.0
C1331 C 0.26612 0.74845 0.74876 0.0
C1332 C 0.26677 0.76721 0.74006 0.0
C1333 C 0.28149 0.79224 0.74404 0.0
C1334 C 0.29548 0.79856 0.75677 0.0
C1335 C 0.41007 0.80926 0.77438 0.0
C1336 C 0.42853 0.82666 0.78366 0.0
C1337 C 0.38511 0.80235 0.77631 0.0
C1338 C 0.37797 0.81303 0.78736 0.0
C1339 C 0.3966 0.83159 0.79612 0.0
C1340 C 0.42164 0.83804 0.79445 0.0
C1341 C 0.35089 0.8034 0.78997 0.0
C1342 C 0.33547 0.7998 0.77801 0.0
C1343 C 0.33977 0.79522 0.80374 0.0
C1344 C 0.35445 0.79661 0.8167 0.0
C1345 C 0.35464 0.81035 0.82882 0.0
C1346 C 0.36845 0.81165 0.84107 0.0
C1347 C 0.38201 0.79913 0.84134 0.0
C1348 C 0.38168 0.78518 0.82939 0.0
C1349 C 0.36786 0.7838 0.81713 0.0
H1350 H 0.39271 0.80018 0.85083 0.0
H1351 H 0.25592 0.76235 0.73021 0.0
H1352 H 0.27109 0.50198 0.75682 0.0
H1353 H 0.24072 0.51616 0.75665 0.0
H1354 H 0.2357 0.51073 0.80307 0.0
H1355 H 0.26604 0.49629 0.80338 0.0
H1356 H 0.18941 0.4964 0.78965 0.0
H1357 H 0.27377 0.56517 0.78943 0.0
H1358 H 0.31719 0.58939 0.78077 0.0
H1359 H 0.29116 0.59638 0.73901 0.0
H1360 H 0.24753 0.57198 0.74741 0.0
H1361 H 0.15512 0.58958 0.80352 0.0
H1362 H 0.17125 0.56072 0.80252 0.0
H1363 H 0.18242 0.57264 0.75658 0.0
H1364 H 0.16678 0.60181 0.75753 0.0
H1365 H 0.2241 0.58174 0.76956 0.0
H1366 H 0.13897 0.51561 0.77088 0.0
H1367 H 0.09596 0.49208 0.78024 0.0
H1368 H 0.12324 0.48064 0.82048 0.0
H1369 H 0.16647 0.50441 0.81144 0.0
C1370 C 0.26327 0.50338 0.767 0.0
C1371 C 0.27129 0.49834 0.78014 0.0
C1372 C 0.24589 0.51148 0.76687 0.0
C1373 C 0.23628 0.51483 0.77986 0.0
C1374 C 0.24295 0.50828 0.79293 0.0
C1375 C 0.26037 0.50014 0.79308 0.0
C1376 C 0.22135 0.52752 0.77983 0.0
C1377 C 0.19697 0.51513 0.78537 0.0
C1378 C 0.23119 0.55182 0.77408 0.0
C1379 C 0.2574 0.56654 0.769 0.0
C1380 C 0.27731 0.57171 0.77837 0.0
C1381 C 0.30195 0.58549 0.77351 0.0
C1382 C 0.30693 0.59434 0.75933 0.0
C1383 C 0.28727 0.58948 0.74999 0.0
C1384 C 0.26258 0.5757 0.75479 0.0
C1385 C 0.16044 0.5856 0.79314 0.0
C1386 C 0.15995 0.59823 0.78063 0.0
C1387 C 0.1696 0.56901 0.79258 0.0
C1388 C 0.17811 0.56455 0.77947 0.0
C1389 C 0.17609 0.57591 0.76683 0.0
C1390 C 0.16711 0.59257 0.76739 0.0
C1391 C 0.19183 0.55057 0.77918 0.0
C1392 C 0.21625 0.56287 0.77369 0.0
C1393 C 0.18198 0.52631 0.78505 0.0
C1394 C 0.156 0.512 0.79052 0.0
C1395 C 0.13583 0.50827 0.78177 0.0
C1396 C 0.1114 0.49484 0.78701 0.0
C1397 C 0.10687 0.48492 0.80096 0.0
C1398 C 0.12677 0.48836 0.80968 0.0
C1399 C 0.15124 0.50178 0.8045 0.0
H1400 H 0.08794 0.47453 0.80499 0.0
H1401 H 0.32602 0.60504 0.75559 0.0
H1402 H 0.4854 0.76066 0.80903 0.0
H1403 H 0.4739 0.71675 0.81091 0.0
H1404 H 0.49138 0.71647 0.76585 0.0
H1405 H 0.50254 0.76012 0.76382 0.0
H1406 H 0.4451 0.68069 0.77185 0.0
H1407 H 0.52616 0.70985 0.79254 0.0
H1408 H 0.56074 0.73361 0.80957 0.0
H1409 H 0.51311 0.69314 0.84514 0.0
H1410 H 0.47813 0.66936 0.82835 0.0
H1411 H 0.41368 0.55775 0.76613 0.0
H1412 H 0.44363 0.60229 0.76798 0.0
H1413 H 0.42108 0.60226 0.81203 0.0
H1414 H 0.3913 0.55749 0.81037 0.0
H1415 H 0.47188 0.63808 0.80695 0.0
H1416 H 0.39061 0.61205 0.78714 0.0
H1417 H 0.35518 0.58784 0.77073 0.0
H1418 H 0.40234 0.62352 0.73414 0.0
H1419 H 0.43826 0.64749 0.75035 0.0
C1420 C 0.48731 0.7514 0.7996 0.0
C1421 C 0.49459 0.76381 0.78623 0.0
C1422 C 0.48082 0.72631 0.80071 0.0
C1423 C 0.48176 0.71332 0.78851 0.0
C1424 C 0.49043 0.72611 0.77539 0.0
C1425 C 0.4968 0.75108 0.77425 0.0
C1426 C 0.47093 0.68585 0.78892 0.0
C1427 C 0.45136 0.67147 0.77934 0.0
C1428 C 0.47843 0.67374 0.79906 0.0
C1429 C 0.49945 0.68797 0.80918 0.0
C1430 C 0.52299 0.70616 0.804 0.0
C1431 C 0.54268 0.7196 0.81361 0.0
C1432 C 0.53911 0.71493 0.82843 0.0
C1433 C 0.51585 0.69675 0.83366 0.0
C1434 C 0.49609 0.68327 0.8241 0.0
C1435 C 0.41562 0.56702 0.77636 0.0
C1436 C 0.39976 0.55422 0.78801 0.0
C1437 C 0.43278 0.59247 0.77741 0.0
C1438 C 0.43411 0.60563 0.79003 0.0
C1439 C 0.42024 0.59244 0.80218 0.0
C1440 C 0.40318 0.56685 0.80119 0.0
C1441 C 0.44655 0.63322 0.78968 0.0
C1442 C 0.46602 0.64748 0.79935 0.0
C1443 C 0.43887 0.64539 0.77971 0.0
C1444 C 0.41718 0.63135 0.76995 0.0
C1445 C 0.39347 0.6146 0.7756 0.0
C1446 C 0.3733 0.60092 0.76633 0.0
C1447 C 0.3765 0.60412 0.7514 0.0
C1448 C 0.3999 0.62103 0.74571 0.0
C1449 C 0.42018 0.63465 0.75493 0.0
H1450 H 0.36085 0.59353 0.74425 0.0
H1451 H 0.55437 0.72536 0.83585 0.0
H1452 H 0.5082 0.77028 0.5267 0.0
H1453 H 0.49411 0.72616 0.5223 0.0
H1454 H 0.4721 0.70946 0.56689 0.0
H1455 H 0.48626 0.75335 0.57147 0.0
H1456 H 0.50087 0.68501 0.53778 0.0
H1457 H 0.40972 0.66624 0.56364 0.0
H1458 H 0.38691 0.68854 0.56905 0.0
H1459 H 0.41823 0.734 0.53129 0.0
H1460 H 0.44077 0.71163 0.52554 0.0
H1461 H 0.41266 0.56018 0.56029 0.0
H1462 H 0.44334 0.60426 0.55672 0.0
H1463 H 0.40475 0.60532 0.5182 0.0
H1464 H 0.37413 0.56111 0.52157 0.0
H1465 H 0.40826 0.63863 0.54 0.0
H1466 H 0.46137 0.61671 0.51423 0.0
H1467 H 0.48485 0.59475 0.5101 0.0
H1468 H 0.52948 0.62961 0.54768 0.0
H1469 H 0.50602 0.65151 0.55217 0.0
C1470 C 0.50102 0.75736 0.53568 0.0
C1471 C 0.49797 0.76529 0.54939 0.0
C1472 C 0.49313 0.73219 0.53314 0.0
C1473 C 0.48192 0.71466 0.54425 0.0
C1474 C 0.48071 0.7228 0.55819 0.0
C1475 C 0.48875 0.74791 0.56076 0.0
C1476 C 0.46783 0.68771 0.54092 0.0
C1477 C 0.48063 0.67478 0.53817 0.0
C1478 C 0.44146 0.6746 0.54127 0.0
C1479 C 0.42709 0.68742 0.54425 0.0
C1480 C 0.41156 0.68087 0.55645 0.0
C1481 C 0.3987 0.69353 0.55957 0.0
C1482 C 0.40117 0.71273 0.55055 0.0
C1483 C 0.41636 0.71917 0.53831 0.0
C1484 C 0.42919 0.70651 0.53511 0.0
C1485 C 0.4111 0.5696 0.55083 0.0
C1486 C 0.39082 0.55725 0.5413 0.0
C1487 C 0.42872 0.59476 0.54877 0.0
C1488 C 0.42625 0.608 0.53722 0.0
C1489 C 0.40698 0.59534 0.52716 0.0
C1490 C 0.38953 0.57008 0.52909 0.0
C1491 C 0.44119 0.63558 0.53703 0.0
C1492 C 0.42849 0.64874 0.53929 0.0
C1493 C 0.46758 0.64871 0.53626 0.0
C1494 C 0.48179 0.63563 0.53359 0.0
C1495 C 0.47604 0.61954 0.52169 0.0
C1496 C 0.48939 0.60713 0.51927 0.0
C1497 C 0.50862 0.61075 0.52864 0.0
C1498 C 0.51458 0.62682 0.54043 0.0
C1499 C 0.50128 0.63927 0.54291 0.0
H1500 H 0.51892 0.60113 0.52674 0.0
H1501 H 0.39131 0.72259 0.55306 0.0
H1502 H 0.23124 0.73513 0.57331 0.0
H1503 H 0.27533 0.76602 0.57078 0.0
H1504 H 0.26541 0.76981 0.52494 0.0
H1505 H 0.22118 0.73866 0.52734 0.0
H1506 H 0.30127 0.75914 0.53057 0.0
H1507 H 0.28278 0.82107 0.54607 0.0
H1508 H 0.26412 0.84024 0.5612 0.0
H1509 H 0.30591 0.83865 0.59779 0.0
H1510 H 0.32456 0.81912 0.58294 0.0
H1511 H 0.43282 0.8338 0.52709 0.0
H1512 H 0.38941 0.8239 0.52466 0.0
H1513 H 0.37907 0.81164 0.57061 0.0
H1514 H 0.42239 0.82202 0.57319 0.0
H1515 H 0.35372 0.83332 0.56091 0.0
H1516 H 0.364 0.76326 0.5468 0.0
H1517 H 0.38173 0.74248 0.53227 0.0
H1518 H 0.35422 0.75839 0.49352 0.0
H1519 H 0.33655 0.77956 0.50782 0.0
C1520 C 0.23825 0.74294 0.56273 0.0
C1521 C 0.22271 0.73418 0.55051 0.0
C1522 C 0.26349 0.76076 0.56131 0.0
C1523 C 0.27369 0.77028 0.54767 0.0
C1524 C 0.25792 0.76272 0.53557 0.0
C1525 C 0.23261 0.74493 0.53698 0.0
C1526 C 0.30118 0.78531 0.54589 0.0
C1527 C 0.31272 0.77579 0.5369 0.0
C1528 C 0.31613 0.80671 0.55438 0.0
C1529 C 0.30498 0.81849 0.56339 0.0
C1530 C 0.28786 0.82462 0.55737 0.0
C1531 C 0.2773 0.83559 0.5659 0.0
C1532 C 0.2838 0.84063 0.58045 0.0
C1533 C 0.3009 0.83474 0.58651 0.0
C1534 C 0.3115 0.82376 0.57804 0.0
C1535 C 0.42142 0.82938 0.53671 0.0
C1536 C 0.43101 0.82838 0.55031 0.0
C1537 C 0.3966 0.82369 0.5353 0.0
C1538 C 0.38088 0.81664 0.54743 0.0
C1539 C 0.39082 0.81701 0.56109 0.0
C1540 C 0.41561 0.82282 0.56253 0.0
C1541 C 0.35363 0.80671 0.5459 0.0
C1542 C 0.3422 0.8171 0.55429 0.0
C1543 C 0.33867 0.78598 0.53694 0.0
C1544 C 0.34926 0.77326 0.52835 0.0
C1545 C 0.36191 0.76249 0.53517 0.0
C1546 C 0.37192 0.75062 0.52698 0.0
C1547 C 0.3692 0.74919 0.51198 0.0
C1548 C 0.35638 0.75957 0.50514 0.0
C1549 C 0.34636 0.7715 0.51328 0.0
H1550 H 0.37697 0.73998 0.50567 0.0
H1551 H 0.2756 0.84912 0.58704 0.0
H1552 H 0.24188 0.47092 0.53951 0.0
H1553 H 0.21054 0.48412 0.53847 0.0
H1554 H 0.25425 0.54367 0.56849 0.0
H1555 H 0.28439 0.52962 0.57026 0.0
H1556 H 0.21015 0.5291 0.57424 0.0
H1557 H 0.25583 0.54996 0.5292 0.0
H1558 H 0.27105 0.54111 0.50659 0.0
H1559 H 0.19553 0.49335 0.49256 0.0
H1560 H 0.17988 0.50174 0.51518 0.0
H1561 H 0.18994 0.62353 0.53073 0.0
H1562 H 0.20314 0.59241 0.531 0.0
H1563 H 0.14618 0.5495 0.56258 0.0
H1564 H 0.13445 0.58189 0.56318 0.0
H1565 H 0.18926 0.54803 0.52592 0.0
H1566 H 0.16477 0.52087 0.58571 0.0
H1567 H 0.15792 0.538 0.60821 0.0
H1568 H 0.20555 0.61253 0.59265 0.0
H1569 H 0.21289 0.59582 0.57015 0.0
C1570 C 0.24447 0.48653 0.54607 0.0
C1571 C 0.26563 0.49928 0.55493 0.0
C1572 C 0.22667 0.4942 0.54539 0.0
C1573 C 0.2302 0.51527 0.55316 0.0
C1574 C 0.2509 0.52733 0.5624 0.0
C1575 C 0.26824 0.51929 0.56338 0.0
C1576 C 0.21345 0.5259 0.55128 0.0
C1577 C 0.20545 0.53305 0.56365 0.0
C1578 C 0.20736 0.53131 0.53749 0.0
C1579 C 0.2167 0.5262 0.52394 0.0
C1580 C 0.24249 0.53744 0.52133 0.0
C1581 C 0.25119 0.53253 0.50851 0.0
C1582 C 0.23427 0.51661 0.49817 0.0
C1583 C 0.20861 0.50562 0.5006 0.0
C1584 C 0.19981 0.51044 0.51341 0.0
C1585 C 0.18001 0.60725 0.53756 0.0
C1586 C 0.16143 0.6052 0.54707 0.0
C1587 C 0.1875 0.58938 0.5377 0.0
C1588 C 0.17613 0.56882 0.5471 0.0
C1589 C 0.15588 0.56559 0.5556 0.0
C1590 C 0.14902 0.58396 0.55586 0.0
C1591 C 0.18711 0.55233 0.54888 0.0
C1592 C 0.19367 0.54376 0.5365 0.0
C1593 C 0.19318 0.54685 0.56266 0.0
C1594 C 0.18908 0.55708 0.57619 0.0
C1595 C 0.1738 0.5409 0.58712 0.0
C1596 C 0.16984 0.55054 0.59986 0.0
C1597 C 0.1812 0.57633 0.60183 0.0
C1598 C 0.19667 0.59256 0.59109 0.0
C1599 C 0.20074 0.58302 0.57834 0.0
H1600 H 0.17808 0.58375 0.61169 0.0
H1601 H 0.24104 0.51284 0.48825 0.0
H1602 H 0.16735 0.14525 0.05525 0.0
H1603 H 0.18014 0.1561 0.03027 0.0
H1604 H 0.22625 0.23342 0.04219 0.0
H1605 H 0.21351 0.22255 0.0676 0.0
H1606 H 0.19432 0.22481 0.01771 0.0
H1607 H 0.2563 0.20604 0.03213 0.0
H1608 H 0.2738 0.18294 0.04449 0.0
H1609 H 0.22802 0.11825 0.01865 0.0
H1610 H 0.20993 0.14081 0.00628 0.0
H1611 H 0.21166 0.22165 0.93978 0.0
H1612 H 0.22455 0.23257 0.96517 0.0
H1613 H 0.17833 0.15531 0.97718 0.0
H1614 H 0.16529 0.14444 0.95221 0.0
H1615 H 0.22615 0.17817 0.9897 0.0
H1616 H 0.15672 0.19394 0.9814 0.0
H1617 H 0.13745 0.21586 0.96954 0.0
H1618 H 0.19769 0.28623 0.98412 0.0
H1619 H 0.21745 0.26468 0.99593 0.0
C1620 C 0.18033 0.16458 0.05264 0.0
C1621 C 0.18941 0.18306 0.0634 0.0
C1622 C 0.18774 0.17073 0.03834 0.0
C1623 C 0.20435 0.19551 0.0344 0.0
C1624 C 0.21353 0.21416 0.04506 0.0
C1625 C 0.2063 0.20792 0.05953 0.0
C1626 C 0.21077 0.20132 0.01893 0.0
C1627 C 0.20208 0.21534 0.01159 0.0
C1628 C 0.2208 0.18887 0.01096 0.0
C1629 C 0.23173 0.17516 0.01827 0.0
C1630 C 0.24985 0.18685 0.02913 0.0
C1631 C 0.25989 0.17384 0.03613 0.0
C1632 C 0.25203 0.14914 0.03236 0.0
C1633 C 0.23413 0.1374 0.02155 0.0
C1634 C 0.22401 0.15031 0.01451 0.0
C1635 C 0.20444 0.20706 0.94787 0.0
C1636 C 0.18737 0.18222 0.94404 0.0
C1637 C 0.21179 0.21331 0.96232 0.0
C1638 C 0.20241 0.19471 0.97302 0.0
C1639 C 0.1859 0.16991 0.96909 0.0
C1640 C 0.17833 0.16376 0.9548 0.0
C1641 C 0.20851 0.20054 0.98852 0.0
C1642 C 0.21948 0.1886 0.99584 0.0
C1643 C 0.2006 0.21489 0.99644 0.0
C1644 C 0.18872 0.22776 0.98935 0.0
C1645 C 0.16596 0.2141 0.98196 0.0
C1646 C 0.15493 0.22645 0.97527 0.0
C1647 C 0.16639 0.25243 0.97603 0.0
C1648 C 0.18887 0.26611 0.98351 0.0
C1649 C 0.19999 0.25385 0.9902 0.0
H1650 H 0.15782 0.26196 0.97085 0.0
H1651 H 0.25982 0.13911 0.0378 0.0
H1652 H 0.84151 0.01061 0.94717 0.0
H1653 H 0.82991 0.00686 0.97245 0.0
H1654 H 0.75482 0.98711 0.96063 0.0
H1655 H 0.76641 0.99092 0.93488 0.0
H1656 H 0.7777 0.02263 0.98547 0.0
H1657 H 0.75887 0.94137 0.97061 0.0
H1658 H 0.76616 0.91073 0.95772 0.0
H1659 H 0.83249 0.93298 0.98269 0.0
H1660 H 0.82583 0.96403 0.99558 0.0
H1661 H 0.76893 0.99294 0.06342 0.0
H1662 H 0.75717 0.98962 0.03774 0.0
H1663 H 0.83064 0.00436 0.02562 0.0
H1664 H 0.84243 0.00773 0.05084 0.0
H1665 H 0.79216 0.96188 0.01263 0.0
H1666 H 0.81567 0.04884 0.02278 0.0
H1667 H 0.8102 0.08107 0.03518 0.0
H1668 H 0.73518 0.04793 0.01912 0.0
H1669 H 0.74014 0.01531 0.00676 0.0
C1670 C 0.82252 0.0056 0.94984 0.0
C1671 C 0.80479 0.00078 0.93899 0.0
C1672 C 0.81594 0.00349 0.96433 0.0
C1673 C 0.79145 0.99639 0.96838 0.0
C1674 C 0.77381 0.99254 0.95767 0.0
C1675 C 0.78043 0.99466 0.94301 0.0
C1676 C 0.7848 0.992 0.98387 0.0
C1677 C 0.78007 0.00886 0.99143 0.0
C1678 C 0.78794 0.97405 0.9916 0.0
C1679 C 0.79184 0.95507 0.98406 0.0
C1680 C 0.77507 0.93981 0.97331 0.0
C1681 C 0.77909 0.92236 0.966 0.0
C1682 C 0.79977 0.91991 0.96938 0.0
C1683 C 0.81646 0.93487 0.9801 0.0
C1684 C 0.81254 0.95237 0.98743 0.0
C1685 C 0.78257 0.99565 0.05524 0.0
C1686 C 0.80656 0.00043 0.05917 0.0
C1687 C 0.77583 0.99375 0.04061 0.0
C1688 C 0.793 0.99655 0.02981 0.0
C1689 C 0.81703 0.0019 0.03378 0.0
C1690 C 0.82376 0.00388 0.04825 0.0
C1691 C 0.78645 0.99336 0.01428 0.0
C1692 C 0.78872 0.97498 0.0067 0.0
C1693 C 0.78104 0.00987 0.00661 0.0
C1694 C 0.77815 0.02947 0.01403 0.0
C1695 C 0.79794 0.0483 0.02201 0.0
C1696 C 0.79495 0.06666 0.02901 0.0
C1697 C 0.77232 0.06649 0.02799 0.0
C1698 C 0.75267 0.048 0.01993 0.0
C1699 C 0.75556 0.02958 0.01293 0.0
H1700 H 0.77005 0.08072 0.03341 0.0
H1701 H 0.80287 0.90641 0.9637 0.0
H1702 H 0.01492 0.84179 0.94848 0.0
H1703 H 0.01859 0.83165 0.97337 0.0
H1704 H 0.99059 0.75476 0.96156 0.0
H1705 H 0.98707 0.76492 0.93622 0.0
H1706 H 0.96725 0.76335 0.98688 0.0
H1707 H 0.04747 0.78312 0.97036 0.0
H1708 H 0.08695 0.80666 0.95694 0.0
H1709 H 0.10619 0.87181 0.98239 0.0
H1710 H 0.06666 0.84881 0.99583 0.0
H1711 H 0.99115 0.76934 0.06406 0.0
H1712 H 0.99214 0.75762 0.03875 0.0
H1713 H 0.02509 0.83487 0.0262 0.0
H1714 H 0.02415 0.84656 0.05113 0.0
H1715 H 0.04768 0.81178 0.01287 0.0
H1716 H 0.96289 0.79544 0.02325 0.0
H1717 H 0.9226 0.77371 0.03611 0.0
H1718 H 0.91206 0.70301 0.0219 0.0
H1719 H 0.95247 0.72437 0.00909 0.0
C1720 C 0.00959 0.82269 0.95109 0.0
C1721 C 0.00067 0.80413 0.94038 0.0
C1722 C 0.01183 0.81697 0.96533 0.0
C1723 C 0.00509 0.79253 0.96927 0.0
C1724 C 0.99601 0.77377 0.95868 0.0
C1725 C 0.99407 0.7796 0.94426 0.0
C1726 C 0.007 0.7872 0.98467 0.0
C1727 C 0.98492 0.77321 0.99257 0.0
C1728 C 0.03004 0.80023 0.99205 0.0
C1729 C 0.05403 0.81419 0.9841 0.0
C1730 C 0.06005 0.8025 0.97305 0.0
C1731 C 0.08245 0.81575 0.96544 0.0
C1732 C 0.09907 0.84071 0.96881 0.0
C1733 C 0.09332 0.85246 0.97981 0.0
C1734 C 0.07093 0.8393 0.98745 0.0
C1735 C 0.99881 0.78378 0.05589 0.0
C1736 C 0.00742 0.80885 0.05956 0.0
C1737 C 0.99933 0.77706 0.04146 0.0
C1738 C 0.00866 0.79539 0.0306 0.0
C1739 C 0.01793 0.82043 0.0344 0.0
C1740 C 0.01722 0.82707 0.04867 0.0
C1741 C 0.00783 0.78904 0.01509 0.0
C1742 C 0.03014 0.80095 0.00718 0.0
C1743 C 0.98502 0.7742 0.00772 0.0
C1744 C 0.9608 0.76144 0.0154 0.0
C1745 C 0.95207 0.77525 0.02298 0.0
C1746 C 0.9292 0.76301 0.03023 0.0
C1747 C 0.91483 0.73699 0.02987 0.0
C1748 C 0.92325 0.72316 0.02221 0.0
C1749 C 0.94612 0.73532 0.01495 0.0
H1750 H 0.89713 0.72755 0.03548 0.0
H1751 H 0.1164 0.85094 0.9629 0.0
H1752 H 0.88884 0.5457 0.26737 0.0
H1753 H 0.90019 0.55825 0.29274 0.0
H1754 H 0.82265 0.51445 0.30484 0.0
H1755 H 0.81132 0.50194 0.27987 0.0
H1756 H 0.84597 0.56053 0.31795 0.0
H1757 H 0.86145 0.49123 0.30831 0.0
H1758 H 0.88321 0.47228 0.2959 0.0
H1759 H 0.95379 0.53196 0.31066 0.0
H1760 H 0.9324 0.5514 0.32302 0.0
H1761 H 0.8126 0.49711 0.38205 0.0
H1762 H 0.82394 0.51123 0.35729 0.0
H1763 H 0.90047 0.5592 0.37019 0.0
H1764 H 0.88907 0.5452 0.39539 0.0
H1765 H 0.89253 0.52739 0.34486 0.0
H1766 H 0.87339 0.58856 0.36074 0.0
H1767 H 0.84986 0.60499 0.37372 0.0
H1768 H 0.78541 0.56002 0.34753 0.0
H1769 H 0.8084 0.54301 0.33453 0.0
C1770 C 0.87427 0.53897 0.27546 0.0
C1771 C 0.84921 0.52272 0.27164 0.0
C1772 C 0.88077 0.54612 0.28992 0.0
C1773 C 0.86224 0.53727 0.30066 0.0
C1774 C 0.83723 0.52162 0.29673 0.0
C1775 C 0.83081 0.51435 0.28243 0.0
C1776 C 0.86827 0.54287 0.31619 0.0
C1777 C 0.8564 0.55359 0.32385 0.0
C1778 C 0.88262 0.53461 0.32382 0.0
C1779 C 0.89539 0.52292 0.3164 0.0
C1780 C 0.88162 0.5004 0.3088 0.0
C1781 C 0.89388 0.48955 0.3018 0.0
C1782 C 0.91987 0.50096 0.30244 0.0
C1783 C 0.93366 0.52319 0.31013 0.0
C1784 C 0.92149 0.53412 0.31713 0.0
C1785 C 0.83186 0.51075 0.37971 0.0
C1786 C 0.84995 0.52003 0.39068 0.0
C1787 C 0.83828 0.51889 0.36554 0.0
C1788 C 0.86298 0.53641 0.36194 0.0
C1789 C 0.88127 0.54576 0.3728 0.0
C1790 C 0.87474 0.53781 0.38715 0.0
C1791 C 0.86906 0.54379 0.34662 0.0
C1792 C 0.88309 0.53545 0.33898 0.0
C1793 C 0.85661 0.55416 0.33898 0.0
C1794 C 0.84266 0.56449 0.34666 0.0
C1795 C 0.85416 0.58207 0.35779 0.0
C1796 C 0.84092 0.59149 0.36515 0.0
C1797 C 0.81616 0.58355 0.36145 0.0
C1798 C 0.8046 0.56619 0.35036 0.0
C1799 C 0.81776 0.55668 0.34297 0.0
H1800 H 0.80593 0.59086 0.36717 0.0
H1801 H 0.92933 0.49253 0.29702 0.0
H1802 H 0.49882 0.31388 0.28268 0.0
H1803 H 0.48667 0.30987 0.30788 0.0
H1804 H 0.42883 0.32672 0.2972 0.0
H1805 H 0.44101 0.33083 0.27157 0.0
H1806 H 0.45848 0.35304 0.32191 0.0
H1807 H 0.40975 0.26937 0.30584 0.0
H1808 H 0.40116 0.23134 0.29258 0.0
H1809 H 0.45591 0.22536 0.31806 0.0
H1810 H 0.46511 0.26355 0.33134 0.0
H1811 H 0.44042 0.32741 0.39904 0.0
H1812 H 0.42911 0.32525 0.37338 0.0
H1813 H 0.48438 0.30491 0.3624 0.0
H1814 H 0.49559 0.30692 0.38769 0.0
H1815 H 0.44066 0.27606 0.34828 0.0
H1816 H 0.49629 0.36472 0.35904 0.0
H1817 H 0.50737 0.40398 0.37172 0.0
H1818 H 0.44048 0.40068 0.35598 0.0
H1819 H 0.42888 0.36121 0.34334 0.0
C1820 C 0.48348 0.31674 0.28559 0.0
C1821 C 0.47084 0.32262 0.27509 0.0
C1822 C 0.47648 0.31432 0.30003 0.0
C1823 C 0.45663 0.31765 0.30438 0.0
C1824 C 0.4441 0.32392 0.29402 0.0
C1825 C 0.45104 0.32621 0.27942 0.0
C1826 C 0.4498 0.31485 0.31988 0.0
C1827 C 0.45381 0.33599 0.32767 0.0
C1828 C 0.44385 0.29264 0.32738 0.0
C1829 C 0.43813 0.26938 0.31959 0.0
C1830 C 0.42004 0.26001 0.30858 0.0
C1831 C 0.41506 0.23841 0.30106 0.0
C1832 C 0.42798 0.22594 0.30447 0.0
C1833 C 0.44588 0.23502 0.31544 0.0
C1834 C 0.45095 0.25661 0.32299 0.0
C1835 C 0.45 0.32234 0.39113 0.0
C1836 C 0.46897 0.31743 0.39539 0.0
C1837 C 0.44356 0.32116 0.37649 0.0
C1838 C 0.45593 0.31493 0.36598 0.0
C1839 C 0.47448 0.30961 0.37032 0.0
C1840 C 0.48097 0.31091 0.38481 0.0
C1841 C 0.45063 0.31461 0.35034 0.0
C1842 C 0.44434 0.29282 0.34251 0.0
C1843 C 0.45456 0.33622 0.34284 0.0
C1844 C 0.46156 0.35989 0.35043 0.0
C1845 C 0.48385 0.37227 0.35839 0.0
C1846 C 0.49025 0.39457 0.36555 0.0
C1847 C 0.47459 0.40477 0.36471 0.0
C1848 C 0.45255 0.39272 0.35666 0.0
C1849 C 0.44606 0.3704 0.3495 0.0
H1850 H 0.47958 0.42204 0.37025 0.0
H1851 H 0.42412 0.20924 0.29862 0.0
H1852 H 0.62111 0.14507 0.38503 0.0
H1853 H 0.62314 0.13733 0.35942 0.0
H1854 H 0.6751 0.11176 0.36861 0.0
H1855 H 0.67209 0.11844 0.3945 0.0
H1856 H 0.66113 0.16159 0.34382 0.0
H1857 H 0.67664 0.07666 0.34003 0.0
H1858 H 0.66332 0.03673 0.35252 0.0
H1859 H 0.59662 0.03516 0.367 0.0
H1860 H 0.60936 0.07489 0.35445 0.0
H1861 H 0.70951 0.1699 0.27641 0.0
H1862 H 0.70549 0.16074 0.30224 0.0
H1863 H 0.63375 0.09515 0.29487 0.0
H1864 H 0.63845 0.10361 0.2688 0.0
H1865 H 0.65612 0.08863 0.3184 0.0
H1866 H 0.6372 0.1506 0.30129 0.0
H1867 H 0.64562 0.18865 0.28809 0.0
H1868 H 0.70923 0.23259 0.31511 0.0
H1869 H 0.70138 0.19472 0.32834 0.0
C1870 C 0.63254 0.13728 0.38162 0.0
C1871 C 0.64657 0.1325 0.39169 0.0
C1872 C 0.63375 0.13291 0.36697 0.0
C1873 C 0.64941 0.12412 0.362 0.0
C1874 C 0.66263 0.11824 0.37214 0.0
C1875 C 0.66098 0.12213 0.38692 0.0
C1876 C 0.65372 0.12381 0.34621 0.0
C1877 C 0.65994 0.14553 0.33833 0.0
C1878 C 0.65205 0.10289 0.33892 0.0
C1879 C 0.64412 0.0789 0.34642 0.0
C1880 C 0.6591 0.06776 0.34584 0.0
C1881 C 0.65165 0.04516 0.35294 0.0
C1882 C 0.62918 0.03346 0.36059 0.0
C1883 C 0.61407 0.04429 0.36112 0.0
C1884 C 0.62142 0.06687 0.35404 0.0
C1885 C 0.69329 0.15307 0.28026 0.0
C1886 C 0.67416 0.13758 0.27072 0.0
C1887 C 0.69096 0.14788 0.29501 0.0
C1888 C 0.66899 0.12767 0.30053 0.0
C1889 C 0.65081 0.11091 0.29086 0.0
C1890 C 0.65347 0.11576 0.27599 0.0
C1891 C 0.66355 0.12639 0.31623 0.0
C1892 C 0.65725 0.10455 0.32402 0.0
C1893 C 0.66433 0.14692 0.32347 0.0
C1894 C 0.66883 0.16981 0.31572 0.0
C1895 C 0.65305 0.16836 0.30437 0.0
C1896 C 0.65772 0.18989 0.29688 0.0
C1897 C 0.67798 0.21302 0.30074 0.0
C1898 C 0.69356 0.21467 0.31213 0.0
C1899 C 0.689 0.19318 0.31963 0.0
H1900 H 0.68158 0.22966 0.29492 0.0
H1901 H 0.62346 0.01598 0.36608 0.0
H1902 H 0.48011 0.82637 0.61702 0.0
H1903 H 0.49106 0.84011 0.64186 0.0
H1904 H 0.56629 0.89298 0.62884 0.0
H1905 H 0.55527 0.87939 0.60354 0.0
H1906 H 0.56083 0.86119 0.6541 0.0
H1907 H 0.53649 0.9187 0.63874 0.0
H1908 H 0.51113 0.93318 0.62595 0.0
H1909 H 0.44748 0.88468 0.65181 0.0
H1910 H 0.47232 0.86959 0.66462 0.0
H1911 H 0.55407 0.87877 0.73197 0.0
H1912 H 0.56525 0.89202 0.70664 0.0
H1913 H 0.48961 0.84026 0.6937 0.0
H1914 H 0.47855 0.82681 0.7186 0.0
H1915 H 0.50965 0.8886 0.68132 0.0
H1916 H 0.53148 0.82336 0.69035 0.0
H1917 H 0.55566 0.80698 0.70268 0.0
H1918 H 0.62406 0.87048 0.68851 0.0
H1919 H 0.60022 0.88738 0.67623 0.0
C1920 C 0.49901 0.84096 0.61935 0.0
C1921 C 0.51684 0.85179 0.6083 0.0
C1922 C 0.5052 0.84888 0.63357 0.0
C1923 C 0.5294 0.8677 0.63715 0.0
C1924 C 0.54747 0.8785 0.62624 0.0
C1925 C 0.54114 0.87078 0.61184 0.0
C1926 C 0.53518 0.87507 0.6525 0.0
C1927 C 0.55037 0.86805 0.66005 0.0
C1928 C 0.52143 0.88391 0.66023 0.0
C1929 C 0.50632 0.89299 0.65264 0.0
C1930 C 0.51705 0.911 0.64165 0.0
C1931 C 0.50276 0.91934 0.6344 0.0
C1932 C 0.47771 0.90986 0.63806 0.0
C1933 C 0.4669 0.89204 0.649 0.0
C1934 C 0.4811 0.88362 0.65628 0.0
C1935 C 0.53988 0.8704 0.72369 0.0
C1936 C 0.51548 0.85167 0.72723 0.0
C1937 C 0.54628 0.87796 0.70927 0.0
C1938 C 0.5282 0.86715 0.69834 0.0
C1939 C 0.50379 0.84894 0.70198 0.0
C1940 C 0.49754 0.84116 0.71622 0.0
C1941 C 0.53425 0.87351 0.6829 0.0
C1942 C 0.52111 0.88297 0.67535 0.0
C1943 C 0.54989 0.86695 0.67521 0.0
C1944 C 0.56412 0.85679 0.68257 0.0
C1945 C 0.55168 0.83393 0.68999 0.0
C1946 C 0.56531 0.82453 0.69694 0.0
C1947 C 0.59138 0.83773 0.69643 0.0
C1948 C 0.60387 0.86032 0.68893 0.0
C1949 C 0.59031 0.86981 0.68198 0.0
H1950 H 0.60191 0.83042 0.70181 0.0
H1951 H 0.46668 0.91633 0.63243 0.0
H1952 H 0.10574 0.66532 0.60484 0.0
H1953 H 0.09552 0.66348 0.63067 0.0
H1954 H 0.16245 0.66162 0.64141 0.0
H1955 H 0.17248 0.66311 0.616 0.0
H1956 H 0.12359 0.62715 0.65625 0.0
H1957 H 0.15856 0.71528 0.64402 0.0
H1958 H 0.15909 0.75022 0.63089 0.0
H1959 H 0.08622 0.72897 0.64733 0.0
H1960 H 0.08518 0.69371 0.66043 0.0
H1961 H 0.17812 0.67936 0.72104 0.0
H1962 H 0.16686 0.67595 0.69567 0.0
H1963 H 0.09242 0.65878 0.70716 0.0
H1964 H 0.10351 0.66193 0.73294 0.0
H1965 H 0.12041 0.6961 0.68167 0.0
H1966 H 0.09109 0.6124 0.69812 0.0
H1967 H 0.09426 0.57997 0.71187 0.0
H1968 H 0.15923 0.59449 0.68751 0.0
H1969 H 0.15669 0.6273 0.67378 0.0
C1970 C 0.1182 0.66449 0.61275 0.0
C1971 C 0.1399 0.66432 0.60836 0.0
C1972 C 0.11237 0.66349 0.62748 0.0
C1973 C 0.12822 0.66238 0.63797 0.0
C1974 C 0.14982 0.66226 0.63353 0.0
C1975 C 0.15559 0.66322 0.61895 0.0
C1976 C 0.12296 0.66144 0.65367 0.0
C1977 C 0.12265 0.64212 0.66178 0.0
C1978 C 0.12098 0.68055 0.6609 0.0
C1979 C 0.12164 0.7017 0.65303 0.0
C1980 C 0.14257 0.71795 0.64473 0.0
C1981 C 0.14298 0.73783 0.63731 0.0
C1982 C 0.12266 0.74176 0.63823 0.0
C1983 C 0.10192 0.72586 0.6466 0.0
C1984 C 0.10141 0.70594 0.65402 0.0
C1985 C 0.15938 0.67509 0.71827 0.0
C1986 C 0.14163 0.67069 0.72904 0.0
C1987 C 0.15301 0.67319 0.70373 0.0
C1988 C 0.1288 0.66695 0.69959 0.0
C1989 C 0.11121 0.66363 0.71021 0.0
C1990 C 0.11756 0.66538 0.72489 0.0
C1991 C 0.12213 0.6624 0.68411 0.0
C1992 C 0.12031 0.68064 0.67608 0.0
C1993 C 0.12236 0.6424 0.67689 0.0
C1994 C 0.12373 0.62238 0.68496 0.0
C1995 C 0.10614 0.60878 0.69576 0.0
C1996 C 0.10782 0.59032 0.70354 0.0
C1997 C 0.12695 0.58519 0.70057 0.0
C1998 C 0.14441 0.59847 0.68979 0.0
C1999 C 0.14283 0.61698 0.68199 0.0
H2000 H 0.12822 0.5709 0.70662 0.0
H2001 H 0.12301 0.75716 0.63249 0.0
H2002 H 0.35429 0.51759 0.61412 0.0
H2003 H 0.35801 0.50768 0.63901 0.0
H2004 H 0.33268 0.43128 0.62714 0.0
H2005 H 0.32869 0.44113 0.60185 0.0
H2006 H 0.30897 0.43548 0.65167 0.0
H2007 H 0.3923 0.46648 0.63642 0.0
H2008 H 0.43174 0.49472 0.62394 0.0
H2009 H 0.44164 0.55547 0.65089 0.0
H2010 H 0.40209 0.52772 0.66339 0.0
H2011 H 0.33052 0.43818 0.72916 0.0
H2012 H 0.33361 0.42952 0.70351 0.0
H2013 H 0.35821 0.50637 0.69316 0.0
H2014 H 0.35526 0.51506 0.7184 0.0
H2015 H 0.38612 0.4896 0.67942 0.0
H2016 H 0.2975 0.46077 0.68894 0.0
H2017 H 0.25728 0.43342 0.70098 0.0
H2018 H 0.25781 0.36874 0.68463 0.0
H2019 H 0.2982 0.39576 0.67262 0.0
C2020 C 0.34961 0.49867 0.6167 0.0
C2021 C 0.34122 0.48015 0.60597 0.0
C2022 C 0.35191 0.49306 0.63096 0.0
C2023 C 0.34602 0.46884 0.6349 0.0
C2024 C 0.33751 0.45015 0.62428 0.0
C2025 C 0.33529 0.4558 0.60987 0.0
C2026 C 0.34789 0.46347 0.65032 0.0
C2027 C 0.32603 0.44674 0.65772 0.0
C2028 C 0.37014 0.47817 0.65821 0.0
C2029 C 0.39417 0.49496 0.65085 0.0
C2030 C 0.40282 0.48589 0.63965 0.0
C2031 C 0.42521 0.50182 0.63257 0.0
C2032 C 0.43918 0.52687 0.63662 0.0
C2033 C 0.43082 0.53604 0.64778 0.0
C2034 C 0.40843 0.5202 0.65489 0.0
C2035 C 0.33674 0.45319 0.72139 0.0
C2036 C 0.34253 0.47727 0.72579 0.0
C2037 C 0.33846 0.44823 0.70677 0.0
C2038 C 0.34614 0.46732 0.69643 0.0
C2039 C 0.3524 0.49138 0.70093 0.0
C2040 C 0.35054 0.49629 0.7154 0.0
C2041 C 0.34691 0.46274 0.68077 0.0
C2042 C 0.36932 0.47761 0.67334 0.0
C2043 C 0.32521 0.44637 0.67288 0.0
C2044 C 0.30097 0.43023 0.68006 0.0
C2045 C 0.28911 0.44071 0.68802 0.0
C2046 C 0.26628 0.42528 0.69481 0.0
C2047 C 0.25504 0.39935 0.69362 0.0
C2048 C 0.26657 0.38882 0.68558 0.0
C2049 C 0.28942 0.40417 0.67878 0.0
H2050 H 0.23737 0.38744 0.69888 0.0
H2051 H 0.4565 0.53918 0.63112 0.0
loop_
_geom_bond_atom_site_label_1
_geom_bond_atom_site_label_2
_geom_bond_distance
_geom_bond_site_symmetry_2
_ccdc_geom_bond_type
O0 Cd1 2.223 . S
O0 C8 1.315 . S
Cd1 O0 2.223 . S
Cd1 O4 2.297 . S
Cd1 O5 2.439 . S
Cd1 O11 2.240 . S
Cd2 O3 2.240 . S
Cd2 O10 2.223 . S
Cd2 O12 2.297 . S
Cd2 O13 2.439 . S
O3 Cd2 2.240 . S
O3 C8 1.279 . S
O4 Cd1 2.297 . S
O4 C6 1.247 . S
O5 Cd1 2.439 . S
O5 C6 1.208 . S
C6 O4 1.247 . S
C6 O5 1.208 . S
C7 O12 1.247 . S
C7 O13 1.208 . S
C8 O0 1.315 . S
C8 O3 1.279 . S
C9 O10 1.315 . S
C9 O11 1.279 . S
O10 Cd2 2.223 . S
O10 C9 1.315 . S
O11 Cd1 2.240 . S
O11 C9 1.279 . S
O12 Cd2 2.297 . S
O12 C7 1.247 . S
O13 Cd2 2.439 . S
O13 C7 1.208 . S
O14 Cd15 2.223 1_545 S
O14 C22 1.315 . S
Cd15 O14 2.223 1_565 S
Cd15 O18 2.297 1_565 S
Cd15 O19 2.439 1_565 S
Cd15 O25 2.240 . S
Cd16 O17 2.240 . S
Cd16 O24 2.223 1_545 S
Cd16 O26 2.297 1_545 S
Cd16 O27 2.439 1_545 S
O17 Cd16 2.240 . S
O17 C22 1.279 . S
O18 Cd15 2.297 1_545 S
O18 C20 1.247 . S
O19 Cd15 2.439 1_545 S
O19 C20 1.208 . S
C20 O18 1.247 . S
C20 O19 1.208 . S
C21 O26 1.247 . S
C21 O27 1.208 . S
C22 O14 1.315 . S
C22 O17 1.279 . S
C23 O24 1.315 . S
C23 O25 1.279 . S
O24 Cd16 2.223 1_565 S
O24 C23 1.315 . S
O25 Cd15 2.240 . S
O25 C23 1.279 . S
O26 Cd16 2.297 1_565 S
O26 C21 1.247 . S
O27 Cd16 2.439 1_565 S
O27 C21 1.208 . S
O28 Cd29 2.196 1_655 S
O28 C36 1.315 . S
Cd29 O28 2.196 1_455 S
Cd29 O32 2.289 1_455 S
Cd29 O33 2.436 1_455 S
Cd29 O39 2.248 . S
Cd30 O31 2.240 . S
Cd30 O38 2.223 1_655 S
Cd30 O40 2.297 1_655 S
Cd30 O41 2.439 . S
O31 Cd30 2.240 . S
O31 C36 1.279 . S
O32 Cd29 2.289 1_655 S
O32 C34 1.247 . S
O33 Cd29 2.436 1_655 S
O33 C34 1.208 . S
C34 O32 1.247 . S
C34 O33 1.208 . S
C35 O40 1.247 . S
C35 O41 1.208 1_455 S
C36 O28 1.315 . S
C36 O31 1.279 . S
C37 O38 1.315 . S
C37 O39 1.279 . S
O38 Cd30 2.223 1_455 S
O38 C37 1.315 . S
O39 Cd29 2.248 . S
O39 C37 1.279 . S
O40 Cd30 2.297 1_455 S
O40 C35 1.247 . S
O41 Cd30 2.439 . S
O41 C35 1.208 1_655 S
O42 Cd43 2.223 . S
O42 C50 1.315 . S
Cd43 O42 2.223 . S
Cd43 O46 2.297 . S
Cd43 O47 2.439 . S
Cd43 O53 2.240 . S
Cd44 O45 2.240 . S
Cd44 O52 2.223 . S
Cd44 O54 2.297 . S
Cd44 O55 2.439 . S
O45 Cd44 2.240 . S
O45 C50 1.279 . S
O46 Cd43 2.297 . S
O46 C48 1.247 . S
O47 Cd43 2.439 . S
O47 C48 1.208 . S
C48 O46 1.247 . S
C48 O47 1.208 . S
C49 O54 1.247 . S
C49 O55 1.208 . S
C50 O42 1.315 . S
C50 O45 1.279 . S
C51 O52 1.315 . S
C51 O53 1.279 . S
O52 Cd44 2.223 . S
O52 C51 1.315 . S
O53 Cd43 2.240 . S
O53 C51 1.279 . S
O54 Cd44 2.297 . S
O54 C49 1.247 . S
O55 Cd44 2.439 . S
O55 C49 1.208 . S
O56 Cd57 2.196 1_565 S
O56 C64 1.315 . S
Cd57 O56 2.196 1_545 S
Cd57 O60 2.289 1_545 S
Cd57 O61 2.436 1_545 S
Cd57 O67 2.248 . S
Cd58 O59 2.240 . S
Cd58 O66 2.223 1_565 S
Cd58 O68 2.297 1_565 S
Cd58 O69 2.439 . S
O59 Cd58 2.240 . S
O59 C64 1.279 . S
O60 Cd57 2.289 1_565 S
O60 C62 1.247 . S
O61 Cd57 2.436 1_565 S
O61 C62 1.208 . S
C62 O60 1.247 . S
C62 O61 1.208 . S
C63 O68 1.247 . S
C63 O69 1.208 1_545 S
C64 O56 1.315 . S
C64 O59 1.279 . S
C65 O66 1.315 . S
C65 O67 1.279 . S
O66 Cd58 2.223 1_545 S
O66 C65 1.315 . S
O67 Cd57 2.248 . S
O67 C65 1.279 . S
O68 Cd58 2.297 1_545 S
O68 C63 1.247 . S
O69 Cd58 2.439 . S
O69 C63 1.208 1_565 S
O70 Cd71 2.223 1_455 S
O70 C78 1.315 . S
Cd71 O70 2.223 1_655 S
Cd71 O74 2.297 1_655 S
Cd71 O75 2.439 1_655 S
Cd71 O81 2.240 . S
Cd72 O73 2.240 . S
Cd72 O80 2.223 1_455 S
Cd72 O82 2.297 1_455 S
Cd72 O83 2.439 1_455 S
O73 Cd72 2.240 . S
O73 C78 1.279 . S
O74 Cd71 2.297 1_455 S
O74 C76 1.247 . S
O75 Cd71 2.439 1_455 S
O75 C76 1.208 . S
C76 O74 1.247 . S
C76 O75 1.208 . S
C77 O82 1.247 . S
C77 O83 1.208 . S
C78 O70 1.315 . S
C78 O73 1.279 . S
C79 O80 1.315 . S
C79 O81 1.279 . S
O80 Cd72 2.223 1_655 S
O80 C79 1.315 . S
O81 Cd71 2.240 . S
O81 C79 1.279 . S
O82 Cd72 2.297 1_655 S
O82 C77 1.247 . S
O83 Cd72 2.439 1_655 S
O83 C77 1.208 . S
O84 Cd85 2.223 . S
O84 C92 1.315 . S
Cd85 O84 2.223 . S
Cd85 O88 2.297 . S
Cd85 O89 2.439 . S
Cd85 O95 2.240 . S
Cd86 O87 2.240 . S
Cd86 O94 2.223 . S
Cd86 O96 2.297 . S
Cd86 O97 2.439 . S
O87 Cd86 2.240 . S
O87 C92 1.279 . S
O88 Cd85 2.297 . S
O88 C90 1.247 . S
O89 Cd85 2.439 . S
O89 C90 1.208 . S
C90 O88 1.247 . S
C90 O89 1.208 . S
C91 O96 1.247 . S
C91 O97 1.208 . S
C92 O84 1.315 . S
C92 O87 1.279 . S
C93 O94 1.315 . S
C93 O95 1.279 . S
O94 Cd86 2.223 . S
O94 C93 1.315 . S
O95 Cd85 2.240 . S
O95 C93 1.279 . S
O96 Cd86 2.297 . S
O96 C91 1.247 . S
O97 Cd86 2.439 . S
O97 C91 1.208 . S
O98 Cd99 2.223 . S
O98 C106 1.315 . S
Cd99 O98 2.223 . S
Cd99 O102 2.297 . S
Cd99 O103 2.439 . S
Cd99 O109 2.240 . S
Cd100 O101 2.240 . S
Cd100 O108 2.223 . S
Cd100 O110 2.297 . S
Cd100 O111 2.439 . S
O101 Cd100 2.240 . S
O101 C106 1.279 . S
O102 Cd99 2.297 . S
O102 C104 1.247 . S
O103 Cd99 2.439 . S
O103 C104 1.208 . S
C104 O102 1.247 . S
C104 O103 1.208 . S
C105 O110 1.247 . S
C105 O111 1.208 . S
C106 O98 1.315 . S
C106 O101 1.279 . S
C107 O108 1.315 . S
C107 O109 1.279 . S
O108 Cd100 2.223 . S
O108 C107 1.315 . S
O109 Cd99 2.240 . S
O109 C107 1.279 . S
O110 Cd100 2.297 . S
O110 C105 1.247 . S
O111 Cd100 2.439 . S
O111 C105 1.208 . S
O112 Cd113 2.223 . S
O112 C120 1.315 . S
Cd113 O112 2.223 . S
Cd113 O116 2.297 . S
Cd113 O117 2.439 . S
Cd113 O123 2.240 . S
Cd114 O115 2.240 . S
Cd114 O122 2.223 . S
Cd114 O124 2.297 . S
Cd114 O125 2.439 . S
O115 Cd114 2.240 . S
O115 C120 1.279 . S
O116 Cd113 2.297 . S
O116 C118 1.247 . S
O117 Cd113 2.439 . S
O117 C118 1.208 . S
C118 O116 1.247 . S
C118 O117 1.208 . S
C119 O124 1.247 . S
C119 O125 1.208 . S
C120 O112 1.315 . S
C120 O115 1.279 . S
C121 O122 1.315 . S
C121 O123 1.279 . S
O122 Cd114 2.223 . S
O122 C121 1.315 . S
O123 Cd113 2.240 . S
O123 C121 1.279 . S
O124 Cd114 2.297 . S
O124 C119 1.247 . S
O125 Cd114 2.439 . S
O125 C119 1.208 . S
O126 Cd127 2.223 . S
O126 C134 1.315 . S
Cd127 O126 2.223 . S
Cd127 O130 2.297 . S
Cd127 O131 2.439 . S
Cd127 O137 2.240 . S
Cd128 O129 2.240 . S
Cd128 O136 2.223 . S
Cd128 O138 2.297 . S
Cd128 O139 2.439 . S
O129 Cd128 2.240 . S
O129 C134 1.279 . S
O130 Cd127 2.297 . S
O130 C132 1.247 . S
O131 Cd127 2.439 . S
O131 C132 1.208 . S
C132 O130 1.247 . S
C132 O131 1.208 . S
C133 O138 1.247 . S
C133 O139 1.208 . S
C134 O126 1.315 . S
C134 O129 1.279 . S
C135 O136 1.315 . S
C135 O137 1.279 . S
O136 Cd128 2.223 . S
O136 C135 1.315 . S
O137 Cd127 2.240 . S
O137 C135 1.279 . S
O138 Cd128 2.297 . S
O138 C133 1.247 . S
O139 Cd128 2.439 . S
O139 C133 1.208 . S
O140 Cd141 2.223 . S
O140 C148 1.315 . S
Cd141 O140 2.223 . S
Cd141 O144 2.297 . S
Cd141 O145 2.439 . S
Cd141 O151 2.240 . S
Cd142 O143 2.240 . S
Cd142 O150 2.223 . S
Cd142 O152 2.297 . S
Cd142 O153 2.439 . S
O143 Cd142 2.240 . S
O143 C148 1.279 . S
O144 Cd141 2.297 . S
O144 C146 1.247 . S
O145 Cd141 2.439 . S
O145 C146 1.208 . S
C146 O144 1.247 . S
C146 O145 1.208 . S
C147 O152 1.247 . S
C147 O153 1.208 . S
C148 O140 1.315 . S
C148 O143 1.279 . S
C149 O150 1.315 . S
C149 O151 1.279 . S
O150 Cd142 2.223 . S
O150 C149 1.315 . S
O151 Cd141 2.240 . S
O151 C149 1.279 . S
O152 Cd142 2.297 . S
O152 C147 1.247 . S
O153 Cd142 2.439 . S
O153 C147 1.208 . S
O154 Cd155 2.223 . S
O154 C162 1.315 . S
Cd155 O154 2.223 . S
Cd155 O158 2.297 . S
Cd155 O159 2.439 . S
Cd155 O165 2.240 . S
Cd156 O157 2.240 . S
Cd156 O164 2.223 . S
Cd156 O166 2.297 . S
Cd156 O167 2.439 . S
O157 Cd156 2.240 . S
O157 C162 1.279 . S
O158 Cd155 2.297 . S
O158 C160 1.247 . S
O159 Cd155 2.439 . S
O159 C160 1.208 . S
C160 O158 1.247 . S
C160 O159 1.208 . S
C161 O166 1.247 . S
C161 O167 1.208 . S
C162 O154 1.315 . S
C162 O157 1.279 . S
C163 O164 1.315 . S
C163 O165 1.279 . S
O164 Cd156 2.223 . S
O164 C163 1.315 . S
O165 Cd155 2.240 . S
O165 C163 1.279 . S
O166 Cd156 2.297 . S
O166 C161 1.247 . S
O167 Cd156 2.439 . S
O167 C161 1.208 . S
O168 Cd169 2.223 . S
O168 C176 1.315 . S
Cd169 O168 2.223 . S
Cd169 O172 2.297 . S
Cd169 O173 2.439 . S
Cd169 O179 2.240 . S
Cd170 O171 2.240 . S
Cd170 O178 2.223 . S
Cd170 O180 2.297 . S
Cd170 O181 2.439 . S
O171 Cd170 2.240 . S
O171 C176 1.279 . S
O172 Cd169 2.297 . S
O172 C174 1.247 . S
O173 Cd169 2.439 . S
O173 C174 1.208 . S
C174 O172 1.247 . S
C174 O173 1.208 . S
C175 O180 1.247 . S
C175 O181 1.208 . S
C176 O168 1.315 . S
C176 O171 1.279 . S
C177 O178 1.315 . S
C177 O179 1.279 . S
O178 Cd170 2.223 . S
O178 C177 1.315 . S
O179 Cd169 2.240 . S
O179 C177 1.279 . S
O180 Cd170 2.297 . S
O180 C175 1.247 . S
O181 Cd170 2.439 . S
O181 C175 1.208 . S
O182 Cd183 2.223 . S
O182 C190 1.315 . S
Cd183 O182 2.223 . S
Cd183 O186 2.297 . S
Cd183 O187 2.439 . S
Cd183 O193 2.240 . S
Cd184 O185 2.240 . S
Cd184 O192 2.223 . S
Cd184 O194 2.297 . S
Cd184 O195 2.439 . S
O185 Cd184 2.240 . S
O185 C190 1.279 . S
O186 Cd183 2.297 . S
O186 C188 1.247 . S
O187 Cd183 2.439 . S
O187 C188 1.208 . S
C188 O186 1.247 . S
C188 O187 1.208 . S
C189 O194 1.247 . S
C189 O195 1.208 . S
C190 O182 1.315 . S
C190 O185 1.279 . S
C191 O192 1.315 . S
C191 O193 1.279 . S
O192 Cd184 2.223 . S
O192 C191 1.315 . S
O193 Cd183 2.240 . S
O193 C191 1.279 . S
O194 Cd184 2.297 . S
O194 C189 1.247 . S
O195 Cd184 2.439 . S
O195 C189 1.208 . S
O196 Cd197 2.223 . S
O196 C204 1.315 . S
Cd197 O196 2.223 . S
Cd197 O200 2.297 . S
Cd197 O201 2.439 . S
Cd197 O207 2.240 . S
Cd198 O199 2.240 . S
Cd198 O206 2.223 . S
Cd198 O208 2.297 . S
Cd198 O209 2.439 . S
O199 Cd198 2.240 . S
O199 C204 1.279 . S
O200 Cd197 2.297 . S
O200 C202 1.247 . S
O201 Cd197 2.439 . S
O201 C202 1.208 . S
C202 O200 1.247 . S
C202 O201 1.208 . S
C203 O208 1.247 . S
C203 O209 1.208 . S
C204 O196 1.315 . S
C204 O199 1.279 . S
C205 O206 1.315 . S
C205 O207 1.279 . S
O206 Cd198 2.223 . S
O206 C205 1.315 . S
O207 Cd197 2.240 . S
O207 C205 1.279 . S
O208 Cd198 2.297 . S
O208 C203 1.247 . S
O209 Cd198 2.439 . S
O209 C203 1.208 . S
O210 Cd211 2.223 . S
O210 C218 1.315 . S
Cd211 O210 2.223 . S
Cd211 O214 2.297 . S
Cd211 O215 2.439 . S
Cd211 O221 2.240 . S
Cd212 O213 2.240 . S
Cd212 O220 2.223 . S
Cd212 O222 2.297 . S
Cd212 O223 2.439 . S
O213 Cd212 2.240 . S
O213 C218 1.279 . S
O214 Cd211 2.297 . S
O214 C216 1.247 . S
O215 Cd211 2.439 . S
O215 C216 1.208 . S
C216 O214 1.247 . S
C216 O215 1.208 . S
C217 O222 1.247 . S
C217 O223 1.208 . S
C218 O210 1.315 . S
C218 O213 1.279 . S
C219 O220 1.315 . S
C219 O221 1.279 . S
O220 Cd212 2.223 . S
O220 C219 1.315 . S
O221 Cd211 2.240 . S
O221 C219 1.279 . S
O222 Cd212 2.297 . S
O222 C217 1.247 . S
O223 Cd212 2.439 . S
O223 C217 1.208 . S
O224 Cd225 2.223 . S
O224 C232 1.315 . S
Cd225 O224 2.223 . S
Cd225 O228 2.297 . S
Cd225 O229 2.439 . S
Cd225 O235 2.240 . S
Cd226 O227 2.240 . S
Cd226 O234 2.223 . S
Cd226 O236 2.297 . S
Cd226 O237 2.439 . S
O227 Cd226 2.240 . S
O227 C232 1.279 . S
O228 Cd225 2.297 . S
O228 C230 1.247 . S
O229 Cd225 2.439 . S
O229 C230 1.208 . S
C230 O228 1.247 . S
C230 O229 1.208 . S
C231 O236 1.247 . S
C231 O237 1.208 . S
C232 O224 1.315 . S
C232 O227 1.279 . S
C233 O234 1.315 . S
C233 O235 1.279 . S
O234 Cd226 2.223 . S
O234 C233 1.315 . S
O235 Cd225 2.240 . S
O235 C233 1.279 . S
O236 Cd226 2.297 . S
O236 C231 1.247 . S
O237 Cd226 2.439 . S
O237 C231 1.208 . S
O238 Cd239 2.223 . S
O238 C246 1.315 . S
Cd239 O238 2.223 . S
Cd239 O242 2.297 . S
Cd239 O243 2.439 . S
Cd239 O249 2.240 . S
Cd240 O241 2.240 . S
Cd240 O248 2.223 . S
Cd240 O250 2.297 . S
Cd240 O251 2.439 . S
O241 Cd240 2.240 . S
O241 C246 1.279 . S
O242 Cd239 2.297 . S
O242 C244 1.247 . S
O243 Cd239 2.439 . S
O243 C244 1.208 . S
C244 O242 1.247 . S
C244 O243 1.208 . S
C245 O250 1.247 . S
C245 O251 1.208 . S
C246 O238 1.315 . S
C246 O241 1.279 . S
C247 O248 1.315 . S
C247 O249 1.279 . S
O248 Cd240 2.223 . S
O248 C247 1.315 . S
O249 Cd239 2.240 . S
O249 C247 1.279 . S
O250 Cd240 2.297 . S
O250 C245 1.247 . S
O251 Cd240 2.439 . S
O251 C245 1.208 . S
H252 C270 0.951 . S
H253 C272 0.951 . S
H254 C274 0.950 . S
H255 C275 0.950 . S
H256 C277 0.950 . S
H257 C280 0.950 . S
H258 C281 0.950 . S
H259 C283 0.950 . S
H260 C284 0.950 . S
H261 C285 0.951 . S
H262 C287 0.951 . S
H263 C289 0.950 . S
H264 C290 0.950 . S
H265 C292 0.950 . S
H266 C295 0.950 . S
H267 C296 0.950 . S
H268 C298 0.950 . S
H269 C299 0.950 . S
C270 H252 0.951 . S
C270 C271 1.366 . S
C270 C272 1.388 . S
C271 C270 1.366 . S
C271 C275 1.385 . S
C272 H253 0.951 . S
C272 C270 1.388 . S
C272 C273 1.366 . S
C273 C272 1.366 . S
C273 C274 1.414 . S
C273 C276 1.499 . S
C274 H254 0.950 . S
C274 C273 1.414 . S
C274 C275 1.374 . S
C275 H255 0.950 . S
C275 C271 1.385 . S
C275 C274 1.374 . S
C276 C273 1.499 . S
C276 C277 1.373 . S
C276 C278 1.389 . S
C277 H256 0.950 . S
C277 C276 1.373 . S
C277 C293 1.377 . S
C278 C276 1.389 . S
C278 C279 1.524 . S
C278 C292 1.377 . S
C279 C278 1.524 . S
C279 C280 1.397 . S
C279 C284 1.363 . S
C280 H257 0.950 . S
C280 C279 1.397 . S
C280 C281 1.334 . S
C281 H258 0.950 . S
C281 C280 1.334 . S
C281 C282 1.287 . S
C282 C281 1.287 . S
C282 C283 1.524 . S
C282 H301 0.913 . S
C283 H259 0.950 . S
C283 C282 1.524 . S
C283 C284 1.415 . S
C284 H260 0.950 . S
C284 C279 1.363 . S
C284 C283 1.415 . S
C285 H261 0.951 . S
C285 C286 1.366 . S
C285 C287 1.388 . S
C286 C285 1.366 . S
C286 C290 1.385 . S
C287 H262 0.951 . S
C287 C285 1.388 . S
C287 C288 1.366 . S
C288 C287 1.366 . S
C288 C289 1.414 . S
C288 C291 1.499 . S
C289 H263 0.950 . S
C289 C288 1.414 . S
C289 C290 1.374 . S
C290 H264 0.950 . S
C290 C286 1.385 . S
C290 C289 1.374 . S
C291 C288 1.499 . S
C291 C292 1.373 . S
C291 C293 1.389 . S
C292 H265 0.950 . S
C292 C278 1.377 . S
C292 C291 1.373 . S
C293 C277 1.377 . S
C293 C291 1.389 . S
C293 C294 1.524 . S
C294 C293 1.524 . S
C294 C295 1.397 . S
C294 C299 1.363 . S
C295 H266 0.950 . S
C295 C294 1.397 . S
C295 C296 1.334 . S
C296 H267 0.950 . S
C296 C295 1.334 . S
C296 C297 1.287 . S
C297 C296 1.287 . S
C297 C298 1.524 . S
C297 H300 0.999 . S
C298 H268 0.950 . S
C298 C297 1.524 . S
C298 C299 1.415 . S
C299 H269 0.950 . S
C299 C294 1.363 . S
C299 C298 1.415 . S
H300 C297 0.999 . S
H301 C282 0.913 . S
H302 C320 0.951 . S
H303 C322 0.951 . S
H304 C324 0.950 . S
H305 C325 0.950 . S
H306 C327 0.950 . S
H307 C330 0.950 . S
H308 C331 0.950 . S
H309 C333 0.950 . S
H310 C334 0.950 . S
H311 C335 0.951 . S
H312 C337 0.951 . S
H313 C339 0.950 . S
H314 C340 0.950 . S
H315 C342 0.950 . S
H316 C345 0.950 . S
H317 C346 0.950 . S
H318 C348 0.950 1_565 S
H319 C349 0.950 . S
C320 H302 0.951 . S
C320 C321 1.366 . S
C320 C322 1.388 . S
C321 C320 1.366 . S
C321 C325 1.385 . S
C322 H303 0.951 . S
C322 C320 1.388 . S
C322 C323 1.366 . S
C323 C322 1.366 . S
C323 C324 1.414 . S
C323 C326 1.499 . S
C324 H304 0.950 . S
C324 C323 1.414 . S
C324 C325 1.374 . S
C325 H305 0.950 . S
C325 C321 1.385 . S
C325 C324 1.374 . S
C326 C323 1.499 . S
C326 C327 1.373 . S
C326 C328 1.389 . S
C327 H306 0.950 . S
C327 C326 1.373 . S
C327 C343 1.377 . S
C328 C326 1.389 . S
C328 C329 1.524 . S
C328 C342 1.377 . S
C329 C328 1.524 . S
C329 C330 1.397 . S
C329 C334 1.363 . S
C330 H307 0.950 . S
C330 C329 1.397 . S
C330 C331 1.334 . S
C331 H308 0.950 . S
C331 C330 1.334 . S
C331 C332 1.287 . S
C332 C331 1.287 . S
C332 C333 1.524 . S
C332 H351 0.913 . S
C333 H309 0.950 . S
C333 C332 1.524 . S
C333 C334 1.415 . S
C334 H310 0.950 . S
C334 C329 1.363 . S
C334 C333 1.415 . S
C335 H311 0.951 . S
C335 C336 1.366 . S
C335 C337 1.388 . S
C336 C335 1.366 . S
C336 C340 1.385 . S
C337 H312 0.951 . S
C337 C335 1.388 . S
C337 C338 1.366 . S
C338 C337 1.366 . S
C338 C339 1.414 . S
C338 C341 1.499 . S
C339 H313 0.950 . S
C339 C338 1.414 . S
C339 C340 1.374 . S
C340 H314 0.950 . S
C340 C336 1.385 . S
C340 C339 1.374 . S
C341 C338 1.499 . S
C341 C342 1.373 . S
C341 C343 1.389 . S
C342 H315 0.950 . S
C342 C328 1.377 . S
C342 C341 1.373 . S
C343 C327 1.377 . S
C343 C341 1.389 . S
C343 C344 1.524 . S
C344 C343 1.524 . S
C344 C345 1.397 . S
C344 C349 1.363 . S
C345 H316 0.950 . S
C345 C344 1.397 . S
C345 C346 1.334 . S
C346 H317 0.950 . S
C346 C345 1.334 . S
C346 C347 1.287 . S
C347 C346 1.287 . S
C347 C348 1.524 . S
C347 H350 0.999 . S
C348 H318 0.950 1_545 S
C348 C347 1.524 . S
C348 C349 1.415 . S
C349 H319 0.950 . S
C349 C344 1.363 . S
C349 C348 1.415 . S
H350 C347 0.999 . S
H351 C332 0.913 . S
H352 C370 0.951 . S
H353 C372 0.951 . S
H354 C374 0.950 . S
H355 C375 0.950 . S
H356 C377 0.950 . S
H357 C380 0.950 . S
H358 C381 0.950 . S
H359 C383 0.950 . S
H360 C384 0.950 . S
H361 C385 0.951 . S
H362 C387 0.951 . S
H363 C389 0.950 . S
H364 C390 0.950 . S
H365 C392 0.950 . S
H366 C395 0.950 . S
H367 C396 0.950 . S
H368 C398 0.950 . S
H369 C399 0.950 . S
C370 H352 0.951 . S
C370 C371 1.366 . S
C370 C372 1.388 . S
C371 C370 1.366 . S
C371 C375 1.385 . S
C372 H353 0.951 . S
C372 C370 1.388 . S
C372 C373 1.366 . S
C373 C372 1.366 . S
C373 C374 1.414 . S
C373 C376 1.499 . S
C374 H354 0.950 . S
C374 C373 1.414 . S
C374 C375 1.374 . S
C375 H355 0.950 . S
C375 C371 1.385 . S
C375 C374 1.374 . S
C376 C373 1.499 . S
C376 C377 1.373 . S
C376 C378 1.389 . S
C377 H356 0.950 . S
C377 C376 1.373 . S
C377 C393 1.377 . S
C378 C376 1.389 . S
C378 C379 1.524 . S
C378 C392 1.377 . S
C379 C378 1.524 . S
C379 C380 1.397 . S
C379 C384 1.363 . S
C380 H357 0.950 . S
C380 C379 1.397 . S
C380 C381 1.334 . S
C381 H358 0.950 . S
C381 C380 1.334 . S
C381 C382 1.287 . S
C382 C381 1.287 . S
C382 C383 1.524 . S
C382 H401 0.913 . S
C383 H359 0.950 . S
C383 C382 1.524 . S
C383 C384 1.415 . S
C384 H360 0.950 . S
C384 C379 1.363 . S
C384 C383 1.415 . S
C385 H361 0.951 . S
C385 C386 1.366 . S
C385 C387 1.388 . S
C386 C385 1.366 . S
C386 C390 1.385 . S
C387 H362 0.951 . S
C387 C385 1.388 . S
C387 C388 1.366 . S
C388 C387 1.366 . S
C388 C389 1.414 . S
C388 C391 1.499 . S
C389 H363 0.950 . S
C389 C388 1.414 . S
C389 C390 1.374 . S
C390 H364 0.950 . S
C390 C386 1.385 . S
C390 C389 1.374 . S
C391 C388 1.499 . S
C391 C392 1.373 . S
C391 C393 1.389 . S
C392 H365 0.950 . S
C392 C378 1.377 . S
C392 C391 1.373 . S
C393 C377 1.377 . S
C393 C391 1.389 . S
C393 C394 1.524 . S
C394 C393 1.524 . S
C394 C395 1.397 . S
C394 C399 1.363 . S
C395 H366 0.950 . S
C395 C394 1.397 . S
C395 C396 1.334 . S
C396 H367 0.950 . S
C396 C395 1.334 . S
C396 C397 1.287 . S
C397 C396 1.287 . S
C397 C398 1.524 . S
C397 H400 0.999 . S
C398 H368 0.950 . S
C398 C397 1.524 . S
C398 C399 1.415 . S
C399 H369 0.950 . S
C399 C394 1.363 . S
C399 C398 1.415 . S
H400 C397 0.999 . S
H401 C382 0.913 . S
H402 C420 0.951 . S
H403 C422 0.951 . S
H404 C424 0.950 . S
H405 C425 0.950 . S
H406 C427 0.950 . S
H407 C430 0.950 . S
H408 C431 0.950 . S
H409 C433 0.950 . S
H410 C434 0.950 . S
H411 C435 0.951 . S
H412 C437 0.951 . S
H413 C439 0.950 . S
H414 C440 0.950 . S
H415 C442 0.950 . S
H416 C445 0.950 . S
H417 C446 0.950 . S
H418 C448 0.950 . S
H419 C449 0.950 . S
C420 H402 0.951 . S
C420 C421 1.366 . S
C420 C422 1.388 . S
C421 C420 1.366 . S
C421 C425 1.385 . S
C422 H403 0.951 . S
C422 C420 1.388 . S
C422 C423 1.366 . S
C423 C422 1.366 . S
C423 C424 1.414 . S
C423 C426 1.499 . S
C424 H404 0.950 . S
C424 C423 1.414 . S
C424 C425 1.374 . S
C425 H405 0.950 . S
C425 C421 1.385 . S
C425 C424 1.374 . S
C426 C423 1.499 . S
C426 C427 1.373 . S
C426 C428 1.389 . S
C427 H406 0.950 . S
C427 C426 1.373 . S
C427 C443 1.377 . S
C428 C426 1.389 . S
C428 C429 1.524 . S
C428 C442 1.377 . S
C429 C428 1.524 . S
C429 C430 1.397 . S
C429 C434 1.363 . S
C430 H407 0.950 . S
C430 C429 1.397 . S
C430 C431 1.334 . S
C431 H408 0.950 . S
C431 C430 1.334 . S
C431 C432 1.287 . S
C432 C431 1.287 . S
C432 C433 1.524 . S
C432 H451 0.913 . S
C433 H409 0.950 . S
C433 C432 1.524 . S
C433 C434 1.415 . S
C434 H410 0.950 . S
C434 C429 1.363 . S
C434 C433 1.415 . S
C435 H411 0.951 . S
C435 C436 1.366 . S
C435 C437 1.388 . S
C436 C435 1.366 . S
C436 C440 1.385 . S
C437 H412 0.951 . S
C437 C435 1.388 . S
C437 C438 1.366 . S
C438 C437 1.366 . S
C438 C439 1.414 . S
C438 C441 1.499 . S
C439 H413 0.950 . S
C439 C438 1.414 . S
C439 C440 1.374 . S
C440 H414 0.950 . S
C440 C436 1.385 . S
C440 C439 1.374 . S
C441 C438 1.499 . S
C441 C442 1.373 . S
C441 C443 1.389 . S
C442 H415 0.950 . S
C442 C428 1.377 . S
C442 C441 1.373 . S
C443 C427 1.377 . S
C443 C441 1.389 . S
C443 C444 1.524 . S
C444 C443 1.524 . S
C444 C445 1.397 . S
C444 C449 1.363 . S
C445 H416 0.950 . S
C445 C444 1.397 . S
C445 C446 1.334 . S
C446 H417 0.950 . S
C446 C445 1.334 . S
C446 C447 1.287 . S
C447 C446 1.287 . S
C447 C448 1.524 . S
C447 H450 0.999 . S
C448 H418 0.950 . S
C448 C447 1.524 . S
C448 C449 1.415 . S
C449 H419 0.950 . S
C449 C444 1.363 . S
C449 C448 1.415 . S
H450 C447 0.999 . S
H451 C432 0.913 . S
H452 C470 0.951 . S
H453 C472 0.951 . S
H454 C474 0.950 . S
H455 C475 0.950 . S
H456 C477 0.950 . S
H457 C480 0.950 . S
H458 C481 0.950 . S
H459 C483 0.950 . S
H460 C484 0.950 . S
H461 C485 0.951 . S
H462 C487 0.951 . S
H463 C489 0.950 . S
H464 C490 0.950 . S
H465 C492 0.950 . S
H466 C495 0.950 . S
H467 C496 0.950 . S
H468 C498 0.950 . S
H469 C499 0.950 . S
C470 H452 0.951 . S
C470 C471 1.366 . S
C470 C472 1.388 . S
C471 C470 1.366 . S
C471 C475 1.385 . S
C472 H453 0.951 . S
C472 C470 1.388 . S
C472 C473 1.366 . S
C473 C472 1.366 . S
C473 C474 1.414 . S
C473 C476 1.499 . S
C474 H454 0.950 . S
C474 C473 1.414 . S
C474 C475 1.374 . S
C475 H455 0.950 . S
C475 C471 1.385 . S
C475 C474 1.374 . S
C476 C473 1.499 . S
C476 C477 1.373 . S
C476 C478 1.389 . S
C477 H456 0.950 . S
C477 C476 1.373 . S
C477 C493 1.377 . S
C478 C476 1.389 . S
C478 C479 1.524 . S
C478 C492 1.377 . S
C479 C478 1.524 . S
C479 C480 1.397 . S
C479 C484 1.363 . S
C480 H457 0.950 . S
C480 C479 1.397 . S
C480 C481 1.334 . S
C481 H458 0.950 . S
C481 C480 1.334 . S
C481 C482 1.287 . S
C482 C481 1.287 . S
C482 C483 1.524 . S
C482 H501 0.913 . S
C483 H459 0.950 . S
C483 C482 1.524 . S
C483 C484 1.415 . S
C484 H460 0.950 . S
C484 C479 1.363 . S
C484 C483 1.415 . S
C485 H461 0.951 . S
C485 C486 1.366 . S
C485 C487 1.388 . S
C486 C485 1.366 . S
C486 C490 1.385 . S
C487 H462 0.951 . S
C487 C485 1.388 . S
C487 C488 1.366 . S
C488 C487 1.366 . S
C488 C489 1.414 . S
C488 C491 1.499 . S
C489 H463 0.950 . S
C489 C488 1.414 . S
C489 C490 1.374 . S
C490 H464 0.950 . S
C490 C486 1.385 . S
C490 C489 1.374 . S
C491 C488 1.499 . S
C491 C492 1.373 . S
C491 C493 1.389 . S
C492 H465 0.950 . S
C492 C478 1.377 . S
C492 C491 1.373 . S
C493 C477 1.377 . S
C493 C491 1.389 . S
C493 C494 1.524 . S
C494 C493 1.524 . S
C494 C495 1.397 . S
C494 C499 1.363 . S
C495 H466 0.950 . S
C495 C494 1.397 . S
C495 C496 1.334 . S
C496 H467 0.950 . S
C496 C495 1.334 . S
C496 C497 1.287 . S
C497 C496 1.287 . S
C497 C498 1.524 . S
C497 H500 0.999 . S
C498 H468 0.950 . S
C498 C497 1.524 . S
C498 C499 1.415 . S
C499 H469 0.950 . S
C499 C494 1.363 . S
C499 C498 1.415 . S
H500 C497 0.999 . S
H501 C482 0.913 . S
H502 C520 0.951 . S
H503 C522 0.951 . S
H504 C524 0.950 . S
H505 C525 0.950 . S
H506 C527 0.950 . S
H507 C530 0.950 . S
H508 C531 0.950 . S
H509 C533 0.950 . S
H510 C534 0.950 . S
H511 C535 0.951 . S
H512 C537 0.951 . S
H513 C539 0.950 . S
H514 C540 0.950 . S
H515 C542 0.950 . S
H516 C545 0.950 . S
H517 C546 0.950 . S
H518 C548 0.950 . S
H519 C549 0.950 . S
C520 H502 0.951 . S
C520 C521 1.366 . S
C520 C522 1.388 . S
C521 C520 1.366 . S
C521 C525 1.385 . S
C522 H503 0.951 . S
C522 C520 1.388 . S
C522 C523 1.366 . S
C523 C522 1.366 . S
C523 C524 1.414 . S
C523 C526 1.499 . S
C524 H504 0.950 . S
C524 C523 1.414 . S
C524 C525 1.374 . S
C525 H505 0.950 . S
C525 C521 1.385 . S
C525 C524 1.374 . S
C526 C523 1.499 . S
C526 C527 1.373 . S
C526 C528 1.389 . S
C527 H506 0.950 . S
C527 C526 1.373 . S
C527 C543 1.377 . S
C528 C526 1.389 . S
C528 C529 1.524 . S
C528 C542 1.377 . S
C529 C528 1.524 . S
C529 C530 1.397 . S
C529 C534 1.363 . S
C530 H507 0.950 . S
C530 C529 1.397 . S
C530 C531 1.334 . S
C531 H508 0.950 . S
C531 C530 1.334 . S
C531 C532 1.287 . S
C532 C531 1.287 . S
C532 C533 1.524 . S
C532 H551 0.913 . S
C533 H509 0.950 . S
C533 C532 1.524 . S
C533 C534 1.415 . S
C534 H510 0.950 . S
C534 C529 1.363 . S
C534 C533 1.415 . S
C535 H511 0.951 . S
C535 C536 1.366 . S
C535 C537 1.388 . S
C536 C535 1.366 . S
C536 C540 1.385 . S
C537 H512 0.951 . S
C537 C535 1.388 . S
C537 C538 1.366 . S
C538 C537 1.366 . S
C538 C539 1.414 . S
C538 C541 1.499 . S
C539 H513 0.950 . S
C539 C538 1.414 . S
C539 C540 1.374 . S
C540 H514 0.950 . S
C540 C536 1.385 . S
C540 C539 1.374 . S
C541 C538 1.499 . S
C541 C542 1.373 . S
C541 C543 1.389 . S
C542 H515 0.950 . S
C542 C528 1.377 . S
C542 C541 1.373 . S
C543 C527 1.377 . S
C543 C541 1.389 . S
C543 C544 1.524 . S
C544 C543 1.524 . S
C544 C545 1.397 . S
C544 C549 1.363 . S
C545 H516 0.950 . S
C545 C544 1.397 . S
C545 C546 1.334 1_455 S
C546 H517 0.950 . S
C546 C545 1.334 1_655 S
C546 C547 1.287 . S
C547 C546 1.287 . S
C547 C548 1.524 . S
C547 H550 0.999 . S
C548 H518 0.950 . S
C548 C547 1.524 . S
C548 C549 1.415 1_655 S
C549 H519 0.950 . S
C549 C544 1.363 . S
C549 C548 1.415 1_455 S
H550 C547 0.999 . S
H551 C532 0.913 . S
H552 C570 0.951 . S
H553 C572 0.951 . S
H554 C574 0.950 . S
H555 C575 0.950 . S
H556 C577 0.950 . S
H557 C580 0.950 . S
H558 C581 0.950 . S
H559 C583 0.950 . S
H560 C584 0.950 . S
H561 C585 0.951 . S
H562 C587 0.951 . S
H563 C589 0.950 . S
H564 C590 0.950 . S
H565 C592 0.950 . S
H566 C595 0.950 . S
H567 C596 0.950 . S
H568 C598 0.950 . S
H569 C599 0.950 . S
C570 H552 0.951 . S
C570 C571 1.366 . S
C570 C572 1.388 . S
C571 C570 1.366 . S
C571 C575 1.385 . S
C572 H553 0.951 . S
C572 C570 1.388 . S
C572 C573 1.366 . S
C573 C572 1.366 . S
C573 C574 1.414 . S
C573 C576 1.499 . S
C574 H554 0.950 . S
C574 C573 1.414 . S
C574 C575 1.374 . S
C575 H555 0.950 . S
C575 C571 1.385 . S
C575 C574 1.374 . S
C576 C573 1.499 . S
C576 C577 1.373 . S
C576 C578 1.389 . S
C577 H556 0.950 . S
C577 C576 1.373 . S
C577 C593 1.377 . S
C578 C576 1.389 . S
C578 C579 1.524 . S
C578 C592 1.377 1_655 S
C579 C578 1.524 . S
C579 C580 1.397 . S
C579 C584 1.363 1_655 S
C580 H557 0.950 . S
C580 C579 1.397 . S
C580 C581 1.334 . S
C581 H558 0.950 . S
C581 C580 1.334 . S
C581 C582 1.287 . S
C582 C581 1.287 . S
C582 C583 1.524 1_655 S
C582 H601 0.913 . S
C583 H559 0.950 . S
C583 C582 1.524 1_455 S
C583 C584 1.415 . S
C584 H560 0.950 . S
C584 C579 1.363 1_455 S
C584 C583 1.415 . S
C585 H561 0.951 . S
C585 C586 1.366 . S
C585 C587 1.388 . S
C586 C585 1.366 . S
C586 C590 1.385 . S
C587 H562 0.951 . S
C587 C585 1.388 . S
C587 C588 1.366 . S
C588 C587 1.366 . S
C588 C589 1.414 . S
C588 C591 1.499 . S
C589 H563 0.950 . S
C589 C588 1.414 . S
C589 C590 1.374 . S
C590 H564 0.950 . S
C590 C586 1.385 . S
C590 C589 1.374 . S
C591 C588 1.499 . S
C591 C592 1.373 . S
C591 C593 1.389 1_455 S
C592 H565 0.950 . S
C592 C578 1.377 1_455 S
C592 C591 1.373 . S
C593 C577 1.377 . S
C593 C591 1.389 1_655 S
C593 C594 1.524 . S
C594 C593 1.524 . S
C594 C595 1.397 1_655 S
C594 C599 1.363 . S
C595 H566 0.950 . S
C595 C594 1.397 1_455 S
C595 C596 1.334 . S
C596 H567 0.950 . S
C596 C595 1.334 . S
C596 C597 1.287 1_455 S
C597 C596 1.287 1_655 S
C597 C598 1.524 . S
C597 H600 0.999 . S
C598 H568 0.950 . S
C598 C597 1.524 . S
C598 C599 1.415 . S
C599 H569 0.950 . S
C599 C594 1.363 . S
C599 C598 1.415 . S
H600 C597 0.999 . S
H601 C582 0.913 . S
H602 C620 0.951 . S
H603 C622 0.951 . S
H604 C624 0.950 . S
H605 C625 0.950 . S
H606 C627 0.950 . S
H607 C630 0.950 . S
H608 C631 0.950 . S
H609 C633 0.950 . S
H610 C634 0.950 . S
H611 C635 0.951 . S
H612 C637 0.951 . S
H613 C639 0.950 . S
H614 C640 0.950 . S
H615 C642 0.950 . S
H616 C645 0.950 . S
H617 C646 0.950 . S
H618 C648 0.950 . S
H619 C649 0.950 . S
C620 H602 0.951 . S
C620 C621 1.366 . S
C620 C622 1.388 . S
C621 C620 1.366 . S
C621 C625 1.385 . S
C622 H603 0.951 . S
C622 C620 1.388 . S
C622 C623 1.366 . S
C623 C622 1.366 . S
C623 C624 1.414 . S
C623 C626 1.499 . S
C624 H604 0.950 . S
C624 C623 1.414 . S
C624 C625 1.374 . S
C625 H605 0.950 . S
C625 C621 1.385 . S
C625 C624 1.374 . S
C626 C623 1.499 . S
C626 C627 1.373 . S
C626 C628 1.389 . S
C627 H606 0.950 . S
C627 C626 1.373 . S
C627 C643 1.377 . S
C628 C626 1.389 . S
C628 C629 1.524 . S
C628 C642 1.377 . S
C629 C628 1.524 . S
C629 C630 1.397 . S
C629 C634 1.363 . S
C630 H607 0.950 . S
C630 C629 1.397 . S
C630 C631 1.334 . S
C631 H608 0.950 . S
C631 C630 1.334 . S
C631 C632 1.287 . S
C632 C631 1.287 . S
C632 C633 1.524 . S
C632 H651 0.913 . S
C633 H609 0.950 . S
C633 C632 1.524 . S
C633 C634 1.415 . S
C634 H610 0.950 . S
C634 C629 1.363 . S
C634 C633 1.415 . S
C635 H611 0.951 . S
C635 C636 1.366 . S
C635 C637 1.388 . S
C636 C635 1.366 . S
C636 C640 1.385 . S
C637 H612 0.951 . S
C637 C635 1.388 . S
C637 C638 1.366 . S
C638 C637 1.366 . S
C638 C639 1.414 . S
C638 C641 1.499 . S
C639 H613 0.950 . S
C639 C638 1.414 . S
C639 C640 1.374 . S
C640 H614 0.950 . S
C640 C636 1.385 . S
C640 C639 1.374 . S
C641 C638 1.499 . S
C641 C642 1.373 . S
C641 C643 1.389 . S
C642 H615 0.950 . S
C642 C628 1.377 . S
C642 C641 1.373 . S
C643 C627 1.377 . S
C643 C641 1.389 . S
C643 C644 1.524 . S
C644 C643 1.524 . S
C644 C645 1.397 . S
C644 C649 1.363 . S
C645 H616 0.950 . S
C645 C644 1.397 . S
C645 C646 1.334 . S
C646 H617 0.950 . S
C646 C645 1.334 . S
C646 C647 1.287 . S
C647 C646 1.287 . S
C647 C648 1.524 . S
C647 H650 0.999 . S
C648 H618 0.950 . S
C648 C647 1.524 . S
C648 C649 1.415 . S
C649 H619 0.950 . S
C649 C644 1.363 . S
C649 C648 1.415 . S
H650 C647 0.999 . S
H651 C632 0.913 . S
H652 C670 0.951 . S
H653 C672 0.951 . S
H654 C674 0.950 . S
H655 C675 0.950 . S
H656 C677 0.950 . S
H657 C680 0.950 . S
H658 C681 0.950 . S
H659 C683 0.950 . S
H660 C684 0.951 1_565 S
H661 C685 0.951 . S
H662 C687 0.951 . S
H663 C689 0.950 . S
H664 C690 0.950 . S
H665 C692 0.950 . S
H666 C695 0.950 . S
H667 C696 0.950 . S
H668 C698 0.950 . S
H669 C699 0.950 . S
C670 H652 0.951 . S
C670 C671 1.366 . S
C670 C672 1.388 . S
C671 C670 1.366 . S
C671 C675 1.385 . S
C672 H653 0.951 . S
C672 C670 1.388 . S
C672 C673 1.366 . S
C673 C672 1.366 . S
C673 C674 1.414 . S
C673 C676 1.499 . S
C674 H654 0.950 . S
C674 C673 1.414 . S
C674 C675 1.374 . S
C675 H655 0.950 . S
C675 C671 1.385 . S
C675 C674 1.374 . S
C676 C673 1.499 . S
C676 C677 1.373 . S
C676 C678 1.389 . S
C677 H656 0.950 . S
C677 C676 1.373 . S
C677 C693 1.377 1_545 S
C678 C676 1.389 . S
C678 C679 1.524 . S
C678 C692 1.377 1_545 S
C679 C678 1.524 . S
C679 C680 1.397 . S
C679 C684 1.363 . S
C680 H657 0.950 . S
C680 C679 1.397 . S
C680 C681 1.334 . S
C681 H658 0.950 . S
C681 C680 1.334 . S
C681 C682 1.287 . S
C682 C681 1.287 . S
C682 C683 1.524 . S
C682 H701 0.913 . S
C683 H659 0.950 . S
C683 C682 1.524 . S
C683 C684 1.415 . S
C684 H660 0.951 1_545 S
C684 C679 1.363 . S
C684 C683 1.415 . S
C685 H661 0.951 . S
C685 C686 1.366 . S
C685 C687 1.388 . S
C686 C685 1.366 . S
C686 C690 1.385 . S
C687 H662 0.951 . S
C687 C685 1.388 . S
C687 C688 1.366 . S
C688 C687 1.366 . S
C688 C689 1.414 . S
C688 C691 1.499 . S
C689 H663 0.950 . S
C689 C688 1.414 . S
C689 C690 1.374 . S
C690 H664 0.950 . S
C690 C686 1.385 . S
C690 C689 1.374 . S
C691 C688 1.499 . S
C691 C692 1.373 . S
C691 C693 1.389 . S
C692 H665 0.950 . S
C692 C678 1.377 1_565 S
C692 C691 1.373 . S
C693 C677 1.377 1_565 S
C693 C691 1.389 . S
C693 C694 1.524 . S
C694 C693 1.524 . S
C694 C695 1.397 . S
C694 C699 1.363 . S
C695 H666 0.950 . S
C695 C694 1.397 . S
C695 C696 1.334 . S
C696 H667 0.950 . S
C696 C695 1.334 . S
C696 C697 1.287 . S
C697 C696 1.287 . S
C697 C698 1.524 . S
C697 H700 0.999 . S
C698 H668 0.950 . S
C698 C697 1.524 . S
C698 C699 1.415 . S
C699 H669 0.950 . S
C699 C694 1.363 . S
C699 C698 1.415 . S
H700 C697 0.999 . S
H701 C682 0.913 . S
H702 C720 0.951 . S
H703 C722 0.951 . S
H704 C724 0.950 . S
H705 C725 0.950 . S
H706 C727 0.950 . S
H707 C730 0.950 . S
H708 C731 0.950 . S
H709 C733 0.950 . S
H710 C734 0.950 . S
H711 C735 0.951 . S
H712 C737 0.951 . S
H713 C739 0.950 . S
H714 C740 0.950 . S
H715 C742 0.950 . S
H716 C745 0.950 . S
H717 C746 0.950 . S
H718 C748 0.950 1_565 S
H719 C749 0.950 . S
C720 H702 0.951 . S
C720 C721 1.366 . S
C720 C722 1.388 . S
C721 C720 1.366 . S
C721 C725 1.385 . S
C722 H703 0.951 . S
C722 C720 1.388 . S
C722 C723 1.366 . S
C723 C722 1.366 . S
C723 C724 1.414 . S
C723 C726 1.499 . S
C724 H704 0.950 . S
C724 C723 1.414 . S
C724 C725 1.374 . S
C725 H705 0.950 . S
C725 C721 1.385 . S
C725 C724 1.374 . S
C726 C723 1.499 . S
C726 C727 1.373 . S
C726 C728 1.389 . S
C727 H706 0.950 . S
C727 C726 1.373 . S
C727 C743 1.377 1_455 S
C728 C726 1.389 . S
C728 C729 1.524 . S
C728 C742 1.377 1_455 S
C729 C728 1.524 . S
C729 C730 1.397 . S
C729 C734 1.363 . S
C730 H707 0.950 . S
C730 C729 1.397 . S
C730 C731 1.334 . S
C731 H708 0.950 . S
C731 C730 1.334 . S
C731 C732 1.287 . S
C732 C731 1.287 . S
C732 C733 1.524 . S
C732 H751 0.913 . S
C733 H709 0.950 . S
C733 C732 1.524 . S
C733 C734 1.415 . S
C734 H710 0.950 . S
C734 C729 1.363 . S
C734 C733 1.415 . S
C735 H711 0.951 . S
C735 C736 1.366 . S
C735 C737 1.388 . S
C736 C735 1.366 . S
C736 C740 1.385 . S
C737 H712 0.951 . S
C737 C735 1.388 . S
C737 C738 1.366 . S
C738 C737 1.366 . S
C738 C739 1.414 . S
C738 C741 1.499 . S
C739 H713 0.950 . S
C739 C738 1.414 . S
C739 C740 1.374 . S
C740 H714 0.950 . S
C740 C736 1.385 . S
C740 C739 1.374 . S
C741 C738 1.499 . S
C741 C742 1.373 . S
C741 C743 1.389 . S
C742 H715 0.950 . S
C742 C728 1.377 1_655 S
C742 C741 1.373 . S
C743 C727 1.377 1_655 S
C743 C741 1.389 . S
C743 C744 1.524 . S
C744 C743 1.524 . S
C744 C745 1.397 . S
C744 C749 1.363 . S
C745 H716 0.950 . S
C745 C744 1.397 . S
C745 C746 1.334 . S
C746 H717 0.950 . S
C746 C745 1.334 . S
C746 C747 1.331 . S
C747 C746 1.331 . S
C747 C748 1.510 . S
C747 H750 0.963 1_545 S
C748 H718 0.950 1_545 S
C748 C747 1.510 . S
C748 C749 1.415 . S
C749 H719 0.950 . S
C749 C744 1.363 . S
C749 C748 1.415 . S
H750 C747 0.963 1_565 S
H751 C732 0.913 . S
H752 C770 0.951 . S
H753 C772 0.951 . S
H754 C774 0.950 . S
H755 C775 0.950 . S
H756 C777 0.950 . S
H757 C780 0.950 . S
H758 C781 0.950 . S
H759 C783 0.950 . S
H760 C784 0.950 . S
H761 C785 0.951 . S
H762 C787 0.951 . S
H763 C789 0.950 . S
H764 C790 0.950 . S
H765 C792 0.950 . S
H766 C795 0.950 . S
H767 C796 0.950 . S
H768 C798 0.950 . S
H769 C799 0.950 . S
C770 H752 0.951 . S
C770 C771 1.366 . S
C770 C772 1.388 . S
C771 C770 1.366 . S
C771 C775 1.385 . S
C772 H753 0.951 . S
C772 C770 1.388 . S
C772 C773 1.366 . S
C773 C772 1.366 . S
C773 C774 1.414 . S
C773 C776 1.499 . S
C774 H754 0.950 . S
C774 C773 1.414 . S
C774 C775 1.374 . S
C775 H755 0.950 . S
C775 C771 1.385 . S
C775 C774 1.374 . S
C776 C773 1.499 . S
C776 C777 1.373 . S
C776 C778 1.389 . S
C777 H756 0.950 . S
C777 C776 1.373 . S
C777 C793 1.377 . S
C778 C776 1.389 . S
C778 C779 1.524 . S
C778 C792 1.377 . S
C779 C778 1.524 . S
C779 C780 1.397 . S
C779 C784 1.363 . S
C780 H757 0.950 . S
C780 C779 1.397 . S
C780 C781 1.334 . S
C781 H758 0.950 . S
C781 C780 1.334 . S
C781 C782 1.287 . S
C782 C781 1.287 . S
C782 C783 1.524 . S
C782 H801 0.913 . S
C783 H759 0.950 . S
C783 C782 1.524 . S
C783 C784 1.415 . S
C784 H760 0.950 . S
C784 C779 1.363 . S
C784 C783 1.415 . S
C785 H761 0.951 . S
C785 C786 1.366 . S
C785 C787 1.388 . S
C786 C785 1.366 . S
C786 C790 1.385 . S
C787 H762 0.951 . S
C787 C785 1.388 . S
C787 C788 1.366 . S
C788 C787 1.366 . S
C788 C789 1.414 . S
C788 C791 1.499 . S
C789 H763 0.950 . S
C789 C788 1.414 . S
C789 C790 1.374 . S
C790 H764 0.950 . S
C790 C786 1.385 . S
C790 C789 1.374 . S
C791 C788 1.499 . S
C791 C792 1.373 . S
C791 C793 1.389 . S
C792 H765 0.950 . S
C792 C778 1.377 . S
C792 C791 1.373 . S
C793 C777 1.377 . S
C793 C791 1.389 . S
C793 C794 1.524 . S
C794 C793 1.524 . S
C794 C795 1.397 . S
C794 C799 1.363 . S
C795 H766 0.950 . S
C795 C794 1.397 . S
C795 C796 1.334 . S
C796 H767 0.950 . S
C796 C795 1.334 . S
C796 C797 1.287 . S
C797 C796 1.287 . S
C797 C798 1.524 . S
C797 H800 0.999 . S
C798 H768 0.950 . S
C798 C797 1.524 . S
C798 C799 1.415 . S
C799 H769 0.950 . S
C799 C794 1.363 . S
C799 C798 1.415 . S
H800 C797 0.999 . S
H801 C782 0.913 . S
H802 C820 0.951 . S
H803 C822 0.951 . S
H804 C824 0.950 . S
H805 C825 0.950 . S
H806 C827 0.950 . S
H807 C830 0.950 . S
H808 C831 0.950 . S
H809 C833 0.950 . S
H810 C834 0.950 1_565 S
H811 C835 0.951 . S
H812 C837 0.951 . S
H813 C839 0.950 . S
H814 C840 0.950 . S
H815 C842 0.950 . S
H816 C845 0.950 . S
H817 C846 0.950 . S
H818 C848 0.950 . S
H819 C849 0.950 . S
C820 H802 0.951 . S
C820 C821 1.366 . S
C820 C822 1.388 . S
C821 C820 1.366 . S
C821 C825 1.385 . S
C822 H803 0.951 . S
C822 C820 1.388 . S
C822 C823 1.366 . S
C823 C822 1.366 . S
C823 C824 1.414 . S
C823 C826 1.499 . S
C824 H804 0.950 . S
C824 C823 1.414 . S
C824 C825 1.374 . S
C825 H805 0.950 . S
C825 C821 1.385 . S
C825 C824 1.374 . S
C826 C823 1.499 . S
C826 C827 1.373 . S
C826 C828 1.389 . S
C827 H806 0.950 . S
C827 C826 1.373 . S
C827 C843 1.377 1_545 S
C828 C826 1.389 . S
C828 C829 1.524 . S
C828 C842 1.377 1_545 S
C829 C828 1.524 . S
C829 C830 1.397 . S
C829 C834 1.363 . S
C830 H807 0.950 . S
C830 C829 1.397 . S
C830 C831 1.334 . S
C831 H808 0.950 . S
C831 C830 1.334 . S
C831 C832 1.287 . S
C832 C831 1.287 . S
C832 C833 1.524 . S
C832 H851 0.913 . S
C833 H809 0.950 . S
C833 C832 1.524 . S
C833 C834 1.415 . S
C834 H810 0.950 1_545 S
C834 C829 1.363 . S
C834 C833 1.415 . S
C835 H811 0.951 . S
C835 C836 1.366 . S
C835 C837 1.388 . S
C836 C835 1.366 . S
C836 C840 1.385 . S
C837 H812 0.951 . S
C837 C835 1.388 . S
C837 C838 1.366 . S
C838 C837 1.366 . S
C838 C839 1.414 . S
C838 C841 1.499 . S
C839 H813 0.950 . S
C839 C838 1.414 . S
C839 C840 1.374 . S
C840 H814 0.950 . S
C840 C836 1.385 . S
C840 C839 1.374 . S
C841 C838 1.499 . S
C841 C842 1.373 . S
C841 C843 1.389 . S
C842 H815 0.950 . S
C842 C828 1.377 1_565 S
C842 C841 1.373 . S
C843 C827 1.377 1_565 S
C843 C841 1.389 . S
C843 C844 1.524 . S
C844 C843 1.524 . S
C844 C845 1.397 . S
C844 C849 1.363 . S
C845 H816 0.950 . S
C845 C844 1.397 . S
C845 C846 1.334 . S
C846 H817 0.950 . S
C846 C845 1.334 . S
C846 C847 1.287 . S
C847 C846 1.287 . S
C847 C848 1.524 . S
C847 H850 0.999 . S
C848 H818 0.950 . S
C848 C847 1.524 . S
C848 C849 1.415 . S
C849 H819 0.950 . S
C849 C844 1.363 . S
C849 C848 1.415 . S
H850 C847 0.999 . S
H851 C832 0.913 . S
H852 C870 0.951 . S
H853 C872 0.951 . S
H854 C874 0.950 . S
H855 C875 0.950 . S
H856 C877 0.950 . S
H857 C880 0.950 . S
H858 C881 0.948 1_655 S
H859 C883 0.950 . S
H860 C884 0.950 . S
H861 C885 0.951 . S
H862 C887 0.951 . S
H863 C889 0.950 . S
H864 C890 0.950 . S
H865 C892 0.950 . S
H866 C895 0.950 . S
H867 C896 0.950 . S
H868 C898 0.950 . S
H869 C899 0.950 . S
C870 H852 0.951 . S
C870 C871 1.366 . S
C870 C872 1.388 . S
C871 C870 1.366 . S
C871 C875 1.385 . S
C872 H853 0.951 . S
C872 C870 1.388 . S
C872 C873 1.366 . S
C873 C872 1.366 . S
C873 C874 1.414 . S
C873 C876 1.499 . S
C874 H854 0.950 . S
C874 C873 1.414 . S
C874 C875 1.374 . S
C875 H855 0.950 . S
C875 C871 1.385 . S
C875 C874 1.374 . S
C876 C873 1.499 . S
C876 C877 1.373 . S
C876 C878 1.389 . S
C877 H856 0.950 . S
C877 C876 1.373 . S
C877 C893 1.377 1_565 S
C878 C876 1.389 . S
C878 C879 1.524 . S
C878 C892 1.377 1_565 S
C879 C878 1.524 . S
C879 C880 1.397 . S
C879 C884 1.363 . S
C880 H857 0.950 . S
C880 C879 1.397 . S
C880 C881 1.337 . S
C881 H858 0.948 1_455 S
C881 C880 1.337 . S
C881 C882 1.286 1_455 S
C882 C881 1.286 1_655 S
C882 C883 1.524 1_655 S
C882 H901 0.913 . S
C883 H859 0.950 . S
C883 C882 1.524 1_455 S
C883 C884 1.415 . S
C884 H860 0.950 . S
C884 C879 1.363 . S
C884 C883 1.415 . S
C885 H861 0.951 . S
C885 C886 1.366 . S
C885 C887 1.388 . S
C886 C885 1.366 . S
C886 C890 1.385 . S
C887 H862 0.951 . S
C887 C885 1.388 . S
C887 C888 1.366 . S
C888 C887 1.366 . S
C888 C889 1.414 . S
C888 C891 1.499 . S
C889 H863 0.950 . S
C889 C888 1.414 . S
C889 C890 1.374 . S
C890 H864 0.950 . S
C890 C886 1.385 . S
C890 C889 1.374 . S
C891 C888 1.499 . S
C891 C892 1.373 . S
C891 C893 1.389 . S
C892 H865 0.950 . S
C892 C878 1.377 1_545 S
C892 C891 1.373 . S
C893 C877 1.377 1_545 S
C893 C891 1.389 . S
C893 C894 1.524 . S
C894 C893 1.524 . S
C894 C895 1.397 . S
C894 C899 1.363 . S
C895 H866 0.950 . S
C895 C894 1.397 . S
C895 C896 1.334 . S
C896 H867 0.950 . S
C896 C895 1.334 . S
C896 C897 1.287 . S
C897 C896 1.287 . S
C897 C898 1.524 . S
C897 H900 0.999 . S
C898 H868 0.950 . S
C898 C897 1.524 . S
C898 C899 1.415 . S
C899 H869 0.950 . S
C899 C894 1.363 . S
C899 C898 1.415 . S
H900 C897 0.999 . S
H901 C882 0.913 . S
H902 C920 0.951 . S
H903 C922 0.951 . S
H904 C924 0.950 . S
H905 C925 0.950 . S
H906 C927 0.950 . S
H907 C930 0.950 . S
H908 C931 0.950 . S
H909 C933 0.950 . S
H910 C934 0.950 1_655 S
H911 C935 0.951 . S
H912 C937 0.951 . S
H913 C939 0.950 . S
H914 C940 0.950 . S
H915 C942 0.950 . S
H916 C945 0.950 . S
H917 C946 0.950 . S
H918 C948 0.950 1_565 S
H919 C949 0.950 . S
C920 H902 0.951 . S
C920 C921 1.366 . S
C920 C922 1.388 . S
C921 C920 1.366 . S
C921 C925 1.385 . S
C922 H903 0.951 . S
C922 C920 1.388 . S
C922 C923 1.366 . S
C923 C922 1.366 . S
C923 C924 1.414 . S
C923 C926 1.499 . S
C924 H904 0.950 . S
C924 C923 1.414 . S
C924 C925 1.374 . S
C925 H905 0.950 . S
C925 C921 1.385 . S
C925 C924 1.374 . S
C926 C923 1.499 . S
C926 C927 1.373 . S
C926 C928 1.389 . S
C927 H906 0.950 . S
C927 C926 1.373 . S
C927 C943 1.377 1_455 S
C928 C926 1.389 . S
C928 C929 1.524 . S
C928 C942 1.377 1_455 S
C929 C928 1.524 . S
C929 C930 1.397 . S
C929 C934 1.363 . S
C930 H907 0.950 . S
C930 C929 1.397 . S
C930 C931 1.334 . S
C931 H908 0.950 . S
C931 C930 1.334 . S
C931 C932 1.287 . S
C932 C931 1.287 . S
C932 C933 1.524 . S
C932 H951 0.913 . S
C933 H909 0.950 . S
C933 C932 1.524 . S
C933 C934 1.415 . S
C934 H910 0.950 1_455 S
C934 C929 1.363 . S
C934 C933 1.415 . S
C935 H911 0.951 . S
C935 C936 1.366 . S
C935 C937 1.388 . S
C936 C935 1.366 . S
C936 C940 1.385 . S
C937 H912 0.951 . S
C937 C935 1.388 . S
C937 C938 1.366 . S
C938 C937 1.366 . S
C938 C939 1.414 . S
C938 C941 1.499 . S
C939 H913 0.950 . S
C939 C938 1.414 . S
C939 C940 1.374 . S
C940 H914 0.950 . S
C940 C936 1.385 . S
C940 C939 1.374 . S
C941 C938 1.499 . S
C941 C942 1.373 . S
C941 C943 1.389 . S
C942 H915 0.950 . S
C942 C928 1.377 1_655 S
C942 C941 1.373 . S
C943 C927 1.377 1_655 S
C943 C941 1.389 . S
C943 C944 1.524 . S
C944 C943 1.524 . S
C944 C945 1.397 . S
C944 C949 1.363 . S
C945 H916 0.950 . S
C945 C944 1.397 . S
C945 C946 1.334 1_545 S
C946 H917 0.950 . S
C946 C945 1.334 1_565 S
C946 C947 1.287 . S
C947 C946 1.287 . S
C947 C948 1.524 1_565 S
C947 H950 0.999 . S
C948 H918 0.950 1_545 S
C948 C947 1.524 1_545 S
C948 C949 1.415 . S
C949 H919 0.950 . S
C949 C944 1.363 . S
C949 C948 1.415 . S
H950 C947 0.999 . S
H951 C932 0.913 . S
H952 C970 0.951 . S
H953 C972 0.951 . S
H954 C974 0.950 . S
H955 C975 0.950 . S
H956 C977 0.950 . S
H957 C980 0.950 . S
H958 C981 0.950 . S
H959 C983 0.950 . S
H960 C984 0.950 . S
H961 C985 0.951 . S
H962 C987 0.951 . S
H963 C989 0.950 . S
H964 C990 0.950 . S
H965 C992 0.950 . S
H966 C995 0.950 . S
H967 C996 0.950 . S
H968 C998 0.950 . S
H969 C999 0.950 . S
C970 H952 0.951 . S
C970 C971 1.366 . S
C970 C972 1.388 . S
C971 C970 1.366 . S
C971 C975 1.385 . S
C972 H953 0.951 . S
C972 C970 1.388 . S
C972 C973 1.366 . S
C973 C972 1.366 . S
C973 C974 1.414 . S
C973 C976 1.499 . S
C974 H954 0.950 . S
C974 C973 1.414 . S
C974 C975 1.374 . S
C975 H955 0.950 . S
C975 C971 1.385 . S
C975 C974 1.374 . S
C976 C973 1.499 . S
C976 C977 1.373 . S
C976 C978 1.389 . S
C977 H956 0.950 . S
C977 C976 1.373 . S
C977 C993 1.377 . S
C978 C976 1.389 . S
C978 C979 1.524 . S
C978 C992 1.377 . S
C979 C978 1.524 . S
C979 C980 1.397 . S
C979 C984 1.363 . S
C980 H957 0.950 . S
C980 C979 1.397 . S
C980 C981 1.334 . S
C981 H958 0.950 . S
C981 C980 1.334 . S
C981 C982 1.287 . S
C982 C981 1.287 . S
C982 C983 1.524 . S
C982 H1001 0.913 . S
C983 H959 0.950 . S
C983 C982 1.524 . S
C983 C984 1.415 . S
C984 H960 0.950 . S
C984 C979 1.363 . S
C984 C983 1.415 . S
C985 H961 0.951 . S
C985 C986 1.366 . S
C985 C987 1.388 . S
C986 C985 1.366 . S
C986 C990 1.385 . S
C987 H962 0.951 . S
C987 C985 1.388 . S
C987 C988 1.366 . S
C988 C987 1.366 . S
C988 C989 1.414 . S
C988 C991 1.499 . S
C989 H963 0.950 . S
C989 C988 1.414 . S
C989 C990 1.374 . S
C990 H964 0.950 . S
C990 C986 1.385 . S
C990 C989 1.374 . S
C991 C988 1.499 . S
C991 C992 1.373 . S
C991 C993 1.389 . S
C992 H965 0.950 . S
C992 C978 1.377 . S
C992 C991 1.373 . S
C993 C977 1.377 . S
C993 C991 1.389 . S
C993 C994 1.524 . S
C994 C993 1.524 . S
C994 C995 1.397 . S
C994 C999 1.363 . S
C995 H966 0.950 . S
C995 C994 1.397 . S
C995 C996 1.334 . S
C996 H967 0.950 . S
C996 C995 1.334 . S
C996 C997 1.287 . S
C997 C996 1.287 . S
C997 C998 1.524 . S
C997 H1000 0.999 . S
C998 H968 0.950 . S
C998 C997 1.524 . S
C998 C999 1.415 . S
C999 H969 0.950 . S
C999 C994 1.363 . S
C999 C998 1.415 . S
H1000 C997 0.999 . S
H1001 C982 0.913 . S
H1002 C1020 0.951 . S
H1003 C1022 0.951 . S
H1004 C1024 0.950 . S
H1005 C1025 0.950 . S
H1006 C1027 0.950 . S
H1007 C1030 0.950 . S
H1008 C1031 0.950 . S
H1009 C1033 0.950 . S
H1010 C1034 0.950 . S
H1011 C1035 0.951 . S
H1012 C1037 0.951 . S
H1013 C1039 0.950 . S
H1014 C1040 0.950 . S
H1015 C1042 0.950 . S
H1016 C1045 0.950 . S
H1017 C1046 0.950 . S
H1018 C1048 0.950 . S
H1019 C1049 0.950 . S
C1020 H1002 0.951 . S
C1020 C1021 1.366 . S
C1020 C1022 1.388 . S
C1021 C1020 1.366 . S
C1021 C1025 1.385 . S
C1022 H1003 0.951 . S
C1022 C1020 1.388 . S
C1022 C1023 1.366 . S
C1023 C1022 1.366 . S
C1023 C1024 1.414 . S
C1023 C1026 1.499 . S
C1024 H1004 0.950 . S
C1024 C1023 1.414 . S
C1024 C1025 1.374 . S
C1025 H1005 0.950 . S
C1025 C1021 1.385 . S
C1025 C1024 1.374 . S
C1026 C1023 1.499 . S
C1026 C1027 1.373 . S
C1026 C1028 1.389 . S
C1027 H1006 0.950 . S
C1027 C1026 1.373 . S
C1027 C1043 1.377 . S
C1028 C1026 1.389 . S
C1028 C1029 1.524 . S
C1028 C1042 1.377 . S
C1029 C1028 1.524 . S
C1029 C1030 1.397 . S
C1029 C1034 1.363 . S
C1030 H1007 0.950 . S
C1030 C1029 1.397 . S
C1030 C1031 1.334 . S
C1031 H1008 0.950 . S
C1031 C1030 1.334 . S
C1031 C1032 1.287 . S
C1032 C1031 1.287 . S
C1032 C1033 1.524 . S
C1032 H1051 0.913 . S
C1033 H1009 0.950 . S
C1033 C1032 1.524 . S
C1033 C1034 1.415 . S
C1034 H1010 0.950 . S
C1034 C1029 1.363 . S
C1034 C1033 1.415 . S
C1035 H1011 0.951 . S
C1035 C1036 1.366 . S
C1035 C1037 1.388 . S
C1036 C1035 1.366 . S
C1036 C1040 1.385 . S
C1037 H1012 0.951 . S
C1037 C1035 1.388 . S
C1037 C1038 1.366 . S
C1038 C1037 1.366 . S
C1038 C1039 1.414 . S
C1038 C1041 1.499 . S
C1039 H1013 0.950 . S
C1039 C1038 1.414 . S
C1039 C1040 1.374 . S
C1040 H1014 0.950 . S
C1040 C1036 1.385 . S
C1040 C1039 1.374 . S
C1041 C1038 1.499 . S
C1041 C1042 1.373 . S
C1041 C1043 1.389 . S
C1042 H1015 0.950 . S
C1042 C1028 1.377 . S
C1042 C1041 1.373 . S
C1043 C1027 1.377 . S
C1043 C1041 1.389 . S
C1043 C1044 1.524 . S
C1044 C1043 1.524 . S
C1044 C1045 1.397 . S
C1044 C1049 1.363 . S
C1045 H1016 0.950 . S
C1045 C1044 1.397 . S
C1045 C1046 1.334 . S
C1046 H1017 0.950 . S
C1046 C1045 1.334 . S
C1046 C1047 1.287 . S
C1047 C1046 1.287 . S
C1047 C1048 1.524 . S
C1047 H1050 0.999 . S
C1048 H1018 0.950 . S
C1048 C1047 1.524 . S
C1048 C1049 1.415 . S
C1049 H1019 0.950 . S
C1049 C1044 1.363 . S
C1049 C1048 1.415 . S
H1050 C1047 0.999 . S
H1051 C1032 0.913 . S
H1052 C1070 0.951 . S
H1053 C1072 0.951 . S
H1054 C1074 0.950 . S
H1055 C1075 0.950 . S
H1056 C1077 0.950 . S
H1057 C1080 0.950 . S
H1058 C1081 0.950 . S
H1059 C1083 0.950 . S
H1060 C1084 0.950 . S
H1061 C1085 0.951 . S
H1062 C1087 0.951 . S
H1063 C1089 0.950 . S
H1064 C1090 0.950 . S
H1065 C1092 0.950 . S
H1066 C1095 0.950 . S
H1067 C1096 0.950 . S
H1068 C1098 0.950 . S
H1069 C1099 0.950 . S
C1070 H1052 0.951 . S
C1070 C1071 1.366 . S
C1070 C1072 1.388 . S
C1071 C1070 1.366 . S
C1071 C1075 1.385 . S
C1072 H1053 0.951 . S
C1072 C1070 1.388 . S
C1072 C1073 1.366 . S
C1073 C1072 1.366 . S
C1073 C1074 1.414 . S
C1073 C1076 1.499 . S
C1074 H1054 0.950 . S
C1074 C1073 1.414 . S
C1074 C1075 1.374 . S
C1075 H1055 0.950 . S
C1075 C1071 1.385 . S
C1075 C1074 1.374 . S
C1076 C1073 1.499 . S
C1076 C1077 1.373 . S
C1076 C1078 1.389 . S
C1077 H1056 0.950 . S
C1077 C1076 1.373 . S
C1077 C1093 1.377 . S
C1078 C1076 1.389 . S
C1078 C1079 1.524 . S
C1078 C1092 1.377 . S
C1079 C1078 1.524 . S
C1079 C1080 1.397 . S
C1079 C1084 1.363 . S
C1080 H1057 0.950 . S
C1080 C1079 1.397 . S
C1080 C1081 1.334 . S
C1081 H1058 0.950 . S
C1081 C1080 1.334 . S
C1081 C1082 1.287 . S
C1082 C1081 1.287 . S
C1082 C1083 1.524 . S
C1082 H1101 0.913 . S
C1083 H1059 0.950 . S
C1083 C1082 1.524 . S
C1083 C1084 1.415 . S
C1084 H1060 0.950 . S
C1084 C1079 1.363 . S
C1084 C1083 1.415 . S
C1085 H1061 0.951 . S
C1085 C1086 1.366 . S
C1085 C1087 1.388 . S
C1086 C1085 1.366 . S
C1086 C1090 1.385 . S
C1087 H1062 0.951 . S
C1087 C1085 1.388 . S
C1087 C1088 1.366 . S
C1088 C1087 1.366 . S
C1088 C1089 1.414 . S
C1088 C1091 1.499 . S
C1089 H1063 0.950 . S
C1089 C1088 1.414 . S
C1089 C1090 1.374 . S
C1090 H1064 0.950 . S
C1090 C1086 1.385 . S
C1090 C1089 1.374 . S
C1091 C1088 1.499 . S
C1091 C1092 1.373 . S
C1091 C1093 1.389 . S
C1092 H1065 0.950 . S
C1092 C1078 1.377 . S
C1092 C1091 1.373 . S
C1093 C1077 1.377 . S
C1093 C1091 1.389 . S
C1093 C1094 1.524 . S
C1094 C1093 1.524 . S
C1094 C1095 1.397 . S
C1094 C1099 1.363 . S
C1095 H1066 0.950 . S
C1095 C1094 1.397 . S
C1095 C1096 1.334 . S
C1096 H1067 0.950 . S
C1096 C1095 1.334 . S
C1096 C1097 1.287 . S
C1097 C1096 1.287 . S
C1097 C1098 1.524 . S
C1097 H1100 0.999 . S
C1098 H1068 0.950 . S
C1098 C1097 1.524 . S
C1098 C1099 1.415 . S
C1099 H1069 0.950 . S
C1099 C1094 1.363 . S
C1099 C1098 1.415 . S
H1100 C1097 0.999 . S
H1101 C1082 0.913 . S
H1102 C1120 0.951 . S
H1103 C1122 0.951 . S
H1104 C1124 0.950 . S
H1105 C1125 0.950 . S
H1106 C1127 0.950 . S
H1107 C1130 0.950 . S
H1108 C1131 0.950 . S
H1109 C1133 0.950 . S
H1110 C1134 0.950 . S
H1111 C1135 0.951 . S
H1112 C1137 0.951 . S
H1113 C1139 0.950 . S
H1114 C1140 0.950 . S
H1115 C1142 0.950 . S
H1116 C1145 0.950 . S
H1117 C1146 0.950 . S
H1118 C1148 0.950 . S
H1119 C1149 0.950 . S
C1120 H1102 0.951 . S
C1120 C1121 1.366 . S
C1120 C1122 1.388 . S
C1121 C1120 1.366 . S
C1121 C1125 1.385 . S
C1122 H1103 0.951 . S
C1122 C1120 1.388 . S
C1122 C1123 1.366 . S
C1123 C1122 1.366 . S
C1123 C1124 1.414 . S
C1123 C1126 1.499 . S
C1124 H1104 0.950 . S
C1124 C1123 1.414 . S
C1124 C1125 1.374 . S
C1125 H1105 0.950 . S
C1125 C1121 1.385 . S
C1125 C1124 1.374 . S
C1126 C1123 1.499 . S
C1126 C1127 1.373 . S
C1126 C1128 1.389 . S
C1127 H1106 0.950 . S
C1127 C1126 1.373 . S
C1127 C1143 1.377 . S
C1128 C1126 1.389 . S
C1128 C1129 1.524 . S
C1128 C1142 1.377 . S
C1129 C1128 1.524 . S
C1129 C1130 1.397 . S
C1129 C1134 1.363 . S
C1130 H1107 0.950 . S
C1130 C1129 1.397 . S
C1130 C1131 1.334 . S
C1131 H1108 0.950 . S
C1131 C1130 1.334 . S
C1131 C1132 1.287 . S
C1132 C1131 1.287 . S
C1132 C1133 1.524 . S
C1132 H1151 0.913 . S
C1133 H1109 0.950 . S
C1133 C1132 1.524 . S
C1133 C1134 1.415 . S
C1134 H1110 0.950 . S
C1134 C1129 1.363 . S
C1134 C1133 1.415 . S
C1135 H1111 0.951 . S
C1135 C1136 1.366 . S
C1135 C1137 1.388 . S
C1136 C1135 1.366 . S
C1136 C1140 1.385 . S
C1137 H1112 0.951 . S
C1137 C1135 1.388 . S
C1137 C1138 1.366 . S
C1138 C1137 1.366 . S
C1138 C1139 1.414 . S
C1138 C1141 1.499 . S
C1139 H1113 0.950 . S
C1139 C1138 1.414 . S
C1139 C1140 1.374 . S
C1140 H1114 0.950 . S
C1140 C1136 1.385 . S
C1140 C1139 1.374 . S
C1141 C1138 1.499 . S
C1141 C1142 1.373 . S
C1141 C1143 1.389 . S
C1142 H1115 0.950 . S
C1142 C1128 1.377 . S
C1142 C1141 1.373 . S
C1143 C1127 1.377 . S
C1143 C1141 1.389 . S
C1143 C1144 1.524 . S
C1144 C1143 1.524 . S
C1144 C1145 1.397 . S
C1144 C1149 1.363 . S
C1145 H1116 0.950 . S
C1145 C1144 1.397 . S
C1145 C1146 1.334 . S
C1146 H1117 0.950 . S
C1146 C1145 1.334 . S
C1146 C1147 1.287 . S
C1147 C1146 1.287 . S
C1147 C1148 1.524 . S
C1147 H1150 0.999 . S
C1148 H1118 0.950 . S
C1148 C1147 1.524 . S
C1148 C1149 1.415 . S
C1149 H1119 0.950 . S
C1149 C1144 1.363 . S
C1149 C1148 1.415 . S
H1150 C1147 0.999 . S
H1151 C1132 0.913 . S
H1152 C1170 0.951 . S
H1153 C1172 0.951 . S
H1154 C1174 0.950 . S
H1155 C1175 0.950 . S
H1156 C1177 0.950 . S
H1157 C1180 0.950 . S
H1158 C1181 0.950 . S
H1159 C1183 0.950 . S
H1160 C1184 0.950 . S
H1161 C1185 0.951 . S
H1162 C1187 0.951 . S
H1163 C1189 0.950 . S
H1164 C1190 0.950 . S
H1165 C1192 0.950 . S
H1166 C1195 0.950 . S
H1167 C1196 0.950 . S
H1168 C1198 0.950 . S
H1169 C1199 0.950 . S
C1170 H1152 0.951 . S
C1170 C1171 1.366 . S
C1170 C1172 1.388 . S
C1171 C1170 1.366 . S
C1171 C1175 1.385 . S
C1172 H1153 0.951 . S
C1172 C1170 1.388 . S
C1172 C1173 1.366 . S
C1173 C1172 1.366 . S
C1173 C1174 1.414 . S
C1173 C1176 1.499 . S
C1174 H1154 0.950 . S
C1174 C1173 1.414 . S
C1174 C1175 1.374 . S
C1175 H1155 0.950 . S
C1175 C1171 1.385 . S
C1175 C1174 1.374 . S
C1176 C1173 1.499 . S
C1176 C1177 1.373 . S
C1176 C1178 1.389 . S
C1177 H1156 0.950 . S
C1177 C1176 1.373 . S
C1177 C1193 1.377 . S
C1178 C1176 1.389 . S
C1178 C1179 1.524 . S
C1178 C1192 1.377 . S
C1179 C1178 1.524 . S
C1179 C1180 1.397 . S
C1179 C1184 1.363 . S
C1180 H1157 0.950 . S
C1180 C1179 1.397 . S
C1180 C1181 1.334 . S
C1181 H1158 0.950 . S
C1181 C1180 1.334 . S
C1181 C1182 1.287 . S
C1182 C1181 1.287 . S
C1182 C1183 1.524 . S
C1182 H1201 0.913 . S
C1183 H1159 0.950 . S
C1183 C1182 1.524 . S
C1183 C1184 1.415 . S
C1184 H1160 0.950 . S
C1184 C1179 1.363 . S
C1184 C1183 1.415 . S
C1185 H1161 0.951 . S
C1185 C1186 1.366 . S
C1185 C1187 1.388 . S
C1186 C1185 1.366 . S
C1186 C1190 1.385 . S
C1187 H1162 0.951 . S
C1187 C1185 1.388 . S
C1187 C1188 1.366 . S
C1188 C1187 1.366 . S
C1188 C1189 1.414 . S
C1188 C1191 1.499 . S
C1189 H1163 0.950 . S
C1189 C1188 1.414 . S
C1189 C1190 1.374 . S
C1190 H1164 0.950 . S
C1190 C1186 1.385 . S
C1190 C1189 1.374 . S
C1191 C1188 1.499 . S
C1191 C1192 1.373 . S
C1191 C1193 1.389 . S
C1192 H1165 0.950 . S
C1192 C1178 1.377 . S
C1192 C1191 1.373 . S
C1193 C1177 1.377 . S
C1193 C1191 1.389 . S
C1193 C1194 1.524 . S
C1194 C1193 1.524 . S
C1194 C1195 1.397 . S
C1194 C1199 1.363 . S
C1195 H1166 0.950 . S
C1195 C1194 1.397 . S
C1195 C1196 1.334 . S
C1196 H1167 0.950 . S
C1196 C1195 1.334 . S
C1196 C1197 1.287 . S
C1197 C1196 1.287 . S
C1197 C1198 1.524 . S
C1197 H1200 0.999 . S
C1198 H1168 0.950 . S
C1198 C1197 1.524 . S
C1198 C1199 1.415 . S
C1199 H1169 0.950 . S
C1199 C1194 1.363 . S
C1199 C1198 1.415 . S
H1200 C1197 0.999 . S
H1201 C1182 0.913 . S
H1202 C1220 0.951 . S
H1203 C1222 0.951 . S
H1204 C1224 0.950 . S
H1205 C1225 0.950 . S
H1206 C1227 0.950 . S
H1207 C1230 0.950 . S
H1208 C1231 0.950 . S
H1209 C1233 0.950 . S
H1210 C1234 0.950 . S
H1211 C1235 0.951 . S
H1212 C1237 0.951 . S
H1213 C1239 0.950 . S
H1214 C1240 0.950 . S
H1215 C1242 0.950 . S
H1216 C1245 0.950 . S
H1217 C1246 0.950 . S
H1218 C1248 0.950 . S
H1219 C1249 0.950 . S
C1220 H1202 0.951 . S
C1220 C1221 1.366 . S
C1220 C1222 1.388 . S
C1221 C1220 1.366 . S
C1221 C1225 1.385 . S
C1222 H1203 0.951 . S
C1222 C1220 1.388 . S
C1222 C1223 1.366 . S
C1223 C1222 1.366 . S
C1223 C1224 1.414 . S
C1223 C1226 1.499 . S
C1224 H1204 0.950 . S
C1224 C1223 1.414 . S
C1224 C1225 1.374 . S
C1225 H1205 0.950 . S
C1225 C1221 1.385 . S
C1225 C1224 1.374 . S
C1226 C1223 1.499 . S
C1226 C1227 1.373 . S
C1226 C1228 1.389 . S
C1227 H1206 0.950 . S
C1227 C1226 1.373 . S
C1227 C1243 1.377 . S
C1228 C1226 1.389 . S
C1228 C1229 1.524 . S
C1228 C1242 1.377 . S
C1229 C1228 1.524 . S
C1229 C1230 1.397 . S
C1229 C1234 1.363 . S
C1230 H1207 0.950 . S
C1230 C1229 1.397 . S
C1230 C1231 1.334 . S
C1231 H1208 0.950 . S
C1231 C1230 1.334 . S
C1231 C1232 1.287 . S
C1232 C1231 1.287 . S
C1232 C1233 1.524 . S
C1232 H1251 0.913 . S
C1233 H1209 0.950 . S
C1233 C1232 1.524 . S
C1233 C1234 1.415 . S
C1234 H1210 0.950 . S
C1234 C1229 1.363 . S
C1234 C1233 1.415 . S
C1235 H1211 0.951 . S
C1235 C1236 1.366 . S
C1235 C1237 1.388 . S
C1236 C1235 1.366 . S
C1236 C1240 1.385 . S
C1237 H1212 0.951 . S
C1237 C1235 1.388 . S
C1237 C1238 1.366 . S
C1238 C1237 1.366 . S
C1238 C1239 1.414 . S
C1238 C1241 1.499 . S
C1239 H1213 0.950 . S
C1239 C1238 1.414 . S
C1239 C1240 1.374 . S
C1240 H1214 0.950 . S
C1240 C1236 1.385 . S
C1240 C1239 1.374 . S
C1241 C1238 1.499 . S
C1241 C1242 1.373 . S
C1241 C1243 1.389 . S
C1242 H1215 0.950 . S
C1242 C1228 1.377 . S
C1242 C1241 1.373 . S
C1243 C1227 1.377 . S
C1243 C1241 1.389 . S
C1243 C1244 1.524 . S
C1244 C1243 1.524 . S
C1244 C1245 1.397 . S
C1244 C1249 1.363 . S
C1245 H1216 0.950 . S
C1245 C1244 1.397 . S
C1245 C1246 1.334 . S
C1246 H1217 0.950 . S
C1246 C1245 1.334 . S
C1246 C1247 1.287 . S
C1247 C1246 1.287 . S
C1247 C1248 1.524 . S
C1247 H1250 0.999 . S
C1248 H1218 0.950 . S
C1248 C1247 1.524 . S
C1248 C1249 1.415 . S
C1249 H1219 0.950 . S
C1249 C1244 1.363 . S
C1249 C1248 1.415 . S
H1250 C1247 0.999 . S
H1251 C1232 0.913 . S
H1252 C1270 0.951 . S
H1253 C1272 0.951 . S
H1254 C1274 0.950 . S
H1255 C1275 0.950 . S
H1256 C1277 0.950 . S
H1257 C1280 0.950 . S
H1258 C1281 0.950 . S
H1259 C1283 0.950 . S
H1260 C1284 0.950 . S
H1261 C1285 0.951 . S
H1262 C1287 0.951 . S
H1263 C1289 0.950 . S
H1264 C1290 0.950 . S
H1265 C1292 0.950 . S
H1266 C1295 0.950 . S
H1267 C1296 0.950 . S
H1268 C1298 0.950 . S
H1269 C1299 0.950 . S
C1270 H1252 0.951 . S
C1270 C1271 1.366 . S
C1270 C1272 1.388 . S
C1271 C1270 1.366 . S
C1271 C1275 1.385 . S
C1272 H1253 0.951 . S
C1272 C1270 1.388 . S
C1272 C1273 1.366 . S
C1273 C1272 1.366 . S
C1273 C1274 1.414 . S
C1273 C1276 1.499 . S
C1274 H1254 0.950 . S
C1274 C1273 1.414 . S
C1274 C1275 1.374 . S
C1275 H1255 0.950 . S
C1275 C1271 1.385 . S
C1275 C1274 1.374 . S
C1276 C1273 1.499 . S
C1276 C1277 1.373 . S
C1276 C1278 1.389 . S
C1277 H1256 0.950 . S
C1277 C1276 1.373 . S
C1277 C1293 1.377 . S
C1278 C1276 1.389 . S
C1278 C1279 1.524 . S
C1278 C1292 1.377 . S
C1279 C1278 1.524 . S
C1279 C1280 1.397 . S
C1279 C1284 1.363 . S
C1280 H1257 0.950 . S
C1280 C1279 1.397 . S
C1280 C1281 1.334 . S
C1281 H1258 0.950 . S
C1281 C1280 1.334 . S
C1281 C1282 1.287 . S
C1282 C1281 1.287 . S
C1282 C1283 1.524 . S
C1282 H1301 0.913 . S
C1283 H1259 0.950 . S
C1283 C1282 1.524 . S
C1283 C1284 1.415 . S
C1284 H1260 0.950 . S
C1284 C1279 1.363 . S
C1284 C1283 1.415 . S
C1285 H1261 0.951 . S
C1285 C1286 1.366 . S
C1285 C1287 1.388 . S
C1286 C1285 1.366 . S
C1286 C1290 1.385 . S
C1287 H1262 0.951 . S
C1287 C1285 1.388 . S
C1287 C1288 1.366 . S
C1288 C1287 1.366 . S
C1288 C1289 1.414 . S
C1288 C1291 1.499 . S
C1289 H1263 0.950 . S
C1289 C1288 1.414 . S
C1289 C1290 1.374 . S
C1290 H1264 0.950 . S
C1290 C1286 1.385 . S
C1290 C1289 1.374 . S
C1291 C1288 1.499 . S
C1291 C1292 1.373 . S
C1291 C1293 1.389 . S
C1292 H1265 0.950 . S
C1292 C1278 1.377 . S
C1292 C1291 1.373 . S
C1293 C1277 1.377 . S
C1293 C1291 1.389 . S
C1293 C1294 1.524 . S
C1294 C1293 1.524 . S
C1294 C1295 1.397 . S
C1294 C1299 1.363 . S
C1295 H1266 0.950 . S
C1295 C1294 1.397 . S
C1295 C1296 1.334 . S
C1296 H1267 0.950 . S
C1296 C1295 1.334 . S
C1296 C1297 1.287 . S
C1297 C1296 1.287 . S
C1297 C1298 1.524 . S
C1297 H1300 0.999 . S
C1298 H1268 0.950 . S
C1298 C1297 1.524 . S
C1298 C1299 1.415 . S
C1299 H1269 0.950 . S
C1299 C1294 1.363 . S
C1299 C1298 1.415 . S
H1300 C1297 0.999 . S
H1301 C1282 0.913 . S
H1302 C1320 0.951 . S
H1303 C1322 0.951 . S
H1304 C1324 0.950 . S
H1305 C1325 0.950 . S
H1306 C1327 0.950 . S
H1307 C1330 0.950 . S
H1308 C1331 0.950 . S
H1309 C1333 0.950 . S
H1310 C1334 0.950 . S
H1311 C1335 0.951 . S
H1312 C1337 0.951 . S
H1313 C1339 0.950 . S
H1314 C1340 0.950 . S
H1315 C1342 0.950 . S
H1316 C1345 0.950 . S
H1317 C1346 0.950 . S
H1318 C1348 0.950 . S
H1319 C1349 0.950 . S
C1320 H1302 0.951 . S
C1320 C1321 1.366 . S
C1320 C1322 1.388 . S
C1321 C1320 1.366 . S
C1321 C1325 1.385 . S
C1322 H1303 0.951 . S
C1322 C1320 1.388 . S
C1322 C1323 1.366 . S
C1323 C1322 1.366 . S
C1323 C1324 1.414 . S
C1323 C1326 1.499 . S
C1324 H1304 0.950 . S
C1324 C1323 1.414 . S
C1324 C1325 1.374 . S
C1325 H1305 0.950 . S
C1325 C1321 1.385 . S
C1325 C1324 1.374 . S
C1326 C1323 1.499 . S
C1326 C1327 1.373 . S
C1326 C1328 1.389 . S
C1327 H1306 0.950 . S
C1327 C1326 1.373 . S
C1327 C1343 1.377 . S
C1328 C1326 1.389 . S
C1328 C1329 1.524 . S
C1328 C1342 1.377 . S
C1329 C1328 1.524 . S
C1329 C1330 1.397 . S
C1329 C1334 1.363 . S
C1330 H1307 0.950 . S
C1330 C1329 1.397 . S
C1330 C1331 1.334 . S
C1331 H1308 0.950 . S
C1331 C1330 1.334 . S
C1331 C1332 1.287 . S
C1332 C1331 1.287 . S
C1332 C1333 1.524 . S
C1332 H1351 0.913 . S
C1333 H1309 0.950 . S
C1333 C1332 1.524 . S
C1333 C1334 1.415 . S
C1334 H1310 0.950 . S
C1334 C1329 1.363 . S
C1334 C1333 1.415 . S
C1335 H1311 0.951 . S
C1335 C1336 1.366 . S
C1335 C1337 1.388 . S
C1336 C1335 1.366 . S
C1336 C1340 1.385 . S
C1337 H1312 0.951 . S
C1337 C1335 1.388 . S
C1337 C1338 1.366 . S
C1338 C1337 1.366 . S
C1338 C1339 1.414 . S
C1338 C1341 1.499 . S
C1339 H1313 0.950 . S
C1339 C1338 1.414 . S
C1339 C1340 1.374 . S
C1340 H1314 0.950 . S
C1340 C1336 1.385 . S
C1340 C1339 1.374 . S
C1341 C1338 1.499 . S
C1341 C1342 1.373 . S
C1341 C1343 1.389 . S
C1342 H1315 0.950 . S
C1342 C1328 1.377 . S
C1342 C1341 1.373 . S
C1343 C1327 1.377 . S
C1343 C1341 1.389 . S
C1343 C1344 1.524 . S
C1344 C1343 1.524 . S
C1344 C1345 1.397 . S
C1344 C1349 1.363 . S
C1345 H1316 0.950 . S
C1345 C1344 1.397 . S
C1345 C1346 1.334 . S
C1346 H1317 0.950 . S
C1346 C1345 1.334 . S
C1346 C1347 1.287 . S
C1347 C1346 1.287 . S
C1347 C1348 1.524 . S
C1347 H1350 0.999 . S
C1348 H1318 0.950 . S
C1348 C1347 1.524 . S
C1348 C1349 1.415 . S
C1349 H1319 0.950 . S
C1349 C1344 1.363 . S
C1349 C1348 1.415 . S
H1350 C1347 0.999 . S
H1351 C1332 0.913 . S
H1352 C1370 0.951 . S
H1353 C1372 0.951 . S
H1354 C1374 0.950 . S
H1355 C1375 0.950 . S
H1356 C1377 0.950 . S
H1357 C1380 0.950 . S
H1358 C1381 0.950 . S
H1359 C1383 0.950 . S
H1360 C1384 0.950 . S
H1361 C1385 0.951 . S
H1362 C1387 0.951 . S
H1363 C1389 0.950 . S
H1364 C1390 0.950 . S
H1365 C1392 0.950 . S
H1366 C1395 0.950 . S
H1367 C1396 0.950 . S
H1368 C1398 0.950 . S
H1369 C1399 0.950 . S
C1370 H1352 0.951 . S
C1370 C1371 1.366 . S
C1370 C1372 1.388 . S
C1371 C1370 1.366 . S
C1371 C1375 1.385 . S
C1372 H1353 0.951 . S
C1372 C1370 1.388 . S
C1372 C1373 1.366 . S
C1373 C1372 1.366 . S
C1373 C1374 1.414 . S
C1373 C1376 1.499 . S
C1374 H1354 0.950 . S
C1374 C1373 1.414 . S
C1374 C1375 1.374 . S
C1375 H1355 0.950 . S
C1375 C1371 1.385 . S
C1375 C1374 1.374 . S
C1376 C1373 1.499 . S
C1376 C1377 1.373 . S
C1376 C1378 1.389 . S
C1377 H1356 0.950 . S
C1377 C1376 1.373 . S
C1377 C1393 1.377 . S
C1378 C1376 1.389 . S
C1378 C1379 1.524 . S
C1378 C1392 1.377 . S
C1379 C1378 1.524 . S
C1379 C1380 1.397 . S
C1379 C1384 1.363 . S
C1380 H1357 0.950 . S
C1380 C1379 1.397 . S
C1380 C1381 1.334 . S
C1381 H1358 0.950 . S
C1381 C1380 1.334 . S
C1381 C1382 1.287 . S
C1382 C1381 1.287 . S
C1382 C1383 1.524 . S
C1382 H1401 0.913 . S
C1383 H1359 0.950 . S
C1383 C1382 1.524 . S
C1383 C1384 1.415 . S
C1384 H1360 0.950 . S
C1384 C1379 1.363 . S
C1384 C1383 1.415 . S
C1385 H1361 0.951 . S
C1385 C1386 1.366 . S
C1385 C1387 1.388 . S
C1386 C1385 1.366 . S
C1386 C1390 1.385 . S
C1387 H1362 0.951 . S
C1387 C1385 1.388 . S
C1387 C1388 1.366 . S
C1388 C1387 1.366 . S
C1388 C1389 1.414 . S
C1388 C1391 1.499 . S
C1389 H1363 0.950 . S
C1389 C1388 1.414 . S
C1389 C1390 1.374 . S
C1390 H1364 0.950 . S
C1390 C1386 1.385 . S
C1390 C1389 1.374 . S
C1391 C1388 1.499 . S
C1391 C1392 1.373 . S
C1391 C1393 1.389 . S
C1392 H1365 0.950 . S
C1392 C1378 1.377 . S
C1392 C1391 1.373 . S
C1393 C1377 1.377 . S
C1393 C1391 1.389 . S
C1393 C1394 1.524 . S
C1394 C1393 1.524 . S
C1394 C1395 1.397 . S
C1394 C1399 1.363 . S
C1395 H1366 0.950 . S
C1395 C1394 1.397 . S
C1395 C1396 1.334 . S
C1396 H1367 0.950 . S
C1396 C1395 1.334 . S
C1396 C1397 1.287 . S
C1397 C1396 1.287 . S
C1397 C1398 1.524 . S
C1397 H1400 0.999 . S
C1398 H1368 0.950 . S
C1398 C1397 1.524 . S
C1398 C1399 1.415 . S
C1399 H1369 0.950 . S
C1399 C1394 1.363 . S
C1399 C1398 1.415 . S
H1400 C1397 0.999 . S
H1401 C1382 0.913 . S
H1402 C1420 0.951 . S
H1403 C1422 0.951 . S
H1404 C1424 0.950 . S
H1405 C1425 0.950 . S
H1406 C1427 0.950 . S
H1407 C1430 0.950 . S
H1408 C1431 0.950 . S
H1409 C1433 0.950 . S
H1410 C1434 0.950 . S
H1411 C1435 0.951 . S
H1412 C1437 0.951 . S
H1413 C1439 0.950 . S
H1414 C1440 0.950 . S
H1415 C1442 0.950 . S
H1416 C1445 0.950 . S
H1417 C1446 0.950 . S
H1418 C1448 0.950 . S
H1419 C1449 0.950 . S
C1420 H1402 0.951 . S
C1420 C1421 1.366 . S
C1420 C1422 1.388 . S
C1421 C1420 1.366 . S
C1421 C1425 1.385 . S
C1422 H1403 0.951 . S
C1422 C1420 1.388 . S
C1422 C1423 1.366 . S
C1423 C1422 1.366 . S
C1423 C1424 1.414 . S
C1423 C1426 1.499 . S
C1424 H1404 0.950 . S
C1424 C1423 1.414 . S
C1424 C1425 1.374 . S
C1425 H1405 0.950 . S
C1425 C1421 1.385 . S
C1425 C1424 1.374 . S
C1426 C1423 1.499 . S
C1426 C1427 1.373 . S
C1426 C1428 1.389 . S
C1427 H1406 0.950 . S
C1427 C1426 1.373 . S
C1427 C1443 1.377 . S
C1428 C1426 1.389 . S
C1428 C1429 1.524 . S
C1428 C1442 1.377 . S
C1429 C1428 1.524 . S
C1429 C1430 1.397 . S
C1429 C1434 1.363 . S
C1430 H1407 0.950 . S
C1430 C1429 1.397 . S
C1430 C1431 1.334 . S
C1431 H1408 0.950 . S
C1431 C1430 1.334 . S
C1431 C1432 1.287 . S
C1432 C1431 1.287 . S
C1432 C1433 1.524 . S
C1432 H1451 0.913 . S
C1433 H1409 0.950 . S
C1433 C1432 1.524 . S
C1433 C1434 1.415 . S
C1434 H1410 0.950 . S
C1434 C1429 1.363 . S
C1434 C1433 1.415 . S
C1435 H1411 0.951 . S
C1435 C1436 1.366 . S
C1435 C1437 1.388 . S
C1436 C1435 1.366 . S
C1436 C1440 1.385 . S
C1437 H1412 0.951 . S
C1437 C1435 1.388 . S
C1437 C1438 1.366 . S
C1438 C1437 1.366 . S
C1438 C1439 1.414 . S
C1438 C1441 1.499 . S
C1439 H1413 0.950 . S
C1439 C1438 1.414 . S
C1439 C1440 1.374 . S
C1440 H1414 0.950 . S
C1440 C1436 1.385 . S
C1440 C1439 1.374 . S
C1441 C1438 1.499 . S
C1441 C1442 1.373 . S
C1441 C1443 1.389 . S
C1442 H1415 0.950 . S
C1442 C1428 1.377 . S
C1442 C1441 1.373 . S
C1443 C1427 1.377 . S
C1443 C1441 1.389 . S
C1443 C1444 1.524 . S
C1444 C1443 1.524 . S
C1444 C1445 1.397 . S
C1444 C1449 1.363 . S
C1445 H1416 0.950 . S
C1445 C1444 1.397 . S
C1445 C1446 1.334 . S
C1446 H1417 0.950 . S
C1446 C1445 1.334 . S
C1446 C1447 1.287 . S
C1447 C1446 1.287 . S
C1447 C1448 1.524 . S
C1447 H1450 0.999 . S
C1448 H1418 0.950 . S
C1448 C1447 1.524 . S
C1448 C1449 1.415 . S
C1449 H1419 0.950 . S
C1449 C1444 1.363 . S
C1449 C1448 1.415 . S
H1450 C1447 0.999 . S
H1451 C1432 0.913 . S
H1452 C1470 0.951 . S
H1453 C1472 0.951 . S
H1454 C1474 0.950 . S
H1455 C1475 0.950 . S
H1456 C1477 0.950 . S
H1457 C1480 0.950 . S
H1458 C1481 0.950 . S
H1459 C1483 0.950 . S
H1460 C1484 0.950 . S
H1461 C1485 0.951 . S
H1462 C1487 0.951 . S
H1463 C1489 0.950 . S
H1464 C1490 0.950 . S
H1465 C1492 0.950 . S
H1466 C1495 0.950 . S
H1467 C1496 0.950 . S
H1468 C1498 0.950 . S
H1469 C1499 0.950 . S
C1470 H1452 0.951 . S
C1470 C1471 1.366 . S
C1470 C1472 1.388 . S
C1471 C1470 1.366 . S
C1471 C1475 1.385 . S
C1472 H1453 0.951 . S
C1472 C1470 1.388 . S
C1472 C1473 1.366 . S
C1473 C1472 1.366 . S
C1473 C1474 1.414 . S
C1473 C1476 1.499 . S
C1474 H1454 0.950 . S
C1474 C1473 1.414 . S
C1474 C1475 1.374 . S
C1475 H1455 0.950 . S
C1475 C1471 1.385 . S
C1475 C1474 1.374 . S
C1476 C1473 1.499 . S
C1476 C1477 1.373 . S
C1476 C1478 1.389 . S
C1477 H1456 0.950 . S
C1477 C1476 1.373 . S
C1477 C1493 1.377 . S
C1478 C1476 1.389 . S
C1478 C1479 1.524 . S
C1478 C1492 1.377 . S
C1479 C1478 1.524 . S
C1479 C1480 1.397 . S
C1479 C1484 1.363 . S
C1480 H1457 0.950 . S
C1480 C1479 1.397 . S
C1480 C1481 1.334 . S
C1481 H1458 0.950 . S
C1481 C1480 1.334 . S
C1481 C1482 1.287 . S
C1482 C1481 1.287 . S
C1482 C1483 1.524 . S
C1482 H1501 0.913 . S
C1483 H1459 0.950 . S
C1483 C1482 1.524 . S
C1483 C1484 1.415 . S
C1484 H1460 0.950 . S
C1484 C1479 1.363 . S
C1484 C1483 1.415 . S
C1485 H1461 0.951 . S
C1485 C1486 1.366 . S
C1485 C1487 1.388 . S
C1486 C1485 1.366 . S
C1486 C1490 1.385 . S
C1487 H1462 0.951 . S
C1487 C1485 1.388 . S
C1487 C1488 1.366 . S
C1488 C1487 1.366 . S
C1488 C1489 1.414 . S
C1488 C1491 1.499 . S
C1489 H1463 0.950 . S
C1489 C1488 1.414 . S
C1489 C1490 1.374 . S
C1490 H1464 0.950 . S
C1490 C1486 1.385 . S
C1490 C1489 1.374 . S
C1491 C1488 1.499 . S
C1491 C1492 1.373 . S
C1491 C1493 1.389 . S
C1492 H1465 0.950 . S
C1492 C1478 1.377 . S
C1492 C1491 1.373 . S
C1493 C1477 1.377 . S
C1493 C1491 1.389 . S
C1493 C1494 1.524 . S
C1494 C1493 1.524 . S
C1494 C1495 1.397 . S
C1494 C1499 1.363 . S
C1495 H1466 0.950 . S
C1495 C1494 1.397 . S
C1495 C1496 1.334 . S
C1496 H1467 0.950 . S
C1496 C1495 1.334 . S
C1496 C1497 1.287 . S
C1497 C1496 1.287 . S
C1497 C1498 1.524 . S
C1497 H1500 0.999 . S
C1498 H1468 0.950 . S
C1498 C1497 1.524 . S
C1498 C1499 1.415 . S
C1499 H1469 0.950 . S
C1499 C1494 1.363 . S
C1499 C1498 1.415 . S
H1500 C1497 0.999 . S
H1501 C1482 0.913 . S
H1502 C1520 0.951 . S
H1503 C1522 0.951 . S
H1504 C1524 0.950 . S
H1505 C1525 0.950 . S
H1506 C1527 0.950 . S
H1507 C1530 0.950 . S
H1508 C1531 0.950 . S
H1509 C1533 0.950 . S
H1510 C1534 0.950 . S
H1511 C1535 0.951 . S
H1512 C1537 0.951 . S
H1513 C1539 0.950 . S
H1514 C1540 0.950 . S
H1515 C1542 0.950 . S
H1516 C1545 0.950 . S
H1517 C1546 0.950 . S
H1518 C1548 0.950 . S
H1519 C1549 0.950 . S
C1520 H1502 0.951 . S
C1520 C1521 1.366 . S
C1520 C1522 1.388 . S
C1521 C1520 1.366 . S
C1521 C1525 1.385 . S
C1522 H1503 0.951 . S
C1522 C1520 1.388 . S
C1522 C1523 1.366 . S
C1523 C1522 1.366 . S
C1523 C1524 1.414 . S
C1523 C1526 1.499 . S
C1524 H1504 0.950 . S
C1524 C1523 1.414 . S
C1524 C1525 1.374 . S
C1525 H1505 0.950 . S
C1525 C1521 1.385 . S
C1525 C1524 1.374 . S
C1526 C1523 1.499 . S
C1526 C1527 1.373 . S
C1526 C1528 1.389 . S
C1527 H1506 0.950 . S
C1527 C1526 1.373 . S
C1527 C1543 1.377 . S
C1528 C1526 1.389 . S
C1528 C1529 1.524 . S
C1528 C1542 1.377 . S
C1529 C1528 1.524 . S
C1529 C1530 1.397 . S
C1529 C1534 1.363 . S
C1530 H1507 0.950 . S
C1530 C1529 1.397 . S
C1530 C1531 1.334 . S
C1531 H1508 0.950 . S
C1531 C1530 1.334 . S
C1531 C1532 1.287 . S
C1532 C1531 1.287 . S
C1532 C1533 1.524 . S
C1532 H1551 0.913 . S
C1533 H1509 0.950 . S
C1533 C1532 1.524 . S
C1533 C1534 1.415 . S
C1534 H1510 0.950 . S
C1534 C1529 1.363 . S
C1534 C1533 1.415 . S
C1535 H1511 0.951 . S
C1535 C1536 1.366 . S
C1535 C1537 1.388 . S
C1536 C1535 1.366 . S
C1536 C1540 1.385 . S
C1537 H1512 0.951 . S
C1537 C1535 1.388 . S
C1537 C1538 1.366 . S
C1538 C1537 1.366 . S
C1538 C1539 1.414 . S
C1538 C1541 1.499 . S
C1539 H1513 0.950 . S
C1539 C1538 1.414 . S
C1539 C1540 1.374 . S
C1540 H1514 0.950 . S
C1540 C1536 1.385 . S
C1540 C1539 1.374 . S
C1541 C1538 1.499 . S
C1541 C1542 1.373 . S
C1541 C1543 1.389 . S
C1542 H1515 0.950 . S
C1542 C1528 1.377 . S
C1542 C1541 1.373 . S
C1543 C1527 1.377 . S
C1543 C1541 1.389 . S
C1543 C1544 1.524 . S
C1544 C1543 1.524 . S
C1544 C1545 1.397 . S
C1544 C1549 1.363 . S
C1545 H1516 0.950 . S
C1545 C1544 1.397 . S
C1545 C1546 1.334 . S
C1546 H1517 0.950 . S
C1546 C1545 1.334 . S
C1546 C1547 1.287 . S
C1547 C1546 1.287 . S
C1547 C1548 1.524 . S
C1547 H1550 0.999 . S
C1548 H1518 0.950 . S
C1548 C1547 1.524 . S
C1548 C1549 1.415 . S
C1549 H1519 0.950 . S
C1549 C1544 1.363 . S
C1549 C1548 1.415 . S
H1550 C1547 0.999 . S
H1551 C1532 0.913 . S
H1552 C1570 0.951 . S
H1553 C1572 0.951 . S
H1554 C1574 0.950 . S
H1555 C1575 0.950 . S
H1556 C1577 0.950 . S
H1557 C1580 0.950 . S
H1558 C1581 0.950 . S
H1559 C1583 0.950 . S
H1560 C1584 0.950 . S
H1561 C1585 0.951 . S
H1562 C1587 0.951 . S
H1563 C1589 0.950 . S
H1564 C1590 0.950 . S
H1565 C1592 0.950 . S
H1566 C1595 0.950 . S
H1567 C1596 0.950 . S
H1568 C1598 0.950 . S
H1569 C1599 0.950 . S
C1570 H1552 0.951 . S
C1570 C1571 1.366 . S
C1570 C1572 1.388 . S
C1571 C1570 1.366 . S
C1571 C1575 1.385 . S
C1572 H1553 0.951 . S
C1572 C1570 1.388 . S
C1572 C1573 1.366 . S
C1573 C1572 1.366 . S
C1573 C1574 1.414 . S
C1573 C1576 1.499 . S
C1574 H1554 0.950 . S
C1574 C1573 1.414 . S
C1574 C1575 1.374 . S
C1575 H1555 0.950 . S
C1575 C1571 1.385 . S
C1575 C1574 1.374 . S
C1576 C1573 1.499 . S
C1576 C1577 1.373 . S
C1576 C1578 1.389 . S
C1577 H1556 0.950 . S
C1577 C1576 1.373 . S
C1577 C1593 1.377 . S
C1578 C1576 1.389 . S
C1578 C1579 1.524 . S
C1578 C1592 1.377 . S
C1579 C1578 1.524 . S
C1579 C1580 1.397 . S
C1579 C1584 1.363 . S
C1580 H1557 0.950 . S
C1580 C1579 1.397 . S
C1580 C1581 1.334 . S
C1581 H1558 0.950 . S
C1581 C1580 1.334 . S
C1581 C1582 1.287 . S
C1582 C1581 1.287 . S
C1582 C1583 1.524 . S
C1582 H1601 0.913 . S
C1583 H1559 0.950 . S
C1583 C1582 1.524 . S
C1583 C1584 1.415 . S
C1584 H1560 0.950 . S
C1584 C1579 1.363 . S
C1584 C1583 1.415 . S
C1585 H1561 0.951 . S
C1585 C1586 1.366 . S
C1585 C1587 1.388 . S
C1586 C1585 1.366 . S
C1586 C1590 1.385 . S
C1587 H1562 0.951 . S
C1587 C1585 1.388 . S
C1587 C1588 1.366 . S
C1588 C1587 1.366 . S
C1588 C1589 1.414 . S
C1588 C1591 1.499 . S
C1589 H1563 0.950 . S
C1589 C1588 1.414 . S
C1589 C1590 1.374 . S
C1590 H1564 0.950 . S
C1590 C1586 1.385 . S
C1590 C1589 1.374 . S
C1591 C1588 1.499 . S
C1591 C1592 1.373 . S
C1591 C1593 1.389 . S
C1592 H1565 0.950 . S
C1592 C1578 1.377 . S
C1592 C1591 1.373 . S
C1593 C1577 1.377 . S
C1593 C1591 1.389 . S
C1593 C1594 1.524 . S
C1594 C1593 1.524 . S
C1594 C1595 1.397 . S
C1594 C1599 1.363 . S
C1595 H1566 0.950 . S
C1595 C1594 1.397 . S
C1595 C1596 1.334 . S
C1596 H1567 0.950 . S
C1596 C1595 1.334 . S
C1596 C1597 1.287 . S
C1597 C1596 1.287 . S
C1597 C1598 1.524 . S
C1597 H1600 0.999 . S
C1598 H1568 0.950 . S
C1598 C1597 1.524 . S
C1598 C1599 1.415 . S
C1599 H1569 0.950 . S
C1599 C1594 1.363 . S
C1599 C1598 1.415 . S
H1600 C1597 0.999 . S
H1601 C1582 0.913 . S
H1602 C1620 0.951 . S
H1603 C1622 0.951 . S
H1604 C1624 0.950 . S
H1605 C1625 0.950 . S
H1606 C1627 0.950 . S
H1607 C1630 0.950 . S
H1608 C1631 0.950 . S
H1609 C1633 0.950 . S
H1610 C1634 0.950 . S
H1611 C1635 0.951 . S
H1612 C1637 0.951 . S
H1613 C1639 0.950 . S
H1614 C1640 0.950 . S
H1615 C1642 0.950 . S
H1616 C1645 0.950 . S
H1617 C1646 0.950 . S
H1618 C1648 0.950 . S
H1619 C1649 0.950 . S
C1620 H1602 0.951 . S
C1620 C1621 1.366 . S
C1620 C1622 1.388 . S
C1621 C1620 1.366 . S
C1621 C1625 1.385 . S
C1622 H1603 0.951 . S
C1622 C1620 1.388 . S
C1622 C1623 1.366 . S
C1623 C1622 1.366 . S
C1623 C1624 1.414 . S
C1623 C1626 1.499 . S
C1624 H1604 0.950 . S
C1624 C1623 1.414 . S
C1624 C1625 1.374 . S
C1625 H1605 0.950 . S
C1625 C1621 1.385 . S
C1625 C1624 1.374 . S
C1626 C1623 1.499 . S
C1626 C1627 1.373 . S
C1626 C1628 1.389 . S
C1627 H1606 0.950 . S
C1627 C1626 1.373 . S
C1627 C1643 1.377 1_554 S
C1628 C1626 1.389 . S
C1628 C1629 1.524 . S
C1628 C1642 1.377 1_554 S
C1629 C1628 1.524 . S
C1629 C1630 1.397 . S
C1629 C1634 1.363 . S
C1630 H1607 0.950 . S
C1630 C1629 1.397 . S
C1630 C1631 1.334 . S
C1631 H1608 0.950 . S
C1631 C1630 1.334 . S
C1631 C1632 1.287 . S
C1632 C1631 1.287 . S
C1632 C1633 1.524 . S
C1632 H1651 0.913 . S
C1633 H1609 0.950 . S
C1633 C1632 1.524 . S
C1633 C1634 1.415 . S
C1634 H1610 0.950 . S
C1634 C1629 1.363 . S
C1634 C1633 1.415 . S
C1635 H1611 0.951 . S
C1635 C1636 1.366 . S
C1635 C1637 1.388 . S
C1636 C1635 1.366 . S
C1636 C1640 1.385 . S
C1637 H1612 0.951 . S
C1637 C1635 1.388 . S
C1637 C1638 1.366 . S
C1638 C1637 1.366 . S
C1638 C1639 1.414 . S
C1638 C1641 1.499 . S
C1639 H1613 0.950 . S
C1639 C1638 1.414 . S
C1639 C1640 1.374 . S
C1640 H1614 0.950 . S
C1640 C1636 1.385 . S
C1640 C1639 1.374 . S
C1641 C1638 1.499 . S
C1641 C1642 1.373 . S
C1641 C1643 1.389 . S
C1642 H1615 0.950 . S
C1642 C1628 1.377 1_556 S
C1642 C1641 1.373 . S
C1643 C1627 1.377 1_556 S
C1643 C1641 1.389 . S
C1643 C1644 1.524 . S
C1644 C1643 1.524 . S
C1644 C1645 1.397 . S
C1644 C1649 1.363 . S
C1645 H1616 0.950 . S
C1645 C1644 1.397 . S
C1645 C1646 1.334 . S
C1646 H1617 0.950 . S
C1646 C1645 1.334 . S
C1646 C1647 1.287 . S
C1647 C1646 1.287 . S
C1647 C1648 1.524 . S
C1647 H1650 0.999 . S
C1648 H1618 0.950 . S
C1648 C1647 1.524 . S
C1648 C1649 1.415 . S
C1649 H1619 0.950 . S
C1649 C1644 1.363 . S
C1649 C1648 1.415 . S
H1650 C1647 0.999 . S
H1651 C1632 0.913 . S
H1652 C1670 0.951 . S
H1653 C1672 0.951 . S
H1654 C1674 0.950 . S
H1655 C1675 0.950 . S
H1656 C1677 0.950 . S
H1657 C1680 0.950 . S
H1658 C1681 0.950 . S
H1659 C1683 0.950 . S
H1660 C1684 0.950 1_545 S
H1661 C1685 0.951 . S
H1662 C1687 0.951 . S
H1663 C1689 0.951 . S
H1664 C1690 0.950 1_545 S
H1665 C1692 0.950 . S
H1666 C1695 0.950 . S
H1667 C1696 0.950 . S
H1668 C1698 0.950 . S
H1669 C1699 0.950 1_565 S
C1670 H1652 0.951 . S
C1670 C1671 1.366 . S
C1670 C1672 1.388 . S
C1671 C1670 1.366 . S
C1671 C1675 1.385 1_545 S
C1672 H1653 0.951 . S
C1672 C1670 1.388 . S
C1672 C1673 1.371 . S
C1673 C1672 1.371 . S
C1673 C1674 1.418 1_545 S
C1673 C1676 1.494 1_545 S
C1674 H1654 0.950 . S
C1674 C1673 1.418 1_565 S
C1674 C1675 1.374 . S
C1675 H1655 0.950 . S
C1675 C1671 1.385 1_565 S
C1675 C1674 1.374 . S
C1676 C1673 1.494 1_565 S
C1676 C1677 1.373 1_565 S
C1676 C1678 1.389 . S
C1677 H1656 0.950 . S
C1677 C1676 1.373 1_545 S
C1677 C1693 1.377 1_556 S
C1678 C1676 1.389 . S
C1678 C1679 1.524 . S
C1678 C1692 1.377 1_556 S
C1679 C1678 1.524 . S
C1679 C1680 1.397 . S
C1679 C1684 1.363 . S
C1680 H1657 0.950 . S
C1680 C1679 1.397 . S
C1680 C1681 1.334 . S
C1681 H1658 0.950 . S
C1681 C1680 1.334 . S
C1681 C1682 1.287 . S
C1682 C1681 1.287 . S
C1682 C1683 1.524 . S
C1682 H1701 0.913 . S
C1683 H1659 0.950 . S
C1683 C1682 1.524 . S
C1683 C1684 1.415 . S
C1684 H1660 0.950 1_565 S
C1684 C1679 1.363 . S
C1684 C1683 1.415 . S
C1685 H1661 0.951 . S
C1685 C1686 1.366 . S
C1685 C1687 1.388 . S
C1686 C1685 1.366 . S
C1686 C1690 1.385 . S
C1687 H1662 0.951 . S
C1687 C1685 1.388 . S
C1687 C1688 1.366 . S
C1688 C1687 1.366 . S
C1688 C1689 1.414 1_565 S
C1688 C1691 1.499 . S
C1689 H1663 0.951 . S
C1689 C1688 1.414 1_545 S
C1689 C1690 1.374 1_545 S
C1690 H1664 0.950 1_565 S
C1690 C1686 1.385 . S
C1690 C1689 1.374 1_565 S
C1691 C1688 1.499 . S
C1691 C1692 1.373 . S
C1691 C1693 1.389 1_565 S
C1692 H1665 0.950 . S
C1692 C1678 1.377 1_554 S
C1692 C1691 1.373 . S
C1693 C1677 1.377 1_554 S
C1693 C1691 1.389 1_545 S
C1693 C1694 1.524 . S
C1694 C1693 1.524 . S
C1694 C1695 1.397 . S
C1694 C1699 1.363 . S
C1695 H1666 0.950 . S
C1695 C1694 1.397 . S
C1695 C1696 1.334 . S
C1696 H1667 0.950 . S
C1696 C1695 1.334 . S
C1696 C1697 1.287 . S
C1697 C1696 1.287 . S
C1697 C1698 1.524 . S
C1697 H1700 0.999 . S
C1698 H1668 0.950 . S
C1698 C1697 1.524 . S
C1698 C1699 1.415 . S
C1699 H1669 0.950 1_545 S
C1699 C1694 1.363 . S
C1699 C1698 1.415 . S
H1700 C1697 0.999 . S
H1701 C1682 0.913 . S
H1702 C1720 0.951 1_455 S
H1703 C1722 0.950 1_455 S
H1704 C1724 0.950 . S
H1705 C1725 0.950 . S
H1706 C1727 0.950 . S
H1707 C1730 0.950 . S
H1708 C1731 0.950 . S
H1709 C1733 0.950 . S
H1710 C1734 0.950 . S
H1711 C1735 0.951 . S
H1712 C1737 0.951 . S
H1713 C1739 0.950 . S
H1714 C1740 0.950 . S
H1715 C1742 0.950 . S
H1716 C1745 0.950 . S
H1717 C1746 0.950 . S
H1718 C1748 0.950 . S
H1719 C1749 0.950 . S
C1720 H1702 0.951 1_655 S
C1720 C1721 1.366 . S
C1720 C1722 1.394 . S
C1721 C1720 1.366 . S
C1721 C1725 1.385 . S
C1722 H1703 0.950 1_655 S
C1722 C1720 1.394 . S
C1722 C1723 1.362 . S
C1723 C1722 1.362 . S
C1723 C1724 1.414 . S
C1723 C1726 1.499 . S
C1724 H1704 0.950 . S
C1724 C1723 1.414 . S
C1724 C1725 1.374 . S
C1725 H1705 0.950 . S
C1725 C1721 1.385 . S
C1725 C1724 1.374 . S
C1726 C1723 1.499 . S
C1726 C1727 1.373 . S
C1726 C1728 1.389 1_655 S
C1727 H1706 0.950 . S
C1727 C1726 1.373 . S
C1727 C1743 1.377 1_556 S
C1728 C1726 1.389 1_455 S
C1728 C1729 1.524 . S
C1728 C1742 1.377 1_556 S
C1729 C1728 1.524 . S
C1729 C1730 1.397 . S
C1729 C1734 1.363 . S
C1730 H1707 0.950 . S
C1730 C1729 1.397 . S
C1730 C1731 1.334 . S
C1731 H1708 0.950 . S
C1731 C1730 1.334 . S
C1731 C1732 1.287 . S
C1732 C1731 1.287 . S
C1732 C1733 1.524 . S
C1732 H1751 0.913 . S
C1733 H1709 0.950 . S
C1733 C1732 1.524 . S
C1733 C1734 1.415 . S
C1734 H1710 0.950 . S
C1734 C1729 1.363 . S
C1734 C1733 1.415 . S
C1735 H1711 0.951 . S
C1735 C1736 1.366 1_655 S
C1735 C1737 1.388 . S
C1736 C1735 1.366 1_455 S
C1736 C1740 1.385 . S
C1737 H1712 0.951 . S
C1737 C1735 1.388 . S
C1737 C1738 1.371 1_655 S
C1738 C1737 1.371 1_455 S
C1738 C1739 1.418 . S
C1738 C1741 1.494 1_455 S
C1739 H1713 0.950 . S
C1739 C1738 1.418 . S
C1739 C1740 1.374 . S
C1740 H1714 0.950 . S
C1740 C1736 1.385 . S
C1740 C1739 1.374 . S
C1741 C1738 1.494 1_655 S
C1741 C1742 1.373 1_655 S
C1741 C1743 1.389 . S
C1742 H1715 0.950 . S
C1742 C1728 1.377 1_554 S
C1742 C1741 1.373 1_455 S
C1743 C1727 1.377 1_554 S
C1743 C1741 1.389 . S
C1743 C1744 1.524 . S
C1744 C1743 1.524 . S
C1744 C1745 1.397 . S
C1744 C1749 1.363 . S
C1745 H1716 0.950 . S
C1745 C1744 1.397 . S
C1745 C1746 1.334 . S
C1746 H1717 0.950 . S
C1746 C1745 1.334 . S
C1746 C1747 1.287 . S
C1747 C1746 1.287 . S
C1747 C1748 1.524 . S
C1747 H1750 0.999 . S
C1748 H1718 0.950 . S
C1748 C1747 1.524 . S
C1748 C1749 1.415 . S
C1749 H1719 0.950 . S
C1749 C1744 1.363 . S
C1749 C1748 1.415 . S
H1750 C1747 0.999 . S
H1751 C1732 0.913 . S
H1752 C1770 0.951 . S
H1753 C1772 0.951 . S
H1754 C1774 0.950 . S
H1755 C1775 0.950 . S
H1756 C1777 0.950 . S
H1757 C1780 0.950 . S
H1758 C1781 0.950 . S
H1759 C1783 0.950 . S
H1760 C1784 0.950 . S
H1761 C1785 0.951 . S
H1762 C1787 0.951 . S
H1763 C1789 0.950 . S
H1764 C1790 0.950 . S
H1765 C1792 0.950 . S
H1766 C1795 0.950 . S
H1767 C1796 0.950 . S
H1768 C1798 0.950 . S
H1769 C1799 0.950 . S
C1770 H1752 0.951 . S
C1770 C1771 1.366 . S
C1770 C1772 1.388 . S
C1771 C1770 1.366 . S
C1771 C1775 1.385 . S
C1772 H1753 0.951 . S
C1772 C1770 1.388 . S
C1772 C1773 1.366 . S
C1773 C1772 1.366 . S
C1773 C1774 1.414 . S
C1773 C1776 1.499 . S
C1774 H1754 0.950 . S
C1774 C1773 1.414 . S
C1774 C1775 1.374 . S
C1775 H1755 0.950 . S
C1775 C1771 1.385 . S
C1775 C1774 1.374 . S
C1776 C1773 1.499 . S
C1776 C1777 1.373 . S
C1776 C1778 1.389 . S
C1777 H1756 0.950 . S
C1777 C1776 1.373 . S
C1777 C1793 1.377 . S
C1778 C1776 1.389 . S
C1778 C1779 1.524 . S
C1778 C1792 1.377 . S
C1779 C1778 1.524 . S
C1779 C1780 1.397 . S
C1779 C1784 1.363 . S
C1780 H1757 0.950 . S
C1780 C1779 1.397 . S
C1780 C1781 1.334 . S
C1781 H1758 0.950 . S
C1781 C1780 1.334 . S
C1781 C1782 1.287 . S
C1782 C1781 1.287 . S
C1782 C1783 1.524 . S
C1782 H1801 0.913 . S
C1783 H1759 0.950 . S
C1783 C1782 1.524 . S
C1783 C1784 1.415 . S
C1784 H1760 0.950 . S
C1784 C1779 1.363 . S
C1784 C1783 1.415 . S
C1785 H1761 0.951 . S
C1785 C1786 1.366 . S
C1785 C1787 1.388 . S
C1786 C1785 1.366 . S
C1786 C1790 1.385 . S
C1787 H1762 0.951 . S
C1787 C1785 1.388 . S
C1787 C1788 1.366 . S
C1788 C1787 1.366 . S
C1788 C1789 1.414 . S
C1788 C1791 1.499 . S
C1789 H1763 0.950 . S
C1789 C1788 1.414 . S
C1789 C1790 1.374 . S
C1790 H1764 0.950 . S
C1790 C1786 1.385 . S
C1790 C1789 1.374 . S
C1791 C1788 1.499 . S
C1791 C1792 1.373 . S
C1791 C1793 1.389 . S
C1792 H1765 0.950 . S
C1792 C1778 1.377 . S
C1792 C1791 1.373 . S
C1793 C1777 1.377 . S
C1793 C1791 1.389 . S
C1793 C1794 1.524 . S
C1794 C1793 1.524 . S
C1794 C1795 1.397 . S
C1794 C1799 1.363 . S
C1795 H1766 0.950 . S
C1795 C1794 1.397 . S
C1795 C1796 1.334 . S
C1796 H1767 0.950 . S
C1796 C1795 1.334 . S
C1796 C1797 1.287 . S
C1797 C1796 1.287 . S
C1797 C1798 1.524 . S
C1797 H1800 0.999 . S
C1798 H1768 0.950 . S
C1798 C1797 1.524 . S
C1798 C1799 1.415 . S
C1799 H1769 0.950 . S
C1799 C1794 1.363 . S
C1799 C1798 1.415 . S
H1800 C1797 0.999 . S
H1801 C1782 0.913 . S
H1802 C1820 0.951 . S
H1803 C1822 0.951 . S
H1804 C1824 0.950 . S
H1805 C1825 0.950 . S
H1806 C1827 0.950 . S
H1807 C1830 0.950 . S
H1808 C1831 0.950 . S
H1809 C1833 0.950 . S
H1810 C1834 0.950 . S
H1811 C1835 0.951 . S
H1812 C1837 0.951 . S
H1813 C1839 0.950 . S
H1814 C1840 0.950 . S
H1815 C1842 0.950 . S
H1816 C1845 0.950 . S
H1817 C1846 0.950 . S
H1818 C1848 0.950 . S
H1819 C1849 0.950 . S
C1820 H1802 0.951 . S
C1820 C1821 1.366 . S
C1820 C1822 1.388 . S
C1821 C1820 1.366 . S
C1821 C1825 1.385 . S
C1822 H1803 0.951 . S
C1822 C1820 1.388 . S
C1822 C1823 1.366 . S
C1823 C1822 1.366 . S
C1823 C1824 1.414 . S
C1823 C1826 1.499 . S
C1824 H1804 0.950 . S
C1824 C1823 1.414 . S
C1824 C1825 1.374 . S
C1825 H1805 0.950 . S
C1825 C1821 1.385 . S
C1825 C1824 1.374 . S
C1826 C1823 1.499 . S
C1826 C1827 1.373 . S
C1826 C1828 1.389 . S
C1827 H1806 0.950 . S
C1827 C1826 1.373 . S
C1827 C1843 1.377 . S
C1828 C1826 1.389 . S
C1828 C1829 1.524 . S
C1828 C1842 1.377 . S
C1829 C1828 1.524 . S
C1829 C1830 1.397 . S
C1829 C1834 1.363 . S
C1830 H1807 0.950 . S
C1830 C1829 1.397 . S
C1830 C1831 1.334 . S
C1831 H1808 0.950 . S
C1831 C1830 1.334 . S
C1831 C1832 1.287 . S
C1832 C1831 1.287 . S
C1832 C1833 1.524 . S
C1832 H1851 0.913 . S
C1833 H1809 0.950 . S
C1833 C1832 1.524 . S
C1833 C1834 1.415 . S
C1834 H1810 0.950 . S
C1834 C1829 1.363 . S
C1834 C1833 1.415 . S
C1835 H1811 0.951 . S
C1835 C1836 1.366 . S
C1835 C1837 1.388 . S
C1836 C1835 1.366 . S
C1836 C1840 1.385 . S
C1837 H1812 0.951 . S
C1837 C1835 1.388 . S
C1837 C1838 1.366 . S
C1838 C1837 1.366 . S
C1838 C1839 1.414 . S
C1838 C1841 1.499 . S
C1839 H1813 0.950 . S
C1839 C1838 1.414 . S
C1839 C1840 1.374 . S
C1840 H1814 0.950 . S
C1840 C1836 1.385 . S
C1840 C1839 1.374 . S
C1841 C1838 1.499 . S
C1841 C1842 1.373 . S
C1841 C1843 1.389 . S
C1842 H1815 0.950 . S
C1842 C1828 1.377 . S
C1842 C1841 1.373 . S
C1843 C1827 1.377 . S
C1843 C1841 1.389 . S
C1843 C1844 1.524 . S
C1844 C1843 1.524 . S
C1844 C1845 1.397 . S
C1844 C1849 1.363 . S
C1845 H1816 0.950 . S
C1845 C1844 1.397 . S
C1845 C1846 1.334 . S
C1846 H1817 0.950 . S
C1846 C1845 1.334 . S
C1846 C1847 1.287 . S
C1847 C1846 1.287 . S
C1847 C1848 1.524 . S
C1847 H1850 0.999 . S
C1848 H1818 0.950 . S
C1848 C1847 1.524 . S
C1848 C1849 1.415 . S
C1849 H1819 0.950 . S
C1849 C1844 1.363 . S
C1849 C1848 1.415 . S
H1850 C1847 0.999 . S
H1851 C1832 0.913 . S
H1852 C1870 0.951 . S
H1853 C1872 0.951 . S
H1854 C1874 0.950 . S
H1855 C1875 0.950 . S
H1856 C1877 0.950 . S
H1857 C1880 0.950 . S
H1858 C1881 0.950 . S
H1859 C1883 0.950 . S
H1860 C1884 0.950 . S
H1861 C1885 0.951 . S
H1862 C1887 0.951 . S
H1863 C1889 0.950 . S
H1864 C1890 0.950 . S
H1865 C1892 0.950 . S
H1866 C1895 0.950 . S
H1867 C1896 0.950 . S
H1868 C1898 0.950 . S
H1869 C1899 0.950 . S
C1870 H1852 0.951 . S
C1870 C1871 1.366 . S
C1870 C1872 1.388 . S
C1871 C1870 1.366 . S
C1871 C1875 1.385 . S
C1872 H1853 0.951 . S
C1872 C1870 1.388 . S
C1872 C1873 1.366 . S
C1873 C1872 1.366 . S
C1873 C1874 1.414 . S
C1873 C1876 1.499 . S
C1874 H1854 0.950 . S
C1874 C1873 1.414 . S
C1874 C1875 1.374 . S
C1875 H1855 0.950 . S
C1875 C1871 1.385 . S
C1875 C1874 1.374 . S
C1876 C1873 1.499 . S
C1876 C1877 1.373 . S
C1876 C1878 1.389 . S
C1877 H1856 0.950 . S
C1877 C1876 1.373 . S
C1877 C1893 1.377 . S
C1878 C1876 1.389 . S
C1878 C1879 1.524 . S
C1878 C1892 1.377 . S
C1879 C1878 1.524 . S
C1879 C1880 1.397 . S
C1879 C1884 1.363 . S
C1880 H1857 0.950 . S
C1880 C1879 1.397 . S
C1880 C1881 1.334 . S
C1881 H1858 0.950 . S
C1881 C1880 1.334 . S
C1881 C1882 1.287 . S
C1882 C1881 1.287 . S
C1882 C1883 1.524 . S
C1882 H1901 0.913 . S
C1883 H1859 0.950 . S
C1883 C1882 1.524 . S
C1883 C1884 1.415 . S
C1884 H1860 0.950 . S
C1884 C1879 1.363 . S
C1884 C1883 1.415 . S
C1885 H1861 0.951 . S
C1885 C1886 1.366 . S
C1885 C1887 1.388 . S
C1886 C1885 1.366 . S
C1886 C1890 1.385 . S
C1887 H1862 0.951 . S
C1887 C1885 1.388 . S
C1887 C1888 1.366 . S
C1888 C1887 1.366 . S
C1888 C1889 1.414 . S
C1888 C1891 1.499 . S
C1889 H1863 0.950 . S
C1889 C1888 1.414 . S
C1889 C1890 1.374 . S
C1890 H1864 0.950 . S
C1890 C1886 1.385 . S
C1890 C1889 1.374 . S
C1891 C1888 1.499 . S
C1891 C1892 1.373 . S
C1891 C1893 1.389 . S
C1892 H1865 0.950 . S
C1892 C1878 1.377 . S
C1892 C1891 1.373 . S
C1893 C1877 1.377 . S
C1893 C1891 1.389 . S
C1893 C1894 1.524 . S
C1894 C1893 1.524 . S
C1894 C1895 1.397 . S
C1894 C1899 1.363 . S
C1895 H1866 0.950 . S
C1895 C1894 1.397 . S
C1895 C1896 1.334 . S
C1896 H1867 0.950 . S
C1896 C1895 1.334 . S
C1896 C1897 1.287 . S
C1897 C1896 1.287 . S
C1897 C1898 1.524 . S
C1897 H1900 0.999 . S
C1898 H1868 0.950 . S
C1898 C1897 1.524 . S
C1898 C1899 1.415 . S
C1899 H1869 0.950 . S
C1899 C1894 1.363 . S
C1899 C1898 1.415 . S
H1900 C1897 0.999 . S
H1901 C1882 0.913 . S
H1902 C1920 0.951 . S
H1903 C1922 0.951 . S
H1904 C1924 0.950 . S
H1905 C1925 0.950 . S
H1906 C1927 0.950 . S
H1907 C1930 0.950 . S
H1908 C1931 0.950 . S
H1909 C1933 0.950 . S
H1910 C1934 0.950 . S
H1911 C1935 0.951 . S
H1912 C1937 0.951 . S
H1913 C1939 0.950 . S
H1914 C1940 0.950 . S
H1915 C1942 0.950 . S
H1916 C1945 0.950 . S
H1917 C1946 0.950 . S
H1918 C1948 0.950 . S
H1919 C1949 0.950 . S
C1920 H1902 0.951 . S
C1920 C1921 1.366 . S
C1920 C1922 1.388 . S
C1921 C1920 1.366 . S
C1921 C1925 1.385 . S
C1922 H1903 0.951 . S
C1922 C1920 1.388 . S
C1922 C1923 1.366 . S
C1923 C1922 1.366 . S
C1923 C1924 1.414 . S
C1923 C1926 1.499 . S
C1924 H1904 0.950 . S
C1924 C1923 1.414 . S
C1924 C1925 1.374 . S
C1925 H1905 0.950 . S
C1925 C1921 1.385 . S
C1925 C1924 1.374 . S
C1926 C1923 1.499 . S
C1926 C1927 1.373 . S
C1926 C1928 1.389 . S
C1927 H1906 0.950 . S
C1927 C1926 1.373 . S
C1927 C1943 1.377 . S
C1928 C1926 1.389 . S
C1928 C1929 1.524 . S
C1928 C1942 1.377 . S
C1929 C1928 1.524 . S
C1929 C1930 1.397 . S
C1929 C1934 1.363 . S
C1930 H1907 0.950 . S
C1930 C1929 1.397 . S
C1930 C1931 1.334 . S
C1931 H1908 0.950 . S
C1931 C1930 1.334 . S
C1931 C1932 1.287 . S
C1932 C1931 1.287 . S
C1932 C1933 1.524 . S
C1932 H1951 0.913 . S
C1933 H1909 0.950 . S
C1933 C1932 1.524 . S
C1933 C1934 1.415 . S
C1934 H1910 0.950 . S
C1934 C1929 1.363 . S
C1934 C1933 1.415 . S
C1935 H1911 0.951 . S
C1935 C1936 1.366 . S
C1935 C1937 1.388 . S
C1936 C1935 1.366 . S
C1936 C1940 1.385 . S
C1937 H1912 0.951 . S
C1937 C1935 1.388 . S
C1937 C1938 1.366 . S
C1938 C1937 1.366 . S
C1938 C1939 1.414 . S
C1938 C1941 1.499 . S
C1939 H1913 0.950 . S
C1939 C1938 1.414 . S
C1939 C1940 1.374 . S
C1940 H1914 0.950 . S
C1940 C1936 1.385 . S
C1940 C1939 1.374 . S
C1941 C1938 1.499 . S
C1941 C1942 1.373 . S
C1941 C1943 1.389 . S
C1942 H1915 0.950 . S
C1942 C1928 1.377 . S
C1942 C1941 1.373 . S
C1943 C1927 1.377 . S
C1943 C1941 1.389 . S
C1943 C1944 1.524 . S
C1944 C1943 1.524 . S
C1944 C1945 1.397 . S
C1944 C1949 1.363 . S
C1945 H1916 0.950 . S
C1945 C1944 1.397 . S
C1945 C1946 1.334 . S
C1946 H1917 0.950 . S
C1946 C1945 1.334 . S
C1946 C1947 1.287 . S
C1947 C1946 1.287 . S
C1947 C1948 1.524 . S
C1947 H1950 0.999 . S
C1948 H1918 0.950 . S
C1948 C1947 1.524 . S
C1948 C1949 1.415 . S
C1949 H1919 0.950 . S
C1949 C1944 1.363 . S
C1949 C1948 1.415 . S
H1950 C1947 0.999 . S
H1951 C1932 0.913 . S
H1952 C1970 0.951 . S
H1953 C1972 0.951 . S
H1954 C1974 0.950 . S
H1955 C1975 0.950 . S
H1956 C1977 0.950 . S
H1957 C1980 0.950 . S
H1958 C1981 0.950 . S
H1959 C1983 0.950 . S
H1960 C1984 0.950 . S
H1961 C1985 0.951 . S
H1962 C1987 0.951 . S
H1963 C1989 0.950 . S
H1964 C1990 0.950 . S
H1965 C1992 0.950 . S
H1966 C1995 0.950 . S
H1967 C1996 0.950 . S
H1968 C1998 0.950 . S
H1969 C1999 0.950 . S
C1970 H1952 0.951 . S
C1970 C1971 1.366 . S
C1970 C1972 1.388 . S
C1971 C1970 1.366 . S
C1971 C1975 1.385 . S
C1972 H1953 0.951 . S
C1972 C1970 1.388 . S
C1972 C1973 1.366 . S
C1973 C1972 1.366 . S
C1973 C1974 1.414 . S
C1973 C1976 1.499 . S
C1974 H1954 0.950 . S
C1974 C1973 1.414 . S
C1974 C1975 1.374 . S
C1975 H1955 0.950 . S
C1975 C1971 1.385 . S
C1975 C1974 1.374 . S
C1976 C1973 1.499 . S
C1976 C1977 1.373 . S
C1976 C1978 1.389 . S
C1977 H1956 0.950 . S
C1977 C1976 1.373 . S
C1977 C1993 1.377 . S
C1978 C1976 1.389 . S
C1978 C1979 1.524 . S
C1978 C1992 1.377 . S
C1979 C1978 1.524 . S
C1979 C1980 1.397 . S
C1979 C1984 1.363 . S
C1980 H1957 0.950 . S
C1980 C1979 1.397 . S
C1980 C1981 1.334 . S
C1981 H1958 0.950 . S
C1981 C1980 1.334 . S
C1981 C1982 1.287 . S
C1982 C1981 1.287 . S
C1982 C1983 1.524 . S
C1982 H2001 0.913 . S
C1983 H1959 0.950 . S
C1983 C1982 1.524 . S
C1983 C1984 1.415 . S
C1984 H1960 0.950 . S
C1984 C1979 1.363 . S
C1984 C1983 1.415 . S
C1985 H1961 0.951 . S
C1985 C1986 1.366 . S
C1985 C1987 1.388 . S
C1986 C1985 1.366 . S
C1986 C1990 1.385 . S
C1987 H1962 0.951 . S
C1987 C1985 1.388 . S
C1987 C1988 1.366 . S
C1988 C1987 1.366 . S
C1988 C1989 1.414 . S
C1988 C1991 1.499 . S
C1989 H1963 0.950 . S
C1989 C1988 1.414 . S
C1989 C1990 1.374 . S
C1990 H1964 0.950 . S
C1990 C1986 1.385 . S
C1990 C1989 1.374 . S
C1991 C1988 1.499 . S
C1991 C1992 1.373 . S
C1991 C1993 1.389 . S
C1992 H1965 0.950 . S
C1992 C1978 1.377 . S
C1992 C1991 1.373 . S
C1993 C1977 1.377 . S
C1993 C1991 1.389 . S
C1993 C1994 1.524 . S
C1994 C1993 1.524 . S
C1994 C1995 1.397 . S
C1994 C1999 1.363 . S
C1995 H1966 0.950 . S
C1995 C1994 1.397 . S
C1995 C1996 1.334 . S
C1996 H1967 0.950 . S
C1996 C1995 1.334 . S
C1996 C1997 1.287 . S
C1997 C1996 1.287 . S
C1997 C1998 1.524 . S
C1997 H2000 0.999 . S
C1998 H1968 0.950 . S
C1998 C1997 1.524 . S
C1998 C1999 1.415 . S
C1999 H1969 0.950 . S
C1999 C1994 1.363 . S
C1999 C1998 1.415 . S
H2000 C1997 0.999 . S
H2001 C1982 0.913 . S
H2002 C2020 0.951 . S
H2003 C2022 0.951 . S
H2004 C2024 0.950 . S
H2005 C2025 0.950 . S
H2006 C2027 0.950 . S
H2007 C2030 0.950 . S
H2008 C2031 0.950 . S
H2009 C2033 0.950 . S
H2010 C2034 0.950 . S
H2011 C2035 0.951 . S
H2012 C2037 0.951 . S
H2013 C2039 0.950 . S
H2014 C2040 0.950 . S
H2015 C2042 0.950 . S
H2016 C2045 0.950 . S
H2017 C2046 0.950 . S
H2018 C2048 0.950 . S
H2019 C2049 0.950 . S
C2020 H2002 0.951 . S
C2020 C2021 1.366 . S
C2020 C2022 1.388 . S
C2021 C2020 1.366 . S
C2021 C2025 1.385 . S
C2022 H2003 0.951 . S
C2022 C2020 1.388 . S
C2022 C2023 1.366 . S
C2023 C2022 1.366 . S
C2023 C2024 1.414 . S
C2023 C2026 1.499 . S
C2024 H2004 0.950 . S
C2024 C2023 1.414 . S
C2024 C2025 1.374 . S
C2025 H2005 0.950 . S
C2025 C2021 1.385 . S
C2025 C2024 1.374 . S
C2026 C2023 1.499 . S
C2026 C2027 1.373 . S
C2026 C2028 1.389 . S
C2027 H2006 0.950 . S
C2027 C2026 1.373 . S
C2027 C2043 1.377 . S
C2028 C2026 1.389 . S
C2028 C2029 1.524 . S
C2028 C2042 1.377 . S
C2029 C2028 1.524 . S
C2029 C2030 1.397 . S
C2029 C2034 1.363 . S
C2030 H2007 0.950 . S
C2030 C2029 1.397 . S
C2030 C2031 1.334 . S
C2031 H2008 0.950 . S
C2031 C2030 1.334 . S
C2031 C2032 1.287 . S
C2032 C2031 1.287 . S
C2032 C2033 1.524 . S
C2032 H2051 0.913 . S
C2033 H2009 0.950 . S
C2033 C2032 1.524 . S
C2033 C2034 1.415 . S
C2034 H2010 0.950 . S
C2034 C2029 1.363 . S
C2034 C2033 1.415 . S
C2035 H2011 0.951 . S
C2035 C2036 1.366 . S
C2035 C2037 1.388 . S
C2036 C2035 1.366 . S
C2036 C2040 1.385 . S
C2037 H2012 0.951 . S
C2037 C2035 1.388 . S
C2037 C2038 1.366 . S
C2038 C2037 1.366 . S
C2038 C2039 1.414 . S
C2038 C2041 1.499 . S
C2039 H2013 0.950 . S
C2039 C2038 1.414 . S
C2039 C2040 1.374 . S
C2040 H2014 0.950 . S
C2040 C2036 1.385 . S
C2040 C2039 1.374 . S
C2041 C2038 1.499 . S
C2041 C2042 1.373 . S
C2041 C2043 1.389 . S
C2042 H2015 0.950 . S
C2042 C2028 1.377 . S
C2042 C2041 1.373 . S
C2043 C2027 1.377 . S
C2043 C2041 1.389 . S
C2043 C2044 1.524 . S
C2044 C2043 1.524 . S
C2044 C2045 1.397 . S
C2044 C2049 1.363 . S
C2045 H2016 0.950 . S
C2045 C2044 1.397 . S
C2045 C2046 1.334 . S
C2046 H2017 0.950 . S
C2046 C2045 1.334 . S
C2046 C2047 1.287 . S
C2047 C2046 1.287 . S
C2047 C2048 1.524 . S
C2047 H2050 0.999 . S
C2048 H2018 0.950 . S
C2048 C2047 1.524 . S
C2048 C2049 1.415 . S
C2049 H2019 0.950 . S
C2049 C2044 1.363 . S
C2049 C2048 1.415 . S
H2050 C2047 0.999 . S
H2051 C2032 0.913 . S
C271 C146 1.004 . S
C286 C6 1.005 . S
C321 C20 1.005 . S
C336 C160 1.005 . S
C371 C132 1.005 . S
C386 C34 1.005 . S
C421 C202 1.005 . S
C436 C48 1.004 . S
C471 C62 1.005 . S
C486 C174 1.005 . S
C521 C188 1.005 . S
C536 C76 1.005 . S
C571 C90 1.004 . S
C586 C230 1.004 . S
C621 C244 1.005 . S
C636 C104 1.005 . S
C671 C118 1.005 . S
C686 C216 1.005 . S
C721 C9 1.020 . S
C736 C22 1.053 . S
C771 C23 1.022 . S
C786 C36 1.053 . S
C821 C8 1.052 . S
C836 C37 1.022 . S
C871 C78 1.053 . S
C886 C51 1.020 . S
C921 C50 1.052 . S
C936 C65 1.022 . S
C971 C79 1.021 . S
C986 C64 1.053 . S
C1021 C93 1.021 . S
C1036 C106 1.052 . S
C1071 C107 1.020 . S
C1086 C120 1.053 . S
C1121 C92 1.053 . S
C1136 C121 1.022 . S
C1171 C162 1.053 . S
C1186 C135 1.021 . S
C1221 C134 1.052 . S
C1236 C149 1.021 . S
C1271 C148 1.053 . S
C1286 C163 1.021 . S
C1321 C190 1.053 . S
C1336 C177 1.021 . S
C1371 C204 1.053 . S
C1386 C191 1.021 . S
C1421 C176 1.052 . S
C1436 C205 1.022 . S
C1471 C219 1.022 . S
C1486 C246 1.052 . S
C1521 C233 1.021 . S
C1536 C218 1.053 . S
C1571 C247 1.021 . S
C1586 C232 1.053 . S
C1621 C7 1.609 . S
C1636 C49 1.609 . S
C1671 C63 1.610 . S
C1686 C21 1.609 . S
C1721 C77 1.609 . S
C1736 C35 1.610 . S
C1771 C133 1.609 . S
C1786 C91 1.608 . S
C1821 C147 1.609 . S
C1836 C105 1.609 . S
C1871 C119 1.608 . S
C1886 C161 1.610 . S
C1921 C217 1.609 . S
C1936 C175 1.610 . S
C1971 C231 1.608 . S
C1986 C189 1.609 . S
C2021 C245 1.610 . S
C2036 C203 1.609 . S
