# Generated by pormake.
# Topology vby, (6)-cn, num edge types: 1
# Building blocks:
#     Node 0, Type 0, BuildingBlock: JUFBIX_clean_sbu_0, # of connection points: 6
#     Node 1, Type 0, BuildingBlock: JUFBIX_clean_sbu_0, # of connection points: 6
#     Node 2, Type 0, BuildingBlock: JUFBIX_clean_sbu_0, # of connection points: 6
#     Node 3, Type 0, BuildingBlock: JUFBIX_clean_sbu_0, # of connection points: 6
#     Node 4, Type 0, BuildingBlock: JUFBIX_clean_sbu_0, # of connection points: 6
#     Node 5, Type 0, BuildingBlock: JUFBIX_clean_sbu_0, # of connection points: 6
#     Node 6, Type 0, BuildingBlock: JUFBIX_clean_sbu_0, # of connection points: 6
#     Node 7, Type 0, BuildingBlock: JUFBIX_clean_sbu_0, # of connection points: 6
#     Edge 8, Type (0, 0), BuildingBlock: MIFKUJ_clean_linker_0, # of connection points: 2
#     Edge 9, Type (0, 0), BuildingBlock: MIFKUJ_clean_linker_0, # of connection points: 2
#     Edge 10, Type (0, 0), BuildingBlock: MIFKUJ_clean_linker_0, # of connection points: 2
#     Edge 11, Type (0, 0), BuildingBlock: MIFKUJ_clean_linker_0, # of connection points: 2
#     Edge 12, Type (0, 0), BuildingBlock: MIFKUJ_clean_linker_0, # of connection points: 2
#     Edge 13, Type (0, 0), BuildingBlock: MIFKUJ_clean_linker_0, # of connection points: 2
#     Edge 14, Type (0, 0), BuildingBlock: MIFKUJ_clean_linker_0, # of connection points: 2
#     Edge 15, Type (0, 0), BuildingBlock: MIFKUJ_clean_linker_0, # of connection points: 2
#     Edge 16, Type (0, 0), BuildingBlock: MIFKUJ_clean_linker_0, # of connection points: 2
#     Edge 17, Type (0, 0), BuildingBlock: MIFKUJ_clean_linker_0, # of connection points: 2
#     Edge 18, Type (0, 0), BuildingBlock: MIFKUJ_clean_linker_0, # of connection points: 2
#     Edge 19, Type (0, 0), BuildingBlock: MIFKUJ_clean_linker_0, # of connection points: 2
#     Edge 20, Type (0, 0), BuildingBlock: MIFKUJ_clean_linker_0, # of connection points: 2
#     Edge 21, Type (0, 0), BuildingBlock: MIFKUJ_clean_linker_0, # of connection points: 2
#     Edge 22, Type (0, 0), BuildingBlock: MIFKUJ_clean_linker_0, # of connection points: 2
#     Edge 23, Type (0, 0), BuildingBlock: MIFKUJ_clean_linker_0, # of connection points: 2
#     Edge 24, Type (0, 0), BuildingBlock: MIFKUJ_clean_linker_0, # of connection points: 2
#     Edge 25, Type (0, 0), BuildingBlock: MIFKUJ_clean_linker_0, # of connection points: 2
#     Edge 26, Type (0, 0), BuildingBlock: MIFKUJ_clean_linker_0, # of connection points: 2
#     Edge 27, Type (0, 0), BuildingBlock: MIFKUJ_clean_linker_0, # of connection points: 2
#     Edge 28, Type (0, 0), BuildingBlock: MIFKUJ_clean_linker_0, # of connection points: 2
#     Edge 29, Type (0, 0), BuildingBlock: MIFKUJ_clean_linker_0, # of connection points: 2
#     Edge 30, Type (0, 0), BuildingBlock: MIFKUJ_clean_linker_0, # of connection points: 2
#     Edge 31, Type (0, 0), BuildingBlock: MIFKUJ_clean_linker_0, # of connection points: 2
# Relax obj value: 0.127
# Max RMSD: 0.146
# Mean RMSD: 0.146
data_MOF--net-vby--node1-JUFBIX_clean_sbu_0--edge1-MIFKUJ_clean_linker_0
_symmetry_space_group_name_H-M    P1
_symmetry_Int_Tables_number       1
_symmetry_cell_setting            triclinic
loop_
_symmetry_equiv_pos_as_xyz
'x, y, z'
_cell_length_a     23.960845
_cell_length_b     72.767674
_cell_length_c     38.123007
_cell_angle_alpha  89.942289
_cell_angle_beta   93.472002
_cell_angle_gamma 90.024353
loop_
_atom_site_label
_atom_site_type_symbol
_atom_site_fract_x
_atom_site_fract_y
_atom_site_fract_z
_atom_type_partial_charge
Co0 Co 0.02932 0.37072 1.00793 0.0
C1 C 0.07499 0.37609 0.94325 0.0
Co2 Co 0.11501 0.38204 0.012 0.0
C3 C 0.90931 0.3677 0.01307 0.0
C4 C 0.94317 0.34567 0.98391 0.0
N5 N 0.95787 0.36091 1.00229 0.0
N6 N 0.86479 0.35733 1.00199 0.0
C7 C 0.88621 0.34342 0.9837 0.0
H8 H 0.90677 0.38015 0.0284 0.0
H9 H 0.97186 0.33704 0.97055 0.0
C10 C 0.06467 0.37677 0.07641 0.0
N11 N 0.18661 0.39178 0.01762 0.0
C12 C 0.23484 0.38509 1.00616 0.0
C13 C 0.20197 0.40661 0.03706 0.0
N14 N 0.27976 0.39509 0.01788 0.0
C15 C 0.25899 0.4087 0.03721 0.0
C16 C 0.03409 0.40895 1.00592 0.0
O17 O 0.02427 0.37105 0.05637 0.0
O18 O 0.10951 0.38204 0.06292 0.0
O19 O 0.08589 0.40558 1.00927 0.0
O20 O 0.99939 0.39563 1.00506 0.0
O21 O 0.11815 0.38202 0.96106 0.0
H22 H 0.17369 0.41502 0.05121 0.0
H23 H 0.23694 0.37291 0.99004 0.0
O24 O 0.03355 0.37045 0.95933 0.0
O25 O 0.06139 0.34609 1.01093 0.0
O26 O 0.14478 0.35847 0.0144 0.0
C27 C 0.11444 0.34423 0.01338 0.0
H28 H 0.86233 0.33276 0.9699 0.0
H29 H 0.28338 0.41899 0.05176 0.0
Co30 Co 0.89162 0.6313 0.01972 0.0
C31 C 0.95035 0.63654 0.9586 0.0
Co32 Co 0.97823 0.64136 0.02923 0.0
C33 C 0.7708 0.62933 0.02073 0.0
C34 C 0.80478 0.60801 0.98983 0.0
N35 N 0.81956 0.62252 1.01032 0.0
N36 N 0.72623 0.61963 1.00754 0.0
C37 C 0.74758 0.60616 0.98818 0.0
H38 H 0.7681 0.64121 0.03761 0.0
H39 H 0.83372 0.59949 0.97641 0.0
C40 C 0.92334 0.63573 0.09053 0.0
N41 N 0.0501 0.65017 0.0385 0.0
C42 C 0.09856 0.64345 0.02751 0.0
C43 C 0.06515 0.66469 0.0589 0.0
N44 N 0.14327 0.65324 0.04019 0.0
C45 C 0.12232 0.66664 0.05992 0.0
C46 C 0.89698 0.66909 0.02088 0.0
O47 O 0.88219 0.63068 0.06998 0.0
O48 O 0.9681 0.64111 0.07774 0.0
O49 O 0.94946 0.66641 0.02609 0.0
O50 O 0.86484 0.65532 0.01723 0.0
O51 O 0.98913 0.64143 0.98077 0.0
H52 H 0.03644 0.67315 0.0726 0.0
H53 H 0.10091 0.63164 1.01042 0.0
O54 O 0.90311 0.63185 0.96957 0.0
O55 O 0.91783 0.60732 0.02259 0.0
O56 O 1.00494 0.61612 0.03228 0.0
C57 C 0.96881 0.60328 0.02873 0.0
H58 H 0.72352 0.596 0.97305 0.0
H59 H 0.14664 0.67683 0.07479 0.0
Co60 Co 0.12092 0.6324 0.52784 0.0
C61 C 0.06859 0.63891 0.59066 0.0
Co62 Co 0.03523 0.64354 0.52044 0.0
C63 C 0.24114 0.62987 0.52341 0.0
C64 C 0.20864 0.6083 0.55447 0.0
N65 N 0.19297 0.62307 0.53485 0.0
N66 N 0.28613 0.61994 0.53513 0.0
C67 C 0.26572 0.6063 0.55455 0.0
H68 H 0.2432 0.64198 0.50702 0.0
H69 H 0.18053 0.59978 0.56855 0.0
C70 C 0.08386 0.63708 0.45744 0.0
N71 N 0.9634 0.65293 0.51346 0.0
C72 C 0.91483 0.6458 0.5236 0.0
C73 C 0.94845 0.66827 0.49536 0.0
N74 N 0.87021 0.6561 0.51254 0.0
C75 C 0.89135 0.67028 0.49485 0.0
C76 C 0.11912 0.67042 0.52566 0.0
O77 O 0.12515 0.63101 0.47686 0.0
O78 O 0.04148 0.64337 0.47172 0.0
O79 O 0.06619 0.66832 0.52267 0.0
O80 O 0.14995 0.65629 0.52793 0.0
O81 O 0.02848 0.64376 0.56938 0.0
H82 H 0.97712 0.67721 0.48265 0.0
H83 H 0.91229 0.63327 0.53874 0.0
O84 O 0.11447 0.63376 0.57839 0.0
O85 O 0.09237 0.60865 0.52806 0.0
O86 O 1.00631 0.61842 0.51827 0.0
C87 C 0.04074 0.60519 0.52344 0.0
H88 H 0.29046 0.596 0.56887 0.0
H89 H 0.86715 0.68103 0.48149 0.0
Co90 Co 0.98242 0.37207 0.51432 0.0
C91 C 0.93172 0.38184 0.5748 0.0
Co92 Co 0.896 0.38214 0.50407 0.0
C93 C 0.10291 0.36952 0.51227 0.0
C94 C 0.06924 0.34949 0.54629 0.0
N95 N 0.05433 0.36329 0.52406 0.0
N96 N 0.14759 0.36015 0.52633 0.0
C97 C 0.12638 0.3475 0.54769 0.0
H98 H 0.10536 0.38075 0.49381 0.0
H99 H 0.04048 0.34162 0.56116 0.0
C100 C 0.95146 0.3732 0.44365 0.0
N101 N 0.82396 0.39085 0.49438 0.0
C102 C 0.77591 0.38497 0.50743 0.0
C103 C 0.80817 0.40406 0.47101 0.0
N104 N 0.73076 0.39397 0.49308 0.0
C105 C 0.75104 0.40604 0.47024 0.0
C106 C 0.97492 0.40994 0.50489 0.0
O107 O 0.99078 0.3692 0.46612 0.0
O108 O 0.90485 0.37871 0.45429 0.0
O109 O 0.9235 0.40602 0.50065 0.0
O110 O 1.01017 0.39713 0.51182 0.0
O111 O 0.88932 0.38572 0.55425 0.0
H112 H 0.8363 0.41149 0.45497 0.0
H113 H 0.77414 0.37419 0.52693 0.0
O114 O 0.97514 0.37527 0.56227 0.0
O115 O 0.95242 0.34712 0.5168 0.0
O116 O 0.86805 0.35825 0.50731 0.0
C117 C 0.89971 0.34451 0.51302 0.0
H118 H 0.15048 0.33786 0.56407 0.0
H119 H 0.72624 0.41523 0.45327 0.0
Co120 Co 0.54139 0.87323 0.02012 0.0
C121 C 0.59401 0.88255 0.95981 0.0
Co122 Co 0.62766 0.88344 0.03087 0.0
C123 C 0.42082 0.8703 0.02183 0.0
C124 C 0.45515 0.85089 0.98693 0.0
N125 N 0.46964 0.86438 1.00992 0.0
N126 N 0.37636 0.86105 1.00712 0.0
C127 C 0.39803 0.8488 0.98517 0.0
H128 H 0.41811 0.88126 0.04081 0.0
H129 H 0.4842 0.84334 0.97177 0.0
C130 C 0.57115 0.8748 0.0911 0.0
N131 N 0.69967 0.89214 0.04089 0.0
C132 C 0.74769 0.88635 0.02771 0.0
C133 C 0.71556 0.90509 0.06471 0.0
N134 N 0.79301 0.89511 0.04246 0.0
C135 C 0.77275 0.90697 0.06569 0.0
C136 C 0.54863 0.91106 0.02904 0.0
O137 O 0.53198 0.8707 0.06855 0.0
O138 O 0.61793 0.8802 0.08053 0.0
O139 O 0.60007 0.90723 0.03368 0.0
O140 O 0.51359 0.89821 0.02181 0.0
O141 O 0.63544 0.88677 0.98084 0.0
H142 H 0.68745 0.91238 0.08095 0.0
H143 H 0.74928 0.87577 1.00787 0.0
O144 O 0.55001 0.87608 0.97187 0.0
O145 O 0.5714 0.84834 0.01861 0.0
O146 O 0.65556 0.85965 0.02832 0.0
C147 C 0.6241 0.84585 0.02281 0.0
H148 H 0.37429 0.83939 0.96812 0.0
H149 H 0.79756 0.91593 0.08309 0.0
Co150 Co 0.40092 0.13266 1.00813 0.0
C151 C 0.45571 0.14094 0.94683 0.0
Co152 Co 0.48674 0.14363 0.01699 0.0
C153 C 0.28004 0.12973 1.01039 0.0
C154 C 0.31421 0.10999 0.97609 0.0
N155 N 0.32892 0.12357 0.99884 0.0
N156 N 0.23541 0.12064 0.99545 0.0
C157 C 0.25703 0.10813 0.97401 0.0
H158 H 0.27721 0.14115 0.02835 0.0
H159 H 0.34314 0.10223 0.9612 0.0
C160 C 0.43591 0.1353 0.07853 0.0
N161 N 0.55853 0.15279 0.02627 0.0
C162 C 0.60769 0.1462 0.01597 0.0
C163 C 0.57269 0.16705 0.04754 0.0
N164 N 0.65198 0.1557 0.03028 0.0
C165 C 0.6299 0.16888 0.05003 0.0
C166 C 0.40319 0.17048 0.01422 0.0
O167 O 0.39478 0.12969 0.0585 0.0
O168 O 0.47848 0.14199 0.06509 0.0
O169 O 0.45612 0.16836 0.01686 0.0
O170 O 0.37222 0.15643 1.01042 0.0
O171 O 0.49544 0.14526 0.96877 0.0
H172 H 0.54333 0.17534 0.06108 0.0
H173 H 0.61096 0.13427 0.9993 0.0
O174 O 0.40937 0.13557 0.95814 0.0
O175 O 0.42928 0.10904 1.00572 0.0
O176 O 0.5153 0.1186 0.017 0.0
C177 C 0.48087 0.10551 1.01034 0.0
H178 H 0.2333 0.0984 0.95766 0.0
H179 H 0.65335 0.17907 0.06542 0.0
Co180 Co 0.61918 0.13042 0.51636 0.0
C181 C 0.56912 0.13606 0.58065 0.0
Co182 Co 0.53372 0.14204 0.51223 0.0
C183 C 0.73923 0.12753 0.51126 0.0
C184 C 0.70594 0.10562 0.5411 0.0
N185 N 0.6908 0.12065 0.52214 0.0
N186 N 0.78404 0.11744 0.52286 0.0
C187 C 0.76302 0.10358 0.54151 0.0
H188 H 0.74157 0.13988 0.49559 0.0
H189 H 0.67749 0.09701 0.55476 0.0
C190 C 0.57926 0.13621 0.44764 0.0
N191 N 0.4622 0.15185 0.50647 0.0
C192 C 0.41366 0.14498 0.5172 0.0
C193 C 0.44737 0.1671 0.48808 0.0
N194 N 0.36905 0.1553 0.50608 0.0
C195 C 0.39036 0.16927 0.48784 0.0
C196 C 0.61899 0.16851 0.51735 0.0
O197 O 0.62236 0.13031 0.46554 0.0
O198 O 0.53787 0.14201 0.46358 0.0
O199 O 0.56596 0.16663 0.51461 0.0
O200 O 0.6493 0.15424 0.51861 0.0
O201 O 0.52888 0.14194 0.56066 0.0
H202 H 0.476 0.17579 0.47475 0.0
H203 H 0.41115 0.13253 0.53255 0.0
O204 O 0.61368 0.13054 0.56719 0.0
O205 O 0.58944 0.10666 0.51382 0.0
O206 O 0.50351 0.11722 0.51009 0.0
C207 C 0.53734 0.10369 0.51105 0.0
H208 H 0.78727 0.09313 0.55574 0.0
H209 H 0.36635 0.17993 0.47407 0.0
Co210 Co 0.49419 0.87075 0.5287 0.0
C211 C 0.44531 0.87564 0.59241 0.0
Co212 Co 0.40889 0.88248 0.52305 0.0
C213 C 0.61433 0.86805 0.52457 0.0
C214 C 0.58061 0.84558 0.55271 0.0
N215 N 0.56577 0.86101 0.53493 0.0
N216 N 0.65893 0.85764 0.53527 0.0
C217 C 0.63767 0.84345 0.5529 0.0
H218 H 0.61685 0.88065 0.50963 0.0
H219 H 0.55191 0.83666 0.56548 0.0
C220 C 0.46164 0.87753 0.45954 0.0
N221 N 0.33722 0.89219 0.51666 0.0
C222 C 0.28854 0.88514 0.52679 0.0
C223 C 0.32242 0.90747 0.49835 0.0
N224 N 0.24393 0.89538 0.51542 0.0
C225 C 0.26529 0.90949 0.49764 0.0
C226 C 0.49031 0.90911 0.53149 0.0
O227 O 0.50087 0.87143 0.48014 0.0
O228 O 0.41658 0.88306 0.4724 0.0
O229 O 0.43827 0.90621 0.52733 0.0
O230 O 0.52408 0.89556 0.53252 0.0
O231 O 0.40346 0.88185 0.57371 0.0
H232 H 0.35119 0.91631 0.48546 0.0
H233 H 0.28588 0.87259 0.54187 0.0
O234 O 0.48797 0.87007 0.5774 0.0
O235 O 0.46232 0.84619 0.52475 0.0
O236 O 0.37914 0.85867 0.5191 0.0
C237 C 0.40936 0.84438 0.52067 0.0
H238 H 0.66175 0.83262 0.5661 0.0
H239 H 0.24125 0.92016 0.48389 0.0
H240 H 0.32692 0.36198 1.00472 0.0
H241 H 0.42634 0.35542 1.00102 0.0
H242 H 0.46498 0.41266 0.01909 0.0
H243 H 0.36556 0.41945 0.02144 0.0
H244 H 0.52681 0.39899 0.96943 0.0
H245 H 0.48037 0.38063 0.08565 0.0
H246 H 0.42684 0.36376 0.1286 0.0
H247 H 0.47574 0.31245 0.08416 0.0
H248 H 0.52902 0.32904 0.04065 0.0
H249 H 0.81622 0.39033 0.01427 0.0
H250 H 0.71659 0.39652 0.01772 0.0
H251 H 0.68019 0.33902 1.00112 0.0
H252 H 0.77985 0.33259 0.99913 0.0
H253 H 0.61697 0.35254 0.04961 0.0
H254 H 0.66356 0.37052 0.93376 0.0
H255 H 0.71653 0.38709 0.89014 0.0
H256 H 0.6668 0.43871 0.93293 0.0
H257 H 0.61411 0.42242 0.97713 0.0
C258 C 0.35637 0.37324 1.00735 0.0
C259 C 0.33809 0.39126 0.01363 0.0
C260 C 0.41335 0.36942 1.00562 0.0
C261 C 0.45324 0.38349 1.0104 0.0
C262 C 0.43503 0.40155 0.01555 0.0
C263 C 0.37812 0.40539 0.01719 0.0
C264 C 0.51403 0.37942 1.0106 0.0
C265 C 0.54664 0.389 0.98726 0.0
C266 C 0.53975 0.36608 0.03331 0.0
C267 C 0.50824 0.35608 0.05969 0.0
C268 C 0.47941 0.36576 0.0849 0.0
C269 C 0.44916 0.35624 0.10936 0.0
C270 C 0.44778 0.33705 0.10905 0.0
C271 C 0.4768 0.32732 0.08435 0.0
C272 C 0.50708 0.33677 0.0598 0.0
C273 C 0.78725 0.37894 0.0119 0.0
C274 C 0.80627 0.36096 1.0061 0.0
C275 C 0.73012 0.38254 0.01349 0.0
C276 C 0.69076 0.36829 1.00901 0.0
C277 C 0.7097 0.35026 1.00439 0.0
C278 C 0.76677 0.34664 1.00294 0.0
C279 C 0.62981 0.37216 1.00852 0.0
C280 C 0.59716 0.36254 0.03178 0.0
C281 C 0.60401 0.38542 0.98566 0.0
C282 C 0.63534 0.39525 0.95896 0.0
C283 C 0.66424 0.3854 0.93402 0.0
C284 C 0.69417 0.39474 0.90917 0.0
C285 C 0.69515 0.41394 0.90882 0.0
C286 C 0.66606 0.42384 0.93326 0.0
C287 C 0.63612 0.41456 0.95819 0.0
H288 H 0.71835 0.42115 0.88956 0.0
H289 H 0.42431 0.32971 0.128 0.0
H290 H 0.22635 0.6784 0.03942 0.0
H291 H 0.32563 0.67251 0.03281 0.0
H292 H 0.29153 0.61451 0.02228 0.0
H293 H 0.19213 0.6203 0.02936 0.0
H294 H 0.3815 0.62168 0.06852 0.0
H295 H 0.31854 0.63842 0.95173 0.0
H296 H 0.2707 0.65767 0.90599 0.0
H297 H 0.383 0.70223 0.93236 0.0
H298 H 0.43098 0.68332 0.97874 0.0
H299 H 0.64242 0.59469 1.00672 0.0
H300 H 0.54295 0.60078 0.01171 0.0
H301 H 0.57772 0.65869 0.02319 0.0
H302 H 0.67747 0.6527 0.01761 0.0
H303 H 0.48732 0.65159 0.97613 0.0
H304 H 0.54974 0.63432 0.09359 0.0
H305 H 0.59639 0.61461 0.13912 0.0
H306 H 0.48401 0.57041 0.1104 0.0
H307 H 0.43717 0.58977 0.06433 0.0
C308 C 0.24 0.66439 0.03579 0.0
C309 C 0.2014 0.64981 0.03493 0.0
C310 C 0.29666 0.66106 0.03176 0.0
C311 C 0.31588 0.64309 0.02684 0.0
C312 C 0.27751 0.62849 0.02597 0.0
C313 C 0.22071 0.63183 0.02974 0.0
C314 C 0.37623 0.63953 0.02336 0.0
C315 C 0.4045 0.62801 0.04803 0.0
C316 C 0.40637 0.64812 0.99706 0.0
C317 C 0.378 0.65951 0.96898 0.0
C318 C 0.33276 0.65237 0.948 0.0
C319 C 0.30565 0.66322 0.92191 0.0
C320 C 0.32369 0.68118 0.91633 0.0
C321 C 0.36901 0.68832 0.93676 0.0
C322 C 0.39621 0.67754 0.96294 0.0
C323 C 0.62892 0.60873 1.01016 0.0
C324 C 0.66786 0.62321 0.01181 0.0
C325 C 0.57209 0.61217 0.01324 0.0
C326 C 0.55299 0.63017 0.01805 0.0
C327 C 0.59164 0.64469 0.01956 0.0
C328 C 0.64864 0.64124 0.0167 0.0
C329 C 0.49258 0.63376 0.02134 0.0
C330 C 0.46431 0.64528 0.99663 0.0
C331 C 0.46233 0.6251 0.04751 0.0
C332 C 0.4903 0.61344 0.07528 0.0
C333 C 0.53527 0.62034 0.09678 0.0
C334 C 0.56169 0.60925 0.12273 0.0
C335 C 0.54327 0.59125 0.12759 0.0
C336 C 0.49828 0.58434 0.10658 0.0
C337 C 0.47175 0.59538 0.08056 0.0
H338 H 0.56378 0.58268 0.14769 0.0
H339 H 0.30262 0.68956 0.89612 0.0
H340 H 0.78664 0.68093 0.51581 0.0
H341 H 0.68706 0.67456 0.51975 0.0
H342 H 0.72149 0.61639 0.52295 0.0
H343 H 0.82122 0.62269 0.51836 0.0
H344 H 0.63353 0.62476 0.47662 0.0
H345 H 0.68998 0.63818 0.59633 0.0
H346 H 0.734 0.65618 0.6453 0.0
H347 H 0.6219 0.70102 0.62068 0.0
H348 H 0.57769 0.68338 0.5712 0.0
H349 H 0.36984 0.59516 0.53244 0.0
H350 H 0.46932 0.6016 0.52778 0.0
H351 H 0.43399 0.65968 0.52233 0.0
H352 H 0.33434 0.65331 0.5274 0.0
H353 H 0.52227 0.65141 0.56969 0.0
H354 H 0.46562 0.63774 0.44998 0.0
H355 H 0.42169 0.61956 0.40124 0.0
H356 H 0.53431 0.57491 0.42625 0.0
H357 H 0.57842 0.59273 0.4755 0.0
C358 C 0.77303 0.66679 0.51729 0.0
C359 C 0.81188 0.65232 0.51676 0.0
C360 C 0.71614 0.66317 0.51981 0.0
C361 C 0.69686 0.64501 0.52187 0.0
C362 C 0.73549 0.63052 0.52146 0.0
C363 C 0.79252 0.63414 0.51914 0.0
C364 C 0.63622 0.64118 0.52366 0.0
C365 C 0.60934 0.63035 0.49726 0.0
C366 C 0.60442 0.64887 0.5501 0.0
C367 C 0.63091 0.65953 0.57983 0.0
C368 C 0.67503 0.65194 0.60115 0.0
C369 C 0.69996 0.66207 0.62904 0.0
C370 C 0.68086 0.67975 0.63604 0.0
C371 C 0.6367 0.68733 0.6152 0.0
C372 C 0.61166 0.67727 0.58724 0.0
C373 C 0.38326 0.6093 0.53023 0.0
C374 C 0.34424 0.62372 0.53028 0.0
C375 C 0.44005 0.61295 0.52734 0.0
C376 C 0.45903 0.63111 0.52452 0.0
C377 C 0.42019 0.64556 0.5244 0.0
C378 C 0.36325 0.6419 0.527 0.0
C379 C 0.51961 0.63499 0.52265 0.0
C380 C 0.54646 0.64582 0.54905 0.0
C381 C 0.5514 0.62727 0.49625 0.0
C382 C 0.52494 0.61651 0.46667 0.0
C383 C 0.48069 0.62398 0.4453 0.0
C384 C 0.45582 0.61375 0.41754 0.0
C385 C 0.47509 0.59607 0.41071 0.0
C386 C 0.51937 0.5886 0.4316 0.0
C387 C 0.54435 0.59876 0.45943 0.0
H388 H 0.4558 0.58818 0.38919 0.0
H389 H 0.7002 0.68756 0.65765 0.0
H390 H 0.64586 0.41851 0.48672 0.0
H391 H 0.5467 0.41253 0.49331 0.0
H392 H 0.58444 0.35605 0.5197 0.0
H393 H 0.68369 0.36185 0.51235 0.0
H394 H 0.4968 0.35881 0.47134 0.0
H395 H 0.55081 0.38581 0.58272 0.0
H396 H 0.59295 0.40917 0.62296 0.0
H397 H 0.47805 0.44967 0.57965 0.0
H398 H 0.43571 0.4266 0.53877 0.0
H399 H 0.23225 0.33547 0.53291 0.0
H400 H 0.33164 0.34138 0.52759 0.0
H401 H 0.29536 0.3981 0.50248 0.0
H402 H 0.19582 0.3924 0.5088 0.0
H403 H 0.3825 0.3951 0.55056 0.0
H404 H 0.32894 0.36812 0.43889 0.0
H405 H 0.28691 0.34475 0.39862 0.0
H406 H 0.4011 0.30419 0.44248 0.0
H407 H 0.44333 0.32727 0.48338 0.0
C408 C 0.63308 0.40481 0.49387 0.0
C409 C 0.67272 0.39066 0.49898 0.0
C410 C 0.57643 0.40145 0.49792 0.0
C411 C 0.5582 0.38387 0.50725 0.0
C412 C 0.59763 0.36973 0.51257 0.0
C413 C 0.6544 0.3731 0.50866 0.0
C414 C 0.49777 0.38017 0.51042 0.0
C415 C 0.47195 0.36655 0.48905 0.0
C416 C 0.46511 0.39061 0.53286 0.0
C417 C 0.49045 0.40451 0.55743 0.0
C418 C 0.53484 0.39973 0.58156 0.0
C419 C 0.5587 0.41292 0.60453 0.0
C420 C 0.53829 0.4309 0.6038 0.0
C421 C 0.49387 0.43574 0.58015 0.0
C422 C 0.46989 0.42261 0.55709 0.0
C423 C 0.24534 0.34922 0.52639 0.0
C424 C 0.20596 0.36346 0.52132 0.0
C425 C 0.30219 0.35254 0.52305 0.0
C426 C 0.32093 0.37015 0.51434 0.0
C427 C 0.2818 0.3844 0.50913 0.0
C428 C 0.22484 0.38108 0.51243 0.0
C429 C 0.38149 0.37375 0.51144 0.0
C430 C 0.40734 0.38735 0.53286 0.0
C431 C 0.41419 0.36329 0.48903 0.0
C432 C 0.38893 0.34939 0.46443 0.0
C433 C 0.34479 0.35418 0.44015 0.0
C434 C 0.32098 0.341 0.41717 0.0
C435 C 0.34122 0.32299 0.41806 0.0
C436 C 0.38542 0.31814 0.44186 0.0
C437 C 0.40934 0.33127 0.46492 0.0
H438 H 0.32274 0.3128 0.40024 0.0
H439 H 0.55681 0.44109 0.62161 0.0
H440 H 0.83904 0.86355 0.01928 0.0
H441 H 0.93799 0.85764 0.01186 0.0
H442 H 0.97834 0.91282 0.04593 0.0
H443 H 0.8793 0.91904 0.05226 0.0
H444 H 0.03673 0.90335 0.99067 0.0
H445 H 0.99731 0.87623 0.10197 0.0
H446 H 0.94622 0.85609 0.14107 0.0
H447 H 0.99142 0.80889 0.08153 0.0
H448 H 0.04223 0.82878 0.0418 0.0
H449 H 0.32776 0.89261 0.02824 0.0
H450 H 0.22819 0.89805 0.03414 0.0
H451 H 0.19184 0.8423 1.00193 0.0
H452 H 0.29146 0.83655 0.9972 0.0
H453 H 0.13093 0.85166 0.05527 0.0
H454 H 0.17109 0.87813 0.94455 0.0
H455 H 0.22134 0.89788 0.90436 0.0
H456 H 0.17388 0.94577 0.96115 0.0
H457 H 0.12398 0.92627 1.00201 0.0
C458 C 0.86877 0.87453 0.02472 0.0
C459 C 0.8511 0.89176 0.03657 0.0
C460 C 0.92548 0.87106 0.02081 0.0
C461 C 0.96572 0.8847 0.02885 0.0
C462 C 0.94809 0.90205 0.03975 0.0
C463 C 0.89145 0.90554 0.04364 0.0
C464 C 0.02629 0.88086 0.02645 0.0
C465 C 0.05749 0.89219 1.00514 0.0
C466 C 0.05312 0.86601 0.04464 0.0
C467 C 0.02313 0.85401 0.06873 0.0
C468 C 0.99605 0.86157 0.09709 0.0
C469 C 0.9672 0.8502 0.11938 0.0
C470 C 0.96546 0.83123 0.11374 0.0
C471 C 0.99275 0.82359 0.08585 0.0
C472 C 0.02163 0.8349 0.06346 0.0
C473 C 0.29878 0.88142 0.02286 0.0
C474 C 0.31779 0.86416 0.01202 0.0
C475 C 0.2417 0.88462 0.02589 0.0
C476 C 0.20239 0.87067 0.01793 0.0
C477 C 0.22132 0.85331 1.00801 0.0
C478 C 0.27834 0.85009 1.00502 0.0
C479 C 0.1415 0.87421 0.01963 0.0
C480 C 0.11022 0.86282 0.04079 0.0
C481 C 0.11453 0.88894 1.00117 0.0
C482 C 0.14427 0.90072 0.97655 0.0
C483 C 0.17173 0.89286 0.94863 0.0
C484 C 0.20009 0.90401 0.92571 0.0
C485 C 0.20093 0.92306 0.93026 0.0
C486 C 0.17327 0.931 0.95769 0.0
C487 C 0.1449 0.91991 0.98073 0.0
H488 H 0.22291 0.93167 0.91248 0.0
H489 H 0.94307 0.82245 0.13102 0.0
H490 H 0.18876 0.13622 0.05151 0.0
H491 H 0.08948 0.14246 0.05778 0.0
H492 H 0.04969 0.11929 0.95522 0.0
H493 H 0.14861 0.11357 0.94831 0.0
H494 H 0.99313 0.15046 0.9633 0.0
H495 H 0.02713 0.09512 0.03 0.0
H496 H 0.07493 0.07555 0.07531 0.0
H497 H 0.02973 0.11311 0.15562 0.0
H498 H 0.98228 0.13305 0.1107 0.0
H499 H 0.6997 0.13951 0.97532 0.0
H500 H 0.79932 0.13346 0.96984 0.0
H501 H 0.83705 0.15767 0.07175 0.0
H502 H 0.7377 0.16332 0.07776 0.0
H503 H 0.89474 0.12622 0.06442 0.0
H504 H 0.86021 0.18144 0.99767 0.0
H505 H 0.81214 0.20093 0.95233 0.0
H506 H 0.8582 0.16348 0.87205 0.0
H507 H 0.90593 0.14363 0.917 0.0
C508 C 0.15896 0.13257 0.0302 0.0
C509 C 0.17685 0.12427 0.9995 0.0
C510 C 0.10212 0.136 0.03394 0.0
C511 C 0.06199 0.13115 1.00712 0.0
C512 C 0.0798 0.12309 0.97632 0.0
C513 C 0.13648 0.11965 0.97257 0.0
C514 C 1.00142 0.13449 1.01095 0.0
C515 C 0.97148 0.14496 0.98519 0.0
C516 C 0.97333 0.12766 0.03988 0.0
C517 C 1.00167 0.11567 0.06695 0.0
C518 C 0.02777 0.09928 0.05729 0.0
C519 C 0.05473 0.08811 0.08291 0.0
C520 C 0.05551 0.09311 0.11831 0.0
C521 C 0.02918 0.10927 0.12818 0.0
C522 C 1.00221 0.12051 0.10266 0.0
C523 C 0.72914 0.14342 0.99666 0.0
C524 C 0.71063 0.15202 0.02688 0.0
C525 C 0.78614 0.14009 0.99338 0.0
C526 C 0.82576 0.14529 0.02024 0.0
C527 C 0.80731 0.15359 0.05064 0.0
C528 C 0.75045 0.15698 0.05388 0.0
C529 C 0.88647 0.14213 0.01672 0.0
C530 C 0.91642 0.13171 0.04254 0.0
C531 C 0.91457 0.149 0.98783 0.0
C532 C 0.88615 0.16095 0.96074 0.0
C533 C 0.85971 0.17729 0.97038 0.0
C534 C 0.83259 0.18841 0.94475 0.0
C535 C 0.83198 0.18342 0.90934 0.0
C536 C 0.85864 0.16732 0.89949 0.0
C537 C 0.88577 0.15613 0.92503 0.0
H538 H 0.81096 0.19205 0.88954 0.0
H539 H 0.0764 0.08444 0.13811 0.0
H540 H 0.28409 0.17999 0.50421 0.0
H541 H 0.1846 0.17351 0.50715 0.0
H542 H 0.22104 0.11584 0.52113 0.0
H543 H 0.32062 0.12213 0.51694 0.0
H544 H 0.13612 0.12082 0.47322 0.0
H545 H 0.18345 0.14277 0.58986 0.0
H546 H 0.22261 0.16443 0.63456 0.0
H547 H 0.10858 0.20621 0.59542 0.0
H548 H 0.06923 0.18487 0.55015 0.0
H549 H 0.86965 0.09304 0.52516 0.0
H550 H 0.969 0.0998 0.5223 0.0
H551 H 0.93101 0.15736 0.50802 0.0
H552 H 0.83153 0.15077 0.51209 0.0
H553 H 0.01651 0.15262 0.55586 0.0
H554 H 0.96904 0.13077 0.43938 0.0
H555 H 0.92971 0.10918 0.39459 0.0
H556 H 0.04391 0.06735 0.43326 0.0
H557 H 0.08343 0.08861 0.47862 0.0
C558 C 0.27106 0.16591 0.50779 0.0
C559 C 0.31058 0.15158 0.51024 0.0
C560 C 0.21409 0.16225 0.50982 0.0
C561 C 0.19529 0.1442 0.51468 0.0
C562 C 0.23457 0.12988 0.51746 0.0
C563 C 0.29162 0.13353 0.51539 0.0
C564 C 0.13453 0.14023 0.51576 0.0
C565 C 0.11013 0.12757 0.49165 0.0
C566 C 0.10025 0.14942 0.53914 0.0
C567 C 0.12376 0.16227 0.5664 0.0
C568 C 0.16702 0.15662 0.5906 0.0
C569 C 0.1892 0.16884 0.61607 0.0
C570 C 0.1682 0.1867 0.61777 0.0
C571 C 0.12486 0.19238 0.59405 0.0
C572 C 0.10256 0.18022 0.5685 0.0
C573 C 0.88232 0.10715 0.52152 0.0
C574 C 0.84243 0.12134 0.51888 0.0
C575 C 0.9392 0.11098 0.51955 0.0
C576 C 0.95751 0.12907 0.51461 0.0
C577 C 0.91785 0.14328 0.51175 0.0
C578 C 0.86088 0.13946 0.51373 0.0
C579 C 0.01815 0.13319 0.51337 0.0
C580 C 0.04251 0.14587 0.53743 0.0
C581 C 0.0524 0.12404 0.48994 0.0
C582 C 0.02884 0.11124 0.46261 0.0
C583 C 0.98547 0.11692 0.43851 0.0
C584 C 0.9632 0.10475 0.41298 0.0
C585 C 0.9842 0.08689 0.41113 0.0
C586 C 0.02764 0.08118 0.43475 0.0
C587 C 0.05003 0.09329 0.46035 0.0
H588 H 0.9669 0.07749 0.39135 0.0
H589 H 0.18542 0.19614 0.63751 0.0
H590 H 0.74307 0.83282 0.53374 0.0
H591 H 0.8426 0.8392 0.52999 0.0
H592 H 0.80752 0.89726 0.52331 0.0
H593 H 0.70778 0.89097 0.52707 0.0
H594 H 0.88344 0.88756 0.47762 0.0
H595 H 0.85882 0.8777 0.60033 0.0
H596 H 0.82837 0.86078 0.6519 0.0
H597 H 0.93587 0.81577 0.62862 0.0
H598 H 0.96639 0.83232 0.57659 0.0
H599 H 0.15903 0.91995 0.51577 0.0
H600 H 0.0595 0.91329 0.51862 0.0
H601 H 0.096 0.85533 0.526 0.0
H602 H 0.19575 0.86191 0.52317 0.0
H603 H 0.0194 0.86479 0.57104 0.0
H604 H 0.04458 0.87466 0.44861 0.0
H605 H 0.07498 0.89148 0.39692 0.0
H606 H 0.96651 0.93635 0.41947 0.0
H607 H 0.93603 0.9199 0.47161 0.0
C608 C 0.75648 0.84695 0.53162 0.0
C609 C 0.71735 0.86138 0.531 0.0
C610 C 0.81345 0.85058 0.52945 0.0
C611 C 0.83271 0.86874 0.52695 0.0
C612 C 0.79367 0.88315 0.52529 0.0
C613 C 0.73658 0.87952 0.52734 0.0
C614 C 0.89359 0.87269 0.52645 0.0
C615 C 0.91307 0.88279 0.49829 0.0
C616 C 0.93251 0.8661 0.55299 0.0
C617 C 0.91448 0.85618 0.58438 0.0
C618 C 0.87566 0.86414 0.60606 0.0
C619 C 0.85843 0.85462 0.6354 0.0
C620 C 0.88007 0.8372 0.64348 0.0
C621 C 0.91909 0.82927 0.6223 0.0
C622 C 0.9364 0.83871 0.5929 0.0
C623 C 0.14592 0.90578 0.51784 0.0
C624 C 0.18545 0.89147 0.51902 0.0
C625 C 0.08894 0.90199 0.51947 0.0
C626 C 0.07009 0.88379 0.52195 0.0
C627 C 0.10951 0.86949 0.52403 0.0
C628 C 0.16661 0.87327 0.52255 0.0
C629 C 1.00928 0.87969 0.52223 0.0
C630 C 0.98979 0.86956 0.55035 0.0
C631 C 0.97037 0.88623 0.49565 0.0
C632 C 0.98843 0.89612 0.46421 0.0
C633 C 0.02753 0.88818 0.4427 0.0
C634 C 0.04472 0.89763 0.4133 0.0
C635 C 0.0228 0.915 0.40497 0.0
C636 C 0.98351 0.92291 0.42598 0.0
C637 C 0.96622 0.91352 0.45545 0.0
H638 H 0.03617 0.9223 0.38219 0.0
H639 H 0.86668 0.82985 0.66621 0.0
H640 H 0.9062 0.57701 0.05652 0.0
H641 H 0.91843 0.54389 0.05356 0.0
H642 H 0.0744 0.55158 1.00452 0.0
H643 H 0.06206 0.58521 1.00742 0.0
H644 H 1.0013 0.52769 0.96782 0.0
H645 H 0.07541 0.5348 0.08635 0.0
H646 H 0.07666 0.54579 0.14753 0.0
H647 H 0.92585 0.5158 0.16333 0.0
H648 H 0.9232 0.50484 0.10205 0.0
H649 H 0.09164 0.43604 0.97667 0.0
H650 H 0.07621 0.46891 0.98022 0.0
H651 H 0.92427 0.45933 0.03272 0.0
H652 H 0.94023 0.42587 0.02957 0.0
H653 H 0.99291 0.48418 0.06768 0.0
H654 H 0.91867 0.47676 0.94983 0.0
H655 H 0.91617 0.46584 0.88857 0.0
H656 H 0.06518 0.49649 0.87123 0.0
H657 H 0.06908 0.50739 0.93256 0.0
C658 C 0.94372 0.57168 0.04568 0.0
C659 C 0.98321 0.58364 0.03212 0.0
C660 C 0.9507 0.55273 0.04412 0.0
C661 C 0.99734 0.54524 0.02893 0.0
C662 C 0.03811 0.55713 0.01643 0.0
C663 C 0.03136 0.57627 0.01833 0.0
C664 C 1.0006 0.52505 0.02403 0.0
C665 C 1.00055 0.51816 0.98968 0.0
C666 C 0.99717 0.51266 0.05249 0.0
C667 C 0.99887 0.51912 0.08947 0.0
C668 C 0.04226 0.53066 0.10277 0.0
C669 C 0.04327 0.53686 0.13749 0.0
C670 C 1.0013 0.53153 0.15928 0.0
C671 C 0.95831 0.51994 0.14642 0.0
C672 C 0.95708 0.5137 0.11169 0.0
C673 C 0.0543 0.44086 0.98845 0.0
C674 C 0.01714 0.42841 1.00295 0.0
C675 C 0.04543 0.4597 0.99031 0.0
C676 C 0.99896 0.46663 1.00654 0.0
C677 C 0.96038 0.45424 0.01998 0.0
C678 C 0.96917 0.43519 0.01792 0.0
C679 C 0.99392 0.48679 0.01144 0.0
C680 C 0.99357 0.4937 0.04579 0.0
C681 C 0.99676 0.49921 0.98296 0.0
C682 C 0.99437 0.49279 0.94592 0.0
C683 C 0.95115 0.48107 0.93305 0.0
C684 C 0.94944 0.4749 0.89828 0.0
C685 C 0.99055 0.48044 0.87604 0.0
C686 C 0.03338 0.4922 0.88849 0.0
C687 C 0.03531 0.4984 0.92325 0.0
H688 H 0.98917 0.47564 0.84914 0.0
H689 H 1.00214 0.53636 0.18616 0.0
H690 H 0.05961 0.42837 0.54214 0.0
H691 H 0.07234 0.46196 0.54489 0.0
H692 H 0.93746 0.46888 0.46578 0.0
H693 H 0.9248 0.43568 0.46296 0.0
H694 H 0.02216 0.49294 0.4562 0.0
H695 H 0.91253 0.47205 0.55079 0.0
H696 H 0.896 0.45313 0.60286 0.0
H697 H 0.03821 0.47767 0.65858 0.0
H698 H 0.05615 0.49653 0.60658 0.0
H699 H 0.95704 0.58724 0.48394 0.0
H700 H 0.94286 0.55369 0.48071 0.0
H701 H 0.07316 0.54607 0.56261 0.0
H702 H 0.087 0.57915 0.56597 0.0
H703 H 0.99052 0.52222 0.57078 0.0
H704 H 0.09844 0.54404 0.47696 0.0
H705 H 0.11712 0.56218 0.4243 0.0
H706 H 0.98193 0.53495 0.36632 0.0
H707 H 0.96088 0.51727 0.41899 0.0
C708 C 0.03379 0.43709 0.52477 0.0
C709 C 0.99105 0.42948 0.50251 0.0
C710 C 0.04071 0.45624 0.52654 0.0
C711 C 1.00523 0.46794 0.50588 0.0
C712 C 0.96515 0.46018 0.48203 0.0
C713 C 0.9579 0.44119 0.48053 0.0
C714 C 1.0066 0.48822 0.51047 0.0
C715 C 0.01478 0.49937 0.48116 0.0
C716 C 0.9975 0.49658 0.54314 0.0
C717 C 0.98602 0.48556 0.57468 0.0
C718 C 0.94048 0.47333 0.57407 0.0
C719 C 0.93084 0.46262 0.60357 0.0
C720 C 0.96613 0.46415 0.63398 0.0
C721 C 0.01098 0.47647 0.63499 0.0
C722 C 0.02089 0.48718 0.60551 0.0
C723 C 0.98148 0.57837 0.50177 0.0
C724 C 0.02335 0.58574 0.525 0.0
C725 C 0.97376 0.55923 0.49976 0.0
C726 C 1.0076 0.54733 0.5211 0.0
C727 C 0.04669 0.55489 0.54583 0.0
C728 C 0.05467 0.57383 0.54761 0.0
C729 C 1.00589 0.52703 0.5164 0.0
C730 C 0.99774 0.51584 0.54574 0.0
C731 C 0.0152 0.51864 0.48373 0.0
C732 C 0.02748 0.52953 0.45214 0.0
C733 C 0.07208 0.54214 0.45315 0.0
C734 C 0.08307 0.55237 0.42327 0.0
C735 C 0.05045 0.54985 0.39202 0.0
C736 C 1.00681 0.53708 0.3906 0.0
C737 C 0.9952 0.52699 0.4205 0.0
H738 H 0.05918 0.55772 0.36887 0.0
H739 H 0.95864 0.45583 0.65677 0.0
H740 H 0.4607 0.92907 0.99414 0.0
H741 H 0.44643 0.96258 0.99178 0.0
H742 H 0.58659 0.97005 0.06693 0.0
H743 H 0.60058 0.93696 0.06954 0.0
H744 H 0.50361 0.99421 0.07841 0.0
H745 H 0.60489 0.9723 0.98059 0.0
H746 H 0.61611 0.95272 0.9287 0.0
H747 H 0.46995 0.977 0.87698 0.0
H748 H 0.45728 0.99649 0.92886 0.0
H749 H 0.56812 0.0877 0.04648 0.0
H750 H 0.58272 0.05419 0.04917 0.0
H751 H 0.4454 0.0465 0.972 0.0
H752 H 0.43126 0.07956 0.96901 0.0
H753 H 0.52688 0.0224 0.96158 0.0
H754 H 0.42452 0.04412 0.05843 0.0
H755 H 0.41079 0.06343 0.11034 0.0
H756 H 0.55602 0.03945 0.16373 0.0
H757 H 0.57117 0.02021 0.11185 0.0
C758 C 0.4874 0.93789 1.01074 0.0
C759 C 0.53208 0.93049 0.03168 0.0
C760 C 0.47953 0.95699 1.00923 0.0
C761 C 0.5161 0.9688 0.02879 0.0
C762 C 0.55805 0.96124 0.05155 0.0
C763 C 0.56612 0.94231 0.05286 0.0
C764 C 0.51451 0.98899 0.02362 0.0
C765 C 0.50906 1.00038 0.05292 0.0
C766 C 0.52129 0.99703 0.99032 0.0
C767 C 0.52982 0.98572 0.95873 0.0
C768 C 0.57498 0.97339 0.95822 0.0
C769 C 0.5816 0.96231 0.92882 0.0
C770 C 0.54368 0.96358 0.8996 0.0
C771 C 0.49922 0.97601 0.89966 0.0
C772 C 0.49231 0.98708 0.92905 0.0
C773 C 0.54219 0.07882 0.02952 0.0
C774 C 0.4982 0.08614 1.00789 0.0
C775 C 0.5502 0.05973 0.03122 0.0
C776 C 0.51444 0.04785 0.01119 0.0
C777 C 0.47331 0.05535 0.98777 0.0
C778 C 0.46514 0.07426 0.98624 0.0
C779 C 0.51604 0.02764 0.01639 0.0
C780 C 0.52148 0.01624 0.98709 0.0
C781 C 0.50899 0.0196 0.04967 0.0
C782 C 0.49933 0.03088 0.08113 0.0
C783 C 0.45373 0.04305 0.08116 0.0
C784 C 0.44568 0.05398 0.11057 0.0
C785 C 0.4826 0.05271 0.14028 0.0
C786 C 0.52752 0.04044 0.14067 0.0
C787 C 0.53586 0.02952 0.11128 0.0
H788 H 0.47633 0.06119 0.16301 0.0
H789 H 0.5488 0.95496 0.87689 0.0
H790 H 0.47083 0.0854 0.55525 0.0
H791 H 0.46088 0.05178 0.55958 0.0
H792 H 0.5548 0.04519 0.4674 0.0
H793 H 0.56579 0.07857 0.46362 0.0
H794 H 0.46374 0.02036 0.47004 0.0
H795 H 0.62131 0.04267 0.54184 0.0
H796 H 0.66941 0.06147 0.58815 0.0
H797 H 0.57037 0.03659 0.66553 0.0
H798 H 0.5205 0.01804 0.61948 0.0
H799 H 0.55543 0.92819 0.4879 0.0
H800 H 0.56395 0.96187 0.48508 0.0
H801 H 0.47258 0.96679 0.57869 0.0
H802 H 0.46318 0.9333 0.58106 0.0
H803 H 0.56041 0.99247 0.57597 0.0
H804 H 0.40337 0.97 0.50505 0.0
H805 H 0.35543 0.95079 0.45935 0.0
H806 H 0.45222 0.97571 0.38089 0.0
H807 H 0.50189 0.99474 0.42634 0.0
C808 C 0.48759 0.07674 0.53533 0.0
C809 C 0.51849 0.08446 0.50888 0.0
C810 C 0.48241 0.05758 0.53797 0.0
C811 C 0.50752 0.04599 0.51393 0.0
C812 C 0.53502 0.05384 0.48614 0.0
C813 C 0.54111 0.07288 0.48393 0.0
C814 C 0.50969 0.02576 0.51922 0.0
C815 C 0.48523 0.01426 0.49306 0.0
C816 C 0.5372 0.0178 0.54947 0.0
C817 C 0.5666 0.02915 0.57712 0.0
C818 C 0.60919 0.0414 0.56864 0.0
C819 C 0.63685 0.052 0.59486 0.0
C820 C 0.62284 0.05028 0.62975 0.0
C821 C 0.58105 0.03797 0.63848 0.0
C822 C 0.55298 0.02745 0.61232 0.0
C823 C 0.53903 0.93649 0.50848 0.0
C824 C 0.50921 0.92828 0.53489 0.0
C825 C 0.54336 0.95568 0.5067 0.0
C826 C 0.51831 0.96683 0.53148 0.0
C827 C 0.49219 0.95849 0.55934 0.0
C828 C 0.48703 0.93938 0.56075 0.0
C829 C 0.51467 0.98708 0.52674 0.0
C830 C 0.53882 0.99857 0.55299 0.0
C831 C 0.48672 0.99503 0.49663 0.0
C832 C 0.45692 0.98362 0.4692 0.0
C833 C 0.41497 0.97122 0.47813 0.0
C834 C 0.38745 0.96037 0.45227 0.0
C835 C 0.401 0.96194 0.41727 0.0
C836 C 0.442 0.97442 0.40805 0.0
C837 C 0.46989 0.98524 0.43386 0.0
H838 H 0.37953 0.95354 0.39731 0.0
H839 H 0.6445 0.05843 0.65003 0.0
H840 H 0.06696 0.30959 0.01475 0.0
H841 H 0.11646 0.27994 0.01589 0.0
H842 H 0.27434 0.30839 0.01516 0.0
H843 H 0.22602 0.33768 0.0139 0.0
H844 H 0.27087 0.28043 0.96934 0.0
H845 H 0.23211 0.29037 0.08955 0.0
H846 H 0.1724 0.29669 0.1385 0.0
H847 H 0.08105 0.24683 0.11642 0.0
H848 H 0.13955 0.2404 0.06675 0.0
H849 H 0.45251 0.20483 0.01623 0.0
H850 H 0.40474 0.23472 0.0178 0.0
H851 H 0.24543 0.20709 0.01761 0.0
H852 H 0.29215 0.17753 0.01627 0.0
H853 H 0.25082 0.23484 0.06458 0.0
H854 H 0.29013 0.22556 0.94306 0.0
H855 H 0.35135 0.21969 0.89456 0.0
H856 H 0.44417 0.26881 0.92057 0.0
H857 H 0.38396 0.27483 0.96957 0.0
C858 C 0.11217 0.30947 0.01486 0.0
C859 C 0.14237 0.32602 0.01432 0.0
C860 C 0.14042 0.29255 0.01557 0.0
C861 C 0.19919 0.29197 0.0157 0.0
C862 C 0.22909 0.30847 0.01491 0.0
C863 C 0.20116 0.32526 0.01436 0.0
C864 C 0.23024 0.27427 0.01689 0.0
C865 C 0.26687 0.27054 0.99036 0.0
C866 C 0.22474 0.2613 0.04413 0.0
C867 C 0.1898 0.26501 0.07417 0.0
C868 C 0.19898 0.28083 0.09493 0.0
C869 C 0.1654 0.28442 0.12284 0.0
C870 C 0.12288 0.27218 0.13056 0.0
C871 C 0.11395 0.25631 0.11038 0.0
C872 C 0.1473 0.25269 0.08233 0.0
C873 C 0.40736 0.20518 0.01662 0.0
C874 C 0.37626 0.18878 0.01589 0.0
C875 C 0.3801 0.22223 0.01745 0.0
C876 C 0.3214 0.22312 0.01762 0.0
C877 C 0.29064 0.20676 0.01758 0.0
C878 C 0.31762 0.18983 0.01661 0.0
C879 C 0.29125 0.24098 0.01695 0.0
C880 C 0.2548 0.24474 0.04358 0.0
C881 C 0.29712 0.25403 0.9899 0.0
C882 C 0.33293 0.25054 0.96021 0.0
C883 C 0.32385 0.23504 0.93859 0.0
C884 C 0.35833 0.23169 0.91099 0.0
C885 C 0.40173 0.24384 0.90455 0.0
C886 C 0.4106 0.25939 0.92563 0.0
C887 C 0.3763 0.26279 0.9533 0.0
H888 H 0.4284 0.24121 0.88319 0.0
H889 H 0.09694 0.27499 0.15221 0.0
H890 H 0.57345 0.81194 0.01263 0.0
H891 H 0.61995 0.78183 0.01151 0.0
H892 H 0.78036 0.80821 0.02961 0.0
H893 H 0.73499 0.83799 0.03025 0.0
H894 H 0.78678 0.78301 0.98062 0.0
H895 H 0.71717 0.78608 0.09581 0.0
H896 H 0.64568 0.78993 0.13914 0.0
H897 H 0.55559 0.74339 0.09574 0.0
H898 H 0.62619 0.73941 0.05184 0.0
H899 H 0.94882 0.70283 0.0307 0.0
H900 H 0.9035 0.73316 0.03083 0.0
H901 H 0.74278 0.70754 1.0091 0.0
H902 H 0.78699 0.67754 1.00918 0.0
H903 H 0.73737 0.73245 0.06038 0.0
H904 H 0.80988 0.72977 0.94493 0.0
H905 H 0.88371 0.72625 0.90308 0.0
H906 H 0.97137 0.77261 0.94916 0.0
H907 H 0.89841 0.77625 0.99161 0.0
C908 C 0.61858 0.81127 0.01631 0.0
C909 C 0.65031 0.82739 0.02163 0.0
C910 C 0.64513 0.79407 0.01579 0.0
C911 C 0.70375 0.79274 0.02073 0.0
C912 C 0.73523 0.80885 0.02564 0.0
C913 C 0.70896 0.82591 0.02614 0.0
C914 C 0.73292 0.77467 0.02105 0.0
C915 C 0.77629 0.77202 0.99832 0.0
C916 C 0.71907 0.76024 0.04388 0.0
C917 C 0.67664 0.76257 0.0703 0.0
C918 C 0.68187 0.77676 0.09533 0.0
C919 C 0.64157 0.77895 0.12002 0.0
C920 C 0.59604 0.76695 0.12012 0.0
C921 C 0.59082 0.7527 0.09559 0.0
C922 C 0.63099 0.75045 0.07082 0.0
C923 C 0.90391 0.70371 0.0258 0.0
C924 C 0.87171 0.68773 0.01989 0.0
C925 C 0.87803 0.72103 0.02584 0.0
C926 C 0.81964 0.72263 0.01987 0.0
C927 C 0.78774 0.70668 0.01393 0.0
C928 C 0.81335 0.6895 0.01385 0.0
C929 C 0.79102 0.74078 0.01984 0.0
C930 C 0.7478 0.74344 0.04267 0.0
C931 C 0.80531 0.75528 0.99731 0.0
C932 C 0.849 0.75316 0.97167 0.0
C933 C 0.84512 0.73913 0.9463 0.0
C934 C 0.88677 0.73712 0.92245 0.0
C935 C 0.93228 0.74916 0.92352 0.0
C936 C 0.93615 0.76327 0.9484 0.0
C937 C 0.89464 0.76532 0.97234 0.0
H938 H 0.96449 0.74759 0.90504 0.0
H939 H 0.56488 0.76867 0.13926 0.0
H940 H 0.0708 0.70455 0.51379 0.0
H941 H 0.11898 0.7344 0.51265 0.0
H942 H 0.27688 0.70741 0.53689 0.0
H943 H 0.22963 0.67791 0.53844 0.0
H944 H 0.27019 0.7379 0.57491 0.0
H945 H 0.23763 0.72103 0.45332 0.0
H946 H 0.18017 0.71203 0.40025 0.0
H947 H 0.08702 0.76227 0.40492 0.0
H948 H 0.14344 0.77145 0.45835 0.0
H949 H 0.45618 0.80998 0.53126 0.0
H950 H 0.40689 0.78034 0.53114 0.0
H951 H 0.25039 0.80807 0.50626 0.0
H952 H 0.29887 0.83742 0.50587 0.0
H953 H 0.25545 0.77739 0.46863 0.0
H954 H 0.28795 0.79432 0.59005 0.0
H955 H 0.34525 0.80337 0.64315 0.0
H956 H 0.43816 0.75305 0.63893 0.0
H957 H 0.38189 0.74382 0.58547 0.0
C958 C 0.1157 0.70504 0.51906 0.0
C959 C 0.14622 0.68881 0.5261 0.0
C960 C 0.14326 0.72207 0.51825 0.0
C961 C 0.20174 0.72315 0.52441 0.0
C962 C 0.23186 0.70699 0.53209 0.0
C963 C 0.20458 0.69007 0.53282 0.0
C964 C 0.23231 0.74094 0.52252 0.0
C965 C 0.26735 0.74644 0.55152 0.0
C966 C 0.22809 0.75227 0.49226 0.0
C967 C 0.19435 0.74683 0.46004 0.0
C968 C 0.2046 0.73009 0.44319 0.0
C969 C 0.17227 0.72497 0.41302 0.0
C970 C 0.12987 0.73655 0.39928 0.0
C971 C 0.11982 0.7533 0.41563 0.0
C972 C 0.15197 0.75848 0.44584 0.0
C973 C 0.41137 0.80971 0.52548 0.0
C974 C 0.38159 0.82611 0.51874 0.0
C975 C 0.38317 0.79278 0.52559 0.0
C976 C 0.32471 0.79197 0.51905 0.0
C977 C 0.29536 0.80828 0.51137 0.0
C978 C 0.32333 0.82511 0.51131 0.0
C979 C 0.29346 0.77431 0.52099 0.0
C980 C 0.25827 0.76885 0.49203 0.0
C981 C 0.2975 0.76301 0.5513 0.0
C982 C 0.33111 0.76847 0.58356 0.0
C983 C 0.32088 0.78524 0.6003 0.0
C984 C 0.35312 0.7904 0.63048 0.0
C985 C 0.39542 0.77881 0.64435 0.0
C986 C 0.40544 0.76202 0.62812 0.0
C987 C 0.37337 0.75682 0.59789 0.0
H988 H 0.42034 0.78282 0.66772 0.0
H989 H 0.10488 0.73256 0.37592 0.0
H990 H 0.95099 0.31074 0.52436 0.0
H991 H 0.90519 0.28055 0.5271 0.0
H992 H 0.74412 0.3064 0.50855 0.0
H993 H 0.78887 0.33627 0.50634 0.0
H994 H 0.73848 0.28166 0.55859 0.0
H995 H 0.8097 0.28337 0.44304 0.0
H996 H 0.88248 0.28645 0.40035 0.0
H997 H 0.97052 0.2403 0.44709 0.0
H998 H 0.89859 0.23711 0.49038 0.0
H999 H 0.571 0.20297 0.51024 0.0
H1000 H 0.61945 0.23275 0.5109 0.0
H1001 H 0.77791 0.2051 0.52844 0.0
H1002 H 0.73041 0.17557 0.52722 0.0
H1003 H 0.78672 0.23046 0.48025 0.0
H1004 H 0.71429 0.22824 0.59497 0.0
H1005 H 0.64143 0.22514 0.6376 0.0
H1006 H 0.55571 0.27217 0.5926 0.0
H1007 H 0.62771 0.2754 0.54938 0.0
C1008 C 0.90586 0.30995 0.52091 0.0
C1009 C 0.87381 0.32597 0.51502 0.0
C1010 C 0.87968 0.29268 0.52236 0.0
C1011 C 0.82105 0.29113 0.51777 0.0
C1012 C 0.78926 0.30716 0.51227 0.0
C1013 C 0.81517 0.32429 0.51086 0.0
C1014 C 0.79212 0.27297 0.51838 0.0
C1015 C 0.74874 0.27053 0.54121 0.0
C1016 C 0.80594 0.25826 0.49623 0.0
C1017 C 0.84911 0.26013 0.47018 0.0
C1018 C 0.84482 0.27397 0.44438 0.0
C1019 C 0.88587 0.27572 0.42005 0.0
C1020 C 0.93118 0.26361 0.42107 0.0
C1021 C 0.93545 0.24969 0.44638 0.0
C1022 C 0.89455 0.2479 0.4708 0.0
C1023 C 0.61611 0.20327 0.51437 0.0
C1024 C 0.64664 0.18684 0.5187 0.0
C1025 C 0.64382 0.22031 0.51485 0.0
C1026 C 0.7025 0.22124 0.51996 0.0
C1027 C 0.73277 0.20482 0.52433 0.0
C1028 C 0.70531 0.18789 0.52375 0.0
C1029 C 0.73292 0.23916 0.52038 0.0
C1030 C 0.77656 0.24156 0.49773 0.0
C1031 C 0.71933 0.25383 0.54271 0.0
C1032 C 0.67609 0.25195 0.56872 0.0
C1033 C 0.67968 0.23784 0.59399 0.0
C1034 C 0.63858 0.23607 0.61829 0.0
C1035 C 0.59389 0.24842 0.61774 0.0
C1036 C 0.5903 0.26259 0.59295 0.0
C1037 C 0.63126 0.26441 0.56857 0.0
H1038 H 0.56212 0.24703 0.63658 0.0
H1039 H 0.96292 0.26499 0.40221 0.0
H1040 H 0.14518 0.37972 0.13124 0.0
H1041 H 0.12962 0.37968 0.19456 0.0
H1042 H 0.95176 0.37574 0.17079 0.0
H1043 H 0.96671 0.37566 0.10829 0.0
H1044 H 0.97917 0.40159 0.22219 0.0
H1045 H 0.02354 0.33837 0.19435 0.0
H1046 H 0.08293 0.31357 0.17302 0.0
H1047 H 0.21318 0.3279 0.25049 0.0
H1048 H 0.15485 0.35295 0.27196 0.0
H1049 H 0.87643 0.37647 0.38623 0.0
H1050 H 0.89769 0.37714 0.3241 0.0
H1051 H 0.07326 0.37063 0.35382 0.0
H1052 H 0.05217 0.36914 0.41531 0.0
H1053 H 0.05151 0.35106 0.29958 0.0
H1054 H 0.01077 0.4134 0.32908 0.0
H1055 H 0.95485 0.43877 0.35156 0.0
H1056 H 0.82399 0.4278 0.27237 0.0
H1057 H 0.87882 0.40218 0.24972 0.0
C1058 C 0.10286 0.37893 0.13962 0.0
C1059 C 0.05729 0.37757 0.11473 0.0
C1060 C 0.094 0.37885 0.17573 0.0
C1061 C 0.03946 0.37762 0.18736 0.0
C1062 C 0.99412 0.37672 0.16247 0.0
C1063 C 1.00289 0.37657 0.12667 0.0
C1064 C 0.02874 0.37691 0.22533 0.0
C1065 C 0.9947 0.39049 0.23912 0.0
C1066 C 0.04998 0.36266 0.24757 0.0
C1067 C 0.08508 0.34766 0.23449 0.0
C1068 C 0.06505 0.33634 0.2066 0.0
C1069 C 0.09847 0.32222 0.19454 0.0
C1070 C 0.15183 0.31919 0.21034 0.0
C1071 C 0.17187 0.33028 0.23824 0.0
C1072 C 0.13865 0.34443 0.25038 0.0
C1073 C 0.91944 0.37503 0.37942 0.0
C1074 C 0.9625 0.37275 0.40577 0.0
C1075 C 0.93169 0.37556 0.34391 0.0
C1076 C 0.98734 0.37426 0.33414 0.0
C1077 C 0.03005 0.37165 0.36048 0.0
C1078 C 0.01781 0.37083 0.39577 0.0
C1079 C 1.0016 0.37574 0.29667 0.0
C1080 C 0.03624 0.36228 0.28288 0.0
C1081 C 0.98157 0.39027 0.27455 0.0
C1082 C 0.94869 0.40576 0.28792 0.0
C1083 C 0.96992 0.41632 0.3166 0.0
C1084 C 0.93844 0.43075 0.32936 0.0
C1085 C 0.88585 0.43486 0.31345 0.0
C1086 C 0.8647 0.42458 0.28469 0.0
C1087 C 0.89598 0.41012 0.27186 0.0
H1088 H 0.86153 0.44604 0.32337 0.0
H1089 H 0.1776 0.30822 0.20108 0.0
H1090 H 0.91257 0.66313 0.13777 0.0
H1091 H 0.94008 0.66182 0.20071 0.0
H1092 H 0.97055 0.6036 0.19204 0.0
H1093 H 0.94056 0.60487 0.12936 0.0
H1094 H 0.93465 0.61031 0.25437 0.0
H1095 H 0.07648 0.63592 0.18675 0.0
H1096 H 0.11466 0.65708 0.14366 0.0
H1097 H 0.07871 0.7031 0.209 0.0
H1098 H 0.03939 0.68223 0.25221 0.0
H1099 H 0.11158 0.60881 0.41377 0.0
H1100 H 0.08746 0.60676 0.35007 0.0
H1101 H 0.02538 0.66238 0.35049 0.0
H1102 H 0.04847 0.66432 0.41365 0.0
H1103 H 0.08379 0.65481 0.29125 0.0
H1104 H 0.94205 0.62687 0.35964 0.0
H1105 H 0.9064 0.6042 0.40084 0.0
H1106 H 0.94604 0.56041 0.33117 0.0
H1107 H 0.98454 0.5827 0.29046 0.0
C1108 C 0.92285 0.64995 0.14973 0.0
C1109 C 0.92328 0.63403 0.12904 0.0
C1110 C 0.93951 0.64923 0.18557 0.0
C1111 C 0.95896 0.63269 0.20112 0.0
C1112 C 0.95598 0.61654 0.18082 0.0
C1113 C 0.9384 0.61723 0.14506 0.0
C1114 C 0.98607 0.63252 0.23755 0.0
C1115 C 0.9678 0.61987 0.26226 0.0
C1116 C 0.02958 0.64494 0.24805 0.0
C1117 C 0.05459 0.65752 0.2226 0.0
C1118 C 0.07651 0.65056 0.19187 0.0
C1119 C 0.09832 0.6625 0.1674 0.0
C1120 C 0.09901 0.68143 0.17356 0.0
C1121 C 0.0781 0.68844 0.20425 0.0
C1122 C 0.05607 0.67656 0.22876 0.0
C1123 C 0.09438 0.62073 0.39995 0.0
C1124 C 0.0822 0.63677 0.41854 0.0
C1125 C 0.08009 0.61951 0.36366 0.0
C1126 C 0.05403 0.63438 0.34549 0.0
C1127 C 0.04536 0.65074 0.3638 0.0
C1128 C 0.05868 0.65185 0.39992 0.0
C1129 C 0.03183 0.63277 0.30816 0.0
C1130 C 0.05104 0.64512 0.28325 0.0
C1131 C 0.98992 0.61984 0.29738 0.0
C1132 C 0.96716 0.60646 0.32224 0.0
C1133 C 0.94416 0.61238 0.3534 0.0
C1134 C 0.92349 0.59958 0.37673 0.0
C1135 C 0.92448 0.58084 0.36885 0.0
C1136 C 0.94596 0.57489 0.33755 0.0
C1137 C 0.96744 0.58759 0.31441 0.0
H1138 H 0.90831 0.57094 0.38687 0.0
H1139 H 0.11583 0.69065 0.15456 0.0
H1140 H 0.05128 0.63217 0.93093 0.0
H1141 H 0.07275 0.6316 0.86934 0.0
H1142 H 0.8981 0.63959 0.83862 0.0
H1143 H 0.876 0.63911 0.90073 0.0
H1144 H 0.93792 0.61693 0.79555 0.0
H1145 H 1.00431 0.67535 0.83921 0.0
H1146 H 0.05797 0.69642 0.87911 0.0
H1147 H 0.21128 0.67109 0.85194 0.0
H1148 H 0.15848 0.64966 0.81232 0.0
H1149 H 0.97326 0.64751 0.6226 0.0
H1150 H 0.95628 0.6464 0.68486 0.0
H1151 H 0.1262 0.62887 0.70875 0.0
H1152 H 0.14386 0.62999 0.64587 0.0
H1153 H 0.09144 0.65582 0.75483 0.0
H1154 H 0.023 0.598 0.70961 0.0
H1155 H 0.96799 0.57794 0.66848 0.0
H1156 H 0.81635 0.60371 0.69749 0.0
H1157 H 0.87055 0.62412 0.73845 0.0
C1158 C 0.01732 0.63381 0.91109 0.0
C1159 C 0.96192 0.63587 0.92076 0.0
C1160 C 0.02976 0.63361 0.87573 0.0
C1161 C 0.98743 0.6361 0.849 0.0
C1162 C 0.93175 0.63778 0.85859 0.0
C1163 C 0.91907 0.63754 0.89411 0.0
C1164 C 1.00135 0.63679 0.81122 0.0
C1165 C 0.97098 0.62566 0.78671 0.0
C1166 C 0.0455 0.6478 0.7994 0.0
C1167 C 0.07736 0.66078 0.82304 0.0
C1168 C 0.04943 0.67419 0.84193 0.0
C1169 C 0.07971 0.6862 0.8645 0.0
C1170 C 0.13799 0.68504 0.86817 0.0
C1171 C 0.16613 0.67192 0.84917 0.0
C1172 C 0.13605 0.65985 0.82663 0.0
C1173 C 1.00732 0.64345 0.64095 0.0
C1174 C 0.06002 0.63877 0.62906 0.0
C1175 C 0.99735 0.64276 0.67666 0.0
C1176 C 0.03966 0.63732 0.70155 0.0
C1177 C 0.0928 0.63304 0.69001 0.0
C1178 C 0.10283 0.63365 0.65406 0.0
C1179 C 0.02777 0.6361 0.73946 0.0
C1180 C 0.05848 0.6471 0.76388 0.0
C1181 C 0.98367 0.62512 0.75115 0.0
C1182 C 0.9509 0.61268 0.72691 0.0
C1183 C 0.97796 0.59947 0.70706 0.0
C1184 C 0.94691 0.58803 0.6838 0.0
C1185 C 0.88872 0.58957 0.68032 0.0
C1186 C 0.86143 0.60253 0.70019 0.0
C1187 C 0.89229 0.61403 0.72347 0.0
H1188 H 0.86476 0.58071 0.66228 0.0
H1189 H 0.16136 0.69434 0.88566 0.0
H1190 H 0.86744 0.36934 0.62721 0.0
H1191 H 0.89181 0.37164 0.69074 0.0
H1192 H 0.03136 0.40669 0.66987 0.0
H1193 H 1.00772 0.40407 0.60686 0.0
H1194 H 0.06603 0.3795 0.71053 0.0
H1195 H 0.91743 0.42299 0.71097 0.0
H1196 H 0.82195 0.43496 0.69896 0.0
H1197 H 0.75656 0.39212 0.76229 0.0
H1198 H 0.85161 0.37971 0.77426 0.0
H1199 H 0.13521 0.39627 0.89674 0.0
H1200 H 0.11203 0.40018 0.83325 0.0
H1201 H 0.97623 0.36161 0.83915 0.0
H1202 H 0.99906 0.35753 0.90156 0.0
H1203 H 0.94235 0.39374 0.80651 0.0
H1204 H 0.0915 0.34922 0.80168 0.0
H1205 H 0.18753 0.33767 0.81358 0.0
H1206 H 0.25234 0.38371 0.75839 0.0
H1207 H 0.15665 0.39567 0.74658 0.0
C1208 C 0.90204 0.37801 0.63643 0.0
C1209 C 0.9355 0.38664 0.61238 0.0
C1210 C 0.91622 0.37926 0.67266 0.0
C1211 C 0.96372 0.38929 0.68517 0.0
C1212 C 0.99491 0.39877 0.66099 0.0
C1213 C 0.98107 0.3974 0.62502 0.0
C1214 C 0.98392 0.38869 0.72292 0.0
C1215 C 0.03916 0.38294 0.73147 0.0
C1216 C 0.9489 0.39291 0.75038 0.0
C1217 C 0.89163 0.40031 0.74324 0.0
C1218 C 0.88265 0.41602 0.72209 0.0
C1219 C 0.82861 0.4229 0.71534 0.0
C1220 C 0.7832 0.41428 0.72978 0.0
C1221 C 0.79177 0.39877 0.75108 0.0
C1222 C 0.84573 0.39181 0.75789 0.0
C1223 C 0.10122 0.38837 0.88426 0.0
C1224 C 0.06885 0.37669 0.90428 0.0
C1225 C 0.08777 0.39069 0.84808 0.0
C1226 C 0.04186 0.38134 0.83157 0.0
C1227 C 0.01125 0.36915 0.85135 0.0
C1228 C 0.02468 0.36679 0.88711 0.0
C1229 C 0.02404 0.38436 0.79394 0.0
C1230 C 0.96925 0.39053 0.78547 0.0
C1231 C 0.05953 0.38063 0.76654 0.0
C1232 C 0.11701 0.37346 0.77364 0.0
C1233 C 0.12627 0.35697 0.79238 0.0
C1234 C 0.18062 0.35033 0.79904 0.0
C1235 C 0.22602 0.35998 0.78685 0.0
C1236 C 0.21714 0.37627 0.76788 0.0
C1237 C 0.16286 0.38298 0.76118 0.0
H1238 H 0.26807 0.35481 0.79203 0.0
H1239 H 0.74138 0.41963 0.72453 0.0
H1240 H 0.647 0.87644 0.14826 0.0
H1241 H 0.62655 0.87681 0.21069 0.0
H1242 H 0.4501 0.87346 0.1818 0.0
H1243 H 0.46998 0.87276 0.11977 0.0
H1244 H 0.48018 0.90121 0.23309 0.0
H1245 H 0.50896 0.83675 0.21069 0.0
H1246 H 0.56211 0.81023 0.19017 0.0
H1247 H 0.69665 0.82244 0.26613 0.0
H1248 H 0.64465 0.84922 0.28672 0.0
H1249 H 0.38354 0.88325 0.40422 0.0
H1250 H 0.39973 0.88273 0.34118 0.0
H1251 H 0.57545 0.8731 0.36576 0.0
H1252 H 0.55943 0.87306 0.42807 0.0
H1253 H 0.54353 0.85157 0.31536 0.0
H1254 H 0.52136 0.91579 0.33722 0.0
H1255 H 0.47522 0.94387 0.35688 0.0
H1256 H 0.3364 0.93409 0.28263 0.0
H1257 H 0.38151 0.90576 0.26283 0.0
C1258 C 0.60391 0.87568 0.15525 0.0
C1259 C 0.56021 0.87445 0.12902 0.0
C1260 C 0.59228 0.8759 0.19088 0.0
C1261 C 0.53675 0.87516 0.20084 0.0
C1262 C 0.49317 0.87408 0.17471 0.0
C1263 C 0.50475 0.87356 0.13924 0.0
C1264 C 0.52381 0.87543 0.23849 0.0
C1265 C 0.49338 0.89026 0.25107 0.0
C1266 C 0.54217 0.86135 0.26201 0.0
C1267 C 0.57314 0.8451 0.25001 0.0
C1268 C 0.55007 0.83387 0.22283 0.0
C1269 C 0.57995 0.81877 0.21122 0.0
C1270 C 0.63278 0.81468 0.22677 0.0
C1271 C 0.65575 0.82564 0.25407 0.0
C1272 C 0.62607 0.84077 0.26574 0.0
C1273 C 0.42557 0.88108 0.3961 0.0
C1274 C 0.47005 0.87812 0.42124 0.0
C1275 C 0.43489 0.88085 0.36005 0.0
C1276 C 0.489 0.87795 0.34853 0.0
C1277 C 0.5333 0.87521 0.37375 0.0
C1278 C 0.52399 0.87526 0.40952 0.0
C1279 C 0.50006 0.87749 0.31038 0.0
C1280 C 0.5301 0.86256 0.29756 0.0
C1281 C 0.48208 0.89165 0.28676 0.0
C1282 C 0.45452 0.90855 0.29883 0.0
C1283 C 0.48075 0.91953 0.32531 0.0
C1284 C 0.45482 0.93552 0.33644 0.0
C1285 C 0.40282 0.94076 0.32107 0.0
C1286 C 0.37664 0.93 0.29455 0.0
C1287 C 0.40238 0.91398 0.28335 0.0
H1288 H 0.38288 0.95318 0.32962 0.0
H1289 H 0.65587 0.803 0.21772 0.0
H1290 H 0.40452 0.10648 0.12006 0.0
H1291 H 0.42962 0.10283 0.18341 0.0
H1292 H 0.49884 0.15761 0.18642 0.0
H1293 H 0.47478 0.16112 0.12382 0.0
H1294 H 0.57232 0.13377 0.21559 0.0
H1295 H 0.37461 0.14749 0.22218 0.0
H1296 H 0.27385 0.14198 0.20932 0.0
H1297 H 0.28931 0.0885 0.25662 0.0
H1298 H 0.39037 0.09362 0.26938 0.0
H1299 H 0.5075 0.15605 0.40544 0.0
H1300 H 0.48434 0.15203 0.34306 0.0
H1301 H 0.61177 0.1104 0.33849 0.0
H1302 H 0.63544 0.11435 0.40191 0.0
H1303 H 0.44336 0.12158 0.30981 0.0
H1304 H 0.65677 0.11304 0.25174 0.0
H1305 H 0.75575 0.12141 0.26467 0.0
H1306 H 0.7056 0.16922 0.32073 0.0
H1307 H 0.60644 0.16125 0.30775 0.0
C1308 C 0.42353 0.11788 0.13464 0.0
C1309 C 0.43744 0.13412 0.11722 0.0
C1310 C 0.43838 0.11574 0.17068 0.0
C1311 C 0.46683 0.12989 0.1896 0.0
C1312 C 0.47775 0.14641 0.17237 0.0
C1313 C 0.46341 0.14847 0.13666 0.0
C1314 C 0.48719 0.1277 0.22705 0.0
C1315 C 0.54416 0.13088 0.23616 0.0
C1316 C 0.45074 0.1239 0.25395 0.0
C1317 C 0.39009 0.12084 0.24633 0.0
C1318 C 0.35658 0.1345 0.22957 0.0
C1319 C 0.29942 0.13146 0.22235 0.0
C1320 C 0.27523 0.11488 0.23204 0.0
C1321 C 0.30813 0.10132 0.24906 0.0
C1322 C 0.36533 0.10429 0.2563 0.0
C1323 C 0.53119 0.14612 0.39125 0.0
C1324 C 0.57325 0.13545 0.40873 0.0
C1325 C 0.51751 0.14376 0.35554 0.0
C1326 C 0.54562 0.13074 0.33614 0.0
C1327 C 0.58937 0.12051 0.35301 0.0
C1328 C 0.60319 0.12287 0.38913 0.0
C1329 C 0.5281 0.12819 0.29835 0.0
C1330 C 0.47176 0.12401 0.28917 0.0
C1331 C 0.56491 0.13138 0.27141 0.0
C1332 C 0.6243 0.13639 0.2792 0.0
C1333 C 0.66694 0.12534 0.2668 0.0
C1334 C 0.72305 0.13002 0.27412 0.0
C1335 C 0.73696 0.14579 0.29365 0.0
C1336 C 0.69479 0.15696 0.30576 0.0
C1337 C 0.63863 0.15235 0.29848 0.0
H1338 H 0.78041 0.14938 0.2993 0.0
H1339 H 0.23097 0.11255 0.22644 0.0
H1340 H 0.55291 0.14921 0.91699 0.0
H1341 H 0.5726 0.14817 0.8553 0.0
H1342 H 0.40175 0.13252 0.82812 0.0
H1343 H 0.38184 0.13304 0.89058 0.0
H1344 H 0.47105 0.11205 0.79321 0.0
H1345 H 0.4507 0.17639 0.81211 0.0
H1346 H 0.467 0.20611 0.842 0.0
H1347 H 0.64113 0.20346 0.82167 0.0
H1348 H 0.62604 0.17357 0.79209 0.0
H1349 H 0.4712 0.13406 0.61216 0.0
H1350 H 0.45596 0.13429 0.67474 0.0
H1351 H 0.63392 0.13697 0.69882 0.0
H1352 H 0.64983 0.13643 0.63548 0.0
H1353 H 0.56328 0.16393 0.73492 0.0
H1354 H 0.58051 0.09916 0.71519 0.0
H1355 H 0.56065 0.07018 0.68373 0.0
H1356 H 0.38684 0.07477 0.70385 0.0
H1357 H 0.40561 0.10401 0.73517 0.0
C1358 C 0.51916 0.14568 0.898 0.0
C1359 C 0.46557 0.1413 0.90879 0.0
C1360 C 0.53056 0.14516 0.86258 0.0
C1361 C 0.48853 0.14055 0.8369 0.0
C1362 C 0.43484 0.13619 0.84747 0.0
C1363 C 0.42341 0.13657 0.88313 0.0
C1364 C 0.50155 0.13981 0.79925 0.0
C1365 C 0.49047 0.12351 0.7804 0.0
C1366 C 0.52811 0.1546 0.7826 0.0
C1367 C 0.53731 0.17265 0.80015 0.0
C1368 C 0.49255 0.18208 0.81423 0.0
C1369 C 0.50156 0.19897 0.83108 0.0
C1370 C 0.55509 0.20665 0.8338 0.0
C1371 C 0.5997 0.19748 0.81957 0.0
C1372 C 0.59093 0.18057 0.80272 0.0
C1373 C 0.5073 0.13463 0.63068 0.0
C1374 C 0.56181 0.13529 0.6189 0.0
C1375 C 0.49842 0.13471 0.66645 0.0
C1376 C 0.54374 0.13564 0.69135 0.0
C1377 C 0.59841 0.13626 0.67989 0.0
C1378 C 0.60746 0.13586 0.64383 0.0
C1379 C 0.53296 0.13621 0.72923 0.0
C1380 C 0.54415 0.15249 0.74797 0.0
C1381 C 0.50591 0.12153 0.74565 0.0
C1382 C 0.49441 0.10386 0.72724 0.0
C1383 C 0.53797 0.09407 0.71268 0.0
C1384 C 0.52691 0.07757 0.6949 0.0
C1385 C 0.47248 0.07063 0.69164 0.0
C1386 C 0.42899 0.08017 0.70634 0.0
C1387 C 0.43983 0.0967 0.72417 0.0
H1388 H 0.46406 0.05785 0.67781 0.0
H1389 H 0.56199 0.21972 0.84687 0.0
H1390 H 0.39617 0.8997 0.63708 0.0
H1391 H 0.41754 0.90257 0.70088 0.0
H1392 H 0.5241 0.85487 0.69863 0.0
H1393 H 0.50291 0.85196 0.63557 0.0
H1394 H 0.46526 0.85499 0.75708 0.0
H1395 H 0.57739 0.89784 0.6938 0.0
H1396 H 0.58965 0.92359 0.65286 0.0
H1397 H 0.49851 0.95919 0.7186 0.0
H1398 H 0.48488 0.93353 0.75964 0.0
H1399 H 0.63987 0.86162 0.90992 0.0
H1400 H 0.61371 0.86242 0.84661 0.0
H1401 H 0.51467 0.911 0.86136 0.0
H1402 H 0.54122 0.91023 0.92448 0.0
H1403 H 0.5629 0.91198 0.79781 0.0
H1404 H 0.45313 0.87028 0.86206 0.0
H1405 H 0.43777 0.84483 0.90311 0.0
H1406 H 0.52032 0.80755 0.83605 0.0
H1407 H 0.53688 0.83286 0.7948 0.0
C1408 C 0.42292 0.88959 0.65046 0.0
C1409 C 0.44801 0.87566 0.63135 0.0
C1410 C 0.43557 0.89132 0.68681 0.0
C1411 C 0.47317 0.87908 0.7045 0.0
C1412 C 0.49519 0.86451 0.68567 0.0
C1413 C 0.48305 0.86288 0.64956 0.0
C1414 C 0.49292 0.88186 0.74197 0.0
C1415 C 0.48689 0.86741 0.76589 0.0
C1416 C 0.52023 0.89821 0.75377 0.0
C1417 C 0.52959 0.91373 0.72958 0.0
C1418 C 0.55969 0.91113 0.69941 0.0
C1419 C 0.56689 0.92571 0.67619 0.0
C1420 C 0.54473 0.943 0.68307 0.0
C1421 C 0.51555 0.94577 0.71327 0.0
C1422 C 0.50807 0.93122 0.73652 0.0
C1423 C 0.61451 0.87287 0.8993 0.0
C1424 C 0.59329 0.88604 0.92177 0.0
C1425 C 0.59896 0.87322 0.86325 0.0
C1426 C 0.56139 0.8866 0.84927 0.0
C1427 C 0.5436 0.90055 0.87143 0.0
C1428 C 0.55902 0.90016 0.90744 0.0
C1429 C 0.53622 0.88495 0.81266 0.0
C1430 C 0.54105 0.8996 0.78902 0.0
C1431 C 0.50741 0.86883 0.80109 0.0
C1432 C 0.4967 0.8535 0.82551 0.0
C1433 C 0.46832 0.85668 0.85617 0.0
C1434 C 0.45938 0.84228 0.87948 0.0
C1435 C 0.47821 0.8246 0.87225 0.0
C1436 C 0.50583 0.82126 0.84163 0.0
C1437 C 0.51496 0.83563 0.81826 0.0
H1438 H 0.4713 0.81347 0.89034 0.0
H1439 H 0.55027 0.95426 0.66503 0.0
loop_
_geom_bond_atom_site_label_1
_geom_bond_atom_site_label_2
_geom_bond_distance
_geom_bond_site_symmetry_2
_ccdc_geom_bond_type
Co0 N5 2.057 1_454 S
Co0 O17 2.021 . S
Co0 O20 2.062 1_455 S
Co0 O24 2.117 1_554 S
Co0 O25 2.020 . S
C1 O21 1.259 . S
C1 O24 1.258 . S
Co2 N11 2.057 . S
Co2 O18 2.117 . S
Co2 O19 2.020 . S
Co2 O21 2.021 1_554 S
Co2 O26 2.062 . S
C3 N5 1.316 1_554 S
C3 N6 1.350 . S
C3 H8 0.931 . S
C4 N5 1.375 . S
C4 C7 1.350 . S
C4 H9 0.930 . S
N5 Co0 2.057 1_656 S
N5 C3 1.316 1_556 S
N5 C4 1.375 . S
N6 C3 1.350 . S
N6 C7 1.367 1_554 S
C7 C4 1.350 . S
C7 N6 1.367 1_556 S
C7 H28 0.931 . S
H8 C3 0.931 . S
H9 C4 0.930 . S
C10 O17 1.259 . S
C10 O18 1.258 . S
N11 Co2 2.057 . S
N11 C12 1.316 1_554 S
N11 C13 1.375 . S
C12 N11 1.316 1_556 S
C12 N14 1.347 1_556 S
C12 H23 0.931 . S
C13 N11 1.375 . S
C13 C15 1.350 . S
C13 H22 0.930 . S
N14 C12 1.347 1_554 S
N14 C15 1.373 . S
C15 C13 1.350 . S
C15 N14 1.373 . S
C15 H29 0.931 . S
C16 O19 1.256 . S
C16 O20 1.255 1_455 S
O17 Co0 2.021 . S
O17 C10 1.259 . S
O18 Co2 2.117 . S
O18 C10 1.258 . S
O19 Co2 2.020 . S
O19 C16 1.256 . S
O20 Co0 2.062 1_655 S
O20 C16 1.255 1_655 S
O21 C1 1.259 . S
O21 Co2 2.021 1_556 S
H22 C13 0.930 . S
H23 C12 0.931 . S
O24 Co0 2.117 1_556 S
O24 C1 1.258 . S
O25 Co0 2.020 . S
O25 C27 1.256 . S
O26 Co2 2.062 . S
O26 C27 1.255 . S
C27 O25 1.256 . S
C27 O26 1.255 . S
H28 C7 0.931 . S
H29 C15 0.931 . S
Co30 N35 2.057 1_554 S
Co30 O47 2.021 . S
Co30 O50 2.062 . S
Co30 O54 2.117 1_554 S
Co30 O55 2.020 . S
C31 O51 1.259 . S
C31 O54 1.258 . S
Co32 N41 2.057 1_655 S
Co32 O48 2.117 . S
Co32 O49 2.020 . S
Co32 O51 2.021 1_554 S
Co32 O56 2.062 1_655 S
C33 N35 1.316 1_554 S
C33 N36 1.347 1_554 S
C33 H38 0.931 . S
C34 N35 1.375 . S
C34 C37 1.350 . S
C34 H39 0.930 . S
N35 Co30 2.057 1_556 S
N35 C33 1.316 1_556 S
N35 C34 1.375 . S
N36 C33 1.347 1_556 S
N36 C37 1.373 . S
C37 C34 1.350 . S
C37 N36 1.373 . S
C37 H58 0.931 . S
H38 C33 0.931 . S
H39 C34 0.930 . S
C40 O47 1.259 . S
C40 O48 1.258 . S
N41 Co32 2.057 1_455 S
N41 C42 1.316 1_554 S
N41 C43 1.375 . S
C42 N41 1.316 1_556 S
C42 N44 1.347 1_556 S
C42 H53 0.931 . S
C43 N41 1.375 . S
C43 C45 1.350 . S
C43 H52 0.930 . S
N44 C42 1.347 1_554 S
N44 C45 1.373 . S
C45 C43 1.350 . S
C45 N44 1.373 . S
C45 H59 0.931 . S
C46 O49 1.256 . S
C46 O50 1.255 . S
O47 Co30 2.021 . S
O47 C40 1.259 . S
O48 Co32 2.117 . S
O48 C40 1.258 . S
O49 Co32 2.020 . S
O49 C46 1.256 . S
O50 Co30 2.062 . S
O50 C46 1.255 . S
O51 C31 1.259 . S
O51 Co32 2.021 1_556 S
H52 C43 0.930 . S
H53 C42 0.931 . S
O54 Co30 2.117 1_556 S
O54 C31 1.258 . S
O55 Co30 2.020 . S
O55 C57 1.256 . S
O56 Co32 2.062 1_455 S
O56 C57 1.255 1_455 S
C57 O55 1.256 . S
C57 O56 1.255 1_655 S
H58 C37 0.931 . S
H59 C45 0.931 . S
Co60 N65 2.057 . S
Co60 O77 2.021 . S
Co60 O80 2.062 . S
Co60 O84 2.117 . S
Co60 O85 2.020 . S
C61 O81 1.259 . S
C61 O84 1.258 . S
Co62 N71 2.057 1_455 S
Co62 O78 2.117 . S
Co62 O79 2.020 . S
Co62 O81 2.021 . S
Co62 O86 2.062 1_455 S
C63 N65 1.316 . S
C63 N66 1.347 . S
C63 H68 0.931 . S
C64 N65 1.375 . S
C64 C67 1.350 . S
C64 H69 0.930 . S
N65 Co60 2.057 . S
N65 C63 1.316 . S
N65 C64 1.375 . S
N66 C63 1.347 . S
N66 C67 1.373 . S
C67 C64 1.350 . S
C67 N66 1.373 . S
C67 H88 0.931 . S
H68 C63 0.931 . S
H69 C64 0.930 . S
C70 O77 1.259 . S
C70 O78 1.258 . S
N71 Co62 2.057 1_655 S
N71 C72 1.316 . S
N71 C73 1.375 . S
C72 N71 1.316 . S
C72 N74 1.347 . S
C72 H83 0.931 . S
C73 N71 1.375 . S
C73 C75 1.350 . S
C73 H82 0.930 . S
N74 C72 1.347 . S
N74 C75 1.373 . S
C75 C73 1.350 . S
C75 N74 1.373 . S
C75 H89 0.931 . S
C76 O79 1.256 . S
C76 O80 1.255 . S
O77 Co60 2.021 . S
O77 C70 1.259 . S
O78 Co62 2.117 . S
O78 C70 1.258 . S
O79 Co62 2.020 . S
O79 C76 1.256 . S
O80 Co60 2.062 . S
O80 C76 1.255 . S
O81 C61 1.259 . S
O81 Co62 2.021 . S
H82 C73 0.930 . S
H83 C72 0.931 . S
O84 Co60 2.117 . S
O84 C61 1.258 . S
O85 Co60 2.020 . S
O85 C87 1.256 . S
O86 Co62 2.062 1_655 S
O86 C87 1.255 1_655 S
C87 O85 1.256 . S
C87 O86 1.255 1_455 S
H88 C67 0.931 . S
H89 C75 0.931 . S
Co90 N95 2.057 1_655 S
Co90 O107 2.021 . S
Co90 O110 2.062 1_655 S
Co90 O114 2.117 . S
Co90 O115 2.020 . S
C91 O111 1.259 . S
C91 O114 1.258 . S
Co92 N101 2.057 . S
Co92 O108 2.117 . S
Co92 O109 2.020 . S
Co92 O111 2.021 . S
Co92 O116 2.062 . S
C93 N95 1.316 . S
C93 N96 1.347 . S
C93 H98 0.931 . S
C94 N95 1.375 . S
C94 C97 1.350 . S
C94 H99 0.930 . S
N95 Co90 2.057 1_455 S
N95 C93 1.316 . S
N95 C94 1.375 . S
N96 C93 1.347 . S
N96 C97 1.373 . S
C97 C94 1.350 . S
C97 N96 1.373 . S
C97 H118 0.931 . S
H98 C93 0.931 . S
H99 C94 0.930 . S
C100 O107 1.259 . S
C100 O108 1.258 . S
N101 Co92 2.057 . S
N101 C102 1.316 . S
N101 C103 1.375 . S
C102 N101 1.316 . S
C102 N104 1.347 . S
C102 H113 0.931 . S
C103 N101 1.375 . S
C103 C105 1.350 . S
C103 H112 0.930 . S
N104 C102 1.347 . S
N104 C105 1.373 . S
C105 C103 1.350 . S
C105 N104 1.373 . S
C105 H119 0.931 . S
C106 O109 1.256 . S
C106 O110 1.255 1_655 S
O107 Co90 2.021 . S
O107 C100 1.259 . S
O108 Co92 2.117 . S
O108 C100 1.258 . S
O109 Co92 2.020 . S
O109 C106 1.256 . S
O110 Co90 2.062 1_455 S
O110 C106 1.255 1_455 S
O111 C91 1.259 . S
O111 Co92 2.021 . S
H112 C103 0.930 . S
H113 C102 0.931 . S
O114 Co90 2.117 . S
O114 C91 1.258 . S
O115 Co90 2.020 . S
O115 C117 1.256 . S
O116 Co92 2.062 . S
O116 C117 1.255 . S
C117 O115 1.256 . S
C117 O116 1.255 . S
H118 C97 0.931 . S
H119 C105 0.931 . S
Co120 N125 2.057 1_554 S
Co120 O137 2.021 . S
Co120 O140 2.062 . S
Co120 O144 2.117 1_554 S
Co120 O145 2.020 . S
C121 O141 1.259 . S
C121 O144 1.258 . S
Co122 N131 2.057 . S
Co122 O138 2.117 . S
Co122 O139 2.020 . S
Co122 O141 2.021 1_554 S
Co122 O146 2.062 . S
C123 N125 1.316 1_554 S
C123 N126 1.350 . S
C123 H128 0.931 . S
C124 N125 1.375 . S
C124 C127 1.350 . S
C124 H129 0.930 . S
N125 Co120 2.057 1_556 S
N125 C123 1.316 1_556 S
N125 C124 1.375 . S
N126 C123 1.350 . S
N126 C127 1.367 1_554 S
C127 C124 1.350 . S
C127 N126 1.367 1_556 S
C127 H148 0.931 . S
H128 C123 0.931 . S
H129 C124 0.930 . S
C130 O137 1.259 . S
C130 O138 1.258 . S
N131 Co122 2.057 . S
N131 C132 1.316 1_554 S
N131 C133 1.375 . S
C132 N131 1.316 1_556 S
C132 N134 1.347 1_556 S
C132 H143 0.931 . S
C133 N131 1.375 . S
C133 C135 1.350 . S
C133 H142 0.930 . S
N134 C132 1.347 1_554 S
N134 C135 1.373 . S
C135 C133 1.350 . S
C135 N134 1.373 . S
C135 H149 0.931 . S
C136 O139 1.256 . S
C136 O140 1.255 . S
O137 Co120 2.021 . S
O137 C130 1.259 . S
O138 Co122 2.117 . S
O138 C130 1.258 . S
O139 Co122 2.020 . S
O139 C136 1.256 . S
O140 Co120 2.062 . S
O140 C136 1.255 . S
O141 C121 1.259 . S
O141 Co122 2.021 1_556 S
H142 C133 0.930 . S
H143 C132 0.931 . S
O144 Co120 2.117 1_556 S
O144 C121 1.258 . S
O145 Co120 2.020 . S
O145 C147 1.256 . S
O146 Co122 2.062 . S
O146 C147 1.255 . S
C147 O145 1.256 . S
C147 O146 1.255 . S
H148 C127 0.931 . S
H149 C135 0.931 . S
Co150 N155 2.057 1_554 S
Co150 O167 2.021 . S
Co150 O170 2.062 . S
Co150 O174 2.117 1_554 S
Co150 O175 2.020 . S
C151 O171 1.259 . S
C151 O174 1.258 . S
Co152 N161 2.057 . S
Co152 O168 2.117 . S
Co152 O169 2.020 . S
Co152 O171 2.021 1_554 S
Co152 O176 2.062 . S
C153 N155 1.316 1_554 S
C153 N156 1.347 1_554 S
C153 H158 0.931 . S
C154 N155 1.375 . S
C154 C157 1.350 . S
C154 H159 0.930 . S
N155 Co150 2.057 1_556 S
N155 C153 1.316 1_556 S
N155 C154 1.375 . S
N156 C153 1.347 1_556 S
N156 C157 1.373 . S
C157 C154 1.350 . S
C157 N156 1.373 . S
C157 H178 0.931 . S
H158 C153 0.931 . S
H159 C154 0.930 . S
C160 O167 1.259 . S
C160 O168 1.258 . S
N161 Co152 2.057 . S
N161 C162 1.316 1_554 S
N161 C163 1.375 . S
C162 N161 1.316 1_556 S
C162 N164 1.347 1_556 S
C162 H173 0.931 . S
C163 N161 1.375 . S
C163 C165 1.350 . S
C163 H172 0.930 . S
N164 C162 1.347 1_554 S
N164 C165 1.373 . S
C165 C163 1.350 . S
C165 N164 1.373 . S
C165 H179 0.931 . S
C166 O169 1.256 . S
C166 O170 1.255 . S
O167 Co150 2.021 . S
O167 C160 1.259 . S
O168 Co152 2.117 . S
O168 C160 1.258 . S
O169 Co152 2.020 . S
O169 C166 1.256 . S
O170 Co150 2.062 . S
O170 C166 1.255 . S
O171 C151 1.259 . S
O171 Co152 2.021 1_556 S
H172 C163 0.930 . S
H173 C162 0.931 . S
O174 Co150 2.117 1_556 S
O174 C151 1.258 . S
O175 Co150 2.020 . S
O175 C177 1.256 . S
O176 Co152 2.062 . S
O176 C177 1.255 . S
C177 O175 1.256 . S
C177 O176 1.255 . S
H178 C157 0.931 . S
H179 C165 0.931 . S
Co180 N185 2.057 . S
Co180 O197 2.021 . S
Co180 O200 2.062 . S
Co180 O204 2.117 . S
Co180 O205 2.020 . S
C181 O201 1.259 . S
C181 O204 1.258 . S
Co182 N191 2.057 . S
Co182 O198 2.117 . S
Co182 O199 2.020 . S
Co182 O201 2.021 . S
Co182 O206 2.062 . S
C183 N185 1.316 . S
C183 N186 1.347 . S
C183 H188 0.931 . S
C184 N185 1.375 . S
C184 C187 1.350 . S
C184 H189 0.930 . S
N185 Co180 2.057 . S
N185 C183 1.316 . S
N185 C184 1.375 . S
N186 C183 1.347 . S
N186 C187 1.373 . S
C187 C184 1.350 . S
C187 N186 1.373 . S
C187 H208 0.931 . S
H188 C183 0.931 . S
H189 C184 0.930 . S
C190 O197 1.259 . S
C190 O198 1.258 . S
N191 Co182 2.057 . S
N191 C192 1.316 . S
N191 C193 1.375 . S
C192 N191 1.316 . S
C192 N194 1.347 . S
C192 H203 0.931 . S
C193 N191 1.375 . S
C193 C195 1.350 . S
C193 H202 0.930 . S
N194 C192 1.347 . S
N194 C195 1.373 . S
C195 C193 1.350 . S
C195 N194 1.373 . S
C195 H209 0.931 . S
C196 O199 1.256 . S
C196 O200 1.255 . S
O197 Co180 2.021 . S
O197 C190 1.259 . S
O198 Co182 2.117 . S
O198 C190 1.258 . S
O199 Co182 2.020 . S
O199 C196 1.256 . S
O200 Co180 2.062 . S
O200 C196 1.255 . S
O201 C181 1.259 . S
O201 Co182 2.021 . S
H202 C193 0.930 . S
H203 C192 0.931 . S
O204 Co180 2.117 . S
O204 C181 1.258 . S
O205 Co180 2.020 . S
O205 C207 1.256 . S
O206 Co182 2.062 . S
O206 C207 1.255 . S
C207 O205 1.256 . S
C207 O206 1.255 . S
H208 C187 0.931 . S
H209 C195 0.931 . S
Co210 N215 2.057 . S
Co210 O227 2.021 . S
Co210 O230 2.062 . S
Co210 O234 2.117 . S
Co210 O235 2.020 . S
C211 O231 1.259 . S
C211 O234 1.258 . S
Co212 N221 2.057 . S
Co212 O228 2.117 . S
Co212 O229 2.020 . S
Co212 O231 2.021 . S
Co212 O236 2.062 . S
C213 N215 1.316 . S
C213 N216 1.347 . S
C213 H218 0.931 . S
C214 N215 1.375 . S
C214 C217 1.350 . S
C214 H219 0.930 . S
N215 Co210 2.057 . S
N215 C213 1.316 . S
N215 C214 1.375 . S
N216 C213 1.347 . S
N216 C217 1.373 . S
C217 C214 1.350 . S
C217 N216 1.373 . S
C217 H238 0.931 . S
H218 C213 0.931 . S
H219 C214 0.930 . S
C220 O227 1.259 . S
C220 O228 1.258 . S
N221 Co212 2.057 . S
N221 C222 1.316 . S
N221 C223 1.375 . S
C222 N221 1.316 . S
C222 N224 1.347 . S
C222 H233 0.931 . S
C223 N221 1.375 . S
C223 C225 1.350 . S
C223 H232 0.930 . S
N224 C222 1.347 . S
N224 C225 1.373 . S
C225 C223 1.350 . S
C225 N224 1.373 . S
C225 H239 0.931 . S
C226 O229 1.256 . S
C226 O230 1.255 . S
O227 Co210 2.021 . S
O227 C220 1.259 . S
O228 Co212 2.117 . S
O228 C220 1.258 . S
O229 Co212 2.020 . S
O229 C226 1.256 . S
O230 Co210 2.062 . S
O230 C226 1.255 . S
O231 C211 1.259 . S
O231 Co212 2.021 . S
H232 C223 0.930 . S
H233 C222 0.931 . S
O234 Co210 2.117 . S
O234 C211 1.258 . S
O235 Co210 2.020 . S
O235 C237 1.256 . S
O236 Co212 2.062 . S
O236 C237 1.255 . S
C237 O235 1.256 . S
C237 O236 1.255 . S
H238 C217 0.931 . S
H239 C225 0.931 . S
H240 C258 0.954 . S
H241 C260 0.951 . S
H242 C262 0.950 . S
H243 C263 0.950 . S
H244 C265 0.950 . S
H245 C268 0.950 . S
H246 C269 0.950 . S
H247 C271 0.950 . S
H248 C272 0.950 . S
H249 C273 0.951 . S
H250 C275 0.951 . S
H251 C277 0.948 1_556 S
H252 C278 0.945 1_556 S
H253 C280 0.950 . S
H254 C283 0.950 . S
H255 C284 0.950 . S
H256 C286 0.950 . S
H257 C287 0.950 . S
C258 H240 0.954 . S
C258 C259 1.366 . S
C258 C260 1.388 . S
C259 C258 1.366 . S
C259 C263 1.385 . S
C260 H241 0.951 . S
C260 C258 1.388 . S
C260 C261 1.366 . S
C261 C260 1.366 . S
C261 C262 1.414 . S
C261 C264 1.499 . S
C262 H242 0.950 . S
C262 C261 1.414 . S
C262 C263 1.374 . S
C263 H243 0.950 . S
C263 C259 1.385 . S
C263 C262 1.374 . S
C264 C261 1.499 . S
C264 C265 1.373 1_554 S
C264 C266 1.389 . S
C265 H244 0.950 . S
C265 C264 1.373 1_556 S
C265 C281 1.377 . S
C266 C264 1.389 . S
C266 C267 1.524 . S
C266 C280 1.377 . S
C267 C266 1.524 . S
C267 C268 1.397 . S
C267 C272 1.363 . S
C268 H245 0.950 . S
C268 C267 1.397 . S
C268 C269 1.334 . S
C269 H246 0.950 . S
C269 C268 1.334 . S
C269 C270 1.287 . S
C270 C269 1.287 . S
C270 C271 1.524 . S
C270 H289 0.913 . S
C271 H247 0.950 . S
C271 C270 1.524 . S
C271 C272 1.415 . S
C272 H248 0.950 . S
C272 C267 1.363 . S
C272 C271 1.415 . S
C273 H249 0.951 . S
C273 C274 1.366 . S
C273 C275 1.388 . S
C274 C273 1.366 . S
C274 C278 1.385 . S
C275 H250 0.951 . S
C275 C273 1.388 . S
C275 C276 1.366 . S
C276 C275 1.366 . S
C276 C277 1.414 . S
C276 C279 1.499 . S
C277 H251 0.948 1_554 S
C277 C276 1.414 . S
C277 C278 1.374 . S
C278 H252 0.945 1_554 S
C278 C274 1.385 . S
C278 C277 1.374 . S
C279 C276 1.499 . S
C279 C280 1.373 . S
C279 C281 1.389 1_554 S
C280 H253 0.950 . S
C280 C266 1.377 . S
C280 C279 1.373 . S
C281 C265 1.377 . S
C281 C279 1.389 1_556 S
C281 C282 1.524 . S
C282 C281 1.524 . S
C282 C283 1.397 . S
C282 C287 1.363 . S
C283 H254 0.950 . S
C283 C282 1.397 . S
C283 C284 1.334 . S
C284 H255 0.950 . S
C284 C283 1.334 . S
C284 C285 1.287 . S
C285 C284 1.287 . S
C285 C286 1.524 . S
C285 H288 0.999 . S
C286 H256 0.950 . S
C286 C285 1.524 . S
C286 C287 1.415 . S
C287 H257 0.950 . S
C287 C282 1.363 . S
C287 C286 1.415 . S
H288 C285 0.999 . S
H289 C270 0.913 . S
H290 C308 0.951 1_556 S
H291 C310 0.946 1_556 S
H292 C312 0.950 . S
H293 C313 0.950 . S
H294 C315 0.950 . S
H295 C318 0.950 . S
H296 C319 0.950 . S
H297 C321 0.950 . S
H298 C322 0.950 . S
H299 C323 0.951 . S
H300 C325 0.951 . S
H301 C327 0.950 1_556 S
H302 C328 0.944 1_556 S
H303 C330 0.950 . S
H304 C333 0.950 . S
H305 C334 0.950 . S
H306 C336 0.950 . S
H307 C337 0.950 . S
C308 H290 0.951 1_554 S
C308 C309 1.366 . S
C308 C310 1.390 . S
C309 C308 1.366 . S
C309 C313 1.385 . S
C310 H291 0.946 1_554 S
C310 C308 1.390 . S
C310 C311 1.369 . S
C311 C310 1.369 . S
C311 C312 1.414 . S
C311 C314 1.499 . S
C312 H292 0.950 . S
C312 C311 1.414 . S
C312 C313 1.374 . S
C313 H293 0.950 . S
C313 C309 1.385 . S
C313 C312 1.374 . S
C314 C311 1.499 . S
C314 C315 1.373 . S
C314 C316 1.389 1_554 S
C315 H294 0.950 . S
C315 C314 1.373 . S
C315 C331 1.377 . S
C316 C314 1.389 1_556 S
C316 C317 1.524 . S
C316 C330 1.377 . S
C317 C316 1.524 . S
C317 C318 1.397 . S
C317 C322 1.363 . S
C318 H295 0.950 . S
C318 C317 1.397 . S
C318 C319 1.334 . S
C319 H296 0.950 . S
C319 C318 1.334 . S
C319 C320 1.287 . S
C320 C319 1.287 . S
C320 C321 1.524 . S
C320 H339 0.913 . S
C321 H297 0.950 . S
C321 C320 1.524 . S
C321 C322 1.415 . S
C322 H298 0.950 . S
C322 C317 1.363 . S
C322 C321 1.415 . S
C323 H299 0.951 . S
C323 C324 1.366 . S
C323 C325 1.388 . S
C324 C323 1.366 . S
C324 C328 1.389 . S
C325 H300 0.951 . S
C325 C323 1.388 . S
C325 C326 1.366 . S
C326 C325 1.366 . S
C326 C327 1.414 . S
C326 C329 1.499 . S
C327 H301 0.950 1_554 S
C327 C326 1.414 . S
C327 C328 1.377 . S
C328 H302 0.944 1_554 S
C328 C324 1.389 . S
C328 C327 1.377 . S
C329 C326 1.499 . S
C329 C330 1.373 1_554 S
C329 C331 1.389 . S
C330 H303 0.950 . S
C330 C316 1.377 . S
C330 C329 1.373 1_556 S
C331 C315 1.377 . S
C331 C329 1.389 . S
C331 C332 1.524 . S
C332 C331 1.524 . S
C332 C333 1.397 . S
C332 C337 1.363 . S
C333 H304 0.950 . S
C333 C332 1.397 . S
C333 C334 1.334 . S
C334 H305 0.950 . S
C334 C333 1.334 . S
C334 C335 1.287 . S
C335 C334 1.287 . S
C335 C336 1.524 . S
C335 H338 0.999 . S
C336 H306 0.950 . S
C336 C335 1.524 . S
C336 C337 1.415 . S
C337 H307 0.950 . S
C337 C332 1.363 . S
C337 C336 1.415 . S
H338 C335 0.999 . S
H339 C320 0.913 . S
H340 C358 0.951 . S
H341 C360 0.951 . S
H342 C362 0.950 . S
H343 C363 0.950 . S
H344 C365 0.950 . S
H345 C368 0.950 . S
H346 C369 0.950 . S
H347 C371 0.950 . S
H348 C372 0.950 . S
H349 C373 0.951 . S
H350 C375 0.951 . S
H351 C377 0.950 . S
H352 C378 0.950 . S
H353 C380 0.950 . S
H354 C383 0.950 . S
H355 C384 0.950 . S
H356 C386 0.950 . S
H357 C387 0.950 . S
C358 H340 0.951 . S
C358 C359 1.366 . S
C358 C360 1.388 . S
C359 C358 1.366 . S
C359 C363 1.385 . S
C360 H341 0.951 . S
C360 C358 1.388 . S
C360 C361 1.366 . S
C361 C360 1.366 . S
C361 C362 1.414 . S
C361 C364 1.499 . S
C362 H342 0.950 . S
C362 C361 1.414 . S
C362 C363 1.374 . S
C363 H343 0.950 . S
C363 C359 1.385 . S
C363 C362 1.374 . S
C364 C361 1.499 . S
C364 C365 1.373 . S
C364 C366 1.389 . S
C365 H344 0.950 . S
C365 C364 1.373 . S
C365 C381 1.377 . S
C366 C364 1.389 . S
C366 C367 1.524 . S
C366 C380 1.377 . S
C367 C366 1.524 . S
C367 C368 1.397 . S
C367 C372 1.363 . S
C368 H345 0.950 . S
C368 C367 1.397 . S
C368 C369 1.334 . S
C369 H346 0.950 . S
C369 C368 1.334 . S
C369 C370 1.287 . S
C370 C369 1.287 . S
C370 C371 1.524 . S
C370 H389 0.913 . S
C371 H347 0.950 . S
C371 C370 1.524 . S
C371 C372 1.415 . S
C372 H348 0.950 . S
C372 C367 1.363 . S
C372 C371 1.415 . S
C373 H349 0.951 . S
C373 C374 1.366 . S
C373 C375 1.388 . S
C374 C373 1.366 . S
C374 C378 1.385 . S
C375 H350 0.951 . S
C375 C373 1.388 . S
C375 C376 1.366 . S
C376 C375 1.366 . S
C376 C377 1.414 . S
C376 C379 1.499 . S
C377 H351 0.950 . S
C377 C376 1.414 . S
C377 C378 1.374 . S
C378 H352 0.950 . S
C378 C374 1.385 . S
C378 C377 1.374 . S
C379 C376 1.499 . S
C379 C380 1.373 . S
C379 C381 1.389 . S
C380 H353 0.950 . S
C380 C366 1.377 . S
C380 C379 1.373 . S
C381 C365 1.377 . S
C381 C379 1.389 . S
C381 C382 1.524 . S
C382 C381 1.524 . S
C382 C383 1.397 . S
C382 C387 1.363 . S
C383 H354 0.950 . S
C383 C382 1.397 . S
C383 C384 1.334 . S
C384 H355 0.950 . S
C384 C383 1.334 . S
C384 C385 1.287 . S
C385 C384 1.287 . S
C385 C386 1.524 . S
C385 H388 0.999 . S
C386 H356 0.950 . S
C386 C385 1.524 . S
C386 C387 1.415 . S
C387 H357 0.950 . S
C387 C382 1.363 . S
C387 C386 1.415 . S
H388 C385 0.999 . S
H389 C370 0.913 . S
H390 C408 0.951 . S
H391 C410 0.951 . S
H392 C412 0.950 . S
H393 C413 0.950 . S
H394 C415 0.950 . S
H395 C418 0.950 . S
H396 C419 0.950 . S
H397 C421 0.950 . S
H398 C422 0.950 . S
H399 C423 0.951 . S
H400 C425 0.951 . S
H401 C427 0.950 . S
H402 C428 0.950 . S
H403 C430 0.950 . S
H404 C433 0.950 . S
H405 C434 0.950 . S
H406 C436 0.950 . S
H407 C437 0.950 . S
C408 H390 0.951 . S
C408 C409 1.366 . S
C408 C410 1.388 . S
C409 C408 1.366 . S
C409 C413 1.385 . S
C410 H391 0.951 . S
C410 C408 1.388 . S
C410 C411 1.366 . S
C411 C410 1.366 . S
C411 C412 1.414 . S
C411 C414 1.499 . S
C412 H392 0.950 . S
C412 C411 1.414 . S
C412 C413 1.374 . S
C413 H393 0.950 . S
C413 C409 1.385 . S
C413 C412 1.374 . S
C414 C411 1.499 . S
C414 C415 1.373 . S
C414 C416 1.389 . S
C415 H394 0.950 . S
C415 C414 1.373 . S
C415 C431 1.377 . S
C416 C414 1.389 . S
C416 C417 1.524 . S
C416 C430 1.377 . S
C417 C416 1.524 . S
C417 C418 1.397 . S
C417 C422 1.363 . S
C418 H395 0.950 . S
C418 C417 1.397 . S
C418 C419 1.334 . S
C419 H396 0.950 . S
C419 C418 1.334 . S
C419 C420 1.287 . S
C420 C419 1.287 . S
C420 C421 1.524 . S
C420 H439 0.913 . S
C421 H397 0.950 . S
C421 C420 1.524 . S
C421 C422 1.415 . S
C422 H398 0.950 . S
C422 C417 1.363 . S
C422 C421 1.415 . S
C423 H399 0.951 . S
C423 C424 1.366 . S
C423 C425 1.388 . S
C424 C423 1.366 . S
C424 C428 1.385 . S
C425 H400 0.951 . S
C425 C423 1.388 . S
C425 C426 1.366 . S
C426 C425 1.366 . S
C426 C427 1.414 . S
C426 C429 1.499 . S
C427 H401 0.950 . S
C427 C426 1.414 . S
C427 C428 1.374 . S
C428 H402 0.950 . S
C428 C424 1.385 . S
C428 C427 1.374 . S
C429 C426 1.499 . S
C429 C430 1.373 . S
C429 C431 1.389 . S
C430 H403 0.950 . S
C430 C416 1.377 . S
C430 C429 1.373 . S
C431 C415 1.377 . S
C431 C429 1.389 . S
C431 C432 1.524 . S
C432 C431 1.524 . S
C432 C433 1.397 . S
C432 C437 1.363 . S
C433 H404 0.950 . S
C433 C432 1.397 . S
C433 C434 1.334 . S
C434 H405 0.950 . S
C434 C433 1.334 . S
C434 C435 1.287 . S
C435 C434 1.287 . S
C435 C436 1.524 . S
C435 H438 0.999 . S
C436 H406 0.950 . S
C436 C435 1.524 . S
C436 C437 1.415 . S
C437 H407 0.950 . S
C437 C432 1.363 . S
C437 C436 1.415 . S
H438 C435 0.999 . S
H439 C420 0.913 . S
H440 C458 0.951 . S
H441 C460 0.951 . S
H442 C462 0.950 . S
H443 C463 0.950 . S
H444 C465 0.950 . S
H445 C468 0.950 . S
H446 C469 0.950 . S
H447 C471 0.950 1_455 S
H448 C472 0.950 . S
H449 C473 0.951 . S
H450 C475 0.951 . S
H451 C477 0.950 . S
H452 C478 0.950 . S
H453 C480 0.950 . S
H454 C483 0.950 . S
H455 C484 0.950 . S
H456 C486 0.950 . S
H457 C487 0.950 . S
C458 H440 0.951 . S
C458 C459 1.366 . S
C458 C460 1.388 . S
C459 C458 1.366 . S
C459 C463 1.385 . S
C460 H441 0.951 . S
C460 C458 1.388 . S
C460 C461 1.366 . S
C461 C460 1.366 . S
C461 C462 1.414 . S
C461 C464 1.499 1_655 S
C462 H442 0.950 . S
C462 C461 1.414 . S
C462 C463 1.374 . S
C463 H443 0.950 . S
C463 C459 1.385 . S
C463 C462 1.374 . S
C464 C461 1.499 1_455 S
C464 C465 1.373 1_554 S
C464 C466 1.389 . S
C465 H444 0.950 . S
C465 C464 1.373 1_556 S
C465 C481 1.377 . S
C466 C464 1.389 . S
C466 C467 1.524 . S
C466 C480 1.377 . S
C467 C466 1.524 . S
C467 C468 1.397 1_455 S
C467 C472 1.363 . S
C468 H445 0.950 . S
C468 C467 1.397 1_655 S
C468 C469 1.334 . S
C469 H446 0.950 . S
C469 C468 1.334 . S
C469 C470 1.287 . S
C470 C469 1.287 . S
C470 C471 1.524 . S
C470 H489 0.913 . S
C471 H447 0.950 1_655 S
C471 C470 1.524 . S
C471 C472 1.415 1_655 S
C472 H448 0.950 . S
C472 C467 1.363 . S
C472 C471 1.415 1_455 S
C473 H449 0.951 . S
C473 C474 1.366 . S
C473 C475 1.388 . S
C474 C473 1.366 . S
C474 C478 1.385 . S
C475 H450 0.951 . S
C475 C473 1.388 . S
C475 C476 1.366 . S
C476 C475 1.366 . S
C476 C477 1.414 . S
C476 C479 1.499 . S
C477 H451 0.950 . S
C477 C476 1.414 . S
C477 C478 1.374 . S
C478 H452 0.950 . S
C478 C474 1.385 . S
C478 C477 1.374 . S
C479 C476 1.499 . S
C479 C480 1.373 . S
C479 C481 1.389 1_554 S
C480 H453 0.950 . S
C480 C466 1.377 . S
C480 C479 1.373 . S
C481 C465 1.377 . S
C481 C479 1.389 1_556 S
C481 C482 1.524 . S
C482 C481 1.524 . S
C482 C483 1.397 . S
C482 C487 1.363 . S
C483 H454 0.950 . S
C483 C482 1.397 . S
C483 C484 1.334 . S
C484 H455 0.950 . S
C484 C483 1.334 . S
C484 C485 1.287 . S
C485 C484 1.287 . S
C485 C486 1.524 . S
C485 H488 0.999 . S
C486 H456 0.950 . S
C486 C485 1.524 . S
C486 C487 1.415 . S
C487 H457 0.950 . S
C487 C482 1.363 . S
C487 C486 1.415 . S
H488 C485 0.999 . S
H489 C470 0.913 . S
H490 C508 0.951 . S
H491 C510 0.951 . S
H492 C512 0.950 . S
H493 C513 0.950 . S
H494 C515 0.948 1_556 S
H495 C518 0.950 . S
H496 C519 0.950 . S
H497 C521 0.950 . S
H498 C522 0.950 . S
H499 C523 0.951 . S
H500 C525 0.951 . S
H501 C527 0.950 . S
H502 C528 0.950 . S
H503 C530 0.950 . S
H504 C533 0.950 . S
H505 C534 0.950 . S
H506 C536 0.950 . S
H507 C537 0.950 . S
C508 H490 0.951 . S
C508 C509 1.366 . S
C508 C510 1.388 . S
C509 C508 1.366 . S
C509 C513 1.385 1_554 S
C510 H491 0.951 . S
C510 C508 1.388 . S
C510 C511 1.366 . S
C511 C510 1.366 . S
C511 C512 1.414 1_554 S
C511 C514 1.499 1_455 S
C512 H492 0.950 . S
C512 C511 1.414 1_556 S
C512 C513 1.374 . S
C513 H493 0.950 . S
C513 C509 1.385 1_556 S
C513 C512 1.374 . S
C514 C511 1.499 1_655 S
C514 C515 1.374 . S
C514 C516 1.389 . S
C515 H494 0.948 1_554 S
C515 C514 1.374 . S
C515 C531 1.378 . S
C516 C514 1.389 . S
C516 C517 1.524 . S
C516 C530 1.377 . S
C517 C516 1.524 . S
C517 C518 1.397 1_654 S
C517 C522 1.363 . S
C518 H495 0.950 . S
C518 C517 1.397 1_456 S
C518 C519 1.334 . S
C519 H496 0.950 . S
C519 C518 1.334 . S
C519 C520 1.287 1_556 S
C520 C519 1.287 1_554 S
C520 C521 1.524 1_455 S
C520 H539 0.913 . S
C521 H497 0.950 . S
C521 C520 1.524 1_655 S
C521 C522 1.415 . S
C522 H498 0.950 . S
C522 C517 1.363 . S
C522 C521 1.415 . S
C523 H499 0.951 . S
C523 C524 1.366 1_556 S
C523 C525 1.388 . S
C524 C523 1.366 1_554 S
C524 C528 1.385 . S
C525 H500 0.951 . S
C525 C523 1.388 . S
C525 C526 1.366 1_556 S
C526 C525 1.366 1_554 S
C526 C527 1.414 . S
C526 C529 1.499 . S
C527 H501 0.950 . S
C527 C526 1.414 . S
C527 C528 1.374 . S
C528 H502 0.950 . S
C528 C524 1.385 . S
C528 C527 1.374 . S
C529 C526 1.499 . S
C529 C530 1.373 . S
C529 C531 1.389 . S
C530 H503 0.950 . S
C530 C516 1.377 . S
C530 C529 1.373 . S
C531 C515 1.378 . S
C531 C529 1.389 . S
C531 C532 1.526 . S
C532 C531 1.526 . S
C532 C533 1.422 . S
C532 C537 1.340 1_554 S
C533 H504 0.950 . S
C533 C532 1.422 . S
C533 C534 1.334 . S
C534 H505 0.950 . S
C534 C533 1.334 . S
C534 C535 1.287 . S
C535 C534 1.287 . S
C535 C536 1.524 1_554 S
C535 H538 0.999 . S
C536 H506 0.950 . S
C536 C535 1.524 1_556 S
C536 C537 1.415 . S
C537 H507 0.950 . S
C537 C532 1.340 1_556 S
C537 C536 1.415 . S
H538 C535 0.999 . S
H539 C520 0.913 . S
H540 C558 0.951 . S
H541 C560 0.951 . S
H542 C562 0.950 . S
H543 C563 0.950 . S
H544 C565 0.950 . S
H545 C568 0.950 . S
H546 C569 0.950 . S
H547 C571 0.950 . S
H548 C572 0.950 . S
H549 C573 0.951 . S
H550 C575 0.951 . S
H551 C577 0.950 . S
H552 C578 0.950 . S
H553 C580 0.950 . S
H554 C583 0.950 . S
H555 C584 0.950 . S
H556 C586 0.950 . S
H557 C587 0.950 . S
C558 H540 0.951 . S
C558 C559 1.366 . S
C558 C560 1.388 . S
C559 C558 1.366 . S
C559 C563 1.385 . S
C560 H541 0.951 . S
C560 C558 1.388 . S
C560 C561 1.366 . S
C561 C560 1.366 . S
C561 C562 1.414 . S
C561 C564 1.499 . S
C562 H542 0.950 . S
C562 C561 1.414 . S
C562 C563 1.374 . S
C563 H543 0.950 . S
C563 C559 1.385 . S
C563 C562 1.374 . S
C564 C561 1.499 . S
C564 C565 1.373 . S
C564 C566 1.389 . S
C565 H544 0.950 . S
C565 C564 1.373 . S
C565 C581 1.377 . S
C566 C564 1.389 . S
C566 C567 1.524 . S
C566 C580 1.377 . S
C567 C566 1.524 . S
C567 C568 1.397 . S
C567 C572 1.363 . S
C568 H545 0.950 . S
C568 C567 1.397 . S
C568 C569 1.334 . S
C569 H546 0.950 . S
C569 C568 1.334 . S
C569 C570 1.287 . S
C570 C569 1.287 . S
C570 C571 1.524 . S
C570 H589 0.913 . S
C571 H547 0.950 . S
C571 C570 1.524 . S
C571 C572 1.415 . S
C572 H548 0.950 . S
C572 C567 1.363 . S
C572 C571 1.415 . S
C573 H549 0.951 . S
C573 C574 1.366 . S
C573 C575 1.388 . S
C574 C573 1.366 . S
C574 C578 1.385 . S
C575 H550 0.951 . S
C575 C573 1.388 . S
C575 C576 1.366 . S
C576 C575 1.366 . S
C576 C577 1.414 . S
C576 C579 1.499 1_655 S
C577 H551 0.950 . S
C577 C576 1.414 . S
C577 C578 1.374 . S
C578 H552 0.950 . S
C578 C574 1.385 . S
C578 C577 1.374 . S
C579 C576 1.499 1_455 S
C579 C580 1.373 . S
C579 C581 1.389 . S
C580 H553 0.950 . S
C580 C566 1.377 . S
C580 C579 1.373 . S
C581 C565 1.377 . S
C581 C579 1.389 . S
C581 C582 1.524 . S
C582 C581 1.524 . S
C582 C583 1.397 1_455 S
C582 C587 1.363 . S
C583 H554 0.950 . S
C583 C582 1.397 1_655 S
C583 C584 1.334 . S
C584 H555 0.950 . S
C584 C583 1.334 . S
C584 C585 1.287 . S
C585 C584 1.287 . S
C585 C586 1.524 1_655 S
C585 H588 0.999 . S
C586 H556 0.950 . S
C586 C585 1.524 1_455 S
C586 C587 1.415 . S
C587 H557 0.950 . S
C587 C582 1.363 . S
C587 C586 1.415 . S
H588 C585 0.999 . S
H589 C570 0.913 . S
H590 C608 0.951 . S
H591 C610 0.951 . S
H592 C612 0.950 . S
H593 C613 0.950 . S
H594 C615 0.950 . S
H595 C618 0.950 . S
H596 C619 0.950 . S
H597 C621 0.950 . S
H598 C622 0.950 . S
H599 C623 0.951 . S
H600 C625 0.951 . S
H601 C627 0.950 . S
H602 C628 0.950 . S
H603 C630 0.950 . S
H604 C633 0.950 . S
H605 C634 0.950 . S
H606 C636 0.950 . S
H607 C637 0.950 . S
C608 H590 0.951 . S
C608 C609 1.366 . S
C608 C610 1.388 . S
C609 C608 1.366 . S
C609 C613 1.385 . S
C610 H591 0.951 . S
C610 C608 1.388 . S
C610 C611 1.366 . S
C611 C610 1.366 . S
C611 C612 1.414 . S
C611 C614 1.499 . S
C612 H592 0.950 . S
C612 C611 1.414 . S
C612 C613 1.374 . S
C613 H593 0.950 . S
C613 C609 1.385 . S
C613 C612 1.374 . S
C614 C611 1.499 . S
C614 C615 1.373 . S
C614 C616 1.389 . S
C615 H594 0.950 . S
C615 C614 1.373 . S
C615 C631 1.377 . S
C616 C614 1.389 . S
C616 C617 1.524 . S
C616 C630 1.377 . S
C617 C616 1.524 . S
C617 C618 1.397 . S
C617 C622 1.363 . S
C618 H595 0.950 . S
C618 C617 1.397 . S
C618 C619 1.334 . S
C619 H596 0.950 . S
C619 C618 1.334 . S
C619 C620 1.287 . S
C620 C619 1.287 . S
C620 C621 1.524 . S
C620 H639 0.913 . S
C621 H597 0.950 . S
C621 C620 1.524 . S
C621 C622 1.415 . S
C622 H598 0.950 . S
C622 C617 1.363 . S
C622 C621 1.415 . S
C623 H599 0.951 . S
C623 C624 1.366 . S
C623 C625 1.388 . S
C624 C623 1.366 . S
C624 C628 1.385 . S
C625 H600 0.951 . S
C625 C623 1.388 . S
C625 C626 1.366 . S
C626 C625 1.366 . S
C626 C627 1.414 . S
C626 C629 1.499 1_455 S
C627 H601 0.950 . S
C627 C626 1.414 . S
C627 C628 1.374 . S
C628 H602 0.950 . S
C628 C624 1.385 . S
C628 C627 1.374 . S
C629 C626 1.499 1_655 S
C629 C630 1.373 . S
C629 C631 1.389 . S
C630 H603 0.950 . S
C630 C616 1.377 . S
C630 C629 1.373 . S
C631 C615 1.377 . S
C631 C629 1.389 . S
C631 C632 1.524 . S
C632 C631 1.524 . S
C632 C633 1.397 1_655 S
C632 C637 1.363 . S
C633 H604 0.950 . S
C633 C632 1.397 1_455 S
C633 C634 1.334 . S
C634 H605 0.950 . S
C634 C633 1.334 . S
C634 C635 1.287 . S
C635 C634 1.287 . S
C635 C636 1.524 1_455 S
C635 H638 0.999 . S
C636 H606 0.950 . S
C636 C635 1.524 1_655 S
C636 C637 1.415 . S
C637 H607 0.950 . S
C637 C632 1.363 . S
C637 C636 1.415 . S
H638 C635 0.999 . S
H639 C620 0.913 . S
H640 C658 0.951 . S
H641 C660 0.951 . S
H642 C662 0.951 . S
H643 C663 0.950 1_455 S
H644 C665 0.950 . S
H645 C668 0.950 . S
H646 C669 0.950 . S
H647 C671 0.950 . S
H648 C672 0.950 . S
H649 C673 0.951 . S
H650 C675 0.951 . S
H651 C677 0.951 . S
H652 C678 0.950 1_655 S
H653 C680 0.950 . S
H654 C683 0.950 . S
H655 C684 0.950 . S
H656 C686 0.950 . S
H657 C687 0.950 . S
C658 H640 0.951 . S
C658 C659 1.366 . S
C658 C660 1.388 . S
C659 C658 1.366 . S
C659 C663 1.385 1_554 S
C660 H641 0.951 . S
C660 C658 1.388 . S
C660 C661 1.366 . S
C661 C660 1.366 . S
C661 C662 1.413 1_654 S
C661 C664 1.499 . S
C662 H642 0.951 . S
C662 C661 1.413 1_456 S
C662 C663 1.373 1_455 S
C663 H643 0.950 1_655 S
C663 C659 1.385 1_556 S
C663 C662 1.373 1_655 S
C664 C661 1.499 . S
C664 C665 1.373 1_554 S
C664 C666 1.389 1_655 S
C665 H644 0.950 . S
C665 C664 1.373 1_556 S
C665 C681 1.377 . S
C666 C664 1.389 1_455 S
C666 C667 1.524 . S
C666 C680 1.377 . S
C667 C666 1.524 . S
C667 C668 1.397 . S
C667 C672 1.363 . S
C668 H645 0.950 . S
C668 C667 1.397 . S
C668 C669 1.334 . S
C669 H646 0.950 . S
C669 C668 1.334 . S
C669 C670 1.287 . S
C670 C669 1.287 . S
C670 C671 1.524 . S
C670 H689 0.913 . S
C671 H647 0.950 . S
C671 C670 1.524 . S
C671 C672 1.415 . S
C672 H648 0.950 . S
C672 C667 1.363 . S
C672 C671 1.415 . S
C673 H649 0.951 . S
C673 C674 1.366 1_556 S
C673 C675 1.388 . S
C674 C673 1.366 1_554 S
C674 C678 1.385 . S
C675 H650 0.951 . S
C675 C673 1.388 . S
C675 C676 1.366 1_556 S
C676 C675 1.366 1_554 S
C676 C677 1.413 1_455 S
C676 C679 1.499 . S
C677 H651 0.951 . S
C677 C676 1.413 1_655 S
C677 C678 1.373 1_655 S
C678 H652 0.950 1_455 S
C678 C674 1.385 . S
C678 C677 1.373 1_455 S
C679 C676 1.499 . S
C679 C680 1.373 . S
C679 C681 1.389 1_454 S
C680 H653 0.950 . S
C680 C666 1.377 . S
C680 C679 1.373 . S
C681 C665 1.377 . S
C681 C679 1.389 1_656 S
C681 C682 1.524 . S
C682 C681 1.524 . S
C682 C683 1.397 . S
C682 C687 1.363 . S
C683 H654 0.950 . S
C683 C682 1.397 . S
C683 C684 1.334 . S
C684 H655 0.950 . S
C684 C683 1.334 . S
C684 C685 1.287 . S
C685 C684 1.287 . S
C685 C686 1.524 . S
C685 H688 0.999 . S
C686 H656 0.950 . S
C686 C685 1.524 . S
C686 C687 1.415 . S
C687 H657 0.950 . S
C687 C682 1.363 . S
C687 C686 1.415 . S
H688 C685 0.999 . S
H689 C670 0.913 . S
H690 C708 0.951 . S
H691 C710 0.951 . S
H692 C712 0.950 . S
H693 C713 0.950 . S
H694 C715 0.950 . S
H695 C718 0.950 . S
H696 C719 0.950 . S
H697 C721 0.950 . S
H698 C722 0.950 . S
H699 C723 0.951 . S
H700 C725 0.951 . S
H701 C727 0.950 . S
H702 C728 0.950 . S
H703 C730 0.950 . S
H704 C733 0.950 . S
H705 C734 0.950 . S
H706 C736 0.950 . S
H707 C737 0.950 . S
C708 H690 0.951 . S
C708 C709 1.366 1_455 S
C708 C710 1.388 . S
C709 C708 1.366 1_655 S
C709 C713 1.385 . S
C710 H691 0.951 . S
C710 C708 1.388 . S
C710 C711 1.366 1_455 S
C711 C710 1.366 1_655 S
C711 C712 1.414 . S
C711 C714 1.499 . S
C712 H692 0.950 . S
C712 C711 1.414 . S
C712 C713 1.374 . S
C713 H693 0.950 . S
C713 C709 1.385 . S
C713 C712 1.374 . S
C714 C711 1.499 . S
C714 C715 1.373 . S
C714 C716 1.389 1_655 S
C715 H694 0.950 . S
C715 C714 1.373 . S
C715 C731 1.377 . S
C716 C714 1.389 1_455 S
C716 C717 1.524 . S
C716 C730 1.377 . S
C717 C716 1.524 . S
C717 C718 1.397 1_455 S
C717 C722 1.363 . S
C718 H695 0.950 . S
C718 C717 1.397 1_655 S
C718 C719 1.334 . S
C719 H696 0.950 . S
C719 C718 1.334 . S
C719 C720 1.287 1_655 S
C720 C719 1.287 1_455 S
C720 C721 1.524 . S
C720 H739 0.913 . S
C721 H697 0.950 . S
C721 C720 1.524 . S
C721 C722 1.415 . S
C722 H698 0.950 . S
C722 C717 1.363 . S
C722 C721 1.415 . S
C723 H699 0.951 . S
C723 C724 1.366 1_655 S
C723 C725 1.388 . S
C724 C723 1.366 1_455 S
C724 C728 1.385 . S
C725 H700 0.951 . S
C725 C723 1.388 . S
C725 C726 1.366 1_655 S
C726 C725 1.366 1_455 S
C726 C727 1.414 . S
C726 C729 1.499 . S
C727 H701 0.950 . S
C727 C726 1.414 . S
C727 C728 1.374 . S
C728 H702 0.950 . S
C728 C724 1.385 . S
C728 C727 1.374 . S
C729 C726 1.499 . S
C729 C730 1.373 . S
C729 C731 1.389 1_455 S
C730 H703 0.950 . S
C730 C716 1.377 . S
C730 C729 1.373 . S
C731 C715 1.377 . S
C731 C729 1.389 1_655 S
C731 C732 1.524 . S
C732 C731 1.524 . S
C732 C733 1.397 1_655 S
C732 C737 1.363 . S
C733 H704 0.950 . S
C733 C732 1.397 1_455 S
C733 C734 1.334 . S
C734 H705 0.950 . S
C734 C733 1.334 . S
C734 C735 1.287 1_455 S
C735 C734 1.287 1_655 S
C735 C736 1.524 . S
C735 H738 0.999 . S
C736 H706 0.950 . S
C736 C735 1.524 . S
C736 C737 1.415 . S
C737 H707 0.950 . S
C737 C732 1.363 . S
C737 C736 1.415 . S
H738 C735 0.999 . S
H739 C720 0.913 . S
H740 C758 0.951 . S
H741 C760 0.951 . S
H742 C762 0.950 . S
H743 C763 0.950 . S
H744 C765 0.950 . S
H745 C768 0.950 1_554 S
H746 C769 0.950 . S
H747 C771 0.950 . S
H748 C772 0.950 . S
H749 C773 0.951 . S
H750 C775 0.951 . S
H751 C777 0.950 . S
H752 C778 0.950 . S
H753 C780 0.950 . S
H754 C783 0.950 . S
H755 C784 0.950 . S
H756 C786 0.950 . S
H757 C787 0.950 . S
C758 H740 0.951 . S
C758 C759 1.366 1_556 S
C758 C760 1.388 . S
C759 C758 1.366 1_554 S
C759 C763 1.385 . S
C760 H741 0.951 . S
C760 C758 1.388 . S
C760 C761 1.366 1_556 S
C761 C760 1.366 1_554 S
C761 C762 1.414 . S
C761 C764 1.499 . S
C762 H742 0.950 . S
C762 C761 1.414 . S
C762 C763 1.374 . S
C763 H743 0.950 . S
C763 C759 1.385 . S
C763 C762 1.374 . S
C764 C761 1.499 . S
C764 C765 1.373 . S
C764 C766 1.389 1_554 S
C765 H744 0.950 . S
C765 C764 1.373 . S
C765 C781 1.377 1_565 S
C766 C764 1.389 1_556 S
C766 C767 1.524 . S
C766 C780 1.377 1_565 S
C767 C766 1.524 . S
C767 C768 1.397 . S
C767 C772 1.363 . S
C768 H745 0.950 1_556 S
C768 C767 1.397 . S
C768 C769 1.334 . S
C769 H746 0.950 . S
C769 C768 1.334 . S
C769 C770 1.287 . S
C770 C769 1.287 . S
C770 C771 1.524 . S
C770 H789 0.913 . S
C771 H747 0.950 . S
C771 C770 1.524 . S
C771 C772 1.415 . S
C772 H748 0.950 . S
C772 C767 1.363 . S
C772 C771 1.415 . S
C773 H749 0.951 . S
C773 C774 1.366 . S
C773 C775 1.388 . S
C774 C773 1.366 . S
C774 C778 1.385 1_554 S
C775 H750 0.951 . S
C775 C773 1.388 . S
C775 C776 1.366 . S
C776 C775 1.366 . S
C776 C777 1.414 1_554 S
C776 C779 1.499 . S
C777 H751 0.950 . S
C777 C776 1.414 1_556 S
C777 C778 1.374 . S
C778 H752 0.950 . S
C778 C774 1.385 1_556 S
C778 C777 1.374 . S
C779 C776 1.499 . S
C779 C780 1.373 1_554 S
C779 C781 1.389 . S
C780 H753 0.950 . S
C780 C766 1.377 1_545 S
C780 C779 1.373 1_556 S
C781 C765 1.377 1_545 S
C781 C779 1.389 . S
C781 C782 1.524 . S
C782 C781 1.524 . S
C782 C783 1.397 . S
C782 C787 1.363 . S
C783 H754 0.950 . S
C783 C782 1.397 . S
C783 C784 1.334 . S
C784 H755 0.950 . S
C784 C783 1.334 . S
C784 C785 1.287 . S
C785 C784 1.287 . S
C785 C786 1.524 . S
C785 H788 0.999 . S
C786 H756 0.950 . S
C786 C785 1.524 . S
C786 C787 1.415 . S
C787 H757 0.950 . S
C787 C782 1.363 . S
C787 C786 1.415 . S
H788 C785 0.999 . S
H789 C770 0.913 . S
H790 C808 0.951 . S
H791 C810 0.951 . S
H792 C812 0.950 . S
H793 C813 0.950 . S
H794 C815 0.950 . S
H795 C818 0.950 . S
H796 C819 0.950 . S
H797 C821 0.950 . S
H798 C822 0.950 . S
H799 C823 0.951 . S
H800 C825 0.951 . S
H801 C827 0.950 . S
H802 C828 0.950 . S
H803 C830 0.950 . S
H804 C833 0.950 . S
H805 C834 0.950 . S
H806 C836 0.950 . S
H807 C837 0.950 . S
C808 H790 0.951 . S
C808 C809 1.366 . S
C808 C810 1.388 . S
C809 C808 1.366 . S
C809 C813 1.385 . S
C810 H791 0.951 . S
C810 C808 1.388 . S
C810 C811 1.366 . S
C811 C810 1.366 . S
C811 C812 1.414 . S
C811 C814 1.499 . S
C812 H792 0.950 . S
C812 C811 1.414 . S
C812 C813 1.374 . S
C813 H793 0.950 . S
C813 C809 1.385 . S
C813 C812 1.374 . S
C814 C811 1.499 . S
C814 C815 1.373 . S
C814 C816 1.389 . S
C815 H794 0.950 . S
C815 C814 1.373 . S
C815 C831 1.377 1_545 S
C816 C814 1.389 . S
C816 C817 1.524 . S
C816 C830 1.377 1_545 S
C817 C816 1.524 . S
C817 C818 1.397 . S
C817 C822 1.363 . S
C818 H795 0.950 . S
C818 C817 1.397 . S
C818 C819 1.334 . S
C819 H796 0.950 . S
C819 C818 1.334 . S
C819 C820 1.287 . S
C820 C819 1.287 . S
C820 C821 1.524 . S
C820 H839 0.913 . S
C821 H797 0.950 . S
C821 C820 1.524 . S
C821 C822 1.415 . S
C822 H798 0.950 . S
C822 C817 1.363 . S
C822 C821 1.415 . S
C823 H799 0.951 . S
C823 C824 1.366 . S
C823 C825 1.388 . S
C824 C823 1.366 . S
C824 C828 1.385 . S
C825 H800 0.951 . S
C825 C823 1.388 . S
C825 C826 1.366 . S
C826 C825 1.366 . S
C826 C827 1.414 . S
C826 C829 1.499 . S
C827 H801 0.950 . S
C827 C826 1.414 . S
C827 C828 1.374 . S
C828 H802 0.950 . S
C828 C824 1.385 . S
C828 C827 1.374 . S
C829 C826 1.499 . S
C829 C830 1.373 . S
C829 C831 1.389 . S
C830 H803 0.950 . S
C830 C816 1.377 1_565 S
C830 C829 1.373 . S
C831 C815 1.377 1_565 S
C831 C829 1.389 . S
C831 C832 1.524 . S
C832 C831 1.524 . S
C832 C833 1.397 . S
C832 C837 1.363 . S
C833 H804 0.950 . S
C833 C832 1.397 . S
C833 C834 1.334 . S
C834 H805 0.950 . S
C834 C833 1.334 . S
C834 C835 1.287 . S
C835 C834 1.287 . S
C835 C836 1.524 . S
C835 H838 0.999 . S
C836 H806 0.950 . S
C836 C835 1.524 . S
C836 C837 1.415 . S
C837 H807 0.950 . S
C837 C832 1.363 . S
C837 C836 1.415 . S
H838 C835 0.999 . S
H839 C820 0.913 . S
H840 C858 0.951 . S
H841 C860 0.951 . S
H842 C862 0.949 1_556 S
H843 C863 0.946 1_556 S
H844 C865 0.950 . S
H845 C868 0.950 . S
H846 C869 0.950 . S
H847 C871 0.950 . S
H848 C872 0.950 . S
H849 C873 0.956 . S
H850 C875 0.947 1_556 S
H851 C877 0.950 . S
H852 C878 0.950 . S
H853 C880 0.950 . S
H854 C883 0.950 . S
H855 C884 0.950 . S
H856 C886 0.950 . S
H857 C887 0.950 . S
C858 H840 0.951 . S
C858 C859 1.366 . S
C858 C860 1.388 . S
C859 C858 1.366 . S
C859 C863 1.385 . S
C860 H841 0.951 . S
C860 C858 1.388 . S
C860 C861 1.366 . S
C861 C860 1.366 . S
C861 C862 1.414 . S
C861 C864 1.499 . S
C862 H842 0.949 1_554 S
C862 C861 1.414 . S
C862 C863 1.374 . S
C863 H843 0.946 1_554 S
C863 C859 1.385 . S
C863 C862 1.374 . S
C864 C861 1.499 . S
C864 C865 1.373 1_554 S
C864 C866 1.389 . S
C865 H844 0.950 . S
C865 C864 1.373 1_556 S
C865 C881 1.377 . S
C866 C864 1.389 . S
C866 C867 1.524 . S
C866 C880 1.377 . S
C867 C866 1.524 . S
C867 C868 1.397 . S
C867 C872 1.363 . S
C868 H845 0.950 . S
C868 C867 1.397 . S
C868 C869 1.334 . S
C869 H846 0.950 . S
C869 C868 1.334 . S
C869 C870 1.287 . S
C870 C869 1.287 . S
C870 C871 1.524 . S
C870 H889 0.913 . S
C871 H847 0.950 . S
C871 C870 1.524 . S
C871 C872 1.415 . S
C872 H848 0.950 . S
C872 C867 1.363 . S
C872 C871 1.415 . S
C873 H849 0.956 . S
C873 C874 1.366 . S
C873 C875 1.388 . S
C874 C873 1.366 . S
C874 C878 1.385 . S
C875 H850 0.947 1_554 S
C875 C873 1.388 . S
C875 C876 1.366 . S
C876 C875 1.366 . S
C876 C877 1.414 . S
C876 C879 1.499 . S
C877 H851 0.950 . S
C877 C876 1.414 . S
C877 C878 1.374 . S
C878 H852 0.950 . S
C878 C874 1.385 . S
C878 C877 1.374 . S
C879 C876 1.499 . S
C879 C880 1.373 . S
C879 C881 1.389 1_554 S
C880 H853 0.950 . S
C880 C866 1.377 . S
C880 C879 1.373 . S
C881 C865 1.377 . S
C881 C879 1.389 1_556 S
C881 C882 1.524 . S
C882 C881 1.524 . S
C882 C883 1.397 . S
C882 C887 1.363 . S
C883 H854 0.950 . S
C883 C882 1.397 . S
C883 C884 1.334 . S
C884 H855 0.950 . S
C884 C883 1.334 . S
C884 C885 1.287 . S
C885 C884 1.287 . S
C885 C886 1.524 . S
C885 H888 0.999 . S
C886 H856 0.950 . S
C886 C885 1.524 . S
C886 C887 1.415 . S
C887 H857 0.950 . S
C887 C882 1.363 . S
C887 C886 1.415 . S
H888 C885 0.999 . S
H889 C870 0.913 . S
H890 C908 0.951 1_556 S
H891 C910 0.951 1_556 S
H892 C912 0.950 . S
H893 C913 0.950 . S
H894 C915 0.950 . S
H895 C918 0.950 . S
H896 C919 0.950 . S
H897 C921 0.950 . S
H898 C922 0.950 . S
H899 C923 0.951 . S
H900 C925 0.951 . S
H901 C927 0.949 1_556 S
H902 C928 0.949 1_556 S
H903 C930 0.950 . S
H904 C933 0.950 . S
H905 C934 0.950 . S
H906 C936 0.950 . S
H907 C937 0.950 . S
C908 H890 0.951 1_554 S
C908 C909 1.366 . S
C908 C910 1.388 . S
C909 C908 1.366 . S
C909 C913 1.385 . S
C910 H891 0.951 1_554 S
C910 C908 1.388 . S
C910 C911 1.366 . S
C911 C910 1.366 . S
C911 C912 1.414 . S
C911 C914 1.499 . S
C912 H892 0.950 . S
C912 C911 1.414 . S
C912 C913 1.374 . S
C913 H893 0.950 . S
C913 C909 1.385 . S
C913 C912 1.374 . S
C914 C911 1.499 . S
C914 C915 1.373 1_554 S
C914 C916 1.389 . S
C915 H894 0.950 . S
C915 C914 1.373 1_556 S
C915 C931 1.377 . S
C916 C914 1.389 . S
C916 C917 1.524 . S
C916 C930 1.377 . S
C917 C916 1.524 . S
C917 C918 1.397 . S
C917 C922 1.363 . S
C918 H895 0.950 . S
C918 C917 1.397 . S
C918 C919 1.334 . S
C919 H896 0.950 . S
C919 C918 1.334 . S
C919 C920 1.287 . S
C920 C919 1.287 . S
C920 C921 1.524 . S
C920 H939 0.913 . S
C921 H897 0.950 . S
C921 C920 1.524 . S
C921 C922 1.415 . S
C922 H898 0.950 . S
C922 C917 1.363 . S
C922 C921 1.415 . S
C923 H899 0.951 . S
C923 C924 1.366 . S
C923 C925 1.388 . S
C924 C923 1.366 . S
C924 C928 1.385 . S
C925 H900 0.951 . S
C925 C923 1.388 . S
C925 C926 1.366 . S
C926 C925 1.366 . S
C926 C927 1.414 . S
C926 C929 1.499 . S
C927 H901 0.949 1_554 S
C927 C926 1.414 . S
C927 C928 1.374 . S
C928 H902 0.949 1_554 S
C928 C924 1.385 . S
C928 C927 1.374 . S
C929 C926 1.499 . S
C929 C930 1.373 . S
C929 C931 1.389 1_554 S
C930 H903 0.950 . S
C930 C916 1.377 . S
C930 C929 1.373 . S
C931 C915 1.377 . S
C931 C929 1.389 1_556 S
C931 C932 1.524 . S
C932 C931 1.524 . S
C932 C933 1.397 . S
C932 C937 1.363 . S
C933 H904 0.950 . S
C933 C932 1.397 . S
C933 C934 1.334 . S
C934 H905 0.950 . S
C934 C933 1.334 . S
C934 C935 1.287 . S
C935 C934 1.287 . S
C935 C936 1.524 . S
C935 H938 0.999 . S
C936 H906 0.950 . S
C936 C935 1.524 . S
C936 C937 1.415 . S
C937 H907 0.950 . S
C937 C932 1.363 . S
C937 C936 1.415 . S
H938 C935 0.999 . S
H939 C920 0.913 . S
H940 C958 0.951 . S
H941 C960 0.951 . S
H942 C962 0.950 . S
H943 C963 0.950 . S
H944 C965 0.950 . S
H945 C968 0.950 . S
H946 C969 0.950 . S
H947 C971 0.950 . S
H948 C972 0.950 . S
H949 C973 0.951 . S
H950 C975 0.951 . S
H951 C977 0.950 . S
H952 C978 0.950 . S
H953 C980 0.950 . S
H954 C983 0.950 . S
H955 C984 0.950 . S
H956 C986 0.950 . S
H957 C987 0.950 . S
C958 H940 0.951 . S
C958 C959 1.366 . S
C958 C960 1.388 . S
C959 C958 1.366 . S
C959 C963 1.385 . S
C960 H941 0.951 . S
C960 C958 1.388 . S
C960 C961 1.366 . S
C961 C960 1.366 . S
C961 C962 1.414 . S
C961 C964 1.499 . S
C962 H942 0.950 . S
C962 C961 1.414 . S
C962 C963 1.374 . S
C963 H943 0.950 . S
C963 C959 1.385 . S
C963 C962 1.374 . S
C964 C961 1.499 . S
C964 C965 1.373 . S
C964 C966 1.389 . S
C965 H944 0.950 . S
C965 C964 1.373 . S
C965 C981 1.377 . S
C966 C964 1.389 . S
C966 C967 1.524 . S
C966 C980 1.377 . S
C967 C966 1.524 . S
C967 C968 1.397 . S
C967 C972 1.363 . S
C968 H945 0.950 . S
C968 C967 1.397 . S
C968 C969 1.334 . S
C969 H946 0.950 . S
C969 C968 1.334 . S
C969 C970 1.287 . S
C970 C969 1.287 . S
C970 C971 1.524 . S
C970 H989 0.913 . S
C971 H947 0.950 . S
C971 C970 1.524 . S
C971 C972 1.415 . S
C972 H948 0.950 . S
C972 C967 1.363 . S
C972 C971 1.415 . S
C973 H949 0.951 . S
C973 C974 1.366 . S
C973 C975 1.388 . S
C974 C973 1.366 . S
C974 C978 1.385 . S
C975 H950 0.951 . S
C975 C973 1.388 . S
C975 C976 1.366 . S
C976 C975 1.366 . S
C976 C977 1.414 . S
C976 C979 1.499 . S
C977 H951 0.950 . S
C977 C976 1.414 . S
C977 C978 1.374 . S
C978 H952 0.950 . S
C978 C974 1.385 . S
C978 C977 1.374 . S
C979 C976 1.499 . S
C979 C980 1.373 . S
C979 C981 1.389 . S
C980 H953 0.950 . S
C980 C966 1.377 . S
C980 C979 1.373 . S
C981 C965 1.377 . S
C981 C979 1.389 . S
C981 C982 1.524 . S
C982 C981 1.524 . S
C982 C983 1.397 . S
C982 C987 1.363 . S
C983 H954 0.950 . S
C983 C982 1.397 . S
C983 C984 1.334 . S
C984 H955 0.950 . S
C984 C983 1.334 . S
C984 C985 1.287 . S
C985 C984 1.287 . S
C985 C986 1.524 . S
C985 H988 0.999 . S
C986 H956 0.950 . S
C986 C985 1.524 . S
C986 C987 1.415 . S
C987 H957 0.950 . S
C987 C982 1.363 . S
C987 C986 1.415 . S
H988 C985 0.999 . S
H989 C970 0.913 . S
H990 C1008 0.951 . S
H991 C1010 0.951 . S
H992 C1012 0.950 . S
H993 C1013 0.950 . S
H994 C1015 0.950 . S
H995 C1018 0.950 . S
H996 C1019 0.950 . S
H997 C1021 0.950 . S
H998 C1022 0.950 . S
H999 C1023 0.951 . S
H1000 C1025 0.951 . S
H1001 C1027 0.950 . S
H1002 C1028 0.950 . S
H1003 C1030 0.950 . S
H1004 C1033 0.950 . S
H1005 C1034 0.950 . S
H1006 C1036 0.950 . S
H1007 C1037 0.950 . S
C1008 H990 0.951 . S
C1008 C1009 1.366 . S
C1008 C1010 1.388 . S
C1009 C1008 1.366 . S
C1009 C1013 1.385 . S
C1010 H991 0.951 . S
C1010 C1008 1.388 . S
C1010 C1011 1.366 . S
C1011 C1010 1.366 . S
C1011 C1012 1.414 . S
C1011 C1014 1.499 . S
C1012 H992 0.950 . S
C1012 C1011 1.414 . S
C1012 C1013 1.374 . S
C1013 H993 0.950 . S
C1013 C1009 1.385 . S
C1013 C1012 1.374 . S
C1014 C1011 1.499 . S
C1014 C1015 1.373 . S
C1014 C1016 1.389 . S
C1015 H994 0.950 . S
C1015 C1014 1.373 . S
C1015 C1031 1.377 . S
C1016 C1014 1.389 . S
C1016 C1017 1.524 . S
C1016 C1030 1.377 . S
C1017 C1016 1.524 . S
C1017 C1018 1.397 . S
C1017 C1022 1.363 . S
C1018 H995 0.950 . S
C1018 C1017 1.397 . S
C1018 C1019 1.334 . S
C1019 H996 0.950 . S
C1019 C1018 1.334 . S
C1019 C1020 1.287 . S
C1020 C1019 1.287 . S
C1020 C1021 1.524 . S
C1020 H1039 0.913 . S
C1021 H997 0.950 . S
C1021 C1020 1.524 . S
C1021 C1022 1.415 . S
C1022 H998 0.950 . S
C1022 C1017 1.363 . S
C1022 C1021 1.415 . S
C1023 H999 0.951 . S
C1023 C1024 1.366 . S
C1023 C1025 1.388 . S
C1024 C1023 1.366 . S
C1024 C1028 1.385 . S
C1025 H1000 0.951 . S
C1025 C1023 1.388 . S
C1025 C1026 1.366 . S
C1026 C1025 1.366 . S
C1026 C1027 1.414 . S
C1026 C1029 1.499 . S
C1027 H1001 0.950 . S
C1027 C1026 1.414 . S
C1027 C1028 1.374 . S
C1028 H1002 0.950 . S
C1028 C1024 1.385 . S
C1028 C1027 1.374 . S
C1029 C1026 1.499 . S
C1029 C1030 1.373 . S
C1029 C1031 1.389 . S
C1030 H1003 0.950 . S
C1030 C1016 1.377 . S
C1030 C1029 1.373 . S
C1031 C1015 1.377 . S
C1031 C1029 1.389 . S
C1031 C1032 1.524 . S
C1032 C1031 1.524 . S
C1032 C1033 1.397 . S
C1032 C1037 1.363 . S
C1033 H1004 0.950 . S
C1033 C1032 1.397 . S
C1033 C1034 1.334 . S
C1034 H1005 0.950 . S
C1034 C1033 1.334 . S
C1034 C1035 1.287 . S
C1035 C1034 1.287 . S
C1035 C1036 1.524 . S
C1035 H1038 0.999 . S
C1036 H1006 0.950 . S
C1036 C1035 1.524 . S
C1036 C1037 1.415 . S
C1037 H1007 0.950 . S
C1037 C1032 1.363 . S
C1037 C1036 1.415 . S
H1038 C1035 0.999 . S
H1039 C1020 0.913 . S
H1040 C1058 0.951 . S
H1041 C1060 0.951 . S
H1042 C1062 0.959 . S
H1043 C1063 0.950 1_655 S
H1044 C1065 0.950 . S
H1045 C1068 0.950 . S
H1046 C1069 0.950 . S
H1047 C1071 0.950 . S
H1048 C1072 0.950 . S
H1049 C1073 0.951 . S
H1050 C1075 0.951 . S
H1051 C1077 0.959 . S
H1052 C1078 0.950 1_455 S
H1053 C1080 0.950 . S
H1054 C1083 0.950 . S
H1055 C1084 0.950 . S
H1056 C1086 0.950 . S
H1057 C1087 0.950 . S
C1058 H1040 0.951 . S
C1058 C1059 1.366 . S
C1058 C1060 1.388 . S
C1059 C1058 1.366 . S
C1059 C1063 1.385 . S
C1060 H1041 0.951 . S
C1060 C1058 1.388 . S
C1060 C1061 1.366 . S
C1061 C1060 1.366 . S
C1061 C1062 1.408 1_455 S
C1061 C1064 1.499 . S
C1062 H1042 0.959 . S
C1062 C1061 1.408 1_655 S
C1062 C1063 1.370 1_655 S
C1063 H1043 0.950 1_455 S
C1063 C1059 1.385 . S
C1063 C1062 1.370 1_455 S
C1064 C1061 1.499 . S
C1064 C1065 1.373 1_455 S
C1064 C1066 1.389 . S
C1065 H1044 0.950 . S
C1065 C1064 1.373 1_655 S
C1065 C1081 1.377 . S
C1066 C1064 1.389 . S
C1066 C1067 1.524 . S
C1066 C1080 1.377 . S
C1067 C1066 1.524 . S
C1067 C1068 1.397 . S
C1067 C1072 1.363 . S
C1068 H1045 0.950 . S
C1068 C1067 1.397 . S
C1068 C1069 1.334 . S
C1069 H1046 0.950 . S
C1069 C1068 1.334 . S
C1069 C1070 1.287 . S
C1070 C1069 1.287 . S
C1070 C1071 1.524 . S
C1070 H1089 0.913 . S
C1071 H1047 0.950 . S
C1071 C1070 1.524 . S
C1071 C1072 1.415 . S
C1072 H1048 0.950 . S
C1072 C1067 1.363 . S
C1072 C1071 1.415 . S
C1073 H1049 0.951 . S
C1073 C1074 1.366 . S
C1073 C1075 1.388 . S
C1074 C1073 1.366 . S
C1074 C1078 1.385 . S
C1075 H1050 0.951 . S
C1075 C1073 1.388 . S
C1075 C1076 1.366 . S
C1076 C1075 1.366 . S
C1076 C1077 1.408 1_655 S
C1076 C1079 1.499 . S
C1077 H1051 0.959 . S
C1077 C1076 1.408 1_455 S
C1077 C1078 1.371 1_455 S
C1078 H1052 0.950 1_655 S
C1078 C1074 1.385 . S
C1078 C1077 1.371 1_655 S
C1079 C1076 1.499 . S
C1079 C1080 1.373 1_655 S
C1079 C1081 1.389 . S
C1080 H1053 0.950 . S
C1080 C1066 1.377 . S
C1080 C1079 1.373 1_455 S
C1081 C1065 1.377 . S
C1081 C1079 1.389 . S
C1081 C1082 1.524 . S
C1082 C1081 1.524 . S
C1082 C1083 1.397 . S
C1082 C1087 1.363 . S
C1083 H1054 0.950 . S
C1083 C1082 1.397 . S
C1083 C1084 1.334 . S
C1084 H1055 0.950 . S
C1084 C1083 1.334 . S
C1084 C1085 1.287 . S
C1085 C1084 1.287 . S
C1085 C1086 1.524 . S
C1085 H1088 0.999 . S
C1086 H1056 0.950 . S
C1086 C1085 1.524 . S
C1086 C1087 1.415 . S
C1087 H1057 0.950 . S
C1087 C1082 1.363 . S
C1087 C1086 1.415 . S
H1088 C1085 0.999 . S
H1089 C1070 0.913 . S
H1090 C1108 0.951 . S
H1091 C1110 0.951 . S
H1092 C1112 0.950 . S
H1093 C1113 0.950 1_455 S
H1094 C1115 0.950 . S
H1095 C1118 0.950 . S
H1096 C1119 0.950 . S
H1097 C1121 0.950 . S
H1098 C1122 0.950 . S
H1099 C1123 0.951 . S
H1100 C1125 0.951 . S
H1101 C1127 0.950 . S
H1102 C1128 0.950 1_655 S
H1103 C1130 0.950 . S
H1104 C1133 0.950 . S
H1105 C1134 0.950 . S
H1106 C1136 0.950 . S
H1107 C1137 0.950 . S
C1108 H1090 0.951 . S
C1108 C1109 1.366 . S
C1108 C1110 1.388 . S
C1109 C1108 1.366 . S
C1109 C1113 1.385 . S
C1110 H1091 0.951 . S
C1110 C1108 1.388 . S
C1110 C1111 1.366 . S
C1111 C1110 1.366 . S
C1111 C1112 1.414 1_655 S
C1111 C1114 1.499 . S
C1112 H1092 0.950 . S
C1112 C1111 1.414 1_455 S
C1112 C1113 1.374 1_455 S
C1113 H1093 0.950 1_655 S
C1113 C1109 1.385 . S
C1113 C1112 1.374 1_655 S
C1114 C1111 1.499 . S
C1114 C1115 1.373 . S
C1114 C1116 1.389 . S
C1115 H1094 0.950 . S
C1115 C1114 1.373 . S
C1115 C1131 1.377 1_655 S
C1116 C1114 1.389 . S
C1116 C1117 1.524 1_655 S
C1116 C1130 1.377 1_655 S
C1117 C1116 1.524 1_455 S
C1117 C1118 1.397 . S
C1117 C1122 1.363 1_455 S
C1118 H1095 0.950 . S
C1118 C1117 1.397 . S
C1118 C1119 1.334 . S
C1119 H1096 0.950 . S
C1119 C1118 1.334 . S
C1119 C1120 1.287 . S
C1120 C1119 1.287 . S
C1120 C1121 1.524 1_455 S
C1120 H1139 0.913 . S
C1121 H1097 0.950 . S
C1121 C1120 1.524 1_655 S
C1121 C1122 1.415 . S
C1122 H1098 0.950 . S
C1122 C1117 1.363 1_655 S
C1122 C1121 1.415 . S
C1123 H1099 0.951 . S
C1123 C1124 1.366 . S
C1123 C1125 1.388 . S
C1124 C1123 1.366 . S
C1124 C1128 1.385 . S
C1125 H1100 0.951 . S
C1125 C1123 1.388 . S
C1125 C1126 1.366 . S
C1126 C1125 1.366 . S
C1126 C1127 1.414 1_455 S
C1126 C1129 1.499 . S
C1127 H1101 0.950 . S
C1127 C1126 1.414 1_655 S
C1127 C1128 1.374 1_655 S
C1128 H1102 0.950 1_455 S
C1128 C1124 1.385 . S
C1128 C1127 1.374 1_455 S
C1129 C1126 1.499 . S
C1129 C1130 1.373 . S
C1129 C1131 1.389 . S
C1130 H1103 0.950 . S
C1130 C1116 1.377 1_455 S
C1130 C1129 1.373 . S
C1131 C1115 1.377 1_455 S
C1131 C1129 1.389 . S
C1131 C1132 1.524 1_455 S
C1132 C1131 1.524 1_655 S
C1132 C1133 1.397 . S
C1132 C1137 1.363 1_655 S
C1133 H1104 0.950 . S
C1133 C1132 1.397 . S
C1133 C1134 1.334 . S
C1134 H1105 0.950 . S
C1134 C1133 1.334 . S
C1134 C1135 1.287 . S
C1135 C1134 1.287 . S
C1135 C1136 1.524 1_655 S
C1135 H1138 0.999 . S
C1136 H1106 0.950 . S
C1136 C1135 1.524 1_455 S
C1136 C1137 1.415 . S
C1137 H1107 0.950 . S
C1137 C1132 1.363 1_455 S
C1137 C1136 1.415 . S
H1138 C1135 0.999 . S
H1139 C1120 0.913 . S
H1140 C1158 0.955 . S
H1141 C1160 0.951 . S
H1142 C1162 0.950 . S
H1143 C1163 0.950 . S
H1144 C1165 0.950 . S
H1145 C1168 0.950 1_655 S
H1146 C1169 0.950 . S
H1147 C1171 0.950 . S
H1148 C1172 0.950 . S
H1149 C1173 0.955 . S
H1150 C1175 0.951 . S
H1151 C1177 0.950 . S
H1152 C1178 0.950 . S
H1153 C1180 0.950 . S
H1154 C1183 0.950 1_455 S
H1155 C1184 0.950 . S
H1156 C1186 0.950 . S
H1157 C1187 0.950 . S
C1158 H1140 0.955 . S
C1158 C1159 1.360 1_455 S
C1158 C1160 1.390 . S
C1159 C1158 1.360 1_655 S
C1159 C1163 1.385 . S
C1160 H1141 0.951 . S
C1160 C1158 1.390 . S
C1160 C1161 1.366 1_455 S
C1161 C1160 1.366 1_655 S
C1161 C1162 1.414 . S
C1161 C1164 1.499 . S
C1162 H1142 0.950 . S
C1162 C1161 1.414 . S
C1162 C1163 1.374 . S
C1163 H1143 0.950 . S
C1163 C1159 1.385 . S
C1163 C1162 1.374 . S
C1164 C1161 1.499 . S
C1164 C1165 1.373 . S
C1164 C1166 1.389 1_655 S
C1165 H1144 0.950 . S
C1165 C1164 1.373 . S
C1165 C1181 1.377 . S
C1166 C1164 1.389 1_455 S
C1166 C1167 1.524 . S
C1166 C1180 1.377 . S
C1167 C1166 1.524 . S
C1167 C1168 1.397 . S
C1167 C1172 1.363 . S
C1168 H1145 0.950 1_455 S
C1168 C1167 1.397 . S
C1168 C1169 1.334 . S
C1169 H1146 0.950 . S
C1169 C1168 1.334 . S
C1169 C1170 1.287 . S
C1170 C1169 1.287 . S
C1170 C1171 1.524 . S
C1170 H1189 0.913 . S
C1171 H1147 0.950 . S
C1171 C1170 1.524 . S
C1171 C1172 1.415 . S
C1172 H1148 0.950 . S
C1172 C1167 1.363 . S
C1172 C1171 1.415 . S
C1173 H1149 0.955 . S
C1173 C1174 1.360 1_655 S
C1173 C1175 1.389 . S
C1174 C1173 1.360 1_455 S
C1174 C1178 1.385 . S
C1175 H1150 0.951 . S
C1175 C1173 1.389 . S
C1175 C1176 1.366 1_655 S
C1176 C1175 1.366 1_455 S
C1176 C1177 1.414 . S
C1176 C1179 1.499 . S
C1177 H1151 0.950 . S
C1177 C1176 1.414 . S
C1177 C1178 1.374 . S
C1178 H1152 0.950 . S
C1178 C1174 1.385 . S
C1178 C1177 1.374 . S
C1179 C1176 1.499 . S
C1179 C1180 1.373 . S
C1179 C1181 1.389 1_455 S
C1180 H1153 0.950 . S
C1180 C1166 1.377 . S
C1180 C1179 1.373 . S
C1181 C1165 1.377 . S
C1181 C1179 1.389 1_655 S
C1181 C1182 1.524 . S
C1182 C1181 1.524 . S
C1182 C1183 1.397 . S
C1182 C1187 1.363 . S
C1183 H1154 0.950 1_655 S
C1183 C1182 1.397 . S
C1183 C1184 1.334 . S
C1184 H1155 0.950 . S
C1184 C1183 1.334 . S
C1184 C1185 1.287 . S
C1185 C1184 1.287 . S
C1185 C1186 1.524 . S
C1185 H1188 0.999 . S
C1186 H1156 0.950 . S
C1186 C1185 1.524 . S
C1186 C1187 1.415 . S
C1187 H1157 0.950 . S
C1187 C1182 1.363 . S
C1187 C1186 1.415 . S
H1188 C1185 0.999 . S
H1189 C1170 0.913 . S
H1190 C1208 0.951 . S
H1191 C1210 0.951 . S
H1192 C1212 0.950 1_455 S
H1193 C1213 0.950 1_455 S
H1194 C1215 0.950 . S
H1195 C1218 0.950 . S
H1196 C1219 0.950 . S
H1197 C1221 0.950 . S
H1198 C1222 0.950 . S
H1199 C1223 0.951 . S
H1200 C1225 0.951 . S
H1201 C1227 0.950 1_655 S
H1202 C1228 0.950 1_655 S
H1203 C1230 0.950 . S
H1204 C1233 0.950 . S
H1205 C1234 0.950 . S
H1206 C1236 0.950 . S
H1207 C1237 0.950 . S
C1208 H1190 0.951 . S
C1208 C1209 1.366 . S
C1208 C1210 1.388 . S
C1209 C1208 1.366 . S
C1209 C1213 1.385 . S
C1210 H1191 0.951 . S
C1210 C1208 1.388 . S
C1210 C1211 1.366 . S
C1211 C1210 1.366 . S
C1211 C1212 1.414 . S
C1211 C1214 1.499 . S
C1212 H1192 0.950 1_655 S
C1212 C1211 1.414 . S
C1212 C1213 1.374 . S
C1213 H1193 0.950 1_655 S
C1213 C1209 1.385 . S
C1213 C1212 1.374 . S
C1214 C1211 1.499 . S
C1214 C1215 1.373 1_655 S
C1214 C1216 1.389 . S
C1215 H1194 0.950 . S
C1215 C1214 1.373 1_455 S
C1215 C1231 1.377 . S
C1216 C1214 1.389 . S
C1216 C1217 1.524 . S
C1216 C1230 1.377 . S
C1217 C1216 1.524 . S
C1217 C1218 1.397 . S
C1217 C1222 1.363 . S
C1218 H1195 0.950 . S
C1218 C1217 1.397 . S
C1218 C1219 1.334 . S
C1219 H1196 0.950 . S
C1219 C1218 1.334 . S
C1219 C1220 1.287 . S
C1220 C1219 1.287 . S
C1220 C1221 1.524 . S
C1220 H1239 0.913 . S
C1221 H1197 0.950 . S
C1221 C1220 1.524 . S
C1221 C1222 1.415 . S
C1222 H1198 0.950 . S
C1222 C1217 1.363 . S
C1222 C1221 1.415 . S
C1223 H1199 0.951 . S
C1223 C1224 1.366 . S
C1223 C1225 1.388 . S
C1224 C1223 1.366 . S
C1224 C1228 1.385 . S
C1225 H1200 0.951 . S
C1225 C1223 1.388 . S
C1225 C1226 1.366 . S
C1226 C1225 1.366 . S
C1226 C1227 1.414 . S
C1226 C1229 1.499 . S
C1227 H1201 0.950 1_455 S
C1227 C1226 1.414 . S
C1227 C1228 1.374 . S
C1228 H1202 0.950 1_455 S
C1228 C1224 1.385 . S
C1228 C1227 1.374 . S
C1229 C1226 1.499 . S
C1229 C1230 1.373 1_455 S
C1229 C1231 1.389 . S
C1230 H1203 0.950 . S
C1230 C1216 1.377 . S
C1230 C1229 1.373 1_655 S
C1231 C1215 1.377 . S
C1231 C1229 1.389 . S
C1231 C1232 1.524 . S
C1232 C1231 1.524 . S
C1232 C1233 1.397 . S
C1232 C1237 1.363 . S
C1233 H1204 0.950 . S
C1233 C1232 1.397 . S
C1233 C1234 1.334 . S
C1234 H1205 0.950 . S
C1234 C1233 1.334 . S
C1234 C1235 1.287 . S
C1235 C1234 1.287 . S
C1235 C1236 1.524 . S
C1235 H1238 0.999 . S
C1236 H1206 0.950 . S
C1236 C1235 1.524 . S
C1236 C1237 1.415 . S
C1237 H1207 0.950 . S
C1237 C1232 1.363 . S
C1237 C1236 1.415 . S
H1238 C1235 0.999 . S
H1239 C1220 0.913 . S
H1240 C1258 0.951 . S
H1241 C1260 0.951 . S
H1242 C1262 0.950 . S
H1243 C1263 0.950 . S
H1244 C1265 0.950 . S
H1245 C1268 0.950 . S
H1246 C1269 0.950 . S
H1247 C1271 0.950 . S
H1248 C1272 0.950 . S
H1249 C1273 0.951 . S
H1250 C1275 0.951 . S
H1251 C1277 0.950 . S
H1252 C1278 0.950 . S
H1253 C1280 0.950 . S
H1254 C1283 0.950 . S
H1255 C1284 0.950 . S
H1256 C1286 0.950 . S
H1257 C1287 0.950 . S
C1258 H1240 0.951 . S
C1258 C1259 1.366 . S
C1258 C1260 1.388 . S
C1259 C1258 1.366 . S
C1259 C1263 1.385 . S
C1260 H1241 0.951 . S
C1260 C1258 1.388 . S
C1260 C1261 1.366 . S
C1261 C1260 1.366 . S
C1261 C1262 1.414 . S
C1261 C1264 1.499 . S
C1262 H1242 0.950 . S
C1262 C1261 1.414 . S
C1262 C1263 1.374 . S
C1263 H1243 0.950 . S
C1263 C1259 1.385 . S
C1263 C1262 1.374 . S
C1264 C1261 1.499 . S
C1264 C1265 1.373 . S
C1264 C1266 1.389 . S
C1265 H1244 0.950 . S
C1265 C1264 1.373 . S
C1265 C1281 1.377 . S
C1266 C1264 1.389 . S
C1266 C1267 1.524 . S
C1266 C1280 1.377 . S
C1267 C1266 1.524 . S
C1267 C1268 1.397 . S
C1267 C1272 1.363 . S
C1268 H1245 0.950 . S
C1268 C1267 1.397 . S
C1268 C1269 1.334 . S
C1269 H1246 0.950 . S
C1269 C1268 1.334 . S
C1269 C1270 1.287 . S
C1270 C1269 1.287 . S
C1270 C1271 1.524 . S
C1270 H1289 0.913 . S
C1271 H1247 0.950 . S
C1271 C1270 1.524 . S
C1271 C1272 1.415 . S
C1272 H1248 0.950 . S
C1272 C1267 1.363 . S
C1272 C1271 1.415 . S
C1273 H1249 0.951 . S
C1273 C1274 1.366 . S
C1273 C1275 1.388 . S
C1274 C1273 1.366 . S
C1274 C1278 1.385 . S
C1275 H1250 0.951 . S
C1275 C1273 1.388 . S
C1275 C1276 1.366 . S
C1276 C1275 1.366 . S
C1276 C1277 1.414 . S
C1276 C1279 1.499 . S
C1277 H1251 0.950 . S
C1277 C1276 1.414 . S
C1277 C1278 1.374 . S
C1278 H1252 0.950 . S
C1278 C1274 1.385 . S
C1278 C1277 1.374 . S
C1279 C1276 1.499 . S
C1279 C1280 1.373 . S
C1279 C1281 1.389 . S
C1280 H1253 0.950 . S
C1280 C1266 1.377 . S
C1280 C1279 1.373 . S
C1281 C1265 1.377 . S
C1281 C1279 1.389 . S
C1281 C1282 1.524 . S
C1282 C1281 1.524 . S
C1282 C1283 1.397 . S
C1282 C1287 1.363 . S
C1283 H1254 0.950 . S
C1283 C1282 1.397 . S
C1283 C1284 1.334 . S
C1284 H1255 0.950 . S
C1284 C1283 1.334 . S
C1284 C1285 1.287 . S
C1285 C1284 1.287 . S
C1285 C1286 1.524 . S
C1285 H1288 0.999 . S
C1286 H1256 0.950 . S
C1286 C1285 1.524 . S
C1286 C1287 1.415 . S
C1287 H1257 0.950 . S
C1287 C1282 1.363 . S
C1287 C1286 1.415 . S
H1288 C1285 0.999 . S
H1289 C1270 0.913 . S
H1290 C1308 0.951 . S
H1291 C1310 0.951 . S
H1292 C1312 0.950 . S
H1293 C1313 0.950 . S
H1294 C1315 0.950 . S
H1295 C1318 0.950 . S
H1296 C1319 0.950 . S
H1297 C1321 0.950 . S
H1298 C1322 0.950 . S
H1299 C1323 0.951 . S
H1300 C1325 0.951 . S
H1301 C1327 0.950 . S
H1302 C1328 0.950 . S
H1303 C1330 0.950 . S
H1304 C1333 0.950 . S
H1305 C1334 0.950 . S
H1306 C1336 0.950 . S
H1307 C1337 0.950 . S
C1308 H1290 0.951 . S
C1308 C1309 1.366 . S
C1308 C1310 1.388 . S
C1309 C1308 1.366 . S
C1309 C1313 1.385 . S
C1310 H1291 0.951 . S
C1310 C1308 1.388 . S
C1310 C1311 1.366 . S
C1311 C1310 1.366 . S
C1311 C1312 1.414 . S
C1311 C1314 1.499 . S
C1312 H1292 0.950 . S
C1312 C1311 1.414 . S
C1312 C1313 1.374 . S
C1313 H1293 0.950 . S
C1313 C1309 1.385 . S
C1313 C1312 1.374 . S
C1314 C1311 1.499 . S
C1314 C1315 1.373 . S
C1314 C1316 1.389 . S
C1315 H1294 0.950 . S
C1315 C1314 1.373 . S
C1315 C1331 1.377 . S
C1316 C1314 1.389 . S
C1316 C1317 1.524 . S
C1316 C1330 1.377 . S
C1317 C1316 1.524 . S
C1317 C1318 1.397 . S
C1317 C1322 1.363 . S
C1318 H1295 0.950 . S
C1318 C1317 1.397 . S
C1318 C1319 1.334 . S
C1319 H1296 0.950 . S
C1319 C1318 1.334 . S
C1319 C1320 1.287 . S
C1320 C1319 1.287 . S
C1320 C1321 1.524 . S
C1320 H1339 0.913 . S
C1321 H1297 0.950 . S
C1321 C1320 1.524 . S
C1321 C1322 1.415 . S
C1322 H1298 0.950 . S
C1322 C1317 1.363 . S
C1322 C1321 1.415 . S
C1323 H1299 0.951 . S
C1323 C1324 1.366 . S
C1323 C1325 1.388 . S
C1324 C1323 1.366 . S
C1324 C1328 1.385 . S
C1325 H1300 0.951 . S
C1325 C1323 1.388 . S
C1325 C1326 1.366 . S
C1326 C1325 1.366 . S
C1326 C1327 1.414 . S
C1326 C1329 1.499 . S
C1327 H1301 0.950 . S
C1327 C1326 1.414 . S
C1327 C1328 1.374 . S
C1328 H1302 0.950 . S
C1328 C1324 1.385 . S
C1328 C1327 1.374 . S
C1329 C1326 1.499 . S
C1329 C1330 1.373 . S
C1329 C1331 1.389 . S
C1330 H1303 0.950 . S
C1330 C1316 1.377 . S
C1330 C1329 1.373 . S
C1331 C1315 1.377 . S
C1331 C1329 1.389 . S
C1331 C1332 1.524 . S
C1332 C1331 1.524 . S
C1332 C1333 1.397 . S
C1332 C1337 1.363 . S
C1333 H1304 0.950 . S
C1333 C1332 1.397 . S
C1333 C1334 1.334 . S
C1334 H1305 0.950 . S
C1334 C1333 1.334 . S
C1334 C1335 1.287 . S
C1335 C1334 1.287 . S
C1335 C1336 1.524 . S
C1335 H1338 0.999 . S
C1336 H1306 0.950 . S
C1336 C1335 1.524 . S
C1336 C1337 1.415 . S
C1337 H1307 0.950 . S
C1337 C1332 1.363 . S
C1337 C1336 1.415 . S
H1338 C1335 0.999 . S
H1339 C1320 0.913 . S
H1340 C1358 0.951 . S
H1341 C1360 0.951 . S
H1342 C1362 0.950 . S
H1343 C1363 0.950 . S
H1344 C1365 0.950 . S
H1345 C1368 0.950 . S
H1346 C1369 0.950 . S
H1347 C1371 0.950 . S
H1348 C1372 0.950 . S
H1349 C1373 0.951 . S
H1350 C1375 0.951 . S
H1351 C1377 0.950 . S
H1352 C1378 0.950 . S
H1353 C1380 0.950 . S
H1354 C1383 0.950 . S
H1355 C1384 0.950 . S
H1356 C1386 0.950 . S
H1357 C1387 0.950 . S
C1358 H1340 0.951 . S
C1358 C1359 1.366 . S
C1358 C1360 1.388 . S
C1359 C1358 1.366 . S
C1359 C1363 1.385 . S
C1360 H1341 0.951 . S
C1360 C1358 1.388 . S
C1360 C1361 1.366 . S
C1361 C1360 1.366 . S
C1361 C1362 1.414 . S
C1361 C1364 1.499 . S
C1362 H1342 0.950 . S
C1362 C1361 1.414 . S
C1362 C1363 1.374 . S
C1363 H1343 0.950 . S
C1363 C1359 1.385 . S
C1363 C1362 1.374 . S
C1364 C1361 1.499 . S
C1364 C1365 1.373 . S
C1364 C1366 1.389 . S
C1365 H1344 0.950 . S
C1365 C1364 1.373 . S
C1365 C1381 1.377 . S
C1366 C1364 1.389 . S
C1366 C1367 1.524 . S
C1366 C1380 1.377 . S
C1367 C1366 1.524 . S
C1367 C1368 1.397 . S
C1367 C1372 1.363 . S
C1368 H1345 0.950 . S
C1368 C1367 1.397 . S
C1368 C1369 1.334 . S
C1369 H1346 0.950 . S
C1369 C1368 1.334 . S
C1369 C1370 1.287 . S
C1370 C1369 1.287 . S
C1370 C1371 1.524 . S
C1370 H1389 0.913 . S
C1371 H1347 0.950 . S
C1371 C1370 1.524 . S
C1371 C1372 1.415 . S
C1372 H1348 0.950 . S
C1372 C1367 1.363 . S
C1372 C1371 1.415 . S
C1373 H1349 0.951 . S
C1373 C1374 1.366 . S
C1373 C1375 1.388 . S
C1374 C1373 1.366 . S
C1374 C1378 1.385 . S
C1375 H1350 0.951 . S
C1375 C1373 1.388 . S
C1375 C1376 1.366 . S
C1376 C1375 1.366 . S
C1376 C1377 1.414 . S
C1376 C1379 1.499 . S
C1377 H1351 0.950 . S
C1377 C1376 1.414 . S
C1377 C1378 1.374 . S
C1378 H1352 0.950 . S
C1378 C1374 1.385 . S
C1378 C1377 1.374 . S
C1379 C1376 1.499 . S
C1379 C1380 1.373 . S
C1379 C1381 1.389 . S
C1380 H1353 0.950 . S
C1380 C1366 1.377 . S
C1380 C1379 1.373 . S
C1381 C1365 1.377 . S
C1381 C1379 1.389 . S
C1381 C1382 1.524 . S
C1382 C1381 1.524 . S
C1382 C1383 1.397 . S
C1382 C1387 1.363 . S
C1383 H1354 0.950 . S
C1383 C1382 1.397 . S
C1383 C1384 1.334 . S
C1384 H1355 0.950 . S
C1384 C1383 1.334 . S
C1384 C1385 1.287 . S
C1385 C1384 1.287 . S
C1385 C1386 1.524 . S
C1385 H1388 0.999 . S
C1386 H1356 0.950 . S
C1386 C1385 1.524 . S
C1386 C1387 1.415 . S
C1387 H1357 0.950 . S
C1387 C1382 1.363 . S
C1387 C1386 1.415 . S
H1388 C1385 0.999 . S
H1389 C1370 0.913 . S
H1390 C1408 0.951 . S
H1391 C1410 0.951 . S
H1392 C1412 0.950 . S
H1393 C1413 0.950 . S
H1394 C1415 0.950 . S
H1395 C1418 0.950 . S
H1396 C1419 0.950 . S
H1397 C1421 0.950 . S
H1398 C1422 0.950 . S
H1399 C1423 0.951 . S
H1400 C1425 0.951 . S
H1401 C1427 0.950 . S
H1402 C1428 0.950 . S
H1403 C1430 0.950 . S
H1404 C1433 0.950 . S
H1405 C1434 0.950 . S
H1406 C1436 0.950 . S
H1407 C1437 0.950 . S
C1408 H1390 0.951 . S
C1408 C1409 1.366 . S
C1408 C1410 1.388 . S
C1409 C1408 1.366 . S
C1409 C1413 1.385 . S
C1410 H1391 0.951 . S
C1410 C1408 1.388 . S
C1410 C1411 1.366 . S
C1411 C1410 1.366 . S
C1411 C1412 1.414 . S
C1411 C1414 1.499 . S
C1412 H1392 0.950 . S
C1412 C1411 1.414 . S
C1412 C1413 1.374 . S
C1413 H1393 0.950 . S
C1413 C1409 1.385 . S
C1413 C1412 1.374 . S
C1414 C1411 1.499 . S
C1414 C1415 1.373 . S
C1414 C1416 1.389 . S
C1415 H1394 0.950 . S
C1415 C1414 1.373 . S
C1415 C1431 1.377 . S
C1416 C1414 1.389 . S
C1416 C1417 1.524 . S
C1416 C1430 1.377 . S
C1417 C1416 1.524 . S
C1417 C1418 1.397 . S
C1417 C1422 1.363 . S
C1418 H1395 0.950 . S
C1418 C1417 1.397 . S
C1418 C1419 1.334 . S
C1419 H1396 0.950 . S
C1419 C1418 1.334 . S
C1419 C1420 1.287 . S
C1420 C1419 1.287 . S
C1420 C1421 1.524 . S
C1420 H1439 0.913 . S
C1421 H1397 0.950 . S
C1421 C1420 1.524 . S
C1421 C1422 1.415 . S
C1422 H1398 0.950 . S
C1422 C1417 1.363 . S
C1422 C1421 1.415 . S
C1423 H1399 0.951 . S
C1423 C1424 1.366 . S
C1423 C1425 1.388 . S
C1424 C1423 1.366 . S
C1424 C1428 1.385 . S
C1425 H1400 0.951 . S
C1425 C1423 1.388 . S
C1425 C1426 1.366 . S
C1426 C1425 1.366 . S
C1426 C1427 1.414 . S
C1426 C1429 1.499 . S
C1427 H1401 0.950 . S
C1427 C1426 1.414 . S
C1427 C1428 1.374 . S
C1428 H1402 0.950 . S
C1428 C1424 1.385 . S
C1428 C1427 1.374 . S
C1429 C1426 1.499 . S
C1429 C1430 1.373 . S
C1429 C1431 1.389 . S
C1430 H1403 0.950 . S
C1430 C1416 1.377 . S
C1430 C1429 1.373 . S
C1431 C1415 1.377 . S
C1431 C1429 1.389 . S
C1431 C1432 1.524 . S
C1432 C1431 1.524 . S
C1432 C1433 1.397 . S
C1432 C1437 1.363 . S
C1433 H1404 0.950 . S
C1433 C1432 1.397 . S
C1433 C1434 1.334 . S
C1434 H1405 0.950 . S
C1434 C1433 1.334 . S
C1434 C1435 1.287 . S
C1435 C1434 1.287 . S
C1435 C1436 1.524 . S
C1435 H1438 0.999 . S
C1436 H1406 0.950 . S
C1436 C1435 1.524 . S
C1436 C1437 1.415 . S
C1437 H1407 0.950 . S
C1437 C1432 1.363 . S
C1437 C1436 1.415 . S
H1438 C1435 0.999 . S
H1439 C1420 0.913 . S
C259 N14 1.023 . S
C274 N6 1.025 . S
C309 N44 1.022 . S
C324 N36 1.022 1_554 S
C359 N74 1.022 . S
C374 N66 1.022 . S
C409 N104 1.022 . S
C424 N96 1.022 . S
C459 N134 1.023 . S
C474 N126 1.025 . S
C509 N156 1.022 1_554 S
C524 N164 1.022 . S
C559 N194 1.022 . S
C574 N186 1.022 . S
C609 N216 1.023 . S
C624 N224 1.023 . S
C659 C57 1.597 . S
C674 C16 1.597 . S
C709 C106 1.597 . S
C724 C87 1.597 . S
C759 C136 1.597 . S
C774 C177 1.597 . S
C809 C207 1.597 . S
C824 C226 1.597 . S
C859 C27 1.732 . S
C874 C166 1.732 . S
C909 C147 1.732 . S
C924 C46 1.732 . S
C959 C76 1.732 . S
C974 C237 1.732 . S
C1009 C117 1.732 . S
C1024 C196 1.732 . S
C1059 C10 1.660 . S
C1074 C100 1.660 . S
C1109 C40 1.574 . S
C1124 C70 1.574 . S
C1159 C31 1.661 . S
C1174 C61 1.660 . S
C1209 C91 1.574 . S
C1224 C1 1.573 . S
C1259 C130 1.660 . S
C1274 C220 1.660 . S
C1309 C160 1.574 . S
C1324 C190 1.574 . S
C1359 C151 1.660 . S
C1374 C181 1.660 . S
C1409 C211 1.574 . S
C1424 C121 1.574 . S
