# Generated by pormake.
# Topology uof, (4)-cn, num edge types: 1
# Building blocks:
#     Node 0, Type 0, BuildingBlock: NAHDIM_clean_sbu_0, # of connection points: 4
#     Node 1, Type 0, BuildingBlock: NAHDIM_clean_sbu_0, # of connection points: 4
#     Node 2, Type 0, BuildingBlock: NAHDIM_clean_sbu_0, # of connection points: 4
#     Node 3, Type 0, BuildingBlock: NAHDIM_clean_sbu_0, # of connection points: 4
#     Node 4, Type 0, BuildingBlock: NAHDIM_clean_sbu_0, # of connection points: 4
#     Node 5, Type 0, BuildingBlock: NAHDIM_clean_sbu_0, # of connection points: 4
#     Node 6, Type 0, BuildingBlock: NAHDIM_clean_sbu_0, # of connection points: 4
#     Node 7, Type 0, BuildingBlock: NAHDIM_clean_sbu_0, # of connection points: 4
#     Node 8, Type 0, BuildingBlock: NAHDIM_clean_sbu_0, # of connection points: 4
#     Node 9, Type 0, BuildingBlock: NAHDIM_clean_sbu_0, # of connection points: 4
#     Node 10, Type 0, BuildingBlock: NAHDIM_clean_sbu_0, # of connection points: 4
#     Node 11, Type 0, BuildingBlock: NAHDIM_clean_sbu_0, # of connection points: 4
#     Edge 12, Type (0, 0), BuildingBlock: XUDNAN_clean_linker_2, # of connection points: 2
#     Edge 13, Type (0, 0), BuildingBlock: XUDNAN_clean_linker_2, # of connection points: 2
#     Edge 14, Type (0, 0), BuildingBlock: XUDNAN_clean_linker_2, # of connection points: 2
#     Edge 15, Type (0, 0), BuildingBlock: XUDNAN_clean_linker_2, # of connection points: 2
#     Edge 16, Type (0, 0), BuildingBlock: XUDNAN_clean_linker_2, # of connection points: 2
#     Edge 17, Type (0, 0), BuildingBlock: XUDNAN_clean_linker_2, # of connection points: 2
#     Edge 18, Type (0, 0), BuildingBlock: XUDNAN_clean_linker_2, # of connection points: 2
#     Edge 19, Type (0, 0), BuildingBlock: XUDNAN_clean_linker_2, # of connection points: 2
#     Edge 20, Type (0, 0), BuildingBlock: XUDNAN_clean_linker_2, # of connection points: 2
#     Edge 21, Type (0, 0), BuildingBlock: XUDNAN_clean_linker_2, # of connection points: 2
#     Edge 22, Type (0, 0), BuildingBlock: XUDNAN_clean_linker_2, # of connection points: 2
#     Edge 23, Type (0, 0), BuildingBlock: XUDNAN_clean_linker_2, # of connection points: 2
#     Edge 24, Type (0, 0), BuildingBlock: XUDNAN_clean_linker_2, # of connection points: 2
#     Edge 25, Type (0, 0), BuildingBlock: XUDNAN_clean_linker_2, # of connection points: 2
#     Edge 26, Type (0, 0), BuildingBlock: XUDNAN_clean_linker_2, # of connection points: 2
#     Edge 27, Type (0, 0), BuildingBlock: XUDNAN_clean_linker_2, # of connection points: 2
#     Edge 28, Type (0, 0), BuildingBlock: XUDNAN_clean_linker_2, # of connection points: 2
#     Edge 29, Type (0, 0), BuildingBlock: XUDNAN_clean_linker_2, # of connection points: 2
#     Edge 30, Type (0, 0), BuildingBlock: XUDNAN_clean_linker_2, # of connection points: 2
#     Edge 31, Type (0, 0), BuildingBlock: XUDNAN_clean_linker_2, # of connection points: 2
#     Edge 32, Type (0, 0), BuildingBlock: XUDNAN_clean_linker_2, # of connection points: 2
#     Edge 33, Type (0, 0), BuildingBlock: XUDNAN_clean_linker_2, # of connection points: 2
#     Edge 34, Type (0, 0), BuildingBlock: XUDNAN_clean_linker_2, # of connection points: 2
#     Edge 35, Type (0, 0), BuildingBlock: XUDNAN_clean_linker_2, # of connection points: 2
# Relax obj value: 0.217
# Max RMSD: 0.169
# Mean RMSD: 0.169
data_MOF--net-uof--node1-NAHDIM_clean_sbu_0--edge1-XUDNAN_clean_linker_2
_symmetry_space_group_name_H-M    P1
_symmetry_Int_Tables_number       1
_symmetry_cell_setting            triclinic
loop_
_symmetry_equiv_pos_as_xyz
'x, y, z'
_cell_length_a     32.478727
_cell_length_b     32.553152
_cell_length_c     60.411712
_cell_angle_alpha  89.994916
_cell_angle_beta   89.998414
_cell_angle_gamma 120.04196
loop_
_atom_site_label
_atom_site_type_symbol
_atom_site_fract_x
_atom_site_fract_y
_atom_site_fract_z
_atom_type_partial_charge
C0 C 0.1569 0.30875 0.19662 0.0
O1 O 0.18709 0.29978 0.18627 0.0
O2 O 0.21017 0.31204 0.26565 0.0
Zn3 Zn 0.21806 0.31683 0.23244 0.0
O4 O 0.21247 0.25454 0.22362 0.0
C5 C 0.31627 0.35913 0.23387 0.0
O6 O 0.30095 0.32101 0.24623 0.0
O7 O 0.16453 0.32108 0.21688 0.0
C8 C 0.23649 0.24897 0.20855 0.0
O9 O 0.26652 0.28555 0.19661 0.0
C10 C 0.18165 0.27138 0.27369 0.0
O11 O 0.15385 0.23691 0.26019 0.0
O12 O 0.28586 0.36838 0.22541 0.0
C13 C 0.83116 0.14739 0.53289 0.0
O14 O 0.83861 0.13515 0.55255 0.0
O15 O 0.89716 0.23017 0.57875 0.0
Zn16 Zn 0.90812 0.24059 0.54575 0.0
O17 O 0.96919 0.2411 0.53942 0.0
C18 C 0.93213 0.33705 0.5534 0.0
O19 O 0.92946 0.32322 0.57402 0.0
O20 O 0.85544 0.19053 0.52689 0.0
C21 C 0.0051 0.26849 0.55118 0.0
O22 O 0.00064 0.29474 0.56643 0.0
C23 C 0.91306 0.20774 0.58975 0.0
O24 O 0.92809 0.18259 0.57906 0.0
O25 O 0.92144 0.3068 0.53796 0.0
C26 C 0.64621 0.79288 0.8708 0.0
O27 O 0.64496 0.79319 0.89253 0.0
O28 O 0.67639 0.89437 0.90623 0.0
Zn29 Zn 0.65961 0.88894 0.87362 0.0
O30 O 0.71838 0.93851 0.85839 0.0
C31 C 0.57812 0.9017 0.88215 0.0
O32 O 0.57909 0.88549 0.90194 0.0
O33 O 0.64848 0.82759 0.86012 0.0
C34 C 0.72781 0.98089 0.85519 0.0
O35 O 0.69742 0.99398 0.86156 0.0
C36 C 0.68553 0.93237 0.91629 0.0
O37 O 0.68068 0.96483 0.90563 0.0
O38 O 0.60695 0.90343 0.86744 0.0
C39 C 0.84921 0.67937 0.1981 0.0
O40 O 0.85983 0.69913 0.21778 0.0
O41 O 0.76909 0.67455 0.24238 0.0
Zn42 Zn 0.75298 0.65745 0.21006 0.0
O43 O 0.7447 0.71011 0.19811 0.0
C44 C 0.65195 0.59881 0.21161 0.0
O45 O 0.65614 0.64044 0.21547 0.0
O46 O 0.80585 0.65715 0.192 0.0
C47 C 0.72768 0.71328 0.17971 0.0
O48 O 0.71259 0.67838 0.16536 0.0
C49 C 0.79174 0.71841 0.24743 0.0
O50 O 0.80939 0.75003 0.23148 0.0
O51 O 0.6894 0.59628 0.20835 0.0
C52 C 0.20414 0.86583 0.55327 0.0
O53 O 0.19965 0.86411 0.57491 0.0
O54 O 0.1042 0.77173 0.58599 0.0
Zn55 Zn 0.11198 0.77695 0.55281 0.0
O56 O 0.06107 0.78798 0.54086 0.0
C57 C 0.10188 0.68463 0.55417 0.0
O58 O 0.11892 0.69905 0.57416 0.0
O59 O 0.17339 0.83165 0.54167 0.0
C60 C 0.0179 0.75511 0.54015 0.0
O61 O 0.0062 0.71266 0.54752 0.0
C62 C 0.08453 0.79045 0.59705 0.0
O63 O 0.07426 0.8202 0.58721 0.0
O64 O 0.09901 0.71354 0.541 0.0
C65 C 0.31896 0.1813 0.86822 0.0
O66 O 0.28924 0.16306 0.88491 0.0
O67 O 0.32383 0.10746 0.91222 0.0
Zn68 Zn 0.33142 0.10343 0.87912 0.0
O69 O 0.26852 0.05209 0.86785 0.0
C70 C 0.39855 0.07057 0.88745 0.0
O71 O 0.38858 0.07371 0.90823 0.0
O72 O 0.34443 0.16319 0.86306 0.0
C73 C 0.26448 0.02869 0.85039 0.0
O74 O 0.30263 0.03902 0.83875 0.0
C75 C 0.29723 0.06856 0.92226 0.0
O76 O 0.277 0.02892 0.91082 0.0
O77 O 0.38032 0.08361 0.8723 0.0
C78 C 0.68586 0.86699 0.44033 0.0
O79 O 0.69387 0.86682 0.41903 0.0
O80 O 0.70526 0.784 0.40873 0.0
Zn81 Zn 0.68784 0.77818 0.44108 0.0
O82 O 0.74478 0.7861 0.45759 0.0
C83 C 0.60522 0.68351 0.43428 0.0
O84 O 0.60929 0.69596 0.41336 0.0
O85 O 0.6789 0.83166 0.45206 0.0
C86 C 0.74764 0.75245 0.4667 0.0
O87 O 0.71153 0.70892 0.46542 0.0
C88 C 0.71539 0.75411 0.40058 0.0
O89 O 0.71195 0.71954 0.41311 0.0
O90 O 0.63255 0.71352 0.44853 0.0
C91 C 0.81704 0.6723 0.78836 0.0
O92 O 0.84014 0.70379 0.77283 0.0
O93 O 0.90867 0.66234 0.75235 0.0
Zn94 Zn 0.89728 0.65579 0.78542 0.0
O95 O 0.94757 0.71539 0.80023 0.0
C96 C 0.94198 0.6021 0.80059 0.0
O97 O 0.98041 0.64404 0.80188 0.0
O98 O 0.83338 0.6463 0.79516 0.0
C99 C 0.98976 0.73977 0.79287 0.0
O100 O 0.00231 0.72524 0.77517 0.0
C101 C 0.92368 0.70047 0.74128 0.0
O102 O 0.92791 0.73847 0.75102 0.0
O103 O 0.90284 0.59907 0.79487 0.0
C104 C 0.13939 0.83423 0.10962 0.0
O105 O 0.14164 0.84612 0.08869 0.0
O106 O 0.22914 0.94333 0.08302 0.0
Zn107 Zn 0.23436 0.91963 0.11326 0.0
O108 O 0.24008 0.9685 0.13505 0.0
C109 C 0.33342 0.94925 0.12136 0.0
O110 O 0.3317 0.98144 0.1338 0.0
O111 O 0.17524 0.85821 0.12203 0.0
C112 C 0.22307 0.95956 0.15451 0.0
O113 O 0.20121 0.91562 0.16176 0.0
C114 C 0.25619 0.98764 0.07977 0.0
O115 O 0.28327 0.01409 0.09606 0.0
O116 O 0.29533 0.91701 0.11243 0.0
C117 C 0.31992 0.154 0.46877 0.0
O118 O 0.28813 0.14325 0.45307 0.0
O119 O 0.30475 0.2323 0.43122 0.0
Zn120 Zn 0.33146 0.2465 0.4622 0.0
O121 O 0.28036 0.24553 0.48097 0.0
C122 C 0.41195 0.33718 0.4478 0.0
O123 O 0.40345 0.3174 0.42813 0.0
O124 O 0.3452 0.19709 0.47465 0.0
C125 C 0.28933 0.26508 0.49989 0.0
O126 O 0.33302 0.28543 0.50757 0.0
C127 C 0.29391 0.26159 0.42295 0.0
O128 O 0.30245 0.2994 0.43437 0.0
O129 O 0.38776 0.31283 0.4643 0.0
C130 C 0.18828 0.33368 0.77844 0.0
O131 O 0.18133 0.32625 0.75704 0.0
O132 O 0.08797 0.32641 0.74529 0.0
Zn133 Zn 0.09503 0.32701 0.77838 0.0
O134 O 0.04696 0.26209 0.78911 0.0
C135 C 0.03177 0.35935 0.78543 0.0
O136 O 0.00642 0.31939 0.77458 0.0
O137 O 0.15838 0.33891 0.78989 0.0
C138 C 0.02682 0.25613 0.80779 0.0
O139 O 0.03875 0.29289 0.82069 0.0
C140 C 0.07274 0.28869 0.73392 0.0
O141 O 0.06928 0.25058 0.7432 0.0
O142 O 0.07507 0.37287 0.78979 0.0
C143 C 0.85776 0.15088 0.11448 0.0
O144 O 0.86188 0.12041 0.10177 0.0
O145 O 0.77713 0.07403 0.07221 0.0
Zn146 Zn 0.76209 0.08594 0.10348 0.0
O147 O 0.75416 0.0323 0.12265 0.0
C148 C 0.66886 0.05784 0.08764 0.0
O149 O 0.68597 0.04545 0.07087 0.0
O150 O 0.81659 0.14587 0.11721 0.0
C151 C 0.72486 0.9893 0.11787 0.0
O152 O 0.69929 0.97932 0.09974 0.0
C153 C 0.79095 0.0447 0.06755 0.0
O154 O 0.80303 0.02572 0.08366 0.0
O155 O 0.69653 0.08059 0.10366 0.0
H156 H 0.94959 0.17147 0.10972 0.0
H157 H 0.86089 0.20896 0.14858 0.0
H158 H 0.93013 0.25996 0.17241 0.0
H159 H 0.01164 0.16019 0.15393 0.0
H160 H 0.06748 0.1839 0.13945 0.0
H161 H 0.01253 0.15508 0.12425 0.0
H162 H 0.04099 0.23021 0.09998 0.0
H163 H 0.09623 0.25926 0.11508 0.0
H164 H 0.06 0.28671 0.11305 0.0
H165 H 0.00821 0.30002 0.19448 0.0
H166 H 0.08707 0.32674 0.21155 0.0
H167 H 0.12307 0.26332 0.15721 0.0
C168 C 0.94474 0.19107 0.12296 0.0
C169 C 0.89975 0.18628 0.12722 0.0
C170 C 0.89507 0.21232 0.14488 0.0
C171 C 0.93421 0.24131 0.15852 0.0
C172 C 0.97783 0.24421 0.15415 0.0
C173 C 0.98323 0.22005 0.13661 0.0
C174 C 0.0327 0.22651 0.13603 0.0
C175 C 0.03095 0.17859 0.13857 0.0
C176 C 0.05903 0.25222 0.11477 0.0
C177 C 0.0543 0.25749 0.15619 0.0
C178 C 0.02234 0.26753 0.16649 0.0
C179 C 0.03369 0.29296 0.18632 0.0
C180 C 0.07856 0.30798 0.19591 0.0
C181 C 0.11155 0.29761 0.18563 0.0
C182 C 0.09917 0.27265 0.16535 0.0
H183 H 0.78271 0.05101 0.53877 0.0
H184 H 0.80837 0.16044 0.49071 0.0
H185 H 0.763 0.09871 0.46277 0.0
H186 H 0.80113 0.97937 0.50342 0.0
H187 H 0.75583 0.92377 0.51483 0.0
H188 H 0.78328 0.9759 0.53194 0.0
H189 H 0.70046 0.96521 0.541 0.0
H190 H 0.67266 0.91284 0.52388 0.0
H191 H 0.66155 0.96099 0.51874 0.0
H192 H 0.72493 0.02589 0.43874 0.0
H193 H 0.69759 0.94826 0.42077 0.0
H194 H 0.69576 0.88655 0.4847 0.0
C195 C 0.77776 0.06204 0.52255 0.0
C196 C 0.79899 0.1106 0.51698 0.0
C197 C 0.7923 0.12347 0.49543 0.0
C198 C 0.76643 0.08863 0.47944 0.0
C199 C 0.74706 0.04107 0.48532 0.0
C200 C 0.75209 0.02776 0.50643 0.0
C201 C 0.73182 0.97464 0.50799 0.0
C202 C 0.77031 0.96276 0.51494 0.0
C203 C 0.68907 0.9521 0.52384 0.0
C204 C 0.71634 0.96036 0.48426 0.0
C205 C 0.72478 0.99903 0.47148 0.0
C206 C 0.71728 0.99519 0.44866 0.0
C207 C 0.7018 0.95095 0.43858 0.0
C208 C 0.69417 0.9112 0.45132 0.0
C209 C 0.70037 0.91595 0.47452 0.0
H210 H 0.67636 0.79796 0.82814 0.0
H211 H 0.63897 0.71086 0.88726 0.0
H212 H 0.66753 0.66127 0.86955 0.0
H213 H 0.65209 0.70207 0.78668 0.0
H214 H 0.70292 0.74233 0.77035 0.0
H215 H 0.67029 0.76423 0.78573 0.0
H216 H 0.74816 0.82544 0.80528 0.0
H217 H 0.78087 0.80362 0.79015 0.0
H218 H 0.78281 0.80494 0.81997 0.0
H219 H 0.71123 0.62916 0.84774 0.0
H220 H 0.76765 0.6187 0.82436 0.0
H221 H 0.77815 0.72839 0.77997 0.0
C222 C 0.67251 0.76742 0.8371 0.0
C223 C 0.65498 0.75803 0.85904 0.0
C224 C 0.6519 0.71852 0.87039 0.0
C225 C 0.66793 0.69007 0.86042 0.0
C226 C 0.68677 0.70149 0.83908 0.0
C227 C 0.68882 0.73911 0.82751 0.0
C228 C 0.71609 0.74792 0.80604 0.0
C229 C 0.68338 0.73856 0.78601 0.0
C230 C 0.75954 0.79845 0.80535 0.0
C231 C 0.73093 0.71077 0.80778 0.0
C232 C 0.71283 0.68363 0.8267 0.0
C233 C 0.72487 0.64961 0.83269 0.0
C234 C 0.75704 0.64397 0.8193 0.0
C235 C 0.77731 0.67265 0.80028 0.0
C236 C 0.76294 0.70552 0.79423 0.0
H237 H 0.94551 0.73133 0.20511 0.0
H238 H 0.84043 0.65032 0.15477 0.0
H239 H 0.90467 0.67458 0.12718 0.0
H240 H 0.01736 0.82839 0.17211 0.0
H241 H 0.07299 0.83946 0.18389 0.0
H242 H 0.01954 0.81093 0.20022 0.0
H243 H 0.03278 0.7399 0.20744 0.0
H244 H 0.08649 0.76837 0.19117 0.0
H245 H 0.04014 0.70912 0.18433 0.0
H246 H 0.97963 0.71561 0.10414 0.0
H247 H 0.059 0.76828 0.08794 0.0
H248 H 0.11495 0.82088 0.15355 0.0
C249 C 0.93596 0.71772 0.18841 0.0
C250 C 0.88781 0.68869 0.18217 0.0
C251 C 0.877 0.67232 0.16003 0.0
C252 C 0.91329 0.68592 0.14422 0.0
C253 C 0.96029 0.71555 0.15082 0.0
C254 C 0.97171 0.73089 0.17246 0.0
C255 C 0.02457 0.76507 0.17503 0.0
C256 C 0.03415 0.81383 0.18329 0.0
C257 C 0.04733 0.74436 0.1904 0.0
C258 C 0.04097 0.76765 0.15134 0.0
C259 C 0.00347 0.73861 0.13763 0.0
C260 C 0.00939 0.73782 0.11479 0.0
C261 C 0.05461 0.76792 0.10573 0.0
C262 C 0.09338 0.79837 0.11946 0.0
C263 C 0.08638 0.79738 0.14261 0.0
H264 H 0.27043 0.0586 0.4605 0.0
H265 H 0.36928 0.16284 0.50706 0.0
H266 H 0.35955 0.09829 0.53186 0.0
H267 H 0.19043 0.98471 0.4984 0.0
H268 H 0.17552 0.92988 0.48462 0.0
H269 H 0.19693 0.98347 0.46881 0.0
H270 H 0.26485 0.97242 0.45284 0.0
H271 H 0.24343 0.91845 0.46858 0.0
H272 H 0.3043 0.96541 0.47145 0.0
H273 H 0.3281 0.02336 0.55435 0.0
H274 H 0.27989 0.94454 0.57176 0.0
H275 H 0.204 0.88944 0.50992 0.0
C276 C 0.29116 0.06789 0.47559 0.0
C277 C 0.32065 0.11579 0.4818 0.0
C278 C 0.34667 0.12641 0.50186 0.0
C279 C 0.34142 0.08994 0.51606 0.0
C280 C 0.31065 0.04306 0.50981 0.0
C281 C 0.28652 0.03197 0.48987 0.0
C282 C 0.25221 0.9792 0.4879 0.0
C283 C 0.20076 0.96874 0.48476 0.0
C284 C 0.26711 0.9576 0.46907 0.0
C285 C 0.25904 0.96259 0.51028 0.0
C286 C 0.29331 -0.00024 0.52261 0.0
C287 C 0.30205 0.99376 0.54465 0.0
C288 C 0.27443 0.9489 0.55443 0.0
C289 C 0.2385 0.91067 0.54217 0.0
C290 C 0.23185 0.91758 0.51964 0.0
H291 H 0.26821 0.22647 0.87497 0.0
H292 H 0.36348 0.21523 0.8282 0.0
H293 H 0.34939 0.2645 0.80157 0.0
H294 H 0.18324 0.21177 0.83774 0.0
H295 H 0.16847 0.25302 0.85024 0.0
H296 H 0.1926 0.22449 0.86695 0.0
H297 H 0.2608 0.30651 0.87983 0.0
H298 H 0.23667 0.33541 0.86316 0.0
H299 H 0.29762 0.35006 0.8595 0.0
H300 H 0.31434 0.30317 0.77789 0.0
H301 H 0.26326 0.32959 0.75981 0.0
H302 H 0.19291 0.31746 0.82251 0.0
C303 C 0.28723 0.23548 0.85939 0.0
C304 C 0.31704 0.21705 0.85371 0.0
C305 C 0.34073 0.22918 0.83301 0.0
C306 C 0.33297 0.25722 0.81777 0.0
C307 C 0.30201 0.27344 0.82361 0.0
C308 C 0.28004 0.2635 0.84407 0.0
C309 C 0.24501 0.28122 0.84561 0.0
C310 C 0.19436 0.24018 0.8504 0.0
C311 C 0.261 0.32065 0.86306 0.0
C312 C 0.24902 0.3007 0.82247 0.0
C313 C 0.2825 0.29649 0.81008 0.0
C314 C 0.28887 0.30769 0.78758 0.0
C315 C 0.25962 0.32259 0.77743 0.0
C316 C 0.22442 0.3261 0.78977 0.0
C317 C 0.22018 0.31622 0.8127 0.0
H318 H 0.56519 0.59371 0.2101 0.0
H319 H 0.63107 0.50641 0.21541 0.0
H320 H 0.55167 0.43523 0.2199 0.0
H321 H 0.47603 0.53448 0.25015 0.0
H322 H 0.4304 0.53926 0.23536 0.0
H323 H 0.492 0.58296 0.2312 0.0
H324 H 0.48265 0.56649 0.18902 0.0
H325 H 0.42088 0.52285 0.19302 0.0
H326 H 0.45984 0.50671 0.17911 0.0
H327 H 0.46646 0.3752 0.22719 0.0
H328 H 0.38023 0.32874 0.23423 0.0
H329 H 0.3684 0.45393 0.2224 0.0
C330 C 0.56291 0.55954 0.21197 0.0
C331 C 0.60437 0.55559 0.21246 0.0
C332 C 0.59984 0.51026 0.21489 0.0
C333 C 0.5549 0.46966 0.21749 0.0
C334 C 0.51485 0.47494 0.21729 0.0
C335 C 0.51832 0.51861 0.2143 0.0
C336 C 0.46974 0.51463 0.21509 0.0
C337 C 0.4669 0.5446 0.23408 0.0
C338 C 0.45757 0.52849 0.19273 0.0
C339 C 0.43844 0.46201 0.21956 0.0
C340 C 0.4653 0.43989 0.22078 0.0
C341 C 0.44499 0.39198 0.22597 0.0
C342 C 0.396 0.36597 0.23006 0.0
C343 C 0.36761 0.38769 0.22876 0.0
C344 C 0.38913 0.43628 0.2232 0.0
H345 H 0.07975 0.61132 0.58247 0.0
H346 H 0.07077 0.64265 0.5134 0.0
H347 H 0.02579 0.55652 0.50522 0.0
H348 H 0.0922 0.50802 0.57399 0.0
H349 H 0.0559 0.4774 0.59764 0.0
H350 H 0.08987 0.54125 0.59735 0.0
H351 H 0.01282 0.54429 0.60488 0.0
H352 H 0.97853 0.48047 0.60491 0.0
H353 H 0.96286 0.51391 0.5864 0.0
H354 H 0.98013 0.46583 0.50511 0.0
H355 H 0.93873 0.37956 0.51307 0.0
H356 H 0.97549 0.41033 0.58254 0.0
C357 C 0.06911 0.60025 0.56553 0.0
C358 C 0.07916 0.63369 0.54852 0.0
C359 C 0.06369 0.61757 0.52666 0.0
C360 C 0.03806 0.56877 0.52188 0.0
C361 C 0.02794 0.53673 0.53918 0.0
C362 C 0.04309 0.55195 0.56055 0.0
C363 C 0.0262 0.51076 0.57643 0.0
C364 C 0.06857 0.50928 0.58696 0.0
C365 C 0.99314 0.51248 0.59419 0.0
C366 C 0.99921 0.46982 0.56068 0.0
C367 C 0.00066 0.48526 0.53924 0.0
C368 C 0.9787 0.4534 0.52186 0.0
C369 C 0.95519 0.40452 0.52653 0.0
C370 C 0.95359 0.38819 0.54843 0.0
C371 C 0.97558 0.42152 0.56564 0.0
H372 H 0.43231 0.02891 0.91591 0.0
H373 H 0.42829 0.06004 0.84631 0.0
H374 H 0.47202 0.01819 0.8371 0.0
H375 H 0.5496 0.04307 0.91583 0.0
H376 H 0.5339 0.99512 0.93506 0.0
H377 H 0.50329 0.02839 0.93597 0.0
H378 H 0.42265 0.95033 0.93163 0.0
H379 H 0.45305 0.91687 0.9305 0.0
H380 H 0.41362 0.91201 0.90838 0.0
H381 H 0.51674 0.973 0.83568 0.0
H382 H 0.55976 0.92936 0.84221 0.0
H383 H 0.5317 0.92612 0.91264 0.0
C384 C 0.44086 0.0273 0.89872 0.0
C385 C 0.42701 0.04795 0.88183 0.0
C386 C 0.43866 0.04464 0.85954 0.0
C387 C 0.46338 0.02084 0.85415 0.0
C388 C 0.47597 0.00041 0.87121 0.0
C389 C 0.46516 0.0035 0.89304 0.0
C390 C 0.48231 0.97829 0.9083 0.0
C391 C 0.51949 0.01331 0.92475 0.0
C392 C 0.4404 0.93692 0.92041 0.0
C393 C 0.50457 0.9605 0.89166 0.0
C394 C 0.50067 0.97367 0.87035 0.0
C395 C 0.51979 0.96232 0.85229 0.0
C396 C 0.54408 0.93746 0.85616 0.0
C397 C 0.54879 0.92398 0.87791 0.0
C398 C 0.5282 0.93529 0.89578 0.0
H399 H 0.5582 0.60609 0.4071 0.0
H400 H 0.58346 0.64744 0.4763 0.0
H401 H 0.53809 0.56314 0.48727 0.0
H402 H 0.43828 0.50643 0.41383 0.0
H403 H 0.44635 0.47075 0.39338 0.0
H404 H 0.47895 0.53447 0.39113 0.0
H405 H 0.55798 0.53299 0.39004 0.0
H406 H 0.52566 0.46932 0.39258 0.0
H407 H 0.57175 0.50475 0.41221 0.0
H408 H 0.49142 0.47442 0.49071 0.0
H409 H 0.44407 0.3874 0.48639 0.0
H410 H 0.45124 0.404 0.41492 0.0
C411 C 0.55363 0.59751 0.42457 0.0
C412 C 0.57419 0.63341 0.44085 0.0
C413 C 0.56791 0.62057 0.46353 0.0
C414 C 0.54231 0.57278 0.46993 0.0
C415 C 0.52336 0.53827 0.45345 0.0
C416 C 0.52849 0.55 0.43125 0.0
C417 C 0.50541 0.50604 0.41684 0.0
C418 C 0.46483 0.50433 0.40298 0.0
C419 C 0.54242 0.50312 0.40205 0.0
C420 C 0.48653 0.46776 0.43442 0.0
C421 C 0.49723 0.48711 0.45543 0.0
C422 C 0.48286 0.45883 0.47434 0.0
C423 C 0.45609 0.40945 0.47171 0.0
C424 C 0.44417 0.38887 0.45033 0.0
C425 C 0.46021 0.41856 0.43148 0.0
H426 H 0.02289 0.59626 0.80504 0.0
H427 H 0.86909 0.50985 0.801 0.0
H428 H 0.87565 0.43754 0.80075 0.0
H429 H 0.04794 0.53099 0.7679 0.0
H430 H 0.09947 0.53718 0.78219 0.0
H431 H 0.08276 0.58184 0.78531 0.0
H432 H 0.07921 0.57108 0.82789 0.0
H433 H 0.09625 0.52648 0.82493 0.0
H434 H 0.04256 0.51286 0.83961 0.0
H435 H 0.89893 0.37584 0.79641 0.0
H436 H 0.93721 0.32833 0.78891 0.0
H437 H 0.07618 0.4543 0.79597 0.0
C438 C 0.99049 0.56211 0.80466 0.0
C439 C 0.94542 0.55871 0.80313 0.0
C440 C 0.90397 0.51334 0.80225 0.0
C441 C 0.90733 0.47206 0.80216 0.0
C442 C 0.95236 0.47674 0.8031 0.0
C443 C 0.99322 0.52056 0.8045 0.0
C444 C 0.03739 0.51596 0.80351 0.0
C445 C 0.06871 0.54309 0.78354 0.0
C446 C 0.0655 0.53258 0.82528 0.0
C447 C 0.015 0.46281 0.8006 0.0
C448 C 0.9659 0.44087 0.80065 0.0
C449 C 0.9373 0.39248 0.7967 0.0
C450 C 0.95942 0.36586 0.79234 0.0
C451 C 0.00965 0.38763 0.79195 0.0
C452 C 0.03772 0.43661 0.79652 0.0
H453 H 0.42107 0.00912 0.13966 0.0
H454 H 0.35162 0.90465 0.0876 0.0
H455 H 0.42998 0.92247 0.07335 0.0
H456 H 0.51766 0.09412 0.10783 0.0
H457 H 0.56147 0.11096 0.12945 0.0
H458 H 0.50001 0.08883 0.13646 0.0
H459 H 0.49973 0.02309 0.16074 0.0
H460 H 0.56142 0.04545 0.15406 0.0
H461 H 0.51823 0.98411 0.14885 0.0
H462 H 0.51478 0.9557 0.0629 0.0
H463 H 0.60163 0.99485 0.05941 0.0
H464 H 0.61782 0.07593 0.11917 0.0
C465 C 0.42233 0.98949 0.12545 0.0
C466 C 0.38012 0.95547 0.11473 0.0
C467 C 0.38334 0.93063 0.09617 0.0
C468 C 0.42772 0.94071 0.08787 0.0
C469 C 0.46856 0.97529 0.09846 0.0
C470 C 0.4664 0.99872 0.11708 0.0
C471 C 0.5159 0.03419 0.1253 0.0
C472 C 0.52423 0.08503 0.12472 0.0
C473 C 0.52431 0.0209 0.14862 0.0
C474 C 0.54618 0.02744 0.10819 0.0
C475 C 0.51796 0.99354 0.09279 0.0
C476 C 0.53729 0.9819 0.075 0.0
C477 C 0.58682 0.00465 0.07312 0.0
C478 C 0.61676 0.03844 0.08907 0.0
C479 C 0.59598 0.05022 0.10675 0.0
H480 H 0.26867 0.0539 0.14444 0.0
H481 H 0.17994 0.95232 0.19456 0.0
H482 H 0.17678 0.01653 0.21496 0.0
H483 H 0.33563 0.15434 0.18185 0.0
H484 H 0.33715 0.19658 0.1621 0.0
H485 H 0.33549 0.1433 0.1526 0.0
H486 H 0.26037 0.12213 0.12934 0.0
H487 H 0.26151 0.17506 0.13888 0.0
H488 H 0.20885 0.11801 0.14278 0.0
H489 H 0.17819 0.09056 0.22813 0.0
H490 H 0.18671 0.16947 0.23404 0.0
H491 H 0.27487 0.22196 0.17517 0.0
C492 C 0.24909 0.04515 0.15987 0.0
C493 C 0.22453 0.99812 0.16793 0.0
C494 C 0.19917 0.98817 0.18813 0.0
C495 C 0.19714 0.02436 0.19981 0.0
C496 C 0.22093 0.07017 0.1911 0.0
C497 C 0.24676 0.08069 0.17169 0.0
C498 C 0.26752 0.13225 0.16533 0.0
C499 C 0.3222 0.15814 0.16549 0.0
C500 C 0.2484 0.13711 0.14275 0.0
C501 C 0.24858 0.14901 0.18398 0.0
C502 C 0.22194 0.11276 0.19872 0.0
C503 C 0.19934 0.11933 0.21682 0.0
C504 C 0.20423 0.16421 0.21996 0.0
C505 C 0.23151 0.20186 0.20506 0.0
C506 C 0.25404 0.19401 0.18692 0.0
H507 H 0.02999 0.2272 0.5182 0.0
H508 H 0.0844 0.31474 0.57709 0.0
H509 H 0.16211 0.31991 0.57153 0.0
H510 H 0.09335 0.16226 0.52548 0.0
H511 H 0.10433 0.16159 0.49627 0.0
H512 H 0.05216 0.16262 0.50559 0.0
H513 H 0.07678 0.23827 0.48223 0.0
H514 H 0.12895 0.23744 0.47284 0.0
H515 H 0.13482 0.28963 0.48619 0.0
H516 H 0.23475 0.31796 0.55881 0.0
H517 H 0.29755 0.31059 0.53924 0.0
H518 H 0.19544 0.22495 0.48862 0.0
C519 C 0.0581 0.24711 0.53004 0.0
C520 C 0.05115 0.27052 0.54808 0.0
C521 C 0.08896 0.29657 0.56311 0.0
C522 C 0.13318 0.29959 0.56015 0.0
C523 C 0.13896 0.27636 0.5421 0.0
C524 C 0.10248 0.25066 0.52729 0.0
C525 C 0.11847 0.23059 0.50878 0.0
C526 C 0.09041 0.17602 0.50906 0.0
C527 C 0.11453 0.25017 0.48618 0.0
C528 C 0.16981 0.24958 0.51533 0.0
C529 C 0.18087 0.27555 0.53469 0.0
C530 C 0.22649 0.29748 0.54369 0.0
C531 C 0.26189 0.29309 0.53247 0.0
C532 C 0.25141 0.2672 0.51242 0.0
C533 C 0.2046 0.24488 0.50394 0.0
H534 H 0.95195 0.23721 0.83466 0.0
H535 H 0.01062 0.16979 0.79347 0.0
H536 H 0.94052 0.09133 0.80151 0.0
H537 H 0.89736 0.14495 0.87629 0.0
H538 H 0.84565 0.15148 0.87899 0.0
H539 H 0.90195 0.20166 0.87117 0.0
H540 H 0.86307 0.21312 0.83599 0.0
H541 H 0.80675 0.16275 0.8436 0.0
H542 H 0.83243 0.16441 0.81693 0.0
H543 H 0.86428 0.02065 0.81409 0.0
H544 H 0.78545 0.96262 0.82916 0.0
H545 H 0.77459 0.07726 0.85999 0.0
C546 C 0.95038 0.20583 0.82764 0.0
C547 C 0.98677 0.20924 0.81369 0.0
C548 C 0.98305 0.16767 0.80431 0.0
C549 C 0.94349 0.12308 0.80879 0.0
C550 C 0.90785 0.12097 0.8224 0.0
C551 C 0.91079 0.16124 0.83159 0.0
C552 C 0.86657 0.14956 0.8447 0.0
C553 C 0.87862 0.16268 0.86924 0.0
C554 C 0.84068 0.1739 0.8347 0.0
C555 C 0.83832 0.09638 0.8415 0.0
C556 C 0.86294 0.08053 0.82876 0.0
C557 C 0.84454 0.03263 0.82401 0.0
C558 C 0.79984 -0.0 0.83262 0.0
C559 C 0.77393 0.01561 0.84556 0.0
C560 C 0.79337 0.06444 0.8499 0.0
H561 H 0.69287 0.89705 0.10594 0.0
H562 H 0.75326 0.99585 0.16077 0.0
H563 H 0.75497 0.93353 0.18331 0.0
H564 H 0.62022 0.78944 0.1391 0.0
H565 H 0.63251 0.75264 0.12115 0.0
H566 H 0.63129 0.80341 0.11006 0.0
H567 H 0.71644 0.83592 0.09454 0.0
H568 H 0.71804 0.78545 0.10565 0.0
H569 H 0.76371 0.84463 0.11303 0.0
H570 H 0.75484 0.86331 0.19898 0.0
H571 H 0.75471 0.78926 0.20696 0.0
H572 H 0.6964 0.73574 0.14164 0.0
C573 C 0.70555 0.90522 0.12284 0.0
C574 C 0.72263 0.95106 0.13172 0.0
C575 C 0.73997 0.96087 0.1537 0.0
C576 C 0.74091 0.92571 0.16664 0.0
C577 C 0.72456 0.8811 0.15728 0.0
C578 C 0.70724 0.87066 0.13591 0.0
C579 C 0.69507 0.82089 0.12937 0.0
C580 C 0.64159 0.78976 0.12465 0.0
C581 C 0.72512 0.82181 0.10948 0.0
C582 C 0.70905 0.80534 0.15031 0.0
C583 C 0.72545 0.84051 0.16624 0.0
C584 C 0.74179 0.83532 0.18672 0.0
C585 C 0.74167 0.7931 0.19104 0.0
C586 C 0.72559 0.75665 0.1749 0.0
C587 C 0.70873 0.76283 0.15433 0.0
H588 H 0.76751 0.68885 0.48697 0.0
H589 H 0.82742 0.83894 0.4727 0.0
H590 H 0.90175 0.85601 0.49138 0.0
H591 H 0.82164 0.70371 0.5413 0.0
H592 H 0.83212 0.65474 0.53767 0.0
H593 H 0.78266 0.65431 0.52394 0.0
H594 H 0.81332 0.64292 0.48612 0.0
H595 H 0.86283 0.64331 0.49972 0.0
H596 H 0.87327 0.68462 0.47762 0.0
H597 H 0.97037 0.85672 0.51009 0.0
H598 H 0.02942 0.84096 0.52782 0.0
H599 H 0.92498 0.69054 0.53026 0.0
C600 C 0.79612 0.72535 0.4879 0.0
C601 C 0.79164 0.76255 0.47838 0.0
C602 C 0.83001 0.80982 0.47986 0.0
C603 C 0.87237 0.81993 0.49048 0.0
C604 C 0.87571 0.78244 0.49957 0.0
C605 C 0.83867 0.73611 0.49845 0.0
C606 C 0.85205 0.70228 0.50908 0.0
C607 C 0.82022 0.6773 0.52919 0.0
C608 C 0.85027 0.66617 0.49212 0.0
C609 C 0.9026 0.73682 0.51608 0.0
C610 C 0.91542 0.78287 0.5105 0.0
C611 C 0.96073 0.82086 0.51467 0.0
C612 C 0.99401 0.81151 0.52471 0.0
C613 C 0.98177 0.76453 0.53045 0.0
C614 C 0.9353 0.72685 0.52621 0.0
H615 H 0.24368 0.967 0.81567 0.0
H616 H 0.17927 0.99924 0.87106 0.0
H617 H 0.10156 0.9299 0.86176 0.0
H618 H 0.14302 0.92605 0.77811 0.0
H619 H 0.15153 0.87981 0.76652 0.0
H620 H 0.20177 0.93329 0.77695 0.0
H621 H 0.22298 0.88313 0.80288 0.0
H622 H 0.17273 0.82955 0.79261 0.0
H623 H 0.17882 0.84187 0.82189 0.0
H624 H 0.03172 0.85551 0.84748 0.0
H625 H 0.97388 0.78162 0.82863 0.0
H626 H 0.0838 0.79796 0.78256 0.0
C627 C 0.21318 0.95977 0.82572 0.0
C628 C 0.21756 0.98858 0.84407 0.0
C629 C 0.17679 0.97771 0.8569 0.0
C630 C 0.13247 0.93841 0.85176 0.0
C631 C 0.12951 0.91044 0.83373 0.0
C632 C 0.16867 0.92068 0.82084 0.0
C633 C 0.15604 0.88423 0.8027 0.0
C634 C 0.16353 0.90723 0.77971 0.0
C635 C 0.18432 0.85816 0.80518 0.0
C636 C 0.10377 0.85167 0.80755 0.0
C637 C 0.08916 0.86749 0.82547 0.0
C638 C 0.04264 0.84285 0.83334 0.0
C639 C 0.0101 0.80088 0.82256 0.0
C640 C 0.02431 0.78403 0.80412 0.0
C641 C 0.07179 0.80995 0.79656 0.0
H642 H 0.29742 0.32788 0.39415 0.0
H643 H 0.23914 0.17631 0.40236 0.0
H644 H 0.19822 0.16219 0.36624 0.0
H645 H 0.19661 0.3237 0.36642 0.0
H646 H 0.23278 0.37147 0.34769 0.0
H647 H 0.25508 0.36956 0.37476 0.0
H648 H 0.32939 0.3729 0.35704 0.0
H649 H 0.30758 0.37532 0.32997 0.0
H650 H 0.32167 0.32966 0.33637 0.0
H651 H 0.16335 0.16478 0.32953 0.0
H652 H 0.14541 0.18377 0.29255 0.0
H653 H 0.23049 0.33419 0.30729 0.0
C654 C 0.27578 0.2917 0.38839 0.0
C655 C 0.271 0.25309 0.40105 0.0
C656 C 0.2432 0.20633 0.39284 0.0
C657 C 0.2196 0.19799 0.37246 0.0
C658 C 0.22475 0.23686 0.36044 0.0
C659 C 0.25276 0.28284 0.36792 0.0
C660 C 0.2551 0.3185 0.35113 0.0
C661 C 0.2336 0.34751 0.36057 0.0
C662 C 0.30648 0.35099 0.34316 0.0
C663 C 0.22418 0.28541 0.33295 0.0
C664 C 0.20635 0.23846 0.33884 0.0
C665 C 0.17715 0.2014 0.32472 0.0
C666 C 0.16698 0.2126 0.30377 0.0
C667 C 0.18659 0.2605 0.29699 0.0
C668 C 0.21488 0.29726 0.31199 0.0
H669 H 0.95321 0.17144 0.61801 0.0
H670 H 0.90531 0.27421 0.61437 0.0
H671 H 0.94226 0.30657 0.65055 0.0
H672 H 0.93537 0.1513 0.67839 0.0
H673 H 0.9872 0.14509 0.68142 0.0
H674 H 0.95405 0.12799 0.6559 0.0
H675 H 0.03118 0.18403 0.63441 0.0
H676 H 0.06439 0.20214 0.65988 0.0
H677 H 0.06436 0.24602 0.64169 0.0
H678 H 0.99194 0.33374 0.6848 0.0
H679 H 0.03973 0.3455 0.71837 0.0
H680 H 0.05203 0.2226 0.70111 0.0
C681 C 0.94951 0.20002 0.62503 0.0
C682 C 0.92656 0.22043 0.61323 0.0
C683 C 0.92272 0.25795 0.62302 0.0
C684 C 0.94382 0.27679 0.64354 0.0
C685 C 0.96793 0.25722 0.65426 0.0
C686 C 0.96989 0.21892 0.64565 0.0
C687 C 0.99834 0.20479 0.66054 0.0
C688 C 0.96685 0.1543 0.66961 0.0
C689 C 0.04216 0.20955 0.6484 0.0
C690 C 0.01267 0.24165 0.67866 0.0
C691 C 0.99517 0.27183 0.67455 0.0
C692 C 0.0053 0.30995 0.68838 0.0
C693 C 0.03289 0.31659 0.7073 0.0
C694 C 0.04955 0.28491 0.71237 0.0
C695 C 0.03962 0.24725 0.6977 0.0
H696 H 0.76166 0.07233 0.03071 0.0
H697 H 0.80431 0.97237 0.05315 0.0
H698 H 0.78304 0.93305 0.01665 0.0
H699 H 0.66133 0.9909 0.00076 0.0
H700 H 0.66898 0.03113 0.97857 0.0
H701 H 0.69115 0.05391 0.0058 0.0
H702 H 0.77566 0.10781 0.98981 0.0
H703 H 0.75361 0.08568 0.96246 0.0
H704 H 0.80315 0.08178 0.97345 0.0
H705 H 0.75076 0.90056 0.97856 0.0
H706 H 0.71643 0.88193 0.94084 0.0
H707 H 0.69611 0.00389 0.9436 0.0
C708 C 0.76744 0.04276 0.02786 0.0
C709 C 0.78479 0.02555 0.04481 0.0
C710 C 0.79134 0.98642 0.0404 0.0
C711 C 0.77918 0.9637 0.01973 0.0
C712 C 0.76085 0.98073 0.00361 0.0
C713 C 0.75562 0.01977 0.00735 0.0
C714 C 0.73394 0.03029 0.98753 0.0
C715 C 0.68601 0.0263 0.99353 0.0
C716 C 0.76867 0.07929 0.97773 0.0
C717 C 0.72722 0.99073 0.97215 0.0
C718 C 0.74282 0.9624 0.9817 0.0
C719 C 0.73887 0.92279 0.97082 0.0
C720 C 0.7191 0.91233 0.94947 0.0
C721 C 0.70377 0.94153 0.93925 0.0
C722 C 0.70777 0.98103 0.95088 0.0
H723 H 0.75894 0.66338 0.28502 0.0
H724 H 0.82208 0.80871 0.26164 0.0
H725 H 0.81134 0.83394 0.29857 0.0
H726 H 0.67064 0.66347 0.31819 0.0
H727 H 0.67455 0.62833 0.34027 0.0
H728 H 0.69043 0.62175 0.31249 0.0
H729 H 0.7737 0.6401 0.32597 0.0
H730 H 0.75785 0.64615 0.35388 0.0
H731 H 0.81042 0.69384 0.34129 0.0
H732 H 0.78584 0.84209 0.33665 0.0
H733 H 0.75554 0.83395 0.37488 0.0
H734 H 0.71261 0.68445 0.37421 0.0
C735 C 0.77134 0.70065 0.28778 0.0
C736 C 0.79131 0.73402 0.2704 0.0
C737 C 0.80684 0.78244 0.27468 0.0
C738 C 0.80076 0.79717 0.29561 0.0
C739 C 0.7797 0.7632 0.31218 0.0
C740 C 0.76601 0.7161 0.30867 0.0
C741 C 0.74342 0.68667 0.32923 0.0
C742 C 0.6917 0.64777 0.32477 0.0
C743 C 0.77313 0.66545 0.33812 0.0
C744 C 0.74563 0.72442 0.34465 0.0
C745 C 0.76648 0.76827 0.33445 0.0
C746 C 0.77013 0.8081 0.34495 0.0
C747 C 0.75256 0.80308 0.36658 0.0
C748 C 0.7321 0.7587 0.37751 0.0
C749 C 0.72867 0.71896 0.36635 0.0
H750 H 0.04833 0.82703 0.62743 0.0
H751 H 0.0768 0.71154 0.61698 0.0
H752 H 0.03659 0.67512 0.65211 0.0
H753 H 0.06709 0.83438 0.68737 0.0
H754 H 0.02065 0.84806 0.6927 0.0
H755 H 0.05279 0.86565 0.66692 0.0
H756 H 0.97312 0.82088 0.64552 0.0
H757 H 0.94079 0.80254 0.67123 0.0
H758 H 0.93346 0.75874 0.65096 0.0
H759 H 0.9887 0.64824 0.68688 0.0
H760 H 0.94533 0.63785 0.7218 0.0
H761 H 0.95069 0.77233 0.71085 0.0
C762 C 0.04661 0.79439 0.63267 0.0
C763 C 0.06568 0.77214 0.61941 0.0
C764 C 0.06272 0.72944 0.62687 0.0
C765 C 0.03966 0.70827 0.64675 0.0
C766 C 0.02024 0.73048 0.65914 0.0
C767 C 0.02422 0.77302 0.65265 0.0
C768 C 0.00078 0.78974 0.66927 0.0
C769 C 0.03752 0.83727 0.67968 0.0
C770 C 0.95959 0.79316 0.6586 0.0
C771 C 0.9826 0.74967 0.68597 0.0
C772 C 0.99383 0.71566 0.67966 0.0
C773 C 0.98003 0.67481 0.69211 0.0
C774 C 0.9551 0.6691 0.71186 0.0
C775 C 0.94465 0.70431 0.7191 0.0
C776 C 0.95821 0.74484 0.70579 0.0
H777 H 0.22295 0.94191 0.03995 0.0
H778 H 0.30059 0.08193 0.06964 0.0
H779 H 0.31498 0.11838 0.03259 0.0
H780 H 0.29932 0.96659 0.99475 0.0
H781 H 0.2532 0.93128 0.97512 0.0
H782 H 0.24454 0.91616 0.00405 0.0
H783 H 0.16711 0.92072 0.00393 0.0
H784 H 0.17541 0.93562 0.97492 0.0
H785 H 0.16883 0.974 0.99433 0.0
H786 H 0.32654 0.13953 0.99219 0.0
H787 H 0.33341 0.14344 0.95138 0.0
H788 H 0.24855 0.98975 0.9482 0.0
C789 C 0.24213 0.98024 0.03869 0.0
C790 C 0.26049 0.00906 0.05769 0.0
C791 C 0.28614 0.0591 0.05531 0.0
C792 C 0.29443 0.08019 0.03433 0.0
C793 C 0.27676 0.05078 0.01589 0.0
C794 C 0.25094 0.0019 0.01785 0.0
C795 C 0.2384 0.9783 0.99535 0.0
C796 C 0.26018 0.94621 0.99214 0.0
C797 C 0.18422 0.95053 0.99194 0.0
C798 C 0.26195 0.02149 0.98047 0.0
C799 C 0.2836 0.06299 0.99261 0.0
C800 C 0.30929 0.10729 0.98248 0.0
C801 C 0.31309 0.10916 0.95931 0.0
C802 C 0.29143 0.06697 0.94658 0.0
C803 C 0.26525 0.02272 0.95741 0.0
loop_
_geom_bond_atom_site_label_1
_geom_bond_atom_site_label_2
_geom_bond_distance
_geom_bond_site_symmetry_2
_ccdc_geom_bond_type
C0 O1 1.160 . S
C0 O7 1.185 . S
O1 C0 1.160 . S
O2 Zn3 1.899 . S
O2 C10 1.284 . S
Zn3 O2 1.899 . S
Zn3 O4 2.032 . S
Zn3 O7 2.086 . S
Zn3 O12 1.977 . S
O4 Zn3 2.032 . S
O4 C8 1.278 . S
C5 O6 1.203 . S
C5 O12 1.267 . S
O6 C5 1.203 . S
O7 C0 1.185 . S
O7 Zn3 2.086 . S
C8 O4 1.278 . S
C8 O9 1.211 . S
O9 C8 1.211 . S
C10 O2 1.284 . S
C10 O11 1.273 . S
O11 C10 1.273 . S
O12 Zn3 1.977 . S
O12 C5 1.267 . S
C13 O14 1.160 . S
C13 O20 1.185 . S
O14 C13 1.160 . S
O15 Zn16 1.899 . S
O15 C23 1.284 . S
Zn16 O15 1.899 . S
Zn16 O17 2.032 . S
Zn16 O20 2.086 . S
Zn16 O25 1.977 . S
O17 Zn16 2.032 . S
O17 C21 1.278 1_655 S
C18 O19 1.203 . S
C18 O25 1.267 . S
O19 C18 1.203 . S
O20 C13 1.185 . S
O20 Zn16 2.086 . S
C21 O17 1.278 1_455 S
C21 O22 1.211 . S
O22 C21 1.211 . S
C23 O15 1.284 . S
C23 O24 1.273 1_655 S
O24 C23 1.273 1_455 S
O25 Zn16 1.977 . S
O25 C18 1.267 . S
C26 O27 1.160 . S
C26 O33 1.185 . S
O27 C26 1.160 . S
O28 Zn29 1.899 . S
O28 C36 1.284 . S
Zn29 O28 1.899 . S
Zn29 O30 2.032 . S
Zn29 O33 2.086 . S
Zn29 O38 1.977 . S
O30 Zn29 2.032 . S
O30 C34 1.278 1_565 S
C31 O32 1.203 . S
C31 O38 1.267 . S
O32 C31 1.203 . S
O33 C26 1.185 . S
O33 Zn29 2.086 . S
C34 O30 1.278 1_545 S
C34 O35 1.211 . S
O35 C34 1.211 . S
C36 O28 1.284 . S
C36 O37 1.273 1_565 S
O37 C36 1.273 1_545 S
O38 Zn29 1.977 . S
O38 C31 1.267 . S
C39 O40 1.160 . S
C39 O46 1.185 . S
O40 C39 1.160 . S
O41 Zn42 1.899 . S
O41 C49 1.284 . S
Zn42 O41 1.899 . S
Zn42 O43 2.032 . S
Zn42 O46 2.086 . S
Zn42 O51 1.977 . S
O43 Zn42 2.032 . S
O43 C47 1.278 . S
C44 O45 1.203 . S
C44 O51 1.267 . S
O45 C44 1.203 . S
O46 C39 1.185 . S
O46 Zn42 2.086 . S
C47 O43 1.278 . S
C47 O48 1.211 . S
O48 C47 1.211 . S
C49 O41 1.284 . S
C49 O50 1.273 . S
O50 C49 1.273 . S
O51 Zn42 1.977 . S
O51 C44 1.267 . S
C52 O53 1.160 . S
C52 O59 1.185 . S
O53 C52 1.160 . S
O54 Zn55 1.899 . S
O54 C62 1.284 . S
Zn55 O54 1.899 . S
Zn55 O56 2.032 . S
Zn55 O59 2.086 . S
Zn55 O64 1.977 . S
O56 Zn55 2.032 . S
O56 C60 1.278 1_455 S
C57 O58 1.203 . S
C57 O64 1.267 . S
O58 C57 1.203 . S
O59 C52 1.185 . S
O59 Zn55 2.086 . S
C60 O56 1.278 1_655 S
C60 O61 1.211 . S
O61 C60 1.211 . S
C62 O54 1.284 . S
C62 O63 1.273 1_455 S
O63 C62 1.273 1_655 S
O64 Zn55 1.977 . S
O64 C57 1.267 . S
C65 O66 1.160 . S
C65 O72 1.185 . S
O66 C65 1.160 . S
O67 Zn68 1.899 . S
O67 C75 1.284 . S
Zn68 O67 1.899 . S
Zn68 O69 2.032 . S
Zn68 O72 2.086 . S
Zn68 O77 1.977 . S
O69 Zn68 2.032 . S
O69 C73 1.278 1_545 S
C70 O71 1.203 . S
C70 O77 1.267 . S
O71 C70 1.203 . S
O72 C65 1.185 . S
O72 Zn68 2.086 . S
C73 O69 1.278 1_565 S
C73 O74 1.211 . S
O74 C73 1.211 . S
C75 O67 1.284 . S
C75 O76 1.273 1_545 S
O76 C75 1.273 1_565 S
O77 Zn68 1.977 . S
O77 C70 1.267 . S
C78 O79 1.160 . S
C78 O85 1.185 . S
O79 C78 1.160 . S
O80 Zn81 1.899 . S
O80 C88 1.284 . S
Zn81 O80 1.899 . S
Zn81 O82 2.032 . S
Zn81 O85 2.086 . S
Zn81 O90 1.977 . S
O82 Zn81 2.032 . S
O82 C86 1.278 . S
C83 O84 1.203 . S
C83 O90 1.267 . S
O84 C83 1.203 . S
O85 C78 1.185 . S
O85 Zn81 2.086 . S
C86 O82 1.278 . S
C86 O87 1.211 . S
O87 C86 1.211 . S
C88 O80 1.284 . S
C88 O89 1.273 . S
O89 C88 1.273 . S
O90 Zn81 1.977 . S
O90 C83 1.267 . S
C91 O92 1.160 . S
C91 O98 1.185 . S
O92 C91 1.160 . S
O93 Zn94 1.899 . S
O93 C101 1.284 . S
Zn94 O93 1.899 . S
Zn94 O95 2.032 . S
Zn94 O98 2.086 . S
Zn94 O103 1.977 . S
O95 Zn94 2.032 . S
O95 C99 1.278 1_655 S
C96 O97 1.203 . S
C96 O103 1.267 . S
O97 C96 1.203 . S
O98 C91 1.185 . S
O98 Zn94 2.086 . S
C99 O95 1.278 1_455 S
C99 O100 1.211 . S
O100 C99 1.211 . S
C101 O93 1.284 . S
C101 O102 1.273 1_655 S
O102 C101 1.273 1_455 S
O103 Zn94 1.977 . S
O103 C96 1.267 . S
C104 O105 1.160 . S
C104 O111 1.185 . S
O105 C104 1.160 . S
O106 Zn107 1.899 . S
O106 C114 1.284 . S
Zn107 O106 1.899 . S
Zn107 O108 2.032 . S
Zn107 O111 2.086 . S
Zn107 O116 1.977 . S
O108 Zn107 2.032 . S
O108 C112 1.278 1_565 S
C109 O110 1.203 . S
C109 O116 1.267 . S
O110 C109 1.203 . S
O111 C104 1.185 . S
O111 Zn107 2.086 . S
C112 O108 1.278 1_545 S
C112 O113 1.211 . S
O113 C112 1.211 . S
C114 O106 1.284 . S
C114 O115 1.273 1_565 S
O115 C114 1.273 1_545 S
O116 Zn107 1.977 . S
O116 C109 1.267 . S
C117 O118 1.160 . S
C117 O124 1.185 . S
O118 C117 1.160 . S
O119 Zn120 1.899 . S
O119 C127 1.284 . S
Zn120 O119 1.899 . S
Zn120 O121 2.032 . S
Zn120 O124 2.086 . S
Zn120 O129 1.977 . S
O121 Zn120 2.032 . S
O121 C125 1.278 . S
C122 O123 1.203 . S
C122 O129 1.267 . S
O123 C122 1.203 . S
O124 C117 1.185 . S
O124 Zn120 2.086 . S
C125 O121 1.278 . S
C125 O126 1.211 . S
O126 C125 1.211 . S
C127 O119 1.284 . S
C127 O128 1.273 . S
O128 C127 1.273 . S
O129 Zn120 1.977 . S
O129 C122 1.267 . S
C130 O131 1.160 . S
C130 O137 1.185 . S
O131 C130 1.160 . S
O132 Zn133 1.899 . S
O132 C140 1.284 . S
Zn133 O132 1.899 . S
Zn133 O134 2.032 . S
Zn133 O137 2.086 . S
Zn133 O142 1.977 . S
O134 Zn133 2.032 . S
O134 C138 1.278 1_455 S
C135 O136 1.203 . S
C135 O142 1.267 . S
O136 C135 1.203 . S
O137 C130 1.185 . S
O137 Zn133 2.086 . S
C138 O134 1.278 1_655 S
C138 O139 1.211 . S
O139 C138 1.211 . S
C140 O132 1.284 . S
C140 O141 1.273 1_455 S
O141 C140 1.273 1_655 S
O142 Zn133 1.977 . S
O142 C135 1.267 . S
C143 O144 1.160 . S
C143 O150 1.185 . S
O144 C143 1.160 . S
O145 Zn146 1.899 . S
O145 C153 1.284 . S
Zn146 O145 1.899 . S
Zn146 O147 2.032 . S
Zn146 O150 2.086 . S
Zn146 O155 1.977 . S
O147 Zn146 2.032 . S
O147 C151 1.278 1_545 S
C148 O149 1.203 . S
C148 O155 1.267 . S
O149 C148 1.203 . S
O150 C143 1.185 . S
O150 Zn146 2.086 . S
C151 O147 1.278 1_565 S
C151 O152 1.211 . S
O152 C151 1.211 . S
C153 O145 1.284 . S
C153 O154 1.273 1_545 S
O154 C153 1.273 1_565 S
O155 Zn146 1.977 . S
O155 C148 1.267 . S
H156 C168 0.930 . S
H157 C170 0.930 . S
H158 C171 0.930 . S
H159 C175 0.959 . S
H160 C175 0.959 1_455 S
H161 C175 0.961 . S
H162 C176 0.960 1_655 S
H163 C176 0.961 . S
H164 C176 0.959 . S
H165 C179 0.929 . S
H166 C180 0.931 . S
H167 C182 0.930 . S
C168 H156 0.930 . S
C168 C169 1.399 . S
C168 C173 1.399 . S
C169 C168 1.399 . S
C169 C170 1.376 . S
C170 H157 0.930 . S
C170 C169 1.376 . S
C170 C171 1.388 . S
C171 H158 0.930 . S
C171 C170 1.388 . S
C171 C172 1.390 . S
C172 C171 1.390 . S
C172 C173 1.394 . S
C172 C178 1.465 1_655 S
C173 C168 1.399 . S
C173 C172 1.394 . S
C173 C174 1.516 1_655 S
C174 C173 1.516 1_455 S
C174 C175 1.502 1_455 S
C174 C176 1.561 . S
C174 C177 1.526 . S
C175 H159 0.959 . S
C175 H160 0.959 1_655 S
C175 H161 0.961 . S
C175 C174 1.502 1_655 S
C176 H162 0.960 1_455 S
C176 H163 0.961 . S
C176 H164 0.959 . S
C176 C174 1.561 . S
C177 C174 1.526 . S
C177 C178 1.396 . S
C177 C182 1.390 . S
C178 C172 1.465 1_455 S
C178 C177 1.396 . S
C178 C179 1.399 . S
C179 H165 0.929 . S
C179 C178 1.399 . S
C179 C180 1.385 . S
C180 H166 0.931 . S
C180 C179 1.385 . S
C180 C181 1.389 . S
C181 C180 1.389 . S
C181 C182 1.387 . S
C182 H167 0.930 . S
C182 C177 1.390 . S
C182 C181 1.387 . S
H183 C195 0.930 . S
H184 C197 0.930 . S
H185 C198 0.930 . S
H186 C202 0.959 . S
H187 C202 0.959 . S
H188 C202 0.967 . S
H189 C203 0.960 . S
H190 C203 0.961 . S
H191 C203 0.959 . S
H192 C206 0.929 . S
H193 C207 0.931 . S
H194 C209 0.930 . S
C195 H183 0.930 . S
C195 C196 1.399 . S
C195 C200 1.399 . S
C196 C195 1.399 . S
C196 C197 1.376 . S
C197 H184 0.930 . S
C197 C196 1.376 . S
C197 C198 1.388 . S
C198 H185 0.930 . S
C198 C197 1.388 . S
C198 C199 1.390 . S
C199 C198 1.390 . S
C199 C200 1.394 . S
C199 C205 1.465 1_545 S
C200 C195 1.399 . S
C200 C199 1.394 . S
C200 C201 1.516 1_545 S
C201 C200 1.516 1_565 S
C201 C202 1.502 . S
C201 C203 1.561 . S
C201 C204 1.526 . S
C202 H186 0.959 . S
C202 H187 0.959 . S
C202 H188 0.967 . S
C202 C201 1.502 . S
C203 H189 0.960 . S
C203 H190 0.961 . S
C203 H191 0.959 . S
C203 C201 1.561 . S
C204 C201 1.526 . S
C204 C205 1.396 . S
C204 C209 1.390 . S
C205 C199 1.465 1_565 S
C205 C204 1.396 . S
C205 C206 1.399 . S
C206 H192 0.929 . S
C206 C205 1.399 . S
C206 C207 1.385 . S
C207 H193 0.931 . S
C207 C206 1.385 . S
C207 C208 1.389 . S
C208 C207 1.389 . S
C208 C209 1.387 . S
C209 H194 0.930 . S
C209 C204 1.390 . S
C209 C208 1.387 . S
H210 C222 0.930 . S
H211 C224 0.930 . S
H212 C225 0.930 . S
H213 C229 0.959 . S
H214 C229 0.959 . S
H215 C229 0.961 . S
H216 C230 0.960 . S
H217 C230 0.961 . S
H218 C230 0.959 . S
H219 C233 0.929 . S
H220 C234 0.931 . S
H221 C236 0.930 . S
C222 H210 0.930 . S
C222 C223 1.399 . S
C222 C227 1.399 . S
C223 C222 1.399 . S
C223 C224 1.376 . S
C224 H211 0.930 . S
C224 C223 1.376 . S
C224 C225 1.388 . S
C225 H212 0.930 . S
C225 C224 1.388 . S
C225 C226 1.390 . S
C226 C225 1.390 . S
C226 C227 1.394 . S
C226 C232 1.465 . S
C227 C222 1.399 . S
C227 C226 1.394 . S
C227 C228 1.516 . S
C228 C227 1.516 . S
C228 C229 1.502 . S
C228 C230 1.561 . S
C228 C231 1.526 . S
C229 H213 0.959 . S
C229 H214 0.959 . S
C229 H215 0.961 . S
C229 C228 1.502 . S
C230 H216 0.960 . S
C230 H217 0.961 . S
C230 H218 0.959 . S
C230 C228 1.561 . S
C231 C228 1.526 . S
C231 C232 1.396 . S
C231 C236 1.390 . S
C232 C226 1.465 . S
C232 C231 1.396 . S
C232 C233 1.399 . S
C233 H219 0.929 . S
C233 C232 1.399 . S
C233 C234 1.385 . S
C234 H220 0.931 . S
C234 C233 1.385 . S
C234 C235 1.389 . S
C235 C234 1.389 . S
C235 C236 1.387 . S
C236 H221 0.930 . S
C236 C231 1.390 . S
C236 C235 1.387 . S
H237 C249 0.930 . S
H238 C251 0.930 . S
H239 C252 0.930 . S
H240 C256 0.959 . S
H241 C256 0.959 . S
H242 C256 0.961 1_655 S
H243 C257 0.960 . S
H244 C257 0.961 1_455 S
H245 C257 0.959 . S
H246 C260 0.929 . S
H247 C261 0.931 . S
H248 C263 0.930 . S
C249 H237 0.930 . S
C249 C250 1.399 . S
C249 C254 1.399 . S
C250 C249 1.399 . S
C250 C251 1.376 . S
C251 H238 0.930 . S
C251 C250 1.376 . S
C251 C252 1.388 . S
C252 H239 0.930 . S
C252 C251 1.388 . S
C252 C253 1.390 . S
C253 C252 1.390 . S
C253 C254 1.394 . S
C253 C259 1.465 1_655 S
C254 C249 1.399 . S
C254 C253 1.394 . S
C254 C255 1.503 1_655 S
C255 C254 1.503 1_455 S
C255 C256 1.509 . S
C255 C257 1.562 1_455 S
C255 C258 1.530 . S
C256 H240 0.959 . S
C256 H241 0.959 . S
C256 H242 0.961 1_455 S
C256 C255 1.509 . S
C257 H243 0.960 . S
C257 H244 0.961 1_655 S
C257 H245 0.959 . S
C257 C255 1.562 1_655 S
C258 C255 1.530 . S
C258 C259 1.396 . S
C258 C263 1.390 . S
C259 C253 1.465 1_455 S
C259 C258 1.396 . S
C259 C260 1.399 . S
C260 H246 0.929 . S
C260 C259 1.399 . S
C260 C261 1.385 . S
C261 H247 0.931 . S
C261 C260 1.385 . S
C261 C262 1.389 . S
C262 C261 1.389 . S
C262 C263 1.387 . S
C263 H248 0.930 . S
C263 C258 1.390 . S
C263 C262 1.387 . S
H264 C276 0.930 . S
H265 C278 0.930 . S
H266 C279 0.930 . S
H267 C283 0.959 . S
H268 C283 0.959 . S
H269 C283 0.961 . S
H270 C284 0.960 . S
H271 C284 0.961 . S
H272 C284 0.959 . S
H273 C287 0.929 . S
H274 C288 0.931 . S
H275 C290 0.930 . S
C276 H264 0.930 . S
C276 C277 1.399 . S
C276 C281 1.399 . S
C277 C276 1.399 . S
C277 C278 1.376 . S
C278 H265 0.930 . S
C278 C277 1.376 . S
C278 C279 1.388 . S
C279 H266 0.930 . S
C279 C278 1.388 . S
C279 C280 1.390 . S
C280 C279 1.390 . S
C280 C281 1.394 . S
C280 C286 1.465 1_545 S
C281 C276 1.399 . S
C281 C280 1.394 . S
C281 C282 1.516 1_545 S
C282 C281 1.516 1_565 S
C282 C283 1.502 . S
C282 C284 1.561 . S
C282 C285 1.526 . S
C283 H267 0.959 . S
C283 H268 0.959 . S
C283 H269 0.961 . S
C283 C282 1.502 . S
C284 H270 0.960 . S
C284 H271 0.961 . S
C284 H272 0.959 . S
C284 C282 1.561 . S
C285 C282 1.526 . S
C285 C286 1.396 . S
C285 C290 1.390 . S
C286 C280 1.465 1_565 S
C286 C285 1.396 . S
C286 C287 1.399 . S
C287 H273 0.929 . S
C287 C286 1.399 . S
C287 C288 1.385 . S
C288 H274 0.931 . S
C288 C287 1.385 . S
C288 C289 1.389 . S
C289 C288 1.389 . S
C289 C290 1.387 . S
C290 H275 0.930 . S
C290 C285 1.390 . S
C290 C289 1.387 . S
H291 C303 0.930 . S
H292 C305 0.930 . S
H293 C306 0.930 . S
H294 C310 0.959 . S
H295 C310 0.959 . S
H296 C310 0.961 . S
H297 C311 0.960 . S
H298 C311 0.961 . S
H299 C311 0.959 . S
H300 C314 0.929 . S
H301 C315 0.931 . S
H302 C317 0.930 . S
C303 H291 0.930 . S
C303 C304 1.399 . S
C303 C308 1.399 . S
C304 C303 1.399 . S
C304 C305 1.376 . S
C305 H292 0.930 . S
C305 C304 1.376 . S
C305 C306 1.388 . S
C306 H293 0.930 . S
C306 C305 1.388 . S
C306 C307 1.390 . S
C307 C306 1.390 . S
C307 C308 1.394 . S
C307 C313 1.465 . S
C308 C303 1.399 . S
C308 C307 1.394 . S
C308 C309 1.516 . S
C309 C308 1.516 . S
C309 C310 1.502 . S
C309 C311 1.561 . S
C309 C312 1.526 . S
C310 H294 0.959 . S
C310 H295 0.959 . S
C310 H296 0.961 . S
C310 C309 1.502 . S
C311 H297 0.960 . S
C311 H298 0.961 . S
C311 H299 0.959 . S
C311 C309 1.561 . S
C312 C309 1.526 . S
C312 C313 1.396 . S
C312 C317 1.390 . S
C313 C307 1.465 . S
C313 C312 1.396 . S
C313 C314 1.399 . S
C314 H300 0.929 . S
C314 C313 1.399 . S
C314 C315 1.385 . S
C315 H301 0.931 . S
C315 C314 1.385 . S
C315 C316 1.389 . S
C316 C315 1.389 . S
C316 C317 1.387 . S
C317 H302 0.930 . S
C317 C312 1.390 . S
C317 C316 1.387 . S
H318 C330 0.930 . S
H319 C332 0.930 . S
H320 C333 0.930 . S
H321 C337 0.959 . S
H322 C337 0.959 . S
H323 C337 0.961 . S
H324 C338 0.960 . S
H325 C338 0.961 . S
H326 C338 0.959 . S
H327 C341 0.929 . S
H328 C342 0.931 . S
H329 C344 0.930 . S
C330 H318 0.930 . S
C330 C331 1.399 . S
C330 C335 1.399 . S
C331 C330 1.399 . S
C331 C332 1.376 . S
C332 H319 0.930 . S
C332 C331 1.376 . S
C332 C333 1.388 . S
C333 H320 0.930 . S
C333 C332 1.388 . S
C333 C334 1.390 . S
C334 C333 1.390 . S
C334 C335 1.394 . S
C334 C340 1.465 . S
C335 C330 1.399 . S
C335 C334 1.394 . S
C335 C336 1.516 . S
C336 C335 1.516 . S
C336 C337 1.502 . S
C336 C338 1.561 . S
C336 C339 1.526 . S
C337 H321 0.959 . S
C337 H322 0.959 . S
C337 H323 0.961 . S
C337 C336 1.502 . S
C338 H324 0.960 . S
C338 H325 0.961 . S
C338 H326 0.959 . S
C338 C336 1.561 . S
C339 C336 1.526 . S
C339 C340 1.396 . S
C339 C344 1.390 . S
C340 C334 1.465 . S
C340 C339 1.396 . S
C340 C341 1.399 . S
C341 H327 0.929 . S
C341 C340 1.399 . S
C341 C342 1.385 . S
C342 H328 0.931 . S
C342 C341 1.385 . S
C342 C343 1.389 . S
C343 C342 1.389 . S
C343 C344 1.387 . S
C344 H329 0.930 . S
C344 C339 1.390 . S
C344 C343 1.387 . S
H345 C357 0.930 . S
H346 C359 0.930 . S
H347 C360 0.930 . S
H348 C364 0.959 . S
H349 C364 0.959 . S
H350 C364 0.961 . S
H351 C365 0.960 . S
H352 C365 0.961 . S
H353 C365 0.959 . S
H354 C368 0.929 . S
H355 C369 0.931 . S
H356 C371 0.930 . S
C357 H345 0.930 . S
C357 C358 1.399 . S
C357 C362 1.399 . S
C358 C357 1.399 . S
C358 C359 1.376 . S
C359 H346 0.930 . S
C359 C358 1.376 . S
C359 C360 1.388 1_455 S
C360 H347 0.930 . S
C360 C359 1.388 1_655 S
C360 C361 1.390 . S
C361 C360 1.390 . S
C361 C362 1.394 1_655 S
C361 C367 1.465 . S
C362 C357 1.399 . S
C362 C361 1.394 1_455 S
C362 C363 1.516 . S
C363 C362 1.516 . S
C363 C364 1.502 . S
C363 C365 1.561 1_455 S
C363 C366 1.526 1_455 S
C364 H348 0.959 . S
C364 H349 0.959 . S
C364 H350 0.961 . S
C364 C363 1.502 . S
C365 H351 0.960 . S
C365 H352 0.961 . S
C365 H353 0.959 . S
C365 C363 1.561 1_655 S
C366 C363 1.526 1_655 S
C366 C367 1.396 . S
C366 C371 1.390 . S
C367 C361 1.465 . S
C367 C366 1.396 . S
C367 C368 1.399 . S
C368 H354 0.929 . S
C368 C367 1.399 . S
C368 C369 1.385 . S
C369 H355 0.931 . S
C369 C368 1.385 . S
C369 C370 1.389 . S
C370 C369 1.389 . S
C370 C371 1.387 . S
C371 H356 0.930 . S
C371 C366 1.390 . S
C371 C370 1.387 . S
H372 C384 0.930 . S
H373 C386 0.930 . S
H374 C387 0.930 1_565 S
H375 C391 0.959 . S
H376 C391 0.959 . S
H377 C391 0.961 . S
H378 C392 0.960 . S
H379 C392 0.961 . S
H380 C392 0.959 . S
H381 C395 0.929 . S
H382 C396 0.931 . S
H383 C398 0.930 . S
C384 H372 0.930 . S
C384 C385 1.399 . S
C384 C389 1.399 . S
C385 C384 1.399 . S
C385 C386 1.376 . S
C386 H373 0.930 . S
C386 C385 1.376 . S
C386 C387 1.388 . S
C387 H374 0.930 1_545 S
C387 C386 1.388 . S
C387 C388 1.387 1_545 S
C388 C387 1.387 1_565 S
C388 C389 1.391 1_565 S
C388 C394 1.471 . S
C389 C384 1.399 . S
C389 C388 1.391 1_545 S
C389 C390 1.516 . S
C390 C389 1.516 . S
C390 C391 1.502 . S
C390 C392 1.561 1_545 S
C390 C393 1.526 1_545 S
C391 H375 0.959 . S
C391 H376 0.959 . S
C391 H377 0.961 . S
C391 C390 1.502 . S
C392 H378 0.960 . S
C392 H379 0.961 . S
C392 H380 0.959 . S
C392 C390 1.561 1_565 S
C393 C390 1.526 1_565 S
C393 C394 1.396 . S
C393 C398 1.390 . S
C394 C388 1.471 . S
C394 C393 1.396 . S
C394 C395 1.399 . S
C395 H381 0.929 . S
C395 C394 1.399 . S
C395 C396 1.385 . S
C396 H382 0.931 . S
C396 C395 1.385 . S
C396 C397 1.389 . S
C397 C396 1.389 . S
C397 C398 1.387 . S
C398 H383 0.930 . S
C398 C393 1.390 . S
C398 C397 1.387 . S
H399 C411 0.930 . S
H400 C413 0.930 . S
H401 C414 0.930 . S
H402 C418 0.959 . S
H403 C418 0.959 . S
H404 C418 0.961 . S
H405 C419 0.960 . S
H406 C419 0.961 . S
H407 C419 0.959 . S
H408 C422 0.929 . S
H409 C423 0.931 . S
H410 C425 0.930 . S
C411 H399 0.930 . S
C411 C412 1.399 . S
C411 C416 1.399 . S
C412 C411 1.399 . S
C412 C413 1.376 . S
C413 H400 0.930 . S
C413 C412 1.376 . S
C413 C414 1.388 . S
C414 H401 0.930 . S
C414 C413 1.388 . S
C414 C415 1.390 . S
C415 C414 1.390 . S
C415 C416 1.394 . S
C415 C421 1.465 . S
C416 C411 1.399 . S
C416 C415 1.394 . S
C416 C417 1.516 . S
C417 C416 1.516 . S
C417 C418 1.502 . S
C417 C419 1.561 . S
C417 C420 1.526 . S
C418 H402 0.959 . S
C418 H403 0.959 . S
C418 H404 0.961 . S
C418 C417 1.502 . S
C419 H405 0.960 . S
C419 H406 0.961 . S
C419 H407 0.959 . S
C419 C417 1.561 . S
C420 C417 1.526 . S
C420 C421 1.396 . S
C420 C425 1.390 . S
C421 C415 1.465 . S
C421 C420 1.396 . S
C421 C422 1.399 . S
C422 H408 0.929 . S
C422 C421 1.399 . S
C422 C423 1.385 . S
C423 H409 0.931 . S
C423 C422 1.385 . S
C423 C424 1.389 . S
C424 C423 1.389 . S
C424 C425 1.387 . S
C425 H410 0.930 . S
C425 C420 1.390 . S
C425 C424 1.387 . S
H426 C438 0.930 1_455 S
H427 C440 0.930 . S
H428 C441 0.930 . S
H429 C445 0.959 . S
H430 C445 0.959 . S
H431 C445 0.961 . S
H432 C446 0.960 . S
H433 C446 0.961 . S
H434 C446 0.959 . S
H435 C449 0.929 . S
H436 C450 0.931 1_655 S
H437 C452 0.930 . S
C438 H426 0.930 1_655 S
C438 C439 1.399 . S
C438 C443 1.405 . S
C439 C438 1.399 . S
C439 C440 1.376 . S
C440 H427 0.930 . S
C440 C439 1.376 . S
C440 C441 1.388 . S
C441 H428 0.930 . S
C441 C440 1.388 . S
C441 C442 1.390 . S
C442 C441 1.390 . S
C442 C443 1.396 . S
C442 C448 1.465 . S
C443 C438 1.405 . S
C443 C442 1.396 . S
C443 C444 1.508 1_655 S
C444 C443 1.508 1_455 S
C444 C445 1.502 . S
C444 C446 1.561 . S
C444 C447 1.526 . S
C445 H429 0.959 . S
C445 H430 0.959 . S
C445 H431 0.961 . S
C445 C444 1.502 . S
C446 H432 0.960 . S
C446 H433 0.961 . S
C446 H434 0.959 . S
C446 C444 1.561 . S
C447 C444 1.526 . S
C447 C448 1.396 1_455 S
C447 C452 1.390 . S
C448 C442 1.465 . S
C448 C447 1.396 1_655 S
C448 C449 1.399 . S
C449 H435 0.929 . S
C449 C448 1.399 . S
C449 C450 1.385 1_655 S
C450 H436 0.931 1_455 S
C450 C449 1.385 1_455 S
C450 C451 1.389 . S
C451 C450 1.389 . S
C451 C452 1.387 . S
C452 H437 0.930 . S
C452 C447 1.390 . S
C452 C451 1.387 . S
H453 C465 0.930 . S
H454 C467 0.930 . S
H455 C468 0.930 . S
H456 C472 0.959 . S
H457 C472 0.959 . S
H458 C472 0.961 . S
H459 C473 0.960 . S
H460 C473 0.961 1_545 S
H461 C473 0.959 . S
H462 C476 0.929 . S
H463 C477 0.931 . S
H464 C479 0.930 . S
C465 H453 0.930 . S
C465 C466 1.399 . S
C465 C470 1.399 . S
C466 C465 1.399 . S
C466 C467 1.376 . S
C467 H454 0.930 . S
C467 C466 1.376 . S
C467 C468 1.388 . S
C468 H455 0.930 . S
C468 C467 1.388 . S
C468 C469 1.390 . S
C469 C468 1.390 . S
C469 C470 1.394 . S
C469 C475 1.465 . S
C470 C465 1.399 . S
C470 C469 1.394 . S
C470 C471 1.516 1_565 S
C471 C470 1.516 1_545 S
C471 C472 1.502 . S
C471 C473 1.561 1_545 S
C471 C474 1.526 . S
C472 H456 0.959 . S
C472 H457 0.959 . S
C472 H458 0.961 . S
C472 C471 1.502 . S
C473 H459 0.960 . S
C473 H460 0.961 1_565 S
C473 H461 0.959 . S
C473 C471 1.561 1_565 S
C474 C471 1.526 . S
C474 C475 1.396 1_545 S
C474 C479 1.390 . S
C475 C469 1.465 . S
C475 C474 1.396 1_565 S
C475 C476 1.399 . S
C476 H462 0.929 . S
C476 C475 1.399 . S
C476 C477 1.385 1_565 S
C477 H463 0.931 . S
C477 C476 1.385 1_545 S
C477 C478 1.389 . S
C478 C477 1.389 . S
C478 C479 1.387 . S
C479 H464 0.930 . S
C479 C474 1.390 . S
C479 C478 1.387 . S
H480 C492 0.930 . S
H481 C494 0.930 . S
H482 C495 0.930 . S
H483 C499 0.959 . S
H484 C499 0.959 . S
H485 C499 0.961 . S
H486 C500 0.960 . S
H487 C500 0.961 . S
H488 C500 0.959 . S
H489 C503 0.929 . S
H490 C504 0.931 . S
H491 C506 0.930 . S
C492 H480 0.930 . S
C492 C493 1.399 . S
C492 C497 1.399 . S
C493 C492 1.399 . S
C493 C494 1.376 . S
C494 H481 0.930 . S
C494 C493 1.376 . S
C494 C495 1.388 . S
C495 H482 0.930 . S
C495 C494 1.388 . S
C495 C496 1.390 . S
C496 C495 1.390 . S
C496 C497 1.394 . S
C496 C502 1.465 . S
C497 C492 1.399 . S
C497 C496 1.394 . S
C497 C498 1.516 . S
C498 C497 1.516 . S
C498 C499 1.502 . S
C498 C500 1.561 . S
C498 C501 1.526 . S
C499 H483 0.959 . S
C499 H484 0.959 . S
C499 H485 0.961 . S
C499 C498 1.502 . S
C500 H486 0.960 . S
C500 H487 0.961 . S
C500 H488 0.959 . S
C500 C498 1.561 . S
C501 C498 1.526 . S
C501 C502 1.396 . S
C501 C506 1.390 . S
C502 C496 1.465 . S
C502 C501 1.396 . S
C502 C503 1.399 . S
C503 H489 0.929 . S
C503 C502 1.399 . S
C503 C504 1.385 . S
C504 H490 0.931 . S
C504 C503 1.385 . S
C504 C505 1.389 . S
C505 C504 1.389 . S
C505 C506 1.387 . S
C506 H491 0.930 . S
C506 C501 1.390 . S
C506 C505 1.387 . S
H507 C519 0.930 . S
H508 C521 0.930 . S
H509 C522 0.930 . S
H510 C526 0.959 . S
H511 C526 0.959 . S
H512 C526 0.961 . S
H513 C527 0.960 . S
H514 C527 0.961 . S
H515 C527 0.959 . S
H516 C530 0.929 . S
H517 C531 0.931 . S
H518 C533 0.930 . S
C519 H507 0.930 . S
C519 C520 1.399 . S
C519 C524 1.399 . S
C520 C519 1.399 . S
C520 C521 1.376 . S
C521 H508 0.930 . S
C521 C520 1.376 . S
C521 C522 1.388 . S
C522 H509 0.930 . S
C522 C521 1.388 . S
C522 C523 1.390 . S
C523 C522 1.390 . S
C523 C524 1.394 . S
C523 C529 1.465 . S
C524 C519 1.399 . S
C524 C523 1.394 . S
C524 C525 1.516 . S
C525 C524 1.516 . S
C525 C526 1.502 . S
C525 C527 1.561 . S
C525 C528 1.526 . S
C526 H510 0.959 . S
C526 H511 0.959 . S
C526 H512 0.961 . S
C526 C525 1.502 . S
C527 H513 0.960 . S
C527 H514 0.961 . S
C527 H515 0.959 . S
C527 C525 1.561 . S
C528 C525 1.526 . S
C528 C529 1.396 . S
C528 C533 1.390 . S
C529 C523 1.465 . S
C529 C528 1.396 . S
C529 C530 1.399 . S
C530 H516 0.929 . S
C530 C529 1.399 . S
C530 C531 1.385 . S
C531 H517 0.931 . S
C531 C530 1.385 . S
C531 C532 1.389 . S
C532 C531 1.389 . S
C532 C533 1.387 . S
C533 H518 0.930 . S
C533 C528 1.390 . S
C533 C532 1.387 . S
H534 C546 0.930 . S
H535 C548 0.930 . S
H536 C549 0.930 . S
H537 C553 0.959 . S
H538 C553 0.959 . S
H539 C553 0.961 . S
H540 C554 0.960 . S
H541 C554 0.961 . S
H542 C554 0.959 . S
H543 C557 0.929 . S
H544 C558 0.931 1_565 S
H545 C560 0.930 . S
C546 H534 0.930 . S
C546 C547 1.399 . S
C546 C551 1.399 . S
C547 C546 1.399 . S
C547 C548 1.376 . S
C548 H535 0.930 . S
C548 C547 1.376 . S
C548 C549 1.388 . S
C549 H536 0.930 . S
C549 C548 1.388 . S
C549 C550 1.390 . S
C550 C549 1.390 . S
C550 C551 1.394 . S
C550 C556 1.465 . S
C551 C546 1.399 . S
C551 C550 1.394 . S
C551 C552 1.516 . S
C552 C551 1.516 . S
C552 C553 1.502 . S
C552 C554 1.561 . S
C552 C555 1.526 . S
C553 H537 0.959 . S
C553 H538 0.959 . S
C553 H539 0.961 . S
C553 C552 1.502 . S
C554 H540 0.960 . S
C554 H541 0.961 . S
C554 H542 0.959 . S
C554 C552 1.561 . S
C555 C552 1.526 . S
C555 C556 1.396 . S
C555 C560 1.390 . S
C556 C550 1.465 . S
C556 C555 1.396 . S
C556 C557 1.399 . S
C557 H543 0.929 . S
C557 C556 1.399 . S
C557 C558 1.385 . S
C558 H544 0.931 1_545 S
C558 C557 1.385 . S
C558 C559 1.389 . S
C559 C558 1.389 . S
C559 C560 1.387 . S
C560 H545 0.930 . S
C560 C555 1.390 . S
C560 C559 1.387 . S
H561 C573 0.930 . S
H562 C575 0.930 1_545 S
H563 C576 0.930 . S
H564 C580 0.959 . S
H565 C580 0.959 . S
H566 C580 0.961 . S
H567 C581 0.960 . S
H568 C581 0.961 . S
H569 C581 0.959 . S
H570 C584 0.929 . S
H571 C585 0.931 . S
H572 C587 0.930 . S
C573 H561 0.930 . S
C573 C574 1.399 . S
C573 C578 1.399 . S
C574 C573 1.399 . S
C574 C575 1.376 . S
C575 H562 0.930 1_565 S
C575 C574 1.376 . S
C575 C576 1.388 . S
C576 H563 0.930 . S
C576 C575 1.388 . S
C576 C577 1.390 . S
C577 C576 1.390 . S
C577 C578 1.394 . S
C577 C583 1.465 . S
C578 C573 1.399 . S
C578 C577 1.394 . S
C578 C579 1.516 . S
C579 C578 1.516 . S
C579 C580 1.502 . S
C579 C581 1.561 . S
C579 C582 1.526 . S
C580 H564 0.959 . S
C580 H565 0.959 . S
C580 H566 0.961 . S
C580 C579 1.502 . S
C581 H567 0.960 . S
C581 H568 0.961 . S
C581 H569 0.959 . S
C581 C579 1.561 . S
C582 C579 1.526 . S
C582 C583 1.396 . S
C582 C587 1.390 . S
C583 C577 1.465 . S
C583 C582 1.396 . S
C583 C584 1.399 . S
C584 H570 0.929 . S
C584 C583 1.399 . S
C584 C585 1.385 . S
C585 H571 0.931 . S
C585 C584 1.385 . S
C585 C586 1.389 . S
C586 C585 1.389 . S
C586 C587 1.387 . S
C587 H572 0.930 . S
C587 C582 1.390 . S
C587 C586 1.387 . S
H588 C600 0.930 . S
H589 C602 0.930 . S
H590 C603 0.930 . S
H591 C607 0.959 . S
H592 C607 0.959 . S
H593 C607 0.961 . S
H594 C608 0.960 . S
H595 C608 0.961 . S
H596 C608 0.959 . S
H597 C611 0.929 . S
H598 C612 0.931 1_455 S
H599 C614 0.930 . S
C600 H588 0.930 . S
C600 C601 1.399 . S
C600 C605 1.399 . S
C601 C600 1.399 . S
C601 C602 1.376 . S
C602 H589 0.930 . S
C602 C601 1.376 . S
C602 C603 1.388 . S
C603 H590 0.930 . S
C603 C602 1.388 . S
C603 C604 1.390 . S
C604 C603 1.390 . S
C604 C605 1.394 . S
C604 C610 1.465 . S
C605 C600 1.399 . S
C605 C604 1.394 . S
C605 C606 1.516 . S
C606 C605 1.516 . S
C606 C607 1.502 . S
C606 C608 1.561 . S
C606 C609 1.526 . S
C607 H591 0.959 . S
C607 H592 0.959 . S
C607 H593 0.961 . S
C607 C606 1.502 . S
C608 H594 0.960 . S
C608 H595 0.961 . S
C608 H596 0.959 . S
C608 C606 1.561 . S
C609 C606 1.526 . S
C609 C610 1.396 . S
C609 C614 1.390 . S
C610 C604 1.465 . S
C610 C609 1.396 . S
C610 C611 1.399 . S
C611 H597 0.929 . S
C611 C610 1.399 . S
C611 C612 1.385 . S
C612 H598 0.931 1_655 S
C612 C611 1.385 . S
C612 C613 1.389 . S
C613 C612 1.389 . S
C613 C614 1.387 . S
C614 H599 0.930 . S
C614 C609 1.390 . S
C614 C613 1.387 . S
H615 C627 0.930 . S
H616 C629 0.930 . S
H617 C630 0.930 . S
H618 C634 0.959 . S
H619 C634 0.959 . S
H620 C634 0.961 . S
H621 C635 0.960 . S
H622 C635 0.961 . S
H623 C635 0.959 . S
H624 C638 0.929 . S
H625 C639 0.931 . S
H626 C641 0.930 . S
C627 H615 0.930 . S
C627 C628 1.399 . S
C627 C632 1.399 . S
C628 C627 1.399 . S
C628 C629 1.376 . S
C629 H616 0.930 . S
C629 C628 1.376 . S
C629 C630 1.388 . S
C630 H617 0.930 . S
C630 C629 1.388 . S
C630 C631 1.390 . S
C631 C630 1.390 . S
C631 C632 1.394 . S
C631 C637 1.465 . S
C632 C627 1.399 . S
C632 C631 1.394 . S
C632 C633 1.516 . S
C633 C632 1.516 . S
C633 C634 1.502 . S
C633 C635 1.561 . S
C633 C636 1.526 . S
C634 H618 0.959 . S
C634 H619 0.959 . S
C634 H620 0.961 . S
C634 C633 1.502 . S
C635 H621 0.960 . S
C635 H622 0.961 . S
C635 H623 0.959 . S
C635 C633 1.561 . S
C636 C633 1.526 . S
C636 C637 1.396 . S
C636 C641 1.390 . S
C637 C631 1.465 . S
C637 C636 1.396 . S
C637 C638 1.399 . S
C638 H624 0.929 . S
C638 C637 1.399 . S
C638 C639 1.385 . S
C639 H625 0.931 . S
C639 C638 1.385 . S
C639 C640 1.389 . S
C640 C639 1.389 . S
C640 C641 1.387 . S
C641 H626 0.930 . S
C641 C636 1.390 . S
C641 C640 1.387 . S
H642 C654 0.930 . S
H643 C656 0.930 . S
H644 C657 0.930 . S
H645 C661 0.959 . S
H646 C661 0.959 . S
H647 C661 0.961 . S
H648 C662 0.960 . S
H649 C662 0.961 . S
H650 C662 0.959 . S
H651 C665 0.929 . S
H652 C666 0.931 . S
H653 C668 0.930 . S
C654 H642 0.930 . S
C654 C655 1.399 . S
C654 C659 1.399 . S
C655 C654 1.399 . S
C655 C656 1.376 . S
C656 H643 0.930 . S
C656 C655 1.376 . S
C656 C657 1.388 . S
C657 H644 0.930 . S
C657 C656 1.388 . S
C657 C658 1.390 . S
C658 C657 1.390 . S
C658 C659 1.394 . S
C658 C664 1.465 . S
C659 C654 1.399 . S
C659 C658 1.394 . S
C659 C660 1.516 . S
C660 C659 1.516 . S
C660 C661 1.502 . S
C660 C662 1.561 . S
C660 C663 1.526 . S
C661 H645 0.959 . S
C661 H646 0.959 . S
C661 H647 0.961 . S
C661 C660 1.502 . S
C662 H648 0.960 . S
C662 H649 0.961 . S
C662 H650 0.959 . S
C662 C660 1.561 . S
C663 C660 1.526 . S
C663 C664 1.396 . S
C663 C668 1.390 . S
C664 C658 1.465 . S
C664 C663 1.396 . S
C664 C665 1.399 . S
C665 H651 0.929 . S
C665 C664 1.399 . S
C665 C666 1.385 . S
C666 H652 0.931 . S
C666 C665 1.385 . S
C666 C667 1.389 . S
C667 C666 1.389 . S
C667 C668 1.387 . S
C668 H653 0.930 . S
C668 C663 1.390 . S
C668 C667 1.387 . S
H669 C681 0.930 . S
H670 C683 0.930 . S
H671 C684 0.930 . S
H672 C688 0.959 . S
H673 C688 0.959 . S
H674 C688 0.961 . S
H675 C689 0.960 . S
H676 C689 0.961 . S
H677 C689 0.959 1_455 S
H678 C692 0.929 . S
H679 C693 0.931 . S
H680 C695 0.930 1_655 S
C681 H669 0.930 . S
C681 C682 1.399 . S
C681 C686 1.399 . S
C682 C681 1.399 . S
C682 C683 1.376 1_655 S
C683 H670 0.930 . S
C683 C682 1.376 1_455 S
C683 C684 1.388 . S
C684 H671 0.930 . S
C684 C683 1.388 . S
C684 C685 1.390 . S
C685 C684 1.390 . S
C685 C686 1.394 1_455 S
C685 C691 1.465 . S
C686 C681 1.399 . S
C686 C685 1.394 1_655 S
C686 C687 1.516 . S
C687 C686 1.516 . S
C687 C688 1.502 . S
C687 C689 1.561 . S
C687 C690 1.526 1_655 S
C688 H672 0.959 . S
C688 H673 0.959 . S
C688 H674 0.961 . S
C688 C687 1.502 . S
C689 H675 0.960 . S
C689 H676 0.961 . S
C689 H677 0.959 1_655 S
C689 C687 1.561 . S
C690 C687 1.526 1_455 S
C690 C691 1.396 . S
C690 C695 1.390 . S
C691 C685 1.465 . S
C691 C690 1.396 . S
C691 C692 1.399 . S
C692 H678 0.929 . S
C692 C691 1.399 . S
C692 C693 1.385 . S
C693 H679 0.931 . S
C693 C692 1.385 . S
C693 C694 1.389 . S
C694 C693 1.389 . S
C694 C695 1.387 . S
C695 H680 0.930 1_455 S
C695 C690 1.390 . S
C695 C694 1.387 . S
H696 C708 0.930 . S
H697 C710 0.930 . S
H698 C711 0.930 . S
H699 C715 0.959 . S
H700 C715 0.959 . S
H701 C715 0.943 1_554 S
H702 C716 0.960 . S
H703 C716 0.961 . S
H704 C716 0.959 . S
H705 C719 0.929 . S
H706 C720 0.931 . S
H707 C722 0.930 . S
C708 H696 0.930 . S
C708 C709 1.399 . S
C708 C713 1.399 . S
C709 C708 1.399 . S
C709 C710 1.376 1_545 S
C710 H697 0.930 . S
C710 C709 1.376 1_565 S
C710 C711 1.388 . S
C711 H698 0.930 . S
C711 C710 1.388 . S
C711 C712 1.390 . S
C712 C711 1.390 . S
C712 C713 1.394 1_565 S
C712 C718 1.465 1_554 S
C713 C708 1.399 . S
C713 C712 1.394 1_545 S
C713 C714 1.516 1_554 S
C714 C713 1.516 1_556 S
C714 C715 1.502 . S
C714 C716 1.561 . S
C714 C717 1.526 . S
C715 H699 0.959 . S
C715 H700 0.959 . S
C715 H701 0.943 1_556 S
C715 C714 1.502 . S
C716 H702 0.960 . S
C716 H703 0.961 . S
C716 H704 0.959 . S
C716 C714 1.561 . S
C717 C714 1.526 . S
C717 C718 1.396 1_545 S
C717 C722 1.390 . S
C718 C712 1.465 1_556 S
C718 C717 1.396 1_565 S
C718 C719 1.399 . S
C719 H705 0.929 . S
C719 C718 1.399 . S
C719 C720 1.385 . S
C720 H706 0.931 . S
C720 C719 1.385 . S
C720 C721 1.389 . S
C721 C720 1.389 . S
C721 C722 1.387 1_565 S
C722 H707 0.930 . S
C722 C717 1.390 . S
C722 C721 1.387 1_545 S
H723 C735 0.930 . S
H724 C737 0.930 . S
H725 C738 0.930 . S
H726 C742 0.959 . S
H727 C742 0.959 . S
H728 C742 0.961 . S
H729 C743 0.960 . S
H730 C743 0.961 . S
H731 C743 0.959 . S
H732 C746 0.929 . S
H733 C747 0.931 . S
H734 C749 0.930 . S
C735 H723 0.930 . S
C735 C736 1.399 . S
C735 C740 1.399 . S
C736 C735 1.399 . S
C736 C737 1.376 . S
C737 H724 0.930 . S
C737 C736 1.376 . S
C737 C738 1.388 . S
C738 H725 0.930 . S
C738 C737 1.388 . S
C738 C739 1.390 . S
C739 C738 1.390 . S
C739 C740 1.394 . S
C739 C745 1.465 . S
C740 C735 1.399 . S
C740 C739 1.394 . S
C740 C741 1.516 . S
C741 C740 1.516 . S
C741 C742 1.502 . S
C741 C743 1.561 . S
C741 C744 1.526 . S
C742 H726 0.959 . S
C742 H727 0.959 . S
C742 H728 0.961 . S
C742 C741 1.502 . S
C743 H729 0.960 . S
C743 H730 0.961 . S
C743 H731 0.959 . S
C743 C741 1.561 . S
C744 C741 1.526 . S
C744 C745 1.396 . S
C744 C749 1.390 . S
C745 C739 1.465 . S
C745 C744 1.396 . S
C745 C746 1.399 . S
C746 H732 0.929 . S
C746 C745 1.399 . S
C746 C747 1.385 . S
C747 H733 0.931 . S
C747 C746 1.385 . S
C747 C748 1.389 . S
C748 C747 1.389 . S
C748 C749 1.387 . S
C749 H734 0.930 . S
C749 C744 1.390 . S
C749 C748 1.387 . S
H750 C762 0.930 . S
H751 C764 0.930 . S
H752 C765 0.930 . S
H753 C769 0.959 . S
H754 C769 0.959 . S
H755 C769 0.961 . S
H756 C770 0.960 . S
H757 C770 0.961 . S
H758 C770 0.959 . S
H759 C773 0.929 . S
H760 C774 0.931 . S
H761 C776 0.930 . S
C762 H750 0.930 . S
C762 C763 1.399 . S
C762 C767 1.399 . S
C763 C762 1.399 . S
C763 C764 1.376 . S
C764 H751 0.930 . S
C764 C763 1.376 . S
C764 C765 1.388 1_455 S
C765 H752 0.930 . S
C765 C764 1.388 1_655 S
C765 C766 1.390 . S
C766 C765 1.390 . S
C766 C767 1.394 1_655 S
C766 C772 1.465 . S
C767 C762 1.399 . S
C767 C766 1.394 1_455 S
C767 C768 1.516 . S
C768 C767 1.516 . S
C768 C769 1.502 . S
C768 C770 1.561 1_455 S
C768 C771 1.526 1_455 S
C769 H753 0.959 . S
C769 H754 0.959 . S
C769 H755 0.961 . S
C769 C768 1.502 . S
C770 H756 0.960 . S
C770 H757 0.961 . S
C770 H758 0.959 . S
C770 C768 1.561 1_655 S
C771 C768 1.526 1_655 S
C771 C772 1.396 . S
C771 C776 1.390 . S
C772 C766 1.465 . S
C772 C771 1.396 . S
C772 C773 1.399 . S
C773 H759 0.929 . S
C773 C772 1.399 . S
C773 C774 1.385 . S
C774 H760 0.931 . S
C774 C773 1.385 . S
C774 C775 1.389 . S
C775 C774 1.389 . S
C775 C776 1.387 . S
C776 H761 0.930 . S
C776 C771 1.390 . S
C776 C775 1.387 . S
H777 C789 0.930 . S
H778 C791 0.930 . S
H779 C792 0.930 . S
H780 C796 0.959 . S
H781 C796 0.959 . S
H782 C796 0.958 . S
H783 C797 0.960 . S
H784 C797 0.961 . S
H785 C797 0.959 . S
H786 C800 0.929 . S
H787 C801 0.931 . S
H788 C803 0.930 . S
C789 H777 0.930 . S
C789 C790 1.399 . S
C789 C794 1.399 . S
C790 C789 1.399 . S
C790 C791 1.376 1_565 S
C791 H778 0.930 . S
C791 C790 1.376 1_545 S
C791 C792 1.388 . S
C792 H779 0.930 . S
C792 C791 1.388 . S
C792 C793 1.390 . S
C793 C792 1.390 . S
C793 C794 1.394 1_545 S
C793 C799 1.465 1_554 S
C794 C789 1.399 . S
C794 C793 1.394 1_565 S
C794 C795 1.516 1_554 S
C795 C794 1.516 1_556 S
C795 C796 1.502 . S
C795 C797 1.561 . S
C795 C798 1.526 . S
C796 H780 0.959 . S
C796 H781 0.959 . S
C796 H782 0.958 . S
C796 C795 1.502 . S
C797 H783 0.960 . S
C797 H784 0.961 . S
C797 H785 0.959 . S
C797 C795 1.561 . S
C798 C795 1.526 . S
C798 C799 1.396 1_565 S
C798 C803 1.390 . S
C799 C793 1.465 1_556 S
C799 C798 1.396 1_545 S
C799 C800 1.399 . S
C800 H786 0.929 . S
C800 C799 1.399 . S
C800 C801 1.385 . S
C801 H787 0.931 . S
C801 C800 1.385 . S
C801 C802 1.389 . S
C802 C801 1.389 . S
C802 C803 1.387 1_545 S
C803 H788 0.930 . S
C803 C798 1.390 . S
C803 C802 1.387 1_565 S
C169 C143 1.466 . S
C181 C0 1.486 . S
C196 C13 1.493 . S
C208 C78 1.453 . S
C223 C26 1.423 . S
C235 C91 1.466 . S
C250 C39 1.454 . S
C262 C104 1.430 . S
C277 C117 1.494 . S
C289 C52 1.449 . S
C304 C65 1.495 . S
C316 C130 1.439 . S
C331 C44 1.131 . S
C343 C5 1.080 . S
C358 C57 1.125 . S
C370 C18 1.203 . S
C385 C70 1.132 . S
C397 C31 1.200 . S
C412 C83 1.115 . S
C424 C122 1.205 . S
C439 C96 1.194 . S
C451 C135 1.071 . S
C466 C109 1.161 . S
C478 C148 1.067 . S
C493 C112 0.617 . S
C505 C8 0.608 . S
C520 C21 0.562 . S
C532 C125 0.567 . S
C547 C138 0.641 . S
C559 C34 0.645 . S
C574 C151 0.647 . S
C586 C47 0.642 . S
C601 C86 0.644 . S
C613 C60 0.648 . S
C628 C73 0.584 . S
C640 C99 0.593 . S
C655 C127 1.574 . S
C667 C10 1.521 . S
C682 C23 1.520 . S
C694 C140 1.570 . S
C709 C153 1.524 . S
C721 C36 1.571 . S
C736 C49 1.550 . S
C748 C88 1.547 . S
C763 C62 1.529 . S
C775 C101 1.561 . S
C790 C114 1.523 . S
C802 C75 1.572 . S
