# Generated by pormake.
# Topology xfy, (5)-cn, num edge types: 1
# Building blocks:
#     Node 0, Type 0, BuildingBlock: BEQFEK_clean_sbu_0, # of connection points: 5
#     Node 1, Type 0, BuildingBlock: BEQFEK_clean_sbu_0, # of connection points: 5
#     Node 2, Type 0, BuildingBlock: BEQFEK_clean_sbu_0, # of connection points: 5
#     Node 3, Type 0, BuildingBlock: BEQFEK_clean_sbu_0, # of connection points: 5
#     Node 4, Type 0, BuildingBlock: BEQFEK_clean_sbu_0, # of connection points: 5
#     Node 5, Type 0, BuildingBlock: BEQFEK_clean_sbu_0, # of connection points: 5
#     Node 6, Type 0, BuildingBlock: BEQFEK_clean_sbu_0, # of connection points: 5
#     Node 7, Type 0, BuildingBlock: BEQFEK_clean_sbu_0, # of connection points: 5
#     Edge 8, Type (0, 0), BuildingBlock: MIFKUJ_clean_linker_0, # of connection points: 2
#     Edge 9, Type (0, 0), BuildingBlock: MIFKUJ_clean_linker_0, # of connection points: 2
#     Edge 10, Type (0, 0), BuildingBlock: MIFKUJ_clean_linker_0, # of connection points: 2
#     Edge 11, Type (0, 0), BuildingBlock: MIFKUJ_clean_linker_0, # of connection points: 2
#     Edge 12, Type (0, 0), BuildingBlock: MIFKUJ_clean_linker_0, # of connection points: 2
#     Edge 13, Type (0, 0), BuildingBlock: MIFKUJ_clean_linker_0, # of connection points: 2
#     Edge 14, Type (0, 0), BuildingBlock: MIFKUJ_clean_linker_0, # of connection points: 2
#     Edge 15, Type (0, 0), BuildingBlock: MIFKUJ_clean_linker_0, # of connection points: 2
#     Edge 16, Type (0, 0), BuildingBlock: MIFKUJ_clean_linker_0, # of connection points: 2
#     Edge 17, Type (0, 0), BuildingBlock: MIFKUJ_clean_linker_0, # of connection points: 2
#     Edge 18, Type (0, 0), BuildingBlock: MIFKUJ_clean_linker_0, # of connection points: 2
#     Edge 19, Type (0, 0), BuildingBlock: MIFKUJ_clean_linker_0, # of connection points: 2
#     Edge 20, Type (0, 0), BuildingBlock: MIFKUJ_clean_linker_0, # of connection points: 2
#     Edge 21, Type (0, 0), BuildingBlock: MIFKUJ_clean_linker_0, # of connection points: 2
#     Edge 22, Type (0, 0), BuildingBlock: MIFKUJ_clean_linker_0, # of connection points: 2
#     Edge 23, Type (0, 0), BuildingBlock: MIFKUJ_clean_linker_0, # of connection points: 2
#     Edge 24, Type (0, 0), BuildingBlock: MIFKUJ_clean_linker_0, # of connection points: 2
#     Edge 25, Type (0, 0), BuildingBlock: MIFKUJ_clean_linker_0, # of connection points: 2
#     Edge 26, Type (0, 0), BuildingBlock: MIFKUJ_clean_linker_0, # of connection points: 2
#     Edge 27, Type (0, 0), BuildingBlock: MIFKUJ_clean_linker_0, # of connection points: 2
# Relax obj value: 0.384
# Max RMSD: 0.216
# Mean RMSD: 0.216
data_MOF--net-xfy--node1-BEQFEK_clean_sbu_0--edge1-MIFKUJ_clean_linker_0
_symmetry_space_group_name_H-M    P1
_symmetry_Int_Tables_number       1
_symmetry_cell_setting            triclinic
loop_
_symmetry_equiv_pos_as_xyz
'x, y, z'
_cell_length_a     36.672017
_cell_length_b     36.61961
_cell_length_c     72.596493
_cell_angle_alpha  90.065638
_cell_angle_beta   89.986777
_cell_angle_gamma 89.956499
loop_
_atom_site_label
_atom_site_type_symbol
_atom_site_fract_x
_atom_site_fract_y
_atom_site_fract_z
_atom_type_partial_charge
Co0 Co 0.23662 0.07516 0.41763 0.0
Co1 Co 0.22369 0.1352 0.38777 0.0
C2 C 0.17101 0.07426 0.3926 0.0
O3 O 0.18995 0.06162 0.40583 0.0
O4 O 0.18095 0.10272 0.38389 0.0
C5 C 0.24367 0.00163 0.42939 0.0
O6 O 0.22929 0.99516 0.41314 0.0
C7 C 0.21836 0.16679 0.35105 0.0
C8 C 0.23029 0.22505 0.35628 0.0
C9 C 0.22283 0.20018 0.34242 0.0
N10 N 0.22327 0.17158 0.3692 0.0
N11 N 0.22989 0.20654 0.3723 0.0
C12 C 0.2084 0.13104 0.34238 0.0
H13 H 0.21691 0.108 0.35132 0.0
H14 H 0.22081 0.12811 0.32853 0.0
H15 H 0.17834 0.12991 0.34072 0.0
C16 C 0.30518 0.06604 0.39694 0.0
N17 N 0.27312 0.08296 0.39978 0.0
N18 N 0.2683 0.10809 0.38704 0.0
C19 C 0.2975 0.10787 0.37565 0.0
C20 C 0.3214 0.08077 0.38142 0.0
C21 C 0.32085 0.03745 0.40937 0.0
H22 H 0.31538 0.04461 0.42395 0.0
H23 H 0.30776 0.01082 0.40632 0.0
H24 H 0.35074 0.03465 0.40742 0.0
O25 O 0.22919 0.11911 0.43282 0.0
O26 O 0.21782 0.16118 0.41162 0.0
H27 H 0.29429 0.16041 0.36273 0.0
H28 H 0.33003 0.13151 0.35374 0.0
C29 C 0.3018 0.13196 0.35916 0.0
H30 H 0.2835 0.1222 0.34807 0.0
H31 H 0.2351 0.21758 0.38529 0.0
O32 O 0.24991 0.03442 0.43419 0.0
C33 C 0.22111 0.15176 0.42842 0.0
Co34 Co 0.07303 0.75655 0.57723 0.0
Co35 Co 0.13428 0.75981 0.60717 0.0
C36 C 0.08044 0.81953 0.60426 0.0
O37 O 0.06586 0.80308 0.59066 0.0
O38 O 0.10768 0.8059 0.61271 0.0
C39 C 0.99846 0.75801 0.56734 0.0
O40 O 0.99508 0.76914 0.58447 0.0
C41 C 0.17471 0.76273 0.64221 0.0
C42 C 0.22214 0.72771 0.63565 0.0
C43 C 0.20633 0.74801 0.64963 0.0
N44 N 0.17207 0.75166 0.6246 0.0
N45 N 0.2007 0.7311 0.62072 0.0
C46 C 0.14572 0.78394 0.65206 0.0
H47 H 0.11879 0.7794 0.64551 0.0
H48 H 0.14433 0.776 0.6668 0.0
H49 H 0.15225 0.81347 0.65124 0.0
C50 C 0.05637 0.68762 0.59636 0.0
N51 N 0.077 0.71757 0.59397 0.0
N52 N 0.10168 0.71922 0.60709 0.0
C53 C 0.097 0.69051 0.61852 0.0
C54 C 0.06791 0.66976 0.61214 0.0
C55 C 0.02689 0.67564 0.58344 0.0
H56 H 0.03427 0.68268 0.56907 0.0
H57 H 0.00112 0.6898 0.58708 0.0
H58 H 0.0223 0.64575 0.58438 0.0
O59 O 0.11663 0.76049 0.56168 0.0
O60 O 0.15947 0.76578 0.58306 0.0
H61 H 0.14699 0.67888 0.63245 0.0
H62 H 0.10695 0.66192 0.6442 0.0
C63 C 0.11811 0.68474 0.63591 0.0
H64 H 0.11732 0.71001 0.6443 0.0
H65 H 0.20509 0.7186 0.60798 0.0
O66 O 0.02998 0.75035 0.56117 0.0
C67 C 0.1498 0.7651 0.56621 0.0
Co68 Co 0.74825 0.92459 0.41624 0.0
Co69 Co 0.75872 0.86343 0.38658 0.0
C70 C 0.81412 0.92154 0.3912 0.0
O71 O 0.79554 0.93478 0.40442 0.0
O72 O 0.80305 0.8937 0.38228 0.0
C73 C 0.74525 0.9989 0.42673 0.0
O74 O 0.7569 0.00333 0.40976 0.0
C75 C 0.76429 0.82822 0.35041 0.0
C76 C 0.74499 0.7724 0.35659 0.0
C77 C 0.757 0.7945 0.34232 0.0
N78 N 0.75676 0.82591 0.36848 0.0
N79 N 0.74564 0.7924 0.37213 0.0
C80 C 0.77531 0.86304 0.34117 0.0
H81 H 0.76853 0.88687 0.34999 0.0
H82 H 0.76146 0.86586 0.32766 0.0
H83 H 0.80522 0.86283 0.33889 0.0
C84 C 0.68074 0.93698 0.39541 0.0
N85 N 0.71165 0.91826 0.39845 0.0
N86 N 0.71536 0.89277 0.38576 0.0
C87 C 0.68653 0.89468 0.37417 0.0
C88 C 0.66411 0.92317 0.3798 0.0
C89 C 0.66671 0.96691 0.40758 0.0
H90 H 0.67236 0.96042 0.42221 0.0
H91 H 0.68065 0.9928 0.40399 0.0
H92 H 0.6369 0.97079 0.40578 0.0
O93 O 0.75276 0.88107 0.4317 0.0
O94 O 0.7644 0.83828 0.41082 0.0
H95 H 0.6868 0.84212 0.36115 0.0
H96 H 0.65333 0.87344 0.35195 0.0
C97 C 0.68133 0.87102 0.35757 0.0
H98 H 0.70076 0.8795 0.34671 0.0
H99 H 0.73769 0.78343 0.38517 0.0
O100 O 0.73839 0.96684 0.43245 0.0
C101 C 0.76047 0.84824 0.42752 0.0
Co102 Co 0.92886 0.23995 0.58394 0.0
Co103 Co 0.86581 0.22466 0.61186 0.0
C104 C 0.92833 0.17339 0.6084 0.0
O105 O 0.9418 0.19297 0.59562 0.0
O106 O 0.89893 0.18257 0.61654 0.0
C107 C 0.00328 0.24699 0.573 0.0
O108 O 0.00947 0.22951 0.58848 0.0
C109 C 0.82843 0.21572 0.64717 0.0
C110 C 0.77165 0.22996 0.63989 0.0
C111 C 0.79365 0.21985 0.65455 0.0
N112 N 0.82683 0.22312 0.62908 0.0
N113 N 0.79278 0.23116 0.62475 0.0
C114 C 0.86335 0.20812 0.65715 0.0
H115 H 0.88707 0.21702 0.6488 0.0
H116 H 0.86377 0.22231 0.67067 0.0
H117 H 0.86581 0.17831 0.65956 0.0
C118 C 0.93379 0.30801 0.60522 0.0
N119 N 0.91814 0.27556 0.60181 0.0
N120 N 0.89162 0.26995 0.6137 0.0
C121 C 0.88963 0.29908 0.62514 0.0
C122 C 0.91673 0.32376 0.62027 0.0
C123 C 0.96316 0.32451 0.59355 0.0
H124 H 0.95695 0.31998 0.57878 0.0
H125 H 0.98951 0.31106 0.59676 0.0
H126 H 0.96585 0.3543 0.59601 0.0
O127 O 0.8872 0.23255 0.56738 0.0
O128 O 0.84322 0.21832 0.58709 0.0
H129 H 0.83546 0.29515 0.63606 0.0
H130 H 0.86274 0.33086 0.64639 0.0
C131 C 0.86321 0.30273 0.64075 0.0
H132 H 0.87134 0.28398 0.65197 0.0
H133 H 0.78414 0.23837 0.61155 0.0
O134 O 0.9707 0.25486 0.56856 0.0
C135 C 0.85454 0.22295 0.57067 0.0
Co136 Co 0.26297 0.57773 0.91624 0.0
Co137 Co 0.27141 0.63914 0.8864 0.0
C138 C 0.32924 0.5832 0.89179 0.0
O139 O 0.31064 0.56804 0.90445 0.0
O140 O 0.31768 0.61147 0.88341 0.0
C141 C 0.25972 0.50353 0.9267 0.0
O142 O 0.2722 0.49916 0.90987 0.0
C143 C 0.28052 0.67589 0.85064 0.0
C144 C 0.24475 0.72399 0.85421 0.0
C145 C 0.26635 0.70599 0.84145 0.0
N146 N 0.26705 0.67567 0.86786 0.0
N147 N 0.24621 0.70483 0.87 0.0
C148 C 0.30737 0.64839 0.84357 0.0
H149 H 0.32959 0.64486 0.85374 0.0
H150 H 0.29362 0.62162 0.84183 0.0
H151 H 0.31973 0.65702 0.83033 0.0
C152 C 0.19657 0.56246 0.89477 0.0
N153 N 0.22657 0.58243 0.89814 0.0
N154 N 0.23043 0.60707 0.88509 0.0
C155 C 0.2031 0.60299 0.87277 0.0
C156 C 0.18106 0.57436 0.87847 0.0
C157 C 0.18207 0.53339 0.90727 0.0
H158 H 0.18739 0.54066 0.92185 0.0
H159 H 0.19578 0.50713 0.90409 0.0
H160 H 0.15228 0.5297 0.90533 0.0
O161 O 0.26634 0.62211 0.93146 0.0
O162 O 0.27345 0.66532 0.91035 0.0
H163 H 0.19432 0.65345 0.85872 0.0
H164 H 0.177 0.61401 0.84657 0.0
C165 C 0.19952 0.62438 0.85533 0.0
H166 H 0.22537 0.62272 0.84747 0.0
H167 H 0.232 0.71098 0.88207 0.0
O168 O 0.25309 0.53561 0.93251 0.0
C169 C 0.27103 0.65544 0.92712 0.0
Co170 Co 0.56952 0.74298 0.07951 0.0
Co171 Co 0.63331 0.72911 0.10714 0.0
C172 C 0.57466 0.67411 0.10213 0.0
O173 O 0.56008 0.694 0.08979 0.0
O174 O 0.60299 0.68454 0.11081 0.0
C175 C 0.49469 0.7471 0.06902 0.0
O176 O 0.48961 0.72896 0.08441 0.0
C177 C 0.67046 0.72133 0.14259 0.0
C178 C 0.72672 0.73773 0.13551 0.0
C179 C 0.70485 0.7272 0.15017 0.0
N180 N 0.67216 0.7284 0.12446 0.0
N181 N 0.70595 0.73763 0.12026 0.0
C182 C 0.63565 0.71235 0.15237 0.0
H183 H 0.61179 0.71935 0.14366 0.0
H184 H 0.63387 0.72732 0.16564 0.0
H185 H 0.63486 0.68262 0.15525 0.0
C186 C 0.56061 0.80908 0.102 0.0
N187 N 0.57782 0.77757 0.09819 0.0
N188 N 0.60479 0.77275 0.1099 0.0
C189 C 0.60555 0.80153 0.12161 0.0
C190 C 0.57713 0.82506 0.11714 0.0
C191 C 0.53075 0.82495 0.09042 0.0
H192 H 0.53733 0.82131 0.07562 0.0
H193 H 0.50491 0.81038 0.09339 0.0
H194 H 0.52684 0.8545 0.09317 0.0
O195 O 0.61147 0.73994 0.06286 0.0
O196 O 0.65626 0.72611 0.08219 0.0
H197 H 0.66029 0.79949 0.13197 0.0
H198 H 0.63228 0.83444 0.14247 0.0
C199 C 0.6325 0.80626 0.13691 0.0
H200 H 0.62539 0.78751 0.1483 0.0
H201 H 0.71456 0.74499 0.10707 0.0
O202 O 0.52679 0.75642 0.06445 0.0
C203 C 0.64461 0.73173 0.0659 0.0
Co204 Co 0.74991 0.43648 0.91248 0.0
Co205 Co 0.73959 0.3693 0.8862 0.0
C206 C 0.68541 0.42984 0.88721 0.0
O207 O 0.70443 0.44678 0.8991 0.0
O208 O 0.69514 0.39886 0.88088 0.0
C209 C 0.75415 0.51234 0.92082 0.0
O210 O 0.74256 0.51562 0.90378 0.0
C211 C 0.73348 0.32771 0.8518 0.0
C212 C 0.75327 0.27335 0.86045 0.0
C213 C 0.74098 0.29274 0.84527 0.0
N214 N 0.74125 0.32872 0.86987 0.0
N215 N 0.7526 0.29605 0.87501 0.0
C216 C 0.72221 0.36066 0.84101 0.0
H217 H 0.72873 0.38602 0.84872 0.0
H218 H 0.7361 0.36117 0.82743 0.0
H219 H 0.69232 0.3598 0.83871 0.0
C220 C 0.81927 0.44195 0.89235 0.0
N221 N 0.78735 0.4253 0.89572 0.0
N222 N 0.78321 0.39776 0.88423 0.0
C223 C 0.81266 0.39617 0.87306 0.0
C224 C 0.83616 0.42448 0.87772 0.0
C225 C 0.83413 0.47284 0.9036 0.0
H226 H 0.82711 0.4689 0.91832 0.0
H227 H 0.82172 0.4988 0.89884 0.0
H228 H 0.86421 0.47486 0.90227 0.0
O229 O 0.74141 0.39604 0.92982 0.0
O230 O 0.73429 0.34852 0.91122 0.0
H231 H 0.81374 0.34108 0.86315 0.0
H232 H 0.84447 0.37142 0.8511 0.0
C233 C 0.81739 0.36916 0.85776 0.0
H234 H 0.79635 0.37414 0.84714 0.0
H235 H 0.76078 0.28952 0.88838 0.0
O236 O 0.76064 0.48067 0.92719 0.0
C237 C 0.73534 0.36218 0.92734 0.0
Co238 Co 0.41569 0.25351 0.07375 0.0
Co239 Co 0.3597 0.26369 0.10561 0.0
C240 C 0.41516 0.32004 0.0986 0.0
O241 O 0.42599 0.30186 0.08469 0.0
O242 O 0.38998 0.30816 0.10905 0.0
C243 C 0.48831 0.25141 0.06122 0.0
O244 O 0.49441 0.26249 0.07816 0.0
C245 C 0.32956 0.27017 0.14269 0.0
C246 C 0.27372 0.24869 0.13887 0.0
C247 C 0.29746 0.2624 0.15198 0.0
N248 N 0.32505 0.26112 0.12492 0.0
N249 N 0.29154 0.24863 0.12266 0.0
C250 C 0.36322 0.28811 0.15009 0.0
H251 H 0.38788 0.27524 0.14406 0.0
H252 H 0.36447 0.2872 0.16533 0.0
H253 H 0.36317 0.31717 0.14579 0.0
C254 C 0.43258 0.1864 0.09444 0.0
N255 N 0.4131 0.21709 0.09196 0.0
N256 N 0.38964 0.22081 0.10556 0.0
C257 C 0.39376 0.1924 0.11727 0.0
C258 C 0.42147 0.17001 0.11067 0.0
C259 C 0.46045 0.17222 0.08115 0.0
H260 H 0.45189 0.17806 0.06682 0.0
H261 H 0.4869 0.18593 0.0838 0.0
H262 H 0.46433 0.14233 0.08275 0.0
O263 O 0.37013 0.25609 0.05989 0.0
O264 O 0.33102 0.269 0.08232 0.0
H265 H 0.34341 0.19017 0.13217 0.0
H266 H 0.37886 0.16126 0.14153 0.0
C267 C 0.37307 0.18788 0.13489 0.0
H268 H 0.3809 0.20989 0.14458 0.0
H269 H 0.28106 0.23951 0.11012 0.0
O270 O 0.45582 0.24446 0.05626 0.0
C271 C 0.33815 0.2641 0.06532 0.0
H272 H 0.59947 0.88919 0.37249 0.0
H273 H 0.54205 0.91915 0.36374 0.0
H274 H 0.59837 0.02215 0.3592 0.0
H275 H 0.65564 0.99222 0.36768 0.0
H276 H 0.54205 0.02125 0.38498 0.0
H277 H 0.56212 0.98797 0.32192 0.0
H278 H 0.5754 0.94574 0.29631 0.0
H279 H 0.47868 0.88454 0.30878 0.0
H280 H 0.4651 0.92608 0.33466 0.0
H281 H 0.38218 0.121 0.37388 0.0
H282 H 0.442 0.0975 0.36451 0.0
H283 H 0.39769 0.98845 0.36176 0.0
H284 H 0.33763 0.01221 0.37028 0.0
H285 H 0.4502 0.99646 0.33639 0.0
H286 H 0.43472 0.0198 0.40103 0.0
H287 H 0.4201 0.0571 0.42835 0.0
H288 H 0.50742 0.13061 0.4151 0.0
H289 H 0.52216 0.09404 0.38749 0.0
C290 C 0.59967 0.91791 0.36892 0.0
C291 C 0.63165 0.93856 0.37074 0.0
C292 C 0.56699 0.93499 0.36396 0.0
C293 C 0.56609 0.97285 0.36085 0.0
C294 C 0.59858 0.99293 0.36152 0.0
C295 C 0.63116 0.97587 0.36636 0.0
C296 C 0.53086 0.99232 0.35976 0.0
C297 C 0.5223 0.01651 0.3741 0.0
C298 C 0.50474 0.98496 0.34594 0.0
C299 C 0.51275 0.96 0.33034 0.0
C300 C 0.54384 0.96532 0.31931 0.0
C301 C 0.55139 0.94154 0.30472 0.0
C302 C 0.52794 0.91243 0.30095 0.0
C303 C 0.49684 0.90709 0.31173 0.0
C304 C 0.48917 0.93078 0.32635 0.0
C305 C 0.38503 0.09228 0.37059 0.0
C306 C 0.3556 0.06829 0.37282 0.0
C307 C 0.41917 0.07882 0.36538 0.0
C308 C 0.42439 0.04112 0.36276 0.0
C309 C 0.3943 0.01759 0.36372 0.0
C310 C 0.36014 0.0311 0.36872 0.0
C311 C 0.46159 0.02556 0.36155 0.0
C312 C 0.47034 0.00182 0.34699 0.0
C313 C 0.48782 0.0326 0.37541 0.0
C314 C 0.47925 0.05446 0.39208 0.0
C315 C 0.45063 0.04407 0.40387 0.0
C316 C 0.44234 0.06506 0.41941 0.0
C317 C 0.46276 0.09626 0.42343 0.0
C318 C 0.49158 0.10648 0.41194 0.0
C319 C 0.49991 0.08564 0.39634 0.0
H320 H 0.45631 0.11248 0.43548 0.0
H321 H 0.53383 0.89405 0.28965 0.0
H322 H 0.87314 0.38335 0.62519 0.0
H323 H 0.89348 0.44541 0.63267 0.0
H324 H 0.0032 0.40554 0.64042 0.0
H325 H 0.98254 0.34346 0.63371 0.0
H326 H 0.99124 0.46311 0.66243 0.0
H327 H 0.97473 0.43251 0.59852 0.0
H328 H 0.94037 0.41082 0.57145 0.0
H329 H 0.86368 0.49855 0.57811 0.0
H330 H 0.8973 0.52039 0.60544 0.0
H331 H 0.10049 0.60602 0.62264 0.0
H332 H 0.06982 0.54962 0.63237 0.0
H333 H 0.96583 0.60454 0.62969 0.0
H334 H 0.99641 0.66088 0.62028 0.0
H335 H 0.96976 0.54252 0.60816 0.0
H336 H 0.99671 0.5779 0.67029 0.0
H337 H 0.0363 0.5979 0.69581 0.0
H338 H 0.09992 0.49997 0.69054 0.0
H339 H 0.06105 0.4796 0.66479 0.0
C340 C 0.90121 0.38775 0.62926 0.0
C341 C 0.92642 0.35897 0.6288 0.0
C342 C 0.91289 0.42315 0.63339 0.0
C343 C 0.95002 0.43016 0.63671 0.0
C344 C 0.97448 0.4008 0.63786 0.0
C345 C 0.96274 0.36544 0.63393 0.0
C346 C 0.96441 0.46794 0.63614 0.0
C347 C 0.98656 0.48055 0.6506 0.0
C348 C 0.95831 0.49065 0.62067 0.0
C349 C 0.93824 0.4778 0.60415 0.0
C350 C 0.95039 0.44701 0.59429 0.0
C351 C 0.93106 0.4347 0.5789 0.0
C352 C 0.8998 0.45324 0.57309 0.0
C353 C 0.88785 0.48417 0.58265 0.0
C354 C 0.90702 0.49652 0.5981 0.0
C355 C 0.07122 0.60617 0.62464 0.0
C356 C 0.05067 0.63748 0.6206 0.0
C357 C 0.05375 0.57407 0.63019 0.0
C358 C 0.01557 0.57301 0.63175 0.0
C359 C 0.99529 0.60484 0.62855 0.0
C360 C 0.01272 0.63687 0.62312 0.0
C361 C 0.99648 0.53786 0.63447 0.0
C362 C 0.97376 0.52554 0.62024 0.0
C363 C 0.0028 0.51529 0.64994 0.0
C364 C 0.0261 0.52735 0.6655 0.0
C365 C 0.01932 0.56075 0.67446 0.0
C366 C 0.0416 0.57213 0.689 0.0
C367 C 0.07065 0.55026 0.69477 0.0
C368 C 0.07742 0.5169 0.68605 0.0
C369 C 0.05524 0.5054 0.6715 0.0
H370 H 0.08787 0.55912 0.70602 0.0
H371 H 0.88487 0.44368 0.56117 0.0
H372 H 0.8959 0.3815 0.87192 0.0
H373 H 0.95683 0.40193 0.86268 0.0
H374 H 0.91629 0.51198 0.85665 0.0
H375 H 0.85509 0.49115 0.86486 0.0
H376 H 0.96964 0.50046 0.83257 0.0
H377 H 0.95044 0.48192 0.89745 0.0
H378 H 0.9338 0.44689 0.92519 0.0
H379 H 0.01977 0.37028 0.91405 0.0
H380 H 0.03652 0.40456 0.88604 0.0
H381 H 0.118 0.60803 0.86811 0.0
H382 H 0.06111 0.5778 0.85884 0.0
H383 H 0.11607 0.47355 0.85941 0.0
H384 H 0.17272 0.50371 0.86863 0.0
H385 H 0.05817 0.47682 0.88283 0.0
H386 H 0.08268 0.50596 0.8197 0.0
H387 H 0.09814 0.54631 0.79369 0.0
H388 H 0.00158 0.60971 0.80366 0.0
H389 H 0.98579 0.57006 0.82991 0.0
C390 C 0.89982 0.40972 0.86793 0.0
C391 C 0.8711 0.43489 0.86918 0.0
C392 C 0.93461 0.42144 0.8628 0.0
C393 C 0.94122 0.45863 0.85936 0.0
C394 C 0.91187 0.48321 0.85929 0.0
C395 C 0.87705 0.47139 0.86414 0.0
C396 C 0.97896 0.47285 0.85834 0.0
C397 C 0.98907 0.49533 0.84353 0.0
C398 C 0.0043 0.46606 0.87264 0.0
C399 C 0.99443 0.44552 0.88953 0.0
C400 C 0.96561 0.45745 0.90084 0.0
C401 C 0.95618 0.43775 0.91662 0.0
C402 C 0.97565 0.40631 0.92135 0.0
C403 C 0.00465 0.39458 0.91034 0.0
C404 C 0.01412 0.41412 0.89451 0.0
C405 C 0.11804 0.57885 0.86563 0.0
C406 C 0.14934 0.558 0.86918 0.0
C407 C 0.08568 0.56162 0.86033 0.0
C408 C 0.08446 0.52343 0.85847 0.0
C409 C 0.11649 0.50302 0.86078 0.0
C410 C 0.14871 0.52019 0.86606 0.0
C411 C 0.04904 0.50438 0.85703 0.0
C412 C 0.03918 0.48126 0.87158 0.0
C413 C 0.02385 0.51135 0.84272 0.0
C414 C 0.03319 0.53515 0.82687 0.0
C415 C 0.06488 0.52867 0.81645 0.0
C416 C 0.07368 0.55139 0.80164 0.0
C417 C 0.05089 0.58059 0.79705 0.0
C418 C 0.01921 0.58708 0.80724 0.0
C419 C 0.0103 0.56446 0.82207 0.0
H420 H 0.05776 0.59816 0.78558 0.0
H421 H 0.96832 0.39111 0.93358 0.0
H422 H 0.38843 0.10637 0.12098 0.0
H423 H 0.41892 0.04957 0.13039 0.0
H424 H 0.52305 0.10418 0.12819 0.0
H425 H 0.49264 0.16085 0.11904 0.0
H426 H 0.51892 0.04313 0.10605 0.0
H427 H 0.49155 0.07615 0.16859 0.0
H428 H 0.45139 0.09503 0.19412 0.0
H429 H 0.38856 0.99694 0.18771 0.0
H430 H 0.42803 0.97771 0.16194 0.0
H431 H 0.61885 0.88596 0.12205 0.0
H432 H 0.59675 0.94725 0.12981 0.0
H433 H 0.4883 0.90423 0.13762 0.0
H434 H 0.51079 0.8428 0.13074 0.0
H435 H 0.49838 0.9619 0.15971 0.0
H436 H 0.51567 0.93293 0.09578 0.0
H437 H 0.55035 0.91236 0.06858 0.0
H438 H 0.62518 0.00149 0.07547 0.0
H439 H 0.59125 0.02222 0.10294 0.0
C440 C 0.41767 0.10637 0.1231 0.0
C441 C 0.43832 0.13771 0.1193 0.0
C442 C 0.43505 0.07404 0.12843 0.0
C443 C 0.47323 0.07277 0.12999 0.0
C444 C 0.49358 0.10464 0.12707 0.0
C445 C 0.47625 0.13687 0.12184 0.0
C446 C 0.49231 0.03746 0.13234 0.0
C447 C 0.5151 0.02575 0.11799 0.0
C448 C 0.48615 0.0143 0.1476 0.0
C449 C 0.46261 0.02562 0.16323 0.0
C450 C 0.46901 0.05872 0.17252 0.0
C451 C 0.44639 0.06947 0.18706 0.0
C452 C 0.41739 0.04724 0.19251 0.0
C453 C 0.41102 0.01415 0.18347 0.0
C454 C 0.43354 0.00329 0.16891 0.0
C455 C 0.59071 0.88945 0.12623 0.0
C456 C 0.5664 0.85993 0.12577 0.0
C457 C 0.578 0.92445 0.13049 0.0
C458 C 0.5407 0.9304 0.13389 0.0
C459 C 0.51713 0.90033 0.135 0.0
C460 C 0.52993 0.86533 0.13098 0.0
C461 C 0.52526 0.96783 0.13349 0.0
C462 C 0.50284 0.97971 0.148 0.0
C463 C 0.53098 0.99102 0.11816 0.0
C464 C 0.55121 0.97886 0.10154 0.0
C465 C 0.53967 0.94799 0.09157 0.0
C466 C 0.55918 0.93631 0.0761 0.0
C467 C 0.59001 0.95555 0.07033 0.0
C468 C 0.60134 0.98657 0.07999 0.0
C469 C 0.582 0.99829 0.09551 0.0
H470 H 0.60508 0.94648 0.05835 0.0
H471 H 0.3999 0.05562 0.20376 0.0
H472 H 0.12471 0.08912 0.36378 0.0
H473 H 0.06494 0.06174 0.35782 0.0
H474 H 0.07807 0.99236 0.40538 0.0
H475 H 0.1379 0.0186 0.41108 0.0
H476 H 0.04693 0.95509 0.37942 0.0
H477 H 0.02877 0.07385 0.40691 0.0
H478 H 0.03474 0.14081 0.40913 0.0
H479 H 0.98122 0.1529 0.35688 0.0
H480 H 0.97531 0.08593 0.35427 0.0
H481 H 0.84749 0.97719 0.40953 0.0
H482 H 0.90789 0.00218 0.40431 0.0
H483 H 0.9224 0.93024 0.35775 0.0
H484 H 0.86182 0.90408 0.36323 0.0
H485 H 0.93986 0.03791 0.37818 0.0
H486 H 0.01282 0.90588 0.35558 0.0
H487 H 0.00656 0.83907 0.3588 0.0
H488 H 0.9499 0.8537 0.41006 0.0
H489 H 0.95624 0.92051 0.40724 0.0
C490 C 0.11499 0.06778 0.37286 0.0
C491 C 0.13597 0.05631 0.38801 0.0
C492 C 0.08078 0.05222 0.36946 0.0
C493 C 0.06678 0.02531 0.38129 0.0
C494 C 0.08827 0.013 0.39602 0.0
C495 C 0.12249 0.02822 0.39932 0.0
C496 C 0.02906 0.01116 0.37916 0.0
C497 C 0.02354 0.97322 0.37893 0.0
C498 C 0.99844 0.03472 0.37877 0.0
C499 C 0.00203 0.07493 0.38029 0.0
C500 C 0.01854 0.0908 0.39583 0.0
C501 C 0.02186 0.12873 0.39718 0.0
C502 C 0.00849 0.15109 0.38312 0.0
C503 C 0.99165 0.13555 0.36773 0.0
C504 C 0.9883 0.09761 0.36631 0.0
C505 C 0.86331 0.96667 0.39809 0.0
C506 C 0.84987 0.93832 0.3869 0.0
C507 C 0.89788 0.9812 0.39507 0.0
C508 C 0.91987 0.96792 0.38074 0.0
C509 C 0.90611 0.94055 0.36906 0.0
C510 C 0.87146 0.9257 0.37218 0.0
C511 C 0.95772 0.98184 0.37883 0.0
C512 C 0.96327 0.01976 0.37822 0.0
C513 C 0.98833 0.95827 0.37915 0.0
C514 C 0.98457 0.91815 0.38105 0.0
C515 C 0.99908 0.8948 0.36754 0.0
C516 C 0.99552 0.85694 0.3693 0.0
C517 C 0.97771 0.84216 0.38459 0.0
C518 C 0.96355 0.86518 0.39819 0.0
C519 C 0.96708 0.90304 0.3965 0.0
H520 H 0.97496 0.81285 0.38592 0.0
H521 H 0.01107 0.18045 0.38419 0.0
H522 H 0.91609 0.12901 0.63828 0.0
H523 H 0.94534 0.0703 0.64505 0.0
H524 H 0.00958 0.07991 0.59547 0.0
H525 H 0.98177 0.13874 0.58905 0.0
H526 H 0.94343 0.00926 0.62777 0.0
H527 H 0.08822 0.03765 0.59754 0.0
H528 H 0.13177 0.08877 0.59572 0.0
H529 H 0.08394 0.13733 0.64386 0.0
H530 H 0.04041 0.08625 0.64615 0.0
H531 H 0.0232 0.85585 0.58888 0.0
H532 H -0.00033 0.91579 0.59686 0.0
H533 H 0.07942 0.92523 0.64028 0.0
H534 H 0.10388 0.86493 0.63211 0.0
H535 H 0.07615 0.98658 0.62083 0.0
H536 H 0.98973 0.91225 0.65104 0.0
H537 H 0.94657 0.86123 0.65485 0.0
H538 H 0.87913 0.90492 0.61184 0.0
H539 H 0.92213 0.95594 0.60758 0.0
C540 C 0.93679 0.11875 0.62896 0.0
C541 C 0.94667 0.13862 0.61317 0.0
C542 C 0.95347 0.0852 0.63284 0.0
C543 C 0.98016 0.07088 0.62095 0.0
C544 C 0.98992 0.09076 0.60518 0.0
C545 C 0.97371 0.12438 0.60144 0.0
C546 C 0.99619 0.03411 0.62414 0.0
C547 C 0.97249 0.00439 0.62647 0.0
C548 C 0.03425 0.02769 0.62299 0.0
C549 C 0.06092 0.05813 0.62196 0.0
C550 C 0.08716 0.05906 0.60783 0.0
C551 C 0.1118 0.08809 0.60669 0.0
C552 C 0.11059 0.11631 0.61965 0.0
C553 C 0.0848 0.1155 0.63381 0.0
C554 C 0.06011 0.08653 0.63502 0.0
C555 C 0.03574 0.87041 0.60022 0.0
C556 C 0.06548 0.85547 0.60987 0.0
C557 C 0.02202 0.90469 0.60485 0.0
C558 C 0.03736 0.92479 0.61937 0.0
C559 C 0.06703 0.91006 0.62909 0.0
C560 C 0.08092 0.87561 0.62443 0.0
C561 C 0.02318 0.96186 0.62354 0.0
C562 C 0.0472 0.99159 0.62257 0.0
C563 C 0.98552 0.96834 0.62635 0.0
C564 C 0.95927 0.9379 0.62896 0.0
C565 C 0.96579 0.91089 0.64233 0.0
C566 C 0.94134 0.88197 0.64457 0.0
C567 C 0.91014 0.87982 0.63358 0.0
C568 C 0.90329 0.90664 0.62035 0.0
C569 C 0.92767 0.93561 0.61804 0.0
H570 H 0.89125 0.85739 0.63533 0.0
H571 H 0.12965 0.13878 0.61872 0.0
H572 H 0.6214 0.3943 0.88076 0.0
H573 H 0.56106 0.42199 0.87735 0.0
H574 H 0.61 0.52926 0.87792 0.0
H575 H 0.66993 0.50159 0.88247 0.0
H576 H 0.5576 0.53019 0.89995 0.0
H577 H 0.56833 0.48782 0.83799 0.0
H578 H 0.57977 0.44348 0.81306 0.0
H579 H 0.49059 0.37756 0.83203 0.0
H580 H 0.47891 0.42125 0.85724 0.0
H581 H 0.38822 0.6191 0.87751 0.0
H582 H 0.44988 0.5945 0.87287 0.0
H583 H 0.41338 0.48861 0.89106 0.0
H584 H 0.35212 0.51308 0.8962 0.0
H585 H 0.45948 0.49042 0.85744 0.0
H586 H 0.45251 0.53417 0.92044 0.0
H587 H 0.44293 0.57991 0.9449 0.0
H588 H 0.52807 0.64648 0.92217 0.0
H589 H 0.53762 0.60148 0.89731 0.0
C590 C 0.61922 0.42373 0.87975 0.0
C591 C 0.65017 0.44587 0.88184 0.0
C592 C 0.58475 0.4396 0.87773 0.0
C593 C 0.58085 0.47783 0.87719 0.0
C594 C 0.61217 0.49977 0.87838 0.0
C595 C 0.64642 0.48396 0.88088 0.0
C596 C 0.54411 0.49507 0.87705 0.0
C597 C 0.5365 0.52198 0.89033 0.0
C598 C 0.51613 0.48395 0.86481 0.0
C599 C 0.52293 0.4577 0.8496 0.0
C600 C 0.5513 0.46375 0.83693 0.0
C601 C 0.55781 0.43874 0.82273 0.0
C602 C 0.53597 0.40769 0.82099 0.0
C603 C 0.5075 0.40162 0.83341 0.0
C604 C 0.5009 0.42652 0.84764 0.0
C605 C 0.3933 0.5905 0.88034 0.0
C606 C 0.36548 0.56802 0.88731 0.0
C607 C 0.42846 0.57657 0.87773 0.0
C608 C 0.43603 0.53984 0.8817 0.0
C609 C 0.40796 0.51702 0.88792 0.0
C610 C 0.37308 0.53108 0.89091 0.0
C611 C 0.47353 0.52537 0.88019 0.0
C612 C 0.48104 0.49891 0.86673 0.0
C613 C 0.50164 0.53731 0.89205 0.0
C614 C 0.4953 0.56474 0.90679 0.0
C615 C 0.46877 0.55883 0.92046 0.0
C616 C 0.46344 0.58457 0.93445 0.0
C617 C 0.48475 0.61617 0.93504 0.0
C618 C 0.51146 0.62207 0.92165 0.0
C619 C 0.51681 0.59648 0.90759 0.0
H620 H 0.48066 0.63601 0.94591 0.0
H621 H 0.54106 0.38836 0.80999 0.0
H622 H 0.44406 0.36603 0.07337 0.0
H623 H 0.47352 0.42456 0.07868 0.0
H624 H 0.45555 0.41338 0.13718 0.0
H625 H 0.42394 0.35518 0.13174 0.0
H626 H 0.4448 0.4806 0.12822 0.0
H627 H 0.54186 0.3983 0.11657 0.0
H628 H 0.57497 0.34918 0.1004 0.0
H629 H 0.58286 0.41613 0.05205 0.0
H630 H 0.54928 0.46547 0.06782 0.0
H631 H 0.5832 0.63006 0.13251 0.0
H632 H 0.55862 0.56807 0.13687 0.0
H633 H 0.50873 0.57294 0.08319 0.0
H634 H 0.53199 0.63471 0.07891 0.0
H635 H 0.56155 0.50616 0.09613 0.0
H636 H 0.45126 0.5814 0.10804 0.0
H637 H 0.41926 0.62961 0.12547 0.0
H638 H 0.4418 0.57343 0.17611 0.0
H639 H 0.47443 0.52516 0.15895 0.0
C640 C 0.44637 0.376 0.08738 0.0
C641 C 0.43207 0.35591 0.10217 0.0
C642 C 0.46348 0.40939 0.09043 0.0
C643 C 0.46789 0.42293 0.1084 0.0
C644 C 0.45284 0.40333 0.12321 0.0
C645 C 0.43482 0.37014 0.12011 0.0
C646 C 0.48774 0.45784 0.1114 0.0
C647 C 0.47071 0.4858 0.12152 0.0
C648 C 0.52179 0.46483 0.10281 0.0
C649 C 0.54288 0.43557 0.09338 0.0
C650 C 0.55054 0.40253 0.10247 0.0
C651 C 0.56938 0.37462 0.09337 0.0
C652 C 0.58096 0.37951 0.0752 0.0
C653 C 0.57387 0.41238 0.06613 0.0
C654 C 0.55499 0.44036 0.07516 0.0
C655 C 0.56679 0.61793 0.12172 0.0
C656 C 0.55942 0.6373 0.1054 0.0
C657 C 0.55282 0.58265 0.12423 0.0
C658 C 0.53194 0.56619 0.11033 0.0
C659 C 0.52476 0.58535 0.09405 0.0
C660 C 0.53797 0.6207 0.09169 0.0
C661 C 0.51785 0.52867 0.11231 0.0
C662 C 0.53609 0.50036 0.10316 0.0
C663 C 0.4854 0.52117 0.12203 0.0
C664 C 0.46569 0.55003 0.13227 0.0
C665 C 0.44974 0.57957 0.12291 0.0
C666 C 0.43141 0.60684 0.13273 0.0
C667 C 0.42863 0.60466 0.1519 0.0
C668 C 0.44407 0.57514 0.16127 0.0
C669 C 0.46247 0.54783 0.15151 0.0
H670 H 0.41441 0.62578 0.15948 0.0
H671 H 0.59545 0.35783 0.06816 0.0
H672 H 0.33949 0.23212 0.17864 0.0
H673 H 0.32457 0.22582 0.21135 0.0
H674 H 0.2238 0.28415 0.20266 0.0
H675 H 0.2388 0.29068 0.16981 0.0
H676 H 0.26456 0.30334 0.23631 0.0
H677 H 0.21684 0.19879 0.20326 0.0
H678 H 0.222 0.14692 0.18172 0.0
H679 H 0.30539 0.09919 0.21554 0.0
H680 H 0.30108 0.15107 0.23716 0.0
H681 H 0.18502 0.24853 0.3214 0.0
H682 H 0.19479 0.26216 0.28864 0.0
H683 H 0.28238 0.18325 0.28707 0.0
H684 H 0.27163 0.16886 0.31947 0.0
H685 H 0.24435 0.17629 0.25773 0.0
H686 H 0.29659 0.27823 0.28982 0.0
H687 H 0.29755 0.33048 0.31127 0.0
H688 H 0.21341 0.38337 0.27998 0.0
H689 H 0.21162 0.33117 0.25846 0.0
C690 C 0.31473 0.24458 0.18384 0.0
C691 C 0.29059 0.26257 0.17191 0.0
C692 C 0.30609 0.24067 0.20243 0.0
C693 C 0.27311 0.2545 0.20931 0.0
C694 C 0.24946 0.27351 0.19755 0.0
C695 C 0.25797 0.27714 0.17888 0.0
C696 C 0.26228 0.24672 0.22847 0.0
C697 C 0.25956 0.27568 0.24102 0.0
C698 C 0.25672 0.21051 0.23454 0.0
C699 C 0.25883 0.17895 0.22174 0.0
C700 C 0.23644 0.17734 0.20604 0.0
C701 C 0.23918 0.14793 0.19383 0.0
C702 C 0.26405 0.11981 0.19724 0.0
C703 C 0.28615 0.121 0.21291 0.0
C704 C 0.28353 0.15038 0.22516 0.0
C705 C 0.206 0.23394 0.31388 0.0
C706 C 0.22712 0.20721 0.32265 0.0
C707 C 0.2118 0.24188 0.29528 0.0
C708 C 0.23958 0.22397 0.28542 0.0
C709 C 0.26062 0.19723 0.29432 0.0
C710 C 0.25441 0.1889 0.31277 0.0
C711 C 0.24705 0.2329 0.26587 0.0
C712 C 0.24907 0.20407 0.25314 0.0
C713 C 0.25267 0.26921 0.25975 0.0
C714 C 0.25368 0.30061 0.27266 0.0
C715 C 0.27809 0.30087 0.2876 0.0
C716 C 0.27882 0.3305 0.29976 0.0
C717 C 0.25547 0.36017 0.29702 0.0
C718 C 0.23142 0.36033 0.2821 0.0
C719 C 0.23055 0.33074 0.26991 0.0
H720 H 0.25609 0.38309 0.30645 0.0
H721 H 0.26616 0.09707 0.18776 0.0
H722 H 0.26545 0.6588 0.81225 0.0
H723 H 0.26444 0.67405 0.77959 0.0
H724 H 0.26556 0.78877 0.79306 0.0
H725 H 0.26799 0.7736 0.82598 0.0
H726 H 0.21007 0.76764 0.76833 0.0
H727 H 0.33937 0.75489 0.77466 0.0
H728 H 0.39621 0.72441 0.7843 0.0
H729 H 0.37104 0.63273 0.74966 0.0
H730 H 0.31377 0.66241 0.74001 0.0
H731 H 0.20959 0.80721 0.67259 0.0
H732 H 0.22793 0.80773 0.70506 0.0
H733 H 0.24952 0.69192 0.70229 0.0
H734 H 0.2323 0.69164 0.66979 0.0
H735 H 0.29948 0.72302 0.72217 0.0
H736 H 0.16806 0.72844 0.71965 0.0
H737 H 0.10882 0.75451 0.71039 0.0
H738 H 0.13489 0.85457 0.73833 0.0
H739 H 0.19458 0.82925 0.74751 0.0
C740 C 0.26704 0.68725 0.8083 0.0
C741 C 0.26825 0.71503 0.82165 0.0
C742 C 0.26601 0.69592 0.78962 0.0
C743 C 0.26554 0.73251 0.78395 0.0
C744 C 0.2663 0.76037 0.79721 0.0
C745 C 0.26771 0.75168 0.81594 0.0
C746 C 0.2619 0.74123 0.76417 0.0
C747 C 0.22997 0.75868 0.75822 0.0
C748 C 0.2875 0.72861 0.75107 0.0
C749 C 0.32214 0.71082 0.75669 0.0
C750 C 0.34582 0.72812 0.76919 0.0
C751 C 0.37815 0.711 0.77464 0.0
C752 C 0.3872 0.67663 0.76762 0.0
C753 C 0.36399 0.65935 0.75509 0.0
C754 C 0.33162 0.67634 0.7496 0.0
C755 C 0.21823 0.78194 0.67898 0.0
C756 C 0.21892 0.74924 0.66888 0.0
C757 C 0.22876 0.78225 0.69748 0.0
C758 C 0.23946 0.74972 0.7062 0.0
C759 C 0.24136 0.71734 0.69588 0.0
C760 C 0.2314 0.71716 0.67735 0.0
C761 C 0.2472 0.74873 0.72624 0.0
C762 C 0.27986 0.73266 0.73226 0.0
C763 C 0.22195 0.76202 0.73942 0.0
C764 C 0.18594 0.77712 0.73408 0.0
C765 C 0.16126 0.75609 0.72371 0.0
C766 C 0.1276 0.77072 0.71849 0.0
C767 C 0.11815 0.80622 0.72372 0.0
C768 C 0.14229 0.82711 0.73425 0.0
C769 C 0.17603 0.81264 0.73947 0.0
H770 H 0.09207 0.8175 0.71966 0.0
H771 H 0.41223 0.66342 0.77186 0.0
H772 H 0.71265 0.74549 0.32543 0.0
H773 H 0.71016 0.72978 0.29276 0.0
H774 H 0.79905 0.80365 0.28185 0.0
H775 H 0.80279 0.81842 0.31462 0.0
H776 H 0.73696 0.81383 0.25905 0.0
H777 H 0.81564 0.71693 0.27943 0.0
H778 H 0.83363 0.6651 0.29908 0.0
H779 H 0.73879 0.60555 0.28179 0.0
H780 H 0.71993 0.65726 0.26223 0.0
H781 H 0.75577 0.77143 0.16558 0.0
H782 H 0.77062 0.77839 0.19811 0.0
H783 H 0.69349 0.69379 0.21184 0.0
H784 H 0.68014 0.68507 0.17917 0.0
H785 H 0.75187 0.68907 0.23332 0.0
H786 H 0.67031 0.78418 0.21489 0.0
H787 H 0.64859 0.83532 0.19574 0.0
H788 H 0.74338 0.8978 0.21026 0.0
H789 H 0.76599 0.84675 0.22926 0.0
C790 C 0.73196 0.75816 0.31614 0.0
C791 C 0.75721 0.78408 0.32259 0.0
C792 C 0.73048 0.74911 0.29748 0.0
C793 C 0.75432 0.76569 0.28494 0.0
C794 C 0.78018 0.79087 0.29135 0.0
C795 C 0.78193 0.79965 0.31006 0.0
C796 C 0.75098 0.75799 0.26502 0.0
C797 C 0.74088 0.78671 0.25334 0.0
C798 C 0.75484 0.72232 0.25779 0.0
C799 C 0.76621 0.69112 0.26948 0.0
C800 C 0.79845 0.69291 0.27993 0.0
C801 C 0.80884 0.66353 0.29104 0.0
C802 C 0.78732 0.63209 0.29172 0.0
C803 C 0.75541 0.62993 0.28126 0.0
C804 C 0.74488 0.65926 0.27015 0.0
C805 C 0.74226 0.75393 0.17547 0.0
C806 C 0.7157 0.72862 0.16981 0.0
C807 C 0.75063 0.75813 0.19409 0.0
C808 C 0.73235 0.73739 0.20744 0.0
C809 C 0.70747 0.71053 0.20178 0.0
C810 C 0.69937 0.70602 0.1831 0.0
C811 C 0.738 0.74498 0.22729 0.0
C812 C 0.74828 0.71626 0.23898 0.0
C813 C 0.73371 0.78059 0.23463 0.0
C814 C 0.72003 0.81149 0.22335 0.0
C815 C 0.68666 0.80872 0.21389 0.0
C816 C 0.67417 0.8377 0.20307 0.0
C817 C 0.69464 0.86975 0.20175 0.0
C818 C 0.72759 0.87292 0.21128 0.0
C819 C 0.74025 0.84398 0.22208 0.0
H820 H 0.68492 0.89217 0.19336 0.0
H821 H 0.79542 0.60936 0.30032 0.0
H822 H 0.69496 0.31091 0.8166 0.0
H823 H 0.70015 0.29187 0.78451 0.0
H824 H 0.79044 0.22168 0.7987 0.0
H825 H 0.78685 0.24236 0.83059 0.0
H826 H 0.80708 0.25991 0.76975 0.0
H827 H 0.70442 0.18777 0.7876 0.0
H828 H 0.64372 0.17569 0.80087 0.0
H829 H 0.59454 0.24625 0.76072 0.0
H830 H 0.65502 0.25916 0.74736 0.0
H831 H 0.81841 0.17536 0.68245 0.0
H832 H 0.8046 0.18085 0.71528 0.0
H833 H 0.72735 0.26656 0.70354 0.0
H834 H 0.74189 0.26212 0.67076 0.0
H835 H 0.70397 0.21648 0.73127 0.0
H836 H 0.80784 0.29117 0.71514 0.0
H837 H 0.86849 0.30141 0.70142 0.0
H838 H 0.91543 0.22371 0.73881 0.0
H839 H 0.85486 0.21247 0.75251 0.0
C840 C 0.71634 0.29196 0.81287 0.0
C841 C 0.74125 0.27908 0.82606 0.0
C842 C 0.7188 0.28048 0.79455 0.0
C843 C 0.74564 0.25523 0.78919 0.0
C844 C 0.76962 0.2413 0.80249 0.0
C845 C 0.76739 0.25303 0.82074 0.0
C846 C 0.75019 0.24495 0.76956 0.0
C847 C 0.78463 0.24976 0.76147 0.0
C848 C 0.72076 0.23244 0.75861 0.0
C849 C 0.68431 0.22468 0.76658 0.0
C850 C 0.6807 0.20094 0.78169 0.0
C851 C 0.64632 0.1939 0.78921 0.0
C852 C 0.61531 0.21026 0.78167 0.0
C853 C 0.61859 0.23362 0.76656 0.0
C854 C 0.65291 0.24078 0.75899 0.0
C855 C 0.79882 0.19566 0.68685 0.0
C856 C 0.78232 0.21932 0.6741 0.0
C857 C 0.79056 0.19837 0.70557 0.0
C858 C 0.76537 0.22447 0.71179 0.0
C859 C 0.74693 0.2463 0.69898 0.0
C860 C 0.75537 0.24378 0.68027 0.0
C861 C 0.76072 0.23137 0.73169 0.0
C862 C 0.72635 0.22619 0.73973 0.0
C863 C 0.79021 0.24337 0.74267 0.0
C864 C 0.82676 0.25069 0.73471 0.0
C865 C 0.83105 0.27607 0.72034 0.0
C866 C 0.86541 0.28207 0.71257 0.0
C867 C 0.89578 0.26315 0.71921 0.0
C868 C 0.89186 0.23829 0.73367 0.0
C869 C 0.85752 0.23209 0.74144 0.0
H870 H 0.92236 0.26783 0.71318 0.0
H871 H 0.58872 0.20478 0.78752 0.0
H872 H 0.21729 0.79552 0.57087 0.0
H873 H 0.25321 0.82666 0.54731 0.0
H874 H 0.17851 0.78943 0.50548 0.0
H875 H 0.14225 0.75835 0.5289 0.0
H876 H 0.25421 0.79712 0.49327 0.0
H877 H 0.15674 0.86358 0.52538 0.0
H878 H 0.12668 0.88575 0.55368 0.0
H879 H 0.22457 0.94212 0.56931 0.0
H880 H 0.25538 0.91971 0.54123 0.0
H881 H 0.22058 0.9311 0.42641 0.0
H882 H 0.22414 0.88347 0.44974 0.0
H883 H 0.28537 0.9557 0.48513 0.0
H884 H 0.28091 0.00397 0.462 0.0
H885 H 0.23131 0.92931 0.50312 0.0
H886 H 0.32363 0.87579 0.46666 0.0
H887 H 0.35416 0.85337 0.43859 0.0
H888 H 0.26998 0.77332 0.43105 0.0
H889 H 0.2386 0.79559 0.45893 0.0
C890 C 0.20913 0.79288 0.5566 0.0
C891 C 0.17643 0.77519 0.55179 0.0
C892 C 0.22978 0.81064 0.54315 0.0
C893 C 0.21815 0.81069 0.52475 0.0
C894 C 0.18787 0.78967 0.51964 0.0
C895 C 0.16702 0.77217 0.53307 0.0
C896 C 0.23266 0.83788 0.51164 0.0
C897 C 0.24944 0.82607 0.49533 0.0
C898 C 0.22716 0.87563 0.51467 0.0
C899 C 0.20847 0.88963 0.53136 0.0
C900 C 0.17191 0.88049 0.53493 0.0
C901 C 0.15474 0.89311 0.55091 0.0
C902 C 0.17374 0.91524 0.56331 0.0
C903 C 0.20991 0.9249 0.55972 0.0
C904 C 0.22725 0.91225 0.54378 0.0
C905 C 0.23536 0.93667 0.43902 0.0
C906 C 0.25009 0.97142 0.44246 0.0
C907 C 0.23768 0.90926 0.45231 0.0
C908 C 0.25532 0.91583 0.46916 0.0
C909 C 0.27163 0.94998 0.47224 0.0
C910 C 0.26899 0.97756 0.45902 0.0
C911 C 0.25249 0.8888 0.48432 0.0
C912 C 0.23743 0.90059 0.50108 0.0
C913 C 0.25989 0.85116 0.48167 0.0
C914 C 0.27864 0.83753 0.46487 0.0
C915 C 0.31146 0.85357 0.45896 0.0
C916 C 0.32895 0.84086 0.44308 0.0
C917 C 0.31399 0.81197 0.43303 0.0
C918 C 0.28154 0.79569 0.43886 0.0
C919 C 0.26392 0.80831 0.45472 0.0
H920 H 0.32758 0.80217 0.42075 0.0
H921 H 0.1604 0.92499 0.57568 0.0
H922 H 0.73427 0.84787 0.46263 0.0
H923 H 0.76235 0.81788 0.48914 0.0
H924 H 0.83892 0.76409 0.45301 0.0
H925 H 0.80985 0.79267 0.4264 0.0
H926 H 0.82756 0.72332 0.48315 0.0
H927 H 0.85679 0.84929 0.46999 0.0
H928 H 0.84212 0.91412 0.46446 0.0
H929 H 0.79373 0.92188 0.5182 0.0
H930 H 0.80767 0.85689 0.52393 0.0
H931 H 0.99555 0.73307 0.53187 0.0
H932 H 0.94361 0.73541 0.51086 0.0
H933 H 0.8766 0.78031 0.55418 0.0
H934 H 0.92851 0.77833 0.57527 0.0
H935 H 0.87583 0.82166 0.52341 0.0
H936 H 0.8597 0.69538 0.53779 0.0
H937 H 0.87875 0.63134 0.54192 0.0
H938 H 0.90808 0.62474 0.48475 0.0
H939 H 0.88973 0.68893 0.48032 0.0
C940 C 0.75626 0.82863 0.46031 0.0
C941 C 0.77037 0.82307 0.44254 0.0
C942 C 0.77232 0.81157 0.47545 0.0
C943 C 0.80345 0.78971 0.47308 0.0
C944 C 0.8151 0.78107 0.45517 0.0
C945 C 0.79849 0.79749 0.43996 0.0
C946 C 0.82718 0.78098 0.489 0.0
C947 C 0.83815 0.74473 0.49198 0.0
C948 C 0.84079 0.80897 0.5006 0.0
C949 C 0.83288 0.84817 0.4973 0.0
C950 C 0.84285 0.86479 0.48058 0.0
C951 C 0.83467 0.90155 0.47742 0.0
C952 C 0.8169 0.92208 0.49095 0.0
C953 C 0.80741 0.90592 0.50771 0.0
C954 C 0.81544 0.86913 0.51093 0.0
C955 C 0.96964 0.74298 0.53701 0.0
C956 C 0.96623 0.75587 0.55518 0.0
C957 C 0.93989 0.74401 0.52502 0.0
C958 C 0.90619 0.75779 0.53101 0.0
C959 C 0.90236 0.76945 0.54933 0.0
C960 C 0.93207 0.76834 0.56134 0.0
C961 C 0.87641 0.76397 0.51761 0.0
C962 C 0.86458 0.79998 0.51495 0.0
C963 C 0.86268 0.73582 0.50617 0.0
C964 C 0.87353 0.6971 0.50875 0.0
C965 C 0.87046 0.68038 0.52612 0.0
C966 C 0.88109 0.64402 0.52851 0.0
C967 C 0.89467 0.624 0.51362 0.0
C968 C 0.89756 0.64028 0.49628 0.0
C969 C 0.88699 0.67664 0.49381 0.0
H970 H 0.90289 0.59586 0.5155 0.0
H971 H 0.81057 0.95053 0.48847 0.0
H972 H 0.7628 0.06997 0.41957 0.0
H973 H 0.76906 0.11958 0.44189 0.0
H974 H 0.73101 0.04844 0.48511 0.0
H975 H 0.7244 0.99871 0.46289 0.0
H976 H 0.70679 0.12151 0.48911 0.0
H977 H 0.81864 0.05356 0.47783 0.0
H978 H 0.86684 0.02834 0.45781 0.0
H979 H 0.8937 0.13635 0.43928 0.0
H980 H 0.8452 0.16215 0.45899 0.0
H981 H 0.79663 0.17625 0.57076 0.0
H982 H 0.76638 0.15006 0.54395 0.0
H983 H 0.82817 0.22127 0.50833 0.0
H984 H 0.85976 0.24635 0.53511 0.0
H985 H 0.83652 0.15607 0.49745 0.0
H986 H 0.73122 0.22551 0.51289 0.0
H987 H 0.68271 0.25069 0.53271 0.0
H988 H 0.64298 0.14249 0.54335 0.0
H989 H 0.69155 0.11658 0.5238 0.0
C990 C 0.75509 0.06504 0.43375 0.0
C991 C 0.7437 0.03024 0.43953 0.0
C992 C 0.7586 0.09345 0.44647 0.0
C993 C 0.75091 0.08747 0.46515 0.0
C994 C 0.73705 0.05356 0.47073 0.0
C995 C 0.73354 0.02511 0.45803 0.0
C996 C 0.76166 0.11469 0.47919 0.0
C997 C 0.7351 0.12919 0.49103 0.0
C998 C 0.7985 0.12519 0.48132 0.0
C999 C 0.82803 0.10973 0.4697 0.0
C1000 C 0.83465 0.0719 0.46938 0.0
C1001 C 0.86204 0.0575 0.4581 0.0
C1002 C 0.88324 0.08072 0.44723 0.0
C1003 C 0.87719 0.1184 0.44767 0.0
C1004 C 0.84977 0.13292 0.45889 0.0
C1005 C 0.80309 0.187 0.55726 0.0
C1006 C 0.83085 0.21303 0.555 0.0
C1007 C 0.78557 0.17214 0.54189 0.0
C1008 C 0.79485 0.18373 0.52405 0.0
C1009 C 0.82066 0.21173 0.52193 0.0
C1010 C 0.83868 0.22608 0.53725 0.0
C1011 C 0.78169 0.16317 0.50769 0.0
C1012 C 0.80797 0.14947 0.49541 0.0
C1013 C 0.74457 0.15363 0.50519 0.0
C1014 C 0.71522 0.16909 0.51695 0.0
C1015 C 0.71231 0.20705 0.51956 0.0
C1016 C 0.68476 0.22146 0.53073 0.0
C1017 C 0.65982 0.1982 0.53931 0.0
C1018 C 0.66233 0.16048 0.5367 0.0
C1019 C 0.68983 0.14592 0.52555 0.0
H1020 H 0.63852 0.20941 0.54796 0.0
H1021 H 0.90441 0.06952 0.43849 0.0
H1022 H 0.18761 0.21817 0.42468 0.0
H1023 H 0.16028 0.25486 0.44922 0.0
H1024 H 0.20416 0.18105 0.48984 0.0
H1025 H 0.23158 0.14431 0.46549 0.0
H1026 H 0.1081 0.22457 0.47053 0.0
H1027 H 0.213 0.224 0.53092 0.0
H1028 H 0.27911 0.23226 0.53542 0.0
H1029 H 0.28531 0.29461 0.48547 0.0
H1030 H 0.21916 0.28723 0.4808 0.0
H1031 H 0.07101 0.21618 0.57285 0.0
H1032 H 0.11613 0.21904 0.54817 0.0
H1033 H 0.04889 0.29651 0.51898 0.0
H1034 H 0.00302 0.29283 0.54337 0.0
H1035 H 0.15801 0.26703 0.53033 0.0
H1036 H 0.04913 0.27452 0.47361 0.0
H1037 H 0.98371 0.26158 0.46894 0.0
H1038 H 0.98765 0.17925 0.51097 0.0
H1039 H 0.05315 0.1914 0.51571 0.0
C1040 C 0.19232 0.21029 0.43886 0.0
C1041 C 0.21127 0.17797 0.44313 0.0
C1042 C 0.17668 0.23133 0.45286 0.0
C1043 C 0.1802 0.2207 0.47133 0.0
C1044 C 0.20148 0.19004 0.47569 0.0
C1045 C 0.21689 0.16886 0.46172 0.0
C1046 C 0.15692 0.23743 0.48571 0.0
C1047 C 0.11904 0.23496 0.4834 0.0
C1048 C 0.17124 0.25 0.50266 0.0
C1049 C 0.21106 0.25486 0.50546 0.0
C1050 C 0.22839 0.23966 0.52095 0.0
C1051 C 0.26591 0.24415 0.52352 0.0
C1052 C 0.28641 0.26388 0.51072 0.0
C1053 C 0.26942 0.27923 0.49535 0.0
C1054 C 0.23192 0.27484 0.49271 0.0
C1055 C 0.06611 0.23432 0.56134 0.0
C1056 C 0.03317 0.25368 0.55983 0.0
C1057 C 0.09202 0.23608 0.54728 0.0
C1058 C 0.08553 0.25743 0.53157 0.0
C1059 C 0.05409 0.27928 0.53081 0.0
C1060 C 0.02792 0.27713 0.54474 0.0
C1061 C 0.1094 0.2532 0.51523 0.0
C1062 C 0.14721 0.25779 0.51723 0.0
C1063 C 0.09515 0.24202 0.498 0.0
C1064 C 0.05585 0.23426 0.49518 0.0
C1065 C 0.036 0.25364 0.48183 0.0
C1066 C 0.99893 0.24643 0.47917 0.0
C1067 C 0.9815 0.21972 0.48971 0.0
C1068 C 0.00114 0.20004 0.50287 0.0
C1069 C 0.03822 0.20709 0.50556 0.0
H1070 H 0.95279 0.21421 0.48764 0.0
H1071 H 0.31545 0.26732 0.51274 0.0
H1072 H 0.3307 0.23491 0.03104 0.0
H1073 H 0.29959 0.26362 0.00505 0.0
H1074 H 0.25548 0.34561 0.04151 0.0
H1075 H 0.28519 0.31603 0.06767 0.0
H1076 H 0.21175 0.3365 0.01143 0.0
H1077 H 0.3397 0.35656 0.02409 0.0
H1078 H 0.40295 0.3364 0.02964 0.0
H1079 H 0.40599 0.28612 0.97619 0.0
H1080 H 0.34249 0.30551 0.97047 0.0
H1081 H 0.23389 0.50301 0.96205 0.0
H1082 H 0.23186 0.45121 0.98319 0.0
H1083 H 0.27193 0.3803 0.94022 0.0
H1084 H 0.2744 0.43201 0.91902 0.0
H1085 H 0.31288 0.37687 0.97083 0.0
H1086 H 0.1858 0.37012 0.95674 0.0
H1087 H 0.12336 0.39377 0.95268 0.0
H1088 H 0.11947 0.42412 0.00979 0.0
H1089 H 0.1821 0.40115 0.01415 0.0
C1090 C 0.31311 0.25815 0.0336 0.0
C1091 C 0.3109 0.27375 0.05125 0.0
C1092 C 0.29538 0.27454 0.01876 0.0
C1093 C 0.27626 0.3074 0.02129 0.0
C1094 C 0.27034 0.32043 0.03924 0.0
C1095 C 0.28741 0.30352 0.05418 0.0
C1096 C 0.26902 0.33163 0.00538 0.0
C1097 C 0.23374 0.34536 0.0025 0.0
C1098 C 0.2978 0.34304 0.99371 0.0
C1099 C 0.33626 0.33211 0.99694 0.0
C1100 C 0.35382 0.34106 0.01357 0.0
C1101 C 0.38969 0.32976 0.01675 0.0
C1102 C 0.40845 0.30989 0.0033 0.0
C1103 C 0.3914 0.30144 0.98661 0.0
C1104 C 0.35547 0.31256 0.98339 0.0
C1105 C 0.24179 0.4763 0.95701 0.0
C1106 C 0.25472 0.47168 0.93892 0.0
C1107 C 0.24029 0.44665 0.96907 0.0
C1108 C 0.25152 0.41187 0.96323 0.0
C1109 C 0.26305 0.40692 0.94497 0.0
C1110 C 0.26451 0.43652 0.93289 0.0
C1111 C 0.25551 0.38187 0.97674 0.0
C1112 C 0.29051 0.36736 0.97936 0.0
C1113 C 0.22657 0.37042 0.98828 0.0
C1114 C 0.18879 0.3841 0.98574 0.0
C1115 C 0.17175 0.38208 0.96841 0.0
C1116 C 0.13629 0.39532 0.96605 0.0
C1117 C 0.11748 0.41049 0.98096 0.0
C1118 C 0.13407 0.41237 -0.00175 0.0
C1119 C 0.16954 0.39919 0.00068 0.0
H1120 H 0.09003 0.42073 0.97911 0.0
H1121 H 0.43621 0.30112 0.00579 0.0
H1122 H 0.25977 0.64759 0.96412 0.0
H1123 H 0.28714 0.68415 0.98856 0.0
H1124 H 0.32898 0.75952 0.94815 0.0
H1125 H 0.30154 0.72319 0.92356 0.0
H1126 H 0.3821 0.72512 0.96824 0.0
H1127 H 0.27402 0.79189 0.98059 0.0
H1128 H 0.2085 0.80149 0.98644 0.0
H1129 H 0.2159 0.73801 0.03598 0.0
H1130 H 0.28136 0.72753 0.03031 0.0
H1131 H 0.49363 0.7917 0.03891 0.0
H1132 H 0.44632 0.79521 0.01527 0.0
H1133 H 0.37999 0.7197 0.04617 0.0
H1134 H 0.42673 0.71677 0.07009 0.0
H1135 H 0.33773 0.76882 0.02894 0.0
H1136 H 0.43832 0.6896 0.01296 0.0
H1137 H 0.50252 0.67346 0.00689 0.0
H1138 H 0.5073 0.75381 0.96392 0.0
H1139 H 0.44321 0.77077 0.96993 0.0
C1140 C 0.27381 0.67256 0.96044 0.0
C1141 C 0.2791 0.6821 0.94188 0.0
C1142 C 0.28921 0.69361 0.97446 0.0
C1143 C 0.31019 0.72445 0.97013 0.0
C1144 C 0.31281 0.73582 0.95174 0.0
C1145 C 0.29711 0.71497 0.93771 0.0
C1146 C 0.33485 0.73992 0.98423 0.0
C1147 C 0.37242 0.73582 0.98131 0.0
C1148 C 0.32207 0.75262 0.00146 0.0
C1149 C 0.28264 0.75877 0.00496 0.0
C1150 C 0.26164 0.77971 0.99266 0.0
C1151 C 0.2245 0.78537 0.99596 0.0
C1152 C 0.20804 0.77033 0.01156 0.0
C1153 C 0.22869 0.74965 0.02391 0.0
C1154 C 0.26584 0.7439 0.02067 0.0
C1155 C 0.46869 0.77632 0.04082 0.0
C1156 C 0.46413 0.75342 0.05618 0.0
C1157 C 0.44168 0.77841 0.02732 0.0
C1158 C 0.40998 0.75716 0.0288 0.0
C1159 C 0.40428 0.73627 0.04474 0.0
C1160 C 0.43111 0.73447 0.05835 0.0
C1161 C 0.38479 0.75332 0.01297 0.0
C1162 C 0.34732 0.75929 0.01564 0.0
C1163 C 0.39749 0.7416 0.99552 0.0
C1164 C 0.43618 0.73184 0.99209 0.0
C1165 C 0.45319 0.70409 0.00235 0.0
C1166 C 0.48952 0.69474 -0.0011 0.0
C1167 C 0.50902 0.71269 0.98507 0.0
C1168 C 0.4922 0.74001 0.97466 0.0
C1169 C 0.45588 0.74952 0.97809 0.0
H1170 H 0.53713 0.70536 0.98239 0.0
H1171 H 0.17928 0.77475 0.01409 0.0
H1172 H 0.70445 0.68741 0.06477 0.0
H1173 H 0.73409 0.66342 0.03724 0.0
H1174 H 0.66839 0.73448 0.00334 0.0
H1175 H 0.63756 0.75743 0.03084 0.0
H1176 H 0.66082 0.66924 0.99205 0.0
H1177 H 0.76506 0.74092 0.00599 0.0
H1178 H 0.81418 0.7671 0.02504 0.0
H1179 H 0.85772 0.65986 0.03446 0.0
H1180 H 0.80857 0.63295 0.01568 0.0
H1181 H 0.73209 0.5821 0.91324 0.0
H1182 H 0.72446 0.63223 0.9352 0.0
H1183 H 0.76968 0.56516 0.97833 0.0
H1184 H 0.77771 0.51503 0.95649 0.0
H1185 H 0.79069 0.63774 0.98142 0.0
H1186 H 0.67995 0.56724 0.97168 0.0
H1187 H 0.63009 0.54128 0.95301 0.0
H1188 H 0.59857 0.64894 0.93584 0.0
H1189 H 0.64868 0.6755 0.95418 0.0
C1190 C 0.69706 0.6987 0.0515 0.0
C1191 C 0.66839 0.72397 0.04993 0.0
C1192 C 0.71419 0.68507 0.03572 0.0
C1193 C 0.70354 0.69712 0.01814 0.0
C1194 C 0.67694 0.72458 0.01672 0.0
C1195 C 0.65938 0.73773 0.03245 0.0
C1196 C 0.71609 0.67741 0.00139 0.0
C1197 C 0.68937 0.66331 0.98948 0.0
C1198 C 0.75323 0.66884 -0.00181 0.0
C1199 C 0.78294 0.68489 0.00949 0.0
C1200 C 0.78494 0.72288 0.01223 0.0
C1201 C 0.81283 0.73786 0.02296 0.0
C1202 C 0.83902 0.71515 0.03097 0.0
C1203 C 0.83741 0.67742 0.02824 0.0
C1204 C 0.80957 0.66229 0.01752 0.0
C1205 C 0.74109 0.57824 0.92731 0.0
C1206 C 0.75497 0.5444 0.9332 0.0
C1207 C 0.73668 0.60691 0.93983 0.0
C1208 C 0.74601 0.60216 0.95842 0.0
C1209 C 0.76225 0.56933 0.96404 0.0
C1210 C 0.76662 0.54064 0.95156 0.0
C1211 C 0.73538 0.62958 0.97243 0.0
C1212 C 0.76234 0.64475 0.98382 0.0
C1213 C 0.69844 0.63934 0.97516 0.0
C1214 C 0.66839 0.62332 0.96409 0.0
C1215 C 0.66263 0.58535 0.96377 0.0
C1216 C 0.63428 0.57053 0.95328 0.0
C1217 C 0.61126 0.59344 0.94319 0.0
C1218 C 0.61649 0.63122 0.94361 0.0
C1219 C 0.64487 0.64617 0.95405 0.0
H1220 H 0.5893 0.58192 0.93509 0.0
H1221 H 0.86058 0.72681 0.03928 0.0
H1222 H 0.71924 0.28904 0.92766 0.0
H1223 H 0.68534 0.25659 0.95162 0.0
H1224 H 0.69048 0.35176 0.98648 0.0
H1225 H 0.72456 0.38435 0.96285 0.0
H1226 H 0.69042 0.2462 0.99457 0.0
H1227 H 0.59967 0.37236 0.99027 0.0
H1228 H 0.58583 0.42221 0.96848 0.0
H1229 H 0.60722 0.35056 0.92287 0.0
H1230 H 0.62048 0.30017 0.94439 0.0
H1231 H 0.56076 0.26372 0.06737 0.0
H1232 H 0.60909 0.26853 0.04434 0.0
H1233 H 0.53225 0.24112 0.00152 0.0
H1234 H 0.48369 0.23637 0.02443 0.0
H1235 H 0.56782 0.30394 0.99451 0.0
H1236 H 0.59909 0.18248 0.01161 0.0
H1237 H 0.6137 0.13195 0.03277 0.0
H1238 H 0.70903 0.18921 0.0513 0.0
H1239 H 0.6947 0.24037 0.03045 0.0
C1240 C 0.71424 0.30269 0.94066 0.0
C1241 C 0.72386 0.33959 0.94318 0.0
C1242 C 0.6951 0.28397 0.95437 0.0
C1243 C 0.6852 0.30203 0.97063 0.0
C1244 C 0.69793 0.33751 0.97394 0.0
C1245 C 0.71726 0.35612 0.96036 0.0
C1246 C 0.65601 0.28718 0.98239 0.0
C1247 C 0.66354 0.25857 0.9946 0.0
C1248 C 0.62085 0.30296 0.98199 0.0
C1249 C 0.61142 0.33266 0.96894 0.0
C1250 C 0.60117 0.36722 0.97559 0.0
C1251 C 0.59345 0.39556 0.96329 0.0
C1252 C 0.59576 0.38959 0.9443 0.0
C1253 C 0.60556 0.35519 0.93757 0.0
C1254 C 0.61319 0.32674 0.94982 0.0
C1255 C 0.55426 0.2581 0.0531 0.0
C1256 C 0.51836 0.24994 0.0477 0.0
C1257 C 0.58197 0.26064 0.03997 0.0
C1258 C 0.57423 0.25501 0.02125 0.0
C1259 C 0.53873 0.24547 0.01592 0.0
C1260 C 0.51105 0.24278 0.02903 0.0
C1261 C 0.60212 0.26316 0.00713 0.0
C1262 C 0.59442 0.29093 0.99444 0.0
C1263 C 0.63683 0.24616 0.00701 0.0
C1264 C 0.64565 0.21542 0.01955 0.0
C1265 C 0.62301 0.18445 0.0203 0.0
C1266 C 0.63127 0.15566 0.03222 0.0
C1267 C 0.66224 0.1574 0.0434 0.0
C1268 C 0.68504 0.18791 0.04264 0.0
C1269 C 0.67689 0.2168 0.03075 0.0
H1270 H 0.66859 0.13508 0.05262 0.0
H1271 H 0.5899 0.41159 0.9348 0.0
loop_
_geom_bond_atom_site_label_1
_geom_bond_atom_site_label_2
_geom_bond_distance
_geom_bond_site_symmetry_2
_ccdc_geom_bond_type
Co0 O3 1.970 . S
Co0 N17 1.989 . S
Co0 O25 1.967 . S
Co0 O32 1.920 . S
Co1 O4 1.966 . S
Co1 N10 2.022 . S
Co1 N18 1.993 . S
Co1 O26 1.941 . S
C2 O3 1.258 . S
C2 O4 1.263 . S
O3 Co0 1.970 . S
O3 C2 1.258 . S
O4 Co1 1.966 . S
O4 C2 1.263 . S
C5 O6 1.235 1_545 S
C5 O32 1.289 . S
O6 C5 1.235 1_565 S
C7 C9 1.400 . S
C7 N10 1.351 . S
C7 C12 1.501 . S
C8 C9 1.387 . S
C8 N11 1.341 . S
C9 C7 1.400 . S
C9 C8 1.387 . S
N10 Co1 2.022 . S
N10 C7 1.351 . S
N10 N11 1.365 . S
N11 C8 1.341 . S
N11 N10 1.365 . S
N11 H31 0.862 . S
C12 C7 1.501 . S
C12 H13 0.961 . S
C12 H14 0.961 . S
C12 H15 0.960 . S
H13 C12 0.961 . S
H14 C12 0.961 . S
H15 C12 0.960 . S
C16 N17 1.342 . S
C16 C20 1.401 . S
C16 C21 1.499 . S
N17 Co0 1.989 . S
N17 C16 1.342 . S
N17 N18 1.388 . S
N18 Co1 1.993 . S
N18 N17 1.388 . S
N18 C19 1.346 . S
C19 N18 1.346 . S
C19 C20 1.396 . S
C19 C29 1.510 . S
C20 C16 1.401 . S
C20 C19 1.396 . S
C21 C16 1.499 . S
C21 H22 0.959 . S
C21 H23 0.960 . S
C21 H24 0.961 . S
H22 C21 0.959 . S
H23 C21 0.960 . S
H24 C21 0.961 . S
O25 Co0 1.967 . S
O25 C33 1.258 . S
O26 Co1 1.941 . S
O26 C33 1.266 . S
H27 C29 0.959 . S
H28 C29 0.961 . S
C29 C19 1.510 . S
C29 H27 0.959 . S
C29 H28 0.961 . S
C29 H30 0.960 . S
H30 C29 0.960 . S
H31 N11 0.862 . S
O32 Co0 1.920 . S
O32 C5 1.289 . S
C33 O25 1.258 . S
C33 O26 1.266 . S
Co34 O37 1.970 . S
Co34 N51 1.989 . S
Co34 O59 1.967 . S
Co34 O66 1.920 . S
Co35 O38 1.966 . S
Co35 N44 2.022 . S
Co35 N52 1.993 . S
Co35 O60 1.941 . S
C36 O37 1.258 . S
C36 O38 1.263 . S
O37 Co34 1.970 . S
O37 C36 1.258 . S
O38 Co35 1.966 . S
O38 C36 1.263 . S
C39 O40 1.235 1_455 S
C39 O66 1.289 . S
O40 C39 1.235 1_655 S
C41 C43 1.400 . S
C41 N44 1.351 . S
C41 C46 1.501 . S
C42 C43 1.387 . S
C42 N45 1.341 . S
C43 C41 1.400 . S
C43 C42 1.387 . S
N44 Co35 2.022 . S
N44 C41 1.351 . S
N44 N45 1.365 . S
N45 C42 1.341 . S
N45 N44 1.365 . S
N45 H65 0.862 . S
C46 C41 1.501 . S
C46 H47 0.961 . S
C46 H48 0.961 . S
C46 H49 0.960 . S
H47 C46 0.961 . S
H48 C46 0.961 . S
H49 C46 0.960 . S
C50 N51 1.342 . S
C50 C54 1.401 . S
C50 C55 1.499 . S
N51 Co34 1.989 . S
N51 C50 1.342 . S
N51 N52 1.388 . S
N52 Co35 1.993 . S
N52 N51 1.388 . S
N52 C53 1.346 . S
C53 N52 1.346 . S
C53 C54 1.396 . S
C53 C63 1.510 . S
C54 C50 1.401 . S
C54 C53 1.396 . S
C55 C50 1.499 . S
C55 H56 0.959 . S
C55 H57 0.960 . S
C55 H58 0.961 . S
H56 C55 0.959 . S
H57 C55 0.960 . S
H58 C55 0.961 . S
O59 Co34 1.967 . S
O59 C67 1.258 . S
O60 Co35 1.941 . S
O60 C67 1.266 . S
H61 C63 0.959 . S
H62 C63 0.961 . S
C63 C53 1.510 . S
C63 H61 0.959 . S
C63 H62 0.961 . S
C63 H64 0.960 . S
H64 C63 0.960 . S
H65 N45 0.862 . S
O66 Co34 1.920 . S
O66 C39 1.289 . S
C67 O59 1.258 . S
C67 O60 1.266 . S
Co68 O71 1.970 . S
Co68 N85 1.989 . S
Co68 O93 1.967 . S
Co68 O100 1.920 . S
Co69 O72 1.966 . S
Co69 N78 2.022 . S
Co69 N86 1.993 . S
Co69 O94 1.941 . S
C70 O71 1.258 . S
C70 O72 1.263 . S
O71 Co68 1.970 . S
O71 C70 1.258 . S
O72 Co69 1.966 . S
O72 C70 1.263 . S
C73 O74 1.235 1_565 S
C73 O100 1.289 . S
O74 C73 1.235 1_545 S
C75 C77 1.400 . S
C75 N78 1.351 . S
C75 C80 1.501 . S
C76 C77 1.387 . S
C76 N79 1.341 . S
C77 C75 1.400 . S
C77 C76 1.387 . S
N78 Co69 2.022 . S
N78 C75 1.351 . S
N78 N79 1.365 . S
N79 C76 1.341 . S
N79 N78 1.365 . S
N79 H99 0.862 . S
C80 C75 1.501 . S
C80 H81 0.961 . S
C80 H82 0.961 . S
C80 H83 0.960 . S
H81 C80 0.961 . S
H82 C80 0.961 . S
H83 C80 0.960 . S
C84 N85 1.342 . S
C84 C88 1.401 . S
C84 C89 1.499 . S
N85 Co68 1.989 . S
N85 C84 1.342 . S
N85 N86 1.388 . S
N86 Co69 1.993 . S
N86 N85 1.388 . S
N86 C87 1.346 . S
C87 N86 1.346 . S
C87 C88 1.396 . S
C87 C97 1.510 . S
C88 C84 1.401 . S
C88 C87 1.396 . S
C89 C84 1.499 . S
C89 H90 0.959 . S
C89 H91 0.960 . S
C89 H92 0.961 . S
H90 C89 0.959 . S
H91 C89 0.960 . S
H92 C89 0.961 . S
O93 Co68 1.967 . S
O93 C101 1.258 . S
O94 Co69 1.941 . S
O94 C101 1.266 . S
H95 C97 0.959 . S
H96 C97 0.961 . S
C97 C87 1.510 . S
C97 H95 0.959 . S
C97 H96 0.961 . S
C97 H98 0.960 . S
H98 C97 0.960 . S
H99 N79 0.862 . S
O100 Co68 1.920 . S
O100 C73 1.289 . S
C101 O93 1.258 . S
C101 O94 1.266 . S
Co102 O105 1.970 . S
Co102 N119 1.989 . S
Co102 O127 1.967 . S
Co102 O134 1.920 . S
Co103 O106 1.966 . S
Co103 N112 2.022 . S
Co103 N120 1.993 . S
Co103 O128 1.941 . S
C104 O105 1.258 . S
C104 O106 1.263 . S
O105 Co102 1.970 . S
O105 C104 1.258 . S
O106 Co103 1.966 . S
O106 C104 1.263 . S
C107 O108 1.235 1_655 S
C107 O134 1.289 . S
O108 C107 1.235 1_455 S
C109 C111 1.400 . S
C109 N112 1.351 . S
C109 C114 1.501 . S
C110 C111 1.387 . S
C110 N113 1.341 . S
C111 C109 1.400 . S
C111 C110 1.387 . S
N112 Co103 2.022 . S
N112 C109 1.351 . S
N112 N113 1.365 . S
N113 C110 1.341 . S
N113 N112 1.365 . S
N113 H133 0.862 . S
C114 C109 1.501 . S
C114 H115 0.961 . S
C114 H116 0.961 . S
C114 H117 0.960 . S
H115 C114 0.961 . S
H116 C114 0.961 . S
H117 C114 0.960 . S
C118 N119 1.342 . S
C118 C122 1.401 . S
C118 C123 1.499 . S
N119 Co102 1.989 . S
N119 C118 1.342 . S
N119 N120 1.388 . S
N120 Co103 1.993 . S
N120 N119 1.388 . S
N120 C121 1.346 . S
C121 N120 1.346 . S
C121 C122 1.396 . S
C121 C131 1.510 . S
C122 C118 1.401 . S
C122 C121 1.396 . S
C123 C118 1.499 . S
C123 H124 0.959 . S
C123 H125 0.960 . S
C123 H126 0.961 . S
H124 C123 0.959 . S
H125 C123 0.960 . S
H126 C123 0.961 . S
O127 Co102 1.967 . S
O127 C135 1.258 . S
O128 Co103 1.941 . S
O128 C135 1.266 . S
H129 C131 0.959 . S
H130 C131 0.961 . S
C131 C121 1.510 . S
C131 H129 0.959 . S
C131 H130 0.961 . S
C131 H132 0.960 . S
H132 C131 0.960 . S
H133 N113 0.862 . S
O134 Co102 1.920 . S
O134 C107 1.289 . S
C135 O127 1.258 . S
C135 O128 1.266 . S
Co136 O139 1.970 . S
Co136 N153 1.989 . S
Co136 O161 1.967 . S
Co136 O168 1.920 . S
Co137 O140 1.966 . S
Co137 N146 2.022 . S
Co137 N154 1.993 . S
Co137 O162 1.941 . S
C138 O139 1.258 . S
C138 O140 1.263 . S
O139 Co136 1.970 . S
O139 C138 1.258 . S
O140 Co137 1.966 . S
O140 C138 1.263 . S
C141 O142 1.235 . S
C141 O168 1.289 . S
O142 C141 1.235 . S
C143 C145 1.400 . S
C143 N146 1.351 . S
C143 C148 1.501 . S
C144 C145 1.387 . S
C144 N147 1.341 . S
C145 C143 1.400 . S
C145 C144 1.387 . S
N146 Co137 2.022 . S
N146 C143 1.351 . S
N146 N147 1.365 . S
N147 C144 1.341 . S
N147 N146 1.365 . S
N147 H167 0.862 . S
C148 C143 1.501 . S
C148 H149 0.961 . S
C148 H150 0.961 . S
C148 H151 0.960 . S
H149 C148 0.961 . S
H150 C148 0.961 . S
H151 C148 0.960 . S
C152 N153 1.342 . S
C152 C156 1.401 . S
C152 C157 1.499 . S
N153 Co136 1.989 . S
N153 C152 1.342 . S
N153 N154 1.388 . S
N154 Co137 1.993 . S
N154 N153 1.388 . S
N154 C155 1.346 . S
C155 N154 1.346 . S
C155 C156 1.396 . S
C155 C165 1.510 . S
C156 C152 1.401 . S
C156 C155 1.396 . S
C157 C152 1.499 . S
C157 H158 0.959 . S
C157 H159 0.960 . S
C157 H160 0.961 . S
H158 C157 0.959 . S
H159 C157 0.960 . S
H160 C157 0.961 . S
O161 Co136 1.967 . S
O161 C169 1.258 . S
O162 Co137 1.941 . S
O162 C169 1.266 . S
H163 C165 0.959 . S
H164 C165 0.961 . S
C165 C155 1.510 . S
C165 H163 0.959 . S
C165 H164 0.961 . S
C165 H166 0.960 . S
H166 C165 0.960 . S
H167 N147 0.862 . S
O168 Co136 1.920 . S
O168 C141 1.289 . S
C169 O161 1.258 . S
C169 O162 1.266 . S
Co170 O173 1.970 . S
Co170 N187 1.989 . S
Co170 O195 1.967 . S
Co170 O202 1.920 . S
Co171 O174 1.966 . S
Co171 N180 2.022 . S
Co171 N188 1.993 . S
Co171 O196 1.941 . S
C172 O173 1.258 . S
C172 O174 1.263 . S
O173 Co170 1.970 . S
O173 C172 1.258 . S
O174 Co171 1.966 . S
O174 C172 1.263 . S
C175 O176 1.235 . S
C175 O202 1.289 . S
O176 C175 1.235 . S
C177 C179 1.400 . S
C177 N180 1.351 . S
C177 C182 1.501 . S
C178 C179 1.387 . S
C178 N181 1.341 . S
C179 C177 1.400 . S
C179 C178 1.387 . S
N180 Co171 2.022 . S
N180 C177 1.351 . S
N180 N181 1.365 . S
N181 C178 1.341 . S
N181 N180 1.365 . S
N181 H201 0.862 . S
C182 C177 1.501 . S
C182 H183 0.961 . S
C182 H184 0.961 . S
C182 H185 0.960 . S
H183 C182 0.961 . S
H184 C182 0.961 . S
H185 C182 0.960 . S
C186 N187 1.342 . S
C186 C190 1.401 . S
C186 C191 1.499 . S
N187 Co170 1.989 . S
N187 C186 1.342 . S
N187 N188 1.388 . S
N188 Co171 1.993 . S
N188 N187 1.388 . S
N188 C189 1.346 . S
C189 N188 1.346 . S
C189 C190 1.396 . S
C189 C199 1.510 . S
C190 C186 1.401 . S
C190 C189 1.396 . S
C191 C186 1.499 . S
C191 H192 0.959 . S
C191 H193 0.960 . S
C191 H194 0.961 . S
H192 C191 0.959 . S
H193 C191 0.960 . S
H194 C191 0.961 . S
O195 Co170 1.967 . S
O195 C203 1.258 . S
O196 Co171 1.941 . S
O196 C203 1.266 . S
H197 C199 0.959 . S
H198 C199 0.961 . S
C199 C189 1.510 . S
C199 H197 0.959 . S
C199 H198 0.961 . S
C199 H200 0.960 . S
H200 C199 0.960 . S
H201 N181 0.862 . S
O202 Co170 1.920 . S
O202 C175 1.289 . S
C203 O195 1.258 . S
C203 O196 1.266 . S
Co204 O207 1.970 . S
Co204 N221 1.989 . S
Co204 O229 1.967 . S
Co204 O236 1.920 . S
Co205 O208 1.966 . S
Co205 N214 2.022 . S
Co205 N222 1.993 . S
Co205 O230 1.941 . S
C206 O207 1.258 . S
C206 O208 1.263 . S
O207 Co204 1.970 . S
O207 C206 1.258 . S
O208 Co205 1.966 . S
O208 C206 1.263 . S
C209 O210 1.235 . S
C209 O236 1.289 . S
O210 C209 1.235 . S
C211 C213 1.400 . S
C211 N214 1.351 . S
C211 C216 1.501 . S
C212 C213 1.387 . S
C212 N215 1.341 . S
C213 C211 1.400 . S
C213 C212 1.387 . S
N214 Co205 2.022 . S
N214 C211 1.351 . S
N214 N215 1.365 . S
N215 C212 1.341 . S
N215 N214 1.365 . S
N215 H235 0.862 . S
C216 C211 1.501 . S
C216 H217 0.961 . S
C216 H218 0.961 . S
C216 H219 0.960 . S
H217 C216 0.961 . S
H218 C216 0.961 . S
H219 C216 0.960 . S
C220 N221 1.342 . S
C220 C224 1.401 . S
C220 C225 1.499 . S
N221 Co204 1.989 . S
N221 C220 1.342 . S
N221 N222 1.388 . S
N222 Co205 1.993 . S
N222 N221 1.388 . S
N222 C223 1.346 . S
C223 N222 1.346 . S
C223 C224 1.396 . S
C223 C233 1.510 . S
C224 C220 1.401 . S
C224 C223 1.396 . S
C225 C220 1.499 . S
C225 H226 0.959 . S
C225 H227 0.960 . S
C225 H228 0.961 . S
H226 C225 0.959 . S
H227 C225 0.960 . S
H228 C225 0.961 . S
O229 Co204 1.967 . S
O229 C237 1.258 . S
O230 Co205 1.941 . S
O230 C237 1.266 . S
H231 C233 0.959 . S
H232 C233 0.961 . S
C233 C223 1.510 . S
C233 H231 0.959 . S
C233 H232 0.961 . S
C233 H234 0.960 . S
H234 C233 0.960 . S
H235 N215 0.862 . S
O236 Co204 1.920 . S
O236 C209 1.289 . S
C237 O229 1.258 . S
C237 O230 1.266 . S
Co238 O241 1.970 . S
Co238 N255 1.989 . S
Co238 O263 1.967 . S
Co238 O270 1.920 . S
Co239 O242 1.966 . S
Co239 N248 2.022 . S
Co239 N256 1.993 . S
Co239 O264 1.941 . S
C240 O241 1.258 . S
C240 O242 1.263 . S
O241 Co238 1.970 . S
O241 C240 1.258 . S
O242 Co239 1.966 . S
O242 C240 1.263 . S
C243 O244 1.235 . S
C243 O270 1.289 . S
O244 C243 1.235 . S
C245 C247 1.400 . S
C245 N248 1.351 . S
C245 C250 1.501 . S
C246 C247 1.387 . S
C246 N249 1.341 . S
C247 C245 1.400 . S
C247 C246 1.387 . S
N248 Co239 2.022 . S
N248 C245 1.351 . S
N248 N249 1.365 . S
N249 C246 1.341 . S
N249 N248 1.365 . S
N249 H269 0.862 . S
C250 C245 1.501 . S
C250 H251 0.961 . S
C250 H252 0.961 . S
C250 H253 0.960 . S
H251 C250 0.961 . S
H252 C250 0.961 . S
H253 C250 0.960 . S
C254 N255 1.342 . S
C254 C258 1.401 . S
C254 C259 1.499 . S
N255 Co238 1.989 . S
N255 C254 1.342 . S
N255 N256 1.388 . S
N256 Co239 1.993 . S
N256 N255 1.388 . S
N256 C257 1.346 . S
C257 N256 1.346 . S
C257 C258 1.396 . S
C257 C267 1.510 . S
C258 C254 1.401 . S
C258 C257 1.396 . S
C259 C254 1.499 . S
C259 H260 0.959 . S
C259 H261 0.960 . S
C259 H262 0.961 . S
H260 C259 0.959 . S
H261 C259 0.960 . S
H262 C259 0.961 . S
O263 Co238 1.967 . S
O263 C271 1.258 . S
O264 Co239 1.941 . S
O264 C271 1.266 . S
H265 C267 0.959 . S
H266 C267 0.961 . S
C267 C257 1.510 . S
C267 H265 0.959 . S
C267 H266 0.961 . S
C267 H268 0.960 . S
H268 C267 0.960 . S
H269 N249 0.862 . S
O270 Co238 1.920 . S
O270 C243 1.289 . S
C271 O263 1.258 . S
C271 O264 1.266 . S
H272 C290 0.951 . S
H273 C292 0.951 . S
H274 C294 0.950 1_545 S
H275 C295 0.950 . S
H276 C297 0.950 . S
H277 C300 0.950 1_545 S
H278 C301 0.950 . S
H279 C303 0.950 . S
H280 C304 0.950 . S
H281 C305 0.951 . S
H282 C307 0.951 . S
H283 C309 0.950 1_565 S
H284 C310 0.950 . S
H285 C312 0.950 . S
H286 C315 0.950 1_565 S
H287 C316 0.950 . S
H288 C318 0.950 . S
H289 C319 0.950 . S
C290 H272 0.951 . S
C290 C291 1.366 . S
C290 C292 1.388 . S
C291 C290 1.366 . S
C291 C295 1.385 . S
C292 H273 0.951 . S
C292 C290 1.388 . S
C292 C293 1.366 . S
C293 C292 1.366 . S
C293 C294 1.414 . S
C293 C296 1.499 . S
C294 H274 0.950 1_565 S
C294 C293 1.414 . S
C294 C295 1.374 . S
C295 H275 0.950 . S
C295 C291 1.385 . S
C295 C294 1.374 . S
C296 C293 1.499 . S
C296 C297 1.373 1_565 S
C296 C298 1.389 . S
C297 H276 0.950 . S
C297 C296 1.373 1_545 S
C297 C313 1.377 . S
C298 C296 1.389 . S
C298 C299 1.524 . S
C298 C312 1.377 . S
C299 C298 1.524 . S
C299 C300 1.397 . S
C299 C304 1.363 . S
C300 H277 0.950 1_565 S
C300 C299 1.397 . S
C300 C301 1.334 . S
C301 H278 0.950 . S
C301 C300 1.334 . S
C301 C302 1.287 . S
C302 C301 1.287 . S
C302 C303 1.524 . S
C302 H321 0.913 . S
C303 H279 0.950 . S
C303 C302 1.524 . S
C303 C304 1.415 . S
C304 H280 0.950 . S
C304 C299 1.363 . S
C304 C303 1.415 . S
C305 H281 0.951 . S
C305 C306 1.366 . S
C305 C307 1.388 . S
C306 C305 1.366 . S
C306 C310 1.385 . S
C307 H282 0.951 . S
C307 C305 1.388 . S
C307 C308 1.366 . S
C308 C307 1.366 . S
C308 C309 1.414 . S
C308 C311 1.499 . S
C309 H283 0.950 1_545 S
C309 C308 1.414 . S
C309 C310 1.374 . S
C310 H284 0.950 . S
C310 C306 1.385 . S
C310 C309 1.374 . S
C311 C308 1.499 . S
C311 C312 1.373 1_545 S
C311 C313 1.389 . S
C312 H285 0.950 . S
C312 C298 1.377 . S
C312 C311 1.373 1_565 S
C313 C297 1.377 . S
C313 C311 1.389 . S
C313 C314 1.524 . S
C314 C313 1.524 . S
C314 C315 1.397 . S
C314 C319 1.363 . S
C315 H286 0.950 1_545 S
C315 C314 1.397 . S
C315 C316 1.334 . S
C316 H287 0.950 . S
C316 C315 1.334 . S
C316 C317 1.287 . S
C317 C316 1.287 . S
C317 C318 1.524 . S
C317 H320 0.999 . S
C318 H288 0.950 . S
C318 C317 1.524 . S
C318 C319 1.415 . S
C319 H289 0.950 . S
C319 C314 1.363 . S
C319 C318 1.415 . S
H320 C317 0.999 . S
H321 C302 0.913 . S
H322 C340 0.951 . S
H323 C342 0.951 . S
H324 C344 0.950 1_455 S
H325 C345 0.950 . S
H326 C347 0.950 . S
H327 C350 0.950 . S
H328 C351 0.950 . S
H329 C353 0.950 . S
H330 C354 0.950 . S
H331 C355 0.951 . S
H332 C357 0.951 . S
H333 C359 0.950 1_655 S
H334 C360 0.950 . S
H335 C362 0.950 . S
H336 C365 0.950 . S
H337 C366 0.950 . S
H338 C368 0.950 . S
H339 C369 0.950 . S
C340 H322 0.951 . S
C340 C341 1.366 . S
C340 C342 1.388 . S
C341 C340 1.366 . S
C341 C345 1.385 . S
C342 H323 0.951 . S
C342 C340 1.388 . S
C342 C343 1.366 . S
C343 C342 1.366 . S
C343 C344 1.414 . S
C343 C346 1.499 . S
C344 H324 0.950 1_655 S
C344 C343 1.414 . S
C344 C345 1.374 . S
C345 H325 0.950 . S
C345 C341 1.385 . S
C345 C344 1.374 . S
C346 C343 1.499 . S
C346 C347 1.373 1_655 S
C346 C348 1.389 . S
C347 H326 0.950 . S
C347 C346 1.373 1_455 S
C347 C363 1.377 . S
C348 C346 1.389 . S
C348 C349 1.524 . S
C348 C362 1.377 . S
C349 C348 1.524 . S
C349 C350 1.397 . S
C349 C354 1.363 . S
C350 H327 0.950 . S
C350 C349 1.397 . S
C350 C351 1.334 . S
C351 H328 0.950 . S
C351 C350 1.334 . S
C351 C352 1.287 . S
C352 C351 1.287 . S
C352 C353 1.524 . S
C352 H371 0.913 . S
C353 H329 0.950 . S
C353 C352 1.524 . S
C353 C354 1.415 . S
C354 H330 0.950 . S
C354 C349 1.363 . S
C354 C353 1.415 . S
C355 H331 0.951 . S
C355 C356 1.366 . S
C355 C357 1.388 . S
C356 C355 1.366 . S
C356 C360 1.385 . S
C357 H332 0.951 . S
C357 C355 1.388 . S
C357 C358 1.366 . S
C358 C357 1.366 . S
C358 C359 1.414 . S
C358 C361 1.499 . S
C359 H333 0.950 1_455 S
C359 C358 1.414 . S
C359 C360 1.374 . S
C360 H334 0.950 . S
C360 C356 1.385 . S
C360 C359 1.374 . S
C361 C358 1.499 . S
C361 C362 1.373 1_455 S
C361 C363 1.389 . S
C362 H335 0.950 . S
C362 C348 1.377 . S
C362 C361 1.373 1_655 S
C363 C347 1.377 . S
C363 C361 1.389 . S
C363 C364 1.524 . S
C364 C363 1.524 . S
C364 C365 1.397 . S
C364 C369 1.363 . S
C365 H336 0.950 . S
C365 C364 1.397 . S
C365 C366 1.334 . S
C366 H337 0.950 . S
C366 C365 1.334 . S
C366 C367 1.287 . S
C367 C366 1.287 . S
C367 C368 1.524 . S
C367 H370 0.999 . S
C368 H338 0.950 . S
C368 C367 1.524 . S
C368 C369 1.415 . S
C369 H339 0.950 . S
C369 C364 1.363 . S
C369 C368 1.415 . S
H370 C367 0.999 . S
H371 C352 0.913 . S
H372 C390 0.951 . S
H373 C392 0.951 . S
H374 C394 0.950 . S
H375 C395 0.950 . S
H376 C397 0.950 . S
H377 C400 0.950 . S
H378 C401 0.950 . S
H379 C403 0.950 . S
H380 C404 0.950 . S
H381 C405 0.951 . S
H382 C407 0.951 . S
H383 C409 0.950 . S
H384 C410 0.950 . S
H385 C412 0.950 . S
H386 C415 0.950 . S
H387 C416 0.950 . S
H388 C418 0.950 . S
H389 C419 0.950 . S
C390 H372 0.951 . S
C390 C391 1.366 . S
C390 C392 1.388 . S
C391 C390 1.366 . S
C391 C395 1.385 . S
C392 H373 0.951 . S
C392 C390 1.388 . S
C392 C393 1.366 . S
C393 C392 1.366 . S
C393 C394 1.414 . S
C393 C396 1.499 . S
C394 H374 0.950 . S
C394 C393 1.414 . S
C394 C395 1.374 . S
C395 H375 0.950 . S
C395 C391 1.385 . S
C395 C394 1.374 . S
C396 C393 1.499 . S
C396 C397 1.373 . S
C396 C398 1.389 . S
C397 H376 0.950 . S
C397 C396 1.373 . S
C397 C413 1.377 1_655 S
C398 C396 1.389 . S
C398 C399 1.524 . S
C398 C412 1.377 1_655 S
C399 C398 1.524 . S
C399 C400 1.397 . S
C399 C404 1.363 1_655 S
C400 H377 0.950 . S
C400 C399 1.397 . S
C400 C401 1.334 . S
C401 H378 0.950 . S
C401 C400 1.334 . S
C401 C402 1.287 . S
C402 C401 1.287 . S
C402 C403 1.524 1_655 S
C402 H421 0.913 . S
C403 H379 0.950 . S
C403 C402 1.524 1_455 S
C403 C404 1.415 . S
C404 H380 0.950 . S
C404 C399 1.363 1_455 S
C404 C403 1.415 . S
C405 H381 0.951 . S
C405 C406 1.366 . S
C405 C407 1.388 . S
C406 C405 1.366 . S
C406 C410 1.385 . S
C407 H382 0.951 . S
C407 C405 1.388 . S
C407 C408 1.366 . S
C408 C407 1.366 . S
C408 C409 1.414 . S
C408 C411 1.499 . S
C409 H383 0.950 . S
C409 C408 1.414 . S
C409 C410 1.374 . S
C410 H384 0.950 . S
C410 C406 1.385 . S
C410 C409 1.374 . S
C411 C408 1.499 . S
C411 C412 1.373 . S
C411 C413 1.389 . S
C412 H385 0.950 . S
C412 C398 1.377 1_455 S
C412 C411 1.373 . S
C413 C397 1.377 1_455 S
C413 C411 1.389 . S
C413 C414 1.524 . S
C414 C413 1.524 . S
C414 C415 1.397 . S
C414 C419 1.363 1_455 S
C415 H386 0.950 . S
C415 C414 1.397 . S
C415 C416 1.334 . S
C416 H387 0.950 . S
C416 C415 1.334 . S
C416 C417 1.287 . S
C417 C416 1.287 . S
C417 C418 1.524 1_455 S
C417 H420 0.999 . S
C418 H388 0.950 . S
C418 C417 1.524 1_655 S
C418 C419 1.415 . S
C419 H389 0.950 . S
C419 C414 1.363 1_655 S
C419 C418 1.415 . S
H420 C417 0.999 . S
H421 C402 0.913 . S
H422 C440 0.951 . S
H423 C442 0.951 . S
H424 C444 0.950 . S
H425 C445 0.950 . S
H426 C447 0.950 . S
H427 C450 0.950 . S
H428 C451 0.950 . S
H429 C453 0.950 . S
H430 C454 0.950 . S
H431 C455 0.951 . S
H432 C457 0.951 . S
H433 C459 0.950 . S
H434 C460 0.950 . S
H435 C462 0.950 . S
H436 C465 0.950 . S
H437 C466 0.950 . S
H438 C468 0.950 . S
H439 C469 0.950 . S
C440 H422 0.951 . S
C440 C441 1.366 . S
C440 C442 1.388 . S
C441 C440 1.366 . S
C441 C445 1.385 . S
C442 H423 0.951 . S
C442 C440 1.388 . S
C442 C443 1.366 . S
C443 C442 1.366 . S
C443 C444 1.414 . S
C443 C446 1.499 . S
C444 H424 0.950 . S
C444 C443 1.414 . S
C444 C445 1.374 . S
C445 H425 0.950 . S
C445 C441 1.385 . S
C445 C444 1.374 . S
C446 C443 1.499 . S
C446 C447 1.373 . S
C446 C448 1.389 . S
C447 H426 0.950 . S
C447 C446 1.373 . S
C447 C463 1.377 1_545 S
C448 C446 1.389 . S
C448 C449 1.524 . S
C448 C462 1.377 1_545 S
C449 C448 1.524 . S
C449 C450 1.397 . S
C449 C454 1.363 1_545 S
C450 H427 0.950 . S
C450 C449 1.397 . S
C450 C451 1.334 . S
C451 H428 0.950 . S
C451 C450 1.334 . S
C451 C452 1.287 . S
C452 C451 1.287 . S
C452 C453 1.524 1_545 S
C452 H471 0.913 . S
C453 H429 0.950 . S
C453 C452 1.524 1_565 S
C453 C454 1.415 . S
C454 H430 0.950 . S
C454 C449 1.363 1_565 S
C454 C453 1.415 . S
C455 H431 0.951 . S
C455 C456 1.366 . S
C455 C457 1.388 . S
C456 C455 1.366 . S
C456 C460 1.385 . S
C457 H432 0.951 . S
C457 C455 1.388 . S
C457 C458 1.366 . S
C458 C457 1.366 . S
C458 C459 1.414 . S
C458 C461 1.499 . S
C459 H433 0.950 . S
C459 C458 1.414 . S
C459 C460 1.374 . S
C460 H434 0.950 . S
C460 C456 1.385 . S
C460 C459 1.374 . S
C461 C458 1.499 . S
C461 C462 1.373 . S
C461 C463 1.389 . S
C462 H435 0.950 . S
C462 C448 1.377 1_565 S
C462 C461 1.373 . S
C463 C447 1.377 1_565 S
C463 C461 1.389 . S
C463 C464 1.524 . S
C464 C463 1.524 . S
C464 C465 1.397 . S
C464 C469 1.363 1_565 S
C465 H436 0.950 . S
C465 C464 1.397 . S
C465 C466 1.334 . S
C466 H437 0.950 . S
C466 C465 1.334 . S
C466 C467 1.287 . S
C467 C466 1.287 . S
C467 C468 1.524 1_565 S
C467 H470 0.999 . S
C468 H438 0.950 . S
C468 C467 1.524 1_545 S
C468 C469 1.415 . S
C469 H439 0.950 . S
C469 C464 1.363 1_545 S
C469 C468 1.415 . S
H470 C467 0.999 . S
H471 C452 0.913 . S
H472 C490 0.951 . S
H473 C492 0.951 . S
H474 C494 0.950 . S
H475 C495 0.950 . S
H476 C497 0.950 . S
H477 C500 0.950 . S
H478 C501 0.950 . S
H479 C503 0.950 . S
H480 C504 0.950 . S
H481 C505 0.951 . S
H482 C507 0.951 . S
H483 C509 0.950 . S
H484 C510 0.950 . S
H485 C512 0.950 . S
H486 C515 0.950 . S
H487 C516 0.950 . S
H488 C518 0.950 . S
H489 C519 0.950 . S
C490 H472 0.951 . S
C490 C491 1.366 . S
C490 C492 1.388 . S
C491 C490 1.366 . S
C491 C495 1.385 . S
C492 H473 0.951 . S
C492 C490 1.388 . S
C492 C493 1.366 . S
C493 C492 1.366 . S
C493 C494 1.414 . S
C493 C496 1.499 . S
C494 H474 0.950 . S
C494 C493 1.414 . S
C494 C495 1.374 . S
C495 H475 0.950 . S
C495 C491 1.385 . S
C495 C494 1.374 . S
C496 C493 1.499 . S
C496 C497 1.373 1_545 S
C496 C498 1.389 . S
C497 H476 0.950 . S
C497 C496 1.373 1_565 S
C497 C513 1.377 1_455 S
C498 C496 1.389 . S
C498 C499 1.524 . S
C498 C512 1.377 1_455 S
C499 C498 1.524 . S
C499 C500 1.397 . S
C499 C504 1.363 1_455 S
C500 H477 0.950 . S
C500 C499 1.397 . S
C500 C501 1.334 . S
C501 H478 0.950 . S
C501 C500 1.334 . S
C501 C502 1.287 . S
C502 C501 1.287 . S
C502 C503 1.524 1_455 S
C502 H521 0.913 . S
C503 H479 0.950 . S
C503 C502 1.524 1_655 S
C503 C504 1.415 . S
C504 H480 0.950 . S
C504 C499 1.363 1_655 S
C504 C503 1.415 . S
C505 H481 0.951 . S
C505 C506 1.366 . S
C505 C507 1.388 . S
C506 C505 1.366 . S
C506 C510 1.385 . S
C507 H482 0.951 . S
C507 C505 1.388 . S
C507 C508 1.366 . S
C508 C507 1.366 . S
C508 C509 1.414 . S
C508 C511 1.499 . S
C509 H483 0.950 . S
C509 C508 1.414 . S
C509 C510 1.374 . S
C510 H484 0.950 . S
C510 C506 1.385 . S
C510 C509 1.374 . S
C511 C508 1.499 . S
C511 C512 1.373 1_565 S
C511 C513 1.389 . S
C512 H485 0.950 . S
C512 C498 1.377 1_655 S
C512 C511 1.373 1_545 S
C513 C497 1.377 1_655 S
C513 C511 1.389 . S
C513 C514 1.524 . S
C514 C513 1.524 . S
C514 C515 1.397 . S
C514 C519 1.363 1_655 S
C515 H486 0.950 . S
C515 C514 1.397 . S
C515 C516 1.334 . S
C516 H487 0.950 . S
C516 C515 1.334 . S
C516 C517 1.287 . S
C517 C516 1.287 . S
C517 C518 1.524 1_655 S
C517 H520 0.999 . S
C518 H488 0.950 . S
C518 C517 1.524 1_455 S
C518 C519 1.415 . S
C519 H489 0.950 . S
C519 C514 1.363 1_455 S
C519 C518 1.415 . S
H520 C517 0.999 . S
H521 C502 0.913 . S
H522 C540 0.951 . S
H523 C542 0.951 1_455 S
H524 C544 0.950 . S
H525 C545 0.950 . S
H526 C547 0.950 . S
H527 C550 0.950 . S
H528 C551 0.950 . S
H529 C553 0.950 . S
H530 C554 0.950 . S
H531 C555 0.951 . S
H532 C557 0.951 1_655 S
H533 C559 0.950 . S
H534 C560 0.950 . S
H535 C562 0.950 . S
H536 C565 0.950 . S
H537 C566 0.950 . S
H538 C568 0.950 . S
H539 C569 0.950 . S
C540 H522 0.951 . S
C540 C541 1.366 . S
C540 C542 1.388 . S
C541 C540 1.366 . S
C541 C545 1.385 . S
C542 H523 0.951 1_655 S
C542 C540 1.388 . S
C542 C543 1.366 . S
C543 C542 1.366 . S
C543 C544 1.414 . S
C543 C546 1.499 . S
C544 H524 0.950 . S
C544 C543 1.414 . S
C544 C545 1.374 . S
C545 H525 0.950 . S
C545 C541 1.385 . S
C545 C544 1.374 . S
C546 C543 1.499 . S
C546 C547 1.373 . S
C546 C548 1.389 1_655 S
C547 H526 0.950 . S
C547 C546 1.373 . S
C547 C563 1.377 1_545 S
C548 C546 1.389 1_455 S
C548 C549 1.524 . S
C548 C562 1.377 1_545 S
C549 C548 1.524 . S
C549 C550 1.397 . S
C549 C554 1.363 . S
C550 H527 0.950 . S
C550 C549 1.397 . S
C550 C551 1.334 . S
C551 H528 0.950 . S
C551 C550 1.334 . S
C551 C552 1.287 . S
C552 C551 1.287 . S
C552 C553 1.524 . S
C552 H571 0.913 . S
C553 H529 0.950 . S
C553 C552 1.524 . S
C553 C554 1.415 . S
C554 H530 0.950 . S
C554 C549 1.363 . S
C554 C553 1.415 . S
C555 H531 0.951 . S
C555 C556 1.366 . S
C555 C557 1.388 . S
C556 C555 1.366 . S
C556 C560 1.385 . S
C557 H532 0.951 1_455 S
C557 C555 1.388 . S
C557 C558 1.366 . S
C558 C557 1.366 . S
C558 C559 1.414 . S
C558 C561 1.499 . S
C559 H533 0.950 . S
C559 C558 1.414 . S
C559 C560 1.374 . S
C560 H534 0.950 . S
C560 C556 1.385 . S
C560 C559 1.374 . S
C561 C558 1.499 . S
C561 C562 1.373 . S
C561 C563 1.389 1_455 S
C562 H535 0.950 . S
C562 C548 1.377 1_565 S
C562 C561 1.373 . S
C563 C547 1.377 1_565 S
C563 C561 1.389 1_655 S
C563 C564 1.524 . S
C564 C563 1.524 . S
C564 C565 1.397 . S
C564 C569 1.363 . S
C565 H536 0.950 . S
C565 C564 1.397 . S
C565 C566 1.334 . S
C566 H537 0.950 . S
C566 C565 1.334 . S
C566 C567 1.287 . S
C567 C566 1.287 . S
C567 C568 1.524 . S
C567 H570 0.999 . S
C568 H538 0.950 . S
C568 C567 1.524 . S
C568 C569 1.415 . S
C569 H539 0.950 . S
C569 C564 1.363 . S
C569 C568 1.415 . S
H570 C567 0.999 . S
H571 C552 0.913 . S
H572 C590 0.951 . S
H573 C592 0.951 . S
H574 C594 0.950 . S
H575 C595 0.950 . S
H576 C597 0.950 . S
H577 C600 0.950 . S
H578 C601 0.950 . S
H579 C603 0.950 . S
H580 C604 0.950 . S
H581 C605 0.951 . S
H582 C607 0.951 . S
H583 C609 0.950 . S
H584 C610 0.950 . S
H585 C612 0.950 . S
H586 C615 0.950 . S
H587 C616 0.950 . S
H588 C618 0.950 . S
H589 C619 0.950 . S
C590 H572 0.951 . S
C590 C591 1.366 . S
C590 C592 1.388 . S
C591 C590 1.366 . S
C591 C595 1.385 . S
C592 H573 0.951 . S
C592 C590 1.388 . S
C592 C593 1.366 . S
C593 C592 1.366 . S
C593 C594 1.414 . S
C593 C596 1.499 . S
C594 H574 0.950 . S
C594 C593 1.414 . S
C594 C595 1.374 . S
C595 H575 0.950 . S
C595 C591 1.385 . S
C595 C594 1.374 . S
C596 C593 1.499 . S
C596 C597 1.373 . S
C596 C598 1.389 . S
C597 H576 0.950 . S
C597 C596 1.373 . S
C597 C613 1.377 . S
C598 C596 1.389 . S
C598 C599 1.524 . S
C598 C612 1.377 . S
C599 C598 1.524 . S
C599 C600 1.397 . S
C599 C604 1.363 . S
C600 H577 0.950 . S
C600 C599 1.397 . S
C600 C601 1.334 . S
C601 H578 0.950 . S
C601 C600 1.334 . S
C601 C602 1.287 . S
C602 C601 1.287 . S
C602 C603 1.524 . S
C602 H621 0.913 . S
C603 H579 0.950 . S
C603 C602 1.524 . S
C603 C604 1.415 . S
C604 H580 0.950 . S
C604 C599 1.363 . S
C604 C603 1.415 . S
C605 H581 0.951 . S
C605 C606 1.366 . S
C605 C607 1.388 . S
C606 C605 1.366 . S
C606 C610 1.385 . S
C607 H582 0.951 . S
C607 C605 1.388 . S
C607 C608 1.366 . S
C608 C607 1.366 . S
C608 C609 1.414 . S
C608 C611 1.499 . S
C609 H583 0.950 . S
C609 C608 1.414 . S
C609 C610 1.374 . S
C610 H584 0.950 . S
C610 C606 1.385 . S
C610 C609 1.374 . S
C611 C608 1.499 . S
C611 C612 1.373 . S
C611 C613 1.389 . S
C612 H585 0.950 . S
C612 C598 1.377 . S
C612 C611 1.373 . S
C613 C597 1.377 . S
C613 C611 1.389 . S
C613 C614 1.524 . S
C614 C613 1.524 . S
C614 C615 1.397 . S
C614 C619 1.363 . S
C615 H586 0.950 . S
C615 C614 1.397 . S
C615 C616 1.334 . S
C616 H587 0.950 . S
C616 C615 1.334 . S
C616 C617 1.287 . S
C617 C616 1.287 . S
C617 C618 1.524 . S
C617 H620 0.999 . S
C618 H588 0.950 . S
C618 C617 1.524 . S
C618 C619 1.415 . S
C619 H589 0.950 . S
C619 C614 1.363 . S
C619 C618 1.415 . S
H620 C617 0.999 . S
H621 C602 0.913 . S
H622 C640 0.951 . S
H623 C642 0.951 . S
H624 C644 0.950 . S
H625 C645 0.950 . S
H626 C647 0.950 . S
H627 C650 0.950 . S
H628 C651 0.950 . S
H629 C653 0.950 . S
H630 C654 0.950 . S
H631 C655 0.951 . S
H632 C657 0.951 . S
H633 C659 0.950 . S
H634 C660 0.950 . S
H635 C662 0.950 . S
H636 C665 0.950 . S
H637 C666 0.950 . S
H638 C668 0.950 . S
H639 C669 0.950 . S
C640 H622 0.951 . S
C640 C641 1.366 . S
C640 C642 1.388 . S
C641 C640 1.366 . S
C641 C645 1.385 . S
C642 H623 0.951 . S
C642 C640 1.388 . S
C642 C643 1.366 . S
C643 C642 1.366 . S
C643 C644 1.414 . S
C643 C646 1.499 . S
C644 H624 0.950 . S
C644 C643 1.414 . S
C644 C645 1.374 . S
C645 H625 0.950 . S
C645 C641 1.385 . S
C645 C644 1.374 . S
C646 C643 1.499 . S
C646 C647 1.373 . S
C646 C648 1.389 . S
C647 H626 0.950 . S
C647 C646 1.373 . S
C647 C663 1.377 . S
C648 C646 1.389 . S
C648 C649 1.524 . S
C648 C662 1.377 . S
C649 C648 1.524 . S
C649 C650 1.397 . S
C649 C654 1.363 . S
C650 H627 0.950 . S
C650 C649 1.397 . S
C650 C651 1.334 . S
C651 H628 0.950 . S
C651 C650 1.334 . S
C651 C652 1.287 . S
C652 C651 1.287 . S
C652 C653 1.524 . S
C652 H671 0.913 . S
C653 H629 0.950 . S
C653 C652 1.524 . S
C653 C654 1.415 . S
C654 H630 0.950 . S
C654 C649 1.363 . S
C654 C653 1.415 . S
C655 H631 0.951 . S
C655 C656 1.366 . S
C655 C657 1.388 . S
C656 C655 1.366 . S
C656 C660 1.385 . S
C657 H632 0.951 . S
C657 C655 1.388 . S
C657 C658 1.366 . S
C658 C657 1.366 . S
C658 C659 1.414 . S
C658 C661 1.499 . S
C659 H633 0.950 . S
C659 C658 1.414 . S
C659 C660 1.374 . S
C660 H634 0.950 . S
C660 C656 1.385 . S
C660 C659 1.374 . S
C661 C658 1.499 . S
C661 C662 1.373 . S
C661 C663 1.389 . S
C662 H635 0.950 . S
C662 C648 1.377 . S
C662 C661 1.373 . S
C663 C647 1.377 . S
C663 C661 1.389 . S
C663 C664 1.524 . S
C664 C663 1.524 . S
C664 C665 1.397 . S
C664 C669 1.363 . S
C665 H636 0.950 . S
C665 C664 1.397 . S
C665 C666 1.334 . S
C666 H637 0.950 . S
C666 C665 1.334 . S
C666 C667 1.287 . S
C667 C666 1.287 . S
C667 C668 1.524 . S
C667 H670 0.999 . S
C668 H638 0.950 . S
C668 C667 1.524 . S
C668 C669 1.415 . S
C669 H639 0.950 . S
C669 C664 1.363 . S
C669 C668 1.415 . S
H670 C667 0.999 . S
H671 C652 0.913 . S
H672 C690 0.951 . S
H673 C692 0.951 . S
H674 C694 0.950 . S
H675 C695 0.950 . S
H676 C697 0.950 . S
H677 C700 0.950 . S
H678 C701 0.950 . S
H679 C703 0.950 . S
H680 C704 0.950 . S
H681 C705 0.951 . S
H682 C707 0.951 . S
H683 C709 0.950 . S
H684 C710 0.950 . S
H685 C712 0.950 . S
H686 C715 0.950 . S
H687 C716 0.950 . S
H688 C718 0.950 . S
H689 C719 0.950 . S
C690 H672 0.951 . S
C690 C691 1.366 . S
C690 C692 1.388 . S
C691 C690 1.366 . S
C691 C695 1.385 . S
C692 H673 0.951 . S
C692 C690 1.388 . S
C692 C693 1.366 . S
C693 C692 1.366 . S
C693 C694 1.414 . S
C693 C696 1.499 . S
C694 H674 0.950 . S
C694 C693 1.414 . S
C694 C695 1.374 . S
C695 H675 0.950 . S
C695 C691 1.385 . S
C695 C694 1.374 . S
C696 C693 1.499 . S
C696 C697 1.373 . S
C696 C698 1.389 . S
C697 H676 0.950 . S
C697 C696 1.373 . S
C697 C713 1.377 . S
C698 C696 1.389 . S
C698 C699 1.524 . S
C698 C712 1.377 . S
C699 C698 1.524 . S
C699 C700 1.397 . S
C699 C704 1.363 . S
C700 H677 0.950 . S
C700 C699 1.397 . S
C700 C701 1.334 . S
C701 H678 0.950 . S
C701 C700 1.334 . S
C701 C702 1.287 . S
C702 C701 1.287 . S
C702 C703 1.524 . S
C702 H721 0.913 . S
C703 H679 0.950 . S
C703 C702 1.524 . S
C703 C704 1.415 . S
C704 H680 0.950 . S
C704 C699 1.363 . S
C704 C703 1.415 . S
C705 H681 0.951 . S
C705 C706 1.366 . S
C705 C707 1.388 . S
C706 C705 1.366 . S
C706 C710 1.385 . S
C707 H682 0.951 . S
C707 C705 1.388 . S
C707 C708 1.366 . S
C708 C707 1.366 . S
C708 C709 1.414 . S
C708 C711 1.499 . S
C709 H683 0.950 . S
C709 C708 1.414 . S
C709 C710 1.374 . S
C710 H684 0.950 . S
C710 C706 1.385 . S
C710 C709 1.374 . S
C711 C708 1.499 . S
C711 C712 1.373 . S
C711 C713 1.389 . S
C712 H685 0.950 . S
C712 C698 1.377 . S
C712 C711 1.373 . S
C713 C697 1.377 . S
C713 C711 1.389 . S
C713 C714 1.524 . S
C714 C713 1.524 . S
C714 C715 1.397 . S
C714 C719 1.363 . S
C715 H686 0.950 . S
C715 C714 1.397 . S
C715 C716 1.334 . S
C716 H687 0.950 . S
C716 C715 1.334 . S
C716 C717 1.287 . S
C717 C716 1.287 . S
C717 C718 1.524 . S
C717 H720 0.999 . S
C718 H688 0.950 . S
C718 C717 1.524 . S
C718 C719 1.415 . S
C719 H689 0.950 . S
C719 C714 1.363 . S
C719 C718 1.415 . S
H720 C717 0.999 . S
H721 C702 0.913 . S
H722 C740 0.951 . S
H723 C742 0.951 . S
H724 C744 0.950 . S
H725 C745 0.950 . S
H726 C747 0.950 . S
H727 C750 0.950 . S
H728 C751 0.950 . S
H729 C753 0.950 . S
H730 C754 0.950 . S
H731 C755 0.951 . S
H732 C757 0.951 . S
H733 C759 0.950 . S
H734 C760 0.950 . S
H735 C762 0.950 . S
H736 C765 0.950 . S
H737 C766 0.950 . S
H738 C768 0.950 . S
H739 C769 0.950 . S
C740 H722 0.951 . S
C740 C741 1.366 . S
C740 C742 1.388 . S
C741 C740 1.366 . S
C741 C745 1.385 . S
C742 H723 0.951 . S
C742 C740 1.388 . S
C742 C743 1.366 . S
C743 C742 1.366 . S
C743 C744 1.414 . S
C743 C746 1.499 . S
C744 H724 0.950 . S
C744 C743 1.414 . S
C744 C745 1.374 . S
C745 H725 0.950 . S
C745 C741 1.385 . S
C745 C744 1.374 . S
C746 C743 1.499 . S
C746 C747 1.373 . S
C746 C748 1.389 . S
C747 H726 0.950 . S
C747 C746 1.373 . S
C747 C763 1.377 . S
C748 C746 1.389 . S
C748 C749 1.524 . S
C748 C762 1.377 . S
C749 C748 1.524 . S
C749 C750 1.397 . S
C749 C754 1.363 . S
C750 H727 0.950 . S
C750 C749 1.397 . S
C750 C751 1.334 . S
C751 H728 0.950 . S
C751 C750 1.334 . S
C751 C752 1.287 . S
C752 C751 1.287 . S
C752 C753 1.524 . S
C752 H771 0.913 . S
C753 H729 0.950 . S
C753 C752 1.524 . S
C753 C754 1.415 . S
C754 H730 0.950 . S
C754 C749 1.363 . S
C754 C753 1.415 . S
C755 H731 0.951 . S
C755 C756 1.366 . S
C755 C757 1.388 . S
C756 C755 1.366 . S
C756 C760 1.385 . S
C757 H732 0.951 . S
C757 C755 1.388 . S
C757 C758 1.366 . S
C758 C757 1.366 . S
C758 C759 1.414 . S
C758 C761 1.499 . S
C759 H733 0.950 . S
C759 C758 1.414 . S
C759 C760 1.374 . S
C760 H734 0.950 . S
C760 C756 1.385 . S
C760 C759 1.374 . S
C761 C758 1.499 . S
C761 C762 1.373 . S
C761 C763 1.389 . S
C762 H735 0.950 . S
C762 C748 1.377 . S
C762 C761 1.373 . S
C763 C747 1.377 . S
C763 C761 1.389 . S
C763 C764 1.524 . S
C764 C763 1.524 . S
C764 C765 1.397 . S
C764 C769 1.363 . S
C765 H736 0.950 . S
C765 C764 1.397 . S
C765 C766 1.334 . S
C766 H737 0.950 . S
C766 C765 1.334 . S
C766 C767 1.287 . S
C767 C766 1.287 . S
C767 C768 1.524 . S
C767 H770 0.999 . S
C768 H738 0.950 . S
C768 C767 1.524 . S
C768 C769 1.415 . S
C769 H739 0.950 . S
C769 C764 1.363 . S
C769 C768 1.415 . S
H770 C767 0.999 . S
H771 C752 0.913 . S
H772 C790 0.951 . S
H773 C792 0.951 . S
H774 C794 0.950 . S
H775 C795 0.950 . S
H776 C797 0.950 . S
H777 C800 0.950 . S
H778 C801 0.950 . S
H779 C803 0.950 . S
H780 C804 0.950 . S
H781 C805 0.951 . S
H782 C807 0.951 . S
H783 C809 0.950 . S
H784 C810 0.950 . S
H785 C812 0.950 . S
H786 C815 0.950 . S
H787 C816 0.950 . S
H788 C818 0.950 . S
H789 C819 0.950 . S
C790 H772 0.951 . S
C790 C791 1.366 . S
C790 C792 1.388 . S
C791 C790 1.366 . S
C791 C795 1.385 . S
C792 H773 0.951 . S
C792 C790 1.388 . S
C792 C793 1.366 . S
C793 C792 1.366 . S
C793 C794 1.414 . S
C793 C796 1.499 . S
C794 H774 0.950 . S
C794 C793 1.414 . S
C794 C795 1.374 . S
C795 H775 0.950 . S
C795 C791 1.385 . S
C795 C794 1.374 . S
C796 C793 1.499 . S
C796 C797 1.373 . S
C796 C798 1.389 . S
C797 H776 0.950 . S
C797 C796 1.373 . S
C797 C813 1.377 . S
C798 C796 1.389 . S
C798 C799 1.524 . S
C798 C812 1.377 . S
C799 C798 1.524 . S
C799 C800 1.397 . S
C799 C804 1.363 . S
C800 H777 0.950 . S
C800 C799 1.397 . S
C800 C801 1.334 . S
C801 H778 0.950 . S
C801 C800 1.334 . S
C801 C802 1.287 . S
C802 C801 1.287 . S
C802 C803 1.524 . S
C802 H821 0.913 . S
C803 H779 0.950 . S
C803 C802 1.524 . S
C803 C804 1.415 . S
C804 H780 0.950 . S
C804 C799 1.363 . S
C804 C803 1.415 . S
C805 H781 0.951 . S
C805 C806 1.366 . S
C805 C807 1.388 . S
C806 C805 1.366 . S
C806 C810 1.385 . S
C807 H782 0.951 . S
C807 C805 1.388 . S
C807 C808 1.366 . S
C808 C807 1.366 . S
C808 C809 1.414 . S
C808 C811 1.499 . S
C809 H783 0.950 . S
C809 C808 1.414 . S
C809 C810 1.374 . S
C810 H784 0.950 . S
C810 C806 1.385 . S
C810 C809 1.374 . S
C811 C808 1.499 . S
C811 C812 1.373 . S
C811 C813 1.389 . S
C812 H785 0.950 . S
C812 C798 1.377 . S
C812 C811 1.373 . S
C813 C797 1.377 . S
C813 C811 1.389 . S
C813 C814 1.524 . S
C814 C813 1.524 . S
C814 C815 1.397 . S
C814 C819 1.363 . S
C815 H786 0.950 . S
C815 C814 1.397 . S
C815 C816 1.334 . S
C816 H787 0.950 . S
C816 C815 1.334 . S
C816 C817 1.287 . S
C817 C816 1.287 . S
C817 C818 1.524 . S
C817 H820 0.999 . S
C818 H788 0.950 . S
C818 C817 1.524 . S
C818 C819 1.415 . S
C819 H789 0.950 . S
C819 C814 1.363 . S
C819 C818 1.415 . S
H820 C817 0.999 . S
H821 C802 0.913 . S
H822 C840 0.951 . S
H823 C842 0.951 . S
H824 C844 0.950 . S
H825 C845 0.950 . S
H826 C847 0.950 . S
H827 C850 0.950 . S
H828 C851 0.950 . S
H829 C853 0.950 . S
H830 C854 0.950 . S
H831 C855 0.951 . S
H832 C857 0.951 . S
H833 C859 0.950 . S
H834 C860 0.950 . S
H835 C862 0.950 . S
H836 C865 0.950 . S
H837 C866 0.950 . S
H838 C868 0.950 . S
H839 C869 0.950 . S
C840 H822 0.951 . S
C840 C841 1.366 . S
C840 C842 1.388 . S
C841 C840 1.366 . S
C841 C845 1.385 . S
C842 H823 0.951 . S
C842 C840 1.388 . S
C842 C843 1.366 . S
C843 C842 1.366 . S
C843 C844 1.414 . S
C843 C846 1.499 . S
C844 H824 0.950 . S
C844 C843 1.414 . S
C844 C845 1.374 . S
C845 H825 0.950 . S
C845 C841 1.385 . S
C845 C844 1.374 . S
C846 C843 1.499 . S
C846 C847 1.373 . S
C846 C848 1.389 . S
C847 H826 0.950 . S
C847 C846 1.373 . S
C847 C863 1.377 . S
C848 C846 1.389 . S
C848 C849 1.524 . S
C848 C862 1.377 . S
C849 C848 1.524 . S
C849 C850 1.397 . S
C849 C854 1.363 . S
C850 H827 0.950 . S
C850 C849 1.397 . S
C850 C851 1.334 . S
C851 H828 0.950 . S
C851 C850 1.334 . S
C851 C852 1.287 . S
C852 C851 1.287 . S
C852 C853 1.524 . S
C852 H871 0.913 . S
C853 H829 0.950 . S
C853 C852 1.524 . S
C853 C854 1.415 . S
C854 H830 0.950 . S
C854 C849 1.363 . S
C854 C853 1.415 . S
C855 H831 0.951 . S
C855 C856 1.366 . S
C855 C857 1.388 . S
C856 C855 1.366 . S
C856 C860 1.385 . S
C857 H832 0.951 . S
C857 C855 1.388 . S
C857 C858 1.366 . S
C858 C857 1.366 . S
C858 C859 1.414 . S
C858 C861 1.499 . S
C859 H833 0.950 . S
C859 C858 1.414 . S
C859 C860 1.374 . S
C860 H834 0.950 . S
C860 C856 1.385 . S
C860 C859 1.374 . S
C861 C858 1.499 . S
C861 C862 1.373 . S
C861 C863 1.389 . S
C862 H835 0.950 . S
C862 C848 1.377 . S
C862 C861 1.373 . S
C863 C847 1.377 . S
C863 C861 1.389 . S
C863 C864 1.524 . S
C864 C863 1.524 . S
C864 C865 1.397 . S
C864 C869 1.363 . S
C865 H836 0.950 . S
C865 C864 1.397 . S
C865 C866 1.334 . S
C866 H837 0.950 . S
C866 C865 1.334 . S
C866 C867 1.287 . S
C867 C866 1.287 . S
C867 C868 1.524 . S
C867 H870 0.999 . S
C868 H838 0.950 . S
C868 C867 1.524 . S
C868 C869 1.415 . S
C869 H839 0.950 . S
C869 C864 1.363 . S
C869 C868 1.415 . S
H870 C867 0.999 . S
H871 C852 0.913 . S
H872 C890 0.951 . S
H873 C892 0.951 . S
H874 C894 0.950 . S
H875 C895 0.950 . S
H876 C897 0.950 . S
H877 C900 0.950 . S
H878 C901 0.950 . S
H879 C903 0.950 . S
H880 C904 0.950 . S
H881 C905 0.951 . S
H882 C907 0.951 . S
H883 C909 0.950 . S
H884 C910 0.950 . S
H885 C912 0.950 . S
H886 C915 0.950 . S
H887 C916 0.950 . S
H888 C918 0.950 . S
H889 C919 0.950 . S
C890 H872 0.951 . S
C890 C891 1.366 . S
C890 C892 1.388 . S
C891 C890 1.366 . S
C891 C895 1.385 . S
C892 H873 0.951 . S
C892 C890 1.388 . S
C892 C893 1.366 . S
C893 C892 1.366 . S
C893 C894 1.414 . S
C893 C896 1.499 . S
C894 H874 0.950 . S
C894 C893 1.414 . S
C894 C895 1.374 . S
C895 H875 0.950 . S
C895 C891 1.385 . S
C895 C894 1.374 . S
C896 C893 1.499 . S
C896 C897 1.373 . S
C896 C898 1.389 . S
C897 H876 0.950 . S
C897 C896 1.373 . S
C897 C913 1.377 . S
C898 C896 1.389 . S
C898 C899 1.524 . S
C898 C912 1.377 . S
C899 C898 1.524 . S
C899 C900 1.397 . S
C899 C904 1.363 . S
C900 H877 0.950 . S
C900 C899 1.397 . S
C900 C901 1.334 . S
C901 H878 0.950 . S
C901 C900 1.334 . S
C901 C902 1.287 . S
C902 C901 1.287 . S
C902 C903 1.524 . S
C902 H921 0.913 . S
C903 H879 0.950 . S
C903 C902 1.524 . S
C903 C904 1.415 . S
C904 H880 0.950 . S
C904 C899 1.363 . S
C904 C903 1.415 . S
C905 H881 0.951 . S
C905 C906 1.366 1_565 S
C905 C907 1.388 . S
C906 C905 1.366 1_545 S
C906 C910 1.385 . S
C907 H882 0.951 . S
C907 C905 1.388 . S
C907 C908 1.366 . S
C908 C907 1.366 . S
C908 C909 1.414 . S
C908 C911 1.499 . S
C909 H883 0.950 . S
C909 C908 1.414 . S
C909 C910 1.374 1_565 S
C910 H884 0.950 . S
C910 C906 1.385 . S
C910 C909 1.374 1_545 S
C911 C908 1.499 . S
C911 C912 1.373 . S
C911 C913 1.389 . S
C912 H885 0.950 . S
C912 C898 1.377 . S
C912 C911 1.373 . S
C913 C897 1.377 . S
C913 C911 1.389 . S
C913 C914 1.524 . S
C914 C913 1.524 . S
C914 C915 1.397 . S
C914 C919 1.363 . S
C915 H886 0.950 . S
C915 C914 1.397 . S
C915 C916 1.334 . S
C916 H887 0.950 . S
C916 C915 1.334 . S
C916 C917 1.287 . S
C917 C916 1.287 . S
C917 C918 1.524 . S
C917 H920 0.999 . S
C918 H888 0.950 . S
C918 C917 1.524 . S
C918 C919 1.415 . S
C919 H889 0.950 . S
C919 C914 1.363 . S
C919 C918 1.415 . S
H920 C917 0.999 . S
H921 C902 0.913 . S
H922 C940 0.951 . S
H923 C942 0.951 . S
H924 C944 0.950 . S
H925 C945 0.950 . S
H926 C947 0.950 . S
H927 C950 0.950 . S
H928 C951 0.950 . S
H929 C953 0.950 . S
H930 C954 0.950 . S
H931 C955 0.951 . S
H932 C957 0.951 . S
H933 C959 0.950 . S
H934 C960 0.950 . S
H935 C962 0.950 . S
H936 C965 0.950 . S
H937 C966 0.950 . S
H938 C968 0.950 . S
H939 C969 0.950 . S
C940 H922 0.951 . S
C940 C941 1.366 . S
C940 C942 1.388 . S
C941 C940 1.366 . S
C941 C945 1.385 . S
C942 H923 0.951 . S
C942 C940 1.388 . S
C942 C943 1.366 . S
C943 C942 1.366 . S
C943 C944 1.414 . S
C943 C946 1.499 . S
C944 H924 0.950 . S
C944 C943 1.414 . S
C944 C945 1.374 . S
C945 H925 0.950 . S
C945 C941 1.385 . S
C945 C944 1.374 . S
C946 C943 1.499 . S
C946 C947 1.373 . S
C946 C948 1.389 . S
C947 H926 0.950 . S
C947 C946 1.373 . S
C947 C963 1.377 . S
C948 C946 1.389 . S
C948 C949 1.524 . S
C948 C962 1.377 . S
C949 C948 1.524 . S
C949 C950 1.397 . S
C949 C954 1.363 . S
C950 H927 0.950 . S
C950 C949 1.397 . S
C950 C951 1.334 . S
C951 H928 0.950 . S
C951 C950 1.334 . S
C951 C952 1.287 . S
C952 C951 1.287 . S
C952 C953 1.524 . S
C952 H971 0.913 . S
C953 H929 0.950 . S
C953 C952 1.524 . S
C953 C954 1.415 . S
C954 H930 0.950 . S
C954 C949 1.363 . S
C954 C953 1.415 . S
C955 H931 0.951 . S
C955 C956 1.366 . S
C955 C957 1.388 1_455 S
C956 C955 1.366 . S
C956 C960 1.385 1_455 S
C957 H932 0.951 . S
C957 C955 1.388 1_655 S
C957 C958 1.366 . S
C958 C957 1.366 . S
C958 C959 1.414 . S
C958 C961 1.499 . S
C959 H933 0.950 . S
C959 C958 1.414 . S
C959 C960 1.374 . S
C960 H934 0.950 . S
C960 C956 1.385 1_655 S
C960 C959 1.374 . S
C961 C958 1.499 . S
C961 C962 1.373 . S
C961 C963 1.389 . S
C962 H935 0.950 . S
C962 C948 1.377 . S
C962 C961 1.373 . S
C963 C947 1.377 . S
C963 C961 1.389 . S
C963 C964 1.524 . S
C964 C963 1.524 . S
C964 C965 1.397 . S
C964 C969 1.363 . S
C965 H936 0.950 . S
C965 C964 1.397 . S
C965 C966 1.334 . S
C966 H937 0.950 . S
C966 C965 1.334 . S
C966 C967 1.287 1_655 S
C967 C966 1.287 1_455 S
C967 C968 1.524 . S
C967 H970 0.999 . S
C968 H938 0.950 . S
C968 C967 1.524 . S
C968 C969 1.415 1_455 S
C969 H939 0.950 . S
C969 C964 1.363 . S
C969 C968 1.415 1_655 S
H970 C967 0.999 . S
H971 C952 0.913 . S
H972 C990 0.951 . S
H973 C992 0.951 . S
H974 C994 0.950 . S
H975 C995 0.950 . S
H976 C997 0.950 . S
H977 C1000 0.950 . S
H978 C1001 0.950 . S
H979 C1003 0.950 . S
H980 C1004 0.950 . S
H981 C1005 0.951 . S
H982 C1007 0.951 . S
H983 C1009 0.950 . S
H984 C1010 0.950 . S
H985 C1012 0.950 . S
H986 C1015 0.950 . S
H987 C1016 0.950 . S
H988 C1018 0.950 . S
H989 C1019 0.950 . S
C990 H972 0.951 . S
C990 C991 1.366 1_545 S
C990 C992 1.388 . S
C991 C990 1.366 1_565 S
C991 C995 1.385 . S
C992 H973 0.951 . S
C992 C990 1.388 . S
C992 C993 1.366 . S
C993 C992 1.366 . S
C993 C994 1.414 . S
C993 C996 1.499 . S
C994 H974 0.950 . S
C994 C993 1.414 . S
C994 C995 1.374 1_545 S
C995 H975 0.950 . S
C995 C991 1.385 . S
C995 C994 1.374 1_565 S
C996 C993 1.499 . S
C996 C997 1.373 . S
C996 C998 1.389 . S
C997 H976 0.950 . S
C997 C996 1.373 . S
C997 C1013 1.377 . S
C998 C996 1.389 . S
C998 C999 1.524 . S
C998 C1012 1.377 . S
C999 C998 1.524 . S
C999 C1000 1.397 . S
C999 C1004 1.363 . S
C1000 H977 0.950 . S
C1000 C999 1.397 . S
C1000 C1001 1.334 . S
C1001 H978 0.950 . S
C1001 C1000 1.334 . S
C1001 C1002 1.287 . S
C1002 C1001 1.287 . S
C1002 C1003 1.524 . S
C1002 H1021 0.913 . S
C1003 H979 0.950 . S
C1003 C1002 1.524 . S
C1003 C1004 1.415 . S
C1004 H980 0.950 . S
C1004 C999 1.363 . S
C1004 C1003 1.415 . S
C1005 H981 0.951 . S
C1005 C1006 1.366 . S
C1005 C1007 1.388 . S
C1006 C1005 1.366 . S
C1006 C1010 1.385 . S
C1007 H982 0.951 . S
C1007 C1005 1.388 . S
C1007 C1008 1.366 . S
C1008 C1007 1.366 . S
C1008 C1009 1.414 . S
C1008 C1011 1.499 . S
C1009 H983 0.950 . S
C1009 C1008 1.414 . S
C1009 C1010 1.374 . S
C1010 H984 0.950 . S
C1010 C1006 1.385 . S
C1010 C1009 1.374 . S
C1011 C1008 1.499 . S
C1011 C1012 1.373 . S
C1011 C1013 1.389 . S
C1012 H985 0.950 . S
C1012 C998 1.377 . S
C1012 C1011 1.373 . S
C1013 C997 1.377 . S
C1013 C1011 1.389 . S
C1013 C1014 1.524 . S
C1014 C1013 1.524 . S
C1014 C1015 1.397 . S
C1014 C1019 1.363 . S
C1015 H986 0.950 . S
C1015 C1014 1.397 . S
C1015 C1016 1.334 . S
C1016 H987 0.950 . S
C1016 C1015 1.334 . S
C1016 C1017 1.287 . S
C1017 C1016 1.287 . S
C1017 C1018 1.524 . S
C1017 H1020 0.999 . S
C1018 H988 0.950 . S
C1018 C1017 1.524 . S
C1018 C1019 1.415 . S
C1019 H989 0.950 . S
C1019 C1014 1.363 . S
C1019 C1018 1.415 . S
H1020 C1017 0.999 . S
H1021 C1002 0.913 . S
H1022 C1040 0.951 . S
H1023 C1042 0.951 . S
H1024 C1044 0.950 . S
H1025 C1045 0.950 . S
H1026 C1047 0.950 . S
H1027 C1050 0.950 . S
H1028 C1051 0.950 . S
H1029 C1053 0.950 . S
H1030 C1054 0.950 . S
H1031 C1055 0.951 1_655 S
H1032 C1057 0.951 . S
H1033 C1059 0.950 . S
H1034 C1060 0.950 . S
H1035 C1062 0.950 . S
H1036 C1065 0.950 . S
H1037 C1066 0.950 . S
H1038 C1068 0.952 . S
H1039 C1069 0.950 . S
C1040 H1022 0.951 . S
C1040 C1041 1.366 . S
C1040 C1042 1.388 . S
C1041 C1040 1.366 . S
C1041 C1045 1.385 . S
C1042 H1023 0.951 . S
C1042 C1040 1.388 . S
C1042 C1043 1.366 . S
C1043 C1042 1.366 . S
C1043 C1044 1.414 . S
C1043 C1046 1.499 . S
C1044 H1024 0.950 . S
C1044 C1043 1.414 . S
C1044 C1045 1.374 . S
C1045 H1025 0.950 . S
C1045 C1041 1.385 . S
C1045 C1044 1.374 . S
C1046 C1043 1.499 . S
C1046 C1047 1.373 . S
C1046 C1048 1.389 . S
C1047 H1026 0.950 . S
C1047 C1046 1.373 . S
C1047 C1063 1.377 . S
C1048 C1046 1.389 . S
C1048 C1049 1.524 . S
C1048 C1062 1.377 . S
C1049 C1048 1.524 . S
C1049 C1050 1.397 . S
C1049 C1054 1.363 . S
C1050 H1027 0.950 . S
C1050 C1049 1.397 . S
C1050 C1051 1.334 . S
C1051 H1028 0.950 . S
C1051 C1050 1.334 . S
C1051 C1052 1.287 . S
C1052 C1051 1.287 . S
C1052 C1053 1.524 . S
C1052 H1071 0.913 . S
C1053 H1029 0.950 . S
C1053 C1052 1.524 . S
C1053 C1054 1.415 . S
C1054 H1030 0.950 . S
C1054 C1049 1.363 . S
C1054 C1053 1.415 . S
C1055 H1031 0.951 1_455 S
C1055 C1056 1.366 1_455 S
C1055 C1057 1.388 . S
C1056 C1055 1.366 1_655 S
C1056 C1060 1.385 1_655 S
C1057 H1032 0.951 . S
C1057 C1055 1.388 . S
C1057 C1058 1.366 . S
C1058 C1057 1.366 . S
C1058 C1059 1.414 . S
C1058 C1061 1.499 . S
C1059 H1033 0.950 . S
C1059 C1058 1.414 . S
C1059 C1060 1.374 . S
C1060 H1034 0.950 . S
C1060 C1056 1.385 1_455 S
C1060 C1059 1.374 . S
C1061 C1058 1.499 . S
C1061 C1062 1.373 . S
C1061 C1063 1.389 . S
C1062 H1035 0.950 . S
C1062 C1048 1.377 . S
C1062 C1061 1.373 . S
C1063 C1047 1.377 . S
C1063 C1061 1.389 . S
C1063 C1064 1.524 . S
C1064 C1063 1.524 . S
C1064 C1065 1.397 . S
C1064 C1069 1.363 . S
C1065 H1036 0.950 . S
C1065 C1064 1.397 . S
C1065 C1066 1.334 1_455 S
C1066 H1037 0.950 . S
C1066 C1065 1.334 1_655 S
C1066 C1067 1.287 . S
C1067 C1066 1.287 . S
C1067 C1068 1.524 1_655 S
C1067 H1070 0.999 . S
C1068 H1038 0.952 . S
C1068 C1067 1.524 1_455 S
C1068 C1069 1.415 . S
C1069 H1039 0.950 . S
C1069 C1064 1.363 . S
C1069 C1068 1.415 . S
H1070 C1067 0.999 . S
H1071 C1052 0.913 . S
H1072 C1090 0.951 . S
H1073 C1092 0.951 . S
H1074 C1094 0.950 . S
H1075 C1095 0.950 . S
H1076 C1097 0.950 . S
H1077 C1100 0.950 . S
H1078 C1101 0.950 . S
H1079 C1103 0.950 . S
H1080 C1104 0.950 . S
H1081 C1105 0.951 . S
H1082 C1107 0.951 . S
H1083 C1109 0.950 . S
H1084 C1110 0.950 . S
H1085 C1112 0.950 . S
H1086 C1115 0.950 . S
H1087 C1116 0.950 . S
H1088 C1118 0.950 . S
H1089 C1119 0.950 . S
C1090 H1072 0.951 . S
C1090 C1091 1.366 . S
C1090 C1092 1.388 . S
C1091 C1090 1.366 . S
C1091 C1095 1.385 . S
C1092 H1073 0.951 . S
C1092 C1090 1.388 . S
C1092 C1093 1.366 . S
C1093 C1092 1.366 . S
C1093 C1094 1.414 . S
C1093 C1096 1.499 . S
C1094 H1074 0.950 . S
C1094 C1093 1.414 . S
C1094 C1095 1.374 . S
C1095 H1075 0.950 . S
C1095 C1091 1.385 . S
C1095 C1094 1.374 . S
C1096 C1093 1.499 . S
C1096 C1097 1.373 . S
C1096 C1098 1.389 . S
C1097 H1076 0.950 . S
C1097 C1096 1.373 . S
C1097 C1113 1.377 . S
C1098 C1096 1.389 . S
C1098 C1099 1.524 1_554 S
C1098 C1112 1.377 1_554 S
C1099 C1098 1.524 1_556 S
C1099 C1100 1.397 1_556 S
C1099 C1104 1.363 . S
C1100 H1077 0.950 . S
C1100 C1099 1.397 1_554 S
C1100 C1101 1.334 1_554 S
C1101 H1078 0.950 . S
C1101 C1100 1.334 1_556 S
C1101 C1102 1.287 . S
C1102 C1101 1.287 . S
C1102 C1103 1.524 . S
C1102 H1121 0.913 . S
C1103 H1079 0.950 . S
C1103 C1102 1.524 . S
C1103 C1104 1.415 . S
C1104 H1080 0.950 . S
C1104 C1099 1.363 . S
C1104 C1103 1.415 . S
C1105 H1081 0.951 . S
C1105 C1106 1.366 . S
C1105 C1107 1.388 . S
C1106 C1105 1.366 . S
C1106 C1110 1.385 . S
C1107 H1082 0.951 . S
C1107 C1105 1.388 . S
C1107 C1108 1.366 . S
C1108 C1107 1.366 . S
C1108 C1109 1.414 . S
C1108 C1111 1.499 . S
C1109 H1083 0.950 . S
C1109 C1108 1.414 . S
C1109 C1110 1.374 . S
C1110 H1084 0.950 . S
C1110 C1106 1.385 . S
C1110 C1109 1.374 . S
C1111 C1108 1.499 . S
C1111 C1112 1.373 . S
C1111 C1113 1.389 1_556 S
C1112 H1085 0.950 . S
C1112 C1098 1.377 1_556 S
C1112 C1111 1.373 . S
C1113 C1097 1.377 . S
C1113 C1111 1.389 1_554 S
C1113 C1114 1.524 . S
C1114 C1113 1.524 . S
C1114 C1115 1.397 . S
C1114 C1119 1.363 . S
C1115 H1086 0.950 . S
C1115 C1114 1.397 . S
C1115 C1116 1.334 . S
C1116 H1087 0.950 . S
C1116 C1115 1.334 . S
C1116 C1117 1.287 . S
C1117 C1116 1.287 . S
C1117 C1118 1.524 . S
C1117 H1120 0.999 . S
C1118 H1088 0.950 . S
C1118 C1117 1.524 . S
C1118 C1119 1.415 . S
C1119 H1089 0.950 . S
C1119 C1114 1.363 . S
C1119 C1118 1.415 . S
H1120 C1117 0.999 . S
H1121 C1102 0.913 . S
H1122 C1140 0.951 . S
H1123 C1142 0.951 . S
H1124 C1144 0.950 . S
H1125 C1145 0.950 . S
H1126 C1147 0.950 . S
H1127 C1150 0.950 . S
H1128 C1151 0.950 . S
H1129 C1153 0.955 1_554 S
H1130 C1154 1.005 . S
H1131 C1155 0.951 . S
H1132 C1157 0.905 1_556 S
H1133 C1159 0.950 . S
H1134 C1160 0.950 . S
H1135 C1162 0.988 . S
H1136 C1165 0.950 . S
H1137 C1166 0.950 . S
H1138 C1168 0.950 . S
H1139 C1169 0.950 . S
C1140 H1122 0.951 . S
C1140 C1141 1.366 . S
C1140 C1142 1.388 . S
C1141 C1140 1.366 . S
C1141 C1145 1.385 . S
C1142 H1123 0.951 . S
C1142 C1140 1.388 . S
C1142 C1143 1.366 . S
C1143 C1142 1.366 . S
C1143 C1144 1.414 . S
C1143 C1146 1.499 . S
C1144 H1124 0.950 . S
C1144 C1143 1.414 . S
C1144 C1145 1.374 . S
C1145 H1125 0.950 . S
C1145 C1141 1.385 . S
C1145 C1144 1.374 . S
C1146 C1143 1.499 . S
C1146 C1147 1.373 . S
C1146 C1148 1.389 . S
C1147 H1126 0.950 . S
C1147 C1146 1.373 . S
C1147 C1163 1.377 . S
C1148 C1146 1.389 . S
C1148 C1149 1.524 . S
C1148 C1162 1.336 1_556 S
C1149 C1148 1.524 . S
C1149 C1150 1.397 . S
C1149 C1154 1.313 1_556 S
C1150 H1127 0.950 . S
C1150 C1149 1.397 . S
C1150 C1151 1.334 . S
C1151 H1128 0.950 . S
C1151 C1150 1.334 . S
C1151 C1152 1.287 . S
C1152 C1151 1.287 . S
C1152 C1153 1.517 . S
C1152 H1171 0.913 . S
C1153 H1129 0.955 1_556 S
C1153 C1152 1.517 . S
C1153 C1154 1.413 1_556 S
C1154 H1130 1.005 . S
C1154 C1149 1.313 1_554 S
C1154 C1153 1.413 1_554 S
C1155 H1131 0.951 . S
C1155 C1156 1.366 . S
C1155 C1157 1.388 . S
C1156 C1155 1.366 . S
C1156 C1160 1.385 . S
C1157 H1132 0.905 1_554 S
C1157 C1155 1.388 . S
C1157 C1158 1.366 . S
C1158 C1157 1.366 . S
C1158 C1159 1.414 . S
C1158 C1161 1.499 . S
C1159 H1133 0.950 . S
C1159 C1158 1.414 . S
C1159 C1160 1.374 . S
C1160 H1134 0.950 . S
C1160 C1156 1.385 . S
C1160 C1159 1.374 . S
C1161 C1158 1.499 . S
C1161 C1162 1.379 . S
C1161 C1163 1.389 1_554 S
C1162 H1135 0.988 . S
C1162 C1148 1.336 1_554 S
C1162 C1161 1.379 . S
C1163 C1147 1.377 . S
C1163 C1161 1.389 1_556 S
C1163 C1164 1.524 . S
C1164 C1163 1.524 . S
C1164 C1165 1.397 1_556 S
C1164 C1169 1.363 . S
C1165 H1136 0.950 . S
C1165 C1164 1.397 1_554 S
C1165 C1166 1.334 . S
C1166 H1137 0.950 . S
C1166 C1165 1.334 . S
C1166 C1167 1.287 1_554 S
C1167 C1166 1.287 1_556 S
C1167 C1168 1.524 . S
C1167 H1170 0.999 . S
C1168 H1138 0.950 . S
C1168 C1167 1.524 . S
C1168 C1169 1.415 . S
C1169 H1139 0.950 . S
C1169 C1164 1.363 . S
C1169 C1168 1.415 . S
H1170 C1167 0.999 . S
H1171 C1152 0.913 . S
H1172 C1190 0.951 . S
H1173 C1192 0.951 . S
H1174 C1194 0.950 . S
H1175 C1195 0.950 . S
H1176 C1197 0.950 . S
H1177 C1200 0.950 . S
H1178 C1201 0.950 . S
H1179 C1203 0.950 . S
H1180 C1204 0.950 . S
H1181 C1205 0.951 . S
H1182 C1207 0.951 . S
H1183 C1209 0.950 1_554 S
H1184 C1210 0.950 . S
H1185 C1212 0.950 . S
H1186 C1215 0.950 . S
H1187 C1216 0.950 . S
H1188 C1218 0.950 . S
H1189 C1219 0.950 . S
C1190 H1172 0.951 . S
C1190 C1191 1.366 . S
C1190 C1192 1.388 . S
C1191 C1190 1.366 . S
C1191 C1195 1.385 . S
C1192 H1173 0.951 . S
C1192 C1190 1.388 . S
C1192 C1193 1.366 . S
C1193 C1192 1.366 . S
C1193 C1194 1.414 . S
C1193 C1196 1.499 . S
C1194 H1174 0.950 . S
C1194 C1193 1.414 . S
C1194 C1195 1.374 . S
C1195 H1175 0.950 . S
C1195 C1191 1.385 . S
C1195 C1194 1.374 . S
C1196 C1193 1.499 . S
C1196 C1197 1.373 . S
C1196 C1198 1.389 . S
C1197 H1176 0.950 . S
C1197 C1196 1.373 . S
C1197 C1213 1.381 1_554 S
C1198 C1196 1.389 . S
C1198 C1199 1.524 . S
C1198 C1212 1.377 . S
C1199 C1198 1.524 . S
C1199 C1200 1.397 . S
C1199 C1204 1.363 . S
C1200 H1177 0.950 . S
C1200 C1199 1.397 . S
C1200 C1201 1.334 . S
C1201 H1178 0.950 . S
C1201 C1200 1.334 . S
C1201 C1202 1.287 . S
C1202 C1201 1.287 . S
C1202 C1203 1.524 . S
C1202 H1221 0.913 . S
C1203 H1179 0.950 . S
C1203 C1202 1.524 . S
C1203 C1204 1.415 . S
C1204 H1180 0.950 . S
C1204 C1199 1.363 . S
C1204 C1203 1.415 . S
C1205 H1181 0.951 . S
C1205 C1206 1.366 . S
C1205 C1207 1.388 . S
C1206 C1205 1.366 . S
C1206 C1210 1.385 . S
C1207 H1182 0.951 . S
C1207 C1205 1.388 . S
C1207 C1208 1.366 . S
C1208 C1207 1.366 . S
C1208 C1209 1.414 . S
C1208 C1211 1.499 . S
C1209 H1183 0.950 1_556 S
C1209 C1208 1.414 . S
C1209 C1210 1.374 . S
C1210 H1184 0.950 . S
C1210 C1206 1.385 . S
C1210 C1209 1.374 . S
C1211 C1208 1.499 . S
C1211 C1212 1.373 1_556 S
C1211 C1213 1.389 . S
C1212 H1185 0.950 . S
C1212 C1198 1.377 . S
C1212 C1211 1.373 1_554 S
C1213 C1197 1.381 1_556 S
C1213 C1211 1.389 . S
C1213 C1214 1.521 . S
C1214 C1213 1.521 . S
C1214 C1215 1.397 . S
C1214 C1219 1.363 . S
C1215 H1186 0.950 . S
C1215 C1214 1.397 . S
C1215 C1216 1.334 . S
C1216 H1187 0.950 . S
C1216 C1215 1.334 . S
C1216 C1217 1.287 . S
C1217 C1216 1.287 . S
C1217 C1218 1.524 . S
C1217 H1220 0.999 . S
C1218 H1188 0.950 . S
C1218 C1217 1.524 . S
C1218 C1219 1.415 . S
C1219 H1189 0.950 . S
C1219 C1214 1.363 . S
C1219 C1218 1.415 . S
H1220 C1217 0.999 . S
H1221 C1202 0.913 . S
H1222 C1240 0.951 . S
H1223 C1242 0.951 . S
H1224 C1244 0.950 . S
H1225 C1245 0.950 . S
H1226 C1247 0.950 . S
H1227 C1250 0.950 . S
H1228 C1251 0.950 . S
H1229 C1253 0.950 . S
H1230 C1254 0.950 . S
H1231 C1255 0.951 . S
H1232 C1257 0.951 . S
H1233 C1259 1.008 . S
H1234 C1260 0.950 . S
H1235 C1262 0.950 . S
H1236 C1265 0.937 1_556 S
H1237 C1266 0.950 . S
H1238 C1268 0.950 . S
H1239 C1269 0.950 . S
C1240 H1222 0.951 . S
C1240 C1241 1.366 . S
C1240 C1242 1.388 . S
C1241 C1240 1.366 . S
C1241 C1245 1.385 . S
C1242 H1223 0.951 . S
C1242 C1240 1.388 . S
C1242 C1243 1.366 . S
C1243 C1242 1.366 . S
C1243 C1244 1.414 . S
C1243 C1246 1.499 . S
C1244 H1224 0.950 . S
C1244 C1243 1.414 . S
C1244 C1245 1.374 . S
C1245 H1225 0.950 . S
C1245 C1241 1.385 . S
C1245 C1244 1.374 . S
C1246 C1243 1.499 . S
C1246 C1247 1.373 . S
C1246 C1248 1.389 . S
C1247 H1226 0.950 . S
C1247 C1246 1.373 . S
C1247 C1263 1.377 . S
C1248 C1246 1.389 . S
C1248 C1249 1.524 . S
C1248 C1262 1.377 . S
C1249 C1248 1.524 . S
C1249 C1250 1.397 . S
C1249 C1254 1.363 . S
C1250 H1227 0.950 . S
C1250 C1249 1.397 . S
C1250 C1251 1.334 . S
C1251 H1228 0.950 . S
C1251 C1250 1.334 . S
C1251 C1252 1.287 . S
C1252 C1251 1.287 . S
C1252 C1253 1.524 . S
C1252 H1271 0.913 . S
C1253 H1229 0.950 . S
C1253 C1252 1.524 . S
C1253 C1254 1.415 . S
C1254 H1230 0.950 . S
C1254 C1249 1.363 . S
C1254 C1253 1.415 . S
C1255 H1231 0.951 . S
C1255 C1256 1.366 . S
C1255 C1257 1.388 . S
C1256 C1255 1.366 . S
C1256 C1260 1.385 . S
C1257 H1232 0.951 . S
C1257 C1255 1.388 . S
C1257 C1258 1.366 . S
C1258 C1257 1.366 . S
C1258 C1259 1.414 . S
C1258 C1261 1.542 . S
C1259 H1233 1.008 . S
C1259 C1258 1.414 . S
C1259 C1260 1.374 . S
C1260 H1234 0.950 . S
C1260 C1256 1.385 . S
C1260 C1259 1.374 . S
C1261 C1258 1.542 . S
C1261 C1262 1.348 1_554 S
C1261 C1263 1.376 1_554 S
C1262 H1235 0.950 . S
C1262 C1248 1.377 . S
C1262 C1261 1.348 1_556 S
C1263 C1247 1.377 . S
C1263 C1261 1.376 1_556 S
C1263 C1264 1.524 1_556 S
C1264 C1263 1.524 1_554 S
C1264 C1265 1.401 . S
C1264 C1269 1.363 . S
C1265 H1236 0.937 1_554 S
C1265 C1264 1.401 . S
C1265 C1266 1.343 . S
C1266 H1237 0.950 . S
C1266 C1265 1.343 . S
C1266 C1267 1.287 . S
C1267 C1266 1.287 . S
C1267 C1268 1.524 . S
C1267 H1270 0.999 . S
C1268 H1238 0.950 . S
C1268 C1267 1.524 . S
C1268 C1269 1.415 . S
C1269 H1239 0.950 . S
C1269 C1264 1.363 . S
C1269 C1268 1.415 . S
H1270 C1267 0.999 . S
H1271 C1252 0.913 . S
C291 C88 1.067 . S
C306 C20 1.067 . S
C341 C122 1.067 . S
C356 C54 1.067 . S
C391 C224 1.067 . S
C406 C156 1.067 . S
C441 C258 1.067 . S
C456 C190 1.067 . S
C491 C2 1.168 . S
C506 C70 1.168 . S
C541 C104 1.168 . S
C556 C36 1.168 . S
C591 C206 1.167 . S
C606 C138 1.168 . S
C641 C240 1.168 . S
C656 C172 1.168 . S
C691 C247 1.382 . S
C706 C9 1.382 . S
C741 C145 1.381 . S
C756 C43 1.381 . S
C791 C77 1.382 . S
C806 C179 1.381 . S
C841 C213 1.381 . S
C856 C111 1.381 . S
C891 C67 0.469 . S
C906 C5 0.352 . S
C941 C101 0.468 . S
C956 C39 0.351 . S
C991 C73 0.354 . S
C1006 C135 0.466 . S
C1041 C33 0.466 . S
C1056 C107 0.351 . S
C1091 C271 0.467 . S
C1106 C141 0.351 . S
C1141 C169 0.465 . S
C1156 C175 0.352 . S
C1191 C203 0.465 . S
C1206 C209 0.353 . S
C1241 C237 0.469 . S
C1256 C243 0.352 . S
