# Generated by pormake.
# Topology whw, (6)-cn, num edge types: 1
# Building blocks:
#     Node 0, Type 0, BuildingBlock: BETFEN_clean_sbu_0, # of connection points: 6
#     Node 1, Type 0, BuildingBlock: BETFEN_clean_sbu_0, # of connection points: 6
#     Node 2, Type 0, BuildingBlock: BETFEN_clean_sbu_0, # of connection points: 6
#     Node 3, Type 0, BuildingBlock: BETFEN_clean_sbu_0, # of connection points: 6
#     Node 4, Type 0, BuildingBlock: BETFEN_clean_sbu_0, # of connection points: 6
#     Node 5, Type 0, BuildingBlock: BETFEN_clean_sbu_0, # of connection points: 6
#     Node 6, Type 0, BuildingBlock: BETFEN_clean_sbu_0, # of connection points: 6
#     Node 7, Type 0, BuildingBlock: BETFEN_clean_sbu_0, # of connection points: 6
#     Node 8, Type 0, BuildingBlock: BETFEN_clean_sbu_0, # of connection points: 6
#     Node 9, Type 0, BuildingBlock: BETFEN_clean_sbu_0, # of connection points: 6
#     Node 10, Type 0, BuildingBlock: BETFEN_clean_sbu_0, # of connection points: 6
#     Node 11, Type 0, BuildingBlock: BETFEN_clean_sbu_0, # of connection points: 6
#     Node 12, Type 0, BuildingBlock: BETFEN_clean_sbu_0, # of connection points: 6
#     Node 13, Type 0, BuildingBlock: BETFEN_clean_sbu_0, # of connection points: 6
#     Node 14, Type 0, BuildingBlock: BETFEN_clean_sbu_0, # of connection points: 6
#     Node 15, Type 0, BuildingBlock: BETFEN_clean_sbu_0, # of connection points: 6
#     Edge 16, Type (0, 0), BuildingBlock: KIFKEQ_clean_linker_1, # of connection points: 2
#     Edge 17, Type (0, 0), BuildingBlock: KIFKEQ_clean_linker_1, # of connection points: 2
#     Edge 18, Type (0, 0), BuildingBlock: KIFKEQ_clean_linker_1, # of connection points: 2
#     Edge 19, Type (0, 0), BuildingBlock: KIFKEQ_clean_linker_1, # of connection points: 2
#     Edge 20, Type (0, 0), BuildingBlock: KIFKEQ_clean_linker_1, # of connection points: 2
#     Edge 21, Type (0, 0), BuildingBlock: KIFKEQ_clean_linker_1, # of connection points: 2
#     Edge 22, Type (0, 0), BuildingBlock: KIFKEQ_clean_linker_1, # of connection points: 2
#     Edge 23, Type (0, 0), BuildingBlock: KIFKEQ_clean_linker_1, # of connection points: 2
#     Edge 24, Type (0, 0), BuildingBlock: KIFKEQ_clean_linker_1, # of connection points: 2
#     Edge 25, Type (0, 0), BuildingBlock: KIFKEQ_clean_linker_1, # of connection points: 2
#     Edge 26, Type (0, 0), BuildingBlock: KIFKEQ_clean_linker_1, # of connection points: 2
#     Edge 27, Type (0, 0), BuildingBlock: KIFKEQ_clean_linker_1, # of connection points: 2
#     Edge 28, Type (0, 0), BuildingBlock: KIFKEQ_clean_linker_1, # of connection points: 2
#     Edge 29, Type (0, 0), BuildingBlock: KIFKEQ_clean_linker_1, # of connection points: 2
#     Edge 30, Type (0, 0), BuildingBlock: KIFKEQ_clean_linker_1, # of connection points: 2
#     Edge 31, Type (0, 0), BuildingBlock: KIFKEQ_clean_linker_1, # of connection points: 2
#     Edge 32, Type (0, 0), BuildingBlock: KIFKEQ_clean_linker_1, # of connection points: 2
#     Edge 33, Type (0, 0), BuildingBlock: KIFKEQ_clean_linker_1, # of connection points: 2
#     Edge 34, Type (0, 0), BuildingBlock: KIFKEQ_clean_linker_1, # of connection points: 2
#     Edge 35, Type (0, 0), BuildingBlock: KIFKEQ_clean_linker_1, # of connection points: 2
#     Edge 36, Type (0, 0), BuildingBlock: KIFKEQ_clean_linker_1, # of connection points: 2
#     Edge 37, Type (0, 0), BuildingBlock: KIFKEQ_clean_linker_1, # of connection points: 2
#     Edge 38, Type (0, 0), BuildingBlock: KIFKEQ_clean_linker_1, # of connection points: 2
#     Edge 39, Type (0, 0), BuildingBlock: KIFKEQ_clean_linker_1, # of connection points: 2
#     Edge 40, Type (0, 0), BuildingBlock: KIFKEQ_clean_linker_1, # of connection points: 2
#     Edge 41, Type (0, 0), BuildingBlock: KIFKEQ_clean_linker_1, # of connection points: 2
#     Edge 42, Type (0, 0), BuildingBlock: KIFKEQ_clean_linker_1, # of connection points: 2
#     Edge 43, Type (0, 0), BuildingBlock: KIFKEQ_clean_linker_1, # of connection points: 2
#     Edge 44, Type (0, 0), BuildingBlock: KIFKEQ_clean_linker_1, # of connection points: 2
#     Edge 45, Type (0, 0), BuildingBlock: KIFKEQ_clean_linker_1, # of connection points: 2
#     Edge 46, Type (0, 0), BuildingBlock: KIFKEQ_clean_linker_1, # of connection points: 2
#     Edge 47, Type (0, 0), BuildingBlock: KIFKEQ_clean_linker_1, # of connection points: 2
#     Edge 48, Type (0, 0), BuildingBlock: KIFKEQ_clean_linker_1, # of connection points: 2
#     Edge 49, Type (0, 0), BuildingBlock: KIFKEQ_clean_linker_1, # of connection points: 2
#     Edge 50, Type (0, 0), BuildingBlock: KIFKEQ_clean_linker_1, # of connection points: 2
#     Edge 51, Type (0, 0), BuildingBlock: KIFKEQ_clean_linker_1, # of connection points: 2
#     Edge 52, Type (0, 0), BuildingBlock: KIFKEQ_clean_linker_1, # of connection points: 2
#     Edge 53, Type (0, 0), BuildingBlock: KIFKEQ_clean_linker_1, # of connection points: 2
#     Edge 54, Type (0, 0), BuildingBlock: KIFKEQ_clean_linker_1, # of connection points: 2
#     Edge 55, Type (0, 0), BuildingBlock: KIFKEQ_clean_linker_1, # of connection points: 2
#     Edge 56, Type (0, 0), BuildingBlock: KIFKEQ_clean_linker_1, # of connection points: 2
#     Edge 57, Type (0, 0), BuildingBlock: KIFKEQ_clean_linker_1, # of connection points: 2
#     Edge 58, Type (0, 0), BuildingBlock: KIFKEQ_clean_linker_1, # of connection points: 2
#     Edge 59, Type (0, 0), BuildingBlock: KIFKEQ_clean_linker_1, # of connection points: 2
#     Edge 60, Type (0, 0), BuildingBlock: KIFKEQ_clean_linker_1, # of connection points: 2
#     Edge 61, Type (0, 0), BuildingBlock: KIFKEQ_clean_linker_1, # of connection points: 2
#     Edge 62, Type (0, 0), BuildingBlock: KIFKEQ_clean_linker_1, # of connection points: 2
#     Edge 63, Type (0, 0), BuildingBlock: KIFKEQ_clean_linker_1, # of connection points: 2
# Relax obj value: 0.352
# Max RMSD: 0.238
# Mean RMSD: 0.209
data_MOF--net-whw--node1-BETFEN_clean_sbu_0--edge1-KIFKEQ_clean_linker_1
_symmetry_space_group_name_H-M    P1
_symmetry_Int_Tables_number       1
_symmetry_cell_setting            triclinic
loop_
_symmetry_equiv_pos_as_xyz
'x, y, z'
_cell_length_a     47.659253
_cell_length_b     47.709164
_cell_length_c     34.924536
_cell_angle_alpha  90.020565
_cell_angle_beta   83.885194
_cell_angle_gamma 93.817899
loop_
_atom_site_label
_atom_site_type_symbol
_atom_site_fract_x
_atom_site_fract_y
_atom_site_fract_z
_atom_type_partial_charge
Pr0 Pr 0.03868 0.11638 0.19545 0.0
Pr1 Pr 0.00826 0.13738 0.11824 0.0
C2 C 0.048 0.11259 0.27115 0.0
C3 C 0.05649 0.12469 0.30865 0.0
C4 C 0.08159 0.11748 0.32306 0.0
C5 C 0.08782 0.12543 0.3604 0.0
C6 C 0.06907 0.14077 0.38511 0.0
C7 C 0.04417 0.14845 0.37024 0.0
C8 C 0.038 0.14054 0.33288 0.0
C9 C 0.03971 0.07952 0.13321 0.0
C10 C 0.96785 0.1025 0.18666 0.0
C11 C -0.00407 0.15262 0.04699 0.0
C12 C -0.01094 0.16159 1.00759 0.0
C13 C 0.98571 0.19002 0.99909 0.0
C14 C 0.9801 0.1986 0.96207 0.0
C15 C 0.97805 0.17921 0.93174 0.0
C16 C 0.98164 0.15077 0.94024 0.0
C17 C 0.98689 0.14213 0.97745 0.0
C18 C 0.00386 0.16829 0.18555 0.0
C19 C 0.07831 0.14958 0.12642 0.0
O20 O 0.02416 0.1193 0.25927 0.0
O21 O 0.06702 0.10683 0.24267 0.0
O22 O 0.02073 0.09599 0.14303 0.0
O23 O 0.05658 0.07779 0.16017 0.0
O24 O 0.96879 0.11237 0.15091 0.0
O25 O -0.00984 0.10297 0.20655 0.0
O26 O -0.00451 0.12623 0.05806 0.0
O27 O 0.00187 0.17078 0.07365 0.0
O28 O 0.02564 0.15708 0.17137 0.0
O29 O 0.98399 0.16639 0.16255 0.0
O30 O 0.07565 0.14458 0.16389 0.0
O31 O 0.05753 0.14463 0.10436 0.0
H32 H 0.09626 0.10502 0.30573 0.0
H33 H 0.10745 0.11935 0.36987 0.0
H34 H 0.02878 0.15985 0.38791 0.0
H35 H 0.01818 0.14621 0.32347 0.0
H36 H -0.01252 0.20583 1.02113 0.0
H37 H 0.9778 0.22068 0.9571 0.0
H38 H 0.97996 0.13496 0.91822 0.0
H39 H -0.01052 0.1201 0.98249 0.0
Pr40 Pr 0.16378 0.79036 0.40807 0.0
Pr41 Pr 0.16586 0.73438 0.36688 0.0
C42 C 0.15801 0.83342 0.45775 0.0
C43 C 0.14642 0.83968 0.49763 0.0
C44 C 0.16446 0.85145 0.52351 0.0
C45 C 0.15371 0.85881 0.56076 0.0
C46 C 0.12462 0.8547 0.5729 0.0
C47 C 0.10664 0.84268 0.54695 0.0
C48 C 0.1174 0.83519 0.50982 0.0
C49 C 0.21345 0.78456 0.35957 0.0
C50 C 0.17132 0.73205 0.45777 0.0
C51 C 0.17472 0.6931 0.31477 0.0
C52 C 0.16399 0.68525 0.27784 0.0
C53 C 0.16295 0.65712 0.26613 0.0
C54 C 0.15103 0.64919 0.23243 0.0
C55 C 0.13968 0.66926 0.21001 0.0
C56 C 0.14113 0.69752 0.22163 0.0
C57 C 0.15325 0.70541 0.25513 0.0
C58 C 0.11381 0.74134 0.4091 0.0
C59 C 0.14467 0.79097 0.32182 0.0
O60 O 0.13997 0.82667 0.43295 0.0
O61 O 0.18062 0.81912 0.45338 0.0
O62 O 0.20148 0.76555 0.38211 0.0
O63 O 0.20071 0.80769 0.36353 0.0
O64 O 0.1806 0.71993 0.42524 0.0
O65 O 0.16051 0.75679 0.45756 0.0
O66 O 0.19106 0.71624 0.31504 0.0
O67 O 0.15631 0.69033 0.34522 0.0
O68 O 0.12821 0.76025 0.38893 0.0
O69 O 0.1257 0.71762 0.40636 0.0
O70 O 0.1445 0.80535 0.35403 0.0
O71 O 0.15282 0.76498 0.31945 0.0
H72 H 0.1869 0.85519 0.51479 0.0
H73 H 0.16825 0.86764 0.58007 0.0
H74 H 0.08407 0.83958 0.55498 0.0
H75 H 0.10288 0.82624 0.49056 0.0
H76 H 0.17096 0.64119 0.28338 0.0
H77 H 0.15003 0.62723 0.22449 0.0
H78 H 0.13294 0.71356 0.20478 0.0
H79 H 0.15399 0.72723 0.2635 0.0
Pr80 Pr 0.4514 0.83848 0.65021 0.0
Pr81 Pr 0.51417 0.84531 0.66381 0.0
C82 C 0.3998 0.85009 0.6327 0.0
C83 C 0.38999 0.86151 0.59802 0.0
C84 C 0.40921 0.86632 0.56512 0.0
C85 C 0.40007 0.87611 0.53134 0.0
C86 C 0.37151 0.88155 0.52988 0.0
C87 C 0.35246 0.87742 0.5634 0.0
C88 C 0.36167 0.86743 0.59727 0.0
C89 C 0.47023 0.79182 0.68502 0.0
C90 C 0.49929 0.80976 0.58789 0.0
C91 C 0.5646 0.85405 0.69088 0.0
C92 C 0.57312 0.85305 0.72997 0.0
C93 C 0.59678 0.86939 0.73991 0.0
C94 C 0.60259 0.87085 0.7784 0.0
C95 C 0.58463 0.8561 0.80727 0.0
C96 C 0.56155 0.83906 0.79675 0.0
C97 C 0.55577 0.83777 0.75861 0.0
C98 C 0.49797 0.88178 0.60878 0.0
C99 C 0.46336 0.85204 0.7409 0.0
O100 O 0.41583 0.86758 0.65106 0.0
O101 O 0.40942 0.82506 0.62904 0.0
O102 O 0.4777 0.81698 0.68963 0.0
O103 O 0.44926 0.78962 0.66391 0.0
O104 O 0.51589 0.81037 0.61613 0.0
O105 O 0.47563 0.82333 0.59135 0.0
O106 O 0.55603 0.82988 0.67655 0.0
O107 O 0.54846 0.87444 0.68482 0.0
O108 O 0.48422 0.87637 0.64114 0.0
O109 O 0.5209 0.86859 0.60433 0.0
O110 O 0.4437 0.84913 0.71678 0.0
O111 O 0.4906 0.85125 0.7276 0.0
H112 H 0.43122 0.86192 0.56536 0.0
H113 H 0.41526 0.87842 0.506 0.0
H114 H 0.33042 0.88164 0.56334 0.0
H115 H 0.34667 0.864 0.62266 0.0
H116 H 0.61022 0.88161 0.71817 0.0
H117 H 0.62048 0.88421 0.78571 0.0
H118 H 0.54764 0.82698 0.81814 0.0
H119 H 0.5372 0.82546 0.7517 0.0
Pr120 Pr 0.3552 0.19308 0.94674 0.0
Pr121 Pr 0.35236 0.24978 0.90822 0.0
C122 C 0.3616 0.14803 0.99114 0.0
C123 C 0.37162 0.13947 1.02752 0.0
C124 C 0.37389 0.11086 1.03463 0.0
C125 C 0.38371 0.10204 0.06865 0.0
C126 C 0.39141 0.12169 0.09635 0.0
C127 C 0.38881 0.15043 0.08927 0.0
C128 C 0.37908 0.15925 0.05503 0.0
C129 C 0.30426 0.20089 0.91665 0.0
C130 C 0.3475 0.25031 1.00042 0.0
C131 C 0.34323 0.29136 0.85976 0.0
C132 C 0.35608 0.30057 0.82097 0.0
C133 C 0.38562 0.30342 0.81213 0.0
C134 C 0.39756 0.31144 0.77512 0.0
C135 C 0.38028 0.31649 0.74598 0.0
C136 C 0.35073 0.31342 0.7548 0.0
C137 C 0.33876 0.30563 0.79198 0.0
C138 C 0.405 0.24211 0.93266 0.0
C139 C 0.37113 0.1938 0.8542 0.0
O140 O 0.3808 0.15768 0.96394 0.0
O141 O 0.33851 0.16159 0.99353 0.0
O142 O 0.31735 0.21901 0.9357 0.0
O143 O 0.31681 0.17757 0.9141 0.0
O144 O 0.3372 0.2624 0.97139 0.0
O145 O 0.35907 0.22598 0.99598 0.0
O146 O 0.32836 0.26725 0.86173 0.0
O147 O 0.35902 0.29497 0.88801 0.0
O148 O 0.39025 0.22347 0.91673 0.0
O149 O 0.39352 0.26604 0.9339 0.0
O150 O 0.37296 0.17925 0.88576 0.0
O151 O 0.36255 0.21962 0.85559 0.0
H152 H 0.36813 0.09529 1.01374 0.0
H153 H 0.38513 0.07976 0.07337 0.0
H154 H 0.39486 0.16613 0.1098 0.0
H155 H 0.3776 0.18145 0.04987 0.0
H156 H 0.39955 0.29924 0.83371 0.0
H157 H 0.42039 0.3132 0.76913 0.0
H158 H 0.33685 0.31734 0.73305 0.0
H159 H 0.31595 0.30341 0.79806 0.0
Pr160 Pr 0.03034 0.89824 0.92582 0.0
Pr161 Pr 0.9723 0.89233 0.89498 0.0
C162 C 0.07262 0.91056 0.96962 0.0
C163 C 0.07961 0.89918 1.00639 0.0
C164 C 0.07288 0.87079 1.01602 0.0
C165 C 0.07893 0.86013 0.05125 0.0
C166 C 0.0915 0.87771 0.07792 0.0
C167 C 0.09792 0.90627 0.06827 0.0
C168 C 0.09204 0.91687 1.0328 0.0
C169 C 0.01837 0.84575 0.89488 0.0
C170 C 0.97208 0.87648 0.98549 0.0
C171 C 0.92705 0.883 0.85502 0.0
C172 C 0.91914 0.87285 0.8175 0.0
C173 C 0.89079 0.87252 0.81019 0.0
C174 C 0.88246 0.86216 0.77538 0.0
C175 C 0.90236 0.8519 0.74702 0.0
C176 C 0.93095 0.8527 0.75423 0.0
C177 C 0.93925 0.86301 0.78925 0.0
C178 C 0.98549 0.94327 0.9309 0.0
C179 C 0.03097 0.90393 0.83439 0.0
O180 O 0.04984 0.92456 0.97153 0.0
O181 O 0.07497 0.89371 0.94004 0.0
O182 O 0.00064 0.85939 0.91545 0.0
O183 O 0.04354 0.85829 0.89214 0.0
O184 O 0.95694 0.8744 0.95601 0.0
O185 O -0.001 0.88593 0.98129 0.0
O186 O 0.93547 0.86436 0.87799 0.0
O187 O 0.94159 0.90723 0.85529 0.0
O188 O 0.0019 0.93081 0.90694 0.0
O189 O 0.96067 0.92999 0.93558 0.0
O190 O 0.04417 0.91434 0.86315 0.0
O191 O 0.00547 0.8911 0.84054 0.0
H192 H 0.06292 0.85678 0.99627 0.0
H193 H 0.07404 0.83798 0.0573 0.0
H194 H 0.10714 0.92056 0.08829 0.0
H195 H 0.09701 0.93894 1.02611 0.0
H196 H 0.87498 0.88012 0.83161 0.0
H197 H 0.86037 0.86225 0.77063 0.0
H198 H 0.94679 0.84474 0.73323 0.0
H199 H 0.96125 0.86299 0.79446 0.0
Pr200 Pr 0.4101 0.79353 0.10854 0.0
Pr201 Pr 0.40268 0.73213 0.08385 0.0
C202 C 0.40372 0.84295 0.14423 0.0
C203 C 0.39134 0.85133 0.18237 0.0
C204 C 0.38979 0.83269 0.21361 0.0
C205 C 0.37765 0.84046 0.24977 0.0
C206 C 0.36654 0.86695 0.25533 0.0
C207 C 0.36759 0.88534 0.22364 0.0
C208 C 0.37992 0.87755 0.1874 0.0
C209 C 0.45702 0.77451 0.06419 0.0
C210 C 0.42696 0.74195 0.16801 0.0
C211 C 0.39634 0.6826 0.04789 0.0
C212 C 0.39578 0.67277 1.008 0.0
C213 C 0.37395 0.65339 0.99934 0.0
C214 C 0.37154 0.64528 0.96132 0.0
C215 C 0.39105 0.6563 0.93113 0.0
C216 C 0.41306 0.67562 0.94005 0.0
C217 C 0.41528 0.68393 0.97806 0.0
C218 C 0.35895 0.74884 0.13592 0.0
C219 C 0.40423 0.7842 1.01689 0.0
O220 O 0.38567 0.83198 0.12182 0.0
O221 O 0.42696 0.82964 0.14319 0.0
O222 O 0.44144 0.76098 0.09013 0.0
O223 O 0.45097 0.8007 0.06412 0.0
O224 O 0.42617 0.72414 0.13881 0.0
O225 O 0.41876 0.76794 0.16476 0.0
O226 O 0.42064 0.69249 0.05856 0.0
O227 O 0.37513 0.69723 0.06079 0.0
O228 O 0.3702 0.76389 0.10762 0.0
O229 O 0.36924 0.72445 0.13633 0.0
O230 O 0.40064 0.80243 0.04516 0.0
O231 O 0.40697 0.75735 1.02437 0.0
H232 H 0.39814 0.81216 0.21014 0.0
H233 H 0.37774 0.82594 0.27356 0.0
H234 H 0.35897 0.90574 0.22684 0.0
H235 H 0.38057 0.89198 0.16332 0.0
H236 H 0.35844 0.64486 1.02201 0.0
H237 H 0.35413 0.63068 0.95558 0.0
H238 H 0.42882 0.68416 0.91774 0.0
H239 H 0.43211 0.6992 0.98395 0.0
Pr240 Pr 0.48376 0.08305 0.42553 0.0
Pr241 Pr 0.54118 0.08852 0.3772 0.0
C242 C 0.44143 0.07102 0.48166 0.0
C243 C 0.4328 0.08294 0.51991 0.0
C244 C 0.42636 0.11121 0.52383 0.0
C245 C 0.41923 0.12249 0.56021 0.0
C246 C 0.41855 0.10586 0.59355 0.0
C247 C 0.42494 0.07756 0.58962 0.0
C248 C 0.43189 0.06621 0.55315 0.0
C249 C 0.49524 0.13539 0.3905 0.0
C250 C 0.54228 0.10544 0.46728 0.0
C251 C 0.5855 0.09769 0.3225 0.0
C252 C 0.59315 0.10963 0.28312 0.0
C253 C 0.60058 0.09186 0.25207 0.0
C254 C 0.60949 0.10296 0.21525 0.0
C255 C 0.61134 0.13216 0.20858 0.0
C256 C 0.60374 0.14988 0.23973 0.0
C257 C 0.59476 0.13879 0.27645 0.0
C258 C 0.52829 0.03761 0.41713 0.0
C259 C 0.48232 0.07707 0.33445 0.0
O260 O 0.46487 0.05798 0.47837 0.0
O261 O 0.43867 0.08647 0.45153 0.0
O262 O 0.51321 0.1219 0.40562 0.0
O263 O 0.47012 0.12282 0.39581 0.0
O264 O 0.55719 0.10692 0.43321 0.0
O265 O 0.51532 0.09613 0.47141 0.0
O266 O 0.57931 0.11514 0.3506 0.0
O267 O 0.56993 0.07397 0.32591 0.0
O268 O 0.51164 0.04999 0.39827 0.0
O269 O 0.55309 0.0509 0.41432 0.0
O270 O 0.46949 0.06667 0.36724 0.0
O271 O 0.50774 0.0901 0.33276 0.0
H272 H 0.42711 0.12479 0.49885 0.0
H273 H 0.41481 0.14445 0.56228 0.0
H274 H 0.42434 0.06414 0.61474 0.0
H275 H 0.43679 0.04437 0.55091 0.0
H276 H 0.59977 0.06932 0.25632 0.0
H277 H 0.61481 0.0886 0.19199 0.0
H278 H 0.60531 0.17248 0.23602 0.0
H279 H 0.58949 0.15319 0.29969 0.0
Pr280 Pr 0.09678 0.17982 0.75989 0.0
Pr281 Pr 0.08798 0.24032 0.73571 0.0
C282 C 0.11821 0.13579 0.79171 0.0
C283 C 0.13445 0.13234 0.82492 0.0
C284 C 0.12232 0.11626 0.85673 0.0
C285 C 0.13519 0.11667 0.89082 0.0
C286 C 0.16048 0.13319 0.89373 0.0
C287 C 0.17362 0.14762 0.86096 0.0
C288 C 0.16083 0.14707 0.8268 0.0
C289 C 0.04554 0.18477 0.73054 0.0
C290 C 0.06683 0.22516 0.82529 0.0
C291 C 0.08083 0.29081 0.70469 0.0
C292 C 0.08399 0.30189 0.66526 0.0
C293 C 0.08693 0.33091 0.65819 0.0
C294 C 0.09206 0.34113 0.62033 0.0
C295 C 0.0947 0.32236 0.58925 0.0
C296 C 0.09165 0.29333 0.5967 0.0
C297 C 0.08626 0.28327 0.63434 0.0
C298 C 0.13698 0.23318 0.77079 0.0
C299 C 0.10151 0.19247 0.66526 0.0
O300 O 0.13126 0.14993 0.76216 0.0
O301 O 0.09185 0.142 0.79984 0.0
O302 O 0.05713 0.2023 0.75209 0.0
O303 O 0.05873 0.16169 0.72848 0.0
O304 O 0.06175 0.24075 0.79587 0.0
O305 O 0.08264 0.20314 0.81966 0.0
O306 O 0.05999 0.27186 0.71339 0.0
O307 O 0.1044 0.28427 0.71725 0.0
O308 O 0.12815 0.21758 0.74478 0.0
O309 O 0.12032 0.25311 0.77954 0.0
O310 O 0.10563 0.1738 0.69198 0.0
O311 O 0.09468 0.21814 0.675 0.0
H312 H 0.1021 0.10458 0.85593 0.0
H313 H 0.1242 0.10558 0.91566 0.0
H314 H 0.19312 0.16031 0.86231 0.0
H315 H 0.17103 0.15917 0.80246 0.0
H316 H 0.08556 0.34559 0.68188 0.0
H317 H 0.09441 0.36361 0.61539 0.0
H318 H 0.09275 0.27833 0.57338 0.0
H319 H 0.08346 0.26091 0.63934 0.0
Pr320 Pr 0.90821 0.29054 0.60479 0.0
Pr321 Pr 0.90362 0.22913 0.57941 0.0
C322 C 0.89905 0.33874 0.64232 0.0
C323 C 0.88463 0.34542 0.68029 0.0
C324 C 0.89928 0.36142 0.70634 0.0
C325 C 0.8872 0.36475 0.74413 0.0
C326 C 0.86025 0.35207 0.7565 0.0
C327 C 0.8451 0.33715 0.72985 0.0
C328 C 0.85714 0.33393 0.69208 0.0
C329 C 0.95649 0.27387 0.56121 0.0
C330 C 0.92642 0.23968 0.66443 0.0
C331 C 0.89811 0.17903 0.54426 0.0
C332 C 0.89702 0.16742 0.5053 0.0
C333 C 0.87882 0.14369 0.50026 0.0
C334 C 0.87586 0.13318 0.46341 0.0
C335 C 0.89111 0.14619 0.43074 0.0
C336 C 0.90943 0.17002 0.43601 0.0
C337 C 0.91224 0.18062 0.47291 0.0
C338 C 0.85927 0.24449 0.63192 0.0
C339 C 0.9047 0.28153 0.51275 0.0
O340 O 0.88295 0.32845 0.61686 0.0
O341 O 0.92257 0.32607 0.64268 0.0
O342 O 0.94121 0.25947 0.58659 0.0
O343 O 0.94946 0.29976 0.56173 0.0
O344 O 0.92704 0.22198 0.63493 0.0
O345 O 0.917 0.26515 0.66105 0.0
O346 O 0.92244 0.18999 0.55353 0.0
O347 O 0.87669 0.19345 0.55692 0.0
O348 O 0.86961 0.25934 0.60301 0.0
O349 O 0.87119 0.22098 0.63314 0.0
O350 O 0.89957 0.29937 0.54115 0.0
O351 O 0.90824 0.25479 0.52009 0.0
H352 H 0.92052 0.37042 0.69787 0.0
H353 H 0.89958 0.37607 0.76415 0.0
H354 H 0.82422 0.32742 0.73846 0.0
H355 H 0.84525 0.32174 0.67246 0.0
H356 H 0.86657 0.13346 0.52489 0.0
H357 H 0.86132 0.11506 0.46055 0.0
H358 H 0.9219 0.18034 0.41166 0.0
H359 H 0.92617 0.19917 0.47611 0.0
Pr360 Pr 0.59971 0.68364 0.26093 0.0
Pr361 Pr 0.58869 0.74286 0.23408 0.0
C362 C 0.62319 0.64159 0.29433 0.0
C363 C 0.64084 0.64164 0.32617 0.0
C364 C 0.64631 0.61662 0.34388 0.0
C365 C 0.66135 0.61741 0.37619 0.0
C366 C 0.67164 0.6433 0.39086 0.0
C367 C 0.66752 0.6681 0.37102 0.0
C368 C 0.65162 0.66727 0.33981 0.0
C369 C 0.54736 0.68617 0.23378 0.0
C370 C 0.56967 0.72968 0.32482 0.0
C371 C 0.57917 0.7923 0.20193 0.0
C372 C 0.58277 0.80382 0.16276 0.0
C373 C 0.58263 0.8328 0.15652 0.0
C374 C 0.58741 0.84376 0.11907 0.0
C375 C 0.59241 0.82582 0.0874 0.0
C376 C 0.59259 0.79676 0.09408 0.0
C377 C 0.588 0.78597 0.13143 0.0
C378 C 0.63934 0.73849 0.26652 0.0
C379 C 0.60232 0.69347 0.16592 0.0
O380 O 0.63501 0.6547 0.26322 0.0
O381 O 0.59691 0.64757 0.30362 0.0
O382 O 0.55909 0.70462 0.25389 0.0
O383 O 0.56121 0.66349 0.23212 0.0
O384 O 0.56339 0.74404 0.29491 0.0
O385 O 0.58632 0.70829 0.31973 0.0
O386 O 0.55952 0.77197 0.20916 0.0
O387 O 0.60267 0.7875 0.21603 0.0
O388 O 0.62994 0.72162 0.24229 0.0
O389 O 0.62235 0.75822 0.27478 0.0
O390 O 0.60726 0.67577 0.19339 0.0
O391 O 0.59513 0.71926 0.1744 0.0
H392 H 0.63797 0.59661 0.33375 0.0
H393 H 0.6633 0.59776 0.3908 0.0
H394 H 0.67534 0.6884 0.3806 0.0
H395 H 0.64687 0.68676 0.32704 0.0
H396 H 0.57904 0.84692 0.18059 0.0
H397 H 0.58746 0.86626 0.11498 0.0
H398 H 0.59562 0.7822 0.07044 0.0
H399 H 0.588 0.76359 0.13588 0.0
Pr400 Pr 0.66319 0.28577 0.90279 0.0
Pr401 Pr 0.66553 0.22976 0.86109 0.0
C402 C 0.65683 0.32878 0.95258 0.0
C403 C 0.64526 0.33582 0.99228 0.0
C404 C 0.6637 0.3452 1.01914 0.0
C405 C 0.6531 0.35409 0.05576 0.0
C406 C 0.62377 0.35408 0.0662 0.0
C407 C 0.60534 0.34419 0.03954 0.0
C408 C 0.61593 0.33515 1.00303 0.0
C409 C 0.71304 0.28005 0.8545 0.0
C410 C 0.67146 0.22734 0.95171 0.0
C411 C 0.67396 0.18945 0.80767 0.0
C412 C 0.66052 0.1807 0.77287 0.0
C413 C 0.63094 0.17878 0.77305 0.0
C414 C 0.61846 0.17074 0.73989 0.0
C415 C 0.63525 0.16473 0.70566 0.0
C416 C 0.66487 0.167 0.70541 0.0
C417 C 0.67736 0.17482 0.73874 0.0
C418 C 0.6135 0.23643 0.90326 0.0
C419 C 0.6443 0.28631 0.81631 0.0
O420 O 0.63886 0.32175 0.92779 0.0
O421 O 0.67952 0.31458 0.94844 0.0
O422 O 0.70092 0.26098 0.87681 0.0
O423 O 0.70044 0.30326 0.85872 0.0
O424 O 0.68098 0.21551 0.91906 0.0
O425 O 0.66022 0.25188 0.95178 0.0
O426 O 0.68847 0.21374 0.80579 0.0
O427 O 0.65883 0.18502 0.84086 0.0
O428 O 0.62787 0.25551 0.88343 0.0
O429 O 0.62503 0.21256 0.89947 0.0
O430 O 0.64389 0.30061 0.84862 0.0
O431 O 0.65261 0.2604 0.81392 0.0
H432 H 0.68639 0.3462 1.01153 0.0
H433 H 0.66787 0.36177 0.07549 0.0
H434 H 0.58264 0.34348 0.04687 0.0
H435 H 0.60107 0.32806 0.9831 0.0
H436 H 0.6174 0.18362 0.79879 0.0
H437 H 0.59561 0.1696 0.7409 0.0
H438 H 0.6784 0.16235 0.67959 0.0
H439 H 0.70021 0.17631 0.73784 0.0
Pr440 Pr 0.85106 0.69625 0.45466 0.0
Pr441 Pr 0.85088 0.75045 0.4085 0.0
C442 C 0.85636 0.65339 0.50324 0.0
C443 C 0.86825 0.64621 0.53932 0.0
C444 C 0.84997 0.63733 0.57194 0.0
C445 C 0.86073 0.6285 0.6054 0.0
C446 C 0.89008 0.62809 0.60689 0.0
C447 C 0.90837 0.63743 0.57442 0.0
C448 C 0.89761 0.6464 0.54106 0.0
C449 C 0.80018 0.70443 0.42366 0.0
C450 C 0.8507 0.75668 0.50282 0.0
C451 C 0.84397 0.79632 0.3667 0.0
C452 C 0.85686 0.80681 0.32845 0.0
C453 C 0.88639 0.81082 0.32014 0.0
C454 C 0.89845 0.81885 0.2832 0.0
C455 C 0.88134 0.82283 0.25346 0.0
C456 C 0.85176 0.81917 0.26199 0.0
C457 C 0.83968 0.8113 0.29908 0.0
C458 C 0.9049 0.7324 0.41214 0.0
C459 C 0.86156 0.69179 0.36161 0.0
O460 O 0.87404 0.65922 0.47244 0.0
O461 O 0.83443 0.66871 0.50614 0.0
O462 O 0.8147 0.72302 0.43991 0.0
O463 O 0.81127 0.6804 0.42429 0.0
O464 O 0.84746 0.76997 0.47054 0.0
O465 O 0.85333 0.72936 0.50372 0.0
O466 O 0.82707 0.77352 0.36671 0.0
O467 O 0.86048 0.79655 0.39439 0.0
O468 O 0.88584 0.73181 0.44023 0.0
O469 O 0.89624 0.74262 0.38145 0.0
O470 O 0.8697 0.6819 0.39366 0.0
O471 O 0.84844 0.71533 0.36167 0.0
H472 H 0.82725 0.63671 0.57133 0.0
H473 H 0.84604 0.62125 0.62972 0.0
H474 H 0.93109 0.63782 0.57478 0.0
H475 H 0.91234 0.65312 0.5165 0.0
H476 H 0.90031 0.80741 0.34203 0.0
H477 H 0.92125 0.82195 0.27801 0.0
H478 H 0.83789 0.8217 0.23979 0.0
H479 H 0.81688 0.80815 0.30465 0.0
Pr480 Pr 0.54059 0.61197 0.69551 0.0
Pr481 Pr 0.51411 0.63283 0.61516 0.0
C482 C 0.55169 0.61623 0.7702 0.0
C483 C 0.55622 0.6199 0.81215 0.0
C484 C 0.58031 0.61075 0.82731 0.0
C485 C 0.58577 0.61718 0.86552 0.0
C486 C 0.56729 0.63298 0.89007 0.0
C487 C 0.5428 0.64139 0.87493 0.0
C488 C 0.53748 0.63514 0.83681 0.0
C489 C 0.53196 0.57119 0.63987 0.0
C490 C 0.46915 0.60834 0.68749 0.0
C491 C 0.50259 0.64818 0.54368 0.0
C492 C 0.49628 0.65785 0.5044 0.0
C493 C 0.49552 0.68668 0.49589 0.0
C494 C 0.4893 0.69594 0.45952 0.0
C495 C 0.48413 0.6768 0.42981 0.0
C496 C 0.48521 0.64793 0.43825 0.0
C497 C 0.49095 0.63863 0.47493 0.0
C498 C 0.51878 0.66992 0.67603 0.0
C499 C 0.58359 0.62662 0.62013 0.0
O500 O 0.531 0.62796 0.75605 0.0
O501 O 0.56612 0.60029 0.74559 0.0
O502 O 0.5173 0.59176 0.64792 0.0
O503 O 0.55034 0.56856 0.66486 0.0
O504 O 0.47164 0.61651 0.65081 0.0
O505 O 0.49099 0.60609 0.70785 0.0
O506 O 0.4966 0.62252 0.55727 0.0
O507 O 0.51462 0.66533 0.56735 0.0
O508 O 0.53667 0.65294 0.664 0.0
O509 O 0.49847 0.66989 0.65391 0.0
O510 O 0.58079 0.62983 0.65784 0.0
O511 O 0.56178 0.623 0.59953 0.0
H512 H 0.59546 0.5993 0.80926 0.0
H513 H 0.60504 0.61043 0.87531 0.0
H514 H 0.52749 0.65294 0.8925 0.0
H515 H 0.5187 0.64271 0.8265 0.0
H516 H 0.4995 0.70226 0.51757 0.0
H517 H 0.48883 0.71827 0.4546 0.0
H518 H 0.48106 0.63234 0.41668 0.0
H519 H 0.49133 0.61629 0.48016 0.0
Pr520 Pr 0.95894 0.34194 0.1513 0.0
Pr521 Pr 0.02045 0.34081 0.16469 0.0
C522 C 0.90821 0.3575 0.1349 0.0
C523 C 0.89056 0.35481 0.10273 0.0
C524 C 0.87913 0.32852 0.09156 0.0
C525 C 0.86482 0.32622 0.05872 0.0
C526 C 0.86182 0.35009 1.03627 0.0
C527 C 0.8721 0.37652 0.04863 0.0
C528 C 0.88618 0.37885 0.08161 0.0
C529 C 0.97088 0.29224 0.18579 0.0
C530 C 0.00179 0.30707 0.08898 0.0
C531 C 0.07142 0.34302 0.19088 0.0
C532 C 0.08021 0.34101 0.22975 0.0
C533 C 0.10254 0.35887 0.24059 0.0
C534 C 0.10797 0.36029 0.27916 0.0
C535 C 0.09092 0.34402 0.30733 0.0
C536 C 0.06938 0.32529 0.29598 0.0
C537 C 0.06406 0.32384 0.25758 0.0
C538 C 0.00903 0.38115 0.11153 0.0
C539 C 0.97271 0.35446 0.24157 0.0
O540 O 0.93155 0.37364 0.12857 0.0
O541 O 0.91137 0.33476 0.15443 0.0
O542 O 0.9812 0.31637 0.19197 0.0
O543 O 0.95322 0.29279 0.15977 0.0
O544 O 0.01844 0.30611 0.11696 0.0
O545 O 0.97962 0.3228 0.09264 0.0
O546 O 0.05979 0.31999 0.17696 0.0
O547 O 0.05817 0.36551 0.18467 0.0
O548 O -0.0049 0.3766 0.14398 0.0
O549 O 0.02924 0.3644 0.1055 0.0
O550 O 0.95346 0.35571 0.217 0.0
O551 O -0.00096 0.34902 0.2286 0.0
H552 H 0.8819 0.30961 0.10749 0.0
H553 H 0.85675 0.30562 0.05034 0.0
H554 H 0.87054 0.39532 1.03183 0.0
H555 H 0.89461 0.39937 0.08982 0.0
H556 H 0.11503 0.37249 0.21952 0.0
H557 H 0.12467 0.37494 0.28718 0.0
H558 H 0.05623 0.31213 0.31696 0.0
H559 H 0.04668 0.30997 0.24989 0.0
Pr560 Pr 0.53032 0.3947 0.42042 0.0
Pr561 Pr 0.47266 0.38954 0.38874 0.0
C562 C 0.57278 0.40619 0.46426 0.0
C563 C 0.58052 0.39449 0.50044 0.0
C564 C 0.57832 0.36537 0.50715 0.0
C565 C 0.58442 0.35453 0.54224 0.0
C566 C 0.5925 0.37257 0.57161 0.0
C567 C 0.59462 0.40177 0.56475 0.0
C568 C 0.58871 0.41259 0.52947 0.0
C569 C 0.51848 0.34266 0.38803 0.0
C570 C 0.47182 0.37237 0.47903 0.0
C571 C 0.42822 0.38088 0.34727 0.0
C572 C 0.42087 0.36955 0.30989 0.0
C573 C 0.40606 0.38576 0.28632 0.0
C574 C 0.3978 0.37504 0.2516 0.0
C575 C 0.40405 0.34774 0.23973 0.0
C576 C 0.41914 0.33165 0.26335 0.0
C577 C 0.42755 0.34245 0.29791 0.0
C578 C 0.48491 0.43997 0.4262 0.0
C579 C 0.53154 0.40134 0.32896 0.0
O580 O 0.54973 0.41976 0.46727 0.0
O581 O 0.57514 0.39007 0.43394 0.0
O582 O 0.50065 0.3561 0.40871 0.0
O583 O 0.54364 0.35515 0.38591 0.0
O584 O 0.45685 0.37089 0.44934 0.0
O585 O 0.49878 0.38165 0.47532 0.0
O586 O 0.43464 0.36298 0.37286 0.0
O587 O 0.44371 0.40461 0.34654 0.0
O588 O 0.50201 0.42786 0.40269 0.0
O589 O 0.45999 0.42694 0.42881 0.0
O590 O 0.54444 0.41154 0.3581 0.0
O591 O 0.50611 0.38834 0.33463 0.0
H592 H 0.57171 0.35093 0.48538 0.0
H593 H 0.58298 0.33195 0.54619 0.0
H594 H 0.60034 0.41632 0.58687 0.0
H595 H 0.59015 0.43514 0.52504 0.0
H596 H 0.40069 0.40673 0.29494 0.0
H597 H 0.38662 0.38823 0.23401 0.0
H598 H 0.42399 0.3104 0.25561 0.0
H599 H 0.43895 0.32941 0.31545 0.0
Pr600 Pr 0.98523 0.58565 0.93418 0.0
Pr601 Pr 0.0423 0.59253 0.88464 0.0
C602 C 0.94327 0.57223 0.99062 0.0
C603 C 0.93587 0.58252 1.02988 0.0
C604 C 0.95126 0.60575 0.04372 0.0
C605 C 0.9436 0.61627 0.08045 0.0
C606 C 0.92031 0.6038 0.10404 0.0
C607 C 0.90524 0.58019 0.09021 0.0
C608 C 0.91296 0.56966 0.05341 0.0
C609 C -0.00439 0.63831 0.89977 0.0
C610 C 0.04404 0.60882 0.97479 0.0
C611 C 0.08604 0.60273 0.82932 0.0
C612 C 0.09335 0.61468 0.78987 0.0
C613 C 0.10066 0.59693 0.75874 0.0
C614 C 0.10942 0.60805 0.72189 0.0
C615 C 0.11123 0.63725 0.71523 0.0
C616 C 0.1037 0.65495 0.74644 0.0
C617 C 0.09489 0.64384 0.78321 0.0
C618 C 0.03125 0.54144 0.92448 0.0
C619 C 0.98292 0.58083 0.84283 0.0
O620 O 0.96632 0.55867 0.98516 0.0
O621 O 0.94093 0.59 0.96285 0.0
O622 O 0.01393 0.62498 0.91439 0.0
O623 O 0.97067 0.62535 0.90516 0.0
O624 O 0.05843 0.61116 0.94039 0.0
O625 O 0.01733 0.59868 0.97946 0.0
O626 O 0.07956 0.6201 0.85744 0.0
O627 O 0.07104 0.57869 0.83292 0.0
O628 O 0.01383 0.5533 0.90621 0.0
O629 O 0.05575 0.55533 0.92092 0.0
O630 O 0.97035 0.57011 0.87563 0.0
O631 O 0.00831 0.59394 0.84102 0.0
H632 H 0.96904 0.61593 1.02593 0.0
H633 H 0.95595 0.63418 0.09036 0.0
H634 H 0.88705 0.57025 0.10743 0.0
H635 H 0.90081 0.55174 0.04312 0.0
H636 H 0.09993 0.57439 0.76297 0.0
H637 H 0.11468 0.5937 0.69859 0.0
H638 H 0.10524 0.67755 0.74275 0.0
H639 H 0.08973 0.65822 0.80651 0.0
H640 H 0.08997 0.19087 0.07354 0.0
H641 H 0.12844 0.12674 0.13292 0.0
H642 H 0.12907 0.19275 1.02326 0.0
H643 H 0.16813 0.12837 0.08211 0.0
H644 H 0.16321 0.09577 0.95241 0.0
H645 H 0.1597 0.10766 1.02012 0.0
H646 H 0.17663 0.19551 0.99035 0.0
H647 H 0.17901 0.18366 0.92243 0.0
C648 C 0.10764 0.17818 0.07668 0.0
C649 C 0.10611 0.15832 0.10644 0.0
C650 C 0.13028 0.17933 0.04795 0.0
C651 C 0.15147 0.16014 0.04812 0.0
C652 C 0.1519 0.1431 0.08093 0.0
C653 C 0.12928 0.14224 0.11009 0.0
C654 C 0.16717 0.11752 0.96032 0.0
C655 C 0.17005 0.13884 0.93221 0.0
C656 C 0.16557 0.12439 0.99927 0.0
C657 C 0.16683 0.15271 1.01064 0.0
C658 C 0.17484 0.17356 0.98242 0.0
C659 C 0.17628 0.16671 0.9434 0.0
H660 H 0.12379 0.76487 0.26019 0.0
H661 H 0.14437 0.84695 0.3058 0.0
H662 H 0.11016 0.78664 0.20231 0.0
H663 H 0.13051 0.86875 0.24791 0.0
H664 H 0.13766 0.89126 0.11683 0.0
H665 H 0.14908 0.87116 0.17702 0.0
H666 H 0.07232 0.81723 0.18366 0.0
H667 H 0.06031 0.83785 0.12415 0.0
C668 C 0.12551 0.78754 0.25779 0.0
C669 C 0.1354 0.80418 0.28739 0.0
C670 C 0.11742 0.80002 0.22482 0.0
C671 C 0.11934 0.8294 0.22056 0.0
C672 C 0.12905 0.84605 0.25027 0.0
C673 C 0.1368 0.83357 0.28349 0.0
C674 C 0.12292 0.87548 0.13138 0.0
C675 C 0.09809 0.86614 0.11538 0.0
C676 C 0.12955 0.86391 0.16583 0.0
C677 C 0.11166 0.84254 0.18492 0.0
C678 C 0.08671 0.83339 0.16927 0.0
C679 C 0.07991 0.84516 0.13506 0.0
H680 H 0.37369 0.91887 0.28798 0.0
H681 H 0.33546 0.83518 0.31201 0.0
H682 H 0.3649 0.9305 0.35575 0.0
H683 H 0.32891 0.84589 0.37995 0.0
H684 H 0.32194 0.86372 0.50138 0.0
H685 H 0.31074 0.86805 0.43545 0.0
H686 H 0.38888 0.91879 0.40722 0.0
H687 H 0.39873 0.91642 0.47358 0.0
C688 C 0.3629 0.90309 0.30756 0.0
C689 C 0.35601 0.87581 0.29473 0.0
C690 C 0.3582 0.90966 0.3466 0.0
C691 C 0.34697 0.88895 0.3737 0.0
C692 C 0.33762 0.86251 0.36021 0.0
C693 C 0.34185 0.85612 0.32116 0.0
C694 C 0.33617 0.87672 0.48146 0.0
C695 C 0.36165 0.88909 0.49253 0.0
C696 C 0.32992 0.87889 0.44343 0.0
C697 C 0.34925 0.89306 0.41554 0.0
C698 C 0.37337 0.90767 0.42762 0.0
C699 C 0.37933 0.90591 0.46571 0.0
H700 H 0.38722 0.1405 0.83925 0.0
H701 H 0.37249 0.21803 0.78292 0.0
H702 H 0.39847 0.11902 0.7767 0.0
H703 H 0.3844 0.19672 0.72044 0.0
H704 H 0.37655 0.14067 0.61566 0.0
H705 H 0.36552 0.16179 0.67856 0.0
H706 H 0.43381 0.12034 0.72168 0.0
H707 H 0.44462 0.09899 0.65877 0.0
C708 C 0.38656 0.15304 0.81356 0.0
C709 C 0.37886 0.18098 0.81617 0.0
C710 C 0.39317 0.14075 0.77765 0.0
C711 C 0.39228 0.15609 0.74347 0.0
C712 C 0.38485 0.18413 0.74614 0.0
C713 C 0.37819 0.19641 0.78202 0.0
C714 C 0.38929 0.13618 0.63853 0.0
C715 C 0.41148 0.11818 0.63221 0.0
C716 C 0.38302 0.14834 0.67458 0.0
C717 C 0.39884 0.14288 0.7052 0.0
C718 C 0.42094 0.12471 0.69893 0.0
C719 C 0.42715 0.11247 0.66287 0.0
H720 H 0.92954 0.80374 0.21491 0.0
H721 H 0.86275 0.8588 0.20153 0.0
H722 H 0.95133 0.81647 0.15046 0.0
H723 H 0.88436 0.87105 0.13669 0.0
H724 H 0.91603 0.86263 1.00803 0.0
H725 H 0.89402 0.84933 0.07233 0.0
H726 H 0.97568 0.85802 0.11563 0.0
H727 H -0.00221 0.87115 0.05138 0.0
C728 C 0.91958 0.81874 0.19842 0.0
C729 C 0.8944 0.83033 0.21369 0.0
C730 C 0.93208 0.82597 0.16137 0.0
C731 C 0.91962 0.84481 0.13844 0.0
C732 C 0.89431 0.85621 0.15344 0.0
C733 C 0.8819 0.84913 0.19063 0.0
C734 C 0.92933 0.86164 1.03121 0.0
C735 C 0.95869 0.86797 1.02446 0.0
C736 C 0.91667 0.85419 0.06813 0.0
C737 C 0.93308 0.85265 0.09912 0.0
C738 C 0.96247 0.85875 0.09231 0.0
C739 C 0.97511 0.86643 0.05548 0.0
H740 H 0.93036 0.2713 0.72999 0.0
H741 H 0.94411 0.18823 0.6864 0.0
H742 H 0.94432 0.25769 0.79195 0.0
H743 H 0.9572 0.17412 0.74905 0.0
H744 H -0.00086 0.16022 0.85966 0.0
H745 H -0.01137 0.17484 0.796 0.0
H746 H 0.93174 0.2338 0.84907 0.0
H747 H 0.94282 0.21965 0.9123 0.0
C748 C 0.93621 0.24998 0.73355 0.0
C749 C 0.93577 0.23094 0.70264 0.0
C750 C 0.94409 0.24199 0.76962 0.0
C751 C 0.95175 0.21448 0.77669 0.0
C752 C 0.95176 0.19554 0.74545 0.0
C753 C 0.94398 0.20362 0.7092 0.0
C754 C 0.98426 0.17623 0.85787 0.0
C755 C 0.97188 0.18852 0.89187 0.0
C756 C 0.9781 0.18468 0.82098 0.0
C757 C 0.95908 0.20566 0.81638 0.0
C758 C 0.94687 0.21801 0.85049 0.0
C759 C 0.95322 0.20975 0.88727 0.0
H760 H 0.59001 0.12705 0.70033 0.0
H761 H 0.65013 0.18289 0.63137 0.0
H762 H 0.56791 0.11285 0.64297 0.0
H763 H 0.62764 0.1693 0.57397 0.0
H764 H 0.5986 0.11832 0.47294 0.0
H765 H 0.62107 0.13226 0.53007 0.0
H766 H 0.53924 0.12823 0.59711 0.0
H767 H 0.51694 0.11332 0.5403 0.0
C768 C 0.59833 0.13651 0.67291 0.0
C769 C 0.62184 0.1561 0.67045 0.0
C770 C 0.58559 0.12844 0.63995 0.0
C771 C 0.59584 0.13994 0.60361 0.0
C772 C 0.61938 0.1596 0.60123 0.0
C773 C 0.63228 0.16747 0.63418 0.0
C774 C 0.58539 0.12043 0.49986 0.0
C775 C 0.55595 0.11462 0.50194 0.0
C776 C 0.59828 0.12861 0.53268 0.0
C777 C 0.58207 0.13141 0.56845 0.0
C778 C 0.55256 0.12583 0.57036 0.0
C779 C 0.5397 0.11743 0.53762 0.0
H780 H 0.47053 0.8024 0.52378 0.0
H781 H 0.54875 0.78387 0.56708 0.0
H782 H 0.48593 0.78065 0.46266 0.0
H783 H 0.56465 0.76291 0.50546 0.0
H784 H 0.57925 0.70908 0.39651 0.0
H785 H 0.56126 0.72583 0.46029 0.0
H786 H 0.51647 0.7882 0.40648 0.0
H787 H 0.53356 0.77106 0.34359 0.0
C788 C 0.49107 0.79374 0.52036 0.0
C789 C 0.50833 0.79518 0.55073 0.0
C790 C 0.50011 0.78136 0.48493 0.0
C791 C 0.52688 0.77012 0.4783 0.0
C792 C 0.54385 0.77099 0.50907 0.0
C793 C 0.53474 0.78326 0.5446 0.0
C794 C 0.56542 0.72626 0.39834 0.0
C795 C 0.55811 0.73868 0.36448 0.0
C796 C 0.55523 0.7361 0.43508 0.0
C797 C 0.53733 0.75866 0.43918 0.0
C798 C 0.52976 0.77062 0.40517 0.0
C799 C 0.53987 0.76083 0.36868 0.0
H800 H 0.69935 0.60397 0.42863 0.0
H801 H 0.66653 0.68624 0.4436 0.0
H802 H 0.69482 0.59811 0.49838 0.0
H803 H 0.66386 0.68087 0.51178 0.0
H804 H 0.62967 0.66304 0.62558 0.0
H805 H 0.67206 0.6675 0.57883 0.0
H806 H 0.64291 0.59173 0.52303 0.0
H807 H 0.60089 0.58786 0.5688 0.0
C808 C 0.69217 0.62121 0.44643 0.0
C809 C 0.68142 0.64471 0.4301 0.0
C810 C 0.69014 0.61802 0.48644 0.0
C811 C 0.67779 0.63851 0.51042 0.0
C812 C 0.67303 0.66442 0.49416 0.0
C813 C 0.67448 0.66741 0.45437 0.0
C814 C 0.63307 0.6469 0.60406 0.0
C815 C 0.61194 0.62561 0.59969 0.0
C816 C 0.65734 0.6493 0.57759 0.0
C817 C 0.66069 0.63017 0.547 0.0
C818 C 0.64119 0.60676 0.54627 0.0
C819 C 0.61682 0.60475 0.57207 0.0
H820 H 0.63652 0.34179 0.80413 0.0
H821 H 0.63143 0.26034 0.75009 0.0
H822 H 0.62278 0.36335 0.74604 0.0
H823 H 0.61769 0.28194 0.69224 0.0
H824 H 0.56512 0.32762 0.61196 0.0
H825 H 0.57663 0.30714 0.67182 0.0
H826 H 0.64472 0.37092 0.67699 0.0
H827 H 0.63384 0.39103 0.6165 0.0
C828 C 0.63233 0.32847 0.77999 0.0
C829 C 0.6351 0.29936 0.78172 0.0
C830 C 0.62463 0.34085 0.74669 0.0
C831 C 0.61918 0.32432 0.71466 0.0
C832 C 0.62152 0.29517 0.71662 0.0
C833 C 0.62955 0.28284 0.74969 0.0
C834 C 0.58274 0.33716 0.62557 0.0
C835 C 0.59868 0.36089 0.60913 0.0
C836 C 0.58923 0.32547 0.65996 0.0
C837 C 0.6116 0.3374 0.67898 0.0
C838 C 0.62716 0.36146 0.66314 0.0
C839 C 0.62086 0.37301 0.62852 0.0
H840 H 0.82798 0.38515 1.00248 0.0
H841 H 0.87165 0.30899 0.98313 0.0
H842 H 0.81819 0.38503 0.93519 0.0
H843 H 0.86134 0.30862 0.91666 0.0
H844 H 0.83491 0.30801 0.79992 0.0
H845 H 0.82528 0.30587 0.8699 0.0
H846 H 0.85253 0.39377 0.87643 0.0
H847 H 0.8615 0.39611 0.80646 0.0
C848 C 0.83506 0.36815 0.98413 0.0
C849 C 0.85091 0.34728 0.9981 0.0
C850 C 0.82933 0.36803 0.94571 0.0
C851 C 0.83912 0.34691 0.92069 0.0
C852 C 0.85315 0.32497 0.93537 0.0
C853 C 0.85906 0.32519 0.9736 0.0
C854 C 0.838 0.32709 0.81621 0.0
C855 C 0.84939 0.35216 0.79782 0.0
C856 C 0.83265 0.32579 0.85627 0.0
C857 C 0.83846 0.34955 0.87859 0.0
C858 C 0.84769 0.37515 0.85998 0.0
C859 C 0.85315 0.37642 0.81996 0.0
H860 H 0.89134 0.64481 0.34851 0.0
H861 H 0.84758 0.706 0.29058 0.0
H862 H 0.90515 0.62296 0.28673 0.0
H863 H 0.86096 0.68391 0.22913 0.0
H864 H 0.918 0.65928 0.12309 0.0
H865 H 0.90346 0.67936 0.18555 0.0
H866 H 0.88661 0.59596 0.23425 0.0
H867 H 0.90217 0.57581 0.17186 0.0
C868 C 0.88442 0.65345 0.3227 0.0
C869 C 0.86845 0.67725 0.32455 0.0
C870 C 0.89225 0.64084 0.28728 0.0
C871 C 0.88433 0.65178 0.2529 0.0
C872 C 0.86785 0.67522 0.25493 0.0
C873 C 0.86002 0.68779 0.29028 0.0
C874 C 0.91151 0.64519 0.14717 0.0
C875 C 0.91135 0.61591 0.14241 0.0
C876 C 0.90281 0.65672 0.18293 0.0
C877 C 0.8937 0.63929 0.21493 0.0
C878 C 0.89367 0.61 0.21028 0.0
C879 C 0.90233 0.59844 0.17442 0.0
H880 H 0.49729 0.36531 0.54468 0.0
H881 H 0.41556 0.35916 0.5012 0.0
H882 H 0.4751 0.3513 0.60834 0.0
H883 H 0.39321 0.34602 0.56527 0.0
H884 H 0.36527 0.29669 0.67685 0.0
H885 H 0.38729 0.30941 0.61235 0.0
H886 H 0.44615 0.36824 0.66164 0.0
H887 H 0.42448 0.35501 0.72598 0.0
C888 C 0.47454 0.3611 0.5487 0.0
C889 C 0.45822 0.3634 0.51773 0.0
C890 C 0.46176 0.35323 0.58538 0.0
C891 C 0.43227 0.34763 0.5922 0.0
C892 C 0.41598 0.34977 0.56111 0.0
C893 C 0.4288 0.35747 0.52433 0.0
C894 C 0.3828 0.31248 0.67383 0.0
C895 C 0.39317 0.32478 0.70655 0.0
C896 C 0.39543 0.31983 0.63683 0.0
C897 C 0.41862 0.33984 0.6316 0.0
C898 C 0.42874 0.35234 0.66443 0.0
C899 C 0.41625 0.34484 0.70139 0.0
H900 H 0.45214 0.72072 0.41303 0.0
H901 H 0.50038 0.65618 0.35691 0.0
H902 H 0.43979 0.73619 0.35103 0.0
H903 H 0.48872 0.67211 0.29447 0.0
H904 H 0.44098 0.68915 0.18953 0.0
H905 H 0.4554 0.67406 0.25083 0.0
H906 H 0.45163 0.75901 0.29291 0.0
H907 H 0.43617 0.77367 0.23222 0.0
C908 C 0.4605 0.70995 0.38745 0.0
C909 C 0.47723 0.68691 0.39071 0.0
C910 C 0.45343 0.71897 0.3514 0.0
C911 C 0.46298 0.70558 0.31675 0.0
C912 C 0.48017 0.68282 0.31998 0.0
C913 C 0.48702 0.67362 0.35615 0.0
C914 C 0.44312 0.70465 0.21186 0.0
C915 C 0.43697 0.73269 0.20551 0.0
C916 C 0.4517 0.69599 0.24732 0.0
C917 C 0.45468 0.71504 0.27792 0.0
C918 C 0.44908 0.74325 0.27105 0.0
C919 C 0.44032 0.75183 0.23575 0.0
H920 H 0.09001 0.68613 0.18786 0.0
H921 H 0.15796 0.63294 0.15328 0.0
H922 H 0.06709 0.67194 0.13092 0.0
H923 H 0.13481 0.61842 0.09662 0.0
H924 H 0.10014 0.62404 0.97858 0.0
H925 H 0.12321 0.63883 1.03505 0.0
H926 H 0.04296 0.6291 0.10539 0.0
H927 H 0.01979 0.61436 0.04898 0.0
C928 C 0.10012 0.6715 0.16801 0.0
C929 C 0.12585 0.6607 0.1751 0.0
C930 C 0.08685 0.66317 0.13558 0.0
C931 C 0.0991 0.64402 0.10924 0.0
C932 C 0.12493 0.63337 0.11618 0.0
C933 C 0.13807 0.6415 0.14881 0.0
C934 C 0.08736 0.62508 1.00604 0.0
C935 C 0.05807 0.61802 1.00914 0.0
C936 C 0.10065 0.63341 0.03847 0.0
C937 C 0.08494 0.63513 0.07474 0.0
C938 C 0.05563 0.62825 0.0778 0.0
C939 C 0.04237 0.61966 0.04545 0.0
H940 H 0.07447 0.20246 0.89666 0.0
H941 H 0.0326 0.26792 0.84481 0.0
H942 H 0.05705 0.21915 0.96073 0.0
H943 H 0.0162 0.28501 0.90792 0.0
H944 H 0.97221 0.3019 1.02527 0.0
H945 H 0.98567 0.27926 0.96409 0.0
H946 H 0.06258 0.25528 1.00645 0.0
H947 H 0.04858 0.27715 0.06805 0.0
C948 C 0.06156 0.22035 0.89878 0.0
C949 C 0.05522 0.2338 0.86512 0.0
C950 C 0.0517 0.23016 0.93569 0.0
C951 C 0.03516 0.25374 0.94018 0.0
C952 C 0.02842 0.26665 0.90635 0.0
C953 C 0.03816 0.25687 0.86971 0.0
C954 C -0.00809 0.29165 1.02174 0.0
C955 C 0.00927 0.29167 0.05195 0.0
C956 C -0.00015 0.27875 0.98627 0.0
C957 C 0.02557 0.26552 0.97946 0.0
C958 C 0.04254 0.26489 1.01016 0.0
C959 C 0.03452 0.27769 0.0457 0.0
H960 H 0.93432 0.2455 0.19617 0.0
H961 H -0.00119 0.29436 0.24929 0.0
H962 H 0.93311 0.21017 0.2458 0.0
H963 H -0.00206 0.25923 0.29938 0.0
H964 H 0.03951 0.19414 0.23308 0.0
H965 H 0.02288 0.21877 0.29161 0.0
H966 H 0.94159 0.17588 0.29353 0.0
H967 H 0.95661 0.15188 0.23397 0.0
C968 C 0.94832 0.24858 0.21852 0.0
C969 C 0.96816 0.2715 0.21726 0.0
C970 C 0.94741 0.22857 0.24777 0.0
C971 C 0.9675 0.23045 0.27513 0.0
C972 C 0.98345 0.25608 0.27764 0.0
C973 C 0.98436 0.276 0.24838 0.0
C974 C 0.018 0.1897 0.24608 0.0
C975 C -0.00179 0.17376 0.22675 0.0
C976 C 0.00843 0.20337 0.27998 0.0
C977 C 0.97889 0.20416 0.28907 0.0
C978 C 0.96336 0.17916 0.28135 0.0
C979 C 0.97168 0.16584 0.2467 0.0
H980 H 0.92989 0.71875 0.4763 0.0
H981 H 0.9483 0.74513 0.35737 0.0
H982 H 0.98079 0.72276 0.48356 0.0
H983 H -0.00152 0.74939 0.3648 0.0
H984 H 0.07802 0.70079 0.44611 0.0
H985 H 0.02629 0.69884 0.45283 0.0
H986 H 0.02926 0.7824 0.40451 0.0
H987 H 0.08088 0.78443 0.39777 0.0
C988 C 0.94478 0.72522 0.45178 0.0
C989 C 0.93523 0.73184 0.41638 0.0
C990 C 0.97376 0.72759 0.45597 0.0
C991 C -0.00666 0.73699 0.42496 0.0
C992 C 0.98373 0.74278 0.3894 0.0
C993 C 0.95501 0.74008 0.38509 0.0
C994 C 0.06757 0.71897 0.43776 0.0
C995 C 0.08333 0.74254 0.42069 0.0
C996 C 0.03804 0.71787 0.44177 0.0
C997 C 0.02396 0.74027 0.42855 0.0
C998 C 0.03975 0.7647 0.41436 0.0
C999 C 0.06922 0.76589 0.41063 0.0
H1000 H 0.47125 0.65822 0.72553 0.0
H1001 H 0.55688 0.69437 0.72188 0.0
H1002 H 0.46056 0.67888 0.78864 0.0
H1003 H 0.54365 0.71742 0.78363 0.0
H1004 H 0.51737 0.7902 0.71911 0.0
H1005 H 0.52748 0.75913 0.76954 0.0
H1006 H 0.44312 0.71871 0.77031 0.0
H1007 H 0.43326 0.75125 0.72088 0.0
C1008 C 0.48759 0.67088 0.7377 0.0
C1009 C 0.51405 0.67742 0.71669 0.0
C1010 C 0.48165 0.68265 0.774 0.0
C1011 C 0.4987 0.70654 0.78236 0.0
C1012 C 0.52782 0.70407 0.77111 0.0
C1013 C 0.5354 0.69142 0.73557 0.0
C1014 C 0.50108 0.77466 0.73049 0.0
C1015 C 0.47537 0.77164 0.71448 0.0
C1016 C 0.50669 0.75679 0.7597 0.0
C1017 C 0.48744 0.7339 0.77139 0.0
C1018 C 0.45974 0.73426 0.75995 0.0
C1019 C 0.45405 0.75247 0.73087 0.0
H1020 H 0.57823 0.19566 0.94021 0.0
H1021 H 0.58158 0.28147 0.89967 0.0
H1022 H 0.52723 0.19642 0.95672 0.0
H1023 H 0.53055 0.2821 0.91539 0.0
H1024 H 0.43709 0.19762 0.91571 0.0
H1025 H 0.48805 0.19655 0.91726 0.0
H1026 H 0.49088 0.28002 0.9655 0.0
H1027 H 0.44 0.28126 0.96313 0.0
C1028 C 0.56806 0.21478 0.93524 0.0
C1029 C 0.58366 0.23837 0.91813 0.0
C1030 C 0.53889 0.21517 0.94454 0.0
C1031 C 0.52483 0.23918 0.93693 0.0
C1032 C 0.54078 0.26334 0.9219 0.0
C1033 C 0.56997 0.26295 0.91265 0.0
C1034 C 0.44858 0.21553 0.92715 0.0
C1035 C 0.4348 0.23969 0.93868 0.0
C1036 C 0.47772 0.21488 0.92829 0.0
C1037 C 0.49352 0.23834 0.94116 0.0
C1038 C 0.47935 0.26184 0.9548 0.0
C1039 C 0.45024 0.26251 0.95356 0.0
H1040 H 0.97064 0.81168 0.91328 0.0
H1041 H 0.05506 0.81295 0.85411 0.0
H1042 H 0.96537 0.76091 0.90529 0.0
H1043 H 0.04962 0.76222 0.84528 0.0
H1044 H 0.95737 0.67082 0.8726 0.0
H1045 H 0.96231 0.72148 0.86147 0.0
H1046 H 0.04837 0.72329 0.89042 0.0
H1047 H 0.04357 0.6726 0.90067 0.0
C1048 C -0.01218 0.80114 0.89787 0.0
C1049 C 0.01342 0.81604 0.88493 0.0
C1050 C 0.98477 0.77209 0.89304 0.0
C1051 C 0.00723 0.75753 0.87501 0.0
C1052 C 0.03216 0.77281 0.85991 0.0
C1053 C 0.03523 0.80182 0.86485 0.0
C1054 C 0.97746 0.68205 0.87599 0.0
C1055 C -4e-05 0.66799 0.8881 0.0
C1056 C 0.98024 0.71102 0.86975 0.0
C1057 C 0.00559 0.72642 0.87551 0.0
C1058 C 0.02863 0.71201 0.88542 0.0
C1059 C 0.02586 0.68302 0.89157 0.0
H1060 H 0.54311 0.65859 0.16585 0.0
H1061 H 0.517 0.73175 0.2293 0.0
H1062 H 0.5333 0.68052 0.10596 0.0
H1063 H 0.50601 0.75319 0.16999 0.0
H1064 H 0.50764 0.80142 0.07419 0.0
H1065 H 0.53451 0.7743 0.11389 0.0
H1066 H 0.49689 0.69751 0.07034 0.0
H1067 H 0.47004 0.72507 1.03068 0.0
C1068 C 0.53455 0.67907 0.16709 0.0
C1069 C 0.53197 0.69417 0.20173 0.0
C1070 C 0.52927 0.69171 0.13276 0.0
C1071 C 0.5207 0.71927 0.13301 0.0
C1072 C 0.51448 0.73266 0.16855 0.0
C1073 C 0.52012 0.7202 0.20263 0.0
C1074 C 0.50685 0.77881 0.07066 0.0
C1075 C 0.4851 0.765 0.05261 0.0
C1076 C 0.52192 0.76318 0.09408 0.0
C1077 C 0.51634 0.73389 0.09707 0.0
C1078 C 0.50087 0.72013 0.06975 0.0
C1079 C 0.48584 0.73596 0.04641 0.0
H1080 H 0.54322 0.16949 0.39285 0.0
H1081 H 0.45773 0.16809 0.36206 0.0
H1082 H 0.54829 0.22023 0.38301 0.0
H1083 H 0.46294 0.21878 0.35135 0.0
H1084 H 0.55563 0.31009 0.34769 0.0
H1085 H 0.55027 0.25944 0.3381 0.0
H1086 H 0.4653 0.2579 0.39583 0.0
H1087 H 0.4705 0.30861 0.40459 0.0
C1088 C 0.52574 0.18 0.38322 0.0
C1089 C 0.49994 0.16507 0.37889 0.0
C1090 C 0.52867 0.20902 0.37731 0.0
C1091 C 0.50587 0.22354 0.3668 0.0
C1092 C 0.48068 0.20823 0.36012 0.0
C1093 C 0.47774 0.17924 0.36612 0.0
C1094 C 0.53566 0.29894 0.35775 0.0
C1095 C 0.51362 0.31306 0.37746 0.0
C1096 C 0.53265 0.26997 0.35238 0.0
C1097 C 0.50753 0.25464 0.36665 0.0
C1098 C 0.48486 0.26913 0.38424 0.0
C1099 C 0.48786 0.29813 0.38951 0.0
H1100 H 0.04172 0.15853 0.66169 0.0
H1101 H 0.01728 0.23183 0.72609 0.0
H1102 H 0.03331 0.18147 0.60204 0.0
H1103 H 0.00746 0.25433 0.66697 0.0
H1104 H 0.0062 0.30238 0.57177 0.0
H1105 H 0.03367 0.27596 0.61133 0.0
H1106 H -0.00112 0.1985 0.56576 0.0
H1107 H 0.9714 0.22544 0.5264 0.0
C1108 C 0.03385 0.17932 0.66315 0.0
C1109 C 0.03127 0.19404 0.69808 0.0
C1110 C 0.02935 0.19256 0.62893 0.0
C1111 C 0.02142 0.22037 0.62946 0.0
C1112 C 0.01547 0.2336 0.6652 0.0
C1113 C 0.02041 0.22055 0.6992 0.0
C1114 C 0.00619 0.27985 0.56783 0.0
C1115 C 0.98496 0.26552 0.54939 0.0
C1116 C 0.02162 0.26457 0.59119 0.0
C1117 C 0.01696 0.23514 0.59363 0.0
C1118 C 0.00217 0.22118 0.56575 0.0
C1119 C 0.98676 0.23667 0.54251 0.0
H1120 H 0.03956 0.02255 0.13691 0.0
H1121 H 0.03467 0.09139 0.05857 0.0
H1122 H 0.02852 0.98907 0.08628 0.0
H1123 H 0.02399 0.05803 1.00771 0.0
H1124 H 0.03138 0.98111 0.92105 0.0
H1125 H 0.0484 0.01414 0.96895 0.0
H1126 H 0.97976 0.98348 0.05208 0.0
H1127 H 0.96231 0.95125 1.0042 0.0
C1128 C 0.03668 0.03043 0.1086 0.0
C1129 C 0.03759 0.05942 0.10151 0.0
C1130 C 0.03022 0.01137 0.07981 0.0
C1131 C 0.02526 0.02106 0.04326 0.0
C1132 C 0.02775 0.05006 1.03562 0.0
C1133 C 0.0336 0.06909 0.06468 0.0
C1134 C 0.01987 0.98168 0.94948 0.0
C1135 C -0.00461 0.96391 0.95885 0.0
C1136 C 0.02962 0.00044 0.9768 0.0
C1137 C 0.01546 0.00113 1.01417 0.0
C1138 C -0.00884 0.98316 1.02355 0.0
C1139 C 0.98105 0.96495 0.99605 0.0
H1140 H 0.23219 0.82077 0.30109 0.0
H1141 H 0.24557 0.73918 0.34648 0.0
H1142 H 0.26664 0.81353 0.24612 0.0
H1143 H 0.28116 0.73225 0.2922 0.0
H1144 H 0.31881 0.71326 0.17252 0.0
H1145 H 0.28442 0.72266 0.22648 0.0
H1146 H 0.31444 0.81032 0.22229 0.0
H1147 H 0.34795 0.80078 0.16636 0.0
C1148 C 0.24285 0.80138 0.29957 0.0
C1149 C 0.23607 0.78043 0.328 0.0
C1150 C 0.26279 0.7973 0.26806 0.0
C1151 C 0.27669 0.77222 0.26428 0.0
C1152 C 0.27046 0.7516 0.29351 0.0
C1153 C 0.25024 0.75559 0.32487 0.0
C1154 C 0.31776 0.73464 0.18277 0.0
C1155 C 0.33599 0.75635 0.16517 0.0
C1156 C 0.29828 0.73999 0.21416 0.0
C1157 C 0.29684 0.76716 0.2295 0.0
C1158 C 0.31468 0.78913 0.21119 0.0
C1159 C 0.33391 0.78378 0.17908 0.0
H1160 H 0.48282 -0.00074 0.41831 0.0
H1161 H 0.55296 0.02595 0.48132 0.0
H1162 H 0.46866 0.96167 0.46615 0.0
H1163 H 0.53824 0.98923 0.52952 0.0
H1164 H 0.48636 0.93592 0.62584 0.0
H1165 H 0.48918 0.97522 0.57966 0.0
H1166 H 0.50107 0.91718 0.48549 0.0
H1167 H 0.49943 0.87821 0.53157 0.0
C1168 C 0.49504 -0.00281 0.44248 0.0
C1169 C 0.51918 0.01522 0.44591 0.0
C1170 C 0.48688 0.97585 0.46982 0.0
C1171 C 0.50224 0.97283 0.50159 0.0
C1172 C 0.52588 -0.00864 0.5055 0.0
C1173 C 0.53445 0.01215 0.47773 0.0
C1174 C 0.48873 0.93158 0.59526 0.0
C1175 C 0.49265 0.9042 0.58206 0.0
C1176 C 0.4905 0.95399 0.56894 0.0
C1177 C 0.49537 0.94912 0.52912 0.0
C1178 C 0.49712 0.92142 0.516 0.0
C1179 C 0.4962 0.8992 0.54229 0.0
H1180 H 0.27931 0.16565 0.86747 0.0
H1181 H 0.27468 0.24828 0.91715 0.0
H1182 H 0.24 0.17396 0.83099 0.0
H1183 H 0.23519 0.25687 0.88033 0.0
H1184 H 0.14609 0.25053 0.84252 0.0
H1185 H 0.18663 0.24314 0.87737 0.0
H1186 H 0.22532 0.19924 0.77923 0.0
H1187 H 0.18387 0.2056 0.74515 0.0
C1188 C 0.26977 0.18562 0.87067 0.0
C1189 C 0.27991 0.20624 0.89541 0.0
C1190 C 0.24731 0.1905 0.84948 0.0
C1191 C 0.23413 0.21603 0.85279 0.0
C1192 C 0.24443 0.23674 0.87752 0.0
C1193 C 0.26711 0.23191 0.89856 0.0
C1194 C 0.1633 0.23931 0.82843 0.0
C1195 C 0.16187 0.22855 0.79121 0.0
C1196 C 0.18667 0.23525 0.84829 0.0
C1197 C 0.20945 0.22072 0.83116 0.0
C1198 C 0.20807 0.21023 0.7936 0.0
C1199 C 0.18441 0.21393 0.77394 0.0
H1200 H 0.73665 0.31863 0.80135 0.0
H1201 H 0.74109 0.23254 0.83691 0.0
H1202 H 0.77269 0.31222 0.74773 0.0
H1203 H 0.77696 0.2259 0.7828 0.0
H1204 H 0.85943 0.22993 0.70624 0.0
H1205 H 0.82543 0.23987 0.76061 0.0
H1206 H 0.77999 0.2883 0.68609 0.0
H1207 H 0.8149 0.27875 0.63138 0.0
C1208 C 0.74544 0.29832 0.79777 0.0
C1209 C 0.73607 0.27606 0.8234 0.0
C1210 C 0.76598 0.29461 0.76682 0.0
C1211 C 0.77781 0.26857 0.76082 0.0
C1212 C 0.76861 0.24638 0.78679 0.0
C1213 C 0.74798 0.25009 0.81775 0.0
C1214 C 0.84226 0.24286 0.70146 0.0
C1215 C 0.83967 0.25349 0.66457 0.0
C1216 C 0.82264 0.24839 0.73263 0.0
C1217 C 0.79965 0.26446 0.72773 0.0
C1218 C 0.7975 0.27587 0.69093 0.0
C1219 C 0.8174 0.27045 0.65958 0.0
H1220 H 0.7695 0.66676 0.38345 0.0
H1221 H 0.7781 0.75475 0.41179 0.0
H1222 H 0.73218 0.67598 0.34343 0.0
H1223 H 0.74156 0.7643 0.37054 0.0
H1224 H 0.65284 0.76482 0.33138 0.0
H1225 H 0.69207 0.75722 0.36833 0.0
H1226 H 0.7229 0.69708 0.28407 0.0
H1227 H 0.68276 0.7042 0.24753 0.0
C1228 C 0.76347 0.68813 0.38098 0.0
C1229 C 0.77676 0.71006 0.4007 0.0
C1230 C 0.74227 0.69348 0.35766 0.0
C1231 C 0.73392 0.72094 0.35337 0.0
C1232 C 0.7472 0.74285 0.37337 0.0
C1233 C 0.76826 0.73743 0.3969 0.0
C1234 C 0.66815 0.75019 0.32048 0.0
C1235 C 0.66469 0.73502 0.28664 0.0
C1236 C 0.6908 0.74593 0.34161 0.0
C1237 C 0.71079 0.72656 0.32928 0.0
C1238 C 0.70774 0.71192 0.29471 0.0
C1239 C 0.68489 0.7161 0.2736 0.0
H1240 H 0.48892 0.57155 0.5957 0.0
H1241 H 0.56427 0.52885 0.60986 0.0
H1242 H 0.47962 0.54152 0.54182 0.0
H1243 H 0.55456 0.49801 0.55553 0.0
H1244 H 0.45148 0.45932 0.48663 0.0
H1245 H 0.46484 0.49096 0.53711 0.0
H1246 H 0.55048 0.49969 0.48192 0.0
H1247 H 0.5369 0.46784 0.43064 0.0
C1248 C 0.5036 0.55575 0.58718 0.0
C1249 C 0.52728 0.55247 0.6071 0.0
C1250 C 0.49816 0.53843 0.55638 0.0
C1251 C 0.51622 0.51727 0.54461 0.0
C1252 C 0.54035 0.51426 0.56391 0.0
C1253 C 0.54578 0.53169 0.59511 0.0
C1254 C 0.47311 0.46815 0.48493 0.0
C1255 C 0.49316 0.46103 0.45473 0.0
C1256 C 0.48078 0.48628 0.51392 0.0
C1257 C 0.50873 0.49778 0.51353 0.0
C1258 C 0.52886 0.4909 0.48314 0.0
C1259 C 0.52105 0.47287 0.45375 0.0
H1260 H 0.05722 0.5308 0.98782 0.0
H1261 H -0.01219 0.50068 0.92553 0.0
H1262 H 0.04564 0.49255 1.03468 0.0
H1263 H 0.9769 0.46158 0.972 0.0
H1264 H 0.02082 0.3811 1.03416 0.0
H1265 H 0.02089 0.42065 0.98946 0.0
H1266 H -0.00935 0.47311 0.08349 0.0
H1267 H -0.01049 0.43306 0.12831 0.0
C1268 C 0.03951 0.51596 0.98414 0.0
C1269 C 0.02356 0.51849 0.95286 0.0
C1270 C 0.03277 0.49428 1.01112 0.0
C1271 C 0.01032 0.47437 1.00694 0.0
C1272 C -0.00582 0.47689 0.97586 0.0
C1273 C 0.00048 0.49909 0.94931 0.0
C1274 C 0.01358 0.40092 0.04515 0.0
C1275 C 0.00522 0.40413 0.08462 0.0
C1276 C 0.01352 0.42343 1.01958 0.0
C1277 C 0.00573 0.44976 1.03315 0.0
C1278 C -0.00344 0.45287 0.07244 0.0
C1279 C -0.00412 0.43004 0.09796 0.0
H1280 H 0.05451 0.18746 0.42888 0.0
H1281 H 0.0973 0.11099 0.43602 0.0
H1282 H 0.06313 0.19864 0.49477 0.0
H1283 H 0.10718 0.12293 0.5013 0.0
H1284 H 0.09701 0.13917 0.63334 0.0
H1285 H 0.08949 0.12659 0.56702 0.0
H1286 H 0.09682 0.21446 0.53554 0.0
H1287 H 0.10421 0.22675 0.60136 0.0
C1288 C 0.06579 0.1729 0.44424 0.0
C1289 C 0.0751 0.14817 0.42614 0.0
C1290 C 0.07115 0.17959 0.48232 0.0
C1291 C 0.08615 0.16193 0.50415 0.0
C1292 C 0.09539 0.13716 0.48614 0.0
C1293 C 0.09 0.13045 0.44805 0.0
C1294 C 0.09751 0.15581 0.61215 0.0
C1295 C 0.10109 0.18411 0.6234 0.0
C1296 C 0.09307 0.14859 0.57381 0.0
C1297 C 0.09209 0.16939 0.54516 0.0
C1298 C 0.09662 0.19762 0.55634 0.0
C1299 C 0.10107 0.20477 0.59449 0.0
H1300 H 0.08256 0.8272 0.62104 0.0
H1301 H 0.14004 0.90148 0.61399 0.0
H1302 H 0.06114 0.84242 0.68325 0.0
H1303 H 0.11882 0.91637 0.67696 0.0
H1304 H 0.08805 0.91238 0.81127 0.0
H1305 H 0.11227 0.90187 0.74785 0.0
H1306 H 0.03154 0.88154 0.70558 0.0
H1307 H 0.0075 0.89192 0.76827 0.0
C1308 C 0.09058 0.84685 0.63261 0.0
C1309 C 0.11284 0.86324 0.61214 0.0
C1310 C 0.07832 0.85554 0.66836 0.0
C1311 C 0.08807 0.88078 0.68479 0.0
C1312 C 0.11092 0.89678 0.66507 0.0
C1313 C 0.12311 0.88817 0.62905 0.0
C1314 C 0.07551 0.90623 0.78818 0.0
C1315 C 0.04586 0.90269 0.79498 0.0
C1316 C 0.08937 0.90014 0.75192 0.0
C1317 C 0.0738 0.89033 0.72199 0.0
C1318 C 0.04415 0.88839 0.72831 0.0
C1319 C 0.03037 0.89452 0.76426 0.0
H1320 H 0.42988 0.75762 0.95413 0.0
H1321 H 0.392 0.83501 0.98655 0.0
H1322 H 0.4439 0.77638 0.88931 0.0
H1323 H 0.40553 0.85352 0.92108 0.0
H1324 H 0.41154 0.85879 0.78263 0.0
H1325 H 0.39582 0.84336 0.84905 0.0
H1326 H 0.47913 0.81658 0.86069 0.0
H1327 H 0.49495 0.8325 0.79517 0.0
C1328 C 0.42408 0.77848 0.94738 0.0
C1329 C 0.40964 0.79468 0.97593 0.0
C1330 C 0.43239 0.78936 0.91014 0.0
C1331 C 0.42608 0.81661 0.89983 0.0
C1332 C 0.41074 0.83247 0.92787 0.0
C1333 C 0.40295 0.82181 0.96548 0.0
C1334 C 0.4267 0.85023 0.79963 0.0
C1335 C 0.45471 0.8473 0.78326 0.0
C1336 C 0.41763 0.84126 0.83775 0.0
C1337 C 0.43608 0.8284 0.86029 0.0
C1338 C 0.4642 0.82609 0.84421 0.0
C1339 C 0.47341 0.83561 0.80657 0.0
H1340 H 0.50571 0.08192 0.26022 0.0
H1341 H 0.42502 0.07464 0.32983 0.0
H1342 H 0.48202 0.09017 0.2033 0.0
H1343 H 0.40114 0.08296 0.27241 0.0
H1344 H 0.37894 0.13957 0.1706 0.0
H1345 H 0.39908 0.12482 0.22838 0.0
H1346 H 0.44945 0.06723 0.16019 0.0
H1347 H 0.42979 0.08228 0.10249 0.0
C1348 C 0.48283 0.08162 0.26325 0.0
C1349 C 0.46723 0.0776 0.29953 0.0
C1350 C 0.46924 0.08627 0.23056 0.0
C1351 C 0.43971 0.08735 0.23334 0.0
C1352 C 0.42395 0.08248 0.26944 0.0
C1353 C 0.43758 0.07742 0.30221 0.0
C1354 C 0.39433 0.12379 0.16798 0.0
C1355 C 0.40282 0.11218 0.1319 0.0
C1356 C 0.40561 0.11509 0.20113 0.0
C1357 C 0.42584 0.09483 0.19886 0.0
C1358 C 0.43402 0.08299 0.16287 0.0
C1359 C 0.42261 0.09149 0.12984 0.0
H1360 H 0.86423 0.81323 0.5108 0.0
H1361 H 0.84581 0.73615 0.5762 0.0
H1362 H 0.87535 0.83785 0.56951 0.0
H1363 H 0.85699 0.76057 0.63435 0.0
H1364 H 0.85538 0.81718 0.73866 0.0
H1365 H 0.8402 0.79659 0.67978 0.0
H1366 H 0.91331 0.83765 0.61404 0.0
H1367 H 0.92824 0.85885 0.67305 0.0
C1368 C 0.86212 0.80164 0.53773 0.0
C1369 C 0.85409 0.77271 0.53874 0.0
C1370 C 0.86877 0.81567 0.57128 0.0
C1371 C 0.86717 0.80117 0.60664 0.0
C1372 C 0.85821 0.77248 0.60776 0.0
C1373 C 0.85189 0.75843 0.57429 0.0
C1374 C 0.86807 0.82214 0.71163 0.0
C1375 C 0.89306 0.8397 0.71067 0.0
C1376 C 0.85948 0.81012 0.67787 0.0
C1377 C 0.87554 0.81541 0.64215 0.0
C1378 C 0.9003 0.83334 0.64101 0.0
C1379 C 0.90903 0.84523 0.6749 0.0
H1380 H 0.89045 0.17493 0.36278 0.0
H1381 H 0.88568 0.09074 0.40952 0.0
H1382 H 0.89441 0.15616 0.29814 0.0
H1383 H 0.88821 0.07177 0.34484 0.0
H1384 H 0.95708 0.06234 0.24173 0.0
H1385 H 0.92574 0.06796 0.29949 0.0
H1386 H 0.88474 0.13225 0.2431 0.0
H1387 H 0.91763 0.12725 0.18533 0.0
C1388 C 0.88993 0.15236 0.35928 0.0
C1389 C 0.88876 0.13447 0.39147 0.0
C1390 C 0.89176 0.14144 0.322 0.0
C1391 C 0.89271 0.11232 0.31579 0.0
C1392 C 0.88859 0.09435 0.34819 0.0
C1393 C 0.88687 0.10527 0.3855 0.0
C1394 C 0.94047 0.07672 0.241 0.0
C1395 C 0.9405 0.09509 0.20961 0.0
C1396 C 0.9223 0.08008 0.27444 0.0
C1397 C 0.9034 0.10163 0.27696 0.0
C1398 C 0.89986 0.11629 0.24287 0.0
C1399 C 0.9183 0.11298 0.2093 0.0
H1400 H 0.67093 0.17018 0.96487 0.0
H1401 H 0.66573 0.24977 1.02325 0.0
H1402 H 0.65765 0.14562 1.02662 0.0
H1403 H 0.65281 0.22548 0.08429 0.0
H1404 H 0.59188 0.17709 0.17292 0.0
H1405 H 0.6097 0.19857 0.11125 0.0
H1406 H 0.67115 0.1361 0.09302 0.0
H1407 H 0.65356 0.11466 0.15537 0.0
C1408 C 0.66766 0.18241 0.9909 0.0
C1409 C 0.66917 0.21194 0.98903 0.0
C1410 C 0.65994 0.16836 1.02626 0.0
C1411 C 0.65355 0.1836 0.06031 0.0
C1412 C 0.65682 0.21307 0.05855 0.0
C1413 C 0.66447 0.227 1.02349 0.0
C1414 C 0.60937 0.168 0.15609 0.0
C1415 C 0.62142 0.14427 0.16959 0.0
C1416 C 0.6196 0.18034 0.12059 0.0
C1417 C 0.64215 0.16931 0.09733 0.0
C1418 C 0.65372 0.14508 0.11013 0.0
C1419 C 0.64354 0.13276 0.14588 0.0
H1420 H 0.54467 0.86224 0.86773 0.0
H1421 H 0.63454 0.85603 0.83989 0.0
H1422 H 0.55028 0.86018 0.93574 0.0
H1423 H 0.64052 0.8555 0.90858 0.0
H1424 H 0.62858 0.80885 1.02691 0.0
H1425 H 0.62959 0.82178 0.95951 0.0
H1426 H 0.56753 0.88232 0.98997 0.0
H1427 H 0.56506 0.86796 0.05711 0.0
C1428 C 0.56573 0.86078 0.87623 0.0
C1429 C 0.58909 0.85871 0.84848 0.0
C1430 C 0.56904 0.86007 0.91532 0.0
C1431 C 0.59586 0.85757 0.92773 0.0
C1432 C 0.61951 0.85703 0.89996 0.0
C1433 C 0.61615 0.8576 0.86066 0.0
C1434 C 0.61512 0.82492 1.01924 0.0
C1435 C 0.5963 0.83693 0.04735 0.0
C1436 C 0.61606 0.83269 0.9806 0.0
C1437 C 0.5984 0.85289 0.96921 0.0
C1438 C 0.58101 0.86629 0.99767 0.0
C1439 C 0.57984 0.85829 1.03628 0.0
H1440 H 0.55354 0.68079 0.93146 0.0
H1441 H 0.59573 0.6043 0.94218 0.0
H1442 H 0.56264 0.69379 0.99632 0.0
H1443 H 0.60639 0.61824 1.00655 0.0
H1444 H 0.5983 0.63917 0.13737 0.0
H1445 H 0.59024 0.62423 0.07213 0.0
H1446 H 0.59605 0.71103 1.03545 0.0
H1447 H 0.60354 0.72565 0.10031 0.0
C1448 C 0.56473 0.66654 0.94745 0.0
C1449 C 0.57363 0.64121 0.93067 0.0
C1450 C 0.57047 0.67435 0.98493 0.0
C1451 C 0.58561 0.65737 1.00746 0.0
C1452 C 0.59449 0.632 0.9908 0.0
C1453 C 0.58864 0.62411 0.95326 0.0
C1454 C 0.59831 0.65506 0.11525 0.0
C1455 C 0.60151 0.68376 0.12473 0.0
C1456 C 0.59359 0.64647 0.07752 0.0
C1457 C 0.59202 0.66625 0.04775 0.0
C1458 C 0.59625 0.6949 0.05717 0.0
C1459 C 0.60084 0.70341 0.09475 0.0
H1460 H 0.58876 0.40883 0.30652 0.0
H1461 H 0.50818 0.39171 0.2622 0.0
H1462 H 0.61297 0.4009 0.24229 0.0
H1463 H 0.5321 0.3833 0.1989 0.0
H1464 H 0.58027 0.38828 0.08162 0.0
H1465 H 0.56003 0.4045 0.14404 0.0
H1466 H 0.62112 0.36064 0.19975 0.0
H1467 H 0.64159 0.34463 0.13705 0.0
C1468 C 0.57622 0.40387 0.28301 0.0
C1469 C 0.54655 0.40087 0.28953 0.0
C1470 C 0.59008 0.39902 0.24632 0.0
C1471 C 0.57451 0.39132 0.21539 0.0
C1472 C 0.54483 0.38951 0.22178 0.0
C1473 C 0.53107 0.3942 0.25827 0.0
C1474 C 0.58935 0.38203 0.10719 0.0
C1475 C 0.61233 0.36487 0.10436 0.0
C1476 C 0.57778 0.39139 0.14301 0.0
C1477 C 0.58879 0.38374 0.17704 0.0
C1478 C 0.61232 0.36724 0.17414 0.0
C1479 C 0.62398 0.35795 0.1382 0.0
H1480 H 0.92007 0.36118 0.28108 0.0
H1481 H 0.00297 0.33519 0.29787 0.0
H1482 H 0.90236 0.34438 0.34613 0.0
H1483 H 0.98504 0.31775 0.36204 0.0
H1484 H 0.93375 0.25668 0.45098 0.0
H1485 H 0.95015 0.27697 0.38762 0.0
H1486 H 0.90818 0.3523 0.41865 0.0
H1487 H 0.89217 0.33224 0.48259 0.0
C1488 C 0.93471 0.35242 0.29874 0.0
C1489 C 0.96308 0.34975 0.28375 0.0
C1490 C 0.92447 0.34261 0.33609 0.0
C1491 C 0.9421 0.32925 0.35934 0.0
C1492 C 0.97067 0.3275 0.34491 0.0
C1493 C 0.98105 0.33786 0.30803 0.0
C1494 C 0.92763 0.27744 0.44431 0.0
C1495 C 0.91141 0.29266 0.47222 0.0
C1496 C 0.93735 0.28923 0.40795 0.0
C1497 C 0.93076 0.31645 0.39789 0.0
C1498 C 0.91367 0.3313 0.42522 0.0
C1499 C 0.90443 0.31974 0.46196 0.0
H1500 H 0.92555 0.57407 0.83744 0.0
H1501 H 0.00603 0.59025 0.76916 0.0
H1502 H 0.90121 0.5822 0.78038 0.0
H1503 H 0.982 0.59882 0.71295 0.0
H1504 H 0.93347 0.59369 0.60989 0.0
H1505 H 0.95379 0.57769 0.66647 0.0
H1506 H 0.89322 0.62231 0.73976 0.0
H1507 H 0.87269 0.63814 0.68298 0.0
C1508 C 0.93803 0.57887 0.8102 0.0
C1509 C 0.96773 0.58153 0.8079 0.0
C1510 C 0.92411 0.58384 0.7776 0.0
C1511 C 0.93961 0.5913 0.74201 0.0
C1512 C 0.9693 0.59281 0.73962 0.0
C1513 C 0.98313 0.58803 0.77204 0.0
C1514 C 0.92452 0.60018 0.63805 0.0
C1515 C 0.90165 0.61749 0.6418 0.0
C1516 C 0.93614 0.59094 0.67055 0.0
C1517 C 0.9253 0.59884 0.70777 0.0
C1518 C 0.9019 0.61551 0.71163 0.0
C1519 C 0.89019 0.6247 0.67904 0.0
H1520 H 0.35423 0.35494 0.20841 0.0
H1521 H 0.43238 0.31356 0.188 0.0
H1522 H 0.33798 0.33308 0.15059 0.0
H1523 H 0.41567 0.29121 0.13126 0.0
H1524 H 0.36321 0.229 0.06644 0.0
H1525 H 0.3757 0.25427 0.12309 0.0
H1526 H 0.35105 0.33126 0.07559 0.0
H1527 H 0.33868 0.30582 1.01784 0.0
C1528 C 0.36811 0.34148 0.19149 0.0
C1529 C 0.39456 0.33581 0.2033 0.0
C1530 C 0.3587 0.32891 0.15842 0.0
C1531 C 0.37538 0.31017 0.13672 0.0
C1532 C 0.4021 0.30515 0.14786 0.0
C1533 C 0.41161 0.31788 0.18054 0.0
C1534 C 0.36015 0.25126 0.06794 0.0
C1535 C 0.35023 0.2654 0.03723 0.0
C1536 C 0.36747 0.26577 0.10046 0.0
C1537 C 0.36486 0.29482 0.10346 0.0
C1538 C 0.35335 0.30885 0.07394 0.0
C1539 C 0.3462 0.29427 0.04097 0.0
H1540 H 0.40209 0.68784 0.86489 0.0
H1541 H 0.37537 0.6037 0.90544 0.0
H1542 H 0.40711 0.67106 0.79918 0.0
H1543 H 0.37859 0.58722 0.83938 0.0
H1544 H 0.45134 0.56954 0.74243 0.0
H1545 H 0.41945 0.57878 0.79876 0.0
H1546 H 0.39228 0.6511 0.74166 0.0
H1547 H 0.42513 0.64188 0.68516 0.0
C1548 C 0.39681 0.66583 0.85977 0.0
C1549 C 0.38917 0.64701 0.89068 0.0
C1550 C 0.39912 0.65624 0.82185 0.0
C1551 C 0.39369 0.62759 0.81382 0.0
C1552 C 0.38349 0.60931 0.8445 0.0
C1553 C 0.38145 0.61884 0.88248 0.0
C1554 C 0.43745 0.58653 0.74115 0.0
C1555 C 0.44118 0.60541 0.70997 0.0
C1556 C 0.41906 0.59195 0.77362 0.0
C1557 C 0.40398 0.61636 0.77541 0.0
C1558 C 0.40425 0.63258 0.74163 0.0
C1559 C 0.42268 0.62703 0.70893 0.0
H1560 H 0.165 0.75469 0.52921 0.0
H1561 H 0.17078 0.67493 0.47139 0.0
H1562 H 0.15204 0.73058 0.59036 0.0
H1563 H 0.15742 0.65055 0.53324 0.0
H1564 H 0.15335 0.61978 0.66185 0.0
H1565 H 0.17078 0.64118 0.59944 0.0
H1566 H 0.10933 0.70363 0.6179 0.0
H1567 H 0.09169 0.6822 0.67968 0.0
C1568 C 0.16384 0.73193 0.52958 0.0
C1569 C 0.16875 0.71677 0.49524 0.0
C1570 C 0.15615 0.71809 0.56472 0.0
C1571 C 0.15305 0.68861 0.56669 0.0
C1572 C 0.15958 0.67329 0.53275 0.0
C1573 C 0.16734 0.68725 0.49732 0.0
C1574 C 0.1433 0.63787 0.65241 0.0
C1575 C 0.12122 0.64937 0.67621 0.0
C1576 C 0.15338 0.65017 0.61661 0.0
C1577 C 0.14176 0.67438 0.60382 0.0
C1578 C 0.11927 0.68542 0.6272 0.0
C1579 C 0.10914 0.6731 0.66276 0.0
H1580 H 0.04969 0.34881 0.36649 0.0
H1581 H 0.14025 0.34667 0.34137 0.0
H1582 H 0.05456 0.34956 0.43504 0.0
H1583 H 0.14528 0.34828 0.4104 0.0
H1584 H 0.13097 0.30302 0.53106 0.0
H1585 H 0.1331 0.31404 0.46273 0.0
H1586 H 0.07207 0.37635 0.48794 0.0
H1587 H 0.06917 0.36453 0.55635 0.0
C1588 C 0.07069 0.34875 0.37571 0.0
C1589 C 0.09456 0.34719 0.34869 0.0
C1590 C 0.07353 0.34961 0.41497 0.0
C1591 C 0.10031 0.34897 0.42815 0.0
C1592 C 0.12435 0.34857 0.40107 0.0
C1593 C 0.1215 0.3478 0.36163 0.0
C1594 C 0.11822 0.31927 0.52201 0.0
C1595 C 0.09954 0.33258 0.54891 0.0
C1596 C 0.1197 0.32583 0.48292 0.0
C1597 C 0.10255 0.34588 0.46992 0.0
C1598 C 0.08525 0.36052 0.49711 0.0
C1599 C 0.08377 0.35394 0.53627 0.0
loop_
_geom_bond_atom_site_label_1
_geom_bond_atom_site_label_2
_geom_bond_distance
_geom_bond_site_symmetry_2
_ccdc_geom_bond_type
Pr0 C2 2.880 . S
Pr0 O20 2.562 . S
Pr0 O21 2.490 . S
Pr0 O22 2.695 . S
Pr0 O23 2.512 . S
Pr0 O25 2.437 . S
Pr0 O28 2.436 . S
Pr0 O30 2.438 . S
Pr1 C11 2.880 . S
Pr1 O22 2.436 1_655 S
Pr1 O24 2.438 . S
Pr1 O26 2.562 . S
Pr1 O27 2.490 . S
Pr1 O28 2.695 1_655 S
Pr1 O29 2.519 . S
Pr1 O31 2.437 1_655 S
C2 Pr0 2.880 . S
C2 C3 1.491 . S
C2 O20 1.254 . S
C2 O21 1.225 . S
C3 C2 1.491 . S
C3 C4 1.392 . S
C3 C8 1.356 . S
C4 C3 1.392 . S
C4 C5 1.368 . S
C4 H32 0.929 . S
C5 C4 1.368 . S
C5 C6 1.386 . S
C5 H33 0.929 . S
C6 C5 1.386 . S
C6 C7 1.373 . S
C7 C6 1.373 . S
C7 C8 1.409 . S
C7 H34 0.931 . S
C8 C3 1.356 . S
C8 C7 1.409 . S
C8 H35 0.930 . S
C9 O22 1.270 . S
C9 O23 1.248 . S
C10 O24 1.267 . S
C10 O25 1.278 1_655 S
C11 Pr1 2.880 . S
C11 C12 1.491 1_554 S
C11 O26 1.254 . S
C11 O27 1.225 . S
C12 C11 1.491 1_556 S
C12 C13 1.392 . S
C12 C17 1.356 . S
C13 C12 1.392 . S
C13 C14 1.368 . S
C13 H36 0.929 . S
C14 C13 1.368 . S
C14 C15 1.386 . S
C14 H37 0.929 . S
C15 C14 1.386 . S
C15 C16 1.373 . S
C16 C15 1.373 . S
C16 C17 1.409 . S
C16 H38 0.931 . S
C17 C12 1.356 . S
C17 C16 1.409 . S
C17 H39 0.930 . S
C18 O28 1.270 . S
C18 O29 1.221 1_455 S
C19 O30 1.267 . S
C19 O31 1.278 . S
O20 Pr0 2.562 . S
O20 C2 1.254 . S
O21 Pr0 2.490 . S
O21 C2 1.225 . S
O22 Pr0 2.695 . S
O22 Pr1 2.436 1_455 S
O22 C9 1.270 . S
O23 Pr0 2.512 . S
O23 C9 1.248 . S
O24 Pr1 2.438 . S
O24 C10 1.267 . S
O25 Pr0 2.437 . S
O25 C10 1.278 1_455 S
O26 Pr1 2.562 . S
O26 C11 1.254 . S
O27 Pr1 2.490 . S
O27 C11 1.225 . S
O28 Pr0 2.436 . S
O28 Pr1 2.695 1_455 S
O28 C18 1.270 . S
O29 Pr1 2.519 . S
O29 C18 1.221 1_655 S
O30 Pr0 2.438 . S
O30 C19 1.267 . S
O31 Pr1 2.437 1_455 S
O31 C19 1.278 . S
H32 C4 0.929 . S
H33 C5 0.929 . S
H34 C7 0.931 . S
H35 C8 0.930 . S
H36 C13 0.929 . S
H37 C14 0.929 . S
H38 C16 0.931 . S
H39 C17 0.930 . S
Pr40 C42 2.880 . S
Pr40 O60 2.562 . S
Pr40 O61 2.490 . S
Pr40 O62 2.695 . S
Pr40 O63 2.512 . S
Pr40 O65 2.437 . S
Pr40 O68 2.436 . S
Pr40 O70 2.438 . S
Pr41 C51 2.880 . S
Pr41 O62 2.436 . S
Pr41 O64 2.438 . S
Pr41 O66 2.562 . S
Pr41 O67 2.490 . S
Pr41 O68 2.695 . S
Pr41 O69 2.512 . S
Pr41 O71 2.437 . S
C42 Pr40 2.880 . S
C42 C43 1.491 . S
C42 O60 1.254 . S
C42 O61 1.225 . S
C43 C42 1.491 . S
C43 C44 1.392 . S
C43 C48 1.356 . S
C44 C43 1.392 . S
C44 C45 1.368 . S
C44 H72 0.929 . S
C45 C44 1.368 . S
C45 C46 1.386 . S
C45 H73 0.929 . S
C46 C45 1.386 . S
C46 C47 1.373 . S
C47 C46 1.373 . S
C47 C48 1.409 . S
C47 H74 0.931 . S
C48 C43 1.356 . S
C48 C47 1.409 . S
C48 H75 0.930 . S
C49 O62 1.270 . S
C49 O63 1.248 . S
C50 O64 1.267 . S
C50 O65 1.278 . S
C51 Pr41 2.880 . S
C51 C52 1.491 . S
C51 O66 1.254 . S
C51 O67 1.225 . S
C52 C51 1.491 . S
C52 C53 1.392 . S
C52 C57 1.356 . S
C53 C52 1.392 . S
C53 C54 1.368 . S
C53 H76 0.929 . S
C54 C53 1.368 . S
C54 C55 1.386 . S
C54 H77 0.929 . S
C55 C54 1.386 . S
C55 C56 1.373 . S
C56 C55 1.373 . S
C56 C57 1.409 . S
C56 H78 0.931 . S
C57 C52 1.356 . S
C57 C56 1.409 . S
C57 H79 0.930 . S
C58 O68 1.270 . S
C58 O69 1.248 . S
C59 O70 1.267 . S
C59 O71 1.278 . S
O60 Pr40 2.562 . S
O60 C42 1.254 . S
O61 Pr40 2.490 . S
O61 C42 1.225 . S
O62 Pr40 2.695 . S
O62 Pr41 2.436 . S
O62 C49 1.270 . S
O63 Pr40 2.512 . S
O63 C49 1.248 . S
O64 Pr41 2.438 . S
O64 C50 1.267 . S
O65 Pr40 2.437 . S
O65 C50 1.278 . S
O66 Pr41 2.562 . S
O66 C51 1.254 . S
O67 Pr41 2.490 . S
O67 C51 1.225 . S
O68 Pr40 2.436 . S
O68 Pr41 2.695 . S
O68 C58 1.270 . S
O69 Pr41 2.512 . S
O69 C58 1.248 . S
O70 Pr40 2.438 . S
O70 C59 1.267 . S
O71 Pr41 2.437 . S
O71 C59 1.278 . S
H72 C44 0.929 . S
H73 C45 0.929 . S
H74 C47 0.931 . S
H75 C48 0.930 . S
H76 C53 0.929 . S
H77 C54 0.929 . S
H78 C56 0.931 . S
H79 C57 0.930 . S
Pr80 C82 2.880 . S
Pr80 O100 2.562 . S
Pr80 O101 2.490 . S
Pr80 O102 2.695 . S
Pr80 O103 2.512 . S
Pr80 O105 2.437 . S
Pr80 O108 2.436 . S
Pr80 O110 2.438 . S
Pr81 C91 2.880 . S
Pr81 O102 2.436 . S
Pr81 O104 2.438 . S
Pr81 O106 2.562 . S
Pr81 O107 2.490 . S
Pr81 O108 2.695 . S
Pr81 O109 2.512 . S
Pr81 O111 2.437 . S
C82 Pr80 2.880 . S
C82 C83 1.491 . S
C82 O100 1.254 . S
C82 O101 1.225 . S
C83 C82 1.491 . S
C83 C84 1.392 . S
C83 C88 1.356 . S
C84 C83 1.392 . S
C84 C85 1.368 . S
C84 H112 0.929 . S
C85 C84 1.368 . S
C85 C86 1.386 . S
C85 H113 0.929 . S
C86 C85 1.386 . S
C86 C87 1.373 . S
C87 C86 1.373 . S
C87 C88 1.409 . S
C87 H114 0.931 . S
C88 C83 1.356 . S
C88 C87 1.409 . S
C88 H115 0.930 . S
C89 O102 1.270 . S
C89 O103 1.248 . S
C90 O104 1.267 . S
C90 O105 1.278 . S
C91 Pr81 2.880 . S
C91 C92 1.491 . S
C91 O106 1.254 . S
C91 O107 1.225 . S
C92 C91 1.491 . S
C92 C93 1.392 . S
C92 C97 1.356 . S
C93 C92 1.392 . S
C93 C94 1.368 . S
C93 H116 0.929 . S
C94 C93 1.368 . S
C94 C95 1.386 . S
C94 H117 0.929 . S
C95 C94 1.386 . S
C95 C96 1.373 . S
C96 C95 1.373 . S
C96 C97 1.409 . S
C96 H118 0.931 . S
C97 C92 1.356 . S
C97 C96 1.409 . S
C97 H119 0.930 . S
C98 O108 1.270 . S
C98 O109 1.248 . S
C99 O110 1.267 . S
C99 O111 1.278 . S
O100 Pr80 2.562 . S
O100 C82 1.254 . S
O101 Pr80 2.490 . S
O101 C82 1.225 . S
O102 Pr80 2.695 . S
O102 Pr81 2.436 . S
O102 C89 1.270 . S
O103 Pr80 2.512 . S
O103 C89 1.248 . S
O104 Pr81 2.438 . S
O104 C90 1.267 . S
O105 Pr80 2.437 . S
O105 C90 1.278 . S
O106 Pr81 2.562 . S
O106 C91 1.254 . S
O107 Pr81 2.490 . S
O107 C91 1.225 . S
O108 Pr80 2.436 . S
O108 Pr81 2.695 . S
O108 C98 1.270 . S
O109 Pr81 2.512 . S
O109 C98 1.248 . S
O110 Pr80 2.438 . S
O110 C99 1.267 . S
O111 Pr81 2.437 . S
O111 C99 1.278 . S
H112 C84 0.929 . S
H113 C85 0.929 . S
H114 C87 0.931 . S
H115 C88 0.930 . S
H116 C93 0.929 . S
H117 C94 0.929 . S
H118 C96 0.931 . S
H119 C97 0.930 . S
Pr120 C122 2.880 . S
Pr120 O140 2.562 . S
Pr120 O141 2.490 . S
Pr120 O142 2.695 . S
Pr120 O143 2.512 . S
Pr120 O145 2.437 . S
Pr120 O148 2.436 . S
Pr120 O150 2.438 . S
Pr121 C131 2.880 . S
Pr121 O142 2.436 . S
Pr121 O144 2.438 . S
Pr121 O146 2.562 . S
Pr121 O147 2.490 . S
Pr121 O148 2.695 . S
Pr121 O149 2.512 . S
Pr121 O151 2.437 . S
C122 Pr120 2.880 . S
C122 C123 1.491 1_556 S
C122 O140 1.254 . S
C122 O141 1.225 . S
C123 C122 1.491 1_554 S
C123 C124 1.392 . S
C123 C128 1.356 . S
C124 C123 1.392 . S
C124 C125 1.368 . S
C124 H152 0.929 . S
C125 C124 1.368 . S
C125 C126 1.386 . S
C125 H153 0.929 . S
C126 C125 1.386 . S
C126 C127 1.373 . S
C127 C126 1.373 . S
C127 C128 1.409 . S
C127 H154 0.931 . S
C128 C123 1.356 . S
C128 C127 1.409 . S
C128 H155 0.930 . S
C129 O142 1.270 . S
C129 O143 1.248 . S
C130 O144 1.267 . S
C130 O145 1.278 . S
C131 Pr121 2.880 . S
C131 C132 1.491 . S
C131 O146 1.254 . S
C131 O147 1.225 . S
C132 C131 1.491 . S
C132 C133 1.392 . S
C132 C137 1.356 . S
C133 C132 1.392 . S
C133 C134 1.368 . S
C133 H156 0.929 . S
C134 C133 1.368 . S
C134 C135 1.386 . S
C134 H157 0.929 . S
C135 C134 1.386 . S
C135 C136 1.373 . S
C136 C135 1.373 . S
C136 C137 1.409 . S
C136 H158 0.931 . S
C137 C132 1.356 . S
C137 C136 1.409 . S
C137 H159 0.930 . S
C138 O148 1.270 . S
C138 O149 1.248 . S
C139 O150 1.267 . S
C139 O151 1.278 . S
O140 Pr120 2.562 . S
O140 C122 1.254 . S
O141 Pr120 2.490 . S
O141 C122 1.225 . S
O142 Pr120 2.695 . S
O142 Pr121 2.436 . S
O142 C129 1.270 . S
O143 Pr120 2.512 . S
O143 C129 1.248 . S
O144 Pr121 2.438 . S
O144 C130 1.267 . S
O145 Pr120 2.437 . S
O145 C130 1.278 . S
O146 Pr121 2.562 . S
O146 C131 1.254 . S
O147 Pr121 2.490 . S
O147 C131 1.225 . S
O148 Pr120 2.436 . S
O148 Pr121 2.695 . S
O148 C138 1.270 . S
O149 Pr121 2.512 . S
O149 C138 1.248 . S
O150 Pr120 2.438 . S
O150 C139 1.267 . S
O151 Pr121 2.437 . S
O151 C139 1.278 . S
H152 C124 0.929 . S
H153 C125 0.929 . S
H154 C127 0.931 . S
H155 C128 0.930 . S
H156 C133 0.929 . S
H157 C134 0.929 . S
H158 C136 0.931 . S
H159 C137 0.930 . S
Pr160 C162 2.880 . S
Pr160 O180 2.562 . S
Pr160 O181 2.490 . S
Pr160 O182 2.695 . S
Pr160 O183 2.512 . S
Pr160 O185 2.437 . S
Pr160 O188 2.436 . S
Pr160 O190 2.438 . S
Pr161 C171 2.880 . S
Pr161 O182 2.436 1_655 S
Pr161 O184 2.438 . S
Pr161 O186 2.562 . S
Pr161 O187 2.490 . S
Pr161 O188 2.695 1_655 S
Pr161 O189 2.512 . S
Pr161 O191 2.437 1_655 S
C162 Pr160 2.880 . S
C162 C163 1.491 1_556 S
C162 O180 1.254 . S
C162 O181 1.225 . S
C163 C162 1.491 1_554 S
C163 C164 1.392 . S
C163 C168 1.356 . S
C164 C163 1.392 . S
C164 C165 1.368 . S
C164 H192 0.929 . S
C165 C164 1.368 . S
C165 C166 1.386 . S
C165 H193 0.929 . S
C166 C165 1.386 . S
C166 C167 1.373 . S
C167 C166 1.373 . S
C167 C168 1.409 . S
C167 H194 0.931 . S
C168 C163 1.356 . S
C168 C167 1.409 . S
C168 H195 0.930 . S
C169 O182 1.270 . S
C169 O183 1.248 . S
C170 O184 1.267 . S
C170 O185 1.278 1_655 S
C171 Pr161 2.880 . S
C171 C172 1.491 . S
C171 O186 1.254 . S
C171 O187 1.225 . S
C172 C171 1.491 . S
C172 C173 1.392 . S
C172 C177 1.356 . S
C173 C172 1.392 . S
C173 C174 1.368 . S
C173 H196 0.929 . S
C174 C173 1.368 . S
C174 C175 1.386 . S
C174 H197 0.929 . S
C175 C174 1.386 . S
C175 C176 1.373 . S
C176 C175 1.373 . S
C176 C177 1.409 . S
C176 H198 0.931 . S
C177 C172 1.356 . S
C177 C176 1.409 . S
C177 H199 0.930 . S
C178 O188 1.281 . S
C178 O189 1.228 1_455 S
C179 O190 1.267 . S
C179 O191 1.278 . S
O180 Pr160 2.562 . S
O180 C162 1.254 . S
O181 Pr160 2.490 . S
O181 C162 1.225 . S
O182 Pr160 2.695 . S
O182 Pr161 2.436 1_455 S
O182 C169 1.270 . S
O183 Pr160 2.512 . S
O183 C169 1.248 . S
O184 Pr161 2.438 . S
O184 C170 1.267 . S
O185 Pr160 2.437 . S
O185 C170 1.278 1_455 S
O186 Pr161 2.562 . S
O186 C171 1.254 . S
O187 Pr161 2.490 . S
O187 C171 1.225 . S
O188 Pr160 2.436 . S
O188 Pr161 2.695 1_455 S
O188 C178 1.281 . S
O189 Pr161 2.512 . S
O189 C178 1.228 1_655 S
O190 Pr160 2.438 . S
O190 C179 1.267 . S
O191 Pr161 2.437 1_455 S
O191 C179 1.278 . S
H192 C164 0.929 . S
H193 C165 0.929 . S
H194 C167 0.931 . S
H195 C168 0.930 . S
H196 C173 0.929 . S
H197 C174 0.929 . S
H198 C176 0.931 . S
H199 C177 0.930 . S
Pr200 C202 2.880 . S
Pr200 O220 2.562 . S
Pr200 O221 2.490 . S
Pr200 O222 2.695 . S
Pr200 O223 2.512 . S
Pr200 O225 2.437 . S
Pr200 O228 2.436 . S
Pr200 O230 2.438 . S
Pr201 C211 2.880 1_554 S
Pr201 O222 2.436 . S
Pr201 O224 2.438 . S
Pr201 O226 2.562 . S
Pr201 O227 2.490 . S
Pr201 O228 2.695 . S
Pr201 O229 2.512 . S
Pr201 O231 2.437 . S
C202 Pr200 2.880 . S
C202 C203 1.491 . S
C202 O220 1.254 . S
C202 O221 1.225 . S
C203 C202 1.491 . S
C203 C204 1.392 . S
C203 C208 1.356 . S
C204 C203 1.392 . S
C204 C205 1.368 . S
C204 H232 0.929 . S
C205 C204 1.368 . S
C205 C206 1.386 . S
C205 H233 0.929 . S
C206 C205 1.386 . S
C206 C207 1.373 . S
C207 C206 1.373 . S
C207 C208 1.409 . S
C207 H234 0.931 . S
C208 C203 1.356 . S
C208 C207 1.409 . S
C208 H235 0.930 . S
C209 O222 1.270 . S
C209 O223 1.248 . S
C210 O224 1.267 . S
C210 O225 1.278 . S
C211 Pr201 2.880 1_556 S
C211 C212 1.491 . S
C211 O226 1.254 1_556 S
C211 O227 1.225 1_556 S
C212 C211 1.491 . S
C212 C213 1.392 . S
C212 C217 1.356 . S
C213 C212 1.392 . S
C213 C214 1.368 . S
C213 H236 0.929 . S
C214 C213 1.368 . S
C214 C215 1.386 . S
C214 H237 0.929 . S
C215 C214 1.386 . S
C215 C216 1.373 . S
C216 C215 1.373 . S
C216 C217 1.409 . S
C216 H238 0.931 . S
C217 C212 1.356 . S
C217 C216 1.409 . S
C217 H239 0.930 . S
C218 O228 1.270 . S
C218 O229 1.248 . S
C219 O230 1.267 . S
C219 O231 1.278 . S
O220 Pr200 2.562 . S
O220 C202 1.254 . S
O221 Pr200 2.490 . S
O221 C202 1.225 . S
O222 Pr200 2.695 . S
O222 Pr201 2.436 . S
O222 C209 1.270 . S
O223 Pr200 2.512 . S
O223 C209 1.248 . S
O224 Pr201 2.438 . S
O224 C210 1.267 . S
O225 Pr200 2.437 . S
O225 C210 1.278 . S
O226 Pr201 2.562 . S
O226 C211 1.254 1_554 S
O227 Pr201 2.490 . S
O227 C211 1.225 1_554 S
O228 Pr200 2.436 . S
O228 Pr201 2.695 . S
O228 C218 1.270 . S
O229 Pr201 2.512 . S
O229 C218 1.248 . S
O230 Pr200 2.438 . S
O230 C219 1.267 . S
O231 Pr201 2.437 . S
O231 C219 1.278 . S
H232 C204 0.929 . S
H233 C205 0.929 . S
H234 C207 0.931 . S
H235 C208 0.930 . S
H236 C213 0.929 . S
H237 C214 0.929 . S
H238 C216 0.931 . S
H239 C217 0.930 . S
Pr240 C242 2.880 . S
Pr240 O260 2.562 . S
Pr240 O261 2.490 . S
Pr240 O262 2.695 . S
Pr240 O263 2.512 . S
Pr240 O265 2.437 . S
Pr240 O268 2.436 . S
Pr240 O270 2.438 . S
Pr241 C251 2.880 . S
Pr241 O262 2.436 . S
Pr241 O264 2.438 . S
Pr241 O266 2.562 . S
Pr241 O267 2.490 . S
Pr241 O268 2.695 . S
Pr241 O269 2.512 . S
Pr241 O271 2.437 . S
C242 Pr240 2.880 . S
C242 C243 1.491 . S
C242 O260 1.254 . S
C242 O261 1.225 . S
C243 C242 1.491 . S
C243 C244 1.392 . S
C243 C248 1.356 . S
C244 C243 1.392 . S
C244 C245 1.368 . S
C244 H272 0.929 . S
C245 C244 1.368 . S
C245 C246 1.386 . S
C245 H273 0.929 . S
C246 C245 1.386 . S
C246 C247 1.373 . S
C247 C246 1.373 . S
C247 C248 1.409 . S
C247 H274 0.931 . S
C248 C243 1.356 . S
C248 C247 1.409 . S
C248 H275 0.930 . S
C249 O262 1.270 . S
C249 O263 1.248 . S
C250 O264 1.267 . S
C250 O265 1.278 . S
C251 Pr241 2.880 . S
C251 C252 1.491 . S
C251 O266 1.254 . S
C251 O267 1.225 . S
C252 C251 1.491 . S
C252 C253 1.392 . S
C252 C257 1.356 . S
C253 C252 1.392 . S
C253 C254 1.368 . S
C253 H276 0.929 . S
C254 C253 1.368 . S
C254 C255 1.386 . S
C254 H277 0.929 . S
C255 C254 1.386 . S
C255 C256 1.373 . S
C256 C255 1.373 . S
C256 C257 1.409 . S
C256 H278 0.931 . S
C257 C252 1.356 . S
C257 C256 1.409 . S
C257 H279 0.930 . S
C258 O268 1.270 . S
C258 O269 1.248 . S
C259 O270 1.267 . S
C259 O271 1.278 . S
O260 Pr240 2.562 . S
O260 C242 1.254 . S
O261 Pr240 2.490 . S
O261 C242 1.225 . S
O262 Pr240 2.695 . S
O262 Pr241 2.436 . S
O262 C249 1.270 . S
O263 Pr240 2.512 . S
O263 C249 1.248 . S
O264 Pr241 2.438 . S
O264 C250 1.267 . S
O265 Pr240 2.437 . S
O265 C250 1.278 . S
O266 Pr241 2.562 . S
O266 C251 1.254 . S
O267 Pr241 2.490 . S
O267 C251 1.225 . S
O268 Pr240 2.436 . S
O268 Pr241 2.695 . S
O268 C258 1.270 . S
O269 Pr241 2.512 . S
O269 C258 1.248 . S
O270 Pr240 2.438 . S
O270 C259 1.267 . S
O271 Pr241 2.437 . S
O271 C259 1.278 . S
H272 C244 0.929 . S
H273 C245 0.929 . S
H274 C247 0.931 . S
H275 C248 0.930 . S
H276 C253 0.929 . S
H277 C254 0.929 . S
H278 C256 0.931 . S
H279 C257 0.930 . S
Pr280 C282 2.880 . S
Pr280 O300 2.562 . S
Pr280 O301 2.490 . S
Pr280 O302 2.695 . S
Pr280 O303 2.512 . S
Pr280 O305 2.437 . S
Pr280 O308 2.436 . S
Pr280 O310 2.438 . S
Pr281 C291 2.880 . S
Pr281 O302 2.436 . S
Pr281 O304 2.438 . S
Pr281 O306 2.562 . S
Pr281 O307 2.490 . S
Pr281 O308 2.695 . S
Pr281 O309 2.512 . S
Pr281 O311 2.437 . S
C282 Pr280 2.880 . S
C282 C283 1.491 . S
C282 O300 1.254 . S
C282 O301 1.225 . S
C283 C282 1.491 . S
C283 C284 1.392 . S
C283 C288 1.356 . S
C284 C283 1.392 . S
C284 C285 1.368 . S
C284 H312 0.929 . S
C285 C284 1.368 . S
C285 C286 1.386 . S
C285 H313 0.929 . S
C286 C285 1.386 . S
C286 C287 1.373 . S
C287 C286 1.373 . S
C287 C288 1.409 . S
C287 H314 0.931 . S
C288 C283 1.356 . S
C288 C287 1.409 . S
C288 H315 0.930 . S
C289 O302 1.270 . S
C289 O303 1.248 . S
C290 O304 1.267 . S
C290 O305 1.278 . S
C291 Pr281 2.880 . S
C291 C292 1.491 . S
C291 O306 1.254 . S
C291 O307 1.225 . S
C292 C291 1.491 . S
C292 C293 1.392 . S
C292 C297 1.356 . S
C293 C292 1.392 . S
C293 C294 1.368 . S
C293 H316 0.929 . S
C294 C293 1.368 . S
C294 C295 1.386 . S
C294 H317 0.929 . S
C295 C294 1.386 . S
C295 C296 1.373 . S
C296 C295 1.373 . S
C296 C297 1.409 . S
C296 H318 0.931 . S
C297 C292 1.356 . S
C297 C296 1.409 . S
C297 H319 0.930 . S
C298 O308 1.270 . S
C298 O309 1.248 . S
C299 O310 1.267 . S
C299 O311 1.278 . S
O300 Pr280 2.562 . S
O300 C282 1.254 . S
O301 Pr280 2.490 . S
O301 C282 1.225 . S
O302 Pr280 2.695 . S
O302 Pr281 2.436 . S
O302 C289 1.270 . S
O303 Pr280 2.512 . S
O303 C289 1.248 . S
O304 Pr281 2.438 . S
O304 C290 1.267 . S
O305 Pr280 2.437 . S
O305 C290 1.278 . S
O306 Pr281 2.562 . S
O306 C291 1.254 . S
O307 Pr281 2.490 . S
O307 C291 1.225 . S
O308 Pr280 2.436 . S
O308 Pr281 2.695 . S
O308 C298 1.270 . S
O309 Pr281 2.512 . S
O309 C298 1.248 . S
O310 Pr280 2.438 . S
O310 C299 1.267 . S
O311 Pr281 2.437 . S
O311 C299 1.278 . S
H312 C284 0.929 . S
H313 C285 0.929 . S
H314 C287 0.931 . S
H315 C288 0.930 . S
H316 C293 0.929 . S
H317 C294 0.929 . S
H318 C296 0.931 . S
H319 C297 0.930 . S
Pr320 C322 2.880 . S
Pr320 O340 2.562 . S
Pr320 O341 2.490 . S
Pr320 O342 2.695 . S
Pr320 O343 2.512 . S
Pr320 O345 2.437 . S
Pr320 O348 2.436 . S
Pr320 O350 2.438 . S
Pr321 C331 2.880 . S
Pr321 O342 2.436 . S
Pr321 O344 2.438 . S
Pr321 O346 2.562 . S
Pr321 O347 2.490 . S
Pr321 O348 2.695 . S
Pr321 O349 2.512 . S
Pr321 O351 2.437 . S
C322 Pr320 2.880 . S
C322 C323 1.491 . S
C322 O340 1.254 . S
C322 O341 1.225 . S
C323 C322 1.491 . S
C323 C324 1.392 . S
C323 C328 1.356 . S
C324 C323 1.392 . S
C324 C325 1.368 . S
C324 H352 0.929 . S
C325 C324 1.368 . S
C325 C326 1.386 . S
C325 H353 0.929 . S
C326 C325 1.386 . S
C326 C327 1.373 . S
C327 C326 1.373 . S
C327 C328 1.409 . S
C327 H354 0.931 . S
C328 C323 1.356 . S
C328 C327 1.409 . S
C328 H355 0.930 . S
C329 O342 1.270 . S
C329 O343 1.248 . S
C330 O344 1.267 . S
C330 O345 1.278 . S
C331 Pr321 2.880 . S
C331 C332 1.491 . S
C331 O346 1.254 . S
C331 O347 1.225 . S
C332 C331 1.491 . S
C332 C333 1.392 . S
C332 C337 1.356 . S
C333 C332 1.392 . S
C333 C334 1.368 . S
C333 H356 0.929 . S
C334 C333 1.368 . S
C334 C335 1.386 . S
C334 H357 0.929 . S
C335 C334 1.386 . S
C335 C336 1.373 . S
C336 C335 1.373 . S
C336 C337 1.409 . S
C336 H358 0.931 . S
C337 C332 1.356 . S
C337 C336 1.409 . S
C337 H359 0.930 . S
C338 O348 1.270 . S
C338 O349 1.248 . S
C339 O350 1.267 . S
C339 O351 1.278 . S
O340 Pr320 2.562 . S
O340 C322 1.254 . S
O341 Pr320 2.490 . S
O341 C322 1.225 . S
O342 Pr320 2.695 . S
O342 Pr321 2.436 . S
O342 C329 1.270 . S
O343 Pr320 2.512 . S
O343 C329 1.248 . S
O344 Pr321 2.438 . S
O344 C330 1.267 . S
O345 Pr320 2.437 . S
O345 C330 1.278 . S
O346 Pr321 2.562 . S
O346 C331 1.254 . S
O347 Pr321 2.490 . S
O347 C331 1.225 . S
O348 Pr320 2.436 . S
O348 Pr321 2.695 . S
O348 C338 1.270 . S
O349 Pr321 2.512 . S
O349 C338 1.248 . S
O350 Pr320 2.438 . S
O350 C339 1.267 . S
O351 Pr321 2.437 . S
O351 C339 1.278 . S
H352 C324 0.929 . S
H353 C325 0.929 . S
H354 C327 0.931 . S
H355 C328 0.930 . S
H356 C333 0.929 . S
H357 C334 0.929 . S
H358 C336 0.931 . S
H359 C337 0.930 . S
Pr360 C362 2.880 . S
Pr360 O380 2.562 . S
Pr360 O381 2.490 . S
Pr360 O382 2.695 . S
Pr360 O383 2.512 . S
Pr360 O385 2.437 . S
Pr360 O388 2.436 . S
Pr360 O390 2.438 . S
Pr361 C371 2.880 . S
Pr361 O382 2.436 . S
Pr361 O384 2.438 . S
Pr361 O386 2.562 . S
Pr361 O387 2.490 . S
Pr361 O388 2.695 . S
Pr361 O389 2.512 . S
Pr361 O391 2.437 . S
C362 Pr360 2.880 . S
C362 C363 1.491 . S
C362 O380 1.254 . S
C362 O381 1.225 . S
C363 C362 1.491 . S
C363 C364 1.392 . S
C363 C368 1.356 . S
C364 C363 1.392 . S
C364 C365 1.368 . S
C364 H392 0.929 . S
C365 C364 1.368 . S
C365 C366 1.386 . S
C365 H393 0.929 . S
C366 C365 1.386 . S
C366 C367 1.373 . S
C367 C366 1.373 . S
C367 C368 1.409 . S
C367 H394 0.931 . S
C368 C363 1.356 . S
C368 C367 1.409 . S
C368 H395 0.930 . S
C369 O382 1.270 . S
C369 O383 1.248 . S
C370 O384 1.267 . S
C370 O385 1.278 . S
C371 Pr361 2.880 . S
C371 C372 1.491 . S
C371 O386 1.254 . S
C371 O387 1.225 . S
C372 C371 1.491 . S
C372 C373 1.392 . S
C372 C377 1.356 . S
C373 C372 1.392 . S
C373 C374 1.368 1_554 S
C373 H396 0.929 . S
C374 C373 1.368 1_556 S
C374 C375 1.386 . S
C374 H397 0.929 . S
C375 C374 1.386 . S
C375 C376 1.373 . S
C376 C375 1.373 . S
C376 C377 1.409 1_556 S
C376 H398 0.931 . S
C377 C372 1.356 . S
C377 C376 1.409 1_554 S
C377 H399 0.930 . S
C378 O388 1.270 . S
C378 O389 1.248 . S
C379 O390 1.267 . S
C379 O391 1.278 . S
O380 Pr360 2.562 . S
O380 C362 1.254 . S
O381 Pr360 2.490 . S
O381 C362 1.225 . S
O382 Pr360 2.695 . S
O382 Pr361 2.436 . S
O382 C369 1.270 . S
O383 Pr360 2.512 . S
O383 C369 1.248 . S
O384 Pr361 2.438 . S
O384 C370 1.267 . S
O385 Pr360 2.437 . S
O385 C370 1.278 . S
O386 Pr361 2.562 . S
O386 C371 1.254 . S
O387 Pr361 2.490 . S
O387 C371 1.225 . S
O388 Pr360 2.436 . S
O388 Pr361 2.695 . S
O388 C378 1.270 . S
O389 Pr361 2.512 . S
O389 C378 1.248 . S
O390 Pr360 2.438 . S
O390 C379 1.267 . S
O391 Pr361 2.437 . S
O391 C379 1.278 . S
H392 C364 0.929 . S
H393 C365 0.929 . S
H394 C367 0.931 . S
H395 C368 0.930 . S
H396 C373 0.929 . S
H397 C374 0.929 . S
H398 C376 0.931 . S
H399 C377 0.930 . S
Pr400 C402 2.880 . S
Pr400 O420 2.562 . S
Pr400 O421 2.490 . S
Pr400 O422 2.695 . S
Pr400 O423 2.512 . S
Pr400 O425 2.437 . S
Pr400 O428 2.436 . S
Pr400 O430 2.438 . S
Pr401 C411 2.880 . S
Pr401 O422 2.436 . S
Pr401 O424 2.438 . S
Pr401 O426 2.562 . S
Pr401 O427 2.490 . S
Pr401 O428 2.695 . S
Pr401 O429 2.512 . S
Pr401 O431 2.437 . S
C402 Pr400 2.880 . S
C402 C403 1.491 . S
C402 O420 1.254 . S
C402 O421 1.225 . S
C403 C402 1.491 . S
C403 C404 1.392 . S
C403 C408 1.356 1_556 S
C404 C403 1.392 . S
C404 C405 1.368 1_556 S
C404 H432 0.929 . S
C405 C404 1.368 1_554 S
C405 C406 1.386 . S
C405 H433 0.929 . S
C406 C405 1.386 . S
C406 C407 1.373 . S
C407 C406 1.373 . S
C407 C408 1.409 . S
C407 H434 0.931 . S
C408 C403 1.356 1_554 S
C408 C407 1.409 . S
C408 H435 0.930 . S
C409 O422 1.270 . S
C409 O423 1.248 . S
C410 O424 1.267 . S
C410 O425 1.278 . S
C411 Pr401 2.880 . S
C411 C412 1.491 . S
C411 O426 1.254 . S
C411 O427 1.225 . S
C412 C411 1.491 . S
C412 C413 1.392 . S
C412 C417 1.356 . S
C413 C412 1.392 . S
C413 C414 1.368 . S
C413 H436 0.929 . S
C414 C413 1.368 . S
C414 C415 1.386 . S
C414 H437 0.929 . S
C415 C414 1.386 . S
C415 C416 1.373 . S
C416 C415 1.373 . S
C416 C417 1.409 . S
C416 H438 0.931 . S
C417 C412 1.356 . S
C417 C416 1.409 . S
C417 H439 0.930 . S
C418 O428 1.270 . S
C418 O429 1.248 . S
C419 O430 1.267 . S
C419 O431 1.278 . S
O420 Pr400 2.562 . S
O420 C402 1.254 . S
O421 Pr400 2.490 . S
O421 C402 1.225 . S
O422 Pr400 2.695 . S
O422 Pr401 2.436 . S
O422 C409 1.270 . S
O423 Pr400 2.512 . S
O423 C409 1.248 . S
O424 Pr401 2.438 . S
O424 C410 1.267 . S
O425 Pr400 2.437 . S
O425 C410 1.278 . S
O426 Pr401 2.562 . S
O426 C411 1.254 . S
O427 Pr401 2.490 . S
O427 C411 1.225 . S
O428 Pr400 2.436 . S
O428 Pr401 2.695 . S
O428 C418 1.270 . S
O429 Pr401 2.512 . S
O429 C418 1.248 . S
O430 Pr400 2.438 . S
O430 C419 1.267 . S
O431 Pr401 2.437 . S
O431 C419 1.278 . S
H432 C404 0.929 . S
H433 C405 0.929 . S
H434 C407 0.931 . S
H435 C408 0.930 . S
H436 C413 0.929 . S
H437 C414 0.929 . S
H438 C416 0.931 . S
H439 C417 0.930 . S
Pr440 C442 2.880 . S
Pr440 O460 2.562 . S
Pr440 O461 2.490 . S
Pr440 O462 2.695 . S
Pr440 O463 2.512 . S
Pr440 O465 2.437 . S
Pr440 O468 2.436 . S
Pr440 O470 2.438 . S
Pr441 C451 2.880 . S
Pr441 O462 2.436 . S
Pr441 O464 2.438 . S
Pr441 O466 2.562 . S
Pr441 O467 2.490 . S
Pr441 O468 2.695 . S
Pr441 O469 2.512 . S
Pr441 O471 2.437 . S
C442 Pr440 2.880 . S
C442 C443 1.491 . S
C442 O460 1.254 . S
C442 O461 1.225 . S
C443 C442 1.491 . S
C443 C444 1.392 . S
C443 C448 1.356 . S
C444 C443 1.392 . S
C444 C445 1.368 . S
C444 H472 0.929 . S
C445 C444 1.368 . S
C445 C446 1.386 . S
C445 H473 0.929 . S
C446 C445 1.386 . S
C446 C447 1.373 . S
C447 C446 1.373 . S
C447 C448 1.409 . S
C447 H474 0.931 . S
C448 C443 1.356 . S
C448 C447 1.409 . S
C448 H475 0.930 . S
C449 O462 1.270 . S
C449 O463 1.248 . S
C450 O464 1.267 . S
C450 O465 1.278 . S
C451 Pr441 2.880 . S
C451 C452 1.491 . S
C451 O466 1.254 . S
C451 O467 1.225 . S
C452 C451 1.491 . S
C452 C453 1.392 . S
C452 C457 1.356 . S
C453 C452 1.392 . S
C453 C454 1.368 . S
C453 H476 0.929 . S
C454 C453 1.368 . S
C454 C455 1.386 . S
C454 H477 0.929 . S
C455 C454 1.386 . S
C455 C456 1.373 . S
C456 C455 1.373 . S
C456 C457 1.409 . S
C456 H478 0.931 . S
C457 C452 1.356 . S
C457 C456 1.409 . S
C457 H479 0.930 . S
C458 O468 1.270 . S
C458 O469 1.248 . S
C459 O470 1.267 . S
C459 O471 1.278 . S
O460 Pr440 2.562 . S
O460 C442 1.254 . S
O461 Pr440 2.490 . S
O461 C442 1.225 . S
O462 Pr440 2.695 . S
O462 Pr441 2.436 . S
O462 C449 1.270 . S
O463 Pr440 2.512 . S
O463 C449 1.248 . S
O464 Pr441 2.438 . S
O464 C450 1.267 . S
O465 Pr440 2.437 . S
O465 C450 1.278 . S
O466 Pr441 2.562 . S
O466 C451 1.254 . S
O467 Pr441 2.490 . S
O467 C451 1.225 . S
O468 Pr440 2.436 . S
O468 Pr441 2.695 . S
O468 C458 1.270 . S
O469 Pr441 2.512 . S
O469 C458 1.248 . S
O470 Pr440 2.438 . S
O470 C459 1.267 . S
O471 Pr441 2.437 . S
O471 C459 1.278 . S
H472 C444 0.929 . S
H473 C445 0.929 . S
H474 C447 0.931 . S
H475 C448 0.930 . S
H476 C453 0.929 . S
H477 C454 0.929 . S
H478 C456 0.931 . S
H479 C457 0.930 . S
Pr480 C482 2.880 . S
Pr480 O500 2.562 . S
Pr480 O501 2.490 . S
Pr480 O502 2.695 . S
Pr480 O503 2.512 . S
Pr480 O505 2.437 . S
Pr480 O508 2.436 . S
Pr480 O510 2.438 . S
Pr481 C491 2.880 . S
Pr481 O502 2.436 . S
Pr481 O504 2.438 . S
Pr481 O506 2.562 . S
Pr481 O507 2.490 . S
Pr481 O508 2.695 . S
Pr481 O509 2.512 . S
Pr481 O511 2.437 . S
C482 Pr480 2.880 . S
C482 C483 1.491 . S
C482 O500 1.254 . S
C482 O501 1.225 . S
C483 C482 1.491 . S
C483 C484 1.392 . S
C483 C488 1.356 . S
C484 C483 1.392 . S
C484 C485 1.368 . S
C484 H512 0.929 . S
C485 C484 1.368 . S
C485 C486 1.386 . S
C485 H513 0.929 . S
C486 C485 1.386 . S
C486 C487 1.373 . S
C487 C486 1.373 . S
C487 C488 1.409 . S
C487 H514 0.931 . S
C488 C483 1.356 . S
C488 C487 1.409 . S
C488 H515 0.930 . S
C489 O502 1.270 . S
C489 O503 1.248 . S
C490 O504 1.267 . S
C490 O505 1.278 . S
C491 Pr481 2.880 . S
C491 C492 1.491 . S
C491 O506 1.254 . S
C491 O507 1.225 . S
C492 C491 1.491 . S
C492 C493 1.392 . S
C492 C497 1.356 . S
C493 C492 1.392 . S
C493 C494 1.368 . S
C493 H516 0.929 . S
C494 C493 1.368 . S
C494 C495 1.386 . S
C494 H517 0.929 . S
C495 C494 1.386 . S
C495 C496 1.373 . S
C496 C495 1.373 . S
C496 C497 1.409 . S
C496 H518 0.931 . S
C497 C492 1.356 . S
C497 C496 1.409 . S
C497 H519 0.930 . S
C498 O508 1.270 . S
C498 O509 1.248 . S
C499 O510 1.267 . S
C499 O511 1.278 . S
O500 Pr480 2.562 . S
O500 C482 1.254 . S
O501 Pr480 2.490 . S
O501 C482 1.225 . S
O502 Pr480 2.695 . S
O502 Pr481 2.436 . S
O502 C489 1.270 . S
O503 Pr480 2.512 . S
O503 C489 1.248 . S
O504 Pr481 2.438 . S
O504 C490 1.267 . S
O505 Pr480 2.437 . S
O505 C490 1.278 . S
O506 Pr481 2.562 . S
O506 C491 1.254 . S
O507 Pr481 2.490 . S
O507 C491 1.225 . S
O508 Pr480 2.436 . S
O508 Pr481 2.695 . S
O508 C498 1.270 . S
O509 Pr481 2.512 . S
O509 C498 1.248 . S
O510 Pr480 2.438 . S
O510 C499 1.267 . S
O511 Pr481 2.437 . S
O511 C499 1.278 . S
H512 C484 0.929 . S
H513 C485 0.929 . S
H514 C487 0.931 . S
H515 C488 0.930 . S
H516 C493 0.929 . S
H517 C494 0.929 . S
H518 C496 0.931 . S
H519 C497 0.930 . S
Pr520 C522 2.880 . S
Pr520 O540 2.562 . S
Pr520 O541 2.490 . S
Pr520 O542 2.695 1_655 S
Pr520 O543 2.507 1_655 S
Pr520 O545 2.437 1_655 S
Pr520 O548 2.436 1_655 S
Pr520 O550 2.438 . S
Pr521 C531 2.880 . S
Pr521 O542 2.436 . S
Pr521 O544 2.438 . S
Pr521 O546 2.562 . S
Pr521 O547 2.490 . S
Pr521 O548 2.695 . S
Pr521 O549 2.512 . S
Pr521 O551 2.437 . S
C522 Pr520 2.880 . S
C522 C523 1.491 1_554 S
C522 O540 1.254 . S
C522 O541 1.225 . S
C523 C522 1.491 1_556 S
C523 C524 1.392 . S
C523 C528 1.356 . S
C524 C523 1.392 . S
C524 C525 1.368 . S
C524 H552 0.929 . S
C525 C524 1.368 . S
C525 C526 1.386 . S
C525 H553 0.929 . S
C526 C525 1.386 . S
C526 C527 1.373 . S
C527 C526 1.373 . S
C527 C528 1.409 . S
C527 H554 0.931 . S
C528 C523 1.356 . S
C528 C527 1.409 . S
C528 H555 0.930 . S
C529 O542 1.270 . S
C529 O543 1.264 . S
C530 O544 1.267 . S
C530 O545 1.278 . S
C531 Pr521 2.880 . S
C531 C532 1.491 . S
C531 O546 1.254 . S
C531 O547 1.225 . S
C532 C531 1.491 . S
C532 C533 1.392 . S
C532 C537 1.356 . S
C533 C532 1.392 . S
C533 C534 1.368 . S
C533 H556 0.929 . S
C534 C533 1.368 . S
C534 C535 1.386 . S
C534 H557 0.929 . S
C535 C534 1.386 . S
C535 C536 1.373 . S
C536 C535 1.373 . S
C536 C537 1.409 . S
C536 H558 0.931 . S
C537 C532 1.356 . S
C537 C536 1.409 . S
C537 H559 0.930 . S
C538 O548 1.270 . S
C538 O549 1.248 . S
C539 O550 1.267 . S
C539 O551 1.278 1_655 S
O540 Pr520 2.562 . S
O540 C522 1.254 . S
O541 Pr520 2.490 . S
O541 C522 1.225 . S
O542 Pr520 2.695 1_455 S
O542 Pr521 2.436 . S
O542 C529 1.270 . S
O543 Pr520 2.507 1_455 S
O543 C529 1.264 . S
O544 Pr521 2.438 . S
O544 C530 1.267 . S
O545 Pr520 2.437 1_455 S
O545 C530 1.278 . S
O546 Pr521 2.562 . S
O546 C531 1.254 . S
O547 Pr521 2.490 . S
O547 C531 1.225 . S
O548 Pr520 2.436 1_455 S
O548 Pr521 2.695 . S
O548 C538 1.270 . S
O549 Pr521 2.512 . S
O549 C538 1.248 . S
O550 Pr520 2.438 . S
O550 C539 1.267 . S
O551 Pr521 2.437 . S
O551 C539 1.278 1_455 S
H552 C524 0.929 . S
H553 C525 0.929 . S
H554 C527 0.931 . S
H555 C528 0.930 . S
H556 C533 0.929 . S
H557 C534 0.929 . S
H558 C536 0.931 . S
H559 C537 0.930 . S
Pr560 C562 2.880 . S
Pr560 O580 2.562 . S
Pr560 O581 2.490 . S
Pr560 O582 2.695 . S
Pr560 O583 2.512 . S
Pr560 O585 2.437 . S
Pr560 O588 2.436 . S
Pr560 O590 2.438 . S
Pr561 C571 2.880 . S
Pr561 O582 2.436 . S
Pr561 O584 2.438 . S
Pr561 O586 2.562 . S
Pr561 O587 2.490 . S
Pr561 O588 2.695 . S
Pr561 O589 2.512 . S
Pr561 O591 2.437 . S
C562 Pr560 2.880 . S
C562 C563 1.491 . S
C562 O580 1.254 . S
C562 O581 1.225 . S
C563 C562 1.491 . S
C563 C564 1.392 . S
C563 C568 1.356 . S
C564 C563 1.392 . S
C564 C565 1.368 . S
C564 H592 0.929 . S
C565 C564 1.368 . S
C565 C566 1.386 . S
C565 H593 0.929 . S
C566 C565 1.386 . S
C566 C567 1.373 . S
C567 C566 1.373 . S
C567 C568 1.409 . S
C567 H594 0.931 . S
C568 C563 1.356 . S
C568 C567 1.409 . S
C568 H595 0.930 . S
C569 O582 1.270 . S
C569 O583 1.248 . S
C570 O584 1.267 . S
C570 O585 1.278 . S
C571 Pr561 2.880 . S
C571 C572 1.491 . S
C571 O586 1.254 . S
C571 O587 1.225 . S
C572 C571 1.491 . S
C572 C573 1.392 . S
C572 C577 1.356 . S
C573 C572 1.392 . S
C573 C574 1.368 . S
C573 H596 0.929 . S
C574 C573 1.368 . S
C574 C575 1.386 . S
C574 H597 0.929 . S
C575 C574 1.386 . S
C575 C576 1.373 . S
C576 C575 1.373 . S
C576 C577 1.409 . S
C576 H598 0.931 . S
C577 C572 1.356 . S
C577 C576 1.409 . S
C577 H599 0.930 . S
C578 O588 1.270 . S
C578 O589 1.248 . S
C579 O590 1.267 . S
C579 O591 1.278 . S
O580 Pr560 2.562 . S
O580 C562 1.254 . S
O581 Pr560 2.490 . S
O581 C562 1.225 . S
O582 Pr560 2.695 . S
O582 Pr561 2.436 . S
O582 C569 1.270 . S
O583 Pr560 2.512 . S
O583 C569 1.248 . S
O584 Pr561 2.438 . S
O584 C570 1.267 . S
O585 Pr560 2.437 . S
O585 C570 1.278 . S
O586 Pr561 2.562 . S
O586 C571 1.254 . S
O587 Pr561 2.490 . S
O587 C571 1.225 . S
O588 Pr560 2.436 . S
O588 Pr561 2.695 . S
O588 C578 1.270 . S
O589 Pr561 2.512 . S
O589 C578 1.248 . S
O590 Pr560 2.438 . S
O590 C579 1.267 . S
O591 Pr561 2.437 . S
O591 C579 1.278 . S
H592 C564 0.929 . S
H593 C565 0.929 . S
H594 C567 0.931 . S
H595 C568 0.930 . S
H596 C573 0.929 . S
H597 C574 0.929 . S
H598 C576 0.931 . S
H599 C577 0.930 . S
Pr600 C602 2.880 . S
Pr600 O620 2.562 . S
Pr600 O621 2.490 . S
Pr600 O622 2.695 1_655 S
Pr600 O623 2.512 . S
Pr600 O625 2.437 1_655 S
Pr600 O628 2.436 1_655 S
Pr600 O630 2.438 . S
Pr601 C611 2.880 . S
Pr601 O622 2.436 . S
Pr601 O624 2.438 . S
Pr601 O626 2.562 . S
Pr601 O627 2.490 . S
Pr601 O628 2.695 . S
Pr601 O629 2.512 . S
Pr601 O631 2.437 . S
C602 Pr600 2.880 . S
C602 C603 1.491 1_556 S
C602 O620 1.254 . S
C602 O621 1.225 . S
C603 C602 1.491 1_554 S
C603 C604 1.392 . S
C603 C608 1.356 . S
C604 C603 1.392 . S
C604 C605 1.368 . S
C604 H632 0.929 . S
C605 C604 1.368 . S
C605 C606 1.386 . S
C605 H633 0.929 . S
C606 C605 1.386 . S
C606 C607 1.373 . S
C607 C606 1.373 . S
C607 C608 1.409 . S
C607 H634 0.931 . S
C608 C603 1.356 . S
C608 C607 1.409 . S
C608 H635 0.930 . S
C609 O622 1.270 . S
C609 O623 1.248 1_455 S
C610 O624 1.267 . S
C610 O625 1.278 . S
C611 Pr601 2.880 . S
C611 C612 1.491 . S
C611 O626 1.254 . S
C611 O627 1.225 . S
C612 C611 1.491 . S
C612 C613 1.392 . S
C612 C617 1.356 . S
C613 C612 1.392 . S
C613 C614 1.368 . S
C613 H636 0.929 . S
C614 C613 1.368 . S
C614 C615 1.386 . S
C614 H637 0.929 . S
C615 C614 1.386 . S
C615 C616 1.373 . S
C616 C615 1.373 . S
C616 C617 1.409 . S
C616 H638 0.931 . S
C617 C612 1.356 . S
C617 C616 1.409 . S
C617 H639 0.930 . S
C618 O628 1.270 . S
C618 O629 1.248 . S
C619 O630 1.267 . S
C619 O631 1.278 1_655 S
O620 Pr600 2.562 . S
O620 C602 1.254 . S
O621 Pr600 2.490 . S
O621 C602 1.225 . S
O622 Pr600 2.695 1_455 S
O622 Pr601 2.436 . S
O622 C609 1.270 . S
O623 Pr600 2.512 . S
O623 C609 1.248 1_655 S
O624 Pr601 2.438 . S
O624 C610 1.267 . S
O625 Pr600 2.437 1_455 S
O625 C610 1.278 . S
O626 Pr601 2.562 . S
O626 C611 1.254 . S
O627 Pr601 2.490 . S
O627 C611 1.225 . S
O628 Pr600 2.436 1_455 S
O628 Pr601 2.695 . S
O628 C618 1.270 . S
O629 Pr601 2.512 . S
O629 C618 1.248 . S
O630 Pr600 2.438 . S
O630 C619 1.267 . S
O631 Pr601 2.437 . S
O631 C619 1.278 1_455 S
H632 C604 0.929 . S
H633 C605 0.929 . S
H634 C607 0.931 . S
H635 C608 0.930 . S
H636 C613 0.929 . S
H637 C614 0.929 . S
H638 C616 0.931 . S
H639 C617 0.930 . S
H640 C648 0.950 . S
H641 C653 0.950 . S
H642 C650 0.950 . S
H643 C652 0.950 . S
H644 C654 0.950 . S
H645 C656 0.950 . S
H646 C658 0.950 . S
H647 C659 0.950 . S
C648 H640 0.950 . S
C648 C649 1.386 . S
C648 C650 1.391 1_554 S
C649 C648 1.386 . S
C649 C653 1.393 . S
C650 H642 0.950 . S
C650 C648 1.391 1_556 S
C650 C651 1.400 . S
C651 C650 1.400 . S
C651 C652 1.398 1_556 S
C651 C657 1.491 . S
C652 H643 0.950 . S
C652 C651 1.398 1_554 S
C652 C653 1.391 . S
C653 H641 0.950 . S
C653 C649 1.393 . S
C653 C652 1.391 . S
C654 H644 0.950 . S
C654 C655 1.386 . S
C654 C656 1.391 . S
C655 C654 1.386 . S
C655 C659 1.393 . S
C656 H645 0.950 . S
C656 C654 1.391 . S
C656 C657 1.400 . S
C657 C651 1.491 . S
C657 C656 1.400 . S
C657 C658 1.398 . S
C658 H646 0.950 . S
C658 C657 1.398 . S
C658 C659 1.391 . S
C659 H647 0.950 . S
C659 C655 1.393 . S
C659 C658 1.391 . S
H660 C668 0.950 . S
H661 C673 0.950 . S
H662 C670 0.950 . S
H663 C672 0.950 . S
H664 C674 0.950 . S
H665 C676 0.950 . S
H666 C678 0.950 . S
H667 C679 0.950 . S
C668 H660 0.950 . S
C668 C669 1.386 . S
C668 C670 1.391 . S
C669 C668 1.386 . S
C669 C673 1.393 . S
C670 H662 0.950 . S
C670 C668 1.391 . S
C670 C671 1.400 . S
C671 C670 1.400 . S
C671 C672 1.398 . S
C671 C677 1.491 . S
C672 H663 0.950 . S
C672 C671 1.398 . S
C672 C673 1.391 . S
C673 H661 0.950 . S
C673 C669 1.393 . S
C673 C672 1.391 . S
C674 H664 0.950 . S
C674 C675 1.386 . S
C674 C676 1.391 . S
C675 C674 1.386 . S
C675 C679 1.393 . S
C676 H665 0.950 . S
C676 C674 1.391 . S
C676 C677 1.400 . S
C677 C671 1.491 . S
C677 C676 1.400 . S
C677 C678 1.398 . S
C678 H666 0.950 . S
C678 C677 1.398 . S
C678 C679 1.391 . S
C679 H667 0.950 . S
C679 C675 1.393 . S
C679 C678 1.391 . S
H680 C688 0.950 . S
H681 C693 0.950 . S
H682 C690 0.950 . S
H683 C692 0.950 . S
H684 C694 0.950 . S
H685 C696 0.950 . S
H686 C698 0.950 . S
H687 C699 0.950 . S
C688 H680 0.950 . S
C688 C689 1.386 . S
C688 C690 1.391 . S
C689 C688 1.386 . S
C689 C693 1.393 . S
C690 H682 0.950 . S
C690 C688 1.391 . S
C690 C691 1.400 . S
C691 C690 1.400 . S
C691 C692 1.398 . S
C691 C697 1.491 . S
C692 H683 0.950 . S
C692 C691 1.398 . S
C692 C693 1.391 . S
C693 H681 0.950 . S
C693 C689 1.393 . S
C693 C692 1.391 . S
C694 H684 0.950 . S
C694 C695 1.386 . S
C694 C696 1.391 . S
C695 C694 1.386 . S
C695 C699 1.393 . S
C696 H685 0.950 . S
C696 C694 1.391 . S
C696 C697 1.400 . S
C697 C691 1.491 . S
C697 C696 1.400 . S
C697 C698 1.398 . S
C698 H686 0.950 . S
C698 C697 1.398 . S
C698 C699 1.391 . S
C699 H687 0.950 . S
C699 C695 1.393 . S
C699 C698 1.391 . S
H700 C708 0.950 . S
H701 C713 0.950 . S
H702 C710 0.950 . S
H703 C712 0.950 . S
H704 C714 0.950 . S
H705 C716 0.950 . S
H706 C718 0.950 . S
H707 C719 0.950 . S
C708 H700 0.950 . S
C708 C709 1.386 . S
C708 C710 1.391 . S
C709 C708 1.386 . S
C709 C713 1.393 . S
C710 H702 0.950 . S
C710 C708 1.391 . S
C710 C711 1.400 . S
C711 C710 1.400 . S
C711 C712 1.398 . S
C711 C717 1.491 . S
C712 H703 0.950 . S
C712 C711 1.398 . S
C712 C713 1.391 . S
C713 H701 0.950 . S
C713 C709 1.393 . S
C713 C712 1.391 . S
C714 H704 0.950 . S
C714 C715 1.386 . S
C714 C716 1.391 . S
C715 C714 1.386 . S
C715 C719 1.393 . S
C716 H705 0.950 . S
C716 C714 1.391 . S
C716 C717 1.400 . S
C717 C711 1.491 . S
C717 C716 1.400 . S
C717 C718 1.398 . S
C718 H706 0.950 . S
C718 C717 1.398 . S
C718 C719 1.391 . S
C719 H707 0.950 . S
C719 C715 1.393 . S
C719 C718 1.391 . S
H720 C728 0.950 . S
H721 C733 0.950 . S
H722 C730 0.950 . S
H723 C732 0.950 . S
H724 C734 0.950 . S
H725 C736 0.950 . S
H726 C738 0.950 . S
H727 C739 0.950 1_455 S
C728 H720 0.950 . S
C728 C729 1.386 . S
C728 C730 1.391 . S
C729 C728 1.386 . S
C729 C733 1.393 . S
C730 H722 0.950 . S
C730 C728 1.391 . S
C730 C731 1.400 . S
C731 C730 1.400 . S
C731 C732 1.398 . S
C731 C737 1.491 . S
C732 H723 0.950 . S
C732 C731 1.398 . S
C732 C733 1.391 . S
C733 H721 0.950 . S
C733 C729 1.393 . S
C733 C732 1.391 . S
C734 H724 0.950 . S
C734 C735 1.386 . S
C734 C736 1.391 1_556 S
C735 C734 1.386 . S
C735 C739 1.393 1_556 S
C736 H725 0.950 . S
C736 C734 1.391 1_554 S
C736 C737 1.400 . S
C737 C731 1.491 . S
C737 C736 1.400 . S
C737 C738 1.398 . S
C738 H726 0.950 . S
C738 C737 1.398 . S
C738 C739 1.391 . S
C739 H727 0.950 1_655 S
C739 C735 1.393 1_554 S
C739 C738 1.391 . S
H740 C748 0.950 . S
H741 C753 0.950 . S
H742 C750 0.950 . S
H743 C752 0.950 . S
H744 C754 0.950 . S
H745 C756 0.950 . S
H746 C758 0.950 . S
H747 C759 0.950 . S
C748 H740 0.950 . S
C748 C749 1.386 . S
C748 C750 1.391 . S
C749 C748 1.386 . S
C749 C753 1.393 . S
C750 H742 0.950 . S
C750 C748 1.391 . S
C750 C751 1.400 . S
C751 C750 1.400 . S
C751 C752 1.398 . S
C751 C757 1.491 . S
C752 H743 0.950 . S
C752 C751 1.398 . S
C752 C753 1.391 . S
C753 H741 0.950 . S
C753 C749 1.393 . S
C753 C752 1.391 . S
C754 H744 0.950 . S
C754 C755 1.386 . S
C754 C756 1.391 . S
C755 C754 1.386 . S
C755 C759 1.393 . S
C756 H745 0.950 . S
C756 C754 1.391 . S
C756 C757 1.400 . S
C757 C751 1.491 . S
C757 C756 1.400 . S
C757 C758 1.398 . S
C758 H746 0.950 . S
C758 C757 1.398 . S
C758 C759 1.391 . S
C759 H747 0.950 . S
C759 C755 1.393 . S
C759 C758 1.391 . S
H760 C768 0.950 . S
H761 C773 0.950 . S
H762 C770 0.950 . S
H763 C772 0.950 . S
H764 C774 0.950 . S
H765 C776 0.950 . S
H766 C778 0.950 . S
H767 C779 0.950 . S
C768 H760 0.950 . S
C768 C769 1.386 . S
C768 C770 1.391 . S
C769 C768 1.386 . S
C769 C773 1.393 . S
C770 H762 0.950 . S
C770 C768 1.391 . S
C770 C771 1.400 . S
C771 C770 1.400 . S
C771 C772 1.398 . S
C771 C777 1.491 . S
C772 H763 0.950 . S
C772 C771 1.398 . S
C772 C773 1.391 . S
C773 H761 0.950 . S
C773 C769 1.393 . S
C773 C772 1.391 . S
C774 H764 0.950 . S
C774 C775 1.386 . S
C774 C776 1.391 . S
C775 C774 1.386 . S
C775 C779 1.393 . S
C776 H765 0.950 . S
C776 C774 1.391 . S
C776 C777 1.400 . S
C777 C771 1.491 . S
C777 C776 1.400 . S
C777 C778 1.398 . S
C778 H766 0.950 . S
C778 C777 1.398 . S
C778 C779 1.391 . S
C779 H767 0.950 . S
C779 C775 1.393 . S
C779 C778 1.391 . S
H780 C788 0.950 . S
H781 C793 0.950 . S
H782 C790 0.950 . S
H783 C792 0.950 . S
H784 C794 0.950 . S
H785 C796 0.950 . S
H786 C798 0.950 . S
H787 C799 0.950 . S
C788 H780 0.950 . S
C788 C789 1.386 . S
C788 C790 1.391 . S
C789 C788 1.386 . S
C789 C793 1.393 . S
C790 H782 0.950 . S
C790 C788 1.391 . S
C790 C791 1.400 . S
C791 C790 1.400 . S
C791 C792 1.398 . S
C791 C797 1.491 . S
C792 H783 0.950 . S
C792 C791 1.398 . S
C792 C793 1.391 . S
C793 H781 0.950 . S
C793 C789 1.393 . S
C793 C792 1.391 . S
C794 H784 0.950 . S
C794 C795 1.386 . S
C794 C796 1.391 . S
C795 C794 1.386 . S
C795 C799 1.393 . S
C796 H785 0.950 . S
C796 C794 1.391 . S
C796 C797 1.400 . S
C797 C791 1.491 . S
C797 C796 1.400 . S
C797 C798 1.398 . S
C798 H786 0.950 . S
C798 C797 1.398 . S
C798 C799 1.391 . S
C799 H787 0.950 . S
C799 C795 1.393 . S
C799 C798 1.391 . S
H800 C808 0.950 . S
H801 C813 0.950 . S
H802 C810 0.950 . S
H803 C812 0.950 . S
H804 C814 0.950 . S
H805 C816 0.950 . S
H806 C818 0.950 . S
H807 C819 0.950 . S
C808 H800 0.950 . S
C808 C809 1.386 . S
C808 C810 1.391 . S
C809 C808 1.386 . S
C809 C813 1.393 . S
C810 H802 0.950 . S
C810 C808 1.391 . S
C810 C811 1.400 . S
C811 C810 1.400 . S
C811 C812 1.398 . S
C811 C817 1.491 . S
C812 H803 0.950 . S
C812 C811 1.398 . S
C812 C813 1.391 . S
C813 H801 0.950 . S
C813 C809 1.393 . S
C813 C812 1.391 . S
C814 H804 0.950 . S
C814 C815 1.386 . S
C814 C816 1.391 . S
C815 C814 1.386 . S
C815 C819 1.393 . S
C816 H805 0.950 . S
C816 C814 1.391 . S
C816 C817 1.400 . S
C817 C811 1.491 . S
C817 C816 1.400 . S
C817 C818 1.398 . S
C818 H806 0.950 . S
C818 C817 1.398 . S
C818 C819 1.391 . S
C819 H807 0.950 . S
C819 C815 1.393 . S
C819 C818 1.391 . S
H820 C828 0.950 . S
H821 C833 0.950 . S
H822 C830 0.950 . S
H823 C832 0.950 . S
H824 C834 0.950 . S
H825 C836 0.950 . S
H826 C838 0.950 . S
H827 C839 0.950 . S
C828 H820 0.950 . S
C828 C829 1.386 . S
C828 C830 1.391 . S
C829 C828 1.386 . S
C829 C833 1.393 . S
C830 H822 0.950 . S
C830 C828 1.391 . S
C830 C831 1.400 . S
C831 C830 1.400 . S
C831 C832 1.398 . S
C831 C837 1.491 . S
C832 H823 0.950 . S
C832 C831 1.398 . S
C832 C833 1.391 . S
C833 H821 0.950 . S
C833 C829 1.393 . S
C833 C832 1.391 . S
C834 H824 0.950 . S
C834 C835 1.386 . S
C834 C836 1.391 . S
C835 C834 1.386 . S
C835 C839 1.393 . S
C836 H825 0.950 . S
C836 C834 1.391 . S
C836 C837 1.400 . S
C837 C831 1.491 . S
C837 C836 1.400 . S
C837 C838 1.398 . S
C838 H826 0.950 . S
C838 C837 1.398 . S
C838 C839 1.391 . S
C839 H827 0.950 . S
C839 C835 1.393 . S
C839 C838 1.391 . S
H840 C848 0.950 . S
H841 C853 0.950 . S
H842 C850 0.950 . S
H843 C852 0.950 . S
H844 C854 0.950 . S
H845 C856 0.950 . S
H846 C858 0.950 . S
H847 C859 0.950 . S
C848 H840 0.950 . S
C848 C849 1.386 . S
C848 C850 1.391 . S
C849 C848 1.386 . S
C849 C853 1.393 . S
C850 H842 0.950 . S
C850 C848 1.391 . S
C850 C851 1.400 . S
C851 C850 1.400 . S
C851 C852 1.398 . S
C851 C857 1.491 . S
C852 H843 0.950 . S
C852 C851 1.398 . S
C852 C853 1.391 . S
C853 H841 0.950 . S
C853 C849 1.393 . S
C853 C852 1.391 . S
C854 H844 0.950 . S
C854 C855 1.386 . S
C854 C856 1.391 . S
C855 C854 1.386 . S
C855 C859 1.393 . S
C856 H845 0.950 . S
C856 C854 1.391 . S
C856 C857 1.400 . S
C857 C851 1.491 . S
C857 C856 1.400 . S
C857 C858 1.398 . S
C858 H846 0.950 . S
C858 C857 1.398 . S
C858 C859 1.391 . S
C859 H847 0.950 . S
C859 C855 1.393 . S
C859 C858 1.391 . S
H860 C868 0.950 . S
H861 C873 0.950 . S
H862 C870 0.950 . S
H863 C872 0.950 . S
H864 C874 0.950 . S
H865 C876 0.950 . S
H866 C878 0.950 . S
H867 C879 0.950 . S
C868 H860 0.950 . S
C868 C869 1.386 . S
C868 C870 1.391 . S
C869 C868 1.386 . S
C869 C873 1.393 . S
C870 H862 0.950 . S
C870 C868 1.391 . S
C870 C871 1.400 . S
C871 C870 1.400 . S
C871 C872 1.398 . S
C871 C877 1.491 . S
C872 H863 0.950 . S
C872 C871 1.398 . S
C872 C873 1.391 . S
C873 H861 0.950 . S
C873 C869 1.393 . S
C873 C872 1.391 . S
C874 H864 0.950 . S
C874 C875 1.386 . S
C874 C876 1.391 . S
C875 C874 1.386 . S
C875 C879 1.393 . S
C876 H865 0.950 . S
C876 C874 1.391 . S
C876 C877 1.400 . S
C877 C871 1.491 . S
C877 C876 1.400 . S
C877 C878 1.398 . S
C878 H866 0.950 . S
C878 C877 1.398 . S
C878 C879 1.391 . S
C879 H867 0.950 . S
C879 C875 1.393 . S
C879 C878 1.391 . S
H880 C888 0.950 . S
H881 C893 0.950 . S
H882 C890 0.950 . S
H883 C892 0.950 . S
H884 C894 0.950 . S
H885 C896 0.950 . S
H886 C898 0.950 . S
H887 C899 0.950 . S
C888 H880 0.950 . S
C888 C889 1.386 . S
C888 C890 1.391 . S
C889 C888 1.386 . S
C889 C893 1.393 . S
C890 H882 0.950 . S
C890 C888 1.391 . S
C890 C891 1.400 . S
C891 C890 1.400 . S
C891 C892 1.398 . S
C891 C897 1.491 . S
C892 H883 0.950 . S
C892 C891 1.398 . S
C892 C893 1.391 . S
C893 H881 0.950 . S
C893 C889 1.393 . S
C893 C892 1.391 . S
C894 H884 0.950 . S
C894 C895 1.386 . S
C894 C896 1.391 . S
C895 C894 1.386 . S
C895 C899 1.393 . S
C896 H885 0.950 . S
C896 C894 1.391 . S
C896 C897 1.400 . S
C897 C891 1.491 . S
C897 C896 1.400 . S
C897 C898 1.398 . S
C898 H886 0.950 . S
C898 C897 1.398 . S
C898 C899 1.391 . S
C899 H887 0.950 . S
C899 C895 1.393 . S
C899 C898 1.391 . S
H900 C908 0.950 . S
H901 C913 0.950 . S
H902 C910 0.950 . S
H903 C912 0.950 . S
H904 C914 0.950 . S
H905 C916 0.950 . S
H906 C918 0.950 . S
H907 C919 0.950 . S
C908 H900 0.950 . S
C908 C909 1.386 . S
C908 C910 1.391 . S
C909 C908 1.386 . S
C909 C913 1.393 . S
C910 H902 0.950 . S
C910 C908 1.391 . S
C910 C911 1.400 . S
C911 C910 1.400 . S
C911 C912 1.398 . S
C911 C917 1.491 . S
C912 H903 0.950 . S
C912 C911 1.398 . S
C912 C913 1.391 . S
C913 H901 0.950 . S
C913 C909 1.393 . S
C913 C912 1.391 . S
C914 H904 0.950 . S
C914 C915 1.386 . S
C914 C916 1.391 . S
C915 C914 1.386 . S
C915 C919 1.393 . S
C916 H905 0.950 . S
C916 C914 1.391 . S
C916 C917 1.400 . S
C917 C911 1.491 . S
C917 C916 1.400 . S
C917 C918 1.398 . S
C918 H906 0.950 . S
C918 C917 1.398 . S
C918 C919 1.391 . S
C919 H907 0.950 . S
C919 C915 1.393 . S
C919 C918 1.391 . S
H920 C928 0.950 . S
H921 C933 0.950 . S
H922 C930 0.950 . S
H923 C932 0.950 . S
H924 C934 0.950 . S
H925 C936 0.950 . S
H926 C938 0.950 . S
H927 C939 0.950 . S
C928 H920 0.950 . S
C928 C929 1.386 . S
C928 C930 1.391 . S
C929 C928 1.386 . S
C929 C933 1.393 . S
C930 H922 0.950 . S
C930 C928 1.391 . S
C930 C931 1.400 . S
C931 C930 1.400 . S
C931 C932 1.398 . S
C931 C937 1.491 . S
C932 H923 0.950 . S
C932 C931 1.398 . S
C932 C933 1.391 . S
C933 H921 0.950 . S
C933 C929 1.393 . S
C933 C932 1.391 . S
C934 H924 0.950 . S
C934 C935 1.386 . S
C934 C936 1.391 1_556 S
C935 C934 1.386 . S
C935 C939 1.393 . S
C936 H925 0.950 . S
C936 C934 1.391 1_554 S
C936 C937 1.400 . S
C937 C931 1.491 . S
C937 C936 1.400 . S
C937 C938 1.398 . S
C938 H926 0.950 . S
C938 C937 1.398 . S
C938 C939 1.391 1_554 S
C939 H927 0.950 . S
C939 C935 1.393 . S
C939 C938 1.391 1_556 S
H940 C948 0.950 . S
H941 C953 0.950 . S
H942 C950 0.950 . S
H943 C952 0.950 . S
H944 C954 0.950 . S
H945 C956 0.950 . S
H946 C958 0.950 . S
H947 C959 0.930 1_554 S
C948 H940 0.950 . S
C948 C949 1.386 . S
C948 C950 1.391 . S
C949 C948 1.386 . S
C949 C953 1.393 . S
C950 H942 0.950 . S
C950 C948 1.391 . S
C950 C951 1.400 . S
C951 C950 1.400 . S
C951 C952 1.398 . S
C951 C957 1.491 . S
C952 H943 0.950 . S
C952 C951 1.398 . S
C952 C953 1.391 . S
C953 H941 0.950 . S
C953 C949 1.393 . S
C953 C952 1.391 . S
C954 H944 0.950 . S
C954 C955 1.386 . S
C954 C956 1.391 . S
C955 C954 1.386 . S
C955 C959 1.393 . S
C956 H945 0.950 . S
C956 C954 1.391 . S
C956 C957 1.400 . S
C957 C951 1.491 . S
C957 C956 1.400 . S
C957 C958 1.398 . S
C958 H946 0.950 . S
C958 C957 1.398 . S
C958 C959 1.391 . S
C959 H947 0.930 1_556 S
C959 C955 1.393 . S
C959 C958 1.391 . S
H960 C968 0.950 1_655 S
H961 C973 0.950 . S
H962 C970 0.950 1_655 S
H963 C972 0.950 . S
H964 C974 0.950 . S
H965 C976 0.950 . S
H966 C978 0.950 1_655 S
H967 C979 0.950 1_655 S
C968 H960 0.950 1_455 S
C968 C969 1.386 . S
C968 C970 1.391 . S
C969 C968 1.386 . S
C969 C973 1.393 . S
C970 H962 0.950 1_455 S
C970 C968 1.391 . S
C970 C971 1.400 . S
C971 C970 1.400 . S
C971 C972 1.398 . S
C971 C977 1.491 . S
C972 H963 0.950 . S
C972 C971 1.398 . S
C972 C973 1.391 . S
C973 H961 0.950 . S
C973 C969 1.393 . S
C973 C972 1.391 . S
C974 H964 0.950 . S
C974 C975 1.386 . S
C974 C976 1.391 . S
C975 C974 1.386 . S
C975 C979 1.393 . S
C976 H965 0.950 . S
C976 C974 1.391 . S
C976 C977 1.400 . S
C977 C971 1.491 . S
C977 C976 1.400 . S
C977 C978 1.398 . S
C978 H966 0.950 1_455 S
C978 C977 1.398 . S
C978 C979 1.391 . S
C979 H967 0.950 1_455 S
C979 C975 1.393 . S
C979 C978 1.391 . S
H980 C988 0.950 . S
H981 C993 0.950 . S
H982 C990 0.950 . S
H983 C992 0.950 . S
H984 C994 0.950 . S
H985 C996 0.950 . S
H986 C998 0.950 . S
H987 C999 0.950 . S
C988 H980 0.950 . S
C988 C989 1.386 . S
C988 C990 1.391 . S
C989 C988 1.386 . S
C989 C993 1.393 . S
C990 H982 0.950 . S
C990 C988 1.391 . S
C990 C991 1.400 . S
C991 C990 1.400 . S
C991 C992 1.398 . S
C991 C997 1.491 1_655 S
C992 H983 0.950 . S
C992 C991 1.398 . S
C992 C993 1.391 . S
C993 H981 0.950 . S
C993 C989 1.393 . S
C993 C992 1.391 . S
C994 H984 0.950 . S
C994 C995 1.386 . S
C994 C996 1.391 . S
C995 C994 1.386 . S
C995 C999 1.393 . S
C996 H985 0.950 . S
C996 C994 1.391 . S
C996 C997 1.400 . S
C997 C991 1.491 1_455 S
C997 C996 1.400 . S
C997 C998 1.398 . S
C998 H986 0.950 . S
C998 C997 1.398 . S
C998 C999 1.391 . S
C999 H987 0.950 . S
C999 C995 1.393 . S
C999 C998 1.391 . S
H1000 C1008 0.950 . S
H1001 C1013 0.950 . S
H1002 C1010 0.950 . S
H1003 C1012 0.950 . S
H1004 C1014 0.950 . S
H1005 C1016 0.950 . S
H1006 C1018 0.950 . S
H1007 C1019 0.950 . S
C1008 H1000 0.950 . S
C1008 C1009 1.386 . S
C1008 C1010 1.391 . S
C1009 C1008 1.386 . S
C1009 C1013 1.393 . S
C1010 H1002 0.950 . S
C1010 C1008 1.391 . S
C1010 C1011 1.400 . S
C1011 C1010 1.400 . S
C1011 C1012 1.398 . S
C1011 C1017 1.491 . S
C1012 H1003 0.950 . S
C1012 C1011 1.398 . S
C1012 C1013 1.391 . S
C1013 H1001 0.950 . S
C1013 C1009 1.393 . S
C1013 C1012 1.391 . S
C1014 H1004 0.950 . S
C1014 C1015 1.386 . S
C1014 C1016 1.391 . S
C1015 C1014 1.386 . S
C1015 C1019 1.393 . S
C1016 H1005 0.950 . S
C1016 C1014 1.391 . S
C1016 C1017 1.400 . S
C1017 C1011 1.491 . S
C1017 C1016 1.400 . S
C1017 C1018 1.398 . S
C1018 H1006 0.950 . S
C1018 C1017 1.398 . S
C1018 C1019 1.391 . S
C1019 H1007 0.950 . S
C1019 C1015 1.393 . S
C1019 C1018 1.391 . S
H1020 C1028 0.950 . S
H1021 C1033 0.950 . S
H1022 C1030 0.950 . S
H1023 C1032 0.950 . S
H1024 C1034 0.950 . S
H1025 C1036 0.950 . S
H1026 C1038 0.950 . S
H1027 C1039 0.950 . S
C1028 H1020 0.950 . S
C1028 C1029 1.386 . S
C1028 C1030 1.391 . S
C1029 C1028 1.386 . S
C1029 C1033 1.393 . S
C1030 H1022 0.950 . S
C1030 C1028 1.391 . S
C1030 C1031 1.400 . S
C1031 C1030 1.400 . S
C1031 C1032 1.398 . S
C1031 C1037 1.491 . S
C1032 H1023 0.950 . S
C1032 C1031 1.398 . S
C1032 C1033 1.391 . S
C1033 H1021 0.950 . S
C1033 C1029 1.393 . S
C1033 C1032 1.391 . S
C1034 H1024 0.950 . S
C1034 C1035 1.386 . S
C1034 C1036 1.391 . S
C1035 C1034 1.386 . S
C1035 C1039 1.393 . S
C1036 H1025 0.950 . S
C1036 C1034 1.391 . S
C1036 C1037 1.400 . S
C1037 C1031 1.491 . S
C1037 C1036 1.400 . S
C1037 C1038 1.398 . S
C1038 H1026 0.950 . S
C1038 C1037 1.398 . S
C1038 C1039 1.391 . S
C1039 H1027 0.950 . S
C1039 C1035 1.393 . S
C1039 C1038 1.391 . S
H1040 C1048 0.950 . S
H1041 C1053 0.950 . S
H1042 C1050 0.950 . S
H1043 C1052 0.950 . S
H1044 C1054 0.950 . S
H1045 C1056 0.950 1_655 S
H1046 C1058 0.950 . S
H1047 C1059 0.950 . S
C1048 H1040 0.950 . S
C1048 C1049 1.386 . S
C1048 C1050 1.391 . S
C1049 C1048 1.386 . S
C1049 C1053 1.393 1_455 S
C1050 H1042 0.950 . S
C1050 C1048 1.391 . S
C1050 C1051 1.400 . S
C1051 C1050 1.400 . S
C1051 C1052 1.398 1_455 S
C1051 C1057 1.491 . S
C1052 H1043 0.950 . S
C1052 C1051 1.398 1_655 S
C1052 C1053 1.391 . S
C1053 H1041 0.950 . S
C1053 C1049 1.393 1_655 S
C1053 C1052 1.391 . S
C1054 H1044 0.950 . S
C1054 C1055 1.386 . S
C1054 C1056 1.391 . S
C1055 C1054 1.386 . S
C1055 C1059 1.393 . S
C1056 H1045 0.950 1_455 S
C1056 C1054 1.391 . S
C1056 C1057 1.400 . S
C1057 C1051 1.491 . S
C1057 C1056 1.400 . S
C1057 C1058 1.398 . S
C1058 H1046 0.950 . S
C1058 C1057 1.398 . S
C1058 C1059 1.391 . S
C1059 H1047 0.950 . S
C1059 C1055 1.393 . S
C1059 C1058 1.391 . S
H1060 C1068 0.950 . S
H1061 C1073 0.950 . S
H1062 C1070 0.950 . S
H1063 C1072 0.950 . S
H1064 C1074 0.950 . S
H1065 C1076 0.950 . S
H1066 C1078 0.950 . S
H1067 C1079 0.950 . S
C1068 H1060 0.950 . S
C1068 C1069 1.386 . S
C1068 C1070 1.391 . S
C1069 C1068 1.386 . S
C1069 C1073 1.393 . S
C1070 H1062 0.950 . S
C1070 C1068 1.391 . S
C1070 C1071 1.400 . S
C1071 C1070 1.400 . S
C1071 C1072 1.398 . S
C1071 C1077 1.491 . S
C1072 H1063 0.950 . S
C1072 C1071 1.398 . S
C1072 C1073 1.391 . S
C1073 H1061 0.950 . S
C1073 C1069 1.393 . S
C1073 C1072 1.391 . S
C1074 H1064 0.950 . S
C1074 C1075 1.386 . S
C1074 C1076 1.391 . S
C1075 C1074 1.386 . S
C1075 C1079 1.393 . S
C1076 H1065 0.950 . S
C1076 C1074 1.391 . S
C1076 C1077 1.400 . S
C1077 C1071 1.491 . S
C1077 C1076 1.400 . S
C1077 C1078 1.398 . S
C1078 H1066 0.950 . S
C1078 C1077 1.398 . S
C1078 C1079 1.391 . S
C1079 H1067 0.950 . S
C1079 C1075 1.393 . S
C1079 C1078 1.391 . S
H1080 C1088 0.950 . S
H1081 C1093 0.950 . S
H1082 C1090 0.950 . S
H1083 C1092 0.950 . S
H1084 C1094 0.950 . S
H1085 C1096 0.950 . S
H1086 C1098 0.950 . S
H1087 C1099 0.950 . S
C1088 H1080 0.950 . S
C1088 C1089 1.386 . S
C1088 C1090 1.391 . S
C1089 C1088 1.386 . S
C1089 C1093 1.393 . S
C1090 H1082 0.950 . S
C1090 C1088 1.391 . S
C1090 C1091 1.400 . S
C1091 C1090 1.400 . S
C1091 C1092 1.398 . S
C1091 C1097 1.491 . S
C1092 H1083 0.950 . S
C1092 C1091 1.398 . S
C1092 C1093 1.391 . S
C1093 H1081 0.950 . S
C1093 C1089 1.393 . S
C1093 C1092 1.391 . S
C1094 H1084 0.950 . S
C1094 C1095 1.386 . S
C1094 C1096 1.391 . S
C1095 C1094 1.386 . S
C1095 C1099 1.393 . S
C1096 H1085 0.950 . S
C1096 C1094 1.391 . S
C1096 C1097 1.400 . S
C1097 C1091 1.491 . S
C1097 C1096 1.400 . S
C1097 C1098 1.398 . S
C1098 H1086 0.950 . S
C1098 C1097 1.398 . S
C1098 C1099 1.391 . S
C1099 H1087 0.950 . S
C1099 C1095 1.393 . S
C1099 C1098 1.391 . S
H1100 C1108 0.950 . S
H1101 C1113 0.950 . S
H1102 C1110 0.950 . S
H1103 C1112 0.950 . S
H1104 C1114 0.950 . S
H1105 C1116 0.950 . S
H1106 C1118 0.950 . S
H1107 C1119 0.950 . S
C1108 H1100 0.950 . S
C1108 C1109 1.386 . S
C1108 C1110 1.391 . S
C1109 C1108 1.386 . S
C1109 C1113 1.393 . S
C1110 H1102 0.950 . S
C1110 C1108 1.391 . S
C1110 C1111 1.400 . S
C1111 C1110 1.400 . S
C1111 C1112 1.398 . S
C1111 C1117 1.491 . S
C1112 H1103 0.950 . S
C1112 C1111 1.398 . S
C1112 C1113 1.391 . S
C1113 H1101 0.950 . S
C1113 C1109 1.393 . S
C1113 C1112 1.391 . S
C1114 H1104 0.950 . S
C1114 C1115 1.386 . S
C1114 C1116 1.391 1_655 S
C1115 C1114 1.386 . S
C1115 C1119 1.393 . S
C1116 H1105 0.950 . S
C1116 C1114 1.391 1_455 S
C1116 C1117 1.400 . S
C1117 C1111 1.491 . S
C1117 C1116 1.400 . S
C1117 C1118 1.398 1_455 S
C1118 H1106 0.950 . S
C1118 C1117 1.398 1_655 S
C1118 C1119 1.391 . S
C1119 H1107 0.950 . S
C1119 C1115 1.393 . S
C1119 C1118 1.391 . S
H1120 C1128 0.950 1_655 S
H1121 C1133 0.950 . S
H1122 C1130 0.950 1_655 S
H1123 C1132 0.950 1_556 S
H1124 C1134 0.950 . S
H1125 C1136 0.950 . S
H1126 C1138 0.942 1_654 S
H1127 C1139 0.950 . S
C1128 H1120 0.950 1_455 S
C1128 C1129 1.386 . S
C1128 C1130 1.391 1_545 S
C1129 C1128 1.386 . S
C1129 C1133 1.393 . S
C1130 H1122 0.950 1_455 S
C1130 C1128 1.391 1_565 S
C1130 C1131 1.400 1_565 S
C1131 C1130 1.400 1_545 S
C1131 C1132 1.398 . S
C1131 C1137 1.491 1_544 S
C1132 H1123 0.950 1_554 S
C1132 C1131 1.398 . S
C1132 C1133 1.391 . S
C1133 H1121 0.950 . S
C1133 C1129 1.393 . S
C1133 C1132 1.391 . S
C1134 H1124 0.950 . S
C1134 C1135 1.386 . S
C1134 C1136 1.391 1_565 S
C1135 C1134 1.386 . S
C1135 C1139 1.393 1_455 S
C1136 H1125 0.950 . S
C1136 C1134 1.391 1_545 S
C1136 C1137 1.400 1_545 S
C1137 C1131 1.491 1_566 S
C1137 C1136 1.400 1_565 S
C1137 C1138 1.411 . S
C1138 H1126 0.942 1_456 S
C1138 C1137 1.411 . S
C1138 C1139 1.387 1_455 S
C1139 H1127 0.950 . S
C1139 C1135 1.393 1_655 S
C1139 C1138 1.387 1_655 S
H1140 C1148 0.950 . S
H1141 C1153 0.950 . S
H1142 C1150 0.950 . S
H1143 C1152 0.950 . S
H1144 C1154 0.950 . S
H1145 C1156 0.950 . S
H1146 C1158 0.950 . S
H1147 C1159 0.950 . S
C1148 H1140 0.950 . S
C1148 C1149 1.386 . S
C1148 C1150 1.391 . S
C1149 C1148 1.386 . S
C1149 C1153 1.393 . S
C1150 H1142 0.950 . S
C1150 C1148 1.391 . S
C1150 C1151 1.400 . S
C1151 C1150 1.400 . S
C1151 C1152 1.398 . S
C1151 C1157 1.491 . S
C1152 H1143 0.950 . S
C1152 C1151 1.398 . S
C1152 C1153 1.391 . S
C1153 H1141 0.950 . S
C1153 C1149 1.393 . S
C1153 C1152 1.391 . S
C1154 H1144 0.950 . S
C1154 C1155 1.386 . S
C1154 C1156 1.391 . S
C1155 C1154 1.386 . S
C1155 C1159 1.393 . S
C1156 H1145 0.950 . S
C1156 C1154 1.391 . S
C1156 C1157 1.400 . S
C1157 C1151 1.491 . S
C1157 C1156 1.400 . S
C1157 C1158 1.398 . S
C1158 H1146 0.950 . S
C1158 C1157 1.398 . S
C1158 C1159 1.391 . S
C1159 H1147 0.950 . S
C1159 C1155 1.393 . S
C1159 C1158 1.391 . S
H1160 C1168 0.950 . S
H1161 C1173 0.950 . S
H1162 C1170 0.950 . S
H1163 C1172 0.950 . S
H1164 C1174 0.950 . S
H1165 C1176 0.950 . S
H1166 C1178 0.950 1_545 S
H1167 C1179 0.950 . S
C1168 H1160 0.950 . S
C1168 C1169 1.386 . S
C1168 C1170 1.391 . S
C1169 C1168 1.386 . S
C1169 C1173 1.393 . S
C1170 H1162 0.950 . S
C1170 C1168 1.391 . S
C1170 C1171 1.400 . S
C1171 C1170 1.400 . S
C1171 C1172 1.398 . S
C1171 C1177 1.491 1_545 S
C1172 H1163 0.950 . S
C1172 C1171 1.398 . S
C1172 C1173 1.391 . S
C1173 H1161 0.950 . S
C1173 C1169 1.393 . S
C1173 C1172 1.391 . S
C1174 H1164 0.950 . S
C1174 C1175 1.386 . S
C1174 C1176 1.391 . S
C1175 C1174 1.386 . S
C1175 C1179 1.393 . S
C1176 H1165 0.950 . S
C1176 C1174 1.391 . S
C1176 C1177 1.400 . S
C1177 C1171 1.491 1_565 S
C1177 C1176 1.400 . S
C1177 C1178 1.398 . S
C1178 H1166 0.950 1_565 S
C1178 C1177 1.398 . S
C1178 C1179 1.391 . S
C1179 H1167 0.950 . S
C1179 C1175 1.393 . S
C1179 C1178 1.391 . S
H1180 C1188 0.950 . S
H1181 C1193 0.950 . S
H1182 C1190 0.950 . S
H1183 C1192 0.950 . S
H1184 C1194 0.950 . S
H1185 C1196 0.950 . S
H1186 C1198 0.950 . S
H1187 C1199 0.950 . S
C1188 H1180 0.950 . S
C1188 C1189 1.386 . S
C1188 C1190 1.391 . S
C1189 C1188 1.386 . S
C1189 C1193 1.393 . S
C1190 H1182 0.950 . S
C1190 C1188 1.391 . S
C1190 C1191 1.400 . S
C1191 C1190 1.400 . S
C1191 C1192 1.398 . S
C1191 C1197 1.491 . S
C1192 H1183 0.950 . S
C1192 C1191 1.398 . S
C1192 C1193 1.391 . S
C1193 H1181 0.950 . S
C1193 C1189 1.393 . S
C1193 C1192 1.391 . S
C1194 H1184 0.950 . S
C1194 C1195 1.386 . S
C1194 C1196 1.391 . S
C1195 C1194 1.386 . S
C1195 C1199 1.393 . S
C1196 H1185 0.950 . S
C1196 C1194 1.391 . S
C1196 C1197 1.400 . S
C1197 C1191 1.491 . S
C1197 C1196 1.400 . S
C1197 C1198 1.398 . S
C1198 H1186 0.950 . S
C1198 C1197 1.398 . S
C1198 C1199 1.391 . S
C1199 H1187 0.950 . S
C1199 C1195 1.393 . S
C1199 C1198 1.391 . S
H1200 C1208 0.950 . S
H1201 C1213 0.950 . S
H1202 C1210 0.950 . S
H1203 C1212 0.950 . S
H1204 C1214 0.950 . S
H1205 C1216 0.950 . S
H1206 C1218 0.950 . S
H1207 C1219 0.950 . S
C1208 H1200 0.950 . S
C1208 C1209 1.386 . S
C1208 C1210 1.391 . S
C1209 C1208 1.386 . S
C1209 C1213 1.393 . S
C1210 H1202 0.950 . S
C1210 C1208 1.391 . S
C1210 C1211 1.400 . S
C1211 C1210 1.400 . S
C1211 C1212 1.398 . S
C1211 C1217 1.491 . S
C1212 H1203 0.950 . S
C1212 C1211 1.398 . S
C1212 C1213 1.391 . S
C1213 H1201 0.950 . S
C1213 C1209 1.393 . S
C1213 C1212 1.391 . S
C1214 H1204 0.950 . S
C1214 C1215 1.386 . S
C1214 C1216 1.391 . S
C1215 C1214 1.386 . S
C1215 C1219 1.393 . S
C1216 H1205 0.950 . S
C1216 C1214 1.391 . S
C1216 C1217 1.400 . S
C1217 C1211 1.491 . S
C1217 C1216 1.400 . S
C1217 C1218 1.398 . S
C1218 H1206 0.950 . S
C1218 C1217 1.398 . S
C1218 C1219 1.391 . S
C1219 H1207 0.950 . S
C1219 C1215 1.393 . S
C1219 C1218 1.391 . S
H1220 C1228 0.950 . S
H1221 C1233 0.950 . S
H1222 C1230 0.950 . S
H1223 C1232 0.950 . S
H1224 C1234 0.950 . S
H1225 C1236 0.950 . S
H1226 C1238 0.950 . S
H1227 C1239 0.950 . S
C1228 H1220 0.950 . S
C1228 C1229 1.386 . S
C1228 C1230 1.391 . S
C1229 C1228 1.386 . S
C1229 C1233 1.393 . S
C1230 H1222 0.950 . S
C1230 C1228 1.391 . S
C1230 C1231 1.400 . S
C1231 C1230 1.400 . S
C1231 C1232 1.398 . S
C1231 C1237 1.491 . S
C1232 H1223 0.950 . S
C1232 C1231 1.398 . S
C1232 C1233 1.391 . S
C1233 H1221 0.950 . S
C1233 C1229 1.393 . S
C1233 C1232 1.391 . S
C1234 H1224 0.950 . S
C1234 C1235 1.386 . S
C1234 C1236 1.391 . S
C1235 C1234 1.386 . S
C1235 C1239 1.393 . S
C1236 H1225 0.950 . S
C1236 C1234 1.391 . S
C1236 C1237 1.400 . S
C1237 C1231 1.491 . S
C1237 C1236 1.400 . S
C1237 C1238 1.398 . S
C1238 H1226 0.950 . S
C1238 C1237 1.398 . S
C1238 C1239 1.391 . S
C1239 H1227 0.950 . S
C1239 C1235 1.393 . S
C1239 C1238 1.391 . S
H1240 C1248 0.950 . S
H1241 C1253 0.950 . S
H1242 C1250 0.950 . S
H1243 C1252 0.950 . S
H1244 C1254 0.950 . S
H1245 C1256 0.950 . S
H1246 C1258 0.950 . S
H1247 C1259 0.950 . S
C1248 H1240 0.950 . S
C1248 C1249 1.386 . S
C1248 C1250 1.391 . S
C1249 C1248 1.386 . S
C1249 C1253 1.393 . S
C1250 H1242 0.950 . S
C1250 C1248 1.391 . S
C1250 C1251 1.400 . S
C1251 C1250 1.400 . S
C1251 C1252 1.398 . S
C1251 C1257 1.491 . S
C1252 H1243 0.950 . S
C1252 C1251 1.398 . S
C1252 C1253 1.391 . S
C1253 H1241 0.950 . S
C1253 C1249 1.393 . S
C1253 C1252 1.391 . S
C1254 H1244 0.950 . S
C1254 C1255 1.386 . S
C1254 C1256 1.391 . S
C1255 C1254 1.386 . S
C1255 C1259 1.393 . S
C1256 H1245 0.950 . S
C1256 C1254 1.391 . S
C1256 C1257 1.400 . S
C1257 C1251 1.491 . S
C1257 C1256 1.400 . S
C1257 C1258 1.398 . S
C1258 H1246 0.950 . S
C1258 C1257 1.398 . S
C1258 C1259 1.391 . S
C1259 H1247 0.950 . S
C1259 C1255 1.393 . S
C1259 C1258 1.391 . S
H1260 C1268 0.950 . S
H1261 C1273 0.950 . S
H1262 C1270 0.950 1_554 S
H1263 C1272 0.950 . S
H1264 C1274 0.950 . S
H1265 C1276 0.950 1_556 S
H1266 C1278 0.950 . S
H1267 C1279 0.950 . S
C1268 H1260 0.950 . S
C1268 C1269 1.386 . S
C1268 C1270 1.391 . S
C1269 C1268 1.386 . S
C1269 C1273 1.393 . S
C1270 H1262 0.950 1_556 S
C1270 C1268 1.391 . S
C1270 C1271 1.400 . S
C1271 C1270 1.400 . S
C1271 C1272 1.398 . S
C1271 C1277 1.491 1_556 S
C1272 H1263 0.950 . S
C1272 C1271 1.398 . S
C1272 C1273 1.391 . S
C1273 H1261 0.950 . S
C1273 C1269 1.393 . S
C1273 C1272 1.391 . S
C1274 H1264 0.950 . S
C1274 C1275 1.386 . S
C1274 C1276 1.391 . S
C1275 C1274 1.386 . S
C1275 C1279 1.393 . S
C1276 H1265 0.950 1_554 S
C1276 C1274 1.391 . S
C1276 C1277 1.400 . S
C1277 C1271 1.491 1_554 S
C1277 C1276 1.400 . S
C1277 C1278 1.398 . S
C1278 H1266 0.950 . S
C1278 C1277 1.398 . S
C1278 C1279 1.391 . S
C1279 H1267 0.950 . S
C1279 C1275 1.393 . S
C1279 C1278 1.391 . S
H1280 C1288 0.950 . S
H1281 C1293 0.950 . S
H1282 C1290 0.950 . S
H1283 C1292 0.950 . S
H1284 C1294 0.950 . S
H1285 C1296 0.950 . S
H1286 C1298 0.950 . S
H1287 C1299 0.950 . S
C1288 H1280 0.950 . S
C1288 C1289 1.386 . S
C1288 C1290 1.391 . S
C1289 C1288 1.386 . S
C1289 C1293 1.393 . S
C1290 H1282 0.950 . S
C1290 C1288 1.391 . S
C1290 C1291 1.400 . S
C1291 C1290 1.400 . S
C1291 C1292 1.398 . S
C1291 C1297 1.491 . S
C1292 H1283 0.950 . S
C1292 C1291 1.398 . S
C1292 C1293 1.391 . S
C1293 H1281 0.950 . S
C1293 C1289 1.393 . S
C1293 C1292 1.391 . S
C1294 H1284 0.950 . S
C1294 C1295 1.386 . S
C1294 C1296 1.391 . S
C1295 C1294 1.386 . S
C1295 C1299 1.393 . S
C1296 H1285 0.950 . S
C1296 C1294 1.391 . S
C1296 C1297 1.400 . S
C1297 C1291 1.491 . S
C1297 C1296 1.400 . S
C1297 C1298 1.398 . S
C1298 H1286 0.950 . S
C1298 C1297 1.398 . S
C1298 C1299 1.391 . S
C1299 H1287 0.950 . S
C1299 C1295 1.393 . S
C1299 C1298 1.391 . S
H1300 C1308 0.950 . S
H1301 C1313 0.950 . S
H1302 C1310 0.950 . S
H1303 C1312 0.950 . S
H1304 C1314 0.950 . S
H1305 C1316 0.950 . S
H1306 C1318 0.950 . S
H1307 C1319 0.950 . S
C1308 H1300 0.950 . S
C1308 C1309 1.386 . S
C1308 C1310 1.391 . S
C1309 C1308 1.386 . S
C1309 C1313 1.393 . S
C1310 H1302 0.950 . S
C1310 C1308 1.391 . S
C1310 C1311 1.400 . S
C1311 C1310 1.400 . S
C1311 C1312 1.398 . S
C1311 C1317 1.491 . S
C1312 H1303 0.950 . S
C1312 C1311 1.398 . S
C1312 C1313 1.391 . S
C1313 H1301 0.950 . S
C1313 C1309 1.393 . S
C1313 C1312 1.391 . S
C1314 H1304 0.950 . S
C1314 C1315 1.386 . S
C1314 C1316 1.391 . S
C1315 C1314 1.386 . S
C1315 C1319 1.393 . S
C1316 H1305 0.950 . S
C1316 C1314 1.391 . S
C1316 C1317 1.400 . S
C1317 C1311 1.491 . S
C1317 C1316 1.400 . S
C1317 C1318 1.398 . S
C1318 H1306 0.950 . S
C1318 C1317 1.398 . S
C1318 C1319 1.391 . S
C1319 H1307 0.950 . S
C1319 C1315 1.393 . S
C1319 C1318 1.391 . S
H1320 C1328 0.950 . S
H1321 C1333 0.950 . S
H1322 C1330 0.950 . S
H1323 C1332 0.950 . S
H1324 C1334 0.950 . S
H1325 C1336 0.950 . S
H1326 C1338 0.950 . S
H1327 C1339 0.950 . S
C1328 H1320 0.950 . S
C1328 C1329 1.386 . S
C1328 C1330 1.391 . S
C1329 C1328 1.386 . S
C1329 C1333 1.393 . S
C1330 H1322 0.950 . S
C1330 C1328 1.391 . S
C1330 C1331 1.400 . S
C1331 C1330 1.400 . S
C1331 C1332 1.398 . S
C1331 C1337 1.491 . S
C1332 H1323 0.950 . S
C1332 C1331 1.398 . S
C1332 C1333 1.391 . S
C1333 H1321 0.950 . S
C1333 C1329 1.393 . S
C1333 C1332 1.391 . S
C1334 H1324 0.950 . S
C1334 C1335 1.386 . S
C1334 C1336 1.391 . S
C1335 C1334 1.386 . S
C1335 C1339 1.393 . S
C1336 H1325 0.950 . S
C1336 C1334 1.391 . S
C1336 C1337 1.400 . S
C1337 C1331 1.491 . S
C1337 C1336 1.400 . S
C1337 C1338 1.398 . S
C1338 H1326 0.950 . S
C1338 C1337 1.398 . S
C1338 C1339 1.391 . S
C1339 H1327 0.950 . S
C1339 C1335 1.393 . S
C1339 C1338 1.391 . S
H1340 C1348 0.950 . S
H1341 C1353 0.950 . S
H1342 C1350 0.950 . S
H1343 C1352 0.950 . S
H1344 C1354 0.950 . S
H1345 C1356 0.950 . S
H1346 C1358 0.950 . S
H1347 C1359 0.950 . S
C1348 H1340 0.950 . S
C1348 C1349 1.386 . S
C1348 C1350 1.391 . S
C1349 C1348 1.386 . S
C1349 C1353 1.393 . S
C1350 H1342 0.950 . S
C1350 C1348 1.391 . S
C1350 C1351 1.400 . S
C1351 C1350 1.400 . S
C1351 C1352 1.398 . S
C1351 C1357 1.491 . S
C1352 H1343 0.950 . S
C1352 C1351 1.398 . S
C1352 C1353 1.391 . S
C1353 H1341 0.950 . S
C1353 C1349 1.393 . S
C1353 C1352 1.391 . S
C1354 H1344 0.950 . S
C1354 C1355 1.386 . S
C1354 C1356 1.391 . S
C1355 C1354 1.386 . S
C1355 C1359 1.393 . S
C1356 H1345 0.950 . S
C1356 C1354 1.391 . S
C1356 C1357 1.400 . S
C1357 C1351 1.491 . S
C1357 C1356 1.400 . S
C1357 C1358 1.398 . S
C1358 H1346 0.950 . S
C1358 C1357 1.398 . S
C1358 C1359 1.391 . S
C1359 H1347 0.950 . S
C1359 C1355 1.393 . S
C1359 C1358 1.391 . S
H1360 C1368 0.950 . S
H1361 C1373 0.950 . S
H1362 C1370 0.950 . S
H1363 C1372 0.950 . S
H1364 C1374 0.950 . S
H1365 C1376 0.950 . S
H1366 C1378 0.950 . S
H1367 C1379 0.950 . S
C1368 H1360 0.950 . S
C1368 C1369 1.386 . S
C1368 C1370 1.391 . S
C1369 C1368 1.386 . S
C1369 C1373 1.393 . S
C1370 H1362 0.950 . S
C1370 C1368 1.391 . S
C1370 C1371 1.400 . S
C1371 C1370 1.400 . S
C1371 C1372 1.398 . S
C1371 C1377 1.491 . S
C1372 H1363 0.950 . S
C1372 C1371 1.398 . S
C1372 C1373 1.391 . S
C1373 H1361 0.950 . S
C1373 C1369 1.393 . S
C1373 C1372 1.391 . S
C1374 H1364 0.950 . S
C1374 C1375 1.386 . S
C1374 C1376 1.391 . S
C1375 C1374 1.386 . S
C1375 C1379 1.393 . S
C1376 H1365 0.950 . S
C1376 C1374 1.391 . S
C1376 C1377 1.400 . S
C1377 C1371 1.491 . S
C1377 C1376 1.400 . S
C1377 C1378 1.398 . S
C1378 H1366 0.950 . S
C1378 C1377 1.398 . S
C1378 C1379 1.391 . S
C1379 H1367 0.950 . S
C1379 C1375 1.393 . S
C1379 C1378 1.391 . S
H1380 C1388 0.950 . S
H1381 C1393 0.950 . S
H1382 C1390 0.950 . S
H1383 C1392 0.950 . S
H1384 C1394 0.950 . S
H1385 C1396 0.950 . S
H1386 C1398 0.950 . S
H1387 C1399 0.950 . S
C1388 H1380 0.950 . S
C1388 C1389 1.386 . S
C1388 C1390 1.391 . S
C1389 C1388 1.386 . S
C1389 C1393 1.393 . S
C1390 H1382 0.950 . S
C1390 C1388 1.391 . S
C1390 C1391 1.400 . S
C1391 C1390 1.400 . S
C1391 C1392 1.398 . S
C1391 C1397 1.491 . S
C1392 H1383 0.950 . S
C1392 C1391 1.398 . S
C1392 C1393 1.391 . S
C1393 H1381 0.950 . S
C1393 C1389 1.393 . S
C1393 C1392 1.391 . S
C1394 H1384 0.950 . S
C1394 C1395 1.386 . S
C1394 C1396 1.391 . S
C1395 C1394 1.386 . S
C1395 C1399 1.393 . S
C1396 H1385 0.950 . S
C1396 C1394 1.391 . S
C1396 C1397 1.400 . S
C1397 C1391 1.491 . S
C1397 C1396 1.400 . S
C1397 C1398 1.398 . S
C1398 H1386 0.950 . S
C1398 C1397 1.398 . S
C1398 C1399 1.391 . S
C1399 H1387 0.950 . S
C1399 C1395 1.393 . S
C1399 C1398 1.391 . S
H1400 C1408 0.950 . S
H1401 C1413 0.950 . S
H1402 C1410 0.950 . S
H1403 C1412 0.950 . S
H1404 C1414 0.950 . S
H1405 C1416 0.950 . S
H1406 C1418 0.950 . S
H1407 C1419 0.950 . S
C1408 H1400 0.950 . S
C1408 C1409 1.386 . S
C1408 C1410 1.391 1_556 S
C1409 C1408 1.386 . S
C1409 C1413 1.393 . S
C1410 H1402 0.950 . S
C1410 C1408 1.391 1_554 S
C1410 C1411 1.400 . S
C1411 C1410 1.400 . S
C1411 C1412 1.398 . S
C1411 C1417 1.491 . S
C1412 H1403 0.950 . S
C1412 C1411 1.398 . S
C1412 C1413 1.391 1_554 S
C1413 H1401 0.950 . S
C1413 C1409 1.393 . S
C1413 C1412 1.391 1_556 S
C1414 H1404 0.950 . S
C1414 C1415 1.386 . S
C1414 C1416 1.391 . S
C1415 C1414 1.386 . S
C1415 C1419 1.393 . S
C1416 H1405 0.950 . S
C1416 C1414 1.391 . S
C1416 C1417 1.400 . S
C1417 C1411 1.491 . S
C1417 C1416 1.400 . S
C1417 C1418 1.398 . S
C1418 H1406 0.950 . S
C1418 C1417 1.398 . S
C1418 C1419 1.391 . S
C1419 H1407 0.950 . S
C1419 C1415 1.393 . S
C1419 C1418 1.391 . S
H1420 C1428 0.950 . S
H1421 C1433 0.950 . S
H1422 C1430 0.950 . S
H1423 C1432 0.950 . S
H1424 C1434 0.950 . S
H1425 C1436 0.950 . S
H1426 C1438 0.950 . S
H1427 C1439 0.950 . S
C1428 H1420 0.950 . S
C1428 C1429 1.386 . S
C1428 C1430 1.391 . S
C1429 C1428 1.386 . S
C1429 C1433 1.393 . S
C1430 H1422 0.950 . S
C1430 C1428 1.391 . S
C1430 C1431 1.400 . S
C1431 C1430 1.400 . S
C1431 C1432 1.398 . S
C1431 C1437 1.491 . S
C1432 H1423 0.950 . S
C1432 C1431 1.398 . S
C1432 C1433 1.391 . S
C1433 H1421 0.950 . S
C1433 C1429 1.393 . S
C1433 C1432 1.391 . S
C1434 H1424 0.950 . S
C1434 C1435 1.386 . S
C1434 C1436 1.391 . S
C1435 C1434 1.386 . S
C1435 C1439 1.393 . S
C1436 H1425 0.950 . S
C1436 C1434 1.391 . S
C1436 C1437 1.400 . S
C1437 C1431 1.491 . S
C1437 C1436 1.400 . S
C1437 C1438 1.398 . S
C1438 H1426 0.950 . S
C1438 C1437 1.398 . S
C1438 C1439 1.391 . S
C1439 H1427 0.950 . S
C1439 C1435 1.393 . S
C1439 C1438 1.391 . S
H1440 C1448 0.950 . S
H1441 C1453 0.950 . S
H1442 C1450 0.950 . S
H1443 C1452 0.950 . S
H1444 C1454 0.950 . S
H1445 C1456 0.950 . S
H1446 C1458 0.950 . S
H1447 C1459 0.950 . S
C1448 H1440 0.950 . S
C1448 C1449 1.386 . S
C1448 C1450 1.391 . S
C1449 C1448 1.386 . S
C1449 C1453 1.393 . S
C1450 H1442 0.950 . S
C1450 C1448 1.391 . S
C1450 C1451 1.400 . S
C1451 C1450 1.400 . S
C1451 C1452 1.398 . S
C1451 C1457 1.491 . S
C1452 H1443 0.950 . S
C1452 C1451 1.398 . S
C1452 C1453 1.391 . S
C1453 H1441 0.950 . S
C1453 C1449 1.393 . S
C1453 C1452 1.391 . S
C1454 H1444 0.950 . S
C1454 C1455 1.386 . S
C1454 C1456 1.391 . S
C1455 C1454 1.386 . S
C1455 C1459 1.393 . S
C1456 H1445 0.950 . S
C1456 C1454 1.391 . S
C1456 C1457 1.400 1_554 S
C1457 C1451 1.491 . S
C1457 C1456 1.400 1_556 S
C1457 C1458 1.398 . S
C1458 H1446 0.950 . S
C1458 C1457 1.398 . S
C1458 C1459 1.391 1_556 S
C1459 H1447 0.950 . S
C1459 C1455 1.393 . S
C1459 C1458 1.391 1_554 S
H1460 C1468 0.950 . S
H1461 C1473 0.950 . S
H1462 C1470 0.950 . S
H1463 C1472 0.950 . S
H1464 C1474 0.950 . S
H1465 C1476 0.950 . S
H1466 C1478 0.950 . S
H1467 C1479 0.950 . S
C1468 H1460 0.950 . S
C1468 C1469 1.386 . S
C1468 C1470 1.391 . S
C1469 C1468 1.386 . S
C1469 C1473 1.393 . S
C1470 H1462 0.950 . S
C1470 C1468 1.391 . S
C1470 C1471 1.400 . S
C1471 C1470 1.400 . S
C1471 C1472 1.398 . S
C1471 C1477 1.491 . S
C1472 H1463 0.950 . S
C1472 C1471 1.398 . S
C1472 C1473 1.391 . S
C1473 H1461 0.950 . S
C1473 C1469 1.393 . S
C1473 C1472 1.391 . S
C1474 H1464 0.950 . S
C1474 C1475 1.386 . S
C1474 C1476 1.391 . S
C1475 C1474 1.386 . S
C1475 C1479 1.393 . S
C1476 H1465 0.950 . S
C1476 C1474 1.391 . S
C1476 C1477 1.400 . S
C1477 C1471 1.491 . S
C1477 C1476 1.400 . S
C1477 C1478 1.398 . S
C1478 H1466 0.950 . S
C1478 C1477 1.398 . S
C1478 C1479 1.391 . S
C1479 H1467 0.950 . S
C1479 C1475 1.393 . S
C1479 C1478 1.391 . S
H1480 C1488 0.950 . S
H1481 C1493 0.950 1_455 S
H1482 C1490 0.950 . S
H1483 C1492 0.950 . S
H1484 C1494 0.950 . S
H1485 C1496 0.950 . S
H1486 C1498 0.950 . S
H1487 C1499 0.950 . S
C1488 H1480 0.950 . S
C1488 C1489 1.386 . S
C1488 C1490 1.391 . S
C1489 C1488 1.386 . S
C1489 C1493 1.393 . S
C1490 H1482 0.950 . S
C1490 C1488 1.391 . S
C1490 C1491 1.400 . S
C1491 C1490 1.400 . S
C1491 C1492 1.398 . S
C1491 C1497 1.491 . S
C1492 H1483 0.950 . S
C1492 C1491 1.398 . S
C1492 C1493 1.391 . S
C1493 H1481 0.950 1_655 S
C1493 C1489 1.393 . S
C1493 C1492 1.391 . S
C1494 H1484 0.950 . S
C1494 C1495 1.386 . S
C1494 C1496 1.391 . S
C1495 C1494 1.386 . S
C1495 C1499 1.393 . S
C1496 H1485 0.950 . S
C1496 C1494 1.391 . S
C1496 C1497 1.400 . S
C1497 C1491 1.491 . S
C1497 C1496 1.400 . S
C1497 C1498 1.398 . S
C1498 H1486 0.950 . S
C1498 C1497 1.398 . S
C1498 C1499 1.391 . S
C1499 H1487 0.950 . S
C1499 C1495 1.393 . S
C1499 C1498 1.391 . S
H1500 C1508 0.950 . S
H1501 C1513 0.950 . S
H1502 C1510 0.950 . S
H1503 C1512 0.950 . S
H1504 C1514 0.950 . S
H1505 C1516 0.950 . S
H1506 C1518 0.950 . S
H1507 C1519 0.950 . S
C1508 H1500 0.950 . S
C1508 C1509 1.386 . S
C1508 C1510 1.391 . S
C1509 C1508 1.386 . S
C1509 C1513 1.393 . S
C1510 H1502 0.950 . S
C1510 C1508 1.391 . S
C1510 C1511 1.400 . S
C1511 C1510 1.400 . S
C1511 C1512 1.398 . S
C1511 C1517 1.491 . S
C1512 H1503 0.950 . S
C1512 C1511 1.398 . S
C1512 C1513 1.391 . S
C1513 H1501 0.950 . S
C1513 C1509 1.393 . S
C1513 C1512 1.391 . S
C1514 H1504 0.950 . S
C1514 C1515 1.386 . S
C1514 C1516 1.391 . S
C1515 C1514 1.386 . S
C1515 C1519 1.393 . S
C1516 H1505 0.950 . S
C1516 C1514 1.391 . S
C1516 C1517 1.400 . S
C1517 C1511 1.491 . S
C1517 C1516 1.400 . S
C1517 C1518 1.398 . S
C1518 H1506 0.950 . S
C1518 C1517 1.398 . S
C1518 C1519 1.391 . S
C1519 H1507 0.950 . S
C1519 C1515 1.393 . S
C1519 C1518 1.391 . S
H1520 C1528 0.950 . S
H1521 C1533 0.950 . S
H1522 C1530 0.950 . S
H1523 C1532 0.950 . S
H1524 C1534 0.950 1_556 S
H1525 C1536 0.950 . S
H1526 C1538 0.950 . S
H1527 C1539 0.950 . S
C1528 H1520 0.950 . S
C1528 C1529 1.386 . S
C1528 C1530 1.391 . S
C1529 C1528 1.386 . S
C1529 C1533 1.393 . S
C1530 H1522 0.950 . S
C1530 C1528 1.391 . S
C1530 C1531 1.400 . S
C1531 C1530 1.400 . S
C1531 C1532 1.398 . S
C1531 C1537 1.491 . S
C1532 H1523 0.950 . S
C1532 C1531 1.398 . S
C1532 C1533 1.391 . S
C1533 H1521 0.950 . S
C1533 C1529 1.393 . S
C1533 C1532 1.391 . S
C1534 H1524 0.950 1_554 S
C1534 C1535 1.386 1_554 S
C1534 C1536 1.391 . S
C1535 C1534 1.386 1_556 S
C1535 C1539 1.393 1_556 S
C1536 H1525 0.950 . S
C1536 C1534 1.391 . S
C1536 C1537 1.400 . S
C1537 C1531 1.491 . S
C1537 C1536 1.400 . S
C1537 C1538 1.398 . S
C1538 H1526 0.950 . S
C1538 C1537 1.398 . S
C1538 C1539 1.391 . S
C1539 H1527 0.950 . S
C1539 C1535 1.393 1_554 S
C1539 C1538 1.391 . S
H1540 C1548 0.950 . S
H1541 C1553 0.950 . S
H1542 C1550 0.950 . S
H1543 C1552 0.950 . S
H1544 C1554 0.950 . S
H1545 C1556 0.950 . S
H1546 C1558 0.950 . S
H1547 C1559 0.950 . S
C1548 H1540 0.950 . S
C1548 C1549 1.386 . S
C1548 C1550 1.391 . S
C1549 C1548 1.386 . S
C1549 C1553 1.393 . S
C1550 H1542 0.950 . S
C1550 C1548 1.391 . S
C1550 C1551 1.400 . S
C1551 C1550 1.400 . S
C1551 C1552 1.398 . S
C1551 C1557 1.491 . S
C1552 H1543 0.950 . S
C1552 C1551 1.398 . S
C1552 C1553 1.391 . S
C1553 H1541 0.950 . S
C1553 C1549 1.393 . S
C1553 C1552 1.391 . S
C1554 H1544 0.950 . S
C1554 C1555 1.386 . S
C1554 C1556 1.391 . S
C1555 C1554 1.386 . S
C1555 C1559 1.393 . S
C1556 H1545 0.950 . S
C1556 C1554 1.391 . S
C1556 C1557 1.400 . S
C1557 C1551 1.491 . S
C1557 C1556 1.400 . S
C1557 C1558 1.398 . S
C1558 H1546 0.950 . S
C1558 C1557 1.398 . S
C1558 C1559 1.391 . S
C1559 H1547 0.950 . S
C1559 C1555 1.393 . S
C1559 C1558 1.391 . S
H1560 C1568 0.950 . S
H1561 C1573 0.950 . S
H1562 C1570 0.950 . S
H1563 C1572 0.950 . S
H1564 C1574 0.950 . S
H1565 C1576 0.950 . S
H1566 C1578 0.950 . S
H1567 C1579 0.950 . S
C1568 H1560 0.950 . S
C1568 C1569 1.386 . S
C1568 C1570 1.391 . S
C1569 C1568 1.386 . S
C1569 C1573 1.393 . S
C1570 H1562 0.950 . S
C1570 C1568 1.391 . S
C1570 C1571 1.400 . S
C1571 C1570 1.400 . S
C1571 C1572 1.398 . S
C1571 C1577 1.491 . S
C1572 H1563 0.950 . S
C1572 C1571 1.398 . S
C1572 C1573 1.391 . S
C1573 H1561 0.950 . S
C1573 C1569 1.393 . S
C1573 C1572 1.391 . S
C1574 H1564 0.950 . S
C1574 C1575 1.386 . S
C1574 C1576 1.391 . S
C1575 C1574 1.386 . S
C1575 C1579 1.393 . S
C1576 H1565 0.950 . S
C1576 C1574 1.391 . S
C1576 C1577 1.400 . S
C1577 C1571 1.491 . S
C1577 C1576 1.400 . S
C1577 C1578 1.398 . S
C1578 H1566 0.950 . S
C1578 C1577 1.398 . S
C1578 C1579 1.391 . S
C1579 H1567 0.950 . S
C1579 C1575 1.393 . S
C1579 C1578 1.391 . S
H1580 C1588 0.950 . S
H1581 C1593 0.950 . S
H1582 C1590 0.950 . S
H1583 C1592 0.950 . S
H1584 C1594 0.950 . S
H1585 C1596 0.950 . S
H1586 C1598 0.950 . S
H1587 C1599 0.950 . S
C1588 H1580 0.950 . S
C1588 C1589 1.386 . S
C1588 C1590 1.391 . S
C1589 C1588 1.386 . S
C1589 C1593 1.393 . S
C1590 H1582 0.950 . S
C1590 C1588 1.391 . S
C1590 C1591 1.400 . S
C1591 C1590 1.400 . S
C1591 C1592 1.398 . S
C1591 C1597 1.491 . S
C1592 H1583 0.950 . S
C1592 C1591 1.398 . S
C1592 C1593 1.391 . S
C1593 H1581 0.950 . S
C1593 C1589 1.393 . S
C1593 C1592 1.391 . S
C1594 H1584 0.950 . S
C1594 C1595 1.386 . S
C1594 C1596 1.391 . S
C1595 C1594 1.386 . S
C1595 C1599 1.393 . S
C1596 H1585 0.950 . S
C1596 C1594 1.391 . S
C1596 C1597 1.400 . S
C1597 C1591 1.491 . S
C1597 C1596 1.400 . S
C1597 C1598 1.398 . S
C1598 H1586 0.950 . S
C1598 C1597 1.398 . S
C1598 C1599 1.391 . S
C1599 H1587 0.950 . S
C1599 C1595 1.393 . S
C1599 C1598 1.391 . S
C649 C19 0.438 . S
C655 C286 0.497 . S
C669 C59 0.897 . S
C675 C166 0.891 . S
C689 C206 0.952 . S
C695 C86 0.832 . S
C709 C139 0.964 . S
C715 C246 0.941 . S
C729 C455 0.937 . S
C735 C170 0.966 . S
C749 C330 1.937 . S
C755 C15 1.952 . S
C769 C415 0.896 . S
C775 C250 0.926 . S
C789 C90 2.669 . S
C795 C370 2.709 . S
C809 C366 0.530 . S
C815 C499 0.483 . S
C829 C419 0.922 . S
C835 C566 0.908 . S
C849 C526 0.849 . S
C855 C326 0.954 . S
C869 C459 0.962 . S
C875 C606 0.942 . S
C889 C570 0.950 . S
C895 C135 0.925 . S
C909 C495 1.952 . S
C915 C210 1.944 . S
C929 C55 0.922 . S
C935 C610 0.925 . S
C949 C290 2.715 . S
C955 C530 2.659 1_556 S
C969 C529 0.417 . S
C975 C18 0.475 . S
C989 C458 0.524 . S
C995 C58 0.486 . S
C1009 C498 0.479 . S
C1015 C89 0.412 . S
C1029 C418 0.559 . S
C1035 C138 0.563 . S
C1049 C169 0.509 . S
C1055 C609 0.510 . S
C1069 C369 0.679 . S
C1075 C209 0.716 . S
C1089 C249 0.513 . S
C1095 C569 0.499 . S
C1109 C289 0.682 . S
C1115 C329 0.751 . S
C1129 C9 1.561 . S
C1135 C178 1.567 . S
C1149 C49 1.769 . S
C1155 C218 1.747 . S
C1169 C258 1.499 . S
C1175 C98 1.503 . S
C1189 C129 1.397 . S
C1195 C298 1.404 . S
C1209 C409 1.768 . S
C1215 C338 1.745 . S
C1229 C449 1.398 . S
C1235 C378 1.405 . S
C1249 C489 1.547 . S
C1255 C578 1.548 . S
C1269 C618 1.497 . S
C1275 C538 1.487 . S
C1289 C6 2.847 . S
C1295 C299 2.911 . S
C1309 C46 1.959 . S
C1315 C179 2.044 . S
C1329 C219 3.648 1_556 S
C1335 C99 3.632 . S
C1349 C259 2.070 . S
C1355 C126 1.980 . S
C1369 C450 2.042 . S
C1375 C175 1.954 . S
C1389 C335 0.950 . S
C1395 C10 0.998 . S
C1409 C410 2.043 . S
C1415 C255 1.968 . S
C1429 C95 0.529 . S
C1435 C375 0.556 . S
C1449 C486 2.842 . S
C1455 C379 2.910 . S
C1469 C579 2.043 . S
C1475 C406 1.966 . S
C1489 C539 3.627 . S
C1495 C339 3.645 . S
C1509 C619 2.075 . S
C1515 C446 2.001 . S
C1529 C575 1.973 . S
C1535 C130 2.048 . S
C1549 C215 0.948 . S
C1555 C490 0.994 . S
C1569 C50 2.034 . S
C1575 C615 1.950 . S
C1589 C535 0.548 . S
C1595 C295 0.596 . S
