# Generated by pormake.
# Topology wme, (6)-cn, num edge types: 1
# Building blocks:
#     Node 0, Type 0, BuildingBlock: INOVEN_clean_sbu_0, # of connection points: 6
#     Node 1, Type 0, BuildingBlock: INOVEN_clean_sbu_0, # of connection points: 6
#     Node 2, Type 0, BuildingBlock: INOVEN_clean_sbu_0, # of connection points: 6
#     Node 3, Type 0, BuildingBlock: INOVEN_clean_sbu_0, # of connection points: 6
#     Node 4, Type 0, BuildingBlock: INOVEN_clean_sbu_0, # of connection points: 6
#     Node 5, Type 0, BuildingBlock: INOVEN_clean_sbu_0, # of connection points: 6
#     Node 6, Type 0, BuildingBlock: INOVEN_clean_sbu_0, # of connection points: 6
#     Node 7, Type 0, BuildingBlock: INOVEN_clean_sbu_0, # of connection points: 6
#     Node 8, Type 0, BuildingBlock: INOVEN_clean_sbu_0, # of connection points: 6
#     Node 9, Type 0, BuildingBlock: INOVEN_clean_sbu_0, # of connection points: 6
#     Node 10, Type 0, BuildingBlock: INOVEN_clean_sbu_0, # of connection points: 6
#     Node 11, Type 0, BuildingBlock: INOVEN_clean_sbu_0, # of connection points: 6
#     Edge 12, Type (0, 0), BuildingBlock: KIFKEQ_clean_linker_1, # of connection points: 2
#     Edge 13, Type (0, 0), BuildingBlock: KIFKEQ_clean_linker_1, # of connection points: 2
#     Edge 14, Type (0, 0), BuildingBlock: KIFKEQ_clean_linker_1, # of connection points: 2
#     Edge 15, Type (0, 0), BuildingBlock: KIFKEQ_clean_linker_1, # of connection points: 2
#     Edge 16, Type (0, 0), BuildingBlock: KIFKEQ_clean_linker_1, # of connection points: 2
#     Edge 17, Type (0, 0), BuildingBlock: KIFKEQ_clean_linker_1, # of connection points: 2
#     Edge 18, Type (0, 0), BuildingBlock: KIFKEQ_clean_linker_1, # of connection points: 2
#     Edge 19, Type (0, 0), BuildingBlock: KIFKEQ_clean_linker_1, # of connection points: 2
#     Edge 20, Type (0, 0), BuildingBlock: KIFKEQ_clean_linker_1, # of connection points: 2
#     Edge 21, Type (0, 0), BuildingBlock: KIFKEQ_clean_linker_1, # of connection points: 2
#     Edge 22, Type (0, 0), BuildingBlock: KIFKEQ_clean_linker_1, # of connection points: 2
#     Edge 23, Type (0, 0), BuildingBlock: KIFKEQ_clean_linker_1, # of connection points: 2
#     Edge 24, Type (0, 0), BuildingBlock: KIFKEQ_clean_linker_1, # of connection points: 2
#     Edge 25, Type (0, 0), BuildingBlock: KIFKEQ_clean_linker_1, # of connection points: 2
#     Edge 26, Type (0, 0), BuildingBlock: KIFKEQ_clean_linker_1, # of connection points: 2
#     Edge 27, Type (0, 0), BuildingBlock: KIFKEQ_clean_linker_1, # of connection points: 2
#     Edge 28, Type (0, 0), BuildingBlock: KIFKEQ_clean_linker_1, # of connection points: 2
#     Edge 29, Type (0, 0), BuildingBlock: KIFKEQ_clean_linker_1, # of connection points: 2
#     Edge 30, Type (0, 0), BuildingBlock: KIFKEQ_clean_linker_1, # of connection points: 2
#     Edge 31, Type (0, 0), BuildingBlock: KIFKEQ_clean_linker_1, # of connection points: 2
#     Edge 32, Type (0, 0), BuildingBlock: KIFKEQ_clean_linker_1, # of connection points: 2
#     Edge 33, Type (0, 0), BuildingBlock: KIFKEQ_clean_linker_1, # of connection points: 2
#     Edge 34, Type (0, 0), BuildingBlock: KIFKEQ_clean_linker_1, # of connection points: 2
#     Edge 35, Type (0, 0), BuildingBlock: KIFKEQ_clean_linker_1, # of connection points: 2
#     Edge 36, Type (0, 0), BuildingBlock: KIFKEQ_clean_linker_1, # of connection points: 2
#     Edge 37, Type (0, 0), BuildingBlock: KIFKEQ_clean_linker_1, # of connection points: 2
#     Edge 38, Type (0, 0), BuildingBlock: KIFKEQ_clean_linker_1, # of connection points: 2
#     Edge 39, Type (0, 0), BuildingBlock: KIFKEQ_clean_linker_1, # of connection points: 2
#     Edge 40, Type (0, 0), BuildingBlock: KIFKEQ_clean_linker_1, # of connection points: 2
#     Edge 41, Type (0, 0), BuildingBlock: KIFKEQ_clean_linker_1, # of connection points: 2
#     Edge 42, Type (0, 0), BuildingBlock: KIFKEQ_clean_linker_1, # of connection points: 2
#     Edge 43, Type (0, 0), BuildingBlock: KIFKEQ_clean_linker_1, # of connection points: 2
#     Edge 44, Type (0, 0), BuildingBlock: KIFKEQ_clean_linker_1, # of connection points: 2
#     Edge 45, Type (0, 0), BuildingBlock: KIFKEQ_clean_linker_1, # of connection points: 2
#     Edge 46, Type (0, 0), BuildingBlock: KIFKEQ_clean_linker_1, # of connection points: 2
#     Edge 47, Type (0, 0), BuildingBlock: KIFKEQ_clean_linker_1, # of connection points: 2
# Relax obj value: 0.096
# Max RMSD: 0.205
# Mean RMSD: 0.205
data_MOF--net-wme--node1-INOVEN_clean_sbu_0--edge1-KIFKEQ_clean_linker_1
_symmetry_space_group_name_H-M    P1
_symmetry_Int_Tables_number       1
_symmetry_cell_setting            triclinic
loop_
_symmetry_equiv_pos_as_xyz
'x, y, z'
_cell_length_a     40.661375
_cell_length_b     40.773731
_cell_length_c     51.053379
_cell_angle_alpha  90.034524
_cell_angle_beta   89.756165
_cell_angle_gamma 120.05234
loop_
_atom_site_label
_atom_site_type_symbol
_atom_site_fract_x
_atom_site_fract_y
_atom_site_fract_z
_atom_type_partial_charge
Gd0 Gd 0.22236 0.37007 0.13364 0.0
Gd1 Gd 0.26248 0.32246 0.14512 0.0
C2 C 0.31189 0.41304 0.14882 0.0
C3 C 0.196 0.41562 0.12731 0.0
C4 C 0.1961 0.45097 0.13403 0.0
C5 C 0.20142 0.47651 0.11383 0.0
C6 C 0.18586 0.4572 0.15912 0.0
C7 C 0.18343 0.51229 0.14298 0.0
C8 C 0.17974 0.48768 0.16356 0.0
C9 C 0.19524 0.50683 0.11824 0.0
C10 C 0.24116 0.33991 0.09271 0.0
C11 C 0.16958 0.28277 0.14516 0.0
C12 C 0.28483 0.2746 0.13568 0.0
C13 C 0.26696 0.23332 0.14016 0.0
C14 C 0.28853 0.21777 0.14961 0.0
C15 C 0.22818 0.20901 0.13478 0.0
C16 C 0.23308 0.15419 0.14759 0.0
C17 C 0.2115 0.16991 0.13835 0.0
C18 C 0.27175 0.17857 0.15336 0.0
C19 C 0.24021 0.33785 0.19103 0.0
O20 O 0.2794 0.41335 0.14959 0.0
O21 O 0.31338 0.38169 0.14411 0.0
O22 O 0.22428 0.41792 0.11344 0.0
O23 O 0.18219 0.38784 0.14439 0.0
O24 O 0.20877 0.33876 0.09423 0.0
O25 O 0.26034 0.35576 0.11258 0.0
O26 O 0.19947 0.27853 0.14086 0.0
O27 O 0.17236 0.31631 0.14647 0.0
O28 O 0.29581 0.29643 0.15649 0.0
O29 O 0.26803 0.28473 0.11829 0.0
O30 O 0.25762 0.31859 0.18893 0.0
O31 O 0.23542 0.34766 0.16856 0.0
H32 H 0.20898 0.47219 0.09427 0.0
H33 H 0.18124 0.43781 0.17506 0.0
H34 H 0.17057 0.49101 0.18283 0.0
H35 H 0.19908 0.52565 0.10208 0.0
H36 H 0.31843 0.23591 0.15387 0.0
H37 H 0.21067 0.22012 0.1276 0.0
H38 H 0.18159 0.15199 0.13403 0.0
H39 H 0.28923 0.16726 0.16027 0.0
Gd40 Gd 0.87022 0.21102 0.63517 0.0
Gd41 Gd 0.95803 0.25452 0.64604 0.0
C42 C 0.91322 0.30038 0.64908 0.0
C43 C 0.7977 0.18162 0.62884 0.0
C44 C 0.7611 0.17726 0.63774 0.0
C45 C 0.7297 0.14052 0.63964 0.0
C46 C 0.75578 0.20841 0.6417 0.0
C47 C 0.68753 0.16579 0.64744 0.0
C48 C 0.71929 0.20269 0.64662 0.0
C49 C 0.69336 0.13481 0.64444 0.0
C50 C 0.9188 0.22914 0.59384 0.0
C51 C 0.90764 0.16198 0.64992 0.0
C52 C 1.02875 0.2802 0.63491 0.0
C53 C 0.05583 0.26698 0.63979 0.0
C54 C 0.04753 0.23809 0.65805 0.0
C55 C 0.08818 0.28024 0.6239 0.0
C56 C 0.10387 0.23576 0.64434 0.0
C57 C 0.112 0.26485 0.62615 0.0
C58 C 0.0714 0.22267 0.66036 0.0
C59 C 0.92137 0.23447 0.69246 0.0
O60 O 0.88141 0.26717 0.65093 0.0
O61 O 0.94664 0.30332 0.64368 0.0
O62 O 0.82293 0.21373 0.6181 0.0
O63 O 0.81272 0.1656 0.64284 0.0
O64 O 0.88818 0.19647 0.59611 0.0
O65 O 0.92165 0.24907 0.61318 0.0
O66 O 0.94129 0.19194 0.64441 0.0
O67 O 0.87643 0.16409 0.65114 0.0
O68 O 1.01758 0.29208 0.65517 0.0
O69 O 1.00091 0.25829 0.61928 0.0
O70 O 0.95814 0.25305 0.69002 0.0
O71 O 0.9062 0.22755 0.67007 0.0
H72 H 0.73308 0.11607 0.63655 0.0
H73 H 0.77952 0.23708 0.64024 0.0
H74 H 0.71574 0.22718 0.6487 0.0
H75 H 0.66968 0.10605 0.64538 0.0
H76 H 1.02223 0.227 0.67016 0.0
H77 H 0.09452 0.30188 0.60926 0.0
H78 H 0.13633 0.27516 0.61317 0.0
H79 H 0.06446 0.20059 0.67472 0.0
Gd80 Gd 0.68173 0.85915 0.13587 0.0
Gd81 Gd 0.72602 0.94759 0.14825 0.0
C82 C 0.63501 0.90293 0.14895 0.0
C83 C 0.63809 0.78684 0.12959 0.0
C84 C 0.602 0.75149 0.13541 0.0
C85 C 0.57738 0.73184 0.11465 0.0
C86 C 0.59413 0.73439 0.16032 0.0
C87 C 0.53918 0.67762 0.14301 0.0
C88 C 0.56294 0.69789 0.16409 0.0
C89 C 0.54634 0.69544 0.11839 0.0
C90 C 0.71308 0.90921 0.09561 0.0
C91 C 0.76899 0.89745 0.15006 0.0
C92 C 0.77159 1.01838 0.13845 0.0
C93 C 0.81232 0.04454 0.14293 0.0
C94 C 0.83138 0.03899 0.16382 0.0
C95 C 0.83329 0.07254 0.12421 0.0
C96 C 0.89218 0.08878 0.1468 0.0
C97 C 0.87282 0.09446 0.1261 0.0
C98 C 0.87096 0.06112 0.16584 0.0
C99 C 0.70692 0.90825 0.19353 0.0
O100 O 0.63584 0.87078 0.1498 0.0
O101 O 0.66599 0.93649 0.14503 0.0
O102 O 0.63713 0.8121 0.11424 0.0
O103 O 0.66383 0.80176 0.14802 0.0
O104 O 0.7149 0.87838 0.09703 0.0
O105 O 0.69568 0.91141 0.11512 0.0
O106 O 0.77219 0.9312 0.14631 0.0
O107 O 0.73606 0.86564 0.14993 0.0
O108 O 0.74897 1.00663 0.15901 0.0
O109 O 0.76464 0.99128 0.12182 0.0
O110 O 0.72436 0.94505 0.19244 0.0
O111 O 0.70073 0.89504 0.17061 0.0
H112 H 0.58293 0.74412 0.09519 0.0
H113 H 0.61276 0.7486 0.17668 0.0
H114 H 0.55837 0.68498 0.18328 0.0
H115 H 0.52826 0.68099 0.10184 0.0
H116 H 0.8158 1.01689 0.17816 0.0
H117 H 0.81914 0.07681 0.10771 0.0
H118 H 0.88827 0.11584 0.11131 0.0
H119 H 0.88505 0.05584 0.18188 0.0
Gd120 Gd 0.84005 0.67177 0.63728 0.0
Gd121 Gd 0.79777 0.71779 0.64977 0.0
C122 C 0.74939 0.62716 0.65083 0.0
C123 C 0.86701 0.62661 0.63114 0.0
C124 C 0.86503 0.59034 0.63807 0.0
C125 C 0.84965 0.56019 0.62013 0.0
C126 C 0.88325 0.58728 0.66054 0.0
C127 C 0.87259 0.52565 0.64614 0.0
C128 C 0.88692 0.55528 0.66454 0.0
C129 C 0.85325 0.52821 0.62415 0.0
C130 C 0.8227 0.70388 0.59701 0.0
C131 C 0.89089 0.75872 0.65076 0.0
C132 C 0.77502 0.76553 0.64131 0.0
C133 C 0.79353 0.80701 0.64501 0.0
C134 C 0.77336 0.82311 0.65619 0.0
C135 C 0.83156 0.83091 0.63728 0.0
C136 C 0.82864 0.8864 0.65132 0.0
C137 C 0.84885 0.87014 0.64031 0.0
C138 C 0.79076 0.86244 0.6594 0.0
C139 C 0.81775 0.69853 0.69509 0.0
O140 O 0.78208 0.62719 0.65151 0.0
O141 O 0.74754 0.65851 0.64709 0.0
O142 O 0.8402 0.62553 0.61635 0.0
O143 O 0.87968 0.65366 0.6487 0.0
O144 O 0.85488 0.70456 0.59841 0.0
O145 O 0.8027 0.68696 0.6165 0.0
O146 O 0.86073 0.76256 0.64671 0.0
O147 O 0.88884 0.72545 0.65127 0.0
O148 O 0.76562 0.74458 0.66255 0.0
O149 O 0.79015 0.75442 0.62319 0.0
O150 O 0.79954 0.7171 0.69389 0.0
O151 O 0.82405 0.69146 0.67217 0.0
H152 H 0.83612 0.56195 0.60237 0.0
H153 H 0.89583 0.61014 0.67464 0.0
H154 H 0.90153 0.55402 0.68187 0.0
H155 H 0.84228 0.50622 0.60939 0.0
H156 H 0.74406 0.80529 0.66229 0.0
H157 H 0.84802 0.81937 0.62873 0.0
H158 H 0.87815 0.88774 0.63419 0.0
H159 H 0.77433 0.87417 0.66771 0.0
Gd160 Gd 0.18836 0.82569 0.13636 0.0
Gd161 Gd 0.10044 0.78504 0.14907 0.0
C162 C 0.14238 0.73626 0.15124 0.0
C163 C 0.2603 0.85203 0.12908 0.0
C164 C 0.29543 0.85125 0.13508 0.0
C165 C 0.31567 0.84701 0.11429 0.0
C166 C 0.31172 0.8596 0.16019 0.0
C167 C 0.36914 0.86235 0.14298 0.0
C168 C 0.3482 0.86494 0.16412 0.0
C169 C 0.35203 0.85243 0.11818 0.0
C170 C 0.13858 0.8072 0.09618 0.0
C171 C 0.15363 0.87796 0.14957 0.0
C172 C 1.02993 0.76167 0.13936 0.0
C173 C 1.00453 0.77696 0.14447 0.0
C174 C 1.01158 0.8023 0.16518 0.0
C175 C 0.97571 0.76979 0.12653 0.0
C176 C 0.96161 0.81374 0.14955 0.0
C177 C 0.95444 0.78797 0.12903 0.0
C178 C 0.99012 0.82033 0.16781 0.0
C179 C 0.13909 0.80593 0.19446 0.0
O180 O 0.17513 0.76873 0.15191 0.0
O181 O 0.10935 0.73465 0.14692 0.0
O182 O 0.23409 0.82446 0.11506 0.0
O183 O 0.24655 0.86525 0.14681 0.0
O184 O 0.16996 0.83945 0.09732 0.0
O185 O 0.13566 0.78794 0.11595 0.0
O186 O 0.11915 0.84808 0.14628 0.0
O187 O 0.18454 0.87524 0.14954 0.0
O188 O 0.04093 0.74967 0.15957 0.0
O189 O 0.05751 0.78193 0.12289 0.0
O190 O 0.10223 0.78827 0.19304 0.0
O191 O 0.15308 0.81145 0.17166 0.0
H192 H 0.3039 0.84088 0.09471 0.0
H193 H 0.29691 0.86333 0.17658 0.0
H194 H 0.36061 0.87266 0.18345 0.0
H195 H 0.36706 0.84949 0.10159 0.0
H196 H 0.03432 0.80889 0.1789 0.0
H197 H 0.97028 0.7508 0.11018 0.0
H198 H 0.93238 0.7819 0.11484 0.0
H199 H 0.99656 0.84025 0.18368 0.0
Gd200 Gd 0.38097 0.18225 0.63249 0.0
Gd201 Gd 0.33467 0.09466 0.64709 0.0
C202 C 0.42573 0.13747 0.6476 0.0
C203 C 0.42608 0.2539 0.6244 0.0
C204 C 0.46159 0.28909 0.63106 0.0
C205 C 0.48702 0.30969 0.61078 0.0
C206 C 0.46829 0.30493 0.6563 0.0
C207 C 0.52371 0.3626 0.64025 0.0
C208 C 0.49915 0.3413 0.66086 0.0
C209 C 0.51773 0.34595 0.6153 0.0
C210 C 0.3485 0.13066 0.59342 0.0
C211 C 0.29422 0.1471 0.64787 0.0
C212 C 0.28793 0.02371 0.63888 0.0
C213 C 0.24723 0.99794 0.64404 0.0
C214 C 0.22885 1.00353 0.66549 0.0
C215 C 0.22563 0.97001 0.62555 0.0
C216 C 0.16748 0.95389 0.64949 0.0
C217 C 0.18616 0.9482 0.62822 0.0
C218 C 0.18932 0.98148 0.6683 0.0
C219 C 0.355 0.13591 0.69137 0.0
O220 O 0.42566 0.17002 0.64768 0.0
O221 O 0.39428 0.10415 0.6442 0.0
O222 O 0.42853 0.22753 0.61131 0.0
O223 O 0.39807 0.24042 0.64141 0.0
O224 O 0.34796 0.1622 0.59385 0.0
O225 O 0.36549 0.12873 0.61313 0.0
O226 O 0.28969 0.11268 0.64475 0.0
O227 O 0.32775 0.17814 0.64706 0.0
O228 O 0.31096 0.03595 0.65907 0.0
O229 O 0.29489 0.0503 0.62175 0.0
O230 O 0.33654 0.09906 0.69115 0.0
O231 O 0.36149 0.14822 0.66818 0.0
H232 H 0.48236 0.29824 0.59111 0.0
H233 H 0.44901 0.28983 0.67231 0.0
H234 H 0.50287 0.35333 0.68029 0.0
H235 H 0.5365 0.36123 0.59911 0.0
H236 H 0.24491 0.02553 0.6797 0.0
H237 H 0.23924 0.96566 0.60866 0.0
H238 H 0.17024 0.92685 0.61359 0.0
H239 H 0.17574 0.98674 0.68478 0.0
Gd240 Gd 0.68479 0.83494 0.42973 0.0
Gd241 Gd 0.7276 0.79011 0.4141 0.0
C242 C 0.63662 0.74441 0.4162 0.0
C243 C 0.64169 0.86382 0.43795 0.0
C244 C 0.60579 0.86311 0.4319 0.0
C245 C 0.58179 0.86021 0.45268 0.0
C246 C 0.59725 0.86975 0.40647 0.0
C247 C 0.54274 0.87322 0.42319 0.0
C248 C 0.56594 0.87464 0.40215 0.0
C249 C 0.55061 0.86511 0.4484 0.0
C250 C 0.71817 0.81575 0.46808 0.0
C251 C 0.77132 0.88336 0.41328 0.0
C252 C 0.77443 0.76547 0.42006 0.0
C253 C 0.81602 0.78373 0.4164 0.0
C254 C 0.83212 0.76352 0.40532 0.0
C255 C 0.84004 0.82153 0.42414 0.0
C256 C 0.89571 0.81836 0.41033 0.0
C257 C 0.8794 0.8386 0.4212 0.0
C258 C 0.8716 0.78067 0.40227 0.0
C259 C 0.70582 0.81127 0.37046 0.0
O260 O 0.63796 0.77768 0.41644 0.0
O261 O 0.66755 0.74121 0.41822 0.0
O262 O 0.63996 0.83626 0.4522 0.0
O263 O 0.6682 0.8761 0.41983 0.0
O264 O 0.71934 0.84814 0.46762 0.0
O265 O 0.69979 0.79634 0.44887 0.0
O266 O 0.77419 0.8525 0.41623 0.0
O267 O 0.73858 0.88259 0.41451 0.0
O268 O 0.75389 0.75871 0.39886 0.0
O269 O 0.76334 0.779 0.43925 0.0
O270 O 0.72243 0.7911 0.37008 0.0
O271 O 0.70144 0.81812 0.39386 0.0
H272 H 0.58789 0.85535 0.47249 0.0
H273 H 0.61538 0.87237 0.39005 0.0
H274 H 0.56079 0.88099 0.38251 0.0
H275 H 0.53293 0.86306 0.46495 0.0
H276 H 0.81419 0.73437 0.39924 0.0
H277 H 0.82848 0.83794 0.43269 0.0
H278 H 0.89708 0.86777 0.4273 0.0
H279 H 0.8833 0.76416 0.39408 0.0
Gd280 Gd 0.87359 0.6663 0.92651 0.0
Gd281 Gd 0.96161 0.71365 0.91421 0.0
C282 C 0.91975 0.62305 0.91163 0.0
C283 C 0.80171 0.62047 0.93382 0.0
C284 C 0.76645 0.58478 0.92763 0.0
C285 C 0.74604 0.56017 0.94829 0.0
C286 C 0.75026 0.5772 0.90249 0.0
C287 C 0.69261 0.52257 0.91943 0.0
C288 C 0.71372 0.54625 0.89842 0.0
C289 C 0.70962 0.52942 0.94426 0.0
C290 C 0.92298 0.69791 0.96688 0.0
C291 C 0.90799 0.75291 0.91276 0.0
C292 C 0.03198 0.76104 0.9242 0.0
C293 C 0.05743 0.80172 0.91909 0.0
C294 C 0.05124 0.81978 0.89783 0.0
C295 C 0.08548 0.82357 0.93745 0.0
C296 C 0.10054 0.88135 0.91373 0.0
C297 C 0.10684 0.86298 0.93482 0.0
C298 C 0.0728 0.85924 0.89508 0.0
C299 C 0.92342 0.69574 0.86863 0.0
O300 O 0.88709 0.62295 0.91064 0.0
O301 O 0.95273 0.6543 0.91642 0.0
O302 O 0.82804 0.61871 0.94742 0.0
O303 O 0.81529 0.6479 0.91647 0.0
O304 O 0.89162 0.69881 0.96544 0.0
O305 O 0.92613 0.68145 0.94725 0.0
O306 O 0.94248 0.75777 0.91665 0.0
O307 O 0.87724 0.7192 0.91257 0.0
O308 O 1.02127 0.73792 0.90404 0.0
O309 O 1.00418 0.75373 0.94047 0.0
O310 O 0.96027 0.715 0.87021 0.0
O311 O 0.90922 0.68728 0.89136 0.0
H312 H 0.75774 0.56554 0.96789 0.0
H313 H 0.76521 0.59586 0.8862 0.0
H314 H 0.7014 0.54181 0.87907 0.0
H315 H 0.69447 0.51134 0.96075 0.0
H316 H 1.02911 0.80351 0.88375 0.0
H317 H 0.09026 0.81021 0.95421 0.0
H318 H 0.12831 0.8791 0.94933 0.0
H319 H 0.06702 0.87253 0.87875 0.0
Gd320 Gd 0.2239 0.86259 0.42635 0.0
Gd321 Gd 0.26577 0.95042 0.41412 0.0
C322 C 0.31423 0.90804 0.41295 0.0
C323 C 0.19644 0.79067 0.43335 0.0
C324 C 0.19719 0.75552 0.42758 0.0
C325 C 0.20134 0.73558 0.44849 0.0
C326 C 0.18879 0.73892 0.40256 0.0
C327 C 0.18592 0.68186 0.42005 0.0
C328 C 0.18336 0.70246 0.39882 0.0
C329 C 0.19585 0.69924 0.44479 0.0
C330 C 0.24138 0.91195 0.46669 0.0
C331 C 0.17265 0.89811 0.41221 0.0
C332 C 0.28948 0.0207 0.42428 0.0
C333 C 0.27452 0.04638 0.41941 0.0
C334 C 0.25271 0.04239 0.39711 0.0
C335 C 0.27827 0.07222 0.43892 0.0
C336 C 0.23806 0.0895 0.4142 0.0
C337 C 0.26022 0.09356 0.43637 0.0
C338 C 0.23486 0.06399 0.39444 0.0
C339 C 0.24604 0.91221 0.3685 0.0
O340 O 0.2816 0.87544 0.41201 0.0
O341 O 0.31589 0.94109 0.41696 0.0
O342 O 0.22343 0.81649 0.44795 0.0
O343 O 0.18438 0.8048 0.41519 0.0
O344 O 0.20886 0.88092 0.46504 0.0
O345 O 0.26133 0.91482 0.44723 0.0
O346 O 0.20264 0.93232 0.41602 0.0
O347 O 0.17504 0.8671 0.41227 0.0
O348 O 0.30172 1.00984 0.40403 0.0
O349 O 0.26881 0.99308 0.44054 0.0
O350 O 0.26399 0.94898 0.37009 0.0
O351 O 0.2397 0.89812 0.39125 0.0
H352 H 0.20747 0.74757 0.46802 0.0
H353 H 0.18509 0.75346 0.38608 0.0
H354 H 0.17563 0.68984 0.37954 0.0
H355 H 0.19877 0.68447 0.46145 0.0
H356 H 0.24869 0.02195 0.38209 0.0
H357 H 0.29446 0.07524 0.45646 0.0
H358 H 0.26366 0.11331 0.45177 0.0
H359 H 0.21775 0.06001 0.37724 0.0
Gd360 Gd 0.38032 0.20749 0.92678 0.0
Gd361 Gd 0.33562 0.25103 0.9134 0.0
C362 C 0.42665 0.29768 0.91291 0.0
C363 C 0.42433 0.17938 0.93373 0.0
C364 C 0.4605 0.18032 0.92789 0.0
C365 C 0.48462 0.18436 0.94875 0.0
C366 C 0.46901 0.17236 0.90276 0.0
C367 C 0.52364 0.16986 0.92 0.0
C368 C 0.50037 0.16734 0.89885 0.0
C369 C 0.51583 0.17929 0.94487 0.0
C370 C 0.34878 0.22703 0.96646 0.0
C371 C 0.29315 0.15788 0.91241 0.0
C372 C 0.28953 0.27593 0.92239 0.0
C373 C 0.24884 0.2611 0.91748 0.0
C374 C 0.23033 0.23638 0.89652 0.0
C375 C 0.22733 0.26803 0.93584 0.0
C376 C 0.16903 0.22508 0.91276 0.0
C377 C 0.18783 0.25022 0.93352 0.0
C378 C 0.19079 0.21874 0.89407 0.0
C379 C 0.35532 0.23016 0.86865 0.0
O380 O 0.42599 0.26476 0.91237 0.0
O381 O 0.39555 0.30018 0.91662 0.0
O382 O 0.4253 0.20603 0.94864 0.0
O383 O 0.39836 0.1678 0.91542 0.0
O384 O 0.3472 0.19446 0.96561 0.0
O385 O 0.36607 0.2461 0.94677 0.0
O386 O 0.28971 0.1884 0.91563 0.0
O387 O 0.32618 0.15919 0.91295 0.0
O388 O 0.31254 0.28679 0.90204 0.0
O389 O 0.29637 0.25603 0.93931 0.0
O390 O 0.33776 0.24945 0.86924 0.0
O391 O 0.36128 0.22357 0.89173 0.0
H392 H 0.47857 0.19016 0.96836 0.0
H393 H 0.45077 0.16874 0.88631 0.0
H394 H 0.50547 0.15996 0.87947 0.0
H395 H 0.53354 0.18216 0.96149 0.0
H396 H 0.24632 0.22994 0.88245 0.0
H397 H 0.24104 0.28653 0.95238 0.0
H398 H 0.17197 0.25609 0.94805 0.0
H399 H 0.17713 0.19928 0.878 0.0
Gd400 Gd 0.19118 0.3713 0.42727 0.0
Gd401 Gd 0.10957 0.32903 0.40967 0.0
C402 C 0.14894 0.4182 0.41396 0.0
C403 C 0.26273 0.41559 0.43759 0.0
C404 C 0.29767 0.45213 0.43184 0.0
C405 C 0.3144 0.47909 0.45186 0.0
C406 C 0.31718 0.45857 0.40785 0.0
C407 C 0.37029 0.51724 0.42463 0.0
C408 C 0.35306 0.49075 0.4043 0.0
C409 C 0.35018 0.5113 0.44829 0.0
C410 C 0.13721 0.33662 0.46518 0.0
C411 C 0.1588 0.28542 0.41414 0.0
C412 C 0.03781 0.27983 0.40671 0.0
C413 C 1.01509 0.23805 0.4066 0.0
C414 C 0.98096 0.21997 0.39263 0.0
C415 C 1.02739 0.21592 0.41985 0.0
C416 C 0.97153 0.158 0.405 0.0
C417 C 1.0058 0.17629 0.41908 0.0
C418 C 0.95937 0.1804 0.39186 0.0
C419 C 0.1582 0.36432 0.36993 0.0
O420 O 0.18123 0.41777 0.41289 0.0
O421 O 0.11585 0.38649 0.41681 0.0
O422 O 0.23539 0.41611 0.45087 0.0
O423 O 0.25016 0.38935 0.41955 0.0
O424 O 0.16855 0.3356 0.46481 0.0
O425 O 0.13674 0.35559 0.44618 0.0
O426 O 0.12474 0.28229 0.41462 0.0
O427 O 0.18998 0.31847 0.41589 0.0
O428 O 0.05927 0.29552 0.38611 0.0
O429 O 0.05491 0.29564 0.42866 0.0
O430 O 0.12448 0.36028 0.37176 0.0
O431 O 0.16406 0.34755 0.38875 0.0
H432 H 0.30038 0.4746 0.4707 0.0
H433 H 0.30526 0.43826 0.39203 0.0
H434 H 0.3675 0.4947 0.3857 0.0
H435 H 0.3627 0.53081 0.46449 0.0
H436 H 0.97095 0.2365 0.38231 0.0
H437 H 0.05371 0.22924 0.43075 0.0
H438 H 1.0162 0.16 0.42924 0.0
H439 H 0.93283 0.16736 0.38121 0.0
Gd440 Gd 0.84069 0.17692 0.92668 0.0
Gd441 Gd 0.79875 0.0893 0.91407 0.0
C442 C 0.7507 0.13196 0.91243 0.0
C443 C 0.86802 0.24898 0.93334 0.0
C444 C 0.86782 0.28402 0.92583 0.0
C445 C 0.85088 0.29874 0.94258 0.0
C446 C 0.88907 0.30589 0.90422 0.0
C447 C 0.87807 0.35723 0.91715 0.0
C448 C 0.89408 0.34205 0.89992 0.0
C449 C 0.85582 0.33481 0.93825 0.0
C450 C 0.822 0.12701 0.96699 0.0
C451 C 0.89175 0.14107 0.91296 0.0
C452 C 0.77494 1.01861 0.92281 0.0
C453 C 0.79189 0.99429 0.9188 0.0
C454 C 0.76922 0.9567 0.91063 0.0
C455 C 0.8306 1.00806 0.92394 0.0
C456 C 0.82327 0.94633 0.91405 0.0
C457 C 0.84607 0.98434 0.92167 0.0
C458 C 0.78474 0.93297 0.90818 0.0
C459 C 0.81965 0.12825 0.86857 0.0
O460 O 0.78352 0.16442 0.91166 0.0
O461 O 0.74864 0.09873 0.91647 0.0
O462 O 0.83923 0.22305 0.94686 0.0
O463 O 0.88229 0.23478 0.91678 0.0
O464 O 0.85443 0.15821 0.96563 0.0
O465 O 0.80259 0.12439 0.9474 0.0
O466 O 0.8616 0.10712 0.91719 0.0
O467 O 0.88959 0.1722 0.91237 0.0
O468 O 0.76534 0.03034 0.9018 0.0
O469 O 0.7916 0.04509 0.94052 0.0
O470 O 0.80147 0.09151 0.87007 0.0
O471 O 0.82563 0.14204 0.89137 0.0
H472 H 0.835 0.28298 0.9597 0.0
H473 H 0.90292 0.29566 0.89108 0.0
H474 H 0.91096 0.35833 0.88328 0.0
H475 H 0.84346 0.34572 0.95213 0.0
H476 H 0.73939 0.94555 0.90642 0.0
H477 H 0.84886 0.03699 0.93027 0.0
H478 H 0.87567 0.99558 0.92662 0.0
H479 H 0.76645 0.90408 0.90175 0.0
H480 H 0.21572 0.93914 0.16938 0.0
H481 H 0.10468 0.90442 0.13762 0.0
H482 H 0.22977 1.00401 0.17101 0.0
H483 H 0.11864 0.97041 0.13991 0.0
H484 H 0.18539 0.09861 0.11375 0.0
H485 H 0.16045 0.03045 0.11732 0.0
H486 H 0.2154 0.04729 0.19235 0.0
H487 H 0.24084 0.1154 0.18849 0.0
C488 C 0.19399 0.94527 0.16299 0.0
C489 C 0.15916 0.91652 0.15307 0.0
C490 C 0.20198 0.98265 0.16421 0.0
C491 C 0.17538 0.9926 0.15564 0.0
C492 C 0.13991 0.96373 0.14645 0.0
C493 C 0.13178 0.92593 0.14531 0.0
C494 C 0.19169 0.08765 0.13117 0.0
C495 C 0.21553 0.11245 0.15069 0.0
C496 C 0.17722 0.04854 0.13327 0.0
C497 C 0.18615 0.03333 0.15501 0.0
C498 C 0.20857 0.05807 0.17507 0.0
C499 C 0.22324 0.09713 0.17287 0.0
H500 H 0.22179 0.10588 0.62776 0.0
H501 H 0.29278 0.20148 0.67703 0.0
H502 H 0.17279 0.12446 0.62836 0.0
H503 H 0.24418 0.21941 0.67812 0.0
H504 H 0.1814 0.27341 0.64241 0.0
H505 H 0.22343 0.24735 0.64503 0.0
H506 H 0.12669 0.13494 0.65474 0.0
H507 H 0.08415 0.16104 0.65109 0.0
C508 C 0.22647 0.13021 0.63922 0.0
C509 C 0.26127 0.15259 0.65199 0.0
C510 C 0.19853 0.14091 0.63955 0.0
C511 C 0.20501 0.17399 0.65277 0.0
C512 C 0.23871 0.19447 0.6671 0.0
C513 C 0.26649 0.18403 0.6666 0.0
C514 C 0.16893 0.24309 0.64487 0.0
C515 C 0.12934 0.21939 0.64653 0.0
C516 C 0.1931 0.22815 0.64671 0.0
C517 C 0.17847 0.18905 0.6504 0.0
C518 C 0.13886 0.16515 0.65185 0.0
C519 C 0.11455 0.18019 0.65005 0.0
H520 H 0.94409 0.10697 0.10715 0.0
H521 H 0.93558 0.12242 0.1901 0.0
H522 H 1.01287 0.14912 0.10909 0.0
H523 H 1.0044 0.16397 0.19211 0.0
H524 H 0.11097 0.27993 0.17232 0.0
H525 H 0.04559 0.22859 0.17446 0.0
H526 H 0.07483 0.15853 0.12766 0.0
H527 H 0.14112 0.2106 0.12546 0.0
C528 C 0.95696 0.11915 0.12583 0.0
C529 C 0.93432 0.11175 0.14842 0.0
C530 C 0.99641 0.14288 0.12699 0.0
C531 C 1.01406 0.15998 0.15072 0.0
C532 C 0.99158 0.15143 0.17349 0.0
C533 C 0.95219 0.12749 0.17237 0.0
C534 C 0.10367 0.25347 0.16267 0.0
C535 C 0.13115 0.24941 0.14853 0.0
C536 C 0.06618 0.2239 0.1641 0.0
C537 C 0.05498 0.18949 0.15123 0.0
C538 C 0.08264 0.18486 0.13766 0.0
C539 C 0.12055 0.21449 0.13653 0.0
H540 H 0.87219 0.94058 0.61509 0.0
H541 H 0.82624 0.92682 0.6933 0.0
H542 H 0.89777 1.00886 0.61794 0.0
H543 H 0.85243 0.99512 0.69642 0.0
H544 H 0.84936 0.10254 0.67471 0.0
H545 H 0.83587 0.03785 0.67715 0.0
H546 H 0.94218 0.06963 0.638 0.0
H547 H 0.95541 0.13531 0.6349 0.0
C548 C 0.86817 0.95224 0.63308 0.0
C549 C 0.84675 0.92825 0.65385 0.0
C550 C 0.88302 0.99144 0.63477 0.0
C551 C 0.87695 1.00756 0.65732 0.0
C552 C 0.85702 0.98364 0.67854 0.0
C553 C 0.84193 0.94447 0.67677 0.0
C554 C 0.87018 0.09602 0.66677 0.0
C555 C 0.90329 0.12407 0.6543 0.0
C556 C 0.86256 0.05879 0.66843 0.0
C557 C 0.88786 0.04834 0.65776 0.0
C558 C 0.92188 0.07667 0.64618 0.0
C559 C 0.92963 0.1143 0.64458 0.0
H560 H 0.93079 0.82579 0.19375 0.0
H561 H 0.94224 0.84665 0.11038 0.0
H562 H 0.89029 0.85408 0.19684 0.0
H563 H 0.90111 0.87424 0.11339 0.0
H564 H 0.84095 0.94127 0.12963 0.0
H565 H 0.89332 0.92754 0.13158 0.0
H566 H 0.82494 0.83106 0.18135 0.0
H567 H 0.77331 0.84467 0.17941 0.0
C568 C 0.92508 0.83686 0.17614 0.0
C569 C 0.93936 0.83356 0.15178 0.0
C570 C 0.90174 0.85291 0.17789 0.0
C571 C 0.89235 0.86626 0.15534 0.0
C572 C 0.90804 0.86452 0.13115 0.0
C573 C 0.93117 0.84823 0.12938 0.0
C574 C 0.83761 0.91767 0.14139 0.0
C575 C 0.80302 0.89386 0.15418 0.0
C576 C 0.86738 0.90963 0.14236 0.0
C577 C 0.86321 0.87811 0.15655 0.0
C578 C 0.8293 0.85573 0.17046 0.0
C579 C 0.79957 0.8634 0.16919 0.0
H580 H 0.94976 0.76193 0.67747 0.0
H581 H 0.91836 0.83122 0.63197 0.0
H582 H 1.01494 0.81373 0.67928 0.0
H583 H 0.98438 0.88372 0.63384 0.0
H584 H 0.11451 0.93609 0.61102 0.0
H585 H 0.04585 0.89376 0.61411 0.0
H586 H 0.05653 0.87816 0.69665 0.0
H587 H 0.12528 0.91993 0.69346 0.0
C588 C 0.95673 0.78849 0.6681 0.0
C589 C 0.92899 0.7924 0.65437 0.0
C590 C 0.9941 0.81833 0.66934 0.0
C591 C 1.0049 0.85283 0.65667 0.0
C592 C 0.97691 0.85733 0.64365 0.0
C593 C 0.93914 0.82744 0.64272 0.0
C594 C 0.10215 0.92372 0.62985 0.0
C595 C 0.12539 0.93096 0.65193 0.0
C596 C 0.06277 0.89988 0.63168 0.0
C597 C 0.04576 0.8825 0.6556 0.0
C598 C 0.06884 0.89091 0.6779 0.0
C599 C 0.10819 0.91498 0.6761 0.0
H600 H 0.14546 0.94593 0.42569 0.0
H601 H 0.11275 0.83812 0.38944 0.0
H602 H 0.07939 0.93211 0.42261 0.0
H603 H 0.04771 0.82419 0.38693 0.0
H604 H 0.93674 0.81479 0.36893 0.0
H605 H 1.00522 0.84053 0.36614 0.0
H606 H 1.01824 0.88792 0.44367 0.0
H607 H 0.94975 0.86253 0.44629 0.0
C608 C 0.12438 0.91961 0.41681 0.0
C609 C 0.1343 0.89301 0.40806 0.0
C610 C 0.08654 0.91155 0.41521 0.0
C611 C 0.05817 0.87698 0.40455 0.0
C612 C 0.0687 0.85128 0.39492 0.0
C613 C 0.10612 0.85918 0.39663 0.0
C614 C 0.95424 0.83078 0.38535 0.0
C615 C 0.93772 0.83621 0.40794 0.0
C616 C 0.99351 0.84563 0.38374 0.0
C617 C 1.01728 0.86606 0.40478 0.0
C618 C 1.00092 0.87275 0.42698 0.0
C619 C 0.9616 0.85803 0.42853 0.0
H620 H 0.13296 0.92365 0.86956 0.0
H621 H 0.11873 0.9342 0.95243 0.0
H622 H 0.17359 0.99234 0.86623 0.0
H623 H 0.16002 1.00282 0.9492 0.0
H624 H 0.22069 0.12984 0.93202 0.0
H625 H 0.16853 0.06367 0.93022 0.0
H626 H 0.23832 0.03496 0.88236 0.0
H627 H 0.28971 0.10025 0.88413 0.0
C628 C 0.13809 0.94066 0.887 0.0
C629 C 0.12296 0.92339 0.91131 0.0
C630 C 0.16153 0.97999 0.88512 0.0
C631 C 0.17019 1.00304 0.90748 0.0
C632 C 0.15368 0.98594 0.93158 0.0
C633 C 0.13045 0.94657 0.93348 0.0
C634 C 0.2244 0.10943 0.92071 0.0
C635 C 0.2593 0.12008 0.9084 0.0
C636 C 0.19475 0.07157 0.91983 0.0
C637 C 0.19935 0.04403 0.90622 0.0
C638 C 0.23361 0.0554 0.8928 0.0
C639 C 0.26321 0.09284 0.89398 0.0
H640 H 0.21812 0.28408 0.39141 0.0
H641 H 0.11019 0.21134 0.4291 0.0
H642 H 0.23065 0.23195 0.3891 0.0
H643 H 0.12301 0.1584 0.42684 0.0
H644 H 0.19806 0.10308 0.45177 0.0
H645 H 0.17208 0.14561 0.44891 0.0
H646 H 0.20796 0.16916 0.36806 0.0
H647 H 0.2345 0.1272 0.37102 0.0
C648 C 0.19684 0.25673 0.39901 0.0
C649 C 0.1633 0.25186 0.41065 0.0
C650 C 0.20392 0.22673 0.39746 0.0
C651 C 0.17783 0.19104 0.40774 0.0
C652 C 0.14368 0.1857 0.41883 0.0
C653 C 0.13626 0.21583 0.42002 0.0
C654 C 0.20018 0.11718 0.43334 0.0
C655 C 0.2188 0.11219 0.41171 0.0
C656 C 0.18486 0.14114 0.43163 0.0
C657 C 0.18813 0.16084 0.40831 0.0
C658 C 0.20525 0.15454 0.38636 0.0
C659 C 0.2203 0.13038 0.38801 0.0
H660 H 0.12634 0.21476 0.86895 0.0
H661 H 0.11643 0.1913 0.95198 0.0
H662 H 0.05748 0.18699 0.86625 0.0
H663 H 0.04764 0.16419 0.94936 0.0
H664 H 0.92 0.09725 0.9327 0.0
H665 H 0.98631 0.11143 0.93066 0.0
H666 H 1.01539 0.20983 0.88298 0.0
H667 H 0.94995 0.1958 0.88498 0.0
C668 C 0.10942 0.20323 0.88656 0.0
C669 C 0.1269 0.20563 0.91073 0.0
C670 C 0.07001 0.18749 0.88504 0.0
C671 C 0.04712 0.17354 0.90762 0.0
C672 C 0.06441 0.1744 0.93158 0.0
C673 C 0.10387 0.1904 0.93313 0.0
C674 C 0.94052 0.12144 0.92141 0.0
C675 C 0.92991 0.14558 0.90919 0.0
C676 C 0.97846 0.12972 0.92039 0.0
C677 C 1.00611 0.16182 0.9067 0.0
C678 C 0.99482 0.18471 0.89346 0.0
C679 C 0.95731 0.17679 0.89478 0.0
H680 H 0.93366 0.11308 0.36312 0.0
H681 H 0.95641 0.10718 0.44504 0.0
H682 H 0.89023 0.04486 0.36272 0.0
H683 H 0.91304 0.03869 0.44453 0.0
H684 H 0.8449 0.90969 0.42985 0.0
H685 H 0.89852 0.97498 0.42611 0.0
H686 H 0.8273 1.0064 0.38295 0.0
H687 H 0.77455 0.94207 0.38657 0.0
C688 C 0.9295 0.09724 0.38104 0.0
C689 C 0.9481 0.11581 0.40422 0.0
C690 C 0.90473 0.05809 0.38077 0.0
C691 C 0.8979 0.03637 0.40365 0.0
C692 C 0.91793 0.05454 0.42651 0.0
C693 C 0.94274 0.09383 0.42681 0.0
C694 C 0.84109 0.93051 0.4192 0.0
C695 C 0.8055 0.92085 0.40865 0.0
C696 C 0.87162 0.96788 0.41723 0.0
C697 C 0.86716 0.9959 0.40424 0.0
C698 C 0.83193 0.98555 0.39282 0.0
C699 C 0.80155 0.94865 0.39508 0.0
H700 H 0.84824 0.75197 0.88906 0.0
H701 H 0.95357 0.82752 0.92821 0.0
H702 H 0.83132 0.80107 0.88867 0.0
H703 H 0.93625 0.87745 0.9277 0.0
H704 H 0.89449 0.96196 0.89767 0.0
H705 H 0.91972 0.91857 0.8962 0.0
H706 H 0.81337 0.82885 0.92673 0.0
H707 H 0.78849 0.87195 0.9289 0.0
C708 C 0.86802 0.77925 0.89745 0.0
C709 C 0.90197 0.78559 0.90915 0.0
C710 C 0.85819 0.80737 0.89725 0.0
C711 C 0.88202 0.84276 0.90867 0.0
C712 C 0.91726 0.85026 0.91886 0.0
C713 C 0.92719 0.82179 0.91913 0.0
C714 C 0.87662 0.93308 0.90435 0.0
C715 C 0.83919 0.92038 0.9131 0.0
C716 C 0.89114 0.90831 0.90348 0.0
C717 C 0.86839 0.87029 0.91109 0.0
C718 C 0.83134 0.85785 0.92028 0.0
C719 C 0.81699 0.88254 0.92135 0.0
H720 H 0.20149 0.7293 0.16948 0.0
H721 H 0.0874 0.66315 0.13941 0.0
H722 H 0.20796 0.6733 0.16977 0.0
H723 H 0.09378 0.60653 0.14012 0.0
H724 H 0.14358 0.53239 0.11005 0.0
H725 H 0.13019 0.584 0.115 0.0
H726 H 0.18636 0.61178 0.19005 0.0
H727 H 0.2008 0.56072 0.18471 0.0
C728 C 0.17752 0.70267 0.16323 0.0
C729 C 0.14398 0.70085 0.15421 0.0
C730 C 0.18118 0.67041 0.1636 0.0
C731 C 0.15147 0.63539 0.15488 0.0
C732 C 0.11738 0.63319 0.14668 0.0
C733 C 0.11361 0.66556 0.14646 0.0
C734 C 0.15325 0.54961 0.12757 0.0
C735 C 0.17371 0.5427 0.14684 0.0
C736 C 0.14507 0.57888 0.13058 0.0
C737 C 0.1572 0.6021 0.15291 0.0
C738 C 0.1769 0.59465 0.17248 0.0
C739 C 0.18496 0.56522 0.16952 0.0
H740 H 0.66175 0.20148 0.68029 0.0
H741 H 0.62442 0.11594 0.62008 0.0
H742 H 0.59767 0.19221 0.68317 0.0
H743 H 0.56067 0.10702 0.62264 0.0
H744 H 0.44153 0.07916 0.6461 0.0
H745 H 0.50386 0.08401 0.64873 0.0
H746 H 0.55662 0.20537 0.65765 0.0
H747 H 0.49485 0.20051 0.65577 0.0
C748 C 0.6399 0.18078 0.66763 0.0
C749 C 0.64825 0.15948 0.64997 0.0
C750 C 0.60313 0.17544 0.66924 0.0
C751 C 0.57387 0.14887 0.6531 0.0
C752 C 0.58219 0.12722 0.63572 0.0
C753 C 0.61885 0.13242 0.6342 0.0
C754 C 0.46641 0.1068 0.64888 0.0
C755 C 0.46302 0.13939 0.65062 0.0
C756 C 0.50221 0.10964 0.65023 0.0
C757 C 0.53541 0.14513 0.65335 0.0
C758 C 0.53178 0.17751 0.65564 0.0
C759 C 0.49616 0.17469 0.65434 0.0
H760 H 0.519 0.61809 0.10955 0.0
H761 H 0.48869 0.64632 0.18396 0.0
H762 H 0.46635 0.55334 0.11371 0.0
H763 H 0.43662 0.58106 0.18853 0.0
H764 H 0.31904 0.47905 0.16733 0.0
H765 H 0.37545 0.54144 0.16796 0.0
H766 H 0.44233 0.49404 0.13827 0.0
H767 H 0.38532 0.43117 0.1372 0.0
C768 C 0.50112 0.61048 0.12684 0.0
C769 C 0.50786 0.63761 0.14628 0.0
C770 C 0.47123 0.57314 0.1294 0.0
C771 C 0.44717 0.56189 0.15145 0.0
C772 C 0.45436 0.58882 0.17116 0.0
C773 C 0.48439 0.62618 0.16865 0.0
C774 C 0.34578 0.4817 0.16113 0.0
C775 C 0.34751 0.45 0.15202 0.0
C776 C 0.37828 0.51758 0.16169 0.0
C777 C 0.41348 0.52291 0.15307 0.0
C778 C 0.41556 0.49102 0.14475 0.0
C779 C 0.38295 0.45492 0.14433 0.0
H780 H 0.93731 0.52663 0.66252 0.0
H781 H 0.82292 0.45068 0.63616 0.0
H782 H 0.94871 0.47337 0.66574 0.0
H783 H 0.83475 0.39788 0.63837 0.0
H784 H 0.85271 0.30462 0.66805 0.0
H785 H 0.84414 0.35932 0.66952 0.0
H786 H 0.95708 0.42933 0.63788 0.0
H787 H 0.96609 0.37431 0.63689 0.0
C788 C 0.91449 0.49855 0.6576 0.0
C789 C 0.87913 0.49297 0.64914 0.0
C790 C 0.92121 0.46809 0.65913 0.0
C791 C 0.89269 0.43128 0.65232 0.0
C792 C 0.85725 0.42571 0.6441 0.0
C793 C 0.85056 0.45611 0.64255 0.0
C794 C 0.87595 0.33167 0.66154 0.0
C795 C 0.91005 0.33493 0.65214 0.0
C796 C 0.87088 0.36308 0.66225 0.0
C797 C 0.89966 0.39869 0.65347 0.0
C798 C 0.93436 0.40236 0.64494 0.0
C799 C 0.93952 0.37081 0.64431 0.0
H800 H 0.56816 0.84158 0.16448 0.0
H801 H 0.61629 0.95795 0.13928 0.0
H802 H 0.50528 0.83466 0.16525 0.0
H803 H 0.55296 0.95104 0.14044 0.0
H804 H 0.42958 0.90431 0.11057 0.0
H805 H 0.49452 0.91677 0.11463 0.0
H806 H 0.46487 0.85458 0.18756 0.0
H807 H 0.39942 0.84119 0.1831 0.0
C808 C 0.56544 0.86589 0.15934 0.0
C809 C 0.59737 0.9003 0.15161 0.0
C810 C 0.5293 0.86194 0.16 0.0
C811 C 0.524 0.89223 0.15285 0.0
C812 C 0.55602 0.92701 0.14579 0.0
C813 C 0.59235 0.93105 0.14528 0.0
C814 C 0.43685 0.89313 0.12743 0.0
C815 C 0.40917 0.87134 0.14635 0.0
C816 C 0.47424 0.90074 0.12993 0.0
C817 C 0.48494 0.88667 0.1514 0.0
C818 C 0.45747 0.86555 0.17065 0.0
C819 C 0.42004 0.85809 0.1682 0.0
H820 H 0.74243 0.56042 0.66747 0.0
H821 H 0.67614 0.60919 0.6394 0.0
H822 H 0.6862 0.49789 0.66713 0.0
H823 H 0.61934 0.54616 0.63945 0.0
H824 H 0.54434 0.42349 0.60804 0.0
H825 H 0.59656 0.48816 0.61341 0.0
H826 H 0.62446 0.45732 0.68753 0.0
H827 H 0.57277 0.39216 0.68176 0.0
C828 C 0.71574 0.55792 0.66151 0.0
C829 C 0.71393 0.58992 0.65327 0.0
C830 C 0.68335 0.52196 0.66151 0.0
C831 C 0.64823 0.51691 0.65318 0.0
C832 C 0.64608 0.54903 0.64571 0.0
C833 C 0.67856 0.58519 0.64586 0.0
C834 C 0.56171 0.43042 0.62544 0.0
C835 C 0.55462 0.40248 0.64432 0.0
C836 C 0.59134 0.46768 0.62869 0.0
C837 C 0.61475 0.47799 0.65089 0.0
C838 C 0.60718 0.45026 0.67007 0.0
C839 C 0.57739 0.41297 0.66686 0.0
H840 H 0.38763 0.96438 0.42273 0.0
H841 H 0.32138 0.84758 0.39815 0.0
H842 H 0.44485 0.95887 0.42256 0.0
H843 H 0.37804 0.842 0.39847 0.0
H844 H 0.49122 0.84975 0.38296 0.0
H845 H 0.43868 0.86195 0.37728 0.0
H846 H 0.46995 0.92656 0.44906 0.0
H847 H 0.52312 0.9155 0.45423 0.0
C848 C 0.38528 0.93769 0.41706 0.0
C849 C 0.34981 0.90641 0.41061 0.0
C850 C 0.41803 0.93444 0.41714 0.0
C851 C 0.41604 0.89992 0.41062 0.0
C852 C 0.38077 0.86912 0.40332 0.0
C853 C 0.34814 0.8723 0.40334 0.0
C854 C 0.48717 0.86696 0.39734 0.0
C855 C 0.51121 0.88132 0.41917 0.0
C856 C 0.45686 0.87372 0.3942 0.0
C857 C 0.44997 0.89515 0.41276 0.0
C858 C 0.47459 0.91027 0.43424 0.0
C859 C 0.50478 0.90344 0.43741 0.0
H860 H 0.63204 0.50402 0.95178 0.0
H861 H 0.66235 0.4715 0.87906 0.0
H862 H 0.56707 0.45172 0.94752 0.0
H863 H 0.59688 0.41961 0.87442 0.0
H864 H 0.4935 0.30325 0.89718 0.0
H865 H 0.55637 0.35916 0.8965 0.0
H866 H 0.50864 0.42776 0.92167 0.0
H867 H 0.44531 0.37138 0.92273 0.0
C868 C 0.6248 0.48572 0.93483 0.0
C869 C 0.65254 0.49168 0.91591 0.0
C870 C 0.58739 0.45603 0.93221 0.0
C871 C 0.57672 0.43142 0.91064 0.0
C872 C 0.60424 0.43785 0.89141 0.0
C873 C 0.64169 0.46773 0.89396 0.0
C874 C 0.4962 0.33025 0.9024 0.0
C875 C 0.46425 0.3327 0.91021 0.0
C876 C 0.53235 0.36243 0.9018 0.0
C877 C 0.53764 0.39797 0.90909 0.0
C878 C 0.50559 0.4007 0.91621 0.0
C879 C 0.46925 0.36844 0.91665 0.0
H880 H 0.14415 0.62184 0.45273 0.0
H881 H 0.20723 0.65145 0.37998 0.0
H882 H 0.13222 0.55719 0.44888 0.0
H883 H 0.19433 0.58636 0.37574 0.0
H884 H 0.20981 0.48545 0.39911 0.0
H885 H 0.21555 0.54759 0.39851 0.0
H886 H 0.09848 0.49818 0.42318 0.0
H887 H 0.09273 0.43542 0.42412 0.0
C888 C 0.15541 0.61452 0.43587 0.0
C889 C 0.17708 0.64196 0.41682 0.0
C890 C 0.1481 0.57729 0.43349 0.0
C891 C 0.16236 0.56659 0.41204 0.0
C892 C 0.18325 0.59379 0.39264 0.0
C893 C 0.19042 0.63102 0.39497 0.0
C894 C 0.1851 0.48761 0.40428 0.0
C895 C 0.15082 0.45539 0.41184 0.0
C896 C 0.18837 0.52334 0.40371 0.0
C897 C 0.15751 0.52792 0.41079 0.0
C898 C 0.12289 0.49562 0.41784 0.0
C899 C 0.11953 0.45966 0.41824 0.0
H900 H 0.67696 0.07655 0.92288 0.0
H901 H 0.74447 0.19241 0.89631 0.0
H902 H 0.6202 0.08289 0.92227 0.0
H903 H 0.68825 0.1988 0.89612 0.0
H904 H 0.57532 0.19135 0.87964 0.0
H905 H 0.62763 0.17848 0.87478 0.0
H906 H 0.59574 0.11694 0.94798 0.0
H907 H 0.5429 0.12878 0.95242 0.0
C908 C 0.67968 0.10319 0.91665 0.0
C909 C 0.71537 0.13398 0.90979 0.0
C910 C 0.6472 0.10693 0.91649 0.0
C911 C 0.64966 0.14143 0.90925 0.0
C912 C 0.68515 0.17171 0.90153 0.0
C913 C 0.71753 0.16807 0.90184 0.0
C914 C 0.57922 0.1747 0.89453 0.0
C915 C 0.55509 0.16141 0.91653 0.0
C916 C 0.60937 0.16755 0.89185 0.0
C917 C 0.61599 0.14674 0.91103 0.0
C918 C 0.5913 0.13272 0.93271 0.0
C919 C 0.5613 0.14 0.93543 0.0
H920 H 0.39728 0.5903 0.44102 0.0
H921 H 0.43238 0.51902 0.40163 0.0
H922 H 0.46184 0.64363 0.43785 0.0
H923 H 0.49691 0.57289 0.39764 0.0
H924 H 0.61682 0.66965 0.4235 0.0
H925 H 0.5527 0.61429 0.42434 0.0
H926 H 0.50601 0.686 0.40552 0.0
H927 H 0.56939 0.74093 0.40509 0.0
C928 C 0.41875 0.586 0.43162 0.0
C929 C 0.40952 0.5503 0.42158 0.0
C930 C 0.45576 0.61673 0.42955 0.0
C931 C 0.48466 0.61267 0.41738 0.0
C932 C 0.47548 0.57698 0.40729 0.0
C933 C 0.43834 0.54621 0.4093 0.0
C934 C 0.59288 0.6735 0.41932 0.0
C935 C 0.59839 0.70988 0.41448 0.0
C936 C 0.5561 0.64175 0.41974 0.0
C937 C 0.52407 0.64571 0.41532 0.0
C938 C 0.52985 0.68193 0.40961 0.0
C939 C 0.56639 0.7135 0.40922 0.0
H940 H 0.97173 0.60226 0.92687 0.0
H941 H 0.8629 0.55954 0.8892 0.0
H942 H 0.96311 0.53829 0.92646 0.0
H943 H 0.85472 0.49641 0.88833 0.0
H944 H 0.8282 0.38328 0.92349 0.0
H945 H 0.84108 0.44819 0.92044 0.0
H946 H 0.95777 0.48591 0.89957 0.0
H947 H 0.94517 0.42088 0.90364 0.0
C948 C 0.94637 0.57944 0.91809 0.0
C949 C 0.91784 0.58596 0.90838 0.0
C950 C 0.9414 0.54278 0.91783 0.0
C951 C 0.90789 0.51202 0.90776 0.0
C952 C 0.8804 0.51914 0.89686 0.0
C953 C 0.88525 0.55551 0.89724 0.0
C954 C 0.85666 0.40538 0.91837 0.0
C955 C 0.8856 0.39675 0.91382 0.0
C956 C 0.86399 0.44263 0.91632 0.0
C957 C 0.90047 0.47236 0.90961 0.0
C958 C 0.92944 0.46378 0.90494 0.0
C959 C 0.92207 0.42641 0.90695 0.0
H960 H 0.13738 0.38326 0.32451 0.0
H961 H 0.22316 0.36306 0.35772 0.0
H962 H 0.16087 0.38298 0.28075 0.0
H963 H 0.24818 0.36478 0.31385 0.0
H964 H 0.23799 0.30501 0.2369 0.0
H965 H 0.22428 0.31979 0.27993 0.0
H966 H 0.20733 0.40774 0.24663 0.0
H967 H 0.21996 0.39155 0.20273 0.0
C968 C 0.16195 0.37972 0.32247 0.0
C969 C 0.1779 0.37221 0.34443 0.0
C970 C 0.17563 0.37987 0.29732 0.0
C971 C 0.20588 0.37298 0.29365 0.0
C972 C 0.22404 0.369 0.31591 0.0
C973 C 0.20999 0.36832 0.34107 0.0
C974 C 0.23134 0.32755 0.23869 0.0
C975 C 0.22997 0.34713 0.21653 0.0
C976 C 0.22398 0.33642 0.2635 0.0
C977 C 0.21544 0.36551 0.26696 0.0
C978 C 0.21379 0.38512 0.24467 0.0
C979 C 0.22089 0.37588 0.21957 0.0
H980 H 0.95445 0.2561 0.73973 0.0
H981 H 0.84488 0.19066 0.70302 0.0
H982 H 0.9254 0.23569 0.78259 0.0
H983 H 0.81518 0.17055 0.74643 0.0
H984 H 0.79662 0.09739 0.82089 0.0
H985 H 0.81638 0.12786 0.77853 0.0
H986 H 0.88389 0.23619 0.81649 0.0
H987 H 0.86431 0.20498 0.85947 0.0
C988 C 0.92392 0.23773 0.74089 0.0
C989 C 0.90192 0.22447 0.71807 0.0
C990 C 0.90719 0.22639 0.76555 0.0
C991 C 0.86797 0.20142 0.76802 0.0
C992 C 0.84559 0.18952 0.74516 0.0
C993 C 0.86245 0.201 0.72034 0.0
C994 C 0.81537 0.12782 0.82027 0.0
C995 C 0.82938 0.14882 0.84344 0.0
C996 C 0.82634 0.14537 0.7959 0.0
C997 C 0.85174 0.18447 0.79402 0.0
C998 C 0.86453 0.2059 0.81729 0.0
C999 C 0.85334 0.18818 0.84186 0.0
H1000 H 0.68022 0.92685 0.23585 0.0
H1001 H 0.7057 0.84277 0.20675 0.0
H1002 H 0.66826 0.89871 0.27932 0.0
H1003 H 0.69668 0.81592 0.25067 0.0
H1004 H 0.6715 0.7655 0.32946 0.0
H1005 H 0.66051 0.78353 0.28637 0.0
H1006 H 0.70318 0.89811 0.31425 0.0
H1007 H 0.71123 0.87874 0.35783 0.0
C1008 C 0.68295 0.90202 0.23886 0.0
C1009 C 0.69396 0.88691 0.21817 0.0
C1010 C 0.67654 0.88611 0.26384 0.0
C1011 C 0.6822 0.85541 0.26892 0.0
C1012 C 0.69148 0.8392 0.24768 0.0
C1013 C 0.69685 0.85457 0.22245 0.0
C1014 C 0.67737 0.79425 0.32641 0.0
C1015 C 0.69215 0.82083 0.34675 0.0
C1016 C 0.6716 0.80478 0.30163 0.0
C1017 C 0.68172 0.84254 0.29639 0.0
C1018 C 0.69455 0.86863 0.31738 0.0
C1019 C 0.6993 0.85771 0.34244 0.0
H1020 H 0.79477 0.7055 0.74319 0.0
H1021 H 0.86198 0.66587 0.7031 0.0
H1022 H 0.81503 0.69432 0.78512 0.0
H1023 H 0.88202 0.65375 0.74559 0.0
H1024 H 0.95491 0.70634 0.8207 0.0
H1025 H 0.92432 0.69645 0.77854 0.0
H1026 H 0.81519 0.65076 0.81713 0.0
H1027 H 0.84646 0.66156 0.85987 0.0
C1028 C 0.81346 0.69373 0.74339 0.0
C1029 C 0.82731 0.68706 0.71994 0.0
C1030 C 0.82472 0.68687 0.76751 0.0
C1031 C 0.85022 0.67322 0.76879 0.0
C1032 C 0.86262 0.66466 0.74524 0.0
C1033 C 0.85118 0.67149 0.72095 0.0
C1034 C 0.92429 0.69374 0.82023 0.0
C1035 C 0.90304 0.68522 0.84352 0.0
C1036 C 0.90668 0.68762 0.79598 0.0
C1037 C 0.86731 0.67289 0.79439 0.0
C1038 C 0.84568 0.66254 0.81773 0.0
C1039 C 0.86344 0.66863 0.84216 0.0
H1040 H 0.21611 0.84921 0.203 0.0
H1041 H 0.10802 0.7847 0.24245 0.0
H1042 H 0.24764 0.86949 0.24569 0.0
H1043 H 0.13887 0.80514 0.28456 0.0
H1044 H 0.20206 0.83554 0.35972 0.0
H1045 H 0.18169 0.80426 0.31696 0.0
H1046 H 0.24766 0.91262 0.27838 0.0
H1047 H 0.26824 0.94323 0.32059 0.0
C1048 C 0.19926 0.83907 0.22076 0.0
C1049 C 0.15968 0.81586 0.21949 0.0
C1050 C 0.21717 0.85064 0.24515 0.0
C1051 C 0.19572 0.83899 0.26857 0.0
C1052 C 0.15637 0.81423 0.26706 0.0
C1053 C 0.13861 0.80287 0.24284 0.0
C1054 C 0.21256 0.85235 0.34202 0.0
C1055 C 0.23624 0.89176 0.34339 0.0
C1056 C 0.20093 0.83458 0.31758 0.0
C1057 C 0.21296 0.85601 0.29423 0.0
C1058 C 0.23825 0.89514 0.29583 0.0
C1059 C 0.24969 0.91277 0.32011 0.0
H1060 H 0.35362 0.16462 0.85523 0.0
H1061 H 0.38616 0.2766 0.8273 0.0
H1062 H 0.36264 0.1468 0.81131 0.0
H1063 H 0.39819 0.2603 0.78384 0.0
H1064 H 0.35341 0.19983 0.70469 0.0
H1065 H 0.36252 0.22674 0.74853 0.0
H1066 H 0.39834 0.14896 0.77578 0.0
H1067 H 0.38621 0.12055 0.73242 0.0
C1068 C 0.36411 0.18576 0.83982 0.0
C1069 C 0.36892 0.22172 0.84436 0.0
C1070 C 0.36947 0.17575 0.81458 0.0
C1071 C 0.38064 0.20194 0.79365 0.0
C1072 C 0.38841 0.23895 0.79907 0.0
C1073 C 0.38199 0.2485 0.82404 0.0
C1074 C 0.36401 0.18925 0.72003 0.0
C1075 C 0.36886 0.15812 0.71548 0.0
C1076 C 0.3694 0.20465 0.74522 0.0
C1077 C 0.38065 0.18969 0.76608 0.0
C1078 C 0.3885 0.16049 0.76061 0.0
C1079 C 0.38203 0.14448 0.73569 0.0
H1080 H 0.36955 0.29955 0.97575 0.0
H1081 H 0.28873 0.18581 1.00067 0.0
H1082 H 0.34024 0.32479 1.00467 0.0
H1083 H 0.25918 0.21155 1.03048 0.0
H1084 H 0.19816 0.28008 0.0592 0.0
H1085 H 0.22229 0.24944 1.02905 0.0
H1086 H 0.33702 0.32943 0.05258 0.0
H1087 H 0.31331 0.35977 0.08189 0.0
C1088 C 0.34561 0.2799 0.98768 0.0
C1089 C 0.33157 0.24071 0.98609 0.0
C1090 C 0.32877 0.29441 1.00426 0.0
C1091 C 0.29743 0.27022 1.01993 0.0
C1092 C 0.28314 0.23084 1.01846 0.0
C1093 C 0.30029 0.21616 1.00174 0.0
C1094 C 0.22849 0.29122 0.05752 0.0
C1095 C 0.25391 0.32245 0.07267 0.0
C1096 C 0.24225 0.27344 0.04061 0.0
C1097 C 0.28158 0.28706 0.03845 0.0
C1098 C 0.30665 0.31846 0.05354 0.0
C1099 C 0.29304 0.3359 0.07033 0.0
H1100 H 0.12132 0.2795 0.50101 0.0
H1101 H 0.0807 0.35207 0.47173 0.0
H1102 H 0.06652 0.24971 0.53135 0.0
H1103 H 1.02673 0.32261 0.5014 0.0
H1104 H 0.96949 0.30104 0.58113 0.0
H1105 H 1.02241 0.32421 0.55054 0.0
H1106 H 0.99023 0.2092 0.53025 0.0
H1107 H 0.93642 0.18565 0.56138 0.0
C1108 C 0.10082 0.28906 0.50109 0.0
C1109 C 0.10538 0.31823 0.48415 0.0
C1110 C 0.06934 0.27181 0.51819 0.0
C1111 C 0.0424 0.28392 0.51875 0.0
C1112 C 0.04711 0.31287 0.50161 0.0
C1113 C 0.07809 0.32974 0.48459 0.0
C1114 C 0.97341 0.28059 0.57001 0.0
C1115 C 0.94867 0.24155 0.57346 0.0
C1116 C 1.0038 0.29389 0.55251 0.0
C1117 C 1.01048 0.26855 0.53797 0.0
C1118 C 0.98584 0.22934 0.54136 0.0
C1119 C 0.95487 0.2159 0.55885 0.0
H1120 H 0.77344 0.92729 0.06188 0.0
H1121 H 0.69209 0.96054 0.08496 0.0
H1122 H 0.80309 0.98166 0.03138 0.0
H1123 H 0.72147 1.01422 0.05531 0.0
H1124 H 0.7496 0.07493 0.97765 0.0
H1125 H 0.72544 0.0215 1.00749 0.0
H1126 H 0.83988 0.05601 0.03167 0.0
H1127 H 0.86446 0.11011 1.00099 0.0
C1128 C 0.76177 0.94595 0.06026 0.0
C1129 C 0.73033 0.93958 0.07561 0.0
C1130 C 0.77897 0.97726 0.04313 0.0
C1131 C 0.76458 1.00222 0.04091 0.0
C1132 C 0.73304 0.9954 0.05627 0.0
C1133 C 0.71615 0.96455 0.07328 0.0
C1134 C 0.76972 0.07139 0.98943 0.0
C1135 C 0.80891 0.09682 0.9871 0.0
C1136 C 0.75584 0.0407 1.00655 0.0
C1137 C 0.78068 0.03448 1.02202 0.0
C1138 C 0.82007 0.05993 1.01984 0.0
C1139 C 0.8341 0.09109 1.00259 0.0
H1140 H 0.86644 0.76375 0.56357 0.0
H1141 H 0.75071 0.68383 0.58558 0.0
H1142 H 0.84307 0.7939 0.5326 0.0
H1143 H 0.7277 0.7137 0.55544 0.0
H1144 H 0.69693 0.74311 0.478 0.0
H1145 H 0.72534 0.71801 0.5077 0.0
H1146 H 0.80663 0.83154 0.53244 0.0
H1147 H 0.77804 0.85705 0.50188 0.0
C1148 C 0.83614 0.7525 0.5616 0.0
C1149 C 0.81035 0.72135 0.5768 0.0
C1150 C 0.8228 0.76997 0.5442 0.0
C1151 C 0.78351 0.75612 0.54155 0.0
C1152 C 0.75806 0.72483 0.55673 0.0
C1153 C 0.77127 0.70768 0.57402 0.0
C1154 C 0.72079 0.76283 0.48982 0.0
C1155 C 0.7352 0.80203 0.4877 0.0
C1156 C 0.73708 0.74842 0.50687 0.0
C1157 C 0.76818 0.77273 0.52251 0.0
C1158 C 0.78285 0.81213 0.52047 0.0
C1159 C 0.76627 0.82669 0.50328 0.0
H1160 H 0.93846 0.75665 1.00109 0.0
H1161 H 0.97621 0.67929 0.97709 0.0
H1162 H 0.9923 0.78683 0.0319 0.0
H1163 H 1.02918 0.70904 1.00724 0.0
H1164 H 0.12305 0.84958 0.0612 0.0
H1165 H 0.06918 0.82517 1.03037 0.0
H1166 H 0.03219 0.71123 0.05662 0.0
H1167 H 0.08519 0.73516 0.08678 0.0
C1168 C 0.958 0.74598 1.00257 0.0
C1169 C 0.95306 0.71549 0.9869 0.0
C1170 C 0.98896 0.76347 1.01987 0.0
C1171 C 1.0149 0.75024 1.02193 0.0
C1172 C 1.00957 0.71969 1.00626 0.0
C1173 C 0.97914 0.7026 0.98902 0.0
C1174 C 0.10347 0.81937 0.06008 0.0
C1175 C 0.10839 0.79422 0.07619 0.0
C1176 C 0.07249 0.80548 0.04276 0.0
C1177 C 0.04653 0.76629 0.04113 0.0
C1178 C 0.05183 0.74149 0.05726 0.0
C1179 C 0.08227 0.75524 0.07451 0.0
H1180 H 0.31343 0.96355 0.4779 0.0
H1181 H 0.19792 0.92922 0.49971 0.0
H1182 H 0.33686 1.01713 0.50745 0.0
H1183 H 0.22177 0.98363 0.53001 0.0
H1184 H 0.29058 0.11421 0.55819 0.0
H1185 H 0.26093 0.05944 0.52815 0.0
H1186 H 0.33732 0.02268 0.55614 0.0
H1187 H 0.3667 0.07666 0.58538 0.0
C1188 C 0.293 0.96732 0.48928 0.0
C1189 C 0.25386 0.94207 0.48667 0.0
C1190 C 0.30646 0.9981 0.50619 0.0
C1191 C 0.28119 1.0046 0.52108 0.0
C1192 C 0.24185 0.9794 0.51859 0.0
C1193 C 0.22825 0.9481 0.50159 0.0
C1194 C 0.30104 0.09448 0.55762 0.0
C1195 C 0.33105 0.09976 0.57395 0.0
C1196 C 0.28385 0.06299 0.54075 0.0
C1197 C 0.29685 0.03681 0.53982 0.0
C1198 C 0.32687 0.04246 0.5562 0.0
C1199 C 0.34374 0.07347 0.57294 0.0
loop_
_geom_bond_atom_site_label_1
_geom_bond_atom_site_label_2
_geom_bond_distance
_geom_bond_site_symmetry_2
_ccdc_geom_bond_type
Gd0 C3 2.818 . S
Gd0 O20 2.377 . S
Gd0 O22 2.448 . S
Gd0 O23 2.506 . S
Gd0 O24 2.435 . S
Gd0 O25 2.717 . S
Gd0 O27 2.395 . S
Gd0 O31 2.327 . S
Gd1 C12 2.818 . S
Gd1 O21 2.395 . S
Gd1 O25 2.327 . S
Gd1 O26 2.377 . S
Gd1 O28 2.448 . S
Gd1 O29 2.506 . S
Gd1 O30 2.435 . S
Gd1 O31 2.717 . S
C2 O20 1.240 . S
C2 O21 1.240 . S
C3 Gd0 2.818 . S
C3 C4 1.510 . S
C3 O22 1.249 . S
C3 O23 1.252 . S
C4 C3 1.510 . S
C4 C5 1.404 . S
C4 C6 1.352 . S
C5 C4 1.404 . S
C5 C9 1.389 . S
C5 H32 0.930 . S
C6 C4 1.352 . S
C6 C8 1.374 . S
C6 H33 0.931 . S
C7 C8 1.359 . S
C7 C9 1.364 . S
C8 C6 1.374 . S
C8 C7 1.359 . S
C8 H34 0.931 . S
C9 C5 1.389 . S
C9 C7 1.364 . S
C9 H35 0.931 . S
C10 O24 1.256 . S
C10 O25 1.257 . S
C11 O26 1.240 . S
C11 O27 1.240 . S
C12 Gd1 2.818 . S
C12 C13 1.510 . S
C12 O28 1.249 . S
C12 O29 1.252 . S
C13 C12 1.510 . S
C13 C14 1.404 . S
C13 C15 1.352 . S
C14 C13 1.404 . S
C14 C18 1.389 . S
C14 H36 0.930 . S
C15 C13 1.352 . S
C15 C17 1.374 . S
C15 H37 0.931 . S
C16 C17 1.359 . S
C16 C18 1.364 . S
C17 C15 1.374 . S
C17 C16 1.359 . S
C17 H38 0.931 . S
C18 C14 1.389 . S
C18 C16 1.364 . S
C18 H39 0.931 . S
C19 O30 1.256 . S
C19 O31 1.257 . S
O20 Gd0 2.377 . S
O20 C2 1.240 . S
O21 Gd1 2.395 . S
O21 C2 1.240 . S
O22 Gd0 2.448 . S
O22 C3 1.249 . S
O23 Gd0 2.506 . S
O23 C3 1.252 . S
O24 Gd0 2.435 . S
O24 C10 1.256 . S
O25 Gd0 2.717 . S
O25 Gd1 2.327 . S
O25 C10 1.257 . S
O26 Gd1 2.377 . S
O26 C11 1.240 . S
O27 Gd0 2.395 . S
O27 C11 1.240 . S
O28 Gd1 2.448 . S
O28 C12 1.249 . S
O29 Gd1 2.506 . S
O29 C12 1.252 . S
O30 Gd1 2.435 . S
O30 C19 1.256 . S
O31 Gd0 2.327 . S
O31 Gd1 2.717 . S
O31 C19 1.257 . S
H32 C5 0.930 . S
H33 C6 0.931 . S
H34 C8 0.931 . S
H35 C9 0.931 . S
H36 C14 0.930 . S
H37 C15 0.931 . S
H38 C17 0.931 . S
H39 C18 0.931 . S
Gd40 C43 2.818 . S
Gd40 O60 2.377 . S
Gd40 O62 2.448 . S
Gd40 O63 2.506 . S
Gd40 O64 2.435 . S
Gd40 O65 2.717 . S
Gd40 O67 2.395 . S
Gd40 O71 2.327 . S
Gd41 C52 2.818 . S
Gd41 O61 2.395 . S
Gd41 O65 2.327 . S
Gd41 O66 2.377 . S
Gd41 O68 2.448 . S
Gd41 O69 2.506 . S
Gd41 O70 2.435 . S
Gd41 O71 2.717 . S
C42 O60 1.240 . S
C42 O61 1.240 . S
C43 Gd40 2.818 . S
C43 C44 1.510 . S
C43 O62 1.249 . S
C43 O63 1.252 . S
C44 C43 1.510 . S
C44 C45 1.404 . S
C44 C46 1.352 . S
C45 C44 1.404 . S
C45 C49 1.389 . S
C45 H72 0.930 . S
C46 C44 1.352 . S
C46 C48 1.374 . S
C46 H73 0.931 . S
C47 C48 1.359 . S
C47 C49 1.364 . S
C48 C46 1.374 . S
C48 C47 1.359 . S
C48 H74 0.931 . S
C49 C45 1.389 . S
C49 C47 1.364 . S
C49 H75 0.931 . S
C50 O64 1.256 . S
C50 O65 1.257 . S
C51 O66 1.240 . S
C51 O67 1.240 . S
C52 Gd41 2.818 . S
C52 C53 1.510 . S
C52 O68 1.249 . S
C52 O69 1.252 . S
C53 C52 1.510 . S
C53 C54 1.404 1_655 S
C53 C55 1.352 1_655 S
C54 C53 1.404 1_455 S
C54 C58 1.389 . S
C54 H76 0.930 . S
C55 C53 1.352 1_455 S
C55 C57 1.374 . S
C55 H77 0.931 1_455 S
C56 C57 1.359 . S
C56 C58 1.364 . S
C57 C55 1.374 . S
C57 C56 1.359 . S
C57 H78 0.931 . S
C58 C54 1.389 . S
C58 C56 1.364 . S
C58 H79 0.931 . S
C59 O70 1.256 . S
C59 O71 1.257 . S
O60 Gd40 2.377 . S
O60 C42 1.240 . S
O61 Gd41 2.395 . S
O61 C42 1.240 . S
O62 Gd40 2.448 . S
O62 C43 1.249 . S
O63 Gd40 2.506 . S
O63 C43 1.252 . S
O64 Gd40 2.435 . S
O64 C50 1.256 . S
O65 Gd40 2.717 . S
O65 Gd41 2.327 . S
O65 C50 1.257 . S
O66 Gd41 2.377 . S
O66 C51 1.240 . S
O67 Gd40 2.395 . S
O67 C51 1.240 . S
O68 Gd41 2.448 . S
O68 C52 1.249 . S
O69 Gd41 2.506 . S
O69 C52 1.252 . S
O70 Gd41 2.435 . S
O70 C59 1.256 . S
O71 Gd40 2.327 . S
O71 Gd41 2.717 . S
O71 C59 1.257 . S
H72 C45 0.930 . S
H73 C46 0.931 . S
H74 C48 0.931 . S
H75 C49 0.931 . S
H76 C54 0.930 . S
H77 C55 0.931 1_655 S
H78 C57 0.931 . S
H79 C58 0.931 . S
Gd80 C83 2.818 . S
Gd80 O100 2.377 . S
Gd80 O102 2.448 . S
Gd80 O103 2.506 . S
Gd80 O104 2.435 . S
Gd80 O105 2.717 . S
Gd80 O107 2.395 . S
Gd80 O111 2.327 . S
Gd81 C92 2.818 . S
Gd81 O101 2.395 . S
Gd81 O105 2.327 . S
Gd81 O106 2.377 . S
Gd81 O108 2.448 . S
Gd81 O109 2.506 . S
Gd81 O110 2.435 . S
Gd81 O111 2.717 . S
C82 O100 1.240 . S
C82 O101 1.240 . S
C83 Gd80 2.818 . S
C83 C84 1.510 . S
C83 O102 1.249 . S
C83 O103 1.252 . S
C84 C83 1.510 . S
C84 C85 1.404 . S
C84 C86 1.352 . S
C85 C84 1.404 . S
C85 C89 1.389 . S
C85 H112 0.930 . S
C86 C84 1.352 . S
C86 C88 1.374 . S
C86 H113 0.931 . S
C87 C88 1.359 . S
C87 C89 1.364 . S
C88 C86 1.374 . S
C88 C87 1.359 . S
C88 H114 0.931 . S
C89 C85 1.389 . S
C89 C87 1.364 . S
C89 H115 0.931 . S
C90 O104 1.256 . S
C90 O105 1.257 . S
C91 O106 1.240 . S
C91 O107 1.240 . S
C92 Gd81 2.818 . S
C92 C93 1.510 . S
C92 O108 1.249 . S
C92 O109 1.252 . S
C93 C92 1.510 . S
C93 C94 1.404 1_565 S
C93 C95 1.352 1_565 S
C94 C93 1.404 1_545 S
C94 C98 1.389 . S
C94 H116 0.930 . S
C95 C93 1.352 1_545 S
C95 C97 1.374 . S
C95 H117 0.931 1_545 S
C96 C97 1.359 . S
C96 C98 1.364 . S
C97 C95 1.374 . S
C97 C96 1.359 . S
C97 H118 0.931 . S
C98 C94 1.389 . S
C98 C96 1.364 . S
C98 H119 0.931 . S
C99 O110 1.256 . S
C99 O111 1.257 . S
O100 Gd80 2.377 . S
O100 C82 1.240 . S
O101 Gd81 2.395 . S
O101 C82 1.240 . S
O102 Gd80 2.448 . S
O102 C83 1.249 . S
O103 Gd80 2.506 . S
O103 C83 1.252 . S
O104 Gd80 2.435 . S
O104 C90 1.256 . S
O105 Gd80 2.717 . S
O105 Gd81 2.327 . S
O105 C90 1.257 . S
O106 Gd81 2.377 . S
O106 C91 1.240 . S
O107 Gd80 2.395 . S
O107 C91 1.240 . S
O108 Gd81 2.448 . S
O108 C92 1.249 . S
O109 Gd81 2.506 . S
O109 C92 1.252 . S
O110 Gd81 2.435 . S
O110 C99 1.256 . S
O111 Gd80 2.327 . S
O111 Gd81 2.717 . S
O111 C99 1.257 . S
H112 C85 0.930 . S
H113 C86 0.931 . S
H114 C88 0.931 . S
H115 C89 0.931 . S
H116 C94 0.930 . S
H117 C95 0.931 1_565 S
H118 C97 0.931 . S
H119 C98 0.931 . S
Gd120 C123 2.818 . S
Gd120 O140 2.377 . S
Gd120 O142 2.448 . S
Gd120 O143 2.506 . S
Gd120 O144 2.435 . S
Gd120 O145 2.717 . S
Gd120 O147 2.395 . S
Gd120 O151 2.327 . S
Gd121 C132 2.818 . S
Gd121 O141 2.395 . S
Gd121 O145 2.327 . S
Gd121 O146 2.377 . S
Gd121 O148 2.448 . S
Gd121 O149 2.506 . S
Gd121 O150 2.435 . S
Gd121 O151 2.717 . S
C122 O140 1.240 . S
C122 O141 1.240 . S
C123 Gd120 2.818 . S
C123 C124 1.510 . S
C123 O142 1.249 . S
C123 O143 1.252 . S
C124 C123 1.510 . S
C124 C125 1.404 . S
C124 C126 1.352 . S
C125 C124 1.404 . S
C125 C129 1.389 . S
C125 H152 0.930 . S
C126 C124 1.352 . S
C126 C128 1.374 . S
C126 H153 0.931 . S
C127 C128 1.359 . S
C127 C129 1.364 . S
C128 C126 1.374 . S
C128 C127 1.359 . S
C128 H154 0.931 . S
C129 C125 1.389 . S
C129 C127 1.364 . S
C129 H155 0.931 . S
C130 O144 1.256 . S
C130 O145 1.257 . S
C131 O146 1.240 . S
C131 O147 1.240 . S
C132 Gd121 2.818 . S
C132 C133 1.510 . S
C132 O148 1.249 . S
C132 O149 1.252 . S
C133 C132 1.510 . S
C133 C134 1.404 . S
C133 C135 1.352 . S
C134 C133 1.404 . S
C134 C138 1.389 . S
C134 H156 0.930 . S
C135 C133 1.352 . S
C135 C137 1.374 . S
C135 H157 0.931 . S
C136 C137 1.359 . S
C136 C138 1.364 . S
C137 C135 1.374 . S
C137 C136 1.359 . S
C137 H158 0.931 . S
C138 C134 1.389 . S
C138 C136 1.364 . S
C138 H159 0.931 . S
C139 O150 1.256 . S
C139 O151 1.257 . S
O140 Gd120 2.377 . S
O140 C122 1.240 . S
O141 Gd121 2.395 . S
O141 C122 1.240 . S
O142 Gd120 2.448 . S
O142 C123 1.249 . S
O143 Gd120 2.506 . S
O143 C123 1.252 . S
O144 Gd120 2.435 . S
O144 C130 1.256 . S
O145 Gd120 2.717 . S
O145 Gd121 2.327 . S
O145 C130 1.257 . S
O146 Gd121 2.377 . S
O146 C131 1.240 . S
O147 Gd120 2.395 . S
O147 C131 1.240 . S
O148 Gd121 2.448 . S
O148 C132 1.249 . S
O149 Gd121 2.506 . S
O149 C132 1.252 . S
O150 Gd121 2.435 . S
O150 C139 1.256 . S
O151 Gd120 2.327 . S
O151 Gd121 2.717 . S
O151 C139 1.257 . S
H152 C125 0.930 . S
H153 C126 0.931 . S
H154 C128 0.931 . S
H155 C129 0.931 . S
H156 C134 0.930 . S
H157 C135 0.931 . S
H158 C137 0.931 . S
H159 C138 0.931 . S
Gd160 C163 2.818 . S
Gd160 O180 2.377 . S
Gd160 O182 2.448 . S
Gd160 O183 2.506 . S
Gd160 O184 2.435 . S
Gd160 O185 2.717 . S
Gd160 O187 2.395 . S
Gd160 O191 2.327 . S
Gd161 C172 2.818 . S
Gd161 O181 2.395 . S
Gd161 O185 2.327 . S
Gd161 O186 2.377 . S
Gd161 O188 2.448 . S
Gd161 O189 2.506 . S
Gd161 O190 2.435 . S
Gd161 O191 2.717 . S
C162 O180 1.240 . S
C162 O181 1.240 . S
C163 Gd160 2.818 . S
C163 C164 1.510 . S
C163 O182 1.249 . S
C163 O183 1.252 . S
C164 C163 1.510 . S
C164 C165 1.404 . S
C164 C166 1.352 . S
C165 C164 1.404 . S
C165 C169 1.389 . S
C165 H192 0.930 . S
C166 C164 1.352 . S
C166 C168 1.374 . S
C166 H193 0.931 . S
C167 C168 1.359 . S
C167 C169 1.364 . S
C168 C166 1.374 . S
C168 C167 1.359 . S
C168 H194 0.931 . S
C169 C165 1.389 . S
C169 C167 1.364 . S
C169 H195 0.931 . S
C170 O184 1.256 . S
C170 O185 1.257 . S
C171 O186 1.240 . S
C171 O187 1.240 . S
C172 Gd161 2.818 . S
C172 C173 1.510 . S
C172 O188 1.249 . S
C172 O189 1.252 . S
C173 C172 1.510 . S
C173 C174 1.404 1_455 S
C173 C175 1.352 1_455 S
C174 C173 1.404 1_655 S
C174 C178 1.389 . S
C174 H196 0.930 . S
C175 C173 1.352 1_655 S
C175 C177 1.374 . S
C175 H197 0.931 1_655 S
C176 C177 1.359 . S
C176 C178 1.364 . S
C177 C175 1.374 . S
C177 C176 1.359 . S
C177 H198 0.931 . S
C178 C174 1.389 . S
C178 C176 1.364 . S
C178 H199 0.931 . S
C179 O190 1.256 . S
C179 O191 1.257 . S
O180 Gd160 2.377 . S
O180 C162 1.240 . S
O181 Gd161 2.395 . S
O181 C162 1.240 . S
O182 Gd160 2.448 . S
O182 C163 1.249 . S
O183 Gd160 2.506 . S
O183 C163 1.252 . S
O184 Gd160 2.435 . S
O184 C170 1.256 . S
O185 Gd160 2.717 . S
O185 Gd161 2.327 . S
O185 C170 1.257 . S
O186 Gd161 2.377 . S
O186 C171 1.240 . S
O187 Gd160 2.395 . S
O187 C171 1.240 . S
O188 Gd161 2.448 . S
O188 C172 1.249 . S
O189 Gd161 2.506 . S
O189 C172 1.252 . S
O190 Gd161 2.435 . S
O190 C179 1.256 . S
O191 Gd160 2.327 . S
O191 Gd161 2.717 . S
O191 C179 1.257 . S
H192 C165 0.930 . S
H193 C166 0.931 . S
H194 C168 0.931 . S
H195 C169 0.931 . S
H196 C174 0.930 . S
H197 C175 0.931 1_455 S
H198 C177 0.931 . S
H199 C178 0.931 . S
Gd200 C203 2.818 . S
Gd200 O220 2.377 . S
Gd200 O222 2.448 . S
Gd200 O223 2.506 . S
Gd200 O224 2.435 . S
Gd200 O225 2.717 . S
Gd200 O227 2.395 . S
Gd200 O231 2.327 . S
Gd201 C212 2.818 . S
Gd201 O221 2.395 . S
Gd201 O225 2.327 . S
Gd201 O226 2.377 . S
Gd201 O228 2.448 . S
Gd201 O229 2.506 . S
Gd201 O230 2.435 . S
Gd201 O231 2.717 . S
C202 O220 1.240 . S
C202 O221 1.240 . S
C203 Gd200 2.818 . S
C203 C204 1.510 . S
C203 O222 1.249 . S
C203 O223 1.252 . S
C204 C203 1.510 . S
C204 C205 1.404 . S
C204 C206 1.352 . S
C205 C204 1.404 . S
C205 C209 1.389 . S
C205 H232 0.930 . S
C206 C204 1.352 . S
C206 C208 1.374 . S
C206 H233 0.931 . S
C207 C208 1.359 . S
C207 C209 1.364 . S
C208 C206 1.374 . S
C208 C207 1.359 . S
C208 H234 0.931 . S
C209 C205 1.389 . S
C209 C207 1.364 . S
C209 H235 0.931 . S
C210 O224 1.256 . S
C210 O225 1.257 . S
C211 O226 1.240 . S
C211 O227 1.240 . S
C212 Gd201 2.818 . S
C212 C213 1.510 . S
C212 O228 1.249 . S
C212 O229 1.252 . S
C213 C212 1.510 . S
C213 C214 1.404 1_545 S
C213 C215 1.352 1_545 S
C214 C213 1.404 1_565 S
C214 C218 1.389 . S
C214 H236 0.930 . S
C215 C213 1.352 1_565 S
C215 C217 1.374 . S
C215 H237 0.931 1_565 S
C216 C217 1.359 . S
C216 C218 1.364 . S
C217 C215 1.374 . S
C217 C216 1.359 . S
C217 H238 0.931 . S
C218 C214 1.389 . S
C218 C216 1.364 . S
C218 H239 0.931 . S
C219 O230 1.256 . S
C219 O231 1.257 . S
O220 Gd200 2.377 . S
O220 C202 1.240 . S
O221 Gd201 2.395 . S
O221 C202 1.240 . S
O222 Gd200 2.448 . S
O222 C203 1.249 . S
O223 Gd200 2.506 . S
O223 C203 1.252 . S
O224 Gd200 2.435 . S
O224 C210 1.256 . S
O225 Gd200 2.717 . S
O225 Gd201 2.327 . S
O225 C210 1.257 . S
O226 Gd201 2.377 . S
O226 C211 1.240 . S
O227 Gd200 2.395 . S
O227 C211 1.240 . S
O228 Gd201 2.448 . S
O228 C212 1.249 . S
O229 Gd201 2.506 . S
O229 C212 1.252 . S
O230 Gd201 2.435 . S
O230 C219 1.256 . S
O231 Gd200 2.327 . S
O231 Gd201 2.717 . S
O231 C219 1.257 . S
H232 C205 0.930 . S
H233 C206 0.931 . S
H234 C208 0.931 . S
H235 C209 0.931 . S
H236 C214 0.930 . S
H237 C215 0.931 1_545 S
H238 C217 0.931 . S
H239 C218 0.931 . S
Gd240 C243 2.818 . S
Gd240 O260 2.377 . S
Gd240 O262 2.448 . S
Gd240 O263 2.506 . S
Gd240 O264 2.435 . S
Gd240 O265 2.717 . S
Gd240 O267 2.395 . S
Gd240 O271 2.327 . S
Gd241 C252 2.818 . S
Gd241 O261 2.395 . S
Gd241 O265 2.327 . S
Gd241 O266 2.377 . S
Gd241 O268 2.448 . S
Gd241 O269 2.506 . S
Gd241 O270 2.435 . S
Gd241 O271 2.717 . S
C242 O260 1.240 . S
C242 O261 1.240 . S
C243 Gd240 2.818 . S
C243 C244 1.510 . S
C243 O262 1.249 . S
C243 O263 1.252 . S
C244 C243 1.510 . S
C244 C245 1.404 . S
C244 C246 1.352 . S
C245 C244 1.404 . S
C245 C249 1.389 . S
C245 H272 0.930 . S
C246 C244 1.352 . S
C246 C248 1.374 . S
C246 H273 0.931 . S
C247 C248 1.359 . S
C247 C249 1.364 . S
C248 C246 1.374 . S
C248 C247 1.359 . S
C248 H274 0.931 . S
C249 C245 1.389 . S
C249 C247 1.364 . S
C249 H275 0.931 . S
C250 O264 1.256 . S
C250 O265 1.257 . S
C251 O266 1.240 . S
C251 O267 1.240 . S
C252 Gd241 2.818 . S
C252 C253 1.510 . S
C252 O268 1.249 . S
C252 O269 1.252 . S
C253 C252 1.510 . S
C253 C254 1.404 . S
C253 C255 1.352 . S
C254 C253 1.404 . S
C254 C258 1.389 . S
C254 H276 0.930 . S
C255 C253 1.352 . S
C255 C257 1.374 . S
C255 H277 0.931 . S
C256 C257 1.359 . S
C256 C258 1.364 . S
C257 C255 1.374 . S
C257 C256 1.359 . S
C257 H278 0.931 . S
C258 C254 1.389 . S
C258 C256 1.364 . S
C258 H279 0.931 . S
C259 O270 1.256 . S
C259 O271 1.257 . S
O260 Gd240 2.377 . S
O260 C242 1.240 . S
O261 Gd241 2.395 . S
O261 C242 1.240 . S
O262 Gd240 2.448 . S
O262 C243 1.249 . S
O263 Gd240 2.506 . S
O263 C243 1.252 . S
O264 Gd240 2.435 . S
O264 C250 1.256 . S
O265 Gd240 2.717 . S
O265 Gd241 2.327 . S
O265 C250 1.257 . S
O266 Gd241 2.377 . S
O266 C251 1.240 . S
O267 Gd240 2.395 . S
O267 C251 1.240 . S
O268 Gd241 2.448 . S
O268 C252 1.249 . S
O269 Gd241 2.506 . S
O269 C252 1.252 . S
O270 Gd241 2.435 . S
O270 C259 1.256 . S
O271 Gd240 2.327 . S
O271 Gd241 2.717 . S
O271 C259 1.257 . S
H272 C245 0.930 . S
H273 C246 0.931 . S
H274 C248 0.931 . S
H275 C249 0.931 . S
H276 C254 0.930 . S
H277 C255 0.931 . S
H278 C257 0.931 . S
H279 C258 0.931 . S
Gd280 C283 2.818 . S
Gd280 O300 2.377 . S
Gd280 O302 2.448 . S
Gd280 O303 2.506 . S
Gd280 O304 2.435 . S
Gd280 O305 2.717 . S
Gd280 O307 2.395 . S
Gd280 O311 2.327 . S
Gd281 C292 2.818 . S
Gd281 O301 2.395 . S
Gd281 O305 2.327 . S
Gd281 O306 2.377 . S
Gd281 O308 2.448 . S
Gd281 O309 2.506 . S
Gd281 O310 2.435 . S
Gd281 O311 2.717 . S
C282 O300 1.240 . S
C282 O301 1.240 . S
C283 Gd280 2.818 . S
C283 C284 1.510 . S
C283 O302 1.249 . S
C283 O303 1.252 . S
C284 C283 1.510 . S
C284 C285 1.404 . S
C284 C286 1.352 . S
C285 C284 1.404 . S
C285 C289 1.389 . S
C285 H312 0.930 . S
C286 C284 1.352 . S
C286 C288 1.374 . S
C286 H313 0.931 . S
C287 C288 1.359 . S
C287 C289 1.364 . S
C288 C286 1.374 . S
C288 C287 1.359 . S
C288 H314 0.931 . S
C289 C285 1.389 . S
C289 C287 1.364 . S
C289 H315 0.931 . S
C290 O304 1.256 . S
C290 O305 1.257 . S
C291 O306 1.240 . S
C291 O307 1.240 . S
C292 Gd281 2.818 . S
C292 C293 1.510 . S
C292 O308 1.249 . S
C292 O309 1.252 . S
C293 C292 1.510 . S
C293 C294 1.404 1_655 S
C293 C295 1.352 1_655 S
C294 C293 1.404 1_455 S
C294 C298 1.389 . S
C294 H316 0.930 . S
C295 C293 1.352 1_455 S
C295 C297 1.374 . S
C295 H317 0.931 1_455 S
C296 C297 1.359 . S
C296 C298 1.364 . S
C297 C295 1.374 . S
C297 C296 1.359 . S
C297 H318 0.931 . S
C298 C294 1.389 . S
C298 C296 1.364 . S
C298 H319 0.931 . S
C299 O310 1.256 . S
C299 O311 1.257 . S
O300 Gd280 2.377 . S
O300 C282 1.240 . S
O301 Gd281 2.395 . S
O301 C282 1.240 . S
O302 Gd280 2.448 . S
O302 C283 1.249 . S
O303 Gd280 2.506 . S
O303 C283 1.252 . S
O304 Gd280 2.435 . S
O304 C290 1.256 . S
O305 Gd280 2.717 . S
O305 Gd281 2.327 . S
O305 C290 1.257 . S
O306 Gd281 2.377 . S
O306 C291 1.240 . S
O307 Gd280 2.395 . S
O307 C291 1.240 . S
O308 Gd281 2.448 . S
O308 C292 1.249 . S
O309 Gd281 2.506 . S
O309 C292 1.252 . S
O310 Gd281 2.435 . S
O310 C299 1.256 . S
O311 Gd280 2.327 . S
O311 Gd281 2.717 . S
O311 C299 1.257 . S
H312 C285 0.930 . S
H313 C286 0.931 . S
H314 C288 0.931 . S
H315 C289 0.931 . S
H316 C294 0.930 . S
H317 C295 0.931 1_655 S
H318 C297 0.931 . S
H319 C298 0.931 . S
Gd320 C323 2.818 . S
Gd320 O340 2.377 . S
Gd320 O342 2.448 . S
Gd320 O343 2.506 . S
Gd320 O344 2.435 . S
Gd320 O345 2.717 . S
Gd320 O347 2.395 . S
Gd320 O351 2.327 . S
Gd321 C332 2.818 . S
Gd321 O341 2.395 . S
Gd321 O345 2.327 . S
Gd321 O346 2.377 . S
Gd321 O348 2.448 . S
Gd321 O349 2.506 . S
Gd321 O350 2.435 . S
Gd321 O351 2.717 . S
C322 O340 1.240 . S
C322 O341 1.240 . S
C323 Gd320 2.818 . S
C323 C324 1.510 . S
C323 O342 1.249 . S
C323 O343 1.252 . S
C324 C323 1.510 . S
C324 C325 1.404 . S
C324 C326 1.352 . S
C325 C324 1.404 . S
C325 C329 1.389 . S
C325 H352 0.930 . S
C326 C324 1.352 . S
C326 C328 1.374 . S
C326 H353 0.931 . S
C327 C328 1.359 . S
C327 C329 1.364 . S
C328 C326 1.374 . S
C328 C327 1.359 . S
C328 H354 0.931 . S
C329 C325 1.389 . S
C329 C327 1.364 . S
C329 H355 0.931 . S
C330 O344 1.256 . S
C330 O345 1.257 . S
C331 O346 1.240 . S
C331 O347 1.240 . S
C332 Gd321 2.818 . S
C332 C333 1.510 . S
C332 O348 1.249 . S
C332 O349 1.252 . S
C333 C332 1.510 . S
C333 C334 1.404 1_565 S
C333 C335 1.352 1_565 S
C334 C333 1.404 1_545 S
C334 C338 1.389 . S
C334 H356 0.930 . S
C335 C333 1.352 1_545 S
C335 C337 1.374 . S
C335 H357 0.931 1_545 S
C336 C337 1.359 . S
C336 C338 1.364 . S
C337 C335 1.374 . S
C337 C336 1.359 . S
C337 H358 0.931 . S
C338 C334 1.389 . S
C338 C336 1.364 . S
C338 H359 0.931 . S
C339 O350 1.256 . S
C339 O351 1.257 . S
O340 Gd320 2.377 . S
O340 C322 1.240 . S
O341 Gd321 2.395 . S
O341 C322 1.240 . S
O342 Gd320 2.448 . S
O342 C323 1.249 . S
O343 Gd320 2.506 . S
O343 C323 1.252 . S
O344 Gd320 2.435 . S
O344 C330 1.256 . S
O345 Gd320 2.717 . S
O345 Gd321 2.327 . S
O345 C330 1.257 . S
O346 Gd321 2.377 . S
O346 C331 1.240 . S
O347 Gd320 2.395 . S
O347 C331 1.240 . S
O348 Gd321 2.448 . S
O348 C332 1.249 . S
O349 Gd321 2.506 . S
O349 C332 1.252 . S
O350 Gd321 2.435 . S
O350 C339 1.256 . S
O351 Gd320 2.327 . S
O351 Gd321 2.717 . S
O351 C339 1.257 . S
H352 C325 0.930 . S
H353 C326 0.931 . S
H354 C328 0.931 . S
H355 C329 0.931 . S
H356 C334 0.930 . S
H357 C335 0.931 1_565 S
H358 C337 0.931 . S
H359 C338 0.931 . S
Gd360 C363 2.818 . S
Gd360 O380 2.377 . S
Gd360 O382 2.448 . S
Gd360 O383 2.506 . S
Gd360 O384 2.435 . S
Gd360 O385 2.717 . S
Gd360 O387 2.395 . S
Gd360 O391 2.327 . S
Gd361 C372 2.818 . S
Gd361 O381 2.395 . S
Gd361 O385 2.327 . S
Gd361 O386 2.377 . S
Gd361 O388 2.448 . S
Gd361 O389 2.506 . S
Gd361 O390 2.435 . S
Gd361 O391 2.717 . S
C362 O380 1.240 . S
C362 O381 1.240 . S
C363 Gd360 2.818 . S
C363 C364 1.510 . S
C363 O382 1.249 . S
C363 O383 1.252 . S
C364 C363 1.510 . S
C364 C365 1.404 . S
C364 C366 1.352 . S
C365 C364 1.404 . S
C365 C369 1.389 . S
C365 H392 0.930 . S
C366 C364 1.352 . S
C366 C368 1.374 . S
C366 H393 0.931 . S
C367 C368 1.359 . S
C367 C369 1.364 . S
C368 C366 1.374 . S
C368 C367 1.359 . S
C368 H394 0.931 . S
C369 C365 1.389 . S
C369 C367 1.364 . S
C369 H395 0.931 . S
C370 O384 1.256 . S
C370 O385 1.257 . S
C371 O386 1.240 . S
C371 O387 1.240 . S
C372 Gd361 2.818 . S
C372 C373 1.510 . S
C372 O388 1.249 . S
C372 O389 1.252 . S
C373 C372 1.510 . S
C373 C374 1.404 . S
C373 C375 1.352 . S
C374 C373 1.404 . S
C374 C378 1.389 . S
C374 H396 0.930 . S
C375 C373 1.352 . S
C375 C377 1.374 . S
C375 H397 0.931 . S
C376 C377 1.359 . S
C376 C378 1.364 . S
C377 C375 1.374 . S
C377 C376 1.359 . S
C377 H398 0.931 . S
C378 C374 1.389 . S
C378 C376 1.364 . S
C378 H399 0.931 . S
C379 O390 1.256 . S
C379 O391 1.257 . S
O380 Gd360 2.377 . S
O380 C362 1.240 . S
O381 Gd361 2.395 . S
O381 C362 1.240 . S
O382 Gd360 2.448 . S
O382 C363 1.249 . S
O383 Gd360 2.506 . S
O383 C363 1.252 . S
O384 Gd360 2.435 . S
O384 C370 1.256 . S
O385 Gd360 2.717 . S
O385 Gd361 2.327 . S
O385 C370 1.257 . S
O386 Gd361 2.377 . S
O386 C371 1.240 . S
O387 Gd360 2.395 . S
O387 C371 1.240 . S
O388 Gd361 2.448 . S
O388 C372 1.249 . S
O389 Gd361 2.506 . S
O389 C372 1.252 . S
O390 Gd361 2.435 . S
O390 C379 1.256 . S
O391 Gd360 2.327 . S
O391 Gd361 2.717 . S
O391 C379 1.257 . S
H392 C365 0.930 . S
H393 C366 0.931 . S
H394 C368 0.931 . S
H395 C369 0.931 . S
H396 C374 0.930 . S
H397 C375 0.931 . S
H398 C377 0.931 . S
H399 C378 0.931 . S
Gd400 C403 2.818 . S
Gd400 O420 2.377 . S
Gd400 O422 2.448 . S
Gd400 O423 2.506 . S
Gd400 O424 2.435 . S
Gd400 O425 2.717 . S
Gd400 O427 2.395 . S
Gd400 O431 2.327 . S
Gd401 C412 2.818 . S
Gd401 O421 2.395 . S
Gd401 O425 2.327 . S
Gd401 O426 2.377 . S
Gd401 O428 2.448 . S
Gd401 O429 2.506 . S
Gd401 O430 2.435 . S
Gd401 O431 2.717 . S
C402 O420 1.240 . S
C402 O421 1.240 . S
C403 Gd400 2.818 . S
C403 C404 1.510 . S
C403 O422 1.249 . S
C403 O423 1.252 . S
C404 C403 1.510 . S
C404 C405 1.404 . S
C404 C406 1.352 . S
C405 C404 1.404 . S
C405 C409 1.389 . S
C405 H432 0.930 . S
C406 C404 1.352 . S
C406 C408 1.374 . S
C406 H433 0.931 . S
C407 C408 1.359 . S
C407 C409 1.364 . S
C408 C406 1.374 . S
C408 C407 1.359 . S
C408 H434 0.931 . S
C409 C405 1.389 . S
C409 C407 1.364 . S
C409 H435 0.931 . S
C410 O424 1.256 . S
C410 O425 1.257 . S
C411 O426 1.240 . S
C411 O427 1.240 . S
C412 Gd401 2.818 . S
C412 C413 1.510 . S
C412 O428 1.249 . S
C412 O429 1.252 . S
C413 C412 1.510 . S
C413 C414 1.404 1_455 S
C413 C415 1.352 1_455 S
C414 C413 1.404 1_655 S
C414 C418 1.389 . S
C414 H436 0.930 . S
C415 C413 1.352 1_655 S
C415 C417 1.374 . S
C415 H437 0.931 1_655 S
C416 C417 1.359 . S
C416 C418 1.364 . S
C417 C415 1.374 . S
C417 C416 1.359 . S
C417 H438 0.931 . S
C418 C414 1.389 . S
C418 C416 1.364 . S
C418 H439 0.931 . S
C419 O430 1.256 . S
C419 O431 1.257 . S
O420 Gd400 2.377 . S
O420 C402 1.240 . S
O421 Gd401 2.395 . S
O421 C402 1.240 . S
O422 Gd400 2.448 . S
O422 C403 1.249 . S
O423 Gd400 2.506 . S
O423 C403 1.252 . S
O424 Gd400 2.435 . S
O424 C410 1.256 . S
O425 Gd400 2.717 . S
O425 Gd401 2.327 . S
O425 C410 1.257 . S
O426 Gd401 2.377 . S
O426 C411 1.240 . S
O427 Gd400 2.395 . S
O427 C411 1.240 . S
O428 Gd401 2.448 . S
O428 C412 1.249 . S
O429 Gd401 2.506 . S
O429 C412 1.252 . S
O430 Gd401 2.435 . S
O430 C419 1.256 . S
O431 Gd400 2.327 . S
O431 Gd401 2.717 . S
O431 C419 1.257 . S
H432 C405 0.930 . S
H433 C406 0.931 . S
H434 C408 0.931 . S
H435 C409 0.931 . S
H436 C414 0.930 . S
H437 C415 0.931 1_455 S
H438 C417 0.931 . S
H439 C418 0.931 . S
Gd440 C443 2.818 . S
Gd440 O460 2.377 . S
Gd440 O462 2.448 . S
Gd440 O463 2.506 . S
Gd440 O464 2.435 . S
Gd440 O465 2.717 . S
Gd440 O467 2.395 . S
Gd440 O471 2.327 . S
Gd441 C452 2.818 . S
Gd441 O461 2.395 . S
Gd441 O465 2.327 . S
Gd441 O466 2.377 . S
Gd441 O468 2.448 . S
Gd441 O469 2.506 . S
Gd441 O470 2.435 . S
Gd441 O471 2.717 . S
C442 O460 1.240 . S
C442 O461 1.240 . S
C443 Gd440 2.818 . S
C443 C444 1.510 . S
C443 O462 1.249 . S
C443 O463 1.252 . S
C444 C443 1.510 . S
C444 C445 1.404 . S
C444 C446 1.352 . S
C445 C444 1.404 . S
C445 C449 1.389 . S
C445 H472 0.930 . S
C446 C444 1.352 . S
C446 C448 1.374 . S
C446 H473 0.931 . S
C447 C448 1.359 . S
C447 C449 1.364 . S
C448 C446 1.374 . S
C448 C447 1.359 . S
C448 H474 0.931 . S
C449 C445 1.389 . S
C449 C447 1.364 . S
C449 H475 0.931 . S
C450 O464 1.256 . S
C450 O465 1.257 . S
C451 O466 1.240 . S
C451 O467 1.240 . S
C452 Gd441 2.818 . S
C452 C453 1.510 . S
C452 O468 1.249 . S
C452 O469 1.252 . S
C453 C452 1.510 . S
C453 C454 1.404 1_545 S
C453 C455 1.352 1_545 S
C454 C453 1.404 1_565 S
C454 C458 1.389 . S
C454 H476 0.930 . S
C455 C453 1.352 1_565 S
C455 C457 1.374 . S
C455 H477 0.931 1_565 S
C456 C457 1.359 . S
C456 C458 1.364 . S
C457 C455 1.374 . S
C457 C456 1.359 . S
C457 H478 0.931 . S
C458 C454 1.389 . S
C458 C456 1.364 . S
C458 H479 0.931 . S
C459 O470 1.256 . S
C459 O471 1.257 . S
O460 Gd440 2.377 . S
O460 C442 1.240 . S
O461 Gd441 2.395 . S
O461 C442 1.240 . S
O462 Gd440 2.448 . S
O462 C443 1.249 . S
O463 Gd440 2.506 . S
O463 C443 1.252 . S
O464 Gd440 2.435 . S
O464 C450 1.256 . S
O465 Gd440 2.717 . S
O465 Gd441 2.327 . S
O465 C450 1.257 . S
O466 Gd441 2.377 . S
O466 C451 1.240 . S
O467 Gd440 2.395 . S
O467 C451 1.240 . S
O468 Gd441 2.448 . S
O468 C452 1.249 . S
O469 Gd441 2.506 . S
O469 C452 1.252 . S
O470 Gd441 2.435 . S
O470 C459 1.256 . S
O471 Gd440 2.327 . S
O471 Gd441 2.717 . S
O471 C459 1.257 . S
H472 C445 0.930 . S
H473 C446 0.931 . S
H474 C448 0.931 . S
H475 C449 0.931 . S
H476 C454 0.930 . S
H477 C455 0.931 1_545 S
H478 C457 0.931 . S
H479 C458 0.931 . S
H480 C488 0.950 . S
H481 C493 0.950 . S
H482 C490 0.950 . S
H483 C492 0.950 . S
H484 C494 0.950 . S
H485 C496 0.950 . S
H486 C498 0.950 . S
H487 C499 0.950 . S
C488 H480 0.950 . S
C488 C489 1.386 . S
C488 C490 1.391 . S
C489 C488 1.386 . S
C489 C493 1.393 . S
C490 H482 0.950 . S
C490 C488 1.391 . S
C490 C491 1.400 . S
C491 C490 1.400 . S
C491 C492 1.398 . S
C491 C497 1.491 1_565 S
C492 H483 0.950 . S
C492 C491 1.398 . S
C492 C493 1.391 . S
C493 H481 0.950 . S
C493 C489 1.393 . S
C493 C492 1.391 . S
C494 H484 0.950 . S
C494 C495 1.386 . S
C494 C496 1.391 . S
C495 C494 1.386 . S
C495 C499 1.393 . S
C496 H485 0.950 . S
C496 C494 1.391 . S
C496 C497 1.400 . S
C497 C491 1.491 1_545 S
C497 C496 1.400 . S
C497 C498 1.398 . S
C498 H486 0.950 . S
C498 C497 1.398 . S
C498 C499 1.391 . S
C499 H487 0.950 . S
C499 C495 1.393 . S
C499 C498 1.391 . S
H500 C508 0.950 . S
H501 C513 0.950 . S
H502 C510 0.950 . S
H503 C512 0.950 . S
H504 C514 0.950 . S
H505 C516 0.950 . S
H506 C518 0.950 . S
H507 C519 0.950 . S
C508 H500 0.950 . S
C508 C509 1.386 . S
C508 C510 1.391 . S
C509 C508 1.386 . S
C509 C513 1.393 . S
C510 H502 0.950 . S
C510 C508 1.391 . S
C510 C511 1.400 . S
C511 C510 1.400 . S
C511 C512 1.398 . S
C511 C517 1.491 . S
C512 H503 0.950 . S
C512 C511 1.398 . S
C512 C513 1.391 . S
C513 H501 0.950 . S
C513 C509 1.393 . S
C513 C512 1.391 . S
C514 H504 0.950 . S
C514 C515 1.386 . S
C514 C516 1.391 . S
C515 C514 1.386 . S
C515 C519 1.393 . S
C516 H505 0.950 . S
C516 C514 1.391 . S
C516 C517 1.400 . S
C517 C511 1.491 . S
C517 C516 1.400 . S
C517 C518 1.398 . S
C518 H506 0.950 . S
C518 C517 1.398 . S
C518 C519 1.391 . S
C519 H507 0.950 . S
C519 C515 1.393 . S
C519 C518 1.391 . S
H520 C528 0.950 . S
H521 C533 0.950 . S
H522 C530 0.950 . S
H523 C532 0.950 . S
H524 C534 0.950 . S
H525 C536 0.950 . S
H526 C538 0.950 . S
H527 C539 0.950 . S
C528 H520 0.950 . S
C528 C529 1.386 . S
C528 C530 1.391 . S
C529 C528 1.386 . S
C529 C533 1.393 . S
C530 H522 0.950 . S
C530 C528 1.391 . S
C530 C531 1.400 . S
C531 C530 1.400 . S
C531 C532 1.398 . S
C531 C537 1.491 1_655 S
C532 H523 0.950 . S
C532 C531 1.398 . S
C532 C533 1.391 . S
C533 H521 0.950 . S
C533 C529 1.393 . S
C533 C532 1.391 . S
C534 H524 0.950 . S
C534 C535 1.386 . S
C534 C536 1.391 . S
C535 C534 1.386 . S
C535 C539 1.393 . S
C536 H525 0.950 . S
C536 C534 1.391 . S
C536 C537 1.400 . S
C537 C531 1.491 1_455 S
C537 C536 1.400 . S
C537 C538 1.398 . S
C538 H526 0.950 . S
C538 C537 1.398 . S
C538 C539 1.391 . S
C539 H527 0.950 . S
C539 C535 1.393 . S
C539 C538 1.391 . S
H540 C548 0.950 . S
H541 C553 0.950 . S
H542 C550 0.950 . S
H543 C552 0.950 . S
H544 C554 0.950 . S
H545 C556 0.950 . S
H546 C558 0.950 . S
H547 C559 0.950 . S
C548 H540 0.950 . S
C548 C549 1.386 . S
C548 C550 1.391 . S
C549 C548 1.386 . S
C549 C553 1.393 . S
C550 H542 0.950 . S
C550 C548 1.391 . S
C550 C551 1.400 . S
C551 C550 1.400 . S
C551 C552 1.398 . S
C551 C557 1.491 1_565 S
C552 H543 0.950 . S
C552 C551 1.398 . S
C552 C553 1.391 . S
C553 H541 0.950 . S
C553 C549 1.393 . S
C553 C552 1.391 . S
C554 H544 0.950 . S
C554 C555 1.386 . S
C554 C556 1.391 . S
C555 C554 1.386 . S
C555 C559 1.393 . S
C556 H545 0.950 . S
C556 C554 1.391 . S
C556 C557 1.400 . S
C557 C551 1.491 1_545 S
C557 C556 1.400 . S
C557 C558 1.398 . S
C558 H546 0.950 . S
C558 C557 1.398 . S
C558 C559 1.391 . S
C559 H547 0.950 . S
C559 C555 1.393 . S
C559 C558 1.391 . S
H560 C568 0.950 . S
H561 C573 0.950 . S
H562 C570 0.950 . S
H563 C572 0.950 . S
H564 C574 0.950 . S
H565 C576 0.950 . S
H566 C578 0.950 . S
H567 C579 0.950 . S
C568 H560 0.950 . S
C568 C569 1.386 . S
C568 C570 1.391 . S
C569 C568 1.386 . S
C569 C573 1.393 . S
C570 H562 0.950 . S
C570 C568 1.391 . S
C570 C571 1.400 . S
C571 C570 1.400 . S
C571 C572 1.398 . S
C571 C577 1.491 . S
C572 H563 0.950 . S
C572 C571 1.398 . S
C572 C573 1.391 . S
C573 H561 0.950 . S
C573 C569 1.393 . S
C573 C572 1.391 . S
C574 H564 0.950 . S
C574 C575 1.386 . S
C574 C576 1.391 . S
C575 C574 1.386 . S
C575 C579 1.393 . S
C576 H565 0.950 . S
C576 C574 1.391 . S
C576 C577 1.400 . S
C577 C571 1.491 . S
C577 C576 1.400 . S
C577 C578 1.398 . S
C578 H566 0.950 . S
C578 C577 1.398 . S
C578 C579 1.391 . S
C579 H567 0.950 . S
C579 C575 1.393 . S
C579 C578 1.391 . S
H580 C588 0.950 . S
H581 C593 0.950 . S
H582 C590 0.950 . S
H583 C592 0.950 . S
H584 C594 0.950 . S
H585 C596 0.950 . S
H586 C598 0.950 . S
H587 C599 0.950 . S
C588 H580 0.950 . S
C588 C589 1.386 . S
C588 C590 1.391 . S
C589 C588 1.386 . S
C589 C593 1.393 . S
C590 H582 0.950 . S
C590 C588 1.391 . S
C590 C591 1.400 . S
C591 C590 1.400 . S
C591 C592 1.398 . S
C591 C597 1.491 1_655 S
C592 H583 0.950 . S
C592 C591 1.398 . S
C592 C593 1.391 . S
C593 H581 0.950 . S
C593 C589 1.393 . S
C593 C592 1.391 . S
C594 H584 0.950 . S
C594 C595 1.386 . S
C594 C596 1.391 . S
C595 C594 1.386 . S
C595 C599 1.393 . S
C596 H585 0.950 . S
C596 C594 1.391 . S
C596 C597 1.400 . S
C597 C591 1.491 1_455 S
C597 C596 1.400 . S
C597 C598 1.398 . S
C598 H586 0.950 . S
C598 C597 1.398 . S
C598 C599 1.391 . S
C599 H587 0.950 . S
C599 C595 1.393 . S
C599 C598 1.391 . S
H600 C608 0.950 . S
H601 C613 0.950 . S
H602 C610 0.950 . S
H603 C612 0.950 . S
H604 C614 0.950 . S
H605 C616 0.950 . S
H606 C618 0.950 . S
H607 C619 0.950 . S
C608 H600 0.950 . S
C608 C609 1.386 . S
C608 C610 1.391 . S
C609 C608 1.386 . S
C609 C613 1.393 . S
C610 H602 0.950 . S
C610 C608 1.391 . S
C610 C611 1.400 . S
C611 C610 1.400 . S
C611 C612 1.398 . S
C611 C617 1.491 1_455 S
C612 H603 0.950 . S
C612 C611 1.398 . S
C612 C613 1.391 . S
C613 H601 0.950 . S
C613 C609 1.393 . S
C613 C612 1.391 . S
C614 H604 0.950 . S
C614 C615 1.386 . S
C614 C616 1.391 . S
C615 C614 1.386 . S
C615 C619 1.393 . S
C616 H605 0.950 . S
C616 C614 1.391 . S
C616 C617 1.400 . S
C617 C611 1.491 1_655 S
C617 C616 1.400 . S
C617 C618 1.398 . S
C618 H606 0.950 . S
C618 C617 1.398 . S
C618 C619 1.391 . S
C619 H607 0.950 . S
C619 C615 1.393 . S
C619 C618 1.391 . S
H620 C628 0.950 . S
H621 C633 0.950 . S
H622 C630 0.950 . S
H623 C632 0.950 . S
H624 C634 0.950 . S
H625 C636 0.950 . S
H626 C638 0.950 . S
H627 C639 0.950 . S
C628 H620 0.950 . S
C628 C629 1.386 . S
C628 C630 1.391 . S
C629 C628 1.386 . S
C629 C633 1.393 . S
C630 H622 0.950 . S
C630 C628 1.391 . S
C630 C631 1.400 . S
C631 C630 1.400 . S
C631 C632 1.398 . S
C631 C637 1.491 1_565 S
C632 H623 0.950 . S
C632 C631 1.398 . S
C632 C633 1.391 . S
C633 H621 0.950 . S
C633 C629 1.393 . S
C633 C632 1.391 . S
C634 H624 0.950 . S
C634 C635 1.386 . S
C634 C636 1.391 . S
C635 C634 1.386 . S
C635 C639 1.393 . S
C636 H625 0.950 . S
C636 C634 1.391 . S
C636 C637 1.400 . S
C637 C631 1.491 1_545 S
C637 C636 1.400 . S
C637 C638 1.398 . S
C638 H626 0.950 . S
C638 C637 1.398 . S
C638 C639 1.391 . S
C639 H627 0.950 . S
C639 C635 1.393 . S
C639 C638 1.391 . S
H640 C648 0.950 . S
H641 C653 0.950 . S
H642 C650 0.950 . S
H643 C652 0.950 . S
H644 C654 0.950 . S
H645 C656 0.950 . S
H646 C658 0.950 . S
H647 C659 0.950 . S
C648 H640 0.950 . S
C648 C649 1.386 . S
C648 C650 1.391 . S
C649 C648 1.386 . S
C649 C653 1.393 . S
C650 H642 0.950 . S
C650 C648 1.391 . S
C650 C651 1.400 . S
C651 C650 1.400 . S
C651 C652 1.398 . S
C651 C657 1.491 . S
C652 H643 0.950 . S
C652 C651 1.398 . S
C652 C653 1.391 . S
C653 H641 0.950 . S
C653 C649 1.393 . S
C653 C652 1.391 . S
C654 H644 0.950 . S
C654 C655 1.386 . S
C654 C656 1.391 . S
C655 C654 1.386 . S
C655 C659 1.393 . S
C656 H645 0.950 . S
C656 C654 1.391 . S
C656 C657 1.400 . S
C657 C651 1.491 . S
C657 C656 1.400 . S
C657 C658 1.398 . S
C658 H646 0.950 . S
C658 C657 1.398 . S
C658 C659 1.391 . S
C659 H647 0.950 . S
C659 C655 1.393 . S
C659 C658 1.391 . S
H660 C668 0.950 . S
H661 C673 0.950 . S
H662 C670 0.950 . S
H663 C672 0.950 . S
H664 C674 0.950 . S
H665 C676 0.950 . S
H666 C678 0.950 . S
H667 C679 0.950 . S
C668 H660 0.950 . S
C668 C669 1.386 . S
C668 C670 1.391 . S
C669 C668 1.386 . S
C669 C673 1.393 . S
C670 H662 0.950 . S
C670 C668 1.391 . S
C670 C671 1.400 . S
C671 C670 1.400 . S
C671 C672 1.398 . S
C671 C677 1.491 1_455 S
C672 H663 0.950 . S
C672 C671 1.398 . S
C672 C673 1.391 . S
C673 H661 0.950 . S
C673 C669 1.393 . S
C673 C672 1.391 . S
C674 H664 0.950 . S
C674 C675 1.386 . S
C674 C676 1.391 . S
C675 C674 1.386 . S
C675 C679 1.393 . S
C676 H665 0.950 . S
C676 C674 1.391 . S
C676 C677 1.400 . S
C677 C671 1.491 1_655 S
C677 C676 1.400 . S
C677 C678 1.398 . S
C678 H666 0.950 . S
C678 C677 1.398 . S
C678 C679 1.391 . S
C679 H667 0.950 . S
C679 C675 1.393 . S
C679 C678 1.391 . S
H680 C688 0.950 . S
H681 C693 0.950 . S
H682 C690 0.950 . S
H683 C692 0.950 . S
H684 C694 0.950 . S
H685 C696 0.950 . S
H686 C698 0.950 . S
H687 C699 0.950 . S
C688 H680 0.950 . S
C688 C689 1.386 . S
C688 C690 1.391 . S
C689 C688 1.386 . S
C689 C693 1.393 . S
C690 H682 0.950 . S
C690 C688 1.391 . S
C690 C691 1.400 . S
C691 C690 1.400 . S
C691 C692 1.398 . S
C691 C697 1.491 1_545 S
C692 H683 0.950 . S
C692 C691 1.398 . S
C692 C693 1.391 . S
C693 H681 0.950 . S
C693 C689 1.393 . S
C693 C692 1.391 . S
C694 H684 0.950 . S
C694 C695 1.386 . S
C694 C696 1.391 . S
C695 C694 1.386 . S
C695 C699 1.393 . S
C696 H685 0.950 . S
C696 C694 1.391 . S
C696 C697 1.400 . S
C697 C691 1.491 1_565 S
C697 C696 1.400 . S
C697 C698 1.398 . S
C698 H686 0.950 . S
C698 C697 1.398 . S
C698 C699 1.391 . S
C699 H687 0.950 . S
C699 C695 1.393 . S
C699 C698 1.391 . S
H700 C708 0.950 . S
H701 C713 0.950 . S
H702 C710 0.950 . S
H703 C712 0.950 . S
H704 C714 0.950 . S
H705 C716 0.950 . S
H706 C718 0.950 . S
H707 C719 0.950 . S
C708 H700 0.950 . S
C708 C709 1.386 . S
C708 C710 1.391 . S
C709 C708 1.386 . S
C709 C713 1.393 . S
C710 H702 0.950 . S
C710 C708 1.391 . S
C710 C711 1.400 . S
C711 C710 1.400 . S
C711 C712 1.398 . S
C711 C717 1.491 . S
C712 H703 0.950 . S
C712 C711 1.398 . S
C712 C713 1.391 . S
C713 H701 0.950 . S
C713 C709 1.393 . S
C713 C712 1.391 . S
C714 H704 0.950 . S
C714 C715 1.386 . S
C714 C716 1.391 . S
C715 C714 1.386 . S
C715 C719 1.393 . S
C716 H705 0.950 . S
C716 C714 1.391 . S
C716 C717 1.400 . S
C717 C711 1.491 . S
C717 C716 1.400 . S
C717 C718 1.398 . S
C718 H706 0.950 . S
C718 C717 1.398 . S
C718 C719 1.391 . S
C719 H707 0.950 . S
C719 C715 1.393 . S
C719 C718 1.391 . S
H720 C728 0.950 . S
H721 C733 0.950 . S
H722 C730 0.950 . S
H723 C732 0.950 . S
H724 C734 0.950 . S
H725 C736 0.950 . S
H726 C738 0.950 . S
H727 C739 0.950 . S
C728 H720 0.950 . S
C728 C729 1.386 . S
C728 C730 1.391 . S
C729 C728 1.386 . S
C729 C733 1.393 . S
C730 H722 0.950 . S
C730 C728 1.391 . S
C730 C731 1.400 . S
C731 C730 1.400 . S
C731 C732 1.398 . S
C731 C737 1.491 . S
C732 H723 0.950 . S
C732 C731 1.398 . S
C732 C733 1.391 . S
C733 H721 0.950 . S
C733 C729 1.393 . S
C733 C732 1.391 . S
C734 H724 0.950 . S
C734 C735 1.386 . S
C734 C736 1.391 . S
C735 C734 1.386 . S
C735 C739 1.393 . S
C736 H725 0.950 . S
C736 C734 1.391 . S
C736 C737 1.400 . S
C737 C731 1.491 . S
C737 C736 1.400 . S
C737 C738 1.398 . S
C738 H726 0.950 . S
C738 C737 1.398 . S
C738 C739 1.391 . S
C739 H727 0.950 . S
C739 C735 1.393 . S
C739 C738 1.391 . S
H740 C748 0.950 . S
H741 C753 0.950 . S
H742 C750 0.950 . S
H743 C752 0.950 . S
H744 C754 0.950 . S
H745 C756 0.950 . S
H746 C758 0.950 . S
H747 C759 0.950 . S
C748 H740 0.950 . S
C748 C749 1.386 . S
C748 C750 1.391 . S
C749 C748 1.386 . S
C749 C753 1.393 . S
C750 H742 0.950 . S
C750 C748 1.391 . S
C750 C751 1.400 . S
C751 C750 1.400 . S
C751 C752 1.398 . S
C751 C757 1.491 . S
C752 H743 0.950 . S
C752 C751 1.398 . S
C752 C753 1.391 . S
C753 H741 0.950 . S
C753 C749 1.393 . S
C753 C752 1.391 . S
C754 H744 0.950 . S
C754 C755 1.386 . S
C754 C756 1.391 . S
C755 C754 1.386 . S
C755 C759 1.393 . S
C756 H745 0.950 . S
C756 C754 1.391 . S
C756 C757 1.400 . S
C757 C751 1.491 . S
C757 C756 1.400 . S
C757 C758 1.398 . S
C758 H746 0.950 . S
C758 C757 1.398 . S
C758 C759 1.391 . S
C759 H747 0.950 . S
C759 C755 1.393 . S
C759 C758 1.391 . S
H760 C768 0.950 . S
H761 C773 0.950 . S
H762 C770 0.950 . S
H763 C772 0.950 . S
H764 C774 0.950 . S
H765 C776 0.950 . S
H766 C778 0.950 . S
H767 C779 0.950 . S
C768 H760 0.950 . S
C768 C769 1.386 . S
C768 C770 1.391 . S
C769 C768 1.386 . S
C769 C773 1.393 . S
C770 H762 0.950 . S
C770 C768 1.391 . S
C770 C771 1.400 . S
C771 C770 1.400 . S
C771 C772 1.398 . S
C771 C777 1.491 . S
C772 H763 0.950 . S
C772 C771 1.398 . S
C772 C773 1.391 . S
C773 H761 0.950 . S
C773 C769 1.393 . S
C773 C772 1.391 . S
C774 H764 0.950 . S
C774 C775 1.386 . S
C774 C776 1.391 . S
C775 C774 1.386 . S
C775 C779 1.393 . S
C776 H765 0.950 . S
C776 C774 1.391 . S
C776 C777 1.400 . S
C777 C771 1.491 . S
C777 C776 1.400 . S
C777 C778 1.398 . S
C778 H766 0.950 . S
C778 C777 1.398 . S
C778 C779 1.391 . S
C779 H767 0.950 . S
C779 C775 1.393 . S
C779 C778 1.391 . S
H780 C788 0.950 . S
H781 C793 0.950 . S
H782 C790 0.950 . S
H783 C792 0.950 . S
H784 C794 0.950 . S
H785 C796 0.950 . S
H786 C798 0.950 . S
H787 C799 0.950 . S
C788 H780 0.950 . S
C788 C789 1.386 . S
C788 C790 1.391 . S
C789 C788 1.386 . S
C789 C793 1.393 . S
C790 H782 0.950 . S
C790 C788 1.391 . S
C790 C791 1.400 . S
C791 C790 1.400 . S
C791 C792 1.398 . S
C791 C797 1.491 . S
C792 H783 0.950 . S
C792 C791 1.398 . S
C792 C793 1.391 . S
C793 H781 0.950 . S
C793 C789 1.393 . S
C793 C792 1.391 . S
C794 H784 0.950 . S
C794 C795 1.386 . S
C794 C796 1.391 . S
C795 C794 1.386 . S
C795 C799 1.393 . S
C796 H785 0.950 . S
C796 C794 1.391 . S
C796 C797 1.400 . S
C797 C791 1.491 . S
C797 C796 1.400 . S
C797 C798 1.398 . S
C798 H786 0.950 . S
C798 C797 1.398 . S
C798 C799 1.391 . S
C799 H787 0.950 . S
C799 C795 1.393 . S
C799 C798 1.391 . S
H800 C808 0.950 . S
H801 C813 0.950 . S
H802 C810 0.950 . S
H803 C812 0.950 . S
H804 C814 0.950 . S
H805 C816 0.950 . S
H806 C818 0.950 . S
H807 C819 0.950 . S
C808 H800 0.950 . S
C808 C809 1.386 . S
C808 C810 1.391 . S
C809 C808 1.386 . S
C809 C813 1.393 . S
C810 H802 0.950 . S
C810 C808 1.391 . S
C810 C811 1.400 . S
C811 C810 1.400 . S
C811 C812 1.398 . S
C811 C817 1.491 . S
C812 H803 0.950 . S
C812 C811 1.398 . S
C812 C813 1.391 . S
C813 H801 0.950 . S
C813 C809 1.393 . S
C813 C812 1.391 . S
C814 H804 0.950 . S
C814 C815 1.386 . S
C814 C816 1.391 . S
C815 C814 1.386 . S
C815 C819 1.393 . S
C816 H805 0.950 . S
C816 C814 1.391 . S
C816 C817 1.400 . S
C817 C811 1.491 . S
C817 C816 1.400 . S
C817 C818 1.398 . S
C818 H806 0.950 . S
C818 C817 1.398 . S
C818 C819 1.391 . S
C819 H807 0.950 . S
C819 C815 1.393 . S
C819 C818 1.391 . S
H820 C828 0.950 . S
H821 C833 0.950 . S
H822 C830 0.950 . S
H823 C832 0.950 . S
H824 C834 0.950 . S
H825 C836 0.950 . S
H826 C838 0.950 . S
H827 C839 0.950 . S
C828 H820 0.950 . S
C828 C829 1.386 . S
C828 C830 1.391 . S
C829 C828 1.386 . S
C829 C833 1.393 . S
C830 H822 0.950 . S
C830 C828 1.391 . S
C830 C831 1.400 . S
C831 C830 1.400 . S
C831 C832 1.398 . S
C831 C837 1.491 . S
C832 H823 0.950 . S
C832 C831 1.398 . S
C832 C833 1.391 . S
C833 H821 0.950 . S
C833 C829 1.393 . S
C833 C832 1.391 . S
C834 H824 0.950 . S
C834 C835 1.386 . S
C834 C836 1.391 . S
C835 C834 1.386 . S
C835 C839 1.393 . S
C836 H825 0.950 . S
C836 C834 1.391 . S
C836 C837 1.400 . S
C837 C831 1.491 . S
C837 C836 1.400 . S
C837 C838 1.398 . S
C838 H826 0.950 . S
C838 C837 1.398 . S
C838 C839 1.391 . S
C839 H827 0.950 . S
C839 C835 1.393 . S
C839 C838 1.391 . S
H840 C848 0.950 . S
H841 C853 0.950 . S
H842 C850 0.950 . S
H843 C852 0.950 . S
H844 C854 0.950 . S
H845 C856 0.950 . S
H846 C858 0.950 . S
H847 C859 0.950 . S
C848 H840 0.950 . S
C848 C849 1.386 . S
C848 C850 1.391 . S
C849 C848 1.386 . S
C849 C853 1.393 . S
C850 H842 0.950 . S
C850 C848 1.391 . S
C850 C851 1.400 . S
C851 C850 1.400 . S
C851 C852 1.398 . S
C851 C857 1.491 . S
C852 H843 0.950 . S
C852 C851 1.398 . S
C852 C853 1.391 . S
C853 H841 0.950 . S
C853 C849 1.393 . S
C853 C852 1.391 . S
C854 H844 0.950 . S
C854 C855 1.386 . S
C854 C856 1.391 . S
C855 C854 1.386 . S
C855 C859 1.393 . S
C856 H845 0.950 . S
C856 C854 1.391 . S
C856 C857 1.400 . S
C857 C851 1.491 . S
C857 C856 1.400 . S
C857 C858 1.398 . S
C858 H846 0.950 . S
C858 C857 1.398 . S
C858 C859 1.391 . S
C859 H847 0.950 . S
C859 C855 1.393 . S
C859 C858 1.391 . S
H860 C868 0.950 . S
H861 C873 0.950 . S
H862 C870 0.950 . S
H863 C872 0.950 . S
H864 C874 0.950 . S
H865 C876 0.950 . S
H866 C878 0.950 . S
H867 C879 0.950 . S
C868 H860 0.950 . S
C868 C869 1.386 . S
C868 C870 1.391 . S
C869 C868 1.386 . S
C869 C873 1.393 . S
C870 H862 0.950 . S
C870 C868 1.391 . S
C870 C871 1.400 . S
C871 C870 1.400 . S
C871 C872 1.398 . S
C871 C877 1.491 . S
C872 H863 0.950 . S
C872 C871 1.398 . S
C872 C873 1.391 . S
C873 H861 0.950 . S
C873 C869 1.393 . S
C873 C872 1.391 . S
C874 H864 0.950 . S
C874 C875 1.386 . S
C874 C876 1.391 . S
C875 C874 1.386 . S
C875 C879 1.393 . S
C876 H865 0.950 . S
C876 C874 1.391 . S
C876 C877 1.400 . S
C877 C871 1.491 . S
C877 C876 1.400 . S
C877 C878 1.398 . S
C878 H866 0.950 . S
C878 C877 1.398 . S
C878 C879 1.391 . S
C879 H867 0.950 . S
C879 C875 1.393 . S
C879 C878 1.391 . S
H880 C888 0.950 . S
H881 C893 0.950 . S
H882 C890 0.950 . S
H883 C892 0.950 . S
H884 C894 0.950 . S
H885 C896 0.950 . S
H886 C898 0.950 . S
H887 C899 0.950 . S
C888 H880 0.950 . S
C888 C889 1.386 . S
C888 C890 1.391 . S
C889 C888 1.386 . S
C889 C893 1.393 . S
C890 H882 0.950 . S
C890 C888 1.391 . S
C890 C891 1.400 . S
C891 C890 1.400 . S
C891 C892 1.398 . S
C891 C897 1.491 . S
C892 H883 0.950 . S
C892 C891 1.398 . S
C892 C893 1.391 . S
C893 H881 0.950 . S
C893 C889 1.393 . S
C893 C892 1.391 . S
C894 H884 0.950 . S
C894 C895 1.386 . S
C894 C896 1.391 . S
C895 C894 1.386 . S
C895 C899 1.393 . S
C896 H885 0.950 . S
C896 C894 1.391 . S
C896 C897 1.400 . S
C897 C891 1.491 . S
C897 C896 1.400 . S
C897 C898 1.398 . S
C898 H886 0.950 . S
C898 C897 1.398 . S
C898 C899 1.391 . S
C899 H887 0.950 . S
C899 C895 1.393 . S
C899 C898 1.391 . S
H900 C908 0.950 . S
H901 C913 0.950 . S
H902 C910 0.950 . S
H903 C912 0.950 . S
H904 C914 0.950 . S
H905 C916 0.950 . S
H906 C918 0.950 . S
H907 C919 0.950 . S
C908 H900 0.950 . S
C908 C909 1.386 . S
C908 C910 1.391 . S
C909 C908 1.386 . S
C909 C913 1.393 . S
C910 H902 0.950 . S
C910 C908 1.391 . S
C910 C911 1.400 . S
C911 C910 1.400 . S
C911 C912 1.398 . S
C911 C917 1.491 . S
C912 H903 0.950 . S
C912 C911 1.398 . S
C912 C913 1.391 . S
C913 H901 0.950 . S
C913 C909 1.393 . S
C913 C912 1.391 . S
C914 H904 0.950 . S
C914 C915 1.386 . S
C914 C916 1.391 . S
C915 C914 1.386 . S
C915 C919 1.393 . S
C916 H905 0.950 . S
C916 C914 1.391 . S
C916 C917 1.400 . S
C917 C911 1.491 . S
C917 C916 1.400 . S
C917 C918 1.398 . S
C918 H906 0.950 . S
C918 C917 1.398 . S
C918 C919 1.391 . S
C919 H907 0.950 . S
C919 C915 1.393 . S
C919 C918 1.391 . S
H920 C928 0.950 . S
H921 C933 0.950 . S
H922 C930 0.950 . S
H923 C932 0.950 . S
H924 C934 0.950 . S
H925 C936 0.950 . S
H926 C938 0.950 . S
H927 C939 0.950 . S
C928 H920 0.950 . S
C928 C929 1.386 . S
C928 C930 1.391 . S
C929 C928 1.386 . S
C929 C933 1.393 . S
C930 H922 0.950 . S
C930 C928 1.391 . S
C930 C931 1.400 . S
C931 C930 1.400 . S
C931 C932 1.398 . S
C931 C937 1.491 . S
C932 H923 0.950 . S
C932 C931 1.398 . S
C932 C933 1.391 . S
C933 H921 0.950 . S
C933 C929 1.393 . S
C933 C932 1.391 . S
C934 H924 0.950 . S
C934 C935 1.386 . S
C934 C936 1.391 . S
C935 C934 1.386 . S
C935 C939 1.393 . S
C936 H925 0.950 . S
C936 C934 1.391 . S
C936 C937 1.400 . S
C937 C931 1.491 . S
C937 C936 1.400 . S
C937 C938 1.398 . S
C938 H926 0.950 . S
C938 C937 1.398 . S
C938 C939 1.391 . S
C939 H927 0.950 . S
C939 C935 1.393 . S
C939 C938 1.391 . S
H940 C948 0.950 . S
H941 C953 0.950 . S
H942 C950 0.950 . S
H943 C952 0.950 . S
H944 C954 0.950 . S
H945 C956 0.950 . S
H946 C958 0.950 . S
H947 C959 0.950 . S
C948 H940 0.950 . S
C948 C949 1.386 . S
C948 C950 1.391 . S
C949 C948 1.386 . S
C949 C953 1.393 . S
C950 H942 0.950 . S
C950 C948 1.391 . S
C950 C951 1.400 . S
C951 C950 1.400 . S
C951 C952 1.398 . S
C951 C957 1.491 . S
C952 H943 0.950 . S
C952 C951 1.398 . S
C952 C953 1.391 . S
C953 H941 0.950 . S
C953 C949 1.393 . S
C953 C952 1.391 . S
C954 H944 0.950 . S
C954 C955 1.386 . S
C954 C956 1.391 . S
C955 C954 1.386 . S
C955 C959 1.393 . S
C956 H945 0.950 . S
C956 C954 1.391 . S
C956 C957 1.400 . S
C957 C951 1.491 . S
C957 C956 1.400 . S
C957 C958 1.398 . S
C958 H946 0.950 . S
C958 C957 1.398 . S
C958 C959 1.391 . S
C959 H947 0.950 . S
C959 C955 1.393 . S
C959 C958 1.391 . S
H960 C968 0.950 . S
H961 C973 0.950 . S
H962 C970 0.950 . S
H963 C972 0.950 . S
H964 C974 0.950 . S
H965 C976 0.950 . S
H966 C978 0.950 . S
H967 C979 0.950 . S
C968 H960 0.950 . S
C968 C969 1.386 . S
C968 C970 1.391 . S
C969 C968 1.386 . S
C969 C973 1.393 . S
C970 H962 0.950 . S
C970 C968 1.391 . S
C970 C971 1.400 . S
C971 C970 1.400 . S
C971 C972 1.398 . S
C971 C977 1.491 . S
C972 H963 0.950 . S
C972 C971 1.398 . S
C972 C973 1.391 . S
C973 H961 0.950 . S
C973 C969 1.393 . S
C973 C972 1.391 . S
C974 H964 0.950 . S
C974 C975 1.386 . S
C974 C976 1.391 . S
C975 C974 1.386 . S
C975 C979 1.393 . S
C976 H965 0.950 . S
C976 C974 1.391 . S
C976 C977 1.400 . S
C977 C971 1.491 . S
C977 C976 1.400 . S
C977 C978 1.398 . S
C978 H966 0.950 . S
C978 C977 1.398 . S
C978 C979 1.391 . S
C979 H967 0.950 . S
C979 C975 1.393 . S
C979 C978 1.391 . S
H980 C988 0.950 . S
H981 C993 0.950 . S
H982 C990 0.950 . S
H983 C992 0.950 . S
H984 C994 0.950 . S
H985 C996 0.950 . S
H986 C998 0.950 . S
H987 C999 0.950 . S
C988 H980 0.950 . S
C988 C989 1.386 . S
C988 C990 1.391 . S
C989 C988 1.386 . S
C989 C993 1.393 . S
C990 H982 0.950 . S
C990 C988 1.391 . S
C990 C991 1.400 . S
C991 C990 1.400 . S
C991 C992 1.398 . S
C991 C997 1.491 . S
C992 H983 0.950 . S
C992 C991 1.398 . S
C992 C993 1.391 . S
C993 H981 0.950 . S
C993 C989 1.393 . S
C993 C992 1.391 . S
C994 H984 0.950 . S
C994 C995 1.386 . S
C994 C996 1.391 . S
C995 C994 1.386 . S
C995 C999 1.393 . S
C996 H985 0.950 . S
C996 C994 1.391 . S
C996 C997 1.400 . S
C997 C991 1.491 . S
C997 C996 1.400 . S
C997 C998 1.398 . S
C998 H986 0.950 . S
C998 C997 1.398 . S
C998 C999 1.391 . S
C999 H987 0.950 . S
C999 C995 1.393 . S
C999 C998 1.391 . S
H1000 C1008 0.950 . S
H1001 C1013 0.950 . S
H1002 C1010 0.950 . S
H1003 C1012 0.950 . S
H1004 C1014 0.950 . S
H1005 C1016 0.950 . S
H1006 C1018 0.950 . S
H1007 C1019 0.950 . S
C1008 H1000 0.950 . S
C1008 C1009 1.386 . S
C1008 C1010 1.391 . S
C1009 C1008 1.386 . S
C1009 C1013 1.393 . S
C1010 H1002 0.950 . S
C1010 C1008 1.391 . S
C1010 C1011 1.400 . S
C1011 C1010 1.400 . S
C1011 C1012 1.398 . S
C1011 C1017 1.491 . S
C1012 H1003 0.950 . S
C1012 C1011 1.398 . S
C1012 C1013 1.391 . S
C1013 H1001 0.950 . S
C1013 C1009 1.393 . S
C1013 C1012 1.391 . S
C1014 H1004 0.950 . S
C1014 C1015 1.386 . S
C1014 C1016 1.391 . S
C1015 C1014 1.386 . S
C1015 C1019 1.393 . S
C1016 H1005 0.950 . S
C1016 C1014 1.391 . S
C1016 C1017 1.400 . S
C1017 C1011 1.491 . S
C1017 C1016 1.400 . S
C1017 C1018 1.398 . S
C1018 H1006 0.950 . S
C1018 C1017 1.398 . S
C1018 C1019 1.391 . S
C1019 H1007 0.950 . S
C1019 C1015 1.393 . S
C1019 C1018 1.391 . S
H1020 C1028 0.950 . S
H1021 C1033 0.950 . S
H1022 C1030 0.950 . S
H1023 C1032 0.950 . S
H1024 C1034 0.950 . S
H1025 C1036 0.950 . S
H1026 C1038 0.950 . S
H1027 C1039 0.950 . S
C1028 H1020 0.950 . S
C1028 C1029 1.386 . S
C1028 C1030 1.391 . S
C1029 C1028 1.386 . S
C1029 C1033 1.393 . S
C1030 H1022 0.950 . S
C1030 C1028 1.391 . S
C1030 C1031 1.400 . S
C1031 C1030 1.400 . S
C1031 C1032 1.398 . S
C1031 C1037 1.491 . S
C1032 H1023 0.950 . S
C1032 C1031 1.398 . S
C1032 C1033 1.391 . S
C1033 H1021 0.950 . S
C1033 C1029 1.393 . S
C1033 C1032 1.391 . S
C1034 H1024 0.950 . S
C1034 C1035 1.386 . S
C1034 C1036 1.391 . S
C1035 C1034 1.386 . S
C1035 C1039 1.393 . S
C1036 H1025 0.950 . S
C1036 C1034 1.391 . S
C1036 C1037 1.400 . S
C1037 C1031 1.491 . S
C1037 C1036 1.400 . S
C1037 C1038 1.398 . S
C1038 H1026 0.950 . S
C1038 C1037 1.398 . S
C1038 C1039 1.391 . S
C1039 H1027 0.950 . S
C1039 C1035 1.393 . S
C1039 C1038 1.391 . S
H1040 C1048 0.950 . S
H1041 C1053 0.950 . S
H1042 C1050 0.950 . S
H1043 C1052 0.950 . S
H1044 C1054 0.950 . S
H1045 C1056 0.950 . S
H1046 C1058 0.950 . S
H1047 C1059 0.950 . S
C1048 H1040 0.950 . S
C1048 C1049 1.386 . S
C1048 C1050 1.391 . S
C1049 C1048 1.386 . S
C1049 C1053 1.393 . S
C1050 H1042 0.950 . S
C1050 C1048 1.391 . S
C1050 C1051 1.400 . S
C1051 C1050 1.400 . S
C1051 C1052 1.398 . S
C1051 C1057 1.491 . S
C1052 H1043 0.950 . S
C1052 C1051 1.398 . S
C1052 C1053 1.391 . S
C1053 H1041 0.950 . S
C1053 C1049 1.393 . S
C1053 C1052 1.391 . S
C1054 H1044 0.950 . S
C1054 C1055 1.386 . S
C1054 C1056 1.391 . S
C1055 C1054 1.386 . S
C1055 C1059 1.393 . S
C1056 H1045 0.950 . S
C1056 C1054 1.391 . S
C1056 C1057 1.400 . S
C1057 C1051 1.491 . S
C1057 C1056 1.400 . S
C1057 C1058 1.398 . S
C1058 H1046 0.950 . S
C1058 C1057 1.398 . S
C1058 C1059 1.391 . S
C1059 H1047 0.950 . S
C1059 C1055 1.393 . S
C1059 C1058 1.391 . S
H1060 C1068 0.950 . S
H1061 C1073 0.950 . S
H1062 C1070 0.950 . S
H1063 C1072 0.950 . S
H1064 C1074 0.950 . S
H1065 C1076 0.950 . S
H1066 C1078 0.950 . S
H1067 C1079 0.950 . S
C1068 H1060 0.950 . S
C1068 C1069 1.386 . S
C1068 C1070 1.391 . S
C1069 C1068 1.386 . S
C1069 C1073 1.393 . S
C1070 H1062 0.950 . S
C1070 C1068 1.391 . S
C1070 C1071 1.400 . S
C1071 C1070 1.400 . S
C1071 C1072 1.398 . S
C1071 C1077 1.491 . S
C1072 H1063 0.950 . S
C1072 C1071 1.398 . S
C1072 C1073 1.391 . S
C1073 H1061 0.950 . S
C1073 C1069 1.393 . S
C1073 C1072 1.391 . S
C1074 H1064 0.950 . S
C1074 C1075 1.386 . S
C1074 C1076 1.391 . S
C1075 C1074 1.386 . S
C1075 C1079 1.393 . S
C1076 H1065 0.950 . S
C1076 C1074 1.391 . S
C1076 C1077 1.400 . S
C1077 C1071 1.491 . S
C1077 C1076 1.400 . S
C1077 C1078 1.398 . S
C1078 H1066 0.950 . S
C1078 C1077 1.398 . S
C1078 C1079 1.391 . S
C1079 H1067 0.950 . S
C1079 C1075 1.393 . S
C1079 C1078 1.391 . S
H1080 C1088 0.950 . S
H1081 C1093 0.950 . S
H1082 C1090 0.950 . S
H1083 C1092 0.950 1_554 S
H1084 C1094 0.950 . S
H1085 C1096 0.950 . S
H1086 C1098 0.950 1_556 S
H1087 C1099 0.950 . S
C1088 H1080 0.950 . S
C1088 C1089 1.386 . S
C1088 C1090 1.391 . S
C1089 C1088 1.386 . S
C1089 C1093 1.393 . S
C1090 H1082 0.950 . S
C1090 C1088 1.391 . S
C1090 C1091 1.400 . S
C1091 C1090 1.400 . S
C1091 C1092 1.398 . S
C1091 C1097 1.491 1_556 S
C1092 H1083 0.950 1_556 S
C1092 C1091 1.398 . S
C1092 C1093 1.391 . S
C1093 H1081 0.950 . S
C1093 C1089 1.393 . S
C1093 C1092 1.391 . S
C1094 H1084 0.950 . S
C1094 C1095 1.386 . S
C1094 C1096 1.391 . S
C1095 C1094 1.386 . S
C1095 C1099 1.393 . S
C1096 H1085 0.950 . S
C1096 C1094 1.391 . S
C1096 C1097 1.400 . S
C1097 C1091 1.491 1_554 S
C1097 C1096 1.400 . S
C1097 C1098 1.398 . S
C1098 H1086 0.950 1_554 S
C1098 C1097 1.398 . S
C1098 C1099 1.391 . S
C1099 H1087 0.950 . S
C1099 C1095 1.393 . S
C1099 C1098 1.391 . S
H1100 C1108 0.950 . S
H1101 C1113 0.950 . S
H1102 C1110 0.950 . S
H1103 C1112 0.950 . S
H1104 C1114 0.950 . S
H1105 C1116 0.950 . S
H1106 C1118 0.950 . S
H1107 C1119 0.950 . S
C1108 H1100 0.950 . S
C1108 C1109 1.386 . S
C1108 C1110 1.391 . S
C1109 C1108 1.386 . S
C1109 C1113 1.393 . S
C1110 H1102 0.950 . S
C1110 C1108 1.391 . S
C1110 C1111 1.400 . S
C1111 C1110 1.400 . S
C1111 C1112 1.398 . S
C1111 C1117 1.491 1_455 S
C1112 H1103 0.950 . S
C1112 C1111 1.398 . S
C1112 C1113 1.391 . S
C1113 H1101 0.950 . S
C1113 C1109 1.393 . S
C1113 C1112 1.391 . S
C1114 H1104 0.950 . S
C1114 C1115 1.386 . S
C1114 C1116 1.391 . S
C1115 C1114 1.386 . S
C1115 C1119 1.393 . S
C1116 H1105 0.950 . S
C1116 C1114 1.391 . S
C1116 C1117 1.400 . S
C1117 C1111 1.491 1_655 S
C1117 C1116 1.400 . S
C1117 C1118 1.398 . S
C1118 H1106 0.950 . S
C1118 C1117 1.398 . S
C1118 C1119 1.391 . S
C1119 H1107 0.950 . S
C1119 C1115 1.393 . S
C1119 C1118 1.391 . S
H1120 C1128 0.950 . S
H1121 C1133 0.950 . S
H1122 C1130 0.950 . S
H1123 C1132 0.950 1_556 S
H1124 C1134 0.950 . S
H1125 C1136 0.950 . S
H1126 C1138 0.950 1_554 S
H1127 C1139 0.950 . S
C1128 H1120 0.950 . S
C1128 C1129 1.386 . S
C1128 C1130 1.391 . S
C1129 C1128 1.386 . S
C1129 C1133 1.393 . S
C1130 H1122 0.950 . S
C1130 C1128 1.391 . S
C1130 C1131 1.400 . S
C1131 C1130 1.400 . S
C1131 C1132 1.398 . S
C1131 C1137 1.491 1_564 S
C1132 H1123 0.950 1_554 S
C1132 C1131 1.398 . S
C1132 C1133 1.391 . S
C1133 H1121 0.950 . S
C1133 C1129 1.393 . S
C1133 C1132 1.391 . S
C1134 H1124 0.950 . S
C1134 C1135 1.386 . S
C1134 C1136 1.391 . S
C1135 C1134 1.386 . S
C1135 C1139 1.393 . S
C1136 H1125 0.950 . S
C1136 C1134 1.391 . S
C1136 C1137 1.400 . S
C1137 C1131 1.491 1_546 S
C1137 C1136 1.400 . S
C1137 C1138 1.398 . S
C1138 H1126 0.950 1_556 S
C1138 C1137 1.398 . S
C1138 C1139 1.391 . S
C1139 H1127 0.950 . S
C1139 C1135 1.393 . S
C1139 C1138 1.391 . S
H1140 C1148 0.950 . S
H1141 C1153 0.950 . S
H1142 C1150 0.950 . S
H1143 C1152 0.950 . S
H1144 C1154 0.950 . S
H1145 C1156 0.950 . S
H1146 C1158 0.950 . S
H1147 C1159 0.950 . S
C1148 H1140 0.950 . S
C1148 C1149 1.386 . S
C1148 C1150 1.391 . S
C1149 C1148 1.386 . S
C1149 C1153 1.393 . S
C1150 H1142 0.950 . S
C1150 C1148 1.391 . S
C1150 C1151 1.400 . S
C1151 C1150 1.400 . S
C1151 C1152 1.398 . S
C1151 C1157 1.491 . S
C1152 H1143 0.950 . S
C1152 C1151 1.398 . S
C1152 C1153 1.391 . S
C1153 H1141 0.950 . S
C1153 C1149 1.393 . S
C1153 C1152 1.391 . S
C1154 H1144 0.950 . S
C1154 C1155 1.386 . S
C1154 C1156 1.391 . S
C1155 C1154 1.386 . S
C1155 C1159 1.393 . S
C1156 H1145 0.950 . S
C1156 C1154 1.391 . S
C1156 C1157 1.400 . S
C1157 C1151 1.491 . S
C1157 C1156 1.400 . S
C1157 C1158 1.398 . S
C1158 H1146 0.950 . S
C1158 C1157 1.398 . S
C1158 C1159 1.391 . S
C1159 H1147 0.950 . S
C1159 C1155 1.393 . S
C1159 C1158 1.391 . S
H1160 C1168 0.950 . S
H1161 C1173 0.950 . S
H1162 C1170 0.950 . S
H1163 C1172 0.950 1_455 S
H1164 C1174 0.950 . S
H1165 C1176 0.950 . S
H1166 C1178 0.950 1_655 S
H1167 C1179 0.950 . S
C1168 H1160 0.950 . S
C1168 C1169 1.386 . S
C1168 C1170 1.391 1_556 S
C1169 C1168 1.386 . S
C1169 C1173 1.393 . S
C1170 H1162 0.950 . S
C1170 C1168 1.391 1_554 S
C1170 C1171 1.400 1_554 S
C1171 C1170 1.400 1_556 S
C1171 C1172 1.398 . S
C1171 C1177 1.491 1_656 S
C1172 H1163 0.950 1_655 S
C1172 C1171 1.398 . S
C1172 C1173 1.391 . S
C1173 H1161 0.950 . S
C1173 C1169 1.393 . S
C1173 C1172 1.391 . S
C1174 H1164 0.950 . S
C1174 C1175 1.386 . S
C1174 C1176 1.391 1_554 S
C1175 C1174 1.386 . S
C1175 C1179 1.393 . S
C1176 H1165 0.950 . S
C1176 C1174 1.391 1_556 S
C1176 C1177 1.400 1_556 S
C1177 C1171 1.491 1_454 S
C1177 C1176 1.400 1_554 S
C1177 C1178 1.398 . S
C1178 H1166 0.950 1_455 S
C1178 C1177 1.398 . S
C1178 C1179 1.391 . S
C1179 H1167 0.950 . S
C1179 C1175 1.393 . S
C1179 C1178 1.391 . S
H1180 C1188 0.950 . S
H1181 C1193 0.950 . S
H1182 C1190 0.950 . S
H1183 C1192 0.984 . S
H1184 C1194 0.950 . S
H1185 C1196 0.950 . S
H1186 C1198 0.984 . S
H1187 C1199 0.950 . S
C1188 H1180 0.950 . S
C1188 C1189 1.386 . S
C1188 C1190 1.391 . S
C1189 C1188 1.386 . S
C1189 C1193 1.393 . S
C1190 H1182 0.950 . S
C1190 C1188 1.391 . S
C1190 C1191 1.400 . S
C1191 C1190 1.400 . S
C1191 C1192 1.398 . S
C1191 C1197 1.491 1_565 S
C1192 H1183 0.984 . S
C1192 C1191 1.398 . S
C1192 C1193 1.391 . S
C1193 H1181 0.950 . S
C1193 C1189 1.393 . S
C1193 C1192 1.391 . S
C1194 H1184 0.950 . S
C1194 C1195 1.386 . S
C1194 C1196 1.391 . S
C1195 C1194 1.386 . S
C1195 C1199 1.393 . S
C1196 H1185 0.950 . S
C1196 C1194 1.391 . S
C1196 C1197 1.400 . S
C1197 C1191 1.491 1_545 S
C1197 C1196 1.400 . S
C1197 C1198 1.398 . S
C1198 H1186 0.984 . S
C1198 C1197 1.398 . S
C1198 C1199 1.391 . S
C1199 H1187 0.950 . S
C1199 C1195 1.393 . S
C1199 C1198 1.391 . S
C489 C171 1.298 . S
C495 C16 1.332 . S
C509 C211 1.294 . S
C515 C56 1.327 . S
C529 C96 1.326 . S
C535 C11 1.304 . S
C549 C136 1.333 . S
C555 C51 1.317 . S
C569 C176 1.340 . S
C575 C91 1.313 . S
C589 C131 1.319 . S
C595 C216 1.341 . S
C609 C331 1.316 . S
C615 C256 1.333 . S
C629 C296 1.340 . S
C635 C371 1.315 . S
C649 C411 1.320 . S
C655 C336 1.341 . S
C669 C376 1.340 . S
C675 C451 1.313 . S
C689 C416 1.331 . S
C695 C251 1.297 . S
C709 C291 1.306 . S
C715 C456 1.337 . S
C729 C162 1.779 . S
C735 C7 1.758 . S
C749 C47 1.759 . S
C755 C202 1.775 . S
C769 C87 1.742 . S
C775 C2 1.765 . S
C789 C127 1.746 . S
C795 C42 1.766 . S
C809 C82 1.778 . S
C815 C167 1.760 . S
C829 C122 1.778 . S
C835 C207 1.760 . S
C849 C322 1.767 . S
C855 C247 1.741 . S
C869 C287 1.743 . S
C875 C362 1.765 . S
C889 C327 1.741 . S
C895 C402 1.767 . S
C909 C442 1.767 . S
C915 C367 1.741 . S
C929 C407 1.753 . S
C935 C242 1.778 . S
C949 C282 1.765 . S
C955 C447 1.744 . S
C969 C419 1.646 . S
C975 C19 1.658 . S
C989 C59 1.656 . S
C995 C459 1.655 . S
C1009 C99 1.651 . S
C1015 C259 1.634 . S
C1029 C139 1.635 . S
C1035 C299 1.628 . S
C1049 C179 1.631 . S
C1055 C339 1.630 . S
C1069 C379 1.632 . S
C1075 C219 1.648 . S
C1089 C370 2.217 . S
C1095 C10 2.216 . S
C1109 C410 2.221 . S
C1115 C50 2.222 . S
C1129 C90 2.222 . S
C1135 C450 2.222 . S
C1149 C130 2.220 . S
C1155 C250 2.220 . S
C1169 C290 2.217 . S
C1175 C170 2.218 . S
C1189 C330 2.216 . S
C1195 C210 2.217 . S
