# Generated by pormake.
# Topology umu, (4)-cn, num edge types: 1
# Building blocks:
#     Node 0, Type 0, BuildingBlock: QUQFOY_clean_sbu_3, # of connection points: 4
#     Node 1, Type 0, BuildingBlock: QUQFOY_clean_sbu_3, # of connection points: 4
#     Node 2, Type 0, BuildingBlock: QUQFOY_clean_sbu_3, # of connection points: 4
#     Node 3, Type 0, BuildingBlock: QUQFOY_clean_sbu_3, # of connection points: 4
#     Node 4, Type 0, BuildingBlock: QUQFOY_clean_sbu_3, # of connection points: 4
#     Node 5, Type 0, BuildingBlock: QUQFOY_clean_sbu_3, # of connection points: 4
#     Node 6, Type 0, BuildingBlock: QUQFOY_clean_sbu_3, # of connection points: 4
#     Node 7, Type 0, BuildingBlock: QUQFOY_clean_sbu_3, # of connection points: 4
#     Node 8, Type 0, BuildingBlock: QUQFOY_clean_sbu_3, # of connection points: 4
#     Node 9, Type 0, BuildingBlock: QUQFOY_clean_sbu_3, # of connection points: 4
#     Node 10, Type 0, BuildingBlock: QUQFOY_clean_sbu_3, # of connection points: 4
#     Node 11, Type 0, BuildingBlock: QUQFOY_clean_sbu_3, # of connection points: 4
#     Node 12, Type 0, BuildingBlock: QUQFOY_clean_sbu_3, # of connection points: 4
#     Node 13, Type 0, BuildingBlock: QUQFOY_clean_sbu_3, # of connection points: 4
#     Node 14, Type 0, BuildingBlock: QUQFOY_clean_sbu_3, # of connection points: 4
#     Node 15, Type 0, BuildingBlock: QUQFOY_clean_sbu_3, # of connection points: 4
#     Node 16, Type 0, BuildingBlock: QUQFOY_clean_sbu_3, # of connection points: 4
#     Node 17, Type 0, BuildingBlock: QUQFOY_clean_sbu_3, # of connection points: 4
#     Node 18, Type 0, BuildingBlock: QUQFOY_clean_sbu_3, # of connection points: 4
#     Node 19, Type 0, BuildingBlock: QUQFOY_clean_sbu_3, # of connection points: 4
#     Node 20, Type 0, BuildingBlock: QUQFOY_clean_sbu_3, # of connection points: 4
#     Node 21, Type 0, BuildingBlock: QUQFOY_clean_sbu_3, # of connection points: 4
#     Node 22, Type 0, BuildingBlock: QUQFOY_clean_sbu_3, # of connection points: 4
#     Node 23, Type 0, BuildingBlock: QUQFOY_clean_sbu_3, # of connection points: 4
#     Node 24, Type 0, BuildingBlock: QUQFOY_clean_sbu_3, # of connection points: 4
#     Node 25, Type 0, BuildingBlock: QUQFOY_clean_sbu_3, # of connection points: 4
#     Node 26, Type 0, BuildingBlock: QUQFOY_clean_sbu_3, # of connection points: 4
#     Node 27, Type 0, BuildingBlock: QUQFOY_clean_sbu_3, # of connection points: 4
#     Node 28, Type 0, BuildingBlock: QUQFOY_clean_sbu_3, # of connection points: 4
#     Node 29, Type 0, BuildingBlock: QUQFOY_clean_sbu_3, # of connection points: 4
#     Node 30, Type 0, BuildingBlock: QUQFOY_clean_sbu_3, # of connection points: 4
#     Node 31, Type 0, BuildingBlock: QUQFOY_clean_sbu_3, # of connection points: 4
#     Edge 32, Type (0, 0), BuildingBlock: CIFDUS_clean_linker_0, # of connection points: 2
#     Edge 33, Type (0, 0), BuildingBlock: CIFDUS_clean_linker_0, # of connection points: 2
#     Edge 34, Type (0, 0), BuildingBlock: CIFDUS_clean_linker_0, # of connection points: 2
#     Edge 35, Type (0, 0), BuildingBlock: CIFDUS_clean_linker_0, # of connection points: 2
#     Edge 36, Type (0, 0), BuildingBlock: CIFDUS_clean_linker_0, # of connection points: 2
#     Edge 37, Type (0, 0), BuildingBlock: CIFDUS_clean_linker_0, # of connection points: 2
#     Edge 38, Type (0, 0), BuildingBlock: CIFDUS_clean_linker_0, # of connection points: 2
#     Edge 39, Type (0, 0), BuildingBlock: CIFDUS_clean_linker_0, # of connection points: 2
#     Edge 40, Type (0, 0), BuildingBlock: CIFDUS_clean_linker_0, # of connection points: 2
#     Edge 41, Type (0, 0), BuildingBlock: CIFDUS_clean_linker_0, # of connection points: 2
#     Edge 42, Type (0, 0), BuildingBlock: CIFDUS_clean_linker_0, # of connection points: 2
#     Edge 43, Type (0, 0), BuildingBlock: CIFDUS_clean_linker_0, # of connection points: 2
#     Edge 44, Type (0, 0), BuildingBlock: CIFDUS_clean_linker_0, # of connection points: 2
#     Edge 45, Type (0, 0), BuildingBlock: CIFDUS_clean_linker_0, # of connection points: 2
#     Edge 46, Type (0, 0), BuildingBlock: CIFDUS_clean_linker_0, # of connection points: 2
#     Edge 47, Type (0, 0), BuildingBlock: CIFDUS_clean_linker_0, # of connection points: 2
#     Edge 48, Type (0, 0), BuildingBlock: CIFDUS_clean_linker_0, # of connection points: 2
#     Edge 49, Type (0, 0), BuildingBlock: CIFDUS_clean_linker_0, # of connection points: 2
#     Edge 50, Type (0, 0), BuildingBlock: CIFDUS_clean_linker_0, # of connection points: 2
#     Edge 51, Type (0, 0), BuildingBlock: CIFDUS_clean_linker_0, # of connection points: 2
#     Edge 52, Type (0, 0), BuildingBlock: CIFDUS_clean_linker_0, # of connection points: 2
#     Edge 53, Type (0, 0), BuildingBlock: CIFDUS_clean_linker_0, # of connection points: 2
#     Edge 54, Type (0, 0), BuildingBlock: CIFDUS_clean_linker_0, # of connection points: 2
#     Edge 55, Type (0, 0), BuildingBlock: CIFDUS_clean_linker_0, # of connection points: 2
#     Edge 56, Type (0, 0), BuildingBlock: CIFDUS_clean_linker_0, # of connection points: 2
#     Edge 57, Type (0, 0), BuildingBlock: CIFDUS_clean_linker_0, # of connection points: 2
#     Edge 58, Type (0, 0), BuildingBlock: CIFDUS_clean_linker_0, # of connection points: 2
#     Edge 59, Type (0, 0), BuildingBlock: CIFDUS_clean_linker_0, # of connection points: 2
#     Edge 60, Type (0, 0), BuildingBlock: CIFDUS_clean_linker_0, # of connection points: 2
#     Edge 61, Type (0, 0), BuildingBlock: CIFDUS_clean_linker_0, # of connection points: 2
#     Edge 62, Type (0, 0), BuildingBlock: CIFDUS_clean_linker_0, # of connection points: 2
#     Edge 63, Type (0, 0), BuildingBlock: CIFDUS_clean_linker_0, # of connection points: 2
#     Edge 64, Type (0, 0), BuildingBlock: CIFDUS_clean_linker_0, # of connection points: 2
#     Edge 65, Type (0, 0), BuildingBlock: CIFDUS_clean_linker_0, # of connection points: 2
#     Edge 66, Type (0, 0), BuildingBlock: CIFDUS_clean_linker_0, # of connection points: 2
#     Edge 67, Type (0, 0), BuildingBlock: CIFDUS_clean_linker_0, # of connection points: 2
#     Edge 68, Type (0, 0), BuildingBlock: CIFDUS_clean_linker_0, # of connection points: 2
#     Edge 69, Type (0, 0), BuildingBlock: CIFDUS_clean_linker_0, # of connection points: 2
#     Edge 70, Type (0, 0), BuildingBlock: CIFDUS_clean_linker_0, # of connection points: 2
#     Edge 71, Type (0, 0), BuildingBlock: CIFDUS_clean_linker_0, # of connection points: 2
#     Edge 72, Type (0, 0), BuildingBlock: CIFDUS_clean_linker_0, # of connection points: 2
#     Edge 73, Type (0, 0), BuildingBlock: CIFDUS_clean_linker_0, # of connection points: 2
#     Edge 74, Type (0, 0), BuildingBlock: CIFDUS_clean_linker_0, # of connection points: 2
#     Edge 75, Type (0, 0), BuildingBlock: CIFDUS_clean_linker_0, # of connection points: 2
#     Edge 76, Type (0, 0), BuildingBlock: CIFDUS_clean_linker_0, # of connection points: 2
#     Edge 77, Type (0, 0), BuildingBlock: CIFDUS_clean_linker_0, # of connection points: 2
#     Edge 78, Type (0, 0), BuildingBlock: CIFDUS_clean_linker_0, # of connection points: 2
#     Edge 79, Type (0, 0), BuildingBlock: CIFDUS_clean_linker_0, # of connection points: 2
#     Edge 80, Type (0, 0), BuildingBlock: CIFDUS_clean_linker_0, # of connection points: 2
#     Edge 81, Type (0, 0), BuildingBlock: CIFDUS_clean_linker_0, # of connection points: 2
#     Edge 82, Type (0, 0), BuildingBlock: CIFDUS_clean_linker_0, # of connection points: 2
#     Edge 83, Type (0, 0), BuildingBlock: CIFDUS_clean_linker_0, # of connection points: 2
#     Edge 84, Type (0, 0), BuildingBlock: CIFDUS_clean_linker_0, # of connection points: 2
#     Edge 85, Type (0, 0), BuildingBlock: CIFDUS_clean_linker_0, # of connection points: 2
#     Edge 86, Type (0, 0), BuildingBlock: CIFDUS_clean_linker_0, # of connection points: 2
#     Edge 87, Type (0, 0), BuildingBlock: CIFDUS_clean_linker_0, # of connection points: 2
#     Edge 88, Type (0, 0), BuildingBlock: CIFDUS_clean_linker_0, # of connection points: 2
#     Edge 89, Type (0, 0), BuildingBlock: CIFDUS_clean_linker_0, # of connection points: 2
#     Edge 90, Type (0, 0), BuildingBlock: CIFDUS_clean_linker_0, # of connection points: 2
#     Edge 91, Type (0, 0), BuildingBlock: CIFDUS_clean_linker_0, # of connection points: 2
#     Edge 92, Type (0, 0), BuildingBlock: CIFDUS_clean_linker_0, # of connection points: 2
#     Edge 93, Type (0, 0), BuildingBlock: CIFDUS_clean_linker_0, # of connection points: 2
#     Edge 94, Type (0, 0), BuildingBlock: CIFDUS_clean_linker_0, # of connection points: 2
#     Edge 95, Type (0, 0), BuildingBlock: CIFDUS_clean_linker_0, # of connection points: 2
# Relax obj value: 0.121
# Max RMSD: 0.093
# Mean RMSD: 0.093
data_MOF--net-umu--node1-QUQFOY_clean_sbu_3--edge1-CIFDUS_clean_linker_0
_symmetry_space_group_name_H-M    P1
_symmetry_Int_Tables_number       1
_symmetry_cell_setting            triclinic
loop_
_symmetry_equiv_pos_as_xyz
'x, y, z'
_cell_length_a     75.109415
_cell_length_b     75.204191
_cell_length_c     23.598534
_cell_angle_alpha  90.03608
_cell_angle_beta   89.996663
_cell_angle_gamma 90.121484
loop_
_atom_site_label
_atom_site_type_symbol
_atom_site_fract_x
_atom_site_fract_y
_atom_site_fract_z
_atom_type_partial_charge
C0 C 0.2363 0.12925 0.14588 0.0
O1 O 0.24732 0.13173 0.10594 0.0
Cd2 Cd 0.24027 0.14406 0.0174 0.0
O3 O 0.21974 0.13269 0.13919 0.0
Cd4 Cd 0.20005 0.14346 0.05969 0.0
C5 C 0.21974 0.1831 0.06415 0.0
O6 O 0.21535 0.12781 -0.01478 0.0
O7 O 0.20164 0.15142 0.95941 0.0
O8 O 0.1773 0.12105 0.07971 0.0
C9 C 0.20989 0.13746 0.94516 0.0
O10 O 0.23236 0.17484 0.03941 0.0
C11 C 0.16442 0.13044 0.06199 0.0
O12 O 0.20592 0.1748 0.08111 0.0
O13 O 0.16784 0.14652 0.04988 0.0
C14 C 0.09689 0.97221 0.42811 0.0
O15 O 0.09086 0.98471 0.39752 0.0
Cd16 Cd 0.08133 0.98463 0.30354 0.0
O17 O 0.09826 0.95626 0.40914 0.0
Cd18 Cd 0.09233 0.94134 0.31466 0.0
C19 C 0.04844 0.95246 0.31833 0.0
O20 O 0.10502 0.96699 0.27294 0.0
O21 O 0.09579 0.94828 0.21157 0.0
O22 O 0.11698 0.92063 0.32792 0.0
C23 C 0.10374 0.96278 0.22171 0.0
O24 O 0.05343 0.96841 0.30961 0.0
C25 C 0.10983 0.90818 0.29926 0.0
O26 O 0.05973 0.93994 0.32315 0.0
O27 O 0.09382 0.9105 0.28383 0.0
C28 C 0.26409 0.83704 0.64555 0.0
O29 O 0.25108 0.83401 0.61253 0.0
Cd30 Cd 0.25182 0.82405 0.51741 0.0
O31 O 0.28017 0.83513 0.62869 0.0
Cd32 Cd 0.29545 0.82695 0.5378 0.0
C33 C 0.27729 0.78584 0.53621 0.0
O34 O 0.27426 0.84165 0.47787 0.0
O35 O 0.29272 0.82458 0.43449 0.0
O36 O 0.31464 0.85234 0.54354 0.0
C37 C 0.28024 0.83582 0.43147 0.0
O38 O 0.26302 0.79393 0.52269 0.0
C39 C 0.3286 0.84452 0.52646 0.0
O40 O 0.29145 0.79444 0.54862 0.0
O41 O 0.32803 0.82764 0.52356 0.0
C42 C 0.39226 0.00106 0.90065 0.0
O43 O 0.39581 0.98988 0.86207 0.0
Cd44 Cd 0.40686 -0.00353 0.77141 0.0
O45 O 0.39359 0.01779 0.8913 0.0
Cd46 Cd 0.40101 0.03693 0.80646 0.0
C47 C 0.44313 0.02313 0.80847 0.0
O48 O 0.38753 0.01831 0.73589 0.0
O49 O 0.40839 0.03522 0.70506 0.0
O50 O 0.37445 0.05463 0.80997 0.0
C51 C 0.39545 0.02499 0.69389 0.0
O52 O 0.43638 0.00895 0.78799 0.0
C53 C 0.38194 0.0693 0.79803 0.0
O54 O 0.43322 0.03606 0.82338 0.0
O55 O 0.39884 0.06963 0.7996 0.0
C56 C 0.22706 0.84235 0.95812 0.0
O57 O 0.24034 0.83996 -0.00952 0.0
Cd58 Cd 0.24039 0.8281 0.08281 0.0
O59 O 0.21117 0.83965 0.97579 0.0
Cd60 Cd 0.19689 0.83095 0.06832 0.0
C61 C 0.21485 0.79033 0.05361 0.0
O62 O 0.21854 0.84453 0.12985 0.0
O63 O 0.20114 0.82545 0.16956 0.0
O64 O 0.17734 0.85609 0.07402 0.0
C65 C 0.21315 0.83717 0.17479 0.0
O66 O 0.22934 0.79823 0.06616 0.0
C67 C 0.16357 0.84731 0.08795 0.0
O68 O 0.20026 0.7989 0.04959 0.0
O69 O 0.1645 0.83047 0.08447 0.0
C70 C 0.39566 0.97871 0.22746 0.0
O71 O 0.40064 0.99005 0.26401 0.0
Cd72 Cd 0.41149 0.98475 0.3559 0.0
O73 O 0.39578 0.96206 0.23875 0.0
Cd74 Cd 0.40279 0.94363 0.32542 0.0
C75 C 0.44557 0.95451 0.3267 0.0
O76 O 0.39122 0.96442 0.39379 0.0
O77 O 0.40997 0.94564 0.42663 0.0
O78 O 0.37571 0.92641 0.31629 0.0
C79 C 0.39912 0.95812 0.43645 0.0
O80 O 0.43967 0.96919 0.34608 0.0
C81 C 0.38235 0.91182 0.33308 0.0
O82 O 0.43499 0.94251 0.30855 0.0
O83 O 0.39913 0.91142 0.33946 0.0
C84 C 0.25531 0.12821 0.47127 0.0
O85 O 0.24274 0.13243 0.50446 0.0
Cd86 Cd 0.24689 0.15071 0.5833 0.0
O87 O 0.27149 0.13192 0.48374 0.0
Cd88 Cd 0.28831 0.14414 0.56829 0.0
C89 C 0.27496 0.18358 0.52564 0.0
O90 O 0.26736 0.135 0.63886 0.0
O91 O 0.28312 0.15772 0.66206 0.0
O92 O 0.30543 0.11706 0.56961 0.0
C93 C 0.27208 0.14583 0.67682 0.0
O94 O 0.26009 0.17775 0.54396 0.0
C95 C 0.31951 0.12377 0.59034 0.0
O96 O 0.2889 0.17396 0.52726 0.0
O97 O 0.31994 0.1406 0.59499 0.0
C98 C 0.09992 0.0111 0.73764 0.0
O99 O 0.09794 -0.00237 0.76946 0.0
Cd100 Cd 0.09013 0.9955 0.86497 0.0
O101 O 0.0976 0.02693 0.75642 0.0
Cd102 Cd 0.08982 0.03973 0.85227 0.0
C103 C 0.05003 0.018 0.85267 0.0
O104 O 0.10868 0.01833 0.89699 0.0
O105 O 0.09277 0.03334 0.95453 0.0
O106 O 0.10903 0.06588 0.8409 0.0
C107 C 0.10486 0.02187 0.94755 0.0
O108 O 0.05891 0.00401 0.86375 0.0
C109 C 0.09935 0.07582 0.87167 0.0
O110 O 0.05787 0.03278 0.84353 0.0
O111 O 0.08442 0.0696 0.88716 0.0
C112 C 0.75174 0.8425 -0.01691 0.0
O113 O 0.73998 0.83813 0.01906 0.0
Cd114 Cd 0.74555 0.82171 0.10133 0.0
O115 O 0.76825 0.83937 -0.00768 0.0
Cd116 Cd 0.78754 0.82758 0.07195 0.0
C117 C 0.77164 0.7873 0.04378 0.0
O118 O 0.76838 0.83786 0.14523 0.0
O119 O 0.78546 0.81642 0.17013 0.0
O120 O 0.80531 0.85424 0.06246 0.0
C121 C 0.7741 0.828 0.18438 0.0
O122 O 0.75749 0.7937 0.06554 0.0
C123 C 0.81982 0.84758 0.07987 0.0
O124 O 0.78558 0.79684 0.03777 0.0
O125 O 0.81996 0.83088 0.08799 0.0
C126 C 0.89145 0.00644 0.71389 0.0
O127 O 0.8961 0.99382 0.74625 0.0
Cd128 Cd 0.90749 -0.00405 0.83897 0.0
O129 O 0.89253 0.02261 0.73054 0.0
Cd130 Cd 0.90201 0.03695 0.82263 0.0
C131 C 0.94424 0.02313 0.81843 0.0
O132 O 0.88837 0.01587 0.88641 0.0
O133 O 0.91094 0.03001 0.9199 0.0
O134 O 0.8772 0.05637 0.84091 0.0
C135 C 0.89747 0.02028 0.92913 0.0
O136 O 0.93755 0.00822 0.83292 0.0
C137 C 0.88629 0.07043 0.84756 0.0
O138 O 0.93422 0.03627 0.80661 0.0
O139 O 0.90276 0.06961 0.83575 0.0
C140 C 0.72758 0.14458 0.48421 0.0
O141 O 0.7407 0.1465 0.51765 0.0
Cd142 Cd 0.74165 0.14596 0.61777 0.0
O143 O 0.71179 0.14213 0.50327 0.0
Cd144 Cd 0.69866 0.14019 0.6015 0.0
C145 C 0.71346 0.18133 0.63854 0.0
O146 O 0.72264 0.12185 0.63661 0.0
O147 O 0.70492 0.13155 0.70021 0.0
O148 O 0.67568 0.11825 0.57818 0.0
C149 C 0.71812 0.12186 0.688 0.0
O150 O 0.72866 0.17422 0.64583 0.0
C151 C 0.66387 0.1254 0.60942 0.0
O152 O 0.7005 0.17239 0.61832 0.0
O153 O 0.66762 0.14047 0.63047 0.0
C154 C 0.59558 0.97912 0.2436 0.0
O155 O 0.59288 0.9903 0.28301 0.0
Cd156 Cd 0.5882 0.98478 0.38028 0.0
O157 O 0.59587 0.96239 0.25367 0.0
Cd158 Cd 0.59209 0.94305 0.33972 0.0
C159 C 0.55068 0.95835 0.36529 0.0
O160 O 0.60951 0.9627 0.39754 0.0
O161 O 0.59581 0.94234 0.4435 0.0
O162 O 0.61482 0.92223 0.30944 0.0
C163 C 0.60673 0.95516 0.44438 0.0
O164 O 0.55842 0.97226 0.3839 0.0
C165 C 0.60732 0.90878 0.33176 0.0
O166 O 0.55952 0.94583 0.34221 0.0
O167 O 0.59146 0.91085 0.34907 0.0
C168 C 0.76365 0.14855 0.16627 0.0
O169 O 0.75054 0.15041 0.13279 0.0
Cd170 Cd 0.75016 0.1498 0.03252 0.0
O171 O 0.77949 0.14648 0.14724 0.0
Cd172 Cd 0.79306 0.14504 0.04975 0.0
C173 C 0.77789 0.1855 0.00887 0.0
O174 O 0.76959 0.1259 0.01543 0.0
O175 O 0.78735 0.13534 0.95143 0.0
O176 O 0.81586 0.12364 0.07681 0.0
C177 C 0.77431 0.12546 0.96426 0.0
O178 O 0.76278 0.17806 0.00242 0.0
C179 C 0.8279 0.13042 0.04563 0.0
O180 O 0.79096 0.17702 0.03009 0.0
O181 O 0.82435 0.14526 0.02274 0.0
C182 C 0.59848 -0.00122 0.91323 0.0
O183 O 0.59649 0.98661 0.87645 0.0
Cd184 Cd 0.58827 0.98936 0.78064 0.0
O185 O 0.59646 0.0152 0.90033 0.0
Cd186 Cd 0.58958 0.03204 0.81063 0.0
C187 C 0.54895 0.01268 0.80107 0.0
O188 O 0.60709 0.01265 0.75235 0.0
O189 O 0.59018 0.03052 0.70652 0.0
O190 O 0.61198 0.05496 0.82363 0.0
C191 C 0.60247 0.01905 0.70528 0.0
O192 O 0.55735 -0.00118 0.78537 0.0
C193 C 0.60223 0.06756 0.80589 0.0
O194 O 0.55732 0.02672 0.81566 0.0
O195 O 0.58586 0.06407 0.7985 0.0
C196 C 0.7319 0.84713 0.65861 0.0
O197 O 0.7435 0.84217 0.62296 0.0
Cd198 Cd 0.73795 0.82777 0.53676 0.0
O199 O 0.71526 0.84544 0.64787 0.0
Cd200 Cd 0.69782 0.83483 0.5627 0.0
C201 C 0.71061 0.79316 0.58243 0.0
O202 O 0.71715 0.84614 0.49057 0.0
O203 O 0.70252 0.82267 0.46715 0.0
O204 O 0.67929 0.86035 0.5467 0.0
C205 C 0.71167 0.83599 0.45178 0.0
O206 O 0.72527 0.79885 0.56207 0.0
C207 C 0.66491 0.85175 0.53993 0.0
O208 O 0.69766 0.80373 0.59105 0.0
O209 O 0.66512 0.83532 0.55218 0.0
C210 C 0.88811 0.96734 0.40487 0.0
O211 O 0.89035 0.98059 0.37245 0.0
Cd212 Cd 0.90559 0.9804 0.2854 0.0
O213 O 0.89218 0.95165 0.38833 0.0
Cd214 Cd 0.90298 0.93769 0.29709 0.0
C215 C 0.94282 0.95503 0.32412 0.0
O216 O 0.89252 0.95873 0.22803 0.0
O217 O 0.91608 0.94419 0.20469 0.0
O218 O 0.87703 0.92043 0.27585 0.0
C219 C 0.9039 0.95493 0.19045 0.0
O220 O 0.935 0.96943 0.31028 0.0
C221 C 0.88487 0.90573 0.26776 0.0
O222 O 0.93437 0.94028 0.32571 0.0
O223 O 0.90133 0.905 0.28037 0.0
C224 C 0.72616 0.63086 0.64949 0.0
O225 O 0.73951 0.63354 0.61773 0.0
Cd226 Cd 0.73975 0.64991 0.53275 0.0
O227 O 0.7106 0.63581 0.63419 0.0
Cd228 Cd 0.69721 0.64968 0.54698 0.0
C229 C 0.71739 0.68802 0.57782 0.0
O230 O 0.71702 0.63831 0.47547 0.0
O231 O 0.70394 0.66286 0.45447 0.0
O232 O 0.67615 0.62644 0.52658 0.0
C233 C 0.71375 0.65009 0.43874 0.0
O234 O 0.73129 0.67994 0.56061 0.0
C235 C 0.66257 0.63633 0.52257 0.0
O236 O 0.70244 0.67999 0.58096 0.0
O237 O 0.66452 0.65266 0.53511 0.0
C238 C 0.60281 0.46989 0.92359 0.0
O239 O 0.60008 0.4834 0.8927 0.0
Cd240 Cd 0.58475 0.48384 0.80607 0.0
O241 O 0.59881 0.4543 0.90593 0.0
Cd242 Cd 0.58705 0.4416 0.81409 0.0
C243 C 0.54729 0.45879 0.84325 0.0
O244 O 0.59842 0.46293 0.74689 0.0
O245 O 0.57445 0.44932 0.72173 0.0
O246 O 0.61189 0.42321 0.7892 0.0
C247 C 0.58721 0.45955 0.70838 0.0
O248 O 0.55505 0.47329 0.82994 0.0
C249 C 0.60319 0.40892 0.78217 0.0
O250 O 0.55581 0.44413 0.84386 0.0
O251 O 0.58688 0.40899 0.79667 0.0
C252 C 0.76592 0.33041 0.15472 0.0
O253 O 0.75342 0.32642 0.12076 0.0
Cd254 Cd 0.75407 0.3234 0.02148 0.0
O255 O 0.78178 0.33326 0.13677 0.0
Cd256 Cd 0.79616 0.33335 0.03995 0.0
C257 C 0.78581 0.29029 0.01496 0.0
O258 O 0.7712 0.34851 -0.00103 0.0
O259 O 0.78963 0.33834 0.93827 0.0
O260 O 0.81615 0.35806 0.06081 0.0
C261 C 0.77578 0.3474 0.94784 0.0
O262 O 0.7701 0.29577 0.00481 0.0
C263 C 0.82912 0.35189 0.03231 0.0
O264 O 0.79779 0.30088 0.03303 0.0
O265 O 0.82745 0.33615 0.01364 0.0
C266 C 0.89237 0.49697 0.40551 0.0
O267 O 0.8986 0.48534 0.3721 0.0
Cd268 Cd 0.91614 0.49211 0.29325 0.0
O269 O 0.89419 0.51356 0.39488 0.0
Cd270 Cd 0.9057 0.53272 0.315 0.0
C271 C 0.94666 0.52223 0.35297 0.0
O272 O 0.8981 0.51197 0.24263 0.0
O273 O 0.91876 0.53026 0.21906 0.0
O274 O 0.87762 0.54829 0.3175 0.0
C275 C 0.90797 0.51816 0.20422 0.0
O276 O 0.9423 0.5072 0.33207 0.0
C277 C 0.88359 0.56303 0.29952 0.0
O278 O 0.93553 0.53497 0.35514 0.0
O279 O 0.90037 0.56438 0.29445 0.0
C280 C 0.72599 0.32611 0.46701 0.0
O281 O 0.73855 0.32168 0.50013 0.0
Cd282 Cd 0.73839 0.31858 0.59946 0.0
O283 O 0.71025 0.32903 0.48578 0.0
Cd284 Cd 0.69606 0.32875 0.58289 0.0
C285 C 0.70633 0.28576 0.61075 0.0
O286 O 0.72151 0.34386 0.62096 0.0
O287 O 0.70297 0.3352 0.68381 0.0
O288 O 0.67624 0.35341 0.5603 0.0
C289 C 0.71708 0.34368 0.67232 0.0
O290 O 0.72216 0.29126 0.61914 0.0
C291 C 0.66327 0.34766 0.58971 0.0
O292 O 0.6943 0.29622 0.59252 0.0
O293 O 0.66483 0.33212 0.61004 0.0
C294 C 0.88958 0.47878 0.72916 0.0
O295 O 0.89272 0.49066 0.76597 0.0
Cd296 Cd 0.90782 0.48612 0.85178 0.0
O297 O 0.89361 0.46251 0.73847 0.0
Cd298 Cd 0.9059 0.44507 0.82045 0.0
C299 C 0.94569 0.46366 0.80327 0.0
O300 O 0.89272 0.46228 0.89464 0.0
O301 O 0.91698 0.44888 0.91724 0.0
O302 O 0.88092 0.42537 0.82648 0.0
C303 C 0.90315 0.4571 0.93308 0.0
O304 O 0.93789 0.47712 0.82479 0.0
C305 C 0.88975 0.41132 0.83566 0.0
O306 O 0.93709 0.44938 0.79292 0.0
O307 O 0.90653 0.41225 0.82924 0.0
C308 C 0.76366 0.62846 0.95775 0.0
O309 O 0.75078 0.63326 -0.01111 0.0
Cd310 Cd 0.75323 0.64798 0.07613 0.0
O311 O 0.77975 0.6304 0.97454 0.0
Cd312 Cd 0.79397 0.64111 0.06541 0.0
C313 C 0.78178 0.68272 0.03968 0.0
O314 O 0.77217 0.62999 0.13131 0.0
O315 O 0.78667 0.65304 0.15966 0.0
O316 O 0.81139 0.61507 0.08482 0.0
C317 C 0.77663 0.64003 0.17176 0.0
O318 O 0.76652 0.67687 0.05428 0.0
C319 C 0.82587 0.62313 0.09517 0.0
O320 O 0.79512 0.67232 0.0368 0.0
O321 O 0.82638 0.63968 0.08447 0.0
C322 C 0.60399 0.50661 0.23575 0.0
O323 O 0.6027 0.49389 0.27079 0.0
Cd324 Cd 0.59193 0.49645 0.36454 0.0
O325 O 0.60014 0.5225 0.25051 0.0
Cd326 Cd 0.59044 0.53836 0.33885 0.0
C327 C 0.55139 0.51696 0.33542 0.0
O328 O 0.60735 0.52065 0.40554 0.0
O329 O 0.58481 0.53448 0.43962 0.0
O330 O 0.61199 0.56162 0.31903 0.0
C331 C 0.59846 0.52506 0.4487 0.0
O332 O 0.56045 0.50382 0.35351 0.0
C333 C 0.60302 0.57414 0.34093 0.0
O334 O 0.55899 0.53154 0.32177 0.0
O335 O 0.58732 0.57041 0.35702 0.0
C336 C 0.25705 0.34234 0.47513 0.0
O337 O 0.2449 0.33501 0.50421 0.0
Cd338 Cd 0.24929 0.31629 0.58154 0.0
O339 O 0.27345 0.34096 0.48948 0.0
Cd340 Cd 0.28954 0.32826 0.57499 0.0
C341 C 0.28176 0.28704 0.53131 0.0
O342 O 0.26661 0.33395 0.64197 0.0
O343 O 0.28388 0.3125 0.66589 0.0
O344 O 0.30366 0.35556 0.60458 0.0
C345 C 0.27174 0.32334 0.67983 0.0
O346 O 0.2659 0.29072 0.54642 0.0
C347 C 0.31914 0.34921 0.6111 0.0
O348 O 0.29411 0.29862 0.53491 0.0
O349 O 0.3216 0.33334 0.59434 0.0
C350 C 0.39236 0.50495 0.22219 0.0
O351 O 0.39661 0.49291 0.25726 0.0
Cd352 Cd 0.40821 0.49653 0.34873 0.0
O353 O 0.39402 0.52143 0.23495 0.0
Cd354 Cd 0.40366 0.53754 0.3241 0.0
C355 C 0.44531 0.52217 0.3178 0.0
O356 O 0.38835 0.51754 0.38751 0.0
O357 O 0.40964 0.53241 0.42504 0.0
O358 O 0.38098 0.56086 0.31773 0.0
C359 C 0.39602 0.52275 0.43197 0.0
O360 O 0.43859 0.50786 0.3374 0.0
C361 C 0.39074 0.5727 0.34041 0.0
O362 O 0.43537 0.53515 0.30393 0.0
O363 O 0.4069 0.56873 0.34887 0.0
C364 C 0.23841 0.63544 -0.00275 0.0
O365 O 0.24913 0.64132 0.03429 0.0
Cd366 Cd 0.24065 0.65446 0.11987 0.0
O367 O 0.2216 0.63527 0.00661 0.0
Cd368 Cd 0.2015 0.64267 0.09018 0.0
C369 C 0.20957 0.68539 0.0705 0.0
O370 O 0.222 0.63293 0.16171 0.0
O371 O 0.20315 0.65234 0.19015 0.0
O372 O 0.18599 0.61451 0.08083 0.0
C373 C 0.21506 0.64112 0.20274 0.0
O374 O 0.22465 0.68118 0.09126 0.0
C375 C 0.17109 0.62012 0.09876 0.0
O376 O 0.19761 0.67366 0.06215 0.0
O377 O 0.16969 0.63677 0.10621 0.0
C378 C 0.10531 0.47696 0.73075 0.0
O379 O 0.10021 0.48846 0.76649 0.0
Cd380 Cd 0.08566 0.48194 0.85143 0.0
O381 O 0.10338 0.46032 0.74064 0.0
Cd382 Cd 0.09257 0.44169 0.823 0.0
C383 C 0.05106 0.45471 0.80214 0.0
O384 O 0.10485 0.46101 0.89341 0.0
O385 O 0.08214 0.44592 0.9208 0.0
O386 O 0.11864 0.42291 0.81436 0.0
C387 C 0.09534 0.45558 0.93382 0.0
O388 O 0.05697 0.46909 0.82389 0.0
C389 C 0.11163 0.40923 0.83665 0.0
O390 O 0.06147 0.44169 0.79254 0.0
O391 O 0.095 0.40985 0.84588 0.0
C392 C 0.2629 0.62976 0.67226 0.0
O393 O 0.2515 0.63322 0.63424 0.0
Cd394 Cd 0.2577 0.64297 0.54189 0.0
O395 O 0.27958 0.63102 0.66167 0.0
Cd396 Cd 0.29629 0.6388 0.5718 0.0
C397 C 0.28312 0.68037 0.57163 0.0
O398 O 0.27827 0.62186 0.50523 0.0
O399 O 0.28716 0.64745 0.47641 0.0
O400 O 0.32045 0.61686 0.5799 0.0
C401 C 0.27984 0.63273 0.46478 0.0
O402 O 0.2693 0.67338 0.54943 0.0
C403 C 0.33162 0.62637 0.55307 0.0
O404 O 0.29545 0.67058 0.59135 0.0
O405 O 0.32696 0.64209 0.54113 0.0
C406 C 0.1073 0.49556 0.40742 0.0
O407 O 0.10287 0.48337 0.37304 0.0
Cd408 Cd 0.08403 0.48766 0.29535 0.0
O409 O 0.10327 0.5118 0.39762 0.0
Cd410 Cd 0.08953 0.52932 0.31773 0.0
C411 C 0.05038 0.51347 0.35775 0.0
O412 O 0.09787 0.51009 0.24277 0.0
O413 O 0.07435 0.52541 0.22553 0.0
O414 O 0.11601 0.54613 0.3003 0.0
C415 C 0.08641 0.51513 0.20724 0.0
O416 O 0.05655 0.49916 0.33653 0.0
C417 C 0.1085 0.56104 0.29294 0.0
O418 O 0.05974 0.52764 0.35918 0.0
O419 O 0.09203 0.56201 0.30511 0.0
C420 C 0.23562 0.34282 0.15368 0.0
O421 O 0.24657 0.3378 0.11607 0.0
Cd422 Cd 0.23956 0.32376 0.0302 0.0
O423 O 0.21882 0.34118 0.14593 0.0
Cd424 Cd 0.19955 0.33064 0.06457 0.0
C425 C 0.21281 0.28877 0.07802 0.0
O426 O 0.21767 0.3419 -0.01077 0.0
O427 O 0.20211 0.31882 0.96796 0.0
O428 O 0.18215 0.35723 0.05559 0.0
C429 C 0.21136 0.33191 0.9513 0.0
O430 O 0.22694 0.29489 0.05525 0.0
C431 C 0.16732 0.34955 0.0476 0.0
O432 O 0.20001 0.29911 0.09106 0.0
O433 O 0.16672 0.3329 0.0567 0.0
C434 C 0.39276 0.4825 0.89677 0.0
O435 O 0.39865 0.49305 0.85925 0.0
Cd436 Cd 0.41169 0.48436 0.77362 0.0
O437 O 0.39242 0.46567 0.8881 0.0
Cd438 Cd 0.39939 0.44466 0.80686 0.0
C439 C 0.44241 0.45343 0.82566 0.0
O440 O 0.39021 0.46504 0.73528 0.0
O441 O 0.40782 0.44473 0.70544 0.0
O442 O 0.37099 0.4295 0.81769 0.0
C443 C 0.39759 0.45756 0.69368 0.0
O444 O 0.43827 0.46841 0.80418 0.0
C445 C 0.37664 0.41434 0.80232 0.0
O446 O 0.43066 0.44148 0.83407 0.0
O447 O 0.39335 0.41278 0.79594 0.0
H448 H 0.10737 0.0756 -0.01886 0.0
H449 H 0.11016 0.10839 0.83187 0.0
H450 H 0.12776 0.1306 0.88419 0.0
H451 H 0.1458 0.13823 0.96784 0.0
H452 H 0.14687 0.10266 0.111 0.0
H453 H 0.12403 0.08404 0.06646 0.0
C454 C 0.11152 0.08785 0.96065 0.0
C455 C 0.10741 0.09061 0.90324 0.0
C456 C 0.12238 0.09991 -0.00999 0.0
C457 C 0.11313 0.10618 0.87623 0.0
C458 C 0.12321 0.11878 0.9061 0.0
C459 C 0.14058 0.12672 -0.00996 0.0
C460 C 0.14778 0.1219 0.04293 0.0
C461 C 0.12837 0.11549 0.96245 0.0
C462 C 0.14134 0.10669 0.0706 0.0
C463 C 0.12842 0.09599 0.0449 0.0
H464 H 0.10032 0.88469 0.21643 0.0
H465 H 0.14399 0.89954 0.32591 0.0
H466 H 0.1642 0.88127 0.27001 0.0
H467 H 0.17018 0.86418 0.1841 0.0
H468 H 0.12712 0.84862 0.07414 0.0
H469 H 0.10582 0.86428 0.1359 0.0
C470 C 0.11417 0.88359 0.22891 0.0
C471 C 0.12068 0.89366 0.27499 0.0
C472 C 0.12584 0.87335 0.19566 0.0
C473 C 0.13865 0.89203 0.29057 0.0
C474 C 0.15025 0.88171 0.25832 0.0
C475 C 0.15609 0.86425 0.17374 0.0
C476 C 0.15015 0.85582 0.12413 0.0
C477 C 0.14412 0.87292 0.20967 0.0
C478 C 0.13191 0.85538 0.11172 0.0
C479 C 0.11981 0.86425 0.1471 0.0
H480 H 0.39168 0.88309 0.39796 0.0
H481 H 0.34661 0.90901 0.32002 0.0
H482 H 0.32633 0.89061 0.375 0.0
H483 H 0.32126 0.86929 0.45044 0.0
H484 H 0.36532 0.84154 0.52641 0.0
H485 H 0.38628 0.85874 0.46741 0.0
C486 C 0.37742 0.88439 0.392 0.0
C487 C 0.37068 0.89755 0.35522 0.0
C488 C 0.36573 0.87384 0.42446 0.0
C489 C 0.35217 0.89907 0.34808 0.0
C490 C 0.34054 0.88867 0.37991 0.0
C491 C 0.3355 0.86713 0.45455 0.0
C492 C 0.34188 0.85472 0.49398 0.0
C493 C 0.34718 0.87649 0.41941 0.0
C494 C 0.36022 0.8514 0.49722 0.0
C495 C 0.37212 0.86113 0.46325 0.0
H496 H 0.35921 0.06233 0.71513 0.0
H497 H 0.3836 0.106 0.80445 0.0
H498 H 0.36762 0.12725 0.74337 0.0
H499 H 0.34552 0.13294 0.66666 0.0
H500 H 0.32324 0.0883 0.57548 0.0
H501 H 0.3401 0.06782 0.6342 0.0
C502 C 0.36085 0.07653 0.72179 0.0
C503 C 0.37198 0.08269 0.76539 0.0
C504 C 0.3523 0.08841 0.6854 0.0
C505 C 0.37469 0.10104 0.77198 0.0
C506 C 0.36568 0.11311 0.73679 0.0
C507 C 0.3447 0.11876 0.65883 0.0
C508 C 0.33301 0.11216 0.61694 0.0
C509 C 0.35436 0.10692 0.6934 0.0
C510 C 0.33205 0.09374 0.60749 0.0
C511 C 0.34157 0.08199 0.64138 0.0
H512 H 0.84706 0.83965 0.15286 0.0
H513 H 0.8248 0.88219 0.05262 0.0
H514 H 0.84344 0.90369 0.10195 0.0
H515 H 0.86334 0.91091 0.1799 0.0
H516 H 0.8869 0.86922 0.27981 0.0
H517 H 0.87038 0.84678 0.22452 0.0
C518 C 0.84667 0.85356 0.14081 0.0
C519 C 0.83441 0.85934 0.09943 0.0
C520 C 0.85728 0.86601 0.17024 0.0
C521 C 0.83401 0.87741 0.08447 0.0
C522 C 0.84457 0.88974 0.11297 0.0
C523 C 0.86484 0.89689 0.18971 0.0
C524 C 0.87584 0.89167 0.23482 0.0
C525 C 0.85571 0.88427 0.1572 0.0
C526 C 0.87822 0.87349 0.24584 0.0
C527 C 0.86883 0.86073 0.21413 0.0
H528 H 0.87244 0.06757 0.95054 0.0
H529 H 0.88441 0.106 0.82077 0.0
H530 H 0.86972 0.12937 0.87699 0.0
H531 H 0.85042 0.13756 0.95787 0.0
H532 H 0.83897 0.09852 0.08708 0.0
H533 H 0.8572 0.07677 0.03729 0.0
C534 C 0.87189 0.08112 0.93483 0.0
C535 C 0.87895 0.08512 0.88126 0.0
C536 C 0.86374 0.09432 0.96754 0.0
C537 C 0.87873 0.1027 0.86164 0.0
C538 C 0.8704 0.11599 0.89382 0.0
C539 C 0.85233 0.12446 0.97603 0.0
C540 C 0.8431 0.11958 0.02575 0.0
C541 C 0.86246 0.11182 0.94624 0.0
C542 C 0.84579 0.10258 0.04875 0.0
C543 C 0.85607 0.09007 0.01999 0.0
H544 H 0.64313 0.13272 0.70092 0.0
H545 H 0.65077 0.09423 0.56727 0.0
H546 H 0.63091 0.07349 0.61578 0.0
H547 H 0.61468 0.06488 0.70154 0.0
H548 H 0.60808 0.10231 0.83803 0.0
H549 H 0.62433 0.12502 0.78321 0.0
C550 C 0.64007 0.11998 0.68161 0.0
C551 C 0.64849 0.11499 0.63056 0.0
C552 C 0.62917 0.10786 0.71088 0.0
C553 C 0.64448 0.09839 0.60641 0.0
C554 C 0.63325 0.08647 0.63438 0.0
C555 C 0.61669 0.07812 0.71887 0.0
C556 C 0.6105 0.08204 0.77359 0.0
C557 C 0.6261 0.09083 0.68751 0.0
C558 C 0.61293 0.09911 0.79602 0.0
C559 C 0.62217 0.11201 0.76466 0.0
H560 H 0.59891 0.88494 0.41442 0.0
H561 H 0.6406 0.89952 0.29716 0.0
H562 H 0.66203 0.88235 0.35199 0.0
H563 H 0.66974 0.8672 0.44011 0.0
H564 H 0.62866 0.85204 0.55801 0.0
H565 H 0.60604 0.86576 0.49646 0.0
C566 C 0.61255 0.88389 0.39977 0.0
C567 C 0.61821 0.89372 0.35209 0.0
C568 C 0.62496 0.87447 0.43269 0.0
C569 C 0.63593 0.89218 0.33377 0.0
C570 C 0.64824 0.88255 0.36552 0.0
C571 C 0.6558 0.86695 0.45231 0.0
C572 C 0.65079 0.85928 0.50416 0.0
C573 C 0.64305 0.87443 0.41637 0.0
C574 C 0.63274 0.8583 0.51877 0.0
C575 C 0.61987 0.86603 0.48347 0.0
H576 H 0.66161 0.62753 0.41394 0.0
H577 H 0.62886 0.63009 0.56338 0.0
H578 H 0.60509 0.61363 0.51403 0.0
H579 H 0.5962 0.59439 0.43362 0.0
H580 H 0.63046 0.59055 0.2874 0.0
H581 H 0.65087 0.61219 0.32918 0.0
C582 C 0.64906 0.62479 0.43512 0.0
C583 C 0.64687 0.62975 0.49198 0.0
C584 C 0.63581 0.61513 0.40691 0.0
C585 C 0.63069 0.62631 0.51947 0.0
C586 C 0.61721 0.61687 0.49131 0.0
C587 C 0.60781 0.5988 0.41011 0.0
C588 C 0.61192 0.59084 0.35764 0.0
C589 C 0.61992 0.61064 0.43569 0.0
C590 C 0.62709 0.59647 0.32787 0.0
C591 C 0.63882 0.60871 0.35197 0.0
H592 H 0.6222 0.41274 0.68781 0.0
H593 H 0.60101 0.37274 0.79978 0.0
H594 H 0.61597 0.34941 0.74414 0.0
H595 H 0.63751 0.34114 0.66898 0.0
H596 H 0.65756 0.38178 0.55636 0.0
H597 H 0.64006 0.40413 0.60593 0.0
C598 C 0.62086 0.39888 0.69999 0.0
C599 C 0.61104 0.39439 0.74857 0.0
C600 C 0.6291 0.38573 0.66733 0.0
C601 C 0.60881 0.37644 0.763 0.0
C602 C 0.6173 0.36317 0.73112 0.0
C603 C 0.6377 0.3548 0.65436 0.0
C604 C 0.64906 0.35981 0.60942 0.0
C605 C 0.62779 0.36772 0.68381 0.0
C606 C 0.64906 0.37756 0.59094 0.0
C607 C 0.63917 0.3904 0.6196 0.0
H608 H 0.871 0.41579 0.92949 0.0
H609 H 0.89091 0.375 0.81825 0.0
H610 H 0.87565 0.35214 0.87543 0.0
H611 H 0.85436 0.34457 0.9522 0.0
H612 H 0.83555 0.3861 0.06361 0.0
H613 H 0.85324 0.40792 0.01212 0.0
C614 C 0.87196 0.40186 0.91772 0.0
C615 C 0.88149 0.39699 0.86898 0.0
C616 C 0.86357 0.38902 0.95121 0.0
C617 C 0.88329 0.37896 0.85508 0.0
C618 C 0.87464 0.36598 0.88787 0.0
C619 C 0.85449 0.35831 0.96612 0.0
C620 C 0.84344 0.36373 0.01137 0.0
C621 C 0.86447 0.37092 0.9355 0.0
C622 C 0.84382 0.38157 0.02888 0.0
C623 C 0.85381 0.3941 -0.00088 0.0
H624 H 0.81995 0.60087 0.18065 0.0
H625 H 0.86237 0.62686 0.08965 0.0
H626 H 0.88446 0.61205 0.15056 0.0
H627 H 0.89134 0.59002 0.22587 0.0
H628 H 0.84806 0.56544 0.31771 0.0
H629 H 0.82657 0.58193 0.26136 0.0
C630 C 0.83406 0.60319 0.17383 0.0
C631 C 0.83964 0.61441 0.12975 0.0
C632 C 0.84644 0.59515 0.2098 0.0
C633 C 0.85786 0.61793 0.12269 0.0
C634 C 0.87042 0.60956 0.15769 0.0
C635 C 0.87722 0.58864 0.23448 0.0
C636 C 0.87129 0.57638 0.27563 0.0
C637 C 0.86484 0.59798 0.20107 0.0
C638 C 0.85296 0.57469 0.28615 0.0
C639 C 0.84065 0.584 0.25362 0.0
H640 H 0.31284 0.37397 0.6905 0.0
H641 H 0.35557 0.34574 0.60834 0.0
H642 H 0.3774 0.36191 0.66643 0.0
H643 H 0.38414 0.38549 0.73647 0.0
H644 H 0.34085 0.41294 0.81895 0.0
H645 H 0.31936 0.39516 0.76604 0.0
C646 C 0.32695 0.37144 0.68493 0.0
C647 C 0.33266 0.35906 0.64416 0.0
C648 C 0.33926 0.38041 0.71924 0.0
C649 C 0.35091 0.35547 0.63878 0.0
C650 C 0.36335 0.36462 0.67221 0.0
C651 C 0.37001 0.38727 0.74389 0.0
C652 C 0.3641 0.40062 0.78142 0.0
C653 C 0.35767 0.37725 0.71226 0.0
C654 C 0.34575 0.40281 0.7903 0.0
C655 C 0.33344 0.39276 0.75965 0.0
H656 H 0.3421 0.63166 0.44584 0.0
H657 H 0.35496 0.60218 0.59691 0.0
H658 H 0.3771 0.58492 0.54395 0.0
H659 H 0.38964 0.57568 0.45245 0.0
H660 H 0.37274 0.60155 0.2989 0.0
H661 H 0.35536 0.62302 0.35466 0.0
C662 C 0.35013 0.62178 0.46741 0.0
C663 C 0.34719 0.6183 0.52528 0.0
C664 C 0.36189 0.6112 0.43587 0.0
C665 C 0.3572 0.60514 0.55255 0.0
C666 C 0.36973 0.59524 0.52219 0.0
C667 C 0.38246 0.58633 0.43149 0.0
C668 C 0.38259 0.58738 0.37203 0.0
C669 C 0.37175 0.59779 0.46355 0.0
C670 C 0.37291 0.60075 0.34473 0.0
C671 C 0.36296 0.6129 0.37659 0.0
H672 H 0.13244 0.5557 0.21141 0.0
H673 H 0.10437 0.59748 0.29862 0.0
H674 H 0.11985 0.61986 0.24041 0.0
H675 H 0.14288 0.6272 0.16848 0.0
H676 H 0.1696 0.58454 0.08036 0.0
H677 H 0.15261 0.56273 0.13415 0.0
C678 C 0.1298 0.56973 0.21813 0.0
C679 C 0.11774 0.57503 0.26037 0.0
C680 C 0.13826 0.58227 0.18365 0.0
C681 C 0.11391 0.59316 0.26709 0.0
C682 C 0.12266 0.60589 0.2336 0.0
C683 C 0.14465 0.61314 0.16007 0.0
C684 C 0.15762 0.6075 0.1207 0.0
C685 C 0.13501 0.60058 0.19202 0.0
C686 C 0.15978 0.58924 0.11047 0.0
C687 C 0.15019 0.57674 0.14159 0.0
H688 H 0.10277 0.385 0.91837 0.0
H689 H 0.14632 0.40268 0.81281 0.0
H690 H 0.16718 0.38568 0.87008 0.0
H691 H 0.17353 0.36852 0.955 0.0
H692 H 0.13072 0.3494 0.06019 0.0
H693 H 0.10896 0.3645 -0.00138 0.0
C694 C 0.11675 0.38474 0.90701 0.0
C695 C 0.123 0.39523 0.86156 0.0
C696 C 0.12881 0.37516 0.941 0.0
C697 C 0.14117 0.39479 0.84759 0.0
C698 C 0.15314 0.38522 0.88065 0.0
C699 C 0.15941 0.36777 0.96473 0.0
C700 C 0.15367 0.35846 0.01296 0.0
C701 C 0.14718 0.37593 0.9285 0.0
C702 C 0.13538 0.35689 0.02391 0.0
C703 C 0.12301 0.36541 -0.01146 0.0
H704 H 0.22765 0.16394 0.89463 0.0
H705 H 0.21341 0.10866 0.87738 0.0
H706 H 0.23181 0.10635 0.79184 0.0
H707 H 0.25249 0.11997 0.72442 0.0
H708 H 0.26855 0.17469 0.7461 0.0
H709 H 0.24908 0.17732 0.82877 0.0
C710 C 0.22835 0.15152 0.8713 0.0
C711 C 0.21899 0.13657 0.89071 0.0
C712 C 0.23949 0.15015 0.82409 0.0
C713 C 0.22036 0.12034 0.862 0.0
C714 C 0.23094 0.11901 0.81365 0.0
C715 C 0.25175 0.13244 0.74742 0.0
C716 C 0.26181 0.14713 0.72943 0.0
C717 C 0.24069 0.13379 0.79479 0.0
C718 C 0.26095 0.16319 0.7596 0.0
C719 C 0.24975 0.16473 0.80646 0.0
H720 H 0.11103 0.95694 0.11109 0.0
H721 H 0.10366 -0.00141 0.23474 0.0
H722 H 0.10496 0.02101 0.16056 0.0
H723 H 0.10499 0.02845 0.05959 0.0
H724 H 0.11466 0.98722 0.93625 0.0
H725 H 0.11604 0.965 0.0113 0.0
C726 C 0.10988 0.97094 0.12157 0.0
C727 C 0.10677 0.97613 0.17765 0.0
C728 C 0.11104 0.98382 0.07894 0.0
C729 C 0.10577 0.99429 0.19146 0.0
C730 C 0.10652 0.00713 0.14918 0.0
C731 C 0.10767 0.01464 0.04944 0.0
C732 C 0.10924 0.00935 -0.00715 0.0
C733 C 0.10866 0.002 0.09266 0.0
C734 C 0.11314 0.99153 0.97977 0.0
C735 C 0.11387 0.9788 0.02254 0.0
H736 H 0.24858 0.84055 0.18622 0.0
H737 H 0.1996 0.83762 0.28108 0.0
H738 H 0.2163 0.83903 0.37018 0.0
H739 H 0.24484 0.83909 0.42013 0.0
H740 H 0.29388 0.83796 0.32525 0.0
H741 H 0.27718 0.84029 0.23632 0.0
C742 C 0.24161 0.84043 0.22651 0.0
C743 C 0.223 0.83909 0.22778 0.0
C744 C 0.25131 0.84044 0.27705 0.0
C745 C 0.21399 0.83863 0.27974 0.0
C746 C 0.2235 0.83943 0.33039 0.0
C747 C 0.25184 0.83956 0.37995 0.0
C748 C 0.27046 0.83845 0.37864 0.0
C749 C 0.24216 0.84006 0.32945 0.0
C750 C 0.27949 0.83878 0.32668 0.0
C751 C 0.26998 0.8401 0.27611 0.0
H752 H 0.41651 -0.00163 0.66308 0.0
H753 H 0.37222 0.03021 0.6078 0.0
H754 H 0.36904 0.01169 0.52257 0.0
H755 H 0.37858 0.98604 0.46605 0.0
H756 H 0.42214 0.95342 0.52447 0.0
H757 H 0.42571 0.97246 0.60746 0.0
C758 C 0.40634 0.00129 0.63176 0.0
C759 C 0.39478 0.0156 0.6402 0.0
C760 C 0.40431 0.99032 0.58447 0.0
C761 C 0.38138 0.01931 0.60081 0.0
C762 C 0.3795 0.00868 0.55269 0.0
C763 C 0.38878 0.98304 0.49715 0.0
C764 C 0.40008 0.96839 0.48929 0.0
C765 C 0.39079 0.99404 0.54449 0.0
C766 C 0.41321 0.96459 0.52985 0.0
C767 C 0.41536 0.97552 0.57702 0.0
H768 H 0.7526 0.85288 0.22811 0.0
H769 H 0.77322 0.80026 0.25916 0.0
H770 H 0.75406 0.79741 0.34253 0.0
H771 H 0.73149 0.81006 0.40643 0.0
H772 H 0.71253 0.86337 0.3785 0.0
H773 H 0.73072 0.86572 0.29262 0.0
C774 C 0.75294 0.84082 0.25332 0.0
C775 C 0.76421 0.8268 0.23778 0.0
C776 C 0.74199 0.83932 0.30082 0.0
C777 C 0.7647 0.81128 0.27076 0.0
C778 C 0.75366 0.80959 0.31801 0.0
C779 C 0.73116 0.822 0.38066 0.0
C780 C 0.72057 0.8364 0.39715 0.0
C781 C 0.74218 0.82348 0.33311 0.0
C782 C 0.7205 0.8521 0.36531 0.0
C783 C 0.73095 0.85347 0.3168 0.0
H784 H 0.92372 0.00261 -0.01881 0.0
H785 H 0.86764 0.0142 -0.00985 0.0
H786 H 0.8646 0.99472 0.07293 0.0
H787 H 0.87795 0.97402 0.14091 0.0
H788 H 0.93361 0.9606 0.12671 0.0
H789 H 0.9368 0.98098 0.04679 0.0
C790 C 0.91093 0.00101 0.002 0.0
C791 C 0.89597 0.00992 -0.01892 0.0
C792 C 0.9092 0.98931 0.04766 0.0
C793 C 0.8793 0.0075 0.00661 0.0
C794 C 0.87757 -0.00365 0.05347 0.0
C795 C 0.89074 0.97554 0.12009 0.0
C796 C 0.90552 0.96594 0.13947 0.0
C797 C 0.89242 0.98709 0.07399 0.0
C798 C 0.92202 0.96782 0.11212 0.0
C799 C 0.92389 0.97954 0.06678 0.0
H800 H 0.78211 0.11866 0.85457 0.0
H801 H 0.73911 0.11766 0.97585 0.0
H802 H 0.7176 0.1136 0.8996 0.0
H803 H 0.71081 0.11561 0.79814 0.0
H804 H 0.75377 0.1163 0.67676 0.0
H805 H 0.77551 0.11483 0.75335 0.0
C806 C 0.76806 0.11717 0.86423 0.0
C807 C 0.76212 0.11892 0.92027 0.0
C808 C 0.75576 0.11495 0.82023 0.0
C809 C 0.74396 0.11658 0.93276 0.0
C810 C 0.73164 0.11434 0.88922 0.0
C811 C 0.72493 0.11503 0.78857 0.0
C812 C 0.73073 0.11653 0.73233 0.0
C813 C 0.73734 0.11433 0.83272 0.0
C814 C 0.749 0.11538 0.71999 0.0
C815 C 0.76145 0.11464 0.76372 0.0
H816 H 0.60973 0.98434 0.69173 0.0
H817 H 0.6055 0.03393 0.60105 0.0
H818 H 0.60991 0.01831 0.51105 0.0
H819 H 0.61122 0.99036 0.45874 0.0
H820 H 0.61063 0.94047 0.54886 0.0
H821 H 0.61224 0.95639 0.63931 0.0
C822 C 0.61008 0.99173 0.65227 0.0
C823 C 0.60726 0.01016 0.65238 0.0
C824 C 0.61168 0.98258 0.60101 0.0
C825 C 0.60754 0.01967 0.60136 0.0
C826 C 0.61005 0.01077 0.55018 0.0
C827 C 0.61174 0.98297 0.49814 0.0
C828 C 0.61071 0.96434 0.49762 0.0
C829 C 0.61158 0.99218 0.54951 0.0
C830 C 0.61132 0.95486 0.54872 0.0
C831 C 0.61218 0.96394 0.60019 0.0
H832 H 0.73154 0.62335 0.38854 0.0
H833 H 0.72007 0.67936 0.37347 0.0
H834 H 0.73992 0.68148 0.29168 0.0
H835 H 0.76048 0.66731 0.22441 0.0
H836 H 0.77004 0.61094 0.23514 0.0
H837 H 0.75122 0.60903 0.3197 0.0
C838 C 0.73336 0.636 0.36717 0.0
C839 C 0.72445 0.65117 0.38683 0.0
C840 C 0.7446 0.63707 0.32009 0.0
C841 C 0.72675 0.66747 0.35873 0.0
C842 C 0.73817 0.66872 0.3123 0.0
C843 C 0.75858 0.65471 0.24596 0.0
C844 C 0.76671 0.63933 0.22485 0.0
C845 C 0.74723 0.65363 0.29285 0.0
C846 C 0.76392 0.62292 0.25156 0.0
C847 C 0.75315 0.62183 0.29949 0.0
H848 H 0.57148 0.50747 0.49676 0.0
H849 H 0.62776 0.51768 0.51183 0.0
H850 H 0.62933 0.49785 0.59433 0.0
H851 H 0.61449 0.47763 0.66128 0.0
H852 H 0.55858 0.46585 0.64068 0.0
H853 H 0.55705 0.48613 0.5601 0.0
C854 C 0.58402 0.50549 0.51874 0.0
C855 C 0.59942 0.51419 0.49981 0.0
C856 C 0.58488 0.49367 0.56425 0.0
C857 C 0.61575 0.5112 0.5268 0.0
C858 C 0.61663 0.49986 0.57352 0.0
C859 C 0.60201 0.47948 0.63891 0.0
C860 C 0.58665 0.47042 0.65684 0.0
C861 C 0.60128 0.49099 0.59242 0.0
C862 C 0.57058 0.47268 0.62738 0.0
C863 C 0.56967 0.48434 0.58163 0.0
H864 H 0.71058 0.34972 0.78334 0.0
H865 H 0.75282 0.34765 0.65955 0.0
H866 H 0.77502 0.35042 0.73434 0.0
H867 H 0.7824 0.34993 0.83556 0.0
H868 H 0.74018 0.35295 0.95925 0.0
H869 H 0.71802 0.35362 0.88387 0.0
C870 C 0.72464 0.35013 0.77286 0.0
C871 C 0.7301 0.34814 0.71647 0.0
C872 C 0.73733 0.35181 0.81597 0.0
C873 C 0.74831 0.34901 0.70293 0.0
C874 C 0.76103 0.35054 0.74562 0.0
C875 C 0.76836 0.35101 0.84582 0.0
C876 C 0.76288 0.35103 0.90257 0.0
C877 C 0.75569 0.3514 0.80237 0.0
C878 C 0.74471 0.35276 0.91567 0.0
C879 C 0.73201 0.35306 0.87266 0.0
H880 H 0.88418 0.4957 0.15901 0.0
H881 H 0.93602 0.51889 0.13034 0.0
H882 H 0.93983 0.50039 0.04582 0.0
H883 H 0.9282 0.47772 -0.0198 0.0
H884 H 0.87559 0.45625 0.00585 0.0
H885 H 0.87236 0.47371 0.09292 0.0
C886 C 0.8963 0.49673 0.13413 0.0
C887 C 0.90982 0.50852 0.15062 0.0
C888 C 0.89833 0.48617 0.08598 0.0
C889 C 0.92539 0.50993 0.11801 0.0
C890 C 0.92763 0.49928 0.07011 0.0
C891 C 0.91622 0.47669 0.00575 0.0
C892 C 0.90227 0.46559 -0.01171 0.0
C893 C 0.91423 0.48729 0.054 0.0
C894 C 0.88652 0.4646 0.0198 0.0
C895 C 0.88465 0.47464 0.069 0.0
H896 H 0.2508 0.34822 0.7251 0.0
H897 H 0.26967 0.2947 0.75126 0.0
H898 H 0.25073 0.29194 0.83544 0.0
H899 H 0.22931 0.30521 0.90233 0.0
H900 H 0.21247 0.35946 0.87896 0.0
H901 H 0.22986 0.36145 0.79141 0.0
C902 C 0.25074 0.33593 0.74921 0.0
C903 C 0.26149 0.32166 0.73232 0.0
C904 C 0.24003 0.33455 0.7972 0.0
C905 C 0.26153 0.30588 0.76399 0.0
C906 C 0.25064 0.30427 0.81168 0.0
C907 C 0.22922 0.31728 0.87711 0.0
C908 C 0.21949 0.33207 0.89548 0.0
C909 C 0.23982 0.31852 0.82854 0.0
C910 C 0.21976 0.34791 0.86436 0.0
C911 C 0.22976 0.34906 0.81488 0.0
H912 H 0.41423 0.49368 0.45971 0.0
H913 H 0.37278 0.52881 0.5172 0.0
H914 H 0.36867 0.51065 0.60266 0.0
H915 H 0.37755 0.48534 0.66099 0.0
H916 H 0.41901 0.45 0.6032 0.0
H917 H 0.42225 0.46749 0.51649 0.0
C918 C 0.40437 0.49728 0.49129 0.0
C919 C 0.39394 0.51248 0.48359 0.0
C920 C 0.40202 0.48671 0.53938 0.0
C921 C 0.38101 0.51717 0.52349 0.0
C922 C 0.37864 0.50678 0.57184 0.0
C923 C 0.38721 0.48138 0.62924 0.0
C924 C 0.39814 0.46653 0.63849 0.0
C925 C 0.38914 0.49158 0.58021 0.0
C926 C 0.41048 0.46142 0.5969 0.0
C927 C 0.4124 0.47146 0.54759 0.0
H928 H 0.25742 0.65736 0.42541 0.0
H929 H 0.27638 0.60415 0.39522 0.0
H930 H 0.25689 0.60161 0.31204 0.0
H931 H 0.23537 0.61517 0.24671 0.0
H932 H 0.21513 0.66775 0.2811 0.0
H933 H 0.23397 0.66982 0.36527 0.0
C934 C 0.25731 0.64527 0.40022 0.0
C935 C 0.26848 0.63109 0.41484 0.0
C936 C 0.24575 0.64377 0.35413 0.0
C937 C 0.26797 0.61526 0.38363 0.0
C938 C 0.25683 0.61381 0.33651 0.0
C939 C 0.23497 0.62698 0.2731 0.0
C940 C 0.22409 0.64135 0.25778 0.0
C941 C 0.24577 0.62804 0.32124 0.0
C942 C 0.22342 0.65652 0.29234 0.0
C943 C 0.23428 0.65777 0.34008 0.0
H944 H 0.11287 0.49898 0.15226 0.0
H945 H 0.0567 0.51041 0.14172 0.0
H946 H 0.05423 0.49155 0.05734 0.0
H947 H 0.06816 0.47133 -0.01183 0.0
H948 H 0.12462 0.46154 -0.00344 0.0
H949 H 0.12691 0.48 0.0817 0.0
C950 C 0.1001 0.49739 0.13126 0.0
C951 C 0.08497 0.50587 0.15294 0.0
C952 C 0.09883 0.48661 0.08342 0.0
C953 C 0.06853 0.504 0.12531 0.0
C954 C 0.06709 0.49312 0.07757 0.0
C955 C 0.08084 0.47305 0.00949 0.0
C956 C 0.09616 0.46491 -0.01225 0.0
C957 C 0.08212 0.48418 0.0568 0.0
C958 C 0.1127 0.46757 0.0138 0.0
C959 C 0.114 0.47817 0.06191 0.0
H960 H 0.19395 0.20689 0.09654 0.0
H961 H 0.2493 0.20327 0.04788 0.0
H962 H 0.25211 0.23539 0.052 0.0
H963 H 0.23878 0.26444 0.06367 0.0
H964 H 0.1834 0.26917 0.10991 0.0
H965 H 0.18078 0.23668 0.11329 0.0
C966 C 0.20665 0.21314 0.08739 0.0
C967 C 0.22134 0.20262 0.07147 0.0
C968 C 0.20819 0.23181 0.08927 0.0
C969 C 0.23771 0.21096 0.05975 0.0
C970 C 0.23937 0.22937 0.06213 0.0
C971 C 0.22611 0.25845 0.07486 0.0
C972 C 0.21128 0.26927 0.08604 0.0
C973 C 0.22466 0.23991 0.07591 0.0
C974 C 0.19504 0.26117 0.101 0.0
C975 C 0.19352 0.24259 0.10272 0.0
H976 H 0.02313 0.97599 0.34704 0.0
H977 H 0.03056 0.92079 0.3037 0.0
H978 H -0.00177 0.91602 0.3071 0.0
H979 H 0.96766 0.92844 0.315 0.0
H980 H 0.96138 0.98391 0.3581 0.0
H981 H 0.99347 0.98758 0.36279 0.0
C982 C 0.01772 0.96287 0.33841 0.0
C983 C 0.02917 0.94884 0.32419 0.0
C984 C -0.0007 0.96028 0.34048 0.0
C985 C 0.02197 0.93185 0.31439 0.0
C986 C 0.0035 0.92913 0.31626 0.0
C987 C 0.97336 0.94121 0.32642 0.0
C988 C 0.96214 0.95593 0.33552 0.0
C989 C 0.99199 0.94335 0.32831 0.0
C990 C 0.9697 0.97242 0.35017 0.0
C991 C 0.98806 0.97457 0.35282 0.0
H992 H 0.30069 0.76276 0.58735 0.0
H993 H 0.25278 0.76463 0.4861 0.0
H994 H 0.25045 0.73249 0.489 0.0
H995 H 0.26138 0.70396 0.52074 0.0
H996 H 0.30915 0.70089 0.62181 0.0
H997 H 0.31207 0.73335 0.61873 0.0
C998 C 0.28982 0.75609 0.56575 0.0
C999 C 0.27689 0.76616 0.53689 0.0
C1000 C 0.28841 0.73741 0.56782 0.0
C1001 C 0.26285 0.7573 0.50916 0.0
C1002 C 0.26147 0.73887 0.51068 0.0
C1003 C 0.27243 0.71032 0.54241 0.0
C1004 C 0.28496 0.69998 0.57172 0.0
C1005 C 0.27406 0.72883 0.5402 0.0
C1006 C 0.29926 0.70853 0.59905 0.0
C1007 C 0.30096 0.72709 0.59721 0.0
H1008 H 0.46682 -0.00311 0.78909 0.0
H1009 H 0.46366 0.05199 0.83929 0.0
H1010 H 0.49625 0.05367 0.84262 0.0
H1011 H 0.52568 0.0395 0.82828 0.0
H1012 H 0.52776 0.98432 0.77719 0.0
H1013 H 0.49551 0.98278 0.77719 0.0
C1014 C 0.47317 0.00932 0.80089 0.0
C1015 C 0.46277 0.02432 0.8136 0.0
C1016 C 0.49176 0.0102 0.80236 0.0
C1017 C 0.47133 0.04023 0.82922 0.0
C1018 C 0.48997 0.04121 0.831 0.0
C1019 C 0.51907 0.02714 0.81725 0.0
C1020 C 0.52923 0.01209 0.80245 0.0
C1021 C 0.50034 0.02629 0.81716 0.0
C1022 C 0.52039 -0.00383 0.78847 0.0
C1023 C 0.50189 0.99523 0.78849 0.0
H1024 H 0.18739 0.76612 0.05857 0.0
H1025 H 0.24391 0.77085 0.02772 0.0
H1026 H 0.2467 0.73875 0.02444 0.0
H1027 H 0.234 0.7095 0.03992 0.0
H1028 H 0.17782 0.70357 0.07207 0.0
H1029 H 0.1739 0.73591 0.06435 0.0
C1030 C 0.20023 0.76009 0.05033 0.0
C1031 C 0.21547 0.77089 0.0445 0.0
C1032 C 0.20184 0.74142 0.0491 0.0
C1033 C 0.23202 0.76288 0.03348 0.0
C1034 C 0.23365 0.7445 0.03146 0.0
C1035 C 0.22085 0.71526 0.04473 0.0
C1036 C 0.20629 0.70428 0.05743 0.0
C1037 C 0.21879 0.73368 0.04087 0.0
C1038 C 0.18926 0.71183 0.06241 0.0
C1039 C 0.18705 0.7303 0.05834 0.0
H1040 H 0.46882 0.97068 0.39579 0.0
H1041 H 0.46579 0.93121 0.26344 0.0
H1042 H 0.49832 0.9278 0.26621 0.0
H1043 H 0.52776 0.9376 0.30319 0.0
H1044 H 0.52953 0.97728 0.4356 0.0
H1045 H 0.49725 0.97889 0.43613 0.0
C1046 C 0.47523 0.96133 0.36732 0.0
C1047 C 0.46498 0.95144 0.32877 0.0
C1048 C 0.4937 0.95946 0.36932 0.0
C1049 C 0.47345 0.93907 0.29323 0.0
C1050 C 0.49202 0.93714 0.29481 0.0
C1051 C 0.52103 0.94641 0.33256 0.0
C1052 C 0.53106 0.95746 0.36883 0.0
C1053 C 0.50231 0.94746 0.33228 0.0
C1054 C 0.52217 0.96882 0.40671 0.0
C1055 C 0.5037 0.96976 0.4071 0.0
H1056 H 0.3031 0.20668 0.53108 0.0
H1057 H 0.24834 0.20228 0.47732 0.0
H1058 H 0.24673 0.23435 0.46466 0.0
H1059 H 0.25907 0.26363 0.48429 0.0
H1060 H 0.31322 0.26888 0.54254 0.0
H1061 H 0.31707 0.23656 0.53672 0.0
C1062 C 0.291 0.21274 0.51515 0.0
C1063 C 0.27576 0.20221 0.50614 0.0
C1064 C 0.29 0.23135 0.50944 0.0
C1065 C 0.26015 0.21018 0.48547 0.0
C1066 C 0.2592 0.22851 0.47827 0.0
C1067 C 0.27184 0.25773 0.49467 0.0
C1068 C 0.28572 0.26852 0.51489 0.0
C1069 C 0.27376 0.23924 0.49263 0.0
C1070 C 0.3023 0.2608 0.52712 0.0
C1071 C 0.30444 0.24231 0.52424 0.0
H1072 H 0.96863 -0.00188 0.84546 0.0
H1073 H 0.96408 0.05289 0.79281 0.0
H1074 H -0.00355 0.05632 0.79906 0.0
H1075 H 0.02607 0.04372 0.82127 0.0
H1076 H 0.02968 0.98888 0.87481 0.0
H1077 H -0.00237 0.98566 0.86665 0.0
C1078 C 0.97464 0.01083 0.83503 0.0
C1079 C 0.96388 0.02521 0.81866 0.0
C1080 C 0.99314 0.01275 0.83923 0.0
C1081 C 0.97202 0.04156 0.80543 0.0
C1082 C 0.99054 0.04355 0.80917 0.0
C1083 C 0.01984 0.03109 0.8313 0.0
C1084 C 0.03036 0.0166 0.84874 0.0
C1085 C 0.00124 0.02924 0.82643 0.0
C1086 C 0.02201 0.0003 0.86132 0.0
C1087 C 0.00363 -0.0016 0.85661 0.0
H1088 H 0.75571 0.70613 0.01615 0.0
H1089 H 0.81254 0.70263 0.03988 0.0
H1090 H 0.81488 0.73513 0.03625 0.0
H1091 H 0.80007 0.7646 0.03752 0.0
H1092 H 0.74302 0.76716 0.01667 0.0
H1093 H 0.74153 0.73499 0.00746 0.0
C1094 C 0.76866 0.71244 0.02 0.0
C1095 C 0.78387 0.70201 0.02921 0.0
C1096 C 0.76985 0.731 0.01869 0.0
C1097 C 0.80059 0.71038 0.03304 0.0
C1098 C 0.80192 0.72897 0.03122 0.0
C1099 C 0.7874 0.75811 0.02981 0.0
C1100 C 0.77166 0.76823 0.02856 0.0
C1101 C 0.78655 0.73944 0.02566 0.0
C1102 C 0.7553 0.75965 0.01862 0.0
C1103 C 0.75442 0.74125 0.01337 0.0
H1104 H 0.68851 0.20404 0.59547 0.0
H1105 H 0.73441 0.20195 0.70547 0.0
H1106 H 0.73488 0.23426 0.71139 0.0
H1107 H 0.72466 0.26294 0.67655 0.0
H1108 H 0.67938 0.26572 0.56453 0.0
H1109 H 0.67611 0.23332 0.56875 0.0
C1110 C 0.6984 0.21066 0.62156 0.0
C1111 C 0.71159 0.20061 0.64924 0.0
C1112 C 0.69884 0.22935 0.6239 0.0
C1113 C 0.72428 0.20938 0.68301 0.0
C1114 C 0.72458 0.22786 0.68642 0.0
C1115 C 0.71396 0.25649 0.65343 0.0
C1116 C 0.70249 0.26666 0.61948 0.0
C1117 C 0.71233 0.23796 0.6555 0.0
C1118 C 0.68845 0.25816 0.59075 0.0
C1119 C 0.68664 0.23963 0.59295 0.0
H1120 H 0.76694 0.26624 0.95483 0.0
H1121 H 0.81293 0.27115 0.06331 0.0
H1122 H 0.81589 0.23873 0.06584 0.0
H1123 H 0.8031 0.20903 0.04621 0.0
H1124 H 0.75646 0.20484 0.93995 0.0
H1125 H 0.75621 0.23694 0.92717 0.0
C1126 C 0.77774 0.26025 0.97861 0.0
C1127 C 0.7895 0.27106 0.00962 0.0
C1128 C 0.77917 0.24171 -0.01942 0.0
C1129 C 0.80363 0.2631 0.03928 0.0
C1130 C 0.80527 0.24457 0.04098 0.0
C1131 C 0.79307 0.21513 0.01953 0.0
C1132 C 0.77963 0.20458 -0.00512 0.0
C1133 C 0.79278 0.23373 0.01315 0.0
C1134 C 0.76677 0.21268 0.96021 0.0
C1135 C 0.76661 0.23104 0.95282 0.0
H1136 H 0.69033 0.71187 0.59397 0.0
H1137 H 0.74767 0.70755 0.5885 0.0
H1138 H 0.75048 0.73967 0.59446 0.0
H1139 H 0.73689 0.76896 0.59198 0.0
H1140 H 0.6797 0.77407 0.59615 0.0
H1141 H 0.67664 0.74167 0.60084 0.0
C1142 C 0.70343 0.71794 0.595 0.0
C1143 C 0.71874 0.70728 0.58997 0.0
C1144 C 0.70501 0.73657 0.5978 0.0
C1145 C 0.73563 0.7154 0.59158 0.0
C1146 C 0.73729 0.7338 0.59496 0.0
C1147 C 0.72373 0.76303 0.59439 0.0
C1148 C 0.70855 0.77388 0.59287 0.0
C1149 C 0.72208 0.7445 0.59651 0.0
C1150 C 0.69162 0.76599 0.59702 0.0
C1151 C 0.68986 0.74747 0.59946 0.0
H1152 H 0.52314 0.43133 0.84025 0.0
H1153 H 0.5279 0.48777 0.87134 0.0
H1154 H 0.49573 0.49057 0.87422 0.0
H1155 H 0.46645 0.47792 0.85713 0.0
H1156 H 0.46062 0.42177 0.82529 0.0
H1157 H 0.49295 0.41785 0.83434 0.0
C1158 C 0.51711 0.44415 0.84872 0.0
C1159 C 0.52793 0.45937 0.85452 0.0
C1160 C 0.49842 0.44577 0.84964 0.0
C1161 C 0.51991 0.47589 0.86573 0.0
C1162 C 0.50149 0.47753 0.8674 0.0
C1163 C 0.47223 0.46477 0.85274 0.0
C1164 C 0.46128 0.45021 0.83961 0.0
C1165 C 0.49066 0.4627 0.85754 0.0
C1166 C 0.46885 0.4332 0.8352 0.0
C1167 C 0.48732 0.43099 0.84007 0.0
H1168 H 0.96964 0.49703 0.38699 0.0
H1169 H 0.96568 0.55341 0.3566 0.0
H1170 H -0.00191 0.55632 0.36458 0.0
H1171 H 0.02768 0.54179 0.36452 0.0
H1172 H 0.03083 0.48509 0.39116 0.0
H1173 H -0.00136 0.48339 0.40096 0.0
C1174 C 0.97584 0.51002 0.38306 0.0
C1175 C 0.96538 0.52491 0.37008 0.0
C1176 C 0.99437 0.51149 0.38644 0.0
C1177 C 0.9735 0.54172 0.36628 0.0
C1178 C 0.99204 0.54335 0.37043 0.0
C1179 C 0.02133 0.52917 0.37391 0.0
C1180 C 0.03158 0.51354 0.37603 0.0
C1181 C 0.00266 0.52819 0.37819 0.0
C1182 C 0.0232 0.49726 0.38836 0.0
C1183 C 0.00478 0.49626 0.39391 0.0
H1184 H 0.96914 0.43643 0.78289 0.0
H1185 H 0.96606 0.49349 0.80217 0.0
H1186 H -0.00171 0.49569 0.79858 0.0
H1187 H 0.02727 0.48151 0.79833 0.0
H1188 H 0.03132 0.42454 0.78107 0.0
H1189 H -0.00118 0.42227 0.77458 0.0
C1190 C 0.97553 0.44935 0.78546 0.0
C1191 C 0.96515 0.46474 0.79351 0.0
C1192 C 0.99424 0.45056 0.78407 0.0
C1193 C 0.97366 0.48139 0.79667 0.0
C1194 C 0.99213 0.4827 0.79462 0.0
C1195 C 0.02111 0.46857 0.79274 0.0
C1196 C 0.03171 0.4532 0.79099 0.0
C1197 C 0.00254 0.46736 0.78976 0.0
C1198 C 0.02347 0.43659 0.78278 0.0
C1199 C 0.00488 0.43528 0.77931 0.0
H1200 H 0.46992 0.4973 0.34498 0.0
H1201 H 0.46486 0.55085 0.28124 0.0
H1202 H 0.49728 0.55389 0.27947 0.0
H1203 H 0.52709 0.5416 0.29924 0.0
H1204 H 0.53148 0.48802 0.36381 0.0
H1205 H 0.4993 0.48484 0.36195 0.0
C1206 C 0.47585 0.50964 0.33039 0.0
C1207 C 0.46493 0.52383 0.31346 0.0
C1208 C 0.49442 0.51134 0.32982 0.0
C1209 C 0.47293 0.53969 0.29461 0.0
C1210 C 0.49148 0.54146 0.29367 0.0
C1211 C 0.52101 0.52921 0.31266 0.0
C1212 C 0.53177 0.51512 0.33175 0.0
C1213 C 0.50237 0.52742 0.31169 0.0
C1214 C 0.52362 0.49914 0.34893 0.0
C1215 C 0.50517 0.49727 0.34795 0.0
H1216 H 0.21761 0.11847 0.23869 0.0
H1217 H 0.27102 0.12884 0.17941 0.0
H1218 H 0.28239 0.12623 0.27549 0.0
H1219 H 0.27643 0.12598 0.37766 0.0
H1220 H 0.22301 0.11569 0.43695 0.0
H1221 H 0.21258 0.11284 0.33979 0.0
C1222 C 0.23176 0.11986 0.24669 0.0
C1223 C 0.24332 0.12429 0.20217 0.0
C1224 C 0.23827 0.11846 0.30222 0.0
C1225 C 0.26172 0.12567 0.21301 0.0
C1226 C 0.26829 0.12421 0.26806 0.0
C1227 C 0.26262 0.12263 0.36938 0.0
C1228 C 0.25046 0.12157 0.4144 0.0
C1229 C 0.25658 0.12134 0.31326 0.0
C1230 C 0.23262 0.11698 0.40296 0.0
C1231 C 0.22659 0.11541 0.34735 0.0
H1232 H 0.09917 0.00512 0.47356 0.0
H1233 H 0.10575 0.94953 0.51486 0.0
H1234 H 0.11004 0.9574 0.61457 0.0
H1235 H 0.10828 0.97952 0.68994 0.0
H1236 H 0.09941 0.03482 0.64919 0.0
H1237 H 0.1 0.02754 0.54816 0.0
C1238 C 0.10164 0.99466 0.50417 0.0
C1239 C 0.10175 0.97669 0.48701 0.0
C1240 C 0.10364 -0.00077 0.56118 0.0
C1241 C 0.10539 0.96341 0.52708 0.0
C1242 C 0.10781 0.96792 0.584 0.0
C1243 C 0.10663 0.99008 0.65909 0.0
C1244 C 0.10342 0.00767 0.67708 0.0
C1245 C 0.10638 0.98571 0.60157 0.0
C1246 C 0.10173 0.02118 0.63648 0.0
C1247 C 0.10197 0.017 0.57881 0.0
H1248 H 0.25922 0.84767 0.90881 0.0
H1249 H 0.20301 0.84476 0.87084 0.0
H1250 H 0.20974 0.84485 0.7695 0.0
H1251 H 0.23158 0.84197 0.69315 0.0
H1252 H 0.2878 0.84296 0.73188 0.0
H1253 H 0.28097 0.84744 0.83206 0.0
C1254 C 0.24836 0.8473 0.87853 0.0
C1255 C 0.23062 0.84592 0.8975 0.0
C1256 C 0.25234 0.84677 0.82062 0.0
C1257 C 0.21677 0.8457 0.85749 0.0
C1258 C 0.22063 0.84564 0.79954 0.0
C1259 C 0.24239 0.84333 0.7233 0.0
C1260 C 0.2602 0.84184 0.70507 0.0
C1261 C 0.23837 0.84554 0.78082 0.0
C1262 C 0.27399 0.84387 0.74476 0.0
C1263 C 0.27009 0.84642 0.80204 0.0
H1264 H 0.38774 0.02004 -0.00194 0.0
H1265 H 0.38825 0.96641 0.93251 0.0
H1266 H 0.38736 0.95457 0.02831 0.0
H1267 H 0.39028 0.95938 0.13085 0.0
H1268 H 0.39008 0.01306 0.19602 0.0
H1269 H 0.38678 0.02477 0.10066 0.0
C1270 C 0.38734 0.00578 0.00467 0.0
C1271 C 0.38843 0.9942 0.95815 0.0
C1272 C 0.38708 -0.00103 0.06003 0.0
C1273 C 0.3877 0.97571 0.96755 0.0
C1274 C 0.38723 0.96886 0.02242 0.0
C1275 C 0.38923 0.97361 0.12426 0.0
C1276 C 0.39083 0.98528 0.17043 0.0
C1277 C 0.38753 0.98036 0.06904 0.0
C1278 C 0.38925 0.00372 0.16115 0.0
C1279 C 0.38734 0.01049 0.10656 0.0
H1280 H 0.77184 0.84997 0.88976 0.0
H1281 H 0.71771 0.85035 0.95153 0.0
H1282 H 0.70665 0.85485 0.85584 0.0
H1283 H 0.71205 0.85336 0.75344 0.0
H1284 H 0.76619 0.85286 0.69177 0.0
H1285 H 0.77739 0.85407 0.78826 0.0
C1286 C 0.75766 0.85141 0.88249 0.0
C1287 C 0.74565 0.84928 0.92755 0.0
C1288 C 0.75129 0.85377 0.8271 0.0
C1289 C 0.7273 0.85153 0.91746 0.0
C1290 C 0.7209 0.85409 0.86264 0.0
C1291 C 0.72628 0.85396 0.76103 0.0
C1292 C 0.7382 0.85248 0.7155 0.0
C1293 C 0.73273 0.85439 0.81685 0.0
C1294 C 0.75664 0.85357 0.7261 0.0
C1295 C 0.76312 0.85423 0.78137 0.0
H1296 H 0.88746 0.97347 0.66892 0.0
H1297 H 0.88319 0.0292 0.62683 0.0
H1298 H 0.87854 0.02142 0.52728 0.0
H1299 H 0.87981 -0.00078 0.45173 0.0
H1300 H 0.88642 0.94368 0.49332 0.0
H1301 H 0.8856 0.95101 0.59419 0.0
C1302 C 0.88532 0.98397 0.63821 0.0
C1303 C 0.88602 0.00195 0.65523 0.0
C1304 C 0.88313 0.97943 0.58106 0.0
C1305 C 0.88292 0.0153 0.61487 0.0
C1306 C 0.8803 0.01085 0.55794 0.0
C1307 C 0.88079 0.98862 0.48272 0.0
C1308 C 0.88351 0.97092 0.46485 0.0
C1309 C 0.88099 0.993 0.54042 0.0
C1310 C 0.88446 0.9574 0.50576 0.0
C1311 C 0.88411 0.96161 0.56346 0.0
H1312 H 0.73132 0.14806 0.21753 0.0
H1313 H 0.78772 0.14801 0.25369 0.0
H1314 H 0.78131 0.14681 0.3552 0.0
H1315 H 0.75983 0.14556 0.43282 0.0
H1316 H 0.70343 0.14511 0.39684 0.0
H1317 H 0.70981 0.14667 0.29528 0.0
C1318 C 0.74227 0.14785 0.24747 0.0
C1319 C 0.76002 0.14817 0.22792 0.0
C1320 C 0.73849 0.14702 0.30555 0.0
C1321 C 0.77397 0.14778 0.26749 0.0
C1322 C 0.77031 0.14709 0.32551 0.0
C1323 C 0.74886 0.14583 0.40293 0.0
C1324 C 0.73113 0.14525 0.42253 0.0
C1325 C 0.75263 0.14666 0.34488 0.0
C1326 C 0.71717 0.1455 0.38298 0.0
C1327 C 0.72082 0.14643 0.32496 0.0
H1328 H 0.6046 0.96047 0.14886 0.0
H1329 H 0.59152 0.01329 0.20736 0.0
H1330 H 0.59302 0.02448 0.11085 0.0
H1331 H 0.5957 0.01891 0.00886 0.0
H1332 H 0.60856 0.96605 0.95036 0.0
H1333 H 0.60973 0.95542 0.04761 0.0
C1334 C 0.60218 0.97444 0.14054 0.0
C1335 C 0.59774 0.98591 0.18524 0.0
C1336 C 0.60301 0.98086 0.0848 0.0
C1337 C 0.59485 0.00406 0.17375 0.0
C1338 C 0.5957 0.01053 0.11849 0.0
C1339 C 0.59903 0.00514 0.01744 0.0
C1340 C 0.60179 0.99329 0.97238 0.0
C1341 C 0.59945 -0.00101 0.07355 0.0
C1342 C 0.60614 0.97546 -0.01575 0.0
C1343 C 0.60679 0.96932 0.03989 0.0
H1344 H 0.73098 0.62319 0.91198 0.0
H1345 H 0.78703 0.62106 0.87143 0.0
H1346 H 0.77976 0.61807 0.77091 0.0
H1347 H 0.75787 0.62124 0.69497 0.0
H1348 H 0.70203 0.62634 0.73567 0.0
H1349 H 0.70887 0.62265 0.83617 0.0
C1350 C 0.74166 0.62179 0.88137 0.0
C1351 C 0.75957 0.62276 0.89913 0.0
C1352 C 0.73741 0.62078 0.82372 0.0
C1353 C 0.77316 0.62057 0.85891 0.0
C1354 C 0.769 0.61895 0.80141 0.0
C1355 C 0.74711 0.62123 0.7256 0.0
C1356 C 0.72948 0.62447 0.70785 0.0
C1357 C 0.75121 0.61985 0.7833 0.0
C1358 C 0.71572 0.62409 0.74814 0.0
C1359 C 0.71964 0.62208 0.80565 0.0
H1360 H 0.60751 0.47391 0.18802 0.0
H1361 H 0.61031 0.52999 0.14919 0.0
H1362 H 0.61335 0.52304 0.04859 0.0
H1363 H 0.6113 0.50145 0.97191 0.0
H1364 H 0.60594 0.44549 0.00975 0.0
H1365 H 0.60833 0.45202 0.11103 0.0
C1366 C 0.60905 0.48465 0.15774 0.0
C1367 C 0.60842 0.50248 0.17609 0.0
C1368 C 0.61029 0.48057 0.0999 0.0
C1369 C 0.61055 0.51618 0.1362 0.0
C1370 C 0.61228 0.51221 0.07868 0.0
C1371 C 0.61091 0.49058 0.00209 0.0
C1372 C 0.60813 0.47301 -0.01679 0.0
C1373 C 0.61156 0.4945 0.06003 0.0
C1374 C 0.60795 0.45914 0.02306 0.0
C1375 C 0.60918 0.46289 0.08099 0.0
H1376 H 0.75879 0.32881 0.4204 0.0
H1377 H 0.7029 0.32842 0.37718 0.0
H1378 H 0.71057 0.3306 0.27659 0.0
H1379 H 0.73306 0.3313 0.20169 0.0
H1380 H 0.78895 0.33173 0.24495 0.0
H1381 H 0.78126 0.33101 0.34571 0.0
C1382 C 0.74823 0.32918 0.38908 0.0
C1383 C 0.73026 0.32822 0.40623 0.0
C1384 C 0.75273 0.33046 0.33167 0.0
C1385 C 0.7168 0.32905 0.3651 0.0
C1386 C 0.72119 0.33028 0.30766 0.0
C1387 C 0.74362 0.33126 0.23304 0.0
C1388 C 0.7616 0.33136 0.21578 0.0
C1389 C 0.7391 0.33078 0.29057 0.0
C1390 C 0.77504 0.33161 0.25707 0.0
C1391 C 0.77064 0.33114 0.3146 0.0
H1392 H 0.88348 0.45819 0.63607 0.0
H1393 H 0.88189 0.51255 0.695 0.0
H1394 H 0.87927 0.52311 0.59807 0.0
H1395 H 0.88331 0.5172 0.4968 0.0
H1396 H 0.88538 0.46286 0.43788 0.0
H1397 H 0.8815 0.45212 0.53426 0.0
C1398 C 0.88215 0.47231 0.62783 0.0
C1399 C 0.88348 0.48454 0.67256 0.0
C1400 C 0.88094 0.47838 0.57181 0.0
C1401 C 0.88133 0.5028 0.66124 0.0
C1402 C 0.87986 0.50891 0.60572 0.0
C1403 C 0.88247 0.50302 0.50483 0.0
C1404 C 0.88524 0.49089 0.46053 0.0
C1405 C 0.88059 0.49687 0.56059 0.0
C1406 C 0.88375 0.47254 0.47149 0.0
C1407 C 0.88156 0.46634 0.52667 0.0
H1408 H 0.21731 0.35322 0.24802 0.0
H1409 H 0.27058 0.34557 0.18364 0.0
H1410 H 0.28268 0.34841 0.27863 0.0
H1411 H 0.27756 0.34724 0.38125 0.0
H1412 H 0.22432 0.35454 0.44577 0.0
H1413 H 0.21298 0.35817 0.34987 0.0
C1414 C 0.23159 0.35256 0.2546 0.0
C1415 C 0.2429 0.34861 0.209 0.0
C1416 C 0.23854 0.35401 0.30963 0.0
C1417 C 0.26144 0.34818 0.21813 0.0
C1418 C 0.26844 0.34981 0.27257 0.0
C1419 C 0.2636 0.35022 0.3744 0.0
C1420 C 0.25174 0.3501 0.42028 0.0
C1421 C 0.25704 0.35185 0.31894 0.0
C1422 C 0.23368 0.35415 0.41086 0.0
C1423 C 0.22714 0.35615 0.356 0.0
H1424 H 0.38276 0.4647 -0.00768 0.0
H1425 H 0.39253 0.5175 0.92733 0.0
H1426 H 0.39082 0.52971 0.02255 0.0
H1427 H 0.39095 0.52483 0.12548 0.0
H1428 H 0.3815 0.47195 0.19018 0.0
H1429 H 0.3784 0.46055 0.09429 0.0
C1430 C 0.38419 0.47891 -0.00117 0.0
C1431 C 0.38819 0.49003 0.95285 0.0
C1432 C 0.38342 0.4859 0.05393 0.0
C1433 C 0.38974 0.5085 0.96204 0.0
C1434 C 0.38879 0.51556 0.0166 0.0
C1435 C 0.38783 0.5109 0.11859 0.0
C1436 C 0.3869 0.49923 0.16484 0.0
C1437 C 0.38633 0.50429 0.0631 0.0
C1438 C 0.38268 0.48121 0.15522 0.0
C1439 C 0.3809 0.47462 0.10034 0.0
H1440 H 0.22034 0.62656 0.90072 0.0
H1441 H 0.27342 0.63278 0.9683 0.0
H1442 H 0.28601 0.62939 0.87409 0.0
H1443 H 0.28183 0.6285 0.77101 0.0
H1444 H 0.22875 0.62246 0.70333 0.0
H1445 H 0.21648 0.62166 0.79862 0.0
C1446 C 0.23466 0.62687 0.89498 0.0
C1447 C 0.24582 0.6303 0.94144 0.0
C1448 C 0.24191 0.62509 0.84037 0.0
C1449 C 0.26441 0.63046 0.93322 0.0
C1450 C 0.27169 0.62853 0.87924 0.0
C1451 C 0.26763 0.62667 0.77713 0.0
C1452 C 0.25625 0.62593 0.73003 0.0
C1453 C 0.26054 0.62644 0.83223 0.0
C1454 C 0.23785 0.62339 0.7388 0.0
C1455 C 0.23076 0.62294 0.79337 0.0
H1456 H 0.11292 0.51637 0.50016 0.0
H1457 H 0.11732 0.46227 0.44043 0.0
H1458 H 0.11994 0.45166 0.53737 0.0
H1459 H 0.11494 0.4572 0.63865 0.0
H1460 H 0.11022 0.51135 0.69793 0.0
H1461 H 0.11405 0.52235 0.60198 0.0
C1462 C 0.11495 0.50232 0.50821 0.0
C1463 C 0.1143 0.49012 0.46328 0.0
C1464 C 0.11606 0.4962 0.5642 0.0
C1465 C 0.11732 0.47197 0.47439 0.0
C1466 C 0.11875 0.46583 0.52991 0.0
C1467 C 0.11513 0.47141 0.63076 0.0
C1468 C 0.11169 0.48335 0.67512 0.0
C1469 C 0.11713 0.47773 0.57519 0.0
C1470 C 0.11238 0.50177 0.66435 0.0
C1471 C 0.11458 0.50814 0.6094 0.0
loop_
_geom_bond_atom_site_label_1
_geom_bond_atom_site_label_2
_geom_bond_distance
_geom_bond_site_symmetry_2
_ccdc_geom_bond_type
C0 O1 1.306 . S
C0 O3 1.160 . S
O1 C0 1.306 . S
O1 Cd2 2.228 . S
Cd2 O1 2.228 . S
Cd2 O6 2.273 . S
Cd2 O10 2.277 . S
O3 C0 1.160 . S
O3 Cd4 2.203 . S
Cd4 O3 2.203 . S
Cd4 O6 2.411 . S
Cd4 O7 2.333 1_554 S
Cd4 O8 2.352 . S
Cd4 O12 2.277 . S
Cd4 O13 2.356 . S
C5 O10 1.209 . S
C5 O12 1.226 . S
O6 Cd2 2.273 . S
O6 Cd4 2.411 . S
O6 C9 1.320 1_554 S
O7 Cd4 2.333 1_556 S
O7 C9 1.214 . S
O8 Cd4 2.352 . S
O8 C11 1.258 . S
C9 O6 1.320 1_556 S
C9 O7 1.214 . S
O10 Cd2 2.277 . S
O10 C5 1.209 . S
C11 O8 1.258 . S
C11 O13 1.282 . S
O12 Cd4 2.277 . S
O12 C5 1.226 . S
O13 Cd4 2.356 . S
O13 C11 1.282 . S
C14 O15 1.306 . S
C14 O17 1.160 . S
O15 C14 1.306 . S
O15 Cd16 2.228 . S
Cd16 O15 2.228 . S
Cd16 O20 2.273 . S
Cd16 O24 2.277 . S
O17 C14 1.160 . S
O17 Cd18 2.203 . S
Cd18 O17 2.203 . S
Cd18 O20 2.411 . S
Cd18 O21 2.333 . S
Cd18 O22 2.352 . S
Cd18 O26 2.277 . S
Cd18 O27 2.356 . S
C19 O24 1.209 . S
C19 O26 1.226 . S
O20 Cd16 2.273 . S
O20 Cd18 2.411 . S
O20 C23 1.320 . S
O21 Cd18 2.333 . S
O21 C23 1.214 . S
O22 Cd18 2.352 . S
O22 C25 1.258 . S
C23 O20 1.320 . S
C23 O21 1.214 . S
O24 Cd16 2.277 . S
O24 C19 1.209 . S
C25 O22 1.258 . S
C25 O27 1.282 . S
O26 Cd18 2.277 . S
O26 C19 1.226 . S
O27 Cd18 2.356 . S
O27 C25 1.282 . S
C28 O29 1.306 . S
C28 O31 1.160 . S
O29 C28 1.306 . S
O29 Cd30 2.228 . S
Cd30 O29 2.228 . S
Cd30 O34 2.273 . S
Cd30 O38 2.277 . S
O31 C28 1.160 . S
O31 Cd32 2.203 . S
Cd32 O31 2.203 . S
Cd32 O34 2.411 . S
Cd32 O35 2.333 . S
Cd32 O36 2.352 . S
Cd32 O40 2.277 . S
Cd32 O41 2.356 . S
C33 O38 1.209 . S
C33 O40 1.226 . S
O34 Cd30 2.273 . S
O34 Cd32 2.411 . S
O34 C37 1.320 . S
O35 Cd32 2.333 . S
O35 C37 1.214 . S
O36 Cd32 2.352 . S
O36 C39 1.258 . S
C37 O34 1.320 . S
C37 O35 1.214 . S
O38 Cd30 2.277 . S
O38 C33 1.209 . S
C39 O36 1.258 . S
C39 O41 1.282 . S
O40 Cd32 2.277 . S
O40 C33 1.226 . S
O41 Cd32 2.356 . S
O41 C39 1.282 . S
C42 O43 1.289 1_545 S
C42 O45 1.160 . S
O43 C42 1.289 1_565 S
O43 Cd44 2.235 . S
Cd44 O43 2.235 . S
Cd44 O48 2.273 1_565 S
Cd44 O52 2.277 1_565 S
O45 C42 1.160 . S
O45 Cd46 2.203 . S
Cd46 O45 2.203 . S
Cd46 O48 2.411 . S
Cd46 O49 2.333 . S
Cd46 O50 2.352 . S
Cd46 O54 2.277 . S
Cd46 O55 2.356 . S
C47 O52 1.209 . S
C47 O54 1.226 . S
O48 Cd44 2.273 1_545 S
O48 Cd46 2.411 . S
O48 C51 1.320 . S
O49 Cd46 2.333 . S
O49 C51 1.214 . S
O50 Cd46 2.352 . S
O50 C53 1.258 . S
C51 O48 1.320 . S
C51 O49 1.214 . S
O52 Cd44 2.277 1_545 S
O52 C47 1.209 . S
C53 O50 1.258 . S
C53 O55 1.282 . S
O54 Cd46 2.277 . S
O54 C47 1.226 . S
O55 Cd46 2.356 . S
O55 C53 1.282 . S
C56 O57 1.306 . S
C56 O59 1.160 . S
O57 C56 1.306 . S
O57 Cd58 2.228 . S
Cd58 O57 2.228 . S
Cd58 O62 2.273 . S
Cd58 O66 2.277 . S
O59 C56 1.160 . S
O59 Cd60 2.203 . S
Cd60 O59 2.203 . S
Cd60 O62 2.411 . S
Cd60 O63 2.333 . S
Cd60 O64 2.352 . S
Cd60 O68 2.277 . S
Cd60 O69 2.356 . S
C61 O66 1.209 . S
C61 O68 1.226 . S
O62 Cd58 2.273 . S
O62 Cd60 2.411 . S
O62 C65 1.320 . S
O63 Cd60 2.333 . S
O63 C65 1.214 . S
O64 Cd60 2.352 . S
O64 C67 1.258 . S
C65 O62 1.320 . S
C65 O63 1.214 . S
O66 Cd58 2.277 . S
O66 C61 1.209 . S
C67 O64 1.258 . S
C67 O69 1.282 . S
O68 Cd60 2.277 . S
O68 C61 1.226 . S
O69 Cd60 2.356 . S
O69 C67 1.282 . S
C70 O71 1.306 . S
C70 O73 1.160 . S
O71 C70 1.306 . S
O71 Cd72 2.228 . S
Cd72 O71 2.228 . S
Cd72 O76 2.273 . S
Cd72 O80 2.277 . S
O73 C70 1.160 . S
O73 Cd74 2.203 . S
Cd74 O73 2.203 . S
Cd74 O76 2.411 . S
Cd74 O77 2.333 . S
Cd74 O78 2.352 . S
Cd74 O82 2.277 . S
Cd74 O83 2.356 . S
C75 O80 1.209 . S
C75 O82 1.226 . S
O76 Cd72 2.273 . S
O76 Cd74 2.411 . S
O76 C79 1.320 . S
O77 Cd74 2.333 . S
O77 C79 1.214 . S
O78 Cd74 2.352 . S
O78 C81 1.258 . S
C79 O76 1.320 . S
C79 O77 1.214 . S
O80 Cd72 2.277 . S
O80 C75 1.209 . S
C81 O78 1.258 . S
C81 O83 1.282 . S
O82 Cd74 2.277 . S
O82 C75 1.226 . S
O83 Cd74 2.356 . S
O83 C81 1.282 . S
C84 O85 1.306 . S
C84 O87 1.160 . S
O85 C84 1.306 . S
O85 Cd86 2.228 . S
Cd86 O85 2.228 . S
Cd86 O90 2.273 . S
Cd86 O94 2.277 . S
O87 C84 1.160 . S
O87 Cd88 2.203 . S
Cd88 O87 2.203 . S
Cd88 O90 2.411 . S
Cd88 O91 2.333 . S
Cd88 O92 2.352 . S
Cd88 O96 2.277 . S
Cd88 O97 2.356 . S
C89 O94 1.209 . S
C89 O96 1.226 . S
O90 Cd86 2.273 . S
O90 Cd88 2.411 . S
O90 C93 1.320 . S
O91 Cd88 2.333 . S
O91 C93 1.214 . S
O92 Cd88 2.352 . S
O92 C95 1.258 . S
C93 O90 1.320 . S
C93 O91 1.214 . S
O94 Cd86 2.277 . S
O94 C89 1.209 . S
C95 O92 1.258 . S
C95 O97 1.282 . S
O96 Cd88 2.277 . S
O96 C89 1.226 . S
O97 Cd88 2.356 . S
O97 C95 1.282 . S
C98 O99 1.289 1_545 S
C98 O101 1.160 . S
O99 C98 1.289 1_565 S
O99 Cd100 2.235 . S
Cd100 O99 2.235 . S
Cd100 O104 2.273 1_565 S
Cd100 O108 2.277 1_565 S
O101 C98 1.160 . S
O101 Cd102 2.203 . S
Cd102 O101 2.203 . S
Cd102 O104 2.411 . S
Cd102 O105 2.333 . S
Cd102 O106 2.352 . S
Cd102 O110 2.277 . S
Cd102 O111 2.356 . S
C103 O108 1.209 . S
C103 O110 1.226 . S
O104 Cd100 2.273 1_545 S
O104 Cd102 2.411 . S
O104 C107 1.320 . S
O105 Cd102 2.333 . S
O105 C107 1.214 . S
O106 Cd102 2.352 . S
O106 C109 1.258 . S
C107 O104 1.320 . S
C107 O105 1.214 . S
O108 Cd100 2.277 1_545 S
O108 C103 1.209 . S
C109 O106 1.258 . S
C109 O111 1.282 . S
O110 Cd102 2.277 . S
O110 C103 1.226 . S
O111 Cd102 2.356 . S
O111 C109 1.282 . S
C112 O113 1.306 . S
C112 O115 1.160 . S
O113 C112 1.306 . S
O113 Cd114 2.228 . S
Cd114 O113 2.228 . S
Cd114 O118 2.273 . S
Cd114 O122 2.277 . S
O115 C112 1.160 . S
O115 Cd116 2.203 . S
Cd116 O115 2.203 . S
Cd116 O118 2.411 . S
Cd116 O119 2.333 . S
Cd116 O120 2.352 . S
Cd116 O124 2.277 . S
Cd116 O125 2.356 . S
C117 O122 1.209 . S
C117 O124 1.226 . S
O118 Cd114 2.273 . S
O118 Cd116 2.411 . S
O118 C121 1.320 . S
O119 Cd116 2.333 . S
O119 C121 1.214 . S
O120 Cd116 2.352 . S
O120 C123 1.258 . S
C121 O118 1.320 . S
C121 O119 1.214 . S
O122 Cd114 2.277 . S
O122 C117 1.209 . S
C123 O120 1.258 . S
C123 O125 1.282 . S
O124 Cd116 2.277 . S
O124 C117 1.226 . S
O125 Cd116 2.356 . S
O125 C123 1.282 . S
C126 O127 1.289 1_545 S
C126 O129 1.160 . S
O127 C126 1.289 1_565 S
O127 Cd128 2.235 . S
Cd128 O127 2.235 . S
Cd128 O132 2.273 1_565 S
Cd128 O136 2.277 1_565 S
O129 C126 1.160 . S
O129 Cd130 2.203 . S
Cd130 O129 2.203 . S
Cd130 O132 2.411 . S
Cd130 O133 2.333 . S
Cd130 O134 2.352 . S
Cd130 O138 2.277 . S
Cd130 O139 2.356 . S
C131 O136 1.209 . S
C131 O138 1.226 . S
O132 Cd128 2.273 1_545 S
O132 Cd130 2.411 . S
O132 C135 1.320 . S
O133 Cd130 2.333 . S
O133 C135 1.214 . S
O134 Cd130 2.352 . S
O134 C137 1.258 . S
C135 O132 1.320 . S
C135 O133 1.214 . S
O136 Cd128 2.277 1_545 S
O136 C131 1.209 . S
C137 O134 1.258 . S
C137 O139 1.282 . S
O138 Cd130 2.277 . S
O138 C131 1.226 . S
O139 Cd130 2.356 . S
O139 C137 1.282 . S
C140 O141 1.306 . S
C140 O143 1.160 . S
O141 C140 1.306 . S
O141 Cd142 2.228 . S
Cd142 O141 2.228 . S
Cd142 O146 2.273 . S
Cd142 O150 2.277 . S
O143 C140 1.160 . S
O143 Cd144 2.203 . S
Cd144 O143 2.203 . S
Cd144 O146 2.411 . S
Cd144 O147 2.333 . S
Cd144 O148 2.352 . S
Cd144 O152 2.277 . S
Cd144 O153 2.356 . S
C145 O150 1.209 . S
C145 O152 1.226 . S
O146 Cd142 2.273 . S
O146 Cd144 2.411 . S
O146 C149 1.320 . S
O147 Cd144 2.333 . S
O147 C149 1.214 . S
O148 Cd144 2.352 . S
O148 C151 1.258 . S
C149 O146 1.320 . S
C149 O147 1.214 . S
O150 Cd142 2.277 . S
O150 C145 1.209 . S
C151 O148 1.258 . S
C151 O153 1.282 . S
O152 Cd144 2.277 . S
O152 C145 1.226 . S
O153 Cd144 2.356 . S
O153 C151 1.282 . S
C154 O155 1.306 . S
C154 O157 1.160 . S
O155 C154 1.306 . S
O155 Cd156 2.228 . S
Cd156 O155 2.228 . S
Cd156 O160 2.273 . S
Cd156 O164 2.277 . S
O157 C154 1.160 . S
O157 Cd158 2.203 . S
Cd158 O157 2.203 . S
Cd158 O160 2.411 . S
Cd158 O161 2.333 . S
Cd158 O162 2.352 . S
Cd158 O166 2.277 . S
Cd158 O167 2.356 . S
C159 O164 1.209 . S
C159 O166 1.226 . S
O160 Cd156 2.273 . S
O160 Cd158 2.411 . S
O160 C163 1.320 . S
O161 Cd158 2.333 . S
O161 C163 1.214 . S
O162 Cd158 2.352 . S
O162 C165 1.258 . S
C163 O160 1.320 . S
C163 O161 1.214 . S
O164 Cd156 2.277 . S
O164 C159 1.209 . S
C165 O162 1.258 . S
C165 O167 1.282 . S
O166 Cd158 2.277 . S
O166 C159 1.226 . S
O167 Cd158 2.356 . S
O167 C165 1.282 . S
C168 O169 1.306 . S
C168 O171 1.160 . S
O169 C168 1.306 . S
O169 Cd170 2.228 . S
Cd170 O169 2.228 . S
Cd170 O174 2.273 . S
Cd170 O178 2.277 . S
O171 C168 1.160 . S
O171 Cd172 2.203 . S
Cd172 O171 2.203 . S
Cd172 O174 2.411 . S
Cd172 O175 2.333 1_554 S
Cd172 O176 2.352 . S
Cd172 O180 2.277 . S
Cd172 O181 2.356 . S
C173 O178 1.209 . S
C173 O180 1.226 . S
O174 Cd170 2.273 . S
O174 Cd172 2.411 . S
O174 C177 1.320 1_554 S
O175 Cd172 2.333 1_556 S
O175 C177 1.214 . S
O176 Cd172 2.352 . S
O176 C179 1.258 . S
C177 O174 1.320 1_556 S
C177 O175 1.214 . S
O178 Cd170 2.277 . S
O178 C173 1.209 . S
C179 O176 1.258 . S
C179 O181 1.282 . S
O180 Cd172 2.277 . S
O180 C173 1.226 . S
O181 Cd172 2.356 . S
O181 C179 1.282 . S
C182 O183 1.289 1_545 S
C182 O185 1.160 . S
O183 C182 1.289 1_565 S
O183 Cd184 2.235 . S
Cd184 O183 2.235 . S
Cd184 O188 2.273 1_565 S
Cd184 O192 2.277 1_565 S
O185 C182 1.160 . S
O185 Cd186 2.203 . S
Cd186 O185 2.203 . S
Cd186 O188 2.411 . S
Cd186 O189 2.333 . S
Cd186 O190 2.352 . S
Cd186 O194 2.277 . S
Cd186 O195 2.356 . S
C187 O192 1.209 . S
C187 O194 1.226 . S
O188 Cd184 2.273 1_545 S
O188 Cd186 2.411 . S
O188 C191 1.320 . S
O189 Cd186 2.333 . S
O189 C191 1.214 . S
O190 Cd186 2.352 . S
O190 C193 1.258 . S
C191 O188 1.320 . S
C191 O189 1.214 . S
O192 Cd184 2.277 1_545 S
O192 C187 1.209 . S
C193 O190 1.258 . S
C193 O195 1.282 . S
O194 Cd186 2.277 . S
O194 C187 1.226 . S
O195 Cd186 2.356 . S
O195 C193 1.282 . S
C196 O197 1.306 . S
C196 O199 1.160 . S
O197 C196 1.306 . S
O197 Cd198 2.228 . S
Cd198 O197 2.228 . S
Cd198 O202 2.273 . S
Cd198 O206 2.277 . S
O199 C196 1.160 . S
O199 Cd200 2.203 . S
Cd200 O199 2.203 . S
Cd200 O202 2.411 . S
Cd200 O203 2.333 . S
Cd200 O204 2.352 . S
Cd200 O208 2.277 . S
Cd200 O209 2.356 . S
C201 O206 1.209 . S
C201 O208 1.226 . S
O202 Cd198 2.273 . S
O202 Cd200 2.411 . S
O202 C205 1.320 . S
O203 Cd200 2.333 . S
O203 C205 1.214 . S
O204 Cd200 2.352 . S
O204 C207 1.258 . S
C205 O202 1.320 . S
C205 O203 1.214 . S
O206 Cd198 2.277 . S
O206 C201 1.209 . S
C207 O204 1.258 . S
C207 O209 1.282 . S
O208 Cd200 2.277 . S
O208 C201 1.226 . S
O209 Cd200 2.356 . S
O209 C207 1.282 . S
C210 O211 1.306 . S
C210 O213 1.160 . S
O211 C210 1.306 . S
O211 Cd212 2.228 . S
Cd212 O211 2.228 . S
Cd212 O216 2.273 . S
Cd212 O220 2.277 . S
O213 C210 1.160 . S
O213 Cd214 2.203 . S
Cd214 O213 2.203 . S
Cd214 O216 2.411 . S
Cd214 O217 2.333 . S
Cd214 O218 2.352 . S
Cd214 O222 2.277 . S
Cd214 O223 2.356 . S
C215 O220 1.209 . S
C215 O222 1.226 . S
O216 Cd212 2.273 . S
O216 Cd214 2.411 . S
O216 C219 1.320 . S
O217 Cd214 2.333 . S
O217 C219 1.214 . S
O218 Cd214 2.352 . S
O218 C221 1.258 . S
C219 O216 1.320 . S
C219 O217 1.214 . S
O220 Cd212 2.277 . S
O220 C215 1.209 . S
C221 O218 1.258 . S
C221 O223 1.282 . S
O222 Cd214 2.277 . S
O222 C215 1.226 . S
O223 Cd214 2.356 . S
O223 C221 1.282 . S
C224 O225 1.306 . S
C224 O227 1.160 . S
O225 C224 1.306 . S
O225 Cd226 2.228 . S
Cd226 O225 2.228 . S
Cd226 O230 2.273 . S
Cd226 O234 2.277 . S
O227 C224 1.160 . S
O227 Cd228 2.203 . S
Cd228 O227 2.203 . S
Cd228 O230 2.411 . S
Cd228 O231 2.333 . S
Cd228 O232 2.352 . S
Cd228 O236 2.277 . S
Cd228 O237 2.356 . S
C229 O234 1.209 . S
C229 O236 1.226 . S
O230 Cd226 2.273 . S
O230 Cd228 2.411 . S
O230 C233 1.320 . S
O231 Cd228 2.333 . S
O231 C233 1.214 . S
O232 Cd228 2.352 . S
O232 C235 1.258 . S
C233 O230 1.320 . S
C233 O231 1.214 . S
O234 Cd226 2.277 . S
O234 C229 1.209 . S
C235 O232 1.258 . S
C235 O237 1.282 . S
O236 Cd228 2.277 . S
O236 C229 1.226 . S
O237 Cd228 2.356 . S
O237 C235 1.282 . S
C238 O239 1.306 . S
C238 O241 1.160 . S
O239 C238 1.306 . S
O239 Cd240 2.228 . S
Cd240 O239 2.228 . S
Cd240 O244 2.273 . S
Cd240 O248 2.277 . S
O241 C238 1.160 . S
O241 Cd242 2.203 . S
Cd242 O241 2.203 . S
Cd242 O244 2.411 . S
Cd242 O245 2.333 . S
Cd242 O246 2.352 . S
Cd242 O250 2.277 . S
Cd242 O251 2.356 . S
C243 O248 1.209 . S
C243 O250 1.226 . S
O244 Cd240 2.273 . S
O244 Cd242 2.411 . S
O244 C247 1.320 . S
O245 Cd242 2.333 . S
O245 C247 1.214 . S
O246 Cd242 2.352 . S
O246 C249 1.258 . S
C247 O244 1.320 . S
C247 O245 1.214 . S
O248 Cd240 2.277 . S
O248 C243 1.209 . S
C249 O246 1.258 . S
C249 O251 1.282 . S
O250 Cd242 2.277 . S
O250 C243 1.226 . S
O251 Cd242 2.356 . S
O251 C249 1.282 . S
C252 O253 1.306 . S
C252 O255 1.160 . S
O253 C252 1.306 . S
O253 Cd254 2.228 . S
Cd254 O253 2.228 . S
Cd254 O258 2.273 . S
Cd254 O262 2.277 . S
O255 C252 1.160 . S
O255 Cd256 2.203 . S
Cd256 O255 2.203 . S
Cd256 O258 2.411 . S
Cd256 O259 2.333 1_554 S
Cd256 O260 2.352 . S
Cd256 O264 2.277 . S
Cd256 O265 2.356 . S
C257 O262 1.209 . S
C257 O264 1.226 . S
O258 Cd254 2.273 . S
O258 Cd256 2.411 . S
O258 C261 1.320 1_554 S
O259 Cd256 2.333 1_556 S
O259 C261 1.214 . S
O260 Cd256 2.352 . S
O260 C263 1.258 . S
C261 O258 1.320 1_556 S
C261 O259 1.214 . S
O262 Cd254 2.277 . S
O262 C257 1.209 . S
C263 O260 1.258 . S
C263 O265 1.282 . S
O264 Cd256 2.277 . S
O264 C257 1.226 . S
O265 Cd256 2.356 . S
O265 C263 1.282 . S
C266 O267 1.306 . S
C266 O269 1.160 . S
O267 C266 1.306 . S
O267 Cd268 2.228 . S
Cd268 O267 2.228 . S
Cd268 O272 2.273 . S
Cd268 O276 2.277 . S
O269 C266 1.160 . S
O269 Cd270 2.203 . S
Cd270 O269 2.203 . S
Cd270 O272 2.411 . S
Cd270 O273 2.333 . S
Cd270 O274 2.352 . S
Cd270 O278 2.277 . S
Cd270 O279 2.356 . S
C271 O276 1.209 . S
C271 O278 1.226 . S
O272 Cd268 2.273 . S
O272 Cd270 2.411 . S
O272 C275 1.320 . S
O273 Cd270 2.333 . S
O273 C275 1.214 . S
O274 Cd270 2.352 . S
O274 C277 1.258 . S
C275 O272 1.320 . S
C275 O273 1.214 . S
O276 Cd268 2.277 . S
O276 C271 1.209 . S
C277 O274 1.258 . S
C277 O279 1.282 . S
O278 Cd270 2.277 . S
O278 C271 1.226 . S
O279 Cd270 2.356 . S
O279 C277 1.282 . S
C280 O281 1.306 . S
C280 O283 1.160 . S
O281 C280 1.306 . S
O281 Cd282 2.228 . S
Cd282 O281 2.228 . S
Cd282 O286 2.273 . S
Cd282 O290 2.277 . S
O283 C280 1.160 . S
O283 Cd284 2.203 . S
Cd284 O283 2.203 . S
Cd284 O286 2.411 . S
Cd284 O287 2.333 . S
Cd284 O288 2.352 . S
Cd284 O292 2.277 . S
Cd284 O293 2.356 . S
C285 O290 1.209 . S
C285 O292 1.226 . S
O286 Cd282 2.273 . S
O286 Cd284 2.411 . S
O286 C289 1.320 . S
O287 Cd284 2.333 . S
O287 C289 1.214 . S
O288 Cd284 2.352 . S
O288 C291 1.258 . S
C289 O286 1.320 . S
C289 O287 1.214 . S
O290 Cd282 2.277 . S
O290 C285 1.209 . S
C291 O288 1.258 . S
C291 O293 1.282 . S
O292 Cd284 2.277 . S
O292 C285 1.226 . S
O293 Cd284 2.356 . S
O293 C291 1.282 . S
C294 O295 1.306 . S
C294 O297 1.160 . S
O295 C294 1.306 . S
O295 Cd296 2.228 . S
Cd296 O295 2.228 . S
Cd296 O300 2.273 . S
Cd296 O304 2.277 . S
O297 C294 1.160 . S
O297 Cd298 2.203 . S
Cd298 O297 2.203 . S
Cd298 O300 2.411 . S
Cd298 O301 2.333 . S
Cd298 O302 2.352 . S
Cd298 O306 2.277 . S
Cd298 O307 2.356 . S
C299 O304 1.209 . S
C299 O306 1.226 . S
O300 Cd296 2.273 . S
O300 Cd298 2.411 . S
O300 C303 1.320 . S
O301 Cd298 2.333 . S
O301 C303 1.214 . S
O302 Cd298 2.352 . S
O302 C305 1.258 . S
C303 O300 1.320 . S
C303 O301 1.214 . S
O304 Cd296 2.277 . S
O304 C299 1.209 . S
C305 O302 1.258 . S
C305 O307 1.282 . S
O306 Cd298 2.277 . S
O306 C299 1.226 . S
O307 Cd298 2.356 . S
O307 C305 1.282 . S
C308 O309 1.306 . S
C308 O311 1.160 . S
O309 C308 1.306 . S
O309 Cd310 2.228 . S
Cd310 O309 2.228 . S
Cd310 O314 2.273 . S
Cd310 O318 2.277 . S
O311 C308 1.160 . S
O311 Cd312 2.203 . S
Cd312 O311 2.203 . S
Cd312 O314 2.411 . S
Cd312 O315 2.333 . S
Cd312 O316 2.352 . S
Cd312 O320 2.277 . S
Cd312 O321 2.356 . S
C313 O318 1.209 . S
C313 O320 1.226 . S
O314 Cd310 2.273 . S
O314 Cd312 2.411 . S
O314 C317 1.320 . S
O315 Cd312 2.333 . S
O315 C317 1.214 . S
O316 Cd312 2.352 . S
O316 C319 1.258 . S
C317 O314 1.320 . S
C317 O315 1.214 . S
O318 Cd310 2.277 . S
O318 C313 1.209 . S
C319 O316 1.258 . S
C319 O321 1.282 . S
O320 Cd312 2.277 . S
O320 C313 1.226 . S
O321 Cd312 2.356 . S
O321 C319 1.282 . S
C322 O323 1.306 . S
C322 O325 1.160 . S
O323 C322 1.306 . S
O323 Cd324 2.228 . S
Cd324 O323 2.228 . S
Cd324 O328 2.273 . S
Cd324 O332 2.277 . S
O325 C322 1.160 . S
O325 Cd326 2.203 . S
Cd326 O325 2.203 . S
Cd326 O328 2.411 . S
Cd326 O329 2.333 . S
Cd326 O330 2.352 . S
Cd326 O334 2.277 . S
Cd326 O335 2.356 . S
C327 O332 1.209 . S
C327 O334 1.226 . S
O328 Cd324 2.273 . S
O328 Cd326 2.411 . S
O328 C331 1.320 . S
O329 Cd326 2.333 . S
O329 C331 1.214 . S
O330 Cd326 2.352 . S
O330 C333 1.258 . S
C331 O328 1.320 . S
C331 O329 1.214 . S
O332 Cd324 2.277 . S
O332 C327 1.209 . S
C333 O330 1.258 . S
C333 O335 1.282 . S
O334 Cd326 2.277 . S
O334 C327 1.226 . S
O335 Cd326 2.356 . S
O335 C333 1.282 . S
C336 O337 1.306 . S
C336 O339 1.160 . S
O337 C336 1.306 . S
O337 Cd338 2.228 . S
Cd338 O337 2.228 . S
Cd338 O342 2.273 . S
Cd338 O346 2.277 . S
O339 C336 1.160 . S
O339 Cd340 2.203 . S
Cd340 O339 2.203 . S
Cd340 O342 2.411 . S
Cd340 O343 2.333 . S
Cd340 O344 2.352 . S
Cd340 O348 2.277 . S
Cd340 O349 2.356 . S
C341 O346 1.209 . S
C341 O348 1.226 . S
O342 Cd338 2.273 . S
O342 Cd340 2.411 . S
O342 C345 1.320 . S
O343 Cd340 2.333 . S
O343 C345 1.214 . S
O344 Cd340 2.352 . S
O344 C347 1.258 . S
C345 O342 1.320 . S
C345 O343 1.214 . S
O346 Cd338 2.277 . S
O346 C341 1.209 . S
C347 O344 1.258 . S
C347 O349 1.282 . S
O348 Cd340 2.277 . S
O348 C341 1.226 . S
O349 Cd340 2.356 . S
O349 C347 1.282 . S
C350 O351 1.306 . S
C350 O353 1.160 . S
O351 C350 1.306 . S
O351 Cd352 2.228 . S
Cd352 O351 2.228 . S
Cd352 O356 2.273 . S
Cd352 O360 2.277 . S
O353 C350 1.160 . S
O353 Cd354 2.203 . S
Cd354 O353 2.203 . S
Cd354 O356 2.411 . S
Cd354 O357 2.333 . S
Cd354 O358 2.352 . S
Cd354 O362 2.277 . S
Cd354 O363 2.356 . S
C355 O360 1.209 . S
C355 O362 1.226 . S
O356 Cd352 2.273 . S
O356 Cd354 2.411 . S
O356 C359 1.320 . S
O357 Cd354 2.333 . S
O357 C359 1.214 . S
O358 Cd354 2.352 . S
O358 C361 1.258 . S
C359 O356 1.320 . S
C359 O357 1.214 . S
O360 Cd352 2.277 . S
O360 C355 1.209 . S
C361 O358 1.258 . S
C361 O363 1.282 . S
O362 Cd354 2.277 . S
O362 C355 1.226 . S
O363 Cd354 2.356 . S
O363 C361 1.282 . S
C364 O365 1.306 . S
C364 O367 1.160 . S
O365 C364 1.306 . S
O365 Cd366 2.228 . S
Cd366 O365 2.228 . S
Cd366 O370 2.273 . S
Cd366 O374 2.277 . S
O367 C364 1.160 . S
O367 Cd368 2.203 . S
Cd368 O367 2.203 . S
Cd368 O370 2.411 . S
Cd368 O371 2.333 . S
Cd368 O372 2.352 . S
Cd368 O376 2.277 . S
Cd368 O377 2.356 . S
C369 O374 1.209 . S
C369 O376 1.226 . S
O370 Cd366 2.273 . S
O370 Cd368 2.411 . S
O370 C373 1.320 . S
O371 Cd368 2.333 . S
O371 C373 1.214 . S
O372 Cd368 2.352 . S
O372 C375 1.258 . S
C373 O370 1.320 . S
C373 O371 1.214 . S
O374 Cd366 2.277 . S
O374 C369 1.209 . S
C375 O372 1.258 . S
C375 O377 1.282 . S
O376 Cd368 2.277 . S
O376 C369 1.226 . S
O377 Cd368 2.356 . S
O377 C375 1.282 . S
C378 O379 1.306 . S
C378 O381 1.160 . S
O379 C378 1.306 . S
O379 Cd380 2.228 . S
Cd380 O379 2.228 . S
Cd380 O384 2.273 . S
Cd380 O388 2.277 . S
O381 C378 1.160 . S
O381 Cd382 2.203 . S
Cd382 O381 2.203 . S
Cd382 O384 2.411 . S
Cd382 O385 2.333 . S
Cd382 O386 2.352 . S
Cd382 O390 2.277 . S
Cd382 O391 2.356 . S
C383 O388 1.209 . S
C383 O390 1.226 . S
O384 Cd380 2.273 . S
O384 Cd382 2.411 . S
O384 C387 1.320 . S
O385 Cd382 2.333 . S
O385 C387 1.214 . S
O386 Cd382 2.352 . S
O386 C389 1.258 . S
C387 O384 1.320 . S
C387 O385 1.214 . S
O388 Cd380 2.277 . S
O388 C383 1.209 . S
C389 O386 1.258 . S
C389 O391 1.282 . S
O390 Cd382 2.277 . S
O390 C383 1.226 . S
O391 Cd382 2.356 . S
O391 C389 1.282 . S
C392 O393 1.306 . S
C392 O395 1.160 . S
O393 C392 1.306 . S
O393 Cd394 2.228 . S
Cd394 O393 2.228 . S
Cd394 O398 2.273 . S
Cd394 O402 2.277 . S
O395 C392 1.160 . S
O395 Cd396 2.203 . S
Cd396 O395 2.203 . S
Cd396 O398 2.411 . S
Cd396 O399 2.333 . S
Cd396 O400 2.352 . S
Cd396 O404 2.277 . S
Cd396 O405 2.356 . S
C397 O402 1.209 . S
C397 O404 1.226 . S
O398 Cd394 2.273 . S
O398 Cd396 2.411 . S
O398 C401 1.320 . S
O399 Cd396 2.333 . S
O399 C401 1.214 . S
O400 Cd396 2.352 . S
O400 C403 1.258 . S
C401 O398 1.320 . S
C401 O399 1.214 . S
O402 Cd394 2.277 . S
O402 C397 1.209 . S
C403 O400 1.258 . S
C403 O405 1.282 . S
O404 Cd396 2.277 . S
O404 C397 1.226 . S
O405 Cd396 2.356 . S
O405 C403 1.282 . S
C406 O407 1.306 . S
C406 O409 1.160 . S
O407 C406 1.306 . S
O407 Cd408 2.228 . S
Cd408 O407 2.228 . S
Cd408 O412 2.273 . S
Cd408 O416 2.277 . S
O409 C406 1.160 . S
O409 Cd410 2.203 . S
Cd410 O409 2.203 . S
Cd410 O412 2.411 . S
Cd410 O413 2.333 . S
Cd410 O414 2.352 . S
Cd410 O418 2.277 . S
Cd410 O419 2.356 . S
C411 O416 1.209 . S
C411 O418 1.226 . S
O412 Cd408 2.273 . S
O412 Cd410 2.411 . S
O412 C415 1.320 . S
O413 Cd410 2.333 . S
O413 C415 1.214 . S
O414 Cd410 2.352 . S
O414 C417 1.258 . S
C415 O412 1.320 . S
C415 O413 1.214 . S
O416 Cd408 2.277 . S
O416 C411 1.209 . S
C417 O414 1.258 . S
C417 O419 1.282 . S
O418 Cd410 2.277 . S
O418 C411 1.226 . S
O419 Cd410 2.356 . S
O419 C417 1.282 . S
C420 O421 1.306 . S
C420 O423 1.160 . S
O421 C420 1.306 . S
O421 Cd422 2.228 . S
Cd422 O421 2.228 . S
Cd422 O426 2.273 . S
Cd422 O430 2.277 . S
O423 C420 1.160 . S
O423 Cd424 2.203 . S
Cd424 O423 2.203 . S
Cd424 O426 2.411 . S
Cd424 O427 2.333 1_554 S
Cd424 O428 2.352 . S
Cd424 O432 2.277 . S
Cd424 O433 2.356 . S
C425 O430 1.209 . S
C425 O432 1.226 . S
O426 Cd422 2.273 . S
O426 Cd424 2.411 . S
O426 C429 1.320 1_554 S
O427 Cd424 2.333 1_556 S
O427 C429 1.214 . S
O428 Cd424 2.352 . S
O428 C431 1.258 . S
C429 O426 1.320 1_556 S
C429 O427 1.214 . S
O430 Cd422 2.277 . S
O430 C425 1.209 . S
C431 O428 1.258 . S
C431 O433 1.282 . S
O432 Cd424 2.277 . S
O432 C425 1.226 . S
O433 Cd424 2.356 . S
O433 C431 1.282 . S
C434 O435 1.306 . S
C434 O437 1.160 . S
O435 C434 1.306 . S
O435 Cd436 2.228 . S
Cd436 O435 2.228 . S
Cd436 O440 2.273 . S
Cd436 O444 2.277 . S
O437 C434 1.160 . S
O437 Cd438 2.203 . S
Cd438 O437 2.203 . S
Cd438 O440 2.411 . S
Cd438 O441 2.333 . S
Cd438 O442 2.352 . S
Cd438 O446 2.277 . S
Cd438 O447 2.356 . S
C439 O444 1.209 . S
C439 O446 1.226 . S
O440 Cd436 2.273 . S
O440 Cd438 2.411 . S
O440 C443 1.320 . S
O441 Cd438 2.333 . S
O441 C443 1.214 . S
O442 Cd438 2.352 . S
O442 C445 1.258 . S
C443 O440 1.320 . S
C443 O441 1.214 . S
O444 Cd436 2.277 . S
O444 C439 1.209 . S
C445 O442 1.258 . S
C445 O447 1.282 . S
O446 Cd438 2.277 . S
O446 C439 1.226 . S
O447 Cd438 2.356 . S
O447 C445 1.282 . S
H448 C454 0.930 . S
H449 C457 0.930 . S
H450 C458 0.930 1_554 S
H451 C459 0.930 . S
H452 C462 0.930 . S
H453 C463 0.930 . S
C454 H448 0.930 . S
C454 C455 1.355 . S
C454 C456 1.415 . S
C455 C454 1.355 . S
C455 C457 1.419 . S
C456 C454 1.415 . S
C456 C461 1.425 . S
C456 C463 1.409 . S
C457 H449 0.930 . S
C457 C455 1.419 . S
C457 C458 1.362 . S
C458 H450 0.930 1_556 S
C458 C457 1.362 . S
C458 C461 1.409 . S
C459 H451 0.930 . S
C459 C460 1.355 . S
C459 C461 1.415 1_554 S
C460 C459 1.355 . S
C460 C462 1.419 1_554 S
C461 C456 1.425 . S
C461 C458 1.409 . S
C461 C459 1.415 1_556 S
C462 H452 0.930 . S
C462 C460 1.419 1_556 S
C462 C463 1.362 . S
C463 H453 0.930 . S
C463 C456 1.409 . S
C463 C462 1.362 . S
H464 C470 0.930 . S
H465 C473 0.930 . S
H466 C474 0.930 . S
H467 C475 0.930 . S
H468 C478 0.930 . S
H469 C479 0.930 . S
C470 H464 0.930 . S
C470 C471 1.355 . S
C470 C472 1.415 . S
C471 C470 1.355 . S
C471 C473 1.419 . S
C472 C470 1.415 . S
C472 C477 1.425 . S
C472 C479 1.409 . S
C473 H465 0.930 . S
C473 C471 1.419 . S
C473 C474 1.362 . S
C474 H466 0.930 . S
C474 C473 1.362 . S
C474 C477 1.409 . S
C475 H467 0.930 . S
C475 C476 1.355 . S
C475 C477 1.415 . S
C476 C475 1.355 . S
C476 C478 1.419 . S
C477 C472 1.425 . S
C477 C474 1.409 . S
C477 C475 1.415 . S
C478 H468 0.930 . S
C478 C476 1.419 . S
C478 C479 1.362 . S
C479 H469 0.930 . S
C479 C472 1.409 . S
C479 C478 1.362 . S
H480 C486 0.930 . S
H481 C489 0.930 . S
H482 C490 0.930 . S
H483 C491 0.930 . S
H484 C494 0.930 . S
H485 C495 0.930 . S
C486 H480 0.930 . S
C486 C487 1.355 . S
C486 C488 1.415 . S
C487 C486 1.355 . S
C487 C489 1.419 . S
C488 C486 1.415 . S
C488 C493 1.425 . S
C488 C495 1.409 . S
C489 H481 0.930 . S
C489 C487 1.419 . S
C489 C490 1.362 . S
C490 H482 0.930 . S
C490 C489 1.362 . S
C490 C493 1.409 . S
C491 H483 0.930 . S
C491 C492 1.355 . S
C491 C493 1.415 . S
C492 C491 1.355 . S
C492 C494 1.419 . S
C493 C488 1.425 . S
C493 C490 1.409 . S
C493 C491 1.415 . S
C494 H484 0.930 . S
C494 C492 1.419 . S
C494 C495 1.362 . S
C495 H485 0.930 . S
C495 C488 1.409 . S
C495 C494 1.362 . S
H496 C502 0.930 . S
H497 C505 0.930 . S
H498 C506 0.930 . S
H499 C507 0.930 . S
H500 C510 0.930 . S
H501 C511 0.930 . S
C502 H496 0.930 . S
C502 C503 1.355 . S
C502 C504 1.415 . S
C503 C502 1.355 . S
C503 C505 1.419 . S
C504 C502 1.415 . S
C504 C509 1.425 . S
C504 C511 1.409 . S
C505 H497 0.930 . S
C505 C503 1.419 . S
C505 C506 1.362 . S
C506 H498 0.930 . S
C506 C505 1.362 . S
C506 C509 1.409 . S
C507 H499 0.930 . S
C507 C508 1.355 . S
C507 C509 1.415 . S
C508 C507 1.355 . S
C508 C510 1.419 . S
C509 C504 1.425 . S
C509 C506 1.409 . S
C509 C507 1.415 . S
C510 H500 0.930 . S
C510 C508 1.419 . S
C510 C511 1.362 . S
C511 H501 0.930 . S
C511 C504 1.409 . S
C511 C510 1.362 . S
H512 C518 0.930 . S
H513 C521 0.930 . S
H514 C522 0.930 . S
H515 C523 0.930 . S
H516 C526 0.930 . S
H517 C527 0.930 . S
C518 H512 0.930 . S
C518 C519 1.355 . S
C518 C520 1.415 . S
C519 C518 1.355 . S
C519 C521 1.419 . S
C520 C518 1.415 . S
C520 C525 1.425 . S
C520 C527 1.409 . S
C521 H513 0.930 . S
C521 C519 1.419 . S
C521 C522 1.362 . S
C522 H514 0.930 . S
C522 C521 1.362 . S
C522 C525 1.409 . S
C523 H515 0.930 . S
C523 C524 1.355 . S
C523 C525 1.415 . S
C524 C523 1.355 . S
C524 C526 1.419 . S
C525 C520 1.425 . S
C525 C522 1.409 . S
C525 C523 1.415 . S
C526 H516 0.930 . S
C526 C524 1.419 . S
C526 C527 1.362 . S
C527 H517 0.930 . S
C527 C520 1.409 . S
C527 C526 1.362 . S
H528 C534 0.930 . S
H529 C537 0.930 . S
H530 C538 0.930 . S
H531 C539 0.930 . S
H532 C542 0.930 . S
H533 C543 0.930 . S
C534 H528 0.930 . S
C534 C535 1.355 . S
C534 C536 1.415 . S
C535 C534 1.355 . S
C535 C537 1.419 . S
C536 C534 1.415 . S
C536 C541 1.425 . S
C536 C543 1.409 1_556 S
C537 H529 0.930 . S
C537 C535 1.419 . S
C537 C538 1.362 . S
C538 H530 0.930 . S
C538 C537 1.362 . S
C538 C541 1.409 . S
C539 H531 0.930 . S
C539 C540 1.355 1_556 S
C539 C541 1.415 . S
C540 C539 1.355 1_554 S
C540 C542 1.419 . S
C541 C536 1.425 . S
C541 C538 1.409 . S
C541 C539 1.415 . S
C542 H532 0.930 . S
C542 C540 1.419 . S
C542 C543 1.362 . S
C543 H533 0.930 . S
C543 C536 1.409 1_554 S
C543 C542 1.362 . S
H544 C550 0.930 . S
H545 C553 0.930 . S
H546 C554 0.930 . S
H547 C555 0.930 . S
H548 C558 0.930 . S
H549 C559 0.930 . S
C550 H544 0.930 . S
C550 C551 1.355 . S
C550 C552 1.415 . S
C551 C550 1.355 . S
C551 C553 1.419 . S
C552 C550 1.415 . S
C552 C557 1.425 . S
C552 C559 1.409 . S
C553 H545 0.930 . S
C553 C551 1.419 . S
C553 C554 1.362 . S
C554 H546 0.930 . S
C554 C553 1.362 . S
C554 C557 1.409 . S
C555 H547 0.930 . S
C555 C556 1.355 . S
C555 C557 1.415 . S
C556 C555 1.355 . S
C556 C558 1.419 . S
C557 C552 1.425 . S
C557 C554 1.409 . S
C557 C555 1.415 . S
C558 H548 0.930 . S
C558 C556 1.419 . S
C558 C559 1.362 . S
C559 H549 0.930 . S
C559 C552 1.409 . S
C559 C558 1.362 . S
H560 C566 0.930 . S
H561 C569 0.930 . S
H562 C570 0.930 . S
H563 C571 0.930 . S
H564 C574 0.930 . S
H565 C575 0.930 . S
C566 H560 0.930 . S
C566 C567 1.355 . S
C566 C568 1.415 . S
C567 C566 1.355 . S
C567 C569 1.419 . S
C568 C566 1.415 . S
C568 C573 1.425 . S
C568 C575 1.409 . S
C569 H561 0.930 . S
C569 C567 1.419 . S
C569 C570 1.362 . S
C570 H562 0.930 . S
C570 C569 1.362 . S
C570 C573 1.409 . S
C571 H563 0.930 . S
C571 C572 1.355 . S
C571 C573 1.415 . S
C572 C571 1.355 . S
C572 C574 1.419 . S
C573 C568 1.425 . S
C573 C570 1.409 . S
C573 C571 1.415 . S
C574 H564 0.930 . S
C574 C572 1.419 . S
C574 C575 1.362 . S
C575 H565 0.930 . S
C575 C568 1.409 . S
C575 C574 1.362 . S
H576 C582 0.930 . S
H577 C585 0.930 . S
H578 C586 0.930 . S
H579 C587 0.930 . S
H580 C590 0.930 . S
H581 C591 0.930 . S
C582 H576 0.930 . S
C582 C583 1.355 . S
C582 C584 1.415 . S
C583 C582 1.355 . S
C583 C585 1.419 . S
C584 C582 1.415 . S
C584 C589 1.425 . S
C584 C591 1.409 . S
C585 H577 0.930 . S
C585 C583 1.419 . S
C585 C586 1.362 . S
C586 H578 0.930 . S
C586 C585 1.362 . S
C586 C589 1.409 . S
C587 H579 0.930 . S
C587 C588 1.355 . S
C587 C589 1.415 . S
C588 C587 1.355 . S
C588 C590 1.419 . S
C589 C584 1.425 . S
C589 C586 1.409 . S
C589 C587 1.415 . S
C590 H580 0.930 . S
C590 C588 1.419 . S
C590 C591 1.362 . S
C591 H581 0.930 . S
C591 C584 1.409 . S
C591 C590 1.362 . S
H592 C598 0.930 . S
H593 C601 0.930 . S
H594 C602 0.930 . S
H595 C603 0.930 . S
H596 C606 0.930 . S
H597 C607 0.930 . S
C598 H592 0.930 . S
C598 C599 1.355 . S
C598 C600 1.415 . S
C599 C598 1.355 . S
C599 C601 1.419 . S
C600 C598 1.415 . S
C600 C605 1.425 . S
C600 C607 1.409 . S
C601 H593 0.930 . S
C601 C599 1.419 . S
C601 C602 1.362 . S
C602 H594 0.930 . S
C602 C601 1.362 . S
C602 C605 1.409 . S
C603 H595 0.930 . S
C603 C604 1.355 . S
C603 C605 1.415 . S
C604 C603 1.355 . S
C604 C606 1.419 . S
C605 C600 1.425 . S
C605 C602 1.409 . S
C605 C603 1.415 . S
C606 H596 0.930 . S
C606 C604 1.419 . S
C606 C607 1.362 . S
C607 H597 0.930 . S
C607 C600 1.409 . S
C607 C606 1.362 . S
H608 C614 0.930 . S
H609 C617 0.930 . S
H610 C618 0.915 1_554 S
H611 C619 0.930 . S
H612 C622 0.930 . S
H613 C623 0.930 . S
C614 H608 0.930 . S
C614 C615 1.355 . S
C614 C616 1.415 . S
C615 C614 1.355 . S
C615 C617 1.419 . S
C616 C614 1.415 . S
C616 C621 1.425 . S
C616 C623 1.409 . S
C617 H609 0.930 . S
C617 C615 1.419 . S
C617 C618 1.374 . S
C618 H610 0.915 1_556 S
C618 C617 1.374 . S
C618 C621 1.412 . S
C619 H611 0.930 . S
C619 C620 1.355 . S
C619 C621 1.415 1_554 S
C620 C619 1.355 . S
C620 C622 1.419 1_554 S
C621 C616 1.425 . S
C621 C618 1.412 . S
C621 C619 1.415 1_556 S
C622 H612 0.930 . S
C622 C620 1.419 1_556 S
C622 C623 1.362 . S
C623 H613 0.930 . S
C623 C616 1.409 . S
C623 C622 1.362 . S
H624 C630 0.930 . S
H625 C633 0.930 . S
H626 C634 0.930 . S
H627 C635 0.930 . S
H628 C638 0.930 . S
H629 C639 0.930 . S
C630 H624 0.930 . S
C630 C631 1.355 . S
C630 C632 1.415 . S
C631 C630 1.355 . S
C631 C633 1.419 . S
C632 C630 1.415 . S
C632 C637 1.425 . S
C632 C639 1.409 . S
C633 H625 0.930 . S
C633 C631 1.419 . S
C633 C634 1.362 . S
C634 H626 0.930 . S
C634 C633 1.362 . S
C634 C637 1.409 . S
C635 H627 0.930 . S
C635 C636 1.355 . S
C635 C637 1.415 . S
C636 C635 1.355 . S
C636 C638 1.419 . S
C637 C632 1.425 . S
C637 C634 1.409 . S
C637 C635 1.415 . S
C638 H628 0.930 . S
C638 C636 1.419 . S
C638 C639 1.362 . S
C639 H629 0.930 . S
C639 C632 1.409 . S
C639 C638 1.362 . S
H640 C646 0.930 . S
H641 C649 0.930 . S
H642 C650 0.930 . S
H643 C651 0.930 . S
H644 C654 0.930 . S
H645 C655 0.930 . S
C646 H640 0.930 . S
C646 C647 1.355 . S
C646 C648 1.415 . S
C647 C646 1.355 . S
C647 C649 1.419 . S
C648 C646 1.415 . S
C648 C653 1.425 . S
C648 C655 1.409 . S
C649 H641 0.930 . S
C649 C647 1.419 . S
C649 C650 1.362 . S
C650 H642 0.930 . S
C650 C649 1.362 . S
C650 C653 1.409 . S
C651 H643 0.930 . S
C651 C652 1.355 . S
C651 C653 1.415 . S
C652 C651 1.355 . S
C652 C654 1.419 . S
C653 C648 1.425 . S
C653 C650 1.409 . S
C653 C651 1.415 . S
C654 H644 0.930 . S
C654 C652 1.419 . S
C654 C655 1.362 . S
C655 H645 0.930 . S
C655 C648 1.409 . S
C655 C654 1.362 . S
H656 C662 0.930 . S
H657 C665 0.930 . S
H658 C666 0.930 . S
H659 C667 0.930 . S
H660 C670 0.930 . S
H661 C671 0.930 . S
C662 H656 0.930 . S
C662 C663 1.355 . S
C662 C664 1.415 . S
C663 C662 1.355 . S
C663 C665 1.419 . S
C664 C662 1.415 . S
C664 C669 1.425 . S
C664 C671 1.409 . S
C665 H657 0.930 . S
C665 C663 1.419 . S
C665 C666 1.362 . S
C666 H658 0.930 . S
C666 C665 1.362 . S
C666 C669 1.409 . S
C667 H659 0.930 . S
C667 C668 1.355 . S
C667 C669 1.415 . S
C668 C667 1.355 . S
C668 C670 1.419 . S
C669 C664 1.425 . S
C669 C666 1.409 . S
C669 C667 1.415 . S
C670 H660 0.930 . S
C670 C668 1.419 . S
C670 C671 1.362 . S
C671 H661 0.930 . S
C671 C664 1.409 . S
C671 C670 1.362 . S
H672 C678 0.930 . S
H673 C681 0.930 . S
H674 C682 0.930 . S
H675 C683 0.930 . S
H676 C686 0.930 . S
H677 C687 0.930 . S
C678 H672 0.930 . S
C678 C679 1.355 . S
C678 C680 1.415 . S
C679 C678 1.355 . S
C679 C681 1.419 . S
C680 C678 1.415 . S
C680 C685 1.425 . S
C680 C687 1.409 . S
C681 H673 0.930 . S
C681 C679 1.419 . S
C681 C682 1.362 . S
C682 H674 0.930 . S
C682 C681 1.362 . S
C682 C685 1.409 . S
C683 H675 0.930 . S
C683 C684 1.355 . S
C683 C685 1.415 . S
C684 C683 1.355 . S
C684 C686 1.419 . S
C685 C680 1.425 . S
C685 C682 1.409 . S
C685 C683 1.415 . S
C686 H676 0.930 . S
C686 C684 1.419 . S
C686 C687 1.362 . S
C687 H677 0.930 . S
C687 C680 1.409 . S
C687 C686 1.362 . S
H688 C694 0.930 . S
H689 C697 0.930 . S
H690 C698 0.930 . S
H691 C699 0.930 1_554 S
H692 C702 0.930 . S
H693 C703 0.930 . S
C694 H688 0.930 . S
C694 C695 1.355 . S
C694 C696 1.415 . S
C695 C694 1.355 . S
C695 C697 1.419 . S
C696 C694 1.415 . S
C696 C701 1.425 . S
C696 C703 1.409 . S
C697 H689 0.930 . S
C697 C695 1.419 . S
C697 C698 1.362 . S
C698 H690 0.930 . S
C698 C697 1.362 . S
C698 C701 1.409 . S
C699 H691 0.930 1_556 S
C699 C700 1.355 1_556 S
C699 C701 1.415 . S
C700 C699 1.355 1_554 S
C700 C702 1.419 . S
C701 C696 1.425 . S
C701 C698 1.409 . S
C701 C699 1.415 . S
C702 H692 0.930 . S
C702 C700 1.419 . S
C702 C703 1.362 1_554 S
C703 H693 0.930 . S
C703 C696 1.409 . S
C703 C702 1.362 1_556 S
H704 C710 0.930 . S
H705 C713 0.930 . S
H706 C714 0.930 . S
H707 C715 0.930 . S
H708 C718 0.930 . S
H709 C719 0.930 . S
C710 H704 0.930 . S
C710 C711 1.355 . S
C710 C712 1.415 . S
C711 C710 1.355 . S
C711 C713 1.419 . S
C712 C710 1.415 . S
C712 C717 1.425 . S
C712 C719 1.409 . S
C713 H705 0.930 . S
C713 C711 1.419 . S
C713 C714 1.362 . S
C714 H706 0.930 . S
C714 C713 1.362 . S
C714 C717 1.409 . S
C715 H707 0.930 . S
C715 C716 1.355 . S
C715 C717 1.415 . S
C716 C715 1.355 . S
C716 C718 1.419 . S
C717 C712 1.425 . S
C717 C714 1.409 . S
C717 C715 1.415 . S
C718 H708 0.930 . S
C718 C716 1.419 . S
C718 C719 1.362 . S
C719 H709 0.930 . S
C719 C712 1.409 . S
C719 C718 1.362 . S
H720 C726 0.930 . S
H721 C729 0.908 1_545 S
H722 C730 0.930 . S
H723 C731 0.930 . S
H724 C734 0.930 . S
H725 C735 0.930 . S
C726 H720 0.930 . S
C726 C727 1.355 . S
C726 C728 1.415 . S
C727 C726 1.355 . S
C727 C729 1.470 . S
C728 C726 1.415 . S
C728 C733 1.425 1_565 S
C728 C735 1.409 . S
C729 H721 0.908 1_565 S
C729 C727 1.470 . S
C729 C730 1.335 1_565 S
C730 H722 0.930 . S
C730 C729 1.335 1_545 S
C730 C733 1.409 . S
C731 H723 0.930 . S
C731 C732 1.355 1_554 S
C731 C733 1.415 . S
C732 C731 1.355 1_556 S
C732 C734 1.419 1_545 S
C733 C728 1.425 1_545 S
C733 C730 1.409 . S
C733 C731 1.415 . S
C734 H724 0.930 . S
C734 C732 1.419 1_565 S
C734 C735 1.362 1_556 S
C735 H725 0.930 . S
C735 C728 1.409 . S
C735 C734 1.362 1_554 S
H736 C742 0.930 . S
H737 C745 0.930 . S
H738 C746 0.930 . S
H739 C747 0.930 . S
H740 C750 0.930 . S
H741 C751 0.930 . S
C742 H736 0.930 . S
C742 C743 1.355 . S
C742 C744 1.415 . S
C743 C742 1.355 . S
C743 C745 1.419 . S
C744 C742 1.415 . S
C744 C749 1.425 . S
C744 C751 1.409 . S
C745 H737 0.930 . S
C745 C743 1.419 . S
C745 C746 1.362 . S
C746 H738 0.930 . S
C746 C745 1.362 . S
C746 C749 1.409 . S
C747 H739 0.930 . S
C747 C748 1.355 . S
C747 C749 1.415 . S
C748 C747 1.355 . S
C748 C750 1.419 . S
C749 C744 1.425 . S
C749 C746 1.409 . S
C749 C747 1.415 . S
C750 H740 0.930 . S
C750 C748 1.419 . S
C750 C751 1.362 . S
C751 H741 0.930 . S
C751 C744 1.409 . S
C751 C750 1.362 . S
H752 C758 0.930 . S
H753 C761 0.930 . S
H754 C762 0.930 . S
H755 C763 0.930 . S
H756 C766 0.930 . S
H757 C767 0.930 . S
C758 H752 0.930 . S
C758 C759 1.355 1_565 S
C758 C760 1.415 . S
C759 C758 1.355 1_545 S
C759 C761 1.419 . S
C760 C758 1.415 . S
C760 C765 1.425 . S
C760 C767 1.409 . S
C761 H753 0.930 . S
C761 C759 1.419 . S
C761 C762 1.362 . S
C762 H754 0.930 . S
C762 C761 1.362 . S
C762 C765 1.409 1_545 S
C763 H755 0.930 . S
C763 C764 1.355 . S
C763 C765 1.415 . S
C764 C763 1.355 . S
C764 C766 1.419 . S
C765 C760 1.425 . S
C765 C762 1.409 1_565 S
C765 C763 1.415 . S
C766 H756 0.930 . S
C766 C764 1.419 . S
C766 C767 1.362 . S
C767 H757 0.930 . S
C767 C760 1.409 . S
C767 C766 1.362 . S
H768 C774 0.930 . S
H769 C777 0.930 . S
H770 C778 0.930 . S
H771 C779 0.930 . S
H772 C782 0.930 . S
H773 C783 0.930 . S
C774 H768 0.930 . S
C774 C775 1.355 . S
C774 C776 1.415 . S
C775 C774 1.355 . S
C775 C777 1.419 . S
C776 C774 1.415 . S
C776 C781 1.425 . S
C776 C783 1.409 . S
C777 H769 0.930 . S
C777 C775 1.419 . S
C777 C778 1.362 . S
C778 H770 0.930 . S
C778 C777 1.362 . S
C778 C781 1.409 . S
C779 H771 0.930 . S
C779 C780 1.355 . S
C779 C781 1.415 . S
C780 C779 1.355 . S
C780 C782 1.419 . S
C781 C776 1.425 . S
C781 C778 1.409 . S
C781 C779 1.415 . S
C782 H772 0.930 . S
C782 C780 1.419 . S
C782 C783 1.362 . S
C783 H773 0.930 . S
C783 C776 1.409 . S
C783 C782 1.362 . S
H784 C790 0.930 . S
H785 C793 0.930 . S
H786 C794 0.930 . S
H787 C795 0.930 . S
H788 C798 0.930 . S
H789 C799 0.930 . S
C790 H784 0.930 . S
C790 C791 1.355 1_554 S
C790 C792 1.390 1_545 S
C791 C790 1.355 1_556 S
C791 C793 1.419 1_545 S
C792 C790 1.390 1_565 S
C792 C797 1.466 . S
C792 C799 1.396 1_565 S
C793 H785 0.930 . S
C793 C791 1.419 1_565 S
C793 C794 1.362 1_556 S
C794 H786 0.930 . S
C794 C793 1.362 1_554 S
C794 C797 1.409 . S
C795 H787 0.930 . S
C795 C796 1.355 . S
C795 C797 1.415 . S
C796 C795 1.355 . S
C796 C798 1.419 . S
C797 C792 1.466 . S
C797 C794 1.409 . S
C797 C795 1.415 . S
C798 H788 0.930 . S
C798 C796 1.419 . S
C798 C799 1.362 1_565 S
C799 H789 0.930 . S
C799 C792 1.396 1_545 S
C799 C798 1.362 1_545 S
H800 C806 0.930 . S
H801 C809 0.930 . S
H802 C810 0.930 . S
H803 C811 0.930 . S
H804 C814 0.930 . S
H805 C815 0.930 . S
C806 H800 0.930 . S
C806 C807 1.355 . S
C806 C808 1.415 . S
C807 C806 1.355 . S
C807 C809 1.419 . S
C808 C806 1.415 . S
C808 C813 1.425 . S
C808 C815 1.409 . S
C809 H801 0.930 . S
C809 C807 1.419 . S
C809 C810 1.362 . S
C810 H802 0.930 . S
C810 C809 1.362 . S
C810 C813 1.409 . S
C811 H803 0.930 . S
C811 C812 1.355 . S
C811 C813 1.415 . S
C812 C811 1.355 . S
C812 C814 1.419 . S
C813 C808 1.425 . S
C813 C810 1.409 . S
C813 C811 1.415 . S
C814 H804 0.930 . S
C814 C812 1.419 . S
C814 C815 1.362 . S
C815 H805 0.930 . S
C815 C808 1.409 . S
C815 C814 1.362 . S
H816 C822 0.930 . S
H817 C825 0.930 . S
H818 C826 0.930 . S
H819 C827 0.930 1_545 S
H820 C830 0.930 . S
H821 C831 0.930 . S
C822 H816 0.930 . S
C822 C823 1.355 1_565 S
C822 C824 1.415 . S
C823 C822 1.355 1_545 S
C823 C825 1.419 . S
C824 C822 1.415 . S
C824 C829 1.474 . S
C824 C831 1.409 . S
C825 H817 0.930 . S
C825 C823 1.419 . S
C825 C826 1.362 . S
C826 H818 0.930 . S
C826 C825 1.362 . S
C826 C829 1.348 1_545 S
C827 H819 0.930 1_565 S
C827 C828 1.355 . S
C827 C829 1.431 . S
C828 C827 1.355 . S
C828 C830 1.419 . S
C829 C824 1.474 . S
C829 C826 1.348 1_565 S
C829 C827 1.431 . S
C830 H820 0.930 . S
C830 C828 1.419 . S
C830 C831 1.362 . S
C831 H821 0.930 . S
C831 C824 1.409 . S
C831 C830 1.362 . S
H832 C838 0.930 . S
H833 C841 0.930 . S
H834 C842 0.930 . S
H835 C843 0.930 . S
H836 C846 0.930 . S
H837 C847 0.930 . S
C838 H832 0.930 . S
C838 C839 1.355 . S
C838 C840 1.415 . S
C839 C838 1.355 . S
C839 C841 1.419 . S
C840 C838 1.415 . S
C840 C845 1.425 . S
C840 C847 1.409 . S
C841 H833 0.930 . S
C841 C839 1.419 . S
C841 C842 1.362 . S
C842 H834 0.930 . S
C842 C841 1.362 . S
C842 C845 1.409 . S
C843 H835 0.930 . S
C843 C844 1.355 . S
C843 C845 1.415 . S
C844 C843 1.355 . S
C844 C846 1.419 . S
C845 C840 1.425 . S
C845 C842 1.409 . S
C845 C843 1.415 . S
C846 H836 0.930 . S
C846 C844 1.419 . S
C846 C847 1.362 . S
C847 H837 0.930 . S
C847 C840 1.409 . S
C847 C846 1.362 . S
H848 C854 0.930 . S
H849 C857 0.930 . S
H850 C858 0.930 . S
H851 C859 0.930 . S
H852 C862 0.930 . S
H853 C863 0.930 . S
C854 H848 0.930 . S
C854 C855 1.355 . S
C854 C856 1.415 . S
C855 C854 1.355 . S
C855 C857 1.419 . S
C856 C854 1.415 . S
C856 C861 1.425 . S
C856 C863 1.409 . S
C857 H849 0.930 . S
C857 C855 1.419 . S
C857 C858 1.362 . S
C858 H850 0.930 . S
C858 C857 1.362 . S
C858 C861 1.409 . S
C859 H851 0.930 . S
C859 C860 1.355 . S
C859 C861 1.415 . S
C860 C859 1.355 . S
C860 C862 1.419 . S
C861 C856 1.425 . S
C861 C858 1.409 . S
C861 C859 1.415 . S
C862 H852 0.930 . S
C862 C860 1.419 . S
C862 C863 1.362 . S
C863 H853 0.930 . S
C863 C856 1.409 . S
C863 C862 1.362 . S
H864 C870 0.930 . S
H865 C873 0.930 . S
H866 C874 0.930 . S
H867 C875 0.930 . S
H868 C878 0.930 . S
H869 C879 0.930 . S
C870 H864 0.930 . S
C870 C871 1.355 . S
C870 C872 1.415 . S
C871 C870 1.355 . S
C871 C873 1.419 . S
C872 C870 1.415 . S
C872 C877 1.425 . S
C872 C879 1.409 . S
C873 H865 0.930 . S
C873 C871 1.419 . S
C873 C874 1.362 . S
C874 H866 0.930 . S
C874 C873 1.362 . S
C874 C877 1.409 . S
C875 H867 0.930 . S
C875 C876 1.355 . S
C875 C877 1.415 . S
C876 C875 1.355 . S
C876 C878 1.419 . S
C877 C872 1.425 . S
C877 C874 1.409 . S
C877 C875 1.415 . S
C878 H868 0.930 . S
C878 C876 1.419 . S
C878 C879 1.362 . S
C879 H869 0.930 . S
C879 C872 1.409 . S
C879 C878 1.362 . S
H880 C886 0.930 . S
H881 C889 0.930 . S
H882 C890 0.930 . S
H883 C891 0.930 . S
H884 C894 0.930 . S
H885 C895 0.930 . S
C886 H880 0.930 . S
C886 C887 1.355 . S
C886 C888 1.415 . S
C887 C886 1.355 . S
C887 C889 1.419 . S
C888 C886 1.415 . S
C888 C893 1.425 . S
C888 C895 1.409 . S
C889 H881 0.930 . S
C889 C887 1.419 . S
C889 C890 1.362 . S
C890 H882 0.930 . S
C890 C889 1.362 . S
C890 C893 1.409 . S
C891 H883 0.930 . S
C891 C892 1.355 1_554 S
C891 C893 1.415 . S
C892 C891 1.355 1_556 S
C892 C894 1.419 . S
C893 C888 1.425 . S
C893 C890 1.409 . S
C893 C891 1.415 . S
C894 H884 0.930 . S
C894 C892 1.419 . S
C894 C895 1.362 1_556 S
C895 H885 0.930 . S
C895 C888 1.409 . S
C895 C894 1.362 1_554 S
H896 C902 0.930 . S
H897 C905 0.930 . S
H898 C906 0.930 . S
H899 C907 0.930 . S
H900 C910 0.930 . S
H901 C911 0.930 . S
C902 H896 0.930 . S
C902 C903 1.355 . S
C902 C904 1.415 . S
C903 C902 1.355 . S
C903 C905 1.419 . S
C904 C902 1.415 . S
C904 C909 1.425 . S
C904 C911 1.409 . S
C905 H897 0.930 . S
C905 C903 1.419 . S
C905 C906 1.362 . S
C906 H898 0.930 . S
C906 C905 1.362 . S
C906 C909 1.409 . S
C907 H899 0.930 . S
C907 C908 1.355 . S
C907 C909 1.415 . S
C908 C907 1.355 . S
C908 C910 1.419 . S
C909 C904 1.425 . S
C909 C906 1.409 . S
C909 C907 1.415 . S
C910 H900 0.930 . S
C910 C908 1.419 . S
C910 C911 1.362 . S
C911 H901 0.930 . S
C911 C904 1.409 . S
C911 C910 1.362 . S
H912 C918 0.930 . S
H913 C921 0.930 . S
H914 C922 0.930 . S
H915 C923 0.930 . S
H916 C926 0.930 . S
H917 C927 0.930 . S
C918 H912 0.930 . S
C918 C919 1.355 . S
C918 C920 1.415 . S
C919 C918 1.355 . S
C919 C921 1.419 . S
C920 C918 1.415 . S
C920 C925 1.425 . S
C920 C927 1.409 . S
C921 H913 0.930 . S
C921 C919 1.419 . S
C921 C922 1.362 . S
C922 H914 0.930 . S
C922 C921 1.362 . S
C922 C925 1.409 . S
C923 H915 0.930 . S
C923 C924 1.355 . S
C923 C925 1.415 . S
C924 C923 1.355 . S
C924 C926 1.419 . S
C925 C920 1.425 . S
C925 C922 1.409 . S
C925 C923 1.415 . S
C926 H916 0.930 . S
C926 C924 1.419 . S
C926 C927 1.362 . S
C927 H917 0.930 . S
C927 C920 1.409 . S
C927 C926 1.362 . S
H928 C934 0.930 . S
H929 C937 0.930 . S
H930 C938 0.930 . S
H931 C939 0.930 . S
H932 C942 0.930 . S
H933 C943 0.930 . S
C934 H928 0.930 . S
C934 C935 1.355 . S
C934 C936 1.415 . S
C935 C934 1.355 . S
C935 C937 1.419 . S
C936 C934 1.415 . S
C936 C941 1.425 . S
C936 C943 1.409 . S
C937 H929 0.930 . S
C937 C935 1.419 . S
C937 C938 1.362 . S
C938 H930 0.930 . S
C938 C937 1.362 . S
C938 C941 1.409 . S
C939 H931 0.930 . S
C939 C940 1.355 . S
C939 C941 1.415 . S
C940 C939 1.355 . S
C940 C942 1.419 . S
C941 C936 1.425 . S
C941 C938 1.409 . S
C941 C939 1.415 . S
C942 H932 0.930 . S
C942 C940 1.419 . S
C942 C943 1.362 . S
C943 H933 0.930 . S
C943 C936 1.409 . S
C943 C942 1.362 . S
H944 C950 0.930 . S
H945 C953 0.930 . S
H946 C954 0.930 . S
H947 C955 0.930 . S
H948 C958 0.930 . S
H949 C959 0.930 . S
C950 H944 0.930 . S
C950 C951 1.355 . S
C950 C952 1.415 . S
C951 C950 1.355 . S
C951 C953 1.419 . S
C952 C950 1.415 . S
C952 C957 1.425 . S
C952 C959 1.409 . S
C953 H945 0.930 . S
C953 C951 1.419 . S
C953 C954 1.362 . S
C954 H946 0.930 . S
C954 C953 1.362 . S
C954 C957 1.409 . S
C955 H947 0.930 . S
C955 C956 1.355 1_554 S
C955 C957 1.415 . S
C956 C955 1.355 1_556 S
C956 C958 1.419 . S
C957 C952 1.425 . S
C957 C954 1.409 . S
C957 C955 1.415 . S
C958 H948 0.930 . S
C958 C956 1.419 . S
C958 C959 1.362 1_556 S
C959 H949 0.930 . S
C959 C952 1.409 . S
C959 C958 1.362 1_554 S
H960 C966 0.930 . S
H961 C969 0.930 . S
H962 C970 0.930 . S
H963 C971 0.930 . S
H964 C974 0.930 . S
H965 C975 0.930 . S
C966 H960 0.930 . S
C966 C967 1.355 . S
C966 C968 1.415 . S
C967 C966 1.355 . S
C967 C969 1.419 . S
C968 C966 1.415 . S
C968 C973 1.425 . S
C968 C975 1.409 . S
C969 H961 0.930 . S
C969 C967 1.419 . S
C969 C970 1.362 . S
C970 H962 0.930 . S
C970 C969 1.362 . S
C970 C973 1.409 . S
C971 H963 0.930 . S
C971 C972 1.355 . S
C971 C973 1.415 . S
C972 C971 1.355 . S
C972 C974 1.419 . S
C973 C968 1.425 . S
C973 C970 1.409 . S
C973 C971 1.415 . S
C974 H964 0.930 . S
C974 C972 1.419 . S
C974 C975 1.362 . S
C975 H965 0.930 . S
C975 C968 1.409 . S
C975 C974 1.362 . S
H976 C982 0.930 . S
H977 C985 0.930 . S
H978 C986 0.930 . S
H979 C987 0.930 . S
H980 C990 0.930 . S
H981 C991 0.930 . S
C982 H976 0.930 . S
C982 C983 1.355 . S
C982 C984 1.415 . S
C983 C982 1.355 . S
C983 C985 1.419 . S
C984 C982 1.415 . S
C984 C989 1.425 1_455 S
C984 C991 1.409 1_455 S
C985 H977 0.930 . S
C985 C983 1.419 . S
C985 C986 1.362 . S
C986 H978 0.930 . S
C986 C985 1.362 . S
C986 C989 1.409 1_455 S
C987 H979 0.930 . S
C987 C988 1.355 . S
C987 C989 1.415 . S
C988 C987 1.355 . S
C988 C990 1.419 . S
C989 C984 1.425 1_655 S
C989 C986 1.409 1_655 S
C989 C987 1.415 . S
C990 H980 0.930 . S
C990 C988 1.419 . S
C990 C991 1.362 . S
C991 H981 0.930 . S
C991 C984 1.409 1_655 S
C991 C990 1.362 . S
H992 C998 0.930 . S
H993 C1001 0.930 . S
H994 C1002 0.930 . S
H995 C1003 0.930 . S
H996 C1006 0.930 . S
H997 C1007 0.930 . S
C998 H992 0.930 . S
C998 C999 1.355 . S
C998 C1000 1.415 . S
C999 C998 1.355 . S
C999 C1001 1.419 . S
C1000 C998 1.415 . S
C1000 C1005 1.425 . S
C1000 C1007 1.409 . S
C1001 H993 0.930 . S
C1001 C999 1.419 . S
C1001 C1002 1.362 . S
C1002 H994 0.930 . S
C1002 C1001 1.362 . S
C1002 C1005 1.409 . S
C1003 H995 0.930 . S
C1003 C1004 1.355 . S
C1003 C1005 1.415 . S
C1004 C1003 1.355 . S
C1004 C1006 1.419 . S
C1005 C1000 1.425 . S
C1005 C1002 1.409 . S
C1005 C1003 1.415 . S
C1006 H996 0.930 . S
C1006 C1004 1.419 . S
C1006 C1007 1.362 . S
C1007 H997 0.930 . S
C1007 C1000 1.409 . S
C1007 C1006 1.362 . S
H1008 C1014 0.930 . S
H1009 C1017 0.930 . S
H1010 C1018 0.930 . S
H1011 C1019 0.930 . S
H1012 C1022 0.930 . S
H1013 C1023 0.930 1_565 S
C1014 H1008 0.930 . S
C1014 C1015 1.355 . S
C1014 C1016 1.415 . S
C1015 C1014 1.355 . S
C1015 C1017 1.419 . S
C1016 C1014 1.415 . S
C1016 C1021 1.425 . S
C1016 C1023 1.409 . S
C1017 H1009 0.930 . S
C1017 C1015 1.419 . S
C1017 C1018 1.362 . S
C1018 H1010 0.930 . S
C1018 C1017 1.362 . S
C1018 C1021 1.409 . S
C1019 H1011 0.930 . S
C1019 C1020 1.355 . S
C1019 C1021 1.415 . S
C1020 C1019 1.355 . S
C1020 C1022 1.419 . S
C1021 C1016 1.425 . S
C1021 C1018 1.409 . S
C1021 C1019 1.415 . S
C1022 H1012 0.930 . S
C1022 C1020 1.419 . S
C1022 C1023 1.362 . S
C1023 H1013 0.930 1_545 S
C1023 C1016 1.409 . S
C1023 C1022 1.362 . S
H1024 C1030 0.930 . S
H1025 C1033 0.930 . S
H1026 C1034 0.930 1_556 S
H1027 C1035 0.930 . S
H1028 C1038 0.930 . S
H1029 C1039 0.930 . S
C1030 H1024 0.930 . S
C1030 C1031 1.355 . S
C1030 C1032 1.415 . S
C1031 C1030 1.355 . S
C1031 C1033 1.419 . S
C1032 C1030 1.415 . S
C1032 C1037 1.425 . S
C1032 C1039 1.409 . S
C1033 H1025 0.930 . S
C1033 C1031 1.419 . S
C1033 C1034 1.362 . S
C1034 H1026 0.930 1_554 S
C1034 C1033 1.362 . S
C1034 C1037 1.409 . S
C1035 H1027 0.930 . S
C1035 C1036 1.355 . S
C1035 C1037 1.415 . S
C1036 C1035 1.355 . S
C1036 C1038 1.419 . S
C1037 C1032 1.425 . S
C1037 C1034 1.409 . S
C1037 C1035 1.415 . S
C1038 H1028 0.930 . S
C1038 C1036 1.419 . S
C1038 C1039 1.362 . S
C1039 H1029 0.930 . S
C1039 C1032 1.409 . S
C1039 C1038 1.362 . S
H1040 C1046 0.930 . S
H1041 C1049 0.930 . S
H1042 C1050 0.930 . S
H1043 C1051 0.930 . S
H1044 C1054 0.930 . S
H1045 C1055 0.930 . S
C1046 H1040 0.930 . S
C1046 C1047 1.355 . S
C1046 C1048 1.415 . S
C1047 C1046 1.355 . S
C1047 C1049 1.419 . S
C1048 C1046 1.415 . S
C1048 C1053 1.425 . S
C1048 C1055 1.409 . S
C1049 H1041 0.930 . S
C1049 C1047 1.419 . S
C1049 C1050 1.362 . S
C1050 H1042 0.930 . S
C1050 C1049 1.362 . S
C1050 C1053 1.409 . S
C1051 H1043 0.930 . S
C1051 C1052 1.355 . S
C1051 C1053 1.415 . S
C1052 C1051 1.355 . S
C1052 C1054 1.419 . S
C1053 C1048 1.425 . S
C1053 C1050 1.409 . S
C1053 C1051 1.415 . S
C1054 H1044 0.930 . S
C1054 C1052 1.419 . S
C1054 C1055 1.362 . S
C1055 H1045 0.930 . S
C1055 C1048 1.409 . S
C1055 C1054 1.362 . S
H1056 C1062 0.930 . S
H1057 C1065 0.930 . S
H1058 C1066 0.930 . S
H1059 C1067 0.930 . S
H1060 C1070 0.930 . S
H1061 C1071 0.930 . S
C1062 H1056 0.930 . S
C1062 C1063 1.355 . S
C1062 C1064 1.415 . S
C1063 C1062 1.355 . S
C1063 C1065 1.419 . S
C1064 C1062 1.415 . S
C1064 C1069 1.425 . S
C1064 C1071 1.409 . S
C1065 H1057 0.930 . S
C1065 C1063 1.419 . S
C1065 C1066 1.362 . S
C1066 H1058 0.930 . S
C1066 C1065 1.362 . S
C1066 C1069 1.409 . S
C1067 H1059 0.930 . S
C1067 C1068 1.355 . S
C1067 C1069 1.415 . S
C1068 C1067 1.355 . S
C1068 C1070 1.419 . S
C1069 C1064 1.425 . S
C1069 C1066 1.409 . S
C1069 C1067 1.415 . S
C1070 H1060 0.930 . S
C1070 C1068 1.419 . S
C1070 C1071 1.362 . S
C1071 H1061 0.930 . S
C1071 C1064 1.409 . S
C1071 C1070 1.362 . S
H1072 C1078 0.930 . S
H1073 C1081 0.930 . S
H1074 C1082 0.930 . S
H1075 C1083 0.930 . S
H1076 C1086 0.930 . S
H1077 C1087 0.930 1_565 S
C1078 H1072 0.930 . S
C1078 C1079 1.355 . S
C1078 C1080 1.415 . S
C1079 C1078 1.355 . S
C1079 C1081 1.419 . S
C1080 C1078 1.415 . S
C1080 C1085 1.425 1_655 S
C1080 C1087 1.409 1_655 S
C1081 H1073 0.930 . S
C1081 C1079 1.419 . S
C1081 C1082 1.362 . S
C1082 H1074 0.930 . S
C1082 C1081 1.362 . S
C1082 C1085 1.409 1_655 S
C1083 H1075 0.930 . S
C1083 C1084 1.355 . S
C1083 C1085 1.415 . S
C1084 C1083 1.355 . S
C1084 C1086 1.419 . S
C1085 C1080 1.425 1_455 S
C1085 C1082 1.409 1_455 S
C1085 C1083 1.415 . S
C1086 H1076 0.930 . S
C1086 C1084 1.419 . S
C1086 C1087 1.362 . S
C1087 H1077 0.930 1_545 S
C1087 C1080 1.409 1_455 S
C1087 C1086 1.362 . S
H1088 C1094 0.930 . S
H1089 C1097 0.930 . S
H1090 C1098 0.930 . S
H1091 C1099 0.930 . S
H1092 C1102 0.930 . S
H1093 C1103 0.930 . S
C1094 H1088 0.930 . S
C1094 C1095 1.355 . S
C1094 C1096 1.415 . S
C1095 C1094 1.355 . S
C1095 C1097 1.419 . S
C1096 C1094 1.415 . S
C1096 C1101 1.425 . S
C1096 C1103 1.409 . S
C1097 H1089 0.930 . S
C1097 C1095 1.419 . S
C1097 C1098 1.362 . S
C1098 H1090 0.930 . S
C1098 C1097 1.362 . S
C1098 C1101 1.409 . S
C1099 H1091 0.930 . S
C1099 C1100 1.355 . S
C1099 C1101 1.415 . S
C1100 C1099 1.355 . S
C1100 C1102 1.419 . S
C1101 C1096 1.425 . S
C1101 C1098 1.409 . S
C1101 C1099 1.415 . S
C1102 H1092 0.930 . S
C1102 C1100 1.419 . S
C1102 C1103 1.362 . S
C1103 H1093 0.930 . S
C1103 C1096 1.409 . S
C1103 C1102 1.362 . S
H1104 C1110 0.930 . S
H1105 C1113 0.930 . S
H1106 C1114 0.930 . S
H1107 C1115 0.930 . S
H1108 C1118 0.930 . S
H1109 C1119 0.930 . S
C1110 H1104 0.930 . S
C1110 C1111 1.355 . S
C1110 C1112 1.415 . S
C1111 C1110 1.355 . S
C1111 C1113 1.419 . S
C1112 C1110 1.415 . S
C1112 C1117 1.425 . S
C1112 C1119 1.409 . S
C1113 H1105 0.930 . S
C1113 C1111 1.419 . S
C1113 C1114 1.362 . S
C1114 H1106 0.930 . S
C1114 C1113 1.362 . S
C1114 C1117 1.409 . S
C1115 H1107 0.930 . S
C1115 C1116 1.355 . S
C1115 C1117 1.415 . S
C1116 C1115 1.355 . S
C1116 C1118 1.419 . S
C1117 C1112 1.425 . S
C1117 C1114 1.409 . S
C1117 C1115 1.415 . S
C1118 H1108 0.930 . S
C1118 C1116 1.419 . S
C1118 C1119 1.362 . S
C1119 H1109 0.930 . S
C1119 C1112 1.409 . S
C1119 C1118 1.362 . S
H1120 C1126 0.930 1_556 S
H1121 C1129 0.930 . S
H1122 C1130 0.930 . S
H1123 C1131 0.930 . S
H1124 C1134 0.930 1_556 S
H1125 C1135 0.930 . S
C1126 H1120 0.930 1_554 S
C1126 C1127 1.355 . S
C1126 C1128 1.415 . S
C1127 C1126 1.355 . S
C1127 C1129 1.419 . S
C1128 C1126 1.415 . S
C1128 C1133 1.425 . S
C1128 C1135 1.409 1_554 S
C1129 H1121 0.930 . S
C1129 C1127 1.419 . S
C1129 C1130 1.362 . S
C1130 H1122 0.930 . S
C1130 C1129 1.362 . S
C1130 C1133 1.409 . S
C1131 H1123 0.930 . S
C1131 C1132 1.355 . S
C1131 C1133 1.415 . S
C1132 C1131 1.355 . S
C1132 C1134 1.419 . S
C1133 C1128 1.425 . S
C1133 C1130 1.409 . S
C1133 C1131 1.415 . S
C1134 H1124 0.930 1_554 S
C1134 C1132 1.419 . S
C1134 C1135 1.362 1_554 S
C1135 H1125 0.930 . S
C1135 C1128 1.409 1_556 S
C1135 C1134 1.362 1_556 S
H1136 C1142 0.930 . S
H1137 C1145 0.930 . S
H1138 C1146 0.930 . S
H1139 C1147 0.930 . S
H1140 C1150 0.930 . S
H1141 C1151 0.930 . S
C1142 H1136 0.930 . S
C1142 C1143 1.355 . S
C1142 C1144 1.415 . S
C1143 C1142 1.355 . S
C1143 C1145 1.419 . S
C1144 C1142 1.415 . S
C1144 C1149 1.425 . S
C1144 C1151 1.409 . S
C1145 H1137 0.930 . S
C1145 C1143 1.419 . S
C1145 C1146 1.362 . S
C1146 H1138 0.930 . S
C1146 C1145 1.362 . S
C1146 C1149 1.409 . S
C1147 H1139 0.930 . S
C1147 C1148 1.355 . S
C1147 C1149 1.415 . S
C1148 C1147 1.355 . S
C1148 C1150 1.419 . S
C1149 C1144 1.425 . S
C1149 C1146 1.409 . S
C1149 C1147 1.415 . S
C1150 H1140 0.930 . S
C1150 C1148 1.419 . S
C1150 C1151 1.362 . S
C1151 H1141 0.930 . S
C1151 C1144 1.409 . S
C1151 C1150 1.362 . S
H1152 C1158 0.930 . S
H1153 C1161 0.930 . S
H1154 C1162 0.930 . S
H1155 C1163 0.930 . S
H1156 C1166 0.930 . S
H1157 C1167 0.930 . S
C1158 H1152 0.930 . S
C1158 C1159 1.355 . S
C1158 C1160 1.415 . S
C1159 C1158 1.355 . S
C1159 C1161 1.419 . S
C1160 C1158 1.415 . S
C1160 C1165 1.425 . S
C1160 C1167 1.409 . S
C1161 H1153 0.930 . S
C1161 C1159 1.419 . S
C1161 C1162 1.362 . S
C1162 H1154 0.930 . S
C1162 C1161 1.362 . S
C1162 C1165 1.409 . S
C1163 H1155 0.930 . S
C1163 C1164 1.355 . S
C1163 C1165 1.415 . S
C1164 C1163 1.355 . S
C1164 C1166 1.419 . S
C1165 C1160 1.425 . S
C1165 C1162 1.409 . S
C1165 C1163 1.415 . S
C1166 H1156 0.930 . S
C1166 C1164 1.419 . S
C1166 C1167 1.362 . S
C1167 H1157 0.930 . S
C1167 C1160 1.409 . S
C1167 C1166 1.362 . S
H1168 C1174 0.930 . S
H1169 C1177 0.930 . S
H1170 C1178 0.930 . S
H1171 C1179 0.930 . S
H1172 C1182 0.930 . S
H1173 C1183 0.930 . S
C1174 H1168 0.930 . S
C1174 C1175 1.355 . S
C1174 C1176 1.415 . S
C1175 C1174 1.355 . S
C1175 C1177 1.419 . S
C1176 C1174 1.415 . S
C1176 C1181 1.425 1_655 S
C1176 C1183 1.409 1_655 S
C1177 H1169 0.930 . S
C1177 C1175 1.419 . S
C1177 C1178 1.362 . S
C1178 H1170 0.930 . S
C1178 C1177 1.362 . S
C1178 C1181 1.409 1_655 S
C1179 H1171 0.930 . S
C1179 C1180 1.355 . S
C1179 C1181 1.415 . S
C1180 C1179 1.355 . S
C1180 C1182 1.419 . S
C1181 C1176 1.425 1_455 S
C1181 C1178 1.409 1_455 S
C1181 C1179 1.415 . S
C1182 H1172 0.930 . S
C1182 C1180 1.419 . S
C1182 C1183 1.362 . S
C1183 H1173 0.930 . S
C1183 C1176 1.409 1_455 S
C1183 C1182 1.362 . S
H1184 C1190 0.930 . S
H1185 C1193 0.930 . S
H1186 C1194 0.930 . S
H1187 C1195 0.930 . S
H1188 C1198 0.930 . S
H1189 C1199 0.930 . S
C1190 H1184 0.930 . S
C1190 C1191 1.355 . S
C1190 C1192 1.415 . S
C1191 C1190 1.355 . S
C1191 C1193 1.419 . S
C1192 C1190 1.415 . S
C1192 C1197 1.425 1_655 S
C1192 C1199 1.409 1_655 S
C1193 H1185 0.930 . S
C1193 C1191 1.419 . S
C1193 C1194 1.362 . S
C1194 H1186 0.930 . S
C1194 C1193 1.362 . S
C1194 C1197 1.409 1_655 S
C1195 H1187 0.930 . S
C1195 C1196 1.355 . S
C1195 C1197 1.415 . S
C1196 C1195 1.355 . S
C1196 C1198 1.419 . S
C1197 C1192 1.425 1_455 S
C1197 C1194 1.409 1_455 S
C1197 C1195 1.415 . S
C1198 H1188 0.930 . S
C1198 C1196 1.419 . S
C1198 C1199 1.362 . S
C1199 H1189 0.930 . S
C1199 C1192 1.409 1_455 S
C1199 C1198 1.362 . S
H1200 C1206 0.930 . S
H1201 C1209 0.930 . S
H1202 C1210 0.930 . S
H1203 C1211 0.930 . S
H1204 C1214 0.930 . S
H1205 C1215 0.930 . S
C1206 H1200 0.930 . S
C1206 C1207 1.355 . S
C1206 C1208 1.415 . S
C1207 C1206 1.355 . S
C1207 C1209 1.419 . S
C1208 C1206 1.415 . S
C1208 C1213 1.425 . S
C1208 C1215 1.409 . S
C1209 H1201 0.930 . S
C1209 C1207 1.419 . S
C1209 C1210 1.362 . S
C1210 H1202 0.930 . S
C1210 C1209 1.362 . S
C1210 C1213 1.409 . S
C1211 H1203 0.930 . S
C1211 C1212 1.355 . S
C1211 C1213 1.415 . S
C1212 C1211 1.355 . S
C1212 C1214 1.419 . S
C1213 C1208 1.425 . S
C1213 C1210 1.409 . S
C1213 C1211 1.415 . S
C1214 H1204 0.930 . S
C1214 C1212 1.419 . S
C1214 C1215 1.362 . S
C1215 H1205 0.930 . S
C1215 C1208 1.409 . S
C1215 C1214 1.362 . S
H1216 C1222 0.930 . S
H1217 C1225 0.930 . S
H1218 C1226 0.930 . S
H1219 C1227 0.930 . S
H1220 C1230 0.930 . S
H1221 C1231 0.930 . S
C1222 H1216 0.930 . S
C1222 C1223 1.355 . S
C1222 C1224 1.415 . S
C1223 C1222 1.355 . S
C1223 C1225 1.419 . S
C1224 C1222 1.415 . S
C1224 C1229 1.425 . S
C1224 C1231 1.409 . S
C1225 H1217 0.930 . S
C1225 C1223 1.419 . S
C1225 C1226 1.362 . S
C1226 H1218 0.930 . S
C1226 C1225 1.362 . S
C1226 C1229 1.409 . S
C1227 H1219 0.930 . S
C1227 C1228 1.355 . S
C1227 C1229 1.415 . S
C1228 C1227 1.355 . S
C1228 C1230 1.419 . S
C1229 C1224 1.425 . S
C1229 C1226 1.409 . S
C1229 C1227 1.415 . S
C1230 H1220 0.930 . S
C1230 C1228 1.419 . S
C1230 C1231 1.362 . S
C1231 H1221 0.930 . S
C1231 C1224 1.409 . S
C1231 C1230 1.362 . S
H1232 C1238 0.930 . S
H1233 C1241 0.930 . S
H1234 C1242 0.930 . S
H1235 C1243 0.930 . S
H1236 C1246 0.930 . S
H1237 C1247 0.930 . S
C1238 H1232 0.930 . S
C1238 C1239 1.355 . S
C1238 C1240 1.415 . S
C1239 C1238 1.355 . S
C1239 C1241 1.419 . S
C1240 C1238 1.415 . S
C1240 C1245 1.425 . S
C1240 C1247 1.409 1_565 S
C1241 H1233 0.930 . S
C1241 C1239 1.419 . S
C1241 C1242 1.362 . S
C1242 H1234 0.930 . S
C1242 C1241 1.362 . S
C1242 C1245 1.409 . S
C1243 H1235 0.930 . S
C1243 C1244 1.355 1_565 S
C1243 C1245 1.415 . S
C1244 C1243 1.355 1_545 S
C1244 C1246 1.419 . S
C1245 C1240 1.425 . S
C1245 C1242 1.409 . S
C1245 C1243 1.415 . S
C1246 H1236 0.930 . S
C1246 C1244 1.419 . S
C1246 C1247 1.362 . S
C1247 H1237 0.930 . S
C1247 C1240 1.409 1_545 S
C1247 C1246 1.362 . S
H1248 C1254 0.930 . S
H1249 C1257 0.930 . S
H1250 C1258 0.930 . S
H1251 C1259 0.930 . S
H1252 C1262 0.930 . S
H1253 C1263 0.930 . S
C1254 H1248 0.930 . S
C1254 C1255 1.355 . S
C1254 C1256 1.415 . S
C1255 C1254 1.355 . S
C1255 C1257 1.419 . S
C1256 C1254 1.415 . S
C1256 C1261 1.425 . S
C1256 C1263 1.409 . S
C1257 H1249 0.930 . S
C1257 C1255 1.419 . S
C1257 C1258 1.362 . S
C1258 H1250 0.930 . S
C1258 C1257 1.362 . S
C1258 C1261 1.409 . S
C1259 H1251 0.930 . S
C1259 C1260 1.355 . S
C1259 C1261 1.415 . S
C1260 C1259 1.355 . S
C1260 C1262 1.419 . S
C1261 C1256 1.425 . S
C1261 C1258 1.409 . S
C1261 C1259 1.415 . S
C1262 H1252 0.930 . S
C1262 C1260 1.419 . S
C1262 C1263 1.362 . S
C1263 H1253 0.930 . S
C1263 C1256 1.409 . S
C1263 C1262 1.362 . S
H1264 C1270 0.930 . S
H1265 C1273 0.930 . S
H1266 C1274 0.930 . S
H1267 C1275 0.930 . S
H1268 C1278 0.930 . S
H1269 C1279 0.930 1_545 S
C1270 H1264 0.930 . S
C1270 C1271 1.355 1_554 S
C1270 C1272 1.415 1_545 S
C1271 C1270 1.355 1_556 S
C1271 C1273 1.419 1_545 S
C1272 C1270 1.415 1_565 S
C1272 C1277 1.425 . S
C1272 C1279 1.409 . S
C1273 H1265 0.930 . S
C1273 C1271 1.419 1_565 S
C1273 C1274 1.362 1_556 S
C1274 H1266 0.930 . S
C1274 C1273 1.362 1_554 S
C1274 C1277 1.409 . S
C1275 H1267 0.930 . S
C1275 C1276 1.355 . S
C1275 C1277 1.415 . S
C1276 C1275 1.355 . S
C1276 C1278 1.419 . S
C1277 C1272 1.425 . S
C1277 C1274 1.409 . S
C1277 C1275 1.415 . S
C1278 H1268 0.930 . S
C1278 C1276 1.419 . S
C1278 C1279 1.362 . S
C1279 H1269 0.930 1_565 S
C1279 C1272 1.409 . S
C1279 C1278 1.362 . S
H1280 C1286 0.930 . S
H1281 C1289 0.930 . S
H1282 C1290 0.930 . S
H1283 C1291 0.930 . S
H1284 C1294 0.930 . S
H1285 C1295 0.930 . S
C1286 H1280 0.930 . S
C1286 C1287 1.355 . S
C1286 C1288 1.415 . S
C1287 C1286 1.355 . S
C1287 C1289 1.419 . S
C1288 C1286 1.415 . S
C1288 C1293 1.425 . S
C1288 C1295 1.409 . S
C1289 H1281 0.930 . S
C1289 C1287 1.419 . S
C1289 C1290 1.362 . S
C1290 H1282 0.930 . S
C1290 C1289 1.362 . S
C1290 C1293 1.409 . S
C1291 H1283 0.930 . S
C1291 C1292 1.355 . S
C1291 C1293 1.415 . S
C1292 C1291 1.355 . S
C1292 C1294 1.419 . S
C1293 C1288 1.425 . S
C1293 C1290 1.409 . S
C1293 C1291 1.415 . S
C1294 H1284 0.930 . S
C1294 C1292 1.419 . S
C1294 C1295 1.362 . S
C1295 H1285 0.930 . S
C1295 C1288 1.409 . S
C1295 C1294 1.362 . S
H1296 C1302 0.930 . S
H1297 C1305 0.930 . S
H1298 C1306 0.930 . S
H1299 C1307 0.930 . S
H1300 C1310 0.930 . S
H1301 C1311 0.930 . S
C1302 H1296 0.930 . S
C1302 C1303 1.355 . S
C1302 C1304 1.415 1_545 S
C1303 C1302 1.355 . S
C1303 C1305 1.419 . S
C1304 C1302 1.415 1_565 S
C1304 C1309 1.425 . S
C1304 C1311 1.409 . S
C1305 H1297 0.930 . S
C1305 C1303 1.419 . S
C1305 C1306 1.362 1_545 S
C1306 H1298 0.930 . S
C1306 C1305 1.362 1_565 S
C1306 C1309 1.409 . S
C1307 H1299 0.930 . S
C1307 C1308 1.355 . S
C1307 C1309 1.415 . S
C1308 C1307 1.355 . S
C1308 C1310 1.419 . S
C1309 C1304 1.425 . S
C1309 C1306 1.409 . S
C1309 C1307 1.415 . S
C1310 H1300 0.930 . S
C1310 C1308 1.419 . S
C1310 C1311 1.362 . S
C1311 H1301 0.930 . S
C1311 C1304 1.409 . S
C1311 C1310 1.362 . S
H1312 C1318 0.930 . S
H1313 C1321 0.930 . S
H1314 C1322 0.930 . S
H1315 C1323 0.930 . S
H1316 C1326 0.930 . S
H1317 C1327 0.930 . S
C1318 H1312 0.930 . S
C1318 C1319 1.355 . S
C1318 C1320 1.415 . S
C1319 C1318 1.355 . S
C1319 C1321 1.419 . S
C1320 C1318 1.415 . S
C1320 C1325 1.425 . S
C1320 C1327 1.409 . S
C1321 H1313 0.930 . S
C1321 C1319 1.419 . S
C1321 C1322 1.362 . S
C1322 H1314 0.930 . S
C1322 C1321 1.362 . S
C1322 C1325 1.409 . S
C1323 H1315 0.930 . S
C1323 C1324 1.355 . S
C1323 C1325 1.415 . S
C1324 C1323 1.355 . S
C1324 C1326 1.419 . S
C1325 C1320 1.425 . S
C1325 C1322 1.409 . S
C1325 C1323 1.415 . S
C1326 H1316 0.930 . S
C1326 C1324 1.419 . S
C1326 C1327 1.362 . S
C1327 H1317 0.930 . S
C1327 C1320 1.409 . S
C1327 C1326 1.362 . S
H1328 C1334 0.930 . S
H1329 C1337 0.952 . S
H1330 C1338 0.930 . S
H1331 C1339 0.930 . S
H1332 C1342 0.930 . S
H1333 C1343 0.930 . S
C1334 H1328 0.930 . S
C1334 C1335 1.355 . S
C1334 C1336 1.415 . S
C1335 C1334 1.355 . S
C1335 C1337 1.419 . S
C1336 C1334 1.415 . S
C1336 C1341 1.394 1_565 S
C1336 C1343 1.409 . S
C1337 H1329 0.952 . S
C1337 C1335 1.419 . S
C1337 C1338 1.362 1_565 S
C1338 H1330 0.930 . S
C1338 C1337 1.362 1_545 S
C1338 C1341 1.420 . S
C1339 H1331 0.930 . S
C1339 C1340 1.355 1_554 S
C1339 C1341 1.435 . S
C1340 C1339 1.355 1_556 S
C1340 C1342 1.419 1_545 S
C1341 C1336 1.394 1_545 S
C1341 C1338 1.420 . S
C1341 C1339 1.435 . S
C1342 H1332 0.930 . S
C1342 C1340 1.419 1_565 S
C1342 C1343 1.362 1_556 S
C1343 H1333 0.930 . S
C1343 C1336 1.409 . S
C1343 C1342 1.362 1_554 S
H1344 C1350 0.930 . S
H1345 C1353 0.930 . S
H1346 C1354 0.930 . S
H1347 C1355 0.930 . S
H1348 C1358 0.930 . S
H1349 C1359 0.930 . S
C1350 H1344 0.930 . S
C1350 C1351 1.355 . S
C1350 C1352 1.415 . S
C1351 C1350 1.355 . S
C1351 C1353 1.419 . S
C1352 C1350 1.415 . S
C1352 C1357 1.425 . S
C1352 C1359 1.409 . S
C1353 H1345 0.930 . S
C1353 C1351 1.419 . S
C1353 C1354 1.362 . S
C1354 H1346 0.930 . S
C1354 C1353 1.362 . S
C1354 C1357 1.409 . S
C1355 H1347 0.930 . S
C1355 C1356 1.355 . S
C1355 C1357 1.415 . S
C1356 C1355 1.355 . S
C1356 C1358 1.419 . S
C1357 C1352 1.425 . S
C1357 C1354 1.409 . S
C1357 C1355 1.415 . S
C1358 H1348 0.930 . S
C1358 C1356 1.419 . S
C1358 C1359 1.362 . S
C1359 H1349 0.930 . S
C1359 C1352 1.409 . S
C1359 C1358 1.362 . S
H1360 C1366 0.930 . S
H1361 C1369 0.930 . S
H1362 C1370 0.930 . S
H1363 C1371 0.930 1_556 S
H1364 C1374 0.930 . S
H1365 C1375 0.930 . S
C1366 H1360 0.930 . S
C1366 C1367 1.355 . S
C1366 C1368 1.415 . S
C1367 C1366 1.355 . S
C1367 C1369 1.419 . S
C1368 C1366 1.415 . S
C1368 C1373 1.425 . S
C1368 C1375 1.409 . S
C1369 H1361 0.930 . S
C1369 C1367 1.419 . S
C1369 C1370 1.362 . S
C1370 H1362 0.930 . S
C1370 C1369 1.362 . S
C1370 C1373 1.409 . S
C1371 H1363 0.930 1_554 S
C1371 C1372 1.355 1_554 S
C1371 C1373 1.415 . S
C1372 C1371 1.355 1_556 S
C1372 C1374 1.419 1_556 S
C1373 C1368 1.425 . S
C1373 C1370 1.409 . S
C1373 C1371 1.415 . S
C1374 H1364 0.930 . S
C1374 C1372 1.419 1_554 S
C1374 C1375 1.362 . S
C1375 H1365 0.930 . S
C1375 C1368 1.409 . S
C1375 C1374 1.362 . S
H1376 C1382 0.930 . S
H1377 C1385 0.930 . S
H1378 C1386 0.930 . S
H1379 C1387 0.930 . S
H1380 C1390 0.930 . S
H1381 C1391 0.930 . S
C1382 H1376 0.930 . S
C1382 C1383 1.355 . S
C1382 C1384 1.415 . S
C1383 C1382 1.355 . S
C1383 C1385 1.419 . S
C1384 C1382 1.415 . S
C1384 C1389 1.425 . S
C1384 C1391 1.409 . S
C1385 H1377 0.930 . S
C1385 C1383 1.419 . S
C1385 C1386 1.362 . S
C1386 H1378 0.930 . S
C1386 C1385 1.362 . S
C1386 C1389 1.409 . S
C1387 H1379 0.930 . S
C1387 C1388 1.355 . S
C1387 C1389 1.415 . S
C1388 C1387 1.355 . S
C1388 C1390 1.419 . S
C1389 C1384 1.425 . S
C1389 C1386 1.409 . S
C1389 C1387 1.415 . S
C1390 H1380 0.930 . S
C1390 C1388 1.419 . S
C1390 C1391 1.362 . S
C1391 H1381 0.930 . S
C1391 C1384 1.409 . S
C1391 C1390 1.362 . S
H1392 C1398 0.930 . S
H1393 C1401 0.930 . S
H1394 C1402 0.930 . S
H1395 C1403 0.930 . S
H1396 C1406 0.930 . S
H1397 C1407 0.930 . S
C1398 H1392 0.930 . S
C1398 C1399 1.355 . S
C1398 C1400 1.415 . S
C1399 C1398 1.355 . S
C1399 C1401 1.419 . S
C1400 C1398 1.415 . S
C1400 C1405 1.425 . S
C1400 C1407 1.409 . S
C1401 H1393 0.930 . S
C1401 C1399 1.419 . S
C1401 C1402 1.362 . S
C1402 H1394 0.930 . S
C1402 C1401 1.362 . S
C1402 C1405 1.409 . S
C1403 H1395 0.930 . S
C1403 C1404 1.355 . S
C1403 C1405 1.415 . S
C1404 C1403 1.355 . S
C1404 C1406 1.419 . S
C1405 C1400 1.425 . S
C1405 C1402 1.409 . S
C1405 C1403 1.415 . S
C1406 H1396 0.930 . S
C1406 C1404 1.419 . S
C1406 C1407 1.362 . S
C1407 H1397 0.930 . S
C1407 C1400 1.409 . S
C1407 C1406 1.362 . S
H1408 C1414 0.930 . S
H1409 C1417 0.930 . S
H1410 C1418 0.930 . S
H1411 C1419 0.930 . S
H1412 C1422 0.930 . S
H1413 C1423 0.930 . S
C1414 H1408 0.930 . S
C1414 C1415 1.355 . S
C1414 C1416 1.415 . S
C1415 C1414 1.355 . S
C1415 C1417 1.419 . S
C1416 C1414 1.415 . S
C1416 C1421 1.425 . S
C1416 C1423 1.409 . S
C1417 H1409 0.930 . S
C1417 C1415 1.419 . S
C1417 C1418 1.362 . S
C1418 H1410 0.930 . S
C1418 C1417 1.362 . S
C1418 C1421 1.409 . S
C1419 H1411 0.930 . S
C1419 C1420 1.355 . S
C1419 C1421 1.415 . S
C1420 C1419 1.355 . S
C1420 C1422 1.419 . S
C1421 C1416 1.425 . S
C1421 C1418 1.409 . S
C1421 C1419 1.415 . S
C1422 H1412 0.930 . S
C1422 C1420 1.419 . S
C1422 C1423 1.362 . S
C1423 H1413 0.930 . S
C1423 C1416 1.409 . S
C1423 C1422 1.362 . S
H1424 C1430 0.930 . S
H1425 C1433 0.930 . S
H1426 C1434 0.930 . S
H1427 C1435 0.930 . S
H1428 C1438 0.930 . S
H1429 C1439 0.930 . S
C1430 H1424 0.930 . S
C1430 C1431 1.355 1_554 S
C1430 C1432 1.415 . S
C1431 C1430 1.355 1_556 S
C1431 C1433 1.419 . S
C1432 C1430 1.415 . S
C1432 C1437 1.425 . S
C1432 C1439 1.409 . S
C1433 H1425 0.930 . S
C1433 C1431 1.419 . S
C1433 C1434 1.362 1_556 S
C1434 H1426 0.930 . S
C1434 C1433 1.362 1_554 S
C1434 C1437 1.409 . S
C1435 H1427 0.930 . S
C1435 C1436 1.355 . S
C1435 C1437 1.415 . S
C1436 C1435 1.355 . S
C1436 C1438 1.419 . S
C1437 C1432 1.425 . S
C1437 C1434 1.409 . S
C1437 C1435 1.415 . S
C1438 H1428 0.930 . S
C1438 C1436 1.419 . S
C1438 C1439 1.362 . S
C1439 H1429 0.930 . S
C1439 C1432 1.409 . S
C1439 C1438 1.362 . S
H1440 C1446 0.930 . S
H1441 C1449 0.930 . S
H1442 C1450 0.930 . S
H1443 C1451 0.930 . S
H1444 C1454 0.930 . S
H1445 C1455 0.930 . S
C1446 H1440 0.930 . S
C1446 C1447 1.355 . S
C1446 C1448 1.415 . S
C1447 C1446 1.355 . S
C1447 C1449 1.419 . S
C1448 C1446 1.415 . S
C1448 C1453 1.425 . S
C1448 C1455 1.409 . S
C1449 H1441 0.930 . S
C1449 C1447 1.419 . S
C1449 C1450 1.362 . S
C1450 H1442 0.930 . S
C1450 C1449 1.362 . S
C1450 C1453 1.409 . S
C1451 H1443 0.930 . S
C1451 C1452 1.355 . S
C1451 C1453 1.415 . S
C1452 C1451 1.355 . S
C1452 C1454 1.419 . S
C1453 C1448 1.425 . S
C1453 C1450 1.409 . S
C1453 C1451 1.415 . S
C1454 H1444 0.930 . S
C1454 C1452 1.419 . S
C1454 C1455 1.362 . S
C1455 H1445 0.930 . S
C1455 C1448 1.409 . S
C1455 C1454 1.362 . S
H1456 C1462 0.930 . S
H1457 C1465 0.930 . S
H1458 C1466 0.930 . S
H1459 C1467 0.930 . S
H1460 C1470 0.930 . S
H1461 C1471 0.930 . S
C1462 H1456 0.930 . S
C1462 C1463 1.355 . S
C1462 C1464 1.415 . S
C1463 C1462 1.355 . S
C1463 C1465 1.419 . S
C1464 C1462 1.415 . S
C1464 C1469 1.425 . S
C1464 C1471 1.409 . S
C1465 H1457 0.930 . S
C1465 C1463 1.419 . S
C1465 C1466 1.362 . S
C1466 H1458 0.930 . S
C1466 C1465 1.362 . S
C1466 C1469 1.409 . S
C1467 H1459 0.930 . S
C1467 C1468 1.355 . S
C1467 C1469 1.415 . S
C1468 C1467 1.355 . S
C1468 C1470 1.419 . S
C1469 C1464 1.425 . S
C1469 C1466 1.409 . S
C1469 C1467 1.415 . S
C1470 H1460 0.930 . S
C1470 C1468 1.419 . S
C1470 C1471 1.362 . S
C1471 H1461 0.930 . S
C1471 C1464 1.409 . S
C1471 C1470 1.362 . S
C455 C109 1.506 . S
C460 C11 1.510 . S
C471 C25 1.564 . S
C476 C67 1.554 . S
C487 C81 1.518 . S
C492 C39 1.509 . S
C503 C53 1.519 . S
C508 C95 1.532 . S
C519 C123 1.509 . S
C524 C221 1.505 . S
C535 C137 1.566 . S
C540 C179 1.569 . S
C551 C151 1.521 . S
C556 C193 1.511 . S
C567 C165 1.548 . S
C572 C207 1.534 . S
C583 C235 1.561 . S
C588 C333 1.568 . S
C599 C249 1.507 . S
C604 C291 1.513 . S
C615 C305 1.505 . S
C620 C263 1.509 . S
C631 C319 1.524 . S
C636 C277 1.537 . S
C647 C347 1.535 . S
C652 C445 1.549 . S
C663 C403 1.569 . S
C668 C361 1.564 . S
C679 C417 1.510 . S
C684 C375 1.520 . S
C695 C389 1.535 . S
C700 C431 1.522 . S
C711 C9 0.753 . S
C716 C93 0.746 . S
C727 C23 0.757 . S
C732 C107 0.752 . S
C743 C65 0.678 . S
C748 C37 0.682 . S
C759 C51 0.689 . S
C764 C79 0.682 . S
C775 C121 0.744 . S
C780 C205 0.751 . S
C791 C135 0.758 . S
C796 C219 0.754 . S
C807 C177 0.755 . S
C812 C149 0.758 . S
C823 C191 0.680 . S
C828 C163 0.677 . S
C839 C233 0.753 . S
C844 C317 0.757 . S
C855 C331 0.732 . S
C860 C247 0.722 . S
C871 C289 0.759 . S
C876 C261 0.755 . S
C887 C275 0.755 . S
C892 C303 0.759 . S
C903 C345 0.742 . S
C908 C429 0.749 . S
C919 C359 0.719 . S
C924 C443 0.709 . S
C935 C401 0.740 . S
C940 C373 0.730 . S
C951 C415 0.752 . S
C956 C387 0.757 . S
C967 C5 1.505 . S
C972 C425 1.522 . S
C983 C19 1.518 . S
C988 C215 1.509 . S
C999 C33 1.515 . S
C1004 C397 1.512 . S
C1015 C47 1.521 . S
C1020 C187 1.506 . S
C1031 C61 1.512 . S
C1036 C369 1.515 . S
C1047 C75 1.517 . S
C1052 C159 1.510 . S
C1063 C89 1.507 . S
C1068 C341 1.520 . S
C1079 C131 1.518 . S
C1084 C103 1.509 . S
C1095 C313 1.520 . S
C1100 C117 1.507 . S
C1111 C145 1.507 . S
C1116 C285 1.520 . S
C1127 C257 1.515 . S
C1132 C173 1.512 . S
C1143 C229 1.506 . S
C1148 C201 1.521 . S
C1159 C243 1.509 . S
C1164 C439 1.517 . S
C1175 C271 1.521 . S
C1180 C411 1.506 . S
C1191 C299 1.507 . S
C1196 C383 1.519 . S
C1207 C355 1.522 . S
C1212 C327 1.505 . S
C1223 C0 1.563 . S
C1228 C84 1.581 . S
C1239 C14 1.591 . S
C1244 C98 1.611 . S
C1255 C56 1.593 1_556 S
C1260 C28 1.611 . S
C1271 C42 1.565 . S
C1276 C70 1.600 . S
C1287 C112 1.593 1_556 S
C1292 C196 1.562 . S
C1303 C126 1.608 . S
C1308 C210 1.573 . S
C1319 C168 1.610 . S
C1324 C140 1.596 . S
C1335 C154 1.567 . S
C1340 C182 1.572 . S
C1351 C308 1.610 1_556 S
C1356 C224 1.577 . S
C1367 C322 1.609 . S
C1372 C238 1.597 . S
C1383 C280 1.578 . S
C1388 C252 1.611 . S
C1399 C294 1.562 . S
C1404 C266 1.584 . S
C1415 C420 1.574 . S
C1420 C336 1.566 . S
C1431 C434 1.562 . S
C1436 C350 1.590 . S
C1447 C364 1.564 1_556 S
C1452 C392 1.579 . S
C1463 C406 1.566 . S
C1468 C378 1.573 . S
