# Generated by pormake.
# Topology kag, (6)-cn, num edge types: 1
# Building blocks:
#     Node 0, Type 0, BuildingBlock: KUMBUR_clean_sbu_0, # of connection points: 6
#     Node 1, Type 0, BuildingBlock: KUMBUR_clean_sbu_0, # of connection points: 6
#     Node 2, Type 0, BuildingBlock: KUMBUR_clean_sbu_0, # of connection points: 6
#     Edge 3, Type (0, 0), BuildingBlock: ZUJKAS_clean_linker_0, # of connection points: 2
#     Edge 4, Type (0, 0), BuildingBlock: ZUJKAS_clean_linker_0, # of connection points: 2
#     Edge 5, Type (0, 0), BuildingBlock: ZUJKAS_clean_linker_0, # of connection points: 2
#     Edge 6, Type (0, 0), BuildingBlock: ZUJKAS_clean_linker_0, # of connection points: 2
#     Edge 7, Type (0, 0), BuildingBlock: ZUJKAS_clean_linker_0, # of connection points: 2
#     Edge 8, Type (0, 0), BuildingBlock: ZUJKAS_clean_linker_0, # of connection points: 2
#     Edge 9, Type (0, 0), BuildingBlock: ZUJKAS_clean_linker_0, # of connection points: 2
#     Edge 10, Type (0, 0), BuildingBlock: ZUJKAS_clean_linker_0, # of connection points: 2
#     Edge 11, Type (0, 0), BuildingBlock: ZUJKAS_clean_linker_0, # of connection points: 2
# Relax obj value: 0.054
# Max RMSD: 0.171
# Mean RMSD: 0.129
data_MOF--net-kag--node1-KUMBUR_clean_sbu_0--edge1-ZUJKAS_clean_linker_0
_symmetry_space_group_name_H-M    P1
_symmetry_Int_Tables_number       1
_symmetry_cell_setting            triclinic
loop_
_symmetry_equiv_pos_as_xyz
'x, y, z'
_cell_length_a     48.68845
_cell_length_b     39.74557
_cell_length_c     19.736774
_cell_angle_alpha  93.588959
_cell_angle_beta   114.02495
_cell_angle_gamma 102.68333
loop_
_atom_site_label
_atom_site_type_symbol
_atom_site_fract_x
_atom_site_fract_y
_atom_site_fract_z
_atom_type_partial_charge
Tb0 Tb 0.99842 0.47806 0.97994 0.0
C1 C 1.00634 0.62442 0.10179 0.0
C2 C 0.95571 0.63146 0.0213 0.0
C3 C 0.98338 0.66241 0.15053 0.0
C4 C 0.98044 0.61617 0.03325 0.0
C5 C 1.00852 0.64821 0.16083 0.0
C6 C 0.95698 0.654 0.08088 0.0
C7 C 0.06097 0.64391 0.23339 0.0
N8 N 0.03 0.61003 0.10943 0.0
C9 C 0.05766 0.62038 0.17309 0.0
C10 C 0.03614 0.65757 0.22763 0.0
Tb11 Tb 0.02164 0.57068 0.0089 0.0
N12 N 0.98034 0.59467 0.97703 0.0
C13 C 0.95718 0.58953 0.90551 0.0
C14 C 0.93092 0.62441 0.94935 0.0
C15 C 0.93191 0.60376 0.89094 0.0
H16 H 0.07689 0.60976 0.17839 0.0
H17 H 0.91315 0.59867 0.83473 0.0
H18 H 0.93806 0.66575 0.07309 0.0
H19 H 0.08261 0.65139 0.28432 0.0
H20 H 0.95739 0.57348 0.85971 0.0
H21 H 0.10694 0.44972 0.15216 0.0
H22 H 0.91135 0.63548 0.93788 0.0
H23 H 0.94263 0.43912 0.81075 0.0
H24 H 0.06299 0.47531 0.12813 0.0
H25 H 0.93642 0.39736 0.7045 0.0
H26 H 0.98442 0.68051 0.19544 0.0
H27 H 0.10808 0.41249 0.04858 0.0
H28 H 0.08085 0.38209 0.91346 0.0
H29 H 0.03876 0.67579 0.27441 0.0
H30 H 0.03426 0.36753 0.79161 0.0
N31 N 0.03955 0.4539 0.01093 0.0
C32 C 0.06294 0.45911 0.08215 0.0
C33 C 0.08864 0.42375 0.03752 0.0
C34 C 0.06366 0.41672 0.96586 0.0
C35 C 0.08804 0.44464 0.09617 0.0
C36 C 0.03911 0.43223 0.95444 0.0
H37 H 0.97998 0.37261 0.71346 0.0
N38 N 0.98959 0.43878 0.87884 0.0
C39 C 0.95818 0.40481 0.75512 0.0
C40 C 0.01309 0.42416 0.88605 0.0
C41 C 0.96178 0.42846 0.81559 0.0
C42 C 0.98284 0.39095 0.76036 0.0
C43 C 1.0106 0.40021 0.82684 0.0
O44 O 0.955 0.44656 0.96454 0.0
O45 O 0.98507 0.52528 0.99416 0.0
O46 O 0.01517 0.55701 0.10777 0.0
O47 O 0.01969 0.49999 0.10184 0.0
O48 O 0.95271 0.4862 0.91083 0.0
O49 O 0.99761 0.44281 0.05468 0.0
O50 O 0.06477 0.60403 0.02705 0.0
O51 O 0.03508 0.52355 -0.00492 0.0
O52 O 1.00484 0.4915 0.88096 0.0
O53 O 1.00069 0.54868 0.88706 0.0
O54 O 0.0675 0.56278 0.07758 0.0
O55 O 0.0224 0.60402 0.93091 0.0
C56 C 0.95692 0.51665 0.9456 0.0
C57 C 0.95558 0.39173 -0.00177 0.0
C58 C 0.91326 0.33989 0.9724 0.0
C59 C 0.92683 0.37593 -0.0023 0.0
C60 C 0.92874 0.3198 0.94709 0.0
C61 C 0.97109 0.37135 0.97408 0.0
C62 C 0.95759 0.33552 0.94827 0.0
C63 C 0.01902 0.52876 0.13855 0.0
C64 C 0.96747 0.42977 0.01842 0.0
C65 C 0.03554 0.38574 0.83667 0.0
C66 C 0.06207 0.39403 0.90605 0.0
C67 C 0.06331 0.53227 0.04318 0.0
C68 C 0.062 0.65711 0.98471 0.0
C69 C 0.09047 0.67405 0.98519 0.0
C70 C 0.10147 0.71066 0.00256 0.0
C71 C 0.08357 0.7301 0.01991 0.0
C72 C 0.04427 0.67677 0.00164 0.0
C73 C 0.05513 0.71315 0.01941 0.0
C74 C 1.00129 0.51985 0.85039 0.0
C75 C 0.05217 0.61891 0.96959 0.0
H76 H 0.91472 0.39184 0.01566 0.0
H77 H 0.91883 0.29186 0.92782 0.0
H78 H 0.99342 0.38303 0.97475 0.0
H79 H 0.96953 0.3199 0.92927 0.0
H80 H 0.10385 0.65863 0.97118 0.0
H81 H 0.09165 0.75836 0.03439 0.0
H82 H 0.02216 0.66413 0.00116 0.0
H83 H 0.04148 0.72825 0.03289 0.0
Tb84 Tb 0.55274 0.04025 0.04111 0.0
C85 C 0.44602 0.07479 0.87442 0.0
C86 C 0.43773 0.10988 0.96578 0.0
C87 C 0.42781 0.12674 0.84373 0.0
C88 C 0.44694 0.08098 0.94531 0.0
C89 C 0.43557 0.09718 0.82219 0.0
C90 C 0.42889 0.13307 0.91534 0.0
C91 C 0.43685 0.05714 0.72762 0.0
N92 N 0.45348 0.04584 0.85504 0.0
C93 C 0.44627 0.03541 0.7806 0.0
C94 C 0.4322 0.08864 0.74897 0.0
Tb95 Tb 0.47002 1.01311 0.9494 0.0
N96 N 0.45608 0.0584 0.99352 0.0
C97 C 0.45244 0.06097 0.05883 0.0
C98 C 0.43728 0.11443 0.03602 0.0
C99 C 0.44406 0.08944 0.08207 0.0
H100 H 0.44671 1.00977 0.76041 0.0
H101 H 0.44207 0.09156 0.13474 0.0
H102 H 0.42219 0.15559 0.9306 0.0
H103 H 0.43233 0.04905 0.66981 0.0
H104 H 0.45454 0.0407 0.09265 0.0
H105 H 0.59281 0.98954 0.84527 0.0
H106 H 0.43054 0.13637 0.0539 0.0
H107 H 0.56676 1.02267 0.21632 0.0
H108 H 0.57762 0.03342 0.90348 0.0
H109 H 0.57888 0.97541 0.28538 0.0
H110 H 0.42021 0.14442 0.80472 0.0
H111 H 0.60066 0.93647 0.90065 0.0
H112 H 0.60462 0.9042 0.00697 0.0
H113 H 0.4244 0.10525 0.70752 0.0
H114 H 0.60091 0.90027 0.12685 0.0
N115 N 0.57029 1.00298 0.98381 0.0
C116 C 0.57804 1.00922 0.92524 0.0
C117 C 0.5925 0.9551 0.92484 0.0
C118 C 0.58856 0.95096 0.99033 0.0
C119 C 0.5879 0.98483 0.89316 0.0
C120 C 0.57758 0.97579 0.01933 0.0
H121 H 0.59127 0.92647 0.23067 0.0
N122 N 0.56629 0.99874 0.1153 0.0
C123 C 0.57738 0.97408 0.22898 0.0
C124 C 0.57586 0.97384 0.08743 0.0
C125 C 0.5692 1.00043 0.18766 0.0
C126 C 0.58464 0.94675 0.19825 0.0
C127 C 0.58487 0.94691 0.12772 0.0
O128 O 0.58913 0.06672 0.14559 0.0
O129 O 0.5107 0.05905 -0.00403 0.0
O130 O 0.48827 1.00403 0.86715 0.0
O131 O 0.5365 0.0449 0.92166 0.0
O132 O 0.55231 0.09557 0.03659 0.0
O133 O 0.59518 0.06755 0.04152 0.0
O134 O 0.42633 0.98829 0.86115 0.0
O135 O 0.51186 0.99449 0.00316 0.0
O136 O 0.53477 0.04851 0.12436 0.0
O137 O 0.48548 1.00922 0.06897 0.0
O138 O 0.47236 0.95857 0.93093 0.0
O139 O 0.43407 0.98702 0.9763 0.0
C140 C 0.52285 0.09261 0.00668 0.0
C141 C 0.63986 0.09942 0.15738 0.0
C142 C 0.68708 0.13844 0.16177 0.0
C143 C 0.65642 0.11716 0.12038 0.0
C144 C 0.70098 0.14168 0.24068 0.0
C145 C 0.65417 0.10299 0.23614 0.0
C146 C 0.6846 0.12399 0.27743 0.0
C147 C 0.51276 1.024 0.86263 0.0
C148 C 0.60763 0.07754 0.1142 0.0
C149 C 0.59433 0.92134 0.09715 0.0
C150 C 0.59628 0.92345 0.02876 0.0
C151 C 0.50108 0.96133 0.97468 0.0
C152 C 0.40039 0.93686 0.88622 0.0
C153 C 0.37958 0.92226 0.91548 0.0
C154 C 0.36585 0.88604 0.89933 0.0
C155 C 0.37331 0.86442 0.85404 0.0
C156 C 0.40697 0.91497 0.8392 0.0
C157 C 0.39371 0.87891 0.824 0.0
C158 C 0.50979 0.02928 0.12843 0.0
C159 C 0.41509 0.97479 0.90577 0.0
H160 H 0.64555 0.11429 0.0595 0.0
H161 H 0.7244 0.15826 0.27416 0.0
H162 H 0.64187 0.08952 0.26586 0.0
H163 H 0.69548 0.1267 0.33818 0.0
H164 H 0.37423 0.93907 0.95118 0.0
H165 H 0.36276 0.83642 0.8404 0.0
H166 H 0.42243 0.92556 0.81433 0.0
H167 H 0.39906 0.86219 0.78835 0.0
Tb168 Tb 0.46925 0.51549 0.95589 0.0
C169 C 0.58429 0.61228 0.13186 0.0
C170 C 0.58485 0.65448 0.04895 0.0
C171 C 0.60681 0.67438 0.18368 0.0
C172 C 0.57663 0.61967 0.06022 0.0
C173 C 0.60073 0.63947 0.19477 0.0
C174 C 0.59897 0.68187 0.11079 0.0
C175 C 0.61012 0.59566 0.27417 0.0
N176 N 0.57949 0.5782 0.14008 0.0
C177 C 0.59457 0.56981 0.2099 0.0
C178 C 0.61253 0.63069 0.26673 0.0
Tb179 Tb 0.55152 0.53758 0.03031 0.0
N180 N 0.56302 0.59251 0.00192 0.0
C181 C 0.55916 0.59835 0.93139 0.0
C182 C 0.57939 0.66062 0.97618 0.0
C183 C 0.56695 0.63233 0.91736 0.0
H184 H 0.59411 0.5429 0.21642 0.0
H185 H 0.56337 0.63665 0.86112 0.0
H186 H 0.60488 0.70881 0.10307 0.0
H187 H 0.62074 0.58857 0.32921 0.0
H188 H 0.55056 0.57709 0.88546 0.0
H189 H 0.45779 0.41619 0.12489 0.0
H190 H 0.58534 0.68695 0.96515 0.0
H191 H 0.42675 0.51029 0.76976 0.0
H192 H 0.4704 0.4758 0.10068 0.0
H193 H 0.4002 0.46468 0.65685 0.0
H194 H 0.61896 0.69563 0.23123 0.0
H195 H 0.43569 0.36597 0.02063 0.0
H196 H 0.4159 0.34424 0.88256 0.0
H197 H 0.62522 0.65079 0.31645 0.0
H198 H 0.40183 0.35753 0.75447 0.0
N199 N 0.45778 0.4605 0.9841 0.0
C200 C 0.46177 0.45459 0.05466 0.0
C201 C 0.44157 0.39233 0.00966 0.0
C202 C 0.43594 0.39855 0.93686 0.0
C203 C 0.45409 0.42057 0.06861 0.0
C204 C 0.44413 0.43339 0.9257 0.0
H205 H 0.39568 0.40244 0.66942 0.0
N206 N 0.44129 0.47492 0.846 0.0
C207 C 0.41076 0.45755 0.71186 0.0
C208 C 0.43647 0.44083 0.8541 0.0
C209 C 0.42626 0.48337 0.77621 0.0
C210 C 0.40833 0.42251 0.7192 0.0
C211 C 0.42006 0.41368 0.79112 0.0
O212 O 0.42596 0.52725 0.90076 0.0
O213 O 0.51124 0.56073 0.00844 0.0
O214 O 0.53993 0.52832 0.12481 0.0
O215 O 0.48955 0.5342 0.07762 0.0
O216 O 0.47248 0.56651 0.91935 0.0
O217 O 0.44045 0.51704 0.01247 0.0
O218 O 0.59464 0.52546 0.08544 0.0
O219 O 0.50956 0.4924 0.97781 0.0
O220 O 0.48089 0.52483 0.86146 0.0
O221 O 0.53121 0.51875 0.90864 0.0
O222 O 0.54825 0.48661 0.06699 0.0
O223 O 0.58047 0.53612 0.97409 0.0
C224 C 0.50021 0.58347 0.96792 0.0
C225 C 0.38545 0.50052 0.93419 0.0
C226 C 0.33382 0.48884 0.93731 0.0
C227 C 0.36456 0.5109 0.95988 0.0
C228 C 0.32458 0.45713 0.88788 0.0
C229 C 0.37495 0.46844 0.88576 0.0
C230 C 0.34492 0.44708 0.86283 0.0
C231 C 0.51546 0.53228 0.13395 0.0
C232 C 0.41775 0.52296 0.9552 0.0
C233 C 0.41396 0.37875 0.80209 0.0
C234 C 0.42179 0.3712 0.87493 0.0
C235 C 0.52055 0.46963 0.01827 0.0
C236 C 0.6354 0.55212 0.05292 0.0
C237 C 0.65633 0.54157 0.02761 0.0
C238 C 0.68726 0.56331 0.05114 0.0
C239 C 0.69662 0.59486 0.10123 0.0
C240 C 0.646 0.58408 0.10176 0.0
C241 C 0.67621 0.60511 0.12573 0.0
C242 C 0.50533 0.52074 0.85231 0.0
C243 C 0.603 0.52988 0.03128 0.0
H244 H 0.37222 0.53558 -0.0026 0.0
H245 H 0.30122 0.43997 0.86757 0.0
H246 H 0.38974 0.45993 0.86428 0.0
H247 H 0.33726 0.42258 0.82479 0.0
H248 H 0.64856 0.51699 0.98971 0.0
H249 H 0.72014 0.61174 0.12256 0.0
H250 H 0.63113 0.59273 0.12282 0.0
H251 H 0.68397 0.62949 0.16421 0.0
H252 H 1.00726 0.46812 0.76336 0.0
H253 H 1.00969 0.46947 0.64292 0.0
H254 H 0.99844 0.57407 0.6453 0.0
H255 H 0.99481 0.5725 0.76545 0.0
H256 H 0.96281 0.53128 0.5047 0.0
H257 H 0.08532 0.52307 0.61806 0.0
H258 H 0.05962 0.48818 0.6345 0.0
H259 H 0.06724 0.53242 0.67813 0.0
C260 C 1.00475 0.49126 0.73809 0.0
C261 C 1.00065 0.52012 0.77439 0.0
C262 C 1.0066 0.49215 0.6694 0.0
C263 C 1.00495 0.52214 0.63573 0.0
C264 C 1.00001 0.55072 0.67053 0.0
H265 H 0.01308 0.58038 0.22587 0.0
H266 H 0.01111 0.57907 0.34679 0.0
C267 C 0.99794 0.54976 0.73927 0.0
C268 C 1.00844 0.52358 0.56437 0.0
H269 H 0.05825 0.51725 0.48506 0.0
C270 C 0.98374 0.52842 0.5005 0.0
C271 C 0.03573 0.51969 0.55881 0.0
C272 C 0.06362 0.51587 0.62615 0.0
C273 C 0.98532 0.52882 0.43096 0.0
C274 C 0.01262 0.52497 0.42539 0.0
C275 C 0.03732 0.52011 0.48926 0.0
C276 C 0.01609 0.52648 0.354 0.0
C277 C 0.9574 0.53257 0.36363 0.0
C278 C 0.02105 0.49797 0.31907 0.0
C279 C 0.0229 0.49892 0.25007 0.0
C280 C 0.01991 0.52849 0.21479 0.0
C281 C 0.01582 0.55731 0.25125 0.0
C282 C 0.01422 0.55643 0.32023 0.0
H283 H 0.93569 0.52522 0.37169 0.0
H284 H 0.96129 0.56029 0.35541 0.0
H285 H 0.95384 0.51612 0.31162 0.0
H286 H 0.02278 0.47465 0.34435 0.0
H287 H 0.02604 0.47623 0.22377 0.0
H288 H 0.47307 0.98065 0.17025 0.0
H289 H 0.4735 0.98004 0.29475 0.0
H290 H 0.54617 0.07709 0.38104 0.0
H291 H 0.54588 0.07798 0.25672 0.0
H292 H 0.52695 0.98187 0.43611 0.0
H293 H 0.47699 0.09442 0.44187 0.0
H294 H 0.47339 0.07123 0.35569 0.0
H295 H 0.50954 0.10218 0.41814 0.0
C296 C 0.48897 1.00204 0.21552 0.0
C297 C 0.50936 0.02945 0.20339 0.0
C298 C 0.48928 1.00155 0.28673 0.0
C299 C 0.50966 0.02866 0.34703 0.0
C300 C 0.52997 0.05612 0.33511 0.0
H301 H 0.54566 0.07522 0.81715 0.0
H302 H 0.54536 0.0755 0.69279 0.0
C303 C 0.52985 0.05651 0.26406 0.0
C304 C 0.51011 0.02787 0.42274 0.0
H305 H 0.49539 0.07095 0.55434 0.0
C306 C 0.51994 1.00124 0.4619 0.0
C307 C 0.50106 0.05325 0.45638 0.0
C308 C 0.48939 0.08178 0.41585 0.0
C309 C 0.52149 0.99965 0.53437 0.0
C310 C 0.5123 0.02494 0.56797 0.0
C311 C 0.50245 0.05157 0.52867 0.0
C312 C 0.51278 1.02428 0.64386 0.0
C313 C 0.53368 0.97139 0.57508 0.0
C314 C 0.49445 0.99549 0.65783 0.0
C315 C 0.49474 0.99517 0.72904 0.0
C316 C 0.51315 1.0238 0.78767 0.0
C317 C 0.53142 0.05263 0.77347 0.0
C318 C 0.53114 0.05291 0.70226 0.0
H319 H 0.54747 0.96028 0.55103 0.0
H320 H 0.54857 0.98159 0.63594 0.0
H321 H 0.51369 0.94982 0.56963 0.0
H322 H 0.47964 0.97336 0.61338 0.0
H323 H 0.48042 0.97254 0.7381 0.0
H324 H 0.54436 0.49811 0.80369 0.0
H325 H 0.54569 0.50024 0.68151 0.0
H326 H 0.46598 0.54256 0.60595 0.0
H327 H 0.46488 0.5413 0.72864 0.0
H328 H 0.49975 0.46911 0.53414 0.0
H329 H 0.53214 0.61428 0.5712 0.0
H330 H 0.53465 0.59096 0.64821 0.0
H331 H 0.49752 0.59505 0.58228 0.0
C332 C 0.52701 0.50777 0.76107 0.0
C333 C 0.50447 0.51947 0.77608 0.0
C334 C 0.52778 0.50888 0.69116 0.0
C335 C 0.50622 0.52199 0.63496 0.0
C336 C 0.48315 0.53282 0.64891 0.0
H337 H 0.4763 0.55456 0.18265 0.0
H338 H 0.47504 0.5523 0.30487 0.0
C339 C 0.48233 0.53169 0.71886 0.0
C340 C 0.5083 0.52478 0.56235 0.0
H341 H 0.52121 0.58361 0.45225 0.0
C342 C 0.50453 0.49413 0.51629 0.0
C343 C 0.51465 0.55748 0.5393 0.0
C344 C 0.52026 0.5914 0.58799 0.0
C345 C 0.50633 0.49524 0.44711 0.0
C346 C 0.51264 0.52794 0.42402 0.0
C347 C 0.51643 0.55859 0.4701 0.0
C348 C 0.51464 0.53074 0.35133 0.0
C349 C 0.50076 0.46134 0.39845 0.0
C350 C 0.53775 0.52005 0.33731 0.0
C351 C 0.53855 0.52128 0.26735 0.0
C352 C 0.51633 0.53344 0.21018 0.0
C353 C 0.49373 0.54496 0.22524 0.0
C354 C 0.49299 0.54376 0.29516 0.0
H355 H 0.48901 0.43842 0.4154 0.0
H356 H 0.48629 0.46172 0.33825 0.0
H357 H 0.52352 0.45779 0.40397 0.0
H358 H 0.55498 0.51038 0.38024 0.0
H359 H 0.55603 0.51179 0.25752 0.0
H360 H 0.1236 0.54919 0.14609 0.0
H361 H 0.16953 0.54367 0.12969 0.0
H362 H 0.11042 0.49073 0.90135 0.0
H363 H 0.0645 0.49851 0.91638 0.0
H364 H 0.1914 0.49476 0.1081 0.0
H365 H 0.17032 0.55887 0.85749 0.0
H366 H 0.14686 0.55823 0.90854 0.0
H367 H 0.1392 0.52084 0.84052 0.0
C368 C 0.12033 0.53629 0.0923 0.0
C369 C 0.09017 0.52401 0.03297 0.0
C370 C 0.14674 0.53309 0.08286 0.0
C371 C 0.14404 0.51742 0.01366 0.0
C372 C 0.11371 0.504 0.95475 0.0
H373 H 0.29621 0.44481 0.98428 0.0
H374 H 0.25153 0.453 0.00235 0.0
C375 C 0.08719 0.50778 0.96385 0.0
C376 C 0.17307 0.51508 0.00492 0.0
H377 H 0.21183 0.53152 0.89388 0.0
C378 C 0.19576 0.50304 0.06124 0.0
C379 C 0.17961 0.52638 0.94479 0.0
C380 C 0.15788 0.54215 0.88486 0.0
C381 C 0.22415 0.50172 0.05915 0.0
C382 C 0.23004 0.51136 -0.00277 0.0
C383 C 0.20759 0.52383 0.94125 0.0
C384 C 0.25858 0.5073 0.98816 0.0
C385 C 0.24786 0.49079 0.12496 0.0
C386 C 0.27777 0.53475 0.97222 0.0
C387 C 0.30344 0.52983 0.96005 0.0
C388 C 0.31041 0.49721 0.96292 0.0
C389 C 0.29168 0.47029 0.98113 0.0
C390 C 0.26607 0.47507 0.99238 0.0
H391 H 0.24538 0.49713 0.17748 0.0
H392 H 0.24393 0.46202 0.11368 0.0
H393 H 0.27211 0.50376 0.13474 0.0
H394 H 0.27266 0.55993 0.96815 0.0
H395 H 0.31695 0.55105 0.94527 0.0
H396 H 0.66592 0.17461 0.04553 0.0
H397 H 0.69625 0.2085 0.98727 0.0
H398 H 0.7782 0.18015 0.13505 0.0
H399 H 0.748 0.14546 0.19151 0.0
H400 H 0.74794 0.26525 0.05826 0.0
H401 H 0.77777 0.15938 0.93043 0.0
H402 H 0.74711 0.15091 0.96136 0.0
H403 H 0.78723 0.15765 0.02774 0.0
C404 C 0.69026 0.17508 0.06451 0.0
C405 C 0.70464 0.15745 0.12325 0.0
C406 C 0.70754 0.19457 0.0315 0.0
C407 C 0.73931 0.19639 0.05623 0.0
C408 C 0.75355 0.1785 0.11414 0.0
H409 H 0.89744 0.34803 0.08848 0.0
H410 H 0.85038 0.31574 0.09662 0.0
C411 C 0.73637 0.15905 0.14701 0.0
C412 C 0.75841 0.21863 0.02546 0.0
H413 H 0.81209 0.21734 0.95697 0.0
C414 C 0.76153 0.25478 0.03462 0.0
C415 C 0.77563 0.20484 0.99338 0.0
C416 C 0.77151 0.16601 0.97688 0.0
C417 C 0.78296 0.27778 0.01683 0.0
C418 C 0.80219 0.2642 0.99103 0.0
C419 C 0.79762 0.22785 0.97757 0.0
C420 C 0.82867 0.28696 0.98262 0.0
C421 C 0.78498 0.31633 0.02676 0.0
C422 C 0.83235 0.28124 0.91626 0.0
C423 C 0.85954 0.29913 0.91214 0.0
C424 C 0.88341 0.32314 0.97422 0.0
C425 C 0.87922 0.32986 0.03959 0.0
C426 C 0.85222 0.31164 0.04404 0.0
H427 H 0.76216 0.32066 0.01885 0.0
H428 H 0.80223 0.3289 0.08492 0.0
H429 H 0.79238 0.32941 0.98654 0.0
H430 H 0.81453 0.2622 0.86834 0.0
H431 H 0.86213 0.29383 0.86085 0.0
H432 H 0.50594 0.92361 0.09293 0.0
H433 H 0.50963 0.86287 0.09939 0.0
H434 H 0.51679 0.85703 0.88908 0.0
H435 H 0.5138 0.91755 0.88407 0.0
H436 H 0.4769 0.80081 0.02861 0.0
H437 H 0.58191 0.81005 0.98068 0.0
H438 H 0.57071 0.84826 0.00122 0.0
H439 H 0.55307 0.82422 0.90649 0.0
C440 C 0.50986 0.91008 0.04974 0.0
C441 C 0.5119 0.92758 0.99064 0.0
C442 C 0.51141 0.87448 0.05266 0.0
C443 C 0.51458 0.85386 -0.00395 0.0
C444 C 0.51588 0.87127 0.93625 0.0
H445 H 0.49456 0.62687 0.86397 0.0
H446 H 0.49906 0.68982 0.87443 0.0
C447 C 0.51425 0.90669 0.93337 0.0
C448 C 0.51497 0.81443 -0.00251 0.0
H449 H 0.55069 0.75242 0.96556 0.0
C450 C 0.49349 0.79079 0.01562 0.0
C451 C 0.53616 0.79936 0.98073 0.0
C452 C 0.56197 0.8218 0.96689 0.0
C453 C 0.49219 0.75422 0.01563 0.0
C454 C 0.51299 0.73927 -0.00245 0.0
C455 C 0.53446 0.76273 0.97958 0.0
C456 C 0.5119 0.69956 0.99368 0.0
C457 C 0.46755 0.73129 0.03263 0.0
C458 C 0.51812 0.68208 0.05704 0.0
C459 C 0.51633 0.64531 0.05139 0.0
C460 C 0.50827 0.62409 0.98195 0.0
C461 C 0.50181 0.64172 0.91912 0.0
C462 C 0.5042 0.67829 0.92498 0.0
H463 H 0.45025 0.74495 0.0348 0.0
H464 H 0.45506 0.70722 0.98933 0.0
H465 H 0.47885 0.72312 0.08787 0.0
H466 H 0.52433 0.69688 0.1115 0.0
H467 H 0.5205 0.63336 0.10122 0.0
H468 H 0.89692 0.50097 0.84133 0.0
H469 H 0.85097 0.50746 0.85656 0.0
H470 H 0.90932 0.55693 0.08748 0.0
H471 H 0.95537 0.54875 0.07322 0.0
H472 H 0.85847 0.51237 0.07952 0.0
H473 H 0.81907 0.59087 0.85553 0.0
H474 H 0.82239 0.55035 0.81884 0.0
H475 H 0.85672 0.58207 0.88812 0.0
C476 C 0.90007 0.51367 0.89519 0.0
C477 C 0.93007 0.52507 0.95538 0.0
C478 C 0.87367 0.51759 0.90378 0.0
C479 C 0.87634 0.53349 0.9727 0.0
C480 C 0.90636 0.54485 0.03335 0.0
H481 H 0.72679 0.60754 0.00928 0.0
H482 H 0.77153 0.59852 0.99273 0.0
C483 C 0.93287 0.54055 0.02492 0.0
C484 C 0.84767 0.53709 0.98137 0.0
H485 H 0.78146 0.56459 0.89864 0.0
C486 C 0.84175 0.52403 0.04021 0.0
C487 C 0.82576 0.55271 0.93107 0.0
C488 C 0.83147 0.57013 0.87043 0.0
C489 C 0.81469 0.5257 0.04946 0.0
C490 C 0.79202 0.53984 -0.00308 0.0
C491 C 0.79821 0.55317 0.93856 0.0
C492 C 0.76313 0.54388 0.00439 0.0
C493 C 0.81136 0.5133 0.1171 0.0
C494 C 0.74216 0.51603 0.01432 0.0
C495 C 0.71643 0.52142 0.02557 0.0
C496 C 0.71077 0.5547 0.02616 0.0
C497 C 0.7306 0.58171 0.01108 0.0
C498 C 0.75634 0.5765 0.00108 0.0
H499 H 0.83422 0.51287 0.16218 0.0
H500 H 0.801 0.53029 0.14082 0.0
H501 H 0.7959 0.48622 0.10007 0.0
H502 H 0.74583 0.49016 0.01438 0.0
H503 H 0.70174 0.49991 0.03666 0.0
H504 H 0.11354 0.7694 0.94418 0.0
H505 H 0.16231 0.79857 0.93979 0.0
H506 H 0.20518 0.72108 0.05096 0.0
H507 H 0.15648 0.69183 0.05663 0.0
H508 H 0.22272 0.82538 0.06685 0.0
H509 H 0.21943 0.72296 0.8556 0.0
H510 H 0.18539 0.72491 0.86973 0.0
H511 H 0.21519 0.70858 0.93631 0.0
C512 C 0.13342 0.75876 0.96845 0.0
C513 C 0.13122 0.72844 0.00097 0.0
C514 C 0.16115 0.77531 0.96549 0.0
C515 C 0.18707 0.76176 -0.0054 0.0
C516 C 0.18516 0.73157 0.02738 0.0
H517 H 0.36389 0.8291 0.96853 0.0
H518 H 0.32272 0.80034 0.00304 0.0
C519 C 0.15738 0.71496 0.03047 0.0
C520 C 0.21614 0.7798 0.99109 0.0
H521 H 0.26253 0.77263 0.9033 0.0
C522 C 0.23167 0.81385 0.03164 0.0
C523 C 0.22746 0.76449 0.94489 0.0
C524 C 0.21098 0.72832 0.8986 0.0
C525 C 0.2584 0.83323 0.02705 0.0
C526 C 0.26935 0.81823 0.97954 0.0
C527 C 0.25408 0.78392 0.93997 0.0
C528 C 0.29583 0.83794 0.9672 0.0
C529 C 0.27464 0.86943 0.07328 0.0
C530 C 0.29438 0.86875 0.93646 0.0
C531 C 0.3179 0.88526 0.91718 0.0
C532 C 0.34287 0.87081 0.92723 0.0
C533 C 0.34467 0.84049 0.95972 0.0
C534 C 0.32131 0.82418 0.97961 0.0
H535 H 0.26957 0.8725 0.12301 0.0
H536 H 0.30032 0.87538 0.09302 0.0
H537 H 0.26609 0.88898 0.03818 0.0
H538 H 0.27448 0.87926 0.92467 0.0
H539 H 0.31585 0.90841 0.89135 0.0
H540 H 0.528 0.42652 0.12273 0.0
H541 H 0.52406 0.36384 0.11238 0.0
H542 H 0.49405 0.35598 0.8732 0.0
H543 H 0.4985 0.41947 0.88411 0.0
H544 H 0.48154 0.30427 0.05289 0.0
H545 H 0.55743 0.30316 0.90781 0.0
H546 H 0.55348 0.34342 0.94549 0.0
H547 H 0.52384 0.31827 0.85666 0.0
C548 C 0.52006 0.41157 0.06728 0.0
C549 C 0.51262 0.42903 0.00423 0.0
C550 C 0.51791 0.37508 0.06137 0.0
C551 C 0.50916 0.35353 0.99213 0.0
C552 C 0.5016 0.37087 0.92837 0.0
H553 H 0.50827 0.12774 0.88372 0.0
H554 H 0.50309 0.18782 0.87854 0.0
C555 C 0.50357 0.40768 0.9343 0.0
C556 C 0.50811 0.31373 0.9885 0.0
H557 H 0.5337 0.24849 0.92679 0.0
C558 C 0.49307 0.29238 0.02504 0.0
C559 C 0.52272 0.2965 0.95245 0.0
C560 C 0.54054 0.31647 0.91393 0.0
C561 C 0.49161 0.25587 0.02535 0.0
C562 C 0.50685 0.23868 0.99076 0.0
C563 C 0.5218 0.2601 0.95389 0.0
C564 C 0.50771 0.19938 0.99215 0.0
C565 C 0.47232 0.23604 0.06082 0.0
C566 C 0.51209 0.18335 0.0569 0.0
C567 C 0.51379 0.14792 0.05849 0.0
C568 C 0.51128 0.12596 -0.00432 0.0
C569 C 0.50815 0.14219 0.93193 0.0
C570 C 0.50585 0.17749 0.92968 0.0
H571 H 0.45354 0.24819 0.05855 0.0
H572 H 0.46129 0.20836 0.03247 0.0
H573 H 0.48749 0.23685 0.1211 0.0
H574 H 0.51568 0.1986 0.10848 0.0
H575 H 0.51849 0.13807 0.1109 0.0
loop_
_geom_bond_atom_site_label_1
_geom_bond_atom_site_label_2
_geom_bond_distance
_geom_bond_site_symmetry_2
_ccdc_geom_bond_type
Tb0 N31 2.660 1_656 S
Tb0 N38 2.600 . S
Tb0 O44 2.546 . S
Tb0 O45 2.612 . S
Tb0 O47 2.316 1_556 S
Tb0 O48 2.552 . S
Tb0 O49 2.413 1_556 S
Tb0 O51 2.362 1_656 S
Tb0 O52 2.421 . S
Tb0 C64 2.833 . S
C1 C4 1.432 . S
C1 C5 1.414 . S
C1 N8 1.359 1_655 S
C2 C4 1.417 1_556 S
C2 C6 1.432 1_556 S
C2 C14 1.410 . S
C3 C5 1.444 . S
C3 C6 1.317 . S
C3 H26 0.929 . S
C4 C1 1.432 . S
C4 C2 1.417 1_554 S
C4 N12 1.360 1_554 S
C5 C1 1.414 . S
C5 C3 1.444 . S
C5 C10 1.385 1_655 S
C6 C2 1.432 1_554 S
C6 C3 1.317 . S
C6 H18 0.930 1_554 S
C7 C9 1.392 . S
C7 C10 1.370 . S
C7 H19 0.931 . S
N8 C1 1.359 1_455 S
N8 C9 1.327 . S
N8 Tb11 2.600 . S
C9 C7 1.392 . S
C9 N8 1.327 . S
C9 H16 0.930 . S
C10 C5 1.385 1_455 S
C10 C7 1.370 . S
C10 H29 0.930 . S
Tb11 N8 2.600 . S
Tb11 N12 2.660 1_454 S
Tb11 O45 2.364 1_454 S
Tb11 O46 2.421 . S
Tb11 O50 2.546 . S
Tb11 O51 2.610 . S
Tb11 O53 2.320 1_554 S
Tb11 O54 2.552 . S
Tb11 O55 2.413 1_554 S
Tb11 C75 2.833 . S
N12 C4 1.360 1_556 S
N12 Tb11 2.660 1_656 S
N12 C13 1.305 . S
C13 N12 1.305 . S
C13 C15 1.407 . S
C13 H20 0.930 . S
C14 C2 1.410 . S
C14 C15 1.345 . S
C14 H22 0.930 . S
C15 C13 1.407 . S
C15 C14 1.345 . S
C15 H17 0.930 . S
H16 C9 0.930 . S
H17 C15 0.930 . S
H18 C6 0.930 1_556 S
H19 C7 0.931 . S
H20 C13 0.930 . S
H21 C35 0.930 . S
H22 C14 0.930 . S
H23 C41 0.930 . S
H24 C32 0.930 . S
H25 C39 0.931 . S
H26 C3 0.929 . S
H27 C33 0.930 . S
H28 C66 0.930 1_554 S
H29 C10 0.930 . S
H30 C65 0.929 . S
N31 Tb0 2.660 1_454 S
N31 C32 1.305 . S
N31 C36 1.360 1_554 S
C32 H24 0.930 . S
C32 N31 1.305 . S
C32 C35 1.407 . S
C33 H27 0.930 . S
C33 C34 1.410 . S
C33 C35 1.345 . S
C34 C33 1.410 . S
C34 C36 1.417 1_554 S
C34 C66 1.432 1_554 S
C35 H21 0.930 . S
C35 C32 1.407 . S
C35 C33 1.345 . S
C36 N31 1.360 1_556 S
C36 C34 1.417 1_556 S
C36 C40 1.432 . S
H37 C42 0.930 . S
N38 Tb0 2.600 . S
N38 C40 1.359 1_655 S
N38 C41 1.327 . S
C39 H25 0.931 . S
C39 C41 1.392 . S
C39 C42 1.370 . S
C40 C36 1.432 . S
C40 N38 1.359 1_455 S
C40 C43 1.414 . S
C41 H23 0.930 . S
C41 N38 1.327 . S
C41 C39 1.392 . S
C42 H37 0.930 . S
C42 C39 1.370 . S
C42 C43 1.385 1_655 S
C43 C40 1.414 . S
C43 C42 1.385 1_455 S
C43 C65 1.444 . S
O44 Tb0 2.546 . S
O44 C64 1.251 . S
O45 Tb0 2.612 . S
O45 Tb11 2.364 1_656 S
O45 C56 1.281 . S
O46 Tb11 2.421 . S
O46 C63 1.262 . S
O47 Tb0 2.316 1_554 S
O47 C63 1.264 1_655 S
O48 Tb0 2.552 . S
O48 C56 1.243 . S
O49 Tb0 2.413 1_554 S
O49 C64 1.256 1_554 S
O50 Tb11 2.546 . S
O50 C75 1.251 . S
O51 Tb0 2.362 1_454 S
O51 Tb11 2.610 . S
O51 C67 1.283 . S
O52 Tb0 2.421 . S
O52 C74 1.262 . S
O53 Tb11 2.320 1_556 S
O53 C74 1.260 1_455 S
O54 Tb11 2.552 . S
O54 C67 1.243 . S
O55 Tb11 2.413 1_556 S
O55 C75 1.256 1_556 S
C56 O45 1.281 . S
C56 O48 1.243 . S
C57 C59 1.382 . S
C57 C61 1.393 . S
C57 C64 1.500 . S
C58 C59 1.400 . S
C58 C60 1.384 . S
C59 C57 1.382 . S
C59 C58 1.400 . S
C59 H76 0.930 1_556 S
C60 C58 1.384 . S
C60 C62 1.392 . S
C60 H77 0.931 . S
C61 C57 1.393 . S
C61 C62 1.401 . S
C61 H78 0.930 . S
C62 C60 1.392 . S
C62 C61 1.401 . S
C62 H79 0.930 . S
C63 O46 1.262 . S
C63 O47 1.264 1_455 S
C64 Tb0 2.833 . S
C64 O44 1.251 . S
C64 O49 1.256 1_556 S
C64 C57 1.500 . S
C65 H30 0.929 . S
C65 C43 1.444 . S
C65 C66 1.317 . S
C66 H28 0.930 1_556 S
C66 C34 1.432 1_556 S
C66 C65 1.317 . S
C67 O51 1.283 . S
C67 O54 1.243 . S
C68 C69 1.382 . S
C68 C72 1.393 . S
C68 C75 1.500 . S
C69 C68 1.382 . S
C69 C70 1.400 . S
C69 H80 0.930 1_554 S
C70 C69 1.400 . S
C70 C71 1.384 . S
C71 C70 1.384 . S
C71 C73 1.392 . S
C71 H81 0.931 . S
C72 C68 1.393 . S
C72 C73 1.401 . S
C72 H82 0.930 . S
C73 C71 1.392 . S
C73 C72 1.401 . S
C73 H83 0.930 . S
C74 O52 1.262 . S
C74 O53 1.260 1_655 S
C75 Tb11 2.833 . S
C75 O50 1.251 . S
C75 O55 1.256 1_554 S
C75 C68 1.500 . S
H76 C59 0.930 1_554 S
H77 C60 0.931 . S
H78 C61 0.930 . S
H79 C62 0.930 . S
H80 C69 0.930 1_556 S
H81 C71 0.931 . S
H82 C72 0.930 . S
H83 C73 0.930 . S
Tb84 N115 2.660 1_545 S
Tb84 N122 2.590 1_545 S
Tb84 O128 2.546 . S
Tb84 O129 2.610 1_554 S
Tb84 O131 2.320 1_554 S
Tb84 O132 2.552 . S
Tb84 O133 2.413 . S
Tb84 O135 2.362 1_545 S
Tb84 O136 2.421 . S
Tb84 C148 2.833 . S
C85 C88 1.432 . S
C85 C89 1.414 . S
C85 N92 1.359 . S
C86 C88 1.417 . S
C86 C90 1.432 . S
C86 C98 1.410 1_556 S
C87 C89 1.444 . S
C87 C90 1.317 . S
C87 H110 0.929 . S
C88 C85 1.432 . S
C88 C86 1.417 . S
C88 N96 1.360 . S
C89 C85 1.414 . S
C89 C87 1.444 . S
C89 C94 1.385 . S
C90 C86 1.432 . S
C90 C87 1.317 . S
C90 H102 0.930 . S
C91 C93 1.392 . S
C91 C94 1.370 1_565 S
C91 H103 0.931 . S
N92 C85 1.359 . S
N92 C93 1.327 1_545 S
N92 Tb95 2.600 1_545 S
C93 C91 1.392 . S
C93 N92 1.327 1_565 S
C93 H100 0.930 . S
C94 C89 1.385 . S
C94 C91 1.370 1_545 S
C94 H113 0.930 . S
Tb95 N92 2.600 1_565 S
Tb95 N96 2.660 1_565 S
Tb95 O129 2.362 1_565 S
Tb95 O130 2.421 . S
Tb95 O134 2.546 . S
Tb95 O135 2.610 1_556 S
Tb95 O137 2.320 1_556 S
Tb95 O138 2.552 . S
Tb95 O139 2.413 . S
Tb95 C159 2.833 . S
N96 C88 1.360 . S
N96 Tb95 2.660 1_545 S
N96 C97 1.305 1_556 S
C97 N96 1.305 1_554 S
C97 C99 1.407 . S
C97 H104 0.930 . S
C98 C86 1.410 1_554 S
C98 C99 1.345 . S
C98 H106 0.930 . S
C99 C97 1.407 . S
C99 C98 1.345 . S
C99 H101 0.930 . S
H100 C93 0.930 . S
H101 C99 0.930 . S
H102 C90 0.930 . S
H103 C91 0.931 . S
H104 C97 0.930 . S
H105 C119 0.930 . S
H106 C98 0.930 . S
H107 C125 0.930 . S
H108 C116 0.930 . S
H109 C123 0.931 . S
H110 C87 0.929 . S
H111 C117 0.930 . S
H112 C150 0.930 . S
H113 C94 0.930 . S
H114 C149 0.929 . S
N115 Tb84 2.660 1_565 S
N115 C116 1.305 1_554 S
N115 C120 1.360 . S
C116 H108 0.930 . S
C116 N115 1.305 1_556 S
C116 C119 1.407 . S
C117 H111 0.930 . S
C117 C118 1.410 1_556 S
C117 C119 1.345 . S
C118 C117 1.410 1_554 S
C118 C120 1.417 . S
C118 C150 1.432 . S
C119 H105 0.930 . S
C119 C116 1.407 . S
C119 C117 1.345 . S
C120 N115 1.360 . S
C120 C118 1.417 . S
C120 C124 1.432 . S
H121 C126 0.930 . S
N122 Tb84 2.590 1_565 S
N122 C124 1.374 . S
N122 C125 1.321 1_565 S
C123 H109 0.931 . S
C123 C125 1.392 . S
C123 C126 1.370 1_545 S
C124 C120 1.432 . S
C124 N122 1.374 . S
C124 C127 1.414 . S
C125 H107 0.930 . S
C125 N122 1.321 1_545 S
C125 C123 1.392 . S
C126 H121 0.930 . S
C126 C123 1.370 1_565 S
C126 C127 1.385 . S
C127 C124 1.414 . S
C127 C126 1.385 . S
C127 C149 1.444 . S
O128 Tb84 2.546 . S
O128 C148 1.251 . S
O129 Tb84 2.610 1_556 S
O129 Tb95 2.362 1_545 S
O129 C140 1.283 . S
O130 Tb95 2.421 . S
O130 C147 1.262 1_565 S
O131 Tb84 2.320 1_556 S
O131 C147 1.260 . S
O132 Tb84 2.552 . S
O132 C140 1.243 1_554 S
O133 Tb84 2.413 . S
O133 C148 1.256 . S
O134 Tb95 2.546 . S
O134 C159 1.251 . S
O135 Tb84 2.362 1_565 S
O135 Tb95 2.610 1_554 S
O135 C151 1.283 . S
O136 Tb84 2.421 . S
O136 C158 1.267 . S
O137 Tb95 2.320 1_554 S
O137 C158 1.261 1_565 S
O138 Tb95 2.552 . S
O138 C151 1.243 1_556 S
O139 Tb95 2.413 . S
O139 C159 1.256 . S
C140 O129 1.283 . S
C140 O132 1.243 1_556 S
C141 C143 1.382 . S
C141 C145 1.393 . S
C141 C148 1.500 . S
C142 C143 1.400 . S
C142 C144 1.384 . S
C143 C141 1.382 . S
C143 C142 1.400 . S
C143 H160 0.930 1_554 S
C144 C142 1.384 . S
C144 C146 1.392 . S
C144 H161 0.931 . S
C145 C141 1.393 . S
C145 C146 1.401 . S
C145 H162 0.930 . S
C146 C144 1.392 . S
C146 C145 1.401 . S
C146 H163 0.930 . S
C147 O130 1.262 1_545 S
C147 O131 1.260 . S
C148 Tb84 2.833 . S
C148 O128 1.251 . S
C148 O133 1.256 . S
C148 C141 1.500 . S
C149 H114 0.929 . S
C149 C127 1.444 . S
C149 C150 1.317 . S
C150 H112 0.930 . S
C150 C118 1.432 . S
C150 C149 1.317 . S
C151 O135 1.283 . S
C151 O138 1.243 1_554 S
C152 C153 1.382 . S
C152 C156 1.393 . S
C152 C159 1.500 . S
C153 C152 1.382 . S
C153 C154 1.400 . S
C153 H164 0.930 1_556 S
C154 C153 1.400 . S
C154 C155 1.384 . S
C155 C154 1.384 . S
C155 C157 1.392 . S
C155 H165 0.931 . S
C156 C152 1.393 . S
C156 C157 1.401 . S
C156 H166 0.930 . S
C157 C155 1.392 . S
C157 C156 1.401 . S
C157 H167 0.930 . S
C158 O136 1.267 . S
C158 O137 1.261 1_545 S
C159 Tb95 2.833 . S
C159 O134 1.251 . S
C159 O139 1.256 . S
C159 C152 1.500 . S
H160 C143 0.930 1_556 S
H161 C144 0.931 . S
H162 C145 0.930 . S
H163 C146 0.930 . S
H164 C153 0.930 1_554 S
H165 C155 0.931 . S
H166 C156 0.930 . S
H167 C157 0.930 . S
Tb168 N199 2.660 . S
Tb168 N206 2.600 . S
Tb168 O212 2.546 . S
Tb168 O213 2.610 1_556 S
Tb168 O215 2.320 1_556 S
Tb168 O216 2.552 . S
Tb168 O217 2.413 . S
Tb168 O219 2.362 . S
Tb168 O220 2.421 . S
Tb168 C232 2.833 . S
C169 C172 1.432 . S
C169 C173 1.414 . S
C169 N176 1.359 . S
C170 C172 1.417 . S
C170 C174 1.432 . S
C170 C182 1.410 1_554 S
C171 C173 1.444 . S
C171 C174 1.317 . S
C171 H194 0.929 . S
C172 C169 1.432 . S
C172 C170 1.417 . S
C172 N180 1.360 . S
C173 C169 1.414 . S
C173 C171 1.444 . S
C173 C178 1.385 . S
C174 C170 1.432 . S
C174 C171 1.317 . S
C174 H186 0.930 . S
C175 C177 1.392 . S
C175 C178 1.370 . S
C175 H187 0.931 . S
N176 C169 1.359 . S
N176 C177 1.327 . S
N176 Tb179 2.600 . S
C177 C175 1.392 . S
C177 N176 1.327 . S
C177 H184 0.930 . S
C178 C173 1.385 . S
C178 C175 1.370 . S
C178 H197 0.930 . S
Tb179 N176 2.600 . S
Tb179 N180 2.660 . S
Tb179 O213 2.362 . S
Tb179 O214 2.421 . S
Tb179 O218 2.546 . S
Tb179 O219 2.610 1_554 S
Tb179 O221 2.320 1_554 S
Tb179 O222 2.552 . S
Tb179 O223 2.413 . S
Tb179 C243 2.833 . S
N180 C172 1.360 . S
N180 Tb179 2.660 . S
N180 C181 1.305 1_554 S
C181 N180 1.305 1_556 S
C181 C183 1.407 . S
C181 H188 0.930 . S
C182 C170 1.410 1_556 S
C182 C183 1.345 . S
C182 H190 0.930 . S
C183 C181 1.407 . S
C183 C182 1.345 . S
C183 H185 0.930 . S
H184 C177 0.930 . S
H185 C183 0.930 . S
H186 C174 0.930 . S
H187 C175 0.931 . S
H188 C181 0.930 . S
H189 C203 0.930 . S
H190 C182 0.930 . S
H191 C209 0.930 . S
H192 C200 0.930 . S
H193 C207 0.931 . S
H194 C171 0.929 . S
H195 C201 0.930 . S
H196 C234 0.930 . S
H197 C178 0.930 . S
H198 C233 0.929 . S
N199 Tb168 2.660 . S
N199 C200 1.305 1_556 S
N199 C204 1.360 . S
C200 H192 0.930 . S
C200 N199 1.305 1_554 S
C200 C203 1.407 . S
C201 H195 0.930 . S
C201 C202 1.410 1_554 S
C201 C203 1.345 . S
C202 C201 1.410 1_556 S
C202 C204 1.417 . S
C202 C234 1.432 . S
C203 H189 0.930 . S
C203 C200 1.407 . S
C203 C201 1.345 . S
C204 N199 1.360 . S
C204 C202 1.417 . S
C204 C208 1.432 . S
H205 C210 0.930 . S
N206 Tb168 2.600 . S
N206 C208 1.359 . S
N206 C209 1.327 . S
C207 H193 0.931 . S
C207 C209 1.392 . S
C207 C210 1.370 . S
C208 C204 1.432 . S
C208 N206 1.359 . S
C208 C211 1.414 . S
C209 H191 0.930 . S
C209 N206 1.327 . S
C209 C207 1.392 . S
C210 H205 0.930 . S
C210 C207 1.370 . S
C210 C211 1.385 . S
C211 C208 1.414 . S
C211 C210 1.385 . S
C211 C233 1.444 . S
O212 Tb168 2.546 . S
O212 C232 1.251 . S
O213 Tb168 2.610 1_554 S
O213 Tb179 2.362 . S
O213 C224 1.283 . S
O214 Tb179 2.421 . S
O214 C231 1.262 . S
O215 Tb168 2.320 1_554 S
O215 C231 1.260 . S
O216 Tb168 2.552 . S
O216 C224 1.243 1_556 S
O217 Tb168 2.413 . S
O217 C232 1.256 . S
O218 Tb179 2.546 . S
O218 C243 1.251 . S
O219 Tb168 2.362 . S
O219 Tb179 2.610 1_556 S
O219 C235 1.283 . S
O220 Tb168 2.421 . S
O220 C242 1.262 . S
O221 Tb179 2.320 1_556 S
O221 C242 1.260 . S
O222 Tb179 2.552 . S
O222 C235 1.243 1_554 S
O223 Tb179 2.413 . S
O223 C243 1.256 . S
C224 O213 1.283 . S
C224 O216 1.243 1_554 S
C225 C227 1.382 . S
C225 C229 1.393 . S
C225 C232 1.500 . S
C226 C227 1.400 . S
C226 C228 1.384 . S
C227 C225 1.382 . S
C227 C226 1.400 . S
C227 H244 0.930 1_556 S
C228 C226 1.384 . S
C228 C230 1.392 . S
C228 H245 0.931 . S
C229 C225 1.393 . S
C229 C230 1.401 . S
C229 H246 0.930 . S
C230 C228 1.392 . S
C230 C229 1.401 . S
C230 H247 0.930 . S
C231 O214 1.262 . S
C231 O215 1.260 . S
C232 Tb168 2.833 . S
C232 O212 1.251 . S
C232 O217 1.256 . S
C232 C225 1.500 . S
C233 H198 0.929 . S
C233 C211 1.444 . S
C233 C234 1.317 . S
C234 H196 0.930 . S
C234 C202 1.432 . S
C234 C233 1.317 . S
C235 O219 1.283 . S
C235 O222 1.243 1_556 S
C236 C237 1.382 . S
C236 C240 1.393 . S
C236 C243 1.500 . S
C237 C236 1.382 . S
C237 C238 1.400 . S
C237 H248 0.930 1_554 S
C238 C237 1.400 . S
C238 C239 1.384 . S
C239 C238 1.384 . S
C239 C241 1.392 . S
C239 H249 0.931 . S
C240 C236 1.393 . S
C240 C241 1.401 . S
C240 H250 0.930 . S
C241 C239 1.392 . S
C241 C240 1.401 . S
C241 H251 0.930 . S
C242 O220 1.262 . S
C242 O221 1.260 . S
C243 Tb179 2.833 . S
C243 O218 1.251 . S
C243 O223 1.256 . S
C243 C236 1.500 . S
H244 C227 0.930 1_554 S
H245 C228 0.931 . S
H246 C229 0.930 . S
H247 C230 0.930 . S
H248 C237 0.930 1_556 S
H249 C239 0.931 . S
H250 C240 0.930 . S
H251 C241 0.930 . S
H252 C260 0.929 . S
H253 C262 0.930 . S
H254 C264 0.930 . S
H255 C267 0.929 . S
H256 C270 0.930 . S
H257 C272 0.960 . S
H258 C272 0.960 . S
H259 C272 0.960 . S
C260 H252 0.929 . S
C260 C261 1.394 . S
C260 C262 1.384 . S
C261 C260 1.394 . S
C261 C267 1.358 1_655 S
C262 H253 0.930 . S
C262 C260 1.384 . S
C262 C263 1.372 . S
C263 C262 1.372 . S
C263 C264 1.400 1_655 S
C263 C268 1.490 . S
C264 H254 0.930 . S
C264 C263 1.400 1_455 S
C264 C267 1.386 . S
H265 C281 0.930 . S
H266 C282 0.931 . S
C267 H255 0.929 . S
C267 C261 1.358 1_455 S
C267 C264 1.386 . S
C268 C263 1.490 . S
C268 C270 1.395 . S
C268 C271 1.403 1_655 S
H269 C275 0.930 . S
C270 H256 0.930 . S
C270 C268 1.395 . S
C270 C273 1.403 . S
C271 C268 1.403 1_455 S
C271 C272 1.524 . S
C271 C275 1.400 . S
C272 H257 0.960 . S
C272 H258 0.960 . S
C272 H259 0.960 . S
C272 C271 1.524 . S
C273 C270 1.403 . S
C273 C274 1.392 . S
C273 C277 1.495 . S
C274 C273 1.392 . S
C274 C275 1.385 1_655 S
C274 C276 1.478 . S
C275 H269 0.930 . S
C275 C271 1.400 . S
C275 C274 1.385 1_455 S
C276 C274 1.478 . S
C276 C278 1.381 . S
C276 C282 1.383 1_655 S
C277 C273 1.495 . S
C277 H283 0.959 . S
C277 H284 0.961 . S
C277 H285 0.960 . S
C278 C276 1.381 . S
C278 C279 1.394 . S
C278 H286 0.930 . S
C279 C278 1.394 . S
C279 C280 1.383 1_655 S
C279 H287 0.929 . S
C280 C279 1.383 1_455 S
C280 C281 1.377 . S
C281 H265 0.930 . S
C281 C280 1.377 . S
C281 C282 1.379 . S
C282 H266 0.931 . S
C282 C276 1.383 1_455 S
C282 C281 1.379 . S
H283 C277 0.959 . S
H284 C277 0.961 . S
H285 C277 0.960 . S
H286 C278 0.930 . S
H287 C279 0.929 . S
H288 C296 0.929 . S
H289 C298 0.930 . S
H290 C300 0.930 . S
H291 C303 0.929 . S
H292 C306 0.930 . S
H293 C308 0.960 . S
H294 C308 0.960 . S
H295 C308 0.960 . S
C296 H288 0.929 . S
C296 C297 1.377 . S
C296 C298 1.384 . S
C297 C296 1.377 . S
C297 C303 1.390 1_565 S
C298 H289 0.930 . S
C298 C296 1.384 . S
C298 C299 1.372 . S
C299 C298 1.372 . S
C299 C300 1.400 1_565 S
C299 C304 1.490 . S
C300 H290 0.930 . S
C300 C299 1.400 1_545 S
C300 C303 1.386 . S
H301 C317 0.930 . S
H302 C318 0.931 . S
C303 H291 0.929 . S
C303 C297 1.390 1_545 S
C303 C300 1.386 . S
C304 C299 1.490 . S
C304 C306 1.395 . S
C304 C307 1.403 1_565 S
H305 C311 0.930 . S
C306 H292 0.930 . S
C306 C304 1.395 . S
C306 C309 1.403 . S
C307 C304 1.403 1_545 S
C307 C308 1.524 . S
C307 C311 1.400 . S
C308 H293 0.960 . S
C308 H294 0.960 . S
C308 H295 0.960 . S
C308 C307 1.524 . S
C309 C306 1.403 . S
C309 C310 1.392 . S
C309 C313 1.495 . S
C310 C309 1.392 . S
C310 C311 1.385 1_565 S
C310 C312 1.478 1_565 S
C311 H305 0.930 . S
C311 C307 1.400 . S
C311 C310 1.385 1_545 S
C312 C310 1.478 1_545 S
C312 C314 1.380 1_545 S
C312 C318 1.384 . S
C313 C309 1.495 . S
C313 H319 0.959 . S
C313 H320 0.961 . S
C313 H321 0.960 . S
C314 C312 1.380 1_565 S
C314 C315 1.394 . S
C314 H322 0.930 . S
C315 C314 1.394 . S
C315 C316 1.383 1_565 S
C315 H323 0.929 . S
C316 C315 1.383 1_545 S
C316 C317 1.377 . S
C317 H301 0.930 . S
C317 C316 1.377 . S
C317 C318 1.379 . S
C318 H302 0.931 . S
C318 C312 1.384 . S
C318 C317 1.379 . S
H319 C313 0.959 . S
H320 C313 0.961 . S
H321 C313 0.960 . S
H322 C314 0.930 . S
H323 C315 0.929 . S
H324 C332 0.929 . S
H325 C334 0.930 . S
H326 C336 0.930 . S
H327 C339 0.929 . S
H328 C342 0.930 . S
H329 C344 0.960 . S
H330 C344 0.960 . S
H331 C344 0.960 . S
C332 H324 0.929 . S
C332 C333 1.377 . S
C332 C334 1.384 . S
C333 C332 1.377 . S
C333 C339 1.390 . S
C334 H325 0.930 . S
C334 C332 1.384 . S
C334 C335 1.372 . S
C335 C334 1.372 . S
C335 C336 1.400 . S
C335 C340 1.490 . S
C336 H326 0.930 . S
C336 C335 1.400 . S
C336 C339 1.386 . S
H337 C353 0.930 . S
H338 C354 0.931 . S
C339 H327 0.929 . S
C339 C333 1.390 . S
C339 C336 1.386 . S
C340 C335 1.490 . S
C340 C342 1.395 . S
C340 C343 1.403 . S
H341 C347 0.930 . S
C342 H328 0.930 . S
C342 C340 1.395 . S
C342 C345 1.403 . S
C343 C340 1.403 . S
C343 C344 1.524 . S
C343 C347 1.400 . S
C344 H329 0.960 . S
C344 H330 0.960 . S
C344 H331 0.960 . S
C344 C343 1.524 . S
C345 C342 1.403 . S
C345 C346 1.392 . S
C345 C349 1.495 . S
C346 C345 1.392 . S
C346 C347 1.385 . S
C346 C348 1.478 . S
C347 H341 0.930 . S
C347 C343 1.400 . S
C347 C346 1.385 . S
C348 C346 1.478 . S
C348 C350 1.381 . S
C348 C354 1.383 . S
C349 C345 1.495 . S
C349 H355 0.959 . S
C349 H356 0.961 . S
C349 H357 0.960 . S
C350 C348 1.381 . S
C350 C351 1.394 . S
C350 H358 0.930 . S
C351 C350 1.394 . S
C351 C352 1.383 . S
C351 H359 0.929 . S
C352 C351 1.383 . S
C352 C353 1.377 . S
C353 H337 0.930 . S
C353 C352 1.377 . S
C353 C354 1.379 . S
C354 H338 0.931 . S
C354 C348 1.383 . S
C354 C353 1.379 . S
H355 C349 0.959 . S
H356 C349 0.961 . S
H357 C349 0.960 . S
H358 C350 0.930 . S
H359 C351 0.929 . S
H360 C368 0.929 . S
H361 C370 0.930 . S
H362 C372 0.930 . S
H363 C375 0.929 . S
H364 C378 0.930 . S
H365 C380 0.960 . S
H366 C380 0.960 . S
H367 C380 0.960 . S
C368 H360 0.929 . S
C368 C369 1.377 . S
C368 C370 1.384 . S
C369 C368 1.377 . S
C369 C375 1.390 1_554 S
C370 H361 0.930 . S
C370 C368 1.384 . S
C370 C371 1.372 . S
C371 C370 1.372 . S
C371 C372 1.400 1_554 S
C371 C376 1.490 . S
C372 H362 0.930 . S
C372 C371 1.400 1_556 S
C372 C375 1.386 . S
H373 C389 0.930 . S
H374 C390 0.931 . S
C375 H363 0.929 . S
C375 C369 1.390 1_556 S
C375 C372 1.386 . S
C376 C371 1.490 . S
C376 C378 1.395 . S
C376 C379 1.403 1_554 S
H377 C383 0.930 . S
C378 H364 0.930 . S
C378 C376 1.395 . S
C378 C381 1.403 . S
C379 C376 1.403 1_556 S
C379 C380 1.524 . S
C379 C383 1.400 . S
C380 H365 0.960 . S
C380 H366 0.960 . S
C380 H367 0.960 . S
C380 C379 1.524 . S
C381 C378 1.403 . S
C381 C382 1.392 . S
C381 C385 1.495 . S
C382 C381 1.392 . S
C382 C383 1.385 1_554 S
C382 C384 1.478 . S
C383 H377 0.930 . S
C383 C379 1.400 . S
C383 C382 1.385 1_556 S
C384 C382 1.478 . S
C384 C386 1.381 . S
C384 C390 1.383 1_554 S
C385 C381 1.495 . S
C385 H391 0.959 . S
C385 H392 0.961 . S
C385 H393 0.960 . S
C386 C384 1.381 . S
C386 C387 1.394 . S
C386 H394 0.930 . S
C387 C386 1.394 . S
C387 C388 1.383 . S
C387 H395 0.929 . S
C388 C387 1.383 . S
C388 C389 1.377 1_554 S
C389 H373 0.930 . S
C389 C388 1.377 1_556 S
C389 C390 1.379 . S
C390 H374 0.931 . S
C390 C384 1.383 1_556 S
C390 C389 1.379 . S
H391 C385 0.959 . S
H392 C385 0.961 . S
H393 C385 0.960 . S
H394 C386 0.930 . S
H395 C387 0.929 . S
H396 C404 0.929 . S
H397 C406 0.930 . S
H398 C408 0.930 . S
H399 C411 0.929 . S
H400 C414 0.930 . S
H401 C416 0.960 . S
H402 C416 0.953 1_556 S
H403 C416 0.960 . S
C404 H396 0.929 . S
C404 C405 1.377 1_556 S
C404 C406 1.384 . S
C405 C404 1.377 1_554 S
C405 C411 1.390 . S
C406 H397 0.930 . S
C406 C404 1.384 . S
C406 C407 1.372 1_556 S
C407 C406 1.372 1_554 S
C407 C408 1.400 . S
C407 C412 1.490 . S
C408 H398 0.930 . S
C408 C407 1.400 . S
C408 C411 1.386 . S
H409 C425 0.930 . S
H410 C426 0.931 . S
C411 H399 0.929 . S
C411 C405 1.390 . S
C411 C408 1.386 . S
C412 C407 1.490 . S
C412 C414 1.395 1_554 S
C412 C415 1.403 . S
H413 C419 0.930 . S
C414 H400 0.930 . S
C414 C412 1.395 1_556 S
C414 C417 1.403 . S
C415 C412 1.403 . S
C415 C416 1.524 . S
C415 C419 1.400 . S
C416 H401 0.960 . S
C416 H402 0.953 1_554 S
C416 H403 0.960 . S
C416 C415 1.524 . S
C417 C414 1.403 . S
C417 C418 1.392 1_556 S
C417 C421 1.495 . S
C418 C417 1.392 1_554 S
C418 C419 1.385 . S
C418 C420 1.478 . S
C419 H413 0.930 . S
C419 C415 1.400 . S
C419 C418 1.385 . S
C420 C418 1.478 . S
C420 C422 1.381 1_554 S
C420 C426 1.383 . S
C421 C417 1.495 . S
C421 H427 0.959 . S
C421 H428 0.961 1_556 S
C421 H429 0.960 . S
C422 C420 1.381 1_556 S
C422 C423 1.394 . S
C422 H430 0.930 . S
C423 C422 1.394 . S
C423 C424 1.383 1_556 S
C423 H431 0.929 . S
C424 C423 1.383 1_554 S
C424 C425 1.377 . S
C425 H409 0.930 . S
C425 C424 1.377 . S
C425 C426 1.379 . S
C426 H410 0.931 . S
C426 C420 1.383 . S
C426 C425 1.379 . S
H427 C421 0.959 . S
H428 C421 0.961 1_554 S
H429 C421 0.960 . S
H430 C422 0.930 . S
H431 C423 0.929 . S
H432 C440 0.929 . S
H433 C442 0.930 . S
H434 C444 0.930 . S
H435 C447 0.929 . S
H436 C450 0.930 . S
H437 C452 0.960 . S
H438 C452 0.960 . S
H439 C452 0.960 . S
C440 H432 0.929 . S
C440 C441 1.377 . S
C440 C442 1.384 . S
C441 C440 1.377 . S
C441 C447 1.390 1_554 S
C442 H433 0.930 . S
C442 C440 1.384 . S
C442 C443 1.372 . S
C443 C442 1.372 . S
C443 C444 1.400 1_554 S
C443 C448 1.490 . S
C444 H434 0.930 . S
C444 C443 1.400 1_556 S
C444 C447 1.386 . S
H445 C461 0.930 . S
H446 C462 0.931 . S
C447 H435 0.929 . S
C447 C441 1.390 1_556 S
C447 C444 1.386 . S
C448 C443 1.490 . S
C448 C450 1.395 1_554 S
C448 C451 1.403 . S
H449 C455 0.930 . S
C450 H436 0.930 . S
C450 C448 1.395 1_556 S
C450 C453 1.403 . S
C451 C448 1.403 . S
C451 C452 1.524 . S
C451 C455 1.400 . S
C452 H437 0.960 . S
C452 H438 0.960 . S
C452 H439 0.960 . S
C452 C451 1.524 . S
C453 C450 1.403 . S
C453 C454 1.392 1_556 S
C453 C457 1.495 . S
C454 C453 1.392 1_554 S
C454 C455 1.385 . S
C454 C456 1.478 . S
C455 H449 0.930 . S
C455 C451 1.400 . S
C455 C454 1.385 . S
C456 C454 1.478 . S
C456 C458 1.381 . S
C456 C462 1.383 1_554 S
C457 C453 1.495 . S
C457 H463 0.959 . S
C457 H464 0.961 . S
C457 H465 0.960 . S
C458 C456 1.381 . S
C458 C459 1.394 . S
C458 H466 0.930 . S
C459 C458 1.394 . S
C459 C460 1.383 . S
C459 H467 0.929 . S
C460 C459 1.383 . S
C460 C461 1.377 1_554 S
C461 H445 0.930 . S
C461 C460 1.377 1_556 S
C461 C462 1.379 . S
C462 H446 0.931 . S
C462 C456 1.383 1_556 S
C462 C461 1.379 . S
H463 C457 0.959 . S
H464 C457 0.961 . S
H465 C457 0.960 . S
H466 C458 0.930 . S
H467 C459 0.929 . S
H468 C476 0.929 . S
H469 C478 0.930 . S
H470 C480 0.930 . S
H471 C483 0.929 . S
H472 C486 0.930 . S
H473 C488 0.960 . S
H474 C488 0.960 . S
H475 C488 0.960 . S
C476 H468 0.929 . S
C476 C477 1.377 . S
C476 C478 1.384 . S
C477 C476 1.377 . S
C477 C483 1.390 1_556 S
C478 H469 0.930 . S
C478 C476 1.384 . S
C478 C479 1.372 . S
C479 C478 1.372 . S
C479 C480 1.400 1_556 S
C479 C484 1.490 . S
C480 H470 0.930 . S
C480 C479 1.400 1_554 S
C480 C483 1.386 . S
H481 C497 0.930 . S
H482 C498 0.931 . S
C483 H471 0.929 . S
C483 C477 1.390 1_554 S
C483 C480 1.386 . S
C484 C479 1.490 . S
C484 C486 1.395 1_556 S
C484 C487 1.403 . S
H485 C491 0.930 . S
C486 H472 0.930 . S
C486 C484 1.395 1_554 S
C486 C489 1.403 . S
C487 C484 1.403 . S
C487 C488 1.524 . S
C487 C491 1.400 . S
C488 H473 0.960 . S
C488 H474 0.960 . S
C488 H475 0.960 . S
C488 C487 1.524 . S
C489 C486 1.403 . S
C489 C490 1.392 . S
C489 C493 1.495 . S
C490 C489 1.392 . S
C490 C491 1.385 1_554 S
C490 C492 1.478 . S
C491 H485 0.930 . S
C491 C487 1.400 . S
C491 C490 1.385 1_556 S
C492 C490 1.478 . S
C492 C494 1.381 1_554 S
C492 C498 1.383 . S
C493 C489 1.495 . S
C493 H499 0.959 . S
C493 H500 0.961 . S
C493 H501 0.960 . S
C494 C492 1.381 1_556 S
C494 C495 1.394 . S
C494 H502 0.930 . S
C495 C494 1.394 . S
C495 C496 1.383 1_556 S
C495 H503 0.929 . S
C496 C495 1.383 1_554 S
C496 C497 1.377 . S
C497 H481 0.930 . S
C497 C496 1.377 . S
C497 C498 1.379 . S
C498 H482 0.931 . S
C498 C492 1.383 . S
C498 C497 1.379 . S
H499 C493 0.959 . S
H500 C493 0.961 . S
H501 C493 0.960 . S
H502 C494 0.930 . S
H503 C495 0.929 . S
H504 C512 0.929 . S
H505 C514 0.930 . S
H506 C516 0.930 . S
H507 C519 0.929 . S
H508 C522 0.930 . S
H509 C524 0.960 . S
H510 C524 0.960 . S
H511 C524 0.960 1_554 S
C512 H504 0.929 . S
C512 C513 1.377 . S
C512 C514 1.384 . S
C513 C512 1.377 . S
C513 C519 1.390 1_556 S
C514 H505 0.930 . S
C514 C512 1.384 . S
C514 C515 1.372 . S
C515 C514 1.372 . S
C515 C516 1.400 1_556 S
C515 C520 1.490 . S
C516 H506 0.930 . S
C516 C515 1.400 1_554 S
C516 C519 1.386 . S
H517 C533 0.930 . S
H518 C534 0.931 . S
C519 H507 0.929 . S
C519 C513 1.390 1_554 S
C519 C516 1.386 . S
C520 C515 1.490 . S
C520 C522 1.395 . S
C520 C523 1.403 . S
H521 C527 0.930 . S
C522 H508 0.930 . S
C522 C520 1.395 . S
C522 C525 1.403 . S
C523 C520 1.403 . S
C523 C524 1.524 . S
C523 C527 1.400 . S
C524 H509 0.960 . S
C524 H510 0.960 . S
C524 H511 0.960 1_556 S
C524 C523 1.524 . S
C525 C522 1.403 . S
C525 C526 1.392 . S
C525 C529 1.495 . S
C526 C525 1.392 . S
C526 C527 1.385 . S
C526 C528 1.478 . S
C527 H521 0.930 . S
C527 C523 1.400 . S
C527 C526 1.385 . S
C528 C526 1.478 . S
C528 C530 1.381 . S
C528 C534 1.383 1_556 S
C529 C525 1.495 . S
C529 H535 0.959 . S
C529 H536 0.961 1_556 S
C529 H537 0.960 . S
C530 C528 1.381 . S
C530 C531 1.394 . S
C530 H538 0.930 . S
C531 C530 1.394 . S
C531 C532 1.383 . S
C531 H539 0.929 . S
C532 C531 1.383 . S
C532 C533 1.377 1_556 S
C533 H517 0.930 . S
C533 C532 1.377 1_554 S
C533 C534 1.379 . S
C534 H518 0.931 . S
C534 C528 1.383 1_554 S
C534 C533 1.379 . S
H535 C529 0.959 . S
H536 C529 0.961 1_554 S
H537 C529 0.960 . S
H538 C530 0.930 . S
H539 C531 0.929 . S
H540 C548 0.929 . S
H541 C550 0.930 . S
H542 C552 0.930 . S
H543 C555 0.929 . S
H544 C558 0.930 . S
H545 C560 0.960 . S
H546 C560 0.960 1_554 S
H547 C560 0.960 . S
C548 H540 0.929 . S
C548 C549 1.377 1_554 S
C548 C550 1.384 . S
C549 C548 1.377 1_556 S
C549 C555 1.390 . S
C550 H541 0.930 . S
C550 C548 1.384 . S
C550 C551 1.372 1_554 S
C551 C550 1.372 1_556 S
C551 C552 1.400 . S
C551 C556 1.490 . S
C552 H542 0.930 . S
C552 C551 1.400 . S
C552 C555 1.386 . S
H553 C569 0.930 . S
H554 C570 0.931 . S
C555 H543 0.929 . S
C555 C549 1.390 . S
C555 C552 1.386 . S
C556 C551 1.490 . S
C556 C558 1.395 . S
C556 C559 1.403 . S
H557 C563 0.930 . S
C558 H544 0.930 . S
C558 C556 1.395 . S
C558 C561 1.403 . S
C559 C556 1.403 . S
C559 C560 1.524 . S
C559 C563 1.400 . S
C560 H545 0.960 . S
C560 H546 0.960 1_556 S
C560 H547 0.960 . S
C560 C559 1.524 . S
C561 C558 1.403 . S
C561 C562 1.392 . S
C561 C565 1.495 . S
C562 C561 1.392 . S
C562 C563 1.385 . S
C562 C564 1.478 . S
C563 H557 0.930 . S
C563 C559 1.400 . S
C563 C562 1.385 . S
C564 C562 1.478 . S
C564 C566 1.381 1_556 S
C564 C570 1.383 . S
C565 C561 1.495 . S
C565 H571 0.959 . S
C565 H572 0.961 . S
C565 H573 0.960 1_556 S
C566 C564 1.381 1_554 S
C566 C567 1.394 . S
C566 H574 0.930 . S
C567 C566 1.394 . S
C567 C568 1.383 1_554 S
C567 H575 0.929 . S
C568 C567 1.383 1_556 S
C568 C569 1.377 . S
C569 H553 0.930 . S
C569 C568 1.377 . S
C569 C570 1.379 . S
C570 H554 0.931 . S
C570 C564 1.383 . S
C570 C569 1.379 . S
H571 C565 0.959 . S
H572 C565 0.961 . S
H573 C565 0.960 1_554 S
H574 C566 0.930 . S
H575 C567 0.929 . S
C261 C74 1.506 . S
C280 C63 1.495 . S
C297 C158 1.474 1_565 S
C316 C147 1.452 . S
C333 C242 1.487 . S
C352 C231 1.457 . S
C369 C67 1.519 . S
C388 C226 1.431 1_554 S
C405 C142 0.777 . S
C424 C58 0.798 1_554 S
C441 C151 2.295 . S
C460 C224 2.314 . S
C477 C56 1.525 . S
C496 C238 1.427 . S
C513 C70 0.786 1_556 S
C532 C154 0.752 . S
C549 C235 2.331 . S
C568 C140 2.306 . S
