# Generated by pormake.
# Topology uko, (4)-cn, num edge types: 1
# Building blocks:
#     Node 0, Type 0, BuildingBlock: CEKHIL_clean_sbu_0, # of connection points: 4
#     Node 1, Type 0, BuildingBlock: CEKHIL_clean_sbu_0, # of connection points: 4
#     Node 2, Type 0, BuildingBlock: CEKHIL_clean_sbu_0, # of connection points: 4
#     Node 3, Type 0, BuildingBlock: CEKHIL_clean_sbu_0, # of connection points: 4
#     Node 4, Type 0, BuildingBlock: CEKHIL_clean_sbu_0, # of connection points: 4
#     Node 5, Type 0, BuildingBlock: CEKHIL_clean_sbu_0, # of connection points: 4
#     Node 6, Type 0, BuildingBlock: CEKHIL_clean_sbu_0, # of connection points: 4
#     Node 7, Type 0, BuildingBlock: CEKHIL_clean_sbu_0, # of connection points: 4
#     Node 8, Type 0, BuildingBlock: CEKHIL_clean_sbu_0, # of connection points: 4
#     Node 9, Type 0, BuildingBlock: CEKHIL_clean_sbu_0, # of connection points: 4
#     Node 10, Type 0, BuildingBlock: CEKHIL_clean_sbu_0, # of connection points: 4
#     Node 11, Type 0, BuildingBlock: CEKHIL_clean_sbu_0, # of connection points: 4
#     Node 12, Type 0, BuildingBlock: CEKHIL_clean_sbu_0, # of connection points: 4
#     Node 13, Type 0, BuildingBlock: CEKHIL_clean_sbu_0, # of connection points: 4
#     Node 14, Type 0, BuildingBlock: CEKHIL_clean_sbu_0, # of connection points: 4
#     Node 15, Type 0, BuildingBlock: CEKHIL_clean_sbu_0, # of connection points: 4
#     Node 16, Type 0, BuildingBlock: CEKHIL_clean_sbu_0, # of connection points: 4
#     Node 17, Type 0, BuildingBlock: CEKHIL_clean_sbu_0, # of connection points: 4
#     Node 18, Type 0, BuildingBlock: CEKHIL_clean_sbu_0, # of connection points: 4
#     Node 19, Type 0, BuildingBlock: CEKHIL_clean_sbu_0, # of connection points: 4
#     Node 20, Type 0, BuildingBlock: CEKHIL_clean_sbu_0, # of connection points: 4
#     Node 21, Type 0, BuildingBlock: CEKHIL_clean_sbu_0, # of connection points: 4
#     Node 22, Type 0, BuildingBlock: CEKHIL_clean_sbu_0, # of connection points: 4
#     Node 23, Type 0, BuildingBlock: CEKHIL_clean_sbu_0, # of connection points: 4
#     Node 24, Type 0, BuildingBlock: CEKHIL_clean_sbu_0, # of connection points: 4
#     Node 25, Type 0, BuildingBlock: CEKHIL_clean_sbu_0, # of connection points: 4
#     Node 26, Type 0, BuildingBlock: CEKHIL_clean_sbu_0, # of connection points: 4
#     Node 27, Type 0, BuildingBlock: CEKHIL_clean_sbu_0, # of connection points: 4
#     Node 28, Type 0, BuildingBlock: CEKHIL_clean_sbu_0, # of connection points: 4
#     Node 29, Type 0, BuildingBlock: CEKHIL_clean_sbu_0, # of connection points: 4
#     Node 30, Type 0, BuildingBlock: CEKHIL_clean_sbu_0, # of connection points: 4
#     Node 31, Type 0, BuildingBlock: CEKHIL_clean_sbu_0, # of connection points: 4
#     Node 32, Type 0, BuildingBlock: CEKHIL_clean_sbu_0, # of connection points: 4
#     Node 33, Type 0, BuildingBlock: CEKHIL_clean_sbu_0, # of connection points: 4
#     Node 34, Type 0, BuildingBlock: CEKHIL_clean_sbu_0, # of connection points: 4
#     Node 35, Type 0, BuildingBlock: CEKHIL_clean_sbu_0, # of connection points: 4
#     Node 36, Type 0, BuildingBlock: CEKHIL_clean_sbu_0, # of connection points: 4
#     Node 37, Type 0, BuildingBlock: CEKHIL_clean_sbu_0, # of connection points: 4
#     Node 38, Type 0, BuildingBlock: CEKHIL_clean_sbu_0, # of connection points: 4
#     Node 39, Type 0, BuildingBlock: CEKHIL_clean_sbu_0, # of connection points: 4
#     Node 40, Type 0, BuildingBlock: CEKHIL_clean_sbu_0, # of connection points: 4
#     Node 41, Type 0, BuildingBlock: CEKHIL_clean_sbu_0, # of connection points: 4
#     Node 42, Type 0, BuildingBlock: CEKHIL_clean_sbu_0, # of connection points: 4
#     Node 43, Type 0, BuildingBlock: CEKHIL_clean_sbu_0, # of connection points: 4
#     Node 44, Type 0, BuildingBlock: CEKHIL_clean_sbu_0, # of connection points: 4
#     Node 45, Type 0, BuildingBlock: CEKHIL_clean_sbu_0, # of connection points: 4
#     Node 46, Type 0, BuildingBlock: CEKHIL_clean_sbu_0, # of connection points: 4
#     Node 47, Type 0, BuildingBlock: CEKHIL_clean_sbu_0, # of connection points: 4
#     Edge 48, Type (0, 0), BuildingBlock: XUDNAN_clean_linker_2, # of connection points: 2
#     Edge 49, Type (0, 0), BuildingBlock: XUDNAN_clean_linker_2, # of connection points: 2
#     Edge 50, Type (0, 0), BuildingBlock: XUDNAN_clean_linker_2, # of connection points: 2
#     Edge 51, Type (0, 0), BuildingBlock: XUDNAN_clean_linker_2, # of connection points: 2
#     Edge 52, Type (0, 0), BuildingBlock: XUDNAN_clean_linker_2, # of connection points: 2
#     Edge 53, Type (0, 0), BuildingBlock: XUDNAN_clean_linker_2, # of connection points: 2
#     Edge 54, Type (0, 0), BuildingBlock: XUDNAN_clean_linker_2, # of connection points: 2
#     Edge 55, Type (0, 0), BuildingBlock: XUDNAN_clean_linker_2, # of connection points: 2
#     Edge 56, Type (0, 0), BuildingBlock: XUDNAN_clean_linker_2, # of connection points: 2
#     Edge 57, Type (0, 0), BuildingBlock: XUDNAN_clean_linker_2, # of connection points: 2
#     Edge 58, Type (0, 0), BuildingBlock: XUDNAN_clean_linker_2, # of connection points: 2
#     Edge 59, Type (0, 0), BuildingBlock: XUDNAN_clean_linker_2, # of connection points: 2
#     Edge 60, Type (0, 0), BuildingBlock: XUDNAN_clean_linker_2, # of connection points: 2
#     Edge 61, Type (0, 0), BuildingBlock: XUDNAN_clean_linker_2, # of connection points: 2
#     Edge 62, Type (0, 0), BuildingBlock: XUDNAN_clean_linker_2, # of connection points: 2
#     Edge 63, Type (0, 0), BuildingBlock: XUDNAN_clean_linker_2, # of connection points: 2
#     Edge 64, Type (0, 0), BuildingBlock: XUDNAN_clean_linker_2, # of connection points: 2
#     Edge 65, Type (0, 0), BuildingBlock: XUDNAN_clean_linker_2, # of connection points: 2
#     Edge 66, Type (0, 0), BuildingBlock: XUDNAN_clean_linker_2, # of connection points: 2
#     Edge 67, Type (0, 0), BuildingBlock: XUDNAN_clean_linker_2, # of connection points: 2
#     Edge 68, Type (0, 0), BuildingBlock: XUDNAN_clean_linker_2, # of connection points: 2
#     Edge 69, Type (0, 0), BuildingBlock: XUDNAN_clean_linker_2, # of connection points: 2
#     Edge 70, Type (0, 0), BuildingBlock: XUDNAN_clean_linker_2, # of connection points: 2
#     Edge 71, Type (0, 0), BuildingBlock: XUDNAN_clean_linker_2, # of connection points: 2
#     Edge 72, Type (0, 0), BuildingBlock: XUDNAN_clean_linker_2, # of connection points: 2
#     Edge 73, Type (0, 0), BuildingBlock: XUDNAN_clean_linker_2, # of connection points: 2
#     Edge 74, Type (0, 0), BuildingBlock: XUDNAN_clean_linker_2, # of connection points: 2
#     Edge 75, Type (0, 0), BuildingBlock: XUDNAN_clean_linker_2, # of connection points: 2
#     Edge 76, Type (0, 0), BuildingBlock: XUDNAN_clean_linker_2, # of connection points: 2
#     Edge 77, Type (0, 0), BuildingBlock: XUDNAN_clean_linker_2, # of connection points: 2
#     Edge 78, Type (0, 0), BuildingBlock: XUDNAN_clean_linker_2, # of connection points: 2
#     Edge 79, Type (0, 0), BuildingBlock: XUDNAN_clean_linker_2, # of connection points: 2
#     Edge 80, Type (0, 0), BuildingBlock: XUDNAN_clean_linker_2, # of connection points: 2
#     Edge 81, Type (0, 0), BuildingBlock: XUDNAN_clean_linker_2, # of connection points: 2
#     Edge 82, Type (0, 0), BuildingBlock: XUDNAN_clean_linker_2, # of connection points: 2
#     Edge 83, Type (0, 0), BuildingBlock: XUDNAN_clean_linker_2, # of connection points: 2
#     Edge 84, Type (0, 0), BuildingBlock: XUDNAN_clean_linker_2, # of connection points: 2
#     Edge 85, Type (0, 0), BuildingBlock: XUDNAN_clean_linker_2, # of connection points: 2
#     Edge 86, Type (0, 0), BuildingBlock: XUDNAN_clean_linker_2, # of connection points: 2
#     Edge 87, Type (0, 0), BuildingBlock: XUDNAN_clean_linker_2, # of connection points: 2
#     Edge 88, Type (0, 0), BuildingBlock: XUDNAN_clean_linker_2, # of connection points: 2
#     Edge 89, Type (0, 0), BuildingBlock: XUDNAN_clean_linker_2, # of connection points: 2
#     Edge 90, Type (0, 0), BuildingBlock: XUDNAN_clean_linker_2, # of connection points: 2
#     Edge 91, Type (0, 0), BuildingBlock: XUDNAN_clean_linker_2, # of connection points: 2
#     Edge 92, Type (0, 0), BuildingBlock: XUDNAN_clean_linker_2, # of connection points: 2
#     Edge 93, Type (0, 0), BuildingBlock: XUDNAN_clean_linker_2, # of connection points: 2
#     Edge 94, Type (0, 0), BuildingBlock: XUDNAN_clean_linker_2, # of connection points: 2
#     Edge 95, Type (0, 0), BuildingBlock: XUDNAN_clean_linker_2, # of connection points: 2
#     Edge 96, Type (0, 0), BuildingBlock: XUDNAN_clean_linker_2, # of connection points: 2
#     Edge 97, Type (0, 0), BuildingBlock: XUDNAN_clean_linker_2, # of connection points: 2
#     Edge 98, Type (0, 0), BuildingBlock: XUDNAN_clean_linker_2, # of connection points: 2
#     Edge 99, Type (0, 0), BuildingBlock: XUDNAN_clean_linker_2, # of connection points: 2
#     Edge 100, Type (0, 0), BuildingBlock: XUDNAN_clean_linker_2, # of connection points: 2
#     Edge 101, Type (0, 0), BuildingBlock: XUDNAN_clean_linker_2, # of connection points: 2
#     Edge 102, Type (0, 0), BuildingBlock: XUDNAN_clean_linker_2, # of connection points: 2
#     Edge 103, Type (0, 0), BuildingBlock: XUDNAN_clean_linker_2, # of connection points: 2
#     Edge 104, Type (0, 0), BuildingBlock: XUDNAN_clean_linker_2, # of connection points: 2
#     Edge 105, Type (0, 0), BuildingBlock: XUDNAN_clean_linker_2, # of connection points: 2
#     Edge 106, Type (0, 0), BuildingBlock: XUDNAN_clean_linker_2, # of connection points: 2
#     Edge 107, Type (0, 0), BuildingBlock: XUDNAN_clean_linker_2, # of connection points: 2
#     Edge 108, Type (0, 0), BuildingBlock: XUDNAN_clean_linker_2, # of connection points: 2
#     Edge 109, Type (0, 0), BuildingBlock: XUDNAN_clean_linker_2, # of connection points: 2
#     Edge 110, Type (0, 0), BuildingBlock: XUDNAN_clean_linker_2, # of connection points: 2
#     Edge 111, Type (0, 0), BuildingBlock: XUDNAN_clean_linker_2, # of connection points: 2
#     Edge 112, Type (0, 0), BuildingBlock: XUDNAN_clean_linker_2, # of connection points: 2
#     Edge 113, Type (0, 0), BuildingBlock: XUDNAN_clean_linker_2, # of connection points: 2
#     Edge 114, Type (0, 0), BuildingBlock: XUDNAN_clean_linker_2, # of connection points: 2
#     Edge 115, Type (0, 0), BuildingBlock: XUDNAN_clean_linker_2, # of connection points: 2
#     Edge 116, Type (0, 0), BuildingBlock: XUDNAN_clean_linker_2, # of connection points: 2
#     Edge 117, Type (0, 0), BuildingBlock: XUDNAN_clean_linker_2, # of connection points: 2
#     Edge 118, Type (0, 0), BuildingBlock: XUDNAN_clean_linker_2, # of connection points: 2
#     Edge 119, Type (0, 0), BuildingBlock: XUDNAN_clean_linker_2, # of connection points: 2
#     Edge 120, Type (0, 0), BuildingBlock: XUDNAN_clean_linker_2, # of connection points: 2
#     Edge 121, Type (0, 0), BuildingBlock: XUDNAN_clean_linker_2, # of connection points: 2
#     Edge 122, Type (0, 0), BuildingBlock: XUDNAN_clean_linker_2, # of connection points: 2
#     Edge 123, Type (0, 0), BuildingBlock: XUDNAN_clean_linker_2, # of connection points: 2
#     Edge 124, Type (0, 0), BuildingBlock: XUDNAN_clean_linker_2, # of connection points: 2
#     Edge 125, Type (0, 0), BuildingBlock: XUDNAN_clean_linker_2, # of connection points: 2
#     Edge 126, Type (0, 0), BuildingBlock: XUDNAN_clean_linker_2, # of connection points: 2
#     Edge 127, Type (0, 0), BuildingBlock: XUDNAN_clean_linker_2, # of connection points: 2
#     Edge 128, Type (0, 0), BuildingBlock: XUDNAN_clean_linker_2, # of connection points: 2
#     Edge 129, Type (0, 0), BuildingBlock: XUDNAN_clean_linker_2, # of connection points: 2
#     Edge 130, Type (0, 0), BuildingBlock: XUDNAN_clean_linker_2, # of connection points: 2
#     Edge 131, Type (0, 0), BuildingBlock: XUDNAN_clean_linker_2, # of connection points: 2
#     Edge 132, Type (0, 0), BuildingBlock: XUDNAN_clean_linker_2, # of connection points: 2
#     Edge 133, Type (0, 0), BuildingBlock: XUDNAN_clean_linker_2, # of connection points: 2
#     Edge 134, Type (0, 0), BuildingBlock: XUDNAN_clean_linker_2, # of connection points: 2
#     Edge 135, Type (0, 0), BuildingBlock: XUDNAN_clean_linker_2, # of connection points: 2
#     Edge 136, Type (0, 0), BuildingBlock: XUDNAN_clean_linker_2, # of connection points: 2
#     Edge 137, Type (0, 0), BuildingBlock: XUDNAN_clean_linker_2, # of connection points: 2
#     Edge 138, Type (0, 0), BuildingBlock: XUDNAN_clean_linker_2, # of connection points: 2
#     Edge 139, Type (0, 0), BuildingBlock: XUDNAN_clean_linker_2, # of connection points: 2
#     Edge 140, Type (0, 0), BuildingBlock: XUDNAN_clean_linker_2, # of connection points: 2
#     Edge 141, Type (0, 0), BuildingBlock: XUDNAN_clean_linker_2, # of connection points: 2
#     Edge 142, Type (0, 0), BuildingBlock: XUDNAN_clean_linker_2, # of connection points: 2
#     Edge 143, Type (0, 0), BuildingBlock: XUDNAN_clean_linker_2, # of connection points: 2
# Relax obj value: 0.299
# Max RMSD: 0.162
# Mean RMSD: 0.162
data_MOF--net-uko--node1-CEKHIL_clean_sbu_0--edge1-XUDNAN_clean_linker_2
_symmetry_space_group_name_H-M    P1
_symmetry_Int_Tables_number       1
_symmetry_cell_setting            triclinic
loop_
_symmetry_equiv_pos_as_xyz
'x, y, z'
_cell_length_a     55.21643
_cell_length_b     55.289805
_cell_length_c     55.2633
_cell_angle_alpha  90.014229
_cell_angle_beta   89.995489
_cell_angle_gamma 90.035647
loop_
_atom_site_label
_atom_site_type_symbol
_atom_site_fract_x
_atom_site_fract_y
_atom_site_fract_z
_atom_type_partial_charge
Co0 Co 0.02596 0.34999 0.24214 0.0
O1 O 0.03545 0.31766 0.23354 0.0
O2 O 0.9976 0.33018 0.23904 0.0
C3 C 0.04897 0.36983 0.21519 0.0
O4 O 0.00894 0.38178 0.24947 0.0
Co5 Co 0.06281 0.38624 0.26397 0.0
O6 O 0.03842 0.40969 0.25235 0.0
C7 C 0.04317 0.34762 0.29465 0.0
C8 C 0.01243 0.3128 0.23348 0.0
C9 C 0.01633 0.4038 0.24936 0.0
O10 O 0.0289 0.34117 0.27746 0.0
O11 O 0.05879 0.36459 0.29272 0.0
O12 O 0.02849 0.36026 0.20874 0.0
O13 O 0.05628 0.36465 0.23689 0.0
Co14 Co 0.96168 0.1065 0.23985 0.0
O15 O 0.94846 0.13515 0.2257 0.0
O16 O 0.98764 0.1284 0.23151 0.0
C17 C 0.9387 0.08051 0.2184 0.0
O18 O 0.98195 0.07864 0.25262 0.0
Co19 Co 0.92944 0.07431 0.27117 0.0
O20 O 0.95765 0.05229 0.27177 0.0
C21 C 0.94407 0.12138 0.28972 0.0
C22 C 0.97057 0.14291 0.2242 0.0
C23 C 0.97832 0.05849 0.26363 0.0
O24 O 0.95965 0.12224 0.27254 0.0
O25 O 0.92842 0.10441 0.29149 0.0
O26 O 0.95861 0.08935 0.20949 0.0
O27 O 0.93225 0.08915 0.23925 0.0
Co28 Co 0.02147 0.61328 0.22776 0.0
O29 O 0.02767 0.6457 0.23847 0.0
O30 O 0.99189 0.63157 0.22673 0.0
C31 C 0.04143 0.59399 0.25741 0.0
O32 O 0.00781 0.58089 0.21696 0.0
Co33 Co 0.06392 0.58076 0.21082 0.0
O34 O 0.03884 0.55528 0.21056 0.0
C35 C 0.04705 0.61973 0.17918 0.0
C36 C 0.00481 0.64961 0.23456 0.0
C37 C 0.01628 0.55976 0.21228 0.0
O38 O 0.02923 0.62359 0.19361 0.0
O39 O 0.0638 0.60433 0.18336 0.0
O40 O 0.01956 0.60191 0.26093 0.0
O41 O 0.05148 0.60041 0.23723 0.0
Co42 Co 0.96519 0.8618 0.23107 0.0
O43 O 0.94671 0.83265 0.23405 0.0
O44 O 0.98654 0.83529 0.23876 0.0
C45 C 0.94057 0.88531 0.2532 0.0
O46 O 0.98989 0.88906 0.23075 0.0
Co47 Co 0.94286 0.90438 0.20276 0.0
O48 O 0.97203 0.92174 0.21418 0.0
C49 C 0.9579 0.86121 0.17663 0.0
C50 C 0.96712 0.82192 0.23847 0.0
C51 C 0.98985 0.91146 0.2246 0.0
O52 O 0.96972 0.85489 0.1956 0.0
O53 O 0.94382 0.87956 0.17627 0.0
O54 O 0.95639 0.87141 0.26364 0.0
O55 O 0.93831 0.88253 0.23003 0.0
Co56 Co 0.28015 0.02429 0.38154 0.0
O57 O 0.27564 0.03301 0.34809 0.0
O58 O 0.27661 0.99552 0.36241 0.0
C59 C 0.25386 0.0508 0.39728 0.0
O60 O 0.2827 0.00799 0.41458 0.0
Co61 Co 0.30178 0.06024 0.41872 0.0
O62 O 0.29219 0.0357 0.44284 0.0
C63 C 0.33268 0.03991 0.38071 0.0
C64 C 0.27433 0.0099 0.34395 0.0
C65 C 0.28573 0.01444 0.43676 0.0
O66 O 0.31623 0.02417 0.37589 0.0
O67 O 0.32985 0.05696 0.39608 0.0
O68 O 0.24614 0.03053 0.38821 0.0
O69 O 0.27666 0.0554 0.39444 0.0
Co70 Co 0.72522 0.46324 0.38283 0.0
O71 O 0.72466 0.4593 0.34832 0.0
O72 O 0.71535 0.49312 0.36777 0.0
C73 C 0.76145 0.44572 0.38876 0.0
O74 O 0.72506 0.4743 0.41796 0.0
Co75 Co 0.72617 0.41796 0.41648 0.0
O76 O 0.73782 0.44246 0.43993 0.0
C77 C 0.6812 0.43137 0.39123 0.0
C78 C 0.71832 0.48187 0.34729 0.0
C79 C 0.73342 0.46495 0.43754 0.0
O80 O 0.69055 0.45178 0.38496 0.0
O81 O 0.69309 0.4147 0.40206 0.0
O82 O 0.76031 0.46817 0.38193 0.0
O83 O 0.74109 0.43427 0.38938 0.0
Co84 Co 0.25362 0.97053 0.13083 0.0
O85 O 0.25104 0.95381 0.16095 0.0
O86 O 0.25438 0.99359 0.15727 0.0
C87 C 0.22373 0.95048 0.11195 0.0
O88 O 0.25509 0.9937 0.10209 0.0
Co89 Co 0.27017 0.94123 0.08618 0.0
O90 O 0.26131 0.97104 0.06874 0.0
C91 C 0.30558 0.95345 0.12328 0.0
C92 C 0.2526 0.97476 0.17133 0.0
C93 C 0.25672 0.99117 0.07897 0.0
O94 O 0.28986 0.96749 0.13298 0.0
O95 O 0.30103 0.93988 0.10512 0.0
O96 O 0.21893 0.96867 0.12604 0.0
O97 O 0.24609 0.94337 0.11184 0.0
Co98 Co 0.74188 0.54821 0.14138 0.0
O99 O 0.73835 0.56186 0.17297 0.0
O100 O 0.73972 0.52255 0.16516 0.0
C101 C 0.772 0.57165 0.12784 0.0
O102 O 0.74652 0.52844 0.11053 0.0
Co103 Co 0.72782 0.58168 0.09841 0.0
O104 O 0.74587 0.55633 0.08066 0.0
C105 C 0.68958 0.56112 0.12822 0.0
C106 C 0.73734 0.53986 0.181 0.0
C107 C 0.75027 0.53508 0.0885 0.0
O108 O 0.70567 0.54752 0.13797 0.0
O109 O 0.69481 0.57789 0.11315 0.0
O110 O 0.77661 0.55341 0.14194 0.0
O111 O 0.74932 0.57733 0.1259 0.0
Co112 Co 0.3716 0.25618 0.02577 0.0
O113 O 0.33861 0.24551 0.02694 0.0
O114 O 0.35767 0.25764 0.99375 0.0
C115 C 0.38714 0.22606 0.0482 0.0
O116 O 0.40585 0.26724 0.01756 0.0
Co117 Co 0.39645 0.27263 0.07315 0.0
O118 O 0.42554 0.27497 0.05244 0.0
C119 C 0.35913 0.3033 0.05156 0.0
C120 C 0.33787 0.24981 0.00388 0.0
C121 C 0.42502 0.27302 0.02947 0.0
O122 O 0.36021 0.29022 0.03235 0.0
O123 O 0.37086 0.29826 0.07087 0.0
O124 O 0.38299 0.22295 0.02526 0.0
O125 O 0.37946 0.24624 0.05726 0.0
Co126 Co 0.37772 0.71883 0.45438 0.0
O127 O 0.34465 0.72834 0.44854 0.0
O128 O 0.36233 0.72611 0.48456 0.0
C129 C 0.39519 0.74116 0.42533 0.0
O130 O 0.41105 0.71111 0.46792 0.0
Co131 Co 0.40722 0.68979 0.41677 0.0
O132 O 0.4341 0.69208 0.4403 0.0
C133 C 0.36511 0.66796 0.44026 0.0
C134 C 0.34297 0.7304 0.47193 0.0
C135 C 0.43107 0.70143 0.46112 0.0
O136 O 0.36638 0.68431 0.45671 0.0
O137 O 0.3786 0.66802 0.42145 0.0
O138 O 0.38932 0.75098 0.4459 0.0
O139 O 0.38818 0.71905 0.42212 0.0
Co140 Co 0.62875 0.76011 0.43386 0.0
O141 O 0.65883 0.75809 0.41646 0.0
O142 O 0.65389 0.74918 0.45529 0.0
C143 C 0.60536 0.74177 0.40613 0.0
O144 O 0.60064 0.75841 0.45761 0.0
Co145 Co 0.58678 0.79139 0.41452 0.0
O146 O 0.56804 0.77606 0.44081 0.0
C147 C 0.62911 0.81526 0.43539 0.0
C148 C 0.66833 0.75114 0.4368 0.0
C149 C 0.57801 0.76383 0.4576 0.0
O150 O 0.6367 0.79455 0.44259 0.0
O151 O 0.61012 0.81801 0.42245 0.0
O152 O 0.61846 0.7292 0.42107 0.0
O153 O 0.60881 0.76497 0.40661 0.0
Co154 Co 0.13616 0.73574 0.53998 0.0
O155 O 0.16796 0.74052 0.55282 0.0
O156 O 0.15998 0.73044 0.51482 0.0
C157 C 0.11983 0.76919 0.55608 0.0
O158 O 0.10524 0.73093 0.52026 0.0
Co159 Co 0.09343 0.72688 0.57537 0.0
O160 O 0.07489 0.7375 0.54669 0.0
C161 C 0.1287 0.68818 0.56708 0.0
C162 C 0.17599 0.73565 0.53132 0.0
C163 C 0.08299 0.73581 0.52517 0.0
O164 O 0.13794 0.70061 0.5497 0.0
O165 O 0.11151 0.6959 0.58053 0.0
O166 O 0.13213 0.77044 0.53609 0.0
O167 O 0.11993 0.74839 0.56683 0.0
Co168 Co 0.95755 0.63688 0.72238 0.0
O169 O 0.95317 0.67149 0.72321 0.0
O170 O 0.98824 0.65285 0.71769 0.0
C171 C 0.9354 0.62759 0.7552 0.0
O172 O 0.96948 0.60185 0.72203 0.0
Co173 Co 0.91407 0.60225 0.7136 0.0
O174 O 0.93649 0.5789 0.72884 0.0
C175 C 0.93398 0.62978 0.67281 0.0
C176 C 0.97637 0.67307 0.71967 0.0
C177 C 0.95936 0.58187 0.72845 0.0
O178 O 0.95135 0.63732 0.68638 0.0
O179 O 0.91663 0.61645 0.68039 0.0
O180 O 0.95748 0.63541 0.75755 0.0
O181 O 0.92659 0.62847 0.7335 0.0
Co182 Co 0.03527 0.88342 0.71766 0.0
O183 O 0.04978 0.85239 0.72346 0.0
O184 O 0.01105 0.85817 0.71482 0.0
C185 C 0.05193 0.90319 0.74906 0.0
O186 O 0.01386 0.91292 0.71177 0.0
Co187 Co 0.0684 0.92644 0.70362 0.0
O188 O 0.03815 0.94528 0.70652 0.0
C189 C 0.05968 0.88809 0.66841 0.0
C190 C 0.02859 0.84311 0.71937 0.0
C191 C 0.01724 0.93579 0.70886 0.0
O192 O 0.043 0.87977 0.68229 0.0
O193 O 0.07341 0.90577 0.67428 0.0
O194 O 0.03281 0.88981 0.75211 0.0
O195 O 0.062 0.90182 0.72795 0.0
Co196 Co 0.96194 0.37412 0.79026 0.0
O197 O 0.95502 0.34061 0.78396 0.0
O198 O 0.99159 0.35711 0.78295 0.0
C199 C 0.9323 0.38965 0.76738 0.0
O200 O 0.97581 0.4083 0.79395 0.0
Co201 Co 0.92446 0.4064 0.81722 0.0
O202 O 0.94541 0.43282 0.80561 0.0
C203 C 0.95129 0.36931 0.84403 0.0
C204 C 0.97811 0.33797 0.78038 0.0
C205 C 0.96684 0.4295 0.79776 0.0
O206 O 0.96543 0.36611 0.82579 0.0
O207 O 0.93297 0.38342 0.84371 0.0
O208 O 0.95245 0.38264 0.75746 0.0
O209 O 0.9298 0.38471 0.7901 0.0
Co210 Co 0.01799 0.12797 0.76024 0.0
O211 O 0.03625 0.15728 0.75633 0.0
O212 O 0.99664 0.15387 0.75058 0.0
C213 C 0.04336 0.10285 0.74092 0.0
O214 O 0.99365 0.10026 0.76114 0.0
Co215 Co 0.03918 0.08757 0.79257 0.0
O216 O 0.01098 0.06896 0.78072 0.0
C217 C 0.02619 0.13411 0.81331 0.0
C218 C 0.01577 0.16764 0.75136 0.0
C219 C 0.99379 0.07814 0.76841 0.0
O220 O 0.01225 0.13709 0.795 0.0
O221 O 0.04046 0.116 0.81509 0.0
O222 O 0.0283 0.11624 0.72873 0.0
O223 O 0.04465 0.10742 0.76387 0.0
Co224 Co 0.7256 0.94595 0.61821 0.0
O225 O 0.72615 0.92843 0.64837 0.0
O226 O 0.73229 0.96786 0.64435 0.0
C227 C 0.74822 0.92024 0.59624 0.0
O228 O 0.72778 0.97021 0.59059 0.0
Co229 Co 0.69994 0.92451 0.57328 0.0
O230 O 0.71267 0.9535 0.55663 0.0
C231 C 0.67097 0.94087 0.61436 0.0
C232 C 0.73035 0.94921 0.65854 0.0
C233 C 0.72294 0.97079 0.56786 0.0
O234 O 0.68985 0.95149 0.62284 0.0
O235 O 0.67148 0.9274 0.59556 0.0
O236 O 0.75845 0.93574 0.6107 0.0
O237 O 0.72484 0.91891 0.59763 0.0
Co238 Co 0.27159 0.54317 0.63776 0.0
O239 O 0.27032 0.54582 0.67255 0.0
O240 O 0.27694 0.5119 0.65226 0.0
C241 C 0.23845 0.56514 0.6292 0.0
O242 O 0.27293 0.53303 0.60222 0.0
Co243 Co 0.28002 0.58886 0.60593 0.0
O244 O 0.27322 0.56649 0.57893 0.0
C245 C 0.32058 0.56847 0.63331 0.0
C246 C 0.27476 0.52275 0.67303 0.0
C247 C 0.27223 0.54361 0.58146 0.0
O248 O 0.30747 0.55009 0.63899 0.0
O249 O 0.31263 0.58667 0.62148 0.0
O250 O 0.2363 0.54266 0.63578 0.0
O251 O 0.25998 0.57419 0.6308 0.0
Co252 Co 0.72777 0.02808 0.86031 0.0
O253 O 0.73637 0.02815 0.82672 0.0
O254 O 0.72261 0.99625 0.84676 0.0
C255 C 0.7606 0.04795 0.87402 0.0
O256 O 0.71818 0.02111 0.89529 0.0
Co257 Co 0.71771 0.07719 0.88606 0.0
O258 O 0.71648 0.05665 0.91524 0.0
C259 C 0.68096 0.0569 0.85352 0.0
C260 C 0.73008 0.00554 0.82644 0.0
C261 C 0.71554 0.03362 0.91477 0.0
O262 O 0.6936 0.03751 0.8513 0.0
O263 O 0.68796 0.07544 0.86547 0.0
O264 O 0.7617 0.02488 0.86962 0.0
O265 O 0.74082 0.05855 0.86741 0.0
Co266 Co 0.29301 0.45786 0.88082 0.0
O267 O 0.29085 0.44323 0.8493 0.0
O268 O 0.29194 0.48267 0.85612 0.0
C269 C 0.26473 0.43492 0.89894 0.0
O270 O 0.29368 0.47952 0.91086 0.0
Co271 Co 0.31097 0.4275 0.92469 0.0
O272 O 0.3015 0.45629 0.94346 0.0
C273 C 0.34491 0.44099 0.88639 0.0
C274 C 0.29082 0.46502 0.84057 0.0
C275 C 0.29585 0.47647 0.9339 0.0
O276 O 0.32943 0.45636 0.87827 0.0
O277 O 0.34041 0.42639 0.90374 0.0
O278 O 0.25833 0.45339 0.88585 0.0
O279 O 0.28751 0.42957 0.89853 0.0
Co280 Co 0.63527 0.74615 0.96156 0.0
O281 O 0.66977 0.74747 0.95932 0.0
O282 O 0.6494 0.7417 0.99338 0.0
C283 C 0.62751 0.7787 0.93861 0.0
O284 O 0.59928 0.74522 0.97021 0.0
Co285 Co 0.6062 0.73604 0.91437 0.0
O286 O 0.57983 0.74951 0.93458 0.0
C287 C 0.63482 0.69727 0.93638 0.0
C288 C 0.67021 0.74383 0.98248 0.0
C289 C 0.58023 0.75014 0.95765 0.0
O290 O 0.63667 0.71015 0.95568 0.0
O291 O 0.62495 0.70511 0.91695 0.0
O292 O 0.63336 0.78138 0.96123 0.0
O293 O 0.62952 0.75698 0.93018 0.0
Co294 Co 0.64123 0.23045 0.51628 0.0
O295 O 0.67467 0.22375 0.51081 0.0
O296 O 0.65096 0.24324 0.48501 0.0
C297 C 0.63087 0.19383 0.53008 0.0
O298 O 0.6053 0.2394 0.51623 0.0
Co299 Co 0.62296 0.22851 0.56958 0.0
O300 O 0.59102 0.2314 0.55366 0.0
C301 C 0.6519 0.26991 0.55373 0.0
C302 C 0.67252 0.23537 0.49057 0.0
C303 C 0.58784 0.23738 0.53161 0.0
O304 O 0.65069 0.26211 0.53185 0.0
O305 O 0.64335 0.25834 0.57186 0.0
O306 O 0.63182 0.19765 0.50689 0.0
O307 O 0.63883 0.21107 0.54364 0.0
Co308 Co 0.36032 0.23501 0.53881 0.0
O309 O 0.32666 0.2432 0.5393 0.0
O310 O 0.3474 0.23348 0.50632 0.0
C311 C 0.37341 0.26539 0.56222 0.0
O312 O 0.39583 0.22693 0.53187 0.0
Co313 Co 0.38424 0.21885 0.58694 0.0
O314 O 0.4139 0.22652 0.5684 0.0
C315 C 0.34982 0.18655 0.563 0.0
C316 C 0.32684 0.23959 0.51612 0.0
C317 C 0.41486 0.22767 0.54538 0.0
O318 O 0.35107 0.2001 0.54414 0.0
O319 O 0.36059 0.1916 0.58287 0.0
O320 O 0.36925 0.26899 0.53937 0.0
O321 O 0.36666 0.24458 0.57064 0.0
Co322 Co 0.87738 0.27316 0.42861 0.0
O323 O 0.84619 0.27351 0.41289 0.0
O324 O 0.85214 0.26909 0.45231 0.0
C325 C 0.89582 0.24776 0.40288 0.0
O326 O 0.90643 0.2705 0.45119 0.0
Co327 Co 0.92245 0.29419 0.40271 0.0
O328 O 0.94013 0.28187 0.43124 0.0
C329 C 0.88456 0.32684 0.41985 0.0
C330 C 0.83702 0.27039 0.43431 0.0
C331 C 0.92951 0.27349 0.44991 0.0
O332 O 0.8756 0.30931 0.43223 0.0
O333 O 0.90227 0.32418 0.40517 0.0
O334 O 0.88198 0.23944 0.41999 0.0
O335 O 0.896 0.27103 0.40029 0.0
Co336 Co 0.53917 0.87576 0.76626 0.0
O337 O 0.5571 0.84607 0.76315 0.0
O338 O 0.51746 0.84857 0.76904 0.0
C339 C 0.55584 0.89534 0.73481 0.0
O340 O 0.51424 0.90279 0.76884 0.0
Co341 Co 0.5659 0.92327 0.77929 0.0
O342 O 0.53417 0.93817 0.77232 0.0
C343 C 0.56061 0.88564 0.81591 0.0
C344 C 0.53655 0.83507 0.76623 0.0
C345 C 0.51476 0.92601 0.76972 0.0
O346 O 0.5452 0.87492 0.80217 0.0
O347 O 0.57243 0.90446 0.8095 0.0
O348 O 0.53836 0.87995 0.73139 0.0
O349 O 0.56442 0.89636 0.75659 0.0
Co350 Co 0.47368 0.62715 0.76873 0.0
O351 O 0.47008 0.66105 0.76236 0.0
O352 O 0.50439 0.64337 0.77332 0.0
C353 C 0.45339 0.61358 0.73622 0.0
O354 O 0.48415 0.59247 0.77555 0.0
Co355 Co 0.42739 0.59683 0.7797 0.0
O356 O 0.45058 0.56952 0.77969 0.0
C357 C 0.44344 0.63448 0.81301 0.0
C358 C 0.49288 0.66311 0.76765 0.0
C359 C 0.47353 0.57193 0.77845 0.0
O360 O 0.4647 0.63328 0.80363 0.0
O361 O 0.42508 0.62352 0.80413 0.0
O362 O 0.4759 0.6202 0.73407 0.0
O363 O 0.44349 0.61802 0.75689 0.0
Co364 Co 0.53767 0.10964 0.70444 0.0
O365 O 0.55402 0.14025 0.7054 0.0
O366 O 0.51455 0.13567 0.70002 0.0
C367 C 0.55576 0.094 0.73748 0.0
O368 O 0.51453 0.08092 0.70383 0.0
Co369 Co 0.56796 0.06324 0.69553 0.0
O370 O 0.53658 0.04676 0.70061 0.0
C371 C 0.5612 0.09823 0.65659 0.0
C372 C 0.53299 0.15018 0.70228 0.0
C373 C 0.51642 0.05774 0.70296 0.0
O374 O 0.54361 0.10777 0.66847 0.0
O375 O 0.57514 0.08203 0.66543 0.0
O376 O 0.53717 0.10823 0.73963 0.0
O377 O 0.56415 0.09163 0.71578 0.0
Co378 Co 0.47029 0.3553 0.73688 0.0
O379 O 0.46589 0.32079 0.73682 0.0
O380 O 0.50045 0.33963 0.72886 0.0
C381 C 0.45086 0.36369 0.77156 0.0
O382 O 0.48184 0.3905 0.73651 0.0
Co383 Co 0.42553 0.38925 0.7326 0.0
O384 O 0.44899 0.41279 0.74583 0.0
C385 C 0.44201 0.36243 0.69002 0.0
C386 C 0.48853 0.31939 0.73063 0.0
C387 C 0.47183 0.41023 0.74388 0.0
O388 O 0.46107 0.35576 0.70158 0.0
O389 O 0.42492 0.37483 0.69947 0.0
O390 O 0.47306 0.35585 0.7721 0.0
O391 O 0.44045 0.36305 0.75061 0.0
Co392 Co 0.76978 0.54163 0.87766 0.0
O393 O 0.75913 0.54289 0.84445 0.0
O394 O 0.77109 0.50982 0.86375 0.0
C395 C 0.73961 0.56389 0.8932 0.0
O396 O 0.7804 0.53222 0.91165 0.0
Co397 Co 0.78497 0.58732 0.90647 0.0
O398 O 0.78609 0.5653 0.93459 0.0
C399 C 0.81814 0.56709 0.86999 0.0
C400 C 0.76271 0.51966 0.84413 0.0
C401 C 0.78489 0.54245 0.93205 0.0
O402 O 0.80413 0.54871 0.8669 0.0
O403 O 0.81308 0.5849 0.88384 0.0
O404 O 0.73626 0.54107 0.8888 0.0
O405 O 0.76001 0.57299 0.88628 0.0
Co406 Co 0.20922 0.97145 0.88147 0.0
O407 O 0.21683 0.96149 0.84887 0.0
O408 O 0.2167 -0.00067 0.86224 0.0
C409 C 0.23193 0.94373 0.90067 0.0
O410 O 0.204 0.98917 0.9134 0.0
Co411 Co 0.18148 0.93871 0.91725 0.0
O412 O 0.18719 0.96464 0.94117 0.0
C413 C 0.156 0.95949 0.87564 0.0
C414 C 0.21996 0.98437 0.84442 0.0
C415 C 0.19628 0.98484 0.93491 0.0
O416 O 0.17405 0.97367 0.87181 0.0
O417 O 0.15602 0.943 0.89185 0.0
O418 O 0.24175 0.96331 0.89209 0.0
O419 O 0.20928 0.94047 0.89557 0.0
Co420 Co 0.75073 0.43813 0.64691 0.0
O421 O 0.74359 0.42557 0.67849 0.0
O422 O 0.74087 0.46417 0.66787 0.0
C423 C 0.73147 0.40979 0.62522 0.0
O424 O 0.75571 0.45753 0.616 0.0
Co425 Co 0.78328 0.40793 0.61214 0.0
O426 O 0.77685 0.43485 0.58952 0.0
C427 C 0.80417 0.42983 0.6555 0.0
C428 C 0.7394 0.44783 0.68475 0.0
C429 C 0.76557 0.45414 0.59518 0.0
O430 O 0.78526 0.4432 0.65743 0.0
O431 O 0.80606 0.41289 0.63985 0.0
O432 O 0.71921 0.42748 0.63474 0.0
O433 O 0.75393 0.40837 0.63144 0.0
Co434 Co 0.2206 0.02978 0.63344 0.0
O435 O 0.22509 0.04552 0.66401 0.0
O436 O 0.22877 0.00604 0.65777 0.0
C437 C 0.24227 0.05611 0.61129 0.0
O438 O 0.21914 0.00756 0.60405 0.0
Co439 Co 0.19134 0.05531 0.59342 0.0
O440 O 0.20306 0.02842 0.57296 0.0
C441 C 0.16656 0.03845 0.63687 0.0
C442 C 0.22948 0.0242 0.67275 0.0
C443 C 0.21343 0.00976 0.58159 0.0
O444 O 0.18523 0.02538 0.64145 0.0
O445 O 0.16595 0.05349 0.61931 0.0
O446 O 0.25299 0.03908 0.62343 0.0
O447 O 0.21919 0.05827 0.61496 0.0
Co448 Co 0.87161 0.75303 0.50922 0.0
O449 O 0.83826 0.74361 0.51208 0.0
O450 O 0.8568 0.75293 0.4777 0.0
C451 C 0.88724 0.72416 0.53317 0.0
O452 O 0.90583 0.76202 0.49879 0.0
Co453 Co 0.89985 0.77181 0.5538 0.0
O454 O 0.92809 0.77054 0.53184 0.0
C455 C 0.86098 0.80126 0.5331 0.0
C456 C 0.83705 0.74648 0.48878 0.0
C457 C 0.92607 0.76704 0.50914 0.0
O458 O 0.86144 0.7878 0.51411 0.0
O459 O 0.87367 0.79681 0.55194 0.0
O460 O 0.88192 0.7194 0.51075 0.0
O461 O 0.88064 0.74522 0.54095 0.0
Co462 Co 0.87614 0.21385 0.96632 0.0
O463 O 0.84226 0.2219 0.96343 0.0
O464 O 0.86 0.20776 0.99651 0.0
C465 C 0.89141 0.24727 0.94901 0.0
O466 O 0.91043 0.20531 0.97706 0.0
Co467 Co 0.90847 0.20516 0.92121 0.0
O468 O 0.93446 0.21188 0.94486 0.0
C469 C 0.87381 0.16776 0.93578 0.0
C470 C 0.84043 0.21552 0.986 0.0
C471 C 0.93134 0.20896 0.96749 0.0
O472 O 0.86879 0.17989 0.95499 0.0
O473 O 0.88841 0.17509 0.91939 0.0
O474 O 0.88427 0.24763 0.97142 0.0
O475 O 0.88645 0.22771 0.93705 0.0
Co476 Co 0.13142 0.26607 0.94421 0.0
O477 O 0.1615 0.26048 0.92775 0.0
O478 O 0.15557 0.25568 0.96716 0.0
C479 C 0.107 0.24673 0.91835 0.0
O480 O 0.1025 0.26871 0.96688 0.0
Co481 Co 0.09352 0.29901 0.91971 0.0
O482 O 0.07244 0.28652 0.94591 0.0
C483 C 0.13824 0.32017 0.93779 0.0
C484 C 0.17034 0.25499 0.9488 0.0
C485 C 0.08024 0.27515 0.96441 0.0
O486 O 0.14144 0.30058 0.94984 0.0
O487 O 0.12101 0.3227 0.92256 0.0
O488 O 0.11929 0.23475 0.93443 0.0
O489 O 0.11245 0.26945 0.91627 0.0
Co490 Co 0.64059 0.2601 0.06172 0.0
O491 O 0.67332 0.25804 0.07292 0.0
O492 O 0.66198 0.25326 0.03474 0.0
C493 C 0.63099 0.29361 0.08247 0.0
O494 O 0.60827 0.26167 0.04373 0.0
Co495 Co 0.5986 0.25518 0.09896 0.0
O496 O 0.5797 0.26903 0.07188 0.0
C497 C 0.626 0.21202 0.08437 0.0
C498 C 0.67927 0.25311 0.05077 0.0
C499 C 0.58665 0.26782 0.04992 0.0
O500 O 0.63683 0.22444 0.06794 0.0
O501 O 0.61107 0.22114 0.09955 0.0
O502 O 0.64189 0.29555 0.0617 0.0
O503 O 0.62823 0.27199 0.0907 0.0
Co504 Co 0.45963 0.11756 0.22711 0.0
O505 O 0.45365 0.15117 0.23445 0.0
O506 O 0.48875 0.13575 0.22243 0.0
C507 C 0.44156 0.10118 0.25961 0.0
O508 O 0.47381 0.08457 0.21945 0.0
Co509 Co 0.41813 0.08162 0.21594 0.0
O510 O 0.44399 0.05693 0.21734 0.0
C511 C 0.43188 0.11735 0.17933 0.0
C512 C 0.47633 0.15457 0.22902 0.0
C513 C 0.46632 0.06268 0.21758 0.0
O514 O 0.45 0.12366 0.19247 0.0
O515 O 0.4161 0.10175 0.1859 0.0
O516 O 0.46331 0.11006 0.26119 0.0
O517 O 0.4304 0.10499 0.23935 0.0
Co518 Co 0.53472 0.36153 0.2628 0.0
O519 O 0.54806 0.32968 0.26208 0.0
O520 O 0.51019 0.33879 0.25225 0.0
C521 C 0.54978 0.37182 0.29909 0.0
O522 O 0.51494 0.39255 0.26218 0.0
Co523 Co 0.57081 0.40506 0.2637 0.0
O524 O 0.54065 0.4228 0.27178 0.0
C525 C 0.56487 0.37633 0.21949 0.0
C526 C 0.52704 0.32247 0.25453 0.0
C527 C 0.51935 0.41457 0.26822 0.0
O528 O 0.54562 0.36662 0.22831 0.0
O529 O 0.57899 0.3901 0.23164 0.0
O530 O 0.52977 0.35949 0.29798 0.0
O531 O 0.56083 0.37526 0.27888 0.0
Co532 Co 0.45398 0.86148 0.24271 0.0
O533 O 0.43775 0.83312 0.23128 0.0
O534 O 0.4776 0.8371 0.23487 0.0
C535 C 0.43339 0.88821 0.22031 0.0
O536 O 0.47701 0.88857 0.25204 0.0
Co537 Co 0.42568 0.89813 0.27304 0.0
O538 O 0.45389 0.91901 0.26593 0.0
C539 C 0.43862 0.85228 0.29516 0.0
C540 C 0.45913 0.82372 0.22891 0.0
C541 C 0.47404 0.91068 0.25847 0.0
O542 O 0.45216 0.84846 0.27667 0.0
O543 O 0.42476 0.87071 0.29683 0.0
O544 O 0.45155 0.8763 0.21135 0.0
O545 O 0.4263 0.88156 0.24174 0.0
Co546 Co 0.51894 0.62036 0.23474 0.0
O547 O 0.5261 0.65132 0.2209 0.0
O548 O 0.48929 0.63782 0.23007 0.0
C549 C 0.54272 0.59851 0.21033 0.0
O550 O 0.50425 0.58936 0.24809 0.0
Co551 Co 0.55933 0.5907 0.26017 0.0
O552 O 0.53374 0.56601 0.26376 0.0
C553 C 0.54055 0.63471 0.2832 0.0
C554 C 0.50289 0.6551 0.22171 0.0
C555 C 0.51168 0.56982 0.25821 0.0
O556 O 0.52287 0.63508 0.26803 0.0
O557 O 0.55805 0.61962 0.28185 0.0
O558 O 0.52136 0.60505 0.203 0.0
O559 O 0.54985 0.6073 0.23076 0.0
Co560 Co 0.22288 0.45499 0.12189 0.0
O561 O 0.22431 0.43873 0.15265 0.0
O562 O 0.2273 0.47836 0.14749 0.0
C563 C 0.24776 0.42989 0.10172 0.0
O564 O 0.22384 0.47816 0.09307 0.0
Co565 Co 0.20041 0.42953 0.07706 0.0
O566 O 0.21203 0.45831 0.05945 0.0
C567 C 0.16901 0.44528 0.11673 0.0
C568 C 0.22678 0.46003 0.16224 0.0
C569 C 0.22025 0.47701 0.07007 0.0
O570 O 0.18661 0.45759 0.1257 0.0
O571 O 0.17123 0.43144 0.09833 0.0
O572 O 0.25664 0.44683 0.11543 0.0
O573 O 0.22453 0.42718 0.1026 0.0
Co574 Co 0.73978 0.03719 0.13605 0.0
O575 O 0.73937 0.0414 0.17044 0.0
O576 O 0.73864 0.00597 0.15154 0.0
C577 C 0.71161 0.06516 0.12762 0.0
O578 O 0.73885 0.02607 0.10082 0.0
Co579 Co 0.7565 0.07912 0.10271 0.0
O580 O 0.73808 0.06012 0.07858 0.0
C581 C 0.79282 0.0514 0.1299 0.0
C582 C 0.73873 0.01798 0.1718 0.0
C583 C 0.73483 0.03743 0.08091 0.0
O584 O 0.77625 0.03673 0.13701 0.0
O585 O 0.78869 0.07011 0.11692 0.0
O586 O 0.70517 0.04358 0.13438 0.0
O587 O 0.73457 0.06975 0.12851 0.0
Co588 Co 0.21641 0.53035 0.36815 0.0
O589 O 0.21985 0.53513 0.33377 0.0
O590 O 0.22043 0.49958 0.35228 0.0
C591 C 0.24201 0.55933 0.38062 0.0
O592 O 0.21512 0.5183 0.40312 0.0
Co593 Co 0.19407 0.57032 0.40095 0.0
O594 O 0.21063 0.55146 0.42636 0.0
C595 C 0.1626 0.5427 0.36843 0.0
C596 C 0.22158 0.51174 0.33218 0.0
C597 C 0.21628 0.52932 0.42362 0.0
O598 O 0.18018 0.52822 0.36362 0.0
O599 O 0.16469 0.56137 0.3819 0.0
O600 O 0.25031 0.53855 0.37334 0.0
O601 O 0.21908 0.56282 0.3773 0.0
Co602 Co 0.76814 0.95904 0.37808 0.0
O603 O 0.75586 0.94474 0.34904 0.0
O604 O 0.76196 0.98402 0.3544 0.0
C605 C 0.74432 0.93851 0.40382 0.0
O606 O 0.77908 0.98015 0.40622 0.0
Co607 Co 0.79632 0.92717 0.41342 0.0
O608 O 0.7932 0.95537 0.43519 0.0
C609 C 0.81911 0.94036 0.3679 0.0
C610 C 0.75521 0.96644 0.34022 0.0
C611 C 0.78657 0.97621 0.42791 0.0
O612 O 0.80192 0.95566 0.36495 0.0
O613 O 0.81955 0.92542 0.38554 0.0
O614 O 0.73657 0.95784 0.39296 0.0
O615 O 0.76529 0.93057 0.39678 0.0
Co616 Co 0.1224 0.22473 0.44753 0.0
O617 O 0.15267 0.23402 0.43329 0.0
O618 O 0.14544 0.23229 0.47272 0.0
C619 C 0.09808 0.24705 0.42405 0.0
O620 O 0.09294 0.21728 0.46836 0.0
Co621 Co 0.08741 0.19435 0.41694 0.0
O622 O 0.06512 0.19933 0.44457 0.0
C623 C 0.13179 0.1722 0.43394 0.0
C624 C 0.16074 0.23625 0.45521 0.0
C625 C 0.07165 0.2086 0.46465 0.0
O626 O 0.13389 0.19032 0.44824 0.0
O627 O 0.11521 0.17093 0.41785 0.0
O628 O 0.1091 0.25656 0.44252 0.0
O629 O 0.10465 0.22522 0.41836 0.0
Co630 Co 0.11957 0.77013 0.04621 0.0
O631 O 0.15001 0.76368 0.06174 0.0
O632 O 0.14528 0.77084 0.02255 0.0
C633 C 0.09868 0.7399 0.0637 0.0
O634 O 0.091 0.77617 0.02362 0.0
Co635 Co 0.07591 0.78659 0.07685 0.0
O636 O 0.05788 0.78365 0.04614 0.0
C637 C 0.1148 0.82108 0.06704 0.0
C638 C 0.15976 0.76604 0.04051 0.0
C639 C 0.06816 0.78025 0.02579 0.0
O640 O 0.12427 0.80566 0.05247 0.0
O641 O 0.09611 0.81653 0.07992 0.0
O642 O 0.11216 0.73595 0.04486 0.0
O643 O 0.10021 0.76138 0.07297 0.0
Co644 Co 0.88107 0.72551 0.0318 0.0
O645 O 0.85161 0.72784 0.05037 0.0
O646 O 0.85405 0.73026 0.01039 0.0
C647 C 0.90383 0.75028 0.05454 0.0
O648 O 0.90802 0.72556 0.00654 0.0
Co649 Co 0.92698 0.70216 0.05434 0.0
O650 O 0.94266 0.71343 0.02435 0.0
C651 C 0.8848 0.67221 0.04321 0.0
C652 C 0.84063 0.73033 0.02973 0.0
C653 C 0.93099 0.7217 0.0063 0.0
O654 O 0.87625 0.68941 0.03011 0.0
O655 O 0.90399 0.67435 0.05597 0.0
O656 O 0.8889 0.75917 0.03867 0.0
O657 O 0.90248 0.72718 0.05797 0.0
Co658 Co 0.36091 0.76712 0.96321 0.0
O659 O 0.32849 0.75484 0.96215 0.0
O660 O 0.34767 0.76631 0.99554 0.0
C661 C 0.37802 0.73964 0.93888 0.0
O662 O 0.39478 0.77942 0.97122 0.0
Co663 Co 0.38373 0.78774 0.91644 0.0
O664 O 0.41377 0.78685 0.93596 0.0
C665 C 0.34527 0.81491 0.9405 0.0
C666 C 0.32791 0.75844 0.98536 0.0
C667 C 0.41394 0.78434 0.95889 0.0
O668 O 0.34737 0.80073 0.95879 0.0
O669 O 0.35708 0.81195 0.92081 0.0
O670 O 0.37454 0.73471 0.96162 0.0
O671 O 0.36853 0.75956 0.93111 0.0
H672 H 0.01181 0.16928 0.23233 0.0
H673 H 0.93946 0.17376 0.20195 0.0
H674 H 0.94396 0.21785 0.19768 0.0
H675 H 0.00756 0.2199 0.26791 0.0
H676 H 0.0382 0.23038 0.26383 0.0
H677 H 0.03135 0.19871 0.2609 0.0
H678 H 0.04972 0.19818 0.21774 0.0
H679 H 0.05708 0.22981 0.22067 0.0
H680 H 0.03908 0.2195 0.19548 0.0
H681 H 0.95323 0.26128 0.20301 0.0
H682 H 0.96875 0.30182 0.21367 0.0
H683 H 0.03568 0.26964 0.23918 0.0
C684 C 0.9973 0.17945 0.22397 0.0
C685 C 0.97535 0.16817 0.21735 0.0
C686 C 0.95647 0.1821 0.20706 0.0
C687 C 0.95884 0.20714 0.20455 0.0
C688 C 0.98029 0.2179 0.21221 0.0
C689 C -0.00062 0.20453 0.22134 0.0
C690 C 0.01964 0.22082 0.23007 0.0
C691 C 0.02445 0.21723 0.25728 0.0
C692 C 0.04275 0.21684 0.21509 0.0
C693 C 0.00862 0.24536 0.22505 0.0
C694 C 0.98591 0.24324 0.21474 0.0
C695 C 0.97122 0.26326 0.21051 0.0
C696 C 0.98007 0.28614 0.2168 0.0
C697 C 0.00344 0.28871 0.22694 0.0
C698 C 0.01793 0.2681 0.23095 0.0
H699 H 0.02916 0.69229 0.23854 0.0
H700 H 0.95685 0.66146 0.23747 0.0
H701 H 0.93938 0.70244 0.24144 0.0
H702 H 0.01732 0.74121 0.28111 0.0
H703 H 0.03626 0.76237 0.26506 0.0
H704 H 0.04305 0.73051 0.26412 0.0
H705 H 0.04178 0.73148 0.2172 0.0
H706 H 0.03501 0.76331 0.21798 0.0
H707 H 0.01514 0.74282 0.20216 0.0
H708 H 0.92992 0.74653 0.24357 0.0
H709 H 0.9288 0.79107 0.24209 0.0
H710 H 0.00742 0.79311 0.24097 0.0
C711 C 0.00965 0.69413 0.23954 0.0
C712 C 0.9943 0.67379 0.23795 0.0
C713 C 0.96888 0.67689 0.23876 0.0
C714 C 0.95883 0.70003 0.24109 0.0
C715 C 0.97449 0.71975 0.24245 0.0
C716 C -0.00065 0.71706 0.2416 0.0
C717 C 0.01213 0.74127 0.24176 0.0
C718 C 0.02813 0.74399 0.26436 0.0
C719 C 0.02687 0.74493 0.21839 0.0
C720 C 0.99054 0.75805 0.24273 0.0
C721 C 0.96903 0.74526 0.24328 0.0
C722 C 0.94663 0.75677 0.24332 0.0
C723 C 0.94621 0.78205 0.24246 0.0
C724 C 0.96804 0.7955 0.24151 0.0
C725 C 0.99046 0.78331 0.24196 0.0
H726 H 0.26353 0.01442 0.19969 0.0
H727 H 0.24422 0.93831 0.20309 0.0
H728 H 0.24796 0.93923 0.24738 0.0
H729 H 0.30797 0.01235 0.24737 0.0
H730 H 0.30037 0.04161 0.25954 0.0
H731 H 0.29581 0.03546 0.22785 0.0
H732 H 0.25059 0.04748 0.23173 0.0
H733 H 0.25503 0.05383 0.2634 0.0
H734 H 0.23193 0.03275 0.25408 0.0
H735 H 0.25466 0.94759 0.29079 0.0
H736 H 0.26246 0.9637 0.33166 0.0
H737 H 0.27701 0.03452 0.30092 0.0
C738 C 0.25987 -0.00195 0.20981 0.0
C739 C 0.2535 0.97633 0.19795 0.0
C740 C 0.2491 0.95519 0.21177 0.0
C741 C 0.2512 0.95548 0.23695 0.0
C742 C 0.25775 0.97704 0.24809 0.0
C743 C 0.26196 -0.00201 0.23509 0.0
C744 C 0.26897 0.01863 0.25174 0.0
C745 C 0.29481 0.02753 0.24629 0.0
C746 C 0.25053 0.0394 0.25014 0.0
C747 C 0.26774 0.00599 0.27604 0.0
C748 C 0.26143 0.98197 0.27344 0.0
C749 C 0.25953 0.96641 0.29314 0.0
C750 C 0.26403 0.9757 0.31625 0.0
C751 C 0.27019 0.00035 0.31942 0.0
C752 C 0.27213 0.01564 0.29903 0.0
H753 H 0.73779 0.49627 0.20517 0.0
H754 H 0.72565 0.57322 0.21522 0.0
H755 H 0.71665 0.5663 0.25827 0.0
H756 H 0.69098 0.4755 0.24662 0.0
H757 H 0.70886 0.45069 0.25795 0.0
H758 H 0.71331 0.46138 0.22747 0.0
H759 H 0.75893 0.46815 0.23626 0.0
H760 H 0.75465 0.45734 0.26668 0.0
H761 H 0.76777 0.48675 0.26157 0.0
H762 H 0.71 0.5515 0.30037 0.0
H763 H 0.70841 0.52973 0.33939 0.0
H764 H 0.72515 0.46256 0.30227 0.0
C765 C 0.73314 0.51161 0.21642 0.0
C766 C 0.7324 0.53525 0.20684 0.0
C767 C 0.72639 0.55492 0.22217 0.0
C768 C 0.72112 0.55119 0.24664 0.0
C769 C 0.72195 0.5277 0.25555 0.0
C770 C 0.72793 0.50824 0.241 0.0
C771 C 0.72854 0.48498 0.25544 0.0
C772 C 0.70927 0.46709 0.24632 0.0
C773 C 0.75398 0.47365 0.25496 0.0
C774 C 0.72226 0.49452 0.28037 0.0
C775 C 0.7183 0.51916 0.27998 0.0
C776 C 0.71293 0.53215 0.30093 0.0
C777 C 0.71202 0.51965 0.32298 0.0
C778 C 0.71659 0.49449 0.32384 0.0
C779 C 0.7214 0.48178 0.30217 0.0
H780 H 0.29282 0.24379 0.02279 0.0
H781 H 0.33127 0.25086 0.95466 0.0
H782 H 0.29224 0.24903 0.93267 0.0
H783 H 0.24458 0.20338 0.00178 0.0
H784 H 0.22193 0.21817 0.02001 0.0
H785 H 0.25298 0.21741 0.03001 0.0
H786 H 0.25315 0.26419 0.03342 0.0
H787 H 0.22216 0.2651 0.02344 0.0
H788 H 0.24495 0.28212 0.00745 0.0
H789 H 0.24893 0.24917 0.91857 0.0
H790 H 0.20473 0.253 0.91333 0.0
H791 H 0.19493 0.24674 0.99102 0.0
C792 C 0.29311 0.24448 0.0032 0.0
C793 C 0.31503 0.24722 0.99036 0.0
C794 C 0.31463 0.24862 0.9648 0.0
C795 C 0.29259 0.24751 0.95219 0.0
C796 C 0.27125 0.24507 0.96547 0.0
C797 C 0.27136 0.24363 0.99043 0.0
C798 C 0.24594 0.24302 0.00061 0.0
C799 C 0.24108 0.21906 0.01388 0.0
C800 C 0.24128 0.26491 0.0172 0.0
C801 C 0.23142 0.24469 0.9775 0.0
C802 C 0.24633 0.24559 0.95741 0.0
C803 C 0.23708 0.24825 0.93414 0.0
C804 C 0.21195 0.25042 0.93137 0.0
C805 C 0.19642 0.25008 0.95178 0.0
C806 C 0.20632 0.24681 0.97507 0.0
H807 H 0.29738 0.72534 0.45305 0.0
H808 H 0.33629 0.74575 0.51819 0.0
H809 H 0.29753 0.75021 0.53992 0.0
H810 H 0.24508 0.76522 0.46172 0.0
H811 H 0.22385 0.74318 0.45039 0.0
H812 H 0.25457 0.7434 0.4394 0.0
H813 H 0.25923 0.6984 0.45171 0.0
H814 H 0.22861 0.69808 0.46293 0.0
H815 H 0.25326 0.68953 0.48252 0.0
H816 H 0.25543 0.75032 0.55512 0.0
H817 H 0.21172 0.74737 0.56301 0.0
H818 H 0.19946 0.72634 0.48825 0.0
C819 C 0.29767 0.73125 0.47173 0.0
C820 C 0.31975 0.73542 0.48395 0.0
C821 C 0.31952 0.74256 0.50853 0.0
C822 C 0.29763 0.74513 0.521 0.0
C823 C 0.2762 0.74039 0.50862 0.0
C824 C 0.27595 0.73369 0.48454 0.0
C825 C 0.2504 0.72857 0.47592 0.0
C826 C 0.24304 0.74615 0.45566 0.0
C827 C 0.24773 0.70207 0.46779 0.0
C828 C 0.23635 0.73341 0.49897 0.0
C829 C 0.25167 0.74021 0.51755 0.0
C830 C 0.2432 0.74518 0.5407 0.0
C831 C 0.21832 0.74339 0.54499 0.0
C832 C 0.20218 0.7367 0.52622 0.0
C833 C 0.21137 0.73157 0.50291 0.0
H834 H 0.79226 0.73999 0.50853 0.0
H835 H 0.82948 0.74814 0.43982 0.0
H836 H 0.79011 0.74709 0.41852 0.0
H837 H 0.74379 0.7 0.48738 0.0
H838 H 0.72137 0.71428 0.50629 0.0
H839 H 0.75258 0.71345 0.51578 0.0
H840 H 0.75257 0.76016 0.5202 0.0
H841 H 0.72142 0.76114 0.5107 0.0
H842 H 0.74389 0.77861 0.49474 0.0
H843 H 0.74661 0.74826 0.40517 0.0
H844 H 0.70222 0.75158 0.40071 0.0
H845 H 0.69383 0.74267 0.4783 0.0
C846 C 0.79219 0.7411 0.48896 0.0
C847 C 0.81389 0.74398 0.47578 0.0
C848 C 0.81303 0.74582 0.45024 0.0
C849 C 0.79079 0.7452 0.438 0.0
C850 C 0.76968 0.7427 0.4516 0.0
C851 C 0.77022 0.74063 0.47651 0.0
C852 C 0.74496 0.73966 0.48706 0.0
C853 C 0.74042 0.7154 0.49988 0.0
C854 C 0.74046 0.76117 0.50417 0.0
C855 C 0.73009 0.74178 0.4642 0.0
C856 C 0.74466 0.7434 0.44392 0.0
C857 C 0.73501 0.74671 0.42087 0.0
C858 C 0.7098 0.7486 0.41854 0.0
C859 C 0.69462 0.7472 0.43914 0.0
C860 C 0.70495 0.74348 0.46218 0.0
H861 H 0.98577 0.81747 0.71754 0.0
H862 H 0.06388 0.80875 0.71976 0.0
H863 H 0.05899 0.76447 0.71858 0.0
H864 H 0.97178 0.76743 0.75607 0.0
H865 H 0.94506 0.75854 0.73955 0.0
H866 H 0.95462 0.78968 0.73951 0.0
H867 H 0.9557 0.78935 0.69262 0.0
H868 H 0.94618 0.75817 0.69252 0.0
H869 H 0.97361 0.76691 0.67714 0.0
H870 H 0.04586 0.7212 0.71764 0.0
H871 H 0.02512 0.68162 0.71848 0.0
H872 H 0.95551 0.71809 0.71779 0.0
C873 C 0.00181 0.80622 0.71771 0.0
C874 C 0.0252 0.81657 0.71882 0.0
C875 C 0.04577 0.80125 0.71908 0.0
C876 C 0.0432 0.77606 0.7183 0.0
C877 C 0.01993 0.76641 0.71734 0.0
C878 C -0.00042 0.78096 0.71711 0.0
C879 C 0.97665 0.76586 0.71671 0.0
C880 C 0.96112 0.77067 0.73931 0.0
C881 C 0.96219 0.77034 0.69335 0.0
C882 C 0.98733 0.74061 0.71707 0.0
C883 C 0.01233 0.74136 0.71718 0.0
C884 C 0.02628 0.72036 0.71755 0.0
C885 C 0.01434 0.69797 0.71801 0.0
C886 C 0.98873 0.69677 0.71829 0.0
C887 C 0.97512 0.71842 0.71768 0.0
H888 H 0.9755 0.19563 0.75801 0.0
H889 H 0.05262 0.19957 0.74354 0.0
H890 H 0.05114 0.24404 0.74765 0.0
H891 H 0.95797 0.25224 0.72778 0.0
H892 H 0.9359 0.25957 0.75068 0.0
H893 H 0.94267 0.2284 0.74398 0.0
H894 H 0.9528 0.22108 0.7892 0.0
H895 H 0.94643 0.25227 0.79602 0.0
H896 H 0.97545 0.23954 0.80375 0.0
H897 H 0.04185 0.28772 0.75647 0.0
H898 H 0.02505 0.32754 0.76806 0.0
H899 H 0.95423 0.29474 0.77748 0.0
C900 C 0.99192 0.20592 0.755 0.0
C901 C 0.01411 0.19424 0.7501 0.0
C902 C 0.03538 0.20823 0.74706 0.0
C903 C 0.03474 0.23347 0.74941 0.0
C904 C 0.01269 0.2444 0.75491 0.0
C905 C 0.99164 0.23109 0.75755 0.0
C906 C 0.97065 0.24702 0.76503 0.0
C907 C 0.95062 0.2468 0.74571 0.0
C908 C 0.96076 0.23953 0.78998 0.0
C909 C 0.98318 0.27135 0.7662 0.0
C910 C 0.00742 0.26948 0.7603 0.0
C911 C 0.02284 0.28945 0.76092 0.0
C912 C 0.01317 0.31196 0.76759 0.0
C913 C 0.98834 0.31425 0.77356 0.0
C914 C 0.97325 0.29362 0.77283 0.0
H915 H 0.74022 0.0227 0.78146 0.0
H916 H 0.72052 0.95713 0.81987 0.0
H917 H 0.72007 0.93472 0.78102 0.0
H918 H 0.70242 0.01279 0.73064 0.0
H919 H 0.72353 0.0256 0.70931 0.0
H920 H 0.72344 0.03584 0.74022 0.0
H921 H 0.76908 0.02537 0.74396 0.0
H922 H 0.76932 0.01509 0.71303 0.0
H923 H 0.77923 0.9952 0.7369 0.0
H924 H 0.72068 0.92003 0.73737 0.0
H925 H 0.72161 0.91451 0.69294 0.0
H926 H 0.74057 0.99018 0.68408 0.0
C927 C 0.73604 0.00357 0.78181 0.0
C928 C 0.73054 0.99159 0.80368 0.0
C929 C 0.72487 0.96661 0.80329 0.0
C930 C 0.7246 0.95376 0.78134 0.0
C931 C 0.72999 0.96622 0.76006 0.0
C932 C 0.73557 0.99059 0.76019 0.0
C933 C 0.73985 0.00011 0.73492 0.0
C934 C 0.72119 0.01974 0.7284 0.0
C935 C 0.76592 0.00949 0.73204 0.0
C936 C 0.73579 0.97731 0.72043 0.0
C937 C 0.73019 0.9579 0.73518 0.0
C938 C 0.7252 0.93508 0.72568 0.0
C939 C 0.72583 0.9321 0.70045 0.0
C940 C 0.73131 0.95188 0.68509 0.0
C941 C 0.73647 0.97467 0.69533 0.0
H942 H 0.28627 0.50843 0.81658 0.0
H943 H 0.29298 0.43108 0.80481 0.0
H944 H 0.29029 0.43752 0.76075 0.0
H945 H 0.24304 0.51947 0.76999 0.0
H946 H 0.25573 0.54817 0.76108 0.0
H947 H 0.25915 0.5377 0.79174 0.0
H948 H 0.30578 0.54204 0.78819 0.0
H949 H 0.30248 0.5526 0.75752 0.0
H950 H 0.32149 0.52691 0.76392 0.0
H951 H 0.28602 0.45211 0.71801 0.0
H952 H 0.28053 0.47404 0.67946 0.0
H953 H 0.2762 0.54185 0.71885 0.0
C954 C 0.28728 0.49287 0.80472 0.0
C955 C 0.28974 0.46924 0.81415 0.0
C956 C 0.29097 0.44935 0.79803 0.0
C957 C 0.28952 0.45281 0.77295 0.0
C958 C 0.28686 0.47628 0.76424 0.0
C959 C 0.28582 0.496 0.77959 0.0
C960 C 0.28251 0.51929 0.7655 0.0
C961 C 0.25869 0.53189 0.7725 0.0
C962 C 0.30437 0.5362 0.76899 0.0
C963 C 0.28151 0.50952 0.7399 0.0
C964 C 0.28422 0.48469 0.73956 0.0
C965 C 0.2839 0.47157 0.71803 0.0
C966 C 0.28075 0.48418 0.69623 0.0
C967 C 0.27783 0.50962 0.69615 0.0
C968 C 0.27825 0.52238 0.71832 0.0
H969 H 0.71493 0.74619 0.96228 0.0
H970 H 0.67848 0.73651 0.03119 0.0
H971 H 0.71842 0.73245 0.05141 0.0
H972 H 0.76188 0.70326 0.97225 0.0
H973 H 0.78448 0.72091 0.95669 0.0
H974 H 0.75312 0.72344 0.94818 0.0
H975 H 0.75488 0.76979 0.95522 0.0
H976 H 0.78625 0.76741 0.96376 0.0
H977 H 0.76483 0.78127 0.9841 0.0
H978 H 0.76297 0.72904 0.0636 0.0
H979 H 0.80763 0.72652 0.06668 0.0
H980 H 0.81355 0.7384 0.98929 0.0
C981 C 0.71522 0.74331 0.98166 0.0
C982 C 0.69362 0.74172 0.99521 0.0
C983 C 0.69487 0.73782 0.0205 0.0
C984 C 0.71743 0.7355 0.03209 0.0
C985 C 0.73842 0.73711 0.01808 0.0
C986 C 0.7374 0.74092 0.9934 0.0
C987 C 0.76234 0.7417 0.98218 0.0
C988 C 0.76564 0.7211 0.96374 0.0
C989 C 0.76736 0.76652 0.97065 0.0
C990 C 0.77771 0.73775 0.0044 0.0
C991 C 0.76369 0.73514 0.02497 0.0
C992 C 0.77408 0.73114 0.04761 0.0
C993 C 0.79944 0.72979 0.04918 0.0
C994 C 0.81402 0.73238 0.02823 0.0
C995 C 0.80291 0.73642 0.00563 0.0
H996 H 0.71902 0.22932 0.5048 0.0
H997 H 0.6756 0.25582 0.44499 0.0
H998 H 0.71323 0.26786 0.42344 0.0
H999 H 0.76198 0.27691 0.50398 0.0
H1000 H 0.78705 0.25772 0.5122 0.0
H1001 H 0.75686 0.25015 0.5219 0.0
H1002 H 0.7607 0.20791 0.50186 0.0
H1003 H 0.79098 0.21525 0.49225 0.0
H1004 H 0.76875 0.2058 0.47031 0.0
H1005 H 0.75646 0.27686 0.40885 0.0
H1006 H 0.80058 0.28265 0.4029 0.0
H1007 H 0.8141 0.25182 0.47378 0.0
C1008 C 0.7173 0.23736 0.48701 0.0
C1009 C 0.69439 0.24138 0.4764 0.0
C1010 C 0.69301 0.2524 0.45333 0.0
C1011 C 0.71426 0.25932 0.44103 0.0
C1012 C 0.73658 0.25528 0.45224 0.0
C1013 C 0.73811 0.2446 0.47478 0.0
C1014 C 0.76397 0.24292 0.48354 0.0
C1015 C 0.76767 0.25782 0.50677 0.0
C1016 C 0.77154 0.2164 0.48719 0.0
C1017 C 0.77697 0.25418 0.46233 0.0
C1018 C 0.76098 0.26112 0.44436 0.0
C1019 C 0.76908 0.27153 0.42285 0.0
C1020 C 0.79413 0.27472 0.41963 0.0
C1021 C 0.81068 0.26774 0.43793 0.0
C1022 C 0.80187 0.25753 0.45957 0.0
H1023 H 0.184 0.2391 0.49898 0.0
H1024 H 0.19621 0.2428 0.42146 0.0
H1025 H 0.24021 0.24583 0.42848 0.0
H1026 H 0.23254 0.28111 0.51633 0.0
H1027 H 0.24021 0.26397 0.54299 0.0
H1028 H 0.20956 0.26388 0.53183 0.0
H1029 H 0.21051 0.21703 0.52973 0.0
H1030 H 0.2412 0.21698 0.54068 0.0
H1031 H 0.23396 0.20227 0.51249 0.0
H1032 H 0.28315 0.24474 0.44381 0.0
H1033 H 0.32164 0.2423 0.46676 0.0
H1034 H 0.281 0.24048 0.53396 0.0
C1035 C 0.19589 0.241 0.48351 0.0
C1036 C 0.18669 0.2408 0.4597 0.0
C1037 C 0.20286 0.24303 0.4399 0.0
C1038 C 0.22789 0.24472 0.44367 0.0
C1039 C 0.23643 0.24435 0.46735 0.0
C1040 C 0.22091 0.24281 0.48695 0.0
C1041 C 0.23476 0.24192 0.51053 0.0
C1042 C 0.22892 0.26404 0.52634 0.0
C1043 C 0.22981 0.21814 0.52414 0.0
C1044 C 0.26046 0.24288 0.5011 0.0
C1045 C 0.2611 0.24422 0.47616 0.0
C1046 C 0.2829 0.24404 0.46338 0.0
C1047 C 0.30462 0.24256 0.47651 0.0
C1048 C 0.30425 0.24146 0.50207 0.0
C1049 C 0.28186 0.2417 0.51441 0.0
H1050 H 0.4958 0.80696 0.76425 0.0
H1051 H 0.57408 0.80305 0.77 0.0
H1052 H 0.5717 0.75843 0.77139 0.0
H1053 H 0.48235 0.75721 0.80408 0.0
H1054 H 0.45712 0.74671 0.78623 0.0
H1055 H 0.46509 0.7783 0.78618 0.0
H1056 H 0.46888 0.77736 0.73941 0.0
H1057 H 0.46094 0.74578 0.73932 0.0
H1058 H 0.48875 0.75563 0.72537 0.0
H1059 H 0.56052 0.71397 0.77242 0.0
H1060 H 0.5414 0.67341 0.77187 0.0
H1061 H 0.47079 0.70701 0.7643 0.0
C1062 C 0.51244 0.79673 0.76586 0.0
C1063 C 0.53512 0.80842 0.76699 0.0
C1064 C 0.5565 0.79441 0.76898 0.0
C1065 C 0.55534 0.76908 0.76985 0.0
C1066 C 0.53267 0.75808 0.76858 0.0
C1067 C 0.51162 0.77147 0.76655 0.0
C1068 C 0.48956 0.75531 0.76507 0.0
C1069 C 0.47254 0.75964 0.78668 0.0
C1070 C 0.47626 0.75873 0.74085 0.0
C1071 C 0.50148 0.73074 0.76653 0.0
C1072 C 0.52632 0.73264 0.7687 0.0
C1073 C 0.54108 0.71226 0.77065 0.0
C1074 C 0.53009 0.68933 0.77033 0.0
C1075 C 0.50467 0.68708 0.7679 0.0
C1076 C 0.4903 0.70811 0.76598 0.0
H1077 H 0.46576 0.27582 0.72467 0.0
H1078 H 0.53656 0.30996 0.72292 0.0
H1079 H 0.55519 0.27063 0.71266 0.0
H1080 H 0.48384 0.22072 0.75177 0.0
H1081 H 0.4637 0.2021 0.73408 0.0
H1082 H 0.45593 0.2331 0.74024 0.0
H1083 H 0.45164 0.24124 0.69423 0.0
H1084 H 0.45949 0.21024 0.6879 0.0
H1085 H 0.4766 0.23448 0.67434 0.0
H1086 H 0.56624 0.22755 0.70468 0.0
H1087 H 0.56933 0.18336 0.70001 0.0
H1088 H 0.49118 0.1771 0.70606 0.0
C1089 C 0.48519 0.27503 0.72213 0.0
C1090 C 0.49978 0.2959 0.72472 0.0
C1091 C 0.52508 0.29418 0.72106 0.0
C1092 C 0.53579 0.27195 0.71516 0.0
C1093 C 0.52089 0.25173 0.71274 0.0
C1094 C 0.49614 0.25306 0.71604 0.0
C1095 C 0.48429 0.22853 0.71285 0.0
C1096 C 0.47118 0.22065 0.73612 0.0
C1097 C 0.46699 0.22863 0.69103 0.0
C1098 C 0.50637 0.21301 0.70797 0.0
C1099 C 0.52725 0.22685 0.70776 0.0
C1100 C 0.55002 0.21656 0.70461 0.0
C1101 C 0.55157 0.19142 0.70201 0.0
C1102 C 0.53049 0.1768 0.70261 0.0
C1103 C 0.50757 0.18783 0.70525 0.0
H1104 H 0.75514 0.53524 0.79768 0.0
H1105 H 0.75699 0.47073 0.84237 0.0
H1106 H 0.74657 0.4458 0.80681 0.0
H1107 H 0.70566 0.51678 0.75783 0.0
H1108 H 0.7195 0.52967 0.73125 0.0
H1109 H 0.72515 0.54281 0.76056 0.0
H1110 H 0.77142 0.53788 0.75416 0.0
H1111 H 0.76589 0.525 0.72478 0.0
H1112 H 0.78347 0.5085 0.74673 0.0
H1113 H 0.73778 0.42773 0.76644 0.0
H1114 H 0.7348 0.41722 0.72319 0.0
H1115 H 0.73942 0.49333 0.70442 0.0
C1116 C 0.75309 0.5159 0.8 0.0
C1117 C 0.75671 0.50489 0.82275 0.0
C1118 C 0.7543 0.4795 0.82506 0.0
C1119 C 0.74821 0.46522 0.80502 0.0
C1120 C 0.74472 0.47661 0.78283 0.0
C1121 C 0.74729 0.50133 0.78012 0.0
C1122 C 0.74437 0.50881 0.75393 0.0
C1123 C 0.72235 0.5255 0.75071 0.0
C1124 C 0.76767 0.52074 0.74434 0.0
C1125 C 0.74007 0.48438 0.7423 0.0
C1126 C 0.74002 0.4661 0.75936 0.0
C1127 C 0.73758 0.44188 0.75292 0.0
C1128 C 0.73585 0.4361 0.7283 0.0
C1129 C 0.73674 0.45446 0.71047 0.0
C1130 C 0.7383 0.47893 0.71765 0.0
H1131 H 0.22143 0.98361 0.70014 0.0
H1132 H 0.24616 0.05801 0.70418 0.0
H1133 H 0.24953 0.05457 0.74853 0.0
H1134 H 0.1841 0.98663 0.75153 0.0
H1135 H 0.19011 0.95632 0.76187 0.0
H1136 H 0.19235 0.96341 0.73017 0.0
H1137 H 0.2365 0.94746 0.72944 0.0
H1138 H 0.23433 0.94016 0.76115 0.0
H1139 H 0.25832 0.95955 0.75049 0.0
H1140 H 0.24674 0.04465 0.7921 0.0
H1141 H 0.23832 0.02853 0.83285 0.0
H1142 H 0.21511 0.9605 0.80116 0.0
C1143 C 0.22813 -0.00107 0.71037 0.0
C1144 C 0.23379 0.021 0.69883 0.0
C1145 C 0.24184 0.04092 0.71275 0.0
C1146 C 0.24387 0.03913 0.73791 0.0
C1147 C 0.23766 0.01732 0.74884 0.0
C1148 C 0.22998 -0.00247 0.7356 0.0
C1149 C 0.22263 0.97687 0.75207 0.0
C1150 C 0.1957 0.97044 0.7487 0.0
C1151 C 0.23892 0.9547 0.74805 0.0
C1152 C 0.22718 0.98827 0.77659 0.0
C1153 C 0.23593 0.01157 0.77425 0.0
C1154 C 0.2402 0.02632 0.79423 0.0
C1155 C 0.23528 0.01704 0.81726 0.0
C1156 C 0.22627 0.99325 0.8201 0.0
C1157 C 0.2224 0.97862 0.7995 0.0
H1158 H 0.70114 0.25027 0.00591 0.0
H1159 H 0.71394 0.23938 0.08267 0.0
H1160 H 0.7557 0.22661 0.07403 0.0
H1161 H 0.73777 0.19971 0.98468 0.0
H1162 H 0.74939 0.21584 0.95882 0.0
H1163 H 0.71988 0.22313 0.9707 0.0
H1164 H 0.73279 0.26794 0.97556 0.0
H1165 H 0.76227 0.26081 0.96363 0.0
H1166 H 0.75956 0.27514 0.9928 0.0
H1167 H 0.79596 0.21556 0.05764 0.0
H1168 H 0.83346 0.20894 0.03438 0.0
H1169 H 0.79566 0.22798 0.96816 0.0
C1170 C 0.71275 0.24511 0.02083 0.0
C1171 C 0.70433 0.24588 0.04495 0.0
C1172 C 0.72005 0.23912 0.06405 0.0
C1173 C 0.74378 0.23169 0.05934 0.0
C1174 C 0.7516 0.23122 0.03543 0.0
C1175 C 0.7367 0.23786 0.01647 0.0
C1176 C 0.75012 0.2366 0.99256 0.0
C1177 C 0.7386 0.21769 0.9757 0.0
C1178 C 0.75125 0.26162 0.98043 0.0
C1179 C 0.7749 0.22851 0.00117 0.0
C1180 C 0.77521 0.22524 0.02594 0.0
C1181 C 0.79599 0.218 0.03821 0.0
C1182 C 0.81719 0.21426 0.02483 0.0
C1183 C 0.81748 0.21797 -0.00052 0.0
C1184 C 0.79597 0.225 0.98752 0.0
H1185 H 0.48394 0.29747 0.25097 0.0
H1186 H 0.5619 0.28971 0.24415 0.0
H1187 H 0.5569 0.24648 0.23501 0.0
H1188 H 0.47432 0.24142 0.28105 0.0
H1189 H 0.44601 0.23472 0.26624 0.0
H1190 H 0.45526 0.26567 0.27043 0.0
H1191 H 0.45124 0.27325 0.22432 0.0
H1192 H 0.44191 0.2423 0.22 0.0
H1193 H 0.46743 0.25412 0.20344 0.0
H1194 H 0.54418 0.20441 0.22786 0.0
H1195 H 0.52426 0.16474 0.22436 0.0
H1196 H 0.45439 0.19854 0.23706 0.0
C1197 C 0.49986 0.28667 0.24725 0.0
C1198 C 0.52329 0.29689 0.24819 0.0
C1199 C 0.54378 0.2822 0.24359 0.0
C1200 C 0.54115 0.25765 0.23828 0.0
C1201 C 0.5179 0.24802 0.23776 0.0
C1202 C 0.49758 0.26193 0.24217 0.0
C1203 C 0.47482 0.24657 0.24169 0.0
C1204 C 0.46185 0.24713 0.26632 0.0
C1205 C 0.45785 0.25454 0.22114 0.0
C1206 C 0.48567 0.22189 0.23663 0.0
C1207 C 0.51052 0.22329 0.23417 0.0
C1208 C 0.52472 0.20302 0.22967 0.0
C1209 C 0.51322 0.18058 0.22772 0.0
C1210 C 0.48781 0.17858 0.23049 0.0
C1211 C 0.47386 0.19954 0.23491 0.0
H1212 H 0.50096 0.79734 0.22669 0.0
H1213 H 0.42346 0.79301 0.21414 0.0
H1214 H 0.42726 0.74952 0.20531 0.0
H1215 H 0.51911 0.75137 0.1805 0.0
H1216 H 0.54273 0.73962 0.19969 0.0
H1217 H 0.53453 0.77113 0.20138 0.0
H1218 H 0.52681 0.76665 0.24747 0.0
H1219 H 0.5349 0.73521 0.2459 0.0
H1220 H 0.50589 0.74393 0.25803 0.0
H1221 H 0.4382 0.70602 0.20422 0.0
H1222 H 0.45611 0.66541 0.2096 0.0
H1223 H 0.52658 0.69809 0.2213 0.0
C1224 C 0.48491 0.78736 0.22146 0.0
C1225 C 0.46195 0.79849 0.22102 0.0
C1226 C 0.44126 0.78481 0.21452 0.0
C1227 C 0.44323 0.76012 0.20937 0.0
C1228 C 0.46604 0.74952 0.21056 0.0
C1229 C 0.48656 0.76271 0.21622 0.0
C1230 C 0.50854 0.74657 0.21846 0.0
C1231 C 0.52733 0.75253 0.19883 0.0
C1232 C 0.51967 0.74819 0.24397 0.0
C1233 C 0.49696 0.72218 0.21407 0.0
C1234 C 0.47247 0.72428 0.20934 0.0
C1235 C 0.45746 0.70411 0.20728 0.0
C1236 C 0.46773 0.68118 0.21045 0.0
C1237 C 0.49271 0.67876 0.21549 0.0
C1238 C 0.50754 0.69947 0.2168 0.0
H1239 H 0.2206 0.53243 0.28711 0.0
H1240 H 0.22776 0.46338 0.3238 0.0
H1241 H 0.23078 0.44277 0.28426 0.0
H1242 H 0.18373 0.51084 0.2384 0.0
H1243 H 0.19752 0.53015 0.21602 0.0
H1244 H 0.19653 0.53951 0.24722 0.0
H1245 H 0.24318 0.54497 0.24715 0.0
H1246 H 0.24432 0.53561 0.21595 0.0
H1247 H 0.26224 0.52002 0.2383 0.0
H1248 H 0.23194 0.42958 0.24082 0.0
H1249 H 0.23153 0.42471 0.19642 0.0
H1250 H 0.22406 0.50241 0.18801 0.0
C1251 C 0.22297 0.51299 0.28685 0.0
C1252 C 0.22404 0.4995 0.30853 0.0
C1253 C 0.22694 0.47408 0.30741 0.0
C1254 C 0.22868 0.46221 0.28504 0.0
C1255 C 0.22747 0.47604 0.264 0.0
C1256 C 0.2247 0.50086 0.26469 0.0
C1257 C 0.22347 0.51143 0.23943 0.0
C1258 C 0.19885 0.5237 0.23501 0.0
C1259 C 0.24456 0.52904 0.23495 0.0
C1260 C 0.2261 0.48867 0.22442 0.0
C1261 C 0.2283 0.46845 0.23895 0.0
C1262 C 0.23037 0.44529 0.22925 0.0
C1263 C 0.23011 0.44271 0.20402 0.0
C1264 C 0.22793 0.46319 0.18877 0.0
C1265 C 0.22601 0.48645 0.19918 0.0
H1266 H 0.74885 0.03813 0.2156 0.0
H1267 H 0.72854 0.97044 0.18132 0.0
H1268 H 0.72832 0.95041 0.22137 0.0
H1269 H 0.78948 0.01226 0.25838 0.0
H1270 H 0.7818 0.03319 0.28218 0.0
H1271 H 0.77915 0.04228 0.25101 0.0
H1272 H 0.7341 0.05352 0.25813 0.0
H1273 H 0.73658 0.04434 0.28931 0.0
H1274 H 0.71365 0.03113 0.2702 0.0
H1275 H 0.73096 0.93785 0.26478 0.0
H1276 H 0.73846 0.93273 0.30842 0.0
H1277 H 0.75781 0.00866 0.31417 0.0
C1278 C 0.74414 0.01913 0.21652 0.0
C1279 C 0.73852 0.00581 0.19546 0.0
C1280 C 0.73286 0.98093 0.19731 0.0
C1281 C 0.7326 0.96946 0.21994 0.0
C1282 C 0.73818 0.98317 0.24037 0.0
C1283 C 0.74401 0.00741 0.23885 0.0
C1284 C 0.75043 0.01779 0.26337 0.0
C1285 C 0.77678 0.02691 0.26375 0.0
C1286 C 0.73262 0.03788 0.27067 0.0
C1287 C 0.74729 0.99557 0.27899 0.0
C1288 C 0.74008 0.97584 0.26537 0.0
C1289 C 0.73653 0.95316 0.27565 0.0
C1290 C 0.74083 0.95047 0.30045 0.0
C1291 C 0.74866 0.97033 0.31467 0.0
C1292 C 0.75164 0.99322 0.3038 0.0
H1293 H 0.1848 0.76323 -0.00219 0.0
H1294 H 0.19428 0.76338 0.07578 0.0
H1295 H 0.23851 0.75956 0.07044 0.0
H1296 H 0.23145 0.7193 0.98476 0.0
H1297 H 0.24101 0.7342 0.95736 0.0
H1298 H 0.21006 0.73673 0.96736 0.0
H1299 H 0.21354 0.78354 0.96678 0.0
H1300 H 0.24443 0.78112 0.95664 0.0
H1301 H 0.23745 0.79802 0.98364 0.0
H1302 H 0.282 0.7577 0.05642 0.0
H1303 H 0.32121 0.75723 0.03459 0.0
H1304 H 0.28268 0.75641 0.96616 0.0
C1305 C 0.19617 0.76241 0.01376 0.0
C1306 C 0.18615 0.76359 0.03719 0.0
C1307 C 0.2016 0.76242 0.05763 0.0
C1308 C 0.22674 0.76025 0.0548 0.0
C1309 C 0.23607 0.75907 0.03142 0.0
C1310 C 0.22125 0.76002 0.01126 0.0
C1311 C 0.23581 0.7586 0.98814 0.0
C1312 C 0.22918 0.73585 0.97355 0.0
C1313 C 0.23261 0.78169 0.97291 0.0
C1314 C 0.26111 0.75686 -0.00156 0.0
C1315 C 0.26096 0.75724 0.02342 0.0
C1316 C 0.28235 0.7571 0.03685 0.0
C1317 C 0.30449 0.75681 0.02435 0.0
C1318 C 0.30493 0.75644 -0.00125 0.0
C1319 C 0.28292 0.75618 0.98575 0.0
H1320 H 0.08226 0.23885 0.37743 0.0
H1321 H 0.07692 0.28902 0.43754 0.0
H1322 H 0.05488 0.31774 0.41181 0.0
H1323 H 0.09627 0.2799 0.33482 0.0
H1324 H 0.079 0.26728 0.31016 0.0
H1325 H 0.08915 0.24806 0.33431 0.0
H1326 H 0.04501 0.23425 0.34225 0.0
H1327 H 0.03474 0.25335 0.31788 0.0
H1328 H 0.02185 0.25657 0.34768 0.0
H1329 H 0.04282 0.34441 0.37854 0.0
H1330 H 0.03808 0.36618 0.33977 0.0
H1331 H 0.04856 0.29913 0.30064 0.0
C1332 C 0.07559 0.25548 0.38532 0.0
C1333 C 0.08122 0.26171 0.40946 0.0
C1334 C 0.07276 0.28387 0.41909 0.0
C1335 C 0.06011 0.30029 0.40464 0.0
C1336 C 0.05582 0.29422 0.38059 0.0
C1337 C 0.06288 0.27219 0.37102 0.0
C1338 C 0.0585 0.27145 0.34391 0.0
C1339 C 0.08214 0.26639 0.33 0.0
C1340 C 0.03885 0.2528 0.33756 0.0
C1341 C 0.04955 0.29703 0.33963 0.0
C1342 C 0.04779 0.30971 0.36113 0.0
C1343 C 0.04323 0.33451 0.36165 0.0
C1344 C 0.04069 0.34676 0.33962 0.0
C1345 C 0.04242 0.33412 0.31749 0.0
C1346 C 0.04632 0.3089 0.31748 0.0
H1347 H 0.88884 0.19938 0.3971 0.0
H1348 H 0.93236 0.2595 0.37147 0.0
H1349 H 0.95272 0.23226 0.34232 0.0
H1350 H 0.93487 0.15162 0.38998 0.0
H1351 H 0.91286 0.1298 0.37977 0.0
H1352 H 0.90404 0.1533 0.40058 0.0
H1353 H 0.87013 0.16675 0.37107 0.0
H1354 H 0.87884 0.14336 0.3502 0.0
H1355 H 0.87784 0.1744 0.34031 0.0
H1356 H 0.96601 0.1992 0.31414 0.0
H1357 H 0.96995 0.16363 0.28763 0.0
H1358 H 0.91655 0.12545 0.331 0.0
C1359 C 0.903 0.20672 0.38569 0.0
C1360 C 0.9092 0.23146 0.38659 0.0
C1361 C 0.92743 0.24054 0.37105 0.0
C1362 C 0.93914 0.2252 0.35455 0.0
C1363 C 0.9323 0.20092 0.35385 0.0
C1364 C 0.91461 0.19175 0.36898 0.0
C1365 C 0.90906 0.16556 0.36323 0.0
C1366 C 0.91561 0.1491 0.38467 0.0
C1367 C 0.88239 0.16235 0.35575 0.0
C1368 C 0.92598 0.16155 0.3421 0.0
C1369 C 0.93952 0.18202 0.33723 0.0
C1370 C 0.95569 0.18299 0.31793 0.0
C1371 C 0.95779 0.16263 0.30298 0.0
C1372 C 0.94358 0.14165 0.30724 0.0
C1373 C 0.92776 0.1411 0.32731 0.0
H1374 H 0.07465 0.74022 0.10741 0.0
H1375 H 0.09263 0.69443 0.04618 0.0
H1376 H 0.0756 0.65925 0.06742 0.0
H1377 H 0.09127 0.70073 0.15178 0.0
H1378 H 0.06712 0.70737 0.17271 0.0
H1379 H 0.07667 0.7299 0.1513 0.0
H1380 H 0.03278 0.73337 0.13511 0.0
H1381 H 0.02311 0.71089 0.15668 0.0
H1382 H 0.0172 0.70659 0.12488 0.0
H1383 H 0.06456 0.62828 0.09743 0.0
H1384 H 0.05672 0.60356 0.13385 0.0
H1385 H 0.04305 0.66869 0.17529 0.0
C1386 C 0.07429 0.72292 0.09823 0.0
C1387 C 0.08501 0.72003 0.07518 0.0
C1388 C 0.08456 0.69706 0.06385 0.0
C1389 C 0.07482 0.67696 0.07572 0.0
C1390 C 0.06523 0.68016 0.09878 0.0
C1391 C 0.06444 0.70261 0.10982 0.0
C1392 C 0.055 0.70058 0.13553 0.0
C1393 C 0.07363 0.7102 0.1539 0.0
C1394 C 0.03057 0.71363 0.1382 0.0
C1395 C 0.05195 0.67339 0.13755 0.0
C1396 C 0.05775 0.66202 0.11603 0.0
C1397 C 0.05923 0.63692 0.11417 0.0
C1398 C 0.05489 0.62304 0.13491 0.0
C1399 C 0.04887 0.6343 0.15704 0.0
C1400 C 0.04689 0.65973 0.15828 0.0
H1401 H 0.93135 0.86437 0.13474 0.0
H1402 H 0.98651 0.8212 0.17038 0.0
H1403 H 0.98325 0.79062 0.13822 0.0
H1404 H 0.89398 0.81851 0.1209 0.0
H1405 H 0.88427 0.82932 0.0917 0.0
H1406 H 0.89458 0.85042 0.11416 0.0
H1407 H 0.92685 0.86698 0.08437 0.0
H1408 H 0.91642 0.84603 0.06163 0.0
H1409 H 0.94789 0.8464 0.07029 0.0
H1410 H 0.96847 0.76134 0.10752 0.0
H1411 H 0.94423 0.73642 0.0794 0.0
H1412 H 0.89952 0.79866 0.06271 0.0
C1413 C 0.94339 0.84893 0.13533 0.0
C1414 C 0.9592 0.84528 0.1551 0.0
C1415 C 0.97428 0.82452 0.15542 0.0
C1416 C 0.97265 0.80704 0.13715 0.0
C1417 C 0.95611 0.81069 0.11848 0.0
C1418 C 0.942 0.83131 0.11721 0.0
C1419 C 0.92368 0.82956 0.09689 0.0
C1420 C 0.8976 0.83209 0.1065 0.0
C1421 C 0.92904 0.84836 0.07712 0.0
C1422 C 0.92869 0.80417 0.08795 0.0
C1423 C 0.94777 0.79375 0.10034 0.0
C1424 C 0.95394 0.7695 0.09723 0.0
C1425 C 0.93999 0.75544 0.08136 0.0
C1426 C 0.92017 0.76572 0.06884 0.0
C1427 C 0.91491 0.79052 0.0717 0.0
H1428 H 0.33477 0.03763 0.3318 0.0
H1429 H 0.37911 0.04637 0.39585 0.0
H1430 H 0.41421 0.057 0.3702 0.0
H1431 H 0.38441 0.01709 0.28858 0.0
H1432 H 0.37176 0.03484 0.26433 0.0
H1433 H 0.35213 0.02174 0.28687 0.0
H1434 H 0.33434 0.06401 0.29578 0.0
H1435 H 0.35406 0.07741 0.27367 0.0
H1436 H 0.35434 0.08834 0.3044 0.0
H1437 H 0.44206 0.07279 0.33892 0.0
H1438 H 0.46088 0.09357 0.30428 0.0
H1439 H 0.39772 0.07753 0.26034 0.0
C1440 C 0.35224 0.0406 0.34024 0.0
C1441 C 0.35461 0.04057 0.36567 0.0
C1442 C 0.37725 0.04583 0.37635 0.0
C1443 C 0.39722 0.05185 0.36191 0.0
C1444 C 0.39408 0.05281 0.33689 0.0
C1445 C 0.37218 0.04725 0.32607 0.0
C1446 C 0.37249 0.05339 0.29931 0.0
C1447 C 0.37006 0.03039 0.28386 0.0
C1448 C 0.35264 0.07189 0.29294 0.0
C1449 C 0.39757 0.0643 0.29705 0.0
C1450 C 0.40991 0.06318 0.3188 0.0
C1451 C 0.43276 0.07343 0.3217 0.0
C1452 C 0.44325 0.08531 0.30193 0.0
C1453 C 0.43074 0.0872 0.27965 0.0
C1454 C 0.40774 0.07626 0.27713 0.0
H1455 H 0.58322 0.3511 0.32774 0.0
H1456 H 0.54008 0.41567 0.31887 0.0
H1457 H 0.56642 0.43743 0.34775 0.0
H1458 H 0.59981 0.36255 0.39482 0.0
H1459 H 0.62953 0.35004 0.38981 0.0
H1460 H 0.60387 0.33831 0.37338 0.0
H1461 H 0.6264 0.3465 0.33309 0.0
H1462 H 0.65181 0.35871 0.34921 0.0
H1463 H 0.63687 0.3767 0.32648 0.0
H1464 H 0.60303 0.45429 0.36838 0.0
H1465 H 0.6441 0.4636 0.38377 0.0
H1466 H 0.66187 0.38725 0.38182 0.0
C1467 C 0.57861 0.36939 0.33305 0.0
C1468 C 0.55962 0.38178 0.32152 0.0
C1469 C 0.55447 0.40596 0.32785 0.0
C1470 C 0.56932 0.41839 0.34425 0.0
C1471 C 0.58885 0.40608 0.35444 0.0
C1472 C 0.59307 0.38185 0.34966 0.0
C1473 C 0.61673 0.37352 0.36062 0.0
C1474 C 0.61221 0.35501 0.38087 0.0
C1475 C 0.63394 0.36328 0.34119 0.0
C1476 C 0.62598 0.39717 0.37076 0.0
C1477 C 0.60959 0.41573 0.36728 0.0
C1478 C 0.61565 0.43978 0.37206 0.0
C1479 C 0.63904 0.44494 0.38058 0.0
C1480 C 0.65595 0.42609 0.38435 0.0
C1481 C 0.64906 0.40194 0.37981 0.0
H1482 H 0.31445 0.95045 0.17141 0.0
H1483 H 0.34968 0.95009 0.10135 0.0
H1484 H 0.38886 0.94121 0.12109 0.0
H1485 H 0.36769 0.9728 0.20879 0.0
H1486 H 0.36031 0.9524 0.23314 0.0
H1487 H 0.33654 0.96488 0.21456 0.0
H1488 H 0.32143 0.92163 0.20481 0.0
H1489 H 0.34511 0.90902 0.22315 0.0
H1490 H 0.34219 0.89999 0.19194 0.0
H1491 H 0.42211 0.92695 0.14686 0.0
H1492 H 0.44673 0.9042 0.17595 0.0
H1493 H 0.38965 0.91052 0.2296 0.0
C1494 C 0.33066 0.94944 0.16042 0.0
C1495 C 0.32936 0.95142 0.13498 0.0
C1496 C 0.35055 0.94891 0.1209 0.0
C1497 C 0.37283 0.94406 0.13198 0.0
C1498 C 0.37346 0.94151 0.15709 0.0
C1499 C 0.35291 0.94396 0.17117 0.0
C1500 C 0.35761 0.93623 0.19709 0.0
C1501 C 0.35541 0.95787 0.21442 0.0
C1502 C 0.34058 0.91548 0.20467 0.0
C1503 C 0.38363 0.92779 0.19507 0.0
C1504 C 0.39259 0.93184 0.17203 0.0
C1505 C 0.41544 0.92397 0.16503 0.0
C1506 C 0.42922 0.91091 0.1817 0.0
C1507 C 0.42002 0.90551 0.20501 0.0
C1508 C 0.39722 0.91468 0.21202 0.0
H1509 H 0.56249 0.61218 0.16782 0.0
H1510 H 0.56131 0.55438 0.22056 0.0
H1511 H 0.59469 0.53384 0.1989 0.0
H1512 H 0.58376 0.57535 0.11341 0.0
H1513 H 0.60315 0.59966 0.10356 0.0
H1514 H 0.57512 0.6063 0.11893 0.0
H1515 H 0.59865 0.63162 0.15064 0.0
H1516 H 0.62664 0.62497 0.13552 0.0
H1517 H 0.62316 0.61778 0.16715 0.0
H1518 H 0.63168 0.5234 0.17632 0.0
H1519 H 0.67146 0.52484 0.15653 0.0
H1520 H 0.65067 0.59094 0.11948 0.0
C1521 C 0.56862 0.59463 0.174 0.0
C1522 C 0.55913 0.58431 0.19526 0.0
C1523 C 0.56819 0.56209 0.2039 0.0
C1524 C 0.58701 0.55032 0.19167 0.0
C1525 C 0.59665 0.56128 0.17106 0.0
C1526 C 0.58781 0.58299 0.16228 0.0
C1527 C 0.60401 0.59309 0.14259 0.0
C1528 C 0.59071 0.59362 0.11817 0.0
C1529 C 0.61369 0.61834 0.1494 0.0
C1530 C 0.62399 0.57435 0.14255 0.0
C1531 C 0.61897 0.5558 0.15857 0.0
C1532 C 0.63562 0.53756 0.16339 0.0
C1533 C 0.65826 0.53863 0.1521 0.0
C1534 C 0.66425 0.55805 0.13642 0.0
C1535 C 0.64654 0.57569 0.13106 0.0
H1536 H 0.29447 0.41706 0.11114 0.0
H1537 H 0.23549 0.40526 0.06074 0.0
H1538 H 0.26016 0.37491 0.03898 0.0
H1539 H 0.34544 0.40653 0.06825 0.0
H1540 H 0.363 0.39079 0.09077 0.0
H1541 H 0.34241 0.41443 0.09975 0.0
H1542 H 0.32101 0.38474 0.12909 0.0
H1543 H 0.34143 0.36105 0.12018 0.0
H1544 H 0.30919 0.3566 0.11755 0.0
H1545 H 0.28978 0.34351 0.02497 0.0
H1546 H 0.32062 0.31144 0.02148 0.0
H1547 H 0.35931 0.34203 0.08267 0.0
C1548 C 0.28705 0.40855 0.09512 0.0
C1549 C 0.26325 0.41362 0.08737 0.0
C1550 C 0.25377 0.40164 0.06683 0.0
C1551 C 0.26769 0.3845 0.05431 0.0
C1552 C 0.29095 0.37945 0.06273 0.0
C1553 C 0.30053 0.39105 0.08274 0.0
C1554 C 0.32477 0.38037 0.0898 0.0
C1555 C 0.34511 0.39915 0.08697 0.0
C1556 C 0.32404 0.37008 0.11568 0.0
C1557 C 0.32699 0.36047 0.07111 0.0
C1558 C 0.30759 0.36062 0.05531 0.0
C1559 C 0.30518 0.34337 0.03708 0.0
C1560 C 0.32284 0.32524 0.03522 0.0
C1561 C 0.34241 0.32423 0.05179 0.0
C1562 C 0.34461 0.34235 0.0697 0.0
H1563 H 0.36407 0.6227 0.42057 0.0
H1564 H 0.32059 0.67429 0.46066 0.0
H1565 H 0.28422 0.64941 0.45328 0.0
H1566 H 0.32527 0.61222 0.37521 0.0
H1567 H 0.33034 0.58017 0.37202 0.0
H1568 H 0.35373 0.5991 0.38437 0.0
H1569 H 0.35544 0.57269 0.42294 0.0
H1570 H 0.33211 0.55331 0.41084 0.0
H1571 H 0.32819 0.56729 0.44005 0.0
H1572 H 0.25196 0.62419 0.43387 0.0
H1573 H 0.22669 0.59682 0.40922 0.0
H1574 H 0.29128 0.55988 0.38413 0.0
C1575 C 0.34705 0.62823 0.42857 0.0
C1576 C 0.34511 0.65031 0.44123 0.0
C1577 C 0.32252 0.65723 0.45121 0.0
C1578 C 0.30174 0.64327 0.44701 0.0
C1579 C 0.30404 0.62218 0.43338 0.0
C1580 C 0.32625 0.61429 0.42493 0.0
C1581 C 0.32361 0.59195 0.40932 0.0
C1582 C 0.33384 0.59614 0.38373 0.0
C1583 C 0.33554 0.57 0.42152 0.0
C1584 C 0.29635 0.58945 0.40896 0.0
C1585 C 0.28538 0.60695 0.42307 0.0
C1586 C 0.26032 0.60992 0.4234 0.0
C1587 C 0.24613 0.59441 0.40917 0.0
C1588 C 0.25703 0.57603 0.39504 0.0
C1589 C 0.28244 0.5735 0.39512 0.0
H1590 H 0.74758 0.89053 0.41639 0.0
H1591 H 0.70295 0.95449 0.4248 0.0
H1592 H 0.67024 0.92962 0.44193 0.0
H1593 H 0.70503 0.85417 0.39494 0.0
H1594 H 0.71358 0.82668 0.41026 0.0
H1595 H 0.73584 0.84968 0.40479 0.0
H1596 H 0.74578 0.8515 0.45057 0.0
H1597 H 0.72361 0.82819 0.45616 0.0
H1598 H 0.72178 0.85658 0.4721 0.0
H1599 H 0.63948 0.89794 0.44738 0.0
H1600 H 0.61394 0.8613 0.44485 0.0
H1601 H 0.67824 0.81734 0.43568 0.0
C1602 C 0.73134 0.89937 0.4229 0.0
C1603 C 0.72773 0.92437 0.41925 0.0
C1604 C 0.70604 0.93532 0.4274 0.0
C1605 C 0.68738 0.92136 0.43728 0.0
C1606 C 0.69084 0.89651 0.43932 0.0
C1607 C 0.71249 0.8856 0.43293 0.0
C1608 C 0.71038 0.85828 0.4341 0.0
C1609 C 0.71656 0.84654 0.40957 0.0
C1610 C 0.72633 0.84803 0.45445 0.0
C1611 C 0.68374 0.85563 0.44016 0.0
C1612 C 0.6729 0.87791 0.44353 0.0
C1613 C 0.64784 0.88033 0.44572 0.0
C1614 C 0.63346 0.8595 0.44409 0.0
C1615 C 0.64422 0.83659 0.44054 0.0
C1616 C 0.66968 0.83461 0.43923 0.0
H1617 H 0.17619 0.67608 0.56231 0.0
H1618 H 0.10708 0.64848 0.58739 0.0
H1619 H 0.12746 0.61173 0.60283 0.0
H1620 H 0.20459 0.61722 0.54654 0.0
H1621 H 0.2337 0.62672 0.55786 0.0
H1622 H 0.21316 0.64867 0.54521 0.0
H1623 H 0.21564 0.67365 0.58478 0.0
H1624 H 0.23593 0.65173 0.59768 0.0
H1625 H 0.20828 0.65941 0.6132 0.0
H1626 H 0.15587 0.57949 0.61815 0.0
H1627 H 0.19016 0.55537 0.63393 0.0
H1628 H 0.24065 0.60602 0.6015 0.0
C1629 C 0.16525 0.66193 0.57034 0.0
C1630 C 0.14003 0.66484 0.57331 0.0
C1631 C 0.12641 0.6464 0.58475 0.0
C1632 C 0.13781 0.62549 0.5935 0.0
C1633 C 0.16285 0.62347 0.59089 0.0
C1634 C 0.1764 0.64124 0.57961 0.0
C1635 C 0.20326 0.63607 0.58146 0.0
C1636 C 0.21432 0.63192 0.55627 0.0
C1637 C 0.21654 0.65642 0.5951 0.0
C1638 C 0.20274 0.61292 0.59603 0.0
C1639 C 0.17927 0.60565 0.60085 0.0
C1640 C 0.17431 0.58495 0.61438 0.0
C1641 C 0.19386 0.5714 0.62329 0.0
C1642 C 0.21799 0.57894 0.61904 0.0
C1643 C 0.22239 0.59989 0.60514 0.0
H1644 H 0.9401 0.67603 0.65767 0.0
H1645 H 0.92291 0.60389 0.63231 0.0
H1646 H 0.9147 0.62017 0.5914 0.0
H1647 H 0.89223 0.7033 0.62932 0.0
H1648 H 0.90741 0.73124 0.62205 0.0
H1649 H 0.91727 0.71365 0.64755 0.0
H1650 H 0.96073 0.71198 0.63007 0.0
H1651 H 0.95109 0.72979 0.6045 0.0
H1652 H 0.96548 0.70093 0.59974 0.0
H1653 H 0.90447 0.6446 0.55475 0.0
H1654 H 0.8896 0.67544 0.52606 0.0
H1655 H 0.90987 0.73206 0.57652 0.0
C1656 C 0.93552 0.66362 0.6432 0.0
C1657 C 0.93267 0.63869 0.64778 0.0
C1658 C 0.92553 0.623 0.62888 0.0
C1659 C 0.92093 0.63208 0.60564 0.0
C1660 C 0.92322 0.65691 0.6018 0.0
C1661 C 0.93022 0.6725 0.6201 0.0
C1662 C 0.92786 0.69867 0.61232 0.0
C1663 C 0.91013 0.71251 0.62879 0.0
C1664 C 0.95278 0.71107 0.61161 0.0
C1665 C 0.91768 0.69538 0.5871 0.0
C1666 C 0.9158 0.67117 0.58113 0.0
C1667 C 0.90606 0.66361 0.55913 0.0
C1668 C 0.89765 0.68124 0.54297 0.0
C1669 C 0.89853 0.70607 0.54917 0.0
C1670 C 0.90899 0.71319 0.57135 0.0
H1671 H 0.05112 0.84064 0.65886 0.0
H1672 H 0.08025 0.90624 0.6271 0.0
H1673 H 0.0931 0.88301 0.59109 0.0
H1674 H 0.09858 0.80497 0.6442 0.0
H1675 H 0.08156 0.77784 0.63795 0.0
H1676 H 0.06957 0.80007 0.6584 0.0
H1677 H 0.03053 0.80326 0.63264 0.0
H1678 H 0.04229 0.78077 0.61214 0.0
H1679 H 0.03274 0.80978 0.60074 0.0
H1680 H 0.10723 0.85223 0.56135 0.0
H1681 H 0.1241 0.81605 0.54139 0.0
H1682 H 0.08793 0.77025 0.59392 0.0
C1683 C 0.0594 0.85027 0.64392 0.0
C1684 C 0.06441 0.87527 0.64552 0.0
C1685 C 0.0761 0.88711 0.62607 0.0
C1686 C 0.08331 0.8741 0.60552 0.0
C1687 C 0.07876 0.84929 0.60483 0.0
C1688 C 0.06707 0.83749 0.62354 0.0
C1689 C 0.06746 0.81033 0.62006 0.0
C1690 C 0.08005 0.79757 0.64141 0.0
C1691 C 0.04172 0.80046 0.61616 0.0
C1692 C 0.08228 0.80864 0.59711 0.0
C1693 C 0.08796 0.83132 0.58821 0.0
C1694 C 0.10264 0.83438 0.56795 0.0
C1695 C 0.11219 0.81373 0.55679 0.0
C1696 C 0.10739 0.79043 0.56624 0.0
C1697 C 0.09184 0.78787 0.58632 0.0
H1698 H 0.95491 0.32056 0.84403 0.0
H1699 H 0.95013 0.38282 0.89126 0.0
H1700 H 0.94151 0.35601 0.92591 0.0
H1701 H 0.90573 0.29397 0.86383 0.0
H1702 H 0.91536 0.26284 0.86248 0.0
H1703 H 0.92938 0.28489 0.84321 0.0
H1704 H 0.97169 0.27404 0.86009 0.0
H1705 H 0.95793 0.25134 0.87908 0.0
H1706 H 0.97681 0.27442 0.89232 0.0
H1707 H 0.92479 0.32456 0.9527 0.0
H1708 H 0.90184 0.29054 0.97016 0.0
H1709 H 0.91449 0.24857 0.90502 0.0
C1710 C 0.95351 0.32828 0.862 0.0
C1711 C 0.95381 0.35358 0.86529 0.0
C1712 C 0.95051 0.3634 0.88865 0.0
C1713 C 0.9456 0.3483 0.90839 0.0
C1714 C 0.94387 0.32346 0.90435 0.0
C1715 C 0.94801 0.31342 0.88177 0.0
C1716 C 0.94077 0.28694 0.88125 0.0
C1717 C 0.92168 0.2819 0.86154 0.0
C1718 C 0.96314 0.27073 0.878 0.0
C1719 C 0.93022 0.28424 0.9064 0.0
C1720 C 0.93295 0.30526 0.91967 0.0
C1721 C 0.92297 0.30784 0.94268 0.0
C1722 C 0.9098 0.28848 0.95237 0.0
C1723 C 0.90631 0.26699 0.93888 0.0
C1724 C 0.91696 0.26477 0.91576 0.0
H1725 H 0.04779 0.13242 0.85774 0.0
H1726 H 0.01061 0.18096 0.80849 0.0
H1727 H 0.02287 0.21573 0.83359 0.0
H1728 H 0.03611 0.169 0.91482 0.0
H1729 H 0.06563 0.16131 0.9264 0.0
H1730 H 0.04945 0.14014 0.90755 0.0
H1731 H 0.08631 0.13828 0.87856 0.0
H1732 H 0.10239 0.15968 0.89696 0.0
H1733 H 0.09763 0.16586 0.86529 0.0
H1734 H 0.04618 0.24554 0.85931 0.0
H1735 H 0.07562 0.26716 0.88543 0.0
H1736 H 0.09644 0.19887 0.91793 0.0
C1737 C 0.04145 0.15026 0.85272 0.0
C1738 C 0.02824 0.15392 0.83119 0.0
C1739 C 0.02054 0.17762 0.82506 0.0
C1740 C 0.02747 0.19754 0.83919 0.0
C1741 C 0.04164 0.19341 0.85964 0.0
C1742 C 0.04805 0.17026 0.8667 0.0
C1743 C 0.0653 0.17069 0.88792 0.0
C1744 C 0.0534 0.15963 0.91051 0.0
C1745 C 0.08931 0.15788 0.88179 0.0
C1746 C 0.06876 0.19764 0.89078 0.0
C1747 C 0.05475 0.21055 0.8746 0.0
C1748 C 0.05679 0.23564 0.87247 0.0
C1749 C 0.07364 0.24775 0.88721 0.0
C1750 C 0.08823 0.23468 0.90369 0.0
C1751 C 0.08536 0.20941 0.90568 0.0
H1752 H 0.5985 0.92054 0.73449 0.0
H1753 H 0.5374 0.90054 0.68939 0.0
H1754 H 0.55793 0.91802 0.65385 0.0
H1755 H 0.61569 0.97768 0.69955 0.0
H1756 H 0.64748 0.97175 0.70402 0.0
H1757 H 0.62582 0.96287 0.72677 0.0
H1758 H 0.64179 0.91884 0.7246 0.0
H1759 H 0.66332 0.92762 0.70191 0.0
H1760 H 0.64226 0.90343 0.69584 0.0
H1761 H 0.58786 0.92923 0.62249 0.0
H1762 H 0.6247 0.93455 0.59776 0.0
H1763 H 0.66631 0.94858 0.66285 0.0
C1764 C 0.58913 0.92063 0.71728 0.0
C1765 C 0.56642 0.9092 0.71461 0.0
C1766 C 0.55486 0.90918 0.69177 0.0
C1767 C 0.56631 0.91921 0.67151 0.0
C1768 C 0.58919 0.92943 0.67447 0.0
C1769 C 0.60038 0.93054 0.69685 0.0
C1770 C 0.62615 0.93972 0.69462 0.0
C1771 C 0.62894 0.96448 0.70697 0.0
C1772 C 0.64444 0.9213 0.70483 0.0
C1773 C 0.6282 0.94197 0.66738 0.0
C1774 C 0.60652 0.93647 0.65613 0.0
C1775 C 0.60475 0.93429 0.63105 0.0
C1776 C 0.62578 0.93722 0.61715 0.0
C1777 C 0.64825 0.94228 0.62837 0.0
C1778 C 0.64923 0.94543 0.65373 0.0
H1779 H 0.41277 0.58588 0.73981 0.0
H1780 H 0.46267 0.61695 0.68781 0.0
H1781 H 0.4363 0.60306 0.65437 0.0
H1782 H 0.39489 0.53232 0.70141 0.0
H1783 H 0.36416 0.53349 0.71237 0.0
H1784 H 0.38879 0.54266 0.73174 0.0
H1785 H 0.36805 0.58419 0.73832 0.0
H1786 H 0.34352 0.57514 0.71898 0.0
H1787 H 0.36023 0.60239 0.71241 0.0
H1788 H 0.40095 0.59318 0.62783 0.0
H1789 H 0.36078 0.58485 0.60979 0.0
H1790 H 0.33554 0.55692 0.67856 0.0
C1791 C 0.41842 0.58923 0.72136 0.0
C1792 C 0.43963 0.60253 0.71628 0.0
C1793 C 0.4465 0.60666 0.69198 0.0
C1794 C 0.43167 0.59882 0.67292 0.0
C1795 C 0.41045 0.58632 0.67855 0.0
C1796 C 0.4041 0.58109 0.70218 0.0
C1797 C 0.37959 0.56887 0.70352 0.0
C1798 C 0.38202 0.54278 0.71281 0.0
C1799 C 0.36181 0.58354 0.71922 0.0
C1800 C 0.37249 0.56934 0.67709 0.0
C1801 C 0.3906 0.57932 0.66293 0.0
C1802 C 0.38696 0.5846 0.63853 0.0
C1803 C 0.36413 0.57991 0.62846 0.0
C1804 C 0.34544 0.56976 0.64271 0.0
C1805 C 0.34989 0.56386 0.66712 0.0
H1806 H 0.67024 0.04299 0.80736 0.0
H1807 H 0.63917 0.07517 0.87178 0.0
H1808 H 0.60068 0.08184 0.84999 0.0
H1809 H 0.64757 0.08535 0.7682 0.0
H1810 H 0.64182 0.06515 0.74325 0.0
H1811 H 0.66492 0.05791 0.76497 0.0
H1812 H 0.64438 0.01668 0.77339 0.0
H1813 H 0.62117 0.02372 0.75156 0.0
H1814 H 0.61293 0.01577 0.7821 0.0
H1815 H 0.56778 0.08936 0.82062 0.0
H1816 H 0.54367 0.10048 0.78481 0.0
H1817 H 0.59667 0.06579 0.73835 0.0
C1818 C 0.65499 0.05068 0.81701 0.0
C1819 C 0.65735 0.05824 0.84129 0.0
C1820 C 0.6375 0.06911 0.85321 0.0
C1821 C 0.61557 0.0728 0.84104 0.0
C1822 C 0.61393 0.06573 0.81689 0.0
C1823 C 0.63313 0.05499 0.80491 0.0
C1824 C 0.62782 0.05234 0.77811 0.0
C1825 C 0.64664 0.06602 0.76274 0.0
C1826 C 0.62649 0.02553 0.77087 0.0
C1827 C 0.60311 0.0642 0.77678 0.0
C1828 C 0.59518 0.07113 0.79947 0.0
C1829 C 0.57362 0.08376 0.80278 0.0
C1830 C 0.56007 0.09004 0.78232 0.0
C1831 C 0.56833 0.08403 0.75883 0.0
C1832 C 0.58983 0.07043 0.75611 0.0
H1833 H 0.34955 0.44048 0.83778 0.0
H1834 H 0.38972 0.43006 0.90428 0.0
H1835 H 0.42409 0.41333 0.88093 0.0
H1836 H 0.36298 0.38584 0.81493 0.0
H1837 H 0.36503 0.39454 0.78357 0.0
H1838 H 0.34654 0.4118 0.80399 0.0
H1839 H 0.36983 0.45076 0.79303 0.0
H1840 H 0.38846 0.4339 0.77219 0.0
H1841 H 0.40232 0.4516 0.79581 0.0
H1842 H 0.45123 0.39224 0.85118 0.0
H1843 H 0.46894 0.36861 0.81751 0.0
H1844 H 0.40869 0.38941 0.77162 0.0
C1845 C 0.3661 0.43584 0.84725 0.0
C1846 C 0.36738 0.43708 0.87268 0.0
C1847 C 0.38872 0.42965 0.88471 0.0
C1848 C 0.40827 0.42013 0.8716 0.0
C1849 C 0.40596 0.41792 0.84657 0.0
C1850 C 0.38541 0.42569 0.8345 0.0
C1851 C 0.38564 0.41781 0.80828 0.0
C1852 C 0.36376 0.40153 0.80237 0.0
C1853 C 0.38664 0.43983 0.79133 0.0
C1854 C 0.40908 0.40372 0.80769 0.0
C1855 C 0.42084 0.40444 0.82974 0.0
C1856 C 0.44233 0.39181 0.83374 0.0
C1857 C 0.45214 0.37828 0.81461 0.0
C1858 C 0.44017 0.37714 0.792 0.0
C1859 C 0.41834 0.38998 0.78865 0.0
H1860 H 0.64229 0.66803 0.89709 0.0
H1861 H 0.65468 0.67235 0.97457 0.0
H1862 H 0.67917 0.63508 0.97259 0.0
H1863 H 0.64117 0.60067 0.89236 0.0
H1864 H 0.65693 0.60132 0.86381 0.0
H1865 H 0.63705 0.62584 0.87204 0.0
H1866 H 0.67215 0.6563 0.86555 0.0
H1867 H 0.69215 0.63196 0.85752 0.0
H1868 H 0.70015 0.6522 0.88182 0.0
H1869 H 0.70654 0.60046 0.96136 0.0
H1870 H 0.73448 0.57143 0.9415 0.0
H1871 H 0.70477 0.59049 0.87159 0.0
C1872 C 0.6495 0.6608 0.9138 0.0
C1873 C 0.64637 0.67308 0.93601 0.0
C1874 C 0.65666 0.66322 0.95734 0.0
C1875 C 0.67057 0.642 0.95642 0.0
C1876 C 0.67393 0.6308 0.93407 0.0
C1877 C 0.66354 0.63979 0.91317 0.0
C1878 C 0.67183 0.62589 0.89108 0.0
C1879 C 0.65047 0.61264 0.87912 0.0
C1880 C 0.68484 0.64259 0.87294 0.0
C1881 C 0.68922 0.60825 0.90268 0.0
C1882 C 0.68989 0.61106 0.92755 0.0
C1883 C 0.70583 0.5978 0.94197 0.0
C1884 C 0.72161 0.58144 0.93062 0.0
C1885 C 0.72132 0.57876 0.90522 0.0
C1886 C 0.70484 0.59207 0.89113 0.0
H1887 H 0.64393 0.30163 0.59087 0.0
H1888 H 0.68827 0.29015 0.52705 0.0
H1889 H 0.71159 0.32709 0.53663 0.0
H1890 H 0.64256 0.36839 0.58649 0.0
H1891 H 0.64364 0.37214 0.61888 0.0
H1892 H 0.62936 0.3458 0.60598 0.0
H1893 H 0.65735 0.31816 0.63149 0.0
H1894 H 0.67173 0.34435 0.6444 0.0
H1895 H 0.68974 0.32174 0.62929 0.0
H1896 H 0.7335 0.36158 0.5563 0.0
H1897 H 0.75004 0.39378 0.58265 0.0
H1898 H 0.68925 0.38527 0.63147 0.0
C1899 C 0.65835 0.30709 0.57875 0.0
C1900 C 0.66439 0.29306 0.55828 0.0
C1901 C 0.68329 0.30076 0.54276 0.0
C1902 C 0.69664 0.32167 0.54807 0.0
C1903 C 0.69047 0.3349 0.56863 0.0
C1904 C 0.67151 0.32816 0.5835 0.0
C1905 C 0.669 0.34516 0.60483 0.0
C1906 C 0.6447 0.35868 0.60398 0.0
C1907 C 0.67216 0.33154 0.62892 0.0
C1908 C 0.69002 0.36208 0.60008 0.0
C1909 C 0.70224 0.35577 0.57915 0.0
C1910 C 0.72374 0.36711 0.57236 0.0
C1911 C 0.73303 0.38528 0.58742 0.0
C1912 C 0.72056 0.39217 0.60866 0.0
C1913 C 0.69864 0.38072 0.61487 0.0
H1914 H 0.2894 0.06848 0.61768 0.0
H1915 H 0.22636 0.08435 0.57376 0.0
H1916 H 0.24949 0.11634 0.5524 0.0
H1917 H 0.30509 0.12821 0.62773 0.0
H1918 H 0.33737 0.12335 0.62744 0.0
H1919 H 0.31737 0.09917 0.63606 0.0
H1920 H 0.33601 0.07175 0.60289 0.0
H1921 H 0.35613 0.09589 0.59412 0.0
H1922 H 0.33661 0.08204 0.57195 0.0
H1923 H 0.27874 0.14845 0.53807 0.0
H1924 H 0.30967 0.18055 0.53476 0.0
H1925 H 0.3523 0.14533 0.5905 0.0
C1926 C 0.28067 0.07827 0.60313 0.0
C1927 C 0.25624 0.07383 0.59707 0.0
C1928 C 0.24514 0.08747 0.5785 0.0
C1929 C 0.25818 0.10553 0.56622 0.0
C1930 C 0.28217 0.1098 0.57297 0.0
C1931 C 0.29322 0.09665 0.59114 0.0
C1932 C 0.31808 0.10658 0.59705 0.0
C1933 C 0.31954 0.11482 0.62363 0.0
C1934 C 0.33788 0.08795 0.59114 0.0
C1935 C 0.31908 0.12784 0.57987 0.0
C1936 C 0.2985 0.12902 0.56565 0.0
C1937 C 0.29501 0.14757 0.54896 0.0
C1938 C 0.31274 0.16568 0.54715 0.0
C1939 C 0.33342 0.16539 0.56235 0.0
C1940 C 0.33673 0.14597 0.57859 0.0
H1941 H 0.76601 0.40394 0.41422 0.0
H1942 H 0.80792 0.46137 0.38099 0.0
H1943 H 0.84575 0.43963 0.39135 0.0
H1944 H 0.81017 0.39046 0.46386 0.0
H1945 H 0.80351 0.35857 0.46239 0.0
H1946 H 0.78028 0.3804 0.45546 0.0
H1947 H 0.77354 0.36007 0.41368 0.0
H1948 H 0.7966 0.33824 0.42052 0.0
H1949 H 0.79892 0.35634 0.39349 0.0
H1950 H 0.87796 0.40839 0.39923 0.0
H1951 H 0.90181 0.371 0.40486 0.0
H1952 H 0.83855 0.33552 0.43509 0.0
C1953 C 0.78314 0.41224 0.40957 0.0
C1954 C 0.78413 0.43426 0.39677 0.0
C1955 C 0.80686 0.4445 0.39089 0.0
C1956 C 0.82839 0.43234 0.39678 0.0
C1957 C 0.82674 0.41033 0.40902 0.0
C1958 C 0.80466 0.40058 0.41565 0.0
C1959 C 0.80751 0.3759 0.42701 0.0
C1960 C 0.79992 0.37637 0.45377 0.0
C1961 C 0.79332 0.35651 0.41282 0.0
C1962 C 0.83454 0.37259 0.42444 0.0
C1963 C 0.84542 0.39274 0.41435 0.0
C1964 C 0.86978 0.39275 0.40772 0.0
C1965 C 0.88316 0.37142 0.41091 0.0
C1966 C 0.8721 0.35044 0.42064 0.0
C1967 C 0.84771 0.35141 0.42818 0.0
H1968 H 0.56057 0.83761 0.82599 0.0
H1969 H 0.5762 0.90781 0.8574 0.0
H1970 H 0.59208 0.88778 0.89417 0.0
H1971 H 0.54513 0.80554 0.88252 0.0
H1972 H 0.56018 0.77816 0.87319 0.0
H1973 H 0.54657 0.79771 0.85091 0.0
H1974 H 0.58722 0.80095 0.82809 0.0
H1975 H 0.60125 0.78134 0.84993 0.0
H1976 H 0.61393 0.81082 0.84408 0.0
H1977 H 0.60907 0.86005 0.92595 0.0
H1978 H 0.6272 0.8268 0.94977 0.0
H1979 H 0.60317 0.77519 0.89568 0.0
C1980 C 0.56658 0.84878 0.84094 0.0
C1981 C 0.5668 0.87422 0.83915 0.0
C1982 C 0.57568 0.88826 0.85864 0.0
C1983 C 0.58467 0.87706 0.87955 0.0
C1984 C 0.58486 0.85186 0.88046 0.0
C1985 C 0.57608 0.8379 0.86164 0.0
C1986 C 0.5807 0.81128 0.86589 0.0
C1987 C 0.55672 0.79734 0.86827 0.0
C1988 C 0.59673 0.80049 0.84581 0.0
C1989 C 0.59398 0.81247 0.88977 0.0
C1990 C 0.59577 0.83596 0.89813 0.0
C1991 C 0.60766 0.84156 0.91966 0.0
C1992 C 0.61796 0.82261 0.933 0.0
C1993 C 0.61665 0.7985 0.92449 0.0
C1994 C 0.6045 0.79345 0.90261 0.0
H1995 H 0.40766 0.66724 0.81859 0.0
H1996 H 0.47026 0.63681 0.85469 0.0
H1997 H 0.46117 0.66155 0.89114 0.0
H1998 H 0.4155 0.72834 0.84296 0.0
H1999 H 0.38334 0.73353 0.84492 0.0
H2000 H 0.39527 0.71372 0.82194 0.0
H2001 H 0.36717 0.6793 0.83704 0.0
H2002 H 0.35523 0.69892 0.86011 0.0
H2003 H 0.36837 0.67024 0.86836 0.0
H2004 H 0.44217 0.68659 0.92486 0.0
H2005 H 0.41795 0.71348 0.95141 0.0
H2006 H 0.37055 0.73028 0.89123 0.0
C2007 C 0.4195 0.66591 0.83417 0.0
C2008 C 0.43944 0.65004 0.83417 0.0
C2009 C 0.45485 0.64892 0.85456 0.0
C2010 C 0.44979 0.66284 0.87525 0.0
C2011 C 0.42968 0.67814 0.8748 0.0
C2012 C 0.41511 0.68011 0.85456 0.0
C2013 C 0.39487 0.69811 0.85838 0.0
C2014 C 0.39741 0.71971 0.84103 0.0
C2015 C 0.36994 0.6859 0.85583 0.0
C2016 C 0.3998 0.70548 0.88423 0.0
C2017 C 0.41983 0.69365 0.89351 0.0
C2018 C 0.42675 0.69627 0.91764 0.0
C2019 C 0.41286 0.71142 0.93258 0.0
C2020 C 0.39264 0.72398 0.92316 0.0
C2021 C 0.38622 0.72115 0.89867 0.0
H2022 H 0.60579 0.10581 0.63805 0.0
H2023 H 0.52947 0.11328 0.62148 0.0
H2024 H 0.53998 0.13243 0.58226 0.0
H2025 H 0.6209 0.16278 0.61914 0.0
H2026 H 0.65045 0.15492 0.60774 0.0
H2027 H 0.63701 0.13724 0.63145 0.0
H2028 H 0.64194 0.09851 0.60541 0.0
H2029 H 0.65533 0.11619 0.58148 0.0
H2030 H 0.62923 0.09757 0.57537 0.0
H2031 H 0.55899 0.15396 0.54668 0.0
H2032 H 0.58412 0.18116 0.52132 0.0
H2033 H 0.64724 0.1629 0.56397 0.0
C2034 C 0.59132 0.11075 0.62577 0.0
C2035 C 0.56687 0.10765 0.63237 0.0
C2036 C 0.54833 0.11529 0.61646 0.0
C2037 C 0.55414 0.12597 0.59415 0.0
C2038 C 0.57854 0.12913 0.58831 0.0
C2039 C 0.5968 0.12199 0.60388 0.0
C2040 C 0.6213 0.13084 0.59551 0.0
C2041 C 0.63308 0.14743 0.61459 0.0
C2042 C 0.63793 0.1095 0.58906 0.0
C2043 C 0.61397 0.14474 0.57318 0.0
C2044 C 0.58936 0.14288 0.56878 0.0
C2045 C 0.57831 0.15526 0.54976 0.0
C2046 C 0.59266 0.17053 0.53539 0.0
C2047 C 0.6175 0.17365 0.54071 0.0
C2048 C 0.62833 0.1603 0.55943 0.0
H2049 H 0.44537 0.31571 0.67609 0.0
H2050 H 0.42749 0.38743 0.65019 0.0
H2051 H 0.41297 0.36993 0.61162 0.0
H2052 H 0.46027 0.28706 0.61528 0.0
H2053 H 0.44565 0.25922 0.62387 0.0
H2054 H 0.46048 0.27749 0.64648 0.0
H2055 H 0.42079 0.2786 0.67132 0.0
H2056 H 0.40566 0.26075 0.64874 0.0
H2057 H 0.39342 0.28972 0.65739 0.0
H2058 H 0.39604 0.34475 0.5785 0.0
H2059 H 0.37561 0.31365 0.55379 0.0
H2060 H 0.40003 0.2581 0.60355 0.0
C2061 C 0.43942 0.32771 0.66178 0.0
C2062 C 0.43808 0.35289 0.66559 0.0
C2063 C 0.42905 0.36813 0.64719 0.0
C2064 C 0.42084 0.35834 0.6253 0.0
C2065 C 0.42148 0.3333 0.62238 0.0
C2066 C 0.43053 0.31813 0.64012 0.0
C2067 C 0.42561 0.29181 0.63417 0.0
C2068 C 0.44942 0.2781 0.62968 0.0
C2069 C 0.41046 0.27952 0.65408 0.0
C2070 C 0.41133 0.29465 0.61097 0.0
C2071 C 0.40992 0.31865 0.60407 0.0
C2072 C 0.3972 0.32589 0.58357 0.0
C2073 C 0.38557 0.30813 0.56975 0.0
C2074 C 0.38618 0.28357 0.57689 0.0
C2075 C 0.39926 0.27677 0.59773 0.0
H2076 H 0.89169 0.60393 0.75374 0.0
H2077 H 0.9505 0.62355 0.80201 0.0
H2078 H 0.92914 0.60391 0.83593 0.0
H2079 H 0.84447 0.61532 0.79315 0.0
H2080 H 0.82595 0.59007 0.78398 0.0
H2081 H 0.84722 0.60302 0.76305 0.0
H2082 H 0.86707 0.56095 0.75718 0.0
H2083 H 0.84592 0.54788 0.77833 0.0
H2084 H 0.87804 0.54458 0.78316 0.0
H2085 H 0.89927 0.58778 0.8653 0.0
H2086 H 0.8627 0.57602 0.88824 0.0
H2087 H 0.82397 0.56433 0.8211 0.0
C2088 C 0.90019 0.60382 0.77139 0.0
C2089 C 0.92269 0.61536 0.77529 0.0
C2090 C 0.93324 0.61488 0.79863 0.0
C2091 C 0.92133 0.60361 0.81797 0.0
C2092 C 0.89906 0.59258 0.81358 0.0
C2093 C 0.88866 0.59241 0.79085 0.0
C2094 C 0.86383 0.58071 0.79137 0.0
C2095 C 0.84422 0.59834 0.78237 0.0
C2096 C 0.86372 0.55713 0.77664 0.0
C2097 C 0.86132 0.57561 0.8182 0.0
C2098 C 0.88205 0.58226 0.83061 0.0
C2099 C 0.88319 0.58186 0.85578 0.0
C2100 C 0.8624 0.57518 0.86865 0.0
C2101 C 0.8409 0.56875 0.85633 0.0
C2102 C 0.84054 0.56831 0.83082 0.0
H2103 H 0.15731 0.9617 0.82653 0.0
H2104 H 0.10834 0.95664 0.88755 0.0
H2105 H 0.07427 0.94884 0.85968 0.0
H2106 H 0.11199 0.98609 0.7802 0.0
H2107 H 0.12489 0.96742 0.75677 0.0
H2108 H 0.14388 0.97912 0.7806 0.0
H2109 H 0.1579 0.93555 0.79055 0.0
H2110 H 0.1388 0.92381 0.767 0.0
H2111 H 0.13555 0.91279 0.79754 0.0
H2112 H 0.04766 0.93439 0.82706 0.0
H2113 H 0.03001 0.91361 0.79183 0.0
H2114 H 0.09623 0.9259 0.75136 0.0
C2115 C 0.13916 0.96014 0.83381 0.0
C2116 C 0.13518 0.96033 0.85906 0.0
C2117 C 0.11153 0.95697 0.86821 0.0
C2118 C 0.09211 0.95259 0.85251 0.0
C2119 C 0.09674 0.95142 0.82773 0.0
C2120 C 0.11966 0.9552 0.81835 0.0
C2121 C 0.12052 0.94905 0.79158 0.0
C2122 C 0.12561 0.97178 0.77639 0.0
C2123 C 0.13929 0.92911 0.78639 0.0
C2124 C 0.09486 0.94003 0.78774 0.0
C2125 C 0.08133 0.94215 0.8087 0.0
C2126 C 0.05787 0.93308 0.8104 0.0
C2127 C 0.04806 0.92115 0.79032 0.0
C2128 C 0.06175 0.91819 0.76888 0.0
C2129 C 0.08525 0.92824 0.76742 0.0
H2130 H 0.9254 0.38858 0.71872 0.0
H2131 H 0.89656 0.41887 0.78511 0.0
H2132 H 0.86357 0.43827 0.76193 0.0
H2133 H 0.9081 0.4387 0.67728 0.0
H2134 H 0.89997 0.41797 0.65344 0.0
H2135 H 0.9236 0.41014 0.67453 0.0
H2136 H 0.90097 0.37044 0.68521 0.0
H2137 H 0.87739 0.3781 0.66416 0.0
H2138 H 0.86995 0.37192 0.69531 0.0
H2139 H 0.83179 0.45095 0.73227 0.0
H2140 H 0.80164 0.45268 0.6994 0.0
H2141 H 0.85041 0.41238 0.65277 0.0
C2142 C 0.91248 0.39982 0.72826 0.0
C2143 C 0.91358 0.40253 0.75358 0.0
C2144 C 0.89602 0.41672 0.76564 0.0
C2145 C 0.87736 0.42793 0.75262 0.0
C2146 C 0.87652 0.42459 0.72764 0.0
C2147 C 0.89354 0.41074 0.7156 0.0
C2148 C 0.8869 0.40735 0.68928 0.0
C2149 C 0.90577 0.41926 0.67265 0.0
C2150 C 0.8836 0.38036 0.68315 0.0
C2151 C 0.86309 0.4208 0.68854 0.0
C2152 C 0.8577 0.43114 0.71067 0.0
C2153 C 0.83595 0.44323 0.71477 0.0
C2154 C 0.81896 0.44416 0.69595 0.0
C2155 C 0.82371 0.43268 0.67351 0.0
C2156 C 0.84633 0.42144 0.66966 0.0
H2157 H 0.04906 0.09603 0.69248 0.0
H2158 H 0.07392 0.07004 0.76219 0.0
H2159 H 0.10389 0.0439 0.74165 0.0
H2160 H 0.06065 0.03833 0.65744 0.0
H2161 H 0.07037 0.05529 0.63133 0.0
H2162 H 0.04753 0.0675 0.65121 0.0
H2163 H 0.07348 0.10623 0.65693 0.0
H2164 H 0.09633 0.09411 0.63729 0.0
H2165 H 0.10424 0.10345 0.66753 0.0
H2166 H 0.13501 0.02569 0.71404 0.0
H2167 H 0.16584 0.01899 0.68251 0.0
H2168 H 0.12131 0.05797 0.63087 0.0
C2169 C 0.06033 0.08432 0.7034 0.0
C2170 C 0.05918 0.08499 0.72889 0.0
C2171 C 0.0745 0.06974 0.7426 0.0
C2172 C 0.09146 0.05472 0.73108 0.0
C2173 C 0.09271 0.05509 0.70586 0.0
C2174 C 0.07744 0.06944 0.69219 0.0
C2175 C 0.08441 0.06906 0.66571 0.0
C2176 C 0.06456 0.05681 0.65052 0.0
C2177 C 0.08996 0.09472 0.65634 0.0
C2178 C 0.10698 0.0536 0.6668 0.0
C2179 C 0.11102 0.04502 0.68995 0.0
C2180 C 0.13178 0.03193 0.69576 0.0
C2181 C 0.14922 0.0282 0.67767 0.0
C2182 C 0.14601 0.03795 0.65415 0.0
C2183 C 0.12423 0.05013 0.64858 0.0
H2184 H 0.79631 0.91011 0.5998 0.0
H2185 H 0.73242 0.89419 0.55705 0.0
H2186 H 0.75638 0.86575 0.53202 0.0
H2187 H 0.84172 0.9042 0.55077 0.0
H2188 H 0.86335 0.8899 0.57057 0.0
H2189 H 0.84215 0.91161 0.58254 0.0
H2190 H 0.82722 0.88004 0.61386 0.0
H2191 H 0.84837 0.85832 0.60208 0.0
H2192 H 0.81658 0.85101 0.60345 0.0
H2193 H 0.78669 0.83657 0.51393 0.0
H2194 H 0.81928 0.8068 0.50677 0.0
H2195 H 0.86254 0.8408 0.56283 0.0
C2196 C 0.78749 0.90104 0.58483 0.0
C2197 C 0.76259 0.90445 0.58019 0.0
C2198 C 0.75152 0.89185 0.56083 0.0
C2199 C 0.76502 0.8758 0.54645 0.0
C2200 C 0.78951 0.87253 0.55177 0.0
C2201 C 0.80058 0.88475 0.5706 0.0
C2202 C 0.82634 0.87621 0.57434 0.0
C2203 C 0.84446 0.8967 0.56924 0.0
C2204 C 0.82981 0.86577 0.59994 0.0
C2205 C 0.82783 0.8567 0.55521 0.0
C2206 C 0.80664 0.85522 0.54195 0.0
C2207 C 0.80344 0.83775 0.52402 0.0
C2208 C 0.82211 0.82097 0.52001 0.0
C2209 C 0.84349 0.82152 0.5342 0.0
C2210 C 0.84648 0.83999 0.55161 0.0
H2211 H 0.75891 0.09275 0.89506 0.0
H2212 H 0.80721 0.03274 0.87996 0.0
H2213 H 0.84123 0.05559 0.89794 0.0
H2214 H 0.79931 0.1394 0.88113 0.0
H2215 H 0.78957 0.15931 0.90505 0.0
H2216 H 0.76881 0.13753 0.89263 0.0
H2217 H 0.76144 0.11999 0.9355 0.0
H2218 H 0.78226 0.14175 0.94805 0.0
H2219 H 0.78685 0.10991 0.95331 0.0
H2220 H 0.87072 0.08695 0.91244 0.0
H2221 H 0.89306 0.12369 0.92523 0.0
H2222 H 0.82514 0.16177 0.93432 0.0
C2223 C 0.77658 0.08432 0.8958 0.0
C2224 C 0.78051 0.06105 0.88605 0.0
C2225 C 0.80385 0.05057 0.88737 0.0
C2226 C 0.82325 0.06338 0.89757 0.0
C2227 C 0.81886 0.08643 0.90678 0.0
C2228 C 0.79603 0.09668 0.90631 0.0
C2229 C 0.7963 0.12201 0.91671 0.0
C2230 C 0.78802 0.14065 0.89775 0.0
C2231 C 0.78079 0.12349 0.93977 0.0
C2232 C 0.82298 0.12469 0.92243 0.0
C2233 C 0.83571 0.10398 0.91651 0.0
C2234 C 0.86092 0.10303 0.91776 0.0
C2235 C 0.87344 0.1239 0.92499 0.0
C2236 C 0.86067 0.14513 0.93128 0.0
C2237 C 0.83516 0.14539 0.93039 0.0
H2238 H 0.14186 0.36265 0.91206 0.0
H2239 H 0.17696 0.32102 0.96875 0.0
H2240 H 0.21119 0.34944 0.96846 0.0
H2241 H 0.19249 0.37322 0.87841 0.0
H2242 H 0.18512 0.40367 0.86941 0.0
H2243 H 0.16131 0.38277 0.87682 0.0
H2244 H 0.14474 0.41251 0.90907 0.0
H2245 H 0.16843 0.43368 0.90158 0.0
H2246 H 0.16465 0.42368 0.93239 0.0
H2247 H 0.24445 0.37765 0.95732 0.0
H2248 H 0.27332 0.40556 0.93762 0.0
H2249 H 0.21651 0.4301 0.88935 0.0
C2250 C 0.15635 0.35994 0.92497 0.0
C2251 C 0.15659 0.33958 0.94045 0.0
C2252 C 0.1762 0.33649 0.95674 0.0
C2253 C 0.19579 0.35258 0.95678 0.0
C2254 C 0.1954 0.37191 0.94066 0.0
C2255 C 0.17605 0.37591 0.92531 0.0
C2256 C 0.18111 0.39679 0.90829 0.0
C2257 C 0.17994 0.38861 0.88167 0.0
C2258 C 0.1637 0.41792 0.91313 0.0
C2259 C 0.20674 0.40313 0.91573 0.0
C2260 C 0.21456 0.38871 0.9346 0.0
C2261 C 0.23836 0.38948 0.94296 0.0
C2262 C 0.25466 0.40526 0.9316 0.0
C2263 C 0.24701 0.4201 0.91221 0.0
C2264 C 0.22265 0.41933 0.90453 0.0
H2265 H 0.66973 0.19164 0.07466 0.0
H2266 H 0.59786 0.17517 0.10174 0.0
H2267 H 0.61109 0.13353 0.11133 0.0
H2268 H 0.68473 0.13019 0.05058 0.0
H2269 H 0.71569 0.13257 0.06063 0.0
H2270 H 0.69937 0.15934 0.05165 0.0
H2271 H 0.70892 0.17896 0.09311 0.0
H2272 H 0.725 0.15226 0.10237 0.0
H2273 H 0.7003 0.16347 0.12051 0.0
H2274 H 0.63305 0.09526 0.12144 0.0
H2275 H 0.66259 0.06394 0.1335 0.0
H2276 H 0.72069 0.10672 0.10242 0.0
C2277 C 0.65657 0.179 0.08184 0.0
C2278 C 0.63269 0.18639 0.08714 0.0
C2279 C 0.61619 0.1697 0.09739 0.0
C2280 C 0.62351 0.14603 0.10278 0.0
C2281 C 0.64741 0.1395 0.09796 0.0
C2282 C 0.66371 0.15552 0.08774 0.0
C2283 C 0.68903 0.14508 0.08715 0.0
C2284 C 0.69771 0.14158 0.06094 0.0
C2285 C 0.70685 0.16088 0.10166 0.0
C2286 C 0.6846 0.12104 0.09941 0.0
C2287 C 0.66038 0.11789 0.10494 0.0
C2288 C 0.65202 0.09741 0.11702 0.0
C2289 C 0.66891 0.07977 0.12383 0.0
C2290 C 0.69387 0.08302 0.11896 0.0
C2291 C 0.70171 0.1038 0.10639 0.0
H2292 H 0.40623 0.22978 0.09388 0.0
H2293 H 0.39045 0.17836 0.03666 0.0
H2294 H 0.40339 0.14488 0.06315 0.0
H2295 H 0.4604 0.19726 0.11731 0.0
H2296 H 0.45361 0.20506 0.14826 0.0
H2297 H 0.44497 0.22518 0.1241 0.0
H2298 H 0.40051 0.22399 0.13906 0.0
H2299 H 0.409 0.20381 0.16313 0.0
H2300 H 0.38544 0.19522 0.14224 0.0
H2301 H 0.41216 0.11686 0.09742 0.0
H2302 H 0.42062 0.09625 0.13629 0.0
H2303 H 0.43436 0.16561 0.17018 0.0
C2304 C 0.4059 0.2115 0.08684 0.0
C2305 C 0.39728 0.20659 0.0633 0.0
C2306 C 0.39708 0.18249 0.05464 0.0
C2307 C 0.40437 0.16336 0.06954 0.0
C2308 C 0.41231 0.16871 0.09284 0.0
C2309 C 0.41359 0.19221 0.10133 0.0
C2310 C 0.42221 0.1929 0.12735 0.0
C2311 C 0.44676 0.20587 0.12936 0.0
C2312 C 0.40315 0.20467 0.14391 0.0
C2313 C 0.42468 0.16609 0.13239 0.0
C2314 C 0.41881 0.15245 0.11225 0.0
C2315 C 0.41742 0.12729 0.11314 0.0
C2316 C 0.42213 0.11575 0.13523 0.0
C2317 C 0.42853 0.1294 0.15589 0.0
C2318 C 0.43014 0.15482 0.15437 0.0
H2319 H 0.60936 0.36303 0.20408 0.0
H2320 H 0.53579 0.37444 0.17947 0.0
H2321 H 0.54762 0.3614 0.13817 0.0
H2322 H 0.64181 0.37813 0.14692 0.0
H2323 H 0.66311 0.3538 0.15106 0.0
H2324 H 0.6502 0.36877 0.17702 0.0
H2325 H 0.635 0.32754 0.19351 0.0
H2326 H 0.64801 0.31251 0.1678 0.0
H2327 H 0.61629 0.30868 0.17455 0.0
H2328 H 0.56693 0.34428 0.1005 0.0
H2329 H 0.58974 0.31815 0.07207 0.0
H2330 H 0.64884 0.31371 0.12317 0.0
C2331 C 0.59597 0.36346 0.18976 0.0
C2332 C 0.57186 0.3702 0.19459 0.0
C2333 C 0.55445 0.36959 0.17585 0.0
C2334 C 0.56106 0.36242 0.15238 0.0
C2335 C 0.58504 0.3556 0.1482 0.0
C2336 C 0.60211 0.35569 0.16652 0.0
C2337 C 0.62549 0.34387 0.15857 0.0
C2338 C 0.64639 0.36225 0.15838 0.0
C2339 C 0.63152 0.32185 0.17454 0.0
C2340 C 0.61869 0.33638 0.13316 0.0
C2341 C 0.59562 0.34409 0.12716 0.0
C2342 C 0.58506 0.33834 0.10495 0.0
C2343 C 0.59806 0.32355 0.08893 0.0
C2344 C 0.62089 0.31423 0.09559 0.0
C2345 C 0.63156 0.32116 0.11763 0.0
H2346 H 0.41714 0.85486 0.3402 0.0
H2347 H 0.45901 0.80727 0.29366 0.0
H2348 H 0.45541 0.77472 0.32374 0.0
H2349 H 0.44192 0.83146 0.39821 0.0
H2350 H 0.41321 0.83437 0.41345 0.0
H2351 H 0.42101 0.85484 0.38929 0.0
H2352 H 0.38153 0.84322 0.36674 0.0
H2353 H 0.37368 0.82268 0.39073 0.0
H2354 H 0.37558 0.81186 0.36002 0.0
H2355 H 0.4429 0.74578 0.35597 0.0
H2356 H 0.42451 0.72325 0.38999 0.0
H2357 H 0.3929 0.78975 0.41701 0.0
C2358 C 0.42591 0.83774 0.33652 0.0
C2359 C 0.43836 0.83371 0.31452 0.0
C2360 C 0.44948 0.81095 0.31039 0.0
C2361 C 0.44754 0.79227 0.32738 0.0
C2362 C 0.43476 0.79667 0.34861 0.0
C2363 C 0.42442 0.81892 0.35344 0.0
C2364 C 0.41078 0.81852 0.37724 0.0
C2365 C 0.42243 0.83582 0.39564 0.0
C2366 C 0.3838 0.82441 0.37344 0.0
C2367 C 0.41438 0.79235 0.38455 0.0
C2368 C 0.42831 0.78009 0.3678 0.0
C2369 C 0.43239 0.75527 0.3695 0.0
C2370 C 0.42181 0.74261 0.38877 0.0
C2371 C 0.4076 0.75486 0.40616 0.0
C2372 C 0.40417 0.78009 0.40421 0.0
H2373 H 0.60134 0.69356 0.39792 0.0
H2374 H 0.5732 0.76289 0.37442 0.0
H2375 H 0.54861 0.74212 0.34311 0.0
H2376 H 0.60972 0.66993 0.34084 0.0
H2377 H 0.60176 0.63934 0.34886 0.0
H2378 H 0.6139 0.65936 0.37142 0.0
H2379 H 0.57626 0.65186 0.39848 0.0
H2380 H 0.56395 0.63178 0.37592 0.0
H2381 H 0.5464 0.65718 0.38641 0.0
H2382 H 0.53004 0.71352 0.31187 0.0
H2383 H 0.5216 0.68066 0.28255 0.0
H2384 H 0.56336 0.63097 0.32663 0.0
C2385 C 0.58963 0.7044 0.38656 0.0
C2386 C 0.58905 0.72981 0.38864 0.0
C2387 C 0.57381 0.74336 0.37314 0.0
C2388 C 0.55972 0.7317 0.3554 0.0
C2389 C 0.5611 0.70655 0.35353 0.0
C2390 C 0.57572 0.69313 0.36876 0.0
C2391 C 0.57605 0.66672 0.36174 0.0
C2392 C 0.60188 0.65837 0.35533 0.0
C2393 C 0.565 0.65096 0.38183 0.0
C2394 C 0.55992 0.66738 0.3397 0.0
C2395 C 0.551 0.69036 0.33544 0.0
C2396 C 0.53668 0.69542 0.31525 0.0
C2397 C 0.5319 0.67664 0.29874 0.0
C2398 C 0.5418 0.65329 0.30238 0.0
C2399 C 0.55548 0.64862 0.32342 0.0
H2400 H 0.16275 0.44078 0.16518 0.0
H2401 H 0.12376 0.44533 0.09734 0.0
H2402 H 0.08604 0.43335 0.11812 0.0
H2403 H 0.13926 0.38842 0.18222 0.0
H2404 H 0.13691 0.394 0.21428 0.0
H2405 H 0.15892 0.41013 0.19665 0.0
H2406 H 0.1413 0.45108 0.21092 0.0
H2407 H 0.11943 0.43509 0.22915 0.0
H2408 H 0.10942 0.45709 0.20727 0.0
H2409 H 0.0555 0.41318 0.14336 0.0
H2410 H 0.03376 0.38633 0.17141 0.0
H2411 H 0.09267 0.39245 0.22305 0.0
C2412 C 0.14594 0.44051 0.15507 0.0
C2413 C 0.14587 0.44446 0.12984 0.0
C2414 C 0.12394 0.44276 0.11678 0.0
C2415 C 0.10247 0.43602 0.12845 0.0
C2416 C 0.10334 0.4309 0.15314 0.0
C2417 C 0.12446 0.43326 0.16642 0.0
C2418 C 0.12153 0.4227 0.19159 0.0
C2419 C 0.14026 0.40263 0.19644 0.0
C2420 C 0.123 0.44269 0.21087 0.0
C2421 C 0.0961 0.41258 0.18978 0.0
C2422 C 0.08571 0.41819 0.16771 0.0
C2423 C 0.06323 0.40908 0.16088 0.0
C2424 C 0.05112 0.39365 0.17687 0.0
C2425 C 0.06159 0.38725 0.19936 0.0
C2426 C 0.08417 0.39721 0.20605 0.0
H2427 H 0.80663 0.04621 0.17659 0.0
H2428 H 0.83441 0.05029 0.10344 0.0
H2429 H 0.87635 0.04949 0.11926 0.0
H2430 H 0.84547 0.08809 0.19931 0.0
H2431 H 0.84939 0.07459 0.22874 0.0
H2432 H 0.82215 0.069 0.21188 0.0
H2433 H 0.82946 0.02288 0.21494 0.0
H2434 H 0.85684 0.02828 0.23188 0.0
H2435 H 0.85778 0.01031 0.20468 0.0
H2436 H 0.91438 0.05354 0.14267 0.0
H2437 H 0.94549 0.06744 0.17136 0.0
H2438 H 0.893 0.06441 0.22975 0.0
C2439 C 0.82165 0.04595 0.16397 0.0
C2440 C 0.81757 0.04768 0.13884 0.0
C2441 C 0.8374 0.04854 0.12274 0.0
C2442 C 0.86119 0.04793 0.13157 0.0
C2443 C 0.86472 0.04684 0.15656 0.0
C2444 C 0.84548 0.04608 0.17257 0.0
C2445 C 0.85397 0.04931 0.19847 0.0
C2446 C 0.84205 0.07157 0.21027 0.0
C2447 C 0.84923 0.02632 0.21336 0.0
C2448 C 0.88084 0.05316 0.19442 0.0
C2449 C 0.88674 0.05077 0.1702 0.0
C2450 C 0.91006 0.05516 0.16171 0.0
C2451 C 0.92762 0.06308 0.17818 0.0
C2452 C 0.92162 0.0671 0.20277 0.0
C2453 C 0.89815 0.06127 0.2111 0.0
H2454 H 0.08642 0.57322 0.25407 0.0
H2455 H 0.02511 0.58216 0.30237 0.0
H2456 H 0.04771 0.56172 0.33487 0.0
H2457 H 0.10737 0.51297 0.27987 0.0
H2458 H 0.13874 0.52117 0.27593 0.0
H2459 H 0.11619 0.53227 0.2551 0.0
H2460 H 0.12989 0.57629 0.26376 0.0
H2461 H 0.1524 0.56526 0.28442 0.0
H2462 H 0.13037 0.58708 0.29455 0.0
H2463 H 0.07909 0.54886 0.36392 0.0
H2464 H 0.11699 0.54306 0.38702 0.0
H2465 H 0.1574 0.53908 0.32002 0.0
C2466 C 0.07756 0.57026 0.2713 0.0
C2467 C 0.05407 0.57929 0.27575 0.0
C2468 C 0.0431 0.57535 0.29856 0.0
C2469 C 0.05574 0.56362 0.31711 0.0
C2470 C 0.07914 0.5555 0.31241 0.0
C2471 C 0.08986 0.55833 0.28996 0.0
C2472 C 0.11608 0.55024 0.2904 0.0
C2473 C 0.1198 0.52782 0.27438 0.0
C2474 C 0.13317 0.57095 0.28286 0.0
C2475 C 0.11882 0.54398 0.31696 0.0
C2476 C 0.09717 0.54679 0.32926 0.0
C2477 C 0.09595 0.54569 0.35445 0.0
C2478 C 0.11748 0.54239 0.36744 0.0
C2479 C 0.13977 0.53989 0.35516 0.0
C2480 C 0.14033 0.53985 0.32966 0.0
H2481 H 0.86134 0.91402 0.3688 0.0
H2482 H 0.81994 0.96379 0.32424 0.0
H2483 H 0.84933 0.95859 0.29115 0.0
H2484 H 0.92215 0.93232 0.34578 0.0
H2485 H 0.93326 0.9017 0.34707 0.0
H2486 H 0.91065 0.91175 0.36834 0.0
H2487 H 0.88265 0.87641 0.35528 0.0
H2488 H 0.90507 0.86635 0.33396 0.0
H2489 H 0.87478 0.87304 0.32379 0.0
H2490 H 0.87989 0.94364 0.26098 0.0
H2491 H 0.91047 0.92128 0.23698 0.0
H2492 H 0.93272 0.88286 0.30168 0.0
C2493 C 0.85871 0.92424 0.35229 0.0
C2494 C 0.83832 0.93933 0.34921 0.0
C2495 C 0.83548 0.95222 0.32718 0.0
C2496 C 0.8521 0.94941 0.30822 0.0
C2497 C 0.87168 0.93395 0.31165 0.0
C2498 C 0.87524 0.92183 0.33325 0.0
C2499 C 0.89685 0.9051 0.33179 0.0
C2500 C 0.91692 0.91321 0.34928 0.0
C2501 C 0.88938 0.87867 0.33647 0.0
C2502 C 0.90427 0.90898 0.30572 0.0
C2503 C 0.88967 0.92582 0.29442 0.0
C2504 C 0.89178 0.93079 0.26975 0.0
C2505 C 0.90908 0.91798 0.25625 0.0
C2506 C 0.92402 0.90054 0.26754 0.0
C2507 C 0.92184 0.89641 0.29265 0.0
H2508 H 0.13416 0.1292 0.40861 0.0
H2509 H 0.17229 0.17225 0.46232 0.0
H2510 H 0.20607 0.14344 0.46155 0.0
H2511 H 0.15586 0.06922 0.43109 0.0
H2512 H 0.15836 0.05724 0.40086 0.0
H2513 H 0.13569 0.07968 0.40767 0.0
H2514 H 0.1524 0.10684 0.37329 0.0
H2515 H 0.17517 0.08461 0.36649 0.0
H2516 H 0.18395 0.11525 0.37341 0.0
H2517 H 0.23813 0.11395 0.45072 0.0
H2518 H 0.26513 0.08322 0.43264 0.0
H2519 H 0.20592 0.05761 0.38788 0.0
C2520 C 0.14935 0.13227 0.42062 0.0
C2521 C 0.15045 0.15303 0.43551 0.0
C2522 C 0.17084 0.15647 0.45079 0.0
C2523 C 0.1902 0.14019 0.45052 0.0
C2524 C 0.18882 0.12031 0.43519 0.0
C2525 C 0.1688 0.11602 0.42078 0.0
C2526 C 0.17259 0.09397 0.40496 0.0
C2527 C 0.15455 0.07383 0.41155 0.0
C2528 C 0.17094 0.10058 0.37795 0.0
C2529 C 0.19818 0.08716 0.41207 0.0
C2530 C 0.20718 0.10257 0.42959 0.0
C2531 C 0.23115 0.10138 0.43742 0.0
C2532 C 0.24637 0.08401 0.42699 0.0
C2533 C 0.23743 0.06797 0.40918 0.0
C2534 C 0.21298 0.06934 0.40191 0.0
H2535 H 0.22723 0.90758 0.0872 0.0
H2536 H 0.17597 0.96235 0.11041 0.0
H2537 H 0.1422 0.93681 0.09643 0.0
H2538 H 0.19107 0.88619 0.03311 0.0
H2539 H 0.19994 0.85522 0.03811 0.0
H2540 H 0.22027 0.8795 0.04605 0.0
H2541 H 0.22288 0.86283 0.08979 0.0
H2542 H 0.20244 0.83873 0.08207 0.0
H2543 H 0.19543 0.85861 0.10696 0.0
H2544 H 0.11421 0.90299 0.08713 0.0
H2545 H 0.09371 0.86392 0.07983 0.0
H2546 H 0.16271 0.8315 0.06092 0.0
C2547 C 0.20894 0.91447 0.08863 0.0
C2548 C 0.20418 0.93688 0.09992 0.0
C2549 C 0.18001 0.9452 0.10183 0.0
C2550 C 0.1607 0.93087 0.09387 0.0
C2551 C 0.16589 0.90843 0.08372 0.0
C2552 C 0.18942 0.90041 0.08065 0.0
C2553 C 0.18991 0.87473 0.07109 0.0
C2554 C 0.20095 0.87387 0.04557 0.0
C2555 C 0.20346 0.85774 0.08853 0.0
C2556 C 0.16305 0.86922 0.07049 0.0
C2557 C 0.1495 0.88898 0.07762 0.0
C2558 C 0.12451 0.88755 0.08091 0.0
C2559 C 0.11306 0.86529 0.0769 0.0
C2560 C 0.12661 0.84485 0.06957 0.0
C2561 C 0.15184 0.84701 0.06595 0.0
H2562 H 0.83564 0.66901 0.04403 0.0
H2563 H 0.9012 0.62674 0.05251 0.0
H2564 H 0.87733 0.59332 0.06989 0.0
H2565 H 0.81272 0.6571 0.09785 0.0
H2566 H 0.78116 0.65476 0.08985 0.0
H2567 H 0.80125 0.67252 0.07148 0.0
H2568 H 0.7897 0.64778 0.03358 0.0
H2569 H 0.76901 0.63003 0.05155 0.0
H2570 H 0.79226 0.61529 0.03404 0.0
H2571 H 0.8492 0.56931 0.09433 0.0
H2572 H 0.81738 0.55387 0.12132 0.0
H2573 H 0.76927 0.61138 0.09795 0.0
C2574 C 0.84472 0.65218 0.04831 0.0
C2575 C 0.87017 0.65023 0.04669 0.0
C2576 C 0.88167 0.62841 0.05342 0.0
C2577 C 0.86825 0.60935 0.06328 0.0
C2578 C 0.84338 0.61242 0.0662 0.0
C2579 C 0.83156 0.63309 0.0585 0.0
C2580 C 0.8054 0.63326 0.06691 0.0
C2581 C 0.79984 0.65573 0.08244 0.0
C2582 C 0.78807 0.63147 0.04523 0.0
C2583 C 0.8049 0.61033 0.0819 0.0
C2584 C 0.82688 0.59842 0.08083 0.0
C2585 C 0.83172 0.57813 0.09489 0.0
C2586 C 0.81359 0.56967 0.11039 0.0
C2587 C 0.79087 0.58146 0.11171 0.0
C2588 C 0.78642 0.60192 0.0971 0.0
H2589 H 0.27977 0.93416 0.89424 0.0
H2590 H 0.21635 0.91083 0.93415 0.0
H2591 H 0.24024 0.87769 0.9526 0.0
H2592 H 0.29857 0.87609 0.8786 0.0
H2593 H 0.33055 0.88242 0.88046 0.0
H2594 H 0.30964 0.90636 0.87353 0.0
H2595 H 0.32593 0.93127 0.90979 0.0
H2596 H 0.34696 0.90737 0.91684 0.0
H2597 H 0.32615 0.91803 0.93959 0.0
H2598 H 0.27058 0.84583 0.96482 0.0
H2599 H 0.3034 0.81553 0.96679 0.0
H2600 H 0.34582 0.85809 0.91621 0.0
C2601 C 0.27111 0.92242 0.90734 0.0
C2602 C 0.24639 0.92516 0.91314 0.0
C2603 C 0.23536 0.90904 0.92968 0.0
C2604 C 0.24881 0.89029 0.9403 0.0
C2605 C 0.27313 0.88781 0.93389 0.0
C2606 C 0.2841 0.90333 0.91762 0.0
C2607 C 0.30959 0.89522 0.91163 0.0
C2608 C 0.31222 0.88969 0.88445 0.0
C2609 C 0.32826 0.9141 0.91997 0.0
C2610 C 0.31112 0.87244 0.9267 0.0
C2611 C 0.29014 0.86877 0.93987 0.0
C2612 C 0.28715 0.84861 0.95472 0.0
C2613 C 0.30592 0.83155 0.95578 0.0
C2614 C 0.32715 0.83452 0.94167 0.0
C2615 C 0.32981 0.85539 0.92721 0.0
H2616 H 0.01877 0.52117 0.18264 0.0
H2617 H 0.97869 0.55089 0.24286 0.0
H2618 H 0.96255 0.51038 0.25225 0.0
H2619 H 0.97391 0.46635 0.16971 0.0
H2620 H -0.00018 0.44784 0.16258 0.0
H2621 H -0.00031 0.47947 0.15458 0.0
H2622 H 0.04004 0.48515 0.17776 0.0
H2623 H 0.04011 0.45397 0.18604 0.0
H2624 H 0.04161 0.4768 0.20929 0.0
H2625 H 0.96429 0.46754 0.26424 0.0
H2626 H 0.981 0.42738 0.27499 0.0
H2627 H 0.01782 0.42427 0.20616 0.0
C2628 C 0.00538 0.51921 0.19682 0.0
C2629 C -0.00017 0.53888 0.21198 0.0
C2630 C 0.98277 0.53599 0.2308 0.0
C2631 C 0.97356 0.51299 0.23626 0.0
C2632 C 0.98113 0.49333 0.2223 0.0
C2633 C 0.99606 0.49639 0.20234 0.0
C2634 C 0.00546 0.47241 0.19309 0.0
C2635 C 0.99402 0.46615 0.16853 0.0
C2636 C 0.03342 0.4721 0.19152 0.0
C2637 C 0.9961 0.45581 0.21269 0.0
C2638 C 0.98135 0.46793 0.22896 0.0
C2639 C 0.97476 0.45751 0.25109 0.0
C2640 C 0.98428 0.43473 0.25712 0.0
C2641 C 9e-05 0.42286 0.241 0.0
C2642 C 0.00501 0.43292 0.2182 0.0
H2643 H 0.99399 0.92558 0.27016 0.0
H2644 H 0.02431 0.93551 0.19901 0.0
H2645 H 0.0405 0.97513 0.21117 0.0
H2646 H 0.96602 0.97252 0.27133 0.0
H2647 H 0.96882 0.98218 0.3024 0.0
H2648 H 0.97273 0.95107 0.29503 0.0
H2649 H 0.01524 0.95111 0.31455 0.0
H2650 H 0.01132 0.98253 0.32247 0.0
H2651 H 0.03746 0.97316 0.30535 0.0
H2652 H 0.03828 0.01686 0.22334 0.0
H2653 H 0.0161 0.05434 0.23199 0.0
H2654 H 0.98315 0.02061 0.2945 0.0
C2655 C 0.00577 0.93548 0.25802 0.0
C2656 C 0.00862 0.92754 0.23403 0.0
C2657 C 0.02271 0.94115 0.21772 0.0
C2658 C 0.0319 0.96375 0.22457 0.0
C2659 C 0.02631 0.97264 0.24759 0.0
C2660 C 0.01381 0.95865 0.26435 0.0
C2661 C 0.0036 0.97416 0.28457 0.0
C2662 C 0.9762 0.96973 0.28847 0.0
C2663 C 0.01776 0.97 0.30813 0.0
C2664 C 0.00877 -0.0009 0.27452 0.0
C2665 C 0.02348 -0.0021 0.25424 0.0
C2666 C 0.0274 0.01811 0.23958 0.0
C2667 C 0.01465 0.03942 0.24461 0.0
C2668 C -0.00227 0.04013 0.26378 0.0
C2669 C 0.9961 0.02036 0.27981 0.0
H2670 H 0.26035 0.00512 0.57201 0.0
H2671 H 0.18958 0.98072 0.54955 0.0
H2672 H 0.20675 0.9661 0.51098 0.0
H2673 H 0.27081 0.03418 0.52365 0.0
H2674 H 0.30298 0.02941 0.52073 0.0
H2675 H 0.28902 0.02713 0.54981 0.0
H2676 H 0.30569 0.98369 0.55502 0.0
H2677 H 0.32016 0.98592 0.52583 0.0
H2678 H 0.29982 0.9612 0.53213 0.0
H2679 H 0.22786 0.96532 0.47181 0.0
H2680 H 0.2485 0.98204 0.43598 0.0
H2681 H 0.30474 0.01141 0.48198 0.0
C2682 C 0.249 0.99504 0.5596 0.0
C2683 C 0.22397 0.99306 0.56392 0.0
C2684 C 0.20898 0.98148 0.54678 0.0
C2685 C 0.21866 0.97318 0.52482 0.0
C2686 C 0.24323 0.9771 0.52014 0.0
C2687 C 0.25827 0.98774 0.5372 0.0
C2688 C 0.28187 0.99604 0.52591 0.0
C2689 C 0.28637 0.02328 0.53027 0.0
C2690 C 0.30314 0.98079 0.53528 0.0
C2691 C 0.27682 0.99061 0.49955 0.0
C2692 C 0.25509 0.97844 0.49671 0.0
C2693 C 0.2452 0.97422 0.47384 0.0
C2694 C 0.25708 0.98375 0.45352 0.0
C2695 C 0.27821 -0.00207 0.45634 0.0
C2696 C 0.28877 0.00032 0.47945 0.0
H2697 H 0.79581 0.4633 0.55803 0.0
H2698 H 0.72632 0.48357 0.58789 0.0
H2699 H 0.71505 0.50224 0.54893 0.0
H2700 H 0.79991 0.51552 0.50946 0.0
H2701 H 0.81348 0.49434 0.4887 0.0
H2702 H 0.82001 0.4924 0.52062 0.0
H2703 H 0.80636 0.44757 0.52043 0.0
H2704 H 0.79967 0.44941 0.4889 0.0
H2705 H 0.77639 0.44005 0.50979 0.0
H2706 H 0.70617 0.50537 0.50526 0.0
H2707 H 0.70093 0.49231 0.46275 0.0
H2708 H 0.77565 0.46939 0.46051 0.0
C2709 C 0.77874 0.47283 0.55663 0.0
C2710 C 0.76191 0.47201 0.57575 0.0
C2711 C 0.73959 0.48429 0.57347 0.0
C2712 C 0.73308 0.49497 0.55136 0.0
C2713 C 0.7493 0.49357 0.53199 0.0
C2714 C 0.77202 0.48325 0.53465 0.0
C2715 C 0.78411 0.4791 0.51045 0.0
C2716 C 0.80565 0.49638 0.50712 0.0
C2717 C 0.79203 0.45247 0.50723 0.0
C2718 C 0.76355 0.48577 0.49371 0.0
C2719 C 0.74403 0.49526 0.50629 0.0
C2720 C 0.7216 0.49888 0.49509 0.0
C2721 C 0.71873 0.49146 0.47095 0.0
C2722 C 0.73807 0.48023 0.45865 0.0
C2723 C 0.76093 0.47855 0.46967 0.0
H2724 H 0.23982 0.00233 0.94731 0.0
H2725 H 0.16419 0.00401 0.96705 0.0
H2726 H 0.17462 0.02337 0.0059 0.0
H2727 H 0.25774 0.97837 0.99598 0.0
H2728 H 0.28654 0.99335 -0.00031 0.0
H2729 H 0.27331 0.99125 0.97033 0.0
H2730 H 0.27548 0.03785 0.96599 0.0
H2731 H 0.2887 0.04002 0.99577 0.0
H2732 H 0.26174 0.05692 0.9886 0.0
H2733 H 0.19257 0.02991 0.04553 0.0
H2734 H 0.21462 0.01605 0.0816 0.0
H2735 H 0.27938 0.00692 0.03876 0.0
C2736 C 0.22551 0.00831 0.95931 0.0
C2737 C 0.20126 0.00246 0.95416 0.0
C2738 C 0.18284 0.00899 0.97059 0.0
C2739 C 0.18866 0.02013 0.99263 0.0
C2740 C 0.21304 0.02419 -0.00185 0.0
C2741 C 0.23125 0.01847 0.98181 0.0
C2742 C 0.25579 0.01806 0.99408 0.0
C2743 C 0.26905 0.99382 0.98979 0.0
C2744 C 0.27134 0.0395 0.98561 0.0
C2745 C 0.24822 0.02129 0.02024 0.0
C2746 C 0.22375 0.02657 0.02205 0.0
C2747 C 0.21184 0.02653 0.04437 0.0
C2748 C 0.22456 0.01882 0.06492 0.0
C2749 C 0.24867 0.01064 0.06277 0.0
C2750 C 0.2611 0.01373 0.0407 0.0
H2751 H 0.79356 0.54237 0.06941 0.0
H2752 H 0.73191 0.4945 0.06692 0.0
H2753 H 0.74414 0.48088 0.02612 0.0
H2754 H 0.78345 0.56695 0.01978 0.0
H2755 H 0.81382 0.57184 0.00881 0.0
H2756 H 0.80861 0.56872 0.0405 0.0
H2757 H 0.83893 0.53331 0.04288 0.0
H2758 H 0.84483 0.5365 0.01094 0.0
H2759 H 0.83559 0.50765 0.02301 0.0
H2760 H 0.75416 0.48308 0.98266 0.0
H2761 H 0.75964 0.50123 0.94223 0.0
H2762 H 0.81253 0.55096 0.97168 0.0
C2763 C 0.78383 0.52767 0.06086 0.0
C2764 C 0.76227 0.51896 0.07126 0.0
C2765 C 0.74894 0.50071 0.05943 0.0
C2766 C 0.75576 0.49304 0.03617 0.0
C2767 C 0.77586 0.5039 0.02518 0.0
C2768 C 0.78999 0.52064 0.03742 0.0
C2769 C 0.80641 0.53444 0.02032 0.0
C2770 C 0.80279 0.56207 0.02247 0.0
C2771 C 0.83302 0.52754 0.02453 0.0
C2772 C 0.79746 0.52483 0.99634 0.0
C2773 C 0.78081 0.50633 -0.00053 0.0
C2774 C 0.7677 0.49698 0.97998 0.0
C2775 C 0.77088 0.50742 0.95706 0.0
C2776 C 0.78652 0.52745 0.95402 0.0
C2777 C 0.80067 0.53548 0.97364 0.0
H2778 H 0.45723 0.30876 0.03644 0.0
H2779 H 0.44534 0.24301 0.99586 0.0
H2780 H 0.48896 0.24138 0.98575 0.0
H2781 H 0.5132 0.33157 -0.00163 0.0
H2782 H 0.52662 0.34298 0.02583 0.0
H2783 H 0.49421 0.34401 0.0218 0.0
H2784 H 0.48861 0.32076 0.06211 0.0
H2785 H 0.52066 0.31957 0.06615 0.0
H2786 H 0.50334 0.2919 0.06601 0.0
H2787 H 0.53377 0.23979 0.99145 0.0
H2788 H 0.57359 0.23871 0.01202 0.0
H2789 H 0.55649 0.30574 0.04839 0.0
C2790 C 0.46373 0.29485 0.02427 0.0
C2791 C 0.44818 0.27617 0.01672 0.0
C2792 C 0.45704 0.25776 0.00136 0.0
C2793 C 0.48181 0.25673 0.99557 0.0
C2794 C 0.4972 0.27457 0.00482 0.0
C2795 C 0.48829 0.29372 0.01835 0.0
C2796 C 0.5085 0.30804 0.03 0.0
C2797 C 0.51077 0.33314 0.01829 0.0
C2798 C 0.50507 0.31012 0.05767 0.0
C2799 C 0.5299 0.29232 0.02346 0.0
C2800 C 0.52334 0.27369 0.00803 0.0
C2801 C 0.53933 0.25478 0.00275 0.0
C2802 C 0.56196 0.25429 0.01444 0.0
C2803 C 0.56802 0.27236 0.03147 0.0
C2804 C 0.55237 0.29211 0.03497 0.0
H2805 H 0.53757 0.78293 0.4776 0.0
H2806 H 0.58127 0.71812 0.47532 0.0
H2807 H 0.54681 0.69432 0.49042 0.0
H2808 H 0.49408 0.75975 0.53127 0.0
H2809 H 0.46927 0.77517 0.51676 0.0
H2810 H 0.49919 0.7883 0.51637 0.0
H2811 H 0.49705 0.79096 0.4697 0.0
H2812 H 0.4676 0.77765 0.46984 0.0
H2813 H 0.49148 0.76384 0.45238 0.0
H2814 H 0.50659 0.67669 0.48737 0.0
H2815 H 0.46539 0.66785 0.47252 0.0
H2816 H 0.44596 0.74305 0.48105 0.0
C2817 C 0.54015 0.764 0.48185 0.0
C2818 C 0.56184 0.75229 0.47534 0.0
C2819 C 0.56483 0.72746 0.48054 0.0
C2820 C 0.54527 0.71378 0.48911 0.0
C2821 C 0.52317 0.7254 0.49308 0.0
C2822 C 0.52078 0.75024 0.49064 0.0
C2823 C 0.49442 0.75779 0.49161 0.0
C2824 C 0.48892 0.77103 0.51543 0.0
C2825 C 0.48726 0.77342 0.46956 0.0
C2826 C 0.48231 0.73323 0.49115 0.0
C2827 C 0.49916 0.71473 0.49288 0.0
C2828 C 0.49306 0.69084 0.48729 0.0
C2829 C 0.46967 0.68593 0.47875 0.0
C2830 C 0.4526 0.70475 0.47632 0.0
C2831 C 0.45857 0.72832 0.48385 0.0
H2832 H 0.06199 0.77848 0.5195 0.0
H2833 H 0.06392 0.7061 0.49032 0.0
H2834 H 0.02458 0.71316 0.47008 0.0
H2835 H 0.00935 0.77557 0.5404 0.0
H2836 H -0.00114 0.80597 0.53492 0.0
H2837 H 0.03058 0.80017 0.53709 0.0
H2838 H 0.03753 0.81882 0.4947 0.0
H2839 H 0.00555 0.8251 0.49246 0.0
H2840 H 0.02047 0.80788 0.46912 0.0
H2841 H 0.98114 0.72284 0.46468 0.0
H2842 H 0.93915 0.73249 0.47661 0.0
H2843 H 0.96413 0.79759 0.51205 0.0
C2844 C 0.05473 0.76482 0.50745 0.0
C2845 C 0.06592 0.74203 0.50588 0.0
C2846 C 0.05581 0.72392 0.49103 0.0
C2847 C 0.03343 0.72784 0.47956 0.0
C2848 C 0.02164 0.74997 0.48315 0.0
C2849 C 0.03225 0.76837 0.4965 0.0
C2850 C 0.01415 0.78792 0.50286 0.0
C2851 C 0.01318 0.79261 0.53042 0.0
C2852 C 0.01976 0.81131 0.48894 0.0
C2853 C 0.99114 0.77636 0.49361 0.0
C2854 C 0.99591 0.75519 0.48105 0.0
C2855 C 0.97726 0.73974 0.47376 0.0
C2856 C 0.95341 0.74536 0.48056 0.0
C2857 C 0.94864 0.76586 0.49506 0.0
C2858 C 0.9675 0.78208 0.50057 0.0
H2859 H 0.96246 0.47446 0.8165 0.0
H2860 H -0.0005 0.43404 0.76054 0.0
H2861 H 0.01066 0.47237 0.74033 0.0
H2862 H 0.9336 0.51104 0.78033 0.0
H2863 H 0.93473 0.53796 0.79871 0.0
H2864 H 0.93677 0.50885 0.81274 0.0
H2865 H 0.97757 0.52084 0.83263 0.0
H2866 H 0.97548 0.55028 0.81876 0.0
H2867 H 0.00203 0.5319 0.81406 0.0
H2868 H 0.00802 0.51363 0.72091 0.0
H2869 H 0.99256 0.55287 0.70538 0.0
H2870 H 0.9568 0.56573 0.77377 0.0
C2871 C 0.97396 0.47375 0.80064 0.0
C2872 C 0.98026 0.45136 0.79015 0.0
C2873 C 0.99488 0.45103 0.76913 0.0
C2874 C 0.00121 0.47276 0.75748 0.0
C2875 C 0.99314 0.49459 0.76737 0.0
C2876 C 0.9802 0.49518 0.78884 0.0
C2877 C 0.96998 0.52007 0.79378 0.0
C2878 C 0.94215 0.51941 0.79651 0.0
C2879 C 0.982 0.53145 0.81613 0.0
C2880 C 0.97758 0.53297 0.77093 0.0
C2881 C 0.99153 0.51834 0.75614 0.0
C2882 C -0.00217 0.52551 0.73268 0.0
C2883 C 0.98906 0.54778 0.72398 0.0
C2884 C 0.97397 0.56223 0.73867 0.0
C2885 C 0.96889 0.5551 0.76256 0.0
H2886 H 0.99177 0.06822 0.72153 0.0
H2887 H 0.96263 0.04705 0.79078 0.0
H2888 H 0.95122 0.00735 0.77402 0.0
H2889 H 0.95425 0.02256 0.68012 0.0
H2890 H 0.98138 0.01749 0.66269 0.0
H2891 H 0.97506 0.04712 0.67483 0.0
H2892 H 0.01701 0.0472 0.69552 0.0
H2893 H 0.02333 0.01772 0.6841 0.0
H2894 H 0.02465 0.02319 0.71625 0.0
H2895 H 0.95634 0.96748 0.75598 0.0
H2896 H 0.97995 0.93276 0.74101 0.0
H2897 H 0.01027 0.97761 0.68451 0.0
C2898 C 0.9812 0.05579 0.73241 0.0
C2899 C 0.97725 0.06076 0.75707 0.0
C2900 C 0.96497 0.04375 0.77159 0.0
C2901 C 0.95853 0.02109 0.76215 0.0
C2902 C 0.96502 0.0156 0.73832 0.0
C2903 C 0.97598 0.03268 0.7235 0.0
C2904 C 0.98762 0.02087 0.70163 0.0
C2905 C 0.97374 0.02739 0.67845 0.0
C2906 C 0.01472 0.02761 0.69932 0.0
C2907 C 0.98407 0.99445 0.70794 0.0
C2908 C 0.96969 0.99175 0.72829 0.0
C2909 C 0.96695 0.9693 0.73961 0.0
C2910 C 0.98038 0.94958 0.73095 0.0
C2911 C 0.99678 0.95266 0.71159 0.0
C2912 C 0.99748 0.97489 0.69911 0.0
H2913 H 0.81132 0.98132 0.46991 0.0
H2914 H 0.75206 0.01144 0.42866 0.0
H2915 H 0.73466 0.02834 0.46583 0.0
H2916 H 0.78264 0.95646 0.50968 0.0
H2917 H 0.8004 0.96228 0.53645 0.0
H2918 H 0.81447 0.96363 0.50747 0.0
H2919 H 0.8287 0.00742 0.51575 0.0
H2920 H 0.81477 0.00611 0.54526 0.0
H2921 H 0.80706 0.03015 0.52462 0.0
H2922 H 0.71502 0.02401 0.50458 0.0
H2923 H 0.69834 0.00329 0.54035 0.0
H2924 H 0.76987 0.97877 0.55986 0.0
C2925 C 0.79554 0.99288 0.4687 0.0
C2926 C 0.78289 0.9949 0.44663 0.0
C2927 C 0.76218 0.00982 0.44538 0.0
C2928 C 0.75211 0.01948 0.46655 0.0
C2929 C 0.76334 0.01457 0.48866 0.0
C2930 C 0.7853 0.00246 0.48981 0.0
C2931 C 0.7911 0.99492 0.51555 0.0
C2932 C 0.79745 0.96774 0.51735 0.0
C2933 C 0.81162 0.0106 0.52591 0.0
C2934 C 0.76729 0.00083 0.5278 0.0
C2935 C 0.7519 0.01323 0.5123 0.0
C2936 C 0.7272 0.01552 0.51735 0.0
C2937 C 0.71778 0.00369 0.5377 0.0
C2938 C 0.73311 0.99021 0.55298 0.0
C2939 C 0.75823 0.99005 0.54886 0.0
H2940 H 0.25855 0.54238 0.44236 0.0
H2941 H 0.19899 0.49263 0.45239 0.0
H2942 H 0.21403 0.48309 0.49365 0.0
H2943 H 0.3049 0.51026 0.48399 0.0
H2944 H 0.31573 0.53944 0.49376 0.0
H2945 H 0.30498 0.53536 0.46321 0.0
H2946 H 0.27525 0.57103 0.46976 0.0
H2947 H 0.2852 0.57453 0.50038 0.0
H2948 H 0.25356 0.56946 0.49413 0.0
H2949 H 0.22992 0.48657 0.53628 0.0
H2950 H 0.24359 0.50357 0.57545 0.0
H2951 H 0.29152 0.5525 0.53739 0.0
C2952 C 0.24953 0.52847 0.45286 0.0
C2953 C 0.22808 0.51774 0.44431 0.0
C2954 C 0.2159 0.50042 0.45858 0.0
C2955 C 0.22432 0.495 0.48199 0.0
C2956 C 0.24495 0.50698 0.49055 0.0
C2957 C 0.25758 0.52316 0.47615 0.0
C2958 C 0.27631 0.53704 0.49047 0.0
C2959 C 0.30201 0.5301 0.48239 0.0
C2960 C 0.2723 0.56461 0.48858 0.0
C2961 C 0.27101 0.52765 0.51559 0.0
C2962 C 0.25356 0.50966 0.51527 0.0
C2963 C 0.24403 0.50016 0.53667 0.0
C2964 C 0.25191 0.50986 0.55885 0.0
C2965 C 0.26865 0.52921 0.55929 0.0
C2966 C 0.27889 0.53751 0.53746 0.0
H2967 H 0.68701 0.04843 0.95126 0.0
H2968 H 0.73815 0.99264 0.93133 0.0
H2969 H 0.74097 0.98002 0.97427 0.0
H2970 H 0.7165 0.06908 -0.00249 0.0
H2971 H 0.6912 0.07593 0.01697 0.0
H2972 H 0.68697 0.075 0.98489 0.0
H2973 H 0.65303 0.04297 0.98984 0.0
H2974 H 0.65702 0.04396 0.02222 0.0
H2975 H 0.659 0.01552 0.00639 0.0
H2976 H 0.74629 0.98105 0.01958 0.0
H2977 H 0.75342 0.99568 0.06143 0.0
H2978 H 0.69907 0.05103 0.05121 0.0
C2979 C 0.6979 0.03281 0.95587 0.0
C2980 C 0.71226 0.02139 0.9382 0.0
C2981 C 0.7267 0.00131 0.94467 0.0
C2982 C 0.72839 0.99408 0.96902 0.0
C2983 C 0.71512 0.00682 0.98639 0.0
C2984 C 0.69973 0.0255 0.97993 0.0
C2985 C 0.69062 0.03915 0.00179 0.0
C2986 C 0.69672 0.06636 0.00018 0.0
C2987 C 0.66329 0.03514 0.00526 0.0
C2988 C 0.70492 0.02671 0.02144 0.0
C2989 C 0.71833 0.00754 0.0125 0.0
C2990 C 0.73531 0.9955 0.0269 0.0
C2991 C 0.73926 0.00386 0.05064 0.0
C2992 C 0.72662 0.02431 0.05931 0.0
C2993 C 0.70863 0.03511 0.04491 0.0
H2994 H 0.31526 0.487 0.97747 0.0
H2995 H 0.25719 0.50668 0.92893 0.0
H2996 H 0.23452 0.52414 0.96307 0.0
H2997 H 0.28473 0.4624 0.01736 0.0
H2998 H 0.29993 0.47217 0.04455 0.0
H2999 H 0.31597 0.47202 0.01655 0.0
H3000 H 0.32605 0.51746 0.02148 0.0
H3001 H 0.31006 0.51772 0.04995 0.0
H3002 H 0.30205 0.53896 0.02655 0.0
H3003 H 0.21237 0.52231 0.00106 0.0
H3004 H 0.19503 0.50454 0.03809 0.0
H3005 H 0.26683 0.48873 0.06448 0.0
C3006 C 0.29848 0.49649 0.97397 0.0
C3007 C 0.28793 0.4956 0.95074 0.0
C3008 C 0.26576 0.50757 0.94654 0.0
C3009 C 0.25271 0.51748 0.96595 0.0
C3010 C 0.26241 0.51576 0.98927 0.0
C3011 C 0.28531 0.50632 0.99325 0.0
C3012 C 0.28969 0.50181 0.01996 0.0
C3013 C 0.29801 0.47556 0.02484 0.0
C3014 C 0.30805 0.52009 0.03008 0.0
C3015 C 0.26461 0.50669 0.02992 0.0
C3016 C 0.24937 0.51574 0.01214 0.0
C3017 C 0.22429 0.51646 0.01546 0.0
C3018 C 0.21451 0.50638 0.03659 0.0
C3019 C 0.22978 0.4961 0.05428 0.0
C3020 C 0.25506 0.49768 0.05161 0.0
H3021 H 0.45391 0.80877 0.94454 0.0
H3022 H 0.42804 0.75885 -0.0009 0.0
H3023 H 0.47031 0.75064 0.01147 0.0
H3024 H 0.49708 0.77414 0.92352 0.0
H3025 H 0.51926 0.79723 0.91731 0.0
H3026 H 0.48776 0.80487 0.91779 0.0
H3027 H 0.49562 0.83766 0.95033 0.0
H3028 H 0.52746 0.83046 0.9496 0.0
H3029 H 0.5112 0.82973 0.97788 0.0
H3030 H 0.51521 0.74073 0.0109 0.0
H3031 H 0.55712 0.73101 -0.00236 0.0
H3032 H 0.5527 0.78724 0.94334 0.0
C3033 C 0.45711 0.79695 0.95983 0.0
C3034 C 0.4378 0.78455 0.97095 0.0
C3035 C 0.44261 0.76886 0.99061 0.0
C3036 C 0.46659 0.76406 -0.00229 0.0
C3037 C 0.48542 0.77548 0.98528 0.0
C3038 C 0.48082 0.79202 0.96703 0.0
C3039 C 0.50369 0.79907 0.95381 0.0
C3040 C 0.50181 0.79346 0.92652 0.0
C3041 C 0.50986 0.82582 0.95818 0.0
C3042 C 0.52165 0.7827 0.96624 0.0
C3043 C 0.5111 0.76964 0.9848 0.0
C3044 C 0.5238 0.75135 0.99687 0.0
C3045 C 0.54755 0.74591 0.98928 0.0
C3046 C 0.55791 0.75844 0.96955 0.0
C3047 C 0.5451 0.77754 0.95861 0.0
H3048 H 0.45192 0.25118 0.56642 0.0
H3049 H 0.43246 0.21326 0.50056 0.0
H3050 H 0.47495 0.21737 0.48603 0.0
H3051 H 0.49687 0.29287 0.53954 0.0
H3052 H 0.51586 0.29101 0.56601 0.0
H3053 H 0.48347 0.28811 0.56891 0.0
H3054 H 0.48896 0.24689 0.5905 0.0
H3055 H 0.52122 0.24962 0.58776 0.0
H3056 H 0.50608 0.22331 0.5758 0.0
H3057 H 0.52144 0.22115 0.48193 0.0
H3058 H 0.56582 0.22303 0.48927 0.0
H3059 H 0.55274 0.25867 0.5578 0.0
C3060 C 0.45644 0.24397 0.54875 0.0
C3061 C 0.43905 0.23167 0.53468 0.0
C3062 C 0.4456 0.22277 0.51158 0.0
C3063 C 0.46963 0.22509 0.50322 0.0
C3064 C 0.48656 0.23679 0.51801 0.0
C3065 C 0.48001 0.24626 0.54022 0.0
C3066 C 0.50146 0.25615 0.5539 0.0
C3067 C 0.49928 0.28367 0.55727 0.0
C3068 C 0.50461 0.2432 0.57841 0.0
C3069 C 0.5215 0.24986 0.53647 0.0
C3070 C 0.51273 0.23911 0.51562 0.0
C3071 C 0.52841 0.23 0.49796 0.0
C3072 C 0.55356 0.23125 0.50216 0.0
C3073 C 0.56255 0.24119 0.52399 0.0
C3074 C 0.5463 0.25124 0.54084 0.0
H3075 H 0.97034 0.29398 0.46741 0.0
H3076 H 0.92446 0.23099 0.47418 0.0
H3077 H 0.95754 0.20907 0.49447 0.0
H3078 H 0.01729 0.26963 0.44784 0.0
H3079 H 0.0403 0.28614 0.46411 0.0
H3080 H 0.01119 0.29935 0.45991 0.0
H3081 H 0.00725 0.30477 0.50637 0.0
H3082 H 0.03665 0.29113 0.51043 0.0
H3083 H 0.01069 0.27902 0.52607 0.0
H3084 H 0.99724 0.19018 0.49664 0.0
H3085 H 0.03809 0.17785 0.48369 0.0
H3086 H 0.06001 0.25271 0.48024 0.0
C3087 C 0.96699 0.27606 0.47458 0.0
C3088 C 0.94506 0.2641 0.46938 0.0
C3089 C 0.94107 0.24055 0.47839 0.0
C3090 C 0.95983 0.22798 0.48995 0.0
C3091 C 0.98216 0.23951 0.49297 0.0
C3092 C 0.98552 0.26347 0.48638 0.0
C3093 C 0.01205 0.27042 0.48732 0.0
C3094 C 0.02065 0.28199 0.46336 0.0
C3095 C 0.01694 0.28733 0.50884 0.0
C3096 C 0.02336 0.24583 0.49159 0.0
C3097 C 0.0058 0.22837 0.49586 0.0
C3098 C 0.01125 0.20372 0.49461 0.0
C3099 C 0.03454 0.19678 0.48728 0.0
C3100 C 0.05217 0.21442 0.48174 0.0
C3101 C 0.04702 0.23904 0.4856 0.0
H3102 H 0.50282 0.01683 0.68029 0.0
H3103 H 0.48491 0.06364 0.74013 0.0
H3104 H 0.46449 0.02989 0.76062 0.0
H3105 H 0.44635 0.9699 0.69244 0.0
H3106 H 0.46605 0.94578 0.68278 0.0
H3107 H 0.46705 0.9747 0.66769 0.0
H3108 H 0.51311 0.97707 0.67573 0.0
H3109 H 0.51218 0.9486 0.69066 0.0
H3110 H 0.52413 0.9746 0.7064 0.0
H3111 H 0.46659 0.99185 0.78153 0.0
H3112 H 0.48676 0.95555 0.79746 0.0
H3113 H 0.49853 0.9297 0.72485 0.0
C3114 C 0.49294 0.02011 0.69688 0.0
C3115 C 0.49534 0.04253 0.70873 0.0
C3116 C 0.4829 0.04661 0.73063 0.0
C3117 C 0.47128 0.0274 0.74243 0.0
C3118 C 0.47176 0.00448 0.73172 0.0
C3119 C 0.48126 0.00098 0.70873 0.0
C3120 C 0.48436 0.97427 0.70329 0.0
C3121 C 0.46478 0.96566 0.68551 0.0
C3122 C 0.50996 0.96835 0.69354 0.0
C3123 C 0.47993 0.96377 0.72824 0.0
C3124 C 0.47136 0.98127 0.74411 0.0
C3125 C 0.47199 0.97766 0.76916 0.0
C3126 C 0.4834 0.95691 0.7782 0.0
C3127 C 0.49342 0.93977 0.7622 0.0
C3128 C 0.48985 0.94225 0.73715 0.0
H3129 H 0.46718 0.53256 0.80657 0.0
H3130 H 0.51029 0.56044 0.74751 0.0
H3131 H 0.52424 0.51899 0.73807 0.0
H3132 H 0.50948 0.47745 0.82127 0.0
H3133 H 0.48313 0.45945 0.82811 0.0
H3134 H 0.48342 0.49131 0.83517 0.0
H3135 H 0.44398 0.49703 0.81029 0.0
H3136 H 0.44382 0.46543 0.80348 0.0
H3137 H 0.44326 0.48719 0.77916 0.0
H3138 H 0.52309 0.47487 0.72768 0.0
H3139 H 0.50805 0.4335 0.71881 0.0
H3140 H 0.46695 0.4343 0.7854 0.0
C3141 C 0.4806 0.52996 0.79252 0.0
C3142 C 0.48786 0.54949 0.77788 0.0
C3143 C 0.50494 0.54566 0.75922 0.0
C3144 C 0.51291 0.52215 0.75373 0.0
C3145 C 0.5041 0.50288 0.76753 0.0
C3146 C 0.48882 0.5067 0.78707 0.0
C3147 C 0.47878 0.48315 0.79671 0.0
C3148 C 0.48935 0.47751 0.8218 0.0
C3149 C 0.45083 0.48324 0.79738 0.0
C3150 C 0.48848 0.46581 0.77792 0.0
C3151 C 0.5038 0.47722 0.76171 0.0
C3152 C 0.51188 0.46552 0.74074 0.0
C3153 C 0.50332 0.44204 0.7358 0.0
C3154 C 0.48661 0.43092 0.75161 0.0
C3155 C 0.48011 0.44248 0.77335 0.0
H3156 H 0.03682 0.29518 0.97527 0.0
H3157 H 0.0816 0.23254 0.98938 0.0
H3158 H 0.04582 0.21032 0.00408 0.0
H3159 H 0.98807 0.28244 0.02534 0.0
H3160 H 0.96494 0.29317 0.00497 0.0
H3161 H 0.99465 0.30675 0.00463 0.0
H3162 H 0.99767 0.29807 0.95867 0.0
H3163 H 0.96847 0.28416 0.95893 0.0
H3164 H 0.99421 0.26743 0.94796 0.0
H3165 H 0.00526 0.19117 0.00265 0.0
H3166 H 0.96447 0.1787 0.98865 0.0
H3167 H 0.94532 0.25361 0.97774 0.0
C3168 C 0.03924 0.27727 0.98282 0.0
C3169 C 0.06187 0.26559 0.98129 0.0
C3170 C 0.06447 0.24197 0.99077 0.0
C3171 C 0.04415 0.22917 -0.0009 0.0
C3172 C 0.02156 0.24047 -0.00163 0.0
C3173 C 0.01913 0.26435 0.99113 0.0
C3174 C 0.99281 0.27108 0.98759 0.0
C3175 C 0.98464 0.28944 0.00679 0.0
C3176 C 0.98806 0.28071 0.96177 0.0
C3177 C 0.98099 0.24676 0.99167 0.0
C3178 C 0.9977 0.22937 -0.00153 0.0
C3179 C 0.99177 0.20475 -0.00148 0.0
C3180 C 0.96861 0.19775 0.99061 0.0
C3181 C 0.95181 0.21538 0.983 0.0
C3182 C 0.95771 0.24006 0.98456 0.0
H3183 H 0.46874 0.02305 0.18906 0.0
H3184 H 0.50182 0.05756 0.25093 0.0
H3185 H 0.52112 0.01903 0.2623 0.0
H3186 H 0.4495 0.97597 0.21367 0.0
H3187 H 0.45585 0.95375 0.19067 0.0
H3188 H 0.45291 0.98474 0.18238 0.0
H3189 H 0.49556 0.98364 0.16286 0.0
H3190 H 0.49847 0.95225 0.17124 0.0
H3191 H 0.52124 0.97377 0.18038 0.0
H3192 H 0.52096 0.97703 0.27571 0.0
H3193 H 0.50547 0.93658 0.28659 0.0
H3194 H 0.47857 0.92708 0.21392 0.0
C3195 C 0.4813 0.0226 0.20409 0.0
C3196 C 0.48401 0.04297 0.21909 0.0
C3197 C 0.49995 0.0421 0.23903 0.0
C3198 C 0.511 0.02025 0.24558 0.0
C3199 C 0.50652 -0.00023 0.23149 0.0
C3200 C 0.49284 0.001 0.21048 0.0
C3201 C 0.48723 0.97603 0.2008 0.0
C3202 C 0.45976 0.97246 0.19672 0.0
C3203 C 0.50149 0.97114 0.17744 0.0
C3204 C 0.49672 0.96066 0.22139 0.0
C3205 C 0.50847 0.97459 0.23865 0.0
C3206 C 0.51315 0.9656 0.26185 0.0
C3207 C 0.5044 0.94257 0.26796 0.0
C3208 C 0.49179 0.92866 0.2507 0.0
C3209 C 0.48939 0.93712 0.22684 0.0
H3210 H 0.51064 0.44452 0.30512 0.0
H3211 H 0.48593 0.42541 0.23357 0.0
H3212 H 0.46596 0.46512 0.2298 0.0
H3213 H 0.45833 0.49341 0.31897 0.0
H3214 H 0.4808 0.51143 0.3343 0.0
H3215 H 0.48162 0.47889 0.33659 0.0
H3216 H 0.526 0.47931 0.32168 0.0
H3217 H 0.52527 0.51139 0.31903 0.0
H3218 H 0.53309 0.49328 0.29302 0.0
H3219 H 0.46382 0.5092 0.22706 0.0
H3220 H 0.47997 0.55079 0.22562 0.0
H3221 H 0.50733 0.54292 0.29839 0.0
C3222 C 0.49959 0.44829 0.28941 0.0
C3223 C 0.49958 0.43219 0.26973 0.0
C3224 C 0.48565 0.43747 0.24902 0.0
C3225 C 0.47428 0.46006 0.24678 0.0
C3226 C 0.4768 0.47684 0.26558 0.0
C3227 C 0.48858 0.47087 0.28694 0.0
C3228 C 0.49422 0.49313 0.30187 0.0
C3229 C 0.47775 0.49428 0.32425 0.0
C3230 C 0.52122 0.49433 0.30924 0.0
C3231 C 0.4875 0.51263 0.28393 0.0
C3232 C 0.47599 0.50306 0.26378 0.0
C3233 C 0.47193 0.51702 0.24308 0.0
C3234 C 0.48115 0.54066 0.24236 0.0
C3235 C 0.4947 0.54975 0.26201 0.0
C3236 C 0.49659 0.5362 0.28343 0.0
H3237 H 0.02762 0.80582 0.0164 0.0
H3238 H 0.07206 0.74767 0.98901 0.0
H3239 H 0.03796 0.73318 0.96432 0.0
H3240 H 0.9825 0.7772 0.03083 0.0
H3241 H 0.95824 0.79703 0.02172 0.0
H3242 H 0.98757 0.80925 0.02713 0.0
H3243 H 0.98822 0.82743 0.98398 0.0
H3244 H 0.9585 0.81502 0.97841 0.0
H3245 H 0.98312 0.80824 0.9581 0.0
H3246 H -0.00157 0.71519 0.95973 0.0
H3247 H 0.95981 0.69824 0.97397 0.0
H3248 H 0.93784 0.76855 -0.00053 0.0
C3249 C 0.03039 0.79096 0.00396 0.0
C3250 C 0.05221 0.77777 0.00456 0.0
C3251 C 0.05552 0.75819 0.98853 0.0
C3252 C 0.03614 0.74984 0.97442 0.0
C3253 C 0.01383 0.76169 0.97611 0.0
C3254 C 0.01112 0.78254 0.9898 0.0
C3255 C 0.98462 0.78904 0.99283 0.0
C3256 C 0.97789 0.79329 0.01969 0.0
C3257 C 0.97825 0.81124 0.9774 0.0
C3258 C 0.97289 0.76647 0.98256 0.0
C3259 C 0.98995 0.75143 0.97186 0.0
C3260 C 0.98469 0.7272 0.96683 0.0
C3261 C 0.96259 0.71762 0.97482 0.0
C3262 C 0.94585 0.7324 0.98715 0.0
C3263 C 0.95012 0.7574 0.98902 0.0
loop_
_geom_bond_atom_site_label_1
_geom_bond_atom_site_label_2
_geom_bond_distance
_geom_bond_site_symmetry_2
_ccdc_geom_bond_type
Co0 O1 2.216 . S
Co0 O2 2.091 . S
Co0 O4 2.004 . S
Co0 O10 2.021 . S
Co0 O12 2.137 . S
Co0 O13 2.244 . S
O1 Co0 2.216 . S
O1 C8 1.247 . S
O2 Co0 2.091 . S
O2 C8 1.261 . S
C3 O12 1.247 . S
C3 O13 1.272 . S
O4 Co0 2.004 . S
O4 C9 1.259 . S
Co5 O6 2.061 . S
Co5 O11 2.052 . S
Co5 O13 2.135 . S
O6 Co5 2.061 . S
O6 C9 1.235 . S
C7 O10 1.238 . S
C7 O11 1.241 . S
C8 O1 1.247 . S
C8 O2 1.261 . S
C9 O4 1.259 . S
C9 O6 1.235 . S
O10 Co0 2.021 . S
O10 C7 1.238 . S
O11 Co5 2.052 . S
O11 C7 1.241 . S
O12 Co0 2.137 . S
O12 C3 1.247 . S
O13 Co0 2.244 . S
O13 C3 1.272 . S
O13 Co5 2.135 . S
Co14 O15 2.216 . S
Co14 O16 2.091 . S
Co14 O18 2.004 . S
Co14 O24 2.021 . S
Co14 O26 2.137 . S
Co14 O27 2.244 . S
O15 Co14 2.216 . S
O15 C22 1.247 . S
O16 Co14 2.091 . S
O16 C22 1.261 . S
C17 O26 1.247 . S
C17 O27 1.272 . S
O18 Co14 2.004 . S
O18 C23 1.259 . S
Co19 O20 2.061 . S
Co19 O25 2.052 . S
Co19 O27 2.135 . S
O20 Co19 2.061 . S
O20 C23 1.235 . S
C21 O24 1.238 . S
C21 O25 1.241 . S
C22 O15 1.247 . S
C22 O16 1.261 . S
C23 O18 1.259 . S
C23 O20 1.235 . S
O24 Co14 2.021 . S
O24 C21 1.238 . S
O25 Co19 2.052 . S
O25 C21 1.241 . S
O26 Co14 2.137 . S
O26 C17 1.247 . S
O27 Co14 2.244 . S
O27 C17 1.272 . S
O27 Co19 2.135 . S
Co28 O29 2.216 . S
Co28 O30 2.091 . S
Co28 O32 2.004 . S
Co28 O38 2.021 . S
Co28 O40 2.137 . S
Co28 O41 2.244 . S
O29 Co28 2.216 . S
O29 C36 1.247 . S
O30 Co28 2.091 . S
O30 C36 1.261 . S
C31 O40 1.247 . S
C31 O41 1.272 . S
O32 Co28 2.004 . S
O32 C37 1.259 . S
Co33 O34 2.061 . S
Co33 O39 2.052 . S
Co33 O41 2.135 . S
O34 Co33 2.061 . S
O34 C37 1.235 . S
C35 O38 1.238 . S
C35 O39 1.241 . S
C36 O29 1.247 . S
C36 O30 1.261 . S
C37 O32 1.259 . S
C37 O34 1.235 . S
O38 Co28 2.021 . S
O38 C35 1.238 . S
O39 Co33 2.052 . S
O39 C35 1.241 . S
O40 Co28 2.137 . S
O40 C31 1.247 . S
O41 Co28 2.244 . S
O41 C31 1.272 . S
O41 Co33 2.135 . S
Co42 O43 2.216 . S
Co42 O44 2.091 . S
Co42 O46 2.004 . S
Co42 O52 2.021 . S
Co42 O54 2.137 . S
Co42 O55 2.244 . S
O43 Co42 2.216 . S
O43 C50 1.247 . S
O44 Co42 2.091 . S
O44 C50 1.261 . S
C45 O54 1.247 . S
C45 O55 1.272 . S
O46 Co42 2.004 . S
O46 C51 1.259 . S
Co47 O48 2.061 . S
Co47 O53 2.052 . S
Co47 O55 2.135 . S
O48 Co47 2.061 . S
O48 C51 1.235 . S
C49 O52 1.238 . S
C49 O53 1.241 . S
C50 O43 1.247 . S
C50 O44 1.261 . S
C51 O46 1.259 . S
C51 O48 1.235 . S
O52 Co42 2.021 . S
O52 C49 1.238 . S
O53 Co47 2.052 . S
O53 C49 1.241 . S
O54 Co42 2.137 . S
O54 C45 1.247 . S
O55 Co42 2.244 . S
O55 C45 1.272 . S
O55 Co47 2.135 . S
Co56 O57 2.216 . S
Co56 O58 2.091 . S
Co56 O60 2.004 . S
Co56 O66 2.021 . S
Co56 O68 2.137 . S
Co56 O69 2.244 . S
O57 Co56 2.216 . S
O57 C64 1.247 . S
O58 Co56 2.091 . S
O58 C64 1.261 . S
C59 O68 1.247 . S
C59 O69 1.272 . S
O60 Co56 2.004 . S
O60 C65 1.259 . S
Co61 O62 2.061 . S
Co61 O67 2.052 . S
Co61 O69 2.135 . S
O62 Co61 2.061 . S
O62 C65 1.235 . S
C63 O66 1.238 . S
C63 O67 1.241 . S
C64 O57 1.247 . S
C64 O58 1.261 . S
C65 O60 1.259 . S
C65 O62 1.235 . S
O66 Co56 2.021 . S
O66 C63 1.238 . S
O67 Co61 2.052 . S
O67 C63 1.241 . S
O68 Co56 2.137 . S
O68 C59 1.247 . S
O69 Co56 2.244 . S
O69 C59 1.272 . S
O69 Co61 2.135 . S
Co70 O71 2.216 . S
Co70 O72 2.091 . S
Co70 O74 2.004 . S
Co70 O80 2.021 . S
Co70 O82 2.137 . S
Co70 O83 2.244 . S
O71 Co70 2.216 . S
O71 C78 1.247 . S
O72 Co70 2.091 . S
O72 C78 1.261 . S
C73 O82 1.247 . S
C73 O83 1.272 . S
O74 Co70 2.004 . S
O74 C79 1.259 . S
Co75 O76 2.061 . S
Co75 O81 2.052 . S
Co75 O83 2.135 . S
O76 Co75 2.061 . S
O76 C79 1.235 . S
C77 O80 1.238 . S
C77 O81 1.241 . S
C78 O71 1.247 . S
C78 O72 1.261 . S
C79 O74 1.259 . S
C79 O76 1.235 . S
O80 Co70 2.021 . S
O80 C77 1.238 . S
O81 Co75 2.052 . S
O81 C77 1.241 . S
O82 Co70 2.137 . S
O82 C73 1.247 . S
O83 Co70 2.244 . S
O83 C73 1.272 . S
O83 Co75 2.135 . S
Co84 O85 2.216 . S
Co84 O86 2.091 . S
Co84 O88 2.004 . S
Co84 O94 2.021 . S
Co84 O96 2.137 . S
Co84 O97 2.244 . S
O85 Co84 2.216 . S
O85 C92 1.247 . S
O86 Co84 2.091 . S
O86 C92 1.261 . S
C87 O96 1.247 . S
C87 O97 1.272 . S
O88 Co84 2.004 . S
O88 C93 1.259 . S
Co89 O90 2.061 . S
Co89 O95 2.052 . S
Co89 O97 2.135 . S
O90 Co89 2.061 . S
O90 C93 1.235 . S
C91 O94 1.238 . S
C91 O95 1.241 . S
C92 O85 1.247 . S
C92 O86 1.261 . S
C93 O88 1.259 . S
C93 O90 1.235 . S
O94 Co84 2.021 . S
O94 C91 1.238 . S
O95 Co89 2.052 . S
O95 C91 1.241 . S
O96 Co84 2.137 . S
O96 C87 1.247 . S
O97 Co84 2.244 . S
O97 C87 1.272 . S
O97 Co89 2.135 . S
Co98 O99 2.216 . S
Co98 O100 2.091 . S
Co98 O102 2.004 . S
Co98 O108 2.021 . S
Co98 O110 2.137 . S
Co98 O111 2.244 . S
O99 Co98 2.216 . S
O99 C106 1.247 . S
O100 Co98 2.091 . S
O100 C106 1.261 . S
C101 O110 1.247 . S
C101 O111 1.272 . S
O102 Co98 2.004 . S
O102 C107 1.259 . S
Co103 O104 2.061 . S
Co103 O109 2.052 . S
Co103 O111 2.135 . S
O104 Co103 2.061 . S
O104 C107 1.235 . S
C105 O108 1.238 . S
C105 O109 1.241 . S
C106 O99 1.247 . S
C106 O100 1.261 . S
C107 O102 1.259 . S
C107 O104 1.235 . S
O108 Co98 2.021 . S
O108 C105 1.238 . S
O109 Co103 2.052 . S
O109 C105 1.241 . S
O110 Co98 2.137 . S
O110 C101 1.247 . S
O111 Co98 2.244 . S
O111 C101 1.272 . S
O111 Co103 2.135 . S
Co112 O113 2.216 . S
Co112 O114 2.091 . S
Co112 O116 2.004 . S
Co112 O122 2.021 . S
Co112 O124 2.137 . S
Co112 O125 2.244 . S
O113 Co112 2.216 . S
O113 C120 1.247 . S
O114 Co112 2.091 . S
O114 C120 1.261 . S
C115 O124 1.247 . S
C115 O125 1.272 . S
O116 Co112 2.004 . S
O116 C121 1.259 . S
Co117 O118 2.061 . S
Co117 O123 2.052 . S
Co117 O125 2.135 . S
O118 Co117 2.061 . S
O118 C121 1.235 . S
C119 O122 1.238 . S
C119 O123 1.241 . S
C120 O113 1.247 . S
C120 O114 1.261 . S
C121 O116 1.259 . S
C121 O118 1.235 . S
O122 Co112 2.021 . S
O122 C119 1.238 . S
O123 Co117 2.052 . S
O123 C119 1.241 . S
O124 Co112 2.137 . S
O124 C115 1.247 . S
O125 Co112 2.244 . S
O125 C115 1.272 . S
O125 Co117 2.135 . S
Co126 O127 2.216 . S
Co126 O128 2.091 . S
Co126 O130 2.004 . S
Co126 O136 2.021 . S
Co126 O138 2.137 . S
Co126 O139 2.244 . S
O127 Co126 2.216 . S
O127 C134 1.247 . S
O128 Co126 2.091 . S
O128 C134 1.261 . S
C129 O138 1.247 . S
C129 O139 1.272 . S
O130 Co126 2.004 . S
O130 C135 1.259 . S
Co131 O132 2.061 . S
Co131 O137 2.052 . S
Co131 O139 2.135 . S
O132 Co131 2.061 . S
O132 C135 1.235 . S
C133 O136 1.238 . S
C133 O137 1.241 . S
C134 O127 1.247 . S
C134 O128 1.261 . S
C135 O130 1.259 . S
C135 O132 1.235 . S
O136 Co126 2.021 . S
O136 C133 1.238 . S
O137 Co131 2.052 . S
O137 C133 1.241 . S
O138 Co126 2.137 . S
O138 C129 1.247 . S
O139 Co126 2.244 . S
O139 C129 1.272 . S
O139 Co131 2.135 . S
Co140 O141 2.216 . S
Co140 O142 2.091 . S
Co140 O144 2.004 . S
Co140 O150 2.021 . S
Co140 O152 2.137 . S
Co140 O153 2.244 . S
O141 Co140 2.216 . S
O141 C148 1.247 . S
O142 Co140 2.091 . S
O142 C148 1.261 . S
C143 O152 1.247 . S
C143 O153 1.272 . S
O144 Co140 2.004 . S
O144 C149 1.259 . S
Co145 O146 2.061 . S
Co145 O151 2.052 . S
Co145 O153 2.135 . S
O146 Co145 2.061 . S
O146 C149 1.235 . S
C147 O150 1.238 . S
C147 O151 1.241 . S
C148 O141 1.247 . S
C148 O142 1.261 . S
C149 O144 1.259 . S
C149 O146 1.235 . S
O150 Co140 2.021 . S
O150 C147 1.238 . S
O151 Co145 2.052 . S
O151 C147 1.241 . S
O152 Co140 2.137 . S
O152 C143 1.247 . S
O153 Co140 2.244 . S
O153 C143 1.272 . S
O153 Co145 2.135 . S
Co154 O155 2.216 . S
Co154 O156 2.091 . S
Co154 O158 2.004 . S
Co154 O164 2.021 . S
Co154 O166 2.137 . S
Co154 O167 2.244 . S
O155 Co154 2.216 . S
O155 C162 1.247 . S
O156 Co154 2.091 . S
O156 C162 1.261 . S
C157 O166 1.247 . S
C157 O167 1.272 . S
O158 Co154 2.004 . S
O158 C163 1.259 . S
Co159 O160 2.061 . S
Co159 O165 2.052 . S
Co159 O167 2.135 . S
O160 Co159 2.061 . S
O160 C163 1.235 . S
C161 O164 1.238 . S
C161 O165 1.241 . S
C162 O155 1.247 . S
C162 O156 1.261 . S
C163 O158 1.259 . S
C163 O160 1.235 . S
O164 Co154 2.021 . S
O164 C161 1.238 . S
O165 Co159 2.052 . S
O165 C161 1.241 . S
O166 Co154 2.137 . S
O166 C157 1.247 . S
O167 Co154 2.244 . S
O167 C157 1.272 . S
O167 Co159 2.135 . S
Co168 O169 2.216 . S
Co168 O170 2.091 . S
Co168 O172 2.004 . S
Co168 O178 2.021 . S
Co168 O180 2.137 . S
Co168 O181 2.244 . S
O169 Co168 2.216 . S
O169 C176 1.247 . S
O170 Co168 2.091 . S
O170 C176 1.261 . S
C171 O180 1.247 . S
C171 O181 1.272 . S
O172 Co168 2.004 . S
O172 C177 1.259 . S
Co173 O174 2.061 . S
Co173 O179 2.052 . S
Co173 O181 2.135 . S
O174 Co173 2.061 . S
O174 C177 1.235 . S
C175 O178 1.238 . S
C175 O179 1.241 . S
C176 O169 1.247 . S
C176 O170 1.261 . S
C177 O172 1.259 . S
C177 O174 1.235 . S
O178 Co168 2.021 . S
O178 C175 1.238 . S
O179 Co173 2.052 . S
O179 C175 1.241 . S
O180 Co168 2.137 . S
O180 C171 1.247 . S
O181 Co168 2.244 . S
O181 C171 1.272 . S
O181 Co173 2.135 . S
Co182 O183 2.216 . S
Co182 O184 2.091 . S
Co182 O186 2.004 . S
Co182 O192 2.021 . S
Co182 O194 2.137 . S
Co182 O195 2.244 . S
O183 Co182 2.216 . S
O183 C190 1.247 . S
O184 Co182 2.091 . S
O184 C190 1.261 . S
C185 O194 1.247 . S
C185 O195 1.272 . S
O186 Co182 2.004 . S
O186 C191 1.259 . S
Co187 O188 2.061 . S
Co187 O193 2.052 . S
Co187 O195 2.135 . S
O188 Co187 2.061 . S
O188 C191 1.235 . S
C189 O192 1.238 . S
C189 O193 1.241 . S
C190 O183 1.247 . S
C190 O184 1.261 . S
C191 O186 1.259 . S
C191 O188 1.235 . S
O192 Co182 2.021 . S
O192 C189 1.238 . S
O193 Co187 2.052 . S
O193 C189 1.241 . S
O194 Co182 2.137 . S
O194 C185 1.247 . S
O195 Co182 2.244 . S
O195 C185 1.272 . S
O195 Co187 2.135 . S
Co196 O197 2.216 . S
Co196 O198 2.091 . S
Co196 O200 2.004 . S
Co196 O206 2.021 . S
Co196 O208 2.137 . S
Co196 O209 2.244 . S
O197 Co196 2.216 . S
O197 C204 1.247 . S
O198 Co196 2.091 . S
O198 C204 1.261 . S
C199 O208 1.247 . S
C199 O209 1.272 . S
O200 Co196 2.004 . S
O200 C205 1.259 . S
Co201 O202 2.061 . S
Co201 O207 2.052 . S
Co201 O209 2.135 . S
O202 Co201 2.061 . S
O202 C205 1.235 . S
C203 O206 1.238 . S
C203 O207 1.241 . S
C204 O197 1.247 . S
C204 O198 1.261 . S
C205 O200 1.259 . S
C205 O202 1.235 . S
O206 Co196 2.021 . S
O206 C203 1.238 . S
O207 Co201 2.052 . S
O207 C203 1.241 . S
O208 Co196 2.137 . S
O208 C199 1.247 . S
O209 Co196 2.244 . S
O209 C199 1.272 . S
O209 Co201 2.135 . S
Co210 O211 2.216 . S
Co210 O212 2.091 . S
Co210 O214 2.004 . S
Co210 O220 2.021 . S
Co210 O222 2.137 . S
Co210 O223 2.244 . S
O211 Co210 2.216 . S
O211 C218 1.247 . S
O212 Co210 2.091 . S
O212 C218 1.261 . S
C213 O222 1.247 . S
C213 O223 1.272 . S
O214 Co210 2.004 . S
O214 C219 1.259 . S
Co215 O216 2.061 . S
Co215 O221 2.052 . S
Co215 O223 2.135 . S
O216 Co215 2.061 . S
O216 C219 1.235 . S
C217 O220 1.238 . S
C217 O221 1.241 . S
C218 O211 1.247 . S
C218 O212 1.261 . S
C219 O214 1.259 . S
C219 O216 1.235 . S
O220 Co210 2.021 . S
O220 C217 1.238 . S
O221 Co215 2.052 . S
O221 C217 1.241 . S
O222 Co210 2.137 . S
O222 C213 1.247 . S
O223 Co210 2.244 . S
O223 C213 1.272 . S
O223 Co215 2.135 . S
Co224 O225 2.216 . S
Co224 O226 2.091 . S
Co224 O228 2.004 . S
Co224 O234 2.021 . S
Co224 O236 2.137 . S
Co224 O237 2.244 . S
O225 Co224 2.216 . S
O225 C232 1.247 . S
O226 Co224 2.091 . S
O226 C232 1.261 . S
C227 O236 1.247 . S
C227 O237 1.272 . S
O228 Co224 2.004 . S
O228 C233 1.259 . S
Co229 O230 2.061 . S
Co229 O235 2.052 . S
Co229 O237 2.135 . S
O230 Co229 2.061 . S
O230 C233 1.235 . S
C231 O234 1.238 . S
C231 O235 1.241 . S
C232 O225 1.247 . S
C232 O226 1.261 . S
C233 O228 1.259 . S
C233 O230 1.235 . S
O234 Co224 2.021 . S
O234 C231 1.238 . S
O235 Co229 2.052 . S
O235 C231 1.241 . S
O236 Co224 2.137 . S
O236 C227 1.247 . S
O237 Co224 2.244 . S
O237 C227 1.272 . S
O237 Co229 2.135 . S
Co238 O239 2.216 . S
Co238 O240 2.091 . S
Co238 O242 2.004 . S
Co238 O248 2.021 . S
Co238 O250 2.137 . S
Co238 O251 2.244 . S
O239 Co238 2.216 . S
O239 C246 1.247 . S
O240 Co238 2.091 . S
O240 C246 1.261 . S
C241 O250 1.247 . S
C241 O251 1.272 . S
O242 Co238 2.004 . S
O242 C247 1.259 . S
Co243 O244 2.061 . S
Co243 O249 2.052 . S
Co243 O251 2.135 . S
O244 Co243 2.061 . S
O244 C247 1.235 . S
C245 O248 1.238 . S
C245 O249 1.241 . S
C246 O239 1.247 . S
C246 O240 1.261 . S
C247 O242 1.259 . S
C247 O244 1.235 . S
O248 Co238 2.021 . S
O248 C245 1.238 . S
O249 Co243 2.052 . S
O249 C245 1.241 . S
O250 Co238 2.137 . S
O250 C241 1.247 . S
O251 Co238 2.244 . S
O251 C241 1.272 . S
O251 Co243 2.135 . S
Co252 O253 2.216 . S
Co252 O254 2.091 . S
Co252 O256 2.004 . S
Co252 O262 2.021 . S
Co252 O264 2.137 . S
Co252 O265 2.244 . S
O253 Co252 2.216 . S
O253 C260 1.247 . S
O254 Co252 2.091 . S
O254 C260 1.261 . S
C255 O264 1.247 . S
C255 O265 1.272 . S
O256 Co252 2.004 . S
O256 C261 1.259 . S
Co257 O258 2.061 . S
Co257 O263 2.052 . S
Co257 O265 2.135 . S
O258 Co257 2.061 . S
O258 C261 1.235 . S
C259 O262 1.238 . S
C259 O263 1.241 . S
C260 O253 1.247 . S
C260 O254 1.261 . S
C261 O256 1.259 . S
C261 O258 1.235 . S
O262 Co252 2.021 . S
O262 C259 1.238 . S
O263 Co257 2.052 . S
O263 C259 1.241 . S
O264 Co252 2.137 . S
O264 C255 1.247 . S
O265 Co252 2.244 . S
O265 C255 1.272 . S
O265 Co257 2.135 . S
Co266 O267 2.216 . S
Co266 O268 2.091 . S
Co266 O270 2.004 . S
Co266 O276 2.021 . S
Co266 O278 2.137 . S
Co266 O279 2.244 . S
O267 Co266 2.216 . S
O267 C274 1.247 . S
O268 Co266 2.091 . S
O268 C274 1.261 . S
C269 O278 1.247 . S
C269 O279 1.272 . S
O270 Co266 2.004 . S
O270 C275 1.259 . S
Co271 O272 2.061 . S
Co271 O277 2.052 . S
Co271 O279 2.135 . S
O272 Co271 2.061 . S
O272 C275 1.235 . S
C273 O276 1.238 . S
C273 O277 1.241 . S
C274 O267 1.247 . S
C274 O268 1.261 . S
C275 O270 1.259 . S
C275 O272 1.235 . S
O276 Co266 2.021 . S
O276 C273 1.238 . S
O277 Co271 2.052 . S
O277 C273 1.241 . S
O278 Co266 2.137 . S
O278 C269 1.247 . S
O279 Co266 2.244 . S
O279 C269 1.272 . S
O279 Co271 2.135 . S
Co280 O281 2.216 . S
Co280 O282 2.091 . S
Co280 O284 2.004 . S
Co280 O290 2.021 . S
Co280 O292 2.137 . S
Co280 O293 2.244 . S
O281 Co280 2.216 . S
O281 C288 1.247 . S
O282 Co280 2.091 . S
O282 C288 1.261 . S
C283 O292 1.247 . S
C283 O293 1.272 . S
O284 Co280 2.004 . S
O284 C289 1.259 . S
Co285 O286 2.061 . S
Co285 O291 2.052 . S
Co285 O293 2.135 . S
O286 Co285 2.061 . S
O286 C289 1.235 . S
C287 O290 1.238 . S
C287 O291 1.241 . S
C288 O281 1.247 . S
C288 O282 1.261 . S
C289 O284 1.259 . S
C289 O286 1.235 . S
O290 Co280 2.021 . S
O290 C287 1.238 . S
O291 Co285 2.052 . S
O291 C287 1.241 . S
O292 Co280 2.137 . S
O292 C283 1.247 . S
O293 Co280 2.244 . S
O293 C283 1.272 . S
O293 Co285 2.135 . S
Co294 O295 2.216 . S
Co294 O296 2.091 . S
Co294 O298 2.004 . S
Co294 O304 2.021 . S
Co294 O306 2.137 . S
Co294 O307 2.244 . S
O295 Co294 2.216 . S
O295 C302 1.247 . S
O296 Co294 2.091 . S
O296 C302 1.261 . S
C297 O306 1.247 . S
C297 O307 1.272 . S
O298 Co294 2.004 . S
O298 C303 1.259 . S
Co299 O300 2.061 . S
Co299 O305 2.052 . S
Co299 O307 2.135 . S
O300 Co299 2.061 . S
O300 C303 1.235 . S
C301 O304 1.238 . S
C301 O305 1.241 . S
C302 O295 1.247 . S
C302 O296 1.261 . S
C303 O298 1.259 . S
C303 O300 1.235 . S
O304 Co294 2.021 . S
O304 C301 1.238 . S
O305 Co299 2.052 . S
O305 C301 1.241 . S
O306 Co294 2.137 . S
O306 C297 1.247 . S
O307 Co294 2.244 . S
O307 C297 1.272 . S
O307 Co299 2.135 . S
Co308 O309 2.216 . S
Co308 O310 2.091 . S
Co308 O312 2.004 . S
Co308 O318 2.021 . S
Co308 O320 2.137 . S
Co308 O321 2.244 . S
O309 Co308 2.216 . S
O309 C316 1.247 . S
O310 Co308 2.091 . S
O310 C316 1.261 . S
C311 O320 1.247 . S
C311 O321 1.272 . S
O312 Co308 2.004 . S
O312 C317 1.259 . S
Co313 O314 2.061 . S
Co313 O319 2.052 . S
Co313 O321 2.135 . S
O314 Co313 2.061 . S
O314 C317 1.235 . S
C315 O318 1.238 . S
C315 O319 1.241 . S
C316 O309 1.247 . S
C316 O310 1.261 . S
C317 O312 1.259 . S
C317 O314 1.235 . S
O318 Co308 2.021 . S
O318 C315 1.238 . S
O319 Co313 2.052 . S
O319 C315 1.241 . S
O320 Co308 2.137 . S
O320 C311 1.247 . S
O321 Co308 2.244 . S
O321 C311 1.272 . S
O321 Co313 2.135 . S
Co322 O323 2.216 . S
Co322 O324 2.091 . S
Co322 O326 2.004 . S
Co322 O332 2.021 . S
Co322 O334 2.137 . S
Co322 O335 2.244 . S
O323 Co322 2.216 . S
O323 C330 1.247 . S
O324 Co322 2.091 . S
O324 C330 1.261 . S
C325 O334 1.247 . S
C325 O335 1.272 . S
O326 Co322 2.004 . S
O326 C331 1.259 . S
Co327 O328 2.061 . S
Co327 O333 2.052 . S
Co327 O335 2.135 . S
O328 Co327 2.061 . S
O328 C331 1.235 . S
C329 O332 1.238 . S
C329 O333 1.241 . S
C330 O323 1.247 . S
C330 O324 1.261 . S
C331 O326 1.259 . S
C331 O328 1.235 . S
O332 Co322 2.021 . S
O332 C329 1.238 . S
O333 Co327 2.052 . S
O333 C329 1.241 . S
O334 Co322 2.137 . S
O334 C325 1.247 . S
O335 Co322 2.244 . S
O335 C325 1.272 . S
O335 Co327 2.135 . S
Co336 O337 2.216 . S
Co336 O338 2.091 . S
Co336 O340 2.004 . S
Co336 O346 2.021 . S
Co336 O348 2.137 . S
Co336 O349 2.244 . S
O337 Co336 2.216 . S
O337 C344 1.247 . S
O338 Co336 2.091 . S
O338 C344 1.261 . S
C339 O348 1.247 . S
C339 O349 1.272 . S
O340 Co336 2.004 . S
O340 C345 1.259 . S
Co341 O342 2.061 . S
Co341 O347 2.052 . S
Co341 O349 2.135 . S
O342 Co341 2.061 . S
O342 C345 1.235 . S
C343 O346 1.238 . S
C343 O347 1.241 . S
C344 O337 1.247 . S
C344 O338 1.261 . S
C345 O340 1.259 . S
C345 O342 1.235 . S
O346 Co336 2.021 . S
O346 C343 1.238 . S
O347 Co341 2.052 . S
O347 C343 1.241 . S
O348 Co336 2.137 . S
O348 C339 1.247 . S
O349 Co336 2.244 . S
O349 C339 1.272 . S
O349 Co341 2.135 . S
Co350 O351 2.216 . S
Co350 O352 2.091 . S
Co350 O354 2.004 . S
Co350 O360 2.021 . S
Co350 O362 2.137 . S
Co350 O363 2.244 . S
O351 Co350 2.216 . S
O351 C358 1.247 . S
O352 Co350 2.091 . S
O352 C358 1.261 . S
C353 O362 1.247 . S
C353 O363 1.272 . S
O354 Co350 2.004 . S
O354 C359 1.259 . S
Co355 O356 2.061 . S
Co355 O361 2.052 . S
Co355 O363 2.135 . S
O356 Co355 2.061 . S
O356 C359 1.235 . S
C357 O360 1.238 . S
C357 O361 1.241 . S
C358 O351 1.247 . S
C358 O352 1.261 . S
C359 O354 1.259 . S
C359 O356 1.235 . S
O360 Co350 2.021 . S
O360 C357 1.238 . S
O361 Co355 2.052 . S
O361 C357 1.241 . S
O362 Co350 2.137 . S
O362 C353 1.247 . S
O363 Co350 2.244 . S
O363 C353 1.272 . S
O363 Co355 2.135 . S
Co364 O365 2.216 . S
Co364 O366 2.091 . S
Co364 O368 2.004 . S
Co364 O374 2.021 . S
Co364 O376 2.137 . S
Co364 O377 2.244 . S
O365 Co364 2.216 . S
O365 C372 1.247 . S
O366 Co364 2.091 . S
O366 C372 1.261 . S
C367 O376 1.247 . S
C367 O377 1.272 . S
O368 Co364 2.004 . S
O368 C373 1.259 . S
Co369 O370 2.061 . S
Co369 O375 2.052 . S
Co369 O377 2.135 . S
O370 Co369 2.061 . S
O370 C373 1.235 . S
C371 O374 1.238 . S
C371 O375 1.241 . S
C372 O365 1.247 . S
C372 O366 1.261 . S
C373 O368 1.259 . S
C373 O370 1.235 . S
O374 Co364 2.021 . S
O374 C371 1.238 . S
O375 Co369 2.052 . S
O375 C371 1.241 . S
O376 Co364 2.137 . S
O376 C367 1.247 . S
O377 Co364 2.244 . S
O377 C367 1.272 . S
O377 Co369 2.135 . S
Co378 O379 2.216 . S
Co378 O380 2.091 . S
Co378 O382 2.004 . S
Co378 O388 2.021 . S
Co378 O390 2.137 . S
Co378 O391 2.244 . S
O379 Co378 2.216 . S
O379 C386 1.247 . S
O380 Co378 2.091 . S
O380 C386 1.261 . S
C381 O390 1.247 . S
C381 O391 1.272 . S
O382 Co378 2.004 . S
O382 C387 1.259 . S
Co383 O384 2.061 . S
Co383 O389 2.052 . S
Co383 O391 2.135 . S
O384 Co383 2.061 . S
O384 C387 1.235 . S
C385 O388 1.238 . S
C385 O389 1.241 . S
C386 O379 1.247 . S
C386 O380 1.261 . S
C387 O382 1.259 . S
C387 O384 1.235 . S
O388 Co378 2.021 . S
O388 C385 1.238 . S
O389 Co383 2.052 . S
O389 C385 1.241 . S
O390 Co378 2.137 . S
O390 C381 1.247 . S
O391 Co378 2.244 . S
O391 C381 1.272 . S
O391 Co383 2.135 . S
Co392 O393 2.216 . S
Co392 O394 2.091 . S
Co392 O396 2.004 . S
Co392 O402 2.021 . S
Co392 O404 2.137 . S
Co392 O405 2.244 . S
O393 Co392 2.216 . S
O393 C400 1.247 . S
O394 Co392 2.091 . S
O394 C400 1.261 . S
C395 O404 1.247 . S
C395 O405 1.272 . S
O396 Co392 2.004 . S
O396 C401 1.259 . S
Co397 O398 2.061 . S
Co397 O403 2.052 . S
Co397 O405 2.135 . S
O398 Co397 2.061 . S
O398 C401 1.235 . S
C399 O402 1.238 . S
C399 O403 1.241 . S
C400 O393 1.247 . S
C400 O394 1.261 . S
C401 O396 1.259 . S
C401 O398 1.235 . S
O402 Co392 2.021 . S
O402 C399 1.238 . S
O403 Co397 2.052 . S
O403 C399 1.241 . S
O404 Co392 2.137 . S
O404 C395 1.247 . S
O405 Co392 2.244 . S
O405 C395 1.272 . S
O405 Co397 2.135 . S
Co406 O407 2.216 . S
Co406 O408 2.091 . S
Co406 O410 2.004 . S
Co406 O416 2.021 . S
Co406 O418 2.137 . S
Co406 O419 2.244 . S
O407 Co406 2.216 . S
O407 C414 1.247 . S
O408 Co406 2.091 . S
O408 C414 1.261 . S
C409 O418 1.247 . S
C409 O419 1.272 . S
O410 Co406 2.004 . S
O410 C415 1.259 . S
Co411 O412 2.061 . S
Co411 O417 2.052 . S
Co411 O419 2.135 . S
O412 Co411 2.061 . S
O412 C415 1.235 . S
C413 O416 1.238 . S
C413 O417 1.241 . S
C414 O407 1.247 . S
C414 O408 1.261 . S
C415 O410 1.259 . S
C415 O412 1.235 . S
O416 Co406 2.021 . S
O416 C413 1.238 . S
O417 Co411 2.052 . S
O417 C413 1.241 . S
O418 Co406 2.137 . S
O418 C409 1.247 . S
O419 Co406 2.244 . S
O419 C409 1.272 . S
O419 Co411 2.135 . S
Co420 O421 2.216 . S
Co420 O422 2.091 . S
Co420 O424 2.004 . S
Co420 O430 2.021 . S
Co420 O432 2.137 . S
Co420 O433 2.244 . S
O421 Co420 2.216 . S
O421 C428 1.247 . S
O422 Co420 2.091 . S
O422 C428 1.261 . S
C423 O432 1.247 . S
C423 O433 1.272 . S
O424 Co420 2.004 . S
O424 C429 1.259 . S
Co425 O426 2.061 . S
Co425 O431 2.052 . S
Co425 O433 2.135 . S
O426 Co425 2.061 . S
O426 C429 1.235 . S
C427 O430 1.238 . S
C427 O431 1.241 . S
C428 O421 1.247 . S
C428 O422 1.261 . S
C429 O424 1.259 . S
C429 O426 1.235 . S
O430 Co420 2.021 . S
O430 C427 1.238 . S
O431 Co425 2.052 . S
O431 C427 1.241 . S
O432 Co420 2.137 . S
O432 C423 1.247 . S
O433 Co420 2.244 . S
O433 C423 1.272 . S
O433 Co425 2.135 . S
Co434 O435 2.216 . S
Co434 O436 2.091 . S
Co434 O438 2.004 . S
Co434 O444 2.021 . S
Co434 O446 2.137 . S
Co434 O447 2.244 . S
O435 Co434 2.216 . S
O435 C442 1.247 . S
O436 Co434 2.091 . S
O436 C442 1.261 . S
C437 O446 1.247 . S
C437 O447 1.272 . S
O438 Co434 2.004 . S
O438 C443 1.259 . S
Co439 O440 2.061 . S
Co439 O445 2.052 . S
Co439 O447 2.135 . S
O440 Co439 2.061 . S
O440 C443 1.235 . S
C441 O444 1.238 . S
C441 O445 1.241 . S
C442 O435 1.247 . S
C442 O436 1.261 . S
C443 O438 1.259 . S
C443 O440 1.235 . S
O444 Co434 2.021 . S
O444 C441 1.238 . S
O445 Co439 2.052 . S
O445 C441 1.241 . S
O446 Co434 2.137 . S
O446 C437 1.247 . S
O447 Co434 2.244 . S
O447 C437 1.272 . S
O447 Co439 2.135 . S
Co448 O449 2.216 . S
Co448 O450 2.091 . S
Co448 O452 2.004 . S
Co448 O458 2.021 . S
Co448 O460 2.137 . S
Co448 O461 2.244 . S
O449 Co448 2.216 . S
O449 C456 1.247 . S
O450 Co448 2.091 . S
O450 C456 1.261 . S
C451 O460 1.247 . S
C451 O461 1.272 . S
O452 Co448 2.004 . S
O452 C457 1.259 . S
Co453 O454 2.061 . S
Co453 O459 2.052 . S
Co453 O461 2.135 . S
O454 Co453 2.061 . S
O454 C457 1.235 . S
C455 O458 1.238 . S
C455 O459 1.241 . S
C456 O449 1.247 . S
C456 O450 1.261 . S
C457 O452 1.259 . S
C457 O454 1.235 . S
O458 Co448 2.021 . S
O458 C455 1.238 . S
O459 Co453 2.052 . S
O459 C455 1.241 . S
O460 Co448 2.137 . S
O460 C451 1.247 . S
O461 Co448 2.244 . S
O461 C451 1.272 . S
O461 Co453 2.135 . S
Co462 O463 2.216 . S
Co462 O464 2.091 . S
Co462 O466 2.004 . S
Co462 O472 2.021 . S
Co462 O474 2.137 . S
Co462 O475 2.244 . S
O463 Co462 2.216 . S
O463 C470 1.247 . S
O464 Co462 2.091 . S
O464 C470 1.261 . S
C465 O474 1.247 . S
C465 O475 1.272 . S
O466 Co462 2.004 . S
O466 C471 1.259 . S
Co467 O468 2.061 . S
Co467 O473 2.052 . S
Co467 O475 2.135 . S
O468 Co467 2.061 . S
O468 C471 1.235 . S
C469 O472 1.238 . S
C469 O473 1.241 . S
C470 O463 1.247 . S
C470 O464 1.261 . S
C471 O466 1.259 . S
C471 O468 1.235 . S
O472 Co462 2.021 . S
O472 C469 1.238 . S
O473 Co467 2.052 . S
O473 C469 1.241 . S
O474 Co462 2.137 . S
O474 C465 1.247 . S
O475 Co462 2.244 . S
O475 C465 1.272 . S
O475 Co467 2.135 . S
Co476 O477 2.216 . S
Co476 O478 2.091 . S
Co476 O480 2.004 . S
Co476 O486 2.021 . S
Co476 O488 2.137 . S
Co476 O489 2.244 . S
O477 Co476 2.216 . S
O477 C484 1.247 . S
O478 Co476 2.091 . S
O478 C484 1.261 . S
C479 O488 1.247 . S
C479 O489 1.272 . S
O480 Co476 2.004 . S
O480 C485 1.259 . S
Co481 O482 2.061 . S
Co481 O487 2.052 . S
Co481 O489 2.135 . S
O482 Co481 2.061 . S
O482 C485 1.235 . S
C483 O486 1.238 . S
C483 O487 1.241 . S
C484 O477 1.247 . S
C484 O478 1.261 . S
C485 O480 1.259 . S
C485 O482 1.235 . S
O486 Co476 2.021 . S
O486 C483 1.238 . S
O487 Co481 2.052 . S
O487 C483 1.241 . S
O488 Co476 2.137 . S
O488 C479 1.247 . S
O489 Co476 2.244 . S
O489 C479 1.272 . S
O489 Co481 2.135 . S
Co490 O491 2.216 . S
Co490 O492 2.091 . S
Co490 O494 2.004 . S
Co490 O500 2.021 . S
Co490 O502 2.137 . S
Co490 O503 2.244 . S
O491 Co490 2.216 . S
O491 C498 1.247 . S
O492 Co490 2.091 . S
O492 C498 1.261 . S
C493 O502 1.247 . S
C493 O503 1.272 . S
O494 Co490 2.004 . S
O494 C499 1.259 . S
Co495 O496 2.061 . S
Co495 O501 2.052 . S
Co495 O503 2.135 . S
O496 Co495 2.061 . S
O496 C499 1.235 . S
C497 O500 1.238 . S
C497 O501 1.241 . S
C498 O491 1.247 . S
C498 O492 1.261 . S
C499 O494 1.259 . S
C499 O496 1.235 . S
O500 Co490 2.021 . S
O500 C497 1.238 . S
O501 Co495 2.052 . S
O501 C497 1.241 . S
O502 Co490 2.137 . S
O502 C493 1.247 . S
O503 Co490 2.244 . S
O503 C493 1.272 . S
O503 Co495 2.135 . S
Co504 O505 2.216 . S
Co504 O506 2.091 . S
Co504 O508 2.004 . S
Co504 O514 2.021 . S
Co504 O516 2.137 . S
Co504 O517 2.244 . S
O505 Co504 2.216 . S
O505 C512 1.247 . S
O506 Co504 2.091 . S
O506 C512 1.261 . S
C507 O516 1.247 . S
C507 O517 1.272 . S
O508 Co504 2.004 . S
O508 C513 1.259 . S
Co509 O510 2.061 . S
Co509 O515 2.052 . S
Co509 O517 2.135 . S
O510 Co509 2.061 . S
O510 C513 1.235 . S
C511 O514 1.238 . S
C511 O515 1.241 . S
C512 O505 1.247 . S
C512 O506 1.261 . S
C513 O508 1.259 . S
C513 O510 1.235 . S
O514 Co504 2.021 . S
O514 C511 1.238 . S
O515 Co509 2.052 . S
O515 C511 1.241 . S
O516 Co504 2.137 . S
O516 C507 1.247 . S
O517 Co504 2.244 . S
O517 C507 1.272 . S
O517 Co509 2.135 . S
Co518 O519 2.216 . S
Co518 O520 2.091 . S
Co518 O522 2.004 . S
Co518 O528 2.021 . S
Co518 O530 2.137 . S
Co518 O531 2.244 . S
O519 Co518 2.216 . S
O519 C526 1.247 . S
O520 Co518 2.091 . S
O520 C526 1.261 . S
C521 O530 1.247 . S
C521 O531 1.272 . S
O522 Co518 2.004 . S
O522 C527 1.259 . S
Co523 O524 2.061 . S
Co523 O529 2.052 . S
Co523 O531 2.135 . S
O524 Co523 2.061 . S
O524 C527 1.235 . S
C525 O528 1.238 . S
C525 O529 1.241 . S
C526 O519 1.247 . S
C526 O520 1.261 . S
C527 O522 1.259 . S
C527 O524 1.235 . S
O528 Co518 2.021 . S
O528 C525 1.238 . S
O529 Co523 2.052 . S
O529 C525 1.241 . S
O530 Co518 2.137 . S
O530 C521 1.247 . S
O531 Co518 2.244 . S
O531 C521 1.272 . S
O531 Co523 2.135 . S
Co532 O533 2.216 . S
Co532 O534 2.091 . S
Co532 O536 2.004 . S
Co532 O542 2.021 . S
Co532 O544 2.137 . S
Co532 O545 2.244 . S
O533 Co532 2.216 . S
O533 C540 1.247 . S
O534 Co532 2.091 . S
O534 C540 1.261 . S
C535 O544 1.247 . S
C535 O545 1.272 . S
O536 Co532 2.004 . S
O536 C541 1.259 . S
Co537 O538 2.061 . S
Co537 O543 2.052 . S
Co537 O545 2.135 . S
O538 Co537 2.061 . S
O538 C541 1.235 . S
C539 O542 1.238 . S
C539 O543 1.241 . S
C540 O533 1.247 . S
C540 O534 1.261 . S
C541 O536 1.259 . S
C541 O538 1.235 . S
O542 Co532 2.021 . S
O542 C539 1.238 . S
O543 Co537 2.052 . S
O543 C539 1.241 . S
O544 Co532 2.137 . S
O544 C535 1.247 . S
O545 Co532 2.244 . S
O545 C535 1.272 . S
O545 Co537 2.135 . S
Co546 O547 2.216 . S
Co546 O548 2.091 . S
Co546 O550 2.004 . S
Co546 O556 2.021 . S
Co546 O558 2.137 . S
Co546 O559 2.244 . S
O547 Co546 2.216 . S
O547 C554 1.247 . S
O548 Co546 2.091 . S
O548 C554 1.261 . S
C549 O558 1.247 . S
C549 O559 1.272 . S
O550 Co546 2.004 . S
O550 C555 1.259 . S
Co551 O552 2.061 . S
Co551 O557 2.052 . S
Co551 O559 2.135 . S
O552 Co551 2.061 . S
O552 C555 1.235 . S
C553 O556 1.238 . S
C553 O557 1.241 . S
C554 O547 1.247 . S
C554 O548 1.261 . S
C555 O550 1.259 . S
C555 O552 1.235 . S
O556 Co546 2.021 . S
O556 C553 1.238 . S
O557 Co551 2.052 . S
O557 C553 1.241 . S
O558 Co546 2.137 . S
O558 C549 1.247 . S
O559 Co546 2.244 . S
O559 C549 1.272 . S
O559 Co551 2.135 . S
Co560 O561 2.216 . S
Co560 O562 2.091 . S
Co560 O564 2.004 . S
Co560 O570 2.021 . S
Co560 O572 2.137 . S
Co560 O573 2.244 . S
O561 Co560 2.216 . S
O561 C568 1.247 . S
O562 Co560 2.091 . S
O562 C568 1.261 . S
C563 O572 1.247 . S
C563 O573 1.272 . S
O564 Co560 2.004 . S
O564 C569 1.259 . S
Co565 O566 2.061 . S
Co565 O571 2.052 . S
Co565 O573 2.135 . S
O566 Co565 2.061 . S
O566 C569 1.235 . S
C567 O570 1.238 . S
C567 O571 1.241 . S
C568 O561 1.247 . S
C568 O562 1.261 . S
C569 O564 1.259 . S
C569 O566 1.235 . S
O570 Co560 2.021 . S
O570 C567 1.238 . S
O571 Co565 2.052 . S
O571 C567 1.241 . S
O572 Co560 2.137 . S
O572 C563 1.247 . S
O573 Co560 2.244 . S
O573 C563 1.272 . S
O573 Co565 2.135 . S
Co574 O575 2.216 . S
Co574 O576 2.091 . S
Co574 O578 2.004 . S
Co574 O584 2.021 . S
Co574 O586 2.137 . S
Co574 O587 2.244 . S
O575 Co574 2.216 . S
O575 C582 1.247 . S
O576 Co574 2.091 . S
O576 C582 1.261 . S
C577 O586 1.247 . S
C577 O587 1.272 . S
O578 Co574 2.004 . S
O578 C583 1.259 . S
Co579 O580 2.061 . S
Co579 O585 2.052 . S
Co579 O587 2.135 . S
O580 Co579 2.061 . S
O580 C583 1.235 . S
C581 O584 1.238 . S
C581 O585 1.241 . S
C582 O575 1.247 . S
C582 O576 1.261 . S
C583 O578 1.259 . S
C583 O580 1.235 . S
O584 Co574 2.021 . S
O584 C581 1.238 . S
O585 Co579 2.052 . S
O585 C581 1.241 . S
O586 Co574 2.137 . S
O586 C577 1.247 . S
O587 Co574 2.244 . S
O587 C577 1.272 . S
O587 Co579 2.135 . S
Co588 O589 2.216 . S
Co588 O590 2.091 . S
Co588 O592 2.004 . S
Co588 O598 2.021 . S
Co588 O600 2.137 . S
Co588 O601 2.244 . S
O589 Co588 2.216 . S
O589 C596 1.247 . S
O590 Co588 2.091 . S
O590 C596 1.261 . S
C591 O600 1.247 . S
C591 O601 1.272 . S
O592 Co588 2.004 . S
O592 C597 1.259 . S
Co593 O594 2.061 . S
Co593 O599 2.052 . S
Co593 O601 2.135 . S
O594 Co593 2.061 . S
O594 C597 1.235 . S
C595 O598 1.238 . S
C595 O599 1.241 . S
C596 O589 1.247 . S
C596 O590 1.261 . S
C597 O592 1.259 . S
C597 O594 1.235 . S
O598 Co588 2.021 . S
O598 C595 1.238 . S
O599 Co593 2.052 . S
O599 C595 1.241 . S
O600 Co588 2.137 . S
O600 C591 1.247 . S
O601 Co588 2.244 . S
O601 C591 1.272 . S
O601 Co593 2.135 . S
Co602 O603 2.216 . S
Co602 O604 2.091 . S
Co602 O606 2.004 . S
Co602 O612 2.021 . S
Co602 O614 2.137 . S
Co602 O615 2.244 . S
O603 Co602 2.216 . S
O603 C610 1.247 . S
O604 Co602 2.091 . S
O604 C610 1.261 . S
C605 O614 1.247 . S
C605 O615 1.272 . S
O606 Co602 2.004 . S
O606 C611 1.259 . S
Co607 O608 2.061 . S
Co607 O613 2.052 . S
Co607 O615 2.135 . S
O608 Co607 2.061 . S
O608 C611 1.235 . S
C609 O612 1.238 . S
C609 O613 1.241 . S
C610 O603 1.247 . S
C610 O604 1.261 . S
C611 O606 1.259 . S
C611 O608 1.235 . S
O612 Co602 2.021 . S
O612 C609 1.238 . S
O613 Co607 2.052 . S
O613 C609 1.241 . S
O614 Co602 2.137 . S
O614 C605 1.247 . S
O615 Co602 2.244 . S
O615 C605 1.272 . S
O615 Co607 2.135 . S
Co616 O617 2.216 . S
Co616 O618 2.091 . S
Co616 O620 2.004 . S
Co616 O626 2.021 . S
Co616 O628 2.137 . S
Co616 O629 2.244 . S
O617 Co616 2.216 . S
O617 C624 1.247 . S
O618 Co616 2.091 . S
O618 C624 1.261 . S
C619 O628 1.247 . S
C619 O629 1.272 . S
O620 Co616 2.004 . S
O620 C625 1.259 . S
Co621 O622 2.061 . S
Co621 O627 2.052 . S
Co621 O629 2.135 . S
O622 Co621 2.061 . S
O622 C625 1.235 . S
C623 O626 1.238 . S
C623 O627 1.241 . S
C624 O617 1.247 . S
C624 O618 1.261 . S
C625 O620 1.259 . S
C625 O622 1.235 . S
O626 Co616 2.021 . S
O626 C623 1.238 . S
O627 Co621 2.052 . S
O627 C623 1.241 . S
O628 Co616 2.137 . S
O628 C619 1.247 . S
O629 Co616 2.244 . S
O629 C619 1.272 . S
O629 Co621 2.135 . S
Co630 O631 2.216 . S
Co630 O632 2.091 . S
Co630 O634 2.004 . S
Co630 O640 2.021 . S
Co630 O642 2.137 . S
Co630 O643 2.244 . S
O631 Co630 2.216 . S
O631 C638 1.247 . S
O632 Co630 2.091 . S
O632 C638 1.261 . S
C633 O642 1.247 . S
C633 O643 1.272 . S
O634 Co630 2.004 . S
O634 C639 1.259 . S
Co635 O636 2.061 . S
Co635 O641 2.052 . S
Co635 O643 2.135 . S
O636 Co635 2.061 . S
O636 C639 1.235 . S
C637 O640 1.238 . S
C637 O641 1.241 . S
C638 O631 1.247 . S
C638 O632 1.261 . S
C639 O634 1.259 . S
C639 O636 1.235 . S
O640 Co630 2.021 . S
O640 C637 1.238 . S
O641 Co635 2.052 . S
O641 C637 1.241 . S
O642 Co630 2.137 . S
O642 C633 1.247 . S
O643 Co630 2.244 . S
O643 C633 1.272 . S
O643 Co635 2.135 . S
Co644 O645 2.216 . S
Co644 O646 2.091 . S
Co644 O648 2.004 . S
Co644 O654 2.021 . S
Co644 O656 2.137 . S
Co644 O657 2.244 . S
O645 Co644 2.216 . S
O645 C652 1.247 . S
O646 Co644 2.091 . S
O646 C652 1.261 . S
C647 O656 1.247 . S
C647 O657 1.272 . S
O648 Co644 2.004 . S
O648 C653 1.259 . S
Co649 O650 2.061 . S
Co649 O655 2.052 . S
Co649 O657 2.135 . S
O650 Co649 2.061 . S
O650 C653 1.235 . S
C651 O654 1.238 . S
C651 O655 1.241 . S
C652 O645 1.247 . S
C652 O646 1.261 . S
C653 O648 1.259 . S
C653 O650 1.235 . S
O654 Co644 2.021 . S
O654 C651 1.238 . S
O655 Co649 2.052 . S
O655 C651 1.241 . S
O656 Co644 2.137 . S
O656 C647 1.247 . S
O657 Co644 2.244 . S
O657 C647 1.272 . S
O657 Co649 2.135 . S
Co658 O659 2.216 . S
Co658 O660 2.091 . S
Co658 O662 2.004 . S
Co658 O668 2.021 . S
Co658 O670 2.137 . S
Co658 O671 2.244 . S
O659 Co658 2.216 . S
O659 C666 1.247 . S
O660 Co658 2.091 . S
O660 C666 1.261 . S
C661 O670 1.247 . S
C661 O671 1.272 . S
O662 Co658 2.004 . S
O662 C667 1.259 . S
Co663 O664 2.061 . S
Co663 O669 2.052 . S
Co663 O671 2.135 . S
O664 Co663 2.061 . S
O664 C667 1.235 . S
C665 O668 1.238 . S
C665 O669 1.241 . S
C666 O659 1.247 . S
C666 O660 1.261 . S
C667 O662 1.259 . S
C667 O664 1.235 . S
O668 Co658 2.021 . S
O668 C665 1.238 . S
O669 Co663 2.052 . S
O669 C665 1.241 . S
O670 Co658 2.137 . S
O670 C661 1.247 . S
O671 Co658 2.244 . S
O671 C661 1.272 . S
O671 Co663 2.135 . S
H672 C684 0.930 1_455 S
H673 C686 0.930 . S
H674 C687 0.930 . S
H675 C691 0.959 . S
H676 C691 0.959 . S
H677 C691 0.961 . S
H678 C692 0.960 . S
H679 C692 0.961 1_455 S
H680 C692 0.959 . S
H681 C695 0.929 . S
H682 C696 0.931 1_655 S
H683 C698 0.930 . S
C684 H672 0.930 1_655 S
C684 C685 1.399 . S
C684 C689 1.399 . S
C685 C684 1.399 . S
C685 C686 1.376 . S
C686 H673 0.930 . S
C686 C685 1.376 . S
C686 C687 1.388 . S
C687 H674 0.930 . S
C687 C686 1.388 . S
C687 C688 1.390 . S
C688 C687 1.390 . S
C688 C689 1.394 . S
C688 C694 1.465 . S
C689 C684 1.399 . S
C689 C688 1.394 . S
C689 C690 1.516 1_655 S
C690 C689 1.516 1_455 S
C690 C691 1.502 . S
C690 C692 1.561 1_455 S
C690 C693 1.526 . S
C691 H675 0.959 . S
C691 H676 0.959 . S
C691 H677 0.961 . S
C691 C690 1.502 . S
C692 H678 0.960 . S
C692 H679 0.961 1_655 S
C692 H680 0.959 . S
C692 C690 1.561 1_655 S
C693 C690 1.526 . S
C693 C694 1.396 1_455 S
C693 C698 1.390 . S
C694 C688 1.465 . S
C694 C693 1.396 1_655 S
C694 C695 1.399 . S
C695 H681 0.929 . S
C695 C694 1.399 . S
C695 C696 1.385 1_655 S
C696 H682 0.931 1_455 S
C696 C695 1.385 1_455 S
C696 C697 1.389 . S
C697 C696 1.389 . S
C697 C698 1.387 . S
C698 H683 0.930 . S
C698 C693 1.390 . S
C698 C697 1.387 . S
H699 C711 0.930 . S
H700 C713 0.930 . S
H701 C714 0.921 1_655 S
H702 C718 0.959 . S
H703 C718 0.959 . S
H704 C718 0.961 . S
H705 C719 0.960 . S
H706 C719 0.961 . S
H707 C719 0.959 . S
H708 C722 0.929 . S
H709 C723 0.931 . S
H710 C725 0.930 . S
C711 H699 0.930 . S
C711 C712 1.399 . S
C711 C716 1.399 . S
C712 C711 1.399 . S
C712 C713 1.376 . S
C713 H700 0.930 . S
C713 C712 1.376 . S
C713 C714 1.401 . S
C714 H701 0.921 1_455 S
C714 C713 1.401 . S
C714 C715 1.387 1_455 S
C715 C714 1.387 1_655 S
C715 C716 1.385 1_655 S
C715 C721 1.475 . S
C716 C711 1.399 . S
C716 C715 1.385 1_455 S
C716 C717 1.516 . S
C717 C716 1.516 . S
C717 C718 1.502 . S
C717 C719 1.561 1_455 S
C717 C720 1.526 1_455 S
C718 H702 0.959 . S
C718 H703 0.959 . S
C718 H704 0.961 . S
C718 C717 1.502 . S
C719 H705 0.960 . S
C719 H706 0.961 . S
C719 H707 0.959 . S
C719 C717 1.561 1_655 S
C720 C717 1.526 1_655 S
C720 C721 1.396 . S
C720 C725 1.390 . S
C721 C715 1.475 . S
C721 C720 1.396 . S
C721 C722 1.399 . S
C722 H708 0.929 . S
C722 C721 1.399 . S
C722 C723 1.385 . S
C723 H709 0.931 . S
C723 C722 1.385 . S
C723 C724 1.389 . S
C724 C723 1.389 . S
C724 C725 1.387 . S
C725 H710 0.930 . S
C725 C720 1.390 . S
C725 C724 1.387 . S
H726 C738 0.930 . S
H727 C740 0.930 . S
H728 C741 0.930 . S
H729 C745 0.959 . S
H730 C745 0.959 . S
H731 C745 0.961 . S
H732 C746 0.960 . S
H733 C746 0.961 . S
H734 C746 0.959 . S
H735 C749 0.929 . S
H736 C750 0.931 . S
H737 C752 0.930 . S
C738 H726 0.930 . S
C738 C739 1.399 1_545 S
C738 C743 1.399 . S
C739 C738 1.399 1_565 S
C739 C740 1.376 . S
C740 H727 0.930 . S
C740 C739 1.376 . S
C740 C741 1.388 . S
C741 H728 0.930 . S
C741 C740 1.388 . S
C741 C742 1.390 . S
C742 C741 1.390 . S
C742 C743 1.394 1_565 S
C742 C748 1.465 . S
C743 C738 1.399 . S
C743 C742 1.394 1_545 S
C743 C744 1.516 . S
C744 C743 1.516 . S
C744 C745 1.502 . S
C744 C746 1.561 . S
C744 C747 1.526 . S
C745 H729 0.959 . S
C745 H730 0.959 . S
C745 H731 0.961 . S
C745 C744 1.502 . S
C746 H732 0.960 . S
C746 H733 0.961 . S
C746 H734 0.959 . S
C746 C744 1.561 . S
C747 C744 1.526 . S
C747 C748 1.396 1_545 S
C747 C752 1.390 . S
C748 C742 1.465 . S
C748 C747 1.396 1_565 S
C748 C749 1.399 . S
C749 H735 0.929 . S
C749 C748 1.399 . S
C749 C750 1.385 . S
C750 H736 0.931 . S
C750 C749 1.385 . S
C750 C751 1.389 1_565 S
C751 C750 1.389 1_545 S
C751 C752 1.387 . S
C752 H737 0.930 . S
C752 C747 1.390 . S
C752 C751 1.387 . S
H753 C765 0.930 . S
H754 C767 0.930 . S
H755 C768 0.930 . S
H756 C772 0.959 . S
H757 C772 0.959 . S
H758 C772 0.961 . S
H759 C773 0.960 . S
H760 C773 0.961 . S
H761 C773 0.959 . S
H762 C776 0.929 . S
H763 C777 0.931 . S
H764 C779 0.930 . S
C765 H753 0.930 . S
C765 C766 1.399 . S
C765 C770 1.399 . S
C766 C765 1.399 . S
C766 C767 1.376 . S
C767 H754 0.930 . S
C767 C766 1.376 . S
C767 C768 1.388 . S
C768 H755 0.930 . S
C768 C767 1.388 . S
C768 C769 1.390 . S
C769 C768 1.390 . S
C769 C770 1.394 . S
C769 C775 1.465 . S
C770 C765 1.399 . S
C770 C769 1.394 . S
C770 C771 1.516 . S
C771 C770 1.516 . S
C771 C772 1.502 . S
C771 C773 1.561 . S
C771 C774 1.526 . S
C772 H756 0.959 . S
C772 H757 0.959 . S
C772 H758 0.961 . S
C772 C771 1.502 . S
C773 H759 0.960 . S
C773 H760 0.961 . S
C773 H761 0.959 . S
C773 C771 1.561 . S
C774 C771 1.526 . S
C774 C775 1.396 . S
C774 C779 1.390 . S
C775 C769 1.465 . S
C775 C774 1.396 . S
C775 C776 1.399 . S
C776 H762 0.929 . S
C776 C775 1.399 . S
C776 C777 1.385 . S
C777 H763 0.931 . S
C777 C776 1.385 . S
C777 C778 1.389 . S
C778 C777 1.389 . S
C778 C779 1.387 . S
C779 H764 0.930 . S
C779 C774 1.390 . S
C779 C778 1.387 . S
H780 C792 0.930 . S
H781 C794 0.930 . S
H782 C795 0.930 . S
H783 C799 0.959 . S
H784 C799 0.959 . S
H785 C799 0.961 . S
H786 C800 0.960 . S
H787 C800 0.961 . S
H788 C800 0.959 . S
H789 C803 0.929 . S
H790 C804 0.931 . S
H791 C806 0.930 . S
C792 H780 0.930 . S
C792 C793 1.399 . S
C792 C797 1.399 . S
C793 C792 1.399 . S
C793 C794 1.376 . S
C794 H781 0.930 . S
C794 C793 1.376 . S
C794 C795 1.388 . S
C795 H782 0.930 . S
C795 C794 1.388 . S
C795 C796 1.390 . S
C796 C795 1.390 . S
C796 C797 1.394 . S
C796 C802 1.465 1_554 S
C797 C792 1.399 . S
C797 C796 1.394 . S
C797 C798 1.516 . S
C798 C797 1.516 . S
C798 C799 1.502 1_554 S
C798 C800 1.561 . S
C798 C801 1.526 1_554 S
C799 H783 0.959 . S
C799 H784 0.959 . S
C799 H785 0.961 . S
C799 C798 1.502 1_556 S
C800 H786 0.960 . S
C800 H787 0.961 . S
C800 H788 0.959 . S
C800 C798 1.561 . S
C801 C798 1.526 1_556 S
C801 C802 1.396 . S
C801 C806 1.390 . S
C802 C796 1.465 1_556 S
C802 C801 1.396 . S
C802 C803 1.399 . S
C803 H789 0.929 . S
C803 C802 1.399 . S
C803 C804 1.385 . S
C804 H790 0.931 . S
C804 C803 1.385 . S
C804 C805 1.389 . S
C805 C804 1.389 . S
C805 C806 1.387 . S
C806 H791 0.930 . S
C806 C801 1.390 . S
C806 C805 1.387 . S
H807 C819 0.930 . S
H808 C821 0.930 . S
H809 C822 0.930 . S
H810 C826 0.959 . S
H811 C826 0.959 . S
H812 C826 0.961 . S
H813 C827 0.960 . S
H814 C827 0.961 . S
H815 C827 0.959 . S
H816 C830 0.929 . S
H817 C831 0.931 . S
H818 C833 0.930 . S
C819 H807 0.930 . S
C819 C820 1.399 . S
C819 C824 1.399 . S
C820 C819 1.399 . S
C820 C821 1.376 . S
C821 H808 0.930 . S
C821 C820 1.376 . S
C821 C822 1.388 . S
C822 H809 0.930 . S
C822 C821 1.388 . S
C822 C823 1.390 . S
C823 C822 1.390 . S
C823 C824 1.394 . S
C823 C829 1.465 . S
C824 C819 1.399 . S
C824 C823 1.394 . S
C824 C825 1.516 . S
C825 C824 1.516 . S
C825 C826 1.502 . S
C825 C827 1.561 . S
C825 C828 1.526 . S
C826 H810 0.959 . S
C826 H811 0.959 . S
C826 H812 0.961 . S
C826 C825 1.502 . S
C827 H813 0.960 . S
C827 H814 0.961 . S
C827 H815 0.959 . S
C827 C825 1.561 . S
C828 C825 1.526 . S
C828 C829 1.396 . S
C828 C833 1.390 . S
C829 C823 1.465 . S
C829 C828 1.396 . S
C829 C830 1.399 . S
C830 H816 0.929 . S
C830 C829 1.399 . S
C830 C831 1.385 . S
C831 H817 0.931 . S
C831 C830 1.385 . S
C831 C832 1.389 . S
C832 C831 1.389 . S
C832 C833 1.387 . S
C833 H818 0.930 . S
C833 C828 1.390 . S
C833 C832 1.387 . S
H834 C846 0.930 . S
H835 C848 0.930 . S
H836 C849 0.930 . S
H837 C853 0.959 . S
H838 C853 0.959 . S
H839 C853 0.961 . S
H840 C854 0.960 . S
H841 C854 0.961 . S
H842 C854 0.959 . S
H843 C857 0.929 . S
H844 C858 0.931 . S
H845 C860 0.930 . S
C846 H834 0.930 . S
C846 C847 1.399 . S
C846 C851 1.399 . S
C847 C846 1.399 . S
C847 C848 1.376 . S
C848 H835 0.930 . S
C848 C847 1.376 . S
C848 C849 1.388 . S
C849 H836 0.930 . S
C849 C848 1.388 . S
C849 C850 1.390 . S
C850 C849 1.390 . S
C850 C851 1.394 . S
C850 C856 1.465 . S
C851 C846 1.399 . S
C851 C850 1.394 . S
C851 C852 1.516 . S
C852 C851 1.516 . S
C852 C853 1.502 . S
C852 C854 1.561 . S
C852 C855 1.526 . S
C853 H837 0.959 . S
C853 H838 0.959 . S
C853 H839 0.961 . S
C853 C852 1.502 . S
C854 H840 0.960 . S
C854 H841 0.961 . S
C854 H842 0.959 . S
C854 C852 1.561 . S
C855 C852 1.526 . S
C855 C856 1.396 . S
C855 C860 1.390 . S
C856 C850 1.465 . S
C856 C855 1.396 . S
C856 C857 1.399 . S
C857 H843 0.929 . S
C857 C856 1.399 . S
C857 C858 1.385 . S
C858 H844 0.931 . S
C858 C857 1.385 . S
C858 C859 1.389 . S
C859 C858 1.389 . S
C859 C860 1.387 . S
C860 H845 0.930 . S
C860 C855 1.390 . S
C860 C859 1.387 . S
H861 C873 0.930 . S
H862 C875 0.930 . S
H863 C876 0.930 . S
H864 C880 0.959 . S
H865 C880 0.959 . S
H866 C880 0.961 . S
H867 C881 0.960 . S
H868 C881 0.961 . S
H869 C881 0.959 . S
H870 C884 0.929 . S
H871 C885 0.931 . S
H872 C887 0.930 . S
C873 H861 0.930 . S
C873 C874 1.399 . S
C873 C878 1.399 . S
C874 C873 1.399 . S
C874 C875 1.376 . S
C875 H862 0.930 . S
C875 C874 1.376 . S
C875 C876 1.388 . S
C876 H863 0.930 . S
C876 C875 1.388 . S
C876 C877 1.390 . S
C877 C876 1.390 . S
C877 C878 1.394 . S
C877 C883 1.465 . S
C878 C873 1.399 . S
C878 C877 1.394 . S
C878 C879 1.516 1_455 S
C879 C878 1.516 1_655 S
C879 C880 1.502 . S
C879 C881 1.561 1_655 S
C879 C882 1.526 . S
C880 H864 0.959 . S
C880 H865 0.959 . S
C880 H866 0.961 . S
C880 C879 1.502 . S
C881 H867 0.960 . S
C881 H868 0.961 . S
C881 H869 0.959 . S
C881 C879 1.561 1_455 S
C882 C879 1.526 . S
C882 C883 1.396 1_655 S
C882 C887 1.390 . S
C883 C877 1.465 . S
C883 C882 1.396 1_455 S
C883 C884 1.399 . S
C884 H870 0.929 . S
C884 C883 1.399 . S
C884 C885 1.385 1_455 S
C885 H871 0.931 . S
C885 C884 1.385 1_655 S
C885 C886 1.389 . S
C886 C885 1.389 . S
C886 C887 1.387 . S
C887 H872 0.930 . S
C887 C882 1.390 . S
C887 C886 1.387 . S
H888 C900 0.930 . S
H889 C902 0.930 . S
H890 C903 0.930 . S
H891 C907 0.959 . S
H892 C907 0.959 . S
H893 C907 0.961 . S
H894 C908 0.960 . S
H895 C908 0.961 . S
H896 C908 0.959 . S
H897 C911 0.929 . S
H898 C912 0.931 . S
H899 C914 0.930 . S
C900 H888 0.930 . S
C900 C901 1.399 . S
C900 C905 1.399 . S
C901 C900 1.399 . S
C901 C902 1.376 . S
C902 H889 0.930 . S
C902 C901 1.376 . S
C902 C903 1.388 . S
C903 H890 0.930 . S
C903 C902 1.388 . S
C903 C904 1.390 . S
C904 C903 1.390 . S
C904 C905 1.394 . S
C904 C910 1.465 . S
C905 C900 1.399 . S
C905 C904 1.394 . S
C905 C906 1.516 1_455 S
C906 C905 1.516 1_655 S
C906 C907 1.502 . S
C906 C908 1.561 1_655 S
C906 C909 1.526 . S
C907 H891 0.959 . S
C907 H892 0.959 . S
C907 H893 0.961 . S
C907 C906 1.502 . S
C908 H894 0.960 . S
C908 H895 0.961 . S
C908 H896 0.959 . S
C908 C906 1.561 1_455 S
C909 C906 1.526 . S
C909 C910 1.396 1_655 S
C909 C914 1.390 . S
C910 C904 1.465 . S
C910 C909 1.396 1_455 S
C910 C911 1.399 . S
C911 H897 0.929 . S
C911 C910 1.399 . S
C911 C912 1.385 1_455 S
C912 H898 0.931 . S
C912 C911 1.385 1_655 S
C912 C913 1.389 . S
C913 C912 1.389 . S
C913 C914 1.387 . S
C914 H899 0.930 . S
C914 C909 1.390 . S
C914 C913 1.387 . S
H915 C927 0.930 . S
H916 C929 0.930 . S
H917 C930 0.930 . S
H918 C934 0.959 . S
H919 C934 0.959 . S
H920 C934 0.961 . S
H921 C935 0.960 . S
H922 C935 0.961 . S
H923 C935 0.959 . S
H924 C938 0.929 . S
H925 C939 0.931 . S
H926 C941 0.930 . S
C927 H915 0.930 . S
C927 C928 1.399 . S
C927 C932 1.399 . S
C928 C927 1.399 . S
C928 C929 1.376 1_545 S
C929 H916 0.930 . S
C929 C928 1.376 1_565 S
C929 C930 1.388 . S
C930 H917 0.930 . S
C930 C929 1.388 . S
C930 C931 1.390 . S
C931 C930 1.390 . S
C931 C932 1.394 1_565 S
C931 C937 1.465 . S
C932 C927 1.399 . S
C932 C931 1.394 1_545 S
C932 C933 1.516 . S
C933 C932 1.516 . S
C933 C934 1.502 . S
C933 C935 1.561 . S
C933 C936 1.526 . S
C934 H918 0.959 . S
C934 H919 0.959 . S
C934 H920 0.961 . S
C934 C933 1.502 . S
C935 H921 0.960 . S
C935 H922 0.961 . S
C935 H923 0.959 . S
C935 C933 1.561 . S
C936 C933 1.526 . S
C936 C937 1.396 1_545 S
C936 C941 1.390 . S
C937 C931 1.465 . S
C937 C936 1.396 1_565 S
C937 C938 1.399 . S
C938 H924 0.929 . S
C938 C937 1.399 . S
C938 C939 1.385 . S
C939 H925 0.931 . S
C939 C938 1.385 . S
C939 C940 1.389 . S
C940 C939 1.389 . S
C940 C941 1.387 1_565 S
C941 H926 0.930 . S
C941 C936 1.390 . S
C941 C940 1.387 1_545 S
H942 C954 0.930 . S
H943 C956 0.930 . S
H944 C957 0.930 . S
H945 C961 0.959 . S
H946 C961 0.959 . S
H947 C961 0.961 . S
H948 C962 0.960 . S
H949 C962 0.961 . S
H950 C962 0.959 . S
H951 C965 0.929 . S
H952 C966 0.931 . S
H953 C968 0.930 . S
C954 H942 0.930 . S
C954 C955 1.399 . S
C954 C959 1.399 . S
C955 C954 1.399 . S
C955 C956 1.376 . S
C956 H943 0.930 . S
C956 C955 1.376 . S
C956 C957 1.388 . S
C957 H944 0.930 . S
C957 C956 1.388 . S
C957 C958 1.390 . S
C958 C957 1.390 . S
C958 C959 1.394 . S
C958 C964 1.465 . S
C959 C954 1.399 . S
C959 C958 1.394 . S
C959 C960 1.516 . S
C960 C959 1.516 . S
C960 C961 1.502 . S
C960 C962 1.561 . S
C960 C963 1.526 . S
C961 H945 0.959 . S
C961 H946 0.959 . S
C961 H947 0.961 . S
C961 C960 1.502 . S
C962 H948 0.960 . S
C962 H949 0.961 . S
C962 H950 0.959 . S
C962 C960 1.561 . S
C963 C960 1.526 . S
C963 C964 1.396 . S
C963 C968 1.390 . S
C964 C958 1.465 . S
C964 C963 1.396 . S
C964 C965 1.399 . S
C965 H951 0.929 . S
C965 C964 1.399 . S
C965 C966 1.385 . S
C966 H952 0.931 . S
C966 C965 1.385 . S
C966 C967 1.389 . S
C967 C966 1.389 . S
C967 C968 1.387 . S
C968 H953 0.930 . S
C968 C963 1.390 . S
C968 C967 1.387 . S
H969 C981 0.930 . S
H970 C983 0.930 . S
H971 C984 0.930 . S
H972 C988 0.959 . S
H973 C988 0.959 . S
H974 C988 0.961 . S
H975 C989 0.960 . S
H976 C989 0.961 . S
H977 C989 0.959 . S
H978 C992 0.929 1_556 S
H979 C993 0.931 . S
H980 C995 0.930 . S
C981 H969 0.930 . S
C981 C982 1.399 . S
C981 C986 1.399 . S
C982 C981 1.399 . S
C982 C983 1.376 . S
C983 H970 0.930 . S
C983 C982 1.376 . S
C983 C984 1.388 . S
C984 H971 0.930 . S
C984 C983 1.388 . S
C984 C985 1.390 . S
C985 C984 1.390 . S
C985 C986 1.394 . S
C985 C991 1.464 . S
C986 C981 1.399 . S
C986 C985 1.394 . S
C986 C987 1.508 1_556 S
C987 C986 1.508 1_554 S
C987 C988 1.528 . S
C987 C989 1.535 1_554 S
C987 C990 1.532 . S
C988 H972 0.959 . S
C988 H973 0.959 . S
C988 H974 0.961 . S
C988 C987 1.528 . S
C989 H975 0.960 . S
C989 H976 0.961 . S
C989 H977 0.959 . S
C989 C987 1.535 1_556 S
C990 C987 1.532 . S
C990 C991 1.397 1_554 S
C990 C995 1.390 . S
C991 C985 1.464 . S
C991 C990 1.397 1_556 S
C991 C992 1.399 1_556 S
C992 H978 0.929 1_554 S
C992 C991 1.399 1_554 S
C992 C993 1.385 . S
C993 H979 0.931 . S
C993 C992 1.385 . S
C993 C994 1.389 . S
C994 C993 1.389 . S
C994 C995 1.387 . S
C995 H980 0.930 . S
C995 C990 1.390 . S
C995 C994 1.387 . S
H996 C1008 0.930 . S
H997 C1010 0.930 . S
H998 C1011 0.930 . S
H999 C1015 0.959 . S
H1000 C1015 0.959 . S
H1001 C1015 0.961 . S
H1002 C1016 0.960 . S
H1003 C1016 0.961 . S
H1004 C1016 0.959 . S
H1005 C1019 0.929 . S
H1006 C1020 0.931 . S
H1007 C1022 0.930 . S
C1008 H996 0.930 . S
C1008 C1009 1.399 . S
C1008 C1013 1.399 . S
C1009 C1008 1.399 . S
C1009 C1010 1.376 . S
C1010 H997 0.930 . S
C1010 C1009 1.376 . S
C1010 C1011 1.388 . S
C1011 H998 0.930 . S
C1011 C1010 1.388 . S
C1011 C1012 1.390 . S
C1012 C1011 1.390 . S
C1012 C1013 1.394 . S
C1012 C1018 1.465 . S
C1013 C1008 1.399 . S
C1013 C1012 1.394 . S
C1013 C1014 1.516 . S
C1014 C1013 1.516 . S
C1014 C1015 1.502 . S
C1014 C1016 1.561 . S
C1014 C1017 1.526 . S
C1015 H999 0.959 . S
C1015 H1000 0.959 . S
C1015 H1001 0.961 . S
C1015 C1014 1.502 . S
C1016 H1002 0.960 . S
C1016 H1003 0.961 . S
C1016 H1004 0.959 . S
C1016 C1014 1.561 . S
C1017 C1014 1.526 . S
C1017 C1018 1.396 . S
C1017 C1022 1.390 . S
C1018 C1012 1.465 . S
C1018 C1017 1.396 . S
C1018 C1019 1.399 . S
C1019 H1005 0.929 . S
C1019 C1018 1.399 . S
C1019 C1020 1.385 . S
C1020 H1006 0.931 . S
C1020 C1019 1.385 . S
C1020 C1021 1.389 . S
C1021 C1020 1.389 . S
C1021 C1022 1.387 . S
C1022 H1007 0.930 . S
C1022 C1017 1.390 . S
C1022 C1021 1.387 . S
H1023 C1035 0.930 . S
H1024 C1037 0.930 . S
H1025 C1038 0.930 . S
H1026 C1042 0.959 . S
H1027 C1042 0.959 . S
H1028 C1042 0.961 . S
H1029 C1043 0.960 . S
H1030 C1043 0.961 . S
H1031 C1043 0.959 . S
H1032 C1046 0.929 . S
H1033 C1047 0.931 . S
H1034 C1049 0.930 . S
C1035 H1023 0.930 . S
C1035 C1036 1.399 . S
C1035 C1040 1.399 . S
C1036 C1035 1.399 . S
C1036 C1037 1.376 . S
C1037 H1024 0.930 . S
C1037 C1036 1.376 . S
C1037 C1038 1.388 . S
C1038 H1025 0.930 . S
C1038 C1037 1.388 . S
C1038 C1039 1.390 . S
C1039 C1038 1.390 . S
C1039 C1040 1.394 . S
C1039 C1045 1.465 . S
C1040 C1035 1.399 . S
C1040 C1039 1.394 . S
C1040 C1041 1.516 . S
C1041 C1040 1.516 . S
C1041 C1042 1.502 . S
C1041 C1043 1.561 . S
C1041 C1044 1.526 . S
C1042 H1026 0.959 . S
C1042 H1027 0.959 . S
C1042 H1028 0.961 . S
C1042 C1041 1.502 . S
C1043 H1029 0.960 . S
C1043 H1030 0.961 . S
C1043 H1031 0.959 . S
C1043 C1041 1.561 . S
C1044 C1041 1.526 . S
C1044 C1045 1.396 . S
C1044 C1049 1.390 . S
C1045 C1039 1.465 . S
C1045 C1044 1.396 . S
C1045 C1046 1.399 . S
C1046 H1032 0.929 . S
C1046 C1045 1.399 . S
C1046 C1047 1.385 . S
C1047 H1033 0.931 . S
C1047 C1046 1.385 . S
C1047 C1048 1.389 . S
C1048 C1047 1.389 . S
C1048 C1049 1.387 . S
C1049 H1034 0.930 . S
C1049 C1044 1.390 . S
C1049 C1048 1.387 . S
H1050 C1062 0.930 . S
H1051 C1064 0.930 . S
H1052 C1065 0.930 . S
H1053 C1069 0.959 . S
H1054 C1069 0.959 . S
H1055 C1069 0.961 . S
H1056 C1070 0.960 . S
H1057 C1070 0.961 . S
H1058 C1070 0.959 . S
H1059 C1073 0.929 . S
H1060 C1074 0.931 . S
H1061 C1076 0.930 . S
C1062 H1050 0.930 . S
C1062 C1063 1.399 . S
C1062 C1067 1.399 . S
C1063 C1062 1.399 . S
C1063 C1064 1.376 . S
C1064 H1051 0.930 . S
C1064 C1063 1.376 . S
C1064 C1065 1.388 . S
C1065 H1052 0.930 . S
C1065 C1064 1.388 . S
C1065 C1066 1.390 . S
C1066 C1065 1.390 . S
C1066 C1067 1.394 . S
C1066 C1072 1.465 . S
C1067 C1062 1.399 . S
C1067 C1066 1.394 . S
C1067 C1068 1.516 . S
C1068 C1067 1.516 . S
C1068 C1069 1.502 . S
C1068 C1070 1.561 . S
C1068 C1071 1.526 . S
C1069 H1053 0.959 . S
C1069 H1054 0.959 . S
C1069 H1055 0.961 . S
C1069 C1068 1.502 . S
C1070 H1056 0.960 . S
C1070 H1057 0.961 . S
C1070 H1058 0.959 . S
C1070 C1068 1.561 . S
C1071 C1068 1.526 . S
C1071 C1072 1.396 . S
C1071 C1076 1.390 . S
C1072 C1066 1.465 . S
C1072 C1071 1.396 . S
C1072 C1073 1.399 . S
C1073 H1059 0.929 . S
C1073 C1072 1.399 . S
C1073 C1074 1.385 . S
C1074 H1060 0.931 . S
C1074 C1073 1.385 . S
C1074 C1075 1.389 . S
C1075 C1074 1.389 . S
C1075 C1076 1.387 . S
C1076 H1061 0.930 . S
C1076 C1071 1.390 . S
C1076 C1075 1.387 . S
H1077 C1089 0.930 . S
H1078 C1091 0.930 . S
H1079 C1092 0.930 . S
H1080 C1096 0.959 . S
H1081 C1096 0.959 . S
H1082 C1096 0.961 . S
H1083 C1097 0.960 . S
H1084 C1097 0.961 . S
H1085 C1097 0.959 . S
H1086 C1100 0.929 . S
H1087 C1101 0.931 . S
H1088 C1103 0.930 . S
C1089 H1077 0.930 . S
C1089 C1090 1.399 . S
C1089 C1094 1.399 . S
C1090 C1089 1.399 . S
C1090 C1091 1.376 . S
C1091 H1078 0.930 . S
C1091 C1090 1.376 . S
C1091 C1092 1.388 . S
C1092 H1079 0.930 . S
C1092 C1091 1.388 . S
C1092 C1093 1.390 . S
C1093 C1092 1.390 . S
C1093 C1094 1.394 . S
C1093 C1099 1.465 . S
C1094 C1089 1.399 . S
C1094 C1093 1.394 . S
C1094 C1095 1.516 . S
C1095 C1094 1.516 . S
C1095 C1096 1.502 . S
C1095 C1097 1.561 . S
C1095 C1098 1.526 . S
C1096 H1080 0.959 . S
C1096 H1081 0.959 . S
C1096 H1082 0.961 . S
C1096 C1095 1.502 . S
C1097 H1083 0.960 . S
C1097 H1084 0.961 . S
C1097 H1085 0.959 . S
C1097 C1095 1.561 . S
C1098 C1095 1.526 . S
C1098 C1099 1.396 . S
C1098 C1103 1.390 . S
C1099 C1093 1.465 . S
C1099 C1098 1.396 . S
C1099 C1100 1.399 . S
C1100 H1086 0.929 . S
C1100 C1099 1.399 . S
C1100 C1101 1.385 . S
C1101 H1087 0.931 . S
C1101 C1100 1.385 . S
C1101 C1102 1.389 . S
C1102 C1101 1.389 . S
C1102 C1103 1.387 . S
C1103 H1088 0.930 . S
C1103 C1098 1.390 . S
C1103 C1102 1.387 . S
H1104 C1116 0.930 . S
H1105 C1118 0.930 . S
H1106 C1119 0.930 . S
H1107 C1123 0.959 . S
H1108 C1123 0.959 . S
H1109 C1123 0.961 . S
H1110 C1124 0.960 . S
H1111 C1124 0.961 . S
H1112 C1124 0.959 . S
H1113 C1127 0.929 . S
H1114 C1128 0.931 . S
H1115 C1130 0.930 . S
C1116 H1104 0.930 . S
C1116 C1117 1.399 . S
C1116 C1121 1.399 . S
C1117 C1116 1.399 . S
C1117 C1118 1.376 . S
C1118 H1105 0.930 . S
C1118 C1117 1.376 . S
C1118 C1119 1.388 . S
C1119 H1106 0.930 . S
C1119 C1118 1.388 . S
C1119 C1120 1.390 . S
C1120 C1119 1.390 . S
C1120 C1121 1.394 . S
C1120 C1126 1.465 . S
C1121 C1116 1.399 . S
C1121 C1120 1.394 . S
C1121 C1122 1.516 . S
C1122 C1121 1.516 . S
C1122 C1123 1.502 . S
C1122 C1124 1.561 . S
C1122 C1125 1.526 . S
C1123 H1107 0.959 . S
C1123 H1108 0.959 . S
C1123 H1109 0.961 . S
C1123 C1122 1.502 . S
C1124 H1110 0.960 . S
C1124 H1111 0.961 . S
C1124 H1112 0.959 . S
C1124 C1122 1.561 . S
C1125 C1122 1.526 . S
C1125 C1126 1.396 . S
C1125 C1130 1.390 . S
C1126 C1120 1.465 . S
C1126 C1125 1.396 . S
C1126 C1127 1.399 . S
C1127 H1113 0.929 . S
C1127 C1126 1.399 . S
C1127 C1128 1.385 . S
C1128 H1114 0.931 . S
C1128 C1127 1.385 . S
C1128 C1129 1.389 . S
C1129 C1128 1.389 . S
C1129 C1130 1.387 . S
C1130 H1115 0.930 . S
C1130 C1125 1.390 . S
C1130 C1129 1.387 . S
H1131 C1143 0.935 . S
H1132 C1145 0.930 . S
H1133 C1146 0.930 . S
H1134 C1150 0.959 1_545 S
H1135 C1150 0.959 . S
H1136 C1150 0.961 . S
H1137 C1151 0.960 . S
H1138 C1151 0.961 . S
H1139 C1151 0.959 . S
H1140 C1154 0.929 . S
H1141 C1155 0.931 . S
H1142 C1157 0.930 . S
C1143 H1131 0.935 . S
C1143 C1144 1.399 . S
C1143 C1148 1.391 1_545 S
C1144 C1143 1.399 . S
C1144 C1145 1.376 . S
C1145 H1132 0.930 . S
C1145 C1144 1.376 . S
C1145 C1146 1.388 . S
C1146 H1133 0.930 . S
C1146 C1145 1.388 . S
C1146 C1147 1.390 . S
C1147 C1146 1.390 . S
C1147 C1148 1.383 1_545 S
C1147 C1153 1.461 1_545 S
C1148 C1143 1.391 1_565 S
C1148 C1147 1.383 1_565 S
C1148 C1149 1.537 . S
C1149 C1148 1.537 . S
C1149 C1150 1.502 . S
C1149 C1151 1.561 . S
C1149 C1152 1.526 . S
C1150 H1134 0.959 1_565 S
C1150 H1135 0.959 . S
C1150 H1136 0.961 . S
C1150 C1149 1.502 . S
C1151 H1137 0.960 . S
C1151 H1138 0.961 . S
C1151 H1139 0.959 . S
C1151 C1149 1.561 . S
C1152 C1149 1.526 . S
C1152 C1153 1.403 . S
C1152 C1157 1.390 . S
C1153 C1147 1.461 1_565 S
C1153 C1152 1.403 . S
C1153 C1154 1.397 1_565 S
C1154 H1140 0.929 . S
C1154 C1153 1.397 1_545 S
C1154 C1155 1.385 1_545 S
C1155 H1141 0.931 . S
C1155 C1154 1.385 1_565 S
C1155 C1156 1.389 . S
C1156 C1155 1.389 . S
C1156 C1157 1.387 . S
C1157 H1142 0.930 . S
C1157 C1152 1.390 . S
C1157 C1156 1.387 . S
H1158 C1170 0.930 1_556 S
H1159 C1172 0.930 . S
H1160 C1173 0.930 . S
H1161 C1177 0.959 . S
H1162 C1177 0.959 . S
H1163 C1177 0.961 . S
H1164 C1178 0.960 . S
H1165 C1178 0.961 . S
H1166 C1178 0.959 1_554 S
H1167 C1181 0.929 . S
H1168 C1182 0.931 . S
H1169 C1184 0.930 . S
C1170 H1158 0.930 1_554 S
C1170 C1171 1.399 . S
C1170 C1175 1.399 1_554 S
C1171 C1170 1.399 . S
C1171 C1172 1.376 . S
C1172 H1159 0.930 . S
C1172 C1171 1.376 . S
C1172 C1173 1.388 . S
C1173 H1160 0.930 . S
C1173 C1172 1.388 . S
C1173 C1174 1.390 . S
C1174 C1173 1.390 . S
C1174 C1175 1.394 1_554 S
C1174 C1180 1.465 . S
C1175 C1170 1.399 1_556 S
C1175 C1174 1.394 1_556 S
C1175 C1176 1.516 . S
C1176 C1175 1.516 . S
C1176 C1177 1.502 . S
C1176 C1178 1.561 . S
C1176 C1179 1.526 . S
C1177 H1161 0.959 . S
C1177 H1162 0.959 . S
C1177 H1163 0.961 . S
C1177 C1176 1.502 . S
C1178 H1164 0.960 . S
C1178 H1165 0.961 . S
C1178 H1166 0.959 1_556 S
C1178 C1176 1.561 . S
C1179 C1176 1.526 . S
C1179 C1180 1.396 1_556 S
C1179 C1184 1.390 . S
C1180 C1174 1.465 . S
C1180 C1179 1.396 1_554 S
C1180 C1181 1.399 . S
C1181 H1167 0.929 . S
C1181 C1180 1.399 . S
C1181 C1182 1.385 . S
C1182 H1168 0.931 . S
C1182 C1181 1.385 . S
C1182 C1183 1.389 1_554 S
C1183 C1182 1.389 1_556 S
C1183 C1184 1.387 . S
C1184 H1169 0.930 . S
C1184 C1179 1.390 . S
C1184 C1183 1.387 . S
H1185 C1197 0.930 . S
H1186 C1199 0.930 . S
H1187 C1200 0.930 . S
H1188 C1204 0.959 . S
H1189 C1204 0.959 . S
H1190 C1204 0.961 . S
H1191 C1205 0.960 . S
H1192 C1205 0.961 . S
H1193 C1205 0.959 . S
H1194 C1208 0.929 . S
H1195 C1209 0.931 . S
H1196 C1211 0.930 . S
C1197 H1185 0.930 . S
C1197 C1198 1.399 . S
C1197 C1202 1.399 . S
C1198 C1197 1.399 . S
C1198 C1199 1.376 . S
C1199 H1186 0.930 . S
C1199 C1198 1.376 . S
C1199 C1200 1.388 . S
C1200 H1187 0.930 . S
C1200 C1199 1.388 . S
C1200 C1201 1.390 . S
C1201 C1200 1.390 . S
C1201 C1202 1.394 . S
C1201 C1207 1.465 . S
C1202 C1197 1.399 . S
C1202 C1201 1.394 . S
C1202 C1203 1.516 . S
C1203 C1202 1.516 . S
C1203 C1204 1.502 . S
C1203 C1205 1.561 . S
C1203 C1206 1.526 . S
C1204 H1188 0.959 . S
C1204 H1189 0.959 . S
C1204 H1190 0.961 . S
C1204 C1203 1.502 . S
C1205 H1191 0.960 . S
C1205 H1192 0.961 . S
C1205 H1193 0.959 . S
C1205 C1203 1.561 . S
C1206 C1203 1.526 . S
C1206 C1207 1.396 . S
C1206 C1211 1.390 . S
C1207 C1201 1.465 . S
C1207 C1206 1.396 . S
C1207 C1208 1.399 . S
C1208 H1194 0.929 . S
C1208 C1207 1.399 . S
C1208 C1209 1.385 . S
C1209 H1195 0.931 . S
C1209 C1208 1.385 . S
C1209 C1210 1.389 . S
C1210 C1209 1.389 . S
C1210 C1211 1.387 . S
C1211 H1196 0.930 . S
C1211 C1206 1.390 . S
C1211 C1210 1.387 . S
H1212 C1224 0.930 . S
H1213 C1226 0.930 . S
H1214 C1227 0.930 . S
H1215 C1231 0.959 . S
H1216 C1231 0.959 . S
H1217 C1231 0.961 . S
H1218 C1232 0.960 . S
H1219 C1232 0.961 . S
H1220 C1232 0.959 . S
H1221 C1235 0.929 . S
H1222 C1236 0.931 . S
H1223 C1238 0.930 . S
C1224 H1212 0.930 . S
C1224 C1225 1.399 . S
C1224 C1229 1.399 . S
C1225 C1224 1.399 . S
C1225 C1226 1.376 . S
C1226 H1213 0.930 . S
C1226 C1225 1.376 . S
C1226 C1227 1.388 . S
C1227 H1214 0.930 . S
C1227 C1226 1.388 . S
C1227 C1228 1.390 . S
C1228 C1227 1.390 . S
C1228 C1229 1.394 . S
C1228 C1234 1.465 . S
C1229 C1224 1.399 . S
C1229 C1228 1.394 . S
C1229 C1230 1.516 . S
C1230 C1229 1.516 . S
C1230 C1231 1.502 . S
C1230 C1232 1.561 . S
C1230 C1233 1.526 . S
C1231 H1215 0.959 . S
C1231 H1216 0.959 . S
C1231 H1217 0.961 . S
C1231 C1230 1.502 . S
C1232 H1218 0.960 . S
C1232 H1219 0.961 . S
C1232 H1220 0.959 . S
C1232 C1230 1.561 . S
C1233 C1230 1.526 . S
C1233 C1234 1.396 . S
C1233 C1238 1.390 . S
C1234 C1228 1.465 . S
C1234 C1233 1.396 . S
C1234 C1235 1.399 . S
C1235 H1221 0.929 . S
C1235 C1234 1.399 . S
C1235 C1236 1.385 . S
C1236 H1222 0.931 . S
C1236 C1235 1.385 . S
C1236 C1237 1.389 . S
C1237 C1236 1.389 . S
C1237 C1238 1.387 . S
C1238 H1223 0.930 . S
C1238 C1233 1.390 . S
C1238 C1237 1.387 . S
H1239 C1251 0.930 . S
H1240 C1253 0.930 . S
H1241 C1254 0.930 . S
H1242 C1258 0.959 . S
H1243 C1258 0.959 . S
H1244 C1258 0.961 . S
H1245 C1259 0.960 . S
H1246 C1259 0.961 . S
H1247 C1259 0.959 . S
H1248 C1262 0.929 . S
H1249 C1263 0.931 . S
H1250 C1265 0.930 . S
C1251 H1239 0.930 . S
C1251 C1252 1.399 . S
C1251 C1256 1.399 . S
C1252 C1251 1.399 . S
C1252 C1253 1.376 . S
C1253 H1240 0.930 . S
C1253 C1252 1.376 . S
C1253 C1254 1.388 . S
C1254 H1241 0.930 . S
C1254 C1253 1.388 . S
C1254 C1255 1.390 . S
C1255 C1254 1.390 . S
C1255 C1256 1.394 . S
C1255 C1261 1.465 . S
C1256 C1251 1.399 . S
C1256 C1255 1.394 . S
C1256 C1257 1.516 . S
C1257 C1256 1.516 . S
C1257 C1258 1.502 . S
C1257 C1259 1.561 . S
C1257 C1260 1.526 . S
C1258 H1242 0.959 . S
C1258 H1243 0.959 . S
C1258 H1244 0.961 . S
C1258 C1257 1.502 . S
C1259 H1245 0.960 . S
C1259 H1246 0.961 . S
C1259 H1247 0.959 . S
C1259 C1257 1.561 . S
C1260 C1257 1.526 . S
C1260 C1261 1.396 . S
C1260 C1265 1.390 . S
C1261 C1255 1.465 . S
C1261 C1260 1.396 . S
C1261 C1262 1.399 . S
C1262 H1248 0.929 . S
C1262 C1261 1.399 . S
C1262 C1263 1.385 . S
C1263 H1249 0.931 . S
C1263 C1262 1.385 . S
C1263 C1264 1.389 . S
C1264 C1263 1.389 . S
C1264 C1265 1.387 . S
C1265 H1250 0.930 . S
C1265 C1260 1.390 . S
C1265 C1264 1.387 . S
H1266 C1278 0.930 . S
H1267 C1280 0.930 . S
H1268 C1281 0.930 . S
H1269 C1285 0.959 1_565 S
H1270 C1285 0.959 . S
H1271 C1285 0.961 . S
H1272 C1286 0.960 . S
H1273 C1286 0.961 . S
H1274 C1286 0.959 . S
H1275 C1289 0.929 . S
H1276 C1290 0.931 . S
H1277 C1292 0.930 1_545 S
C1278 H1266 0.930 . S
C1278 C1279 1.399 . S
C1278 C1283 1.399 . S
C1279 C1278 1.399 . S
C1279 C1280 1.376 . S
C1280 H1267 0.930 . S
C1280 C1279 1.376 . S
C1280 C1281 1.388 1_545 S
C1281 H1268 0.930 . S
C1281 C1280 1.388 1_565 S
C1281 C1282 1.398 . S
C1282 C1281 1.398 . S
C1282 C1283 1.373 1_565 S
C1282 C1288 1.476 . S
C1283 C1278 1.399 . S
C1283 C1282 1.373 1_545 S
C1283 C1284 1.516 . S
C1284 C1283 1.516 . S
C1284 C1285 1.502 . S
C1284 C1286 1.561 . S
C1284 C1287 1.526 . S
C1285 H1269 0.959 1_545 S
C1285 H1270 0.959 . S
C1285 H1271 0.961 . S
C1285 C1284 1.502 . S
C1286 H1272 0.960 . S
C1286 H1273 0.961 . S
C1286 H1274 0.959 . S
C1286 C1284 1.561 . S
C1287 C1284 1.526 . S
C1287 C1288 1.396 1_545 S
C1287 C1292 1.390 1_545 S
C1288 C1282 1.476 . S
C1288 C1287 1.396 1_565 S
C1288 C1289 1.399 . S
C1289 H1275 0.929 . S
C1289 C1288 1.399 . S
C1289 C1290 1.385 . S
C1290 H1276 0.931 . S
C1290 C1289 1.385 . S
C1290 C1291 1.389 . S
C1291 C1290 1.389 . S
C1291 C1292 1.387 . S
C1292 H1277 0.930 1_565 S
C1292 C1287 1.390 1_565 S
C1292 C1291 1.387 . S
H1293 C1305 0.930 . S
H1294 C1307 0.930 . S
H1295 C1308 0.930 . S
H1296 C1312 0.959 . S
H1297 C1312 0.959 1_556 S
H1298 C1312 0.961 . S
H1299 C1313 0.960 . S
H1300 C1313 0.961 . S
H1301 C1313 0.959 . S
H1302 C1316 0.929 1_554 S
H1303 C1317 0.931 . S
H1304 C1319 0.930 . S
C1305 H1293 0.930 . S
C1305 C1306 1.399 . S
C1305 C1310 1.412 . S
C1306 C1305 1.399 . S
C1306 C1307 1.376 . S
C1307 H1294 0.930 . S
C1307 C1306 1.376 . S
C1307 C1308 1.388 . S
C1308 H1295 0.930 . S
C1308 C1307 1.388 . S
C1308 C1309 1.390 . S
C1309 C1308 1.390 . S
C1309 C1310 1.401 . S
C1309 C1315 1.465 1_554 S
C1310 C1305 1.412 . S
C1310 C1309 1.401 . S
C1310 C1311 1.497 1_554 S
C1311 C1310 1.497 1_556 S
C1311 C1312 1.502 1_556 S
C1311 C1313 1.561 . S
C1311 C1314 1.526 . S
C1312 H1296 0.959 . S
C1312 H1297 0.959 1_554 S
C1312 H1298 0.961 . S
C1312 C1311 1.502 1_554 S
C1313 H1299 0.960 . S
C1313 H1300 0.961 . S
C1313 H1301 0.959 . S
C1313 C1311 1.561 . S
C1314 C1311 1.526 . S
C1314 C1315 1.396 . S
C1314 C1319 1.390 . S
C1315 C1309 1.465 1_556 S
C1315 C1314 1.396 . S
C1315 C1316 1.399 . S
C1316 H1302 0.929 1_556 S
C1316 C1315 1.399 . S
C1316 C1317 1.385 . S
C1317 H1303 0.931 . S
C1317 C1316 1.385 . S
C1317 C1318 1.389 . S
C1318 C1317 1.389 . S
C1318 C1319 1.387 . S
C1319 H1304 0.930 . S
C1319 C1314 1.390 . S
C1319 C1318 1.387 . S
H1320 C1332 0.930 . S
H1321 C1334 0.930 . S
H1322 C1335 0.930 . S
H1323 C1339 0.959 . S
H1324 C1339 0.959 . S
H1325 C1339 0.961 . S
H1326 C1340 0.960 . S
H1327 C1340 0.961 . S
H1328 C1340 0.959 . S
H1329 C1343 0.929 . S
H1330 C1344 0.931 . S
H1331 C1346 0.930 . S
C1332 H1320 0.930 . S
C1332 C1333 1.399 . S
C1332 C1337 1.399 . S
C1333 C1332 1.399 . S
C1333 C1334 1.376 . S
C1334 H1321 0.930 . S
C1334 C1333 1.376 . S
C1334 C1335 1.388 . S
C1335 H1322 0.930 . S
C1335 C1334 1.388 . S
C1335 C1336 1.390 . S
C1336 C1335 1.390 . S
C1336 C1337 1.394 . S
C1336 C1342 1.465 . S
C1337 C1332 1.399 . S
C1337 C1336 1.394 . S
C1337 C1338 1.516 . S
C1338 C1337 1.516 . S
C1338 C1339 1.502 . S
C1338 C1340 1.561 . S
C1338 C1341 1.526 . S
C1339 H1323 0.959 . S
C1339 H1324 0.959 . S
C1339 H1325 0.961 . S
C1339 C1338 1.502 . S
C1340 H1326 0.960 . S
C1340 H1327 0.961 . S
C1340 H1328 0.959 . S
C1340 C1338 1.561 . S
C1341 C1338 1.526 . S
C1341 C1342 1.396 . S
C1341 C1346 1.390 . S
C1342 C1336 1.465 . S
C1342 C1341 1.396 . S
C1342 C1343 1.399 . S
C1343 H1329 0.929 . S
C1343 C1342 1.399 . S
C1343 C1344 1.385 . S
C1344 H1330 0.931 . S
C1344 C1343 1.385 . S
C1344 C1345 1.389 . S
C1345 C1344 1.389 . S
C1345 C1346 1.387 . S
C1346 H1331 0.930 . S
C1346 C1341 1.390 . S
C1346 C1345 1.387 . S
H1347 C1359 0.930 . S
H1348 C1361 0.930 . S
H1349 C1362 0.930 . S
H1350 C1366 0.959 . S
H1351 C1366 0.959 . S
H1352 C1366 0.961 . S
H1353 C1367 0.960 . S
H1354 C1367 0.961 . S
H1355 C1367 0.959 . S
H1356 C1370 0.929 . S
H1357 C1371 0.931 . S
H1358 C1373 0.930 . S
C1359 H1347 0.930 . S
C1359 C1360 1.399 . S
C1359 C1364 1.399 . S
C1360 C1359 1.399 . S
C1360 C1361 1.376 . S
C1361 H1348 0.930 . S
C1361 C1360 1.376 . S
C1361 C1362 1.388 . S
C1362 H1349 0.930 . S
C1362 C1361 1.388 . S
C1362 C1363 1.390 . S
C1363 C1362 1.390 . S
C1363 C1364 1.394 . S
C1363 C1369 1.465 . S
C1364 C1359 1.399 . S
C1364 C1363 1.394 . S
C1364 C1365 1.516 . S
C1365 C1364 1.516 . S
C1365 C1366 1.502 . S
C1365 C1367 1.561 . S
C1365 C1368 1.526 . S
C1366 H1350 0.959 . S
C1366 H1351 0.959 . S
C1366 H1352 0.961 . S
C1366 C1365 1.502 . S
C1367 H1353 0.960 . S
C1367 H1354 0.961 . S
C1367 H1355 0.959 . S
C1367 C1365 1.561 . S
C1368 C1365 1.526 . S
C1368 C1369 1.396 . S
C1368 C1373 1.390 . S
C1369 C1363 1.465 . S
C1369 C1368 1.396 . S
C1369 C1370 1.399 . S
C1370 H1356 0.929 . S
C1370 C1369 1.399 . S
C1370 C1371 1.385 . S
C1371 H1357 0.931 . S
C1371 C1370 1.385 . S
C1371 C1372 1.389 . S
C1372 C1371 1.389 . S
C1372 C1373 1.387 . S
C1373 H1358 0.930 . S
C1373 C1368 1.390 . S
C1373 C1372 1.387 . S
H1374 C1386 0.930 . S
H1375 C1388 0.930 . S
H1376 C1389 0.930 . S
H1377 C1393 0.959 . S
H1378 C1393 0.959 . S
H1379 C1393 0.961 . S
H1380 C1394 0.960 . S
H1381 C1394 0.961 . S
H1382 C1394 0.959 . S
H1383 C1397 0.929 . S
H1384 C1398 0.931 . S
H1385 C1400 0.930 . S
C1386 H1374 0.930 . S
C1386 C1387 1.399 . S
C1386 C1391 1.399 . S
C1387 C1386 1.399 . S
C1387 C1388 1.376 . S
C1388 H1375 0.930 . S
C1388 C1387 1.376 . S
C1388 C1389 1.388 . S
C1389 H1376 0.930 . S
C1389 C1388 1.388 . S
C1389 C1390 1.390 . S
C1390 C1389 1.390 . S
C1390 C1391 1.394 . S
C1390 C1396 1.465 . S
C1391 C1386 1.399 . S
C1391 C1390 1.394 . S
C1391 C1392 1.516 . S
C1392 C1391 1.516 . S
C1392 C1393 1.502 . S
C1392 C1394 1.561 . S
C1392 C1395 1.526 . S
C1393 H1377 0.959 . S
C1393 H1378 0.959 . S
C1393 H1379 0.961 . S
C1393 C1392 1.502 . S
C1394 H1380 0.960 . S
C1394 H1381 0.961 . S
C1394 H1382 0.959 . S
C1394 C1392 1.561 . S
C1395 C1392 1.526 . S
C1395 C1396 1.396 . S
C1395 C1400 1.390 . S
C1396 C1390 1.465 . S
C1396 C1395 1.396 . S
C1396 C1397 1.399 . S
C1397 H1383 0.929 . S
C1397 C1396 1.399 . S
C1397 C1398 1.385 . S
C1398 H1384 0.931 . S
C1398 C1397 1.385 . S
C1398 C1399 1.389 . S
C1399 C1398 1.389 . S
C1399 C1400 1.387 . S
C1400 H1385 0.930 . S
C1400 C1395 1.390 . S
C1400 C1399 1.387 . S
H1401 C1413 0.930 . S
H1402 C1415 0.930 . S
H1403 C1416 0.930 . S
H1404 C1420 0.959 . S
H1405 C1420 0.959 . S
H1406 C1420 0.961 . S
H1407 C1421 0.960 . S
H1408 C1421 0.961 . S
H1409 C1421 0.959 . S
H1410 C1424 0.929 . S
H1411 C1425 0.931 . S
H1412 C1427 0.930 . S
C1413 H1401 0.930 . S
C1413 C1414 1.399 . S
C1413 C1418 1.399 . S
C1414 C1413 1.399 . S
C1414 C1415 1.376 . S
C1415 H1402 0.930 . S
C1415 C1414 1.376 . S
C1415 C1416 1.388 . S
C1416 H1403 0.930 . S
C1416 C1415 1.388 . S
C1416 C1417 1.390 . S
C1417 C1416 1.390 . S
C1417 C1418 1.394 . S
C1417 C1423 1.465 . S
C1418 C1413 1.399 . S
C1418 C1417 1.394 . S
C1418 C1419 1.516 . S
C1419 C1418 1.516 . S
C1419 C1420 1.502 . S
C1419 C1421 1.561 . S
C1419 C1422 1.526 . S
C1420 H1404 0.959 . S
C1420 H1405 0.959 . S
C1420 H1406 0.961 . S
C1420 C1419 1.502 . S
C1421 H1407 0.960 . S
C1421 H1408 0.961 . S
C1421 H1409 0.959 . S
C1421 C1419 1.561 . S
C1422 C1419 1.526 . S
C1422 C1423 1.396 . S
C1422 C1427 1.390 . S
C1423 C1417 1.465 . S
C1423 C1422 1.396 . S
C1423 C1424 1.399 . S
C1424 H1410 0.929 . S
C1424 C1423 1.399 . S
C1424 C1425 1.385 . S
C1425 H1411 0.931 . S
C1425 C1424 1.385 . S
C1425 C1426 1.389 . S
C1426 C1425 1.389 . S
C1426 C1427 1.387 . S
C1427 H1412 0.930 . S
C1427 C1422 1.390 . S
C1427 C1426 1.387 . S
H1428 C1440 0.930 . S
H1429 C1442 0.930 . S
H1430 C1443 0.930 . S
H1431 C1447 0.959 . S
H1432 C1447 0.959 . S
H1433 C1447 0.961 . S
H1434 C1448 0.960 . S
H1435 C1448 0.961 . S
H1436 C1448 0.959 . S
H1437 C1451 0.929 . S
H1438 C1452 0.931 . S
H1439 C1454 0.930 . S
C1440 H1428 0.930 . S
C1440 C1441 1.399 . S
C1440 C1445 1.399 . S
C1441 C1440 1.399 . S
C1441 C1442 1.376 . S
C1442 H1429 0.930 . S
C1442 C1441 1.376 . S
C1442 C1443 1.388 . S
C1443 H1430 0.930 . S
C1443 C1442 1.388 . S
C1443 C1444 1.390 . S
C1444 C1443 1.390 . S
C1444 C1445 1.394 . S
C1444 C1450 1.465 . S
C1445 C1440 1.399 . S
C1445 C1444 1.394 . S
C1445 C1446 1.516 . S
C1446 C1445 1.516 . S
C1446 C1447 1.502 . S
C1446 C1448 1.561 . S
C1446 C1449 1.526 . S
C1447 H1431 0.959 . S
C1447 H1432 0.959 . S
C1447 H1433 0.961 . S
C1447 C1446 1.502 . S
C1448 H1434 0.960 . S
C1448 H1435 0.961 . S
C1448 H1436 0.959 . S
C1448 C1446 1.561 . S
C1449 C1446 1.526 . S
C1449 C1450 1.396 . S
C1449 C1454 1.390 . S
C1450 C1444 1.465 . S
C1450 C1449 1.396 . S
C1450 C1451 1.399 . S
C1451 H1437 0.929 . S
C1451 C1450 1.399 . S
C1451 C1452 1.385 . S
C1452 H1438 0.931 . S
C1452 C1451 1.385 . S
C1452 C1453 1.389 . S
C1453 C1452 1.389 . S
C1453 C1454 1.387 . S
C1454 H1439 0.930 . S
C1454 C1449 1.390 . S
C1454 C1453 1.387 . S
H1455 C1467 0.930 . S
H1456 C1469 0.930 . S
H1457 C1470 0.930 . S
H1458 C1474 0.959 . S
H1459 C1474 0.959 . S
H1460 C1474 0.961 . S
H1461 C1475 0.960 . S
H1462 C1475 0.961 . S
H1463 C1475 0.959 . S
H1464 C1478 0.929 . S
H1465 C1479 0.931 . S
H1466 C1481 0.930 . S
C1467 H1455 0.930 . S
C1467 C1468 1.399 . S
C1467 C1472 1.399 . S
C1468 C1467 1.399 . S
C1468 C1469 1.376 . S
C1469 H1456 0.930 . S
C1469 C1468 1.376 . S
C1469 C1470 1.388 . S
C1470 H1457 0.930 . S
C1470 C1469 1.388 . S
C1470 C1471 1.390 . S
C1471 C1470 1.390 . S
C1471 C1472 1.394 . S
C1471 C1477 1.465 . S
C1472 C1467 1.399 . S
C1472 C1471 1.394 . S
C1472 C1473 1.516 . S
C1473 C1472 1.516 . S
C1473 C1474 1.502 . S
C1473 C1475 1.561 . S
C1473 C1476 1.526 . S
C1474 H1458 0.959 . S
C1474 H1459 0.959 . S
C1474 H1460 0.961 . S
C1474 C1473 1.502 . S
C1475 H1461 0.960 . S
C1475 H1462 0.961 . S
C1475 H1463 0.959 . S
C1475 C1473 1.561 . S
C1476 C1473 1.526 . S
C1476 C1477 1.396 . S
C1476 C1481 1.390 . S
C1477 C1471 1.465 . S
C1477 C1476 1.396 . S
C1477 C1478 1.399 . S
C1478 H1464 0.929 . S
C1478 C1477 1.399 . S
C1478 C1479 1.385 . S
C1479 H1465 0.931 . S
C1479 C1478 1.385 . S
C1479 C1480 1.389 . S
C1480 C1479 1.389 . S
C1480 C1481 1.387 . S
C1481 H1466 0.930 . S
C1481 C1476 1.390 . S
C1481 C1480 1.387 . S
H1482 C1494 0.930 . S
H1483 C1496 0.930 . S
H1484 C1497 0.930 . S
H1485 C1501 0.959 . S
H1486 C1501 0.959 . S
H1487 C1501 0.961 . S
H1488 C1502 0.960 . S
H1489 C1502 0.961 . S
H1490 C1502 0.959 . S
H1491 C1505 0.929 . S
H1492 C1506 0.931 . S
H1493 C1508 0.930 . S
C1494 H1482 0.930 . S
C1494 C1495 1.399 . S
C1494 C1499 1.399 . S
C1495 C1494 1.399 . S
C1495 C1496 1.376 . S
C1496 H1483 0.930 . S
C1496 C1495 1.376 . S
C1496 C1497 1.388 . S
C1497 H1484 0.930 . S
C1497 C1496 1.388 . S
C1497 C1498 1.390 . S
C1498 C1497 1.390 . S
C1498 C1499 1.394 . S
C1498 C1504 1.465 . S
C1499 C1494 1.399 . S
C1499 C1498 1.394 . S
C1499 C1500 1.516 . S
C1500 C1499 1.516 . S
C1500 C1501 1.502 . S
C1500 C1502 1.561 . S
C1500 C1503 1.526 . S
C1501 H1485 0.959 . S
C1501 H1486 0.959 . S
C1501 H1487 0.961 . S
C1501 C1500 1.502 . S
C1502 H1488 0.960 . S
C1502 H1489 0.961 . S
C1502 H1490 0.959 . S
C1502 C1500 1.561 . S
C1503 C1500 1.526 . S
C1503 C1504 1.396 . S
C1503 C1508 1.390 . S
C1504 C1498 1.465 . S
C1504 C1503 1.396 . S
C1504 C1505 1.399 . S
C1505 H1491 0.929 . S
C1505 C1504 1.399 . S
C1505 C1506 1.385 . S
C1506 H1492 0.931 . S
C1506 C1505 1.385 . S
C1506 C1507 1.389 . S
C1507 C1506 1.389 . S
C1507 C1508 1.387 . S
C1508 H1493 0.930 . S
C1508 C1503 1.390 . S
C1508 C1507 1.387 . S
H1509 C1521 0.930 . S
H1510 C1523 0.930 . S
H1511 C1524 0.930 . S
H1512 C1528 0.959 . S
H1513 C1528 0.959 . S
H1514 C1528 0.961 . S
H1515 C1529 0.960 . S
H1516 C1529 0.961 . S
H1517 C1529 0.959 . S
H1518 C1532 0.929 . S
H1519 C1533 0.931 . S
H1520 C1535 0.930 . S
C1521 H1509 0.930 . S
C1521 C1522 1.399 . S
C1521 C1526 1.399 . S
C1522 C1521 1.399 . S
C1522 C1523 1.376 . S
C1523 H1510 0.930 . S
C1523 C1522 1.376 . S
C1523 C1524 1.388 . S
C1524 H1511 0.930 . S
C1524 C1523 1.388 . S
C1524 C1525 1.390 . S
C1525 C1524 1.390 . S
C1525 C1526 1.394 . S
C1525 C1531 1.465 . S
C1526 C1521 1.399 . S
C1526 C1525 1.394 . S
C1526 C1527 1.516 . S
C1527 C1526 1.516 . S
C1527 C1528 1.502 . S
C1527 C1529 1.561 . S
C1527 C1530 1.526 . S
C1528 H1512 0.959 . S
C1528 H1513 0.959 . S
C1528 H1514 0.961 . S
C1528 C1527 1.502 . S
C1529 H1515 0.960 . S
C1529 H1516 0.961 . S
C1529 H1517 0.959 . S
C1529 C1527 1.561 . S
C1530 C1527 1.526 . S
C1530 C1531 1.396 . S
C1530 C1535 1.390 . S
C1531 C1525 1.465 . S
C1531 C1530 1.396 . S
C1531 C1532 1.399 . S
C1532 H1518 0.929 . S
C1532 C1531 1.399 . S
C1532 C1533 1.385 . S
C1533 H1519 0.931 . S
C1533 C1532 1.385 . S
C1533 C1534 1.389 . S
C1534 C1533 1.389 . S
C1534 C1535 1.387 . S
C1535 H1520 0.930 . S
C1535 C1530 1.390 . S
C1535 C1534 1.387 . S
H1536 C1548 0.930 . S
H1537 C1550 0.930 . S
H1538 C1551 0.930 . S
H1539 C1555 0.959 . S
H1540 C1555 0.959 . S
H1541 C1555 0.961 . S
H1542 C1556 0.960 . S
H1543 C1556 0.961 . S
H1544 C1556 0.959 . S
H1545 C1559 0.929 . S
H1546 C1560 0.931 . S
H1547 C1562 0.930 . S
C1548 H1536 0.930 . S
C1548 C1549 1.399 . S
C1548 C1553 1.399 . S
C1549 C1548 1.399 . S
C1549 C1550 1.376 . S
C1550 H1537 0.930 . S
C1550 C1549 1.376 . S
C1550 C1551 1.388 . S
C1551 H1538 0.930 . S
C1551 C1550 1.388 . S
C1551 C1552 1.390 . S
C1552 C1551 1.390 . S
C1552 C1553 1.394 . S
C1552 C1558 1.465 . S
C1553 C1548 1.399 . S
C1553 C1552 1.394 . S
C1553 C1554 1.516 . S
C1554 C1553 1.516 . S
C1554 C1555 1.502 . S
C1554 C1556 1.561 . S
C1554 C1557 1.526 . S
C1555 H1539 0.959 . S
C1555 H1540 0.959 . S
C1555 H1541 0.961 . S
C1555 C1554 1.502 . S
C1556 H1542 0.960 . S
C1556 H1543 0.961 . S
C1556 H1544 0.959 . S
C1556 C1554 1.561 . S
C1557 C1554 1.526 . S
C1557 C1558 1.396 . S
C1557 C1562 1.390 . S
C1558 C1552 1.465 . S
C1558 C1557 1.396 . S
C1558 C1559 1.399 . S
C1559 H1545 0.929 . S
C1559 C1558 1.399 . S
C1559 C1560 1.385 . S
C1560 H1546 0.931 . S
C1560 C1559 1.385 . S
C1560 C1561 1.389 . S
C1561 C1560 1.389 . S
C1561 C1562 1.387 . S
C1562 H1547 0.930 . S
C1562 C1557 1.390 . S
C1562 C1561 1.387 . S
H1563 C1575 0.930 . S
H1564 C1577 0.930 . S
H1565 C1578 0.930 . S
H1566 C1582 0.959 . S
H1567 C1582 0.959 . S
H1568 C1582 0.961 . S
H1569 C1583 0.960 . S
H1570 C1583 0.961 . S
H1571 C1583 0.959 . S
H1572 C1586 0.929 . S
H1573 C1587 0.931 . S
H1574 C1589 0.930 . S
C1575 H1563 0.930 . S
C1575 C1576 1.399 . S
C1575 C1580 1.399 . S
C1576 C1575 1.399 . S
C1576 C1577 1.376 . S
C1577 H1564 0.930 . S
C1577 C1576 1.376 . S
C1577 C1578 1.388 . S
C1578 H1565 0.930 . S
C1578 C1577 1.388 . S
C1578 C1579 1.390 . S
C1579 C1578 1.390 . S
C1579 C1580 1.394 . S
C1579 C1585 1.465 . S
C1580 C1575 1.399 . S
C1580 C1579 1.394 . S
C1580 C1581 1.516 . S
C1581 C1580 1.516 . S
C1581 C1582 1.502 . S
C1581 C1583 1.561 . S
C1581 C1584 1.526 . S
C1582 H1566 0.959 . S
C1582 H1567 0.959 . S
C1582 H1568 0.961 . S
C1582 C1581 1.502 . S
C1583 H1569 0.960 . S
C1583 H1570 0.961 . S
C1583 H1571 0.959 . S
C1583 C1581 1.561 . S
C1584 C1581 1.526 . S
C1584 C1585 1.396 . S
C1584 C1589 1.390 . S
C1585 C1579 1.465 . S
C1585 C1584 1.396 . S
C1585 C1586 1.399 . S
C1586 H1572 0.929 . S
C1586 C1585 1.399 . S
C1586 C1587 1.385 . S
C1587 H1573 0.931 . S
C1587 C1586 1.385 . S
C1587 C1588 1.389 . S
C1588 C1587 1.389 . S
C1588 C1589 1.387 . S
C1589 H1574 0.930 . S
C1589 C1584 1.390 . S
C1589 C1588 1.387 . S
H1590 C1602 0.930 . S
H1591 C1604 0.930 . S
H1592 C1605 0.930 . S
H1593 C1609 0.959 . S
H1594 C1609 0.959 . S
H1595 C1609 0.961 . S
H1596 C1610 0.960 . S
H1597 C1610 0.961 . S
H1598 C1610 0.959 . S
H1599 C1613 0.929 . S
H1600 C1614 0.931 . S
H1601 C1616 0.930 . S
C1602 H1590 0.930 . S
C1602 C1603 1.399 . S
C1602 C1607 1.399 . S
C1603 C1602 1.399 . S
C1603 C1604 1.376 . S
C1604 H1591 0.930 . S
C1604 C1603 1.376 . S
C1604 C1605 1.388 . S
C1605 H1592 0.930 . S
C1605 C1604 1.388 . S
C1605 C1606 1.390 . S
C1606 C1605 1.390 . S
C1606 C1607 1.394 . S
C1606 C1612 1.465 . S
C1607 C1602 1.399 . S
C1607 C1606 1.394 . S
C1607 C1608 1.516 . S
C1608 C1607 1.516 . S
C1608 C1609 1.502 . S
C1608 C1610 1.561 . S
C1608 C1611 1.526 . S
C1609 H1593 0.959 . S
C1609 H1594 0.959 . S
C1609 H1595 0.961 . S
C1609 C1608 1.502 . S
C1610 H1596 0.960 . S
C1610 H1597 0.961 . S
C1610 H1598 0.959 . S
C1610 C1608 1.561 . S
C1611 C1608 1.526 . S
C1611 C1612 1.396 . S
C1611 C1616 1.390 . S
C1612 C1606 1.465 . S
C1612 C1611 1.396 . S
C1612 C1613 1.399 . S
C1613 H1599 0.929 . S
C1613 C1612 1.399 . S
C1613 C1614 1.385 . S
C1614 H1600 0.931 . S
C1614 C1613 1.385 . S
C1614 C1615 1.389 . S
C1615 C1614 1.389 . S
C1615 C1616 1.387 . S
C1616 H1601 0.930 . S
C1616 C1611 1.390 . S
C1616 C1615 1.387 . S
H1617 C1629 0.930 . S
H1618 C1631 0.930 . S
H1619 C1632 0.930 . S
H1620 C1636 0.959 . S
H1621 C1636 0.959 . S
H1622 C1636 0.961 . S
H1623 C1637 0.960 . S
H1624 C1637 0.961 . S
H1625 C1637 0.959 . S
H1626 C1640 0.929 . S
H1627 C1641 0.931 . S
H1628 C1643 0.930 . S
C1629 H1617 0.930 . S
C1629 C1630 1.399 . S
C1629 C1634 1.399 . S
C1630 C1629 1.399 . S
C1630 C1631 1.376 . S
C1631 H1618 0.930 . S
C1631 C1630 1.376 . S
C1631 C1632 1.388 . S
C1632 H1619 0.930 . S
C1632 C1631 1.388 . S
C1632 C1633 1.390 . S
C1633 C1632 1.390 . S
C1633 C1634 1.394 . S
C1633 C1639 1.465 . S
C1634 C1629 1.399 . S
C1634 C1633 1.394 . S
C1634 C1635 1.516 . S
C1635 C1634 1.516 . S
C1635 C1636 1.502 . S
C1635 C1637 1.561 . S
C1635 C1638 1.526 . S
C1636 H1620 0.959 . S
C1636 H1621 0.959 . S
C1636 H1622 0.961 . S
C1636 C1635 1.502 . S
C1637 H1623 0.960 . S
C1637 H1624 0.961 . S
C1637 H1625 0.959 . S
C1637 C1635 1.561 . S
C1638 C1635 1.526 . S
C1638 C1639 1.396 . S
C1638 C1643 1.390 . S
C1639 C1633 1.465 . S
C1639 C1638 1.396 . S
C1639 C1640 1.399 . S
C1640 H1626 0.929 . S
C1640 C1639 1.399 . S
C1640 C1641 1.385 . S
C1641 H1627 0.931 . S
C1641 C1640 1.385 . S
C1641 C1642 1.389 . S
C1642 C1641 1.389 . S
C1642 C1643 1.387 . S
C1643 H1628 0.930 . S
C1643 C1638 1.390 . S
C1643 C1642 1.387 . S
H1644 C1656 0.930 . S
H1645 C1658 0.930 . S
H1646 C1659 0.930 . S
H1647 C1663 0.959 . S
H1648 C1663 0.959 . S
H1649 C1663 0.961 . S
H1650 C1664 0.960 . S
H1651 C1664 0.961 . S
H1652 C1664 0.959 . S
H1653 C1667 0.929 . S
H1654 C1668 0.931 . S
H1655 C1670 0.930 . S
C1656 H1644 0.930 . S
C1656 C1657 1.399 . S
C1656 C1661 1.399 . S
C1657 C1656 1.399 . S
C1657 C1658 1.376 . S
C1658 H1645 0.930 . S
C1658 C1657 1.376 . S
C1658 C1659 1.388 . S
C1659 H1646 0.930 . S
C1659 C1658 1.388 . S
C1659 C1660 1.390 . S
C1660 C1659 1.390 . S
C1660 C1661 1.394 . S
C1660 C1666 1.465 . S
C1661 C1656 1.399 . S
C1661 C1660 1.394 . S
C1661 C1662 1.516 . S
C1662 C1661 1.516 . S
C1662 C1663 1.502 . S
C1662 C1664 1.561 . S
C1662 C1665 1.526 . S
C1663 H1647 0.959 . S
C1663 H1648 0.959 . S
C1663 H1649 0.961 . S
C1663 C1662 1.502 . S
C1664 H1650 0.960 . S
C1664 H1651 0.961 . S
C1664 H1652 0.959 . S
C1664 C1662 1.561 . S
C1665 C1662 1.526 . S
C1665 C1666 1.396 . S
C1665 C1670 1.390 . S
C1666 C1660 1.465 . S
C1666 C1665 1.396 . S
C1666 C1667 1.399 . S
C1667 H1653 0.929 . S
C1667 C1666 1.399 . S
C1667 C1668 1.385 . S
C1668 H1654 0.931 . S
C1668 C1667 1.385 . S
C1668 C1669 1.389 . S
C1669 C1668 1.389 . S
C1669 C1670 1.387 . S
C1670 H1655 0.930 . S
C1670 C1665 1.390 . S
C1670 C1669 1.387 . S
H1671 C1683 0.930 . S
H1672 C1685 0.930 . S
H1673 C1686 0.930 . S
H1674 C1690 0.959 . S
H1675 C1690 0.959 . S
H1676 C1690 0.961 . S
H1677 C1691 0.960 . S
H1678 C1691 0.961 . S
H1679 C1691 0.959 . S
H1680 C1694 0.929 . S
H1681 C1695 0.931 . S
H1682 C1697 0.930 . S
C1683 H1671 0.930 . S
C1683 C1684 1.399 . S
C1683 C1688 1.399 . S
C1684 C1683 1.399 . S
C1684 C1685 1.376 . S
C1685 H1672 0.930 . S
C1685 C1684 1.376 . S
C1685 C1686 1.388 . S
C1686 H1673 0.930 . S
C1686 C1685 1.388 . S
C1686 C1687 1.390 . S
C1687 C1686 1.390 . S
C1687 C1688 1.394 . S
C1687 C1693 1.465 . S
C1688 C1683 1.399 . S
C1688 C1687 1.394 . S
C1688 C1689 1.516 . S
C1689 C1688 1.516 . S
C1689 C1690 1.502 . S
C1689 C1691 1.561 . S
C1689 C1692 1.526 . S
C1690 H1674 0.959 . S
C1690 H1675 0.959 . S
C1690 H1676 0.961 . S
C1690 C1689 1.502 . S
C1691 H1677 0.960 . S
C1691 H1678 0.961 . S
C1691 H1679 0.959 . S
C1691 C1689 1.561 . S
C1692 C1689 1.526 . S
C1692 C1693 1.396 . S
C1692 C1697 1.390 . S
C1693 C1687 1.465 . S
C1693 C1692 1.396 . S
C1693 C1694 1.399 . S
C1694 H1680 0.929 . S
C1694 C1693 1.399 . S
C1694 C1695 1.385 . S
C1695 H1681 0.931 . S
C1695 C1694 1.385 . S
C1695 C1696 1.389 . S
C1696 C1695 1.389 . S
C1696 C1697 1.387 . S
C1697 H1682 0.930 . S
C1697 C1692 1.390 . S
C1697 C1696 1.387 . S
H1698 C1710 0.930 . S
H1699 C1712 0.930 . S
H1700 C1713 0.930 . S
H1701 C1717 0.959 . S
H1702 C1717 0.959 . S
H1703 C1717 0.961 . S
H1704 C1718 0.960 . S
H1705 C1718 0.961 . S
H1706 C1718 0.959 . S
H1707 C1721 0.929 . S
H1708 C1722 0.931 . S
H1709 C1724 0.930 . S
C1710 H1698 0.930 . S
C1710 C1711 1.399 . S
C1710 C1715 1.399 . S
C1711 C1710 1.399 . S
C1711 C1712 1.376 . S
C1712 H1699 0.930 . S
C1712 C1711 1.376 . S
C1712 C1713 1.388 . S
C1713 H1700 0.930 . S
C1713 C1712 1.388 . S
C1713 C1714 1.390 . S
C1714 C1713 1.390 . S
C1714 C1715 1.394 . S
C1714 C1720 1.465 . S
C1715 C1710 1.399 . S
C1715 C1714 1.394 . S
C1715 C1716 1.516 . S
C1716 C1715 1.516 . S
C1716 C1717 1.502 . S
C1716 C1718 1.561 . S
C1716 C1719 1.526 . S
C1717 H1701 0.959 . S
C1717 H1702 0.959 . S
C1717 H1703 0.961 . S
C1717 C1716 1.502 . S
C1718 H1704 0.960 . S
C1718 H1705 0.961 . S
C1718 H1706 0.959 . S
C1718 C1716 1.561 . S
C1719 C1716 1.526 . S
C1719 C1720 1.396 . S
C1719 C1724 1.390 . S
C1720 C1714 1.465 . S
C1720 C1719 1.396 . S
C1720 C1721 1.399 . S
C1721 H1707 0.929 . S
C1721 C1720 1.399 . S
C1721 C1722 1.385 . S
C1722 H1708 0.931 . S
C1722 C1721 1.385 . S
C1722 C1723 1.389 . S
C1723 C1722 1.389 . S
C1723 C1724 1.387 . S
C1724 H1709 0.930 . S
C1724 C1719 1.390 . S
C1724 C1723 1.387 . S
H1725 C1737 0.930 . S
H1726 C1739 0.930 . S
H1727 C1740 0.930 . S
H1728 C1744 0.959 . S
H1729 C1744 0.959 . S
H1730 C1744 0.961 . S
H1731 C1745 0.960 . S
H1732 C1745 0.961 . S
H1733 C1745 0.959 . S
H1734 C1748 0.929 . S
H1735 C1749 0.931 . S
H1736 C1751 0.930 . S
C1737 H1725 0.930 . S
C1737 C1738 1.399 . S
C1737 C1742 1.399 . S
C1738 C1737 1.399 . S
C1738 C1739 1.376 . S
C1739 H1726 0.930 . S
C1739 C1738 1.376 . S
C1739 C1740 1.388 . S
C1740 H1727 0.930 . S
C1740 C1739 1.388 . S
C1740 C1741 1.390 . S
C1741 C1740 1.390 . S
C1741 C1742 1.394 . S
C1741 C1747 1.465 . S
C1742 C1737 1.399 . S
C1742 C1741 1.394 . S
C1742 C1743 1.516 . S
C1743 C1742 1.516 . S
C1743 C1744 1.502 . S
C1743 C1745 1.561 . S
C1743 C1746 1.526 . S
C1744 H1728 0.959 . S
C1744 H1729 0.959 . S
C1744 H1730 0.961 . S
C1744 C1743 1.502 . S
C1745 H1731 0.960 . S
C1745 H1732 0.961 . S
C1745 H1733 0.959 . S
C1745 C1743 1.561 . S
C1746 C1743 1.526 . S
C1746 C1747 1.396 . S
C1746 C1751 1.390 . S
C1747 C1741 1.465 . S
C1747 C1746 1.396 . S
C1747 C1748 1.399 . S
C1748 H1734 0.929 . S
C1748 C1747 1.399 . S
C1748 C1749 1.385 . S
C1749 H1735 0.931 . S
C1749 C1748 1.385 . S
C1749 C1750 1.389 . S
C1750 C1749 1.389 . S
C1750 C1751 1.387 . S
C1751 H1736 0.930 . S
C1751 C1746 1.390 . S
C1751 C1750 1.387 . S
H1752 C1764 0.930 . S
H1753 C1766 0.930 . S
H1754 C1767 0.930 . S
H1755 C1771 0.959 . S
H1756 C1771 0.959 . S
H1757 C1771 0.961 . S
H1758 C1772 0.960 . S
H1759 C1772 0.961 . S
H1760 C1772 0.959 . S
H1761 C1775 0.929 . S
H1762 C1776 0.931 . S
H1763 C1778 0.930 . S
C1764 H1752 0.930 . S
C1764 C1765 1.399 . S
C1764 C1769 1.399 . S
C1765 C1764 1.399 . S
C1765 C1766 1.376 . S
C1766 H1753 0.930 . S
C1766 C1765 1.376 . S
C1766 C1767 1.388 . S
C1767 H1754 0.930 . S
C1767 C1766 1.388 . S
C1767 C1768 1.390 . S
C1768 C1767 1.390 . S
C1768 C1769 1.394 . S
C1768 C1774 1.465 . S
C1769 C1764 1.399 . S
C1769 C1768 1.394 . S
C1769 C1770 1.516 . S
C1770 C1769 1.516 . S
C1770 C1771 1.502 . S
C1770 C1772 1.561 . S
C1770 C1773 1.526 . S
C1771 H1755 0.959 . S
C1771 H1756 0.959 . S
C1771 H1757 0.961 . S
C1771 C1770 1.502 . S
C1772 H1758 0.960 . S
C1772 H1759 0.961 . S
C1772 H1760 0.959 . S
C1772 C1770 1.561 . S
C1773 C1770 1.526 . S
C1773 C1774 1.396 . S
C1773 C1778 1.390 . S
C1774 C1768 1.465 . S
C1774 C1773 1.396 . S
C1774 C1775 1.399 . S
C1775 H1761 0.929 . S
C1775 C1774 1.399 . S
C1775 C1776 1.385 . S
C1776 H1762 0.931 . S
C1776 C1775 1.385 . S
C1776 C1777 1.389 . S
C1777 C1776 1.389 . S
C1777 C1778 1.387 . S
C1778 H1763 0.930 . S
C1778 C1773 1.390 . S
C1778 C1777 1.387 . S
H1779 C1791 0.930 . S
H1780 C1793 0.930 . S
H1781 C1794 0.930 . S
H1782 C1798 0.959 . S
H1783 C1798 0.959 . S
H1784 C1798 0.961 . S
H1785 C1799 0.960 . S
H1786 C1799 0.961 . S
H1787 C1799 0.959 . S
H1788 C1802 0.929 . S
H1789 C1803 0.931 . S
H1790 C1805 0.930 . S
C1791 H1779 0.930 . S
C1791 C1792 1.399 . S
C1791 C1796 1.399 . S
C1792 C1791 1.399 . S
C1792 C1793 1.376 . S
C1793 H1780 0.930 . S
C1793 C1792 1.376 . S
C1793 C1794 1.388 . S
C1794 H1781 0.930 . S
C1794 C1793 1.388 . S
C1794 C1795 1.390 . S
C1795 C1794 1.390 . S
C1795 C1796 1.394 . S
C1795 C1801 1.465 . S
C1796 C1791 1.399 . S
C1796 C1795 1.394 . S
C1796 C1797 1.516 . S
C1797 C1796 1.516 . S
C1797 C1798 1.502 . S
C1797 C1799 1.561 . S
C1797 C1800 1.526 . S
C1798 H1782 0.959 . S
C1798 H1783 0.959 . S
C1798 H1784 0.961 . S
C1798 C1797 1.502 . S
C1799 H1785 0.960 . S
C1799 H1786 0.961 . S
C1799 H1787 0.959 . S
C1799 C1797 1.561 . S
C1800 C1797 1.526 . S
C1800 C1801 1.396 . S
C1800 C1805 1.390 . S
C1801 C1795 1.465 . S
C1801 C1800 1.396 . S
C1801 C1802 1.399 . S
C1802 H1788 0.929 . S
C1802 C1801 1.399 . S
C1802 C1803 1.385 . S
C1803 H1789 0.931 . S
C1803 C1802 1.385 . S
C1803 C1804 1.389 . S
C1804 C1803 1.389 . S
C1804 C1805 1.387 . S
C1805 H1790 0.930 . S
C1805 C1800 1.390 . S
C1805 C1804 1.387 . S
H1806 C1818 0.930 . S
H1807 C1820 0.930 . S
H1808 C1821 0.930 . S
H1809 C1825 0.959 . S
H1810 C1825 0.959 . S
H1811 C1825 0.961 . S
H1812 C1826 0.960 . S
H1813 C1826 0.961 . S
H1814 C1826 0.959 . S
H1815 C1829 0.929 . S
H1816 C1830 0.931 . S
H1817 C1832 0.930 . S
C1818 H1806 0.930 . S
C1818 C1819 1.399 . S
C1818 C1823 1.399 . S
C1819 C1818 1.399 . S
C1819 C1820 1.376 . S
C1820 H1807 0.930 . S
C1820 C1819 1.376 . S
C1820 C1821 1.388 . S
C1821 H1808 0.930 . S
C1821 C1820 1.388 . S
C1821 C1822 1.390 . S
C1822 C1821 1.390 . S
C1822 C1823 1.394 . S
C1822 C1828 1.465 . S
C1823 C1818 1.399 . S
C1823 C1822 1.394 . S
C1823 C1824 1.516 . S
C1824 C1823 1.516 . S
C1824 C1825 1.502 . S
C1824 C1826 1.561 . S
C1824 C1827 1.526 . S
C1825 H1809 0.959 . S
C1825 H1810 0.959 . S
C1825 H1811 0.961 . S
C1825 C1824 1.502 . S
C1826 H1812 0.960 . S
C1826 H1813 0.961 . S
C1826 H1814 0.959 . S
C1826 C1824 1.561 . S
C1827 C1824 1.526 . S
C1827 C1828 1.396 . S
C1827 C1832 1.390 . S
C1828 C1822 1.465 . S
C1828 C1827 1.396 . S
C1828 C1829 1.399 . S
C1829 H1815 0.929 . S
C1829 C1828 1.399 . S
C1829 C1830 1.385 . S
C1830 H1816 0.931 . S
C1830 C1829 1.385 . S
C1830 C1831 1.389 . S
C1831 C1830 1.389 . S
C1831 C1832 1.387 . S
C1832 H1817 0.930 . S
C1832 C1827 1.390 . S
C1832 C1831 1.387 . S
H1833 C1845 0.930 . S
H1834 C1847 0.930 . S
H1835 C1848 0.930 . S
H1836 C1852 0.959 . S
H1837 C1852 0.959 . S
H1838 C1852 0.961 . S
H1839 C1853 0.960 . S
H1840 C1853 0.961 . S
H1841 C1853 0.959 . S
H1842 C1856 0.929 . S
H1843 C1857 0.931 . S
H1844 C1859 0.930 . S
C1845 H1833 0.930 . S
C1845 C1846 1.399 . S
C1845 C1850 1.399 . S
C1846 C1845 1.399 . S
C1846 C1847 1.376 . S
C1847 H1834 0.930 . S
C1847 C1846 1.376 . S
C1847 C1848 1.388 . S
C1848 H1835 0.930 . S
C1848 C1847 1.388 . S
C1848 C1849 1.390 . S
C1849 C1848 1.390 . S
C1849 C1850 1.394 . S
C1849 C1855 1.465 . S
C1850 C1845 1.399 . S
C1850 C1849 1.394 . S
C1850 C1851 1.516 . S
C1851 C1850 1.516 . S
C1851 C1852 1.502 . S
C1851 C1853 1.561 . S
C1851 C1854 1.526 . S
C1852 H1836 0.959 . S
C1852 H1837 0.959 . S
C1852 H1838 0.961 . S
C1852 C1851 1.502 . S
C1853 H1839 0.960 . S
C1853 H1840 0.961 . S
C1853 H1841 0.959 . S
C1853 C1851 1.561 . S
C1854 C1851 1.526 . S
C1854 C1855 1.396 . S
C1854 C1859 1.390 . S
C1855 C1849 1.465 . S
C1855 C1854 1.396 . S
C1855 C1856 1.399 . S
C1856 H1842 0.929 . S
C1856 C1855 1.399 . S
C1856 C1857 1.385 . S
C1857 H1843 0.931 . S
C1857 C1856 1.385 . S
C1857 C1858 1.389 . S
C1858 C1857 1.389 . S
C1858 C1859 1.387 . S
C1859 H1844 0.930 . S
C1859 C1854 1.390 . S
C1859 C1858 1.387 . S
H1860 C1872 0.930 . S
H1861 C1874 0.930 . S
H1862 C1875 0.930 . S
H1863 C1879 0.959 . S
H1864 C1879 0.959 . S
H1865 C1879 0.961 . S
H1866 C1880 0.960 . S
H1867 C1880 0.961 . S
H1868 C1880 0.959 . S
H1869 C1883 0.929 . S
H1870 C1884 0.931 . S
H1871 C1886 0.930 . S
C1872 H1860 0.930 . S
C1872 C1873 1.399 . S
C1872 C1877 1.399 . S
C1873 C1872 1.399 . S
C1873 C1874 1.376 . S
C1874 H1861 0.930 . S
C1874 C1873 1.376 . S
C1874 C1875 1.388 . S
C1875 H1862 0.930 . S
C1875 C1874 1.388 . S
C1875 C1876 1.390 . S
C1876 C1875 1.390 . S
C1876 C1877 1.394 . S
C1876 C1882 1.465 . S
C1877 C1872 1.399 . S
C1877 C1876 1.394 . S
C1877 C1878 1.516 . S
C1878 C1877 1.516 . S
C1878 C1879 1.502 . S
C1878 C1880 1.561 . S
C1878 C1881 1.526 . S
C1879 H1863 0.959 . S
C1879 H1864 0.959 . S
C1879 H1865 0.961 . S
C1879 C1878 1.502 . S
C1880 H1866 0.960 . S
C1880 H1867 0.961 . S
C1880 H1868 0.959 . S
C1880 C1878 1.561 . S
C1881 C1878 1.526 . S
C1881 C1882 1.396 . S
C1881 C1886 1.390 . S
C1882 C1876 1.465 . S
C1882 C1881 1.396 . S
C1882 C1883 1.399 . S
C1883 H1869 0.929 . S
C1883 C1882 1.399 . S
C1883 C1884 1.385 . S
C1884 H1870 0.931 . S
C1884 C1883 1.385 . S
C1884 C1885 1.389 . S
C1885 C1884 1.389 . S
C1885 C1886 1.387 . S
C1886 H1871 0.930 . S
C1886 C1881 1.390 . S
C1886 C1885 1.387 . S
H1887 C1899 0.930 . S
H1888 C1901 0.930 . S
H1889 C1902 0.930 . S
H1890 C1906 0.959 . S
H1891 C1906 0.959 . S
H1892 C1906 0.961 . S
H1893 C1907 0.960 . S
H1894 C1907 0.961 . S
H1895 C1907 0.959 . S
H1896 C1910 0.929 . S
H1897 C1911 0.931 . S
H1898 C1913 0.930 . S
C1899 H1887 0.930 . S
C1899 C1900 1.399 . S
C1899 C1904 1.399 . S
C1900 C1899 1.399 . S
C1900 C1901 1.376 . S
C1901 H1888 0.930 . S
C1901 C1900 1.376 . S
C1901 C1902 1.388 . S
C1902 H1889 0.930 . S
C1902 C1901 1.388 . S
C1902 C1903 1.390 . S
C1903 C1902 1.390 . S
C1903 C1904 1.394 . S
C1903 C1909 1.465 . S
C1904 C1899 1.399 . S
C1904 C1903 1.394 . S
C1904 C1905 1.516 . S
C1905 C1904 1.516 . S
C1905 C1906 1.502 . S
C1905 C1907 1.561 . S
C1905 C1908 1.526 . S
C1906 H1890 0.959 . S
C1906 H1891 0.959 . S
C1906 H1892 0.961 . S
C1906 C1905 1.502 . S
C1907 H1893 0.960 . S
C1907 H1894 0.961 . S
C1907 H1895 0.959 . S
C1907 C1905 1.561 . S
C1908 C1905 1.526 . S
C1908 C1909 1.396 . S
C1908 C1913 1.390 . S
C1909 C1903 1.465 . S
C1909 C1908 1.396 . S
C1909 C1910 1.399 . S
C1910 H1896 0.929 . S
C1910 C1909 1.399 . S
C1910 C1911 1.385 . S
C1911 H1897 0.931 . S
C1911 C1910 1.385 . S
C1911 C1912 1.389 . S
C1912 C1911 1.389 . S
C1912 C1913 1.387 . S
C1913 H1898 0.930 . S
C1913 C1908 1.390 . S
C1913 C1912 1.387 . S
H1914 C1926 0.930 . S
H1915 C1928 0.930 . S
H1916 C1929 0.930 . S
H1917 C1933 0.959 . S
H1918 C1933 0.959 . S
H1919 C1933 0.961 . S
H1920 C1934 0.960 . S
H1921 C1934 0.961 . S
H1922 C1934 0.959 . S
H1923 C1937 0.929 . S
H1924 C1938 0.931 . S
H1925 C1940 0.930 . S
C1926 H1914 0.930 . S
C1926 C1927 1.399 . S
C1926 C1931 1.399 . S
C1927 C1926 1.399 . S
C1927 C1928 1.376 . S
C1928 H1915 0.930 . S
C1928 C1927 1.376 . S
C1928 C1929 1.388 . S
C1929 H1916 0.930 . S
C1929 C1928 1.388 . S
C1929 C1930 1.390 . S
C1930 C1929 1.390 . S
C1930 C1931 1.394 . S
C1930 C1936 1.465 . S
C1931 C1926 1.399 . S
C1931 C1930 1.394 . S
C1931 C1932 1.516 . S
C1932 C1931 1.516 . S
C1932 C1933 1.502 . S
C1932 C1934 1.561 . S
C1932 C1935 1.526 . S
C1933 H1917 0.959 . S
C1933 H1918 0.959 . S
C1933 H1919 0.961 . S
C1933 C1932 1.502 . S
C1934 H1920 0.960 . S
C1934 H1921 0.961 . S
C1934 H1922 0.959 . S
C1934 C1932 1.561 . S
C1935 C1932 1.526 . S
C1935 C1936 1.396 . S
C1935 C1940 1.390 . S
C1936 C1930 1.465 . S
C1936 C1935 1.396 . S
C1936 C1937 1.399 . S
C1937 H1923 0.929 . S
C1937 C1936 1.399 . S
C1937 C1938 1.385 . S
C1938 H1924 0.931 . S
C1938 C1937 1.385 . S
C1938 C1939 1.389 . S
C1939 C1938 1.389 . S
C1939 C1940 1.387 . S
C1940 H1925 0.930 . S
C1940 C1935 1.390 . S
C1940 C1939 1.387 . S
H1941 C1953 0.930 . S
H1942 C1955 0.930 . S
H1943 C1956 0.930 . S
H1944 C1960 0.959 . S
H1945 C1960 0.959 . S
H1946 C1960 0.961 . S
H1947 C1961 0.960 . S
H1948 C1961 0.961 . S
H1949 C1961 0.959 . S
H1950 C1964 0.929 . S
H1951 C1965 0.931 . S
H1952 C1967 0.930 . S
C1953 H1941 0.930 . S
C1953 C1954 1.399 . S
C1953 C1958 1.399 . S
C1954 C1953 1.399 . S
C1954 C1955 1.376 . S
C1955 H1942 0.930 . S
C1955 C1954 1.376 . S
C1955 C1956 1.388 . S
C1956 H1943 0.930 . S
C1956 C1955 1.388 . S
C1956 C1957 1.390 . S
C1957 C1956 1.390 . S
C1957 C1958 1.394 . S
C1957 C1963 1.465 . S
C1958 C1953 1.399 . S
C1958 C1957 1.394 . S
C1958 C1959 1.516 . S
C1959 C1958 1.516 . S
C1959 C1960 1.502 . S
C1959 C1961 1.561 . S
C1959 C1962 1.526 . S
C1960 H1944 0.959 . S
C1960 H1945 0.959 . S
C1960 H1946 0.961 . S
C1960 C1959 1.502 . S
C1961 H1947 0.960 . S
C1961 H1948 0.961 . S
C1961 H1949 0.959 . S
C1961 C1959 1.561 . S
C1962 C1959 1.526 . S
C1962 C1963 1.396 . S
C1962 C1967 1.390 . S
C1963 C1957 1.465 . S
C1963 C1962 1.396 . S
C1963 C1964 1.399 . S
C1964 H1950 0.929 . S
C1964 C1963 1.399 . S
C1964 C1965 1.385 . S
C1965 H1951 0.931 . S
C1965 C1964 1.385 . S
C1965 C1966 1.389 . S
C1966 C1965 1.389 . S
C1966 C1967 1.387 . S
C1967 H1952 0.930 . S
C1967 C1962 1.390 . S
C1967 C1966 1.387 . S
H1968 C1980 0.930 . S
H1969 C1982 0.930 . S
H1970 C1983 0.930 . S
H1971 C1987 0.959 . S
H1972 C1987 0.959 . S
H1973 C1987 0.961 . S
H1974 C1988 0.960 . S
H1975 C1988 0.961 . S
H1976 C1988 0.959 . S
H1977 C1991 0.929 . S
H1978 C1992 0.931 . S
H1979 C1994 0.930 . S
C1980 H1968 0.930 . S
C1980 C1981 1.399 . S
C1980 C1985 1.399 . S
C1981 C1980 1.399 . S
C1981 C1982 1.376 . S
C1982 H1969 0.930 . S
C1982 C1981 1.376 . S
C1982 C1983 1.388 . S
C1983 H1970 0.930 . S
C1983 C1982 1.388 . S
C1983 C1984 1.390 . S
C1984 C1983 1.390 . S
C1984 C1985 1.394 . S
C1984 C1990 1.465 . S
C1985 C1980 1.399 . S
C1985 C1984 1.394 . S
C1985 C1986 1.516 . S
C1986 C1985 1.516 . S
C1986 C1987 1.502 . S
C1986 C1988 1.561 . S
C1986 C1989 1.526 . S
C1987 H1971 0.959 . S
C1987 H1972 0.959 . S
C1987 H1973 0.961 . S
C1987 C1986 1.502 . S
C1988 H1974 0.960 . S
C1988 H1975 0.961 . S
C1988 H1976 0.959 . S
C1988 C1986 1.561 . S
C1989 C1986 1.526 . S
C1989 C1990 1.396 . S
C1989 C1994 1.390 . S
C1990 C1984 1.465 . S
C1990 C1989 1.396 . S
C1990 C1991 1.399 . S
C1991 H1977 0.929 . S
C1991 C1990 1.399 . S
C1991 C1992 1.385 . S
C1992 H1978 0.931 . S
C1992 C1991 1.385 . S
C1992 C1993 1.389 . S
C1993 C1992 1.389 . S
C1993 C1994 1.387 . S
C1994 H1979 0.930 . S
C1994 C1989 1.390 . S
C1994 C1993 1.387 . S
H1995 C2007 0.930 . S
H1996 C2009 0.930 . S
H1997 C2010 0.930 . S
H1998 C2014 0.959 . S
H1999 C2014 0.959 . S
H2000 C2014 0.961 . S
H2001 C2015 0.960 . S
H2002 C2015 0.961 . S
H2003 C2015 0.959 . S
H2004 C2018 0.929 . S
H2005 C2019 0.931 . S
H2006 C2021 0.930 . S
C2007 H1995 0.930 . S
C2007 C2008 1.399 . S
C2007 C2012 1.399 . S
C2008 C2007 1.399 . S
C2008 C2009 1.376 . S
C2009 H1996 0.930 . S
C2009 C2008 1.376 . S
C2009 C2010 1.388 . S
C2010 H1997 0.930 . S
C2010 C2009 1.388 . S
C2010 C2011 1.390 . S
C2011 C2010 1.390 . S
C2011 C2012 1.394 . S
C2011 C2017 1.465 . S
C2012 C2007 1.399 . S
C2012 C2011 1.394 . S
C2012 C2013 1.516 . S
C2013 C2012 1.516 . S
C2013 C2014 1.502 . S
C2013 C2015 1.561 . S
C2013 C2016 1.526 . S
C2014 H1998 0.959 . S
C2014 H1999 0.959 . S
C2014 H2000 0.961 . S
C2014 C2013 1.502 . S
C2015 H2001 0.960 . S
C2015 H2002 0.961 . S
C2015 H2003 0.959 . S
C2015 C2013 1.561 . S
C2016 C2013 1.526 . S
C2016 C2017 1.396 . S
C2016 C2021 1.390 . S
C2017 C2011 1.465 . S
C2017 C2016 1.396 . S
C2017 C2018 1.399 . S
C2018 H2004 0.929 . S
C2018 C2017 1.399 . S
C2018 C2019 1.385 . S
C2019 H2005 0.931 . S
C2019 C2018 1.385 . S
C2019 C2020 1.389 . S
C2020 C2019 1.389 . S
C2020 C2021 1.387 . S
C2021 H2006 0.930 . S
C2021 C2016 1.390 . S
C2021 C2020 1.387 . S
H2022 C2034 0.930 . S
H2023 C2036 0.930 . S
H2024 C2037 0.930 . S
H2025 C2041 0.959 . S
H2026 C2041 0.959 . S
H2027 C2041 0.961 . S
H2028 C2042 0.960 . S
H2029 C2042 0.961 . S
H2030 C2042 0.959 . S
H2031 C2045 0.929 . S
H2032 C2046 0.931 . S
H2033 C2048 0.930 . S
C2034 H2022 0.930 . S
C2034 C2035 1.399 . S
C2034 C2039 1.399 . S
C2035 C2034 1.399 . S
C2035 C2036 1.376 . S
C2036 H2023 0.930 . S
C2036 C2035 1.376 . S
C2036 C2037 1.388 . S
C2037 H2024 0.930 . S
C2037 C2036 1.388 . S
C2037 C2038 1.390 . S
C2038 C2037 1.390 . S
C2038 C2039 1.394 . S
C2038 C2044 1.465 . S
C2039 C2034 1.399 . S
C2039 C2038 1.394 . S
C2039 C2040 1.516 . S
C2040 C2039 1.516 . S
C2040 C2041 1.502 . S
C2040 C2042 1.561 . S
C2040 C2043 1.526 . S
C2041 H2025 0.959 . S
C2041 H2026 0.959 . S
C2041 H2027 0.961 . S
C2041 C2040 1.502 . S
C2042 H2028 0.960 . S
C2042 H2029 0.961 . S
C2042 H2030 0.959 . S
C2042 C2040 1.561 . S
C2043 C2040 1.526 . S
C2043 C2044 1.396 . S
C2043 C2048 1.390 . S
C2044 C2038 1.465 . S
C2044 C2043 1.396 . S
C2044 C2045 1.399 . S
C2045 H2031 0.929 . S
C2045 C2044 1.399 . S
C2045 C2046 1.385 . S
C2046 H2032 0.931 . S
C2046 C2045 1.385 . S
C2046 C2047 1.389 . S
C2047 C2046 1.389 . S
C2047 C2048 1.387 . S
C2048 H2033 0.930 . S
C2048 C2043 1.390 . S
C2048 C2047 1.387 . S
H2049 C2061 0.930 . S
H2050 C2063 0.930 . S
H2051 C2064 0.930 . S
H2052 C2068 0.959 . S
H2053 C2068 0.959 . S
H2054 C2068 0.961 . S
H2055 C2069 0.960 . S
H2056 C2069 0.961 . S
H2057 C2069 0.959 . S
H2058 C2072 0.929 . S
H2059 C2073 0.931 . S
H2060 C2075 0.930 . S
C2061 H2049 0.930 . S
C2061 C2062 1.399 . S
C2061 C2066 1.399 . S
C2062 C2061 1.399 . S
C2062 C2063 1.376 . S
C2063 H2050 0.930 . S
C2063 C2062 1.376 . S
C2063 C2064 1.388 . S
C2064 H2051 0.930 . S
C2064 C2063 1.388 . S
C2064 C2065 1.390 . S
C2065 C2064 1.390 . S
C2065 C2066 1.394 . S
C2065 C2071 1.465 . S
C2066 C2061 1.399 . S
C2066 C2065 1.394 . S
C2066 C2067 1.516 . S
C2067 C2066 1.516 . S
C2067 C2068 1.502 . S
C2067 C2069 1.561 . S
C2067 C2070 1.526 . S
C2068 H2052 0.959 . S
C2068 H2053 0.959 . S
C2068 H2054 0.961 . S
C2068 C2067 1.502 . S
C2069 H2055 0.960 . S
C2069 H2056 0.961 . S
C2069 H2057 0.959 . S
C2069 C2067 1.561 . S
C2070 C2067 1.526 . S
C2070 C2071 1.396 . S
C2070 C2075 1.390 . S
C2071 C2065 1.465 . S
C2071 C2070 1.396 . S
C2071 C2072 1.399 . S
C2072 H2058 0.929 . S
C2072 C2071 1.399 . S
C2072 C2073 1.385 . S
C2073 H2059 0.931 . S
C2073 C2072 1.385 . S
C2073 C2074 1.389 . S
C2074 C2073 1.389 . S
C2074 C2075 1.387 . S
C2075 H2060 0.930 . S
C2075 C2070 1.390 . S
C2075 C2074 1.387 . S
H2076 C2088 0.930 . S
H2077 C2090 0.930 . S
H2078 C2091 0.930 . S
H2079 C2095 0.959 . S
H2080 C2095 0.959 . S
H2081 C2095 0.961 . S
H2082 C2096 0.960 . S
H2083 C2096 0.961 . S
H2084 C2096 0.959 . S
H2085 C2099 0.929 . S
H2086 C2100 0.931 . S
H2087 C2102 0.930 . S
C2088 H2076 0.930 . S
C2088 C2089 1.399 . S
C2088 C2093 1.399 . S
C2089 C2088 1.399 . S
C2089 C2090 1.376 . S
C2090 H2077 0.930 . S
C2090 C2089 1.376 . S
C2090 C2091 1.388 . S
C2091 H2078 0.930 . S
C2091 C2090 1.388 . S
C2091 C2092 1.390 . S
C2092 C2091 1.390 . S
C2092 C2093 1.394 . S
C2092 C2098 1.465 . S
C2093 C2088 1.399 . S
C2093 C2092 1.394 . S
C2093 C2094 1.516 . S
C2094 C2093 1.516 . S
C2094 C2095 1.502 . S
C2094 C2096 1.561 . S
C2094 C2097 1.526 . S
C2095 H2079 0.959 . S
C2095 H2080 0.959 . S
C2095 H2081 0.961 . S
C2095 C2094 1.502 . S
C2096 H2082 0.960 . S
C2096 H2083 0.961 . S
C2096 H2084 0.959 . S
C2096 C2094 1.561 . S
C2097 C2094 1.526 . S
C2097 C2098 1.396 . S
C2097 C2102 1.390 . S
C2098 C2092 1.465 . S
C2098 C2097 1.396 . S
C2098 C2099 1.399 . S
C2099 H2085 0.929 . S
C2099 C2098 1.399 . S
C2099 C2100 1.385 . S
C2100 H2086 0.931 . S
C2100 C2099 1.385 . S
C2100 C2101 1.389 . S
C2101 C2100 1.389 . S
C2101 C2102 1.387 . S
C2102 H2087 0.930 . S
C2102 C2097 1.390 . S
C2102 C2101 1.387 . S
H2103 C2115 0.930 . S
H2104 C2117 0.930 . S
H2105 C2118 0.930 . S
H2106 C2122 0.959 . S
H2107 C2122 0.959 . S
H2108 C2122 0.961 . S
H2109 C2123 0.960 . S
H2110 C2123 0.961 . S
H2111 C2123 0.959 . S
H2112 C2126 0.929 . S
H2113 C2127 0.931 . S
H2114 C2129 0.930 . S
C2115 H2103 0.930 . S
C2115 C2116 1.399 . S
C2115 C2120 1.399 . S
C2116 C2115 1.399 . S
C2116 C2117 1.376 . S
C2117 H2104 0.930 . S
C2117 C2116 1.376 . S
C2117 C2118 1.388 . S
C2118 H2105 0.930 . S
C2118 C2117 1.388 . S
C2118 C2119 1.390 . S
C2119 C2118 1.390 . S
C2119 C2120 1.394 . S
C2119 C2125 1.465 . S
C2120 C2115 1.399 . S
C2120 C2119 1.394 . S
C2120 C2121 1.516 . S
C2121 C2120 1.516 . S
C2121 C2122 1.502 . S
C2121 C2123 1.561 . S
C2121 C2124 1.526 . S
C2122 H2106 0.959 . S
C2122 H2107 0.959 . S
C2122 H2108 0.961 . S
C2122 C2121 1.502 . S
C2123 H2109 0.960 . S
C2123 H2110 0.961 . S
C2123 H2111 0.959 . S
C2123 C2121 1.561 . S
C2124 C2121 1.526 . S
C2124 C2125 1.396 . S
C2124 C2129 1.390 . S
C2125 C2119 1.465 . S
C2125 C2124 1.396 . S
C2125 C2126 1.399 . S
C2126 H2112 0.929 . S
C2126 C2125 1.399 . S
C2126 C2127 1.385 . S
C2127 H2113 0.931 . S
C2127 C2126 1.385 . S
C2127 C2128 1.389 . S
C2128 C2127 1.389 . S
C2128 C2129 1.387 . S
C2129 H2114 0.930 . S
C2129 C2124 1.390 . S
C2129 C2128 1.387 . S
H2130 C2142 0.930 . S
H2131 C2144 0.930 . S
H2132 C2145 0.930 . S
H2133 C2149 0.959 . S
H2134 C2149 0.959 . S
H2135 C2149 0.961 . S
H2136 C2150 0.960 . S
H2137 C2150 0.961 . S
H2138 C2150 0.959 . S
H2139 C2153 0.929 . S
H2140 C2154 0.931 . S
H2141 C2156 0.930 . S
C2142 H2130 0.930 . S
C2142 C2143 1.399 . S
C2142 C2147 1.399 . S
C2143 C2142 1.399 . S
C2143 C2144 1.376 . S
C2144 H2131 0.930 . S
C2144 C2143 1.376 . S
C2144 C2145 1.388 . S
C2145 H2132 0.930 . S
C2145 C2144 1.388 . S
C2145 C2146 1.390 . S
C2146 C2145 1.390 . S
C2146 C2147 1.394 . S
C2146 C2152 1.465 . S
C2147 C2142 1.399 . S
C2147 C2146 1.394 . S
C2147 C2148 1.516 . S
C2148 C2147 1.516 . S
C2148 C2149 1.502 . S
C2148 C2150 1.561 . S
C2148 C2151 1.526 . S
C2149 H2133 0.959 . S
C2149 H2134 0.959 . S
C2149 H2135 0.961 . S
C2149 C2148 1.502 . S
C2150 H2136 0.960 . S
C2150 H2137 0.961 . S
C2150 H2138 0.959 . S
C2150 C2148 1.561 . S
C2151 C2148 1.526 . S
C2151 C2152 1.396 . S
C2151 C2156 1.390 . S
C2152 C2146 1.465 . S
C2152 C2151 1.396 . S
C2152 C2153 1.399 . S
C2153 H2139 0.929 . S
C2153 C2152 1.399 . S
C2153 C2154 1.385 . S
C2154 H2140 0.931 . S
C2154 C2153 1.385 . S
C2154 C2155 1.389 . S
C2155 C2154 1.389 . S
C2155 C2156 1.387 . S
C2156 H2141 0.930 . S
C2156 C2151 1.390 . S
C2156 C2155 1.387 . S
H2157 C2169 0.930 . S
H2158 C2171 0.930 . S
H2159 C2172 0.930 . S
H2160 C2176 0.959 . S
H2161 C2176 0.959 . S
H2162 C2176 0.961 . S
H2163 C2177 0.960 . S
H2164 C2177 0.961 . S
H2165 C2177 0.959 . S
H2166 C2180 0.929 . S
H2167 C2181 0.931 . S
H2168 C2183 0.930 . S
C2169 H2157 0.930 . S
C2169 C2170 1.399 . S
C2169 C2174 1.399 . S
C2170 C2169 1.399 . S
C2170 C2171 1.376 . S
C2171 H2158 0.930 . S
C2171 C2170 1.376 . S
C2171 C2172 1.388 . S
C2172 H2159 0.930 . S
C2172 C2171 1.388 . S
C2172 C2173 1.390 . S
C2173 C2172 1.390 . S
C2173 C2174 1.394 . S
C2173 C2179 1.465 . S
C2174 C2169 1.399 . S
C2174 C2173 1.394 . S
C2174 C2175 1.516 . S
C2175 C2174 1.516 . S
C2175 C2176 1.502 . S
C2175 C2177 1.561 . S
C2175 C2178 1.526 . S
C2176 H2160 0.959 . S
C2176 H2161 0.959 . S
C2176 H2162 0.961 . S
C2176 C2175 1.502 . S
C2177 H2163 0.960 . S
C2177 H2164 0.961 . S
C2177 H2165 0.959 . S
C2177 C2175 1.561 . S
C2178 C2175 1.526 . S
C2178 C2179 1.396 . S
C2178 C2183 1.390 . S
C2179 C2173 1.465 . S
C2179 C2178 1.396 . S
C2179 C2180 1.399 . S
C2180 H2166 0.929 . S
C2180 C2179 1.399 . S
C2180 C2181 1.385 . S
C2181 H2167 0.931 . S
C2181 C2180 1.385 . S
C2181 C2182 1.389 . S
C2182 C2181 1.389 . S
C2182 C2183 1.387 . S
C2183 H2168 0.930 . S
C2183 C2178 1.390 . S
C2183 C2182 1.387 . S
H2184 C2196 0.930 . S
H2185 C2198 0.930 . S
H2186 C2199 0.930 . S
H2187 C2203 0.959 . S
H2188 C2203 0.959 . S
H2189 C2203 0.961 . S
H2190 C2204 0.960 . S
H2191 C2204 0.961 . S
H2192 C2204 0.959 . S
H2193 C2207 0.929 . S
H2194 C2208 0.931 . S
H2195 C2210 0.930 . S
C2196 H2184 0.930 . S
C2196 C2197 1.399 . S
C2196 C2201 1.399 . S
C2197 C2196 1.399 . S
C2197 C2198 1.376 . S
C2198 H2185 0.930 . S
C2198 C2197 1.376 . S
C2198 C2199 1.388 . S
C2199 H2186 0.930 . S
C2199 C2198 1.388 . S
C2199 C2200 1.390 . S
C2200 C2199 1.390 . S
C2200 C2201 1.394 . S
C2200 C2206 1.465 . S
C2201 C2196 1.399 . S
C2201 C2200 1.394 . S
C2201 C2202 1.516 . S
C2202 C2201 1.516 . S
C2202 C2203 1.502 . S
C2202 C2204 1.561 . S
C2202 C2205 1.526 . S
C2203 H2187 0.959 . S
C2203 H2188 0.959 . S
C2203 H2189 0.961 . S
C2203 C2202 1.502 . S
C2204 H2190 0.960 . S
C2204 H2191 0.961 . S
C2204 H2192 0.959 . S
C2204 C2202 1.561 . S
C2205 C2202 1.526 . S
C2205 C2206 1.396 . S
C2205 C2210 1.390 . S
C2206 C2200 1.465 . S
C2206 C2205 1.396 . S
C2206 C2207 1.399 . S
C2207 H2193 0.929 . S
C2207 C2206 1.399 . S
C2207 C2208 1.385 . S
C2208 H2194 0.931 . S
C2208 C2207 1.385 . S
C2208 C2209 1.389 . S
C2209 C2208 1.389 . S
C2209 C2210 1.387 . S
C2210 H2195 0.930 . S
C2210 C2205 1.390 . S
C2210 C2209 1.387 . S
H2211 C2223 0.930 . S
H2212 C2225 0.930 . S
H2213 C2226 0.930 . S
H2214 C2230 0.959 . S
H2215 C2230 0.959 . S
H2216 C2230 0.961 . S
H2217 C2231 0.960 . S
H2218 C2231 0.961 . S
H2219 C2231 0.959 . S
H2220 C2234 0.929 . S
H2221 C2235 0.931 . S
H2222 C2237 0.930 . S
C2223 H2211 0.930 . S
C2223 C2224 1.399 . S
C2223 C2228 1.399 . S
C2224 C2223 1.399 . S
C2224 C2225 1.376 . S
C2225 H2212 0.930 . S
C2225 C2224 1.376 . S
C2225 C2226 1.388 . S
C2226 H2213 0.930 . S
C2226 C2225 1.388 . S
C2226 C2227 1.390 . S
C2227 C2226 1.390 . S
C2227 C2228 1.394 . S
C2227 C2233 1.465 . S
C2228 C2223 1.399 . S
C2228 C2227 1.394 . S
C2228 C2229 1.516 . S
C2229 C2228 1.516 . S
C2229 C2230 1.502 . S
C2229 C2231 1.561 . S
C2229 C2232 1.526 . S
C2230 H2214 0.959 . S
C2230 H2215 0.959 . S
C2230 H2216 0.961 . S
C2230 C2229 1.502 . S
C2231 H2217 0.960 . S
C2231 H2218 0.961 . S
C2231 H2219 0.959 . S
C2231 C2229 1.561 . S
C2232 C2229 1.526 . S
C2232 C2233 1.396 . S
C2232 C2237 1.390 . S
C2233 C2227 1.465 . S
C2233 C2232 1.396 . S
C2233 C2234 1.399 . S
C2234 H2220 0.929 . S
C2234 C2233 1.399 . S
C2234 C2235 1.385 . S
C2235 H2221 0.931 . S
C2235 C2234 1.385 . S
C2235 C2236 1.389 . S
C2236 C2235 1.389 . S
C2236 C2237 1.387 . S
C2237 H2222 0.930 . S
C2237 C2232 1.390 . S
C2237 C2236 1.387 . S
H2238 C2250 0.930 . S
H2239 C2252 0.930 . S
H2240 C2253 0.930 . S
H2241 C2257 0.959 . S
H2242 C2257 0.959 . S
H2243 C2257 0.961 . S
H2244 C2258 0.960 . S
H2245 C2258 0.961 . S
H2246 C2258 0.959 . S
H2247 C2261 0.929 . S
H2248 C2262 0.931 . S
H2249 C2264 0.930 . S
C2250 H2238 0.930 . S
C2250 C2251 1.399 . S
C2250 C2255 1.399 . S
C2251 C2250 1.399 . S
C2251 C2252 1.376 . S
C2252 H2239 0.930 . S
C2252 C2251 1.376 . S
C2252 C2253 1.388 . S
C2253 H2240 0.930 . S
C2253 C2252 1.388 . S
C2253 C2254 1.390 . S
C2254 C2253 1.390 . S
C2254 C2255 1.394 . S
C2254 C2260 1.465 . S
C2255 C2250 1.399 . S
C2255 C2254 1.394 . S
C2255 C2256 1.516 . S
C2256 C2255 1.516 . S
C2256 C2257 1.502 . S
C2256 C2258 1.561 . S
C2256 C2259 1.526 . S
C2257 H2241 0.959 . S
C2257 H2242 0.959 . S
C2257 H2243 0.961 . S
C2257 C2256 1.502 . S
C2258 H2244 0.960 . S
C2258 H2245 0.961 . S
C2258 H2246 0.959 . S
C2258 C2256 1.561 . S
C2259 C2256 1.526 . S
C2259 C2260 1.396 . S
C2259 C2264 1.390 . S
C2260 C2254 1.465 . S
C2260 C2259 1.396 . S
C2260 C2261 1.399 . S
C2261 H2247 0.929 . S
C2261 C2260 1.399 . S
C2261 C2262 1.385 . S
C2262 H2248 0.931 . S
C2262 C2261 1.385 . S
C2262 C2263 1.389 . S
C2263 C2262 1.389 . S
C2263 C2264 1.387 . S
C2264 H2249 0.930 . S
C2264 C2259 1.390 . S
C2264 C2263 1.387 . S
H2265 C2277 0.930 . S
H2266 C2279 0.930 . S
H2267 C2280 0.930 . S
H2268 C2284 0.959 . S
H2269 C2284 0.959 . S
H2270 C2284 0.961 . S
H2271 C2285 0.960 . S
H2272 C2285 0.961 . S
H2273 C2285 0.959 . S
H2274 C2288 0.929 . S
H2275 C2289 0.931 . S
H2276 C2291 0.930 . S
C2277 H2265 0.930 . S
C2277 C2278 1.399 . S
C2277 C2282 1.399 . S
C2278 C2277 1.399 . S
C2278 C2279 1.376 . S
C2279 H2266 0.930 . S
C2279 C2278 1.376 . S
C2279 C2280 1.388 . S
C2280 H2267 0.930 . S
C2280 C2279 1.388 . S
C2280 C2281 1.390 . S
C2281 C2280 1.390 . S
C2281 C2282 1.394 . S
C2281 C2287 1.465 . S
C2282 C2277 1.399 . S
C2282 C2281 1.394 . S
C2282 C2283 1.516 . S
C2283 C2282 1.516 . S
C2283 C2284 1.502 . S
C2283 C2285 1.561 . S
C2283 C2286 1.526 . S
C2284 H2268 0.959 . S
C2284 H2269 0.959 . S
C2284 H2270 0.961 . S
C2284 C2283 1.502 . S
C2285 H2271 0.960 . S
C2285 H2272 0.961 . S
C2285 H2273 0.959 . S
C2285 C2283 1.561 . S
C2286 C2283 1.526 . S
C2286 C2287 1.396 . S
C2286 C2291 1.390 . S
C2287 C2281 1.465 . S
C2287 C2286 1.396 . S
C2287 C2288 1.399 . S
C2288 H2274 0.929 . S
C2288 C2287 1.399 . S
C2288 C2289 1.385 . S
C2289 H2275 0.931 . S
C2289 C2288 1.385 . S
C2289 C2290 1.389 . S
C2290 C2289 1.389 . S
C2290 C2291 1.387 . S
C2291 H2276 0.930 . S
C2291 C2286 1.390 . S
C2291 C2290 1.387 . S
H2292 C2304 0.930 . S
H2293 C2306 0.930 . S
H2294 C2307 0.930 . S
H2295 C2311 0.959 . S
H2296 C2311 0.959 . S
H2297 C2311 0.961 . S
H2298 C2312 0.960 . S
H2299 C2312 0.961 . S
H2300 C2312 0.959 . S
H2301 C2315 0.929 . S
H2302 C2316 0.931 . S
H2303 C2318 0.930 . S
C2304 H2292 0.930 . S
C2304 C2305 1.399 . S
C2304 C2309 1.399 . S
C2305 C2304 1.399 . S
C2305 C2306 1.376 . S
C2306 H2293 0.930 . S
C2306 C2305 1.376 . S
C2306 C2307 1.388 . S
C2307 H2294 0.930 . S
C2307 C2306 1.388 . S
C2307 C2308 1.390 . S
C2308 C2307 1.390 . S
C2308 C2309 1.394 . S
C2308 C2314 1.465 . S
C2309 C2304 1.399 . S
C2309 C2308 1.394 . S
C2309 C2310 1.516 . S
C2310 C2309 1.516 . S
C2310 C2311 1.502 . S
C2310 C2312 1.561 . S
C2310 C2313 1.526 . S
C2311 H2295 0.959 . S
C2311 H2296 0.959 . S
C2311 H2297 0.961 . S
C2311 C2310 1.502 . S
C2312 H2298 0.960 . S
C2312 H2299 0.961 . S
C2312 H2300 0.959 . S
C2312 C2310 1.561 . S
C2313 C2310 1.526 . S
C2313 C2314 1.396 . S
C2313 C2318 1.390 . S
C2314 C2308 1.465 . S
C2314 C2313 1.396 . S
C2314 C2315 1.399 . S
C2315 H2301 0.929 . S
C2315 C2314 1.399 . S
C2315 C2316 1.385 . S
C2316 H2302 0.931 . S
C2316 C2315 1.385 . S
C2316 C2317 1.389 . S
C2317 C2316 1.389 . S
C2317 C2318 1.387 . S
C2318 H2303 0.930 . S
C2318 C2313 1.390 . S
C2318 C2317 1.387 . S
H2319 C2331 0.930 . S
H2320 C2333 0.930 . S
H2321 C2334 0.930 . S
H2322 C2338 0.959 . S
H2323 C2338 0.959 . S
H2324 C2338 0.961 . S
H2325 C2339 0.960 . S
H2326 C2339 0.961 . S
H2327 C2339 0.959 . S
H2328 C2342 0.929 . S
H2329 C2343 0.931 . S
H2330 C2345 0.930 . S
C2331 H2319 0.930 . S
C2331 C2332 1.399 . S
C2331 C2336 1.399 . S
C2332 C2331 1.399 . S
C2332 C2333 1.376 . S
C2333 H2320 0.930 . S
C2333 C2332 1.376 . S
C2333 C2334 1.388 . S
C2334 H2321 0.930 . S
C2334 C2333 1.388 . S
C2334 C2335 1.390 . S
C2335 C2334 1.390 . S
C2335 C2336 1.394 . S
C2335 C2341 1.465 . S
C2336 C2331 1.399 . S
C2336 C2335 1.394 . S
C2336 C2337 1.516 . S
C2337 C2336 1.516 . S
C2337 C2338 1.502 . S
C2337 C2339 1.561 . S
C2337 C2340 1.526 . S
C2338 H2322 0.959 . S
C2338 H2323 0.959 . S
C2338 H2324 0.961 . S
C2338 C2337 1.502 . S
C2339 H2325 0.960 . S
C2339 H2326 0.961 . S
C2339 H2327 0.959 . S
C2339 C2337 1.561 . S
C2340 C2337 1.526 . S
C2340 C2341 1.396 . S
C2340 C2345 1.390 . S
C2341 C2335 1.465 . S
C2341 C2340 1.396 . S
C2341 C2342 1.399 . S
C2342 H2328 0.929 . S
C2342 C2341 1.399 . S
C2342 C2343 1.385 . S
C2343 H2329 0.931 . S
C2343 C2342 1.385 . S
C2343 C2344 1.389 . S
C2344 C2343 1.389 . S
C2344 C2345 1.387 . S
C2345 H2330 0.930 . S
C2345 C2340 1.390 . S
C2345 C2344 1.387 . S
H2346 C2358 0.930 . S
H2347 C2360 0.930 . S
H2348 C2361 0.930 . S
H2349 C2365 0.959 . S
H2350 C2365 0.959 . S
H2351 C2365 0.961 . S
H2352 C2366 0.960 . S
H2353 C2366 0.961 . S
H2354 C2366 0.959 . S
H2355 C2369 0.929 . S
H2356 C2370 0.931 . S
H2357 C2372 0.930 . S
C2358 H2346 0.930 . S
C2358 C2359 1.399 . S
C2358 C2363 1.399 . S
C2359 C2358 1.399 . S
C2359 C2360 1.376 . S
C2360 H2347 0.930 . S
C2360 C2359 1.376 . S
C2360 C2361 1.388 . S
C2361 H2348 0.930 . S
C2361 C2360 1.388 . S
C2361 C2362 1.390 . S
C2362 C2361 1.390 . S
C2362 C2363 1.394 . S
C2362 C2368 1.465 . S
C2363 C2358 1.399 . S
C2363 C2362 1.394 . S
C2363 C2364 1.516 . S
C2364 C2363 1.516 . S
C2364 C2365 1.502 . S
C2364 C2366 1.561 . S
C2364 C2367 1.526 . S
C2365 H2349 0.959 . S
C2365 H2350 0.959 . S
C2365 H2351 0.961 . S
C2365 C2364 1.502 . S
C2366 H2352 0.960 . S
C2366 H2353 0.961 . S
C2366 H2354 0.959 . S
C2366 C2364 1.561 . S
C2367 C2364 1.526 . S
C2367 C2368 1.396 . S
C2367 C2372 1.390 . S
C2368 C2362 1.465 . S
C2368 C2367 1.396 . S
C2368 C2369 1.399 . S
C2369 H2355 0.929 . S
C2369 C2368 1.399 . S
C2369 C2370 1.385 . S
C2370 H2356 0.931 . S
C2370 C2369 1.385 . S
C2370 C2371 1.389 . S
C2371 C2370 1.389 . S
C2371 C2372 1.387 . S
C2372 H2357 0.930 . S
C2372 C2367 1.390 . S
C2372 C2371 1.387 . S
H2373 C2385 0.930 . S
H2374 C2387 0.930 . S
H2375 C2388 0.930 . S
H2376 C2392 0.959 . S
H2377 C2392 0.959 . S
H2378 C2392 0.961 . S
H2379 C2393 0.960 . S
H2380 C2393 0.961 . S
H2381 C2393 0.959 . S
H2382 C2396 0.929 . S
H2383 C2397 0.931 . S
H2384 C2399 0.930 . S
C2385 H2373 0.930 . S
C2385 C2386 1.399 . S
C2385 C2390 1.399 . S
C2386 C2385 1.399 . S
C2386 C2387 1.376 . S
C2387 H2374 0.930 . S
C2387 C2386 1.376 . S
C2387 C2388 1.388 . S
C2388 H2375 0.930 . S
C2388 C2387 1.388 . S
C2388 C2389 1.390 . S
C2389 C2388 1.390 . S
C2389 C2390 1.394 . S
C2389 C2395 1.465 . S
C2390 C2385 1.399 . S
C2390 C2389 1.394 . S
C2390 C2391 1.516 . S
C2391 C2390 1.516 . S
C2391 C2392 1.502 . S
C2391 C2393 1.561 . S
C2391 C2394 1.526 . S
C2392 H2376 0.959 . S
C2392 H2377 0.959 . S
C2392 H2378 0.961 . S
C2392 C2391 1.502 . S
C2393 H2379 0.960 . S
C2393 H2380 0.961 . S
C2393 H2381 0.959 . S
C2393 C2391 1.561 . S
C2394 C2391 1.526 . S
C2394 C2395 1.396 . S
C2394 C2399 1.390 . S
C2395 C2389 1.465 . S
C2395 C2394 1.396 . S
C2395 C2396 1.399 . S
C2396 H2382 0.929 . S
C2396 C2395 1.399 . S
C2396 C2397 1.385 . S
C2397 H2383 0.931 . S
C2397 C2396 1.385 . S
C2397 C2398 1.389 . S
C2398 C2397 1.389 . S
C2398 C2399 1.387 . S
C2399 H2384 0.930 . S
C2399 C2394 1.390 . S
C2399 C2398 1.387 . S
H2400 C2412 0.930 . S
H2401 C2414 0.930 . S
H2402 C2415 0.930 . S
H2403 C2419 0.959 . S
H2404 C2419 0.959 . S
H2405 C2419 0.961 . S
H2406 C2420 0.960 . S
H2407 C2420 0.961 . S
H2408 C2420 0.959 . S
H2409 C2423 0.929 . S
H2410 C2424 0.931 . S
H2411 C2426 0.930 . S
C2412 H2400 0.930 . S
C2412 C2413 1.399 . S
C2412 C2417 1.399 . S
C2413 C2412 1.399 . S
C2413 C2414 1.376 . S
C2414 H2401 0.930 . S
C2414 C2413 1.376 . S
C2414 C2415 1.388 . S
C2415 H2402 0.930 . S
C2415 C2414 1.388 . S
C2415 C2416 1.390 . S
C2416 C2415 1.390 . S
C2416 C2417 1.394 . S
C2416 C2422 1.465 . S
C2417 C2412 1.399 . S
C2417 C2416 1.394 . S
C2417 C2418 1.516 . S
C2418 C2417 1.516 . S
C2418 C2419 1.502 . S
C2418 C2420 1.561 . S
C2418 C2421 1.526 . S
C2419 H2403 0.959 . S
C2419 H2404 0.959 . S
C2419 H2405 0.961 . S
C2419 C2418 1.502 . S
C2420 H2406 0.960 . S
C2420 H2407 0.961 . S
C2420 H2408 0.959 . S
C2420 C2418 1.561 . S
C2421 C2418 1.526 . S
C2421 C2422 1.396 . S
C2421 C2426 1.390 . S
C2422 C2416 1.465 . S
C2422 C2421 1.396 . S
C2422 C2423 1.399 . S
C2423 H2409 0.929 . S
C2423 C2422 1.399 . S
C2423 C2424 1.385 . S
C2424 H2410 0.931 . S
C2424 C2423 1.385 . S
C2424 C2425 1.389 . S
C2425 C2424 1.389 . S
C2425 C2426 1.387 . S
C2426 H2411 0.930 . S
C2426 C2421 1.390 . S
C2426 C2425 1.387 . S
H2427 C2439 0.930 . S
H2428 C2441 0.930 . S
H2429 C2442 0.930 . S
H2430 C2446 0.959 . S
H2431 C2446 0.959 . S
H2432 C2446 0.961 . S
H2433 C2447 0.960 . S
H2434 C2447 0.961 . S
H2435 C2447 0.959 . S
H2436 C2450 0.929 . S
H2437 C2451 0.931 . S
H2438 C2453 0.930 . S
C2439 H2427 0.930 . S
C2439 C2440 1.399 . S
C2439 C2444 1.399 . S
C2440 C2439 1.399 . S
C2440 C2441 1.376 . S
C2441 H2428 0.930 . S
C2441 C2440 1.376 . S
C2441 C2442 1.388 . S
C2442 H2429 0.930 . S
C2442 C2441 1.388 . S
C2442 C2443 1.390 . S
C2443 C2442 1.390 . S
C2443 C2444 1.394 . S
C2443 C2449 1.465 . S
C2444 C2439 1.399 . S
C2444 C2443 1.394 . S
C2444 C2445 1.516 . S
C2445 C2444 1.516 . S
C2445 C2446 1.502 . S
C2445 C2447 1.561 . S
C2445 C2448 1.526 . S
C2446 H2430 0.959 . S
C2446 H2431 0.959 . S
C2446 H2432 0.961 . S
C2446 C2445 1.502 . S
C2447 H2433 0.960 . S
C2447 H2434 0.961 . S
C2447 H2435 0.959 . S
C2447 C2445 1.561 . S
C2448 C2445 1.526 . S
C2448 C2449 1.396 . S
C2448 C2453 1.390 . S
C2449 C2443 1.465 . S
C2449 C2448 1.396 . S
C2449 C2450 1.399 . S
C2450 H2436 0.929 . S
C2450 C2449 1.399 . S
C2450 C2451 1.385 . S
C2451 H2437 0.931 . S
C2451 C2450 1.385 . S
C2451 C2452 1.389 . S
C2452 C2451 1.389 . S
C2452 C2453 1.387 . S
C2453 H2438 0.930 . S
C2453 C2448 1.390 . S
C2453 C2452 1.387 . S
H2454 C2466 0.930 . S
H2455 C2468 0.930 . S
H2456 C2469 0.930 . S
H2457 C2473 0.959 . S
H2458 C2473 0.959 . S
H2459 C2473 0.961 . S
H2460 C2474 0.960 . S
H2461 C2474 0.961 . S
H2462 C2474 0.959 . S
H2463 C2477 0.929 . S
H2464 C2478 0.931 . S
H2465 C2480 0.930 . S
C2466 H2454 0.930 . S
C2466 C2467 1.399 . S
C2466 C2471 1.399 . S
C2467 C2466 1.399 . S
C2467 C2468 1.376 . S
C2468 H2455 0.930 . S
C2468 C2467 1.376 . S
C2468 C2469 1.388 . S
C2469 H2456 0.930 . S
C2469 C2468 1.388 . S
C2469 C2470 1.390 . S
C2470 C2469 1.390 . S
C2470 C2471 1.394 . S
C2470 C2476 1.465 . S
C2471 C2466 1.399 . S
C2471 C2470 1.394 . S
C2471 C2472 1.516 . S
C2472 C2471 1.516 . S
C2472 C2473 1.502 . S
C2472 C2474 1.561 . S
C2472 C2475 1.526 . S
C2473 H2457 0.959 . S
C2473 H2458 0.959 . S
C2473 H2459 0.961 . S
C2473 C2472 1.502 . S
C2474 H2460 0.960 . S
C2474 H2461 0.961 . S
C2474 H2462 0.959 . S
C2474 C2472 1.561 . S
C2475 C2472 1.526 . S
C2475 C2476 1.396 . S
C2475 C2480 1.390 . S
C2476 C2470 1.465 . S
C2476 C2475 1.396 . S
C2476 C2477 1.399 . S
C2477 H2463 0.929 . S
C2477 C2476 1.399 . S
C2477 C2478 1.385 . S
C2478 H2464 0.931 . S
C2478 C2477 1.385 . S
C2478 C2479 1.389 . S
C2479 C2478 1.389 . S
C2479 C2480 1.387 . S
C2480 H2465 0.930 . S
C2480 C2475 1.390 . S
C2480 C2479 1.387 . S
H2481 C2493 0.930 . S
H2482 C2495 0.930 . S
H2483 C2496 0.930 . S
H2484 C2500 0.959 . S
H2485 C2500 0.959 . S
H2486 C2500 0.961 . S
H2487 C2501 0.960 . S
H2488 C2501 0.961 . S
H2489 C2501 0.959 . S
H2490 C2504 0.929 . S
H2491 C2505 0.931 . S
H2492 C2507 0.930 . S
C2493 H2481 0.930 . S
C2493 C2494 1.399 . S
C2493 C2498 1.399 . S
C2494 C2493 1.399 . S
C2494 C2495 1.376 . S
C2495 H2482 0.930 . S
C2495 C2494 1.376 . S
C2495 C2496 1.388 . S
C2496 H2483 0.930 . S
C2496 C2495 1.388 . S
C2496 C2497 1.390 . S
C2497 C2496 1.390 . S
C2497 C2498 1.394 . S
C2497 C2503 1.465 . S
C2498 C2493 1.399 . S
C2498 C2497 1.394 . S
C2498 C2499 1.516 . S
C2499 C2498 1.516 . S
C2499 C2500 1.502 . S
C2499 C2501 1.561 . S
C2499 C2502 1.526 . S
C2500 H2484 0.959 . S
C2500 H2485 0.959 . S
C2500 H2486 0.961 . S
C2500 C2499 1.502 . S
C2501 H2487 0.960 . S
C2501 H2488 0.961 . S
C2501 H2489 0.959 . S
C2501 C2499 1.561 . S
C2502 C2499 1.526 . S
C2502 C2503 1.396 . S
C2502 C2507 1.390 . S
C2503 C2497 1.465 . S
C2503 C2502 1.396 . S
C2503 C2504 1.399 . S
C2504 H2490 0.929 . S
C2504 C2503 1.399 . S
C2504 C2505 1.385 . S
C2505 H2491 0.931 . S
C2505 C2504 1.385 . S
C2505 C2506 1.389 . S
C2506 C2505 1.389 . S
C2506 C2507 1.387 . S
C2507 H2492 0.930 . S
C2507 C2502 1.390 . S
C2507 C2506 1.387 . S
H2508 C2520 0.930 . S
H2509 C2522 0.930 . S
H2510 C2523 0.930 . S
H2511 C2527 0.959 . S
H2512 C2527 0.959 . S
H2513 C2527 0.961 . S
H2514 C2528 0.960 . S
H2515 C2528 0.961 . S
H2516 C2528 0.959 . S
H2517 C2531 0.929 . S
H2518 C2532 0.931 . S
H2519 C2534 0.930 . S
C2520 H2508 0.930 . S
C2520 C2521 1.399 . S
C2520 C2525 1.399 . S
C2521 C2520 1.399 . S
C2521 C2522 1.376 . S
C2522 H2509 0.930 . S
C2522 C2521 1.376 . S
C2522 C2523 1.388 . S
C2523 H2510 0.930 . S
C2523 C2522 1.388 . S
C2523 C2524 1.390 . S
C2524 C2523 1.390 . S
C2524 C2525 1.394 . S
C2524 C2530 1.465 . S
C2525 C2520 1.399 . S
C2525 C2524 1.394 . S
C2525 C2526 1.516 . S
C2526 C2525 1.516 . S
C2526 C2527 1.502 . S
C2526 C2528 1.561 . S
C2526 C2529 1.526 . S
C2527 H2511 0.959 . S
C2527 H2512 0.959 . S
C2527 H2513 0.961 . S
C2527 C2526 1.502 . S
C2528 H2514 0.960 . S
C2528 H2515 0.961 . S
C2528 H2516 0.959 . S
C2528 C2526 1.561 . S
C2529 C2526 1.526 . S
C2529 C2530 1.396 . S
C2529 C2534 1.390 . S
C2530 C2524 1.465 . S
C2530 C2529 1.396 . S
C2530 C2531 1.399 . S
C2531 H2517 0.929 . S
C2531 C2530 1.399 . S
C2531 C2532 1.385 . S
C2532 H2518 0.931 . S
C2532 C2531 1.385 . S
C2532 C2533 1.389 . S
C2533 C2532 1.389 . S
C2533 C2534 1.387 . S
C2534 H2519 0.930 . S
C2534 C2529 1.390 . S
C2534 C2533 1.387 . S
H2535 C2547 0.930 . S
H2536 C2549 0.930 . S
H2537 C2550 0.930 . S
H2538 C2554 0.959 . S
H2539 C2554 0.959 . S
H2540 C2554 0.961 . S
H2541 C2555 0.960 . S
H2542 C2555 0.961 . S
H2543 C2555 0.959 . S
H2544 C2558 0.929 . S
H2545 C2559 0.931 . S
H2546 C2561 0.930 . S
C2547 H2535 0.930 . S
C2547 C2548 1.399 . S
C2547 C2552 1.399 . S
C2548 C2547 1.399 . S
C2548 C2549 1.376 . S
C2549 H2536 0.930 . S
C2549 C2548 1.376 . S
C2549 C2550 1.388 . S
C2550 H2537 0.930 . S
C2550 C2549 1.388 . S
C2550 C2551 1.390 . S
C2551 C2550 1.390 . S
C2551 C2552 1.394 . S
C2551 C2557 1.465 . S
C2552 C2547 1.399 . S
C2552 C2551 1.394 . S
C2552 C2553 1.516 . S
C2553 C2552 1.516 . S
C2553 C2554 1.502 . S
C2553 C2555 1.561 . S
C2553 C2556 1.526 . S
C2554 H2538 0.959 . S
C2554 H2539 0.959 . S
C2554 H2540 0.961 . S
C2554 C2553 1.502 . S
C2555 H2541 0.960 . S
C2555 H2542 0.961 . S
C2555 H2543 0.959 . S
C2555 C2553 1.561 . S
C2556 C2553 1.526 . S
C2556 C2557 1.396 . S
C2556 C2561 1.390 . S
C2557 C2551 1.465 . S
C2557 C2556 1.396 . S
C2557 C2558 1.399 . S
C2558 H2544 0.929 . S
C2558 C2557 1.399 . S
C2558 C2559 1.385 . S
C2559 H2545 0.931 . S
C2559 C2558 1.385 . S
C2559 C2560 1.389 . S
C2560 C2559 1.389 . S
C2560 C2561 1.387 . S
C2561 H2546 0.930 . S
C2561 C2556 1.390 . S
C2561 C2560 1.387 . S
H2562 C2574 0.930 . S
H2563 C2576 0.930 . S
H2564 C2577 0.930 . S
H2565 C2581 0.959 . S
H2566 C2581 0.959 . S
H2567 C2581 0.961 . S
H2568 C2582 0.960 . S
H2569 C2582 0.961 . S
H2570 C2582 0.959 . S
H2571 C2585 0.929 . S
H2572 C2586 0.931 . S
H2573 C2588 0.930 . S
C2574 H2562 0.930 . S
C2574 C2575 1.399 . S
C2574 C2579 1.399 . S
C2575 C2574 1.399 . S
C2575 C2576 1.376 . S
C2576 H2563 0.930 . S
C2576 C2575 1.376 . S
C2576 C2577 1.388 . S
C2577 H2564 0.930 . S
C2577 C2576 1.388 . S
C2577 C2578 1.390 . S
C2578 C2577 1.390 . S
C2578 C2579 1.394 . S
C2578 C2584 1.465 . S
C2579 C2574 1.399 . S
C2579 C2578 1.394 . S
C2579 C2580 1.516 . S
C2580 C2579 1.516 . S
C2580 C2581 1.502 . S
C2580 C2582 1.561 . S
C2580 C2583 1.526 . S
C2581 H2565 0.959 . S
C2581 H2566 0.959 . S
C2581 H2567 0.961 . S
C2581 C2580 1.502 . S
C2582 H2568 0.960 . S
C2582 H2569 0.961 . S
C2582 H2570 0.959 . S
C2582 C2580 1.561 . S
C2583 C2580 1.526 . S
C2583 C2584 1.396 . S
C2583 C2588 1.390 . S
C2584 C2578 1.465 . S
C2584 C2583 1.396 . S
C2584 C2585 1.399 . S
C2585 H2571 0.929 . S
C2585 C2584 1.399 . S
C2585 C2586 1.385 . S
C2586 H2572 0.931 . S
C2586 C2585 1.385 . S
C2586 C2587 1.389 . S
C2587 C2586 1.389 . S
C2587 C2588 1.387 . S
C2588 H2573 0.930 . S
C2588 C2583 1.390 . S
C2588 C2587 1.387 . S
H2589 C2601 0.930 . S
H2590 C2603 0.930 . S
H2591 C2604 0.930 . S
H2592 C2608 0.959 . S
H2593 C2608 0.959 . S
H2594 C2608 0.961 . S
H2595 C2609 0.960 . S
H2596 C2609 0.961 . S
H2597 C2609 0.959 . S
H2598 C2612 0.929 . S
H2599 C2613 0.931 . S
H2600 C2615 0.930 . S
C2601 H2589 0.930 . S
C2601 C2602 1.399 . S
C2601 C2606 1.399 . S
C2602 C2601 1.399 . S
C2602 C2603 1.376 . S
C2603 H2590 0.930 . S
C2603 C2602 1.376 . S
C2603 C2604 1.388 . S
C2604 H2591 0.930 . S
C2604 C2603 1.388 . S
C2604 C2605 1.390 . S
C2605 C2604 1.390 . S
C2605 C2606 1.394 . S
C2605 C2611 1.465 . S
C2606 C2601 1.399 . S
C2606 C2605 1.394 . S
C2606 C2607 1.516 . S
C2607 C2606 1.516 . S
C2607 C2608 1.502 . S
C2607 C2609 1.561 . S
C2607 C2610 1.526 . S
C2608 H2592 0.959 . S
C2608 H2593 0.959 . S
C2608 H2594 0.961 . S
C2608 C2607 1.502 . S
C2609 H2595 0.960 . S
C2609 H2596 0.961 . S
C2609 H2597 0.959 . S
C2609 C2607 1.561 . S
C2610 C2607 1.526 . S
C2610 C2611 1.396 . S
C2610 C2615 1.390 . S
C2611 C2605 1.465 . S
C2611 C2610 1.396 . S
C2611 C2612 1.399 . S
C2612 H2598 0.929 . S
C2612 C2611 1.399 . S
C2612 C2613 1.385 . S
C2613 H2599 0.931 . S
C2613 C2612 1.385 . S
C2613 C2614 1.389 . S
C2614 C2613 1.389 . S
C2614 C2615 1.387 . S
C2615 H2600 0.930 . S
C2615 C2610 1.390 . S
C2615 C2614 1.387 . S
H2616 C2628 0.930 . S
H2617 C2630 0.930 . S
H2618 C2631 0.930 . S
H2619 C2635 0.959 1_655 S
H2620 C2635 0.959 . S
H2621 C2635 0.961 . S
H2622 C2636 0.960 . S
H2623 C2636 0.961 . S
H2624 C2636 0.959 . S
H2625 C2639 0.929 . S
H2626 C2640 0.931 . S
H2627 C2642 0.930 . S
C2628 H2616 0.930 . S
C2628 C2629 1.399 . S
C2628 C2633 1.399 . S
C2629 C2628 1.399 . S
C2629 C2630 1.376 . S
C2630 H2617 0.930 . S
C2630 C2629 1.376 . S
C2630 C2631 1.388 . S
C2631 H2618 0.930 . S
C2631 C2630 1.388 . S
C2631 C2632 1.390 . S
C2632 C2631 1.390 . S
C2632 C2633 1.394 . S
C2632 C2638 1.465 . S
C2633 C2628 1.399 . S
C2633 C2632 1.394 . S
C2633 C2634 1.516 . S
C2634 C2633 1.516 . S
C2634 C2635 1.502 . S
C2634 C2636 1.561 . S
C2634 C2637 1.526 . S
C2635 H2619 0.959 1_455 S
C2635 H2620 0.959 . S
C2635 H2621 0.961 . S
C2635 C2634 1.502 . S
C2636 H2622 0.960 . S
C2636 H2623 0.961 . S
C2636 H2624 0.959 . S
C2636 C2634 1.561 . S
C2637 C2634 1.526 . S
C2637 C2638 1.396 . S
C2637 C2642 1.390 . S
C2638 C2632 1.465 . S
C2638 C2637 1.396 . S
C2638 C2639 1.399 . S
C2639 H2625 0.929 . S
C2639 C2638 1.399 . S
C2639 C2640 1.385 . S
C2640 H2626 0.931 . S
C2640 C2639 1.385 . S
C2640 C2641 1.389 . S
C2641 C2640 1.389 . S
C2641 C2642 1.387 . S
C2642 H2627 0.930 . S
C2642 C2637 1.390 . S
C2642 C2641 1.387 . S
H2643 C2655 0.930 . S
H2644 C2657 0.929 . S
H2645 C2658 0.930 1_455 S
H2646 C2662 0.959 . S
H2647 C2662 0.959 1_545 S
H2648 C2662 0.961 . S
H2649 C2663 0.960 1_565 S
H2650 C2663 0.961 . S
H2651 C2663 0.959 . S
H2652 C2666 0.929 1_455 S
H2653 C2667 0.911 1_455 S
H2654 C2669 0.930 . S
C2655 H2643 0.930 . S
C2655 C2656 1.399 . S
C2655 C2660 1.399 . S
C2656 C2655 1.399 . S
C2656 C2657 1.376 . S
C2657 H2644 0.929 . S
C2657 C2656 1.376 . S
C2657 C2658 1.388 . S
C2658 H2645 0.930 1_655 S
C2658 C2657 1.388 . S
C2658 C2659 1.390 . S
C2659 C2658 1.390 . S
C2659 C2660 1.394 . S
C2659 C2665 1.465 1_565 S
C2660 C2655 1.399 . S
C2660 C2659 1.394 . S
C2660 C2661 1.504 1_565 S
C2661 C2660 1.504 1_545 S
C2661 C2662 1.497 1_545 S
C2661 C2663 1.567 . S
C2661 C2664 1.539 . S
C2662 H2646 0.959 . S
C2662 H2647 0.959 1_565 S
C2662 H2648 0.961 . S
C2662 C2661 1.497 1_565 S
C2663 H2649 0.960 1_545 S
C2663 H2650 0.961 . S
C2663 H2651 0.959 . S
C2663 C2661 1.567 . S
C2664 C2661 1.539 . S
C2664 C2665 1.396 . S
C2664 C2669 1.390 . S
C2665 C2659 1.465 1_545 S
C2665 C2664 1.396 . S
C2665 C2666 1.399 . S
C2666 H2652 0.929 1_655 S
C2666 C2665 1.399 . S
C2666 C2667 1.385 . S
C2667 H2653 0.911 1_655 S
C2667 C2666 1.385 . S
C2667 C2668 1.389 . S
C2668 C2667 1.389 . S
C2668 C2669 1.387 . S
C2669 H2654 0.930 . S
C2669 C2664 1.390 . S
C2669 C2668 1.387 . S
H2670 C2682 0.930 . S
H2671 C2684 0.930 . S
H2672 C2685 0.930 . S
H2673 C2689 0.959 1_545 S
H2674 C2689 0.959 . S
H2675 C2689 0.961 . S
H2676 C2690 0.960 . S
H2677 C2690 0.961 . S
H2678 C2690 0.959 . S
H2679 C2693 0.929 . S
H2680 C2694 0.931 . S
H2681 C2696 0.930 . S
C2682 H2670 0.930 . S
C2682 C2683 1.399 . S
C2682 C2687 1.399 . S
C2683 C2682 1.399 . S
C2683 C2684 1.376 . S
C2684 H2671 0.930 . S
C2684 C2683 1.376 . S
C2684 C2685 1.388 . S
C2685 H2672 0.930 . S
C2685 C2684 1.388 . S
C2685 C2686 1.390 . S
C2686 C2685 1.390 . S
C2686 C2687 1.394 . S
C2686 C2692 1.465 . S
C2687 C2682 1.399 . S
C2687 C2686 1.394 . S
C2687 C2688 1.516 . S
C2688 C2687 1.516 . S
C2688 C2689 1.502 1_545 S
C2688 C2690 1.561 1_545 S
C2688 C2691 1.526 . S
C2689 H2673 0.959 1_565 S
C2689 H2674 0.959 . S
C2689 H2675 0.961 . S
C2689 C2688 1.502 1_565 S
C2690 H2676 0.960 . S
C2690 H2677 0.961 . S
C2690 H2678 0.959 . S
C2690 C2688 1.561 1_565 S
C2691 C2688 1.526 . S
C2691 C2692 1.396 . S
C2691 C2696 1.390 . S
C2692 C2686 1.465 . S
C2692 C2691 1.396 . S
C2692 C2693 1.399 . S
C2693 H2679 0.929 . S
C2693 C2692 1.399 . S
C2693 C2694 1.385 . S
C2694 H2680 0.931 . S
C2694 C2693 1.385 . S
C2694 C2695 1.389 . S
C2695 C2694 1.389 . S
C2695 C2696 1.387 . S
C2696 H2681 0.930 . S
C2696 C2691 1.390 . S
C2696 C2695 1.387 . S
H2697 C2709 0.930 . S
H2698 C2711 0.930 . S
H2699 C2712 0.930 . S
H2700 C2716 0.959 . S
H2701 C2716 0.959 . S
H2702 C2716 0.961 . S
H2703 C2717 0.960 . S
H2704 C2717 0.961 . S
H2705 C2717 0.959 . S
H2706 C2720 0.929 . S
H2707 C2721 0.931 . S
H2708 C2723 0.930 . S
C2709 H2697 0.930 . S
C2709 C2710 1.399 . S
C2709 C2714 1.399 . S
C2710 C2709 1.399 . S
C2710 C2711 1.376 . S
C2711 H2698 0.930 . S
C2711 C2710 1.376 . S
C2711 C2712 1.388 . S
C2712 H2699 0.930 . S
C2712 C2711 1.388 . S
C2712 C2713 1.390 . S
C2713 C2712 1.390 . S
C2713 C2714 1.394 . S
C2713 C2719 1.465 . S
C2714 C2709 1.399 . S
C2714 C2713 1.394 . S
C2714 C2715 1.516 . S
C2715 C2714 1.516 . S
C2715 C2716 1.502 . S
C2715 C2717 1.561 . S
C2715 C2718 1.526 . S
C2716 H2700 0.959 . S
C2716 H2701 0.959 . S
C2716 H2702 0.961 . S
C2716 C2715 1.502 . S
C2717 H2703 0.960 . S
C2717 H2704 0.961 . S
C2717 H2705 0.959 . S
C2717 C2715 1.561 . S
C2718 C2715 1.526 . S
C2718 C2719 1.396 . S
C2718 C2723 1.390 . S
C2719 C2713 1.465 . S
C2719 C2718 1.396 . S
C2719 C2720 1.399 . S
C2720 H2706 0.929 . S
C2720 C2719 1.399 . S
C2720 C2721 1.385 . S
C2721 H2707 0.931 . S
C2721 C2720 1.385 . S
C2721 C2722 1.389 . S
C2722 C2721 1.389 . S
C2722 C2723 1.387 . S
C2723 H2708 0.930 . S
C2723 C2718 1.390 . S
C2723 C2722 1.387 . S
H2724 C2736 0.930 . S
H2725 C2738 0.930 . S
H2726 C2739 0.930 . S
H2727 C2743 0.959 . S
H2728 C2743 0.959 1_545 S
H2729 C2743 0.961 . S
H2730 C2744 0.937 1_556 S
H2731 C2744 0.989 . S
H2732 C2744 0.949 1_556 S
H2733 C2747 0.929 . S
H2734 C2748 0.931 . S
H2735 C2750 0.930 . S
C2736 H2724 0.930 . S
C2736 C2737 1.399 . S
C2736 C2741 1.399 . S
C2737 C2736 1.399 . S
C2737 C2738 1.376 . S
C2738 H2725 0.930 . S
C2738 C2737 1.376 . S
C2738 C2739 1.388 . S
C2739 H2726 0.930 . S
C2739 C2738 1.388 . S
C2739 C2740 1.390 . S
C2740 C2739 1.390 . S
C2740 C2741 1.394 . S
C2740 C2746 1.465 1_556 S
C2741 C2736 1.399 . S
C2741 C2740 1.394 . S
C2741 C2742 1.516 1_556 S
C2742 C2741 1.516 1_554 S
C2742 C2743 1.502 . S
C2742 C2744 1.567 1_565 S
C2742 C2745 1.526 . S
C2743 H2727 0.959 . S
C2743 H2728 0.959 1_565 S
C2743 H2729 0.961 . S
C2743 C2742 1.502 . S
C2744 H2730 0.937 1_554 S
C2744 H2731 0.989 . S
C2744 H2732 0.949 1_554 S
C2744 C2742 1.567 1_545 S
C2745 C2742 1.526 . S
C2745 C2746 1.396 . S
C2745 C2750 1.390 . S
C2746 C2740 1.465 1_554 S
C2746 C2745 1.396 . S
C2746 C2747 1.399 . S
C2747 H2733 0.929 . S
C2747 C2746 1.399 . S
C2747 C2748 1.385 . S
C2748 H2734 0.931 . S
C2748 C2747 1.385 . S
C2748 C2749 1.389 . S
C2749 C2748 1.389 . S
C2749 C2750 1.387 . S
C2750 H2735 0.930 . S
C2750 C2745 1.390 . S
C2750 C2749 1.387 . S
H2751 C2763 0.930 . S
H2752 C2765 0.930 . S
H2753 C2766 0.930 . S
H2754 C2770 0.959 . S
H2755 C2770 0.959 . S
H2756 C2770 0.959 . S
H2757 C2771 0.960 . S
H2758 C2771 0.961 1_556 S
H2759 C2771 0.959 . S
H2760 C2774 0.929 . S
H2761 C2775 0.931 . S
H2762 C2777 0.930 . S
C2763 H2751 0.930 . S
C2763 C2764 1.399 . S
C2763 C2768 1.399 . S
C2764 C2763 1.399 . S
C2764 C2765 1.376 . S
C2765 H2752 0.930 . S
C2765 C2764 1.376 . S
C2765 C2766 1.388 . S
C2766 H2753 0.930 . S
C2766 C2765 1.388 . S
C2766 C2767 1.390 . S
C2767 C2766 1.390 . S
C2767 C2768 1.394 . S
C2767 C2773 1.465 1_554 S
C2768 C2763 1.399 . S
C2768 C2767 1.394 . S
C2768 C2769 1.516 1_554 S
C2769 C2768 1.516 1_556 S
C2769 C2770 1.502 . S
C2769 C2771 1.561 1_556 S
C2769 C2772 1.526 . S
C2770 H2754 0.959 . S
C2770 H2755 0.959 . S
C2770 H2756 0.959 . S
C2770 C2769 1.502 . S
C2771 H2757 0.960 . S
C2771 H2758 0.961 1_554 S
C2771 H2759 0.959 . S
C2771 C2769 1.561 1_554 S
C2772 C2769 1.526 . S
C2772 C2773 1.396 . S
C2772 C2777 1.390 . S
C2773 C2767 1.465 1_556 S
C2773 C2772 1.396 . S
C2773 C2774 1.399 . S
C2774 H2760 0.929 . S
C2774 C2773 1.399 . S
C2774 C2775 1.385 . S
C2775 H2761 0.931 . S
C2775 C2774 1.385 . S
C2775 C2776 1.389 . S
C2776 C2775 1.389 . S
C2776 C2777 1.387 . S
C2777 H2762 0.930 . S
C2777 C2772 1.390 . S
C2777 C2776 1.387 . S
H2778 C2790 0.930 . S
H2779 C2792 0.930 . S
H2780 C2793 0.930 1_556 S
H2781 C2797 0.959 . S
H2782 C2797 0.959 . S
H2783 C2797 0.961 . S
H2784 C2798 0.960 . S
H2785 C2798 0.961 . S
H2786 C2798 0.959 . S
H2787 C2801 0.929 1_556 S
H2788 C2802 0.931 . S
H2789 C2804 0.930 . S
C2790 H2778 0.930 . S
C2790 C2791 1.399 . S
C2790 C2795 1.399 . S
C2791 C2790 1.399 . S
C2791 C2792 1.376 . S
C2792 H2779 0.930 . S
C2792 C2791 1.376 . S
C2792 C2793 1.388 . S
C2793 H2780 0.930 1_554 S
C2793 C2792 1.388 . S
C2793 C2794 1.390 . S
C2794 C2793 1.390 . S
C2794 C2795 1.394 . S
C2794 C2800 1.465 . S
C2795 C2790 1.399 . S
C2795 C2794 1.394 . S
C2795 C2796 1.516 . S
C2796 C2795 1.516 . S
C2796 C2797 1.502 . S
C2796 C2798 1.561 . S
C2796 C2799 1.526 . S
C2797 H2781 0.959 . S
C2797 H2782 0.959 . S
C2797 H2783 0.961 . S
C2797 C2796 1.502 . S
C2798 H2784 0.960 . S
C2798 H2785 0.961 . S
C2798 H2786 0.959 . S
C2798 C2796 1.561 . S
C2799 C2796 1.526 . S
C2799 C2800 1.396 . S
C2799 C2804 1.390 . S
C2800 C2794 1.465 . S
C2800 C2799 1.396 . S
C2800 C2801 1.399 . S
C2801 H2787 0.929 1_554 S
C2801 C2800 1.399 . S
C2801 C2802 1.385 . S
C2802 H2788 0.931 . S
C2802 C2801 1.385 . S
C2802 C2803 1.389 . S
C2803 C2802 1.389 . S
C2803 C2804 1.387 . S
C2804 H2789 0.930 . S
C2804 C2799 1.390 . S
C2804 C2803 1.387 . S
H2805 C2817 0.930 . S
H2806 C2819 0.930 . S
H2807 C2820 0.930 . S
H2808 C2824 0.959 . S
H2809 C2824 0.959 . S
H2810 C2824 0.961 . S
H2811 C2825 0.960 . S
H2812 C2825 0.961 . S
H2813 C2825 0.959 . S
H2814 C2828 0.929 . S
H2815 C2829 0.931 . S
H2816 C2831 0.930 . S
C2817 H2805 0.930 . S
C2817 C2818 1.399 . S
C2817 C2822 1.399 . S
C2818 C2817 1.399 . S
C2818 C2819 1.376 . S
C2819 H2806 0.930 . S
C2819 C2818 1.376 . S
C2819 C2820 1.388 . S
C2820 H2807 0.930 . S
C2820 C2819 1.388 . S
C2820 C2821 1.390 . S
C2821 C2820 1.390 . S
C2821 C2822 1.394 . S
C2821 C2827 1.465 . S
C2822 C2817 1.399 . S
C2822 C2821 1.394 . S
C2822 C2823 1.516 . S
C2823 C2822 1.516 . S
C2823 C2824 1.502 . S
C2823 C2825 1.561 . S
C2823 C2826 1.526 . S
C2824 H2808 0.959 . S
C2824 H2809 0.959 . S
C2824 H2810 0.961 . S
C2824 C2823 1.502 . S
C2825 H2811 0.960 . S
C2825 H2812 0.961 . S
C2825 H2813 0.959 . S
C2825 C2823 1.561 . S
C2826 C2823 1.526 . S
C2826 C2827 1.396 . S
C2826 C2831 1.390 . S
C2827 C2821 1.465 . S
C2827 C2826 1.396 . S
C2827 C2828 1.399 . S
C2828 H2814 0.929 . S
C2828 C2827 1.399 . S
C2828 C2829 1.385 . S
C2829 H2815 0.931 . S
C2829 C2828 1.385 . S
C2829 C2830 1.389 . S
C2830 C2829 1.389 . S
C2830 C2831 1.387 . S
C2831 H2816 0.930 . S
C2831 C2826 1.390 . S
C2831 C2830 1.387 . S
H2832 C2844 0.930 . S
H2833 C2846 0.930 . S
H2834 C2847 0.930 . S
H2835 C2851 0.959 . S
H2836 C2851 0.959 . S
H2837 C2851 0.961 . S
H2838 C2852 0.960 . S
H2839 C2852 0.961 1_655 S
H2840 C2852 0.959 . S
H2841 C2855 0.929 . S
H2842 C2856 0.931 . S
H2843 C2858 0.930 . S
C2844 H2832 0.930 . S
C2844 C2845 1.399 . S
C2844 C2849 1.399 . S
C2845 C2844 1.399 . S
C2845 C2846 1.376 . S
C2846 H2833 0.930 . S
C2846 C2845 1.376 . S
C2846 C2847 1.388 . S
C2847 H2834 0.930 . S
C2847 C2846 1.388 . S
C2847 C2848 1.390 . S
C2848 C2847 1.390 . S
C2848 C2849 1.394 . S
C2848 C2854 1.465 1_455 S
C2849 C2844 1.399 . S
C2849 C2848 1.394 . S
C2849 C2850 1.516 1_455 S
C2850 C2849 1.516 1_655 S
C2850 C2851 1.502 . S
C2850 C2852 1.561 1_655 S
C2850 C2853 1.526 . S
C2851 H2835 0.959 . S
C2851 H2836 0.959 . S
C2851 H2837 0.961 . S
C2851 C2850 1.502 . S
C2852 H2838 0.960 . S
C2852 H2839 0.961 1_455 S
C2852 H2840 0.959 . S
C2852 C2850 1.561 1_455 S
C2853 C2850 1.526 . S
C2853 C2854 1.396 . S
C2853 C2858 1.390 . S
C2854 C2848 1.465 1_655 S
C2854 C2853 1.396 . S
C2854 C2855 1.399 . S
C2855 H2841 0.929 . S
C2855 C2854 1.399 . S
C2855 C2856 1.385 . S
C2856 H2842 0.931 . S
C2856 C2855 1.385 . S
C2856 C2857 1.389 . S
C2857 C2856 1.389 . S
C2857 C2858 1.387 . S
C2858 H2843 0.930 . S
C2858 C2853 1.390 . S
C2858 C2857 1.387 . S
H2859 C2871 0.930 . S
H2860 C2873 0.930 . S
H2861 C2874 0.930 . S
H2862 C2878 0.959 . S
H2863 C2878 0.959 . S
H2864 C2878 0.961 . S
H2865 C2879 0.960 . S
H2866 C2879 0.961 . S
H2867 C2879 0.959 . S
H2868 C2882 0.929 . S
H2869 C2883 0.931 . S
H2870 C2885 0.930 . S
C2871 H2859 0.930 . S
C2871 C2872 1.399 . S
C2871 C2876 1.399 . S
C2872 C2871 1.399 . S
C2872 C2873 1.376 . S
C2873 H2860 0.930 . S
C2873 C2872 1.376 . S
C2873 C2874 1.388 . S
C2874 H2861 0.930 . S
C2874 C2873 1.388 . S
C2874 C2875 1.390 . S
C2875 C2874 1.390 . S
C2875 C2876 1.394 . S
C2875 C2881 1.465 . S
C2876 C2871 1.399 . S
C2876 C2875 1.394 . S
C2876 C2877 1.516 . S
C2877 C2876 1.516 . S
C2877 C2878 1.502 . S
C2877 C2879 1.561 1_655 S
C2877 C2880 1.526 . S
C2878 H2862 0.959 . S
C2878 H2863 0.959 . S
C2878 H2864 0.961 . S
C2878 C2877 1.502 . S
C2879 H2865 0.960 . S
C2879 H2866 0.961 . S
C2879 H2867 0.959 . S
C2879 C2877 1.561 1_455 S
C2880 C2877 1.526 . S
C2880 C2881 1.396 . S
C2880 C2885 1.390 . S
C2881 C2875 1.465 . S
C2881 C2880 1.396 . S
C2881 C2882 1.399 . S
C2882 H2868 0.929 . S
C2882 C2881 1.399 . S
C2882 C2883 1.385 . S
C2883 H2869 0.931 . S
C2883 C2882 1.385 . S
C2883 C2884 1.389 . S
C2884 C2883 1.389 . S
C2884 C2885 1.387 . S
C2885 H2870 0.930 . S
C2885 C2880 1.390 . S
C2885 C2884 1.387 . S
H2886 C2898 0.930 . S
H2887 C2900 0.930 . S
H2888 C2901 0.930 . S
H2889 C2905 0.959 . S
H2890 C2905 0.959 . S
H2891 C2905 0.990 . S
H2892 C2906 0.960 . S
H2893 C2906 0.961 . S
H2894 C2906 0.959 . S
H2895 C2909 0.929 . S
H2896 C2910 0.931 . S
H2897 C2912 0.930 . S
C2898 H2886 0.930 . S
C2898 C2899 1.399 . S
C2898 C2903 1.399 . S
C2899 C2898 1.399 . S
C2899 C2900 1.376 . S
C2900 H2887 0.930 . S
C2900 C2899 1.376 . S
C2900 C2901 1.388 . S
C2901 H2888 0.930 . S
C2901 C2900 1.388 . S
C2901 C2902 1.390 . S
C2902 C2901 1.390 . S
C2902 C2903 1.394 . S
C2902 C2908 1.465 1_545 S
C2903 C2898 1.399 . S
C2903 C2902 1.394 . S
C2903 C2904 1.516 1_545 S
C2904 C2903 1.516 1_565 S
C2904 C2905 1.502 1_455 S
C2904 C2906 1.561 . S
C2904 C2907 1.526 . S
C2905 H2889 0.959 . S
C2905 H2890 0.959 . S
C2905 H2891 0.990 . S
C2905 C2904 1.502 1_655 S
C2906 H2892 0.960 . S
C2906 H2893 0.961 . S
C2906 H2894 0.959 . S
C2906 C2904 1.561 . S
C2907 C2904 1.526 . S
C2907 C2908 1.396 . S
C2907 C2912 1.390 . S
C2908 C2902 1.465 1_565 S
C2908 C2907 1.396 . S
C2908 C2909 1.399 . S
C2909 H2895 0.929 . S
C2909 C2908 1.399 . S
C2909 C2910 1.385 . S
C2910 H2896 0.931 . S
C2910 C2909 1.385 . S
C2910 C2911 1.389 . S
C2911 C2910 1.389 . S
C2911 C2912 1.387 . S
C2912 H2897 0.930 . S
C2912 C2907 1.390 . S
C2912 C2911 1.387 . S
H2913 C2925 0.930 . S
H2914 C2927 0.930 . S
H2915 C2928 0.930 . S
H2916 C2932 0.959 1_565 S
H2917 C2932 0.959 . S
H2918 C2932 0.961 . S
H2919 C2933 0.960 . S
H2920 C2933 0.961 . S
H2921 C2933 0.959 . S
H2922 C2936 0.929 . S
H2923 C2937 0.931 . S
H2924 C2939 0.930 . S
C2925 H2913 0.930 . S
C2925 C2926 1.399 . S
C2925 C2930 1.399 . S
C2926 C2925 1.399 . S
C2926 C2927 1.376 . S
C2927 H2914 0.930 . S
C2927 C2926 1.376 . S
C2927 C2928 1.388 . S
C2928 H2915 0.930 . S
C2928 C2927 1.388 . S
C2928 C2929 1.390 . S
C2929 C2928 1.390 . S
C2929 C2930 1.394 . S
C2929 C2935 1.465 . S
C2930 C2925 1.399 . S
C2930 C2929 1.394 . S
C2930 C2931 1.516 . S
C2931 C2930 1.516 . S
C2931 C2932 1.502 1_565 S
C2931 C2933 1.561 1_565 S
C2931 C2934 1.526 . S
C2932 H2916 0.959 1_545 S
C2932 H2917 0.959 . S
C2932 H2918 0.961 . S
C2932 C2931 1.502 1_545 S
C2933 H2919 0.960 . S
C2933 H2920 0.961 . S
C2933 H2921 0.959 . S
C2933 C2931 1.561 1_545 S
C2934 C2931 1.526 . S
C2934 C2935 1.396 . S
C2934 C2939 1.390 . S
C2935 C2929 1.465 . S
C2935 C2934 1.396 . S
C2935 C2936 1.399 . S
C2936 H2922 0.929 . S
C2936 C2935 1.399 . S
C2936 C2937 1.385 . S
C2937 H2923 0.931 . S
C2937 C2936 1.385 . S
C2937 C2938 1.389 . S
C2938 C2937 1.389 . S
C2938 C2939 1.387 . S
C2939 H2924 0.930 . S
C2939 C2934 1.390 . S
C2939 C2938 1.387 . S
H2940 C2952 0.930 . S
H2941 C2954 0.930 . S
H2942 C2955 0.930 . S
H2943 C2959 0.959 . S
H2944 C2959 0.959 . S
H2945 C2959 0.961 . S
H2946 C2960 0.960 . S
H2947 C2960 0.961 . S
H2948 C2960 0.959 . S
H2949 C2963 0.929 . S
H2950 C2964 0.931 . S
H2951 C2966 0.930 . S
C2952 H2940 0.930 . S
C2952 C2953 1.399 . S
C2952 C2957 1.399 . S
C2953 C2952 1.399 . S
C2953 C2954 1.376 . S
C2954 H2941 0.930 . S
C2954 C2953 1.376 . S
C2954 C2955 1.388 . S
C2955 H2942 0.930 . S
C2955 C2954 1.388 . S
C2955 C2956 1.390 . S
C2956 C2955 1.390 . S
C2956 C2957 1.394 . S
C2956 C2962 1.465 . S
C2957 C2952 1.399 . S
C2957 C2956 1.394 . S
C2957 C2958 1.516 . S
C2958 C2957 1.516 . S
C2958 C2959 1.502 . S
C2958 C2960 1.561 . S
C2958 C2961 1.526 . S
C2959 H2943 0.959 . S
C2959 H2944 0.959 . S
C2959 H2945 0.961 . S
C2959 C2958 1.502 . S
C2960 H2946 0.960 . S
C2960 H2947 0.961 . S
C2960 H2948 0.959 . S
C2960 C2958 1.561 . S
C2961 C2958 1.526 . S
C2961 C2962 1.396 . S
C2961 C2966 1.390 . S
C2962 C2956 1.465 . S
C2962 C2961 1.396 . S
C2962 C2963 1.399 . S
C2963 H2949 0.929 . S
C2963 C2962 1.399 . S
C2963 C2964 1.385 . S
C2964 H2950 0.931 . S
C2964 C2963 1.385 . S
C2964 C2965 1.389 . S
C2965 C2964 1.389 . S
C2965 C2966 1.387 . S
C2966 H2951 0.930 . S
C2966 C2961 1.390 . S
C2966 C2965 1.387 . S
H2967 C2979 0.930 . S
H2968 C2981 0.930 . S
H2969 C2982 0.930 . S
H2970 C2986 0.959 . S
H2971 C2986 0.959 . S
H2972 C2986 0.961 . S
H2973 C2987 0.960 . S
H2974 C2987 0.961 1_554 S
H2975 C2987 0.959 1_554 S
H2976 C2990 0.929 . S
H2977 C2991 0.931 . S
H2978 C2993 0.930 . S
C2979 H2967 0.930 . S
C2979 C2980 1.399 . S
C2979 C2984 1.399 . S
C2980 C2979 1.399 . S
C2980 C2981 1.376 . S
C2981 H2968 0.930 . S
C2981 C2980 1.376 . S
C2981 C2982 1.388 . S
C2982 H2969 0.930 . S
C2982 C2981 1.388 . S
C2982 C2983 1.390 . S
C2983 C2982 1.390 . S
C2983 C2984 1.394 . S
C2983 C2989 1.465 1_556 S
C2984 C2979 1.399 . S
C2984 C2983 1.394 . S
C2984 C2985 1.516 . S
C2985 C2984 1.516 . S
C2985 C2986 1.502 . S
C2985 C2987 1.561 1_545 S
C2985 C2988 1.526 1_556 S
C2986 H2970 0.959 . S
C2986 H2971 0.959 . S
C2986 H2972 0.961 . S
C2986 C2985 1.502 . S
C2987 H2973 0.960 . S
C2987 H2974 0.961 1_556 S
C2987 H2975 0.959 1_556 S
C2987 C2985 1.561 1_565 S
C2988 C2985 1.526 1_554 S
C2988 C2989 1.396 . S
C2988 C2993 1.390 . S
C2989 C2983 1.465 1_554 S
C2989 C2988 1.396 . S
C2989 C2990 1.399 . S
C2990 H2976 0.929 . S
C2990 C2989 1.399 . S
C2990 C2991 1.385 . S
C2991 H2977 0.931 . S
C2991 C2990 1.385 . S
C2991 C2992 1.389 . S
C2992 C2991 1.389 . S
C2992 C2993 1.387 . S
C2993 H2978 0.930 . S
C2993 C2988 1.390 . S
C2993 C2992 1.387 . S
H2994 C3006 0.930 . S
H2995 C3008 0.930 . S
H2996 C3009 0.930 . S
H2997 C3013 0.959 . S
H2998 C3013 0.959 . S
H2999 C3013 0.961 . S
H3000 C3014 0.924 1_556 S
H3001 C3014 0.987 . S
H3002 C3014 0.979 . S
H3003 C3017 0.929 . S
H3004 C3018 0.931 . S
H3005 C3020 0.930 . S
C3006 H2994 0.930 . S
C3006 C3007 1.399 . S
C3006 C3011 1.399 . S
C3007 C3006 1.399 . S
C3007 C3008 1.376 . S
C3008 H2995 0.930 . S
C3008 C3007 1.376 . S
C3008 C3009 1.388 . S
C3009 H2996 0.930 . S
C3009 C3008 1.388 . S
C3009 C3010 1.390 . S
C3010 C3009 1.390 . S
C3010 C3011 1.394 . S
C3010 C3016 1.465 1_556 S
C3011 C3006 1.399 . S
C3011 C3010 1.394 . S
C3011 C3012 1.516 . S
C3012 C3011 1.516 . S
C3012 C3013 1.502 . S
C3012 C3014 1.553 1_556 S
C3012 C3015 1.526 1_556 S
C3013 H2997 0.959 . S
C3013 H2998 0.959 . S
C3013 H2999 0.961 . S
C3013 C3012 1.502 . S
C3014 H3000 0.924 1_554 S
C3014 H3001 0.987 . S
C3014 H3002 0.979 . S
C3014 C3012 1.553 1_554 S
C3015 C3012 1.526 1_554 S
C3015 C3016 1.396 . S
C3015 C3020 1.390 . S
C3016 C3010 1.465 1_554 S
C3016 C3015 1.396 . S
C3016 C3017 1.399 . S
C3017 H3003 0.929 . S
C3017 C3016 1.399 . S
C3017 C3018 1.385 . S
C3018 H3004 0.931 . S
C3018 C3017 1.385 . S
C3018 C3019 1.389 . S
C3019 C3018 1.389 . S
C3019 C3020 1.387 . S
C3020 H3005 0.930 . S
C3020 C3015 1.390 . S
C3020 C3019 1.387 . S
H3021 C3033 0.930 . S
H3022 C3035 0.930 . S
H3023 C3036 0.930 . S
H3024 C3040 0.959 . S
H3025 C3040 0.959 . S
H3026 C3040 0.961 . S
H3027 C3041 0.960 . S
H3028 C3041 0.960 . S
H3029 C3041 0.960 1_556 S
H3030 C3044 0.929 . S
H3031 C3045 0.931 . S
H3032 C3047 0.930 . S
C3033 H3021 0.930 . S
C3033 C3034 1.399 . S
C3033 C3038 1.399 . S
C3034 C3033 1.399 . S
C3034 C3035 1.376 . S
C3035 H3022 0.930 . S
C3035 C3034 1.376 . S
C3035 C3036 1.388 . S
C3036 H3023 0.930 . S
C3036 C3035 1.388 . S
C3036 C3037 1.390 . S
C3037 C3036 1.390 . S
C3037 C3038 1.394 . S
C3037 C3043 1.465 . S
C3038 C3033 1.399 . S
C3038 C3037 1.394 . S
C3038 C3039 1.516 . S
C3039 C3038 1.516 . S
C3039 C3040 1.502 1_556 S
C3039 C3041 1.562 1_556 S
C3039 C3042 1.526 . S
C3040 H3024 0.959 . S
C3040 H3025 0.959 . S
C3040 H3026 0.961 . S
C3040 C3039 1.502 1_554 S
C3041 H3027 0.960 . S
C3041 H3028 0.960 . S
C3041 H3029 0.960 1_554 S
C3041 C3039 1.562 1_554 S
C3042 C3039 1.526 . S
C3042 C3043 1.396 . S
C3042 C3047 1.390 . S
C3043 C3037 1.465 . S
C3043 C3042 1.396 . S
C3043 C3044 1.399 . S
C3044 H3030 0.929 . S
C3044 C3043 1.399 . S
C3044 C3045 1.385 . S
C3045 H3031 0.931 . S
C3045 C3044 1.385 . S
C3045 C3046 1.389 . S
C3046 C3045 1.389 . S
C3046 C3047 1.387 . S
C3047 H3032 0.930 . S
C3047 C3042 1.390 . S
C3047 C3046 1.387 . S
H3048 C3060 0.930 . S
H3049 C3062 0.930 . S
H3050 C3063 0.930 . S
H3051 C3067 0.959 . S
H3052 C3067 0.959 . S
H3053 C3067 0.961 . S
H3054 C3068 0.960 . S
H3055 C3068 0.961 . S
H3056 C3068 0.959 . S
H3057 C3071 0.929 . S
H3058 C3072 0.931 . S
H3059 C3074 0.930 . S
C3060 H3048 0.930 . S
C3060 C3061 1.399 . S
C3060 C3065 1.399 . S
C3061 C3060 1.399 . S
C3061 C3062 1.376 . S
C3062 H3049 0.930 . S
C3062 C3061 1.376 . S
C3062 C3063 1.388 . S
C3063 H3050 0.930 . S
C3063 C3062 1.388 . S
C3063 C3064 1.390 . S
C3064 C3063 1.390 . S
C3064 C3065 1.394 . S
C3064 C3070 1.465 . S
C3065 C3060 1.399 . S
C3065 C3064 1.394 . S
C3065 C3066 1.516 . S
C3066 C3065 1.516 . S
C3066 C3067 1.502 . S
C3066 C3068 1.561 . S
C3066 C3069 1.526 . S
C3067 H3051 0.959 . S
C3067 H3052 0.959 . S
C3067 H3053 0.961 . S
C3067 C3066 1.502 . S
C3068 H3054 0.960 . S
C3068 H3055 0.961 . S
C3068 H3056 0.959 . S
C3068 C3066 1.561 . S
C3069 C3066 1.526 . S
C3069 C3070 1.396 . S
C3069 C3074 1.390 . S
C3070 C3064 1.465 . S
C3070 C3069 1.396 . S
C3070 C3071 1.399 . S
C3071 H3057 0.929 . S
C3071 C3070 1.399 . S
C3071 C3072 1.385 . S
C3072 H3058 0.931 . S
C3072 C3071 1.385 . S
C3072 C3073 1.389 . S
C3073 C3072 1.389 . S
C3073 C3074 1.387 . S
C3074 H3059 0.930 . S
C3074 C3069 1.390 . S
C3074 C3073 1.387 . S
H3075 C3087 0.930 . S
H3076 C3089 0.930 . S
H3077 C3090 0.930 . S
H3078 C3094 0.959 . S
H3079 C3094 0.959 . S
H3080 C3094 0.961 . S
H3081 C3095 0.960 1_655 S
H3082 C3095 0.961 . S
H3083 C3095 0.959 . S
H3084 C3098 0.929 . S
H3085 C3099 0.931 . S
H3086 C3101 0.930 . S
C3087 H3075 0.930 . S
C3087 C3088 1.399 . S
C3087 C3092 1.399 . S
C3088 C3087 1.399 . S
C3088 C3089 1.376 . S
C3089 H3076 0.930 . S
C3089 C3088 1.376 . S
C3089 C3090 1.388 . S
C3090 H3077 0.930 . S
C3090 C3089 1.388 . S
C3090 C3091 1.390 . S
C3091 C3090 1.390 . S
C3091 C3092 1.394 . S
C3091 C3097 1.465 1_655 S
C3092 C3087 1.399 . S
C3092 C3091 1.394 . S
C3092 C3093 1.516 . S
C3093 C3092 1.516 . S
C3093 C3094 1.502 . S
C3093 C3095 1.561 1_655 S
C3093 C3096 1.526 1_655 S
C3094 H3078 0.959 . S
C3094 H3079 0.959 . S
C3094 H3080 0.961 . S
C3094 C3093 1.502 . S
C3095 H3081 0.960 1_455 S
C3095 H3082 0.961 . S
C3095 H3083 0.959 . S
C3095 C3093 1.561 1_455 S
C3096 C3093 1.526 1_455 S
C3096 C3097 1.396 . S
C3096 C3101 1.390 . S
C3097 C3091 1.465 1_455 S
C3097 C3096 1.396 . S
C3097 C3098 1.399 . S
C3098 H3084 0.929 . S
C3098 C3097 1.399 . S
C3098 C3099 1.385 . S
C3099 H3085 0.931 . S
C3099 C3098 1.385 . S
C3099 C3100 1.389 . S
C3100 C3099 1.389 . S
C3100 C3101 1.387 . S
C3101 H3086 0.930 . S
C3101 C3096 1.390 . S
C3101 C3100 1.387 . S
H3102 C3114 0.930 . S
H3103 C3116 0.930 . S
H3104 C3117 0.930 . S
H3105 C3121 0.959 . S
H3106 C3121 0.959 . S
H3107 C3121 0.961 . S
H3108 C3122 0.960 . S
H3109 C3122 0.961 . S
H3110 C3122 0.959 . S
H3111 C3125 0.929 . S
H3112 C3126 0.931 . S
H3113 C3128 0.930 . S
C3114 H3102 0.930 . S
C3114 C3115 1.399 . S
C3114 C3119 1.399 . S
C3115 C3114 1.399 . S
C3115 C3116 1.376 . S
C3116 H3103 0.930 . S
C3116 C3115 1.376 . S
C3116 C3117 1.388 . S
C3117 H3104 0.930 . S
C3117 C3116 1.388 . S
C3117 C3118 1.390 . S
C3118 C3117 1.390 . S
C3118 C3119 1.394 . S
C3118 C3124 1.465 1_545 S
C3119 C3114 1.399 . S
C3119 C3118 1.394 . S
C3119 C3120 1.516 . S
C3120 C3119 1.516 . S
C3120 C3121 1.502 . S
C3120 C3122 1.561 . S
C3120 C3123 1.526 1_545 S
C3121 H3105 0.959 . S
C3121 H3106 0.959 . S
C3121 H3107 0.961 . S
C3121 C3120 1.502 . S
C3122 H3108 0.960 . S
C3122 H3109 0.961 . S
C3122 H3110 0.959 . S
C3122 C3120 1.561 . S
C3123 C3120 1.526 1_565 S
C3123 C3124 1.396 . S
C3123 C3128 1.390 . S
C3124 C3118 1.465 1_565 S
C3124 C3123 1.396 . S
C3124 C3125 1.399 . S
C3125 H3111 0.929 . S
C3125 C3124 1.399 . S
C3125 C3126 1.385 . S
C3126 H3112 0.931 . S
C3126 C3125 1.385 . S
C3126 C3127 1.389 . S
C3127 C3126 1.389 . S
C3127 C3128 1.387 . S
C3128 H3113 0.930 . S
C3128 C3123 1.390 . S
C3128 C3127 1.387 . S
H3129 C3141 0.930 . S
H3130 C3143 0.930 . S
H3131 C3144 0.930 . S
H3132 C3148 0.959 . S
H3133 C3148 0.959 . S
H3134 C3148 0.961 . S
H3135 C3149 0.960 . S
H3136 C3149 0.961 . S
H3137 C3149 0.959 . S
H3138 C3152 0.929 . S
H3139 C3153 0.931 . S
H3140 C3155 0.930 . S
C3141 H3129 0.930 . S
C3141 C3142 1.399 . S
C3141 C3146 1.399 . S
C3142 C3141 1.399 . S
C3142 C3143 1.376 . S
C3143 H3130 0.930 . S
C3143 C3142 1.376 . S
C3143 C3144 1.388 . S
C3144 H3131 0.930 . S
C3144 C3143 1.388 . S
C3144 C3145 1.390 . S
C3145 C3144 1.390 . S
C3145 C3146 1.394 . S
C3145 C3151 1.465 . S
C3146 C3141 1.399 . S
C3146 C3145 1.394 . S
C3146 C3147 1.516 . S
C3147 C3146 1.516 . S
C3147 C3148 1.502 . S
C3147 C3149 1.561 . S
C3147 C3150 1.526 . S
C3148 H3132 0.959 . S
C3148 H3133 0.959 . S
C3148 H3134 0.961 . S
C3148 C3147 1.502 . S
C3149 H3135 0.960 . S
C3149 H3136 0.961 . S
C3149 H3137 0.959 . S
C3149 C3147 1.561 . S
C3150 C3147 1.526 . S
C3150 C3151 1.396 . S
C3150 C3155 1.390 . S
C3151 C3145 1.465 . S
C3151 C3150 1.396 . S
C3151 C3152 1.399 . S
C3152 H3138 0.929 . S
C3152 C3151 1.399 . S
C3152 C3153 1.385 . S
C3153 H3139 0.931 . S
C3153 C3152 1.385 . S
C3153 C3154 1.389 . S
C3154 C3153 1.389 . S
C3154 C3155 1.387 . S
C3155 H3140 0.930 . S
C3155 C3150 1.390 . S
C3155 C3154 1.387 . S
H3156 C3168 0.930 . S
H3157 C3170 0.930 . S
H3158 C3171 0.930 1_554 S
H3159 C3175 0.959 . S
H3160 C3175 0.953 1_655 S
H3161 C3175 0.961 . S
H3162 C3176 0.960 1_455 S
H3163 C3176 0.961 . S
H3164 C3176 0.959 . S
H3165 C3179 0.929 1_554 S
H3166 C3180 0.931 . S
H3167 C3182 0.930 . S
C3168 H3156 0.930 . S
C3168 C3169 1.399 . S
C3168 C3173 1.399 . S
C3169 C3168 1.399 . S
C3169 C3170 1.376 . S
C3170 H3157 0.930 . S
C3170 C3169 1.376 . S
C3170 C3171 1.388 . S
C3171 H3158 0.930 1_556 S
C3171 C3170 1.388 . S
C3171 C3172 1.390 . S
C3172 C3171 1.390 . S
C3172 C3173 1.394 . S
C3172 C3178 1.465 1_455 S
C3173 C3168 1.399 . S
C3173 C3172 1.394 . S
C3173 C3174 1.516 . S
C3174 C3173 1.516 . S
C3174 C3175 1.502 . S
C3174 C3176 1.561 1_455 S
C3174 C3177 1.526 1_455 S
C3175 H3159 0.959 . S
C3175 H3160 0.953 1_455 S
C3175 H3161 0.961 . S
C3175 C3174 1.502 . S
C3176 H3162 0.960 1_655 S
C3176 H3163 0.961 . S
C3176 H3164 0.959 . S
C3176 C3174 1.561 1_655 S
C3177 C3174 1.526 1_655 S
C3177 C3178 1.396 . S
C3177 C3182 1.390 . S
C3178 C3172 1.465 1_655 S
C3178 C3177 1.396 . S
C3178 C3179 1.399 . S
C3179 H3165 0.929 1_556 S
C3179 C3178 1.399 . S
C3179 C3180 1.385 . S
C3180 H3166 0.931 . S
C3180 C3179 1.385 . S
C3180 C3181 1.389 . S
C3181 C3180 1.389 . S
C3181 C3182 1.387 . S
C3182 H3167 0.930 . S
C3182 C3177 1.390 . S
C3182 C3181 1.387 . S
H3183 C3195 0.930 . S
H3184 C3197 0.930 . S
H3185 C3198 0.930 . S
H3186 C3202 0.959 1_565 S
H3187 C3202 0.959 1_565 S
H3188 C3202 0.961 . S
H3189 C3203 0.960 . S
H3190 C3203 0.961 . S
H3191 C3203 0.959 . S
H3192 C3206 0.929 . S
H3193 C3207 0.931 . S
H3194 C3209 0.930 . S
C3195 H3183 0.930 . S
C3195 C3196 1.399 . S
C3195 C3200 1.399 . S
C3196 C3195 1.399 . S
C3196 C3197 1.376 . S
C3197 H3184 0.930 . S
C3197 C3196 1.376 . S
C3197 C3198 1.388 . S
C3198 H3185 0.930 . S
C3198 C3197 1.388 . S
C3198 C3199 1.390 . S
C3199 C3198 1.390 . S
C3199 C3200 1.394 . S
C3199 C3205 1.465 1_545 S
C3200 C3195 1.399 . S
C3200 C3199 1.394 . S
C3200 C3201 1.516 . S
C3201 C3200 1.516 . S
C3201 C3202 1.502 . S
C3201 C3203 1.561 . S
C3201 C3204 1.526 1_545 S
C3202 H3186 0.959 1_545 S
C3202 H3187 0.959 1_545 S
C3202 H3188 0.961 . S
C3202 C3201 1.502 . S
C3203 H3189 0.960 . S
C3203 H3190 0.961 . S
C3203 H3191 0.959 . S
C3203 C3201 1.561 . S
C3204 C3201 1.526 1_565 S
C3204 C3205 1.396 . S
C3204 C3209 1.390 . S
C3205 C3199 1.465 1_565 S
C3205 C3204 1.396 . S
C3205 C3206 1.399 . S
C3206 H3192 0.929 . S
C3206 C3205 1.399 . S
C3206 C3207 1.385 . S
C3207 H3193 0.931 . S
C3207 C3206 1.385 . S
C3207 C3208 1.389 . S
C3208 C3207 1.389 . S
C3208 C3209 1.387 . S
C3209 H3194 0.930 . S
C3209 C3204 1.390 . S
C3209 C3208 1.387 . S
H3210 C3222 0.930 . S
H3211 C3224 0.930 . S
H3212 C3225 0.930 . S
H3213 C3229 0.959 . S
H3214 C3229 0.959 . S
H3215 C3229 0.961 . S
H3216 C3230 0.960 . S
H3217 C3230 0.961 . S
H3218 C3230 0.959 . S
H3219 C3233 0.929 . S
H3220 C3234 0.931 . S
H3221 C3236 0.930 . S
C3222 H3210 0.930 . S
C3222 C3223 1.399 . S
C3222 C3227 1.399 . S
C3223 C3222 1.399 . S
C3223 C3224 1.376 . S
C3224 H3211 0.930 . S
C3224 C3223 1.376 . S
C3224 C3225 1.388 . S
C3225 H3212 0.930 . S
C3225 C3224 1.388 . S
C3225 C3226 1.390 . S
C3226 C3225 1.390 . S
C3226 C3227 1.394 . S
C3226 C3232 1.465 . S
C3227 C3222 1.399 . S
C3227 C3226 1.394 . S
C3227 C3228 1.516 . S
C3228 C3227 1.516 . S
C3228 C3229 1.502 . S
C3228 C3230 1.561 . S
C3228 C3231 1.526 . S
C3229 H3213 0.959 . S
C3229 H3214 0.959 . S
C3229 H3215 0.961 . S
C3229 C3228 1.502 . S
C3230 H3216 0.960 . S
C3230 H3217 0.961 . S
C3230 H3218 0.959 . S
C3230 C3228 1.561 . S
C3231 C3228 1.526 . S
C3231 C3232 1.396 . S
C3231 C3236 1.390 . S
C3232 C3226 1.465 . S
C3232 C3231 1.396 . S
C3232 C3233 1.399 . S
C3233 H3219 0.929 . S
C3233 C3232 1.399 . S
C3233 C3234 1.385 . S
C3234 H3220 0.931 . S
C3234 C3233 1.385 . S
C3234 C3235 1.389 . S
C3235 C3234 1.389 . S
C3235 C3236 1.387 . S
C3236 H3221 0.930 . S
C3236 C3231 1.390 . S
C3236 C3235 1.387 . S
H3237 C3249 0.930 . S
H3238 C3251 0.930 . S
H3239 C3252 0.930 . S
H3240 C3256 0.959 . S
H3241 C3256 0.959 1_655 S
H3242 C3256 0.961 . S
H3243 C3257 0.964 1_455 S
H3244 C3257 0.961 . S
H3245 C3257 0.959 1_554 S
H3246 C3260 0.929 . S
H3247 C3261 0.931 . S
H3248 C3263 0.930 . S
C3249 H3237 0.930 . S
C3249 C3250 1.399 . S
C3249 C3254 1.399 . S
C3250 C3249 1.399 . S
C3250 C3251 1.376 . S
C3251 H3238 0.930 . S
C3251 C3250 1.376 . S
C3251 C3252 1.388 . S
C3252 H3239 0.930 . S
C3252 C3251 1.388 . S
C3252 C3253 1.390 . S
C3253 C3252 1.390 . S
C3253 C3254 1.394 . S
C3253 C3259 1.465 1_455 S
C3254 C3249 1.399 . S
C3254 C3253 1.394 . S
C3254 C3255 1.516 1_455 S
C3255 C3254 1.516 1_655 S
C3255 C3256 1.502 1_654 S
C3255 C3257 1.561 1_554 S
C3255 C3258 1.526 . S
C3256 H3240 0.959 . S
C3256 H3241 0.959 1_455 S
C3256 H3242 0.961 . S
C3256 C3255 1.502 1_456 S
C3257 H3243 0.964 1_655 S
C3257 H3244 0.961 . S
C3257 H3245 0.959 1_556 S
C3257 C3255 1.561 1_556 S
C3258 C3255 1.526 . S
C3258 C3259 1.396 . S
C3258 C3263 1.390 . S
C3259 C3253 1.465 1_655 S
C3259 C3258 1.396 . S
C3259 C3260 1.399 . S
C3260 H3246 0.929 . S
C3260 C3259 1.399 . S
C3260 C3261 1.385 . S
C3261 H3247 0.931 . S
C3261 C3260 1.385 . S
C3261 C3262 1.389 . S
C3262 C3261 1.389 . S
C3262 C3263 1.387 . S
C3263 H3248 0.930 . S
C3263 C3258 1.390 . S
C3263 C3262 1.387 . S
C685 C22 1.686 . S
C697 C8 1.702 . S
C712 C36 1.731 . S
C724 C50 1.723 . S
C739 C92 1.713 . S
C751 C64 1.729 . S
C766 C106 1.708 . S
C778 C78 1.726 . S
C793 C120 1.685 . S
C805 C484 1.690 . S
C820 C134 1.686 . S
C832 C162 1.687 . S
C847 C456 1.685 . S
C859 C148 1.690 . S
C874 C190 1.713 . S
C886 C176 1.731 . S
C901 C218 1.712 . S
C913 C204 1.731 . S
C928 C260 1.728 . S
C940 C232 1.698 . S
C955 C274 1.689 . S
C967 C246 1.721 . S
C982 C288 1.717 . S
C994 C652 1.730 . S
C1009 C302 1.702 . S
C1021 C330 1.685 . S
C1036 C624 1.722 . S
C1048 C316 1.728 . S
C1063 C344 1.687 . S
C1075 C358 1.703 . S
C1090 C386 1.731 . S
C1102 C372 1.718 . S
C1117 C400 1.702 . S
C1129 C428 1.687 . S
C1144 C442 1.727 . S
C1156 C414 1.730 . S
C1171 C498 1.690 . S
C1183 C470 1.709 . S
C1198 C526 1.715 . S
C1210 C512 1.731 . S
C1225 C540 1.712 . S
C1237 C554 1.731 . S
C1252 C596 1.731 . S
C1264 C568 1.709 . S
C1279 C582 1.729 . S
C1291 C610 1.719 . S
C1306 C638 1.690 . S
C1318 C666 1.691 . S
C1333 C619 1.332 . S
C1345 C7 1.281 . S
C1360 C325 1.309 . S
C1372 C21 1.289 . S
C1387 C633 1.331 . S
C1399 C35 1.282 . S
C1414 C49 1.336 . S
C1426 C647 1.283 . S
C1441 C63 1.240 . S
C1453 C507 1.352 . S
C1468 C521 1.290 . S
C1480 C77 1.332 . S
C1495 C91 1.257 . S
C1507 C535 1.333 . S
C1522 C549 1.285 . S
C1534 C105 1.327 . S
C1549 C563 1.284 . S
C1561 C119 1.335 . S
C1576 C133 1.287 . S
C1588 C591 1.311 . S
C1603 C605 1.353 . S
C1615 C147 1.242 . S
C1630 C161 1.293 . S
C1642 C241 1.323 . S
C1657 C175 1.246 . S
C1669 C451 1.324 . S
C1684 C189 1.262 . S
C1696 C157 1.308 . S
C1711 C203 1.287 . S
C1723 C465 1.345 . S
C1738 C217 1.306 . S
C1750 C479 1.285 . S
C1765 C339 1.344 . S
C1777 C231 1.241 . S
C1792 C353 1.343 . S
C1804 C245 1.240 . S
C1819 C259 1.240 . S
C1831 C367 1.345 . S
C1846 C273 1.296 . S
C1858 C381 1.341 . S
C1873 C287 1.333 . S
C1885 C395 1.286 . S
C1900 C301 1.335 . S
C1912 C423 1.289 . S
C1927 C437 1.282 . S
C1939 C315 1.321 . S
C1954 C73 1.328 . S
C1966 C329 1.315 . S
C1981 C343 1.239 . S
C1993 C283 1.351 . S
C2008 C357 1.320 . S
C2020 C661 1.303 . S
C2035 C371 1.334 . S
C2047 C297 1.283 . S
C2062 C385 1.241 . S
C2074 C311 1.352 . S
C2089 C171 1.349 . S
C2101 C399 1.252 . S
C2116 C413 1.251 . S
C2128 C185 1.349 . S
C2143 C199 1.283 . S
C2155 C427 1.331 . S
C2170 C213 1.296 . S
C2182 C441 1.308 . S
C2197 C227 1.295 . S
C2209 C455 1.327 . S
C2224 C255 1.299 . S
C2236 C469 1.323 . S
C2251 C483 1.281 . S
C2263 C269 1.315 . S
C2278 C497 1.265 . S
C2290 C577 1.326 . S
C2305 C115 1.346 . S
C2317 C511 1.241 . S
C2332 C525 1.319 . S
C2344 C493 1.283 . S
C2359 C539 1.298 . S
C2371 C129 1.287 . S
C2386 C143 1.283 . S
C2398 C553 1.327 . S
C2413 C567 1.276 . S
C2425 C3 1.349 . S
C2440 C581 1.291 . S
C2452 C17 1.343 . S
C2467 C31 1.352 . S
C2479 C595 1.251 . S
C2494 C609 1.316 . S
C2506 C45 1.283 . S
C2521 C623 1.336 . S
C2533 C59 1.301 . S
C2548 C87 1.312 . S
C2560 C637 1.258 . S
C2575 C651 1.240 . S
C2587 C101 1.344 . S
C2602 C409 1.293 . S
C2614 C665 1.284 . S
C2629 C37 0.902 . S
C2641 C9 0.869 . S
C2656 C51 0.992 . S
C2668 C23 0.977 . S
C2683 C443 0.858 . S
C2695 C65 0.884 . S
C2710 C429 0.989 . S
C2722 C79 0.965 . S
C2737 C415 0.868 . S
C2749 C93 0.902 . S
C2764 C107 0.859 . S
C2776 C401 0.885 . S
C2791 C121 0.989 . S
C2803 C499 0.965 . S
C2818 C149 0.966 . S
C2830 C135 0.928 . S
C2845 C163 0.863 . S
C2857 C457 0.894 . S
C2872 C205 0.963 . S
C2884 C177 0.885 . S
C2899 C219 0.855 . S
C2911 C191 0.905 . S
C2926 C611 0.902 . S
C2938 C233 0.857 . S
C2953 C597 0.951 . S
C2965 C247 0.991 . S
C2980 C261 0.928 . S
C2992 C583 0.861 . S
C3007 C275 0.918 . S
C3019 C569 0.858 . S
C3034 C667 0.876 . S
C3046 C289 0.864 . S
C3061 C317 0.964 . S
C3073 C303 0.988 . S
C3088 C331 0.913 . S
C3100 C625 0.857 . S
C3115 C373 0.910 . S
C3127 C345 0.874 . S
C3142 C359 0.873 . S
C3154 C387 0.857 . S
C3169 C485 0.989 . S
C3181 C471 0.966 . S
C3196 C513 0.988 . S
C3208 C541 0.968 . S
C3223 C527 0.861 . S
C3235 C555 0.930 . S
C3250 C639 0.878 . S
C3262 C653 0.863 . S
