# Generated by pormake.
# Topology umd, (4)-cn, num edge types: 1
# Building blocks:
#     Node 0, Type 0, BuildingBlock: GALJAG_clean_sbu_0, # of connection points: 4
#     Node 1, Type 0, BuildingBlock: GALJAG_clean_sbu_0, # of connection points: 4
#     Node 2, Type 0, BuildingBlock: GALJAG_clean_sbu_0, # of connection points: 4
#     Node 3, Type 0, BuildingBlock: GALJAG_clean_sbu_0, # of connection points: 4
#     Node 4, Type 0, BuildingBlock: GALJAG_clean_sbu_0, # of connection points: 4
#     Node 5, Type 0, BuildingBlock: GALJAG_clean_sbu_0, # of connection points: 4
#     Node 6, Type 0, BuildingBlock: GALJAG_clean_sbu_0, # of connection points: 4
#     Node 7, Type 0, BuildingBlock: GALJAG_clean_sbu_0, # of connection points: 4
#     Node 8, Type 0, BuildingBlock: GALJAG_clean_sbu_0, # of connection points: 4
#     Node 9, Type 0, BuildingBlock: GALJAG_clean_sbu_0, # of connection points: 4
#     Node 10, Type 0, BuildingBlock: GALJAG_clean_sbu_0, # of connection points: 4
#     Node 11, Type 0, BuildingBlock: GALJAG_clean_sbu_0, # of connection points: 4
#     Node 12, Type 0, BuildingBlock: GALJAG_clean_sbu_0, # of connection points: 4
#     Node 13, Type 0, BuildingBlock: GALJAG_clean_sbu_0, # of connection points: 4
#     Node 14, Type 0, BuildingBlock: GALJAG_clean_sbu_0, # of connection points: 4
#     Node 15, Type 0, BuildingBlock: GALJAG_clean_sbu_0, # of connection points: 4
#     Edge 16, Type (0, 0), BuildingBlock: OJICUG_clean_linker_0, # of connection points: 2
#     Edge 17, Type (0, 0), BuildingBlock: OJICUG_clean_linker_0, # of connection points: 2
#     Edge 18, Type (0, 0), BuildingBlock: OJICUG_clean_linker_0, # of connection points: 2
#     Edge 19, Type (0, 0), BuildingBlock: OJICUG_clean_linker_0, # of connection points: 2
#     Edge 20, Type (0, 0), BuildingBlock: OJICUG_clean_linker_0, # of connection points: 2
#     Edge 21, Type (0, 0), BuildingBlock: OJICUG_clean_linker_0, # of connection points: 2
#     Edge 22, Type (0, 0), BuildingBlock: OJICUG_clean_linker_0, # of connection points: 2
#     Edge 23, Type (0, 0), BuildingBlock: OJICUG_clean_linker_0, # of connection points: 2
#     Edge 24, Type (0, 0), BuildingBlock: OJICUG_clean_linker_0, # of connection points: 2
#     Edge 25, Type (0, 0), BuildingBlock: OJICUG_clean_linker_0, # of connection points: 2
#     Edge 26, Type (0, 0), BuildingBlock: OJICUG_clean_linker_0, # of connection points: 2
#     Edge 27, Type (0, 0), BuildingBlock: OJICUG_clean_linker_0, # of connection points: 2
#     Edge 28, Type (0, 0), BuildingBlock: OJICUG_clean_linker_0, # of connection points: 2
#     Edge 29, Type (0, 0), BuildingBlock: OJICUG_clean_linker_0, # of connection points: 2
#     Edge 30, Type (0, 0), BuildingBlock: OJICUG_clean_linker_0, # of connection points: 2
#     Edge 31, Type (0, 0), BuildingBlock: OJICUG_clean_linker_0, # of connection points: 2
#     Edge 32, Type (0, 0), BuildingBlock: OJICUG_clean_linker_0, # of connection points: 2
#     Edge 33, Type (0, 0), BuildingBlock: OJICUG_clean_linker_0, # of connection points: 2
#     Edge 34, Type (0, 0), BuildingBlock: OJICUG_clean_linker_0, # of connection points: 2
#     Edge 35, Type (0, 0), BuildingBlock: OJICUG_clean_linker_0, # of connection points: 2
#     Edge 36, Type (0, 0), BuildingBlock: OJICUG_clean_linker_0, # of connection points: 2
#     Edge 37, Type (0, 0), BuildingBlock: OJICUG_clean_linker_0, # of connection points: 2
#     Edge 38, Type (0, 0), BuildingBlock: OJICUG_clean_linker_0, # of connection points: 2
#     Edge 39, Type (0, 0), BuildingBlock: OJICUG_clean_linker_0, # of connection points: 2
#     Edge 40, Type (0, 0), BuildingBlock: OJICUG_clean_linker_0, # of connection points: 2
#     Edge 41, Type (0, 0), BuildingBlock: OJICUG_clean_linker_0, # of connection points: 2
#     Edge 42, Type (0, 0), BuildingBlock: OJICUG_clean_linker_0, # of connection points: 2
#     Edge 43, Type (0, 0), BuildingBlock: OJICUG_clean_linker_0, # of connection points: 2
#     Edge 44, Type (0, 0), BuildingBlock: OJICUG_clean_linker_0, # of connection points: 2
#     Edge 45, Type (0, 0), BuildingBlock: OJICUG_clean_linker_0, # of connection points: 2
#     Edge 46, Type (0, 0), BuildingBlock: OJICUG_clean_linker_0, # of connection points: 2
#     Edge 47, Type (0, 0), BuildingBlock: OJICUG_clean_linker_0, # of connection points: 2
# Relax obj value: 0.079
# Max RMSD: 0.208
# Mean RMSD: 0.208
data_MOF--net-umd--node1-GALJAG_clean_sbu_0--edge1-OJICUG_clean_linker_0
_symmetry_space_group_name_H-M    P1
_symmetry_Int_Tables_number       1
_symmetry_cell_setting            triclinic
loop_
_symmetry_equiv_pos_as_xyz
'x, y, z'
_cell_length_a     29.188396
_cell_length_b     29.190918
_cell_length_c     41.652935
_cell_angle_alpha  90.0
_cell_angle_beta   90.000025
_cell_angle_gamma 89.947444
loop_
_atom_site_label
_atom_site_type_symbol
_atom_site_fract_x
_atom_site_fract_y
_atom_site_fract_z
_atom_type_partial_charge
In0 In 0.17722 0.44494 0.12803 0.0
O1 O 0.1898 0.36741 0.1316 0.0
O2 O 0.24352 0.41144 0.11509 0.0
C3 C 0.09053 0.46952 0.14054 0.0
C4 C 0.17364 0.46358 0.06526 0.0
C5 C 0.21335 0.47471 0.1831 0.0
O6 O 0.10252 0.42769 0.13938 0.0
O7 O 0.1224 0.49804 0.13599 0.0
O8 O 0.21548 0.49856 0.15765 0.0
O9 O 0.19372 0.43639 0.18023 0.0
C10 C 0.23078 0.37112 0.12164 0.0
O11 O 0.20019 0.4858 0.08373 0.0
O12 O 0.14973 0.43306 0.07875 0.0
In13 In 0.5666 0.17521 0.62667 0.0
O14 O 0.52391 0.19978 0.5837 0.0
O15 O 0.57194 0.14495 0.57758 0.0
C16 C 0.54007 0.21318 0.68203 0.0
C17 C 0.6419 0.22517 0.61648 0.0
C18 C 0.54058 0.0896 0.64068 0.0
O19 O 0.51544 0.21557 0.65697 0.0
O20 O 0.57796 0.19286 0.67854 0.0
O21 O 0.58259 0.10011 0.63764 0.0
O22 O 0.51274 0.1224 0.63726 0.0
C23 C 0.5423 0.17085 0.56491 0.0
O24 O 0.64466 0.18534 0.62859 0.0
O25 O 0.60184 0.23865 0.60993 0.0
In26 In 0.81543 0.55194 0.12587 0.0
O27 O 0.78959 0.50766 0.08397 0.0
O28 O 0.84517 0.55426 0.07653 0.0
C29 C 0.77746 0.52737 0.18172 0.0
C30 C 0.76567 0.6275 0.11504 0.0
C31 C 0.90208 0.52865 0.13993 0.0
O32 O 0.7762 0.50125 0.15738 0.0
O33 O 0.79694 0.56543 0.17731 0.0
O34 O 0.89027 0.57012 0.13583 0.0
O35 O 0.86999 0.49982 0.13763 0.0
C36 C 0.81869 0.52455 0.06466 0.0
O37 O 0.80574 0.6301 0.12672 0.0
O38 O 0.75192 0.58743 0.10892 0.0
In39 In 0.44732 0.81874 0.62582 0.0
O40 O 0.3687 0.81478 0.62725 0.0
O41 O 0.40707 0.75892 0.60771 0.0
C42 C 0.47476 0.90384 0.64048 0.0
C43 C 0.47536 0.82047 0.56468 0.0
C44 C 0.46986 0.77808 0.68124 0.0
O45 O 0.43279 0.89412 0.63637 0.0
O46 O 0.50207 0.87046 0.63788 0.0
O47 O 0.49612 0.77641 0.657 0.0
O48 O 0.43265 0.79918 0.67693 0.0
C49 C 0.36822 0.77526 0.61458 0.0
O50 O 0.48966 0.78986 0.58388 0.0
O51 O 0.44788 0.84923 0.57664 0.0
In52 In 0.17601 0.56669 0.36619 0.0
O53 O 0.18565 0.64482 0.3646 0.0
O54 O 0.23901 0.60223 0.38344 0.0
C55 C 0.09049 0.54053 0.35196 0.0
C56 C 0.17171 0.54145 0.42776 0.0
C57 C 0.21436 0.54101 0.31075 0.0
O58 O 0.10084 0.58253 0.35532 0.0
O59 O 0.1234 0.51277 0.35515 0.0
O60 O 0.21673 0.51608 0.33567 0.0
O61 O 0.19387 0.57875 0.31442 0.0
C62 C 0.22537 0.64223 0.37693 0.0
O63 O 0.20092 0.52366 0.4089 0.0
O64 O 0.14551 0.57096 0.41525 0.0
In65 In 0.44248 0.17622 0.86451 0.0
O66 O 0.48336 0.19857 0.90893 0.0
O67 O 0.42983 0.14889 0.91374 0.0
C68 C 0.47254 0.21197 0.80942 0.0
C69 C 0.36938 0.23071 0.87084 0.0
C70 C 0.46698 0.08951 0.8521 0.0
O71 O 0.49626 0.21426 0.83494 0.0
O72 O 0.43419 0.19237 0.81224 0.0
O73 O 0.42515 0.10153 0.85315 0.0
O74 O 0.49552 0.12136 0.85672 0.0
C75 C 0.46061 0.17236 0.92733 0.0
O76 O 0.36511 0.18977 0.86092 0.0
O77 O 0.40986 0.24295 0.87736 0.0
In78 In 0.81983 0.44653 0.36646 0.0
O79 O 0.81511 0.36798 0.36477 0.0
O80 O 0.75935 0.40684 0.38402 0.0
C81 C 0.90488 0.47425 0.35196 0.0
C82 C 0.82199 0.47335 0.42784 0.0
C83 C 0.77946 0.46972 0.3111 0.0
O84 O 0.89519 0.4322 0.35569 0.0
O85 O 0.87149 0.50149 0.35487 0.0
O86 O 0.77756 0.49564 0.33551 0.0
O87 O 0.80068 0.43251 0.31521 0.0
C88 C 0.7754 0.36785 0.37717 0.0
O89 O 0.79171 0.48864 0.40875 0.0
O90 O 0.85022 0.44551 0.41566 0.0
In91 In 0.55027 0.81466 0.86677 0.0
O92 O 0.50613 0.78835 0.90861 0.0
O93 O 0.55218 0.84436 0.91612 0.0
C94 C 0.52621 0.77646 0.81088 0.0
C95 C 0.62629 0.76561 0.87764 0.0
C96 C 0.52654 0.9012 0.85271 0.0
O97 O 0.49992 0.77514 0.83512 0.0
O98 O 0.56414 0.79614 0.81538 0.0
O99 O 0.56806 0.88958 0.85683 0.0
O100 O 0.49786 0.86898 0.85498 0.0
C101 C 0.5227 0.8176 0.92795 0.0
O102 O 0.62852 0.8057 0.86597 0.0
O103 O 0.58634 0.75149 0.88376 0.0
In104 In 0.81543 0.55195 0.86673 0.0
O105 O 0.80574 0.63011 0.86588 0.0
O106 O 0.75192 0.58744 0.88369 0.0
C107 C 0.90208 0.52866 0.85268 0.0
C108 C 0.81869 0.52456 0.92794 0.0
C109 C 0.77746 0.52738 0.81089 0.0
O110 O 0.89028 0.57013 0.85677 0.0
O111 O 0.86999 0.49983 0.85497 0.0
O112 O 0.7762 0.50126 0.83522 0.0
O113 O 0.79694 0.56544 0.81529 0.0
C114 C 0.76567 0.62751 0.87756 0.0
O115 O 0.78959 0.50767 0.90863 0.0
O116 O 0.84517 0.55427 0.91607 0.0
In117 In 0.44733 0.81873 0.36678 0.0
O118 O 0.48967 0.78986 0.40873 0.0
O119 O 0.44788 0.84923 0.41597 0.0
C120 C 0.46988 0.77807 0.31137 0.0
C121 C 0.36823 0.77525 0.37802 0.0
C122 C 0.47477 0.90383 0.35213 0.0
O123 O 0.49613 0.77641 0.33561 0.0
O124 O 0.43266 0.79918 0.31568 0.0
O125 O 0.4328 0.89411 0.35624 0.0
O126 O 0.50208 0.87045 0.35473 0.0
C127 C 0.47537 0.82047 0.42793 0.0
O128 O 0.36871 0.81476 0.36536 0.0
O129 O 0.40709 0.75891 0.38489 0.0
In130 In 0.17723 0.44495 0.86458 0.0
O131 O 0.20019 0.48581 0.90888 0.0
O132 O 0.14974 0.43307 0.91386 0.0
C133 C 0.21335 0.47473 0.8095 0.0
C134 C 0.23078 0.37114 0.87096 0.0
C135 C 0.09053 0.46953 0.85206 0.0
O136 O 0.21548 0.49858 0.83496 0.0
O137 O 0.19372 0.43641 0.81238 0.0
O138 O 0.10253 0.42771 0.85322 0.0
O139 O 0.12241 0.49805 0.85662 0.0
C140 C 0.17364 0.46358 0.92735 0.0
O141 O 0.18981 0.36743 0.861 0.0
O142 O 0.24352 0.41145 0.87751 0.0
In143 In 0.5666 0.17521 0.36594 0.0
O144 O 0.64466 0.18533 0.36402 0.0
O145 O 0.60184 0.23865 0.38268 0.0
C146 C 0.54058 0.08959 0.35193 0.0
C147 C 0.54231 0.17085 0.4277 0.0
C148 C 0.54007 0.21317 0.31058 0.0
O149 O 0.5826 0.1001 0.35497 0.0
O150 O 0.51274 0.12239 0.35536 0.0
O151 O 0.51543 0.21556 0.33564 0.0
O152 O 0.57795 0.19286 0.31407 0.0
C153 C 0.6419 0.22517 0.37612 0.0
O154 O 0.52391 0.19978 0.40891 0.0
O155 O 0.57194 0.14495 0.41503 0.0
In156 In 0.81982 0.44654 0.62615 0.0
O157 O 0.81511 0.36798 0.62783 0.0
O158 O 0.75935 0.40684 0.60858 0.0
C159 C 0.90487 0.47426 0.64064 0.0
C160 C 0.82199 0.47335 0.56476 0.0
C161 C 0.77945 0.46972 0.6815 0.0
O162 O 0.89519 0.4322 0.63692 0.0
O163 O 0.87148 0.5015 0.63773 0.0
O164 O 0.77756 0.49565 0.65709 0.0
O165 O 0.80068 0.43252 0.67739 0.0
C166 C 0.7754 0.36786 0.61543 0.0
O167 O 0.79171 0.48864 0.58385 0.0
O168 O 0.85022 0.44551 0.57694 0.0
In169 In 0.55027 0.81466 0.12584 0.0
O170 O 0.62853 0.8057 0.12664 0.0
O171 O 0.58634 0.75148 0.10885 0.0
C172 C 0.52654 0.9012 0.13989 0.0
C173 C 0.5227 0.81759 0.06466 0.0
C174 C 0.52622 0.77645 0.18173 0.0
O175 O 0.56806 0.88957 0.13578 0.0
O176 O 0.49786 0.86897 0.13763 0.0
O177 O 0.49993 0.77513 0.15748 0.0
O178 O 0.56415 0.79613 0.17723 0.0
C179 C 0.62629 0.7656 0.11496 0.0
O180 O 0.50614 0.78835 0.084 0.0
O181 O 0.55219 0.84436 0.07649 0.0
In182 In 0.176 0.5667 0.62642 0.0
O183 O 0.20091 0.52367 0.58372 0.0
O184 O 0.1455 0.57097 0.57736 0.0
C185 C 0.21436 0.54103 0.68186 0.0
C186 C 0.22535 0.64226 0.61568 0.0
C187 C 0.09048 0.54054 0.64065 0.0
O188 O 0.21673 0.5161 0.65694 0.0
O189 O 0.19386 0.57877 0.67819 0.0
O190 O 0.10083 0.58255 0.63729 0.0
O191 O 0.1234 0.51279 0.63746 0.0
C192 C 0.17171 0.54146 0.56485 0.0
O193 O 0.18564 0.64484 0.628 0.0
O194 O 0.239 0.60225 0.60917 0.0
In195 In 0.44248 0.17622 0.1281 0.0
O196 O 0.48336 0.19857 0.08368 0.0
O197 O 0.42983 0.14888 0.07887 0.0
C198 C 0.47254 0.21197 0.18319 0.0
C199 C 0.36937 0.2307 0.12177 0.0
C200 C 0.46698 0.0895 0.14051 0.0
O201 O 0.49625 0.21426 0.15767 0.0
O202 O 0.43418 0.19237 0.18037 0.0
O203 O 0.42515 0.10152 0.13946 0.0
O204 O 0.49552 0.12136 0.13589 0.0
C205 C 0.46061 0.17236 0.06528 0.0
O206 O 0.36511 0.18976 0.13169 0.0
O207 O 0.40986 0.24294 0.11525 0.0
C208 C 0.03157 0.53157 0.14357 0.0
C209 C 0.04243 0.48458 0.14429 0.0
H210 H 0.97864 0.58245 0.14181 0.0
C211 C 0.00677 0.45253 0.14638 0.0
H212 H 0.05833 0.55716 0.1421 0.0
C213 C 0.96111 0.46711 0.1463 0.0
C214 C 0.95023 0.514 0.14409 0.0
H215 H 0.01406 0.41616 0.14707 0.0
H216 H 0.93431 0.44148 0.14695 0.0
C217 C 0.98592 0.54613 0.14344 0.0
C218 C 0.53888 0.96018 0.64551 0.0
C219 C 0.49152 0.95118 0.64484 0.0
H220 H 0.59171 0.01117 0.64483 0.0
C221 C 0.4607 0.98803 0.64582 0.0
H222 H 0.56351 0.93242 0.64487 0.0
C223 C 0.4769 0.03304 0.64592 0.0
C224 C 0.52423 0.04209 0.64492 0.0
H225 H 0.42406 0.98216 0.64545 0.0
H226 H 0.4522 0.06076 0.64566 0.0
C227 C 0.5551 0.00525 0.6455 0.0
C228 C 0.00609 0.55486 0.34732 0.0
C229 C 0.04302 0.52409 0.34765 0.0
H230 H 0.93324 0.56309 0.34808 0.0
C231 C 0.03409 0.47675 0.34638 0.0
H232 H 0.01192 0.59148 0.3482 0.0
C233 C 0.98911 0.46044 0.34644 0.0
C234 C 0.95218 0.49115 0.34766 0.0
H235 H 0.06188 0.45213 0.34645 0.0
H236 H 0.98333 0.42379 0.34659 0.0
C237 C 0.96107 0.53854 0.34727 0.0
C238 C 0.46477 0.96006 0.84649 0.0
C239 C 0.51171 0.9493 0.84857 0.0
H240 H 0.4137 0.01291 0.84583 0.0
C241 C 0.54376 0.98506 0.84908 0.0
H242 H 0.43921 0.9332 0.84595 0.0
C243 C 0.5291 0.03066 0.84896 0.0
C244 C 0.48208 0.04142 0.84836 0.0
H245 H 0.58011 0.97787 0.85061 0.0
H246 H 0.55465 0.05748 0.85032 0.0
C247 C 0.4501 0.00569 0.84641 0.0
C248 C 0.98593 0.54614 0.84916 0.0
C249 C 0.95024 0.51401 0.84852 0.0
H250 H 0.05834 0.55717 0.85051 0.0
C251 C 0.96111 0.46712 0.8463 0.0
H252 H 0.97864 0.58246 0.8508 0.0
C253 C 0.00677 0.45255 0.84622 0.0
C254 C 0.04243 0.48459 0.84831 0.0
H255 H 0.93431 0.44149 0.84565 0.0
H256 H 0.01406 0.41617 0.84554 0.0
C257 C 0.03157 0.53158 0.84903 0.0
C258 C 0.4769 0.03303 0.34669 0.0
C259 C 0.52423 0.04209 0.34769 0.0
H260 H 0.42407 0.98215 0.34716 0.0
C261 C 0.5551 0.00524 0.34712 0.0
H262 H 0.45221 0.06075 0.34695 0.0
C263 C 0.53889 0.96017 0.3471 0.0
C264 C 0.49153 0.95117 0.34778 0.0
H265 H 0.59172 0.01117 0.34778 0.0
H266 H 0.56352 0.93241 0.34774 0.0
C267 C 0.46071 0.98802 0.34679 0.0
C268 C 0.9891 0.46045 0.64617 0.0
C269 C 0.95217 0.49116 0.64494 0.0
H270 H 0.06188 0.45215 0.64616 0.0
C271 C 0.96106 0.53855 0.64534 0.0
H272 H 0.98333 0.4238 0.64602 0.0
C273 C 0.00608 0.55488 0.64529 0.0
C274 C 0.04302 0.5241 0.64495 0.0
H275 H 0.93324 0.5631 0.64452 0.0
H276 H 0.01191 0.5915 0.64441 0.0
C277 C 0.03408 0.47676 0.64623 0.0
C278 C 0.5291 0.03065 0.14365 0.0
C279 C 0.48208 0.04142 0.14425 0.0
H280 H 0.58011 0.97786 0.142 0.0
C281 C 0.4501 0.00568 0.1462 0.0
H282 H 0.55465 0.05747 0.14229 0.0
C283 C 0.46478 0.96005 0.14612 0.0
C284 C 0.51171 0.9493 0.14404 0.0
H285 H 0.4137 0.0129 0.14678 0.0
H286 H 0.43921 0.93319 0.14666 0.0
C287 C 0.54376 0.98506 0.14353 0.0
C288 C 0.22756 0.55555 0.25253 0.0
C289 C 0.22708 0.52471 0.27848 0.0
H290 H 0.22459 0.5637 0.20144 0.0
C291 C 0.23103 0.47763 0.27242 0.0
H292 H 0.22492 0.59212 0.25659 0.0
C293 C 0.23034 0.46143 0.24089 0.0
C294 C 0.22636 0.4921 0.21501 0.0
H295 H 0.23086 0.45313 0.29196 0.0
H296 H 0.22998 0.42476 0.23687 0.0
C297 C 0.22752 0.53935 0.22096 0.0
C298 C 0.47618 0.22928 0.72006 0.0
C299 C 0.52335 0.22571 0.71422 0.0
H300 H 0.42297 0.2279 0.75536 0.0
C301 C 0.55394 0.22645 0.74032 0.0
H302 H 0.45187 0.22889 0.7004 0.0
C303 C 0.53743 0.22634 0.77181 0.0
C304 C 0.49013 0.22486 0.77754 0.0
H305 H 0.59057 0.2241 0.73643 0.0
H306 H 0.56162 0.22368 0.79145 0.0
C307 C 0.45967 0.22852 0.75151 0.0
C308 C 0.76253 0.46575 0.22178 0.0
C309 C 0.76444 0.51252 0.21425 0.0
H310 H 0.76544 0.41537 0.25902 0.0
C311 C 0.76172 0.54495 0.23916 0.0
H312 H 0.76442 0.44007 0.20305 0.0
C313 C 0.76185 0.53086 0.2712 0.0
C314 C 0.76532 0.48417 0.2787 0.0
H315 H 0.76266 0.5813 0.23394 0.0
H316 H 0.76322 0.55659 0.28992 0.0
C317 C 0.76326 0.45167 0.25381 0.0
C318 C 0.46499 0.76127 0.77055 0.0
C319 C 0.51168 0.76327 0.7783 0.0
H320 H 0.41498 0.76403 0.73305 0.0
C321 C 0.54437 0.76049 0.75356 0.0
H322 H 0.43912 0.76319 0.78915 0.0
C323 C 0.5306 0.76052 0.72145 0.0
C324 C 0.48399 0.76393 0.71371 0.0
H325 H 0.58067 0.76149 0.75896 0.0
H326 H 0.55653 0.76187 0.70286 0.0
C327 C 0.45123 0.76189 0.73844 0.0
C328 C 0.76253 0.46576 0.77083 0.0
C329 C 0.76445 0.51253 0.77835 0.0
H330 H 0.76544 0.41538 0.73358 0.0
C331 C 0.76172 0.54496 0.75344 0.0
H332 H 0.76442 0.44008 0.78955 0.0
C333 C 0.76185 0.53087 0.7214 0.0
C334 C 0.76532 0.48418 0.7139 0.0
H335 H 0.76267 0.58131 0.75866 0.0
H336 H 0.76322 0.5566 0.70268 0.0
C337 C 0.76326 0.45168 0.73879 0.0
C338 C 0.45125 0.76189 0.25417 0.0
C339 C 0.484 0.76393 0.2789 0.0
H340 H 0.43912 0.76319 0.20346 0.0
C341 C 0.53062 0.76052 0.27116 0.0
H342 H 0.41499 0.76402 0.25956 0.0
C343 C 0.54438 0.76048 0.23905 0.0
C344 C 0.51169 0.76326 0.21431 0.0
H345 H 0.55654 0.76187 0.28975 0.0
H346 H 0.58068 0.76149 0.23365 0.0
C347 C 0.465 0.76126 0.22206 0.0
C348 C 0.23035 0.46145 0.75172 0.0
C349 C 0.22637 0.49212 0.7776 0.0
H350 H 0.23086 0.45315 0.70065 0.0
C351 C 0.22751 0.53937 0.77164 0.0
H352 H 0.22999 0.42478 0.75574 0.0
C353 C 0.22755 0.55557 0.74008 0.0
C354 C 0.22708 0.52473 0.71413 0.0
H355 H 0.22459 0.56371 0.79117 0.0
H356 H 0.22491 0.59214 0.73602 0.0
C357 C 0.23103 0.47765 0.72019 0.0
C358 C 0.55393 0.22644 0.25229 0.0
C359 C 0.52334 0.2257 0.27839 0.0
H360 H 0.56162 0.22367 0.20117 0.0
C361 C 0.47617 0.22927 0.27255 0.0
H362 H 0.59056 0.22409 0.25618 0.0
C363 C 0.45967 0.22851 0.24109 0.0
C364 C 0.49013 0.22486 0.21506 0.0
H365 H 0.45186 0.22888 0.2922 0.0
H366 H 0.42296 0.22789 0.23724 0.0
C367 C 0.53743 0.22633 0.22081 0.0
C368 C 0.20575 0.49375 0.97944 0.0
C369 C 0.17155 0.47001 0.96247 0.0
H370 H 0.2334 0.51058 0.02587 0.0
C371 C 0.13616 0.44862 0.97963 0.0
H372 H 0.2334 0.51058 0.96674 0.0
C373 C 0.13616 0.44862 0.01298 0.0
C374 C 0.17155 0.47001 0.03014 0.0
H375 H 0.10898 0.43052 0.96727 0.0
H376 H 0.10898 0.43052 0.02533 0.0
C377 C 0.20575 0.49375 0.01317 0.0
C378 C 0.5153 0.2063 0.47945 0.0
C379 C 0.53342 0.16876 0.46252 0.0
H380 H 0.50367 0.23654 0.52585 0.0
C381 C 0.5482 0.13008 0.47962 0.0
H382 H 0.50367 0.23654 0.46676 0.0
C383 C 0.5482 0.13008 0.51299 0.0
C384 C 0.53341 0.16876 0.5301 0.0
H385 H 0.56172 0.10037 0.46722 0.0
H386 H 0.56172 0.10037 0.5254 0.0
C387 C 0.5153 0.2063 0.51316 0.0
C388 C 0.86024 0.52541 0.01298 0.0
C389 C 0.82041 0.51413 0.03007 0.0
H390 H 0.89089 0.53656 0.9672 0.0
C391 C 0.78158 0.49897 0.01316 0.0
H392 H 0.89089 0.53655 0.0254 0.0
C393 C 0.78158 0.49897 0.97944 0.0
C394 C 0.82041 0.51414 0.96253 0.0
H395 H 0.75045 0.49011 0.02586 0.0
H396 H 0.75045 0.49012 0.96674 0.0
C397 C 0.86024 0.52541 0.97962 0.0
C398 C 0.47754 0.86203 0.51299 0.0
C399 C 0.4859 0.82148 0.53008 0.0
H400 H 0.46864 0.89343 0.4672 0.0
C401 C 0.49819 0.78163 0.51317 0.0
H402 H 0.46864 0.89343 0.52541 0.0
C403 C 0.49819 0.78163 0.47944 0.0
C404 C 0.48589 0.82147 0.46253 0.0
H405 H 0.50476 0.74991 0.52586 0.0
H406 H 0.50476 0.74991 0.46675 0.0
C407 C 0.47754 0.86203 0.47962 0.0
C408 C 0.13063 0.54593 0.47962 0.0
C409 C 0.16969 0.53216 0.46252 0.0
H410 H 0.10061 0.55875 0.5254 0.0
C411 C 0.20765 0.51492 0.47945 0.0
H412 H 0.10061 0.55875 0.46721 0.0
C413 C 0.20765 0.51492 0.51316 0.0
C414 C 0.16969 0.53217 0.53009 0.0
H415 H 0.23818 0.50409 0.46676 0.0
H416 H 0.23818 0.5041 0.52585 0.0
C417 C 0.13063 0.54593 0.51299 0.0
C418 C 0.44448 0.13539 0.97962 0.0
C419 C 0.4668 0.1702 0.96247 0.0
H420 H 0.4257 0.10866 0.02533 0.0
C421 C 0.49137 0.20381 0.97944 0.0
H422 H 0.42571 0.10867 0.96727 0.0
C423 C 0.49137 0.20381 0.01317 0.0
C424 C 0.4668 0.17019 0.03014 0.0
H425 H 0.50892 0.231 0.96674 0.0
H426 H 0.50891 0.231 0.02587 0.0
C427 C 0.44448 0.13538 0.01298 0.0
C428 C 0.86344 0.47343 0.47962 0.0
C429 C 0.82323 0.48337 0.46252 0.0
H430 H 0.8945 0.46342 0.5254 0.0
C431 C 0.78385 0.49705 0.47944 0.0
H432 H 0.8945 0.46343 0.4672 0.0
C433 C 0.78385 0.49705 0.51316 0.0
C434 C 0.82323 0.48336 0.53008 0.0
H435 H 0.75241 0.50487 0.46675 0.0
H436 H 0.75241 0.50487 0.52586 0.0
C437 C 0.86344 0.47343 0.51298 0.0
C438 C 0.49751 0.78019 0.01317 0.0
C439 C 0.51221 0.8192 0.03007 0.0
H440 H 0.48904 0.74894 0.96674 0.0
C441 C 0.52298 0.85916 0.01298 0.0
H442 H 0.48904 0.74895 0.02587 0.0
C443 C 0.52298 0.85916 0.97962 0.0
C444 C 0.5122 0.8192 0.96254 0.0
H445 H 0.53376 0.88994 0.0254 0.0
H446 H 0.53375 0.88994 0.9672 0.0
C447 C 0.49751 0.78019 0.97944 0.0
C448 C 0.25415 0.28945 0.13304 0.0
C449 C 0.2631 0.33234 0.11899 0.0
H450 H 0.28109 0.22292 0.14499 0.0
C451 C 0.30535 0.33955 0.10375 0.0
H452 H 0.22179 0.28301 0.14493 0.0
C453 C 0.33881 0.30565 0.10378 0.0
C454 C 0.33101 0.26352 0.11906 0.0
H455 H 0.31318 0.372 0.09238 0.0
H456 H 0.37138 0.31302 0.09243 0.0
C457 C 0.28798 0.25517 0.13307 0.0
C458 C 0.70872 0.32867 0.59125 0.0
C459 C 0.74718 0.3264 0.61137 0.0
H460 H 0.64585 0.29785 0.57681 0.0
C461 C 0.75446 0.28682 0.62995 0.0
H462 H 0.70257 0.35844 0.5763 0.0
C463 C 0.72158 0.25171 0.63024 0.0
C464 C 0.68131 0.25607 0.61198 0.0
H465 H 0.78392 0.2843 0.64566 0.0
H466 H 0.7263 0.22275 0.64616 0.0
C467 C 0.67619 0.29394 0.59155 0.0
C468 C 0.74171 0.70851 0.12747 0.0
C469 C 0.73482 0.66715 0.11086 0.0
H470 H 0.71231 0.77298 0.14179 0.0
C471 C 0.69494 0.66163 0.09246 0.0
H472 H 0.77223 0.7136 0.14182 0.0
C473 C 0.66109 0.69517 0.09244 0.0
C474 C 0.66623 0.73512 0.11082 0.0
H475 H 0.68893 0.6304 0.07904 0.0
H476 H 0.62993 0.68887 0.079 0.0
C477 C 0.70751 0.7424 0.12745 0.0
C478 C 0.29356 0.67689 0.59024 0.0
C479 C 0.25602 0.68179 0.611 0.0
H480 H 0.35794 0.70331 0.57477 0.0
C481 C 0.252 0.72182 0.62955 0.0
H482 H 0.29718 0.64673 0.57528 0.0
C483 C 0.28719 0.7546 0.62924 0.0
C484 C 0.32652 0.74745 0.61038 0.0
H485 H 0.2233 0.72635 0.64573 0.0
H486 H 0.285 0.7838 0.64521 0.0
C487 C 0.32837 0.70933 0.58993 0.0
C488 C 0.3284 0.7093 0.40267 0.0
C489 C 0.32653 0.74743 0.38223 0.0
H490 H 0.29722 0.6467 0.41732 0.0
C491 C 0.28721 0.75458 0.36337 0.0
H492 H 0.35797 0.70329 0.41783 0.0
C493 C 0.25201 0.7218 0.36306 0.0
C494 C 0.25604 0.68176 0.38161 0.0
H495 H 0.285 0.78379 0.3474 0.0
H496 H 0.22331 0.72633 0.34689 0.0
C497 C 0.29358 0.67687 0.40236 0.0
C498 C 0.33882 0.30566 0.88883 0.0
C499 C 0.33102 0.26354 0.87355 0.0
H500 H 0.31318 0.37201 0.90022 0.0
C501 C 0.28799 0.25518 0.85953 0.0
H502 H 0.37139 0.31304 0.90017 0.0
C503 C 0.25415 0.28946 0.85957 0.0
C504 C 0.2631 0.33235 0.87362 0.0
H505 H 0.28109 0.22293 0.84762 0.0
H506 H 0.22179 0.28302 0.84768 0.0
C507 C 0.30536 0.33956 0.88886 0.0
C508 C 0.72158 0.25171 0.36236 0.0
C509 C 0.68131 0.25607 0.38063 0.0
H510 H 0.78392 0.2843 0.34695 0.0
C511 C 0.67619 0.29394 0.40105 0.0
H512 H 0.72629 0.22274 0.34645 0.0
C513 C 0.70872 0.32867 0.40135 0.0
C514 C 0.74718 0.3264 0.38123 0.0
H515 H 0.64584 0.29785 0.4158 0.0
H516 H 0.70257 0.35844 0.4163 0.0
C517 C 0.75446 0.28682 0.36266 0.0
C518 C 0.69494 0.66163 0.90014 0.0
C519 C 0.73482 0.66715 0.88174 0.0
H520 H 0.62993 0.68886 0.9136 0.0
C521 C 0.74171 0.70852 0.86514 0.0
H522 H 0.68893 0.6304 0.91356 0.0
C523 C 0.70751 0.74241 0.86516 0.0
C524 C 0.66622 0.73512 0.88179 0.0
H525 H 0.77222 0.71361 0.85078 0.0
H526 H 0.7123 0.77299 0.85082 0.0
C527 C 0.66108 0.69517 0.90016 0.0
loop_
_geom_bond_atom_site_label_1
_geom_bond_atom_site_label_2
_geom_bond_distance
_geom_bond_site_symmetry_2
_ccdc_geom_bond_type
In0 O1 2.294 . S
In0 O2 2.326 . S
In0 O6 2.266 . S
In0 O7 2.326 . S
In0 O8 2.266 . S
In0 O9 2.326 . S
In0 O11 2.294 . S
In0 O12 2.326 . S
O1 In0 2.294 . S
O1 C10 1.240 . S
O2 In0 2.326 . S
O2 C10 1.252 . S
C3 O6 1.252 . S
C3 O7 1.260 . S
C4 O11 1.240 . S
C4 O12 1.252 . S
C5 O8 1.252 . S
C5 O9 1.260 . S
O6 In0 2.266 . S
O6 C3 1.252 . S
O7 In0 2.326 . S
O7 C3 1.260 . S
O8 In0 2.266 . S
O8 C5 1.252 . S
O9 In0 2.326 . S
O9 C5 1.260 . S
C10 O1 1.240 . S
C10 O2 1.252 . S
O11 In0 2.294 . S
O11 C4 1.240 . S
O12 In0 2.326 . S
O12 C4 1.252 . S
In13 O14 2.294 . S
In13 O15 2.326 . S
In13 O19 2.266 . S
In13 O20 2.326 . S
In13 O21 2.266 . S
In13 O22 2.326 . S
In13 O24 2.294 . S
In13 O25 2.326 . S
O14 In13 2.294 . S
O14 C23 1.240 . S
O15 In13 2.326 . S
O15 C23 1.252 . S
C16 O19 1.252 . S
C16 O20 1.260 . S
C17 O24 1.240 . S
C17 O25 1.252 . S
C18 O21 1.252 . S
C18 O22 1.260 . S
O19 In13 2.266 . S
O19 C16 1.252 . S
O20 In13 2.326 . S
O20 C16 1.260 . S
O21 In13 2.266 . S
O21 C18 1.252 . S
O22 In13 2.326 . S
O22 C18 1.260 . S
C23 O14 1.240 . S
C23 O15 1.252 . S
O24 In13 2.294 . S
O24 C17 1.240 . S
O25 In13 2.326 . S
O25 C17 1.252 . S
In26 O27 2.294 . S
In26 O28 2.326 . S
In26 O32 2.266 . S
In26 O33 2.326 . S
In26 O34 2.266 . S
In26 O35 2.326 . S
In26 O37 2.294 . S
In26 O38 2.326 . S
O27 In26 2.294 . S
O27 C36 1.240 . S
O28 In26 2.326 . S
O28 C36 1.252 . S
C29 O32 1.252 . S
C29 O33 1.260 . S
C30 O37 1.240 . S
C30 O38 1.252 . S
C31 O34 1.252 . S
C31 O35 1.260 . S
O32 In26 2.266 . S
O32 C29 1.252 . S
O33 In26 2.326 . S
O33 C29 1.260 . S
O34 In26 2.266 . S
O34 C31 1.252 . S
O35 In26 2.326 . S
O35 C31 1.260 . S
C36 O27 1.240 . S
C36 O28 1.252 . S
O37 In26 2.294 . S
O37 C30 1.240 . S
O38 In26 2.326 . S
O38 C30 1.252 . S
In39 O40 2.294 . S
In39 O41 2.326 . S
In39 O45 2.266 . S
In39 O46 2.326 . S
In39 O47 2.266 . S
In39 O48 2.326 . S
In39 O50 2.294 . S
In39 O51 2.326 . S
O40 In39 2.294 . S
O40 C49 1.240 . S
O41 In39 2.326 . S
O41 C49 1.252 . S
C42 O45 1.252 . S
C42 O46 1.260 . S
C43 O50 1.240 . S
C43 O51 1.252 . S
C44 O47 1.252 . S
C44 O48 1.260 . S
O45 In39 2.266 . S
O45 C42 1.252 . S
O46 In39 2.326 . S
O46 C42 1.260 . S
O47 In39 2.266 . S
O47 C44 1.252 . S
O48 In39 2.326 . S
O48 C44 1.260 . S
C49 O40 1.240 . S
C49 O41 1.252 . S
O50 In39 2.294 . S
O50 C43 1.240 . S
O51 In39 2.326 . S
O51 C43 1.252 . S
In52 O53 2.294 . S
In52 O54 2.326 . S
In52 O58 2.266 . S
In52 O59 2.326 . S
In52 O60 2.266 . S
In52 O61 2.326 . S
In52 O63 2.294 . S
In52 O64 2.326 . S
O53 In52 2.294 . S
O53 C62 1.240 . S
O54 In52 2.326 . S
O54 C62 1.252 . S
C55 O58 1.252 . S
C55 O59 1.260 . S
C56 O63 1.240 . S
C56 O64 1.252 . S
C57 O60 1.252 . S
C57 O61 1.260 . S
O58 In52 2.266 . S
O58 C55 1.252 . S
O59 In52 2.326 . S
O59 C55 1.260 . S
O60 In52 2.266 . S
O60 C57 1.252 . S
O61 In52 2.326 . S
O61 C57 1.260 . S
C62 O53 1.240 . S
C62 O54 1.252 . S
O63 In52 2.294 . S
O63 C56 1.240 . S
O64 In52 2.326 . S
O64 C56 1.252 . S
In65 O66 2.294 . S
In65 O67 2.326 . S
In65 O71 2.266 . S
In65 O72 2.326 . S
In65 O73 2.266 . S
In65 O74 2.326 . S
In65 O76 2.294 . S
In65 O77 2.326 . S
O66 In65 2.294 . S
O66 C75 1.240 . S
O67 In65 2.326 . S
O67 C75 1.252 . S
C68 O71 1.252 . S
C68 O72 1.260 . S
C69 O76 1.240 . S
C69 O77 1.252 . S
C70 O73 1.252 . S
C70 O74 1.260 . S
O71 In65 2.266 . S
O71 C68 1.252 . S
O72 In65 2.326 . S
O72 C68 1.260 . S
O73 In65 2.266 . S
O73 C70 1.252 . S
O74 In65 2.326 . S
O74 C70 1.260 . S
C75 O66 1.240 . S
C75 O67 1.252 . S
O76 In65 2.294 . S
O76 C69 1.240 . S
O77 In65 2.326 . S
O77 C69 1.252 . S
In78 O79 2.294 . S
In78 O80 2.326 . S
In78 O84 2.266 . S
In78 O85 2.326 . S
In78 O86 2.266 . S
In78 O87 2.326 . S
In78 O89 2.294 . S
In78 O90 2.326 . S
O79 In78 2.294 . S
O79 C88 1.240 . S
O80 In78 2.326 . S
O80 C88 1.252 . S
C81 O84 1.252 . S
C81 O85 1.260 . S
C82 O89 1.240 . S
C82 O90 1.252 . S
C83 O86 1.252 . S
C83 O87 1.260 . S
O84 In78 2.266 . S
O84 C81 1.252 . S
O85 In78 2.326 . S
O85 C81 1.260 . S
O86 In78 2.266 . S
O86 C83 1.252 . S
O87 In78 2.326 . S
O87 C83 1.260 . S
C88 O79 1.240 . S
C88 O80 1.252 . S
O89 In78 2.294 . S
O89 C82 1.240 . S
O90 In78 2.326 . S
O90 C82 1.252 . S
In91 O92 2.294 . S
In91 O93 2.326 . S
In91 O97 2.266 . S
In91 O98 2.326 . S
In91 O99 2.266 . S
In91 O100 2.326 . S
In91 O102 2.294 . S
In91 O103 2.326 . S
O92 In91 2.294 . S
O92 C101 1.240 . S
O93 In91 2.326 . S
O93 C101 1.252 . S
C94 O97 1.252 . S
C94 O98 1.260 . S
C95 O102 1.240 . S
C95 O103 1.252 . S
C96 O99 1.252 . S
C96 O100 1.260 . S
O97 In91 2.266 . S
O97 C94 1.252 . S
O98 In91 2.326 . S
O98 C94 1.260 . S
O99 In91 2.266 . S
O99 C96 1.252 . S
O100 In91 2.326 . S
O100 C96 1.260 . S
C101 O92 1.240 . S
C101 O93 1.252 . S
O102 In91 2.294 . S
O102 C95 1.240 . S
O103 In91 2.326 . S
O103 C95 1.252 . S
In104 O105 2.294 . S
In104 O106 2.326 . S
In104 O110 2.266 . S
In104 O111 2.326 . S
In104 O112 2.266 . S
In104 O113 2.326 . S
In104 O115 2.294 . S
In104 O116 2.326 . S
O105 In104 2.294 . S
O105 C114 1.240 . S
O106 In104 2.326 . S
O106 C114 1.252 . S
C107 O110 1.252 . S
C107 O111 1.260 . S
C108 O115 1.240 . S
C108 O116 1.252 . S
C109 O112 1.252 . S
C109 O113 1.260 . S
O110 In104 2.266 . S
O110 C107 1.252 . S
O111 In104 2.326 . S
O111 C107 1.260 . S
O112 In104 2.266 . S
O112 C109 1.252 . S
O113 In104 2.326 . S
O113 C109 1.260 . S
C114 O105 1.240 . S
C114 O106 1.252 . S
O115 In104 2.294 . S
O115 C108 1.240 . S
O116 In104 2.326 . S
O116 C108 1.252 . S
In117 O118 2.294 . S
In117 O119 2.326 . S
In117 O123 2.266 . S
In117 O124 2.326 . S
In117 O125 2.266 . S
In117 O126 2.326 . S
In117 O128 2.294 . S
In117 O129 2.326 . S
O118 In117 2.294 . S
O118 C127 1.240 . S
O119 In117 2.326 . S
O119 C127 1.252 . S
C120 O123 1.252 . S
C120 O124 1.260 . S
C121 O128 1.240 . S
C121 O129 1.252 . S
C122 O125 1.252 . S
C122 O126 1.260 . S
O123 In117 2.266 . S
O123 C120 1.252 . S
O124 In117 2.326 . S
O124 C120 1.260 . S
O125 In117 2.266 . S
O125 C122 1.252 . S
O126 In117 2.326 . S
O126 C122 1.260 . S
C127 O118 1.240 . S
C127 O119 1.252 . S
O128 In117 2.294 . S
O128 C121 1.240 . S
O129 In117 2.326 . S
O129 C121 1.252 . S
In130 O131 2.294 . S
In130 O132 2.326 . S
In130 O136 2.266 . S
In130 O137 2.326 . S
In130 O138 2.266 . S
In130 O139 2.326 . S
In130 O141 2.294 . S
In130 O142 2.326 . S
O131 In130 2.294 . S
O131 C140 1.240 . S
O132 In130 2.326 . S
O132 C140 1.252 . S
C133 O136 1.252 . S
C133 O137 1.260 . S
C134 O141 1.240 . S
C134 O142 1.252 . S
C135 O138 1.252 . S
C135 O139 1.260 . S
O136 In130 2.266 . S
O136 C133 1.252 . S
O137 In130 2.326 . S
O137 C133 1.260 . S
O138 In130 2.266 . S
O138 C135 1.252 . S
O139 In130 2.326 . S
O139 C135 1.260 . S
C140 O131 1.240 . S
C140 O132 1.252 . S
O141 In130 2.294 . S
O141 C134 1.240 . S
O142 In130 2.326 . S
O142 C134 1.252 . S
In143 O144 2.294 . S
In143 O145 2.326 . S
In143 O149 2.266 . S
In143 O150 2.326 . S
In143 O151 2.266 . S
In143 O152 2.326 . S
In143 O154 2.294 . S
In143 O155 2.326 . S
O144 In143 2.294 . S
O144 C153 1.240 . S
O145 In143 2.326 . S
O145 C153 1.252 . S
C146 O149 1.252 . S
C146 O150 1.260 . S
C147 O154 1.240 . S
C147 O155 1.252 . S
C148 O151 1.252 . S
C148 O152 1.260 . S
O149 In143 2.266 . S
O149 C146 1.252 . S
O150 In143 2.326 . S
O150 C146 1.260 . S
O151 In143 2.266 . S
O151 C148 1.252 . S
O152 In143 2.326 . S
O152 C148 1.260 . S
C153 O144 1.240 . S
C153 O145 1.252 . S
O154 In143 2.294 . S
O154 C147 1.240 . S
O155 In143 2.326 . S
O155 C147 1.252 . S
In156 O157 2.294 . S
In156 O158 2.326 . S
In156 O162 2.266 . S
In156 O163 2.326 . S
In156 O164 2.266 . S
In156 O165 2.326 . S
In156 O167 2.294 . S
In156 O168 2.326 . S
O157 In156 2.294 . S
O157 C166 1.240 . S
O158 In156 2.326 . S
O158 C166 1.252 . S
C159 O162 1.252 . S
C159 O163 1.260 . S
C160 O167 1.240 . S
C160 O168 1.252 . S
C161 O164 1.252 . S
C161 O165 1.260 . S
O162 In156 2.266 . S
O162 C159 1.252 . S
O163 In156 2.326 . S
O163 C159 1.260 . S
O164 In156 2.266 . S
O164 C161 1.252 . S
O165 In156 2.326 . S
O165 C161 1.260 . S
C166 O157 1.240 . S
C166 O158 1.252 . S
O167 In156 2.294 . S
O167 C160 1.240 . S
O168 In156 2.326 . S
O168 C160 1.252 . S
In169 O170 2.294 . S
In169 O171 2.326 . S
In169 O175 2.266 . S
In169 O176 2.326 . S
In169 O177 2.266 . S
In169 O178 2.326 . S
In169 O180 2.294 . S
In169 O181 2.326 . S
O170 In169 2.294 . S
O170 C179 1.240 . S
O171 In169 2.326 . S
O171 C179 1.252 . S
C172 O175 1.252 . S
C172 O176 1.260 . S
C173 O180 1.240 . S
C173 O181 1.252 . S
C174 O177 1.252 . S
C174 O178 1.260 . S
O175 In169 2.266 . S
O175 C172 1.252 . S
O176 In169 2.326 . S
O176 C172 1.260 . S
O177 In169 2.266 . S
O177 C174 1.252 . S
O178 In169 2.326 . S
O178 C174 1.260 . S
C179 O170 1.240 . S
C179 O171 1.252 . S
O180 In169 2.294 . S
O180 C173 1.240 . S
O181 In169 2.326 . S
O181 C173 1.252 . S
In182 O183 2.294 . S
In182 O184 2.326 . S
In182 O188 2.266 . S
In182 O189 2.326 . S
In182 O190 2.266 . S
In182 O191 2.326 . S
In182 O193 2.294 . S
In182 O194 2.326 . S
O183 In182 2.294 . S
O183 C192 1.240 . S
O184 In182 2.326 . S
O184 C192 1.252 . S
C185 O188 1.252 . S
C185 O189 1.260 . S
C186 O193 1.240 . S
C186 O194 1.252 . S
C187 O190 1.252 . S
C187 O191 1.260 . S
O188 In182 2.266 . S
O188 C185 1.252 . S
O189 In182 2.326 . S
O189 C185 1.260 . S
O190 In182 2.266 . S
O190 C187 1.252 . S
O191 In182 2.326 . S
O191 C187 1.260 . S
C192 O183 1.240 . S
C192 O184 1.252 . S
O193 In182 2.294 . S
O193 C186 1.240 . S
O194 In182 2.326 . S
O194 C186 1.252 . S
In195 O196 2.294 . S
In195 O197 2.326 . S
In195 O201 2.266 . S
In195 O202 2.326 . S
In195 O203 2.266 . S
In195 O204 2.326 . S
In195 O206 2.294 . S
In195 O207 2.326 . S
O196 In195 2.294 . S
O196 C205 1.240 . S
O197 In195 2.326 . S
O197 C205 1.252 . S
C198 O201 1.252 . S
C198 O202 1.260 . S
C199 O206 1.240 . S
C199 O207 1.252 . S
C200 O203 1.252 . S
C200 O204 1.260 . S
O201 In195 2.266 . S
O201 C198 1.252 . S
O202 In195 2.326 . S
O202 C198 1.260 . S
O203 In195 2.266 . S
O203 C200 1.252 . S
O204 In195 2.326 . S
O204 C200 1.260 . S
C205 O196 1.240 . S
C205 O197 1.252 . S
O206 In195 2.294 . S
O206 C199 1.240 . S
O207 In195 2.326 . S
O207 C199 1.252 . S
C208 C209 1.387 . S
C208 H212 0.950 . S
C208 C217 1.390 1_455 S
C209 C208 1.387 . S
C209 C211 1.387 . S
H210 C217 0.950 . S
C211 C209 1.387 . S
C211 C213 1.390 1_455 S
C211 H215 0.950 . S
H212 C208 0.950 . S
C213 C211 1.390 1_655 S
C213 C214 1.387 . S
C213 H216 0.950 . S
C214 C213 1.387 . S
C214 C217 1.387 . S
H215 C211 0.950 . S
H216 C213 0.950 . S
C217 C208 1.390 1_655 S
C217 H210 0.950 . S
C217 C214 1.387 . S
C218 C219 1.387 . S
C218 H222 0.950 . S
C218 C227 1.390 1_565 S
C219 C218 1.387 . S
C219 C221 1.387 . S
H220 C227 0.950 . S
C221 C219 1.387 . S
C221 C223 1.390 1_565 S
C221 H225 0.950 . S
H222 C218 0.950 . S
C223 C221 1.390 1_545 S
C223 C224 1.387 . S
C223 H226 0.950 . S
C224 C223 1.387 . S
C224 C227 1.387 . S
H225 C221 0.950 . S
H226 C223 0.950 . S
C227 C218 1.390 1_545 S
C227 H220 0.950 . S
C227 C224 1.387 . S
C228 C229 1.387 . S
C228 H232 0.950 . S
C228 C237 1.390 1_455 S
C229 C228 1.387 . S
C229 C231 1.387 . S
H230 C237 0.950 . S
C231 C229 1.387 . S
C231 C233 1.390 1_455 S
C231 H235 0.950 . S
H232 C228 0.950 . S
C233 C231 1.390 1_655 S
C233 C234 1.387 . S
C233 H236 0.950 . S
C234 C233 1.387 . S
C234 C237 1.387 . S
H235 C231 0.950 . S
H236 C233 0.950 . S
C237 C228 1.390 1_655 S
C237 H230 0.950 . S
C237 C234 1.387 . S
C238 C239 1.387 . S
C238 H242 0.950 . S
C238 C247 1.390 1_565 S
C239 C238 1.387 . S
C239 C241 1.387 . S
H240 C247 0.950 . S
C241 C239 1.387 . S
C241 C243 1.390 1_565 S
C241 H245 0.950 . S
H242 C238 0.950 . S
C243 C241 1.390 1_545 S
C243 C244 1.387 . S
C243 H246 0.950 . S
C244 C243 1.387 . S
C244 C247 1.387 . S
H245 C241 0.950 . S
H246 C243 0.950 . S
C247 C238 1.390 1_545 S
C247 H240 0.950 . S
C247 C244 1.387 . S
C248 C249 1.387 . S
C248 H252 0.950 . S
C248 C257 1.390 1_655 S
C249 C248 1.387 . S
C249 C251 1.387 . S
H250 C257 0.950 . S
C251 C249 1.387 . S
C251 C253 1.390 1_655 S
C251 H255 0.950 . S
H252 C248 0.950 . S
C253 C251 1.390 1_455 S
C253 C254 1.387 . S
C253 H256 0.950 . S
C254 C253 1.387 . S
C254 C257 1.387 . S
H255 C251 0.950 . S
H256 C253 0.950 . S
C257 C248 1.390 1_455 S
C257 H250 0.950 . S
C257 C254 1.387 . S
C258 C259 1.387 . S
C258 H262 0.950 . S
C258 C267 1.390 1_545 S
C259 C258 1.387 . S
C259 C261 1.387 . S
H260 C267 0.950 . S
C261 C259 1.387 . S
C261 C263 1.390 1_545 S
C261 H265 0.950 . S
H262 C258 0.950 . S
C263 C261 1.390 1_565 S
C263 C264 1.387 . S
C263 H266 0.950 . S
C264 C263 1.387 . S
C264 C267 1.387 . S
H265 C261 0.950 . S
H266 C263 0.950 . S
C267 C258 1.390 1_565 S
C267 H260 0.950 . S
C267 C264 1.387 . S
C268 C269 1.387 . S
C268 H272 0.950 . S
C268 C277 1.390 1_655 S
C269 C268 1.387 . S
C269 C271 1.387 . S
H270 C277 0.950 . S
C271 C269 1.387 . S
C271 C273 1.390 1_655 S
C271 H275 0.950 . S
H272 C268 0.950 . S
C273 C271 1.390 1_455 S
C273 C274 1.387 . S
C273 H276 0.950 . S
C274 C273 1.387 . S
C274 C277 1.387 . S
H275 C271 0.950 . S
H276 C273 0.950 . S
C277 C268 1.390 1_455 S
C277 H270 0.950 . S
C277 C274 1.387 . S
C278 C279 1.387 . S
C278 H282 0.950 . S
C278 C287 1.390 1_545 S
C279 C278 1.387 . S
C279 C281 1.387 . S
H280 C287 0.950 . S
C281 C279 1.387 . S
C281 C283 1.390 1_545 S
C281 H285 0.950 . S
H282 C278 0.950 . S
C283 C281 1.390 1_565 S
C283 C284 1.387 . S
C283 H286 0.950 . S
C284 C283 1.387 . S
C284 C287 1.387 . S
H285 C281 0.950 . S
H286 C283 0.950 . S
C287 C278 1.390 1_565 S
C287 H280 0.950 . S
C287 C284 1.387 . S
C288 C289 1.387 . S
C288 H292 0.950 . S
C288 C297 1.390 . S
C289 C288 1.387 . S
C289 C291 1.387 . S
H290 C297 0.950 . S
C291 C289 1.387 . S
C291 C293 1.390 . S
C291 H295 0.950 . S
H292 C288 0.950 . S
C293 C291 1.390 . S
C293 C294 1.387 . S
C293 H296 0.950 . S
C294 C293 1.387 . S
C294 C297 1.387 . S
H295 C291 0.950 . S
H296 C293 0.950 . S
C297 C288 1.390 . S
C297 H290 0.950 . S
C297 C294 1.387 . S
C298 C299 1.387 . S
C298 H302 0.950 . S
C298 C307 1.390 . S
C299 C298 1.387 . S
C299 C301 1.387 . S
H300 C307 0.950 . S
C301 C299 1.387 . S
C301 C303 1.390 . S
C301 H305 0.950 . S
H302 C298 0.950 . S
C303 C301 1.390 . S
C303 C304 1.387 . S
C303 H306 0.950 . S
C304 C303 1.387 . S
C304 C307 1.387 . S
H305 C301 0.950 . S
H306 C303 0.950 . S
C307 C298 1.390 . S
C307 H300 0.950 . S
C307 C304 1.387 . S
C308 C309 1.387 . S
C308 H312 0.950 . S
C308 C317 1.390 . S
C309 C308 1.387 . S
C309 C311 1.387 . S
H310 C317 0.950 . S
C311 C309 1.387 . S
C311 C313 1.390 . S
C311 H315 0.950 . S
H312 C308 0.950 . S
C313 C311 1.390 . S
C313 C314 1.387 . S
C313 H316 0.950 . S
C314 C313 1.387 . S
C314 C317 1.387 . S
H315 C311 0.950 . S
H316 C313 0.950 . S
C317 C308 1.390 . S
C317 H310 0.950 . S
C317 C314 1.387 . S
C318 C319 1.387 . S
C318 H322 0.950 . S
C318 C327 1.390 . S
C319 C318 1.387 . S
C319 C321 1.387 . S
H320 C327 0.950 . S
C321 C319 1.387 . S
C321 C323 1.390 . S
C321 H325 0.950 . S
H322 C318 0.950 . S
C323 C321 1.390 . S
C323 C324 1.387 . S
C323 H326 0.950 . S
C324 C323 1.387 . S
C324 C327 1.387 . S
H325 C321 0.950 . S
H326 C323 0.950 . S
C327 C318 1.390 . S
C327 H320 0.950 . S
C327 C324 1.387 . S
C328 C329 1.387 . S
C328 H332 0.950 . S
C328 C337 1.390 . S
C329 C328 1.387 . S
C329 C331 1.387 . S
H330 C337 0.950 . S
C331 C329 1.387 . S
C331 C333 1.390 . S
C331 H335 0.950 . S
H332 C328 0.950 . S
C333 C331 1.390 . S
C333 C334 1.387 . S
C333 H336 0.950 . S
C334 C333 1.387 . S
C334 C337 1.387 . S
H335 C331 0.950 . S
H336 C333 0.950 . S
C337 C328 1.390 . S
C337 H330 0.950 . S
C337 C334 1.387 . S
C338 C339 1.387 . S
C338 H342 0.950 . S
C338 C347 1.390 . S
C339 C338 1.387 . S
C339 C341 1.387 . S
H340 C347 0.950 . S
C341 C339 1.387 . S
C341 C343 1.390 . S
C341 H345 0.950 . S
H342 C338 0.950 . S
C343 C341 1.390 . S
C343 C344 1.387 . S
C343 H346 0.950 . S
C344 C343 1.387 . S
C344 C347 1.387 . S
H345 C341 0.950 . S
H346 C343 0.950 . S
C347 C338 1.390 . S
C347 H340 0.950 . S
C347 C344 1.387 . S
C348 C349 1.387 . S
C348 H352 0.950 . S
C348 C357 1.390 . S
C349 C348 1.387 . S
C349 C351 1.387 . S
H350 C357 0.950 . S
C351 C349 1.387 . S
C351 C353 1.390 . S
C351 H355 0.950 . S
H352 C348 0.950 . S
C353 C351 1.390 . S
C353 C354 1.387 . S
C353 H356 0.950 . S
C354 C353 1.387 . S
C354 C357 1.387 . S
H355 C351 0.950 . S
H356 C353 0.950 . S
C357 C348 1.390 . S
C357 H350 0.950 . S
C357 C354 1.387 . S
C358 C359 1.387 . S
C358 H362 0.950 . S
C358 C367 1.390 . S
C359 C358 1.387 . S
C359 C361 1.387 . S
H360 C367 0.950 . S
C361 C359 1.387 . S
C361 C363 1.390 . S
C361 H365 0.950 . S
H362 C358 0.950 . S
C363 C361 1.390 . S
C363 C364 1.387 . S
C363 H366 0.950 . S
C364 C363 1.387 . S
C364 C367 1.387 . S
H365 C361 0.950 . S
H366 C363 0.950 . S
C367 C358 1.390 . S
C367 H360 0.950 . S
C367 C364 1.387 . S
C368 C369 1.387 . S
C368 H372 0.950 . S
C368 C377 1.390 1_556 S
C369 C368 1.387 . S
C369 C371 1.387 . S
H370 C377 0.950 . S
C371 C369 1.387 . S
C371 C373 1.390 1_556 S
C371 H375 0.950 . S
H372 C368 0.950 . S
C373 C371 1.390 1_554 S
C373 C374 1.387 . S
C373 H376 0.950 . S
C374 C373 1.387 . S
C374 C377 1.387 . S
H375 C371 0.950 . S
H376 C373 0.950 . S
C377 C368 1.390 1_554 S
C377 H370 0.950 . S
C377 C374 1.387 . S
C378 C379 1.387 . S
C378 H382 0.950 . S
C378 C387 1.390 . S
C379 C378 1.387 . S
C379 C381 1.387 . S
H380 C387 0.950 . S
C381 C379 1.387 . S
C381 C383 1.390 . S
C381 H385 0.950 . S
H382 C378 0.950 . S
C383 C381 1.390 . S
C383 C384 1.387 . S
C383 H386 0.950 . S
C384 C383 1.387 . S
C384 C387 1.387 . S
H385 C381 0.950 . S
H386 C383 0.950 . S
C387 C378 1.390 . S
C387 H380 0.950 . S
C387 C384 1.387 . S
C388 C389 1.387 . S
C388 H392 0.950 . S
C388 C397 1.390 1_554 S
C389 C388 1.387 . S
C389 C391 1.387 . S
H390 C397 0.950 . S
C391 C389 1.387 . S
C391 C393 1.390 1_554 S
C391 H395 0.950 . S
H392 C388 0.950 . S
C393 C391 1.390 1_556 S
C393 C394 1.387 . S
C393 H396 0.950 . S
C394 C393 1.387 . S
C394 C397 1.387 . S
H395 C391 0.950 . S
H396 C393 0.950 . S
C397 C388 1.390 1_556 S
C397 H390 0.950 . S
C397 C394 1.387 . S
C398 C399 1.387 . S
C398 H402 0.950 . S
C398 C407 1.390 . S
C399 C398 1.387 . S
C399 C401 1.387 . S
H400 C407 0.950 . S
C401 C399 1.387 . S
C401 C403 1.390 . S
C401 H405 0.950 . S
H402 C398 0.950 . S
C403 C401 1.390 . S
C403 C404 1.387 . S
C403 H406 0.950 . S
C404 C403 1.387 . S
C404 C407 1.387 . S
H405 C401 0.950 . S
H406 C403 0.950 . S
C407 C398 1.390 . S
C407 H400 0.950 . S
C407 C404 1.387 . S
C408 C409 1.387 . S
C408 H412 0.950 . S
C408 C417 1.390 . S
C409 C408 1.387 . S
C409 C411 1.387 . S
H410 C417 0.950 . S
C411 C409 1.387 . S
C411 C413 1.390 . S
C411 H415 0.950 . S
H412 C408 0.950 . S
C413 C411 1.390 . S
C413 C414 1.387 . S
C413 H416 0.950 . S
C414 C413 1.387 . S
C414 C417 1.387 . S
H415 C411 0.950 . S
H416 C413 0.950 . S
C417 C408 1.390 . S
C417 H410 0.950 . S
C417 C414 1.387 . S
C418 C419 1.387 . S
C418 H422 0.950 . S
C418 C427 1.390 1_556 S
C419 C418 1.387 . S
C419 C421 1.387 . S
H420 C427 0.950 . S
C421 C419 1.387 . S
C421 C423 1.390 1_556 S
C421 H425 0.950 . S
H422 C418 0.950 . S
C423 C421 1.390 1_554 S
C423 C424 1.387 . S
C423 H426 0.950 . S
C424 C423 1.387 . S
C424 C427 1.387 . S
H425 C421 0.950 . S
H426 C423 0.950 . S
C427 C418 1.390 1_554 S
C427 H420 0.950 . S
C427 C424 1.387 . S
C428 C429 1.387 . S
C428 H432 0.950 . S
C428 C437 1.390 . S
C429 C428 1.387 . S
C429 C431 1.387 . S
H430 C437 0.950 . S
C431 C429 1.387 . S
C431 C433 1.390 . S
C431 H435 0.950 . S
H432 C428 0.950 . S
C433 C431 1.390 . S
C433 C434 1.387 . S
C433 H436 0.950 . S
C434 C433 1.387 . S
C434 C437 1.387 . S
H435 C431 0.950 . S
H436 C433 0.950 . S
C437 C428 1.390 . S
C437 H430 0.950 . S
C437 C434 1.387 . S
C438 C439 1.387 . S
C438 H442 0.950 . S
C438 C447 1.390 1_554 S
C439 C438 1.387 . S
C439 C441 1.387 . S
H440 C447 0.950 . S
C441 C439 1.387 . S
C441 C443 1.390 1_554 S
C441 H445 0.950 . S
H442 C438 0.950 . S
C443 C441 1.390 1_556 S
C443 C444 1.387 . S
C443 H446 0.950 . S
C444 C443 1.387 . S
C444 C447 1.387 . S
H445 C441 0.950 . S
H446 C443 0.950 . S
C447 C438 1.390 1_556 S
C447 H440 0.950 . S
C447 C444 1.387 . S
C448 C449 1.387 . S
C448 H452 0.950 . S
C448 C457 1.390 . S
C449 C448 1.387 . S
C449 C451 1.387 . S
H450 C457 0.950 . S
C451 C449 1.387 . S
C451 C453 1.390 . S
C451 H455 0.950 . S
H452 C448 0.950 . S
C453 C451 1.390 . S
C453 C454 1.387 . S
C453 H456 0.950 . S
C454 C453 1.387 . S
C454 C457 1.387 . S
H455 C451 0.950 . S
H456 C453 0.950 . S
C457 C448 1.390 . S
C457 H450 0.950 . S
C457 C454 1.387 . S
C458 C459 1.387 . S
C458 H462 0.950 . S
C458 C467 1.390 . S
C459 C458 1.387 . S
C459 C461 1.387 . S
H460 C467 0.950 . S
C461 C459 1.387 . S
C461 C463 1.390 . S
C461 H465 0.950 . S
H462 C458 0.950 . S
C463 C461 1.390 . S
C463 C464 1.387 . S
C463 H466 0.950 . S
C464 C463 1.387 . S
C464 C467 1.387 . S
H465 C461 0.950 . S
H466 C463 0.950 . S
C467 C458 1.390 . S
C467 H460 0.950 . S
C467 C464 1.387 . S
C468 C469 1.387 . S
C468 H472 0.950 . S
C468 C477 1.390 . S
C469 C468 1.387 . S
C469 C471 1.387 . S
H470 C477 0.950 . S
C471 C469 1.387 . S
C471 C473 1.390 . S
C471 H475 0.950 . S
H472 C468 0.950 . S
C473 C471 1.390 . S
C473 C474 1.387 . S
C473 H476 0.950 . S
C474 C473 1.387 . S
C474 C477 1.387 . S
H475 C471 0.950 . S
H476 C473 0.950 . S
C477 C468 1.390 . S
C477 H470 0.950 . S
C477 C474 1.387 . S
C478 C479 1.387 . S
C478 H482 0.950 . S
C478 C487 1.390 . S
C479 C478 1.387 . S
C479 C481 1.387 . S
H480 C487 0.950 . S
C481 C479 1.387 . S
C481 C483 1.390 . S
C481 H485 0.950 . S
H482 C478 0.950 . S
C483 C481 1.390 . S
C483 C484 1.387 . S
C483 H486 0.950 . S
C484 C483 1.387 . S
C484 C487 1.387 . S
H485 C481 0.950 . S
H486 C483 0.950 . S
C487 C478 1.390 . S
C487 H480 0.950 . S
C487 C484 1.387 . S
C488 C489 1.387 . S
C488 H492 0.950 . S
C488 C497 1.390 . S
C489 C488 1.387 . S
C489 C491 1.387 . S
H490 C497 0.950 . S
C491 C489 1.387 . S
C491 C493 1.390 . S
C491 H495 0.950 . S
H492 C488 0.950 . S
C493 C491 1.390 . S
C493 C494 1.387 . S
C493 H496 0.950 . S
C494 C493 1.387 . S
C494 C497 1.387 . S
H495 C491 0.950 . S
H496 C493 0.950 . S
C497 C488 1.390 . S
C497 H490 0.950 . S
C497 C494 1.387 . S
C498 C499 1.387 . S
C498 H502 0.950 . S
C498 C507 1.390 . S
C499 C498 1.387 . S
C499 C501 1.387 . S
H500 C507 0.950 . S
C501 C499 1.387 . S
C501 C503 1.390 . S
C501 H505 0.950 . S
H502 C498 0.950 . S
C503 C501 1.390 . S
C503 C504 1.387 . S
C503 H506 0.950 . S
C504 C503 1.387 . S
C504 C507 1.387 . S
H505 C501 0.950 . S
H506 C503 0.950 . S
C507 C498 1.390 . S
C507 H500 0.950 . S
C507 C504 1.387 . S
C508 C509 1.387 . S
C508 H512 0.950 . S
C508 C517 1.390 . S
C509 C508 1.387 . S
C509 C511 1.387 . S
H510 C517 0.950 . S
C511 C509 1.387 . S
C511 C513 1.390 . S
C511 H515 0.950 . S
H512 C508 0.950 . S
C513 C511 1.390 . S
C513 C514 1.387 . S
C513 H516 0.950 . S
C514 C513 1.387 . S
C514 C517 1.387 . S
H515 C511 0.950 . S
H516 C513 0.950 . S
C517 C508 1.390 . S
C517 H510 0.950 . S
C517 C514 1.387 . S
C518 C519 1.387 . S
C518 H522 0.950 . S
C518 C527 1.390 . S
C519 C518 1.387 . S
C519 C521 1.387 . S
H520 C527 0.950 . S
C521 C519 1.387 . S
C521 C523 1.390 . S
C521 H525 0.950 . S
H522 C518 0.950 . S
C523 C521 1.390 . S
C523 C524 1.387 . S
C523 H526 0.950 . S
C524 C523 1.387 . S
C524 C527 1.387 . S
H525 C521 0.950 . S
H526 C523 0.950 . S
C527 C518 1.390 . S
C527 H520 0.950 . S
C527 C524 1.387 . S
C209 C3 1.463 . S
C214 C31 1.463 . S
C219 C42 1.463 . S
C224 C18 1.463 . S
C229 C55 1.463 . S
C234 C81 1.463 . S
C239 C96 1.466 . S
C244 C70 1.466 . S
C249 C107 1.466 . S
C254 C135 1.466 . S
C259 C146 1.463 . S
C264 C122 1.463 . S
C269 C159 1.463 . S
C274 C187 1.463 . S
C279 C200 1.466 . S
C284 C172 1.466 . S
C289 C57 1.400 . S
C294 C5 1.400 . S
C299 C16 1.397 . S
C304 C68 1.397 . S
C309 C29 1.400 . S
C314 C83 1.400 . S
C319 C94 1.397 . S
C324 C44 1.397 . S
C329 C109 1.397 . S
C334 C161 1.397 . S
C339 C120 1.400 . S
C344 C174 1.400 . S
C349 C133 1.400 . S
C354 C185 1.400 . S
C359 C148 1.397 . S
C364 C198 1.397 . S
C369 C140 1.422 . S
C374 C4 1.421 . S
C379 C147 1.421 . S
C384 C23 1.423 . S
C389 C36 1.422 . S
C394 C108 1.422 . S
C399 C43 1.422 . S
C404 C127 1.422 . S
C409 C56 1.421 . S
C414 C192 1.423 . S
C419 C75 1.422 . S
C424 C205 1.422 . S
C429 C82 1.422 . S
C434 C160 1.422 . S
C439 C173 1.421 . S
C444 C101 1.423 . S
C449 C10 1.383 . S
C454 C199 1.382 . S
C459 C166 1.382 . S
C464 C17 1.383 . S
C469 C30 1.382 . S
C474 C179 1.383 . S
C479 C186 1.382 . S
C484 C49 1.383 . S
C489 C121 1.382 . S
C494 C62 1.383 . S
C499 C69 1.382 . S
C504 C134 1.383 . S
C509 C153 1.383 . S
C514 C88 1.382 . S
C519 C114 1.382 . S
C524 C95 1.383 . S
