# Generated by pormake.
# Topology acs-a, (4)-cn, num edge types: 1
# Building blocks:
#     Node 0, Type 0, BuildingBlock: TATPOV_clean_sbu_0, # of connection points: 4
#     Node 1, Type 0, BuildingBlock: TATPOV_clean_sbu_0, # of connection points: 4
#     Node 2, Type 0, BuildingBlock: TATPOV_clean_sbu_0, # of connection points: 4
#     Node 3, Type 0, BuildingBlock: TATPOV_clean_sbu_0, # of connection points: 4
#     Node 4, Type 0, BuildingBlock: TATPOV_clean_sbu_0, # of connection points: 4
#     Node 5, Type 0, BuildingBlock: TATPOV_clean_sbu_0, # of connection points: 4
#     Node 6, Type 0, BuildingBlock: TATPOV_clean_sbu_0, # of connection points: 4
#     Node 7, Type 0, BuildingBlock: TATPOV_clean_sbu_0, # of connection points: 4
#     Node 8, Type 0, BuildingBlock: TATPOV_clean_sbu_0, # of connection points: 4
#     Node 9, Type 0, BuildingBlock: TATPOV_clean_sbu_0, # of connection points: 4
#     Node 10, Type 0, BuildingBlock: TATPOV_clean_sbu_0, # of connection points: 4
#     Node 11, Type 0, BuildingBlock: TATPOV_clean_sbu_0, # of connection points: 4
#     Edge 12, Type (0, 0), BuildingBlock: XIVTED_clean_linker_0, # of connection points: 2
#     Edge 13, Type (0, 0), BuildingBlock: XIVTED_clean_linker_0, # of connection points: 2
#     Edge 14, Type (0, 0), BuildingBlock: XIVTED_clean_linker_0, # of connection points: 2
#     Edge 15, Type (0, 0), BuildingBlock: XIVTED_clean_linker_0, # of connection points: 2
#     Edge 16, Type (0, 0), BuildingBlock: XIVTED_clean_linker_0, # of connection points: 2
#     Edge 17, Type (0, 0), BuildingBlock: XIVTED_clean_linker_0, # of connection points: 2
#     Edge 18, Type (0, 0), BuildingBlock: XIVTED_clean_linker_0, # of connection points: 2
#     Edge 19, Type (0, 0), BuildingBlock: XIVTED_clean_linker_0, # of connection points: 2
#     Edge 20, Type (0, 0), BuildingBlock: XIVTED_clean_linker_0, # of connection points: 2
#     Edge 21, Type (0, 0), BuildingBlock: XIVTED_clean_linker_0, # of connection points: 2
#     Edge 22, Type (0, 0), BuildingBlock: XIVTED_clean_linker_0, # of connection points: 2
#     Edge 23, Type (0, 0), BuildingBlock: XIVTED_clean_linker_0, # of connection points: 2
#     Edge 24, Type (0, 0), BuildingBlock: XIVTED_clean_linker_0, # of connection points: 2
#     Edge 25, Type (0, 0), BuildingBlock: XIVTED_clean_linker_0, # of connection points: 2
#     Edge 26, Type (0, 0), BuildingBlock: XIVTED_clean_linker_0, # of connection points: 2
#     Edge 27, Type (0, 0), BuildingBlock: XIVTED_clean_linker_0, # of connection points: 2
#     Edge 28, Type (0, 0), BuildingBlock: XIVTED_clean_linker_0, # of connection points: 2
#     Edge 29, Type (0, 0), BuildingBlock: XIVTED_clean_linker_0, # of connection points: 2
#     Edge 30, Type (0, 0), BuildingBlock: XIVTED_clean_linker_0, # of connection points: 2
#     Edge 31, Type (0, 0), BuildingBlock: XIVTED_clean_linker_0, # of connection points: 2
#     Edge 32, Type (0, 0), BuildingBlock: XIVTED_clean_linker_0, # of connection points: 2
#     Edge 33, Type (0, 0), BuildingBlock: XIVTED_clean_linker_0, # of connection points: 2
#     Edge 34, Type (0, 0), BuildingBlock: XIVTED_clean_linker_0, # of connection points: 2
#     Edge 35, Type (0, 0), BuildingBlock: XIVTED_clean_linker_0, # of connection points: 2
# Relax obj value: 0.368
# Max RMSD: 0.178
# Mean RMSD: 0.173
data_MOF--net-acs-a--node1-TATPOV_clean_sbu_0--edge1-XIVTED_clean_linker_0
_symmetry_space_group_name_H-M    P1
_symmetry_Int_Tables_number       1
_symmetry_cell_setting            triclinic
loop_
_symmetry_equiv_pos_as_xyz
'x, y, z'
_cell_length_a     46.192708
_cell_length_b     46.374866
_cell_length_c     45.682705
_cell_angle_alpha  90.384821
_cell_angle_beta   89.869973
_cell_angle_gamma 114.90547
loop_
_atom_site_label
_atom_site_type_symbol
_atom_site_fract_x
_atom_site_fract_y
_atom_site_fract_z
_atom_type_partial_charge
Zn0 Zn 0.57732 0.21711 0.15661 0.0
Zn1 Zn 0.57598 0.16338 0.14302 0.0
O2 O 0.62181 0.19197 0.12942 0.0
O3 O 0.61787 0.23762 0.13254 0.0
O4 O 0.56682 0.11878 0.12953 0.0
O5 O 0.58002 0.20997 0.19921 0.0
O6 O 0.57272 0.16105 0.18877 0.0
C7 C 0.63339 0.22185 0.12498 0.0
C8 C 0.5272 0.18868 0.11974 0.0
O9 O 0.54192 0.17084 0.11814 0.0
O10 O 0.53543 0.21037 0.13895 0.0
C11 C 0.56602 0.11413 0.102 0.0
O12 O 0.57438 0.13872 0.08452 0.0
C13 C 0.57635 0.18274 0.20768 0.0
Zn14 Zn 0.36914 0.5194 0.62094 0.0
Zn15 Zn 0.40536 0.52783 0.57684 0.0
O16 O 0.412 0.57399 0.57806 0.0
O17 O 0.38533 0.56806 0.61943 0.0
O18 O 0.43297 0.52205 0.54502 0.0
O19 O 0.38984 0.50044 0.6483 0.0
O20 O 0.42623 0.51903 0.61409 0.0
C21 C 0.40195 0.58572 0.59892 0.0
C22 C 0.3309 0.4902 0.5737 0.0
O23 O 0.35872 0.50174 0.56231 0.0
O24 O 0.32802 0.49261 0.60101 0.0
C25 C 0.42559 0.51838 0.51804 0.0
O26 O 0.39958 0.52075 0.50936 0.0
C27 C 0.41804 0.50772 0.63971 0.0
Zn28 Zn 0.86355 0.46179 0.13216 0.0
Zn29 Zn 0.895 0.4565 0.08883 0.0
O30 O 0.87315 0.48595 0.07641 0.0
O31 O 0.84802 0.4921 0.11504 0.0
O32 O 0.92983 0.46582 0.05834 0.0
O33 O 0.89766 0.47643 0.16241 0.0
O34 O 0.91975 0.45924 0.12804 0.0
C35 C 0.85541 0.49762 0.08837 0.0
C36 C 0.84004 0.39773 0.10394 0.0
O37 O 0.86135 0.41082 0.0845 0.0
O38 O 0.83761 0.41374 0.12573 0.0
C39 C 0.92698 0.47208 0.0317 0.0
O40 O 0.89921 0.4698 0.02234 0.0
C41 C 0.9193 0.46821 0.15447 0.0
Zn42 Zn 0.31409 0.79199 0.65386 0.0
Zn43 Zn 0.36614 0.83972 0.64092 0.0
O44 O 0.33045 0.84011 0.61291 0.0
O45 O 0.28537 0.80668 0.63222 0.0
O46 O 0.40429 0.87906 0.62807 0.0
O47 O 0.32114 0.80074 0.69663 0.0
O48 O 0.36334 0.84465 0.68631 0.0
C49 C 0.29997 0.82707 0.61295 0.0
C50 C 0.36057 0.77398 0.627 0.0
O51 O 0.3787 0.80334 0.63064 0.0
O52 O 0.33118 0.7633 0.63329 0.0
C53 C 0.41204 0.88095 0.60116 0.0
O54 O 0.39551 0.85721 0.58353 0.0
C55 C 0.34424 0.82592 0.70513 0.0
Zn56 Zn 0.61359 0.38536 0.06463 0.0
Zn57 Zn 0.58001 0.41561 0.04638 0.0
O58 O 0.55631 0.37069 0.02786 0.0
O59 O 0.58611 0.34665 0.04162 0.0
O60 O 0.55587 0.44006 0.03178 0.0
O61 O 0.60201 0.39143 0.10659 0.0
O62 O 0.57106 0.41328 0.09038 0.0
C63 C 0.56215 0.34617 0.02791 0.0
C64 C 0.65327 0.44095 0.03552 0.0
O65 O 0.62743 0.44468 0.03471 0.0
O66 O 0.6536 0.41623 0.04662 0.0
C67 C 0.54101 0.43396 0.00753 0.0
O68 O 0.54148 0.41099 0.99083 0.0
C69 C 0.58223 0.40328 0.11146 0.0
Zn70 Zn 0.20514 0.63777 0.55219 0.0
Zn71 Zn 0.14682 0.60827 0.53614 0.0
O72 O 0.16823 0.57758 0.52583 0.0
O73 O 0.21756 0.60294 0.54176 0.0
O74 O 0.10313 0.58493 0.51848 0.0
O75 O 0.18838 0.64189 0.59258 0.0
O76 O 0.13881 0.61093 0.58019 0.0
C77 C 0.19613 0.5789 0.52964 0.0
C78 C 0.19102 0.67574 0.51351 0.0
O79 O 0.16316 0.65371 0.51774 0.0
O80 O 0.21507 0.67291 0.52372 0.0
C81 C 0.08471 0.55771 0.52817 0.0
O82 O 0.09419 0.54601 0.5504 0.0
C83 C 0.15912 0.6275 0.59932 0.0
Zn84 Zn 0.84368 0.29895 0.34468 0.0
Zn85 Zn 0.86692 0.34572 0.38389 0.0
O86 O 0.85951 0.30448 0.40581 0.0
O87 O 0.84339 0.26576 0.37334 0.0
O88 O 0.89072 0.37953 0.41373 0.0
O89 O 0.87978 0.321 0.31615 0.0
O90 O 0.89613 0.36066 0.34762 0.0
C91 C 0.8501 0.27507 0.3996 0.0
C92 C 0.80171 0.33064 0.36019 0.0
O93 O 0.82422 0.34789 0.37726 0.0
O94 O 0.80473 0.30937 0.34448 0.0
C95 C 0.903 0.40892 0.40743 0.0
O96 O 0.89841 0.41768 0.3812 0.0
C97 C 0.89888 0.34912 0.32292 0.0
Zn98 Zn 0.38049 0.78595 0.97302 0.0
Zn99 Zn 0.40946 0.84572 0.97948 0.0
O100 O 0.4422 0.82662 0.98874 0.0
O101 O 0.41528 0.7748 0.98634 0.0
O102 O 0.43342 0.89095 0.99373 0.0
O103 O 0.37663 0.79588 0.92989 0.0
O104 O 0.40435 0.84756 0.93517 0.0
C105 C 0.4412 0.7988 0.99098 0.0
C106 C 0.34151 0.80425 0.00551 0.0
O107 O 0.36396 0.83093 -0.00158 0.0
O108 O 0.34432 0.77888 -0.0002 0.0
C109 C 0.44141 0.8948 0.0206 0.0
O110 O 0.43277 0.86964 0.03739 0.0
C111 C 0.38881 0.82356 0.91892 0.0
Zn112 Zn 0.51417 0.29789 0.34813 0.0
Zn113 Zn 0.53387 0.35073 0.37735 0.0
O114 O 0.57823 0.3515 0.37706 0.0
O115 O 0.56179 0.30716 0.35105 0.0
O116 O 0.53354 0.38904 0.3988 0.0
O117 O 0.49901 0.31224 0.31218 0.0
O118 O 0.52401 0.35812 0.33453 0.0
C119 C 0.58413 0.33019 0.36395 0.0
C120 C 0.48756 0.28402 0.40273 0.0
O121 O 0.50547 0.31373 0.40422 0.0
O122 O 0.48405 0.26977 0.37841 0.0
C123 C 0.50894 0.39382 0.39311 0.0
O124 O 0.48797 0.37488 0.37429 0.0
C125 C 0.51025 0.34225 0.31179 0.0
Zn126 Zn 0.18316 0.70584 0.84646 0.0
Zn127 Zn 0.1512 0.65155 0.86887 0.0
O128 O 0.1581 0.68664 0.90066 0.0
O129 O 0.18047 0.73306 0.8793 0.0
O130 O 0.11702 0.61245 0.88765 0.0
O131 O 0.15718 0.69973 0.81049 0.0
O132 O 0.13357 0.65072 0.82639 0.0
C133 C 0.16935 0.71694 0.90213 0.0
C134 C 0.21834 0.66572 0.85473 0.0
O135 O 0.19241 0.64526 0.86559 0.0
O136 O 0.21974 0.69208 0.84557 0.0
C137 C 0.11942 0.60468 0.9139 0.0
O138 O 0.14583 0.62106 0.92849 0.0
C139 C 0.1378 0.67112 0.80627 0.0
Zn140 Zn 0.62935 0.1971 0.48109 0.0
Zn141 Zn 0.60037 0.13716 0.48161 0.0
O142 O 0.57095 0.15717 0.49892 0.0
O143 O 0.59972 0.20816 0.50551 0.0
O144 O 0.57639 0.0914 0.49375 0.0
O145 O 0.62167 0.19153 0.43665 0.0
O146 O 0.59777 0.1392 0.43724 0.0
C147 C 0.57323 0.18426 0.50761 0.0
C148 C 0.67234 0.17434 0.49922 0.0
O149 O 0.64791 0.14865 0.49325 0.0
O150 O 0.6703 0.20061 0.49788 0.0
C151 C 0.574 0.08665 0.52122 0.0
O152 O 0.58839 0.11096 0.53895 0.0
C153 C 0.60809 0.16518 0.42307 0.0
Zn154 Zn 0.49488 0.67221 0.83073 0.0
Zn155 Zn 0.47364 0.62324 0.86795 0.0
O156 O 0.43121 0.62584 0.86108 0.0
O157 O 0.44801 0.66543 0.82968 0.0
O158 O 0.46467 0.58575 0.89405 0.0
O159 O 0.51084 0.64907 0.80158 0.0
O160 O 0.48981 0.60863 0.83144 0.0
C161 C 0.42558 0.64487 0.84451 0.0
C162 C 0.52148 0.69084 0.88751 0.0
O163 O 0.50379 0.66158 0.89223 0.0
O164 O 0.52348 0.70179 0.86189 0.0
C165 C 0.4668 0.58686 0.92179 0.0
O166 O 0.47254 0.61369 0.93553 0.0
C167 C 0.50387 0.62027 0.80749 0.0
H168 H 0.58396 0.1143 0.38451 0.0
H169 H 0.58381 0.22508 0.25161 0.0
H170 H 0.62111 0.21671 0.38842 0.0
H171 H 0.57331 0.12909 0.23663 0.0
H172 H 0.59089 0.21922 0.30333 0.0
H173 H 0.57465 0.11644 0.33167 0.0
C174 C 0.59023 0.13718 0.37432 0.0
C175 C 0.60329 0.16537 0.391 0.0
C176 C 0.58703 0.19933 0.28885 0.0
C177 C 0.5924 0.16786 0.33093 0.0
C178 C 0.58283 0.20259 0.25917 0.0
C179 C 0.57814 0.17758 0.23953 0.0
C180 C 0.58645 0.17077 0.2994 0.0
C181 C 0.57695 0.14901 0.25094 0.0
C182 C 0.58494 0.13835 0.34422 0.0
C183 C 0.611 0.19432 0.37661 0.0
N184 N 0.58114 0.14636 0.28021 0.0
N185 N 0.60529 0.19475 0.34757 0.0
H186 H 0.41034 0.47746 0.69229 0.0
H187 H 0.5334 0.63613 0.75398 0.0
H188 H 0.48146 0.54811 0.63836 0.0
H189 H 0.48024 0.55531 0.80851 0.0
H190 H 0.52452 0.60028 0.71228 0.0
H191 H 0.44449 0.4992 0.73489 0.0
C192 C 0.43367 0.49686 0.68924 0.0
C193 C 0.44265 0.51161 0.66192 0.0
C194 C 0.51548 0.59024 0.73351 0.0
C195 C 0.48138 0.53739 0.71073 0.0
C196 C 0.52053 0.61078 0.75737 0.0
C197 C 0.50667 0.59883 0.78459 0.0
C198 C 0.49589 0.55764 0.73678 0.0
C199 C 0.49073 0.5657 0.78778 0.0
C200 C 0.45317 0.50942 0.71363 0.0
C201 C 0.47331 0.53637 0.65914 0.0
N202 N 0.48503 0.54634 0.76399 0.0
N203 N 0.49114 0.5492 0.68343 0.0
H204 H 0.93659 0.49631 0.20825 0.0
H205 H 0.91397 0.33252 0.26914 0.0
H206 H 0.94176 0.42228 0.15387 0.0
H207 H 0.93146 0.41406 0.32437 0.0
H208 H 0.93607 0.368 0.2277 0.0
H209 H 0.94765 0.47149 0.25111 0.0
C210 C 0.94117 0.47541 0.20522 0.0
C211 C 0.9376 0.46098 0.17756 0.0
C212 C 0.93584 0.37826 0.24901 0.0
C213 C 0.94909 0.4317 0.22666 0.0
C214 C 0.92318 0.35794 0.27275 0.0
C215 C 0.92006 0.37024 0.30015 0.0
C216 C 0.94488 0.41105 0.25257 0.0
C217 C 0.93284 0.40343 0.30355 0.0
C218 C 0.94732 0.46109 0.22975 0.0
C219 C 0.94399 0.43404 0.17484 0.0
N220 N 0.94393 0.42261 0.27989 0.0
N221 N 0.94846 0.41971 0.19921 0.0
H222 H 0.42035 0.87537 0.8832 0.0
H223 H 0.30326 0.79476 0.74884 0.0
H224 H 0.34441 0.78059 0.88311 0.0
H225 H 0.39758 0.86899 0.73448 0.0
H226 H 0.31421 0.79731 0.80092 0.0
H227 H 0.40933 0.88013 0.83109 0.0
C228 C 0.4014 0.85564 0.8723 0.0
C229 C 0.38336 0.82748 0.88753 0.0
C230 C 0.33253 0.8132 0.78647 0.0
C231 C 0.3704 0.83303 0.82846 0.0
C232 C 0.32627 0.81187 0.75664 0.0
C233 C 0.34972 0.83139 0.73708 0.0
C234 C 0.36248 0.83425 0.79717 0.0
C235 C 0.37888 0.85339 0.74874 0.0
C236 C 0.3952 0.85838 0.84263 0.0
C237 C 0.35911 0.80267 0.87232 0.0
N238 N 0.38459 0.85408 0.77811 0.0
N239 N 0.35329 0.80611 0.84379 0.0
H240 H 0.47488 0.32006 0.26169 0.0
H241 H 0.616 0.41526 0.16232 0.0
H242 H 0.55469 0.40117 0.29716 0.0
H243 H 0.52116 0.38926 0.12849 0.0
H244 H 0.59441 0.40761 0.2122 0.0
H245 H 0.49008 0.34229 0.21247 0.0
C246 C 0.49507 0.3429 0.25921 0.0
C247 C 0.51371 0.35866 0.28351 0.0
C248 C 0.57845 0.40416 0.19385 0.0
C249 C 0.53164 0.38351 0.22748 0.0
C250 C 0.5907 0.40837 0.16549 0.0
C251 C 0.57027 0.40288 0.14144 0.0
C252 C 0.54542 0.3933 0.19806 0.0
C253 C 0.53765 0.3939 0.14659 0.0
C254 C 0.5037 0.35553 0.23118 0.0
C255 C 0.53967 0.38818 0.27905 0.0
N256 N 0.52603 0.38864 0.1744 0.0
N257 N 0.54841 0.39924 0.25148 0.0
H258 H 0.18371 0.68144 0.6316 0.0
H259 H 0.11293 0.61073 0.78232 0.0
H260 H 0.11114 0.5851 0.63391 0.0
H261 H 0.13769 0.70881 0.7608 0.0
H262 H 0.11063 0.59823 0.72977 0.0
H263 H 0.16847 0.69027 0.68077 0.0
C264 C 0.16452 0.66211 0.64255 0.0
C265 C 0.1488 0.63244 0.62882 0.0
C266 C 0.11569 0.62227 0.73667 0.0
C267 C 0.13133 0.64231 0.68533 0.0
C268 C 0.11684 0.62943 0.76664 0.0
C269 C 0.12619 0.66103 0.77602 0.0
C270 C 0.12435 0.64698 0.71623 0.0
C271 C 0.13102 0.68424 0.75465 0.0
C272 C 0.15561 0.66724 0.6705 0.0
C273 C 0.12383 0.60831 0.64386 0.0
N274 N 0.1308 0.67691 0.72584 0.0
N275 N 0.11617 0.61357 0.67166 0.0
H276 H 0.55697 0.09653 0.04429 0.0
H277 H 0.46025 0.91088 0.07742 0.0
H278 H 0.54166 0.05728 0.13137 0.0
H279 H 0.46749 0.95177 0.9916 0.0
H280 H 0.49311 0.96371 0.09716 0.0
H281 H 0.52814 0.04308 0.02425 0.0
C282 C 0.54782 0.07665 0.05923 0.0
C283 C 0.55164 0.08148 0.08962 0.0
C284 C 0.48754 0.96114 0.07401 0.0
C285 C 0.5183 0.02007 0.06672 0.0
C286 C 0.46872 0.93096 0.06269 0.0
C287 C 0.46098 0.92685 0.03278 0.0
C288 C 0.49884 0.9875 0.0553 0.0
C289 C 0.47274 0.95379 0.0148 0.0
C290 C 0.53121 0.0461 0.04773 0.0
C291 C 0.53924 0.05473 0.10782 0.0
N292 N 0.49106 0.98294 0.02634 0.0
N293 N 0.523 0.0252 0.0961 0.0
H294 H 0.47888 0.50814 0.5293 0.0
H295 H 0.46558 0.41659 0.37804 0.0
H296 H 0.41314 0.50242 0.46009 0.0
H297 H 0.53639 0.4268 0.44363 0.0
H298 H 0.44978 0.45237 0.40614 0.0
H299 H 0.50384 0.48305 0.49685 0.0
C300 C 0.46991 0.50197 0.50717 0.0
C301 C 0.44359 0.50711 0.49753 0.0
C302 C 0.46898 0.44709 0.41435 0.0
C303 C 0.472 0.47816 0.46034 0.0
C304 C 0.47802 0.42657 0.3983 0.0
C305 C 0.50214 0.41841 0.40865 0.0
C306 C 0.48389 0.45938 0.44123 0.0
C307 C 0.5176 0.43238 0.43489 0.0
C308 C 0.48419 0.48761 0.48867 0.0
C309 C 0.43318 0.49874 0.46859 0.0
N310 N 0.50794 0.45191 0.45048 0.0
N311 N 0.44719 0.48442 0.45116 0.0
H312 H 0.05845 0.57191 0.8929 0.0
H313 H 0.98939 0.48704 0.04598 0.0
H314 H 0.1166 0.58135 0.96933 0.0
H315 H 0.92997 0.48905 0.97394 0.0
H316 H 0.03662 0.51515 0.01582 0.0
H317 H 0.01177 0.53532 0.9199 0.0
C318 C 0.06151 0.56606 0.91525 0.0
C319 C 0.09153 0.57997 0.92891 0.0
C320 C 0.01324 0.50923 0.00652 0.0
C321 C 0.03805 0.53808 0.96001 0.0
C322 C 0.98621 0.49306 0.02371 0.0
C323 C 0.95558 0.48584 0.0126 0.0
C324 C 0.00974 0.51826 0.97792 0.0
C325 C 0.95306 0.49426 0.98353 0.0
C326 C 0.03479 0.54521 0.93069 0.0
C327 C 0.09395 0.5714 0.95794 0.0
N328 N 0.97975 0.51017 0.96729 0.0
N329 N 0.06757 0.55117 0.97253 0.0
H330 H 0.5625 0.06989 0.57878 0.0
H331 H 0.43233 0.89329 0.54439 0.0
H332 H 0.5379 0.03148 0.49135 0.0
H333 H 0.45148 0.93474 0.63107 0.0
H334 H 0.47394 0.94208 0.52494 0.0
H335 H 0.52525 0.01898 0.59854 0.0
C336 C 0.54942 0.05069 0.5637 0.0
C337 C 0.55323 0.05507 0.53331 0.0
C338 C 0.46914 0.94048 0.54823 0.0
C339 C 0.51034 0.99659 0.5559 0.0
C340 C 0.44537 0.91259 0.55939 0.0
C341 C 0.43825 0.90993 0.58943 0.0
C342 C 0.48602 0.96598 0.56721 0.0
C343 C 0.45604 0.93574 0.60776 0.0
C344 C 0.52808 0.02161 0.57504 0.0
C345 C 0.53567 0.02924 0.51491 0.0
N346 N 0.47902 0.9627 0.59635 0.0
N347 N 0.51489 0.00116 0.52649 0.0
H348 H 0.45434 0.52762 0.90031 0.0
H349 H 0.53608 0.48378 0.03624 0.0
H350 H 0.48454 0.58502 0.97877 0.0
H351 H 0.50779 0.42817 0.95662 0.0
H352 H 0.51122 0.51747 0.01826 0.0
H353 H 0.4668 0.48705 0.92357 0.0
C354 C 0.46318 0.53152 0.9226 0.0
C355 C 0.46885 0.56 0.93746 0.0
C356 C 0.51024 0.49775 0.00482 0.0
C357 C 0.48354 0.51372 0.96412 0.0
C358 C 0.52449 0.47853 0.01504 0.0
C359 C 0.52435 0.45332 0.99775 0.0
C360 C 0.49581 0.4918 0.97707 0.0
C361 C 0.50875 0.4475 0.97058 0.0
C362 C 0.47038 0.50835 0.93585 0.0
C363 C 0.48003 0.56356 0.9664 0.0
N364 N 0.49532 0.46674 0.961 0.0
N365 N 0.48742 0.54087 0.97866 0.0
H366 H 0.91855 0.39866 0.46302 0.0
H367 H 0.05947 0.57308 0.47959 0.0
H368 H 0.93845 0.47276 0.39909 0.0
H369 H 0.04085 0.49783 0.54199 0.0
H370 H 0.01175 0.53859 0.45244 0.0
H371 H 0.95954 0.43653 0.4948 0.0
C372 C 0.93133 0.42298 0.45575 0.0
C373 C 0.92524 0.43245 0.42819 0.0
C374 C 0.01796 0.52971 0.47219 0.0
C375 C 0.97243 0.47595 0.46448 0.0
C376 C 0.04522 0.54941 0.48774 0.0
C377 C 0.05437 0.53824 0.51298 0.0
C378 C -0.00027 0.49857 0.48191 0.0
C379 C 0.03487 0.50739 0.52255 0.0
C380 C 0.95479 0.4446 0.47393 0.0
C381 C 0.94245 0.46433 0.42007 0.0
N382 N 0.00862 0.48858 0.5069 0.0
N383 N 0.96545 0.48486 0.43802 0.0
H384 H 0.52984 0.17247 0.06245 0.0
H385 H 0.49828 0.32106 0.0385 0.0
H386 H 0.48063 0.21047 0.12045 0.0
H387 H 0.57134 0.29948 -0.00161 0.0
H388 H 0.46723 0.26446 0.04796 0.0
H389 H 0.51841 0.19981 0.02164 0.0
C390 C 0.51523 0.18524 0.06641 0.0
C391 C 0.50747 0.19055 0.09506 0.0
C392 C 0.48931 0.2719 0.03576 0.0
C393 C 0.49485 0.22217 0.04868 0.0
C394 C 0.50694 0.30424 0.03011 0.0
C395 C 0.53788 0.31487 0.01866 0.0
C396 C 0.50302 0.25052 0.02998 0.0
C397 C 0.54792 0.29214 0.00809 0.0
C398 C 0.50884 0.20101 0.04306 0.0
C399 C 0.48812 0.20686 0.09879 0.0
N400 N 0.53098 0.26103 0.0148 0.0
N401 N 0.48331 0.22297 0.076 0.0
H402 H 0.32897 0.50359 0.51555 0.0
H403 H 0.16713 0.51744 0.54831 0.0
H404 H 0.2678 0.46133 0.5895 0.0
H405 H 0.24433 0.58085 0.49487 0.0
H406 H 0.19194 0.47976 0.5483 0.0
H407 H 0.28579 0.51261 0.49276 0.0
C408 C 0.30608 0.49499 0.52652 0.0
C409 C 0.30241 0.48279 0.55502 0.0
C410 C 0.20279 0.50139 0.53568 0.0
C411 C 0.25313 0.49354 0.5292 0.0
C412 C 0.18854 0.52274 0.53553 0.0
C413 C 0.20399 0.55224 0.52178 0.0
C414 C 0.23247 0.50977 0.52185 0.0
C415 C 0.2319 0.55834 0.50588 0.0
C416 C 0.28148 0.50041 0.51355 0.0
C417 C 0.27199 0.47172 0.56788 0.0
N418 N 0.24551 0.53751 0.50669 0.0
N419 N 0.24877 0.47818 0.55526 0.0
H420 H 0.82139 0.35181 0.1453 0.0
H421 H 0.6524 0.26796 0.08374 0.0
H422 H 0.80339 0.36939 0.05618 0.0
H423 H 0.68798 0.21644 0.14062 0.0
H424 H 0.7074 0.30461 0.07205 0.0
H425 H 0.77365 0.30131 0.1439 0.0
C426 C 0.80776 0.34454 0.12519 0.0
C427 C 0.81619 0.3646 0.10081 0.0
C428 C 0.70322 0.28481 0.08649 0.0
C429 C 0.76112 0.30763 0.09937 0.0
C430 C 0.67189 0.26398 0.0932 0.0
C431 C 0.66582 0.23929 0.11317 0.0
C432 C 0.72858 0.28158 0.1007 0.0
C433 C 0.69179 0.23516 0.125 0.0
C434 C 0.7806 0.31576 0.12437 0.0
C435 C 0.7977 0.35437 0.07533 0.0
N436 N 0.72214 0.25665 0.11918 0.0
N437 N 0.77047 0.32691 0.0755 0.0
H438 H 0.33406 0.72615 0.58736 0.0
H439 H 0.39975 0.62036 0.55154 0.0
H440 H 0.41586 0.77078 0.64375 0.0
H441 H 0.41317 0.62629 0.64515 0.0
H442 H 0.39577 0.67163 0.55289 0.0
H443 H 0.35228 0.685 0.5748 0.0
C444 C 0.35615 0.7275 0.59668 0.0
C445 C 0.37358 0.75175 0.61654 0.0
C446 C 0.40023 0.66189 0.57297 0.0
C447 C 0.39418 0.70479 0.60271 0.0
C448 C 0.40276 0.6329 0.57221 0.0
C449 C 0.40648 0.61911 0.59833 0.0
C450 C 0.40208 0.67725 0.59996 0.0
C451 C 0.40997 0.6361 0.6246 0.0
C452 C 0.36663 0.70425 0.58935 0.0
C453 C 0.40195 0.7525 0.62818 0.0
N454 N 0.4076 0.66432 0.62478 0.0
N455 N 0.41099 0.72879 0.62169 0.0
H456 H 0.69514 0.43812 0.9953 0.0
H457 H 0.82461 0.53388 0.10599 0.0
H458 H 0.68257 0.49989 0.05986 0.0
H459 H 0.84269 0.48881 0.02962 0.0
H460 H 0.77875 0.5358 0.08127 0.0
H461 H 0.75278 0.46928 0.99779 0.0
C462 C 0.70457 0.45922 0.00903 0.0
C463 C 0.68427 0.46644 0.02751 0.0
C464 C 0.79325 0.52637 0.06948 0.0
C465 C 0.75027 0.50114 0.03188 0.0
C466 C 0.81959 0.52537 0.0836 0.0
C467 C 0.8369 0.51024 0.07021 0.0
C468 C 0.78376 0.51143 0.04206 0.0
C469 C 0.82964 0.50013 0.04103 0.0
C470 C 0.73755 0.4769 0.0107 0.0
C471 C 0.69755 0.49367 0.04522 0.0
N472 N 0.80299 0.49996 0.02827 0.0
N473 N 0.72983 0.50949 0.04768 0.0
H474 H 0.23915 0.71871 0.48081 0.0
H475 H 0.23782 0.81864 0.61023 0.0
H476 H 0.155 0.70712 0.52936 0.0
H477 H 0.31989 0.83625 0.55595 0.0
H478 H 0.20322 0.79503 0.56831 0.0
H479 H 0.26243 0.77534 0.49221 0.0
C480 C 0.22487 0.72842 0.49264 0.0
C481 C 0.19569 0.70808 0.50519 0.0
C482 C 0.22882 0.80504 0.56513 0.0
C483 C 0.22285 0.77246 0.51977 0.0
C484 C 0.24863 0.81875 0.58913 0.0
C485 C 0.28167 0.82818 0.58682 0.0
C486 C 0.24219 0.79983 0.53905 0.0
C487 C 0.29444 0.82842 0.55889 0.0
C488 C 0.23834 0.76081 0.49949 0.0
C489 C 0.17799 0.7219 0.51992 0.0
N490 N 0.27462 0.81323 0.53631 0.0
N491 N 0.1924 0.75307 0.52792 0.0
H492 H 0.78444 0.37165 0.39208 0.0
H493 H 0.60401 0.29011 0.3352 0.0
H494 H 0.74888 0.29657 0.32728 0.0
H495 H 0.63892 0.37362 0.39071 0.0
H496 H 0.65729 0.29213 0.33351 0.0
H497 H 0.73199 0.37323 0.39281 0.0
C498 C 0.76574 0.35567 0.37788 0.0
C499 C 0.7711 0.33385 0.35967 0.0
C500 C 0.65347 0.31014 0.34602 0.0
C501 C 0.71111 0.33541 0.36059 0.0
C502 C 0.6229 0.30897 0.34707 0.0
C503 C 0.61686 0.33177 0.36314 0.0
C504 C 0.67847 0.33422 0.36122 0.0
C505 C 0.64247 0.35558 0.37803 0.0
C506 C 0.73582 0.35658 0.37835 0.0
C507 C 0.74596 0.31373 0.34175 0.0
N508 N 0.6722 0.35615 0.37677 0.0
N509 N 0.71713 0.31491 0.3428 0.0
H510 H 0.29322 0.75644 0.03418 0.0
H511 H 0.18857 0.78043 0.91357 0.0
H512 H 0.31493 0.84438 0.98892 0.0
H513 H 0.16952 0.69154 0.95621 0.0
H514 H 0.22142 0.80885 0.95516 0.0
H515 H 0.237 0.73909 0.02196 0.0
C516 C 0.28596 0.77272 0.02276 0.0
C517 C 0.30893 0.80138 0.01158 0.0
C518 C 0.20929 0.78315 0.9559 0.0
C519 C 0.24481 0.78119 0.99655 0.0
C520 C 0.19038 0.76686 0.93213 0.0
C521 C 0.17731 0.73349 0.93086 0.0
C522 C 0.21556 0.76593 0.97828 0.0
C523 C 0.17985 0.71726 0.95586 0.0
C524 C 0.25381 0.76266 0.01552 0.0
C525 C 0.29812 0.82174 0.99738 0.0
N526 N 0.19952 0.73361 0.97814 0.0
N527 N 0.26695 0.81078 0.98932 0.0
H528 H 0.56802 0.23484 0.53444 0.0
H529 H 0.45267 0.21957 0.40853 0.0
H530 H 0.51257 0.14738 0.48842 0.0
H531 H 0.50259 0.305 0.45939 0.0
H532 H 0.45761 0.18825 0.44922 0.0
H533 H 0.52882 0.25479 0.52096 0.0
C534 C 0.54694 0.21932 0.52243 0.0
C535 C 0.54422 0.18991 0.51154 0.0
C536 C 0.46668 0.21378 0.4519 0.0
C537 C 0.49985 0.21305 0.49507 0.0
C538 C 0.46374 0.23174 0.42861 0.0
C539 C 0.47852 0.2651 0.43002 0.0
C540 C 0.48498 0.22936 0.47648 0.0
C541 C 0.49178 0.27939 0.4569 0.0
C542 C 0.52458 0.23082 0.51454 0.0
C543 C 0.51609 0.17057 0.49663 0.0
N544 N 0.49564 0.26153 0.47872 0.0
N545 N 0.49556 0.18292 0.4879 0.0
H546 H 0.22948 0.61668 0.87858 0.0
H547 H 0.40573 0.68165 0.811 0.0
H548 H 0.27308 0.70054 0.82514 0.0
H549 H 0.37189 0.60754 0.87595 0.0
H550 H 0.35424 0.68413 0.81212 0.0
H551 H 0.27873 0.60869 0.87456 0.0
C552 C 0.24927 0.6333 0.86594 0.0
C553 C 0.24715 0.65941 0.8523 0.0
C554 C 0.35794 0.66722 0.8261 0.0
C555 C 0.30326 0.65032 0.84751 0.0
C556 C 0.38741 0.66572 0.82542 0.0
C557 C 0.39333 0.6445 0.84357 0.0
C558 C 0.33397 0.64738 0.84508 0.0
C559 C 0.36845 0.62436 0.86166 0.0
C560 C 0.27735 0.62875 0.8637 0.0
C561 C 0.27356 0.68018 0.83621 0.0
N562 N 0.33987 0.62639 0.86207 0.0
N563 N 0.30037 0.67518 0.83429 0.0
H564 H 0.69398 0.13474 0.47149 0.0
H565 H 0.8551 0.2859 0.45895 0.0
H566 H 0.72467 0.21719 0.52785 0.0
H567 H 0.81886 0.21002 0.39507 0.0
H568 H 0.81932 0.25037 0.49536 0.0
H569 H 0.74931 0.15078 0.45605 0.0
C570 C 0.71253 0.15541 0.48168 0.0
C571 C 0.70467 0.17523 0.5003 0.0
C572 C 0.81982 0.24117 0.4736 0.0
C573 C 0.76779 0.19408 0.48225 0.0
C574 C 0.84041 0.26147 0.45276 0.0
C575 C 0.83903 0.25137 0.42353 0.0
C576 C 0.7975 0.21075 0.46504 0.0
C577 C 0.82002 0.21919 0.4171 0.0
C578 C 0.74414 0.16476 0.47261 0.0
C579 C 0.72968 0.20168 0.51286 0.0
N580 N 0.79928 0.2003 0.43743 0.0
N581 N 0.76001 0.21082 0.50303 0.0
H582 H 0.51666 0.67683 0.94614 0.0
H583 H 0.49979 0.83616 0.96819 0.0
H584 H 0.5511 0.75611 0.88664 0.0
H585 H 0.44907 0.74932 0.01575 0.0
H586 H 0.53905 0.81643 0.95302 0.0
H587 H 0.51414 0.71217 0.98482 0.0
C588 C 0.52472 0.70187 0.94139 0.0
C589 C 0.5326 0.71319 0.91269 0.0
C590 C 0.52001 0.80219 0.9677 0.0
C591 C 0.5293 0.75362 0.9568 0.0
C592 C 0.49772 0.81357 0.97657 0.0
C593 C 0.47068 0.79386 0.99249 0.0
C594 C 0.51502 0.771 0.97486 0.0
C595 C 0.4692 0.76487 0.00281 0.0
C596 C 0.52319 0.72206 0.96354 0.0
C597 C 0.54374 0.74606 0.90818 0.0
N598 N 0.4906 0.75395 0.99323 0.0
N599 N 0.54079 0.76496 0.92975 0.0
loop_
_geom_bond_atom_site_label_1
_geom_bond_atom_site_label_2
_geom_bond_distance
_geom_bond_site_symmetry_2
_ccdc_geom_bond_type
Zn0 O3 2.031 . S
Zn0 O5 2.049 . S
Zn0 O10 2.067 . S
Zn1 O2 1.962 . S
Zn1 O4 1.986 . S
Zn1 O6 1.996 . S
Zn1 O9 1.943 . S
O2 Zn1 1.962 . S
O2 C7 1.254 . S
O3 Zn0 2.031 . S
O3 C7 1.269 . S
O4 Zn1 1.986 . S
O4 C11 1.262 . S
O5 Zn0 2.049 . S
O5 C13 1.260 . S
O6 Zn1 1.996 . S
O6 C13 1.257 . S
C7 O2 1.254 . S
C7 O3 1.269 . S
C8 O9 1.249 . S
C8 O10 1.270 . S
O9 Zn1 1.943 . S
O9 C8 1.249 . S
O10 Zn0 2.067 . S
O10 C8 1.270 . S
C11 O4 1.262 . S
C11 O12 1.232 . S
O12 C11 1.232 . S
C13 O5 1.260 . S
C13 O6 1.257 . S
Zn14 O17 2.031 . S
Zn14 O19 2.049 . S
Zn14 O24 2.067 . S
Zn15 O16 1.962 . S
Zn15 O18 1.986 . S
Zn15 O20 1.996 . S
Zn15 O23 1.943 . S
O16 Zn15 1.962 . S
O16 C21 1.254 . S
O17 Zn14 2.031 . S
O17 C21 1.269 . S
O18 Zn15 1.986 . S
O18 C25 1.262 . S
O19 Zn14 2.049 . S
O19 C27 1.260 . S
O20 Zn15 1.996 . S
O20 C27 1.257 . S
C21 O16 1.254 . S
C21 O17 1.269 . S
C22 O23 1.249 . S
C22 O24 1.270 . S
O23 Zn15 1.943 . S
O23 C22 1.249 . S
O24 Zn14 2.067 . S
O24 C22 1.270 . S
C25 O18 1.262 . S
C25 O26 1.232 . S
O26 C25 1.232 . S
C27 O19 1.260 . S
C27 O20 1.257 . S
Zn28 O31 2.031 . S
Zn28 O33 2.049 . S
Zn28 O38 2.067 . S
Zn29 O30 1.962 . S
Zn29 O32 1.986 . S
Zn29 O34 1.996 . S
Zn29 O37 1.943 . S
O30 Zn29 1.962 . S
O30 C35 1.254 . S
O31 Zn28 2.031 . S
O31 C35 1.269 . S
O32 Zn29 1.986 . S
O32 C39 1.262 . S
O33 Zn28 2.049 . S
O33 C41 1.260 . S
O34 Zn29 1.996 . S
O34 C41 1.257 . S
C35 O30 1.254 . S
C35 O31 1.269 . S
C36 O37 1.249 . S
C36 O38 1.270 . S
O37 Zn29 1.943 . S
O37 C36 1.249 . S
O38 Zn28 2.067 . S
O38 C36 1.270 . S
C39 O32 1.262 . S
C39 O40 1.232 . S
O40 C39 1.232 . S
C41 O33 1.260 . S
C41 O34 1.257 . S
Zn42 O45 2.031 . S
Zn42 O47 2.049 . S
Zn42 O52 2.067 . S
Zn43 O44 1.962 . S
Zn43 O46 1.986 . S
Zn43 O48 1.996 . S
Zn43 O51 1.943 . S
O44 Zn43 1.962 . S
O44 C49 1.254 . S
O45 Zn42 2.031 . S
O45 C49 1.269 . S
O46 Zn43 1.986 . S
O46 C53 1.262 . S
O47 Zn42 2.049 . S
O47 C55 1.260 . S
O48 Zn43 1.996 . S
O48 C55 1.257 . S
C49 O44 1.254 . S
C49 O45 1.269 . S
C50 O51 1.249 . S
C50 O52 1.270 . S
O51 Zn43 1.943 . S
O51 C50 1.249 . S
O52 Zn42 2.067 . S
O52 C50 1.270 . S
C53 O46 1.262 . S
C53 O54 1.232 . S
O54 C53 1.232 . S
C55 O47 1.260 . S
C55 O48 1.257 . S
Zn56 O59 2.031 . S
Zn56 O61 2.049 . S
Zn56 O66 2.067 . S
Zn57 O58 1.962 . S
Zn57 O60 1.986 . S
Zn57 O62 1.996 . S
Zn57 O65 1.943 . S
O58 Zn57 1.962 . S
O58 C63 1.254 . S
O59 Zn56 2.031 . S
O59 C63 1.269 . S
O60 Zn57 1.986 . S
O60 C67 1.262 . S
O61 Zn56 2.049 . S
O61 C69 1.260 . S
O62 Zn57 1.996 . S
O62 C69 1.257 . S
C63 O58 1.254 . S
C63 O59 1.269 . S
C64 O65 1.249 . S
C64 O66 1.270 . S
O65 Zn57 1.943 . S
O65 C64 1.249 . S
O66 Zn56 2.067 . S
O66 C64 1.270 . S
C67 O60 1.262 . S
C67 O68 1.232 . S
O68 C67 1.232 . S
C69 O61 1.260 . S
C69 O62 1.257 . S
Zn70 O73 2.031 . S
Zn70 O75 2.049 . S
Zn70 O80 2.067 . S
Zn71 O72 1.962 . S
Zn71 O74 1.986 . S
Zn71 O76 1.996 . S
Zn71 O79 1.943 . S
O72 Zn71 1.962 . S
O72 C77 1.254 . S
O73 Zn70 2.031 . S
O73 C77 1.269 . S
O74 Zn71 1.986 . S
O74 C81 1.262 . S
O75 Zn70 2.049 . S
O75 C83 1.260 . S
O76 Zn71 1.996 . S
O76 C83 1.257 . S
C77 O72 1.254 . S
C77 O73 1.269 . S
C78 O79 1.249 . S
C78 O80 1.270 . S
O79 Zn71 1.943 . S
O79 C78 1.249 . S
O80 Zn70 2.067 . S
O80 C78 1.270 . S
C81 O74 1.262 . S
C81 O82 1.232 . S
O82 C81 1.232 . S
C83 O75 1.260 . S
C83 O76 1.257 . S
Zn84 O87 2.031 . S
Zn84 O89 2.049 . S
Zn84 O94 2.067 . S
Zn85 O86 1.962 . S
Zn85 O88 1.986 . S
Zn85 O90 1.996 . S
Zn85 O93 1.943 . S
O86 Zn85 1.962 . S
O86 C91 1.254 . S
O87 Zn84 2.031 . S
O87 C91 1.269 . S
O88 Zn85 1.986 . S
O88 C95 1.262 . S
O89 Zn84 2.049 . S
O89 C97 1.260 . S
O90 Zn85 1.996 . S
O90 C97 1.257 . S
C91 O86 1.254 . S
C91 O87 1.269 . S
C92 O93 1.249 . S
C92 O94 1.270 . S
O93 Zn85 1.943 . S
O93 C92 1.249 . S
O94 Zn84 2.067 . S
O94 C92 1.270 . S
C95 O88 1.262 . S
C95 O96 1.232 . S
O96 C95 1.232 . S
C97 O89 1.260 . S
C97 O90 1.257 . S
Zn98 O101 2.031 . S
Zn98 O103 2.049 . S
Zn98 O108 2.067 . S
Zn99 O100 1.962 . S
Zn99 O102 1.986 . S
Zn99 O104 1.996 . S
Zn99 O107 1.943 . S
O100 Zn99 1.962 . S
O100 C105 1.254 . S
O101 Zn98 2.031 . S
O101 C105 1.269 . S
O102 Zn99 1.986 . S
O102 C109 1.262 . S
O103 Zn98 2.049 . S
O103 C111 1.260 . S
O104 Zn99 1.996 . S
O104 C111 1.257 . S
C105 O100 1.254 . S
C105 O101 1.269 . S
C106 O107 1.249 . S
C106 O108 1.270 . S
O107 Zn99 1.943 . S
O107 C106 1.249 . S
O108 Zn98 2.067 . S
O108 C106 1.270 . S
C109 O102 1.262 . S
C109 O110 1.232 . S
O110 C109 1.232 . S
C111 O103 1.260 . S
C111 O104 1.257 . S
Zn112 O115 2.031 . S
Zn112 O117 2.049 . S
Zn112 O122 2.067 . S
Zn113 O114 1.962 . S
Zn113 O116 1.986 . S
Zn113 O118 1.996 . S
Zn113 O121 1.943 . S
O114 Zn113 1.962 . S
O114 C119 1.254 . S
O115 Zn112 2.031 . S
O115 C119 1.269 . S
O116 Zn113 1.986 . S
O116 C123 1.262 . S
O117 Zn112 2.049 . S
O117 C125 1.260 . S
O118 Zn113 1.996 . S
O118 C125 1.257 . S
C119 O114 1.254 . S
C119 O115 1.269 . S
C120 O121 1.249 . S
C120 O122 1.270 . S
O121 Zn113 1.943 . S
O121 C120 1.249 . S
O122 Zn112 2.067 . S
O122 C120 1.270 . S
C123 O116 1.262 . S
C123 O124 1.232 . S
O124 C123 1.232 . S
C125 O117 1.260 . S
C125 O118 1.257 . S
Zn126 O129 2.031 . S
Zn126 O131 2.049 . S
Zn126 O136 2.067 . S
Zn127 O128 1.962 . S
Zn127 O130 1.986 . S
Zn127 O132 1.996 . S
Zn127 O135 1.943 . S
O128 Zn127 1.962 . S
O128 C133 1.254 . S
O129 Zn126 2.031 . S
O129 C133 1.269 . S
O130 Zn127 1.986 . S
O130 C137 1.262 . S
O131 Zn126 2.049 . S
O131 C139 1.260 . S
O132 Zn127 1.996 . S
O132 C139 1.257 . S
C133 O128 1.254 . S
C133 O129 1.269 . S
C134 O135 1.249 . S
C134 O136 1.270 . S
O135 Zn127 1.943 . S
O135 C134 1.249 . S
O136 Zn126 2.067 . S
O136 C134 1.270 . S
C137 O130 1.262 . S
C137 O138 1.232 . S
O138 C137 1.232 . S
C139 O131 1.260 . S
C139 O132 1.257 . S
Zn140 O143 2.031 . S
Zn140 O145 2.049 . S
Zn140 O150 2.067 . S
Zn141 O142 1.962 . S
Zn141 O144 1.986 . S
Zn141 O146 1.996 . S
Zn141 O149 1.943 . S
O142 Zn141 1.962 . S
O142 C147 1.254 . S
O143 Zn140 2.031 . S
O143 C147 1.269 . S
O144 Zn141 1.986 . S
O144 C151 1.262 . S
O145 Zn140 2.049 . S
O145 C153 1.260 . S
O146 Zn141 1.996 . S
O146 C153 1.257 . S
C147 O142 1.254 . S
C147 O143 1.269 . S
C148 O149 1.249 . S
C148 O150 1.270 . S
O149 Zn141 1.943 . S
O149 C148 1.249 . S
O150 Zn140 2.067 . S
O150 C148 1.270 . S
C151 O144 1.262 . S
C151 O152 1.232 . S
O152 C151 1.232 . S
C153 O145 1.260 . S
C153 O146 1.257 . S
Zn154 O157 2.031 . S
Zn154 O159 2.049 . S
Zn154 O164 2.067 . S
Zn155 O156 1.962 . S
Zn155 O158 1.986 . S
Zn155 O160 1.996 . S
Zn155 O163 1.943 . S
O156 Zn155 1.962 . S
O156 C161 1.254 . S
O157 Zn154 2.031 . S
O157 C161 1.269 . S
O158 Zn155 1.986 . S
O158 C165 1.262 . S
O159 Zn154 2.049 . S
O159 C167 1.260 . S
O160 Zn155 1.996 . S
O160 C167 1.257 . S
C161 O156 1.254 . S
C161 O157 1.269 . S
C162 O163 1.249 . S
C162 O164 1.270 . S
O163 Zn155 1.943 . S
O163 C162 1.249 . S
O164 Zn154 2.067 . S
O164 C162 1.270 . S
C165 O158 1.262 . S
C165 O166 1.232 . S
O166 C165 1.232 . S
C167 O159 1.260 . S
C167 O160 1.257 . S
H168 C174 0.930 . S
H169 C178 0.930 . S
H170 C183 0.929 . S
H171 C181 0.929 . S
H172 C176 0.929 . S
H173 C182 0.929 . S
C174 H168 0.930 . S
C174 C175 1.367 . S
C174 C182 1.378 . S
C175 C174 1.367 . S
C175 C183 1.433 . S
C176 H172 0.929 . S
C176 C178 1.378 . S
C176 C180 1.350 . S
C177 C180 1.463 . S
C177 C182 1.350 . S
C177 N185 1.427 . S
C178 H169 0.930 . S
C178 C176 1.378 . S
C178 C179 1.367 . S
C179 C178 1.367 . S
C179 C181 1.433 . S
C180 C176 1.350 . S
C180 C177 1.463 . S
C180 N184 1.427 . S
C181 H171 0.929 . S
C181 C179 1.433 . S
C181 N184 1.384 . S
C182 H173 0.929 . S
C182 C174 1.378 . S
C182 C177 1.350 . S
C183 H170 0.929 . S
C183 C175 1.433 . S
C183 N185 1.384 . S
N184 C180 1.427 . S
N184 C181 1.384 . S
N185 C177 1.427 . S
N185 C183 1.384 . S
H186 C192 0.930 . S
H187 C196 0.930 . S
H188 C201 0.929 . S
H189 C199 0.929 . S
H190 C194 0.929 . S
H191 C200 0.929 . S
C192 H186 0.930 . S
C192 C193 1.367 . S
C192 C200 1.378 . S
C193 C192 1.367 . S
C193 C201 1.433 . S
C194 H190 0.929 . S
C194 C196 1.378 . S
C194 C198 1.350 . S
C195 C198 1.463 . S
C195 C200 1.350 . S
C195 N203 1.427 . S
C196 H187 0.930 . S
C196 C194 1.378 . S
C196 C197 1.367 . S
C197 C196 1.367 . S
C197 C199 1.433 . S
C198 C194 1.350 . S
C198 C195 1.463 . S
C198 N202 1.427 . S
C199 H189 0.929 . S
C199 C197 1.433 . S
C199 N202 1.384 . S
C200 H191 0.929 . S
C200 C192 1.378 . S
C200 C195 1.350 . S
C201 H188 0.929 . S
C201 C193 1.433 . S
C201 N203 1.384 . S
N202 C198 1.427 . S
N202 C199 1.384 . S
N203 C195 1.427 . S
N203 C201 1.384 . S
H204 C210 0.930 . S
H205 C214 0.930 . S
H206 C219 0.929 . S
H207 C217 0.929 . S
H208 C212 0.929 . S
H209 C218 0.929 . S
C210 H204 0.930 . S
C210 C211 1.367 . S
C210 C218 1.378 . S
C211 C210 1.367 . S
C211 C219 1.433 . S
C212 H208 0.929 . S
C212 C214 1.378 . S
C212 C216 1.350 . S
C213 C216 1.463 . S
C213 C218 1.350 . S
C213 N221 1.427 . S
C214 H205 0.930 . S
C214 C212 1.378 . S
C214 C215 1.367 . S
C215 C214 1.367 . S
C215 C217 1.433 . S
C216 C212 1.350 . S
C216 C213 1.463 . S
C216 N220 1.427 . S
C217 H207 0.929 . S
C217 C215 1.433 . S
C217 N220 1.384 . S
C218 H209 0.929 . S
C218 C210 1.378 . S
C218 C213 1.350 . S
C219 H206 0.929 . S
C219 C211 1.433 . S
C219 N221 1.384 . S
N220 C216 1.427 . S
N220 C217 1.384 . S
N221 C213 1.427 . S
N221 C219 1.384 . S
H222 C228 0.930 . S
H223 C232 0.930 . S
H224 C237 0.929 . S
H225 C235 0.929 . S
H226 C230 0.929 . S
H227 C236 0.929 . S
C228 H222 0.930 . S
C228 C229 1.367 . S
C228 C236 1.378 . S
C229 C228 1.367 . S
C229 C237 1.433 . S
C230 H226 0.929 . S
C230 C232 1.378 . S
C230 C234 1.350 . S
C231 C234 1.463 . S
C231 C236 1.350 . S
C231 N239 1.427 . S
C232 H223 0.930 . S
C232 C230 1.378 . S
C232 C233 1.367 . S
C233 C232 1.367 . S
C233 C235 1.433 . S
C234 C230 1.350 . S
C234 C231 1.463 . S
C234 N238 1.427 . S
C235 H225 0.929 . S
C235 C233 1.433 . S
C235 N238 1.384 . S
C236 H227 0.929 . S
C236 C228 1.378 . S
C236 C231 1.350 . S
C237 H224 0.929 . S
C237 C229 1.433 . S
C237 N239 1.384 . S
N238 C234 1.427 . S
N238 C235 1.384 . S
N239 C231 1.427 . S
N239 C237 1.384 . S
H240 C246 0.930 . S
H241 C250 0.930 . S
H242 C255 0.929 . S
H243 C253 0.929 . S
H244 C248 0.929 . S
H245 C254 0.929 . S
C246 H240 0.930 . S
C246 C247 1.367 . S
C246 C254 1.378 . S
C247 C246 1.367 . S
C247 C255 1.433 . S
C248 H244 0.929 . S
C248 C250 1.378 . S
C248 C252 1.350 . S
C249 C252 1.463 . S
C249 C254 1.350 . S
C249 N257 1.427 . S
C250 H241 0.930 . S
C250 C248 1.378 . S
C250 C251 1.367 . S
C251 C250 1.367 . S
C251 C253 1.433 . S
C252 C248 1.350 . S
C252 C249 1.463 . S
C252 N256 1.427 . S
C253 H243 0.929 . S
C253 C251 1.433 . S
C253 N256 1.384 . S
C254 H245 0.929 . S
C254 C246 1.378 . S
C254 C249 1.350 . S
C255 H242 0.929 . S
C255 C247 1.433 . S
C255 N257 1.384 . S
N256 C252 1.427 . S
N256 C253 1.384 . S
N257 C249 1.427 . S
N257 C255 1.384 . S
H258 C264 0.930 . S
H259 C268 0.930 . S
H260 C273 0.929 . S
H261 C271 0.929 . S
H262 C266 0.929 . S
H263 C272 0.929 . S
C264 H258 0.930 . S
C264 C265 1.367 . S
C264 C272 1.378 . S
C265 C264 1.367 . S
C265 C273 1.433 . S
C266 H262 0.929 . S
C266 C268 1.378 . S
C266 C270 1.350 . S
C267 C270 1.463 . S
C267 C272 1.350 . S
C267 N275 1.427 . S
C268 H259 0.930 . S
C268 C266 1.378 . S
C268 C269 1.367 . S
C269 C268 1.367 . S
C269 C271 1.433 . S
C270 C266 1.350 . S
C270 C267 1.463 . S
C270 N274 1.427 . S
C271 H261 0.929 . S
C271 C269 1.433 . S
C271 N274 1.384 . S
C272 H263 0.929 . S
C272 C264 1.378 . S
C272 C267 1.350 . S
C273 H260 0.929 . S
C273 C265 1.433 . S
C273 N275 1.384 . S
N274 C270 1.427 . S
N274 C271 1.384 . S
N275 C267 1.427 . S
N275 C273 1.384 . S
H276 C282 0.930 . S
H277 C286 0.930 . S
H278 C291 0.929 . S
H279 C289 0.929 . S
H280 C284 0.929 . S
H281 C290 0.929 . S
C282 H276 0.930 . S
C282 C283 1.367 . S
C282 C290 1.378 . S
C283 C282 1.367 . S
C283 C291 1.433 . S
C284 H280 0.929 . S
C284 C286 1.378 . S
C284 C288 1.350 . S
C285 C288 1.463 1_544 S
C285 C290 1.350 . S
C285 N293 1.427 . S
C286 H277 0.930 . S
C286 C284 1.378 . S
C286 C287 1.367 . S
C287 C286 1.367 . S
C287 C289 1.433 . S
C288 C284 1.350 . S
C288 C285 1.463 1_566 S
C288 N292 1.434 . S
C289 H279 0.929 . S
C289 C287 1.433 . S
C289 N292 1.398 . S
C290 H281 0.929 . S
C290 C282 1.378 . S
C290 C285 1.350 . S
C291 H278 0.929 . S
C291 C283 1.433 . S
C291 N293 1.384 . S
N292 C288 1.434 . S
N292 C289 1.398 . S
N293 C285 1.427 . S
N293 C291 1.384 . S
H294 C300 0.930 . S
H295 C304 0.930 . S
H296 C309 0.929 . S
H297 C307 0.929 . S
H298 C302 0.929 . S
H299 C308 0.929 . S
C300 H294 0.930 . S
C300 C301 1.367 . S
C300 C308 1.378 . S
C301 C300 1.367 . S
C301 C309 1.433 . S
C302 H298 0.929 . S
C302 C304 1.378 . S
C302 C306 1.350 . S
C303 C306 1.463 . S
C303 C308 1.350 . S
C303 N311 1.427 . S
C304 H295 0.930 . S
C304 C302 1.378 . S
C304 C305 1.367 . S
C305 C304 1.367 . S
C305 C307 1.433 . S
C306 C302 1.350 . S
C306 C303 1.463 . S
C306 N310 1.427 . S
C307 H297 0.929 . S
C307 C305 1.433 . S
C307 N310 1.384 . S
C308 H299 0.929 . S
C308 C300 1.378 . S
C308 C303 1.350 . S
C309 H296 0.929 . S
C309 C301 1.433 . S
C309 N311 1.384 . S
N310 C306 1.427 . S
N310 C307 1.384 . S
N311 C303 1.427 . S
N311 C309 1.384 . S
H312 C318 0.930 . S
H313 C322 0.930 . S
H314 C327 0.929 . S
H315 C325 0.929 . S
H316 C320 0.929 1_455 S
H317 C326 0.929 1_655 S
C318 H312 0.930 . S
C318 C319 1.367 . S
C318 C326 1.378 . S
C319 C318 1.367 . S
C319 C327 1.433 . S
C320 H316 0.929 1_655 S
C320 C322 1.378 . S
C320 C324 1.350 . S
C321 C324 1.463 1_456 S
C321 C326 1.350 . S
C321 N329 1.427 . S
C322 H313 0.930 . S
C322 C320 1.378 . S
C322 C323 1.367 . S
C323 C322 1.367 . S
C323 C325 1.433 . S
C324 C320 1.350 . S
C324 C321 1.463 1_654 S
C324 N328 1.427 . S
C325 H315 0.929 . S
C325 C323 1.433 . S
C325 N328 1.384 . S
C326 H317 0.929 1_455 S
C326 C318 1.378 . S
C326 C321 1.350 . S
C327 H314 0.929 . S
C327 C319 1.433 . S
C327 N329 1.384 . S
N328 C324 1.427 . S
N328 C325 1.384 . S
N329 C321 1.427 . S
N329 C327 1.384 . S
H330 C336 0.930 . S
H331 C340 0.930 . S
H332 C345 0.929 . S
H333 C343 0.929 . S
H334 C338 0.929 . S
H335 C344 0.929 . S
C336 H330 0.930 . S
C336 C337 1.367 . S
C336 C344 1.378 . S
C337 C336 1.367 . S
C337 C345 1.433 . S
C338 H334 0.929 . S
C338 C340 1.378 . S
C338 C342 1.350 . S
C339 C342 1.463 1_545 S
C339 C344 1.350 . S
C339 N347 1.427 . S
C340 H331 0.930 . S
C340 C338 1.378 . S
C340 C341 1.367 . S
C341 C340 1.367 . S
C341 C343 1.433 . S
C342 C338 1.350 . S
C342 C339 1.463 1_565 S
C342 N346 1.427 . S
C343 H333 0.929 . S
C343 C341 1.433 . S
C343 N346 1.384 . S
C344 H335 0.929 . S
C344 C336 1.378 . S
C344 C339 1.350 . S
C345 H332 0.929 . S
C345 C337 1.433 . S
C345 N347 1.384 . S
N346 C342 1.427 . S
N346 C343 1.384 . S
N347 C339 1.427 . S
N347 C345 1.384 . S
H348 C354 0.930 . S
H349 C358 0.930 . S
H350 C363 0.929 . S
H351 C361 0.929 . S
H352 C356 0.929 . S
H353 C362 0.929 . S
C354 H348 0.930 . S
C354 C355 1.367 . S
C354 C362 1.378 . S
C355 C354 1.367 . S
C355 C363 1.433 . S
C356 H352 0.929 . S
C356 C358 1.378 . S
C356 C360 1.350 . S
C357 C360 1.463 1_556 S
C357 C362 1.350 . S
C357 N365 1.427 1_556 S
C358 H349 0.930 . S
C358 C356 1.378 . S
C358 C359 1.367 . S
C359 C358 1.367 . S
C359 C361 1.433 . S
C360 C356 1.350 . S
C360 C357 1.463 1_554 S
C360 N364 1.427 1_554 S
C361 H351 0.929 . S
C361 C359 1.433 . S
C361 N364 1.384 1_554 S
C362 H353 0.929 . S
C362 C354 1.378 . S
C362 C357 1.350 . S
C363 H350 0.929 . S
C363 C355 1.433 . S
C363 N365 1.384 1_556 S
N364 C360 1.427 1_556 S
N364 C361 1.384 1_556 S
N365 C357 1.427 1_554 S
N365 C363 1.384 1_554 S
H366 C372 0.930 . S
H367 C376 0.930 . S
H368 C381 0.929 . S
H369 C379 0.929 . S
H370 C374 0.929 . S
H371 C380 0.929 . S
C372 H366 0.930 . S
C372 C373 1.367 . S
C372 C380 1.378 . S
C373 C372 1.367 . S
C373 C381 1.433 . S
C374 H370 0.929 . S
C374 C376 1.378 . S
C374 C378 1.350 . S
C375 C378 1.463 1_655 S
C375 C380 1.350 . S
C375 N383 1.427 . S
C376 H367 0.930 . S
C376 C374 1.378 . S
C376 C377 1.367 . S
C377 C376 1.367 . S
C377 C379 1.433 . S
C378 C374 1.350 . S
C378 C375 1.463 1_455 S
C378 N382 1.427 . S
C379 H369 0.929 . S
C379 C377 1.433 . S
C379 N382 1.384 . S
C380 H371 0.929 . S
C380 C372 1.378 . S
C380 C375 1.350 . S
C381 H368 0.929 . S
C381 C373 1.433 . S
C381 N383 1.384 . S
N382 C378 1.427 . S
N382 C379 1.384 . S
N383 C375 1.427 . S
N383 C381 1.384 . S
H384 C390 0.930 . S
H385 C394 0.930 . S
H386 C399 0.929 . S
H387 C397 0.929 . S
H388 C392 0.929 . S
H389 C398 0.929 . S
C390 H384 0.930 . S
C390 C391 1.367 . S
C390 C398 1.378 . S
C391 C390 1.367 . S
C391 C399 1.433 . S
C392 H388 0.929 . S
C392 C394 1.378 . S
C392 C396 1.350 . S
C393 C396 1.463 . S
C393 C398 1.350 . S
C393 N401 1.427 . S
C394 H385 0.930 . S
C394 C392 1.378 . S
C394 C395 1.367 . S
C395 C394 1.367 . S
C395 C397 1.433 . S
C396 C392 1.350 . S
C396 C393 1.463 . S
C396 N400 1.427 . S
C397 H387 0.929 . S
C397 C395 1.433 . S
C397 N400 1.384 . S
C398 H389 0.929 . S
C398 C390 1.378 . S
C398 C393 1.350 . S
C399 H386 0.929 . S
C399 C391 1.433 . S
C399 N401 1.384 . S
N400 C396 1.427 . S
N400 C397 1.384 . S
N401 C393 1.427 . S
N401 C399 1.384 . S
H402 C408 0.930 . S
H403 C412 0.930 . S
H404 C417 0.929 . S
H405 C415 0.929 . S
H406 C410 0.929 . S
H407 C416 0.929 . S
C408 H402 0.930 . S
C408 C409 1.367 . S
C408 C416 1.378 . S
C409 C408 1.367 . S
C409 C417 1.433 . S
C410 H406 0.929 . S
C410 C412 1.378 . S
C410 C414 1.350 . S
C411 C414 1.463 . S
C411 C416 1.350 . S
C411 N419 1.427 . S
C412 H403 0.930 . S
C412 C410 1.378 . S
C412 C413 1.367 . S
C413 C412 1.367 . S
C413 C415 1.433 . S
C414 C410 1.350 . S
C414 C411 1.463 . S
C414 N418 1.427 . S
C415 H405 0.929 . S
C415 C413 1.433 . S
C415 N418 1.384 . S
C416 H407 0.929 . S
C416 C408 1.378 . S
C416 C411 1.350 . S
C417 H404 0.929 . S
C417 C409 1.433 . S
C417 N419 1.384 . S
N418 C414 1.427 . S
N418 C415 1.384 . S
N419 C411 1.427 . S
N419 C417 1.384 . S
H420 C426 0.930 . S
H421 C430 0.930 . S
H422 C435 0.929 . S
H423 C433 0.929 . S
H424 C428 0.929 . S
H425 C434 0.929 . S
C426 H420 0.930 . S
C426 C427 1.367 . S
C426 C434 1.378 . S
C427 C426 1.367 . S
C427 C435 1.433 . S
C428 H424 0.929 . S
C428 C430 1.378 . S
C428 C432 1.350 . S
C429 C432 1.463 . S
C429 C434 1.350 . S
C429 N437 1.427 . S
C430 H421 0.930 . S
C430 C428 1.378 . S
C430 C431 1.367 . S
C431 C430 1.367 . S
C431 C433 1.433 . S
C432 C428 1.350 . S
C432 C429 1.463 . S
C432 N436 1.427 . S
C433 H423 0.929 . S
C433 C431 1.433 . S
C433 N436 1.384 . S
C434 H425 0.929 . S
C434 C426 1.378 . S
C434 C429 1.350 . S
C435 H422 0.929 . S
C435 C427 1.433 . S
C435 N437 1.384 . S
N436 C432 1.427 . S
N436 C433 1.384 . S
N437 C429 1.427 . S
N437 C435 1.384 . S
H438 C444 0.930 . S
H439 C448 0.930 . S
H440 C453 0.929 . S
H441 C451 0.929 . S
H442 C446 0.929 . S
H443 C452 0.929 . S
C444 H438 0.930 . S
C444 C445 1.367 . S
C444 C452 1.378 . S
C445 C444 1.367 . S
C445 C453 1.433 . S
C446 H442 0.929 . S
C446 C448 1.378 . S
C446 C450 1.350 . S
C447 C450 1.463 . S
C447 C452 1.350 . S
C447 N455 1.427 . S
C448 H439 0.930 . S
C448 C446 1.378 . S
C448 C449 1.367 . S
C449 C448 1.367 . S
C449 C451 1.433 . S
C450 C446 1.350 . S
C450 C447 1.463 . S
C450 N454 1.427 . S
C451 H441 0.929 . S
C451 C449 1.433 . S
C451 N454 1.384 . S
C452 H443 0.929 . S
C452 C444 1.378 . S
C452 C447 1.350 . S
C453 H440 0.929 . S
C453 C445 1.433 . S
C453 N455 1.384 . S
N454 C450 1.427 . S
N454 C451 1.384 . S
N455 C447 1.427 . S
N455 C453 1.384 . S
H456 C462 0.930 . S
H457 C466 0.930 . S
H458 C471 0.929 . S
H459 C469 0.929 . S
H460 C464 0.929 . S
H461 C470 0.929 . S
C462 H456 0.930 . S
C462 C463 1.367 . S
C462 C470 1.378 . S
C463 C462 1.367 . S
C463 C471 1.433 . S
C464 H460 0.929 . S
C464 C466 1.378 . S
C464 C468 1.350 . S
C465 C468 1.463 . S
C465 C470 1.350 . S
C465 N473 1.427 . S
C466 H457 0.930 . S
C466 C464 1.378 . S
C466 C467 1.367 . S
C467 C466 1.367 . S
C467 C469 1.433 . S
C468 C464 1.350 . S
C468 C465 1.463 . S
C468 N472 1.427 . S
C469 H459 0.929 . S
C469 C467 1.433 . S
C469 N472 1.384 . S
C470 H461 0.929 . S
C470 C462 1.378 . S
C470 C465 1.350 . S
C471 H458 0.929 . S
C471 C463 1.433 . S
C471 N473 1.384 . S
N472 C468 1.427 . S
N472 C469 1.384 . S
N473 C465 1.427 . S
N473 C471 1.384 . S
H474 C480 0.930 . S
H475 C484 0.930 . S
H476 C489 0.929 . S
H477 C487 0.929 . S
H478 C482 0.929 . S
H479 C488 0.929 . S
C480 H474 0.930 . S
C480 C481 1.367 . S
C480 C488 1.378 . S
C481 C480 1.367 . S
C481 C489 1.433 . S
C482 H478 0.929 . S
C482 C484 1.378 . S
C482 C486 1.350 . S
C483 C486 1.463 . S
C483 C488 1.350 . S
C483 N491 1.427 . S
C484 H475 0.930 . S
C484 C482 1.378 . S
C484 C485 1.367 . S
C485 C484 1.367 . S
C485 C487 1.433 . S
C486 C482 1.350 . S
C486 C483 1.463 . S
C486 N490 1.427 . S
C487 H477 0.929 . S
C487 C485 1.433 . S
C487 N490 1.384 . S
C488 H479 0.929 . S
C488 C480 1.378 . S
C488 C483 1.350 . S
C489 H476 0.929 . S
C489 C481 1.433 . S
C489 N491 1.384 . S
N490 C486 1.427 . S
N490 C487 1.384 . S
N491 C483 1.427 . S
N491 C489 1.384 . S
H492 C498 0.930 . S
H493 C502 0.930 . S
H494 C507 0.929 . S
H495 C505 0.929 . S
H496 C500 0.929 . S
H497 C506 0.929 . S
C498 H492 0.930 . S
C498 C499 1.367 . S
C498 C506 1.378 . S
C499 C498 1.367 . S
C499 C507 1.433 . S
C500 H496 0.929 . S
C500 C502 1.378 . S
C500 C504 1.350 . S
C501 C504 1.463 . S
C501 C506 1.350 . S
C501 N509 1.427 . S
C502 H493 0.930 . S
C502 C500 1.378 . S
C502 C503 1.367 . S
C503 C502 1.367 . S
C503 C505 1.433 . S
C504 C500 1.350 . S
C504 C501 1.463 . S
C504 N508 1.427 . S
C505 H495 0.929 . S
C505 C503 1.433 . S
C505 N508 1.384 . S
C506 H497 0.929 . S
C506 C498 1.378 . S
C506 C501 1.350 . S
C507 H494 0.929 . S
C507 C499 1.433 . S
C507 N509 1.384 . S
N508 C504 1.427 . S
N508 C505 1.384 . S
N509 C501 1.427 . S
N509 C507 1.384 . S
H510 C516 0.930 . S
H511 C520 0.930 . S
H512 C525 0.929 . S
H513 C523 0.929 . S
H514 C518 0.929 . S
H515 C524 0.929 . S
C516 H510 0.930 . S
C516 C517 1.367 . S
C516 C524 1.378 . S
C517 C516 1.367 . S
C517 C525 1.433 . S
C518 H514 0.929 . S
C518 C520 1.378 . S
C518 C522 1.350 . S
C519 C522 1.463 . S
C519 C524 1.350 . S
C519 N527 1.427 . S
C520 H511 0.930 . S
C520 C518 1.378 . S
C520 C521 1.367 . S
C521 C520 1.367 . S
C521 C523 1.433 . S
C522 C518 1.350 . S
C522 C519 1.463 . S
C522 N526 1.427 . S
C523 H513 0.929 . S
C523 C521 1.433 . S
C523 N526 1.384 . S
C524 H515 0.929 . S
C524 C516 1.378 . S
C524 C519 1.350 . S
C525 H512 0.929 . S
C525 C517 1.433 . S
C525 N527 1.384 . S
N526 C522 1.427 . S
N526 C523 1.384 . S
N527 C519 1.427 . S
N527 C525 1.384 . S
H528 C534 0.930 . S
H529 C538 0.930 . S
H530 C543 0.929 . S
H531 C541 0.929 . S
H532 C536 0.929 . S
H533 C542 0.929 . S
C534 H528 0.930 . S
C534 C535 1.367 . S
C534 C542 1.378 . S
C535 C534 1.367 . S
C535 C543 1.433 . S
C536 H532 0.929 . S
C536 C538 1.378 . S
C536 C540 1.350 . S
C537 C540 1.463 . S
C537 C542 1.350 . S
C537 N545 1.427 . S
C538 H529 0.930 . S
C538 C536 1.378 . S
C538 C539 1.367 . S
C539 C538 1.367 . S
C539 C541 1.433 . S
C540 C536 1.350 . S
C540 C537 1.463 . S
C540 N544 1.427 . S
C541 H531 0.929 . S
C541 C539 1.433 . S
C541 N544 1.384 . S
C542 H533 0.929 . S
C542 C534 1.378 . S
C542 C537 1.350 . S
C543 H530 0.929 . S
C543 C535 1.433 . S
C543 N545 1.384 . S
N544 C540 1.427 . S
N544 C541 1.384 . S
N545 C537 1.427 . S
N545 C543 1.384 . S
H546 C552 0.930 . S
H547 C556 0.930 . S
H548 C561 0.929 . S
H549 C559 0.929 . S
H550 C554 0.929 . S
H551 C560 0.929 . S
C552 H546 0.930 . S
C552 C553 1.367 . S
C552 C560 1.378 . S
C553 C552 1.367 . S
C553 C561 1.433 . S
C554 H550 0.929 . S
C554 C556 1.378 . S
C554 C558 1.350 . S
C555 C558 1.463 . S
C555 C560 1.350 . S
C555 N563 1.427 . S
C556 H547 0.930 . S
C556 C554 1.378 . S
C556 C557 1.367 . S
C557 C556 1.367 . S
C557 C559 1.433 . S
C558 C554 1.350 . S
C558 C555 1.463 . S
C558 N562 1.427 . S
C559 H549 0.929 . S
C559 C557 1.433 . S
C559 N562 1.384 . S
C560 H551 0.929 . S
C560 C552 1.378 . S
C560 C555 1.350 . S
C561 H548 0.929 . S
C561 C553 1.433 . S
C561 N563 1.384 . S
N562 C558 1.427 . S
N562 C559 1.384 . S
N563 C555 1.427 . S
N563 C561 1.384 . S
H564 C570 0.930 . S
H565 C574 0.930 . S
H566 C579 0.929 . S
H567 C577 0.929 . S
H568 C572 0.929 . S
H569 C578 0.929 . S
C570 H564 0.930 . S
C570 C571 1.367 . S
C570 C578 1.378 . S
C571 C570 1.367 . S
C571 C579 1.433 . S
C572 H568 0.929 . S
C572 C574 1.378 . S
C572 C576 1.350 . S
C573 C576 1.463 . S
C573 C578 1.350 . S
C573 N581 1.427 . S
C574 H565 0.930 . S
C574 C572 1.378 . S
C574 C575 1.367 . S
C575 C574 1.367 . S
C575 C577 1.433 . S
C576 C572 1.350 . S
C576 C573 1.463 . S
C576 N580 1.427 . S
C577 H567 0.929 . S
C577 C575 1.433 . S
C577 N580 1.384 . S
C578 H569 0.929 . S
C578 C570 1.378 . S
C578 C573 1.350 . S
C579 H566 0.929 . S
C579 C571 1.433 . S
C579 N581 1.384 . S
N580 C576 1.427 . S
N580 C577 1.384 . S
N581 C573 1.427 . S
N581 C579 1.384 . S
H582 C588 0.930 . S
H583 C592 0.930 . S
H584 C597 0.929 . S
H585 C595 0.929 . S
H586 C590 0.929 . S
H587 C596 0.929 . S
C588 H582 0.930 . S
C588 C589 1.367 . S
C588 C596 1.378 . S
C589 C588 1.367 . S
C589 C597 1.433 . S
C590 H586 0.929 . S
C590 C592 1.378 . S
C590 C594 1.350 . S
C591 C594 1.463 . S
C591 C596 1.350 . S
C591 N599 1.427 . S
C592 H583 0.930 . S
C592 C590 1.378 . S
C592 C593 1.367 . S
C593 C592 1.367 . S
C593 C595 1.433 . S
C594 C590 1.350 . S
C594 C591 1.463 . S
C594 N598 1.427 . S
C595 H585 0.929 . S
C595 C593 1.433 . S
C595 N598 1.384 . S
C596 H587 0.929 . S
C596 C588 1.378 . S
C596 C591 1.350 . S
C597 H584 0.929 . S
C597 C589 1.433 . S
C597 N599 1.384 . S
N598 C594 1.427 . S
N598 C595 1.384 . S
N599 C591 1.427 . S
N599 C597 1.384 . S
C175 C153 1.326 . S
C179 C13 1.305 . S
C193 C27 1.222 . S
C197 C167 1.226 . S
C211 C41 1.306 . S
C215 C97 1.320 . S
C229 C111 1.325 . S
C233 C55 1.305 . S
C247 C125 1.226 . S
C251 C69 1.221 . S
C265 C83 1.300 . S
C269 C139 1.328 . S
C283 C11 0.913 . S
C287 C109 0.902 . S
C301 C25 0.815 . S
C305 C123 0.821 . S
C319 C137 0.917 . S
C323 C39 0.915 . S
C337 C151 0.908 . S
C341 C53 0.913 . S
C355 C165 0.820 . S
C359 C67 0.817 . S
C373 C95 0.916 . S
C377 C81 0.915 . S
C391 C8 0.930 . S
C395 C63 0.942 . S
C409 C22 0.889 . S
C413 C77 0.919 . S
C427 C36 0.884 . S
C431 C7 0.901 . S
C445 C50 0.928 . S
C449 C21 0.943 . S
C463 C64 0.906 . S
C467 C35 0.905 . S
C481 C78 0.909 . S
C485 C49 0.880 . S
C499 C92 0.952 . S
C503 C119 0.914 . S
C517 C106 0.886 . S
C521 C133 0.905 . S
C535 C147 0.904 . S
C539 C120 0.903 . S
C553 C134 0.943 . S
C557 C161 0.929 . S
C571 C148 0.884 . S
C575 C91 0.902 . S
C589 C162 0.890 . S
C593 C105 0.918 . S
