# Generated by pormake.
# Topology uoh, (4)-cn, num edge types: 1
# Building blocks:
#     Node 0, Type 0, BuildingBlock: GALJAG_clean_sbu_0, # of connection points: 4
#     Node 1, Type 0, BuildingBlock: GALJAG_clean_sbu_0, # of connection points: 4
#     Node 2, Type 0, BuildingBlock: GALJAG_clean_sbu_0, # of connection points: 4
#     Node 3, Type 0, BuildingBlock: GALJAG_clean_sbu_0, # of connection points: 4
#     Node 4, Type 0, BuildingBlock: GALJAG_clean_sbu_0, # of connection points: 4
#     Node 5, Type 0, BuildingBlock: GALJAG_clean_sbu_0, # of connection points: 4
#     Node 6, Type 0, BuildingBlock: GALJAG_clean_sbu_0, # of connection points: 4
#     Node 7, Type 0, BuildingBlock: GALJAG_clean_sbu_0, # of connection points: 4
#     Node 8, Type 0, BuildingBlock: GALJAG_clean_sbu_0, # of connection points: 4
#     Node 9, Type 0, BuildingBlock: GALJAG_clean_sbu_0, # of connection points: 4
#     Node 10, Type 0, BuildingBlock: GALJAG_clean_sbu_0, # of connection points: 4
#     Node 11, Type 0, BuildingBlock: GALJAG_clean_sbu_0, # of connection points: 4
#     Node 12, Type 0, BuildingBlock: GALJAG_clean_sbu_0, # of connection points: 4
#     Node 13, Type 0, BuildingBlock: GALJAG_clean_sbu_0, # of connection points: 4
#     Node 14, Type 0, BuildingBlock: GALJAG_clean_sbu_0, # of connection points: 4
#     Node 15, Type 0, BuildingBlock: GALJAG_clean_sbu_0, # of connection points: 4
#     Node 16, Type 0, BuildingBlock: GALJAG_clean_sbu_0, # of connection points: 4
#     Node 17, Type 0, BuildingBlock: GALJAG_clean_sbu_0, # of connection points: 4
#     Node 18, Type 0, BuildingBlock: GALJAG_clean_sbu_0, # of connection points: 4
#     Node 19, Type 0, BuildingBlock: GALJAG_clean_sbu_0, # of connection points: 4
#     Node 20, Type 0, BuildingBlock: GALJAG_clean_sbu_0, # of connection points: 4
#     Node 21, Type 0, BuildingBlock: GALJAG_clean_sbu_0, # of connection points: 4
#     Node 22, Type 0, BuildingBlock: GALJAG_clean_sbu_0, # of connection points: 4
#     Node 23, Type 0, BuildingBlock: GALJAG_clean_sbu_0, # of connection points: 4
#     Node 24, Type 0, BuildingBlock: GALJAG_clean_sbu_0, # of connection points: 4
#     Node 25, Type 0, BuildingBlock: GALJAG_clean_sbu_0, # of connection points: 4
#     Node 26, Type 0, BuildingBlock: GALJAG_clean_sbu_0, # of connection points: 4
#     Node 27, Type 0, BuildingBlock: GALJAG_clean_sbu_0, # of connection points: 4
#     Node 28, Type 0, BuildingBlock: GALJAG_clean_sbu_0, # of connection points: 4
#     Node 29, Type 0, BuildingBlock: GALJAG_clean_sbu_0, # of connection points: 4
#     Node 30, Type 0, BuildingBlock: GALJAG_clean_sbu_0, # of connection points: 4
#     Node 31, Type 0, BuildingBlock: GALJAG_clean_sbu_0, # of connection points: 4
#     Node 32, Type 0, BuildingBlock: GALJAG_clean_sbu_0, # of connection points: 4
#     Node 33, Type 0, BuildingBlock: GALJAG_clean_sbu_0, # of connection points: 4
#     Node 34, Type 0, BuildingBlock: GALJAG_clean_sbu_0, # of connection points: 4
#     Node 35, Type 0, BuildingBlock: GALJAG_clean_sbu_0, # of connection points: 4
#     Edge 36, Type (0, 0), BuildingBlock: CIFDUS_clean_linker_0, # of connection points: 2
#     Edge 37, Type (0, 0), BuildingBlock: CIFDUS_clean_linker_0, # of connection points: 2
#     Edge 38, Type (0, 0), BuildingBlock: CIFDUS_clean_linker_0, # of connection points: 2
#     Edge 39, Type (0, 0), BuildingBlock: CIFDUS_clean_linker_0, # of connection points: 2
#     Edge 40, Type (0, 0), BuildingBlock: CIFDUS_clean_linker_0, # of connection points: 2
#     Edge 41, Type (0, 0), BuildingBlock: CIFDUS_clean_linker_0, # of connection points: 2
#     Edge 42, Type (0, 0), BuildingBlock: CIFDUS_clean_linker_0, # of connection points: 2
#     Edge 43, Type (0, 0), BuildingBlock: CIFDUS_clean_linker_0, # of connection points: 2
#     Edge 44, Type (0, 0), BuildingBlock: CIFDUS_clean_linker_0, # of connection points: 2
#     Edge 45, Type (0, 0), BuildingBlock: CIFDUS_clean_linker_0, # of connection points: 2
#     Edge 46, Type (0, 0), BuildingBlock: CIFDUS_clean_linker_0, # of connection points: 2
#     Edge 47, Type (0, 0), BuildingBlock: CIFDUS_clean_linker_0, # of connection points: 2
#     Edge 48, Type (0, 0), BuildingBlock: CIFDUS_clean_linker_0, # of connection points: 2
#     Edge 49, Type (0, 0), BuildingBlock: CIFDUS_clean_linker_0, # of connection points: 2
#     Edge 50, Type (0, 0), BuildingBlock: CIFDUS_clean_linker_0, # of connection points: 2
#     Edge 51, Type (0, 0), BuildingBlock: CIFDUS_clean_linker_0, # of connection points: 2
#     Edge 52, Type (0, 0), BuildingBlock: CIFDUS_clean_linker_0, # of connection points: 2
#     Edge 53, Type (0, 0), BuildingBlock: CIFDUS_clean_linker_0, # of connection points: 2
#     Edge 54, Type (0, 0), BuildingBlock: CIFDUS_clean_linker_0, # of connection points: 2
#     Edge 55, Type (0, 0), BuildingBlock: CIFDUS_clean_linker_0, # of connection points: 2
#     Edge 56, Type (0, 0), BuildingBlock: CIFDUS_clean_linker_0, # of connection points: 2
#     Edge 57, Type (0, 0), BuildingBlock: CIFDUS_clean_linker_0, # of connection points: 2
#     Edge 58, Type (0, 0), BuildingBlock: CIFDUS_clean_linker_0, # of connection points: 2
#     Edge 59, Type (0, 0), BuildingBlock: CIFDUS_clean_linker_0, # of connection points: 2
#     Edge 60, Type (0, 0), BuildingBlock: CIFDUS_clean_linker_0, # of connection points: 2
#     Edge 61, Type (0, 0), BuildingBlock: CIFDUS_clean_linker_0, # of connection points: 2
#     Edge 62, Type (0, 0), BuildingBlock: CIFDUS_clean_linker_0, # of connection points: 2
#     Edge 63, Type (0, 0), BuildingBlock: CIFDUS_clean_linker_0, # of connection points: 2
#     Edge 64, Type (0, 0), BuildingBlock: CIFDUS_clean_linker_0, # of connection points: 2
#     Edge 65, Type (0, 0), BuildingBlock: CIFDUS_clean_linker_0, # of connection points: 2
#     Edge 66, Type (0, 0), BuildingBlock: CIFDUS_clean_linker_0, # of connection points: 2
#     Edge 67, Type (0, 0), BuildingBlock: CIFDUS_clean_linker_0, # of connection points: 2
#     Edge 68, Type (0, 0), BuildingBlock: CIFDUS_clean_linker_0, # of connection points: 2
#     Edge 69, Type (0, 0), BuildingBlock: CIFDUS_clean_linker_0, # of connection points: 2
#     Edge 70, Type (0, 0), BuildingBlock: CIFDUS_clean_linker_0, # of connection points: 2
#     Edge 71, Type (0, 0), BuildingBlock: CIFDUS_clean_linker_0, # of connection points: 2
#     Edge 72, Type (0, 0), BuildingBlock: CIFDUS_clean_linker_0, # of connection points: 2
#     Edge 73, Type (0, 0), BuildingBlock: CIFDUS_clean_linker_0, # of connection points: 2
#     Edge 74, Type (0, 0), BuildingBlock: CIFDUS_clean_linker_0, # of connection points: 2
#     Edge 75, Type (0, 0), BuildingBlock: CIFDUS_clean_linker_0, # of connection points: 2
#     Edge 76, Type (0, 0), BuildingBlock: CIFDUS_clean_linker_0, # of connection points: 2
#     Edge 77, Type (0, 0), BuildingBlock: CIFDUS_clean_linker_0, # of connection points: 2
#     Edge 78, Type (0, 0), BuildingBlock: CIFDUS_clean_linker_0, # of connection points: 2
#     Edge 79, Type (0, 0), BuildingBlock: CIFDUS_clean_linker_0, # of connection points: 2
#     Edge 80, Type (0, 0), BuildingBlock: CIFDUS_clean_linker_0, # of connection points: 2
#     Edge 81, Type (0, 0), BuildingBlock: CIFDUS_clean_linker_0, # of connection points: 2
#     Edge 82, Type (0, 0), BuildingBlock: CIFDUS_clean_linker_0, # of connection points: 2
#     Edge 83, Type (0, 0), BuildingBlock: CIFDUS_clean_linker_0, # of connection points: 2
#     Edge 84, Type (0, 0), BuildingBlock: CIFDUS_clean_linker_0, # of connection points: 2
#     Edge 85, Type (0, 0), BuildingBlock: CIFDUS_clean_linker_0, # of connection points: 2
#     Edge 86, Type (0, 0), BuildingBlock: CIFDUS_clean_linker_0, # of connection points: 2
#     Edge 87, Type (0, 0), BuildingBlock: CIFDUS_clean_linker_0, # of connection points: 2
#     Edge 88, Type (0, 0), BuildingBlock: CIFDUS_clean_linker_0, # of connection points: 2
#     Edge 89, Type (0, 0), BuildingBlock: CIFDUS_clean_linker_0, # of connection points: 2
#     Edge 90, Type (0, 0), BuildingBlock: CIFDUS_clean_linker_0, # of connection points: 2
#     Edge 91, Type (0, 0), BuildingBlock: CIFDUS_clean_linker_0, # of connection points: 2
#     Edge 92, Type (0, 0), BuildingBlock: CIFDUS_clean_linker_0, # of connection points: 2
#     Edge 93, Type (0, 0), BuildingBlock: CIFDUS_clean_linker_0, # of connection points: 2
#     Edge 94, Type (0, 0), BuildingBlock: CIFDUS_clean_linker_0, # of connection points: 2
#     Edge 95, Type (0, 0), BuildingBlock: CIFDUS_clean_linker_0, # of connection points: 2
#     Edge 96, Type (0, 0), BuildingBlock: CIFDUS_clean_linker_0, # of connection points: 2
#     Edge 97, Type (0, 0), BuildingBlock: CIFDUS_clean_linker_0, # of connection points: 2
#     Edge 98, Type (0, 0), BuildingBlock: CIFDUS_clean_linker_0, # of connection points: 2
#     Edge 99, Type (0, 0), BuildingBlock: CIFDUS_clean_linker_0, # of connection points: 2
#     Edge 100, Type (0, 0), BuildingBlock: CIFDUS_clean_linker_0, # of connection points: 2
#     Edge 101, Type (0, 0), BuildingBlock: CIFDUS_clean_linker_0, # of connection points: 2
#     Edge 102, Type (0, 0), BuildingBlock: CIFDUS_clean_linker_0, # of connection points: 2
#     Edge 103, Type (0, 0), BuildingBlock: CIFDUS_clean_linker_0, # of connection points: 2
#     Edge 104, Type (0, 0), BuildingBlock: CIFDUS_clean_linker_0, # of connection points: 2
#     Edge 105, Type (0, 0), BuildingBlock: CIFDUS_clean_linker_0, # of connection points: 2
#     Edge 106, Type (0, 0), BuildingBlock: CIFDUS_clean_linker_0, # of connection points: 2
#     Edge 107, Type (0, 0), BuildingBlock: CIFDUS_clean_linker_0, # of connection points: 2
# Relax obj value: 0.044
# Max RMSD: 0.095
# Mean RMSD: 0.095
data_MOF--net-uoh--node1-GALJAG_clean_sbu_0--edge1-CIFDUS_clean_linker_0
_symmetry_space_group_name_H-M    P1
_symmetry_Int_Tables_number       1
_symmetry_cell_setting            triclinic
loop_
_symmetry_equiv_pos_as_xyz
'x, y, z'
_cell_length_a     76.433743
_cell_length_b     76.532295
_cell_length_c     25.278006
_cell_angle_alpha  90.023582
_cell_angle_beta   90.048465
_cell_angle_gamma 120.02845
loop_
_atom_site_label
_atom_site_type_symbol
_atom_site_fract_x
_atom_site_fract_y
_atom_site_fract_z
_atom_type_partial_charge
In0 In 0.23126 0.13201 0.19009 0.0
O1 O 0.2303 0.16098 0.20426 0.0
O2 O 0.20261 0.13328 0.19202 0.0
C3 C 0.27039 0.14213 0.18398 0.0
C4 C 0.22075 0.11527 0.28563 0.0
C5 C 0.21936 0.11798 0.09225 0.0
O6 O 0.26495 0.15524 0.18128 0.0
O7 O 0.25618 0.12428 0.19046 0.0
O8 O 0.21531 0.10624 0.13132 0.0
O9 O 0.22927 0.13658 0.10293 0.0
C10 C 0.21117 0.15196 0.2018 0.0
O11 O 0.21583 0.10451 0.24425 0.0
O12 O 0.23127 0.13405 0.27837 0.0
In13 In 0.85089 0.09235 0.20327 0.0
O14 O 0.82069 0.06411 0.21511 0.0
O15 O 0.84736 0.06164 0.21838 0.0
C16 C 0.8361 0.11752 0.19139 0.0
C17 C 0.86853 0.10108 0.29967 0.0
C18 C 0.86522 0.09374 0.10443 0.0
O19 O 0.82496 0.09859 0.19114 0.0
O20 O 0.85463 0.12372 0.19813 0.0
O21 O 0.87584 0.10621 0.13994 0.0
O22 O 0.84799 0.08033 0.11951 0.0
C23 C 0.82831 0.05294 0.22225 0.0
O24 O 0.87881 0.10429 0.25786 0.0
O25 O 0.8499 0.09407 0.29232 0.0
In26 In 0.89108 0.76081 0.17604 0.0
O27 O 0.88644 0.78024 0.23831 0.0
O28 O 0.8782 0.75003 0.25741 0.0
C29 C 0.89077 0.77625 0.08037 0.0
C30 C 0.93003 0.775 0.20016 0.0
C31 C 0.8634 0.72208 0.15702 0.0
O32 O 0.88067 0.77703 0.11901 0.0
O33 O 0.90139 0.76831 0.09073 0.0
O34 O 0.8817 0.72764 0.16674 0.0
O35 O 0.85925 0.73613 0.15626 0.0
C36 C 0.8797 0.76639 0.27267 0.0
O37 O 0.91844 0.75673 0.18768 0.0
O38 O 0.92202 0.78595 0.19895 0.0
In39 In 0.13565 0.2318 0.29283 0.0
O40 O 0.16681 0.23478 0.2929 0.0
O41 O 0.14067 0.20546 0.2842 0.0
C42 C 0.14244 0.26957 0.30455 0.0
C43 C 0.12534 0.22462 0.18998 0.0
C44 C 0.11832 0.21727 0.38758 0.0
O45 O 0.15652 0.26548 0.3078 0.0
O46 O 0.12522 0.2547 0.29459 0.0
O47 O 0.10786 0.21442 0.34617 0.0
O48 O 0.13717 0.22673 0.38045 0.0
C49 C 0.15975 0.21604 0.28559 0.0
O50 O 0.11233 0.21581 0.22614 0.0
O51 O 0.14284 0.23715 0.20606 0.0
In52 In 0.75499 0.89689 0.30258 0.0
O53 O 0.7583 0.92795 0.30115 0.0
O54 O 0.7851 0.92567 0.29954 0.0
C55 C 0.71508 0.87136 0.3121 0.0
C56 C 0.76159 0.89244 0.20035 0.0
C57 C 0.76633 0.89079 0.39816 0.0
O58 O 0.72266 0.89029 0.31465 0.0
O59 O 0.72761 0.86549 0.30403 0.0
O60 O 0.76828 0.88247 0.35693 0.0
O61 O 0.75916 0.90225 0.39048 0.0
C62 C 0.7774 0.93696 0.29847 0.0
O63 O 0.76789 0.88565 0.23697 0.0
O64 O 0.75171 0.90064 0.21568 0.0
In65 In 0.08436 0.85279 0.30631 0.0
O66 O 0.09611 0.87719 0.24025 0.0
O67 O 0.08358 0.84621 0.21941 0.0
C68 C 0.08781 0.86711 0.4059 0.0
C69 C 0.04457 0.83594 0.29444 0.0
C70 C 0.10937 0.83807 0.31864 0.0
O71 O 0.09833 0.8785 0.3682 0.0
O72 O 0.07555 0.84915 0.39265 0.0
O73 O 0.09036 0.82672 0.31811 0.0
O74 O 0.11554 0.85663 0.31253 0.0
C75 C 0.09108 0.86416 0.20356 0.0
O76 O 0.05311 0.82545 0.29875 0.0
O77 O 0.05614 0.85486 0.29777 0.0
In78 In 0.75538 0.8524 0.80104 0.0
O79 O 0.75729 0.82426 0.78519 0.0
O80 O 0.78471 0.8528 0.78884 0.0
C81 C 0.71566 0.83912 0.81059 0.0
C82 C 0.76342 0.87 0.70545 0.0
C83 C 0.76683 0.86382 0.90171 0.0
O84 O 0.72245 0.82713 0.80659 0.0
O85 O 0.72887 0.85759 0.80919 0.0
O86 O 0.76907 0.87645 0.86617 0.0
O87 O 0.7593 0.84585 0.886 0.0
C88 C 0.77638 0.83397 0.78116 0.0
O89 O 0.76939 0.88045 0.74744 0.0
O90 O 0.75319 0.85119 0.71233 0.0
In91 In 0.13713 0.90278 0.80711 0.0
O92 O 0.11246 0.89287 0.74167 0.0
O93 O 0.14271 0.90194 0.71991 0.0
C94 C 0.12125 0.90043 0.90472 0.0
C95 C 0.15903 0.94251 0.79329 0.0
C96 C 0.1511 0.87722 0.82201 0.0
O97 O 0.1108 0.88872 0.86752 0.0
O98 O 0.13893 0.91349 0.8917 0.0
O99 O 0.16256 0.89614 0.82203 0.0
O100 O 0.13264 0.87126 0.81418 0.0
C101 C 0.12497 0.89623 0.70461 0.0
O102 O 0.16702 0.93184 0.8033 0.0
O103 O 0.13989 0.93311 0.79206 0.0
In104 In 0.09403 0.23142 0.7899 0.0
O105 O 0.06712 0.2357 0.77532 0.0
O106 O 0.06227 0.20563 0.77726 0.0
C107 C 0.12334 0.27036 0.80044 0.0
C108 C 0.1011 0.22046 0.69442 0.0
C109 C 0.09303 0.21802 0.88954 0.0
O110 O 0.1048 0.26495 0.80109 0.0
O111 O 0.12702 0.25621 0.7937 0.0
O112 O 0.10391 0.21669 0.85391 0.0
O113 O 0.08246 0.22546 0.8744 0.0
C114 C 0.05477 0.21696 0.771 0.0
O115 O 0.1047 0.21403 0.73684 0.0
O116 O 0.09444 0.23241 0.7006 0.0
In117 In 0.84965 0.75267 0.68582 0.0
O118 O 0.8188 0.74918 0.70122 0.0
O119 O 0.84348 0.77846 0.68237 0.0
C120 C 0.84321 0.71513 0.69786 0.0
C121 C 0.87067 0.76904 0.77503 0.0
C122 C 0.85511 0.75584 0.58052 0.0
O123 O 0.82907 0.71915 0.70089 0.0
O124 O 0.86058 0.73015 0.69009 0.0
O125 O 0.86848 0.76861 0.61144 0.0
O126 O 0.83953 0.74221 0.60295 0.0
C127 C 0.82507 0.76781 0.69497 0.0
O128 O 0.87967 0.77089 0.73146 0.0
O129 O 0.85166 0.75909 0.77274 0.0
In130 In 0.23009 0.09679 0.68862 0.0
O131 O 0.22761 0.06641 0.7026 0.0
O132 O 0.20038 0.06759 0.69436 0.0
C133 C 0.27033 0.12126 0.67832 0.0
C134 C 0.2219 0.10545 0.7846 0.0
C135 C 0.21725 0.09974 0.59246 0.0
O136 O 0.26214 0.10227 0.67745 0.0
O137 O 0.25827 0.12778 0.68486 0.0
O138 O 0.21568 0.10906 0.63182 0.0
O139 O 0.22511 0.089 0.60205 0.0
C140 C 0.20848 0.05695 0.70277 0.0
O141 O 0.21788 0.11208 0.7433 0.0
O142 O 0.23041 0.09519 0.77706 0.0
In143 In 0.89702 0.1389 0.70172 0.0
O144 O 0.92875 0.16611 0.70203 0.0
O145 O 0.92521 0.13659 0.70657 0.0
C146 C 0.87174 0.15344 0.68926 0.0
C147 C 0.89208 0.12902 0.80508 0.0
C148 C 0.89015 0.12061 0.60691 0.0
O149 O 0.89074 0.16473 0.68701 0.0
O150 O 0.86573 0.1351 0.69851 0.0
O151 O 0.8816 0.11083 0.6486 0.0
O152 O 0.90229 0.13918 0.61377 0.0
C153 C 0.93712 0.15546 0.70613 0.0
O154 O 0.88614 0.11557 0.7694 0.0
O155 O 0.89972 0.14686 0.78816 0.0
In156 In 0.89447 0.466 0.51371 0.0
O157 O 0.89211 0.49426 0.52034 0.0
O158 O 0.8649 0.46534 0.51982 0.0
C159 C 0.93293 0.47485 0.50612 0.0
C160 C 0.88832 0.45502 0.61603 0.0
C161 C 0.88429 0.45413 0.41286 0.0
O162 O 0.92816 0.48851 0.50668 0.0
O163 O 0.91832 0.45699 0.50969 0.0
O164 O 0.88016 0.44136 0.44975 0.0
O165 O 0.89303 0.47236 0.42741 0.0
C166 C 0.87295 0.48435 0.52333 0.0
O167 O 0.88058 0.44186 0.57947 0.0
O168 O 0.89916 0.47298 0.60036 0.0
In169 In 0.5251 0.42826 0.52977 0.0
O170 O 0.49405 0.40044 0.538 0.0
O171 O 0.51995 0.39671 0.53956 0.0
C172 C 0.51496 0.45717 0.5206 0.0
C173 C 0.54167 0.43485 0.62651 0.0
C174 C 0.54104 0.43026 0.43364 0.0
O175 O 0.502 0.43861 0.51858 0.0
O176 O 0.53285 0.46103 0.52787 0.0
O177 O 0.55195 0.43835 0.47388 0.0
O178 O 0.5223 0.42084 0.44238 0.0
C179 C 0.50094 0.38855 0.54282 0.0
O180 O 0.55238 0.43945 0.58517 0.0
O181 O 0.52299 0.42736 0.61873 0.0
In182 In 0.55982 0.08941 0.53144 0.0
O183 O 0.58883 0.08837 0.53713 0.0
O184 O 0.59057 0.11693 0.54643 0.0
C185 C 0.53465 0.04961 0.51449 0.0
C186 C 0.5502 0.0962 0.62901 0.0
C187 C 0.55734 0.10466 0.43735 0.0
O188 O 0.55344 0.05711 0.52004 0.0
O189 O 0.52854 0.06207 0.5185 0.0
O190 O 0.54787 0.10515 0.47768 0.0
O191 O 0.56851 0.09717 0.44512 0.0
C192 C 0.59977 0.10703 0.54619 0.0
O193 O 0.5452 0.10198 0.58782 0.0
O194 O 0.5596 0.08686 0.6208 0.0
In195 In 0.79805 0.56036 0.65895 0.0
O196 O 0.82872 0.56551 0.63164 0.0
O197 O 0.80391 0.53533 0.63652 0.0
C198 C 0.80512 0.59782 0.67494 0.0
C199 C 0.77703 0.55182 0.5676 0.0
C200 C 0.79364 0.55089 0.76289 0.0
O201 O 0.81898 0.59418 0.66176 0.0
O202 O 0.78765 0.58249 0.67935 0.0
O203 O 0.77833 0.54439 0.73273 0.0
O204 O 0.8104 0.56087 0.73975 0.0
C205 C 0.82225 0.54688 0.62481 0.0
O206 O 0.77136 0.53895 0.60471 0.0
O207 O 0.79228 0.56868 0.57805 0.0
In208 In 0.42521 0.23254 0.63344 0.0
O209 O 0.42857 0.26347 0.62135 0.0
O210 O 0.4553 0.26134 0.62872 0.0
C211 C 0.38482 0.20852 0.64203 0.0
C212 C 0.43346 0.2236 0.53756 0.0
C213 C 0.43714 0.22811 0.72975 0.0
O214 O 0.39322 0.22753 0.64346 0.0
O215 O 0.39675 0.20184 0.63567 0.0
O216 O 0.43886 0.21926 0.68956 0.0
O217 O 0.42966 0.23924 0.721 0.0
C218 C 0.44769 0.27249 0.62132 0.0
O219 O 0.43714 0.2169 0.57924 0.0
O220 O 0.42534 0.23426 0.54455 0.0
In221 In 0.75561 0.19017 0.64081 0.0
O222 O 0.72498 0.16216 0.62794 0.0
O223 O 0.72627 0.19052 0.63767 0.0
C224 C 0.78108 0.17549 0.6485 0.0
C225 C 0.76363 0.20724 0.54489 0.0
C226 C 0.75971 0.20564 0.73806 0.0
O227 O 0.76211 0.16417 0.65015 0.0
O228 O 0.78699 0.19395 0.64222 0.0
O229 O 0.76817 0.21668 0.69825 0.0
O230 O 0.7491 0.18703 0.72839 0.0
C231 C 0.71551 0.1718 0.62918 0.0
O232 O 0.76986 0.21779 0.5865 0.0
O233 O 0.75396 0.18842 0.55204 0.0
In234 In 0.42734 0.19429 0.13292 0.0
O235 O 0.42818 0.16518 0.12084 0.0
O236 O 0.45604 0.19297 0.12932 0.0
C237 C 0.38813 0.18392 0.13924 0.0
C238 C 0.43687 0.21082 0.03668 0.0
C239 C 0.43888 0.20895 0.23071 0.0
O240 O 0.39366 0.17088 0.14196 0.0
O241 O 0.40227 0.20179 0.13263 0.0
O242 O 0.44312 0.22041 0.19098 0.0
O243 O 0.42922 0.1903 0.22065 0.0
C244 C 0.44732 0.17415 0.12149 0.0
O245 O 0.44228 0.22163 0.078 0.0
O246 O 0.42659 0.19204 0.04436 0.0
In247 In 0.79488 0.23005 0.14178 0.0
O248 O 0.82347 0.25978 0.12781 0.0
O249 O 0.79565 0.25988 0.13487 0.0
C250 C 0.81045 0.2055 0.15214 0.0
C251 C 0.77789 0.22129 0.04553 0.0
C252 C 0.77871 0.22644 0.23805 0.0
O253 O 0.82128 0.22446 0.15442 0.0
O254 O 0.79194 0.19906 0.14416 0.0
O255 O 0.76801 0.21735 0.19818 0.0
O256 O 0.7973 0.23755 0.22883 0.0
C257 C 0.81448 0.26987 0.12662 0.0
O258 O 0.76724 0.21545 0.087 0.0
O259 O 0.7967 0.23093 0.05304 0.0
In260 In 0.75963 0.56438 0.1544 0.0
O261 O 0.73345 0.56899 0.12886 0.0
O262 O 0.72789 0.53905 0.1399 0.0
C263 C 0.78936 0.60294 0.15431 0.0
C264 C 0.76977 0.55088 0.06718 0.0
C265 C 0.75873 0.55862 0.26037 0.0
O266 O 0.77127 0.59775 0.14263 0.0
O267 O 0.79241 0.58857 0.16583 0.0
O268 O 0.76546 0.55035 0.2293 0.0
O269 O 0.75221 0.56888 0.23773 0.0
C270 C 0.72092 0.55028 0.12687 0.0
O271 O 0.76123 0.53941 0.10628 0.0
O272 O 0.77393 0.56885 0.07355 0.0
In273 In 0.51911 0.0897 0.03615 0.0
O274 O 0.4884 0.08758 0.04309 0.0
O275 O 0.51488 0.11678 0.04192 0.0
C276 C 0.5092 0.05056 0.03621 0.0
C277 C 0.53684 0.10174 0.13142 0.0
C278 C 0.53371 0.10038 0.93719 0.0
O279 O 0.49597 0.05583 0.0342 0.0
O280 O 0.52714 0.06495 0.0385 0.0
O281 O 0.54515 0.10489 0.97709 0.0
O282 O 0.51508 0.09105 0.94748 0.0
C283 C 0.49585 0.10651 0.04582 0.0
O284 O 0.54706 0.10674 0.08918 0.0
O285 O 0.51803 0.09072 0.12526 0.0
In286 In 0.90227 0.42237 0.01359 0.0
O287 O 0.88721 0.43258 0.07673 0.0
O288 O 0.90647 0.42138 0.10128 0.0
C289 C 0.8891 0.42326 0.91487 0.0
C290 C 0.88355 0.38265 0.02779 0.0
C291 C 0.94174 0.44956 0.00372 0.0
O292 O 0.8879 0.43377 0.952 0.0
O293 O 0.89649 0.41244 0.92813 0.0
O294 O 0.9351 0.43077 0.00315 0.0
O295 O 0.92844 0.45459 0.00926 0.0
C296 C 0.89484 0.4278 0.11484 0.0
O297 O 0.90243 0.39297 0.02005 0.0
O298 O 0.87418 0.39238 0.02627 0.0
In299 In 0.5654 0.4666 0.03075 0.0
O300 O 0.596 0.49501 0.04132 0.0
O301 O 0.59487 0.46663 0.03452 0.0
C302 C 0.53978 0.4811 0.02354 0.0
C303 C 0.55749 0.4495 0.1269 0.0
C304 C 0.56065 0.45045 0.93385 0.0
O305 O 0.55871 0.49251 0.02105 0.0
O306 O 0.53404 0.46272 0.0305 0.0
O307 O 0.55219 0.43975 0.97412 0.0
O308 O 0.57167 0.46907 0.94285 0.0
C309 C 0.60558 0.48548 0.04116 0.0
O310 O 0.55124 0.43901 0.08521 0.0
O311 O 0.56729 0.46832 0.11981 0.0
In312 In 0.56485 0.80732 0.86485 0.0
O313 O 0.55204 0.78272 0.92991 0.0
O314 O 0.56969 0.81374 0.95195 0.0
C315 C 0.55418 0.79395 0.76484 0.0
C316 C 0.54159 0.8238 0.87536 0.0
C317 C 0.60438 0.82056 0.85395 0.0
O318 O 0.55195 0.78194 0.80234 0.0
O319 O 0.56131 0.81214 0.77843 0.0
O320 O 0.5975 0.83256 0.85549 0.0
O321 O 0.59132 0.8021 0.85856 0.0
C322 C 0.5594 0.79565 0.96703 0.0
O323 O 0.56069 0.83452 0.87251 0.0
O324 O 0.53445 0.80494 0.87142 0.0
In325 In 0.189 0.76219 0.86878 0.0
O326 O 0.21649 0.77404 0.92409 0.0
O327 O 0.18713 0.76205 0.95764 0.0
C328 C 0.20575 0.76584 0.77276 0.0
C329 C 0.16644 0.72252 0.88402 0.0
C330 C 0.17456 0.78773 0.85942 0.0
O331 O 0.21591 0.77604 0.81212 0.0
O332 O 0.18749 0.75344 0.78248 0.0
O333 O 0.16339 0.76886 0.85597 0.0
O334 O 0.19293 0.79366 0.868 0.0
C335 C 0.20582 0.7696 0.96545 0.0
O336 O 0.15879 0.73363 0.87677 0.0
O337 O 0.18551 0.73137 0.88152 0.0
In338 In 0.2254 0.42668 0.8663 0.0
O339 O 0.21561 0.44121 0.93106 0.0
O340 O 0.22934 0.42391 0.95331 0.0
C341 C 0.22065 0.43893 0.77049 0.0
C342 C 0.26559 0.44632 0.87201 0.0
C343 C 0.19704 0.38751 0.85731 0.0
O344 O 0.21276 0.44161 0.81154 0.0
O345 O 0.2311 0.43062 0.77844 0.0
O346 O 0.21566 0.39351 0.85215 0.0
O347 O 0.19296 0.40119 0.86784 0.0
C348 C 0.22204 0.43468 0.968 0.0
O349 O 0.25528 0.4272 0.87098 0.0
O350 O 0.25556 0.45532 0.86816 0.0
In351 In 0.45877 0.89454 0.98891 0.0
O352 O 0.49078 0.90011 0.97708 0.0
O353 O 0.4659 0.87025 0.96762 0.0
C354 C 0.46703 0.93238 0.0086 0.0
C355 C 0.44276 0.88841 0.89122 0.0
C356 C 0.44332 0.87843 0.08408 0.0
O357 O 0.48075 0.92783 0.00393 0.0
O358 O 0.4492 0.91778 0.00372 0.0
O359 O 0.43218 0.87678 0.04511 0.0
O360 O 0.46198 0.88761 0.07426 0.0
C361 C 0.48478 0.88188 0.96574 0.0
O362 O 0.43489 0.87498 0.9266 0.0
O363 O 0.45795 0.90465 0.90593 0.0
In364 In 0.09412 0.56857 0.98273 0.0
O365 O 0.10694 0.55659 0.91897 0.0
O366 O 0.09318 0.57376 0.89574 0.0
C367 C 0.10504 0.56277 0.07909 0.0
C368 C 0.11615 0.60857 0.97808 0.0
C369 C 0.05416 0.54257 0.98716 0.0
O370 O 0.10786 0.55495 0.03812 0.0
O371 O 0.09705 0.57349 0.07088 0.0
O372 O 0.06143 0.5614 0.99202 0.0
O373 O 0.06703 0.53709 0.97995 0.0
C374 C 0.10219 0.56453 0.88172 0.0
O375 O 0.09701 0.59939 0.97939 0.0
O376 O 0.12404 0.5975 0.98128 0.0
In377 In 0.42079 0.51306 0.96443 0.0
O378 O 0.39111 0.48333 0.96383 0.0
O379 O 0.39046 0.51072 0.95306 0.0
C380 C 0.44752 0.50038 0.9797 0.0
C381 C 0.42554 0.52386 0.86158 0.0
C382 C 0.42528 0.53206 0.05776 0.0
O383 O 0.42865 0.48858 0.98214 0.0
O384 O 0.45282 0.51845 0.9689 0.0
O385 O 0.43477 0.54148 0.01666 0.0
O386 O 0.41327 0.51348 0.051 0.0
C387 C 0.38066 0.49164 0.9549 0.0
O388 O 0.42998 0.53681 0.89801 0.0
O389 O 0.41976 0.50619 0.87746 0.0
In390 In 0.08987 0.52427 0.48063 0.0
O391 O 0.10565 0.55251 0.42831 0.0
O392 O 0.09003 0.52338 0.39196 0.0
C393 C 0.09982 0.53342 0.58263 0.0
C394 C 0.10975 0.50439 0.4662 0.0
C395 C 0.05117 0.51532 0.4839 0.0
O396 O 0.10525 0.54704 0.54767 0.0
O397 O 0.08949 0.51555 0.56583 0.0
O398 O 0.05595 0.50173 0.48036 0.0
O399 O 0.06587 0.53314 0.48556 0.0
C400 C 0.10057 0.54223 0.38594 0.0
O401 O 0.09058 0.49535 0.46548 0.0
O402 O 0.11851 0.52316 0.4751 0.0
In403 In 0.46056 0.5593 0.46202 0.0
O404 O 0.43304 0.54899 0.40671 0.0
O405 O 0.46199 0.5585 0.37305 0.0
C406 C 0.44815 0.55931 0.56215 0.0
C407 C 0.48467 0.59868 0.44517 0.0
C408 C 0.47054 0.53035 0.47181 0.0
O409 O 0.43594 0.54854 0.52625 0.0
O410 O 0.46609 0.57037 0.54693 0.0
O411 O 0.48365 0.54889 0.47119 0.0
O412 O 0.45256 0.52653 0.46684 0.0
C413 C 0.4435 0.55218 0.36518 0.0
O414 O 0.49148 0.5867 0.44994 0.0
O415 O 0.4657 0.59075 0.45007 0.0
In416 In 0.42047 0.89718 0.47893 0.0
O417 O 0.43651 0.88331 0.43225 0.0
O418 O 0.41604 0.89008 0.39229 0.0
C419 C 0.42576 0.89533 0.58325 0.0
C420 C 0.38022 0.87631 0.4739 0.0
C421 C 0.44624 0.93679 0.46691 0.0
O422 O 0.42726 0.88329 0.5516 0.0
O423 O 0.4214 0.90757 0.56217 0.0
O424 O 0.42728 0.9294 0.46587 0.0
O425 O 0.45206 0.92407 0.47211 0.0
C426 C 0.42791 0.88319 0.38924 0.0
O427 O 0.39027 0.89498 0.4636 0.0
O428 O 0.39052 0.86842 0.48855 0.0
In429 In 0.18278 0.42263 0.36767 0.0
O430 O 0.15173 0.41896 0.38205 0.0
O431 O 0.17763 0.44869 0.37957 0.0
C432 C 0.17617 0.38479 0.35864 0.0
C433 C 0.20041 0.43362 0.46322 0.0
C434 C 0.19319 0.43549 0.26743 0.0
O435 O 0.16183 0.38852 0.36101 0.0
O436 O 0.1936 0.40007 0.36144 0.0
O437 O 0.20638 0.4397 0.30306 0.0
O438 O 0.17514 0.42515 0.28272 0.0
C439 C 0.15874 0.43783 0.38604 0.0
O440 O 0.21064 0.44013 0.42106 0.0
O441 O 0.1818 0.42148 0.45666 0.0
In442 In 0.56273 0.75533 0.36455 0.0
O443 O 0.55049 0.76766 0.42979 0.0
O444 O 0.56751 0.75359 0.45162 0.0
C445 C 0.55205 0.75852 0.26485 0.0
C446 C 0.5393 0.71559 0.37492 0.0
C447 C 0.6025 0.78076 0.35343 0.0
O448 O 0.55045 0.76863 0.30251 0.0
O449 O 0.55847 0.74685 0.27815 0.0
O450 O 0.59507 0.76181 0.35427 0.0
O451 O 0.58987 0.78669 0.35884 0.0
C452 C 0.55765 0.76184 0.46681 0.0
O453 O 0.55836 0.72392 0.37078 0.0
O454 O 0.53219 0.72738 0.37249 0.0
In455 In 0.22568 0.80164 0.36847 0.0
O456 O 0.25434 0.83205 0.37364 0.0
O457 O 0.25658 0.80549 0.38334 0.0
C458 C 0.19949 0.81535 0.35829 0.0
C459 C 0.2184 0.78495 0.46519 0.0
C460 C 0.22286 0.78473 0.27303 0.0
O461 O 0.21837 0.82688 0.35758 0.0
O462 O 0.19382 0.79695 0.36463 0.0
O463 O 0.21274 0.77456 0.31239 0.0
O464 O 0.23466 0.80316 0.28235 0.0
C465 C 0.26548 0.82456 0.38307 0.0
O466 O 0.214 0.77431 0.42378 0.0
O467 O 0.22581 0.8036 0.45748 0.0
H468 H 0.21314 0.08099 0.86811 0.0
H469 H 0.22059 0.13841 0.82049 0.0
H470 H 0.21828 0.14662 0.91313 0.0
H471 H 0.21818 0.13887 0.00763 0.0
H472 H 0.21017 0.08108 0.05441 0.0
H473 H 0.20831 0.07135 0.96157 0.0
C474 C 0.21401 0.0952 0.87811 0.0
C475 C 0.21741 0.1093 0.83824 0.0
C476 C 0.21264 0.0997 0.93097 0.0
C477 C 0.21809 0.12745 0.85097 0.0
C478 C 0.21686 0.13215 0.90376 0.0
C479 C 0.21573 0.12404 0.99738 0.0
C480 C 0.21466 0.1108 0.03741 0.0
C481 C 0.21475 0.11862 0.94411 0.0
C482 C 0.21113 0.09152 0.02404 0.0
C483 C 0.21018 0.08601 0.97109 0.0
H484 H 0.87034 0.09268 0.8556 0.0
H485 H 0.91111 0.15609 0.88367 0.0
H486 H 0.9084 0.15036 0.97878 0.0
H487 H 0.89261 0.1279 0.05449 0.0
H488 H 0.85005 0.06491 0.02762 0.0
H489 H 0.85553 0.06979 0.93213 0.0
C490 C 0.87872 0.10517 0.88261 0.0
C491 C 0.89077 0.12478 0.86254 0.0
C492 C 0.87682 0.10184 0.93766 0.0
C493 C 0.90155 0.14085 0.89803 0.0
C494 C 0.90007 0.1376 0.95253 0.0
C495 C 0.88486 0.11517 0.02776 0.0
C496 C 0.87103 0.09608 0.048 0.0
C497 C 0.88753 0.11824 0.97286 0.0
C498 C 0.86082 0.07978 0.01289 0.0
C499 C 0.86386 0.08257 0.95827 0.0
H500 H 0.91275 0.77828 0.99368 0.0
H501 H 0.86264 0.78525 0.04415 0.0
H502 H 0.85371 0.78651 0.95205 0.0
H503 H 0.85709 0.78048 0.85842 0.0
H504 H 0.90683 0.77325 0.80685 0.0
H505 H 0.91925 0.77759 0.89821 0.0
C506 C 0.90012 0.78049 0.98446 0.0
C507 C 0.88814 0.78132 0.02563 0.0
C508 C 0.89494 0.78097 0.93135 0.0
C509 C 0.872 0.78443 0.01321 0.0
C510 C 0.86683 0.78505 0.96055 0.0
C511 C 0.8709 0.78028 0.86711 0.0
C512 C 0.88092 0.77628 0.82641 0.0
C513 C 0.87772 0.78255 0.91948 0.0
C514 C 0.89891 0.77632 0.83771 0.0
C515 C 0.90588 0.77863 0.88994 0.0
H516 H 0.13521 0.21191 0.47593 0.0
H517 H 0.08237 0.21287 0.42003 0.0
H518 H 0.07151 0.2124 0.51128 0.0
H519 H 0.07928 0.21586 0.60653 0.0
H520 H 0.13122 0.21344 0.6631 0.0
H521 H 0.14021 0.21016 0.57192 0.0
C522 C 0.12111 0.21161 0.48381 0.0
C523 C 0.1097 0.21265 0.44145 0.0
C524 C 0.11498 0.2113 0.53636 0.0
C525 C 0.09138 0.21204 0.452 0.0
C526 C 0.08526 0.21194 0.50416 0.0
C527 C 0.0924 0.21431 0.59881 0.0
C528 C 0.10478 0.21518 0.64107 0.0
C529 C 0.09728 0.21222 0.54656 0.0
C530 C 0.12153 0.21284 0.631 0.0
C531 C 0.1267 0.21107 0.57894 0.0
H532 H 0.77169 0.9127 0.48694 0.0
H533 H 0.76877 0.85809 0.4305 0.0
H534 H 0.76891 0.84746 0.52169 0.0
H535 H 0.7664 0.85218 0.6169 0.0
H536 H 0.77027 0.9071 0.67398 0.0
H537 H 0.77335 0.91929 0.5828 0.0
C538 C 0.77139 0.89861 0.49466 0.0
C539 C 0.76999 0.88606 0.45221 0.0
C540 C 0.77144 0.89262 0.5471 0.0
C541 C 0.76985 0.86798 0.46257 0.0
C542 C 0.76979 0.86185 0.51466 0.0
C543 C 0.7681 0.8669 0.60933 0.0
C544 C 0.76778 0.87864 0.65174 0.0
C545 C 0.77002 0.87379 0.55712 0.0
C546 C 0.77039 0.89782 0.64177 0.0
C547 C 0.77208 0.90472 0.58973 0.0
H548 H 0.08817 0.87371 0.6553 0.0
H549 H 0.15121 0.91533 0.6249 0.0
H550 H 0.14496 0.91202 0.52995 0.0
H551 H 0.12218 0.89543 0.45465 0.0
H552 H 0.05972 0.85171 0.48404 0.0
H553 H 0.06499 0.85785 0.57926 0.0
C554 C 0.10044 0.88217 0.6278 0.0
C555 C 0.12013 0.89465 0.64727 0.0
C556 C 0.09685 0.87982 0.5727 0.0
C557 C 0.13593 0.90545 0.61106 0.0
C558 C 0.13238 0.90362 0.55661 0.0
C559 C 0.10966 0.88758 0.48189 0.0
C560 C 0.09058 0.87326 0.46232 0.0
C561 C 0.11298 0.89062 0.53684 0.0
C562 C 0.07456 0.86288 0.49818 0.0
C563 C 0.07758 0.86631 0.5527 0.0
H564 H 0.77045 0.86613 0.15062 0.0
H565 H 0.76113 0.91649 0.12279 0.0
H566 H 0.76462 0.91378 0.02778 0.0
H567 H 0.76729 0.8953 0.95195 0.0
H568 H 0.77378 0.8432 0.97857 0.0
H569 H 0.77474 0.8485 0.0742 0.0
C570 C 0.76943 0.87661 0.12367 0.0
C571 C 0.7654 0.89137 0.14355 0.0
C572 C 0.77091 0.87463 0.06873 0.0
C573 C 0.76401 0.90484 0.10831 0.0
C574 C 0.76605 0.90335 0.05396 0.0
C575 C 0.76932 0.88537 0.97872 0.0
C576 C 0.7705 0.86893 0.95843 0.0
C577 C 0.76908 0.88805 0.03362 0.0
C578 C 0.77282 0.85597 0.99345 0.0
C579 C 0.77329 0.85894 0.0481 0.0
H580 H 0.11366 0.9008 0.15369 0.0
H581 H 0.07263 0.8376 0.12373 0.0
H582 H 0.07632 0.84354 0.02881 0.0
H583 H 0.09302 0.8661 0.95351 0.0
H584 H 0.13574 0.92887 0.98236 0.0
H585 H 0.12938 0.92382 0.07748 0.0
C586 C 0.10543 0.88841 0.12632 0.0
C587 C 0.09302 0.86878 0.146 0.0
C588 C 0.10788 0.89185 0.07119 0.0
C589 C 0.08247 0.85286 0.10986 0.0
C590 C 0.0845 0.85622 0.05537 0.0
C591 C 0.10059 0.87874 0.98055 0.0
C592 C 0.11473 0.89784 0.96084 0.0
C593 C 0.09739 0.87558 0.03547 0.0
C594 C 0.12472 0.91401 0.99654 0.0
C595 C 0.12117 0.91111 0.05103 0.0
H596 H 0.12518 0.22046 0.94133 0.0
H597 H 0.06389 0.20721 0.9644 0.0
H598 H 0.06762 0.20586 0.06025 0.0
H599 H 0.08957 0.21196 0.13814 0.0
H600 H 0.15184 0.22855 0.11393 0.0
H601 H 0.14653 0.22503 0.01849 0.0
C602 C 0.11253 0.21683 0.96736 0.0
C603 C 0.09428 0.21384 0.94601 0.0
C604 C 0.11508 0.21697 0.02246 0.0
C605 C 0.07809 0.20953 0.9801 0.0
C606 C 0.08025 0.20885 0.03489 0.0
C607 C 0.10184 0.21452 0.11186 0.0
C608 C 0.12107 0.22061 0.13289 0.0
C609 C 0.09885 0.2131 0.05666 0.0
C610 C 0.13693 0.22405 0.09854 0.0
C611 C 0.13392 0.222 0.04395 0.0
H612 H 0.85469 0.73719 0.33856 0.0
H613 H 0.89551 0.80137 0.3309 0.0
H614 H 0.89191 0.80413 0.4267 0.0
H615 H 0.87835 0.78752 0.51386 0.0
H616 H 0.8366 0.72331 0.51743 0.0
H617 H 0.83951 0.72131 0.42223 0.0
C618 C 0.86263 0.75184 0.35776 0.0
C619 C 0.87539 0.76902 0.32803 0.0
C620 C 0.86051 0.75324 0.4123 0.0
C621 C 0.88547 0.78794 0.35313 0.0
C622 C 0.88356 0.78947 0.40791 0.0
C623 C 0.86995 0.77316 0.49357 0.0
C624 C 0.85741 0.75557 0.52263 0.0
C625 C 0.87138 0.77212 0.43813 0.0
C626 C 0.84636 0.73707 0.49595 0.0
C627 C 0.84799 0.73588 0.44147 0.0
H628 H 0.21178 0.07599 0.50794 0.0
H629 H 0.21237 0.13043 0.55563 0.0
H630 H 0.21134 0.13899 0.46298 0.0
H631 H 0.21493 0.1332 0.36934 0.0
H632 H 0.21413 0.07878 0.32098 0.0
H633 H 0.21036 0.06776 0.41343 0.0
C634 C 0.21133 0.08955 0.49796 0.0
C635 C 0.21252 0.10278 0.53815 0.0
C636 C 0.21091 0.09441 0.4448 0.0
C637 C 0.21158 0.12011 0.52513 0.0
C638 C 0.21111 0.12506 0.47227 0.0
C639 C 0.21366 0.11881 0.37913 0.0
C640 C 0.2152 0.10694 0.33911 0.0
C641 C 0.21153 0.11269 0.43193 0.0
C642 C 0.2131 0.08814 0.35157 0.0
C643 C 0.21104 0.08193 0.40427 0.0
H644 H 0.91241 0.1353 0.51762 0.0
H645 H 0.85593 0.08653 0.57569 0.0
H646 H 0.84474 0.07546 0.48489 0.0
H647 H 0.84974 0.08175 0.38921 0.0
H648 H 0.90659 0.12962 0.33059 0.0
H649 H 0.91907 0.13894 0.42157 0.0
C650 C 0.89778 0.12206 0.51035 0.0
C651 C 0.8849 0.11185 0.55318 0.0
C652 C 0.89149 0.11579 0.45809 0.0
C653 C 0.86609 0.09461 0.54337 0.0
C654 C 0.85965 0.08837 0.49147 0.0
C655 C 0.86494 0.0941 0.39642 0.0
C656 C 0.87716 0.10522 0.35353 0.0
C657 C 0.872 0.09918 0.44858 0.0
C658 C 0.89693 0.12093 0.36311 0.0
C659 C 0.904 0.12628 0.41506 0.0
H660 H 0.88313 0.45237 0.16346 0.0
H661 H 0.89624 0.40461 0.19317 0.0
H662 H 0.8913 0.40651 0.28774 0.0
H663 H 0.88626 0.42372 0.36326 0.0
H664 H 0.87631 0.47358 0.33509 0.0
H665 H 0.87664 0.46875 0.23947 0.0
C666 C 0.88465 0.44227 0.1907 0.0
C667 C 0.89016 0.42848 0.17138 0.0
C668 C 0.88236 0.44383 0.24559 0.0
C669 C 0.89222 0.41553 0.20712 0.0
C670 C 0.88935 0.41655 0.26128 0.0
C671 C 0.88371 0.43319 0.3361 0.0
C672 C 0.88113 0.44887 0.35604 0.0
C673 C 0.88481 0.4309 0.28116 0.0
C674 C 0.87828 0.46136 0.3205 0.0
C675 C 0.87856 0.45867 0.26583 0.0
H676 H 0.58035 0.46557 0.21382 0.0
H677 H 0.52521 0.41399 0.15918 0.0
H678 H 0.51606 0.40214 0.25049 0.0
H679 H 0.5222 0.40867 0.34603 0.0
H680 H 0.57788 0.45984 0.40002 0.0
H681 H 0.58863 0.4695 0.30849 0.0
C682 C 0.56644 0.45161 0.22199 0.0
C683 C 0.55326 0.4408 0.18035 0.0
C684 C 0.56143 0.44489 0.27425 0.0
C685 C 0.53549 0.42256 0.19091 0.0
C686 C 0.53026 0.41585 0.243 0.0
C687 C 0.53683 0.42173 0.33765 0.0
C688 C 0.54913 0.43371 0.37946 0.0
C689 C 0.54287 0.4272 0.28503 0.0
C690 C 0.56816 0.45043 0.36837 0.0
C691 C 0.57425 0.45603 0.3161 0.0
H692 H 0.57989 0.11073 0.34921 0.0
H693 H 0.52565 0.10885 0.40521 0.0
H694 H 0.51534 0.10964 0.31418 0.0
H695 H 0.51968 0.10644 0.21912 0.0
H696 H 0.57414 0.10914 0.16237 0.0
H697 H 0.5866 0.11266 0.25337 0.0
C698 C 0.56601 0.11089 0.34142 0.0
C699 C 0.55339 0.10944 0.38369 0.0
C700 C 0.56014 0.11126 0.28899 0.0
C701 C 0.53558 0.1099 0.37328 0.0
C702 C 0.52961 0.11021 0.32125 0.0
C703 C 0.53441 0.1081 0.22675 0.0
C704 C 0.54588 0.10721 0.18455 0.0
C705 C 0.54143 0.11019 0.27888 0.0
C706 C 0.56507 0.10972 0.19448 0.0
C707 C 0.57212 0.11163 0.24643 0.0
H708 H 0.7615 0.52611 0.82771 0.0
H709 H 0.824 0.5736 0.83027 0.0
H710 H 0.82281 0.57617 0.92565 0.0
H711 H 0.80323 0.56782 0.00744 0.0
H712 H 0.74149 0.51934 0.00894 0.0
H713 H 0.74322 0.51397 0.91367 0.0
C714 C 0.77489 0.53678 0.84936 0.0
C715 C 0.79271 0.54981 0.82157 0.0
C716 C 0.77428 0.53802 0.90509 0.0
C717 C 0.81002 0.56341 0.85033 0.0
C718 C 0.8094 0.56497 0.90509 0.0
C719 C 0.79037 0.55567 0.98711 0.0
C720 C 0.77234 0.54392 0.01487 0.0
C721 C 0.79152 0.55272 0.93271 0.0
C722 C 0.75566 0.52834 0.98832 0.0
C723 C 0.75658 0.52546 0.93374 0.0
H724 H 0.44283 0.25099 0.81658 0.0
H725 H 0.4411 0.19654 0.76358 0.0
H726 H 0.44267 0.18722 0.85518 0.0
H727 H 0.44063 0.19274 0.94993 0.0
H728 H 0.44309 0.24741 0.00359 0.0
H729 H 0.44536 0.25868 0.91179 0.0
C730 C 0.4431 0.23724 0.82517 0.0
C731 C 0.44154 0.22429 0.78374 0.0
C732 C 0.44397 0.232 0.8778 0.0
C733 C 0.44221 0.20668 0.79501 0.0
C734 C 0.443 0.2013 0.8473 0.0
C735 C 0.44191 0.20724 0.94142 0.0
C736 C 0.44136 0.21913 0.98292 0.0
C737 C 0.44326 0.21355 0.88893 0.0
C738 C 0.44341 0.23803 0.97194 0.0
C739 C 0.44461 0.2444 0.9196 0.0
H740 H 0.7377 0.18688 0.82497 0.0
H741 H 0.79028 0.24171 0.77297 0.0
H742 H 0.7997 0.25212 0.86486 0.0
H743 H 0.79488 0.24385 0.95924 0.0
H744 H 0.74205 0.18953 0.0121 0.0
H745 H 0.73062 0.18067 0.92024 0.0
C746 C 0.75106 0.20124 0.83386 0.0
C747 C 0.76347 0.21341 0.79255 0.0
C748 C 0.75637 0.20708 0.88666 0.0
C749 C 0.78056 0.23209 0.80426 0.0
C750 C 0.786 0.23799 0.85671 0.0
C751 C 0.78076 0.23018 0.95057 0.0
C752 C 0.76944 0.21714 0.99183 0.0
C753 C 0.77433 0.22532 0.89809 0.0
C754 C 0.75099 0.19969 0.98064 0.0
C755 C 0.74453 0.19461 0.92826 0.0
H756 H 0.44179 0.2471 0.45172 0.0
H757 H 0.43507 0.19051 0.5046 0.0
H758 H 0.43816 0.18167 0.4132 0.0
H759 H 0.43928 0.18876 0.31794 0.0
H760 H 0.44692 0.24584 0.26579 0.0
H761 H 0.44733 0.25603 0.35766 0.0
C762 C 0.44121 0.23292 0.44315 0.0
C763 C 0.43787 0.21927 0.48423 0.0
C764 C 0.44314 0.22809 0.39091 0.0
C765 C 0.43753 0.20114 0.47325 0.0
C766 C 0.43923 0.19609 0.42113 0.0
C767 C 0.44134 0.20355 0.32683 0.0
C768 C 0.44278 0.21645 0.28544 0.0
C769 C 0.44152 0.20924 0.37958 0.0
C770 C 0.44574 0.23567 0.29716 0.0
C771 C 0.44584 0.24143 0.34958 0.0
H772 H 0.74097 0.1902 0.45842 0.0
H773 H 0.79479 0.2435 0.5121 0.0
H774 H 0.80322 0.2554 0.4206 0.0
H775 H 0.79698 0.24861 0.32527 0.0
H776 H 0.74277 0.19545 0.27231 0.0
H777 H 0.73252 0.18563 0.36403 0.0
C778 C 0.75444 0.20452 0.45002 0.0
C779 C 0.76748 0.21584 0.4914 0.0
C780 C 0.75907 0.21122 0.39771 0.0
C781 C 0.78465 0.23454 0.48055 0.0
C782 C 0.78948 0.24128 0.42837 0.0
C783 C 0.78277 0.23505 0.3339 0.0
C784 C 0.77076 0.22259 0.29235 0.0
C785 C 0.77706 0.22946 0.3866 0.0
C786 C 0.75227 0.20522 0.30377 0.0
C787 C 0.74647 0.19954 0.35613 0.0
H788 H 0.77224 0.57718 0.50423 0.0
H789 H 0.76393 0.51727 0.50922 0.0
H790 H 0.75748 0.51364 0.41339 0.0
H791 H 0.75713 0.52908 0.32643 0.0
H792 H 0.7637 0.58848 0.3255 0.0
H793 H 0.768 0.59079 0.42102 0.0
C794 C 0.76856 0.56315 0.48447 0.0
C795 C 0.7685 0.54751 0.51353 0.0
C796 C 0.76491 0.56124 0.42979 0.0
C797 C 0.76377 0.52941 0.48766 0.0
C798 C 0.76034 0.52746 0.43278 0.0
C799 C 0.75941 0.54243 0.34737 0.0
C800 C 0.76032 0.55868 0.31881 0.0
C801 C 0.76138 0.54351 0.40311 0.0
C802 C 0.76297 0.57578 0.34647 0.0
C803 C 0.76544 0.57714 0.40118 0.0
H804 H 0.57225 0.10168 0.71696 0.0
H805 H 0.51757 0.09885 0.66134 0.0
H806 H 0.50809 0.10125 0.7526 0.0
H807 H 0.51427 0.10142 0.8485 0.0
H808 H 0.56996 0.10614 0.90321 0.0
H809 H 0.58036 0.10605 0.81184 0.0
C810 C 0.55834 0.10175 0.72494 0.0
C811 C 0.54543 0.09979 0.68294 0.0
C812 C 0.55323 0.10348 0.77717 0.0
C813 C 0.52766 0.10028 0.6933 0.0
C814 C 0.52223 0.10159 0.74538 0.0
C815 C 0.5288 0.10271 0.84028 0.0
C816 C 0.54126 0.10357 0.88236 0.0
C817 C 0.53473 0.1028 0.78767 0.0
C818 C 0.56014 0.10548 0.87139 0.0
C819 C 0.56603 0.1053 0.81921 0.0
H820 H 0.87908 0.41977 0.6667 0.0
H821 H 0.89107 0.48041 0.69404 0.0
H822 H 0.88983 0.47519 0.78937 0.0
H823 H 0.88855 0.45457 0.8654 0.0
H824 H 0.87917 0.39486 0.83852 0.0
H825 H 0.87591 0.39836 0.74348 0.0
C826 C 0.88111 0.43168 0.69364 0.0
C827 C 0.88528 0.45046 0.67334 0.0
C828 C 0.88094 0.42878 0.74878 0.0
C829 C 0.88803 0.46585 0.70869 0.0
C830 C 0.8873 0.46289 0.76329 0.0
C831 C 0.88539 0.4422 0.83878 0.0
C832 C 0.8841 0.4245 0.85891 0.0
C833 C 0.88423 0.44459 0.78388 0.0
C834 C 0.88028 0.40868 0.8239 0.0
C835 C 0.87847 0.41069 0.76949 0.0
H836 H 0.52323 0.41322 0.71335 0.0
H837 H 0.57883 0.46432 0.65954 0.0
H838 H 0.59061 0.47277 0.75122 0.0
H839 H 0.58333 0.46746 0.84663 0.0
H840 H 0.52814 0.41559 0.8998 0.0
H841 H 0.51801 0.40532 0.80811 0.0
C842 C 0.53802 0.42607 0.72181 0.0
C843 C 0.55007 0.43837 0.68028 0.0
C844 C 0.54468 0.43066 0.77426 0.0
C845 C 0.56933 0.45474 0.69119 0.0
C846 C 0.576 0.45959 0.74348 0.0
C847 C 0.56924 0.45374 0.83803 0.0
C848 C 0.55634 0.44242 0.8796 0.0
C849 C 0.56356 0.44794 0.78533 0.0
C850 C 0.53827 0.42454 0.86829 0.0
C851 C 0.53242 0.41874 0.81594 0.0
H852 H 0.55564 0.76291 0.71652 0.0
H853 H 0.54515 0.81234 0.68634 0.0
H854 H 0.54356 0.80591 0.59123 0.0
H855 H 0.54796 0.78791 0.51565 0.0
H856 H 0.56098 0.74016 0.54661 0.0
H857 H 0.55873 0.74417 0.64152 0.0
C858 C 0.55262 0.772 0.68911 0.0
C859 C 0.55044 0.78801 0.7084 0.0
C860 C 0.55243 0.76867 0.63425 0.0
C861 C 0.54689 0.7999 0.67239 0.0
C862 C 0.54604 0.79628 0.61795 0.0
C863 C 0.55008 0.77828 0.54325 0.0
C864 C 0.55474 0.76386 0.52403 0.0
C865 C 0.54924 0.78099 0.59823 0.0
C866 C 0.55756 0.75153 0.56032 0.0
C867 C 0.55624 0.75377 0.61472 0.0
H868 H 0.24034 0.80381 0.55138 0.0
H869 H 0.18987 0.74746 0.4988 0.0
H870 H 0.18269 0.73546 0.5905 0.0
H871 H 0.18882 0.74267 0.68586 0.0
H872 H 0.23995 0.79883 0.7375 0.0
H873 H 0.24915 0.80913 0.64557 0.0
C874 C 0.22788 0.78883 0.56008 0.0
C875 C 0.21537 0.77662 0.51894 0.0
C876 C 0.22403 0.78205 0.61249 0.0
C877 C 0.19956 0.7571 0.53016 0.0
C878 C 0.19545 0.7503 0.58246 0.0
C879 C 0.20218 0.757 0.6769 0.0
C880 C 0.21355 0.77011 0.71822 0.0
C881 C 0.2073 0.76286 0.62401 0.0
C882 C 0.23095 0.78852 0.70629 0.0
C883 C 0.23613 0.79448 0.65378 0.0
H884 H 0.18222 0.43722 0.55024 0.0
H885 H 0.23803 0.44239 0.49567 0.0
H886 H 0.25024 0.44656 0.58716 0.0
H887 H 0.24325 0.44493 0.68283 0.0
H888 H 0.18789 0.44102 0.73679 0.0
H889 H 0.17735 0.44053 0.64511 0.0
C890 C 0.19716 0.43952 0.55846 0.0
C891 C 0.20913 0.43918 0.51672 0.0
C892 C 0.20408 0.44209 0.61085 0.0
C893 C 0.22858 0.44254 0.52739 0.0
C894 C 0.2355 0.44483 0.57962 0.0
C895 C 0.22905 0.44434 0.67441 0.0
C896 C 0.21622 0.44276 0.7163 0.0
C897 C 0.22313 0.44408 0.62169 0.0
C898 C 0.19799 0.44226 0.70513 0.0
C899 C 0.1919 0.44182 0.65276 0.0
H900 H 0.46425 0.8788 0.17131 0.0
H901 H 0.40515 0.86588 0.11923 0.0
H902 H 0.39431 0.86347 0.21108 0.0
H903 H 0.40321 0.86994 0.30492 0.0
H904 H 0.46231 0.88341 0.3579 0.0
H905 H 0.47154 0.88039 0.26681 0.0
C906 C 0.44887 0.87507 0.18011 0.0
C907 C 0.4356 0.87285 0.1386 0.0
C908 C 0.44284 0.874 0.23303 0.0
C909 C 0.41567 0.86778 0.15047 0.0
C910 C 0.4095 0.86651 0.20297 0.0
C911 C 0.41799 0.87184 0.29661 0.0
C912 C 0.4322 0.87719 0.33764 0.0
C913 C 0.4232 0.87034 0.24438 0.0
C914 C 0.45117 0.87932 0.32678 0.0
C915 C 0.45647 0.87774 0.27472 0.0
H916 H 0.10962 0.58469 0.16723 0.0
H917 H 0.10855 0.53079 0.11228 0.0
H918 H 0.10876 0.52047 0.20377 0.0
H919 H 0.10541 0.52502 0.29866 0.0
H920 H 0.10732 0.57922 0.35418 0.0
H921 H 0.11083 0.59139 0.26289 0.0
C922 C 0.10975 0.57084 0.17537 0.0
C923 C 0.10879 0.55834 0.13329 0.0
C924 C 0.10985 0.56503 0.22795 0.0
C925 C 0.10925 0.5406 0.14411 0.0
C926 C 0.10924 0.53465 0.19635 0.0
C927 C 0.10685 0.53962 0.29072 0.0
C928 C 0.1058 0.55113 0.33266 0.0
C929 C 0.10894 0.54646 0.23845 0.0
C930 C 0.10804 0.57014 0.32231 0.0
C931 C 0.10994 0.57701 0.27021 0.0
H932 H 0.40178 0.5177 0.14537 0.0
H933 H 0.45873 0.56659 0.09013 0.0
H934 H 0.46875 0.5781 0.18118 0.0
H935 H 0.46284 0.57192 0.27664 0.0
H936 H 0.4056 0.52383 0.33253 0.0
H937 H 0.39401 0.51438 0.24093 0.0
C938 C 0.41624 0.53108 0.15327 0.0
C939 C 0.42962 0.54116 0.1112 0.0
C940 C 0.42188 0.53759 0.20573 0.0
C941 C 0.44819 0.55859 0.12182 0.0
C942 C 0.45397 0.56509 0.17389 0.0
C943 C 0.44772 0.55953 0.26868 0.0
C944 C 0.43515 0.54836 0.31101 0.0
C945 C 0.44119 0.55434 0.21616 0.0
C946 C 0.41551 0.53259 0.30045 0.0
C947 C 0.40895 0.52715 0.24815 0.0
H948 H 0.10338 0.53373 0.83136 0.0
H949 H 0.10974 0.59235 0.80635 0.0
H950 H 0.11218 0.58902 0.711 0.0
H951 H 0.1089 0.56799 0.63422 0.0
H952 H 0.09942 0.5081 0.65846 0.0
H953 H 0.10196 0.51335 0.75416 0.0
C954 C 0.10567 0.54586 0.80494 0.0
C955 C 0.10633 0.5632 0.82549 0.0
C956 C 0.10631 0.54353 0.74992 0.0
C957 C 0.10906 0.57879 0.7911 0.0
C958 C 0.11044 0.5769 0.73664 0.0
C959 C 0.10775 0.55626 0.6605 0.0
C960 C 0.10392 0.53771 0.63954 0.0
C961 C 0.10853 0.55912 0.71549 0.0
C962 C 0.10225 0.5225 0.67389 0.0
C963 C 0.10368 0.52547 0.72858 0.0
H964 H 0.44695 0.56026 0.81125 0.0
H965 H 0.40467 0.49717 0.78393 0.0
H966 H 0.40564 0.50316 0.68906 0.0
H967 H 0.4205 0.52567 0.61293 0.0
H968 H 0.46521 0.58806 0.63855 0.0
H969 H 0.46108 0.58319 0.73443 0.0
C970 C 0.43787 0.54792 0.78444 0.0
C971 C 0.4259 0.5283 0.80452 0.0
C972 C 0.43888 0.55137 0.72947 0.0
C973 C 0.41422 0.51239 0.76939 0.0
C974 C 0.41468 0.5158 0.71509 0.0
C975 C 0.42896 0.53828 0.63957 0.0
C976 C 0.44298 0.55721 0.61891 0.0
C977 C 0.42719 0.53514 0.69455 0.0
C978 C 0.45423 0.57335 0.65375 0.0
C979 C 0.45197 0.57055 0.70853 0.0
H980 H 0.4495 0.9174 0.82143 0.0
H981 H 0.42127 0.8528 0.83655 0.0
H982 H 0.41408 0.84892 0.74113 0.0
H983 H 0.417 0.86443 0.65244 0.0
H984 H 0.44389 0.9291 0.64141 0.0
H985 H 0.45071 0.93248 0.73605 0.0
C986 C 0.44163 0.90244 0.80392 0.0
C987 C 0.43597 0.88542 0.83567 0.0
C988 C 0.43756 0.9004 0.74964 0.0
C989 C 0.42564 0.86612 0.81273 0.0
C990 C 0.42169 0.86393 0.7582 0.0
C991 C 0.42444 0.87919 0.671 0.0
C992 C 0.43012 0.89652 0.64023 0.0
C993 C 0.42783 0.88101 0.72607 0.0
C994 C 0.43942 0.91558 0.6645 0.0
C995 C 0.4433 0.91754 0.71855 0.0
H996 H 0.22651 0.4408 0.21582 0.0
H997 H 0.17025 0.44001 0.19262 0.0
H998 H 0.17543 0.44236 0.09683 0.0
H999 H 0.19412 0.4407 0.01914 0.0
H1000 H 0.24855 0.43799 0.04329 0.0
H1001 H 0.2461 0.44111 0.1387 0.0
C1002 C 0.21564 0.44159 0.18976 0.0
C1003 C 0.19807 0.44025 0.21099 0.0
C1004 C 0.21829 0.44207 0.13471 0.0
C1005 C 0.1839 0.44097 0.17694 0.0
C1006 C 0.18681 0.44225 0.1222 0.0
C1007 C 0.20557 0.44115 0.0454 0.0
C1008 C 0.22141 0.43904 0.02451 0.0
C1009 C 0.20366 0.4422 0.10051 0.0
C1010 C 0.23611 0.43943 0.05873 0.0
C1011 C 0.23473 0.44122 0.11325 0.0
H1012 H 0.54708 0.75923 0.01562 0.0
H1013 H 0.5645 0.82126 0.04709 0.0
H1014 H 0.56137 0.81476 0.14186 0.0
H1015 H 0.55618 0.79217 0.21674 0.0
H1016 H 0.54121 0.73083 0.18622 0.0
H1017 H 0.54056 0.73617 0.09105 0.0
C1018 C 0.55 0.77123 0.04329 0.0
C1019 C 0.55614 0.79071 0.02422 0.0
C1020 C 0.54858 0.7675 0.09824 0.0
C1021 C 0.55994 0.80614 0.06063 0.0
C1022 C 0.5581 0.80245 0.11498 0.0
C1023 C 0.55237 0.77989 0.18924 0.0
C1024 C 0.54865 0.76113 0.20844 0.0
C1025 C 0.55276 0.78329 0.13437 0.0
C1026 C 0.54411 0.74543 0.17232 0.0
C1027 C 0.54382 0.74849 0.11785 0.0
H1028 H 0.24644 0.80169 0.18688 0.0
H1029 H 0.19094 0.74963 0.23782 0.0
H1030 H 0.18155 0.73943 0.14585 0.0
H1031 H 0.18725 0.74761 0.05146 0.0
H1032 H 0.2429 0.79909 0.99954 0.0
H1033 H 0.25429 0.80723 0.09167 0.0
C1034 C 0.23246 0.78793 0.17778 0.0
C1035 C 0.21923 0.77657 0.21884 0.0
C1036 C 0.22713 0.78222 0.12485 0.0
C1037 C 0.20131 0.75863 0.20679 0.0
C1038 C 0.19588 0.75287 0.15425 0.0
C1039 C 0.20197 0.76048 0.06041 0.0
C1040 C 0.21412 0.77299 0.01932 0.0
C1041 C 0.20837 0.76492 0.11306 0.0
C1042 C 0.23331 0.78936 0.03086 0.0
C1043 C 0.23975 0.79403 0.08341 0.0
H1044 H 0.14731 0.17833 0.25175 0.0
H1045 H 0.20098 0.23408 0.29326 0.0
H1046 H 0.22199 0.21938 0.26946 0.0
H1047 H 0.22486 0.19048 0.23627 0.0
H1048 H 0.17062 0.1353 0.19357 0.0
H1049 H 0.15008 0.15011 0.21788 0.0
C1050 C 0.1636 0.18725 0.25599 0.0
C1051 C 0.1726 0.20718 0.27455 0.0
C1052 C 0.17548 0.17887 0.24149 0.0
C1053 C 0.19373 0.21863 0.27926 0.0
C1054 C 0.20572 0.21027 0.26548 0.0
C1055 C 0.20856 0.18181 0.23196 0.0
C1056 C 0.19928 0.16185 0.21314 0.0
C1057 C 0.19675 0.19041 0.24628 0.0
C1058 C 0.17814 0.1507 0.20794 0.0
C1059 C 0.16635 0.15912 0.22198 0.0
H1060 H 0.76414 0.96313 0.27868 0.0
H1061 H 0.81844 0.95968 0.29808 0.0
H1062 H 0.83905 -0.00459 0.27605 0.0
H1063 H 0.84155 0.02726 0.24848 0.0
H1064 H 0.78727 0.03067 0.22805 0.0
H1065 H 0.76668 -0.00479 0.25296 0.0
C1066 C 0.78049 0.97027 0.27859 0.0
C1067 C 0.78978 0.95885 0.28997 0.0
C1068 C 0.79221 0.9907 0.26518 0.0
C1069 C 0.81096 0.96821 0.28944 0.0
C1070 C 0.82274 0.98859 0.27668 0.0
C1071 C 0.82521 0.02022 0.24936 0.0
C1072 C 0.81591 0.03147 0.23619 0.0
C1073 C 0.81351 -9e-05 0.26387 0.0
C1074 C 0.79475 0.02225 0.23785 0.0
C1075 C 0.78298 0.00201 0.2522 0.0
H1076 H 0.95589 0.8128 0.23354 0.0
H1077 H 0.95132 0.75505 0.20515 0.0
H1078 H 0.98627 0.76859 0.23476 0.0
H1079 H 0.01826 0.79713 0.267 0.0
H1080 H 0.02252 0.85484 0.29392 0.0
H1081 H 0.98736 0.84091 0.26707 0.0
C1082 C 0.96254 0.80316 0.23371 0.0
C1083 C 0.95114 0.78301 0.21695 0.0
C1084 C 0.9825 0.811 0.25081 0.0
C1085 C 0.95988 0.77067 0.21769 0.0
C1086 C 0.97981 0.77838 0.23471 0.0
C1087 C 0.01141 0.80657 0.26745 0.0
C1088 C 0.02291 0.82696 0.28241 0.0
C1089 C 0.99127 0.79854 0.25125 0.0
C1090 C 0.01394 0.8391 0.28251 0.0
C1091 C -0.00613 0.83117 0.26705 0.0
H1092 H 0.83804 0.80733 0.70776 0.0
H1093 H 0.78426 0.74861 0.71114 0.0
H1094 H 0.76423 0.76396 0.73847 0.0
H1095 H 0.76237 0.7941 0.76343 0.0
H1096 H 0.81673 0.85249 0.76277 0.0
H1097 H 0.83626 0.83716 0.73279 0.0
C1098 C 0.82189 0.7979 0.71395 0.0
C1099 C 0.81257 0.77693 0.70719 0.0
C1100 C 0.81066 0.80673 0.73071 0.0
C1101 C 0.79171 0.76484 0.71596 0.0
C1102 C 0.7803 0.77358 0.73176 0.0
C1103 C 0.7785 0.80343 0.75687 0.0
C1104 C 0.78811 0.82436 0.7654 0.0
C1105 C 0.78967 0.79451 0.73973 0.0
C1106 C 0.809 0.83631 0.7567 0.0
C1107 C 0.82017 0.82758 0.73936 0.0
H1108 H 0.22235 0.03252 0.73648 0.0
H1109 H 0.16759 0.03318 0.69889 0.0
H1110 H 0.14738 -0.00213 0.72528 0.0
H1111 H 0.1453 0.96698 0.75949 0.0
H1112 H 0.2 0.96623 0.79727 0.0
H1113 H 0.22026 0.00156 0.77082 0.0
C1114 C 0.206 0.02488 0.73374 0.0
C1115 C 0.19645 0.03536 0.71564 0.0
C1116 C 0.19449 0.00468 0.74945 0.0
C1117 C 0.17527 0.02537 0.71262 0.0
C1118 C 0.16371 0.00523 0.72784 0.0
C1119 C 0.16165 0.97459 0.76225 0.0
C1120 C 0.17117 0.9641 0.78042 0.0
C1121 C 0.17317 0.99478 0.74657 0.0
C1122 C 0.19235 0.97406 0.7835 0.0
C1123 C 0.20393 0.99421 0.76824 0.0
H1124 H 0.96527 0.19501 0.71973 0.0
H1125 H 0.95807 0.13544 0.71005 0.0
H1126 H -0.00611 0.14931 0.7291 0.0
H1127 H 0.02695 0.17807 0.75114 0.0
H1128 H 0.03448 0.23774 0.76146 0.0
H1129 H -0.00122 0.2241 0.73971 0.0
C1130 C 0.9716 0.18512 0.72135 0.0
C1131 C 0.95907 0.16426 0.71355 0.0
C1132 C 0.99219 0.19316 0.73286 0.0
C1133 C 0.96742 0.15157 0.71596 0.0
C1134 C 0.98789 0.15947 0.72698 0.0
C1135 C 0.02078 0.1881 0.7487 0.0
C1136 C 0.03326 0.20884 0.75817 0.0
C1137 C 0.00034 0.18019 0.73605 0.0
C1138 C 0.02512 0.22168 0.7545 0.0
C1139 C 0.00473 0.2139 0.74199 0.0
H1140 H 0.80935 0.50905 0.59087 0.0
H1141 H 0.86326 0.56702 0.61045 0.0
H1142 H 0.88385 0.55307 0.57711 0.0
H1143 H 0.88644 0.52384 0.54629 0.0
H1144 H 0.83207 0.46609 0.52724 0.0
H1145 H 0.81168 0.48062 0.55597 0.0
C1146 C 0.82561 0.51865 0.58786 0.0
C1147 C 0.83484 0.53894 0.6036 0.0
C1148 C 0.83723 0.51059 0.56858 0.0
C1149 C 0.85587 0.5513 0.5988 0.0
C1150 C 0.86761 0.54334 0.57974 0.0
C1151 C 0.87012 0.51453 0.54785 0.0
C1152 C 0.86078 0.49392 0.53492 0.0
C1153 C 0.85845 0.52294 0.56497 0.0
C1154 C 0.83963 0.48199 0.53716 0.0
C1155 C 0.82795 0.49026 0.55373 0.0
H1156 H 0.43503 0.29885 0.59602 0.0
H1157 H 0.4887 0.29464 0.62068 0.0
H1158 H 0.50985 0.3301 0.59712 0.0
H1159 H 0.51312 0.36211 0.56875 0.0
H1160 H 0.45971 0.36677 0.54471 0.0
H1161 H 0.43837 0.33121 0.56841 0.0
C1162 C 0.45135 0.30575 0.59652 0.0
C1163 C 0.4603 0.29419 0.61009 0.0
C1164 C 0.46343 0.32613 0.58265 0.0
C1165 C 0.48146 0.30326 0.61043 0.0
C1166 C 0.49356 0.32351 0.59682 0.0
C1167 C 0.49681 0.35532 0.56841 0.0
C1168 C 0.48797 0.36696 0.55478 0.0
C1169 C 0.48471 0.33503 0.58258 0.0
C1170 C 0.46683 0.35804 0.55493 0.0
C1171 C 0.45464 0.33776 0.5686 0.0
H1172 H 0.62492 0.14534 0.57884 0.0
H1173 H 0.62305 0.08935 0.54207 0.0
H1174 H 0.65865 0.10427 0.56627 0.0
H1175 H 0.69028 0.13325 0.59783 0.0
H1176 H 0.69204 0.18919 0.63456 0.0
H1177 H 0.65642 0.17418 0.6109 0.0
C1178 C 0.63234 0.13645 0.57587 0.0
C1179 C 0.62145 0.11633 0.55854 0.0
C1180 C 0.65272 0.14505 0.59023 0.0
C1181 C 0.63118 0.10492 0.55521 0.0
C1182 C 0.6515 0.11341 0.56916 0.0
C1183 C 0.68281 0.14209 0.60098 0.0
C1184 C 0.69372 0.16225 0.61799 0.0
C1185 C 0.66239 0.13343 0.58688 0.0
C1186 C 0.68392 0.1736 0.62162 0.0
C1187 C 0.66359 0.16507 0.60796 0.0
H1188 H 0.43273 0.13458 0.09612 0.0
H1189 H 0.48807 0.19094 0.12164 0.0
H1190 H 0.50782 0.17507 0.09869 0.0
H1191 H 0.50952 0.14547 0.07084 0.0
H1192 H 0.45462 0.0887 0.04664 0.0
H1193 H 0.43452 0.10448 0.06917 0.0
C1194 C 0.4491 0.14332 0.09693 0.0
C1195 C 0.45892 0.16388 0.11058 0.0
C1196 C 0.46043 0.13409 0.08351 0.0
C1197 C 0.48014 0.17506 0.11133 0.0
C1198 C 0.49147 0.16603 0.09806 0.0
C1199 C 0.49315 0.13656 0.07015 0.0
C1200 C 0.48355 0.11601 0.0568 0.0
C1201 C 0.48178 0.14562 0.08382 0.0
C1202 C 0.46234 0.10459 0.05662 0.0
C1203 C 0.45086 0.11359 0.06963 0.0
H1204 H 0.84496 0.35964 0.06007 0.0
H1205 H 0.89952 0.35776 0.02907 0.0
H1206 H 0.88305 0.32268 0.05891 0.0
H1207 H 0.85323 0.29277 0.09432 0.0
H1208 H 0.79879 0.29488 0.1255 0.0
H1209 H 0.81529 0.32989 0.09561 0.0
C1210 C 0.8532 0.35151 0.05946 0.0
C1211 C 0.87335 0.36117 0.0422 0.0
C1212 C 0.84376 0.33153 0.07721 0.0
C1213 C 0.88393 0.35055 0.04203 0.0
C1214 C 0.87457 0.33056 0.05926 0.0
C1215 C 0.84504 0.30095 0.09492 0.0
C1216 C 0.82488 0.29135 0.1122 0.0
C1217 C 0.85453 0.32096 0.07722 0.0
C1218 C 0.81437 0.30202 0.11248 0.0
C1219 C 0.82374 0.32198 0.09522 0.0
H1220 H 0.69518 0.5117 0.10037 0.0
H1221 H 0.69961 0.56999 0.1131 0.0
H1222 H 0.66425 0.55522 0.08527 0.0
H1223 H 0.63181 0.52531 0.06016 0.0
H1224 H 0.62826 0.46736 0.04674 0.0
H1225 H 0.66369 0.48251 0.07164 0.0
C1226 C 0.68841 0.52119 0.09713 0.0
C1227 C 0.69984 0.54183 0.10925 0.0
C1228 C 0.66829 0.51267 0.08083 0.0
C1229 C 0.69101 0.55402 0.10416 0.0
C1230 C 0.67084 0.54558 0.08827 0.0
C1231 C 0.63887 0.51607 0.06229 0.0
C1232 C 0.62743 0.49525 0.05186 0.0
C1233 C 0.6593 0.52488 0.07684 0.0
C1234 C 0.63674 0.48343 0.05466 0.0
C1235 C 0.65698 0.49205 0.06904 0.0
H1236 H 0.47411 0.84453 0.9317 0.0
H1237 H 0.52615 0.90296 0.96255 0.0
H1238 H 0.54854 0.89041 0.93439 0.0
H1239 H 0.55312 0.86244 0.90297 0.0
H1240 H 0.50064 0.80414 0.8732 0.0
H1241 H 0.47855 0.81715 0.89848 0.0
C1242 C 0.49036 0.85454 0.93237 0.0
C1243 C 0.49851 0.87458 0.94948 0.0
C1244 C 0.50301 0.84728 0.91605 0.0
C1245 C 0.51956 0.88742 0.94975 0.0
C1246 C 0.53233 0.88027 0.93356 0.0
C1247 C 0.53685 0.85267 0.90156 0.0
C1248 C 0.5285 0.83237 0.88632 0.0
C1249 C 0.52421 0.86019 0.91679 0.0
C1250 C 0.50742 0.81982 0.88488 0.0
C1251 C 0.49477 0.82722 0.89945 0.0
H1252 H 0.10256 0.63364 0.94849 0.0
H1253 H 0.15709 0.63193 0.98168 0.0
H1254 H 0.17754 0.66708 0.95406 0.0
H1255 H 0.17987 0.69787 0.91814 0.0
H1256 H 0.12539 0.69957 0.88431 0.0
H1257 H 0.1049 0.66465 0.91391 0.0
C1258 C 0.11892 0.64105 0.95027 0.0
C1259 C 0.12834 0.6303 0.96717 0.0
C1260 C 0.13055 0.6611 0.9335 0.0
C1261 C 0.14953 0.63997 0.96888 0.0
C1262 C 0.16122 0.66 0.95286 0.0
C1263 C 0.16351 0.69054 0.91693 0.0
C1264 C 0.15412 0.70116 0.89879 0.0
C1265 C 0.15188 0.67061 0.93447 0.0
C1266 C 0.13293 0.69161 0.89791 0.0
C1267 C 0.12123 0.6717 0.91502 0.0
H1268 H 0.28915 0.43083 0.90239 0.0
H1269 H 0.29098 0.48678 0.86525 0.0
H1270 H 0.32667 0.50572 0.8892 0.0
H1271 H 0.35706 0.50647 0.92215 0.0
H1272 H 0.35563 0.45077 0.95972 0.0
H1273 H 0.31992 0.43161 0.93472 0.0
C1274 C 0.29744 0.44715 0.89905 0.0
C1275 C 0.28751 0.45741 0.88196 0.0
C1276 C 0.31789 0.45798 0.91357 0.0
C1277 C 0.29833 0.47855 0.87824 0.0
C1278 C 0.3187 0.4894 0.89211 0.0
C1279 C 0.34891 0.49014 0.9252 0.0
C1280 C 0.35888 0.48004 0.94301 0.0
C1281 C 0.32856 0.47928 0.91029 0.0
C1282 C 0.34821 0.45888 0.94633 0.0
C1283 C 0.32784 0.44792 0.93185 0.0
H1284 H 0.09521 0.46475 0.4419 0.0
H1285 H 0.15047 0.5215 0.46445 0.0
H1286 H 0.17028 0.5058 0.44095 0.0
H1287 H 0.17207 0.47642 0.41273 0.0
H1288 H 0.11742 0.4192 0.39108 0.0
H1289 H 0.09714 0.43466 0.41536 0.0
C1290 C 0.11158 0.4736 0.44191 0.0
C1291 C 0.12136 0.49424 0.45477 0.0
C1292 C 0.12296 0.46447 0.42825 0.0
C1293 C 0.14258 0.50558 0.45467 0.0
C1294 C 0.15394 0.49665 0.44112 0.0
C1295 C 0.15571 0.46731 0.41311 0.0
C1296 C 0.14621 0.44678 0.39981 0.0
C1297 C 0.14429 0.47619 0.42752 0.0
C1298 C 0.12503 0.4351 0.40104 0.0
C1299 C 0.11347 0.44391 0.41496 0.0
H1300 H 0.47295 0.62604 0.42562 0.0
H1301 H 0.52574 0.6195 0.43645 0.0
H1302 H 0.54736 0.65509 0.41387 0.0
H1303 H 0.5512 0.68808 0.39172 0.0
H1304 H 0.49828 0.69445 0.38124 0.0
H1305 H 0.47673 0.6588 0.40263 0.0
C1306 C 0.4892 0.63242 0.42319 0.0
C1307 C 0.49777 0.62023 0.43285 0.0
C1308 C 0.50148 0.6528 0.40998 0.0
C1309 C 0.51881 0.62863 0.42929 0.0
C1310 C 0.53116 0.64895 0.4163 0.0
C1311 C 0.53494 0.68162 0.39381 0.0
C1312 C 0.52633 0.69383 0.38488 0.0
C1313 C 0.52265 0.66116 0.40653 0.0
C1314 C 0.50526 0.68532 0.38791 0.0
C1315 C 0.49293 0.66497 0.40026 0.0
H1316 H 0.35577 0.88926 0.43415 0.0
H1317 H 0.3558 0.83605 0.49063 0.0
H1318 H 0.32029 0.81524 0.46615 0.0
H1319 H 0.2896 0.81207 0.42657 0.0
H1320 H 0.2893 0.86522 0.37095 0.0
H1321 H 0.32473 0.8862 0.39677 0.0
C1322 C 0.34794 0.87314 0.44155 0.0
C1323 C 0.35834 0.86418 0.4641 0.0
C1324 C 0.32761 0.86126 0.42696 0.0
C1325 C 0.34807 0.84328 0.47337 0.0
C1326 C 0.32781 0.83137 0.45917 0.0
C1327 C 0.29734 0.82823 0.41982 0.0
C1328 C 0.287 0.83711 0.39653 0.0
C1329 C 0.31753 0.84017 0.43539 0.0
C1330 C 0.29705 0.85808 0.38863 0.0
C1331 C 0.31725 0.87006 0.40351 0.0
H1332 H 0.30334 0.17853 0.16172 0.0
H1333 H 0.28484 0.11622 0.19306 0.0
H1334 H 0.31951 0.12345 0.18118 0.0
H1335 H 0.35518 0.14747 0.16157 0.0
H1336 H 0.37363 0.20976 0.13019 0.0
H1337 H 0.33898 0.20252 0.14211 0.0
C1338 C 0.30693 0.16657 0.16612 0.0
C1339 C 0.29157 0.14691 0.17832 0.0
C1340 C 0.3269 0.17079 0.15898 0.0
C1341 C 0.29642 0.13152 0.18371 0.0
C1342 C 0.31623 0.13562 0.17685 0.0
C1343 C 0.35158 0.15941 0.15717 0.0
C1344 C 0.36693 0.17908 0.14495 0.0
C1345 C 0.3316 0.15518 0.16432 0.0
C1346 C 0.36207 0.19445 0.13956 0.0
C1347 C 0.34225 0.19035 0.14644 0.0
H1348 H 0.7894 0.16471 0.15288 0.0
H1349 H 0.84975 0.21566 0.16803 0.0
H1350 H 0.86304 0.19282 0.18174 0.0
H1351 H 0.8574 0.1584 0.18982 0.0
H1352 H 0.79696 0.10754 0.17506 0.0
H1353 H 0.78376 0.13038 0.16089 0.0
C1354 C 0.80547 0.17082 0.15907 0.0
C1355 C 0.81859 0.19181 0.15941 0.0
C1356 C 0.81295 0.15764 0.16712 0.0
C1357 C 0.83936 0.19953 0.16758 0.0
C1358 C 0.84695 0.1865 0.17546 0.0
C1359 C 0.84134 0.15233 0.18356 0.0
C1360 C 0.82815 0.13134 0.18353 0.0
C1361 C 0.83387 0.16553 0.17542 0.0
C1362 C 0.80739 0.12366 0.17532 0.0
C1363 C 0.79985 0.13669 0.16717 0.0
H1364 H 0.78619 0.63597 0.13307 0.0
H1365 H 0.82931 0.61764 0.17581 0.0
H1366 H 0.8563 0.65292 0.17795 0.0
H1367 H 0.86743 0.68904 0.17032 0.0
H1368 H 0.82406 0.70724 0.12926 0.0
H1369 H 0.79742 0.67195 0.12347 0.0
C1370 C 0.8015 0.63969 0.14271 0.0
C1371 C 0.80574 0.62424 0.15443 0.0
C1372 C 0.81691 0.65998 0.14412 0.0
C1373 C 0.82565 0.62929 0.16678 0.0
C1374 C 0.8411 0.64944 0.16798 0.0
C1375 C 0.85218 0.68526 0.15971 0.0
C1376 C 0.84771 0.70071 0.15028 0.0
C1377 C 0.83687 0.66493 0.15705 0.0
C1378 C 0.82788 0.69561 0.13678 0.0
C1379 C 0.81262 0.67543 0.13354 0.0
H1380 H 0.14083 0.35036 0.33867 0.0
H1381 H 0.20463 0.3734 0.36183 0.0
H1382 H 0.19991 0.33979 0.34699 0.0
H1383 H 0.1777 0.30388 0.32656 0.0
H1384 H 0.11397 0.28096 0.30216 0.0
H1385 H 0.11863 0.31447 0.31813 0.0
C1386 C 0.15366 0.34798 0.34069 0.0
C1387 C 0.17301 0.36429 0.3514 0.0
C1388 C 0.15088 0.32866 0.33164 0.0
C1389 C 0.18955 0.36105 0.35363 0.0
C1390 C 0.18688 0.34185 0.3451 0.0
C1391 C 0.16486 0.30625 0.32466 0.0
C1392 C 0.14555 0.29 0.31314 0.0
C1393 C 0.16763 0.32556 0.33385 0.0
C1394 C 0.12902 0.29326 0.31086 0.0
C1395 C 0.13165 0.3124 0.32007 0.0
H1396 H 0.62101 0.82154 0.34984 0.0
H1397 H 0.63269 0.77201 0.33911 0.0
H1398 H 0.66859 0.79577 0.32453 0.0
H1399 H 0.69655 0.83056 0.3149 0.0
H1400 H 0.68487 0.88009 0.32624 0.0
H1401 H 0.64895 0.85631 0.34035 0.0
C1402 C 0.63141 0.81594 0.34439 0.0
C1403 C 0.62424 0.79506 0.34559 0.0
C1404 C 0.65197 0.82966 0.336 0.0
C1405 C 0.63787 0.78802 0.33843 0.0
C1406 C 0.65838 0.80159 0.33003 0.0
C1407 C 0.68613 0.83615 0.32032 0.0
C1408 C 0.69332 0.85704 0.31945 0.0
C1409 C 0.66557 0.82243 0.32869 0.0
C1410 C 0.67968 0.86407 0.3267 0.0
C1411 C 0.65917 0.8505 0.33482 0.0
H1412 H 0.15855 0.79308 0.3551 0.0
H1413 H 0.20837 0.85425 0.34529 0.0
H1414 H 0.18477 0.86658 0.33196 0.0
H1415 H 0.15013 0.86001 0.32273 0.0
H1416 H 0.10016 0.79895 0.33229 0.0
H1417 H 0.12373 0.78651 0.34601 0.0
C1418 C 0.16423 0.80911 0.35015 0.0
C1419 C 0.18515 0.82275 0.35121 0.0
C1420 C 0.15058 0.81609 0.34236 0.0
C1421 C 0.19231 0.84346 0.34465 0.0
C1422 C 0.17885 0.85052 0.33699 0.0
C1423 C 0.14439 0.84397 0.32777 0.0
C1424 C 0.12346 0.83041 0.32646 0.0
C1425 C 0.15797 0.83697 0.33568 0.0
C1426 C 0.11623 0.80968 0.33311 0.0
C1427 C 0.12968 0.80257 0.34098 0.0
H1428 H 0.69854 0.86253 0.8202 0.0
H1429 H 0.68428 0.80038 0.81697 0.0
H1430 H 0.64852 0.7892 0.83055 0.0
H1431 H 0.62147 0.79715 0.84375 0.0
H1432 H 0.63572 0.8593 0.84659 0.0
H1433 H 0.67146 0.87047 0.83285 0.0
C1434 C 0.6876 0.84653 0.82237 0.0
C1435 C 0.69401 0.83228 0.81759 0.0
C1436 C 0.66714 0.84025 0.83024 0.0
C1437 C 0.67969 0.81162 0.82049 0.0
C1438 C 0.65927 0.80524 0.82831 0.0
C1439 C 0.6324 0.81315 0.84146 0.0
C1440 C 0.626 0.8274 0.84629 0.0
C1441 C 0.65286 0.81942 0.83336 0.0
C1442 C 0.6403 0.84805 0.84305 0.0
C1443 C 0.66072 0.85443 0.83516 0.0
H1444 H 0.19626 0.82853 0.86112 0.0
H1445 H 0.1356 0.77839 0.84259 0.0
H1446 H 0.12297 0.80177 0.82966 0.0
H1447 H 0.12924 0.8364 0.82272 0.0
H1448 H 0.18995 0.88653 0.8406 0.0
H1449 H 0.20252 0.86316 0.85468 0.0
C1450 C 0.18027 0.82273 0.85438 0.0
C1451 C 0.16687 0.80181 0.8528 0.0
C1452 C 0.17315 0.83623 0.84677 0.0
C1453 C 0.1462 0.79447 0.84397 0.0
C1454 C 0.13897 0.80781 0.83654 0.0
C1455 C 0.14522 0.8422 0.82972 0.0
C1456 C 0.15866 0.86312 0.83057 0.0
C1457 C 0.15232 0.82871 0.83769 0.0
C1458 C 0.17932 0.87046 0.83971 0.0
C1459 C 0.18651 0.85712 0.84778 0.0
H1460 H 0.20161 0.3555 0.83141 0.0
H1461 H 0.15647 0.37203 0.86578 0.0
H1462 H 0.12968 0.33735 0.85037 0.0
H1463 H 0.11899 0.30235 0.82659 0.0
H1464 H 0.16398 0.28558 0.79303 0.0
H1465 H 0.19087 0.3203 0.8084 0.0
C1466 C 0.18591 0.35148 0.83569 0.0
C1467 C 0.18104 0.3663 0.84972 0.0
C1468 C 0.17054 0.33148 0.82667 0.0
C1469 C 0.16063 0.36088 0.85506 0.0
C1470 C 0.14528 0.34106 0.84616 0.0
C1471 C 0.13468 0.30632 0.82248 0.0
C1472 C 0.1395 0.29146 0.80854 0.0
C1473 C 0.15006 0.32626 0.83176 0.0
C1474 C 0.15989 0.29678 0.80366 0.0
C1475 C 0.17528 0.31662 0.8125 0.0
H1476 H 0.80718 0.68048 0.7069 0.0
H1477 H 0.87117 0.70316 0.68984 0.0
H1478 H 0.86505 0.66874 0.68258 0.0
H1479 H 0.84141 0.63233 0.67668 0.0
H1480 H 0.7774 0.60958 0.69337 0.0
H1481 H 0.78364 0.64392 0.70515 0.0
C1482 C 0.81979 0.67787 0.70211 0.0
C1483 C 0.83957 0.69431 0.6987 0.0
C1484 C 0.81615 0.65806 0.69747 0.0
C1485 C 0.85578 0.69073 0.6925 0.0
C1486 C 0.8523 0.67106 0.68818 0.0
C1487 C 0.82884 0.6349 0.68303 0.0
C1488 C 0.80898 0.6185 0.68378 0.0
C1489 C 0.83253 0.65464 0.68982 0.0
C1490 C 0.79284 0.622 0.69245 0.0
C1491 C 0.79638 0.64161 0.6992 0.0
H1492 H 0.29043 0.16216 0.67612 0.0
H1493 H 0.29936 0.11089 0.66444 0.0
H1494 H 0.33559 0.13347 0.65156 0.0
H1495 H 0.36462 0.16769 0.64367 0.0
H1496 H 0.35582 0.21903 0.65547 0.0
H1497 H 0.31953 0.19645 0.6681 0.0
C1498 C 0.30031 0.15593 0.67082 0.0
C1499 C 0.29225 0.1349 0.67128 0.0
C1500 C 0.32109 0.16899 0.66334 0.0
C1501 C 0.30522 0.12704 0.66429 0.0
C1502 C 0.32591 0.13993 0.65688 0.0
C1503 C 0.35476 0.17395 0.64889 0.0
C1504 C 0.36286 0.19499 0.64858 0.0
C1505 C 0.33399 0.16091 0.65629 0.0
C1506 C 0.34992 0.20288 0.6555 0.0
C1507 C 0.32919 0.18999 0.66278 0.0
H1508 H 0.83087 0.13127 0.68704 0.0
H1509 H 0.8806 0.19225 0.67183 0.0
H1510 H 0.85683 0.20435 0.65684 0.0
H1511 H 0.82198 0.19759 0.64869 0.0
H1512 H 0.77226 0.1366 0.66387 0.0
H1513 H 0.79604 0.12446 0.67802 0.0
C1514 C 0.83652 0.14722 0.68053 0.0
C1515 C 0.85746 0.16087 0.6807 0.0
C1516 C 0.82279 0.15403 0.6718 0.0
C1517 C 0.86455 0.18146 0.67198 0.0
C1518 C 0.85097 0.18838 0.66337 0.0
C1519 C 0.81634 0.18163 0.65493 0.0
C1520 C 0.79539 0.168 0.65524 0.0
C1521 C 0.83007 0.17479 0.66323 0.0
C1522 C 0.78831 0.14738 0.66342 0.0
C1523 C 0.80189 0.14044 0.67159 0.0
H1524 H 0.01702 0.47855 0.48781 0.0
H1525 H 0.03809 0.54245 0.48647 0.0
H1526 H 0.00339 0.53565 0.49286 0.0
H1527 H 0.96702 0.51157 0.49976 0.0
H1528 H 0.94596 0.44768 0.50191 0.0
H1529 H 0.98062 0.45446 0.49432 0.0
C1530 C 0.01399 0.49096 0.48878 0.0
C1531 C 0.03007 0.51094 0.48669 0.0
C1532 C -0.006 0.48696 0.49273 0.0
C1533 C 0.02595 0.5269 0.48809 0.0
C1534 C 0.00611 0.52305 0.49176 0.0
C1535 C 0.97004 0.49915 0.49854 0.0
C1536 C 0.95398 0.47918 0.50145 0.0
C1537 C 0.99002 0.50314 0.49428 0.0
C1538 C 0.95809 0.46322 0.49981 0.0
C1539 C 0.9779 0.46706 0.49544 0.0
H1540 H 0.50754 0.53496 0.49095 0.0
H1541 H 0.44486 0.48975 0.46945 0.0
H1542 H 0.453 0.46305 0.48328 0.0
H1543 H 0.47794 0.45254 0.50157 0.0
H1544 H 0.54059 0.49776 0.52351 0.0
H1545 H 0.53244 0.52446 0.50965 0.0
C1546 C 0.49569 0.51926 0.48915 0.0
C1547 C 0.47566 0.51432 0.47909 0.0
C1548 C 0.50045 0.50399 0.49741 0.0
C1549 C 0.46042 0.49393 0.47709 0.0
C1550 C 0.46505 0.47865 0.48504 0.0
C1551 C 0.48978 0.46824 0.50344 0.0
C1552 C 0.50981 0.47318 0.51355 0.0
C1553 C 0.48501 0.48351 0.49532 0.0
C1554 C 0.52503 0.49358 0.51581 0.0
C1555 C 0.5204 0.50885 0.50782 0.0
H1556 H 0.49467 0.03131 0.49175 0.0
H1557 H 0.54392 0.01956 0.51199 0.0
H1558 H 0.52105 0.98368 0.49517 0.0
H1559 H 0.48688 0.95555 0.47842 0.0
H1560 H 0.4375 0.96717 0.45912 0.0
H1561 H 0.46071 0.00331 0.47112 0.0
C1562 C 0.50039 0.02089 0.49242 0.0
C1563 C 0.52089 0.02801 0.5035 0.0
C1564 C 0.48718 0.00032 0.48264 0.0
C1565 C 0.52816 0.0144 0.5038 0.0
C1566 C 0.51511 0.9939 0.49412 0.0
C1567 C 0.48123 0.96601 0.47625 0.0
C1568 C 0.46052 0.95872 0.46803 0.0
C1569 C 0.49457 0.98669 0.48392 0.0
C1570 C 0.4534 0.97244 0.4654 0.0
C1571 C 0.46663 0.99308 0.47249 0.0
H1572 H 0.47201 0.01687 0.03117 0.0
H1573 H 0.53571 0.03671 0.03726 0.0
H1574 H 0.52826 0.00186 0.03088 0.0
H1575 H 0.50379 0.96584 0.02087 0.0
H1576 H 0.44007 0.94577 0.01457 0.0
H1577 H 0.44738 0.98057 0.02396 0.0
C1578 C 0.48423 0.01353 0.03131 0.0
C1579 C 0.50436 0.02933 0.03448 0.0
C1580 C 0.47985 0.99342 0.02752 0.0
C1581 C 0.52006 0.0248 0.03476 0.0
C1582 C 0.51584 0.00488 0.03107 0.0
C1583 C 0.49151 0.96908 0.0218 0.0
C1584 C 0.47145 0.95329 0.01687 0.0
C1585 C 0.49581 0.98909 0.02703 0.0
C1586 C 0.45567 0.95769 0.01825 0.0
C1587 C 0.45983 0.97758 0.02354 0.0
H1588 H 0.95932 0.49037 0.00758 0.0
H1589 H 0.97276 0.44225 0.9887 0.0
H1590 H 0.00872 0.4669 0.98123 0.0
H1591 H 0.03627 0.50197 0.98089 0.0
H1592 H 0.02315 0.55026 0.00056 0.0
H1593 H 0.98703 0.52564 0.00684 0.0
C1594 C 0.97013 0.48529 0.00175 0.0
C1595 C 0.96342 0.46453 0.99872 0.0
C1596 C 0.99078 0.49955 0.99767 0.0
C1597 C 0.97757 0.45815 0.99121 0.0
C1598 C -0.00188 0.47223 0.98693 0.0
C1599 C 0.02551 0.50713 0.98647 0.0
C1600 C 0.03233 0.52788 0.99028 0.0
C1601 C 0.00488 0.49294 0.99023 0.0
C1602 C 0.01824 0.53434 0.99754 0.0
C1603 C -0.00239 0.52029 0.00114 0.0
H1604 H 0.49903 0.45857 0.02526 0.0
H1605 H 0.54795 0.51973 0.00574 0.0
H1606 H 0.52361 0.53112 0.99049 0.0
H1607 H 0.48842 0.5235 0.98124 0.0
H1608 H 0.43968 0.46222 0.00059 0.0
H1609 H 0.46402 0.45104 0.01725 0.0
C1610 C 0.50439 0.47442 0.01787 0.0
C1611 C 0.52525 0.4883 0.0166 0.0
C1612 C 0.49035 0.4808 0.00888 0.0
C1613 C 0.53196 0.50876 0.00696 0.0
C1614 C 0.51805 0.51527 0.99814 0.0
C1615 C 0.48314 0.50769 0.98906 0.0
C1616 C 0.46229 0.49368 0.98951 0.0
C1617 C 0.49722 0.50139 0.9987 0.0
C1618 C 0.45565 0.47328 0.99991 0.0
C1619 C 0.46955 0.46688 0.00948 0.0
loop_
_geom_bond_atom_site_label_1
_geom_bond_atom_site_label_2
_geom_bond_distance
_geom_bond_site_symmetry_2
_ccdc_geom_bond_type
In0 O1 2.294 . S
In0 O2 2.326 . S
In0 O6 2.266 . S
In0 O7 2.326 . S
In0 O8 2.266 . S
In0 O9 2.326 . S
In0 O11 2.294 . S
In0 O12 2.326 . S
O1 In0 2.294 . S
O1 C10 1.240 . S
O2 In0 2.326 . S
O2 C10 1.252 . S
C3 O6 1.252 . S
C3 O7 1.260 . S
C4 O11 1.240 . S
C4 O12 1.252 . S
C5 O8 1.252 . S
C5 O9 1.260 . S
O6 In0 2.266 . S
O6 C3 1.252 . S
O7 In0 2.326 . S
O7 C3 1.260 . S
O8 In0 2.266 . S
O8 C5 1.252 . S
O9 In0 2.326 . S
O9 C5 1.260 . S
C10 O1 1.240 . S
C10 O2 1.252 . S
O11 In0 2.294 . S
O11 C4 1.240 . S
O12 In0 2.326 . S
O12 C4 1.252 . S
In13 O14 2.294 . S
In13 O15 2.326 . S
In13 O19 2.266 . S
In13 O20 2.326 . S
In13 O21 2.266 . S
In13 O22 2.326 . S
In13 O24 2.294 . S
In13 O25 2.326 . S
O14 In13 2.294 . S
O14 C23 1.240 . S
O15 In13 2.326 . S
O15 C23 1.252 . S
C16 O19 1.252 . S
C16 O20 1.260 . S
C17 O24 1.240 . S
C17 O25 1.252 . S
C18 O21 1.252 . S
C18 O22 1.260 . S
O19 In13 2.266 . S
O19 C16 1.252 . S
O20 In13 2.326 . S
O20 C16 1.260 . S
O21 In13 2.266 . S
O21 C18 1.252 . S
O22 In13 2.326 . S
O22 C18 1.260 . S
C23 O14 1.240 . S
C23 O15 1.252 . S
O24 In13 2.294 . S
O24 C17 1.240 . S
O25 In13 2.326 . S
O25 C17 1.252 . S
In26 O27 2.294 . S
In26 O28 2.326 . S
In26 O32 2.266 . S
In26 O33 2.326 . S
In26 O34 2.266 . S
In26 O35 2.326 . S
In26 O37 2.294 . S
In26 O38 2.326 . S
O27 In26 2.294 . S
O27 C36 1.240 . S
O28 In26 2.326 . S
O28 C36 1.252 . S
C29 O32 1.252 . S
C29 O33 1.260 . S
C30 O37 1.240 . S
C30 O38 1.252 . S
C31 O34 1.252 . S
C31 O35 1.260 . S
O32 In26 2.266 . S
O32 C29 1.252 . S
O33 In26 2.326 . S
O33 C29 1.260 . S
O34 In26 2.266 . S
O34 C31 1.252 . S
O35 In26 2.326 . S
O35 C31 1.260 . S
C36 O27 1.240 . S
C36 O28 1.252 . S
O37 In26 2.294 . S
O37 C30 1.240 . S
O38 In26 2.326 . S
O38 C30 1.252 . S
In39 O40 2.294 . S
In39 O41 2.326 . S
In39 O45 2.266 . S
In39 O46 2.326 . S
In39 O47 2.266 . S
In39 O48 2.326 . S
In39 O50 2.294 . S
In39 O51 2.326 . S
O40 In39 2.294 . S
O40 C49 1.240 . S
O41 In39 2.326 . S
O41 C49 1.252 . S
C42 O45 1.252 . S
C42 O46 1.260 . S
C43 O50 1.240 . S
C43 O51 1.252 . S
C44 O47 1.252 . S
C44 O48 1.260 . S
O45 In39 2.266 . S
O45 C42 1.252 . S
O46 In39 2.326 . S
O46 C42 1.260 . S
O47 In39 2.266 . S
O47 C44 1.252 . S
O48 In39 2.326 . S
O48 C44 1.260 . S
C49 O40 1.240 . S
C49 O41 1.252 . S
O50 In39 2.294 . S
O50 C43 1.240 . S
O51 In39 2.326 . S
O51 C43 1.252 . S
In52 O53 2.294 . S
In52 O54 2.326 . S
In52 O58 2.266 . S
In52 O59 2.326 . S
In52 O60 2.266 . S
In52 O61 2.326 . S
In52 O63 2.294 . S
In52 O64 2.326 . S
O53 In52 2.294 . S
O53 C62 1.240 . S
O54 In52 2.326 . S
O54 C62 1.252 . S
C55 O58 1.252 . S
C55 O59 1.260 . S
C56 O63 1.240 . S
C56 O64 1.252 . S
C57 O60 1.252 . S
C57 O61 1.260 . S
O58 In52 2.266 . S
O58 C55 1.252 . S
O59 In52 2.326 . S
O59 C55 1.260 . S
O60 In52 2.266 . S
O60 C57 1.252 . S
O61 In52 2.326 . S
O61 C57 1.260 . S
C62 O53 1.240 . S
C62 O54 1.252 . S
O63 In52 2.294 . S
O63 C56 1.240 . S
O64 In52 2.326 . S
O64 C56 1.252 . S
In65 O66 2.294 . S
In65 O67 2.326 . S
In65 O71 2.266 . S
In65 O72 2.326 . S
In65 O73 2.266 . S
In65 O74 2.326 . S
In65 O76 2.294 . S
In65 O77 2.326 . S
O66 In65 2.294 . S
O66 C75 1.240 . S
O67 In65 2.326 . S
O67 C75 1.252 . S
C68 O71 1.252 . S
C68 O72 1.260 . S
C69 O76 1.240 . S
C69 O77 1.252 . S
C70 O73 1.252 . S
C70 O74 1.260 . S
O71 In65 2.266 . S
O71 C68 1.252 . S
O72 In65 2.326 . S
O72 C68 1.260 . S
O73 In65 2.266 . S
O73 C70 1.252 . S
O74 In65 2.326 . S
O74 C70 1.260 . S
C75 O66 1.240 . S
C75 O67 1.252 . S
O76 In65 2.294 . S
O76 C69 1.240 . S
O77 In65 2.326 . S
O77 C69 1.252 . S
In78 O79 2.294 . S
In78 O80 2.326 . S
In78 O84 2.266 . S
In78 O85 2.326 . S
In78 O86 2.266 . S
In78 O87 2.326 . S
In78 O89 2.294 . S
In78 O90 2.326 . S
O79 In78 2.294 . S
O79 C88 1.240 . S
O80 In78 2.326 . S
O80 C88 1.252 . S
C81 O84 1.252 . S
C81 O85 1.260 . S
C82 O89 1.240 . S
C82 O90 1.252 . S
C83 O86 1.252 . S
C83 O87 1.260 . S
O84 In78 2.266 . S
O84 C81 1.252 . S
O85 In78 2.326 . S
O85 C81 1.260 . S
O86 In78 2.266 . S
O86 C83 1.252 . S
O87 In78 2.326 . S
O87 C83 1.260 . S
C88 O79 1.240 . S
C88 O80 1.252 . S
O89 In78 2.294 . S
O89 C82 1.240 . S
O90 In78 2.326 . S
O90 C82 1.252 . S
In91 O92 2.294 . S
In91 O93 2.326 . S
In91 O97 2.266 . S
In91 O98 2.326 . S
In91 O99 2.266 . S
In91 O100 2.326 . S
In91 O102 2.294 . S
In91 O103 2.326 . S
O92 In91 2.294 . S
O92 C101 1.240 . S
O93 In91 2.326 . S
O93 C101 1.252 . S
C94 O97 1.252 . S
C94 O98 1.260 . S
C95 O102 1.240 . S
C95 O103 1.252 . S
C96 O99 1.252 . S
C96 O100 1.260 . S
O97 In91 2.266 . S
O97 C94 1.252 . S
O98 In91 2.326 . S
O98 C94 1.260 . S
O99 In91 2.266 . S
O99 C96 1.252 . S
O100 In91 2.326 . S
O100 C96 1.260 . S
C101 O92 1.240 . S
C101 O93 1.252 . S
O102 In91 2.294 . S
O102 C95 1.240 . S
O103 In91 2.326 . S
O103 C95 1.252 . S
In104 O105 2.294 . S
In104 O106 2.326 . S
In104 O110 2.266 . S
In104 O111 2.326 . S
In104 O112 2.266 . S
In104 O113 2.326 . S
In104 O115 2.294 . S
In104 O116 2.326 . S
O105 In104 2.294 . S
O105 C114 1.240 . S
O106 In104 2.326 . S
O106 C114 1.252 . S
C107 O110 1.252 . S
C107 O111 1.260 . S
C108 O115 1.240 . S
C108 O116 1.252 . S
C109 O112 1.252 . S
C109 O113 1.260 . S
O110 In104 2.266 . S
O110 C107 1.252 . S
O111 In104 2.326 . S
O111 C107 1.260 . S
O112 In104 2.266 . S
O112 C109 1.252 . S
O113 In104 2.326 . S
O113 C109 1.260 . S
C114 O105 1.240 . S
C114 O106 1.252 . S
O115 In104 2.294 . S
O115 C108 1.240 . S
O116 In104 2.326 . S
O116 C108 1.252 . S
In117 O118 2.294 . S
In117 O119 2.326 . S
In117 O123 2.266 . S
In117 O124 2.326 . S
In117 O125 2.266 . S
In117 O126 2.326 . S
In117 O128 2.294 . S
In117 O129 2.326 . S
O118 In117 2.294 . S
O118 C127 1.240 . S
O119 In117 2.326 . S
O119 C127 1.252 . S
C120 O123 1.252 . S
C120 O124 1.260 . S
C121 O128 1.240 . S
C121 O129 1.252 . S
C122 O125 1.252 . S
C122 O126 1.260 . S
O123 In117 2.266 . S
O123 C120 1.252 . S
O124 In117 2.326 . S
O124 C120 1.260 . S
O125 In117 2.266 . S
O125 C122 1.252 . S
O126 In117 2.326 . S
O126 C122 1.260 . S
C127 O118 1.240 . S
C127 O119 1.252 . S
O128 In117 2.294 . S
O128 C121 1.240 . S
O129 In117 2.326 . S
O129 C121 1.252 . S
In130 O131 2.294 . S
In130 O132 2.326 . S
In130 O136 2.266 . S
In130 O137 2.326 . S
In130 O138 2.266 . S
In130 O139 2.326 . S
In130 O141 2.294 . S
In130 O142 2.326 . S
O131 In130 2.294 . S
O131 C140 1.240 . S
O132 In130 2.326 . S
O132 C140 1.252 . S
C133 O136 1.252 . S
C133 O137 1.260 . S
C134 O141 1.240 . S
C134 O142 1.252 . S
C135 O138 1.252 . S
C135 O139 1.260 . S
O136 In130 2.266 . S
O136 C133 1.252 . S
O137 In130 2.326 . S
O137 C133 1.260 . S
O138 In130 2.266 . S
O138 C135 1.252 . S
O139 In130 2.326 . S
O139 C135 1.260 . S
C140 O131 1.240 . S
C140 O132 1.252 . S
O141 In130 2.294 . S
O141 C134 1.240 . S
O142 In130 2.326 . S
O142 C134 1.252 . S
In143 O144 2.294 . S
In143 O145 2.326 . S
In143 O149 2.266 . S
In143 O150 2.326 . S
In143 O151 2.266 . S
In143 O152 2.326 . S
In143 O154 2.294 . S
In143 O155 2.326 . S
O144 In143 2.294 . S
O144 C153 1.240 . S
O145 In143 2.326 . S
O145 C153 1.252 . S
C146 O149 1.252 . S
C146 O150 1.260 . S
C147 O154 1.240 . S
C147 O155 1.252 . S
C148 O151 1.252 . S
C148 O152 1.260 . S
O149 In143 2.266 . S
O149 C146 1.252 . S
O150 In143 2.326 . S
O150 C146 1.260 . S
O151 In143 2.266 . S
O151 C148 1.252 . S
O152 In143 2.326 . S
O152 C148 1.260 . S
C153 O144 1.240 . S
C153 O145 1.252 . S
O154 In143 2.294 . S
O154 C147 1.240 . S
O155 In143 2.326 . S
O155 C147 1.252 . S
In156 O157 2.294 . S
In156 O158 2.326 . S
In156 O162 2.266 . S
In156 O163 2.326 . S
In156 O164 2.266 . S
In156 O165 2.326 . S
In156 O167 2.294 . S
In156 O168 2.326 . S
O157 In156 2.294 . S
O157 C166 1.240 . S
O158 In156 2.326 . S
O158 C166 1.252 . S
C159 O162 1.252 . S
C159 O163 1.260 . S
C160 O167 1.240 . S
C160 O168 1.252 . S
C161 O164 1.252 . S
C161 O165 1.260 . S
O162 In156 2.266 . S
O162 C159 1.252 . S
O163 In156 2.326 . S
O163 C159 1.260 . S
O164 In156 2.266 . S
O164 C161 1.252 . S
O165 In156 2.326 . S
O165 C161 1.260 . S
C166 O157 1.240 . S
C166 O158 1.252 . S
O167 In156 2.294 . S
O167 C160 1.240 . S
O168 In156 2.326 . S
O168 C160 1.252 . S
In169 O170 2.294 . S
In169 O171 2.326 . S
In169 O175 2.266 . S
In169 O176 2.326 . S
In169 O177 2.266 . S
In169 O178 2.326 . S
In169 O180 2.294 . S
In169 O181 2.326 . S
O170 In169 2.294 . S
O170 C179 1.240 . S
O171 In169 2.326 . S
O171 C179 1.252 . S
C172 O175 1.252 . S
C172 O176 1.260 . S
C173 O180 1.240 . S
C173 O181 1.252 . S
C174 O177 1.252 . S
C174 O178 1.260 . S
O175 In169 2.266 . S
O175 C172 1.252 . S
O176 In169 2.326 . S
O176 C172 1.260 . S
O177 In169 2.266 . S
O177 C174 1.252 . S
O178 In169 2.326 . S
O178 C174 1.260 . S
C179 O170 1.240 . S
C179 O171 1.252 . S
O180 In169 2.294 . S
O180 C173 1.240 . S
O181 In169 2.326 . S
O181 C173 1.252 . S
In182 O183 2.294 . S
In182 O184 2.326 . S
In182 O188 2.266 . S
In182 O189 2.326 . S
In182 O190 2.266 . S
In182 O191 2.326 . S
In182 O193 2.294 . S
In182 O194 2.326 . S
O183 In182 2.294 . S
O183 C192 1.240 . S
O184 In182 2.326 . S
O184 C192 1.252 . S
C185 O188 1.252 . S
C185 O189 1.260 . S
C186 O193 1.240 . S
C186 O194 1.252 . S
C187 O190 1.252 . S
C187 O191 1.260 . S
O188 In182 2.266 . S
O188 C185 1.252 . S
O189 In182 2.326 . S
O189 C185 1.260 . S
O190 In182 2.266 . S
O190 C187 1.252 . S
O191 In182 2.326 . S
O191 C187 1.260 . S
C192 O183 1.240 . S
C192 O184 1.252 . S
O193 In182 2.294 . S
O193 C186 1.240 . S
O194 In182 2.326 . S
O194 C186 1.252 . S
In195 O196 2.294 . S
In195 O197 2.326 . S
In195 O201 2.266 . S
In195 O202 2.326 . S
In195 O203 2.266 . S
In195 O204 2.326 . S
In195 O206 2.294 . S
In195 O207 2.326 . S
O196 In195 2.294 . S
O196 C205 1.240 . S
O197 In195 2.326 . S
O197 C205 1.252 . S
C198 O201 1.252 . S
C198 O202 1.260 . S
C199 O206 1.240 . S
C199 O207 1.252 . S
C200 O203 1.252 . S
C200 O204 1.260 . S
O201 In195 2.266 . S
O201 C198 1.252 . S
O202 In195 2.326 . S
O202 C198 1.260 . S
O203 In195 2.266 . S
O203 C200 1.252 . S
O204 In195 2.326 . S
O204 C200 1.260 . S
C205 O196 1.240 . S
C205 O197 1.252 . S
O206 In195 2.294 . S
O206 C199 1.240 . S
O207 In195 2.326 . S
O207 C199 1.252 . S
In208 O209 2.294 . S
In208 O210 2.326 . S
In208 O214 2.266 . S
In208 O215 2.326 . S
In208 O216 2.266 . S
In208 O217 2.326 . S
In208 O219 2.294 . S
In208 O220 2.326 . S
O209 In208 2.294 . S
O209 C218 1.240 . S
O210 In208 2.326 . S
O210 C218 1.252 . S
C211 O214 1.252 . S
C211 O215 1.260 . S
C212 O219 1.240 . S
C212 O220 1.252 . S
C213 O216 1.252 . S
C213 O217 1.260 . S
O214 In208 2.266 . S
O214 C211 1.252 . S
O215 In208 2.326 . S
O215 C211 1.260 . S
O216 In208 2.266 . S
O216 C213 1.252 . S
O217 In208 2.326 . S
O217 C213 1.260 . S
C218 O209 1.240 . S
C218 O210 1.252 . S
O219 In208 2.294 . S
O219 C212 1.240 . S
O220 In208 2.326 . S
O220 C212 1.252 . S
In221 O222 2.294 . S
In221 O223 2.326 . S
In221 O227 2.266 . S
In221 O228 2.326 . S
In221 O229 2.266 . S
In221 O230 2.326 . S
In221 O232 2.294 . S
In221 O233 2.326 . S
O222 In221 2.294 . S
O222 C231 1.240 . S
O223 In221 2.326 . S
O223 C231 1.252 . S
C224 O227 1.252 . S
C224 O228 1.260 . S
C225 O232 1.240 . S
C225 O233 1.252 . S
C226 O229 1.252 . S
C226 O230 1.260 . S
O227 In221 2.266 . S
O227 C224 1.252 . S
O228 In221 2.326 . S
O228 C224 1.260 . S
O229 In221 2.266 . S
O229 C226 1.252 . S
O230 In221 2.326 . S
O230 C226 1.260 . S
C231 O222 1.240 . S
C231 O223 1.252 . S
O232 In221 2.294 . S
O232 C225 1.240 . S
O233 In221 2.326 . S
O233 C225 1.252 . S
In234 O235 2.294 . S
In234 O236 2.326 . S
In234 O240 2.266 . S
In234 O241 2.326 . S
In234 O242 2.266 . S
In234 O243 2.326 . S
In234 O245 2.294 . S
In234 O246 2.326 . S
O235 In234 2.294 . S
O235 C244 1.240 . S
O236 In234 2.326 . S
O236 C244 1.252 . S
C237 O240 1.252 . S
C237 O241 1.260 . S
C238 O245 1.240 . S
C238 O246 1.252 . S
C239 O242 1.252 . S
C239 O243 1.260 . S
O240 In234 2.266 . S
O240 C237 1.252 . S
O241 In234 2.326 . S
O241 C237 1.260 . S
O242 In234 2.266 . S
O242 C239 1.252 . S
O243 In234 2.326 . S
O243 C239 1.260 . S
C244 O235 1.240 . S
C244 O236 1.252 . S
O245 In234 2.294 . S
O245 C238 1.240 . S
O246 In234 2.326 . S
O246 C238 1.252 . S
In247 O248 2.294 . S
In247 O249 2.326 . S
In247 O253 2.266 . S
In247 O254 2.326 . S
In247 O255 2.266 . S
In247 O256 2.326 . S
In247 O258 2.294 . S
In247 O259 2.326 . S
O248 In247 2.294 . S
O248 C257 1.240 . S
O249 In247 2.326 . S
O249 C257 1.252 . S
C250 O253 1.252 . S
C250 O254 1.260 . S
C251 O258 1.240 . S
C251 O259 1.252 . S
C252 O255 1.252 . S
C252 O256 1.260 . S
O253 In247 2.266 . S
O253 C250 1.252 . S
O254 In247 2.326 . S
O254 C250 1.260 . S
O255 In247 2.266 . S
O255 C252 1.252 . S
O256 In247 2.326 . S
O256 C252 1.260 . S
C257 O248 1.240 . S
C257 O249 1.252 . S
O258 In247 2.294 . S
O258 C251 1.240 . S
O259 In247 2.326 . S
O259 C251 1.252 . S
In260 O261 2.294 . S
In260 O262 2.326 . S
In260 O266 2.266 . S
In260 O267 2.326 . S
In260 O268 2.266 . S
In260 O269 2.326 . S
In260 O271 2.294 . S
In260 O272 2.326 . S
O261 In260 2.294 . S
O261 C270 1.240 . S
O262 In260 2.326 . S
O262 C270 1.252 . S
C263 O266 1.252 . S
C263 O267 1.260 . S
C264 O271 1.240 . S
C264 O272 1.252 . S
C265 O268 1.252 . S
C265 O269 1.260 . S
O266 In260 2.266 . S
O266 C263 1.252 . S
O267 In260 2.326 . S
O267 C263 1.260 . S
O268 In260 2.266 . S
O268 C265 1.252 . S
O269 In260 2.326 . S
O269 C265 1.260 . S
C270 O261 1.240 . S
C270 O262 1.252 . S
O271 In260 2.294 . S
O271 C264 1.240 . S
O272 In260 2.326 . S
O272 C264 1.252 . S
In273 O274 2.294 . S
In273 O275 2.326 . S
In273 O279 2.266 . S
In273 O280 2.326 . S
In273 O281 2.266 1_554 S
In273 O282 2.326 1_554 S
In273 O284 2.294 . S
In273 O285 2.326 . S
O274 In273 2.294 . S
O274 C283 1.240 . S
O275 In273 2.326 . S
O275 C283 1.252 . S
C276 O279 1.252 . S
C276 O280 1.260 . S
C277 O284 1.240 . S
C277 O285 1.252 . S
C278 O281 1.252 . S
C278 O282 1.260 . S
O279 In273 2.266 . S
O279 C276 1.252 . S
O280 In273 2.326 . S
O280 C276 1.260 . S
O281 In273 2.266 1_556 S
O281 C278 1.252 . S
O282 In273 2.326 1_556 S
O282 C278 1.260 . S
C283 O274 1.240 . S
C283 O275 1.252 . S
O284 In273 2.294 . S
O284 C277 1.240 . S
O285 In273 2.326 . S
O285 C277 1.252 . S
In286 O287 2.294 . S
In286 O288 2.326 . S
In286 O292 2.266 1_554 S
In286 O293 2.326 1_554 S
In286 O294 2.266 . S
In286 O295 2.326 . S
In286 O297 2.294 . S
In286 O298 2.326 . S
O287 In286 2.294 . S
O287 C296 1.240 . S
O288 In286 2.326 . S
O288 C296 1.252 . S
C289 O292 1.252 . S
C289 O293 1.260 . S
C290 O297 1.240 . S
C290 O298 1.252 . S
C291 O294 1.252 . S
C291 O295 1.260 . S
O292 In286 2.266 1_556 S
O292 C289 1.252 . S
O293 In286 2.326 1_556 S
O293 C289 1.260 . S
O294 In286 2.266 . S
O294 C291 1.252 . S
O295 In286 2.326 . S
O295 C291 1.260 . S
C296 O287 1.240 . S
C296 O288 1.252 . S
O297 In286 2.294 . S
O297 C290 1.240 . S
O298 In286 2.326 . S
O298 C290 1.252 . S
In299 O300 2.294 . S
In299 O301 2.326 . S
In299 O305 2.266 . S
In299 O306 2.326 . S
In299 O307 2.266 1_554 S
In299 O308 2.326 1_554 S
In299 O310 2.294 . S
In299 O311 2.326 . S
O300 In299 2.294 . S
O300 C309 1.240 . S
O301 In299 2.326 . S
O301 C309 1.252 . S
C302 O305 1.252 . S
C302 O306 1.260 . S
C303 O310 1.240 . S
C303 O311 1.252 . S
C304 O307 1.252 . S
C304 O308 1.260 . S
O305 In299 2.266 . S
O305 C302 1.252 . S
O306 In299 2.326 . S
O306 C302 1.260 . S
O307 In299 2.266 1_556 S
O307 C304 1.252 . S
O308 In299 2.326 1_556 S
O308 C304 1.260 . S
C309 O300 1.240 . S
C309 O301 1.252 . S
O310 In299 2.294 . S
O310 C303 1.240 . S
O311 In299 2.326 . S
O311 C303 1.252 . S
In312 O313 2.294 . S
In312 O314 2.326 . S
In312 O318 2.266 . S
In312 O319 2.326 . S
In312 O320 2.266 . S
In312 O321 2.326 . S
In312 O323 2.294 . S
In312 O324 2.326 . S
O313 In312 2.294 . S
O313 C322 1.240 . S
O314 In312 2.326 . S
O314 C322 1.252 . S
C315 O318 1.252 . S
C315 O319 1.260 . S
C316 O323 1.240 . S
C316 O324 1.252 . S
C317 O320 1.252 . S
C317 O321 1.260 . S
O318 In312 2.266 . S
O318 C315 1.252 . S
O319 In312 2.326 . S
O319 C315 1.260 . S
O320 In312 2.266 . S
O320 C317 1.252 . S
O321 In312 2.326 . S
O321 C317 1.260 . S
C322 O313 1.240 . S
C322 O314 1.252 . S
O323 In312 2.294 . S
O323 C316 1.240 . S
O324 In312 2.326 . S
O324 C316 1.252 . S
In325 O326 2.294 . S
In325 O327 2.326 . S
In325 O331 2.266 . S
In325 O332 2.326 . S
In325 O333 2.266 . S
In325 O334 2.326 . S
In325 O336 2.294 . S
In325 O337 2.326 . S
O326 In325 2.294 . S
O326 C335 1.240 . S
O327 In325 2.326 . S
O327 C335 1.252 . S
C328 O331 1.252 . S
C328 O332 1.260 . S
C329 O336 1.240 . S
C329 O337 1.252 . S
C330 O333 1.252 . S
C330 O334 1.260 . S
O331 In325 2.266 . S
O331 C328 1.252 . S
O332 In325 2.326 . S
O332 C328 1.260 . S
O333 In325 2.266 . S
O333 C330 1.252 . S
O334 In325 2.326 . S
O334 C330 1.260 . S
C335 O326 1.240 . S
C335 O327 1.252 . S
O336 In325 2.294 . S
O336 C329 1.240 . S
O337 In325 2.326 . S
O337 C329 1.252 . S
In338 O339 2.294 . S
In338 O340 2.326 . S
In338 O344 2.266 . S
In338 O345 2.326 . S
In338 O346 2.266 . S
In338 O347 2.326 . S
In338 O349 2.294 . S
In338 O350 2.326 . S
O339 In338 2.294 . S
O339 C348 1.240 . S
O340 In338 2.326 . S
O340 C348 1.252 . S
C341 O344 1.252 . S
C341 O345 1.260 . S
C342 O349 1.240 . S
C342 O350 1.252 . S
C343 O346 1.252 . S
C343 O347 1.260 . S
O344 In338 2.266 . S
O344 C341 1.252 . S
O345 In338 2.326 . S
O345 C341 1.260 . S
O346 In338 2.266 . S
O346 C343 1.252 . S
O347 In338 2.326 . S
O347 C343 1.260 . S
C348 O339 1.240 . S
C348 O340 1.252 . S
O349 In338 2.294 . S
O349 C342 1.240 . S
O350 In338 2.326 . S
O350 C342 1.252 . S
In351 O352 2.294 . S
In351 O353 2.326 . S
In351 O357 2.266 . S
In351 O358 2.326 . S
In351 O359 2.266 1_556 S
In351 O360 2.326 1_556 S
In351 O362 2.294 . S
In351 O363 2.326 . S
O352 In351 2.294 . S
O352 C361 1.240 . S
O353 In351 2.326 . S
O353 C361 1.252 . S
C354 O357 1.252 . S
C354 O358 1.260 . S
C355 O362 1.240 . S
C355 O363 1.252 . S
C356 O359 1.252 . S
C356 O360 1.260 . S
O357 In351 2.266 . S
O357 C354 1.252 . S
O358 In351 2.326 . S
O358 C354 1.260 . S
O359 In351 2.266 1_554 S
O359 C356 1.252 . S
O360 In351 2.326 1_554 S
O360 C356 1.260 . S
C361 O352 1.240 . S
C361 O353 1.252 . S
O362 In351 2.294 . S
O362 C355 1.240 . S
O363 In351 2.326 . S
O363 C355 1.252 . S
In364 O365 2.294 . S
In364 O366 2.326 . S
In364 O370 2.266 1_556 S
In364 O371 2.326 1_556 S
In364 O372 2.266 . S
In364 O373 2.326 . S
In364 O375 2.294 . S
In364 O376 2.326 . S
O365 In364 2.294 . S
O365 C374 1.240 . S
O366 In364 2.326 . S
O366 C374 1.252 . S
C367 O370 1.252 . S
C367 O371 1.260 . S
C368 O375 1.240 . S
C368 O376 1.252 . S
C369 O372 1.252 . S
C369 O373 1.260 . S
O370 In364 2.266 1_554 S
O370 C367 1.252 . S
O371 In364 2.326 1_554 S
O371 C367 1.260 . S
O372 In364 2.266 . S
O372 C369 1.252 . S
O373 In364 2.326 . S
O373 C369 1.260 . S
C374 O365 1.240 . S
C374 O366 1.252 . S
O375 In364 2.294 . S
O375 C368 1.240 . S
O376 In364 2.326 . S
O376 C368 1.252 . S
In377 O378 2.294 . S
In377 O379 2.326 . S
In377 O383 2.266 . S
In377 O384 2.326 . S
In377 O385 2.266 1_556 S
In377 O386 2.326 1_556 S
In377 O388 2.294 . S
In377 O389 2.326 . S
O378 In377 2.294 . S
O378 C387 1.240 . S
O379 In377 2.326 . S
O379 C387 1.252 . S
C380 O383 1.252 . S
C380 O384 1.260 . S
C381 O388 1.240 . S
C381 O389 1.252 . S
C382 O385 1.252 . S
C382 O386 1.260 . S
O383 In377 2.266 . S
O383 C380 1.252 . S
O384 In377 2.326 . S
O384 C380 1.260 . S
O385 In377 2.266 1_554 S
O385 C382 1.252 . S
O386 In377 2.326 1_554 S
O386 C382 1.260 . S
C387 O378 1.240 . S
C387 O379 1.252 . S
O388 In377 2.294 . S
O388 C381 1.240 . S
O389 In377 2.326 . S
O389 C381 1.252 . S
In390 O391 2.294 . S
In390 O392 2.326 . S
In390 O396 2.266 . S
In390 O397 2.326 . S
In390 O398 2.266 . S
In390 O399 2.326 . S
In390 O401 2.294 . S
In390 O402 2.326 . S
O391 In390 2.294 . S
O391 C400 1.240 . S
O392 In390 2.326 . S
O392 C400 1.252 . S
C393 O396 1.252 . S
C393 O397 1.260 . S
C394 O401 1.240 . S
C394 O402 1.252 . S
C395 O398 1.252 . S
C395 O399 1.260 . S
O396 In390 2.266 . S
O396 C393 1.252 . S
O397 In390 2.326 . S
O397 C393 1.260 . S
O398 In390 2.266 . S
O398 C395 1.252 . S
O399 In390 2.326 . S
O399 C395 1.260 . S
C400 O391 1.240 . S
C400 O392 1.252 . S
O401 In390 2.294 . S
O401 C394 1.240 . S
O402 In390 2.326 . S
O402 C394 1.252 . S
In403 O404 2.294 . S
In403 O405 2.326 . S
In403 O409 2.266 . S
In403 O410 2.326 . S
In403 O411 2.266 . S
In403 O412 2.326 . S
In403 O414 2.294 . S
In403 O415 2.326 . S
O404 In403 2.294 . S
O404 C413 1.240 . S
O405 In403 2.326 . S
O405 C413 1.252 . S
C406 O409 1.252 . S
C406 O410 1.260 . S
C407 O414 1.240 . S
C407 O415 1.252 . S
C408 O411 1.252 . S
C408 O412 1.260 . S
O409 In403 2.266 . S
O409 C406 1.252 . S
O410 In403 2.326 . S
O410 C406 1.260 . S
O411 In403 2.266 . S
O411 C408 1.252 . S
O412 In403 2.326 . S
O412 C408 1.260 . S
C413 O404 1.240 . S
C413 O405 1.252 . S
O414 In403 2.294 . S
O414 C407 1.240 . S
O415 In403 2.326 . S
O415 C407 1.252 . S
In416 O417 2.294 . S
In416 O418 2.326 . S
In416 O422 2.266 . S
In416 O423 2.326 . S
In416 O424 2.266 . S
In416 O425 2.326 . S
In416 O427 2.294 . S
In416 O428 2.326 . S
O417 In416 2.294 . S
O417 C426 1.240 . S
O418 In416 2.326 . S
O418 C426 1.252 . S
C419 O422 1.252 . S
C419 O423 1.260 . S
C420 O427 1.240 . S
C420 O428 1.252 . S
C421 O424 1.252 . S
C421 O425 1.260 . S
O422 In416 2.266 . S
O422 C419 1.252 . S
O423 In416 2.326 . S
O423 C419 1.260 . S
O424 In416 2.266 . S
O424 C421 1.252 . S
O425 In416 2.326 . S
O425 C421 1.260 . S
C426 O417 1.240 . S
C426 O418 1.252 . S
O427 In416 2.294 . S
O427 C420 1.240 . S
O428 In416 2.326 . S
O428 C420 1.252 . S
In429 O430 2.294 . S
In429 O431 2.326 . S
In429 O435 2.266 . S
In429 O436 2.326 . S
In429 O437 2.266 . S
In429 O438 2.326 . S
In429 O440 2.294 . S
In429 O441 2.326 . S
O430 In429 2.294 . S
O430 C439 1.240 . S
O431 In429 2.326 . S
O431 C439 1.252 . S
C432 O435 1.252 . S
C432 O436 1.260 . S
C433 O440 1.240 . S
C433 O441 1.252 . S
C434 O437 1.252 . S
C434 O438 1.260 . S
O435 In429 2.266 . S
O435 C432 1.252 . S
O436 In429 2.326 . S
O436 C432 1.260 . S
O437 In429 2.266 . S
O437 C434 1.252 . S
O438 In429 2.326 . S
O438 C434 1.260 . S
C439 O430 1.240 . S
C439 O431 1.252 . S
O440 In429 2.294 . S
O440 C433 1.240 . S
O441 In429 2.326 . S
O441 C433 1.252 . S
In442 O443 2.294 . S
In442 O444 2.326 . S
In442 O448 2.266 . S
In442 O449 2.326 . S
In442 O450 2.266 . S
In442 O451 2.326 . S
In442 O453 2.294 . S
In442 O454 2.326 . S
O443 In442 2.294 . S
O443 C452 1.240 . S
O444 In442 2.326 . S
O444 C452 1.252 . S
C445 O448 1.252 . S
C445 O449 1.260 . S
C446 O453 1.240 . S
C446 O454 1.252 . S
C447 O450 1.252 . S
C447 O451 1.260 . S
O448 In442 2.266 . S
O448 C445 1.252 . S
O449 In442 2.326 . S
O449 C445 1.260 . S
O450 In442 2.266 . S
O450 C447 1.252 . S
O451 In442 2.326 . S
O451 C447 1.260 . S
C452 O443 1.240 . S
C452 O444 1.252 . S
O453 In442 2.294 . S
O453 C446 1.240 . S
O454 In442 2.326 . S
O454 C446 1.252 . S
In455 O456 2.294 . S
In455 O457 2.326 . S
In455 O461 2.266 . S
In455 O462 2.326 . S
In455 O463 2.266 . S
In455 O464 2.326 . S
In455 O466 2.294 . S
In455 O467 2.326 . S
O456 In455 2.294 . S
O456 C465 1.240 . S
O457 In455 2.326 . S
O457 C465 1.252 . S
C458 O461 1.252 . S
C458 O462 1.260 . S
C459 O466 1.240 . S
C459 O467 1.252 . S
C460 O463 1.252 . S
C460 O464 1.260 . S
O461 In455 2.266 . S
O461 C458 1.252 . S
O462 In455 2.326 . S
O462 C458 1.260 . S
O463 In455 2.266 . S
O463 C460 1.252 . S
O464 In455 2.326 . S
O464 C460 1.260 . S
C465 O456 1.240 . S
C465 O457 1.252 . S
O466 In455 2.294 . S
O466 C459 1.240 . S
O467 In455 2.326 . S
O467 C459 1.252 . S
H468 C474 0.930 . S
H469 C477 0.930 . S
H470 C478 0.930 . S
H471 C479 0.930 . S
H472 C482 0.930 . S
H473 C483 0.930 . S
C474 H468 0.930 . S
C474 C475 1.355 . S
C474 C476 1.415 . S
C475 C474 1.355 . S
C475 C477 1.419 . S
C476 C474 1.415 . S
C476 C481 1.425 . S
C476 C483 1.409 . S
C477 H469 0.930 . S
C477 C475 1.419 . S
C477 C478 1.362 . S
C478 H470 0.930 . S
C478 C477 1.362 . S
C478 C481 1.409 . S
C479 H471 0.930 . S
C479 C480 1.355 . S
C479 C481 1.415 1_554 S
C480 C479 1.355 . S
C480 C482 1.419 . S
C481 C476 1.425 . S
C481 C478 1.409 . S
C481 C479 1.415 1_556 S
C482 H472 0.930 . S
C482 C480 1.419 . S
C482 C483 1.362 1_554 S
C483 H473 0.930 . S
C483 C476 1.409 . S
C483 C482 1.362 1_556 S
H484 C490 0.930 . S
H485 C493 0.930 . S
H486 C494 0.930 . S
H487 C495 0.930 . S
H488 C498 0.930 . S
H489 C499 0.930 . S
C490 H484 0.930 . S
C490 C491 1.355 . S
C490 C492 1.415 . S
C491 C490 1.355 . S
C491 C493 1.419 . S
C492 C490 1.415 . S
C492 C497 1.425 . S
C492 C499 1.409 . S
C493 H485 0.930 . S
C493 C491 1.419 . S
C493 C494 1.362 . S
C494 H486 0.930 . S
C494 C493 1.362 . S
C494 C497 1.409 . S
C495 H487 0.930 . S
C495 C496 1.355 . S
C495 C497 1.415 1_554 S
C496 C495 1.355 . S
C496 C498 1.419 . S
C497 C492 1.425 . S
C497 C494 1.409 . S
C497 C495 1.415 1_556 S
C498 H488 0.930 . S
C498 C496 1.419 . S
C498 C499 1.362 1_554 S
C499 H489 0.930 . S
C499 C492 1.409 . S
C499 C498 1.362 1_556 S
H500 C506 0.930 . S
H501 C509 0.930 . S
H502 C510 0.930 . S
H503 C511 0.930 . S
H504 C514 0.930 . S
H505 C515 0.930 . S
C506 H500 0.930 . S
C506 C507 1.355 . S
C506 C508 1.415 1_554 S
C507 C506 1.355 . S
C507 C509 1.419 . S
C508 C506 1.415 1_556 S
C508 C513 1.425 . S
C508 C515 1.409 . S
C509 H501 0.930 . S
C509 C507 1.419 . S
C509 C510 1.362 1_554 S
C510 H502 0.930 . S
C510 C509 1.362 1_556 S
C510 C513 1.409 . S
C511 H503 0.930 . S
C511 C512 1.355 . S
C511 C513 1.415 . S
C512 C511 1.355 . S
C512 C514 1.419 . S
C513 C508 1.425 . S
C513 C510 1.409 . S
C513 C511 1.415 . S
C514 H504 0.930 . S
C514 C512 1.419 . S
C514 C515 1.362 . S
C515 H505 0.930 . S
C515 C508 1.409 . S
C515 C514 1.362 . S
H516 C522 0.930 . S
H517 C525 0.930 . S
H518 C526 0.930 . S
H519 C527 0.930 . S
H520 C530 0.930 . S
H521 C531 0.930 . S
C522 H516 0.930 . S
C522 C523 1.355 . S
C522 C524 1.415 . S
C523 C522 1.355 . S
C523 C525 1.419 . S
C524 C522 1.415 . S
C524 C529 1.425 . S
C524 C531 1.409 . S
C525 H517 0.930 . S
C525 C523 1.419 . S
C525 C526 1.362 . S
C526 H518 0.930 . S
C526 C525 1.362 . S
C526 C529 1.409 . S
C527 H519 0.930 . S
C527 C528 1.355 . S
C527 C529 1.415 . S
C528 C527 1.355 . S
C528 C530 1.419 . S
C529 C524 1.425 . S
C529 C526 1.409 . S
C529 C527 1.415 . S
C530 H520 0.930 . S
C530 C528 1.419 . S
C530 C531 1.362 . S
C531 H521 0.930 . S
C531 C524 1.409 . S
C531 C530 1.362 . S
H532 C538 0.930 . S
H533 C541 0.930 . S
H534 C542 0.930 . S
H535 C543 0.930 . S
H536 C546 0.930 . S
H537 C547 0.930 . S
C538 H532 0.930 . S
C538 C539 1.355 . S
C538 C540 1.415 . S
C539 C538 1.355 . S
C539 C541 1.419 . S
C540 C538 1.415 . S
C540 C545 1.425 . S
C540 C547 1.409 . S
C541 H533 0.930 . S
C541 C539 1.419 . S
C541 C542 1.362 . S
C542 H534 0.930 . S
C542 C541 1.362 . S
C542 C545 1.409 . S
C543 H535 0.930 . S
C543 C544 1.355 . S
C543 C545 1.415 . S
C544 C543 1.355 . S
C544 C546 1.419 . S
C545 C540 1.425 . S
C545 C542 1.409 . S
C545 C543 1.415 . S
C546 H536 0.930 . S
C546 C544 1.419 . S
C546 C547 1.362 . S
C547 H537 0.930 . S
C547 C540 1.409 . S
C547 C546 1.362 . S
H548 C554 0.930 . S
H549 C557 0.930 . S
H550 C558 0.930 . S
H551 C559 0.930 . S
H552 C562 0.930 . S
H553 C563 0.930 . S
C554 H548 0.930 . S
C554 C555 1.355 . S
C554 C556 1.415 . S
C555 C554 1.355 . S
C555 C557 1.419 . S
C556 C554 1.415 . S
C556 C561 1.425 . S
C556 C563 1.409 . S
C557 H549 0.930 . S
C557 C555 1.419 . S
C557 C558 1.362 . S
C558 H550 0.930 . S
C558 C557 1.362 . S
C558 C561 1.409 . S
C559 H551 0.930 . S
C559 C560 1.355 . S
C559 C561 1.415 . S
C560 C559 1.355 . S
C560 C562 1.419 . S
C561 C556 1.425 . S
C561 C558 1.409 . S
C561 C559 1.415 . S
C562 H552 0.930 . S
C562 C560 1.419 . S
C562 C563 1.362 . S
C563 H553 0.930 . S
C563 C556 1.409 . S
C563 C562 1.362 . S
H564 C570 0.930 . S
H565 C573 0.930 . S
H566 C574 0.930 . S
H567 C575 0.930 . S
H568 C578 0.930 . S
H569 C579 0.930 . S
C570 H564 0.930 . S
C570 C571 1.355 . S
C570 C572 1.415 . S
C571 C570 1.355 . S
C571 C573 1.419 . S
C572 C570 1.415 . S
C572 C577 1.425 . S
C572 C579 1.409 . S
C573 H565 0.930 . S
C573 C571 1.419 . S
C573 C574 1.362 . S
C574 H566 0.930 . S
C574 C573 1.362 . S
C574 C577 1.409 . S
C575 H567 0.930 . S
C575 C576 1.355 . S
C575 C577 1.415 1_556 S
C576 C575 1.355 . S
C576 C578 1.419 . S
C577 C572 1.425 . S
C577 C574 1.409 . S
C577 C575 1.415 1_554 S
C578 H568 0.930 . S
C578 C576 1.419 . S
C578 C579 1.362 1_556 S
C579 H569 0.930 . S
C579 C572 1.409 . S
C579 C578 1.362 1_554 S
H580 C586 0.930 . S
H581 C589 0.930 . S
H582 C590 0.930 . S
H583 C591 0.930 . S
H584 C594 0.930 . S
H585 C595 0.930 . S
C586 H580 0.930 . S
C586 C587 1.355 . S
C586 C588 1.415 . S
C587 C586 1.355 . S
C587 C589 1.419 . S
C588 C586 1.415 . S
C588 C593 1.425 . S
C588 C595 1.409 . S
C589 H581 0.930 . S
C589 C587 1.419 . S
C589 C590 1.362 . S
C590 H582 0.930 . S
C590 C589 1.362 . S
C590 C593 1.409 . S
C591 H583 0.930 . S
C591 C592 1.355 . S
C591 C593 1.415 1_556 S
C592 C591 1.355 . S
C592 C594 1.419 . S
C593 C588 1.425 . S
C593 C590 1.409 . S
C593 C591 1.415 1_554 S
C594 H584 0.930 . S
C594 C592 1.419 . S
C594 C595 1.362 1_556 S
C595 H585 0.930 . S
C595 C588 1.409 . S
C595 C594 1.362 1_554 S
H596 C602 0.930 . S
H597 C605 0.930 . S
H598 C606 0.930 . S
H599 C607 0.930 . S
H600 C610 0.930 . S
H601 C611 0.930 . S
C602 H596 0.930 . S
C602 C603 1.355 . S
C602 C604 1.415 1_556 S
C603 C602 1.355 . S
C603 C605 1.419 . S
C604 C602 1.415 1_554 S
C604 C609 1.425 . S
C604 C611 1.409 . S
C605 H597 0.930 . S
C605 C603 1.419 . S
C605 C606 1.362 1_556 S
C606 H598 0.930 . S
C606 C605 1.362 1_554 S
C606 C609 1.409 . S
C607 H599 0.930 . S
C607 C608 1.355 . S
C607 C609 1.415 . S
C608 C607 1.355 . S
C608 C610 1.419 . S
C609 C604 1.425 . S
C609 C606 1.409 . S
C609 C607 1.415 . S
C610 H600 0.930 . S
C610 C608 1.419 . S
C610 C611 1.362 . S
C611 H601 0.930 . S
C611 C604 1.409 . S
C611 C610 1.362 . S
H612 C618 0.930 . S
H613 C621 0.930 . S
H614 C622 0.930 . S
H615 C623 0.930 . S
H616 C626 0.930 . S
H617 C627 0.930 . S
C618 H612 0.930 . S
C618 C619 1.355 . S
C618 C620 1.415 . S
C619 C618 1.355 . S
C619 C621 1.419 . S
C620 C618 1.415 . S
C620 C625 1.425 . S
C620 C627 1.409 . S
C621 H613 0.930 . S
C621 C619 1.419 . S
C621 C622 1.362 . S
C622 H614 0.930 . S
C622 C621 1.362 . S
C622 C625 1.409 . S
C623 H615 0.930 . S
C623 C624 1.355 . S
C623 C625 1.415 . S
C624 C623 1.355 . S
C624 C626 1.419 . S
C625 C620 1.425 . S
C625 C622 1.409 . S
C625 C623 1.415 . S
C626 H616 0.930 . S
C626 C624 1.419 . S
C626 C627 1.362 . S
C627 H617 0.930 . S
C627 C620 1.409 . S
C627 C626 1.362 . S
H628 C634 0.930 . S
H629 C637 0.930 . S
H630 C638 0.930 . S
H631 C639 0.930 . S
H632 C642 0.930 . S
H633 C643 0.930 . S
C634 H628 0.930 . S
C634 C635 1.355 . S
C634 C636 1.415 . S
C635 C634 1.355 . S
C635 C637 1.419 . S
C636 C634 1.415 . S
C636 C641 1.425 . S
C636 C643 1.409 . S
C637 H629 0.930 . S
C637 C635 1.419 . S
C637 C638 1.362 . S
C638 H630 0.930 . S
C638 C637 1.362 . S
C638 C641 1.409 . S
C639 H631 0.930 . S
C639 C640 1.355 . S
C639 C641 1.415 . S
C640 C639 1.355 . S
C640 C642 1.419 . S
C641 C636 1.425 . S
C641 C638 1.409 . S
C641 C639 1.415 . S
C642 H632 0.930 . S
C642 C640 1.419 . S
C642 C643 1.362 . S
C643 H633 0.930 . S
C643 C636 1.409 . S
C643 C642 1.362 . S
H644 C650 0.930 . S
H645 C653 0.930 . S
H646 C654 0.930 . S
H647 C655 0.930 . S
H648 C658 0.930 . S
H649 C659 0.930 . S
C650 H644 0.930 . S
C650 C651 1.355 . S
C650 C652 1.415 . S
C651 C650 1.355 . S
C651 C653 1.419 . S
C652 C650 1.415 . S
C652 C657 1.425 . S
C652 C659 1.409 . S
C653 H645 0.930 . S
C653 C651 1.419 . S
C653 C654 1.362 . S
C654 H646 0.930 . S
C654 C653 1.362 . S
C654 C657 1.409 . S
C655 H647 0.930 . S
C655 C656 1.355 . S
C655 C657 1.415 . S
C656 C655 1.355 . S
C656 C658 1.419 . S
C657 C652 1.425 . S
C657 C654 1.409 . S
C657 C655 1.415 . S
C658 H648 0.930 . S
C658 C656 1.419 . S
C658 C659 1.362 . S
C659 H649 0.930 . S
C659 C652 1.409 . S
C659 C658 1.362 . S
H660 C666 0.930 . S
H661 C669 0.930 . S
H662 C670 0.930 . S
H663 C671 0.930 . S
H664 C674 0.930 . S
H665 C675 0.930 . S
C666 H660 0.930 . S
C666 C667 1.355 . S
C666 C668 1.415 . S
C667 C666 1.355 . S
C667 C669 1.419 . S
C668 C666 1.415 . S
C668 C673 1.425 . S
C668 C675 1.409 . S
C669 H661 0.930 . S
C669 C667 1.419 . S
C669 C670 1.362 . S
C670 H662 0.930 . S
C670 C669 1.362 . S
C670 C673 1.409 . S
C671 H663 0.930 . S
C671 C672 1.355 . S
C671 C673 1.415 . S
C672 C671 1.355 . S
C672 C674 1.419 . S
C673 C668 1.425 . S
C673 C670 1.409 . S
C673 C671 1.415 . S
C674 H664 0.930 . S
C674 C672 1.419 . S
C674 C675 1.362 . S
C675 H665 0.930 . S
C675 C668 1.409 . S
C675 C674 1.362 . S
H676 C682 0.930 . S
H677 C685 0.930 . S
H678 C686 0.930 . S
H679 C687 0.930 . S
H680 C690 0.930 . S
H681 C691 0.930 . S
C682 H676 0.930 . S
C682 C683 1.355 . S
C682 C684 1.415 . S
C683 C682 1.355 . S
C683 C685 1.419 . S
C684 C682 1.415 . S
C684 C689 1.425 . S
C684 C691 1.409 . S
C685 H677 0.930 . S
C685 C683 1.419 . S
C685 C686 1.362 . S
C686 H678 0.930 . S
C686 C685 1.362 . S
C686 C689 1.409 . S
C687 H679 0.930 . S
C687 C688 1.355 . S
C687 C689 1.415 . S
C688 C687 1.355 . S
C688 C690 1.419 . S
C689 C684 1.425 . S
C689 C686 1.409 . S
C689 C687 1.415 . S
C690 H680 0.930 . S
C690 C688 1.419 . S
C690 C691 1.362 . S
C691 H681 0.930 . S
C691 C684 1.409 . S
C691 C690 1.362 . S
H692 C698 0.930 . S
H693 C701 0.930 . S
H694 C702 0.930 . S
H695 C703 0.930 . S
H696 C706 0.930 . S
H697 C707 0.930 . S
C698 H692 0.930 . S
C698 C699 1.355 . S
C698 C700 1.415 . S
C699 C698 1.355 . S
C699 C701 1.419 . S
C700 C698 1.415 . S
C700 C705 1.425 . S
C700 C707 1.409 . S
C701 H693 0.930 . S
C701 C699 1.419 . S
C701 C702 1.362 . S
C702 H694 0.930 . S
C702 C701 1.362 . S
C702 C705 1.409 . S
C703 H695 0.930 . S
C703 C704 1.355 . S
C703 C705 1.415 . S
C704 C703 1.355 . S
C704 C706 1.419 . S
C705 C700 1.425 . S
C705 C702 1.409 . S
C705 C703 1.415 . S
C706 H696 0.930 . S
C706 C704 1.419 . S
C706 C707 1.362 . S
C707 H697 0.930 . S
C707 C700 1.409 . S
C707 C706 1.362 . S
H708 C714 0.930 . S
H709 C717 0.930 . S
H710 C718 0.930 . S
H711 C719 0.930 . S
H712 C722 0.930 . S
H713 C723 0.930 . S
C714 H708 0.930 . S
C714 C715 1.355 . S
C714 C716 1.415 . S
C715 C714 1.355 . S
C715 C717 1.419 . S
C716 C714 1.415 . S
C716 C721 1.425 . S
C716 C723 1.409 . S
C717 H709 0.930 . S
C717 C715 1.419 . S
C717 C718 1.362 . S
C718 H710 0.930 . S
C718 C717 1.362 . S
C718 C721 1.409 . S
C719 H711 0.930 . S
C719 C720 1.355 . S
C719 C721 1.415 . S
C720 C719 1.355 . S
C720 C722 1.419 . S
C721 C716 1.425 . S
C721 C718 1.409 . S
C721 C719 1.415 . S
C722 H712 0.930 . S
C722 C720 1.419 . S
C722 C723 1.362 . S
C723 H713 0.930 . S
C723 C716 1.409 . S
C723 C722 1.362 . S
H724 C730 0.930 . S
H725 C733 0.930 . S
H726 C734 0.930 . S
H727 C735 0.930 . S
H728 C738 0.930 . S
H729 C739 0.930 . S
C730 H724 0.930 . S
C730 C731 1.355 . S
C730 C732 1.415 . S
C731 C730 1.355 . S
C731 C733 1.419 . S
C732 C730 1.415 . S
C732 C737 1.425 . S
C732 C739 1.409 . S
C733 H725 0.930 . S
C733 C731 1.419 . S
C733 C734 1.362 . S
C734 H726 0.930 . S
C734 C733 1.362 . S
C734 C737 1.409 . S
C735 H727 0.930 . S
C735 C736 1.355 . S
C735 C737 1.415 . S
C736 C735 1.355 . S
C736 C738 1.419 . S
C737 C732 1.425 . S
C737 C734 1.409 . S
C737 C735 1.415 . S
C738 H728 0.930 . S
C738 C736 1.419 . S
C738 C739 1.362 . S
C739 H729 0.930 . S
C739 C732 1.409 . S
C739 C738 1.362 . S
H740 C746 0.930 . S
H741 C749 0.930 . S
H742 C750 0.930 . S
H743 C751 0.930 . S
H744 C754 0.930 . S
H745 C755 0.930 . S
C746 H740 0.930 . S
C746 C747 1.355 . S
C746 C748 1.415 . S
C747 C746 1.355 . S
C747 C749 1.419 . S
C748 C746 1.415 . S
C748 C753 1.425 . S
C748 C755 1.409 . S
C749 H741 0.930 . S
C749 C747 1.419 . S
C749 C750 1.362 . S
C750 H742 0.930 . S
C750 C749 1.362 . S
C750 C753 1.409 . S
C751 H743 0.930 . S
C751 C752 1.355 . S
C751 C753 1.415 . S
C752 C751 1.355 . S
C752 C754 1.419 . S
C753 C748 1.425 . S
C753 C750 1.409 . S
C753 C751 1.415 . S
C754 H744 0.930 . S
C754 C752 1.419 . S
C754 C755 1.362 . S
C755 H745 0.930 . S
C755 C748 1.409 . S
C755 C754 1.362 . S
H756 C762 0.930 . S
H757 C765 0.930 . S
H758 C766 0.930 . S
H759 C767 0.930 . S
H760 C770 0.930 . S
H761 C771 0.930 . S
C762 H756 0.930 . S
C762 C763 1.355 . S
C762 C764 1.415 . S
C763 C762 1.355 . S
C763 C765 1.419 . S
C764 C762 1.415 . S
C764 C769 1.425 . S
C764 C771 1.409 . S
C765 H757 0.930 . S
C765 C763 1.419 . S
C765 C766 1.362 . S
C766 H758 0.930 . S
C766 C765 1.362 . S
C766 C769 1.409 . S
C767 H759 0.930 . S
C767 C768 1.355 . S
C767 C769 1.415 . S
C768 C767 1.355 . S
C768 C770 1.419 . S
C769 C764 1.425 . S
C769 C766 1.409 . S
C769 C767 1.415 . S
C770 H760 0.930 . S
C770 C768 1.419 . S
C770 C771 1.362 . S
C771 H761 0.930 . S
C771 C764 1.409 . S
C771 C770 1.362 . S
H772 C778 0.930 . S
H773 C781 0.930 . S
H774 C782 0.930 . S
H775 C783 0.930 . S
H776 C786 0.930 . S
H777 C787 0.930 . S
C778 H772 0.930 . S
C778 C779 1.355 . S
C778 C780 1.415 . S
C779 C778 1.355 . S
C779 C781 1.419 . S
C780 C778 1.415 . S
C780 C785 1.425 . S
C780 C787 1.409 . S
C781 H773 0.930 . S
C781 C779 1.419 . S
C781 C782 1.362 . S
C782 H774 0.930 . S
C782 C781 1.362 . S
C782 C785 1.409 . S
C783 H775 0.930 . S
C783 C784 1.355 . S
C783 C785 1.415 . S
C784 C783 1.355 . S
C784 C786 1.419 . S
C785 C780 1.425 . S
C785 C782 1.409 . S
C785 C783 1.415 . S
C786 H776 0.930 . S
C786 C784 1.419 . S
C786 C787 1.362 . S
C787 H777 0.930 . S
C787 C780 1.409 . S
C787 C786 1.362 . S
H788 C794 0.930 . S
H789 C797 0.930 . S
H790 C798 0.930 . S
H791 C799 0.930 . S
H792 C802 0.930 . S
H793 C803 0.930 . S
C794 H788 0.930 . S
C794 C795 1.355 . S
C794 C796 1.415 . S
C795 C794 1.355 . S
C795 C797 1.419 . S
C796 C794 1.415 . S
C796 C801 1.425 . S
C796 C803 1.409 . S
C797 H789 0.930 . S
C797 C795 1.419 . S
C797 C798 1.362 . S
C798 H790 0.930 . S
C798 C797 1.362 . S
C798 C801 1.409 . S
C799 H791 0.930 . S
C799 C800 1.355 . S
C799 C801 1.415 . S
C800 C799 1.355 . S
C800 C802 1.419 . S
C801 C796 1.425 . S
C801 C798 1.409 . S
C801 C799 1.415 . S
C802 H792 0.930 . S
C802 C800 1.419 . S
C802 C803 1.362 . S
C803 H793 0.930 . S
C803 C796 1.409 . S
C803 C802 1.362 . S
H804 C810 0.930 . S
H805 C813 0.930 . S
H806 C814 0.930 . S
H807 C815 0.930 . S
H808 C818 0.930 . S
H809 C819 0.930 . S
C810 H804 0.930 . S
C810 C811 1.355 . S
C810 C812 1.415 . S
C811 C810 1.355 . S
C811 C813 1.419 . S
C812 C810 1.415 . S
C812 C817 1.425 . S
C812 C819 1.409 . S
C813 H805 0.930 . S
C813 C811 1.419 . S
C813 C814 1.362 . S
C814 H806 0.930 . S
C814 C813 1.362 . S
C814 C817 1.409 . S
C815 H807 0.930 . S
C815 C816 1.355 . S
C815 C817 1.415 . S
C816 C815 1.355 . S
C816 C818 1.419 . S
C817 C812 1.425 . S
C817 C814 1.409 . S
C817 C815 1.415 . S
C818 H808 0.930 . S
C818 C816 1.419 . S
C818 C819 1.362 . S
C819 H809 0.930 . S
C819 C812 1.409 . S
C819 C818 1.362 . S
H820 C826 0.930 . S
H821 C829 0.930 . S
H822 C830 0.930 . S
H823 C831 0.930 . S
H824 C834 0.930 . S
H825 C835 0.930 . S
C826 H820 0.930 . S
C826 C827 1.355 . S
C826 C828 1.415 . S
C827 C826 1.355 . S
C827 C829 1.419 . S
C828 C826 1.415 . S
C828 C833 1.425 . S
C828 C835 1.409 . S
C829 H821 0.930 . S
C829 C827 1.419 . S
C829 C830 1.362 . S
C830 H822 0.930 . S
C830 C829 1.362 . S
C830 C833 1.409 . S
C831 H823 0.930 . S
C831 C832 1.355 . S
C831 C833 1.415 . S
C832 C831 1.355 . S
C832 C834 1.419 . S
C833 C828 1.425 . S
C833 C830 1.409 . S
C833 C831 1.415 . S
C834 H824 0.930 . S
C834 C832 1.419 . S
C834 C835 1.362 . S
C835 H825 0.930 . S
C835 C828 1.409 . S
C835 C834 1.362 . S
H836 C842 0.930 . S
H837 C845 0.930 . S
H838 C846 0.930 . S
H839 C847 0.930 . S
H840 C850 0.930 . S
H841 C851 0.930 . S
C842 H836 0.930 . S
C842 C843 1.355 . S
C842 C844 1.415 . S
C843 C842 1.355 . S
C843 C845 1.419 . S
C844 C842 1.415 . S
C844 C849 1.425 . S
C844 C851 1.409 . S
C845 H837 0.930 . S
C845 C843 1.419 . S
C845 C846 1.362 . S
C846 H838 0.930 . S
C846 C845 1.362 . S
C846 C849 1.409 . S
C847 H839 0.930 . S
C847 C848 1.355 . S
C847 C849 1.415 . S
C848 C847 1.355 . S
C848 C850 1.419 . S
C849 C844 1.425 . S
C849 C846 1.409 . S
C849 C847 1.415 . S
C850 H840 0.930 . S
C850 C848 1.419 . S
C850 C851 1.362 . S
C851 H841 0.930 . S
C851 C844 1.409 . S
C851 C850 1.362 . S
H852 C858 0.930 . S
H853 C861 0.930 . S
H854 C862 0.930 . S
H855 C863 0.930 . S
H856 C866 0.930 . S
H857 C867 0.930 . S
C858 H852 0.930 . S
C858 C859 1.355 . S
C858 C860 1.415 . S
C859 C858 1.355 . S
C859 C861 1.419 . S
C860 C858 1.415 . S
C860 C865 1.425 . S
C860 C867 1.409 . S
C861 H853 0.930 . S
C861 C859 1.419 . S
C861 C862 1.362 . S
C862 H854 0.930 . S
C862 C861 1.362 . S
C862 C865 1.409 . S
C863 H855 0.930 . S
C863 C864 1.355 . S
C863 C865 1.415 . S
C864 C863 1.355 . S
C864 C866 1.419 . S
C865 C860 1.425 . S
C865 C862 1.409 . S
C865 C863 1.415 . S
C866 H856 0.930 . S
C866 C864 1.419 . S
C866 C867 1.362 . S
C867 H857 0.930 . S
C867 C860 1.409 . S
C867 C866 1.362 . S
H868 C874 0.930 . S
H869 C877 0.930 . S
H870 C878 0.930 . S
H871 C879 0.930 . S
H872 C882 0.930 . S
H873 C883 0.930 . S
C874 H868 0.930 . S
C874 C875 1.355 . S
C874 C876 1.415 . S
C875 C874 1.355 . S
C875 C877 1.419 . S
C876 C874 1.415 . S
C876 C881 1.425 . S
C876 C883 1.409 . S
C877 H869 0.930 . S
C877 C875 1.419 . S
C877 C878 1.362 . S
C878 H870 0.930 . S
C878 C877 1.362 . S
C878 C881 1.409 . S
C879 H871 0.930 . S
C879 C880 1.355 . S
C879 C881 1.415 . S
C880 C879 1.355 . S
C880 C882 1.419 . S
C881 C876 1.425 . S
C881 C878 1.409 . S
C881 C879 1.415 . S
C882 H872 0.930 . S
C882 C880 1.419 . S
C882 C883 1.362 . S
C883 H873 0.930 . S
C883 C876 1.409 . S
C883 C882 1.362 . S
H884 C890 0.930 . S
H885 C893 0.930 . S
H886 C894 0.930 . S
H887 C895 0.930 . S
H888 C898 0.930 . S
H889 C899 0.930 . S
C890 H884 0.930 . S
C890 C891 1.355 . S
C890 C892 1.415 . S
C891 C890 1.355 . S
C891 C893 1.419 . S
C892 C890 1.415 . S
C892 C897 1.425 . S
C892 C899 1.409 . S
C893 H885 0.930 . S
C893 C891 1.419 . S
C893 C894 1.362 . S
C894 H886 0.930 . S
C894 C893 1.362 . S
C894 C897 1.409 . S
C895 H887 0.930 . S
C895 C896 1.355 . S
C895 C897 1.415 . S
C896 C895 1.355 . S
C896 C898 1.419 . S
C897 C892 1.425 . S
C897 C894 1.409 . S
C897 C895 1.415 . S
C898 H888 0.930 . S
C898 C896 1.419 . S
C898 C899 1.362 . S
C899 H889 0.930 . S
C899 C892 1.409 . S
C899 C898 1.362 . S
H900 C906 0.930 . S
H901 C909 0.930 . S
H902 C910 0.930 . S
H903 C911 0.930 . S
H904 C914 0.930 . S
H905 C915 0.930 . S
C906 H900 0.930 . S
C906 C907 1.355 . S
C906 C908 1.415 . S
C907 C906 1.355 . S
C907 C909 1.419 . S
C908 C906 1.415 . S
C908 C913 1.425 . S
C908 C915 1.409 . S
C909 H901 0.930 . S
C909 C907 1.419 . S
C909 C910 1.362 . S
C910 H902 0.930 . S
C910 C909 1.362 . S
C910 C913 1.409 . S
C911 H903 0.930 . S
C911 C912 1.355 . S
C911 C913 1.415 . S
C912 C911 1.355 . S
C912 C914 1.419 . S
C913 C908 1.425 . S
C913 C910 1.409 . S
C913 C911 1.415 . S
C914 H904 0.930 . S
C914 C912 1.419 . S
C914 C915 1.362 . S
C915 H905 0.930 . S
C915 C908 1.409 . S
C915 C914 1.362 . S
H916 C922 0.930 . S
H917 C925 0.930 . S
H918 C926 0.930 . S
H919 C927 0.930 . S
H920 C930 0.930 . S
H921 C931 0.930 . S
C922 H916 0.930 . S
C922 C923 1.355 . S
C922 C924 1.415 . S
C923 C922 1.355 . S
C923 C925 1.419 . S
C924 C922 1.415 . S
C924 C929 1.425 . S
C924 C931 1.409 . S
C925 H917 0.930 . S
C925 C923 1.419 . S
C925 C926 1.362 . S
C926 H918 0.930 . S
C926 C925 1.362 . S
C926 C929 1.409 . S
C927 H919 0.930 . S
C927 C928 1.355 . S
C927 C929 1.415 . S
C928 C927 1.355 . S
C928 C930 1.419 . S
C929 C924 1.425 . S
C929 C926 1.409 . S
C929 C927 1.415 . S
C930 H920 0.930 . S
C930 C928 1.419 . S
C930 C931 1.362 . S
C931 H921 0.930 . S
C931 C924 1.409 . S
C931 C930 1.362 . S
H932 C938 0.930 . S
H933 C941 0.930 . S
H934 C942 0.930 . S
H935 C943 0.930 . S
H936 C946 0.930 . S
H937 C947 0.930 . S
C938 H932 0.930 . S
C938 C939 1.355 . S
C938 C940 1.415 . S
C939 C938 1.355 . S
C939 C941 1.419 . S
C940 C938 1.415 . S
C940 C945 1.425 . S
C940 C947 1.409 . S
C941 H933 0.930 . S
C941 C939 1.419 . S
C941 C942 1.362 . S
C942 H934 0.930 . S
C942 C941 1.362 . S
C942 C945 1.409 . S
C943 H935 0.930 . S
C943 C944 1.355 . S
C943 C945 1.415 . S
C944 C943 1.355 . S
C944 C946 1.419 . S
C945 C940 1.425 . S
C945 C942 1.409 . S
C945 C943 1.415 . S
C946 H936 0.930 . S
C946 C944 1.419 . S
C946 C947 1.362 . S
C947 H937 0.930 . S
C947 C940 1.409 . S
C947 C946 1.362 . S
H948 C954 0.930 . S
H949 C957 0.930 . S
H950 C958 0.930 . S
H951 C959 0.930 . S
H952 C962 0.930 . S
H953 C963 0.930 . S
C954 H948 0.930 . S
C954 C955 1.355 . S
C954 C956 1.415 . S
C955 C954 1.355 . S
C955 C957 1.419 . S
C956 C954 1.415 . S
C956 C961 1.425 . S
C956 C963 1.409 . S
C957 H949 0.930 . S
C957 C955 1.419 . S
C957 C958 1.362 . S
C958 H950 0.930 . S
C958 C957 1.362 . S
C958 C961 1.409 . S
C959 H951 0.930 . S
C959 C960 1.355 . S
C959 C961 1.415 . S
C960 C959 1.355 . S
C960 C962 1.419 . S
C961 C956 1.425 . S
C961 C958 1.409 . S
C961 C959 1.415 . S
C962 H952 0.930 . S
C962 C960 1.419 . S
C962 C963 1.362 . S
C963 H953 0.930 . S
C963 C956 1.409 . S
C963 C962 1.362 . S
H964 C970 0.930 . S
H965 C973 0.930 . S
H966 C974 0.930 . S
H967 C975 0.930 . S
H968 C978 0.930 . S
H969 C979 0.930 . S
C970 H964 0.930 . S
C970 C971 1.355 . S
C970 C972 1.415 . S
C971 C970 1.355 . S
C971 C973 1.419 . S
C972 C970 1.415 . S
C972 C977 1.425 . S
C972 C979 1.409 . S
C973 H965 0.930 . S
C973 C971 1.419 . S
C973 C974 1.362 . S
C974 H966 0.930 . S
C974 C973 1.362 . S
C974 C977 1.409 . S
C975 H967 0.930 . S
C975 C976 1.355 . S
C975 C977 1.415 . S
C976 C975 1.355 . S
C976 C978 1.419 . S
C977 C972 1.425 . S
C977 C974 1.409 . S
C977 C975 1.415 . S
C978 H968 0.930 . S
C978 C976 1.419 . S
C978 C979 1.362 . S
C979 H969 0.930 . S
C979 C972 1.409 . S
C979 C978 1.362 . S
H980 C986 0.930 . S
H981 C989 0.930 . S
H982 C990 0.930 . S
H983 C991 0.930 . S
H984 C994 0.930 . S
H985 C995 0.930 . S
C986 H980 0.930 . S
C986 C987 1.355 . S
C986 C988 1.415 . S
C987 C986 1.355 . S
C987 C989 1.419 . S
C988 C986 1.415 . S
C988 C993 1.425 . S
C988 C995 1.409 . S
C989 H981 0.930 . S
C989 C987 1.419 . S
C989 C990 1.362 . S
C990 H982 0.930 . S
C990 C989 1.362 . S
C990 C993 1.409 . S
C991 H983 0.930 . S
C991 C992 1.355 . S
C991 C993 1.415 . S
C992 C991 1.355 . S
C992 C994 1.419 . S
C993 C988 1.425 . S
C993 C990 1.409 . S
C993 C991 1.415 . S
C994 H984 0.930 . S
C994 C992 1.419 . S
C994 C995 1.362 . S
C995 H985 0.930 . S
C995 C988 1.409 . S
C995 C994 1.362 . S
H996 C1002 0.930 . S
H997 C1005 0.930 . S
H998 C1006 0.930 . S
H999 C1007 0.930 . S
H1000 C1010 0.930 . S
H1001 C1011 0.930 . S
C1002 H996 0.930 . S
C1002 C1003 1.355 . S
C1002 C1004 1.415 . S
C1003 C1002 1.355 . S
C1003 C1005 1.419 . S
C1004 C1002 1.415 . S
C1004 C1009 1.425 . S
C1004 C1011 1.409 . S
C1005 H997 0.930 . S
C1005 C1003 1.419 . S
C1005 C1006 1.362 . S
C1006 H998 0.930 . S
C1006 C1005 1.362 . S
C1006 C1009 1.409 . S
C1007 H999 0.930 . S
C1007 C1008 1.355 . S
C1007 C1009 1.415 . S
C1008 C1007 1.355 . S
C1008 C1010 1.419 . S
C1009 C1004 1.425 . S
C1009 C1006 1.409 . S
C1009 C1007 1.415 . S
C1010 H1000 0.930 . S
C1010 C1008 1.419 . S
C1010 C1011 1.362 . S
C1011 H1001 0.930 . S
C1011 C1004 1.409 . S
C1011 C1010 1.362 . S
H1012 C1018 0.930 . S
H1013 C1021 0.930 . S
H1014 C1022 0.930 . S
H1015 C1023 0.930 . S
H1016 C1026 0.930 . S
H1017 C1027 0.930 . S
C1018 H1012 0.930 . S
C1018 C1019 1.355 . S
C1018 C1020 1.415 . S
C1019 C1018 1.355 . S
C1019 C1021 1.419 . S
C1020 C1018 1.415 . S
C1020 C1025 1.425 . S
C1020 C1027 1.409 . S
C1021 H1013 0.930 . S
C1021 C1019 1.419 . S
C1021 C1022 1.362 . S
C1022 H1014 0.930 . S
C1022 C1021 1.362 . S
C1022 C1025 1.409 . S
C1023 H1015 0.930 . S
C1023 C1024 1.355 . S
C1023 C1025 1.415 . S
C1024 C1023 1.355 . S
C1024 C1026 1.419 . S
C1025 C1020 1.425 . S
C1025 C1022 1.409 . S
C1025 C1023 1.415 . S
C1026 H1016 0.930 . S
C1026 C1024 1.419 . S
C1026 C1027 1.362 . S
C1027 H1017 0.930 . S
C1027 C1020 1.409 . S
C1027 C1026 1.362 . S
H1028 C1034 0.930 . S
H1029 C1037 0.930 . S
H1030 C1038 0.930 . S
H1031 C1039 0.930 . S
H1032 C1042 0.930 . S
H1033 C1043 0.930 . S
C1034 H1028 0.930 . S
C1034 C1035 1.355 . S
C1034 C1036 1.415 . S
C1035 C1034 1.355 . S
C1035 C1037 1.419 . S
C1036 C1034 1.415 . S
C1036 C1041 1.425 . S
C1036 C1043 1.409 . S
C1037 H1029 0.930 . S
C1037 C1035 1.419 . S
C1037 C1038 1.362 . S
C1038 H1030 0.930 . S
C1038 C1037 1.362 . S
C1038 C1041 1.409 . S
C1039 H1031 0.930 . S
C1039 C1040 1.355 . S
C1039 C1041 1.415 . S
C1040 C1039 1.355 . S
C1040 C1042 1.419 . S
C1041 C1036 1.425 . S
C1041 C1038 1.409 . S
C1041 C1039 1.415 . S
C1042 H1032 0.930 . S
C1042 C1040 1.419 . S
C1042 C1043 1.362 . S
C1043 H1033 0.930 . S
C1043 C1036 1.409 . S
C1043 C1042 1.362 . S
H1044 C1050 0.930 . S
H1045 C1053 0.930 . S
H1046 C1054 0.930 . S
H1047 C1055 0.930 . S
H1048 C1058 0.930 . S
H1049 C1059 0.930 . S
C1050 H1044 0.930 . S
C1050 C1051 1.355 . S
C1050 C1052 1.415 . S
C1051 C1050 1.355 . S
C1051 C1053 1.419 . S
C1052 C1050 1.415 . S
C1052 C1057 1.425 . S
C1052 C1059 1.409 . S
C1053 H1045 0.930 . S
C1053 C1051 1.419 . S
C1053 C1054 1.362 . S
C1054 H1046 0.930 . S
C1054 C1053 1.362 . S
C1054 C1057 1.409 . S
C1055 H1047 0.930 . S
C1055 C1056 1.355 . S
C1055 C1057 1.415 . S
C1056 C1055 1.355 . S
C1056 C1058 1.419 . S
C1057 C1052 1.425 . S
C1057 C1054 1.409 . S
C1057 C1055 1.415 . S
C1058 H1048 0.930 . S
C1058 C1056 1.419 . S
C1058 C1059 1.362 . S
C1059 H1049 0.930 . S
C1059 C1052 1.409 . S
C1059 C1058 1.362 . S
H1060 C1066 0.930 . S
H1061 C1069 0.930 . S
H1062 C1070 0.930 . S
H1063 C1071 0.930 . S
H1064 C1074 0.930 . S
H1065 C1075 0.930 . S
C1066 H1060 0.930 . S
C1066 C1067 1.355 . S
C1066 C1068 1.415 . S
C1067 C1066 1.355 . S
C1067 C1069 1.419 . S
C1068 C1066 1.415 . S
C1068 C1073 1.425 1_565 S
C1068 C1075 1.409 1_565 S
C1069 H1061 0.930 . S
C1069 C1067 1.419 . S
C1069 C1070 1.362 . S
C1070 H1062 0.930 . S
C1070 C1069 1.362 . S
C1070 C1073 1.409 1_565 S
C1071 H1063 0.930 . S
C1071 C1072 1.355 . S
C1071 C1073 1.415 . S
C1072 C1071 1.355 . S
C1072 C1074 1.419 . S
C1073 C1068 1.425 1_545 S
C1073 C1070 1.409 1_545 S
C1073 C1071 1.415 . S
C1074 H1064 0.930 . S
C1074 C1072 1.419 . S
C1074 C1075 1.362 . S
C1075 H1065 0.930 . S
C1075 C1068 1.409 1_545 S
C1075 C1074 1.362 . S
H1076 C1082 0.930 . S
H1077 C1085 0.930 . S
H1078 C1086 0.930 . S
H1079 C1087 0.930 . S
H1080 C1090 0.930 . S
H1081 C1091 0.930 . S
C1082 H1076 0.930 . S
C1082 C1083 1.355 . S
C1082 C1084 1.415 . S
C1083 C1082 1.355 . S
C1083 C1085 1.419 . S
C1084 C1082 1.415 . S
C1084 C1089 1.425 1_655 S
C1084 C1091 1.409 1_655 S
C1085 H1077 0.930 . S
C1085 C1083 1.419 . S
C1085 C1086 1.362 . S
C1086 H1078 0.930 . S
C1086 C1085 1.362 . S
C1086 C1089 1.409 1_655 S
C1087 H1079 0.930 . S
C1087 C1088 1.355 . S
C1087 C1089 1.415 . S
C1088 C1087 1.355 . S
C1088 C1090 1.419 . S
C1089 C1084 1.425 1_455 S
C1089 C1086 1.409 1_455 S
C1089 C1087 1.415 . S
C1090 H1080 0.930 . S
C1090 C1088 1.419 . S
C1090 C1091 1.362 . S
C1091 H1081 0.930 . S
C1091 C1084 1.409 1_455 S
C1091 C1090 1.362 . S
H1092 C1098 0.930 . S
H1093 C1101 0.930 . S
H1094 C1102 0.930 . S
H1095 C1103 0.930 . S
H1096 C1106 0.930 . S
H1097 C1107 0.930 . S
C1098 H1092 0.930 . S
C1098 C1099 1.355 . S
C1098 C1100 1.415 . S
C1099 C1098 1.355 . S
C1099 C1101 1.419 . S
C1100 C1098 1.415 . S
C1100 C1105 1.425 . S
C1100 C1107 1.409 . S
C1101 H1093 0.930 . S
C1101 C1099 1.419 . S
C1101 C1102 1.362 . S
C1102 H1094 0.930 . S
C1102 C1101 1.362 . S
C1102 C1105 1.409 . S
C1103 H1095 0.930 . S
C1103 C1104 1.355 . S
C1103 C1105 1.415 . S
C1104 C1103 1.355 . S
C1104 C1106 1.419 . S
C1105 C1100 1.425 . S
C1105 C1102 1.409 . S
C1105 C1103 1.415 . S
C1106 H1096 0.930 . S
C1106 C1104 1.419 . S
C1106 C1107 1.362 . S
C1107 H1097 0.930 . S
C1107 C1100 1.409 . S
C1107 C1106 1.362 . S
H1108 C1114 0.930 . S
H1109 C1117 0.930 . S
H1110 C1118 0.930 . S
H1111 C1119 0.930 . S
H1112 C1122 0.930 . S
H1113 C1123 0.930 . S
C1114 H1108 0.930 . S
C1114 C1115 1.355 . S
C1114 C1116 1.415 . S
C1115 C1114 1.355 . S
C1115 C1117 1.419 . S
C1116 C1114 1.415 . S
C1116 C1121 1.425 1_545 S
C1116 C1123 1.409 1_545 S
C1117 H1109 0.930 . S
C1117 C1115 1.419 . S
C1117 C1118 1.362 . S
C1118 H1110 0.930 . S
C1118 C1117 1.362 . S
C1118 C1121 1.409 1_545 S
C1119 H1111 0.930 . S
C1119 C1120 1.355 . S
C1119 C1121 1.415 . S
C1120 C1119 1.355 . S
C1120 C1122 1.419 . S
C1121 C1116 1.425 1_565 S
C1121 C1118 1.409 1_565 S
C1121 C1119 1.415 . S
C1122 H1112 0.930 . S
C1122 C1120 1.419 . S
C1122 C1123 1.362 . S
C1123 H1113 0.930 . S
C1123 C1116 1.409 1_565 S
C1123 C1122 1.362 . S
H1124 C1130 0.930 . S
H1125 C1133 0.930 . S
H1126 C1134 0.930 . S
H1127 C1135 0.930 . S
H1128 C1138 0.930 . S
H1129 C1139 0.930 . S
C1130 H1124 0.930 . S
C1130 C1131 1.355 . S
C1130 C1132 1.415 . S
C1131 C1130 1.355 . S
C1131 C1133 1.419 . S
C1132 C1130 1.415 . S
C1132 C1137 1.425 1_655 S
C1132 C1139 1.409 1_655 S
C1133 H1125 0.930 . S
C1133 C1131 1.419 . S
C1133 C1134 1.362 . S
C1134 H1126 0.930 . S
C1134 C1133 1.362 . S
C1134 C1137 1.409 1_655 S
C1135 H1127 0.930 . S
C1135 C1136 1.355 . S
C1135 C1137 1.415 . S
C1136 C1135 1.355 . S
C1136 C1138 1.419 . S
C1137 C1132 1.425 1_455 S
C1137 C1134 1.409 1_455 S
C1137 C1135 1.415 . S
C1138 H1128 0.930 . S
C1138 C1136 1.419 . S
C1138 C1139 1.362 . S
C1139 H1129 0.930 . S
C1139 C1132 1.409 1_455 S
C1139 C1138 1.362 . S
H1140 C1146 0.930 . S
H1141 C1149 0.930 . S
H1142 C1150 0.930 . S
H1143 C1151 0.930 . S
H1144 C1154 0.930 . S
H1145 C1155 0.930 . S
C1146 H1140 0.930 . S
C1146 C1147 1.355 . S
C1146 C1148 1.415 . S
C1147 C1146 1.355 . S
C1147 C1149 1.419 . S
C1148 C1146 1.415 . S
C1148 C1153 1.425 . S
C1148 C1155 1.409 . S
C1149 H1141 0.930 . S
C1149 C1147 1.419 . S
C1149 C1150 1.362 . S
C1150 H1142 0.930 . S
C1150 C1149 1.362 . S
C1150 C1153 1.409 . S
C1151 H1143 0.930 . S
C1151 C1152 1.355 . S
C1151 C1153 1.415 . S
C1152 C1151 1.355 . S
C1152 C1154 1.419 . S
C1153 C1148 1.425 . S
C1153 C1150 1.409 . S
C1153 C1151 1.415 . S
C1154 H1144 0.930 . S
C1154 C1152 1.419 . S
C1154 C1155 1.362 . S
C1155 H1145 0.930 . S
C1155 C1148 1.409 . S
C1155 C1154 1.362 . S
H1156 C1162 0.930 . S
H1157 C1165 0.930 . S
H1158 C1166 0.930 . S
H1159 C1167 0.930 . S
H1160 C1170 0.930 . S
H1161 C1171 0.930 . S
C1162 H1156 0.930 . S
C1162 C1163 1.355 . S
C1162 C1164 1.415 . S
C1163 C1162 1.355 . S
C1163 C1165 1.419 . S
C1164 C1162 1.415 . S
C1164 C1169 1.425 . S
C1164 C1171 1.409 . S
C1165 H1157 0.930 . S
C1165 C1163 1.419 . S
C1165 C1166 1.362 . S
C1166 H1158 0.930 . S
C1166 C1165 1.362 . S
C1166 C1169 1.409 . S
C1167 H1159 0.930 . S
C1167 C1168 1.355 . S
C1167 C1169 1.415 . S
C1168 C1167 1.355 . S
C1168 C1170 1.419 . S
C1169 C1164 1.425 . S
C1169 C1166 1.409 . S
C1169 C1167 1.415 . S
C1170 H1160 0.930 . S
C1170 C1168 1.419 . S
C1170 C1171 1.362 . S
C1171 H1161 0.930 . S
C1171 C1164 1.409 . S
C1171 C1170 1.362 . S
H1172 C1178 0.930 . S
H1173 C1181 0.930 . S
H1174 C1182 0.930 . S
H1175 C1183 0.930 . S
H1176 C1186 0.930 . S
H1177 C1187 0.930 . S
C1178 H1172 0.930 . S
C1178 C1179 1.355 . S
C1178 C1180 1.415 . S
C1179 C1178 1.355 . S
C1179 C1181 1.419 . S
C1180 C1178 1.415 . S
C1180 C1185 1.425 . S
C1180 C1187 1.409 . S
C1181 H1173 0.930 . S
C1181 C1179 1.419 . S
C1181 C1182 1.362 . S
C1182 H1174 0.930 . S
C1182 C1181 1.362 . S
C1182 C1185 1.409 . S
C1183 H1175 0.930 . S
C1183 C1184 1.355 . S
C1183 C1185 1.415 . S
C1184 C1183 1.355 . S
C1184 C1186 1.419 . S
C1185 C1180 1.425 . S
C1185 C1182 1.409 . S
C1185 C1183 1.415 . S
C1186 H1176 0.930 . S
C1186 C1184 1.419 . S
C1186 C1187 1.362 . S
C1187 H1177 0.930 . S
C1187 C1180 1.409 . S
C1187 C1186 1.362 . S
H1188 C1194 0.930 . S
H1189 C1197 0.930 . S
H1190 C1198 0.930 . S
H1191 C1199 0.930 . S
H1192 C1202 0.930 . S
H1193 C1203 0.930 . S
C1194 H1188 0.930 . S
C1194 C1195 1.355 . S
C1194 C1196 1.415 . S
C1195 C1194 1.355 . S
C1195 C1197 1.419 . S
C1196 C1194 1.415 . S
C1196 C1201 1.425 . S
C1196 C1203 1.409 . S
C1197 H1189 0.930 . S
C1197 C1195 1.419 . S
C1197 C1198 1.362 . S
C1198 H1190 0.930 . S
C1198 C1197 1.362 . S
C1198 C1201 1.409 . S
C1199 H1191 0.930 . S
C1199 C1200 1.355 . S
C1199 C1201 1.415 . S
C1200 C1199 1.355 . S
C1200 C1202 1.419 . S
C1201 C1196 1.425 . S
C1201 C1198 1.409 . S
C1201 C1199 1.415 . S
C1202 H1192 0.930 . S
C1202 C1200 1.419 . S
C1202 C1203 1.362 . S
C1203 H1193 0.930 . S
C1203 C1196 1.409 . S
C1203 C1202 1.362 . S
H1204 C1210 0.930 . S
H1205 C1213 0.930 . S
H1206 C1214 0.930 . S
H1207 C1215 0.930 . S
H1208 C1218 0.930 . S
H1209 C1219 0.930 . S
C1210 H1204 0.930 . S
C1210 C1211 1.355 . S
C1210 C1212 1.415 . S
C1211 C1210 1.355 . S
C1211 C1213 1.419 . S
C1212 C1210 1.415 . S
C1212 C1217 1.425 . S
C1212 C1219 1.409 . S
C1213 H1205 0.930 . S
C1213 C1211 1.419 . S
C1213 C1214 1.362 . S
C1214 H1206 0.930 . S
C1214 C1213 1.362 . S
C1214 C1217 1.409 . S
C1215 H1207 0.930 . S
C1215 C1216 1.355 . S
C1215 C1217 1.415 . S
C1216 C1215 1.355 . S
C1216 C1218 1.419 . S
C1217 C1212 1.425 . S
C1217 C1214 1.409 . S
C1217 C1215 1.415 . S
C1218 H1208 0.930 . S
C1218 C1216 1.419 . S
C1218 C1219 1.362 . S
C1219 H1209 0.930 . S
C1219 C1212 1.409 . S
C1219 C1218 1.362 . S
H1220 C1226 0.930 . S
H1221 C1229 0.930 . S
H1222 C1230 0.930 . S
H1223 C1231 0.930 . S
H1224 C1234 0.930 . S
H1225 C1235 0.930 . S
C1226 H1220 0.930 . S
C1226 C1227 1.355 . S
C1226 C1228 1.415 . S
C1227 C1226 1.355 . S
C1227 C1229 1.419 . S
C1228 C1226 1.415 . S
C1228 C1233 1.425 . S
C1228 C1235 1.409 . S
C1229 H1221 0.930 . S
C1229 C1227 1.419 . S
C1229 C1230 1.362 . S
C1230 H1222 0.930 . S
C1230 C1229 1.362 . S
C1230 C1233 1.409 . S
C1231 H1223 0.930 . S
C1231 C1232 1.355 . S
C1231 C1233 1.415 . S
C1232 C1231 1.355 . S
C1232 C1234 1.419 . S
C1233 C1228 1.425 . S
C1233 C1230 1.409 . S
C1233 C1231 1.415 . S
C1234 H1224 0.930 . S
C1234 C1232 1.419 . S
C1234 C1235 1.362 . S
C1235 H1225 0.930 . S
C1235 C1228 1.409 . S
C1235 C1234 1.362 . S
H1236 C1242 0.930 . S
H1237 C1245 0.930 . S
H1238 C1246 0.930 . S
H1239 C1247 0.930 . S
H1240 C1250 0.930 . S
H1241 C1251 0.930 . S
C1242 H1236 0.930 . S
C1242 C1243 1.355 . S
C1242 C1244 1.415 . S
C1243 C1242 1.355 . S
C1243 C1245 1.419 . S
C1244 C1242 1.415 . S
C1244 C1249 1.425 . S
C1244 C1251 1.409 . S
C1245 H1237 0.930 . S
C1245 C1243 1.419 . S
C1245 C1246 1.362 . S
C1246 H1238 0.930 . S
C1246 C1245 1.362 . S
C1246 C1249 1.409 . S
C1247 H1239 0.930 . S
C1247 C1248 1.355 . S
C1247 C1249 1.415 . S
C1248 C1247 1.355 . S
C1248 C1250 1.419 . S
C1249 C1244 1.425 . S
C1249 C1246 1.409 . S
C1249 C1247 1.415 . S
C1250 H1240 0.930 . S
C1250 C1248 1.419 . S
C1250 C1251 1.362 . S
C1251 H1241 0.930 . S
C1251 C1244 1.409 . S
C1251 C1250 1.362 . S
H1252 C1258 0.930 . S
H1253 C1261 0.930 . S
H1254 C1262 0.930 . S
H1255 C1263 0.930 . S
H1256 C1266 0.930 . S
H1257 C1267 0.930 . S
C1258 H1252 0.930 . S
C1258 C1259 1.355 . S
C1258 C1260 1.415 . S
C1259 C1258 1.355 . S
C1259 C1261 1.419 . S
C1260 C1258 1.415 . S
C1260 C1265 1.425 . S
C1260 C1267 1.409 . S
C1261 H1253 0.930 . S
C1261 C1259 1.419 . S
C1261 C1262 1.362 . S
C1262 H1254 0.930 . S
C1262 C1261 1.362 . S
C1262 C1265 1.409 . S
C1263 H1255 0.930 . S
C1263 C1264 1.355 . S
C1263 C1265 1.415 . S
C1264 C1263 1.355 . S
C1264 C1266 1.419 . S
C1265 C1260 1.425 . S
C1265 C1262 1.409 . S
C1265 C1263 1.415 . S
C1266 H1256 0.930 . S
C1266 C1264 1.419 . S
C1266 C1267 1.362 . S
C1267 H1257 0.930 . S
C1267 C1260 1.409 . S
C1267 C1266 1.362 . S
H1268 C1274 0.930 . S
H1269 C1277 0.930 . S
H1270 C1278 0.930 . S
H1271 C1279 0.930 . S
H1272 C1282 0.930 . S
H1273 C1283 0.930 . S
C1274 H1268 0.930 . S
C1274 C1275 1.355 . S
C1274 C1276 1.415 . S
C1275 C1274 1.355 . S
C1275 C1277 1.419 . S
C1276 C1274 1.415 . S
C1276 C1281 1.425 . S
C1276 C1283 1.409 . S
C1277 H1269 0.930 . S
C1277 C1275 1.419 . S
C1277 C1278 1.362 . S
C1278 H1270 0.930 . S
C1278 C1277 1.362 . S
C1278 C1281 1.409 . S
C1279 H1271 0.930 . S
C1279 C1280 1.355 . S
C1279 C1281 1.415 . S
C1280 C1279 1.355 . S
C1280 C1282 1.419 . S
C1281 C1276 1.425 . S
C1281 C1278 1.409 . S
C1281 C1279 1.415 . S
C1282 H1272 0.930 . S
C1282 C1280 1.419 . S
C1282 C1283 1.362 . S
C1283 H1273 0.930 . S
C1283 C1276 1.409 . S
C1283 C1282 1.362 . S
H1284 C1290 0.930 . S
H1285 C1293 0.930 . S
H1286 C1294 0.930 . S
H1287 C1295 0.930 . S
H1288 C1298 0.930 . S
H1289 C1299 0.930 . S
C1290 H1284 0.930 . S
C1290 C1291 1.355 . S
C1290 C1292 1.415 . S
C1291 C1290 1.355 . S
C1291 C1293 1.419 . S
C1292 C1290 1.415 . S
C1292 C1297 1.425 . S
C1292 C1299 1.409 . S
C1293 H1285 0.930 . S
C1293 C1291 1.419 . S
C1293 C1294 1.362 . S
C1294 H1286 0.930 . S
C1294 C1293 1.362 . S
C1294 C1297 1.409 . S
C1295 H1287 0.930 . S
C1295 C1296 1.355 . S
C1295 C1297 1.415 . S
C1296 C1295 1.355 . S
C1296 C1298 1.419 . S
C1297 C1292 1.425 . S
C1297 C1294 1.409 . S
C1297 C1295 1.415 . S
C1298 H1288 0.930 . S
C1298 C1296 1.419 . S
C1298 C1299 1.362 . S
C1299 H1289 0.930 . S
C1299 C1292 1.409 . S
C1299 C1298 1.362 . S
H1300 C1306 0.930 . S
H1301 C1309 0.930 . S
H1302 C1310 0.930 . S
H1303 C1311 0.930 . S
H1304 C1314 0.930 . S
H1305 C1315 0.930 . S
C1306 H1300 0.930 . S
C1306 C1307 1.355 . S
C1306 C1308 1.415 . S
C1307 C1306 1.355 . S
C1307 C1309 1.419 . S
C1308 C1306 1.415 . S
C1308 C1313 1.425 . S
C1308 C1315 1.409 . S
C1309 H1301 0.930 . S
C1309 C1307 1.419 . S
C1309 C1310 1.362 . S
C1310 H1302 0.930 . S
C1310 C1309 1.362 . S
C1310 C1313 1.409 . S
C1311 H1303 0.930 . S
C1311 C1312 1.355 . S
C1311 C1313 1.415 . S
C1312 C1311 1.355 . S
C1312 C1314 1.419 . S
C1313 C1308 1.425 . S
C1313 C1310 1.409 . S
C1313 C1311 1.415 . S
C1314 H1304 0.930 . S
C1314 C1312 1.419 . S
C1314 C1315 1.362 . S
C1315 H1305 0.930 . S
C1315 C1308 1.409 . S
C1315 C1314 1.362 . S
H1316 C1322 0.930 . S
H1317 C1325 0.930 . S
H1318 C1326 0.930 . S
H1319 C1327 0.930 . S
H1320 C1330 0.930 . S
H1321 C1331 0.930 . S
C1322 H1316 0.930 . S
C1322 C1323 1.355 . S
C1322 C1324 1.415 . S
C1323 C1322 1.355 . S
C1323 C1325 1.419 . S
C1324 C1322 1.415 . S
C1324 C1329 1.425 . S
C1324 C1331 1.409 . S
C1325 H1317 0.930 . S
C1325 C1323 1.419 . S
C1325 C1326 1.362 . S
C1326 H1318 0.930 . S
C1326 C1325 1.362 . S
C1326 C1329 1.409 . S
C1327 H1319 0.930 . S
C1327 C1328 1.355 . S
C1327 C1329 1.415 . S
C1328 C1327 1.355 . S
C1328 C1330 1.419 . S
C1329 C1324 1.425 . S
C1329 C1326 1.409 . S
C1329 C1327 1.415 . S
C1330 H1320 0.930 . S
C1330 C1328 1.419 . S
C1330 C1331 1.362 . S
C1331 H1321 0.930 . S
C1331 C1324 1.409 . S
C1331 C1330 1.362 . S
H1332 C1338 0.930 . S
H1333 C1341 0.930 . S
H1334 C1342 0.930 . S
H1335 C1343 0.930 . S
H1336 C1346 0.930 . S
H1337 C1347 0.930 . S
C1338 H1332 0.930 . S
C1338 C1339 1.355 . S
C1338 C1340 1.415 . S
C1339 C1338 1.355 . S
C1339 C1341 1.419 . S
C1340 C1338 1.415 . S
C1340 C1345 1.425 . S
C1340 C1347 1.409 . S
C1341 H1333 0.930 . S
C1341 C1339 1.419 . S
C1341 C1342 1.362 . S
C1342 H1334 0.930 . S
C1342 C1341 1.362 . S
C1342 C1345 1.409 . S
C1343 H1335 0.930 . S
C1343 C1344 1.355 . S
C1343 C1345 1.415 . S
C1344 C1343 1.355 . S
C1344 C1346 1.419 . S
C1345 C1340 1.425 . S
C1345 C1342 1.409 . S
C1345 C1343 1.415 . S
C1346 H1336 0.930 . S
C1346 C1344 1.419 . S
C1346 C1347 1.362 . S
C1347 H1337 0.930 . S
C1347 C1340 1.409 . S
C1347 C1346 1.362 . S
H1348 C1354 0.930 . S
H1349 C1357 0.930 . S
H1350 C1358 0.930 . S
H1351 C1359 0.930 . S
H1352 C1362 0.930 . S
H1353 C1363 0.930 . S
C1354 H1348 0.930 . S
C1354 C1355 1.355 . S
C1354 C1356 1.415 . S
C1355 C1354 1.355 . S
C1355 C1357 1.419 . S
C1356 C1354 1.415 . S
C1356 C1361 1.425 . S
C1356 C1363 1.409 . S
C1357 H1349 0.930 . S
C1357 C1355 1.419 . S
C1357 C1358 1.362 . S
C1358 H1350 0.930 . S
C1358 C1357 1.362 . S
C1358 C1361 1.409 . S
C1359 H1351 0.930 . S
C1359 C1360 1.355 . S
C1359 C1361 1.415 . S
C1360 C1359 1.355 . S
C1360 C1362 1.419 . S
C1361 C1356 1.425 . S
C1361 C1358 1.409 . S
C1361 C1359 1.415 . S
C1362 H1352 0.930 . S
C1362 C1360 1.419 . S
C1362 C1363 1.362 . S
C1363 H1353 0.930 . S
C1363 C1356 1.409 . S
C1363 C1362 1.362 . S
H1364 C1370 0.930 . S
H1365 C1373 0.930 . S
H1366 C1374 0.930 . S
H1367 C1375 0.930 . S
H1368 C1378 0.930 . S
H1369 C1379 0.930 . S
C1370 H1364 0.930 . S
C1370 C1371 1.355 . S
C1370 C1372 1.415 . S
C1371 C1370 1.355 . S
C1371 C1373 1.419 . S
C1372 C1370 1.415 . S
C1372 C1377 1.425 . S
C1372 C1379 1.409 . S
C1373 H1365 0.930 . S
C1373 C1371 1.419 . S
C1373 C1374 1.362 . S
C1374 H1366 0.930 . S
C1374 C1373 1.362 . S
C1374 C1377 1.409 . S
C1375 H1367 0.930 . S
C1375 C1376 1.355 . S
C1375 C1377 1.415 . S
C1376 C1375 1.355 . S
C1376 C1378 1.419 . S
C1377 C1372 1.425 . S
C1377 C1374 1.409 . S
C1377 C1375 1.415 . S
C1378 H1368 0.930 . S
C1378 C1376 1.419 . S
C1378 C1379 1.362 . S
C1379 H1369 0.930 . S
C1379 C1372 1.409 . S
C1379 C1378 1.362 . S
H1380 C1386 0.930 . S
H1381 C1389 0.930 . S
H1382 C1390 0.930 . S
H1383 C1391 0.930 . S
H1384 C1394 0.930 . S
H1385 C1395 0.930 . S
C1386 H1380 0.930 . S
C1386 C1387 1.355 . S
C1386 C1388 1.415 . S
C1387 C1386 1.355 . S
C1387 C1389 1.419 . S
C1388 C1386 1.415 . S
C1388 C1393 1.425 . S
C1388 C1395 1.409 . S
C1389 H1381 0.930 . S
C1389 C1387 1.419 . S
C1389 C1390 1.362 . S
C1390 H1382 0.930 . S
C1390 C1389 1.362 . S
C1390 C1393 1.409 . S
C1391 H1383 0.930 . S
C1391 C1392 1.355 . S
C1391 C1393 1.415 . S
C1392 C1391 1.355 . S
C1392 C1394 1.419 . S
C1393 C1388 1.425 . S
C1393 C1390 1.409 . S
C1393 C1391 1.415 . S
C1394 H1384 0.930 . S
C1394 C1392 1.419 . S
C1394 C1395 1.362 . S
C1395 H1385 0.930 . S
C1395 C1388 1.409 . S
C1395 C1394 1.362 . S
H1396 C1402 0.930 . S
H1397 C1405 0.930 . S
H1398 C1406 0.930 . S
H1399 C1407 0.930 . S
H1400 C1410 0.930 . S
H1401 C1411 0.930 . S
C1402 H1396 0.930 . S
C1402 C1403 1.355 . S
C1402 C1404 1.415 . S
C1403 C1402 1.355 . S
C1403 C1405 1.419 . S
C1404 C1402 1.415 . S
C1404 C1409 1.425 . S
C1404 C1411 1.409 . S
C1405 H1397 0.930 . S
C1405 C1403 1.419 . S
C1405 C1406 1.362 . S
C1406 H1398 0.930 . S
C1406 C1405 1.362 . S
C1406 C1409 1.409 . S
C1407 H1399 0.930 . S
C1407 C1408 1.355 . S
C1407 C1409 1.415 . S
C1408 C1407 1.355 . S
C1408 C1410 1.419 . S
C1409 C1404 1.425 . S
C1409 C1406 1.409 . S
C1409 C1407 1.415 . S
C1410 H1400 0.930 . S
C1410 C1408 1.419 . S
C1410 C1411 1.362 . S
C1411 H1401 0.930 . S
C1411 C1404 1.409 . S
C1411 C1410 1.362 . S
H1412 C1418 0.930 . S
H1413 C1421 0.930 . S
H1414 C1422 0.930 . S
H1415 C1423 0.930 . S
H1416 C1426 0.930 . S
H1417 C1427 0.930 . S
C1418 H1412 0.930 . S
C1418 C1419 1.355 . S
C1418 C1420 1.415 . S
C1419 C1418 1.355 . S
C1419 C1421 1.419 . S
C1420 C1418 1.415 . S
C1420 C1425 1.425 . S
C1420 C1427 1.409 . S
C1421 H1413 0.930 . S
C1421 C1419 1.419 . S
C1421 C1422 1.362 . S
C1422 H1414 0.930 . S
C1422 C1421 1.362 . S
C1422 C1425 1.409 . S
C1423 H1415 0.930 . S
C1423 C1424 1.355 . S
C1423 C1425 1.415 . S
C1424 C1423 1.355 . S
C1424 C1426 1.419 . S
C1425 C1420 1.425 . S
C1425 C1422 1.409 . S
C1425 C1423 1.415 . S
C1426 H1416 0.930 . S
C1426 C1424 1.419 . S
C1426 C1427 1.362 . S
C1427 H1417 0.930 . S
C1427 C1420 1.409 . S
C1427 C1426 1.362 . S
H1428 C1434 0.930 . S
H1429 C1437 0.930 . S
H1430 C1438 0.930 . S
H1431 C1439 0.930 . S
H1432 C1442 0.930 . S
H1433 C1443 0.930 . S
C1434 H1428 0.930 . S
C1434 C1435 1.355 . S
C1434 C1436 1.415 . S
C1435 C1434 1.355 . S
C1435 C1437 1.419 . S
C1436 C1434 1.415 . S
C1436 C1441 1.425 . S
C1436 C1443 1.409 . S
C1437 H1429 0.930 . S
C1437 C1435 1.419 . S
C1437 C1438 1.362 . S
C1438 H1430 0.930 . S
C1438 C1437 1.362 . S
C1438 C1441 1.409 . S
C1439 H1431 0.930 . S
C1439 C1440 1.355 . S
C1439 C1441 1.415 . S
C1440 C1439 1.355 . S
C1440 C1442 1.419 . S
C1441 C1436 1.425 . S
C1441 C1438 1.409 . S
C1441 C1439 1.415 . S
C1442 H1432 0.930 . S
C1442 C1440 1.419 . S
C1442 C1443 1.362 . S
C1443 H1433 0.930 . S
C1443 C1436 1.409 . S
C1443 C1442 1.362 . S
H1444 C1450 0.930 . S
H1445 C1453 0.930 . S
H1446 C1454 0.930 . S
H1447 C1455 0.930 . S
H1448 C1458 0.930 . S
H1449 C1459 0.930 . S
C1450 H1444 0.930 . S
C1450 C1451 1.355 . S
C1450 C1452 1.415 . S
C1451 C1450 1.355 . S
C1451 C1453 1.419 . S
C1452 C1450 1.415 . S
C1452 C1457 1.425 . S
C1452 C1459 1.409 . S
C1453 H1445 0.930 . S
C1453 C1451 1.419 . S
C1453 C1454 1.362 . S
C1454 H1446 0.930 . S
C1454 C1453 1.362 . S
C1454 C1457 1.409 . S
C1455 H1447 0.930 . S
C1455 C1456 1.355 . S
C1455 C1457 1.415 . S
C1456 C1455 1.355 . S
C1456 C1458 1.419 . S
C1457 C1452 1.425 . S
C1457 C1454 1.409 . S
C1457 C1455 1.415 . S
C1458 H1448 0.930 . S
C1458 C1456 1.419 . S
C1458 C1459 1.362 . S
C1459 H1449 0.930 . S
C1459 C1452 1.409 . S
C1459 C1458 1.362 . S
H1460 C1466 0.930 . S
H1461 C1469 0.930 . S
H1462 C1470 0.930 . S
H1463 C1471 0.930 . S
H1464 C1474 0.930 . S
H1465 C1475 0.930 . S
C1466 H1460 0.930 . S
C1466 C1467 1.355 . S
C1466 C1468 1.415 . S
C1467 C1466 1.355 . S
C1467 C1469 1.419 . S
C1468 C1466 1.415 . S
C1468 C1473 1.425 . S
C1468 C1475 1.409 . S
C1469 H1461 0.930 . S
C1469 C1467 1.419 . S
C1469 C1470 1.362 . S
C1470 H1462 0.930 . S
C1470 C1469 1.362 . S
C1470 C1473 1.409 . S
C1471 H1463 0.930 . S
C1471 C1472 1.355 . S
C1471 C1473 1.415 . S
C1472 C1471 1.355 . S
C1472 C1474 1.419 . S
C1473 C1468 1.425 . S
C1473 C1470 1.409 . S
C1473 C1471 1.415 . S
C1474 H1464 0.930 . S
C1474 C1472 1.419 . S
C1474 C1475 1.362 . S
C1475 H1465 0.930 . S
C1475 C1468 1.409 . S
C1475 C1474 1.362 . S
H1476 C1482 0.930 . S
H1477 C1485 0.930 . S
H1478 C1486 0.930 . S
H1479 C1487 0.930 . S
H1480 C1490 0.930 . S
H1481 C1491 0.930 . S
C1482 H1476 0.930 . S
C1482 C1483 1.355 . S
C1482 C1484 1.415 . S
C1483 C1482 1.355 . S
C1483 C1485 1.419 . S
C1484 C1482 1.415 . S
C1484 C1489 1.425 . S
C1484 C1491 1.409 . S
C1485 H1477 0.930 . S
C1485 C1483 1.419 . S
C1485 C1486 1.362 . S
C1486 H1478 0.930 . S
C1486 C1485 1.362 . S
C1486 C1489 1.409 . S
C1487 H1479 0.930 . S
C1487 C1488 1.355 . S
C1487 C1489 1.415 . S
C1488 C1487 1.355 . S
C1488 C1490 1.419 . S
C1489 C1484 1.425 . S
C1489 C1486 1.409 . S
C1489 C1487 1.415 . S
C1490 H1480 0.930 . S
C1490 C1488 1.419 . S
C1490 C1491 1.362 . S
C1491 H1481 0.930 . S
C1491 C1484 1.409 . S
C1491 C1490 1.362 . S
H1492 C1498 0.930 . S
H1493 C1501 0.930 . S
H1494 C1502 0.930 . S
H1495 C1503 0.930 . S
H1496 C1506 0.930 . S
H1497 C1507 0.930 . S
C1498 H1492 0.930 . S
C1498 C1499 1.355 . S
C1498 C1500 1.415 . S
C1499 C1498 1.355 . S
C1499 C1501 1.419 . S
C1500 C1498 1.415 . S
C1500 C1505 1.425 . S
C1500 C1507 1.409 . S
C1501 H1493 0.930 . S
C1501 C1499 1.419 . S
C1501 C1502 1.362 . S
C1502 H1494 0.930 . S
C1502 C1501 1.362 . S
C1502 C1505 1.409 . S
C1503 H1495 0.930 . S
C1503 C1504 1.355 . S
C1503 C1505 1.415 . S
C1504 C1503 1.355 . S
C1504 C1506 1.419 . S
C1505 C1500 1.425 . S
C1505 C1502 1.409 . S
C1505 C1503 1.415 . S
C1506 H1496 0.930 . S
C1506 C1504 1.419 . S
C1506 C1507 1.362 . S
C1507 H1497 0.930 . S
C1507 C1500 1.409 . S
C1507 C1506 1.362 . S
H1508 C1514 0.930 . S
H1509 C1517 0.930 . S
H1510 C1518 0.930 . S
H1511 C1519 0.930 . S
H1512 C1522 0.930 . S
H1513 C1523 0.930 . S
C1514 H1508 0.930 . S
C1514 C1515 1.355 . S
C1514 C1516 1.415 . S
C1515 C1514 1.355 . S
C1515 C1517 1.419 . S
C1516 C1514 1.415 . S
C1516 C1521 1.425 . S
C1516 C1523 1.409 . S
C1517 H1509 0.930 . S
C1517 C1515 1.419 . S
C1517 C1518 1.362 . S
C1518 H1510 0.930 . S
C1518 C1517 1.362 . S
C1518 C1521 1.409 . S
C1519 H1511 0.930 . S
C1519 C1520 1.355 . S
C1519 C1521 1.415 . S
C1520 C1519 1.355 . S
C1520 C1522 1.419 . S
C1521 C1516 1.425 . S
C1521 C1518 1.409 . S
C1521 C1519 1.415 . S
C1522 H1512 0.930 . S
C1522 C1520 1.419 . S
C1522 C1523 1.362 . S
C1523 H1513 0.930 . S
C1523 C1516 1.409 . S
C1523 C1522 1.362 . S
H1524 C1530 0.930 . S
H1525 C1533 0.930 . S
H1526 C1534 0.930 . S
H1527 C1535 0.930 . S
H1528 C1538 0.930 . S
H1529 C1539 0.930 . S
C1530 H1524 0.930 . S
C1530 C1531 1.355 . S
C1530 C1532 1.415 . S
C1531 C1530 1.355 . S
C1531 C1533 1.419 . S
C1532 C1530 1.415 . S
C1532 C1537 1.425 1_455 S
C1532 C1539 1.409 1_455 S
C1533 H1525 0.930 . S
C1533 C1531 1.419 . S
C1533 C1534 1.362 . S
C1534 H1526 0.930 . S
C1534 C1533 1.362 . S
C1534 C1537 1.409 1_455 S
C1535 H1527 0.930 . S
C1535 C1536 1.355 . S
C1535 C1537 1.415 . S
C1536 C1535 1.355 . S
C1536 C1538 1.419 . S
C1537 C1532 1.425 1_655 S
C1537 C1534 1.409 1_655 S
C1537 C1535 1.415 . S
C1538 H1528 0.930 . S
C1538 C1536 1.419 . S
C1538 C1539 1.362 . S
C1539 H1529 0.930 . S
C1539 C1532 1.409 1_655 S
C1539 C1538 1.362 . S
H1540 C1546 0.930 . S
H1541 C1549 0.930 . S
H1542 C1550 0.930 . S
H1543 C1551 0.930 . S
H1544 C1554 0.930 . S
H1545 C1555 0.930 . S
C1546 H1540 0.930 . S
C1546 C1547 1.355 . S
C1546 C1548 1.415 . S
C1547 C1546 1.355 . S
C1547 C1549 1.419 . S
C1548 C1546 1.415 . S
C1548 C1553 1.425 . S
C1548 C1555 1.409 . S
C1549 H1541 0.930 . S
C1549 C1547 1.419 . S
C1549 C1550 1.362 . S
C1550 H1542 0.930 . S
C1550 C1549 1.362 . S
C1550 C1553 1.409 . S
C1551 H1543 0.930 . S
C1551 C1552 1.355 . S
C1551 C1553 1.415 . S
C1552 C1551 1.355 . S
C1552 C1554 1.419 . S
C1553 C1548 1.425 . S
C1553 C1550 1.409 . S
C1553 C1551 1.415 . S
C1554 H1544 0.930 . S
C1554 C1552 1.419 . S
C1554 C1555 1.362 . S
C1555 H1545 0.930 . S
C1555 C1548 1.409 . S
C1555 C1554 1.362 . S
H1556 C1562 0.930 . S
H1557 C1565 0.930 . S
H1558 C1566 0.907 1_565 S
H1559 C1567 0.930 . S
H1560 C1570 0.930 . S
H1561 C1571 0.907 1_545 S
C1562 H1556 0.930 . S
C1562 C1563 1.355 . S
C1562 C1564 1.415 . S
C1563 C1562 1.355 . S
C1563 C1565 1.419 . S
C1564 C1562 1.415 . S
C1564 C1569 1.425 1_545 S
C1564 C1571 1.409 1_545 S
C1565 H1557 0.930 . S
C1565 C1563 1.419 . S
C1565 C1566 1.362 . S
C1566 H1558 0.907 1_545 S
C1566 C1565 1.362 . S
C1566 C1569 1.409 1_545 S
C1567 H1559 0.930 . S
C1567 C1568 1.355 . S
C1567 C1569 1.415 . S
C1568 C1567 1.355 . S
C1568 C1570 1.419 . S
C1569 C1564 1.425 1_565 S
C1569 C1566 1.409 1_565 S
C1569 C1567 1.415 . S
C1570 H1560 0.930 . S
C1570 C1568 1.419 . S
C1570 C1571 1.362 . S
C1571 H1561 0.907 1_565 S
C1571 C1564 1.409 1_565 S
C1571 C1570 1.362 . S
H1572 C1578 0.930 . S
H1573 C1581 0.930 . S
H1574 C1582 0.930 . S
H1575 C1583 0.930 . S
H1576 C1586 0.930 . S
H1577 C1587 0.930 . S
C1578 H1572 0.930 . S
C1578 C1579 1.355 . S
C1578 C1580 1.415 . S
C1579 C1578 1.355 . S
C1579 C1581 1.419 1_554 S
C1580 C1578 1.415 . S
C1580 C1585 1.425 1_544 S
C1580 C1587 1.409 1_545 S
C1581 H1573 0.930 . S
C1581 C1579 1.419 1_556 S
C1581 C1582 1.362 . S
C1582 H1574 0.930 . S
C1582 C1581 1.362 . S
C1582 C1585 1.409 1_545 S
C1583 H1575 0.930 . S
C1583 C1584 1.355 . S
C1583 C1585 1.415 . S
C1584 C1583 1.355 . S
C1584 C1586 1.419 1_556 S
C1585 C1580 1.425 1_566 S
C1585 C1582 1.409 1_565 S
C1585 C1583 1.415 . S
C1586 H1576 0.930 . S
C1586 C1584 1.419 1_554 S
C1586 C1587 1.362 . S
C1587 H1577 0.930 . S
C1587 C1580 1.409 1_565 S
C1587 C1586 1.362 . S
H1588 C1594 0.930 . S
H1589 C1597 0.930 . S
H1590 C1598 0.930 1_455 S
H1591 C1599 0.930 . S
H1592 C1602 0.930 . S
H1593 C1603 0.930 1_655 S
C1594 H1588 0.930 . S
C1594 C1595 1.355 1_556 S
C1594 C1596 1.415 . S
C1595 C1594 1.355 1_554 S
C1595 C1597 1.419 . S
C1596 C1594 1.415 . S
C1596 C1601 1.425 1_656 S
C1596 C1603 1.409 1_655 S
C1597 H1589 0.930 . S
C1597 C1595 1.419 . S
C1597 C1598 1.362 . S
C1598 H1590 0.930 1_655 S
C1598 C1597 1.362 . S
C1598 C1601 1.409 1_655 S
C1599 H1591 0.930 . S
C1599 C1600 1.355 1_554 S
C1599 C1601 1.415 . S
C1600 C1599 1.355 1_556 S
C1600 C1602 1.419 . S
C1601 C1596 1.425 1_454 S
C1601 C1598 1.409 1_455 S
C1601 C1599 1.415 . S
C1602 H1592 0.930 . S
C1602 C1600 1.419 . S
C1602 C1603 1.362 . S
C1603 H1593 0.930 1_455 S
C1603 C1596 1.409 1_455 S
C1603 C1602 1.362 . S
H1604 C1610 0.930 . S
H1605 C1613 0.930 . S
H1606 C1614 0.930 . S
H1607 C1615 0.930 . S
H1608 C1618 0.930 . S
H1609 C1619 0.930 . S
C1610 H1604 0.930 . S
C1610 C1611 1.355 . S
C1610 C1612 1.415 . S
C1611 C1610 1.355 . S
C1611 C1613 1.417 1_554 S
C1612 C1610 1.415 . S
C1612 C1617 1.425 1_554 S
C1612 C1619 1.409 . S
C1613 H1605 0.930 . S
C1613 C1611 1.417 1_556 S
C1613 C1614 1.364 . S
C1614 H1606 0.930 . S
C1614 C1613 1.364 . S
C1614 C1617 1.409 . S
C1615 H1607 0.930 . S
C1615 C1616 1.355 . S
C1615 C1617 1.415 . S
C1616 C1615 1.355 . S
C1616 C1618 1.417 1_556 S
C1617 C1612 1.425 1_556 S
C1617 C1614 1.409 . S
C1617 C1615 1.415 . S
C1618 H1608 0.930 . S
C1618 C1616 1.417 1_554 S
C1618 C1619 1.364 . S
C1619 H1609 0.930 . S
C1619 C1612 1.409 . S
C1619 C1618 1.364 . S
C475 C134 1.412 . S
C480 C5 1.390 . S
C491 C147 1.371 . S
C496 C18 1.398 . S
C507 C29 1.409 . S
C512 C121 1.406 . S
C523 C44 1.411 . S
C528 C108 1.401 . S
C539 C57 1.410 . S
C544 C82 1.404 . S
C555 C101 1.361 . S
C560 C68 1.382 . S
C571 C56 1.362 . S
C576 C83 1.362 . S
C587 C75 1.363 . S
C592 C94 1.361 . S
C603 C109 1.385 . S
C608 C43 1.362 . S
C619 C36 1.394 . S
C624 C122 1.362 . S
C635 C135 1.409 . S
C640 C4 1.406 . S
C651 C148 1.375 . S
C656 C17 1.406 . S
C667 C296 1.365 . S
C672 C161 1.390 . S
C683 C303 1.410 . S
C688 C174 1.384 . S
C699 C187 1.393 . S
C704 C277 1.412 . S
C715 C200 1.368 . S
C720 C264 1.400 1_556 S
C731 C213 1.390 . S
C736 C238 1.412 1_556 S
C747 C226 1.376 . S
C752 C251 1.406 1_556 S
C763 C212 1.380 . S
C768 C239 1.406 . S
C779 C225 1.405 . S
C784 C252 1.409 . S
C795 C199 1.399 . S
C800 C265 1.367 . S
C811 C186 1.384 . S
C816 C278 1.408 . S
C827 C160 1.375 . S
C832 C289 1.355 . S
C843 C173 1.412 . S
C848 C304 1.389 . S
C859 C315 1.381 . S
C864 C452 1.361 . S
C875 C459 1.376 . S
C880 C328 1.355 . S
C891 C433 1.385 . S
C896 C341 1.357 . S
C907 C356 1.409 . S
C912 C426 1.406 . S
C923 C367 1.408 . S
C928 C400 1.384 . S
C939 C382 1.410 . S
C944 C413 1.391 . S
C955 C374 1.389 . S
C960 C393 1.359 . S
C971 C381 1.360 . S
C976 C406 1.367 . S
C987 C355 1.396 . S
C992 C419 1.364 . S
C1003 C434 1.372 . S
C1008 C348 1.359 1_554 S
C1019 C322 1.359 1_554 S
C1024 C445 1.373 . S
C1035 C460 1.363 . S
C1040 C335 1.395 1_554 S
C1051 C49 1.551 . S
C1056 C10 1.558 . S
C1067 C62 1.553 . S
C1072 C23 1.552 . S
C1083 C30 1.551 . S
C1088 C69 1.559 . S
C1099 C127 1.550 . S
C1104 C88 1.558 . S
C1115 C140 1.558 . S
C1120 C95 1.552 . S
C1131 C153 1.559 . S
C1136 C114 1.551 . S
C1147 C205 1.551 . S
C1152 C166 1.558 . S
C1163 C218 1.552 . S
C1168 C179 1.553 . S
C1179 C192 1.551 . S
C1184 C231 1.558 . S
C1195 C244 1.557 . S
C1200 C283 1.551 . S
C1211 C290 1.551 . S
C1216 C257 1.558 . S
C1227 C270 1.550 . S
C1232 C309 1.557 . S
C1243 C361 1.550 . S
C1248 C316 1.558 . S
C1259 C368 1.558 . S
C1264 C329 1.550 . S
C1275 C342 1.555 . S
C1280 C387 1.552 . S
C1291 C394 1.558 . S
C1296 C439 1.551 . S
C1307 C407 1.551 . S
C1312 C446 1.555 . S
C1323 C420 1.559 . S
C1328 C465 1.552 . S
C1339 C3 1.542 . S
C1344 C237 1.542 . S
C1355 C250 1.543 . S
C1360 C16 1.543 . S
C1371 C263 1.539 . S
C1376 C31 1.539 . S
C1387 C432 1.540 . S
C1392 C42 1.540 . S
C1403 C447 1.543 . S
C1408 C55 1.543 . S
C1419 C458 1.543 . S
C1424 C70 1.543 . S
C1435 C81 1.543 . S
C1440 C317 1.543 . S
C1451 C330 1.543 . S
C1456 C96 1.543 . S
C1467 C343 1.539 . S
C1472 C107 1.539 . S
C1483 C120 1.542 . S
C1488 C198 1.542 . S
C1499 C133 1.543 . S
C1504 C211 1.543 . S
C1515 C146 1.543 . S
C1520 C224 1.543 . S
C1531 C395 1.540 . S
C1536 C159 1.540 . S
C1547 C408 1.541 . S
C1552 C172 1.541 . S
C1563 C185 1.540 . S
C1568 C421 1.540 . S
C1579 C276 1.540 . S
C1584 C354 1.540 . S
C1595 C291 1.541 . S
C1600 C369 1.541 . S
C1611 C302 1.542 . S
C1616 C380 1.542 . S
