# Generated by pormake.
# Topology wlk, (5)-cn, num edge types: 1
# Building blocks:
#     Node 0, Type 0, BuildingBlock: XOMCOT_clean_sbu_1, # of connection points: 5
#     Node 1, Type 0, BuildingBlock: XOMCOT_clean_sbu_1, # of connection points: 5
#     Node 2, Type 0, BuildingBlock: XOMCOT_clean_sbu_1, # of connection points: 5
#     Node 3, Type 0, BuildingBlock: XOMCOT_clean_sbu_1, # of connection points: 5
#     Node 4, Type 0, BuildingBlock: XOMCOT_clean_sbu_1, # of connection points: 5
#     Node 5, Type 0, BuildingBlock: XOMCOT_clean_sbu_1, # of connection points: 5
#     Node 6, Type 0, BuildingBlock: XOMCOT_clean_sbu_1, # of connection points: 5
#     Node 7, Type 0, BuildingBlock: XOMCOT_clean_sbu_1, # of connection points: 5
#     Node 8, Type 0, BuildingBlock: XOMCOT_clean_sbu_1, # of connection points: 5
#     Node 9, Type 0, BuildingBlock: XOMCOT_clean_sbu_1, # of connection points: 5
#     Node 10, Type 0, BuildingBlock: XOMCOT_clean_sbu_1, # of connection points: 5
#     Node 11, Type 0, BuildingBlock: XOMCOT_clean_sbu_1, # of connection points: 5
#     Node 12, Type 0, BuildingBlock: XOMCOT_clean_sbu_1, # of connection points: 5
#     Node 13, Type 0, BuildingBlock: XOMCOT_clean_sbu_1, # of connection points: 5
#     Node 14, Type 0, BuildingBlock: XOMCOT_clean_sbu_1, # of connection points: 5
#     Node 15, Type 0, BuildingBlock: XOMCOT_clean_sbu_1, # of connection points: 5
#     Node 16, Type 0, BuildingBlock: XOMCOT_clean_sbu_1, # of connection points: 5
#     Node 17, Type 0, BuildingBlock: XOMCOT_clean_sbu_1, # of connection points: 5
#     Edge 18, Type (0, 0), BuildingBlock: AJUNOK_clean_linker_0, # of connection points: 2
#     Edge 19, Type (0, 0), BuildingBlock: AJUNOK_clean_linker_0, # of connection points: 2
#     Edge 20, Type (0, 0), BuildingBlock: AJUNOK_clean_linker_0, # of connection points: 2
#     Edge 21, Type (0, 0), BuildingBlock: AJUNOK_clean_linker_0, # of connection points: 2
#     Edge 22, Type (0, 0), BuildingBlock: AJUNOK_clean_linker_0, # of connection points: 2
#     Edge 23, Type (0, 0), BuildingBlock: AJUNOK_clean_linker_0, # of connection points: 2
#     Edge 24, Type (0, 0), BuildingBlock: AJUNOK_clean_linker_0, # of connection points: 2
#     Edge 25, Type (0, 0), BuildingBlock: AJUNOK_clean_linker_0, # of connection points: 2
#     Edge 26, Type (0, 0), BuildingBlock: AJUNOK_clean_linker_0, # of connection points: 2
#     Edge 27, Type (0, 0), BuildingBlock: AJUNOK_clean_linker_0, # of connection points: 2
#     Edge 28, Type (0, 0), BuildingBlock: AJUNOK_clean_linker_0, # of connection points: 2
#     Edge 29, Type (0, 0), BuildingBlock: AJUNOK_clean_linker_0, # of connection points: 2
#     Edge 30, Type (0, 0), BuildingBlock: AJUNOK_clean_linker_0, # of connection points: 2
#     Edge 31, Type (0, 0), BuildingBlock: AJUNOK_clean_linker_0, # of connection points: 2
#     Edge 32, Type (0, 0), BuildingBlock: AJUNOK_clean_linker_0, # of connection points: 2
#     Edge 33, Type (0, 0), BuildingBlock: AJUNOK_clean_linker_0, # of connection points: 2
#     Edge 34, Type (0, 0), BuildingBlock: AJUNOK_clean_linker_0, # of connection points: 2
#     Edge 35, Type (0, 0), BuildingBlock: AJUNOK_clean_linker_0, # of connection points: 2
#     Edge 36, Type (0, 0), BuildingBlock: AJUNOK_clean_linker_0, # of connection points: 2
#     Edge 37, Type (0, 0), BuildingBlock: AJUNOK_clean_linker_0, # of connection points: 2
#     Edge 38, Type (0, 0), BuildingBlock: AJUNOK_clean_linker_0, # of connection points: 2
#     Edge 39, Type (0, 0), BuildingBlock: AJUNOK_clean_linker_0, # of connection points: 2
#     Edge 40, Type (0, 0), BuildingBlock: AJUNOK_clean_linker_0, # of connection points: 2
#     Edge 41, Type (0, 0), BuildingBlock: AJUNOK_clean_linker_0, # of connection points: 2
#     Edge 42, Type (0, 0), BuildingBlock: AJUNOK_clean_linker_0, # of connection points: 2
#     Edge 43, Type (0, 0), BuildingBlock: AJUNOK_clean_linker_0, # of connection points: 2
#     Edge 44, Type (0, 0), BuildingBlock: AJUNOK_clean_linker_0, # of connection points: 2
#     Edge 45, Type (0, 0), BuildingBlock: AJUNOK_clean_linker_0, # of connection points: 2
#     Edge 46, Type (0, 0), BuildingBlock: AJUNOK_clean_linker_0, # of connection points: 2
#     Edge 47, Type (0, 0), BuildingBlock: AJUNOK_clean_linker_0, # of connection points: 2
#     Edge 48, Type (0, 0), BuildingBlock: AJUNOK_clean_linker_0, # of connection points: 2
#     Edge 49, Type (0, 0), BuildingBlock: AJUNOK_clean_linker_0, # of connection points: 2
#     Edge 50, Type (0, 0), BuildingBlock: AJUNOK_clean_linker_0, # of connection points: 2
#     Edge 51, Type (0, 0), BuildingBlock: AJUNOK_clean_linker_0, # of connection points: 2
#     Edge 52, Type (0, 0), BuildingBlock: AJUNOK_clean_linker_0, # of connection points: 2
#     Edge 53, Type (0, 0), BuildingBlock: AJUNOK_clean_linker_0, # of connection points: 2
#     Edge 54, Type (0, 0), BuildingBlock: AJUNOK_clean_linker_0, # of connection points: 2
#     Edge 55, Type (0, 0), BuildingBlock: AJUNOK_clean_linker_0, # of connection points: 2
#     Edge 56, Type (0, 0), BuildingBlock: AJUNOK_clean_linker_0, # of connection points: 2
#     Edge 57, Type (0, 0), BuildingBlock: AJUNOK_clean_linker_0, # of connection points: 2
#     Edge 58, Type (0, 0), BuildingBlock: AJUNOK_clean_linker_0, # of connection points: 2
#     Edge 59, Type (0, 0), BuildingBlock: AJUNOK_clean_linker_0, # of connection points: 2
#     Edge 60, Type (0, 0), BuildingBlock: AJUNOK_clean_linker_0, # of connection points: 2
#     Edge 61, Type (0, 0), BuildingBlock: AJUNOK_clean_linker_0, # of connection points: 2
#     Edge 62, Type (0, 0), BuildingBlock: AJUNOK_clean_linker_0, # of connection points: 2
# Relax obj value: 0.165
# Max RMSD: 0.220
# Mean RMSD: 0.220
data_MOF--net-wlk--node1-XOMCOT_clean_sbu_1--edge1-AJUNOK_clean_linker_0
_symmetry_space_group_name_H-M    P1
_symmetry_Int_Tables_number       1
_symmetry_cell_setting            triclinic
loop_
_symmetry_equiv_pos_as_xyz
'x, y, z'
_cell_length_a     49.524114
_cell_length_b     49.08556
_cell_length_c     21.665029
_cell_angle_alpha  89.788318
_cell_angle_beta   89.966482
_cell_angle_gamma 119.8808
loop_
_atom_site_label
_atom_site_type_symbol
_atom_site_fract_x
_atom_site_fract_y
_atom_site_fract_z
_atom_type_partial_charge
C0 C 0.24204 0.27963 0.95709 0.0
C1 C 0.24401 0.25508 0.93148 0.0
N2 N 0.22763 0.22909 0.96648 0.0
N3 N 0.22506 0.26997 1.00949 0.0
C4 C 0.21503 0.23862 0.01173 0.0
H5 H 0.25364 0.30346 0.93966 0.0
Co6 Co 0.21932 0.29638 0.06759 0.0
C7 C 0.2522 0.26872 0.14529 0.0
O8 O 0.25847 0.25586 0.09871 0.0
N9 N 0.21267 0.32187 0.12465 0.0
C10 C 0.19323 0.35028 0.16446 0.0
C11 C 0.19637 0.33645 0.11178 0.0
C12 C 0.2189 0.327 0.18606 0.0
N13 N 0.20739 0.34438 0.21159 0.0
O14 O 0.17673 0.26307 0.08335 0.0
H15 H 0.18653 0.33625 0.06712 0.0
H16 H 0.2303 0.31689 0.21234 0.0
O17 O 0.23767 0.28394 0.13679 0.0
C18 C 0.15949 0.26244 0.03848 0.0
O19 O 0.17324 0.28008 0.98988 0.0
N20 N 0.25902 0.3311 0.04654 0.0
C21 C 0.31231 0.38206 0.99369 0.0
C22 C 0.31416 0.35809 0.02594 0.0
C23 C 0.28739 0.33303 0.0524 0.0
C24 C 0.25679 0.35412 0.01536 0.0
C25 C 0.28303 0.37987 0.98942 0.0
H26 H 0.28955 0.31451 0.074 0.0
H27 H 0.23423 0.35194 1.00827 0.0
H28 H 0.20032 0.22374 0.04857 0.0
H29 H 0.25839 0.25704 0.89223 0.0
H30 H 0.18101 0.36336 0.16781 0.0
H31 H 0.3358 0.35774 0.02841 0.0
H32 H 0.28017 0.39754 0.96495 0.0
C33 C 0.77794 0.9785 0.95289 0.0
C34 C 0.80222 1.00525 0.92748 0.0
N35 N 0.82755 1.01523 0.96363 0.0
N36 N 0.78719 0.97131 1.00606 0.0
C37 C 0.81802 0.99318 1.00945 0.0
H38 H 0.75456 0.96609 0.93471 0.0
Co39 Co 0.7608 0.93909 0.06422 0.0
C40 C 0.7859 0.99997 0.13895 0.0
O41 O 0.79556 1.01829 0.0902 0.0
N42 N 0.73518 0.90682 0.12173 0.0
C43 C 0.70242 0.85933 0.16034 0.0
C44 C 0.71604 0.87635 0.1074 0.0
C45 C 0.73326 0.90743 0.18441 0.0
N46 N 0.7132 0.87887 0.20892 0.0
O47 O 0.79405 0.92955 0.08031 0.0
H48 H 0.71287 0.86671 0.0615 0.0
H49 H 0.74655 0.92823 0.21204 0.0
O50 O 0.77272 0.97005 0.13298 0.0
C51 C 0.79039 0.90973 0.03799 0.0
O52 O 0.76937 0.90429 0.9955 0.0
N53 N 0.7261 0.94395 0.04165 0.0
C54 C 0.67457 0.9445 0.98774 0.0
C55 C 0.69554 0.9692 0.02579 0.0
C56 C 0.72098 0.96842 0.0525 0.0
C57 C 0.70608 0.91994 1.00446 0.0
C58 C 0.68015 0.91952 0.97785 0.0
H59 H 0.73687 0.98823 0.07939 0.0
H60 H 0.71093 0.90143 0.99305 0.0
H61 H 0.83248 0.99388 0.04742 0.0
H62 H 0.8005 1.01761 0.88756 0.0
H63 H 0.68671 0.83422 0.16309 0.0
H64 H 0.69319 0.98973 0.03303 0.0
H65 H 0.66496 0.89998 0.94865 0.0
C66 C 0.09173 0.85792 0.97714 0.0
C67 C 0.06402 0.85334 0.95277 0.0
N68 N 0.04038 0.83151 0.98704 0.0
N69 N 0.08589 0.83893 0.02655 0.0
C70 C 0.05431 0.82292 0.03098 0.0
H71 H 0.11477 0.87441 0.9602 0.0
Co72 Co 0.11657 0.83783 0.07819 0.0
C73 C 0.08069 0.80406 0.19603 0.0
O74 O 0.10294 0.79981 0.21813 0.0
N75 N 0.14771 0.83764 0.13022 0.0
C76 C 0.18381 0.82821 0.16994 0.0
C77 C 0.16545 0.82439 0.11917 0.0
C78 C 0.15705 0.8508 0.18691 0.0
N79 N 0.17829 0.84458 0.21301 0.0
O80 O 0.13066 0.88112 0.10338 0.0
H81 H 0.1645 0.81181 0.07763 0.0
H82 H 0.14695 0.86308 0.2103 0.0
O83 O 0.08412 0.81822 0.14419 0.0
C84 C 0.15553 0.89806 0.07174 0.0
O85 O 0.16478 0.88368 0.03328 0.0
N86 N 0.1064 0.79804 0.04527 0.0
C87 C 0.10533 0.74798 0.98027 0.0
C88 C 0.09582 0.74445 0.04248 0.0
C89 C 0.09632 0.76974 0.07414 0.0
C90 C 0.11512 0.80155 0.98482 0.0
C91 C 0.11423 0.77691 0.95144 0.0
H92 H 0.09017 0.76678 0.12225 0.0
H93 H 0.124 0.82418 0.9626 0.0
H94 H 0.04169 0.80513 0.06565 0.0
H95 H 0.06152 0.86579 0.91385 0.0
H96 H 0.19875 0.81815 0.17585 0.0
H97 H 0.08931 0.72289 0.0674 0.0
H98 H 0.12123 0.78091 0.9034 0.0
C99 C 0.85398 0.78922 0.05424 0.0
C100 C 0.85015 0.8135 0.07575 0.0
N101 N 0.84233 0.82575 0.02804 0.0
N102 N 0.84736 0.78472 0.99323 0.0
C103 C 0.84196 0.80864 0.97859 0.0
H104 H 0.86168 0.77616 0.08218 0.0
Co105 Co 0.84873 0.75337 0.93999 0.0
C106 C 0.80218 0.76357 0.87243 0.0
O107 O 0.78671 0.75858 0.92442 0.0
N108 N 0.85112 0.72406 0.88671 0.0
C109 C 0.85348 0.68294 0.85015 0.0
C110 C 0.85091 0.69739 0.90269 0.0
C111 C 0.85409 0.7254 0.82427 0.0
N112 N 0.85528 0.70047 0.80055 0.0
O113 O 0.89112 0.78462 0.91648 0.0
H114 H 0.84894 0.68896 0.94959 0.0
H115 H 0.85604 0.74475 0.7968 0.0
O116 O 0.82818 0.76372 0.87164 0.0
C117 C 0.907 0.77973 0.95755 0.0
O118 O 0.89162 0.75685 0.99742 0.0
N119 N 0.80991 0.72042 0.97156 0.0
C120 C 0.761 0.6687 0.03315 0.0
C121 C 0.75876 0.67397 0.96994 0.0
C122 C 0.7839 0.69956 0.93956 0.0
C123 C 0.81263 0.71442 0.03199 0.0
C124 C 0.78838 0.68968 0.0639 0.0
H125 H 0.78278 0.70197 0.89024 0.0
H126 H 0.83447 0.72776 0.05528 0.0
H127 H 0.83832 0.81407 0.93212 0.0
H128 H 0.8521 0.82077 0.12337 0.0
H129 H 0.85357 0.66095 0.84858 0.0
H130 H 0.73835 0.6579 0.94389 0.0
H131 H 0.79148 0.6867 0.11246 0.0
C132 C 0.27165 0.0817 0.06662 0.0
C133 C 0.24942 0.05399 0.09356 0.0
N134 N 0.23462 0.03288 0.0487 0.0
N135 N 0.27137 0.07813 1.00484 0.0
C136 C 0.24839 0.04801 0.9954 0.0
H137 H 0.28794 0.10278 0.09085 0.0
Co138 Co 0.30011 0.10925 0.94938 0.0
C139 C 0.30878 0.07315 0.84843 0.0
O140 O 0.33848 0.09449 0.84766 0.0
N141 N 0.32858 0.1411 0.8927 0.0
C142 C 0.36906 0.18293 0.84954 0.0
C143 C 0.35664 0.16671 0.90361 0.0
C144 C 0.32415 0.14341 0.83122 0.0
N145 N 0.34883 0.16818 0.80344 0.0
O146 O 0.26787 0.11836 0.92197 0.0
H147 H 0.36792 0.17395 0.9477 0.0
H148 H 0.30309 0.12699 0.80741 0.0
O149 O 0.2902 0.07605 0.88588 0.0
C150 C 0.26851 0.13815 0.96136 0.0
O151 O 0.28858 0.14645 1.00687 0.0
N152 N 0.33224 0.10348 0.98434 0.0
C153 C 0.37925 0.10036 0.0517 0.0
C154 C 0.35809 0.07504 0.01506 0.0
C155 C 0.33451 0.07685 0.98261 0.0
C156 C 0.35087 0.12703 0.02369 0.0
C157 C 0.37523 0.12665 0.0555 0.0
H158 H 0.31755 0.05635 0.95828 0.0
H159 H 0.34648 0.14622 0.03138 0.0
H160 H 0.24242 0.03696 0.95063 0.0
H161 H 0.24547 0.04921 0.14255 0.0
H162 H 0.39166 0.20381 0.84458 0.0
H163 H 0.35913 0.05354 0.01281 0.0
H164 H 0.39059 0.14685 0.08297 0.0
C165 C 0.97659 0.20026 0.05042 0.0
C166 C 1.00429 0.20467 0.07424 0.0
N167 N 1.02649 0.21774 0.0303 0.0
N168 N 0.98077 0.21009 0.99122 0.0
C169 C 1.01144 0.22051 0.98025 0.0
H170 H 0.95468 0.19039 0.07496 0.0
Co171 Co 0.94867 0.20857 0.94052 0.0
C172 C 0.98085 0.25009 0.83245 0.0
O173 O 0.9601 0.2593 0.83397 0.0
N174 N 0.91584 0.2062 0.88911 0.0
C175 C 0.87665 0.21107 0.85073 0.0
C176 C 0.89438 0.21473 0.90206 0.0
C177 C 0.90958 0.19628 0.82946 0.0
N178 N 0.88603 0.19935 0.80469 0.0
O179 O 0.93741 0.16609 0.914 0.0
H180 H 0.89167 0.2238 0.9453 0.0
H181 H 0.9228 0.18788 0.80406 0.0
O182 O 0.97937 0.22986 0.87221 0.0
C183 C 0.9168 0.14773 0.95316 0.0
O184 O 0.90834 0.16065 0.99644 0.0
N185 N 0.95651 0.24735 0.97529 0.0
C186 C 0.9593 0.29741 0.04262 0.0
C187 C 0.98233 0.30264 0.99867 0.0
C188 C 0.98077 0.27717 0.96596 0.0
C189 C 0.93579 0.24181 0.02176 0.0
C190 C 0.93621 0.26638 0.05472 0.0
H191 H 0.99948 0.28158 0.93471 0.0
H192 H 0.91821 0.21791 0.03255 0.0
H193 H 1.0227 0.23026 0.93655 0.0
H194 H 1.00744 0.198 0.12015 0.0
H195 H 0.8591 0.21798 0.84728 0.0
H196 H 1.0015 0.32614 0.99014 0.0
H197 H 0.919 0.26101 0.09059 0.0
C198 C 0.88797 0.59872 0.28508 0.0
C199 C 0.89154 0.57443 0.26299 0.0
N200 N 0.8881 0.55499 0.31008 0.0
N201 N 0.8831 0.59566 0.34676 0.0
C202 C 0.88214 0.56801 0.35988 0.0
H203 H 0.88953 0.61757 0.25696 0.0
Co204 Co 0.87889 0.62393 0.40346 0.0
C205 C 0.9262 0.6124 0.46331 0.0
O206 O 0.93845 0.61565 0.40807 0.0
N207 N 0.87391 0.65065 0.45927 0.0
C208 C 0.86884 0.69027 0.49513 0.0
C209 C 0.87266 0.67651 0.44308 0.0
C210 C 0.87041 0.64898 0.52169 0.0
N211 N 0.86705 0.67282 0.5449 0.0
O212 O 0.83752 0.59016 0.42625 0.0
H213 H 0.87466 0.68504 0.39628 0.0
H214 H 0.86993 0.6304 0.54953 0.0
O215 O 0.90106 0.61375 0.46957 0.0
C216 C 0.81897 0.58815 0.38279 0.0
O217 O 0.831 0.60584 0.33352 0.0
N218 N 0.91681 0.65937 0.37485 0.0
C219 C 0.96711 0.71284 0.32038 0.0
C220 C 0.96955 0.7025 0.37979 0.0
C221 C 0.94372 0.67678 0.40728 0.0
C222 C 0.91325 0.6706 0.31958 0.0
C223 C 0.93799 0.69684 0.29126 0.0
H224 H 0.94553 0.67127 0.45476 0.0
H225 H 0.89066 0.65952 0.29776 0.0
H226 H 0.87847 0.55826 0.40603 0.0
H227 H 0.89806 0.5725 0.21625 0.0
H228 H 0.86819 0.71197 0.496 0.0
H229 H 0.99121 0.71383 0.40511 0.0
H230 H 0.93414 0.70465 0.24702 0.0
C231 C 0.45969 0.29758 0.29758 0.0
C232 C 0.48261 0.32516 0.27169 0.0
N233 N 0.49265 0.34807 0.31437 0.0
N234 N 0.45518 0.30245 0.35695 0.0
C235 C 0.4757 0.3335 0.36586 0.0
H236 H 0.44709 0.27527 0.27425 0.0
Co237 Co 0.42548 0.27032 0.40977 0.0
C238 C 0.41901 0.30374 0.51953 0.0
O239 O 0.38935 0.28245 0.52284 0.0
N240 N 0.396 0.23734 0.46254 0.0
C241 C 0.35364 0.1955 0.50043 0.0
C242 C 0.36702 0.21391 0.44896 0.0
C243 C 0.39993 0.2316 0.52246 0.0
N244 N 0.37429 0.20662 0.54699 0.0
O245 O 0.45643 0.25882 0.43478 0.0
H246 H 0.35572 0.21015 0.40483 0.0
H247 H 0.42103 0.24611 0.5482 0.0
O248 O 0.43621 0.30185 0.47718 0.0
C249 C 0.45463 0.23792 0.39681 0.0
O250 O 0.43481 0.22983 0.35098 0.0
N251 N 0.39431 0.27816 0.37751 0.0
C252 C 0.3444 0.2784 0.31697 0.0
C253 C 0.36202 0.30148 0.36093 0.0
C254 C 0.38735 0.3013 0.39002 0.0
C255 C 0.37932 0.2577 0.33069 0.0
C256 C 0.3542 0.2571 0.30051 0.0
H257 H 0.40125 0.31998 0.42159 0.0
H258 H 0.38653 0.24102 0.31767 0.0
H259 H 0.47801 0.34536 0.40912 0.0
H260 H 0.49156 0.3277 0.22523 0.0
H261 H 0.32999 0.17612 0.50369 0.0
H262 H 0.35623 0.31936 0.37292 0.0
H263 H 0.34264 0.2401 0.26419 0.0
C264 C 0.75146 0.17326 0.30188 0.0
C265 C 0.72368 0.16924 0.27937 0.0
N266 N 0.7029 0.16008 0.32603 0.0
N267 N 0.74867 0.16665 0.36278 0.0
C268 C 0.71876 0.15862 0.3761 0.0
H269 H 0.77246 0.18059 0.27525 0.0
Co270 Co 0.78147 0.16965 0.41354 0.0
C271 C 0.75039 0.12906 0.52415 0.0
O272 O 0.77234 0.12146 0.52474 0.0
N273 N 0.81481 0.17369 0.46481 0.0
C274 C 0.85451 0.17064 0.50597 0.0
C275 C 0.83675 0.16561 0.45378 0.0
C276 C 0.82076 0.18479 0.52359 0.0
N277 N 0.8442 0.18229 0.55054 0.0
O278 O 0.79189 0.2121 0.4381 0.0
H279 H 0.83953 0.15587 0.41134 0.0
H280 H 0.80733 0.19364 0.54659 0.0
O281 O 0.75104 0.14825 0.4827 0.0
C282 C 0.81144 0.23048 0.39739 0.0
O283 O 0.81873 0.21774 0.35187 0.0
N284 N 0.77473 0.13085 0.38069 0.0
C285 C 0.77537 0.08156 0.31597 0.0
C286 C 0.75385 0.07536 0.36401 0.0
C287 C 0.75321 0.10034 0.39441 0.0
C288 C 0.79441 0.13712 0.33203 0.0
C289 C 0.7952 0.11311 0.2994 0.0
H290 H 0.73522 0.09475 0.42818 0.0
H291 H 0.81021 0.16125 0.31904 0.0
H292 H 0.7087 0.1513 0.42149 0.0
H293 H 0.7193 0.17311 0.23212 0.0
H294 H 0.87281 0.16486 0.51134 0.0
H295 H 0.73773 0.05155 0.37855 0.0
H296 H 0.81132 0.11941 0.2611 0.0
C297 C 0.5068 0.10843 0.40925 0.0
C298 C 0.50179 0.13104 0.4359 0.0
N299 N 0.49744 0.14755 0.39086 0.0
N300 N 0.50601 0.1105 0.34733 0.0
C301 C 0.50069 0.13483 0.3376 0.0
H302 H 0.51063 0.09139 0.43362 0.0
Co303 Co 0.51072 0.0836 0.29004 0.0
C304 C 0.46679 0.07829 0.19156 0.0
O305 O 0.45556 0.04774 0.19303 0.0
N306 N 0.5171 0.05769 0.23151 0.0
C307 C 0.53447 0.02705 0.19248 0.0
C308 C 0.53001 0.03981 0.24545 0.0
C309 C 0.51599 0.05685 0.16859 0.0
N310 N 0.52524 0.03747 0.14391 0.0
O311 O 0.55294 0.11694 0.2711 0.0
H312 H 0.53709 0.03715 0.29122 0.0
H313 H 0.51038 0.07156 0.14057 0.0
O314 O 0.49021 0.09635 0.22554 0.0
C315 C 0.57035 0.11529 0.31319 0.0
O316 O 0.55687 0.09465 0.35782 0.0
N317 N 0.47117 0.04943 0.31646 0.0
C318 C 0.41674 1.00049 0.37081 0.0
C319 C 0.41817 0.02855 0.35136 0.0
C320 C 0.44552 0.05267 0.32474 0.0
C321 C 0.47053 1.02288 0.3378 0.0
C322 C 0.44357 0.99803 0.36376 0.0
H323 H 0.44631 0.07437 0.31254 0.0
H324 H 0.49128 1.02112 0.33762 0.0
H325 H 0.49867 0.14274 0.29213 0.0
H326 H 0.5019 0.13509 0.48492 0.0
H327 H 0.54418 1.01162 0.18989 0.0
H328 H 0.39874 0.03244 0.35866 0.0
H329 H 0.44401 0.97726 0.37933 0.0
C330 C 0.93638 0.41224 0.40452 0.0
C331 C 0.91216 0.38493 0.42867 0.0
N332 N 0.89909 0.36388 0.38297 0.0
N333 N 0.93987 0.4087 0.34367 0.0
C334 C 0.91584 0.3792 0.33187 0.0
H335 H 0.94959 0.43375 0.43002 0.0
Co336 Co 0.96875 0.44116 0.28718 0.0
C337 C 0.96101 0.3841 0.22487 0.0
O338 O 0.96718 0.37561 0.27822 0.0
N339 N 0.99562 0.47287 0.2311 0.0
C340 C 0.03454 0.51703 0.19192 0.0
C341 C 1.02177 0.49981 0.2452 0.0
C342 C 0.99279 0.47444 0.169 0.0
N343 N 1.01624 0.50118 0.14378 0.0
O344 O 0.93569 0.45 0.26496 0.0
H345 H 0.03093 0.50651 0.2914 0.0
H346 H 0.97403 0.45607 0.14276 0.0
O347 O 0.95893 0.40915 0.22101 0.0
C348 C 0.9394 0.47119 0.30415 0.0
O349 O 0.96185 0.47966 0.34483 0.0
N350 N 1.00345 0.43734 0.31554 0.0
C351 C 0.05576 0.43745 0.36587 0.0
C352 C 0.04908 0.4321 0.30268 0.0
C353 C 1.0235 0.43336 0.278 0.0
C354 C 1.0112 0.44493 0.376 0.0
C355 C 0.03682 0.44463 0.40227 0.0
H356 H 1.01983 0.43109 0.2287 0.0
H357 H 0.99819 0.45239 0.40402 0.0
H358 H 0.91051 0.3691 0.28639 0.0
H359 H 0.90425 0.38123 0.47614 0.0
H360 H 0.05549 0.53977 0.18904 0.0
H361 H 0.06373 0.4274 0.27254 0.0
H362 H 0.04157 0.44967 0.45097 0.0
C363 C 0.64143 0.54035 0.39567 0.0
C364 C 0.66791 0.54205 0.41985 0.0
N365 N 0.68708 0.54484 0.37323 0.0
N366 N 0.64356 0.5429 0.33344 0.0
C367 C 0.67126 0.54423 0.32142 0.0
H368 H 0.62172 0.53685 0.42285 0.0
Co369 Co 0.61235 0.54218 0.27748 0.0
C370 C 0.67134 0.58616 0.21201 0.0
O371 O 0.68247 0.60079 0.26452 0.0
N372 N 0.58195 0.54056 0.22274 0.0
C373 C 0.53965 0.53968 0.18555 0.0
C374 C 0.55589 0.54112 0.23833 0.0
C375 C 0.58084 0.53841 0.16024 0.0
N376 N 0.55543 0.53818 0.13614 0.0
O377 O 0.60032 0.49918 0.25501 0.0
H378 H 0.54918 0.5426 0.28516 0.0
H379 H 0.59805 0.53634 0.13308 0.0
O380 O 0.64401 0.56187 0.2101 0.0
C381 C 0.58098 0.48185 0.29708 0.0
O382 O 0.57539 0.49586 0.34278 0.0
N383 N 0.61923 0.58179 0.30645 0.0
C384 C 0.62192 0.63339 0.36709 0.0
C385 C 0.63188 0.63612 0.30553 0.0
C386 C 0.6296 0.60964 0.27533 0.0
C387 C 0.60638 0.57835 0.36358 0.0
C388 C 0.60823 0.60383 0.39529 0.0
H389 H 0.63598 0.61163 0.22719 0.0
H390 H 0.59376 0.55535 0.38433 0.0
H391 H 0.68002 0.54543 0.27533 0.0
H392 H 0.67257 0.54115 0.46839 0.0
H393 H 0.51803 0.54011 0.18375 0.0
H394 H 0.64163 0.65842 0.28146 0.0
H395 H 0.59897 0.60042 0.44178 0.0
C396 C 0.54078 0.92812 0.62852 0.0
C397 C 0.54689 0.90602 0.60274 0.0
N398 N 0.55801 0.89509 0.64716 0.0
N399 N 0.54777 0.93114 0.68926 0.0
C400 C 0.55808 0.91048 0.69911 0.0
H401 H 0.53252 0.94175 0.60393 0.0
Co402 Co 0.54399 0.95928 0.74474 0.0
C403 C 0.58702 0.9655 0.846 0.0
O404 O 0.59837 0.99603 0.84301 0.0
N405 N 0.5384 0.98648 0.80123 0.0
C406 C 0.5229 1.01905 0.8381 0.0
C407 C 0.52784 1.00625 0.78577 0.0
C408 C 0.53764 0.98643 0.8642 0.0
N409 N 0.52918 1.00662 0.88765 0.0
O410 O 0.50169 0.92664 0.76537 0.0
H411 H 0.52225 1.00999 0.73948 0.0
H412 H 0.54151 0.97069 0.89297 0.0
O413 O 0.56415 0.94714 0.81113 0.0
C414 C 0.48386 0.92893 0.72516 0.0
O415 O 0.49681 0.95036 0.6817 0.0
N416 N 0.58377 0.99246 0.71676 0.0
C417 C 0.63862 0.04006 0.66071 0.0
C418 C 0.63714 1.01269 0.68485 0.0
C419 C 0.60963 0.98927 0.7124 0.0
C420 C 0.58434 1.01802 0.69015 0.0
C421 C 0.61151 0.04229 0.66353 0.0
H422 H 0.60901 0.96817 0.72873 0.0
H423 H 0.5634 1.0193 0.68668 0.0
H424 H 0.56626 0.90719 0.74324 0.0
H425 H 0.54477 0.89962 0.55449 0.0
H426 H 0.51489 0.03592 0.83943 0.0
H427 H 0.65669 1.00872 0.68077 0.0
H428 H 0.61099 0.06241 0.64425 0.0
C429 C 0.11243 0.63189 0.62288 0.0
C430 C 0.13672 0.65905 0.59867 0.0
N431 N 0.15731 0.67464 0.64384 0.0
N432 N 0.11662 0.63014 0.68411 0.0
C433 C 0.14495 0.656 0.69462 0.0
H434 H 0.09265 0.61512 0.59668 0.0
Co435 Co 0.08816 0.59875 0.74245 0.0
C436 C 0.10557 0.65962 0.80463 0.0
O437 O 0.10391 0.67123 0.75096 0.0
N438 N 0.06111 0.56797 0.79985 0.0
C439 C 1.02211 0.52369 0.83852 0.0
C440 C 0.03591 0.54032 0.78525 0.0
C441 C 0.06239 0.56738 0.86253 0.0
N442 N 0.03863 0.54077 0.88741 0.0
O443 O 0.12049 0.5883 0.76299 0.0
H444 H 1.02826 0.53247 0.73865 0.0
H445 H 0.0804 0.5861 0.88957 0.0
O446 O 0.10027 0.63125 0.8083 0.0
C447 C 0.11651 0.56781 0.72183 0.0
O448 O 0.09486 0.56136 0.68026 0.0
N449 N 0.05424 0.6039 0.71493 0.0
C450 C 1.00538 0.60531 0.65255 0.0
C451 C 1.01566 0.62024 0.70979 0.0
C452 C 0.03967 0.6185 0.74127 0.0
C453 C 0.04206 0.58673 0.6626 0.0
C454 C 1.0182 0.58758 0.63013 0.0
H455 H 0.04633 0.62903 0.78618 0.0
H456 H 0.0516 0.57279 0.64468 0.0
H457 H 0.15561 0.66192 0.73979 0.0
H458 H 0.13782 0.66749 0.55203 0.0
H459 H 1.00195 0.50037 0.84082 0.0
H460 H 1.00574 0.63361 0.72925 0.0
H461 H 1.0105 0.57526 0.58663 0.0
C462 C 0.42518 0.5109 0.62626 0.0
C463 C 0.39766 0.50604 0.60067 0.0
N464 N 0.37596 0.49694 0.6456 0.0
N465 N 0.42142 0.50533 0.6875 0.0
C466 C 0.39117 0.49698 0.69795 0.0
H467 H 0.44671 0.51816 0.60159 0.0
Co468 Co 0.45369 0.5093 0.74086 0.0
C469 C 0.42112 0.4693 0.8499 0.0
O470 O 0.44191 0.46012 0.8497 0.0
N471 N 0.48689 0.51454 0.79504 0.0
C472 C 0.53061 0.51881 0.83401 0.0
C473 C 0.51253 0.51248 0.78204 0.0
C474 C 0.49094 0.52349 0.85542 0.0
N475 N 0.5171 0.52577 0.88049 0.0
O476 O 0.46367 0.55193 0.76191 0.0
H477 H 0.51845 0.507 0.73781 0.0
H478 H 0.47475 0.52799 0.88083 0.0
O479 O 0.42279 0.48929 0.80934 0.0
C480 C 0.48332 0.57014 0.72126 0.0
O481 O 0.49163 0.55735 0.67746 0.0
N482 N 0.44667 0.46963 0.71197 0.0
C483 C 0.44114 0.41596 0.65325 0.0
C484 C 0.41715 0.41408 0.69118 0.0
C485 C 0.42017 0.44118 0.71941 0.0
C486 C 0.46864 0.47227 0.67062 0.0
C487 C 0.46694 0.44585 0.64252 0.0
H488 H 0.40062 0.43926 0.74507 0.0
H489 H 0.48742 0.4953 0.65801 0.0
H490 H 0.38032 0.49071 0.74302 0.0
H491 H 0.39432 0.50971 0.55269 0.0
H492 H 0.55173 0.51749 0.83747 0.0
H493 H 0.39563 0.39208 0.69735 0.0
H494 H 0.4856 0.449 0.61199 0.0
C495 C 0.17419 0.44302 0.72635 0.0
C496 C 0.16805 0.46521 0.75136 0.0
N497 N 0.16814 0.48395 0.70562 0.0
N498 N 0.17791 0.44725 0.66472 0.0
C499 C 0.17432 0.47252 0.65363 0.0
H500 H 0.17469 0.42414 0.75126 0.0
Co501 Co 0.18423 0.42068 0.60943 0.0
C502 C 0.14131 0.41247 0.50681 0.0
O503 O 0.13176 0.3823 0.51178 0.0
N504 N 0.19239 0.39509 0.55348 0.0
C505 C 0.2118 0.36559 0.51765 0.0
C506 C 0.20517 0.37735 0.56965 0.0
C507 C 0.19356 0.3952 0.49056 0.0
N508 N 0.20436 0.37678 0.46765 0.0
O509 O 0.22618 0.45448 0.59118 0.0
H510 H 0.21086 0.37426 0.61634 0.0
H511 H 0.18823 0.40976 0.46136 0.0
O512 O 0.16378 0.43197 0.54141 0.0
C513 C 0.24391 0.45519 0.63517 0.0
O514 O 0.23081 0.4372 0.68365 0.0
N515 N 0.14473 0.38609 0.63514 0.0
C516 C 0.09049 0.33734 0.69042 0.0
C517 C 0.09099 0.36419 0.6661 0.0
C518 C 0.11831 0.38834 0.63933 0.0
C519 C 0.14485 0.36067 0.6607 0.0
C520 C 0.11804 0.33594 0.68741 0.0
H521 H 0.11846 0.40936 0.62372 0.0
H522 H 0.16611 0.35991 0.66354 0.0
H523 H 0.17567 0.48207 0.60802 0.0
H524 H 0.16221 0.46617 0.79912 0.0
H525 H 0.22152 0.35014 0.51689 0.0
H526 H 0.07083 0.36719 0.6699 0.0
H527 H 0.11913 0.31615 0.70683 0.0
C528 C 0.60232 0.75317 0.7241 0.0
C529 C 0.57798 0.72597 0.74828 0.0
N530 N 0.56568 0.70448 0.70316 0.0
N531 N 0.60673 0.7491 0.66395 0.0
C532 C 0.58288 0.71949 0.65234 0.0
H533 H 0.61524 0.77484 0.74925 0.0
Co534 Co 0.63735 0.7808 0.60811 0.0
C535 C 0.62875 0.72302 0.54867 0.0
O536 O 0.63323 0.71477 0.60386 0.0
N537 N 0.66586 0.81175 0.55256 0.0
C538 C 0.70437 0.85643 0.51436 0.0
C539 C 0.69111 0.83927 0.56747 0.0
C540 C 0.66422 0.81278 0.49008 0.0
N541 N 0.68738 0.83989 0.46531 0.0
O542 O 0.60617 0.7922 0.5838 0.0
H543 H 0.69901 0.84665 0.61417 0.0
H544 H 0.6463 0.79384 0.46347 0.0
O545 O 0.62719 0.74828 0.54238 0.0
C546 C 0.61324 0.81485 0.62192 0.0
O547 O 0.63489 0.82027 0.66289 0.0
N548 N 0.67056 0.77533 0.63969 0.0
C549 C 0.72129 0.77531 0.6978 0.0
C550 C 0.71608 0.76929 0.63431 0.0
C551 C 0.69114 0.77046 0.60568 0.0
C552 C 0.67686 0.78329 0.70033 0.0
C553 C 0.70151 0.78285 0.73038 0.0
H554 H 0.68859 0.76769 0.55619 0.0
H555 H 0.66367 0.79155 0.72544 0.0
H556 H 0.57816 0.70891 0.6073 0.0
H557 H 0.56967 0.72253 0.79545 0.0
H558 H 0.72458 0.87973 0.51236 0.0
H559 H 0.73157 0.7646 0.60685 0.0
H560 H 0.70518 0.78865 0.77899 0.0
C561 C 0.30177 0.86551 0.72955 0.0
C562 C 0.32947 0.87004 0.75377 0.0
N563 N 0.35078 0.87929 0.70806 0.0
N564 N 0.30522 0.87186 0.66856 0.0
C565 C 0.33537 0.8803 0.65692 0.0
H566 H 0.28048 0.85833 0.75507 0.0
Co567 Co 0.27359 0.86963 0.61545 0.0
C568 C 0.30696 0.91209 0.51095 0.0
O569 O 0.28666 0.92181 0.51535 0.0
N570 N 0.24144 0.86646 0.56023 0.0
C571 C 0.2027 0.86934 0.51381 0.0
C572 C 0.21833 0.87321 0.56837 0.0
C573 C 0.23813 0.8572 0.50012 0.0
N574 N 0.21527 0.85957 0.47014 0.0
O575 O 0.26252 0.8268 0.59227 0.0
H576 H 0.21283 0.88099 0.61041 0.0
H577 H 0.25279 0.84936 0.47879 0.0
O578 O 0.30495 0.89055 0.54791 0.0
C579 C 0.24171 0.80962 0.6323 0.0
O580 O 0.23413 0.82409 0.67389 0.0
N581 N 0.2813 0.90892 0.6475 0.0
C582 C 0.28733 0.96113 0.71304 0.0
C583 C 0.31192 0.96337 0.67645 0.0
C584 C 0.30861 0.93695 0.64474 0.0
C585 C 0.25843 0.9058 0.6868 0.0
C586 C 0.26018 0.93166 0.71723 0.0
H587 H 0.32842 0.9389 0.61993 0.0
H588 H 0.23852 0.8828 0.69506 0.0
H589 H 0.34605 0.88796 0.61207 0.0
H590 H 0.33351 0.86671 0.80157 0.0
H591 H 0.184 0.87439 0.50667 0.0
H592 H 0.33393 0.98513 0.67362 0.0
H593 H 0.24028 0.92823 0.74395 0.0
C594 C 0.29561 0.30169 0.21728 0.0
C595 C 0.26973 0.27232 0.20271 0.0
C596 C 0.31885 0.30398 0.25795 0.0
C597 C 0.31688 0.27695 0.28536 0.0
H598 H 0.29921 0.32266 0.19333 0.0
H599 H 0.33947 0.3267 0.26439 0.0
S600 S 0.25046 0.19558 0.2715 0.0
N601 N 0.24143 0.21651 0.22485 0.0
N602 N 0.28423 0.22072 0.30271 0.0
C603 C 0.28954 0.24797 0.27558 0.0
C604 C 0.26622 0.24567 0.23382 0.0
C605 C 0.80952 0.0414 0.21878 0.0
C606 C 0.7832 1.01437 0.19688 0.0
C607 C 0.80677 0.06149 0.26099 0.0
C608 C 0.77742 0.05613 0.28141 0.0
H609 H 0.83237 0.04794 0.20075 0.0
H610 H 0.8279 0.0823 0.27533 0.0
S611 S 0.70122 0.9867 0.24092 0.0
N612 N 0.72707 0.98122 0.20313 0.0
N613 N 0.72141 1.01996 0.27896 0.0
C614 C 0.75094 0.02795 0.26262 0.0
C615 C 0.75396 1.00692 0.22106 0.0
C616 C 1.02558 0.7604 0.19286 0.0
C617 C 0.04963 0.78558 0.22496 0.0
C618 C 0.99871 0.73764 0.22374 0.0
C619 C 0.99457 0.73934 0.28794 0.0
H620 H 1.02844 0.75709 0.14436 0.0
H621 H 0.98179 0.71774 0.19737 0.0
S622 S 0.04928 0.804 0.39043 0.0
N623 N 0.06696 0.8126 0.32266 0.0
N624 N 1.01574 0.77133 0.38021 0.0
C625 C 1.01776 0.76583 0.31943 0.0
C626 C 0.04541 0.78853 0.2881 0.0
C627 C 0.76665 0.79951 0.77047 0.0
C628 C 0.74723 0.77449 0.73125 0.0
C629 C 0.78685 0.79688 0.8124 0.0
C630 C 0.7887 0.76929 0.81635 0.0
H631 H 0.76503 0.82072 0.77103 0.0
H632 H 0.79983 0.81592 0.84434 0.0
S633 S 0.74406 0.69753 0.7225 0.0
N634 N 0.73229 0.72172 0.69739 0.0
N635 N 0.77047 0.71696 0.77601 0.0
C636 C 0.7709 0.74483 0.77502 0.0
C637 C 0.75018 0.74743 0.73234 0.0
C638 C 0.3114 0.04613 0.75307 0.0
C639 C 0.299 0.04395 0.81249 0.0
C640 C 0.30677 1.01934 0.7209 0.0
C641 C 0.29038 0.98909 0.74753 0.0
H642 H 0.32541 0.0689 0.73158 0.0
H643 H 0.31654 1.02253 0.67495 0.0
S644 S 0.25547 0.97102 0.9051 0.0
N645 N 0.27014 1.00929 0.89747 0.0
N646 N 0.26314 0.95918 0.83957 0.0
C647 C 0.27801 0.98666 0.80751 0.0
C648 C 0.28194 1.01397 0.83934 0.0
C649 C 0.03869 0.27806 0.8136 0.0
C650 C 1.00842 0.26781 0.79168 0.0
C651 C 0.06506 0.29982 0.77987 0.0
C652 C 0.06222 0.31209 0.72269 0.0
H653 H 0.04209 0.27065 0.85863 0.0
H654 H 0.08781 0.30809 0.80011 0.0
S655 S 0.98801 0.28904 0.64118 0.0
N656 N 0.97712 0.26928 0.70689 0.0
N657 N 1.02644 0.30934 0.6429 0.0
C658 C 0.03203 0.30057 0.69886 0.0
C659 C 1.00526 0.27867 0.73342 0.0
C660 C 0.93251 0.59387 0.569 0.0
C661 C 0.94545 0.61368 0.5172 0.0
C662 C 0.95182 0.59224 0.61528 0.0
C663 C 0.98451 0.61084 0.6116 0.0
H664 H 0.90755 0.57843 0.57212 0.0
H665 H 0.94123 0.57549 0.65268 0.0
S666 S 1.02964 0.66905 0.48973 0.0
N667 N 0.993 0.65406 0.46827 0.0
N668 N 1.02865 0.65114 0.55503 0.0
C669 C 0.99743 0.63188 0.56204 0.0
C670 C 0.97807 0.63329 0.51495 0.0
C671 C 0.44843 0.3892 0.56 0.0
C672 C 0.43848 0.38746 0.62182 0.0
C673 C 0.44429 0.36239 0.52827 0.0
C674 C 0.42967 0.33265 0.55675 0.0
H675 H 0.45836 0.4112 0.53483 0.0
H676 H 0.45091 0.36471 0.48007 0.0
S677 S 0.40284 0.3154 0.71937 0.0
N678 N 0.41655 0.35357 0.71189 0.0
N679 N 0.40735 0.30326 0.6512 0.0
C680 C 0.42074 0.3307 0.61891 0.0
C681 C 0.42546 0.358 0.65164 0.0
C682 C 0.66555 0.07981 0.57481 0.0
C683 C 0.66753 0.06522 0.62965 0.0
C684 C 0.69239 0.10192 0.54269 0.0
C685 C 0.72238 0.11012 0.56355 0.0
H686 H 0.64306 0.07328 0.55505 0.0
H687 H 0.68948 0.11137 0.4996 0.0
S688 S 0.74081 0.08153 0.70772 0.0
N689 N 0.70242 0.06342 0.70643 0.0
N690 N 0.75248 0.10327 0.64449 0.0
C691 C 0.72472 0.09654 0.61928 0.0
C692 C 0.69749 0.07456 0.65259 0.0
C693 C 0.44212 0.07999 0.09274 0.0
C694 C 0.44985 0.0902 0.154 0.0
C695 C 0.42028 0.08445 0.05957 0.0
C696 C 0.40455 0.0987 0.08675 0.0
H697 H 0.45244 0.06759 0.07079 0.0
H698 H 0.41519 0.07597 0.01256 0.0
S699 S 0.41636 0.12934 0.24729 0.0
N700 N 0.44084 0.1159 0.24042 0.0
N701 N 0.39867 0.12305 0.17994 0.0
C702 C 0.41272 0.10975 0.14792 0.0
C703 C 0.43557 0.10578 0.18108 0.0
C704 C 0.98804 0.364 0.15832 0.0
C705 C 0.96152 0.3668 0.16956 0.0
C706 C 0.98778 0.34301 0.11415 0.0
C707 C 0.96069 0.3234 0.08053 0.0
H708 H 1.00886 0.3773 0.18571 0.0
H709 H 1.00836 0.34081 0.10895 0.0
S710 S 0.88553 0.32282 0.09062 0.0
N711 N 0.90802 0.3495 0.14154 0.0
N712 N 0.9071 0.30951 0.05909 0.0
C713 C 0.93434 0.32687 0.0897 0.0
C714 C 0.93485 0.3487 0.13406 0.0
C715 C 0.68271 0.61523 0.11121 0.0
C716 C 0.69074 0.59965 0.15603 0.0
C717 C 0.70489 0.6359 0.06794 0.0
C718 C 0.73576 0.64156 0.06819 0.0
H719 H 0.65994 0.61328 0.11252 0.0
H720 H 0.69845 0.64912 0.0371 0.0
S721 S 0.76641 0.60203 0.1696 0.0
N722 N 0.7303 0.58854 0.19374 0.0
N723 N 0.77138 0.6259 0.11137 0.0
C724 C 0.74294 0.62375 0.10932 0.0
C725 C 0.72062 0.60326 0.15362 0.0
C726 C 0.61989 0.94036 0.85847 0.0
C727 C 0.60359 0.95389 0.88544 0.0
C728 C 0.64202 0.9365 0.89235 0.0
C729 C 0.64853 0.94579 0.95479 0.0
H730 H 0.61701 0.93455 0.80988 0.0
H731 H 0.65517 0.92757 0.86833 0.0
S732 S 0.60834 0.97826 0.04856 0.0
N733 N 0.59332 0.97419 0.97889 0.0
N734 N 0.63359 0.96566 0.04358 0.0
C735 C 0.63076 0.95752 0.98306 0.0
C736 C 0.60866 0.96188 0.94817 0.0
C737 C 0.13277 0.71013 0.86109 0.0
C738 C 0.10886 0.67864 0.8601 0.0
C739 C 0.1324 0.73158 0.9031 0.0
C740 C 0.10746 0.72284 0.94478 0.0
H741 H 0.15132 0.71866 0.82725 0.0
H742 H 0.15131 0.75566 0.90094 0.0
S743 S 0.0401 0.6421 0.96378 0.0
N744 N 0.06099 0.63875 0.90798 0.0
N745 N 0.05912 0.67936 0.9849 0.0
C746 C 0.08422 0.69082 0.94672 0.0
C747 C 0.08514 0.6687 0.90474 0.0
C748 C 0.33706 0.41755 0.901 0.0
C749 C 0.34011 0.40781 0.96084 0.0
C750 C 0.3632 0.43936 0.86672 0.0
C751 C 0.39346 0.45197 0.89054 0.0
H752 H 0.31446 0.40722 0.87912 0.0
H753 H 0.35978 0.44488 0.81994 0.0
S754 S 0.41428 0.43802 0.0473 0.0
N755 N 0.37599 0.41601 0.0448 0.0
N756 N 0.42488 0.45531 0.97911 0.0
C757 C 0.39677 0.44361 0.95103 0.0
C758 C 0.37022 0.42198 0.98644 0.0
C759 C 0.08069 0.40521 0.39018 0.0
C760 C 0.08115 0.43393 0.39487 0.0
C761 C 0.10135 0.39937 0.42432 0.0
C762 C 0.12361 0.42206 0.46451 0.0
H763 H 0.06323 0.38651 0.36209 0.0
H764 H 0.09904 0.37631 0.42047 0.0
S765 S 0.13773 0.5032 0.48452 0.0
N766 N 0.10781 0.4867 0.43691 0.0
N767 N 0.14711 0.476 0.5004 0.0
C768 C 0.12572 0.45174 0.46616 0.0
C769 C 0.10434 0.45755 0.43173 0.0
C770 C 0.64734 0.68936 0.50133 0.0
C771 C 0.62952 0.70438 0.49541 0.0
C772 C 0.64611 0.66807 0.4572 0.0
C773 C 0.62708 0.66079 0.40491 0.0
H774 H 0.66184 0.6934 0.54155 0.0
H775 H 0.65929 0.65619 0.46533 0.0
S776 S 0.57742 0.69504 0.36464 0.0
N777 N 0.59365 0.71191 0.43083 0.0
N778 N 0.59116 0.67141 0.34753 0.0
C779 C 0.61032 0.67675 0.39632 0.0
C780 C 0.61164 0.69871 0.4416 0.0
C781 C 0.36439 0.93768 0.48836 0.0
C782 C 0.33427 0.93012 0.46971 0.0
C783 C 0.39087 0.95975 0.45528 0.0
C784 C 0.38825 0.97489 0.40187 0.0
H785 H 0.3677 0.92789 0.53064 0.0
H786 H 0.4136 0.96595 0.47333 0.0
S787 S 0.31419 0.95956 0.3289 0.0
N788 N 0.3032 0.93744 0.39167 0.0
N789 N 0.3526 0.97754 0.32819 0.0
C790 C 0.35809 0.96593 0.38081 0.0
C791 C 0.33126 0.94392 0.41496 0.0
C792 C 0.18235 0.36472 0.36193 0.0
C793 C 0.20625 0.36964 0.40329 0.0
C794 C 0.18288 0.35639 0.29998 0.0
C795 C 0.2075 0.35285 0.27607 0.0
H796 H 0.16266 0.36664 0.37802 0.0
H797 H 0.16344 0.35219 0.27088 0.0
S798 S 0.27749 0.36626 0.36387 0.0
N799 N 0.25621 0.37216 0.41505 0.0
N800 N 0.25757 0.35715 0.29879 0.0
C801 C 0.23194 0.35839 0.31677 0.0
C802 C 0.23124 0.36663 0.38012 0.0
C803 C 0.7237 0.87097 0.37987 0.0
C804 C 0.69317 0.84978 0.40074 0.0
C805 C 0.73003 0.88102 0.31779 0.0
C806 C 0.70618 0.87009 0.27348 0.0
H807 H 0.7431 0.87952 0.41154 0.0
H808 H 0.75389 0.89681 0.30398 0.0
S809 S 0.62195 0.81724 0.30373 0.0
N810 N 0.63851 0.8205 0.37149 0.0
N811 N 0.65064 0.83861 0.25526 0.0
C812 C 0.67555 0.84946 0.29358 0.0
C813 C 0.669 0.83949 0.35689 0.0
C814 C 0.16746 0.84496 0.32475 0.0
C815 C 0.18841 0.84911 0.27692 0.0
C816 C 0.17622 0.8476 0.38716 0.0
C817 C 0.20652 0.85488 0.4051 0.0
H818 H 0.1438 0.83897 0.31396 0.0
H819 H 0.15885 0.84365 0.4217 0.0
S820 S 0.27078 0.86945 0.29699 0.0
N821 N 0.24107 0.86154 0.2514 0.0
N822 N 0.2578 0.86699 0.36817 0.0
C823 C 0.2278 0.8592 0.35745 0.0
C824 C 0.21872 0.85626 0.29371 0.0
C825 C 0.87456 0.67835 0.71944 0.0
C826 C 0.85786 0.69361 0.73617 0.0
C827 C 0.87716 0.67128 0.65734 0.0
C828 C 0.86309 0.67904 0.60903 0.0
H829 H 0.88619 0.67226 0.7546 0.0
H830 H 0.89082 0.66019 0.64699 0.0
S831 S 0.81372 0.71586 0.62852 0.0
N832 N 0.82521 0.71415 0.6992 0.0
N833 N 0.8296 0.70059 0.58351 0.0
C834 C 0.84561 0.69353 0.62541 0.0
C835 C 0.84315 0.70088 0.68851 0.0
C836 C 0.37338 0.20896 0.72138 0.0
C837 C 0.35409 0.17716 0.73852 0.0
C838 C 0.38047 0.21824 0.65919 0.0
C839 C 0.36842 0.19628 0.61098 0.0
H840 H 0.38298 0.22701 0.75636 0.0
H841 H 0.39505 0.24294 0.6487 0.0
S842 S 0.31884 0.10989 0.63 0.0
N843 N 0.3245 0.12351 0.7012 0.0
N844 N 0.33761 0.14098 0.58482 0.0
C845 C 0.34941 0.16438 0.62723 0.0
C846 C 0.34226 0.15486 0.69067 0.0
C847 C 0.88534 0.19597 0.62989 0.0
C848 C 0.8544 0.18748 0.6146 0.0
C849 C 0.89538 0.19931 0.6917 0.0
C850 C 0.87496 0.19426 0.74126 0.0
H851 H 0.9021 0.20036 0.59367 0.0
H852 H 0.91951 0.20643 0.70062 0.0
S853 S 0.79107 0.16973 0.7273 0.0
N854 N 0.8032 0.17306 0.65526 0.0
N855 N 0.82178 0.17874 0.77053 0.0
C856 C 0.84387 0.18538 0.72672 0.0
C857 C 0.8337 0.1822 0.66382 0.0
C858 C 0.54996 0.0252 0.05626 0.0
C859 C 0.52593 0.0299 0.07931 0.0
C860 C 0.55066 1.01726 0.99401 0.0
C861 C 0.52737 1.01359 0.9521 0.0
H862 H 0.56863 0.02812 0.08639 0.0
H863 H 0.56996 1.01466 0.97813 0.0
S864 S 0.45748 1.0196 0.99021 0.0
N865 N 0.47699 0.02779 0.05573 0.0
N866 N 0.47843 1.01309 0.93931 0.0
C867 C 0.50292 1.01758 0.97475 0.0
C868 C 0.50217 0.02565 0.03807 0.0
C869 C 0.05734 0.53871 0.99308 0.0
C870 C 0.03264 0.53159 0.9521 0.0
C871 C 0.0518 0.52867 0.05523 0.0
C872 C 1.02131 0.5111 0.07937 0.0
H873 H 0.08115 0.55158 0.97662 0.0
H874 H 0.07162 0.5343 0.08443 0.0
S875 S 0.94862 0.48965 0.99343 0.0
N876 N 0.97655 0.50801 0.94177 0.0
N877 N 0.96623 0.48939 0.05793 0.0
C878 C 0.99645 0.50456 0.03924 0.0
C879 C 1.00209 0.51474 0.97597 0.0
C880 C 0.50527 0.51867 0.99288 0.0
C881 C 0.52716 0.53116 0.94452 0.0
C882 C 0.51463 0.52102 0.05498 0.0
C883 C 0.54638 0.53625 0.0717 0.0
H884 H 0.48069 0.50624 0.98248 0.0
H885 H 0.49676 0.51022 0.09009 0.0
S886 S 0.61306 0.57729 0.96343 0.0
N887 N 0.58211 0.56208 0.91834 0.0
N888 N 0.59965 0.56691 0.03447 0.0
C889 C 0.56852 0.54999 0.02391 0.0
C890 C 0.55896 0.54741 0.96065 0.0
C891 C 0.23962 0.19285 0.90659 0.0
C892 C 0.2301 0.20061 0.96248 0.0
C893 C 0.24918 0.1701 0.90424 0.0
C894 C 0.24937 0.15387 0.95762 0.0
H895 H 0.24125 0.20557 0.8646 0.0
H896 H 0.25861 0.16694 0.86146 0.0
S897 S 0.22144 0.16009 0.11292 0.0
N898 N 0.2178 0.18617 0.0709 0.0
N899 N 0.23527 0.14368 0.06574 0.0
C900 C 0.23725 0.15912 0.0122 0.0
C901 C 0.22764 0.18226 0.01486 0.0
C902 C 0.88668 0.09528 0.89908 0.0
C903 C 0.90098 0.11264 0.95251 0.0
C904 C 0.86439 0.06288 0.90265 0.0
C905 C 0.85532 0.04642 0.95974 0.0
H906 H 0.89104 0.10718 0.85491 0.0
H907 H 0.85308 0.05097 0.86042 0.0
S908 S 0.8898 0.08094 0.11209 0.0
N909 N 0.90744 0.11048 0.06304 0.0
N910 N 0.86577 0.05041 0.07016 0.0
C911 C 0.87151 0.06327 0.01272 0.0
C912 C 0.89415 0.0961 1.00893 0.0
C913 C 0.99407 0.81759 0.92034 0.0
C914 C 1.00741 0.82098 0.97959 0.0
C915 C 0.96179 0.80618 0.91253 0.0
C916 C 0.94168 0.79795 0.96377 0.0
H917 H 1.00853 0.82275 0.87962 0.0
H918 H 0.95236 0.8024 0.86626 0.0
S919 S 0.96545 0.80693 0.1286 0.0
N920 N 0.99812 0.81835 0.09001 0.0
N921 N 0.93815 0.79707 0.07581 0.0
C922 C 0.95511 0.80288 0.02307 0.0
C923 C 0.9877 0.81428 0.03091 0.0
C924 C 0.79667 0.86654 0.99147 0.0
C925 C 0.80624 0.89037 0.03645 0.0
C926 C 0.809 0.84631 0.98859 0.0
C927 C 0.83184 0.84872 0.03019 0.0
H928 H 0.7788 0.86278 0.9583 0.0
H929 H 0.79968 0.82789 0.95439 0.0
S930 S 0.86708 0.90848 0.15441 0.0
N931 N 0.84118 0.91596 0.12238 0.0
N932 N 0.86502 0.8784 0.11626 0.0
C933 C 0.84237 0.87293 0.07474 0.0
C934 C 0.82951 0.8936 0.07794 0.0
C935 C 0.1819 0.98569 0.0604 0.0
C936 C 0.21458 0.99947 0.05789 0.0
C937 C 0.16243 0.9529 0.06939 0.0
C938 C 0.17513 0.93295 0.07615 0.0
H939 H 0.17141 1.0003 0.05432 0.0
H940 H 0.1374 0.94298 0.06821 0.0
S941 S 0.25944 0.95833 0.07853 0.0
N942 N 0.25863 0.99121 0.06709 0.0
N943 N 0.22268 0.93012 0.08336 0.0
C944 C 0.20786 0.94693 0.07584 0.0
C945 C 0.22741 0.98002 0.06694 0.0
C946 C 0.10767 0.23548 0.98589 0.0
C947 C 0.12474 0.24623 0.04121 0.0
C948 C 0.07573 0.22573 0.98306 0.0
C949 C 0.05921 0.22652 0.03533 0.0
H950 H 0.11937 0.23537 0.94368 0.0
H951 H 0.06396 0.21782 0.9392 0.0
S952 S 0.09341 0.2541 0.19126 0.0
N953 N 0.1228 0.2574 0.14947 0.0
N954 N 0.06311 0.23986 0.14449 0.0
C955 C 0.07595 0.23683 0.09141 0.0
C956 C 0.10854 0.24645 0.09428 0.0
C957 C 0.91028 0.52528 0.36129 0.0
C958 C 0.89609 0.53013 0.30947 0.0
C959 C 0.92248 0.50489 0.35928 0.0
C960 C 0.92121 0.48813 0.30541 0.0
H961 H 0.91348 0.53853 0.40312 0.0
H962 H 0.93403 0.50312 0.40028 0.0
S963 S 0.88298 0.48903 0.15901 0.0
N964 N 0.87851 0.51361 0.20407 0.0
N965 N 0.90214 0.47583 0.20031 0.0
C966 C 0.90552 0.49124 0.2542 0.0
C967 C 0.89294 0.51212 0.25618 0.0
C968 C 0.55692 0.43035 0.35264 0.0
C969 C 0.56283 0.44679 0.29617 0.0
C970 C 0.53461 0.39824 0.35782 0.0
C971 C 0.51672 0.38093 0.30688 0.0
H972 H 0.56908 0.44274 0.39398 0.0
H973 H 0.53109 0.38701 0.40249 0.0
S974 S 0.52227 0.41336 0.14863 0.0
N975 N 0.54886 0.44347 0.18826 0.0
N976 N 0.50641 0.38348 0.1975 0.0
C977 C 0.52278 0.39705 0.2496 0.0
C978 C 0.54591 0.4298 0.24436 0.0
C979 C 0.6218 0.13166 0.26091 0.0
C980 C 0.6051 0.13304 0.31214 0.0
C981 C 0.65377 0.14112 0.26547 0.0
C982 C 0.67044 0.1524 0.32145 0.0
H983 H 0.60971 0.12141 0.21815 0.0
H984 H 0.66511 0.13825 0.22536 0.0
S985 S 0.63784 0.16425 0.46682 0.0
N986 N 0.60796 0.14872 0.41906 0.0
N987 N 0.66776 0.1674 0.42717 0.0
C988 C 0.65417 0.15543 0.3719 0.0
C989 C 0.62168 0.14557 0.3673 0.0
C990 C 0.49741 0.19514 0.3502 0.0
C991 C 0.48993 0.17268 0.39758 0.0
C992 C 0.48814 0.21799 0.35302 0.0
C993 C 0.47154 0.22008 0.4039 0.0
H994 H 0.50992 0.19466 0.30964 0.0
H995 H 0.49296 0.23347 0.31369 0.0
S996 S 0.44494 0.16701 0.53975 0.0
N997 N 0.46378 0.15404 0.49703 0.0
N998 N 0.44757 0.19762 0.50239 0.0
C999 C 0.46469 0.19862 0.45251 0.0
C1000 C 0.47361 0.17487 0.44941 0.0
C1001 C 0.84708 0.28206 0.4496 0.0
C1002 C 0.82795 0.26551 0.39949 0.0
C1003 C 0.86947 0.31435 0.4445 0.0
C1004 C 0.87372 0.33147 0.38906 0.0
H1005 H 0.84622 0.26957 0.49156 0.0
H1006 H 0.88463 0.32556 0.48344 0.0
S1007 S 0.82614 0.29952 0.2473 0.0
N1008 N 0.8128 0.26908 0.29465 0.0
N1009 N 0.85371 0.32945 0.28566 0.0
C1010 C 0.85326 0.31541 0.34007 0.0
C1011 C 0.83073 0.28261 0.34521 0.0
C1012 C 0.73716 0.56717 0.43139 0.0
C1013 C 0.71905 0.55112 0.37917 0.0
C1014 C 0.76907 0.57651 0.43556 0.0
C1015 C 0.78434 0.57029 0.38764 0.0
H1016 H 0.72708 0.57411 0.46815 0.0
H1017 H 0.78231 0.59058 0.47455 0.0
S1018 S 0.74735 0.52503 0.24556 0.0
N1019 N 0.71865 0.52608 0.28227 0.0
N1020 N 0.77852 0.54467 0.28909 0.0
C1021 C 0.76629 0.55284 0.33694 0.0
C1022 C 0.73378 0.54303 0.33291 0.0
C1023 C 0.56969 0.82716 0.5988 0.0
C1024 C 0.59944 0.83608 0.62262 0.0
C1025 C 0.55621 0.84657 0.60629 0.0
C1026 C 0.57182 0.87534 0.63852 0.0
H1027 H 0.55645 0.80479 0.5757 0.0
H1028 H 0.53315 0.83875 0.58806 0.0
S1029 S 0.6517 0.91182 0.70177 0.0
N1030 N 0.64524 0.87785 0.67391 0.0
N1031 N 0.61957 0.91307 0.68839 0.0
C1032 C 0.60185 0.88497 0.66019 0.0
C1033 C 0.61571 0.86571 0.65209 0.0
C1034 C 0.20952 0.75921 0.68981 0.0
C1035 C 0.22468 0.77435 0.63433 0.0
C1036 C 0.18912 0.72663 0.69323 0.0
C1037 C 0.18249 0.70726 0.64129 0.0
H1038 H 0.21261 0.77281 0.73114 0.0
H1039 H 0.17728 0.71687 0.73644 0.0
S1040 S 0.21935 0.73416 0.48661 0.0
N1041 N 0.23391 0.76681 0.52743 0.0
N1042 N 0.19592 0.70544 0.53369 0.0
C1043 C 0.199 0.72173 0.58621 0.0
C1044 C 0.22 0.75518 0.58283 0.0
C1045 C 0.29625 0.48526 0.68458 0.0
C1046 C 0.27857 0.47132 0.63108 0.0
C1047 C 0.32798 0.49415 0.68838 0.0
C1048 C 0.34355 0.48912 0.63913 0.0
H1049 H 0.28512 0.48838 0.72489 0.0
H1050 H 0.34028 0.50461 0.73079 0.0
S1051 S 0.30714 0.45158 0.48962 0.0
N1052 N 0.27875 0.45237 0.52809 0.0
N1053 N 0.33793 0.46814 0.5351 0.0
C1054 C 0.32613 0.47551 0.5848 0.0
C1055 C 0.29383 0.46686 0.58082 0.0
C1056 C 0.12972 0.53152 0.66546 0.0
C1057 C 0.13351 0.54959 0.71882 0.0
C1058 C 0.14172 0.51103 0.66127 0.0
C1059 C 0.15845 0.50748 0.70988 0.0
H1060 H 0.11655 0.53245 0.62641 0.0
H1061 H 0.13667 0.49683 0.62033 0.0
S1062 S 0.17758 0.55108 0.85829 0.0
N1063 N 0.1568 0.56362 0.82062 0.0
N1064 N 0.1801 0.52563 0.81234 0.0
C1065 C 0.16354 0.52621 0.76294 0.0
C1066 C 0.15107 0.54717 0.76736 0.0
C1067 C 0.5165 0.62273 0.77194 0.0
C1068 C 0.49848 0.60508 0.72158 0.0
C1069 C 0.5375 0.65535 0.76622 0.0
C1070 C 0.54134 0.67168 0.7099 0.0
H1071 H 0.5159 0.61097 0.81476 0.0
H1072 H 0.55198 0.66748 0.80545 0.0
S1073 S 0.49584 0.63652 0.56706 0.0
N1074 N 0.48367 0.6066 0.61549 0.0
N1075 N 0.5219 0.66758 0.60529 0.0
C1076 C 0.52183 0.65442 0.66057 0.0
C1077 C 0.50077 0.62129 0.66632 0.0
C1078 C 0.39962 0.90033 0.77033 0.0
C1079 C 0.38345 0.88798 0.71426 0.0
C1080 C 0.43182 0.91109 0.77595 0.0
C1081 C 0.44921 0.90992 0.72576 0.0
H1082 H 0.38766 0.9031 0.80953 0.0
H1083 H 0.4435 0.92217 0.81858 0.0
S1084 S 0.41807 0.87629 0.57162 0.0
N1085 N 0.38742 0.87224 0.60983 0.0
N1086 N 0.44765 0.89335 0.61989 0.0
C1087 C 0.43317 0.89632 0.67064 0.0
C1088 C 0.40046 0.88515 0.66497 0.0
loop_
_geom_bond_atom_site_label_1
_geom_bond_atom_site_label_2
_geom_bond_distance
_geom_bond_site_symmetry_2
_ccdc_geom_bond_type
C0 C1 1.351 1_554 S
C0 N3 1.368 . S
C0 H5 0.931 1_554 S
C1 C0 1.351 1_556 S
C1 N2 1.373 1_556 S
C1 H29 0.930 . S
N2 C1 1.373 1_554 S
N2 C4 1.340 . S
N3 C0 1.368 . S
N3 C4 1.321 . S
N3 Co6 2.135 . S
C4 N2 1.340 . S
C4 N3 1.321 . S
C4 H28 0.930 . S
H5 C0 0.931 1_556 S
Co6 N3 2.135 . S
Co6 N9 2.121 . S
Co6 O14 2.055 . S
Co6 O17 2.039 . S
Co6 N20 2.140 . S
C7 O8 1.227 . S
C7 O17 1.265 . S
O8 C7 1.227 . S
N9 Co6 2.121 . S
N9 C11 1.375 . S
N9 C12 1.313 . S
C10 C11 1.338 . S
C10 N13 1.377 . S
C10 H30 0.930 . S
C11 N9 1.375 . S
C11 C10 1.338 . S
C11 H15 0.931 . S
C12 N9 1.313 . S
C12 N13 1.344 . S
C12 H16 0.930 . S
N13 C10 1.377 . S
N13 C12 1.344 . S
O14 Co6 2.055 . S
O14 C18 1.253 . S
H15 C11 0.931 . S
H16 C12 0.930 . S
O17 Co6 2.039 . S
O17 C7 1.265 . S
C18 O14 1.253 . S
C18 O19 1.227 . S
O19 C18 1.227 . S
N20 Co6 2.140 . S
N20 C23 1.346 . S
N20 C24 1.345 . S
C21 C22 1.387 . S
C21 C25 1.391 1_556 S
C22 C21 1.387 . S
C22 C23 1.369 1_556 S
C22 H31 0.929 . S
C23 N20 1.346 . S
C23 C22 1.369 1_554 S
C23 H26 0.928 . S
C24 N20 1.345 . S
C24 C25 1.371 . S
C24 H27 0.931 . S
C25 C21 1.391 1_554 S
C25 C24 1.371 . S
C25 H32 0.930 1_554 S
H26 C23 0.928 . S
H27 C24 0.931 . S
H28 C4 0.930 . S
H29 C1 0.930 . S
H30 C10 0.930 . S
H31 C22 0.929 . S
H32 C25 0.930 1_556 S
C33 C34 1.351 1_554 S
C33 N36 1.368 . S
C33 H38 0.931 1_554 S
C34 C33 1.351 1_556 S
C34 N35 1.373 1_566 S
C34 H62 0.931 1_565 S
N35 C34 1.373 1_544 S
N35 C37 1.340 . S
N36 C33 1.368 . S
N36 C37 1.321 1_565 S
N36 Co39 2.135 . S
C37 N35 1.340 . S
C37 N36 1.321 1_545 S
C37 H61 0.930 . S
H38 C33 0.931 1_556 S
Co39 N36 2.135 . S
Co39 N42 2.121 . S
Co39 O47 2.055 . S
Co39 O50 2.039 . S
Co39 N53 2.140 . S
C40 O41 1.227 . S
C40 O50 1.265 . S
O41 C40 1.227 . S
N42 Co39 2.121 . S
N42 C44 1.375 . S
N42 C45 1.313 . S
C43 C44 1.338 . S
C43 N46 1.377 . S
C43 H63 0.930 . S
C44 N42 1.375 . S
C44 C43 1.338 . S
C44 H48 0.931 . S
C45 N42 1.313 . S
C45 N46 1.344 . S
C45 H49 0.930 . S
N46 C43 1.377 . S
N46 C45 1.344 . S
O47 Co39 2.055 . S
O47 C51 1.253 . S
H48 C44 0.931 . S
H49 C45 0.930 . S
O50 Co39 2.039 . S
O50 C40 1.265 . S
C51 O47 1.253 . S
C51 O52 1.227 . S
O52 C51 1.227 . S
N53 Co39 2.140 . S
N53 C56 1.346 . S
N53 C57 1.345 . S
C54 C55 1.387 . S
C54 C58 1.391 1_556 S
C55 C54 1.387 . S
C55 C56 1.369 1_556 S
C55 H64 0.929 . S
C56 N53 1.346 . S
C56 C55 1.369 1_554 S
C56 H59 0.928 . S
C57 N53 1.345 . S
C57 C58 1.371 . S
C57 H60 0.931 . S
C58 C54 1.391 1_554 S
C58 C57 1.371 . S
C58 H65 0.930 1_554 S
H59 C56 0.928 . S
H60 C57 0.931 . S
H61 C37 0.930 . S
H62 C34 0.931 1_545 S
H63 C43 0.930 . S
H64 C55 0.929 . S
H65 C58 0.930 1_556 S
C66 C67 1.351 1_554 S
C66 N69 1.368 . S
C66 H71 0.931 1_554 S
C67 C66 1.351 1_556 S
C67 N68 1.373 1_456 S
C67 H95 0.929 1_455 S
N68 C67 1.373 1_654 S
N68 C70 1.340 . S
N69 C66 1.368 . S
N69 C70 1.321 1_455 S
N69 Co72 2.135 . S
C70 N68 1.340 . S
C70 N69 1.321 1_655 S
C70 H94 0.930 . S
H71 C66 0.931 1_556 S
Co72 N69 2.135 . S
Co72 N75 2.121 . S
Co72 O80 2.055 . S
Co72 O83 2.039 . S
Co72 N86 2.140 . S
C73 O74 1.227 . S
C73 O83 1.265 . S
O74 C73 1.227 . S
N75 Co72 2.121 . S
N75 C77 1.375 . S
N75 C78 1.313 . S
C76 C77 1.338 . S
C76 N79 1.377 . S
C76 H96 0.930 . S
C77 N75 1.375 . S
C77 C76 1.338 . S
C77 H81 0.931 . S
C78 N75 1.313 . S
C78 N79 1.344 . S
C78 H82 0.930 . S
N79 C76 1.377 . S
N79 C78 1.344 . S
O80 Co72 2.055 . S
O80 C84 1.253 . S
H81 C77 0.931 . S
H82 C78 0.930 . S
O83 Co72 2.039 . S
O83 C73 1.265 . S
C84 O80 1.253 . S
C84 O85 1.227 . S
O85 C84 1.227 . S
N86 Co72 2.140 . S
N86 C89 1.346 . S
N86 C90 1.345 . S
C87 C88 1.387 . S
C87 C91 1.391 1_556 S
C88 C87 1.387 . S
C88 C89 1.369 1_556 S
C88 H97 0.929 . S
C89 N86 1.346 . S
C89 C88 1.369 1_554 S
C89 H92 0.928 . S
C90 N86 1.345 . S
C90 C91 1.371 . S
C90 H93 0.931 . S
C91 C87 1.391 1_554 S
C91 C90 1.371 . S
C91 H98 0.930 1_554 S
H92 C89 0.928 . S
H93 C90 0.931 . S
H94 C70 0.930 . S
H95 C67 0.929 1_655 S
H96 C76 0.930 . S
H97 C88 0.929 . S
H98 C91 0.930 1_556 S
C99 C100 1.351 1_556 S
C99 N102 1.368 . S
C99 H104 0.931 1_556 S
C100 C99 1.351 1_554 S
C100 N101 1.373 1_554 S
C100 H128 0.930 . S
N101 C100 1.373 1_556 S
N101 C103 1.340 . S
N102 C99 1.368 . S
N102 C103 1.321 . S
N102 Co105 2.135 . S
C103 N101 1.340 . S
C103 N102 1.321 . S
C103 H127 0.930 . S
H104 C99 0.931 1_554 S
Co105 N102 2.135 . S
Co105 N108 2.121 . S
Co105 O113 2.055 . S
Co105 O116 2.039 . S
Co105 N119 2.140 . S
C106 O107 1.227 . S
C106 O116 1.265 . S
O107 C106 1.227 . S
N108 Co105 2.121 . S
N108 C110 1.375 . S
N108 C111 1.313 . S
C109 C110 1.338 . S
C109 N112 1.377 . S
C109 H129 0.930 . S
C110 N108 1.375 . S
C110 C109 1.338 . S
C110 H114 0.931 . S
C111 N108 1.313 . S
C111 N112 1.344 . S
C111 H115 0.930 . S
N112 C109 1.377 . S
N112 C111 1.344 . S
O113 Co105 2.055 . S
O113 C117 1.253 . S
H114 C110 0.931 . S
H115 C111 0.930 . S
O116 Co105 2.039 . S
O116 C106 1.265 . S
C117 O113 1.253 . S
C117 O118 1.227 . S
O118 C117 1.227 . S
N119 Co105 2.140 . S
N119 C122 1.346 . S
N119 C123 1.345 . S
C120 C121 1.387 . S
C120 C124 1.391 1_554 S
C121 C120 1.387 . S
C121 C122 1.369 1_554 S
C121 H130 0.929 . S
C122 N119 1.346 . S
C122 C121 1.369 1_556 S
C122 H125 0.928 . S
C123 N119 1.345 . S
C123 C124 1.371 . S
C123 H126 0.931 . S
C124 C120 1.391 1_556 S
C124 C123 1.371 . S
C124 H131 0.930 1_556 S
H125 C122 0.928 . S
H126 C123 0.931 . S
H127 C103 0.930 . S
H128 C100 0.930 . S
H129 C109 0.930 . S
H130 C121 0.929 . S
H131 C124 0.930 1_554 S
C132 C133 1.351 1_556 S
C132 N135 1.368 . S
C132 H137 0.931 1_556 S
C133 C132 1.351 1_554 S
C133 N134 1.373 1_544 S
C133 H161 0.931 1_545 S
N134 C133 1.373 1_566 S
N134 C136 1.340 . S
N135 C132 1.368 . S
N135 C136 1.321 1_545 S
N135 Co138 2.135 . S
C136 N134 1.340 . S
C136 N135 1.321 1_565 S
C136 H160 0.930 . S
H137 C132 0.931 1_554 S
Co138 N135 2.135 . S
Co138 N141 2.121 . S
Co138 O146 2.055 . S
Co138 O149 2.039 . S
Co138 N152 2.140 . S
C139 O140 1.227 . S
C139 O149 1.265 . S
O140 C139 1.227 . S
N141 Co138 2.121 . S
N141 C143 1.375 . S
N141 C144 1.313 . S
C142 C143 1.338 . S
C142 N145 1.377 . S
C142 H162 0.930 . S
C143 N141 1.375 . S
C143 C142 1.338 . S
C143 H147 0.931 . S
C144 N141 1.313 . S
C144 N145 1.344 . S
C144 H148 0.930 . S
N145 C142 1.377 . S
N145 C144 1.344 . S
O146 Co138 2.055 . S
O146 C150 1.253 . S
H147 C143 0.931 . S
H148 C144 0.930 . S
O149 Co138 2.039 . S
O149 C139 1.265 . S
C150 O146 1.253 . S
C150 O151 1.227 . S
O151 C150 1.227 . S
N152 Co138 2.140 . S
N152 C155 1.346 . S
N152 C156 1.345 . S
C153 C154 1.387 . S
C153 C157 1.391 1_554 S
C154 C153 1.387 . S
C154 C155 1.369 1_554 S
C154 H163 0.929 . S
C155 N152 1.346 . S
C155 C154 1.369 1_556 S
C155 H158 0.928 . S
C156 N152 1.345 . S
C156 C157 1.371 . S
C156 H159 0.931 . S
C157 C153 1.391 1_556 S
C157 C156 1.371 . S
C157 H164 0.930 1_556 S
H158 C155 0.928 . S
H159 C156 0.931 . S
H160 C136 0.930 . S
H161 C133 0.931 1_565 S
H162 C142 0.930 . S
H163 C154 0.929 . S
H164 C157 0.930 1_554 S
C165 C166 1.351 1_556 S
C165 N168 1.368 . S
C165 H170 0.931 1_556 S
C166 C165 1.351 1_554 S
C166 N167 1.373 1_654 S
C166 H194 0.929 1_655 S
N167 C166 1.373 1_456 S
N167 C169 1.340 . S
N168 C165 1.368 . S
N168 C169 1.321 1_655 S
N168 Co171 2.135 . S
C169 N167 1.340 . S
C169 N168 1.321 1_455 S
C169 H193 0.930 . S
H170 C165 0.931 1_554 S
Co171 N168 2.135 . S
Co171 N174 2.121 . S
Co171 O179 2.055 . S
Co171 O182 2.039 . S
Co171 N185 2.140 . S
C172 O173 1.227 . S
C172 O182 1.265 . S
O173 C172 1.227 . S
N174 Co171 2.121 . S
N174 C176 1.375 . S
N174 C177 1.313 . S
C175 C176 1.338 . S
C175 N178 1.377 . S
C175 H195 0.930 . S
C176 N174 1.375 . S
C176 C175 1.338 . S
C176 H180 0.931 . S
C177 N174 1.313 . S
C177 N178 1.344 . S
C177 H181 0.930 . S
N178 C175 1.377 . S
N178 C177 1.344 . S
O179 Co171 2.055 . S
O179 C183 1.253 . S
H180 C176 0.931 . S
H181 C177 0.930 . S
O182 Co171 2.039 . S
O182 C172 1.265 . S
C183 O179 1.253 . S
C183 O184 1.227 . S
O184 C183 1.227 . S
N185 Co171 2.140 . S
N185 C188 1.346 . S
N185 C189 1.345 . S
C186 C187 1.387 . S
C186 C190 1.391 1_554 S
C187 C186 1.387 . S
C187 C188 1.369 1_554 S
C187 H196 0.929 . S
C188 N185 1.346 . S
C188 C187 1.369 1_556 S
C188 H191 0.928 . S
C189 N185 1.345 . S
C189 C190 1.371 . S
C189 H192 0.931 . S
C190 C186 1.391 1_556 S
C190 C189 1.371 . S
C190 H197 0.930 1_556 S
H191 C188 0.928 . S
H192 C189 0.931 . S
H193 C169 0.930 . S
H194 C166 0.929 1_455 S
H195 C175 0.930 . S
H196 C187 0.929 . S
H197 C190 0.930 1_554 S
C198 C199 1.351 . S
C198 N201 1.368 . S
C198 H203 0.931 . S
C199 C198 1.351 . S
C199 N200 1.373 . S
C199 H227 0.930 . S
N200 C199 1.373 . S
N200 C202 1.340 . S
N201 C198 1.368 . S
N201 C202 1.321 . S
N201 Co204 2.135 . S
C202 N200 1.340 . S
C202 N201 1.321 . S
C202 H226 0.930 . S
H203 C198 0.931 . S
Co204 N201 2.135 . S
Co204 N207 2.121 . S
Co204 O212 2.055 . S
Co204 O215 2.039 . S
Co204 N218 2.140 . S
C205 O206 1.227 . S
C205 O215 1.265 . S
O206 C205 1.227 . S
N207 Co204 2.121 . S
N207 C209 1.375 . S
N207 C210 1.313 . S
C208 C209 1.338 . S
C208 N211 1.377 . S
C208 H228 0.930 . S
C209 N207 1.375 . S
C209 C208 1.338 . S
C209 H213 0.931 . S
C210 N207 1.313 . S
C210 N211 1.344 . S
C210 H214 0.930 . S
N211 C208 1.377 . S
N211 C210 1.344 . S
O212 Co204 2.055 . S
O212 C216 1.253 . S
H213 C209 0.931 . S
H214 C210 0.930 . S
O215 Co204 2.039 . S
O215 C205 1.265 . S
C216 O212 1.253 . S
C216 O217 1.227 . S
O217 C216 1.227 . S
N218 Co204 2.140 . S
N218 C221 1.346 . S
N218 C222 1.345 . S
C219 C220 1.387 . S
C219 C223 1.391 . S
C220 C219 1.387 . S
C220 C221 1.369 . S
C220 H229 0.929 . S
C221 N218 1.346 . S
C221 C220 1.369 . S
C221 H224 0.928 . S
C222 N218 1.345 . S
C222 C223 1.371 . S
C222 H225 0.931 . S
C223 C219 1.391 . S
C223 C222 1.371 . S
C223 H230 0.930 . S
H224 C221 0.928 . S
H225 C222 0.931 . S
H226 C202 0.930 . S
H227 C199 0.930 . S
H228 C208 0.930 . S
H229 C220 0.929 . S
H230 C223 0.930 . S
C231 C232 1.351 . S
C231 N234 1.368 . S
C231 H236 0.931 . S
C232 C231 1.351 . S
C232 N233 1.373 . S
C232 H260 0.930 . S
N233 C232 1.373 . S
N233 C235 1.340 . S
N234 C231 1.368 . S
N234 C235 1.321 . S
N234 Co237 2.135 . S
C235 N233 1.340 . S
C235 N234 1.321 . S
C235 H259 0.930 . S
H236 C231 0.931 . S
Co237 N234 2.135 . S
Co237 N240 2.121 . S
Co237 O245 2.055 . S
Co237 O248 2.039 . S
Co237 N251 2.140 . S
C238 O239 1.227 . S
C238 O248 1.265 . S
O239 C238 1.227 . S
N240 Co237 2.121 . S
N240 C242 1.375 . S
N240 C243 1.313 . S
C241 C242 1.338 . S
C241 N244 1.377 . S
C241 H261 0.930 . S
C242 N240 1.375 . S
C242 C241 1.338 . S
C242 H246 0.931 . S
C243 N240 1.313 . S
C243 N244 1.344 . S
C243 H247 0.930 . S
N244 C241 1.377 . S
N244 C243 1.344 . S
O245 Co237 2.055 . S
O245 C249 1.253 . S
H246 C242 0.931 . S
H247 C243 0.930 . S
O248 Co237 2.039 . S
O248 C238 1.265 . S
C249 O245 1.253 . S
C249 O250 1.227 . S
O250 C249 1.227 . S
N251 Co237 2.140 . S
N251 C254 1.346 . S
N251 C255 1.345 . S
C252 C253 1.387 . S
C252 C256 1.391 . S
C253 C252 1.387 . S
C253 C254 1.369 . S
C253 H262 0.929 . S
C254 N251 1.346 . S
C254 C253 1.369 . S
C254 H257 0.928 . S
C255 N251 1.345 . S
C255 C256 1.371 . S
C255 H258 0.931 . S
C256 C252 1.391 . S
C256 C255 1.371 . S
C256 H263 0.930 . S
H257 C254 0.928 . S
H258 C255 0.931 . S
H259 C235 0.930 . S
H260 C232 0.930 . S
H261 C241 0.930 . S
H262 C253 0.929 . S
H263 C256 0.930 . S
C264 C265 1.351 . S
C264 N267 1.368 . S
C264 H269 0.931 . S
C265 C264 1.351 . S
C265 N266 1.373 . S
C265 H293 0.930 . S
N266 C265 1.373 . S
N266 C268 1.340 . S
N267 C264 1.368 . S
N267 C268 1.321 . S
N267 Co270 2.135 . S
C268 N266 1.340 . S
C268 N267 1.321 . S
C268 H292 0.930 . S
H269 C264 0.931 . S
Co270 N267 2.135 . S
Co270 N273 2.121 . S
Co270 O278 2.055 . S
Co270 O281 2.039 . S
Co270 N284 2.140 . S
C271 O272 1.227 . S
C271 O281 1.265 . S
O272 C271 1.227 . S
N273 Co270 2.121 . S
N273 C275 1.375 . S
N273 C276 1.313 . S
C274 C275 1.338 . S
C274 N277 1.377 . S
C274 H294 0.930 . S
C275 N273 1.375 . S
C275 C274 1.338 . S
C275 H279 0.931 . S
C276 N273 1.313 . S
C276 N277 1.344 . S
C276 H280 0.930 . S
N277 C274 1.377 . S
N277 C276 1.344 . S
O278 Co270 2.055 . S
O278 C282 1.253 . S
H279 C275 0.931 . S
H280 C276 0.930 . S
O281 Co270 2.039 . S
O281 C271 1.265 . S
C282 O278 1.253 . S
C282 O283 1.227 . S
O283 C282 1.227 . S
N284 Co270 2.140 . S
N284 C287 1.346 . S
N284 C288 1.345 . S
C285 C286 1.387 . S
C285 C289 1.391 . S
C286 C285 1.387 . S
C286 C287 1.369 . S
C286 H295 0.929 . S
C287 N284 1.346 . S
C287 C286 1.369 . S
C287 H290 0.928 . S
C288 N284 1.345 . S
C288 C289 1.371 . S
C288 H291 0.931 . S
C289 C285 1.391 . S
C289 C288 1.371 . S
C289 H296 0.930 . S
H290 C287 0.928 . S
H291 C288 0.931 . S
H292 C268 0.930 . S
H293 C265 0.930 . S
H294 C274 0.930 . S
H295 C286 0.929 . S
H296 C289 0.930 . S
C297 C298 1.351 . S
C297 N300 1.368 . S
C297 H302 0.931 . S
C298 C297 1.351 . S
C298 N299 1.373 . S
C298 H326 0.930 . S
N299 C298 1.373 . S
N299 C301 1.340 . S
N300 C297 1.368 . S
N300 C301 1.321 . S
N300 Co303 2.135 . S
C301 N299 1.340 . S
C301 N300 1.321 . S
C301 H325 0.930 . S
H302 C297 0.931 . S
Co303 N300 2.135 . S
Co303 N306 2.121 . S
Co303 O311 2.055 . S
Co303 O314 2.039 . S
Co303 N317 2.140 . S
C304 O305 1.227 . S
C304 O314 1.265 . S
O305 C304 1.227 . S
N306 Co303 2.121 . S
N306 C308 1.375 . S
N306 C309 1.313 . S
C307 C308 1.338 . S
C307 N310 1.377 . S
C307 H327 0.930 1_545 S
C308 N306 1.375 . S
C308 C307 1.338 . S
C308 H312 0.931 . S
C309 N306 1.313 . S
C309 N310 1.344 . S
C309 H313 0.930 . S
N310 C307 1.377 . S
N310 C309 1.344 . S
O311 Co303 2.055 . S
O311 C315 1.253 . S
H312 C308 0.931 . S
H313 C309 0.930 . S
O314 Co303 2.039 . S
O314 C304 1.265 . S
C315 O311 1.253 . S
C315 O316 1.227 . S
O316 C315 1.227 . S
N317 Co303 2.140 . S
N317 C320 1.346 . S
N317 C321 1.345 . S
C318 C319 1.387 . S
C318 C322 1.391 . S
C319 C318 1.387 . S
C319 C320 1.369 . S
C319 H328 0.929 . S
C320 N317 1.346 . S
C320 C319 1.369 . S
C320 H323 0.928 . S
C321 N317 1.345 . S
C321 C322 1.371 . S
C321 H324 0.931 . S
C322 C318 1.391 . S
C322 C321 1.371 . S
C322 H329 0.930 1_545 S
H323 C320 0.928 . S
H324 C321 0.931 . S
H325 C301 0.930 . S
H326 C298 0.930 . S
H327 C307 0.930 1_565 S
H328 C319 0.929 . S
H329 C322 0.930 1_565 S
C330 C331 1.351 . S
C330 N333 1.368 . S
C330 H335 0.931 . S
C331 C330 1.351 . S
C331 N332 1.373 . S
C331 H359 0.930 . S
N332 C331 1.373 . S
N332 C334 1.340 . S
N333 C330 1.368 . S
N333 C334 1.321 . S
N333 Co336 2.135 . S
C334 N332 1.340 . S
C334 N333 1.321 . S
C334 H358 0.930 . S
H335 C330 0.931 . S
Co336 N333 2.135 . S
Co336 N339 2.121 . S
Co336 O344 2.055 . S
Co336 O347 2.039 . S
Co336 N350 2.140 . S
C337 O338 1.227 . S
C337 O347 1.265 . S
O338 C337 1.227 . S
N339 Co336 2.121 . S
N339 C341 1.375 . S
N339 C342 1.313 . S
C340 C341 1.338 . S
C340 N343 1.377 . S
C340 H360 0.930 1_655 S
C341 N339 1.375 . S
C341 C340 1.338 . S
C341 H345 0.931 . S
C342 N339 1.313 . S
C342 N343 1.344 . S
C342 H346 0.930 . S
N343 C340 1.377 . S
N343 C342 1.344 . S
O344 Co336 2.055 . S
O344 C348 1.253 . S
H345 C341 0.931 . S
H346 C342 0.930 . S
O347 Co336 2.039 . S
O347 C337 1.265 . S
C348 O344 1.253 . S
C348 O349 1.227 . S
O349 C348 1.227 . S
N350 Co336 2.140 . S
N350 C353 1.346 . S
N350 C354 1.345 . S
C351 C352 1.387 . S
C351 C355 1.391 . S
C352 C351 1.387 . S
C352 C353 1.369 . S
C352 H361 0.929 . S
C353 N350 1.346 . S
C353 C352 1.369 . S
C353 H356 0.928 . S
C354 N350 1.345 . S
C354 C355 1.371 . S
C354 H357 0.931 . S
C355 C351 1.391 . S
C355 C354 1.371 . S
C355 H362 0.930 1_655 S
H356 C353 0.928 . S
H357 C354 0.931 . S
H358 C334 0.930 . S
H359 C331 0.930 . S
H360 C340 0.930 1_455 S
H361 C352 0.929 . S
H362 C355 0.930 1_455 S
C363 C364 1.351 . S
C363 N366 1.368 . S
C363 H368 0.931 . S
C364 C363 1.351 . S
C364 N365 1.373 . S
C364 H392 0.930 . S
N365 C364 1.373 . S
N365 C367 1.340 . S
N366 C363 1.368 . S
N366 C367 1.321 . S
N366 Co369 2.135 . S
C367 N365 1.340 . S
C367 N366 1.321 . S
C367 H391 0.930 . S
H368 C363 0.931 . S
Co369 N366 2.135 . S
Co369 N372 2.121 . S
Co369 O377 2.055 . S
Co369 O380 2.039 . S
Co369 N383 2.140 . S
C370 O371 1.227 . S
C370 O380 1.265 . S
O371 C370 1.227 . S
N372 Co369 2.121 . S
N372 C374 1.375 . S
N372 C375 1.313 . S
C373 C374 1.338 . S
C373 N376 1.377 . S
C373 H393 0.930 . S
C374 N372 1.375 . S
C374 C373 1.338 . S
C374 H378 0.931 . S
C375 N372 1.313 . S
C375 N376 1.344 . S
C375 H379 0.930 . S
N376 C373 1.377 . S
N376 C375 1.344 . S
O377 Co369 2.055 . S
O377 C381 1.253 . S
H378 C374 0.931 . S
H379 C375 0.930 . S
O380 Co369 2.039 . S
O380 C370 1.265 . S
C381 O377 1.253 . S
C381 O382 1.227 . S
O382 C381 1.227 . S
N383 Co369 2.140 . S
N383 C386 1.346 . S
N383 C387 1.345 . S
C384 C385 1.387 . S
C384 C388 1.391 . S
C385 C384 1.387 . S
C385 C386 1.369 . S
C385 H394 0.929 . S
C386 N383 1.346 . S
C386 C385 1.369 . S
C386 H389 0.928 . S
C387 N383 1.345 . S
C387 C388 1.371 . S
C387 H390 0.931 . S
C388 C384 1.391 . S
C388 C387 1.371 . S
C388 H395 0.930 . S
H389 C386 0.928 . S
H390 C387 0.931 . S
H391 C367 0.930 . S
H392 C364 0.930 . S
H393 C373 0.930 . S
H394 C385 0.929 . S
H395 C388 0.930 . S
C396 C397 1.351 . S
C396 N399 1.368 . S
C396 H401 0.931 . S
C397 C396 1.351 . S
C397 N398 1.373 . S
C397 H425 0.930 . S
N398 C397 1.373 . S
N398 C400 1.340 . S
N399 C396 1.368 . S
N399 C400 1.321 . S
N399 Co402 2.135 . S
C400 N398 1.340 . S
C400 N399 1.321 . S
C400 H424 0.930 . S
H401 C396 0.931 . S
Co402 N399 2.135 . S
Co402 N405 2.121 . S
Co402 O410 2.055 . S
Co402 O413 2.039 . S
Co402 N416 2.140 . S
C403 O404 1.227 . S
C403 O413 1.265 . S
O404 C403 1.227 . S
N405 Co402 2.121 . S
N405 C407 1.375 . S
N405 C408 1.313 . S
C406 C407 1.338 . S
C406 N409 1.377 . S
C406 H426 0.930 1_565 S
C407 N405 1.375 . S
C407 C406 1.338 . S
C407 H411 0.931 . S
C408 N405 1.313 . S
C408 N409 1.344 . S
C408 H412 0.930 . S
N409 C406 1.377 . S
N409 C408 1.344 . S
O410 Co402 2.055 . S
O410 C414 1.253 . S
H411 C407 0.931 . S
H412 C408 0.930 . S
O413 Co402 2.039 . S
O413 C403 1.265 . S
C414 O410 1.253 . S
C414 O415 1.227 . S
O415 C414 1.227 . S
N416 Co402 2.140 . S
N416 C419 1.346 . S
N416 C420 1.345 . S
C417 C418 1.387 . S
C417 C421 1.391 . S
C418 C417 1.387 . S
C418 C419 1.369 . S
C418 H427 0.929 . S
C419 N416 1.346 . S
C419 C418 1.369 . S
C419 H422 0.928 . S
C420 N416 1.345 . S
C420 C421 1.371 . S
C420 H423 0.931 . S
C421 C417 1.391 . S
C421 C420 1.371 . S
C421 H428 0.930 1_565 S
H422 C419 0.928 . S
H423 C420 0.931 . S
H424 C400 0.930 . S
H425 C397 0.930 . S
H426 C406 0.930 1_545 S
H427 C418 0.929 . S
H428 C421 0.930 1_545 S
C429 C430 1.351 . S
C429 N432 1.368 . S
C429 H434 0.931 . S
C430 C429 1.351 . S
C430 N431 1.373 . S
C430 H458 0.930 . S
N431 C430 1.373 . S
N431 C433 1.340 . S
N432 C429 1.368 . S
N432 C433 1.321 . S
N432 Co435 2.135 . S
C433 N431 1.340 . S
C433 N432 1.321 . S
C433 H457 0.930 . S
H434 C429 0.931 . S
Co435 N432 2.135 . S
Co435 N438 2.121 . S
Co435 O443 2.055 . S
Co435 O446 2.039 . S
Co435 N449 2.140 . S
C436 O437 1.227 . S
C436 O446 1.265 . S
O437 C436 1.227 . S
N438 Co435 2.121 . S
N438 C440 1.375 . S
N438 C441 1.313 . S
C439 C440 1.338 . S
C439 N442 1.377 . S
C439 H459 0.930 1_455 S
C440 N438 1.375 . S
C440 C439 1.338 . S
C440 H444 0.931 . S
C441 N438 1.313 . S
C441 N442 1.344 . S
C441 H445 0.930 . S
N442 C439 1.377 . S
N442 C441 1.344 . S
O443 Co435 2.055 . S
O443 C447 1.253 . S
H444 C440 0.931 . S
H445 C441 0.930 . S
O446 Co435 2.039 . S
O446 C436 1.265 . S
C447 O443 1.253 . S
C447 O448 1.227 . S
O448 C447 1.227 . S
N449 Co435 2.140 . S
N449 C452 1.346 . S
N449 C453 1.345 . S
C450 C451 1.387 . S
C450 C454 1.391 . S
C451 C450 1.387 . S
C451 C452 1.369 . S
C451 H460 0.929 . S
C452 N449 1.346 . S
C452 C451 1.369 . S
C452 H455 0.928 . S
C453 N449 1.345 . S
C453 C454 1.371 . S
C453 H456 0.931 . S
C454 C450 1.391 . S
C454 C453 1.371 . S
C454 H461 0.930 1_455 S
H455 C452 0.928 . S
H456 C453 0.931 . S
H457 C433 0.930 . S
H458 C430 0.930 . S
H459 C439 0.930 1_655 S
H460 C451 0.929 . S
H461 C454 0.930 1_655 S
C462 C463 1.351 . S
C462 N465 1.368 . S
C462 H467 0.931 . S
C463 C462 1.351 . S
C463 N464 1.373 . S
C463 H491 0.930 . S
N464 C463 1.373 . S
N464 C466 1.340 . S
N465 C462 1.368 . S
N465 C466 1.321 . S
N465 Co468 2.135 . S
C466 N464 1.340 . S
C466 N465 1.321 . S
C466 H490 0.930 . S
H467 C462 0.931 . S
Co468 N465 2.135 . S
Co468 N471 2.121 . S
Co468 O476 2.055 . S
Co468 O479 2.039 . S
Co468 N482 2.140 . S
C469 O470 1.227 . S
C469 O479 1.265 . S
O470 C469 1.227 . S
N471 Co468 2.121 . S
N471 C473 1.375 . S
N471 C474 1.313 . S
C472 C473 1.338 . S
C472 N475 1.377 . S
C472 H492 0.930 . S
C473 N471 1.375 . S
C473 C472 1.338 . S
C473 H477 0.931 . S
C474 N471 1.313 . S
C474 N475 1.344 . S
C474 H478 0.930 . S
N475 C472 1.377 . S
N475 C474 1.344 . S
O476 Co468 2.055 . S
O476 C480 1.253 . S
H477 C473 0.931 . S
H478 C474 0.930 . S
O479 Co468 2.039 . S
O479 C469 1.265 . S
C480 O476 1.253 . S
C480 O481 1.227 . S
O481 C480 1.227 . S
N482 Co468 2.140 . S
N482 C485 1.346 . S
N482 C486 1.345 . S
C483 C484 1.387 . S
C483 C487 1.391 . S
C484 C483 1.387 . S
C484 C485 1.369 . S
C484 H493 0.929 . S
C485 N482 1.346 . S
C485 C484 1.369 . S
C485 H488 0.928 . S
C486 N482 1.345 . S
C486 C487 1.371 . S
C486 H489 0.931 . S
C487 C483 1.391 . S
C487 C486 1.371 . S
C487 H494 0.930 . S
H488 C485 0.928 . S
H489 C486 0.931 . S
H490 C466 0.930 . S
H491 C463 0.930 . S
H492 C472 0.930 . S
H493 C484 0.929 . S
H494 C487 0.930 . S
C495 C496 1.351 . S
C495 N498 1.368 . S
C495 H500 0.931 . S
C496 C495 1.351 . S
C496 N497 1.373 . S
C496 H524 0.930 . S
N497 C496 1.373 . S
N497 C499 1.340 . S
N498 C495 1.368 . S
N498 C499 1.321 . S
N498 Co501 2.135 . S
C499 N497 1.340 . S
C499 N498 1.321 . S
C499 H523 0.930 . S
H500 C495 0.931 . S
Co501 N498 2.135 . S
Co501 N504 2.121 . S
Co501 O509 2.055 . S
Co501 O512 2.039 . S
Co501 N515 2.140 . S
C502 O503 1.227 . S
C502 O512 1.265 . S
O503 C502 1.227 . S
N504 Co501 2.121 . S
N504 C506 1.375 . S
N504 C507 1.313 . S
C505 C506 1.338 . S
C505 N508 1.377 . S
C505 H525 0.930 . S
C506 N504 1.375 . S
C506 C505 1.338 . S
C506 H510 0.931 . S
C507 N504 1.313 . S
C507 N508 1.344 . S
C507 H511 0.930 . S
N508 C505 1.377 . S
N508 C507 1.344 . S
O509 Co501 2.055 . S
O509 C513 1.253 . S
H510 C506 0.931 . S
H511 C507 0.930 . S
O512 Co501 2.039 . S
O512 C502 1.265 . S
C513 O509 1.253 . S
C513 O514 1.227 . S
O514 C513 1.227 . S
N515 Co501 2.140 . S
N515 C518 1.346 . S
N515 C519 1.345 . S
C516 C517 1.387 . S
C516 C520 1.391 . S
C517 C516 1.387 . S
C517 C518 1.369 . S
C517 H526 0.929 . S
C518 N515 1.346 . S
C518 C517 1.369 . S
C518 H521 0.928 . S
C519 N515 1.345 . S
C519 C520 1.371 . S
C519 H522 0.931 . S
C520 C516 1.391 . S
C520 C519 1.371 . S
C520 H527 0.930 . S
H521 C518 0.928 . S
H522 C519 0.931 . S
H523 C499 0.930 . S
H524 C496 0.930 . S
H525 C505 0.930 . S
H526 C517 0.929 . S
H527 C520 0.930 . S
C528 C529 1.351 . S
C528 N531 1.368 . S
C528 H533 0.931 . S
C529 C528 1.351 . S
C529 N530 1.373 . S
C529 H557 0.930 . S
N530 C529 1.373 . S
N530 C532 1.340 . S
N531 C528 1.368 . S
N531 C532 1.321 . S
N531 Co534 2.135 . S
C532 N530 1.340 . S
C532 N531 1.321 . S
C532 H556 0.930 . S
H533 C528 0.931 . S
Co534 N531 2.135 . S
Co534 N537 2.121 . S
Co534 O542 2.055 . S
Co534 O545 2.039 . S
Co534 N548 2.140 . S
C535 O536 1.227 . S
C535 O545 1.265 . S
O536 C535 1.227 . S
N537 Co534 2.121 . S
N537 C539 1.375 . S
N537 C540 1.313 . S
C538 C539 1.338 . S
C538 N541 1.377 . S
C538 H558 0.930 . S
C539 N537 1.375 . S
C539 C538 1.338 . S
C539 H543 0.931 . S
C540 N537 1.313 . S
C540 N541 1.344 . S
C540 H544 0.930 . S
N541 C538 1.377 . S
N541 C540 1.344 . S
O542 Co534 2.055 . S
O542 C546 1.253 . S
H543 C539 0.931 . S
H544 C540 0.930 . S
O545 Co534 2.039 . S
O545 C535 1.265 . S
C546 O542 1.253 . S
C546 O547 1.227 . S
O547 C546 1.227 . S
N548 Co534 2.140 . S
N548 C551 1.346 . S
N548 C552 1.345 . S
C549 C550 1.387 . S
C549 C553 1.391 . S
C550 C549 1.387 . S
C550 C551 1.369 . S
C550 H559 0.929 . S
C551 N548 1.346 . S
C551 C550 1.369 . S
C551 H554 0.928 . S
C552 N548 1.345 . S
C552 C553 1.371 . S
C552 H555 0.931 . S
C553 C549 1.391 . S
C553 C552 1.371 . S
C553 H560 0.930 . S
H554 C551 0.928 . S
H555 C552 0.931 . S
H556 C532 0.930 . S
H557 C529 0.930 . S
H558 C538 0.930 . S
H559 C550 0.929 . S
H560 C553 0.930 . S
C561 C562 1.351 . S
C561 N564 1.368 . S
C561 H566 0.931 . S
C562 C561 1.351 . S
C562 N563 1.373 . S
C562 H590 0.930 . S
N563 C562 1.373 . S
N563 C565 1.340 . S
N564 C561 1.368 . S
N564 C565 1.321 . S
N564 Co567 2.135 . S
C565 N563 1.340 . S
C565 N564 1.321 . S
C565 H589 0.930 . S
H566 C561 0.931 . S
Co567 N564 2.135 . S
Co567 N570 2.121 . S
Co567 O575 2.055 . S
Co567 O578 2.039 . S
Co567 N581 2.140 . S
C568 O569 1.227 . S
C568 O578 1.265 . S
O569 C568 1.227 . S
N570 Co567 2.121 . S
N570 C572 1.375 . S
N570 C573 1.313 . S
C571 C572 1.338 . S
C571 N574 1.377 . S
C571 H591 0.930 . S
C572 N570 1.375 . S
C572 C571 1.338 . S
C572 H576 0.931 . S
C573 N570 1.313 . S
C573 N574 1.344 . S
C573 H577 0.930 . S
N574 C571 1.377 . S
N574 C573 1.344 . S
O575 Co567 2.055 . S
O575 C579 1.253 . S
H576 C572 0.931 . S
H577 C573 0.930 . S
O578 Co567 2.039 . S
O578 C568 1.265 . S
C579 O575 1.253 . S
C579 O580 1.227 . S
O580 C579 1.227 . S
N581 Co567 2.140 . S
N581 C584 1.346 . S
N581 C585 1.345 . S
C582 C583 1.387 . S
C582 C586 1.391 . S
C583 C582 1.387 . S
C583 C584 1.369 . S
C583 H592 0.929 . S
C584 N581 1.346 . S
C584 C583 1.369 . S
C584 H587 0.928 . S
C585 N581 1.345 . S
C585 C586 1.371 . S
C585 H588 0.931 . S
C586 C582 1.391 . S
C586 C585 1.371 . S
C586 H593 0.930 . S
H587 C584 0.928 . S
H588 C585 0.931 . S
H589 C565 0.930 . S
H590 C562 0.930 . S
H591 C571 0.930 . S
H592 C583 0.929 . S
H593 C586 0.930 . S
C594 C595 1.369 . S
C594 C596 1.419 . S
C594 H598 0.930 . S
C595 C594 1.369 . S
C595 C604 1.429 . S
C596 C594 1.419 . S
C596 C597 1.363 . S
C596 H599 0.929 . S
C597 C596 1.363 . S
C597 C603 1.428 . S
H598 C594 0.930 . S
H599 C596 0.929 . S
S600 N601 1.613 . S
S600 N602 1.610 . S
N601 S600 1.613 . S
N601 C604 1.350 . S
N602 S600 1.610 . S
N602 C603 1.351 . S
C603 C597 1.428 . S
C603 N602 1.351 . S
C603 C604 1.434 . S
C604 C595 1.429 . S
C604 N601 1.350 . S
C604 C603 1.434 . S
C605 C606 1.369 . S
C605 C607 1.419 . S
C605 H609 0.930 . S
C606 C605 1.369 . S
C606 C615 1.429 . S
C607 C605 1.419 . S
C607 C608 1.363 . S
C607 H610 0.929 . S
C608 C607 1.363 . S
C608 C614 1.428 . S
H609 C605 0.930 . S
H610 C607 0.929 . S
S611 N612 1.613 1_545 S
S611 N613 1.610 . S
N612 S611 1.613 1_565 S
N612 C615 1.350 1_565 S
N613 S611 1.610 . S
N613 C614 1.351 . S
C614 C608 1.428 . S
C614 N613 1.351 . S
C614 C615 1.434 . S
C615 C606 1.429 . S
C615 N612 1.350 1_545 S
C615 C614 1.434 . S
C616 C617 1.369 . S
C616 C618 1.419 . S
C616 H620 0.930 . S
C617 C616 1.369 . S
C617 C626 1.426 . S
C618 C616 1.419 . S
C618 C619 1.363 . S
C618 H621 0.929 . S
C619 C618 1.363 . S
C619 C625 1.428 . S
H620 C616 0.930 . S
H621 C618 0.929 . S
S622 N623 1.613 . S
S622 N624 1.610 1_455 S
N623 S622 1.613 . S
N623 C626 1.353 1_455 S
N624 S622 1.610 1_655 S
N624 C625 1.351 . S
C625 C619 1.428 . S
C625 N624 1.351 . S
C625 C626 1.433 . S
C626 C617 1.426 . S
C626 N623 1.353 1_655 S
C626 C625 1.433 . S
C627 C628 1.369 . S
C627 C629 1.419 . S
C627 H631 0.930 . S
C628 C627 1.369 . S
C628 C637 1.429 . S
C629 C627 1.419 . S
C629 C630 1.363 . S
C629 H632 0.929 . S
C630 C629 1.363 . S
C630 C636 1.428 . S
H631 C627 0.930 . S
H632 C629 0.929 . S
S633 N634 1.613 . S
S633 N635 1.610 . S
N634 S633 1.613 . S
N634 C637 1.350 . S
N635 S633 1.610 . S
N635 C636 1.351 . S
C636 C630 1.428 . S
C636 N635 1.351 . S
C636 C637 1.434 . S
C637 C628 1.429 . S
C637 N634 1.350 . S
C637 C636 1.434 . S
C638 C639 1.369 . S
C638 C640 1.419 . S
C638 H642 0.930 1_565 S
C639 C638 1.369 . S
C639 C648 1.429 . S
C640 C638 1.419 . S
C640 C641 1.363 . S
C640 H643 0.929 . S
C641 C640 1.363 . S
C641 C647 1.428 . S
H642 C638 0.930 1_545 S
H643 C640 0.929 . S
S644 N645 1.613 . S
S644 N646 1.610 . S
N645 S644 1.613 . S
N645 C648 1.350 . S
N646 S644 1.610 . S
N646 C647 1.351 . S
C647 C641 1.428 . S
C647 N646 1.351 . S
C647 C648 1.434 . S
C648 C639 1.429 . S
C648 N645 1.350 . S
C648 C647 1.434 . S
C649 C650 1.369 . S
C649 C651 1.419 . S
C649 H653 0.930 . S
C650 C649 1.369 . S
C650 C659 1.429 1_455 S
C651 C649 1.419 . S
C651 C652 1.363 . S
C651 H654 0.929 . S
C652 C651 1.363 . S
C652 C658 1.428 . S
H653 C649 0.930 . S
H654 C651 0.929 . S
S655 N656 1.613 . S
S655 N657 1.610 1_655 S
N656 S655 1.613 . S
N656 C659 1.350 . S
N657 S655 1.610 1_455 S
N657 C658 1.351 . S
C658 C652 1.428 . S
C658 N657 1.351 . S
C658 C659 1.434 1_455 S
C659 C650 1.429 1_655 S
C659 N656 1.350 . S
C659 C658 1.434 1_655 S
C660 C661 1.369 . S
C660 C662 1.419 . S
C660 H664 0.930 . S
C661 C660 1.369 . S
C661 C670 1.429 . S
C662 C660 1.419 . S
C662 C663 1.363 . S
C662 H665 0.929 . S
C663 C662 1.363 . S
C663 C669 1.428 . S
H664 C660 0.930 . S
H665 C662 0.929 . S
S666 N667 1.613 . S
S666 N668 1.610 . S
N667 S666 1.613 . S
N667 C670 1.350 . S
N668 S666 1.610 . S
N668 C669 1.351 . S
C669 C663 1.428 . S
C669 N668 1.351 . S
C669 C670 1.434 . S
C670 C661 1.429 . S
C670 N667 1.350 . S
C670 C669 1.434 . S
C671 C672 1.369 . S
C671 C673 1.419 . S
C671 H675 0.930 . S
C672 C671 1.369 . S
C672 C681 1.429 . S
C673 C671 1.419 . S
C673 C674 1.363 . S
C673 H676 0.929 . S
C674 C673 1.363 . S
C674 C680 1.428 . S
H675 C671 0.930 . S
H676 C673 0.929 . S
S677 N678 1.613 . S
S677 N679 1.610 . S
N678 S677 1.613 . S
N678 C681 1.350 . S
N679 S677 1.610 . S
N679 C680 1.351 . S
C680 C674 1.428 . S
C680 N679 1.351 . S
C680 C681 1.434 . S
C681 C672 1.429 . S
C681 N678 1.350 . S
C681 C680 1.434 . S
C682 C683 1.369 . S
C682 C684 1.419 . S
C682 H686 0.930 . S
C683 C682 1.369 . S
C683 C692 1.429 . S
C684 C682 1.419 . S
C684 C685 1.363 . S
C684 H687 0.929 . S
C685 C684 1.363 . S
C685 C691 1.428 . S
H686 C682 0.930 . S
H687 C684 0.929 . S
S688 N689 1.613 . S
S688 N690 1.610 . S
N689 S688 1.613 . S
N689 C692 1.350 . S
N690 S688 1.610 . S
N690 C691 1.351 . S
C691 C685 1.428 . S
C691 N690 1.351 . S
C691 C692 1.434 . S
C692 C683 1.429 . S
C692 N689 1.350 . S
C692 C691 1.434 . S
C693 C694 1.369 . S
C693 C695 1.419 . S
C693 H697 0.930 . S
C694 C693 1.369 . S
C694 C703 1.429 . S
C695 C693 1.419 . S
C695 C696 1.363 . S
C695 H698 0.929 . S
C696 C695 1.363 . S
C696 C702 1.428 . S
H697 C693 0.930 . S
H698 C695 0.929 . S
S699 N700 1.613 . S
S699 N701 1.610 . S
N700 S699 1.613 . S
N700 C703 1.350 . S
N701 S699 1.610 . S
N701 C702 1.351 . S
C702 C696 1.428 . S
C702 N701 1.351 . S
C702 C703 1.434 . S
C703 C694 1.429 . S
C703 N700 1.350 . S
C703 C702 1.434 . S
C704 C705 1.369 . S
C704 C706 1.419 . S
C704 H708 0.930 . S
C705 C704 1.369 . S
C705 C714 1.429 . S
C706 C704 1.419 . S
C706 C707 1.363 . S
C706 H709 0.929 . S
C707 C706 1.363 . S
C707 C713 1.428 . S
H708 C704 0.930 . S
H709 C706 0.929 . S
S710 N711 1.613 . S
S710 N712 1.610 . S
N711 S710 1.613 . S
N711 C714 1.350 . S
N712 S710 1.610 . S
N712 C713 1.351 . S
C713 C707 1.428 . S
C713 N712 1.351 . S
C713 C714 1.434 . S
C714 C705 1.429 . S
C714 N711 1.350 . S
C714 C713 1.434 . S
C715 C716 1.369 . S
C715 C717 1.419 . S
C715 H719 0.930 . S
C716 C715 1.369 . S
C716 C725 1.429 . S
C717 C715 1.419 . S
C717 C718 1.363 . S
C717 H720 0.929 . S
C718 C717 1.363 . S
C718 C724 1.428 . S
H719 C715 0.930 . S
H720 C717 0.929 . S
S721 N722 1.613 1_556 S
S721 N723 1.610 . S
N722 S721 1.613 1_554 S
N722 C725 1.350 . S
N723 S721 1.610 . S
N723 C724 1.351 1_556 S
C724 C718 1.428 . S
C724 N723 1.351 1_554 S
C724 C725 1.434 . S
C725 C716 1.429 . S
C725 N722 1.350 . S
C725 C724 1.434 . S
C726 C727 1.369 . S
C726 C728 1.419 . S
C726 H730 0.930 . S
C727 C726 1.369 . S
C727 C736 1.429 . S
C728 C726 1.419 . S
C728 C729 1.363 . S
C728 H731 0.929 . S
C729 C728 1.363 . S
C729 C735 1.428 . S
H730 C726 0.930 . S
H731 C728 0.929 . S
S732 N733 1.613 . S
S732 N734 1.610 . S
N733 S732 1.613 . S
N733 C736 1.350 1_554 S
N734 S732 1.610 . S
N734 C735 1.351 1_554 S
C735 C729 1.428 . S
C735 N734 1.351 1_556 S
C735 C736 1.434 . S
C736 C727 1.429 . S
C736 N733 1.350 1_556 S
C736 C735 1.434 . S
C737 C738 1.369 . S
C737 C739 1.419 . S
C737 H741 0.930 . S
C738 C737 1.369 . S
C738 C747 1.429 . S
C739 C737 1.419 . S
C739 C740 1.363 . S
C739 H742 0.929 . S
C740 C739 1.363 . S
C740 C746 1.428 . S
H741 C737 0.930 . S
H742 C739 0.929 . S
S743 N744 1.613 . S
S743 N745 1.610 . S
N744 S743 1.613 . S
N744 C747 1.350 . S
N745 S743 1.610 . S
N745 C746 1.351 . S
C746 C740 1.428 . S
C746 N745 1.351 . S
C746 C747 1.434 . S
C747 C738 1.429 . S
C747 N744 1.350 . S
C747 C746 1.434 . S
C748 C749 1.369 . S
C748 C750 1.419 . S
C748 H752 0.930 . S
C749 C748 1.369 . S
C749 C758 1.429 . S
C750 C748 1.419 . S
C750 C751 1.363 . S
C750 H753 0.929 . S
C751 C750 1.363 . S
C751 C757 1.428 . S
H752 C748 0.930 . S
H753 C750 0.929 . S
S754 N755 1.613 . S
S754 N756 1.610 . S
N755 S754 1.613 . S
N755 C758 1.350 . S
N756 S754 1.610 . S
N756 C757 1.351 . S
C757 C751 1.428 . S
C757 N756 1.351 . S
C757 C758 1.434 . S
C758 C749 1.429 . S
C758 N755 1.350 . S
C758 C757 1.434 . S
C759 C760 1.369 . S
C759 C761 1.419 . S
C759 H763 0.930 . S
C760 C759 1.369 . S
C760 C769 1.429 . S
C761 C759 1.419 . S
C761 C762 1.363 . S
C761 H764 0.929 . S
C762 C761 1.363 . S
C762 C768 1.428 . S
H763 C759 0.930 . S
H764 C761 0.929 . S
S765 N766 1.613 . S
S765 N767 1.610 . S
N766 S765 1.613 . S
N766 C769 1.350 . S
N767 S765 1.610 . S
N767 C768 1.351 . S
C768 C762 1.428 . S
C768 N767 1.351 . S
C768 C769 1.434 . S
C769 C760 1.429 . S
C769 N766 1.350 . S
C769 C768 1.434 . S
C770 C771 1.369 . S
C770 C772 1.419 . S
C770 H774 0.930 . S
C771 C770 1.369 . S
C771 C780 1.429 . S
C772 C770 1.419 . S
C772 C773 1.363 . S
C772 H775 0.929 . S
C773 C772 1.363 . S
C773 C779 1.428 . S
H774 C770 0.930 . S
H775 C772 0.929 . S
S776 N777 1.613 . S
S776 N778 1.610 . S
N777 S776 1.613 . S
N777 C780 1.350 . S
N778 S776 1.610 . S
N778 C779 1.351 . S
C779 C773 1.428 . S
C779 N778 1.351 . S
C779 C780 1.434 . S
C780 C771 1.429 . S
C780 N777 1.350 . S
C780 C779 1.434 . S
C781 C782 1.369 . S
C781 C783 1.419 . S
C781 H785 0.930 . S
C782 C781 1.369 . S
C782 C791 1.429 . S
C783 C781 1.419 . S
C783 C784 1.363 . S
C783 H786 0.929 . S
C784 C783 1.363 . S
C784 C790 1.428 . S
H785 C781 0.930 . S
H786 C783 0.929 . S
S787 N788 1.613 . S
S787 N789 1.610 . S
N788 S787 1.613 . S
N788 C791 1.350 . S
N789 S787 1.610 . S
N789 C790 1.351 . S
C790 C784 1.428 . S
C790 N789 1.351 . S
C790 C791 1.434 . S
C791 C782 1.429 . S
C791 N788 1.350 . S
C791 C790 1.434 . S
C792 C793 1.369 . S
C792 C794 1.419 . S
C792 H796 0.930 . S
C793 C792 1.369 . S
C793 C802 1.429 . S
C794 C792 1.419 . S
C794 C795 1.363 . S
C794 H797 0.929 . S
C795 C794 1.363 . S
C795 C801 1.428 . S
H796 C792 0.930 . S
H797 C794 0.929 . S
S798 N799 1.613 . S
S798 N800 1.610 . S
N799 S798 1.613 . S
N799 C802 1.350 . S
N800 S798 1.610 . S
N800 C801 1.351 . S
C801 C795 1.428 . S
C801 N800 1.351 . S
C801 C802 1.434 . S
C802 C793 1.429 . S
C802 N799 1.350 . S
C802 C801 1.434 . S
C803 C804 1.369 . S
C803 C805 1.419 . S
C803 H807 0.930 . S
C804 C803 1.369 . S
C804 C813 1.429 . S
C805 C803 1.419 . S
C805 C806 1.363 . S
C805 H808 0.929 . S
C806 C805 1.363 . S
C806 C812 1.428 . S
H807 C803 0.930 . S
H808 C805 0.929 . S
S809 N810 1.613 . S
S809 N811 1.610 . S
N810 S809 1.613 . S
N810 C813 1.350 . S
N811 S809 1.610 . S
N811 C812 1.351 . S
C812 C806 1.428 . S
C812 N811 1.351 . S
C812 C813 1.434 . S
C813 C804 1.429 . S
C813 N810 1.350 . S
C813 C812 1.434 . S
C814 C815 1.369 . S
C814 C816 1.419 . S
C814 H818 0.930 . S
C815 C814 1.369 . S
C815 C824 1.429 . S
C816 C814 1.419 . S
C816 C817 1.363 . S
C816 H819 0.929 . S
C817 C816 1.363 . S
C817 C823 1.428 . S
H818 C814 0.930 . S
H819 C816 0.929 . S
S820 N821 1.613 . S
S820 N822 1.610 . S
N821 S820 1.613 . S
N821 C824 1.350 . S
N822 S820 1.610 . S
N822 C823 1.351 . S
C823 C817 1.428 . S
C823 N822 1.351 . S
C823 C824 1.434 . S
C824 C815 1.429 . S
C824 N821 1.350 . S
C824 C823 1.434 . S
C825 C826 1.369 . S
C825 C827 1.419 . S
C825 H829 0.930 . S
C826 C825 1.369 . S
C826 C835 1.429 . S
C827 C825 1.419 . S
C827 C828 1.363 . S
C827 H830 0.929 . S
C828 C827 1.363 . S
C828 C834 1.428 . S
H829 C825 0.930 . S
H830 C827 0.929 . S
S831 N832 1.613 . S
S831 N833 1.610 . S
N832 S831 1.613 . S
N832 C835 1.350 . S
N833 S831 1.610 . S
N833 C834 1.351 . S
C834 C828 1.428 . S
C834 N833 1.351 . S
C834 C835 1.434 . S
C835 C826 1.429 . S
C835 N832 1.350 . S
C835 C834 1.434 . S
C836 C837 1.369 . S
C836 C838 1.419 . S
C836 H840 0.930 . S
C837 C836 1.369 . S
C837 C846 1.429 . S
C838 C836 1.419 . S
C838 C839 1.363 . S
C838 H841 0.929 . S
C839 C838 1.363 . S
C839 C845 1.428 . S
H840 C836 0.930 . S
H841 C838 0.929 . S
S842 N843 1.613 . S
S842 N844 1.610 . S
N843 S842 1.613 . S
N843 C846 1.350 . S
N844 S842 1.610 . S
N844 C845 1.351 . S
C845 C839 1.428 . S
C845 N844 1.351 . S
C845 C846 1.434 . S
C846 C837 1.429 . S
C846 N843 1.350 . S
C846 C845 1.434 . S
C847 C848 1.369 . S
C847 C849 1.419 . S
C847 H851 0.930 . S
C848 C847 1.369 . S
C848 C857 1.429 . S
C849 C847 1.419 . S
C849 C850 1.363 . S
C849 H852 0.929 . S
C850 C849 1.363 . S
C850 C856 1.428 . S
H851 C847 0.930 . S
H852 C849 0.929 . S
S853 N854 1.613 . S
S853 N855 1.610 . S
N854 S853 1.613 . S
N854 C857 1.350 . S
N855 S853 1.610 . S
N855 C856 1.351 . S
C856 C850 1.428 . S
C856 N855 1.351 . S
C856 C857 1.434 . S
C857 C848 1.429 . S
C857 N854 1.350 . S
C857 C856 1.434 . S
C858 C859 1.369 1_565 S
C858 C860 1.419 1_554 S
C858 H862 0.930 . S
C859 C858 1.369 1_545 S
C859 C868 1.429 . S
C860 C858 1.419 1_556 S
C860 C861 1.363 . S
C860 H863 0.929 . S
C861 C860 1.363 . S
C861 C867 1.428 1_565 S
H862 C858 0.930 . S
H863 C860 0.929 . S
S864 N865 1.613 1_556 S
S864 N866 1.610 . S
N865 S864 1.613 1_554 S
N865 C868 1.350 . S
N866 S864 1.610 . S
N866 C867 1.351 . S
C867 C861 1.428 1_545 S
C867 N866 1.351 . S
C867 C868 1.434 1_556 S
C868 C859 1.429 . S
C868 N865 1.350 . S
C868 C867 1.434 1_554 S
C869 C870 1.369 1_655 S
C869 C871 1.419 1_556 S
C869 H873 0.930 . S
C870 C869 1.369 1_455 S
C870 C879 1.429 . S
C871 C869 1.419 1_554 S
C871 C872 1.363 . S
C871 H874 0.929 . S
C872 C871 1.363 . S
C872 C878 1.428 1_655 S
H873 C869 0.930 . S
H874 C871 0.929 . S
S875 N876 1.613 1_554 S
S875 N877 1.610 . S
N876 S875 1.613 1_556 S
N876 C879 1.350 . S
N877 S875 1.610 . S
N877 C878 1.351 . S
C878 C872 1.428 1_455 S
C878 N877 1.351 . S
C878 C879 1.434 1_554 S
C879 C870 1.429 . S
C879 N876 1.350 . S
C879 C878 1.434 1_556 S
C880 C881 1.369 . S
C880 C882 1.419 1_556 S
C880 H884 0.930 . S
C881 C880 1.369 . S
C881 C890 1.429 . S
C882 C880 1.419 1_554 S
C882 C883 1.363 . S
C882 H885 0.929 . S
C883 C882 1.363 . S
C883 C889 1.428 . S
H884 C880 0.930 . S
H885 C882 0.929 . S
S886 N887 1.613 . S
S886 N888 1.610 1_556 S
N887 S886 1.613 . S
N887 C890 1.350 . S
N888 S886 1.610 1_554 S
N888 C889 1.351 . S
C889 C883 1.428 . S
C889 N888 1.351 . S
C889 C890 1.434 1_554 S
C890 C881 1.429 . S
C890 N887 1.350 . S
C890 C889 1.434 1_556 S
C891 C892 1.369 . S
C891 C893 1.419 . S
C891 H895 0.930 . S
C892 C891 1.369 . S
C892 C901 1.429 1_556 S
C893 C891 1.419 . S
C893 C894 1.363 . S
C893 H896 0.929 . S
C894 C893 1.363 . S
C894 C900 1.428 . S
H895 C891 0.930 . S
H896 C893 0.929 . S
S897 N898 1.613 . S
S897 N899 1.610 . S
N898 S897 1.613 . S
N898 C901 1.350 . S
N899 S897 1.610 . S
N899 C900 1.351 1_554 S
C900 C894 1.428 . S
C900 N899 1.351 1_556 S
C900 C901 1.434 1_556 S
C901 C892 1.429 1_554 S
C901 N898 1.350 . S
C901 C900 1.434 1_554 S
C902 C903 1.369 . S
C902 C904 1.419 . S
C902 H906 0.930 . S
C903 C902 1.369 . S
C903 C912 1.429 . S
C904 C902 1.419 . S
C904 C905 1.363 . S
C904 H907 0.929 . S
C905 C904 1.363 . S
C905 C911 1.428 . S
H906 C902 0.930 . S
H907 C904 0.929 . S
S908 N909 1.613 1_554 S
S908 N910 1.610 . S
N909 S908 1.613 1_556 S
N909 C912 1.350 . S
N910 S908 1.610 . S
N910 C911 1.351 1_554 S
C911 C905 1.428 . S
C911 N910 1.351 1_556 S
C911 C912 1.434 . S
C912 C903 1.429 . S
C912 N909 1.350 . S
C912 C911 1.434 . S
C913 C914 1.369 . S
C913 C915 1.419 . S
C913 H917 0.930 . S
C914 C913 1.369 . S
C914 C923 1.429 1_556 S
C915 C913 1.419 . S
C915 C916 1.363 . S
C915 H918 0.929 . S
C916 C915 1.363 . S
C916 C922 1.428 . S
H917 C913 0.930 . S
H918 C915 0.929 . S
S919 N920 1.613 . S
S919 N921 1.610 . S
N920 S919 1.613 . S
N920 C923 1.350 . S
N921 S919 1.610 . S
N921 C922 1.351 1_554 S
C922 C916 1.428 . S
C922 N921 1.351 1_556 S
C922 C923 1.434 1_556 S
C923 C914 1.429 1_554 S
C923 N920 1.350 . S
C923 C922 1.434 1_554 S
C924 C925 1.369 . S
C924 C926 1.419 1_554 S
C924 H928 0.930 . S
C925 C924 1.369 . S
C925 C934 1.429 . S
C926 C924 1.419 1_556 S
C926 C927 1.363 1_556 S
C926 H929 0.929 . S
C927 C926 1.363 1_554 S
C927 C933 1.428 . S
H928 C924 0.930 . S
H929 C926 0.929 . S
S930 N931 1.613 . S
S930 N932 1.610 . S
N931 S930 1.613 . S
N931 C934 1.350 . S
N932 S930 1.610 . S
N932 C933 1.351 . S
C933 C927 1.428 . S
C933 N932 1.351 . S
C933 C934 1.434 . S
C934 C925 1.429 . S
C934 N931 1.350 . S
C934 C933 1.434 . S
C935 C936 1.369 . S
C935 C937 1.419 . S
C935 H939 0.930 . S
C936 C935 1.369 . S
C936 C945 1.429 . S
C937 C935 1.419 . S
C937 C938 1.363 . S
C937 H940 0.929 . S
C938 C937 1.363 . S
C938 C944 1.428 . S
H939 C935 0.930 . S
H940 C937 0.929 . S
S941 N942 1.613 . S
S941 N943 1.610 1_556 S
N942 S941 1.613 . S
N942 C945 1.350 1_556 S
N943 S941 1.610 1_554 S
N943 C944 1.351 . S
C944 C938 1.428 . S
C944 N943 1.351 . S
C944 C945 1.434 . S
C945 C936 1.429 . S
C945 N942 1.350 1_554 S
C945 C944 1.434 . S
C946 C947 1.369 . S
C946 C948 1.419 1_554 S
C946 H950 0.930 1_554 S
C947 C946 1.369 . S
C947 C956 1.429 . S
C948 C946 1.419 1_556 S
C948 C949 1.363 1_556 S
C948 H951 0.929 . S
C949 C948 1.363 1_554 S
C949 C955 1.428 . S
H950 C946 0.930 1_556 S
H951 C948 0.929 . S
S952 N953 1.613 . S
S952 N954 1.610 . S
N953 S952 1.613 . S
N953 C956 1.350 . S
N954 S952 1.610 . S
N954 C955 1.351 . S
C955 C949 1.428 . S
C955 N954 1.351 . S
C955 C956 1.434 . S
C956 C947 1.429 . S
C956 N953 1.350 . S
C956 C955 1.434 . S
C957 C958 1.369 . S
C957 C959 1.419 . S
C957 H961 0.930 . S
C958 C957 1.369 . S
C958 C967 1.429 . S
C959 C957 1.419 . S
C959 C960 1.363 . S
C959 H962 0.929 . S
C960 C959 1.363 . S
C960 C966 1.428 . S
H961 C957 0.930 . S
H962 C959 0.929 . S
S963 N964 1.613 . S
S963 N965 1.610 . S
N964 S963 1.613 . S
N964 C967 1.350 . S
N965 S963 1.610 . S
N965 C966 1.351 . S
C966 C960 1.428 . S
C966 N965 1.351 . S
C966 C967 1.434 . S
C967 C958 1.429 . S
C967 N964 1.350 . S
C967 C966 1.434 . S
C968 C969 1.369 . S
C968 C970 1.419 . S
C968 H972 0.930 . S
C969 C968 1.369 . S
C969 C978 1.429 . S
C970 C968 1.419 . S
C970 C971 1.363 . S
C970 H973 0.929 . S
C971 C970 1.363 . S
C971 C977 1.428 . S
H972 C968 0.930 . S
H973 C970 0.929 . S
S974 N975 1.613 . S
S974 N976 1.610 . S
N975 S974 1.613 . S
N975 C978 1.350 . S
N976 S974 1.610 . S
N976 C977 1.351 . S
C977 C971 1.428 . S
C977 N976 1.351 . S
C977 C978 1.434 . S
C978 C969 1.429 . S
C978 N975 1.350 . S
C978 C977 1.434 . S
C979 C980 1.369 . S
C979 C981 1.419 . S
C979 H983 0.930 . S
C980 C979 1.369 . S
C980 C989 1.429 . S
C981 C979 1.419 . S
C981 C982 1.363 . S
C981 H984 0.929 . S
C982 C981 1.363 . S
C982 C988 1.428 . S
H983 C979 0.930 . S
H984 C981 0.929 . S
S985 N986 1.613 . S
S985 N987 1.610 . S
N986 S985 1.613 . S
N986 C989 1.350 . S
N987 S985 1.610 . S
N987 C988 1.351 . S
C988 C982 1.428 . S
C988 N987 1.351 . S
C988 C989 1.434 . S
C989 C980 1.429 . S
C989 N986 1.350 . S
C989 C988 1.434 . S
C990 C991 1.369 . S
C990 C992 1.419 . S
C990 H994 0.930 . S
C991 C990 1.369 . S
C991 C1000 1.429 . S
C992 C990 1.419 . S
C992 C993 1.363 . S
C992 H995 0.929 . S
C993 C992 1.363 . S
C993 C999 1.428 . S
H994 C990 0.930 . S
H995 C992 0.929 . S
S996 N997 1.613 . S
S996 N998 1.610 . S
N997 S996 1.613 . S
N997 C1000 1.350 . S
N998 S996 1.610 . S
N998 C999 1.351 . S
C999 C993 1.428 . S
C999 N998 1.351 . S
C999 C1000 1.434 . S
C1000 C991 1.429 . S
C1000 N997 1.350 . S
C1000 C999 1.434 . S
C1001 C1002 1.369 . S
C1001 C1003 1.419 . S
C1001 H1005 0.930 . S
C1002 C1001 1.369 . S
C1002 C1011 1.429 . S
C1003 C1001 1.419 . S
C1003 C1004 1.363 . S
C1003 H1006 0.929 . S
C1004 C1003 1.363 . S
C1004 C1010 1.428 . S
H1005 C1001 0.930 . S
H1006 C1003 0.929 . S
S1007 N1008 1.613 . S
S1007 N1009 1.610 . S
N1008 S1007 1.613 . S
N1008 C1011 1.350 . S
N1009 S1007 1.610 . S
N1009 C1010 1.351 . S
C1010 C1004 1.428 . S
C1010 N1009 1.351 . S
C1010 C1011 1.434 . S
C1011 C1002 1.429 . S
C1011 N1008 1.350 . S
C1011 C1010 1.434 . S
C1012 C1013 1.369 . S
C1012 C1014 1.419 . S
C1012 H1016 0.930 . S
C1013 C1012 1.369 . S
C1013 C1022 1.429 . S
C1014 C1012 1.419 . S
C1014 C1015 1.363 . S
C1014 H1017 0.929 . S
C1015 C1014 1.363 . S
C1015 C1021 1.428 . S
H1016 C1012 0.930 . S
H1017 C1014 0.929 . S
S1018 N1019 1.613 . S
S1018 N1020 1.610 . S
N1019 S1018 1.613 . S
N1019 C1022 1.350 . S
N1020 S1018 1.610 . S
N1020 C1021 1.351 . S
C1021 C1015 1.428 . S
C1021 N1020 1.351 . S
C1021 C1022 1.434 . S
C1022 C1013 1.429 . S
C1022 N1019 1.350 . S
C1022 C1021 1.434 . S
C1023 C1024 1.369 . S
C1023 C1025 1.419 . S
C1023 H1027 0.930 . S
C1024 C1023 1.369 . S
C1024 C1033 1.429 . S
C1025 C1023 1.419 . S
C1025 C1026 1.363 . S
C1025 H1028 0.929 . S
C1026 C1025 1.363 . S
C1026 C1032 1.428 . S
H1027 C1023 0.930 . S
H1028 C1025 0.929 . S
S1029 N1030 1.613 . S
S1029 N1031 1.610 . S
N1030 S1029 1.613 . S
N1030 C1033 1.350 . S
N1031 S1029 1.610 . S
N1031 C1032 1.351 . S
C1032 C1026 1.428 . S
C1032 N1031 1.351 . S
C1032 C1033 1.434 . S
C1033 C1024 1.429 . S
C1033 N1030 1.350 . S
C1033 C1032 1.434 . S
C1034 C1035 1.369 . S
C1034 C1036 1.419 . S
C1034 H1038 0.930 . S
C1035 C1034 1.369 . S
C1035 C1044 1.429 . S
C1036 C1034 1.419 . S
C1036 C1037 1.363 . S
C1036 H1039 0.929 . S
C1037 C1036 1.363 . S
C1037 C1043 1.428 . S
H1038 C1034 0.930 . S
H1039 C1036 0.929 . S
S1040 N1041 1.613 . S
S1040 N1042 1.610 . S
N1041 S1040 1.613 . S
N1041 C1044 1.350 . S
N1042 S1040 1.610 . S
N1042 C1043 1.351 . S
C1043 C1037 1.428 . S
C1043 N1042 1.351 . S
C1043 C1044 1.434 . S
C1044 C1035 1.429 . S
C1044 N1041 1.350 . S
C1044 C1043 1.434 . S
C1045 C1046 1.369 . S
C1045 C1047 1.419 . S
C1045 H1049 0.930 . S
C1046 C1045 1.369 . S
C1046 C1055 1.429 . S
C1047 C1045 1.419 . S
C1047 C1048 1.363 . S
C1047 H1050 0.929 . S
C1048 C1047 1.363 . S
C1048 C1054 1.428 . S
H1049 C1045 0.930 . S
H1050 C1047 0.929 . S
S1051 N1052 1.613 . S
S1051 N1053 1.610 . S
N1052 S1051 1.613 . S
N1052 C1055 1.350 . S
N1053 S1051 1.610 . S
N1053 C1054 1.351 . S
C1054 C1048 1.428 . S
C1054 N1053 1.351 . S
C1054 C1055 1.434 . S
C1055 C1046 1.429 . S
C1055 N1052 1.350 . S
C1055 C1054 1.434 . S
C1056 C1057 1.369 . S
C1056 C1058 1.419 . S
C1056 H1060 0.930 . S
C1057 C1056 1.369 . S
C1057 C1066 1.429 . S
C1058 C1056 1.419 . S
C1058 C1059 1.363 . S
C1058 H1061 0.929 . S
C1059 C1058 1.363 . S
C1059 C1065 1.428 . S
H1060 C1056 0.930 . S
H1061 C1058 0.929 . S
S1062 N1063 1.613 . S
S1062 N1064 1.610 . S
N1063 S1062 1.613 . S
N1063 C1066 1.350 . S
N1064 S1062 1.610 . S
N1064 C1065 1.351 . S
C1065 C1059 1.428 . S
C1065 N1064 1.351 . S
C1065 C1066 1.434 . S
C1066 C1057 1.429 . S
C1066 N1063 1.350 . S
C1066 C1065 1.434 . S
C1067 C1068 1.369 . S
C1067 C1069 1.419 . S
C1067 H1071 0.930 . S
C1068 C1067 1.369 . S
C1068 C1077 1.429 . S
C1069 C1067 1.419 . S
C1069 C1070 1.363 . S
C1069 H1072 0.929 . S
C1070 C1069 1.363 . S
C1070 C1076 1.428 . S
H1071 C1067 0.930 . S
H1072 C1069 0.929 . S
S1073 N1074 1.613 . S
S1073 N1075 1.610 . S
N1074 S1073 1.613 . S
N1074 C1077 1.350 . S
N1075 S1073 1.610 . S
N1075 C1076 1.351 . S
C1076 C1070 1.428 . S
C1076 N1075 1.351 . S
C1076 C1077 1.434 . S
C1077 C1068 1.429 . S
C1077 N1074 1.350 . S
C1077 C1076 1.434 . S
C1078 C1079 1.369 . S
C1078 C1080 1.419 . S
C1078 H1082 0.930 . S
C1079 C1078 1.369 . S
C1079 C1088 1.429 . S
C1080 C1078 1.419 . S
C1080 C1081 1.363 . S
C1080 H1083 0.929 . S
C1081 C1080 1.363 . S
C1081 C1087 1.428 . S
H1082 C1078 0.930 . S
H1083 C1080 0.929 . S
S1084 N1085 1.613 . S
S1084 N1086 1.610 . S
N1085 S1084 1.613 . S
N1085 C1088 1.350 . S
N1086 S1084 1.610 . S
N1086 C1087 1.351 . S
C1087 C1081 1.428 . S
C1087 N1086 1.351 . S
C1087 C1088 1.434 . S
C1088 C1079 1.429 . S
C1088 N1085 1.350 . S
C1088 C1087 1.434 . S
C595 C7 1.234 . S
C597 C252 1.299 . S
C606 C40 1.219 1_545 S
C608 C285 1.303 . S
C617 C73 1.225 1_655 S
C619 C219 1.301 . S
C628 C549 1.304 . S
C630 C106 1.221 . S
C639 C139 1.221 1_565 S
C641 C582 1.303 . S
C650 C172 1.228 1_455 S
C652 C516 1.301 . S
C661 C205 1.232 . S
C663 C450 1.300 1_655 S
C672 C483 1.301 . S
C674 C238 1.226 . S
C683 C417 1.301 1_545 S
C685 C271 1.227 . S
C694 C304 1.225 . S
C696 C153 1.302 . S
C705 C337 1.230 . S
C707 C186 1.300 . S
C716 C370 1.232 . S
C718 C120 1.299 . S
C727 C403 1.231 . S
C729 C54 1.300 . S
C738 C436 1.220 . S
C740 C87 1.303 . S
C749 C21 1.300 . S
C751 C469 1.227 . S
C760 C351 1.299 1_455 S
C762 C502 1.231 . S
C771 C535 1.224 . S
C773 C384 1.302 . S
C782 C568 1.232 . S
C784 C318 1.299 1_565 S
C793 N508 1.588 . S
C795 N13 1.577 . S
C804 N541 1.585 . S
C806 N46 1.579 . S
C815 N79 1.587 . S
C817 N574 1.578 . S
C826 N112 1.580 . S
C828 N211 1.583 . S
C837 N145 1.578 . S
C839 N244 1.585 . S
C848 N277 1.584 . S
C850 N178 1.581 . S
C859 N310 1.579 . S
C861 N409 1.584 . S
C870 N442 1.576 . S
C872 N343 1.587 . S
C881 N475 1.581 . S
C883 N376 1.582 . S
C892 N2 1.542 1_556 S
C894 C150 1.536 . S
C903 C183 1.534 . S
C905 N35 1.542 1_556 S
C914 N68 1.543 1_556 S
C916 C117 1.535 . S
C925 C51 1.543 . S
C927 N101 1.536 1_554 S
C936 N134 1.543 1_554 S
C938 C84 1.535 . S
C947 C18 1.541 . S
C949 N167 1.538 1_554 S
C958 N200 1.535 . S
C960 C348 1.542 . S
C969 C381 1.540 . S
C971 N233 1.539 . S
C980 C315 1.538 . S
C982 N266 1.539 . S
C991 N299 1.539 . S
C993 C249 1.540 . S
C1002 C282 1.536 . S
C1004 N332 1.542 . S
C1013 N365 1.536 . S
C1015 C216 1.540 . S
C1024 C546 1.534 . S
C1026 N398 1.542 . S
C1035 C579 1.542 . S
C1037 N431 1.538 . S
C1046 C513 1.541 . S
C1048 N464 1.538 . S
C1057 C447 1.543 . S
C1059 N497 1.536 . S
C1068 C480 1.537 . S
C1070 N530 1.539 . S
C1079 N563 1.536 . S
C1081 C414 1.540 . S
