# Generated by pormake.
# Topology uml, (4)-cn, num edge types: 1
# Building blocks:
#     Node 0, Type 0, BuildingBlock: NAWXER_clean_sbu_0, # of connection points: 4
#     Node 1, Type 0, BuildingBlock: NAWXER_clean_sbu_0, # of connection points: 4
#     Node 2, Type 0, BuildingBlock: NAWXER_clean_sbu_0, # of connection points: 4
#     Node 3, Type 0, BuildingBlock: NAWXER_clean_sbu_0, # of connection points: 4
#     Node 4, Type 0, BuildingBlock: NAWXER_clean_sbu_0, # of connection points: 4
#     Node 5, Type 0, BuildingBlock: NAWXER_clean_sbu_0, # of connection points: 4
#     Node 6, Type 0, BuildingBlock: NAWXER_clean_sbu_0, # of connection points: 4
#     Node 7, Type 0, BuildingBlock: NAWXER_clean_sbu_0, # of connection points: 4
#     Node 8, Type 0, BuildingBlock: NAWXER_clean_sbu_0, # of connection points: 4
#     Node 9, Type 0, BuildingBlock: NAWXER_clean_sbu_0, # of connection points: 4
#     Node 10, Type 0, BuildingBlock: NAWXER_clean_sbu_0, # of connection points: 4
#     Node 11, Type 0, BuildingBlock: NAWXER_clean_sbu_0, # of connection points: 4
#     Node 12, Type 0, BuildingBlock: NAWXER_clean_sbu_0, # of connection points: 4
#     Node 13, Type 0, BuildingBlock: NAWXER_clean_sbu_0, # of connection points: 4
#     Node 14, Type 0, BuildingBlock: NAWXER_clean_sbu_0, # of connection points: 4
#     Node 15, Type 0, BuildingBlock: NAWXER_clean_sbu_0, # of connection points: 4
#     Node 16, Type 0, BuildingBlock: NAWXER_clean_sbu_0, # of connection points: 4
#     Node 17, Type 0, BuildingBlock: NAWXER_clean_sbu_0, # of connection points: 4
#     Node 18, Type 0, BuildingBlock: NAWXER_clean_sbu_0, # of connection points: 4
#     Node 19, Type 0, BuildingBlock: NAWXER_clean_sbu_0, # of connection points: 4
#     Node 20, Type 0, BuildingBlock: NAWXER_clean_sbu_0, # of connection points: 4
#     Node 21, Type 0, BuildingBlock: NAWXER_clean_sbu_0, # of connection points: 4
#     Node 22, Type 0, BuildingBlock: NAWXER_clean_sbu_0, # of connection points: 4
#     Node 23, Type 0, BuildingBlock: NAWXER_clean_sbu_0, # of connection points: 4
#     Node 24, Type 0, BuildingBlock: NAWXER_clean_sbu_0, # of connection points: 4
#     Node 25, Type 0, BuildingBlock: NAWXER_clean_sbu_0, # of connection points: 4
#     Node 26, Type 0, BuildingBlock: NAWXER_clean_sbu_0, # of connection points: 4
#     Node 27, Type 0, BuildingBlock: NAWXER_clean_sbu_0, # of connection points: 4
#     Node 28, Type 0, BuildingBlock: NAWXER_clean_sbu_0, # of connection points: 4
#     Node 29, Type 0, BuildingBlock: NAWXER_clean_sbu_0, # of connection points: 4
#     Node 30, Type 0, BuildingBlock: NAWXER_clean_sbu_0, # of connection points: 4
#     Node 31, Type 0, BuildingBlock: NAWXER_clean_sbu_0, # of connection points: 4
#     Node 32, Type 0, BuildingBlock: NAWXER_clean_sbu_0, # of connection points: 4
#     Node 33, Type 0, BuildingBlock: NAWXER_clean_sbu_0, # of connection points: 4
#     Node 34, Type 0, BuildingBlock: NAWXER_clean_sbu_0, # of connection points: 4
#     Node 35, Type 0, BuildingBlock: NAWXER_clean_sbu_0, # of connection points: 4
#     Edge 36, Type (0, 0), BuildingBlock: AJUNOK_clean_linker_0, # of connection points: 2
#     Edge 37, Type (0, 0), BuildingBlock: AJUNOK_clean_linker_0, # of connection points: 2
#     Edge 38, Type (0, 0), BuildingBlock: AJUNOK_clean_linker_0, # of connection points: 2
#     Edge 39, Type (0, 0), BuildingBlock: AJUNOK_clean_linker_0, # of connection points: 2
#     Edge 40, Type (0, 0), BuildingBlock: AJUNOK_clean_linker_0, # of connection points: 2
#     Edge 41, Type (0, 0), BuildingBlock: AJUNOK_clean_linker_0, # of connection points: 2
#     Edge 42, Type (0, 0), BuildingBlock: AJUNOK_clean_linker_0, # of connection points: 2
#     Edge 43, Type (0, 0), BuildingBlock: AJUNOK_clean_linker_0, # of connection points: 2
#     Edge 44, Type (0, 0), BuildingBlock: AJUNOK_clean_linker_0, # of connection points: 2
#     Edge 45, Type (0, 0), BuildingBlock: AJUNOK_clean_linker_0, # of connection points: 2
#     Edge 46, Type (0, 0), BuildingBlock: AJUNOK_clean_linker_0, # of connection points: 2
#     Edge 47, Type (0, 0), BuildingBlock: AJUNOK_clean_linker_0, # of connection points: 2
#     Edge 48, Type (0, 0), BuildingBlock: AJUNOK_clean_linker_0, # of connection points: 2
#     Edge 49, Type (0, 0), BuildingBlock: AJUNOK_clean_linker_0, # of connection points: 2
#     Edge 50, Type (0, 0), BuildingBlock: AJUNOK_clean_linker_0, # of connection points: 2
#     Edge 51, Type (0, 0), BuildingBlock: AJUNOK_clean_linker_0, # of connection points: 2
#     Edge 52, Type (0, 0), BuildingBlock: AJUNOK_clean_linker_0, # of connection points: 2
#     Edge 53, Type (0, 0), BuildingBlock: AJUNOK_clean_linker_0, # of connection points: 2
#     Edge 54, Type (0, 0), BuildingBlock: AJUNOK_clean_linker_0, # of connection points: 2
#     Edge 55, Type (0, 0), BuildingBlock: AJUNOK_clean_linker_0, # of connection points: 2
#     Edge 56, Type (0, 0), BuildingBlock: AJUNOK_clean_linker_0, # of connection points: 2
#     Edge 57, Type (0, 0), BuildingBlock: AJUNOK_clean_linker_0, # of connection points: 2
#     Edge 58, Type (0, 0), BuildingBlock: AJUNOK_clean_linker_0, # of connection points: 2
#     Edge 59, Type (0, 0), BuildingBlock: AJUNOK_clean_linker_0, # of connection points: 2
#     Edge 60, Type (0, 0), BuildingBlock: AJUNOK_clean_linker_0, # of connection points: 2
#     Edge 61, Type (0, 0), BuildingBlock: AJUNOK_clean_linker_0, # of connection points: 2
#     Edge 62, Type (0, 0), BuildingBlock: AJUNOK_clean_linker_0, # of connection points: 2
#     Edge 63, Type (0, 0), BuildingBlock: AJUNOK_clean_linker_0, # of connection points: 2
#     Edge 64, Type (0, 0), BuildingBlock: AJUNOK_clean_linker_0, # of connection points: 2
#     Edge 65, Type (0, 0), BuildingBlock: AJUNOK_clean_linker_0, # of connection points: 2
#     Edge 66, Type (0, 0), BuildingBlock: AJUNOK_clean_linker_0, # of connection points: 2
#     Edge 67, Type (0, 0), BuildingBlock: AJUNOK_clean_linker_0, # of connection points: 2
#     Edge 68, Type (0, 0), BuildingBlock: AJUNOK_clean_linker_0, # of connection points: 2
#     Edge 69, Type (0, 0), BuildingBlock: AJUNOK_clean_linker_0, # of connection points: 2
#     Edge 70, Type (0, 0), BuildingBlock: AJUNOK_clean_linker_0, # of connection points: 2
#     Edge 71, Type (0, 0), BuildingBlock: AJUNOK_clean_linker_0, # of connection points: 2
#     Edge 72, Type (0, 0), BuildingBlock: AJUNOK_clean_linker_0, # of connection points: 2
#     Edge 73, Type (0, 0), BuildingBlock: AJUNOK_clean_linker_0, # of connection points: 2
#     Edge 74, Type (0, 0), BuildingBlock: AJUNOK_clean_linker_0, # of connection points: 2
#     Edge 75, Type (0, 0), BuildingBlock: AJUNOK_clean_linker_0, # of connection points: 2
#     Edge 76, Type (0, 0), BuildingBlock: AJUNOK_clean_linker_0, # of connection points: 2
#     Edge 77, Type (0, 0), BuildingBlock: AJUNOK_clean_linker_0, # of connection points: 2
#     Edge 78, Type (0, 0), BuildingBlock: AJUNOK_clean_linker_0, # of connection points: 2
#     Edge 79, Type (0, 0), BuildingBlock: AJUNOK_clean_linker_0, # of connection points: 2
#     Edge 80, Type (0, 0), BuildingBlock: AJUNOK_clean_linker_0, # of connection points: 2
#     Edge 81, Type (0, 0), BuildingBlock: AJUNOK_clean_linker_0, # of connection points: 2
#     Edge 82, Type (0, 0), BuildingBlock: AJUNOK_clean_linker_0, # of connection points: 2
#     Edge 83, Type (0, 0), BuildingBlock: AJUNOK_clean_linker_0, # of connection points: 2
#     Edge 84, Type (0, 0), BuildingBlock: AJUNOK_clean_linker_0, # of connection points: 2
#     Edge 85, Type (0, 0), BuildingBlock: AJUNOK_clean_linker_0, # of connection points: 2
#     Edge 86, Type (0, 0), BuildingBlock: AJUNOK_clean_linker_0, # of connection points: 2
#     Edge 87, Type (0, 0), BuildingBlock: AJUNOK_clean_linker_0, # of connection points: 2
#     Edge 88, Type (0, 0), BuildingBlock: AJUNOK_clean_linker_0, # of connection points: 2
#     Edge 89, Type (0, 0), BuildingBlock: AJUNOK_clean_linker_0, # of connection points: 2
#     Edge 90, Type (0, 0), BuildingBlock: AJUNOK_clean_linker_0, # of connection points: 2
#     Edge 91, Type (0, 0), BuildingBlock: AJUNOK_clean_linker_0, # of connection points: 2
#     Edge 92, Type (0, 0), BuildingBlock: AJUNOK_clean_linker_0, # of connection points: 2
#     Edge 93, Type (0, 0), BuildingBlock: AJUNOK_clean_linker_0, # of connection points: 2
#     Edge 94, Type (0, 0), BuildingBlock: AJUNOK_clean_linker_0, # of connection points: 2
#     Edge 95, Type (0, 0), BuildingBlock: AJUNOK_clean_linker_0, # of connection points: 2
#     Edge 96, Type (0, 0), BuildingBlock: AJUNOK_clean_linker_0, # of connection points: 2
#     Edge 97, Type (0, 0), BuildingBlock: AJUNOK_clean_linker_0, # of connection points: 2
#     Edge 98, Type (0, 0), BuildingBlock: AJUNOK_clean_linker_0, # of connection points: 2
#     Edge 99, Type (0, 0), BuildingBlock: AJUNOK_clean_linker_0, # of connection points: 2
#     Edge 100, Type (0, 0), BuildingBlock: AJUNOK_clean_linker_0, # of connection points: 2
#     Edge 101, Type (0, 0), BuildingBlock: AJUNOK_clean_linker_0, # of connection points: 2
#     Edge 102, Type (0, 0), BuildingBlock: AJUNOK_clean_linker_0, # of connection points: 2
#     Edge 103, Type (0, 0), BuildingBlock: AJUNOK_clean_linker_0, # of connection points: 2
#     Edge 104, Type (0, 0), BuildingBlock: AJUNOK_clean_linker_0, # of connection points: 2
#     Edge 105, Type (0, 0), BuildingBlock: AJUNOK_clean_linker_0, # of connection points: 2
#     Edge 106, Type (0, 0), BuildingBlock: AJUNOK_clean_linker_0, # of connection points: 2
#     Edge 107, Type (0, 0), BuildingBlock: AJUNOK_clean_linker_0, # of connection points: 2
# Relax obj value: 0.036
# Max RMSD: 0.160
# Mean RMSD: 0.157
data_MOF--net-uml--node1-NAWXER_clean_sbu_0--edge1-AJUNOK_clean_linker_0
_symmetry_space_group_name_H-M    P1
_symmetry_Int_Tables_number       1
_symmetry_cell_setting            triclinic
loop_
_symmetry_equiv_pos_as_xyz
'x, y, z'
_cell_length_a     71.925698
_cell_length_b     71.919152
_cell_length_c     21.257694
_cell_angle_alpha  89.973105
_cell_angle_beta   90.012788
_cell_angle_gamma 120.00331
loop_
_atom_site_label
_atom_site_type_symbol
_atom_site_fract_x
_atom_site_fract_y
_atom_site_fract_z
_atom_type_partial_charge
C0 C 0.35185 0.138 0.18208 0.0
C1 C 0.38914 0.09703 0.15358 0.0
O2 O 0.33919 0.11765 0.18064 0.0
Zn3 Zn 0.34139 0.08907 0.17605 0.0
O4 O 0.37202 0.14529 0.18251 0.0
Zn5 Zn 0.3714 0.1179 0.17812 0.0
O6 O 0.35709 0.10686 0.08667 0.0
O7 O 0.32599 0.07695 0.09929 0.0
O8 O 0.39788 0.11704 0.16489 0.0
O9 O 0.36871 0.08526 0.15885 0.0
O10 O 0.32877 0.07432 0.25337 0.0
O11 O 0.35964 0.10386 0.26961 0.0
C12 C 0.34008 0.09112 0.0632 0.0
C13 C 0.34291 0.08727 0.29136 0.0
C14 C 0.91422 0.2488 0.0631 0.0
C15 C 0.91944 0.25718 0.29109 0.0
O16 O 0.899 0.25089 0.08689 0.0
Zn17 Zn 0.88876 0.25533 0.17823 0.0
O18 O 0.92844 0.24872 0.09866 0.0
Zn19 Zn 0.91723 0.25324 0.17568 0.0
O20 O 0.88833 0.22306 0.18199 0.0
O21 O 0.86098 0.22871 0.18394 0.0
O22 O 0.9321 0.25553 0.25297 0.0
O23 O 0.90299 0.25763 0.26944 0.0
O24 O 0.89076 0.28326 0.16274 0.0
O25 O 0.92183 0.28437 0.15568 0.0
C26 C 0.86803 0.21561 0.18372 0.0
C27 C 0.91068 0.29364 0.14933 0.0
C28 C 0.7564 0.66581 0.0647 0.0
C29 C 0.74853 0.6613 0.29292 0.0
O30 O 0.75493 0.64864 0.08766 0.0
Zn31 Zn 0.75125 0.63373 0.17808 0.0
O32 O 0.75626 0.67976 0.10123 0.0
Zn33 Zn 0.75263 0.66393 0.17772 0.0
O34 O 0.78323 0.66584 0.18254 0.0
O35 O 0.77793 0.63295 0.18291 0.0
O36 O 0.75038 0.67606 0.25627 0.0
O37 O 0.74844 0.64477 0.26979 0.0
O38 O 0.72393 0.60746 0.16338 0.0
O39 O 0.72147 0.63675 0.15924 0.0
C40 C 0.79086 0.65313 0.18345 0.0
C41 C 0.71274 0.61634 0.15288 0.0
C42 C 0.14109 0.35342 0.33833 0.0
C43 C 0.09771 0.38785 0.36938 0.0
O44 O 0.12089 0.3399 0.3396 0.0
Zn45 Zn 0.09146 0.34073 0.34477 0.0
O46 O 0.14737 0.37338 0.33868 0.0
Zn47 Zn 0.11949 0.3713 0.34396 0.0
O48 O 0.10885 0.35634 0.43472 0.0
O49 O 0.07968 0.32472 0.42119 0.0
O50 O 0.11776 0.3971 0.35821 0.0
O51 O 0.08639 0.36737 0.36358 0.0
O52 O 0.0771 0.32819 0.26635 0.0
O53 O 0.10577 0.35994 0.25236 0.0
C54 C 0.09354 0.3389 0.45773 0.0
C55 C 0.08962 0.34309 0.22945 0.0
C56 C 0.66556 0.75585 0.45715 0.0
C57 C 0.66158 0.74773 0.22886 0.0
O58 O 0.64819 0.75378 0.43388 0.0
Zn59 Zn 0.63329 0.74948 0.3431 0.0
O60 O 0.67979 0.75619 0.42077 0.0
Zn61 Zn 0.66395 0.75208 0.34407 0.0
O62 O 0.66477 0.78226 0.33882 0.0
O63 O 0.63133 0.77539 0.3376 0.0
O64 O 0.67651 0.75022 0.2658 0.0
O65 O 0.64471 0.74701 0.25166 0.0
O66 O 0.6075 0.72182 0.35772 0.0
O67 O 0.63737 0.72044 0.36266 0.0
C68 C 0.65132 0.78901 0.33739 0.0
C69 C 0.61689 0.71116 0.36871 0.0
C70 C 0.2163 0.86618 0.34046 0.0
C71 C 0.29462 0.90782 0.36855 0.0
O72 O 0.22391 0.8865 0.34214 0.0
Zn73 Zn 0.25434 0.91522 0.34673 0.0
O74 O 0.22926 0.85897 0.33976 0.0
Zn75 Zn 0.25603 0.88645 0.34448 0.0
O76 O 0.25291 0.89739 0.43552 0.0
O77 O 0.25097 0.92699 0.42476 0.0
O78 O 0.28356 0.88773 0.35793 0.0
O79 O 0.28567 0.91933 0.36303 0.0
O80 O 0.25616 0.92977 0.26862 0.0
O81 O 0.25862 0.90076 0.25376 0.0
C82 C 0.25155 0.91294 0.4599 0.0
C83 C 0.25824 0.91714 0.23138 0.0
C84 C 0.65542 0.86707 0.83874 0.0
C85 C 0.61861 0.90845 0.86668 0.0
O86 O 0.63528 0.85999 0.83789 0.0
Zn87 Zn 0.63617 0.88747 0.84239 0.0
O88 O 0.66825 0.88739 0.8404 0.0
Zn89 Zn 0.66631 0.91611 0.84481 0.0
O90 O 0.6816 0.92817 0.92172 0.0
O91 O 0.6504 0.89838 0.93411 0.0
O92 O 0.63907 0.92009 0.86157 0.0
O93 O 0.60974 0.88843 0.85538 0.0
O94 O 0.64809 0.9016 0.75099 0.0
O95 O 0.67913 0.9309 0.76771 0.0
C96 C 0.66743 0.91406 0.95775 0.0
C97 C 0.66495 0.91813 0.7295 0.0
C98 C 0.093 0.75702 0.95875 0.0
C99 C 0.08917 0.74821 0.73073 0.0
O100 O 0.07901 0.75711 0.92219 0.0
Zn101 Zn 0.0909 0.7529 0.84587 0.0
O102 O 0.10848 0.75517 0.93586 0.0
Zn103 Zn 0.11939 0.7508 0.84568 0.0
O104 O 0.1471 0.77733 0.84038 0.0
O105 O 0.11986 0.78315 0.8404 0.0
O106 O 0.10548 0.74788 0.75394 0.0
O107 O 0.0765 0.75047 0.76729 0.0
O108 O 0.08637 0.72175 0.86676 0.0
O109 O 0.11764 0.72311 0.86237 0.0
C110 C 0.14015 0.7905 0.8395 0.0
C111 C 0.09763 0.71264 0.87456 0.0
C112 C 0.25726 0.34098 0.73195 0.0
C113 C 0.25204 0.33892 0.96027 0.0
O114 O 0.2559 0.32674 0.7699 0.0
Zn115 Zn 0.25451 0.33977 0.84705 0.0
O116 O 0.25779 0.3579 0.75374 0.0
Zn117 Zn 0.25601 0.36999 0.84541 0.0
O118 O 0.28354 0.39642 0.85716 0.0
O119 O 0.2859 0.36704 0.86042 0.0
O120 O 0.25327 0.35592 0.93677 0.0
O121 O 0.25181 0.32472 0.92411 0.0
O122 O 0.22389 0.33786 0.84356 0.0
O123 O 0.22931 0.37078 0.84191 0.0
C124 C 0.29484 0.3875 0.86503 0.0
C125 C 0.21632 0.35062 0.8424 0.0
C126 C 0.91462 0.66597 0.56481 0.0
C127 C 0.91754 0.66216 0.79322 0.0
O128 O 0.92862 0.67999 0.60137 0.0
Zn129 Zn 0.91619 0.66447 0.67812 0.0
O130 O 0.89888 0.64886 0.5878 0.0
Zn131 Zn 0.88742 0.6342 0.67821 0.0
O132 O 0.85997 0.63345 0.68223 0.0
O133 O 0.88748 0.66636 0.68184 0.0
O134 O 0.90122 0.64548 0.77016 0.0
O135 O 0.93036 0.67696 0.75649 0.0
O136 O 0.92027 0.63718 0.663 0.0
O137 O 0.88844 0.60784 0.66452 0.0
C138 C 0.86715 0.65361 0.68249 0.0
C139 C 0.90867 0.61675 0.65716 0.0
C140 C 0.34179 0.25605 0.79185 0.0
C141 C 0.34127 0.24944 0.56336 0.0
O142 O 0.32756 0.25399 0.75273 0.0
Zn143 Zn 0.34122 0.25252 0.67624 0.0
O144 O 0.35907 0.25707 0.77144 0.0
Zn145 Zn 0.37187 0.25532 0.68153 0.0
O146 O 0.39773 0.28299 0.66954 0.0
O147 O 0.36794 0.28433 0.65948 0.0
O148 O 0.35835 0.25149 0.58878 0.0
O149 O 0.32628 0.24845 0.59766 0.0
O150 O 0.34055 0.22241 0.68235 0.0
O151 O 0.37406 0.22961 0.68768 0.0
C152 C 0.38848 0.29361 0.65591 0.0
C153 C 0.35413 0.21584 0.68569 0.0
C154 C 0.79091 0.1367 0.67938 0.0
C155 C 0.71246 0.09535 0.65575 0.0
O156 O 0.77795 0.1439 0.68005 0.0
Zn157 Zn 0.75125 0.11648 0.6764 0.0
O158 O 0.78331 0.11636 0.67815 0.0
Zn159 Zn 0.75259 0.08769 0.67449 0.0
O160 O 0.75543 0.07548 0.59721 0.0
O161 O 0.7542 0.10536 0.58508 0.0
O162 O 0.72125 0.08369 0.66039 0.0
O163 O 0.72384 0.11553 0.66423 0.0
O164 O 0.74942 0.10258 0.76797 0.0
O165 O 0.75108 0.07319 0.75183 0.0
C166 C 0.75544 0.08964 0.5613 0.0
C167 C 0.74984 0.08613 0.78979 0.0
C168 C 0.01046 0.42253 0.6265 0.0
C169 C 0.00626 0.4261 0.39818 0.0
O170 O 0.02732 0.43863 0.60346 0.0
Zn171 Zn 0.03868 0.45221 0.51169 0.0
O172 O 0.99556 0.40997 0.58969 0.0
Zn173 Zn 0.0081 0.42421 0.51114 0.0
O174 O 0.03474 0.41908 0.49254 0.0
O175 O 0.06447 0.45046 0.49764 0.0
O176 O 0.99208 0.4123 0.43487 0.0
O177 O 0.02371 0.44143 0.42101 0.0
O178 O 0.04079 0.4801 0.51643 0.0
O179 O 0.0073 0.45367 0.51566 0.0
C180 C 0.05522 0.4304 0.48669 0.0
C181 C 0.02084 0.47386 0.51663 0.0
C182 C 0.53487 0.54809 0.51527 0.0
C183 C 0.57593 0.62626 0.48681 0.0
O184 O 0.5552 0.55569 0.51355 0.0
Zn185 Zn 0.58388 0.58643 0.50872 0.0
O186 O 0.52767 0.56105 0.51596 0.0
Zn187 Zn 0.55511 0.58766 0.51123 0.0
O188 O 0.56595 0.58424 0.41949 0.0
O189 O 0.59587 0.58307 0.43181 0.0
O190 O 0.55594 0.61496 0.49837 0.0
O191 O 0.58772 0.6176 0.49165 0.0
O192 O 0.5987 0.58846 0.58588 0.0
O193 O 0.56919 0.5898 0.60265 0.0
C194 C 0.58163 0.58288 0.39583 0.0
C195 C 0.58579 0.58961 0.62414 0.0
C196 C 0.42323 1.00028 0.39431 0.0
C197 C 0.41652 0.9978 0.62268 0.0
O198 O 0.42183 0.98324 0.4181 0.0
Zn199 Zn 0.41835 0.96897 0.50988 0.0
O200 O 0.42306 0.01436 0.43018 0.0
Zn201 Zn 0.41966 0.99903 0.50722 0.0
O202 O 0.45038 1.00108 0.51208 0.0
O203 O 0.44499 0.96817 0.51457 0.0
O204 O 0.41767 0.01186 0.58435 0.0
O205 O 0.41628 0.98098 0.60125 0.0
O206 O 0.39094 0.9425 0.49707 0.0
O207 O 0.38848 0.97173 0.49025 0.0
C208 C 0.45797 0.98833 0.51385 0.0
C209 C 0.37972 0.95127 0.48548 0.0
C210 C 0.80745 0.6866 0.67204 0.0
C211 C 0.76261 0.71984 0.69763 0.0
O212 O 0.78734 0.6729 0.67475 0.0
Zn213 Zn 0.75769 0.673 0.67991 0.0
O214 O 0.81345 0.7065 0.67045 0.0
Zn215 Zn 0.78529 0.70404 0.67558 0.0
O216 O 0.77526 0.69047 0.76789 0.0
O217 O 0.74666 0.65814 0.75841 0.0
O218 O 0.78273 0.7296 0.68714 0.0
O219 O 0.75189 0.69929 0.69401 0.0
O220 O 0.74298 0.65915 0.60344 0.0
O221 O 0.77096 0.69107 0.58528 0.0
C222 C 0.7603 0.67328 0.793 0.0
C223 C 0.75497 0.6736 0.5646 0.0
C224 C 0.33089 0.08194 0.56306 0.0
C225 C 0.33302 0.08776 0.79163 0.0
O226 O 0.31398 0.08125 0.58552 0.0
Zn227 Zn 0.30212 0.08353 0.67641 0.0
O228 O 0.34572 0.08426 0.60021 0.0
Zn229 Zn 0.33277 0.08557 0.67828 0.0
O230 O 0.30571 0.05403 0.69236 0.0
O231 O 0.27601 0.05587 0.68925 0.0
O232 O 0.34775 0.08862 0.7564 0.0
O233 O 0.31609 0.08636 0.76729 0.0
O234 O 0.30113 0.11015 0.6724 0.0
O235 O 0.33413 0.11582 0.67462 0.0
C236 C 0.28523 0.04487 0.69751 0.0
C237 C 0.32126 0.12325 0.67327 0.0
C238 C 0.9612 0.24206 0.70276 0.0
C239 C 0.88356 0.19655 0.66836 0.0
O240 O 0.95114 0.25248 0.69672 0.0
Zn241 Zn 0.91924 0.24642 0.67803 0.0
O242 O 0.95147 0.2221 0.68978 0.0
Zn243 Zn 0.92316 0.21896 0.67458 0.0
O244 O 0.92553 0.23359 0.58459 0.0
O245 O 0.92081 0.26121 0.60049 0.0
O246 O 0.89758 0.19069 0.66762 0.0
O247 O 0.8898 0.21662 0.67121 0.0
O248 O 0.9146 0.25702 0.7566 0.0
O249 O 0.91836 0.22847 0.76601 0.0
C250 C 0.92418 0.24952 0.56283 0.0
C251 C 0.91584 0.24322 0.79126 0.0
C252 C 0.32906 0.2493 0.0635 0.0
C253 C 0.33372 0.24491 0.2915 0.0
O254 O 0.34413 0.26154 0.10035 0.0
Zn255 Zn 0.33175 0.24709 0.17865 0.0
O256 O 0.31212 0.23324 0.08638 0.0
Zn257 Zn 0.30083 0.21935 0.17804 0.0
O258 O 0.27531 0.22175 0.19417 0.0
O259 O 0.30564 0.2526 0.19963 0.0
O260 O 0.31614 0.22976 0.26867 0.0
O261 O 0.34799 0.25862 0.25483 0.0
O262 O 0.33205 0.2175 0.17287 0.0
O263 O 0.29847 0.19124 0.1722 0.0
C264 C 0.28521 0.24173 0.2068 0.0
C265 C 0.3184 0.19735 0.17157 0.0
C266 C 0.76104 0.08801 0.28983 0.0
C267 C 0.75729 0.08146 0.0615 0.0
O268 O 0.74743 0.08915 0.25408 0.0
Zn269 Zn 0.75939 0.08566 0.17682 0.0
O270 O 0.7765 0.08633 0.26614 0.0
Zn271 Zn 0.78747 0.08308 0.17498 0.0
O272 O 0.8152 0.10917 0.17042 0.0
O273 O 0.78862 0.11598 0.17303 0.0
O274 O 0.77343 0.08065 0.08397 0.0
O275 O 0.74499 0.08408 0.09866 0.0
O276 O 0.75451 0.05387 0.19387 0.0
O277 O 0.78589 0.05551 0.18835 0.0
C278 C 0.80883 0.12278 0.1714 0.0
C279 C 0.76583 0.0447 0.19948 0.0
C280 C 0.88361 0.68664 0.17253 0.0
C281 C 0.96151 0.7212 0.20089 0.0
O282 O 0.89731 0.70658 0.17089 0.0
Zn283 Zn 0.92315 0.70452 0.17605 0.0
O284 O 0.89027 0.67312 0.17518 0.0
Zn285 Zn 0.92046 0.67391 0.18035 0.0
O286 O 0.91665 0.6588 0.25832 0.0
O287 O 0.91966 0.69082 0.26847 0.0
O288 O 0.95227 0.70067 0.19684 0.0
O289 O 0.95082 0.73044 0.18804 0.0
O290 O 0.92484 0.69193 0.0856 0.0
O291 O 0.92187 0.66042 0.10366 0.0
C292 C 0.91776 0.67371 0.29321 0.0
C293 C 0.92384 0.67469 0.06484 0.0
C294 C 0.58136 0.99932 0.89387 0.0
C295 C 0.58587 0.99708 0.1223 0.0
O296 O 0.59567 0.01347 0.92948 0.0
Zn297 Zn 0.58384 0.99835 1.00694 0.0
O298 O 0.56571 0.98239 0.91805 0.0
Zn299 Zn 0.55503 0.96822 1.00978 0.0
O300 O 0.5276 0.96752 0.01478 0.0
O301 O 0.55523 1.00037 0.01213 0.0
O302 O 0.56928 0.98027 0.10091 0.0
O303 O 0.59872 0.01119 0.08399 0.0
O304 O 0.5877 0.9711 0.99036 0.0
O305 O 0.55604 0.94178 0.99668 0.0
C306 C 0.53489 0.98771 0.01412 0.0
C307 C 0.57607 0.95066 0.98535 0.0
C308 C 0.05567 0.62789 0.99183 0.0
C309 C 0.01852 0.54934 0.01506 0.0
O310 O 0.06454 0.61656 1.00013 0.0
Zn311 Zn 0.03803 0.58905 0.0118 0.0
O312 O 0.0352 0.619 0.99611 0.0
Zn313 Zn 0.00786 0.58765 1.00933 0.0
O314 O 0.99467 0.58911 0.08618 0.0
O315 O 0.02578 0.59097 0.1031 0.0
O316 O 0.00583 0.55698 0.01335 0.0
O317 O 0.03869 0.56228 0.01589 0.0
O318 O 0.0242 0.58629 0.92007 0.0
O319 O 0.99306 0.585 0.93178 0.0
C320 C 0.00883 0.59049 0.12447 0.0
C321 C 0.00731 0.58513 0.89602 0.0
C322 C 0.45743 0.47131 0.0171 0.0
C323 C 0.37961 0.42913 0.98182 0.0
O324 O 0.44438 0.47842 0.01606 0.0
Zn325 Zn 0.41779 0.45077 0.01068 0.0
O326 O 0.44995 0.451 0.01615 0.0
Zn327 Zn 0.41967 0.42213 0.01042 0.0
O328 O 0.42393 0.41031 0.93397 0.0
O329 O 0.42219 0.43989 0.92053 0.0
O330 O 0.38863 0.41779 0.98952 0.0
O331 O 0.39015 0.44913 0.9941 0.0
O332 O 0.41491 0.43688 0.10239 0.0
O333 O 0.41721 0.40772 0.0891 0.0
C334 C 0.424 0.4244 0.89752 0.0
C335 C 0.41515 0.42052 0.12565 0.0
C336 C 0.68752 0.80668 0.85064 0.0
C337 C 0.7195 0.76105 0.81847 0.0
O338 O 0.67361 0.78663 0.8479 0.0
Zn339 Zn 0.67317 0.75674 0.84171 0.0
O340 O 0.70736 0.81242 0.85186 0.0
Zn341 Zn 0.70441 0.78404 0.84599 0.0
O342 O 0.69035 0.77444 0.75378 0.0
O343 O 0.65781 0.74612 0.76369 0.0
O344 O 0.72964 0.78093 0.83237 0.0
O345 O 0.69899 0.75057 0.82355 0.0
O346 O 0.65961 0.7419 0.91836 0.0
O347 O 0.69161 0.76974 0.93635 0.0
C348 C 0.67295 0.75971 0.72896 0.0
C349 C 0.67412 0.7538 0.95714 0.0
C350 C 0.25235 0.92353 0.95965 0.0
C351 C 0.24756 0.91589 0.73162 0.0
O352 O 0.2362 0.92457 0.93818 0.0
Zn353 Zn 0.22223 0.92268 0.84682 0.0
O354 O 0.26462 0.92131 0.9214 0.0
Zn355 Zn 0.24988 0.91953 0.84435 0.0
O356 O 0.25536 0.95119 0.8247 0.0
O357 O 0.22456 0.95066 0.83226 0.0
O358 O 0.26131 0.91519 0.76777 0.0
O359 O 0.23241 0.91818 0.75512 0.0
O360 O 0.19414 0.89702 0.85215 0.0
O361 O 0.22029 0.88955 0.84975 0.0
C362 C 0.24446 0.96075 0.81864 0.0
C363 C 0.20016 0.88313 0.85156 0.0
C364 C 0.08999 0.33099 0.72947 0.0
C365 C 0.0838 0.33044 0.95779 0.0
O366 O 0.08774 0.31378 0.75453 0.0
Zn367 Zn 0.08402 0.30013 0.84692 0.0
O368 O 0.09135 0.34605 0.76411 0.0
Zn369 Zn 0.08735 0.33109 0.84249 0.0
O370 O 0.11717 0.33131 0.8484 0.0
O371 O 0.10972 0.29772 0.85264 0.0
O372 O 0.08623 0.34485 0.91884 0.0
O373 O 0.08244 0.31301 0.93722 0.0
O374 O 0.05597 0.27448 0.83492 0.0
O375 O 0.05532 0.30472 0.82757 0.0
C376 C 0.1236 0.31762 0.85132 0.0
C377 C 0.04557 0.28417 0.8239 0.0
C378 C 0.42842 0.00797 0.12267 0.0
C379 C 0.42399 0.01061 0.89426 0.0
O380 O 0.44369 0.02519 0.09865 0.0
Zn381 Zn 0.45427 0.03946 1.00729 0.0
O382 O 0.41475 0.99319 0.08717 0.0
Zn383 Zn 0.42631 0.0087 1.00963 0.0
O384 O 0.45569 0.00798 1.00477 0.0
O385 O 0.48215 0.04144 1.00216 0.0
O386 O 0.41177 0.99574 0.93172 0.0
O387 O 0.44012 0.02765 0.91641 0.0
O388 O 0.45246 0.06529 0.02094 0.0
O389 O 0.42121 0.03542 0.02711 0.0
C390 C 0.47587 0.02148 1.0029 0.0
C391 C 0.43243 0.05592 0.03257 0.0
C392 C 0.98515 0.45653 1.00561 0.0
C393 C 0.95138 0.37835 0.03091 0.0
O394 O 0.99877 0.45 1.00822 0.0
Zn395 Zn 0.9984 0.42009 0.01344 0.0
O396 O 0.96523 0.44271 1.00421 0.0
Zn397 Zn 0.96748 0.4169 1.00932 0.0
O398 O 0.98107 0.42032 0.10159 0.0
O399 O 0.01327 0.42379 0.09179 0.0
O400 O 0.94174 0.38886 0.02095 0.0
O401 O 0.97192 0.38804 0.02726 0.0
O402 O 0.0122 0.41914 0.93705 0.0
O403 O 0.98038 0.41543 0.91884 0.0
C404 C 0.99823 0.42243 0.12654 0.0
C405 C 0.9978 0.41679 0.89817 0.0
C406 C 0.58443 0.57801 0.12422 0.0
C407 C 0.59119 0.58229 0.89574 0.0
O408 O 0.58629 0.56269 0.10019 0.0
Zn409 Zn 0.58975 0.55201 1.00877 0.0
O410 O 0.58337 0.59172 0.08872 0.0
Zn411 Zn 0.58711 0.58004 0.01115 0.0
O412 O 0.55688 0.55072 1.00676 0.0
O413 O 0.56383 0.52422 1.00396 0.0
O414 O 0.58862 0.59456 0.93318 0.0
O415 O 0.59205 0.56614 0.91791 0.0
O416 O 0.61729 0.55362 0.02186 0.0
O417 O 0.61892 0.58499 0.02811 0.0
C418 C 0.55017 0.53053 1.00499 0.0
C419 C 0.62809 0.57366 0.03331 0.0
C420 C 1.00038 0.58058 0.62441 0.0
C421 C 0.9966 0.58433 0.39618 0.0
O422 O 0.01492 0.5944 0.58855 0.0
Zn423 Zn 0.99915 0.58257 0.51147 0.0
O424 O 0.98324 0.56505 0.60092 0.0
Zn425 Zn 0.96853 0.554 0.51031 0.0
O426 O 0.9675 0.52634 0.5056 0.0
O427 O 1.0005 0.55368 0.5065 0.0
O428 O 0.97987 0.56802 0.41905 0.0
O429 O 0.01144 0.59699 0.43302 0.0
O430 O 0.97233 0.587 0.53091 0.0
O431 O 0.94249 0.55565 0.5256 0.0
C432 C 0.98764 0.53338 0.50532 0.0
C433 C 0.95193 0.57565 0.53803 0.0
C434 C 0.4283 0.42157 0.62571 0.0
C435 C 0.42238 0.41532 0.39733 0.0
O436 O 0.41451 0.42287 0.59127 0.0
Zn437 Zn 0.42545 0.41896 0.51275 0.0
O438 O 0.44334 0.41951 0.60041 0.0
Zn439 Zn 0.45317 0.4159 0.50766 0.0
O440 O 0.48119 0.4416 0.5018 0.0
O441 O 0.455 0.44895 0.50708 0.0
O442 O 0.43856 0.41413 0.41768 0.0
O443 O 0.4104 0.41767 0.43643 0.0
O444 O 0.42007 0.38703 0.52876 0.0
O445 O 0.45109 0.38809 0.51959 0.0
C446 C 0.47512 0.45544 0.50386 0.0
C447 C 0.43115 0.37758 0.53254 0.0
C448 C 0.62819 0.05365 0.53563 0.0
C449 C 0.55061 0.02114 0.50213 0.0
O450 O 0.61834 0.06376 0.52256 0.0
Zn451 Zn 0.59022 0.03843 0.50735 0.0
O452 O 0.61841 0.03319 0.52894 0.0
Zn453 Zn 0.58652 0.00721 0.50926 0.0
O454 O 0.58812 0.99439 0.43117 0.0
O455 O 0.59249 0.02665 0.41642 0.0
O456 O 0.55692 0.00735 0.50385 0.0
O457 O 0.56458 0.04103 0.50188 0.0
O458 O 0.58583 0.02373 0.59838 0.0
O459 O 0.58186 0.99134 0.5865 0.0
C460 C 0.59123 0.00949 0.394 0.0
C461 C 0.58334 0.00626 0.62213 0.0
C462 C 0.25085 0.32903 0.46021 0.0
C463 C 0.24802 0.33169 0.23174 0.0
O464 O 0.26358 0.34386 0.42339 0.0
Zn465 Zn 0.24948 0.33111 0.34504 0.0
O466 O 0.23463 0.31223 0.43733 0.0
Zn467 Zn 0.22077 0.30058 0.34596 0.0
O468 O 0.22216 0.27437 0.33332 0.0
O469 O 0.25381 0.30393 0.33098 0.0
O470 O 0.23234 0.31471 0.25542 0.0
O471 O 0.26176 0.34631 0.26749 0.0
O472 O 0.22069 0.3327 0.34824 0.0
O473 O 0.19322 0.29978 0.34923 0.0
C474 C 0.2424 0.28347 0.32557 0.0
C475 C 0.20037 0.31993 0.34904 0.0
C476 C 0.67716 0.92415 0.45784 0.0
C477 C 0.67436 0.91757 0.22936 0.0
O478 O 0.66251 0.92229 0.42068 0.0
Zn479 Zn 0.67507 0.92032 0.34247 0.0
O480 O 0.6938 0.92432 0.43534 0.0
Zn481 Zn 0.7053 0.92161 0.34444 0.0
O482 O 0.73173 0.9489 0.33094 0.0
O483 O 0.70254 0.95154 0.32582 0.0
O484 O 0.69121 0.91871 0.25347 0.0
O485 O 0.65985 0.91713 0.26472 0.0
O486 O 0.67295 0.88968 0.34687 0.0
O487 O 0.70571 0.89471 0.34893 0.0
C488 C 0.72297 0.9602 0.32019 0.0
C489 C 0.68552 0.8819 0.34838 0.0
C490 C 0.04558 0.76353 0.32372 0.0
C491 C 0.12353 0.80698 0.35218 0.0
O492 O 0.05621 0.78347 0.33659 0.0
Zn493 Zn 0.08396 0.78535 0.34853 0.0
O494 O 0.05491 0.75233 0.32755 0.0
Zn495 Zn 0.08673 0.75744 0.34351 0.0
O496 O 0.08536 0.74239 0.42003 0.0
O497 O 0.08216 0.77078 0.4385 0.0
O498 O 0.11686 0.78682 0.34905 0.0
O499 O 0.10984 0.81323 0.35421 0.0
O500 O 0.08749 0.77545 0.25593 0.0
O501 O 0.09052 0.74643 0.26488 0.0
C502 C 0.08321 0.75454 0.45901 0.0
C503 C 0.0894 0.76035 0.23054 0.0
C504 C 0.35428 0.09236 0.46725 0.0
C505 C 0.33362 0.08143 0.49401 0.0
C506 C 0.35718 0.09386 0.40172 0.0
C507 C 0.33955 0.08408 0.3604 0.0
H508 H 0.36832 0.10048 0.49708 0.0
H509 H 0.37336 0.10293 0.38334 0.0
S510 S 0.28216 0.05233 0.40687 0.0
N511 N 0.29529 0.05993 0.47423 0.0
N512 N 0.30068 0.0623 0.35137 0.0
C513 C 0.31883 0.07242 0.38667 0.0
C514 C 0.31588 0.07123 0.45334 0.0
C515 C 0.91389 0.26279 0.46723 0.0
C516 C 0.92502 0.25324 0.49387 0.0
C517 C 0.91256 0.26443 0.40171 0.0
C518 C 0.92267 0.257 0.3602 0.0
H519 H 0.90545 0.26834 0.49712 0.0
H520 H 0.90328 0.27134 0.38348 0.0
S521 S 0.95519 0.23214 0.40636 0.0
N522 N 0.94719 0.23717 0.47377 0.0
N523 N 0.94509 0.24061 0.351 0.0
C524 C 0.93459 0.2482 0.38639 0.0
C525 C 0.93564 0.24622 0.45305 0.0
C526 C 0.75992 0.68756 0.45418 0.0
C527 C 0.7514 0.66996 0.49574 0.0
C528 C 0.75814 0.68458 0.38872 0.0
C529 C 0.74816 0.66389 0.36213 0.0
H530 H 0.76825 0.70381 0.4723 0.0
H531 H 0.76533 0.69866 0.35876 0.0
S532 S 0.72239 0.6124 0.45002 0.0
N533 N 0.73175 0.63101 0.5053 0.0
N534 N 0.72884 0.62548 0.38246 0.0
C535 C 0.73917 0.64614 0.40307 0.0
C536 C 0.74065 0.64916 0.46975 0.0
C537 C 0.07505 0.31657 0.06842 0.0
C538 C 0.0838 0.33411 0.02665 0.0
C539 C 0.07623 0.31962 0.13386 0.0
C540 C 0.0866 0.34036 0.16024 0.0
H541 H 0.0674 0.3003 0.05048 0.0
H542 H 0.06961 0.30559 0.16397 0.0
S543 S 0.11135 0.39172 0.07177 0.0
N544 N 0.1024 0.37304 0.0167 0.0
N545 N 0.10498 0.37872 0.13946 0.0
C546 C 0.09501 0.35804 0.11909 0.0
C547 C 0.0935 0.35494 0.05243 0.0
C548 C 0.685 0.75743 0.13321 0.0
C549 C 0.66427 0.74724 0.15968 0.0
C550 C 0.68803 0.75908 0.06775 0.0
C551 C 0.67047 0.75025 0.02605 0.0
H552 H 0.69904 0.76486 0.16323 0.0
H553 H 0.70429 0.76759 0.04973 0.0
S554 S 0.61287 0.7206 0.07147 0.0
N555 N 0.6259 0.72737 0.13909 0.0
N556 N 0.63153 0.73008 0.01631 0.0
C557 C 0.64965 0.73929 0.05195 0.0
C558 C 0.64657 0.73792 0.11863 0.0
C559 C 0.24812 0.93048 0.13567 0.0
C560 C 0.25873 0.92039 0.16229 0.0
C561 C 0.24647 0.93179 0.07015 0.0
C562 C 0.25575 0.92346 0.02865 0.0
H563 H 0.24035 0.93675 0.16562 0.0
H564 H 0.23764 0.93918 0.05193 0.0
S565 S 0.2866 0.89681 0.07472 0.0
N566 N 0.27945 0.90276 0.14217 0.0
N567 N 0.27679 0.90558 0.01936 0.0
C568 C 0.26712 0.91407 0.05478 0.0
C569 C 0.26847 0.91242 0.12145 0.0
C570 C 0.65078 0.91215 0.61906 0.0
C571 C 0.66839 0.92149 0.66052 0.0
C572 C 0.65372 0.91386 0.55355 0.0
C573 C 0.67442 0.92456 0.52693 0.0
H574 H 0.63456 0.90327 0.63731 0.0
H575 H 0.63968 0.90607 0.52358 0.0
S576 S 0.72588 0.95246 0.61451 0.0
N577 N 0.7073 0.94259 0.66987 0.0
N578 N 0.71277 0.94534 0.54703 0.0
C579 C 0.69215 0.93431 0.56775 0.0
C580 C 0.68915 0.93292 0.63442 0.0
C581 C 0.07429 0.75957 0.56939 0.0
C582 C 0.0832 0.75089 0.52786 0.0
C583 C 0.07553 0.75783 0.63484 0.0
C584 C 0.08613 0.74773 0.6615 0.0
H585 H 0.06649 0.76802 0.55123 0.0
H586 H 0.06878 0.76516 0.66474 0.0
S587 S 0.11139 0.72152 0.5737 0.0
N588 N 0.1022 0.73095 0.51837 0.0
N589 N 0.10491 0.72812 0.64124 0.0
C590 C 0.0947 0.73857 0.6206 0.0
C591 C 0.09312 0.74 0.55389 0.0
C592 C 0.26387 0.35235 0.55611 0.0
C593 C 0.25388 0.33168 0.52934 0.0
C594 C 0.26518 0.35523 0.62163 0.0
C595 C 0.25698 0.33758 0.66294 0.0
H596 H 0.2701 0.36643 0.52628 0.0
H597 H 0.27254 0.37143 0.64 0.0
S598 S 0.23046 0.28013 0.61652 0.0
N599 N 0.23636 0.2933 0.54914 0.0
N600 N 0.2392 0.29866 0.67201 0.0
C601 C 0.24761 0.31684 0.63669 0.0
C602 C 0.24595 0.31391 0.57002 0.0
C603 C 0.93095 0.68557 0.88883 0.0
C604 C 0.92055 0.66485 0.8624 0.0
C605 C 0.93229 0.6886 0.95427 0.0
C606 C 0.92368 0.67104 0.99596 0.0
H607 H 0.93749 0.69961 0.85876 0.0
H608 H 0.93995 0.70486 0.97228 0.0
S609 S 0.8961 0.61346 0.95062 0.0
N610 N 0.90227 0.62648 0.88297 0.0
N611 N 0.90516 0.63211 1.00578 0.0
C612 C 0.91394 0.65022 0.97011 0.0
C613 C 0.91225 0.64715 0.90344 0.0
C614 C 0.35251 0.26295 0.96795 0.0
C615 C 0.33177 0.25256 0.99432 0.0
C616 C 0.35558 0.2644 0.90252 0.0
C617 C 0.33806 0.25592 0.86072 0.0
H618 H 0.36653 0.26937 0.99802 0.0
H619 H 0.37186 0.27202 0.88461 0.0
S620 S 0.28046 0.22849 0.90578 0.0
N621 N 0.29342 0.23449 0.9735 0.0
N622 N 0.29915 0.23759 0.85071 0.0
C623 C 0.31723 0.24624 0.88648 0.0
C624 C 0.3141 0.24444 0.95316 0.0
C625 C 0.74233 0.0928 0.9002 0.0
C626 C 0.75025 0.08311 0.85885 0.0
C627 C 0.74392 0.09147 0.96571 0.0
C628 C 0.75391 0.08078 0.99245 0.0
H629 H 0.73501 0.10169 0.88185 0.0
H630 H 0.73792 0.09952 0.99553 0.0
S631 S 0.77656 0.05197 0.9052 0.0
N632 N 0.7677 0.06167 0.84974 0.0
N633 N 0.77107 0.05959 0.97258 0.0
C634 C 0.76152 0.07065 0.95175 0.0
C635 C 0.75957 0.07168 0.88509 0.0
C636 C 0.98393 0.40811 0.78755 0.0
C637 C 1.00148 0.41683 0.82931 0.0
C638 C 0.98699 0.40927 0.72212 0.0
C639 C 0.00772 0.41958 0.69572 0.0
H640 H 0.96767 0.40049 0.8055 0.0
H641 H 0.97296 0.40266 0.69201 0.0
S642 S 0.05908 0.44426 0.78414 0.0
N643 N 0.0404 0.43536 0.83923 0.0
N644 N 0.04608 0.43789 0.71646 0.0
C645 C 0.0254 0.42797 0.73685 0.0
C646 C 0.0223 0.42649 0.80351 0.0
C647 C 0.57929 0.59708 0.73485 0.0
C648 C 0.58901 0.58928 0.69315 0.0
C649 C 0.5808 0.59553 0.80033 0.0
C650 C 0.5917 0.58569 0.8267 0.0
H651 H 0.57023 0.60426 0.71681 0.0
H652 H 0.57272 0.60142 0.83043 0.0
S653 S 0.62065 0.5634 0.73845 0.0
N654 N 0.61069 0.57212 0.68334 0.0
N655 N 0.61311 0.56882 0.80608 0.0
C656 C 0.60185 0.57821 0.78564 0.0
C657 C 0.60064 0.58013 0.71902 0.0
C658 C 0.41067 0.98697 0.79894 0.0
C659 C 0.42057 0.00772 0.82521 0.0
C660 C 0.40908 0.98388 0.73348 0.0
C661 C 0.4169 1.00138 0.69168 0.0
H662 H 0.40474 0.973 0.8291 0.0
H663 H 0.40184 0.96764 0.71552 0.0
S664 S 0.443 0.05894 0.73666 0.0
N665 N 0.43757 0.046 0.80437 0.0
N666 N 0.43419 0.04024 0.68166 0.0
C667 C 0.42613 0.02219 0.71744 0.0
C668 C 0.42809 0.02534 0.78405 0.0
C669 C 0.58087 0.986 0.29837 0.0
C670 C 0.59181 0.00671 0.32492 0.0
C671 C 0.57937 0.98301 0.23289 0.0
C672 C 0.58914 1.00057 0.19131 0.0
H673 H 0.57273 0.97199 0.32834 0.0
H674 H 0.57027 0.9668 0.21475 0.0
S675 S 0.62092 0.05804 0.23701 0.0
N676 N 0.61334 0.04501 0.30455 0.0
N677 N 0.61093 0.03943 0.18176 0.0
C678 C 0.60082 0.02133 0.21732 0.0
C679 C 0.60203 0.02438 0.28398 0.0
C680 C 0.01998 0.59754 0.30039 0.0
C681 C 0.99928 0.58739 0.32702 0.0
C682 C 0.02294 0.59877 0.2349 0.0
C683 C 0.00533 0.59031 0.19343 0.0
H684 H 0.03403 0.60395 0.33034 0.0
H685 H 0.03916 0.60625 0.21668 0.0
S686 S 0.94781 0.56327 0.23931 0.0
N687 N 0.9609 0.56942 0.30682 0.0
N688 N 0.96641 0.57212 0.18398 0.0
C689 C 0.98455 0.5808 0.21948 0.0
C690 C 0.98155 0.57921 0.28615 0.0
C691 C 0.42507 0.40711 0.22148 0.0
C692 C 0.41488 0.41763 0.19491 0.0
C693 C 0.42706 0.40609 0.28692 0.0
C694 C 0.41855 0.41516 0.32853 0.0
H695 H 0.43227 0.40025 0.1915 0.0
H696 H 0.43555 0.39832 0.305 0.0
S697 S 0.38906 0.44324 0.28295 0.0
N698 N 0.39538 0.43652 0.21536 0.0
N699 N 0.39869 0.43422 0.33819 0.0
C700 C 0.40759 0.425 0.3026 0.0
C701 C 0.40589 0.42636 0.23591 0.0
C702 C 0.34852 0.18923 0.17502 0.0
C703 C 0.32626 0.18168 0.1728 0.0
C704 C 0.3566 0.17508 0.17865 0.0
C705 C 0.34282 0.15271 0.18023 0.0
H706 H 0.35994 0.20629 0.17425 0.0
H707 H 0.37385 0.18182 0.18003 0.0
S708 S 0.28311 0.12449 0.17538 0.0
N709 N 0.29053 0.1502 0.17231 0.0
N710 N 0.30559 0.12362 0.1791 0.0
C711 C 0.32048 0.14489 0.17796 0.0
C712 C 0.31225 0.15933 0.17421 0.0
C713 C 0.81674 0.16093 0.18022 0.0
C714 C 0.82433 0.14634 0.17358 0.0
C715 C 0.83087 0.18319 0.18416 0.0
C716 C 0.85325 0.19188 0.18174 0.0
H717 H 0.79966 0.15517 0.18266 0.0
H718 H 0.82414 0.19364 0.18901 0.0
S719 S 0.88153 0.16071 0.16371 0.0
N720 N 0.85583 0.14234 0.16415 0.0
N721 N 0.88235 0.18393 0.17157 0.0
C722 C 0.86108 0.17745 0.17502 0.0
C723 C 0.84667 0.1548 0.17091 0.0
C724 C 0.8454 0.65644 0.17659 0.0
C725 C 0.86009 0.67871 0.17431 0.0
C726 C 0.82317 0.64834 0.18024 0.0
C727 C 0.81458 0.66212 0.18187 0.0
H728 H 0.85107 0.64504 0.17567 0.0
H729 H 0.81266 0.63109 0.18155 0.0
S730 S 0.84603 0.72184 0.17731 0.0
N731 N 0.86433 0.71444 0.17407 0.0
N732 N 0.82271 0.69935 0.181 0.0
C733 C 0.82909 0.68447 0.17972 0.0
C734 C 0.85175 0.69271 0.17588 0.0
C735 C 0.14911 0.32319 0.34063 0.0
C736 C 0.15667 0.34547 0.33969 0.0
C737 C 0.16325 0.31509 0.34422 0.0
C738 C 0.18561 0.32888 0.34707 0.0
H739 H 0.13205 0.31179 0.33883 0.0
H740 H 0.15653 0.29784 0.34458 0.0
S741 S 0.21383 0.38862 0.34618 0.0
N742 N 0.18814 0.38121 0.34192 0.0
N743 N 0.21467 0.36613 0.34874 0.0
C744 C 0.19342 0.35123 0.34614 0.0
C745 C 0.179 0.35947 0.34239 0.0
C746 C 0.68171 0.82713 0.34131 0.0
C747 C 0.65941 0.81257 0.33884 0.0
C748 C 0.68998 0.84939 0.34502 0.0
C749 C 0.67634 0.85815 0.34646 0.0
H750 H 0.693 0.82133 0.34065 0.0
H751 H 0.70724 0.85978 0.34658 0.0
S752 S 0.61662 0.82712 0.34098 0.0
N753 N 0.62382 0.80866 0.33796 0.0
N754 N 0.63921 0.85033 0.34496 0.0
C755 C 0.65397 0.84378 0.34396 0.0
C756 C 0.64556 0.82109 0.34011 0.0
C757 C 0.18396 0.82907 0.34307 0.0
C758 C 0.19258 0.85146 0.34245 0.0
C759 C 0.16172 0.81495 0.34691 0.0
C760 C 0.14706 0.82255 0.35039 0.0
H761 H 0.19444 0.82232 0.34076 0.0
H762 H 0.15602 0.79788 0.34696 0.0
S763 S 0.16123 0.87979 0.35055 0.0
N764 N 0.18452 0.8806 0.34572 0.0
N765 N 0.1429 0.85408 0.35298 0.0
C766 C 0.15545 0.84491 0.3499 0.0
C767 C 0.17811 0.85932 0.34589 0.0
C768 C 0.6501 0.8298 0.84209 0.0
C769 C 0.66415 0.85213 0.84091 0.0
C770 C 0.65786 0.81541 0.84605 0.0
C771 C 0.68005 0.82264 0.84904 0.0
H772 H 0.6329 0.82329 0.84013 0.0
H773 H 0.64624 0.7984 0.84651 0.0
S774 S 0.7238 0.87958 0.84769 0.0
N775 N 0.70155 0.88084 0.84321 0.0
N776 N 0.71601 0.85377 0.85061 0.0
C777 C 0.69433 0.84494 0.84803 0.0
C778 C 0.68643 0.85964 0.84393 0.0
C779 C 0.19171 0.84475 0.84864 0.0
C780 C 0.18437 0.85964 0.84961 0.0
C781 C 0.17742 0.82255 0.84453 0.0
C782 C 0.1551 0.81419 0.84113 0.0
H783 H 0.20873 0.85024 0.85094 0.0
H784 H 0.18398 0.81189 0.84436 0.0
S785 S 0.12742 0.84623 0.84147 0.0
N786 N 0.15315 0.86431 0.84652 0.0
N787 N 0.12631 0.82277 0.83871 0.0
C788 C 0.1475 0.82891 0.84189 0.0
C789 C 0.16209 0.85153 0.8462 0.0
C790 C 0.16191 0.34762 0.84832 0.0
C791 C 0.1471 0.32538 0.85035 0.0
C792 C 0.18413 0.3556 0.84528 0.0
C793 C 0.19261 0.34172 0.84407 0.0
H794 H 0.15635 0.35911 0.84888 0.0
H795 H 0.19471 0.37284 0.84399 0.0
S796 S 0.16085 0.28202 0.84847 0.0
N797 N 0.14264 0.28956 0.85099 0.0
N798 N 0.18426 0.30442 0.84526 0.0
C799 C 0.17799 0.3194 0.84614 0.0
C800 C 0.15533 0.31128 0.84932 0.0
C801 C 0.81576 0.65662 0.6763 0.0
C802 C 0.8232 0.67886 0.67356 0.0
C803 C 0.82999 0.64865 0.67975 0.0
C804 C 0.85235 0.66253 0.68069 0.0
H805 H 0.79871 0.64514 0.67596 0.0
H806 H 0.82334 0.63142 0.68153 0.0
S807 S 0.88031 0.72221 0.67437 0.0
N808 N 0.85456 0.71467 0.67193 0.0
N809 N 0.88131 0.69982 0.67841 0.0
C810 C 0.86007 0.68485 0.67795 0.0
C811 C 0.84553 0.69296 0.67435 0.0
C812 C 0.32411 0.17757 0.68039 0.0
C813 C 0.34633 0.19236 0.68397 0.0
C814 C 0.31616 0.15537 0.67637 0.0
C815 C 0.33007 0.14692 0.67567 0.0
H816 H 0.31263 0.18315 0.68044 0.0
H817 H 0.29895 0.14478 0.67393 0.0
S818 S 0.38973 0.17866 0.68413 0.0
N819 N 0.38214 0.19683 0.68669 0.0
N820 N 0.36736 0.15528 0.67908 0.0
C821 C 0.35237 0.16153 0.67928 0.0
C822 C 0.36044 0.18415 0.68349 0.0
C823 C 0.82304 0.17384 0.67429 0.0
C824 C 0.81462 0.1515 0.67719 0.0
C825 C 0.84523 0.18809 0.6705 0.0
C826 C 0.86009 0.1807 0.66944 0.0
H827 H 0.81243 0.18046 0.67476 0.0
H828 H 0.85073 0.20511 0.66869 0.0
S829 S 0.8465 0.12368 0.67592 0.0
N830 N 0.82306 0.12262 0.67865 0.0
N831 N 0.86466 0.14942 0.67157 0.0
C832 C 0.85192 0.1584 0.67212 0.0
C833 C 0.82927 0.14384 0.67604 0.0
C834 C 0.99068 0.48199 0.51378 0.0
C835 C 0.01294 0.48949 0.51481 0.0
C836 C 0.98264 0.49618 0.50995 0.0
C837 C 0.99649 0.51853 0.50692 0.0
H838 H 0.97924 0.46494 0.51579 0.0
H839 H 0.9654 0.48952 0.50967 0.0
S840 S 0.05622 0.54658 0.50765 0.0
N841 N 0.04873 0.52088 0.51225 0.0
N842 N 0.03378 0.54751 0.50495 0.0
C843 C 0.01883 0.52627 0.50777 0.0
C844 C 0.027 0.5118 0.51179 0.0
C845 C 0.48344 0.49372 0.50915 0.0
C846 C 0.49086 0.47893 0.50558 0.0
C847 C 0.49769 0.51592 0.51292 0.0
C848 C 0.52006 0.52439 0.51336 0.0
H849 H 0.46639 0.48815 0.50923 0.0
H850 H 0.49105 0.52649 0.51531 0.0
S851 S 0.54797 0.49266 0.50496 0.0
N852 N 0.52221 0.47447 0.50272 0.0
N853 N 0.54899 0.51605 0.50982 0.0
C854 C 0.52775 0.50979 0.50983 0.0
C855 C 0.5132 0.48715 0.5059 0.0
C856 C 0.51229 0.99124 0.506 0.0
C857 C 0.52713 0.01347 0.5038 0.0
C858 C 0.4901 0.9833 0.50995 0.0
C859 C 0.48167 0.99722 0.51188 0.0
H860 H 0.5178 0.97972 0.50492 0.0
H861 H 0.4795 0.96607 0.51124 0.0
S862 S 0.51352 0.05692 0.50747 0.0
N863 N 0.53168 0.04932 0.50387 0.0
N864 N 0.4901 0.03454 0.51126 0.0
C865 C 0.49631 0.01954 0.5097 0.0
C866 C 0.51896 0.02761 0.50562 0.0
C867 C 0.48378 0.99121 1.00642 0.0
C868 C 0.49142 0.0135 1.00468 0.0
C869 C 0.49785 0.98304 0.01021 0.0
C870 C 0.52023 0.99677 0.01246 0.0
H871 H 0.46671 0.97985 1.00502 0.0
H872 H 0.49106 0.96578 0.01108 0.0
S873 S 0.54865 0.0565 1.00965 0.0
N874 N 0.52297 0.04918 1.00573 0.0
N875 N 0.5494 0.03397 0.01291 0.0
C876 C 0.52813 0.01913 0.01087 0.0
C877 C 0.51377 0.02744 1.00692 0.0
C878 C 0.02334 0.51704 0.01175 0.0
C879 C 0.00954 0.5256 0.01348 0.0
C880 C 0.01527 0.4948 1.00856 0.0
C881 C 0.993 0.48006 1.00691 0.0
H882 H 0.04058 0.52757 0.01265 0.0
H883 H 0.0267 0.48917 1.00752 0.0
S884 S 0.94982 0.49403 0.01057 0.0
N885 N 0.97228 0.51739 0.01345 0.0
N886 N 0.95726 0.47575 1.00742 0.0
C887 C 0.97898 0.48837 1.00857 0.0
C888 C 0.98719 0.51105 0.0119 0.0
C889 C 0.48971 0.50844 0.01229 0.0
C890 C 0.48114 0.48609 0.01566 0.0
C891 C 0.51195 0.52256 1.00822 0.0
C892 C 0.52665 0.51498 1.00723 0.0
H893 H 0.47919 0.51517 0.01242 0.0
H894 H 0.51762 0.53961 1.00589 0.0
S895 S 0.51263 0.45784 0.01547 0.0
N896 N 0.48931 0.45702 0.01819 0.0
N897 N 0.53091 0.48351 0.0104 0.0
C898 C 0.51832 0.49266 0.01068 0.0
C899 C 0.49567 0.47826 0.01498 0.0
C900 C 0.40029 0.05593 0.07692 0.0
C901 C 0.4222 0.06761 0.06079 0.0
C902 C 0.39022 0.0655 0.10872 0.0
C903 C 0.40142 0.08733 0.12589 0.0
H904 H 0.39069 0.03904 0.0655 0.0
H905 H 0.37328 0.05555 0.11916 0.0
S906 S 0.45921 0.12531 0.09555 0.0
N907 N 0.455 0.10237 0.06532 0.0
N908 N 0.4359 0.12048 0.12446 0.0
C909 C 0.4234 0.09933 0.11031 0.0
C910 C 0.43377 0.08948 0.07788 0.0
C911 C 0.91102 0.32794 0.11961 0.0
C912 C 0.92072 0.31509 0.11799 0.0
C913 C 0.9204 0.348 0.08881 0.0
C914 C 0.93975 0.35588 0.05485 0.0
H915 H 0.89627 0.32264 0.14568 0.0
H916 H 0.91281 0.35768 0.0934 0.0
S917 S 0.9702 0.3274 0.0291 0.0
N918 N 0.94995 0.31114 0.07455 0.0
N919 N 0.96724 0.34843 0.01718 0.0
C920 C 0.94909 0.3428 0.0508 0.0
C921 C 0.93969 0.32256 0.0822 0.0
C922 C 0.6803 0.61566 0.10803 0.0
C923 C 0.69075 0.60426 0.12518 0.0
C924 C 0.66057 0.60571 0.07665 0.0
C925 C 0.65009 0.58376 0.06094 0.0
H926 H 0.6875 0.63264 0.1182 0.0
H927 H 0.65342 0.61543 0.06524 0.0
S928 S 0.67026 0.54631 0.09569 0.0
N929 N 0.68899 0.56959 0.12409 0.0
N930 N 0.65163 0.55074 0.0657 0.0
C931 C 0.66023 0.57202 0.07791 0.0
C932 C 0.68053 0.58226 0.10991 0.0
C933 C 0.05571 0.39831 0.44343 0.0
C934 C 0.06713 0.42024 0.4595 0.0
C935 C 0.06565 0.38836 0.41277 0.0
C936 C 0.08758 0.39978 0.39667 0.0
H937 H 0.03875 0.38861 0.45401 0.0
H938 H 0.05594 0.37141 0.4022 0.0
S939 S 0.125 0.45763 0.42808 0.0
N940 N 0.10178 0.45319 0.45668 0.0
N941 N 0.12054 0.43441 0.39948 0.0
C942 C 0.09931 0.42175 0.41241 0.0
C943 C 0.08911 0.43196 0.44375 0.0
C944 C 0.61708 0.67908 0.41301 0.0
C945 C 0.60527 0.68913 0.39633 0.0
C946 C 0.60752 0.65928 0.444 0.0
C947 C 0.58555 0.64832 0.45976 0.0
H948 H 0.63408 0.68664 0.40268 0.0
H949 H 0.61756 0.65245 0.455 0.0
S950 S 0.54716 0.66743 0.42687 0.0
N951 N 0.57022 0.68656 0.3984 0.0
N952 N 0.55211 0.64906 0.45607 0.0
C953 C 0.57342 0.65809 0.44349 0.0
C954 C 0.58325 0.67847 0.41188 0.0
C955 C 0.32742 0.9401 0.4092 0.0
C956 C 0.31674 0.91799 0.39546 0.0
C957 C 0.34725 0.95027 0.43995 0.0
C958 C 0.35765 0.93896 0.45839 0.0
H959 H 0.32035 0.94982 0.39674 0.0
H960 H 0.35455 0.96735 0.44862 0.0
S961 S 0.33673 0.88068 0.43397 0.0
N962 N 0.31807 0.88492 0.40334 0.0
N963 N 0.35568 0.90419 0.46044 0.0
C964 C 0.34727 0.9168 0.44498 0.0
C965 C 0.32683 0.90632 0.41365 0.0
C966 C 0.60799 0.94993 0.9427 0.0
C967 C 0.586 0.93855 0.95811 0.0
C968 C 0.6179 0.94014 0.91141 0.0
C969 C 0.60648 0.91832 0.89415 0.0
H970 H 0.61779 0.9668 0.95417 0.0
H971 H 0.6349 0.9499 0.9014 0.0
S972 S 0.54848 0.88097 0.92356 0.0
N973 N 0.55293 0.90405 0.95336 0.0
N974 N 0.57176 0.88544 0.89529 0.0
C975 C 0.58445 0.90657 0.90935 0.0
C976 C 0.57422 0.91668 0.9412 0.0
C977 C 0.09656 0.67787 0.90272 0.0
C978 C 0.08758 0.69133 0.90654 0.0
C979 C 0.08688 0.65775 0.93324 0.0
C980 C 0.06799 0.65047 0.9691 0.0
H981 H 0.11087 0.68269 0.87485 0.0
H982 H 0.09379 0.64752 0.92672 0.0
S983 S 0.03998 0.68096 1.00211 0.0
N984 N 0.05989 0.6967 0.9549 0.0
N985 N 0.04203 0.6593 0.01177 0.0
C986 C 0.05956 0.66427 0.97584 0.0
C987 C 0.06924 0.68455 0.94471 0.0
C988 C 0.3449 0.42821 0.95406 0.0
C989 C 0.3583 0.41919 0.94991 0.0
C990 C 0.32476 0.41861 0.92368 0.0
C991 C 0.31742 0.39975 0.88763 0.0
H992 H 0.34976 0.44249 0.98211 0.0
H993 H 0.31457 0.42554 0.93045 0.0
S994 S 0.34778 0.37166 0.85373 0.0
N995 N 0.36358 0.39151 0.90104 0.0
N996 N 0.32615 0.37378 0.84441 0.0
C997 C 0.33117 0.39128 0.88055 0.0
C998 C 0.35147 0.40089 0.91155 0.0
C999 C 0.90759 0.58617 0.5958 0.0
C1000 C 0.91897 0.60456 0.63382 0.0
C1001 C 0.91817 0.57672 0.56485 0.0
C1002 C 0.94053 0.58548 0.57029 0.0
H1003 H 0.89054 0.5795 0.58797 0.0
H1004 H 0.90886 0.5628 0.53537 0.0
S1005 S 0.97706 0.63153 0.67205 0.0
N1006 N 0.95337 0.62961 0.68057 0.0
N1007 N 0.97321 0.61228 0.62252 0.0
C1008 C 0.95184 0.60328 0.61057 0.0
C1009 C 0.94109 0.61268 0.64229 0.0
C1010 C 0.39897 0.34517 0.57581 0.0
C1011 C 0.42098 0.35566 0.5607 0.0
C1012 C 0.38901 0.32564 0.60829 0.0
C1013 C 0.40047 0.31545 0.62729 0.0
H1014 H 0.38923 0.35219 0.56307 0.0
H1015 H 0.37199 0.3184 0.61796 0.0
S1016 S 0.45854 0.33598 0.59955 0.0
N1017 N 0.45407 0.35433 0.56764 0.0
N1018 N 0.43523 0.31738 0.62817 0.0
C1019 C 0.42252 0.32566 0.61248 0.0
C1020 C 0.43275 0.34572 0.57926 0.0
C1021 C 0.66322 0.08691 0.56402 0.0
C1022 C 0.64948 0.06452 0.56775 0.0
C1023 C 0.68318 0.09711 0.59536 0.0
C1024 C 0.69002 0.08531 0.63203 0.0
H1025 H 0.65872 0.09657 0.53572 0.0
H1026 H 0.69361 0.11423 0.58892 0.0
S1027 S 0.65866 0.02684 0.66519 0.0
N1028 N 0.64338 0.03127 0.61675 0.0
N1029 N 0.68049 0.05039 0.67536 0.0
C1030 C 0.67596 0.06311 0.63862 0.0
C1031 C 0.65583 0.05274 0.60656 0.0
C1032 C 0.75309 0.76055 0.78594 0.0
C1033 C 0.73051 0.75052 0.78762 0.0
C1034 C 0.76351 0.7511 0.75427 0.0
C1035 C 0.75177 0.73132 0.72268 0.0
H1036 H 0.7628 0.77572 0.80975 0.0
H1037 H 0.78087 0.75907 0.75614 0.0
S1038 S 0.69244 0.69947 0.70697 0.0
N1039 N 0.69686 0.72021 0.75071 0.0
N1040 N 0.71638 0.7028 0.69144 0.0
C1041 C 0.72925 0.72151 0.72226 0.0
C1042 C 0.71866 0.73098 0.75464 0.0
C1043 C 0.24532 0.99533 0.78992 0.0
C1044 C 0.25454 0.98207 0.78673 0.0
C1045 C 0.25463 0.01522 0.75828 0.0
C1046 C 0.27338 0.02248 0.72183 0.0
H1047 H 0.23103 0.99049 0.81789 0.0
H1048 H 0.2475 0.02528 0.76422 0.0
S1049 S 0.30222 0.99264 0.69122 0.0
N1050 N 0.28253 0.97698 0.73922 0.0
N1051 N 0.29969 0.01396 0.68009 0.0
C1052 C 0.28217 0.00895 0.71615 0.0
C1053 C 0.27287 0.98889 0.74849 0.0
C1054 C 0.01516 0.25249 0.76858 0.0
C1055 C 0.02328 0.27258 0.79843 0.0
C1056 C 0.99527 0.24278 0.73691 0.0
C1057 C 0.98278 0.25285 0.73348 0.0
H1058 H 0.02448 0.24444 0.76817 0.0
H1059 H 0.98975 0.22736 0.71456 0.0
S1060 S 0.99603 0.30479 0.80882 0.0
N1061 N 0.01656 0.3015 0.82593 0.0
N1062 N 0.97963 0.28363 0.76659 0.0
C1063 C 0.99057 0.27274 0.76457 0.0
C1064 C 0.01065 0.28247 0.79698 0.0
C1065 C 0.25164 0.24289 0.23541 0.0
C1066 C 0.27412 0.25204 0.23824 0.0
C1067 C 0.24121 0.25247 0.26634 0.0
C1068 C 0.25285 0.27146 0.30174 0.0
H1069 H 0.24208 0.22843 0.20822 0.0
H1070 H 0.22401 0.24535 0.26072 0.0
S1071 S 0.31162 0.3003 0.331 0.0
N1072 N 0.30737 0.28026 0.28423 0.0
N1073 N 0.28785 0.29795 0.34208 0.0
C1074 C 0.27518 0.28021 0.30704 0.0
C1075 C 0.28578 0.27061 0.2754 0.0
C1076 C 0.72414 0.99323 0.27853 0.0
C1077 C 0.7352 0.98221 0.29264 0.0
C1078 C 0.73406 0.0129 0.24678 0.0
C1079 C 0.75568 0.02275 0.22763 0.0
H1080 H 0.70742 0.98654 0.29143 0.0
H1081 H 0.72458 0.02051 0.23789 0.0
S1082 S 0.79217 1.00085 0.25309 0.0
N1083 N 0.76919 0.9827 0.28468 0.0
N1084 N 0.78802 0.01996 0.22567 0.0
C1085 C 0.7671 0.01205 0.24158 0.0
C1086 C 0.75688 0.9918 0.27394 0.0
C1087 C 0.01314 0.7315 0.28005 0.0
C1088 C 0.02365 0.75347 0.29562 0.0
C1089 C 0.99359 0.72163 0.2477 0.0
C1090 C 0.98339 0.73314 0.22932 0.0
H1091 H 0.02015 0.72171 0.29231 0.0
H1092 H 0.98634 0.70463 0.23767 0.0
S1093 S 0.00398 0.79114 0.25846 0.0
N1094 N 0.02234 0.78659 0.28978 0.0
N1095 N 0.98534 0.76791 0.22953 0.0
C1096 C 0.99362 0.75515 0.2446 0.0
C1097 C 0.01372 0.7653 0.27766 0.0
C1098 C 0.35617 0.10001 0.95597 0.0
C1099 C 0.33773 0.08936 0.99418 0.0
C1100 C 0.35465 0.099 0.89029 0.0
C1101 C 0.33462 0.08761 0.86062 0.0
H1102 H 0.37196 0.10918 0.97689 0.0
H1103 H 0.36919 0.10759 0.86267 0.0
S1104 S 0.28161 0.05606 0.93884 0.0
N1105 N 0.29893 0.06636 0.99735 0.0
N1106 N 0.29601 0.06461 0.87383 0.0
C1107 C 0.31608 0.07658 0.89814 0.0
C1108 C 0.31766 0.07739 0.96498 0.0
C1109 C 0.90675 0.25729 0.95582 0.0
C1110 C 0.91529 0.2474 0.99421 0.0
C1111 C 0.90712 0.25605 0.89016 0.0
C1112 C 0.91572 0.24457 0.86061 0.0
H1113 H 0.89986 0.26623 0.97665 0.0
H1114 H 0.9004 0.26392 0.8625 0.0
S1115 S 0.94035 0.21605 0.94031 0.0
N1116 N 0.93283 0.22607 0.99833 0.0
N1117 N 0.93346 0.22348 0.87497 0.0
C1118 C 0.92443 0.23469 0.89862 0.0
C1119 C 0.92427 0.2362 0.96543 0.0
C1120 C 0.75011 0.65008 0.95717 0.0
C1121 C 0.75722 0.66837 0.99566 0.0
C1122 C 0.75074 0.6517 0.89156 0.0
C1123 C 0.75883 0.6717 0.86206 0.0
H1124 H 0.74389 0.63429 0.9778 0.0
H1125 H 0.74525 0.63724 0.86383 0.0
S1126 S 0.77845 0.72436 0.94081 0.0
N1127 N 0.77181 0.70701 0.99918 0.0
N1128 N 0.77324 0.71013 0.87563 0.0
C1129 C 0.76572 0.69011 0.89975 0.0
C1130 C 0.76483 0.68842 0.96663 0.0
C1131 C 0.10211 0.35272 0.63114 0.0
C1132 C 0.09023 0.33267 0.6604 0.0
C1133 C 0.10309 0.35445 0.56554 0.0
C1134 C 0.09193 0.33622 0.52679 0.0
H1135 H 0.11103 0.36714 0.65906 0.0
H1136 H 0.11262 0.37028 0.54513 0.0
S1137 S 0.05729 0.28012 0.581 0.0
N1138 N 0.0663 0.29426 0.64634 0.0
N1139 N 0.06796 0.29756 0.52285 0.0
C1140 C 0.07955 0.31611 0.55561 0.0
C1141 C 0.07877 0.31432 0.62247 0.0
C1142 C 0.6515 0.75132 0.63039 0.0
C1143 C 0.6713 0.75826 0.65996 0.0
C1144 C 0.64994 0.75075 0.56474 0.0
C1145 C 0.66808 0.75678 0.5263 0.0
H1146 H 0.63719 0.74669 0.65808 0.0
H1147 H 0.63431 0.74542 0.5441 0.0
S1148 S 0.72339 0.77451 0.58175 0.0
N1149 N 0.70927 0.77026 0.64677 0.0
N1150 N 0.70631 0.76898 0.52322 0.0
C1151 C 0.6879 0.76321 0.55554 0.0
C1152 C 0.68952 0.76403 0.62243 0.0
C1153 C 0.23841 0.92283 0.62427 0.0
C1154 C 0.24934 0.91534 0.66251 0.0
C1155 C 0.23962 0.92258 0.55859 0.0
C1156 C 0.25152 0.91453 0.52889 0.0
H1157 H 0.22886 0.92903 0.64514 0.0
H1158 H 0.23078 0.92825 0.53096 0.0
S1159 S 0.28421 0.89435 0.60685 0.0
N1160 N 0.27332 0.90065 0.66544 0.0
N1161 N 0.27543 0.89999 0.54192 0.0
C1162 C 0.26288 0.9074 0.56633 0.0
C1163 C 0.26185 0.90787 0.63319 0.0
C1164 C 0.65277 0.90565 0.1307 0.0
C1165 C 0.6727 0.9177 0.16044 0.0
C1166 C 0.65133 0.90458 0.065 0.0
C1167 C 0.66971 0.91584 0.02685 0.0
H1168 H 0.6383 0.89656 0.15829 0.0
H1169 H 0.63562 0.89486 0.04403 0.0
S1170 S 0.72547 0.95114 0.08273 0.0
N1171 N 0.71108 0.94204 0.14762 0.0
N1172 N 0.70831 0.94023 0.02406 0.0
C1173 C 0.68965 0.9285 0.05624 0.0
C1174 C 0.69115 0.92937 0.12309 0.0
C1175 C 0.10105 0.75059 0.13167 0.0
C1176 C 0.08949 0.75901 0.16145 0.0
C1177 C 0.10205 0.75011 0.06604 0.0
C1178 C 0.09124 0.75772 0.0278 0.0
H1179 H 0.10974 0.74473 0.1592 0.0
H1180 H 0.11132 0.7436 0.0452 0.0
S1181 S 0.05731 0.77979 0.08338 0.0
N1182 N 0.06607 0.77415 0.14837 0.0
N1183 N 0.06779 0.77301 0.02477 0.0
C1184 C 0.07909 0.76561 0.05708 0.0
C1185 C 0.07829 0.76634 0.12399 0.0
C1186 C 0.25799 0.3534 0.13329 0.0
C1187 C 0.25011 0.33344 0.1629 0.0
C1188 C 0.25855 0.35493 0.06761 0.0
C1189 C 0.25161 0.33661 0.02935 0.0
H1190 H 0.2632 0.36782 0.16096 0.0
H1191 H 0.26449 0.37065 0.04675 0.0
S1192 S 0.23129 0.28082 0.08489 0.0
N1193 N 0.23633 0.29511 0.14986 0.0
N1194 N 0.23763 0.29804 0.02633 0.0
C1195 C 0.24438 0.31664 0.05862 0.0
C1196 C 0.24355 0.31505 0.12545 0.0
C1197 C 0.90517 0.6503 0.45719 0.0
C1198 C 0.91637 0.66856 0.49577 0.0
C1199 C 0.90601 0.65199 0.39158 0.0
C1200 C 0.91778 0.67204 0.36222 0.0
H1201 H 0.89567 0.63449 0.47775 0.0
H1202 H 0.89703 0.63756 0.36375 0.0
S1203 S 0.95089 0.72463 0.44119 0.0
N1204 N 0.94035 0.70722 0.49947 0.0
N1205 N 0.94174 0.71046 0.37596 0.0
C1206 C 0.92934 0.69041 0.39999 0.0
C1207 C 0.92872 0.68865 0.46684 0.0
C1208 C 0.31964 0.23724 0.46485 0.0
C1209 C 0.33968 0.24899 0.49423 0.0
C1210 C 0.31801 0.23598 0.39923 0.0
C1211 C 0.33633 0.2467 0.36058 0.0
H1212 H 0.30515 0.22864 0.49269 0.0
H1213 H 0.30217 0.2266 0.37874 0.0
S1214 S 0.39245 0.28094 0.41503 0.0
N1215 N 0.37819 0.2724 0.48032 0.0
N1216 N 0.37506 0.27019 0.35681 0.0
C1217 C 0.35643 0.25897 0.38948 0.0
C1218 C 0.35812 0.26005 0.45637 0.0
C1219 C 0.74982 0.09997 0.45405 0.0
C1220 C 0.7563 0.08817 0.49219 0.0
C1221 C 0.75087 0.09948 0.38839 0.0
C1222 C 0.75879 0.08747 0.35866 0.0
H1223 H 0.74386 0.10971 0.47499 0.0
H1224 H 0.74595 0.10896 0.36086 0.0
S1225 S 0.77648 0.05265 0.4362 0.0
N1226 N 0.76989 0.06325 0.49489 0.0
N1227 N 0.77209 0.06251 0.37139 0.0
C1228 C 0.76491 0.07523 0.39595 0.0
C1229 C 0.76358 0.07551 0.46277 0.0
C1230 C 0.02003 0.43433 0.22473 0.0
C1231 C 0.99993 0.42262 0.19559 0.0
C1232 C 0.02179 0.43535 0.29032 0.0
C1233 C 1.00355 0.4244 0.32916 0.0
H1234 H 0.03445 0.44312 0.19673 0.0
H1235 H 0.03765 0.44476 0.31064 0.0
S1236 S 0.94735 0.39022 0.27533 0.0
N1237 N 0.96147 0.39905 0.20989 0.0
N1238 N 0.96484 0.40078 0.33337 0.0
C1239 C 0.9834 0.41216 0.30048 0.0
C1240 C 0.98158 0.41135 0.23363 0.0
C1241 C 0.57248 0.58783 0.22256 0.0
C1242 C 0.58455 0.57991 0.19316 0.0
C1243 C 0.57164 0.58865 0.28822 0.0
C1244 C 0.58317 0.58193 0.32674 0.0
H1245 H 0.56324 0.59298 0.19473 0.0
H1246 H 0.56192 0.59468 0.30888 0.0
S1247 S 0.61853 0.56142 0.27191 0.0
N1248 N 0.60912 0.56618 0.20676 0.0
N1249 N 0.60775 0.56796 0.33024 0.0
C1250 C 0.5958 0.57455 0.2977 0.0
C1251 C 0.59642 0.57346 0.23088 0.0
C1252 C 0.4177 0.98454 0.28675 0.0
C1253 C 0.42427 0.00276 0.3252 0.0
C1254 C 0.41862 0.98619 0.22108 0.0
C1255 C 0.42649 0.00618 0.19161 0.0
H1256 H 0.4117 0.96879 0.30747 0.0
H1257 H 0.41356 0.97182 0.19332 0.0
S1258 S 0.44461 0.05861 0.27012 0.0
N1259 N 0.43806 0.04129 0.32851 0.0
N1260 N 0.44002 0.04445 0.20504 0.0
C1261 C 0.4328 0.02449 0.22925 0.0
C1262 C 0.43161 0.02277 0.29607 0.0
C1263 C 0.56976 0.9835 0.78675 0.0
C1264 C 0.58272 1.00156 0.82462 0.0
C1265 C 0.57037 0.98491 0.72104 0.0
C1266 C 0.58366 0.00451 0.69097 0.0
H1267 H 0.55903 0.96806 0.80792 0.0
H1268 H 0.56001 0.97072 0.69372 0.0
S1269 S 0.62185 0.05617 0.76739 0.0
N1270 N 0.61014 0.03937 0.82645 0.0
N1271 N 0.611 0.04209 0.70291 0.0
C1272 C 0.59701 0.02259 0.7279 0.0
C1273 C 0.59662 0.0211 0.79476 0.0
C1274 C 0.02194 0.5899 0.72312 0.0
C1275 C 1.00214 0.58272 0.69322 0.0
C1276 C 0.02337 0.59063 0.78884 0.0
C1277 C 0.00513 0.58458 0.82683 0.0
H1278 H 0.03627 0.59445 0.69565 0.0
H1279 H 0.03895 0.59599 0.80994 0.0
S1280 S 0.94989 0.56655 0.7702 0.0
N1281 N 0.96413 0.5706 0.70557 0.0
N1282 N 0.9669 0.57237 0.82908 0.0
C1283 C 0.98538 0.5781 0.79718 0.0
C1284 C 0.98387 0.57706 0.73034 0.0
C1285 C 0.41847 0.43318 0.72452 0.0
C1286 C 0.42682 0.42155 0.6948 0.0
C1287 C 0.41771 0.43395 0.79014 0.0
C1288 C 0.42496 0.42284 0.82845 0.0
H1289 H 0.41285 0.44208 0.69697 0.0
H1290 H 0.41126 0.44329 0.81092 0.0
S1291 S 0.44672 0.38863 0.77295 0.0
N1292 N 0.44152 0.39776 0.70794 0.0
N1293 N 0.43986 0.39905 0.83153 0.0
C1294 C 0.43279 0.41063 0.7992 0.0
C1295 C 0.43381 0.41006 0.73229 0.0
loop_
_geom_bond_atom_site_label_1
_geom_bond_atom_site_label_2
_geom_bond_distance
_geom_bond_site_symmetry_2
_ccdc_geom_bond_type
C0 O2 1.247 . S
C0 O4 1.258 . S
C1 O8 1.247 . S
C1 O9 1.258 . S
O2 C0 1.247 . S
O2 Zn3 2.028 . S
Zn3 O2 2.028 . S
Zn3 O7 2.035 . S
Zn3 O9 2.035 . S
Zn3 O10 2.028 . S
O4 C0 1.258 . S
O4 Zn5 2.035 . S
Zn5 O4 2.035 . S
Zn5 O6 2.028 . S
Zn5 O8 2.028 . S
Zn5 O11 2.035 . S
O6 Zn5 2.028 . S
O6 C12 1.247 . S
O7 Zn3 2.035 . S
O7 C12 1.258 . S
O8 C1 1.247 . S
O8 Zn5 2.028 . S
O9 C1 1.258 . S
O9 Zn3 2.035 . S
O10 Zn3 2.028 . S
O10 C13 1.247 . S
O11 Zn5 2.035 . S
O11 C13 1.258 . S
C12 O6 1.247 . S
C12 O7 1.258 . S
C13 O10 1.247 . S
C13 O11 1.258 . S
C14 O16 1.247 . S
C14 O18 1.258 . S
C15 O22 1.247 . S
C15 O23 1.258 . S
O16 C14 1.247 . S
O16 Zn17 2.028 . S
Zn17 O16 2.028 . S
Zn17 O21 2.035 . S
Zn17 O23 2.035 . S
Zn17 O24 2.028 . S
O18 C14 1.258 . S
O18 Zn19 2.035 . S
Zn19 O18 2.035 . S
Zn19 O20 2.028 . S
Zn19 O22 2.028 . S
Zn19 O25 2.035 . S
O20 Zn19 2.028 . S
O20 C26 1.247 . S
O21 Zn17 2.035 . S
O21 C26 1.258 . S
O22 C15 1.247 . S
O22 Zn19 2.028 . S
O23 C15 1.258 . S
O23 Zn17 2.035 . S
O24 Zn17 2.028 . S
O24 C27 1.247 . S
O25 Zn19 2.035 . S
O25 C27 1.258 . S
C26 O20 1.247 . S
C26 O21 1.258 . S
C27 O24 1.247 . S
C27 O25 1.258 . S
C28 O30 1.247 . S
C28 O32 1.258 . S
C29 O36 1.247 . S
C29 O37 1.258 . S
O30 C28 1.247 . S
O30 Zn31 2.028 . S
Zn31 O30 2.028 . S
Zn31 O35 2.035 . S
Zn31 O37 2.035 . S
Zn31 O38 2.028 . S
O32 C28 1.258 . S
O32 Zn33 2.035 . S
Zn33 O32 2.035 . S
Zn33 O34 2.028 . S
Zn33 O36 2.028 . S
Zn33 O39 2.035 . S
O34 Zn33 2.028 . S
O34 C40 1.247 . S
O35 Zn31 2.035 . S
O35 C40 1.258 . S
O36 C29 1.247 . S
O36 Zn33 2.028 . S
O37 C29 1.258 . S
O37 Zn31 2.035 . S
O38 Zn31 2.028 . S
O38 C41 1.247 . S
O39 Zn33 2.035 . S
O39 C41 1.258 . S
C40 O34 1.247 . S
C40 O35 1.258 . S
C41 O38 1.247 . S
C41 O39 1.258 . S
C42 O44 1.247 . S
C42 O46 1.258 . S
C43 O50 1.247 . S
C43 O51 1.258 . S
O44 C42 1.247 . S
O44 Zn45 2.028 . S
Zn45 O44 2.028 . S
Zn45 O49 2.035 . S
Zn45 O51 2.035 . S
Zn45 O52 2.028 . S
O46 C42 1.258 . S
O46 Zn47 2.035 . S
Zn47 O46 2.035 . S
Zn47 O48 2.028 . S
Zn47 O50 2.028 . S
Zn47 O53 2.035 . S
O48 Zn47 2.028 . S
O48 C54 1.247 . S
O49 Zn45 2.035 . S
O49 C54 1.258 . S
O50 C43 1.247 . S
O50 Zn47 2.028 . S
O51 C43 1.258 . S
O51 Zn45 2.035 . S
O52 Zn45 2.028 . S
O52 C55 1.247 . S
O53 Zn47 2.035 . S
O53 C55 1.258 . S
C54 O48 1.247 . S
C54 O49 1.258 . S
C55 O52 1.247 . S
C55 O53 1.258 . S
C56 O58 1.247 . S
C56 O60 1.258 . S
C57 O64 1.247 . S
C57 O65 1.258 . S
O58 C56 1.247 . S
O58 Zn59 2.028 . S
Zn59 O58 2.028 . S
Zn59 O63 2.035 . S
Zn59 O65 2.035 . S
Zn59 O66 2.028 . S
O60 C56 1.258 . S
O60 Zn61 2.035 . S
Zn61 O60 2.035 . S
Zn61 O62 2.028 . S
Zn61 O64 2.028 . S
Zn61 O67 2.035 . S
O62 Zn61 2.028 . S
O62 C68 1.247 . S
O63 Zn59 2.035 . S
O63 C68 1.258 . S
O64 C57 1.247 . S
O64 Zn61 2.028 . S
O65 C57 1.258 . S
O65 Zn59 2.035 . S
O66 Zn59 2.028 . S
O66 C69 1.247 . S
O67 Zn61 2.035 . S
O67 C69 1.258 . S
C68 O62 1.247 . S
C68 O63 1.258 . S
C69 O66 1.247 . S
C69 O67 1.258 . S
C70 O72 1.247 . S
C70 O74 1.258 . S
C71 O78 1.247 . S
C71 O79 1.258 . S
O72 C70 1.247 . S
O72 Zn73 2.028 . S
Zn73 O72 2.028 . S
Zn73 O77 2.035 . S
Zn73 O79 2.035 . S
Zn73 O80 2.028 . S
O74 C70 1.258 . S
O74 Zn75 2.035 . S
Zn75 O74 2.035 . S
Zn75 O76 2.028 . S
Zn75 O78 2.028 . S
Zn75 O81 2.035 . S
O76 Zn75 2.028 . S
O76 C82 1.247 . S
O77 Zn73 2.035 . S
O77 C82 1.258 . S
O78 C71 1.247 . S
O78 Zn75 2.028 . S
O79 C71 1.258 . S
O79 Zn73 2.035 . S
O80 Zn73 2.028 . S
O80 C83 1.247 . S
O81 Zn75 2.035 . S
O81 C83 1.258 . S
C82 O76 1.247 . S
C82 O77 1.258 . S
C83 O80 1.247 . S
C83 O81 1.258 . S
C84 O86 1.247 . S
C84 O88 1.258 . S
C85 O92 1.247 . S
C85 O93 1.258 . S
O86 C84 1.247 . S
O86 Zn87 2.028 . S
Zn87 O86 2.028 . S
Zn87 O91 2.035 . S
Zn87 O93 2.035 . S
Zn87 O94 2.028 . S
O88 C84 1.258 . S
O88 Zn89 2.035 . S
Zn89 O88 2.035 . S
Zn89 O90 2.028 . S
Zn89 O92 2.028 . S
Zn89 O95 2.035 . S
O90 Zn89 2.028 . S
O90 C96 1.247 . S
O91 Zn87 2.035 . S
O91 C96 1.258 . S
O92 C85 1.247 . S
O92 Zn89 2.028 . S
O93 C85 1.258 . S
O93 Zn87 2.035 . S
O94 Zn87 2.028 . S
O94 C97 1.247 . S
O95 Zn89 2.035 . S
O95 C97 1.258 . S
C96 O90 1.247 . S
C96 O91 1.258 . S
C97 O94 1.247 . S
C97 O95 1.258 . S
C98 O100 1.247 . S
C98 O102 1.258 . S
C99 O106 1.247 . S
C99 O107 1.258 . S
O100 C98 1.247 . S
O100 Zn101 2.028 . S
Zn101 O100 2.028 . S
Zn101 O105 2.035 . S
Zn101 O107 2.035 . S
Zn101 O108 2.028 . S
O102 C98 1.258 . S
O102 Zn103 2.035 . S
Zn103 O102 2.035 . S
Zn103 O104 2.028 . S
Zn103 O106 2.028 . S
Zn103 O109 2.035 . S
O104 Zn103 2.028 . S
O104 C110 1.247 . S
O105 Zn101 2.035 . S
O105 C110 1.258 . S
O106 C99 1.247 . S
O106 Zn103 2.028 . S
O107 C99 1.258 . S
O107 Zn101 2.035 . S
O108 Zn101 2.028 . S
O108 C111 1.247 . S
O109 Zn103 2.035 . S
O109 C111 1.258 . S
C110 O104 1.247 . S
C110 O105 1.258 . S
C111 O108 1.247 . S
C111 O109 1.258 . S
C112 O114 1.247 . S
C112 O116 1.258 . S
C113 O120 1.247 . S
C113 O121 1.258 . S
O114 C112 1.247 . S
O114 Zn115 2.028 . S
Zn115 O114 2.028 . S
Zn115 O119 2.035 . S
Zn115 O121 2.035 . S
Zn115 O122 2.028 . S
O116 C112 1.258 . S
O116 Zn117 2.035 . S
Zn117 O116 2.035 . S
Zn117 O118 2.028 . S
Zn117 O120 2.028 . S
Zn117 O123 2.035 . S
O118 Zn117 2.028 . S
O118 C124 1.247 . S
O119 Zn115 2.035 . S
O119 C124 1.258 . S
O120 C113 1.247 . S
O120 Zn117 2.028 . S
O121 C113 1.258 . S
O121 Zn115 2.035 . S
O122 Zn115 2.028 . S
O122 C125 1.247 . S
O123 Zn117 2.035 . S
O123 C125 1.258 . S
C124 O118 1.247 . S
C124 O119 1.258 . S
C125 O122 1.247 . S
C125 O123 1.258 . S
C126 O128 1.247 . S
C126 O130 1.258 . S
C127 O134 1.247 . S
C127 O135 1.258 . S
O128 C126 1.247 . S
O128 Zn129 2.028 . S
Zn129 O128 2.028 . S
Zn129 O133 2.035 . S
Zn129 O135 2.035 . S
Zn129 O136 2.028 . S
O130 C126 1.258 . S
O130 Zn131 2.035 . S
Zn131 O130 2.035 . S
Zn131 O132 2.028 . S
Zn131 O134 2.028 . S
Zn131 O137 2.035 . S
O132 Zn131 2.028 . S
O132 C138 1.247 . S
O133 Zn129 2.035 . S
O133 C138 1.258 . S
O134 C127 1.247 . S
O134 Zn131 2.028 . S
O135 C127 1.258 . S
O135 Zn129 2.035 . S
O136 Zn129 2.028 . S
O136 C139 1.247 . S
O137 Zn131 2.035 . S
O137 C139 1.258 . S
C138 O132 1.247 . S
C138 O133 1.258 . S
C139 O136 1.247 . S
C139 O137 1.258 . S
C140 O142 1.247 . S
C140 O144 1.258 . S
C141 O148 1.247 . S
C141 O149 1.258 . S
O142 C140 1.247 . S
O142 Zn143 2.028 . S
Zn143 O142 2.028 . S
Zn143 O147 2.035 . S
Zn143 O149 2.035 . S
Zn143 O150 2.028 . S
O144 C140 1.258 . S
O144 Zn145 2.035 . S
Zn145 O144 2.035 . S
Zn145 O146 2.028 . S
Zn145 O148 2.028 . S
Zn145 O151 2.035 . S
O146 Zn145 2.028 . S
O146 C152 1.247 . S
O147 Zn143 2.035 . S
O147 C152 1.258 . S
O148 C141 1.247 . S
O148 Zn145 2.028 . S
O149 C141 1.258 . S
O149 Zn143 2.035 . S
O150 Zn143 2.028 . S
O150 C153 1.247 . S
O151 Zn145 2.035 . S
O151 C153 1.258 . S
C152 O146 1.247 . S
C152 O147 1.258 . S
C153 O150 1.247 . S
C153 O151 1.258 . S
C154 O156 1.247 . S
C154 O158 1.258 . S
C155 O162 1.247 . S
C155 O163 1.258 . S
O156 C154 1.247 . S
O156 Zn157 2.028 . S
Zn157 O156 2.028 . S
Zn157 O161 2.035 . S
Zn157 O163 2.035 . S
Zn157 O164 2.028 . S
O158 C154 1.258 . S
O158 Zn159 2.035 . S
Zn159 O158 2.035 . S
Zn159 O160 2.028 . S
Zn159 O162 2.028 . S
Zn159 O165 2.035 . S
O160 Zn159 2.028 . S
O160 C166 1.247 . S
O161 Zn157 2.035 . S
O161 C166 1.258 . S
O162 C155 1.247 . S
O162 Zn159 2.028 . S
O163 C155 1.258 . S
O163 Zn157 2.035 . S
O164 Zn157 2.028 . S
O164 C167 1.247 . S
O165 Zn159 2.035 . S
O165 C167 1.258 . S
C166 O160 1.247 . S
C166 O161 1.258 . S
C167 O164 1.247 . S
C167 O165 1.258 . S
C168 O170 1.247 . S
C168 O172 1.258 1_455 S
C169 O176 1.247 1_455 S
C169 O177 1.258 . S
O170 C168 1.247 . S
O170 Zn171 2.028 . S
Zn171 O170 2.028 . S
Zn171 O175 2.035 . S
Zn171 O177 2.035 . S
Zn171 O178 2.028 . S
O172 C168 1.258 1_655 S
O172 Zn173 2.035 . S
Zn173 O172 2.035 . S
Zn173 O174 2.028 . S
Zn173 O176 2.028 . S
Zn173 O179 2.035 . S
O174 Zn173 2.028 . S
O174 C180 1.247 1_655 S
O175 Zn171 2.035 . S
O175 C180 1.258 . S
O176 C169 1.247 1_655 S
O176 Zn173 2.028 . S
O177 C169 1.258 . S
O177 Zn171 2.035 . S
O178 Zn171 2.028 . S
O178 C181 1.247 1_455 S
O179 Zn173 2.035 . S
O179 C181 1.258 . S
C180 O174 1.247 1_455 S
C180 O175 1.258 . S
C181 O178 1.247 1_655 S
C181 O179 1.258 . S
C182 O184 1.247 . S
C182 O186 1.258 . S
C183 O190 1.247 . S
C183 O191 1.258 . S
O184 C182 1.247 . S
O184 Zn185 2.028 . S
Zn185 O184 2.028 . S
Zn185 O189 2.035 . S
Zn185 O191 2.035 . S
Zn185 O192 2.028 . S
O186 C182 1.258 . S
O186 Zn187 2.035 . S
Zn187 O186 2.035 . S
Zn187 O188 2.028 . S
Zn187 O190 2.028 . S
Zn187 O193 2.035 . S
O188 Zn187 2.028 . S
O188 C194 1.247 . S
O189 Zn185 2.035 . S
O189 C194 1.258 . S
O190 C183 1.247 . S
O190 Zn187 2.028 . S
O191 C183 1.258 . S
O191 Zn185 2.035 . S
O192 Zn185 2.028 . S
O192 C195 1.247 . S
O193 Zn187 2.035 . S
O193 C195 1.258 . S
C194 O188 1.247 . S
C194 O189 1.258 . S
C195 O192 1.247 . S
C195 O193 1.258 . S
C196 O198 1.247 . S
C196 O200 1.258 1_565 S
C197 O204 1.247 1_565 S
C197 O205 1.258 . S
O198 C196 1.247 . S
O198 Zn199 2.028 . S
Zn199 O198 2.028 . S
Zn199 O203 2.035 . S
Zn199 O205 2.035 . S
Zn199 O206 2.028 . S
O200 C196 1.258 1_545 S
O200 Zn201 2.035 . S
Zn201 O200 2.035 . S
Zn201 O202 2.028 . S
Zn201 O204 2.028 . S
Zn201 O207 2.035 . S
O202 Zn201 2.028 . S
O202 C208 1.247 . S
O203 Zn199 2.035 . S
O203 C208 1.258 1_565 S
O204 C197 1.247 1_545 S
O204 Zn201 2.028 . S
O205 C197 1.258 . S
O205 Zn199 2.035 . S
O206 Zn199 2.028 . S
O206 C209 1.247 . S
O207 Zn201 2.035 . S
O207 C209 1.258 1_545 S
C208 O202 1.247 . S
C208 O203 1.258 1_545 S
C209 O206 1.247 . S
C209 O207 1.258 1_565 S
C210 O212 1.247 . S
C210 O214 1.258 . S
C211 O218 1.247 . S
C211 O219 1.258 . S
O212 C210 1.247 . S
O212 Zn213 2.028 . S
Zn213 O212 2.028 . S
Zn213 O217 2.035 . S
Zn213 O219 2.035 . S
Zn213 O220 2.028 . S
O214 C210 1.258 . S
O214 Zn215 2.035 . S
Zn215 O214 2.035 . S
Zn215 O216 2.028 . S
Zn215 O218 2.028 . S
Zn215 O221 2.035 . S
O216 Zn215 2.028 . S
O216 C222 1.247 . S
O217 Zn213 2.035 . S
O217 C222 1.258 . S
O218 C211 1.247 . S
O218 Zn215 2.028 . S
O219 C211 1.258 . S
O219 Zn213 2.035 . S
O220 Zn213 2.028 . S
O220 C223 1.247 . S
O221 Zn215 2.035 . S
O221 C223 1.258 . S
C222 O216 1.247 . S
C222 O217 1.258 . S
C223 O220 1.247 . S
C223 O221 1.258 . S
C224 O226 1.247 . S
C224 O228 1.258 . S
C225 O232 1.247 . S
C225 O233 1.258 . S
O226 C224 1.247 . S
O226 Zn227 2.028 . S
Zn227 O226 2.028 . S
Zn227 O231 2.035 . S
Zn227 O233 2.035 . S
Zn227 O234 2.028 . S
O228 C224 1.258 . S
O228 Zn229 2.035 . S
Zn229 O228 2.035 . S
Zn229 O230 2.028 . S
Zn229 O232 2.028 . S
Zn229 O235 2.035 . S
O230 Zn229 2.028 . S
O230 C236 1.247 . S
O231 Zn227 2.035 . S
O231 C236 1.258 . S
O232 C225 1.247 . S
O232 Zn229 2.028 . S
O233 C225 1.258 . S
O233 Zn227 2.035 . S
O234 Zn227 2.028 . S
O234 C237 1.247 . S
O235 Zn229 2.035 . S
O235 C237 1.258 . S
C236 O230 1.247 . S
C236 O231 1.258 . S
C237 O234 1.247 . S
C237 O235 1.258 . S
C238 O240 1.247 . S
C238 O242 1.258 . S
C239 O246 1.247 . S
C239 O247 1.258 . S
O240 C238 1.247 . S
O240 Zn241 2.028 . S
Zn241 O240 2.028 . S
Zn241 O245 2.035 . S
Zn241 O247 2.035 . S
Zn241 O248 2.028 . S
O242 C238 1.258 . S
O242 Zn243 2.035 . S
Zn243 O242 2.035 . S
Zn243 O244 2.028 . S
Zn243 O246 2.028 . S
Zn243 O249 2.035 . S
O244 Zn243 2.028 . S
O244 C250 1.247 . S
O245 Zn241 2.035 . S
O245 C250 1.258 . S
O246 C239 1.247 . S
O246 Zn243 2.028 . S
O247 C239 1.258 . S
O247 Zn241 2.035 . S
O248 Zn241 2.028 . S
O248 C251 1.247 . S
O249 Zn243 2.035 . S
O249 C251 1.258 . S
C250 O244 1.247 . S
C250 O245 1.258 . S
C251 O248 1.247 . S
C251 O249 1.258 . S
C252 O254 1.247 . S
C252 O256 1.258 . S
C253 O260 1.247 . S
C253 O261 1.258 . S
O254 C252 1.247 . S
O254 Zn255 2.028 . S
Zn255 O254 2.028 . S
Zn255 O259 2.035 . S
Zn255 O261 2.035 . S
Zn255 O262 2.028 . S
O256 C252 1.258 . S
O256 Zn257 2.035 . S
Zn257 O256 2.035 . S
Zn257 O258 2.028 . S
Zn257 O260 2.028 . S
Zn257 O263 2.035 . S
O258 Zn257 2.028 . S
O258 C264 1.247 . S
O259 Zn255 2.035 . S
O259 C264 1.258 . S
O260 C253 1.247 . S
O260 Zn257 2.028 . S
O261 C253 1.258 . S
O261 Zn255 2.035 . S
O262 Zn255 2.028 . S
O262 C265 1.247 . S
O263 Zn257 2.035 . S
O263 C265 1.258 . S
C264 O258 1.247 . S
C264 O259 1.258 . S
C265 O262 1.247 . S
C265 O263 1.258 . S
C266 O268 1.247 . S
C266 O270 1.258 . S
C267 O274 1.247 . S
C267 O275 1.258 . S
O268 C266 1.247 . S
O268 Zn269 2.028 . S
Zn269 O268 2.028 . S
Zn269 O273 2.035 . S
Zn269 O275 2.035 . S
Zn269 O276 2.028 . S
O270 C266 1.258 . S
O270 Zn271 2.035 . S
Zn271 O270 2.035 . S
Zn271 O272 2.028 . S
Zn271 O274 2.028 . S
Zn271 O277 2.035 . S
O272 Zn271 2.028 . S
O272 C278 1.247 . S
O273 Zn269 2.035 . S
O273 C278 1.258 . S
O274 C267 1.247 . S
O274 Zn271 2.028 . S
O275 C267 1.258 . S
O275 Zn269 2.035 . S
O276 Zn269 2.028 . S
O276 C279 1.247 . S
O277 Zn271 2.035 . S
O277 C279 1.258 . S
C278 O272 1.247 . S
C278 O273 1.258 . S
C279 O276 1.247 . S
C279 O277 1.258 . S
C280 O282 1.247 . S
C280 O284 1.258 . S
C281 O288 1.247 . S
C281 O289 1.258 . S
O282 C280 1.247 . S
O282 Zn283 2.028 . S
Zn283 O282 2.028 . S
Zn283 O287 2.035 . S
Zn283 O289 2.035 . S
Zn283 O290 2.028 . S
O284 C280 1.258 . S
O284 Zn285 2.035 . S
Zn285 O284 2.035 . S
Zn285 O286 2.028 . S
Zn285 O288 2.028 . S
Zn285 O291 2.035 . S
O286 Zn285 2.028 . S
O286 C292 1.247 . S
O287 Zn283 2.035 . S
O287 C292 1.258 . S
O288 C281 1.247 . S
O288 Zn285 2.028 . S
O289 C281 1.258 . S
O289 Zn283 2.035 . S
O290 Zn283 2.028 . S
O290 C293 1.247 . S
O291 Zn285 2.035 . S
O291 C293 1.258 . S
C292 O286 1.247 . S
C292 O287 1.258 . S
C293 O290 1.247 . S
C293 O291 1.258 . S
C294 O296 1.247 1_565 S
C294 O298 1.258 . S
C295 O302 1.247 . S
C295 O303 1.258 1_565 S
O296 C294 1.247 1_545 S
O296 Zn297 2.016 1_556 S
Zn297 O296 2.016 1_554 S
Zn297 O301 2.036 . S
Zn297 O303 2.047 . S
Zn297 O304 2.027 1_554 S
O298 C294 1.258 . S
O298 Zn299 2.043 . S
Zn299 O298 2.043 . S
Zn299 O300 2.027 1_556 S
Zn299 O302 2.020 1_556 S
Zn299 O305 2.036 . S
O300 Zn299 2.027 1_554 S
O300 C306 1.247 1_565 S
O301 Zn297 2.036 . S
O301 C306 1.258 . S
O302 C295 1.247 . S
O302 Zn299 2.020 1_554 S
O303 C295 1.258 1_545 S
O303 Zn297 2.047 . S
O304 Zn297 2.027 1_556 S
O304 C307 1.247 1_545 S
O305 Zn299 2.036 . S
O305 C307 1.258 . S
C306 O300 1.247 1_545 S
C306 O301 1.258 . S
C307 O304 1.247 1_565 S
C307 O305 1.258 . S
C308 O310 1.247 . S
C308 O312 1.258 1_455 S
C309 O316 1.247 . S
C309 O317 1.258 1_655 S
O310 C308 1.247 . S
O310 Zn311 2.028 . S
Zn311 O310 2.028 . S
Zn311 O315 2.035 1_556 S
Zn311 O317 2.035 1_556 S
Zn311 O318 2.028 . S
O312 C308 1.258 1_655 S
O312 Zn313 2.035 1_556 S
Zn313 O312 2.035 1_554 S
Zn313 O314 2.028 . S
Zn313 O316 2.028 . S
Zn313 O319 2.035 1_554 S
O314 Zn313 2.028 . S
O314 C320 1.247 1_655 S
O315 Zn311 2.035 1_554 S
O315 C320 1.258 . S
O316 C309 1.247 . S
O316 Zn313 2.028 . S
O317 C309 1.258 1_455 S
O317 Zn311 2.035 1_554 S
O318 Zn311 2.028 . S
O318 C321 1.247 . S
O319 Zn313 2.035 1_556 S
O319 C321 1.258 1_655 S
C320 O314 1.247 1_455 S
C320 O315 1.258 . S
C321 O318 1.247 . S
C321 O319 1.258 1_455 S
C322 O324 1.247 . S
C322 O326 1.258 . S
C323 O330 1.247 . S
C323 O331 1.258 . S
O324 C322 1.247 . S
O324 Zn325 2.027 1_554 S
Zn325 O324 2.027 1_556 S
Zn325 O329 2.042 . S
Zn325 O331 2.036 . S
Zn325 O332 2.021 1_556 S
O326 C322 1.258 . S
O326 Zn327 2.036 . S
Zn327 O326 2.036 . S
Zn327 O328 2.016 1_554 S
Zn327 O330 2.027 1_554 S
Zn327 O333 2.047 . S
O328 Zn327 2.016 1_556 S
O328 C334 1.247 . S
O329 Zn325 2.042 . S
O329 C334 1.258 . S
O330 C323 1.247 . S
O330 Zn327 2.027 1_556 S
O331 C323 1.258 . S
O331 Zn325 2.036 . S
O332 Zn325 2.021 1_554 S
O332 C335 1.247 . S
O333 Zn327 2.047 . S
O333 C335 1.258 . S
C334 O328 1.247 . S
C334 O329 1.258 . S
C335 O332 1.247 . S
C335 O333 1.258 . S
C336 O338 1.247 . S
C336 O340 1.258 . S
C337 O344 1.247 . S
C337 O345 1.258 . S
O338 C336 1.247 . S
O338 Zn339 2.028 . S
Zn339 O338 2.028 . S
Zn339 O343 2.035 . S
Zn339 O345 2.035 . S
Zn339 O346 2.028 . S
O340 C336 1.258 . S
O340 Zn341 2.035 . S
Zn341 O340 2.035 . S
Zn341 O342 2.028 . S
Zn341 O344 2.028 . S
Zn341 O347 2.035 . S
O342 Zn341 2.028 . S
O342 C348 1.247 . S
O343 Zn339 2.035 . S
O343 C348 1.258 . S
O344 C337 1.247 . S
O344 Zn341 2.028 . S
O345 C337 1.258 . S
O345 Zn339 2.035 . S
O346 Zn339 2.028 . S
O346 C349 1.247 . S
O347 Zn341 2.035 . S
O347 C349 1.258 . S
C348 O342 1.247 . S
C348 O343 1.258 . S
C349 O346 1.247 . S
C349 O347 1.258 . S
C350 O352 1.247 . S
C350 O354 1.258 . S
C351 O358 1.247 . S
C351 O359 1.258 . S
O352 C350 1.247 . S
O352 Zn353 2.028 . S
Zn353 O352 2.028 . S
Zn353 O357 2.035 . S
Zn353 O359 2.035 . S
Zn353 O360 2.028 . S
O354 C350 1.258 . S
O354 Zn355 2.035 . S
Zn355 O354 2.035 . S
Zn355 O356 2.028 . S
Zn355 O358 2.028 . S
Zn355 O361 2.035 . S
O356 Zn355 2.028 . S
O356 C362 1.247 . S
O357 Zn353 2.035 . S
O357 C362 1.258 . S
O358 C351 1.247 . S
O358 Zn355 2.028 . S
O359 C351 1.258 . S
O359 Zn353 2.035 . S
O360 Zn353 2.028 . S
O360 C363 1.247 . S
O361 Zn355 2.035 . S
O361 C363 1.258 . S
C362 O356 1.247 . S
C362 O357 1.258 . S
C363 O360 1.247 . S
C363 O361 1.258 . S
C364 O366 1.247 . S
C364 O368 1.258 . S
C365 O372 1.247 . S
C365 O373 1.258 . S
O366 C364 1.247 . S
O366 Zn367 2.028 . S
Zn367 O366 2.028 . S
Zn367 O371 2.035 . S
Zn367 O373 2.035 . S
Zn367 O374 2.028 . S
O368 C364 1.258 . S
O368 Zn369 2.035 . S
Zn369 O368 2.035 . S
Zn369 O370 2.028 . S
Zn369 O372 2.028 . S
Zn369 O375 2.035 . S
O370 Zn369 2.028 . S
O370 C376 1.247 . S
O371 Zn367 2.035 . S
O371 C376 1.258 . S
O372 C365 1.247 . S
O372 Zn369 2.028 . S
O373 C365 1.258 . S
O373 Zn367 2.035 . S
O374 Zn367 2.028 . S
O374 C377 1.247 . S
O375 Zn369 2.035 . S
O375 C377 1.258 . S
C376 O370 1.247 . S
C376 O371 1.258 . S
C377 O374 1.247 . S
C377 O375 1.258 . S
C378 O380 1.247 . S
C378 O382 1.258 1_545 S
C379 O386 1.247 1_545 S
C379 O387 1.258 . S
O380 C378 1.247 . S
O380 Zn381 2.028 . S
Zn381 O380 2.028 . S
Zn381 O385 2.035 1_554 S
Zn381 O387 2.035 1_554 S
Zn381 O388 2.028 . S
O382 C378 1.258 1_565 S
O382 Zn383 2.035 1_554 S
Zn383 O382 2.035 1_556 S
Zn383 O384 2.028 . S
Zn383 O386 2.028 . S
Zn383 O389 2.035 1_556 S
O384 Zn383 2.028 . S
O384 C390 1.247 . S
O385 Zn381 2.035 1_556 S
O385 C390 1.258 1_545 S
O386 C379 1.247 1_565 S
O386 Zn383 2.028 . S
O387 C379 1.258 . S
O387 Zn381 2.035 1_556 S
O388 Zn381 2.028 . S
O388 C391 1.247 . S
O389 Zn383 2.035 1_554 S
O389 C391 1.258 1_565 S
C390 O384 1.247 . S
C390 O385 1.258 1_565 S
C391 O388 1.247 . S
C391 O389 1.258 1_545 S
C392 O394 1.247 . S
C392 O396 1.258 1_455 S
C393 O400 1.247 . S
C393 O401 1.258 1_655 S
O394 C392 1.247 . S
O394 Zn395 2.028 . S
Zn395 O394 2.028 . S
Zn395 O399 2.035 1_556 S
Zn395 O401 2.035 1_556 S
Zn395 O402 2.028 . S
O396 C392 1.258 1_655 S
O396 Zn397 2.035 1_556 S
Zn397 O396 2.035 1_554 S
Zn397 O398 2.028 . S
Zn397 O400 2.028 . S
Zn397 O403 2.035 1_554 S
O398 Zn397 2.028 . S
O398 C404 1.247 . S
O399 Zn395 2.035 1_554 S
O399 C404 1.258 1_455 S
O400 C393 1.247 . S
O400 Zn397 2.028 . S
O401 C393 1.258 1_455 S
O401 Zn395 2.035 1_554 S
O402 Zn395 2.028 . S
O402 C405 1.247 1_455 S
O403 Zn397 2.035 1_556 S
O403 C405 1.258 . S
C404 O398 1.247 . S
C404 O399 1.258 1_655 S
C405 O402 1.247 1_655 S
C405 O403 1.258 . S
C406 O408 1.247 . S
C406 O410 1.258 . S
C407 O414 1.247 . S
C407 O415 1.258 . S
O408 C406 1.247 . S
O408 Zn409 2.028 . S
Zn409 O408 2.028 . S
Zn409 O413 2.035 1_554 S
Zn409 O415 2.035 1_554 S
Zn409 O416 2.028 . S
O410 C406 1.258 . S
O410 Zn411 2.035 1_554 S
Zn411 O410 2.035 1_556 S
Zn411 O412 2.028 . S
Zn411 O414 2.028 . S
Zn411 O417 2.035 1_556 S
O412 Zn411 2.028 . S
O412 C418 1.247 . S
O413 Zn409 2.035 1_556 S
O413 C418 1.258 . S
O414 C407 1.247 . S
O414 Zn411 2.028 . S
O415 C407 1.258 . S
O415 Zn409 2.035 1_556 S
O416 Zn409 2.028 . S
O416 C419 1.247 . S
O417 Zn411 2.035 1_554 S
O417 C419 1.258 . S
C418 O412 1.247 . S
C418 O413 1.258 . S
C419 O416 1.247 . S
C419 O417 1.258 . S
C420 O422 1.247 1_655 S
C420 O424 1.258 . S
C421 O428 1.247 . S
C421 O429 1.258 1_655 S
O422 C420 1.247 1_455 S
O422 Zn423 2.028 . S
Zn423 O422 2.028 . S
Zn423 O427 2.035 . S
Zn423 O429 2.035 . S
Zn423 O430 2.028 . S
O424 C420 1.258 . S
O424 Zn425 2.035 . S
Zn425 O424 2.035 . S
Zn425 O426 2.028 . S
Zn425 O428 2.028 . S
Zn425 O431 2.035 . S
O426 Zn425 2.028 . S
O426 C432 1.247 1_655 S
O427 Zn423 2.035 . S
O427 C432 1.258 . S
O428 C421 1.247 . S
O428 Zn425 2.028 . S
O429 C421 1.258 1_455 S
O429 Zn423 2.035 . S
O430 Zn423 2.028 . S
O430 C433 1.247 1_455 S
O431 Zn425 2.035 . S
O431 C433 1.258 . S
C432 O426 1.247 1_455 S
C432 O427 1.258 . S
C433 O430 1.247 1_655 S
C433 O431 1.258 . S
C434 O436 1.247 . S
C434 O438 1.258 . S
C435 O442 1.247 . S
C435 O443 1.258 . S
O436 C434 1.247 . S
O436 Zn437 2.028 . S
Zn437 O436 2.028 . S
Zn437 O441 2.035 . S
Zn437 O443 2.035 . S
Zn437 O444 2.028 . S
O438 C434 1.258 . S
O438 Zn439 2.035 . S
Zn439 O438 2.035 . S
Zn439 O440 2.028 . S
Zn439 O442 2.028 . S
Zn439 O445 2.035 . S
O440 Zn439 2.028 . S
O440 C446 1.247 . S
O441 Zn437 2.035 . S
O441 C446 1.258 . S
O442 C435 1.247 . S
O442 Zn439 2.028 . S
O443 C435 1.258 . S
O443 Zn437 2.035 . S
O444 Zn437 2.028 . S
O444 C447 1.247 . S
O445 Zn439 2.035 . S
O445 C447 1.258 . S
C446 O440 1.247 . S
C446 O441 1.258 . S
C447 O444 1.247 . S
C447 O445 1.258 . S
C448 O450 1.247 . S
C448 O452 1.258 1_545 S
C449 O456 1.247 . S
C449 O457 1.258 1_565 S
O450 C448 1.247 . S
O450 Zn451 2.028 . S
Zn451 O450 2.028 . S
Zn451 O455 2.035 . S
Zn451 O457 2.035 . S
Zn451 O458 2.028 . S
O452 C448 1.258 1_565 S
O452 Zn453 2.035 . S
Zn453 O452 2.035 . S
Zn453 O454 2.028 . S
Zn453 O456 2.028 . S
Zn453 O459 2.035 . S
O454 Zn453 2.028 . S
O454 C460 1.247 1_565 S
O455 Zn451 2.035 . S
O455 C460 1.258 . S
O456 C449 1.247 . S
O456 Zn453 2.028 . S
O457 C449 1.258 1_545 S
O457 Zn451 2.035 . S
O458 Zn451 2.028 . S
O458 C461 1.247 . S
O459 Zn453 2.035 . S
O459 C461 1.258 1_565 S
C460 O454 1.247 1_545 S
C460 O455 1.258 . S
C461 O458 1.247 . S
C461 O459 1.258 1_545 S
C462 O464 1.247 . S
C462 O466 1.258 . S
C463 O470 1.247 . S
C463 O471 1.258 . S
O464 C462 1.247 . S
O464 Zn465 2.028 . S
Zn465 O464 2.028 . S
Zn465 O469 2.035 . S
Zn465 O471 2.035 . S
Zn465 O472 2.028 . S
O466 C462 1.258 . S
O466 Zn467 2.035 . S
Zn467 O466 2.035 . S
Zn467 O468 2.028 . S
Zn467 O470 2.028 . S
Zn467 O473 2.035 . S
O468 Zn467 2.028 . S
O468 C474 1.247 . S
O469 Zn465 2.035 . S
O469 C474 1.258 . S
O470 C463 1.247 . S
O470 Zn467 2.028 . S
O471 C463 1.258 . S
O471 Zn465 2.035 . S
O472 Zn465 2.028 . S
O472 C475 1.247 . S
O473 Zn467 2.035 . S
O473 C475 1.258 . S
C474 O468 1.247 . S
C474 O469 1.258 . S
C475 O472 1.247 . S
C475 O473 1.258 . S
C476 O478 1.247 . S
C476 O480 1.258 . S
C477 O484 1.247 . S
C477 O485 1.258 . S
O478 C476 1.247 . S
O478 Zn479 2.028 . S
Zn479 O478 2.028 . S
Zn479 O483 2.035 . S
Zn479 O485 2.035 . S
Zn479 O486 2.028 . S
O480 C476 1.258 . S
O480 Zn481 2.035 . S
Zn481 O480 2.035 . S
Zn481 O482 2.028 . S
Zn481 O484 2.028 . S
Zn481 O487 2.035 . S
O482 Zn481 2.028 . S
O482 C488 1.247 . S
O483 Zn479 2.035 . S
O483 C488 1.258 . S
O484 C477 1.247 . S
O484 Zn481 2.028 . S
O485 C477 1.258 . S
O485 Zn479 2.035 . S
O486 Zn479 2.028 . S
O486 C489 1.247 . S
O487 Zn481 2.035 . S
O487 C489 1.258 . S
C488 O482 1.247 . S
C488 O483 1.258 . S
C489 O486 1.247 . S
C489 O487 1.258 . S
C490 O492 1.247 . S
C490 O494 1.258 . S
C491 O498 1.247 . S
C491 O499 1.258 . S
O492 C490 1.247 . S
O492 Zn493 2.028 . S
Zn493 O492 2.028 . S
Zn493 O497 2.035 . S
Zn493 O499 2.035 . S
Zn493 O500 2.028 . S
O494 C490 1.258 . S
O494 Zn495 2.035 . S
Zn495 O494 2.035 . S
Zn495 O496 2.028 . S
Zn495 O498 2.028 . S
Zn495 O501 2.035 . S
O496 Zn495 2.028 . S
O496 C502 1.247 . S
O497 Zn493 2.035 . S
O497 C502 1.258 . S
O498 C491 1.247 . S
O498 Zn495 2.028 . S
O499 C491 1.258 . S
O499 Zn493 2.035 . S
O500 Zn493 2.028 . S
O500 C503 1.247 . S
O501 Zn495 2.035 . S
O501 C503 1.258 . S
C502 O496 1.247 . S
C502 O497 1.258 . S
C503 O500 1.247 . S
C503 O501 1.258 . S
C504 C505 1.369 . S
C504 C506 1.419 . S
C504 H508 0.930 . S
C505 C504 1.369 . S
C505 C514 1.429 . S
C506 C504 1.419 . S
C506 C507 1.363 . S
C506 H509 0.929 . S
C507 C506 1.363 . S
C507 C513 1.428 . S
H508 C504 0.930 . S
H509 C506 0.929 . S
S510 N511 1.613 . S
S510 N512 1.610 . S
N511 S510 1.613 . S
N511 C514 1.350 . S
N512 S510 1.610 . S
N512 C513 1.351 . S
C513 C507 1.428 . S
C513 N512 1.351 . S
C513 C514 1.434 . S
C514 C505 1.429 . S
C514 N511 1.350 . S
C514 C513 1.434 . S
C515 C516 1.369 . S
C515 C517 1.419 . S
C515 H519 0.930 . S
C516 C515 1.369 . S
C516 C525 1.429 . S
C517 C515 1.419 . S
C517 C518 1.363 . S
C517 H520 0.929 . S
C518 C517 1.363 . S
C518 C524 1.428 . S
H519 C515 0.930 . S
H520 C517 0.929 . S
S521 N522 1.613 . S
S521 N523 1.610 . S
N522 S521 1.613 . S
N522 C525 1.350 . S
N523 S521 1.610 . S
N523 C524 1.351 . S
C524 C518 1.428 . S
C524 N523 1.351 . S
C524 C525 1.434 . S
C525 C516 1.429 . S
C525 N522 1.350 . S
C525 C524 1.434 . S
C526 C527 1.369 . S
C526 C528 1.419 . S
C526 H530 0.930 . S
C527 C526 1.369 . S
C527 C536 1.429 . S
C528 C526 1.419 . S
C528 C529 1.363 . S
C528 H531 0.929 . S
C529 C528 1.363 . S
C529 C535 1.428 . S
H530 C526 0.930 . S
H531 C528 0.929 . S
S532 N533 1.613 . S
S532 N534 1.610 . S
N533 S532 1.613 . S
N533 C536 1.350 . S
N534 S532 1.610 . S
N534 C535 1.351 . S
C535 C529 1.428 . S
C535 N534 1.351 . S
C535 C536 1.434 . S
C536 C527 1.429 . S
C536 N533 1.350 . S
C536 C535 1.434 . S
C537 C538 1.369 . S
C537 C539 1.419 . S
C537 H541 0.930 . S
C538 C537 1.369 . S
C538 C547 1.429 . S
C539 C537 1.419 . S
C539 C540 1.363 . S
C539 H542 0.929 . S
C540 C539 1.363 . S
C540 C546 1.428 . S
H541 C537 0.930 . S
H542 C539 0.929 . S
S543 N544 1.613 . S
S543 N545 1.610 . S
N544 S543 1.613 . S
N544 C547 1.350 . S
N545 S543 1.610 . S
N545 C546 1.351 . S
C546 C540 1.428 . S
C546 N545 1.351 . S
C546 C547 1.434 . S
C547 C538 1.429 . S
C547 N544 1.350 . S
C547 C546 1.434 . S
C548 C549 1.369 . S
C548 C550 1.419 . S
C548 H552 0.930 . S
C549 C548 1.369 . S
C549 C558 1.429 . S
C550 C548 1.419 . S
C550 C551 1.363 . S
C550 H553 0.929 . S
C551 C550 1.363 . S
C551 C557 1.428 . S
H552 C548 0.930 . S
H553 C550 0.929 . S
S554 N555 1.613 . S
S554 N556 1.610 . S
N555 S554 1.613 . S
N555 C558 1.350 . S
N556 S554 1.610 . S
N556 C557 1.351 . S
C557 C551 1.428 . S
C557 N556 1.351 . S
C557 C558 1.434 . S
C558 C549 1.429 . S
C558 N555 1.350 . S
C558 C557 1.434 . S
C559 C560 1.369 . S
C559 C561 1.419 . S
C559 H563 0.930 . S
C560 C559 1.369 . S
C560 C569 1.429 . S
C561 C559 1.419 . S
C561 C562 1.363 . S
C561 H564 0.929 . S
C562 C561 1.363 . S
C562 C568 1.428 . S
H563 C559 0.930 . S
H564 C561 0.929 . S
S565 N566 1.613 . S
S565 N567 1.610 . S
N566 S565 1.613 . S
N566 C569 1.350 . S
N567 S565 1.610 . S
N567 C568 1.351 . S
C568 C562 1.428 . S
C568 N567 1.351 . S
C568 C569 1.434 . S
C569 C560 1.429 . S
C569 N566 1.350 . S
C569 C568 1.434 . S
C570 C571 1.369 . S
C570 C572 1.419 . S
C570 H574 0.930 . S
C571 C570 1.369 . S
C571 C580 1.429 . S
C572 C570 1.419 . S
C572 C573 1.363 . S
C572 H575 0.929 . S
C573 C572 1.363 . S
C573 C579 1.428 . S
H574 C570 0.930 . S
H575 C572 0.929 . S
S576 N577 1.613 . S
S576 N578 1.610 . S
N577 S576 1.613 . S
N577 C580 1.350 . S
N578 S576 1.610 . S
N578 C579 1.351 . S
C579 C573 1.428 . S
C579 N578 1.351 . S
C579 C580 1.434 . S
C580 C571 1.429 . S
C580 N577 1.350 . S
C580 C579 1.434 . S
C581 C582 1.369 . S
C581 C583 1.419 . S
C581 H585 0.930 . S
C582 C581 1.369 . S
C582 C591 1.429 . S
C583 C581 1.419 . S
C583 C584 1.363 . S
C583 H586 0.929 . S
C584 C583 1.363 . S
C584 C590 1.428 . S
H585 C581 0.930 . S
H586 C583 0.929 . S
S587 N588 1.613 . S
S587 N589 1.610 . S
N588 S587 1.613 . S
N588 C591 1.350 . S
N589 S587 1.610 . S
N589 C590 1.351 . S
C590 C584 1.428 . S
C590 N589 1.351 . S
C590 C591 1.434 . S
C591 C582 1.429 . S
C591 N588 1.350 . S
C591 C590 1.434 . S
C592 C593 1.369 . S
C592 C594 1.419 . S
C592 H596 0.930 . S
C593 C592 1.369 . S
C593 C602 1.429 . S
C594 C592 1.419 . S
C594 C595 1.363 . S
C594 H597 0.929 . S
C595 C594 1.363 . S
C595 C601 1.428 . S
H596 C592 0.930 . S
H597 C594 0.929 . S
S598 N599 1.613 . S
S598 N600 1.610 . S
N599 S598 1.613 . S
N599 C602 1.350 . S
N600 S598 1.610 . S
N600 C601 1.351 . S
C601 C595 1.428 . S
C601 N600 1.351 . S
C601 C602 1.434 . S
C602 C593 1.429 . S
C602 N599 1.350 . S
C602 C601 1.434 . S
C603 C604 1.369 . S
C603 C605 1.419 . S
C603 H607 0.930 . S
C604 C603 1.369 . S
C604 C613 1.429 . S
C605 C603 1.419 . S
C605 C606 1.363 . S
C605 H608 0.929 . S
C606 C605 1.363 . S
C606 C612 1.428 . S
H607 C603 0.930 . S
H608 C605 0.929 . S
S609 N610 1.613 . S
S609 N611 1.610 . S
N610 S609 1.613 . S
N610 C613 1.350 . S
N611 S609 1.610 . S
N611 C612 1.351 . S
C612 C606 1.428 . S
C612 N611 1.351 . S
C612 C613 1.434 . S
C613 C604 1.429 . S
C613 N610 1.350 . S
C613 C612 1.434 . S
C614 C615 1.369 . S
C614 C616 1.419 . S
C614 H618 0.930 . S
C615 C614 1.369 . S
C615 C624 1.429 . S
C616 C614 1.419 . S
C616 C617 1.363 . S
C616 H619 0.929 . S
C617 C616 1.363 . S
C617 C623 1.428 . S
H618 C614 0.930 . S
H619 C616 0.929 . S
S620 N621 1.613 . S
S620 N622 1.610 . S
N621 S620 1.613 . S
N621 C624 1.350 . S
N622 S620 1.610 . S
N622 C623 1.351 . S
C623 C617 1.428 . S
C623 N622 1.351 . S
C623 C624 1.434 . S
C624 C615 1.429 . S
C624 N621 1.350 . S
C624 C623 1.434 . S
C625 C626 1.369 . S
C625 C627 1.419 . S
C625 H629 0.930 . S
C626 C625 1.369 . S
C626 C635 1.429 . S
C627 C625 1.419 . S
C627 C628 1.363 . S
C627 H630 0.929 . S
C628 C627 1.363 . S
C628 C634 1.428 . S
H629 C625 0.930 . S
H630 C627 0.929 . S
S631 N632 1.613 . S
S631 N633 1.610 . S
N632 S631 1.613 . S
N632 C635 1.350 . S
N633 S631 1.610 . S
N633 C634 1.351 . S
C634 C628 1.428 . S
C634 N633 1.351 . S
C634 C635 1.434 . S
C635 C626 1.429 . S
C635 N632 1.350 . S
C635 C634 1.434 . S
C636 C637 1.369 . S
C636 C638 1.419 . S
C636 H640 0.930 . S
C637 C636 1.369 . S
C637 C646 1.429 1_655 S
C638 C636 1.419 . S
C638 C639 1.363 1_655 S
C638 H641 0.929 . S
C639 C638 1.363 1_455 S
C639 C645 1.428 . S
H640 C636 0.930 . S
H641 C638 0.929 . S
S642 N643 1.613 . S
S642 N644 1.610 . S
N643 S642 1.613 . S
N643 C646 1.350 . S
N644 S642 1.610 . S
N644 C645 1.351 . S
C645 C639 1.428 . S
C645 N644 1.351 . S
C645 C646 1.434 . S
C646 C637 1.429 1_455 S
C646 N643 1.350 . S
C646 C645 1.434 . S
C647 C648 1.369 . S
C647 C649 1.419 . S
C647 H651 0.930 . S
C648 C647 1.369 . S
C648 C657 1.429 . S
C649 C647 1.419 . S
C649 C650 1.363 . S
C649 H652 0.929 . S
C650 C649 1.363 . S
C650 C656 1.428 . S
H651 C647 0.930 . S
H652 C649 0.929 . S
S653 N654 1.613 . S
S653 N655 1.610 . S
N654 S653 1.613 . S
N654 C657 1.350 . S
N655 S653 1.610 . S
N655 C656 1.351 . S
C656 C650 1.428 . S
C656 N655 1.351 . S
C656 C657 1.434 . S
C657 C648 1.429 . S
C657 N654 1.350 . S
C657 C656 1.434 . S
C658 C659 1.369 1_565 S
C658 C660 1.419 . S
C658 H662 0.930 . S
C659 C658 1.369 1_545 S
C659 C668 1.429 . S
C660 C658 1.419 . S
C660 C661 1.363 . S
C660 H663 0.929 . S
C661 C660 1.363 . S
C661 C667 1.428 1_565 S
H662 C658 0.930 . S
H663 C660 0.929 . S
S664 N665 1.613 . S
S664 N666 1.610 . S
N665 S664 1.613 . S
N665 C668 1.350 . S
N666 S664 1.610 . S
N666 C667 1.351 . S
C667 C661 1.428 1_545 S
C667 N666 1.351 . S
C667 C668 1.434 . S
C668 C659 1.429 . S
C668 N665 1.350 . S
C668 C667 1.434 . S
C669 C670 1.369 1_565 S
C669 C671 1.419 . S
C669 H673 0.930 . S
C670 C669 1.369 1_545 S
C670 C679 1.429 . S
C671 C669 1.419 . S
C671 C672 1.363 . S
C671 H674 0.929 . S
C672 C671 1.363 . S
C672 C678 1.428 1_565 S
H673 C669 0.930 . S
H674 C671 0.929 . S
S675 N676 1.613 . S
S675 N677 1.610 . S
N676 S675 1.613 . S
N676 C679 1.350 . S
N677 S675 1.610 . S
N677 C678 1.351 . S
C678 C672 1.428 1_545 S
C678 N677 1.351 . S
C678 C679 1.434 . S
C679 C670 1.429 . S
C679 N676 1.350 . S
C679 C678 1.434 . S
C680 C681 1.369 1_455 S
C680 C682 1.419 . S
C680 H684 0.930 . S
C681 C680 1.369 1_655 S
C681 C690 1.429 . S
C682 C680 1.419 . S
C682 C683 1.363 . S
C682 H685 0.929 . S
C683 C682 1.363 . S
C683 C689 1.428 1_455 S
H684 C680 0.930 . S
H685 C682 0.929 . S
S686 N687 1.613 . S
S686 N688 1.610 . S
N687 S686 1.613 . S
N687 C690 1.350 . S
N688 S686 1.610 . S
N688 C689 1.351 . S
C689 C683 1.428 1_655 S
C689 N688 1.351 . S
C689 C690 1.434 . S
C690 C681 1.429 . S
C690 N687 1.350 . S
C690 C689 1.434 . S
C691 C692 1.369 . S
C691 C693 1.419 . S
C691 H695 0.930 . S
C692 C691 1.369 . S
C692 C701 1.429 . S
C693 C691 1.419 . S
C693 C694 1.363 . S
C693 H696 0.929 . S
C694 C693 1.363 . S
C694 C700 1.428 . S
H695 C691 0.930 . S
H696 C693 0.929 . S
S697 N698 1.613 . S
S697 N699 1.610 . S
N698 S697 1.613 . S
N698 C701 1.350 . S
N699 S697 1.610 . S
N699 C700 1.351 . S
C700 C694 1.428 . S
C700 N699 1.351 . S
C700 C701 1.434 . S
C701 C692 1.429 . S
C701 N698 1.350 . S
C701 C700 1.434 . S
C702 C703 1.369 . S
C702 C704 1.419 . S
C702 H706 0.930 . S
C703 C702 1.369 . S
C703 C712 1.429 . S
C704 C702 1.419 . S
C704 C705 1.363 . S
C704 H707 0.929 . S
C705 C704 1.363 . S
C705 C711 1.428 . S
H706 C702 0.930 . S
H707 C704 0.929 . S
S708 N709 1.613 . S
S708 N710 1.610 . S
N709 S708 1.613 . S
N709 C712 1.350 . S
N710 S708 1.610 . S
N710 C711 1.351 . S
C711 C705 1.428 . S
C711 N710 1.351 . S
C711 C712 1.434 . S
C712 C703 1.429 . S
C712 N709 1.350 . S
C712 C711 1.434 . S
C713 C714 1.369 . S
C713 C715 1.419 . S
C713 H717 0.930 . S
C714 C713 1.369 . S
C714 C723 1.429 . S
C715 C713 1.419 . S
C715 C716 1.363 . S
C715 H718 0.929 . S
C716 C715 1.363 . S
C716 C722 1.428 . S
H717 C713 0.930 . S
H718 C715 0.929 . S
S719 N720 1.613 . S
S719 N721 1.610 . S
N720 S719 1.613 . S
N720 C723 1.350 . S
N721 S719 1.610 . S
N721 C722 1.351 . S
C722 C716 1.428 . S
C722 N721 1.351 . S
C722 C723 1.434 . S
C723 C714 1.429 . S
C723 N720 1.350 . S
C723 C722 1.434 . S
C724 C725 1.369 . S
C724 C726 1.419 . S
C724 H728 0.930 . S
C725 C724 1.369 . S
C725 C734 1.429 . S
C726 C724 1.419 . S
C726 C727 1.363 . S
C726 H729 0.929 . S
C727 C726 1.363 . S
C727 C733 1.428 . S
H728 C724 0.930 . S
H729 C726 0.929 . S
S730 N731 1.613 . S
S730 N732 1.610 . S
N731 S730 1.613 . S
N731 C734 1.350 . S
N732 S730 1.610 . S
N732 C733 1.351 . S
C733 C727 1.428 . S
C733 N732 1.351 . S
C733 C734 1.434 . S
C734 C725 1.429 . S
C734 N731 1.350 . S
C734 C733 1.434 . S
C735 C736 1.369 . S
C735 C737 1.419 . S
C735 H739 0.930 . S
C736 C735 1.369 . S
C736 C745 1.429 . S
C737 C735 1.419 . S
C737 C738 1.363 . S
C737 H740 0.929 . S
C738 C737 1.363 . S
C738 C744 1.428 . S
H739 C735 0.930 . S
H740 C737 0.929 . S
S741 N742 1.613 . S
S741 N743 1.610 . S
N742 S741 1.613 . S
N742 C745 1.350 . S
N743 S741 1.610 . S
N743 C744 1.351 . S
C744 C738 1.428 . S
C744 N743 1.351 . S
C744 C745 1.434 . S
C745 C736 1.429 . S
C745 N742 1.350 . S
C745 C744 1.434 . S
C746 C747 1.369 . S
C746 C748 1.419 . S
C746 H750 0.930 . S
C747 C746 1.369 . S
C747 C756 1.429 . S
C748 C746 1.419 . S
C748 C749 1.363 . S
C748 H751 0.929 . S
C749 C748 1.363 . S
C749 C755 1.428 . S
H750 C746 0.930 . S
H751 C748 0.929 . S
S752 N753 1.613 . S
S752 N754 1.610 . S
N753 S752 1.613 . S
N753 C756 1.350 . S
N754 S752 1.610 . S
N754 C755 1.351 . S
C755 C749 1.428 . S
C755 N754 1.351 . S
C755 C756 1.434 . S
C756 C747 1.429 . S
C756 N753 1.350 . S
C756 C755 1.434 . S
C757 C758 1.369 . S
C757 C759 1.419 . S
C757 H761 0.930 . S
C758 C757 1.369 . S
C758 C767 1.429 . S
C759 C757 1.419 . S
C759 C760 1.363 . S
C759 H762 0.929 . S
C760 C759 1.363 . S
C760 C766 1.428 . S
H761 C757 0.930 . S
H762 C759 0.929 . S
S763 N764 1.613 . S
S763 N765 1.610 . S
N764 S763 1.613 . S
N764 C767 1.350 . S
N765 S763 1.610 . S
N765 C766 1.351 . S
C766 C760 1.428 . S
C766 N765 1.351 . S
C766 C767 1.434 . S
C767 C758 1.429 . S
C767 N764 1.350 . S
C767 C766 1.434 . S
C768 C769 1.369 . S
C768 C770 1.419 . S
C768 H772 0.930 . S
C769 C768 1.369 . S
C769 C778 1.429 . S
C770 C768 1.419 . S
C770 C771 1.363 . S
C770 H773 0.929 . S
C771 C770 1.363 . S
C771 C777 1.428 . S
H772 C768 0.930 . S
H773 C770 0.929 . S
S774 N775 1.613 . S
S774 N776 1.610 . S
N775 S774 1.613 . S
N775 C778 1.350 . S
N776 S774 1.610 . S
N776 C777 1.351 . S
C777 C771 1.428 . S
C777 N776 1.351 . S
C777 C778 1.434 . S
C778 C769 1.429 . S
C778 N775 1.350 . S
C778 C777 1.434 . S
C779 C780 1.369 . S
C779 C781 1.419 . S
C779 H783 0.930 . S
C780 C779 1.369 . S
C780 C789 1.429 . S
C781 C779 1.419 . S
C781 C782 1.363 . S
C781 H784 0.929 . S
C782 C781 1.363 . S
C782 C788 1.428 . S
H783 C779 0.930 . S
H784 C781 0.929 . S
S785 N786 1.613 . S
S785 N787 1.610 . S
N786 S785 1.613 . S
N786 C789 1.350 . S
N787 S785 1.610 . S
N787 C788 1.351 . S
C788 C782 1.428 . S
C788 N787 1.351 . S
C788 C789 1.434 . S
C789 C780 1.429 . S
C789 N786 1.350 . S
C789 C788 1.434 . S
C790 C791 1.369 . S
C790 C792 1.419 . S
C790 H794 0.930 . S
C791 C790 1.369 . S
C791 C800 1.429 . S
C792 C790 1.419 . S
C792 C793 1.363 . S
C792 H795 0.929 . S
C793 C792 1.363 . S
C793 C799 1.428 . S
H794 C790 0.930 . S
H795 C792 0.929 . S
S796 N797 1.613 . S
S796 N798 1.610 . S
N797 S796 1.613 . S
N797 C800 1.350 . S
N798 S796 1.610 . S
N798 C799 1.351 . S
C799 C793 1.428 . S
C799 N798 1.351 . S
C799 C800 1.434 . S
C800 C791 1.429 . S
C800 N797 1.350 . S
C800 C799 1.434 . S
C801 C802 1.369 . S
C801 C803 1.419 . S
C801 H805 0.930 . S
C802 C801 1.369 . S
C802 C811 1.429 . S
C803 C801 1.419 . S
C803 C804 1.363 . S
C803 H806 0.929 . S
C804 C803 1.363 . S
C804 C810 1.428 . S
H805 C801 0.930 . S
H806 C803 0.929 . S
S807 N808 1.613 . S
S807 N809 1.610 . S
N808 S807 1.613 . S
N808 C811 1.350 . S
N809 S807 1.610 . S
N809 C810 1.351 . S
C810 C804 1.428 . S
C810 N809 1.351 . S
C810 C811 1.434 . S
C811 C802 1.429 . S
C811 N808 1.350 . S
C811 C810 1.434 . S
C812 C813 1.369 . S
C812 C814 1.419 . S
C812 H816 0.930 . S
C813 C812 1.369 . S
C813 C822 1.429 . S
C814 C812 1.419 . S
C814 C815 1.363 . S
C814 H817 0.929 . S
C815 C814 1.363 . S
C815 C821 1.428 . S
H816 C812 0.930 . S
H817 C814 0.929 . S
S818 N819 1.613 . S
S818 N820 1.610 . S
N819 S818 1.613 . S
N819 C822 1.350 . S
N820 S818 1.610 . S
N820 C821 1.351 . S
C821 C815 1.428 . S
C821 N820 1.351 . S
C821 C822 1.434 . S
C822 C813 1.429 . S
C822 N819 1.350 . S
C822 C821 1.434 . S
C823 C824 1.369 . S
C823 C825 1.419 . S
C823 H827 0.930 . S
C824 C823 1.369 . S
C824 C833 1.429 . S
C825 C823 1.419 . S
C825 C826 1.363 . S
C825 H828 0.929 . S
C826 C825 1.363 . S
C826 C832 1.428 . S
H827 C823 0.930 . S
H828 C825 0.929 . S
S829 N830 1.613 . S
S829 N831 1.610 . S
N830 S829 1.613 . S
N830 C833 1.350 . S
N831 S829 1.610 . S
N831 C832 1.351 . S
C832 C826 1.428 . S
C832 N831 1.351 . S
C832 C833 1.434 . S
C833 C824 1.429 . S
C833 N830 1.350 . S
C833 C832 1.434 . S
C834 C835 1.369 . S
C834 C836 1.419 . S
C834 H838 0.930 . S
C835 C834 1.369 . S
C835 C844 1.429 1_655 S
C836 C834 1.419 . S
C836 C837 1.363 1_655 S
C836 H839 0.929 . S
C837 C836 1.363 1_455 S
C837 C843 1.428 . S
H838 C834 0.930 . S
H839 C836 0.929 . S
S840 N841 1.613 . S
S840 N842 1.610 . S
N841 S840 1.613 . S
N841 C844 1.350 . S
N842 S840 1.610 . S
N842 C843 1.351 . S
C843 C837 1.428 . S
C843 N842 1.351 . S
C843 C844 1.434 . S
C844 C835 1.429 1_455 S
C844 N841 1.350 . S
C844 C843 1.434 . S
C845 C846 1.369 . S
C845 C847 1.419 . S
C845 H849 0.930 . S
C846 C845 1.369 . S
C846 C855 1.429 . S
C847 C845 1.419 . S
C847 C848 1.363 . S
C847 H850 0.929 . S
C848 C847 1.363 . S
C848 C854 1.428 . S
H849 C845 0.930 . S
H850 C847 0.929 . S
S851 N852 1.613 . S
S851 N853 1.610 . S
N852 S851 1.613 . S
N852 C855 1.350 . S
N853 S851 1.610 . S
N853 C854 1.351 . S
C854 C848 1.428 . S
C854 N853 1.351 . S
C854 C855 1.434 . S
C855 C846 1.429 . S
C855 N852 1.350 . S
C855 C854 1.434 . S
C856 C857 1.369 . S
C856 C858 1.419 . S
C856 H860 0.930 . S
C857 C856 1.369 . S
C857 C866 1.429 1_565 S
C858 C856 1.419 . S
C858 C859 1.363 1_565 S
C858 H861 0.929 . S
C859 C858 1.363 1_545 S
C859 C865 1.428 . S
H860 C856 0.930 . S
H861 C858 0.929 . S
S862 N863 1.613 . S
S862 N864 1.610 . S
N863 S862 1.613 . S
N863 C866 1.350 . S
N864 S862 1.610 . S
N864 C865 1.351 . S
C865 C859 1.428 . S
C865 N864 1.351 . S
C865 C866 1.434 . S
C866 C857 1.429 1_545 S
C866 N863 1.350 . S
C866 C865 1.434 . S
C867 C868 1.369 . S
C867 C869 1.419 . S
C867 H871 0.930 . S
C868 C867 1.369 . S
C868 C877 1.429 1_566 S
C869 C867 1.419 . S
C869 C870 1.363 1_566 S
C869 H872 0.929 . S
C870 C869 1.363 1_544 S
C870 C876 1.428 . S
H871 C867 0.930 . S
H872 C869 0.929 . S
S873 N874 1.613 . S
S873 N875 1.610 . S
N874 S873 1.613 . S
N874 C877 1.350 . S
N875 S873 1.610 . S
N875 C876 1.351 . S
C876 C870 1.428 . S
C876 N875 1.351 . S
C876 C877 1.434 . S
C877 C868 1.429 1_544 S
C877 N874 1.350 . S
C877 C876 1.434 . S
C878 C879 1.369 1_456 S
C878 C880 1.419 . S
C878 H882 0.930 . S
C879 C878 1.369 1_654 S
C879 C888 1.429 . S
C880 C878 1.419 . S
C880 C881 1.363 . S
C880 H883 0.929 . S
C881 C880 1.363 . S
C881 C887 1.428 1_456 S
H882 C878 0.930 . S
H883 C880 0.929 . S
S884 N885 1.613 . S
S884 N886 1.610 . S
N885 S884 1.613 . S
N885 C888 1.350 . S
N886 S884 1.610 . S
N886 C887 1.351 . S
C887 C881 1.428 1_654 S
C887 N886 1.351 . S
C887 C888 1.434 . S
C888 C879 1.429 . S
C888 N885 1.350 . S
C888 C887 1.434 . S
C889 C890 1.369 1_556 S
C889 C891 1.419 . S
C889 H893 0.930 . S
C890 C889 1.369 1_554 S
C890 C899 1.429 . S
C891 C889 1.419 . S
C891 C892 1.363 . S
C891 H894 0.929 . S
C892 C891 1.363 . S
C892 C898 1.428 1_556 S
H893 C889 0.930 . S
H894 C891 0.929 . S
S895 N896 1.613 . S
S895 N897 1.610 . S
N896 S895 1.613 . S
N896 C899 1.350 . S
N897 S895 1.610 . S
N897 C898 1.351 . S
C898 C892 1.428 1_554 S
C898 N897 1.351 . S
C898 C899 1.434 . S
C899 C890 1.429 . S
C899 N896 1.350 . S
C899 C898 1.434 . S
C900 C901 1.369 . S
C900 C902 1.419 . S
C900 H904 0.930 . S
C901 C900 1.369 . S
C901 C910 1.429 . S
C902 C900 1.419 . S
C902 C903 1.363 . S
C902 H905 0.929 . S
C903 C902 1.363 . S
C903 C909 1.428 . S
H904 C900 0.930 . S
H905 C902 0.929 . S
S906 N907 1.613 . S
S906 N908 1.610 1_556 S
N907 S906 1.613 . S
N907 C910 1.350 1_556 S
N908 S906 1.610 1_554 S
N908 C909 1.351 . S
C909 C903 1.428 . S
C909 N908 1.351 . S
C909 C910 1.434 . S
C910 C901 1.429 . S
C910 N907 1.350 1_554 S
C910 C909 1.434 . S
C911 C912 1.369 . S
C911 C913 1.419 . S
C911 H915 0.930 . S
C912 C911 1.369 . S
C912 C921 1.429 . S
C913 C911 1.419 . S
C913 C914 1.363 . S
C913 H916 0.929 . S
C914 C913 1.363 . S
C914 C920 1.428 . S
H915 C911 0.930 . S
H916 C913 0.929 . S
S917 N918 1.613 1_455 S
S917 N919 1.610 . S
N918 S917 1.613 1_655 S
N918 C921 1.350 . S
N919 S917 1.610 . S
N919 C920 1.351 1_455 S
C920 C914 1.428 . S
C920 N919 1.351 1_655 S
C920 C921 1.434 . S
C921 C912 1.429 . S
C921 N918 1.350 . S
C921 C920 1.434 . S
C922 C923 1.369 . S
C922 C924 1.419 . S
C922 H926 0.930 . S
C923 C922 1.369 . S
C923 C932 1.429 . S
C924 C922 1.419 . S
C924 C925 1.363 . S
C924 H927 0.929 1_554 S
C925 C924 1.363 . S
C925 C931 1.428 . S
H926 C922 0.930 . S
H927 C924 0.929 1_556 S
S928 N929 1.613 . S
S928 N930 1.610 . S
N929 S928 1.613 . S
N929 C932 1.350 . S
N930 S928 1.610 . S
N930 C931 1.351 . S
C931 C925 1.428 . S
C931 N930 1.351 . S
C931 C932 1.434 . S
C932 C923 1.429 . S
C932 N929 1.350 . S
C932 C931 1.434 . S
C933 C934 1.369 . S
C933 C935 1.419 . S
C933 H937 0.930 . S
C934 C933 1.369 . S
C934 C943 1.429 . S
C935 C933 1.419 . S
C935 C936 1.363 . S
C935 H938 0.929 . S
C936 C935 1.363 . S
C936 C942 1.428 . S
H937 C933 0.930 . S
H938 C935 0.929 . S
S939 N940 1.613 . S
S939 N941 1.610 . S
N940 S939 1.613 . S
N940 C943 1.350 . S
N941 S939 1.610 . S
N941 C942 1.351 . S
C942 C936 1.428 . S
C942 N941 1.351 . S
C942 C943 1.434 . S
C943 C934 1.429 . S
C943 N940 1.350 . S
C943 C942 1.434 . S
C944 C945 1.369 . S
C944 C946 1.419 . S
C944 H948 0.930 . S
C945 C944 1.369 . S
C945 C954 1.429 . S
C946 C944 1.419 . S
C946 C947 1.363 . S
C946 H949 0.929 . S
C947 C946 1.363 . S
C947 C953 1.428 . S
H948 C944 0.930 . S
H949 C946 0.929 . S
S950 N951 1.613 . S
S950 N952 1.610 . S
N951 S950 1.613 . S
N951 C954 1.350 . S
N952 S950 1.610 . S
N952 C953 1.351 . S
C953 C947 1.428 . S
C953 N952 1.351 . S
C953 C954 1.434 . S
C954 C945 1.429 . S
C954 N951 1.350 . S
C954 C953 1.434 . S
C955 C956 1.369 . S
C955 C957 1.419 . S
C955 H959 0.930 . S
C956 C955 1.369 . S
C956 C965 1.429 . S
C957 C955 1.419 . S
C957 C958 1.363 . S
C957 H960 0.929 . S
C958 C957 1.363 . S
C958 C964 1.428 . S
H959 C955 0.930 . S
H960 C957 0.929 . S
S961 N962 1.613 . S
S961 N963 1.610 . S
N962 S961 1.613 . S
N962 C965 1.350 . S
N963 S961 1.610 . S
N963 C964 1.351 . S
C964 C958 1.428 . S
C964 N963 1.351 . S
C964 C965 1.434 . S
C965 C956 1.429 . S
C965 N962 1.350 . S
C965 C964 1.434 . S
C966 C967 1.369 . S
C966 C968 1.419 . S
C966 H970 0.930 1_556 S
C967 C966 1.369 . S
C967 C976 1.429 . S
C968 C966 1.419 . S
C968 C969 1.363 . S
C968 H971 0.929 . S
C969 C968 1.363 . S
C969 C975 1.428 . S
H970 C966 0.930 1_554 S
H971 C968 0.929 . S
S972 N973 1.613 . S
S972 N974 1.610 . S
N973 S972 1.613 . S
N973 C976 1.350 . S
N974 S972 1.610 . S
N974 C975 1.351 . S
C975 C969 1.428 . S
C975 N974 1.351 . S
C975 C976 1.434 . S
C976 C967 1.429 . S
C976 N973 1.350 . S
C976 C975 1.434 . S
C977 C978 1.369 . S
C977 C979 1.419 . S
C977 H981 0.930 . S
C978 C977 1.369 . S
C978 C987 1.429 . S
C979 C977 1.419 . S
C979 C980 1.363 . S
C979 H982 0.929 . S
C980 C979 1.363 . S
C980 C986 1.428 . S
H981 C977 0.930 . S
H982 C979 0.929 . S
S983 N984 1.613 1_554 S
S983 N985 1.610 . S
N984 S983 1.613 1_556 S
N984 C987 1.350 . S
N985 S983 1.610 . S
N985 C986 1.351 1_554 S
C986 C980 1.428 . S
C986 N985 1.351 1_556 S
C986 C987 1.434 . S
C987 C978 1.429 . S
C987 N984 1.350 . S
C987 C986 1.434 . S
C988 C989 1.369 . S
C988 C990 1.419 . S
C988 H992 0.930 . S
C989 C988 1.369 . S
C989 C998 1.429 . S
C990 C988 1.419 . S
C990 C991 1.363 . S
C990 H993 0.929 . S
C991 C990 1.363 . S
C991 C997 1.428 . S
H992 C988 0.930 . S
H993 C990 0.929 . S
S994 N995 1.613 . S
S994 N996 1.610 . S
N995 S994 1.613 . S
N995 C998 1.350 . S
N996 S994 1.610 . S
N996 C997 1.351 . S
C997 C991 1.428 . S
C997 N996 1.351 . S
C997 C998 1.434 . S
C998 C989 1.429 . S
C998 N995 1.350 . S
C998 C997 1.434 . S
C999 C1000 1.369 . S
C999 C1001 1.419 . S
C999 H1003 0.930 . S
C1000 C999 1.369 . S
C1000 C1009 1.429 . S
C1001 C999 1.419 . S
C1001 C1002 1.363 . S
C1001 H1004 0.929 . S
C1002 C1001 1.363 . S
C1002 C1008 1.428 . S
H1003 C999 0.930 . S
H1004 C1001 0.929 . S
S1005 N1006 1.613 . S
S1005 N1007 1.610 . S
N1006 S1005 1.613 . S
N1006 C1009 1.350 . S
N1007 S1005 1.610 . S
N1007 C1008 1.351 . S
C1008 C1002 1.428 . S
C1008 N1007 1.351 . S
C1008 C1009 1.434 . S
C1009 C1000 1.429 . S
C1009 N1006 1.350 . S
C1009 C1008 1.434 . S
C1010 C1011 1.369 . S
C1010 C1012 1.419 . S
C1010 H1014 0.930 . S
C1011 C1010 1.369 . S
C1011 C1020 1.429 . S
C1012 C1010 1.419 . S
C1012 C1013 1.363 . S
C1012 H1015 0.929 . S
C1013 C1012 1.363 . S
C1013 C1019 1.428 . S
H1014 C1010 0.930 . S
H1015 C1012 0.929 . S
S1016 N1017 1.613 . S
S1016 N1018 1.610 . S
N1017 S1016 1.613 . S
N1017 C1020 1.350 . S
N1018 S1016 1.610 . S
N1018 C1019 1.351 . S
C1019 C1013 1.428 . S
C1019 N1018 1.351 . S
C1019 C1020 1.434 . S
C1020 C1011 1.429 . S
C1020 N1017 1.350 . S
C1020 C1019 1.434 . S
C1021 C1022 1.369 . S
C1021 C1023 1.419 . S
C1021 H1025 0.930 . S
C1022 C1021 1.369 . S
C1022 C1031 1.429 . S
C1023 C1021 1.419 . S
C1023 C1024 1.363 . S
C1023 H1026 0.929 . S
C1024 C1023 1.363 . S
C1024 C1030 1.428 . S
H1025 C1021 0.930 . S
H1026 C1023 0.929 . S
S1027 N1028 1.613 . S
S1027 N1029 1.610 1_565 S
N1028 S1027 1.613 . S
N1028 C1031 1.350 1_565 S
N1029 S1027 1.610 1_545 S
N1029 C1030 1.351 . S
C1030 C1024 1.428 . S
C1030 N1029 1.351 . S
C1030 C1031 1.434 . S
C1031 C1022 1.429 . S
C1031 N1028 1.350 1_545 S
C1031 C1030 1.434 . S
C1032 C1033 1.369 . S
C1032 C1034 1.419 . S
C1032 H1036 0.930 . S
C1033 C1032 1.369 . S
C1033 C1042 1.429 . S
C1034 C1032 1.419 . S
C1034 C1035 1.363 . S
C1034 H1037 0.929 . S
C1035 C1034 1.363 . S
C1035 C1041 1.428 . S
H1036 C1032 0.930 . S
H1037 C1034 0.929 . S
S1038 N1039 1.613 . S
S1038 N1040 1.610 . S
N1039 S1038 1.613 . S
N1039 C1042 1.350 . S
N1040 S1038 1.610 . S
N1040 C1041 1.351 . S
C1041 C1035 1.428 . S
C1041 N1040 1.351 . S
C1041 C1042 1.434 . S
C1042 C1033 1.429 . S
C1042 N1039 1.350 . S
C1042 C1041 1.434 . S
C1043 C1044 1.369 . S
C1043 C1045 1.419 1_565 S
C1043 H1047 0.930 . S
C1044 C1043 1.369 . S
C1044 C1053 1.429 . S
C1045 C1043 1.419 1_545 S
C1045 C1046 1.363 . S
C1045 H1048 0.929 . S
C1046 C1045 1.363 . S
C1046 C1052 1.428 . S
H1047 C1043 0.930 . S
H1048 C1045 0.929 . S
S1049 N1050 1.613 . S
S1049 N1051 1.610 1_565 S
N1050 S1049 1.613 . S
N1050 C1053 1.350 . S
N1051 S1049 1.610 1_545 S
N1051 C1052 1.351 . S
C1052 C1046 1.428 . S
C1052 N1051 1.351 . S
C1052 C1053 1.434 1_545 S
C1053 C1044 1.429 . S
C1053 N1050 1.350 . S
C1053 C1052 1.434 1_565 S
C1054 C1055 1.369 . S
C1054 C1056 1.419 1_455 S
C1054 H1058 0.930 . S
C1055 C1054 1.369 . S
C1055 C1064 1.429 . S
C1056 C1054 1.419 1_655 S
C1056 C1057 1.363 . S
C1056 H1059 0.929 . S
C1057 C1056 1.363 . S
C1057 C1063 1.428 . S
H1058 C1054 0.930 . S
H1059 C1056 0.929 . S
S1060 N1061 1.613 1_655 S
S1060 N1062 1.610 . S
N1061 S1060 1.613 1_455 S
N1061 C1064 1.350 . S
N1062 S1060 1.610 . S
N1062 C1063 1.351 . S
C1063 C1057 1.428 . S
C1063 N1062 1.351 . S
C1063 C1064 1.434 1_655 S
C1064 C1055 1.429 . S
C1064 N1061 1.350 . S
C1064 C1063 1.434 1_455 S
C1065 C1066 1.369 . S
C1065 C1067 1.419 . S
C1065 H1069 0.930 . S
C1066 C1065 1.369 . S
C1066 C1075 1.429 . S
C1067 C1065 1.419 . S
C1067 C1068 1.363 . S
C1067 H1070 0.929 . S
C1068 C1067 1.363 . S
C1068 C1074 1.428 . S
H1069 C1065 0.930 . S
H1070 C1067 0.929 . S
S1071 N1072 1.613 . S
S1071 N1073 1.610 . S
N1072 S1071 1.613 . S
N1072 C1075 1.350 . S
N1073 S1071 1.610 . S
N1073 C1074 1.351 . S
C1074 C1068 1.428 . S
C1074 N1073 1.351 . S
C1074 C1075 1.434 . S
C1075 C1066 1.429 . S
C1075 N1072 1.350 . S
C1075 C1074 1.434 . S
C1076 C1077 1.369 . S
C1076 C1078 1.419 1_565 S
C1076 H1080 0.930 . S
C1077 C1076 1.369 . S
C1077 C1086 1.429 . S
C1078 C1076 1.419 1_545 S
C1078 C1079 1.363 . S
C1078 H1081 0.929 . S
C1079 C1078 1.363 . S
C1079 C1085 1.428 . S
H1080 C1076 0.930 . S
H1081 C1078 0.929 . S
S1082 N1083 1.613 . S
S1082 N1084 1.610 1_565 S
N1083 S1082 1.613 . S
N1083 C1086 1.350 . S
N1084 S1082 1.610 1_545 S
N1084 C1085 1.351 . S
C1085 C1079 1.428 . S
C1085 N1084 1.351 . S
C1085 C1086 1.434 1_545 S
C1086 C1077 1.429 . S
C1086 N1083 1.350 . S
C1086 C1085 1.434 1_565 S
C1087 C1088 1.369 . S
C1087 C1089 1.419 1_455 S
C1087 H1091 0.930 . S
C1088 C1087 1.369 . S
C1088 C1097 1.429 . S
C1089 C1087 1.419 1_655 S
C1089 C1090 1.363 . S
C1089 H1092 0.929 . S
C1090 C1089 1.363 . S
C1090 C1096 1.428 . S
H1091 C1087 0.930 . S
H1092 C1089 0.929 . S
S1093 N1094 1.613 . S
S1093 N1095 1.610 1_455 S
N1094 S1093 1.613 . S
N1094 C1097 1.350 . S
N1095 S1093 1.610 1_655 S
N1095 C1096 1.351 . S
C1096 C1090 1.428 . S
C1096 N1095 1.351 . S
C1096 C1097 1.434 1_655 S
C1097 C1088 1.429 . S
C1097 N1094 1.350 . S
C1097 C1096 1.434 1_455 S
C1098 C1099 1.369 . S
C1098 C1100 1.419 . S
C1098 H1102 0.930 . S
C1099 C1098 1.369 . S
C1099 C1108 1.429 . S
C1100 C1098 1.419 . S
C1100 C1101 1.363 . S
C1100 H1103 0.929 . S
C1101 C1100 1.363 . S
C1101 C1107 1.428 . S
H1102 C1098 0.930 . S
H1103 C1100 0.929 . S
S1104 N1105 1.613 . S
S1104 N1106 1.610 . S
N1105 S1104 1.613 . S
N1105 C1108 1.350 . S
N1106 S1104 1.610 . S
N1106 C1107 1.351 . S
C1107 C1101 1.428 . S
C1107 N1106 1.351 . S
C1107 C1108 1.434 . S
C1108 C1099 1.429 . S
C1108 N1105 1.350 . S
C1108 C1107 1.434 . S
C1109 C1110 1.369 . S
C1109 C1111 1.419 . S
C1109 H1113 0.930 . S
C1110 C1109 1.369 . S
C1110 C1119 1.429 . S
C1111 C1109 1.419 . S
C1111 C1112 1.363 . S
C1111 H1114 0.929 . S
C1112 C1111 1.363 . S
C1112 C1118 1.428 . S
H1113 C1109 0.930 . S
H1114 C1111 0.929 . S
S1115 N1116 1.613 . S
S1115 N1117 1.610 . S
N1116 S1115 1.613 . S
N1116 C1119 1.350 . S
N1117 S1115 1.610 . S
N1117 C1118 1.351 . S
C1118 C1112 1.428 . S
C1118 N1117 1.351 . S
C1118 C1119 1.434 . S
C1119 C1110 1.429 . S
C1119 N1116 1.350 . S
C1119 C1118 1.434 . S
C1120 C1121 1.369 . S
C1120 C1122 1.419 . S
C1120 H1124 0.930 . S
C1121 C1120 1.369 . S
C1121 C1130 1.429 . S
C1122 C1120 1.419 . S
C1122 C1123 1.363 . S
C1122 H1125 0.929 . S
C1123 C1122 1.363 . S
C1123 C1129 1.428 . S
H1124 C1120 0.930 . S
H1125 C1122 0.929 . S
S1126 N1127 1.613 . S
S1126 N1128 1.610 . S
N1127 S1126 1.613 . S
N1127 C1130 1.350 . S
N1128 S1126 1.610 . S
N1128 C1129 1.351 . S
C1129 C1123 1.428 . S
C1129 N1128 1.351 . S
C1129 C1130 1.434 . S
C1130 C1121 1.429 . S
C1130 N1127 1.350 . S
C1130 C1129 1.434 . S
C1131 C1132 1.369 . S
C1131 C1133 1.419 . S
C1131 H1135 0.930 . S
C1132 C1131 1.369 . S
C1132 C1141 1.429 . S
C1133 C1131 1.419 . S
C1133 C1134 1.363 . S
C1133 H1136 0.929 . S
C1134 C1133 1.363 . S
C1134 C1140 1.428 . S
H1135 C1131 0.930 . S
H1136 C1133 0.929 . S
S1137 N1138 1.613 . S
S1137 N1139 1.610 . S
N1138 S1137 1.613 . S
N1138 C1141 1.350 . S
N1139 S1137 1.610 . S
N1139 C1140 1.351 . S
C1140 C1134 1.428 . S
C1140 N1139 1.351 . S
C1140 C1141 1.434 . S
C1141 C1132 1.429 . S
C1141 N1138 1.350 . S
C1141 C1140 1.434 . S
C1142 C1143 1.369 . S
C1142 C1144 1.419 . S
C1142 H1146 0.930 . S
C1143 C1142 1.369 . S
C1143 C1152 1.429 . S
C1144 C1142 1.419 . S
C1144 C1145 1.363 . S
C1144 H1147 0.929 . S
C1145 C1144 1.363 . S
C1145 C1151 1.428 . S
H1146 C1142 0.930 . S
H1147 C1144 0.929 . S
S1148 N1149 1.613 . S
S1148 N1150 1.610 . S
N1149 S1148 1.613 . S
N1149 C1152 1.350 . S
N1150 S1148 1.610 . S
N1150 C1151 1.351 . S
C1151 C1145 1.428 . S
C1151 N1150 1.351 . S
C1151 C1152 1.434 . S
C1152 C1143 1.429 . S
C1152 N1149 1.350 . S
C1152 C1151 1.434 . S
C1153 C1154 1.369 . S
C1153 C1155 1.419 . S
C1153 H1157 0.930 . S
C1154 C1153 1.369 . S
C1154 C1163 1.429 . S
C1155 C1153 1.419 . S
C1155 C1156 1.363 . S
C1155 H1158 0.929 . S
C1156 C1155 1.363 . S
C1156 C1162 1.428 . S
H1157 C1153 0.930 . S
H1158 C1155 0.929 . S
S1159 N1160 1.613 . S
S1159 N1161 1.610 . S
N1160 S1159 1.613 . S
N1160 C1163 1.350 . S
N1161 S1159 1.610 . S
N1161 C1162 1.351 . S
C1162 C1156 1.428 . S
C1162 N1161 1.351 . S
C1162 C1163 1.434 . S
C1163 C1154 1.429 . S
C1163 N1160 1.350 . S
C1163 C1162 1.434 . S
C1164 C1165 1.369 . S
C1164 C1166 1.419 . S
C1164 H1168 0.930 . S
C1165 C1164 1.369 . S
C1165 C1174 1.429 . S
C1166 C1164 1.419 . S
C1166 C1167 1.363 . S
C1166 H1169 0.929 . S
C1167 C1166 1.363 . S
C1167 C1173 1.428 . S
H1168 C1164 0.930 . S
H1169 C1166 0.929 . S
S1170 N1171 1.613 . S
S1170 N1172 1.610 . S
N1171 S1170 1.613 . S
N1171 C1174 1.350 . S
N1172 S1170 1.610 . S
N1172 C1173 1.351 . S
C1173 C1167 1.428 . S
C1173 N1172 1.351 . S
C1173 C1174 1.434 . S
C1174 C1165 1.429 . S
C1174 N1171 1.350 . S
C1174 C1173 1.434 . S
C1175 C1176 1.369 . S
C1175 C1177 1.419 . S
C1175 H1179 0.930 . S
C1176 C1175 1.369 . S
C1176 C1185 1.429 . S
C1177 C1175 1.419 . S
C1177 C1178 1.363 . S
C1177 H1180 0.929 . S
C1178 C1177 1.363 . S
C1178 C1184 1.428 . S
H1179 C1175 0.930 . S
H1180 C1177 0.929 . S
S1181 N1182 1.613 . S
S1181 N1183 1.610 . S
N1182 S1181 1.613 . S
N1182 C1185 1.350 . S
N1183 S1181 1.610 . S
N1183 C1184 1.351 . S
C1184 C1178 1.428 . S
C1184 N1183 1.351 . S
C1184 C1185 1.434 . S
C1185 C1176 1.429 . S
C1185 N1182 1.350 . S
C1185 C1184 1.434 . S
C1186 C1187 1.369 . S
C1186 C1188 1.419 . S
C1186 H1190 0.930 . S
C1187 C1186 1.369 . S
C1187 C1196 1.429 . S
C1188 C1186 1.419 . S
C1188 C1189 1.363 . S
C1188 H1191 0.929 . S
C1189 C1188 1.363 . S
C1189 C1195 1.428 . S
H1190 C1186 0.930 . S
H1191 C1188 0.929 . S
S1192 N1193 1.613 . S
S1192 N1194 1.610 . S
N1193 S1192 1.613 . S
N1193 C1196 1.350 . S
N1194 S1192 1.610 . S
N1194 C1195 1.351 . S
C1195 C1189 1.428 . S
C1195 N1194 1.351 . S
C1195 C1196 1.434 . S
C1196 C1187 1.429 . S
C1196 N1193 1.350 . S
C1196 C1195 1.434 . S
C1197 C1198 1.369 . S
C1197 C1199 1.419 . S
C1197 H1201 0.930 . S
C1198 C1197 1.369 . S
C1198 C1207 1.429 . S
C1199 C1197 1.419 . S
C1199 C1200 1.363 . S
C1199 H1202 0.929 . S
C1200 C1199 1.363 . S
C1200 C1206 1.428 . S
H1201 C1197 0.930 . S
H1202 C1199 0.929 . S
S1203 N1204 1.613 . S
S1203 N1205 1.610 . S
N1204 S1203 1.613 . S
N1204 C1207 1.350 . S
N1205 S1203 1.610 . S
N1205 C1206 1.351 . S
C1206 C1200 1.428 . S
C1206 N1205 1.351 . S
C1206 C1207 1.434 . S
C1207 C1198 1.429 . S
C1207 N1204 1.350 . S
C1207 C1206 1.434 . S
C1208 C1209 1.369 . S
C1208 C1210 1.419 . S
C1208 H1212 0.930 . S
C1209 C1208 1.369 . S
C1209 C1218 1.429 . S
C1210 C1208 1.419 . S
C1210 C1211 1.363 . S
C1210 H1213 0.929 . S
C1211 C1210 1.363 . S
C1211 C1217 1.428 . S
H1212 C1208 0.930 . S
H1213 C1210 0.929 . S
S1214 N1215 1.613 . S
S1214 N1216 1.610 . S
N1215 S1214 1.613 . S
N1215 C1218 1.350 . S
N1216 S1214 1.610 . S
N1216 C1217 1.351 . S
C1217 C1211 1.428 . S
C1217 N1216 1.351 . S
C1217 C1218 1.434 . S
C1218 C1209 1.429 . S
C1218 N1215 1.350 . S
C1218 C1217 1.434 . S
C1219 C1220 1.369 . S
C1219 C1221 1.419 . S
C1219 H1223 0.930 . S
C1220 C1219 1.369 . S
C1220 C1229 1.429 . S
C1221 C1219 1.419 . S
C1221 C1222 1.363 . S
C1221 H1224 0.929 . S
C1222 C1221 1.363 . S
C1222 C1228 1.428 . S
H1223 C1219 0.930 . S
H1224 C1221 0.929 . S
S1225 N1226 1.613 . S
S1225 N1227 1.610 . S
N1226 S1225 1.613 . S
N1226 C1229 1.350 . S
N1227 S1225 1.610 . S
N1227 C1228 1.351 . S
C1228 C1222 1.428 . S
C1228 N1227 1.351 . S
C1228 C1229 1.434 . S
C1229 C1220 1.429 . S
C1229 N1226 1.350 . S
C1229 C1228 1.434 . S
C1230 C1231 1.369 1_455 S
C1230 C1232 1.419 . S
C1230 H1234 0.930 . S
C1231 C1230 1.369 1_655 S
C1231 C1240 1.429 . S
C1232 C1230 1.419 . S
C1232 C1233 1.363 . S
C1232 H1235 0.929 . S
C1233 C1232 1.363 . S
C1233 C1239 1.428 1_455 S
H1234 C1230 0.930 . S
H1235 C1232 0.929 . S
S1236 N1237 1.613 . S
S1236 N1238 1.610 . S
N1237 S1236 1.613 . S
N1237 C1240 1.350 . S
N1238 S1236 1.610 . S
N1238 C1239 1.351 . S
C1239 C1233 1.428 1_655 S
C1239 N1238 1.351 . S
C1239 C1240 1.434 . S
C1240 C1231 1.429 . S
C1240 N1237 1.350 . S
C1240 C1239 1.434 . S
C1241 C1242 1.369 . S
C1241 C1243 1.419 . S
C1241 H1245 0.930 . S
C1242 C1241 1.369 . S
C1242 C1251 1.429 . S
C1243 C1241 1.419 . S
C1243 C1244 1.363 . S
C1243 H1246 0.929 . S
C1244 C1243 1.363 . S
C1244 C1250 1.428 . S
H1245 C1241 0.930 . S
H1246 C1243 0.929 . S
S1247 N1248 1.613 . S
S1247 N1249 1.610 . S
N1248 S1247 1.613 . S
N1248 C1251 1.350 . S
N1249 S1247 1.610 . S
N1249 C1250 1.351 . S
C1250 C1244 1.428 . S
C1250 N1249 1.351 . S
C1250 C1251 1.434 . S
C1251 C1242 1.429 . S
C1251 N1248 1.350 . S
C1251 C1250 1.434 . S
C1252 C1253 1.369 . S
C1252 C1254 1.419 . S
C1252 H1256 0.930 . S
C1253 C1252 1.369 . S
C1253 C1262 1.429 1_565 S
C1254 C1252 1.419 . S
C1254 C1255 1.363 1_565 S
C1254 H1257 0.929 . S
C1255 C1254 1.363 1_545 S
C1255 C1261 1.428 . S
H1256 C1252 0.930 . S
H1257 C1254 0.929 . S
S1258 N1259 1.613 . S
S1258 N1260 1.610 . S
N1259 S1258 1.613 . S
N1259 C1262 1.350 . S
N1260 S1258 1.610 . S
N1260 C1261 1.351 . S
C1261 C1255 1.428 . S
C1261 N1260 1.351 . S
C1261 C1262 1.434 . S
C1262 C1253 1.429 1_545 S
C1262 N1259 1.350 . S
C1262 C1261 1.434 . S
C1263 C1264 1.369 . S
C1263 C1265 1.419 . S
C1263 H1267 0.930 . S
C1264 C1263 1.369 . S
C1264 C1273 1.429 1_565 S
C1265 C1263 1.419 . S
C1265 C1266 1.363 1_565 S
C1265 H1268 0.929 . S
C1266 C1265 1.363 1_545 S
C1266 C1272 1.428 . S
H1267 C1263 0.930 . S
H1268 C1265 0.929 . S
S1269 N1270 1.613 . S
S1269 N1271 1.610 . S
N1270 S1269 1.613 . S
N1270 C1273 1.350 . S
N1271 S1269 1.610 . S
N1271 C1272 1.351 . S
C1272 C1266 1.428 . S
C1272 N1271 1.351 . S
C1272 C1273 1.434 . S
C1273 C1264 1.429 1_545 S
C1273 N1270 1.350 . S
C1273 C1272 1.434 . S
C1274 C1275 1.369 1_455 S
C1274 C1276 1.419 . S
C1274 H1278 0.930 . S
C1275 C1274 1.369 1_655 S
C1275 C1284 1.429 . S
C1276 C1274 1.419 . S
C1276 C1277 1.363 . S
C1276 H1279 0.929 . S
C1277 C1276 1.363 . S
C1277 C1283 1.428 1_455 S
H1278 C1274 0.930 . S
H1279 C1276 0.929 . S
S1280 N1281 1.613 . S
S1280 N1282 1.610 . S
N1281 S1280 1.613 . S
N1281 C1284 1.350 . S
N1282 S1280 1.610 . S
N1282 C1283 1.351 . S
C1283 C1277 1.428 1_655 S
C1283 N1282 1.351 . S
C1283 C1284 1.434 . S
C1284 C1275 1.429 . S
C1284 N1281 1.350 . S
C1284 C1283 1.434 . S
C1285 C1286 1.369 . S
C1285 C1287 1.419 . S
C1285 H1289 0.930 . S
C1286 C1285 1.369 . S
C1286 C1295 1.429 . S
C1287 C1285 1.419 . S
C1287 C1288 1.363 . S
C1287 H1290 0.929 . S
C1288 C1287 1.363 . S
C1288 C1294 1.428 . S
H1289 C1285 0.930 . S
H1290 C1287 0.929 . S
S1291 N1292 1.613 . S
S1291 N1293 1.610 . S
N1292 S1291 1.613 . S
N1292 C1295 1.350 . S
N1293 S1291 1.610 . S
N1293 C1294 1.351 . S
C1294 C1288 1.428 . S
C1294 N1293 1.351 . S
C1294 C1295 1.434 . S
C1295 C1286 1.429 . S
C1295 N1292 1.350 . S
C1295 C1294 1.434 . S
C505 C224 1.755 . S
C507 C13 1.753 . S
C516 C250 1.754 . S
C518 C15 1.754 . S
C527 C223 1.753 . S
C529 C29 1.755 . S
C538 C365 1.730 1_554 S
C540 C55 1.731 . S
C549 C57 1.731 . S
C551 C349 1.729 1_554 S
C560 C83 1.729 . S
C562 C350 1.731 1_554 S
C571 C97 1.754 . S
C573 C476 1.755 . S
C582 C502 1.754 . S
C584 C99 1.756 . S
C593 C462 1.754 . S
C595 C112 1.753 . S
C604 C127 1.731 . S
C606 C293 1.730 1_556 S
C615 C252 1.731 1_556 S
C617 C140 1.729 . S
C626 C167 1.729 . S
C628 C267 1.731 1_556 S
C637 C405 1.673 . S
C639 C168 1.675 . S
C648 C195 1.675 . S
C650 C407 1.673 . S
C659 C379 1.675 . S
C661 C197 1.672 . S
C670 C460 1.676 . S
C672 C295 1.672 . S
C681 C421 1.677 . S
C683 C320 1.672 . S
C692 C335 1.676 . S
C694 C435 1.673 . S
C703 C265 1.756 . S
C705 C0 1.761 . S
C714 C278 1.752 . S
C716 C26 1.761 . S
C725 C280 1.753 . S
C727 C40 1.762 . S
C736 C42 1.756 . S
C738 C475 1.763 . S
C747 C68 1.762 . S
C749 C489 1.759 . S
C758 C70 1.758 . S
C760 C491 1.761 . S
C769 C84 1.759 . S
C771 C336 1.757 . S
C780 C363 1.752 . S
C782 C110 1.758 . S
C791 C376 1.758 . S
C793 C125 1.760 . S
C802 C210 1.759 . S
C804 C138 1.759 . S
C813 C153 1.759 . S
C815 C237 1.757 . S
C824 C154 1.761 . S
C826 C239 1.753 . S
C835 C181 1.749 . S
C837 C432 1.755 . S
C846 C446 1.750 . S
C848 C182 1.758 . S
C857 C449 1.752 . S
C859 C208 1.759 . S
C868 C390 1.764 . S
C870 C306 1.767 . S
C879 C309 1.771 . S
C881 C392 1.764 . S
C890 C322 1.768 . S
C892 C418 1.764 . S
C901 C391 1.757 . S
C903 C1 1.754 . S
C912 C27 1.757 . S
C914 C393 1.759 . S
C923 C41 1.755 . S
C925 C419 1.757 . S
C934 C180 1.724 . S
C936 C43 1.724 . S
C945 C69 1.724 . S
C947 C183 1.723 . S
C956 C71 1.725 . S
C958 C209 1.723 . S
C967 C307 1.757 . S
C969 C85 1.756 . S
C978 C111 1.755 . S
C980 C308 1.760 . S
C989 C323 1.759 . S
C991 C124 1.758 . S
C1000 C139 1.728 . S
C1002 C433 1.726 . S
C1011 C447 1.724 . S
C1013 C152 1.725 . S
C1022 C448 1.725 . S
C1024 C155 1.728 . S
C1033 C337 1.741 . S
C1035 C211 1.740 . S
C1044 C362 1.743 . S
C1046 C236 1.742 . S
C1055 C377 1.742 . S
C1057 C238 1.740 . S
C1066 C264 1.738 . S
C1068 C474 1.740 . S
C1077 C488 1.738 . S
C1079 C279 1.740 . S
C1088 C490 1.737 . S
C1090 C281 1.740 . S
C1099 C12 1.092 1_556 S
C1101 C225 1.093 . S
C1110 C14 1.092 1_556 S
C1112 C251 1.092 . S
C1121 C28 1.092 1_556 S
C1123 C222 1.094 . S
C1132 C364 1.120 . S
C1134 C54 1.116 . S
C1143 C348 1.118 . S
C1145 C56 1.116 . S
C1154 C351 1.117 . S
C1156 C82 1.119 . S
C1165 C477 1.093 . S
C1167 C96 1.092 1_554 S
C1176 C503 1.094 . S
C1178 C98 1.092 1_554 S
C1187 C463 1.095 . S
C1189 C113 1.092 1_554 S
C1198 C126 1.116 . S
C1200 C292 1.119 . S
C1209 C141 1.119 . S
C1211 C253 1.118 . S
C1220 C166 1.117 . S
C1222 C266 1.119 . S
C1231 C404 1.180 . S
C1233 C169 1.182 . S
C1242 C406 1.179 . S
C1244 C194 1.183 . S
C1253 C196 1.179 . S
C1255 C378 1.183 . S
C1264 C294 1.177 . S
C1266 C461 1.184 . S
C1275 C420 1.181 . S
C1277 C321 1.181 . S
C1286 C434 1.181 . S
C1288 C334 1.183 . S
