# Generated by pormake.
# Topology tfs, (6)-cn, num edge types: 1
# Building blocks:
#     Node 0, Type 0, BuildingBlock: BETFEN_clean_sbu_0, # of connection points: 6
#     Node 1, Type 0, BuildingBlock: BETFEN_clean_sbu_0, # of connection points: 6
#     Node 2, Type 0, BuildingBlock: BETFEN_clean_sbu_0, # of connection points: 6
#     Node 3, Type 0, BuildingBlock: BETFEN_clean_sbu_0, # of connection points: 6
#     Node 4, Type 0, BuildingBlock: BETFEN_clean_sbu_0, # of connection points: 6
#     Node 5, Type 0, BuildingBlock: BETFEN_clean_sbu_0, # of connection points: 6
#     Edge 6, Type (0, 0), BuildingBlock: KIFKEQ_clean_linker_1, # of connection points: 2
#     Edge 7, Type (0, 0), BuildingBlock: KIFKEQ_clean_linker_1, # of connection points: 2
#     Edge 8, Type (0, 0), BuildingBlock: KIFKEQ_clean_linker_1, # of connection points: 2
#     Edge 9, Type (0, 0), BuildingBlock: KIFKEQ_clean_linker_1, # of connection points: 2
#     Edge 10, Type (0, 0), BuildingBlock: KIFKEQ_clean_linker_1, # of connection points: 2
#     Edge 11, Type (0, 0), BuildingBlock: KIFKEQ_clean_linker_1, # of connection points: 2
#     Edge 12, Type (0, 0), BuildingBlock: KIFKEQ_clean_linker_1, # of connection points: 2
#     Edge 13, Type (0, 0), BuildingBlock: KIFKEQ_clean_linker_1, # of connection points: 2
#     Edge 14, Type (0, 0), BuildingBlock: KIFKEQ_clean_linker_1, # of connection points: 2
#     Edge 15, Type (0, 0), BuildingBlock: KIFKEQ_clean_linker_1, # of connection points: 2
#     Edge 16, Type (0, 0), BuildingBlock: KIFKEQ_clean_linker_1, # of connection points: 2
#     Edge 17, Type (0, 0), BuildingBlock: KIFKEQ_clean_linker_1, # of connection points: 2
#     Edge 18, Type (0, 0), BuildingBlock: KIFKEQ_clean_linker_1, # of connection points: 2
#     Edge 19, Type (0, 0), BuildingBlock: KIFKEQ_clean_linker_1, # of connection points: 2
#     Edge 20, Type (0, 0), BuildingBlock: KIFKEQ_clean_linker_1, # of connection points: 2
#     Edge 21, Type (0, 0), BuildingBlock: KIFKEQ_clean_linker_1, # of connection points: 2
#     Edge 22, Type (0, 0), BuildingBlock: KIFKEQ_clean_linker_1, # of connection points: 2
#     Edge 23, Type (0, 0), BuildingBlock: KIFKEQ_clean_linker_1, # of connection points: 2
# Relax obj value: 0.559
# Max RMSD: 0.459
# Mean RMSD: 0.360
data_MOF--net-tfs--node1-BETFEN_clean_sbu_0--edge1-KIFKEQ_clean_linker_1
_symmetry_space_group_name_H-M    P1
_symmetry_Int_Tables_number       1
_symmetry_cell_setting            triclinic
loop_
_symmetry_equiv_pos_as_xyz
'x, y, z'
_cell_length_a     51.559552
_cell_length_b     47.528143
_cell_length_c     13.005853
_cell_angle_alpha  101.90286
_cell_angle_beta   80.748938
_cell_angle_gamma 112.54915
loop_
_atom_site_label
_atom_site_type_symbol
_atom_site_fract_x
_atom_site_fract_y
_atom_site_fract_z
_atom_type_partial_charge
Pr0 Pr 0.24039 0.40289 0.31043 0.0
Pr1 Pr 0.22404 0.45038 0.22288 0.0
C2 C 0.25975 0.37305 0.41619 0.0
C3 C 0.25365 0.34426 0.45659 0.0
C4 C 0.27441 0.33116 0.43616 0.0
C5 C 0.26994 0.30399 0.47265 0.0
C6 C 0.24447 0.28915 0.53045 0.0
C7 C 0.22364 0.30245 0.552 0.0
C8 C 0.22816 0.32983 0.51496 0.0
C9 C 0.24948 0.40284 0.09415 0.0
C10 C 0.17407 0.38066 0.26628 0.0
C11 C 0.20804 0.47435 0.08598 0.0
C12 C 0.22163 0.49292 0.00156 0.0
C13 C 0.2481 0.51652 0.01152 0.0
C14 C 0.2594 0.53628 0.93678 0.0
C15 C 0.24455 0.53266 0.84995 0.0
C16 C 0.21925 0.50712 0.83531 0.0
C17 C 0.20782 0.48748 0.91093 0.0
C18 C 0.21652 0.45394 0.43932 0.0
C19 C 0.28844 0.47457 0.28733 0.0
O20 O 0.24655 0.39156 0.46352 0.0
O21 O 0.26381 0.37165 0.31364 0.0
O22 O 0.25467 0.4256 0.16586 0.0
O23 O 0.23796 0.37708 0.13251 0.0
O24 O 0.18205 0.40575 0.22139 0.0
O25 O 0.19198 0.37459 0.31247 0.0
O26 O 0.20799 0.44618 0.06666 0.0
O27 O 0.21305 0.48822 0.18315 0.0
O28 O 0.21111 0.4298 0.37246 0.0
O29 O 0.22519 0.47865 0.39508 0.0
O30 O 0.27944 0.45062 0.33898 0.0
O31 O 0.2723 0.47778 0.22464 0.0
H32 H 0.29432 0.34211 0.39221 0.0
H33 H 0.28676 0.29492 0.45709 0.0
H34 H 0.20385 0.29158 0.59657 0.0
H35 H 0.21183 0.33964 0.53182 0.0
H36 H 0.25947 0.52058 0.07959 0.0
H37 H 0.27879 0.55571 0.95189 0.0
H38 H 0.2076 0.50319 0.76821 0.0
H39 H 0.18772 0.46873 0.90056 0.0
Pr40 Pr 0.82838 0.2404 0.60049 0.0
Pr41 Pr 0.76367 0.22063 0.56321 0.0
C42 C 0.88163 0.2628 0.65774 0.0
C43 C 0.911 0.27211 0.6078 0.0
C44 C 0.91939 0.25335 0.52102 0.0
C45 C 0.94732 0.26286 0.47524 0.0
C46 C 0.9674 0.29143 0.51462 0.0
C47 C 0.95885 0.31008 0.60145 0.0
C48 C 0.93102 0.3005 0.64749 0.0
C49 C 0.81699 0.22785 0.39186 0.0
C50 C 0.79087 0.16664 0.54644 0.0
C51 C 0.71046 0.19927 0.50628 0.0
C52 C 0.68232 0.19782 0.55559 0.0
C53 C 0.67669 0.20258 0.66578 0.0
C54 C 0.64995 0.20189 0.71127 0.0
C55 C 0.62848 0.19665 0.64723 0.0
C56 C 0.63425 0.19157 0.53683 0.0
C57 C 0.66091 0.19216 0.49158 0.0
C58 C 0.77313 0.22472 0.77066 0.0
C59 C 0.7982 0.29356 0.63736 0.0
O60 O 0.86603 0.23341 0.64452 0.0
O61 O 0.86767 0.2804 0.65398 0.0
O62 O 0.8055 0.24149 0.46705 0.0
O63 O 0.83852 0.22466 0.42023 0.0
O64 O 0.77401 0.17531 0.50386 0.0
O65 O 0.81095 0.18706 0.60441 0.0
O66 O 0.72874 0.22668 0.49365 0.0
O67 O 0.72141 0.18223 0.53801 0.0
O68 O 0.78633 0.21552 0.69012 0.0
O69 O 0.75417 0.23309 0.74512 0.0
O70 O 0.8175 0.28545 0.66664 0.0
O71 O 0.77753 0.27364 0.58252 0.0
H72 H 0.90436 0.23142 0.48816 0.0
H73 H 0.95308 0.24806 0.40787 0.0
H74 H 0.97379 0.33201 0.6348 0.0
H75 H 0.92511 0.31533 0.71443 0.0
H76 H 0.69305 0.2071 0.71652 0.0
H77 H 0.64629 0.20618 0.79643 0.0
H78 H 0.6181 0.18702 0.48522 0.0
H79 H 0.66487 0.18837 0.4064 0.0
Pr80 Pr 0.65116 0.79016 0.47078 0.0
Pr81 Pr 0.61386 0.72586 0.3388 0.0
C82 C 0.68025 0.84111 0.60024 0.0
C83 C 0.69344 0.87428 0.59243 0.0
C84 C 0.68617 0.8862 0.51581 0.0
C85 C 0.6988 0.91762 0.50797 0.0
C86 C 0.71914 0.93785 0.57624 0.0
C87 C 0.72641 0.92567 0.65268 0.0
C88 C 0.71367 0.8942 0.66061 0.0
C89 C 0.66703 0.78217 0.25529 0.0
C90 C 0.66568 0.72746 0.45616 0.0
C91 C 0.58175 0.67694 0.20976 0.0
C92 C 0.55181 0.65636 0.21907 0.0
C93 C 0.53406 0.661 0.30954 0.0
C94 C 0.50578 0.64124 0.31955 0.0
C95 C 0.49457 0.61637 0.23917 0.0
C96 C 0.51251 0.61191 0.14843 0.0
C97 C 0.54083 0.6317 0.13862 0.0
C98 C 0.59543 0.73572 0.55201 0.0
C99 C 0.6039 0.79103 0.33108 0.0
O100 O 0.69202 0.82312 0.53774 0.0
O101 O 0.6527 0.8294 0.60523 0.0
O102 O 0.65846 0.76116 0.31171 0.0
O103 O 0.67129 0.80889 0.31383 0.0
O104 O 0.65329 0.71642 0.36705 0.0
O105 O 0.66264 0.75177 0.52052 0.0
O106 O 0.58662 0.70555 0.20152 0.0
O107 O 0.59772 0.67475 0.27405 0.0
O108 O 0.6057 0.75586 0.49261 0.0
O109 O 0.59181 0.70859 0.49819 0.0
O110 O 0.61851 0.80549 0.41365 0.0
O111 O 0.60172 0.76278 0.28514 0.0
H112 H 0.67062 0.87119 0.46215 0.0
H113 H 0.6923 0.92612 0.44923 0.0
H114 H 0.74221 0.94036 0.70566 0.0
H115 H 0.71971 0.88541 0.71981 0.0
H116 H 0.54211 0.67996 0.37255 0.0
H117 H 0.49261 0.64573 0.38977 0.0
H118 H 0.50478 0.59285 0.08546 0.0
H119 H 0.5542 0.62763 0.06838 0.0
Pr120 Pr 0.81706 0.5725 0.61194 0.0
Pr121 Pr 0.76138 0.5557 0.76197 0.0
C122 C 0.85848 0.58904 0.45604 0.0
C123 C 0.888 0.60959 0.44367 0.0
C124 C 0.9047 0.61998 0.52872 0.0
C125 C 0.93304 0.63888 0.51515 0.0
C126 C 0.94507 0.64783 0.41642 0.0
C127 C 0.92799 0.63778 0.33203 0.0
C128 C 0.89967 0.61878 0.34565 0.0
C129 C 0.8228 0.59431 0.82814 0.0
C130 C 0.7771 0.6149 0.65158 0.0
C131 C 0.72209 0.54576 0.92768 0.0
C132 C 0.69402 0.52487 0.95971 0.0
C133 C 0.68284 0.49477 0.90535 0.0
C134 C 0.65454 0.47682 0.92679 0.0
C135 C 0.63709 0.48896 0.00191 0.0
C136 C 0.64877 0.51863 0.05947 0.0
C137 C 0.67711 0.53644 0.03859 0.0
C138 C 0.75433 0.5346 0.54676 0.0
C139 C 0.79712 0.50781 0.70416 0.0
O140 O 0.84 0.60239 0.48643 0.0
O141 O 0.85336 0.56524 0.50213 0.0
O142 O 0.80442 0.59395 0.77554 0.0
O143 O 0.84152 0.58543 0.76571 0.0
O144 O 0.76943 0.60608 0.74484 0.0
O145 O 0.79201 0.60193 0.57917 0.0
O146 O 0.74278 0.53541 0.91221 0.0
O147 O 0.72303 0.56226 0.85736 0.0
O148 O 0.77344 0.53475 0.59567 0.0
O149 O 0.73555 0.54238 0.61313 0.0
O150 O 0.81022 0.52171 0.62219 0.0
O151 O 0.78043 0.51867 0.77573 0.0
H152 H 0.89592 0.61316 0.60516 0.0
H153 H 0.94567 0.64585 0.58137 0.0
H154 H 0.9365 0.64462 0.25548 0.0
H155 H 0.88691 0.61109 0.27948 0.0
H156 H 0.69563 0.48567 0.84345 0.0
H157 H 0.64594 0.45415 0.88039 0.0
H158 H 0.63577 0.52839 0.11806 0.0
H159 H 0.68554 0.55975 0.0809 0.0
Pr160 Pr 0.29137 0.79414 0.17388 0.0
Pr161 Pr 0.35097 0.8116 0.03778 0.0
C162 C 0.24616 0.78291 0.31687 0.0
C163 C 0.2154 0.77307 0.32215 0.0
C164 C 0.20045 0.75394 0.23705 0.0
C165 C 0.17104 0.74379 0.24528 0.0
C166 C 0.15614 0.75276 0.33852 0.0
C167 C 0.17137 0.77257 0.42249 0.0
C168 C 0.20075 0.78256 0.41434 0.0
C169 C 0.29401 0.81655 -0.01126 0.0
C170 C 0.34558 0.85597 0.25971 0.0
C171 C 0.3977 0.82775 0.90453 0.0
C172 C 0.4276 0.84121 0.92559 0.0
C173 C 0.4365 0.86441 0.01279 0.0
C174 C 0.46279 0.87169 0.04853 0.0
C175 C 0.48049 0.85559 -0.00115 0.0
C176 C 0.47237 0.8341 0.90662 0.0
C177 C 0.44618 0.82705 0.8703 0.0
C178 C 0.34774 0.78526 0.21516 0.0
C179 C 0.29895 0.7447 0.9675 0.0
O180 O 0.26074 0.81039 0.29232 0.0
O181 O 0.25704 0.76211 0.27195 0.0
O182 O 0.31312 0.82621 0.0508 0.0
O183 O 0.271 0.79804 0.03181 0.0
O184 O 0.35836 0.85635 0.16327 0.0
O185 O 0.32261 0.83288 0.28446 0.0
O186 O 0.38455 0.79952 0.92428 0.0
O187 O 0.38276 0.84537 0.93736 0.0
O188 O 0.32865 0.77797 0.15452 0.0
O189 O 0.37081 0.80544 0.17893 0.0
O190 O 0.28539 0.74777 0.06204 0.0
O191 O 0.32199 0.7669 0.93564 0.0
H192 H 0.21148 0.74649 0.16494 0.0
H193 H 0.15997 0.72828 0.17962 0.0
H194 H 0.16058 0.78032 0.49467 0.0
H195 H 0.21203 0.79751 0.48045 0.0
H196 H 0.4225 0.8756 0.05744 0.0
H197 H 0.46859 0.88876 0.11853 0.0
H198 H 0.48524 0.82097 0.8668 0.0
H199 H 0.43962 0.80891 0.80349 0.0
Pr200 Pr 0.36132 0.14907 0.88422 0.0
Pr201 Pr 0.38338 0.21028 0.79086 0.0
C202 C 0.34825 0.103 -0.00508 0.0
C203 C 0.35657 0.07585 0.97342 0.0
C204 C 0.33543 0.04646 0.963 0.0
C205 C 0.34179 0.02088 0.91047 0.0
C206 C 0.36958 0.02417 0.86853 0.0
C207 C 0.3912 0.05313 0.88992 0.0
C208 C 0.38473 0.07883 0.94098 0.0
C209 C 0.37383 0.14174 0.66638 0.0
C210 C 0.31711 0.1673 0.79202 0.0
C211 C 0.39521 0.25955 0.69718 0.0
C212 C 0.41014 0.29238 0.7359 0.0
C213 C 0.40444 0.30489 0.84101 0.0
C214 C 0.42272 0.33346 0.88574 0.0
C215 C 0.44713 0.34988 0.82658 0.0
C216 C 0.45156 0.33852 0.71903 0.0
C217 C 0.43316 0.30992 0.67404 0.0
C218 C 0.37056 0.21535 0.00938 0.0
C219 C 0.43141 0.19129 0.86224 0.0
O220 O 0.3321 0.10302 0.92695 0.0
O221 O 0.36798 0.13001 0.01978 0.0
O222 O 0.38776 0.16321 0.73249 0.0
O223 O 0.3532 0.12136 0.71332 0.0
O224 O 0.33923 0.18074 0.72915 0.0
O225 O 0.32035 0.15874 0.87788 0.0
O226 O 0.41078 0.24249 0.67711 0.0
O227 O 0.37066 0.24646 0.74729 0.0
O228 O 0.3566 0.19551 0.94019 0.0
O229 O 0.39251 0.23528 0.96623 0.0
O230 O 0.41048 0.16917 0.90555 0.0
O231 O 0.42683 0.20895 0.80673 0.0
H232 H 0.31357 0.04369 -0.01304 0.0
H233 H 0.32443 0.99914 0.89524 0.0
H234 H 0.41292 0.05638 0.86149 0.0
H235 H 0.40152 0.10129 0.94806 0.0
H236 H 0.38686 0.29183 0.8909 0.0
H237 H 0.41864 0.34187 0.96838 0.0
H238 H 0.47035 0.35056 0.6717 0.0
H239 H 0.43799 0.30058 0.59313 0.0
H240 H 0.2926 0.20439 0.91715 0.0
H241 H 0.28408 0.13851 0.63062 0.0
H242 H 0.2627 0.22567 0.85818 0.0
H243 H 0.25203 0.15777 0.574 0.0
H244 H 0.25875 0.24062 0.42558 0.0
H245 H 0.26424 0.20122 0.50091 0.0
H246 H 0.22537 0.23181 0.80105 0.0
H247 H 0.22196 0.27317 0.726 0.0
C248 C 0.2828 0.19324 0.84429 0.0
C249 C 0.29062 0.17003 0.77796 0.0
C250 C 0.26558 0.20543 0.80996 0.0
C251 C 0.25554 0.1942 0.70917 0.0
C252 C 0.26023 0.1679 0.65008 0.0
C253 C 0.2782 0.15641 0.68305 0.0
C254 C 0.25112 0.23878 0.50746 0.0
C255 C 0.2408 0.26065 0.57065 0.0
C256 C 0.25379 0.21567 0.55077 0.0
C257 C 0.24574 0.2134 0.65838 0.0
C258 C 0.23254 0.23329 0.71873 0.0
C259 C 0.23025 0.25682 0.67544 0.0
H260 H 0.13054 0.3873 0.18987 0.0
H261 H 0.14774 0.33258 0.37857 0.0
H262 H 0.08023 0.36328 0.23841 0.0
H263 H 0.09735 0.30886 0.42811 0.0
H264 H 1.00155 0.25754 0.44604 0.0
H265 H 0.05067 0.27546 0.37084 0.0
H266 H 0.04973 0.36723 0.39973 0.0
H267 H 1.00064 0.3492 0.47205 0.0
C268 C 0.12364 0.36984 0.24052 0.0
C269 C 0.14336 0.36213 0.28086 0.0
C270 C 0.09472 0.35623 0.26908 0.0
C271 C 0.08468 0.33446 0.33857 0.0
C272 C 0.10426 0.32543 0.37412 0.0
C273 C 0.13324 0.33911 0.34571 0.0
C274 C 1.01174 0.28145 0.43508 0.0
C275 C 0.99712 0.30194 0.46557 0.0
C276 C 0.03999 0.29178 0.3928 0.0
C277 C 0.05423 0.3228 0.37899 0.0
C278 C 0.03941 0.34311 0.40787 0.0
C279 C 1.0113 0.33285 0.45067 0.0
H280 H 0.75529 0.11879 0.41973 0.0
H281 H 0.81119 0.1383 0.66091 0.0
H282 H 0.74016 0.06379 0.42424 0.0
H283 H 0.79622 0.08309 0.66451 0.0
H284 H 0.73306 0.98729 0.73688 0.0
H285 H 0.75331 0.04208 0.72361 0.0
H286 H 0.75542 0.01967 0.3841 0.0
H287 H 0.73548 0.96485 0.39705 0.0
C288 C 0.76467 0.11135 0.47277 0.0
C289 C 0.78442 0.13307 0.54019 0.0
C290 C 0.75605 0.07973 0.47501 0.0
C291 C 0.76683 0.06894 0.54517 0.0
C292 C 0.78721 0.0906 0.61047 0.0
C293 C 0.796 0.12227 0.60767 0.0
C294 C 0.73822 0.99396 0.65922 0.0
C295 C 0.73245 0.97146 0.5681 0.0
C296 C 0.74986 0.02546 0.65163 0.0
C297 C 0.75597 0.03536 0.55277 0.0
C298 C 0.7506 1.0129 0.4616 0.0
C299 C 0.73907 0.98142 0.46913 0.0
H300 H 0.74398 0.64326 0.78026 0.0
H301 H 0.78283 0.63425 0.46116 0.0
H302 H 0.71887 0.6718 0.73136 0.0
H303 H 0.75771 0.66326 0.4122 0.0
H304 H 0.67931 0.67894 0.34119 0.0
H305 H 0.70908 0.65492 0.38768 0.0
H306 H 0.72382 0.71944 0.67872 0.0
H307 H 0.69366 0.74304 0.6335 0.0
C308 C 0.74756 0.64779 0.6999 0.0
C309 C 0.7653 0.63619 0.62443 0.0
C310 C 0.73316 0.6643 0.6719 0.0
C311 C 0.73607 0.66969 0.56762 0.0
C312 C 0.75463 0.6591 0.49287 0.0
C313 C 0.7692 0.64266 0.5211 0.0
C314 C 0.68889 0.68802 0.41513 0.0
C315 C 0.68393 0.71286 0.48375 0.0
C316 C 0.70619 0.67441 0.44133 0.0
C317 C 0.71892 0.68525 0.53692 0.0
C318 C 0.71412 0.71026 0.60503 0.0
C319 C 0.69687 0.72388 0.57883 0.0
H320 H 0.121 0.73343 0.51176 0.0
H321 H 0.12039 0.74422 0.19025 0.0
H322 H 0.06973 0.7113 0.5283 0.0
H323 H 0.06894 0.72155 0.20664 0.0
H324 H 0.9823 0.64112 0.24662 0.0
H325 H 0.03295 0.66953 0.22626 0.0
H326 H 0.02765 0.72497 0.53133 0.0
H327 H 0.97685 0.69685 0.55135 0.0
C328 C 0.10994 0.73154 0.44509 0.0
C329 C 0.12483 0.7406 0.34963 0.0
C330 C 0.08054 0.71882 0.45461 0.0
C331 C 0.06535 0.71471 0.36876 0.0
C332 C 0.08014 0.72414 0.27373 0.0
C333 C 0.10958 0.73704 0.26433 0.0
C334 C 0.99181 0.65977 0.3085 0.0
C335 C 0.97555 0.66661 0.4009 0.0
C336 C 1.02085 0.67602 0.29682 0.0
C337 C 0.03425 0.69935 0.37744 0.0
C338 C 1.01792 0.70678 0.46859 0.0
C339 C 0.98886 0.69063 0.48009 0.0
H340 H 0.3468 0.84947 0.45905 0.0
H341 H 0.37067 0.91815 0.25623 0.0
H342 H 0.36191 0.88927 0.60928 0.0
H343 H 0.38285 0.95876 0.40913 0.0
H344 H 0.40685 0.02913 0.69061 0.0
H345 H 0.40893 0.98842 0.54657 0.0
H346 H 0.34376 0.92156 0.71902 0.0
H347 H 0.34406 0.96167 0.86682 0.0
C348 C 0.35557 0.87324 0.44678 0.0
C349 C 0.35766 0.88077 0.34634 0.0
C350 C 0.3638 0.89621 0.53343 0.0
C351 C 0.37296 0.92748 0.52302 0.0
C352 C 0.37621 0.93504 0.42097 0.0
C353 C 0.36902 0.91182 0.33307 0.0
C354 C 0.39379 1.00558 0.6998 0.0
C355 C 0.37491 0.99885 0.7903 0.0
C356 C 0.39457 0.98219 0.61568 0.0
C357 C 0.37606 0.95158 0.61891 0.0
C358 C 0.35858 0.94466 0.71254 0.0
C359 C 0.35835 0.96789 0.79749 0.0
H360 H 0.32696 0.72244 0.79172 0.0
H361 H 0.24758 0.69915 -0.01484 0.0
H362 H 0.31284 0.66919 0.69964 0.0
H363 H 0.23379 0.64648 0.8958 0.0
H364 H 0.20969 0.55414 0.77742 0.0
H365 H 0.22196 0.60652 0.74742 0.0
H366 H 0.30989 0.62389 0.76438 0.0
H367 H 0.29786 0.57074 0.78629 0.0
C368 C 0.30628 0.70615 0.81301 0.0
C369 C 0.28869 0.71469 0.89773 0.0
C370 C 0.2982 0.67568 0.76026 0.0
C371 C 0.27233 0.65339 0.79088 0.0
C372 C 0.25376 0.6629 0.8689 0.0
C373 C 0.26186 0.69314 0.92165 0.0
C374 C 0.23182 0.56846 0.76895 0.0
C375 C 0.25272 0.55865 0.78957 0.0
C376 C 0.23881 0.59875 0.75284 0.0
C377 C 0.26669 0.61983 0.7591 0.0
C378 C 0.28808 0.6085 0.76116 0.0
C379 C 0.28114 0.57803 0.77524 0.0
H380 H 0.47835 0.24228 0.84118 0.0
H381 H 0.45148 0.14713 0.8834 0.0
H382 H 0.52699 0.24514 0.8063 0.0
H383 H 0.50037 0.14974 0.84566 0.0
H384 H 0.59622 0.17122 0.81874 0.0
H385 H 0.54959 0.17185 0.89283 0.0
H386 H 0.55061 0.22352 0.65412 0.0
H387 H 0.59717 0.22372 0.5829 0.0
C388 C 0.48291 0.22206 0.84449 0.0
C389 C 0.46104 0.19437 0.8637 0.0
C390 C 0.51079 0.22364 0.82375 0.0
C391 C 0.51753 0.19746 0.82055 0.0
C392 C 0.49592 0.17034 0.84749 0.0
C393 C 0.4679 0.16884 0.86921 0.0
C394 C 0.58656 0.18301 0.78307 0.0
C395 C 0.60037 0.1973 0.69455 0.0
C396 C 0.55977 0.18316 0.82499 0.0
C397 C 0.54638 0.19787 0.77987 0.0
C398 C 0.56042 0.21239 0.69211 0.0
C399 C 0.58701 0.21214 0.65019 0.0
H400 H 0.46286 0.59371 0.41595 0.0
H401 H 0.45743 0.59139 0.0862 0.0
H402 H 0.41313 0.56067 0.43363 0.0
H403 H 0.40811 0.55754 0.10296 0.0
H404 H 0.3138 0.5252 0.18849 0.0
H405 H 0.36299 0.55926 0.1809 0.0
H406 H 0.38036 0.50822 0.38303 0.0
H407 H 0.33072 0.47421 0.39225 0.0
C408 C 0.45109 0.58621 0.34715 0.0
C409 C 0.46428 0.59541 0.24964 0.0
C410 C 0.4226 0.56694 0.35709 0.0
C411 C 0.40644 0.55644 0.26992 0.0
C412 C 0.4197 0.56547 0.1723 0.0
C413 C 0.44817 0.58463 0.16231 0.0
C414 C 0.32797 0.52125 0.23216 0.0
C415 C 0.31816 0.49675 0.29073 0.0
C416 C 0.35635 0.54073 0.227 0.0
C417 C 0.37587 0.53637 0.28023 0.0
C418 C 0.36595 0.51242 0.34141 0.0
C419 C 0.33745 0.49283 0.3465 0.0
H420 H 0.8361 0.48389 0.59634 0.0
H421 H 0.76396 0.46457 0.82793 0.0
H422 H 0.83792 0.4333 0.59615 0.0
H423 H 0.76578 0.41386 0.82711 0.0
H424 H 0.75457 0.31352 0.65646 0.0
H425 H 0.75613 0.36639 0.68734 0.0
H426 H 0.84584 0.40006 0.71113 0.0
H427 H 0.84427 0.34668 0.68087 0.0
C428 C 0.82079 0.46899 0.64799 0.0
C429 C 0.79973 0.47822 0.71151 0.0
C430 C 0.82199 0.44008 0.64839 0.0
C431 C 0.80194 0.41954 0.71131 0.0
C432 C 0.7814 0.42911 0.77719 0.0
C433 C 0.78042 0.45821 0.77788 0.0
C434 C 0.77464 0.33213 0.66926 0.0
C435 C 0.79934 0.32588 0.66568 0.0
C436 C 0.77547 0.36247 0.68773 0.0
C437 C 0.80109 0.38742 0.70167 0.0
C438 C 0.8258 0.38127 0.70019 0.0
C439 C 0.82488 0.35076 0.68345 0.0
H440 H 0.48426 0.86066 0.20979 0.0
H441 H 0.53187 0.8541 0.90593 0.0
H442 H 0.51952 0.85261 0.29136 0.0
H443 H 0.56685 0.8452 -0.01188 0.0
H444 H 0.58124 0.77232 0.14277 0.0
H445 H 0.55782 0.79685 0.06362 0.0
H446 H 0.5712 0.87004 0.33144 0.0
H447 H 0.59553 0.84561 0.41126 0.0
C448 C 0.5027 0.85857 0.16072 0.0
C449 C 0.50498 0.8576 0.05075 0.0
C450 C 0.52291 0.85389 0.20778 0.0
C451 C 0.54568 0.84789 0.14584 0.0
C452 C 0.54923 0.84937 0.0374 0.0
C453 C 0.52914 0.85432 -0.00963 0.0
C454 C 0.57954 0.79381 0.18494 0.0
C455 C 0.59019 0.80693 0.28382 0.0
C456 C 0.56633 0.80803 0.13873 0.0
C457 C 0.56292 0.83548 0.19091 0.0
C458 C 0.57368 0.8489 0.28949 0.0
C459 C 0.5875 0.83489 0.33515 0.0
H460 H 0.60909 0.42829 0.02018 0.0
H461 H 0.59596 0.51142 0.0005 0.0
H462 H 0.5591 0.39861 0.00266 0.0
H463 H 0.54584 0.48176 -0.0159 0.0
H464 H 0.46656 0.35292 0.01242 0.0
H465 H 0.50962 0.39058 0.08388 0.0
H466 H 0.52333 0.44221 0.83036 0.0
H467 H 0.47982 0.40479 0.75969 0.0
C468 C 0.59535 0.44025 0.01441 0.0
C469 C 0.60633 0.47202 0.01092 0.0
C470 C 0.56674 0.42337 0.00528 0.0
C471 C 0.5487 0.43795 -0.00844 0.0
C472 C 0.55938 0.47001 -0.00598 0.0
C473 C 0.58796 0.48695 0.00417 0.0
C474 C 0.47821 0.37287 0.9739 0.0
C475 C 0.46994 0.37587 0.88002 0.0
C476 C 0.50298 0.39424 0.01442 0.0
C477 C 0.51986 0.41907 0.9621 0.0
C478 C 0.51057 0.42335 0.87264 0.0
C479 C 0.48585 0.40184 0.83168 0.0
H480 H 0.28079 0.45396 0.01287 0.0
H481 H 0.21939 0.36246 0.93282 0.0
H482 H 0.27282 0.46917 0.85916 0.0
H483 H 0.21312 0.3768 0.77057 0.0
H484 H 0.17923 0.41979 0.57544 0.0
H485 H 0.19017 0.40595 0.72886 0.0
H486 H 0.27666 0.46839 0.68278 0.0
H487 H 0.26464 0.48393 0.53546 0.0
C488 C 0.2662 0.43671 0.9598 0.0
C489 C 0.25017 0.40724 -0.01449 0.0
C490 C 0.26178 0.44542 0.87079 0.0
C491 C 0.24181 0.42452 0.80333 0.0
C492 C 0.22788 0.39388 0.82327 0.0
C493 C 0.23184 0.38535 0.91466 0.0
C494 C 0.20022 0.43139 0.60167 0.0
C495 C 0.22104 0.45321 0.54599 0.0
C496 C 0.20676 0.42286 0.68741 0.0
C497 C 0.23452 0.43528 0.71659 0.0
C498 C 0.255 0.45839 0.66338 0.0
C499 C 0.24816 0.46759 0.57952 0.0
H500 H 0.83859 0.20386 0.20496 0.0
H501 H 0.76088 0.20457 0.38258 0.0
H502 H 0.81316 0.17933 0.04812 0.0
H503 H 0.73499 0.17753 0.23163 0.0
H504 H 0.75174 0.24181 0.96671 0.0
H505 H 0.74829 0.21905 0.12149 0.0
H506 H 0.77472 0.14734 0.9276 0.0
H507 H 0.77809 0.17014 0.77358 0.0
C508 C 0.81592 0.19762 0.2115 0.0
C509 C 0.80169 0.2075 0.30385 0.0
C510 C 0.80118 0.18277 0.12291 0.0
C511 C 0.77224 0.17775 0.12797 0.0
C512 C 0.75738 0.18191 0.22568 0.0
C513 C 0.77229 0.19804 0.31176 0.0
C514 C 0.75618 0.22087 0.95752 0.0
C515 C 0.76688 0.20885 0.86073 0.0
C516 C 0.75362 0.2073 0.04519 0.0
C517 C 0.7619 0.18173 0.0359 0.0
C518 C 0.76867 0.16724 0.93637 0.0
C519 C 0.77131 0.18086 0.8491 0.0
H520 H 0.65479 0.82144 0.16615 0.0
H521 H 0.65991 0.73083 0.10677 0.0
H522 H 0.63117 0.80958 0.01005 0.0
H523 H 0.63954 0.71994 0.94024 0.0
H524 H 0.5849 0.6946 0.6854 0.0
H525 H 0.60042 0.70648 0.86093 0.0
H526 H 0.6306 0.80412 0.84077 0.0
H527 H 0.6103 0.79149 0.67509 0.0
C528 C 0.65182 0.79927 0.11684 0.0
C529 C 0.65897 0.77689 0.14838 0.0
C530 C 0.6383 0.79242 0.02603 0.0
C531 C 0.63291 0.76355 0.96128 0.0
C532 C 0.64207 0.74196 -0.0104 0.0
C533 C 0.65443 0.74835 0.08366 0.0
C534 C 0.59407 0.71856 0.72091 0.0
C535 C 0.59804 0.7424 0.66533 0.0
C536 C 0.60365 0.72546 0.82054 0.0
C537 C 0.61834 0.75628 0.86411 0.0
C538 C 0.61978 0.78002 0.81135 0.0
C539 C 0.6088 0.77299 0.71457 0.0
H540 H 0.78529 0.51137 0.38979 0.0
H541 H 0.73831 0.57206 0.45982 0.0
H542 H 0.80307 0.52812 0.21936 0.0
H543 H 0.75825 0.59161 0.29591 0.0
H544 H 0.77918 0.60357 0.95511 0.0
H545 H 0.76061 0.58721 0.12321 0.0
H546 H 0.83434 0.56517 0.13168 0.0
H547 H 0.85118 0.57841 0.9552 0.0
C548 C 0.77862 0.52816 0.36775 0.0
C549 C 0.76028 0.54024 0.43701 0.0
C550 C 0.78936 0.53843 0.27108 0.0
C551 C 0.7828 0.56189 0.24307 0.0
C552 C 0.76364 0.57319 0.3121 0.0
C553 C 0.75206 0.56199 0.40682 0.0
C554 C 0.79153 0.59535 -0.00691 0.0
C555 C 0.81628 0.59155 0.94097 0.0
C556 C 0.78096 0.58616 0.091 0.0
C557 C 0.79549 0.5741 0.14207 0.0
C558 C 0.82175 0.573 0.09362 0.0
C559 C 0.83184 0.58122 -0.00676 0.0
H560 H 0.38444 0.80796 0.36858 0.0
H561 H 0.29791 0.75338 0.31345 0.0
H562 H 0.37169 0.81225 0.55843 0.0
H563 H 0.2841 0.76119 0.50043 0.0
H564 H 0.33757 0.85343 0.87111 0.0
H565 H 0.35187 0.84111 0.68451 0.0
H566 H 0.28093 0.75423 0.6666 0.0
H567 H 0.2655 0.76816 0.84815 0.0
C568 C 0.36265 0.79678 0.39735 0.0
C569 C 0.34178 0.78154 0.32695 0.0
C570 C 0.35519 0.79971 0.50614 0.0
C571 C 0.32663 0.78835 0.54585 0.0
C572 C 0.3063 0.77062 0.47448 0.0
C573 C 0.31402 0.76657 0.36651 0.0
C574 C 0.32482 0.83212 0.82578 0.0
C575 C 0.30043 0.8119 0.8736 0.0
C576 C 0.33324 0.82466 0.71932 0.0
C577 C 0.31781 0.7964 0.65944 0.0
C578 C 0.29315 0.77649 0.70812 0.0
C579 C 0.28423 0.78449 0.81296 0.0
H580 H 0.32762 0.12582 0.56305 0.0
H581 H 0.41806 0.1716 0.53819 0.0
H582 H 0.32464 0.14826 0.41682 0.0
H583 H 0.41585 0.19119 0.38242 0.0
H584 H 0.40583 0.24642 0.16608 0.0
H585 H 0.40526 0.22792 0.32857 0.0
H586 H 0.33059 0.14837 0.24416 0.0
H587 H 0.32954 0.16869 0.09166 0.0
C588 C 0.34698 0.1396 0.52264 0.0
C589 C 0.37303 0.14715 0.56103 0.0
C590 C 0.34538 0.15258 0.43855 0.0
C591 C 0.37002 0.17201 0.38771 0.0
C592 C 0.39632 0.17738 0.42164 0.0
C593 C 0.39775 0.16552 0.50896 0.0
C594 C 0.3889 0.22556 0.18505 0.0
C595 C 0.36803 0.20869 0.11608 0.0
C596 C 0.3888 0.21455 0.27677 0.0
C597 C 0.3683 0.1861 0.29866 0.0
C598 C 0.34657 0.17046 0.23191 0.0
C599 C 0.34611 0.18202 0.14317 0.0
loop_
_geom_bond_atom_site_label_1
_geom_bond_atom_site_label_2
_geom_bond_distance
_geom_bond_site_symmetry_2
_ccdc_geom_bond_type
Pr0 C2 2.880 1_556 S
Pr0 O20 2.562 1_556 S
Pr0 O21 2.490 . S
Pr0 O22 2.695 . S
Pr0 O23 2.512 . S
Pr0 O25 2.437 . S
Pr0 O28 2.436 1_556 S
Pr0 O30 2.438 . S
Pr1 C11 2.880 1_554 S
Pr1 O22 2.436 1_554 S
Pr1 O24 2.438 . S
Pr1 O26 2.562 1_554 S
Pr1 O27 2.490 . S
Pr1 O28 2.695 . S
Pr1 O29 2.512 . S
Pr1 O31 2.437 . S
C2 Pr0 2.880 1_554 S
C2 C3 1.491 . S
C2 O20 1.254 . S
C2 O21 1.225 1_554 S
C3 C2 1.491 . S
C3 C4 1.392 1_554 S
C3 C8 1.356 . S
C4 C3 1.392 1_556 S
C4 C5 1.368 . S
C4 H32 0.929 . S
C5 C4 1.368 . S
C5 C6 1.386 1_556 S
C5 H33 0.929 . S
C6 C5 1.386 1_554 S
C6 C7 1.373 . S
C7 C6 1.373 . S
C7 C8 1.409 . S
C7 H34 0.931 . S
C8 C3 1.356 . S
C8 C7 1.409 . S
C8 H35 0.930 . S
C9 O22 1.270 . S
C9 O23 1.248 . S
C10 O24 1.267 . S
C10 O25 1.278 1_554 S
C11 Pr1 2.880 1_556 S
C11 C12 1.491 . S
C11 O26 1.254 . S
C11 O27 1.225 1_556 S
C12 C11 1.491 . S
C12 C13 1.392 1_556 S
C12 C17 1.356 . S
C13 C12 1.392 1_554 S
C13 C14 1.368 . S
C13 H36 0.929 . S
C14 C13 1.368 . S
C14 C15 1.386 1_554 S
C14 H37 0.929 . S
C15 C14 1.386 1_556 S
C15 C16 1.373 . S
C16 C15 1.373 . S
C16 C17 1.409 . S
C16 H38 0.931 . S
C17 C12 1.356 . S
C17 C16 1.409 . S
C17 H39 0.930 . S
C18 O28 1.270 . S
C18 O29 1.248 . S
C19 O30 1.267 . S
C19 O31 1.278 1_556 S
O20 Pr0 2.562 1_554 S
O20 C2 1.254 . S
O21 Pr0 2.490 . S
O21 C2 1.225 1_556 S
O22 Pr0 2.695 . S
O22 Pr1 2.436 1_556 S
O22 C9 1.270 . S
O23 Pr0 2.512 . S
O23 C9 1.248 . S
O24 Pr1 2.438 . S
O24 C10 1.267 . S
O25 Pr0 2.437 . S
O25 C10 1.278 1_556 S
O26 Pr1 2.562 1_556 S
O26 C11 1.254 . S
O27 Pr1 2.490 . S
O27 C11 1.225 1_554 S
O28 Pr0 2.436 1_554 S
O28 Pr1 2.695 . S
O28 C18 1.270 . S
O29 Pr1 2.512 . S
O29 C18 1.248 . S
O30 Pr0 2.438 . S
O30 C19 1.267 . S
O31 Pr1 2.437 . S
O31 C19 1.278 1_554 S
H32 C4 0.929 . S
H33 C5 0.929 . S
H34 C7 0.931 . S
H35 C8 0.930 . S
H36 C13 0.929 . S
H37 C14 0.929 . S
H38 C16 0.931 . S
H39 C17 0.930 . S
Pr40 C42 2.880 . S
Pr40 O60 2.562 . S
Pr40 O61 2.490 . S
Pr40 O62 2.695 . S
Pr40 O63 2.512 . S
Pr40 O65 2.437 . S
Pr40 O68 2.436 1_556 S
Pr40 O70 2.438 . S
Pr41 C51 2.880 1_556 S
Pr41 O62 2.436 . S
Pr41 O64 2.438 . S
Pr41 O66 2.562 . S
Pr41 O67 2.490 1_556 S
Pr41 O68 2.695 1_556 S
Pr41 O69 2.512 1_556 S
Pr41 O71 2.437 1_556 S
C42 Pr40 2.880 . S
C42 C43 1.491 . S
C42 O60 1.254 . S
C42 O61 1.225 . S
C43 C42 1.491 . S
C43 C44 1.392 . S
C43 C48 1.356 . S
C44 C43 1.392 . S
C44 C45 1.368 . S
C44 H72 0.929 . S
C45 C44 1.368 . S
C45 C46 1.386 . S
C45 H73 0.929 . S
C46 C45 1.386 . S
C46 C47 1.373 . S
C47 C46 1.373 . S
C47 C48 1.409 . S
C47 H74 0.931 . S
C48 C43 1.356 . S
C48 C47 1.409 . S
C48 H75 0.930 . S
C49 O62 1.270 . S
C49 O63 1.248 . S
C50 O64 1.267 . S
C50 O65 1.278 . S
C51 Pr41 2.880 1_554 S
C51 C52 1.491 . S
C51 O66 1.254 1_554 S
C51 O67 1.225 . S
C52 C51 1.491 . S
C52 C53 1.392 . S
C52 C57 1.356 1_554 S
C53 C52 1.392 . S
C53 C54 1.368 . S
C53 H76 0.929 . S
C54 C53 1.368 . S
C54 C55 1.386 . S
C54 H77 0.929 . S
C55 C54 1.386 . S
C55 C56 1.373 1_554 S
C56 C55 1.373 1_556 S
C56 C57 1.409 . S
C56 H78 0.931 . S
C57 C52 1.356 1_556 S
C57 C56 1.409 . S
C57 H79 0.930 . S
C58 O68 1.270 . S
C58 O69 1.248 . S
C59 O70 1.267 1_554 S
C59 O71 1.278 . S
O60 Pr40 2.562 . S
O60 C42 1.254 . S
O61 Pr40 2.490 . S
O61 C42 1.225 . S
O62 Pr40 2.695 . S
O62 Pr41 2.436 . S
O62 C49 1.270 . S
O63 Pr40 2.512 . S
O63 C49 1.248 . S
O64 Pr41 2.438 . S
O64 C50 1.267 . S
O65 Pr40 2.437 . S
O65 C50 1.278 . S
O66 Pr41 2.562 . S
O66 C51 1.254 1_556 S
O67 Pr41 2.490 1_554 S
O67 C51 1.225 . S
O68 Pr40 2.436 1_554 S
O68 Pr41 2.695 1_554 S
O68 C58 1.270 . S
O69 Pr41 2.512 1_554 S
O69 C58 1.248 . S
O70 Pr40 2.438 . S
O70 C59 1.267 1_556 S
O71 Pr41 2.437 1_554 S
O71 C59 1.278 . S
H72 C44 0.929 . S
H73 C45 0.929 . S
H74 C47 0.931 . S
H75 C48 0.930 . S
H76 C53 0.929 . S
H77 C54 0.929 . S
H78 C56 0.931 . S
H79 C57 0.930 . S
Pr80 C82 2.880 . S
Pr80 O100 2.562 . S
Pr80 O101 2.490 . S
Pr80 O102 2.695 1_554 S
Pr80 O103 2.512 1_554 S
Pr80 O105 2.437 . S
Pr80 O108 2.436 . S
Pr80 O110 2.438 . S
Pr81 C91 2.880 1_554 S
Pr81 O102 2.436 1_554 S
Pr81 O104 2.438 . S
Pr81 O106 2.562 1_554 S
Pr81 O107 2.490 . S
Pr81 O108 2.695 . S
Pr81 O109 2.512 . S
Pr81 O111 2.437 . S
C82 Pr80 2.880 . S
C82 C83 1.491 . S
C82 O100 1.254 . S
C82 O101 1.225 . S
C83 C82 1.491 . S
C83 C84 1.392 . S
C83 C88 1.356 . S
C84 C83 1.392 . S
C84 C85 1.368 . S
C84 H112 0.929 . S
C85 C84 1.368 . S
C85 C86 1.386 . S
C85 H113 0.929 . S
C86 C85 1.386 . S
C86 C87 1.373 . S
C87 C86 1.373 . S
C87 C88 1.409 . S
C87 H114 0.931 . S
C88 C83 1.356 . S
C88 C87 1.409 . S
C88 H115 0.930 . S
C89 O102 1.270 . S
C89 O103 1.248 . S
C90 O104 1.267 . S
C90 O105 1.278 . S
C91 Pr81 2.880 1_556 S
C91 C92 1.491 . S
C91 O106 1.254 . S
C91 O107 1.225 1_556 S
C92 C91 1.491 . S
C92 C93 1.392 1_556 S
C92 C97 1.356 . S
C93 C92 1.392 1_554 S
C93 C94 1.368 1_554 S
C93 H116 0.929 . S
C94 C93 1.368 1_556 S
C94 C95 1.386 . S
C94 H117 0.929 1_556 S
C95 C94 1.386 . S
C95 C96 1.373 . S
C96 C95 1.373 . S
C96 C97 1.409 . S
C96 H118 0.931 . S
C97 C92 1.356 . S
C97 C96 1.409 . S
C97 H119 0.930 . S
C98 O108 1.270 . S
C98 O109 1.248 . S
C99 O110 1.267 . S
C99 O111 1.278 . S
O100 Pr80 2.562 . S
O100 C82 1.254 . S
O101 Pr80 2.490 . S
O101 C82 1.225 . S
O102 Pr80 2.695 1_556 S
O102 Pr81 2.436 1_556 S
O102 C89 1.270 . S
O103 Pr80 2.512 1_556 S
O103 C89 1.248 . S
O104 Pr81 2.438 . S
O104 C90 1.267 . S
O105 Pr80 2.437 . S
O105 C90 1.278 . S
O106 Pr81 2.562 1_556 S
O106 C91 1.254 . S
O107 Pr81 2.490 . S
O107 C91 1.225 1_554 S
O108 Pr80 2.436 . S
O108 Pr81 2.695 . S
O108 C98 1.270 . S
O109 Pr81 2.512 . S
O109 C98 1.248 . S
O110 Pr80 2.438 . S
O110 C99 1.267 . S
O111 Pr81 2.437 . S
O111 C99 1.278 . S
H112 C84 0.929 . S
H113 C85 0.929 . S
H114 C87 0.931 . S
H115 C88 0.930 . S
H116 C93 0.929 . S
H117 C94 0.929 1_554 S
H118 C96 0.931 . S
H119 C97 0.930 . S
Pr120 C122 2.880 . S
Pr120 O140 2.562 . S
Pr120 O141 2.490 1_556 S
Pr120 O142 2.695 1_556 S
Pr120 O143 2.512 1_556 S
Pr120 O145 2.437 1_556 S
Pr120 O148 2.436 . S
Pr120 O150 2.438 1_556 S
Pr121 C131 2.880 . S
Pr121 O142 2.436 . S
Pr121 O144 2.438 1_554 S
Pr121 O146 2.562 . S
Pr121 O147 2.490 1_554 S
Pr121 O148 2.695 1_554 S
Pr121 O149 2.512 1_554 S
Pr121 O151 2.437 1_554 S
C122 Pr120 2.880 . S
C122 C123 1.491 . S
C122 O140 1.254 . S
C122 O141 1.225 1_556 S
C123 C122 1.491 . S
C123 C124 1.392 . S
C123 C128 1.356 . S
C124 C123 1.392 . S
C124 C125 1.368 . S
C124 H152 0.929 1_556 S
C125 C124 1.368 . S
C125 C126 1.386 . S
C125 H153 0.929 . S
C126 C125 1.386 . S
C126 C127 1.373 . S
C127 C126 1.373 . S
C127 C128 1.409 . S
C127 H154 0.931 . S
C128 C123 1.356 . S
C128 C127 1.409 . S
C128 H155 0.930 . S
C129 O142 1.270 . S
C129 O143 1.248 . S
C130 O144 1.267 . S
C130 O145 1.278 1_556 S
C131 Pr121 2.880 . S
C131 C132 1.491 . S
C131 O146 1.254 . S
C131 O147 1.225 1_554 S
C132 C131 1.491 . S
C132 C133 1.392 . S
C132 C137 1.356 . S
C133 C132 1.392 . S
C133 C134 1.368 . S
C133 H156 0.929 1_554 S
C134 C133 1.368 . S
C134 C135 1.386 . S
C134 H157 0.929 . S
C135 C134 1.386 . S
C135 C136 1.373 . S
C136 C135 1.373 . S
C136 C137 1.409 . S
C136 H158 0.931 . S
C137 C132 1.356 . S
C137 C136 1.409 . S
C137 H159 0.930 . S
C138 O148 1.270 . S
C138 O149 1.248 . S
C139 O150 1.267 . S
C139 O151 1.278 1_554 S
O140 Pr120 2.562 . S
O140 C122 1.254 . S
O141 Pr120 2.490 1_554 S
O141 C122 1.225 1_554 S
O142 Pr120 2.695 1_554 S
O142 Pr121 2.436 . S
O142 C129 1.270 . S
O143 Pr120 2.512 1_554 S
O143 C129 1.248 . S
O144 Pr121 2.438 1_556 S
O144 C130 1.267 . S
O145 Pr120 2.437 1_554 S
O145 C130 1.278 1_554 S
O146 Pr121 2.562 . S
O146 C131 1.254 . S
O147 Pr121 2.490 1_556 S
O147 C131 1.225 1_556 S
O148 Pr120 2.436 . S
O148 Pr121 2.695 1_556 S
O148 C138 1.270 . S
O149 Pr121 2.512 1_556 S
O149 C138 1.248 . S
O150 Pr120 2.438 1_554 S
O150 C139 1.267 . S
O151 Pr121 2.437 1_556 S
O151 C139 1.278 1_556 S
H152 C124 0.929 1_554 S
H153 C125 0.929 . S
H154 C127 0.931 . S
H155 C128 0.930 . S
H156 C133 0.929 1_556 S
H157 C134 0.929 . S
H158 C136 0.931 . S
H159 C137 0.930 . S
Pr160 C162 2.880 . S
Pr160 O180 2.562 . S
Pr160 O181 2.490 1_554 S
Pr160 O182 2.695 1_554 S
Pr160 O183 2.512 1_554 S
Pr160 O185 2.437 . S
Pr160 O188 2.436 . S
Pr160 O190 2.438 1_554 S
Pr161 C171 2.880 . S
Pr161 O182 2.436 . S
Pr161 O184 2.438 1_556 S
Pr161 O186 2.562 . S
Pr161 O187 2.490 1_556 S
Pr161 O188 2.695 1_556 S
Pr161 O189 2.512 1_556 S
Pr161 O191 2.437 . S
C162 Pr160 2.880 . S
C162 C163 1.491 . S
C162 O180 1.254 . S
C162 O181 1.225 1_554 S
C163 C162 1.491 . S
C163 C164 1.392 . S
C163 C168 1.356 . S
C164 C163 1.392 . S
C164 C165 1.368 . S
C164 H192 0.929 1_554 S
C165 C164 1.368 . S
C165 C166 1.386 . S
C165 H193 0.929 . S
C166 C165 1.386 . S
C166 C167 1.373 . S
C167 C166 1.373 . S
C167 C168 1.409 . S
C167 H194 0.931 . S
C168 C163 1.356 . S
C168 C167 1.409 . S
C168 H195 0.930 . S
C169 O182 1.270 . S
C169 O183 1.248 . S
C170 O184 1.267 . S
C170 O185 1.278 . S
C171 Pr161 2.880 . S
C171 C172 1.491 . S
C171 O186 1.254 . S
C171 O187 1.225 1_556 S
C172 C171 1.491 . S
C172 C173 1.392 . S
C172 C177 1.356 . S
C173 C172 1.392 . S
C173 C174 1.368 . S
C173 H196 0.929 1_556 S
C174 C173 1.368 . S
C174 C175 1.386 . S
C174 H197 0.929 . S
C175 C174 1.386 . S
C175 C176 1.373 . S
C176 C175 1.373 . S
C176 C177 1.409 . S
C176 H198 0.931 . S
C177 C172 1.356 . S
C177 C176 1.409 . S
C177 H199 0.930 . S
C178 O188 1.270 . S
C178 O189 1.248 . S
C179 O190 1.267 . S
C179 O191 1.278 . S
O180 Pr160 2.562 . S
O180 C162 1.254 . S
O181 Pr160 2.490 1_556 S
O181 C162 1.225 1_556 S
O182 Pr160 2.695 1_556 S
O182 Pr161 2.436 . S
O182 C169 1.270 . S
O183 Pr160 2.512 1_556 S
O183 C169 1.248 . S
O184 Pr161 2.438 1_554 S
O184 C170 1.267 . S
O185 Pr160 2.437 . S
O185 C170 1.278 . S
O186 Pr161 2.562 . S
O186 C171 1.254 . S
O187 Pr161 2.490 1_554 S
O187 C171 1.225 1_554 S
O188 Pr160 2.436 . S
O188 Pr161 2.695 1_554 S
O188 C178 1.270 . S
O189 Pr161 2.512 1_554 S
O189 C178 1.248 . S
O190 Pr160 2.438 1_556 S
O190 C179 1.267 . S
O191 Pr161 2.437 . S
O191 C179 1.278 . S
H192 C164 0.929 1_556 S
H193 C165 0.929 . S
H194 C167 0.931 . S
H195 C168 0.930 . S
H196 C173 0.929 1_554 S
H197 C174 0.929 . S
H198 C176 0.931 . S
H199 C177 0.930 . S
Pr200 C202 2.880 . S
Pr200 O220 2.562 1_556 S
Pr200 O221 2.490 . S
Pr200 O222 2.695 . S
Pr200 O223 2.512 . S
Pr200 O225 2.437 . S
Pr200 O228 2.436 1_556 S
Pr200 O230 2.438 . S
Pr201 C211 2.880 . S
Pr201 O222 2.436 1_554 S
Pr201 O224 2.438 . S
Pr201 O226 2.562 1_554 S
Pr201 O227 2.490 . S
Pr201 O228 2.695 . S
Pr201 O229 2.512 . S
Pr201 O231 2.437 . S
C202 Pr200 2.880 . S
C202 C203 1.491 . S
C202 O220 1.254 1_556 S
C202 O221 1.225 . S
C203 C202 1.491 . S
C203 C204 1.392 . S
C203 C208 1.356 . S
C204 C203 1.392 . S
C204 C205 1.368 . S
C204 H232 0.929 . S
C205 C204 1.368 . S
C205 C206 1.386 . S
C205 H233 0.929 1_545 S
C206 C205 1.386 . S
C206 C207 1.373 . S
C207 C206 1.373 . S
C207 C208 1.409 . S
C207 H234 0.931 1_556 S
C208 C203 1.356 . S
C208 C207 1.409 . S
C208 H235 0.930 1_556 S
C209 O222 1.270 . S
C209 O223 1.248 . S
C210 O224 1.267 1_556 S
C210 O225 1.278 . S
C211 Pr201 2.880 . S
C211 C212 1.491 . S
C211 O226 1.254 1_554 S
C211 O227 1.225 . S
C212 C211 1.491 . S
C212 C213 1.392 . S
C212 C217 1.356 . S
C213 C212 1.392 . S
C213 C214 1.368 . S
C213 H236 0.929 . S
C214 C213 1.368 . S
C214 C215 1.386 . S
C214 H237 0.929 . S
C215 C214 1.386 . S
C215 C216 1.373 . S
C216 C215 1.373 . S
C216 C217 1.409 . S
C216 H238 0.931 1_554 S
C217 C212 1.356 . S
C217 C216 1.409 . S
C217 H239 0.930 1_554 S
C218 O228 1.270 . S
C218 O229 1.248 . S
C219 O230 1.267 1_554 S
C219 O231 1.278 . S
O220 Pr200 2.562 1_554 S
O220 C202 1.254 1_554 S
O221 Pr200 2.490 . S
O221 C202 1.225 . S
O222 Pr200 2.695 . S
O222 Pr201 2.436 1_556 S
O222 C209 1.270 . S
O223 Pr200 2.512 . S
O223 C209 1.248 . S
O224 Pr201 2.438 . S
O224 C210 1.267 1_554 S
O225 Pr200 2.437 . S
O225 C210 1.278 . S
O226 Pr201 2.562 1_556 S
O226 C211 1.254 1_556 S
O227 Pr201 2.490 . S
O227 C211 1.225 . S
O228 Pr200 2.436 1_554 S
O228 Pr201 2.695 . S
O228 C218 1.270 . S
O229 Pr201 2.512 . S
O229 C218 1.248 . S
O230 Pr200 2.438 . S
O230 C219 1.267 1_556 S
O231 Pr201 2.437 . S
O231 C219 1.278 . S
H232 C204 0.929 . S
H233 C205 0.929 1_565 S
H234 C207 0.931 1_554 S
H235 C208 0.930 1_554 S
H236 C213 0.929 . S
H237 C214 0.929 . S
H238 C216 0.931 1_556 S
H239 C217 0.930 1_556 S
H240 C248 0.950 . S
H241 C253 0.950 . S
H242 C250 0.950 . S
H243 C252 0.950 . S
H244 C254 0.950 . S
H245 C256 0.950 . S
H246 C258 0.950 . S
H247 C259 0.950 . S
C248 H240 0.950 . S
C248 C249 1.386 . S
C248 C250 1.391 . S
C249 C248 1.386 . S
C249 C253 1.393 . S
C250 H242 0.950 . S
C250 C248 1.391 . S
C250 C251 1.400 . S
C251 C250 1.400 . S
C251 C252 1.398 . S
C251 C257 1.491 . S
C252 H243 0.950 . S
C252 C251 1.398 . S
C252 C253 1.391 . S
C253 H241 0.950 . S
C253 C249 1.393 . S
C253 C252 1.391 . S
C254 H244 0.950 . S
C254 C255 1.386 . S
C254 C256 1.391 . S
C255 C254 1.386 . S
C255 C259 1.393 . S
C256 H245 0.950 . S
C256 C254 1.391 . S
C256 C257 1.400 . S
C257 C251 1.491 . S
C257 C256 1.400 . S
C257 C258 1.398 . S
C258 H246 0.950 . S
C258 C257 1.398 . S
C258 C259 1.391 . S
C259 H247 0.950 . S
C259 C255 1.393 . S
C259 C258 1.391 . S
H260 C268 0.950 . S
H261 C273 0.950 . S
H262 C270 0.950 . S
H263 C272 0.950 . S
H264 C274 0.950 . S
H265 C276 0.950 . S
H266 C278 0.950 . S
H267 C279 0.950 . S
C268 H260 0.950 . S
C268 C269 1.386 . S
C268 C270 1.391 . S
C269 C268 1.386 . S
C269 C273 1.393 . S
C270 H262 0.950 . S
C270 C268 1.391 . S
C270 C271 1.400 . S
C271 C270 1.400 . S
C271 C272 1.398 . S
C271 C277 1.491 . S
C272 H263 0.950 . S
C272 C271 1.398 . S
C272 C273 1.391 . S
C273 H261 0.950 . S
C273 C269 1.393 . S
C273 C272 1.391 . S
C274 H264 0.950 . S
C274 C275 1.386 . S
C274 C276 1.391 1_655 S
C275 C274 1.386 . S
C275 C279 1.393 1_655 S
C276 H265 0.950 . S
C276 C274 1.391 1_455 S
C276 C277 1.400 . S
C277 C271 1.491 . S
C277 C276 1.400 . S
C277 C278 1.398 . S
C278 H266 0.950 . S
C278 C277 1.398 . S
C278 C279 1.391 . S
C279 H267 0.950 . S
C279 C275 1.393 1_455 S
C279 C278 1.391 . S
H280 C288 0.950 . S
H281 C293 0.950 . S
H282 C290 0.950 . S
H283 C292 0.950 . S
H284 C294 0.950 . S
H285 C296 0.950 . S
H286 C298 0.950 . S
H287 C299 0.950 . S
C288 H280 0.950 . S
C288 C289 1.386 . S
C288 C290 1.391 . S
C289 C288 1.386 . S
C289 C293 1.393 . S
C290 H282 0.950 . S
C290 C288 1.391 . S
C290 C291 1.400 . S
C291 C290 1.400 . S
C291 C292 1.398 . S
C291 C297 1.491 . S
C292 H283 0.950 . S
C292 C291 1.398 . S
C292 C293 1.391 . S
C293 H281 0.950 . S
C293 C289 1.393 . S
C293 C292 1.391 . S
C294 H284 0.950 . S
C294 C295 1.386 . S
C294 C296 1.391 1_565 S
C295 C294 1.386 . S
C295 C299 1.393 . S
C296 H285 0.950 . S
C296 C294 1.391 1_545 S
C296 C297 1.400 . S
C297 C291 1.491 . S
C297 C296 1.400 . S
C297 C298 1.398 . S
C298 H286 0.950 . S
C298 C297 1.398 . S
C298 C299 1.391 1_545 S
C299 H287 0.950 . S
C299 C295 1.393 . S
C299 C298 1.391 1_565 S
H300 C308 0.950 . S
H301 C313 0.950 . S
H302 C310 0.950 . S
H303 C312 0.950 . S
H304 C314 0.950 . S
H305 C316 0.950 . S
H306 C318 0.950 . S
H307 C319 0.950 . S
C308 H300 0.950 . S
C308 C309 1.386 . S
C308 C310 1.391 . S
C309 C308 1.386 . S
C309 C313 1.393 . S
C310 H302 0.950 . S
C310 C308 1.391 . S
C310 C311 1.400 . S
C311 C310 1.400 . S
C311 C312 1.398 . S
C311 C317 1.491 . S
C312 H303 0.950 . S
C312 C311 1.398 . S
C312 C313 1.391 . S
C313 H301 0.950 . S
C313 C309 1.393 . S
C313 C312 1.391 . S
C314 H304 0.950 . S
C314 C315 1.386 . S
C314 C316 1.391 . S
C315 C314 1.386 . S
C315 C319 1.393 . S
C316 H305 0.950 . S
C316 C314 1.391 . S
C316 C317 1.400 . S
C317 C311 1.491 . S
C317 C316 1.400 . S
C317 C318 1.398 . S
C318 H306 0.950 . S
C318 C317 1.398 . S
C318 C319 1.391 . S
C319 H307 0.950 . S
C319 C315 1.393 . S
C319 C318 1.391 . S
H320 C328 0.950 . S
H321 C333 0.950 . S
H322 C330 0.950 . S
H323 C332 0.994 . S
H324 C334 0.950 . S
H325 C336 0.950 . S
H326 C338 0.950 . S
H327 C339 0.950 . S
C328 H320 0.950 . S
C328 C329 1.386 . S
C328 C330 1.391 . S
C329 C328 1.386 . S
C329 C333 1.393 . S
C330 H322 0.950 . S
C330 C328 1.391 . S
C330 C331 1.400 . S
C331 C330 1.400 . S
C331 C332 1.398 . S
C331 C337 1.468 1_455 S
C332 H323 0.994 . S
C332 C331 1.398 . S
C332 C333 1.391 . S
C333 H321 0.950 . S
C333 C329 1.393 . S
C333 C332 1.391 . S
C334 H324 0.950 . S
C334 C335 1.386 . S
C334 C336 1.391 . S
C335 C334 1.386 . S
C335 C339 1.393 . S
C336 H325 0.950 . S
C336 C334 1.391 . S
C336 C337 1.432 . S
C337 C331 1.468 1_655 S
C337 C336 1.432 . S
C337 C338 1.391 1_655 S
C338 H326 0.950 . S
C338 C337 1.391 1_455 S
C338 C339 1.391 1_455 S
C339 H327 0.950 . S
C339 C335 1.393 . S
C339 C338 1.391 1_655 S
H340 C348 0.950 . S
H341 C353 0.950 . S
H342 C350 0.950 . S
H343 C352 0.950 . S
H344 C354 0.950 . S
H345 C356 0.950 . S
H346 C358 0.950 . S
H347 C359 0.950 . S
C348 H340 0.950 . S
C348 C349 1.386 . S
C348 C350 1.391 . S
C349 C348 1.386 . S
C349 C353 1.393 . S
C350 H342 0.950 . S
C350 C348 1.391 . S
C350 C351 1.400 . S
C351 C350 1.400 . S
C351 C352 1.398 . S
C351 C357 1.491 . S
C352 H343 0.950 . S
C352 C351 1.398 . S
C352 C353 1.391 . S
C353 H341 0.950 . S
C353 C349 1.393 . S
C353 C352 1.391 . S
C354 H344 0.950 . S
C354 C355 1.386 . S
C354 C356 1.391 . S
C355 C354 1.386 . S
C355 C359 1.393 . S
C356 H345 0.950 . S
C356 C354 1.391 . S
C356 C357 1.400 . S
C357 C351 1.491 . S
C357 C356 1.400 . S
C357 C358 1.398 . S
C358 H346 0.950 . S
C358 C357 1.398 . S
C358 C359 1.391 . S
C359 H347 0.950 . S
C359 C355 1.393 . S
C359 C358 1.391 . S
H360 C368 0.950 1_554 S
H361 C373 0.950 . S
H362 C370 0.950 1_554 S
H363 C372 0.950 . S
H364 C374 0.950 . S
H365 C376 0.950 . S
H366 C378 0.950 1_554 S
H367 C379 0.950 1_554 S
C368 H360 0.950 1_556 S
C368 C369 1.386 . S
C368 C370 1.391 . S
C369 C368 1.386 . S
C369 C373 1.393 . S
C370 H362 0.950 1_556 S
C370 C368 1.391 . S
C370 C371 1.400 . S
C371 C370 1.400 . S
C371 C372 1.398 . S
C371 C377 1.491 . S
C372 H363 0.950 . S
C372 C371 1.398 . S
C372 C373 1.391 . S
C373 H361 0.950 . S
C373 C369 1.393 . S
C373 C372 1.391 . S
C374 H364 0.950 . S
C374 C375 1.386 . S
C374 C376 1.391 . S
C375 C374 1.386 . S
C375 C379 1.393 . S
C376 H365 0.950 . S
C376 C374 1.391 . S
C376 C377 1.400 . S
C377 C371 1.491 . S
C377 C376 1.400 . S
C377 C378 1.398 . S
C378 H366 0.950 1_556 S
C378 C377 1.398 . S
C378 C379 1.391 . S
C379 H367 0.950 1_556 S
C379 C375 1.393 . S
C379 C378 1.391 . S
H380 C388 0.950 1_556 S
H381 C393 0.950 . S
H382 C390 0.950 1_556 S
H383 C392 0.950 . S
H384 C394 0.950 . S
H385 C396 0.950 . S
H386 C398 0.950 1_556 S
H387 C399 0.950 . S
C388 H380 0.950 1_554 S
C388 C389 1.386 . S
C388 C390 1.391 . S
C389 C388 1.386 . S
C389 C393 1.393 . S
C390 H382 0.950 1_554 S
C390 C388 1.391 . S
C390 C391 1.400 . S
C391 C390 1.400 . S
C391 C392 1.398 . S
C391 C397 1.491 . S
C392 H383 0.950 . S
C392 C391 1.398 . S
C392 C393 1.391 . S
C393 H381 0.950 . S
C393 C389 1.393 . S
C393 C392 1.391 . S
C394 H384 0.950 . S
C394 C395 1.386 . S
C394 C396 1.391 . S
C395 C394 1.386 . S
C395 C399 1.393 . S
C396 H385 0.950 . S
C396 C394 1.391 . S
C396 C397 1.400 . S
C397 C391 1.491 . S
C397 C396 1.400 . S
C397 C398 1.398 . S
C398 H386 0.950 1_554 S
C398 C397 1.398 . S
C398 C399 1.391 . S
C399 H387 0.950 . S
C399 C395 1.393 . S
C399 C398 1.391 . S
H400 C408 0.950 . S
H401 C413 0.950 . S
H402 C410 0.950 . S
H403 C412 0.950 . S
H404 C414 0.950 . S
H405 C416 0.950 . S
H406 C418 0.950 . S
H407 C419 0.950 1_554 S
C408 H400 0.950 . S
C408 C409 1.386 . S
C408 C410 1.391 . S
C409 C408 1.386 . S
C409 C413 1.393 . S
C410 H402 0.950 . S
C410 C408 1.391 . S
C410 C411 1.400 . S
C411 C410 1.400 . S
C411 C412 1.398 . S
C411 C417 1.491 . S
C412 H403 0.950 . S
C412 C411 1.398 . S
C412 C413 1.391 . S
C413 H401 0.950 . S
C413 C409 1.393 . S
C413 C412 1.391 . S
C414 H404 0.950 . S
C414 C415 1.386 . S
C414 C416 1.391 . S
C415 C414 1.386 . S
C415 C419 1.393 . S
C416 H405 0.950 . S
C416 C414 1.391 . S
C416 C417 1.400 . S
C417 C411 1.491 . S
C417 C416 1.400 . S
C417 C418 1.398 . S
C418 H406 0.950 . S
C418 C417 1.398 . S
C418 C419 1.391 . S
C419 H407 0.950 1_556 S
C419 C415 1.393 . S
C419 C418 1.391 . S
H420 C428 0.950 . S
H421 C433 0.950 . S
H422 C430 0.950 . S
H423 C432 0.950 . S
H424 C434 0.950 . S
H425 C436 0.950 . S
H426 C438 0.950 . S
H427 C439 0.950 . S
C428 H420 0.950 . S
C428 C429 1.386 . S
C428 C430 1.391 . S
C429 C428 1.386 . S
C429 C433 1.393 1_554 S
C430 H422 0.950 . S
C430 C428 1.391 . S
C430 C431 1.400 . S
C431 C430 1.400 . S
C431 C432 1.398 1_554 S
C431 C437 1.491 . S
C432 H423 0.950 . S
C432 C431 1.398 1_556 S
C432 C433 1.391 . S
C433 H421 0.950 . S
C433 C429 1.393 1_556 S
C433 C432 1.391 . S
C434 H424 0.950 . S
C434 C435 1.386 1_556 S
C434 C436 1.391 . S
C435 C434 1.386 1_554 S
C435 C439 1.393 . S
C436 H425 0.950 . S
C436 C434 1.391 . S
C436 C437 1.400 1_556 S
C437 C431 1.491 . S
C437 C436 1.400 1_554 S
C437 C438 1.398 . S
C438 H426 0.950 . S
C438 C437 1.398 . S
C438 C439 1.391 . S
C439 H427 0.950 . S
C439 C435 1.393 . S
C439 C438 1.391 . S
H440 C448 0.950 . S
H441 C453 0.950 . S
H442 C450 0.950 1_554 S
H443 C452 0.950 . S
H444 C454 0.950 . S
H445 C456 0.950 . S
H446 C458 0.950 . S
H447 C459 0.950 . S
C448 H440 0.950 . S
C448 C449 1.386 . S
C448 C450 1.391 . S
C449 C448 1.386 . S
C449 C453 1.393 . S
C450 H442 0.950 1_556 S
C450 C448 1.391 . S
C450 C451 1.400 . S
C451 C450 1.400 . S
C451 C452 1.398 . S
C451 C457 1.491 . S
C452 H443 0.950 . S
C452 C451 1.398 . S
C452 C453 1.391 . S
C453 H441 0.950 . S
C453 C449 1.393 . S
C453 C452 1.391 . S
C454 H444 0.950 . S
C454 C455 1.386 . S
C454 C456 1.391 . S
C455 C454 1.386 . S
C455 C459 1.393 1_556 S
C456 H445 0.950 . S
C456 C454 1.391 . S
C456 C457 1.400 . S
C457 C451 1.491 . S
C457 C456 1.400 . S
C457 C458 1.398 1_556 S
C458 H446 0.950 . S
C458 C457 1.398 1_554 S
C458 C459 1.391 . S
C459 H447 0.950 . S
C459 C455 1.393 1_554 S
C459 C458 1.391 . S
H460 C468 0.950 . S
H461 C473 0.950 . S
H462 C470 0.950 1_556 S
H463 C472 0.950 . S
H464 C474 0.950 . S
H465 C476 0.950 . S
H466 C478 0.950 1_556 S
H467 C479 0.950 1_556 S
C468 H460 0.950 . S
C468 C469 1.386 . S
C468 C470 1.391 . S
C469 C468 1.386 . S
C469 C473 1.393 . S
C470 H462 0.950 1_554 S
C470 C468 1.391 . S
C470 C471 1.400 . S
C471 C470 1.400 . S
C471 C472 1.398 . S
C471 C477 1.491 . S
C472 H463 0.950 . S
C472 C471 1.398 . S
C472 C473 1.391 . S
C473 H461 0.950 . S
C473 C469 1.393 . S
C473 C472 1.391 . S
C474 H464 0.950 . S
C474 C475 1.386 . S
C474 C476 1.391 . S
C475 C474 1.386 . S
C475 C479 1.393 . S
C476 H465 0.950 . S
C476 C474 1.391 . S
C476 C477 1.400 . S
C477 C471 1.491 . S
C477 C476 1.400 . S
C477 C478 1.398 . S
C478 H466 0.950 1_554 S
C478 C477 1.398 . S
C478 C479 1.391 . S
C479 H467 0.950 1_554 S
C479 C475 1.393 . S
C479 C478 1.391 . S
H480 C488 0.950 . S
H481 C493 0.950 . S
H482 C490 0.950 . S
H483 C492 0.950 . S
H484 C494 0.950 . S
H485 C496 0.950 . S
H486 C498 0.950 . S
H487 C499 0.950 . S
C488 H480 0.950 . S
C488 C489 1.386 . S
C488 C490 1.391 . S
C489 C488 1.386 . S
C489 C493 1.393 . S
C490 H482 0.950 . S
C490 C488 1.391 . S
C490 C491 1.400 . S
C491 C490 1.400 . S
C491 C492 1.398 . S
C491 C497 1.491 . S
C492 H483 0.950 . S
C492 C491 1.398 . S
C492 C493 1.391 . S
C493 H481 0.950 . S
C493 C489 1.393 . S
C493 C492 1.391 . S
C494 H484 0.950 . S
C494 C495 1.386 . S
C494 C496 1.391 . S
C495 C494 1.386 . S
C495 C499 1.393 . S
C496 H485 0.950 . S
C496 C494 1.391 . S
C496 C497 1.400 . S
C497 C491 1.491 . S
C497 C496 1.400 . S
C497 C498 1.398 . S
C498 H486 0.950 . S
C498 C497 1.398 . S
C498 C499 1.391 . S
C499 H487 0.950 . S
C499 C495 1.393 . S
C499 C498 1.391 . S
H500 C508 0.950 . S
H501 C513 0.950 . S
H502 C510 0.950 . S
H503 C512 0.950 . S
H504 C514 0.950 . S
H505 C516 0.950 . S
H506 C518 0.950 . S
H507 C519 0.950 . S
C508 H500 0.950 . S
C508 C509 1.386 . S
C508 C510 1.391 . S
C509 C508 1.386 . S
C509 C513 1.393 . S
C510 H502 0.950 . S
C510 C508 1.391 . S
C510 C511 1.400 . S
C511 C510 1.400 . S
C511 C512 1.398 . S
C511 C517 1.491 . S
C512 H503 0.950 . S
C512 C511 1.398 . S
C512 C513 1.391 . S
C513 H501 0.950 . S
C513 C509 1.393 . S
C513 C512 1.391 . S
C514 H504 0.950 . S
C514 C515 1.386 . S
C514 C516 1.391 . S
C515 C514 1.386 . S
C515 C519 1.393 . S
C516 H505 0.950 . S
C516 C514 1.391 . S
C516 C517 1.400 . S
C517 C511 1.491 . S
C517 C516 1.400 . S
C517 C518 1.398 . S
C518 H506 0.950 . S
C518 C517 1.398 . S
C518 C519 1.391 . S
C519 H507 0.950 . S
C519 C515 1.393 . S
C519 C518 1.391 . S
H520 C528 0.950 . S
H521 C533 0.950 . S
H522 C530 0.950 . S
H523 C532 0.950 . S
H524 C534 0.950 . S
H525 C536 0.950 . S
H526 C538 0.950 . S
H527 C539 0.950 . S
C528 H520 0.950 . S
C528 C529 1.386 . S
C528 C530 1.391 . S
C529 C528 1.386 . S
C529 C533 1.393 . S
C530 H522 0.950 . S
C530 C528 1.391 . S
C530 C531 1.400 . S
C531 C530 1.400 . S
C531 C532 1.398 . S
C531 C537 1.491 . S
C532 H523 0.950 . S
C532 C531 1.398 . S
C532 C533 1.391 . S
C533 H521 0.950 . S
C533 C529 1.393 . S
C533 C532 1.391 . S
C534 H524 0.950 . S
C534 C535 1.386 . S
C534 C536 1.391 . S
C535 C534 1.386 . S
C535 C539 1.393 . S
C536 H525 0.950 . S
C536 C534 1.391 . S
C536 C537 1.400 . S
C537 C531 1.491 . S
C537 C536 1.400 . S
C537 C538 1.398 . S
C538 H526 0.950 . S
C538 C537 1.398 . S
C538 C539 1.391 . S
C539 H527 0.950 . S
C539 C535 1.393 . S
C539 C538 1.391 . S
H540 C548 0.950 . S
H541 C553 0.950 . S
H542 C550 0.950 . S
H543 C552 0.950 . S
H544 C554 0.950 . S
H545 C556 0.950 . S
H546 C558 0.950 . S
H547 C559 0.950 . S
C548 H540 0.950 . S
C548 C549 1.386 . S
C548 C550 1.391 . S
C549 C548 1.386 . S
C549 C553 1.393 . S
C550 H542 0.950 . S
C550 C548 1.391 . S
C550 C551 1.400 . S
C551 C550 1.400 . S
C551 C552 1.398 . S
C551 C557 1.491 . S
C552 H543 0.950 . S
C552 C551 1.398 . S
C552 C553 1.391 . S
C553 H541 0.950 . S
C553 C549 1.393 . S
C553 C552 1.391 . S
C554 H544 0.950 . S
C554 C555 1.386 . S
C554 C556 1.391 . S
C555 C554 1.386 . S
C555 C559 1.393 . S
C556 H545 0.950 . S
C556 C554 1.391 . S
C556 C557 1.400 . S
C557 C551 1.491 . S
C557 C556 1.400 . S
C557 C558 1.398 . S
C558 H546 0.950 . S
C558 C557 1.398 . S
C558 C559 1.391 . S
C559 H547 0.950 . S
C559 C555 1.393 . S
C559 C558 1.391 . S
H560 C568 0.950 . S
H561 C573 0.950 . S
H562 C570 0.950 . S
H563 C572 0.950 . S
H564 C574 0.950 . S
H565 C576 0.950 . S
H566 C578 0.950 . S
H567 C579 0.950 . S
C568 H560 0.950 . S
C568 C569 1.386 . S
C568 C570 1.391 . S
C569 C568 1.386 . S
C569 C573 1.393 . S
C570 H562 0.950 . S
C570 C568 1.391 . S
C570 C571 1.400 . S
C571 C570 1.400 . S
C571 C572 1.398 . S
C571 C577 1.491 . S
C572 H563 0.950 . S
C572 C571 1.398 . S
C572 C573 1.391 . S
C573 H561 0.950 . S
C573 C569 1.393 . S
C573 C572 1.391 . S
C574 H564 0.950 . S
C574 C575 1.386 . S
C574 C576 1.391 . S
C575 C574 1.386 . S
C575 C579 1.393 . S
C576 H565 0.950 . S
C576 C574 1.391 . S
C576 C577 1.400 . S
C577 C571 1.491 . S
C577 C576 1.400 . S
C577 C578 1.398 . S
C578 H566 0.950 . S
C578 C577 1.398 . S
C578 C579 1.391 . S
C579 H567 0.950 . S
C579 C575 1.393 . S
C579 C578 1.391 . S
H580 C588 0.950 . S
H581 C593 0.950 . S
H582 C590 0.950 . S
H583 C592 0.950 . S
H584 C594 0.950 . S
H585 C596 0.950 . S
H586 C598 0.950 . S
H587 C599 0.950 . S
C588 H580 0.950 . S
C588 C589 1.386 . S
C588 C590 1.391 . S
C589 C588 1.386 . S
C589 C593 1.393 . S
C590 H582 0.950 . S
C590 C588 1.391 . S
C590 C591 1.400 . S
C591 C590 1.400 . S
C591 C592 1.398 . S
C591 C597 1.491 . S
C592 H583 0.950 . S
C592 C591 1.398 . S
C592 C593 1.391 . S
C593 H581 0.950 . S
C593 C589 1.393 . S
C593 C592 1.391 . S
C594 H584 0.950 . S
C594 C595 1.386 . S
C594 C596 1.391 . S
C595 C594 1.386 . S
C595 C599 1.393 . S
C596 H585 0.950 . S
C596 C594 1.391 . S
C596 C597 1.400 . S
C597 C591 1.491 . S
C597 C596 1.400 . S
C597 C598 1.398 . S
C598 H586 0.950 . S
C598 C597 1.398 . S
C598 C599 1.391 . S
C599 H587 0.950 . S
C599 C595 1.393 . S
C599 C598 1.391 . S
C249 C210 2.598 . S
C255 C6 2.568 . S
C269 C10 3.704 . S
C275 C46 3.625 . S
C289 C50 3.578 . S
C295 C86 3.369 . S
C309 C130 3.105 . S
C315 C90 3.109 . S
C329 C166 2.401 . S
C335 C126 2.256 . S
C349 C170 3.258 . S
C355 C206 2.847 1_565 S
C369 C179 1.201 . S
C375 C15 1.258 . S
C389 C219 2.463 . S
C395 C55 2.399 . S
C409 C95 3.178 . S
C415 C19 3.196 . S
C429 C139 3.708 . S
C435 C59 3.730 . S
C449 C175 2.010 . S
C455 C99 2.094 1_556 S
C469 C135 0.845 . S
C475 C215 0.848 . S
C489 C9 0.418 . S
C495 C18 0.418 . S
C509 C49 0.534 . S
C515 C58 0.534 . S
C529 C89 0.547 . S
C535 C98 0.547 . S
C549 C138 0.544 . S
C555 C129 0.544 . S
C569 C178 0.314 . S
C575 C169 0.314 . S
C589 C209 0.576 . S
C595 C218 0.576 . S
