# Generated by pormake.
# Topology afi, (4)-cn, num edge types: 1
# Building blocks:
#     Node 0, Type 0, BuildingBlock: CEKHIL_clean_sbu_0, # of connection points: 4
#     Node 1, Type 0, BuildingBlock: CEKHIL_clean_sbu_0, # of connection points: 4
#     Node 2, Type 0, BuildingBlock: CEKHIL_clean_sbu_0, # of connection points: 4
#     Node 3, Type 0, BuildingBlock: CEKHIL_clean_sbu_0, # of connection points: 4
#     Node 4, Type 0, BuildingBlock: CEKHIL_clean_sbu_0, # of connection points: 4
#     Node 5, Type 0, BuildingBlock: CEKHIL_clean_sbu_0, # of connection points: 4
#     Node 6, Type 0, BuildingBlock: CEKHIL_clean_sbu_0, # of connection points: 4
#     Node 7, Type 0, BuildingBlock: CEKHIL_clean_sbu_0, # of connection points: 4
#     Node 8, Type 0, BuildingBlock: CEKHIL_clean_sbu_0, # of connection points: 4
#     Node 9, Type 0, BuildingBlock: CEKHIL_clean_sbu_0, # of connection points: 4
#     Node 10, Type 0, BuildingBlock: CEKHIL_clean_sbu_0, # of connection points: 4
#     Node 11, Type 0, BuildingBlock: CEKHIL_clean_sbu_0, # of connection points: 4
#     Node 12, Type 0, BuildingBlock: CEKHIL_clean_sbu_0, # of connection points: 4
#     Node 13, Type 0, BuildingBlock: CEKHIL_clean_sbu_0, # of connection points: 4
#     Node 14, Type 0, BuildingBlock: CEKHIL_clean_sbu_0, # of connection points: 4
#     Node 15, Type 0, BuildingBlock: CEKHIL_clean_sbu_0, # of connection points: 4
#     Node 16, Type 0, BuildingBlock: CEKHIL_clean_sbu_0, # of connection points: 4
#     Node 17, Type 0, BuildingBlock: CEKHIL_clean_sbu_0, # of connection points: 4
#     Node 18, Type 0, BuildingBlock: CEKHIL_clean_sbu_0, # of connection points: 4
#     Node 19, Type 0, BuildingBlock: CEKHIL_clean_sbu_0, # of connection points: 4
#     Node 20, Type 0, BuildingBlock: CEKHIL_clean_sbu_0, # of connection points: 4
#     Node 21, Type 0, BuildingBlock: CEKHIL_clean_sbu_0, # of connection points: 4
#     Node 22, Type 0, BuildingBlock: CEKHIL_clean_sbu_0, # of connection points: 4
#     Node 23, Type 0, BuildingBlock: CEKHIL_clean_sbu_0, # of connection points: 4
#     Edge 24, Type (0, 0), None
#     Edge 25, Type (0, 0), None
#     Edge 26, Type (0, 0), None
#     Edge 27, Type (0, 0), None
#     Edge 28, Type (0, 0), None
#     Edge 29, Type (0, 0), None
#     Edge 30, Type (0, 0), None
#     Edge 31, Type (0, 0), None
#     Edge 32, Type (0, 0), None
#     Edge 33, Type (0, 0), None
#     Edge 34, Type (0, 0), None
#     Edge 35, Type (0, 0), None
#     Edge 36, Type (0, 0), None
#     Edge 37, Type (0, 0), None
#     Edge 38, Type (0, 0), None
#     Edge 39, Type (0, 0), None
#     Edge 40, Type (0, 0), None
#     Edge 41, Type (0, 0), None
#     Edge 42, Type (0, 0), None
#     Edge 43, Type (0, 0), None
#     Edge 44, Type (0, 0), None
#     Edge 45, Type (0, 0), None
#     Edge 46, Type (0, 0), None
#     Edge 47, Type (0, 0), None
#     Edge 48, Type (0, 0), None
#     Edge 49, Type (0, 0), None
#     Edge 50, Type (0, 0), None
#     Edge 51, Type (0, 0), None
#     Edge 52, Type (0, 0), None
#     Edge 53, Type (0, 0), None
#     Edge 54, Type (0, 0), None
#     Edge 55, Type (0, 0), None
#     Edge 56, Type (0, 0), None
#     Edge 57, Type (0, 0), None
#     Edge 58, Type (0, 0), None
#     Edge 59, Type (0, 0), None
#     Edge 60, Type (0, 0), None
#     Edge 61, Type (0, 0), None
#     Edge 62, Type (0, 0), None
#     Edge 63, Type (0, 0), None
#     Edge 64, Type (0, 0), None
#     Edge 65, Type (0, 0), None
#     Edge 66, Type (0, 0), None
#     Edge 67, Type (0, 0), None
#     Edge 68, Type (0, 0), None
#     Edge 69, Type (0, 0), None
#     Edge 70, Type (0, 0), None
#     Edge 71, Type (0, 0), None
# Relax obj value: 0.092
# Max RMSD: 0.105
# Mean RMSD: 0.105
data_MOF--net-afi--node1-CEKHIL_clean_sbu_0--edge1-none
_symmetry_space_group_name_H-M    P1
_symmetry_Int_Tables_number       1
_symmetry_cell_setting            triclinic
loop_
_symmetry_equiv_pos_as_xyz
'x, y, z'
_cell_length_a     29.622766
_cell_length_b     29.620294
_cell_length_c     17.072009
_cell_angle_alpha  89.941859
_cell_angle_beta   89.948593
_cell_angle_gamma 119.99018
loop_
_atom_site_label
_atom_site_type_symbol
_atom_site_fract_x
_atom_site_fract_y
_atom_site_fract_z
_atom_type_partial_charge
Co0 Co 0.50325 0.167 0.20454 0.0
O1 O 0.53299 0.24131 0.19241 0.0
O2 O 0.45778 0.18981 0.25109 0.0
C3 C 0.57847 0.17101 0.24373 0.0
O4 O 0.46291 0.08921 0.23373 0.0
Co5 Co 0.54502 0.10797 0.10042 0.0
O6 O 0.4915 0.04569 0.15927 0.0
C7 C 0.49581 0.15886 0.03802 0.0
C8 C 0.49338 0.23679 0.23129 0.0
C9 C 0.46184 0.04679 0.21277 0.0
O10 O 0.46766 0.15258 0.09865 0.0
O11 O 0.54194 0.16797 0.04965 0.0
O12 O 0.54998 0.17889 0.29383 0.0
O13 O 0.56305 0.16537 0.17224 0.0
Co14 Co 0.35998 0.49828 0.20593 0.0
O15 O 0.31412 0.52618 0.19198 0.0
O16 O 0.29265 0.45267 0.25467 0.0
C17 C 0.43046 0.57487 0.24206 0.0
O18 O 0.39876 0.45993 0.23739 0.0
Co19 Co 0.45964 0.53996 0.09966 0.0
O20 O 0.47204 0.4912 0.16483 0.0
C21 C 0.3586 0.48452 0.03836 0.0
C22 C 0.28009 0.48709 0.23299 0.0
C23 C 0.44154 0.46126 0.21833 0.0
O24 O 0.33842 0.45976 0.10233 0.0
O25 O 0.39596 0.53125 0.04312 0.0
O26 O 0.39458 0.54685 0.29311 0.0
O27 O 0.42039 0.55831 0.17108 0.0
Co28 Co 0.88888 0.35609 0.20377 0.0
O29 O 0.81522 0.30897 0.19237 0.0
O30 O 0.86907 0.29 0.25508 0.0
C31 C 0.88159 0.42609 0.23876 0.0
O32 O 0.96582 0.39528 0.23467 0.0
Co33 Co 0.94614 0.45461 0.09789 0.0
O34 O 1.00694 0.4696 0.16502 0.0
C35 C 0.90374 0.35285 0.03316 0.0
C36 C 0.82162 0.27641 0.2352 0.0
C37 C 1.00673 0.43878 0.2174 0.0
O38 O 0.90553 0.33366 0.10012 0.0
O39 O 0.8996 0.3936 0.0296 0.0
O40 O 0.87492 0.39095 0.29038 0.0
O41 O 0.88782 0.4157 0.16778 0.0
Co42 Co 0.55792 0.88987 0.20503 0.0
O43 O 0.52443 0.81483 0.20545 0.0
O44 O 0.60225 0.86723 0.25586 0.0
C45 C 0.48544 0.89107 0.2422 0.0
O46 O 0.60339 0.96922 0.2252 0.0
Co47 Co 0.52872 0.95452 0.10152 0.0
O48 O 0.55223 1.00147 0.19181 0.0
C49 C 0.59161 0.9159 0.0343 0.0
C50 C 0.5649 0.81997 0.24252 0.0
C51 C 0.58898 1.00363 0.23231 0.0
O52 O 0.58803 0.89028 0.09724 0.0
O53 O 0.58543 0.95544 0.03639 0.0
O54 O 0.51507 0.88649 0.2941 0.0
O55 O 0.49905 0.89309 0.16968 0.0
Co56 Co 0.69327 0.55469 0.20448 0.0
O57 O 0.73391 0.52008 0.20508 0.0
O58 O 0.76045 0.59806 0.25548 0.0
C59 C 0.61866 0.48306 0.24119 0.0
O60 O 0.66051 0.60134 0.22491 0.0
Co61 Co 0.59961 0.52644 0.09955 0.0
O62 O 0.57738 0.55316 0.18749 0.0
C63 C 0.70144 0.58661 0.03338 0.0
C64 C 0.76972 0.56029 0.24201 0.0
C65 C 0.61209 0.58917 0.2289 0.0
O66 O 0.72367 0.58456 0.09698 0.0
O67 O 0.65672 0.58277 0.03561 0.0
O68 O 0.6531 0.51211 0.29319 0.0
O69 O 0.63064 0.49656 0.16873 0.0
Co70 Co 0.16566 0.68874 0.20507 0.0
O71 O 0.24115 0.72907 0.20218 0.0
O72 O 0.19099 0.75663 0.25434 0.0
C73 C 0.16234 0.61406 0.24238 0.0
O74 O 0.0864 0.6564 0.22908 0.0
Co75 Co 0.09848 0.59371 0.10177 0.0
O76 O 0.04966 0.57332 0.18985 0.0
C77 C 0.13698 0.69457 0.037 0.0
C78 C 0.23772 0.76562 0.23862 0.0
C79 C 0.04916 0.60824 0.23191 0.0
O80 O 0.16437 0.71816 0.09757 0.0
O81 O 0.09498 0.65145 0.04573 0.0
O82 O 0.16926 0.64934 0.29387 0.0
O83 O 0.15997 0.62542 0.16985 0.0
Co84 Co 0.88605 0.54987 0.29783 0.0
O85 O 0.81186 0.52078 0.31027 0.0
O86 O 0.86364 0.59551 0.25062 0.0
C87 C 0.88122 0.47403 0.25974 0.0
O88 O 0.96382 0.5894 0.26831 0.0
Co89 Co 0.94402 0.50683 0.40303 0.0
O90 O 1.00601 0.55863 0.34159 0.0
C91 C 0.89433 0.55753 0.46372 0.0
C92 C 0.8166 0.56028 0.27085 0.0
C93 C 1.00559 0.58888 0.28842 0.0
O94 O 0.90104 0.58602 0.40338 0.0
O95 O 0.88386 0.51106 0.45111 0.0
O96 O 0.87356 0.50244 0.20916 0.0
O97 O 0.88708 0.48991 0.33093 0.0
Co98 Co 0.36145 0.88627 0.29708 0.0
O99 O 0.32124 0.81085 0.30282 0.0
O100 O 0.29407 0.85989 0.24565 0.0
C101 C 0.43664 0.88947 0.26333 0.0
O102 O 0.39424 0.9652 0.26976 0.0
Co103 Co 0.45728 0.95555 0.40208 0.0
O104 O 0.47676 1.00394 0.31359 0.0
C105 C 0.35653 0.92022 0.45872 0.0
C106 C 0.28507 0.81349 0.26394 0.0
C107 C 0.44211 1.00331 0.26933 0.0
O108 O 0.33088 0.88961 0.40235 0.0
O109 O 0.39702 0.96267 0.44107 0.0
O110 O 0.4015 0.88127 0.21087 0.0
O111 O 0.42488 0.89301 0.33532 0.0
Co112 Co 0.4992 0.36005 0.29844 0.0
O113 O 0.53371 0.31933 0.29747 0.0
O114 O 0.45589 0.29317 0.24669 0.0
C115 C 0.57088 0.43487 0.26256 0.0
O116 O 0.45281 0.39313 0.27846 0.0
Co117 Co 0.5276 0.45361 0.40472 0.0
O118 O 0.50131 0.47617 0.31644 0.0
C119 C 0.4659 0.35164 0.46793 0.0
C120 C 0.49357 0.28375 0.26013 0.0
C121 C 0.46528 0.44165 0.27473 0.0
O122 O 0.46885 0.32909 0.40539 0.0
O123 O 0.46806 0.3955 0.46305 0.0
O124 O 0.54199 0.40059 0.21027 0.0
O125 O 0.55729 0.42258 0.33497 0.0
Co126 Co 0.1635 0.49359 0.30083 0.0
O127 O 0.23853 0.52743 0.30041 0.0
O128 O 0.18643 0.44974 0.24927 0.0
C129 C 0.16168 0.56583 0.26431 0.0
O130 O 0.08424 0.44795 0.28048 0.0
Co131 Co 0.09864 0.52192 0.40566 0.0
O132 O 0.05138 0.49831 0.3157 0.0
C133 C 0.13726 0.45876 0.47061 0.0
C134 C 0.2336 0.48722 0.26281 0.0
C135 C 0.04951 0.46201 0.27433 0.0
O136 O 0.16323 0.4629 0.40793 0.0
O137 O 0.09694 0.46355 0.46757 0.0
O138 O 0.16659 0.53644 0.21233 0.0
O139 O 0.15988 0.55227 0.33688 0.0
Co140 Co 0.6964 0.16395 0.30161 0.0
O141 O 0.7435 0.23768 0.3118 0.0
O142 O 0.76247 0.18338 0.2505 0.0
C143 C 0.62645 0.17095 0.26543 0.0
O144 O 0.65698 0.08669 0.27233 0.0
Co145 Co 0.59814 0.10829 0.40825 0.0
O146 O 0.58169 0.04757 0.34002 0.0
C147 C 0.70015 0.14967 0.4732 0.0
C148 C 0.77602 0.23098 0.26941 0.0
C149 C 0.6126 0.04663 0.28885 0.0
O150 O 0.71904 0.14808 0.40584 0.0
O151 O 0.65899 0.15308 0.47794 0.0
O152 O 0.66158 0.17718 0.21414 0.0
O153 O 0.63694 0.16552 0.33674 0.0
Co154 Co 0.55492 0.69385 0.29876 0.0
O155 O 0.52662 0.73937 0.31322 0.0
O156 O 0.60003 0.76134 0.24996 0.0
C157 C 0.47848 0.6231 0.2629 0.0
O158 O 0.59357 0.65546 0.26671 0.0
Co159 Co 0.51419 0.59427 0.40486 0.0
O160 O 0.56306 0.58227 0.33936 0.0
C161 C 0.56951 0.69531 0.4664 0.0
C162 C 0.56546 0.77359 0.27201 0.0
C163 C 0.59271 0.61288 0.28573 0.0
O164 O 0.59377 0.71558 0.40211 0.0
O165 O 0.52292 0.65761 0.46239 0.0
O166 O 0.5062 0.65909 0.21184 0.0
O167 O 0.4952 0.63319 0.33381 0.0
Co168 Co 0.56116 0.87618 0.79678 0.0
O169 O 0.53154 0.8019 0.80924 0.0
O170 O 0.6068 0.8534 0.75072 0.0
C171 C 0.48593 0.87205 0.75715 0.0
O172 O 0.60143 0.95392 0.76724 0.0
Co173 Co 0.51892 0.9351 0.90036 0.0
O174 O 0.57204 0.99717 0.84069 0.0
C175 C 0.56838 0.8846 0.9634 0.0
C176 C 0.57125 0.80643 0.77063 0.0
C177 C 0.60198 0.99619 0.78757 0.0
O178 O 0.59662 0.89087 0.90286 0.0
O179 O 0.52221 0.87537 0.9517 0.0
O180 O 0.51448 0.86409 0.70727 0.0
O181 O 0.50126 0.87776 0.82867 0.0
Co182 Co 0.70544 0.54505 0.79821 0.0
O183 O 0.75086 0.51664 0.81253 0.0
O184 O 0.77309 0.59031 0.74988 0.0
C185 C 0.63477 0.46877 0.76163 0.0
O186 O 0.66704 0.58379 0.76652 0.0
Co187 Co 0.60557 0.50366 0.90411 0.0
O188 O 0.59361 0.55263 0.83875 0.0
C189 C 0.70647 0.5587 0.96578 0.0
C190 C 0.78522 0.5556 0.7717 0.0
C191 C 0.62427 0.58258 0.78538 0.0
O192 O 0.72692 0.58348 0.90192 0.0
O193 O 0.66905 0.51203 0.96087 0.0
O194 O 0.67087 0.49667 0.71083 0.0
O195 O 0.64473 0.4852 0.83268 0.0
Co196 Co 0.17668 0.68859 0.79862 0.0
O197 O 0.2504 0.73579 0.80749 0.0
O198 O 0.19568 0.75411 0.74595 0.0
C199 C 0.18343 0.61818 0.76442 0.0
O200 O 0.09919 0.64849 0.77123 0.0
Co201 Co 0.12224 0.59123 0.90921 0.0
O202 O 0.06044 0.57481 0.84316 0.0
C203 C 0.16639 0.69373 0.96809 0.0
C204 C 0.24341 0.7679 0.76455 0.0
C205 C 0.05913 0.60473 0.79041 0.0
O206 O 0.16152 0.71205 0.90229 0.0
O207 O 0.17425 0.65523 0.96809 0.0
O208 O 0.18934 0.65268 0.71211 0.0
O209 O 0.17842 0.62956 0.83539 0.0
Co210 Co 0.50689 0.15399 0.79673 0.0
O211 O 0.54052 0.22905 0.79634 0.0
O212 O 0.46276 0.17678 0.74563 0.0
C213 C 0.57925 0.15245 0.75992 0.0
O214 O 0.46133 0.0747 0.77646 0.0
Co215 Co 0.53565 0.08918 0.90082 0.0
O216 O 0.51221 0.04225 0.81052 0.0
C217 C 0.47247 0.12768 0.96708 0.0
C218 C 0.50015 0.224 0.75909 0.0
C219 C 0.47565 0.04021 0.76966 0.0
O220 O 0.47654 0.15359 0.90428 0.0
O221 O 0.47843 0.08801 0.96497 0.0
O222 O 0.54982 0.15726 0.7079 0.0
O223 O 0.56558 0.15053 0.8324 0.0
Co224 Co 0.37172 0.48923 0.79968 0.0
O225 O 0.3313 0.52411 0.79914 0.0
O226 O 0.30451 0.4461 0.74869 0.0
C227 C 0.44648 0.56057 0.76296 0.0
O228 O 0.40428 0.4424 0.77918 0.0
Co229 Co 0.46523 0.51709 0.90485 0.0
O230 O 0.4874 0.4903 0.81695 0.0
C231 C 0.36334 0.45668 0.97047 0.0
C232 C 0.2954 0.48399 0.76217 0.0
C233 C 0.45267 0.45441 0.77539 0.0
O234 O 0.34124 0.45933 0.90711 0.0
O235 O 0.40796 0.46033 0.96803 0.0
O236 O 0.41193 0.53166 0.711 0.0
O237 O 0.43448 0.54718 0.83547 0.0
Co238 Co 0.89857 0.35242 0.80105 0.0
O239 O 0.82311 0.31196 0.80439 0.0
O240 O 0.87323 0.28529 0.74941 0.0
C241 C 0.90187 0.42751 0.76654 0.0
O242 O 0.97775 0.38536 0.7761 0.0
Co243 Co 0.96649 0.44738 0.90673 0.0
O244 O 1.01537 0.46802 0.81862 0.0
C245 C 0.93013 0.34625 0.96478 0.0
C246 C 0.82653 0.27606 0.76594 0.0
C247 C 1.01537 0.43342 0.77498 0.0
O248 O 0.90057 0.32159 0.90683 0.0
O249 O 0.97268 0.38759 0.95033 0.0
O250 O 0.89458 0.39258 0.71421 0.0
O251 O 0.90457 0.41563 0.8388 0.0
Co252 Co 0.17866 0.494 0.70736 0.0
O253 O 0.25284 0.52317 0.69386 0.0
O254 O 0.20154 0.44891 0.75502 0.0
C255 C 0.18335 0.56992 0.74418 0.0
O256 O 0.1012 0.45429 0.73847 0.0
Co257 Co 0.11871 0.53443 0.60276 0.0
O258 O 0.05706 0.48213 0.66395 0.0
C259 C 0.16854 0.4838 0.54079 0.0
C260 C 0.2484 0.48396 0.73386 0.0
C261 C 0.05866 0.45313 0.71808 0.0
O262 O 0.16302 0.45687 0.60266 0.0
O263 O 0.17737 0.53007 0.54986 0.0
O264 O 0.19163 0.54211 0.79511 0.0
O265 O 0.17695 0.55343 0.67324 0.0
Co266 Co 0.70283 0.15654 0.70454 0.0
O267 O 0.74331 0.232 0.70068 0.0
O268 O 0.76998 0.18202 0.75613 0.0
C269 C 0.62776 0.15346 0.73877 0.0
O270 O 0.66992 0.0774 0.73014 0.0
Co271 Co 0.60747 0.08836 0.59902 0.0
O272 O 0.58735 0.03964 0.68721 0.0
C273 C 0.70825 0.12416 0.54147 0.0
C274 C 0.77921 0.22868 0.73929 0.0
C275 C 0.62189 0.03969 0.731 0.0
O276 O 0.73345 0.15421 0.59868 0.0
O277 O 0.66737 0.0816 0.55747 0.0
O278 O 0.66266 0.16085 0.79123 0.0
O279 O 0.63964 0.15046 0.66664 0.0
Co280 Co 0.56588 0.68312 0.70459 0.0
O281 O 0.53109 0.72359 0.70529 0.0
O282 O 0.60914 0.75033 0.75559 0.0
C283 C 0.49445 0.60843 0.74135 0.0
O284 O 0.61265 0.65044 0.72484 0.0
Co285 Co 0.53763 0.58944 0.59936 0.0
O286 O 0.56447 0.5673 0.68729 0.0
C287 C 0.59809 0.69129 0.5339 0.0
C288 C 0.57125 0.75946 0.74221 0.0
C289 C 0.60052 0.60201 0.72868 0.0
O290 O 0.59569 0.7136 0.59715 0.0
O291 O 0.5948 0.64683 0.53681 0.0
O292 O 0.52348 0.64292 0.79331 0.0
O293 O 0.50783 0.62042 0.66884 0.0
Co294 Co 0.90191 0.54828 0.70619 0.0
O295 O 0.82684 0.51453 0.70627 0.0
O296 O 0.87891 0.5927 0.7558 0.0
C297 C 0.9033 0.47614 0.74479 0.0
O298 O 0.98118 0.5942 0.72663 0.0
Co299 Co 0.96713 0.51893 0.60462 0.0
O300 O 1.01381 0.54311 0.69513 0.0
C301 C 0.92672 0.57983 0.53396 0.0
C302 C 0.83174 0.55515 0.74261 0.0
C303 C 1.01567 0.58 0.73483 0.0
O304 O 0.90234 0.57768 0.59771 0.0
O305 O 0.96526 0.57193 0.53416 0.0
O306 O 0.89851 0.50595 0.79611 0.0
O307 O 0.9055 0.48944 0.67213 0.0
Co308 Co 0.36861 0.88015 0.69858 0.0
O309 O 0.32128 0.80655 0.68751 0.0
O310 O 0.30242 0.86084 0.74913 0.0
C311 C 0.43817 0.8725 0.73513 0.0
O312 O 0.40803 0.95721 0.72887 0.0
Co313 Co 0.46742 0.93622 0.59349 0.0
O314 O 0.48345 0.99679 0.66171 0.0
C315 C 0.36569 0.89556 0.52703 0.0
C316 C 0.28869 0.81327 0.7297 0.0
C317 C 0.45234 0.99742 0.71277 0.0
O318 O 0.34649 0.89658 0.5944 0.0
O319 O 0.40729 0.89295 0.52189 0.0
O320 O 0.4029 0.86627 0.78615 0.0
O321 O 0.4281 0.87842 0.66382 0.0
Co322 Co 0.51022 0.3503 0.70388 0.0
O323 O 0.53851 0.30482 0.68885 0.0
O324 O 0.46502 0.28261 0.75202 0.0
C325 C 0.5866 0.42081 0.74042 0.0
O326 O 0.47146 0.38846 0.73672 0.0
Co327 Co 0.55069 0.45017 0.59928 0.0
O328 O 0.5016 0.46179 0.66467 0.0
C329 C 0.49534 0.34944 0.5357 0.0
C330 C 0.49962 0.27044 0.72983 0.0
C331 C 0.47206 0.43096 0.71814 0.0
O332 O 0.47153 0.32907 0.60031 0.0
O333 O 0.54163 0.38784 0.53855 0.0
O334 O 0.55877 0.38459 0.79112 0.0
O335 O 0.57001 0.41109 0.66941 0.0
loop_
_geom_bond_atom_site_label_1
_geom_bond_atom_site_label_2
_geom_bond_distance
_geom_bond_site_symmetry_2
_ccdc_geom_bond_type
Co0 O1 2.216 . S
Co0 O2 2.091 . S
Co0 O4 2.004 . S
Co0 O10 2.021 . S
Co0 O12 2.137 . S
Co0 O13 2.244 . S
O1 Co0 2.216 . S
O1 C8 1.247 . S
O2 Co0 2.091 . S
O2 C8 1.261 . S
C3 O12 1.247 . S
C3 O13 1.272 . S
O4 Co0 2.004 . S
O4 C9 1.259 . S
Co5 O6 2.061 . S
Co5 O11 2.052 . S
Co5 O13 2.135 . S
O6 Co5 2.061 . S
O6 C9 1.235 . S
C7 O10 1.238 . S
C7 O11 1.241 . S
C8 O1 1.247 . S
C8 O2 1.261 . S
C9 O4 1.259 . S
C9 O6 1.235 . S
O10 Co0 2.021 . S
O10 C7 1.238 . S
O11 Co5 2.052 . S
O11 C7 1.241 . S
O12 Co0 2.137 . S
O12 C3 1.247 . S
O13 Co0 2.244 . S
O13 C3 1.272 . S
O13 Co5 2.135 . S
Co14 O15 2.216 . S
Co14 O16 2.091 . S
Co14 O18 2.004 . S
Co14 O24 2.021 . S
Co14 O26 2.137 . S
Co14 O27 2.244 . S
O15 Co14 2.216 . S
O15 C22 1.247 . S
O16 Co14 2.091 . S
O16 C22 1.261 . S
C17 O26 1.247 . S
C17 O27 1.272 . S
O18 Co14 2.004 . S
O18 C23 1.259 . S
Co19 O20 2.061 . S
Co19 O25 2.052 . S
Co19 O27 2.135 . S
O20 Co19 2.061 . S
O20 C23 1.235 . S
C21 O24 1.238 . S
C21 O25 1.241 . S
C22 O15 1.247 . S
C22 O16 1.261 . S
C23 O18 1.259 . S
C23 O20 1.235 . S
O24 Co14 2.021 . S
O24 C21 1.238 . S
O25 Co19 2.052 . S
O25 C21 1.241 . S
O26 Co14 2.137 . S
O26 C17 1.247 . S
O27 Co14 2.244 . S
O27 C17 1.272 . S
O27 Co19 2.135 . S
Co28 O29 2.216 . S
Co28 O30 2.091 . S
Co28 O32 2.004 . S
Co28 O38 2.021 . S
Co28 O40 2.137 . S
Co28 O41 2.244 . S
O29 Co28 2.216 . S
O29 C36 1.247 . S
O30 Co28 2.091 . S
O30 C36 1.261 . S
C31 O40 1.247 . S
C31 O41 1.272 . S
O32 Co28 2.004 . S
O32 C37 1.259 . S
Co33 O34 2.061 . S
Co33 O39 2.052 . S
Co33 O41 2.135 . S
O34 Co33 2.061 . S
O34 C37 1.235 . S
C35 O38 1.238 . S
C35 O39 1.241 . S
C36 O29 1.247 . S
C36 O30 1.261 . S
C37 O32 1.259 . S
C37 O34 1.235 . S
O38 Co28 2.021 . S
O38 C35 1.238 . S
O39 Co33 2.052 . S
O39 C35 1.241 . S
O40 Co28 2.137 . S
O40 C31 1.247 . S
O41 Co28 2.244 . S
O41 C31 1.272 . S
O41 Co33 2.135 . S
Co42 O43 2.216 . S
Co42 O44 2.091 . S
Co42 O46 2.004 . S
Co42 O52 2.021 . S
Co42 O54 2.137 . S
Co42 O55 2.244 . S
O43 Co42 2.216 . S
O43 C50 1.247 . S
O44 Co42 2.091 . S
O44 C50 1.261 . S
C45 O54 1.247 . S
C45 O55 1.272 . S
O46 Co42 2.004 . S
O46 C51 1.259 . S
Co47 O48 2.061 . S
Co47 O53 2.052 . S
Co47 O55 2.135 . S
O48 Co47 2.061 . S
O48 C51 1.235 . S
C49 O52 1.238 . S
C49 O53 1.241 . S
C50 O43 1.247 . S
C50 O44 1.261 . S
C51 O46 1.259 . S
C51 O48 1.235 . S
O52 Co42 2.021 . S
O52 C49 1.238 . S
O53 Co47 2.052 . S
O53 C49 1.241 . S
O54 Co42 2.137 . S
O54 C45 1.247 . S
O55 Co42 2.244 . S
O55 C45 1.272 . S
O55 Co47 2.135 . S
Co56 O57 2.216 . S
Co56 O58 2.091 . S
Co56 O60 2.004 . S
Co56 O66 2.021 . S
Co56 O68 2.137 . S
Co56 O69 2.244 . S
O57 Co56 2.216 . S
O57 C64 1.247 . S
O58 Co56 2.091 . S
O58 C64 1.261 . S
C59 O68 1.247 . S
C59 O69 1.272 . S
O60 Co56 2.004 . S
O60 C65 1.259 . S
Co61 O62 2.061 . S
Co61 O67 2.052 . S
Co61 O69 2.135 . S
O62 Co61 2.061 . S
O62 C65 1.235 . S
C63 O66 1.238 . S
C63 O67 1.241 . S
C64 O57 1.247 . S
C64 O58 1.261 . S
C65 O60 1.259 . S
C65 O62 1.235 . S
O66 Co56 2.021 . S
O66 C63 1.238 . S
O67 Co61 2.052 . S
O67 C63 1.241 . S
O68 Co56 2.137 . S
O68 C59 1.247 . S
O69 Co56 2.244 . S
O69 C59 1.272 . S
O69 Co61 2.135 . S
Co70 O71 2.216 . S
Co70 O72 2.091 . S
Co70 O74 2.004 . S
Co70 O80 2.021 . S
Co70 O82 2.137 . S
Co70 O83 2.244 . S
O71 Co70 2.216 . S
O71 C78 1.247 . S
O72 Co70 2.091 . S
O72 C78 1.261 . S
C73 O82 1.247 . S
C73 O83 1.272 . S
O74 Co70 2.004 . S
O74 C79 1.259 . S
Co75 O76 2.061 . S
Co75 O81 2.052 . S
Co75 O83 2.135 . S
O76 Co75 2.061 . S
O76 C79 1.235 . S
C77 O80 1.238 . S
C77 O81 1.241 . S
C78 O71 1.247 . S
C78 O72 1.261 . S
C79 O74 1.259 . S
C79 O76 1.235 . S
O80 Co70 2.021 . S
O80 C77 1.238 . S
O81 Co75 2.052 . S
O81 C77 1.241 . S
O82 Co70 2.137 . S
O82 C73 1.247 . S
O83 Co70 2.244 . S
O83 C73 1.272 . S
O83 Co75 2.135 . S
Co84 O85 2.216 . S
Co84 O86 2.091 . S
Co84 O88 2.004 . S
Co84 O94 2.021 . S
Co84 O96 2.137 . S
Co84 O97 2.244 . S
O85 Co84 2.216 . S
O85 C92 1.247 . S
O86 Co84 2.091 . S
O86 C92 1.261 . S
C87 O96 1.247 . S
C87 O97 1.272 . S
O88 Co84 2.004 . S
O88 C93 1.259 . S
Co89 O90 2.061 . S
Co89 O95 2.052 . S
Co89 O97 2.135 . S
O90 Co89 2.061 . S
O90 C93 1.235 . S
C91 O94 1.238 . S
C91 O95 1.241 . S
C92 O85 1.247 . S
C92 O86 1.261 . S
C93 O88 1.259 . S
C93 O90 1.235 . S
O94 Co84 2.021 . S
O94 C91 1.238 . S
O95 Co89 2.052 . S
O95 C91 1.241 . S
O96 Co84 2.137 . S
O96 C87 1.247 . S
O97 Co84 2.244 . S
O97 C87 1.272 . S
O97 Co89 2.135 . S
Co98 O99 2.216 . S
Co98 O100 2.091 . S
Co98 O102 2.004 . S
Co98 O108 2.021 . S
Co98 O110 2.137 . S
Co98 O111 2.244 . S
O99 Co98 2.216 . S
O99 C106 1.247 . S
O100 Co98 2.091 . S
O100 C106 1.261 . S
C101 O110 1.247 . S
C101 O111 1.272 . S
O102 Co98 2.004 . S
O102 C107 1.259 . S
Co103 O104 2.061 . S
Co103 O109 2.052 . S
Co103 O111 2.135 . S
O104 Co103 2.061 . S
O104 C107 1.235 . S
C105 O108 1.238 . S
C105 O109 1.241 . S
C106 O99 1.247 . S
C106 O100 1.261 . S
C107 O102 1.259 . S
C107 O104 1.235 . S
O108 Co98 2.021 . S
O108 C105 1.238 . S
O109 Co103 2.052 . S
O109 C105 1.241 . S
O110 Co98 2.137 . S
O110 C101 1.247 . S
O111 Co98 2.244 . S
O111 C101 1.272 . S
O111 Co103 2.135 . S
Co112 O113 2.216 . S
Co112 O114 2.091 . S
Co112 O116 2.004 . S
Co112 O122 2.021 . S
Co112 O124 2.137 . S
Co112 O125 2.244 . S
O113 Co112 2.216 . S
O113 C120 1.247 . S
O114 Co112 2.091 . S
O114 C120 1.261 . S
C115 O124 1.247 . S
C115 O125 1.272 . S
O116 Co112 2.004 . S
O116 C121 1.259 . S
Co117 O118 2.061 . S
Co117 O123 2.052 . S
Co117 O125 2.135 . S
O118 Co117 2.061 . S
O118 C121 1.235 . S
C119 O122 1.238 . S
C119 O123 1.241 . S
C120 O113 1.247 . S
C120 O114 1.261 . S
C121 O116 1.259 . S
C121 O118 1.235 . S
O122 Co112 2.021 . S
O122 C119 1.238 . S
O123 Co117 2.052 . S
O123 C119 1.241 . S
O124 Co112 2.137 . S
O124 C115 1.247 . S
O125 Co112 2.244 . S
O125 C115 1.272 . S
O125 Co117 2.135 . S
Co126 O127 2.216 . S
Co126 O128 2.091 . S
Co126 O130 2.004 . S
Co126 O136 2.021 . S
Co126 O138 2.137 . S
Co126 O139 2.244 . S
O127 Co126 2.216 . S
O127 C134 1.247 . S
O128 Co126 2.091 . S
O128 C134 1.261 . S
C129 O138 1.247 . S
C129 O139 1.272 . S
O130 Co126 2.004 . S
O130 C135 1.259 . S
Co131 O132 2.061 . S
Co131 O137 2.052 . S
Co131 O139 2.135 . S
O132 Co131 2.061 . S
O132 C135 1.235 . S
C133 O136 1.238 . S
C133 O137 1.241 . S
C134 O127 1.247 . S
C134 O128 1.261 . S
C135 O130 1.259 . S
C135 O132 1.235 . S
O136 Co126 2.021 . S
O136 C133 1.238 . S
O137 Co131 2.052 . S
O137 C133 1.241 . S
O138 Co126 2.137 . S
O138 C129 1.247 . S
O139 Co126 2.244 . S
O139 C129 1.272 . S
O139 Co131 2.135 . S
Co140 O141 2.216 . S
Co140 O142 2.091 . S
Co140 O144 2.004 . S
Co140 O150 2.021 . S
Co140 O152 2.137 . S
Co140 O153 2.244 . S
O141 Co140 2.216 . S
O141 C148 1.247 . S
O142 Co140 2.091 . S
O142 C148 1.261 . S
C143 O152 1.247 . S
C143 O153 1.272 . S
O144 Co140 2.004 . S
O144 C149 1.259 . S
Co145 O146 2.061 . S
Co145 O151 2.052 . S
Co145 O153 2.135 . S
O146 Co145 2.061 . S
O146 C149 1.235 . S
C147 O150 1.238 . S
C147 O151 1.241 . S
C148 O141 1.247 . S
C148 O142 1.261 . S
C149 O144 1.259 . S
C149 O146 1.235 . S
O150 Co140 2.021 . S
O150 C147 1.238 . S
O151 Co145 2.052 . S
O151 C147 1.241 . S
O152 Co140 2.137 . S
O152 C143 1.247 . S
O153 Co140 2.244 . S
O153 C143 1.272 . S
O153 Co145 2.135 . S
Co154 O155 2.216 . S
Co154 O156 2.091 . S
Co154 O158 2.004 . S
Co154 O164 2.021 . S
Co154 O166 2.137 . S
Co154 O167 2.244 . S
O155 Co154 2.216 . S
O155 C162 1.247 . S
O156 Co154 2.091 . S
O156 C162 1.261 . S
C157 O166 1.247 . S
C157 O167 1.272 . S
O158 Co154 2.004 . S
O158 C163 1.259 . S
Co159 O160 2.061 . S
Co159 O165 2.052 . S
Co159 O167 2.135 . S
O160 Co159 2.061 . S
O160 C163 1.235 . S
C161 O164 1.238 . S
C161 O165 1.241 . S
C162 O155 1.247 . S
C162 O156 1.261 . S
C163 O158 1.259 . S
C163 O160 1.235 . S
O164 Co154 2.021 . S
O164 C161 1.238 . S
O165 Co159 2.052 . S
O165 C161 1.241 . S
O166 Co154 2.137 . S
O166 C157 1.247 . S
O167 Co154 2.244 . S
O167 C157 1.272 . S
O167 Co159 2.135 . S
Co168 O169 2.216 . S
Co168 O170 2.091 . S
Co168 O172 2.004 . S
Co168 O178 2.021 . S
Co168 O180 2.137 . S
Co168 O181 2.244 . S
O169 Co168 2.216 . S
O169 C176 1.247 . S
O170 Co168 2.091 . S
O170 C176 1.261 . S
C171 O180 1.247 . S
C171 O181 1.272 . S
O172 Co168 2.004 . S
O172 C177 1.259 . S
Co173 O174 2.061 . S
Co173 O179 2.052 . S
Co173 O181 2.135 . S
O174 Co173 2.061 . S
O174 C177 1.235 . S
C175 O178 1.238 . S
C175 O179 1.241 . S
C176 O169 1.247 . S
C176 O170 1.261 . S
C177 O172 1.259 . S
C177 O174 1.235 . S
O178 Co168 2.021 . S
O178 C175 1.238 . S
O179 Co173 2.052 . S
O179 C175 1.241 . S
O180 Co168 2.137 . S
O180 C171 1.247 . S
O181 Co168 2.244 . S
O181 C171 1.272 . S
O181 Co173 2.135 . S
Co182 O183 2.216 . S
Co182 O184 2.091 . S
Co182 O186 2.004 . S
Co182 O192 2.021 . S
Co182 O194 2.137 . S
Co182 O195 2.244 . S
O183 Co182 2.216 . S
O183 C190 1.247 . S
O184 Co182 2.091 . S
O184 C190 1.261 . S
C185 O194 1.247 . S
C185 O195 1.272 . S
O186 Co182 2.004 . S
O186 C191 1.259 . S
Co187 O188 2.061 . S
Co187 O193 2.052 . S
Co187 O195 2.135 . S
O188 Co187 2.061 . S
O188 C191 1.235 . S
C189 O192 1.238 . S
C189 O193 1.241 . S
C190 O183 1.247 . S
C190 O184 1.261 . S
C191 O186 1.259 . S
C191 O188 1.235 . S
O192 Co182 2.021 . S
O192 C189 1.238 . S
O193 Co187 2.052 . S
O193 C189 1.241 . S
O194 Co182 2.137 . S
O194 C185 1.247 . S
O195 Co182 2.244 . S
O195 C185 1.272 . S
O195 Co187 2.135 . S
Co196 O197 2.216 . S
Co196 O198 2.091 . S
Co196 O200 2.004 . S
Co196 O206 2.021 . S
Co196 O208 2.137 . S
Co196 O209 2.244 . S
O197 Co196 2.216 . S
O197 C204 1.247 . S
O198 Co196 2.091 . S
O198 C204 1.261 . S
C199 O208 1.247 . S
C199 O209 1.272 . S
O200 Co196 2.004 . S
O200 C205 1.259 . S
Co201 O202 2.061 . S
Co201 O207 2.052 . S
Co201 O209 2.135 . S
O202 Co201 2.061 . S
O202 C205 1.235 . S
C203 O206 1.238 . S
C203 O207 1.241 . S
C204 O197 1.247 . S
C204 O198 1.261 . S
C205 O200 1.259 . S
C205 O202 1.235 . S
O206 Co196 2.021 . S
O206 C203 1.238 . S
O207 Co201 2.052 . S
O207 C203 1.241 . S
O208 Co196 2.137 . S
O208 C199 1.247 . S
O209 Co196 2.244 . S
O209 C199 1.272 . S
O209 Co201 2.135 . S
Co210 O211 2.216 . S
Co210 O212 2.091 . S
Co210 O214 2.004 . S
Co210 O220 2.021 . S
Co210 O222 2.137 . S
Co210 O223 2.244 . S
O211 Co210 2.216 . S
O211 C218 1.247 . S
O212 Co210 2.091 . S
O212 C218 1.261 . S
C213 O222 1.247 . S
C213 O223 1.272 . S
O214 Co210 2.004 . S
O214 C219 1.259 . S
Co215 O216 2.061 . S
Co215 O221 2.052 . S
Co215 O223 2.135 . S
O216 Co215 2.061 . S
O216 C219 1.235 . S
C217 O220 1.238 . S
C217 O221 1.241 . S
C218 O211 1.247 . S
C218 O212 1.261 . S
C219 O214 1.259 . S
C219 O216 1.235 . S
O220 Co210 2.021 . S
O220 C217 1.238 . S
O221 Co215 2.052 . S
O221 C217 1.241 . S
O222 Co210 2.137 . S
O222 C213 1.247 . S
O223 Co210 2.244 . S
O223 C213 1.272 . S
O223 Co215 2.135 . S
Co224 O225 2.216 . S
Co224 O226 2.091 . S
Co224 O228 2.004 . S
Co224 O234 2.021 . S
Co224 O236 2.137 . S
Co224 O237 2.244 . S
O225 Co224 2.216 . S
O225 C232 1.247 . S
O226 Co224 2.091 . S
O226 C232 1.261 . S
C227 O236 1.247 . S
C227 O237 1.272 . S
O228 Co224 2.004 . S
O228 C233 1.259 . S
Co229 O230 2.061 . S
Co229 O235 2.052 . S
Co229 O237 2.135 . S
O230 Co229 2.061 . S
O230 C233 1.235 . S
C231 O234 1.238 . S
C231 O235 1.241 . S
C232 O225 1.247 . S
C232 O226 1.261 . S
C233 O228 1.259 . S
C233 O230 1.235 . S
O234 Co224 2.021 . S
O234 C231 1.238 . S
O235 Co229 2.052 . S
O235 C231 1.241 . S
O236 Co224 2.137 . S
O236 C227 1.247 . S
O237 Co224 2.244 . S
O237 C227 1.272 . S
O237 Co229 2.135 . S
Co238 O239 2.216 . S
Co238 O240 2.091 . S
Co238 O242 2.004 . S
Co238 O248 2.021 . S
Co238 O250 2.137 . S
Co238 O251 2.244 . S
O239 Co238 2.216 . S
O239 C246 1.247 . S
O240 Co238 2.091 . S
O240 C246 1.261 . S
C241 O250 1.247 . S
C241 O251 1.272 . S
O242 Co238 2.004 . S
O242 C247 1.259 . S
Co243 O244 2.061 . S
Co243 O249 2.052 . S
Co243 O251 2.135 . S
O244 Co243 2.061 . S
O244 C247 1.235 . S
C245 O248 1.238 . S
C245 O249 1.241 . S
C246 O239 1.247 . S
C246 O240 1.261 . S
C247 O242 1.259 . S
C247 O244 1.235 . S
O248 Co238 2.021 . S
O248 C245 1.238 . S
O249 Co243 2.052 . S
O249 C245 1.241 . S
O250 Co238 2.137 . S
O250 C241 1.247 . S
O251 Co238 2.244 . S
O251 C241 1.272 . S
O251 Co243 2.135 . S
Co252 O253 2.216 . S
Co252 O254 2.091 . S
Co252 O256 2.004 . S
Co252 O262 2.021 . S
Co252 O264 2.137 . S
Co252 O265 2.244 . S
O253 Co252 2.216 . S
O253 C260 1.247 . S
O254 Co252 2.091 . S
O254 C260 1.261 . S
C255 O264 1.247 . S
C255 O265 1.272 . S
O256 Co252 2.004 . S
O256 C261 1.259 . S
Co257 O258 2.061 . S
Co257 O263 2.052 . S
Co257 O265 2.135 . S
O258 Co257 2.061 . S
O258 C261 1.235 . S
C259 O262 1.238 . S
C259 O263 1.241 . S
C260 O253 1.247 . S
C260 O254 1.261 . S
C261 O256 1.259 . S
C261 O258 1.235 . S
O262 Co252 2.021 . S
O262 C259 1.238 . S
O263 Co257 2.052 . S
O263 C259 1.241 . S
O264 Co252 2.137 . S
O264 C255 1.247 . S
O265 Co252 2.244 . S
O265 C255 1.272 . S
O265 Co257 2.135 . S
Co266 O267 2.216 . S
Co266 O268 2.091 . S
Co266 O270 2.004 . S
Co266 O276 2.021 . S
Co266 O278 2.137 . S
Co266 O279 2.244 . S
O267 Co266 2.216 . S
O267 C274 1.247 . S
O268 Co266 2.091 . S
O268 C274 1.261 . S
C269 O278 1.247 . S
C269 O279 1.272 . S
O270 Co266 2.004 . S
O270 C275 1.259 . S
Co271 O272 2.061 . S
Co271 O277 2.052 . S
Co271 O279 2.135 . S
O272 Co271 2.061 . S
O272 C275 1.235 . S
C273 O276 1.238 . S
C273 O277 1.241 . S
C274 O267 1.247 . S
C274 O268 1.261 . S
C275 O270 1.259 . S
C275 O272 1.235 . S
O276 Co266 2.021 . S
O276 C273 1.238 . S
O277 Co271 2.052 . S
O277 C273 1.241 . S
O278 Co266 2.137 . S
O278 C269 1.247 . S
O279 Co266 2.244 . S
O279 C269 1.272 . S
O279 Co271 2.135 . S
Co280 O281 2.216 . S
Co280 O282 2.091 . S
Co280 O284 2.004 . S
Co280 O290 2.021 . S
Co280 O292 2.137 . S
Co280 O293 2.244 . S
O281 Co280 2.216 . S
O281 C288 1.247 . S
O282 Co280 2.091 . S
O282 C288 1.261 . S
C283 O292 1.247 . S
C283 O293 1.272 . S
O284 Co280 2.004 . S
O284 C289 1.259 . S
Co285 O286 2.061 . S
Co285 O291 2.052 . S
Co285 O293 2.135 . S
O286 Co285 2.061 . S
O286 C289 1.235 . S
C287 O290 1.238 . S
C287 O291 1.241 . S
C288 O281 1.247 . S
C288 O282 1.261 . S
C289 O284 1.259 . S
C289 O286 1.235 . S
O290 Co280 2.021 . S
O290 C287 1.238 . S
O291 Co285 2.052 . S
O291 C287 1.241 . S
O292 Co280 2.137 . S
O292 C283 1.247 . S
O293 Co280 2.244 . S
O293 C283 1.272 . S
O293 Co285 2.135 . S
Co294 O295 2.216 . S
Co294 O296 2.091 . S
Co294 O298 2.004 . S
Co294 O304 2.021 . S
Co294 O306 2.137 . S
Co294 O307 2.244 . S
O295 Co294 2.216 . S
O295 C302 1.247 . S
O296 Co294 2.091 . S
O296 C302 1.261 . S
C297 O306 1.247 . S
C297 O307 1.272 . S
O298 Co294 2.004 . S
O298 C303 1.259 . S
Co299 O300 2.061 . S
Co299 O305 2.052 . S
Co299 O307 2.135 . S
O300 Co299 2.061 . S
O300 C303 1.235 . S
C301 O304 1.238 . S
C301 O305 1.241 . S
C302 O295 1.247 . S
C302 O296 1.261 . S
C303 O298 1.259 . S
C303 O300 1.235 . S
O304 Co294 2.021 . S
O304 C301 1.238 . S
O305 Co299 2.052 . S
O305 C301 1.241 . S
O306 Co294 2.137 . S
O306 C297 1.247 . S
O307 Co294 2.244 . S
O307 C297 1.272 . S
O307 Co299 2.135 . S
Co308 O309 2.216 . S
Co308 O310 2.091 . S
Co308 O312 2.004 . S
Co308 O318 2.021 . S
Co308 O320 2.137 . S
Co308 O321 2.244 . S
O309 Co308 2.216 . S
O309 C316 1.247 . S
O310 Co308 2.091 . S
O310 C316 1.261 . S
C311 O320 1.247 . S
C311 O321 1.272 . S
O312 Co308 2.004 . S
O312 C317 1.259 . S
Co313 O314 2.061 . S
Co313 O319 2.052 . S
Co313 O321 2.135 . S
O314 Co313 2.061 . S
O314 C317 1.235 . S
C315 O318 1.238 . S
C315 O319 1.241 . S
C316 O309 1.247 . S
C316 O310 1.261 . S
C317 O312 1.259 . S
C317 O314 1.235 . S
O318 Co308 2.021 . S
O318 C315 1.238 . S
O319 Co313 2.052 . S
O319 C315 1.241 . S
O320 Co308 2.137 . S
O320 C311 1.247 . S
O321 Co308 2.244 . S
O321 C311 1.272 . S
O321 Co313 2.135 . S
Co322 O323 2.216 . S
Co322 O324 2.091 . S
Co322 O326 2.004 . S
Co322 O332 2.021 . S
Co322 O334 2.137 . S
Co322 O335 2.244 . S
O323 Co322 2.216 . S
O323 C330 1.247 . S
O324 Co322 2.091 . S
O324 C330 1.261 . S
C325 O334 1.247 . S
C325 O335 1.272 . S
O326 Co322 2.004 . S
O326 C331 1.259 . S
Co327 O328 2.061 . S
Co327 O333 2.052 . S
Co327 O335 2.135 . S
O328 Co327 2.061 . S
O328 C331 1.235 . S
C329 O332 1.238 . S
C329 O333 1.241 . S
C330 O323 1.247 . S
C330 O324 1.261 . S
C331 O326 1.259 . S
C331 O328 1.235 . S
O332 Co322 2.021 . S
O332 C329 1.238 . S
O333 Co327 2.052 . S
O333 C329 1.241 . S
O334 Co322 2.137 . S
O334 C325 1.247 . S
O335 Co322 2.244 . S
O335 C325 1.272 . S
O335 Co327 2.135 . S
C9 C107 1.613 1_545 S
C121 C23 1.613 . S
C37 C135 1.613 1_655 S
C51 C149 1.613 1_565 S
C163 C65 1.613 . S
C79 C93 1.613 1_455 S
C177 C275 1.613 1_565 S
C191 C289 1.613 . S
C303 C205 1.613 1_655 S
C219 C317 1.613 1_545 S
C233 C331 1.613 . S
C261 C247 1.613 1_455 S
C8 C120 1.401 . S
C134 C22 1.401 . S
C148 C36 1.401 . S
C50 C162 1.401 . S
C64 C92 1.401 . S
C78 C106 1.401 . S
C288 C176 1.401 . S
C190 C302 1.401 . S
C316 C204 1.401 . S
C330 C218 1.401 . S
C260 C232 1.401 . S
C246 C274 1.401 . S
C7 C217 1.432 1_554 S
C231 C21 1.432 1_556 S
C245 C35 1.432 1_556 S
C49 C175 1.432 1_554 S
C63 C189 1.432 1_554 S
C203 C77 1.432 1_556 S
C301 C91 1.432 . S
C315 C105 1.432 . S
C329 C119 1.432 . S
C259 C133 1.432 . S
C147 C273 1.432 . S
C161 C287 1.432 . S
C3 C143 1.687 . S
C157 C17 1.687 . S
C87 C31 1.687 . S
C45 C101 1.687 . S
C59 C115 1.687 . S
C73 C129 1.687 . S
C171 C311 1.687 . S
C185 C325 1.687 . S
C199 C255 1.687 . S
C269 C213 1.687 . S
C227 C283 1.687 . S
C241 C297 1.687 . S
