# Generated by pormake.
# Topology wji, (4)-cn, num edge types: 1
# Building blocks:
#     Node 0, Type 0, BuildingBlock: AZAVOO_clean_sbu_0, # of connection points: 4
#     Node 1, Type 0, BuildingBlock: AZAVOO_clean_sbu_0, # of connection points: 4
#     Node 2, Type 0, BuildingBlock: AZAVOO_clean_sbu_0, # of connection points: 4
#     Node 3, Type 0, BuildingBlock: AZAVOO_clean_sbu_0, # of connection points: 4
#     Node 4, Type 0, BuildingBlock: AZAVOO_clean_sbu_0, # of connection points: 4
#     Node 5, Type 0, BuildingBlock: AZAVOO_clean_sbu_0, # of connection points: 4
#     Node 6, Type 0, BuildingBlock: AZAVOO_clean_sbu_0, # of connection points: 4
#     Node 7, Type 0, BuildingBlock: AZAVOO_clean_sbu_0, # of connection points: 4
#     Node 8, Type 0, BuildingBlock: AZAVOO_clean_sbu_0, # of connection points: 4
#     Node 9, Type 0, BuildingBlock: AZAVOO_clean_sbu_0, # of connection points: 4
#     Node 10, Type 0, BuildingBlock: AZAVOO_clean_sbu_0, # of connection points: 4
#     Node 11, Type 0, BuildingBlock: AZAVOO_clean_sbu_0, # of connection points: 4
#     Edge 12, Type (0, 0), BuildingBlock: OJICUG_clean_linker_0, # of connection points: 2
#     Edge 13, Type (0, 0), BuildingBlock: OJICUG_clean_linker_0, # of connection points: 2
#     Edge 14, Type (0, 0), BuildingBlock: OJICUG_clean_linker_0, # of connection points: 2
#     Edge 15, Type (0, 0), BuildingBlock: OJICUG_clean_linker_0, # of connection points: 2
#     Edge 16, Type (0, 0), BuildingBlock: OJICUG_clean_linker_0, # of connection points: 2
#     Edge 17, Type (0, 0), BuildingBlock: OJICUG_clean_linker_0, # of connection points: 2
#     Edge 18, Type (0, 0), BuildingBlock: OJICUG_clean_linker_0, # of connection points: 2
#     Edge 19, Type (0, 0), BuildingBlock: OJICUG_clean_linker_0, # of connection points: 2
#     Edge 20, Type (0, 0), BuildingBlock: OJICUG_clean_linker_0, # of connection points: 2
#     Edge 21, Type (0, 0), BuildingBlock: OJICUG_clean_linker_0, # of connection points: 2
#     Edge 22, Type (0, 0), BuildingBlock: OJICUG_clean_linker_0, # of connection points: 2
#     Edge 23, Type (0, 0), BuildingBlock: OJICUG_clean_linker_0, # of connection points: 2
#     Edge 24, Type (0, 0), BuildingBlock: OJICUG_clean_linker_0, # of connection points: 2
#     Edge 25, Type (0, 0), BuildingBlock: OJICUG_clean_linker_0, # of connection points: 2
#     Edge 26, Type (0, 0), BuildingBlock: OJICUG_clean_linker_0, # of connection points: 2
#     Edge 27, Type (0, 0), BuildingBlock: OJICUG_clean_linker_0, # of connection points: 2
#     Edge 28, Type (0, 0), BuildingBlock: OJICUG_clean_linker_0, # of connection points: 2
#     Edge 29, Type (0, 0), BuildingBlock: OJICUG_clean_linker_0, # of connection points: 2
#     Edge 30, Type (0, 0), BuildingBlock: OJICUG_clean_linker_0, # of connection points: 2
#     Edge 31, Type (0, 0), BuildingBlock: OJICUG_clean_linker_0, # of connection points: 2
#     Edge 32, Type (0, 0), BuildingBlock: OJICUG_clean_linker_0, # of connection points: 2
#     Edge 33, Type (0, 0), BuildingBlock: OJICUG_clean_linker_0, # of connection points: 2
#     Edge 34, Type (0, 0), BuildingBlock: OJICUG_clean_linker_0, # of connection points: 2
#     Edge 35, Type (0, 0), BuildingBlock: OJICUG_clean_linker_0, # of connection points: 2
# Relax obj value: 0.170
# Max RMSD: 0.105
# Mean RMSD: 0.105
data_MOF--net-wji--node1-AZAVOO_clean_sbu_0--edge1-OJICUG_clean_linker_0
_symmetry_space_group_name_H-M    P1
_symmetry_Int_Tables_number       1
_symmetry_cell_setting            triclinic
loop_
_symmetry_equiv_pos_as_xyz
'x, y, z'
_cell_length_a     43.417891
_cell_length_b     43.3135
_cell_length_c     15.989158
_cell_angle_alpha  89.916474
_cell_angle_beta   90.151359
_cell_angle_gamma 120.01703
loop_
_atom_site_label
_atom_site_type_symbol
_atom_site_fract_x
_atom_site_fract_y
_atom_site_fract_z
_atom_type_partial_charge
Mg0 Mg 0.3952 0.31462 0.3852 0.0
O1 O 0.37492 0.33415 0.49273 0.0
O2 O 0.37032 0.3809 0.4518 0.0
Mg3 Mg 0.38787 0.39107 0.31354 0.0
C4 C 0.36741 0.35851 0.50776 0.0
C5 C 0.42105 0.26492 0.46775 0.0
O6 O 0.43619 0.26813 0.39474 0.0
O7 O 0.45152 0.36206 0.40558 0.0
O8 O 0.44468 0.4059 0.3506 0.0
O9 O 0.33918 0.28029 0.33459 0.0
O10 O 0.37611 0.33605 0.29765 0.0
C11 C 0.46414 0.39447 0.38253 0.0
C12 C 0.34539 0.3081 0.29141 0.0
O13 O 0.40343 0.28062 0.48044 0.0
Mg14 Mg 0.08854 0.40726 0.51179 0.0
O15 O 0.05031 0.37987 0.62163 0.0
O16 O -0.00542 0.36318 0.58411 0.0
Mg17 Mg -0.00275 0.38237 0.44933 0.0
C18 C 0.01723 0.36545 0.63845 0.0
C19 C 0.13408 0.39393 0.63269 0.0
O20 O 0.10705 0.36241 0.61411 0.0
O21 O 0.08613 0.45818 0.54169 0.0
O22 O 0.02999 0.43886 0.50056 0.0
O23 O 0.07618 0.35414 0.45457 0.0
O24 O 0.04676 0.38235 0.42781 0.0
C25 C 0.05957 0.46298 0.53094 0.0
C26 C 0.05019 0.35493 0.41716 0.0
O27 O 0.13529 0.42135 0.60028 0.0
Mg28 Mg 0.68119 0.08645 0.70554 0.0
O29 O 0.65989 0.04508 0.81021 0.0
O30 O 0.61188 0.99531 0.76686 0.0
Mg31 Mg 0.60254 0.00549 0.6299 0.0
C32 C 0.63441 0.01355 0.82374 0.0
C33 C 0.73221 0.16053 0.79179 0.0
O34 O 0.7277 0.17326 0.72106 0.0
O35 O 0.6354 0.09693 0.73207 0.0
O36 O 0.58944 0.04746 0.67781 0.0
O37 O 0.7134 0.06335 0.65042 0.0
O38 O 0.65817 0.04739 0.61499 0.0
C39 C 0.60253 0.07802 0.71255 0.0
C40 C 0.68531 0.0434 0.60631 0.0
O41 O 0.71678 0.12701 0.80239 0.0
Mg42 Mg 0.59096 0.67878 0.88327 0.0
O43 O 0.61125 0.6592 0.9911 0.0
O44 O 0.61609 0.61262 0.95044 0.0
Mg45 Mg 0.59859 0.60256 0.81196 0.0
C46 C 0.61886 0.63491 0.00637 0.0
C47 C 0.56356 0.72687 0.96755 0.0
O48 O 0.54689 0.72241 0.89601 0.0
O49 O 0.53468 0.63124 0.90296 0.0
O50 O 0.54175 0.58753 0.84853 0.0
O51 O 0.64699 0.71328 0.83334 0.0
O52 O 0.61017 0.65754 0.79594 0.0
C53 C 0.52217 0.59883 0.88006 0.0
C54 C 0.64085 0.68555 0.79003 0.0
O55 O 0.58261 0.71257 0.97852 0.0
Mg56 Mg 0.8948 0.58347 0.0099 0.0
O57 O 0.93328 0.61089 0.11951 0.0
O58 O 0.98895 0.6274 0.08243 0.0
Mg59 Mg 0.98591 0.60796 0.94783 0.0
C60 C 0.96637 0.62525 0.13654 0.0
C61 C 0.85007 0.5975 0.13089 0.0
O62 O 0.8772 0.62884 0.11173 0.0
O63 O 0.89704 0.53244 0.04043 0.0
O64 O 0.9531 0.55156 -0.00041 0.0
O65 O 0.90728 0.63657 0.95222 0.0
O66 O 0.93644 0.60813 0.92579 0.0
C67 C 0.92353 0.52754 0.03 0.0
C68 C 0.93312 0.63561 0.91491 0.0
O69 O 0.8484 0.56986 0.09868 0.0
Mg70 Mg 0.30157 0.90324 0.20328 0.0
O71 O 0.32288 0.94473 0.30763 0.0
O72 O 0.37085 0.99452 0.26448 0.0
Mg73 Mg 0.38024 0.98414 0.12796 0.0
C74 C 0.34832 0.97629 0.3212 0.0
C75 C 0.25086 0.82933 0.29076 0.0
O76 O 0.25569 0.81634 0.22098 0.0
O77 O 0.34733 0.89276 0.23096 0.0
O78 O 0.39333 0.94228 0.17728 0.0
O79 O 0.26942 0.92633 0.14719 0.0
O80 O 0.32462 0.94219 0.11248 0.0
C81 C 0.38023 0.91173 0.21213 0.0
C82 C 0.2975 0.94619 0.10323 0.0
O83 O 0.26597 0.86289 0.30026 0.0
Mg84 Mg 0.68255 0.57448 0.4727 0.0
O85 O 0.66761 0.59907 0.36339 0.0
O86 O 0.62423 0.60939 0.4025 0.0
Mg87 Mg 0.60996 0.5897 0.53797 0.0
C88 C 0.64581 0.60998 0.34751 0.0
C89 C 0.74232 0.59326 0.35057 0.0
O90 O 0.74398 0.62356 0.36958 0.0
O91 O 0.63224 0.5212 0.44231 0.0
O92 O 0.59064 0.53346 0.48801 0.0
O93 O 0.71972 0.62855 0.53058 0.0
O94 O 0.66244 0.59582 0.5582 0.0
C95 C 0.59981 0.5122 0.45644 0.0
C96 C 0.69196 0.62483 0.56921 0.0
O97 O 0.71785 0.56472 0.38322 0.0
Mg98 Mg 0.08178 0.67549 0.61215 0.0
O99 O 0.04492 0.66438 0.49944 0.0
O100 O 0.98915 0.62477 0.53516 0.0
Mg101 Mg 0.99045 0.60953 0.67217 0.0
C102 C 0.01197 0.64531 0.48141 0.0
C103 C 0.15024 0.73829 0.54028 0.0
O104 O 0.14534 0.75254 0.60781 0.0
O105 O 0.07981 0.62193 0.59002 0.0
O106 O 0.02425 0.58511 0.63338 0.0
O107 O 0.06901 0.71702 0.66214 0.0
O108 O 0.03961 0.65969 0.69328 0.0
C109 C 0.05415 0.59052 0.60576 0.0
C110 C 0.04286 0.6906 0.70028 0.0
O111 O 0.12891 0.70556 0.52508 0.0
Mg112 Mg 0.41335 0.09894 0.78994 0.0
O113 O 0.39059 0.06106 0.67805 0.0
O114 O 0.38111 0.00741 0.71648 0.0
Mg115 Mg 0.39711 0.01085 0.85516 0.0
C116 C 0.38056 0.02857 0.66148 0.0
C117 C 0.41681 0.16686 0.7185 0.0
O118 O 0.39996 0.1632 0.78922 0.0
O119 O 0.467 0.10202 0.76865 0.0
O120 O 0.45539 0.0492 0.82104 0.0
O121 O 0.35808 0.08193 0.83954 0.0
O122 O 0.38984 0.05675 0.87262 0.0
C123 C 0.47684 0.07983 0.79028 0.0
C124 C 0.36072 0.05728 0.87909 0.0
O125 O 0.42716 0.14492 0.70116 0.0
Mg126 Mg 0.30376 0.41925 0.97219 0.0
O127 O 0.31853 0.39437 0.86354 0.0
O128 O 0.3618 0.38389 0.9034 0.0
Mg129 Mg 0.37636 0.40399 0.03852 0.0
C130 C 0.34021 0.3833 0.84814 0.0
C131 C 0.24371 0.39993 0.8501 0.0
O132 O 0.24238 0.36981 0.86954 0.0
O133 O 0.35406 0.47241 0.94107 0.0
O134 O 0.39562 0.46 0.987 0.0
O135 O 0.26665 0.36535 0.03075 0.0
O136 O 0.32399 0.39808 0.05836 0.0
C137 C 0.3865 0.48127 0.95494 0.0
C138 C 0.29445 0.36912 0.0696 0.0
O139 O 0.26817 0.42866 0.88225 0.0
Mg140 Mg 0.90162 0.31513 0.11247 0.0
O141 O 0.93857 0.32634 0.00034 0.0
O142 O -0.00571 0.36603 0.03676 0.0
Mg143 Mg -0.00715 0.38119 0.17364 0.0
C144 C 0.97154 0.34547 0.98277 0.0
C145 C 0.83298 0.25237 0.04084 0.0
O146 O 0.83768 0.23836 0.10924 0.0
O147 O 0.90347 0.36866 0.08999 0.0
O148 O 0.95897 0.40553 0.13415 0.0
O149 O 0.91442 0.27363 0.16292 0.0
O150 O 0.94374 0.33095 0.19423 0.0
C151 C 0.92907 0.40008 0.10603 0.0
C152 C 0.94052 0.30004 0.20134 0.0
O153 O 0.85452 0.28497 0.0249 0.0
Mg154 Mg 0.56941 0.89086 0.2924 0.0
O155 O 0.59216 0.92879 0.18065 0.0
O156 O 0.60183 0.98249 0.21897 0.0
Mg157 Mg 0.58588 0.979 0.35751 0.0
C158 C 0.60227 0.9613 0.16405 0.0
C159 C 0.56696 0.82372 0.21987 0.0
O160 O 0.58474 0.82804 0.28963 0.0
O161 O 0.51578 0.88787 0.27068 0.0
O162 O 0.52759 0.94074 0.32289 0.0
O163 O 0.62469 0.90778 0.3425 0.0
O164 O 0.59299 0.93299 0.37528 0.0
C165 C 0.50604 0.91013 0.2921 0.0
C166 C 0.62208 0.9324 0.38205 0.0
O167 O 0.55556 0.84493 0.20352 0.0
C168 C 0.28771 0.34174 0.20893 0.0
C169 C 0.2939 0.34132 0.12296 0.0
H170 H 0.29893 0.33004 0.33203 0.0
C171 C 0.30957 0.32192 0.09362 0.0
H172 H 0.27653 0.35742 0.2328 0.0
C173 C 0.32193 0.30593 0.15018 0.0
C174 C 0.31904 0.30948 0.23658 0.0
H175 H 0.3154 0.32212 0.02768 0.0
H176 H 0.33721 0.29425 0.12667 0.0
C177 C 0.30038 0.326 0.2656 0.0
C178 C 0.98903 0.30561 0.39444 0.0
C179 C 0.02402 0.32578 0.36493 0.0
H180 H 0.93372 0.27937 0.36226 0.0
C181 C 0.03043 0.32716 0.27873 0.0
H182 H 0.98353 0.30498 0.46069 0.0
C183 C 0.00193 0.31279 0.22239 0.0
C184 C 0.96686 0.29667 0.25195 0.0
H185 H 0.05718 0.34333 0.25472 0.0
H186 H 0.00737 0.31831 0.15627 0.0
C187 C 0.96054 0.29089 0.33809 0.0
C188 C 0.65504 0.95345 0.51564 0.0
C189 C 0.65112 0.9603 0.43156 0.0
H190 H 0.67016 0.97561 0.63914 0.0
C191 C 0.66649 -0.00434 0.40393 0.0
H192 H 0.64242 0.92628 0.53853 0.0
C193 C 0.68244 0.0237 0.46108 0.0
C194 C 0.68308 0.01672 0.54655 0.0
H195 H 0.66294 0.00142 0.33978 0.0
H196 H 0.69093 0.05055 0.43973 0.0
C197 C 0.67086 0.9816 0.57311 0.0
C198 C 0.69901 0.65255 0.70811 0.0
C199 C 0.69253 0.65271 0.62213 0.0
H200 H 0.68793 0.66432 0.83105 0.0
C201 C 0.67649 0.67178 0.59252 0.0
H202 H 0.71047 0.63712 0.73221 0.0
C203 C 0.66405 0.68767 0.64885 0.0
C204 C 0.66723 0.68435 0.7353 0.0
H205 H 0.67043 0.67136 0.52659 0.0
H206 H 0.6485 0.69907 0.62516 0.0
C207 C 0.68626 0.66819 0.76457 0.0
C208 C 0.98144 0.67779 0.72047 0.0
C209 C 0.01651 0.69396 0.75044 0.0
H210 H 0.92619 0.64715 0.75217 0.0
C211 C 0.0228 0.69971 0.83664 0.0
H212 H 0.97603 0.67228 0.6543 0.0
C213 C -0.0057 0.68493 0.89267 0.0
C214 C 0.95933 0.66472 0.86277 0.0
H215 H 0.04963 0.71128 0.8611 0.0
H216 H -0.00019 0.68557 0.959 0.0
C217 C 0.95293 0.66335 0.77649 0.0
C218 C 0.31666 0.99393 0.90066 0.0
C219 C 0.33169 0.02927 0.92817 0.0
H220 H 0.2925 0.93907 0.93658 0.0
C221 C 0.32743 0.03604 0.01197 0.0
H222 H 0.32045 0.98822 0.83674 0.0
C223 C 0.31161 0.00787 0.0694 0.0
C224 C 0.29975 0.9728 0.04305 0.0
H225 H 0.33978 0.0632 0.03481 0.0
H226 H 0.31204 0.01383 0.13533 0.0
C227 C 0.30072 0.96586 0.95774 0.0
C228 C 0.55575 0.44796 0.47945 0.0
C229 C 0.5708 0.47793 0.42678 0.0
H230 H 0.50969 0.39709 0.50589 0.0
C231 C 0.55262 0.47794 0.35441 0.0
H232 H 0.56914 0.44795 0.53669 0.0
C233 C 0.51871 0.44954 0.33775 0.0
C234 C 0.50235 0.42053 0.39316 0.0
H235 H 0.56357 0.50112 0.31392 0.0
H236 H 0.50455 0.45114 0.28353 0.0
C237 C 0.52175 0.41912 0.46217 0.0
C238 C 0.0914 0.53007 0.54665 0.0
C239 C 0.06107 0.49632 0.55761 0.0
H240 H 0.11311 0.58693 0.55203 0.0
C241 C 0.02985 0.49411 0.58856 0.0
H242 H 0.11577 0.53242 0.52253 0.0
C243 C 0.02829 0.5247 0.60538 0.0
C244 C 0.05787 0.55869 0.59124 0.0
H245 H 0.00615 0.46846 0.5986 0.0
H246 H 0.00334 0.52145 0.62801 0.0
C247 C 0.08975 0.56115 0.56291 0.0
C248 C 0.53038 0.07803 0.83737 0.0
C249 C 0.51379 0.08838 0.77689 0.0
H250 H 0.57302 0.06811 0.86441 0.0
C251 C 0.53062 0.10171 0.69971 0.0
H252 H 0.51783 0.06766 0.89733 0.0
C253 C 0.56194 0.10143 0.68056 0.0
C254 C 0.57716 0.08889 0.73939 0.0
H255 H 0.51807 0.10946 0.65193 0.0
H256 H 0.57296 0.10876 0.61818 0.0
C257 C 0.56201 0.07854 0.81893 0.0
C258 C 0.46427 0.57462 0.95782 0.0
C259 C 0.48399 0.57262 0.89053 0.0
H260 H 0.41661 0.5464 0.03131 0.0
C261 C 0.46795 0.54301 0.83676 0.0
H262 H 0.47605 0.59713 0.00023 0.0
C263 C 0.43407 0.51466 0.85358 0.0
C264 C 0.41555 0.51532 0.92441 0.0
H265 H 0.48232 0.54093 0.78379 0.0
H266 H 0.42337 0.49106 0.81453 0.0
C267 C 0.43026 0.54584 0.97522 0.0
C268 C 0.89343 0.42937 0.06205 0.0
C269 C 0.92527 0.43188 0.09133 0.0
H270 H 0.86743 0.45806 0.02059 0.0
C271 C 0.95474 0.46588 0.1062 0.0
H272 H 0.87016 0.40359 0.05058 0.0
C273 C 0.95314 0.49646 0.08911 0.0
C274 C 0.92199 0.49421 0.05716 0.0
H275 H 0.97964 0.46916 0.12959 0.0
H276 H 0.97676 0.52212 0.09966 0.0
C277 C 0.89174 0.46043 0.04551 0.0
C278 C 0.42039 0.88765 0.18247 0.0
C279 C 0.40563 0.90102 0.24008 0.0
H280 H 0.46396 0.87903 0.15516 0.0
C281 C 0.42129 0.91229 0.31903 0.0
H282 H 0.40899 0.87958 0.12052 0.0
C283 C 0.45292 0.91285 0.33795 0.0
C284 C 0.46908 0.90168 0.27854 0.0
H285 H 0.41061 0.92335 0.36353 0.0
H286 H 0.46581 0.92387 0.39735 0.0
C287 C 0.45177 0.88746 0.20213 0.0
C288 C 0.33268 0.38673 0.6933 0.0
C289 C 0.34326 0.37334 0.76105 0.0
H290 H 0.3324 0.39301 0.56022 0.0
C291 C 0.3597 0.35314 0.74432 0.0
H292 H 0.32012 0.40258 0.70398 0.0
C293 C 0.36628 0.34727 0.66193 0.0
C294 C 0.35723 0.36206 0.5943 0.0
H295 H 0.36812 0.34241 0.79501 0.0
H296 H 0.37966 0.33218 0.65149 0.0
C297 C 0.33992 0.38146 0.61087 0.0
C298 C 0.01957 0.36291 0.87524 0.0
C299 C 0.98321 0.34604 0.89528 0.0
H300 H 0.05884 0.38158 0.77868 0.0
C301 C 0.9581 0.33201 0.82999 0.0
H302 H 0.03962 0.37373 0.92395 0.0
C303 C 0.96911 0.33674 0.7465 0.0
C304 C 0.00549 0.35524 0.72631 0.0
H305 H 0.92985 0.31873 0.84305 0.0
H306 H 0.94906 0.32694 0.69774 0.0
C307 C 0.03058 0.36726 0.79178 0.0
C308 C 0.63477 0.01079 0.06075 0.0
C309 C 0.61293 0.97425 0.07715 0.0
H310 H 0.65931 0.05166 0.9682 0.0
C311 C 0.59996 0.95033 0.00934 0.0
H312 H 0.64531 0.02986 0.11156 0.0
C313 C 0.6075 0.96286 0.92685 0.0
C314 C 0.62883 -0.0005 0.91047 0.0
H315 H 0.58294 0.92199 0.01989 0.0
H316 H 0.59625 0.94391 0.87594 0.0
C317 C 0.64294 0.02322 0.97847 0.0
C318 C 0.61971 0.64594 0.16052 0.0
C319 C 0.62894 0.63128 0.09314 0.0
H320 H 0.61766 0.65064 0.29353 0.0
C321 C 0.64631 0.61195 0.11019 0.0
H322 H 0.60626 0.66096 0.14971 0.0
C323 C 0.65346 0.60663 0.1928 0.0
C324 C 0.64272 0.6199 0.26026 0.0
H325 H 0.65396 0.60051 0.05976 0.0
H326 H 0.6661 0.59085 0.20384 0.0
C327 C 0.6262 0.64001 0.24307 0.0
C328 C 0.96404 0.62812 0.37322 0.0
C329 C 0.00038 0.64476 0.3937 0.0
H330 H 0.92481 0.60962 0.27621 0.0
C331 C 0.02552 0.65854 0.32869 0.0
H332 H 0.94397 0.6175 0.42171 0.0
C333 C 0.01454 0.65378 0.24505 0.0
C334 C 0.97816 0.6355 0.22445 0.0
H335 H 0.05375 0.67163 0.3421 0.0
H336 H 0.03459 0.66337 0.19653 0.0
C337 C 0.95306 0.62375 0.28962 0.0
C338 C 0.37521 0.02701 0.42424 0.0
C339 C 0.35389 0.99037 0.40788 0.0
H340 H 0.3998 0.06789 0.51729 0.0
C341 C 0.33981 0.96665 0.47588 0.0
H342 H 0.38643 0.04595 0.37333 0.0
C343 C 0.34801 0.97909 0.55816 0.0
C344 C 0.36986 0.01563 0.57455 0.0
H345 H 0.32345 0.9382 0.46563 0.0
H346 H 0.33751 0.96002 0.60898 0.0
C347 C 0.38278 0.03955 0.50673 0.0
C348 C 0.40761 0.23995 0.61267 0.0
C349 C 0.4226 0.24175 0.53369 0.0
H350 H 0.39432 0.21518 0.73302 0.0
C351 C 0.43772 0.22028 0.51777 0.0
H352 H 0.39596 0.25632 0.62726 0.0
C353 C 0.43675 0.19659 0.57866 0.0
C354 C 0.42072 0.19401 0.65668 0.0
H355 H 0.44957 0.22114 0.45767 0.0
H356 H 0.44788 0.17978 0.56386 0.0
C357 C 0.40672 0.21638 0.67348 0.0
C358 C 0.18797 0.36657 0.76718 0.0
C359 C 0.21629 0.39946 0.79403 0.0
H360 H 0.14012 0.33916 0.69626 0.0
C361 C 0.21755 0.43105 0.76742 0.0
H362 H 0.18604 0.34167 0.78647 0.0
C363 C 0.19093 0.42959 0.71475 0.0
C364 C 0.16257 0.39652 0.6884 0.0
H365 H 0.23905 0.45681 0.7871 0.0
H366 H 0.1925 0.45427 0.69496 0.0
C367 C 0.16148 0.36512 0.71537 0.0
C368 C 0.80141 0.24379 0.9037 0.0
C369 C 0.80523 0.22961 0.97966 0.0
H370 H 0.77524 0.23312 0.7847 0.0
C371 C 0.78354 0.19293 0.99482 0.0
H372 H 0.81769 0.27197 0.89017 0.0
C373 C 0.75937 0.17071 0.9344 0.0
C374 C 0.75624 0.18466 0.85745 0.0
H375 H 0.78571 0.18114 0.05272 0.0
H376 H 0.74353 0.14246 0.94767 0.0
C377 C 0.7771 0.22153 0.84323 0.0
C378 C 0.54615 0.79347 0.08072 0.0
C379 C 0.56329 0.79681 0.15775 0.0
H380 H 0.53265 0.76863 0.96008 0.0
C381 C 0.57865 0.77551 0.17319 0.0
H382 H 0.53397 0.80946 0.06698 0.0
C383 C 0.57799 0.75227 0.11197 0.0
C384 C 0.56186 0.74971 0.03393 0.0
H385 H 0.59193 0.77731 0.23194 0.0
H386 H 0.59068 0.73673 0.12549 0.0
C387 C 0.54539 0.77009 0.01943 0.0
C388 C 0.79765 0.62598 0.26647 0.0
C389 C 0.76929 0.5933 0.29405 0.0
H390 H 0.84508 0.6528 0.19436 0.0
C391 C 0.7675 0.56147 0.26757 0.0
H392 H 0.79997 0.65104 0.28564 0.0
C393 C 0.79364 0.56249 0.21429 0.0
C394 C 0.82204 0.59535 0.18717 0.0
H395 H 0.74594 0.53586 0.2878 0.0
H396 H 0.79167 0.53764 0.19462 0.0
C397 C 0.82367 0.62699 0.21404 0.0
C398 C 0.18202 0.7464 0.40401 0.0
C399 C 0.17796 0.76088 0.47908 0.0
H400 H 0.20833 0.75664 0.28557 0.0
C401 C 0.19938 0.79767 0.49325 0.0
H402 H 0.16594 0.71813 0.39125 0.0
C403 C 0.2235 0.81969 0.43271 0.0
C404 C 0.22686 0.80543 0.35661 0.0
H405 H 0.19702 0.80969 0.55045 0.0
H406 H 0.23913 0.84803 0.44519 0.0
C407 C 0.20629 0.76846 0.34341 0.0
loop_
_geom_bond_atom_site_label_1
_geom_bond_atom_site_label_2
_geom_bond_distance
_geom_bond_site_symmetry_2
_ccdc_geom_bond_type
Mg0 O1 2.028 . S
Mg0 O7 1.986 . S
Mg0 O9 2.114 . S
Mg0 O10 2.251 . S
Mg0 O13 2.010 . S
O1 Mg0 2.028 . S
O1 C4 1.250 . S
O2 Mg3 2.028 . S
O2 C4 1.248 . S
Mg3 O2 2.028 . S
Mg3 O8 2.032 . S
Mg3 O10 2.079 . S
C4 O1 1.250 . S
C4 O2 1.248 . S
C5 O6 1.264 . S
C5 O13 1.249 . S
O6 C5 1.264 . S
O7 Mg0 1.986 . S
O7 C11 1.246 . S
O8 Mg3 2.032 . S
O8 C11 1.259 . S
O9 Mg0 2.114 . S
O9 C12 1.252 . S
O10 Mg0 2.251 . S
O10 Mg3 2.079 . S
O10 C12 1.273 . S
C11 O7 1.246 . S
C11 O8 1.259 . S
C12 O9 1.252 . S
C12 O10 1.273 . S
O13 Mg0 2.010 . S
O13 C5 1.249 . S
Mg14 O15 2.028 . S
Mg14 O21 1.986 . S
Mg14 O23 2.114 . S
Mg14 O24 2.251 . S
Mg14 O27 2.010 . S
O15 Mg14 2.028 . S
O15 C18 1.250 . S
O16 Mg17 2.028 . S
O16 C18 1.248 . S
Mg17 O16 2.028 . S
Mg17 O22 2.032 . S
Mg17 O24 2.079 . S
C18 O15 1.250 . S
C18 O16 1.248 . S
C19 O20 1.264 . S
C19 O27 1.249 . S
O20 C19 1.264 . S
O21 Mg14 1.986 . S
O21 C25 1.246 . S
O22 Mg17 2.032 . S
O22 C25 1.259 . S
O23 Mg14 2.114 . S
O23 C26 1.252 . S
O24 Mg14 2.251 . S
O24 Mg17 2.079 . S
O24 C26 1.273 . S
C25 O21 1.246 . S
C25 O22 1.259 . S
C26 O23 1.252 . S
C26 O24 1.273 . S
O27 Mg14 2.010 . S
O27 C19 1.249 . S
Mg28 O29 2.028 . S
Mg28 O35 1.986 . S
Mg28 O37 2.114 . S
Mg28 O38 2.251 . S
Mg28 O41 2.010 . S
O29 Mg28 2.028 . S
O29 C32 1.250 . S
O30 Mg31 2.028 . S
O30 C32 1.248 . S
Mg31 O30 2.028 . S
Mg31 O36 2.032 . S
Mg31 O38 2.079 . S
C32 O29 1.250 . S
C32 O30 1.248 . S
C33 O34 1.264 . S
C33 O41 1.249 . S
O34 C33 1.264 . S
O35 Mg28 1.986 . S
O35 C39 1.246 . S
O36 Mg31 2.032 . S
O36 C39 1.259 . S
O37 Mg28 2.114 . S
O37 C40 1.252 . S
O38 Mg28 2.251 . S
O38 Mg31 2.079 . S
O38 C40 1.273 . S
C39 O35 1.246 . S
C39 O36 1.259 . S
C40 O37 1.252 . S
C40 O38 1.273 . S
O41 Mg28 2.010 . S
O41 C33 1.249 . S
Mg42 O43 2.028 1_556 S
Mg42 O49 1.986 . S
Mg42 O51 2.114 . S
Mg42 O52 2.251 . S
Mg42 O55 2.010 . S
O43 Mg42 2.028 1_554 S
O43 C46 1.250 . S
O44 Mg45 2.028 . S
O44 C46 1.248 1_556 S
Mg45 O44 2.028 . S
Mg45 O50 2.032 . S
Mg45 O52 2.079 . S
C46 O43 1.250 . S
C46 O44 1.248 1_554 S
C47 O48 1.264 . S
C47 O55 1.249 . S
O48 C47 1.264 . S
O49 Mg42 1.986 . S
O49 C53 1.246 . S
O50 Mg45 2.032 . S
O50 C53 1.259 . S
O51 Mg42 2.114 . S
O51 C54 1.252 . S
O52 Mg42 2.251 . S
O52 Mg45 2.079 . S
O52 C54 1.273 . S
C53 O49 1.246 . S
C53 O50 1.259 . S
C54 O51 1.252 . S
C54 O52 1.273 . S
O55 Mg42 2.010 . S
O55 C47 1.249 . S
Mg56 O57 2.028 . S
Mg56 O63 1.986 . S
Mg56 O65 2.114 1_554 S
Mg56 O66 2.251 1_554 S
Mg56 O69 2.010 . S
O57 Mg56 2.028 . S
O57 C60 1.250 . S
O58 Mg59 2.028 . S
O58 C60 1.248 . S
Mg59 O58 2.028 . S
Mg59 O64 2.032 . S
Mg59 O66 2.079 1_554 S
C60 O57 1.250 . S
C60 O58 1.248 . S
C61 O62 1.264 . S
C61 O69 1.249 . S
O62 C61 1.264 . S
O63 Mg56 1.986 . S
O63 C67 1.246 . S
O64 Mg59 2.032 . S
O64 C67 1.259 . S
O65 Mg56 2.114 1_556 S
O65 C68 1.252 . S
O66 Mg56 2.251 1_556 S
O66 Mg59 2.079 1_556 S
O66 C68 1.273 . S
C67 O63 1.246 . S
C67 O64 1.259 . S
C68 O65 1.252 . S
C68 O66 1.273 . S
O69 Mg56 2.010 . S
O69 C61 1.249 . S
Mg70 O71 2.028 . S
Mg70 O77 1.986 . S
Mg70 O79 2.114 . S
Mg70 O80 2.251 . S
Mg70 O83 2.010 . S
O71 Mg70 2.028 . S
O71 C74 1.250 . S
O72 Mg73 2.028 . S
O72 C74 1.248 . S
Mg73 O72 2.028 . S
Mg73 O78 2.032 . S
Mg73 O80 2.079 . S
C74 O71 1.250 . S
C74 O72 1.248 . S
C75 O76 1.264 . S
C75 O83 1.249 . S
O76 C75 1.264 . S
O77 Mg70 1.986 . S
O77 C81 1.246 . S
O78 Mg73 2.032 . S
O78 C81 1.259 . S
O79 Mg70 2.114 . S
O79 C82 1.252 . S
O80 Mg70 2.251 . S
O80 Mg73 2.079 . S
O80 C82 1.273 . S
C81 O77 1.246 . S
C81 O78 1.259 . S
C82 O79 1.252 . S
C82 O80 1.273 . S
O83 Mg70 2.010 . S
O83 C75 1.249 . S
Mg84 O85 2.028 . S
Mg84 O91 1.986 . S
Mg84 O93 2.114 . S
Mg84 O94 2.251 . S
Mg84 O97 2.010 . S
O85 Mg84 2.028 . S
O85 C88 1.250 . S
O86 Mg87 2.028 . S
O86 C88 1.248 . S
Mg87 O86 2.028 . S
Mg87 O92 2.032 . S
Mg87 O94 2.079 . S
C88 O85 1.250 . S
C88 O86 1.248 . S
C89 O90 1.264 . S
C89 O97 1.249 . S
O90 C89 1.264 . S
O91 Mg84 1.986 . S
O91 C95 1.246 . S
O92 Mg87 2.032 . S
O92 C95 1.259 . S
O93 Mg84 2.114 . S
O93 C96 1.252 . S
O94 Mg84 2.251 . S
O94 Mg87 2.079 . S
O94 C96 1.273 . S
C95 O91 1.246 . S
C95 O92 1.259 . S
C96 O93 1.252 . S
C96 O94 1.273 . S
O97 Mg84 2.010 . S
O97 C89 1.249 . S
Mg98 O99 2.028 . S
Mg98 O105 1.986 . S
Mg98 O107 2.114 . S
Mg98 O108 2.251 . S
Mg98 O111 2.010 . S
O99 Mg98 2.028 . S
O99 C102 1.250 . S
O100 Mg101 2.028 . S
O100 C102 1.248 . S
Mg101 O100 2.028 . S
Mg101 O106 2.032 . S
Mg101 O108 2.079 . S
C102 O99 1.250 . S
C102 O100 1.248 . S
C103 O104 1.264 . S
C103 O111 1.249 . S
O104 C103 1.264 . S
O105 Mg98 1.986 . S
O105 C109 1.246 . S
O106 Mg101 2.032 . S
O106 C109 1.259 . S
O107 Mg98 2.114 . S
O107 C110 1.252 . S
O108 Mg98 2.251 . S
O108 Mg101 2.079 . S
O108 C110 1.273 . S
C109 O105 1.246 . S
C109 O106 1.259 . S
C110 O107 1.252 . S
C110 O108 1.273 . S
O111 Mg98 2.010 . S
O111 C103 1.249 . S
Mg112 O113 2.028 . S
Mg112 O119 1.986 . S
Mg112 O121 2.114 . S
Mg112 O122 2.251 . S
Mg112 O125 2.010 . S
O113 Mg112 2.028 . S
O113 C116 1.250 . S
O114 Mg115 2.028 . S
O114 C116 1.248 . S
Mg115 O114 2.028 . S
Mg115 O120 2.032 . S
Mg115 O122 2.079 . S
C116 O113 1.250 . S
C116 O114 1.248 . S
C117 O118 1.264 . S
C117 O125 1.249 . S
O118 C117 1.264 . S
O119 Mg112 1.986 . S
O119 C123 1.246 . S
O120 Mg115 2.032 . S
O120 C123 1.259 . S
O121 Mg112 2.114 . S
O121 C124 1.252 . S
O122 Mg112 2.251 . S
O122 Mg115 2.079 . S
O122 C124 1.273 . S
C123 O119 1.246 . S
C123 O120 1.259 . S
C124 O121 1.252 . S
C124 O122 1.273 . S
O125 Mg112 2.010 . S
O125 C117 1.249 . S
Mg126 O127 2.028 . S
Mg126 O133 1.986 . S
Mg126 O135 2.114 1_556 S
Mg126 O136 2.251 1_556 S
Mg126 O139 2.010 . S
O127 Mg126 2.028 . S
O127 C130 1.250 . S
O128 Mg129 2.028 . S
O128 C130 1.248 . S
Mg129 O128 2.028 . S
Mg129 O134 2.032 . S
Mg129 O136 2.079 1_556 S
C130 O127 1.250 . S
C130 O128 1.248 . S
C131 O132 1.264 . S
C131 O139 1.249 . S
O132 C131 1.264 . S
O133 Mg126 1.986 . S
O133 C137 1.246 . S
O134 Mg129 2.032 . S
O134 C137 1.259 . S
O135 Mg126 2.114 1_554 S
O135 C138 1.252 . S
O136 Mg126 2.251 1_554 S
O136 Mg129 2.079 1_554 S
O136 C138 1.273 . S
C137 O133 1.246 . S
C137 O134 1.259 . S
C138 O135 1.252 . S
C138 O136 1.273 . S
O139 Mg126 2.010 . S
O139 C131 1.249 . S
Mg140 O141 2.028 1_554 S
Mg140 O147 1.986 . S
Mg140 O149 2.114 . S
Mg140 O150 2.251 . S
Mg140 O153 2.010 . S
O141 Mg140 2.028 1_556 S
O141 C144 1.250 . S
O142 Mg143 2.028 . S
O142 C144 1.248 1_554 S
Mg143 O142 2.028 . S
Mg143 O148 2.032 . S
Mg143 O150 2.079 . S
C144 O141 1.250 . S
C144 O142 1.248 1_556 S
C145 O146 1.264 . S
C145 O153 1.249 . S
O146 C145 1.264 . S
O147 Mg140 1.986 . S
O147 C151 1.246 . S
O148 Mg143 2.032 . S
O148 C151 1.259 . S
O149 Mg140 2.114 . S
O149 C152 1.252 . S
O150 Mg140 2.251 . S
O150 Mg143 2.079 . S
O150 C152 1.273 . S
C151 O147 1.246 . S
C151 O148 1.259 . S
C152 O149 1.252 . S
C152 O150 1.273 . S
O153 Mg140 2.010 . S
O153 C145 1.249 . S
Mg154 O155 2.028 . S
Mg154 O161 1.986 . S
Mg154 O163 2.114 . S
Mg154 O164 2.251 . S
Mg154 O167 2.010 . S
O155 Mg154 2.028 . S
O155 C158 1.250 . S
O156 Mg157 2.028 . S
O156 C158 1.248 . S
Mg157 O156 2.028 . S
Mg157 O162 2.032 . S
Mg157 O164 2.079 . S
C158 O155 1.250 . S
C158 O156 1.248 . S
C159 O160 1.264 . S
C159 O167 1.249 . S
O160 C159 1.264 . S
O161 Mg154 1.986 . S
O161 C165 1.246 . S
O162 Mg157 2.032 . S
O162 C165 1.259 . S
O163 Mg154 2.114 . S
O163 C166 1.252 . S
O164 Mg154 2.251 . S
O164 Mg157 2.079 . S
O164 C166 1.273 . S
C165 O161 1.246 . S
C165 O162 1.259 . S
C166 O163 1.252 . S
C166 O164 1.273 . S
O167 Mg154 2.010 . S
O167 C159 1.249 . S
C168 C169 1.387 . S
C168 H172 0.950 . S
C168 C177 1.390 . S
C169 C168 1.387 . S
C169 C171 1.387 . S
H170 C177 0.950 . S
C171 C169 1.387 . S
C171 C173 1.390 . S
C171 H175 0.950 . S
H172 C168 0.950 . S
C173 C171 1.390 . S
C173 C174 1.387 . S
C173 H176 0.950 . S
C174 C173 1.387 . S
C174 C177 1.387 . S
H175 C171 0.950 . S
H176 C173 0.950 . S
C177 C168 1.390 . S
C177 H170 0.950 . S
C177 C174 1.387 . S
C178 C179 1.387 . S
C178 H182 0.950 . S
C178 C187 1.390 1_455 S
C179 C178 1.387 . S
C179 C181 1.387 . S
H180 C187 0.950 . S
C181 C179 1.387 . S
C181 C183 1.390 1_455 S
C181 H185 0.950 . S
H182 C178 0.950 . S
C183 C181 1.390 1_655 S
C183 C184 1.387 . S
C183 H186 0.950 . S
C184 C183 1.387 . S
C184 C187 1.387 . S
H185 C181 0.950 . S
H186 C183 0.950 . S
C187 C178 1.390 1_655 S
C187 H180 0.950 . S
C187 C184 1.387 . S
C188 C189 1.387 . S
C188 H192 0.950 . S
C188 C197 1.390 1_565 S
C189 C188 1.387 . S
C189 C191 1.387 . S
H190 C197 0.950 . S
C191 C189 1.387 . S
C191 C193 1.390 1_565 S
C191 H195 0.950 . S
H192 C188 0.950 . S
C193 C191 1.390 1_545 S
C193 C194 1.387 . S
C193 H196 0.950 . S
C194 C193 1.387 . S
C194 C197 1.387 . S
H195 C191 0.950 . S
H196 C193 0.950 . S
C197 C188 1.390 1_545 S
C197 H190 0.950 . S
C197 C194 1.387 . S
C198 C199 1.387 . S
C198 H202 0.950 . S
C198 C207 1.390 . S
C199 C198 1.387 . S
C199 C201 1.387 . S
H200 C207 0.950 . S
C201 C199 1.387 . S
C201 C203 1.390 . S
C201 H205 0.950 . S
H202 C198 0.950 . S
C203 C201 1.390 . S
C203 C204 1.387 . S
C203 H206 0.950 . S
C204 C203 1.387 . S
C204 C207 1.387 . S
H205 C201 0.950 . S
H206 C203 0.950 . S
C207 C198 1.390 . S
C207 H200 0.950 . S
C207 C204 1.387 . S
C208 C209 1.387 . S
C208 H212 0.950 . S
C208 C217 1.390 1_455 S
C209 C208 1.387 . S
C209 C211 1.387 . S
H210 C217 0.950 . S
C211 C209 1.387 . S
C211 C213 1.390 1_455 S
C211 H215 0.950 . S
H212 C208 0.950 . S
C213 C211 1.390 1_655 S
C213 C214 1.387 . S
C213 H216 0.950 . S
C214 C213 1.387 . S
C214 C217 1.387 . S
H215 C211 0.950 . S
H216 C213 0.950 . S
C217 C208 1.390 1_655 S
C217 H210 0.950 . S
C217 C214 1.387 . S
C218 C219 1.387 . S
C218 H222 0.950 . S
C218 C227 1.390 1_546 S
C219 C218 1.387 . S
C219 C221 1.387 . S
H220 C227 0.950 . S
C221 C219 1.387 . S
C221 C223 1.390 1_546 S
C221 H225 0.950 . S
H222 C218 0.950 . S
C223 C221 1.390 1_564 S
C223 C224 1.387 . S
C223 H226 0.950 . S
C224 C223 1.387 . S
C224 C227 1.387 . S
H225 C221 0.950 . S
H226 C223 0.950 . S
C227 C218 1.390 1_564 S
C227 H220 0.950 . S
C227 C224 1.387 . S
C228 C229 1.387 . S
C228 H232 0.950 . S
C228 C237 1.390 . S
C229 C228 1.387 . S
C229 C231 1.387 . S
H230 C237 0.950 . S
C231 C229 1.387 . S
C231 C233 1.390 . S
C231 H235 0.950 . S
H232 C228 0.950 . S
C233 C231 1.390 . S
C233 C234 1.387 . S
C233 H236 0.950 . S
C234 C233 1.387 . S
C234 C237 1.387 . S
H235 C231 0.950 . S
H236 C233 0.950 . S
C237 C228 1.390 . S
C237 H230 0.950 . S
C237 C234 1.387 . S
C238 C239 1.387 . S
C238 H242 0.950 . S
C238 C247 1.390 . S
C239 C238 1.387 . S
C239 C241 1.387 . S
H240 C247 0.950 . S
C241 C239 1.387 . S
C241 C243 1.390 . S
C241 H245 0.950 . S
H242 C238 0.950 . S
C243 C241 1.390 . S
C243 C244 1.387 . S
C243 H246 0.950 . S
C244 C243 1.387 . S
C244 C247 1.387 . S
H245 C241 0.950 . S
H246 C243 0.950 . S
C247 C238 1.390 . S
C247 H240 0.950 . S
C247 C244 1.387 . S
C248 C249 1.387 . S
C248 H252 0.950 . S
C248 C257 1.390 . S
C249 C248 1.387 . S
C249 C251 1.387 . S
H250 C257 0.950 . S
C251 C249 1.387 . S
C251 C253 1.390 . S
C251 H255 0.950 . S
H252 C248 0.950 . S
C253 C251 1.390 . S
C253 C254 1.387 . S
C253 H256 0.950 . S
C254 C253 1.387 . S
C254 C257 1.387 . S
H255 C251 0.950 . S
H256 C253 0.950 . S
C257 C248 1.390 . S
C257 H250 0.950 . S
C257 C254 1.387 . S
C258 C259 1.387 . S
C258 H262 0.950 1_556 S
C258 C267 1.390 . S
C259 C258 1.387 . S
C259 C261 1.387 . S
H260 C267 0.950 1_554 S
C261 C259 1.387 . S
C261 C263 1.390 . S
C261 H265 0.950 . S
H262 C258 0.950 1_554 S
C263 C261 1.390 . S
C263 C264 1.387 . S
C263 H266 0.950 . S
C264 C263 1.387 . S
C264 C267 1.387 . S
H265 C261 0.950 . S
H266 C263 0.950 . S
C267 C258 1.390 . S
C267 H260 0.950 1_556 S
C267 C264 1.387 . S
C268 C269 1.387 . S
C268 H272 0.950 1_554 S
C268 C277 1.390 . S
C269 C268 1.387 . S
C269 C271 1.387 . S
H270 C277 0.950 1_556 S
C271 C269 1.387 . S
C271 C273 1.390 . S
C271 H275 0.950 . S
H272 C268 0.950 1_556 S
C273 C271 1.390 . S
C273 C274 1.387 . S
C273 H276 0.950 . S
C274 C273 1.387 . S
C274 C277 1.387 . S
H275 C271 0.950 . S
H276 C273 0.950 . S
C277 C268 1.390 . S
C277 H270 0.950 1_554 S
C277 C274 1.387 . S
C278 C279 1.387 . S
C278 H282 0.950 . S
C278 C287 1.390 . S
C279 C278 1.387 . S
C279 C281 1.387 . S
H280 C287 0.950 . S
C281 C279 1.387 . S
C281 C283 1.390 . S
C281 H285 0.950 . S
H282 C278 0.950 . S
C283 C281 1.390 . S
C283 C284 1.387 . S
C283 H286 0.950 . S
C284 C283 1.387 . S
C284 C287 1.387 . S
H285 C281 0.950 . S
H286 C283 0.950 . S
C287 C278 1.390 . S
C287 H280 0.950 . S
C287 C284 1.387 . S
C288 C289 1.387 . S
C288 H292 0.950 . S
C288 C297 1.390 . S
C289 C288 1.387 . S
C289 C291 1.387 . S
H290 C297 0.950 . S
C291 C289 1.387 . S
C291 C293 1.390 . S
C291 H295 0.950 . S
H292 C288 0.950 . S
C293 C291 1.390 . S
C293 C294 1.387 . S
C293 H296 0.950 . S
C294 C293 1.387 . S
C294 C297 1.387 . S
H295 C291 0.950 . S
H296 C293 0.950 . S
C297 C288 1.390 . S
C297 H290 0.950 . S
C297 C294 1.387 . S
C298 C299 1.387 1_455 S
C298 H302 0.950 . S
C298 C307 1.390 . S
C299 C298 1.387 1_655 S
C299 C301 1.387 . S
H300 C307 0.950 . S
C301 C299 1.387 . S
C301 C303 1.390 . S
C301 H305 0.950 . S
H302 C298 0.950 . S
C303 C301 1.390 . S
C303 C304 1.387 1_655 S
C303 H306 0.950 . S
C304 C303 1.387 1_455 S
C304 C307 1.387 . S
H305 C301 0.950 . S
H306 C303 0.950 . S
C307 C298 1.390 . S
C307 H300 0.950 . S
C307 C304 1.387 . S
C308 C309 1.387 . S
C308 H312 0.950 . S
C308 C317 1.390 1_564 S
C309 C308 1.387 . S
C309 C311 1.387 . S
H310 C317 0.950 . S
C311 C309 1.387 . S
C311 C313 1.390 1_564 S
C311 H315 0.950 . S
H312 C308 0.950 . S
C313 C311 1.390 1_546 S
C313 C314 1.387 . S
C313 H316 0.950 . S
C314 C313 1.387 . S
C314 C317 1.387 . S
H315 C311 0.950 . S
H316 C313 0.950 . S
C317 C308 1.390 1_546 S
C317 H310 0.950 . S
C317 C314 1.387 . S
C318 C319 1.387 . S
C318 H322 0.950 . S
C318 C327 1.390 . S
C319 C318 1.387 . S
C319 C321 1.387 . S
H320 C327 0.950 . S
C321 C319 1.387 . S
C321 C323 1.390 . S
C321 H325 0.950 . S
H322 C318 0.950 . S
C323 C321 1.390 . S
C323 C324 1.387 . S
C323 H326 0.950 . S
C324 C323 1.387 . S
C324 C327 1.387 . S
H325 C321 0.950 . S
H326 C323 0.950 . S
C327 C318 1.390 . S
C327 H320 0.950 . S
C327 C324 1.387 . S
C328 C329 1.387 . S
C328 H332 0.950 . S
C328 C337 1.390 1_455 S
C329 C328 1.387 . S
C329 C331 1.387 . S
H330 C337 0.950 . S
C331 C329 1.387 . S
C331 C333 1.390 1_455 S
C331 H335 0.950 . S
H332 C328 0.950 . S
C333 C331 1.390 1_655 S
C333 C334 1.387 . S
C333 H336 0.950 . S
C334 C333 1.387 . S
C334 C337 1.387 . S
H335 C331 0.950 . S
H336 C333 0.950 . S
C337 C328 1.390 1_655 S
C337 H330 0.950 . S
C337 C334 1.387 . S
C338 C339 1.387 . S
C338 H342 0.950 . S
C338 C347 1.390 1_565 S
C339 C338 1.387 . S
C339 C341 1.387 . S
H340 C347 0.950 . S
C341 C339 1.387 . S
C341 C343 1.390 1_565 S
C341 H345 0.950 . S
H342 C338 0.950 . S
C343 C341 1.390 1_545 S
C343 C344 1.387 . S
C343 H346 0.950 . S
C344 C343 1.387 . S
C344 C347 1.387 . S
H345 C341 0.950 . S
H346 C343 0.950 . S
C347 C338 1.390 1_545 S
C347 H340 0.950 . S
C347 C344 1.387 . S
C348 C349 1.387 . S
C348 H352 0.950 . S
C348 C357 1.390 . S
C349 C348 1.387 . S
C349 C351 1.387 . S
H350 C357 0.950 . S
C351 C349 1.387 . S
C351 C353 1.390 . S
C351 H355 0.950 . S
H352 C348 0.950 . S
C353 C351 1.390 . S
C353 C354 1.387 . S
C353 H356 0.950 . S
C354 C353 1.387 . S
C354 C357 1.387 . S
H355 C351 0.950 . S
H356 C353 0.950 . S
C357 C348 1.390 . S
C357 H350 0.950 . S
C357 C354 1.387 . S
C358 C359 1.387 . S
C358 H362 0.950 . S
C358 C367 1.390 . S
C359 C358 1.387 . S
C359 C361 1.387 . S
H360 C367 0.950 . S
C361 C359 1.387 . S
C361 C363 1.390 . S
C361 H365 0.950 . S
H362 C358 0.950 . S
C363 C361 1.390 . S
C363 C364 1.387 . S
C363 H366 0.950 . S
C364 C363 1.387 . S
C364 C367 1.387 . S
H365 C361 0.950 . S
H366 C363 0.950 . S
C367 C358 1.390 . S
C367 H360 0.950 . S
C367 C364 1.387 . S
C368 C369 1.387 . S
C368 H372 0.950 . S
C368 C377 1.390 . S
C369 C368 1.387 . S
C369 C371 1.387 . S
H370 C377 0.950 . S
C371 C369 1.387 . S
C371 C373 1.390 . S
C371 H375 0.950 1_556 S
H372 C368 0.950 . S
C373 C371 1.390 . S
C373 C374 1.387 . S
C373 H376 0.950 . S
C374 C373 1.387 . S
C374 C377 1.387 . S
H375 C371 0.950 1_554 S
H376 C373 0.950 . S
C377 C368 1.390 . S
C377 H370 0.950 . S
C377 C374 1.387 . S
C378 C379 1.387 . S
C378 H382 0.950 . S
C378 C387 1.385 1_554 S
C379 C378 1.387 . S
C379 C381 1.387 . S
H380 C387 0.956 . S
C381 C379 1.387 . S
C381 C383 1.390 . S
C381 H385 0.950 . S
H382 C378 0.950 . S
C383 C381 1.390 . S
C383 C384 1.387 . S
C383 H386 0.950 . S
C384 C383 1.387 . S
C384 C387 1.386 1_554 S
H385 C381 0.950 . S
H386 C383 0.950 . S
C387 C378 1.385 1_556 S
C387 H380 0.956 . S
C387 C384 1.386 1_556 S
C388 C389 1.387 . S
C388 H392 0.950 . S
C388 C397 1.390 . S
C389 C388 1.387 . S
C389 C391 1.387 . S
H390 C397 0.950 . S
C391 C389 1.387 . S
C391 C393 1.390 . S
C391 H395 0.950 . S
H392 C388 0.950 . S
C393 C391 1.390 . S
C393 C394 1.387 . S
C393 H396 0.950 . S
C394 C393 1.387 . S
C394 C397 1.387 . S
H395 C391 0.950 . S
H396 C393 0.950 . S
C397 C388 1.390 . S
C397 H390 0.950 . S
C397 C394 1.387 . S
C398 C399 1.387 . S
C398 H402 0.950 . S
C398 C407 1.390 . S
C399 C398 1.387 . S
C399 C401 1.387 . S
H400 C407 0.950 . S
C401 C399 1.387 . S
C401 C403 1.390 . S
C401 H405 0.950 . S
H402 C398 0.950 . S
C403 C401 1.390 . S
C403 C404 1.387 . S
C403 H406 0.950 . S
C404 C403 1.387 . S
C404 C407 1.387 . S
H405 C401 0.950 . S
H406 C403 0.950 . S
C407 C398 1.390 . S
C407 H400 0.950 . S
C407 C404 1.387 . S
C169 C138 1.361 . S
C174 C12 1.363 . S
C179 C26 1.364 . S
C184 C152 1.363 . S
C189 C166 1.363 . S
C194 C40 1.363 . S
C199 C96 1.361 . S
C204 C54 1.363 . S
C209 C110 1.362 . S
C214 C68 1.361 . S
C219 C124 1.362 . S
C224 C82 1.362 . S
C229 C95 1.468 . S
C234 C11 1.465 . S
C239 C25 1.468 . S
C244 C109 1.465 . S
C249 C123 1.466 . S
C254 C39 1.466 . S
C259 C53 1.465 . S
C264 C137 1.468 . S
C269 C151 1.465 . S
C274 C67 1.468 . S
C279 C81 1.467 . S
C284 C165 1.467 . S
C289 C130 1.196 . S
C294 C4 1.193 . S
C299 C144 1.193 . S
C304 C18 1.196 . S
C309 C158 1.193 . S
C314 C32 1.193 . S
C319 C46 1.193 . S
C324 C88 1.192 . S
C329 C102 1.194 . S
C334 C60 1.195 . S
C339 C74 1.195 . S
C344 C116 1.195 . S
C349 C5 1.384 . S
C354 C117 1.387 . S
C359 C131 1.388 . S
C364 C19 1.388 . S
C369 C145 1.383 1_556 S
C374 C33 1.385 . S
C379 C159 1.384 . S
C384 C47 1.387 1_554 S
C389 C89 1.388 . S
C394 C61 1.388 . S
C399 C103 1.383 . S
C404 C75 1.385 . S
