# Generated by pormake.
# Topology pyr-e, (6)-cn, num edge types: 1
# Building blocks:
#     Node 0, Type 0, BuildingBlock: OJICUG_clean_sbu_0, # of connection points: 6
#     Node 1, Type 0, BuildingBlock: OJICUG_clean_sbu_0, # of connection points: 6
#     Node 2, Type 0, BuildingBlock: OJICUG_clean_sbu_0, # of connection points: 6
#     Node 3, Type 0, BuildingBlock: OJICUG_clean_sbu_0, # of connection points: 6
#     Node 4, Type 0, BuildingBlock: OJICUG_clean_sbu_0, # of connection points: 6
#     Node 5, Type 0, BuildingBlock: OJICUG_clean_sbu_0, # of connection points: 6
#     Node 6, Type 0, BuildingBlock: OJICUG_clean_sbu_0, # of connection points: 6
#     Node 7, Type 0, BuildingBlock: OJICUG_clean_sbu_0, # of connection points: 6
#     Node 8, Type 0, BuildingBlock: OJICUG_clean_sbu_0, # of connection points: 6
#     Node 9, Type 0, BuildingBlock: OJICUG_clean_sbu_0, # of connection points: 6
#     Node 10, Type 0, BuildingBlock: OJICUG_clean_sbu_0, # of connection points: 6
#     Node 11, Type 0, BuildingBlock: OJICUG_clean_sbu_0, # of connection points: 6
#     Node 12, Type 0, BuildingBlock: OJICUG_clean_sbu_0, # of connection points: 6
#     Node 13, Type 0, BuildingBlock: OJICUG_clean_sbu_0, # of connection points: 6
#     Node 14, Type 0, BuildingBlock: OJICUG_clean_sbu_0, # of connection points: 6
#     Node 15, Type 0, BuildingBlock: OJICUG_clean_sbu_0, # of connection points: 6
#     Node 16, Type 0, BuildingBlock: OJICUG_clean_sbu_0, # of connection points: 6
#     Node 17, Type 0, BuildingBlock: OJICUG_clean_sbu_0, # of connection points: 6
#     Node 18, Type 0, BuildingBlock: OJICUG_clean_sbu_0, # of connection points: 6
#     Node 19, Type 0, BuildingBlock: OJICUG_clean_sbu_0, # of connection points: 6
#     Node 20, Type 0, BuildingBlock: OJICUG_clean_sbu_0, # of connection points: 6
#     Node 21, Type 0, BuildingBlock: OJICUG_clean_sbu_0, # of connection points: 6
#     Node 22, Type 0, BuildingBlock: OJICUG_clean_sbu_0, # of connection points: 6
#     Node 23, Type 0, BuildingBlock: OJICUG_clean_sbu_0, # of connection points: 6
#     Edge 24, Type (0, 0), BuildingBlock: XIVTED_clean_linker_0, # of connection points: 2
#     Edge 25, Type (0, 0), BuildingBlock: XIVTED_clean_linker_0, # of connection points: 2
#     Edge 26, Type (0, 0), BuildingBlock: XIVTED_clean_linker_0, # of connection points: 2
#     Edge 27, Type (0, 0), BuildingBlock: XIVTED_clean_linker_0, # of connection points: 2
#     Edge 28, Type (0, 0), BuildingBlock: XIVTED_clean_linker_0, # of connection points: 2
#     Edge 29, Type (0, 0), BuildingBlock: XIVTED_clean_linker_0, # of connection points: 2
#     Edge 30, Type (0, 0), BuildingBlock: XIVTED_clean_linker_0, # of connection points: 2
#     Edge 31, Type (0, 0), BuildingBlock: XIVTED_clean_linker_0, # of connection points: 2
#     Edge 32, Type (0, 0), BuildingBlock: XIVTED_clean_linker_0, # of connection points: 2
#     Edge 33, Type (0, 0), BuildingBlock: XIVTED_clean_linker_0, # of connection points: 2
#     Edge 34, Type (0, 0), BuildingBlock: XIVTED_clean_linker_0, # of connection points: 2
#     Edge 35, Type (0, 0), BuildingBlock: XIVTED_clean_linker_0, # of connection points: 2
#     Edge 36, Type (0, 0), BuildingBlock: XIVTED_clean_linker_0, # of connection points: 2
#     Edge 37, Type (0, 0), BuildingBlock: XIVTED_clean_linker_0, # of connection points: 2
#     Edge 38, Type (0, 0), BuildingBlock: XIVTED_clean_linker_0, # of connection points: 2
#     Edge 39, Type (0, 0), BuildingBlock: XIVTED_clean_linker_0, # of connection points: 2
#     Edge 40, Type (0, 0), BuildingBlock: XIVTED_clean_linker_0, # of connection points: 2
#     Edge 41, Type (0, 0), BuildingBlock: XIVTED_clean_linker_0, # of connection points: 2
#     Edge 42, Type (0, 0), BuildingBlock: XIVTED_clean_linker_0, # of connection points: 2
#     Edge 43, Type (0, 0), BuildingBlock: XIVTED_clean_linker_0, # of connection points: 2
#     Edge 44, Type (0, 0), BuildingBlock: XIVTED_clean_linker_0, # of connection points: 2
#     Edge 45, Type (0, 0), BuildingBlock: XIVTED_clean_linker_0, # of connection points: 2
#     Edge 46, Type (0, 0), BuildingBlock: XIVTED_clean_linker_0, # of connection points: 2
#     Edge 47, Type (0, 0), BuildingBlock: XIVTED_clean_linker_0, # of connection points: 2
#     Edge 48, Type (0, 0), BuildingBlock: XIVTED_clean_linker_0, # of connection points: 2
#     Edge 49, Type (0, 0), BuildingBlock: XIVTED_clean_linker_0, # of connection points: 2
#     Edge 50, Type (0, 0), BuildingBlock: XIVTED_clean_linker_0, # of connection points: 2
#     Edge 51, Type (0, 0), BuildingBlock: XIVTED_clean_linker_0, # of connection points: 2
#     Edge 52, Type (0, 0), BuildingBlock: XIVTED_clean_linker_0, # of connection points: 2
#     Edge 53, Type (0, 0), BuildingBlock: XIVTED_clean_linker_0, # of connection points: 2
#     Edge 54, Type (0, 0), BuildingBlock: XIVTED_clean_linker_0, # of connection points: 2
#     Edge 55, Type (0, 0), BuildingBlock: XIVTED_clean_linker_0, # of connection points: 2
#     Edge 56, Type (0, 0), BuildingBlock: XIVTED_clean_linker_0, # of connection points: 2
#     Edge 57, Type (0, 0), BuildingBlock: XIVTED_clean_linker_0, # of connection points: 2
#     Edge 58, Type (0, 0), BuildingBlock: XIVTED_clean_linker_0, # of connection points: 2
#     Edge 59, Type (0, 0), BuildingBlock: XIVTED_clean_linker_0, # of connection points: 2
#     Edge 60, Type (0, 0), BuildingBlock: XIVTED_clean_linker_0, # of connection points: 2
#     Edge 61, Type (0, 0), BuildingBlock: XIVTED_clean_linker_0, # of connection points: 2
#     Edge 62, Type (0, 0), BuildingBlock: XIVTED_clean_linker_0, # of connection points: 2
#     Edge 63, Type (0, 0), BuildingBlock: XIVTED_clean_linker_0, # of connection points: 2
#     Edge 64, Type (0, 0), BuildingBlock: XIVTED_clean_linker_0, # of connection points: 2
#     Edge 65, Type (0, 0), BuildingBlock: XIVTED_clean_linker_0, # of connection points: 2
#     Edge 66, Type (0, 0), BuildingBlock: XIVTED_clean_linker_0, # of connection points: 2
#     Edge 67, Type (0, 0), BuildingBlock: XIVTED_clean_linker_0, # of connection points: 2
#     Edge 68, Type (0, 0), BuildingBlock: XIVTED_clean_linker_0, # of connection points: 2
#     Edge 69, Type (0, 0), BuildingBlock: XIVTED_clean_linker_0, # of connection points: 2
#     Edge 70, Type (0, 0), BuildingBlock: XIVTED_clean_linker_0, # of connection points: 2
#     Edge 71, Type (0, 0), BuildingBlock: XIVTED_clean_linker_0, # of connection points: 2
#     Edge 72, Type (0, 0), BuildingBlock: XIVTED_clean_linker_0, # of connection points: 2
#     Edge 73, Type (0, 0), BuildingBlock: XIVTED_clean_linker_0, # of connection points: 2
#     Edge 74, Type (0, 0), BuildingBlock: XIVTED_clean_linker_0, # of connection points: 2
#     Edge 75, Type (0, 0), BuildingBlock: XIVTED_clean_linker_0, # of connection points: 2
#     Edge 76, Type (0, 0), BuildingBlock: XIVTED_clean_linker_0, # of connection points: 2
#     Edge 77, Type (0, 0), BuildingBlock: XIVTED_clean_linker_0, # of connection points: 2
#     Edge 78, Type (0, 0), BuildingBlock: XIVTED_clean_linker_0, # of connection points: 2
#     Edge 79, Type (0, 0), BuildingBlock: XIVTED_clean_linker_0, # of connection points: 2
#     Edge 80, Type (0, 0), BuildingBlock: XIVTED_clean_linker_0, # of connection points: 2
#     Edge 81, Type (0, 0), BuildingBlock: XIVTED_clean_linker_0, # of connection points: 2
#     Edge 82, Type (0, 0), BuildingBlock: XIVTED_clean_linker_0, # of connection points: 2
#     Edge 83, Type (0, 0), BuildingBlock: XIVTED_clean_linker_0, # of connection points: 2
#     Edge 84, Type (0, 0), BuildingBlock: XIVTED_clean_linker_0, # of connection points: 2
#     Edge 85, Type (0, 0), BuildingBlock: XIVTED_clean_linker_0, # of connection points: 2
#     Edge 86, Type (0, 0), BuildingBlock: XIVTED_clean_linker_0, # of connection points: 2
#     Edge 87, Type (0, 0), BuildingBlock: XIVTED_clean_linker_0, # of connection points: 2
#     Edge 88, Type (0, 0), BuildingBlock: XIVTED_clean_linker_0, # of connection points: 2
#     Edge 89, Type (0, 0), BuildingBlock: XIVTED_clean_linker_0, # of connection points: 2
#     Edge 90, Type (0, 0), BuildingBlock: XIVTED_clean_linker_0, # of connection points: 2
#     Edge 91, Type (0, 0), BuildingBlock: XIVTED_clean_linker_0, # of connection points: 2
#     Edge 92, Type (0, 0), BuildingBlock: XIVTED_clean_linker_0, # of connection points: 2
#     Edge 93, Type (0, 0), BuildingBlock: XIVTED_clean_linker_0, # of connection points: 2
#     Edge 94, Type (0, 0), BuildingBlock: XIVTED_clean_linker_0, # of connection points: 2
#     Edge 95, Type (0, 0), BuildingBlock: XIVTED_clean_linker_0, # of connection points: 2
# Relax obj value: 0.593
# Max RMSD: 0.261
# Mean RMSD: 0.261
data_MOF--net-pyr-e--node1-OJICUG_clean_sbu_0--edge1-XIVTED_clean_linker_0
_symmetry_space_group_name_H-M    P1
_symmetry_Int_Tables_number       1
_symmetry_cell_setting            triclinic
loop_
_symmetry_equiv_pos_as_xyz
'x, y, z'
_cell_length_a     43.972243
_cell_length_b     43.944044
_cell_length_c     43.967722
_cell_angle_alpha  89.981103
_cell_angle_beta   89.965017
_cell_angle_gamma 90.0001
loop_
_atom_site_label
_atom_site_type_symbol
_atom_site_fract_x
_atom_site_fract_y
_atom_site_fract_z
_atom_type_partial_charge
Sc0 Sc 0.97629 0.21895 0.97197 0.0
Sc1 Sc 0.03335 0.21413 0.02952 0.0
Sc2 Sc 0.00071 0.28406 0.01202 0.0
O3 O 0.00347 0.23889 0.00432 0.0
C4 C 0.99873 0.2797 0.93929 0.0
C5 C 0.03732 0.18005 0.96554 0.0
C6 C 0.07254 0.27293 0.01655 0.0
C7 C 0.97282 0.17349 0.0284 0.0
C8 C 0.93118 0.26876 0.99927 0.0
C9 C 0.00802 0.26062 0.07951 0.0
O10 O 0.98886 0.25241 0.93752 0.0
O11 O 0.04784 0.18798 0.99116 0.0
O12 O 0.0492 0.28984 0.01462 0.0
O13 O 0.96149 0.1847 0.00419 0.0
O14 O 0.95228 0.28428 0.01118 0.0
O15 O 0.02333 0.23716 0.07224 0.0
O16 O 0.93607 0.24511 0.98344 0.0
O17 O 0.99815 0.18168 0.03984 0.0
O18 O 0.99707 0.27884 0.06007 0.0
O19 O 0.01171 0.18885 0.95547 0.0
O20 O 0.00355 0.29319 0.96441 0.0
O21 O 0.07109 0.24432 0.02041 0.0
Sc22 Sc 0.53015 0.78167 0.47454 0.0
Sc23 Sc 0.47152 0.77711 0.53068 0.0
Sc24 Sc 0.50685 0.71111 0.50512 0.0
O25 O 0.50286 0.75678 0.50336 0.0
C26 C 0.51122 0.72498 0.43384 0.0
C27 C 0.46715 0.81708 0.47016 0.0
C28 C 0.43459 0.71928 0.50799 0.0
C29 C 0.53038 0.8201 0.53598 0.0
C30 C 0.57606 0.73073 0.4983 0.0
C31 C 0.4971 0.7262 0.57524 0.0
O32 O 0.51949 0.75273 0.43572 0.0
O33 O 0.45619 0.8057 0.49433 0.0
O34 O 0.45855 0.70412 0.50239 0.0
O35 O 0.54282 0.81266 0.51086 0.0
O36 O 0.55525 0.71317 0.50778 0.0
O37 O 0.48287 0.75092 0.57074 0.0
O38 O 0.57079 0.75552 0.48439 0.0
O39 O 0.50501 0.80955 0.54514 0.0
O40 O 0.50707 0.70972 0.55377 0.0
O41 O 0.49383 0.81161 0.46059 0.0
O42 O 0.50713 0.70797 0.4568 0.0
O43 O 0.43515 0.74611 0.51878 0.0
Sc44 Sc 0.47457 0.2073 0.9876 0.0
Sc45 Sc 0.51949 0.27021 0.97107 0.0
Sc46 Sc 0.46065 0.27548 0.02617 0.0
O47 O 0.48506 0.25114 0.99497 0.0
C48 C 0.40924 0.23306 0.9964 0.0
C49 C 0.49206 0.22737 0.92008 0.0
C50 C 0.46444 0.31847 0.96843 0.0
C51 C 0.54717 0.2061 0.99025 0.0
C52 C 0.46906 0.21359 0.06022 0.0
C53 C 0.52649 0.30501 0.03386 0.0
O54 O 0.42777 0.21774 0.98051 0.0
O55 O 0.50733 0.25051 0.92791 0.0
O56 O 0.44984 0.3091 0.99174 0.0
O57 O 0.52117 0.19388 0.99405 0.0
O58 O 0.47074 0.24253 0.06166 0.0
O59 O 0.53724 0.29256 0.01024 0.0
O60 O 0.46727 0.19913 0.03522 0.0
O61 O 0.55063 0.23332 0.98085 0.0
O62 O 0.49873 0.30289 0.04151 0.0
O63 O 0.47962 0.20971 0.93917 0.0
O64 O 0.41788 0.25216 0.01639 0.0
O65 O 0.49 0.3077 0.95982 0.0
Sc66 Sc 0.02057 0.79062 0.49536 0.0
Sc67 Sc 0.97789 0.72754 0.47374 0.0
Sc68 Sc 0.03735 0.71964 0.52813 0.0
O69 O 0.01185 0.74579 0.49917 0.0
C70 C 0.08707 0.76491 0.49994 0.0
C71 C 0.00466 0.77476 0.42634 0.0
C72 C 0.0329 0.67962 0.46814 0.0
C73 C 0.94797 0.78934 0.4972 0.0
C74 C 0.02859 0.77916 0.56694 0.0
C75 C 0.97181 0.68946 0.5351 0.0
O76 O 0.06776 0.78259 0.48786 0.0
O77 O 0.99004 0.75058 0.43211 0.0
O78 O 0.04714 0.68743 0.49215 0.0
O79 O 0.97347 0.802 0.5025 0.0
O80 O 0.02919 0.75019 0.56616 0.0
O81 O 0.96092 0.70207 0.51157 0.0
O82 O 0.0276 0.7957 0.54329 0.0
O83 O 0.94562 0.76284 0.48569 0.0
O84 O 0.99938 0.69218 0.54321 0.0
O85 O 0.016 0.79143 0.4469 0.0
O86 O 0.07972 0.74304 0.51746 0.0
O87 O 0.00776 0.69132 0.45971 0.0
Sc88 Sc 0.9754 0.96523 0.21724 0.0
Sc89 Sc 0.02642 0.02775 0.22283 0.0
Sc90 Sc 0.00775 0.98553 0.28713 0.0
O91 O 0.00307 0.99298 0.24229 0.0
C92 C 0.93645 0.97393 0.27629 0.0
C93 C 0.96531 0.02937 0.18459 0.0
C94 C 0.00254 0.05794 0.28432 0.0
C95 C 0.0352 0.97101 0.17727 0.0
C96 C 0.00506 0.91819 0.26437 0.0
C97 C 0.07561 0.00442 0.26978 0.0
O98 O 0.93697 0.97342 0.2473 0.0
O99 O 0.98743 0.04237 0.19772 0.0
O100 O 0.99835 0.03248 0.2975 0.0
O101 O 0.01243 0.95538 0.1862 0.0
O102 O 0.01771 0.93856 0.28035 0.0
O103 O 0.06887 0.01806 0.24531 0.0
O104 O 0.98672 0.9243 0.24285 0.0
O105 O 0.04142 0.99758 0.18718 0.0
O106 O 0.05588 0.99265 0.28717 0.0
O107 O 0.95947 0.00123 0.18762 0.0
O108 O 0.96024 0.97598 0.29256 0.0
O109 O 0.01364 0.06025 0.25764 0.0
Sc110 Sc 0.52593 0.03651 0.71853 0.0
Sc111 Sc 0.47285 0.97613 0.7254 0.0
Sc112 Sc 0.48688 0.02431 0.78637 0.0
O113 O 0.49534 0.01197 0.74337 0.0
C114 C 0.5596 0.03075 0.78036 0.0
C115 C 0.53541 0.97023 0.69042 0.0
C116 C 0.4906 0.95186 0.79138 0.0
C117 C 0.46853 0.03022 0.67602 0.0
C118 C 0.49497 0.08859 0.75858 0.0
C119 C 0.42035 0.00387 0.76636 0.0
O120 O 0.56137 0.02751 0.75158 0.0
O121 O 0.51294 0.95865 0.70422 0.0
O122 O 0.49357 0.97856 0.80228 0.0
O123 O 0.49086 0.04607 0.68561 0.0
O124 O 0.47854 0.07025 0.77347 0.0
O125 O 0.429 0.98761 0.7442 0.0
O126 O 0.51614 0.07967 0.741 0.0
O127 O 0.46116 0.00415 0.68664 0.0
O128 O 0.43871 0.01796 0.78348 0.0
O129 O 0.54148 0.99845 0.69128 0.0
O130 O 0.53442 0.03302 0.79453 0.0
O131 O 0.48275 0.94685 0.7639 0.0
Sc132 Sc 0.50162 0.51802 0.7093 0.0
Sc133 Sc 0.52264 0.47306 0.77091 0.0
Sc134 Sc 0.46991 0.5336 0.78076 0.0
O135 O 0.49798 0.50807 0.7538 0.0
C136 C 0.49836 0.58373 0.73617 0.0
C137 C 0.57032 0.49928 0.72365 0.0
C138 C 0.5302 0.52715 0.81973 0.0
C139 C 0.49781 0.44553 0.70849 0.0
C140 C 0.4303 0.52747 0.722 0.0
C141 C 0.46237 0.46778 0.81054 0.0
O142 O 0.51112 0.56462 0.71876 0.0
O143 O 0.56437 0.48474 0.74783 0.0
O144 O 0.50673 0.54244 0.81216 0.0
O145 O 0.49269 0.47154 0.69675 0.0
O146 O 0.43134 0.52614 0.75092 0.0
O147 O 0.4848 0.45625 0.79652 0.0
O148 O 0.45382 0.5272 0.70521 0.0
O149 O 0.50971 0.44212 0.73471 0.0
O150 O 0.4552 0.49569 0.80851 0.0
O151 O 0.54989 0.51145 0.70739 0.0
O152 O 0.48013 0.57611 0.75734 0.0
O153 O 0.53753 0.50173 0.80777 0.0
Sc154 Sc 0.00446 0.48135 0.20932 0.0
Sc155 Sc 0.97746 0.51931 0.27343 0.0
Sc156 Sc 0.03285 0.46074 0.28164 0.0
O157 O 0.00505 0.48713 0.2549 0.0
C158 C 0.00934 0.41295 0.23182 0.0
C159 C 0.93391 0.493 0.22242 0.0
C160 C 0.97092 0.46263 0.31903 0.0
C161 C 0.00203 0.55381 0.2146 0.0
C162 C 0.07531 0.47459 0.22491 0.0
C163 C 0.03688 0.52543 0.31449 0.0
O164 O -0.00012 0.43314 0.2135 0.0
O165 O 0.93795 0.50682 0.2474 0.0
O166 O 0.99582 0.44946 0.31226 0.0
O167 O 0.00906 0.5294 0.20073 0.0
O168 O 0.07239 0.46948 0.25328 0.0
O169 O 0.01326 0.53593 0.3017 0.0
O170 O 0.05303 0.47804 0.2069 0.0
O171 O 0.98972 0.55399 0.24078 0.0
O172 O 0.04634 0.49835 0.31068 0.0
O173 O 0.95571 0.48308 0.2063 0.0
O174 O 0.02325 0.41916 0.25644 0.0
O175 O 0.96227 0.48767 0.30739 0.0
Sc176 Sc 0.22541 0.9627 0.96548 0.0
Sc177 Sc 0.22693 0.02023 0.02243 0.0
Sc178 Sc 0.29104 0.00575 0.97843 0.0
O179 O 0.24768 0.99609 0.98903 0.0
C180 C 0.28938 0.93242 0.97582 0.0
C181 C 0.19492 0.95607 0.03116 0.0
C182 C 0.2919 0.00701 0.05115 0.0
C183 C 0.17918 0.01833 0.96706 0.0
C184 C 0.266 0.99294 0.91318 0.0
C185 C 0.26748 0.07262 0.99319 0.0
O186 O 0.26049 0.92917 0.97639 0.0
O187 O 0.20578 0.98079 0.04115 0.0
O188 O 0.30449 0.00364 0.02528 0.0
O189 O 0.19018 0.99512 0.95346 0.0
O190 O 0.28099 0.00959 0.93124 0.0
O191 O 0.24516 0.06407 0.00937 0.0
O192 O 0.24778 0.97239 0.92231 0.0
O193 O 0.18917 0.02874 0.99224 0.0
O194 O 0.28554 0.05401 0.98065 0.0
O195 O 0.19849 0.94718 0.00391 0.0
O196 O 0.30217 0.95836 0.97425 0.0
O197 O 0.26375 0.0131 0.05438 0.0
Sc198 Sc 0.71551 0.5212 0.03892 0.0
Sc199 Sc 0.72534 0.46881 0.97766 0.0
Sc200 Sc 0.78862 0.49737 0.01566 0.0
O201 O 0.74302 0.49592 0.01076 0.0
C202 C 0.77035 0.56684 0.02735 0.0
C203 C 0.68242 0.52745 0.97473 0.0
C204 C 0.7821 0.4982 0.94347 0.0
C205 C 0.68043 0.45792 0.03417 0.0
C206 C 0.76673 0.49651 0.08435 0.0
C207 C 0.77896 0.42683 0.00094 0.0
O208 O 0.74232 0.56232 0.03298 0.0
O209 O 0.69528 0.50424 0.96335 0.0
O210 O 0.7959 0.50492 0.96796 0.0
O211 O 0.68593 0.4828 0.04794 0.0
O212 O 0.78535 0.48996 0.06334 0.0
O213 O 0.75347 0.42991 0.98783 0.0
O214 O 0.74122 0.50942 0.07965 0.0
O215 O 0.69265 0.4505 0.00901 0.0
O216 O 0.79401 0.44911 0.01136 0.0
O217 O 0.6864 0.53618 0.00201 0.0
O218 O 0.78909 0.54566 0.02169 0.0
O219 O 0.75674 0.48426 0.94304 0.0
Sc220 Sc 0.71156 0.50698 0.51548 0.0
Sc221 Sc 0.77555 0.5296 0.47486 0.0
Sc222 Sc 0.78204 0.47447 0.53387 0.0
O223 O 0.75653 0.50359 0.50794 0.0
C224 C 0.73469 0.50117 0.58256 0.0
C225 C 0.72748 0.57631 0.50088 0.0
C226 C 0.82149 0.53478 0.53156 0.0
C227 C 0.71454 0.50675 0.44303 0.0
C228 C 0.72348 0.43532 0.52296 0.0
C229 C 0.81438 0.46884 0.46901 0.0
O230 O 0.71817 0.5142 0.56287 0.0
O231 O 0.7523 0.57101 0.48721 0.0
O232 O 0.81312 0.51081 0.54559 0.0
O233 O 0.70148 0.50034 0.46808 0.0
O234 O 0.75242 0.43626 0.52379 0.0
O235 O 0.80132 0.49201 0.45783 0.0
O236 O 0.70682 0.45892 0.52212 0.0
O237 O 0.74095 0.5186 0.44157 0.0
O238 O 0.81129 0.46071 0.49658 0.0
O239 O 0.71049 0.55544 0.51117 0.0
O240 O 0.75663 0.48358 0.5756 0.0
O241 O 0.81098 0.54299 0.50582 0.0
Sc242 Sc 0.2085 0.98942 0.48265 0.0
Sc243 Sc 0.27307 0.9729 0.52481 0.0
Sc244 Sc 0.27555 0.0301 0.46722 0.0
O245 O 0.25254 0.99761 0.49165 0.0
C246 C 0.23189 0.00241 0.41621 0.0
C247 C 0.23052 0.92204 0.49568 0.0
C248 C 0.31922 0.9726 0.468 0.0
C249 C 0.20994 0.98861 0.55565 0.0
C250 C 0.21328 0.06236 0.48233 0.0
C251 C 0.30772 0.0361 0.53184 0.0
O252 O 0.21574 0.98746 0.43479 0.0
O253 O 0.25216 0.92998 0.51299 0.0
O254 O 0.30978 0.99683 0.45507 0.0
O255 O 0.19665 0.99062 0.53004 0.0
O256 O 0.24197 0.06466 0.47857 0.0
O257 O 0.29706 0.01139 0.54211 0.0
O258 O 0.19914 0.03712 0.4819 0.0
O259 O 0.2381 0.98239 0.55824 0.0
O260 O 0.30314 0.04529 0.50489 0.0
O261 O 0.21342 0.94103 0.48239 0.0
O262 O 0.25249 0.02081 0.42461 0.0
O263 O 0.30879 0.96223 0.49304 0.0
Sc264 Sc 0.02972 0.77776 0.02628 0.0
Sc265 Sc 0.96622 0.77374 0.97622 0.0
Sc266 Sc 0.00335 0.70737 0.99851 0.0
O267 O -0.00029 0.75308 0.00049 0.0
C268 C 0.07255 0.72645 0.99736 0.0
C269 C 0.02443 0.81685 0.9658 0.0
C270 C 0.98651 0.72294 0.92952 0.0
C271 C 0.96742 0.8138 0.03636 0.0
C272 C 0.01762 0.72094 0.06869 0.0
C273 C 0.93153 0.71566 0.00267 0.0
O274 O 0.06886 0.7504 0.0132 0.0
O275 O 0.99786 0.80721 0.95952 0.0
O276 O 0.99653 0.70554 0.95024 0.0
O277 O 0.99521 0.80888 0.04259 0.0
O278 O 0.01202 0.70357 0.04632 0.0
O279 O 0.93138 0.74175 0.9901 0.0
O280 O 0.02255 0.74938 0.06609 0.0
O281 O 0.95364 0.80142 0.01424 0.0
O282 O 0.95583 0.70095 0.0081 0.0
O283 O 0.03967 0.80808 0.9888 0.0
O284 O 0.05073 0.70974 0.98867 0.0
O285 O 0.97484 0.74874 0.93497 0.0
Sc286 Sc 0.46692 0.22325 0.51815 0.0
Sc287 Sc 0.52869 0.22661 0.46703 0.0
Sc288 Sc 0.48585 0.29111 0.48263 0.0
O289 O 0.49399 0.24686 0.48918 0.0
C290 C 0.41958 0.26884 0.48694 0.0
C291 C 0.47294 0.17922 0.46248 0.0
C292 C 0.50553 0.27076 0.41559 0.0
C293 C 0.53143 0.19149 0.529 0.0
C294 C 0.47487 0.28306 0.55445 0.0
C295 C 0.55757 0.28994 0.48793 0.0
O296 O 0.42635 0.24998 0.50785 0.0
O297 O 0.5003 0.18745 0.45713 0.0
O298 O 0.49556 0.2898 0.43484 0.0
O299 O 0.50283 0.19265 0.53319 0.0
O300 O 0.47412 0.29814 0.52973 0.0
O301 O 0.56004 0.26378 0.47566 0.0
O302 O 0.47729 0.25415 0.55519 0.0
O303 O 0.54477 0.2064 0.50821 0.0
O304 O 0.53204 0.30231 0.49373 0.0
O305 O 0.45569 0.19209 0.48194 0.0
O306 O 0.43961 0.28211 0.471 0.0
O307 O 0.51683 0.24524 0.42304 0.0
Sc308 Sc 0.528 0.77955 0.01865 0.0
Sc309 Sc 0.48098 0.71641 0.03257 0.0
Sc310 Sc 0.53662 0.72088 0.96632 0.0
O311 O 0.5153 0.73744 0.00621 0.0
C312 C 0.52045 0.78602 0.9458 0.0
C313 C 0.4557 0.78204 0.01658 0.0
C314 C 0.47399 0.68311 0.96724 0.0
C315 C 0.51155 0.7574 0.08393 0.0
C316 C 0.59073 0.75993 0.99443 0.0
C317 C 0.54383 0.68925 0.01811 0.0
O318 O 0.52757 0.79568 0.9722 0.0
O319 O 0.45217 0.75323 0.01647 0.0
O320 O 0.49806 0.69246 0.95415 0.0
O321 O 0.53076 0.76906 0.06602 0.0
O322 O 0.57884 0.74663 0.97167 0.0
O323 O 0.52804 0.71395 0.01937 0.0
O324 O 0.57507 0.76784 0.01721 0.0
O325 O 0.48996 0.74078 0.07453 0.0
O326 O 0.55592 0.68435 0.99266 0.0
O327 O 0.48134 0.79464 0.02155 0.0
O328 O 0.5183 0.75777 0.93958 0.0
O329 O 0.46664 0.69003 0.99429 0.0
Sc330 Sc 0.97413 0.21317 0.50524 0.0
Sc331 Sc 0.01795 0.27582 0.52528 0.0
Sc332 Sc 0.95982 0.28319 0.46947 0.0
O333 O 0.98416 0.2575 0.49984 0.0
C334 C 0.96865 0.22256 0.43284 0.0
C335 C 0.04691 0.21289 0.50473 0.0
C336 C 0.02547 0.31362 0.46392 0.0
C337 C 0.99034 0.22977 0.57381 0.0
C338 C 0.90844 0.23923 0.49675 0.0
C339 C 0.96264 0.32346 0.52947 0.0
O340 O 0.96843 0.20689 0.45716 0.0
O341 O 0.04989 0.24032 0.51358 0.0
O342 O 0.99819 0.31063 0.45496 0.0
O343 O 0.97741 0.21361 0.5538 0.0
O344 O 0.91689 0.26007 0.47852 0.0
O345 O 0.98761 0.31183 0.53858 0.0
O346 O 0.92698 0.22243 0.51102 0.0
O347 O 0.00617 0.25296 0.5672 0.0
O348 O 0.94913 0.31578 0.50495 0.0
O349 O 0.02113 0.2003 0.50065 0.0
O350 O 0.96906 0.25158 0.43255 0.0
O351 O 0.03556 0.30121 0.48786 0.0
Sc352 Sc 0.99064 0.01714 0.71094 0.0
Sc353 Sc 0.97115 0.97521 0.77491 0.0
Sc354 Sc 0.02462 0.03493 0.78002 0.0
O355 O 0.99539 0.00901 0.75543 0.0
C356 C 0.06243 0.02535 0.72111 0.0
C357 C 0.99244 0.94526 0.71214 0.0
C358 C 0.03241 0.96936 0.8108 0.0
C359 C 0.92219 0.00121 0.72979 0.0
C360 C 0.99578 0.08354 0.73398 0.0
C361 C 0.96776 0.03058 0.82281 0.0
O362 O 0.0383 0.02666 0.7052 0.0
O363 O 0.97909 0.9435 0.73783 0.0
O364 O 0.03791 0.99781 0.81021 0.0
O365 O 0.94247 0.00971 0.71109 0.0
O366 O 0.01571 0.07639 0.75379 0.0
O367 O 0.96151 0.00357 0.81414 0.0
O368 O 0.98076 0.06382 0.71929 0.0
O369 O 0.92836 0.98957 0.75549 0.0
O370 O 0.98821 0.04711 0.8106 0.0
O371 O 4e-05 0.97047 0.70009 0.0
O372 O 0.06219 0.02365 0.75004 0.0
O373 O 0.01108 0.95721 0.7957 0.0
Sc374 Sc 0.5165 0.97518 0.21085 0.0
Sc375 Sc 0.52928 0.02174 0.27337 0.0
Sc376 Sc 0.47618 0.96191 0.27691 0.0
O377 O 0.50758 0.98648 0.25384 0.0
C378 C 0.44424 0.97358 0.21526 0.0
C379 C 0.51369 0.0475 0.20723 0.0
C380 C 0.46716 0.02745 0.30676 0.0
C381 C 0.58269 0.99357 0.23408 0.0
C382 C 0.50615 0.91056 0.23552 0.0
C383 C 0.53032 0.96678 0.32232 0.0
O384 O 0.46908 0.96703 0.20181 0.0
O385 O 0.52278 0.05164 0.23447 0.0
O386 O 0.46283 0.99888 0.30677 0.0
O387 O 0.5644 0.98177 0.21519 0.0
O388 O 0.48411 0.91977 0.25185 0.0
O389 O 0.53652 0.99398 0.3138 0.0
O390 O 0.52452 0.92888 0.22303 0.0
O391 O 0.57397 0.00833 0.25735 0.0
O392 O 0.51092 0.94961 0.30916 0.0
O393 O 0.50953 0.02116 0.19595 0.0
O394 O 0.44189 0.97532 0.24414 0.0
O395 O 0.48763 0.03998 0.29086 0.0
Sc396 Sc 0.5282 0.47448 0.21745 0.0
Sc397 Sc 0.46823 0.52842 0.2239 0.0
Sc398 Sc 0.49136 0.48742 0.28746 0.0
O399 O 0.49613 0.49694 0.24285 0.0
C400 C 0.50403 0.42177 0.26205 0.0
C401 C 0.4684 0.47272 0.17679 0.0
C402 C 0.42189 0.49831 0.27046 0.0
C403 C 0.52881 0.54011 0.18602 0.0
C404 C 0.56397 0.48598 0.27824 0.0
C405 C 0.48677 0.5601 0.28609 0.0
O406 O 0.5211 0.43099 0.24051 0.0
O407 O 0.45685 0.49658 0.18857 0.0
O408 O 0.44266 0.48697 0.28687 0.0
O409 O 0.54049 0.51395 0.1901 0.0
O410 O 0.53966 0.48527 0.29388 0.0
O411 O 0.47815 0.56188 0.25851 0.0
O412 O 0.56436 0.48548 0.24926 0.0
O413 O 0.50378 0.54806 0.19771 0.0
O414 O 0.49216 0.53496 0.29951 0.0
O415 O 0.49408 0.46159 0.18438 0.0
O416 O 0.48939 0.43969 0.27924 0.0
O417 O 0.42751 0.51429 0.24717 0.0
Sc418 Sc 0.9655 0.53633 0.71783 0.0
Sc419 Sc 0.01899 0.47607 0.72475 0.0
Sc420 Sc -0.00053 0.51921 0.78809 0.0
O421 O 0.9945 0.51035 0.74348 0.0
C422 C 0.99313 0.58585 0.76342 0.0
C423 C 0.02512 0.53186 0.67769 0.0
C424 C 0.06787 0.50232 0.77103 0.0
C425 C 0.95781 0.47125 0.68672 0.0
C426 C 0.92748 0.5268 0.77744 0.0
C427 C 0.99865 0.44647 0.78762 0.0
O428 O 0.97521 0.57846 0.74197 0.0
O429 O 0.03275 0.50606 0.68856 0.0
O430 O 0.04795 0.51483 0.7877 0.0
O431 O 0.95061 0.49908 0.68932 0.0
O432 O 0.95136 0.52578 0.79374 0.0
O433 O 0.00757 0.44388 0.76018 0.0
O434 O 0.92786 0.52747 0.74847 0.0
O435 O 0.98064 0.45957 0.69986 0.0
O436 O 0.9941 0.4721 0.80035 0.0
O437 O 0.00167 0.54671 0.6861 0.0
O438 O 0.00638 0.56648 0.7801 0.0
O439 O 0.06118 0.4873 0.74732 0.0
Sc440 Sc 0.71056 0.989 0.01816 0.0
Sc441 Sc 0.77378 0.97729 0.97196 0.0
Sc442 Sc 0.77716 0.02756 0.03409 0.0
O443 O 0.75392 0.99776 0.00785 0.0
C444 C 0.71604 0.06131 0.02697 0.0
C445 C 0.70831 0.99522 0.94619 0.0
C446 C 0.80777 0.03939 0.96923 0.0
C447 C 0.73299 0.9233 0.99638 0.0
C448 C 0.73487 0.99528 0.08348 0.0
C449 C 0.82235 0.97332 0.02692 0.0
O450 O 0.70207 0.03602 0.02952 0.0
O451 O 0.73528 0.98533 0.94217 0.0
O452 O 0.80715 0.04273 0.99792 0.0
O453 O 0.71399 0.94128 0.00858 0.0
O454 O 0.75195 0.01725 0.07553 0.0
O455 O 0.81398 0.96827 0.99948 0.0
O456 O 0.72195 0.9782 0.0642 0.0
O457 O 0.75705 0.93236 0.98317 0.0
O458 O 0.80915 0.99211 0.04468 0.0
O459 O 0.69664 0.99905 0.97243 0.0
O460 O 0.7448 0.06317 0.0235 0.0
O461 O 0.79203 0.01945 0.95567 0.0
Sc462 Sc 0.20949 0.49537 0.98545 0.0
Sc463 Sc 0.27432 0.52529 0.01953 0.0
Sc464 Sc 0.28167 0.46929 0.9612 0.0
O465 O 0.2553 0.49662 0.98864 0.0
C466 C 0.22761 0.42512 0.98077 0.0
C467 C 0.21801 0.50012 0.05743 0.0
C468 C 0.3169 0.46664 0.02446 0.0
C469 C 0.22074 0.56655 0.99416 0.0
C470 C 0.22892 0.49027 0.91591 0.0
C471 C 0.31775 0.53215 0.96111 0.0
O472 O 0.20921 0.44681 0.98566 0.0
O473 O 0.24399 0.51274 0.05622 0.0
O474 O 0.31206 0.45666 0.99777 0.0
O475 O 0.20514 0.54401 0.98507 0.0
O476 O 0.25491 0.47847 0.92064 0.0
O477 O 0.30639 0.54094 0.98623 0.0
O478 O 0.21081 0.49782 0.93703 0.0
O479 O 0.24616 0.56365 0.00752 0.0
O480 O 0.31136 0.50677 0.94865 0.0
O481 O 0.20315 0.49265 0.03384 0.0
O482 O 0.25487 0.42898 0.97176 0.0
O483 O 0.30439 0.49037 0.03516 0.0
Sc484 Sc 0.21454 0.53074 0.46354 0.0
Sc485 Sc 0.22529 0.47636 0.52282 0.0
Sc486 Sc 0.288 0.50574 0.48435 0.0
O487 O 0.24248 0.50443 0.49026 0.0
C488 C 0.26437 0.50718 0.41618 0.0
C489 C 0.17914 0.46759 0.46699 0.0
C490 C 0.27793 0.43477 0.49639 0.0
C491 C 0.18267 0.53501 0.5285 0.0
C492 C 0.26984 0.57569 0.47604 0.0
C493 C 0.28315 0.50394 0.5567 0.0
O494 O 0.23912 0.52009 0.42195 0.0
O495 O 0.19173 0.4594 0.49171 0.0
O496 O 0.29303 0.45733 0.48663 0.0
O497 O 0.1862 0.54443 0.50139 0.0
O498 O 0.2886 0.55422 0.48038 0.0
O499 O 0.25764 0.4903 0.55721 0.0
O500 O 0.24172 0.57152 0.47058 0.0
O501 O 0.19577 0.51153 0.53909 0.0
O502 O 0.29648 0.51138 0.53214 0.0
O503 O 0.1846 0.49279 0.45379 0.0
O504 O 0.28359 0.50004 0.43644 0.0
O505 O 0.2528 0.43763 0.5103 0.0
Sc506 Sc 0.72041 0.97328 0.53361 0.0
Sc507 Sc 0.7262 0.02392 0.47099 0.0
Sc508 Sc 0.79001 0.00689 0.51459 0.0
O509 O 0.74544 0.00129 0.50625 0.0
C510 C 0.76626 0.00347 0.58144 0.0
C511 C 0.67949 0.03213 0.5269 0.0
C512 C 0.77163 0.07437 0.49503 0.0
C513 C 0.68841 0.96277 0.46925 0.0
C514 C 0.78008 0.93526 0.52548 0.0
C515 C 0.78871 0.00128 0.44218 0.0
O516 O 0.74549 0.98445 0.57481 0.0
O517 O 0.68953 0.038 0.5003 0.0
O518 O 0.78926 0.05508 0.50719 0.0
O519 O 0.69094 0.95754 0.49753 0.0
O520 O 0.79601 0.95939 0.52433 0.0
O521 O 0.76191 0.01188 0.43935 0.0
O522 O 0.75106 0.93532 0.5252 0.0
O523 O 0.7022 0.98429 0.45591 0.0
O524 O 0.80151 0.99745 0.46788 0.0
O525 O 0.68891 0.01001 0.5432 0.0
O526 O 0.78207 0.01692 0.56143 0.0
O527 O 0.74755 0.06695 0.48105 0.0
H528 H 0.92692 0.18147 0.06885 0.0
H529 H 0.94577 0.08769 0.19002 0.0
H530 H 0.98214 0.11266 0.02626 0.0
H531 H 0.94922 0.01257 0.12713 0.0
H532 H 0.93307 0.1217 0.14818 0.0
H533 H 0.90929 0.14359 0.10602 0.0
C534 C 0.93455 0.15811 0.06688 0.0
C535 C 0.956 0.14992 0.04483 0.0
C536 C 0.93526 0.09762 0.14354 0.0
C537 C 0.93709 0.1071 0.08748 0.0
C538 C 0.94268 0.07823 0.16748 0.0
C539 C 0.94869 0.04743 0.16187 0.0
C540 C 0.93466 0.0862 0.11369 0.0
C541 C 0.94466 0.03622 0.1323 0.0
C542 C 0.92481 0.13664 0.0882 0.0
C543 C 0.96558 0.11963 0.04313 0.0
N544 N 0.93885 0.05582 0.10907 0.0
N545 N 0.95633 0.0993 0.06449 0.0
H546 H 0.55389 0.87681 0.52375 0.0
H547 H 0.55332 0.91212 0.70073 0.0
H548 H 0.54145 0.81112 0.59548 0.0
H549 H 0.55372 0.98221 0.63214 0.0
H550 H 0.56608 0.87461 0.66194 0.0
H551 H 0.56929 0.91474 0.56207 0.0
C552 C 0.55528 0.87021 0.54745 0.0
C553 C 0.54604 0.84112 0.55673 0.0
C554 C 0.56405 0.89827 0.65533 0.0
C555 C 0.56346 0.88389 0.60031 0.0
C556 C 0.55695 0.91968 0.67754 0.0
C557 C 0.55207 0.95011 0.66946 0.0
C558 C 0.56539 0.9072 0.62466 0.0
C559 C 0.55721 0.95885 0.63918 0.0
C560 C 0.56392 0.8918 0.56928 0.0
C561 C 0.54802 0.83353 0.58758 0.0
N562 N 0.56281 0.93732 0.61763 0.0
N563 N 0.55621 0.85484 0.60826 0.0
H564 H 0.43864 0.48375 0.86602 0.0
H565 H 0.44315 0.37593 0.98162 0.0
H566 H 0.45174 0.40712 0.80624 0.0
H567 H 0.45416 0.31132 0.90879 0.0
H568 H 0.42931 0.41495 0.94425 0.0
H569 H 0.42653 0.44877 0.90744 0.0
C570 C 0.43809 0.45953 0.86145 0.0
C571 C 0.44684 0.4482 0.83291 0.0
C572 C 0.43413 0.39221 0.93628 0.0
C573 C 0.4337 0.40783 0.88025 0.0
C574 C 0.44191 0.36992 0.95776 0.0
C575 C 0.45028 0.34076 0.948 0.0
C576 C 0.43473 0.38489 0.90502 0.0
C577 C 0.44836 0.33381 0.91704 0.0
C578 C 0.43148 0.43941 0.88527 0.0
C579 C 0.44572 0.41675 0.8281 0.0
N580 N 0.44109 0.35575 0.89671 0.0
N581 N 0.43976 0.39773 0.8516 0.0
H582 H 0.047 0.68899 0.40944 0.0
H583 H 0.05515 0.51273 0.37274 0.0
H584 H 0.04957 0.62041 0.47942 0.0
H585 H 0.05148 0.5845 0.30602 0.0
H586 H 0.06592 0.55089 0.41222 0.0
H587 H 0.06151 0.65088 0.37195 0.0
C588 C 0.05112 0.66583 0.41687 0.0
C589 C 0.04683 0.65757 0.44729 0.0
C590 C 0.0636 0.55816 0.3888 0.0
C591 C 0.06249 0.61348 0.40446 0.0
C592 C 0.05773 0.53639 0.36628 0.0
C593 C 0.05212 0.5457 0.33629 0.0
C594 C 0.06386 0.58922 0.381 0.0
C595 C 0.05535 0.57654 0.32902 0.0
C596 C 0.05939 0.64403 0.39552 0.0
C597 C 0.05261 0.62745 0.45601 0.0
N598 N 0.0606 0.5972 0.35126 0.0
N599 N 0.05955 0.60621 0.43451 0.0
H600 H 0.02564 0.93974 0.12364 0.0
H601 H 0.20397 0.94175 0.09031 0.0
H602 H 0.09587 0.97059 0.18467 0.0
H603 H 0.1372 0.93661 0.01882 0.0
H604 H 0.16391 0.93346 0.12779 0.0
H605 H 0.06542 0.92255 0.08781 0.0
C606 C 0.04939 0.94237 0.12965 0.0
C607 C 0.05768 0.95705 0.15674 0.0
C608 C 0.15801 0.93336 0.10388 0.0
C609 C 0.1028 0.93706 0.11666 0.0
C610 C 0.18094 0.93776 0.0825 0.0
C611 C 0.17374 0.94011 0.05158 0.0
C612 C 0.12756 0.93207 0.09431 0.0
C613 C 0.14357 0.9349 0.04255 0.0
C614 C 0.07198 0.9326 0.10931 0.0
C615 C 0.08861 0.95989 0.1637 0.0
N616 N 0.12133 0.9319 0.06393 0.0
N617 N 0.10998 0.95014 0.14377 0.0
H618 H 0.41185 0.04765 0.68963 0.0
H619 H 0.36341 0.05876 0.51625 0.0
H620 H 0.47594 0.04439 0.61556 0.0
H621 H 0.30205 0.04803 0.59198 0.0
H622 H 0.40484 0.06962 0.55209 0.0
H623 H 0.37225 0.06378 0.65432 0.0
C624 C 0.41754 0.05081 0.66584 0.0
C625 C 0.4468 0.04437 0.65518 0.0
C626 C 0.38211 0.06578 0.56078 0.0
C627 C 0.40164 0.06204 0.61451 0.0
C628 C 0.35845 0.0599 0.54036 0.0
C629 C 0.32952 0.05216 0.55137 0.0
C630 C 0.37649 0.06401 0.59221 0.0
C631 C 0.3242 0.05357 0.58271 0.0
C632 C 0.39502 0.06002 0.6457 0.0
C633 C 0.45341 0.04899 0.62438 0.0
N634 N 0.34757 0.05891 0.60205 0.0
N635 N 0.43073 0.05702 0.60486 0.0
H636 H 0.51718 0.55132 0.87597 0.0
H637 H 0.69341 0.54794 0.91802 0.0
H638 H 0.59107 0.53107 0.81476 0.0
H639 H 0.62286 0.54202 0.98582 0.0
H640 H 0.65521 0.56046 0.87984 0.0
H641 H 0.55463 0.56434 0.91572 0.0
C642 C 0.54125 0.5503 0.87078 0.0
C643 C 0.55127 0.53971 0.8424 0.0
C644 C 0.64803 0.55709 0.90317 0.0
C645 C 0.59374 0.55481 0.88704 0.0
C646 C 0.66985 0.55016 0.92496 0.0
C647 C 0.66107 0.54367 0.95485 0.0
C648 C 0.61711 0.55671 0.91119 0.0
C649 C 0.63036 0.54687 0.96286 0.0
C650 C 0.56251 0.55763 0.89336 0.0
C651 C 0.58253 0.53869 0.83658 0.0
N652 N 0.60923 0.55247 0.94091 0.0
N653 N 0.60262 0.54595 0.85874 0.0
H654 H 0.91315 0.44611 0.3078 0.0
H655 H 0.87078 0.44629 0.48333 0.0
H656 H 0.98044 0.44796 0.37893 0.0
H657 H 0.80733 0.45589 0.40924 0.0
H658 H 0.9105 0.43196 0.44661 0.0
H659 H 0.87421 0.43393 0.34536 0.0
C660 C 0.91974 0.44321 0.33138 0.0
C661 C 0.94979 0.44821 0.34049 0.0
C662 C 0.88768 0.43646 0.43852 0.0
C663 C 0.90529 0.43548 0.38384 0.0
C664 C 0.865 0.44442 0.45946 0.0
C665 C 0.83597 0.45269 0.44911 0.0
C666 C 0.88098 0.43662 0.40725 0.0
C667 C 0.8296 0.45011 0.41803 0.0
C668 C 0.89753 0.4364 0.35286 0.0
C669 C 0.95737 0.44423 0.37119 0.0
N670 N 0.85199 0.44267 0.39819 0.0
N671 N 0.93506 0.43873 0.392 0.0
H672 H 0.18942 0.06758 0.93228 0.0
H673 H 0.01775 0.12412 0.94758 0.0
H674 H 0.11733 0.01229 0.96894 0.0
H675 H 0.09656 0.18235 0.94867 0.0
H676 H 0.0508 0.08054 0.93566 0.0
H677 H 0.15201 0.10643 0.91824 0.0
C678 C 0.1655 0.06327 0.93639 0.0
C679 C 0.15621 0.03689 0.95162 0.0
C680 C 0.06066 0.10305 0.93754 0.0
C681 C 0.11356 0.08125 0.93636 0.0
C682 C 0.04184 0.1279 0.94399 0.0
C683 C 0.05462 0.15669 0.94905 0.0
C684 C 0.09228 0.10734 0.93581 0.0
C685 C 0.08596 0.16043 0.94488 0.0
C686 C 0.14423 0.08544 0.92857 0.0
C687 C 0.12515 0.03237 0.957 0.0
N688 N 0.10378 0.13597 0.93876 0.0
N689 N 0.10485 0.05461 0.94973 0.0
H690 H 0.5149 0.36208 0.05622 0.0
H691 H 0.68995 0.39777 0.04142 0.0
H692 H 0.58545 0.29451 0.04788 0.0
H693 H 0.62318 0.46779 0.05719 0.0
H694 H 0.6526 0.35936 0.05537 0.0
H695 H 0.55377 0.40029 0.06858 0.0
C696 C 0.53844 0.35508 0.05814 0.0
C697 C 0.54718 0.32532 0.05061 0.0
C698 C 0.64603 0.38309 0.0563 0.0
C699 C 0.59156 0.36869 0.06407 0.0
C700 C 0.66739 0.40499 0.04829 0.0
C701 C 0.65937 0.43579 0.04781 0.0
C702 C 0.61604 0.39195 0.06298 0.0
C703 C 0.63005 0.44413 0.05719 0.0
C704 C 0.56064 0.37691 0.06492 0.0
C705 C 0.57791 0.31738 0.05313 0.0
N706 N 0.60912 0.42222 0.06375 0.0
N707 N 0.59901 0.33902 0.05916 0.0
H708 H 0.9137 0.69984 0.55231 0.0
H709 H 0.87817 0.52282 0.55521 0.0
H710 H 0.98376 0.63129 0.55366 0.0
H711 H 0.81301 0.5946 0.54061 0.0
H712 H 0.91612 0.56134 0.57018 0.0
H713 H 0.87618 0.66118 0.5654 0.0
C714 C 0.92122 0.67668 0.5562 0.0
C715 C 0.95162 0.66852 0.55154 0.0
C716 C 0.89329 0.56851 0.56438 0.0
C717 C 0.90876 0.62388 0.56516 0.0
C718 C 0.87172 0.5466 0.55594 0.0
C719 C 0.84281 0.55584 0.54625 0.0
C720 C 0.88548 0.59957 0.5633 0.0
C721 C 0.83533 0.58675 0.54749 0.0
C722 C 0.89982 0.65455 0.56349 0.0
C723 C 0.96039 0.63832 0.55698 0.0
N724 N 0.8566 0.6075 0.55554 0.0
N725 N 0.93886 0.6168 0.56273 0.0
H726 H 0.37914 0.98496 0.45617 0.0
H727 H 0.4091 0.80898 0.45193 0.0
H728 H 0.30978 0.91651 0.446 0.0
H729 H 0.48162 0.8749 0.45265 0.0
H730 H 0.37365 0.8487 0.4366 0.0
H731 H 0.41783 0.94687 0.44251 0.0
C732 C 0.37209 0.96214 0.45005 0.0
C733 C 0.34155 0.95348 0.45243 0.0
C734 C 0.3974 0.85457 0.43945 0.0
C735 C 0.38514 0.91004 0.43741 0.0
C736 C 0.41759 0.83182 0.44812 0.0
C737 C 0.44804 0.83894 0.45381 0.0
C738 C 0.40755 0.88486 0.43759 0.0
C739 C 0.45815 0.86872 0.44851 0.0
C740 C 0.39407 0.94041 0.44239 0.0
C741 C 0.33328 0.92378 0.44462 0.0
N742 N 0.43773 0.89089 0.44144 0.0
N743 N 0.355 0.90301 0.43786 0.0
H744 H 0.04849 0.98191 0.86974 0.0
H745 H 0.03135 0.80786 0.90569 0.0
H746 H 0.05022 0.91104 0.80201 0.0
H747 H 0.04837 0.87361 0.97631 0.0
H748 H 0.04692 0.84506 0.86771 0.0
H749 H 0.0581 0.94353 0.90919 0.0
C750 C 0.05209 0.95846 0.86307 0.0
C751 C 0.04809 0.94944 0.83272 0.0
C752 C 0.04781 0.85142 0.89148 0.0
C753 C 0.05835 0.90556 0.8775 0.0
C754 C 0.03884 0.83016 0.91312 0.0
C755 C 0.03839 0.83793 0.94395 0.0
C756 C 0.05549 0.8811 0.90064 0.0
C757 C 0.04842 0.86694 0.95261 0.0
C758 C 0.0573 0.93651 0.8856 0.0
C759 C 0.05268 0.9188 0.82526 0.0
N760 N 0.05596 0.88783 0.93094 0.0
N761 N 0.05702 0.89792 0.84752 0.0
H762 H 0.42241 0.17868 0.42652 0.0
H763 H 0.44569 0.08534 0.30082 0.0
H764 H 0.49688 0.12275 0.45709 0.0
H765 H 0.45768 0.01312 0.3661 0.0
H766 H 0.43563 0.12077 0.34265 0.0
H767 H 0.40858 0.13883 0.38952 0.0
C768 C 0.43529 0.15767 0.42591 0.0
C769 C 0.46092 0.15385 0.44446 0.0
C770 C 0.43928 0.09693 0.34774 0.0
C771 C 0.44528 0.10866 0.40293 0.0
C772 C 0.44509 0.07678 0.32392 0.0
C773 C 0.45247 0.04637 0.33013 0.0
C774 C 0.44188 0.0867 0.37787 0.0
C775 C 0.45184 0.03638 0.36043 0.0
C776 C 0.42753 0.13516 0.40481 0.0
C777 C 0.47712 0.12648 0.44287 0.0
N778 N 0.44767 0.05675 0.3833 0.0
N779 N 0.46906 0.10487 0.42235 0.0
H780 H 0.56202 0.62961 0.01495 0.0
H781 H 0.53226 0.60122 0.19214 0.0
H782 H 0.52937 0.69734 0.07779 0.0
H783 H 0.55384 0.52852 0.12997 0.0
H784 H 0.54019 0.63799 0.15144 0.0
H785 H 0.5659 0.59322 0.0571 0.0
C786 C 0.55545 0.63679 0.03758 0.0
C787 C 0.54473 0.66646 0.04283 0.0
C788 C 0.54369 0.61407 0.14667 0.0
C789 C 0.54975 0.62521 0.09114 0.0
C790 C 0.53948 0.5931 0.17001 0.0
C791 C 0.5423 0.56184 0.16432 0.0
C792 C 0.55039 0.60374 0.11722 0.0
C793 C 0.55163 0.55247 0.13528 0.0
C794 C 0.55783 0.61606 0.06162 0.0
C795 C 0.53694 0.67462 0.07259 0.0
N796 N 0.55486 0.57335 0.11257 0.0
N797 N 0.53959 0.65416 0.09557 0.0
H798 H 0.93917 0.4132 0.69537 0.0
H799 H 0.94185 0.38142 0.5178 0.0
H800 H 0.94114 0.48478 0.62839 0.0
H801 H 0.95054 0.31409 0.58854 0.0
H802 H 0.92664 0.41911 0.5565 0.0
H803 H 0.92655 0.37677 0.65557 0.0
C804 C 0.93611 0.42131 0.67229 0.0
C805 C 0.94155 0.4518 0.66495 0.0
C806 C 0.9312 0.3959 0.56338 0.0
C807 C 0.92851 0.41016 0.61901 0.0
C808 C 0.93978 0.37448 0.54135 0.0
C809 C 0.94789 0.34497 0.55031 0.0
C810 C 0.93057 0.38736 0.59425 0.0
C811 C 0.94494 0.33686 0.58094 0.0
C812 C 0.92909 0.40053 0.6495 0.0
C813 C 0.93718 0.46132 0.63481 0.0
N814 N 0.93681 0.35799 0.60181 0.0
N815 N 0.9317 0.44037 0.61268 0.0
H816 H 0.93337 0.08224 0.82244 0.0
H817 H 0.80417 0.06202 0.91155 0.0
H818 H 0.96007 0.0068 0.87909 0.0
H819 H 0.86665 0.04788 0.98576 0.0
H820 H 0.84741 0.07142 0.87766 0.0
H821 H 0.89556 0.09709 0.86115 0.0
C822 C 0.93176 0.06936 0.84339 0.0
C823 C 0.94944 0.04318 0.84772 0.0
C824 C 0.8516 0.06747 0.90161 0.0
C825 C 0.90697 0.05996 0.89165 0.0
C826 C 0.82697 0.06205 0.9209 0.0
C827 C 0.83195 0.05421 0.95141 0.0
C828 C 0.88129 0.064 0.9128 0.0
C829 C 0.8619 0.0541 0.9624 0.0
C830 C 0.9102 0.0777 0.86526 0.0
C831 C 0.94655 0.02699 0.87499 0.0
N832 N 0.88555 0.05787 0.94284 0.0
N833 N 0.9256 0.03562 0.89596 0.0
H834 H 0.564 0.91477 0.32379 0.0
H835 H 0.69243 0.93982 0.41186 0.0
H836 H 0.53704 0.99172 0.37826 0.0
H837 H 0.63001 0.95267 0.48639 0.0
H838 H 0.64931 0.92858 0.37842 0.0
H839 H 0.60128 0.9007 0.36323 0.0
C840 C 0.56538 0.92812 0.34446 0.0
C841 C 0.54787 0.95454 0.34791 0.0
C842 C 0.64516 0.93264 0.40236 0.0
C843 C 0.5897 0.93861 0.39264 0.0
C844 C 0.6697 0.93911 0.42137 0.0
C845 C 0.66461 0.9471 0.4518 0.0
C846 C 0.61544 0.93529 0.41374 0.0
C847 C 0.63478 0.94636 0.46306 0.0
C848 C 0.58663 0.9202 0.36673 0.0
C849 C 0.55047 0.97134 0.37482 0.0
N850 N 0.61114 0.94164 0.44373 0.0
N851 N 0.57114 0.96313 0.3962 0.0
H852 H 0.37494 0.44904 0.01037 0.0
H853 H 0.41302 0.44882 0.18648 0.0
H854 H 0.30945 0.45094 0.0833 0.0
H855 H 0.48088 0.46109 0.11685 0.0
H856 H 0.37681 0.43234 0.14789 0.0
H857 H 0.41502 0.43698 0.0475 0.0
C858 C 0.3689 0.44586 0.03405 0.0
C859 C 0.33914 0.45136 0.04408 0.0
C860 C 0.39975 0.43805 0.14094 0.0
C861 C 0.38439 0.43792 0.08633 0.0
C862 C 0.42037 0.44738 0.16299 0.0
C863 C 0.44961 0.45658 0.15455 0.0
C864 C 0.40818 0.43889 0.11013 0.0
C865 C 0.45833 0.45423 0.12401 0.0
C866 C 0.39172 0.43919 0.05521 0.0
C867 C 0.3323 0.44724 0.07487 0.0
N868 N 0.4374 0.44625 0.10264 0.0
N869 N 0.35483 0.44113 0.09495 0.0
H870 H 0.19162 0.55106 0.58709 0.0
H871 H 0.01405 0.55432 0.62031 0.0
H872 H 0.12427 0.55246 0.51594 0.0
H873 H 0.08482 0.54044 0.68664 0.0
H874 H 0.05316 0.56836 0.58255 0.0
H875 H 0.1523 0.56359 0.62408 0.0
C876 C 0.16855 0.55475 0.57925 0.0
C877 C 0.16094 0.55037 0.54868 0.0
C878 C 0.05998 0.56289 0.60557 0.0
C879 C 0.11556 0.56342 0.5909 0.0
C880 C 0.03774 0.55499 0.62702 0.0
C881 C 0.04653 0.54581 0.65625 0.0
C882 C 0.0909 0.5618 0.61382 0.0
C883 C 0.07733 0.54694 0.66409 0.0
C884 C 0.14605 0.56175 0.60033 0.0
C885 C 0.13086 0.55558 0.53946 0.0
N886 N 0.09839 0.55449 0.64294 0.0
N887 N 0.10898 0.5611 0.56068 0.0
H888 H 0.82588 0.94353 0.08125 0.0
H889 H 0.91166 0.81186 0.063 0.0
H890 H 0.87638 0.96217 0.99923 0.0
H891 H 0.98575 0.87233 0.0415 0.0
H892 H 0.87897 0.85608 0.07225 0.0
H893 H 0.86548 0.9069 0.09654 0.0
C894 C 0.84567 0.9404 0.06688 0.0
C895 C 0.84788 0.95536 0.03878 0.0
C896 C 0.90273 0.85967 0.06679 0.0
C897 C 0.89292 0.91442 0.05621 0.0
C898 C 0.92131 0.8345 0.06152 0.0
C899 C 0.95133 0.83867 0.05169 0.0
C900 C 0.91407 0.88896 0.061 0.0
C901 C 0.96276 0.86834 0.0494 0.0
C902 C 0.86805 0.91957 0.07555 0.0
C903 C 0.87377 0.95064 0.02085 0.0
N904 N 0.94376 0.89247 0.05295 0.0
N905 N 0.89533 0.93047 0.02985 0.0
H906 H 0.48644 0.62995 0.93669 0.0
H907 H 0.37369 0.5186 0.93661 0.0
H908 H 0.41338 0.69004 0.96224 0.0
H909 H 0.31218 0.59287 0.95414 0.0
H910 H 0.41398 0.55534 0.92526 0.0
H911 H 0.44893 0.59136 0.92206 0.0
C912 C 0.46243 0.63523 0.93838 0.0
C913 C 0.45283 0.66291 0.95102 0.0
C914 C 0.3916 0.56381 0.93079 0.0
C915 C 0.40974 0.6189 0.93518 0.0
C916 C 0.36851 0.5427 0.93711 0.0
C917 C 0.33985 0.55285 0.94675 0.0
C918 C 0.38565 0.59518 0.9341 0.0
C919 C 0.33418 0.58418 0.94724 0.0
C920 C 0.44091 0.61305 0.93038 0.0
C921 C 0.42163 0.66877 0.95293 0.0
N922 N 0.35692 0.60413 0.94141 0.0
N923 N 0.4013 0.64687 0.94545 0.0
H924 H 0.18898 0.40786 0.4575 0.0
H925 H 0.0137 0.37101 0.44241 0.0
H926 H 0.12131 0.47775 0.44546 0.0
H927 H 0.08488 0.30417 0.45124 0.0
H928 H 0.05238 0.40985 0.4312 0.0
H929 H 0.15169 0.36959 0.44307 0.0
C930 C 0.16623 0.4151 0.45135 0.0
C931 C 0.15796 0.44579 0.45302 0.0
C932 C 0.05944 0.38651 0.43473 0.0
C933 C 0.11471 0.40206 0.43733 0.0
C934 C 0.03737 0.36433 0.44086 0.0
C935 C 0.0463 0.33455 0.44812 0.0
C936 C 0.09043 0.3786 0.43592 0.0
C937 C 0.07717 0.32702 0.44613 0.0
C938 C 0.14489 0.39328 0.44309 0.0
C939 C 0.12838 0.45417 0.44453 0.0
N940 N 0.09812 0.34896 0.44066 0.0
N941 N 0.10751 0.43228 0.43768 0.0
H942 H 0.51519 0.13392 0.54674 0.0
H943 H 0.62641 0.02108 0.55873 0.0
H944 H 0.59021 0.19708 0.54682 0.0
H945 H 0.68333 0.09307 0.52407 0.0
H946 H 0.58788 0.05933 0.57282 0.0
H947 H 0.55068 0.09251 0.55783 0.0
C948 C 0.53897 0.13923 0.55041 0.0
C949 C 0.54994 0.16881 0.54538 0.0
C950 C 0.60884 0.06673 0.56226 0.0
C951 C 0.5907 0.12171 0.55794 0.0
C952 C 0.63087 0.04496 0.55449 0.0
C953 C 0.65763 0.05404 0.53966 0.0
C954 C 0.61409 0.09761 0.55535 0.0
C955 C 0.66264 0.08513 0.53486 0.0
C956 C 0.55932 0.11552 0.55669 0.0
C957 C 0.58093 0.17447 0.55004 0.0
N958 N 0.64106 0.10569 0.54254 0.0
N959 N 0.60026 0.15107 0.55544 0.0
H960 H 0.8094 0.40508 0.04969 0.0
H961 H 0.88537 0.2711 0.95686 0.0
H962 H 0.77901 0.37953 0.96006 0.0
H963 H 0.90694 0.29441 0.04961 0.0
H964 H 0.83968 0.30321 0.96015 0.0
H965 H 0.83827 0.358 0.05295 0.0
C966 C 0.80862 0.38927 0.03079 0.0
C967 C 0.7923 0.3963 0.00439 0.0
C968 C 0.85402 0.30066 0.98 0.0
C969 C 0.82588 0.34252 0.00755 0.0
C970 C 0.87993 0.2822 0.97817 0.0
C971 C 0.90008 0.28064 0.00285 0.0
C972 C 0.84848 0.31745 0.00669 0.0
C973 C 0.89221 0.2955 0.0299 0.0
C974 C 0.82504 0.36231 0.03264 0.0
C975 C 0.79155 0.3749 0.98073 0.0
N976 N 0.86729 0.31359 0.03095 0.0
N977 N 0.80873 0.34916 0.98257 0.0
H978 H 0.62326 0.73204 0.45748 0.0
H979 H 0.70353 0.60132 0.5516 0.0
H980 H 0.59973 0.7048 0.5487 0.0
H981 H 0.72678 0.62227 0.45868 0.0
H982 H 0.67582 0.64916 0.5551 0.0
H983 H 0.67048 0.7023 0.46147 0.0
C984 C 0.62856 0.7206 0.47865 0.0
C985 C 0.60753 0.7203 0.50263 0.0
C986 C 0.68734 0.6437 0.53402 0.0
C987 C 0.6609 0.68632 0.50729 0.0
C988 C 0.70318 0.61639 0.53208 0.0
C989 C 0.7169 0.60779 0.50468 0.0
C990 C 0.6844 0.66213 0.50807 0.0
C991 C 0.71623 0.62816 0.48014 0.0
C992 C 0.65535 0.70351 0.48087 0.0
C993 C 0.61522 0.7051 0.52953 0.0
N994 N 0.69951 0.65417 0.48215 0.0
N995 N 0.64107 0.68842 0.53098 0.0
H996 H 0.25677 0.11823 0.03472 0.0
H997 H 0.36756 0.2285 0.04249 0.0
H998 H 0.2958 0.10125 0.94634 0.0
H999 H 0.37824 0.21573 0.94589 0.0
H1000 H 0.32147 0.19772 0.04103 0.0
H1001 H 0.2804 0.16867 0.03481 0.0
C1002 C 0.26982 0.12539 0.01508 0.0
C1003 C 0.27504 0.10528 0.99083 0.0
C1004 C 0.33302 0.20249 0.01986 0.0
C1005 C 0.3029 0.16249 0.99105 0.0
C1006 C 0.35943 0.22027 0.02074 0.0
C1007 C 0.37696 0.22413 0.99437 0.0
C1008 C 0.32427 0.18862 0.99233 0.0
C1009 C 0.3656 0.2128 0.96684 0.0
C1010 C 0.2837 0.15409 0.01529 0.0
C1011 C 0.29184 0.11576 0.96585 0.0
N1012 N 0.34035 0.19509 0.96666 0.0
N1013 N 0.30545 0.14341 0.9668 0.0
H1014 H 0.13217 0.76631 0.54281 0.0
H1015 H 0.21115 0.8932 0.44473 0.0
H1016 H 0.11435 0.78372 0.44801 0.0
H1017 H 0.23191 0.87749 0.53925 0.0
H1018 H 0.18721 0.84328 0.44213 0.0
H1019 H 0.17926 0.796 0.53874 0.0
C1020 C 0.13882 0.77538 0.52087 0.0
C1021 C 0.11924 0.77315 0.49582 0.0
C1022 C 0.19746 0.85036 0.46336 0.0
C1023 C 0.17242 0.80742 0.4911 0.0
C1024 C 0.21114 0.87888 0.46481 0.0
C1025 C 0.2229 0.88959 0.49238 0.0
C1026 C 0.19466 0.8328 0.48995 0.0
C1027 C 0.22279 0.87006 0.51762 0.0
C1028 C 0.16555 0.79253 0.51859 0.0
C1029 C 0.12868 0.78542 0.46797 0.0
N1030 N 0.20808 0.84285 0.51605 0.0
N1031 N 0.15431 0.80247 0.46649 0.0
H1032 H 0.96224 0.87298 0.26691 0.0
H1033 H 0.05507 0.7995 0.40123 0.0
H1034 H 0.05621 0.89226 0.28708 0.0
H1035 H 0.96318 0.77303 0.37969 0.0
H1036 H 0.05913 0.82444 0.35196 0.0
H1037 H 0.96518 0.82763 0.29935 0.0
C1038 C 0.98379 0.867 0.27724 0.0
C1039 C 0.00889 0.88657 0.27484 0.0
C1040 C 0.03816 0.81283 0.35763 0.0
C1041 C 0.01228 0.83536 0.31226 0.0
C1042 C 0.03586 0.79865 0.38582 0.0
C1043 C 0.00858 0.78475 0.39461 0.0
C1044 C 0.01269 0.81393 0.33837 0.0
C1045 C 0.98452 0.78378 0.37371 0.0
C1046 C 0.9854 0.84128 0.29596 0.0
C1047 C 0.0362 0.87798 0.2888 0.0
N1048 N 0.98686 0.79887 0.34675 0.0
N1049 N 0.03702 0.85333 0.30731 0.0
H1050 H 0.44316 0.11988 0.77051 0.0
H1051 H 0.53507 0.23425 0.87541 0.0
H1052 H 0.54061 0.13005 0.76712 0.0
H1053 H 0.44386 0.20185 0.89126 0.0
H1054 H 0.53377 0.21112 0.8245 0.0
H1055 H 0.43984 0.16585 0.80141 0.0
C1056 C 0.46378 0.13244 0.77546 0.0
C1057 C 0.49224 0.12093 0.76686 0.0
C1058 C 0.51382 0.20976 0.8389 0.0
C1059 C 0.48874 0.17283 0.80303 0.0
C1060 C 0.51452 0.22297 0.86784 0.0
C1061 C 0.48975 0.21932 0.88765 0.0
C1062 C 0.48802 0.19327 0.82978 0.0
C1063 C 0.46366 0.20459 0.87686 0.0
C1064 C 0.46192 0.15855 0.79326 0.0
C1065 C 0.51825 0.13813 0.77356 0.0
N1066 N 0.46359 0.19184 0.84879 0.0
N1067 N 0.51599 0.16286 0.79206 0.0
H1068 H 0.54537 0.69421 0.59612 0.0
H1069 H 0.55078 0.61463 0.72607 0.0
H1070 H 0.46014 0.73305 0.62526 0.0
H1071 H 0.45334 0.6247 0.72486 0.0
H1072 H 0.5555 0.66044 0.69499 0.0
H1073 H 0.55028 0.6691 0.64488 0.0
C1074 C 0.52795 0.69793 0.61318 0.0
C1075 C 0.50214 0.71537 0.60658 0.0
C1076 C 0.53305 0.65285 0.70161 0.0
C1077 C 0.50771 0.68694 0.66313 0.0
C1078 C 0.53042 0.62706 0.71984 0.0
C1079 C 0.50164 0.61583 0.72755 0.0
C1080 C 0.50662 0.6666 0.69 0.0
C1081 C 0.47593 0.63271 0.71919 0.0
C1082 C 0.53095 0.68389 0.64135 0.0
C1083 C 0.48036 0.71966 0.62952 0.0
N1084 N 0.47896 0.65689 0.7001 0.0
N1085 N 0.48326 0.70488 0.65661 0.0
H1086 H 0.95652 0.2796 0.10726 0.0
H1087 H 0.05109 0.36659 0.23377 0.0
H1088 H 0.05162 0.26299 0.12396 0.0
H1089 H 0.95929 0.38755 0.20663 0.0
H1090 H 0.04801 0.31869 0.20497 0.0
H1091 H 0.95339 0.30778 0.1549 0.0
C1092 C 0.97657 0.28123 0.1215 0.0
C1093 C 0.00442 0.26929 0.11166 0.0
C1094 C 0.02828 0.3334 0.20603 0.0
C1095 C 0.00141 0.30259 0.16564 0.0
C1096 C 0.02997 0.36058 0.22262 0.0
C1097 C 0.00551 0.38107 0.22218 0.0
C1098 C 0.00189 0.32683 0.18919 0.0
C1099 C 0.97876 0.37247 0.20719 0.0
C1100 C 0.97486 0.29747 0.14862 0.0
C1101 C 0.02974 0.27193 0.13087 0.0
N1102 N 0.9778 0.34622 0.19102 0.0
N1103 N 0.02784 0.28899 0.15667 0.0
H1104 H 0.38816 0.05279 0.78567 0.0
H1105 H 0.27285 0.94727 0.87127 0.0
H1106 H 0.37937 0.95699 0.76661 0.0
H1107 H 0.27802 0.04466 0.88183 0.0
H1108 H 0.30158 0.95156 0.82362 0.0
H1109 H 0.33874 0.05196 0.81072 0.0
C1110 C 0.37541 0.03169 0.78626 0.0
C1111 C 0.38792 0.00483 0.7746 0.0
C1112 C 0.29563 0.97209 0.83587 0.0
C1113 C 0.3318 0.00332 0.80416 0.0
C1114 C 0.27903 0.96964 0.86294 0.0
C1115 C 0.27371 0.99561 0.88069 0.0
C1116 C 0.3069 0.00067 0.82682 0.0
C1117 C 0.28225 0.02403 0.86903 0.0
C1118 C 0.34718 0.03115 0.80058 0.0
C1119 C 0.37046 0.97814 0.77558 0.0
N1120 N 0.29891 0.02575 0.84315 0.0
N1121 N 0.34356 0.97785 0.79091 0.0
H1122 H 0.76982 0.53653 0.13186 0.0
H1123 H 0.91262 0.44603 0.18844 0.0
H1124 H 0.79023 0.44417 0.10612 0.0
H1125 H 0.88428 0.53004 0.23049 0.0
H1126 H 0.86297 0.44181 0.1644 0.0
H1127 H 0.805 0.53163 0.17494 0.0
C1128 C 0.78067 0.51481 0.13614 0.0
C1129 C 0.77749 0.49078 0.11544 0.0
C1130 C 0.8673 0.46102 0.17919 0.0
C1131 C 0.81821 0.48528 0.16371 0.0
C1132 C 0.89576 0.46349 0.19277 0.0
C1133 C 0.90267 0.48869 0.211 0.0
C1134 C 0.84575 0.48431 0.18318 0.0
C1135 C 0.87985 0.51038 0.21635 0.0
C1136 C 0.801 0.5121 0.16049 0.0
C1137 C 0.79236 0.46327 0.12154 0.0
N1138 N 0.85254 0.50805 0.20194 0.0
N1139 N 0.81251 0.46145 0.14477 0.0
H1140 H 0.61666 0.45755 0.72874 0.0
H1141 H 0.71692 0.5525 0.61151 0.0
H1142 H 0.59604 0.54723 0.69461 0.0
H1143 H 0.72729 0.45588 0.62465 0.0
H1144 H 0.68397 0.55464 0.65609 0.0
H1145 H 0.66665 0.46027 0.70361 0.0
C1146 C 0.62294 0.47802 0.71653 0.0
C1147 C 0.6021 0.50199 0.71321 0.0
C1148 C 0.694 0.53304 0.64975 0.0
C1149 C 0.65895 0.50539 0.68494 0.0
C1150 C 0.71302 0.53189 0.62448 0.0
C1151 C 0.72448 0.50393 0.61431 0.0
C1152 C 0.68582 0.50592 0.66456 0.0
C1153 C 0.71882 0.47786 0.63184 0.0
C1154 C 0.65136 0.47954 0.70219 0.0
C1155 C 0.61125 0.52801 0.69722 0.0
N1156 N 0.69918 0.47932 0.65578 0.0
N1157 N 0.63886 0.52891 0.68352 0.0
H1158 H 0.10415 0.95353 0.28874 0.0
H1159 H 0.22874 0.04857 0.37446 0.0
H1160 H 0.11913 0.04901 0.27214 0.0
H1161 H 0.214 0.95219 0.38531 0.0
H1162 H 0.19893 0.04722 0.32733 0.0
H1163 H 0.15347 0.95041 0.31367 0.0
C1164 C 0.11822 0.97375 0.28998 0.0
C1165 C 0.10757 0.00165 0.27896 0.0
C1166 C 0.20299 0.02621 0.33953 0.0
C1167 C 0.16362 0.99864 0.30833 0.0
C1168 C 0.22018 0.02694 0.36629 0.0
C1169 C 0.22317 0.00055 0.38397 0.0
C1170 C 0.18885 0.99889 0.3307 0.0
C1171 C 0.21163 0.97314 0.37256 0.0
C1172 C 0.1464 0.97202 0.30418 0.0
C1173 C 0.12664 0.02714 0.28065 0.0
N1174 N 0.19454 0.97313 0.34694 0.0
N1175 N 0.15354 0.02523 0.29586 0.0
H1176 H 0.22887 0.61749 0.02946 0.0
H1177 H 0.09237 0.70097 0.94498 0.0
H1178 H 0.18322 0.58528 0.94882 0.0
H1179 H 0.12189 0.7248 0.03536 0.0
H1180 H 0.13723 0.66891 0.93915 0.0
H1181 H 0.20063 0.6656 0.02543 0.0
C1182 C 0.21338 0.62079 0.0106 0.0
C1183 C 0.20785 0.59723 0.98977 0.0
C1184 C 0.13432 0.6816 0.96006 0.0
C1185 C 0.17591 0.65196 0.98491 0.0
C1186 C 0.10882 0.70003 0.96331 0.0
C1187 C 0.10333 0.71509 0.99084 0.0
C1188 C 0.15413 0.67767 0.98479 0.0
C1189 C 0.12537 0.71339 0.01382 0.0
C1190 C 0.19728 0.64817 0.00835 0.0
C1191 C 0.18766 0.60264 0.96572 0.0
N1192 N 0.14956 0.69431 0.01058 0.0
N1193 N 0.17227 0.6293 0.96412 0.0
H1194 H 0.38933 0.28505 0.43553 0.0
H1195 H 0.31285 0.41724 0.4488 0.0
H1196 H 0.37963 0.28082 0.53301 0.0
H1197 H 0.27181 0.38289 0.53107 0.0
H1198 H 0.33879 0.36912 0.44201 0.0
H1199 H 0.34536 0.31887 0.4331 0.0
C1200 C 0.37748 0.29082 0.45636 0.0
C1201 C 0.38837 0.2807 0.48454 0.0
C1202 C 0.32342 0.37146 0.46108 0.0
C1203 C 0.33948 0.32097 0.48223 0.0
C1204 C 0.30894 0.39926 0.46522 0.0
C1205 C 0.29046 0.40414 0.49072 0.0
C1206 C 0.31972 0.34826 0.48278 0.0
C1207 C 0.28597 0.37998 0.51113 0.0
C1208 C 0.35271 0.31051 0.45506 0.0
C1209 C 0.37201 0.28838 0.51084 0.0
N1210 N 0.30108 0.35321 0.50708 0.0
N1211 N 0.34876 0.30874 0.50915 0.0
H1212 H 0.62417 0.77589 0.944 0.0
H1213 H 0.71748 0.88918 0.04513 0.0
H1214 H 0.62869 0.77122 0.04188 0.0
H1215 H 0.72922 0.88441 0.94798 0.0
H1216 H 0.69259 0.83962 0.04426 0.0
H1217 H 0.66959 0.80831 0.94408 0.0
C1218 C 0.63529 0.78085 0.96541 0.0
C1219 C 0.6223 0.77143 0.99303 0.0
C1220 C 0.70114 0.84893 0.02311 0.0
C1221 C 0.67379 0.80879 0.99335 0.0
C1222 C 0.71543 0.8772 0.02369 0.0
C1223 C 0.72523 0.89075 0.9966 0.0
C1224 C 0.69563 0.83456 0.99507 0.0
C1225 C 0.722 0.8745 0.96935 0.0
C1226 C 0.66112 0.79951 0.96548 0.0
C1227 C 0.63759 0.77854 0.0201 0.0
N1228 N 0.70677 0.8475 0.96914 0.0
N1229 N 0.66214 0.79722 0.01962 0.0
H1230 H 0.86809 0.23282 0.44992 0.0
H1231 H 0.79226 0.10309 0.54522 0.0
H1232 H 0.87674 0.22302 0.54705 0.0
H1233 H 0.77015 0.11867 0.45102 0.0
H1234 H 0.81416 0.15386 0.54813 0.0
H1235 H 0.82324 0.19968 0.45119 0.0
C1236 C 0.85972 0.22479 0.47167 0.0
C1237 C 0.87629 0.23014 0.49838 0.0
C1238 C 0.80413 0.14657 0.52686 0.0
C1239 C 0.82578 0.19178 0.49996 0.0
C1240 C 0.79173 0.11751 0.52522 0.0
C1241 C 0.77995 0.10667 0.49772 0.0
C1242 C 0.8057 0.16463 0.50051 0.0
C1243 C 0.7793 0.12628 0.47257 0.0
C1244 C 0.8343 0.20561 0.47237 0.0
C1245 C 0.86476 0.219 0.52591 0.0
N1246 N 0.79275 0.15415 0.47433 0.0
N1247 N 0.8406 0.19986 0.52592 0.0
H1248 H 0.03365 0.23373 0.61863 0.0
H1249 H 0.94358 0.11207 0.71795 0.0
H1250 H 0.94264 0.20162 0.60119 0.0
H1251 H 0.04026 0.12646 0.72543 0.0
H1252 H 0.93961 0.15775 0.68672 0.0
H1253 H 0.03299 0.20681 0.66768 0.0
C1254 C 0.01327 0.2217 0.62549 0.0
C1255 C 0.98833 0.21942 0.6057 0.0
C1256 C 0.96164 0.15139 0.6957 0.0
C1257 C 0.98739 0.18885 0.66148 0.0
C1258 C 0.96387 0.12542 0.71369 0.0
C1259 C 0.99234 0.11534 0.72386 0.0
C1260 C 0.98816 0.16707 0.68726 0.0
C1261 C 0.0179 0.1335 0.7179 0.0
C1262 C 0.01296 0.20626 0.65337 0.0
C1263 C 0.96253 0.20351 0.61558 0.0
N1264 N 0.01534 0.15818 0.69931 0.0
N1265 N 0.96285 0.18862 0.6426 0.0
H1266 H 0.56143 0.77342 0.1169 0.0
H1267 H 0.46004 0.8687 0.23065 0.0
H1268 H 0.46406 0.7638 0.12383 0.0
H1269 H 0.55687 0.87927 0.2189 0.0
H1270 H 0.46256 0.82051 0.20269 0.0
H1271 H 0.56162 0.80129 0.1648 0.0
C1272 C 0.54013 0.77666 0.12889 0.0
C1273 C 0.51261 0.76691 0.1161 0.0
C1274 C 0.48336 0.83301 0.20689 0.0
C1275 C 0.5125 0.79952 0.17059 0.0
C1276 C 0.48195 0.86043 0.223 0.0
C1277 C 0.50819 0.87828 0.22644 0.0
C1278 C 0.5112 0.82354 0.19429 0.0
C1279 C 0.53598 0.8665 0.21614 0.0
C1280 C 0.54022 0.79262 0.15624 0.0
C1281 C 0.48575 0.77124 0.1328 0.0
N1282 N 0.53667 0.84015 0.20011 0.0
N1283 N 0.48624 0.78793 0.15886 0.0
H1284 H 0.5517 0.38182 0.26645 0.0
H1285 H 0.45514 0.28687 0.38458 0.0
H1286 H 0.4547 0.3888 0.27858 0.0
H1287 H 0.55203 0.27664 0.37457 0.0
H1288 H 0.45335 0.31411 0.3363 0.0
H1289 H 0.5513 0.33421 0.29578 0.0
C1290 C 0.53019 0.37269 0.27427 0.0
C1291 C 0.50322 0.38931 0.27046 0.0
C1292 C 0.47501 0.30542 0.34416 0.0
C1293 C 0.50261 0.33548 0.30435 0.0
C1294 C 0.47595 0.28975 0.37167 0.0
C1295 C 0.50376 0.2797 0.38342 0.0
C1296 C 0.50226 0.31202 0.32875 0.0
C1297 C 0.53015 0.28403 0.36604 0.0
C1298 C 0.52998 0.34568 0.29125 0.0
C1299 C 0.47602 0.37678 0.28135 0.0
N1300 N 0.52889 0.30054 0.33982 0.0
N1301 N 0.47647 0.3509 0.29816 0.0
H1302 H 0.04398 0.61563 0.78121 0.0
H1303 H 0.94658 0.7303 0.88196 0.0
H1304 H 0.94732 0.62735 0.77 0.0
H1305 H 0.03401 0.69243 0.9052 0.0
H1306 H 0.95076 0.70685 0.83119 0.0
H1307 H 0.045 0.65979 0.8148 0.0
C1308 C 0.02314 0.62825 0.785 0.0
C1309 C 0.99547 0.61772 0.77328 0.0
C1310 C 0.96921 0.70424 0.84728 0.0
C1311 C 0.9962 0.66737 0.81257 0.0
C1312 C 0.96683 0.71754 0.87614 0.0
C1313 C 0.98972 0.71266 0.89782 0.0
C1314 C 0.99492 0.68661 0.84015 0.0
C1315 C 0.01558 0.69613 0.88929 0.0
C1316 C 0.02365 0.65326 0.80437 0.0
C1317 C 0.96909 0.63482 0.77875 0.0
N1318 N 0.01738 0.68358 0.86122 0.0
N1319 N 0.96992 0.65844 0.79876 0.0
H1320 H 0.62564 0.03875 0.23418 0.0
H1321 H 0.71776 0.94354 0.11294 0.0
H1322 H 0.61288 0.94336 0.21546 0.0
H1323 H 0.72999 0.03992 0.12673 0.0
H1324 H 0.69061 0.94052 0.16117 0.0
H1325 H 0.67408 0.03709 0.20632 0.0
C1326 C 0.63365 0.01723 0.2252 0.0
C1327 C 0.61523 0.99124 0.22662 0.0
C1328 C 0.69969 0.96229 0.15404 0.0
C1329 C 0.66995 0.98921 0.19449 0.0
C1330 C 0.71525 0.96398 0.12649 0.0
C1331 C 0.72556 0.99211 0.11559 0.0
C1332 C 0.6937 0.98907 0.17047 0.0
C1333 C 0.72212 0.01782 0.13423 0.0
C1334 C 0.66113 0.01631 0.2091 0.0
C1335 C 0.62635 0.96398 0.21444 0.0
N1336 N 0.70578 0.01584 0.16046 0.0
N1337 N 0.65273 0.96378 0.19849 0.0
H1338 H 0.21009 0.54348 0.89212 0.0
H1339 H 0.11273 0.45917 0.76538 0.0
H1340 H 0.22151 0.44865 0.87015 0.0
H1341 H 0.09523 0.54905 0.80063 0.0
H1342 H 0.16174 0.45888 0.79227 0.0
H1343 H 0.17866 0.54988 0.84689 0.0
C1344 C 0.20662 0.5242 0.87714 0.0
C1345 C 0.21815 0.49551 0.88474 0.0
C1346 C 0.14743 0.47889 0.79353 0.0
C1347 C 0.18114 0.50223 0.83372 0.0
C1348 C 0.11957 0.47912 0.77811 0.0
C1349 C 0.09976 0.50397 0.7813 0.0
C1350 C 0.15546 0.50381 0.8119 0.0
C1351 C 0.10962 0.52922 0.79806 0.0
C1352 C 0.18851 0.52776 0.85145 0.0
C1353 C 0.213 0.47115 0.86483 0.0
N1354 N 0.13658 0.52835 0.81295 0.0
N1355 N 0.19422 0.47488 0.84048 0.0
H1356 H 0.37395 0.53738 0.26219 0.0
H1357 H 0.28313 0.45342 0.39346 0.0
H1358 H 0.39782 0.45107 0.30241 0.0
H1359 H 0.26774 0.54694 0.36842 0.0
H1360 H 0.31314 0.44634 0.34734 0.0
H1361 H 0.32479 0.53536 0.28862 0.0
C1362 C 0.36852 0.51766 0.27595 0.0
C1363 C 0.39015 0.49465 0.2807 0.0
C1364 C 0.30263 0.46825 0.35142 0.0
C1365 C 0.33423 0.49218 0.31074 0.0
C1366 C 0.28533 0.4722 0.37762 0.0
C1367 C 0.27332 0.50084 0.38467 0.0
C1368 C 0.30864 0.49338 0.33263 0.0
C1369 C 0.27674 0.52452 0.36361 0.0
C1370 C 0.34054 0.51657 0.29107 0.0
C1371 C 0.38201 0.46959 0.29866 0.0
N1372 N 0.29481 0.52049 0.33877 0.0
N1373 N 0.35487 0.46921 0.31329 0.0
H1374 H 0.78635 0.05522 0.60844 0.0
H1375 H 0.87519 0.96019 0.73342 0.0
H1376 H 0.76923 0.96028 0.62626 0.0
H1377 H 0.89749 0.05097 0.70371 0.0
H1378 H 0.82646 0.96397 0.7061 0.0
H1379 H 0.81565 0.05831 0.65538 0.0
C1380 C 0.78815 0.0352 0.62272 0.0
C1381 C 0.77585 0.00735 0.61331 0.0
C1382 C 0.8417 0.98332 0.70625 0.0
C1383 C 0.81027 0.01035 0.6665 0.0
C1384 C 0.86936 0.9812 0.72192 0.0
C1385 C 0.89037 0.00514 0.72028 0.0
C1386 C 0.83522 0.00963 0.68918 0.0
C1387 C 0.882 0.03184 0.70505 0.0
C1388 C 0.805 0.03689 0.64946 0.0
C1389 C 0.77856 0.98214 0.63272 0.0
N1390 N 0.85526 0.03323 0.68983 0.0
N1391 N 0.7962 0.98401 0.65809 0.0
H1392 H 0.03796 0.32655 0.93253 0.0
H1393 H 0.99208 0.3864 0.76987 0.0
H1394 H 0.97002 0.27555 0.88332 0.0
H1395 H 0.00151 0.44356 0.84922 0.0
H1396 H 0.994 0.34121 0.80328 0.0
H1397 H 0.03795 0.3646 0.89239 0.0
C1398 C 0.02335 0.32308 0.91299 0.0
C1399 C 0.00346 0.29817 0.91157 0.0
C1400 C 0.9954 0.36376 0.81311 0.0
C1401 C 0.00343 0.34183 0.86554 0.0
C1402 C 0.99433 0.38947 0.79421 0.0
C1403 C 0.99664 0.41883 0.80678 0.0
C1404 C -0.00029 0.36767 0.84446 0.0
C1405 C -0.00051 0.42151 0.83844 0.0
C1406 C 0.02332 0.34488 0.89018 0.0
C1407 C 0.98553 0.29457 0.88534 0.0
N1408 N 0.00134 0.3963 0.85606 0.0
N1409 N 0.98561 0.31652 0.86334 0.0
H1410 H 0.54673 0.721 0.38214 0.0
H1411 H 0.47091 0.56723 0.34501 0.0
H1412 H 0.45973 0.6958 0.41968 0.0
H1413 H 0.50727 0.61665 0.26837 0.0
H1414 H 0.4739 0.61342 0.37556 0.0
H1415 H 0.53866 0.68381 0.34068 0.0
C1416 C 0.52553 0.7085 0.38097 0.0
C1417 C 0.50393 0.71108 0.40432 0.0
C1418 C 0.48111 0.61422 0.35201 0.0
C1419 C 0.49512 0.66852 0.35821 0.0
C1420 C 0.47964 0.58785 0.33467 0.0
C1421 C 0.48887 0.58822 0.30421 0.0
C1422 C 0.49259 0.64106 0.3391 0.0
C1423 C 0.49982 0.61562 0.29182 0.0
C1424 C 0.52103 0.68725 0.35756 0.0
C1425 C 0.47702 0.69414 0.4022 0.0
N1426 N 0.50182 0.64105 0.3095 0.0
N1427 N 0.47366 0.67313 0.37998 0.0
H1428 H 0.48413 0.0472 0.15287 0.0
H1429 H 0.50341 0.22185 0.11226 0.0
H1430 H 0.52543 0.10868 0.2174 0.0
H1431 H 0.43828 0.16157 0.07049 0.0
H1432 H 0.51289 0.18289 0.15163 0.0
H1433 H 0.46977 0.09015 0.12172 0.0
C1434 C 0.49025 0.06977 0.16058 0.0
C1435 C 0.50602 0.07417 0.18796 0.0
C1436 C 0.49612 0.17857 0.13414 0.0
C1437 C 0.48951 0.12406 0.15187 0.0
C1438 C 0.49055 0.20083 0.11187 0.0
C1439 C 0.4703 0.19469 0.08797 0.0
C1440 C 0.48138 0.15022 0.13211 0.0
C1441 C 0.45442 0.16704 0.08828 0.0
C1442 C 0.48184 0.09444 0.14275 0.0
C1443 C 0.51326 0.1042 0.19649 0.0
N1444 N 0.46056 0.14578 0.10969 0.0
N1445 N 0.50513 0.12808 0.17837 0.0
H1446 H 0.96749 0.88797 0.71853 0.0
H1447 H 0.06967 0.82112 0.58364 0.0
H1448 H 0.03563 0.93792 0.66842 0.0
H1449 H 0.98852 0.77588 0.6148 0.0
H1450 H 0.06416 0.85841 0.62428 0.0
H1451 H 0.98033 0.84222 0.68892 0.0
C1452 C 0.98524 0.88928 0.70149 0.0
C1453 C 0.00023 0.91693 0.69566 0.0
C1454 C 0.04777 0.84008 0.6227 0.0
C1455 C 0.01528 0.86478 0.66227 0.0
C1456 C 0.05111 0.81865 0.59969 0.0
C1457 C 0.02954 0.79552 0.59605 0.0
C1458 C 0.0223 0.83877 0.64192 0.0
C1459 C 0.00574 0.79333 0.61718 0.0
C1460 C 0.99253 0.8632 0.68466 0.0
C1461 C 0.02311 0.9173 0.67341 0.0
N1462 N 0.00242 0.81509 0.63904 0.0
N1463 N 0.02985 0.89171 0.65758 0.0
H1464 H 0.83547 0.96097 0.43781 0.0
H1465 H 0.88428 0.00816 0.27037 0.0
H1466 H 0.78118 0.02221 0.38358 0.0
H1467 H 0.92432 0.93472 0.3215 0.0
H1468 H 0.84308 0.01114 0.30835 0.0
H1469 H 0.86583 0.94909 0.3932 0.0
C1470 C 0.82991 0.97192 0.41644 0.0
C1471 C 0.80597 0.99288 0.41452 0.0
C1472 C 0.86051 0.99391 0.31081 0.0
C1473 C 0.8409 0.97945 0.36302 0.0
C1474 C 0.88379 0.99206 0.28903 0.0
C1475 C 0.90763 0.97128 0.29307 0.0
C1476 C 0.86147 0.97491 0.3366 0.0
C1477 C 0.90637 0.9512 0.31779 0.0
C1478 C 0.84716 0.96498 0.39083 0.0
C1479 C 0.79953 0.00599 0.38606 0.0
N1480 N 0.88395 0.95376 0.33875 0.0
N1481 N 0.81719 0.99938 0.36145 0.0
H1482 H 0.6128 0.9981 0.77318 0.0
H1483 H 0.65901 0.03253 0.94494 0.0
H1484 H 0.5687 0.06374 0.83127 0.0
H1485 H 0.71533 0.97732 0.88639 0.0
H1486 H 0.62741 0.04547 0.90168 0.0
H1487 H 0.65307 0.99221 0.81173 0.0
C1488 C 0.61201 0.01176 0.79366 0.0
C1489 C 0.58727 0.03112 0.79932 0.0
C1490 C 0.64673 0.03062 0.89808 0.0
C1491 C 0.63261 0.02428 0.84334 0.0
C1492 C 0.66472 0.02303 0.92292 0.0
C1493 C 0.6897 0.00352 0.91939 0.0
C1494 C 0.65334 0.01836 0.86932 0.0
C1495 C 0.6962 0.99236 0.89013 0.0
C1496 C 0.63482 0.00826 0.81571 0.0
C1497 C 0.58714 0.04819 0.82624 0.0
N1498 N 0.67791 0.99968 0.8662 0.0
N1499 N 0.60922 0.04414 0.8473 0.0
H1500 H 0.41453 0.57139 0.68258 0.0
H1501 H 0.27625 0.47647 0.61266 0.0
H1502 H 0.38092 0.48917 0.72407 0.0
H1503 H 0.32509 0.54829 0.56681 0.0
H1504 H 0.30612 0.48662 0.65884 0.0
H1505 H 0.37261 0.56995 0.64638 0.0
C1506 C 0.39775 0.55341 0.68444 0.0
C1507 C 0.40104 0.53034 0.70614 0.0
C1508 C 0.30997 0.50032 0.63873 0.0
C1509 C 0.35361 0.5278 0.66411 0.0
C1510 C 0.29294 0.49459 0.61242 0.0
C1511 C 0.29852 0.51128 0.58572 0.0
C1512 C 0.33236 0.52313 0.63833 0.0
C1513 C 0.32036 0.53451 0.58668 0.0
C1514 C 0.37396 0.55243 0.66365 0.0
C1515 C 0.3789 0.50745 0.70767 0.0
N1516 N 0.3365 0.53962 0.61243 0.0
N1517 N 0.35628 0.50641 0.68649 0.0
H1518 H 0.10214 0.42749 0.19651 0.0
H1519 H 0.2235 0.5326 0.11061 0.0
H1520 H 0.11491 0.52201 0.21887 0.0
H1521 H 0.18075 0.45306 0.07219 0.0
H1522 H 0.19551 0.52367 0.15833 0.0
H1523 H 0.14393 0.43095 0.15984 0.0
C1524 C 0.11461 0.44867 0.19444 0.0
C1525 C 0.10554 0.47441 0.21083 0.0
C1526 C 0.19265 0.50803 0.13952 0.0
C1527 C 0.15247 0.4789 0.16835 0.0
C1528 C 0.20861 0.51305 0.11239 0.0
C1529 C 0.20407 0.49375 0.08735 0.0
C1530 C 0.17264 0.4832 0.14168 0.0
C1531 C 0.18453 0.46876 0.0908 0.0
C1532 C 0.13816 0.45076 0.17332 0.0
C1533 C 0.12172 0.5016 0.20688 0.0
N1534 N 0.16952 0.46425 0.11739 0.0
N1535 N 0.14429 0.50328 0.18572 0.0
H1536 H 0.45784 0.84066 0.99694 0.0
H1537 H 0.28007 0.87548 0.00213 0.0
H1538 H 0.39395 0.76942 0.01913 0.0
H1539 H 0.34661 0.92902 0.95365 0.0
H1540 H 0.31937 0.83615 0.01069 0.0
H1541 H 0.41576 0.87405 0.98456 0.0
C1542 C 0.43489 0.83202 0.99938 0.0
C1543 C 0.42952 0.80215 0.00929 0.0
C1544 C 0.32508 0.85641 0.99789 0.0
C1545 C 0.3807 0.84064 0.99487 0.0
C1546 C 0.30267 0.87875 0.99288 0.0
C1547 C 0.31016 0.90582 0.97756 0.0
C1548 C 0.35499 0.86144 0.98757 0.0
C1549 C 0.33983 0.90887 0.96612 0.0
C1550 C 0.41075 0.85111 0.99205 0.0
C1551 C 0.39913 0.79228 0.01157 0.0
N1552 N 0.36105 0.88724 0.97161 0.0
N1553 N 0.37577 0.81157 0.00463 0.0
H1554 H 0.87596 0.72255 0.97494 0.0
H1555 H 0.80163 0.58968 0.07459 0.0
H1556 H 0.92073 0.67525 0.04834 0.0
H1557 H 0.77083 0.6116 0.98425 0.0
H1558 H 0.83652 0.63303 0.07276 0.0
H1559 H 0.82957 0.69297 0.98516 0.0
C1560 C 0.87585 0.70635 0.9935 0.0
C1561 C 0.90231 0.70101 0.01058 0.0
C1562 C 0.82158 0.6289 0.05361 0.0
C1563 C 0.84948 0.6676 0.02255 0.0
C1564 C 0.80147 0.60443 0.05482 0.0
C1565 C 0.78326 0.59749 0.02967 0.0
C1566 C 0.82375 0.64626 0.02688 0.0
C1567 C 0.78431 0.61666 0.00423 0.0
C1568 C 0.84946 0.68947 0.99924 0.0
C1569 C 0.90098 0.67975 0.03434 0.0
N1570 N 0.8046 0.64006 0.00328 0.0
N1571 N 0.87509 0.66377 0.03953 0.0
H1572 H 0.56308 0.3333 0.53158 0.0
H1573 H 0.72872 0.38658 0.48409 0.0
H1574 H 0.61547 0.28441 0.46446 0.0
H1575 H 0.68011 0.41916 0.56271 0.0
H1576 H 0.69087 0.34555 0.47858 0.0
H1577 H 0.60801 0.36248 0.54482 0.0
C1578 C 0.58411 0.32871 0.51958 0.0
C1579 C 0.58542 0.30666 0.4966 0.0
C1580 C 0.68898 0.36123 0.49748 0.0
C1581 C 0.63732 0.3402 0.51167 0.0
C1582 C 0.71069 0.38439 0.50075 0.0
C1583 C 0.70727 0.40613 0.52381 0.0
C1584 C 0.66388 0.36024 0.51734 0.0
C1585 C 0.68334 0.40281 0.54455 0.0
C1586 C 0.60992 0.34525 0.52732 0.0
C1587 C 0.61348 0.30134 0.48222 0.0
N1588 N 0.66239 0.38059 0.54061 0.0
N1589 N 0.63831 0.31833 0.48969 0.0
H1590 H 0.10643 0.23102 0.4954 0.0
H1591 H 0.1677 0.06412 0.52272 0.0
H1592 H 0.04992 0.15125 0.5056 0.0
H1593 H 0.21604 0.12117 0.45911 0.0
H1594 H 0.12991 0.1038 0.52923 0.0
H1595 H 0.15143 0.19756 0.49173 0.0
C1596 C 0.10347 0.20659 0.4968 0.0
C1597 C 0.07437 0.19388 0.50085 0.0
C1598 C 0.14889 0.10782 0.51401 0.0
C1599 C 0.12534 0.15609 0.49735 0.0
C1600 C 0.17051 0.08525 0.51033 0.0
C1601 C 0.19461 0.08917 0.48984 0.0
C1602 C 0.15118 0.1347 0.4971 0.0
C1603 C 0.19757 0.11728 0.47493 0.0
C1604 C 0.12906 0.18766 0.49462 0.0
C1605 C 0.07178 0.16213 0.50238 0.0
N1606 N 0.1757 0.13908 0.47854 0.0
N1607 N 0.09691 0.14444 0.50093 0.0
H1608 H 0.97319 0.60871 0.22293 0.0
H1609 H 0.06512 0.68717 0.08687 0.0
H1610 H 0.04452 0.56564 0.17099 0.0
H1611 H 0.97686 0.71841 0.11568 0.0
H1612 H 0.06519 0.65017 0.12842 0.0
H1613 H 0.98098 0.6556 0.19344 0.0
C1614 C 0.99072 0.60923 0.20562 0.0
C1615 C 0.00798 0.58312 0.19912 0.0
C1616 C 0.04608 0.66555 0.12615 0.0
C1617 C 0.0172 0.63661 0.16577 0.0
C1618 C 0.04621 0.68685 0.1027 0.0
C1619 C 0.0211 0.7059 0.09825 0.0
C1620 C 0.02043 0.66301 0.14502 0.0
C1621 C 0.9968 0.70429 0.1188 0.0
C1622 C 0.99508 0.63594 0.18881 0.0
C1623 C 0.03038 0.58506 0.17647 0.0
N1624 N 0.99686 0.68285 0.1412 0.0
N1625 N 0.03427 0.61127 0.1606 0.0
H1626 H 0.45672 0.44189 0.66242 0.0
H1627 H 0.50547 0.27523 0.60878 0.0
H1628 H 0.52047 0.38715 0.71318 0.0
H1629 H 0.43935 0.3321 0.56392 0.0
H1630 H 0.50735 0.31216 0.65099 0.0
H1631 H 0.44633 0.39865 0.62972 0.0
C1632 C 0.46852 0.42068 0.66675 0.0
C1633 C 0.48981 0.4183 0.69034 0.0
C1634 C 0.49209 0.31622 0.63211 0.0
C1635 C 0.47814 0.36835 0.65259 0.0
C1636 C 0.49087 0.29508 0.60819 0.0
C1637 C 0.47251 0.30091 0.58276 0.0
C1638 C 0.47468 0.34307 0.63039 0.0
C1639 C 0.45417 0.327 0.58292 0.0
C1640 C 0.46249 0.39586 0.64808 0.0
C1641 C 0.50398 0.39001 0.69514 0.0
N1642 N 0.45593 0.34714 0.60614 0.0
N1643 N 0.49821 0.36619 0.67613 0.0
H1644 H 0.48502 0.89014 0.77987 0.0
H1645 H 0.51827 0.84738 0.95336 0.0
H1646 H 0.50794 0.95414 0.85085 0.0
H1647 H 0.51009 0.77822 0.88399 0.0
H1648 H 0.51132 0.88616 0.91515 0.0
H1649 H 0.49182 0.84837 0.81647 0.0
C1650 C 0.49156 0.89546 0.80301 0.0
C1651 C 0.49575 0.92582 0.81225 0.0
C1652 C 0.51109 0.86256 0.90807 0.0
C1653 C 0.50336 0.87826 0.85406 0.0
C1654 C 0.51506 0.84022 0.93001 0.0
C1655 C 0.51505 0.8093 0.92196 0.0
C1656 C 0.50696 0.85427 0.87756 0.0
C1657 C 0.51038 0.80175 0.89123 0.0
C1658 C 0.49541 0.8716 0.82384 0.0
C1659 C 0.50426 0.93126 0.84252 0.0
N1660 N 0.50656 0.82414 0.87005 0.0
N1661 N 0.50765 0.90781 0.86221 0.0
H1662 H 0.02351 0.11656 0.27606 0.0
H1663 H 0.92984 0.17724 0.41977 0.0
H1664 H 0.96202 0.06303 0.33083 0.0
H1665 H 0.00524 0.22728 0.38203 0.0
H1666 H 0.93412 0.14033 0.37874 0.0
H1667 H 0.011 0.16142 0.30716 0.0
C1668 C 0.00719 0.1143 0.29438 0.0
C1669 C 0.99405 0.08591 0.3011 0.0
C1670 C 0.94956 0.15953 0.37905 0.0
C1671 C 0.97947 0.13699 0.33632 0.0
C1672 C 0.94698 0.1807 0.40237 0.0
C1673 C 0.96736 0.20512 0.40428 0.0
C1674 C 0.97306 0.16241 0.35763 0.0
C1675 C 0.98907 0.20873 0.38118 0.0
C1676 C 0.00013 0.13986 0.3121 0.0
C1677 C 0.97305 0.08429 0.32506 0.0
N1678 N 0.99173 0.18722 0.35894 0.0
N1679 N 0.96652 0.10938 0.34175 0.0
H1680 H 0.11269 0.98835 0.72803 0.0
H1681 H 0.15748 0.02086 0.55766 0.0
H1682 H 0.07669 0.06214 0.6744 0.0
H1683 H 0.22079 0.97365 0.61602 0.0
H1684 H 0.12712 0.03388 0.60158 0.0
H1685 H 0.15342 0.98155 0.6899 0.0
C1686 C 0.11397 0.00368 0.70879 0.0
C1687 C 0.09126 0.02562 0.70404 0.0
C1688 C 0.14773 0.02083 0.60501 0.0
C1689 C 0.13686 0.01766 0.66051 0.0
C1690 C 0.16505 0.01315 0.57978 0.0
C1691 C 0.19174 0.996 0.58305 0.0
C1692 C 0.15664 0.01095 0.63401 0.0
C1693 C 0.20034 0.9869 0.6125 0.0
C1694 C 0.137 0.99968 0.68699 0.0
C1695 C 0.09359 0.04471 0.67865 0.0
N1696 N 0.1826 0.99418 0.63694 0.0
N1697 N 0.11566 0.04003 0.6577 0.0
H1698 H 0.44926 0.00517 0.1636 0.0
H1699 H 0.27572 0.99596 0.1111 0.0
H1700 H 0.38193 0.96313 0.22132 0.0
H1701 H 0.3532 0.01249 0.05297 0.0
H1702 H 0.31068 0.99074 0.15474 0.0
H1703 H 0.41037 0.01672 0.1267 0.0
C1704 C 0.4261 0.99835 0.1685 0.0
C1705 C 0.4189 0.98261 0.19525 0.0
C1706 C 0.31978 0.99558 0.13237 0.0
C1707 C 0.37385 0.9954 0.15247 0.0
C1708 C 0.29995 0.99864 0.10754 0.0
C1709 C 0.31159 0.00449 0.0783 0.0
C1710 C 0.35122 0.99893 0.12777 0.0
C1711 C 0.3431 0.00769 0.07492 0.0
C1712 C 0.40382 0.00493 0.14733 0.0
C1713 C 0.38836 0.97503 0.20074 0.0
N1714 N 0.36165 0.0049 0.09926 0.0
N1715 N 0.36681 0.98114 0.17919 0.0
H1716 H 0.57793 0.44393 0.32002 0.0
H1717 H 0.72138 0.53358 0.38673 0.0
H1718 H 0.61386 0.52418 0.27659 0.0
H1719 H 0.66936 0.46539 0.43459 0.0
H1720 H 0.68958 0.52505 0.34148 0.0
H1721 H 0.61955 0.44524 0.35642 0.0
C1722 C 0.59502 0.46159 0.31794 0.0
C1723 C 0.5925 0.4841 0.29555 0.0
C1724 C 0.68542 0.51182 0.36184 0.0
C1725 C 0.63984 0.48634 0.3377 0.0
C1726 C 0.70355 0.5166 0.38761 0.0
C1727 C 0.69775 0.50041 0.41458 0.0
C1728 C 0.6617 0.49043 0.36307 0.0
C1729 C 0.67439 0.47871 0.41448 0.0
C1730 C 0.6187 0.46245 0.3388 0.0
C1731 C 0.6152 0.50641 0.29361 0.0
N1732 N 0.65725 0.47446 0.38924 0.0
N1733 N 0.63783 0.5073 0.31483 0.0
H1734 H 0.91237 0.56919 0.81866 0.0
H1735 H 0.77479 0.47213 0.88695 0.0
H1736 H 0.87812 0.48849 0.77486 0.0
H1737 H 0.82302 0.54357 0.93392 0.0
H1738 H 0.80416 0.4837 0.84074 0.0
H1739 H 0.87062 0.56686 0.85502 0.0
C1740 C 0.89551 0.55132 0.81639 0.0
C1741 C 0.89856 0.52894 0.79398 0.0
C1742 C 0.80797 0.49702 0.86111 0.0
C1743 C 0.8513 0.52538 0.83613 0.0
C1744 C 0.79122 0.49049 0.88742 0.0
C1745 C 0.79684 0.50661 0.91443 0.0
C1746 C 0.83012 0.52005 0.86185 0.0
C1747 C 0.8183 0.53019 0.91379 0.0
C1748 C 0.8718 0.54985 0.83724 0.0
C1749 C 0.8763 0.50621 0.79187 0.0
N1750 N 0.83421 0.53605 0.88804 0.0
N1751 N 0.85376 0.50465 0.81313 0.0
H1752 H 0.72194 0.11376 0.99293 0.0
H1753 H 0.54934 0.15604 0.02651 0.0
H1754 H 0.66588 0.07068 0.06098 0.0
H1755 H 0.60691 0.21489 0.97286 0.0
H1756 H 0.59335 0.12555 0.03959 0.0
H1757 H 0.68249 0.1531 0.98645 0.0
C1758 C 0.70175 0.11307 0.00704 0.0
C1759 C 0.69689 0.08884 0.02725 0.0
C1760 C 0.59656 0.14519 0.02507 0.0
C1761 C 0.65183 0.13303 0.01968 0.0
C1762 C 0.57129 0.16254 0.01737 0.0
C1763 C 0.57434 0.18793 0.9983 0.0
C1764 C 0.62528 0.15289 0.01337 0.0
C1765 C 0.60354 0.19542 0.98757 0.0
C1766 C 0.67918 0.13533 0.00319 0.0
C1767 C 0.67029 0.08876 0.04482 0.0
N1768 N 0.62792 0.17776 0.995 0.0
N1769 N 0.6487 0.11025 0.04038 0.0
H1770 H 0.12063 0.26003 0.97883 0.0
H1771 H 0.21027 0.40731 0.03638 0.0
H1772 H 0.09145 0.32042 0.05033 0.0
H1773 H 0.2182 0.37519 0.94415 0.0
H1774 H 0.1788 0.36327 0.04871 0.0
H1775 H 0.16697 0.29121 0.97235 0.0
C1776 C 0.12439 0.27942 0.99357 0.0
C1777 C 0.10237 0.28793 0.01505 0.0
C1778 C 0.18795 0.3654 0.02593 0.0
C1779 C 0.15487 0.323 0.00814 0.0
C1780 C 0.20607 0.39036 0.01897 0.0
C1781 C 0.21666 0.39471 0.98925 0.0
C1782 C 0.17995 0.34484 0.00288 0.0
C1783 C 0.21049 0.37236 0.96736 0.0
C1784 C 0.15062 0.29718 0.98978 0.0
C1785 C 0.10791 0.3133 0.03342 0.0
N1786 N 0.19198 0.34848 0.97448 0.0
N1787 N 0.13357 0.32993 0.02954 0.0
H1788 H 0.37939 0.72629 0.5369 0.0
H1789 H 0.29994 0.60237 0.42993 0.0
H1790 H 0.42275 0.67965 0.46223 0.0
H1791 H 0.27185 0.61657 0.52267 0.0
H1792 H 0.33599 0.64451 0.4348 0.0
H1793 H 0.33203 0.69832 0.52585 0.0
C1794 C 0.37881 0.71052 0.51798 0.0
C1795 C 0.40508 0.70493 0.50067 0.0
C1796 C 0.32135 0.63901 0.45385 0.0
C1797 C 0.35121 0.67368 0.4876 0.0
C1798 C 0.30055 0.61528 0.45092 0.0
C1799 C 0.28278 0.60644 0.47581 0.0
C1800 C 0.32464 0.65373 0.48201 0.0
C1801 C 0.28492 0.62319 0.50286 0.0
C1802 C 0.35189 0.69462 0.51174 0.0
C1803 C 0.40316 0.68431 0.47641 0.0
N1804 N 0.30586 0.64589 0.50543 0.0
N1805 N 0.37676 0.66947 0.47063 0.0
H1806 H 0.94234 0.83497 0.53859 0.0
H1807 H 0.77508 0.88372 0.49012 0.0
H1808 H 0.8899 0.78234 0.47445 0.0
H1809 H 0.82534 0.92288 0.56455 0.0
H1810 H 0.81358 0.84306 0.48644 0.0
H1811 H 0.89739 0.86483 0.55026 0.0
C1812 C 0.92129 0.82967 0.52693 0.0
C1813 C 0.92001 0.80634 0.50523 0.0
C1814 C 0.81574 0.86017 0.50401 0.0
C1815 C 0.86804 0.84073 0.51848 0.0
C1816 C 0.79366 0.88314 0.50627 0.0
C1817 C 0.79727 0.9066 0.52758 0.0
C1818 C 0.8414 0.86102 0.52316 0.0
C1819 C 0.82192 0.90524 0.54769 0.0
C1820 C 0.89548 0.84665 0.53375 0.0
C1821 C 0.89191 0.80024 0.49125 0.0
N1822 N 0.84316 0.88311 0.54476 0.0
N1823 N 0.86707 0.81762 0.49781 0.0
loop_
_geom_bond_atom_site_label_1
_geom_bond_atom_site_label_2
_geom_bond_distance
_geom_bond_site_symmetry_2
_ccdc_geom_bond_type
Sc0 O3 2.040 . S
Sc0 O10 2.111 1_554 S
Sc0 O13 2.097 1_455 S
Sc0 O16 2.071 1_455 S
Sc0 O19 2.137 . S
Sc1 O3 2.025 . S
Sc1 O11 2.105 . S
Sc1 O15 2.105 . S
Sc1 O17 2.105 . S
Sc1 O21 2.105 . S
Sc2 O3 2.025 . S
Sc2 O12 2.105 . S
Sc2 O14 2.105 1_455 S
Sc2 O18 2.103 1_455 S
Sc2 O20 2.105 1_554 S
O3 Sc0 2.040 . S
O3 Sc1 2.025 . S
O3 Sc2 2.025 . S
C4 O10 1.268 . S
C4 O20 1.268 . S
C5 O11 1.268 . S
C5 O19 1.268 . S
C6 O12 1.268 . S
C6 O21 1.268 . S
C7 O13 1.268 . S
C7 O17 1.268 1_655 S
C8 O14 1.268 . S
C8 O16 1.268 . S
C9 O15 1.268 . S
C9 O18 1.265 1_455 S
O10 Sc0 2.111 1_556 S
O10 C4 1.268 . S
O11 Sc1 2.105 . S
O11 C5 1.268 . S
O12 Sc2 2.105 . S
O12 C6 1.268 . S
O13 Sc0 2.097 1_655 S
O13 C7 1.268 . S
O14 Sc2 2.105 1_655 S
O14 C8 1.268 . S
O15 Sc1 2.105 . S
O15 C9 1.268 . S
O16 Sc0 2.071 1_655 S
O16 C8 1.268 . S
O17 Sc1 2.105 . S
O17 C7 1.268 1_455 S
O18 Sc2 2.103 1_655 S
O18 C9 1.265 1_655 S
O19 Sc0 2.137 . S
O19 C5 1.268 . S
O20 Sc2 2.105 1_556 S
O20 C4 1.268 . S
O21 Sc1 2.105 . S
O21 C6 1.268 . S
Sc22 O25 2.025 . S
Sc22 O32 2.105 . S
Sc22 O35 2.105 . S
Sc22 O38 2.105 . S
Sc22 O41 2.105 . S
Sc23 O25 2.025 . S
Sc23 O33 2.105 . S
Sc23 O37 2.105 . S
Sc23 O39 2.105 . S
Sc23 O43 2.105 . S
Sc24 O25 2.025 . S
Sc24 O34 2.105 . S
Sc24 O36 2.105 . S
Sc24 O40 2.105 . S
Sc24 O42 2.105 . S
O25 Sc22 2.025 . S
O25 Sc23 2.025 . S
O25 Sc24 2.025 . S
C26 O32 1.268 . S
C26 O42 1.268 . S
C27 O33 1.268 . S
C27 O41 1.268 . S
C28 O34 1.268 . S
C28 O43 1.268 . S
C29 O35 1.268 . S
C29 O39 1.268 . S
C30 O36 1.268 . S
C30 O38 1.268 . S
C31 O37 1.268 . S
C31 O40 1.268 . S
O32 Sc22 2.105 . S
O32 C26 1.268 . S
O33 Sc23 2.105 . S
O33 C27 1.268 . S
O34 Sc24 2.105 . S
O34 C28 1.268 . S
O35 Sc22 2.105 . S
O35 C29 1.268 . S
O36 Sc24 2.105 . S
O36 C30 1.268 . S
O37 Sc23 2.105 . S
O37 C31 1.268 . S
O38 Sc22 2.105 . S
O38 C30 1.268 . S
O39 Sc23 2.105 . S
O39 C29 1.268 . S
O40 Sc24 2.105 . S
O40 C31 1.268 . S
O41 Sc22 2.105 . S
O41 C27 1.268 . S
O42 Sc24 2.105 . S
O42 C26 1.268 . S
O43 Sc23 2.105 . S
O43 C28 1.268 . S
Sc44 O47 2.025 . S
Sc44 O54 2.105 . S
Sc44 O57 2.105 . S
Sc44 O60 2.105 1_556 S
Sc44 O63 2.105 . S
Sc45 O47 2.025 . S
Sc45 O55 2.105 . S
Sc45 O59 2.105 . S
Sc45 O61 2.105 . S
Sc45 O65 2.105 . S
Sc46 O47 2.025 . S
Sc46 O56 2.105 . S
Sc46 O58 2.105 1_556 S
Sc46 O62 2.105 . S
Sc46 O64 2.105 . S
O47 Sc44 2.025 . S
O47 Sc45 2.025 . S
O47 Sc46 2.025 . S
C48 O54 1.268 . S
C48 O64 1.268 . S
C49 O55 1.268 . S
C49 O63 1.268 . S
C50 O56 1.268 . S
C50 O65 1.268 . S
C51 O57 1.268 . S
C51 O61 1.268 . S
C52 O58 1.268 . S
C52 O60 1.268 . S
C53 O59 1.268 . S
C53 O62 1.268 . S
O54 Sc44 2.105 . S
O54 C48 1.268 . S
O55 Sc45 2.105 . S
O55 C49 1.268 . S
O56 Sc46 2.105 . S
O56 C50 1.268 . S
O57 Sc44 2.105 . S
O57 C51 1.268 . S
O58 Sc46 2.105 1_554 S
O58 C52 1.268 . S
O59 Sc45 2.105 . S
O59 C53 1.268 . S
O60 Sc44 2.105 1_554 S
O60 C52 1.268 . S
O61 Sc45 2.105 . S
O61 C51 1.268 . S
O62 Sc46 2.105 . S
O62 C53 1.268 . S
O63 Sc44 2.105 . S
O63 C49 1.268 . S
O64 Sc46 2.105 . S
O64 C48 1.268 . S
O65 Sc45 2.105 . S
O65 C50 1.268 . S
Sc66 O69 2.025 . S
Sc66 O76 2.105 1_655 S
Sc66 O79 2.105 . S
Sc66 O82 2.105 . S
Sc66 O85 2.103 1_655 S
Sc67 O69 2.025 . S
Sc67 O77 2.105 . S
Sc67 O81 2.105 . S
Sc67 O83 2.105 . S
Sc67 O87 2.105 . S
Sc68 O69 2.040 . S
Sc68 O78 2.097 1_655 S
Sc68 O80 2.111 . S
Sc68 O84 2.137 . S
Sc68 O86 2.071 1_655 S
O69 Sc66 2.025 . S
O69 Sc67 2.025 . S
O69 Sc68 2.040 . S
C70 O76 1.268 . S
C70 O86 1.268 . S
C71 O77 1.268 . S
C71 O85 1.265 1_655 S
C72 O78 1.268 . S
C72 O87 1.268 1_455 S
C73 O79 1.268 . S
C73 O83 1.268 . S
C74 O80 1.268 . S
C74 O82 1.268 . S
C75 O81 1.268 . S
C75 O84 1.268 . S
O76 Sc66 2.105 1_455 S
O76 C70 1.268 . S
O77 Sc67 2.105 . S
O77 C71 1.268 . S
O78 Sc68 2.097 1_455 S
O78 C72 1.268 . S
O79 Sc66 2.105 . S
O79 C73 1.268 . S
O80 Sc68 2.111 . S
O80 C74 1.268 . S
O81 Sc67 2.105 . S
O81 C75 1.268 . S
O82 Sc66 2.105 . S
O82 C74 1.268 . S
O83 Sc67 2.105 . S
O83 C73 1.268 . S
O84 Sc68 2.137 . S
O84 C75 1.268 . S
O85 Sc66 2.103 1_455 S
O85 C71 1.265 1_455 S
O86 Sc68 2.071 1_455 S
O86 C70 1.268 . S
O87 Sc67 2.105 . S
O87 C72 1.268 1_655 S
Sc88 O91 2.040 . S
Sc88 O98 2.111 1_455 S
Sc88 O101 2.097 1_545 S
Sc88 O104 2.071 1_545 S
Sc88 O107 2.137 . S
Sc89 O91 2.025 . S
Sc89 O99 2.105 . S
Sc89 O103 2.105 . S
Sc89 O105 2.105 . S
Sc89 O109 2.105 . S
Sc90 O91 2.025 . S
Sc90 O100 2.105 . S
Sc90 O102 2.105 1_545 S
Sc90 O106 2.103 1_545 S
Sc90 O108 2.105 1_455 S
O91 Sc88 2.040 . S
O91 Sc89 2.025 . S
O91 Sc90 2.025 . S
C92 O98 1.268 . S
C92 O108 1.268 . S
C93 O99 1.268 . S
C93 O107 1.268 . S
C94 O100 1.268 . S
C94 O109 1.268 . S
C95 O101 1.268 . S
C95 O105 1.268 1_565 S
C96 O102 1.268 . S
C96 O104 1.268 . S
C97 O103 1.268 . S
C97 O106 1.265 1_545 S
O98 Sc88 2.111 1_655 S
O98 C92 1.268 . S
O99 Sc89 2.105 . S
O99 C93 1.268 . S
O100 Sc90 2.105 . S
O100 C94 1.268 . S
O101 Sc88 2.097 1_565 S
O101 C95 1.268 . S
O102 Sc90 2.105 1_565 S
O102 C96 1.268 . S
O103 Sc89 2.105 . S
O103 C97 1.268 . S
O104 Sc88 2.071 1_565 S
O104 C96 1.268 . S
O105 Sc89 2.105 . S
O105 C95 1.268 1_545 S
O106 Sc90 2.103 1_565 S
O106 C97 1.265 1_565 S
O107 Sc88 2.137 . S
O107 C93 1.268 . S
O108 Sc90 2.105 1_655 S
O108 C92 1.268 . S
O109 Sc89 2.105 . S
O109 C94 1.268 . S
Sc110 O113 2.040 . S
Sc110 O120 2.111 . S
Sc110 O123 2.097 1_565 S
Sc110 O126 2.071 1_565 S
Sc110 O129 2.137 . S
Sc111 O113 2.025 . S
Sc111 O121 2.105 . S
Sc111 O125 2.105 . S
Sc111 O127 2.105 . S
Sc111 O131 2.105 . S
Sc112 O113 2.025 . S
Sc112 O122 2.105 . S
Sc112 O124 2.105 1_565 S
Sc112 O128 2.103 1_565 S
Sc112 O130 2.105 . S
O113 Sc110 2.040 . S
O113 Sc111 2.025 . S
O113 Sc112 2.025 . S
C114 O120 1.268 . S
C114 O130 1.268 . S
C115 O121 1.268 . S
C115 O129 1.268 . S
C116 O122 1.268 . S
C116 O131 1.268 . S
C117 O123 1.268 . S
C117 O127 1.268 1_545 S
C118 O124 1.268 . S
C118 O126 1.268 . S
C119 O125 1.268 . S
C119 O128 1.265 1_565 S
O120 Sc110 2.111 . S
O120 C114 1.268 . S
O121 Sc111 2.105 . S
O121 C115 1.268 . S
O122 Sc112 2.105 . S
O122 C116 1.268 . S
O123 Sc110 2.097 1_545 S
O123 C117 1.268 . S
O124 Sc112 2.105 1_545 S
O124 C118 1.268 . S
O125 Sc111 2.105 . S
O125 C119 1.268 . S
O126 Sc110 2.071 1_545 S
O126 C118 1.268 . S
O127 Sc111 2.105 . S
O127 C117 1.268 1_565 S
O128 Sc112 2.103 1_545 S
O128 C119 1.265 1_545 S
O129 Sc110 2.137 . S
O129 C115 1.268 . S
O130 Sc112 2.105 . S
O130 C114 1.268 . S
O131 Sc111 2.105 . S
O131 C116 1.268 . S
Sc132 O135 2.025 . S
Sc132 O142 2.105 . S
Sc132 O145 2.105 . S
Sc132 O148 2.105 . S
Sc132 O151 2.105 . S
Sc133 O135 2.025 . S
Sc133 O143 2.105 . S
Sc133 O147 2.105 . S
Sc133 O149 2.105 . S
Sc133 O153 2.105 . S
Sc134 O135 2.025 . S
Sc134 O144 2.105 . S
Sc134 O146 2.105 . S
Sc134 O150 2.105 . S
Sc134 O152 2.105 . S
O135 Sc132 2.025 . S
O135 Sc133 2.025 . S
O135 Sc134 2.025 . S
C136 O142 1.268 . S
C136 O152 1.268 . S
C137 O143 1.268 . S
C137 O151 1.268 . S
C138 O144 1.268 . S
C138 O153 1.268 . S
C139 O145 1.268 . S
C139 O149 1.268 . S
C140 O146 1.268 . S
C140 O148 1.268 . S
C141 O147 1.268 . S
C141 O150 1.268 . S
O142 Sc132 2.105 . S
O142 C136 1.268 . S
O143 Sc133 2.105 . S
O143 C137 1.268 . S
O144 Sc134 2.105 . S
O144 C138 1.268 . S
O145 Sc132 2.105 . S
O145 C139 1.268 . S
O146 Sc134 2.105 . S
O146 C140 1.268 . S
O147 Sc133 2.105 . S
O147 C141 1.268 . S
O148 Sc132 2.105 . S
O148 C140 1.268 . S
O149 Sc133 2.105 . S
O149 C139 1.268 . S
O150 Sc134 2.105 . S
O150 C141 1.268 . S
O151 Sc132 2.105 . S
O151 C137 1.268 . S
O152 Sc134 2.105 . S
O152 C136 1.268 . S
O153 Sc133 2.105 . S
O153 C138 1.268 . S
Sc154 O157 2.025 . S
Sc154 O164 2.105 . S
Sc154 O167 2.105 . S
Sc154 O170 2.105 1_655 S
Sc154 O173 2.105 . S
Sc155 O157 2.025 . S
Sc155 O165 2.105 . S
Sc155 O169 2.105 . S
Sc155 O171 2.105 . S
Sc155 O175 2.105 . S
Sc156 O157 2.025 . S
Sc156 O166 2.105 . S
Sc156 O168 2.105 1_655 S
Sc156 O172 2.105 . S
Sc156 O174 2.105 . S
O157 Sc154 2.025 . S
O157 Sc155 2.025 . S
O157 Sc156 2.025 . S
C158 O164 1.268 . S
C158 O174 1.268 . S
C159 O165 1.268 . S
C159 O173 1.268 . S
C160 O166 1.268 . S
C160 O175 1.268 . S
C161 O167 1.268 . S
C161 O171 1.268 . S
C162 O168 1.268 . S
C162 O170 1.268 . S
C163 O169 1.268 . S
C163 O172 1.268 . S
O164 Sc154 2.105 . S
O164 C158 1.268 . S
O165 Sc155 2.105 . S
O165 C159 1.268 . S
O166 Sc156 2.105 . S
O166 C160 1.268 . S
O167 Sc154 2.105 . S
O167 C161 1.268 . S
O168 Sc156 2.105 1_455 S
O168 C162 1.268 . S
O169 Sc155 2.105 . S
O169 C163 1.268 . S
O170 Sc154 2.105 1_455 S
O170 C162 1.268 . S
O171 Sc155 2.105 . S
O171 C161 1.268 . S
O172 Sc156 2.105 . S
O172 C163 1.268 . S
O173 Sc154 2.105 . S
O173 C159 1.268 . S
O174 Sc156 2.105 . S
O174 C158 1.268 . S
O175 Sc155 2.105 . S
O175 C160 1.268 . S
Sc176 O179 2.040 . S
Sc176 O186 2.111 1_545 S
Sc176 O189 2.097 1_554 S
Sc176 O192 2.071 1_554 S
Sc176 O195 2.137 . S
Sc177 O179 2.025 . S
Sc177 O187 2.105 . S
Sc177 O191 2.105 . S
Sc177 O193 2.105 . S
Sc177 O197 2.105 . S
Sc178 O179 2.025 . S
Sc178 O188 2.105 . S
Sc178 O190 2.105 1_554 S
Sc178 O194 2.103 1_554 S
Sc178 O196 2.105 1_545 S
O179 Sc176 2.040 . S
O179 Sc177 2.025 . S
O179 Sc178 2.025 . S
C180 O186 1.268 . S
C180 O196 1.268 . S
C181 O187 1.268 . S
C181 O195 1.268 . S
C182 O188 1.268 . S
C182 O197 1.268 . S
C183 O189 1.268 . S
C183 O193 1.268 1_556 S
C184 O190 1.268 . S
C184 O192 1.268 . S
C185 O191 1.268 . S
C185 O194 1.265 1_554 S
O186 Sc176 2.111 1_565 S
O186 C180 1.268 . S
O187 Sc177 2.105 . S
O187 C181 1.268 . S
O188 Sc178 2.105 . S
O188 C182 1.268 . S
O189 Sc176 2.097 1_556 S
O189 C183 1.268 . S
O190 Sc178 2.105 1_556 S
O190 C184 1.268 . S
O191 Sc177 2.105 . S
O191 C185 1.268 . S
O192 Sc176 2.071 1_556 S
O192 C184 1.268 . S
O193 Sc177 2.105 . S
O193 C183 1.268 1_554 S
O194 Sc178 2.103 1_556 S
O194 C185 1.265 1_556 S
O195 Sc176 2.137 . S
O195 C181 1.268 . S
O196 Sc178 2.105 1_565 S
O196 C180 1.268 . S
O197 Sc177 2.105 . S
O197 C182 1.268 . S
Sc198 O201 2.040 . S
Sc198 O208 2.111 . S
Sc198 O211 2.097 1_556 S
Sc198 O214 2.071 1_556 S
Sc198 O217 2.137 . S
Sc199 O201 2.025 . S
Sc199 O209 2.105 . S
Sc199 O213 2.105 . S
Sc199 O215 2.105 . S
Sc199 O219 2.105 . S
Sc200 O201 2.025 . S
Sc200 O210 2.105 . S
Sc200 O212 2.105 1_556 S
Sc200 O216 2.103 1_556 S
Sc200 O218 2.105 . S
O201 Sc198 2.040 . S
O201 Sc199 2.025 . S
O201 Sc200 2.025 . S
C202 O208 1.268 . S
C202 O218 1.268 . S
C203 O209 1.268 . S
C203 O217 1.268 . S
C204 O210 1.268 . S
C204 O219 1.268 . S
C205 O211 1.268 . S
C205 O215 1.268 1_554 S
C206 O212 1.268 . S
C206 O214 1.268 . S
C207 O213 1.268 . S
C207 O216 1.265 1_556 S
O208 Sc198 2.111 . S
O208 C202 1.268 . S
O209 Sc199 2.105 . S
O209 C203 1.268 . S
O210 Sc200 2.105 . S
O210 C204 1.268 . S
O211 Sc198 2.097 1_554 S
O211 C205 1.268 . S
O212 Sc200 2.105 1_554 S
O212 C206 1.268 . S
O213 Sc199 2.105 . S
O213 C207 1.268 . S
O214 Sc198 2.071 1_554 S
O214 C206 1.268 . S
O215 Sc199 2.105 . S
O215 C205 1.268 1_556 S
O216 Sc200 2.103 1_554 S
O216 C207 1.265 1_554 S
O217 Sc198 2.137 . S
O217 C203 1.268 . S
O218 Sc200 2.105 . S
O218 C202 1.268 . S
O219 Sc199 2.105 . S
O219 C204 1.268 . S
Sc220 O223 2.025 . S
Sc220 O230 2.105 . S
Sc220 O233 2.105 . S
Sc220 O236 2.105 . S
Sc220 O239 2.105 . S
Sc221 O223 2.025 . S
Sc221 O231 2.105 . S
Sc221 O235 2.105 . S
Sc221 O237 2.105 . S
Sc221 O241 2.105 . S
Sc222 O223 2.025 . S
Sc222 O232 2.105 . S
Sc222 O234 2.105 . S
Sc222 O238 2.105 . S
Sc222 O240 2.105 . S
O223 Sc220 2.025 . S
O223 Sc221 2.025 . S
O223 Sc222 2.025 . S
C224 O230 1.268 . S
C224 O240 1.268 . S
C225 O231 1.268 . S
C225 O239 1.268 . S
C226 O232 1.268 . S
C226 O241 1.268 . S
C227 O233 1.268 . S
C227 O237 1.268 . S
C228 O234 1.268 . S
C228 O236 1.268 . S
C229 O235 1.268 . S
C229 O238 1.268 . S
O230 Sc220 2.105 . S
O230 C224 1.268 . S
O231 Sc221 2.105 . S
O231 C225 1.268 . S
O232 Sc222 2.105 . S
O232 C226 1.268 . S
O233 Sc220 2.105 . S
O233 C227 1.268 . S
O234 Sc222 2.105 . S
O234 C228 1.268 . S
O235 Sc221 2.105 . S
O235 C229 1.268 . S
O236 Sc220 2.105 . S
O236 C228 1.268 . S
O237 Sc221 2.105 . S
O237 C227 1.268 . S
O238 Sc222 2.105 . S
O238 C229 1.268 . S
O239 Sc220 2.105 . S
O239 C225 1.268 . S
O240 Sc222 2.105 . S
O240 C224 1.268 . S
O241 Sc221 2.105 . S
O241 C226 1.268 . S
Sc242 O245 2.025 . S
Sc242 O252 2.105 . S
Sc242 O255 2.105 . S
Sc242 O258 2.105 1_565 S
Sc242 O261 2.105 . S
Sc243 O245 2.025 . S
Sc243 O253 2.105 . S
Sc243 O257 2.105 . S
Sc243 O259 2.105 . S
Sc243 O263 2.105 . S
Sc244 O245 2.025 . S
Sc244 O254 2.105 . S
Sc244 O256 2.105 1_565 S
Sc244 O260 2.105 . S
Sc244 O262 2.105 . S
O245 Sc242 2.025 . S
O245 Sc243 2.025 . S
O245 Sc244 2.025 . S
C246 O252 1.268 . S
C246 O262 1.268 . S
C247 O253 1.268 . S
C247 O261 1.268 . S
C248 O254 1.268 . S
C248 O263 1.268 . S
C249 O255 1.268 . S
C249 O259 1.268 . S
C250 O256 1.268 . S
C250 O258 1.268 . S
C251 O257 1.268 . S
C251 O260 1.268 . S
O252 Sc242 2.105 . S
O252 C246 1.268 . S
O253 Sc243 2.105 . S
O253 C247 1.268 . S
O254 Sc244 2.105 . S
O254 C248 1.268 . S
O255 Sc242 2.105 . S
O255 C249 1.268 . S
O256 Sc244 2.105 1_545 S
O256 C250 1.268 . S
O257 Sc243 2.105 . S
O257 C251 1.268 . S
O258 Sc242 2.105 1_545 S
O258 C250 1.268 . S
O259 Sc243 2.105 . S
O259 C249 1.268 . S
O260 Sc244 2.105 . S
O260 C251 1.268 . S
O261 Sc242 2.105 . S
O261 C247 1.268 . S
O262 Sc244 2.105 . S
O262 C246 1.268 . S
O263 Sc243 2.105 . S
O263 C248 1.268 . S
Sc264 O267 2.040 . S
Sc264 O274 2.071 1_655 S
Sc264 O277 2.137 . S
Sc264 O280 2.111 1_556 S
Sc264 O283 2.097 1_655 S
Sc265 O267 2.025 . S
Sc265 O275 2.105 . S
Sc265 O279 2.105 . S
Sc265 O281 2.105 . S
Sc265 O285 2.105 . S
Sc266 O267 2.025 . S
Sc266 O276 2.103 1_655 S
Sc266 O278 2.105 1_556 S
Sc266 O282 2.105 . S
Sc266 O284 2.105 1_655 S
O267 Sc264 2.040 . S
O267 Sc265 2.025 . S
O267 Sc266 2.025 . S
C268 O274 1.268 . S
C268 O284 1.268 . S
C269 O275 1.268 1_455 S
C269 O283 1.268 . S
C270 O276 1.265 1_655 S
C270 O285 1.268 . S
C271 O277 1.268 . S
C271 O281 1.268 . S
C272 O278 1.268 . S
C272 O280 1.268 . S
C273 O279 1.268 . S
C273 O282 1.268 . S
O274 Sc264 2.071 1_455 S
O274 C268 1.268 . S
O275 Sc265 2.105 . S
O275 C269 1.268 1_655 S
O276 Sc266 2.103 1_455 S
O276 C270 1.265 1_455 S
O277 Sc264 2.137 . S
O277 C271 1.268 . S
O278 Sc266 2.105 1_554 S
O278 C272 1.268 . S
O279 Sc265 2.105 . S
O279 C273 1.268 . S
O280 Sc264 2.111 1_554 S
O280 C272 1.268 . S
O281 Sc265 2.105 . S
O281 C271 1.268 . S
O282 Sc266 2.105 . S
O282 C273 1.268 . S
O283 Sc264 2.097 1_455 S
O283 C269 1.268 . S
O284 Sc266 2.105 1_455 S
O284 C268 1.268 . S
O285 Sc265 2.105 . S
O285 C270 1.268 . S
Sc286 O289 2.025 . S
Sc286 O296 2.105 . S
Sc286 O299 2.105 . S
Sc286 O302 2.105 . S
Sc286 O305 2.105 . S
Sc287 O289 2.025 . S
Sc287 O297 2.105 . S
Sc287 O301 2.105 . S
Sc287 O303 2.105 . S
Sc287 O307 2.105 . S
Sc288 O289 2.025 . S
Sc288 O298 2.105 . S
Sc288 O300 2.105 . S
Sc288 O304 2.105 . S
Sc288 O306 2.105 . S
O289 Sc286 2.025 . S
O289 Sc287 2.025 . S
O289 Sc288 2.025 . S
C290 O296 1.268 . S
C290 O306 1.268 . S
C291 O297 1.268 . S
C291 O305 1.268 . S
C292 O298 1.268 . S
C292 O307 1.268 . S
C293 O299 1.268 . S
C293 O303 1.268 . S
C294 O300 1.268 . S
C294 O302 1.268 . S
C295 O301 1.268 . S
C295 O304 1.268 . S
O296 Sc286 2.105 . S
O296 C290 1.268 . S
O297 Sc287 2.105 . S
O297 C291 1.268 . S
O298 Sc288 2.105 . S
O298 C292 1.268 . S
O299 Sc286 2.105 . S
O299 C293 1.268 . S
O300 Sc288 2.105 . S
O300 C294 1.268 . S
O301 Sc287 2.105 . S
O301 C295 1.268 . S
O302 Sc286 2.105 . S
O302 C294 1.268 . S
O303 Sc287 2.105 . S
O303 C293 1.268 . S
O304 Sc288 2.105 . S
O304 C295 1.268 . S
O305 Sc286 2.105 . S
O305 C291 1.268 . S
O306 Sc288 2.105 . S
O306 C290 1.268 . S
O307 Sc287 2.105 . S
O307 C292 1.268 . S
Sc308 O311 2.025 . S
Sc308 O318 2.105 1_554 S
Sc308 O321 2.105 . S
Sc308 O324 2.105 . S
Sc308 O327 2.105 . S
Sc309 O311 2.025 . S
Sc309 O319 2.105 . S
Sc309 O323 2.105 . S
Sc309 O325 2.105 . S
Sc309 O329 2.105 . S
Sc310 O311 2.025 . S
Sc310 O320 2.105 . S
Sc310 O322 2.105 . S
Sc310 O326 2.105 . S
Sc310 O328 2.105 1_554 S
O311 Sc308 2.025 . S
O311 Sc309 2.025 . S
O311 Sc310 2.025 . S
C312 O318 1.268 . S
C312 O328 1.268 . S
C313 O319 1.268 . S
C313 O327 1.268 . S
C314 O320 1.268 . S
C314 O329 1.268 . S
C315 O321 1.268 . S
C315 O325 1.268 . S
C316 O322 1.268 . S
C316 O324 1.268 . S
C317 O323 1.268 . S
C317 O326 1.268 . S
O318 Sc308 2.105 1_556 S
O318 C312 1.268 . S
O319 Sc309 2.105 . S
O319 C313 1.268 . S
O320 Sc310 2.105 . S
O320 C314 1.268 . S
O321 Sc308 2.105 . S
O321 C315 1.268 . S
O322 Sc310 2.105 . S
O322 C316 1.268 . S
O323 Sc309 2.105 . S
O323 C317 1.268 . S
O324 Sc308 2.105 . S
O324 C316 1.268 . S
O325 Sc309 2.105 . S
O325 C315 1.268 . S
O326 Sc310 2.105 . S
O326 C317 1.268 . S
O327 Sc308 2.105 . S
O327 C313 1.268 . S
O328 Sc310 2.105 1_556 S
O328 C312 1.268 . S
O329 Sc309 2.105 . S
O329 C314 1.268 . S
Sc330 O333 2.025 . S
Sc330 O340 2.105 . S
Sc330 O343 2.103 1_455 S
Sc330 O346 2.105 1_455 S
Sc330 O349 2.105 . S
Sc331 O333 2.025 . S
Sc331 O341 2.105 . S
Sc331 O345 2.105 . S
Sc331 O347 2.105 . S
Sc331 O351 2.105 . S
Sc332 O333 2.040 . S
Sc332 O342 2.137 . S
Sc332 O344 2.071 1_455 S
Sc332 O348 2.097 1_455 S
Sc332 O350 2.111 . S
O333 Sc330 2.025 . S
O333 Sc331 2.025 . S
O333 Sc332 2.040 . S
C334 O340 1.268 . S
C334 O350 1.268 . S
C335 O341 1.268 . S
C335 O349 1.268 . S
C336 O342 1.268 . S
C336 O351 1.268 . S
C337 O343 1.265 1_455 S
C337 O347 1.268 . S
C338 O344 1.268 . S
C338 O346 1.268 . S
C339 O345 1.268 1_655 S
C339 O348 1.268 . S
O340 Sc330 2.105 . S
O340 C334 1.268 . S
O341 Sc331 2.105 . S
O341 C335 1.268 . S
O342 Sc332 2.137 . S
O342 C336 1.268 . S
O343 Sc330 2.103 1_655 S
O343 C337 1.265 1_655 S
O344 Sc332 2.071 1_655 S
O344 C338 1.268 . S
O345 Sc331 2.105 . S
O345 C339 1.268 1_455 S
O346 Sc330 2.105 1_655 S
O346 C338 1.268 . S
O347 Sc331 2.105 . S
O347 C337 1.268 . S
O348 Sc332 2.097 1_655 S
O348 C339 1.268 . S
O349 Sc330 2.105 . S
O349 C335 1.268 . S
O350 Sc332 2.111 . S
O350 C334 1.268 . S
O351 Sc331 2.105 . S
O351 C336 1.268 . S
Sc352 O355 2.025 . S
Sc352 O362 2.105 1_655 S
Sc352 O365 2.103 1_565 S
Sc352 O368 2.105 1_565 S
Sc352 O371 2.105 . S
Sc353 O355 2.025 . S
Sc353 O363 2.105 . S
Sc353 O367 2.105 . S
Sc353 O369 2.105 . S
Sc353 O373 2.105 . S
Sc354 O355 2.040 . S
Sc354 O364 2.137 . S
Sc354 O366 2.071 1_565 S
Sc354 O370 2.097 1_565 S
Sc354 O372 2.111 1_655 S
O355 Sc352 2.025 . S
O355 Sc353 2.025 . S
O355 Sc354 2.040 . S
C356 O362 1.268 . S
C356 O372 1.268 . S
C357 O363 1.268 . S
C357 O371 1.268 . S
C358 O364 1.268 . S
C358 O373 1.268 . S
C359 O365 1.265 1_565 S
C359 O369 1.268 . S
C360 O366 1.268 . S
C360 O368 1.268 . S
C361 O367 1.268 1_545 S
C361 O370 1.268 . S
O362 Sc352 2.105 1_455 S
O362 C356 1.268 . S
O363 Sc353 2.105 . S
O363 C357 1.268 . S
O364 Sc354 2.137 . S
O364 C358 1.268 . S
O365 Sc352 2.103 1_545 S
O365 C359 1.265 1_545 S
O366 Sc354 2.071 1_545 S
O366 C360 1.268 . S
O367 Sc353 2.105 . S
O367 C361 1.268 1_565 S
O368 Sc352 2.105 1_545 S
O368 C360 1.268 . S
O369 Sc353 2.105 . S
O369 C359 1.268 . S
O370 Sc354 2.097 1_545 S
O370 C361 1.268 . S
O371 Sc352 2.105 . S
O371 C357 1.268 . S
O372 Sc354 2.111 1_455 S
O372 C356 1.268 . S
O373 Sc353 2.105 . S
O373 C358 1.268 . S
Sc374 O377 2.025 . S
Sc374 O384 2.105 . S
Sc374 O387 2.103 1_545 S
Sc374 O390 2.105 1_545 S
Sc374 O393 2.105 . S
Sc375 O377 2.025 . S
Sc375 O385 2.105 . S
Sc375 O389 2.105 . S
Sc375 O391 2.105 . S
Sc375 O395 2.105 . S
Sc376 O377 2.040 . S
Sc376 O386 2.137 . S
Sc376 O388 2.071 1_545 S
Sc376 O392 2.097 1_545 S
Sc376 O394 2.111 . S
O377 Sc374 2.025 . S
O377 Sc375 2.025 . S
O377 Sc376 2.040 . S
C378 O384 1.268 . S
C378 O394 1.268 . S
C379 O385 1.268 . S
C379 O393 1.268 . S
C380 O386 1.268 . S
C380 O395 1.268 . S
C381 O387 1.265 1_545 S
C381 O391 1.268 . S
C382 O388 1.268 . S
C382 O390 1.268 . S
C383 O389 1.268 1_565 S
C383 O392 1.268 . S
O384 Sc374 2.105 . S
O384 C378 1.268 . S
O385 Sc375 2.105 . S
O385 C379 1.268 . S
O386 Sc376 2.137 . S
O386 C380 1.268 . S
O387 Sc374 2.103 1_565 S
O387 C381 1.265 1_565 S
O388 Sc376 2.071 1_565 S
O388 C382 1.268 . S
O389 Sc375 2.105 . S
O389 C383 1.268 1_545 S
O390 Sc374 2.105 1_565 S
O390 C382 1.268 . S
O391 Sc375 2.105 . S
O391 C381 1.268 . S
O392 Sc376 2.097 1_565 S
O392 C383 1.268 . S
O393 Sc374 2.105 . S
O393 C379 1.268 . S
O394 Sc376 2.111 . S
O394 C378 1.268 . S
O395 Sc375 2.105 . S
O395 C380 1.268 . S
Sc396 O399 2.025 . S
Sc396 O406 2.105 . S
Sc396 O409 2.105 . S
Sc396 O412 2.105 . S
Sc396 O415 2.105 . S
Sc397 O399 2.025 . S
Sc397 O407 2.105 . S
Sc397 O411 2.105 . S
Sc397 O413 2.105 . S
Sc397 O417 2.105 . S
Sc398 O399 2.025 . S
Sc398 O408 2.105 . S
Sc398 O410 2.105 . S
Sc398 O414 2.105 . S
Sc398 O416 2.105 . S
O399 Sc396 2.025 . S
O399 Sc397 2.025 . S
O399 Sc398 2.025 . S
C400 O406 1.268 . S
C400 O416 1.268 . S
C401 O407 1.268 . S
C401 O415 1.268 . S
C402 O408 1.268 . S
C402 O417 1.268 . S
C403 O409 1.268 . S
C403 O413 1.268 . S
C404 O410 1.268 . S
C404 O412 1.268 . S
C405 O411 1.268 . S
C405 O414 1.268 . S
O406 Sc396 2.105 . S
O406 C400 1.268 . S
O407 Sc397 2.105 . S
O407 C401 1.268 . S
O408 Sc398 2.105 . S
O408 C402 1.268 . S
O409 Sc396 2.105 . S
O409 C403 1.268 . S
O410 Sc398 2.105 . S
O410 C404 1.268 . S
O411 Sc397 2.105 . S
O411 C405 1.268 . S
O412 Sc396 2.105 . S
O412 C404 1.268 . S
O413 Sc397 2.105 . S
O413 C403 1.268 . S
O414 Sc398 2.105 . S
O414 C405 1.268 . S
O415 Sc396 2.105 . S
O415 C401 1.268 . S
O416 Sc398 2.105 . S
O416 C400 1.268 . S
O417 Sc397 2.105 . S
O417 C402 1.268 . S
Sc418 O421 2.025 . S
Sc418 O428 2.105 . S
Sc418 O431 2.105 . S
Sc418 O434 2.105 1_455 S
Sc418 O437 2.105 . S
Sc419 O421 2.025 . S
Sc419 O429 2.105 . S
Sc419 O433 2.105 . S
Sc419 O435 2.105 . S
Sc419 O439 2.105 . S
Sc420 O421 2.025 . S
Sc420 O430 2.105 . S
Sc420 O432 2.105 1_455 S
Sc420 O436 2.105 . S
Sc420 O438 2.105 . S
O421 Sc418 2.025 . S
O421 Sc419 2.025 . S
O421 Sc420 2.025 . S
C422 O428 1.268 . S
C422 O438 1.268 . S
C423 O429 1.268 . S
C423 O437 1.268 . S
C424 O430 1.268 . S
C424 O439 1.268 . S
C425 O431 1.268 . S
C425 O435 1.268 . S
C426 O432 1.268 . S
C426 O434 1.268 . S
C427 O433 1.268 . S
C427 O436 1.268 . S
O428 Sc418 2.105 . S
O428 C422 1.268 . S
O429 Sc419 2.105 . S
O429 C423 1.268 . S
O430 Sc420 2.105 . S
O430 C424 1.268 . S
O431 Sc418 2.105 . S
O431 C425 1.268 . S
O432 Sc420 2.105 1_655 S
O432 C426 1.268 . S
O433 Sc419 2.105 . S
O433 C427 1.268 . S
O434 Sc418 2.105 1_655 S
O434 C426 1.268 . S
O435 Sc419 2.105 . S
O435 C425 1.268 . S
O436 Sc420 2.105 . S
O436 C427 1.268 . S
O437 Sc418 2.105 . S
O437 C423 1.268 . S
O438 Sc420 2.105 . S
O438 C422 1.268 . S
O439 Sc419 2.105 . S
O439 C424 1.268 . S
Sc440 O443 2.025 . S
Sc440 O450 2.105 1_565 S
Sc440 O453 2.103 1_556 S
Sc440 O456 2.105 1_556 S
Sc440 O459 2.105 . S
Sc441 O443 2.025 . S
Sc441 O451 2.105 . S
Sc441 O455 2.105 . S
Sc441 O457 2.105 . S
Sc441 O461 2.105 . S
Sc442 O443 2.040 . S
Sc442 O452 2.137 . S
Sc442 O454 2.071 1_556 S
Sc442 O458 2.097 1_556 S
Sc442 O460 2.111 1_565 S
O443 Sc440 2.025 . S
O443 Sc441 2.025 . S
O443 Sc442 2.040 . S
C444 O450 1.268 . S
C444 O460 1.268 . S
C445 O451 1.268 . S
C445 O459 1.268 . S
C446 O452 1.268 . S
C446 O461 1.268 . S
C447 O453 1.265 1_556 S
C447 O457 1.268 . S
C448 O454 1.268 . S
C448 O456 1.268 . S
C449 O455 1.268 1_554 S
C449 O458 1.268 . S
O450 Sc440 2.105 1_545 S
O450 C444 1.268 . S
O451 Sc441 2.105 . S
O451 C445 1.268 . S
O452 Sc442 2.137 . S
O452 C446 1.268 . S
O453 Sc440 2.103 1_554 S
O453 C447 1.265 1_554 S
O454 Sc442 2.071 1_554 S
O454 C448 1.268 . S
O455 Sc441 2.105 . S
O455 C449 1.268 1_556 S
O456 Sc440 2.105 1_554 S
O456 C448 1.268 . S
O457 Sc441 2.105 . S
O457 C447 1.268 . S
O458 Sc442 2.097 1_554 S
O458 C449 1.268 . S
O459 Sc440 2.105 . S
O459 C445 1.268 . S
O460 Sc442 2.111 1_545 S
O460 C444 1.268 . S
O461 Sc441 2.105 . S
O461 C446 1.268 . S
Sc462 O465 2.025 . S
Sc462 O472 2.105 . S
Sc462 O475 2.103 1_554 S
Sc462 O478 2.105 1_554 S
Sc462 O481 2.105 . S
Sc463 O465 2.025 . S
Sc463 O473 2.105 . S
Sc463 O477 2.105 . S
Sc463 O479 2.105 . S
Sc463 O483 2.105 . S
Sc464 O465 2.040 . S
Sc464 O474 2.137 . S
Sc464 O476 2.071 1_554 S
Sc464 O480 2.097 1_554 S
Sc464 O482 2.111 . S
O465 Sc462 2.025 . S
O465 Sc463 2.025 . S
O465 Sc464 2.040 . S
C466 O472 1.268 . S
C466 O482 1.268 . S
C467 O473 1.268 . S
C467 O481 1.268 . S
C468 O474 1.268 . S
C468 O483 1.268 . S
C469 O475 1.265 1_554 S
C469 O479 1.268 . S
C470 O476 1.268 . S
C470 O478 1.268 . S
C471 O477 1.268 1_556 S
C471 O480 1.268 . S
O472 Sc462 2.105 . S
O472 C466 1.268 . S
O473 Sc463 2.105 . S
O473 C467 1.268 . S
O474 Sc464 2.137 . S
O474 C468 1.268 . S
O475 Sc462 2.103 1_556 S
O475 C469 1.265 1_556 S
O476 Sc464 2.071 1_556 S
O476 C470 1.268 . S
O477 Sc463 2.105 . S
O477 C471 1.268 1_554 S
O478 Sc462 2.105 1_556 S
O478 C470 1.268 . S
O479 Sc463 2.105 . S
O479 C469 1.268 . S
O480 Sc464 2.097 1_556 S
O480 C471 1.268 . S
O481 Sc462 2.105 . S
O481 C467 1.268 . S
O482 Sc464 2.111 . S
O482 C466 1.268 . S
O483 Sc463 2.105 . S
O483 C468 1.268 . S
Sc484 O487 2.025 . S
Sc484 O494 2.105 . S
Sc484 O497 2.105 . S
Sc484 O500 2.105 . S
Sc484 O503 2.105 . S
Sc485 O487 2.025 . S
Sc485 O495 2.105 . S
Sc485 O499 2.105 . S
Sc485 O501 2.105 . S
Sc485 O505 2.105 . S
Sc486 O487 2.025 . S
Sc486 O496 2.105 . S
Sc486 O498 2.105 . S
Sc486 O502 2.105 . S
Sc486 O504 2.105 . S
O487 Sc484 2.025 . S
O487 Sc485 2.025 . S
O487 Sc486 2.025 . S
C488 O494 1.268 . S
C488 O504 1.268 . S
C489 O495 1.268 . S
C489 O503 1.268 . S
C490 O496 1.268 . S
C490 O505 1.268 . S
C491 O497 1.268 . S
C491 O501 1.268 . S
C492 O498 1.268 . S
C492 O500 1.268 . S
C493 O499 1.268 . S
C493 O502 1.268 . S
O494 Sc484 2.105 . S
O494 C488 1.268 . S
O495 Sc485 2.105 . S
O495 C489 1.268 . S
O496 Sc486 2.105 . S
O496 C490 1.268 . S
O497 Sc484 2.105 . S
O497 C491 1.268 . S
O498 Sc486 2.105 . S
O498 C492 1.268 . S
O499 Sc485 2.105 . S
O499 C493 1.268 . S
O500 Sc484 2.105 . S
O500 C492 1.268 . S
O501 Sc485 2.105 . S
O501 C491 1.268 . S
O502 Sc486 2.105 . S
O502 C493 1.268 . S
O503 Sc484 2.105 . S
O503 C489 1.268 . S
O504 Sc486 2.105 . S
O504 C488 1.268 . S
O505 Sc485 2.105 . S
O505 C490 1.268 . S
Sc506 O509 2.025 . S
Sc506 O516 2.105 . S
Sc506 O519 2.105 . S
Sc506 O522 2.105 1_545 S
Sc506 O525 2.105 . S
Sc507 O509 2.025 . S
Sc507 O517 2.105 . S
Sc507 O521 2.105 . S
Sc507 O523 2.105 . S
Sc507 O527 2.105 . S
Sc508 O509 2.025 . S
Sc508 O518 2.105 . S
Sc508 O520 2.105 1_545 S
Sc508 O524 2.105 . S
Sc508 O526 2.105 . S
O509 Sc506 2.025 . S
O509 Sc507 2.025 . S
O509 Sc508 2.025 . S
C510 O516 1.268 . S
C510 O526 1.268 . S
C511 O517 1.268 . S
C511 O525 1.268 . S
C512 O518 1.268 . S
C512 O527 1.268 . S
C513 O519 1.268 . S
C513 O523 1.268 . S
C514 O520 1.268 . S
C514 O522 1.268 . S
C515 O521 1.268 . S
C515 O524 1.268 . S
O516 Sc506 2.105 . S
O516 C510 1.268 . S
O517 Sc507 2.105 . S
O517 C511 1.268 . S
O518 Sc508 2.105 . S
O518 C512 1.268 . S
O519 Sc506 2.105 . S
O519 C513 1.268 . S
O520 Sc508 2.105 1_565 S
O520 C514 1.268 . S
O521 Sc507 2.105 . S
O521 C515 1.268 . S
O522 Sc506 2.105 1_565 S
O522 C514 1.268 . S
O523 Sc507 2.105 . S
O523 C513 1.268 . S
O524 Sc508 2.105 . S
O524 C515 1.268 . S
O525 Sc506 2.105 . S
O525 C511 1.268 . S
O526 Sc508 2.105 . S
O526 C510 1.268 . S
O527 Sc507 2.105 . S
O527 C512 1.268 . S
H528 C534 0.930 . S
H529 C538 0.930 . S
H530 C543 0.929 . S
H531 C541 0.929 . S
H532 C536 0.929 . S
H533 C542 0.929 . S
C534 H528 0.930 . S
C534 C535 1.367 . S
C534 C542 1.378 . S
C535 C534 1.367 . S
C535 C543 1.433 1_655 S
C536 H532 0.929 . S
C536 C538 1.378 . S
C536 C540 1.350 . S
C537 C540 1.463 1_655 S
C537 C542 1.350 . S
C537 N545 1.427 1_655 S
C538 H529 0.930 . S
C538 C536 1.378 . S
C538 C539 1.367 . S
C539 C538 1.367 . S
C539 C541 1.433 1_455 S
C540 C536 1.350 . S
C540 C537 1.463 1_455 S
C540 N544 1.427 1_455 S
C541 H531 0.929 . S
C541 C539 1.433 1_655 S
C541 N544 1.384 . S
C542 H533 0.929 . S
C542 C534 1.378 . S
C542 C537 1.350 . S
C543 H530 0.929 . S
C543 C535 1.433 1_455 S
C543 N545 1.384 . S
N544 C540 1.427 1_655 S
N544 C541 1.384 . S
N545 C537 1.427 1_455 S
N545 C543 1.384 . S
H546 C552 0.930 . S
H547 C556 0.930 . S
H548 C561 0.929 . S
H549 C559 0.929 . S
H550 C554 0.929 . S
H551 C560 0.929 . S
C552 H546 0.930 . S
C552 C553 1.367 . S
C552 C560 1.378 . S
C553 C552 1.367 . S
C553 C561 1.433 . S
C554 H550 0.929 . S
C554 C556 1.378 . S
C554 C558 1.350 . S
C555 C558 1.463 . S
C555 C560 1.350 . S
C555 N563 1.427 . S
C556 H547 0.930 . S
C556 C554 1.378 . S
C556 C557 1.367 . S
C557 C556 1.367 . S
C557 C559 1.433 . S
C558 C554 1.350 . S
C558 C555 1.463 . S
C558 N562 1.427 . S
C559 H549 0.929 . S
C559 C557 1.433 . S
C559 N562 1.384 . S
C560 H551 0.929 . S
C560 C552 1.378 . S
C560 C555 1.350 . S
C561 H548 0.929 . S
C561 C553 1.433 . S
C561 N563 1.384 . S
N562 C558 1.427 . S
N562 C559 1.384 . S
N563 C555 1.427 . S
N563 C561 1.384 . S
H564 C570 0.930 . S
H565 C574 0.930 . S
H566 C579 0.929 . S
H567 C577 0.929 . S
H568 C572 0.929 . S
H569 C578 0.929 . S
C570 H564 0.930 . S
C570 C571 1.367 . S
C570 C578 1.378 . S
C571 C570 1.367 . S
C571 C579 1.433 . S
C572 H568 0.929 . S
C572 C574 1.378 . S
C572 C576 1.350 . S
C573 C576 1.463 . S
C573 C578 1.350 . S
C573 N581 1.427 . S
C574 H565 0.930 . S
C574 C572 1.378 . S
C574 C575 1.367 . S
C575 C574 1.367 . S
C575 C577 1.433 . S
C576 C572 1.350 . S
C576 C573 1.463 . S
C576 N580 1.427 . S
C577 H567 0.929 . S
C577 C575 1.433 . S
C577 N580 1.384 . S
C578 H569 0.929 . S
C578 C570 1.378 . S
C578 C573 1.350 . S
C579 H566 0.929 . S
C579 C571 1.433 . S
C579 N581 1.384 . S
N580 C576 1.427 . S
N580 C577 1.384 . S
N581 C573 1.427 . S
N581 C579 1.384 . S
H582 C588 0.930 . S
H583 C592 0.930 . S
H584 C597 0.929 . S
H585 C595 0.929 1_455 S
H586 C590 0.929 . S
H587 C596 0.929 . S
C588 H582 0.930 . S
C588 C589 1.367 . S
C588 C596 1.378 . S
C589 C588 1.367 . S
C589 C597 1.433 1_455 S
C590 H586 0.929 . S
C590 C592 1.378 . S
C590 C594 1.350 . S
C591 C594 1.457 1_455 S
C591 C596 1.363 . S
C591 N599 1.420 1_455 S
C592 H583 0.930 . S
C592 C590 1.378 . S
C592 C593 1.367 . S
C593 C592 1.367 . S
C593 C595 1.433 . S
C594 C590 1.350 . S
C594 C591 1.457 1_655 S
C594 N598 1.427 1_655 S
C595 H585 0.929 1_655 S
C595 C593 1.433 . S
C595 N598 1.384 1_655 S
C596 H587 0.929 . S
C596 C588 1.378 . S
C596 C591 1.363 . S
C597 H584 0.929 . S
C597 C589 1.433 1_655 S
C597 N599 1.384 . S
N598 C594 1.427 1_455 S
N598 C595 1.384 1_455 S
N599 C591 1.420 1_655 S
N599 C597 1.384 . S
H600 C606 0.930 . S
H601 C610 0.930 . S
H602 C615 0.929 . S
H603 C613 0.929 . S
H604 C608 0.929 . S
H605 C614 0.929 . S
C606 H600 0.930 . S
C606 C607 1.367 . S
C606 C614 1.378 . S
C607 C606 1.367 . S
C607 C615 1.433 1_565 S
C608 H604 0.929 . S
C608 C610 1.378 . S
C608 C612 1.350 . S
C609 C612 1.463 1_565 S
C609 C614 1.350 . S
C609 N617 1.427 1_565 S
C610 H601 0.930 . S
C610 C608 1.378 . S
C610 C611 1.367 . S
C611 C610 1.367 . S
C611 C613 1.433 1_545 S
C612 C608 1.350 . S
C612 C609 1.463 1_545 S
C612 N616 1.427 1_545 S
C613 H603 0.929 . S
C613 C611 1.433 1_565 S
C613 N616 1.384 . S
C614 H605 0.929 . S
C614 C606 1.378 . S
C614 C609 1.350 . S
C615 H602 0.929 . S
C615 C607 1.433 1_545 S
C615 N617 1.384 . S
N616 C612 1.427 1_565 S
N616 C613 1.384 . S
N617 C609 1.427 1_545 S
N617 C615 1.384 . S
H618 C624 0.930 . S
H619 C628 0.930 . S
H620 C633 0.929 . S
H621 C631 0.929 . S
H622 C626 0.929 . S
H623 C632 0.929 . S
C624 H618 0.930 . S
C624 C625 1.367 1_565 S
C624 C632 1.378 . S
C625 C624 1.367 1_545 S
C625 C633 1.433 . S
C626 H622 0.929 . S
C626 C628 1.378 . S
C626 C630 1.350 1_545 S
C627 C630 1.463 1_545 S
C627 C632 1.352 1_545 S
C627 N635 1.425 . S
C628 H619 0.930 . S
C628 C626 1.378 . S
C628 C629 1.367 1_545 S
C629 C628 1.367 1_565 S
C629 C631 1.433 . S
C630 C626 1.350 1_565 S
C630 C627 1.463 1_565 S
C630 N634 1.427 . S
C631 H621 0.929 . S
C631 C629 1.433 . S
C631 N634 1.384 . S
C632 H623 0.929 . S
C632 C624 1.378 . S
C632 C627 1.352 1_565 S
C633 H620 0.929 . S
C633 C625 1.433 . S
C633 N635 1.384 . S
N634 C630 1.427 . S
N634 C631 1.384 . S
N635 C627 1.425 . S
N635 C633 1.384 . S
H636 C642 0.930 . S
H637 C646 0.930 . S
H638 C651 0.929 . S
H639 C649 0.929 . S
H640 C644 0.929 . S
H641 C650 0.929 . S
C642 H636 0.930 . S
C642 C643 1.367 . S
C642 C650 1.378 . S
C643 C642 1.367 . S
C643 C651 1.433 . S
C644 H640 0.929 . S
C644 C646 1.378 . S
C644 C648 1.350 . S
C645 C648 1.463 . S
C645 C650 1.350 . S
C645 N653 1.427 . S
C646 H637 0.930 . S
C646 C644 1.378 . S
C646 C647 1.367 . S
C647 C646 1.367 . S
C647 C649 1.433 . S
C648 C644 1.350 . S
C648 C645 1.463 . S
C648 N652 1.427 . S
C649 H639 0.929 . S
C649 C647 1.433 . S
C649 N652 1.384 . S
C650 H641 0.929 . S
C650 C642 1.378 . S
C650 C645 1.350 . S
C651 H638 0.929 . S
C651 C643 1.433 . S
C651 N653 1.384 . S
N652 C648 1.427 . S
N652 C649 1.384 . S
N653 C645 1.427 . S
N653 C651 1.384 . S
H654 C660 0.930 . S
H655 C664 0.930 . S
H656 C669 0.929 . S
H657 C667 0.929 . S
H658 C662 0.929 . S
H659 C668 0.929 . S
C660 H654 0.930 . S
C660 C661 1.367 . S
C660 C668 1.378 . S
C661 C660 1.367 . S
C661 C669 1.433 . S
C662 H658 0.929 . S
C662 C664 1.378 . S
C662 C666 1.350 . S
C663 C666 1.463 . S
C663 C668 1.350 . S
C663 N671 1.427 . S
C664 H655 0.930 . S
C664 C662 1.378 . S
C664 C665 1.367 . S
C665 C664 1.367 . S
C665 C667 1.433 . S
C666 C662 1.350 . S
C666 C663 1.463 . S
C666 N670 1.427 . S
C667 H657 0.929 . S
C667 C665 1.433 . S
C667 N670 1.384 . S
C668 H659 0.929 . S
C668 C660 1.378 . S
C668 C663 1.350 . S
C669 H656 0.929 . S
C669 C661 1.433 . S
C669 N671 1.384 . S
N670 C666 1.427 . S
N670 C667 1.384 . S
N671 C663 1.427 . S
N671 C669 1.384 . S
H672 C678 0.930 . S
H673 C682 0.930 . S
H674 C687 0.929 . S
H675 C685 0.929 . S
H676 C680 0.929 . S
H677 C686 0.929 . S
C678 H672 0.930 . S
C678 C679 1.367 . S
C678 C686 1.378 . S
C679 C678 1.367 . S
C679 C687 1.433 1_556 S
C680 H676 0.929 . S
C680 C682 1.378 . S
C680 C684 1.350 . S
C681 C684 1.463 1_556 S
C681 C686 1.350 . S
C681 N689 1.427 1_556 S
C682 H673 0.930 . S
C682 C680 1.378 . S
C682 C683 1.367 . S
C683 C682 1.367 . S
C683 C685 1.433 1_554 S
C684 C680 1.350 . S
C684 C681 1.463 1_554 S
C684 N688 1.427 1_554 S
C685 H675 0.929 . S
C685 C683 1.433 1_556 S
C685 N688 1.384 . S
C686 H677 0.929 . S
C686 C678 1.378 . S
C686 C681 1.350 . S
C687 H674 0.929 . S
C687 C679 1.433 1_554 S
C687 N689 1.384 . S
N688 C684 1.427 1_556 S
N688 C685 1.384 . S
N689 C681 1.427 1_554 S
N689 C687 1.384 . S
H690 C696 0.930 . S
H691 C700 0.930 . S
H692 C705 0.929 . S
H693 C703 0.929 . S
H694 C698 0.929 . S
H695 C704 0.929 . S
C696 H690 0.930 . S
C696 C697 1.367 1_554 S
C696 C704 1.378 . S
C697 C696 1.367 1_556 S
C697 C705 1.433 . S
C698 H694 0.929 . S
C698 C700 1.378 . S
C698 C702 1.349 1_556 S
C699 C702 1.462 1_556 S
C699 C704 1.350 1_556 S
C699 N707 1.427 . S
C700 H691 0.930 . S
C700 C698 1.378 . S
C700 C701 1.367 1_556 S
C701 C700 1.367 1_554 S
C701 C703 1.433 . S
C702 C698 1.349 1_554 S
C702 C699 1.462 1_554 S
C702 N706 1.429 . S
C703 H693 0.929 . S
C703 C701 1.433 . S
C703 N706 1.384 . S
C704 H695 0.929 . S
C704 C696 1.378 . S
C704 C699 1.350 1_554 S
C705 H692 0.929 . S
C705 C697 1.433 . S
C705 N707 1.384 . S
N706 C702 1.429 . S
N706 C703 1.384 . S
N707 C699 1.427 . S
N707 C705 1.384 . S
H708 C714 0.930 . S
H709 C718 0.930 . S
H710 C723 0.929 . S
H711 C721 0.929 . S
H712 C716 0.929 . S
H713 C722 0.929 . S
C714 H708 0.930 . S
C714 C715 1.367 . S
C714 C722 1.378 . S
C715 C714 1.367 . S
C715 C723 1.433 . S
C716 H712 0.929 . S
C716 C718 1.378 . S
C716 C720 1.350 . S
C717 C720 1.463 . S
C717 C722 1.350 . S
C717 N725 1.427 . S
C718 H709 0.930 . S
C718 C716 1.378 . S
C718 C719 1.367 . S
C719 C718 1.367 . S
C719 C721 1.433 . S
C720 C716 1.350 . S
C720 C717 1.463 . S
C720 N724 1.427 . S
C721 H711 0.929 . S
C721 C719 1.433 . S
C721 N724 1.384 . S
C722 H713 0.929 . S
C722 C714 1.378 . S
C722 C717 1.350 . S
C723 H710 0.929 . S
C723 C715 1.433 . S
C723 N725 1.384 . S
N724 C720 1.427 . S
N724 C721 1.384 . S
N725 C717 1.427 . S
N725 C723 1.384 . S
H726 C732 0.930 . S
H727 C736 0.930 . S
H728 C741 0.929 . S
H729 C739 0.929 . S
H730 C734 0.929 . S
H731 C740 0.929 . S
C732 H726 0.930 . S
C732 C733 1.367 . S
C732 C740 1.378 . S
C733 C732 1.367 . S
C733 C741 1.433 . S
C734 H730 0.929 . S
C734 C736 1.378 . S
C734 C738 1.350 . S
C735 C738 1.463 . S
C735 C740 1.350 . S
C735 N743 1.427 . S
C736 H727 0.930 . S
C736 C734 1.378 . S
C736 C737 1.367 . S
C737 C736 1.367 . S
C737 C739 1.433 . S
C738 C734 1.350 . S
C738 C735 1.463 . S
C738 N742 1.427 . S
C739 H729 0.929 . S
C739 C737 1.433 . S
C739 N742 1.384 . S
C740 H731 0.929 . S
C740 C732 1.378 . S
C740 C735 1.350 . S
C741 H728 0.929 . S
C741 C733 1.433 . S
C741 N743 1.384 . S
N742 C738 1.427 . S
N742 C739 1.384 . S
N743 C735 1.427 . S
N743 C741 1.384 . S
H744 C750 0.930 . S
H745 C754 0.930 . S
H746 C759 0.929 . S
H747 C757 0.929 . S
H748 C752 0.929 . S
H749 C758 0.929 . S
C750 H744 0.930 . S
C750 C751 1.367 1_455 S
C750 C758 1.378 . S
C751 C750 1.367 1_655 S
C751 C759 1.433 . S
C752 H748 0.929 . S
C752 C754 1.378 . S
C752 C756 1.355 . S
C753 C756 1.463 . S
C753 C758 1.350 1_655 S
C753 N761 1.427 . S
C754 H745 0.930 . S
C754 C752 1.378 . S
C754 C755 1.367 1_655 S
C755 C754 1.367 1_455 S
C755 C757 1.433 . S
C756 C752 1.355 . S
C756 C753 1.463 . S
C756 N760 1.421 1_655 S
C757 H747 0.929 . S
C757 C755 1.433 . S
C757 N760 1.384 . S
C758 H749 0.929 . S
C758 C750 1.378 . S
C758 C753 1.350 1_455 S
C759 H746 0.929 . S
C759 C751 1.433 . S
C759 N761 1.384 . S
N760 C756 1.421 1_455 S
N760 C757 1.384 . S
N761 C753 1.427 . S
N761 C759 1.384 . S
H762 C768 0.930 . S
H763 C772 0.930 . S
H764 C777 0.929 . S
H765 C775 0.929 . S
H766 C770 0.929 . S
H767 C776 0.929 . S
C768 H762 0.930 . S
C768 C769 1.367 . S
C768 C776 1.378 . S
C769 C768 1.367 . S
C769 C777 1.433 . S
C770 H766 0.929 . S
C770 C772 1.378 . S
C770 C774 1.350 . S
C771 C774 1.463 . S
C771 C776 1.350 . S
C771 N779 1.427 . S
C772 H763 0.930 . S
C772 C770 1.378 . S
C772 C773 1.367 . S
C773 C772 1.367 . S
C773 C775 1.433 . S
C774 C770 1.350 . S
C774 C771 1.463 . S
C774 N778 1.427 . S
C775 H765 0.929 . S
C775 C773 1.433 . S
C775 N778 1.384 . S
C776 H767 0.929 . S
C776 C768 1.378 . S
C776 C771 1.350 . S
C777 H764 0.929 . S
C777 C769 1.433 . S
C777 N779 1.384 . S
N778 C774 1.427 . S
N778 C775 1.384 . S
N779 C771 1.427 . S
N779 C777 1.384 . S
H780 C786 0.930 . S
H781 C790 0.930 . S
H782 C795 0.929 . S
H783 C793 0.929 . S
H784 C788 0.929 . S
H785 C794 0.929 . S
C786 H780 0.930 . S
C786 C787 1.367 . S
C786 C794 1.378 . S
C787 C786 1.367 . S
C787 C795 1.433 . S
C788 H784 0.929 . S
C788 C790 1.378 . S
C788 C792 1.350 . S
C789 C792 1.463 . S
C789 C794 1.350 . S
C789 N797 1.427 . S
C790 H781 0.930 . S
C790 C788 1.378 . S
C790 C791 1.367 . S
C791 C790 1.367 . S
C791 C793 1.433 . S
C792 C788 1.350 . S
C792 C789 1.463 . S
C792 N796 1.427 . S
C793 H783 0.929 . S
C793 C791 1.433 . S
C793 N796 1.384 . S
C794 H785 0.929 . S
C794 C786 1.378 . S
C794 C789 1.350 . S
C795 H782 0.929 . S
C795 C787 1.433 . S
C795 N797 1.384 . S
N796 C792 1.427 . S
N796 C793 1.384 . S
N797 C789 1.427 . S
N797 C795 1.384 . S
H798 C804 0.930 . S
H799 C808 0.930 . S
H800 C813 0.929 . S
H801 C811 0.929 . S
H802 C806 0.929 . S
H803 C812 0.929 . S
C804 H798 0.930 . S
C804 C805 1.367 . S
C804 C812 1.378 . S
C805 C804 1.367 . S
C805 C813 1.433 1_455 S
C806 H802 0.929 . S
C806 C808 1.378 . S
C806 C810 1.350 . S
C807 C810 1.463 1_455 S
C807 C812 1.350 . S
C807 N815 1.427 1_455 S
C808 H799 0.930 . S
C808 C806 1.378 . S
C808 C809 1.367 . S
C809 C808 1.367 . S
C809 C811 1.433 1_655 S
C810 C806 1.350 . S
C810 C807 1.463 1_655 S
C810 N814 1.427 1_655 S
C811 H801 0.929 . S
C811 C809 1.433 1_455 S
C811 N814 1.384 . S
C812 H803 0.929 . S
C812 C804 1.378 . S
C812 C807 1.350 . S
C813 H800 0.929 . S
C813 C805 1.433 1_655 S
C813 N815 1.384 . S
N814 C810 1.427 1_455 S
N814 C811 1.384 . S
N815 C807 1.427 1_655 S
N815 C813 1.384 . S
H816 C822 0.930 . S
H817 C826 0.930 . S
H818 C831 0.929 . S
H819 C829 0.929 . S
H820 C824 0.929 . S
H821 C830 0.929 . S
C822 H816 0.930 . S
C822 C823 1.367 . S
C822 C830 1.378 . S
C823 C822 1.367 . S
C823 C831 1.433 1_545 S
C824 H820 0.929 . S
C824 C826 1.378 . S
C824 C828 1.350 . S
C825 C828 1.463 1_545 S
C825 C830 1.350 . S
C825 N833 1.427 1_545 S
C826 H817 0.930 . S
C826 C824 1.378 . S
C826 C827 1.367 . S
C827 C826 1.367 . S
C827 C829 1.433 1_565 S
C828 C824 1.350 . S
C828 C825 1.463 1_565 S
C828 N832 1.427 1_565 S
C829 H819 0.929 . S
C829 C827 1.433 1_545 S
C829 N832 1.384 . S
C830 H821 0.929 . S
C830 C822 1.378 . S
C830 C825 1.350 . S
C831 H818 0.929 . S
C831 C823 1.433 1_565 S
C831 N833 1.384 . S
N832 C828 1.427 1_545 S
N832 C829 1.384 . S
N833 C825 1.427 1_565 S
N833 C831 1.384 . S
H834 C840 0.930 . S
H835 C844 0.930 . S
H836 C849 0.929 . S
H837 C847 0.929 . S
H838 C842 0.929 . S
H839 C848 0.929 . S
C840 H834 0.930 . S
C840 C841 1.367 . S
C840 C848 1.378 . S
C841 C840 1.367 . S
C841 C849 1.433 1_565 S
C842 H838 0.929 . S
C842 C844 1.378 . S
C842 C846 1.350 . S
C843 C846 1.463 1_565 S
C843 C848 1.350 . S
C843 N851 1.427 1_565 S
C844 H835 0.930 . S
C844 C842 1.378 . S
C844 C845 1.367 . S
C845 C844 1.367 . S
C845 C847 1.433 1_545 S
C846 C842 1.350 . S
C846 C843 1.463 1_545 S
C846 N850 1.427 1_545 S
C847 H837 0.929 . S
C847 C845 1.433 1_565 S
C847 N850 1.384 . S
C848 H839 0.929 . S
C848 C840 1.378 . S
C848 C843 1.350 . S
C849 H836 0.929 . S
C849 C841 1.433 1_545 S
C849 N851 1.384 . S
N850 C846 1.427 1_565 S
N850 C847 1.384 . S
N851 C843 1.427 1_545 S
N851 C849 1.384 . S
H852 C858 0.930 . S
H853 C862 0.930 . S
H854 C867 0.929 . S
H855 C865 0.929 . S
H856 C860 0.929 . S
H857 C866 0.929 . S
C858 H852 0.930 . S
C858 C859 1.367 . S
C858 C866 1.378 . S
C859 C858 1.367 . S
C859 C867 1.433 . S
C860 H856 0.929 . S
C860 C862 1.378 . S
C860 C864 1.350 . S
C861 C864 1.463 . S
C861 C866 1.350 . S
C861 N869 1.427 . S
C862 H853 0.930 . S
C862 C860 1.378 . S
C862 C863 1.367 . S
C863 C862 1.367 . S
C863 C865 1.433 . S
C864 C860 1.350 . S
C864 C861 1.463 . S
C864 N868 1.427 . S
C865 H855 0.929 . S
C865 C863 1.433 . S
C865 N868 1.384 . S
C866 H857 0.929 . S
C866 C858 1.378 . S
C866 C861 1.350 . S
C867 H854 0.929 . S
C867 C859 1.433 . S
C867 N869 1.384 . S
N868 C864 1.427 . S
N868 C865 1.384 . S
N869 C861 1.427 . S
N869 C867 1.384 . S
H870 C876 0.930 . S
H871 C880 0.930 . S
H872 C885 0.929 . S
H873 C883 0.929 . S
H874 C878 0.929 . S
H875 C884 0.929 . S
C876 H870 0.930 . S
C876 C877 1.367 . S
C876 C884 1.378 . S
C877 C876 1.367 . S
C877 C885 1.433 . S
C878 H874 0.929 . S
C878 C880 1.378 . S
C878 C882 1.350 . S
C879 C882 1.463 . S
C879 C884 1.350 . S
C879 N887 1.427 . S
C880 H871 0.930 . S
C880 C878 1.378 . S
C880 C881 1.367 . S
C881 C880 1.367 . S
C881 C883 1.433 . S
C882 C878 1.350 . S
C882 C879 1.463 . S
C882 N886 1.427 . S
C883 H873 0.929 . S
C883 C881 1.433 . S
C883 N886 1.384 . S
C884 H875 0.929 . S
C884 C876 1.378 . S
C884 C879 1.350 . S
C885 H872 0.929 . S
C885 C877 1.433 . S
C885 N887 1.384 . S
N886 C882 1.427 . S
N886 C883 1.384 . S
N887 C879 1.427 . S
N887 C885 1.384 . S
H888 C894 0.930 . S
H889 C898 0.930 . S
H890 C903 0.929 . S
H891 C901 0.929 . S
H892 C896 0.929 . S
H893 C902 0.929 . S
C894 H888 0.930 . S
C894 C895 1.367 . S
C894 C902 1.378 . S
C895 C894 1.367 . S
C895 C903 1.433 1_554 S
C896 H892 0.929 . S
C896 C898 1.378 . S
C896 C900 1.350 . S
C897 C900 1.463 1_554 S
C897 C902 1.350 . S
C897 N905 1.427 1_554 S
C898 H889 0.930 . S
C898 C896 1.378 . S
C898 C899 1.367 . S
C899 C898 1.367 . S
C899 C901 1.433 1_556 S
C900 C896 1.350 . S
C900 C897 1.463 1_556 S
C900 N904 1.427 1_556 S
C901 H891 0.929 . S
C901 C899 1.433 1_554 S
C901 N904 1.384 . S
C902 H893 0.929 . S
C902 C894 1.378 . S
C902 C897 1.350 . S
C903 H890 0.929 . S
C903 C895 1.433 1_556 S
C903 N905 1.384 . S
N904 C900 1.427 1_554 S
N904 C901 1.384 . S
N905 C897 1.427 1_556 S
N905 C903 1.384 . S
H906 C912 0.930 . S
H907 C916 0.930 . S
H908 C921 0.929 . S
H909 C919 0.929 . S
H910 C914 0.929 . S
H911 C920 0.929 . S
C912 H906 0.930 . S
C912 C913 1.367 1_556 S
C912 C920 1.378 . S
C913 C912 1.367 1_554 S
C913 C921 1.433 . S
C914 H910 0.929 . S
C914 C916 1.378 . S
C914 C918 1.356 . S
C915 C918 1.463 . S
C915 C920 1.350 1_554 S
C915 N923 1.427 . S
C916 H907 0.930 . S
C916 C914 1.378 . S
C916 C917 1.367 1_554 S
C917 C916 1.367 1_556 S
C917 C919 1.433 . S
C918 C914 1.356 . S
C918 C915 1.463 . S
C918 N922 1.420 1_554 S
C919 H909 0.929 . S
C919 C917 1.433 . S
C919 N922 1.384 . S
C920 H911 0.929 . S
C920 C912 1.378 . S
C920 C915 1.350 1_556 S
C921 H908 0.929 . S
C921 C913 1.433 . S
C921 N923 1.384 . S
N922 C918 1.420 1_556 S
N922 C919 1.384 . S
N923 C915 1.427 . S
N923 C921 1.384 . S
H924 C930 0.930 . S
H925 C934 0.930 . S
H926 C939 0.929 . S
H927 C937 0.929 . S
H928 C932 0.929 . S
H929 C938 0.929 . S
C930 H924 0.930 . S
C930 C931 1.367 . S
C930 C938 1.378 . S
C931 C930 1.367 . S
C931 C939 1.433 . S
C932 H928 0.929 . S
C932 C934 1.378 . S
C932 C936 1.350 . S
C933 C936 1.463 . S
C933 C938 1.350 . S
C933 N941 1.427 . S
C934 H925 0.930 . S
C934 C932 1.378 . S
C934 C935 1.367 . S
C935 C934 1.367 . S
C935 C937 1.433 . S
C936 C932 1.350 . S
C936 C933 1.463 . S
C936 N940 1.427 . S
C937 H927 0.929 . S
C937 C935 1.433 . S
C937 N940 1.384 . S
C938 H929 0.929 . S
C938 C930 1.378 . S
C938 C933 1.350 . S
C939 H926 0.929 . S
C939 C931 1.433 . S
C939 N941 1.384 . S
N940 C936 1.427 . S
N940 C937 1.384 . S
N941 C933 1.427 . S
N941 C939 1.384 . S
H942 C948 0.930 . S
H943 C952 0.930 . S
H944 C957 0.929 . S
H945 C955 0.929 . S
H946 C950 0.929 . S
H947 C956 0.929 . S
C948 H942 0.930 . S
C948 C949 1.367 . S
C948 C956 1.378 . S
C949 C948 1.367 . S
C949 C957 1.433 . S
C950 H946 0.929 . S
C950 C952 1.378 . S
C950 C954 1.350 . S
C951 C954 1.463 . S
C951 C956 1.350 . S
C951 N959 1.427 . S
C952 H943 0.930 . S
C952 C950 1.378 . S
C952 C953 1.367 . S
C953 C952 1.367 . S
C953 C955 1.433 . S
C954 C950 1.350 . S
C954 C951 1.463 . S
C954 N958 1.427 . S
C955 H945 0.929 . S
C955 C953 1.433 . S
C955 N958 1.384 . S
C956 H947 0.929 . S
C956 C948 1.378 . S
C956 C951 1.350 . S
C957 H944 0.929 . S
C957 C949 1.433 . S
C957 N959 1.384 . S
N958 C954 1.427 . S
N958 C955 1.384 . S
N959 C951 1.427 . S
N959 C957 1.384 . S
H960 C966 0.930 . S
H961 C970 0.930 1_556 S
H962 C975 0.929 . S
H963 C973 0.929 . S
H964 C968 0.929 . S
H965 C974 0.929 . S
C966 H960 0.930 . S
C966 C967 1.367 . S
C966 C974 1.378 . S
C967 C966 1.367 . S
C967 C975 1.433 1_554 S
C968 H964 0.929 . S
C968 C970 1.378 1_556 S
C968 C972 1.350 1_556 S
C969 C972 1.463 . S
C969 C974 1.350 . S
C969 N977 1.427 1_554 S
C970 H961 0.930 1_554 S
C970 C968 1.378 1_554 S
C970 C971 1.367 . S
C971 C970 1.367 . S
C971 C973 1.433 . S
C972 C968 1.350 1_554 S
C972 C969 1.463 . S
C972 N976 1.427 . S
C973 H963 0.929 . S
C973 C971 1.433 . S
C973 N976 1.384 . S
C974 H965 0.929 . S
C974 C966 1.378 . S
C974 C969 1.350 . S
C975 H962 0.929 . S
C975 C967 1.433 1_556 S
C975 N977 1.384 . S
N976 C972 1.427 . S
N976 C973 1.384 . S
N977 C969 1.427 1_556 S
N977 C975 1.384 . S
H978 C984 0.930 . S
H979 C988 0.930 . S
H980 C993 0.929 . S
H981 C991 0.929 . S
H982 C986 0.929 . S
H983 C992 0.929 . S
C984 H978 0.930 . S
C984 C985 1.367 . S
C984 C992 1.378 . S
C985 C984 1.367 . S
C985 C993 1.433 . S
C986 H982 0.929 . S
C986 C988 1.378 . S
C986 C990 1.350 . S
C987 C990 1.463 . S
C987 C992 1.350 . S
C987 N995 1.427 . S
C988 H979 0.930 . S
C988 C986 1.378 . S
C988 C989 1.367 . S
C989 C988 1.367 . S
C989 C991 1.433 . S
C990 C986 1.350 . S
C990 C987 1.463 . S
C990 N994 1.427 . S
C991 H981 0.929 . S
C991 C989 1.433 . S
C991 N994 1.384 . S
C992 H983 0.929 . S
C992 C984 1.378 . S
C992 C987 1.350 . S
C993 H980 0.929 . S
C993 C985 1.433 . S
C993 N995 1.384 . S
N994 C990 1.427 . S
N994 C991 1.384 . S
N995 C987 1.427 . S
N995 C993 1.384 . S
H996 C1002 0.930 . S
H997 C1006 0.930 . S
H998 C1011 0.933 . S
H999 C1009 0.929 . S
H1000 C1004 0.929 . S
H1001 C1010 0.929 . S
C1002 H996 0.930 . S
C1002 C1003 1.367 . S
C1002 C1010 1.378 . S
C1003 C1002 1.367 . S
C1003 C1011 1.432 1_556 S
C1004 H1000 0.929 . S
C1004 C1006 1.378 . S
C1004 C1008 1.350 . S
C1005 C1008 1.463 . S
C1005 C1010 1.350 . S
C1005 N1013 1.427 . S
C1006 H997 0.930 . S
C1006 C1004 1.378 . S
C1006 C1007 1.367 . S
C1007 C1006 1.367 . S
C1007 C1009 1.433 . S
C1008 C1004 1.350 . S
C1008 C1005 1.463 . S
C1008 N1012 1.427 . S
C1009 H999 0.929 . S
C1009 C1007 1.433 . S
C1009 N1012 1.384 . S
C1010 H1001 0.929 . S
C1010 C1002 1.378 . S
C1010 C1005 1.350 . S
C1011 H998 0.933 . S
C1011 C1003 1.432 1_554 S
C1011 N1013 1.381 1_554 S
N1012 C1008 1.427 . S
N1012 C1009 1.384 . S
N1013 C1005 1.427 . S
N1013 C1011 1.381 1_556 S
H1014 C1020 0.930 . S
H1015 C1024 0.930 . S
H1016 C1029 0.929 . S
H1017 C1027 0.929 . S
H1018 C1022 0.929 . S
H1019 C1028 0.929 . S
C1020 H1014 0.930 . S
C1020 C1021 1.367 . S
C1020 C1028 1.378 . S
C1021 C1020 1.367 . S
C1021 C1029 1.433 . S
C1022 H1018 0.929 . S
C1022 C1024 1.378 . S
C1022 C1026 1.350 . S
C1023 C1026 1.463 . S
C1023 C1028 1.350 . S
C1023 N1031 1.427 . S
C1024 H1015 0.930 . S
C1024 C1022 1.378 . S
C1024 C1025 1.367 . S
C1025 C1024 1.367 . S
C1025 C1027 1.433 . S
C1026 C1022 1.350 . S
C1026 C1023 1.463 . S
C1026 N1030 1.427 . S
C1027 H1017 0.929 . S
C1027 C1025 1.433 . S
C1027 N1030 1.384 . S
C1028 H1019 0.929 . S
C1028 C1020 1.378 . S
C1028 C1023 1.350 . S
C1029 H1016 0.929 . S
C1029 C1021 1.433 . S
C1029 N1031 1.384 . S
N1030 C1026 1.427 . S
N1030 C1027 1.384 . S
N1031 C1023 1.427 . S
N1031 C1029 1.384 . S
H1032 C1038 0.952 . S
H1033 C1042 0.930 . S
H1034 C1047 0.929 . S
H1035 C1045 0.929 . S
H1036 C1040 0.929 . S
H1037 C1046 0.929 . S
C1038 H1032 0.952 . S
C1038 C1039 1.341 1_655 S
C1038 C1046 1.383 . S
C1039 C1038 1.341 1_455 S
C1039 C1047 1.433 . S
C1040 H1036 0.929 . S
C1040 C1042 1.378 . S
C1040 C1044 1.350 . S
C1041 C1044 1.463 . S
C1041 C1046 1.350 1_455 S
C1041 N1049 1.427 . S
C1042 H1033 0.930 . S
C1042 C1040 1.378 . S
C1042 C1043 1.367 . S
C1043 C1042 1.367 . S
C1043 C1045 1.433 1_455 S
C1044 C1040 1.350 . S
C1044 C1041 1.463 . S
C1044 N1048 1.427 1_455 S
C1045 H1035 0.929 . S
C1045 C1043 1.433 1_655 S
C1045 N1048 1.384 . S
C1046 H1037 0.929 . S
C1046 C1038 1.383 . S
C1046 C1041 1.350 1_655 S
C1047 H1034 0.929 . S
C1047 C1039 1.433 . S
C1047 N1049 1.384 . S
N1048 C1044 1.427 1_655 S
N1048 C1045 1.384 . S
N1049 C1041 1.427 . S
N1049 C1047 1.384 . S
H1050 C1056 0.930 . S
H1051 C1060 0.930 . S
H1052 C1065 0.929 . S
H1053 C1063 0.929 . S
H1054 C1058 0.929 . S
H1055 C1064 0.929 . S
C1056 H1050 0.930 . S
C1056 C1057 1.367 . S
C1056 C1064 1.378 . S
C1057 C1056 1.367 . S
C1057 C1065 1.433 . S
C1058 H1054 0.929 . S
C1058 C1060 1.378 . S
C1058 C1062 1.350 . S
C1059 C1062 1.463 . S
C1059 C1064 1.350 . S
C1059 N1067 1.427 . S
C1060 H1051 0.930 . S
C1060 C1058 1.378 . S
C1060 C1061 1.367 . S
C1061 C1060 1.367 . S
C1061 C1063 1.433 . S
C1062 C1058 1.350 . S
C1062 C1059 1.463 . S
C1062 N1066 1.427 . S
C1063 H1053 0.929 . S
C1063 C1061 1.433 . S
C1063 N1066 1.384 . S
C1064 H1055 0.929 . S
C1064 C1056 1.378 . S
C1064 C1059 1.350 . S
C1065 H1052 0.929 . S
C1065 C1057 1.433 . S
C1065 N1067 1.384 . S
N1066 C1062 1.427 . S
N1066 C1063 1.384 . S
N1067 C1059 1.427 . S
N1067 C1065 1.384 . S
H1068 C1074 0.930 . S
H1069 C1078 0.930 . S
H1070 C1083 0.929 . S
H1071 C1081 0.929 . S
H1072 C1076 0.929 . S
H1073 C1082 0.929 . S
C1074 H1068 0.930 . S
C1074 C1075 1.367 . S
C1074 C1082 1.378 . S
C1075 C1074 1.367 . S
C1075 C1083 1.433 . S
C1076 H1072 0.929 . S
C1076 C1078 1.378 . S
C1076 C1080 1.350 . S
C1077 C1080 1.463 . S
C1077 C1082 1.350 . S
C1077 N1085 1.427 . S
C1078 H1069 0.930 . S
C1078 C1076 1.378 . S
C1078 C1079 1.367 . S
C1079 C1078 1.367 . S
C1079 C1081 1.433 . S
C1080 C1076 1.350 . S
C1080 C1077 1.463 . S
C1080 N1084 1.427 . S
C1081 H1071 0.929 . S
C1081 C1079 1.433 . S
C1081 N1084 1.384 . S
C1082 H1073 0.929 . S
C1082 C1074 1.378 . S
C1082 C1077 1.350 . S
C1083 H1070 0.929 . S
C1083 C1075 1.433 . S
C1083 N1085 1.384 . S
N1084 C1080 1.427 . S
N1084 C1081 1.384 . S
N1085 C1077 1.427 . S
N1085 C1083 1.384 . S
H1086 C1092 0.927 1_455 S
H1087 C1096 0.930 . S
H1088 C1101 0.929 . S
H1089 C1099 0.929 . S
H1090 C1094 0.929 . S
H1091 C1100 0.929 . S
C1092 H1086 0.927 1_655 S
C1092 C1093 1.367 . S
C1092 C1100 1.378 . S
C1093 C1092 1.367 . S
C1093 C1101 1.433 . S
C1094 H1090 0.929 . S
C1094 C1096 1.378 . S
C1094 C1098 1.350 . S
C1095 C1098 1.463 . S
C1095 C1100 1.350 . S
C1095 N1103 1.427 . S
C1096 H1087 0.930 . S
C1096 C1094 1.378 . S
C1096 C1097 1.367 . S
C1097 C1096 1.367 . S
C1097 C1099 1.433 . S
C1098 C1094 1.350 . S
C1098 C1095 1.463 . S
C1098 N1102 1.427 . S
C1099 H1089 0.929 . S
C1099 C1097 1.433 . S
C1099 N1102 1.384 . S
C1100 H1091 0.929 . S
C1100 C1092 1.378 . S
C1100 C1095 1.350 . S
C1101 H1088 0.929 . S
C1101 C1093 1.433 . S
C1101 N1103 1.384 . S
N1102 C1098 1.427 . S
N1102 C1099 1.384 . S
N1103 C1095 1.427 . S
N1103 C1101 1.384 . S
H1104 C1110 0.930 . S
H1105 C1114 0.930 1_565 S
H1106 C1119 0.929 . S
H1107 C1117 0.929 . S
H1108 C1112 0.929 . S
H1109 C1118 0.929 . S
C1110 H1104 0.930 . S
C1110 C1111 1.367 . S
C1110 C1118 1.378 . S
C1111 C1110 1.367 . S
C1111 C1119 1.433 1_545 S
C1112 H1108 0.929 . S
C1112 C1114 1.378 1_565 S
C1112 C1116 1.350 1_565 S
C1113 C1116 1.463 . S
C1113 C1118 1.350 . S
C1113 N1121 1.427 1_545 S
C1114 H1105 0.930 1_545 S
C1114 C1112 1.378 1_545 S
C1114 C1115 1.367 . S
C1115 C1114 1.367 . S
C1115 C1117 1.433 . S
C1116 C1112 1.350 1_545 S
C1116 C1113 1.463 . S
C1116 N1120 1.427 . S
C1117 H1107 0.929 . S
C1117 C1115 1.433 . S
C1117 N1120 1.384 . S
C1118 H1109 0.929 . S
C1118 C1110 1.378 . S
C1118 C1113 1.350 . S
C1119 H1106 0.929 . S
C1119 C1111 1.433 1_565 S
C1119 N1121 1.384 . S
N1120 C1116 1.427 . S
N1120 C1117 1.384 . S
N1121 C1113 1.427 1_565 S
N1121 C1119 1.384 . S
H1122 C1128 0.930 . S
H1123 C1132 0.930 . S
H1124 C1137 0.929 . S
H1125 C1135 0.929 . S
H1126 C1130 0.929 . S
H1127 C1136 0.929 . S
C1128 H1122 0.930 . S
C1128 C1129 1.367 . S
C1128 C1136 1.378 . S
C1129 C1128 1.367 . S
C1129 C1137 1.433 . S
C1130 H1126 0.929 . S
C1130 C1132 1.378 . S
C1130 C1134 1.350 . S
C1131 C1134 1.463 . S
C1131 C1136 1.350 . S
C1131 N1139 1.427 . S
C1132 H1123 0.930 . S
C1132 C1130 1.378 . S
C1132 C1133 1.367 . S
C1133 C1132 1.367 . S
C1133 C1135 1.433 . S
C1134 C1130 1.350 . S
C1134 C1131 1.463 . S
C1134 N1138 1.427 . S
C1135 H1125 0.929 . S
C1135 C1133 1.433 . S
C1135 N1138 1.384 . S
C1136 H1127 0.929 . S
C1136 C1128 1.378 . S
C1136 C1131 1.350 . S
C1137 H1124 0.929 . S
C1137 C1129 1.433 . S
C1137 N1139 1.384 . S
N1138 C1134 1.427 . S
N1138 C1135 1.384 . S
N1139 C1131 1.427 . S
N1139 C1137 1.384 . S
H1140 C1146 0.930 . S
H1141 C1150 0.930 . S
H1142 C1155 0.929 . S
H1143 C1153 0.929 . S
H1144 C1148 0.929 . S
H1145 C1154 0.929 . S
C1146 H1140 0.930 . S
C1146 C1147 1.367 . S
C1146 C1154 1.378 . S
C1147 C1146 1.367 . S
C1147 C1155 1.433 . S
C1148 H1144 0.929 . S
C1148 C1150 1.378 . S
C1148 C1152 1.350 . S
C1149 C1152 1.463 . S
C1149 C1154 1.350 . S
C1149 N1157 1.427 . S
C1150 H1141 0.930 . S
C1150 C1148 1.378 . S
C1150 C1151 1.367 . S
C1151 C1150 1.367 . S
C1151 C1153 1.433 . S
C1152 C1148 1.350 . S
C1152 C1149 1.463 . S
C1152 N1156 1.427 . S
C1153 H1143 0.929 . S
C1153 C1151 1.433 . S
C1153 N1156 1.384 . S
C1154 H1145 0.929 . S
C1154 C1146 1.378 . S
C1154 C1149 1.350 . S
C1155 H1142 0.929 . S
C1155 C1147 1.433 . S
C1155 N1157 1.384 . S
N1156 C1152 1.427 . S
N1156 C1153 1.384 . S
N1157 C1149 1.427 . S
N1157 C1155 1.384 . S
H1158 C1164 0.930 . S
H1159 C1168 0.930 . S
H1160 C1173 0.929 . S
H1161 C1171 0.929 . S
H1162 C1166 0.929 1_545 S
H1163 C1172 0.929 . S
C1164 H1158 0.930 . S
C1164 C1165 1.367 . S
C1164 C1172 1.378 . S
C1165 C1164 1.367 . S
C1165 C1173 1.433 1_565 S
C1166 H1162 0.929 1_565 S
C1166 C1168 1.378 . S
C1166 C1170 1.350 . S
C1167 C1170 1.463 . S
C1167 C1172 1.350 . S
C1167 N1175 1.427 1_565 S
C1168 H1159 0.930 . S
C1168 C1166 1.378 . S
C1168 C1169 1.367 . S
C1169 C1168 1.367 . S
C1169 C1171 1.433 . S
C1170 C1166 1.350 . S
C1170 C1167 1.463 . S
C1170 N1174 1.427 . S
C1171 H1161 0.929 . S
C1171 C1169 1.433 . S
C1171 N1174 1.384 . S
C1172 H1163 0.929 . S
C1172 C1164 1.378 . S
C1172 C1167 1.350 . S
C1173 H1160 0.929 . S
C1173 C1165 1.433 1_545 S
C1173 N1175 1.384 . S
N1174 C1170 1.427 . S
N1174 C1171 1.384 . S
N1175 C1167 1.427 1_545 S
N1175 C1173 1.384 . S
H1176 C1182 0.930 . S
H1177 C1186 0.930 . S
H1178 C1191 0.929 . S
H1179 C1189 0.929 . S
H1180 C1184 0.929 . S
H1181 C1190 0.929 . S
C1182 H1176 0.930 . S
C1182 C1183 1.367 1_554 S
C1182 C1190 1.378 . S
C1183 C1182 1.367 1_556 S
C1183 C1191 1.433 . S
C1184 H1180 0.929 . S
C1184 C1186 1.378 . S
C1184 C1188 1.350 . S
C1185 C1188 1.463 . S
C1185 C1190 1.350 1_556 S
C1185 N1193 1.427 . S
C1186 H1177 0.930 . S
C1186 C1184 1.378 . S
C1186 C1187 1.367 . S
C1187 C1186 1.367 . S
C1187 C1189 1.433 1_556 S
C1188 C1184 1.350 . S
C1188 C1185 1.463 . S
C1188 N1192 1.427 1_556 S
C1189 H1179 0.929 . S
C1189 C1187 1.433 1_554 S
C1189 N1192 1.384 . S
C1190 H1181 0.929 . S
C1190 C1182 1.378 . S
C1190 C1185 1.350 1_554 S
C1191 H1178 0.929 . S
C1191 C1183 1.433 . S
C1191 N1193 1.384 . S
N1192 C1188 1.427 1_554 S
N1192 C1189 1.384 . S
N1193 C1185 1.427 . S
N1193 C1191 1.384 . S
H1194 C1200 0.930 . S
H1195 C1204 0.930 . S
H1196 C1209 0.929 . S
H1197 C1207 0.929 . S
H1198 C1202 0.929 . S
H1199 C1208 0.929 . S
C1200 H1194 0.930 . S
C1200 C1201 1.367 . S
C1200 C1208 1.378 . S
C1201 C1200 1.367 . S
C1201 C1209 1.433 . S
C1202 H1198 0.929 . S
C1202 C1204 1.378 . S
C1202 C1206 1.350 . S
C1203 C1206 1.463 . S
C1203 C1208 1.350 . S
C1203 N1211 1.427 . S
C1204 H1195 0.930 . S
C1204 C1202 1.378 . S
C1204 C1205 1.367 . S
C1205 C1204 1.367 . S
C1205 C1207 1.433 . S
C1206 C1202 1.350 . S
C1206 C1203 1.463 . S
C1206 N1210 1.427 . S
C1207 H1197 0.929 . S
C1207 C1205 1.433 . S
C1207 N1210 1.384 . S
C1208 H1199 0.929 . S
C1208 C1200 1.378 . S
C1208 C1203 1.350 . S
C1209 H1196 0.929 . S
C1209 C1201 1.433 . S
C1209 N1211 1.384 . S
N1210 C1206 1.427 . S
N1210 C1207 1.384 . S
N1211 C1203 1.427 . S
N1211 C1209 1.384 . S
H1212 C1218 0.930 . S
H1213 C1222 0.930 . S
H1214 C1227 0.929 . S
H1215 C1225 0.929 . S
H1216 C1220 0.929 . S
H1217 C1226 0.929 . S
C1218 H1212 0.930 . S
C1218 C1219 1.367 1_556 S
C1218 C1226 1.378 . S
C1219 C1218 1.367 1_554 S
C1219 C1227 1.433 . S
C1220 H1216 0.929 . S
C1220 C1222 1.378 . S
C1220 C1224 1.350 . S
C1221 C1224 1.463 . S
C1221 C1226 1.350 1_554 S
C1221 N1229 1.427 . S
C1222 H1213 0.930 . S
C1222 C1220 1.378 . S
C1222 C1223 1.367 . S
C1223 C1222 1.367 . S
C1223 C1225 1.433 1_554 S
C1224 C1220 1.350 . S
C1224 C1221 1.463 . S
C1224 N1228 1.427 1_554 S
C1225 H1215 0.929 . S
C1225 C1223 1.433 1_556 S
C1225 N1228 1.384 . S
C1226 H1217 0.929 . S
C1226 C1218 1.378 . S
C1226 C1221 1.350 1_556 S
C1227 H1214 0.929 . S
C1227 C1219 1.433 . S
C1227 N1229 1.384 . S
N1228 C1224 1.427 1_556 S
N1228 C1225 1.384 . S
N1229 C1221 1.427 . S
N1229 C1227 1.384 . S
H1230 C1236 0.930 . S
H1231 C1240 0.930 . S
H1232 C1245 0.929 . S
H1233 C1243 0.929 . S
H1234 C1238 0.929 . S
H1235 C1244 0.929 . S
C1236 H1230 0.930 . S
C1236 C1237 1.367 . S
C1236 C1244 1.378 . S
C1237 C1236 1.367 . S
C1237 C1245 1.433 . S
C1238 H1234 0.929 . S
C1238 C1240 1.378 . S
C1238 C1242 1.350 . S
C1239 C1242 1.463 . S
C1239 C1244 1.350 . S
C1239 N1247 1.427 . S
C1240 H1231 0.930 . S
C1240 C1238 1.378 . S
C1240 C1241 1.367 . S
C1241 C1240 1.367 . S
C1241 C1243 1.433 . S
C1242 C1238 1.350 . S
C1242 C1239 1.463 . S
C1242 N1246 1.427 . S
C1243 H1233 0.929 . S
C1243 C1241 1.433 . S
C1243 N1246 1.384 . S
C1244 H1235 0.929 . S
C1244 C1236 1.378 . S
C1244 C1239 1.350 . S
C1245 H1232 0.929 . S
C1245 C1237 1.433 . S
C1245 N1247 1.384 . S
N1246 C1242 1.427 . S
N1246 C1243 1.384 . S
N1247 C1239 1.427 . S
N1247 C1245 1.384 . S
H1248 C1254 0.930 . S
H1249 C1258 0.930 . S
H1250 C1263 0.929 . S
H1251 C1261 0.929 1_455 S
H1252 C1256 0.929 . S
H1253 C1262 0.929 . S
C1254 H1248 0.930 . S
C1254 C1255 1.367 1_455 S
C1254 C1262 1.378 . S
C1255 C1254 1.367 1_655 S
C1255 C1263 1.433 . S
C1256 H1252 0.929 . S
C1256 C1258 1.378 . S
C1256 C1260 1.350 . S
C1257 C1260 1.463 . S
C1257 C1262 1.350 1_655 S
C1257 N1265 1.427 . S
C1258 H1249 0.930 . S
C1258 C1256 1.378 . S
C1258 C1259 1.367 . S
C1259 C1258 1.367 . S
C1259 C1261 1.433 . S
C1260 C1256 1.350 . S
C1260 C1257 1.463 . S
C1260 N1264 1.427 . S
C1261 H1251 0.929 1_655 S
C1261 C1259 1.433 . S
C1261 N1264 1.384 . S
C1262 H1253 0.929 . S
C1262 C1254 1.378 . S
C1262 C1257 1.350 1_455 S
C1263 H1250 0.929 . S
C1263 C1255 1.433 . S
C1263 N1265 1.384 . S
N1264 C1260 1.427 . S
N1264 C1261 1.384 . S
N1265 C1257 1.427 . S
N1265 C1263 1.384 . S
H1266 C1272 0.930 . S
H1267 C1276 0.930 . S
H1268 C1281 0.929 . S
H1269 C1279 0.929 . S
H1270 C1274 0.929 . S
H1271 C1280 0.929 . S
C1272 H1266 0.930 . S
C1272 C1273 1.367 . S
C1272 C1280 1.378 . S
C1273 C1272 1.367 . S
C1273 C1281 1.433 . S
C1274 H1270 0.929 . S
C1274 C1276 1.378 . S
C1274 C1278 1.350 . S
C1275 C1278 1.463 . S
C1275 C1280 1.350 . S
C1275 N1283 1.427 . S
C1276 H1267 0.930 . S
C1276 C1274 1.378 . S
C1276 C1277 1.367 . S
C1277 C1276 1.367 . S
C1277 C1279 1.433 . S
C1278 C1274 1.350 . S
C1278 C1275 1.463 . S
C1278 N1282 1.427 . S
C1279 H1269 0.929 . S
C1279 C1277 1.433 . S
C1279 N1282 1.384 . S
C1280 H1271 0.929 . S
C1280 C1272 1.378 . S
C1280 C1275 1.350 . S
C1281 H1268 0.929 . S
C1281 C1273 1.433 . S
C1281 N1283 1.384 . S
N1282 C1278 1.427 . S
N1282 C1279 1.384 . S
N1283 C1275 1.427 . S
N1283 C1281 1.384 . S
H1284 C1290 0.930 . S
H1285 C1294 0.930 . S
H1286 C1299 0.929 . S
H1287 C1297 0.929 . S
H1288 C1292 0.929 . S
H1289 C1298 0.929 . S
C1290 H1284 0.930 . S
C1290 C1291 1.367 . S
C1290 C1298 1.378 . S
C1291 C1290 1.367 . S
C1291 C1299 1.433 . S
C1292 H1288 0.929 . S
C1292 C1294 1.378 . S
C1292 C1296 1.350 . S
C1293 C1296 1.463 . S
C1293 C1298 1.350 . S
C1293 N1301 1.427 . S
C1294 H1285 0.930 . S
C1294 C1292 1.378 . S
C1294 C1295 1.367 . S
C1295 C1294 1.367 . S
C1295 C1297 1.433 . S
C1296 C1292 1.350 . S
C1296 C1293 1.463 . S
C1296 N1300 1.427 . S
C1297 H1287 0.929 . S
C1297 C1295 1.433 . S
C1297 N1300 1.384 . S
C1298 H1289 0.929 . S
C1298 C1290 1.378 . S
C1298 C1293 1.350 . S
C1299 H1286 0.929 . S
C1299 C1291 1.433 . S
C1299 N1301 1.384 . S
N1300 C1296 1.427 . S
N1300 C1297 1.384 . S
N1301 C1293 1.427 . S
N1301 C1299 1.384 . S
H1302 C1308 0.930 . S
H1303 C1312 0.930 . S
H1304 C1317 0.947 . S
H1305 C1315 0.929 . S
H1306 C1310 0.929 . S
H1307 C1316 0.929 . S
C1308 H1302 0.930 . S
C1308 C1309 1.367 . S
C1308 C1316 1.378 . S
C1309 C1308 1.367 . S
C1309 C1317 1.412 1_455 S
C1310 H1306 0.929 . S
C1310 C1312 1.378 . S
C1310 C1314 1.350 1_655 S
C1311 C1314 1.463 . S
C1311 C1316 1.350 . S
C1311 N1319 1.427 1_455 S
C1312 H1303 0.930 . S
C1312 C1310 1.378 . S
C1312 C1313 1.367 1_655 S
C1313 C1312 1.367 1_455 S
C1313 C1315 1.433 . S
C1314 C1310 1.350 1_455 S
C1314 C1311 1.463 . S
C1314 N1318 1.427 . S
C1315 H1305 0.929 . S
C1315 C1313 1.433 . S
C1315 N1318 1.384 . S
C1316 H1307 0.929 . S
C1316 C1308 1.378 . S
C1316 C1311 1.350 . S
C1317 H1304 0.947 . S
C1317 C1309 1.412 1_655 S
C1317 N1319 1.388 . S
N1318 C1314 1.427 . S
N1318 C1315 1.384 . S
N1319 C1311 1.427 1_655 S
N1319 C1317 1.388 . S
H1320 C1326 0.930 . S
H1321 C1330 0.930 . S
H1322 C1335 0.929 . S
H1323 C1333 0.929 . S
H1324 C1328 0.929 . S
H1325 C1334 0.929 . S
C1326 H1320 0.930 . S
C1326 C1327 1.367 1_545 S
C1326 C1334 1.378 . S
C1327 C1326 1.367 1_565 S
C1327 C1335 1.433 . S
C1328 H1324 0.929 . S
C1328 C1330 1.378 . S
C1328 C1332 1.350 . S
C1329 C1332 1.463 . S
C1329 C1334 1.350 1_565 S
C1329 N1337 1.427 . S
C1330 H1321 0.930 . S
C1330 C1328 1.378 . S
C1330 C1331 1.367 . S
C1331 C1330 1.367 . S
C1331 C1333 1.433 1_565 S
C1332 C1328 1.350 . S
C1332 C1329 1.463 . S
C1332 N1336 1.427 1_565 S
C1333 H1323 0.929 . S
C1333 C1331 1.433 1_545 S
C1333 N1336 1.384 . S
C1334 H1325 0.929 . S
C1334 C1326 1.378 . S
C1334 C1329 1.350 1_545 S
C1335 H1322 0.929 . S
C1335 C1327 1.433 . S
C1335 N1337 1.384 . S
N1336 C1332 1.427 1_545 S
N1336 C1333 1.384 . S
N1337 C1329 1.427 . S
N1337 C1335 1.384 . S
H1338 C1344 0.930 . S
H1339 C1348 0.930 . S
H1340 C1353 0.929 . S
H1341 C1351 0.929 . S
H1342 C1346 0.929 . S
H1343 C1352 0.929 . S
C1344 H1338 0.930 . S
C1344 C1345 1.367 . S
C1344 C1352 1.378 . S
C1345 C1344 1.367 . S
C1345 C1353 1.433 . S
C1346 H1342 0.929 . S
C1346 C1348 1.378 . S
C1346 C1350 1.350 . S
C1347 C1350 1.463 . S
C1347 C1352 1.350 . S
C1347 N1355 1.427 . S
C1348 H1339 0.930 . S
C1348 C1346 1.378 . S
C1348 C1349 1.367 . S
C1349 C1348 1.367 . S
C1349 C1351 1.433 . S
C1350 C1346 1.350 . S
C1350 C1347 1.463 . S
C1350 N1354 1.427 . S
C1351 H1341 0.929 . S
C1351 C1349 1.433 . S
C1351 N1354 1.384 . S
C1352 H1343 0.929 . S
C1352 C1344 1.378 . S
C1352 C1347 1.350 . S
C1353 H1340 0.929 . S
C1353 C1345 1.433 . S
C1353 N1355 1.384 . S
N1354 C1350 1.427 . S
N1354 C1351 1.384 . S
N1355 C1347 1.427 . S
N1355 C1353 1.384 . S
H1356 C1362 0.930 . S
H1357 C1366 0.930 . S
H1358 C1371 0.929 . S
H1359 C1369 0.929 . S
H1360 C1364 0.929 . S
H1361 C1370 0.929 . S
C1362 H1356 0.930 . S
C1362 C1363 1.367 . S
C1362 C1370 1.378 . S
C1363 C1362 1.367 . S
C1363 C1371 1.433 . S
C1364 H1360 0.929 . S
C1364 C1366 1.378 . S
C1364 C1368 1.350 . S
C1365 C1368 1.463 . S
C1365 C1370 1.350 . S
C1365 N1373 1.427 . S
C1366 H1357 0.930 . S
C1366 C1364 1.378 . S
C1366 C1367 1.367 . S
C1367 C1366 1.367 . S
C1367 C1369 1.433 . S
C1368 C1364 1.350 . S
C1368 C1365 1.463 . S
C1368 N1372 1.427 . S
C1369 H1359 0.929 . S
C1369 C1367 1.433 . S
C1369 N1372 1.384 . S
C1370 H1361 0.929 . S
C1370 C1362 1.378 . S
C1370 C1365 1.350 . S
C1371 H1358 0.929 . S
C1371 C1363 1.433 . S
C1371 N1373 1.384 . S
N1372 C1368 1.427 . S
N1372 C1369 1.384 . S
N1373 C1365 1.427 . S
N1373 C1371 1.384 . S
H1374 C1380 0.930 . S
H1375 C1384 0.930 . S
H1376 C1389 0.929 . S
H1377 C1387 0.929 . S
H1378 C1382 0.929 . S
H1379 C1388 0.929 . S
C1380 H1374 0.930 . S
C1380 C1381 1.367 . S
C1380 C1388 1.378 . S
C1381 C1380 1.367 . S
C1381 C1389 1.433 1_545 S
C1382 H1378 0.929 . S
C1382 C1384 1.378 . S
C1382 C1386 1.350 1_565 S
C1383 C1386 1.463 . S
C1383 C1388 1.350 . S
C1383 N1391 1.427 1_545 S
C1384 H1375 0.930 . S
C1384 C1382 1.378 . S
C1384 C1385 1.367 1_565 S
C1385 C1384 1.367 1_545 S
C1385 C1387 1.433 . S
C1386 C1382 1.350 1_545 S
C1386 C1383 1.463 . S
C1386 N1390 1.427 . S
C1387 H1377 0.929 . S
C1387 C1385 1.433 . S
C1387 N1390 1.384 . S
C1388 H1379 0.929 . S
C1388 C1380 1.378 . S
C1388 C1383 1.350 . S
C1389 H1376 0.929 . S
C1389 C1381 1.433 1_565 S
C1389 N1391 1.384 . S
N1390 C1386 1.427 . S
N1390 C1387 1.384 . S
N1391 C1383 1.427 1_565 S
N1391 C1389 1.384 . S
H1392 C1398 0.930 . S
H1393 C1402 0.930 . S
H1394 C1407 0.929 . S
H1395 C1405 0.929 . S
H1396 C1400 0.929 . S
H1397 C1406 0.929 . S
C1398 H1392 0.930 . S
C1398 C1399 1.367 . S
C1398 C1406 1.378 . S
C1399 C1398 1.367 . S
C1399 C1407 1.433 . S
C1400 H1396 0.929 . S
C1400 C1402 1.378 . S
C1400 C1404 1.350 . S
C1401 C1404 1.463 . S
C1401 C1406 1.350 . S
C1401 N1409 1.427 . S
C1402 H1393 0.930 . S
C1402 C1400 1.378 . S
C1402 C1403 1.367 . S
C1403 C1402 1.367 . S
C1403 C1405 1.433 . S
C1404 C1400 1.350 . S
C1404 C1401 1.463 . S
C1404 N1408 1.427 . S
C1405 H1395 0.929 . S
C1405 C1403 1.433 . S
C1405 N1408 1.384 . S
C1406 H1397 0.929 . S
C1406 C1398 1.378 . S
C1406 C1401 1.350 . S
C1407 H1394 0.929 . S
C1407 C1399 1.433 . S
C1407 N1409 1.384 . S
N1408 C1404 1.427 . S
N1408 C1405 1.384 . S
N1409 C1401 1.427 . S
N1409 C1407 1.384 . S
H1410 C1416 0.930 . S
H1411 C1420 0.930 . S
H1412 C1425 0.929 . S
H1413 C1423 0.929 . S
H1414 C1418 0.929 . S
H1415 C1424 0.929 . S
C1416 H1410 0.930 . S
C1416 C1417 1.367 . S
C1416 C1424 1.378 . S
C1417 C1416 1.367 . S
C1417 C1425 1.433 . S
C1418 H1414 0.929 . S
C1418 C1420 1.378 . S
C1418 C1422 1.350 . S
C1419 C1422 1.463 . S
C1419 C1424 1.350 . S
C1419 N1427 1.427 . S
C1420 H1411 0.930 . S
C1420 C1418 1.378 . S
C1420 C1421 1.367 . S
C1421 C1420 1.367 . S
C1421 C1423 1.433 . S
C1422 C1418 1.350 . S
C1422 C1419 1.463 . S
C1422 N1426 1.427 . S
C1423 H1413 0.929 . S
C1423 C1421 1.433 . S
C1423 N1426 1.384 . S
C1424 H1415 0.929 . S
C1424 C1416 1.378 . S
C1424 C1419 1.350 . S
C1425 H1412 0.929 . S
C1425 C1417 1.433 . S
C1425 N1427 1.384 . S
N1426 C1422 1.427 . S
N1426 C1423 1.384 . S
N1427 C1419 1.427 . S
N1427 C1425 1.384 . S
H1428 C1434 0.930 . S
H1429 C1438 0.930 . S
H1430 C1443 0.929 . S
H1431 C1441 0.929 . S
H1432 C1436 0.929 . S
H1433 C1442 0.929 . S
C1434 H1428 0.930 . S
C1434 C1435 1.367 . S
C1434 C1442 1.378 . S
C1435 C1434 1.367 . S
C1435 C1443 1.433 . S
C1436 H1432 0.929 . S
C1436 C1438 1.378 . S
C1436 C1440 1.350 . S
C1437 C1440 1.463 . S
C1437 C1442 1.350 . S
C1437 N1445 1.427 . S
C1438 H1429 0.930 . S
C1438 C1436 1.378 . S
C1438 C1439 1.367 . S
C1439 C1438 1.367 . S
C1439 C1441 1.433 . S
C1440 C1436 1.350 . S
C1440 C1437 1.463 . S
C1440 N1444 1.427 . S
C1441 H1431 0.929 . S
C1441 C1439 1.433 . S
C1441 N1444 1.384 . S
C1442 H1433 0.929 . S
C1442 C1434 1.378 . S
C1442 C1437 1.350 . S
C1443 H1430 0.929 . S
C1443 C1435 1.433 . S
C1443 N1445 1.384 . S
N1444 C1440 1.427 . S
N1444 C1441 1.384 . S
N1445 C1437 1.427 . S
N1445 C1443 1.384 . S
H1446 C1452 0.930 . S
H1447 C1456 0.930 . S
H1448 C1461 0.929 . S
H1449 C1459 0.929 . S
H1450 C1454 0.929 . S
H1451 C1460 0.929 . S
C1452 H1446 0.930 . S
C1452 C1453 1.367 . S
C1452 C1460 1.378 . S
C1453 C1452 1.367 . S
C1453 C1461 1.433 . S
C1454 H1450 0.929 . S
C1454 C1456 1.378 . S
C1454 C1458 1.350 . S
C1455 C1458 1.463 . S
C1455 C1460 1.350 . S
C1455 N1463 1.427 . S
C1456 H1447 0.930 . S
C1456 C1454 1.378 . S
C1456 C1457 1.367 . S
C1457 C1456 1.367 . S
C1457 C1459 1.433 . S
C1458 C1454 1.350 . S
C1458 C1455 1.463 . S
C1458 N1462 1.427 . S
C1459 H1449 0.929 . S
C1459 C1457 1.433 . S
C1459 N1462 1.384 . S
C1460 H1451 0.929 . S
C1460 C1452 1.378 . S
C1460 C1455 1.350 . S
C1461 H1448 0.929 . S
C1461 C1453 1.433 . S
C1461 N1463 1.384 . S
N1462 C1458 1.427 . S
N1462 C1459 1.384 . S
N1463 C1455 1.427 . S
N1463 C1461 1.384 . S
H1464 C1470 0.930 1_565 S
H1465 C1474 0.930 . S
H1466 C1479 0.929 . S
H1467 C1477 0.913 1_565 S
H1468 C1472 0.929 . S
H1469 C1478 0.929 1_565 S
C1470 H1464 0.930 1_545 S
C1470 C1471 1.367 . S
C1470 C1478 1.378 . S
C1471 C1470 1.367 . S
C1471 C1479 1.433 . S
C1472 H1468 0.929 . S
C1472 C1474 1.378 . S
C1472 C1476 1.350 . S
C1473 C1476 1.463 . S
C1473 C1478 1.350 . S
C1473 N1481 1.427 . S
C1474 H1465 0.930 . S
C1474 C1472 1.378 . S
C1474 C1475 1.367 . S
C1475 C1474 1.367 . S
C1475 C1477 1.449 . S
C1476 C1472 1.350 . S
C1476 C1473 1.463 . S
C1476 N1480 1.427 . S
C1477 H1467 0.913 1_545 S
C1477 C1475 1.449 . S
C1477 N1480 1.386 . S
C1478 H1469 0.929 1_545 S
C1478 C1470 1.378 . S
C1478 C1473 1.350 . S
C1479 H1466 0.929 . S
C1479 C1471 1.433 . S
C1479 N1481 1.384 . S
N1480 C1476 1.427 . S
N1480 C1477 1.386 . S
N1481 C1473 1.427 . S
N1481 C1479 1.384 . S
H1482 C1488 0.930 . S
H1483 C1492 0.930 1_545 S
H1484 C1497 0.929 . S
H1485 C1495 0.929 . S
H1486 C1490 0.929 1_545 S
H1487 C1496 0.929 . S
C1488 H1482 0.930 . S
C1488 C1489 1.367 . S
C1488 C1496 1.378 . S
C1489 C1488 1.367 . S
C1489 C1497 1.433 1_565 S
C1490 H1486 0.929 1_565 S
C1490 C1492 1.378 . S
C1490 C1494 1.350 . S
C1491 C1494 1.463 . S
C1491 C1496 1.350 . S
C1491 N1499 1.427 1_565 S
C1492 H1483 0.930 1_565 S
C1492 C1490 1.378 . S
C1492 C1493 1.367 . S
C1493 C1492 1.367 . S
C1493 C1495 1.433 . S
C1494 C1490 1.350 . S
C1494 C1491 1.463 . S
C1494 N1498 1.427 . S
C1495 H1485 0.929 . S
C1495 C1493 1.433 . S
C1495 N1498 1.384 . S
C1496 H1487 0.929 . S
C1496 C1488 1.378 . S
C1496 C1491 1.350 . S
C1497 H1484 0.929 . S
C1497 C1489 1.433 1_545 S
C1497 N1499 1.384 . S
N1498 C1494 1.427 . S
N1498 C1495 1.384 . S
N1499 C1491 1.427 1_545 S
N1499 C1497 1.384 . S
H1500 C1506 0.930 . S
H1501 C1510 0.930 . S
H1502 C1515 0.929 . S
H1503 C1513 0.929 . S
H1504 C1508 0.929 . S
H1505 C1514 0.929 . S
C1506 H1500 0.930 . S
C1506 C1507 1.367 . S
C1506 C1514 1.378 . S
C1507 C1506 1.367 . S
C1507 C1515 1.433 . S
C1508 H1504 0.929 . S
C1508 C1510 1.378 . S
C1508 C1512 1.350 . S
C1509 C1512 1.463 . S
C1509 C1514 1.350 . S
C1509 N1517 1.427 . S
C1510 H1501 0.930 . S
C1510 C1508 1.378 . S
C1510 C1511 1.367 . S
C1511 C1510 1.367 . S
C1511 C1513 1.433 . S
C1512 C1508 1.350 . S
C1512 C1509 1.463 . S
C1512 N1516 1.427 . S
C1513 H1503 0.929 . S
C1513 C1511 1.433 . S
C1513 N1516 1.384 . S
C1514 H1505 0.929 . S
C1514 C1506 1.378 . S
C1514 C1509 1.350 . S
C1515 H1502 0.929 . S
C1515 C1507 1.433 . S
C1515 N1517 1.384 . S
N1516 C1512 1.427 . S
N1516 C1513 1.384 . S
N1517 C1509 1.427 . S
N1517 C1515 1.384 . S
H1518 C1524 0.930 . S
H1519 C1528 0.930 . S
H1520 C1533 0.929 . S
H1521 C1531 0.929 . S
H1522 C1526 0.929 . S
H1523 C1532 0.929 . S
C1524 H1518 0.930 . S
C1524 C1525 1.367 . S
C1524 C1532 1.378 . S
C1525 C1524 1.367 . S
C1525 C1533 1.433 . S
C1526 H1522 0.929 . S
C1526 C1528 1.378 . S
C1526 C1530 1.350 . S
C1527 C1530 1.463 . S
C1527 C1532 1.350 . S
C1527 N1535 1.427 . S
C1528 H1519 0.930 . S
C1528 C1526 1.378 . S
C1528 C1529 1.367 . S
C1529 C1528 1.367 . S
C1529 C1531 1.433 . S
C1530 C1526 1.350 . S
C1530 C1527 1.463 . S
C1530 N1534 1.427 . S
C1531 H1521 0.929 . S
C1531 C1529 1.433 . S
C1531 N1534 1.384 . S
C1532 H1523 0.929 . S
C1532 C1524 1.378 . S
C1532 C1527 1.350 . S
C1533 H1520 0.929 . S
C1533 C1525 1.433 . S
C1533 N1535 1.384 . S
N1534 C1530 1.427 . S
N1534 C1531 1.384 . S
N1535 C1527 1.427 . S
N1535 C1533 1.384 . S
H1536 C1542 0.930 1_556 S
H1537 C1546 0.930 . S
H1538 C1551 0.929 . S
H1539 C1549 0.929 . S
H1540 C1544 0.929 . S
H1541 C1550 0.929 1_556 S
C1542 H1536 0.930 1_554 S
C1542 C1543 1.367 . S
C1542 C1550 1.378 . S
C1543 C1542 1.367 . S
C1543 C1551 1.433 . S
C1544 H1540 0.929 . S
C1544 C1546 1.378 . S
C1544 C1548 1.350 . S
C1545 C1548 1.463 . S
C1545 C1550 1.350 . S
C1545 N1553 1.427 . S
C1546 H1537 0.930 . S
C1546 C1544 1.378 . S
C1546 C1547 1.367 . S
C1547 C1546 1.367 . S
C1547 C1549 1.433 1_554 S
C1548 C1544 1.350 . S
C1548 C1545 1.463 . S
C1548 N1552 1.427 1_554 S
C1549 H1539 0.929 . S
C1549 C1547 1.433 1_556 S
C1549 N1552 1.384 . S
C1550 H1541 0.929 1_554 S
C1550 C1542 1.378 . S
C1550 C1545 1.350 . S
C1551 H1538 0.929 . S
C1551 C1543 1.433 . S
C1551 N1553 1.384 . S
N1552 C1548 1.427 1_556 S
N1552 C1549 1.384 . S
N1553 C1545 1.427 . S
N1553 C1551 1.384 . S
H1554 C1560 0.930 . S
H1555 C1564 0.930 1_554 S
H1556 C1569 0.929 . S
H1557 C1567 0.929 . S
H1558 C1562 0.929 1_554 S
H1559 C1568 0.929 . S
C1560 H1554 0.930 . S
C1560 C1561 1.367 . S
C1560 C1568 1.378 . S
C1561 C1560 1.367 . S
C1561 C1569 1.433 . S
C1562 H1558 0.929 1_556 S
C1562 C1564 1.378 . S
C1562 C1566 1.350 . S
C1563 C1566 1.463 . S
C1563 C1568 1.350 . S
C1563 N1571 1.427 . S
C1564 H1555 0.930 1_556 S
C1564 C1562 1.378 . S
C1564 C1565 1.367 . S
C1565 C1564 1.367 . S
C1565 C1567 1.433 . S
C1566 C1562 1.350 . S
C1566 C1563 1.463 . S
C1566 N1570 1.427 . S
C1567 H1557 0.929 . S
C1567 C1565 1.433 . S
C1567 N1570 1.384 . S
C1568 H1559 0.929 . S
C1568 C1560 1.378 . S
C1568 C1563 1.350 . S
C1569 H1556 0.929 . S
C1569 C1561 1.433 . S
C1569 N1571 1.384 . S
N1570 C1566 1.427 . S
N1570 C1567 1.384 . S
N1571 C1563 1.427 . S
N1571 C1569 1.384 . S
H1572 C1578 0.930 . S
H1573 C1582 0.930 . S
H1574 C1587 0.929 . S
H1575 C1585 0.929 . S
H1576 C1580 0.929 . S
H1577 C1586 0.929 . S
C1578 H1572 0.930 . S
C1578 C1579 1.367 . S
C1578 C1586 1.378 . S
C1579 C1578 1.367 . S
C1579 C1587 1.433 . S
C1580 H1576 0.929 . S
C1580 C1582 1.378 . S
C1580 C1584 1.350 . S
C1581 C1584 1.463 . S
C1581 C1586 1.350 . S
C1581 N1589 1.427 . S
C1582 H1573 0.930 . S
C1582 C1580 1.378 . S
C1582 C1583 1.367 . S
C1583 C1582 1.367 . S
C1583 C1585 1.433 . S
C1584 C1580 1.350 . S
C1584 C1581 1.463 . S
C1584 N1588 1.427 . S
C1585 H1575 0.929 . S
C1585 C1583 1.433 . S
C1585 N1588 1.384 . S
C1586 H1577 0.929 . S
C1586 C1578 1.378 . S
C1586 C1581 1.350 . S
C1587 H1574 0.929 . S
C1587 C1579 1.433 . S
C1587 N1589 1.384 . S
N1588 C1584 1.427 . S
N1588 C1585 1.384 . S
N1589 C1581 1.427 . S
N1589 C1587 1.384 . S
H1590 C1596 0.930 . S
H1591 C1600 0.930 . S
H1592 C1605 0.929 . S
H1593 C1603 0.929 . S
H1594 C1598 0.929 . S
H1595 C1604 0.929 . S
C1596 H1590 0.930 . S
C1596 C1597 1.367 . S
C1596 C1604 1.378 . S
C1597 C1596 1.367 . S
C1597 C1605 1.433 . S
C1598 H1594 0.929 . S
C1598 C1600 1.378 . S
C1598 C1602 1.350 . S
C1599 C1602 1.463 . S
C1599 C1604 1.350 . S
C1599 N1607 1.427 . S
C1600 H1591 0.930 . S
C1600 C1598 1.378 . S
C1600 C1601 1.367 . S
C1601 C1600 1.367 . S
C1601 C1603 1.433 . S
C1602 C1598 1.350 . S
C1602 C1599 1.463 . S
C1602 N1606 1.427 . S
C1603 H1593 0.929 . S
C1603 C1601 1.433 . S
C1603 N1606 1.384 . S
C1604 H1595 0.929 . S
C1604 C1596 1.378 . S
C1604 C1599 1.350 . S
C1605 H1592 0.929 . S
C1605 C1597 1.433 . S
C1605 N1607 1.384 . S
N1606 C1602 1.427 . S
N1606 C1603 1.384 . S
N1607 C1599 1.427 . S
N1607 C1605 1.384 . S
H1608 C1614 0.930 . S
H1609 C1618 0.930 1_455 S
H1610 C1623 0.931 . S
H1611 C1621 0.929 . S
H1612 C1616 0.929 1_455 S
H1613 C1622 0.929 . S
C1614 H1608 0.930 . S
C1614 C1615 1.367 . S
C1614 C1622 1.378 . S
C1615 C1614 1.367 . S
C1615 C1623 1.433 . S
C1616 H1612 0.929 1_655 S
C1616 C1618 1.378 . S
C1616 C1620 1.350 . S
C1617 C1620 1.463 . S
C1617 C1622 1.350 . S
C1617 N1625 1.427 . S
C1618 H1609 0.930 1_655 S
C1618 C1616 1.378 . S
C1618 C1619 1.367 . S
C1619 C1618 1.367 . S
C1619 C1621 1.433 . S
C1620 C1616 1.350 . S
C1620 C1617 1.463 . S
C1620 N1624 1.427 . S
C1621 H1611 0.929 . S
C1621 C1619 1.433 . S
C1621 N1624 1.384 . S
C1622 H1613 0.929 . S
C1622 C1614 1.378 . S
C1622 C1617 1.350 . S
C1623 H1610 0.931 . S
C1623 C1615 1.433 . S
C1623 N1625 1.384 . S
N1624 C1620 1.427 . S
N1624 C1621 1.384 . S
N1625 C1617 1.427 . S
N1625 C1623 1.384 . S
H1626 C1632 0.930 . S
H1627 C1636 0.930 . S
H1628 C1641 0.929 . S
H1629 C1639 0.929 . S
H1630 C1634 0.929 . S
H1631 C1640 0.929 . S
C1632 H1626 0.930 . S
C1632 C1633 1.367 . S
C1632 C1640 1.378 . S
C1633 C1632 1.367 . S
C1633 C1641 1.433 . S
C1634 H1630 0.929 . S
C1634 C1636 1.378 . S
C1634 C1638 1.350 . S
C1635 C1638 1.463 . S
C1635 C1640 1.350 . S
C1635 N1643 1.427 . S
C1636 H1627 0.930 . S
C1636 C1634 1.378 . S
C1636 C1637 1.367 . S
C1637 C1636 1.367 . S
C1637 C1639 1.433 . S
C1638 C1634 1.350 . S
C1638 C1635 1.463 . S
C1638 N1642 1.427 . S
C1639 H1629 0.929 . S
C1639 C1637 1.433 . S
C1639 N1642 1.384 . S
C1640 H1631 0.929 . S
C1640 C1632 1.378 . S
C1640 C1635 1.350 . S
C1641 H1628 0.929 . S
C1641 C1633 1.433 . S
C1641 N1643 1.384 . S
N1642 C1638 1.427 . S
N1642 C1639 1.384 . S
N1643 C1635 1.427 . S
N1643 C1641 1.384 . S
H1644 C1650 0.930 . S
H1645 C1654 0.930 . S
H1646 C1659 0.929 . S
H1647 C1657 0.929 . S
H1648 C1652 0.929 . S
H1649 C1658 0.929 . S
C1650 H1644 0.930 . S
C1650 C1651 1.367 . S
C1650 C1658 1.378 . S
C1651 C1650 1.367 . S
C1651 C1659 1.433 . S
C1652 H1648 0.929 . S
C1652 C1654 1.378 . S
C1652 C1656 1.350 . S
C1653 C1656 1.463 . S
C1653 C1658 1.350 . S
C1653 N1661 1.427 . S
C1654 H1645 0.930 . S
C1654 C1652 1.378 . S
C1654 C1655 1.367 . S
C1655 C1654 1.367 . S
C1655 C1657 1.433 . S
C1656 C1652 1.350 . S
C1656 C1653 1.463 . S
C1656 N1660 1.427 . S
C1657 H1647 0.929 . S
C1657 C1655 1.433 . S
C1657 N1660 1.384 . S
C1658 H1649 0.929 . S
C1658 C1650 1.378 . S
C1658 C1653 1.350 . S
C1659 H1646 0.929 . S
C1659 C1651 1.433 . S
C1659 N1661 1.384 . S
N1660 C1656 1.427 . S
N1660 C1657 1.384 . S
N1661 C1653 1.427 . S
N1661 C1659 1.384 . S
H1662 C1668 0.930 . S
H1663 C1672 0.930 1_655 S
H1664 C1677 0.929 . S
H1665 C1675 0.929 . S
H1666 C1670 0.929 1_655 S
H1667 C1676 0.929 . S
C1668 H1662 0.930 . S
C1668 C1669 1.367 . S
C1668 C1676 1.378 . S
C1669 C1668 1.367 . S
C1669 C1677 1.433 . S
C1670 H1666 0.929 1_455 S
C1670 C1672 1.378 . S
C1670 C1674 1.350 . S
C1671 C1674 1.463 . S
C1671 C1676 1.350 . S
C1671 N1679 1.427 . S
C1672 H1663 0.930 1_455 S
C1672 C1670 1.378 . S
C1672 C1673 1.367 . S
C1673 C1672 1.367 . S
C1673 C1675 1.433 . S
C1674 C1670 1.350 . S
C1674 C1671 1.463 . S
C1674 N1678 1.427 . S
C1675 H1665 0.929 . S
C1675 C1673 1.433 . S
C1675 N1678 1.384 . S
C1676 H1667 0.929 . S
C1676 C1668 1.378 . S
C1676 C1671 1.350 . S
C1677 H1664 0.929 . S
C1677 C1669 1.433 . S
C1677 N1679 1.384 . S
N1678 C1674 1.427 . S
N1678 C1675 1.384 . S
N1679 C1671 1.427 . S
N1679 C1677 1.384 . S
H1680 C1686 0.930 . S
H1681 C1690 0.930 1_545 S
H1682 C1695 0.929 . S
H1683 C1693 0.929 . S
H1684 C1688 0.929 1_545 S
H1685 C1694 0.929 . S
C1686 H1680 0.930 . S
C1686 C1687 1.367 . S
C1686 C1694 1.378 . S
C1687 C1686 1.367 . S
C1687 C1695 1.433 1_565 S
C1688 H1684 0.929 1_565 S
C1688 C1690 1.378 . S
C1688 C1692 1.350 . S
C1689 C1692 1.463 . S
C1689 C1694 1.350 . S
C1689 N1697 1.427 1_565 S
C1690 H1681 0.930 1_565 S
C1690 C1688 1.378 . S
C1690 C1691 1.367 . S
C1691 C1690 1.367 . S
C1691 C1693 1.433 . S
C1692 C1688 1.350 . S
C1692 C1689 1.463 . S
C1692 N1696 1.427 . S
C1693 H1683 0.929 . S
C1693 C1691 1.433 . S
C1693 N1696 1.384 . S
C1694 H1685 0.929 . S
C1694 C1686 1.378 . S
C1694 C1689 1.350 . S
C1695 H1682 0.929 . S
C1695 C1687 1.433 1_545 S
C1695 N1697 1.384 . S
N1696 C1692 1.427 . S
N1696 C1693 1.384 . S
N1697 C1689 1.427 1_545 S
N1697 C1695 1.384 . S
H1698 C1704 0.930 . S
H1699 C1708 0.930 1_565 S
H1700 C1713 0.929 . S
H1701 C1711 0.929 . S
H1702 C1706 0.929 1_565 S
H1703 C1712 0.929 . S
C1704 H1698 0.930 . S
C1704 C1705 1.367 . S
C1704 C1712 1.378 . S
C1705 C1704 1.367 . S
C1705 C1713 1.433 1_545 S
C1706 H1702 0.929 1_545 S
C1706 C1708 1.378 . S
C1706 C1710 1.350 . S
C1707 C1710 1.463 . S
C1707 C1712 1.350 . S
C1707 N1715 1.455 . S
C1708 H1699 0.930 1_545 S
C1708 C1706 1.378 . S
C1708 C1709 1.367 . S
C1709 C1708 1.367 . S
C1709 C1711 1.433 . S
C1710 C1706 1.350 . S
C1710 C1707 1.463 . S
C1710 N1714 1.427 . S
C1711 H1701 0.929 . S
C1711 C1709 1.433 . S
C1711 N1714 1.384 . S
C1712 H1703 0.929 . S
C1712 C1704 1.378 . S
C1712 C1707 1.350 . S
C1713 H1700 0.929 . S
C1713 C1705 1.433 1_565 S
C1713 N1715 1.381 1_565 S
N1714 C1710 1.427 . S
N1714 C1711 1.384 . S
N1715 C1707 1.455 . S
N1715 C1713 1.381 1_545 S
H1716 C1722 0.930 . S
H1717 C1726 0.930 . S
H1718 C1731 0.929 . S
H1719 C1729 0.929 . S
H1720 C1724 0.929 . S
H1721 C1730 0.929 . S
C1722 H1716 0.930 . S
C1722 C1723 1.367 . S
C1722 C1730 1.378 . S
C1723 C1722 1.367 . S
C1723 C1731 1.433 . S
C1724 H1720 0.929 . S
C1724 C1726 1.378 . S
C1724 C1728 1.350 . S
C1725 C1728 1.463 . S
C1725 C1730 1.350 . S
C1725 N1733 1.427 . S
C1726 H1717 0.930 . S
C1726 C1724 1.378 . S
C1726 C1727 1.367 . S
C1727 C1726 1.367 . S
C1727 C1729 1.433 . S
C1728 C1724 1.350 . S
C1728 C1725 1.463 . S
C1728 N1732 1.427 . S
C1729 H1719 0.929 . S
C1729 C1727 1.433 . S
C1729 N1732 1.384 . S
C1730 H1721 0.929 . S
C1730 C1722 1.378 . S
C1730 C1725 1.350 . S
C1731 H1718 0.929 . S
C1731 C1723 1.433 . S
C1731 N1733 1.384 . S
N1732 C1728 1.427 . S
N1732 C1729 1.384 . S
N1733 C1725 1.427 . S
N1733 C1731 1.384 . S
H1734 C1740 0.930 . S
H1735 C1744 0.930 . S
H1736 C1749 0.929 . S
H1737 C1747 0.929 . S
H1738 C1742 0.929 . S
H1739 C1748 0.929 . S
C1740 H1734 0.930 . S
C1740 C1741 1.367 . S
C1740 C1748 1.378 . S
C1741 C1740 1.367 . S
C1741 C1749 1.433 . S
C1742 H1738 0.929 . S
C1742 C1744 1.378 . S
C1742 C1746 1.350 . S
C1743 C1746 1.463 . S
C1743 C1748 1.350 . S
C1743 N1751 1.427 . S
C1744 H1735 0.930 . S
C1744 C1742 1.378 . S
C1744 C1745 1.367 . S
C1745 C1744 1.367 . S
C1745 C1747 1.433 . S
C1746 C1742 1.350 . S
C1746 C1743 1.463 . S
C1746 N1750 1.427 . S
C1747 H1737 0.929 . S
C1747 C1745 1.433 . S
C1747 N1750 1.384 . S
C1748 H1739 0.929 . S
C1748 C1740 1.378 . S
C1748 C1743 1.350 . S
C1749 H1736 0.929 . S
C1749 C1741 1.433 . S
C1749 N1751 1.384 . S
N1750 C1746 1.427 . S
N1750 C1747 1.384 . S
N1751 C1743 1.427 . S
N1751 C1749 1.384 . S
H1752 C1758 0.930 1_554 S
H1753 C1762 0.930 . S
H1754 C1767 0.929 . S
H1755 C1765 0.920 1_554 S
H1756 C1760 0.929 . S
H1757 C1766 0.929 1_554 S
C1758 H1752 0.930 1_556 S
C1758 C1759 1.367 . S
C1758 C1766 1.378 . S
C1759 C1758 1.367 . S
C1759 C1767 1.433 . S
C1760 H1756 0.929 . S
C1760 C1762 1.378 . S
C1760 C1764 1.350 . S
C1761 C1764 1.463 . S
C1761 C1766 1.350 . S
C1761 N1769 1.427 . S
C1762 H1753 0.930 . S
C1762 C1760 1.378 . S
C1762 C1763 1.367 . S
C1763 C1762 1.367 . S
C1763 C1765 1.433 . S
C1764 C1760 1.350 . S
C1764 C1761 1.463 . S
C1764 N1768 1.427 . S
C1765 H1755 0.920 1_556 S
C1765 C1763 1.433 . S
C1765 N1768 1.384 . S
C1766 H1757 0.929 1_556 S
C1766 C1758 1.378 . S
C1766 C1761 1.350 . S
C1767 H1754 0.929 . S
C1767 C1759 1.433 . S
C1767 N1769 1.384 . S
N1768 C1764 1.427 . S
N1768 C1765 1.384 . S
N1769 C1761 1.427 . S
N1769 C1767 1.384 . S
H1770 C1776 0.930 1_556 S
H1771 C1780 0.930 . S
H1772 C1785 0.929 . S
H1773 C1783 0.922 1_556 S
H1774 C1778 0.929 . S
H1775 C1784 0.929 1_556 S
C1776 H1770 0.930 1_554 S
C1776 C1777 1.367 . S
C1776 C1784 1.378 . S
C1777 C1776 1.367 . S
C1777 C1785 1.433 . S
C1778 H1774 0.929 . S
C1778 C1780 1.378 . S
C1778 C1782 1.350 . S
C1779 C1782 1.463 . S
C1779 C1784 1.350 . S
C1779 N1787 1.427 . S
C1780 H1771 0.930 . S
C1780 C1778 1.378 . S
C1780 C1781 1.367 . S
C1781 C1780 1.367 . S
C1781 C1783 1.440 . S
C1782 C1778 1.350 . S
C1782 C1779 1.463 . S
C1782 N1786 1.427 . S
C1783 H1773 0.922 1_554 S
C1783 C1781 1.440 . S
C1783 N1786 1.384 . S
C1784 H1775 0.929 1_554 S
C1784 C1776 1.378 . S
C1784 C1779 1.350 . S
C1785 H1772 0.929 . S
C1785 C1777 1.433 . S
C1785 N1787 1.384 . S
N1786 C1782 1.427 . S
N1786 C1783 1.384 . S
N1787 C1779 1.427 . S
N1787 C1785 1.384 . S
H1788 C1794 0.930 . S
H1789 C1798 0.930 . S
H1790 C1803 0.929 . S
H1791 C1801 0.929 . S
H1792 C1796 0.929 . S
H1793 C1802 0.929 . S
C1794 H1788 0.930 . S
C1794 C1795 1.367 . S
C1794 C1802 1.378 . S
C1795 C1794 1.367 . S
C1795 C1803 1.433 . S
C1796 H1792 0.929 . S
C1796 C1798 1.378 . S
C1796 C1800 1.350 . S
C1797 C1800 1.463 . S
C1797 C1802 1.350 . S
C1797 N1805 1.427 . S
C1798 H1789 0.930 . S
C1798 C1796 1.378 . S
C1798 C1799 1.367 . S
C1799 C1798 1.367 . S
C1799 C1801 1.433 . S
C1800 C1796 1.350 . S
C1800 C1797 1.463 . S
C1800 N1804 1.427 . S
C1801 H1791 0.929 . S
C1801 C1799 1.433 . S
C1801 N1804 1.384 . S
C1802 H1793 0.929 . S
C1802 C1794 1.378 . S
C1802 C1797 1.350 . S
C1803 H1790 0.929 . S
C1803 C1795 1.433 . S
C1803 N1805 1.384 . S
N1804 C1800 1.427 . S
N1804 C1801 1.384 . S
N1805 C1797 1.427 . S
N1805 C1803 1.384 . S
H1806 C1812 0.930 . S
H1807 C1816 0.930 . S
H1808 C1821 0.929 . S
H1809 C1819 0.929 . S
H1810 C1814 0.929 . S
H1811 C1820 0.929 . S
C1812 H1806 0.930 . S
C1812 C1813 1.367 . S
C1812 C1820 1.378 . S
C1813 C1812 1.367 . S
C1813 C1821 1.433 . S
C1814 H1810 0.929 . S
C1814 C1816 1.378 . S
C1814 C1818 1.350 . S
C1815 C1818 1.463 . S
C1815 C1820 1.350 . S
C1815 N1823 1.427 . S
C1816 H1807 0.930 . S
C1816 C1814 1.378 . S
C1816 C1817 1.367 . S
C1817 C1816 1.367 . S
C1817 C1819 1.433 . S
C1818 C1814 1.350 . S
C1818 C1815 1.463 . S
C1818 N1822 1.427 . S
C1819 H1809 0.929 . S
C1819 C1817 1.433 . S
C1819 N1822 1.384 . S
C1820 H1811 0.929 . S
C1820 C1812 1.378 . S
C1820 C1815 1.350 . S
C1821 H1808 0.929 . S
C1821 C1813 1.433 . S
C1821 N1823 1.384 . S
N1822 C1818 1.427 . S
N1822 C1819 1.384 . S
N1823 C1815 1.427 . S
N1823 C1821 1.384 . S
C535 C7 0.894 . S
C539 C93 0.895 . S
C553 C29 0.866 . S
C557 C115 0.913 . S
C571 C141 0.912 . S
C575 C50 0.863 . S
C589 C72 0.887 . S
C593 C163 0.896 . S
C607 C95 0.889 . S
C611 C181 0.903 . S
C625 C117 0.871 . S
C629 C251 0.904 . S
C643 C138 0.874 . S
C647 C203 0.911 . S
C661 C160 0.868 . S
C665 C229 0.907 . S
C679 C183 0.896 . S
C683 C5 0.895 . S
C697 C53 0.902 . S
C701 C205 0.874 . S
C715 C75 0.900 . S
C719 C226 0.893 . S
C733 C248 0.883 . S
C737 C27 0.907 . S
C751 C358 0.909 . S
C755 C269 0.865 . S
C769 C291 0.893 . S
C773 C380 0.895 . S
C787 C317 0.893 . S
C791 C403 0.900 . S
C805 C425 0.904 . S
C809 C339 0.887 . S
C823 C361 0.895 . S
C827 C446 0.897 . S
C841 C383 0.895 . S
C845 C513 0.895 . S
C859 C468 0.896 . S
C863 C401 0.887 . S
C877 C491 0.908 . S
C881 C423 0.880 . S
C895 C449 0.895 . S
C899 C271 0.895 . S
C913 C314 0.912 . S
C917 C471 0.863 . S
C931 C489 0.887 . S
C935 C336 0.896 . S
C949 C293 0.911 . S
C953 C511 0.864 . S
C967 C207 0.819 1_554 S
C971 C8 0.811 . S
C985 C30 0.814 . S
C989 C225 0.817 . S
C1003 C185 0.829 1_556 S
C1007 C48 0.788 . S
C1021 C70 0.801 . S
C1025 C247 0.825 . S
C1039 C96 0.791 . S
C1043 C71 0.830 1_455 S
C1057 C118 0.820 . S
C1061 C49 0.806 . S
C1075 C31 0.806 . S
C1079 C136 0.824 . S
C1093 C9 0.808 1_655 S
C1097 C158 0.824 . S
C1111 C119 0.831 1_545 S
C1115 C184 0.789 . S
C1129 C206 0.787 . S
C1133 C159 0.830 . S
C1147 C137 0.807 . S
C1151 C224 0.818 . S
C1165 C97 0.830 1_565 S
C1169 C246 0.787 . S
C1183 C469 0.809 1_556 S
C1187 C268 0.814 . S
C1201 C290 0.824 . S
C1205 C490 0.807 . S
C1219 C316 0.791 . S
C1223 C447 0.830 1_554 S
C1237 C338 0.791 . S
C1241 C512 0.830 . S
C1255 C337 0.805 1_655 S
C1259 C360 0.824 . S
C1273 C315 0.822 . S
C1277 C382 0.807 . S
C1291 C400 0.818 . S
C1295 C292 0.814 . S
C1309 C422 0.803 . S
C1313 C270 0.815 1_455 S
C1327 C381 0.806 1_565 S
C1331 C448 0.820 . S
C1345 C470 0.822 . S
C1349 C424 0.805 . S
C1363 C402 0.822 . S
C1367 C488 0.795 . S
C1381 C510 0.807 . S
C1385 C359 0.813 1_545 S
C1399 C4 1.150 . S
C1403 C427 1.209 . S
C1417 C26 1.167 . S
C1421 C405 1.197 . S
C1435 C379 1.200 . S
C1439 C52 1.171 . S
C1453 C357 1.209 . S
C1457 C74 1.150 . S
C1471 C515 1.204 . S
C1475 C92 1.170 . S
C1489 C114 1.166 . S
C1493 C445 1.208 . S
C1507 C140 1.151 . S
C1511 C493 1.203 . S
C1525 C162 1.151 . S
C1529 C467 1.204 . S
C1543 C313 1.208 . S
C1547 C180 1.166 . S
C1561 C273 1.205 . S
C1565 C202 1.149 . S
C1579 C295 1.209 . S
C1583 C228 1.162 . S
C1597 C335 1.210 . S
C1601 C250 1.154 . S
C1615 C161 1.205 . S
C1619 C272 1.150 . S
C1633 C139 1.210 . S
C1637 C294 1.159 . S
C1651 C116 1.210 . S
C1655 C312 1.151 . S
C1669 C94 1.197 . S
C1673 C334 1.165 . S
C1687 C356 1.167 . S
C1691 C249 1.207 . S
C1705 C378 1.161 . S
C1709 C182 1.210 . S
C1723 C404 1.149 . S
C1727 C227 1.206 . S
C1741 C426 1.149 . S
C1745 C204 1.207 . S
C1759 C444 1.163 . S
C1763 C51 1.197 . S
C1777 C6 1.210 . S
C1781 C466 1.159 . S
C1795 C28 1.206 . S
C1799 C492 1.149 . S
C1813 C73 1.208 . S
C1817 C514 1.165 . S
