# Generated by pormake.
# Topology noz, (5)-cn, num edge types: 1
# Building blocks:
#     Node 0, Type 0, BuildingBlock: BEQFEK_clean_sbu_0, # of connection points: 5
#     Node 1, Type 0, BuildingBlock: BEQFEK_clean_sbu_0, # of connection points: 5
#     Node 2, Type 0, BuildingBlock: BEQFEK_clean_sbu_0, # of connection points: 5
#     Node 3, Type 0, BuildingBlock: BEQFEK_clean_sbu_0, # of connection points: 5
#     Node 4, Type 0, BuildingBlock: BEQFEK_clean_sbu_0, # of connection points: 5
#     Node 5, Type 0, BuildingBlock: BEQFEK_clean_sbu_0, # of connection points: 5
#     Node 6, Type 0, BuildingBlock: BEQFEK_clean_sbu_0, # of connection points: 5
#     Node 7, Type 0, BuildingBlock: BEQFEK_clean_sbu_0, # of connection points: 5
#     Edge 8, Type (0, 0), BuildingBlock: ZUJKAS_clean_linker_0, # of connection points: 2
#     Edge 9, Type (0, 0), BuildingBlock: ZUJKAS_clean_linker_0, # of connection points: 2
#     Edge 10, Type (0, 0), BuildingBlock: ZUJKAS_clean_linker_0, # of connection points: 2
#     Edge 11, Type (0, 0), BuildingBlock: ZUJKAS_clean_linker_0, # of connection points: 2
#     Edge 12, Type (0, 0), BuildingBlock: ZUJKAS_clean_linker_0, # of connection points: 2
#     Edge 13, Type (0, 0), BuildingBlock: ZUJKAS_clean_linker_0, # of connection points: 2
#     Edge 14, Type (0, 0), BuildingBlock: ZUJKAS_clean_linker_0, # of connection points: 2
#     Edge 15, Type (0, 0), BuildingBlock: ZUJKAS_clean_linker_0, # of connection points: 2
#     Edge 16, Type (0, 0), BuildingBlock: ZUJKAS_clean_linker_0, # of connection points: 2
#     Edge 17, Type (0, 0), BuildingBlock: ZUJKAS_clean_linker_0, # of connection points: 2
#     Edge 18, Type (0, 0), BuildingBlock: ZUJKAS_clean_linker_0, # of connection points: 2
#     Edge 19, Type (0, 0), BuildingBlock: ZUJKAS_clean_linker_0, # of connection points: 2
#     Edge 20, Type (0, 0), BuildingBlock: ZUJKAS_clean_linker_0, # of connection points: 2
#     Edge 21, Type (0, 0), BuildingBlock: ZUJKAS_clean_linker_0, # of connection points: 2
#     Edge 22, Type (0, 0), BuildingBlock: ZUJKAS_clean_linker_0, # of connection points: 2
#     Edge 23, Type (0, 0), BuildingBlock: ZUJKAS_clean_linker_0, # of connection points: 2
#     Edge 24, Type (0, 0), BuildingBlock: ZUJKAS_clean_linker_0, # of connection points: 2
#     Edge 25, Type (0, 0), BuildingBlock: ZUJKAS_clean_linker_0, # of connection points: 2
#     Edge 26, Type (0, 0), BuildingBlock: ZUJKAS_clean_linker_0, # of connection points: 2
#     Edge 27, Type (0, 0), BuildingBlock: ZUJKAS_clean_linker_0, # of connection points: 2
# Relax obj value: 0.085
# Max RMSD: 0.167
# Mean RMSD: 0.118
data_MOF--net-noz--node1-BEQFEK_clean_sbu_0--edge1-ZUJKAS_clean_linker_0
_symmetry_space_group_name_H-M    P1
_symmetry_Int_Tables_number       1
_symmetry_cell_setting            triclinic
loop_
_symmetry_equiv_pos_as_xyz
'x, y, z'
_cell_length_a     30.779466
_cell_length_b     55.342639
_cell_length_c     54.537439
_cell_angle_alpha  88.835073
_cell_angle_beta   94.955412
_cell_angle_gamma 83.603188
loop_
_atom_site_label
_atom_site_type_symbol
_atom_site_fract_x
_atom_site_fract_y
_atom_site_fract_z
_atom_type_partial_charge
Co0 Co 0.09594 0.35968 0.37369 0.0
Co1 Co 0.02807 0.34302 0.4085 0.0
C2 C 0.11903 0.31888 0.41262 0.0
O3 O 0.1287 0.33288 0.39551 0.0
O4 O 0.0803 0.32027 0.41939 0.0
C5 C 0.15043 0.34911 0.33494 0.0
O6 O 0.14065 0.32704 0.33951 0.0
C7 C 0.96796 0.31481 0.43367 0.0
C8 C 0.91521 0.34392 0.44003 0.0
C9 C 0.92725 0.31909 0.44295 0.0
N10 N 0.97912 0.33616 0.42549 0.0
N11 N 0.94775 0.35349 0.42968 0.0
C12 C 0.99379 0.29075 0.43028 0.0
H13 H 0.01491 0.292 0.41492 0.0
H14 H 0.97161 0.2765 0.42656 0.0
H15 H 0.01521 0.28544 0.4474 0.0
C16 C 0.02182 0.35285 0.3361 0.0
N17 N 0.04125 0.35095 0.35934 0.0
N18 N 0.01395 0.3428 0.37398 0.0
C19 C 0.97685 0.33873 0.3605 0.0
C20 C 0.98027 0.34522 0.33609 0.0
C21 C 0.04076 0.36417 0.31489 0.0
H22 H 0.06005 0.37895 0.32136 0.0
H23 H 0.063 0.35012 0.30653 0.0
H24 H 0.01463 0.37162 0.30057 0.0
O25 O 0.08578 0.3892 0.39356 0.0
O26 O 0.03924 0.37605 0.41827 0.0
H27 H 0.92057 0.3429 0.38109 0.0
H28 H 0.91612 0.32222 0.35603 0.0
C29 C 0.93882 0.32865 0.37076 0.0
H30 H 0.95101 0.31309 0.38352 0.0
H31 H 0.94798 0.3718 0.42478 0.0
O32 O 0.13444 0.36652 0.34748 0.0
C33 C 0.06171 0.39249 0.41136 0.0
Co34 Co 0.50361 0.64325 0.87488 0.0
Co35 Co 0.58133 0.65479 0.91313 0.0
C36 C 0.49348 0.68396 0.91062 0.0
O37 O 0.47902 0.67113 0.89331 0.0
O38 O 0.53308 0.68004 0.91995 0.0
C39 C 0.43858 0.65787 0.83607 0.0
O40 O 0.44862 0.67936 0.84286 0.0
C41 C 0.65081 0.68002 0.9405 0.0
C42 C 0.6981 0.64843 0.95344 0.0
C43 C 0.69135 0.67359 0.9538 0.0
N44 N 0.63489 0.65956 0.93246 0.0
N45 N 0.66341 0.64081 0.94034 0.0
C46 C 0.62692 0.70503 0.93619 0.0
H47 H 0.59128 0.70437 0.93254 0.0
H48 H 0.63868 0.71366 0.91984 0.0
H49 H 0.63304 0.71643 0.95235 0.0
C50 C 0.57245 0.6471 0.84058 0.0
N51 N 0.55814 0.64868 0.86322 0.0
N52 N 0.59032 0.65397 0.87899 0.0
C53 C 0.62607 0.65609 0.86678 0.0
C54 C 0.61599 0.65175 0.84204 0.0
C55 C 0.54595 0.63919 0.81848 0.0
H56 H 0.52696 0.62434 0.82384 0.0
H57 H 0.52239 0.65477 0.811 0.0
H58 H 0.56706 0.6328 0.80388 0.0
O59 O 0.51024 0.6144 0.89748 0.0
O60 O 0.56429 0.62303 0.92448 0.0
H61 H 0.68461 0.64696 0.89068 0.0
H62 H 0.6915 0.66656 0.86469 0.0
C63 C 0.66889 0.66241 0.87857 0.0
H64 H 0.66292 0.6785 0.89007 0.0
H65 H 0.65914 0.62273 0.93677 0.0
O66 O 0.45911 0.63896 0.84709 0.0
C67 C 0.5358 0.60916 0.91697 0.0
Co68 Co 0.05486 0.65583 0.56698 0.0
Co69 Co 0.98849 0.63236 0.59823 0.0
C70 C 0.9596 0.67473 0.56291 0.0
O71 O 0.99845 0.67545 0.55691 0.0
O72 O 0.95114 0.65915 0.57883 0.0
C73 C 0.0983 0.69348 0.54644 0.0
O74 O 0.06224 0.70713 0.5508 0.0
C75 C 0.92609 0.63278 0.63566 0.0
C76 C 0.92548 0.59372 0.64457 0.0
C77 C 0.90776 0.61676 0.65061 0.0
N78 N 0.95315 0.61981 0.6215 0.0
N79 N 0.95243 0.59646 0.62677 0.0
C80 C 0.92117 0.65997 0.63606 0.0
H81 H 0.95042 0.66711 0.62931 0.0
H82 H 0.9166 0.66632 0.65494 0.0
H83 H 0.89196 0.66725 0.62366 0.0
C84 C 0.10199 0.65816 0.61615 0.0
N85 N 0.06652 0.65352 0.60157 0.0
N86 N 0.03954 0.64325 0.61487 0.0
C87 C 0.05738 0.64079 0.63843 0.0
C88 C 0.09761 0.65014 0.63998 0.0
C89 C 0.1395 0.66985 0.60719 0.0
H90 H 0.15668 0.65755 0.59441 0.0
H91 H 0.12665 0.68698 0.59688 0.0
H92 H 0.16315 0.67414 0.62256 0.0
O93 O 0.05323 0.62303 0.55359 0.0
O94 O 0.00615 0.60612 0.57538 0.0
H95 H 0.02879 0.60991 0.65131 0.0
H96 H 0.06258 0.62342 0.67474 0.0
C97 C 0.03867 0.62732 0.65836 0.0
H98 H 0.00903 0.63837 0.66392 0.0
H99 H 0.97087 0.58242 0.6185 0.0
O100 O 0.10218 0.67088 0.552 0.0
C101 C 0.03239 0.60514 0.55846 0.0
Co102 Co 0.50011 0.36697 0.11194 0.0
Co103 Co 0.57258 0.34924 0.07689 0.0
C104 C 0.48961 0.32677 0.07512 0.0
O105 O 0.47587 0.34108 0.09154 0.0
O106 O 0.5277 0.32726 0.06777 0.0
C107 C 0.42034 0.3725 0.1357 0.0
O108 O 0.40295 0.3685 0.1135 0.0
C109 C 0.64393 0.32252 0.05078 0.0
C110 C 0.67691 0.35369 0.03883 0.0
C111 C 0.67842 0.32866 0.03789 0.0
N112 N 0.62321 0.34311 0.05901 0.0
N113 N 0.64329 0.36158 0.05183 0.0
C114 C 0.62967 0.2978 0.05425 0.0
H115 H 0.59492 0.29914 0.05839 0.0
H116 H 0.65005 0.28816 0.07001 0.0
H117 H 0.63424 0.28696 0.03757 0.0
C118 C 0.57733 0.35643 0.149 0.0
N119 N 0.5584 0.35636 0.12577 0.0
N120 N 0.58832 0.34824 0.11118 0.0
C121 C 0.62713 0.34278 0.12462 0.0
C122 C 0.62151 0.34775 0.14907 0.0
C123 C 0.55341 0.36487 0.17056 0.0
H124 H 0.52564 0.35398 0.17234 0.0
H125 H 0.57516 0.36304 0.18797 0.0
H126 H 0.53949 0.38415 0.16726 0.0
O127 O 0.49887 0.39716 0.09099 0.0
O128 O 0.54864 0.3826 0.06645 0.0
H129 H 0.69774 0.3325 0.12798 0.0
H130 H 0.66689 0.31842 0.10361 0.0
C131 C 0.66952 0.3354 0.11379 0.0
H132 H 0.6758 0.3498 0.10056 0.0
H133 H 0.63391 0.37969 0.05574 0.0
O134 O 0.46153 0.37335 0.13913 0.0
C135 C 0.52133 0.3998 0.07274 0.0
Co136 Co 0.59194 0.86153 0.37591 0.0
Co137 Co 0.52446 0.84574 0.4117 0.0
C138 C 0.61564 0.82116 0.41482 0.0
O139 O 0.62536 0.83471 0.39738 0.0
O140 O 0.57719 0.82321 0.42198 0.0
C141 C 0.64633 0.85068 0.33716 0.0
O142 O 0.63814 0.8285 0.34262 0.0
C143 C 0.46413 0.81751 0.43747 0.0
C144 C 0.41744 0.84757 0.44892 0.0
C145 C 0.42634 0.82248 0.44958 0.0
N146 N 0.47649 0.83877 0.42972 0.0
N147 N 0.44851 0.85661 0.43677 0.0
C148 C 0.48879 0.79311 0.43403 0.0
H149 H 0.52379 0.79473 0.43204 0.0
H150 H 0.47481 0.78515 0.41702 0.0
H151 H 0.48598 0.78058 0.44982 0.0
C152 C 0.51671 0.85459 0.33915 0.0
N153 N 0.53662 0.85289 0.36228 0.0
N154 N 0.50919 0.84553 0.37733 0.0
C155 C 0.47134 0.84205 0.36428 0.0
C156 C 0.47463 0.84782 0.33968 0.0
C157 C 0.53583 0.86497 0.3175 0.0
H158 H 0.5545 0.88022 0.3233 0.0
H159 H 0.55877 0.85065 0.31004 0.0
H160 H 0.50993 0.87155 0.30271 0.0
O161 O 0.58279 0.89116 0.39584 0.0
O162 O 0.53618 0.87878 0.42097 0.0
H163 H 0.41745 0.84815 0.3865 0.0
H164 H 0.40757 0.82858 0.36092 0.0
C165 C 0.43255 0.83357 0.37524 0.0
H166 H 0.4435 0.81738 0.38735 0.0
H167 H 0.45049 0.87502 0.43315 0.0
O168 O 0.62938 0.86827 0.34913 0.0
C169 C 0.559 0.8949 0.41371 0.0
Co170 Co 0.00711 0.1423 0.87795 0.0
Co171 Co 0.08705 0.15165 0.91542 0.0
C172 C 1.00123 0.18271 0.91409 0.0
O173 O 0.98515 0.17054 0.8967 0.0
O174 O 0.04082 0.17767 0.92316 0.0
C175 C 0.93956 0.15757 0.84028 0.0
O176 O 0.94912 0.17903 0.84742 0.0
C177 C 0.15555 0.17752 0.94073 0.0
C178 C 0.20359 0.14717 0.95602 0.0
C179 C 0.19568 0.17233 0.95463 0.0
N180 N 0.14053 0.15641 0.93434 0.0
N181 N 0.16931 0.13834 0.94364 0.0
C182 C 0.13295 0.20194 0.93217 0.0
H183 H 0.11292 0.20044 0.91445 0.0
H184 H 0.15714 0.21509 0.92992 0.0
H185 H 0.11064 0.20883 0.94603 0.0
C186 C 0.07463 0.1456 0.84273 0.0
N187 N 0.0615 0.14693 0.86564 0.0
N188 N 0.0949 0.15104 0.88115 0.0
C189 C 0.13044 0.1524 0.86855 0.0
C190 C 0.11879 0.14899 0.84376 0.0
C191 C 0.04494 0.14154 0.82033 0.0
H192 H 0.01809 0.15672 0.818 0.0
H193 H 0.06235 0.14074 0.80336 0.0
H194 H 0.02995 0.12444 0.82292 0.0
O195 O 0.01333 0.11312 0.90036 0.0
O196 O 0.06953 0.12016 0.92664 0.0
H197 H 0.20068 0.15285 0.86704 0.0
H198 H 0.17564 0.17245 0.88927 0.0
C199 C 0.17548 0.15459 0.88043 0.0
H200 H 0.18418 0.14014 0.89494 0.0
H201 H 0.16567 0.11997 0.9414 0.0
O202 O 0.96125 0.1386 0.85059 0.0
C203 C 0.03981 0.107 0.91931 0.0
Co204 Co 0.5608 0.15782 0.56954 0.0
Co205 Co 0.49279 0.13467 0.59989 0.0
C206 C 0.46585 0.17663 0.56336 0.0
O207 O 0.50516 0.17788 0.55834 0.0
O208 O 0.45688 0.16087 0.57895 0.0
C209 C 0.60484 0.1834 0.53482 0.0
O210 O 0.56633 0.18552 0.52206 0.0
C211 C 0.42922 0.13498 0.63741 0.0
C212 C 0.42717 0.0957 0.64446 0.0
C213 C 0.41045 0.1185 0.65167 0.0
N214 N 0.45624 0.12243 0.62284 0.0
N215 N 0.45466 0.09896 0.62708 0.0
C216 C 0.42065 0.16217 0.63694 0.0
H217 H 0.42824 0.17004 0.61923 0.0
H218 H 0.44205 0.16942 0.65177 0.0
H219 H 0.38591 0.16804 0.64001 0.0
C220 C 0.60554 0.16077 0.61921 0.0
N221 N 0.57067 0.15595 0.60421 0.0
N222 N 0.54313 0.14571 0.61714 0.0
C223 C 0.56013 0.1433 0.64085 0.0
C224 C 0.60009 0.15292 0.64295 0.0
C225 C 0.64544 0.17004 0.61027 0.0
H226 H 0.65919 0.15738 0.59666 0.0
H227 H 0.63591 0.18802 0.60079 0.0
H228 H 0.67115 0.17176 0.62547 0.0
O229 O 0.55936 0.12487 0.55639 0.0
O230 O 0.51185 0.108 0.5779 0.0
H231 H 0.53188 0.11283 0.65499 0.0
H232 H 0.56076 0.1293 0.67839 0.0
C233 C 0.53942 0.13108 0.66086 0.0
H234 H 0.50822 0.14198 0.6642 0.0
H235 H 0.4726 0.08516 0.61822 0.0
O236 O 0.60964 0.17222 0.55561 0.0
C237 C 0.53861 0.10693 0.56124 0.0
Co238 Co 0.99659 0.8659 0.11435 0.0
Co239 Co 0.07164 0.84636 0.08164 0.0
C240 C 0.98813 0.82475 0.07822 0.0
O241 O 0.97342 0.8398 0.09377 0.0
O242 O 0.02711 0.8244 0.07191 0.0
C243 C 0.91533 0.87104 0.13707 0.0
O244 O 0.899 0.86517 0.11523 0.0
C245 C 0.13906 0.8218 0.05136 0.0
C246 C 0.18799 0.8482 0.05467 0.0
C247 C 0.17975 0.82644 0.04413 0.0
N248 N 0.1246 0.83985 0.06583 0.0
N249 N 0.1539 0.8556 0.06751 0.0
C250 C 0.11248 0.80196 0.04297 0.0
H251 H 0.07727 0.80906 0.04017 0.0
H252 H 0.11644 0.78724 0.05738 0.0
H253 H 0.12283 0.79437 0.02545 0.0
C254 C 0.07076 0.85571 0.15324 0.0
N255 N 0.05361 0.85509 0.1297 0.0
N256 N 0.0842 0.84546 0.11625 0.0
C257 C 0.12136 0.83895 0.13093 0.0
C258 C 0.11424 0.84545 0.15482 0.0
C259 C 0.04596 0.86628 0.17365 0.0
H260 H 0.01828 0.85554 0.17636 0.0
H261 H 0.06712 0.8661 0.1912 0.0
H262 H 0.03183 0.88519 0.16842 0.0
O263 O 0.99789 0.89547 0.09312 0.0
O264 O 0.04943 0.87981 0.07018 0.0
H265 H 0.18137 0.84353 0.11543 0.0
H266 H 0.18549 0.8182 0.13682 0.0
C267 C 0.1639 0.8285 0.12196 0.0
H268 H 0.15773 0.81622 0.10655 0.0
H269 H 0.15043 0.87155 0.0774 0.0
O270 O 0.95611 0.87313 0.14053 0.0
C271 C 0.022 0.89742 0.0755 0.0
H272 H 0.18346 0.31663 0.30234 0.0
H273 H 0.23082 0.32384 0.26991 0.0
H274 H 0.23032 0.39869 0.29049 0.0
H275 H 0.18204 0.39176 0.32275 0.0
H276 H 0.21793 0.39443 0.24078 0.0
H277 H 0.36078 0.33076 0.27836 0.0
H278 H 0.31138 0.31635 0.27425 0.0
H279 H 0.3153 0.34012 0.29611 0.0
C280 C 0.19351 0.33462 0.30007 0.0
C281 C 0.17917 0.35358 0.31526 0.0
C282 C 0.22085 0.33867 0.28159 0.0
C283 C 0.23489 0.36167 0.27809 0.0
C284 C 0.22016 0.38074 0.29299 0.0
H285 H 0.44525 0.38137 0.18387 0.0
H286 H 0.40043 0.38159 0.21884 0.0
C287 C 0.1926 0.37674 0.31143 0.0
C288 C 0.26402 0.36589 0.25846 0.0
H289 H 0.36127 0.34461 0.23657 0.0
C290 C 0.24946 0.38369 0.23997 0.0
C291 C 0.30553 0.3522 0.25764 0.0
C292 C 0.32442 0.33397 0.27779 0.0
C293 C 0.27456 0.38756 0.22022 0.0
C294 C 0.31488 0.37287 0.21864 0.0
C295 C 0.33014 0.35569 0.23761 0.0
C296 C 0.34118 0.37445 0.19718 0.0
C297 C 0.25771 0.40744 0.20132 0.0
C298 C 0.32283 0.37036 0.17337 0.0
C299 C 0.34826 0.37037 0.15333 0.0
C300 C 0.39278 0.37416 0.15673 0.0
C301 C 0.41105 0.37843 0.18058 0.0
C302 C 0.38549 0.37854 0.20061 0.0
H303 H 0.23483 0.42165 0.20907 0.0
H304 H 0.28507 0.41621 0.19424 0.0
H305 H 0.23944 0.39951 0.1856 0.0
H306 H 0.28906 0.36655 0.17032 0.0
H307 H 0.33321 0.36683 0.13527 0.0
H308 H 0.38386 0.69487 0.81245 0.0
H309 H 0.32446 0.69192 0.78037 0.0
H310 H 0.35398 0.61383 0.78231 0.0
H311 H 0.41315 0.61657 0.81484 0.0
H312 H 0.32874 0.67356 0.73448 0.0
H313 H 0.2221 0.62249 0.78846 0.0
H314 H 0.26742 0.6368 0.80269 0.0
H315 H 0.27728 0.60808 0.78816 0.0
C316 C 0.37772 0.67703 0.80613 0.0
C317 C 0.40315 0.65593 0.81628 0.0
C318 C 0.3437 0.67539 0.78779 0.0
C319 C 0.33432 0.65265 0.77922 0.0
C320 C 0.35998 0.63154 0.78906 0.0
H321 H 0.18232 0.62983 0.64181 0.0
H322 H 0.23934 0.6298 0.67606 0.0
C323 C 0.39398 0.63315 0.80752 0.0
C324 C 0.29857 0.65127 0.75941 0.0
H325 H 0.20129 0.62812 0.74555 0.0
C326 C 0.30086 0.66365 0.73692 0.0
C327 C 0.26194 0.63857 0.76274 0.0
C328 C 0.25666 0.62591 0.78688 0.0
C329 C 0.26778 0.66348 0.71757 0.0
C330 C 0.2318 0.65022 0.72065 0.0
C331 C 0.22915 0.63808 0.74321 0.0
C332 C 0.19662 0.64889 0.70056 0.0
C333 C 0.27124 0.67784 0.69413 0.0
C334 C 0.15339 0.6589 0.70331 0.0
C335 C 0.1208 0.65892 0.68375 0.0
C336 C 0.13106 0.64888 0.66125 0.0
C337 C 0.17391 0.63808 0.65886 0.0
C338 C 0.20641 0.63806 0.67837 0.0
H339 H 0.29458 0.69169 0.69694 0.0
H340 H 0.28329 0.66526 0.67998 0.0
H341 H 0.23871 0.68716 0.68688 0.0
H342 H 0.14517 0.66722 0.72037 0.0
H343 H 0.08788 0.66726 0.68597 0.0
H344 H 0.9078 0.59285 0.69461 0.0
H345 H 0.85707 0.60112 0.72646 0.0
H346 H 0.78769 0.66076 0.68183 0.0
H347 H 0.83786 0.65238 0.64975 0.0
H348 H 0.83821 0.64809 0.75112 0.0
H349 H 0.69233 0.61596 0.69967 0.0
H350 H 0.74764 0.60704 0.69197 0.0
H351 H 0.72135 0.63702 0.68371 0.0
C352 C 0.88172 0.60772 0.69159 0.0
C353 C 0.87725 0.62221 0.66986 0.0
C354 C 0.8529 0.61246 0.70981 0.0
C355 C 0.81863 0.63149 0.70643 0.0
C356 C 0.81388 0.64593 0.68472 0.0
H357 H 0.6038 0.67486 0.79695 0.0
H358 H 0.65345 0.67161 0.76393 0.0
C359 C 0.84291 0.64131 0.66654 0.0
C360 C 0.78802 0.63619 0.72575 0.0
H361 H 0.68251 0.63209 0.73872 0.0
C362 C 0.80413 0.64465 0.74845 0.0
C363 C 0.74359 0.63183 0.72207 0.0
C364 C 0.725 0.62231 0.69812 0.0
C365 C 0.77689 0.64892 0.76764 0.0
C366 C 0.73265 0.64395 0.76422 0.0
C367 C 0.71641 0.63585 0.74134 0.0
C368 C 0.70303 0.64636 0.78435 0.0
C369 C 0.79562 0.65906 0.79124 0.0
C370 C 0.7141 0.63302 0.80663 0.0
C371 C 0.68595 0.63497 0.82544 0.0
C372 C 0.646 0.65008 0.82221 0.0
C373 C 0.63453 0.66314 0.79983 0.0
C374 C 0.66283 0.6613 0.78103 0.0
H375 H 0.82444 0.66883 0.78821 0.0
H376 H 0.77068 0.67175 0.79941 0.0
H377 H 0.80674 0.64387 0.80471 0.0
H378 H 0.74428 0.62083 0.80936 0.0
H379 H 0.69506 0.62437 0.84238 0.0
H380 H 0.6448 0.38534 0.17678 0.0
H381 H 0.70695 0.38468 0.20835 0.0
H382 H 0.73909 0.30783 0.19848 0.0
H383 H 0.67674 0.30845 0.16704 0.0
H384 H 0.7404 0.32247 0.24893 0.0
H385 H 0.83771 0.37707 0.19227 0.0
H386 H 0.78244 0.39027 0.19534 0.0
H387 H 0.79179 0.36244 0.17924 0.0
C388 C 0.6649 0.3683 0.18163 0.0
C389 C 0.65627 0.34694 0.1696 0.0
C390 C 0.70052 0.36797 0.19943 0.0
C391 C 0.72797 0.34628 0.20542 0.0
C392 C 0.71845 0.32477 0.19398 0.0
H393 H 0.98506 0.32747 0.28984 0.0
H394 H 0.92457 0.3275 0.25719 0.0
C395 C 0.68295 0.32512 0.17611 0.0
C396 C 0.76675 0.34604 0.22355 0.0
H397 H 0.86547 0.36854 0.2339 0.0
C398 C 0.7678 0.33247 0.24564 0.0
C399 C 0.8027 0.35884 0.21901 0.0
C400 C 0.80402 0.37284 0.19511 0.0
C401 C 0.80343 0.33188 0.26363 0.0
C402 C 0.8387 0.34533 0.25943 0.0
C403 C 0.8382 0.3584 0.23709 0.0
C404 C 0.87584 0.34645 0.27838 0.0
C405 C 0.8032 0.31678 0.28696 0.0
C406 C 0.8686 0.35771 0.30069 0.0
C407 C 0.90294 0.35784 0.31913 0.0
C408 C 0.9451 0.34663 0.31564 0.0
C409 C 0.95278 0.33616 0.29295 0.0
C410 C 0.91833 0.33611 0.2744 0.0
H411 H 0.77917 0.30323 0.28492 0.0
H412 H 0.83628 0.30705 0.29241 0.0
H413 H 0.79405 0.32892 0.30208 0.0
H414 H 0.83625 0.36622 0.30391 0.0
H415 H 0.89644 0.36652 0.33627 0.0
H416 H 0.68274 0.8174 0.30637 0.0
H417 H 0.72948 0.82438 0.27357 0.0
H418 H 0.7211 0.90059 0.28988 0.0
H419 H 0.67348 0.89385 0.32253 0.0
H420 H 0.70984 0.8932 0.24038 0.0
H421 H 0.8578 0.83574 0.28174 0.0
H422 H 0.81032 0.81958 0.27864 0.0
H423 H 0.81139 0.84484 0.29888 0.0
C424 C 0.6909 0.83565 0.30307 0.0
C425 C 0.67458 0.85504 0.3172 0.0
C426 C 0.71789 0.83958 0.28439 0.0
C427 C 0.72954 0.86291 0.27959 0.0
C428 C 0.7128 0.88239 0.2934 0.0
H429 H 0.93799 0.88369 0.18442 0.0
H430 H 0.89273 0.88468 0.21922 0.0
C431 C 0.68562 0.8785 0.31206 0.0
C432 C 0.75836 0.86697 0.25977 0.0
H433 H 0.8576 0.84736 0.23927 0.0
C434 C 0.74231 0.88335 0.24023 0.0
C435 C 0.80106 0.85446 0.2598 0.0
C436 C 0.82138 0.83787 0.28102 0.0
C437 C 0.76716 0.88688 0.22028 0.0
C438 C 0.80881 0.87329 0.21963 0.0
C439 C 0.82548 0.85759 0.23961 0.0
C440 C 0.83514 0.87445 0.19813 0.0
C441 C 0.74861 0.90524 0.20019 0.0
C442 C 0.81786 0.86839 0.17468 0.0
C443 C 0.84353 0.86794 0.15473 0.0
C444 C 0.88727 0.87326 0.15787 0.0
C445 C 0.90442 0.87954 0.18134 0.0
C446 C 0.87861 0.88009 0.20127 0.0
H447 H 0.72419 0.91925 0.20701 0.0
H448 H 0.77491 0.91448 0.19255 0.0
H449 H 0.73165 0.89578 0.18505 0.0
H450 H 0.78482 0.86336 0.1719 0.0
H451 H 0.82937 0.86285 0.13697 0.0
H452 H 0.634 0.19117 0.66478 0.0
H453 H 0.6909 0.1899 0.69942 0.0
H454 H 0.69585 0.11173 0.70434 0.0
H455 H 0.63942 0.11298 0.66947 0.0
H456 H 0.69032 0.16997 0.74828 0.0
H457 H 0.82472 0.12393 0.69825 0.0
H458 H 0.77403 0.13825 0.68257 0.0
H459 H 0.77566 0.10905 0.6978 0.0
C460 C 0.64726 0.17378 0.67338 0.0
C461 C 0.63247 0.15219 0.66466 0.0
C462 C 0.67961 0.17305 0.69309 0.0
C463 C 0.69791 0.1507 0.70422 0.0
C464 C 0.68259 0.12913 0.69577 0.0
H465 H 0.90993 0.11625 0.82126 0.0
H466 H 0.85008 0.11369 0.78904 0.0
C467 C 0.65017 0.12986 0.67607 0.0
C468 C 0.73307 0.15007 0.72465 0.0
H469 H 0.84154 0.13115 0.74035 0.0
C470 C 0.72339 0.16147 0.74658 0.0
C471 C 0.77608 0.13885 0.72238 0.0
C472 C 0.78856 0.12697 0.69894 0.0
C473 C 0.7556 0.16194 0.76637 0.0
C474 C 0.79886 0.15116 0.76394 0.0
C475 C 0.80836 0.1394 0.74215 0.0
C476 C 0.83505 0.15264 0.78346 0.0
C477 C 0.74288 0.17375 0.78981 0.0
C478 C 0.84693 0.17537 0.79068 0.0
C479 C 0.88095 0.1769 0.80905 0.0
C480 C 0.90409 0.1557 0.82047 0.0
C481 C 0.89266 0.13292 0.8129 0.0
C482 C 0.8585 0.13141 0.7945 0.0
H483 H 0.70697 0.17465 0.79134 0.0
H484 H 0.76039 0.16372 0.80626 0.0
H485 H 0.75179 0.19263 0.78985 0.0
H486 H 0.82999 0.19197 0.78199 0.0
H487 H 0.88907 0.19474 0.81428 0.0
H488 H 0.17205 0.1819 0.82959 0.0
H489 H 0.22118 0.17822 0.79629 0.0
H490 H 0.17991 0.10804 0.77928 0.0
H491 H 0.13145 0.1115 0.81276 0.0
H492 H 0.29104 0.13843 0.79098 0.0
H493 H 0.16218 0.14791 0.71236 0.0
H494 H 0.15181 0.158 0.74283 0.0
H495 H 0.15497 0.12623 0.73626 0.0
C496 C 0.1736 0.16573 0.81869 0.0
C497 C 0.14784 0.14706 0.8235 0.0
C498 C 0.20148 0.16367 0.79972 0.0
C499 C 0.20364 0.14302 0.78516 0.0
C500 C 0.17808 0.12431 0.79004 0.0
H501 H 0.34572 0.0916 0.66281 0.0
H502 H 0.29636 0.09799 0.69553 0.0
C503 C 0.15046 0.1263 0.80909 0.0
C504 C 0.23354 0.14063 0.76528 0.0
H505 H 0.23522 0.13638 0.70302 0.0
C506 C 0.27895 0.13814 0.77172 0.0
C507 C 0.21751 0.14013 0.74025 0.0
C508 C 0.16896 0.14339 0.73236 0.0
C509 C 0.30892 0.13454 0.75377 0.0
C510 C 0.29292 0.13406 0.72866 0.0
C511 C 0.24743 0.13676 0.72225 0.0
C512 C 0.32279 0.13043 0.70877 0.0
C513 C 0.35735 0.13053 0.76196 0.0
C514 C 0.35379 0.14664 0.7052 0.0
C515 C 0.38228 0.14291 0.68667 0.0
C516 C 0.37967 0.12317 0.67097 0.0
C517 C 0.34839 0.10705 0.67451 0.0
C518 C 0.32008 0.11072 0.69313 0.0
H519 H 0.36344 0.12466 0.78168 0.0
H520 H 0.37465 0.1166 0.75078 0.0
H521 H 0.37181 0.14783 0.75965 0.0
H522 H 0.35611 0.16216 0.71682 0.0
H523 H 0.40693 0.15518 0.68515 0.0
H524 H 0.16343 0.80653 0.17839 0.0
H525 H 0.22482 0.80726 0.2102 0.0
H526 H 0.20249 0.88563 0.20965 0.0
H527 H 0.14147 0.88488 0.17762 0.0
H528 H 0.29132 0.86618 0.20528 0.0
H529 H 0.22084 0.82365 0.28374 0.0
H530 H 0.21865 0.80706 0.25575 0.0
H531 H 0.18744 0.8364 0.25671 0.0
C532 C 0.17148 0.82384 0.18532 0.0
C533 C 0.14794 0.84564 0.17576 0.0
C534 C 0.20632 0.82425 0.20349 0.0
C535 C 0.21797 0.8465 0.21237 0.0
C536 C 0.19392 0.86829 0.20307 0.0
H537 H 0.39276 0.87187 0.33939 0.0
H538 H 0.33166 0.87195 0.3075 0.0
C539 C 0.15902 0.86786 0.18496 0.0
C540 C 0.25632 0.84713 0.23064 0.0
H541 H 0.29584 0.83002 0.28956 0.0
C542 C 0.29236 0.85831 0.22373 0.0
C543 C 0.25736 0.83697 0.2547 0.0
C544 C 0.21891 0.8255 0.26334 0.0
C545 C 0.32967 0.85945 0.24024 0.0
C546 C 0.331 0.84893 0.26417 0.0
C547 C 0.29481 0.83791 0.27112 0.0
C548 C 0.36898 0.84983 0.28263 0.0
C549 C 0.367 0.87228 0.23215 0.0
C550 C 0.41032 0.83753 0.2791 0.0
C551 C 0.44524 0.83739 0.29738 0.0
C552 C 0.4391 0.84939 0.31945 0.0
C553 C 0.39806 0.86219 0.32264 0.0
C554 C 0.36324 0.86229 0.30446 0.0
H555 H 0.35704 0.88381 0.21525 0.0
H556 H 0.37951 0.88386 0.24696 0.0
H557 H 0.39436 0.85853 0.22814 0.0
H558 H 0.41526 0.82756 0.2625 0.0
H559 H 0.47662 0.82735 0.29459 0.0
H560 H 0.08581 0.59666 0.52125 0.0
H561 H 0.09192 0.56144 0.49501 0.0
H562 H 0.99806 0.52852 0.53526 0.0
H563 H 0.99125 0.56381 0.56154 0.0
H564 H 0.11649 0.51187 0.50777 0.0
H565 H 0.94638 0.5282 0.46307 0.0
H566 H 0.97194 0.55105 0.48046 0.0
H567 H 0.95 0.52688 0.49613 0.0
C568 C 0.06644 0.58195 0.52461 0.0
C569 C 0.03775 0.58317 0.54343 0.0
C570 C 0.07004 0.56183 0.50957 0.0
C571 C 0.04491 0.54261 0.51295 0.0
C572 C 0.01708 0.54342 0.53206 0.0
H573 H 0.01183 0.40537 0.44896 0.0
H574 H 0.00989 0.44245 0.47226 0.0
C575 C 0.01344 0.56355 0.54715 0.0
C576 C 0.04793 0.52168 0.49647 0.0
H577 H 0.98733 0.49065 0.45519 0.0
C578 C 0.08839 0.50728 0.49612 0.0
C579 C 0.01122 0.51591 0.48122 0.0
C580 C 0.9675 0.53142 0.47999 0.0
C581 C 0.09275 0.48669 0.48152 0.0
C582 C 0.05581 0.48067 0.46662 0.0
C583 C 0.01558 0.49534 0.46665 0.0
C584 C 0.05742 0.45842 0.45196 0.0
C585 C 0.13638 0.47109 0.4828 0.0
C586 C 0.08448 0.45524 0.43255 0.0
C587 C 0.0858 0.43392 0.4191 0.0
C588 C 0.05991 0.41552 0.42482 0.0
C589 C 0.03237 0.41907 0.44405 0.0
C590 C 0.03112 0.44029 0.45742 0.0
H591 H 0.15867 0.47534 0.49887 0.0
H592 H 0.13179 0.45149 0.48395 0.0
H593 H 0.15262 0.47433 0.46584 0.0
H594 H 0.10446 0.46925 0.42778 0.0
H595 H 0.1072 0.43181 0.40435 0.0
H596 H 0.4682 0.58082 0.91285 0.0
H597 H 0.45584 0.54732 0.94036 0.0
H598 H 0.57807 0.55475 0.98301 0.0
H599 H 0.59014 0.58867 0.95604 0.0
H600 H 0.50113 0.50425 0.95057 0.0
H601 H 0.49583 0.55529 0.03652 0.0
H602 H 0.49381 0.57021 0.00664 0.0
H603 H 0.54565 0.55792 0.02241 0.0
C604 C 0.49253 0.57531 0.92805 0.0
C605 C 0.53006 0.58753 0.93232 0.0
C606 C 0.4853 0.55622 0.94383 0.0
C607 C 0.51543 0.54894 0.96414 0.0
C608 C 0.55362 0.56057 0.96796 0.0
H609 H 0.57375 0.41269 0.03826 0.0
H610 H 0.56573 0.44946 0.01261 0.0
C611 C 0.56071 0.5798 0.95234 0.0
C612 C 0.50797 0.5285 0.98072 0.0
H613 H 0.50785 0.51157 0.04132 0.0
C614 C 0.50197 0.50597 0.97038 0.0
C615 C 0.50798 0.53082 0.00655 0.0
C616 C 0.51067 0.55495 0.01865 0.0
C617 C 0.49851 0.48542 0.98522 0.0
C618 C 0.50222 0.4873 0.01115 0.0
C619 C 0.50563 0.51009 0.02146 0.0
C620 C 0.50678 0.46542 0.02768 0.0
C621 C 0.49158 0.46177 0.97298 0.0
C622 C 0.47727 0.46259 0.04553 0.0
C623 C 0.48201 0.44145 0.06064 0.0
C624 C 0.51642 0.42294 0.05807 0.0
C625 C 0.54647 0.42633 0.0406 0.0
C626 C 0.54184 0.44735 0.02574 0.0
H627 H 0.47489 0.46501 0.95412 0.0
H628 H 0.52393 0.45116 0.97133 0.0
H629 H 0.47175 0.45066 0.98385 0.0
H630 H 0.45026 0.47653 0.0475 0.0
H631 H 0.45845 0.43943 0.07397 0.0
H632 H 0.49622 0.06601 0.56354 0.0
H633 H 0.50324 0.03076 0.53722 0.0
H634 H 0.60025 0.06282 0.4987 0.0
H635 H 0.59388 0.098 0.52497 0.0
H636 H 0.48763 0.03227 0.48496 0.0
H637 H 0.65818 0.99308 0.51612 0.0
H638 H 0.62673 0.01474 0.53386 0.0
H639 H 0.65149 0.02487 0.50743 0.0
C640 C 0.51941 0.06548 0.54966 0.0
C641 C 0.54451 0.08485 0.54641 0.0
C642 C 0.5233 0.04534 0.53461 0.0
C643 C 0.55257 0.04411 0.51621 0.0
C644 C 0.57802 0.06324 0.51308 0.0
H645 H 0.60767 0.933 0.40715 0.0
H646 H 0.60613 0.97069 0.43022 0.0
C647 C 0.57413 0.08339 0.52806 0.0
C648 C 0.55491 0.02334 0.49953 0.0
H649 H 0.623 0.975 0.48204 0.0
C650 C 0.5172 0.01973 0.48431 0.0
C651 C 0.59371 0.00722 0.49857 0.0
C652 C 0.6348 0.00996 0.51498 0.0
C653 C 0.51715 0.0003 0.46821 0.0
C654 C 0.55561 0.98383 0.46766 0.0
C655 C 0.59363 0.98772 0.48248 0.0
C656 C 0.55602 0.96152 0.45314 0.0
C657 C 0.47595 0.99762 0.45185 0.0
C658 C 0.52869 0.94389 0.45859 0.0
C659 C 0.52946 0.92248 0.44555 0.0
C660 C 0.55784 0.91812 0.42682 0.0
C661 C 0.58531 0.93583 0.42138 0.0
C662 C 0.58455 0.95733 0.43454 0.0
H663 H 0.45448 0.01516 0.44912 0.0
H664 H 0.48389 0.99082 0.43356 0.0
H665 H 0.45714 0.98435 0.46061 0.0
H666 H 0.50708 0.94656 0.4732 0.0
H667 H 0.50793 0.90926 0.45035 0.0
H668 H 0.07863 0.90961 0.04299 0.0
H669 H 0.07363 0.94618 0.01704 0.0
H670 H 0.9534 0.97363 0.04717 0.0
H671 H 0.95854 0.93691 0.07386 0.0
H672 H 0.00863 0.96276 0.98129 0.0
H673 H 0.0267 0.03078 0.05413 0.0
H674 H 0.03893 0.99848 0.0604 0.0
H675 H 0.98295 0.01214 0.05656 0.0
C676 C 0.0511 0.9234 0.04428 0.0
C677 C 0.01891 0.9203 0.06054 0.0
C678 C 0.04831 0.94432 0.02935 0.0
C679 C 0.01331 0.96268 0.03023 0.0
C680 C 0.98107 0.95982 0.04648 0.0
H681 H 0.97204 0.07864 0.91509 0.0
H682 H 0.96135 0.04399 0.9416 0.0
C683 C 0.98397 0.93882 0.06164 0.0
C684 C 0.01093 0.98442 0.01364 0.0
H685 H 0.01801 0.04554 0.01298 0.0
C686 C 0.01031 0.98092 0.98818 0.0
C687 C 0.01353 0.00801 0.02273 0.0
C688 C 0.01593 0.0127 0.04995 0.0
C689 C 0.01342 0.00023 0.97159 0.0
C690 C 0.01622 0.02381 0.98068 0.0
C691 C 0.01572 0.02744 0.00608 0.0
C692 C 0.02237 0.04468 0.96437 0.0
C693 C 0.01563 0.99499 0.94464 0.0
C694 C 0.0599 0.05677 0.96856 0.0
C695 C 0.06597 0.07667 0.9536 0.0
C696 C 0.03455 0.08491 0.93409 0.0
C697 C 0.9971 0.07263 0.92979 0.0
C698 C 0.99094 0.05278 0.9449 0.0
H699 H 0.02361 0.97526 0.94161 0.0
H700 H 0.98329 0.00103 0.93452 0.0
H701 H 0.04066 0.00498 0.93664 0.0
H702 H 0.08459 0.05079 0.98347 0.0
H703 H 0.09517 0.08568 0.95747 0.0
H704 H 0.11085 0.2863 0.44998 0.0
H705 H 0.16973 0.26194 0.47545 0.0
H706 H 0.26561 0.28886 0.43201 0.0
H707 H 0.20707 0.3135 0.40652 0.0
H708 H 0.23662 0.22576 0.46278 0.0
H709 H 0.30516 0.30633 0.50315 0.0
H710 H 0.25136 0.30823 0.48668 0.0
H711 H 0.29951 0.30637 0.47008 0.0
C712 C 0.14442 0.28695 0.44568 0.0
C713 C 0.15421 0.30208 0.42631 0.0
C714 C 0.17801 0.273 0.46029 0.0
C715 C 0.22202 0.27398 0.45591 0.0
C716 C 0.23187 0.28825 0.436 0.0
H717 H 0.47202 0.21001 0.52644 0.0
H718 H 0.41211 0.23347 0.50101 0.0
C719 C 0.19831 0.30219 0.42134 0.0
C720 C 0.25761 0.2604 0.47246 0.0
H721 H 0.34533 0.2679 0.51327 0.0
C722 C 0.26033 0.23493 0.4739 0.0
C723 C 0.28838 0.27248 0.48695 0.0
C724 C 0.28592 0.29987 0.48689 0.0
C725 C 0.29366 0.22114 0.48908 0.0
C726 C 0.32449 0.23322 0.50357 0.0
C727 C 0.32164 0.2587 0.50217 0.0
C728 C 0.36055 0.21971 0.51989 0.0
C729 C 0.29624 0.19375 0.48898 0.0
C730 C 0.35147 0.20468 0.53941 0.0
C731 C 0.38568 0.19117 0.55402 0.0
C732 C 0.42967 0.19258 0.54946 0.0
C733 C 0.4386 0.20839 0.53045 0.0
C734 C 0.40438 0.22183 0.51585 0.0
H735 H 0.27742 0.18737 0.47253 0.0
H736 H 0.33084 0.18541 0.48941 0.0
H737 H 0.28217 0.18715 0.50559 0.0
H738 H 0.31789 0.20322 0.54321 0.0
H739 H 0.37759 0.17934 0.5686 0.0
H740 H 0.51128 0.71666 0.94633 0.0
H741 H 0.4581 0.74308 0.96735 0.0
H742 H 0.35206 0.7179 0.92145 0.0
H743 H 0.40472 0.69215 0.89985 0.0
H744 H 0.33711 0.76572 0.92813 0.0
H745 H 0.38562 0.71738 0.01814 0.0
H746 H 0.42997 0.7302 0.00528 0.0
H747 H 0.40493 0.7062 0.98974 0.0
C748 C 0.47667 0.71695 0.94052 0.0
C749 C 0.46228 0.70208 0.92157 0.0
C750 C 0.44631 0.73191 0.9527 0.0
C751 C 0.40107 0.73196 0.94639 0.0
C752 C 0.38678 0.718 0.92675 0.0
H753 H 0.19541 0.77671 0.04076 0.0
H754 H 0.24672 0.75406 0.01545 0.0
C755 C 0.41703 0.70327 0.91442 0.0
C756 C 0.36834 0.74598 0.96056 0.0
H757 H 0.33399 0.75248 0.01816 0.0
C758 C 0.33639 0.76284 0.94782 0.0
C759 C 0.3669 0.7418 0.98616 0.0
C760 C 0.39839 0.72275 1.00062 0.0
C761 C 0.30327 0.7758 0.96001 0.0
C762 C 0.30284 0.77228 0.98576 0.0
C763 C 0.33456 0.75528 0.99845 0.0
C764 C 0.26991 0.78608 0.99997 0.0
C765 C 0.26849 0.79266 0.94505 0.0
C766 C 0.26606 0.81157 0.99979 0.0
C767 C 0.23603 0.82454 0.01377 0.0
C768 C 0.20945 0.81229 0.02837 0.0
C769 C 0.21393 0.78674 0.0289 0.0
C770 C 0.24375 0.77376 0.01472 0.0
H771 H 0.26557 0.78767 0.92539 0.0
H772 H 0.23593 0.79245 0.95233 0.0
H773 H 0.27755 0.81149 0.94584 0.0
H774 H 0.28681 0.82146 0.98916 0.0
H775 H 0.23383 0.84422 0.01326 0.0
H776 H 0.17925 0.67106 0.53789 0.0
H777 H 0.23936 0.68959 0.52106 0.0
H778 H 0.15986 0.75907 0.5149 0.0
H779 H 0.09947 0.74074 0.53143 0.0
H780 H 0.20286 0.74618 0.47237 0.0
H781 H 0.31696 0.73618 0.55774 0.0
H782 H 0.29569 0.70884 0.5473 0.0
H783 H 0.25913 0.73325 0.5578 0.0
C784 C 0.17454 0.69029 0.53294 0.0
C785 C 0.13461 0.70446 0.53605 0.0
C786 C 0.209 0.70085 0.52347 0.0
C787 C 0.20415 0.72573 0.51704 0.0
C788 C 0.16422 0.73984 0.51985 0.0
H789 H 0.38351 0.82869 0.49075 0.0
H790 H 0.33208 0.80299 0.50681 0.0
C791 C 0.1298 0.72933 0.52933 0.0
C792 C 0.24039 0.73719 0.50713 0.0
H793 H 0.34322 0.75289 0.52244 0.0
C794 C 0.23368 0.74754 0.48322 0.0
C795 C 0.28034 0.73903 0.52148 0.0
C796 C 0.28857 0.72893 0.54758 0.0
C797 C 0.26574 0.75997 0.47333 0.0
C798 C 0.30573 0.76178 0.48765 0.0
C799 C 0.31264 0.75123 0.51148 0.0
C800 C 0.33944 0.77606 0.47882 0.0
C801 C 0.25597 0.77179 0.44797 0.0
C802 C 0.36114 0.76915 0.45804 0.0
C803 C 0.39047 0.78383 0.4488 0.0
C804 C 0.39883 0.80552 0.46037 0.0
C805 C 0.37779 0.81204 0.48152 0.0
C806 C 0.34856 0.79736 0.49075 0.0
H807 H 0.22058 0.77282 0.44146 0.0
H808 H 0.26598 0.79045 0.44777 0.0
H809 H 0.2749 0.76097 0.43473 0.0
H810 H 0.35467 0.75268 0.44868 0.0
H811 H 0.40509 0.77865 0.43208 0.0
H812 H 0.28481 0.16725 0.95839 0.0
H813 H 0.33411 0.19397 0.97888 0.0
H814 H 0.22242 0.24173 0.99787 0.0
H815 H 0.17291 0.215 0.97762 0.0
H816 H 0.3326 0.24863 0.96886 0.0
H817 H 0.30332 0.22123 0.06433 0.0
H818 H 0.29325 0.20222 0.03837 0.0
H819 H 0.25605 0.22881 0.0426 0.0
C820 C 0.27078 0.18351 0.96684 0.0
C821 C 0.22501 0.18924 0.96605 0.0
C822 C 0.29894 0.19874 0.97847 0.0
C823 C 0.28183 0.21973 0.9899 0.0
C824 C 0.23618 0.22557 0.98915 0.0
H825 H 0.40204 0.32594 0.08014 0.0
H826 H 0.35205 0.30021 0.05907 0.0
C827 C 0.20796 0.21044 0.97732 0.0
C828 C 0.31186 0.23538 1.0028 0.0
H829 H 0.34992 0.25177 0.06001 0.0
C830 C 0.33651 0.24936 0.98878 0.0
C831 C 0.31655 0.2363 0.02875 0.0
C832 C 0.29117 0.22128 0.04454 0.0
C833 C 0.3655 0.26454 1.00007 0.0
C834 C 0.37088 0.26516 0.02611 0.0
C835 C 0.34596 0.25121 0.04008 0.0
C836 C 0.40179 0.28036 0.03922 0.0
C837 C 0.38917 0.28021 0.98393 0.0
C838 C 0.44664 0.27742 0.03551 0.0
C839 C 0.47533 0.29226 0.04739 0.0
C840 C 0.45984 0.31009 0.06354 0.0
C841 C 0.41514 0.31243 0.06783 0.0
C842 C 0.38645 0.29773 0.05577 0.0
H843 H 0.37204 0.283 0.96513 0.0
H844 H 0.39217 0.29828 0.99199 0.0
H845 H 0.42266 0.27109 0.98212 0.0
H846 H 0.45951 0.26367 0.02338 0.0
H847 H 0.5096 0.28979 0.04383 0.0
H848 H 0.96572 0.70917 0.52712 0.0
H849 H 0.90591 0.73373 0.50273 0.0
H850 H 0.81163 0.70198 0.54367 0.0
H851 H 0.87135 0.67736 0.56843 0.0
H852 H 0.83803 0.71494 0.47319 0.0
H853 H 0.77252 0.77574 0.54451 0.0
H854 H 0.82632 0.7587 0.54857 0.0
H855 H 0.77831 0.74378 0.55236 0.0
C856 C 0.93233 0.70756 0.53121 0.0
C857 C 0.92338 0.69122 0.54975 0.0
C858 C 0.89819 0.7216 0.51718 0.0
C859 C 0.85442 0.71977 0.52149 0.0
C860 C 0.84525 0.70391 0.54029 0.0
H861 H 0.60605 0.78834 0.45161 0.0
H862 H 0.66372 0.76247 0.47629 0.0
C863 C 0.87944 0.6898 0.55437 0.0
C864 C 0.81849 0.7336 0.50542 0.0
H865 H 0.73217 0.77801 0.50543 0.0
C866 C 0.8149 0.72877 0.48019 0.0
C867 C 0.78834 0.75154 0.51467 0.0
C868 C 0.79159 0.75797 0.54147 0.0
C869 C 0.78163 0.74126 0.46396 0.0
C870 C 0.7517 0.75937 0.47316 0.0
C871 C 0.75515 0.76409 0.49843 0.0
C872 C 0.71675 0.77386 0.45692 0.0
C873 C 0.77834 0.73462 0.43722 0.0
C874 C 0.72741 0.78874 0.43769 0.0
C875 C 0.69446 0.80351 0.4234 0.0
C876 C 0.65025 0.80385 0.42827 0.0
C877 C 0.6397 0.78857 0.4473 0.0
C878 C 0.67264 0.77378 0.4615 0.0
H879 H 0.7954 0.71621 0.43456 0.0
H880 H 0.74354 0.73514 0.4297 0.0
H881 H 0.79405 0.7479 0.42643 0.0
H882 H 0.76133 0.78944 0.43414 0.0
H883 H 0.7038 0.81515 0.40901 0.0
H884 H 0.71073 0.33927 0.99486 0.0
H885 H 0.76661 0.31496 0.97386 0.0
H886 H 0.77621 0.25911 0.03103 0.0
H887 H 0.72008 0.28335 0.05209 0.0
H888 H 0.85158 0.29971 0.99083 0.0
H889 H 0.76043 0.22065 0.96862 0.0
H890 H 0.73397 0.24903 0.97867 0.0
H891 H 0.76474 0.22766 1.00068 0.0
C892 C 0.72445 0.32169 1.00283 0.0
C893 C 0.71036 0.31297 0.02484 0.0
C894 C 0.7564 0.30786 0.99084 0.0
C895 C 0.7751 0.28509 1.00069 0.0
C896 C 0.76137 0.27636 0.02278 0.0
H897 H 0.01589 0.20499 0.95801 0.0
H898 H 0.96251 0.23119 0.97909 0.0
C899 C 0.72911 0.29017 0.03474 0.0
C900 C 0.80983 0.27094 0.98807 0.0
H901 H 0.83509 0.21714 0.96031 0.0
C902 C 0.84802 0.28165 0.98412 0.0
C903 C 0.80482 0.24752 0.97913 0.0
C904 C 0.76364 0.23558 0.98175 0.0
C905 C 0.88144 0.26955 0.97149 0.0
C906 C 0.87681 0.24593 0.963 0.0
C907 C 0.83862 0.23523 0.96695 0.0
C908 C 0.91064 0.23203 0.94952 0.0
C909 C 0.92083 0.28238 0.96682 0.0
C910 C 0.89925 0.22389 0.92589 0.0
C911 C 0.92946 0.20877 0.91392 0.0
C912 C 0.97174 0.20145 0.92536 0.0
C913 C 0.9837 0.21042 0.94863 0.0
C914 C 0.95327 0.22545 0.96068 0.0
H915 H 0.91401 0.30238 0.9686 0.0
H916 H 0.9485 0.27569 0.98054 0.0
H917 H 0.93133 0.27865 0.94816 0.0
H918 H 0.86655 0.22881 0.91694 0.0
H919 H 0.9192 0.20228 0.89597 0.0
H920 H 0.95144 0.27858 0.47306 0.0
H921 H 0.90281 0.25062 0.48869 0.0
H922 H 0.79116 0.29249 0.44907 0.0
H923 H 0.83931 0.32037 0.43343 0.0
H924 H 0.82279 0.26824 0.51601 0.0
H925 H 0.78602 0.21803 0.43083 0.0
H926 H 0.83538 0.23274 0.43642 0.0
H927 H 0.78399 0.25054 0.42721 0.0
C928 C 0.91665 0.28152 0.46736 0.0
C929 C 0.89913 0.30143 0.45181 0.0
C930 C 0.88897 0.26566 0.4764 0.0
C931 C 0.84362 0.2694 0.46973 0.0
C932 C 0.82619 0.28918 0.45413 0.0
H933 H 0.60299 0.21419 0.49488 0.0
H934 H 0.66412 0.23327 0.48014 0.0
C935 C 0.85366 0.30513 0.44534 0.0
C936 C 0.8137 0.25357 0.47996 0.0
H937 H 0.74048 0.21364 0.46327 0.0
C938 C 0.80518 0.25599 0.50467 0.0
C939 C 0.79074 0.23786 0.46494 0.0
C940 C 0.79956 0.2344 0.43839 0.0
C941 C 0.77266 0.24386 0.51455 0.0
C942 C 0.74898 0.22844 0.49938 0.0
C943 C 0.75861 0.22548 0.47484 0.0
C944 C 0.71253 0.21623 0.5082 0.0
C945 C 0.76254 0.24864 0.54073 0.0
C946 C 0.71959 0.20005 0.52866 0.0
C947 C 0.68461 0.18933 0.53731 0.0
C948 C 0.64206 0.1943 0.52538 0.0
C949 C 0.63533 0.21001 0.5045 0.0
C950 C 0.67025 0.2209 0.49602 0.0
H951 H 0.77562 0.2654 0.54761 0.0
H952 H 0.72661 0.25048 0.54232 0.0
H953 H 0.77799 0.23315 0.55286 0.0
H954 H 0.75214 0.19572 0.53797 0.0
H955 H 0.69094 0.17711 0.5533 0.0
H956 H 0.74689 0.66178 0.99486 0.0
H957 H 0.79817 0.68665 0.01608 0.0
H958 H 0.75648 0.7455 0.96326 0.0
H959 H 0.70762 0.72014 0.94095 0.0
H960 H 0.84215 0.74068 0.97219 0.0
H961 H 0.76986 0.74064 0.06168 0.0
H962 H 0.7865 0.71047 0.05212 0.0
H963 H 0.74321 0.72934 0.0342 0.0
C964 C 0.74852 0.68004 0.98776 0.0
C965 C 0.72177 0.68923 0.96667 0.0
C966 C 0.77757 0.69435 1.0001 0.0
C967 C 0.78019 0.71827 0.99178 0.0
C968 C 0.75443 0.72726 0.97033 0.0
H969 H 0.89883 0.82791 0.07755 0.0
H970 H 0.84953 0.80206 0.0562 0.0
C971 C 0.7258 0.71284 0.9578 0.0
C972 C 0.81068 0.73367 1.00497 0.0
H973 H 0.83924 0.75583 0.06138 0.0
C974 C 0.84136 0.74409 0.99167 0.0
C975 C 0.80928 0.73844 0.03032 0.0
C976 C 0.77514 0.72935 0.04535 0.0
C977 C 0.87088 0.75893 1.00302 0.0
C978 C 0.87074 0.76283 0.02861 0.0
C979 C 0.83979 0.75259 0.04185 0.0
C980 C 0.90129 0.77816 0.04186 0.0
C981 C 0.90098 0.77081 0.98728 0.0
C982 C 0.94696 0.77313 0.04132 0.0
C983 C 0.97529 0.78812 0.05327 0.0
C984 C 0.95853 0.80814 0.06644 0.0
C985 C 0.91288 0.81264 0.06762 0.0
C986 C 0.8846 0.79786 0.05539 0.0
H987 H 0.88809 0.77199 0.96757 0.0
H988 H 0.9056 0.78943 0.99342 0.0
H989 H 0.93351 0.75977 0.98865 0.0
H990 H 0.96075 0.75761 0.03165 0.0
H991 H 0.01031 0.78399 0.05223 0.0
loop_
_geom_bond_atom_site_label_1
_geom_bond_atom_site_label_2
_geom_bond_distance
_geom_bond_site_symmetry_2
_ccdc_geom_bond_type
Co0 O3 1.970 . S
Co0 N17 1.989 . S
Co0 O25 1.967 . S
Co0 O32 1.920 . S
Co1 O4 1.966 . S
Co1 N10 2.022 1_455 S
Co1 N18 1.993 1_455 S
Co1 O26 1.941 . S
C2 O3 1.258 . S
C2 O4 1.263 . S
O3 Co0 1.970 . S
O3 C2 1.258 . S
O4 Co1 1.966 . S
O4 C2 1.263 . S
C5 O6 1.235 . S
C5 O32 1.289 . S
O6 C5 1.235 . S
C7 C9 1.400 . S
C7 N10 1.351 . S
C7 C12 1.501 . S
C8 C9 1.387 . S
C8 N11 1.341 . S
C9 C7 1.400 . S
C9 C8 1.387 . S
N10 Co1 2.022 1_655 S
N10 C7 1.351 . S
N10 N11 1.365 . S
N11 C8 1.341 . S
N11 N10 1.365 . S
N11 H31 0.862 . S
C12 C7 1.501 . S
C12 H13 0.961 1_655 S
C12 H14 0.961 . S
C12 H15 0.960 . S
H13 C12 0.961 1_455 S
H14 C12 0.961 . S
H15 C12 0.960 . S
C16 N17 1.342 1_655 S
C16 C20 1.401 . S
C16 C21 1.499 1_655 S
N17 Co0 1.989 . S
N17 C16 1.342 1_455 S
N17 N18 1.388 1_455 S
N18 Co1 1.993 1_655 S
N18 N17 1.388 1_655 S
N18 C19 1.346 . S
C19 N18 1.346 . S
C19 C20 1.396 . S
C19 C29 1.510 . S
C20 C16 1.401 . S
C20 C19 1.396 . S
C21 C16 1.499 1_455 S
C21 H22 0.959 . S
C21 H23 0.960 . S
C21 H24 0.961 . S
H22 C21 0.959 . S
H23 C21 0.960 . S
H24 C21 0.961 . S
O25 Co0 1.967 . S
O25 C33 1.258 . S
O26 Co1 1.941 . S
O26 C33 1.266 . S
H27 C29 0.959 . S
H28 C29 0.961 . S
C29 C19 1.510 . S
C29 H27 0.959 . S
C29 H28 0.961 . S
C29 H30 0.960 . S
H30 C29 0.960 . S
H31 N11 0.862 . S
O32 Co0 1.920 . S
O32 C5 1.289 . S
C33 O25 1.258 . S
C33 O26 1.266 . S
Co34 O37 1.970 . S
Co34 N51 1.989 . S
Co34 O59 1.967 . S
Co34 O66 1.920 . S
Co35 O38 1.966 . S
Co35 N44 2.022 . S
Co35 N52 1.993 . S
Co35 O60 1.941 . S
C36 O37 1.258 . S
C36 O38 1.263 . S
O37 Co34 1.970 . S
O37 C36 1.258 . S
O38 Co35 1.966 . S
O38 C36 1.263 . S
C39 O40 1.235 . S
C39 O66 1.289 . S
O40 C39 1.235 . S
C41 C43 1.400 . S
C41 N44 1.351 . S
C41 C46 1.501 . S
C42 C43 1.387 . S
C42 N45 1.341 . S
C43 C41 1.400 . S
C43 C42 1.387 . S
N44 Co35 2.022 . S
N44 C41 1.351 . S
N44 N45 1.365 . S
N45 C42 1.341 . S
N45 N44 1.365 . S
N45 H65 0.862 . S
C46 C41 1.501 . S
C46 H47 0.961 . S
C46 H48 0.961 . S
C46 H49 0.960 . S
H47 C46 0.961 . S
H48 C46 0.961 . S
H49 C46 0.960 . S
C50 N51 1.342 . S
C50 C54 1.401 . S
C50 C55 1.499 . S
N51 Co34 1.989 . S
N51 C50 1.342 . S
N51 N52 1.388 . S
N52 Co35 1.993 . S
N52 N51 1.388 . S
N52 C53 1.346 . S
C53 N52 1.346 . S
C53 C54 1.396 . S
C53 C63 1.510 . S
C54 C50 1.401 . S
C54 C53 1.396 . S
C55 C50 1.499 . S
C55 H56 0.959 . S
C55 H57 0.960 . S
C55 H58 0.961 . S
H56 C55 0.959 . S
H57 C55 0.960 . S
H58 C55 0.961 . S
O59 Co34 1.967 . S
O59 C67 1.258 . S
O60 Co35 1.941 . S
O60 C67 1.266 . S
H61 C63 0.959 . S
H62 C63 0.961 . S
C63 C53 1.510 . S
C63 H61 0.959 . S
C63 H62 0.961 . S
C63 H64 0.960 . S
H64 C63 0.960 . S
H65 N45 0.862 . S
O66 Co34 1.920 . S
O66 C39 1.289 . S
C67 O59 1.258 . S
C67 O60 1.266 . S
Co68 O71 1.970 . S
Co68 N85 1.989 . S
Co68 O93 1.967 . S
Co68 O100 1.920 . S
Co69 O72 1.966 . S
Co69 N78 2.022 . S
Co69 N86 1.993 1_655 S
Co69 O94 1.944 . S
C70 O71 1.258 1_655 S
C70 O72 1.263 . S
O71 Co68 1.970 . S
O71 C70 1.258 1_455 S
O72 Co69 1.966 . S
O72 C70 1.263 . S
C73 O74 1.235 . S
C73 O100 1.289 . S
O74 C73 1.235 . S
C75 C77 1.400 . S
C75 N78 1.351 . S
C75 C80 1.501 . S
C76 C77 1.387 . S
C76 N79 1.341 . S
C77 C75 1.400 . S
C77 C76 1.387 . S
N78 Co69 2.022 . S
N78 C75 1.351 . S
N78 N79 1.365 . S
N79 C76 1.341 . S
N79 N78 1.365 . S
N79 H99 0.862 . S
C80 C75 1.501 . S
C80 H81 0.961 . S
C80 H82 0.961 . S
C80 H83 0.960 . S
H81 C80 0.961 . S
H82 C80 0.961 . S
H83 C80 0.960 . S
C84 N85 1.342 . S
C84 C88 1.401 . S
C84 C89 1.499 . S
N85 Co68 1.989 . S
N85 C84 1.342 . S
N85 N86 1.388 . S
N86 Co69 1.993 1_455 S
N86 N85 1.388 . S
N86 C87 1.346 . S
C87 N86 1.346 . S
C87 C88 1.396 . S
C87 C97 1.510 . S
C88 C84 1.401 . S
C88 C87 1.396 . S
C89 C84 1.499 . S
C89 H90 0.959 . S
C89 H91 0.960 . S
C89 H92 0.961 . S
H90 C89 0.959 . S
H91 C89 0.960 . S
H92 C89 0.961 . S
O93 Co68 1.967 . S
O93 C101 1.258 . S
O94 Co69 1.944 . S
O94 C101 1.253 1_655 S
H95 C97 0.959 . S
H96 C97 0.961 . S
C97 C87 1.510 . S
C97 H95 0.959 . S
C97 H96 0.961 . S
C97 H98 0.960 . S
H98 C97 0.960 . S
H99 N79 0.862 . S
O100 Co68 1.920 . S
O100 C73 1.289 . S
C101 O93 1.258 . S
C101 O94 1.253 1_455 S
Co102 O105 1.970 . S
Co102 N119 1.989 . S
Co102 O127 1.967 . S
Co102 O134 1.920 . S
Co103 O106 1.966 . S
Co103 N112 2.022 . S
Co103 N120 1.993 . S
Co103 O128 1.941 . S
C104 O105 1.258 . S
C104 O106 1.263 . S
O105 Co102 1.970 . S
O105 C104 1.258 . S
O106 Co103 1.966 . S
O106 C104 1.263 . S
C107 O108 1.235 . S
C107 O134 1.289 . S
O108 C107 1.235 . S
C109 C111 1.400 . S
C109 N112 1.351 . S
C109 C114 1.501 . S
C110 C111 1.387 . S
C110 N113 1.341 . S
C111 C109 1.400 . S
C111 C110 1.387 . S
N112 Co103 2.022 . S
N112 C109 1.351 . S
N112 N113 1.365 . S
N113 C110 1.341 . S
N113 N112 1.365 . S
N113 H133 0.862 . S
C114 C109 1.501 . S
C114 H115 0.961 . S
C114 H116 0.961 . S
C114 H117 0.960 . S
H115 C114 0.961 . S
H116 C114 0.961 . S
H117 C114 0.960 . S
C118 N119 1.342 . S
C118 C122 1.401 . S
C118 C123 1.499 . S
N119 Co102 1.989 . S
N119 C118 1.342 . S
N119 N120 1.388 . S
N120 Co103 1.993 . S
N120 N119 1.388 . S
N120 C121 1.346 . S
C121 N120 1.346 . S
C121 C122 1.396 . S
C121 C131 1.510 . S
C122 C118 1.401 . S
C122 C121 1.396 . S
C123 C118 1.499 . S
C123 H124 0.959 . S
C123 H125 0.960 . S
C123 H126 0.961 . S
H124 C123 0.959 . S
H125 C123 0.960 . S
H126 C123 0.961 . S
O127 Co102 1.967 . S
O127 C135 1.258 . S
O128 Co103 1.941 . S
O128 C135 1.266 . S
H129 C131 0.959 . S
H130 C131 0.961 . S
C131 C121 1.510 . S
C131 H129 0.959 . S
C131 H130 0.961 . S
C131 H132 0.960 . S
H132 C131 0.960 . S
H133 N113 0.862 . S
O134 Co102 1.920 . S
O134 C107 1.289 . S
C135 O127 1.258 . S
C135 O128 1.266 . S
Co136 O139 1.970 . S
Co136 N153 1.989 . S
Co136 O161 1.967 . S
Co136 O168 1.920 . S
Co137 O140 1.966 . S
Co137 N146 2.022 . S
Co137 N154 1.993 . S
Co137 O162 1.941 . S
C138 O139 1.258 . S
C138 O140 1.263 . S
O139 Co136 1.970 . S
O139 C138 1.258 . S
O140 Co137 1.966 . S
O140 C138 1.263 . S
C141 O142 1.235 . S
C141 O168 1.289 . S
O142 C141 1.235 . S
C143 C145 1.400 . S
C143 N146 1.351 . S
C143 C148 1.501 . S
C144 C145 1.387 . S
C144 N147 1.341 . S
C145 C143 1.400 . S
C145 C144 1.387 . S
N146 Co137 2.022 . S
N146 C143 1.351 . S
N146 N147 1.365 . S
N147 C144 1.341 . S
N147 N146 1.365 . S
N147 H167 0.862 . S
C148 C143 1.501 . S
C148 H149 0.961 . S
C148 H150 0.961 . S
C148 H151 0.960 . S
H149 C148 0.961 . S
H150 C148 0.961 . S
H151 C148 0.960 . S
C152 N153 1.342 . S
C152 C156 1.401 . S
C152 C157 1.499 . S
N153 Co136 1.989 . S
N153 C152 1.342 . S
N153 N154 1.388 . S
N154 Co137 1.993 . S
N154 N153 1.388 . S
N154 C155 1.346 . S
C155 N154 1.346 . S
C155 C156 1.396 . S
C155 C165 1.510 . S
C156 C152 1.401 . S
C156 C155 1.396 . S
C157 C152 1.499 . S
C157 H158 0.959 . S
C157 H159 0.960 . S
C157 H160 0.961 . S
H158 C157 0.959 . S
H159 C157 0.960 . S
H160 C157 0.961 . S
O161 Co136 1.967 . S
O161 C169 1.258 . S
O162 Co137 1.941 . S
O162 C169 1.266 . S
H163 C165 0.959 . S
H164 C165 0.961 . S
C165 C155 1.510 . S
C165 H163 0.959 . S
C165 H164 0.961 . S
C165 H166 0.960 . S
H166 C165 0.960 . S
H167 N147 0.862 . S
O168 Co136 1.920 . S
O168 C141 1.289 . S
C169 O161 1.258 . S
C169 O162 1.266 . S
Co170 O173 1.970 . S
Co170 N187 1.989 1_655 S
Co170 O195 1.967 1_655 S
Co170 O202 1.920 . S
Co171 O174 1.966 . S
Co171 N180 2.022 . S
Co171 N188 1.993 . S
Co171 O196 1.941 . S
C172 O173 1.258 . S
C172 O174 1.263 1_655 S
O173 Co170 1.970 . S
O173 C172 1.258 . S
O174 Co171 1.966 . S
O174 C172 1.263 1_455 S
C175 O176 1.235 . S
C175 O202 1.289 . S
O176 C175 1.235 . S
C177 C179 1.400 . S
C177 N180 1.351 . S
C177 C182 1.501 . S
C178 C179 1.387 . S
C178 N181 1.341 . S
C179 C177 1.400 . S
C179 C178 1.387 . S
N180 Co171 2.022 . S
N180 C177 1.351 . S
N180 N181 1.365 . S
N181 C178 1.341 . S
N181 N180 1.365 . S
N181 H201 0.862 . S
C182 C177 1.501 . S
C182 H183 0.961 . S
C182 H184 0.961 . S
C182 H185 0.960 . S
H183 C182 0.961 . S
H184 C182 0.961 . S
H185 C182 0.960 . S
C186 N187 1.342 . S
C186 C190 1.401 . S
C186 C191 1.499 . S
N187 Co170 1.989 1_455 S
N187 C186 1.342 . S
N187 N188 1.388 . S
N188 Co171 1.993 . S
N188 N187 1.388 . S
N188 C189 1.346 . S
C189 N188 1.346 . S
C189 C190 1.396 . S
C189 C199 1.510 . S
C190 C186 1.401 . S
C190 C189 1.396 . S
C191 C186 1.499 . S
C191 H192 0.959 . S
C191 H193 0.960 . S
C191 H194 0.961 . S
H192 C191 0.959 . S
H193 C191 0.960 . S
H194 C191 0.961 . S
O195 Co170 1.967 1_455 S
O195 C203 1.258 . S
O196 Co171 1.941 . S
O196 C203 1.266 . S
H197 C199 0.959 . S
H198 C199 0.961 . S
C199 C189 1.510 . S
C199 H197 0.959 . S
C199 H198 0.961 . S
C199 H200 0.960 . S
H200 C199 0.960 . S
H201 N181 0.862 . S
O202 Co170 1.920 . S
O202 C175 1.289 . S
C203 O195 1.258 . S
C203 O196 1.266 . S
Co204 O207 1.970 . S
Co204 N221 1.989 . S
Co204 O229 1.967 . S
Co204 O236 1.920 . S
Co205 O208 1.966 . S
Co205 N214 2.022 . S
Co205 N222 1.993 . S
Co205 O230 1.941 . S
C206 O207 1.258 . S
C206 O208 1.263 . S
O207 Co204 1.970 . S
O207 C206 1.258 . S
O208 Co205 1.966 . S
O208 C206 1.263 . S
C209 O210 1.235 . S
C209 O236 1.289 . S
O210 C209 1.235 . S
C211 C213 1.400 . S
C211 N214 1.351 . S
C211 C216 1.501 . S
C212 C213 1.387 . S
C212 N215 1.341 . S
C213 C211 1.400 . S
C213 C212 1.387 . S
N214 Co205 2.022 . S
N214 C211 1.351 . S
N214 N215 1.365 . S
N215 C212 1.341 . S
N215 N214 1.365 . S
N215 H235 0.862 . S
C216 C211 1.501 . S
C216 H217 0.961 . S
C216 H218 0.961 . S
C216 H219 0.960 . S
H217 C216 0.961 . S
H218 C216 0.961 . S
H219 C216 0.960 . S
C220 N221 1.342 . S
C220 C224 1.401 . S
C220 C225 1.499 . S
N221 Co204 1.989 . S
N221 C220 1.342 . S
N221 N222 1.388 . S
N222 Co205 1.993 . S
N222 N221 1.388 . S
N222 C223 1.346 . S
C223 N222 1.346 . S
C223 C224 1.396 . S
C223 C233 1.510 . S
C224 C220 1.401 . S
C224 C223 1.396 . S
C225 C220 1.499 . S
C225 H226 0.959 . S
C225 H227 0.960 . S
C225 H228 0.961 . S
H226 C225 0.959 . S
H227 C225 0.960 . S
H228 C225 0.961 . S
O229 Co204 1.967 . S
O229 C237 1.258 . S
O230 Co205 1.941 . S
O230 C237 1.266 . S
H231 C233 0.959 . S
H232 C233 0.961 . S
C233 C223 1.510 . S
C233 H231 0.959 . S
C233 H232 0.961 . S
C233 H234 0.960 . S
H234 C233 0.960 . S
H235 N215 0.862 . S
O236 Co204 1.920 . S
O236 C209 1.289 . S
C237 O229 1.258 . S
C237 O230 1.266 . S
Co238 O241 1.970 1_455 S
Co238 N255 1.989 . S
Co238 O263 1.967 . S
Co238 O270 1.920 1_455 S
Co239 O242 1.966 . S
Co239 N248 2.022 . S
Co239 N256 1.993 . S
Co239 O264 1.941 . S
C240 O241 1.258 . S
C240 O242 1.263 1_655 S
O241 Co238 1.970 1_655 S
O241 C240 1.258 . S
O242 Co239 1.966 . S
O242 C240 1.263 1_455 S
C243 O244 1.235 . S
C243 O270 1.289 . S
O244 C243 1.235 . S
C245 C247 1.400 . S
C245 N248 1.351 . S
C245 C250 1.501 . S
C246 C247 1.387 . S
C246 N249 1.341 . S
C247 C245 1.400 . S
C247 C246 1.387 . S
N248 Co239 2.022 . S
N248 C245 1.351 . S
N248 N249 1.365 . S
N249 C246 1.341 . S
N249 N248 1.365 . S
N249 H269 0.862 . S
C250 C245 1.501 . S
C250 H251 0.961 . S
C250 H252 0.961 . S
C250 H253 0.960 . S
H251 C250 0.961 . S
H252 C250 0.961 . S
H253 C250 0.960 . S
C254 N255 1.342 . S
C254 C258 1.401 . S
C254 C259 1.499 . S
N255 Co238 1.989 . S
N255 C254 1.342 . S
N255 N256 1.388 . S
N256 Co239 1.993 . S
N256 N255 1.388 . S
N256 C257 1.346 . S
C257 N256 1.346 . S
C257 C258 1.396 . S
C257 C267 1.510 . S
C258 C254 1.401 . S
C258 C257 1.396 . S
C259 C254 1.499 . S
C259 H260 0.959 . S
C259 H261 0.960 . S
C259 H262 0.961 . S
H260 C259 0.959 . S
H261 C259 0.960 . S
H262 C259 0.961 . S
O263 Co238 1.967 . S
O263 C271 1.258 . S
O264 Co239 1.941 . S
O264 C271 1.266 . S
H265 C267 0.959 . S
H266 C267 0.961 . S
C267 C257 1.510 . S
C267 H265 0.959 . S
C267 H266 0.961 . S
C267 H268 0.960 . S
H268 C267 0.960 . S
H269 N249 0.862 . S
O270 Co238 1.920 1_655 S
O270 C243 1.289 . S
C271 O263 1.258 . S
C271 O264 1.266 . S
H272 C280 0.929 . S
H273 C282 0.930 . S
H274 C284 0.930 . S
H275 C287 0.929 . S
H276 C290 0.930 . S
H277 C292 0.960 . S
H278 C292 0.960 . S
H279 C292 0.960 . S
C280 H272 0.929 . S
C280 C281 1.377 . S
C280 C282 1.384 . S
C281 C280 1.377 . S
C281 C287 1.390 . S
C282 H273 0.930 . S
C282 C280 1.384 . S
C282 C283 1.372 . S
C283 C282 1.372 . S
C283 C284 1.400 . S
C283 C288 1.490 . S
C284 H274 0.930 . S
C284 C283 1.400 . S
C284 C287 1.386 . S
H285 C301 0.930 . S
H286 C302 0.931 . S
C287 H275 0.929 . S
C287 C281 1.390 . S
C287 C284 1.386 . S
C288 C283 1.490 . S
C288 C290 1.395 . S
C288 C291 1.403 . S
H289 C295 0.930 . S
C290 H276 0.930 . S
C290 C288 1.395 . S
C290 C293 1.403 . S
C291 C288 1.403 . S
C291 C292 1.524 . S
C291 C295 1.400 . S
C292 H277 0.960 . S
C292 H278 0.960 . S
C292 H279 0.960 . S
C292 C291 1.524 . S
C293 C290 1.403 . S
C293 C294 1.392 . S
C293 C297 1.495 . S
C294 C293 1.392 . S
C294 C295 1.385 . S
C294 C296 1.478 . S
C295 H289 0.930 . S
C295 C291 1.400 . S
C295 C294 1.385 . S
C296 C294 1.478 . S
C296 C298 1.381 . S
C296 C302 1.383 . S
C297 C293 1.495 . S
C297 H303 0.959 . S
C297 H304 0.961 . S
C297 H305 0.960 . S
C298 C296 1.381 . S
C298 C299 1.394 . S
C298 H306 0.930 . S
C299 C298 1.394 . S
C299 C300 1.383 . S
C299 H307 0.929 . S
C300 C299 1.383 . S
C300 C301 1.377 . S
C301 H285 0.930 . S
C301 C300 1.377 . S
C301 C302 1.379 . S
C302 H286 0.931 . S
C302 C296 1.383 . S
C302 C301 1.379 . S
H303 C297 0.959 . S
H304 C297 0.961 . S
H305 C297 0.960 . S
H306 C298 0.930 . S
H307 C299 0.929 . S
H308 C316 0.929 . S
H309 C318 0.930 . S
H310 C320 0.930 . S
H311 C323 0.929 . S
H312 C326 0.930 . S
H313 C328 0.960 . S
H314 C328 0.960 . S
H315 C328 0.960 . S
C316 H308 0.929 . S
C316 C317 1.377 . S
C316 C318 1.384 . S
C317 C316 1.377 . S
C317 C323 1.390 . S
C318 H309 0.930 . S
C318 C316 1.384 . S
C318 C319 1.372 . S
C319 C318 1.372 . S
C319 C320 1.400 . S
C319 C324 1.490 . S
C320 H310 0.930 . S
C320 C319 1.400 . S
C320 C323 1.386 . S
H321 C337 0.930 . S
H322 C338 0.931 . S
C323 H311 0.929 . S
C323 C317 1.390 . S
C323 C320 1.386 . S
C324 C319 1.490 . S
C324 C326 1.395 . S
C324 C327 1.403 . S
H325 C331 0.930 . S
C326 H312 0.930 . S
C326 C324 1.395 . S
C326 C329 1.403 . S
C327 C324 1.403 . S
C327 C328 1.524 . S
C327 C331 1.400 . S
C328 H313 0.960 . S
C328 H314 0.960 . S
C328 H315 0.960 . S
C328 C327 1.524 . S
C329 C326 1.403 . S
C329 C330 1.392 . S
C329 C333 1.495 . S
C330 C329 1.392 . S
C330 C331 1.385 . S
C330 C332 1.478 . S
C331 H325 0.930 . S
C331 C327 1.400 . S
C331 C330 1.385 . S
C332 C330 1.478 . S
C332 C334 1.381 . S
C332 C338 1.383 . S
C333 C329 1.495 . S
C333 H339 0.959 . S
C333 H340 0.961 . S
C333 H341 0.960 . S
C334 C332 1.381 . S
C334 C335 1.394 . S
C334 H342 0.930 . S
C335 C334 1.394 . S
C335 C336 1.383 . S
C335 H343 0.929 . S
C336 C335 1.383 . S
C336 C337 1.377 . S
C337 H321 0.930 . S
C337 C336 1.377 . S
C337 C338 1.379 . S
C338 H322 0.931 . S
C338 C332 1.383 . S
C338 C337 1.379 . S
H339 C333 0.959 . S
H340 C333 0.961 . S
H341 C333 0.960 . S
H342 C334 0.930 . S
H343 C335 0.929 . S
H344 C352 0.929 . S
H345 C354 0.930 . S
H346 C356 0.930 . S
H347 C359 0.929 . S
H348 C362 0.930 . S
H349 C364 0.960 . S
H350 C364 0.960 . S
H351 C364 0.960 . S
C352 H344 0.929 . S
C352 C353 1.377 . S
C352 C354 1.384 . S
C353 C352 1.377 . S
C353 C359 1.390 . S
C354 H345 0.930 . S
C354 C352 1.384 . S
C354 C355 1.372 . S
C355 C354 1.372 . S
C355 C356 1.400 . S
C355 C360 1.490 . S
C356 H346 0.930 . S
C356 C355 1.400 . S
C356 C359 1.386 . S
H357 C373 0.930 . S
H358 C374 0.931 . S
C359 H347 0.929 . S
C359 C353 1.390 . S
C359 C356 1.386 . S
C360 C355 1.490 . S
C360 C362 1.395 . S
C360 C363 1.403 . S
H361 C367 0.930 . S
C362 H348 0.930 . S
C362 C360 1.395 . S
C362 C365 1.403 . S
C363 C360 1.403 . S
C363 C364 1.524 . S
C363 C367 1.400 . S
C364 H349 0.960 . S
C364 H350 0.960 . S
C364 H351 0.960 . S
C364 C363 1.524 . S
C365 C362 1.403 . S
C365 C366 1.392 . S
C365 C369 1.495 . S
C366 C365 1.392 . S
C366 C367 1.385 . S
C366 C368 1.478 . S
C367 H361 0.930 . S
C367 C363 1.400 . S
C367 C366 1.385 . S
C368 C366 1.478 . S
C368 C370 1.381 . S
C368 C374 1.383 . S
C369 C365 1.495 . S
C369 H375 0.959 . S
C369 H376 0.961 . S
C369 H377 0.960 . S
C370 C368 1.381 . S
C370 C371 1.394 . S
C370 H378 0.930 . S
C371 C370 1.394 . S
C371 C372 1.383 . S
C371 H379 0.929 . S
C372 C371 1.383 . S
C372 C373 1.377 . S
C373 H357 0.930 . S
C373 C372 1.377 . S
C373 C374 1.379 . S
C374 H358 0.931 . S
C374 C368 1.383 . S
C374 C373 1.379 . S
H375 C369 0.959 . S
H376 C369 0.961 . S
H377 C369 0.960 . S
H378 C370 0.930 . S
H379 C371 0.929 . S
H380 C388 0.929 . S
H381 C390 0.930 . S
H382 C392 0.930 . S
H383 C395 0.929 . S
H384 C398 0.930 . S
H385 C400 0.960 . S
H386 C400 0.960 . S
H387 C400 0.960 . S
C388 H380 0.929 . S
C388 C389 1.377 . S
C388 C390 1.384 . S
C389 C388 1.377 . S
C389 C395 1.390 . S
C390 H381 0.930 . S
C390 C388 1.384 . S
C390 C391 1.372 . S
C391 C390 1.372 . S
C391 C392 1.400 . S
C391 C396 1.490 . S
C392 H382 0.930 . S
C392 C391 1.400 . S
C392 C395 1.386 . S
H393 C409 0.930 . S
H394 C410 0.931 . S
C395 H383 0.929 . S
C395 C389 1.390 . S
C395 C392 1.386 . S
C396 C391 1.490 . S
C396 C398 1.395 . S
C396 C399 1.403 . S
H397 C403 0.930 . S
C398 H384 0.930 . S
C398 C396 1.395 . S
C398 C401 1.403 . S
C399 C396 1.403 . S
C399 C400 1.524 . S
C399 C403 1.400 . S
C400 H385 0.960 . S
C400 H386 0.960 . S
C400 H387 0.960 . S
C400 C399 1.524 . S
C401 C398 1.403 . S
C401 C402 1.392 . S
C401 C405 1.495 . S
C402 C401 1.392 . S
C402 C403 1.385 . S
C402 C404 1.478 . S
C403 H397 0.930 . S
C403 C399 1.400 . S
C403 C402 1.385 . S
C404 C402 1.478 . S
C404 C406 1.381 . S
C404 C410 1.383 . S
C405 C401 1.495 . S
C405 H411 0.959 . S
C405 H412 0.961 . S
C405 H413 0.960 . S
C406 C404 1.381 . S
C406 C407 1.394 . S
C406 H414 0.930 . S
C407 C406 1.394 . S
C407 C408 1.383 . S
C407 H415 0.929 . S
C408 C407 1.383 . S
C408 C409 1.377 . S
C409 H393 0.930 . S
C409 C408 1.377 . S
C409 C410 1.379 . S
C410 H394 0.931 . S
C410 C404 1.383 . S
C410 C409 1.379 . S
H411 C405 0.959 . S
H412 C405 0.961 . S
H413 C405 0.960 . S
H414 C406 0.930 . S
H415 C407 0.929 . S
H416 C424 0.929 . S
H417 C426 0.930 . S
H418 C428 0.930 . S
H419 C431 0.929 . S
H420 C434 0.930 . S
H421 C436 0.960 . S
H422 C436 0.960 . S
H423 C436 0.960 . S
C424 H416 0.929 . S
C424 C425 1.377 . S
C424 C426 1.384 . S
C425 C424 1.377 . S
C425 C431 1.390 . S
C426 H417 0.930 . S
C426 C424 1.384 . S
C426 C427 1.372 . S
C427 C426 1.372 . S
C427 C428 1.400 . S
C427 C432 1.490 . S
C428 H418 0.930 . S
C428 C427 1.400 . S
C428 C431 1.386 . S
H429 C445 0.930 . S
H430 C446 0.931 . S
C431 H419 0.929 . S
C431 C425 1.390 . S
C431 C428 1.386 . S
C432 C427 1.490 . S
C432 C434 1.395 . S
C432 C435 1.403 . S
H433 C439 0.930 . S
C434 H420 0.930 . S
C434 C432 1.395 . S
C434 C437 1.403 . S
C435 C432 1.403 . S
C435 C436 1.524 . S
C435 C439 1.400 . S
C436 H421 0.960 . S
C436 H422 0.960 . S
C436 H423 0.960 . S
C436 C435 1.524 . S
C437 C434 1.403 . S
C437 C438 1.392 . S
C437 C441 1.495 . S
C438 C437 1.392 . S
C438 C439 1.385 . S
C438 C440 1.478 . S
C439 H433 0.930 . S
C439 C435 1.400 . S
C439 C438 1.385 . S
C440 C438 1.478 . S
C440 C442 1.381 . S
C440 C446 1.383 . S
C441 C437 1.495 . S
C441 H447 0.959 . S
C441 H448 0.961 . S
C441 H449 0.960 . S
C442 C440 1.381 . S
C442 C443 1.394 . S
C442 H450 0.930 . S
C443 C442 1.394 . S
C443 C444 1.383 . S
C443 H451 0.929 . S
C444 C443 1.383 . S
C444 C445 1.377 . S
C445 H429 0.930 . S
C445 C444 1.377 . S
C445 C446 1.379 . S
C446 H430 0.931 . S
C446 C440 1.383 . S
C446 C445 1.379 . S
H447 C441 0.959 . S
H448 C441 0.961 . S
H449 C441 0.960 . S
H450 C442 0.930 . S
H451 C443 0.929 . S
H452 C460 0.929 . S
H453 C462 0.930 . S
H454 C464 0.930 . S
H455 C467 0.929 . S
H456 C470 0.930 . S
H457 C472 0.960 . S
H458 C472 0.960 . S
H459 C472 0.960 . S
C460 H452 0.929 . S
C460 C461 1.377 . S
C460 C462 1.384 . S
C461 C460 1.377 . S
C461 C467 1.390 . S
C462 H453 0.930 . S
C462 C460 1.384 . S
C462 C463 1.372 . S
C463 C462 1.372 . S
C463 C464 1.400 . S
C463 C468 1.490 . S
C464 H454 0.930 . S
C464 C463 1.400 . S
C464 C467 1.386 . S
H465 C481 0.930 . S
H466 C482 0.931 . S
C467 H455 0.929 . S
C467 C461 1.390 . S
C467 C464 1.386 . S
C468 C463 1.490 . S
C468 C470 1.395 . S
C468 C471 1.403 . S
H469 C475 0.930 . S
C470 H456 0.930 . S
C470 C468 1.395 . S
C470 C473 1.403 . S
C471 C468 1.403 . S
C471 C472 1.524 . S
C471 C475 1.400 . S
C472 H457 0.960 . S
C472 H458 0.960 . S
C472 H459 0.960 . S
C472 C471 1.524 . S
C473 C470 1.403 . S
C473 C474 1.392 . S
C473 C477 1.495 . S
C474 C473 1.392 . S
C474 C475 1.385 . S
C474 C476 1.478 . S
C475 H469 0.930 . S
C475 C471 1.400 . S
C475 C474 1.385 . S
C476 C474 1.478 . S
C476 C478 1.381 . S
C476 C482 1.383 . S
C477 C473 1.495 . S
C477 H483 0.959 . S
C477 H484 0.961 . S
C477 H485 0.960 . S
C478 C476 1.381 . S
C478 C479 1.394 . S
C478 H486 0.930 . S
C479 C478 1.394 . S
C479 C480 1.383 . S
C479 H487 0.929 . S
C480 C479 1.383 . S
C480 C481 1.377 . S
C481 H465 0.930 . S
C481 C480 1.377 . S
C481 C482 1.379 . S
C482 H466 0.931 . S
C482 C476 1.383 . S
C482 C481 1.379 . S
H483 C477 0.959 . S
H484 C477 0.961 . S
H485 C477 0.960 . S
H486 C478 0.930 . S
H487 C479 0.929 . S
H488 C496 0.929 . S
H489 C498 0.930 . S
H490 C500 0.930 . S
H491 C503 0.929 . S
H492 C506 0.930 . S
H493 C508 0.960 . S
H494 C508 0.960 . S
H495 C508 0.960 . S
C496 H488 0.929 . S
C496 C497 1.377 . S
C496 C498 1.384 . S
C497 C496 1.377 . S
C497 C503 1.390 . S
C498 H489 0.930 . S
C498 C496 1.384 . S
C498 C499 1.372 . S
C499 C498 1.372 . S
C499 C500 1.400 . S
C499 C504 1.490 . S
C500 H490 0.930 . S
C500 C499 1.400 . S
C500 C503 1.386 . S
H501 C517 0.930 . S
H502 C518 0.931 . S
C503 H491 0.929 . S
C503 C497 1.390 . S
C503 C500 1.386 . S
C504 C499 1.490 . S
C504 C506 1.395 . S
C504 C507 1.403 . S
H505 C511 0.930 . S
C506 H492 0.930 . S
C506 C504 1.395 . S
C506 C509 1.403 . S
C507 C504 1.403 . S
C507 C508 1.524 . S
C507 C511 1.400 . S
C508 H493 0.960 . S
C508 H494 0.960 . S
C508 H495 0.960 . S
C508 C507 1.524 . S
C509 C506 1.403 . S
C509 C510 1.392 . S
C509 C513 1.495 . S
C510 C509 1.392 . S
C510 C511 1.385 . S
C510 C512 1.478 . S
C511 H505 0.930 . S
C511 C507 1.400 . S
C511 C510 1.385 . S
C512 C510 1.478 . S
C512 C514 1.381 . S
C512 C518 1.383 . S
C513 C509 1.495 . S
C513 H519 0.959 . S
C513 H520 0.961 . S
C513 H521 0.960 . S
C514 C512 1.381 . S
C514 C515 1.394 . S
C514 H522 0.930 . S
C515 C514 1.394 . S
C515 C516 1.383 . S
C515 H523 0.929 . S
C516 C515 1.383 . S
C516 C517 1.377 . S
C517 H501 0.930 . S
C517 C516 1.377 . S
C517 C518 1.379 . S
C518 H502 0.931 . S
C518 C512 1.383 . S
C518 C517 1.379 . S
H519 C513 0.959 . S
H520 C513 0.961 . S
H521 C513 0.960 . S
H522 C514 0.930 . S
H523 C515 0.929 . S
H524 C532 0.929 . S
H525 C534 0.930 . S
H526 C536 0.930 . S
H527 C539 0.929 . S
H528 C542 0.930 . S
H529 C544 0.960 . S
H530 C544 0.960 . S
H531 C544 0.960 . S
C532 H524 0.929 . S
C532 C533 1.377 . S
C532 C534 1.384 . S
C533 C532 1.377 . S
C533 C539 1.390 . S
C534 H525 0.930 . S
C534 C532 1.384 . S
C534 C535 1.372 . S
C535 C534 1.372 . S
C535 C536 1.400 . S
C535 C540 1.490 . S
C536 H526 0.930 . S
C536 C535 1.400 . S
C536 C539 1.386 . S
H537 C553 0.930 . S
H538 C554 0.931 . S
C539 H527 0.929 . S
C539 C533 1.390 . S
C539 C536 1.386 . S
C540 C535 1.490 . S
C540 C542 1.395 . S
C540 C543 1.403 . S
H541 C547 0.930 . S
C542 H528 0.930 . S
C542 C540 1.395 . S
C542 C545 1.403 . S
C543 C540 1.403 . S
C543 C544 1.524 . S
C543 C547 1.400 . S
C544 H529 0.960 . S
C544 H530 0.960 . S
C544 H531 0.960 . S
C544 C543 1.524 . S
C545 C542 1.403 . S
C545 C546 1.392 . S
C545 C549 1.495 . S
C546 C545 1.392 . S
C546 C547 1.385 . S
C546 C548 1.478 . S
C547 H541 0.930 . S
C547 C543 1.400 . S
C547 C546 1.385 . S
C548 C546 1.478 . S
C548 C550 1.381 . S
C548 C554 1.383 . S
C549 C545 1.495 . S
C549 H555 0.959 . S
C549 H556 0.961 . S
C549 H557 0.960 . S
C550 C548 1.381 . S
C550 C551 1.394 . S
C550 H558 0.930 . S
C551 C550 1.394 . S
C551 C552 1.383 . S
C551 H559 0.929 . S
C552 C551 1.383 . S
C552 C553 1.377 . S
C553 H537 0.930 . S
C553 C552 1.377 . S
C553 C554 1.379 . S
C554 H538 0.931 . S
C554 C548 1.383 . S
C554 C553 1.379 . S
H555 C549 0.959 . S
H556 C549 0.961 . S
H557 C549 0.960 . S
H558 C550 0.930 . S
H559 C551 0.929 . S
H560 C568 0.929 . S
H561 C570 0.930 . S
H562 C572 0.930 . S
H563 C575 0.929 . S
H564 C578 0.930 . S
H565 C580 0.960 . S
H566 C580 0.960 . S
H567 C580 0.960 . S
C568 H560 0.929 . S
C568 C569 1.377 . S
C568 C570 1.384 . S
C569 C568 1.377 . S
C569 C575 1.390 . S
C570 H561 0.930 . S
C570 C568 1.384 . S
C570 C571 1.372 . S
C571 C570 1.372 . S
C571 C572 1.400 . S
C571 C576 1.490 . S
C572 H562 0.930 . S
C572 C571 1.400 . S
C572 C575 1.386 . S
H573 C589 0.930 . S
H574 C590 0.931 . S
C575 H563 0.929 . S
C575 C569 1.390 . S
C575 C572 1.386 . S
C576 C571 1.490 . S
C576 C578 1.395 . S
C576 C579 1.382 1_455 S
H577 C583 0.930 1_655 S
C578 H564 0.930 . S
C578 C576 1.395 . S
C578 C581 1.403 . S
C579 C576 1.382 1_655 S
C579 C580 1.546 . S
C579 C583 1.397 1_655 S
C580 H565 0.960 . S
C580 H566 0.960 . S
C580 H567 0.960 . S
C580 C579 1.546 . S
C581 C578 1.403 . S
C581 C582 1.392 . S
C581 C585 1.495 . S
C582 C581 1.392 . S
C582 C583 1.385 . S
C582 C584 1.478 . S
C583 H577 0.930 1_455 S
C583 C579 1.397 1_455 S
C583 C582 1.385 . S
C584 C582 1.478 . S
C584 C586 1.381 . S
C584 C590 1.383 . S
C585 C581 1.495 . S
C585 H591 0.959 . S
C585 H592 0.961 . S
C585 H593 0.960 . S
C586 C584 1.381 . S
C586 C587 1.394 . S
C586 H594 0.930 . S
C587 C586 1.394 . S
C587 C588 1.383 . S
C587 H595 0.929 . S
C588 C587 1.383 . S
C588 C589 1.377 . S
C589 H573 0.930 . S
C589 C588 1.377 . S
C589 C590 1.379 . S
C590 H574 0.931 . S
C590 C584 1.383 . S
C590 C589 1.379 . S
H591 C585 0.959 . S
H592 C585 0.961 . S
H593 C585 0.960 . S
H594 C586 0.930 . S
H595 C587 0.929 . S
H596 C604 0.929 . S
H597 C606 0.930 . S
H598 C608 0.930 . S
H599 C611 0.929 . S
H600 C614 0.930 . S
H601 C616 0.960 . S
H602 C616 0.960 . S
H603 C616 0.960 . S
C604 H596 0.929 . S
C604 C605 1.377 . S
C604 C606 1.384 . S
C605 C604 1.377 . S
C605 C611 1.390 . S
C606 H597 0.930 . S
C606 C604 1.384 . S
C606 C607 1.372 . S
C607 C606 1.372 . S
C607 C608 1.400 . S
C607 C612 1.490 . S
C608 H598 0.930 . S
C608 C607 1.400 . S
C608 C611 1.386 . S
H609 C625 0.930 . S
H610 C626 0.931 . S
C611 H599 0.929 . S
C611 C605 1.390 . S
C611 C608 1.386 . S
C612 C607 1.490 . S
C612 C614 1.395 . S
C612 C615 1.434 . S
H613 C619 0.930 . S
C614 H600 0.930 . S
C614 C612 1.395 . S
C614 C617 1.403 . S
C615 C612 1.434 . S
C615 C616 1.508 1_556 S
C615 C619 1.385 1_556 S
C616 H601 0.960 . S
C616 H602 0.960 . S
C616 H603 0.960 . S
C616 C615 1.508 1_554 S
C617 C614 1.403 . S
C617 C618 1.392 1_556 S
C617 C621 1.495 . S
C618 C617 1.392 1_554 S
C618 C619 1.385 . S
C618 C620 1.478 . S
C619 H613 0.930 . S
C619 C615 1.385 1_554 S
C619 C618 1.385 . S
C620 C618 1.478 . S
C620 C622 1.381 . S
C620 C626 1.383 . S
C621 C617 1.495 . S
C621 H627 0.959 . S
C621 H628 0.961 . S
C621 H629 0.960 . S
C622 C620 1.381 . S
C622 C623 1.394 . S
C622 H630 0.930 . S
C623 C622 1.394 . S
C623 C624 1.383 . S
C623 H631 0.929 . S
C624 C623 1.383 . S
C624 C625 1.377 . S
C625 H609 0.930 . S
C625 C624 1.377 . S
C625 C626 1.379 . S
C626 H610 0.931 . S
C626 C620 1.383 . S
C626 C625 1.379 . S
H627 C621 0.959 . S
H628 C621 0.961 . S
H629 C621 0.960 . S
H630 C622 0.930 . S
H631 C623 0.929 . S
H632 C640 0.929 . S
H633 C642 0.930 . S
H634 C644 0.930 . S
H635 C647 0.929 . S
H636 C650 0.930 . S
H637 C652 0.960 . S
H638 C652 0.960 . S
H639 C652 0.960 1_545 S
C640 H632 0.929 . S
C640 C641 1.377 . S
C640 C642 1.384 . S
C641 C640 1.377 . S
C641 C647 1.390 . S
C642 H633 0.930 . S
C642 C640 1.384 . S
C642 C643 1.372 . S
C643 C642 1.372 . S
C643 C644 1.400 . S
C643 C648 1.490 . S
C644 H634 0.930 . S
C644 C643 1.400 . S
C644 C647 1.386 . S
H645 C661 0.930 . S
H646 C662 0.931 . S
C647 H635 0.929 . S
C647 C641 1.390 . S
C647 C644 1.386 . S
C648 C643 1.490 . S
C648 C650 1.395 . S
C648 C651 1.403 1_545 S
H649 C655 0.930 . S
C650 H636 0.930 . S
C650 C648 1.395 . S
C650 C653 1.403 . S
C651 C648 1.403 1_565 S
C651 C652 1.524 . S
C651 C655 1.400 . S
C652 H637 0.960 . S
C652 H638 0.960 . S
C652 H639 0.960 1_565 S
C652 C651 1.524 . S
C653 C650 1.403 . S
C653 C654 1.392 1_545 S
C653 C657 1.495 . S
C654 C653 1.392 1_565 S
C654 C655 1.385 . S
C654 C656 1.478 . S
C655 H649 0.930 . S
C655 C651 1.400 . S
C655 C654 1.385 . S
C656 C654 1.478 . S
C656 C658 1.381 . S
C656 C662 1.383 . S
C657 C653 1.495 . S
C657 H663 0.959 . S
C657 H664 0.961 . S
C657 H665 0.960 . S
C658 C656 1.381 . S
C658 C659 1.394 . S
C658 H666 0.930 . S
C659 C658 1.394 . S
C659 C660 1.383 . S
C659 H667 0.929 . S
C660 C659 1.383 . S
C660 C661 1.377 . S
C661 H645 0.930 . S
C661 C660 1.377 . S
C661 C662 1.379 . S
C662 H646 0.931 . S
C662 C656 1.383 . S
C662 C661 1.379 . S
H663 C657 0.959 . S
H664 C657 0.961 . S
H665 C657 0.960 . S
H666 C658 0.930 . S
H667 C659 0.929 . S
H668 C676 0.929 . S
H669 C678 0.930 . S
H670 C680 0.930 . S
H671 C683 0.929 . S
H672 C686 0.930 . S
H673 C688 0.960 . S
H674 C688 0.960 . S
H675 C688 0.960 1_565 S
C676 H668 0.929 . S
C676 C677 1.377 . S
C676 C678 1.384 . S
C677 C676 1.377 . S
C677 C683 1.390 1_455 S
C678 H669 0.930 . S
C678 C676 1.384 . S
C678 C679 1.372 . S
C679 C678 1.372 . S
C679 C680 1.400 1_455 S
C679 C684 1.490 . S
C680 H670 0.930 . S
C680 C679 1.400 1_655 S
C680 C683 1.386 . S
H681 C697 0.930 1_655 S
H682 C698 0.931 1_655 S
C683 H671 0.929 . S
C683 C677 1.390 1_655 S
C683 C680 1.386 . S
C684 C679 1.490 . S
C684 C686 1.395 1_554 S
C684 C687 1.403 1_465 S
H685 C691 0.930 1_655 S
C686 H672 0.930 . S
C686 C684 1.395 1_556 S
C686 C689 1.403 1_565 S
C687 C684 1.403 1_645 S
C687 C688 1.524 . S
C687 C691 1.400 1_654 S
C688 H673 0.960 . S
C688 H674 0.960 . S
C688 H675 0.960 1_545 S
C688 C687 1.524 . S
C689 C686 1.403 1_545 S
C689 C690 1.392 . S
C689 C693 1.495 . S
C690 C689 1.392 . S
C690 C691 1.385 . S
C690 C692 1.478 . S
C691 H685 0.930 1_455 S
C691 C687 1.400 1_456 S
C691 C690 1.385 . S
C692 C690 1.478 . S
C692 C694 1.381 . S
C692 C698 1.383 . S
C693 C689 1.495 . S
C693 H699 0.959 1_545 S
C693 H700 0.961 . S
C693 H701 0.960 . S
C694 C692 1.381 . S
C694 C695 1.394 . S
C694 H702 0.930 . S
C695 C694 1.394 . S
C695 C696 1.383 . S
C695 H703 0.929 . S
C696 C695 1.383 . S
C696 C697 1.377 . S
C697 H681 0.930 1_455 S
C697 C696 1.377 . S
C697 C698 1.379 . S
C698 H682 0.931 1_455 S
C698 C692 1.383 . S
C698 C697 1.379 . S
H699 C693 0.959 1_565 S
H700 C693 0.961 . S
H701 C693 0.960 . S
H702 C694 0.930 . S
H703 C695 0.929 . S
H704 C712 0.929 . S
H705 C714 0.930 . S
H706 C716 0.930 . S
H707 C719 0.929 . S
H708 C722 0.930 . S
H709 C724 0.960 . S
H710 C724 0.960 . S
H711 C724 0.960 . S
C712 H704 0.929 . S
C712 C713 1.377 . S
C712 C714 1.384 . S
C713 C712 1.377 . S
C713 C719 1.390 . S
C714 H705 0.930 . S
C714 C712 1.384 . S
C714 C715 1.372 . S
C715 C714 1.372 . S
C715 C716 1.400 . S
C715 C720 1.490 . S
C716 H706 0.930 . S
C716 C715 1.400 . S
C716 C719 1.386 . S
H717 C733 0.930 . S
H718 C734 0.931 . S
C719 H707 0.929 . S
C719 C713 1.390 . S
C719 C716 1.386 . S
C720 C715 1.490 . S
C720 C722 1.395 . S
C720 C723 1.403 . S
H721 C727 0.930 . S
C722 H708 0.930 . S
C722 C720 1.395 . S
C722 C725 1.403 . S
C723 C720 1.403 . S
C723 C724 1.524 . S
C723 C727 1.400 . S
C724 H709 0.960 . S
C724 H710 0.960 . S
C724 H711 0.960 . S
C724 C723 1.524 . S
C725 C722 1.403 . S
C725 C726 1.392 . S
C725 C729 1.495 . S
C726 C725 1.392 . S
C726 C727 1.385 . S
C726 C728 1.478 . S
C727 H721 0.930 . S
C727 C723 1.400 . S
C727 C726 1.385 . S
C728 C726 1.478 . S
C728 C730 1.381 . S
C728 C734 1.383 . S
C729 C725 1.495 . S
C729 H735 0.959 . S
C729 H736 0.961 . S
C729 H737 0.960 . S
C730 C728 1.381 . S
C730 C731 1.394 . S
C730 H738 0.930 . S
C731 C730 1.394 . S
C731 C732 1.383 . S
C731 H739 0.929 . S
C732 C731 1.383 . S
C732 C733 1.377 . S
C733 H717 0.930 . S
C733 C732 1.377 . S
C733 C734 1.379 . S
C734 H718 0.931 . S
C734 C728 1.383 . S
C734 C733 1.379 . S
H735 C729 0.959 . S
H736 C729 0.961 . S
H737 C729 0.960 . S
H738 C730 0.930 . S
H739 C731 0.929 . S
H740 C748 0.929 . S
H741 C750 0.930 . S
H742 C752 0.930 . S
H743 C755 0.929 . S
H744 C758 0.930 . S
H745 C760 0.960 . S
H746 C760 0.960 . S
H747 C760 0.960 . S
C748 H740 0.929 . S
C748 C749 1.377 . S
C748 C750 1.384 . S
C749 C748 1.377 . S
C749 C755 1.390 . S
C750 H741 0.930 . S
C750 C748 1.384 . S
C750 C751 1.372 . S
C751 C750 1.372 . S
C751 C752 1.400 . S
C751 C756 1.490 . S
C752 H742 0.930 . S
C752 C751 1.400 . S
C752 C755 1.386 . S
H753 C769 0.930 . S
H754 C770 0.931 . S
C755 H743 0.929 . S
C755 C749 1.390 . S
C755 C752 1.386 . S
C756 C751 1.490 . S
C756 C758 1.395 . S
C756 C759 1.403 . S
H757 C763 0.881 1_554 S
C758 H744 0.930 . S
C758 C756 1.395 . S
C758 C761 1.403 . S
C759 C756 1.403 . S
C759 C760 1.524 1_556 S
C759 C763 1.425 . S
C760 H745 0.960 . S
C760 H746 0.960 . S
C760 H747 0.960 . S
C760 C759 1.524 1_554 S
C761 C758 1.403 . S
C761 C762 1.392 . S
C761 C765 1.495 . S
C762 C761 1.392 . S
C762 C763 1.408 . S
C762 C764 1.492 . S
C763 H757 0.881 1_556 S
C763 C759 1.425 . S
C763 C762 1.408 . S
C764 C762 1.492 . S
C764 C766 1.377 1_556 S
C764 C770 1.369 1_556 S
C765 C761 1.495 . S
C765 H771 0.959 . S
C765 H772 0.961 . S
C765 H773 0.960 . S
C766 C764 1.377 1_554 S
C766 C767 1.423 . S
C766 H774 0.906 1_554 S
C767 C766 1.423 . S
C767 C768 1.383 . S
C767 H775 0.929 . S
C768 C767 1.383 . S
C768 C769 1.377 . S
C769 H753 0.930 . S
C769 C768 1.377 . S
C769 C770 1.379 . S
C770 H754 0.931 . S
C770 C764 1.369 1_554 S
C770 C769 1.379 . S
H771 C765 0.959 . S
H772 C765 0.961 . S
H773 C765 0.960 . S
H774 C766 0.906 1_556 S
H775 C767 0.929 . S
H776 C784 0.929 . S
H777 C786 0.930 . S
H778 C788 0.930 . S
H779 C791 0.929 . S
H780 C794 0.930 . S
H781 C796 0.960 . S
H782 C796 0.960 . S
H783 C796 0.960 . S
C784 H776 0.929 . S
C784 C785 1.377 . S
C784 C786 1.384 . S
C785 C784 1.377 . S
C785 C791 1.390 . S
C786 H777 0.930 . S
C786 C784 1.384 . S
C786 C787 1.372 . S
C787 C786 1.372 . S
C787 C788 1.400 . S
C787 C792 1.490 . S
C788 H778 0.930 . S
C788 C787 1.400 . S
C788 C791 1.386 . S
H789 C805 0.930 . S
H790 C806 0.931 . S
C791 H779 0.929 . S
C791 C785 1.390 . S
C791 C788 1.386 . S
C792 C787 1.490 . S
C792 C794 1.395 . S
C792 C795 1.403 . S
H793 C799 0.930 . S
C794 H780 0.930 . S
C794 C792 1.395 . S
C794 C797 1.403 . S
C795 C792 1.403 . S
C795 C796 1.524 . S
C795 C799 1.400 . S
C796 H781 0.960 . S
C796 H782 0.960 . S
C796 H783 0.960 . S
C796 C795 1.524 . S
C797 C794 1.403 . S
C797 C798 1.392 . S
C797 C801 1.495 . S
C798 C797 1.392 . S
C798 C799 1.385 . S
C798 C800 1.478 . S
C799 H793 0.930 . S
C799 C795 1.400 . S
C799 C798 1.385 . S
C800 C798 1.478 . S
C800 C802 1.381 . S
C800 C806 1.383 . S
C801 C797 1.495 . S
C801 H807 0.959 . S
C801 H808 0.961 . S
C801 H809 0.960 . S
C802 C800 1.381 . S
C802 C803 1.394 . S
C802 H810 0.930 . S
C803 C802 1.394 . S
C803 C804 1.383 . S
C803 H811 0.929 . S
C804 C803 1.383 . S
C804 C805 1.377 . S
C805 H789 0.930 . S
C805 C804 1.377 . S
C805 C806 1.379 . S
C806 H790 0.931 . S
C806 C800 1.383 . S
C806 C805 1.379 . S
H807 C801 0.959 . S
H808 C801 0.961 . S
H809 C801 0.960 . S
H810 C802 0.930 . S
H811 C803 0.929 . S
H812 C820 0.929 . S
H813 C822 0.930 . S
H814 C824 0.906 1_554 S
H815 C827 0.929 . S
H816 C830 0.930 . S
H817 C832 0.960 . S
H818 C832 0.960 . S
H819 C832 0.960 . S
C820 H812 0.929 . S
C820 C821 1.377 . S
C820 C822 1.384 . S
C821 C820 1.377 . S
C821 C827 1.390 . S
C822 H813 0.930 . S
C822 C820 1.384 . S
C822 C823 1.372 . S
C823 C822 1.372 . S
C823 C824 1.400 . S
C823 C828 1.490 . S
C824 H814 0.906 1_556 S
C824 C823 1.400 . S
C824 C827 1.386 . S
H825 C841 0.930 . S
H826 C842 0.931 . S
C827 H815 0.929 . S
C827 C821 1.390 . S
C827 C824 1.386 . S
C828 C823 1.490 . S
C828 C830 1.395 . S
C828 C831 1.403 1_556 S
H829 C835 0.930 . S
C830 H816 0.930 . S
C830 C828 1.395 . S
C830 C833 1.403 . S
C831 C828 1.403 1_554 S
C831 C832 1.524 . S
C831 C835 1.400 . S
C832 H817 0.960 . S
C832 H818 0.960 . S
C832 H819 0.960 . S
C832 C831 1.524 . S
C833 C830 1.403 . S
C833 C834 1.392 1_556 S
C833 C837 1.495 . S
C834 C833 1.392 1_554 S
C834 C835 1.385 . S
C834 C836 1.478 . S
C835 H829 0.930 . S
C835 C831 1.400 . S
C835 C834 1.385 . S
C836 C834 1.478 . S
C836 C838 1.381 . S
C836 C842 1.383 . S
C837 C833 1.495 . S
C837 H843 0.959 . S
C837 H844 0.961 . S
C837 H845 0.960 . S
C838 C836 1.381 . S
C838 C839 1.394 . S
C838 H846 0.930 . S
C839 C838 1.394 . S
C839 C840 1.383 . S
C839 H847 0.929 . S
C840 C839 1.383 . S
C840 C841 1.377 . S
C841 H825 0.930 . S
C841 C840 1.377 . S
C841 C842 1.379 . S
C842 H826 0.931 . S
C842 C836 1.383 . S
C842 C841 1.379 . S
H843 C837 0.959 . S
H844 C837 0.961 . S
H845 C837 0.960 . S
H846 C838 0.930 . S
H847 C839 0.929 . S
H848 C856 0.929 . S
H849 C858 0.930 . S
H850 C860 0.930 . S
H851 C863 0.929 . S
H852 C866 0.930 . S
H853 C868 0.960 . S
H854 C868 0.960 . S
H855 C868 0.960 . S
C856 H848 0.929 . S
C856 C857 1.377 . S
C856 C858 1.384 . S
C857 C856 1.377 . S
C857 C863 1.390 . S
C858 H849 0.930 . S
C858 C856 1.384 . S
C858 C859 1.372 . S
C859 C858 1.372 . S
C859 C860 1.400 . S
C859 C864 1.490 . S
C860 H850 0.930 . S
C860 C859 1.400 . S
C860 C863 1.386 . S
H861 C877 0.930 . S
H862 C878 0.931 . S
C863 H851 0.929 . S
C863 C857 1.390 . S
C863 C860 1.386 . S
C864 C859 1.490 . S
C864 C866 1.395 . S
C864 C867 1.403 . S
H865 C871 0.930 . S
C866 H852 0.930 . S
C866 C864 1.395 . S
C866 C869 1.403 . S
C867 C864 1.403 . S
C867 C868 1.524 . S
C867 C871 1.400 . S
C868 H853 0.960 . S
C868 H854 0.960 . S
C868 H855 0.960 . S
C868 C867 1.524 . S
C869 C866 1.403 . S
C869 C870 1.392 . S
C869 C873 1.495 . S
C870 C869 1.392 . S
C870 C871 1.385 . S
C870 C872 1.478 . S
C871 H865 0.930 . S
C871 C867 1.400 . S
C871 C870 1.385 . S
C872 C870 1.478 . S
C872 C874 1.381 . S
C872 C878 1.383 . S
C873 C869 1.495 . S
C873 H879 0.959 . S
C873 H880 0.961 . S
C873 H881 0.960 . S
C874 C872 1.381 . S
C874 C875 1.394 . S
C874 H882 0.930 . S
C875 C874 1.394 . S
C875 C876 1.383 . S
C875 H883 0.929 . S
C876 C875 1.383 . S
C876 C877 1.377 . S
C877 H861 0.930 . S
C877 C876 1.377 . S
C877 C878 1.379 . S
C878 H862 0.931 . S
C878 C872 1.383 . S
C878 C877 1.379 . S
H879 C873 0.959 . S
H880 C873 0.961 . S
H881 C873 0.960 . S
H882 C874 0.930 . S
H883 C875 0.929 . S
H884 C892 0.929 1_556 S
H885 C894 0.930 . S
H886 C896 0.930 . S
H887 C899 0.929 . S
H888 C902 0.930 . S
H889 C904 0.960 . S
H890 C904 0.960 . S
H891 C904 0.960 1_554 S
C892 H884 0.929 1_554 S
C892 C893 1.377 . S
C892 C894 1.384 1_554 S
C893 C892 1.377 . S
C893 C899 1.390 . S
C894 H885 0.930 . S
C894 C892 1.384 1_556 S
C894 C895 1.372 1_556 S
C895 C894 1.372 1_554 S
C895 C896 1.400 . S
C895 C900 1.490 1_554 S
C896 H886 0.930 . S
C896 C895 1.400 . S
C896 C899 1.386 . S
H897 C913 0.930 . S
H898 C914 0.931 . S
C899 H887 0.929 . S
C899 C893 1.390 . S
C899 C896 1.386 . S
C900 C895 1.490 1_556 S
C900 C902 1.395 . S
C900 C903 1.403 . S
H901 C907 0.930 . S
C902 H888 0.930 . S
C902 C900 1.395 . S
C902 C905 1.403 . S
C903 C900 1.403 . S
C903 C904 1.524 . S
C903 C907 1.400 . S
C904 H889 0.960 . S
C904 H890 0.960 . S
C904 H891 0.960 1_556 S
C904 C903 1.524 . S
C905 C902 1.403 . S
C905 C906 1.392 . S
C905 C909 1.495 . S
C906 C905 1.392 . S
C906 C907 1.385 . S
C906 C908 1.478 . S
C907 H901 0.930 . S
C907 C903 1.400 . S
C907 C906 1.385 . S
C908 C906 1.478 . S
C908 C910 1.381 . S
C908 C914 1.383 . S
C909 C905 1.495 . S
C909 H915 0.959 . S
C909 H916 0.961 . S
C909 H917 0.960 . S
C910 C908 1.381 . S
C910 C911 1.394 . S
C910 H918 0.930 . S
C911 C910 1.394 . S
C911 C912 1.383 . S
C911 H919 0.929 . S
C912 C911 1.383 . S
C912 C913 1.377 . S
C913 H897 0.930 . S
C913 C912 1.377 . S
C913 C914 1.379 . S
C914 H898 0.931 . S
C914 C908 1.383 . S
C914 C913 1.379 . S
H915 C909 0.959 . S
H916 C909 0.961 . S
H917 C909 0.960 . S
H918 C910 0.930 . S
H919 C911 0.929 . S
H920 C928 0.929 . S
H921 C930 0.930 . S
H922 C932 0.930 . S
H923 C935 0.929 . S
H924 C938 0.930 . S
H925 C940 0.960 . S
H926 C940 0.960 . S
H927 C940 0.960 . S
C928 H920 0.929 . S
C928 C929 1.377 . S
C928 C930 1.384 . S
C929 C928 1.377 . S
C929 C935 1.390 . S
C930 H921 0.930 . S
C930 C928 1.384 . S
C930 C931 1.372 . S
C931 C930 1.372 . S
C931 C932 1.400 . S
C931 C936 1.490 . S
C932 H922 0.930 . S
C932 C931 1.400 . S
C932 C935 1.386 . S
H933 C949 0.930 . S
H934 C950 0.931 . S
C935 H923 0.929 . S
C935 C929 1.390 . S
C935 C932 1.386 . S
C936 C931 1.490 . S
C936 C938 1.395 . S
C936 C939 1.403 . S
H937 C943 0.930 . S
C938 H924 0.930 . S
C938 C936 1.395 . S
C938 C941 1.403 . S
C939 C936 1.403 . S
C939 C940 1.524 . S
C939 C943 1.400 . S
C940 H925 0.960 . S
C940 H926 0.960 . S
C940 H927 0.960 . S
C940 C939 1.524 . S
C941 C938 1.403 . S
C941 C942 1.392 . S
C941 C945 1.495 . S
C942 C941 1.392 . S
C942 C943 1.385 . S
C942 C944 1.478 . S
C943 H937 0.930 . S
C943 C939 1.400 . S
C943 C942 1.385 . S
C944 C942 1.478 . S
C944 C946 1.381 . S
C944 C950 1.383 . S
C945 C941 1.495 . S
C945 H951 0.959 . S
C945 H952 0.961 . S
C945 H953 0.960 . S
C946 C944 1.381 . S
C946 C947 1.394 . S
C946 H954 0.930 . S
C947 C946 1.394 . S
C947 C948 1.383 . S
C947 H955 0.929 . S
C948 C947 1.383 . S
C948 C949 1.377 . S
C949 H933 0.930 . S
C949 C948 1.377 . S
C949 C950 1.379 . S
C950 H934 0.931 . S
C950 C944 1.383 . S
C950 C949 1.379 . S
H951 C945 0.959 . S
H952 C945 0.961 . S
H953 C945 0.960 . S
H954 C946 0.930 . S
H955 C947 0.929 . S
H956 C964 0.929 . S
H957 C966 0.930 . S
H958 C968 0.930 . S
H959 C971 0.929 . S
H960 C974 0.930 . S
H961 C976 0.960 . S
H962 C976 0.960 . S
H963 C976 0.960 . S
C964 H956 0.929 . S
C964 C965 1.377 . S
C964 C966 1.384 . S
C965 C964 1.377 . S
C965 C971 1.390 . S
C966 H957 0.930 . S
C966 C964 1.384 . S
C966 C967 1.372 . S
C967 C966 1.372 . S
C967 C968 1.400 . S
C967 C972 1.490 . S
C968 H958 0.930 . S
C968 C967 1.400 . S
C968 C971 1.386 . S
H969 C985 0.930 . S
H970 C986 0.931 . S
C971 H959 0.929 . S
C971 C965 1.390 . S
C971 C968 1.386 . S
C972 C967 1.490 . S
C972 C974 1.395 . S
C972 C975 1.403 1_556 S
H973 C979 0.930 . S
C974 H960 0.930 . S
C974 C972 1.395 . S
C974 C977 1.403 . S
C975 C972 1.403 1_554 S
C975 C976 1.524 . S
C975 C979 1.400 . S
C976 H961 0.960 . S
C976 H962 0.960 . S
C976 H963 0.960 . S
C976 C975 1.524 . S
C977 C974 1.403 . S
C977 C978 1.392 1_556 S
C977 C981 1.495 . S
C978 C977 1.392 1_554 S
C978 C979 1.385 . S
C978 C980 1.478 . S
C979 H973 0.930 . S
C979 C975 1.400 . S
C979 C978 1.385 . S
C980 C978 1.478 . S
C980 C982 1.381 . S
C980 C986 1.383 . S
C981 C977 1.495 . S
C981 H987 0.959 . S
C981 H988 0.961 . S
C981 H989 0.960 1_556 S
C982 C980 1.381 . S
C982 C983 1.394 . S
C982 H990 0.930 . S
C983 C982 1.394 . S
C983 C984 1.383 . S
C983 H991 0.929 . S
C984 C983 1.383 . S
C984 C985 1.377 . S
C985 H969 0.930 . S
C985 C984 1.377 . S
C985 C986 1.379 . S
C986 H970 0.931 . S
C986 C980 1.383 . S
C986 C985 1.379 . S
H987 C981 0.959 . S
H988 C981 0.961 . S
H989 C981 0.960 1_554 S
H990 C982 0.930 . S
H991 C983 0.929 . S
C281 C5 1.716 . S
C300 C107 1.718 . S
C317 C39 1.501 . S
C336 C88 1.544 . S
C353 C77 1.496 . S
C372 C54 1.521 . S
C389 C122 1.287 . S
C408 C20 1.281 . S
C425 C141 1.715 . S
C444 C243 1.712 . S
C461 C224 1.549 . S
C480 C175 1.491 . S
C497 C190 1.522 . S
C516 C213 1.489 . S
C533 C258 1.288 . S
C552 C156 1.287 . S
C569 C101 1.679 . S
C588 C33 1.671 . S
C605 C67 1.444 . S
C624 C135 1.413 . S
C641 C237 1.680 . S
C660 C169 1.668 . S
C677 C271 1.432 . S
C696 C203 1.446 . S
C713 C2 1.983 . S
C732 C206 1.978 . S
C749 C36 1.134 . S
C768 C247 1.088 . S
C785 C73 1.334 . S
C804 C145 1.314 . S
C821 C179 1.576 . S
C840 C104 1.618 . S
C857 C70 1.983 . S
C876 C138 1.980 . S
C893 C111 1.103 . S
C912 C172 1.136 . S
C929 C9 1.337 . S
C948 C209 1.301 . S
C965 C43 1.578 . S
C984 C240 1.618 . S
