# Generated by pormake.
# Topology upa, (4)-cn, num edge types: 1
# Building blocks:
#     Node 0, Type 0, BuildingBlock: QUQFOY_clean_sbu_1, # of connection points: 4
#     Node 1, Type 0, BuildingBlock: QUQFOY_clean_sbu_1, # of connection points: 4
#     Node 2, Type 0, BuildingBlock: QUQFOY_clean_sbu_1, # of connection points: 4
#     Node 3, Type 0, BuildingBlock: QUQFOY_clean_sbu_1, # of connection points: 4
#     Node 4, Type 0, BuildingBlock: QUQFOY_clean_sbu_1, # of connection points: 4
#     Node 5, Type 0, BuildingBlock: QUQFOY_clean_sbu_1, # of connection points: 4
#     Node 6, Type 0, BuildingBlock: QUQFOY_clean_sbu_1, # of connection points: 4
#     Node 7, Type 0, BuildingBlock: QUQFOY_clean_sbu_1, # of connection points: 4
#     Edge 8, Type (0, 0), BuildingBlock: XUDNAN_clean_linker_2, # of connection points: 2
#     Edge 9, Type (0, 0), BuildingBlock: XUDNAN_clean_linker_2, # of connection points: 2
#     Edge 10, Type (0, 0), BuildingBlock: XUDNAN_clean_linker_2, # of connection points: 2
#     Edge 11, Type (0, 0), BuildingBlock: XUDNAN_clean_linker_2, # of connection points: 2
#     Edge 12, Type (0, 0), BuildingBlock: XUDNAN_clean_linker_2, # of connection points: 2
#     Edge 13, Type (0, 0), BuildingBlock: XUDNAN_clean_linker_2, # of connection points: 2
#     Edge 14, Type (0, 0), BuildingBlock: XUDNAN_clean_linker_2, # of connection points: 2
#     Edge 15, Type (0, 0), BuildingBlock: XUDNAN_clean_linker_2, # of connection points: 2
#     Edge 16, Type (0, 0), BuildingBlock: XUDNAN_clean_linker_2, # of connection points: 2
#     Edge 17, Type (0, 0), BuildingBlock: XUDNAN_clean_linker_2, # of connection points: 2
#     Edge 18, Type (0, 0), BuildingBlock: XUDNAN_clean_linker_2, # of connection points: 2
#     Edge 19, Type (0, 0), BuildingBlock: XUDNAN_clean_linker_2, # of connection points: 2
#     Edge 20, Type (0, 0), BuildingBlock: XUDNAN_clean_linker_2, # of connection points: 2
#     Edge 21, Type (0, 0), BuildingBlock: XUDNAN_clean_linker_2, # of connection points: 2
#     Edge 22, Type (0, 0), BuildingBlock: XUDNAN_clean_linker_2, # of connection points: 2
#     Edge 23, Type (0, 0), BuildingBlock: XUDNAN_clean_linker_2, # of connection points: 2
# Relax obj value: 0.119
# Max RMSD: 0.089
# Mean RMSD: 0.089
data_MOF--net-upa--node1-QUQFOY_clean_sbu_1--edge1-XUDNAN_clean_linker_2
_symmetry_space_group_name_H-M    P1
_symmetry_Int_Tables_number       1
_symmetry_cell_setting            triclinic
loop_
_symmetry_equiv_pos_as_xyz
'x, y, z'
_cell_length_a     29.483334
_cell_length_b     29.447935
_cell_length_c     42.314072
_cell_angle_alpha  90.044231
_cell_angle_beta   89.888738
_cell_angle_gamma 89.76346
loop_
_atom_site_label
_atom_site_type_symbol
_atom_site_fract_x
_atom_site_fract_y
_atom_site_fract_z
_atom_type_partial_charge
O0 O 0.2148 0.19074 0.37127 0.0
Cd1 Cd 0.20549 0.17909 0.32296 0.0
Cd2 Cd 0.12151 0.22554 0.34596 0.0
O3 O 0.15934 0.23725 0.38581 0.0
O4 O 0.26196 0.14394 0.31273 0.0
O5 O 0.2469 0.21044 0.29135 0.0
C6 C 0.27413 0.17623 0.29415 0.0
C7 C 0.06668 0.27553 0.32599 0.0
C8 C 0.19559 0.21554 0.39214 0.0
C9 C 0.1162 0.13094 0.32013 0.0
O10 O 0.10109 0.1601 0.33951 0.0
O11 O 0.15485 0.13551 0.30723 0.0
O12 O 0.06087 0.25468 0.35242 0.0
O13 O 0.10552 0.27124 0.31209 0.0
O14 O 0.31734 0.70037 0.87795 0.0
Cd15 Cd 0.33994 0.70445 0.83176 0.0
Cd16 Cd 0.27395 0.61256 0.83469 0.0
O17 O 0.26551 0.64559 0.87783 0.0
O18 O 0.37137 0.76445 0.82905 0.0
O19 O 0.31061 0.74776 0.80091 0.0
C20 C 0.34157 0.77674 0.80848 0.0
C21 C 0.23419 0.54385 0.82717 0.0
C22 C 0.28701 0.67714 0.89194 0.0
C23 C 0.376 0.6154 0.8101 0.0
O24 O 0.3371 0.59965 0.81642 0.0
O25 O 0.3856 0.65667 0.81544 0.0
O26 O 0.26344 0.54897 0.84929 0.0
O27 O 0.22401 0.57921 0.81062 0.0
O28 O 0.7915 0.82504 0.36574 0.0
Cd29 Cd 0.80668 0.83474 0.31806 0.0
Cd30 Cd 0.88708 0.79441 0.34255 0.0
O31 O 0.84833 0.78187 0.38203 0.0
O32 O 0.74704 0.85389 0.29973 0.0
O33 O 0.78366 0.79194 0.28454 0.0
C34 C 0.74881 0.81841 0.28194 0.0
C35 C 0.94141 0.74456 0.32186 0.0
C36 C 0.81069 0.80175 0.38734 0.0
C37 C 0.89082 0.89016 0.31816 0.0
O38 O 0.90705 0.86018 0.33643 0.0
O39 O 0.85243 0.88485 0.30514 0.0
O40 O 0.9475 0.76484 0.34849 0.0
O41 O 0.90257 0.74944 0.30813 0.0
O42 O 0.68999 0.31594 0.88371 0.0
Cd43 Cd 0.67055 0.31175 0.83663 0.0
Cd44 Cd 0.72336 0.40149 0.83981 0.0
O45 O 0.73704 0.37459 0.88394 0.0
O46 O 0.64249 0.25014 0.8335 0.0
O47 O 0.70277 0.26993 0.80583 0.0
C48 C 0.67311 0.23945 0.81304 0.0
C49 C 0.7704 0.45681 0.81715 0.0
C50 C 0.7178 0.34167 0.89808 0.0
C51 C 0.62249 0.39861 0.82054 0.0
O52 O 0.65806 0.4193 0.82901 0.0
O53 O 0.621 0.35551 0.82026 0.0
O54 O 0.74742 0.4647 0.84242 0.0
O55 O 0.77027 0.41589 0.80618 0.0
O56 O 0.7118 0.33834 0.14841 0.0
Cd57 Cd 0.70813 0.3516 0.19636 0.0
Cd58 Cd 0.62118 0.29037 0.17928 0.0
O59 O 0.65472 0.29271 0.13599 0.0
O60 O 0.76661 0.38388 0.20451 0.0
O61 O 0.74989 0.31805 0.22643 0.0
C62 C 0.77855 0.35064 0.22247 0.0
C63 C 0.56317 0.23814 0.18938 0.0
C64 C 0.69001 0.31497 0.1282 0.0
C65 C 0.61547 0.38542 0.21307 0.0
O66 O 0.60067 0.34896 0.2011 0.0
O67 O 0.6576 0.39438 0.21329 0.0
O68 O 0.55886 0.26933 0.16834 0.0
O69 O 0.60249 0.23307 0.20233 0.0
O70 O 0.19487 0.20241 0.63454 0.0
Cd71 Cd 0.17152 0.19777 0.68052 0.0
Cd72 Cd 0.23539 0.11837 0.67799 0.0
O73 O 0.24725 0.14815 0.63422 0.0
O74 O 0.15108 0.25947 0.69462 0.0
O75 O 0.20797 0.22175 0.71676 0.0
C76 C 0.18251 0.25762 0.71579 0.0
C77 C 0.28609 0.06441 0.69873 0.0
C78 C 0.22602 0.18025 0.62038 0.0
C79 C 0.13193 0.1082 0.69288 0.0
O80 O 0.17214 0.09409 0.68862 0.0
O81 O 0.12229 0.1501 0.69031 0.0
O82 O 0.26401 0.05724 0.67307 0.0
O83 O 0.2833 0.10441 0.71111 0.0
O84 O 0.29543 0.68062 0.14219 0.0
Cd85 Cd 0.2991 0.66686 0.19018 0.0
Cd86 Cd 0.39551 0.71509 0.16877 0.0
O87 O 0.35681 0.71919 0.128 0.0
O88 O 0.25775 0.70063 0.22071 0.0
O89 O 0.23943 0.63631 0.19741 0.0
C90 C 0.22824 0.66905 0.21605 0.0
C91 C 0.46417 0.75516 0.17274 0.0
C92 C 0.3186 0.70153 0.12139 0.0
C93 C 0.38878 0.62086 0.20329 0.0
O94 O 0.4081 0.65336 0.18909 0.0
O95 O 0.34598 0.62022 0.20697 0.0
O96 O 0.45791 0.72441 0.15166 0.0
O97 O 0.42969 0.7668 0.18982 0.0
O98 O 0.8025 0.8128 0.62976 0.0
Cd99 Cd 0.82481 0.81147 0.67623 0.0
Cd100 Cd 0.77568 0.90212 0.67086 0.0
O101 O 0.75789 0.87358 0.62795 0.0
O102 O 0.8536 0.74996 0.67946 0.0
O103 O 0.79535 0.7707 0.70893 0.0
C104 C 0.82465 0.73993 0.70113 0.0
C105 C 0.73008 0.95672 0.69603 0.0
C106 C 0.77513 0.83856 0.61485 0.0
C107 C 0.87714 0.89778 0.68643 0.0
O108 O 0.84213 0.91957 0.67779 0.0
O109 O 0.87644 0.85483 0.68916 0.0
O110 O 0.75011 0.965 0.66963 0.0
O111 O 0.73245 0.91584 0.70694 0.0
H112 H 0.07191 0.07757 0.3616 0.0
H113 H 0.09351 0.09915 0.26146 0.0
H114 H 0.03405 0.04213 0.24936 0.0
H115 H 0.05496 0.95524 0.35576 0.0
H116 H 0.01361 0.95505 0.38719 0.0
H117 H 0.05799 0.99685 0.38695 0.0
H118 H 0.99718 0.06063 0.38999 0.0
H119 H 0.95258 0.01906 0.38946 0.0
H120 H 0.95359 0.06353 0.36023 0.0
H121 H 0.96708 0.98691 0.24919 0.0
H122 H 0.909 0.92817 0.26051 0.0
H123 H 0.93697 0.9403 0.36063 0.0
C124 C 0.06453 0.06969 0.33713 0.0
C125 C 0.08697 0.09234 0.31239 0.0
C126 C 0.07677 0.0815 0.28064 0.0
C127 C 0.04285 0.04962 0.27363 0.0
C128 C 0.02035 0.02865 0.29871 0.0
C129 C 0.03172 0.03746 0.32981 0.0
C130 C 1.00393 0.00951 0.35255 0.0
C131 C 0.03444 0.97724 0.37173 0.0
C132 C 0.97512 0.04002 0.37433 0.0
C133 C 0.97463 0.98384 0.32949 0.0
C134 C 0.98388 0.99576 0.29855 0.0
C135 C 0.9599 0.97704 0.27331 0.0
C136 C 0.92675 0.94417 0.27992 0.0
C137 C 0.91879 0.9301 0.31139 0.0
C138 C 0.94257 0.95065 0.33637 0.0
H139 H 0.46812 0.61965 0.81891 0.0
H140 H 0.3618 0.53621 0.7788 0.0
H141 H 0.41628 0.47357 0.77136 0.0
H142 H 0.56463 0.57117 0.76931 0.0
H143 H 0.60309 0.57414 0.8023 0.0
H144 H 0.55823 0.61554 0.79838 0.0
H145 H 0.53 0.59545 0.85467 0.0
H146 H 0.5741 0.55354 0.85856 0.0
H147 H 0.51564 0.53745 0.86379 0.0
H148 H 0.47759 0.41594 0.77719 0.0
H149 H 0.54417 0.36927 0.79196 0.0
H150 H 0.61081 0.49003 0.82779 0.0
C151 C 0.45688 0.5889 0.80733 0.0
C152 C 0.41089 0.58282 0.79931 0.0
C153 C 0.39699 0.54157 0.78508 0.0
C154 C 0.42768 0.50579 0.78068 0.0
C155 C 0.47228 0.51189 0.79035 0.0
C156 C 0.48716 0.55266 0.80287 0.0
C157 C 0.53558 0.54868 0.81441 0.0
C158 C 0.56726 0.57919 0.79493 0.0
C159 C 0.53898 0.5594 0.84996 0.0
C160 C 0.54462 0.49893 0.80781 0.0
C161 C 0.50795 0.4784 0.79359 0.0
C162 C 0.50701 0.43179 0.78767 0.0
C163 C 0.54477 0.4055 0.79636 0.0
C164 C 0.58276 0.42597 0.81087 0.0
C165 C 0.58257 0.47336 0.81635 0.0
H166 H 0.61652 0.47818 0.20819 0.0
H167 H 0.53626 0.36534 0.24228 0.0
H168 H 0.4713 0.41673 0.25111 0.0
H169 H 0.56198 0.56963 0.25983 0.0
H170 H 0.56435 0.61014 0.22795 0.0
H171 H 0.60759 0.56696 0.23143 0.0
H172 H 0.59097 0.54108 0.17408 0.0
H173 H 0.54741 0.58357 0.1706 0.0
H174 H 0.53411 0.52475 0.1635 0.0
H175 H 0.41144 0.47655 0.24716 0.0
H176 H 0.36223 0.54126 0.23215 0.0
H177 H 0.48108 0.61486 0.20005 0.0
C178 C 0.58596 0.46489 0.21892 0.0
C179 C 0.58148 0.41808 0.22497 0.0
C180 C 0.54038 0.40131 0.23777 0.0
C181 C 0.50333 0.43023 0.24293 0.0
C182 C 0.50791 0.47592 0.23527 0.0
C183 C 0.54837 0.49335 0.22389 0.0
C184 C 0.54256 0.54224 0.21359 0.0
C185 C 0.57079 0.57413 0.23446 0.0
C186 C 0.55445 0.54821 0.17836 0.0
C187 C 0.49228 0.54868 0.21951 0.0
C188 C 0.47299 0.5104 0.23255 0.0
C189 C 0.42629 0.50715 0.23758 0.0
C190 C 0.39855 0.54395 0.22885 0.0
C191 C 0.41766 0.58319 0.21496 0.0
C192 C 0.46525 0.58557 0.21083 0.0
H193 H 0.0396 0.11348 0.68283 0.0
H194 H 0.14586 0.02491 0.71852 0.0
H195 H 0.09077 0.9631 0.72459 0.0
H196 H 0.94623 0.06697 0.73301 0.0
H197 H 0.90533 0.07191 0.70159 0.0
H198 H 0.95178 0.11135 0.70396 0.0
H199 H 0.97518 0.09065 0.64664 0.0
H200 H 0.92917 0.05089 0.64421 0.0
H201 H 0.98645 0.03213 0.63667 0.0
H202 H 0.02707 0.9084 0.72133 0.0
H203 H 0.95709 0.86514 0.71086 0.0
H204 H 0.89188 0.98862 0.6774 0.0
C205 C 0.05089 0.08148 0.69272 0.0
C206 C 0.09694 0.07404 0.70023 0.0
C207 C 0.11072 0.03136 0.7125 0.0
C208 C 0.07968 0.99601 0.71617 0.0
C209 C 0.03486 1.00383 0.70759 0.0
C210 C 0.02026 0.04556 0.69641 0.0
C211 C 0.97086 0.04374 0.68677 0.0
C212 C 0.94184 0.07537 0.70758 0.0
C213 C 0.96511 0.05501 0.65148 0.0
C214 C 0.96062 0.99428 0.69342 0.0
C215 C 0.99786 0.97198 0.70569 0.0
C216 C 0.99737 0.92556 0.71216 0.0
C217 C 0.95758 0.90124 0.70598 0.0
C218 C 0.91896 0.92342 0.6934 0.0
C219 C 0.92066 0.97063 0.68727 0.0
H220 H 0.15528 0.25005 0.4458 0.0
H221 H 0.27573 0.17887 0.41295 0.0
H222 H 0.30084 0.16925 0.4681 0.0
H223 H 0.20905 0.30702 0.51487 0.0
H224 H 0.15913 0.29987 0.53899 0.0
H225 H 0.15371 0.3066 0.49683 0.0
H226 H 0.10872 0.23131 0.49388 0.0
H227 H 0.1142 0.22423 0.5359 0.0
H228 H 0.13362 0.18007 0.50957 0.0
H229 H 0.30819 0.15892 0.52679 0.0
H230 H 0.29788 0.15044 0.58444 0.0
H231 H 0.17335 0.22922 0.57916 0.0
C232 C 0.18755 0.23353 0.4501 0.0
C233 C 0.21359 0.21543 0.42491 0.0
C234 C 0.25519 0.1932 0.43175 0.0
C235 C 0.26983 0.18762 0.46304 0.0
C236 C 0.24273 0.20472 0.48733 0.0
C237 C 0.20266 0.2276 0.48123 0.0
C238 C 0.17809 0.23959 0.51162 0.0
C239 C 0.17482 0.29135 0.51582 0.0
C240 C 0.13089 0.21746 0.5128 0.0
C241 C 0.20988 0.21866 0.5357 0.0
C242 C 0.24718 0.19906 0.52125 0.0
C243 C 0.27953 0.17484 0.53843 0.0
C244 C 0.27332 0.1701 0.57118 0.0
C245 C 0.23505 0.18947 0.58645 0.0
C246 C 0.20344 0.21469 0.56838 0.0
H247 H 0.34296 0.71981 0.9342 0.0
H248 H 0.21417 0.64961 0.92743 0.0
H249 H 0.20479 0.65556 0.98532 0.0
H250 H 0.38007 0.66421 1.00204 0.0
H251 H 0.40813 0.71263 0.0191 0.0
H252 H 0.40191 0.70849 0.97692 0.0
H253 H 0.36156 0.78681 0.97591 0.0
H254 H 0.36778 0.79127 0.01817 0.0
H255 H 0.31241 0.79625 1.0005 0.0
H256 H 0.21237 0.66341 0.04407 0.0
H257 H 0.23722 0.67004 0.09941 0.0
H258 H 0.36228 0.73346 0.06817 0.0
C259 C 0.31222 0.70667 0.94476 0.0
C260 C 0.27905 0.68463 0.92619 0.0
C261 C 0.23992 0.66684 0.94111 0.0
C262 C 0.23423 0.67019 0.97398 0.0
C263 C 0.268 0.69134 0.99163 0.0
C264 C 0.30625 0.70929 0.97755 0.0
C265 C 0.33932 0.72675 1.00209 0.0
C266 C 0.38504 0.7015 0.9999 0.0
C267 C 0.34562 0.77834 0.99897 0.0
C268 C 0.31418 0.71486 0.03221 0.0
C269 C 0.27284 0.69505 0.02562 0.0
C270 C 0.24447 0.67928 0.04952 0.0
C271 C 0.25899 0.68317 0.08094 0.0
C272 C 0.30176 0.70236 0.0883 0.0
C273 C 0.32925 0.71905 0.06348 0.0
H274 H 0.82608 0.78668 0.57438 0.0
H275 H 0.70591 0.8721 0.57821 0.0
H276 H 0.69653 0.86352 0.52046 0.0
H277 H 0.86996 0.83379 0.50597 0.0
H278 H 0.89319 0.78167 0.49036 0.0
H279 H 0.88636 0.78855 0.53233 0.0
H280 H 0.83795 0.71536 0.53457 0.0
H281 H 0.8447 0.70819 0.4925 0.0
H282 H 0.78871 0.71037 0.50963 0.0
H283 H 0.70452 0.85171 0.46185 0.0
H284 H 0.73102 0.84104 0.40705 0.0
H285 H 0.84741 0.76504 0.44139 0.0
C286 C 0.79704 0.80258 0.56325 0.0
C287 C 0.76638 0.82965 0.58091 0.0
C288 C 0.72963 0.85097 0.56522 0.0
C289 C 0.72395 0.84613 0.53244 0.0
C290 C 0.75535 0.81996 0.51566 0.0
C291 C 0.79121 0.79856 0.53055 0.0
C292 C 0.82283 0.77629 0.50682 0.0
C293 C 0.8709 0.79629 0.50901 0.0
C294 C 0.82357 0.72447 0.51114 0.0
C295 C 0.79985 0.7895 0.47618 0.0
C296 C 0.76057 0.81402 0.4818 0.0
C297 C 0.73492 0.8321 0.45718 0.0
C298 C 0.75032 0.82584 0.42608 0.0
C299 C 0.7913 0.80207 0.41977 0.0
C300 C 0.8157 0.78289 0.44527 0.0
H301 H 0.66335 0.29719 0.94062 0.0
H302 H 0.78891 0.37295 0.93333 0.0
H303 H 0.79854 0.36792 0.99118 0.0
H304 H 0.62409 0.35153 0.00913 0.0
H305 H 0.59833 0.3019 0.02629 0.0
H306 H 0.60392 0.30642 0.98406 0.0
H307 H 0.64756 0.22991 0.98253 0.0
H308 H 0.64198 0.22506 0.02482 0.0
H309 H 0.69733 0.22253 1.00671 0.0
H310 H 0.7919 0.35973 0.0497 0.0
H311 H 0.76865 0.35117 0.10522 0.0
H312 H 0.64604 0.28224 0.07521 0.0
C313 C 0.69342 0.31181 0.9511 0.0
C314 C 0.72565 0.3351 0.93238 0.0
C315 C 0.7639 0.3548 0.94714 0.0
C316 C 0.76973 0.35198 0.97998 0.0
C317 C 0.73694 0.32951 0.99778 0.0
C318 C 0.69949 0.30978 0.98392 0.0
C319 C 0.66747 0.29081 0.0087 0.0
C320 C 0.6207 0.31407 1.00693 0.0
C321 C 0.66336 0.239 1.0055 0.0
C322 C 0.69237 0.30372 0.0387 0.0
C323 C 0.73261 0.32553 0.03178 0.0
C324 C 0.76066 0.34237 0.05541 0.0
C325 C 0.74702 0.33739 0.08695 0.0
C326 C 0.70546 0.31596 0.09475 0.0
C327 C 0.67818 0.29836 0.07016 0.0
H328 H 0.47556 0.26686 0.18528 0.0
H329 H 0.55932 0.15875 0.2235 0.0
H330 H 0.49207 0.12719 0.25085 0.0
H331 H 0.41562 0.28681 0.25448 0.0
H332 H 0.3624 0.30013 0.23568 0.0
H333 H 0.41485 0.3098 0.21502 0.0
H334 H 0.38758 0.25941 0.16863 0.0
H335 H 0.33473 0.24992 0.18901 0.0
H336 H 0.36886 0.20228 0.17641 0.0
H337 H 0.417 0.11129 0.27728 0.0
H338 H 0.34134 0.1132 0.30217 0.0
H339 H 0.30788 0.23488 0.24912 0.0
C340 C 0.47953 0.23565 0.19853 0.0
C341 C 0.52252 0.21464 0.20175 0.0
C342 C 0.52659 0.17493 0.22035 0.0
C343 C 0.48858 0.15685 0.23595 0.0
C344 C 0.44693 0.1792 0.23297 0.0
C345 C 0.44224 0.21779 0.21472 0.0
C346 C 0.39511 0.23815 0.21793 0.0
C347 C 0.39715 0.28657 0.23159 0.0
C348 C 0.37009 0.23737 0.1861 0.0
C349 C 0.37405 0.20536 0.24122 0.0
C350 C 0.4043 0.17124 0.24924 0.0
C351 C 0.393 0.13766 0.27099 0.0
C352 C 0.34987 0.1391 0.28503 0.0
C353 C 0.31856 0.17421 0.27763 0.0
C354 C 0.33092 0.20755 0.25523 0.0
H355 H 0.29574 0.80796 0.75625 0.0
H356 H 0.39021 0.84989 0.82906 0.0
H357 H 0.39104 0.92741 0.80681 0.0
H358 H 0.34535 0.87577 0.69288 0.0
H359 H 0.29111 0.8888 0.67543 0.0
H360 H 0.29907 0.83629 0.69657 0.0
H361 H 0.23104 0.85615 0.73304 0.0
H362 H 0.22274 0.90851 0.7119 0.0
H363 H 0.23074 0.90938 0.75411 0.0
H364 H 0.37637 1.00243 0.77895 0.0
H365 H 0.34923 0.06728 0.74663 0.0
H366 H 0.26889 0.9746 0.69025 0.0
C367 C 0.31678 0.83338 0.76742 0.0
C368 C 0.34282 0.82285 0.79445 0.0
C369 C 0.37004 0.85709 0.80828 0.0
C370 C 0.37076 0.90126 0.79581 0.0
C371 C 0.3446 0.91058 0.76919 0.0
C372 C 0.31842 0.87746 0.755 0.0
C373 C 0.29289 0.89634 0.72689 0.0
C374 C 0.30803 0.8729 0.69613 0.0
C375 C 0.24131 0.89236 0.7318 0.0
C376 C 0.30812 0.94538 0.72782 0.0
C377 C 0.33785 0.95309 0.7524 0.0
C378 C 0.35374 0.99662 0.75927 0.0
C379 C 0.33825 0.03324 0.74079 0.0
C380 C 0.30769 0.02593 0.71556 0.0
C381 C 0.29324 0.98123 0.70881 0.0
H382 H 0.65979 0.84439 0.28637 0.0
H383 H 0.75426 0.76978 0.22699 0.0
H384 H 0.69243 0.75391 0.18913 0.0
H385 H 0.5689 0.76719 0.27672 0.0
H386 H 0.52525 0.81022 0.27734 0.0
H387 H 0.5778 0.81961 0.29783 0.0
H388 H 0.58941 0.89411 0.26632 0.0
H389 H 0.53704 0.88464 0.24546 0.0
H390 H 0.58905 0.89256 0.22373 0.0
H391 H 0.62034 0.74452 0.15866 0.0
H392 H 0.54175 0.73302 0.14102 0.0
H393 H 0.4926 0.81004 0.22175 0.0
C394 C 0.66753 0.82523 0.26516 0.0
C395 C 0.71188 0.80871 0.25935 0.0
C396 C 0.72054 0.78282 0.2318 0.0
C397 C 0.68572 0.77395 0.21009 0.0
C398 C 0.64236 0.7908 0.21648 0.0
C399 C 0.63298 0.81532 0.24357 0.0
C400 C 0.5827 0.82587 0.2463 0.0
C401 C 0.56248 0.80443 0.27632 0.0
C402 C 0.57406 0.87736 0.24539 0.0
C403 C 0.56513 0.80296 0.21667 0.0
C404 C 0.60029 0.78376 0.19953 0.0
C405 C 0.59257 0.75953 0.17182 0.0
C406 C 0.54768 0.75333 0.16195 0.0
C407 C 0.51084 0.7707 0.17993 0.0
C408 C 0.51993 0.79685 0.20724 0.0
H409 H 0.7207 0.21075 0.76058 0.0
H410 H 0.6269 0.16437 0.83272 0.0
H411 H 0.62786 0.08762 0.8092 0.0
H412 H 0.67244 0.1449 0.69636 0.0
H413 H 0.72667 0.13316 0.67832 0.0
H414 H 0.71837 0.18463 0.70068 0.0
H415 H 0.78678 0.1638 0.73631 0.0
H416 H 0.79542 0.11245 0.71395 0.0
H417 H 0.78772 0.10966 0.75617 0.0
H418 H 0.64279 0.01435 0.77958 0.0
H419 H 0.66887 0.95142 0.74501 0.0
H420 H 0.74879 0.0469 0.69051 0.0
C421 C 0.70034 0.18446 0.77141 0.0
C422 C 0.67384 0.19357 0.79856 0.0
C423 C 0.64744 0.15826 0.81189 0.0
C424 C 0.64774 0.11451 0.7987 0.0
C425 C 0.67417 0.10664 0.77192 0.0
C426 C 0.69976 0.14071 0.75829 0.0
C427 C 0.72529 0.12332 0.7296 0.0
C428 C 0.70975 0.14797 0.69946 0.0
C429 C 0.77685 0.12755 0.7343 0.0
C430 C 0.71053 0.07408 0.72949 0.0
C431 C 0.68119 0.065 0.75414 0.0
C432 C 0.66524 0.02119 0.75991 0.0
C433 C 0.68015 0.98568 0.74017 0.0
C434 C 0.71018 0.99435 0.71477 0.0
C435 C 0.72493 0.03931 0.70925 0.0
H436 H 0.97689 0.25724 0.33363 0.0
H437 H 0.06947 0.3439 0.28189 0.0
H438 H 0.00456 0.37655 0.25233 0.0
H439 H 0.90957 0.22966 0.26808 0.0
H440 H 0.85687 0.2277 0.28969 0.0
H441 H 0.90947 0.21563 0.30955 0.0
H442 H 0.89202 0.27848 0.35074 0.0
H443 H 0.83915 0.29059 0.33112 0.0
H444 H 0.87965 0.33535 0.33747 0.0
H445 H 0.92959 0.39742 0.22718 0.0
H446 H 0.85189 0.40159 0.20577 0.0
H447 H 0.80921 0.29673 0.27128 0.0
C448 C 0.9834 0.28396 0.31666 0.0
C449 C 0.02811 0.2988 0.31046 0.0
C450 C 0.03543 0.33255 0.28725 0.0
C451 C 0.99877 0.35124 0.2704 0.0
C452 C 0.95515 0.33527 0.27674 0.0
C453 C 0.9474 0.30214 0.29919 0.0
C454 C 0.89803 0.28784 0.29956 0.0
C455 C 0.89323 0.23722 0.29121 0.0
C456 C 0.87591 0.29873 0.33163 0.0
C457 C 0.87914 0.31786 0.27364 0.0
C458 C 0.9125 0.34547 0.26113 0.0
C459 C 0.90325 0.37601 0.23684 0.0
C460 C 0.85894 0.37815 0.22487 0.0
C461 C 0.82444 0.34943 0.2368 0.0
C462 C 0.83483 0.31904 0.26161 0.0
H463 H 0.16055 0.34761 0.70785 0.0
H464 H 0.21928 0.25275 0.77479 0.0
H465 H 0.22973 0.31528 0.81305 0.0
H466 H 0.23815 0.43647 0.72371 0.0
H467 H 0.19729 0.4816 0.71876 0.0
H468 H 0.19002 0.42873 0.69807 0.0
H469 H 0.10985 0.42059 0.72259 0.0
H470 H 0.11712 0.4733 0.74363 0.0
H471 H 0.10323 0.42222 0.76494 0.0
H472 H 0.23604 0.38771 0.84323 0.0
H473 H 0.24715 0.46638 0.86108 0.0
H474 H 0.18817 0.51608 0.77368 0.0
C475 C 0.17505 0.33998 0.73074 0.0
C476 C 0.18871 0.29527 0.73855 0.0
C477 C 0.20853 0.28673 0.76839 0.0
C478 C 0.21427 0.32197 0.79034 0.0
C479 C 0.20046 0.36566 0.78196 0.0
C480 C 0.18184 0.37498 0.75273 0.0
C481 C 0.17377 0.4256 0.74861 0.0
C482 C 0.20147 0.44418 0.72064 0.0
C483 C 0.12297 0.43603 0.74472 0.0
C484 C 0.19138 0.44335 0.77993 0.0
C485 C 0.20573 0.408 0.799 0.0
C486 C 0.22477 0.41565 0.82858 0.0
C487 C 0.23083 0.46058 0.83853 0.0
C488 C 0.21844 0.49755 0.81885 0.0
C489 C 0.19736 0.48865 0.78948 0.0
H490 H 0.19843 0.72215 0.26568 0.0
H491 H 0.15417 0.61971 0.19885 0.0
H492 H 0.07667 0.62409 0.22075 0.0
H493 H 0.12809 0.68254 0.33165 0.0
H494 H 0.1166 0.7392 0.34578 0.0
H495 H 0.16908 0.72696 0.32553 0.0
H496 H 0.15196 0.79091 0.28517 0.0
H497 H 0.09957 0.80339 0.30533 0.0
H498 H 0.09918 0.79021 0.26373 0.0
H499 H 1.00221 0.64478 0.24667 0.0
H500 H 0.93776 0.67728 0.27697 0.0
H501 H 0.03143 0.76171 0.32943 0.0
C502 C 0.1725 0.70043 0.25583 0.0
C503 C 0.18239 0.67066 0.2305 0.0
C504 C 0.1475 0.64269 0.21832 0.0
C505 C 0.1033 0.64493 0.23059 0.0
C506 C 0.09456 0.6748 0.25541 0.0
C507 C 0.12828 0.70168 0.26816 0.0
C508 C 0.10977 0.73124 0.29456 0.0
C509 C 0.13223 0.71925 0.32626 0.0
C510 C 0.11545 0.78193 0.28672 0.0
C511 C 0.06028 0.71748 0.2942 0.0
C512 C 0.0521 0.685 0.27136 0.0
C513 C 0.00832 0.66958 0.26504 0.0
C514 C 0.97194 0.68817 0.28232 0.0
C515 C 0.9797 0.72126 0.30593 0.0
C516 C 0.02457 0.7355 0.31213 0.0
H517 H 0.74977 0.54675 0.82273 0.0
H518 H 0.83476 0.45275 0.77006 0.0
H519 H 0.86111 0.5162 0.73635 0.0
H520 H 0.71247 0.60826 0.75683 0.0
H521 H 0.7109 0.66251 0.77657 0.0
H522 H 0.70311 0.61113 0.79889 0.0
H523 H 0.76962 0.63318 0.83572 0.0
H524 H 0.77737 0.68491 0.81368 0.0
H525 H 0.82423 0.64613 0.81882 0.0
H526 H 0.87493 0.58944 0.70682 0.0
H527 H 0.87416 0.66578 0.68285 0.0
H528 H 0.77658 0.7109 0.75325 0.0
C529 C 0.77486 0.53962 0.80465 0.0
C530 C 0.79087 0.49489 0.79934 0.0
C531 C 0.8225 0.48681 0.77475 0.0
C532 C 0.83758 0.52264 0.7555 0.0
C533 C 0.82029 0.56617 0.76097 0.0
C534 C 0.78957 0.57473 0.78494 0.0
C535 C 0.77345 0.62369 0.78443 0.0
C536 C 0.72194 0.62654 0.77884 0.0
C537 C 0.78699 0.64844 0.81498 0.0
C538 C 0.79969 0.64144 0.75626 0.0
C539 C 0.82686 0.60784 0.74327 0.0
C540 C 0.85391 0.61599 0.71688 0.0
C541 C 0.85319 0.65953 0.70342 0.0
C542 C 0.82525 0.69439 0.71612 0.0
C543 C 0.79823 0.68502 0.74294 0.0
loop_
_geom_bond_atom_site_label_1
_geom_bond_atom_site_label_2
_geom_bond_distance
_geom_bond_site_symmetry_2
_ccdc_geom_bond_type
O0 Cd1 2.223 . S
O0 C8 1.315 . S
Cd1 O0 2.223 . S
Cd1 O4 2.297 . S
Cd1 O5 2.439 . S
Cd1 O11 2.240 . S
Cd2 O3 2.240 . S
Cd2 O10 2.223 . S
Cd2 O12 2.297 1_455 S
Cd2 O13 2.439 . S
O3 Cd2 2.240 . S
O3 C8 1.279 . S
O4 Cd1 2.297 . S
O4 C6 1.247 . S
O5 Cd1 2.439 . S
O5 C6 1.208 . S
C6 O4 1.247 . S
C6 O5 1.208 . S
C7 O12 1.247 . S
C7 O13 1.208 1_655 S
C8 O0 1.315 . S
C8 O3 1.279 . S
C9 O10 1.315 . S
C9 O11 1.279 . S
O10 Cd2 2.223 . S
O10 C9 1.315 . S
O11 Cd1 2.240 . S
O11 C9 1.279 . S
O12 Cd2 2.297 1_655 S
O12 C7 1.247 . S
O13 Cd2 2.439 . S
O13 C7 1.208 1_455 S
O14 Cd15 2.223 . S
O14 C22 1.315 . S
Cd15 O14 2.223 . S
Cd15 O18 2.297 . S
Cd15 O19 2.439 . S
Cd15 O25 2.240 . S
Cd16 O17 2.240 . S
Cd16 O24 2.223 . S
Cd16 O26 2.297 . S
Cd16 O27 2.439 . S
O17 Cd16 2.240 . S
O17 C22 1.279 . S
O18 Cd15 2.297 . S
O18 C20 1.247 . S
O19 Cd15 2.439 . S
O19 C20 1.208 . S
C20 O18 1.247 . S
C20 O19 1.208 . S
C21 O26 1.247 . S
C21 O27 1.208 . S
C22 O14 1.315 . S
C22 O17 1.279 . S
C23 O24 1.315 . S
C23 O25 1.279 . S
O24 Cd16 2.223 . S
O24 C23 1.315 . S
O25 Cd15 2.240 . S
O25 C23 1.279 . S
O26 Cd16 2.297 . S
O26 C21 1.247 . S
O27 Cd16 2.439 . S
O27 C21 1.208 . S
O28 Cd29 2.223 . S
O28 C36 1.315 . S
Cd29 O28 2.223 . S
Cd29 O32 2.297 . S
Cd29 O33 2.439 . S
Cd29 O39 2.240 . S
Cd30 O31 2.240 . S
Cd30 O38 2.223 . S
Cd30 O40 2.297 1_655 S
Cd30 O41 2.439 . S
O31 Cd30 2.240 . S
O31 C36 1.279 . S
O32 Cd29 2.297 . S
O32 C34 1.247 . S
O33 Cd29 2.439 . S
O33 C34 1.208 . S
C34 O32 1.247 . S
C34 O33 1.208 . S
C35 O40 1.247 . S
C35 O41 1.208 1_455 S
C36 O28 1.315 . S
C36 O31 1.279 . S
C37 O38 1.315 . S
C37 O39 1.279 . S
O38 Cd30 2.223 . S
O38 C37 1.315 . S
O39 Cd29 2.240 . S
O39 C37 1.279 . S
O40 Cd30 2.297 1_455 S
O40 C35 1.247 . S
O41 Cd30 2.439 . S
O41 C35 1.208 1_655 S
O42 Cd43 2.223 . S
O42 C50 1.315 . S
Cd43 O42 2.223 . S
Cd43 O46 2.297 . S
Cd43 O47 2.439 . S
Cd43 O53 2.240 . S
Cd44 O45 2.240 . S
Cd44 O52 2.223 . S
Cd44 O54 2.297 . S
Cd44 O55 2.439 . S
O45 Cd44 2.240 . S
O45 C50 1.279 . S
O46 Cd43 2.297 . S
O46 C48 1.247 . S
O47 Cd43 2.439 . S
O47 C48 1.208 . S
C48 O46 1.247 . S
C48 O47 1.208 . S
C49 O54 1.247 . S
C49 O55 1.208 . S
C50 O42 1.315 . S
C50 O45 1.279 . S
C51 O52 1.315 . S
C51 O53 1.279 . S
O52 Cd44 2.223 . S
O52 C51 1.315 . S
O53 Cd43 2.240 . S
O53 C51 1.279 . S
O54 Cd44 2.297 . S
O54 C49 1.247 . S
O55 Cd44 2.439 . S
O55 C49 1.208 . S
O56 Cd57 2.223 . S
O56 C64 1.315 . S
Cd57 O56 2.223 . S
Cd57 O60 2.297 . S
Cd57 O61 2.439 . S
Cd57 O67 2.240 . S
Cd58 O59 2.240 . S
Cd58 O66 2.223 . S
Cd58 O68 2.297 . S
Cd58 O69 2.439 . S
O59 Cd58 2.240 . S
O59 C64 1.279 . S
O60 Cd57 2.297 . S
O60 C62 1.247 . S
O61 Cd57 2.439 . S
O61 C62 1.208 . S
C62 O60 1.247 . S
C62 O61 1.208 . S
C63 O68 1.247 . S
C63 O69 1.208 . S
C64 O56 1.315 . S
C64 O59 1.279 . S
C65 O66 1.315 . S
C65 O67 1.279 . S
O66 Cd58 2.223 . S
O66 C65 1.315 . S
O67 Cd57 2.240 . S
O67 C65 1.279 . S
O68 Cd58 2.297 . S
O68 C63 1.247 . S
O69 Cd58 2.439 . S
O69 C63 1.208 . S
O70 Cd71 2.223 . S
O70 C78 1.315 . S
Cd71 O70 2.223 . S
Cd71 O74 2.297 . S
Cd71 O75 2.439 . S
Cd71 O81 2.240 . S
Cd72 O73 2.240 . S
Cd72 O80 2.223 . S
Cd72 O82 2.297 1_545 S
Cd72 O83 2.439 . S
O73 Cd72 2.240 . S
O73 C78 1.279 . S
O74 Cd71 2.297 . S
O74 C76 1.247 . S
O75 Cd71 2.439 . S
O75 C76 1.208 . S
C76 O74 1.247 . S
C76 O75 1.208 . S
C77 O82 1.247 . S
C77 O83 1.208 1_565 S
C78 O70 1.315 . S
C78 O73 1.279 . S
C79 O80 1.315 . S
C79 O81 1.279 . S
O80 Cd72 2.223 . S
O80 C79 1.315 . S
O81 Cd71 2.240 . S
O81 C79 1.279 . S
O82 Cd72 2.297 1_565 S
O82 C77 1.247 . S
O83 Cd72 2.439 . S
O83 C77 1.208 1_545 S
O84 Cd85 2.223 . S
O84 C92 1.315 . S
Cd85 O84 2.223 . S
Cd85 O88 2.297 . S
Cd85 O89 2.439 . S
Cd85 O95 2.240 . S
Cd86 O87 2.240 . S
Cd86 O94 2.223 . S
Cd86 O96 2.297 . S
Cd86 O97 2.439 . S
O87 Cd86 2.240 . S
O87 C92 1.279 . S
O88 Cd85 2.297 . S
O88 C90 1.247 . S
O89 Cd85 2.439 . S
O89 C90 1.208 . S
C90 O88 1.247 . S
C90 O89 1.208 . S
C91 O96 1.247 . S
C91 O97 1.208 . S
C92 O84 1.315 . S
C92 O87 1.279 . S
C93 O94 1.315 . S
C93 O95 1.279 . S
O94 Cd86 2.223 . S
O94 C93 1.315 . S
O95 Cd85 2.240 . S
O95 C93 1.279 . S
O96 Cd86 2.297 . S
O96 C91 1.247 . S
O97 Cd86 2.439 . S
O97 C91 1.208 . S
O98 Cd99 2.223 . S
O98 C106 1.315 . S
Cd99 O98 2.223 . S
Cd99 O102 2.297 . S
Cd99 O103 2.439 . S
Cd99 O109 2.240 . S
Cd100 O101 2.240 . S
Cd100 O108 2.223 . S
Cd100 O110 2.297 1_565 S
Cd100 O111 2.439 . S
O101 Cd100 2.240 . S
O101 C106 1.279 . S
O102 Cd99 2.297 . S
O102 C104 1.247 . S
O103 Cd99 2.439 . S
O103 C104 1.208 . S
C104 O102 1.247 . S
C104 O103 1.208 . S
C105 O110 1.247 . S
C105 O111 1.208 1_545 S
C106 O98 1.315 . S
C106 O101 1.279 . S
C107 O108 1.315 . S
C107 O109 1.279 . S
O108 Cd100 2.223 . S
O108 C107 1.315 . S
O109 Cd99 2.240 . S
O109 C107 1.279 . S
O110 Cd100 2.297 1_545 S
O110 C105 1.247 . S
O111 Cd100 2.439 . S
O111 C105 1.208 1_565 S
H112 C124 0.930 . S
H113 C126 0.930 . S
H114 C127 0.930 . S
H115 C131 0.959 . S
H116 C131 0.959 . S
H117 C131 0.961 . S
H118 C132 0.960 1_455 S
H119 C132 0.961 1_565 S
H120 C132 0.959 . S
H121 C135 0.929 . S
H122 C136 0.931 . S
H123 C138 0.930 . S
C124 H112 0.930 . S
C124 C125 1.399 . S
C124 C129 1.399 . S
C125 C124 1.399 . S
C125 C126 1.376 . S
C126 H113 0.930 . S
C126 C125 1.376 . S
C126 C127 1.388 1_455 S
C127 H114 0.930 . S
C127 C126 1.388 1_655 S
C127 C128 1.390 . S
C128 C127 1.390 . S
C128 C129 1.394 1_655 S
C128 C134 1.465 1_545 S
C129 C124 1.399 . S
C129 C128 1.394 1_455 S
C129 C130 1.516 1_545 S
C130 C129 1.516 1_565 S
C130 C131 1.502 . S
C130 C132 1.561 1_465 S
C130 C133 1.526 1_455 S
C131 H115 0.959 . S
C131 H116 0.959 . S
C131 H117 0.961 . S
C131 C130 1.502 . S
C132 H118 0.960 1_655 S
C132 H119 0.961 1_545 S
C132 H120 0.959 . S
C132 C130 1.561 1_645 S
C133 C130 1.526 1_655 S
C133 C134 1.396 . S
C133 C138 1.390 . S
C134 C128 1.465 1_565 S
C134 C133 1.396 . S
C134 C135 1.399 . S
C135 H121 0.929 . S
C135 C134 1.399 . S
C135 C136 1.385 . S
C136 H122 0.931 . S
C136 C135 1.385 . S
C136 C137 1.389 . S
C137 C136 1.389 . S
C137 C138 1.387 . S
C138 H123 0.930 . S
C138 C133 1.390 . S
C138 C137 1.387 . S
H139 C151 0.930 . S
H140 C153 0.930 . S
H141 C154 0.930 . S
H142 C158 0.959 . S
H143 C158 0.959 . S
H144 C158 0.961 . S
H145 C159 0.960 . S
H146 C159 0.961 . S
H147 C159 0.959 . S
H148 C162 0.929 . S
H149 C163 0.931 . S
H150 C165 0.930 . S
C151 H139 0.930 . S
C151 C152 1.399 . S
C151 C156 1.399 . S
C152 C151 1.399 . S
C152 C153 1.376 . S
C153 H140 0.930 . S
C153 C152 1.376 . S
C153 C154 1.388 . S
C154 H141 0.930 . S
C154 C153 1.388 . S
C154 C155 1.390 . S
C155 C154 1.390 . S
C155 C156 1.394 . S
C155 C161 1.465 . S
C156 C151 1.399 . S
C156 C155 1.394 . S
C156 C157 1.516 . S
C157 C156 1.516 . S
C157 C158 1.502 . S
C157 C159 1.561 . S
C157 C160 1.526 . S
C158 H142 0.959 . S
C158 H143 0.959 . S
C158 H144 0.961 . S
C158 C157 1.502 . S
C159 H145 0.960 . S
C159 H146 0.961 . S
C159 H147 0.959 . S
C159 C157 1.561 . S
C160 C157 1.526 . S
C160 C161 1.396 . S
C160 C165 1.390 . S
C161 C155 1.465 . S
C161 C160 1.396 . S
C161 C162 1.399 . S
C162 H148 0.929 . S
C162 C161 1.399 . S
C162 C163 1.385 . S
C163 H149 0.931 . S
C163 C162 1.385 . S
C163 C164 1.389 . S
C164 C163 1.389 . S
C164 C165 1.387 . S
C165 H150 0.930 . S
C165 C160 1.390 . S
C165 C164 1.387 . S
H166 C178 0.930 . S
H167 C180 0.930 . S
H168 C181 0.930 . S
H169 C185 0.959 . S
H170 C185 0.959 . S
H171 C185 0.961 . S
H172 C186 0.960 . S
H173 C186 0.961 . S
H174 C186 0.959 . S
H175 C189 0.929 . S
H176 C190 0.931 . S
H177 C192 0.930 . S
C178 H166 0.930 . S
C178 C179 1.399 . S
C178 C183 1.399 . S
C179 C178 1.399 . S
C179 C180 1.376 . S
C180 H167 0.930 . S
C180 C179 1.376 . S
C180 C181 1.388 . S
C181 H168 0.930 . S
C181 C180 1.388 . S
C181 C182 1.390 . S
C182 C181 1.390 . S
C182 C183 1.394 . S
C182 C188 1.465 . S
C183 C178 1.399 . S
C183 C182 1.394 . S
C183 C184 1.516 . S
C184 C183 1.516 . S
C184 C185 1.502 . S
C184 C186 1.561 . S
C184 C187 1.526 . S
C185 H169 0.959 . S
C185 H170 0.959 . S
C185 H171 0.961 . S
C185 C184 1.502 . S
C186 H172 0.960 . S
C186 H173 0.961 . S
C186 H174 0.959 . S
C186 C184 1.561 . S
C187 C184 1.526 . S
C187 C188 1.396 . S
C187 C192 1.390 . S
C188 C182 1.465 . S
C188 C187 1.396 . S
C188 C189 1.399 . S
C189 H175 0.929 . S
C189 C188 1.399 . S
C189 C190 1.385 . S
C190 H176 0.931 . S
C190 C189 1.385 . S
C190 C191 1.389 . S
C191 C190 1.389 . S
C191 C192 1.387 . S
C192 H177 0.930 . S
C192 C187 1.390 . S
C192 C191 1.387 . S
H193 C205 0.930 . S
H194 C207 0.930 . S
H195 C208 0.930 . S
H196 C212 0.959 . S
H197 C212 0.959 . S
H198 C212 0.961 . S
H199 C213 0.960 . S
H200 C213 0.961 . S
H201 C213 0.959 . S
H202 C216 0.929 . S
H203 C217 0.931 . S
H204 C219 0.930 1_545 S
C205 H193 0.930 . S
C205 C206 1.399 . S
C205 C210 1.399 . S
C206 C205 1.399 . S
C206 C207 1.376 1_545 S
C207 H194 0.930 . S
C207 C206 1.376 1_565 S
C207 C208 1.388 . S
C208 H195 0.930 . S
C208 C207 1.388 . S
C208 C209 1.390 . S
C209 C208 1.390 . S
C209 C210 1.394 1_565 S
C209 C215 1.465 1_455 S
C210 C205 1.399 . S
C210 C209 1.394 1_545 S
C210 C211 1.516 1_455 S
C211 C210 1.516 1_655 S
C211 C212 1.502 . S
C211 C213 1.561 . S
C211 C214 1.526 . S
C212 H196 0.959 . S
C212 H197 0.959 . S
C212 H198 0.961 . S
C212 C211 1.502 . S
C213 H199 0.960 . S
C213 H200 0.961 . S
C213 H201 0.959 . S
C213 C211 1.561 . S
C214 C211 1.526 . S
C214 C215 1.396 1_545 S
C214 C219 1.390 1_545 S
C215 C209 1.465 1_655 S
C215 C214 1.396 1_565 S
C215 C216 1.399 . S
C216 H202 0.929 . S
C216 C215 1.399 . S
C216 C217 1.385 . S
C217 H203 0.931 . S
C217 C216 1.385 . S
C217 C218 1.389 . S
C218 C217 1.389 . S
C218 C219 1.387 . S
C219 H204 0.930 1_565 S
C219 C214 1.390 1_565 S
C219 C218 1.387 . S
H220 C232 0.930 . S
H221 C234 0.930 . S
H222 C235 0.930 . S
H223 C239 0.959 . S
H224 C239 0.959 . S
H225 C239 0.961 . S
H226 C240 0.960 . S
H227 C240 0.961 . S
H228 C240 0.959 . S
H229 C243 0.929 . S
H230 C244 0.931 . S
H231 C246 0.930 . S
C232 H220 0.930 . S
C232 C233 1.399 . S
C232 C237 1.399 . S
C233 C232 1.399 . S
C233 C234 1.376 . S
C234 H221 0.930 . S
C234 C233 1.376 . S
C234 C235 1.388 . S
C235 H222 0.930 . S
C235 C234 1.388 . S
C235 C236 1.390 . S
C236 C235 1.390 . S
C236 C237 1.394 . S
C236 C242 1.465 . S
C237 C232 1.399 . S
C237 C236 1.394 . S
C237 C238 1.516 . S
C238 C237 1.516 . S
C238 C239 1.502 . S
C238 C240 1.561 . S
C238 C241 1.526 . S
C239 H223 0.959 . S
C239 H224 0.959 . S
C239 H225 0.961 . S
C239 C238 1.502 . S
C240 H226 0.960 . S
C240 H227 0.961 . S
C240 H228 0.959 . S
C240 C238 1.561 . S
C241 C238 1.526 . S
C241 C242 1.396 . S
C241 C246 1.390 . S
C242 C236 1.465 . S
C242 C241 1.396 . S
C242 C243 1.399 . S
C243 H229 0.929 . S
C243 C242 1.399 . S
C243 C244 1.385 . S
C244 H230 0.931 . S
C244 C243 1.385 . S
C244 C245 1.389 . S
C245 C244 1.389 . S
C245 C246 1.387 . S
C246 H231 0.930 . S
C246 C241 1.390 . S
C246 C245 1.387 . S
H247 C259 0.930 . S
H248 C261 0.930 . S
H249 C262 0.930 . S
H250 C266 0.959 . S
H251 C266 0.959 . S
H252 C266 0.961 . S
H253 C267 0.960 1_556 S
H254 C267 0.961 . S
H255 C267 0.959 . S
H256 C270 0.929 . S
H257 C271 0.931 . S
H258 C273 0.930 . S
C259 H247 0.930 . S
C259 C260 1.399 . S
C259 C264 1.399 . S
C260 C259 1.399 . S
C260 C261 1.376 . S
C261 H248 0.930 . S
C261 C260 1.376 . S
C261 C262 1.388 . S
C262 H249 0.930 . S
C262 C261 1.388 . S
C262 C263 1.390 . S
C263 C262 1.390 . S
C263 C264 1.394 . S
C263 C269 1.465 1_556 S
C264 C259 1.399 . S
C264 C263 1.394 . S
C264 C265 1.516 . S
C265 C264 1.516 . S
C265 C266 1.502 . S
C265 C267 1.561 1_556 S
C265 C268 1.526 1_556 S
C266 H250 0.959 . S
C266 H251 0.959 . S
C266 H252 0.961 . S
C266 C265 1.502 . S
C267 H253 0.960 1_554 S
C267 H254 0.961 . S
C267 H255 0.959 . S
C267 C265 1.561 1_554 S
C268 C265 1.526 1_554 S
C268 C269 1.396 . S
C268 C273 1.390 . S
C269 C263 1.465 1_554 S
C269 C268 1.396 . S
C269 C270 1.399 . S
C270 H256 0.929 . S
C270 C269 1.399 . S
C270 C271 1.385 . S
C271 H257 0.931 . S
C271 C270 1.385 . S
C271 C272 1.389 . S
C272 C271 1.389 . S
C272 C273 1.387 . S
C273 H258 0.930 . S
C273 C268 1.390 . S
C273 C272 1.387 . S
H274 C286 0.930 . S
H275 C288 0.930 . S
H276 C289 0.930 . S
H277 C293 0.959 . S
H278 C293 0.959 . S
H279 C293 0.961 . S
H280 C294 0.960 . S
H281 C294 0.961 . S
H282 C294 0.959 . S
H283 C297 0.929 . S
H284 C298 0.931 . S
H285 C300 0.930 . S
C286 H274 0.930 . S
C286 C287 1.399 . S
C286 C291 1.399 . S
C287 C286 1.399 . S
C287 C288 1.376 . S
C288 H275 0.930 . S
C288 C287 1.376 . S
C288 C289 1.388 . S
C289 H276 0.930 . S
C289 C288 1.388 . S
C289 C290 1.390 . S
C290 C289 1.390 . S
C290 C291 1.394 . S
C290 C296 1.465 . S
C291 C286 1.399 . S
C291 C290 1.394 . S
C291 C292 1.516 . S
C292 C291 1.516 . S
C292 C293 1.502 . S
C292 C294 1.561 . S
C292 C295 1.526 . S
C293 H277 0.959 . S
C293 H278 0.959 . S
C293 H279 0.961 . S
C293 C292 1.502 . S
C294 H280 0.960 . S
C294 H281 0.961 . S
C294 H282 0.959 . S
C294 C292 1.561 . S
C295 C292 1.526 . S
C295 C296 1.396 . S
C295 C300 1.390 . S
C296 C290 1.465 . S
C296 C295 1.396 . S
C296 C297 1.399 . S
C297 H283 0.929 . S
C297 C296 1.399 . S
C297 C298 1.385 . S
C298 H284 0.931 . S
C298 C297 1.385 . S
C298 C299 1.389 . S
C299 C298 1.389 . S
C299 C300 1.387 . S
C300 H285 0.930 . S
C300 C295 1.390 . S
C300 C299 1.387 . S
H301 C313 0.930 . S
H302 C315 0.930 . S
H303 C316 0.930 . S
H304 C320 0.959 . S
H305 C320 0.959 . S
H306 C320 0.961 . S
H307 C321 0.960 . S
H308 C321 0.961 1_554 S
H309 C321 0.959 1_554 S
H310 C324 0.929 . S
H311 C325 0.931 . S
H312 C327 0.930 . S
C313 H301 0.930 . S
C313 C314 1.399 . S
C313 C318 1.399 . S
C314 C313 1.399 . S
C314 C315 1.376 . S
C315 H302 0.930 . S
C315 C314 1.376 . S
C315 C316 1.388 . S
C316 H303 0.930 . S
C316 C315 1.388 . S
C316 C317 1.390 . S
C317 C316 1.390 . S
C317 C318 1.394 . S
C317 C323 1.465 1_556 S
C318 C313 1.399 . S
C318 C317 1.394 . S
C318 C319 1.516 . S
C319 C318 1.516 . S
C319 C320 1.502 . S
C319 C321 1.561 . S
C319 C322 1.526 1_556 S
C320 H304 0.959 . S
C320 H305 0.959 . S
C320 H306 0.961 . S
C320 C319 1.502 . S
C321 H307 0.960 . S
C321 H308 0.961 1_556 S
C321 H309 0.959 1_556 S
C321 C319 1.561 . S
C322 C319 1.526 1_554 S
C322 C323 1.396 . S
C322 C327 1.390 . S
C323 C317 1.465 1_554 S
C323 C322 1.396 . S
C323 C324 1.399 . S
C324 H310 0.929 . S
C324 C323 1.399 . S
C324 C325 1.385 . S
C325 H311 0.931 . S
C325 C324 1.385 . S
C325 C326 1.389 . S
C326 C325 1.389 . S
C326 C327 1.387 . S
C327 H312 0.930 . S
C327 C322 1.390 . S
C327 C326 1.387 . S
H328 C340 0.930 . S
H329 C342 0.930 . S
H330 C343 0.930 . S
H331 C347 0.959 . S
H332 C347 0.959 . S
H333 C347 0.961 . S
H334 C348 0.960 . S
H335 C348 0.961 . S
H336 C348 0.959 . S
H337 C351 0.929 . S
H338 C352 0.931 . S
H339 C354 0.930 . S
C340 H328 0.930 . S
C340 C341 1.399 . S
C340 C345 1.399 . S
C341 C340 1.399 . S
C341 C342 1.376 . S
C342 H329 0.930 . S
C342 C341 1.376 . S
C342 C343 1.388 . S
C343 H330 0.930 . S
C343 C342 1.388 . S
C343 C344 1.390 . S
C344 C343 1.390 . S
C344 C345 1.394 . S
C344 C350 1.465 . S
C345 C340 1.399 . S
C345 C344 1.394 . S
C345 C346 1.516 . S
C346 C345 1.516 . S
C346 C347 1.502 . S
C346 C348 1.561 . S
C346 C349 1.526 . S
C347 H331 0.959 . S
C347 H332 0.959 . S
C347 H333 0.961 . S
C347 C346 1.502 . S
C348 H334 0.960 . S
C348 H335 0.961 . S
C348 H336 0.959 . S
C348 C346 1.561 . S
C349 C346 1.526 . S
C349 C350 1.396 . S
C349 C354 1.390 . S
C350 C344 1.465 . S
C350 C349 1.396 . S
C350 C351 1.399 . S
C351 H337 0.929 . S
C351 C350 1.399 . S
C351 C352 1.385 . S
C352 H338 0.931 . S
C352 C351 1.385 . S
C352 C353 1.389 . S
C353 C352 1.389 . S
C353 C354 1.387 . S
C354 H339 0.930 . S
C354 C349 1.390 . S
C354 C353 1.387 . S
H355 C367 0.930 . S
H356 C369 0.930 . S
H357 C370 0.930 . S
H358 C374 0.959 . S
H359 C374 0.959 . S
H360 C374 0.961 . S
H361 C375 0.960 . S
H362 C375 0.961 . S
H363 C375 0.959 . S
H364 C378 0.929 . S
H365 C379 0.931 . S
H366 C381 0.930 . S
C367 H355 0.930 . S
C367 C368 1.399 . S
C367 C372 1.399 . S
C368 C367 1.399 . S
C368 C369 1.376 . S
C369 H356 0.930 . S
C369 C368 1.376 . S
C369 C370 1.388 . S
C370 H357 0.930 . S
C370 C369 1.388 . S
C370 C371 1.390 . S
C371 C370 1.390 . S
C371 C372 1.394 . S
C371 C377 1.465 . S
C372 C367 1.399 . S
C372 C371 1.394 . S
C372 C373 1.516 . S
C373 C372 1.516 . S
C373 C374 1.502 . S
C373 C375 1.561 . S
C373 C376 1.526 . S
C374 H358 0.959 . S
C374 H359 0.959 . S
C374 H360 0.961 . S
C374 C373 1.502 . S
C375 H361 0.960 . S
C375 H362 0.961 . S
C375 H363 0.959 . S
C375 C373 1.561 . S
C376 C373 1.526 . S
C376 C377 1.396 . S
C376 C381 1.390 . S
C377 C371 1.465 . S
C377 C376 1.396 . S
C377 C378 1.399 . S
C378 H364 0.929 . S
C378 C377 1.399 . S
C378 C379 1.385 . S
C379 H365 0.931 . S
C379 C378 1.385 . S
C379 C380 1.389 . S
C380 C379 1.389 . S
C380 C381 1.387 . S
C381 H366 0.930 . S
C381 C376 1.390 . S
C381 C380 1.387 . S
H382 C394 0.930 . S
H383 C396 0.930 . S
H384 C397 0.930 . S
H385 C401 0.959 . S
H386 C401 0.959 . S
H387 C401 0.961 . S
H388 C402 0.960 . S
H389 C402 0.961 . S
H390 C402 0.959 . S
H391 C405 0.929 . S
H392 C406 0.931 . S
H393 C408 0.930 . S
C394 H382 0.930 . S
C394 C395 1.399 . S
C394 C399 1.399 . S
C395 C394 1.399 . S
C395 C396 1.376 . S
C396 H383 0.930 . S
C396 C395 1.376 . S
C396 C397 1.388 . S
C397 H384 0.930 . S
C397 C396 1.388 . S
C397 C398 1.390 . S
C398 C397 1.390 . S
C398 C399 1.394 . S
C398 C404 1.465 . S
C399 C394 1.399 . S
C399 C398 1.394 . S
C399 C400 1.516 . S
C400 C399 1.516 . S
C400 C401 1.502 . S
C400 C402 1.561 . S
C400 C403 1.526 . S
C401 H385 0.959 . S
C401 H386 0.959 . S
C401 H387 0.961 . S
C401 C400 1.502 . S
C402 H388 0.960 . S
C402 H389 0.961 . S
C402 H390 0.959 . S
C402 C400 1.561 . S
C403 C400 1.526 . S
C403 C404 1.396 . S
C403 C408 1.390 . S
C404 C398 1.465 . S
C404 C403 1.396 . S
C404 C405 1.399 . S
C405 H391 0.929 . S
C405 C404 1.399 . S
C405 C406 1.385 . S
C406 H392 0.931 . S
C406 C405 1.385 . S
C406 C407 1.389 . S
C407 C406 1.389 . S
C407 C408 1.387 . S
C408 H393 0.930 . S
C408 C403 1.390 . S
C408 C407 1.387 . S
H409 C421 0.930 . S
H410 C423 0.930 . S
H411 C424 0.930 . S
H412 C428 0.959 . S
H413 C428 0.959 . S
H414 C428 0.961 . S
H415 C429 0.960 . S
H416 C429 0.961 . S
H417 C429 0.959 . S
H418 C432 0.929 . S
H419 C433 0.931 . S
H420 C435 0.930 . S
C421 H409 0.930 . S
C421 C422 1.399 . S
C421 C426 1.399 . S
C422 C421 1.399 . S
C422 C423 1.376 . S
C423 H410 0.930 . S
C423 C422 1.376 . S
C423 C424 1.388 . S
C424 H411 0.930 . S
C424 C423 1.388 . S
C424 C425 1.390 . S
C425 C424 1.390 . S
C425 C426 1.394 . S
C425 C431 1.465 . S
C426 C421 1.399 . S
C426 C425 1.394 . S
C426 C427 1.516 . S
C427 C426 1.516 . S
C427 C428 1.502 . S
C427 C429 1.561 . S
C427 C430 1.526 . S
C428 H412 0.959 . S
C428 H413 0.959 . S
C428 H414 0.961 . S
C428 C427 1.502 . S
C429 H415 0.960 . S
C429 H416 0.961 . S
C429 H417 0.959 . S
C429 C427 1.561 . S
C430 C427 1.526 . S
C430 C431 1.396 . S
C430 C435 1.390 . S
C431 C425 1.465 . S
C431 C430 1.396 . S
C431 C432 1.399 . S
C432 H418 0.929 . S
C432 C431 1.399 . S
C432 C433 1.385 . S
C433 H419 0.931 . S
C433 C432 1.385 . S
C433 C434 1.389 . S
C434 C433 1.389 . S
C434 C435 1.387 . S
C435 H420 0.930 . S
C435 C430 1.390 . S
C435 C434 1.387 . S
H436 C448 0.930 . S
H437 C450 0.930 . S
H438 C451 0.930 . S
H439 C455 0.959 . S
H440 C455 0.959 . S
H441 C455 0.961 . S
H442 C456 0.960 . S
H443 C456 0.961 . S
H444 C456 0.959 . S
H445 C459 0.929 . S
H446 C460 0.931 . S
H447 C462 0.930 . S
C448 H436 0.930 . S
C448 C449 1.399 . S
C448 C453 1.399 . S
C449 C448 1.399 . S
C449 C450 1.376 . S
C450 H437 0.930 . S
C450 C449 1.376 . S
C450 C451 1.388 . S
C451 H438 0.930 . S
C451 C450 1.388 . S
C451 C452 1.390 . S
C452 C451 1.390 . S
C452 C453 1.394 . S
C452 C458 1.465 . S
C453 C448 1.399 . S
C453 C452 1.394 . S
C453 C454 1.516 . S
C454 C453 1.516 . S
C454 C455 1.502 . S
C454 C456 1.561 . S
C454 C457 1.526 . S
C455 H439 0.959 . S
C455 H440 0.959 . S
C455 H441 0.961 . S
C455 C454 1.502 . S
C456 H442 0.960 . S
C456 H443 0.961 . S
C456 H444 0.959 . S
C456 C454 1.561 . S
C457 C454 1.526 . S
C457 C458 1.396 . S
C457 C462 1.390 . S
C458 C452 1.465 . S
C458 C457 1.396 . S
C458 C459 1.399 . S
C459 H445 0.929 . S
C459 C458 1.399 . S
C459 C460 1.385 . S
C460 H446 0.931 . S
C460 C459 1.385 . S
C460 C461 1.389 . S
C461 C460 1.389 . S
C461 C462 1.387 . S
C462 H447 0.930 . S
C462 C457 1.390 . S
C462 C461 1.387 . S
H463 C475 0.930 . S
H464 C477 0.930 . S
H465 C478 0.930 . S
H466 C482 0.959 . S
H467 C482 0.959 . S
H468 C482 0.961 . S
H469 C483 0.960 . S
H470 C483 0.961 . S
H471 C483 0.959 . S
H472 C486 0.929 . S
H473 C487 0.931 . S
H474 C489 0.930 . S
C475 H463 0.930 . S
C475 C476 1.399 . S
C475 C480 1.399 . S
C476 C475 1.399 . S
C476 C477 1.376 . S
C477 H464 0.930 . S
C477 C476 1.376 . S
C477 C478 1.388 . S
C478 H465 0.930 . S
C478 C477 1.388 . S
C478 C479 1.390 . S
C479 C478 1.390 . S
C479 C480 1.394 . S
C479 C485 1.465 . S
C480 C475 1.399 . S
C480 C479 1.394 . S
C480 C481 1.516 . S
C481 C480 1.516 . S
C481 C482 1.502 . S
C481 C483 1.561 . S
C481 C484 1.526 . S
C482 H466 0.959 . S
C482 H467 0.959 . S
C482 H468 0.961 . S
C482 C481 1.502 . S
C483 H469 0.960 . S
C483 H470 0.961 . S
C483 H471 0.959 . S
C483 C481 1.561 . S
C484 C481 1.526 . S
C484 C485 1.396 . S
C484 C489 1.390 . S
C485 C479 1.465 . S
C485 C484 1.396 . S
C485 C486 1.399 . S
C486 H472 0.929 . S
C486 C485 1.399 . S
C486 C487 1.385 . S
C487 H473 0.931 . S
C487 C486 1.385 . S
C487 C488 1.389 . S
C488 C487 1.389 . S
C488 C489 1.387 . S
C489 H474 0.930 . S
C489 C484 1.390 . S
C489 C488 1.387 . S
H490 C502 0.930 . S
H491 C504 0.930 . S
H492 C505 0.930 . S
H493 C509 0.959 . S
H494 C509 0.959 . S
H495 C509 0.961 . S
H496 C510 0.960 . S
H497 C510 0.961 . S
H498 C510 0.959 . S
H499 C513 0.929 . S
H500 C514 0.931 . S
H501 C516 0.930 . S
C502 H490 0.930 . S
C502 C503 1.399 . S
C502 C507 1.399 . S
C503 C502 1.399 . S
C503 C504 1.376 . S
C504 H491 0.930 . S
C504 C503 1.376 . S
C504 C505 1.388 . S
C505 H492 0.930 . S
C505 C504 1.388 . S
C505 C506 1.390 . S
C506 C505 1.390 . S
C506 C507 1.394 . S
C506 C512 1.465 . S
C507 C502 1.399 . S
C507 C506 1.394 . S
C507 C508 1.516 . S
C508 C507 1.516 . S
C508 C509 1.502 . S
C508 C510 1.561 . S
C508 C511 1.526 . S
C509 H493 0.959 . S
C509 H494 0.959 . S
C509 H495 0.961 . S
C509 C508 1.502 . S
C510 H496 0.960 . S
C510 H497 0.961 . S
C510 H498 0.959 . S
C510 C508 1.561 . S
C511 C508 1.526 . S
C511 C512 1.396 . S
C511 C516 1.390 . S
C512 C506 1.465 . S
C512 C511 1.396 . S
C512 C513 1.399 . S
C513 H499 0.929 . S
C513 C512 1.399 . S
C513 C514 1.385 . S
C514 H500 0.931 . S
C514 C513 1.385 . S
C514 C515 1.389 . S
C515 C514 1.389 . S
C515 C516 1.387 . S
C516 H501 0.930 . S
C516 C511 1.390 . S
C516 C515 1.387 . S
H517 C529 0.930 . S
H518 C531 0.930 . S
H519 C532 0.930 . S
H520 C536 0.959 . S
H521 C536 0.959 . S
H522 C536 0.961 . S
H523 C537 0.960 . S
H524 C537 0.961 . S
H525 C537 0.959 . S
H526 C540 0.929 . S
H527 C541 0.931 . S
H528 C543 0.930 . S
C529 H517 0.930 . S
C529 C530 1.399 . S
C529 C534 1.399 . S
C530 C529 1.399 . S
C530 C531 1.376 . S
C531 H518 0.930 . S
C531 C530 1.376 . S
C531 C532 1.388 . S
C532 H519 0.930 . S
C532 C531 1.388 . S
C532 C533 1.390 . S
C533 C532 1.390 . S
C533 C534 1.394 . S
C533 C539 1.465 . S
C534 C529 1.399 . S
C534 C533 1.394 . S
C534 C535 1.516 . S
C535 C534 1.516 . S
C535 C536 1.502 . S
C535 C537 1.561 . S
C535 C538 1.526 . S
C536 H520 0.959 . S
C536 H521 0.959 . S
C536 H522 0.961 . S
C536 C535 1.502 . S
C537 H523 0.960 . S
C537 H524 0.961 . S
C537 H525 0.959 . S
C537 C535 1.561 . S
C538 C535 1.526 . S
C538 C539 1.396 . S
C538 C543 1.390 . S
C539 C533 1.465 . S
C539 C538 1.396 . S
C539 C540 1.399 . S
C540 H526 0.929 . S
C540 C539 1.399 . S
C540 C541 1.385 . S
C541 H527 0.931 . S
C541 C540 1.385 . S
C541 C542 1.389 . S
C542 C541 1.389 . S
C542 C543 1.387 . S
C543 H528 0.930 . S
C543 C538 1.390 . S
C543 C542 1.387 . S
C125 C9 0.810 . S
C137 C37 0.866 . S
C152 C23 0.818 . S
C164 C51 0.855 . S
C179 C65 0.809 . S
C191 C93 0.868 . S
C206 C79 0.805 . S
C218 C107 0.883 . S
C233 C8 1.363 . S
C245 C78 1.366 . S
C260 C22 1.388 . S
C272 C92 1.339 . S
C287 C106 1.397 . S
C299 C36 1.330 . S
C314 C50 1.392 . S
C326 C64 1.335 . S
C341 C63 1.757 . S
C353 C6 1.674 . S
C368 C20 1.732 . S
C380 C77 1.781 . S
C395 C34 1.752 . S
C407 C91 1.739 . S
C422 C48 1.752 . S
C434 C105 1.754 . S
C449 C7 1.780 . S
C461 C62 1.732 . S
C476 C76 1.677 . S
C488 C21 1.753 . S
C503 C90 1.680 . S
C515 C35 1.797 . S
C530 C49 1.797 . S
C542 C104 1.691 . S
