# Generated by pormake.
# Topology upb, (4)-cn, num edge types: 1
# Building blocks:
#     Node 0, Type 0, BuildingBlock: KUFVIS_clean_sbu_0, # of connection points: 4
#     Node 1, Type 0, BuildingBlock: KUFVIS_clean_sbu_0, # of connection points: 4
#     Node 2, Type 0, BuildingBlock: KUFVIS_clean_sbu_0, # of connection points: 4
#     Node 3, Type 0, BuildingBlock: KUFVIS_clean_sbu_0, # of connection points: 4
#     Node 4, Type 0, BuildingBlock: KUFVIS_clean_sbu_0, # of connection points: 4
#     Node 5, Type 0, BuildingBlock: KUFVIS_clean_sbu_0, # of connection points: 4
#     Node 6, Type 0, BuildingBlock: KUFVIS_clean_sbu_0, # of connection points: 4
#     Node 7, Type 0, BuildingBlock: KUFVIS_clean_sbu_0, # of connection points: 4
#     Node 8, Type 0, BuildingBlock: KUFVIS_clean_sbu_0, # of connection points: 4
#     Node 9, Type 0, BuildingBlock: KUFVIS_clean_sbu_0, # of connection points: 4
#     Node 10, Type 0, BuildingBlock: KUFVIS_clean_sbu_0, # of connection points: 4
#     Node 11, Type 0, BuildingBlock: KUFVIS_clean_sbu_0, # of connection points: 4
#     Node 12, Type 0, BuildingBlock: KUFVIS_clean_sbu_0, # of connection points: 4
#     Node 13, Type 0, BuildingBlock: KUFVIS_clean_sbu_0, # of connection points: 4
#     Node 14, Type 0, BuildingBlock: KUFVIS_clean_sbu_0, # of connection points: 4
#     Node 15, Type 0, BuildingBlock: KUFVIS_clean_sbu_0, # of connection points: 4
#     Edge 16, Type (0, 0), BuildingBlock: UVAHIK_clean_linker_0, # of connection points: 2
#     Edge 17, Type (0, 0), BuildingBlock: UVAHIK_clean_linker_0, # of connection points: 2
#     Edge 18, Type (0, 0), BuildingBlock: UVAHIK_clean_linker_0, # of connection points: 2
#     Edge 19, Type (0, 0), BuildingBlock: UVAHIK_clean_linker_0, # of connection points: 2
#     Edge 20, Type (0, 0), BuildingBlock: UVAHIK_clean_linker_0, # of connection points: 2
#     Edge 21, Type (0, 0), BuildingBlock: UVAHIK_clean_linker_0, # of connection points: 2
#     Edge 22, Type (0, 0), BuildingBlock: UVAHIK_clean_linker_0, # of connection points: 2
#     Edge 23, Type (0, 0), BuildingBlock: UVAHIK_clean_linker_0, # of connection points: 2
#     Edge 24, Type (0, 0), BuildingBlock: UVAHIK_clean_linker_0, # of connection points: 2
#     Edge 25, Type (0, 0), BuildingBlock: UVAHIK_clean_linker_0, # of connection points: 2
#     Edge 26, Type (0, 0), BuildingBlock: UVAHIK_clean_linker_0, # of connection points: 2
#     Edge 27, Type (0, 0), BuildingBlock: UVAHIK_clean_linker_0, # of connection points: 2
#     Edge 28, Type (0, 0), BuildingBlock: UVAHIK_clean_linker_0, # of connection points: 2
#     Edge 29, Type (0, 0), BuildingBlock: UVAHIK_clean_linker_0, # of connection points: 2
#     Edge 30, Type (0, 0), BuildingBlock: UVAHIK_clean_linker_0, # of connection points: 2
#     Edge 31, Type (0, 0), BuildingBlock: UVAHIK_clean_linker_0, # of connection points: 2
#     Edge 32, Type (0, 0), BuildingBlock: UVAHIK_clean_linker_0, # of connection points: 2
#     Edge 33, Type (0, 0), BuildingBlock: UVAHIK_clean_linker_0, # of connection points: 2
#     Edge 34, Type (0, 0), BuildingBlock: UVAHIK_clean_linker_0, # of connection points: 2
#     Edge 35, Type (0, 0), BuildingBlock: UVAHIK_clean_linker_0, # of connection points: 2
#     Edge 36, Type (0, 0), BuildingBlock: UVAHIK_clean_linker_0, # of connection points: 2
#     Edge 37, Type (0, 0), BuildingBlock: UVAHIK_clean_linker_0, # of connection points: 2
#     Edge 38, Type (0, 0), BuildingBlock: UVAHIK_clean_linker_0, # of connection points: 2
#     Edge 39, Type (0, 0), BuildingBlock: UVAHIK_clean_linker_0, # of connection points: 2
#     Edge 40, Type (0, 0), BuildingBlock: UVAHIK_clean_linker_0, # of connection points: 2
#     Edge 41, Type (0, 0), BuildingBlock: UVAHIK_clean_linker_0, # of connection points: 2
#     Edge 42, Type (0, 0), BuildingBlock: UVAHIK_clean_linker_0, # of connection points: 2
#     Edge 43, Type (0, 0), BuildingBlock: UVAHIK_clean_linker_0, # of connection points: 2
#     Edge 44, Type (0, 0), BuildingBlock: UVAHIK_clean_linker_0, # of connection points: 2
#     Edge 45, Type (0, 0), BuildingBlock: UVAHIK_clean_linker_0, # of connection points: 2
#     Edge 46, Type (0, 0), BuildingBlock: UVAHIK_clean_linker_0, # of connection points: 2
#     Edge 47, Type (0, 0), BuildingBlock: UVAHIK_clean_linker_0, # of connection points: 2
# Relax obj value: 0.214
# Max RMSD: 0.079
# Mean RMSD: 0.079
data_MOF--net-upb--node1-KUFVIS_clean_sbu_0--edge1-UVAHIK_clean_linker_0
_symmetry_space_group_name_H-M    P1
_symmetry_Int_Tables_number       1
_symmetry_cell_setting            triclinic
loop_
_symmetry_equiv_pos_as_xyz
'x, y, z'
_cell_length_a     56.745237
_cell_length_b     56.753496
_cell_length_c     42.176175
_cell_angle_alpha  89.99507
_cell_angle_beta   89.987992
_cell_angle_gamma 89.992097
loop_
_atom_site_label
_atom_site_type_symbol
_atom_site_fract_x
_atom_site_fract_y
_atom_site_fract_z
_atom_type_partial_charge
Mn0 Mn 0.04234 0.21466 0.27063 0.0
Mn1 Mn 0.08654 0.20748 0.32336 0.0
C2 C 0.03523 0.2202 0.324 0.0
C3 C 0.0126 0.19776 0.24032 0.0
C4 C 0.08078 0.25114 0.28248 0.0
O5 O 0.0673 0.19733 0.24516 0.0
O6 O 0.09415 0.19056 0.28341 0.0
C7 C 0.08146 0.15625 0.3346 0.0
N8 N 0.08228 0.17866 0.34606 0.0
C9 C 0.07801 0.16496 0.39974 0.0
C10 C 0.07726 0.14171 0.38854 0.0
C11 C 0.07889 0.13735 0.35582 0.0
C12 C 0.08046 0.18308 0.37745 0.0
H13 H 0.08275 0.15283 0.30946 0.0
C14 C 0.08647 0.18821 0.25503 0.0
O15 O 0.02184 0.21787 0.23239 0.0
O16 O 0.02071 0.18759 0.26557 0.0
N17 N 0.08181 0.2227 0.36337 0.0
C18 C 0.08225 0.24616 0.37026 0.0
C19 C 0.0805 0.25354 0.40195 0.0
C20 C 0.07866 0.23673 0.42627 0.0
C21 C 0.07868 0.21269 0.41866 0.0
C22 C 0.08049 0.20638 0.38665 0.0
H23 H 0.08379 0.25918 0.35173 0.0
O24 O 0.02094 0.22882 0.303 0.0
O25 O 0.05286 0.20796 0.31322 0.0
O26 O 0.06157 0.24527 0.26883 0.0
O27 O 0.09178 0.23779 0.30188 0.0
C28 C 0.0768 0.19472 0.44157 0.0
C29 C 0.07628 0.17089 0.4321 0.0
H30 H 0.07532 0.12708 0.40483 0.0
H31 H 0.07824 0.11946 0.34699 0.0
H32 H 0.08056 0.27213 0.40762 0.0
H33 H 0.07718 0.24249 0.45068 0.0
H34 H 0.07548 0.19906 0.46651 0.0
H35 H 0.07447 0.15725 0.44991 0.0
Mn36 Mn 0.77856 0.04317 0.27059 0.0
Mn37 Mn 0.78107 0.09334 0.31351 0.0
C38 C 0.76934 0.04246 0.32381 0.0
C39 C 0.79765 0.01056 0.24944 0.0
C40 C 0.74146 0.08176 0.26796 0.0
O41 O 0.79756 0.06536 0.2425 0.0
O42 O 0.80117 0.09661 0.27529 0.0
C43 C 0.83097 0.09104 0.33362 0.0
N44 N 0.80769 0.09248 0.3412 0.0
C45 C 0.81653 0.09379 0.39696 0.0
C46 C 0.84062 0.09249 0.38976 0.0
C47 C 0.84786 0.09104 0.35795 0.0
C48 C 0.80052 0.09372 0.37172 0.0
H49 H 0.83658 0.08987 0.3092 0.0
C50 C 0.80558 0.08573 0.24936 0.0
O51 O 0.77818 0.01838 0.23712 0.0
O52 O 0.80606 0.02179 0.2737 0.0
N53 N 0.76243 0.09264 0.35133 0.0
C54 C 0.73852 0.0929 0.35428 0.0
C55 C 0.72836 0.09388 0.38462 0.0
C56 C 0.74288 0.09483 0.41156 0.0
C57 C 0.76744 0.09489 0.4079 0.0
C58 C 0.77655 0.09402 0.37707 0.0
H59 H 0.72726 0.09226 0.33366 0.0
O60 O 0.76236 0.02558 0.30533 0.0
O61 O 0.78197 0.0589 0.31073 0.0
O62 O 0.74807 0.06099 0.26066 0.0
O63 O 0.75295 0.0955 0.28628 0.0
C64 C 0.78324 0.09548 0.43365 0.0
C65 C 0.80776 0.09482 0.4282 0.0
H66 H 0.85371 0.09243 0.40846 0.0
H67 H 0.86642 0.08992 0.35222 0.0
H68 H 0.70939 0.09386 0.38724 0.0
H69 H 0.73499 0.0954 0.43494 0.0
H70 H 0.7767 0.09611 0.45777 0.0
H71 H 0.81972 0.09492 0.44822 0.0
Mn72 Mn 0.96736 0.7728 0.27454 0.0
Mn73 Mn 0.92785 0.77458 0.33434 0.0
C74 C 0.97814 0.76072 0.32469 0.0
C75 C 0.9957 0.79245 0.24473 0.0
C76 C 0.92771 0.73706 0.28306 0.0
O77 O 0.94159 0.79413 0.2573 0.0
O78 O 0.91768 0.79631 0.3 0.0
C79 C 0.93609 0.82352 0.35586 0.0
N80 N 0.93531 0.80002 0.36225 0.0
C81 C 0.94562 0.80664 0.41687 0.0
C82 C 0.94638 0.83094 0.41093 0.0
C83 C 0.94166 0.8394 0.38027 0.0
C84 C 0.93996 0.79167 0.39161 0.0
H85 H 0.93254 0.83007 0.33229 0.0
C86 C 0.92344 0.80199 0.27164 0.0
O87 O 0.98497 0.77404 0.23342 0.0
O88 O 0.98988 0.79927 0.27296 0.0
N89 N 0.93544 0.75446 0.36929 0.0
C90 C 0.93485 0.73048 0.37076 0.0
C91 C 0.93947 0.71915 0.3997 0.0
C92 C 0.94446 0.73258 0.42686 0.0
C93 C 0.94478 0.75723 0.42483 0.0
C94 C 0.93982 0.76755 0.39541 0.0
H95 H 0.9309 0.72007 0.35 0.0
O96 O 0.99024 0.75397 0.30022 0.0
O97 O 0.96035 0.77449 0.31901 0.0
O98 O 0.94623 0.74378 0.26837 0.0
O99 O 0.91932 0.7477 0.30726 0.0
C100 C 0.95013 0.77198 0.45073 0.0
C101 C 0.95064 0.79666 0.44672 0.0
H102 H 0.95075 0.84324 0.42966 0.0
H103 H 0.94233 0.85812 0.37546 0.0
H104 H 0.93919 0.70011 0.40108 0.0
H105 H 0.94808 0.72377 0.44911 0.0
H106 H 0.95418 0.7645 0.47372 0.0
H107 H 0.95509 0.80779 0.4667 0.0
Mn108 Mn 0.21726 0.9587 0.27867 0.0
Mn109 Mn 0.20855 0.9186 0.3367 0.0
C110 C 0.21992 0.96998 0.33118 0.0
C111 C 0.20152 0.98568 0.24321 0.0
C112 C 0.25401 0.92246 0.29914 0.0
O113 O 0.20177 0.93151 0.2552 0.0
O114 O 0.1945 0.90733 0.29632 0.0
C115 C 0.15664 0.92235 0.34135 0.0
N116 N 0.17824 0.92328 0.35535 0.0
C117 C 0.16094 0.92994 0.40664 0.0
C118 C 0.13848 0.92894 0.39282 0.0
C119 C 0.13634 0.92525 0.36 0.0
C120 C 0.18052 0.92717 0.3868 0.0
H121 H 0.15492 0.91937 0.31616 0.0
C122 C 0.19312 0.91269 0.26687 0.0
O123 O 0.22215 0.97645 0.23831 0.0
O124 O 0.19011 0.97916 0.26832 0.0
N125 N 0.22093 0.92686 0.37741 0.0
C126 C 0.24386 0.928 0.38691 0.0
C127 C 0.24907 0.93199 0.41902 0.0
C128 C 0.23069 0.93431 0.44111 0.0
C129 C 0.20725 0.93262 0.43087 0.0
C130 C 0.20313 0.92877 0.39856 0.0
H131 H 0.25807 0.92602 0.37011 0.0
O132 O 0.2294 0.98274 0.3091 0.0
O133 O 0.20859 0.9513 0.32189 0.0
O134 O 0.24816 0.94005 0.28197 0.0
O135 O 0.24028 0.91295 0.31946 0.0
C136 C 0.1878 0.93469 0.45144 0.0
C137 C 0.16466 0.93361 0.4393 0.0
H138 H 0.12278 0.93105 0.40715 0.0
H139 H 0.11907 0.92452 0.34914 0.0
H140 H 0.26722 0.93321 0.42673 0.0
H141 H 0.23478 0.93743 0.46584 0.0
H142 H 0.19045 0.9374 0.47661 0.0
H143 H 0.14986 0.93562 0.45529 0.0
Mn144 Mn 0.04414 0.77347 0.70331 0.0
Mn145 Mn 0.09301 0.77682 0.65802 0.0
C146 C 0.04264 0.76218 0.65079 0.0
C147 C 0.0114 0.79268 0.7242 0.0
C148 C 0.08472 0.73861 0.70716 0.0
O149 O 0.06603 0.79442 0.72901 0.0
O150 O 0.09611 0.79869 0.69453 0.0
C151 C 0.08792 0.82564 0.63435 0.0
N152 N 0.09026 0.80217 0.62846 0.0
C153 C 0.09051 0.80876 0.57211 0.0
C154 C 0.08824 0.83303 0.57756 0.0
C155 C 0.08686 0.84149 0.60882 0.0
C156 C 0.09145 0.79382 0.59849 0.0
H157 H 0.08685 0.83219 0.65835 0.0
C158 C 0.08567 0.80345 0.72071 0.0
O159 O 0.01996 0.77401 0.73786 0.0
O160 O 0.02178 0.79992 0.69864 0.0
N161 N 0.09234 0.75663 0.62169 0.0
C162 C 0.09333 0.73265 0.6205 0.0
C163 C 0.09414 0.72131 0.59092 0.0
C164 C 0.09418 0.73473 0.56293 0.0
C165 C 0.09344 0.75938 0.56478 0.0
C166 C 0.0927 0.76971 0.59491 0.0
H167 H 0.09343 0.72226 0.64194 0.0
O168 O 0.02655 0.75509 0.67047 0.0
O169 O 0.05874 0.77596 0.66237 0.0
O170 O 0.06375 0.74436 0.71498 0.0
O171 O 0.09715 0.75006 0.68714 0.0
C172 C 0.09313 0.77411 0.5379 0.0
C173 C 0.09156 0.79878 0.54155 0.0
H174 H 0.08737 0.84531 0.55793 0.0
H175 H 0.085 0.86019 0.61321 0.0
H176 H 0.09473 0.70228 0.5897 0.0
H177 H 0.09467 0.72592 0.54016 0.0
H178 H 0.09371 0.76663 0.51428 0.0
H179 H 0.09093 0.80989 0.52069 0.0
Mn180 Mn 0.21163 0.04388 0.71188 0.0
Mn181 Mn 0.20513 0.08921 0.66085 0.0
C182 C 0.21825 0.03811 0.65849 0.0
C183 C 0.19436 0.01356 0.74037 0.0
C184 C 0.24712 0.08365 0.7049 0.0
O185 O 0.1933 0.06804 0.73742 0.0
O186 O 0.18635 0.09541 0.69976 0.0
C187 C 0.15461 0.08355 0.6452 0.0
N188 N 0.17749 0.08493 0.63564 0.0
C189 C 0.16638 0.08084 0.58086 0.0
C190 C 0.14267 0.07954 0.59009 0.0
C191 C 0.13678 0.08084 0.62241 0.0
C192 C 0.18337 0.08361 0.60463 0.0
H193 H 0.15003 0.08448 0.67002 0.0
C194 C 0.18369 0.08705 0.72778 0.0
O195 O 0.21426 0.02264 0.74941 0.0
O196 O 0.18468 0.02192 0.71491 0.0
N197 N 0.22224 0.08542 0.62205 0.0
C198 C 0.24598 0.08583 0.61724 0.0
C199 C 0.25487 0.08415 0.58624 0.0
C200 C 0.23926 0.08226 0.56052 0.0
C201 C 0.2149 0.08213 0.56602 0.0
C202 C 0.20707 0.08405 0.59741 0.0
H203 H 0.25807 0.08736 0.6369 0.0
O204 O 0.2268 0.02345 0.6791 0.0
O205 O 0.20576 0.05537 0.66974 0.0
O206 O 0.24168 0.06353 0.71625 0.0
O207 O 0.23422 0.09484 0.68516 0.0
C208 C 0.19808 0.07975 0.54165 0.0
C209 C 0.17384 0.07906 0.54907 0.0
H210 H 0.12887 0.07734 0.5726 0.0
H211 H 0.11853 0.07973 0.62972 0.0
H212 H 0.2737 0.08427 0.58218 0.0
H213 H 0.24619 0.08078 0.53666 0.0
H214 H 0.20362 0.07808 0.51717 0.0
H215 H 0.1611 0.07688 0.53018 0.0
Mn216 Mn 0.95384 0.22057 0.70248 0.0
Mn217 Mn 0.91302 0.2182 0.64438 0.0
C218 C 0.96489 0.22685 0.65049 0.0
C219 C 0.9802 0.20135 0.73545 0.0
C220 C 0.91835 0.25955 0.68945 0.0
O221 O 0.92612 0.20431 0.72373 0.0
O222 O 0.90179 0.20013 0.68191 0.0
C223 C 0.91569 0.16729 0.62952 0.0
N224 N 0.91708 0.19016 0.61991 0.0
C225 C 0.92482 0.17845 0.56606 0.0
C226 C 0.92333 0.15477 0.57534 0.0
C227 C 0.91881 0.14918 0.60723 0.0
C228 C 0.92155 0.19574 0.58933 0.0
H229 H 0.91226 0.16293 0.65402 0.0
C230 C 0.9073 0.19647 0.711 0.0
O231 O 0.97166 0.22179 0.74311 0.0
O232 O 0.9734 0.19207 0.70889 0.0
N233 N 0.92163 0.2347 0.60651 0.0
C234 C 0.92352 0.25837 0.6017 0.0
C235 C 0.92822 0.26693 0.57111 0.0
C236 C 0.93077 0.25109 0.54575 0.0
C237 C 0.92867 0.22682 0.55124 0.0
C238 C 0.92372 0.21934 0.58217 0.0
H239 H 0.92152 0.27065 0.62105 0.0
O240 O 0.97821 0.23411 0.67348 0.0
O241 O 0.94578 0.21577 0.65861 0.0
O242 O 0.93647 0.25199 0.70411 0.0
O243 O 0.90783 0.24797 0.66767 0.0
C244 C 0.93161 0.20975 0.52731 0.0
C245 C 0.92978 0.18557 0.53474 0.0
H246 H 0.92579 0.14074 0.55824 0.0
H247 H 0.91775 0.13094 0.6146 0.0
H248 H 0.92987 0.28569 0.56707 0.0
H249 H 0.93442 0.25776 0.5222 0.0
H250 H 0.93561 0.215 0.50321 0.0
H251 H 0.9324 0.1726 0.51624 0.0
Mn252 Mn 0.77932 0.96508 0.69969 0.0
Mn253 Mn 0.78339 0.92857 0.63674 0.0
C254 C 0.76998 0.97862 0.64961 0.0
C255 C 0.79771 0.99181 0.73337 0.0
C256 C 0.74281 0.92743 0.68365 0.0
O257 O 0.79894 0.93795 0.71687 0.0
O258 O 0.80261 0.91623 0.67248 0.0
C259 C 0.83379 0.93625 0.62184 0.0
N260 N 0.8108 0.93636 0.6126 0.0
C261 C 0.82136 0.94816 0.55967 0.0
C262 C 0.84517 0.94803 0.56856 0.0
C263 C 0.8514 0.94212 0.59981 0.0
C264 C 0.8046 0.94221 0.58267 0.0
H265 H 0.83864 0.93173 0.64585 0.0
C266 C 0.80709 0.92027 0.70176 0.0
O267 O 0.77863 0.98092 0.74213 0.0
O268 O 0.8061 0.98681 0.70562 0.0
N269 N 0.76591 0.93815 0.60014 0.0
C270 C 0.74212 0.93821 0.59567 0.0
C271 C 0.73295 0.94369 0.56565 0.0
C272 C 0.74831 0.9489 0.54049 0.0
C273 C 0.77271 0.94873 0.54563 0.0
C274 C 0.78084 0.94284 0.57596 0.0
H275 H 0.73023 0.93414 0.61487 0.0
O276 O 0.76234 0.98962 0.6745 0.0
O277 O 0.78318 0.9603 0.65475 0.0
O278 O 0.74958 0.9445 0.70119 0.0
O279 O 0.75447 0.91994 0.65975 0.0
C280 C 0.78927 0.95441 0.52194 0.0
C281 C 0.81358 0.95424 0.529 0.0
H282 H 0.85881 0.95257 0.55165 0.0
H283 H 0.86973 0.94208 0.60689 0.0
H284 H 0.71409 0.94387 0.56189 0.0
H285 H 0.74117 0.95303 0.51735 0.0
H286 H 0.7835 0.95921 0.49833 0.0
H287 H 0.82613 0.95893 0.51071 0.0
Mn288 Mn 0.54027 0.72103 0.78995 0.0
Mn289 Mn 0.58836 0.71205 0.83546 0.0
C290 C 0.53893 0.72953 0.84341 0.0
C291 C 0.50648 0.70569 0.76676 0.0
C292 C 0.58298 0.75353 0.79061 0.0
O293 O 0.56091 0.7001 0.7624 0.0
O294 O 0.59054 0.6925 0.79653 0.0
C295 C 0.58003 0.66228 0.85315 0.0
N296 N 0.58381 0.68508 0.86184 0.0
C297 C 0.58351 0.67476 0.91717 0.0
C298 C 0.57975 0.65114 0.90882 0.0
C299 C 0.57791 0.6449 0.87668 0.0
C300 C 0.5854 0.69131 0.89269 0.0
H301 H 0.57865 0.65743 0.82846 0.0
C302 C 0.58004 0.6897 0.76991 0.0
O303 O 0.51649 0.72444 0.7553 0.0
O304 O 0.51605 0.69601 0.79142 0.0
N305 N 0.58865 0.72977 0.87405 0.0
C306 C 0.59123 0.75345 0.87812 0.0
C307 C 0.59274 0.7627 0.90894 0.0
C308 C 0.5919 0.7475 0.9352 0.0
C309 C 0.5896 0.72317 0.9304 0.0
C310 C 0.58816 0.71497 0.89915 0.0
H311 H 0.59206 0.7652 0.85802 0.0
O312 O 0.52362 0.73873 0.82422 0.0
O313 O 0.55421 0.71526 0.83085 0.0
O314 O 0.56193 0.7493 0.78153 0.0
O315 O 0.59436 0.74033 0.80977 0.0
C316 C 0.58841 0.70674 0.95539 0.0
C317 C 0.58521 0.68258 0.9488 0.0
H318 H 0.5781 0.63768 0.9269 0.0
H319 H 0.57492 0.62672 0.87006 0.0
H320 H 0.59456 0.7815 0.91244 0.0
H321 H 0.59296 0.75471 0.95894 0.0
H322 H 0.58961 0.71256 0.9798 0.0
H323 H 0.58391 0.67018 0.96825 0.0
Mn324 Mn 0.2804 0.5311 0.80143 0.0
Mn325 Mn 0.28296 0.56988 0.86213 0.0
C326 C 0.27223 0.51877 0.85234 0.0
C327 C 0.29976 0.50442 0.7686 0.0
C328 C 0.24148 0.5667 0.81717 0.0
O329 O 0.29855 0.55837 0.7823 0.0
O330 O 0.29957 0.58279 0.82436 0.0
C331 C 0.33438 0.56666 0.87323 0.0
N332 N 0.31191 0.56512 0.88438 0.0
C333 C 0.32566 0.55611 0.93697 0.0
C334 C 0.34896 0.55776 0.9261 0.0
C335 C 0.35333 0.56297 0.89406 0.0
C336 C 0.30751 0.55986 0.91507 0.0
H337 H 0.33781 0.57065 0.84862 0.0
C338 C 0.30455 0.5776 0.79559 0.0
O339 O 0.28004 0.5141 0.75981 0.0
O340 O 0.30808 0.51043 0.79601 0.0
N341 N 0.26793 0.56027 0.90066 0.0
C342 C 0.24446 0.55871 0.9072 0.0
C343 C 0.23707 0.55388 0.9383 0.0
C344 C 0.25387 0.55086 0.96241 0.0
C345 C 0.27791 0.55251 0.95515 0.0
C346 C 0.28421 0.55769 0.92381 0.0
H347 H 0.23148 0.56102 0.8888 0.0
O348 O 0.26486 0.50667 0.82823 0.0
O349 O 0.28454 0.53753 0.84602 0.0
O350 O 0.24964 0.5503 0.79948 0.0
O351 O 0.25254 0.57521 0.84095 0.0
C352 C 0.29588 0.54902 0.97772 0.0
C353 C 0.31974 0.55068 0.96859 0.0
H354 H 0.36363 0.55494 0.9421 0.0
H355 H 0.37126 0.56418 0.88546 0.0
H356 H 0.21848 0.55251 0.9437 0.0
H357 H 0.24812 0.54724 0.9864 0.0
H358 H 0.29153 0.5448 0.00208 0.0
H359 H 0.3334 0.5477 0.98607 0.0
Mn360 Mn 0.45965 0.27611 0.79591 0.0
Mn361 Mn 0.42082 0.28682 0.85491 0.0
C362 C 0.47102 0.27132 0.84811 0.0
C363 C 0.48758 0.29 0.76052 0.0
C364 C 0.42021 0.24245 0.81481 0.0
O365 O 0.4337 0.29455 0.77365 0.0
O366 O 0.41073 0.30323 0.8156 0.0
C367 C 0.42978 0.33787 0.86276 0.0
N368 N 0.42861 0.31582 0.87538 0.0
C369 C 0.43828 0.3304 0.92735 0.0
C370 C 0.43946 0.3533 0.91495 0.0
C371 C 0.43527 0.35703 0.88249 0.0
C372 C 0.43282 0.312 0.9065 0.0
H373 H 0.42656 0.34079 0.83783 0.0
C374 C 0.4159 0.30471 0.7861 0.0
O375 O 0.47639 0.27048 0.75503 0.0
O376 O 0.48248 0.30145 0.78621 0.0
N377 N 0.42816 0.27223 0.8946 0.0
C378 C 0.42691 0.24901 0.90264 0.0
C379 C 0.43054 0.24226 0.93429 0.0
C380 C 0.43518 0.25946 0.9574 0.0
C381 C 0.43629 0.28326 0.94861 0.0
C382 C 0.43225 0.28895 0.91677 0.0
H383 H 0.42311 0.23572 0.88506 0.0
O384 O 0.48277 0.2612 0.82553 0.0
O385 O 0.45329 0.28432 0.83948 0.0
O386 O 0.43842 0.24704 0.79818 0.0
O387 O 0.41192 0.25643 0.83578 0.0
C388 C 0.44142 0.30153 0.97014 0.0
C389 C 0.44255 0.32507 0.95948 0.0
H390 H 0.4437 0.36812 0.93009 0.0
H391 H 0.43625 0.37464 0.87273 0.0
H392 H 0.42968 0.22386 0.9409 0.0
H393 H 0.43784 0.25421 0.98181 0.0
H394 H 0.44482 0.29764 0.99487 0.0
H395 H 0.44681 0.33894 0.97617 0.0
Mn396 Mn 0.70945 0.45596 0.78035 0.0
Mn397 Mn 0.70743 0.41272 0.8354 0.0
C398 C 0.71523 0.46485 0.83315 0.0
C399 C 0.68991 0.48352 0.74943 0.0
C400 C 0.74948 0.42113 0.79255 0.0
O401 O 0.69365 0.42924 0.75671 0.0
O402 O 0.69158 0.40222 0.79569 0.0
C403 C 0.65583 0.41271 0.84588 0.0
N404 N 0.67812 0.41447 0.85762 0.0
C405 C 0.66353 0.41883 0.91088 0.0
C406 C 0.64043 0.4169 0.89939 0.0
C407 C 0.63657 0.4139 0.86673 0.0
C408 C 0.68202 0.41754 0.88896 0.0
H409 H 0.65277 0.41043 0.82079 0.0
C410 C 0.68739 0.40919 0.76733 0.0
O411 O 0.71052 0.47566 0.7412 0.0
O412 O 0.68074 0.47541 0.77537 0.0
N413 N 0.72167 0.42016 0.87534 0.0
C414 C 0.74494 0.42284 0.88244 0.0
C415 C 0.75182 0.42605 0.91412 0.0
C416 C 0.73473 0.4264 0.9382 0.0
C417 C 0.71089 0.42367 0.93035 0.0
C418 C 0.70512 0.42021 0.8984 0.0
H419 H 0.7581 0.4228 0.86405 0.0
O420 O 0.72259 0.47912 0.81125 0.0
O421 O 0.70436 0.44598 0.82358 0.0
O422 O 0.74112 0.4388 0.7776 0.0
O423 O 0.73837 0.41007 0.81431 0.0
C424 C 0.6926 0.4246 0.95291 0.0
C425 C 0.66893 0.42229 0.94316 0.0
H426 H 0.62552 0.41785 0.91538 0.0
H427 H 0.61878 0.41251 0.85766 0.0
H428 H 0.77025 0.42834 0.91996 0.0
H429 H 0.74009 0.42893 0.9626 0.0
H430 H 0.69653 0.42741 0.97776 0.0
H431 H 0.655 0.42335 0.96067 0.0
Mn432 Mn 0.53977 0.28744 0.23026 0.0
Mn433 Mn 0.58594 0.28783 0.17938 0.0
C434 C 0.53353 0.28197 0.17673 0.0
C435 C 0.51125 0.30758 0.25895 0.0
C436 C 0.57254 0.24544 0.21885 0.0
O437 O 0.56568 0.30218 0.2567 0.0
O438 O 0.5952 0.30129 0.22112 0.0
C439 C 0.58944 0.33973 0.17343 0.0
N440 N 0.58706 0.31815 0.15964 0.0
C441 C 0.5863 0.33537 0.10751 0.0
C442 C 0.5889 0.35775 0.12114 0.0
C443 C 0.59037 0.35994 0.15426 0.0
C444 C 0.58526 0.31589 0.12784 0.0
H445 H 0.5906 0.34153 0.19886 0.0
C446 C 0.58687 0.30627 0.24851 0.0
O447 O 0.51811 0.28668 0.26744 0.0
O448 O 0.52099 0.31677 0.23404 0.0
N449 N 0.58041 0.27581 0.1376 0.0
C450 C 0.57867 0.25294 0.12807 0.0
C451 C 0.57714 0.24769 0.0956 0.0
C452 C 0.57804 0.26596 0.07318 0.0
C453 C 0.58073 0.28929 0.08345 0.0
C454 C 0.58212 0.29344 0.11614 0.0
H455 H 0.57845 0.23882 0.1451 0.0
O456 O 0.51785 0.27531 0.19724 0.0
O457 O 0.55221 0.29237 0.18794 0.0
O458 O 0.55542 0.25492 0.23378 0.0
O459 O 0.58509 0.25601 0.19809 0.0
C460 C 0.58214 0.30859 0.06253 0.0
C461 C 0.58471 0.33163 0.07456 0.0
H462 H 0.58972 0.37337 0.10643 0.0
H463 H 0.59229 0.37716 0.16497 0.0
H464 H 0.57536 0.2296 0.08787 0.0
H465 H 0.57677 0.26186 0.04815 0.0
H466 H 0.58118 0.30591 0.03713 0.0
H467 H 0.58557 0.34634 0.05824 0.0
Mn468 Mn 0.7169 0.53751 0.21548 0.0
Mn469 Mn 0.706 0.58014 0.16137 0.0
C470 C 0.7187 0.52893 0.16212 0.0
C471 C 0.70322 0.50804 0.24909 0.0
C472 C 0.75277 0.57506 0.195 0.0
O473 O 0.70101 0.56274 0.242 0.0
O474 O 0.69489 0.59 0.20408 0.0
C475 C 0.65396 0.57658 0.16305 0.0
N476 N 0.67449 0.57624 0.14631 0.0
C477 C 0.65365 0.57095 0.09716 0.0
C478 C 0.63227 0.57138 0.11384 0.0
C479 C 0.63245 0.57411 0.14695 0.0
C480 C 0.67454 0.57329 0.11452 0.0
H481 H 0.65401 0.57874 0.18849 0.0
C482 C 0.69361 0.58276 0.23276 0.0
O483 O 0.7235 0.51805 0.25393 0.0
O484 O 0.69092 0.51536 0.22515 0.0
N485 N 0.71544 0.57373 0.11866 0.0
C486 C 0.73757 0.57366 0.10608 0.0
C487 C 0.74048 0.57105 0.0732 0.0
C488 C 0.72063 0.56901 0.05351 0.0
C489 C 0.69802 0.56972 0.06689 0.0
C490 C 0.69621 0.57233 0.09982 0.0
H491 H 0.75288 0.57534 0.12105 0.0
O492 O 0.72919 0.51554 0.18263 0.0
O493 O 0.70687 0.54673 0.17336 0.0
O494 O 0.74707 0.55753 0.21245 0.0
O495 O 0.73877 0.58473 0.17515 0.0
C496 C 0.67721 0.56786 0.04885 0.0
C497 C 0.65505 0.56826 0.064 0.0
H498 H 0.61563 0.56958 0.10149 0.0
H499 H 0.61603 0.57438 0.16001 0.0
H500 H 0.75799 0.57062 0.06305 0.0
H501 H 0.72295 0.56689 0.02818 0.0
H502 H 0.67805 0.56597 0.02333 0.0
H503 H 0.63918 0.56655 0.04991 0.0
Mn504 Mn 0.47206 0.72685 0.2252 0.0
Mn505 Mn 0.43163 0.71949 0.1673 0.0
C506 C 0.48177 0.73519 0.17328 0.0
C507 C 0.50126 0.71048 0.25687 0.0
C508 C 0.43137 0.76074 0.21315 0.0
O509 O 0.44708 0.70648 0.24623 0.0
O510 O 0.42291 0.70001 0.20464 0.0
C511 C 0.44088 0.66948 0.1518 0.0
N512 N 0.43924 0.69239 0.14246 0.0
C513 C 0.44808 0.68213 0.08839 0.0
C514 C 0.44973 0.65839 0.09738 0.0
C515 C 0.44618 0.65206 0.12924 0.0
C516 C 0.44274 0.69869 0.11191 0.0
H517 H 0.4382 0.66456 0.17627 0.0
C518 C 0.42915 0.69678 0.23352 0.0
O519 O 0.49026 0.72949 0.26563 0.0
O520 O 0.49524 0.70111 0.23007 0.0
N521 N 0.43784 0.73722 0.1296 0.0
C522 C 0.4366 0.76097 0.12511 0.0
C523 C 0.4401 0.77028 0.09462 0.0
C524 C 0.44462 0.75509 0.06905 0.0
C525 C 0.44562 0.7307 0.07419 0.0
C526 C 0.44179 0.72243 0.10505 0.0
H527 H 0.43298 0.77272 0.14464 0.0
O528 O 0.49409 0.74402 0.1963 0.0
O529 O 0.46443 0.72151 0.18135 0.0
O530 O 0.45039 0.75572 0.22787 0.0
O531 O 0.42278 0.74797 0.19105 0.0
C532 C 0.4506 0.7143 0.05001 0.0
C533 C 0.45191 0.69004 0.05713 0.0
H534 H 0.45388 0.64492 0.08008 0.0
H535 H 0.44753 0.63379 0.13638 0.0
H536 H 0.4393 0.78912 0.09084 0.0
H537 H 0.44738 0.76234 0.04559 0.0
H538 H 0.45379 0.7202 0.02596 0.0
H539 H 0.45608 0.67764 0.03843 0.0
Mn540 Mn 0.27751 0.46322 0.23518 0.0
Mn541 Mn 0.27782 0.41263 0.1931 0.0
C542 C 0.26947 0.46409 0.1816 0.0
C543 C 0.29862 0.49415 0.25708 0.0
C544 C 0.23809 0.42725 0.23695 0.0
O545 O 0.29422 0.44003 0.26431 0.0
O546 O 0.29755 0.4088 0.23161 0.0
C547 C 0.32799 0.41195 0.17388 0.0
N548 N 0.30474 0.41173 0.16589 0.0
C549 C 0.31408 0.40932 0.11034 0.0
C550 C 0.33813 0.40937 0.11797 0.0
C551 C 0.34511 0.41076 0.14988 0.0
C552 C 0.29783 0.41057 0.13527 0.0
H553 H 0.33343 0.41307 0.19838 0.0
C554 C 0.30203 0.41954 0.25763 0.0
O555 O 0.27821 0.48816 0.26843 0.0
O556 O 0.30665 0.48234 0.23308 0.0
N557 N 0.25964 0.41388 0.15489 0.0
C558 C 0.23577 0.41461 0.15146 0.0
C559 C 0.2259 0.41368 0.12095 0.0
C560 C 0.24064 0.41174 0.09432 0.0
C561 C 0.26513 0.41061 0.09847 0.0
C562 C 0.27394 0.41148 0.12946 0.0
H563 H 0.22432 0.41593 0.17181 0.0
O564 O 0.26342 0.48166 0.19953 0.0
O565 O 0.28064 0.44696 0.19539 0.0
O566 O 0.24569 0.44771 0.24401 0.0
O567 O 0.24922 0.41246 0.21974 0.0
C568 C 0.28114 0.40889 0.07304 0.0
C569 C 0.3056 0.40836 0.07896 0.0
H570 H 0.35139 0.40849 0.09953 0.0
H571 H 0.36364 0.41092 0.15595 0.0
H572 H 0.20698 0.41449 0.11797 0.0
H573 H 0.23297 0.41121 0.07082 0.0
H574 H 0.27483 0.40827 0.04882 0.0
H575 H 0.31774 0.40737 0.05919 0.0
C576 C 0.08713 0.15797 0.21193 0.0
C577 C 0.09939 0.17193 0.23398 0.0
C578 C 0.09834 0.13892 0.19726 0.0
C579 C 0.15519 0.10907 0.18278 0.0
H580 H 0.12287 0.05344 0.21336 0.0
C581 C 0.20445 0.02532 0.21876 0.0
C582 C 0.19189 0.00433 0.22295 0.0
C583 C 0.1931 0.04532 0.20687 0.0
C584 C 0.13203 0.06846 0.2035 0.0
H585 H 0.13344 0.17843 0.25556 0.0
H586 H 0.15308 0.14547 0.22947 0.0
H587 H 0.10304 0.09102 0.2146 0.0
H588 H 0.15866 0.98665 0.21516 0.0
H589 H 0.13929 0.02083 0.19183 0.0
H590 H 0.18437 0.08659 0.17199 0.0
C591 C 0.13483 0.14911 0.2237 0.0
C592 C 0.12055 0.09016 0.2044 0.0
C593 C 0.12354 0.16785 0.23882 0.0
C594 C 0.16858 0.00283 0.21228 0.0
C595 C 0.15745 0.02255 0.19933 0.0
C596 C 0.16656 0.0872 0.18116 0.0
C597 C 0.12207 0.13387 0.2039 0.0
C598 C 0.13234 0.11078 0.1953 0.0
C599 C 0.16909 0.04448 0.19824 0.0
C600 C 0.15553 0.06672 0.1929 0.0
H601 H 0.06848 0.16066 0.20781 0.0
H602 H 0.08815 0.12738 0.18208 0.0
H603 H 0.16459 0.12476 0.17544 0.0
H604 H 0.22243 0.02683 0.22719 0.0
H605 H 0.20277 0.06175 0.20679 0.0
C606 C 0.9885 0.16295 0.22516 0.0
C607 C 0.99275 0.18725 0.22279 0.0
C608 C 0.96783 0.15324 0.21293 0.0
C609 C 0.90747 0.16914 0.20676 0.0
H610 H 0.90027 0.10826 0.16624 0.0
C611 C 0.82059 0.12074 0.22042 0.0
C612 C 0.82274 0.09681 0.228 0.0
C613 C 0.83936 0.1328 0.20645 0.0
C614 C 0.90191 0.12524 0.17769 0.0
H615 H 0.97951 0.22031 0.20429 0.0
H616 H 0.94278 0.20335 0.18375 0.0
H617 H 0.93866 0.12775 0.16604 0.0
H618 H 0.84538 0.06622 0.22557 0.0
H619 H 0.8787 0.08733 0.20303 0.0
H620 H 0.87173 0.16604 0.2212 0.0
C621 C 0.95566 0.19184 0.19468 0.0
C622 C 0.92387 0.13647 0.17727 0.0
C623 C 0.97663 0.20151 0.20637 0.0
C624 C 0.84331 0.08468 0.21959 0.0
C625 C 0.86239 0.09687 0.20651 0.0
C626 C 0.88571 0.15777 0.20776 0.0
C627 C 0.95084 0.16772 0.19862 0.0
C628 C 0.92697 0.15819 0.19265 0.0
C629 C 0.86101 0.12135 0.20099 0.0
C630 C 0.88278 0.13526 0.19419 0.0
H631 H 0.00075 0.15155 0.23754 0.0
H632 H 0.96446 0.13465 0.21661 0.0
H633 H 0.90945 0.18573 0.21919 0.0
H634 H 0.80474 0.13036 0.22658 0.0
H635 H 0.83724 0.1514 0.20154 0.0
C636 C 0.79588 0.97054 0.2249 0.0
C637 C 0.80924 0.98903 0.23779 0.0
C638 C 0.80647 0.9488 0.21845 0.0
C639 C 0.86119 0.91757 0.20351 0.0
H640 H 0.83927 0.87059 0.26327 0.0
C641 C 0.91935 0.83978 0.24226 0.0
C642 C 0.90886 0.8198 0.25572 0.0
C643 C 0.9054 0.85858 0.23196 0.0
C644 C 0.84533 0.88302 0.24562 0.0
H645 H 0.84425 4e-05 0.25197 0.0
H646 H 0.86289 0.96227 0.23961 0.0
H647 H 0.81789 0.90732 0.25772 0.0
H648 H 0.87582 0.80268 0.26677 0.0
H649 H 0.8513 0.83457 0.24662 0.0
H650 H 0.88852 0.89339 0.19101 0.0
C651 C 0.84425 0.9645 0.23491 0.0
C652 C 0.83305 0.90419 0.24266 0.0
C653 C 0.83357 0.98599 0.24215 0.0
C654 C 0.88424 0.81811 0.25673 0.0
C655 C 0.87025 0.83655 0.24549 0.0
C656 C 0.87318 0.8961 0.20582 0.0
C657 C 0.83066 0.94556 0.2239 0.0
C658 C 0.84127 0.92187 0.2223 0.0
C659 C 0.88061 0.85749 0.23416 0.0
C660 C 0.86589 0.8788 0.22772 0.0
H661 H 0.77705 0.97245 0.2215 0.0
H662 H 0.79569 0.9343 0.21015 0.0
H663 H 0.86777 0.93104 0.1876 0.0
H664 H 0.93836 0.84148 0.24153 0.0
H665 H 0.91422 0.87438 0.22391 0.0
C666 C 0.02026 0.828 0.23609 0.0
C667 C 0.01456 0.80484 0.22739 0.0
C668 C 0.04022 0.83894 0.2238 0.0
C669 C 0.09899 0.82319 0.19891 0.0
H670 H 0.10424 0.89115 0.1928 0.0
C671 C 0.1696 0.90518 0.21735 0.0
C672 C 0.17888 0.89705 0.24629 0.0
C673 C 0.15267 0.8919 0.20108 0.0
C674 C 0.10329 0.8721 0.19355 0.0
H675 H 0.02438 0.77538 0.19754 0.0
H676 H 0.05983 0.79451 0.17619 0.0
H677 H 0.06588 0.87256 0.18735 0.0
H678 H 0.17929 0.86767 0.27922 0.0
H679 H 0.14981 0.84489 0.25139 0.0
H680 H 0.13629 0.82282 0.20641 0.0
C681 C 0.04872 0.80417 0.19253 0.0
C682 C 0.0812 0.86146 0.19074 0.0
C683 C 0.02844 0.79327 0.20463 0.0
C684 C 0.17232 0.8746 0.2572 0.0
C685 C 0.15554 0.86136 0.24095 0.0
C686 C 0.12112 0.83383 0.20153 0.0
C687 C 0.05513 0.82692 0.20267 0.0
C688 C 0.07864 0.83706 0.19536 0.0
C689 C 0.14483 0.87021 0.21335 0.0
C690 C 0.1233 0.85852 0.20084 0.0
H691 H 0.00977 0.83741 0.25344 0.0
H692 H 0.04474 0.85631 0.23254 0.0
H693 H 0.09767 0.80434 0.20248 0.0
H694 H 0.17437 0.92236 0.20819 0.0
H695 H 0.14496 0.89909 0.17968 0.0
C696 C 0.12053 0.82639 0.73929 0.0
C697 C 0.09622 0.82188 0.7409 0.0
C698 C 0.13006 0.84626 0.75394 0.0
C699 C 0.11323 0.90575 0.76592 0.0
H700 H 0.17356 0.91207 0.80818 0.0
C701 C 0.15907 0.99462 0.7637 0.0
C702 C 0.18326 0.99391 0.75727 0.0
C703 C 0.14742 0.97452 0.77454 0.0
C704 C 0.15674 0.91067 0.79623 0.0
H705 H 0.06302 0.83373 0.76081 0.0
H706 H 0.07967 0.86897 0.78569 0.0
H707 H 0.15502 0.87331 0.80406 0.0
H708 H 0.21469 0.97242 0.75838 0.0
H709 H 0.19429 0.93677 0.77511 0.0
H710 H 0.11556 0.94222 0.75518 0.0
C711 C 0.09132 0.85691 0.77339 0.0
C712 C 0.14605 0.88849 0.7942 0.0
C713 C 0.08184 0.83677 0.7592 0.0
C714 C 0.19598 0.97328 0.76343 0.0
C715 C 0.18421 0.95289 0.77324 0.0
C716 C 0.12408 0.92775 0.76731 0.0
C717 C 0.11538 0.86218 0.77003 0.0
C718 C 0.12451 0.88579 0.77828 0.0
C719 C 0.15958 0.95301 0.77781 0.0
C720 C 0.14635 0.93045 0.78164 0.0
H721 H 0.13205 0.81509 0.72555 0.0
H722 H 0.14862 0.85004 0.75073 0.0
H723 H 0.09678 0.9041 0.75306 0.0
H724 H 0.14902 0.01055 0.7594 0.0
H725 H 0.12866 0.97566 0.77892 0.0
C726 C 0.16204 0.12303 0.74517 0.0
C727 C 0.1665 0.09883 0.74864 0.0
C728 C 0.14263 0.13333 0.76003 0.0
C729 C 0.08371 0.11755 0.77287 0.0
H730 H 0.07723 0.17866 0.8129 0.0
C731 C 0.99652 0.1656 0.76123 0.0
C732 C 0.99829 0.1897 0.75466 0.0
C733 C 0.01555 0.15353 0.7745 0.0
C734 C 0.07866 0.16164 0.80152 0.0
H735 H 0.1552 0.06673 0.77207 0.0
H736 H 0.12067 0.08467 0.79712 0.0
H737 H 0.11581 0.15959 0.81095 0.0
H738 H 0.02047 0.22055 0.75793 0.0
H739 H 0.05437 0.19943 0.77861 0.0
H740 H 0.04767 0.12022 0.76011 0.0
C741 C 0.13248 0.09567 0.7834 0.0
C742 C 0.10073 0.15064 0.80082 0.0
C743 C 0.15221 0.08546 0.76908 0.0
C744 C 0.01878 0.20192 0.76305 0.0
C745 C 0.03817 0.18971 0.77517 0.0
C746 C 0.06187 0.12875 0.77278 0.0
C747 C 0.12712 0.1195 0.77808 0.0
C748 C 0.1035 0.12882 0.78566 0.0
C749 C 0.03715 0.16513 0.77998 0.0
C750 C 0.05914 0.15137 0.7861 0.0
H751 H 0.17286 0.13375 0.72968 0.0
H752 H 0.1387 0.15169 0.75531 0.0
H753 H 0.08549 0.10086 0.76061 0.0
H754 H 0.98065 0.15596 0.75523 0.0
H755 H 0.01361 0.13486 0.779 0.0
C756 C 0.89902 0.17238 0.75984 0.0
C757 C 0.89195 0.18059 0.72982 0.0
C758 C 0.88626 0.15465 0.77525 0.0
C759 C 0.83071 0.11918 0.7707 0.0
H760 H 0.87161 0.06748 0.79469 0.0
C761 C 0.83224 0.01668 0.74651 0.0
C762 C 0.80865 0.0107 0.75228 0.0
C763 C 0.84162 0.03752 0.7585 0.0
C764 C 0.85988 0.08182 0.78851 0.0
H765 H 0.86488 0.17775 0.69364 0.0
H766 H 0.84305 0.14681 0.72001 0.0
H767 H 0.88821 0.10655 0.78698 0.0
H768 H 0.77683 0.02075 0.77722 0.0
H769 H 0.79326 0.05759 0.79819 0.0
H770 H 0.80277 0.09396 0.76938 0.0
C771 C 0.85827 0.15413 0.73197 0.0
C772 C 0.86936 0.10432 0.78436 0.0
C773 C 0.87098 0.17179 0.71661 0.0
C774 C 0.7951 0.025 0.77244 0.0
C775 C 0.80445 0.04611 0.78425 0.0
C776 C 0.82126 0.09664 0.77466 0.0
C777 C 0.86612 0.14481 0.76101 0.0
C778 C 0.8551 0.12298 0.77372 0.0
C779 C 0.82756 0.053 0.77637 0.0
C780 C 0.836 0.07746 0.78188 0.0
H781 H 0.915 0.17886 0.77086 0.0
H782 H 0.89262 0.14806 0.79777 0.0
H783 H 0.81914 0.13331 0.76323 0.0
H784 H 0.84312 0.00588 0.73119 0.0
H785 H 0.85938 0.04229 0.75161 0.0
C786 C 0.83025 0.88281 0.70357 0.0
C787 C 0.82376 0.90418 0.718 0.0
C788 C 0.84807 0.86889 0.71648 0.0
C789 C 0.90204 0.87578 0.76185 0.0
H790 H 0.90505 0.80803 0.75048 0.0
C791 C 0.98573 0.82813 0.72551 0.0
C792 C 0.99051 0.80526 0.73641 0.0
C793 C 0.96507 0.83964 0.73432 0.0
C794 C 0.90443 0.82687 0.75453 0.0
H795 H 0.83003 0.92695 0.75847 0.0
H796 H 0.86133 0.90252 0.78102 0.0
H797 H 0.86717 0.82818 0.74669 0.0
H798 H 0.97787 0.77677 0.76609 0.0
H799 H 0.94122 0.7969 0.78122 0.0
H800 H 0.93941 0.87458 0.7685 0.0
C801 C 0.85265 0.89671 0.75953 0.0
C802 C 0.88276 0.83845 0.75203 0.0
C803 C 0.83467 0.91064 0.74667 0.0
C804 C 0.97458 0.79441 0.75732 0.0
C805 C 0.95363 0.80588 0.76589 0.0
C806 C 0.92368 0.86421 0.76434 0.0
C807 C 0.85993 0.87596 0.74413 0.0
C808 C 0.88151 0.86315 0.75424 0.0
C809 C 0.94854 0.8285 0.75407 0.0
C810 C 0.92525 0.83978 0.75926 0.0
H811 H 0.82213 0.87717 0.68161 0.0
H812 H 0.85341 0.8532 0.70373 0.0
H813 H 0.90175 0.89482 0.76361 0.0
H814 H 0.99774 0.83702 0.70952 0.0
H815 H 0.96155 0.85689 0.72438 0.0
C816 C 0.61412 0.66731 0.7481 0.0
C817 C 0.5898 0.67188 0.74815 0.0
C818 C 0.62306 0.64761 0.73239 0.0
C819 C 0.60581 0.58839 0.72188 0.0
H820 H 0.66465 0.58183 0.67603 0.0
C821 C 0.65342 0.50059 0.72661 0.0
C822 C 0.67778 0.50206 0.73152 0.0
C823 C 0.64097 0.51996 0.71498 0.0
C824 C 0.64825 0.58328 0.68898 0.0
H825 H 0.5559 0.66043 0.73016 0.0
H826 H 0.57154 0.62538 0.70351 0.0
H827 H 0.64592 0.62048 0.68012 0.0
H828 H 0.70863 0.52411 0.72676 0.0
H829 H 0.68693 0.55853 0.70871 0.0
H830 H 0.60892 0.55219 0.7338 0.0
C831 C 0.58365 0.6373 0.71521 0.0
C832 C 0.63743 0.6054 0.69096 0.0
C833 C 0.57474 0.65732 0.73039 0.0
C834 C 0.6898 0.52263 0.72294 0.0
C835 C 0.67727 0.54233 0.71236 0.0
C836 C 0.61684 0.56648 0.72057 0.0
C837 C 0.60778 0.6319 0.71698 0.0
C838 C 0.61649 0.60822 0.70826 0.0
C839 C 0.65251 0.54155 0.70939 0.0
C840 C 0.63867 0.56372 0.70505 0.0
H841 H 0.62611 0.67835 0.76146 0.0
H842 H 0.64169 0.64371 0.7344 0.0
H843 H 0.58984 0.59015 0.73578 0.0
H844 H 0.64389 0.48468 0.73276 0.0
H845 H 0.62212 0.51826 0.71187 0.0
C846 C 0.46616 0.71083 0.744 0.0
C847 C 0.4846 0.69594 0.7535 0.0
C848 C 0.44393 0.7014 0.73709 0.0
C849 C 0.41067 0.64852 0.7168 0.0
H850 H 0.36793 0.66537 0.78474 0.0
C851 C 0.33874 0.58541 0.76011 0.0
C852 C 0.31982 0.59403 0.77805 0.0
C853 C 0.35574 0.60086 0.74816 0.0
C854 C 0.37908 0.66081 0.76486 0.0
H855 H 0.49512 0.65968 0.76095 0.0
H856 H 0.45659 0.64315 0.74765 0.0
H857 H 0.40395 0.68761 0.77741 0.0
H858 H 0.30249 0.62548 0.7953 0.0
H859 H 0.33111 0.65265 0.77257 0.0
H860 H 0.386 0.62172 0.70407 0.0
C861 C 0.45916 0.66203 0.74594 0.0
C862 C 0.39986 0.67361 0.76082 0.0
C863 C 0.48109 0.67147 0.75372 0.0
C864 C 0.31714 0.61843 0.78183 0.0
C865 C 0.33373 0.63395 0.76904 0.0
C866 C 0.38956 0.63606 0.72027 0.0
C867 C 0.44021 0.67695 0.73863 0.0
C868 C 0.4162 0.66701 0.73755 0.0
C869 C 0.35385 0.62535 0.75321 0.0
C870 C 0.37391 0.64137 0.74525 0.0
H871 H 0.46848 0.72977 0.74391 0.0
H872 H 0.42946 0.71319 0.73174 0.0
H873 H 0.42308 0.64319 0.69864 0.0
H874 H 0.34126 0.56662 0.75711 0.0
H875 H 0.371 0.59332 0.73661 0.0
C876 C 0.33538 0.4807 0.75657 0.0
C877 C 0.3118 0.48613 0.74974 0.0
C878 C 0.34599 0.46085 0.74345 0.0
C879 C 0.32889 0.402 0.71966 0.0
H880 H 0.39672 0.39566 0.71261 0.0
C881 C 0.4094 0.32954 0.7374 0.0
C882 C 0.40105 0.3203 0.76625 0.0
C883 C 0.39665 0.34707 0.72147 0.0
C884 C 0.37769 0.39693 0.71363 0.0
H885 H 0.28132 0.47614 0.72192 0.0
H886 H 0.29992 0.44105 0.69891 0.0
H887 H 0.37865 0.43428 0.70696 0.0
H888 H 0.37191 0.32085 0.79957 0.0
H889 H 0.35007 0.35131 0.77234 0.0
H890 H 0.32801 0.36475 0.72741 0.0
C891 C 0.31013 0.45217 0.71462 0.0
C892 C 0.36735 0.41916 0.71073 0.0
C893 C 0.29952 0.47228 0.72765 0.0
C894 C 0.379 0.32774 0.77759 0.0
C895 C 0.36628 0.34508 0.76168 0.0
C896 C 0.33922 0.37973 0.72228 0.0
C897 C 0.33325 0.44582 0.72325 0.0
C898 C 0.34302 0.42214 0.71578 0.0
C899 C 0.37526 0.35552 0.73397 0.0
C900 C 0.36387 0.37718 0.72134 0.0
H901 H 0.34536 0.49119 0.77332 0.0
H902 H 0.36368 0.45645 0.75104 0.0
H903 H 0.31009 0.40356 0.72355 0.0
H904 H 0.4263 0.32411 0.72796 0.0
H905 H 0.40395 0.3546 0.70002 0.0
C906 C 0.65851 0.40441 0.72298 0.0
C907 C 0.67208 0.39425 0.74731 0.0
C908 C 0.6403 0.39163 0.70879 0.0
C909 C 0.61215 0.33316 0.70093 0.0
H910 H 0.55491 0.36681 0.72225 0.0
C911 C 0.52817 0.28599 0.73989 0.0
C912 C 0.50676 0.29821 0.74014 0.0
C913 C 0.54836 0.29657 0.72738 0.0
C914 C 0.57044 0.35717 0.71499 0.0
H915 H 0.67884 0.36204 0.77346 0.0
H916 H 0.64721 0.33972 0.74842 0.0
H917 H 0.59211 0.38734 0.72299 0.0
H918 H 0.48867 0.32983 0.72525 0.0
H919 H 0.52341 0.34772 0.70106 0.0
H920 H 0.59053 0.30281 0.6934 0.0
C921 C 0.65056 0.35756 0.74047 0.0
C922 C 0.59191 0.36906 0.71558 0.0
C923 C 0.66854 0.37042 0.755 0.0
C924 C 0.50516 0.3202 0.72528 0.0
C925 C 0.52516 0.3305 0.71184 0.0
C926 C 0.59054 0.32131 0.69964 0.0
C927 C 0.63561 0.36839 0.7183 0.0
C928 C 0.61304 0.35696 0.70988 0.0
C929 C 0.54734 0.31944 0.71434 0.0
C930 C 0.56948 0.33289 0.70814 0.0
H931 H 0.6608 0.42273 0.71646 0.0
H932 H 0.62903 0.40033 0.69167 0.0
H933 H 0.62824 0.32351 0.69619 0.0
H934 H 0.52971 0.26908 0.75165 0.0
H935 H 0.56497 0.28746 0.73022 0.0
C936 C 0.71107 0.47155 0.28058 0.0
C937 C 0.69498 0.48794 0.2682 0.0
C938 C 0.70302 0.45015 0.29306 0.0
C939 C 0.65118 0.41707 0.32103 0.0
H940 H 0.67265 0.36771 0.26459 0.0
C941 C 0.59196 0.34067 0.2843 0.0
C942 C 0.60172 0.32087 0.26938 0.0
C943 C 0.60658 0.35826 0.29654 0.0
C944 C 0.66681 0.3808 0.28149 0.0
H945 H 0.65798 0.49593 0.26155 0.0
H946 H 0.64391 0.45893 0.28419 0.0
H947 H 0.69295 0.40513 0.26528 0.0
H948 H 0.63414 0.30241 0.25878 0.0
H949 H 0.65971 0.33216 0.28229 0.0
H950 H 0.62483 0.39294 0.33708 0.0
C951 C 0.66268 0.46243 0.284 0.0
C952 C 0.67852 0.40241 0.28171 0.0
C953 C 0.67072 0.48351 0.27085 0.0
C954 C 0.62623 0.3177 0.26991 0.0
C955 C 0.64085 0.33494 0.28304 0.0
C956 C 0.63977 0.39521 0.32142 0.0
C957 C 0.67877 0.4452 0.29409 0.0
C958 C 0.67017 0.42105 0.3004 0.0
C959 C 0.63131 0.35615 0.29478 0.0
C960 C 0.64668 0.37713 0.30045 0.0
H961 H 0.72987 0.47455 0.27866 0.0
H962 H 0.71573 0.43705 0.30058 0.0
H963 H 0.64454 0.43119 0.33582 0.0
H964 H 0.57309 0.34362 0.28395 0.0
H965 H 0.59834 0.37425 0.30503 0.0
C966 C 0.52403 0.67586 0.27541 0.0
C967 C 0.52083 0.70036 0.27518 0.0
C968 C 0.54486 0.6661 0.28704 0.0
C969 C 0.6051 0.67884 0.2819 0.0
H970 H 0.61376 0.62188 0.33125 0.0
C971 C 0.68515 0.62186 0.25682 0.0
C972 C 0.6805 0.59765 0.25513 0.0
C973 C 0.66961 0.6369 0.27264 0.0
C974 C 0.6117 0.63772 0.31722 0.0
H975 H 0.53607 0.73392 0.2884 0.0
H976 H 0.57325 0.71682 0.30753 0.0
H977 H 0.57693 0.64394 0.33553 0.0
H978 H 0.65689 0.5698 0.26971 0.0
H979 H 0.6289 0.59593 0.29539 0.0
H980 H 0.63829 0.67169 0.26076 0.0
C981 C 0.55934 0.70521 0.29945 0.0
C982 C 0.5907 0.65048 0.32007 0.0
C983 C 0.53815 0.71494 0.28857 0.0
C984 C 0.66089 0.58845 0.27104 0.0
C985 C 0.6449 0.60355 0.28594 0.0
C986 C 0.62578 0.66582 0.27842 0.0
C987 C 0.56309 0.68075 0.29789 0.0
C988 C 0.58695 0.6707 0.30159 0.0
C989 C 0.64853 0.62815 0.28586 0.0
C990 C 0.62903 0.64451 0.29507 0.0
H991 H 0.51086 0.6643 0.2652 0.0
H992 H 0.54744 0.64723 0.2852 0.0
H993 H 0.60249 0.69421 0.26706 0.0
H994 H 0.70034 0.62925 0.24484 0.0
H995 H 0.67358 0.65555 0.27301 0.0
C996 C 0.39147 0.67646 0.24657 0.0
C997 C 0.41572 0.67933 0.252 0.0
C998 C 0.3794 0.65743 0.25979 0.0
C999 C 0.38937 0.59726 0.27252 0.0
H1000 H 0.329 0.59605 0.3155 0.0
C1001 C 0.33651 0.51183 0.27421 0.0
C1002 C 0.31212 0.51397 0.27005 0.0
C1003 C 0.34999 0.5314 0.28265 0.0
C1004 C 0.34575 0.59602 0.30322 0.0
H1005 H 0.44617 0.66533 0.27663 0.0
H1006 H 0.42512 0.63135 0.29877 0.0
H1007 H 0.35077 0.63308 0.31125 0.0
H1008 H 0.28235 0.53767 0.27238 0.0
H1009 H 0.30588 0.57233 0.28475 0.0
H1010 H 0.38382 0.56118 0.2615 0.0
C1011 C 0.41547 0.64417 0.28487 0.0
C1012 C 0.35829 0.6172 0.30119 0.0
C1013 C 0.42744 0.66357 0.27227 0.0
C1014 C 0.30119 0.53569 0.27565 0.0
C1015 C 0.31476 0.55551 0.283 0.0
C1016 C 0.37663 0.5763 0.27378 0.0
C1017 C 0.3915 0.64068 0.27806 0.0
C1018 C 0.38 0.61801 0.28533 0.0
C1019 C 0.33948 0.55379 0.28578 0.0
C1020 C 0.35435 0.57542 0.28854 0.0
H1021 H 0.38205 0.68843 0.23108 0.0
H1022 H 0.36097 0.65493 0.25395 0.0
H1023 H 0.40592 0.59759 0.25969 0.0
H1024 H 0.3452 0.49506 0.27041 0.0
H1025 H 0.36877 0.52903 0.28572 0.0
C1026 C 0.33627 0.42342 0.29438 0.0
C1027 C 0.32002 0.40893 0.27848 0.0
C1028 C 0.35708 0.41385 0.30658 0.0
C1029 C 0.39007 0.35952 0.32482 0.0
H1030 H 0.43944 0.38779 0.27403 0.0
C1031 C 0.47221 0.3078 0.28596 0.0
C1032 C 0.49222 0.32004 0.27563 0.0
C1033 C 0.45248 0.32013 0.2969 0.0
C1034 C 0.42631 0.37992 0.28932 0.0
H1035 H 0.31144 0.37289 0.26604 0.0
H1036 H 0.34753 0.35615 0.28803 0.0
H1037 H 0.40148 0.40683 0.27751 0.0
H1038 H 0.50847 0.35436 0.27126 0.0
H1039 H 0.4749 0.37586 0.29258 0.0
H1040 H 0.41482 0.33249 0.33659 0.0
C1041 C 0.34431 0.37486 0.29078 0.0
C1042 C 0.40439 0.39092 0.29117 0.0
C1043 C 0.32373 0.38445 0.27804 0.0
C1044 C 0.493 0.3446 0.27869 0.0
C1045 C 0.47362 0.35689 0.29062 0.0
C1046 C 0.41225 0.34874 0.32362 0.0
C1047 C 0.36169 0.38963 0.30366 0.0
C1048 C 0.38586 0.38044 0.30802 0.0
C1049 C 0.45265 0.34495 0.29853 0.0
C1050 C 0.43044 0.35833 0.30484 0.0
H1051 H 0.33393 0.44236 0.29494 0.0
H1052 H 0.37025 0.42556 0.31646 0.0
H1053 H 0.376 0.35114 0.33802 0.0
H1054 H 0.47123 0.28881 0.28366 0.0
H1055 H 0.43674 0.31016 0.30229 0.0
C1056 C 0.08009 0.29114 0.25622 0.0
C1057 C 0.09044 0.27512 0.27757 0.0
C1058 C 0.08907 0.31406 0.25319 0.0
C1059 C 0.1262 0.35747 0.29545 0.0
H1060 H 0.14713 0.37736 0.21219 0.0
C1061 C 0.21287 0.40357 0.27242 0.0
C1062 C 0.21477 0.42015 0.24803 0.0
C1063 C 0.19125 0.3929 0.27875 0.0
C1064 C 0.14085 0.37248 0.23554 0.0
H1065 H 0.11844 0.27077 0.31233 0.0
H1066 H 0.13381 0.3102 0.30696 0.0
H1067 H 0.12003 0.34414 0.21704 0.0
H1068 H 0.19601 0.4394 0.21166 0.0
H1069 H 0.15795 0.42034 0.22235 0.0
H1070 H 0.14833 0.38469 0.31408 0.0
C1071 C 0.1186 0.3053 0.29291 0.0
C1072 C 0.12535 0.35345 0.23829 0.0
C1073 C 0.10989 0.28252 0.29567 0.0
C1074 C 0.19467 0.42681 0.2309 0.0
C1075 C 0.17304 0.41587 0.23689 0.0
C1076 C 0.14171 0.37641 0.29272 0.0
C1077 C 0.10826 0.32136 0.27182 0.0
C1078 C 0.11893 0.34501 0.26836 0.0
C1079 C 0.17131 0.39836 0.26033 0.0
C1080 C 0.15012 0.38328 0.26283 0.0
H1081 H 0.06508 0.28603 0.24194 0.0
H1082 H 0.08093 0.32611 0.23655 0.0
H1083 H 0.12111 0.35157 0.31891 0.0
H1084 H 0.22835 0.39801 0.28548 0.0
H1085 H 0.19055 0.37919 0.29659 0.0
C1086 C 0.71796 0.11371 0.24368 0.0
C1087 C 0.71904 0.09066 0.25549 0.0
C1088 C 0.69637 0.12366 0.23561 0.0
C1089 C 0.64852 0.13552 0.20718 0.0
H1090 H 0.60734 0.14447 0.27965 0.0
C1091 C 0.57617 0.20407 0.20099 0.0
C1092 C 0.57835 0.22076 0.22529 0.0
C1093 C 0.58647 0.18189 0.20411 0.0
C1094 C 0.61846 0.14182 0.25908 0.0
H1095 H 0.69877 0.05968 0.26788 0.0
H1096 H 0.66045 0.07759 0.2547 0.0
H1097 H 0.64002 0.1163 0.2829 0.0
H1098 H 0.59112 0.22718 0.27279 0.0
H1099 H 0.60954 0.18839 0.27832 0.0
H1100 H 0.62814 0.16191 0.18389 0.0
C1101 C 0.67646 0.08763 0.25108 0.0
C1102 C 0.63699 0.12561 0.26085 0.0
C1103 C 0.69826 0.07741 0.25841 0.0
C1104 C 0.58923 0.21443 0.25384 0.0
C1105 C 0.59965 0.19222 0.25698 0.0
C1106 C 0.62993 0.15148 0.20526 0.0
C1107 C 0.6754 0.11092 0.23993 0.0
C1108 C 0.6527 0.12311 0.23535 0.0
C1109 C 0.59926 0.17614 0.23155 0.0
C1110 C 0.61528 0.15551 0.23163 0.0
H1111 H 0.73381 0.12423 0.2414 0.0
H1112 H 0.69594 0.14175 0.22742 0.0
H1113 H 0.66047 0.13385 0.18726 0.0
H1114 H 0.56736 0.20852 0.17903 0.0
H1115 H 0.58553 0.16971 0.18438 0.0
C1116 C 0.79032 0.58171 0.22542 0.0
C1117 C 0.77654 0.58551 0.1982 0.0
C1118 C 0.81129 0.59429 0.22988 0.0
C1119 C 0.85912 0.62009 0.22899 0.0
H1120 H 0.84799 0.68663 0.21394 0.0
C1121 C 0.92401 0.70101 0.24842 0.0
C1122 C 0.91447 0.71639 0.27126 0.0
C1123 C 0.9106 0.68217 0.23673 0.0
C1124 C 0.85146 0.66806 0.21777 0.0
H1125 H 0.77507 0.60392 0.15306 0.0
H1126 H 0.81156 0.62539 0.16067 0.0
H1127 H 0.81864 0.65794 0.19738 0.0
H1128 H 0.88353 0.72365 0.30014 0.0
H1129 H 0.86029 0.69132 0.27922 0.0
H1130 H 0.89176 0.6308 0.2506 0.0
C1131 C 0.80593 0.61317 0.17891 0.0
C1132 C 0.83475 0.65161 0.20821 0.0
C1133 C 0.78499 0.60082 0.17458 0.0
C1134 C 0.89151 0.71224 0.28256 0.0
C1135 C 0.87814 0.69374 0.27064 0.0
C1136 C 0.87605 0.63667 0.23832 0.0
C1137 C 0.81883 0.61075 0.2071 0.0
C1138 C 0.83815 0.62749 0.21425 0.0
C1139 C 0.88744 0.67876 0.24745 0.0
C1140 C 0.87199 0.66078 0.23337 0.0
H1141 H 0.78433 0.56996 0.24399 0.0
H1142 H 0.82082 0.59216 0.25194 0.0
H1143 H 0.86219 0.6016 0.23382 0.0
H1144 H 0.94168 0.70365 0.23939 0.0
H1145 H 0.91799 0.67074 0.21871 0.0
C1146 C 0.29139 0.91637 0.26806 0.0
C1147 C 0.27759 0.91174 0.29505 0.0
C1148 C 0.31222 0.90374 0.26272 0.0
C1149 C 0.36023 0.87767 0.26335 0.0
H1150 H 0.3481 0.81068 0.27202 0.0
C1151 C 0.42623 0.7978 0.24547 0.0
C1152 C 0.41773 0.78186 0.22258 0.0
C1153 C 0.41216 0.81664 0.25564 0.0
C1154 C 0.35179 0.82935 0.26982 0.0
H1155 H 0.27596 0.89172 0.33894 0.0
H1156 H 0.3121 0.86998 0.32962 0.0
H1157 H 0.31836 0.83887 0.28899 0.0
H1158 H 0.38816 0.77396 0.19149 0.0
H1159 H 0.36378 0.80631 0.20979 0.0
H1160 H 0.39368 0.86767 0.24338 0.0
C1161 C 0.30662 0.88298 0.31231 0.0
C1162 C 0.33487 0.84549 0.27966 0.0
C1163 C 0.28587 0.89545 0.31759 0.0
C1164 C 0.3953 0.78569 0.20931 0.0
C1165 C 0.38128 0.80424 0.2197 0.0
C1166 C 0.37741 0.86139 0.25382 0.0
C1167 C 0.31955 0.88637 0.28434 0.0
C1168 C 0.33874 0.86979 0.27615 0.0
C1169 C 0.3894 0.81957 0.24329 0.0
C1170 C 0.37302 0.83713 0.25648 0.0
H1171 H 0.28556 0.9289 0.25034 0.0
H1172 H 0.32183 0.90662 0.24087 0.0
H1173 H 0.36362 0.89633 0.26046 0.0
H1174 H 0.44348 0.79544 0.256 0.0
H1175 H 0.41865 0.82833 0.27398 0.0
C1176 C 0.20603 0.58968 0.83328 0.0
C1177 C 0.21835 0.57731 0.80963 0.0
C1178 C 0.186 0.60268 0.82578 0.0
C1179 C 0.16218 0.64485 0.79814 0.0
H1180 H 0.11495 0.63184 0.73401 0.0
C1181 C 0.12055 0.71662 0.72351 0.0
C1182 C 0.09585 0.71791 0.72213 0.0
C1183 C 0.13161 0.69726 0.73712 0.0
C1184 C 0.12782 0.6355 0.75233 0.0
H1185 H 0.21835 0.56755 0.75994 0.0
H1186 H 0.18361 0.59109 0.74652 0.0
H1187 H 0.1407 0.59991 0.75286 0.0
H1188 H 0.06333 0.69971 0.73355 0.0
H1189 H 0.08302 0.66523 0.75714 0.0
H1190 H 0.15008 0.68049 0.79678 0.0
C1191 C 0.18929 0.59033 0.77101 0.0
C1192 C 0.14264 0.61737 0.76287 0.0
C1193 C 0.20927 0.57697 0.77864 0.0
C1194 C 0.08239 0.69923 0.73451 0.0
C1195 C 0.09358 0.67952 0.74776 0.0
C1196 C 0.14758 0.66287 0.78748 0.0
C1197 C 0.17802 0.60401 0.79435 0.0
C1198 C 0.16026 0.62201 0.78549 0.0
C1199 C 0.11828 0.67857 0.74936 0.0
C1200 C 0.13069 0.6585 0.76398 0.0
H1201 H 0.21231 0.59008 0.85749 0.0
H1202 H 0.17739 0.61261 0.84441 0.0
H1203 H 0.17577 0.64916 0.8152 0.0
H1204 H 0.13144 0.73073 0.71429 0.0
H1205 H 0.1507 0.69681 0.73789 0.0
C1206 C 0.41195 0.20652 0.78183 0.0
C1207 C 0.4072 0.2203 0.80881 0.0
C1208 C 0.39753 0.18734 0.77429 0.0
C1209 C 0.36671 0.14268 0.7696 0.0
H1210 H 0.30105 0.16175 0.77121 0.0
C1211 C 0.28416 0.08446 0.73781 0.0
C1212 C 0.26886 0.09543 0.71606 0.0
C1213 C 0.30343 0.09678 0.75027 0.0
C1214 C 0.3193 0.15615 0.77082 0.0
H1215 H 0.38488 0.22345 0.85048 0.0
H1216 H 0.35988 0.19013 0.83722 0.0
H1217 H 0.33092 0.1878 0.7931 0.0
H1218 H 0.26263 0.12755 0.68917 0.0
H1219 H 0.29582 0.14887 0.71127 0.0
H1220 H 0.35472 0.11108 0.74654 0.0
C1221 C 0.37446 0.19441 0.82166 0.0
C1222 C 0.33638 0.17093 0.78357 0.0
C1223 C 0.38879 0.21353 0.82918 0.0
C1224 C 0.27382 0.11855 0.70609 0.0
C1225 C 0.29283 0.13084 0.71873 0.0
C1226 C 0.34946 0.12766 0.75711 0.0
C1227 C 0.37818 0.18164 0.79361 0.0
C1228 C 0.36027 0.16454 0.7827 0.0
C1229 C 0.30746 0.12026 0.74139 0.0
C1230 C 0.32571 0.13458 0.75707 0.0
H1231 H 0.42609 0.21116 0.76576 0.0
H1232 H 0.40071 0.17784 0.75242 0.0
H1233 H 0.38503 0.13736 0.76874 0.0
H1234 H 0.28094 0.06662 0.74582 0.0
H1235 H 0.31457 0.08833 0.76776 0.0
C1236 C 0.89228 0.29429 0.6792 0.0
C1237 C 0.9082 0.28241 0.69914 0.0
C1238 C 0.88069 0.31452 0.68973 0.0
C1239 C 0.85646 0.33692 0.76152 0.0
H1240 H 0.84539 0.39472 0.7148 0.0
C1241 C 0.78751 0.40169 0.80629 0.0
C1242 C 0.77286 0.41209 0.78345 0.0
C1243 C 0.80843 0.39071 0.79737 0.0
C1244 C 0.84814 0.37862 0.72804 0.0
H1245 H 0.9253 0.2831 0.74517 0.0
H1246 H 0.90448 0.31813 0.7638 0.0
H1247 H 0.87457 0.3664 0.69549 0.0
H1248 H 0.7689 0.41988 0.73347 0.0
H1249 H 0.80467 0.39934 0.71744 0.0
H1250 H 0.82909 0.34774 0.79268 0.0
C1251 C 0.90123 0.31183 0.73996 0.0
C1252 C 0.86497 0.36255 0.71709 0.0
C1253 C 0.91311 0.29181 0.72926 0.0
C1254 C 0.77997 0.41208 0.75158 0.0
C1255 C 0.8006 0.40042 0.74247 0.0
C1256 C 0.83936 0.35266 0.7721 0.0
C1257 C 0.88455 0.32301 0.72052 0.0
C1258 C 0.86904 0.34147 0.7336 0.0
C1259 C 0.81479 0.38904 0.7652 0.0
C1260 C 0.83472 0.37362 0.75533 0.0
H1261 H 0.88824 0.28759 0.65577 0.0
H1262 H 0.86774 0.32275 0.67444 0.0
H1263 H 0.85898 0.32057 0.77434 0.0
H1264 H 0.78262 0.4016 0.83107 0.0
H1265 H 0.81924 0.38289 0.81572 0.0
C1266 C 0.71039 0.89991 0.66874 0.0
C1267 C 0.72063 0.91497 0.69135 0.0
C1268 C 0.69112 0.88592 0.67662 0.0
C1269 C 0.66818 0.84476 0.70854 0.0
H1270 H 0.61508 0.86081 0.76232 0.0
C1271 C 0.62004 0.77607 0.78168 0.0
C1272 C 0.59546 0.77445 0.7781 0.0
C1273 C 0.63234 0.79518 0.7694 0.0
C1274 C 0.62969 0.85624 0.74698 0.0
H1275 H 0.71763 0.92827 0.7394 0.0
H1276 H 0.68407 0.90324 0.75344 0.0
H1277 H 0.64144 0.89211 0.74302 0.0
H1278 H 0.56443 0.79209 0.75959 0.0
H1279 H 0.58627 0.82599 0.73825 0.0
H1280 H 0.65703 0.80897 0.71315 0.0
C1281 C 0.69092 0.90255 0.72949 0.0
C1282 C 0.64482 0.87403 0.73619 0.0
C1283 C 0.71022 0.91676 0.72151 0.0
C1284 C 0.58338 0.79276 0.76252 0.0
C1285 C 0.59578 0.81217 0.75051 0.0
C1286 C 0.65329 0.82709 0.71951 0.0
C1287 C 0.68171 0.88646 0.70737 0.0
C1288 C 0.66435 0.86837 0.71712 0.0
C1289 C 0.6204 0.81327 0.75349 0.0
C1290 C 0.63418 0.83259 0.73922 0.0
H1291 H 0.71767 0.89834 0.6451 0.0
H1292 H 0.68409 0.87402 0.65891 0.0
H1293 H 0.68325 0.83977 0.69426 0.0
H1294 H 0.62997 0.76236 0.79355 0.0
H1295 H 0.65132 0.79578 0.77223 0.0
C1296 C 0.02485 0.24316 0.37217 0.0
C1297 C 0.02906 0.22137 0.3577 0.0
C1298 C 0.01876 0.24423 0.40423 0.0
C1299 C 0.019 0.20783 0.47779 0.0
H1300 H 0.97717 0.25677 0.50844 0.0
C1301 C 0.97614 0.20556 0.60151 0.0
C1302 C 0.97385 0.2269 0.61791 0.0
C1303 C 0.98447 0.20532 0.57041 0.0
C1304 C 0.98907 0.24315 0.50029 0.0
H1305 H 0.02812 0.18356 0.3638 0.0
H1306 H 0.0166 0.18518 0.41951 0.0
H1307 H 0.98704 0.25512 0.45237 0.0
H1308 H 0.98022 0.26444 0.61629 0.0
H1309 H 0.9946 0.26422 0.5614 0.0
H1310 H 0.0205 0.19558 0.52572 0.0
C1311 C 0.0192 0.20158 0.40688 0.0
C1312 C 0.99482 0.24222 0.46811 0.0
C1313 C 0.02572 0.20058 0.37499 0.0
C1314 C 0.98132 0.24788 0.6036 0.0
C1315 C 0.98946 0.24772 0.5723 0.0
C1316 C 0.01311 0.20867 0.5099 0.0
C1317 C 0.01597 0.22344 0.42209 0.0
C1318 C 0.00986 0.22452 0.4564 0.0
C1319 C 0.99081 0.22645 0.55525 0.0
C1320 C 0.998 0.22627 0.52147 0.0
H1321 H 0.02694 0.25938 0.3589 0.0
H1322 H 0.01671 0.26139 0.41509 0.0
H1323 H 0.03082 0.1941 0.46987 0.0
H1324 H 0.97111 0.18909 0.61262 0.0
H1325 H 0.98521 0.18867 0.55789 0.0
C1326 C 0.78818 0.99478 0.60092 0.0
C1327 C 0.76782 0.98958 0.61832 0.0
C1328 C 0.7864 0.00475 0.5708 0.0
C1329 C 0.7456 0.00779 0.50393 0.0
H1330 H 0.79151 0.05201 0.471 0.0
C1331 C 0.74529 0.03637 0.37247 0.0
C1332 C 0.76732 0.03978 0.35823 0.0
C1333 C 0.74364 0.0332 0.40526 0.0
C1334 C 0.77864 0.03951 0.47969 0.0
H1335 H 0.72985 0.99263 0.61991 0.0
H1336 H 0.72655 0.00988 0.56673 0.0
H1337 H 0.79147 0.04249 0.52722 0.0
H1338 H 0.80498 0.0406 0.3659 0.0
H1339 H 0.80237 0.03424 0.42293 0.0
H1340 H 0.73335 0.00399 0.45635 0.0
C1341 C 0.74386 0.00577 0.576 0.0
C1342 C 0.77859 0.03412 0.51197 0.0
C1343 C 0.74571 0.99597 0.60632 0.0
C1344 C 0.78776 0.0388 0.37675 0.0
C1345 C 0.78619 0.03526 0.40939 0.0
C1346 C 0.7458 0.01297 0.47157 0.0
C1347 C 0.76419 0.00985 0.5577 0.0
C1348 C 0.76239 0.01783 0.52432 0.0
C1349 C 0.7641 0.03263 0.42416 0.0
C1350 C 0.7626 0.02858 0.45894 0.0
H1351 H 0.80545 0.99065 0.61034 0.0
H1352 H 0.80239 0.00751 0.55728 0.0
H1353 H 0.73289 0.99516 0.5127 0.0
H1354 H 0.72936 0.03665 0.35831 0.0
H1355 H 0.72633 0.03143 0.41577 0.0
C1356 C 0.03705 0.77968 0.59768 0.0
C1357 C 0.03895 0.75952 0.61662 0.0
C1358 C 0.03283 0.77763 0.56526 0.0
C1359 C 0.0099 0.73677 0.50447 0.0
H1360 H 0.04017 0.78107 0.44752 0.0
C1361 C 0.99381 0.73599 0.36885 0.0
C1362 C 0.98809 0.7582 0.35652 0.0
C1363 C 0.00284 0.73405 0.39962 0.0
C1364 C 0.03157 0.76858 0.46313 0.0
H1365 H 0.03659 0.72151 0.61755 0.0
H1366 H 0.0299 0.71766 0.56033 0.0
H1367 H 0.04978 0.78173 0.50361 0.0
H1368 H 0.98926 0.79581 0.36466 0.0
H1369 H 0.00486 0.79257 0.4183 0.0
H1370 H 0.99131 0.72401 0.46378 0.0
C1371 C 0.03165 0.73511 0.57044 0.0
C1372 C 0.03707 0.76895 0.49532 0.0
C1373 C 0.03562 0.73724 0.60305 0.0
C1374 C 0.99297 0.77848 0.37423 0.0
C1375 C 0.00218 0.7766 0.40471 0.0
C1376 C 0.00442 0.73638 0.47217 0.0
C1377 C 0.03035 0.75531 0.55114 0.0
C1378 C 0.02597 0.75338 0.51651 0.0
C1379 C 0.00685 0.75436 0.41796 0.0
C1380 C 0.01481 0.75266 0.45132 0.0
H1381 H 0.03874 0.79708 0.60802 0.0
H1382 H 0.03126 0.79359 0.55136 0.0
H1383 H 0.00082 0.7247 0.52015 0.0
H1384 H 0.99063 0.72019 0.35509 0.0
H1385 H 0.00656 0.71671 0.40911 0.0
C1386 C 0.197 0.02958 0.60857 0.0
C1387 C 0.2184 0.03203 0.62475 0.0
C1388 C 0.1968 0.02373 0.57646 0.0
C1389 C 0.2343 0.02451 0.50505 0.0
H1390 H 0.18749 0.98103 0.47282 0.0
C1391 C 0.2402 0.98502 0.37928 0.0
C1392 C 0.21929 0.97872 0.36386 0.0
C1393 C 0.23961 0.99315 0.41053 0.0
C1394 C 0.20063 0.9933 0.48123 0.0
H1395 H 0.25626 0.02855 0.62145 0.0
H1396 H 0.2561 0.01829 0.56496 0.0
H1397 H 0.18801 0.9905 0.52879 0.0
H1398 H 0.18127 0.97825 0.36703 0.0
H1399 H 0.17996 0.99323 0.42126 0.0
H1400 H 0.24697 0.02725 0.45746 0.0
C1401 C 0.23947 0.02159 0.57677 0.0
C1402 C 0.20086 0.9988 0.51344 0.0
C1403 C 0.23961 0.02731 0.609 0.0
C1404 C 0.19765 0.98222 0.3791 0.0
C1405 C 0.19697 0.99077 0.41013 0.0
C1406 C 0.23412 0.01893 0.47278 0.0
C1407 C 0.21805 0.01997 0.56009 0.0
C1408 C 0.21778 0.01433 0.52576 0.0
C1409 C 0.21798 0.99587 0.42652 0.0
C1410 C 0.21744 0.00301 0.46049 0.0
H1411 H 0.18041 0.03246 0.6207 0.0
H1412 H 0.18002 0.02272 0.56433 0.0
H1413 H 0.24725 0.03694 0.51374 0.0
H1414 H 0.25705 0.98285 0.36754 0.0
H1415 H 0.25617 0.99662 0.42237 0.0
C1416 C 0.53332 0.75366 0.89211 0.0
C1417 C 0.53547 0.73152 0.87773 0.0
C1418 C 0.52942 0.75536 0.92475 0.0
C1419 C 0.53365 0.72043 0.99881 0.0
H1420 H 0.49081 0.76758 0.0319 0.0
C1421 C 0.49536 0.71533 0.12442 0.0
C1422 C 0.49071 0.73629 0.14076 0.0
C1423 C 0.50333 0.71597 0.0932 0.0
C1424 C 0.50313 0.75457 0.02312 0.0
H1425 H 0.53319 0.69386 0.88494 0.0
H1426 H 0.52598 0.69665 0.94186 0.0
H1427 H 0.49889 0.76621 0.97523 0.0
H1428 H 0.49279 0.77431 0.13904 0.0
H1429 H 0.5068 0.77563 0.08403 0.0
H1430 H 0.53776 0.70863 0.04658 0.0
C1431 C 0.52834 0.71275 0.92845 0.0
C1432 C 0.50776 0.75377 0.99061 0.0
C1433 C 0.53245 0.71111 0.89593 0.0
C1434 C 0.4957 0.75797 0.12636 0.0
C1435 C 0.50361 0.75867 0.09497 0.0
C1436 C 0.52913 0.7213 0.03128 0.0
C1437 C 0.52701 0.7349 0.94333 0.0
C1438 C 0.52289 0.73652 0.97803 0.0
C1439 C 0.5071 0.73766 0.07786 0.0
C1440 C 0.51355 0.73814 0.04377 0.0
H1441 H 0.53514 0.76961 0.87819 0.0
H1442 H 0.52861 0.77268 0.93547 0.0
H1443 H 0.54554 0.70704 0.99003 0.0
H1444 H 0.49231 0.69841 0.13562 0.0
H1445 H 0.50565 0.69945 0.08074 0.0
C1446 C 0.29068 0.50529 0.9024 0.0
C1447 C 0.27031 0.50887 0.88429 0.0
C1448 C 0.28901 0.49626 0.93307 0.0
C1449 C 0.24781 0.49408 0.99928 0.0
H1450 H 0.29406 0.45171 0.03553 0.0
C1451 C 0.24622 0.47006 0.13227 0.0
C1452 C 0.26796 0.46632 0.1471 0.0
C1453 C 0.24503 0.47246 0.09933 0.0
C1454 C 0.28114 0.46379 0.02595 0.0
H1455 H 0.23257 0.50383 0.88216 0.0
H1456 H 0.22944 0.48836 0.93633 0.0
H1457 H 0.29461 0.45963 0.97887 0.0
H1458 H 0.30565 0.46415 0.1403 0.0
H1459 H 0.30394 0.46949 0.08306 0.0
H1460 H 0.23503 0.49933 0.0463 0.0
C1461 C 0.24664 0.49297 0.92711 0.0
C1462 C 0.28141 0.4682 0.9934 0.0
C1463 C 0.24839 0.50177 0.89625 0.0
C1464 C 0.28863 0.46629 0.12901 0.0
C1465 C 0.28756 0.4692 0.09621 0.0
C1466 C 0.2478 0.49003 0.03192 0.0
C1467 C 0.26691 0.49055 0.94603 0.0
C1468 C 0.26501 0.48372 0.97983 0.0
C1469 C 0.26572 0.47203 0.08083 0.0
C1470 C 0.26469 0.4751 0.04579 0.0
H1471 H 0.30785 0.50996 0.89305 0.0
H1472 H 0.30493 0.49472 0.94709 0.0
H1473 H 0.23492 0.50612 0.9895 0.0
H1474 H 0.23012 0.47051 0.14609 0.0
H1475 H 0.22787 0.47432 0.08844 0.0
C1476 C 0.52782 0.3006 0.12402 0.0
C1477 C 0.52831 0.28026 0.14281 0.0
C1478 C 0.52237 0.29904 0.0918 0.0
C1479 C 0.49648 0.25867 0.03136 0.0
H1480 H 0.52905 0.30026 0.97305 0.0
C1481 C 0.48512 0.25008 0.89615 0.0
C1482 C 0.48032 0.27132 0.88052 0.0
C1483 C 0.49316 0.25029 0.92747 0.0
C1484 C 0.51975 0.28857 0.98904 0.0
H1485 H 0.52213 0.2427 0.14387 0.0
H1486 H 0.51381 0.23957 0.08725 0.0
H1487 H 0.53738 0.30267 0.02947 0.0
H1488 H 0.48248 0.30931 0.88336 0.0
H1489 H 0.49632 0.30985 0.93818 0.0
H1490 H 0.47916 0.24434 0.99074 0.0
C1491 C 0.51725 0.25683 0.09713 0.0
C1492 C 0.52446 0.29 0.02147 0.0
C1493 C 0.52224 0.25851 0.12947 0.0
C1494 C 0.4854 0.29274 0.89552 0.0
C1495 C 0.49361 0.293 0.92669 0.0
C1496 C 0.492 0.25706 0.99889 0.0
C1497 C 0.51744 0.27706 0.07777 0.0
C1498 C 0.51273 0.27522 0.04313 0.0
C1499 C 0.49704 0.27178 0.94328 0.0
C1500 C 0.50333 0.27222 0.97742 0.0
H1501 H 0.53167 0.31767 0.13428 0.0
H1502 H 0.52203 0.3151 0.07796 0.0
H1503 H 0.48678 0.24724 0.04723 0.0
H1504 H 0.48187 0.23338 0.88452 0.0
H1505 H 0.49608 0.23366 0.93943 0.0
C1506 C 0.73654 0.47984 0.88057 0.0
C1507 C 0.71552 0.47235 0.86638 0.0
C1508 C 0.73677 0.48648 0.91246 0.0
C1509 C 0.69867 0.50626 0.97805 0.0
H1510 H 0.74748 0.47944 0.03127 0.0
C1511 C 0.69647 0.51814 0.1135 0.0
C1512 C 0.71807 0.52186 0.12873 0.0
C1513 C 0.6959 0.51108 0.08179 0.0
C1514 C 0.73389 0.48738 0.01677 0.0
H1515 H 0.67791 0.46827 0.87265 0.0
H1516 H 0.67817 0.4798 0.92852 0.0
H1517 H 0.74747 0.47133 0.97468 0.0
H1518 H 0.75594 0.51961 0.1242 0.0
H1519 H 0.75521 0.50858 0.06833 0.0
H1520 H 0.68529 0.52267 0.01979 0.0
C1521 C 0.69458 0.48012 0.91539 0.0
C1522 C 0.73386 0.48263 0.9843 0.0
C1523 C 0.69444 0.47325 0.88363 0.0
C1524 C 0.7391 0.51726 0.11252 0.0
C1525 C 0.7386 0.51068 0.08063 0.0
C1526 C 0.69884 0.51122 0.01046 0.0
C1527 C 0.71583 0.48633 0.93033 0.0
C1528 C 0.71622 0.49197 0.96462 0.0
C1529 C 0.71698 0.50775 0.0647 0.0
C1530 C 0.71647 0.50189 0.03029 0.0
H1531 H 0.75288 0.47984 0.86726 0.0
H1532 H 0.75332 0.49164 0.92319 0.0
H1533 H 0.68498 0.51391 0.96342 0.0
H1534 H 0.68004 0.52078 0.12611 0.0
H1535 H 0.67892 0.50835 0.0707 0.0
loop_
_geom_bond_atom_site_label_1
_geom_bond_atom_site_label_2
_geom_bond_distance
_geom_bond_site_symmetry_2
_ccdc_geom_bond_type
Mn0 O5 2.095 . S
Mn0 O15 2.162 1_455 S
Mn0 O16 2.266 1_455 S
Mn0 O24 2.385 . S
Mn0 O25 2.209 . S
Mn0 O26 2.094 . S
Mn1 O6 2.121 . S
Mn1 N8 2.257 . S
Mn1 N17 2.282 . S
Mn1 O25 2.215 . S
Mn1 O27 2.117 . S
C2 O24 1.234 . S
C2 O25 1.283 . S
C3 O15 1.281 . S
C3 O16 1.261 . S
C4 O26 1.240 . S
C4 O27 1.264 . S
O5 Mn0 2.095 . S
O5 C14 1.250 . S
O6 Mn1 2.121 . S
O6 C14 1.258 . S
C7 N8 1.326 . S
C7 C11 1.460 . S
C7 H13 0.929 . S
N8 Mn1 2.257 . S
N8 C7 1.326 . S
N8 C12 1.362 . S
C9 C10 1.258 . S
C9 C12 1.431 . S
C9 C29 1.449 . S
C10 C9 1.258 . S
C10 C11 1.477 . S
C10 H30 0.931 . S
C11 C7 1.460 . S
C11 C10 1.477 . S
C11 H31 0.930 . S
C12 N8 1.362 . S
C12 C9 1.431 . S
C12 C22 1.476 . S
H13 C7 0.929 . S
C14 O5 1.250 . S
C14 O6 1.258 . S
O15 Mn0 2.162 1_655 S
O15 C3 1.281 . S
O16 Mn0 2.266 1_655 S
O16 C3 1.261 . S
N17 Mn1 2.282 . S
N17 C18 1.328 . S
N17 C22 1.318 . S
C18 N17 1.328 . S
C18 C19 1.457 . S
C18 H23 0.929 . S
C19 C18 1.457 . S
C19 C20 1.291 . S
C19 H32 0.931 . S
C20 C19 1.291 . S
C20 C21 1.373 . S
C20 H33 0.929 . S
C21 C20 1.373 . S
C21 C22 1.396 . S
C21 C28 1.403 . S
C22 C12 1.476 . S
C22 N17 1.318 . S
C22 C21 1.396 . S
H23 C18 0.929 . S
O24 Mn0 2.385 . S
O24 C2 1.234 . S
O25 Mn0 2.209 . S
O25 Mn1 2.215 . S
O25 C2 1.283 . S
O26 Mn0 2.094 . S
O26 C4 1.240 . S
O27 Mn1 2.117 . S
O27 C4 1.264 . S
C28 C21 1.403 . S
C28 C29 1.399 . S
C28 H34 0.929 . S
C29 C9 1.449 . S
C29 C28 1.399 . S
C29 H35 0.930 . S
H30 C10 0.931 . S
H31 C11 0.930 . S
H32 C19 0.931 . S
H33 C20 0.929 . S
H34 C28 0.929 . S
H35 C29 0.930 . S
Mn36 O41 2.095 . S
Mn36 O51 2.162 1_545 S
Mn36 O52 2.266 1_545 S
Mn36 O60 2.385 . S
Mn36 O61 2.209 . S
Mn36 O62 2.094 . S
Mn37 O42 2.121 . S
Mn37 N44 2.257 . S
Mn37 N53 2.282 . S
Mn37 O61 2.215 . S
Mn37 O63 2.117 . S
C38 O60 1.234 . S
C38 O61 1.283 . S
C39 O51 1.281 . S
C39 O52 1.261 . S
C40 O62 1.240 . S
C40 O63 1.264 . S
O41 Mn36 2.095 . S
O41 C50 1.250 . S
O42 Mn37 2.121 . S
O42 C50 1.258 . S
C43 N44 1.326 . S
C43 C47 1.460 . S
C43 H49 0.929 . S
N44 Mn37 2.257 . S
N44 C43 1.326 . S
N44 C48 1.362 . S
C45 C46 1.258 . S
C45 C48 1.431 . S
C45 C65 1.449 . S
C46 C45 1.258 . S
C46 C47 1.477 . S
C46 H66 0.931 . S
C47 C43 1.460 . S
C47 C46 1.477 . S
C47 H67 0.930 . S
C48 N44 1.362 . S
C48 C45 1.431 . S
C48 C58 1.476 . S
H49 C43 0.929 . S
C50 O41 1.250 . S
C50 O42 1.258 . S
O51 Mn36 2.162 1_565 S
O51 C39 1.281 . S
O52 Mn36 2.266 1_565 S
O52 C39 1.261 . S
N53 Mn37 2.282 . S
N53 C54 1.328 . S
N53 C58 1.318 . S
C54 N53 1.328 . S
C54 C55 1.457 . S
C54 H59 0.929 . S
C55 C54 1.457 . S
C55 C56 1.291 . S
C55 H68 0.931 . S
C56 C55 1.291 . S
C56 C57 1.373 . S
C56 H69 0.929 . S
C57 C56 1.373 . S
C57 C58 1.396 . S
C57 C64 1.403 . S
C58 C48 1.476 . S
C58 N53 1.318 . S
C58 C57 1.396 . S
H59 C54 0.929 . S
O60 Mn36 2.385 . S
O60 C38 1.234 . S
O61 Mn36 2.209 . S
O61 Mn37 2.215 . S
O61 C38 1.283 . S
O62 Mn36 2.094 . S
O62 C40 1.240 . S
O63 Mn37 2.117 . S
O63 C40 1.264 . S
C64 C57 1.403 . S
C64 C65 1.399 . S
C64 H70 0.929 . S
C65 C45 1.449 . S
C65 C64 1.399 . S
C65 H71 0.930 . S
H66 C46 0.931 . S
H67 C47 0.930 . S
H68 C55 0.931 . S
H69 C56 0.929 . S
H70 C64 0.929 . S
H71 C65 0.930 . S
Mn72 O77 2.095 . S
Mn72 O87 2.162 1_655 S
Mn72 O88 2.266 1_655 S
Mn72 O96 2.385 . S
Mn72 O97 2.209 . S
Mn72 O98 2.094 . S
Mn73 O78 2.121 . S
Mn73 N80 2.257 . S
Mn73 N89 2.282 . S
Mn73 O97 2.215 . S
Mn73 O99 2.117 . S
C74 O96 1.234 . S
C74 O97 1.283 . S
C75 O87 1.281 . S
C75 O88 1.261 . S
C76 O98 1.240 . S
C76 O99 1.264 . S
O77 Mn72 2.095 . S
O77 C86 1.250 . S
O78 Mn73 2.121 . S
O78 C86 1.258 . S
C79 N80 1.326 . S
C79 C83 1.460 . S
C79 H85 0.929 . S
N80 Mn73 2.257 . S
N80 C79 1.326 . S
N80 C84 1.362 . S
C81 C82 1.258 . S
C81 C84 1.431 . S
C81 C101 1.449 . S
C82 C81 1.258 . S
C82 C83 1.477 . S
C82 H102 0.931 . S
C83 C79 1.460 . S
C83 C82 1.477 . S
C83 H103 0.930 . S
C84 N80 1.362 . S
C84 C81 1.431 . S
C84 C94 1.476 . S
H85 C79 0.929 . S
C86 O77 1.250 . S
C86 O78 1.258 . S
O87 Mn72 2.162 1_455 S
O87 C75 1.281 . S
O88 Mn72 2.266 1_455 S
O88 C75 1.261 . S
N89 Mn73 2.282 . S
N89 C90 1.328 . S
N89 C94 1.318 . S
C90 N89 1.328 . S
C90 C91 1.457 . S
C90 H95 0.929 . S
C91 C90 1.457 . S
C91 C92 1.291 . S
C91 H104 0.931 . S
C92 C91 1.291 . S
C92 C93 1.373 . S
C92 H105 0.929 . S
C93 C92 1.373 . S
C93 C94 1.396 . S
C93 C100 1.403 . S
C94 C84 1.476 . S
C94 N89 1.318 . S
C94 C93 1.396 . S
H95 C90 0.929 . S
O96 Mn72 2.385 . S
O96 C74 1.234 . S
O97 Mn72 2.209 . S
O97 Mn73 2.215 . S
O97 C74 1.283 . S
O98 Mn72 2.094 . S
O98 C76 1.240 . S
O99 Mn73 2.117 . S
O99 C76 1.264 . S
C100 C93 1.403 . S
C100 C101 1.399 . S
C100 H106 0.929 . S
C101 C81 1.449 . S
C101 C100 1.399 . S
C101 H107 0.930 . S
H102 C82 0.931 . S
H103 C83 0.930 . S
H104 C91 0.931 . S
H105 C92 0.929 . S
H106 C100 0.929 . S
H107 C101 0.930 . S
Mn108 O113 2.095 . S
Mn108 O123 2.162 1_565 S
Mn108 O124 2.266 1_565 S
Mn108 O132 2.385 . S
Mn108 O133 2.209 . S
Mn108 O134 2.094 . S
Mn109 O114 2.121 . S
Mn109 N116 2.257 . S
Mn109 N125 2.282 . S
Mn109 O133 2.215 . S
Mn109 O135 2.117 . S
C110 O132 1.234 . S
C110 O133 1.283 . S
C111 O123 1.281 . S
C111 O124 1.261 . S
C112 O134 1.240 . S
C112 O135 1.264 . S
O113 Mn108 2.095 . S
O113 C122 1.250 . S
O114 Mn109 2.121 . S
O114 C122 1.258 . S
C115 N116 1.326 . S
C115 C119 1.460 . S
C115 H121 0.929 . S
N116 Mn109 2.257 . S
N116 C115 1.326 . S
N116 C120 1.362 . S
C117 C118 1.258 . S
C117 C120 1.431 . S
C117 C137 1.449 . S
C118 C117 1.258 . S
C118 C119 1.477 . S
C118 H138 0.931 . S
C119 C115 1.460 . S
C119 C118 1.477 . S
C119 H139 0.930 . S
C120 N116 1.362 . S
C120 C117 1.431 . S
C120 C130 1.476 . S
H121 C115 0.929 . S
C122 O113 1.250 . S
C122 O114 1.258 . S
O123 Mn108 2.162 1_545 S
O123 C111 1.281 . S
O124 Mn108 2.266 1_545 S
O124 C111 1.261 . S
N125 Mn109 2.282 . S
N125 C126 1.328 . S
N125 C130 1.318 . S
C126 N125 1.328 . S
C126 C127 1.457 . S
C126 H131 0.929 . S
C127 C126 1.457 . S
C127 C128 1.291 . S
C127 H140 0.931 . S
C128 C127 1.291 . S
C128 C129 1.373 . S
C128 H141 0.929 . S
C129 C128 1.373 . S
C129 C130 1.396 . S
C129 C136 1.403 . S
C130 C120 1.476 . S
C130 N125 1.318 . S
C130 C129 1.396 . S
H131 C126 0.929 . S
O132 Mn108 2.385 . S
O132 C110 1.234 . S
O133 Mn108 2.209 . S
O133 Mn109 2.215 . S
O133 C110 1.283 . S
O134 Mn108 2.094 . S
O134 C112 1.240 . S
O135 Mn109 2.117 . S
O135 C112 1.264 . S
C136 C129 1.403 . S
C136 C137 1.399 . S
C136 H142 0.929 . S
C137 C117 1.449 . S
C137 C136 1.399 . S
C137 H143 0.930 . S
H138 C118 0.931 . S
H139 C119 0.930 . S
H140 C127 0.931 . S
H141 C128 0.929 . S
H142 C136 0.929 . S
H143 C137 0.930 . S
Mn144 O149 2.095 . S
Mn144 O159 2.162 1_455 S
Mn144 O160 2.266 1_455 S
Mn144 O168 2.385 . S
Mn144 O169 2.209 . S
Mn144 O170 2.094 . S
Mn145 O150 2.121 . S
Mn145 N152 2.257 . S
Mn145 N161 2.282 . S
Mn145 O169 2.215 . S
Mn145 O171 2.117 . S
C146 O168 1.234 . S
C146 O169 1.283 . S
C147 O159 1.281 . S
C147 O160 1.261 . S
C148 O170 1.240 . S
C148 O171 1.264 . S
O149 Mn144 2.095 . S
O149 C158 1.250 . S
O150 Mn145 2.121 . S
O150 C158 1.258 . S
C151 N152 1.326 . S
C151 C155 1.460 . S
C151 H157 0.929 . S
N152 Mn145 2.257 . S
N152 C151 1.326 . S
N152 C156 1.362 . S
C153 C154 1.258 . S
C153 C156 1.431 . S
C153 C173 1.449 . S
C154 C153 1.258 . S
C154 C155 1.477 . S
C154 H174 0.931 . S
C155 C151 1.460 . S
C155 C154 1.477 . S
C155 H175 0.930 . S
C156 N152 1.362 . S
C156 C153 1.431 . S
C156 C166 1.476 . S
H157 C151 0.929 . S
C158 O149 1.250 . S
C158 O150 1.258 . S
O159 Mn144 2.162 1_655 S
O159 C147 1.281 . S
O160 Mn144 2.266 1_655 S
O160 C147 1.261 . S
N161 Mn145 2.282 . S
N161 C162 1.328 . S
N161 C166 1.318 . S
C162 N161 1.328 . S
C162 C163 1.457 . S
C162 H167 0.929 . S
C163 C162 1.457 . S
C163 C164 1.291 . S
C163 H176 0.931 . S
C164 C163 1.291 . S
C164 C165 1.373 . S
C164 H177 0.929 . S
C165 C164 1.373 . S
C165 C166 1.396 . S
C165 C172 1.403 . S
C166 C156 1.476 . S
C166 N161 1.318 . S
C166 C165 1.396 . S
H167 C162 0.929 . S
O168 Mn144 2.385 . S
O168 C146 1.234 . S
O169 Mn144 2.209 . S
O169 Mn145 2.215 . S
O169 C146 1.283 . S
O170 Mn144 2.094 . S
O170 C148 1.240 . S
O171 Mn145 2.117 . S
O171 C148 1.264 . S
C172 C165 1.403 . S
C172 C173 1.399 . S
C172 H178 0.929 . S
C173 C153 1.449 . S
C173 C172 1.399 . S
C173 H179 0.930 . S
H174 C154 0.931 . S
H175 C155 0.930 . S
H176 C163 0.931 . S
H177 C164 0.929 . S
H178 C172 0.929 . S
H179 C173 0.930 . S
Mn180 O185 2.095 . S
Mn180 O195 2.162 1_545 S
Mn180 O196 2.266 1_545 S
Mn180 O204 2.385 . S
Mn180 O205 2.209 . S
Mn180 O206 2.094 . S
Mn181 O186 2.121 . S
Mn181 N188 2.257 . S
Mn181 N197 2.282 . S
Mn181 O205 2.215 . S
Mn181 O207 2.117 . S
C182 O204 1.234 . S
C182 O205 1.283 . S
C183 O195 1.281 . S
C183 O196 1.261 . S
C184 O206 1.240 . S
C184 O207 1.264 . S
O185 Mn180 2.095 . S
O185 C194 1.250 . S
O186 Mn181 2.121 . S
O186 C194 1.258 . S
C187 N188 1.326 . S
C187 C191 1.460 . S
C187 H193 0.929 . S
N188 Mn181 2.257 . S
N188 C187 1.326 . S
N188 C192 1.362 . S
C189 C190 1.258 . S
C189 C192 1.431 . S
C189 C209 1.449 . S
C190 C189 1.258 . S
C190 C191 1.477 . S
C190 H210 0.931 . S
C191 C187 1.460 . S
C191 C190 1.477 . S
C191 H211 0.930 . S
C192 N188 1.362 . S
C192 C189 1.431 . S
C192 C202 1.476 . S
H193 C187 0.929 . S
C194 O185 1.250 . S
C194 O186 1.258 . S
O195 Mn180 2.162 1_565 S
O195 C183 1.281 . S
O196 Mn180 2.266 1_565 S
O196 C183 1.261 . S
N197 Mn181 2.282 . S
N197 C198 1.328 . S
N197 C202 1.318 . S
C198 N197 1.328 . S
C198 C199 1.457 . S
C198 H203 0.929 . S
C199 C198 1.457 . S
C199 C200 1.291 . S
C199 H212 0.931 . S
C200 C199 1.291 . S
C200 C201 1.373 . S
C200 H213 0.929 . S
C201 C200 1.373 . S
C201 C202 1.396 . S
C201 C208 1.403 . S
C202 C192 1.476 . S
C202 N197 1.318 . S
C202 C201 1.396 . S
H203 C198 0.929 . S
O204 Mn180 2.385 . S
O204 C182 1.234 . S
O205 Mn180 2.209 . S
O205 Mn181 2.215 . S
O205 C182 1.283 . S
O206 Mn180 2.094 . S
O206 C184 1.240 . S
O207 Mn181 2.117 . S
O207 C184 1.264 . S
C208 C201 1.403 . S
C208 C209 1.399 . S
C208 H214 0.929 . S
C209 C189 1.449 . S
C209 C208 1.399 . S
C209 H215 0.930 . S
H210 C190 0.931 . S
H211 C191 0.930 . S
H212 C199 0.931 . S
H213 C200 0.929 . S
H214 C208 0.929 . S
H215 C209 0.930 . S
Mn216 O221 2.095 . S
Mn216 O231 2.162 1_655 S
Mn216 O232 2.266 1_655 S
Mn216 O240 2.385 . S
Mn216 O241 2.209 . S
Mn216 O242 2.094 . S
Mn217 O222 2.121 . S
Mn217 N224 2.257 . S
Mn217 N233 2.282 . S
Mn217 O241 2.215 . S
Mn217 O243 2.117 . S
C218 O240 1.234 . S
C218 O241 1.283 . S
C219 O231 1.281 . S
C219 O232 1.261 . S
C220 O242 1.240 . S
C220 O243 1.264 . S
O221 Mn216 2.095 . S
O221 C230 1.250 . S
O222 Mn217 2.121 . S
O222 C230 1.258 . S
C223 N224 1.326 . S
C223 C227 1.460 . S
C223 H229 0.929 . S
N224 Mn217 2.257 . S
N224 C223 1.326 . S
N224 C228 1.362 . S
C225 C226 1.258 . S
C225 C228 1.431 . S
C225 C245 1.449 . S
C226 C225 1.258 . S
C226 C227 1.477 . S
C226 H246 0.931 . S
C227 C223 1.460 . S
C227 C226 1.477 . S
C227 H247 0.930 . S
C228 N224 1.362 . S
C228 C225 1.431 . S
C228 C238 1.476 . S
H229 C223 0.929 . S
C230 O221 1.250 . S
C230 O222 1.258 . S
O231 Mn216 2.162 1_455 S
O231 C219 1.281 . S
O232 Mn216 2.266 1_455 S
O232 C219 1.261 . S
N233 Mn217 2.282 . S
N233 C234 1.328 . S
N233 C238 1.318 . S
C234 N233 1.328 . S
C234 C235 1.457 . S
C234 H239 0.929 . S
C235 C234 1.457 . S
C235 C236 1.291 . S
C235 H248 0.931 . S
C236 C235 1.291 . S
C236 C237 1.373 . S
C236 H249 0.929 . S
C237 C236 1.373 . S
C237 C238 1.396 . S
C237 C244 1.403 . S
C238 C228 1.476 . S
C238 N233 1.318 . S
C238 C237 1.396 . S
H239 C234 0.929 . S
O240 Mn216 2.385 . S
O240 C218 1.234 . S
O241 Mn216 2.209 . S
O241 Mn217 2.215 . S
O241 C218 1.283 . S
O242 Mn216 2.094 . S
O242 C220 1.240 . S
O243 Mn217 2.117 . S
O243 C220 1.264 . S
C244 C237 1.403 . S
C244 C245 1.399 . S
C244 H250 0.929 . S
C245 C225 1.449 . S
C245 C244 1.399 . S
C245 H251 0.930 . S
H246 C226 0.931 . S
H247 C227 0.930 . S
H248 C235 0.931 . S
H249 C236 0.929 . S
H250 C244 0.929 . S
H251 C245 0.930 . S
Mn252 O257 2.095 . S
Mn252 O267 2.162 1_565 S
Mn252 O268 2.266 1_565 S
Mn252 O276 2.385 . S
Mn252 O277 2.209 . S
Mn252 O278 2.094 . S
Mn253 O258 2.121 . S
Mn253 N260 2.257 . S
Mn253 N269 2.282 . S
Mn253 O277 2.215 . S
Mn253 O279 2.117 . S
C254 O276 1.234 . S
C254 O277 1.283 . S
C255 O267 1.281 . S
C255 O268 1.261 . S
C256 O278 1.240 . S
C256 O279 1.264 . S
O257 Mn252 2.095 . S
O257 C266 1.250 . S
O258 Mn253 2.121 . S
O258 C266 1.258 . S
C259 N260 1.326 . S
C259 C263 1.460 . S
C259 H265 0.929 . S
N260 Mn253 2.257 . S
N260 C259 1.326 . S
N260 C264 1.362 . S
C261 C262 1.258 . S
C261 C264 1.431 . S
C261 C281 1.449 . S
C262 C261 1.258 . S
C262 C263 1.477 . S
C262 H282 0.931 . S
C263 C259 1.460 . S
C263 C262 1.477 . S
C263 H283 0.930 . S
C264 N260 1.362 . S
C264 C261 1.431 . S
C264 C274 1.476 . S
H265 C259 0.929 . S
C266 O257 1.250 . S
C266 O258 1.258 . S
O267 Mn252 2.162 1_545 S
O267 C255 1.281 . S
O268 Mn252 2.266 1_545 S
O268 C255 1.261 . S
N269 Mn253 2.282 . S
N269 C270 1.328 . S
N269 C274 1.318 . S
C270 N269 1.328 . S
C270 C271 1.457 . S
C270 H275 0.929 . S
C271 C270 1.457 . S
C271 C272 1.291 . S
C271 H284 0.931 . S
C272 C271 1.291 . S
C272 C273 1.373 . S
C272 H285 0.929 . S
C273 C272 1.373 . S
C273 C274 1.396 . S
C273 C280 1.403 . S
C274 C264 1.476 . S
C274 N269 1.318 . S
C274 C273 1.396 . S
H275 C270 0.929 . S
O276 Mn252 2.385 . S
O276 C254 1.234 . S
O277 Mn252 2.209 . S
O277 Mn253 2.215 . S
O277 C254 1.283 . S
O278 Mn252 2.094 . S
O278 C256 1.240 . S
O279 Mn253 2.117 . S
O279 C256 1.264 . S
C280 C273 1.403 . S
C280 C281 1.399 . S
C280 H286 0.929 . S
C281 C261 1.449 . S
C281 C280 1.399 . S
C281 H287 0.930 . S
H282 C262 0.931 . S
H283 C263 0.930 . S
H284 C271 0.931 . S
H285 C272 0.929 . S
H286 C280 0.929 . S
H287 C281 0.930 . S
Mn288 O293 2.095 . S
Mn288 O303 2.162 . S
Mn288 O304 2.297 . S
Mn288 O312 2.385 . S
Mn288 O313 2.209 . S
Mn288 O314 2.094 . S
Mn289 O294 2.121 . S
Mn289 N296 2.257 . S
Mn289 N305 2.282 . S
Mn289 O313 2.215 . S
Mn289 O315 2.117 . S
C290 O312 1.234 . S
C290 O313 1.283 . S
C291 O303 1.281 . S
C291 O304 1.236 . S
C292 O314 1.240 . S
C292 O315 1.264 . S
O293 Mn288 2.095 . S
O293 C302 1.250 . S
O294 Mn289 2.121 . S
O294 C302 1.258 . S
C295 N296 1.326 . S
C295 C299 1.460 . S
C295 H301 0.929 . S
N296 Mn289 2.257 . S
N296 C295 1.326 . S
N296 C300 1.362 . S
C297 C298 1.258 . S
C297 C300 1.431 . S
C297 C317 1.449 . S
C298 C297 1.258 . S
C298 C299 1.477 . S
C298 H318 0.931 . S
C299 C295 1.460 . S
C299 C298 1.477 . S
C299 H319 0.930 . S
C300 N296 1.362 . S
C300 C297 1.431 . S
C300 C310 1.476 . S
H301 C295 0.929 . S
C302 O293 1.250 . S
C302 O294 1.258 . S
O303 Mn288 2.162 . S
O303 C291 1.281 . S
O304 Mn288 2.297 . S
O304 C291 1.236 . S
N305 Mn289 2.282 . S
N305 C306 1.328 . S
N305 C310 1.318 . S
C306 N305 1.328 . S
C306 C307 1.457 . S
C306 H311 0.929 . S
C307 C306 1.457 . S
C307 C308 1.291 . S
C307 H320 0.931 . S
C308 C307 1.291 . S
C308 C309 1.373 . S
C308 H321 0.929 . S
C309 C308 1.373 . S
C309 C310 1.396 . S
C309 C316 1.403 . S
C310 C300 1.476 . S
C310 N305 1.318 . S
C310 C309 1.396 . S
H311 C306 0.929 . S
O312 Mn288 2.385 . S
O312 C290 1.234 . S
O313 Mn288 2.209 . S
O313 Mn289 2.215 . S
O313 C290 1.283 . S
O314 Mn288 2.094 . S
O314 C292 1.240 . S
O315 Mn289 2.117 . S
O315 C292 1.264 . S
C316 C309 1.403 . S
C316 C317 1.399 . S
C316 H322 0.929 . S
C317 C297 1.449 . S
C317 C316 1.399 . S
C317 H323 0.930 . S
H318 C298 0.931 . S
H319 C299 0.930 . S
H320 C307 0.931 . S
H321 C308 0.929 . S
H322 C316 0.929 . S
H323 C317 0.930 . S
Mn324 O329 2.095 . S
Mn324 O339 2.162 . S
Mn324 O340 2.297 . S
Mn324 O348 2.385 . S
Mn324 O349 2.209 . S
Mn324 O350 2.094 . S
Mn325 O330 2.121 . S
Mn325 N332 2.257 . S
Mn325 N341 2.282 . S
Mn325 O349 2.215 . S
Mn325 O351 2.117 . S
C326 O348 1.234 . S
C326 O349 1.283 . S
C327 O339 1.281 . S
C327 O340 1.236 . S
C328 O350 1.240 . S
C328 O351 1.264 . S
O329 Mn324 2.095 . S
O329 C338 1.250 . S
O330 Mn325 2.121 . S
O330 C338 1.258 . S
C331 N332 1.326 . S
C331 C335 1.460 . S
C331 H337 0.929 . S
N332 Mn325 2.257 . S
N332 C331 1.326 . S
N332 C336 1.362 . S
C333 C334 1.258 . S
C333 C336 1.431 . S
C333 C353 1.449 . S
C334 C333 1.258 . S
C334 C335 1.477 . S
C334 H354 0.931 . S
C335 C331 1.460 . S
C335 C334 1.477 . S
C335 H355 0.930 . S
C336 N332 1.362 . S
C336 C333 1.431 . S
C336 C346 1.476 . S
H337 C331 0.929 . S
C338 O329 1.250 . S
C338 O330 1.258 . S
O339 Mn324 2.162 . S
O339 C327 1.281 . S
O340 Mn324 2.297 . S
O340 C327 1.236 . S
N341 Mn325 2.282 . S
N341 C342 1.328 . S
N341 C346 1.318 . S
C342 N341 1.328 . S
C342 C343 1.457 . S
C342 H347 0.929 . S
C343 C342 1.457 . S
C343 C344 1.291 . S
C343 H356 0.931 . S
C344 C343 1.291 . S
C344 C345 1.373 . S
C344 H357 0.929 . S
C345 C344 1.373 . S
C345 C346 1.396 . S
C345 C352 1.403 . S
C346 C336 1.476 . S
C346 N341 1.318 . S
C346 C345 1.396 . S
H347 C342 0.929 . S
O348 Mn324 2.385 . S
O348 C326 1.234 . S
O349 Mn324 2.209 . S
O349 Mn325 2.215 . S
O349 C326 1.283 . S
O350 Mn324 2.094 . S
O350 C328 1.240 . S
O351 Mn325 2.117 . S
O351 C328 1.264 . S
C352 C345 1.403 . S
C352 C353 1.399 . S
C352 H358 0.929 . S
C353 C333 1.449 . S
C353 C352 1.399 . S
C353 H359 0.930 . S
H354 C334 0.931 . S
H355 C335 0.930 . S
H356 C343 0.931 . S
H357 C344 0.929 . S
H358 C352 0.929 . S
H359 C353 0.930 . S
Mn360 O365 2.095 . S
Mn360 O375 2.162 . S
Mn360 O376 2.297 . S
Mn360 O384 2.385 . S
Mn360 O385 2.209 . S
Mn360 O386 2.094 . S
Mn361 O366 2.121 . S
Mn361 N368 2.257 . S
Mn361 N377 2.282 . S
Mn361 O385 2.215 . S
Mn361 O387 2.117 . S
C362 O384 1.234 . S
C362 O385 1.283 . S
C363 O375 1.281 . S
C363 O376 1.236 . S
C364 O386 1.240 . S
C364 O387 1.264 . S
O365 Mn360 2.095 . S
O365 C374 1.250 . S
O366 Mn361 2.121 . S
O366 C374 1.258 . S
C367 N368 1.326 . S
C367 C371 1.460 . S
C367 H373 0.929 . S
N368 Mn361 2.257 . S
N368 C367 1.326 . S
N368 C372 1.362 . S
C369 C370 1.258 . S
C369 C372 1.431 . S
C369 C389 1.449 . S
C370 C369 1.258 . S
C370 C371 1.477 . S
C370 H390 0.931 . S
C371 C367 1.460 . S
C371 C370 1.477 . S
C371 H391 0.930 . S
C372 N368 1.362 . S
C372 C369 1.431 . S
C372 C382 1.476 . S
H373 C367 0.929 . S
C374 O365 1.250 . S
C374 O366 1.258 . S
O375 Mn360 2.162 . S
O375 C363 1.281 . S
O376 Mn360 2.297 . S
O376 C363 1.236 . S
N377 Mn361 2.282 . S
N377 C378 1.328 . S
N377 C382 1.318 . S
C378 N377 1.328 . S
C378 C379 1.457 . S
C378 H383 0.929 . S
C379 C378 1.457 . S
C379 C380 1.291 . S
C379 H392 0.931 . S
C380 C379 1.291 . S
C380 C381 1.373 . S
C380 H393 0.929 . S
C381 C380 1.373 . S
C381 C382 1.396 . S
C381 C388 1.403 . S
C382 C372 1.476 . S
C382 N377 1.318 . S
C382 C381 1.396 . S
H383 C378 0.929 . S
O384 Mn360 2.385 . S
O384 C362 1.234 . S
O385 Mn360 2.209 . S
O385 Mn361 2.215 . S
O385 C362 1.283 . S
O386 Mn360 2.094 . S
O386 C364 1.240 . S
O387 Mn361 2.117 . S
O387 C364 1.264 . S
C388 C381 1.403 . S
C388 C389 1.399 . S
C388 H394 0.929 . S
C389 C369 1.449 . S
C389 C388 1.399 . S
C389 H395 0.930 . S
H390 C370 0.931 . S
H391 C371 0.930 . S
H392 C379 0.931 . S
H393 C380 0.929 . S
H394 C388 0.929 . S
H395 C389 0.930 . S
Mn396 O401 2.095 . S
Mn396 O411 2.162 . S
Mn396 O412 2.297 . S
Mn396 O420 2.385 . S
Mn396 O421 2.209 . S
Mn396 O422 2.094 . S
Mn397 O402 2.121 . S
Mn397 N404 2.257 . S
Mn397 N413 2.282 . S
Mn397 O421 2.215 . S
Mn397 O423 2.117 . S
C398 O420 1.234 . S
C398 O421 1.283 . S
C399 O411 1.281 . S
C399 O412 1.236 . S
C400 O422 1.240 . S
C400 O423 1.264 . S
O401 Mn396 2.095 . S
O401 C410 1.250 . S
O402 Mn397 2.121 . S
O402 C410 1.258 . S
C403 N404 1.326 . S
C403 C407 1.460 . S
C403 H409 0.929 . S
N404 Mn397 2.257 . S
N404 C403 1.326 . S
N404 C408 1.362 . S
C405 C406 1.258 . S
C405 C408 1.431 . S
C405 C425 1.449 . S
C406 C405 1.258 . S
C406 C407 1.477 . S
C406 H426 0.931 . S
C407 C403 1.460 . S
C407 C406 1.477 . S
C407 H427 0.930 . S
C408 N404 1.362 . S
C408 C405 1.431 . S
C408 C418 1.476 . S
H409 C403 0.929 . S
C410 O401 1.250 . S
C410 O402 1.258 . S
O411 Mn396 2.162 . S
O411 C399 1.281 . S
O412 Mn396 2.297 . S
O412 C399 1.236 . S
N413 Mn397 2.282 . S
N413 C414 1.328 . S
N413 C418 1.318 . S
C414 N413 1.328 . S
C414 C415 1.457 . S
C414 H419 0.929 . S
C415 C414 1.457 . S
C415 C416 1.291 . S
C415 H428 0.931 . S
C416 C415 1.291 . S
C416 C417 1.373 . S
C416 H429 0.929 . S
C417 C416 1.373 . S
C417 C418 1.396 . S
C417 C424 1.403 . S
C418 C408 1.476 . S
C418 N413 1.318 . S
C418 C417 1.396 . S
H419 C414 0.929 . S
O420 Mn396 2.385 . S
O420 C398 1.234 . S
O421 Mn396 2.209 . S
O421 Mn397 2.215 . S
O421 C398 1.283 . S
O422 Mn396 2.094 . S
O422 C400 1.240 . S
O423 Mn397 2.117 . S
O423 C400 1.264 . S
C424 C417 1.403 . S
C424 C425 1.399 . S
C424 H430 0.929 . S
C425 C405 1.449 . S
C425 C424 1.399 . S
C425 H431 0.930 . S
H426 C406 0.931 . S
H427 C407 0.930 . S
H428 C415 0.931 . S
H429 C416 0.929 . S
H430 C424 0.929 . S
H431 C425 0.930 . S
Mn432 O437 2.095 . S
Mn432 O447 2.162 . S
Mn432 O448 2.297 . S
Mn432 O456 2.385 . S
Mn432 O457 2.209 . S
Mn432 O458 2.094 . S
Mn433 O438 2.121 . S
Mn433 N440 2.257 . S
Mn433 N449 2.282 . S
Mn433 O457 2.215 . S
Mn433 O459 2.117 . S
C434 O456 1.234 . S
C434 O457 1.283 . S
C435 O447 1.281 . S
C435 O448 1.236 . S
C436 O458 1.240 . S
C436 O459 1.264 . S
O437 Mn432 2.095 . S
O437 C446 1.250 . S
O438 Mn433 2.121 . S
O438 C446 1.258 . S
C439 N440 1.326 . S
C439 C443 1.460 . S
C439 H445 0.929 . S
N440 Mn433 2.257 . S
N440 C439 1.326 . S
N440 C444 1.362 . S
C441 C442 1.258 . S
C441 C444 1.431 . S
C441 C461 1.449 . S
C442 C441 1.258 . S
C442 C443 1.477 . S
C442 H462 0.931 . S
C443 C439 1.460 . S
C443 C442 1.477 . S
C443 H463 0.930 . S
C444 N440 1.362 . S
C444 C441 1.431 . S
C444 C454 1.476 . S
H445 C439 0.929 . S
C446 O437 1.250 . S
C446 O438 1.258 . S
O447 Mn432 2.162 . S
O447 C435 1.281 . S
O448 Mn432 2.297 . S
O448 C435 1.236 . S
N449 Mn433 2.282 . S
N449 C450 1.328 . S
N449 C454 1.318 . S
C450 N449 1.328 . S
C450 C451 1.457 . S
C450 H455 0.929 . S
C451 C450 1.457 . S
C451 C452 1.291 . S
C451 H464 0.931 . S
C452 C451 1.291 . S
C452 C453 1.373 . S
C452 H465 0.929 . S
C453 C452 1.373 . S
C453 C454 1.396 . S
C453 C460 1.403 . S
C454 C444 1.476 . S
C454 N449 1.318 . S
C454 C453 1.396 . S
H455 C450 0.929 . S
O456 Mn432 2.385 . S
O456 C434 1.234 . S
O457 Mn432 2.209 . S
O457 Mn433 2.215 . S
O457 C434 1.283 . S
O458 Mn432 2.094 . S
O458 C436 1.240 . S
O459 Mn433 2.117 . S
O459 C436 1.264 . S
C460 C453 1.403 . S
C460 C461 1.399 . S
C460 H466 0.929 . S
C461 C441 1.449 . S
C461 C460 1.399 . S
C461 H467 0.930 . S
H462 C442 0.931 . S
H463 C443 0.930 . S
H464 C451 0.931 . S
H465 C452 0.929 . S
H466 C460 0.929 . S
H467 C461 0.930 . S
Mn468 O473 2.095 . S
Mn468 O483 2.162 . S
Mn468 O484 2.297 . S
Mn468 O492 2.385 . S
Mn468 O493 2.209 . S
Mn468 O494 2.094 . S
Mn469 O474 2.121 . S
Mn469 N476 2.257 . S
Mn469 N485 2.282 . S
Mn469 O493 2.215 . S
Mn469 O495 2.117 . S
C470 O492 1.234 . S
C470 O493 1.283 . S
C471 O483 1.281 . S
C471 O484 1.236 . S
C472 O494 1.240 . S
C472 O495 1.264 . S
O473 Mn468 2.095 . S
O473 C482 1.250 . S
O474 Mn469 2.121 . S
O474 C482 1.258 . S
C475 N476 1.326 . S
C475 C479 1.460 . S
C475 H481 0.929 . S
N476 Mn469 2.257 . S
N476 C475 1.326 . S
N476 C480 1.362 . S
C477 C478 1.258 . S
C477 C480 1.431 . S
C477 C497 1.449 . S
C478 C477 1.258 . S
C478 C479 1.477 . S
C478 H498 0.931 . S
C479 C475 1.460 . S
C479 C478 1.477 . S
C479 H499 0.930 . S
C480 N476 1.362 . S
C480 C477 1.431 . S
C480 C490 1.476 . S
H481 C475 0.929 . S
C482 O473 1.250 . S
C482 O474 1.258 . S
O483 Mn468 2.162 . S
O483 C471 1.281 . S
O484 Mn468 2.297 . S
O484 C471 1.236 . S
N485 Mn469 2.282 . S
N485 C486 1.328 . S
N485 C490 1.318 . S
C486 N485 1.328 . S
C486 C487 1.457 . S
C486 H491 0.929 . S
C487 C486 1.457 . S
C487 C488 1.291 . S
C487 H500 0.931 . S
C488 C487 1.291 . S
C488 C489 1.373 . S
C488 H501 0.929 . S
C489 C488 1.373 . S
C489 C490 1.396 . S
C489 C496 1.403 . S
C490 C480 1.476 . S
C490 N485 1.318 . S
C490 C489 1.396 . S
H491 C486 0.929 . S
O492 Mn468 2.385 . S
O492 C470 1.234 . S
O493 Mn468 2.209 . S
O493 Mn469 2.215 . S
O493 C470 1.283 . S
O494 Mn468 2.094 . S
O494 C472 1.240 . S
O495 Mn469 2.117 . S
O495 C472 1.264 . S
C496 C489 1.403 . S
C496 C497 1.399 . S
C496 H502 0.929 . S
C497 C477 1.449 . S
C497 C496 1.399 . S
C497 H503 0.930 . S
H498 C478 0.931 . S
H499 C479 0.930 . S
H500 C487 0.931 . S
H501 C488 0.929 . S
H502 C496 0.929 . S
H503 C497 0.930 . S
Mn504 O509 2.095 . S
Mn504 O519 2.162 . S
Mn504 O520 2.297 . S
Mn504 O528 2.385 . S
Mn504 O529 2.209 . S
Mn504 O530 2.094 . S
Mn505 O510 2.121 . S
Mn505 N512 2.257 . S
Mn505 N521 2.282 . S
Mn505 O529 2.215 . S
Mn505 O531 2.117 . S
C506 O528 1.234 . S
C506 O529 1.283 . S
C507 O519 1.281 . S
C507 O520 1.236 . S
C508 O530 1.240 . S
C508 O531 1.264 . S
O509 Mn504 2.095 . S
O509 C518 1.250 . S
O510 Mn505 2.121 . S
O510 C518 1.258 . S
C511 N512 1.326 . S
C511 C515 1.460 . S
C511 H517 0.929 . S
N512 Mn505 2.257 . S
N512 C511 1.326 . S
N512 C516 1.362 . S
C513 C514 1.258 . S
C513 C516 1.431 . S
C513 C533 1.449 . S
C514 C513 1.258 . S
C514 C515 1.477 . S
C514 H534 0.931 . S
C515 C511 1.460 . S
C515 C514 1.477 . S
C515 H535 0.930 . S
C516 N512 1.362 . S
C516 C513 1.431 . S
C516 C526 1.476 . S
H517 C511 0.929 . S
C518 O509 1.250 . S
C518 O510 1.258 . S
O519 Mn504 2.162 . S
O519 C507 1.281 . S
O520 Mn504 2.297 . S
O520 C507 1.236 . S
N521 Mn505 2.282 . S
N521 C522 1.328 . S
N521 C526 1.318 . S
C522 N521 1.328 . S
C522 C523 1.457 . S
C522 H527 0.929 . S
C523 C522 1.457 . S
C523 C524 1.291 . S
C523 H536 0.931 . S
C524 C523 1.291 . S
C524 C525 1.373 . S
C524 H537 0.929 . S
C525 C524 1.373 . S
C525 C526 1.396 . S
C525 C532 1.403 . S
C526 C516 1.476 . S
C526 N521 1.318 . S
C526 C525 1.396 . S
H527 C522 0.929 . S
O528 Mn504 2.385 . S
O528 C506 1.234 . S
O529 Mn504 2.209 . S
O529 Mn505 2.215 . S
O529 C506 1.283 . S
O530 Mn504 2.094 . S
O530 C508 1.240 . S
O531 Mn505 2.117 . S
O531 C508 1.264 . S
C532 C525 1.403 . S
C532 C533 1.399 . S
C532 H538 0.929 . S
C533 C513 1.449 . S
C533 C532 1.399 . S
C533 H539 0.930 . S
H534 C514 0.931 . S
H535 C515 0.930 . S
H536 C523 0.931 . S
H537 C524 0.929 . S
H538 C532 0.929 . S
H539 C533 0.930 . S
Mn540 O545 2.095 . S
Mn540 O555 2.162 . S
Mn540 O556 2.297 . S
Mn540 O564 2.385 . S
Mn540 O565 2.209 . S
Mn540 O566 2.094 . S
Mn541 O546 2.121 . S
Mn541 N548 2.257 . S
Mn541 N557 2.282 . S
Mn541 O565 2.215 . S
Mn541 O567 2.117 . S
C542 O564 1.234 . S
C542 O565 1.283 . S
C543 O555 1.281 . S
C543 O556 1.236 . S
C544 O566 1.240 . S
C544 O567 1.264 . S
O545 Mn540 2.095 . S
O545 C554 1.250 . S
O546 Mn541 2.121 . S
O546 C554 1.258 . S
C547 N548 1.326 . S
C547 C551 1.460 . S
C547 H553 0.929 . S
N548 Mn541 2.257 . S
N548 C547 1.326 . S
N548 C552 1.362 . S
C549 C550 1.258 . S
C549 C552 1.431 . S
C549 C569 1.449 . S
C550 C549 1.258 . S
C550 C551 1.477 . S
C550 H570 0.931 . S
C551 C547 1.460 . S
C551 C550 1.477 . S
C551 H571 0.930 . S
C552 N548 1.362 . S
C552 C549 1.431 . S
C552 C562 1.476 . S
H553 C547 0.929 . S
C554 O545 1.250 . S
C554 O546 1.258 . S
O555 Mn540 2.162 . S
O555 C543 1.281 . S
O556 Mn540 2.297 . S
O556 C543 1.236 . S
N557 Mn541 2.282 . S
N557 C558 1.328 . S
N557 C562 1.318 . S
C558 N557 1.328 . S
C558 C559 1.457 . S
C558 H563 0.929 . S
C559 C558 1.457 . S
C559 C560 1.291 . S
C559 H572 0.931 . S
C560 C559 1.291 . S
C560 C561 1.373 . S
C560 H573 0.929 . S
C561 C560 1.373 . S
C561 C562 1.396 . S
C561 C568 1.403 . S
C562 C552 1.476 . S
C562 N557 1.318 . S
C562 C561 1.396 . S
H563 C558 0.929 . S
O564 Mn540 2.385 . S
O564 C542 1.234 . S
O565 Mn540 2.209 . S
O565 Mn541 2.215 . S
O565 C542 1.283 . S
O566 Mn540 2.094 . S
O566 C544 1.240 . S
O567 Mn541 2.117 . S
O567 C544 1.264 . S
C568 C561 1.403 . S
C568 C569 1.399 . S
C568 H574 0.929 . S
C569 C549 1.449 . S
C569 C568 1.399 . S
C569 H575 0.930 . S
H570 C550 0.931 . S
H571 C551 0.930 . S
H572 C559 0.931 . S
H573 C560 0.929 . S
H574 C568 0.929 . S
H575 C569 0.930 . S
C576 C577 1.349 . S
C576 C578 1.327 . S
C576 H601 0.950 . S
C577 C576 1.349 . S
C577 C593 1.349 . S
C578 C576 1.327 . S
C578 C597 1.429 . S
C578 H602 0.950 . S
C579 C596 1.574 . S
C579 C598 1.368 . S
C579 H603 0.949 . S
H580 C584 0.949 . S
C581 C582 1.349 . S
C581 C583 1.327 . S
C581 H604 0.950 . S
C582 C581 1.349 . S
C582 C594 1.349 . S
C583 C581 1.327 . S
C583 C599 1.429 . S
C583 H605 0.950 . S
C584 H580 0.949 . S
C584 C592 1.574 . S
C584 C600 1.368 . S
H585 C593 0.950 . S
H586 C591 0.950 . S
H587 C592 0.949 . S
H588 C594 0.950 . S
H589 C595 0.950 . S
H590 C596 0.949 . S
C591 H586 0.950 . S
C591 C593 1.327 . S
C591 C597 1.429 . S
C592 C584 1.574 . S
C592 H587 0.949 . S
C592 C598 1.368 . S
C593 C577 1.349 . S
C593 H585 0.950 . S
C593 C591 1.327 . S
C594 C582 1.349 . S
C594 H588 0.950 . S
C594 C595 1.327 . S
C595 H589 0.950 . S
C595 C594 1.327 . S
C595 C599 1.429 . S
C596 C579 1.574 . S
C596 H590 0.949 . S
C596 C600 1.368 . S
C597 C578 1.429 . S
C597 C591 1.429 . S
C597 C598 1.523 . S
C598 C579 1.368 . S
C598 C592 1.368 . S
C598 C597 1.523 . S
C599 C583 1.429 . S
C599 C595 1.429 . S
C599 C600 1.523 . S
C600 C584 1.368 . S
C600 C596 1.368 . S
C600 C599 1.523 . S
H601 C576 0.950 . S
H602 C578 0.950 . S
H603 C579 0.949 . S
H604 C581 0.950 . S
H605 C583 0.950 . S
C606 C607 1.349 . S
C606 C608 1.327 . S
C606 H631 0.950 . S
C607 C606 1.349 . S
C607 C623 1.349 . S
C608 C606 1.327 . S
C608 C627 1.429 . S
C608 H632 0.950 . S
C609 C626 1.574 . S
C609 C628 1.368 . S
C609 H633 0.949 . S
H610 C614 0.949 . S
C611 C612 1.349 . S
C611 C613 1.327 . S
C611 H634 0.950 . S
C612 C611 1.349 . S
C612 C624 1.349 . S
C613 C611 1.327 . S
C613 C629 1.429 . S
C613 H635 0.950 . S
C614 H610 0.949 . S
C614 C622 1.574 . S
C614 C630 1.368 . S
H615 C623 0.950 . S
H616 C621 0.950 . S
H617 C622 0.949 . S
H618 C624 0.950 . S
H619 C625 0.950 . S
H620 C626 0.949 . S
C621 H616 0.950 . S
C621 C623 1.327 . S
C621 C627 1.429 . S
C622 C614 1.574 . S
C622 H617 0.949 . S
C622 C628 1.368 . S
C623 C607 1.349 . S
C623 H615 0.950 . S
C623 C621 1.327 . S
C624 C612 1.349 . S
C624 H618 0.950 . S
C624 C625 1.327 . S
C625 H619 0.950 . S
C625 C624 1.327 . S
C625 C629 1.429 . S
C626 C609 1.574 . S
C626 H620 0.949 . S
C626 C630 1.368 . S
C627 C608 1.429 . S
C627 C621 1.429 . S
C627 C628 1.523 . S
C628 C609 1.368 . S
C628 C622 1.368 . S
C628 C627 1.523 . S
C629 C613 1.429 . S
C629 C625 1.429 . S
C629 C630 1.523 . S
C630 C614 1.368 . S
C630 C626 1.368 . S
C630 C629 1.523 . S
H631 C606 0.950 . S
H632 C608 0.950 . S
H633 C609 0.949 . S
H634 C611 0.950 . S
H635 C613 0.950 . S
C636 C637 1.349 . S
C636 C638 1.327 . S
C636 H661 0.950 . S
C637 C636 1.349 . S
C637 C653 1.349 . S
C638 C636 1.327 . S
C638 C657 1.429 . S
C638 H662 0.950 . S
C639 C656 1.574 . S
C639 C658 1.368 . S
C639 H663 0.949 . S
H640 C644 0.949 . S
C641 C642 1.349 . S
C641 C643 1.327 . S
C641 H664 0.950 . S
C642 C641 1.349 . S
C642 C654 1.349 . S
C643 C641 1.327 . S
C643 C659 1.429 . S
C643 H665 0.950 . S
C644 H640 0.949 . S
C644 C652 1.574 . S
C644 C660 1.368 . S
H645 C653 0.950 . S
H646 C651 0.950 . S
H647 C652 0.949 . S
H648 C654 0.950 . S
H649 C655 0.950 . S
H650 C656 0.949 . S
C651 H646 0.950 . S
C651 C653 1.327 . S
C651 C657 1.429 . S
C652 C644 1.574 . S
C652 H647 0.949 . S
C652 C658 1.368 . S
C653 C637 1.349 . S
C653 H645 0.950 . S
C653 C651 1.327 . S
C654 C642 1.349 . S
C654 H648 0.950 . S
C654 C655 1.327 . S
C655 H649 0.950 . S
C655 C654 1.327 . S
C655 C659 1.429 . S
C656 C639 1.574 . S
C656 H650 0.949 . S
C656 C660 1.368 . S
C657 C638 1.429 . S
C657 C651 1.429 . S
C657 C658 1.523 . S
C658 C639 1.368 . S
C658 C652 1.368 . S
C658 C657 1.523 . S
C659 C643 1.429 . S
C659 C655 1.429 . S
C659 C660 1.523 . S
C660 C644 1.368 . S
C660 C656 1.368 . S
C660 C659 1.523 . S
H661 C636 0.950 . S
H662 C638 0.950 . S
H663 C639 0.949 . S
H664 C641 0.950 . S
H665 C643 0.950 . S
C666 C667 1.349 . S
C666 C668 1.327 . S
C666 H691 0.950 . S
C667 C666 1.349 . S
C667 C683 1.349 . S
C668 C666 1.327 . S
C668 C687 1.429 . S
C668 H692 0.950 . S
C669 C686 1.574 . S
C669 C688 1.368 . S
C669 H693 0.949 . S
H670 C674 0.949 . S
C671 C672 1.349 . S
C671 C673 1.327 . S
C671 H694 0.950 . S
C672 C671 1.349 . S
C672 C684 1.349 . S
C673 C671 1.327 . S
C673 C689 1.429 . S
C673 H695 0.950 . S
C674 H670 0.949 . S
C674 C682 1.574 . S
C674 C690 1.368 . S
H675 C683 0.950 . S
H676 C681 0.950 . S
H677 C682 0.949 . S
H678 C684 0.950 . S
H679 C685 0.950 . S
H680 C686 0.949 . S
C681 H676 0.950 . S
C681 C683 1.327 . S
C681 C687 1.429 . S
C682 C674 1.574 . S
C682 H677 0.949 . S
C682 C688 1.368 . S
C683 C667 1.349 . S
C683 H675 0.950 . S
C683 C681 1.327 . S
C684 C672 1.349 . S
C684 H678 0.950 . S
C684 C685 1.327 . S
C685 H679 0.950 . S
C685 C684 1.327 . S
C685 C689 1.429 . S
C686 C669 1.574 . S
C686 H680 0.949 . S
C686 C690 1.368 . S
C687 C668 1.429 . S
C687 C681 1.429 . S
C687 C688 1.523 . S
C688 C669 1.368 . S
C688 C682 1.368 . S
C688 C687 1.523 . S
C689 C673 1.429 . S
C689 C685 1.429 . S
C689 C690 1.523 . S
C690 C674 1.368 . S
C690 C686 1.368 . S
C690 C689 1.523 . S
H691 C666 0.950 . S
H692 C668 0.950 . S
H693 C669 0.949 . S
H694 C671 0.950 . S
H695 C673 0.950 . S
C696 C697 1.349 . S
C696 C698 1.327 . S
C696 H721 0.950 . S
C697 C696 1.349 . S
C697 C713 1.349 . S
C698 C696 1.327 . S
C698 C717 1.429 . S
C698 H722 0.950 . S
C699 C716 1.574 . S
C699 C718 1.368 . S
C699 H723 0.949 . S
H700 C704 0.949 . S
C701 C702 1.349 . S
C701 C703 1.327 . S
C701 H724 0.950 . S
C702 C701 1.349 . S
C702 C714 1.349 . S
C703 C701 1.327 . S
C703 C719 1.429 . S
C703 H725 0.950 . S
C704 H700 0.949 . S
C704 C712 1.574 . S
C704 C720 1.368 . S
H705 C713 0.950 . S
H706 C711 0.950 . S
H707 C712 0.949 . S
H708 C714 0.950 . S
H709 C715 0.950 . S
H710 C716 0.949 . S
C711 H706 0.950 . S
C711 C713 1.327 . S
C711 C717 1.429 . S
C712 C704 1.574 . S
C712 H707 0.949 . S
C712 C718 1.368 . S
C713 C697 1.349 . S
C713 H705 0.950 . S
C713 C711 1.327 . S
C714 C702 1.349 . S
C714 H708 0.950 . S
C714 C715 1.327 . S
C715 H709 0.950 . S
C715 C714 1.327 . S
C715 C719 1.429 . S
C716 C699 1.574 . S
C716 H710 0.949 . S
C716 C720 1.368 . S
C717 C698 1.429 . S
C717 C711 1.429 . S
C717 C718 1.523 . S
C718 C699 1.368 . S
C718 C712 1.368 . S
C718 C717 1.523 . S
C719 C703 1.429 . S
C719 C715 1.429 . S
C719 C720 1.523 . S
C720 C704 1.368 . S
C720 C716 1.368 . S
C720 C719 1.523 . S
H721 C696 0.950 . S
H722 C698 0.950 . S
H723 C699 0.949 . S
H724 C701 0.950 . S
H725 C703 0.950 . S
C726 C727 1.349 . S
C726 C728 1.327 . S
C726 H751 0.950 . S
C727 C726 1.349 . S
C727 C743 1.349 . S
C728 C726 1.327 . S
C728 C747 1.429 . S
C728 H752 0.950 . S
C729 C746 1.574 . S
C729 C748 1.368 . S
C729 H753 0.949 . S
H730 C734 0.949 . S
C731 C732 1.349 . S
C731 C733 1.327 . S
C731 H754 0.950 . S
C732 C731 1.349 . S
C732 C744 1.349 . S
C733 C731 1.327 . S
C733 C749 1.429 . S
C733 H755 0.950 . S
C734 H730 0.949 . S
C734 C742 1.574 . S
C734 C750 1.368 . S
H735 C743 0.950 . S
H736 C741 0.950 . S
H737 C742 0.949 . S
H738 C744 0.950 . S
H739 C745 0.950 . S
H740 C746 0.949 . S
C741 H736 0.950 . S
C741 C743 1.327 . S
C741 C747 1.429 . S
C742 C734 1.574 . S
C742 H737 0.949 . S
C742 C748 1.368 . S
C743 C727 1.349 . S
C743 H735 0.950 . S
C743 C741 1.327 . S
C744 C732 1.349 . S
C744 H738 0.950 . S
C744 C745 1.327 . S
C745 H739 0.950 . S
C745 C744 1.327 . S
C745 C749 1.429 . S
C746 C729 1.574 . S
C746 H740 0.949 . S
C746 C750 1.368 . S
C747 C728 1.429 . S
C747 C741 1.429 . S
C747 C748 1.523 . S
C748 C729 1.368 . S
C748 C742 1.368 . S
C748 C747 1.523 . S
C749 C733 1.429 . S
C749 C745 1.429 . S
C749 C750 1.523 . S
C750 C734 1.368 . S
C750 C746 1.368 . S
C750 C749 1.523 . S
H751 C726 0.950 . S
H752 C728 0.950 . S
H753 C729 0.949 . S
H754 C731 0.950 . S
H755 C733 0.950 . S
C756 C757 1.349 . S
C756 C758 1.327 . S
C756 H781 0.950 . S
C757 C756 1.349 . S
C757 C773 1.349 . S
C758 C756 1.327 . S
C758 C777 1.429 . S
C758 H782 0.950 . S
C759 C776 1.574 . S
C759 C778 1.368 . S
C759 H783 0.949 . S
H760 C764 0.949 . S
C761 C762 1.349 . S
C761 C763 1.327 . S
C761 H784 0.950 . S
C762 C761 1.349 . S
C762 C774 1.349 . S
C763 C761 1.327 . S
C763 C779 1.429 . S
C763 H785 0.950 . S
C764 H760 0.949 . S
C764 C772 1.574 . S
C764 C780 1.368 . S
H765 C773 0.950 . S
H766 C771 0.950 . S
H767 C772 0.949 . S
H768 C774 0.950 . S
H769 C775 0.950 . S
H770 C776 0.949 . S
C771 H766 0.950 . S
C771 C773 1.327 . S
C771 C777 1.429 . S
C772 C764 1.574 . S
C772 H767 0.949 . S
C772 C778 1.368 . S
C773 C757 1.349 . S
C773 H765 0.950 . S
C773 C771 1.327 . S
C774 C762 1.349 . S
C774 H768 0.950 . S
C774 C775 1.327 . S
C775 H769 0.950 . S
C775 C774 1.327 . S
C775 C779 1.429 . S
C776 C759 1.574 . S
C776 H770 0.949 . S
C776 C780 1.368 . S
C777 C758 1.429 . S
C777 C771 1.429 . S
C777 C778 1.523 . S
C778 C759 1.368 . S
C778 C772 1.368 . S
C778 C777 1.523 . S
C779 C763 1.429 . S
C779 C775 1.429 . S
C779 C780 1.523 . S
C780 C764 1.368 . S
C780 C776 1.368 . S
C780 C779 1.523 . S
H781 C756 0.950 . S
H782 C758 0.950 . S
H783 C759 0.949 . S
H784 C761 0.950 . S
H785 C763 0.950 . S
C786 C787 1.349 . S
C786 C788 1.327 . S
C786 H811 0.950 . S
C787 C786 1.349 . S
C787 C803 1.349 . S
C788 C786 1.327 . S
C788 C807 1.429 . S
C788 H812 0.950 . S
C789 C806 1.574 . S
C789 C808 1.368 . S
C789 H813 0.949 . S
H790 C794 0.949 . S
C791 C792 1.349 . S
C791 C793 1.327 . S
C791 H814 0.950 . S
C792 C791 1.349 . S
C792 C804 1.349 . S
C793 C791 1.327 . S
C793 C809 1.429 . S
C793 H815 0.950 . S
C794 H790 0.949 . S
C794 C802 1.574 . S
C794 C810 1.368 . S
H795 C803 0.950 . S
H796 C801 0.950 . S
H797 C802 0.949 . S
H798 C804 0.950 . S
H799 C805 0.950 . S
H800 C806 0.949 . S
C801 H796 0.950 . S
C801 C803 1.327 . S
C801 C807 1.429 . S
C802 C794 1.574 . S
C802 H797 0.949 . S
C802 C808 1.368 . S
C803 C787 1.349 . S
C803 H795 0.950 . S
C803 C801 1.327 . S
C804 C792 1.349 . S
C804 H798 0.950 . S
C804 C805 1.327 . S
C805 H799 0.950 . S
C805 C804 1.327 . S
C805 C809 1.429 . S
C806 C789 1.574 . S
C806 H800 0.949 . S
C806 C810 1.368 . S
C807 C788 1.429 . S
C807 C801 1.429 . S
C807 C808 1.523 . S
C808 C789 1.368 . S
C808 C802 1.368 . S
C808 C807 1.523 . S
C809 C793 1.429 . S
C809 C805 1.429 . S
C809 C810 1.523 . S
C810 C794 1.368 . S
C810 C806 1.368 . S
C810 C809 1.523 . S
H811 C786 0.950 . S
H812 C788 0.950 . S
H813 C789 0.949 . S
H814 C791 0.950 . S
H815 C793 0.950 . S
C816 C817 1.349 . S
C816 C818 1.327 . S
C816 H841 0.950 . S
C817 C816 1.349 . S
C817 C833 1.349 . S
C818 C816 1.327 . S
C818 C837 1.429 . S
C818 H842 0.950 . S
C819 C836 1.574 . S
C819 C838 1.368 . S
C819 H843 0.949 . S
H820 C824 0.949 . S
C821 C822 1.349 . S
C821 C823 1.327 . S
C821 H844 0.950 . S
C822 C821 1.349 . S
C822 C834 1.349 . S
C823 C821 1.327 . S
C823 C839 1.429 . S
C823 H845 0.950 . S
C824 H820 0.949 . S
C824 C832 1.574 . S
C824 C840 1.368 . S
H825 C833 0.950 . S
H826 C831 0.950 . S
H827 C832 0.949 . S
H828 C834 0.950 . S
H829 C835 0.950 . S
H830 C836 0.949 . S
C831 H826 0.950 . S
C831 C833 1.327 . S
C831 C837 1.429 . S
C832 C824 1.574 . S
C832 H827 0.949 . S
C832 C838 1.368 . S
C833 C817 1.349 . S
C833 H825 0.950 . S
C833 C831 1.327 . S
C834 C822 1.349 . S
C834 H828 0.950 . S
C834 C835 1.327 . S
C835 H829 0.950 . S
C835 C834 1.327 . S
C835 C839 1.429 . S
C836 C819 1.574 . S
C836 H830 0.949 . S
C836 C840 1.368 . S
C837 C818 1.429 . S
C837 C831 1.429 . S
C837 C838 1.523 . S
C838 C819 1.368 . S
C838 C832 1.368 . S
C838 C837 1.523 . S
C839 C823 1.429 . S
C839 C835 1.429 . S
C839 C840 1.523 . S
C840 C824 1.368 . S
C840 C836 1.368 . S
C840 C839 1.523 . S
H841 C816 0.950 . S
H842 C818 0.950 . S
H843 C819 0.949 . S
H844 C821 0.950 . S
H845 C823 0.950 . S
C846 C847 1.349 . S
C846 C848 1.327 . S
C846 H871 0.950 . S
C847 C846 1.349 . S
C847 C863 1.349 . S
C848 C846 1.327 . S
C848 C867 1.429 . S
C848 H872 0.950 . S
C849 C866 1.574 . S
C849 C868 1.368 . S
C849 H873 0.949 . S
H850 C854 0.949 . S
C851 C852 1.349 . S
C851 C853 1.327 . S
C851 H874 0.950 . S
C852 C851 1.349 . S
C852 C864 1.349 . S
C853 C851 1.327 . S
C853 C869 1.429 . S
C853 H875 0.950 . S
C854 H850 0.949 . S
C854 C862 1.574 . S
C854 C870 1.368 . S
H855 C863 0.950 . S
H856 C861 0.950 . S
H857 C862 0.949 . S
H858 C864 0.950 . S
H859 C865 0.950 . S
H860 C866 0.949 . S
C861 H856 0.950 . S
C861 C863 1.327 . S
C861 C867 1.429 . S
C862 C854 1.574 . S
C862 H857 0.949 . S
C862 C868 1.368 . S
C863 C847 1.349 . S
C863 H855 0.950 . S
C863 C861 1.327 . S
C864 C852 1.349 . S
C864 H858 0.950 . S
C864 C865 1.327 . S
C865 H859 0.950 . S
C865 C864 1.327 . S
C865 C869 1.429 . S
C866 C849 1.574 . S
C866 H860 0.949 . S
C866 C870 1.368 . S
C867 C848 1.429 . S
C867 C861 1.429 . S
C867 C868 1.523 . S
C868 C849 1.368 . S
C868 C862 1.368 . S
C868 C867 1.523 . S
C869 C853 1.429 . S
C869 C865 1.429 . S
C869 C870 1.523 . S
C870 C854 1.368 . S
C870 C866 1.368 . S
C870 C869 1.523 . S
H871 C846 0.950 . S
H872 C848 0.950 . S
H873 C849 0.949 . S
H874 C851 0.950 . S
H875 C853 0.950 . S
C876 C877 1.349 . S
C876 C878 1.327 . S
C876 H901 0.950 . S
C877 C876 1.349 . S
C877 C893 1.349 . S
C878 C876 1.327 . S
C878 C897 1.429 . S
C878 H902 0.950 . S
C879 C896 1.574 . S
C879 C898 1.368 . S
C879 H903 0.949 . S
H880 C884 0.949 . S
C881 C882 1.349 . S
C881 C883 1.327 . S
C881 H904 0.950 . S
C882 C881 1.349 . S
C882 C894 1.349 . S
C883 C881 1.327 . S
C883 C899 1.429 . S
C883 H905 0.950 . S
C884 H880 0.949 . S
C884 C892 1.574 . S
C884 C900 1.368 . S
H885 C893 0.950 . S
H886 C891 0.950 . S
H887 C892 0.949 . S
H888 C894 0.950 . S
H889 C895 0.950 . S
H890 C896 0.949 . S
C891 H886 0.950 . S
C891 C893 1.327 . S
C891 C897 1.429 . S
C892 C884 1.574 . S
C892 H887 0.949 . S
C892 C898 1.368 . S
C893 C877 1.349 . S
C893 H885 0.950 . S
C893 C891 1.327 . S
C894 C882 1.349 . S
C894 H888 0.950 . S
C894 C895 1.327 . S
C895 H889 0.950 . S
C895 C894 1.327 . S
C895 C899 1.429 . S
C896 C879 1.574 . S
C896 H890 0.949 . S
C896 C900 1.368 . S
C897 C878 1.429 . S
C897 C891 1.429 . S
C897 C898 1.523 . S
C898 C879 1.368 . S
C898 C892 1.368 . S
C898 C897 1.523 . S
C899 C883 1.429 . S
C899 C895 1.429 . S
C899 C900 1.523 . S
C900 C884 1.368 . S
C900 C896 1.368 . S
C900 C899 1.523 . S
H901 C876 0.950 . S
H902 C878 0.950 . S
H903 C879 0.949 . S
H904 C881 0.950 . S
H905 C883 0.950 . S
C906 C907 1.349 . S
C906 C908 1.327 . S
C906 H931 0.950 . S
C907 C906 1.349 . S
C907 C923 1.349 . S
C908 C906 1.327 . S
C908 C927 1.429 . S
C908 H932 0.950 . S
C909 C926 1.574 . S
C909 C928 1.368 . S
C909 H933 0.949 . S
H910 C914 0.949 . S
C911 C912 1.349 . S
C911 C913 1.327 . S
C911 H934 0.950 . S
C912 C911 1.349 . S
C912 C924 1.349 . S
C913 C911 1.327 . S
C913 C929 1.429 . S
C913 H935 0.950 . S
C914 H910 0.949 . S
C914 C922 1.574 . S
C914 C930 1.368 . S
H915 C923 0.950 . S
H916 C921 0.950 . S
H917 C922 0.949 . S
H918 C924 0.950 . S
H919 C925 0.950 . S
H920 C926 0.949 . S
C921 H916 0.950 . S
C921 C923 1.327 . S
C921 C927 1.429 . S
C922 C914 1.574 . S
C922 H917 0.949 . S
C922 C928 1.368 . S
C923 C907 1.349 . S
C923 H915 0.950 . S
C923 C921 1.327 . S
C924 C912 1.349 . S
C924 H918 0.950 . S
C924 C925 1.327 . S
C925 H919 0.950 . S
C925 C924 1.327 . S
C925 C929 1.429 . S
C926 C909 1.574 . S
C926 H920 0.949 . S
C926 C930 1.368 . S
C927 C908 1.429 . S
C927 C921 1.429 . S
C927 C928 1.523 . S
C928 C909 1.368 . S
C928 C922 1.368 . S
C928 C927 1.523 . S
C929 C913 1.429 . S
C929 C925 1.429 . S
C929 C930 1.523 . S
C930 C914 1.368 . S
C930 C926 1.368 . S
C930 C929 1.523 . S
H931 C906 0.950 . S
H932 C908 0.950 . S
H933 C909 0.949 . S
H934 C911 0.950 . S
H935 C913 0.950 . S
C936 C937 1.349 . S
C936 C938 1.327 . S
C936 H961 0.950 . S
C937 C936 1.349 . S
C937 C953 1.349 . S
C938 C936 1.327 . S
C938 C957 1.429 . S
C938 H962 0.950 . S
C939 C956 1.574 . S
C939 C958 1.368 . S
C939 H963 0.949 . S
H940 C944 0.949 . S
C941 C942 1.349 . S
C941 C943 1.327 . S
C941 H964 0.950 . S
C942 C941 1.349 . S
C942 C954 1.349 . S
C943 C941 1.327 . S
C943 C959 1.429 . S
C943 H965 0.950 . S
C944 H940 0.949 . S
C944 C952 1.574 . S
C944 C960 1.368 . S
H945 C953 0.950 . S
H946 C951 0.950 . S
H947 C952 0.949 . S
H948 C954 0.950 . S
H949 C955 0.950 . S
H950 C956 0.949 . S
C951 H946 0.950 . S
C951 C953 1.327 . S
C951 C957 1.429 . S
C952 C944 1.574 . S
C952 H947 0.949 . S
C952 C958 1.368 . S
C953 C937 1.349 . S
C953 H945 0.950 . S
C953 C951 1.327 . S
C954 C942 1.349 . S
C954 H948 0.950 . S
C954 C955 1.327 . S
C955 H949 0.950 . S
C955 C954 1.327 . S
C955 C959 1.429 . S
C956 C939 1.574 . S
C956 H950 0.949 . S
C956 C960 1.368 . S
C957 C938 1.429 . S
C957 C951 1.429 . S
C957 C958 1.523 . S
C958 C939 1.368 . S
C958 C952 1.368 . S
C958 C957 1.523 . S
C959 C943 1.429 . S
C959 C955 1.429 . S
C959 C960 1.523 . S
C960 C944 1.368 . S
C960 C956 1.368 . S
C960 C959 1.523 . S
H961 C936 0.950 . S
H962 C938 0.950 . S
H963 C939 0.949 . S
H964 C941 0.950 . S
H965 C943 0.950 . S
C966 C967 1.349 . S
C966 C968 1.327 . S
C966 H991 0.950 . S
C967 C966 1.349 . S
C967 C983 1.349 . S
C968 C966 1.327 . S
C968 C987 1.429 . S
C968 H992 0.950 . S
C969 C986 1.574 . S
C969 C988 1.368 . S
C969 H993 0.949 . S
H970 C974 0.949 . S
C971 C972 1.349 . S
C971 C973 1.327 . S
C971 H994 0.950 . S
C972 C971 1.349 . S
C972 C984 1.349 . S
C973 C971 1.327 . S
C973 C989 1.429 . S
C973 H995 0.950 . S
C974 H970 0.949 . S
C974 C982 1.574 . S
C974 C990 1.368 . S
H975 C983 0.950 . S
H976 C981 0.950 . S
H977 C982 0.949 . S
H978 C984 0.950 . S
H979 C985 0.950 . S
H980 C986 0.949 . S
C981 H976 0.950 . S
C981 C983 1.327 . S
C981 C987 1.429 . S
C982 C974 1.574 . S
C982 H977 0.949 . S
C982 C988 1.368 . S
C983 C967 1.349 . S
C983 H975 0.950 . S
C983 C981 1.327 . S
C984 C972 1.349 . S
C984 H978 0.950 . S
C984 C985 1.327 . S
C985 H979 0.950 . S
C985 C984 1.327 . S
C985 C989 1.429 . S
C986 C969 1.574 . S
C986 H980 0.949 . S
C986 C990 1.368 . S
C987 C968 1.429 . S
C987 C981 1.429 . S
C987 C988 1.523 . S
C988 C969 1.368 . S
C988 C982 1.368 . S
C988 C987 1.523 . S
C989 C973 1.429 . S
C989 C985 1.429 . S
C989 C990 1.523 . S
C990 C974 1.368 . S
C990 C986 1.368 . S
C990 C989 1.523 . S
H991 C966 0.950 . S
H992 C968 0.950 . S
H993 C969 0.949 . S
H994 C971 0.950 . S
H995 C973 0.950 . S
C996 C997 1.349 . S
C996 C998 1.327 . S
C996 H1021 0.950 . S
C997 C996 1.349 . S
C997 C1013 1.349 . S
C998 C996 1.327 . S
C998 C1017 1.429 . S
C998 H1022 0.950 . S
C999 C1016 1.574 . S
C999 C1018 1.368 . S
C999 H1023 0.949 . S
H1000 C1004 0.949 . S
C1001 C1002 1.349 . S
C1001 C1003 1.327 . S
C1001 H1024 0.950 . S
C1002 C1001 1.349 . S
C1002 C1014 1.349 . S
C1003 C1001 1.327 . S
C1003 C1019 1.429 . S
C1003 H1025 0.950 . S
C1004 H1000 0.949 . S
C1004 C1012 1.574 . S
C1004 C1020 1.368 . S
H1005 C1013 0.950 . S
H1006 C1011 0.950 . S
H1007 C1012 0.949 . S
H1008 C1014 0.950 . S
H1009 C1015 0.950 . S
H1010 C1016 0.949 . S
C1011 H1006 0.950 . S
C1011 C1013 1.327 . S
C1011 C1017 1.429 . S
C1012 C1004 1.574 . S
C1012 H1007 0.949 . S
C1012 C1018 1.368 . S
C1013 C997 1.349 . S
C1013 H1005 0.950 . S
C1013 C1011 1.327 . S
C1014 C1002 1.349 . S
C1014 H1008 0.950 . S
C1014 C1015 1.327 . S
C1015 H1009 0.950 . S
C1015 C1014 1.327 . S
C1015 C1019 1.429 . S
C1016 C999 1.574 . S
C1016 H1010 0.949 . S
C1016 C1020 1.368 . S
C1017 C998 1.429 . S
C1017 C1011 1.429 . S
C1017 C1018 1.523 . S
C1018 C999 1.368 . S
C1018 C1012 1.368 . S
C1018 C1017 1.523 . S
C1019 C1003 1.429 . S
C1019 C1015 1.429 . S
C1019 C1020 1.523 . S
C1020 C1004 1.368 . S
C1020 C1016 1.368 . S
C1020 C1019 1.523 . S
H1021 C996 0.950 . S
H1022 C998 0.950 . S
H1023 C999 0.949 . S
H1024 C1001 0.950 . S
H1025 C1003 0.950 . S
C1026 C1027 1.349 . S
C1026 C1028 1.327 . S
C1026 H1051 0.950 . S
C1027 C1026 1.349 . S
C1027 C1043 1.349 . S
C1028 C1026 1.327 . S
C1028 C1047 1.429 . S
C1028 H1052 0.950 . S
C1029 C1046 1.574 . S
C1029 C1048 1.368 . S
C1029 H1053 0.949 . S
H1030 C1034 0.949 . S
C1031 C1032 1.349 . S
C1031 C1033 1.327 . S
C1031 H1054 0.950 . S
C1032 C1031 1.349 . S
C1032 C1044 1.349 . S
C1033 C1031 1.327 . S
C1033 C1049 1.429 . S
C1033 H1055 0.950 . S
C1034 H1030 0.949 . S
C1034 C1042 1.574 . S
C1034 C1050 1.368 . S
H1035 C1043 0.950 . S
H1036 C1041 0.950 . S
H1037 C1042 0.949 . S
H1038 C1044 0.950 . S
H1039 C1045 0.950 . S
H1040 C1046 0.949 . S
C1041 H1036 0.950 . S
C1041 C1043 1.327 . S
C1041 C1047 1.429 . S
C1042 C1034 1.574 . S
C1042 H1037 0.949 . S
C1042 C1048 1.368 . S
C1043 C1027 1.349 . S
C1043 H1035 0.950 . S
C1043 C1041 1.327 . S
C1044 C1032 1.349 . S
C1044 H1038 0.950 . S
C1044 C1045 1.327 . S
C1045 H1039 0.950 . S
C1045 C1044 1.327 . S
C1045 C1049 1.429 . S
C1046 C1029 1.574 . S
C1046 H1040 0.949 . S
C1046 C1050 1.368 . S
C1047 C1028 1.429 . S
C1047 C1041 1.429 . S
C1047 C1048 1.523 . S
C1048 C1029 1.368 . S
C1048 C1042 1.368 . S
C1048 C1047 1.523 . S
C1049 C1033 1.429 . S
C1049 C1045 1.429 . S
C1049 C1050 1.523 . S
C1050 C1034 1.368 . S
C1050 C1046 1.368 . S
C1050 C1049 1.523 . S
H1051 C1026 0.950 . S
H1052 C1028 0.950 . S
H1053 C1029 0.949 . S
H1054 C1031 0.950 . S
H1055 C1033 0.950 . S
C1056 C1057 1.349 . S
C1056 C1058 1.327 . S
C1056 H1081 0.950 . S
C1057 C1056 1.349 . S
C1057 C1073 1.349 . S
C1058 C1056 1.327 . S
C1058 C1077 1.429 . S
C1058 H1082 0.950 . S
C1059 C1076 1.574 . S
C1059 C1078 1.368 . S
C1059 H1083 0.949 . S
H1060 C1064 0.949 . S
C1061 C1062 1.349 . S
C1061 C1063 1.327 . S
C1061 H1084 0.950 . S
C1062 C1061 1.349 . S
C1062 C1074 1.349 . S
C1063 C1061 1.327 . S
C1063 C1079 1.429 . S
C1063 H1085 0.950 . S
C1064 H1060 0.949 . S
C1064 C1072 1.574 . S
C1064 C1080 1.368 . S
H1065 C1073 0.950 . S
H1066 C1071 0.950 . S
H1067 C1072 0.949 . S
H1068 C1074 0.950 . S
H1069 C1075 0.950 . S
H1070 C1076 0.949 . S
C1071 H1066 0.950 . S
C1071 C1073 1.327 . S
C1071 C1077 1.429 . S
C1072 C1064 1.574 . S
C1072 H1067 0.949 . S
C1072 C1078 1.368 . S
C1073 C1057 1.349 . S
C1073 H1065 0.950 . S
C1073 C1071 1.327 . S
C1074 C1062 1.349 . S
C1074 H1068 0.950 . S
C1074 C1075 1.327 . S
C1075 H1069 0.950 . S
C1075 C1074 1.327 . S
C1075 C1079 1.429 . S
C1076 C1059 1.574 . S
C1076 H1070 0.949 . S
C1076 C1080 1.368 . S
C1077 C1058 1.429 . S
C1077 C1071 1.429 . S
C1077 C1078 1.523 . S
C1078 C1059 1.368 . S
C1078 C1072 1.368 . S
C1078 C1077 1.523 . S
C1079 C1063 1.429 . S
C1079 C1075 1.429 . S
C1079 C1080 1.523 . S
C1080 C1064 1.368 . S
C1080 C1076 1.368 . S
C1080 C1079 1.523 . S
H1081 C1056 0.950 . S
H1082 C1058 0.950 . S
H1083 C1059 0.949 . S
H1084 C1061 0.950 . S
H1085 C1063 0.950 . S
C1086 C1087 1.349 . S
C1086 C1088 1.327 . S
C1086 H1111 0.950 . S
C1087 C1086 1.349 . S
C1087 C1103 1.349 . S
C1088 C1086 1.327 . S
C1088 C1107 1.429 . S
C1088 H1112 0.950 . S
C1089 C1106 1.574 . S
C1089 C1108 1.368 . S
C1089 H1113 0.949 . S
H1090 C1094 0.949 . S
C1091 C1092 1.349 . S
C1091 C1093 1.327 . S
C1091 H1114 0.950 . S
C1092 C1091 1.349 . S
C1092 C1104 1.349 . S
C1093 C1091 1.327 . S
C1093 C1109 1.429 . S
C1093 H1115 0.950 . S
C1094 H1090 0.949 . S
C1094 C1102 1.574 . S
C1094 C1110 1.368 . S
H1095 C1103 0.950 . S
H1096 C1101 0.950 . S
H1097 C1102 0.949 . S
H1098 C1104 0.950 . S
H1099 C1105 0.950 . S
H1100 C1106 0.949 . S
C1101 H1096 0.950 . S
C1101 C1103 1.327 . S
C1101 C1107 1.429 . S
C1102 C1094 1.574 . S
C1102 H1097 0.949 . S
C1102 C1108 1.368 . S
C1103 C1087 1.349 . S
C1103 H1095 0.950 . S
C1103 C1101 1.327 . S
C1104 C1092 1.349 . S
C1104 H1098 0.950 . S
C1104 C1105 1.327 . S
C1105 H1099 0.950 . S
C1105 C1104 1.327 . S
C1105 C1109 1.429 . S
C1106 C1089 1.574 . S
C1106 H1100 0.949 . S
C1106 C1110 1.368 . S
C1107 C1088 1.429 . S
C1107 C1101 1.429 . S
C1107 C1108 1.523 . S
C1108 C1089 1.368 . S
C1108 C1102 1.368 . S
C1108 C1107 1.523 . S
C1109 C1093 1.429 . S
C1109 C1105 1.429 . S
C1109 C1110 1.523 . S
C1110 C1094 1.368 . S
C1110 C1106 1.368 . S
C1110 C1109 1.523 . S
H1111 C1086 0.950 . S
H1112 C1088 0.950 . S
H1113 C1089 0.949 . S
H1114 C1091 0.950 . S
H1115 C1093 0.950 . S
C1116 C1117 1.349 . S
C1116 C1118 1.327 . S
C1116 H1141 0.950 . S
C1117 C1116 1.349 . S
C1117 C1133 1.349 . S
C1118 C1116 1.327 . S
C1118 C1137 1.429 . S
C1118 H1142 0.950 . S
C1119 C1136 1.574 . S
C1119 C1138 1.368 . S
C1119 H1143 0.949 . S
H1120 C1124 0.949 . S
C1121 C1122 1.349 . S
C1121 C1123 1.327 . S
C1121 H1144 0.950 . S
C1122 C1121 1.349 . S
C1122 C1134 1.349 . S
C1123 C1121 1.327 . S
C1123 C1139 1.429 . S
C1123 H1145 0.950 . S
C1124 H1120 0.949 . S
C1124 C1132 1.574 . S
C1124 C1140 1.368 . S
H1125 C1133 0.950 . S
H1126 C1131 0.950 . S
H1127 C1132 0.949 . S
H1128 C1134 0.950 . S
H1129 C1135 0.950 . S
H1130 C1136 0.949 . S
C1131 H1126 0.950 . S
C1131 C1133 1.327 . S
C1131 C1137 1.429 . S
C1132 C1124 1.574 . S
C1132 H1127 0.949 . S
C1132 C1138 1.368 . S
C1133 C1117 1.349 . S
C1133 H1125 0.950 . S
C1133 C1131 1.327 . S
C1134 C1122 1.349 . S
C1134 H1128 0.950 . S
C1134 C1135 1.327 . S
C1135 H1129 0.950 . S
C1135 C1134 1.327 . S
C1135 C1139 1.429 . S
C1136 C1119 1.574 . S
C1136 H1130 0.949 . S
C1136 C1140 1.368 . S
C1137 C1118 1.429 . S
C1137 C1131 1.429 . S
C1137 C1138 1.523 . S
C1138 C1119 1.368 . S
C1138 C1132 1.368 . S
C1138 C1137 1.523 . S
C1139 C1123 1.429 . S
C1139 C1135 1.429 . S
C1139 C1140 1.523 . S
C1140 C1124 1.368 . S
C1140 C1136 1.368 . S
C1140 C1139 1.523 . S
H1141 C1116 0.950 . S
H1142 C1118 0.950 . S
H1143 C1119 0.949 . S
H1144 C1121 0.950 . S
H1145 C1123 0.950 . S
C1146 C1147 1.349 . S
C1146 C1148 1.327 . S
C1146 H1171 0.950 . S
C1147 C1146 1.349 . S
C1147 C1163 1.349 . S
C1148 C1146 1.327 . S
C1148 C1167 1.429 . S
C1148 H1172 0.950 . S
C1149 C1166 1.574 . S
C1149 C1168 1.368 . S
C1149 H1173 0.949 . S
H1150 C1154 0.949 . S
C1151 C1152 1.349 . S
C1151 C1153 1.327 . S
C1151 H1174 0.950 . S
C1152 C1151 1.349 . S
C1152 C1164 1.349 . S
C1153 C1151 1.327 . S
C1153 C1169 1.429 . S
C1153 H1175 0.950 . S
C1154 H1150 0.949 . S
C1154 C1162 1.574 . S
C1154 C1170 1.368 . S
H1155 C1163 0.950 . S
H1156 C1161 0.950 . S
H1157 C1162 0.949 . S
H1158 C1164 0.950 . S
H1159 C1165 0.950 . S
H1160 C1166 0.949 . S
C1161 H1156 0.950 . S
C1161 C1163 1.327 . S
C1161 C1167 1.429 . S
C1162 C1154 1.574 . S
C1162 H1157 0.949 . S
C1162 C1168 1.368 . S
C1163 C1147 1.349 . S
C1163 H1155 0.950 . S
C1163 C1161 1.327 . S
C1164 C1152 1.349 . S
C1164 H1158 0.950 . S
C1164 C1165 1.327 . S
C1165 H1159 0.950 . S
C1165 C1164 1.327 . S
C1165 C1169 1.429 . S
C1166 C1149 1.574 . S
C1166 H1160 0.949 . S
C1166 C1170 1.368 . S
C1167 C1148 1.429 . S
C1167 C1161 1.429 . S
C1167 C1168 1.523 . S
C1168 C1149 1.368 . S
C1168 C1162 1.368 . S
C1168 C1167 1.523 . S
C1169 C1153 1.429 . S
C1169 C1165 1.429 . S
C1169 C1170 1.523 . S
C1170 C1154 1.368 . S
C1170 C1166 1.368 . S
C1170 C1169 1.523 . S
H1171 C1146 0.950 . S
H1172 C1148 0.950 . S
H1173 C1149 0.949 . S
H1174 C1151 0.950 . S
H1175 C1153 0.950 . S
C1176 C1177 1.349 . S
C1176 C1178 1.327 . S
C1176 H1201 0.950 . S
C1177 C1176 1.349 . S
C1177 C1193 1.349 . S
C1178 C1176 1.327 . S
C1178 C1197 1.429 . S
C1178 H1202 0.950 . S
C1179 C1196 1.574 . S
C1179 C1198 1.368 . S
C1179 H1203 0.949 . S
H1180 C1184 0.949 . S
C1181 C1182 1.349 . S
C1181 C1183 1.327 . S
C1181 H1204 0.950 . S
C1182 C1181 1.349 . S
C1182 C1194 1.349 . S
C1183 C1181 1.327 . S
C1183 C1199 1.429 . S
C1183 H1205 0.950 . S
C1184 H1180 0.949 . S
C1184 C1192 1.574 . S
C1184 C1200 1.368 . S
H1185 C1193 0.950 . S
H1186 C1191 0.950 . S
H1187 C1192 0.949 . S
H1188 C1194 0.950 . S
H1189 C1195 0.950 . S
H1190 C1196 0.949 . S
C1191 H1186 0.950 . S
C1191 C1193 1.327 . S
C1191 C1197 1.429 . S
C1192 C1184 1.574 . S
C1192 H1187 0.949 . S
C1192 C1198 1.368 . S
C1193 C1177 1.349 . S
C1193 H1185 0.950 . S
C1193 C1191 1.327 . S
C1194 C1182 1.349 . S
C1194 H1188 0.950 . S
C1194 C1195 1.327 . S
C1195 H1189 0.950 . S
C1195 C1194 1.327 . S
C1195 C1199 1.429 . S
C1196 C1179 1.574 . S
C1196 H1190 0.949 . S
C1196 C1200 1.368 . S
C1197 C1178 1.429 . S
C1197 C1191 1.429 . S
C1197 C1198 1.523 . S
C1198 C1179 1.368 . S
C1198 C1192 1.368 . S
C1198 C1197 1.523 . S
C1199 C1183 1.429 . S
C1199 C1195 1.429 . S
C1199 C1200 1.523 . S
C1200 C1184 1.368 . S
C1200 C1196 1.368 . S
C1200 C1199 1.523 . S
H1201 C1176 0.950 . S
H1202 C1178 0.950 . S
H1203 C1179 0.949 . S
H1204 C1181 0.950 . S
H1205 C1183 0.950 . S
C1206 C1207 1.349 . S
C1206 C1208 1.327 . S
C1206 H1231 0.950 . S
C1207 C1206 1.349 . S
C1207 C1223 1.349 . S
C1208 C1206 1.327 . S
C1208 C1227 1.429 . S
C1208 H1232 0.950 . S
C1209 C1226 1.574 . S
C1209 C1228 1.368 . S
C1209 H1233 0.949 . S
H1210 C1214 0.949 . S
C1211 C1212 1.349 . S
C1211 C1213 1.327 . S
C1211 H1234 0.950 . S
C1212 C1211 1.349 . S
C1212 C1224 1.349 . S
C1213 C1211 1.327 . S
C1213 C1229 1.429 . S
C1213 H1235 0.950 . S
C1214 H1210 0.949 . S
C1214 C1222 1.574 . S
C1214 C1230 1.368 . S
H1215 C1223 0.950 . S
H1216 C1221 0.950 . S
H1217 C1222 0.949 . S
H1218 C1224 0.950 . S
H1219 C1225 0.950 . S
H1220 C1226 0.949 . S
C1221 H1216 0.950 . S
C1221 C1223 1.327 . S
C1221 C1227 1.429 . S
C1222 C1214 1.574 . S
C1222 H1217 0.949 . S
C1222 C1228 1.368 . S
C1223 C1207 1.349 . S
C1223 H1215 0.950 . S
C1223 C1221 1.327 . S
C1224 C1212 1.349 . S
C1224 H1218 0.950 . S
C1224 C1225 1.327 . S
C1225 H1219 0.950 . S
C1225 C1224 1.327 . S
C1225 C1229 1.429 . S
C1226 C1209 1.574 . S
C1226 H1220 0.949 . S
C1226 C1230 1.368 . S
C1227 C1208 1.429 . S
C1227 C1221 1.429 . S
C1227 C1228 1.523 . S
C1228 C1209 1.368 . S
C1228 C1222 1.368 . S
C1228 C1227 1.523 . S
C1229 C1213 1.429 . S
C1229 C1225 1.429 . S
C1229 C1230 1.523 . S
C1230 C1214 1.368 . S
C1230 C1226 1.368 . S
C1230 C1229 1.523 . S
H1231 C1206 0.950 . S
H1232 C1208 0.950 . S
H1233 C1209 0.949 . S
H1234 C1211 0.950 . S
H1235 C1213 0.950 . S
C1236 C1237 1.349 . S
C1236 C1238 1.327 . S
C1236 H1261 0.950 . S
C1237 C1236 1.349 . S
C1237 C1253 1.349 . S
C1238 C1236 1.327 . S
C1238 C1257 1.429 . S
C1238 H1262 0.950 . S
C1239 C1256 1.574 . S
C1239 C1258 1.368 . S
C1239 H1263 0.949 . S
H1240 C1244 0.949 . S
C1241 C1242 1.349 . S
C1241 C1243 1.327 . S
C1241 H1264 0.950 . S
C1242 C1241 1.349 . S
C1242 C1254 1.349 . S
C1243 C1241 1.327 . S
C1243 C1259 1.429 . S
C1243 H1265 0.950 . S
C1244 H1240 0.949 . S
C1244 C1252 1.574 . S
C1244 C1260 1.368 . S
H1245 C1253 0.950 . S
H1246 C1251 0.950 . S
H1247 C1252 0.949 . S
H1248 C1254 0.950 . S
H1249 C1255 0.950 . S
H1250 C1256 0.949 . S
C1251 H1246 0.950 . S
C1251 C1253 1.327 . S
C1251 C1257 1.429 . S
C1252 C1244 1.574 . S
C1252 H1247 0.949 . S
C1252 C1258 1.368 . S
C1253 C1237 1.349 . S
C1253 H1245 0.950 . S
C1253 C1251 1.327 . S
C1254 C1242 1.349 . S
C1254 H1248 0.950 . S
C1254 C1255 1.327 . S
C1255 H1249 0.950 . S
C1255 C1254 1.327 . S
C1255 C1259 1.429 . S
C1256 C1239 1.574 . S
C1256 H1250 0.949 . S
C1256 C1260 1.368 . S
C1257 C1238 1.429 . S
C1257 C1251 1.429 . S
C1257 C1258 1.523 . S
C1258 C1239 1.368 . S
C1258 C1252 1.368 . S
C1258 C1257 1.523 . S
C1259 C1243 1.429 . S
C1259 C1255 1.429 . S
C1259 C1260 1.523 . S
C1260 C1244 1.368 . S
C1260 C1256 1.368 . S
C1260 C1259 1.523 . S
H1261 C1236 0.950 . S
H1262 C1238 0.950 . S
H1263 C1239 0.949 . S
H1264 C1241 0.950 . S
H1265 C1243 0.950 . S
C1266 C1267 1.349 . S
C1266 C1268 1.327 . S
C1266 H1291 0.950 . S
C1267 C1266 1.349 . S
C1267 C1283 1.349 . S
C1268 C1266 1.327 . S
C1268 C1287 1.429 . S
C1268 H1292 0.950 . S
C1269 C1286 1.574 . S
C1269 C1288 1.368 . S
C1269 H1293 0.949 . S
H1270 C1274 0.949 . S
C1271 C1272 1.349 . S
C1271 C1273 1.327 . S
C1271 H1294 0.950 . S
C1272 C1271 1.349 . S
C1272 C1284 1.349 . S
C1273 C1271 1.327 . S
C1273 C1289 1.429 . S
C1273 H1295 0.950 . S
C1274 H1270 0.949 . S
C1274 C1282 1.574 . S
C1274 C1290 1.368 . S
H1275 C1283 0.950 . S
H1276 C1281 0.950 . S
H1277 C1282 0.949 . S
H1278 C1284 0.950 . S
H1279 C1285 0.950 . S
H1280 C1286 0.949 . S
C1281 H1276 0.950 . S
C1281 C1283 1.327 . S
C1281 C1287 1.429 . S
C1282 C1274 1.574 . S
C1282 H1277 0.949 . S
C1282 C1288 1.368 . S
C1283 C1267 1.349 . S
C1283 H1275 0.950 . S
C1283 C1281 1.327 . S
C1284 C1272 1.349 . S
C1284 H1278 0.950 . S
C1284 C1285 1.327 . S
C1285 H1279 0.950 . S
C1285 C1284 1.327 . S
C1285 C1289 1.429 . S
C1286 C1269 1.574 . S
C1286 H1280 0.949 . S
C1286 C1290 1.368 . S
C1287 C1268 1.429 . S
C1287 C1281 1.429 . S
C1287 C1288 1.523 . S
C1288 C1269 1.368 . S
C1288 C1282 1.368 . S
C1288 C1287 1.523 . S
C1289 C1273 1.429 . S
C1289 C1285 1.429 . S
C1289 C1290 1.523 . S
C1290 C1274 1.368 . S
C1290 C1286 1.368 . S
C1290 C1289 1.523 . S
H1291 C1266 0.950 . S
H1292 C1268 0.950 . S
H1293 C1269 0.949 . S
H1294 C1271 0.950 . S
H1295 C1273 0.950 . S
C1296 C1297 1.349 . S
C1296 C1298 1.327 1_455 S
C1296 H1321 0.950 1_455 S
C1297 C1296 1.349 . S
C1297 C1313 1.349 . S
C1298 C1296 1.327 1_655 S
C1298 C1317 1.429 1_655 S
C1298 H1322 0.950 . S
C1299 C1316 1.574 . S
C1299 C1318 1.368 . S
C1299 H1323 0.949 . S
H1300 C1304 0.949 . S
C1301 C1302 1.349 . S
C1301 C1303 1.327 1_655 S
C1301 H1324 0.950 1_655 S
C1302 C1301 1.349 . S
C1302 C1314 1.349 . S
C1303 C1301 1.327 1_455 S
C1303 C1319 1.429 1_455 S
C1303 H1325 0.950 . S
C1304 H1300 0.949 . S
C1304 C1312 1.574 . S
C1304 C1320 1.368 . S
H1305 C1313 0.950 . S
H1306 C1311 0.950 . S
H1307 C1312 0.949 . S
H1308 C1314 0.950 . S
H1309 C1315 0.950 . S
H1310 C1316 0.949 . S
C1311 H1306 0.950 . S
C1311 C1313 1.327 . S
C1311 C1317 1.429 . S
C1312 C1304 1.574 . S
C1312 H1307 0.949 . S
C1312 C1318 1.368 1_655 S
C1313 C1297 1.349 . S
C1313 H1305 0.950 . S
C1313 C1311 1.327 . S
C1314 C1302 1.349 . S
C1314 H1308 0.950 . S
C1314 C1315 1.327 . S
C1315 H1309 0.950 . S
C1315 C1314 1.327 . S
C1315 C1319 1.429 . S
C1316 C1299 1.574 . S
C1316 H1310 0.949 . S
C1316 C1320 1.368 1_455 S
C1317 C1298 1.429 1_455 S
C1317 C1311 1.429 . S
C1317 C1318 1.523 . S
C1318 C1299 1.368 . S
C1318 C1312 1.368 1_455 S
C1318 C1317 1.523 . S
C1319 C1303 1.429 1_655 S
C1319 C1315 1.429 . S
C1319 C1320 1.523 . S
C1320 C1304 1.368 . S
C1320 C1316 1.368 1_655 S
C1320 C1319 1.523 . S
H1321 C1296 0.950 1_655 S
H1322 C1298 0.950 . S
H1323 C1299 0.949 . S
H1324 C1301 0.950 1_455 S
H1325 C1303 0.950 . S
C1326 C1327 1.349 1_545 S
C1326 C1328 1.327 . S
C1326 H1351 0.950 . S
C1327 C1326 1.349 1_565 S
C1327 C1343 1.349 . S
C1328 C1326 1.327 . S
C1328 C1347 1.429 1_545 S
C1328 H1352 0.950 . S
C1329 C1346 1.574 . S
C1329 C1348 1.368 . S
C1329 H1353 0.949 . S
H1330 C1334 0.949 . S
C1331 C1332 1.349 1_565 S
C1331 C1333 1.327 . S
C1331 H1354 0.950 . S
C1332 C1331 1.349 1_545 S
C1332 C1344 1.349 . S
C1333 C1331 1.327 . S
C1333 C1349 1.429 1_565 S
C1333 H1355 0.950 . S
C1334 H1330 0.949 . S
C1334 C1342 1.574 . S
C1334 C1350 1.368 . S
H1335 C1343 0.950 . S
H1336 C1341 0.950 . S
H1337 C1342 0.949 . S
H1338 C1344 0.950 . S
H1339 C1345 0.950 . S
H1340 C1346 0.949 . S
C1341 H1336 0.950 . S
C1341 C1343 1.327 . S
C1341 C1347 1.429 . S
C1342 C1334 1.574 . S
C1342 H1337 0.949 . S
C1342 C1348 1.368 1_545 S
C1343 C1327 1.349 . S
C1343 H1335 0.950 . S
C1343 C1341 1.327 . S
C1344 C1332 1.349 . S
C1344 H1338 0.950 . S
C1344 C1345 1.327 . S
C1345 H1339 0.950 . S
C1345 C1344 1.327 . S
C1345 C1349 1.429 . S
C1346 C1329 1.574 . S
C1346 H1340 0.949 . S
C1346 C1350 1.368 1_565 S
C1347 C1328 1.429 1_565 S
C1347 C1341 1.429 . S
C1347 C1348 1.523 . S
C1348 C1329 1.368 . S
C1348 C1342 1.368 1_565 S
C1348 C1347 1.523 . S
C1349 C1333 1.429 1_545 S
C1349 C1345 1.429 . S
C1349 C1350 1.523 . S
C1350 C1334 1.368 . S
C1350 C1346 1.368 1_545 S
C1350 C1349 1.523 . S
H1351 C1326 0.950 . S
H1352 C1328 0.950 . S
H1353 C1329 0.949 . S
H1354 C1331 0.950 . S
H1355 C1333 0.950 . S
C1356 C1357 1.349 . S
C1356 C1358 1.327 . S
C1356 H1381 0.950 . S
C1357 C1356 1.349 . S
C1357 C1373 1.349 . S
C1358 C1356 1.327 . S
C1358 C1377 1.429 . S
C1358 H1382 0.950 . S
C1359 C1376 1.574 . S
C1359 C1378 1.368 1_655 S
C1359 H1383 0.949 . S
H1360 C1364 0.949 . S
C1361 C1362 1.349 . S
C1361 C1363 1.327 . S
C1361 H1384 0.950 . S
C1362 C1361 1.349 . S
C1362 C1374 1.349 . S
C1363 C1361 1.327 . S
C1363 C1379 1.429 . S
C1363 H1385 0.950 . S
C1364 H1360 0.949 . S
C1364 C1372 1.574 . S
C1364 C1380 1.368 1_455 S
H1365 C1373 0.950 1_655 S
H1366 C1371 0.950 . S
H1367 C1372 0.949 . S
H1368 C1374 0.950 1_455 S
H1369 C1375 0.950 . S
H1370 C1376 0.949 . S
C1371 H1366 0.950 . S
C1371 C1373 1.327 1_655 S
C1371 C1377 1.429 1_655 S
C1372 C1364 1.574 . S
C1372 H1367 0.949 . S
C1372 C1378 1.368 . S
C1373 C1357 1.349 . S
C1373 H1365 0.950 1_455 S
C1373 C1371 1.327 1_455 S
C1374 C1362 1.349 . S
C1374 H1368 0.950 1_655 S
C1374 C1375 1.327 1_655 S
C1375 H1369 0.950 . S
C1375 C1374 1.327 1_455 S
C1375 C1379 1.429 1_455 S
C1376 C1359 1.574 . S
C1376 H1370 0.949 . S
C1376 C1380 1.368 . S
C1377 C1358 1.429 . S
C1377 C1371 1.429 1_455 S
C1377 C1378 1.523 . S
C1378 C1359 1.368 1_455 S
C1378 C1372 1.368 . S
C1378 C1377 1.523 . S
C1379 C1363 1.429 . S
C1379 C1375 1.429 1_655 S
C1379 C1380 1.523 . S
C1380 C1364 1.368 1_655 S
C1380 C1376 1.368 . S
C1380 C1379 1.523 . S
H1381 C1356 0.950 . S
H1382 C1358 0.950 . S
H1383 C1359 0.949 . S
H1384 C1361 0.950 . S
H1385 C1363 0.950 . S
C1386 C1387 1.349 1_565 S
C1386 C1388 1.327 . S
C1386 H1411 0.950 . S
C1387 C1386 1.349 1_545 S
C1387 C1403 1.349 . S
C1388 C1386 1.327 . S
C1388 C1407 1.429 1_565 S
C1388 H1412 0.950 . S
C1389 C1406 1.574 . S
C1389 C1408 1.368 . S
C1389 H1413 0.949 . S
H1390 C1394 0.949 . S
C1391 C1392 1.349 1_545 S
C1391 C1393 1.327 . S
C1391 H1414 0.950 . S
C1392 C1391 1.349 1_565 S
C1392 C1404 1.349 . S
C1393 C1391 1.327 . S
C1393 C1409 1.429 1_545 S
C1393 H1415 0.950 . S
C1394 H1390 0.949 . S
C1394 C1402 1.574 . S
C1394 C1410 1.368 . S
H1395 C1403 0.950 . S
H1396 C1401 0.950 . S
H1397 C1402 0.949 . S
H1398 C1404 0.950 . S
H1399 C1405 0.950 . S
H1400 C1406 0.949 . S
C1401 H1396 0.950 . S
C1401 C1403 1.327 . S
C1401 C1407 1.429 . S
C1402 C1394 1.574 . S
C1402 H1397 0.949 . S
C1402 C1408 1.368 1_565 S
C1403 C1387 1.349 . S
C1403 H1395 0.950 . S
C1403 C1401 1.327 . S
C1404 C1392 1.349 . S
C1404 H1398 0.950 . S
C1404 C1405 1.327 . S
C1405 H1399 0.950 . S
C1405 C1404 1.327 . S
C1405 C1409 1.429 . S
C1406 C1389 1.574 . S
C1406 H1400 0.949 . S
C1406 C1410 1.368 1_545 S
C1407 C1388 1.429 1_545 S
C1407 C1401 1.429 . S
C1407 C1408 1.523 . S
C1408 C1389 1.368 . S
C1408 C1402 1.368 1_545 S
C1408 C1407 1.523 . S
C1409 C1393 1.429 1_565 S
C1409 C1405 1.429 . S
C1409 C1410 1.523 . S
C1410 C1394 1.368 . S
C1410 C1406 1.368 1_565 S
C1410 C1409 1.523 . S
H1411 C1386 0.950 . S
H1412 C1388 0.950 . S
H1413 C1389 0.949 . S
H1414 C1391 0.950 . S
H1415 C1393 0.950 . S
C1416 C1417 1.349 . S
C1416 C1418 1.327 . S
C1416 H1441 0.950 . S
C1417 C1416 1.349 . S
C1417 C1433 1.349 . S
C1418 C1416 1.327 . S
C1418 C1437 1.429 . S
C1418 H1442 0.950 . S
C1419 C1436 1.574 1_556 S
C1419 C1438 1.368 . S
C1419 H1443 0.949 . S
H1420 C1424 0.949 . S
C1421 C1422 1.349 . S
C1421 C1423 1.327 . S
C1421 H1444 0.950 . S
C1422 C1421 1.349 . S
C1422 C1434 1.349 . S
C1423 C1421 1.327 . S
C1423 C1439 1.429 . S
C1423 H1445 0.950 . S
C1424 H1420 0.949 . S
C1424 C1432 1.574 1_554 S
C1424 C1440 1.368 . S
H1425 C1433 0.950 . S
H1426 C1431 0.950 . S
H1427 C1432 0.949 . S
H1428 C1434 0.950 . S
H1429 C1435 0.950 . S
H1430 C1436 0.949 . S
C1431 H1426 0.950 . S
C1431 C1433 1.327 . S
C1431 C1437 1.429 . S
C1432 C1424 1.574 1_556 S
C1432 H1427 0.949 . S
C1432 C1438 1.368 . S
C1433 C1417 1.349 . S
C1433 H1425 0.950 . S
C1433 C1431 1.327 . S
C1434 C1422 1.349 . S
C1434 H1428 0.950 . S
C1434 C1435 1.327 . S
C1435 H1429 0.950 . S
C1435 C1434 1.327 . S
C1435 C1439 1.429 . S
C1436 C1419 1.574 1_554 S
C1436 H1430 0.949 . S
C1436 C1440 1.368 . S
C1437 C1418 1.429 . S
C1437 C1431 1.429 . S
C1437 C1438 1.523 . S
C1438 C1419 1.368 . S
C1438 C1432 1.368 . S
C1438 C1437 1.523 . S
C1439 C1423 1.429 . S
C1439 C1435 1.429 . S
C1439 C1440 1.523 . S
C1440 C1424 1.368 . S
C1440 C1436 1.368 . S
C1440 C1439 1.523 . S
H1441 C1416 0.950 . S
H1442 C1418 0.950 . S
H1443 C1419 0.949 . S
H1444 C1421 0.950 . S
H1445 C1423 0.950 . S
C1446 C1447 1.349 . S
C1446 C1448 1.327 . S
C1446 H1471 0.950 . S
C1447 C1446 1.349 . S
C1447 C1463 1.349 . S
C1448 C1446 1.327 . S
C1448 C1467 1.429 . S
C1448 H1472 0.950 . S
C1449 C1466 1.574 1_556 S
C1449 C1468 1.368 . S
C1449 H1473 0.949 . S
H1450 C1454 0.949 . S
C1451 C1452 1.349 . S
C1451 C1453 1.327 . S
C1451 H1474 0.950 . S
C1452 C1451 1.349 . S
C1452 C1464 1.349 . S
C1453 C1451 1.327 . S
C1453 C1469 1.429 . S
C1453 H1475 0.950 . S
C1454 H1450 0.949 . S
C1454 C1462 1.574 1_554 S
C1454 C1470 1.368 . S
H1455 C1463 0.950 . S
H1456 C1461 0.950 . S
H1457 C1462 0.949 . S
H1458 C1464 0.950 . S
H1459 C1465 0.950 . S
H1460 C1466 0.949 . S
C1461 H1456 0.950 . S
C1461 C1463 1.327 . S
C1461 C1467 1.429 . S
C1462 C1454 1.574 1_556 S
C1462 H1457 0.949 . S
C1462 C1468 1.368 . S
C1463 C1447 1.349 . S
C1463 H1455 0.950 . S
C1463 C1461 1.327 . S
C1464 C1452 1.349 . S
C1464 H1458 0.950 . S
C1464 C1465 1.327 . S
C1465 H1459 0.950 . S
C1465 C1464 1.327 . S
C1465 C1469 1.429 . S
C1466 C1449 1.574 1_554 S
C1466 H1460 0.949 . S
C1466 C1470 1.368 . S
C1467 C1448 1.429 . S
C1467 C1461 1.429 . S
C1467 C1468 1.523 . S
C1468 C1449 1.368 . S
C1468 C1462 1.368 . S
C1468 C1467 1.523 . S
C1469 C1453 1.429 . S
C1469 C1465 1.429 . S
C1469 C1470 1.523 . S
C1470 C1454 1.368 . S
C1470 C1466 1.368 . S
C1470 C1469 1.523 . S
H1471 C1446 0.950 . S
H1472 C1448 0.950 . S
H1473 C1449 0.949 . S
H1474 C1451 0.950 . S
H1475 C1453 0.950 . S
C1476 C1477 1.349 . S
C1476 C1478 1.327 . S
C1476 H1501 0.950 . S
C1477 C1476 1.349 . S
C1477 C1493 1.349 . S
C1478 C1476 1.327 . S
C1478 C1497 1.429 . S
C1478 H1502 0.950 . S
C1479 C1496 1.574 1_554 S
C1479 C1498 1.368 . S
C1479 H1503 0.949 . S
H1480 C1484 0.949 . S
C1481 C1482 1.349 . S
C1481 C1483 1.327 . S
C1481 H1504 0.950 . S
C1482 C1481 1.349 . S
C1482 C1494 1.349 . S
C1483 C1481 1.327 . S
C1483 C1499 1.429 . S
C1483 H1505 0.950 . S
C1484 H1480 0.949 . S
C1484 C1492 1.574 1_556 S
C1484 C1500 1.368 . S
H1485 C1493 0.950 . S
H1486 C1491 0.950 . S
H1487 C1492 0.949 . S
H1488 C1494 0.950 . S
H1489 C1495 0.950 . S
H1490 C1496 0.949 . S
C1491 H1486 0.950 . S
C1491 C1493 1.327 . S
C1491 C1497 1.429 . S
C1492 C1484 1.574 1_554 S
C1492 H1487 0.949 . S
C1492 C1498 1.368 . S
C1493 C1477 1.349 . S
C1493 H1485 0.950 . S
C1493 C1491 1.327 . S
C1494 C1482 1.349 . S
C1494 H1488 0.950 . S
C1494 C1495 1.327 . S
C1495 H1489 0.950 . S
C1495 C1494 1.327 . S
C1495 C1499 1.429 . S
C1496 C1479 1.574 1_556 S
C1496 H1490 0.949 . S
C1496 C1500 1.368 . S
C1497 C1478 1.429 . S
C1497 C1491 1.429 . S
C1497 C1498 1.523 . S
C1498 C1479 1.368 . S
C1498 C1492 1.368 . S
C1498 C1497 1.523 . S
C1499 C1483 1.429 . S
C1499 C1495 1.429 . S
C1499 C1500 1.523 . S
C1500 C1484 1.368 . S
C1500 C1496 1.368 . S
C1500 C1499 1.523 . S
H1501 C1476 0.950 . S
H1502 C1478 0.950 . S
H1503 C1479 0.949 . S
H1504 C1481 0.950 . S
H1505 C1483 0.950 . S
C1506 C1507 1.349 . S
C1506 C1508 1.327 . S
C1506 H1531 0.950 . S
C1507 C1506 1.349 . S
C1507 C1523 1.349 . S
C1508 C1506 1.327 . S
C1508 C1527 1.429 . S
C1508 H1532 0.950 . S
C1509 C1526 1.574 1_556 S
C1509 C1528 1.368 . S
C1509 H1533 0.949 . S
H1510 C1514 0.949 . S
C1511 C1512 1.349 . S
C1511 C1513 1.327 . S
C1511 H1534 0.950 . S
C1512 C1511 1.349 . S
C1512 C1524 1.349 . S
C1513 C1511 1.327 . S
C1513 C1529 1.429 . S
C1513 H1535 0.950 . S
C1514 H1510 0.949 . S
C1514 C1522 1.574 1_554 S
C1514 C1530 1.368 . S
H1515 C1523 0.950 . S
H1516 C1521 0.950 . S
H1517 C1522 0.949 . S
H1518 C1524 0.950 . S
H1519 C1525 0.950 . S
H1520 C1526 0.949 . S
C1521 H1516 0.950 . S
C1521 C1523 1.327 . S
C1521 C1527 1.429 . S
C1522 C1514 1.574 1_556 S
C1522 H1517 0.949 . S
C1522 C1528 1.368 . S
C1523 C1507 1.349 . S
C1523 H1515 0.950 . S
C1523 C1521 1.327 . S
C1524 C1512 1.349 . S
C1524 H1518 0.950 . S
C1524 C1525 1.327 . S
C1525 H1519 0.950 . S
C1525 C1524 1.327 . S
C1525 C1529 1.429 . S
C1526 C1509 1.574 1_554 S
C1526 H1520 0.949 . S
C1526 C1530 1.368 . S
C1527 C1508 1.429 . S
C1527 C1521 1.429 . S
C1527 C1528 1.523 . S
C1528 C1509 1.368 . S
C1528 C1522 1.368 . S
C1528 C1527 1.523 . S
C1529 C1513 1.429 . S
C1529 C1525 1.429 . S
C1529 C1530 1.523 . S
C1530 C1514 1.368 . S
C1530 C1526 1.368 . S
C1530 C1529 1.523 . S
H1531 C1506 0.950 . S
H1532 C1508 0.950 . S
H1533 C1509 0.949 . S
H1534 C1511 0.950 . S
H1535 C1513 0.950 . S
C577 C14 1.341 . S
C582 C111 1.374 . S
C607 C3 1.374 . S
C612 C50 1.341 . S
C637 C39 1.374 . S
C642 C86 1.341 . S
C667 C75 1.374 . S
C672 C122 1.341 . S
C697 C158 1.341 . S
C702 C183 1.374 . S
C727 C194 1.341 . S
C732 C219 1.374 . S
C757 C230 1.341 . S
C762 C255 1.374 . S
C787 C266 1.341 . S
C792 C147 1.374 . S
C817 C302 1.341 . S
C822 C399 1.374 . S
C847 C291 1.374 . S
C852 C338 1.341 . S
C877 C327 1.374 . S
C882 C374 1.341 . S
C907 C410 1.341 . S
C912 C363 1.374 . S
C937 C471 1.374 . S
C942 C446 1.341 . S
C967 C507 1.374 . S
C972 C482 1.341 . S
C997 C518 1.341 . S
C1002 C543 1.374 . S
C1027 C554 1.341 . S
C1032 C435 1.374 . S
C1057 C4 1.029 . S
C1062 C544 1.029 . S
C1087 C40 1.029 . S
C1092 C436 1.029 . S
C1117 C472 1.029 . S
C1122 C76 1.029 . S
C1147 C112 1.029 . S
C1152 C508 1.029 . S
C1177 C328 1.029 . S
C1182 C148 1.029 . S
C1207 C364 1.029 . S
C1212 C184 1.029 . S
C1237 C220 1.029 . S
C1242 C400 1.029 . S
C1267 C256 1.029 . S
C1272 C292 1.029 . S
C1297 C2 1.598 . S
C1302 C218 1.598 . S
C1327 C254 1.598 . S
C1332 C38 1.598 . S
C1357 C146 1.598 . S
C1362 C74 1.598 . S
C1387 C182 1.598 . S
C1392 C110 1.598 . S
C1417 C290 1.598 . S
C1422 C506 1.598 . S
C1447 C326 1.598 . S
C1452 C542 1.598 . S
C1477 C434 1.598 . S
C1482 C362 1.598 . S
C1507 C398 1.598 . S
C1512 C470 1.598 . S
