# Generated by pormake.
# Topology und, (4)-cn, num edge types: 1
# Building blocks:
#     Node 0, Type 0, BuildingBlock: QUQFOY_clean_sbu_3, # of connection points: 4
#     Node 1, Type 0, BuildingBlock: QUQFOY_clean_sbu_3, # of connection points: 4
#     Node 2, Type 0, BuildingBlock: QUQFOY_clean_sbu_3, # of connection points: 4
#     Node 3, Type 0, BuildingBlock: QUQFOY_clean_sbu_3, # of connection points: 4
#     Node 4, Type 0, BuildingBlock: QUQFOY_clean_sbu_3, # of connection points: 4
#     Node 5, Type 0, BuildingBlock: QUQFOY_clean_sbu_3, # of connection points: 4
#     Node 6, Type 0, BuildingBlock: QUQFOY_clean_sbu_3, # of connection points: 4
#     Node 7, Type 0, BuildingBlock: QUQFOY_clean_sbu_3, # of connection points: 4
#     Node 8, Type 0, BuildingBlock: QUQFOY_clean_sbu_3, # of connection points: 4
#     Node 9, Type 0, BuildingBlock: QUQFOY_clean_sbu_3, # of connection points: 4
#     Node 10, Type 0, BuildingBlock: QUQFOY_clean_sbu_3, # of connection points: 4
#     Node 11, Type 0, BuildingBlock: QUQFOY_clean_sbu_3, # of connection points: 4
#     Node 12, Type 0, BuildingBlock: QUQFOY_clean_sbu_3, # of connection points: 4
#     Node 13, Type 0, BuildingBlock: QUQFOY_clean_sbu_3, # of connection points: 4
#     Node 14, Type 0, BuildingBlock: QUQFOY_clean_sbu_3, # of connection points: 4
#     Node 15, Type 0, BuildingBlock: QUQFOY_clean_sbu_3, # of connection points: 4
#     Edge 16, Type (0, 0), BuildingBlock: OJICUG_clean_linker_0, # of connection points: 2
#     Edge 17, Type (0, 0), BuildingBlock: OJICUG_clean_linker_0, # of connection points: 2
#     Edge 18, Type (0, 0), BuildingBlock: OJICUG_clean_linker_0, # of connection points: 2
#     Edge 19, Type (0, 0), BuildingBlock: OJICUG_clean_linker_0, # of connection points: 2
#     Edge 20, Type (0, 0), BuildingBlock: OJICUG_clean_linker_0, # of connection points: 2
#     Edge 21, Type (0, 0), BuildingBlock: OJICUG_clean_linker_0, # of connection points: 2
#     Edge 22, Type (0, 0), BuildingBlock: OJICUG_clean_linker_0, # of connection points: 2
#     Edge 23, Type (0, 0), BuildingBlock: OJICUG_clean_linker_0, # of connection points: 2
#     Edge 24, Type (0, 0), BuildingBlock: OJICUG_clean_linker_0, # of connection points: 2
#     Edge 25, Type (0, 0), BuildingBlock: OJICUG_clean_linker_0, # of connection points: 2
#     Edge 26, Type (0, 0), BuildingBlock: OJICUG_clean_linker_0, # of connection points: 2
#     Edge 27, Type (0, 0), BuildingBlock: OJICUG_clean_linker_0, # of connection points: 2
#     Edge 28, Type (0, 0), BuildingBlock: OJICUG_clean_linker_0, # of connection points: 2
#     Edge 29, Type (0, 0), BuildingBlock: OJICUG_clean_linker_0, # of connection points: 2
#     Edge 30, Type (0, 0), BuildingBlock: OJICUG_clean_linker_0, # of connection points: 2
#     Edge 31, Type (0, 0), BuildingBlock: OJICUG_clean_linker_0, # of connection points: 2
#     Edge 32, Type (0, 0), BuildingBlock: OJICUG_clean_linker_0, # of connection points: 2
#     Edge 33, Type (0, 0), BuildingBlock: OJICUG_clean_linker_0, # of connection points: 2
#     Edge 34, Type (0, 0), BuildingBlock: OJICUG_clean_linker_0, # of connection points: 2
#     Edge 35, Type (0, 0), BuildingBlock: OJICUG_clean_linker_0, # of connection points: 2
#     Edge 36, Type (0, 0), BuildingBlock: OJICUG_clean_linker_0, # of connection points: 2
#     Edge 37, Type (0, 0), BuildingBlock: OJICUG_clean_linker_0, # of connection points: 2
#     Edge 38, Type (0, 0), BuildingBlock: OJICUG_clean_linker_0, # of connection points: 2
#     Edge 39, Type (0, 0), BuildingBlock: OJICUG_clean_linker_0, # of connection points: 2
#     Edge 40, Type (0, 0), BuildingBlock: OJICUG_clean_linker_0, # of connection points: 2
#     Edge 41, Type (0, 0), BuildingBlock: OJICUG_clean_linker_0, # of connection points: 2
#     Edge 42, Type (0, 0), BuildingBlock: OJICUG_clean_linker_0, # of connection points: 2
#     Edge 43, Type (0, 0), BuildingBlock: OJICUG_clean_linker_0, # of connection points: 2
#     Edge 44, Type (0, 0), BuildingBlock: OJICUG_clean_linker_0, # of connection points: 2
#     Edge 45, Type (0, 0), BuildingBlock: OJICUG_clean_linker_0, # of connection points: 2
#     Edge 46, Type (0, 0), BuildingBlock: OJICUG_clean_linker_0, # of connection points: 2
#     Edge 47, Type (0, 0), BuildingBlock: OJICUG_clean_linker_0, # of connection points: 2
# Relax obj value: 0.006
# Max RMSD: 0.045
# Mean RMSD: 0.045
data_MOF--net-und--node1-QUQFOY_clean_sbu_3--edge1-OJICUG_clean_linker_0
_symmetry_space_group_name_H-M    P1
_symmetry_Int_Tables_number       1
_symmetry_cell_setting            triclinic
loop_
_symmetry_equiv_pos_as_xyz
'x, y, z'
_cell_length_a     46.270424
_cell_length_b     46.090277
_cell_length_c     16.976962
_cell_angle_alpha  90.064726
_cell_angle_beta   89.909787
_cell_angle_gamma 96.977993
loop_
_atom_site_label
_atom_site_type_symbol
_atom_site_fract_x
_atom_site_fract_y
_atom_site_fract_z
_atom_type_partial_charge
C0 C 0.24593 0.30199 0.13604 0.0
O1 O 0.27239 0.31021 0.11906 0.0
Cd2 Cd 0.28386 0.34126 0.00628 0.0
O3 O 0.22571 0.31267 0.09994 0.0
Cd4 Cd 0.21654 0.34875 0.00246 0.0
C5 C 0.23806 0.30134 0.87452 0.0
O6 O 0.2596 0.38437 0.01176 0.0
O7 O 0.234 0.38455 0.90495 0.0
O8 O 0.18771 0.36569 0.10585 0.0
C9 C 0.25535 0.39604 0.94559 0.0
O10 O 0.26376 0.31033 0.89792 0.0
C11 C 0.16523 0.36728 0.06417 0.0
O12 O 0.21591 0.31064 0.90582 0.0
O13 O 0.16642 0.35998 -0.00799 0.0
C14 C 0.93526 -0.00905 0.11976 0.0
O15 O 0.92714 0.96438 0.13661 0.0
Cd16 Cd 0.8967 0.95274 0.25034 0.0
O17 O 0.92474 0.01123 0.15653 0.0
Cd18 Cd 0.88902 0.02023 0.25525 0.0
C19 C 0.93685 -0.00112 0.38115 0.0
O20 O 0.85365 0.97689 0.24679 0.0
O21 O 0.85386 0.0025 0.35403 0.0
O22 O 0.87166 0.04891 0.15238 0.0
C23 C 0.8423 0.98106 0.3135 0.0
O24 O 0.92787 0.97307 0.3577 0.0
C25 C 0.86998 0.07148 0.19412 0.0
O26 O 0.9274 0.0211 0.35051 0.0
O27 O 0.87743 0.07044 0.2661 0.0
C28 C 0.21396 0.71172 0.63676 0.0
O29 O 0.18753 0.70338 0.61992 0.0
Cd30 Cd 0.1761 0.67239 0.50693 0.0
O31 O 0.23426 0.70122 0.6003 0.0
Cd32 Cd 0.24388 0.66541 0.50221 0.0
C33 C 0.22177 0.71273 0.37529 0.0
O34 O 0.20095 0.62972 0.51183 0.0
O35 O 0.22662 0.62932 0.40499 0.0
O36 O 0.27286 0.64896 0.60552 0.0
C37 C 0.20516 0.61798 0.44563 0.0
O38 O 0.19612 0.70356 0.39894 0.0
C39 C 0.2954 0.64751 0.5638 0.0
O40 O 0.24403 0.70356 0.40609 0.0
O41 O 0.29417 0.65461 0.49155 0.0
C42 C 0.52381 0.02231 0.62333 0.0
O43 O 0.53179 0.04892 0.64015 0.0
Cd44 Cd 0.56244 0.06079 0.7532 0.0
O45 O 0.53457 0.00214 0.65968 0.0
Cd46 Cd 0.57068 -0.00638 0.75746 0.0
C47 C 0.52297 0.01452 0.88488 0.0
O48 O 0.60585 0.03718 0.74855 0.0
O49 O 0.60584 0.01159 0.85568 0.0
O50 O 0.58818 0.96504 0.65429 0.0
C51 C 0.61732 0.03302 0.81501 0.0
O52 O 0.5317 0.04037 0.86142 0.0
C53 C 0.59008 0.94254 0.696 0.0
O54 O 0.53251 -0.0076 0.85375 0.0
O55 O 0.58267 0.94358 0.76809 0.0
C56 C 0.71309 0.71154 0.87025 0.0
O57 O 0.68661 0.70352 0.88729 0.0
Cd58 Cd 0.67496 0.67295 0.00092 0.0
O59 O 0.73323 0.70091 0.90682 0.0
Cd60 Cd 0.74211 0.66513 0.00545 0.0
C61 C 0.72082 0.71319 0.13182 0.0
O62 O 0.69891 0.62962 -0.0031 0.0
O63 O 0.72447 0.62978 0.10389 0.0
O64 O 0.77097 0.64775 0.90282 0.0
C65 C 0.70311 0.61818 0.06343 0.0
O66 O 0.69509 0.70423 0.10859 0.0
C67 C 0.7934 0.64625 0.94475 0.0
O68 O 0.7429 0.70364 0.10089 0.0
O69 O 0.79216 0.65376 0.01673 0.0
C70 C 0.0245 0.02274 0.88726 0.0
O71 O 0.03263 0.04931 0.8704 0.0
Cd72 Cd 0.06334 0.061 0.75717 0.0
O73 O 0.03509 0.00246 0.85071 0.0
Cd74 Cd 0.07091 -0.00667 0.75242 0.0
C75 C 0.02343 0.01494 0.62572 0.0
O76 O 0.10626 0.03666 0.76152 0.0
O77 O 0.10646 0.01096 0.65453 0.0
O78 O 0.08789 0.96447 0.85545 0.0
C79 C 0.11783 0.03247 0.6951 0.0
O80 O 0.03238 0.04073 0.64928 0.0
C81 C 0.08954 0.94191 0.81365 0.0
O82 O 0.03277 -0.0073 0.65653 0.0
O83 O 0.08226 0.94305 0.74155 0.0
C84 C 0.74588 0.30194 0.37215 0.0
O85 O 0.77233 0.31016 0.38905 0.0
Cd86 Cd 0.78382 0.34104 0.50221 0.0
O87 O 0.72563 0.31252 0.40864 0.0
Cd88 Cd 0.71623 0.34836 0.50687 0.0
C89 C 0.738 0.30081 0.63364 0.0
O90 O 0.75928 0.38393 0.4976 0.0
O91 O 0.73363 0.38422 0.60451 0.0
O92 O 0.68734 0.36518 0.4038 0.0
C93 C 0.75509 0.39559 0.56393 0.0
O94 O 0.76368 0.30989 0.61008 0.0
C95 C 0.66482 0.36664 0.44559 0.0
O96 O 0.71581 0.31011 0.60282 0.0
O97 O 0.66601 0.35937 0.51772 0.0
C98 C 0.43459 -0.0101 0.39169 0.0
O99 O 0.42661 0.9633 0.37471 0.0
Cd100 Cd 0.39633 0.95162 0.2608 0.0
O101 O 0.424 0.0101 0.35499 0.0
Cd102 Cd 0.38836 0.01879 0.2562 0.0
C103 C 0.43646 -0.00228 0.13015 0.0
O104 O 0.35295 0.97537 0.26401 0.0
O105 O 0.35357 0.00105 0.15691 0.0
O106 O 0.37055 0.04756 0.35858 0.0
C107 C 0.3418 0.97965 0.1972 0.0
O108 O 0.42756 0.97188 0.1533 0.0
C109 C 0.36905 0.07008 0.31666 0.0
O110 O 0.42688 0.01986 0.16106 0.0
O111 O 0.37679 0.06895 0.24485 0.0
C112 C 0.74527 0.80107 0.6383 0.0
O113 O 0.77177 0.80907 0.62135 0.0
Cd114 Cd 0.7836 0.8398 0.50819 0.0
O115 O 0.72516 0.81185 0.60198 0.0
Cd116 Cd 0.7165 0.848 0.50406 0.0
C117 C 0.73741 0.80006 0.3769 0.0
O118 O 0.7599 0.88324 0.51277 0.0
O119 O 0.73436 0.88335 0.40581 0.0
O120 O 0.688 0.86553 0.60726 0.0
C121 C 0.7558 0.89477 0.4463 0.0
O122 O 0.76316 0.80886 0.40029 0.0
C123 C 0.66555 0.86732 0.56563 0.0
O124 O 0.71537 0.80964 0.40798 0.0
O125 O 0.6666 0.85987 0.49356 0.0
C126 C 0.43492 0.49139 0.62248 0.0
O127 O 0.42648 0.46488 0.63931 0.0
Cd128 Cd 0.39566 0.4536 0.75249 0.0
O129 O 0.42459 0.51183 0.65901 0.0
Cd130 Cd 0.38893 0.52153 0.75713 0.0
C131 C 0.43604 0.49934 0.8839 0.0
O132 O 0.35317 0.47857 0.74779 0.0
O133 O 0.35313 0.50426 0.85483 0.0
O134 O 0.37247 0.55047 0.6536 0.0
C135 C 0.34159 0.48286 0.81411 0.0
O136 O 0.4268 0.47362 0.8603 0.0
C137 C 0.37086 0.57309 0.69516 0.0
O138 O 0.42698 0.52173 0.85311 0.0
O139 O 0.37797 0.57197 0.7674 0.0
C140 C 0.71441 0.21233 0.13971 0.0
O141 O 0.68794 0.2042 0.12288 0.0
Cd142 Cd 0.6762 0.17362 0.0094 0.0
O143 O 0.73461 0.20177 0.10297 0.0
Cd144 Cd 0.74356 0.16589 0.0042 0.0
C145 C 0.72217 0.21386 0.87827 0.0
O146 O 0.70034 0.13049 0.0133 0.0
O147 O 0.72572 0.13045 0.90587 0.0
O148 O 0.77228 0.14857 0.10689 0.0
C149 C 0.70436 0.11899 0.94666 0.0
O150 O 0.69647 0.20486 0.90189 0.0
C151 C 0.7947 0.14683 0.06491 0.0
O152 O 0.74432 0.20438 0.9088 0.0
O153 O 0.79355 0.15423 -0.00713 0.0
C154 C 0.02464 0.52299 0.12081 0.0
O155 O 0.03286 0.54954 0.13768 0.0
Cd156 Cd 0.0634 0.56102 0.25118 0.0
O157 O 0.03509 0.50268 0.15738 0.0
Cd158 Cd 0.0708 0.49362 0.25569 0.0
C159 C 0.02315 0.51515 0.38232 0.0
O160 O 0.10644 0.53679 0.24703 0.0
O161 O 0.10601 0.51118 0.3542 0.0
O162 O 0.08797 0.46476 0.15264 0.0
C163 C 0.11777 0.5325 0.31359 0.0
O164 O 0.03222 0.54094 0.35897 0.0
C165 C 0.08963 0.44223 0.19439 0.0
O166 O 0.03249 0.4929 0.35137 0.0
O167 O 0.08223 0.44337 0.26647 0.0
C168 C 0.21425 0.21234 0.36799 0.0
O169 O 0.18777 0.20428 0.385 0.0
Cd170 Cd 0.17599 0.17401 0.49895 0.0
O171 O 0.23442 0.20182 0.40478 0.0
Cd172 Cd 0.243 0.16606 0.50394 0.0
C173 C 0.22192 0.21442 0.62948 0.0
O174 O 0.19975 0.13059 0.49564 0.0
O175 O 0.22501 0.13113 0.60319 0.0
O176 O 0.27172 0.14818 0.40173 0.0
C177 C 0.20379 0.11936 0.56253 0.0
O178 O 0.1962 0.20543 0.60618 0.0
C179 C 0.29404 0.14641 0.44389 0.0
O180 O 0.24402 0.2048 0.59884 0.0
O181 O 0.29284 0.1541 0.51575 0.0
C182 C 0.52431 0.5222 0.38977 0.0
O183 O 0.53268 0.54873 0.37292 0.0
Cd184 Cd 0.56318 0.56022 0.25933 0.0
O185 O 0.53462 0.50179 0.35301 0.0
Cd186 Cd 0.57022 0.49241 0.25429 0.0
C187 C 0.52268 0.51434 0.12845 0.0
O188 O 0.60584 0.53552 0.26305 0.0
O189 O 0.60561 0.50993 0.15579 0.0
O190 O 0.58718 0.46357 0.35733 0.0
C191 C 0.61721 0.53133 0.19639 0.0
O192 O 0.53189 0.54007 0.15202 0.0
C193 C 0.58888 0.44101 0.31558 0.0
O194 O 0.5319 0.49198 0.15897 0.0
O195 O 0.58156 0.4421 0.24349 0.0
C196 C 0.24508 0.80137 0.86931 0.0
O197 O 0.27152 0.80961 0.88618 0.0
Cd198 Cd 0.28313 0.84016 -0.00019 0.0
O199 O 0.22481 0.81182 0.90606 0.0
Cd200 Cd 0.21556 0.84757 0.00482 0.0
C201 C 0.23717 0.79966 0.13056 0.0
O202 O 0.25868 0.88308 -0.00371 0.0
O203 O 0.2331 0.88302 0.10338 0.0
O204 O 0.18691 0.86478 0.90186 0.0
C205 C 0.25456 0.89449 0.06298 0.0
O206 O 0.26284 0.80879 0.10701 0.0
C207 C 0.1644 0.86639 0.94358 0.0
O208 O 0.21496 0.80904 0.10005 0.0
O209 O 0.16547 0.85897 0.01562 0.0
C210 C 0.93529 0.49135 0.88901 0.0
O211 O 0.92711 0.46479 0.87216 0.0
Cd212 Cd 0.89657 0.45315 0.75881 0.0
O213 O 0.92477 0.51164 0.85252 0.0
Cd214 Cd 0.8889 0.52048 0.75437 0.0
C215 C 0.93658 0.49919 0.62754 0.0
O216 O 0.85342 0.47717 0.76294 0.0
O217 O 0.85382 0.50273 0.6557 0.0
O218 O 0.87144 0.54915 0.8574 0.0
C219 C 0.84211 0.48139 0.69631 0.0
O220 O 0.9276 0.47339 0.65096 0.0
C221 C 0.86966 0.57166 0.81566 0.0
O222 O 0.92719 0.52142 0.65852 0.0
O223 O 0.87717 0.57061 0.74365 0.0
C224 C 0.25954 0.26564 0.23451 0.0
C225 C 0.23803 0.27928 0.19612 0.0
H226 H 0.26887 0.23361 0.31837 0.0
C227 C 0.20853 0.27044 0.21384 0.0
H228 H 0.28241 0.27185 0.22191 0.0
C229 C 0.20071 0.24844 0.26887 0.0
C230 C 0.22221 0.23484 0.30739 0.0
H231 H 0.19137 0.28048 0.18512 0.0
H232 H 0.17784 0.24226 0.2815 0.0
C233 C 0.25171 0.24363 0.28957 0.0
C234 C 0.96979 0.97875 0.47779 0.0
C235 C 0.95891 0.00301 0.44388 0.0
H236 H -0.00124 0.96347 0.56168 0.0
C237 C 0.96953 0.03122 0.46993 0.0
H238 H 0.96208 0.95671 0.45894 0.0
C239 C -0.0094 0.0351 0.52878 0.0
C240 C 0.00145 0.01083 0.56274 0.0
H241 H 0.96161 0.05037 0.4449 0.0
H242 H -0.0017 0.05713 0.54766 0.0
C243 C -0.00914 0.98262 0.53664 0.0
C244 C 0.25119 0.74333 0.71482 0.0
C245 C 0.22173 0.73437 0.69712 0.0
H246 H 0.28173 0.77162 0.7826 0.0
C247 C 0.20012 0.74787 0.73578 0.0
H248 H 0.26843 0.7334 0.68591 0.0
C249 C 0.20781 0.76987 0.791 0.0
C250 C 0.23727 0.77881 0.80873 0.0
H251 H 0.17728 0.74155 0.72322 0.0
H252 H 0.19058 0.77979 0.81995 0.0
C253 C 0.25888 0.76532 0.77003 0.0
C254 C 0.46961 0.97788 0.03309 0.0
C255 C 0.45855 0.00202 0.06732 0.0
H256 H 0.4987 0.96287 0.94872 0.0
C257 C 0.46896 0.0303 0.04145 0.0
H258 H 0.46205 0.95579 0.05181 0.0
C259 C 0.49001 0.03435 0.98242 0.0
C260 C 0.50104 0.01021 0.94809 0.0
H261 H 0.4609 0.04936 0.06673 0.0
H262 H 0.49755 0.05644 0.96367 0.0
C263 C 0.49065 0.98193 0.97405 0.0
C264 C 0.20514 0.76666 0.21944 0.0
C265 C 0.23319 0.77749 0.1933 0.0
H266 H 0.17951 0.73764 0.29729 0.0
C267 C 0.25745 0.76673 0.22714 0.0
H268 H 0.186 0.77448 0.19445 0.0
C269 C 0.25374 0.74558 0.28602 0.0
C270 C 0.22569 0.73478 0.31223 0.0
H271 H 0.27937 0.7746 0.20823 0.0
H272 H 0.27289 0.73778 0.31102 0.0
C273 C 0.20143 0.74551 0.27833 0.0
C274 C 0.47075 0.97652 0.49059 0.0
C275 C 0.45701 -0.00201 0.45215 0.0
H276 H 0.5028 0.96739 0.57427 0.0
C277 C 0.46558 0.02764 0.46992 0.0
H278 H 0.46474 0.95354 0.47798 0.0
C279 C 0.48748 0.03565 0.52487 0.0
C280 C 0.50125 0.01418 0.56324 0.0
H281 H 0.45546 0.04479 0.44118 0.0
H282 H 0.49351 0.05864 0.53742 0.0
C283 C 0.49266 0.98453 0.54555 0.0
C284 C 0.25419 0.24728 0.718 0.0
C285 C 0.22607 0.23665 0.69215 0.0
H286 H 0.28005 0.27614 0.79574 0.0
C287 C 0.20193 0.24762 0.72629 0.0
H288 H 0.27325 0.2393 0.69278 0.0
C289 C 0.20583 0.26877 0.78525 0.0
C290 C 0.23394 0.27935 0.81124 0.0
H291 H 0.17997 0.2399 0.70758 0.0
H292 H 0.18677 0.27673 0.81052 0.0
C293 C 0.25809 0.26844 0.77696 0.0
C294 C -0.0068 -0.01483 0.96532 0.0
C295 C 0.00197 0.01479 0.94764 0.0
H296 H 0.96515 0.95436 0.03306 0.0
C297 C -0.01161 0.03638 -0.01368 0.0
H298 H 0.0032 0.96795 0.93639 0.0
C299 C 0.96649 0.02852 0.04152 0.0
C300 C 0.95773 -0.00109 0.05922 0.0
H301 H -0.00545 0.05934 0.97379 0.0
H302 H 0.95649 0.04575 0.07047 0.0
C303 C 0.9713 0.97732 0.02051 0.0
C304 C 0.75066 0.74268 0.7919 0.0
C305 C 0.72113 0.73406 0.80977 0.0
H306 H 0.78149 0.77071 0.72422 0.0
C307 C 0.69972 0.74784 0.77136 0.0
H308 H 0.76775 0.73253 0.82061 0.0
C309 C 0.70767 0.76981 0.71631 0.0
C310 C 0.7372 0.77845 0.69851 0.0
H311 H 0.67683 0.74179 0.78404 0.0
H312 H 0.69058 0.77997 0.68761 0.0
C313 C 0.7586 0.76466 0.73686 0.0
C314 C 0.70854 0.27046 0.2941 0.0
C315 C 0.73803 0.27931 0.31178 0.0
H316 H 0.67791 0.24226 0.22639 0.0
C317 C 0.75957 0.26572 0.27312 0.0
H318 H 0.69135 0.28046 0.32302 0.0
C319 C 0.75179 0.24373 0.21792 0.0
C320 C 0.72231 0.2349 0.20022 0.0
H321 H 0.78243 0.27195 0.28565 0.0
H322 H 0.76898 0.23373 0.18897 0.0
C323 C 0.70077 0.24848 0.23893 0.0
C324 C 0.70205 0.24689 0.78163 0.0
C325 C 0.72624 0.23601 0.81549 0.0
H326 H 0.68678 0.27596 0.69778 0.0
C327 C 0.75433 0.24671 0.78938 0.0
H328 H 0.68011 0.23911 0.80053 0.0
C329 C 0.75815 0.26787 0.73053 0.0
C330 C 0.73396 0.27874 0.69662 0.0
H331 H 0.77342 0.2388 0.81438 0.0
H332 H 0.7801 0.27565 0.7116 0.0
C333 C 0.70587 0.26805 0.72278 0.0
C334 C 0.70098 0.74641 0.2289 0.0
C335 C 0.72505 0.73533 0.19469 0.0
H336 H 0.68599 0.77562 0.31317 0.0
C337 C 0.75321 0.74582 0.22057 0.0
H338 H 0.67899 0.7388 0.21017 0.0
C339 C 0.75721 0.76695 0.27954 0.0
C340 C 0.73314 0.77801 0.3138 0.0
H341 H 0.77221 0.73775 0.19531 0.0
H342 H 0.7792 0.77455 0.29826 0.0
C343 C 0.70499 0.76755 0.28788 0.0
C344 C 0.49002 0.5349 0.03186 0.0
C345 C 0.50061 0.51047 0.0657 0.0
H346 H 0.46126 0.55057 0.94803 0.0
C347 C 0.48968 0.48235 0.0396 0.0
H348 H 0.49798 0.55688 0.05075 0.0
C349 C 0.46859 0.47874 0.98076 0.0
C350 C 0.45803 0.50317 0.94687 0.0
H351 H 0.49737 0.46308 0.06458 0.0
H352 H 0.46064 0.45677 0.96184 0.0
C353 C 0.46894 0.53129 0.97303 0.0
C354 C -0.00971 0.53535 0.4795 0.0
C355 C 0.00111 0.51107 0.44529 0.0
H356 H 0.96135 0.55066 0.56378 0.0
C357 C -0.00954 0.48287 0.47124 0.0
H358 H -0.00196 0.55739 0.46073 0.0
C359 C 0.9694 0.47902 0.53025 0.0
C360 C 0.95858 0.5033 0.56449 0.0
H361 H -0.00166 0.46371 0.446 0.0
H362 H 0.96166 0.45698 0.54902 0.0
C363 C 0.96923 0.5315 0.53852 0.0
C364 C -0.01137 0.5367 0.02193 0.0
C365 C 0.00213 0.51508 0.06047 0.0
H366 H 0.95676 0.54614 0.93809 0.0
C367 C -0.00673 0.48548 0.0428 0.0
H368 H -0.00513 0.55966 0.03446 0.0
C369 C 0.97134 0.47766 -0.01221 0.0
C370 C 0.95783 0.49928 0.94926 0.0
H371 H 0.0032 0.46822 0.07161 0.0
H372 H 0.9651 0.45471 0.97527 0.0
C373 C 0.9667 0.52889 0.96691 0.0
C374 C 0.4666 0.52864 0.5444 0.0
C375 C 0.4575 0.49909 0.56206 0.0
H376 H 0.49494 0.55917 0.47661 0.0
C377 C 0.47079 0.47731 0.52331 0.0
H378 H 0.45683 0.54601 0.57339 0.0
C379 C 0.49272 0.48492 0.46803 0.0
C380 C 0.5018 0.51447 0.45035 0.0
H381 H 0.46437 0.45439 0.53583 0.0
H382 H 0.50248 0.46756 0.43901 0.0
C383 C 0.48853 0.53625 0.48914 0.0
C384 C 0.10451 0.41389 0.07978 0.0
C385 C 0.10298 0.4175 0.16182 0.0
H386 H 0.12519 0.39426 0.98404 0.0
C387 C 0.1181 0.40026 0.2113 0.0
H388 H 0.09276 0.42678 0.04047 0.0
C389 C 0.13695 0.38201 0.179 0.0
C390 C 0.14046 0.38042 0.09693 0.0
H391 H 0.11719 0.4026 0.27473 0.0
H392 H 0.15004 0.37049 0.2183 0.0
C393 C 0.12295 0.39523 0.04749 0.0
C394 C 0.7797 0.92082 0.33048 0.0
C395 C 0.77713 0.91766 0.41263 0.0
H396 H 0.80284 0.9432 0.23455 0.0
C397 C 0.79557 0.93598 0.46184 0.0
H398 H 0.7658 0.90683 0.29121 0.0
C399 C 0.8163 0.95714 0.4294 0.0
C400 C 0.81937 0.9598 0.34724 0.0
H401 H 0.79394 0.93398 0.52532 0.0
H402 H 0.8304 0.97095 0.46865 0.0
C403 C 0.80091 0.9415 0.29803 0.0
C404 C 0.32379 0.63342 0.67877 0.0
C405 C 0.3203 0.63471 0.59668 0.0
H406 H 0.34347 0.61314 0.77486 0.0
C407 C 0.3379 0.61981 0.54749 0.0
H408 H 0.31065 0.64504 0.71787 0.0
C409 C 0.35634 0.60127 0.58011 0.0
C410 C 0.35776 0.59787 0.66222 0.0
H411 H 0.33568 0.62056 0.48403 0.0
H412 H 0.36811 0.58826 0.54102 0.0
C413 C 0.34264 0.61529 0.71139 0.0
C414 C 0.66458 0.07783 0.96261 0.0
C415 C 0.68293 0.09616 0.91315 0.0
H416 H 0.62969 0.04296 0.9699 0.0
C417 C 0.68011 0.09313 0.83103 0.0
H418 H 0.66641 0.07974 0.02607 0.0
C419 C 0.65874 0.07255 0.79887 0.0
C420 C 0.64038 0.05423 0.84834 0.0
H421 H 0.69394 0.10713 0.7916 0.0
H422 H 0.65663 0.07093 0.73542 0.0
C423 C 0.6437 0.05677 0.93044 0.0
C424 C 0.14415 0.55611 0.42919 0.0
C425 C 0.14099 0.55348 0.34707 0.0
H426 H 0.16681 0.57907 0.52492 0.0
C427 C 0.15963 0.57155 0.29769 0.0
H428 H 0.12993 0.54249 0.46858 0.0
C429 C 0.18109 0.59199 0.32995 0.0
C430 C 0.18374 0.59516 0.41208 0.0
H431 H 0.15764 0.56985 0.23422 0.0
H432 H 0.19511 0.60583 0.29057 0.0
C433 C 0.16514 0.57705 0.46145 0.0
C434 C 0.61865 0.90063 0.71277 0.0
C435 C 0.60358 0.91793 0.66331 0.0
H436 H 0.65045 0.87072 0.71977 0.0
C437 C 0.60516 0.91437 0.58125 0.0
H438 H 0.6177 0.90292 0.77621 0.0
C439 C 0.62354 0.89565 0.54895 0.0
C440 C 0.64095 0.88072 0.5984 0.0
H441 H 0.59345 0.92729 0.54195 0.0
H442 H 0.62578 0.89467 0.48551 0.0
C443 C 0.63744 0.88233 0.68047 0.0
C444 C 0.31544 0.45885 0.92965 0.0
C445 C 0.3186 0.46161 0.84754 0.0
H446 H 0.29311 0.43544 0.02523 0.0
C447 C 0.30026 0.4433 0.79805 0.0
H448 H 0.32945 0.47265 0.96911 0.0
C449 C 0.27912 0.42247 0.83018 0.0
C450 C 0.2765 0.41918 0.91228 0.0
H451 H 0.30225 0.44507 0.73459 0.0
H452 H 0.26533 0.40846 0.7907 0.0
C453 C 0.29479 0.43754 0.96178 0.0
C454 C 0.83664 0.11843 0.04755 0.0
C455 C 0.81936 0.13349 0.09725 0.0
H456 H 0.86657 0.08662 0.04011 0.0
C457 C 0.82298 0.13199 0.17926 0.0
H458 H 0.83431 0.11932 0.98414 0.0
C459 C 0.84173 0.11364 0.21129 0.0
C460 C 0.85663 0.09619 0.16162 0.0
H461 H 0.81007 0.1437 0.21875 0.0
H462 H 0.84274 0.11142 0.27472 0.0
C463 C 0.85498 0.09966 0.07958 0.0
C464 C 0.82195 0.63158 0.8304 0.0
C465 C 0.81824 0.63312 0.91241 0.0
H466 H 0.84205 0.61117 0.73498 0.0
C467 C 0.83568 0.61834 0.96213 0.0
H468 H 0.80892 0.64308 0.7909 0.0
C469 C 0.85429 0.59979 0.93013 0.0
C470 C 0.85606 0.59626 0.8481 0.0
H471 H 0.83327 0.61928 0.02554 0.0
H472 H 0.866 0.58694 0.96962 0.0
C473 C 0.84097 0.61345 0.7984 0.0
C474 C 0.16454 0.07766 0.54696 0.0
C475 C 0.18262 0.09633 0.59622 0.0
H476 H 0.13013 0.04229 0.54004 0.0
C477 C 0.17984 0.09335 0.67837 0.0
H478 H 0.16634 0.07951 0.48348 0.0
C479 C 0.15878 0.0725 0.71075 0.0
C480 C 0.14067 0.05386 0.66149 0.0
H481 H 0.19348 0.10759 0.71766 0.0
H482 H 0.15668 0.07094 0.77422 0.0
C483 C 0.14396 0.05635 0.57935 0.0
C484 C 0.6223 0.3943 0.46243 0.0
C485 C 0.63994 0.37956 0.41294 0.0
H486 H 0.59191 0.42566 0.46951 0.0
C487 C 0.63644 0.38103 0.33088 0.0
H488 H 0.62453 0.3934 0.52587 0.0
C489 C 0.61748 0.39912 0.29862 0.0
C490 C 0.60225 0.41633 0.34813 0.0
H491 H 0.64962 0.36955 0.29155 0.0
H492 H 0.6166 0.40139 0.23519 0.0
C493 C 0.60375 0.4128 0.43017 0.0
C494 C 0.30004 0.9404 0.21212 0.0
C495 C 0.3187 0.95865 0.1632 0.0
H496 H 0.26457 0.90608 0.21836 0.0
C497 C 0.31562 0.95625 0.08101 0.0
H498 H 0.30197 0.94191 0.27563 0.0
C499 C 0.29467 0.93541 0.04822 0.0
C500 C 0.27602 0.91715 0.09712 0.0
H501 H 0.32985 0.97001 0.04197 0.0
H502 H 0.29303 0.9336 0.98471 0.0
C503 C 0.27862 0.92004 0.17933 0.0
C504 C 0.79502 0.43663 0.54825 0.0
C505 C 0.77646 0.41844 0.59755 0.0
H506 H 0.8301 0.47133 0.54126 0.0
C507 C 0.77906 0.42161 0.67969 0.0
H508 H 0.79338 0.43461 0.48478 0.0
C509 C 0.80042 0.44214 0.71204 0.0
C510 C 0.81901 0.46029 0.66273 0.0
H511 H 0.76507 0.40772 0.71902 0.0
H512 H 0.80237 0.44384 0.77551 0.0
C513 C 0.81591 0.45764 0.58059 0.0
C514 C 0.32242 0.13097 0.33013 0.0
C515 C 0.3186 0.1327 0.41207 0.0
H516 H 0.34226 0.11002 0.23522 0.0
C517 C 0.33557 0.11755 0.46221 0.0
H518 H 0.30974 0.14273 0.29032 0.0
C519 C 0.3538 0.09853 0.43068 0.0
C520 C 0.35568 0.09489 0.34871 0.0
H521 H 0.33306 0.11861 0.52557 0.0
H522 H 0.36515 0.08546 0.47048 0.0
C523 C 0.34108 0.11237 0.29861 0.0
C524 C 0.65842 0.57108 0.21176 0.0
C525 C 0.64006 0.55266 0.16258 0.0
H526 H 0.69329 0.60599 0.21852 0.0
C527 C 0.64308 0.55534 0.08042 0.0
H528 H 0.65653 0.56936 0.27525 0.0
C529 C 0.66365 0.57666 0.04794 0.0
C530 C 0.68198 0.59511 0.09713 0.0
H531 H 0.62906 0.54146 0.04119 0.0
H532 H 0.66524 0.57868 0.98446 0.0
C533 C 0.67947 0.59191 0.17927 0.0
C534 C 0.13627 0.88122 0.82894 0.0
C535 C 0.13975 0.87968 0.91099 0.0
H536 H 0.11675 0.90189 0.73328 0.0
C537 C 0.12239 0.89472 0.96051 0.0
H538 H 0.14924 0.86951 0.78959 0.0
C539 C 0.10415 0.91355 0.92828 0.0
C540 C 0.10268 0.91709 0.84623 0.0
H541 H 0.12461 0.8938 0.02394 0.0
H542 H 0.09252 0.9266 0.96763 0.0
C543 C 0.11762 0.89962 0.79671 0.0
loop_
_geom_bond_atom_site_label_1
_geom_bond_atom_site_label_2
_geom_bond_distance
_geom_bond_site_symmetry_2
_ccdc_geom_bond_type
C0 O1 1.306 . S
C0 O3 1.160 . S
O1 C0 1.306 . S
O1 Cd2 2.228 . S
Cd2 O1 2.228 . S
Cd2 O6 2.273 . S
Cd2 O10 2.277 1_554 S
O3 C0 1.160 . S
O3 Cd4 2.203 . S
Cd4 O3 2.203 . S
Cd4 O6 2.411 . S
Cd4 O7 2.333 1_554 S
Cd4 O8 2.352 . S
Cd4 O12 2.277 1_554 S
Cd4 O13 2.356 . S
C5 O10 1.209 . S
C5 O12 1.226 . S
O6 Cd2 2.273 . S
O6 Cd4 2.411 . S
O6 C9 1.320 1_554 S
O7 Cd4 2.333 1_556 S
O7 C9 1.214 . S
O8 Cd4 2.352 . S
O8 C11 1.258 . S
C9 O6 1.320 1_556 S
C9 O7 1.214 . S
O10 Cd2 2.277 1_556 S
O10 C5 1.209 . S
C11 O8 1.258 . S
C11 O13 1.282 . S
O12 Cd4 2.277 1_556 S
O12 C5 1.226 . S
O13 Cd4 2.356 . S
O13 C11 1.282 . S
C14 O15 1.306 1_545 S
C14 O17 1.160 . S
O15 C14 1.306 1_565 S
O15 Cd16 2.228 . S
Cd16 O15 2.228 . S
Cd16 O20 2.273 . S
Cd16 O24 2.248 1_565 S
O17 C14 1.160 . S
O17 Cd18 2.203 . S
Cd18 O17 2.203 . S
Cd18 O20 2.411 1_545 S
Cd18 O21 2.333 . S
Cd18 O22 2.352 . S
Cd18 O26 2.277 . S
Cd18 O27 2.356 . S
C19 O24 1.241 . S
C19 O26 1.226 . S
O20 Cd16 2.273 . S
O20 Cd18 2.411 1_565 S
O20 C23 1.320 . S
O21 Cd18 2.333 . S
O21 C23 1.214 1_545 S
O22 Cd18 2.352 . S
O22 C25 1.258 . S
C23 O20 1.320 . S
C23 O21 1.214 1_565 S
O24 Cd16 2.248 1_545 S
O24 C19 1.241 . S
C25 O22 1.258 . S
C25 O27 1.282 . S
O26 Cd18 2.277 . S
O26 C19 1.226 . S
O27 Cd18 2.356 . S
O27 C25 1.282 . S
C28 O29 1.306 . S
C28 O31 1.160 . S
O29 C28 1.306 . S
O29 Cd30 2.228 . S
Cd30 O29 2.228 . S
Cd30 O34 2.273 . S
Cd30 O38 2.277 . S
O31 C28 1.160 . S
O31 Cd32 2.203 . S
Cd32 O31 2.203 . S
Cd32 O34 2.411 . S
Cd32 O35 2.333 . S
Cd32 O36 2.352 . S
Cd32 O40 2.277 . S
Cd32 O41 2.356 . S
C33 O38 1.209 . S
C33 O40 1.226 . S
O34 Cd30 2.273 . S
O34 Cd32 2.411 . S
O34 C37 1.320 . S
O35 Cd32 2.333 . S
O35 C37 1.214 . S
O36 Cd32 2.352 . S
O36 C39 1.258 . S
C37 O34 1.320 . S
C37 O35 1.214 . S
O38 Cd30 2.277 . S
O38 C33 1.209 . S
C39 O36 1.258 . S
C39 O41 1.282 . S
O40 Cd32 2.277 . S
O40 C33 1.226 . S
O41 Cd32 2.356 . S
O41 C39 1.282 . S
C42 O43 1.306 . S
C42 O45 1.160 . S
O43 C42 1.306 . S
O43 Cd44 2.228 . S
Cd44 O43 2.228 . S
Cd44 O48 2.273 . S
Cd44 O52 2.277 . S
O45 C42 1.160 . S
O45 Cd46 2.203 . S
Cd46 O45 2.203 . S
Cd46 O48 2.411 . S
Cd46 O49 2.333 . S
Cd46 O50 2.351 1_545 S
Cd46 O54 2.277 1_545 S
Cd46 O55 2.356 1_545 S
C47 O52 1.209 . S
C47 O54 1.226 1_545 S
O48 Cd44 2.273 . S
O48 Cd46 2.411 . S
O48 C51 1.320 . S
O49 Cd46 2.333 . S
O49 C51 1.214 . S
O50 Cd46 2.351 1_565 S
O50 C53 1.260 . S
C51 O48 1.320 . S
C51 O49 1.214 . S
O52 Cd44 2.277 . S
O52 C47 1.209 . S
C53 O50 1.260 . S
C53 O55 1.282 . S
O54 Cd46 2.277 1_565 S
O54 C47 1.226 1_565 S
O55 Cd46 2.356 1_565 S
O55 C53 1.282 . S
C56 O57 1.306 . S
C56 O59 1.160 . S
O57 C56 1.306 . S
O57 Cd58 2.228 1_556 S
Cd58 O57 2.228 1_554 S
Cd58 O62 2.273 . S
Cd58 O66 2.277 . S
O59 C56 1.160 . S
O59 Cd60 2.203 1_556 S
Cd60 O59 2.203 1_554 S
Cd60 O62 2.411 . S
Cd60 O63 2.333 . S
Cd60 O64 2.352 1_554 S
Cd60 O68 2.277 . S
Cd60 O69 2.356 . S
C61 O66 1.209 . S
C61 O68 1.226 . S
O62 Cd58 2.273 . S
O62 Cd60 2.411 . S
O62 C65 1.320 . S
O63 Cd60 2.333 . S
O63 C65 1.214 . S
O64 Cd60 2.352 1_556 S
O64 C67 1.258 . S
C65 O62 1.320 . S
C65 O63 1.214 . S
O66 Cd58 2.277 . S
O66 C61 1.209 . S
C67 O64 1.258 . S
C67 O69 1.282 1_556 S
O68 Cd60 2.277 . S
O68 C61 1.226 . S
O69 Cd60 2.356 . S
O69 C67 1.282 1_554 S
C70 O71 1.306 . S
C70 O73 1.160 . S
O71 C70 1.306 . S
O71 Cd72 2.228 . S
Cd72 O71 2.228 . S
Cd72 O76 2.273 . S
Cd72 O80 2.277 . S
O73 C70 1.160 . S
O73 Cd74 2.203 . S
Cd74 O73 2.203 . S
Cd74 O76 2.411 . S
Cd74 O77 2.333 . S
Cd74 O78 2.351 1_545 S
Cd74 O82 2.277 1_545 S
Cd74 O83 2.356 1_545 S
C75 O80 1.209 . S
C75 O82 1.226 1_545 S
O76 Cd72 2.273 . S
O76 Cd74 2.411 . S
O76 C79 1.320 . S
O77 Cd74 2.333 . S
O77 C79 1.214 . S
O78 Cd74 2.351 1_565 S
O78 C81 1.260 . S
C79 O76 1.320 . S
C79 O77 1.214 . S
O80 Cd72 2.277 . S
O80 C75 1.209 . S
C81 O78 1.260 . S
C81 O83 1.282 . S
O82 Cd74 2.277 1_565 S
O82 C75 1.226 1_565 S
O83 Cd74 2.356 1_565 S
O83 C81 1.282 . S
C84 O85 1.306 . S
C84 O87 1.160 . S
O85 C84 1.306 . S
O85 Cd86 2.228 . S
Cd86 O85 2.228 . S
Cd86 O90 2.273 . S
Cd86 O94 2.277 . S
O87 C84 1.160 . S
O87 Cd88 2.203 . S
Cd88 O87 2.203 . S
Cd88 O90 2.411 . S
Cd88 O91 2.333 . S
Cd88 O92 2.352 . S
Cd88 O96 2.277 . S
Cd88 O97 2.356 . S
C89 O94 1.209 . S
C89 O96 1.226 . S
O90 Cd86 2.273 . S
O90 Cd88 2.411 . S
O90 C93 1.320 . S
O91 Cd88 2.333 . S
O91 C93 1.214 . S
O92 Cd88 2.352 . S
O92 C95 1.258 . S
C93 O90 1.320 . S
C93 O91 1.214 . S
O94 Cd86 2.277 . S
O94 C89 1.209 . S
C95 O92 1.258 . S
C95 O97 1.282 . S
O96 Cd88 2.277 . S
O96 C89 1.226 . S
O97 Cd88 2.356 . S
O97 C95 1.282 . S
C98 O99 1.306 1_545 S
C98 O101 1.160 . S
O99 C98 1.306 1_565 S
O99 Cd100 2.228 . S
Cd100 O99 2.228 . S
Cd100 O104 2.273 . S
Cd100 O108 2.248 1_565 S
O101 C98 1.160 . S
O101 Cd102 2.203 . S
Cd102 O101 2.203 . S
Cd102 O104 2.411 1_545 S
Cd102 O105 2.333 . S
Cd102 O106 2.352 . S
Cd102 O110 2.277 . S
Cd102 O111 2.356 . S
C103 O108 1.241 . S
C103 O110 1.226 . S
O104 Cd100 2.273 . S
O104 Cd102 2.411 1_565 S
O104 C107 1.320 . S
O105 Cd102 2.333 . S
O105 C107 1.214 1_545 S
O106 Cd102 2.352 . S
O106 C109 1.258 . S
C107 O104 1.320 . S
C107 O105 1.214 1_565 S
O108 Cd100 2.248 1_545 S
O108 C103 1.241 . S
C109 O106 1.258 . S
C109 O111 1.282 . S
O110 Cd102 2.277 . S
O110 C103 1.226 . S
O111 Cd102 2.356 . S
O111 C109 1.282 . S
C112 O113 1.306 . S
C112 O115 1.160 . S
O113 C112 1.306 . S
O113 Cd114 2.228 . S
Cd114 O113 2.228 . S
Cd114 O118 2.273 . S
Cd114 O122 2.277 . S
O115 C112 1.160 . S
O115 Cd116 2.203 . S
Cd116 O115 2.203 . S
Cd116 O118 2.411 . S
Cd116 O119 2.333 . S
Cd116 O120 2.352 . S
Cd116 O124 2.277 . S
Cd116 O125 2.356 . S
C117 O122 1.209 . S
C117 O124 1.226 . S
O118 Cd114 2.273 . S
O118 Cd116 2.411 . S
O118 C121 1.320 . S
O119 Cd116 2.333 . S
O119 C121 1.214 . S
O120 Cd116 2.352 . S
O120 C123 1.258 . S
C121 O118 1.320 . S
C121 O119 1.214 . S
O122 Cd114 2.277 . S
O122 C117 1.209 . S
C123 O120 1.258 . S
C123 O125 1.282 . S
O124 Cd116 2.277 . S
O124 C117 1.226 . S
O125 Cd116 2.356 . S
O125 C123 1.282 . S
C126 O127 1.306 . S
C126 O129 1.160 . S
O127 C126 1.306 . S
O127 Cd128 2.228 . S
Cd128 O127 2.228 . S
Cd128 O132 2.273 . S
Cd128 O136 2.277 . S
O129 C126 1.160 . S
O129 Cd130 2.203 . S
Cd130 O129 2.203 . S
Cd130 O132 2.411 . S
Cd130 O133 2.333 . S
Cd130 O134 2.352 . S
Cd130 O138 2.277 . S
Cd130 O139 2.356 . S
C131 O136 1.209 . S
C131 O138 1.226 . S
O132 Cd128 2.273 . S
O132 Cd130 2.411 . S
O132 C135 1.320 . S
O133 Cd130 2.333 . S
O133 C135 1.214 . S
O134 Cd130 2.352 . S
O134 C137 1.258 . S
C135 O132 1.320 . S
C135 O133 1.214 . S
O136 Cd128 2.277 . S
O136 C131 1.209 . S
C137 O134 1.258 . S
C137 O139 1.282 . S
O138 Cd130 2.277 . S
O138 C131 1.226 . S
O139 Cd130 2.356 . S
O139 C137 1.282 . S
C140 O141 1.306 . S
C140 O143 1.160 . S
O141 C140 1.306 . S
O141 Cd142 2.228 . S
Cd142 O141 2.228 . S
Cd142 O146 2.273 . S
Cd142 O150 2.277 1_554 S
O143 C140 1.160 . S
O143 Cd144 2.203 . S
Cd144 O143 2.203 . S
Cd144 O146 2.411 . S
Cd144 O147 2.333 1_554 S
Cd144 O148 2.352 . S
Cd144 O152 2.277 1_554 S
Cd144 O153 2.356 . S
C145 O150 1.209 . S
C145 O152 1.226 . S
O146 Cd142 2.273 . S
O146 Cd144 2.411 . S
O146 C149 1.320 1_554 S
O147 Cd144 2.333 1_556 S
O147 C149 1.214 . S
O148 Cd144 2.352 . S
O148 C151 1.258 . S
C149 O146 1.320 1_556 S
C149 O147 1.214 . S
O150 Cd142 2.277 1_556 S
O150 C145 1.209 . S
C151 O148 1.258 . S
C151 O153 1.282 . S
O152 Cd144 2.277 1_556 S
O152 C145 1.226 . S
O153 Cd144 2.356 . S
O153 C151 1.282 . S
C154 O155 1.306 . S
C154 O157 1.160 . S
O155 C154 1.306 . S
O155 Cd156 2.228 . S
Cd156 O155 2.228 . S
Cd156 O160 2.273 . S
Cd156 O164 2.277 . S
O157 C154 1.160 . S
O157 Cd158 2.203 . S
Cd158 O157 2.203 . S
Cd158 O160 2.411 . S
Cd158 O161 2.333 . S
Cd158 O162 2.352 . S
Cd158 O166 2.277 . S
Cd158 O167 2.356 . S
C159 O164 1.209 . S
C159 O166 1.226 . S
O160 Cd156 2.273 . S
O160 Cd158 2.411 . S
O160 C163 1.320 . S
O161 Cd158 2.333 . S
O161 C163 1.214 . S
O162 Cd158 2.352 . S
O162 C165 1.258 . S
C163 O160 1.320 . S
C163 O161 1.214 . S
O164 Cd156 2.277 . S
O164 C159 1.209 . S
C165 O162 1.258 . S
C165 O167 1.282 . S
O166 Cd158 2.277 . S
O166 C159 1.226 . S
O167 Cd158 2.356 . S
O167 C165 1.282 . S
C168 O169 1.306 . S
C168 O171 1.160 . S
O169 C168 1.306 . S
O169 Cd170 2.228 . S
Cd170 O169 2.228 . S
Cd170 O174 2.273 . S
Cd170 O178 2.277 . S
O171 C168 1.160 . S
O171 Cd172 2.203 . S
Cd172 O171 2.203 . S
Cd172 O174 2.411 . S
Cd172 O175 2.333 . S
Cd172 O176 2.352 . S
Cd172 O180 2.277 . S
Cd172 O181 2.356 . S
C173 O178 1.209 . S
C173 O180 1.226 . S
O174 Cd170 2.273 . S
O174 Cd172 2.411 . S
O174 C177 1.320 . S
O175 Cd172 2.333 . S
O175 C177 1.214 . S
O176 Cd172 2.352 . S
O176 C179 1.258 . S
C177 O174 1.320 . S
C177 O175 1.214 . S
O178 Cd170 2.277 . S
O178 C173 1.209 . S
C179 O176 1.258 . S
C179 O181 1.282 . S
O180 Cd172 2.277 . S
O180 C173 1.226 . S
O181 Cd172 2.356 . S
O181 C179 1.282 . S
C182 O183 1.306 . S
C182 O185 1.160 . S
O183 C182 1.306 . S
O183 Cd184 2.228 . S
Cd184 O183 2.228 . S
Cd184 O188 2.273 . S
Cd184 O192 2.277 . S
O185 C182 1.160 . S
O185 Cd186 2.203 . S
Cd186 O185 2.203 . S
Cd186 O188 2.411 . S
Cd186 O189 2.333 . S
Cd186 O190 2.352 . S
Cd186 O194 2.277 . S
Cd186 O195 2.356 . S
C187 O192 1.209 . S
C187 O194 1.226 . S
O188 Cd184 2.273 . S
O188 Cd186 2.411 . S
O188 C191 1.320 . S
O189 Cd186 2.333 . S
O189 C191 1.214 . S
O190 Cd186 2.352 . S
O190 C193 1.258 . S
C191 O188 1.320 . S
C191 O189 1.214 . S
O192 Cd184 2.277 . S
O192 C187 1.209 . S
C193 O190 1.258 . S
C193 O195 1.282 . S
O194 Cd186 2.277 . S
O194 C187 1.226 . S
O195 Cd186 2.356 . S
O195 C193 1.282 . S
C196 O197 1.306 . S
C196 O199 1.160 . S
O197 C196 1.306 . S
O197 Cd198 2.228 1_556 S
Cd198 O197 2.228 1_554 S
Cd198 O202 2.273 . S
Cd198 O206 2.277 . S
O199 C196 1.160 . S
O199 Cd200 2.203 1_556 S
Cd200 O199 2.203 1_554 S
Cd200 O202 2.411 . S
Cd200 O203 2.333 . S
Cd200 O204 2.352 1_554 S
Cd200 O208 2.277 . S
Cd200 O209 2.356 . S
C201 O206 1.209 . S
C201 O208 1.226 . S
O202 Cd198 2.273 . S
O202 Cd200 2.411 . S
O202 C205 1.320 . S
O203 Cd200 2.333 . S
O203 C205 1.214 . S
O204 Cd200 2.352 1_556 S
O204 C207 1.258 . S
C205 O202 1.320 . S
C205 O203 1.214 . S
O206 Cd198 2.277 . S
O206 C201 1.209 . S
C207 O204 1.258 . S
C207 O209 1.282 1_556 S
O208 Cd200 2.277 . S
O208 C201 1.226 . S
O209 Cd200 2.356 . S
O209 C207 1.282 1_554 S
C210 O211 1.306 . S
C210 O213 1.160 . S
O211 C210 1.306 . S
O211 Cd212 2.228 . S
Cd212 O211 2.228 . S
Cd212 O216 2.273 . S
Cd212 O220 2.277 . S
O213 C210 1.160 . S
O213 Cd214 2.203 . S
Cd214 O213 2.203 . S
Cd214 O216 2.411 . S
Cd214 O217 2.333 . S
Cd214 O218 2.352 . S
Cd214 O222 2.277 . S
Cd214 O223 2.356 . S
C215 O220 1.209 . S
C215 O222 1.226 . S
O216 Cd212 2.273 . S
O216 Cd214 2.411 . S
O216 C219 1.320 . S
O217 Cd214 2.333 . S
O217 C219 1.214 . S
O218 Cd214 2.352 . S
O218 C221 1.258 . S
C219 O216 1.320 . S
C219 O217 1.214 . S
O220 Cd212 2.277 . S
O220 C215 1.209 . S
C221 O218 1.258 . S
C221 O223 1.282 . S
O222 Cd214 2.277 . S
O222 C215 1.226 . S
O223 Cd214 2.356 . S
O223 C221 1.282 . S
C224 C225 1.387 . S
C224 H228 0.950 . S
C224 C233 1.390 . S
C225 C224 1.387 . S
C225 C227 1.387 . S
H226 C233 0.950 . S
C227 C225 1.387 . S
C227 C229 1.390 . S
C227 H231 0.950 . S
H228 C224 0.950 . S
C229 C227 1.390 . S
C229 C230 1.387 . S
C229 H232 0.950 . S
C230 C229 1.387 . S
C230 C233 1.387 . S
H231 C227 0.950 . S
H232 C229 0.950 . S
C233 C224 1.390 . S
C233 H226 0.950 . S
C233 C230 1.387 . S
C234 C235 1.387 1_565 S
C234 H238 0.950 . S
C234 C243 1.390 1_655 S
C235 C234 1.387 1_545 S
C235 C237 1.387 . S
H236 C243 0.950 . S
C237 C235 1.387 . S
C237 C239 1.390 1_655 S
C237 H241 0.950 . S
H238 C234 0.950 . S
C239 C237 1.390 1_455 S
C239 C240 1.387 . S
C239 H242 0.950 . S
C240 C239 1.387 . S
C240 C243 1.387 1_545 S
H241 C237 0.950 . S
H242 C239 0.950 . S
C243 C234 1.390 1_455 S
C243 H236 0.950 . S
C243 C240 1.387 1_565 S
C244 C245 1.387 . S
C244 H248 0.950 . S
C244 C253 1.390 . S
C245 C244 1.387 . S
C245 C247 1.387 . S
H246 C253 0.950 . S
C247 C245 1.387 . S
C247 C249 1.390 . S
C247 H251 0.950 . S
H248 C244 0.950 . S
C249 C247 1.390 . S
C249 C250 1.387 . S
C249 H252 0.950 . S
C250 C249 1.387 . S
C250 C253 1.387 . S
H251 C247 0.950 . S
H252 C249 0.950 . S
C253 C244 1.390 . S
C253 H246 0.950 . S
C253 C250 1.387 . S
C254 C255 1.387 1_565 S
C254 H258 0.950 . S
C254 C263 1.390 1_554 S
C255 C254 1.387 1_545 S
C255 C257 1.387 . S
H256 C263 0.950 . S
C257 C255 1.387 . S
C257 C259 1.390 1_554 S
C257 H261 0.950 . S
H258 C254 0.950 . S
C259 C257 1.390 1_556 S
C259 C260 1.387 . S
C259 H262 0.950 . S
C260 C259 1.387 . S
C260 C263 1.387 1_545 S
H261 C257 0.950 . S
H262 C259 0.950 . S
C263 C254 1.390 1_556 S
C263 H256 0.950 . S
C263 C260 1.387 1_565 S
C264 C265 1.387 . S
C264 H268 0.950 . S
C264 C273 1.390 . S
C265 C264 1.387 . S
C265 C267 1.387 . S
H266 C273 0.950 . S
C267 C265 1.387 . S
C267 C269 1.390 . S
C267 H271 0.950 . S
H268 C264 0.950 . S
C269 C267 1.390 . S
C269 C270 1.387 . S
C269 H272 0.950 . S
C270 C269 1.387 . S
C270 C273 1.387 . S
H271 C267 0.950 . S
H272 C269 0.950 . S
C273 C264 1.390 . S
C273 H266 0.950 . S
C273 C270 1.387 . S
C274 C275 1.387 1_565 S
C274 H278 0.950 . S
C274 C283 1.390 . S
C275 C274 1.387 1_545 S
C275 C277 1.387 . S
H276 C283 0.950 . S
C277 C275 1.387 . S
C277 C279 1.390 . S
C277 H281 0.950 . S
H278 C274 0.950 . S
C279 C277 1.390 . S
C279 C280 1.387 . S
C279 H282 0.950 . S
C280 C279 1.387 . S
C280 C283 1.387 1_545 S
H281 C277 0.950 . S
H282 C279 0.950 . S
C283 C274 1.390 . S
C283 H276 0.950 . S
C283 C280 1.387 1_565 S
C284 C285 1.387 . S
C284 H288 0.950 . S
C284 C293 1.390 . S
C285 C284 1.387 . S
C285 C287 1.387 . S
H286 C293 0.950 . S
C287 C285 1.387 . S
C287 C289 1.390 . S
C287 H291 0.950 . S
H288 C284 0.950 . S
C289 C287 1.390 . S
C289 C290 1.387 . S
C289 H292 0.950 . S
C290 C289 1.387 . S
C290 C293 1.387 . S
H291 C287 0.950 . S
H292 C289 0.950 . S
C293 C284 1.390 . S
C293 H286 0.950 . S
C293 C290 1.387 . S
C294 C295 1.387 1_565 S
C294 H298 0.950 . S
C294 C303 1.390 1_456 S
C295 C294 1.387 1_545 S
C295 C297 1.387 . S
H296 C303 0.950 . S
C297 C295 1.387 . S
C297 C299 1.390 1_456 S
C297 H301 0.950 . S
H298 C294 0.950 . S
C299 C297 1.390 1_654 S
C299 C300 1.387 . S
C299 H302 0.950 . S
C300 C299 1.387 . S
C300 C303 1.387 1_545 S
H301 C297 0.950 . S
H302 C299 0.950 . S
C303 C294 1.390 1_654 S
C303 H296 0.950 . S
C303 C300 1.387 1_565 S
C304 C305 1.387 . S
C304 H308 0.950 . S
C304 C313 1.390 . S
C305 C304 1.387 . S
C305 C307 1.387 . S
H306 C313 0.950 . S
C307 C305 1.387 . S
C307 C309 1.390 . S
C307 H311 0.950 . S
H308 C304 0.950 . S
C309 C307 1.390 . S
C309 C310 1.387 . S
C309 H312 0.950 . S
C310 C309 1.387 . S
C310 C313 1.387 . S
H311 C307 0.950 . S
H312 C309 0.950 . S
C313 C304 1.390 . S
C313 H306 0.950 . S
C313 C310 1.387 . S
C314 C315 1.387 . S
C314 H318 0.950 . S
C314 C323 1.390 . S
C315 C314 1.387 . S
C315 C317 1.387 . S
H316 C323 0.950 . S
C317 C315 1.387 . S
C317 C319 1.390 . S
C317 H321 0.950 . S
H318 C314 0.950 . S
C319 C317 1.390 . S
C319 C320 1.387 . S
C319 H322 0.950 . S
C320 C319 1.387 . S
C320 C323 1.387 . S
H321 C317 0.950 . S
H322 C319 0.950 . S
C323 C314 1.390 . S
C323 H316 0.950 . S
C323 C320 1.387 . S
C324 C325 1.387 . S
C324 H328 0.950 . S
C324 C333 1.390 . S
C325 C324 1.387 . S
C325 C327 1.387 . S
H326 C333 0.950 . S
C327 C325 1.387 . S
C327 C329 1.390 . S
C327 H331 0.950 . S
H328 C324 0.950 . S
C329 C327 1.390 . S
C329 C330 1.387 . S
C329 H332 0.950 . S
C330 C329 1.387 . S
C330 C333 1.387 . S
H331 C327 0.950 . S
H332 C329 0.950 . S
C333 C324 1.390 . S
C333 H326 0.950 . S
C333 C330 1.387 . S
C334 C335 1.387 . S
C334 H338 0.950 . S
C334 C343 1.390 . S
C335 C334 1.387 . S
C335 C337 1.387 . S
H336 C343 0.950 . S
C337 C335 1.387 . S
C337 C339 1.390 . S
C337 H341 0.950 . S
H338 C334 0.950 . S
C339 C337 1.390 . S
C339 C340 1.387 . S
C339 H342 0.950 . S
C340 C339 1.387 . S
C340 C343 1.387 . S
H341 C337 0.950 . S
H342 C339 0.950 . S
C343 C334 1.390 . S
C343 H336 0.950 . S
C343 C340 1.387 . S
C344 C345 1.387 . S
C344 H348 0.950 . S
C344 C353 1.388 1_554 S
C345 C344 1.387 . S
C345 C347 1.387 . S
H346 C353 0.950 . S
C347 C345 1.387 . S
C347 C349 1.390 1_554 S
C347 H351 0.950 . S
H348 C344 0.950 . S
C349 C347 1.390 1_556 S
C349 C350 1.387 . S
C349 H352 0.950 . S
C350 C349 1.387 . S
C350 C353 1.389 . S
H351 C347 0.950 . S
H352 C349 0.950 . S
C353 C344 1.388 1_556 S
C353 H346 0.950 . S
C353 C350 1.389 . S
C354 C355 1.387 . S
C354 H358 0.950 . S
C354 C363 1.390 1_455 S
C355 C354 1.387 . S
C355 C357 1.387 . S
H356 C363 0.950 . S
C357 C355 1.387 . S
C357 C359 1.390 1_455 S
C357 H361 0.950 . S
H358 C354 0.950 . S
C359 C357 1.390 1_655 S
C359 C360 1.387 . S
C359 H362 0.950 . S
C360 C359 1.387 . S
C360 C363 1.387 . S
H361 C357 0.950 . S
H362 C359 0.950 . S
C363 C354 1.390 1_655 S
C363 H356 0.950 . S
C363 C360 1.387 . S
C364 C365 1.387 . S
C364 H368 0.950 . S
C364 C373 1.390 1_454 S
C365 C364 1.387 . S
C365 C367 1.387 . S
H366 C373 0.950 . S
C367 C365 1.387 . S
C367 C369 1.390 1_454 S
C367 H371 0.950 . S
H368 C364 0.950 . S
C369 C367 1.390 1_656 S
C369 C370 1.387 . S
C369 H372 0.950 . S
C370 C369 1.387 . S
C370 C373 1.387 . S
H371 C367 0.950 . S
H372 C369 0.950 . S
C373 C364 1.390 1_656 S
C373 H366 0.950 . S
C373 C370 1.387 . S
C374 C375 1.387 . S
C374 H378 0.950 . S
C374 C383 1.390 . S
C375 C374 1.387 . S
C375 C377 1.387 . S
H376 C383 0.950 . S
C377 C375 1.387 . S
C377 C379 1.390 . S
C377 H381 0.950 . S
H378 C374 0.950 . S
C379 C377 1.390 . S
C379 C380 1.387 . S
C379 H382 0.950 . S
C380 C379 1.387 . S
C380 C383 1.387 . S
H381 C377 0.950 . S
H382 C379 0.950 . S
C383 C374 1.390 . S
C383 H376 0.950 . S
C383 C380 1.387 . S
C384 C385 1.387 . S
C384 H388 0.950 . S
C384 C393 1.390 . S
C385 C384 1.387 . S
C385 C387 1.387 . S
H386 C393 0.950 . S
C387 C385 1.387 . S
C387 C389 1.390 . S
C387 H391 0.950 . S
H388 C384 0.950 . S
C389 C387 1.390 . S
C389 C390 1.387 . S
C389 H392 0.950 . S
C390 C389 1.387 . S
C390 C393 1.387 . S
H391 C387 0.950 . S
H392 C389 0.950 . S
C393 C384 1.390 . S
C393 H386 0.950 . S
C393 C390 1.387 . S
C394 C395 1.387 . S
C394 H398 0.950 . S
C394 C403 1.390 . S
C395 C394 1.387 . S
C395 C397 1.387 . S
H396 C403 0.950 . S
C397 C395 1.387 . S
C397 C399 1.390 . S
C397 H401 0.950 . S
H398 C394 0.950 . S
C399 C397 1.390 . S
C399 C400 1.387 . S
C399 H402 0.950 . S
C400 C399 1.387 . S
C400 C403 1.387 . S
H401 C397 0.950 . S
H402 C399 0.950 . S
C403 C394 1.390 . S
C403 H396 0.950 . S
C403 C400 1.387 . S
C404 C405 1.387 . S
C404 H408 0.950 . S
C404 C413 1.390 . S
C405 C404 1.387 . S
C405 C407 1.387 . S
H406 C413 0.950 . S
C407 C405 1.387 . S
C407 C409 1.390 . S
C407 H411 0.950 . S
H408 C404 0.950 . S
C409 C407 1.390 . S
C409 C410 1.387 . S
C409 H412 0.950 . S
C410 C409 1.387 . S
C410 C413 1.387 . S
H411 C407 0.950 . S
H412 C409 0.950 . S
C413 C404 1.390 . S
C413 H406 0.950 . S
C413 C410 1.387 . S
C414 C415 1.387 . S
C414 H418 0.950 1_556 S
C414 C423 1.390 . S
C415 C414 1.387 . S
C415 C417 1.387 . S
H416 C423 0.950 . S
C417 C415 1.387 . S
C417 C419 1.390 . S
C417 H421 0.950 . S
H418 C414 0.950 1_554 S
C419 C417 1.390 . S
C419 C420 1.387 . S
C419 H422 0.950 . S
C420 C419 1.387 . S
C420 C423 1.387 . S
H421 C417 0.950 . S
H422 C419 0.950 . S
C423 C414 1.390 . S
C423 H416 0.950 . S
C423 C420 1.387 . S
C424 C425 1.387 . S
C424 H428 0.950 . S
C424 C433 1.390 . S
C425 C424 1.387 . S
C425 C427 1.387 . S
H426 C433 0.950 . S
C427 C425 1.387 . S
C427 C429 1.390 . S
C427 H431 0.950 . S
H428 C424 0.950 . S
C429 C427 1.390 . S
C429 C430 1.387 . S
C429 H432 0.950 . S
C430 C429 1.387 . S
C430 C433 1.387 . S
H431 C427 0.950 . S
H432 C429 0.950 . S
C433 C424 1.390 . S
C433 H426 0.950 . S
C433 C430 1.387 . S
C434 C435 1.387 . S
C434 H438 0.950 . S
C434 C443 1.390 . S
C435 C434 1.387 . S
C435 C437 1.387 . S
H436 C443 0.950 . S
C437 C435 1.387 . S
C437 C439 1.390 . S
C437 H441 0.950 . S
H438 C434 0.950 . S
C439 C437 1.390 . S
C439 C440 1.387 . S
C439 H442 0.950 . S
C440 C439 1.387 . S
C440 C443 1.387 . S
H441 C437 0.950 . S
H442 C439 0.950 . S
C443 C434 1.390 . S
C443 H436 0.950 . S
C443 C440 1.387 . S
C444 C445 1.387 . S
C444 H448 0.950 . S
C444 C453 1.390 . S
C445 C444 1.387 . S
C445 C447 1.387 . S
H446 C453 0.950 . S
C447 C445 1.387 . S
C447 C449 1.390 . S
C447 H451 0.950 . S
H448 C444 0.950 . S
C449 C447 1.390 . S
C449 C450 1.387 . S
C449 H452 0.950 . S
C450 C449 1.387 . S
C450 C453 1.387 . S
H451 C447 0.950 . S
H452 C449 0.950 . S
C453 C444 1.390 . S
C453 H446 0.950 . S
C453 C450 1.387 . S
C454 C455 1.387 . S
C454 H458 0.950 . S
C454 C463 1.390 . S
C455 C454 1.387 . S
C455 C457 1.387 . S
H456 C463 0.950 . S
C457 C455 1.387 . S
C457 C459 1.390 . S
C457 H461 0.950 . S
H458 C454 0.950 . S
C459 C457 1.390 . S
C459 C460 1.387 . S
C459 H462 0.950 . S
C460 C459 1.387 . S
C460 C463 1.387 . S
H461 C457 0.950 . S
H462 C459 0.950 . S
C463 C454 1.390 . S
C463 H456 0.950 . S
C463 C460 1.387 . S
C464 C465 1.387 . S
C464 H468 0.950 . S
C464 C473 1.390 . S
C465 C464 1.387 . S
C465 C467 1.387 . S
H466 C473 0.950 . S
C467 C465 1.387 . S
C467 C469 1.390 . S
C467 H471 0.950 1_556 S
H468 C464 0.950 . S
C469 C467 1.390 . S
C469 C470 1.387 . S
C469 H472 0.950 . S
C470 C469 1.387 . S
C470 C473 1.387 . S
H471 C467 0.950 1_554 S
H472 C469 0.950 . S
C473 C464 1.390 . S
C473 H466 0.950 . S
C473 C470 1.387 . S
C474 C475 1.387 . S
C474 H478 0.950 . S
C474 C483 1.390 . S
C475 C474 1.387 . S
C475 C477 1.387 . S
H476 C483 0.950 . S
C477 C475 1.387 . S
C477 C479 1.390 . S
C477 H481 0.950 . S
H478 C474 0.950 . S
C479 C477 1.390 . S
C479 C480 1.387 . S
C479 H482 0.950 . S
C480 C479 1.387 . S
C480 C483 1.387 . S
H481 C477 0.950 . S
H482 C479 0.950 . S
C483 C474 1.390 . S
C483 H476 0.950 . S
C483 C480 1.387 . S
C484 C485 1.387 . S
C484 H488 0.950 . S
C484 C493 1.390 . S
C485 C484 1.387 . S
C485 C487 1.387 . S
H486 C493 0.950 . S
C487 C485 1.387 . S
C487 C489 1.390 . S
C487 H491 0.950 . S
H488 C484 0.950 . S
C489 C487 1.390 . S
C489 C490 1.387 . S
C489 H492 0.950 . S
C490 C489 1.387 . S
C490 C493 1.387 . S
H491 C487 0.950 . S
H492 C489 0.950 . S
C493 C484 1.390 . S
C493 H486 0.950 . S
C493 C490 1.387 . S
C494 C495 1.387 . S
C494 H498 0.950 . S
C494 C503 1.390 . S
C495 C494 1.387 . S
C495 C497 1.387 . S
H496 C503 0.950 . S
C497 C495 1.387 . S
C497 C499 1.390 . S
C497 H501 0.950 . S
H498 C494 0.950 . S
C499 C497 1.390 . S
C499 C500 1.387 . S
C499 H502 0.950 . S
C500 C499 1.387 . S
C500 C503 1.387 . S
H501 C497 0.950 . S
H502 C499 0.950 . S
C503 C494 1.390 . S
C503 H496 0.950 . S
C503 C500 1.387 . S
C504 C505 1.387 . S
C504 H508 0.950 . S
C504 C513 1.390 . S
C505 C504 1.387 . S
C505 C507 1.387 . S
H506 C513 0.950 . S
C507 C505 1.387 . S
C507 C509 1.390 . S
C507 H511 0.950 . S
H508 C504 0.950 . S
C509 C507 1.390 . S
C509 C510 1.387 . S
C509 H512 0.950 . S
C510 C509 1.387 . S
C510 C513 1.387 . S
H511 C507 0.950 . S
H512 C509 0.950 . S
C513 C504 1.390 . S
C513 H506 0.950 . S
C513 C510 1.387 . S
C514 C515 1.387 . S
C514 H518 0.950 . S
C514 C523 1.390 . S
C515 C514 1.387 . S
C515 C517 1.387 . S
H516 C523 0.950 . S
C517 C515 1.387 . S
C517 C519 1.390 . S
C517 H521 0.950 . S
H518 C514 0.950 . S
C519 C517 1.390 . S
C519 C520 1.387 . S
C519 H522 0.950 . S
C520 C519 1.387 . S
C520 C523 1.387 . S
H521 C517 0.950 . S
H522 C519 0.950 . S
C523 C514 1.390 . S
C523 H516 0.950 . S
C523 C520 1.387 . S
C524 C525 1.387 . S
C524 H528 0.950 . S
C524 C533 1.390 . S
C525 C524 1.387 . S
C525 C527 1.387 . S
H526 C533 0.950 . S
C527 C525 1.387 . S
C527 C529 1.390 . S
C527 H531 0.950 . S
H528 C524 0.950 . S
C529 C527 1.390 . S
C529 C530 1.387 . S
C529 H532 0.950 . S
C530 C529 1.387 . S
C530 C533 1.387 . S
H531 C527 0.950 . S
H532 C529 0.950 . S
C533 C524 1.390 . S
C533 H526 0.950 . S
C533 C530 1.387 . S
C534 C535 1.387 . S
C534 H538 0.950 . S
C534 C543 1.390 . S
C535 C534 1.387 . S
C535 C537 1.387 . S
H536 C543 0.950 . S
C537 C535 1.387 . S
C537 C539 1.390 . S
C537 H541 0.950 1_556 S
H538 C534 0.950 . S
C539 C537 1.390 . S
C539 C540 1.387 . S
C539 H542 0.950 . S
C540 C539 1.387 . S
C540 C543 1.387 . S
H541 C537 0.950 1_554 S
H542 C539 0.950 . S
C543 C534 1.390 . S
C543 H536 0.950 . S
C543 C540 1.387 . S
C225 C0 1.455 . S
C230 C168 1.455 . S
C235 C19 1.420 . S
C240 C75 1.420 . S
C245 C28 1.455 . S
C250 C196 1.455 . S
C255 C103 1.421 . S
C260 C47 1.421 . S
C265 C201 1.420 . S
C270 C33 1.420 . S
C275 C98 1.455 . S
C280 C42 1.455 . S
C285 C173 1.421 . S
C290 C5 1.421 . S
C295 C70 1.454 . S
C300 C14 1.455 . S
C305 C56 1.454 . S
C310 C112 1.454 . S
C315 C84 1.455 . S
C320 C140 1.455 . S
C325 C145 1.421 . S
C330 C89 1.421 . S
C335 C61 1.421 . S
C340 C117 1.421 . S
C345 C187 1.420 . S
C350 C131 1.420 . S
C355 C159 1.421 . S
C360 C215 1.421 . S
C365 C154 1.455 . S
C370 C210 1.455 . S
C375 C126 1.456 . S
C380 C182 1.456 . S
C385 C165 1.489 . S
C390 C11 1.489 . S
C395 C121 1.483 . S
C400 C23 1.482 . S
C405 C39 1.489 . S
C410 C137 1.489 . S
C415 C149 1.482 . S
C420 C51 1.483 . S
C425 C163 1.483 . S
C430 C37 1.483 . S
C435 C53 1.489 . S
C440 C123 1.489 . S
C445 C135 1.483 . S
C450 C9 1.482 . S
C455 C151 1.489 . S
C460 C25 1.489 . S
C465 C67 1.489 . S
C470 C221 1.489 . S
C475 C177 1.484 . S
C480 C79 1.483 . S
C485 C95 1.489 . S
C490 C193 1.489 . S
C495 C107 1.483 . S
C500 C205 1.482 . S
C505 C93 1.483 . S
C510 C219 1.482 . S
C515 C179 1.489 . S
C520 C109 1.489 . S
C525 C191 1.483 . S
C530 C65 1.482 . S
C535 C207 1.489 . S
C540 C81 1.489 . S
