# Generated by pormake.
# Topology wkc, (5)-cn, num edge types: 1
# Building blocks:
#     Node 0, Type 0, BuildingBlock: BEQFEK_clean_sbu_0, # of connection points: 5
#     Node 1, Type 0, BuildingBlock: BEQFEK_clean_sbu_0, # of connection points: 5
#     Node 2, Type 0, BuildingBlock: BEQFEK_clean_sbu_0, # of connection points: 5
#     Node 3, Type 0, BuildingBlock: BEQFEK_clean_sbu_0, # of connection points: 5
#     Node 4, Type 0, BuildingBlock: BEQFEK_clean_sbu_0, # of connection points: 5
#     Node 5, Type 0, BuildingBlock: BEQFEK_clean_sbu_0, # of connection points: 5
#     Node 6, Type 0, BuildingBlock: BEQFEK_clean_sbu_0, # of connection points: 5
#     Node 7, Type 0, BuildingBlock: BEQFEK_clean_sbu_0, # of connection points: 5
#     Node 8, Type 0, BuildingBlock: BEQFEK_clean_sbu_0, # of connection points: 5
#     Node 9, Type 0, BuildingBlock: BEQFEK_clean_sbu_0, # of connection points: 5
#     Node 10, Type 0, BuildingBlock: BEQFEK_clean_sbu_0, # of connection points: 5
#     Node 11, Type 0, BuildingBlock: BEQFEK_clean_sbu_0, # of connection points: 5
#     Edge 12, Type (0, 0), BuildingBlock: XIVTED_clean_linker_0, # of connection points: 2
#     Edge 13, Type (0, 0), BuildingBlock: XIVTED_clean_linker_0, # of connection points: 2
#     Edge 14, Type (0, 0), BuildingBlock: XIVTED_clean_linker_0, # of connection points: 2
#     Edge 15, Type (0, 0), BuildingBlock: XIVTED_clean_linker_0, # of connection points: 2
#     Edge 16, Type (0, 0), BuildingBlock: XIVTED_clean_linker_0, # of connection points: 2
#     Edge 17, Type (0, 0), BuildingBlock: XIVTED_clean_linker_0, # of connection points: 2
#     Edge 18, Type (0, 0), BuildingBlock: XIVTED_clean_linker_0, # of connection points: 2
#     Edge 19, Type (0, 0), BuildingBlock: XIVTED_clean_linker_0, # of connection points: 2
#     Edge 20, Type (0, 0), BuildingBlock: XIVTED_clean_linker_0, # of connection points: 2
#     Edge 21, Type (0, 0), BuildingBlock: XIVTED_clean_linker_0, # of connection points: 2
#     Edge 22, Type (0, 0), BuildingBlock: XIVTED_clean_linker_0, # of connection points: 2
#     Edge 23, Type (0, 0), BuildingBlock: XIVTED_clean_linker_0, # of connection points: 2
#     Edge 24, Type (0, 0), BuildingBlock: XIVTED_clean_linker_0, # of connection points: 2
#     Edge 25, Type (0, 0), BuildingBlock: XIVTED_clean_linker_0, # of connection points: 2
#     Edge 26, Type (0, 0), BuildingBlock: XIVTED_clean_linker_0, # of connection points: 2
#     Edge 27, Type (0, 0), BuildingBlock: XIVTED_clean_linker_0, # of connection points: 2
#     Edge 28, Type (0, 0), BuildingBlock: XIVTED_clean_linker_0, # of connection points: 2
#     Edge 29, Type (0, 0), BuildingBlock: XIVTED_clean_linker_0, # of connection points: 2
#     Edge 30, Type (0, 0), BuildingBlock: XIVTED_clean_linker_0, # of connection points: 2
#     Edge 31, Type (0, 0), BuildingBlock: XIVTED_clean_linker_0, # of connection points: 2
#     Edge 32, Type (0, 0), BuildingBlock: XIVTED_clean_linker_0, # of connection points: 2
#     Edge 33, Type (0, 0), BuildingBlock: XIVTED_clean_linker_0, # of connection points: 2
#     Edge 34, Type (0, 0), BuildingBlock: XIVTED_clean_linker_0, # of connection points: 2
#     Edge 35, Type (0, 0), BuildingBlock: XIVTED_clean_linker_0, # of connection points: 2
#     Edge 36, Type (0, 0), BuildingBlock: XIVTED_clean_linker_0, # of connection points: 2
#     Edge 37, Type (0, 0), BuildingBlock: XIVTED_clean_linker_0, # of connection points: 2
#     Edge 38, Type (0, 0), BuildingBlock: XIVTED_clean_linker_0, # of connection points: 2
#     Edge 39, Type (0, 0), BuildingBlock: XIVTED_clean_linker_0, # of connection points: 2
#     Edge 40, Type (0, 0), BuildingBlock: XIVTED_clean_linker_0, # of connection points: 2
#     Edge 41, Type (0, 0), BuildingBlock: XIVTED_clean_linker_0, # of connection points: 2
# Relax obj value: 0.260
# Max RMSD: 0.185
# Mean RMSD: 0.185
data_MOF--net-wkc--node1-BEQFEK_clean_sbu_0--edge1-XIVTED_clean_linker_0
_symmetry_space_group_name_H-M    P1
_symmetry_Int_Tables_number       1
_symmetry_cell_setting            triclinic
loop_
_symmetry_equiv_pos_as_xyz
'x, y, z'
_cell_length_a     40.885804
_cell_length_b     40.922859
_cell_length_c     43.602117
_cell_angle_alpha  89.998242
_cell_angle_beta   89.957275
_cell_angle_gamma 119.8718
loop_
_atom_site_label
_atom_site_type_symbol
_atom_site_fract_x
_atom_site_fract_y
_atom_site_fract_z
_atom_type_partial_charge
Co0 Co 0.25743 0.35393 0.00237 0.0
Co1 Co 0.25429 0.41559 0.04306 0.0
C2 C 0.18436 0.35032 0.01747 0.0
O3 O 0.20232 0.33566 0.0052 0.0
O4 O 0.20124 0.38136 0.03196 0.0
C5 C 0.24251 0.29503 0.95689 0.0
O6 O 0.20638 0.28082 0.96258 0.0
C7 C 0.24145 0.47828 0.05847 0.0
C8 C 0.2798 0.50381 0.09796 0.0
C9 C 0.25506 0.50813 0.07899 0.0
N10 N 0.25811 0.45779 0.06464 0.0
N11 N 0.28059 0.47292 0.08852 0.0
C12 C 0.21235 0.46857 0.03398 0.0
H13 H 0.19227 0.43788 0.03411 0.0
H14 H 0.22625 0.47597 0.01119 0.0
H15 H 0.19636 0.48362 0.0374 0.0
C16 C 0.312 0.42231 0.96835 0.0
N17 N 0.28608 0.4055 0.99067 0.0
N18 N 0.28558 0.43156 0.00799 0.0
C19 C 0.31136 0.46583 0.99736 0.0
C20 C 0.3289 0.46107 0.97186 0.0
C21 C 0.32346 0.40155 0.94659 0.0
H22 H 0.33241 0.38428 0.95993 0.0
H23 H 0.29886 0.38226 0.93233 0.0
H24 H 0.34703 0.42083 0.93145 0.0
O25 O 0.27527 0.34656 0.04281 0.0
O26 O 0.27095 0.38916 0.07148 0.0
H27 H 0.32837 0.50297 0.036 0.0
H28 H 0.34199 0.52705 0.99942 0.0
C29 C 0.31966 0.50236 0.01183 0.0
H30 H 0.29382 0.50463 0.01172 0.0
H31 H 0.29715 0.46261 0.09793 0.0
O32 O 0.26661 0.32391 0.97151 0.0
C33 C 0.27855 0.36269 0.06856 0.0
Co34 Co 0.90571 0.25034 0.16806 0.0
Co35 Co 0.84159 0.2523 0.20615 0.0
C36 C 0.83389 0.17989 0.18421 0.0
O37 O 0.86629 0.19619 0.17161 0.0
O38 O 0.82098 0.1985 0.19791 0.0
C39 C 0.93629 0.24415 0.11061 0.0
O40 O 0.90227 0.23355 0.10027 0.0
C41 C 0.76673 0.23989 0.22262 0.0
C42 C 0.78066 0.2854 0.25624 0.0
C43 C 0.75082 0.25596 0.241 0.0
N44 N 0.80431 0.25938 0.22643 0.0
N45 N 0.81245 0.28627 0.2468 0.0
C46 C 0.74694 0.20541 0.20301 0.0
H47 H 0.7518 0.18323 0.21285 0.0
H48 H 0.75919 0.2117 0.17958 0.0
H49 H 0.7161 0.1942 0.20197 0.0
C50 C 0.89769 0.30935 0.13293 0.0
N51 N 0.8864 0.2822 0.15461 0.0
N52 N 0.8578 0.28077 0.1697 0.0
C53 C 0.84914 0.30573 0.15752 0.0
C54 C 0.87432 0.32496 0.13402 0.0
C55 C 0.93305 0.32373 0.1144 0.0
H56 H 0.95419 0.31938 0.12686 0.0
H57 H 0.92634 0.30839 0.09227 0.0
H58 H 0.94528 0.35419 0.10929 0.0
O59 O 0.92988 0.26714 0.20884 0.0
O60 O 0.88451 0.27002 0.23483 0.0
H61 H 0.82434 0.32548 0.19058 0.0
H62 H 0.81073 0.32738 0.15147 0.0
C63 C 0.81714 0.31085 0.16811 0.0
H64 H 0.79151 0.28296 0.17092 0.0
H65 H 0.83976 0.30561 0.25387 0.0
O66 O 0.9438 0.25268 0.13876 0.0
C67 C 0.91744 0.27412 0.23332 0.0
Co68 Co 0.63695 0.90034 0.33766 0.0
Co69 Co 0.57431 0.83973 0.38031 0.0
C70 C 0.63512 0.82825 0.3536 0.0
O71 O 0.65121 0.86038 0.34056 0.0
O72 O 0.60477 0.81667 0.36884 0.0
C73 C 0.69856 0.94216 0.29389 0.0
O74 O 0.7148 0.92388 0.30487 0.0
C75 C 0.50963 0.76758 0.39878 0.0
C76 C 0.48503 0.785 0.43614 0.0
C77 C 0.47936 0.75418 0.4189 0.0
N78 N 0.5316 0.80478 0.4034 0.0
N79 N 0.5171 0.81493 0.42608 0.0
C80 C 0.5185 0.74561 0.3761 0.0
H81 H 0.51713 0.75496 0.35249 0.0
H82 H 0.49921 0.71483 0.37832 0.0
H83 H 0.54768 0.75146 0.37997 0.0
C84 C 0.56893 0.89104 0.30545 0.0
N85 N 0.58526 0.881 0.32754 0.0
N86 N 0.55884 0.8557 0.34539 0.0
C87 C 0.52482 0.84869 0.33515 0.0
C88 C 0.53012 0.87093 0.30953 0.0
C89 C 0.59042 0.92213 0.28296 0.0
H90 H 0.61122 0.9477 0.29547 0.0
H91 H 0.60604 0.91357 0.2671 0.0
H92 H 0.57173 0.92912 0.26949 0.0
O93 O 0.64833 0.92744 0.37753 0.0
O94 O 0.60475 0.88304 0.40739 0.0
H95 H 0.48683 0.83017 0.37329 0.0
H96 H 0.46353 0.81828 0.3364 0.0
C97 C 0.48799 0.8211 0.34955 0.0
H98 H 0.48577 0.79306 0.35055 0.0
H99 H 0.5285 0.84251 0.43406 0.0
O100 O 0.66743 0.93637 0.30512 0.0
C101 C 0.63288 0.91598 0.40372 0.0
Co102 Co 0.73776 0.64182 0.50077 0.0
Co103 Co 0.74194 0.58147 0.54237 0.0
C104 C 0.8114 0.64698 0.51688 0.0
O105 O 0.79314 0.66108 0.50422 0.0
O106 O 0.79483 0.61602 0.53154 0.0
C107 C 0.75165 0.69791 0.45281 0.0
O108 O 0.78794 0.71066 0.45627 0.0
C109 C 0.75717 0.52131 0.56083 0.0
C110 C 0.71398 0.49234 0.59675 0.0
C111 C 0.74211 0.4905 0.58045 0.0
N112 N 0.7381 0.53988 0.56485 0.0
N113 N 0.71277 0.52279 0.58669 0.0
C114 C 0.7897 0.53377 0.53916 0.0
H115 H 0.81004 0.56404 0.54291 0.0
H116 H 0.77946 0.5305 0.51518 0.0
H117 H 0.80469 0.51773 0.54252 0.0
C118 C 0.68501 0.57251 0.46675 0.0
N119 N 0.71011 0.59007 0.48945 0.0
N120 N 0.71165 0.56462 0.50685 0.0
C121 C 0.68781 0.53004 0.49565 0.0
C122 C 0.67005 0.53388 0.46991 0.0
C123 C 0.67261 0.59228 0.44477 0.0
H124 H 0.69678 0.61142 0.43002 0.0
H125 H 0.64885 0.57233 0.43014 0.0
H126 H 0.66358 0.60963 0.45791 0.0
O127 O 0.71919 0.64945 0.54071 0.0
O128 O 0.72431 0.60782 0.56999 0.0
H129 H 0.67017 0.49047 0.53262 0.0
H130 H 0.66364 0.46922 0.49508 0.0
C131 C 0.68233 0.49407 0.50929 0.0
H132 H 0.70996 0.49546 0.51122 0.0
H133 H 0.69389 0.53131 0.5941 0.0
O134 O 0.72805 0.67092 0.46945 0.0
C135 C 0.7161 0.63381 0.56664 0.0
Co136 Co 0.08534 0.73915 0.67238 0.0
Co137 Co 0.15074 0.73583 0.70716 0.0
C138 C 0.15976 0.80859 0.68513 0.0
O139 O 0.12641 0.7924 0.67442 0.0
O140 O 0.17319 0.78995 0.69798 0.0
C141 C 0.05476 0.74613 0.61581 0.0
O142 O 0.08795 0.75378 0.60528 0.0
C143 C 0.22533 0.745 0.71962 0.0
C144 C 0.21226 0.70194 0.75543 0.0
C145 C 0.24149 0.72918 0.73802 0.0
N146 N 0.18815 0.72746 0.72559 0.0
N147 N 0.18056 0.70196 0.74716 0.0
C148 C 0.24469 0.77769 0.69808 0.0
H149 H 0.24184 0.80147 0.70712 0.0
H150 H 0.23056 0.76995 0.67538 0.0
H151 H 0.27513 0.78744 0.69552 0.0
C152 C 0.0864 0.67629 0.63812 0.0
N153 N 0.10146 0.70514 0.65831 0.0
N154 N 0.13055 0.7057 0.67178 0.0
C155 C 0.13567 0.67817 0.65994 0.0
C156 C 0.10769 0.6584 0.63841 0.0
C157 C 0.04935 0.66253 0.62228 0.0
H158 H 0.03083 0.66966 0.63586 0.0
H159 H 0.05432 0.67606 0.59941 0.0
H160 H 0.03485 0.63156 0.61883 0.0
O161 O 0.0635 0.72412 0.71399 0.0
O162 O 0.1098 0.7206 0.73787 0.0
H163 H 0.16019 0.65759 0.69248 0.0
H164 H 0.16981 0.65183 0.65298 0.0
C165 C 0.16654 0.6707 0.66939 0.0
H166 H 0.19358 0.69761 0.67048 0.0
H167 H 0.15366 0.68435 0.75604 0.0
O168 O 0.04725 0.73865 0.64412 0.0
C169 C 0.07718 0.71745 0.73786 0.0
Co170 Co 0.34602 0.08576 0.83489 0.0
Co171 Co 0.41175 0.14679 0.8746 0.0
C172 C 0.34889 0.15775 0.85161 0.0
O173 O 0.332 0.12583 0.83837 0.0
O174 O 0.37982 0.16875 0.86566 0.0
C175 C 0.30462 0.05596 0.77893 0.0
O176 O 0.32434 0.09074 0.76886 0.0
C177 C 0.47908 0.22002 0.88499 0.0
C178 C 0.5001 0.21081 0.92898 0.0
C179 C 0.50792 0.23743 0.90629 0.0
N180 N 0.45572 0.18458 0.89446 0.0
N181 N 0.46828 0.1793 0.92085 0.0
C182 C 0.47264 0.23715 0.85688 0.0
H183 H 0.44275 0.22136 0.84972 0.0
H184 H 0.48986 0.23612 0.83767 0.0
H185 H 0.48111 0.26709 0.86113 0.0
C186 C 0.41258 0.09415 0.79856 0.0
N187 N 0.39706 0.10411 0.82156 0.0
N188 N 0.42437 0.12919 0.83896 0.0
C189 C 0.45784 0.13568 0.82785 0.0
C190 C 0.45159 0.11427 0.80166 0.0
C191 C 0.39055 0.06585 0.77424 0.0
H192 H 0.37992 0.07879 0.75759 0.0
H193 H 0.40803 0.05677 0.76141 0.0
H194 H 0.36619 0.04088 0.78466 0.0
O195 O 0.33819 0.06082 0.87576 0.0
O196 O 0.38462 0.10517 0.9036 0.0
H197 H 0.51557 0.14974 0.83643 0.0
H198 H 0.50658 0.18836 0.83903 0.0
C199 C 0.49482 0.15803 0.84406 0.0
H200 H 0.49083 0.15354 0.86914 0.0
H201 H 0.45525 0.15414 0.93321 0.0
O202 O 0.30982 0.04788 0.80596 0.0
C203 C 0.35578 0.07251 0.90114 0.0
Co204 Co 0.64635 0.73948 0.81997 0.0
Co205 Co 0.5834 0.74227 0.78093 0.0
C206 C 0.64745 0.8122 0.80545 0.0
O207 O 0.66235 0.79403 0.81683 0.0
O208 O 0.61597 0.79551 0.79158 0.0
C209 C 0.68072 0.74264 0.87827 0.0
O210 O 0.65657 0.75213 0.88898 0.0
C211 C 0.52074 0.75444 0.76336 0.0
C212 C 0.49177 0.71001 0.72843 0.0
C213 C 0.48942 0.7381 0.74427 0.0
N214 N 0.54015 0.73618 0.75944 0.0
N215 N 0.523 0.71006 0.73819 0.0
C216 C 0.53305 0.78761 0.78423 0.0
H217 H 0.53307 0.77886 0.80831 0.0
H218 H 0.51486 0.80046 0.78208 0.0
H219 H 0.56237 0.80928 0.77841 0.0
C220 C 0.57789 0.68074 0.8529 0.0
N221 N 0.5949 0.70859 0.83198 0.0
N222 N 0.56877 0.7113 0.81638 0.0
C223 C 0.53454 0.68633 0.82761 0.0
C224 C 0.53918 0.66603 0.851 0.0
C225 C 0.59753 0.66467 0.8712 0.0
H226 H 0.62351 0.66941 0.85933 0.0
H227 H 0.60499 0.67839 0.89403 0.0
H228 H 0.57878 0.63396 0.87485 0.0
O229 O 0.6539 0.72228 0.77966 0.0
O230 O 0.61061 0.72658 0.75196 0.0
H231 H 0.4918 0.66896 0.79322 0.0
H232 H 0.47434 0.66481 0.83196 0.0
C233 C 0.49811 0.68217 0.81627 0.0
H234 H 0.50065 0.71029 0.8144 0.0
H235 H 0.53211 0.69162 0.73094 0.0
O236 O 0.68081 0.73577 0.84985 0.0
C237 C 0.63735 0.71921 0.75421 0.0
Co238 Co 0.89653 0.63848 0.98999 0.0
Co239 Co 0.83726 0.57647 0.94627 0.0
C240 C 0.82715 0.63947 0.97094 0.0
O241 O 0.85806 0.65425 0.98574 0.0
O242 O 0.81601 0.60952 0.95531 0.0
C243 C 0.93799 0.69931 0.0344 0.0
O244 O 0.91994 0.71587 0.02357 0.0
C245 C 0.76409 0.51358 0.9281 0.0
C246 C 0.7799 0.48714 0.89111 0.0
C247 C 0.74956 0.48302 0.9083 0.0
N248 N 0.80144 0.53422 0.92337 0.0
N249 N 0.81065 0.51866 0.90089 0.0
C250 C 0.74311 0.52377 0.95081 0.0
H251 H 0.75055 0.55347 0.94722 0.0
H252 H 0.75182 0.52139 0.97441 0.0
H253 H 0.71213 0.50582 0.94838 0.0
C254 C 0.88465 0.56991 0.02295 0.0
N255 N 0.87546 0.58659 0.00054 0.0
N256 N 0.85039 0.56044 0.98242 0.0
C257 C 0.84276 0.52627 0.99272 0.0
C258 C 0.86429 0.53115 0.01873 0.0
C259 C 0.91566 0.59101 0.04557 0.0
H260 H 0.94168 0.61104 0.03309 0.0
H261 H 0.90759 0.60744 0.06094 0.0
H262 H 0.92174 0.57204 0.05954 0.0
O263 O 0.92464 0.64934 0.95061 0.0
O264 O 0.88271 0.60381 0.92045 0.0
H265 H 0.82619 0.48915 0.95411 0.0
H266 H 0.81273 0.46509 0.9907 0.0
C267 C 0.81599 0.48973 0.97757 0.0
H268 H 0.7879 0.48734 0.97571 0.0
H269 H 0.83811 0.52891 0.89289 0.0
O270 O 0.93219 0.66837 0.02285 0.0
C271 C 0.91518 0.63238 0.92485 0.0
Co272 Co 0.24714 0.90535 0.1578 0.0
Co273 Co 0.24847 0.84069 0.1204 0.0
C274 C 0.17647 0.83239 0.1427 0.0
O275 O 0.19307 0.86548 0.15397 0.0
O276 O 0.19483 0.81868 0.12978 0.0
C277 C 0.23989 0.93542 0.2152 0.0
O278 O 0.23106 0.90206 0.226 0.0
C279 C 0.23877 0.76684 0.10388 0.0
C280 C 0.28475 0.78266 0.07024 0.0
C281 C 0.25613 0.75217 0.08557 0.0
N282 N 0.25685 0.80439 0.09999 0.0
N283 N 0.28398 0.81362 0.07957 0.0
C284 C 0.20456 0.74584 0.12368 0.0
H285 H 0.21124 0.75664 0.14753 0.0
H286 H 0.19347 0.71501 0.12336 0.0
H287 H 0.18213 0.75118 0.11514 0.0
C288 C 0.30661 0.89854 0.19282 0.0
N289 N 0.27925 0.88667 0.17134 0.0
N290 N 0.27812 0.8582 0.15634 0.0
C291 C 0.30357 0.85017 0.16849 0.0
C292 C 0.3227 0.87564 0.19182 0.0
C293 C 0.32075 0.93407 0.21101 0.0
H294 H 0.31549 0.95463 0.19857 0.0
H295 H 0.30596 0.92741 0.23341 0.0
H296 H 0.35142 0.94696 0.21557 0.0
O297 O 0.26482 0.92981 0.11734 0.0
O298 O 0.26328 0.8826 0.09096 0.0
H299 H 0.32351 0.82542 0.13554 0.0
H300 H 0.32612 0.81255 0.17475 0.0
C301 C 0.30914 0.81838 0.15814 0.0
H302 H 0.2814 0.7925 0.15569 0.0
H303 H 0.30247 0.84117 0.07248 0.0
O304 O 0.24814 0.9428 0.18699 0.0
C305 C 0.26913 0.91618 0.09239 0.0
Co306 Co 0.35372 0.25791 0.31965 0.0
Co307 Co 0.41333 0.25089 0.27917 0.0
C308 C 0.34679 0.18306 0.30587 0.0
O309 O 0.33352 0.20245 0.31781 0.0
O310 O 0.37777 0.19848 0.2911 0.0
C311 C 0.3018 0.24759 0.36992 0.0
O312 O 0.29425 0.21246 0.37155 0.0
C313 C 0.47358 0.23454 0.26323 0.0
C314 C 0.50058 0.27314 0.22408 0.0
C315 C 0.5034 0.24723 0.24269 0.0
N316 N 0.45455 0.25278 0.25739 0.0
N317 N 0.4705 0.27539 0.2337 0.0
C318 C 0.46222 0.20467 0.28728 0.0
H319 H 0.43206 0.18339 0.28425 0.0
H320 H 0.46529 0.2173 0.31035 0.0
H321 H 0.47906 0.19027 0.2859 0.0
C322 C 0.42319 0.31069 0.35334 0.0
N323 N 0.40541 0.28504 0.33105 0.0
N324 N 0.43068 0.28272 0.31392 0.0
C325 C 0.46541 0.30688 0.32475 0.0
C326 C 0.46179 0.32538 0.3501 0.0
C327 C 0.40362 0.32368 0.37505 0.0
H328 H 0.38633 0.33264 0.36174 0.0
H329 H 0.3844 0.29987 0.39004 0.0
H330 H 0.42376 0.34761 0.38944 0.0
O331 O 0.3469 0.27537 0.27895 0.0
O332 O 0.38792 0.26835 0.25033 0.0
H333 H 0.50346 0.3216 0.28682 0.0
H334 H 0.52653 0.33288 0.32384 0.0
C335 C 0.5013 0.31219 0.31096 0.0
H336 H 0.50092 0.28499 0.31108 0.0
H337 H 0.46139 0.29307 0.22458 0.0
O338 O 0.32465 0.26944 0.34971 0.0
C339 C 0.36242 0.27735 0.25314 0.0
Co340 Co 0.08712 0.34557 0.48903 0.0
Co341 Co 0.14543 0.41602 0.45165 0.0
C342 C 0.16269 0.35634 0.47119 0.0
O343 O 0.13098 0.33723 0.48456 0.0
O344 O 0.17158 0.38731 0.45792 0.0
C345 C 0.06038 0.30699 0.54621 0.0
O346 O 0.09335 0.33327 0.55634 0.0
C347 C 0.21638 0.48455 0.43888 0.0
C348 C 0.20071 0.51093 0.40174 0.0
C349 C 0.23058 0.51585 0.41992 0.0
N350 N 0.17962 0.46239 0.4325 0.0
N351 N 0.17041 0.47814 0.41017 0.0
C352 C 0.23742 0.47412 0.46128 0.0
H353 H 0.21837 0.45667 0.48005 0.0
H354 H 0.26223 0.49913 0.47102 0.0
H355 H 0.24771 0.45719 0.4491 0.0
C356 C 0.08577 0.40752 0.52532 0.0
N357 N 0.10046 0.39503 0.50352 0.0
N358 N 0.12686 0.42435 0.48865 0.0
C359 C 0.1306 0.4562 0.50099 0.0
C360 C 0.10455 0.44661 0.52447 0.0
C361 C 0.05106 0.3829 0.5436 0.0
H362 H 0.03239 0.35663 0.53091 0.0
H363 H 0.05941 0.37573 0.56567 0.0
H364 H 0.03528 0.39779 0.54888 0.0
O365 O 0.06208 0.33676 0.44837 0.0
O366 O 0.10296 0.38847 0.42309 0.0
H367 H 0.15055 0.49946 0.46681 0.0
H368 H 0.15949 0.51714 0.5057 0.0
C369 C 0.15831 0.49511 0.49021 0.0
H370 H 0.18681 0.49831 0.48938 0.0
H371 H 0.14342 0.46661 0.40083 0.0
O372 O 0.05192 0.30691 0.51815 0.0
C373 C 0.07207 0.3573 0.42437 0.0
Co374 Co 0.74428 0.09082 0.65738 0.0
Co375 Co 0.74429 0.15456 0.61779 0.0
C376 C 0.81562 0.16196 0.64279 0.0
O377 O 0.79861 0.12934 0.65484 0.0
O378 O 0.79775 0.17525 0.62854 0.0
C379 C 0.75321 0.06036 0.71385 0.0
O380 O 0.7683 0.09523 0.72369 0.0
C381 C 0.75211 0.22876 0.60721 0.0
C382 C 0.72482 0.22109 0.56199 0.0
C383 C 0.74252 0.24712 0.58526 0.0
N384 N 0.74007 0.1934 0.5975 0.0
N385 N 0.72398 0.18905 0.5704 0.0
C386 C 0.77393 0.24487 0.63621 0.0
H387 H 0.78736 0.22857 0.64391 0.0
H388 H 0.75458 0.24343 0.65464 0.0
H389 H 0.79577 0.27484 0.63283 0.0
C390 C 0.68507 0.09944 0.69111 0.0
N391 N 0.71248 0.11051 0.66969 0.0
N392 N 0.71205 0.1367 0.65242 0.0
C393 C 0.68425 0.14286 0.66208 0.0
C394 C 0.66656 0.11986 0.68711 0.0
C395 C 0.67643 0.06948 0.71456 0.0
H396 H 0.67536 0.04458 0.70348 0.0
H397 H 0.69915 0.08066 0.73196 0.0
H398 H 0.64954 0.06074 0.72671 0.0
O399 O 0.72767 0.06664 0.61643 0.0
O400 O 0.72971 0.11298 0.58834 0.0
H401 H 0.67223 0.1621 0.62003 0.0
H402 H 0.64175 0.15803 0.65134 0.0
C403 C 0.6711 0.16602 0.64506 0.0
H404 H 0.68967 0.19617 0.65065 0.0
H405 H 0.71227 0.16414 0.55771 0.0
O406 O 0.74072 0.05229 0.6866 0.0
C407 C 0.72376 0.07945 0.59086 0.0
H408 H 0.27315 0.13405 0.85155 0.0
H409 H 0.31302 0.32465 0.93256 0.0
H410 H 0.38276 0.23341 0.86038 0.0
H411 H 0.20228 0.22593 0.92861 0.0
H412 H 0.33628 0.29468 0.89772 0.0
H413 H 0.24416 0.17026 0.87037 0.0
C414 C 0.29101 0.16373 0.85658 0.0
C415 C 0.33043 0.18068 0.85488 0.0
C416 C 0.3068 0.27954 0.90421 0.0
C417 C 0.29766 0.22192 0.87673 0.0
C418 C 0.29346 0.29667 0.92425 0.0
C419 C 0.25573 0.2776 0.93392 0.0
C420 C 0.28244 0.24269 0.89396 0.0
C421 C 0.23168 0.24152 0.92197 0.0
C422 C 0.27448 0.18428 0.86757 0.0
C423 C 0.35227 0.21911 0.86181 0.0
N424 N 0.24557 0.22497 0.9029 0.0
N425 N 0.33564 0.23827 0.87278 0.0
H426 H 0.13563 0.37701 0.01096 0.0
H427 H 0.94556 0.26985 0.05163 0.0
H428 H 0.13976 0.27566 0.02961 0.0
H429 H -0.00279 0.23577 0.12142 0.0
H430 H 0.00203 0.29074 0.01948 0.0
H431 H 0.06891 0.34425 0.02584 0.0
C432 C 0.12211 0.34753 0.01735 0.0
C433 C 0.14295 0.32885 0.01902 0.0
C434 C 0.00056 0.27812 0.04164 0.0
C435 C 0.06744 0.29175 0.03671 0.0
C436 C 0.96844 0.26606 0.05987 0.0
C437 C 0.96712 0.25151 0.08927 0.0
C438 C 0.03094 0.27474 0.05277 0.0
C439 C -0.00253 0.24728 0.099 0.0
C440 C 0.08413 0.32886 0.0257 0.0
C441 C 0.12442 0.29083 0.02776 0.0
N442 N 0.02823 0.25887 0.08076 0.0
N443 N 0.08788 0.27378 0.03719 0.0
H444 H 0.86214 0.13207 0.19023 0.0
H445 H 0.66671 0.97448 0.25943 0.0
H446 H 0.7578 0.13409 0.18621 0.0
H447 H 0.77133 0.97434 0.27206 0.0
H448 H 0.69755 0.0254 0.22269 0.0
H449 H 0.82733 0.06711 0.20934 0.0
C450 C 0.83176 0.11844 0.1925 0.0
C451 C 0.81279 0.13858 0.18727 0.0
C452 C 0.71381 0.0141 0.23322 0.0
C453 C 0.77309 0.06487 0.20941 0.0
C454 C 0.69617 0.98498 0.25435 0.0
C455 C 0.71661 0.97053 0.26932 0.0
C456 C 0.75243 0.02945 0.2272 0.0
C457 C 0.75462 0.98496 0.26131 0.0
C458 C 0.81198 0.08152 0.20366 0.0
C459 C 0.77353 0.11977 0.19067 0.0
N460 N 0.77152 0.0141 0.2411 0.0
N461 N 0.75505 0.08416 0.20191 0.0
H462 H 0.7917 0.76469 0.42116 0.0
H463 H 0.60276 0.75207 0.35806 0.0
H464 H 0.67956 0.66962 0.43259 0.0
H465 H 0.71105 0.85374 0.35392 0.0
H466 H 0.63377 0.7173 0.3743 0.0
H467 H 0.76574 0.79396 0.38712 0.0
C468 C 0.76176 0.74979 0.41626 0.0
C469 C 0.73767 0.71491 0.43013 0.0
C470 C 0.65093 0.74711 0.36943 0.0
C471 C 0.70798 0.74793 0.39114 0.0
C472 C 0.6332 0.76692 0.36006 0.0
C473 C 0.65431 0.8059 0.35527 0.0
C474 C 0.69005 0.76654 0.37455 0.0
C475 C 0.69375 0.82368 0.3576 0.0
C476 C 0.74699 0.76647 0.39682 0.0
C477 C 0.69916 0.69674 0.42282 0.0
N478 N 0.71036 0.80399 0.36775 0.0
N479 N 0.68555 0.71356 0.40405 0.0
H480 H -0.00179 0.76156 0.62623 0.0
H481 H 0.86128 0.62182 0.51012 0.0
H482 H 0.04261 0.71827 0.55753 0.0
H483 H 0.85454 0.72136 0.53056 0.0
H484 H 0.92714 0.65454 0.52726 0.0
H485 H 0.94394 0.74557 0.59297 0.0
C486 C -0.0033 0.74914 0.60395 0.0
C487 C 0.02465 0.74102 0.59455 0.0
C488 C 0.91155 0.66954 0.52714 0.0
C489 C 0.96267 0.72208 0.55692 0.0
C490 C 0.87411 0.65095 0.51739 0.0
C491 C 0.85272 0.66906 0.51899 0.0
C492 C 0.92702 0.70585 0.5396 0.0
C493 C 0.87033 0.70664 0.52882 0.0
C494 C 0.96598 0.7403 0.58496 0.0
C495 C 0.02157 0.72501 0.5655 0.0
N496 N 0.90627 0.72354 0.53962 0.0
N497 N 0.99056 0.71517 0.54793 0.0
H498 H 0.23623 0.85536 0.68318 0.0
H499 H 0.23297 0.00023 0.78939 0.0
H500 H 0.13137 0.85542 0.69394 0.0
H501 H 0.32191 0.04161 0.72197 0.0
H502 H 0.19576 0.94427 0.75752 0.0
H503 H 0.27049 0.92183 0.69883 0.0
C504 C 0.22054 0.86963 0.68816 0.0
C505 C 0.181 0.84997 0.68748 0.0
C506 C 0.22312 0.966 0.74946 0.0
C507 C 0.21967 0.92504 0.70607 0.0
C508 C 0.24429 -0.00232 0.76761 0.0
C509 C 0.28027 0.0253 0.75807 0.0
C510 C 0.23877 0.96138 0.72229 0.0
C511 C 0.29405 0.02085 0.72985 0.0
C512 C 0.24004 0.90744 0.69695 0.0
C513 C 0.16189 0.86966 0.69412 0.0
N514 N 0.27361 0.98887 0.71318 0.0
N515 N 0.18137 0.90591 0.70399 0.0
H516 H 0.85617 0.71487 0.96351 0.0
H517 H 0.66037 0.70664 0.93352 0.0
H518 H 0.75083 0.61026 0.97039 0.0
H519 H 0.75351 0.76001 0.8702 0.0
H520 H 0.69702 0.68567 0.96431 0.0
H521 H 0.82137 0.74641 0.94698 0.0
C522 C 0.82565 0.69886 0.96249 0.0
C523 C 0.80621 0.65993 0.96804 0.0
C524 C 0.70954 0.70266 0.94401 0.0
C525 C 0.76667 0.69572 0.94973 0.0
C526 C 0.68884 0.71468 0.92656 0.0
C527 C 0.70405 0.73479 0.8993 0.0
C528 C 0.74594 0.71198 0.93451 0.0
C529 C 0.74086 0.7443 0.89102 0.0
C530 C 0.80597 0.71677 0.95291 0.0
C531 C 0.76674 0.64027 0.96602 0.0
N532 N 0.76066 0.73283 0.90861 0.0
N533 N 0.74815 0.65838 0.9569 0.0
H534 H 0.12855 0.86076 0.13811 0.0
H535 H 0.96973 0.66665 0.06855 0.0
H536 H 0.13045 0.75634 0.14016 0.0
H537 H 0.97055 0.77176 0.05675 0.0
H538 H 0.02077 0.69677 0.10525 0.0
H539 H 0.0633 0.82636 0.11967 0.0
C540 C 0.11487 0.83044 0.13555 0.0
C541 C 0.13506 0.81138 0.14003 0.0
C542 C 0.00964 0.71329 0.09492 0.0
C543 C 0.06095 0.77214 0.11868 0.0
C544 C 0.98045 0.69606 0.07382 0.0
C545 C 0.96626 0.71686 0.05907 0.0
C546 C 0.02532 0.75186 0.10112 0.0
C547 C 0.98097 0.75479 0.06732 0.0
C548 C 0.07776 0.8109 0.12479 0.0
C549 C 0.1161 0.77218 0.13632 0.0
N550 N 0.01018 0.77129 0.08748 0.0
N551 N 0.0803 0.75394 0.12546 0.0
H552 H 0.27026 0.14061 0.30116 0.0
H553 H 0.2218 0.98988 0.20471 0.0
H554 H 0.37089 0.13178 0.30719 0.0
H555 H 0.27135 0.95073 0.27227 0.0
H556 H 0.23917 0.04569 0.23628 0.0
H557 H 0.2346 0.07406 0.28592 0.0
C558 C 0.28457 0.12436 0.30021 0.0
C559 C 0.32363 0.14169 0.3049 0.0
C560 C 0.24527 0.02435 0.2446 0.0
C561 C 0.2833 0.06624 0.28752 0.0
C562 C 0.23569 0.99278 0.22651 0.0
C563 C 0.24522 0.96591 0.23603 0.0
C564 C 0.26551 0.02951 0.27187 0.0
C565 C 0.26338 0.97087 0.26433 0.0
C566 C 0.26432 0.08663 0.29127 0.0
C567 C 0.3409 0.11949 0.30324 0.0
N568 N 0.27394 0.00272 0.28094 0.0
N569 N 0.32064 0.08287 0.29443 0.0
H570 H 0.23775 0.39409 0.45791 0.0
H571 H 0.2416 0.20793 0.40882 0.0
H572 H 0.14465 0.28214 0.47433 0.0
H573 H 0.32234 0.32097 0.38018 0.0
H574 H 0.21127 0.23389 0.44172 0.0
H575 H 0.27529 0.36692 0.43971 0.0
C576 C 0.22539 0.36376 0.45813 0.0
C577 C 0.18779 0.34035 0.46709 0.0
C578 C 0.23585 0.25292 0.42842 0.0
C579 C 0.23045 0.3089 0.44574 0.0
C580 C 0.25314 0.23816 0.40964 0.0
C581 C 0.28424 0.26229 0.39142 0.0
C582 C 0.25008 0.29205 0.42911 0.0
C583 C 0.29815 0.30122 0.39349 0.0
C584 C 0.24681 0.34821 0.44763 0.0
C585 C 0.17346 0.30122 0.46741 0.0
N586 N 0.28089 0.31481 0.41183 0.0
N587 N 0.19462 0.28662 0.45632 0.0
H588 H 0.86303 0.23793 0.64529 0.0
H589 H 0.0056 0.23428 0.53697 0.0
H590 H 0.86166 0.1326 0.63367 0.0
H591 H 0.04745 0.32355 0.60401 0.0
H592 H 0.95083 0.19653 0.56994 0.0
H593 H 0.92945 0.27167 0.6294 0.0
C594 C 0.87707 0.22203 0.64018 0.0
C595 C 0.85704 0.18254 0.64072 0.0
C596 C 0.97246 0.22407 0.57767 0.0
C597 C 0.93201 0.22062 0.62161 0.0
C598 C 0.00349 0.2456 0.55887 0.0
C599 C 0.0308 0.28199 0.56783 0.0
C600 C 0.96817 0.23967 0.60498 0.0
C601 C 0.0269 0.29553 0.59638 0.0
C602 C 0.91483 0.24122 0.63118 0.0
C603 C 0.87629 0.16311 0.63369 0.0
N604 N -0.00447 0.27472 0.61367 0.0
N605 N 0.91251 0.18233 0.62353 0.0
H606 H 0.72309 0.85603 0.79693 0.0
H607 H 0.72231 0.04798 0.77103 0.0
H608 H 0.62139 0.86192 0.80875 0.0
H609 H 0.76713 0.00296 0.70426 0.0
H610 H 0.70172 0.99096 0.80249 0.0
H611 H 0.75635 0.9225 0.78128 0.0
C612 C 0.70814 0.87168 0.79728 0.0
C613 C 0.66943 0.85358 0.80383 0.0
C614 C 0.71687 0.99419 0.78129 0.0
C615 C 0.70724 0.9291 0.78649 0.0
C616 C 0.72864 0.02653 0.76346 0.0
C617 C 0.74615 0.02973 0.73509 0.0
C618 C 0.72389 0.96581 0.77097 0.0
C619 C 0.75348 0.0012 0.72598 0.0
C620 C 0.72704 0.90937 0.7882 0.0
C621 C 0.65119 0.87493 0.80358 0.0
N622 N 0.74233 0.97032 0.74392 0.0
N623 N 0.67024 0.91166 0.79481 0.0
H624 H 0.24578 0.70567 0.13402 0.0
H625 H 0.25103 0.54758 0.02981 0.0
H626 H 0.25504 0.71212 0.03543 0.0
H627 H 0.24814 0.54438 0.12869 0.0
H628 H 0.24599 0.60454 0.0311 0.0
H629 H 0.24015 0.64341 0.13226 0.0
C630 C 0.24565 0.69349 0.11193 0.0
C631 C 0.24985 0.71348 0.08474 0.0
C632 C 0.24596 0.59115 0.05253 0.0
C633 C 0.24485 0.64295 0.08259 0.0
C634 C 0.24836 0.55835 0.05179 0.0
C635 C 0.24908 0.54081 0.0792 0.0
C636 C 0.24468 0.60672 0.0809 0.0
C637 C 0.24735 0.55696 0.10705 0.0
C638 C 0.24291 0.65817 0.11096 0.0
C639 C 0.2514 0.6973 0.05686 0.0
N640 N 0.24524 0.58904 0.10721 0.0
N641 N 0.24889 0.66293 0.05648 0.0
H642 H 0.70952 0.25128 0.29144 0.0
H643 H 0.53824 0.23796 0.19313 0.0
H644 H 0.70383 0.24452 0.19276 0.0
H645 H 0.54287 0.24349 0.2919 0.0
H646 H 0.59619 0.23434 0.19277 0.0
H647 H 0.64586 0.24291 0.29253 0.0
C648 C 0.69454 0.24744 0.27006 0.0
C649 C 0.71141 0.24765 0.24204 0.0
C650 C 0.58423 0.23573 0.21457 0.0
C651 C 0.63913 0.23875 0.24294 0.0
C652 C 0.55117 0.23773 0.21475 0.0
C653 C 0.53545 0.24026 0.24258 0.0
C654 C 0.60203 0.23694 0.24245 0.0
C655 C 0.55346 0.24039 0.26998 0.0
C656 C 0.65828 0.24266 0.27065 0.0
C657 C 0.69125 0.2432 0.21491 0.0
N658 N 0.58595 0.239 0.26922 0.0
N659 N 0.6562 0.23906 0.21602 0.0
H660 H 0.44014 0.71435 0.46904 0.0
H661 H 0.27552 0.54898 0.37045 0.0
H662 H 0.439 0.71079 0.37018 0.0
H663 H 0.27067 0.55938 0.46849 0.0
H664 H 0.33798 0.60575 0.37006 0.0
H665 H 0.38037 0.6546 0.46972 0.0
C666 C 0.42751 0.70065 0.44751 0.0
C667 C 0.44494 0.71688 0.41956 0.0
C668 C 0.32345 0.59539 0.39172 0.0
C669 C 0.37652 0.64908 0.42004 0.0
C670 C 0.28791 0.56308 0.3919 0.0
C671 C 0.26866 0.54906 0.41963 0.0
C672 C 0.3395 0.61396 0.41946 0.0
C673 C 0.28539 0.5685 0.4468 0.0
C674 C 0.39343 0.66666 0.44788 0.0
C675 C 0.42722 0.69847 0.39226 0.0
N676 N 0.31992 0.59998 0.44605 0.0
N677 N 0.39396 0.66554 0.39318 0.0
H678 H 0.75375 0.45497 0.53201 0.0
H679 H 0.73794 0.28649 0.63463 0.0
H680 H 0.74324 0.45147 0.63055 0.0
H681 H 0.75728 0.29449 0.53694 0.0
H682 H 0.74389 0.3487 0.6341 0.0
H683 H 0.75938 0.39843 0.53374 0.0
C684 C 0.75375 0.44292 0.55411 0.0
C685 C 0.74909 0.45847 0.58128 0.0
C686 C 0.74736 0.33711 0.61283 0.0
C687 C 0.75383 0.39276 0.58335 0.0
C688 C 0.74443 0.30169 0.61318 0.0
C689 C 0.74802 0.28562 0.58588 0.0
C690 C 0.75341 0.3564 0.58491 0.0
C691 C 0.7545 0.30596 0.55852 0.0
C692 C 0.75645 0.41031 0.55506 0.0
C693 C 0.74721 0.44051 0.60913 0.0
N694 N 0.75692 0.34028 0.55871 0.0
N695 N 0.7495 0.40852 0.60946 0.0
H696 H 0.28587 0.73576 0.68885 0.0
H697 H 0.45273 0.74792 0.79278 0.0
H698 H 0.28487 0.73688 0.7877 0.0
H699 H 0.45023 0.73888 0.69418 0.0
H700 H 0.39479 0.7513 0.7911 0.0
H701 H 0.34932 0.74394 0.69003 0.0
C702 C 0.29945 0.73865 0.7108 0.0
C703 C 0.28065 0.73661 0.73824 0.0
C704 C 0.40716 0.74912 0.76977 0.0
C705 C 0.35259 0.74466 0.73983 0.0
C706 C 0.44052 0.74771 0.7707 0.0
C707 C 0.45671 0.74406 0.74349 0.0
C708 C 0.38964 0.74643 0.74145 0.0
C709 C 0.43875 0.74207 0.71563 0.0
C710 C 0.33547 0.74289 0.71148 0.0
C711 C 0.2987 0.73872 0.76606 0.0
N712 N 0.40612 0.74323 0.71531 0.0
N713 N 0.33371 0.74265 0.76617 0.0
H714 H 0.70582 0.44479 0.95757 0.0
H715 H 0.55038 0.277 0.8564 0.0
H716 H 0.70846 0.44357 0.85871 0.0
H717 H 0.54264 0.28385 0.95464 0.0
H718 H 0.60674 0.33902 0.85645 0.0
H719 H 0.64471 0.38713 0.95676 0.0
C720 C 0.69302 0.43289 0.93564 0.0
C721 C 0.71158 0.44952 0.9081 0.0
C722 C 0.59247 0.3272 0.87797 0.0
C723 C 0.64238 0.38261 0.90701 0.0
C724 C 0.55992 0.29191 0.87791 0.0
C725 C 0.54121 0.27563 0.9055 0.0
C726 C 0.6067 0.34613 0.90587 0.0
C727 C 0.55614 0.29552 0.93285 0.0
C728 C 0.65833 0.39969 0.93519 0.0
C729 C 0.69472 0.43178 0.88041 0.0
N730 N 0.58804 0.32974 0.93236 0.0
N731 N 0.66102 0.39922 0.88054 0.0
H732 H 0.37935 0.27311 0.19303 0.0
H733 H 0.27668 0.38126 0.12854 0.0
H734 H 0.31822 0.31032 0.25063 0.0
H735 H 0.30887 0.31606 0.07093 0.0
H736 H 0.2971 0.36058 0.17344 0.0
H737 H 0.35904 0.29375 0.14796 0.0
C738 C 0.36171 0.28568 0.19624 0.0
C739 C 0.35045 0.28997 0.22571 0.0
C740 C 0.29963 0.35075 0.15098 0.0
C741 C 0.32727 0.31377 0.17414 0.0
C742 C 0.2881 0.36264 0.12529 0.0
C743 C 0.29104 0.35035 0.09586 0.0
C744 C 0.3146 0.32671 0.14729 0.0
C745 C 0.30598 0.32614 0.09315 0.0
C746 C 0.35003 0.29732 0.17046 0.0
C747 C 0.32749 0.30635 0.22838 0.0
N748 N 0.31735 0.31523 0.11854 0.0
N749 N 0.31679 0.31779 0.20293 0.0
H750 H 0.0585 0.40071 0.38513 0.0
H751 H 0.96653 0.25177 0.25346 0.0
H752 H 0.03148 0.28594 0.40132 0.0
H753 H 0.92178 0.32458 0.27598 0.0
H754 H 0.00337 0.27111 0.3013 0.0
H755 H 0.02028 0.3802 0.33823 0.0
C756 C 0.04445 0.3712 0.37877 0.0
C757 C 0.04782 0.34484 0.39704 0.0
C758 C 0.98547 0.28277 0.29558 0.0
C759 C 0.00537 0.32168 0.34337 0.0
C760 C 0.96479 0.27206 0.26834 0.0
C761 C 0.94123 0.28669 0.26094 0.0
C762 C 0.9833 0.30906 0.31485 0.0
C763 C 0.93959 0.31262 0.28102 0.0
C764 C 0.02272 0.35961 0.35217 0.0
C765 C 0.02918 0.30696 0.38789 0.0
N766 N 0.96072 0.32335 0.30697 0.0
N767 N 0.00905 0.29649 0.36136 0.0
H768 H 0.68222 0.99231 0.40514 0.0
H769 H 0.69414 0.00288 0.58814 0.0
H770 H 0.61806 0.89623 0.46405 0.0
H771 H 0.72655 0.10049 0.53093 0.0
H772 H 0.67347 0.96319 0.5423 0.0
H773 H 0.70605 0.03246 0.45073 0.0
C774 C 0.67322 0.97965 0.42761 0.0
C775 C 0.64799 0.94089 0.43077 0.0
C776 C 0.68513 0.99331 0.53983 0.0
C777 C 0.67531 0.98649 0.48285 0.0
C778 C 0.69705 0.01599 0.56596 0.0
C779 C 0.71194 0.05504 0.56339 0.0
C780 C 0.68855 0.00985 0.51091 0.0
C781 C 0.71501 0.07047 0.53402 0.0
C782 C 0.68673 0.00257 0.45358 0.0
C783 C 0.63726 0.926 0.46047 0.0
N784 N 0.70349 0.04784 0.50892 0.0
N785 N 0.65107 0.94879 0.48534 0.0
H786 H 0.68482 0.67966 0.56835 0.0
H787 H 0.6835 0.68858 0.75127 0.0
H788 H 0.7193 0.61707 0.62685 0.0
H789 H 0.61848 0.72158 0.69427 0.0
H790 H 0.7025 0.66791 0.70544 0.0
H791 H 0.66557 0.70081 0.61396 0.0
C792 C 0.68834 0.67036 0.59073 0.0
C793 C 0.70366 0.64652 0.59376 0.0
C794 C 0.68402 0.67962 0.70299 0.0
C795 C 0.682 0.67082 0.64593 0.0
C796 C 0.67327 0.69156 0.72913 0.0
C797 C 0.6493 0.70679 0.72664 0.0
C798 C 0.67109 0.6833 0.67408 0.0
C799 C 0.63687 0.70986 0.6973 0.0
C800 C 0.67727 0.68236 0.61673 0.0
C801 C 0.70751 0.63532 0.62337 0.0
N802 N 0.64802 0.69835 0.67214 0.0
N803 N 0.69692 0.64771 0.64828 0.0
H804 H 0.07262 0.66567 0.77934 0.0
H805 H 0.96234 0.70544 0.90803 0.0
H806 H 0.03123 0.74222 0.76083 0.0
H807 H 0.92812 0.59083 0.88308 0.0
H808 H 0.00332 0.72749 0.86238 0.0
H809 H 0.03444 0.64538 0.82641 0.0
C810 C 0.05567 0.67832 0.78533 0.0
C811 C 0.05474 0.70543 0.76625 0.0
C812 C 0.98694 0.69758 0.86718 0.0
C813 C 0.01231 0.68328 0.82002 0.0
C814 C 0.9639 0.68505 0.89316 0.0
C815 C 0.94196 0.64634 0.8991 0.0
C816 C 0.9888 0.6712 0.84781 0.0
C817 C 0.94457 0.62091 0.8791 0.0
C818 C 0.03396 0.66671 0.812 0.0
C819 C 0.03233 0.72098 0.77489 0.0
N820 N 0.9679 0.6338 0.85441 0.0
N821 N 0.01219 0.70995 0.80143 0.0
H822 H 0.29974 0.99271 0.08767 0.0
H823 H 0.30557 -0.00352 0.90464 0.0
H824 H 0.26546 0.89274 0.03312 0.0
H825 H 0.37452 0.094 0.9607 0.0
H826 H 0.28334 0.95799 0.95129 0.0
H827 H 0.31998 0.03058 0.04079 0.0
C828 C 0.29636 0.97872 0.06586 0.0
C829 C 0.28103 0.93953 0.06432 0.0
C830 C 0.30339 0.98782 0.95326 0.0
C831 C 0.30388 0.98262 0.01068 0.0
C832 C 0.31599 0.00978 0.9267 0.0
C833 C 0.34203 0.04846 0.92877 0.0
C834 C 0.3165 0.00482 0.98202 0.0
C835 C 0.35462 0.06424 0.95798 0.0
C836 C 0.30804 0.00035 0.03914 0.0
C837 C 0.27737 0.9229 0.0354 0.0
N838 N 0.3416 0.04241 0.98344 0.0
N839 N 0.28859 0.94452 0.00969 0.0
H840 H 0.39714 0.51477 0.99386 0.0
H841 H 0.47713 0.60397 0.82834 0.0
H842 H 0.3335 0.47323 0.91024 0.0
H843 H 0.53426 0.65512 0.91291 0.0
H844 H 0.42643 0.55283 0.85766 0.0
H845 H 0.44988 0.56375 0.96441 0.0
C846 C 0.39435 0.51619 0.96926 0.0
C847 C 0.36102 0.4904 0.95435 0.0
C848 C 0.45003 0.5752 0.86985 0.0
C849 C 0.42109 0.54572 0.92052 0.0
C850 C 0.47884 0.60441 0.85314 0.0
C851 C 0.50945 0.63396 0.86836 0.0
C852 C 0.45202 0.57546 0.90202 0.0
C853 C 0.51097 0.63281 0.90041 0.0
C854 C 0.42441 0.54397 0.95246 0.0
C855 C 0.35884 0.49278 0.92246 0.0
N856 N 0.48252 0.60409 0.91623 0.0
N857 N 0.38848 0.52004 0.90656 0.0
H858 H 0.8571 0.51844 0.08028 0.0
H859 H 0.88068 0.33584 0.07195 0.0
H860 H 0.88054 0.47859 0.99622 0.0
H861 H 0.87601 0.38786 0.15653 0.0
H862 H 0.88101 0.38772 0.0434 0.0
H863 H 0.86337 0.47015 0.10859 0.0
C864 C 0.86363 0.49946 0.06787 0.0
C865 C 0.86804 0.50212 0.03598 0.0
C866 C 0.88007 0.38786 0.06822 0.0
C867 C 0.87512 0.44684 0.06795 0.0
C868 C 0.88003 0.35838 0.08444 0.0
C869 C 0.87768 0.35742 0.11651 0.0
C870 C 0.87771 0.41642 0.08428 0.0
C871 C 0.87696 0.38722 0.13174 0.0
C872 C 0.86722 0.47195 0.08396 0.0
C873 C 0.8764 0.47695 0.02082 0.0
N874 N 0.87665 0.41535 0.11549 0.0
N875 N 0.87952 0.4502 0.03692 0.0
H876 H 0.51902 0.8644 0.2478 0.0
H877 H 0.33318 0.8828 0.25383 0.0
H878 H 0.47618 0.88571 0.33121 0.0
H879 H 0.38614 0.87774 0.16984 0.0
H880 H 0.38551 0.88477 0.28287 0.0
H881 H 0.47042 0.86938 0.21878 0.0
C882 C 0.49935 0.87025 0.2599 0.0
C883 C 0.50123 0.87439 0.29182 0.0
C884 C 0.38576 0.88337 0.25808 0.0
C885 C 0.44556 0.87993 0.25905 0.0
C886 C 0.35602 0.88238 0.24156 0.0
C887 C 0.35522 0.8795 0.20954 0.0
C888 C 0.41478 0.88143 0.24234 0.0
C889 C 0.38538 0.87909 0.19461 0.0
C890 C 0.47164 0.87308 0.24342 0.0
C891 C 0.47518 0.88183 0.30659 0.0
N892 N 0.41381 0.87974 0.21114 0.0
N893 N 0.44825 0.88419 0.2901 0.0
H894 H 0.47144 0.32904 0.41203 0.0
H895 H 0.66654 0.52449 0.40786 0.0
H896 H 0.52058 0.39117 0.32881 0.0
H897 H 0.60429 0.47498 0.49099 0.0
H898 H 0.61543 0.47385 0.37827 0.0
H899 H 0.52206 0.38024 0.44153 0.0
C900 C 0.49297 0.35356 0.40006 0.0
C901 C 0.49218 0.356 0.36807 0.0
C902 C 0.61292 0.47405 0.40298 0.0
C903 C 0.55008 0.41436 0.40136 0.0
C904 C 0.642 0.50291 0.41979 0.0
C905 C 0.6395 0.50361 0.45179 0.0
C906 C 0.5813 0.44566 0.41839 0.0
C907 C 0.60736 0.47504 0.46633 0.0
C908 C 0.5218 0.38271 0.41681 0.0
C909 C 0.52063 0.38815 0.35348 0.0
N910 N 0.57952 0.44711 0.44952 0.0
N911 N 0.54855 0.41608 0.37023 0.0
H912 H 0.10106 0.45172 0.58664 0.0
H913 H 0.09386 0.64338 0.5774 0.0
H914 H 0.08904 0.49963 0.50233 0.0
H915 H 0.10333 0.59459 0.66218 0.0
H916 H 0.0854 0.58747 0.54994 0.0
H917 H 0.09499 0.49999 0.61542 0.0
C918 C 0.09668 0.4722 0.57429 0.0
C919 C 0.09629 0.47239 0.5422 0.0
C920 C 0.08914 0.58885 0.57457 0.0
C921 C 0.08958 0.52758 0.57462 0.0
C922 C 0.09388 0.62069 0.5902 0.0
C923 C 0.1 0.62374 0.62191 0.0
C924 C 0.09054 0.5599 0.59086 0.0
C925 C 0.09963 0.59362 0.63755 0.0
C926 C 0.09337 0.49979 0.59063 0.0
C927 C 0.09032 0.49921 0.52712 0.0
N928 N 0.09534 0.56307 0.62184 0.0
N929 N 0.0876 0.52601 0.54344 0.0
H930 H 0.59787 0.05701 0.69806 0.0
H931 H 0.51101 0.17429 0.77525 0.0
H932 H 0.66107 0.17688 0.71353 0.0
H933 H 0.45953 0.05384 0.78501 0.0
H934 H 0.56305 0.17517 0.74685 0.0
H935 H 0.54386 0.05444 0.72502 0.0
C936 C 0.6005 0.08264 0.7076 0.0
C937 C 0.63406 0.1171 0.70423 0.0
C938 C 0.54026 0.14847 0.75497 0.0
C939 C 0.57234 0.11465 0.73396 0.0
C940 C 0.51056 0.14797 0.77103 0.0
C941 C 0.48088 0.11391 0.78205 0.0
C942 C 0.54027 0.1146 0.74986 0.0
C943 C 0.48156 0.08056 0.77623 0.0
C944 C 0.56965 0.08123 0.72269 0.0
C945 C 0.63568 0.14975 0.71592 0.0
N946 N 0.51086 0.0817 0.76048 0.0
N947 N 0.60524 0.14775 0.73022 0.0
loop_
_geom_bond_atom_site_label_1
_geom_bond_atom_site_label_2
_geom_bond_distance
_geom_bond_site_symmetry_2
_ccdc_geom_bond_type
Co0 O3 1.970 . S
Co0 N17 1.989 1_554 S
Co0 O25 1.967 . S
Co0 O32 1.920 1_554 S
Co1 O4 1.966 . S
Co1 N10 2.022 . S
Co1 N18 1.993 . S
Co1 O26 1.941 . S
C2 O3 1.258 . S
C2 O4 1.263 . S
O3 Co0 1.970 . S
O3 C2 1.258 . S
O4 Co1 1.966 . S
O4 C2 1.263 . S
C5 O6 1.235 . S
C5 O32 1.289 . S
O6 C5 1.235 . S
C7 C9 1.400 . S
C7 N10 1.351 . S
C7 C12 1.501 . S
C8 C9 1.387 . S
C8 N11 1.341 . S
C9 C7 1.400 . S
C9 C8 1.387 . S
N10 Co1 2.022 . S
N10 C7 1.351 . S
N10 N11 1.365 . S
N11 C8 1.341 . S
N11 N10 1.365 . S
N11 H31 0.862 . S
C12 C7 1.501 . S
C12 H13 0.961 . S
C12 H14 0.961 . S
C12 H15 0.960 . S
H13 C12 0.961 . S
H14 C12 0.961 . S
H15 C12 0.960 . S
C16 N17 1.342 . S
C16 C20 1.401 . S
C16 C21 1.499 . S
N17 Co0 1.989 1_556 S
N17 C16 1.342 . S
N17 N18 1.388 1_556 S
N18 Co1 1.993 . S
N18 N17 1.388 1_554 S
N18 C19 1.346 1_554 S
C19 N18 1.346 1_556 S
C19 C20 1.396 . S
C19 C29 1.510 . S
C20 C16 1.401 . S
C20 C19 1.396 . S
C21 C16 1.499 . S
C21 H22 0.959 . S
C21 H23 0.960 . S
C21 H24 0.961 . S
H22 C21 0.959 . S
H23 C21 0.960 . S
H24 C21 0.961 . S
O25 Co0 1.967 . S
O25 C33 1.258 . S
O26 Co1 1.941 . S
O26 C33 1.266 . S
H27 C29 0.962 . S
H28 C29 0.961 . S
C29 C19 1.510 . S
C29 H27 0.962 . S
C29 H28 0.961 . S
C29 H30 0.960 1_556 S
H30 C29 0.960 1_554 S
H31 N11 0.862 . S
O32 Co0 1.920 1_556 S
O32 C5 1.289 . S
C33 O25 1.258 . S
C33 O26 1.266 . S
Co34 O37 1.970 . S
Co34 N51 1.989 . S
Co34 O59 1.967 . S
Co34 O66 1.920 . S
Co35 O38 1.966 . S
Co35 N44 2.022 . S
Co35 N52 1.993 . S
Co35 O60 1.941 . S
C36 O37 1.258 . S
C36 O38 1.263 . S
O37 Co34 1.970 . S
O37 C36 1.258 . S
O38 Co35 1.966 . S
O38 C36 1.263 . S
C39 O40 1.235 . S
C39 O66 1.289 . S
O40 C39 1.235 . S
C41 C43 1.400 . S
C41 N44 1.351 . S
C41 C46 1.501 . S
C42 C43 1.387 . S
C42 N45 1.341 . S
C43 C41 1.400 . S
C43 C42 1.387 . S
N44 Co35 2.022 . S
N44 C41 1.351 . S
N44 N45 1.365 . S
N45 C42 1.341 . S
N45 N44 1.365 . S
N45 H65 0.862 . S
C46 C41 1.501 . S
C46 H47 0.961 . S
C46 H48 0.961 . S
C46 H49 0.960 . S
H47 C46 0.961 . S
H48 C46 0.961 . S
H49 C46 0.960 . S
C50 N51 1.342 . S
C50 C54 1.401 . S
C50 C55 1.499 . S
N51 Co34 1.989 . S
N51 C50 1.342 . S
N51 N52 1.388 . S
N52 Co35 1.993 . S
N52 N51 1.388 . S
N52 C53 1.346 . S
C53 N52 1.346 . S
C53 C54 1.396 . S
C53 C63 1.510 . S
C54 C50 1.401 . S
C54 C53 1.396 . S
C55 C50 1.499 . S
C55 H56 0.959 . S
C55 H57 0.960 . S
C55 H58 0.961 . S
H56 C55 0.959 . S
H57 C55 0.960 . S
H58 C55 0.961 . S
O59 Co34 1.967 . S
O59 C67 1.258 . S
O60 Co35 1.941 . S
O60 C67 1.266 . S
H61 C63 0.959 . S
H62 C63 0.961 . S
C63 C53 1.510 . S
C63 H61 0.959 . S
C63 H62 0.961 . S
C63 H64 0.960 . S
H64 C63 0.960 . S
H65 N45 0.862 . S
O66 Co34 1.920 . S
O66 C39 1.289 . S
C67 O59 1.258 . S
C67 O60 1.266 . S
Co68 O71 1.970 . S
Co68 N85 1.989 . S
Co68 O93 1.967 . S
Co68 O100 1.920 . S
Co69 O72 1.966 . S
Co69 N78 2.022 . S
Co69 N86 1.993 . S
Co69 O94 1.941 . S
C70 O71 1.258 . S
C70 O72 1.263 . S
O71 Co68 1.970 . S
O71 C70 1.258 . S
O72 Co69 1.966 . S
O72 C70 1.263 . S
C73 O74 1.235 . S
C73 O100 1.289 . S
O74 C73 1.235 . S
C75 C77 1.400 . S
C75 N78 1.351 . S
C75 C80 1.501 . S
C76 C77 1.387 . S
C76 N79 1.341 . S
C77 C75 1.400 . S
C77 C76 1.387 . S
N78 Co69 2.022 . S
N78 C75 1.351 . S
N78 N79 1.365 . S
N79 C76 1.341 . S
N79 N78 1.365 . S
N79 H99 0.862 . S
C80 C75 1.501 . S
C80 H81 0.961 . S
C80 H82 0.961 . S
C80 H83 0.960 . S
H81 C80 0.961 . S
H82 C80 0.961 . S
H83 C80 0.960 . S
C84 N85 1.342 . S
C84 C88 1.401 . S
C84 C89 1.499 . S
N85 Co68 1.989 . S
N85 C84 1.342 . S
N85 N86 1.388 . S
N86 Co69 1.993 . S
N86 N85 1.388 . S
N86 C87 1.346 . S
C87 N86 1.346 . S
C87 C88 1.396 . S
C87 C97 1.510 . S
C88 C84 1.401 . S
C88 C87 1.396 . S
C89 C84 1.499 . S
C89 H90 0.959 . S
C89 H91 0.960 . S
C89 H92 0.961 . S
H90 C89 0.959 . S
H91 C89 0.960 . S
H92 C89 0.961 . S
O93 Co68 1.967 . S
O93 C101 1.258 . S
O94 Co69 1.941 . S
O94 C101 1.266 . S
H95 C97 0.959 . S
H96 C97 0.961 . S
C97 C87 1.510 . S
C97 H95 0.959 . S
C97 H96 0.961 . S
C97 H98 0.960 . S
H98 C97 0.960 . S
H99 N79 0.862 . S
O100 Co68 1.920 . S
O100 C73 1.289 . S
C101 O93 1.258 . S
C101 O94 1.266 . S
Co102 O105 1.970 . S
Co102 N119 1.989 . S
Co102 O127 1.967 . S
Co102 O134 1.920 . S
Co103 O106 1.966 . S
Co103 N112 2.022 . S
Co103 N120 1.993 . S
Co103 O128 1.941 . S
C104 O105 1.258 . S
C104 O106 1.263 . S
O105 Co102 1.970 . S
O105 C104 1.258 . S
O106 Co103 1.966 . S
O106 C104 1.263 . S
C107 O108 1.235 . S
C107 O134 1.289 . S
O108 C107 1.235 . S
C109 C111 1.400 . S
C109 N112 1.351 . S
C109 C114 1.501 . S
C110 C111 1.387 . S
C110 N113 1.341 . S
C111 C109 1.400 . S
C111 C110 1.387 . S
N112 Co103 2.022 . S
N112 C109 1.351 . S
N112 N113 1.365 . S
N113 C110 1.341 . S
N113 N112 1.365 . S
N113 H133 0.862 . S
C114 C109 1.501 . S
C114 H115 0.961 . S
C114 H116 0.961 . S
C114 H117 0.960 . S
H115 C114 0.961 . S
H116 C114 0.961 . S
H117 C114 0.960 . S
C118 N119 1.342 . S
C118 C122 1.401 . S
C118 C123 1.499 . S
N119 Co102 1.989 . S
N119 C118 1.342 . S
N119 N120 1.388 . S
N120 Co103 1.993 . S
N120 N119 1.388 . S
N120 C121 1.346 . S
C121 N120 1.346 . S
C121 C122 1.396 . S
C121 C131 1.510 . S
C122 C118 1.401 . S
C122 C121 1.396 . S
C123 C118 1.499 . S
C123 H124 0.959 . S
C123 H125 0.960 . S
C123 H126 0.961 . S
H124 C123 0.959 . S
H125 C123 0.960 . S
H126 C123 0.961 . S
O127 Co102 1.967 . S
O127 C135 1.258 . S
O128 Co103 1.941 . S
O128 C135 1.266 . S
H129 C131 0.959 . S
H130 C131 0.961 . S
C131 C121 1.510 . S
C131 H129 0.959 . S
C131 H130 0.961 . S
C131 H132 0.960 . S
H132 C131 0.960 . S
H133 N113 0.862 . S
O134 Co102 1.920 . S
O134 C107 1.289 . S
C135 O127 1.258 . S
C135 O128 1.266 . S
Co136 O139 1.970 . S
Co136 N153 1.989 . S
Co136 O161 1.967 . S
Co136 O168 1.920 . S
Co137 O140 1.966 . S
Co137 N146 2.022 . S
Co137 N154 1.993 . S
Co137 O162 1.941 . S
C138 O139 1.258 . S
C138 O140 1.263 . S
O139 Co136 1.970 . S
O139 C138 1.258 . S
O140 Co137 1.966 . S
O140 C138 1.263 . S
C141 O142 1.235 . S
C141 O168 1.289 . S
O142 C141 1.235 . S
C143 C145 1.400 . S
C143 N146 1.351 . S
C143 C148 1.501 . S
C144 C145 1.387 . S
C144 N147 1.341 . S
C145 C143 1.400 . S
C145 C144 1.387 . S
N146 Co137 2.022 . S
N146 C143 1.351 . S
N146 N147 1.365 . S
N147 C144 1.341 . S
N147 N146 1.365 . S
N147 H167 0.862 . S
C148 C143 1.501 . S
C148 H149 0.961 . S
C148 H150 0.961 . S
C148 H151 0.960 . S
H149 C148 0.961 . S
H150 C148 0.961 . S
H151 C148 0.960 . S
C152 N153 1.342 . S
C152 C156 1.401 . S
C152 C157 1.499 . S
N153 Co136 1.989 . S
N153 C152 1.342 . S
N153 N154 1.388 . S
N154 Co137 1.993 . S
N154 N153 1.388 . S
N154 C155 1.346 . S
C155 N154 1.346 . S
C155 C156 1.396 . S
C155 C165 1.510 . S
C156 C152 1.401 . S
C156 C155 1.396 . S
C157 C152 1.499 . S
C157 H158 0.959 . S
C157 H159 0.960 . S
C157 H160 0.961 . S
H158 C157 0.959 . S
H159 C157 0.960 . S
H160 C157 0.961 . S
O161 Co136 1.967 . S
O161 C169 1.258 . S
O162 Co137 1.941 . S
O162 C169 1.266 . S
H163 C165 0.959 . S
H164 C165 0.961 . S
C165 C155 1.510 . S
C165 H163 0.959 . S
C165 H164 0.961 . S
C165 H166 0.960 . S
H166 C165 0.960 . S
H167 N147 0.862 . S
O168 Co136 1.920 . S
O168 C141 1.289 . S
C169 O161 1.258 . S
C169 O162 1.266 . S
Co170 O173 1.970 . S
Co170 N187 1.989 . S
Co170 O195 1.967 . S
Co170 O202 1.920 . S
Co171 O174 1.966 . S
Co171 N180 2.022 . S
Co171 N188 1.993 . S
Co171 O196 1.941 . S
C172 O173 1.258 . S
C172 O174 1.263 . S
O173 Co170 1.970 . S
O173 C172 1.258 . S
O174 Co171 1.966 . S
O174 C172 1.263 . S
C175 O176 1.235 . S
C175 O202 1.289 . S
O176 C175 1.235 . S
C177 C179 1.400 . S
C177 N180 1.351 . S
C177 C182 1.501 . S
C178 C179 1.387 . S
C178 N181 1.341 . S
C179 C177 1.400 . S
C179 C178 1.387 . S
N180 Co171 2.022 . S
N180 C177 1.351 . S
N180 N181 1.365 . S
N181 C178 1.341 . S
N181 N180 1.365 . S
N181 H201 0.862 . S
C182 C177 1.501 . S
C182 H183 0.961 . S
C182 H184 0.961 . S
C182 H185 0.960 . S
H183 C182 0.961 . S
H184 C182 0.961 . S
H185 C182 0.960 . S
C186 N187 1.342 . S
C186 C190 1.401 . S
C186 C191 1.499 . S
N187 Co170 1.989 . S
N187 C186 1.342 . S
N187 N188 1.388 . S
N188 Co171 1.993 . S
N188 N187 1.388 . S
N188 C189 1.346 . S
C189 N188 1.346 . S
C189 C190 1.396 . S
C189 C199 1.510 . S
C190 C186 1.401 . S
C190 C189 1.396 . S
C191 C186 1.499 . S
C191 H192 0.959 . S
C191 H193 0.960 . S
C191 H194 0.961 . S
H192 C191 0.959 . S
H193 C191 0.960 . S
H194 C191 0.961 . S
O195 Co170 1.967 . S
O195 C203 1.258 . S
O196 Co171 1.941 . S
O196 C203 1.266 . S
H197 C199 0.959 . S
H198 C199 0.961 . S
C199 C189 1.510 . S
C199 H197 0.959 . S
C199 H198 0.961 . S
C199 H200 0.960 . S
H200 C199 0.960 . S
H201 N181 0.862 . S
O202 Co170 1.920 . S
O202 C175 1.289 . S
C203 O195 1.258 . S
C203 O196 1.266 . S
Co204 O207 1.970 . S
Co204 N221 1.989 . S
Co204 O229 1.967 . S
Co204 O236 1.920 . S
Co205 O208 1.966 . S
Co205 N214 2.022 . S
Co205 N222 1.993 . S
Co205 O230 1.941 . S
C206 O207 1.258 . S
C206 O208 1.263 . S
O207 Co204 1.970 . S
O207 C206 1.258 . S
O208 Co205 1.966 . S
O208 C206 1.263 . S
C209 O210 1.235 . S
C209 O236 1.289 . S
O210 C209 1.235 . S
C211 C213 1.400 . S
C211 N214 1.351 . S
C211 C216 1.501 . S
C212 C213 1.387 . S
C212 N215 1.341 . S
C213 C211 1.400 . S
C213 C212 1.387 . S
N214 Co205 2.022 . S
N214 C211 1.351 . S
N214 N215 1.365 . S
N215 C212 1.341 . S
N215 N214 1.365 . S
N215 H235 0.862 . S
C216 C211 1.501 . S
C216 H217 0.961 . S
C216 H218 0.961 . S
C216 H219 0.960 . S
H217 C216 0.961 . S
H218 C216 0.961 . S
H219 C216 0.960 . S
C220 N221 1.342 . S
C220 C224 1.401 . S
C220 C225 1.499 . S
N221 Co204 1.989 . S
N221 C220 1.342 . S
N221 N222 1.388 . S
N222 Co205 1.993 . S
N222 N221 1.388 . S
N222 C223 1.346 . S
C223 N222 1.346 . S
C223 C224 1.396 . S
C223 C233 1.510 . S
C224 C220 1.401 . S
C224 C223 1.396 . S
C225 C220 1.499 . S
C225 H226 0.959 . S
C225 H227 0.960 . S
C225 H228 0.961 . S
H226 C225 0.959 . S
H227 C225 0.960 . S
H228 C225 0.961 . S
O229 Co204 1.967 . S
O229 C237 1.258 . S
O230 Co205 1.941 . S
O230 C237 1.266 . S
H231 C233 0.959 . S
H232 C233 0.961 . S
C233 C223 1.510 . S
C233 H231 0.959 . S
C233 H232 0.961 . S
C233 H234 0.960 . S
H234 C233 0.960 . S
H235 N215 0.862 . S
O236 Co204 1.920 . S
O236 C209 1.289 . S
C237 O229 1.258 . S
C237 O230 1.266 . S
Co238 O241 1.970 . S
Co238 N255 1.989 1_556 S
Co238 O263 1.967 . S
Co238 O270 1.920 1_556 S
Co239 O242 1.966 . S
Co239 N248 2.022 . S
Co239 N256 1.993 . S
Co239 O264 1.941 . S
C240 O241 1.258 . S
C240 O242 1.263 . S
O241 Co238 1.970 . S
O241 C240 1.258 . S
O242 Co239 1.966 . S
O242 C240 1.263 . S
C243 O244 1.235 . S
C243 O270 1.289 . S
O244 C243 1.235 . S
C245 C247 1.400 . S
C245 N248 1.351 . S
C245 C250 1.501 . S
C246 C247 1.387 . S
C246 N249 1.341 . S
C247 C245 1.400 . S
C247 C246 1.387 . S
N248 Co239 2.022 . S
N248 C245 1.351 . S
N248 N249 1.365 . S
N249 C246 1.341 . S
N249 N248 1.365 . S
N249 H269 0.862 . S
C250 C245 1.501 . S
C250 H251 0.961 . S
C250 H252 0.961 . S
C250 H253 0.960 . S
H251 C250 0.961 . S
H252 C250 0.961 . S
H253 C250 0.960 . S
C254 N255 1.342 . S
C254 C258 1.401 . S
C254 C259 1.499 . S
N255 Co238 1.989 1_554 S
N255 C254 1.342 . S
N255 N256 1.388 1_554 S
N256 Co239 1.993 . S
N256 N255 1.388 1_556 S
N256 C257 1.346 1_556 S
C257 N256 1.346 1_554 S
C257 C258 1.396 . S
C257 C267 1.510 1_554 S
C258 C254 1.401 . S
C258 C257 1.396 . S
C259 C254 1.499 . S
C259 H260 0.959 . S
C259 H261 0.960 . S
C259 H262 0.961 . S
H260 C259 0.959 . S
H261 C259 0.960 . S
H262 C259 0.961 . S
O263 Co238 1.967 . S
O263 C271 1.258 . S
O264 Co239 1.941 . S
O264 C271 1.266 . S
H265 C267 0.959 . S
H266 C267 0.961 1_554 S
C267 C257 1.510 1_556 S
C267 H265 0.959 . S
C267 H266 0.961 1_556 S
C267 H268 0.960 . S
H268 C267 0.960 . S
H269 N249 0.862 . S
O270 Co238 1.920 1_554 S
O270 C243 1.289 . S
C271 O263 1.258 . S
C271 O264 1.266 . S
Co272 O275 1.970 . S
Co272 N289 1.989 . S
Co272 O297 1.967 . S
Co272 O304 1.920 . S
Co273 O276 1.966 . S
Co273 N282 2.022 . S
Co273 N290 1.993 . S
Co273 O298 1.941 . S
C274 O275 1.258 . S
C274 O276 1.263 . S
O275 Co272 1.970 . S
O275 C274 1.258 . S
O276 Co273 1.966 . S
O276 C274 1.263 . S
C277 O278 1.235 . S
C277 O304 1.289 . S
O278 C277 1.235 . S
C279 C281 1.400 . S
C279 N282 1.351 . S
C279 C284 1.501 . S
C280 C281 1.387 . S
C280 N283 1.341 . S
C281 C279 1.400 . S
C281 C280 1.387 . S
N282 Co273 2.022 . S
N282 C279 1.351 . S
N282 N283 1.365 . S
N283 C280 1.341 . S
N283 N282 1.365 . S
N283 H303 0.862 . S
C284 C279 1.501 . S
C284 H285 0.961 . S
C284 H286 0.961 . S
C284 H287 0.960 . S
H285 C284 0.961 . S
H286 C284 0.961 . S
H287 C284 0.960 . S
C288 N289 1.342 . S
C288 C292 1.401 . S
C288 C293 1.499 . S
N289 Co272 1.989 . S
N289 C288 1.342 . S
N289 N290 1.388 . S
N290 Co273 1.993 . S
N290 N289 1.388 . S
N290 C291 1.346 . S
C291 N290 1.346 . S
C291 C292 1.396 . S
C291 C301 1.510 . S
C292 C288 1.401 . S
C292 C291 1.396 . S
C293 C288 1.499 . S
C293 H294 0.959 . S
C293 H295 0.960 . S
C293 H296 0.961 . S
H294 C293 0.959 . S
H295 C293 0.960 . S
H296 C293 0.961 . S
O297 Co272 1.967 . S
O297 C305 1.258 . S
O298 Co273 1.941 . S
O298 C305 1.266 . S
H299 C301 0.959 . S
H300 C301 0.961 . S
C301 C291 1.510 . S
C301 H299 0.959 . S
C301 H300 0.961 . S
C301 H302 0.960 . S
H302 C301 0.960 . S
H303 N283 0.862 . S
O304 Co272 1.920 . S
O304 C277 1.289 . S
C305 O297 1.258 . S
C305 O298 1.266 . S
Co306 O309 1.970 . S
Co306 N323 1.989 . S
Co306 O331 1.967 . S
Co306 O338 1.920 . S
Co307 O310 1.966 . S
Co307 N316 2.022 . S
Co307 N324 1.993 . S
Co307 O332 1.941 . S
C308 O309 1.258 . S
C308 O310 1.263 . S
O309 Co306 1.970 . S
O309 C308 1.258 . S
O310 Co307 1.966 . S
O310 C308 1.263 . S
C311 O312 1.235 . S
C311 O338 1.289 . S
O312 C311 1.235 . S
C313 C315 1.400 . S
C313 N316 1.351 . S
C313 C318 1.501 . S
C314 C315 1.387 . S
C314 N317 1.341 . S
C315 C313 1.400 . S
C315 C314 1.387 . S
N316 Co307 2.022 . S
N316 C313 1.351 . S
N316 N317 1.365 . S
N317 C314 1.341 . S
N317 N316 1.365 . S
N317 H337 0.862 . S
C318 C313 1.501 . S
C318 H319 0.961 . S
C318 H320 0.961 . S
C318 H321 0.960 . S
H319 C318 0.961 . S
H320 C318 0.961 . S
H321 C318 0.960 . S
C322 N323 1.342 . S
C322 C326 1.401 . S
C322 C327 1.499 . S
N323 Co306 1.989 . S
N323 C322 1.342 . S
N323 N324 1.388 . S
N324 Co307 1.993 . S
N324 N323 1.388 . S
N324 C325 1.346 . S
C325 N324 1.346 . S
C325 C326 1.396 . S
C325 C335 1.510 . S
C326 C322 1.401 . S
C326 C325 1.396 . S
C327 C322 1.499 . S
C327 H328 0.959 . S
C327 H329 0.960 . S
C327 H330 0.961 . S
H328 C327 0.959 . S
H329 C327 0.960 . S
H330 C327 0.961 . S
O331 Co306 1.967 . S
O331 C339 1.258 . S
O332 Co307 1.941 . S
O332 C339 1.266 . S
H333 C335 0.959 . S
H334 C335 0.961 . S
C335 C325 1.510 . S
C335 H333 0.959 . S
C335 H334 0.961 . S
C335 H336 0.960 . S
H336 C335 0.960 . S
H337 N317 0.862 . S
O338 Co306 1.920 . S
O338 C311 1.289 . S
C339 O331 1.258 . S
C339 O332 1.266 . S
Co340 O343 1.970 . S
Co340 N357 1.989 . S
Co340 O365 1.967 . S
Co340 O372 1.920 . S
Co341 O344 1.966 . S
Co341 N350 2.022 . S
Co341 N358 1.993 . S
Co341 O366 1.941 . S
C342 O343 1.258 . S
C342 O344 1.263 . S
O343 Co340 1.970 . S
O343 C342 1.258 . S
O344 Co341 1.966 . S
O344 C342 1.263 . S
C345 O346 1.235 . S
C345 O372 1.289 . S
O346 C345 1.235 . S
C347 C349 1.400 . S
C347 N350 1.351 . S
C347 C352 1.501 . S
C348 C349 1.387 . S
C348 N351 1.341 . S
C349 C347 1.400 . S
C349 C348 1.387 . S
N350 Co341 2.022 . S
N350 C347 1.351 . S
N350 N351 1.365 . S
N351 C348 1.341 . S
N351 N350 1.365 . S
N351 H371 0.862 . S
C352 C347 1.501 . S
C352 H353 0.961 . S
C352 H354 0.961 . S
C352 H355 0.960 . S
H353 C352 0.961 . S
H354 C352 0.961 . S
H355 C352 0.960 . S
C356 N357 1.342 . S
C356 C360 1.401 . S
C356 C361 1.499 . S
N357 Co340 1.989 . S
N357 C356 1.342 . S
N357 N358 1.388 . S
N358 Co341 1.993 . S
N358 N357 1.388 . S
N358 C359 1.346 . S
C359 N358 1.346 . S
C359 C360 1.396 . S
C359 C369 1.510 . S
C360 C356 1.401 . S
C360 C359 1.396 . S
C361 C356 1.499 . S
C361 H362 0.959 . S
C361 H363 0.960 . S
C361 H364 0.961 . S
H362 C361 0.959 . S
H363 C361 0.960 . S
H364 C361 0.961 . S
O365 Co340 1.967 . S
O365 C373 1.258 . S
O366 Co341 1.941 . S
O366 C373 1.266 . S
H367 C369 0.959 . S
H368 C369 0.961 . S
C369 C359 1.510 . S
C369 H367 0.959 . S
C369 H368 0.961 . S
C369 H370 0.960 . S
H370 C369 0.960 . S
H371 N351 0.862 . S
O372 Co340 1.920 . S
O372 C345 1.289 . S
C373 O365 1.258 . S
C373 O366 1.266 . S
Co374 O377 1.970 . S
Co374 N391 1.989 . S
Co374 O399 1.967 . S
Co374 O406 1.920 . S
Co375 O378 1.966 . S
Co375 N384 2.022 . S
Co375 N392 1.993 . S
Co375 O400 1.941 . S
C376 O377 1.258 . S
C376 O378 1.263 . S
O377 Co374 1.970 . S
O377 C376 1.258 . S
O378 Co375 1.966 . S
O378 C376 1.263 . S
C379 O380 1.235 . S
C379 O406 1.289 . S
O380 C379 1.235 . S
C381 C383 1.400 . S
C381 N384 1.351 . S
C381 C386 1.501 . S
C382 C383 1.387 . S
C382 N385 1.341 . S
C383 C381 1.400 . S
C383 C382 1.387 . S
N384 Co375 2.022 . S
N384 C381 1.351 . S
N384 N385 1.365 . S
N385 C382 1.341 . S
N385 N384 1.365 . S
N385 H405 0.862 . S
C386 C381 1.501 . S
C386 H387 0.961 . S
C386 H388 0.961 . S
C386 H389 0.960 . S
H387 C386 0.961 . S
H388 C386 0.961 . S
H389 C386 0.960 . S
C390 N391 1.342 . S
C390 C394 1.401 . S
C390 C395 1.499 . S
N391 Co374 1.989 . S
N391 C390 1.342 . S
N391 N392 1.388 . S
N392 Co375 1.993 . S
N392 N391 1.388 . S
N392 C393 1.346 . S
C393 N392 1.346 . S
C393 C394 1.396 . S
C393 C403 1.510 . S
C394 C390 1.401 . S
C394 C393 1.396 . S
C395 C390 1.499 . S
C395 H396 0.959 . S
C395 H397 0.960 . S
C395 H398 0.961 . S
H396 C395 0.959 . S
H397 C395 0.960 . S
H398 C395 0.961 . S
O399 Co374 1.967 . S
O399 C407 1.258 . S
O400 Co375 1.941 . S
O400 C407 1.266 . S
H401 C403 0.959 . S
H402 C403 0.961 . S
C403 C393 1.510 . S
C403 H401 0.959 . S
C403 H402 0.961 . S
C403 H404 0.960 . S
H404 C403 0.960 . S
H405 N385 0.862 . S
O406 Co374 1.920 . S
O406 C379 1.289 . S
C407 O399 1.258 . S
C407 O400 1.266 . S
H408 C414 0.930 . S
H409 C418 0.930 . S
H410 C423 0.929 . S
H411 C421 0.929 . S
H412 C416 0.929 . S
H413 C422 0.929 . S
C414 H408 0.930 . S
C414 C415 1.367 . S
C414 C422 1.378 . S
C415 C414 1.367 . S
C415 C423 1.433 . S
C416 H412 0.929 . S
C416 C418 1.378 . S
C416 C420 1.350 . S
C417 C420 1.463 . S
C417 C422 1.350 . S
C417 N425 1.427 . S
C418 H409 0.930 . S
C418 C416 1.378 . S
C418 C419 1.367 . S
C419 C418 1.367 . S
C419 C421 1.433 . S
C420 C416 1.350 . S
C420 C417 1.463 . S
C420 N424 1.427 . S
C421 H411 0.929 . S
C421 C419 1.433 . S
C421 N424 1.384 . S
C422 H413 0.929 . S
C422 C414 1.378 . S
C422 C417 1.350 . S
C423 H410 0.929 . S
C423 C415 1.433 . S
C423 N425 1.384 . S
N424 C420 1.427 . S
N424 C421 1.384 . S
N425 C417 1.427 . S
N425 C423 1.384 . S
H426 C432 0.930 . S
H427 C436 0.930 . S
H428 C441 0.929 . S
H429 C439 0.929 . S
H430 C434 0.929 . S
H431 C440 0.929 . S
C432 H426 0.930 . S
C432 C433 1.367 . S
C432 C440 1.378 . S
C433 C432 1.367 . S
C433 C441 1.433 . S
C434 H430 0.929 . S
C434 C436 1.378 1_455 S
C434 C438 1.350 . S
C435 C438 1.463 . S
C435 C440 1.350 . S
C435 N443 1.427 . S
C436 H427 0.930 . S
C436 C434 1.378 1_655 S
C436 C437 1.367 . S
C437 C436 1.367 . S
C437 C439 1.433 1_655 S
C438 C434 1.350 . S
C438 C435 1.463 . S
C438 N442 1.427 . S
C439 H429 0.929 . S
C439 C437 1.433 1_455 S
C439 N442 1.384 . S
C440 H431 0.929 . S
C440 C432 1.378 . S
C440 C435 1.350 . S
C441 H428 0.929 . S
C441 C433 1.433 . S
C441 N443 1.384 . S
N442 C438 1.427 . S
N442 C439 1.384 . S
N443 C435 1.427 . S
N443 C441 1.384 . S
H444 C450 0.930 . S
H445 C454 0.931 . S
H446 C459 0.929 . S
H447 C457 0.929 1_565 S
H448 C452 0.929 . S
H449 C458 0.929 . S
C450 H444 0.930 . S
C450 C451 1.367 . S
C450 C458 1.378 . S
C451 C450 1.367 . S
C451 C459 1.433 . S
C452 H448 0.929 . S
C452 C454 1.363 1_545 S
C452 C456 1.350 . S
C453 C456 1.463 . S
C453 C458 1.350 . S
C453 N461 1.427 . S
C454 H445 0.931 . S
C454 C452 1.363 1_565 S
C454 C455 1.381 . S
C455 C454 1.381 . S
C455 C457 1.433 1_565 S
C456 C452 1.350 . S
C456 C453 1.463 . S
C456 N460 1.427 . S
C457 H447 0.929 1_545 S
C457 C455 1.433 1_545 S
C457 N460 1.384 . S
C458 H449 0.929 . S
C458 C450 1.378 . S
C458 C453 1.350 . S
C459 H446 0.929 . S
C459 C451 1.433 . S
C459 N461 1.384 . S
N460 C456 1.427 . S
N460 C457 1.384 . S
N461 C453 1.427 . S
N461 C459 1.384 . S
H462 C468 0.930 . S
H463 C472 0.930 . S
H464 C477 0.929 . S
H465 C475 0.929 . S
H466 C470 0.929 . S
H467 C476 0.929 . S
C468 H462 0.930 . S
C468 C469 1.367 . S
C468 C476 1.378 . S
C469 C468 1.367 . S
C469 C477 1.433 . S
C470 H466 0.929 . S
C470 C472 1.378 . S
C470 C474 1.350 . S
C471 C474 1.463 . S
C471 C476 1.350 . S
C471 N479 1.427 . S
C472 H463 0.930 . S
C472 C470 1.378 . S
C472 C473 1.367 . S
C473 C472 1.367 . S
C473 C475 1.433 . S
C474 C470 1.350 . S
C474 C471 1.463 . S
C474 N478 1.427 . S
C475 H465 0.929 . S
C475 C473 1.433 . S
C475 N478 1.384 . S
C476 H467 0.929 . S
C476 C468 1.378 . S
C476 C471 1.350 . S
C477 H464 0.929 . S
C477 C469 1.433 . S
C477 N479 1.384 . S
N478 C474 1.427 . S
N478 C475 1.384 . S
N479 C471 1.427 . S
N479 C477 1.384 . S
H480 C486 0.930 . S
H481 C490 0.930 . S
H482 C495 0.929 . S
H483 C493 0.929 . S
H484 C488 0.929 . S
H485 C494 0.929 . S
C486 H480 0.930 . S
C486 C487 1.367 1_655 S
C486 C494 1.378 . S
C487 C486 1.367 1_455 S
C487 C495 1.433 . S
C488 H484 0.929 . S
C488 C490 1.378 . S
C488 C492 1.350 . S
C489 C492 1.463 . S
C489 C494 1.350 . S
C489 N497 1.427 . S
C490 H481 0.930 . S
C490 C488 1.378 . S
C490 C491 1.367 . S
C491 C490 1.367 . S
C491 C493 1.433 . S
C492 C488 1.350 . S
C492 C489 1.463 . S
C492 N496 1.427 . S
C493 H483 0.929 . S
C493 C491 1.433 . S
C493 N496 1.384 . S
C494 H485 0.929 . S
C494 C486 1.378 . S
C494 C489 1.350 . S
C495 H482 0.929 . S
C495 C487 1.433 . S
C495 N497 1.384 1_455 S
N496 C492 1.427 . S
N496 C493 1.384 . S
N497 C489 1.427 . S
N497 C495 1.384 1_655 S
H498 C504 0.930 . S
H499 C508 0.930 . S
H500 C513 0.929 . S
H501 C511 0.929 . S
H502 C506 0.929 . S
H503 C512 0.929 . S
C504 H498 0.930 . S
C504 C505 1.367 . S
C504 C512 1.378 . S
C505 C504 1.367 . S
C505 C513 1.433 . S
C506 H502 0.929 . S
C506 C508 1.378 . S
C506 C510 1.350 . S
C507 C510 1.463 . S
C507 C512 1.350 . S
C507 N515 1.427 . S
C508 H499 0.930 . S
C508 C506 1.378 . S
C508 C509 1.367 1_565 S
C509 C508 1.367 1_545 S
C509 C511 1.433 . S
C510 C506 1.350 . S
C510 C507 1.463 . S
C510 N514 1.427 . S
C511 H501 0.929 . S
C511 C509 1.433 . S
C511 N514 1.384 1_545 S
C512 H503 0.929 . S
C512 C504 1.378 . S
C512 C507 1.350 . S
C513 H500 0.929 . S
C513 C505 1.433 . S
C513 N515 1.384 . S
N514 C510 1.427 . S
N514 C511 1.384 1_565 S
N515 C507 1.427 . S
N515 C513 1.384 . S
H516 C522 0.930 . S
H517 C526 0.930 . S
H518 C531 0.929 . S
H519 C529 0.929 . S
H520 C524 0.929 . S
H521 C530 0.929 . S
C522 H516 0.930 . S
C522 C523 1.367 . S
C522 C530 1.378 . S
C523 C522 1.367 . S
C523 C531 1.433 . S
C524 H520 0.929 . S
C524 C526 1.378 . S
C524 C528 1.350 . S
C525 C528 1.463 . S
C525 C530 1.350 . S
C525 N533 1.427 . S
C526 H517 0.930 . S
C526 C524 1.378 . S
C526 C527 1.367 . S
C527 C526 1.367 . S
C527 C529 1.433 . S
C528 C524 1.350 . S
C528 C525 1.463 . S
C528 N532 1.427 . S
C529 H519 0.929 . S
C529 C527 1.433 . S
C529 N532 1.384 . S
C530 H521 0.929 . S
C530 C522 1.378 . S
C530 C525 1.350 . S
C531 H518 0.929 . S
C531 C523 1.433 . S
C531 N533 1.384 . S
N532 C528 1.427 . S
N532 C529 1.384 . S
N533 C525 1.427 . S
N533 C531 1.384 . S
H534 C540 0.930 . S
H535 C544 0.931 1_655 S
H536 C549 0.929 . S
H537 C547 0.929 1_655 S
H538 C542 0.929 . S
H539 C548 0.929 . S
C540 H534 0.930 . S
C540 C541 1.367 . S
C540 C548 1.378 . S
C541 C540 1.367 . S
C541 C549 1.433 . S
C542 H538 0.929 . S
C542 C544 1.386 . S
C542 C546 1.350 . S
C543 C546 1.463 . S
C543 C548 1.350 . S
C543 N551 1.427 . S
C544 H535 0.931 1_455 S
C544 C542 1.386 . S
C544 C545 1.359 1_455 S
C545 C544 1.359 1_655 S
C545 C547 1.433 1_655 S
C546 C542 1.350 . S
C546 C543 1.463 . S
C546 N550 1.427 . S
C547 H537 0.929 1_455 S
C547 C545 1.433 1_455 S
C547 N550 1.384 . S
C548 H539 0.929 . S
C548 C540 1.378 . S
C548 C543 1.350 . S
C549 H536 0.929 . S
C549 C541 1.433 . S
C549 N551 1.384 . S
N550 C546 1.427 . S
N550 C547 1.384 . S
N551 C543 1.427 . S
N551 C549 1.384 . S
H552 C558 0.930 . S
H553 C562 0.930 . S
H554 C567 0.929 . S
H555 C565 0.929 . S
H556 C560 0.929 . S
H557 C566 0.929 . S
C558 H552 0.930 . S
C558 C559 1.367 . S
C558 C566 1.378 . S
C559 C558 1.367 . S
C559 C567 1.433 . S
C560 H556 0.929 . S
C560 C562 1.378 . S
C560 C564 1.350 . S
C561 C564 1.463 . S
C561 C566 1.350 . S
C561 N569 1.427 . S
C562 H553 0.930 . S
C562 C560 1.378 . S
C562 C563 1.367 1_545 S
C563 C562 1.367 1_565 S
C563 C565 1.433 . S
C564 C560 1.350 . S
C564 C561 1.463 . S
C564 N568 1.427 . S
C565 H555 0.929 . S
C565 C563 1.433 . S
C565 N568 1.384 1_565 S
C566 H557 0.929 . S
C566 C558 1.378 . S
C566 C561 1.350 . S
C567 H554 0.929 . S
C567 C559 1.433 . S
C567 N569 1.384 . S
N568 C564 1.427 . S
N568 C565 1.384 1_545 S
N569 C561 1.427 . S
N569 C567 1.384 . S
H570 C576 0.930 . S
H571 C580 0.930 . S
H572 C585 0.929 . S
H573 C583 0.929 . S
H574 C578 0.929 . S
H575 C584 0.929 . S
C576 H570 0.930 . S
C576 C577 1.367 . S
C576 C584 1.378 . S
C577 C576 1.367 . S
C577 C585 1.433 . S
C578 H574 0.929 . S
C578 C580 1.378 . S
C578 C582 1.350 . S
C579 C582 1.463 . S
C579 C584 1.350 . S
C579 N587 1.427 . S
C580 H571 0.930 . S
C580 C578 1.378 . S
C580 C581 1.367 . S
C581 C580 1.367 . S
C581 C583 1.433 . S
C582 C578 1.350 . S
C582 C579 1.463 . S
C582 N586 1.427 . S
C583 H573 0.929 . S
C583 C581 1.433 . S
C583 N586 1.384 . S
C584 H575 0.929 . S
C584 C576 1.378 . S
C584 C579 1.350 . S
C585 H572 0.929 . S
C585 C577 1.433 . S
C585 N587 1.384 . S
N586 C582 1.427 . S
N586 C583 1.384 . S
N587 C579 1.427 . S
N587 C585 1.384 . S
H588 C594 0.930 . S
H589 C598 0.930 . S
H590 C603 0.929 . S
H591 C601 0.929 . S
H592 C596 0.929 . S
H593 C602 0.929 . S
C594 H588 0.930 . S
C594 C595 1.367 . S
C594 C602 1.378 . S
C595 C594 1.367 . S
C595 C603 1.433 . S
C596 H592 0.929 . S
C596 C598 1.378 . S
C596 C600 1.350 . S
C597 C600 1.463 . S
C597 C602 1.350 . S
C597 N605 1.427 . S
C598 H589 0.930 . S
C598 C596 1.378 . S
C598 C599 1.367 1_655 S
C599 C598 1.367 1_455 S
C599 C601 1.433 . S
C600 C596 1.350 . S
C600 C597 1.463 . S
C600 N604 1.427 . S
C601 H591 0.929 . S
C601 C599 1.433 . S
C601 N604 1.384 1_455 S
C602 H593 0.929 . S
C602 C594 1.378 . S
C602 C597 1.350 . S
C603 H590 0.929 . S
C603 C595 1.433 . S
C603 N605 1.384 . S
N604 C600 1.427 . S
N604 C601 1.384 1_655 S
N605 C597 1.427 . S
N605 C603 1.384 . S
H606 C612 0.930 . S
H607 C616 0.930 . S
H608 C621 0.929 . S
H609 C619 0.929 . S
H610 C614 0.929 . S
H611 C620 0.929 . S
C612 H606 0.930 . S
C612 C613 1.367 . S
C612 C620 1.378 . S
C613 C612 1.367 . S
C613 C621 1.433 . S
C614 H610 0.929 . S
C614 C616 1.378 1_565 S
C614 C618 1.350 . S
C615 C618 1.463 . S
C615 C620 1.350 . S
C615 N623 1.427 . S
C616 H607 0.930 . S
C616 C614 1.378 1_545 S
C616 C617 1.367 . S
C617 C616 1.367 . S
C617 C619 1.433 1_545 S
C618 C614 1.350 . S
C618 C615 1.463 . S
C618 N622 1.427 . S
C619 H609 0.929 . S
C619 C617 1.433 1_565 S
C619 N622 1.384 . S
C620 H611 0.929 . S
C620 C612 1.378 . S
C620 C615 1.350 . S
C621 H608 0.929 . S
C621 C613 1.433 . S
C621 N623 1.384 . S
N622 C618 1.427 . S
N622 C619 1.384 . S
N623 C615 1.427 . S
N623 C621 1.384 . S
H624 C630 0.930 . S
H625 C634 0.930 . S
H626 C639 0.929 . S
H627 C637 0.929 . S
H628 C632 0.929 . S
H629 C638 0.929 . S
C630 H624 0.930 . S
C630 C631 1.367 . S
C630 C638 1.378 . S
C631 C630 1.367 . S
C631 C639 1.433 . S
C632 H628 0.929 . S
C632 C634 1.378 . S
C632 C636 1.350 . S
C633 C636 1.463 . S
C633 C638 1.350 . S
C633 N641 1.427 . S
C634 H625 0.930 . S
C634 C632 1.378 . S
C634 C635 1.367 . S
C635 C634 1.367 . S
C635 C637 1.433 . S
C636 C632 1.350 . S
C636 C633 1.463 . S
C636 N640 1.427 . S
C637 H627 0.929 . S
C637 C635 1.433 . S
C637 N640 1.384 . S
C638 H629 0.929 . S
C638 C630 1.378 . S
C638 C633 1.350 . S
C639 H626 0.929 . S
C639 C631 1.433 . S
C639 N641 1.384 . S
N640 C636 1.427 . S
N640 C637 1.384 . S
N641 C633 1.427 . S
N641 C639 1.384 . S
H642 C648 0.930 . S
H643 C652 0.930 . S
H644 C657 0.929 . S
H645 C655 0.929 . S
H646 C650 0.929 . S
H647 C656 0.929 . S
C648 H642 0.930 . S
C648 C649 1.367 . S
C648 C656 1.378 . S
C649 C648 1.367 . S
C649 C657 1.433 . S
C650 H646 0.929 . S
C650 C652 1.378 . S
C650 C654 1.350 . S
C651 C654 1.463 . S
C651 C656 1.350 . S
C651 N659 1.427 . S
C652 H643 0.930 . S
C652 C650 1.378 . S
C652 C653 1.367 . S
C653 C652 1.367 . S
C653 C655 1.433 . S
C654 C650 1.350 . S
C654 C651 1.463 . S
C654 N658 1.427 . S
C655 H645 0.929 . S
C655 C653 1.433 . S
C655 N658 1.384 . S
C656 H647 0.929 . S
C656 C648 1.378 . S
C656 C651 1.350 . S
C657 H644 0.929 . S
C657 C649 1.433 . S
C657 N659 1.384 . S
N658 C654 1.427 . S
N658 C655 1.384 . S
N659 C651 1.427 . S
N659 C657 1.384 . S
H660 C666 0.930 . S
H661 C670 0.930 . S
H662 C675 0.929 . S
H663 C673 0.929 . S
H664 C668 0.929 . S
H665 C674 0.929 . S
C666 H660 0.930 . S
C666 C667 1.367 . S
C666 C674 1.378 . S
C667 C666 1.367 . S
C667 C675 1.433 . S
C668 H664 0.929 . S
C668 C670 1.378 . S
C668 C672 1.350 . S
C669 C672 1.463 . S
C669 C674 1.350 . S
C669 N677 1.427 . S
C670 H661 0.930 . S
C670 C668 1.378 . S
C670 C671 1.367 . S
C671 C670 1.367 . S
C671 C673 1.433 . S
C672 C668 1.350 . S
C672 C669 1.463 . S
C672 N676 1.427 . S
C673 H663 0.929 . S
C673 C671 1.433 . S
C673 N676 1.384 . S
C674 H665 0.929 . S
C674 C666 1.378 . S
C674 C669 1.350 . S
C675 H662 0.929 . S
C675 C667 1.433 . S
C675 N677 1.384 . S
N676 C672 1.427 . S
N676 C673 1.384 . S
N677 C669 1.427 . S
N677 C675 1.384 . S
H678 C684 0.930 . S
H679 C688 0.930 . S
H680 C693 0.929 . S
H681 C691 0.929 . S
H682 C686 0.929 . S
H683 C692 0.929 . S
C684 H678 0.930 . S
C684 C685 1.367 . S
C684 C692 1.378 . S
C685 C684 1.367 . S
C685 C693 1.433 . S
C686 H682 0.929 . S
C686 C688 1.378 . S
C686 C690 1.350 . S
C687 C690 1.463 . S
C687 C692 1.350 . S
C687 N695 1.427 . S
C688 H679 0.930 . S
C688 C686 1.378 . S
C688 C689 1.367 . S
C689 C688 1.367 . S
C689 C691 1.433 . S
C690 C686 1.350 . S
C690 C687 1.463 . S
C690 N694 1.427 . S
C691 H681 0.929 . S
C691 C689 1.433 . S
C691 N694 1.384 . S
C692 H683 0.929 . S
C692 C684 1.378 . S
C692 C687 1.350 . S
C693 H680 0.929 . S
C693 C685 1.433 . S
C693 N695 1.384 . S
N694 C690 1.427 . S
N694 C691 1.384 . S
N695 C687 1.427 . S
N695 C693 1.384 . S
H696 C702 0.930 . S
H697 C706 0.930 . S
H698 C711 0.929 . S
H699 C709 0.929 . S
H700 C704 0.929 . S
H701 C710 0.929 . S
C702 H696 0.930 . S
C702 C703 1.367 . S
C702 C710 1.378 . S
C703 C702 1.367 . S
C703 C711 1.433 . S
C704 H700 0.929 . S
C704 C706 1.378 . S
C704 C708 1.350 . S
C705 C708 1.463 . S
C705 C710 1.350 . S
C705 N713 1.427 . S
C706 H697 0.930 . S
C706 C704 1.378 . S
C706 C707 1.367 . S
C707 C706 1.367 . S
C707 C709 1.433 . S
C708 C704 1.350 . S
C708 C705 1.463 . S
C708 N712 1.427 . S
C709 H699 0.929 . S
C709 C707 1.433 . S
C709 N712 1.384 . S
C710 H701 0.929 . S
C710 C702 1.378 . S
C710 C705 1.350 . S
C711 H698 0.929 . S
C711 C703 1.433 . S
C711 N713 1.384 . S
N712 C708 1.427 . S
N712 C709 1.384 . S
N713 C705 1.427 . S
N713 C711 1.384 . S
H714 C720 0.930 . S
H715 C724 0.930 . S
H716 C729 0.929 . S
H717 C727 0.929 . S
H718 C722 0.929 . S
H719 C728 0.929 . S
C720 H714 0.930 . S
C720 C721 1.367 . S
C720 C728 1.378 . S
C721 C720 1.367 . S
C721 C729 1.433 . S
C722 H718 0.929 . S
C722 C724 1.378 . S
C722 C726 1.350 . S
C723 C726 1.463 . S
C723 C728 1.350 . S
C723 N731 1.427 . S
C724 H715 0.930 . S
C724 C722 1.378 . S
C724 C725 1.367 . S
C725 C724 1.367 . S
C725 C727 1.433 . S
C726 C722 1.350 . S
C726 C723 1.463 . S
C726 N730 1.427 . S
C727 H717 0.929 . S
C727 C725 1.433 . S
C727 N730 1.384 . S
C728 H719 0.929 . S
C728 C720 1.378 . S
C728 C723 1.350 . S
C729 H716 0.929 . S
C729 C721 1.433 . S
C729 N731 1.384 . S
N730 C726 1.427 . S
N730 C727 1.384 . S
N731 C723 1.427 . S
N731 C729 1.384 . S
H732 C738 0.930 . S
H733 C742 0.930 . S
H734 C747 0.929 . S
H735 C745 0.929 . S
H736 C740 0.929 . S
H737 C746 0.929 . S
C738 H732 0.930 . S
C738 C739 1.367 . S
C738 C746 1.378 . S
C739 C738 1.367 . S
C739 C747 1.433 . S
C740 H736 0.929 . S
C740 C742 1.378 . S
C740 C744 1.350 . S
C741 C744 1.463 . S
C741 C746 1.350 . S
C741 N749 1.427 . S
C742 H733 0.930 . S
C742 C740 1.378 . S
C742 C743 1.367 . S
C743 C742 1.367 . S
C743 C745 1.433 . S
C744 C740 1.350 . S
C744 C741 1.463 . S
C744 N748 1.427 . S
C745 H735 0.929 . S
C745 C743 1.433 . S
C745 N748 1.384 . S
C746 H737 0.929 . S
C746 C738 1.378 . S
C746 C741 1.350 . S
C747 H734 0.929 . S
C747 C739 1.433 . S
C747 N749 1.384 . S
N748 C744 1.427 . S
N748 C745 1.384 . S
N749 C741 1.427 . S
N749 C747 1.384 . S
H750 C756 0.930 . S
H751 C760 0.930 . S
H752 C765 0.929 . S
H753 C763 0.929 . S
H754 C758 0.929 . S
H755 C764 0.929 . S
C756 H750 0.930 . S
C756 C757 1.367 . S
C756 C764 1.378 . S
C757 C756 1.367 . S
C757 C765 1.433 . S
C758 H754 0.929 . S
C758 C760 1.378 . S
C758 C762 1.350 . S
C759 C762 1.463 1_455 S
C759 C764 1.350 . S
C759 N767 1.427 . S
C760 H751 0.930 . S
C760 C758 1.378 . S
C760 C761 1.367 . S
C761 C760 1.367 . S
C761 C763 1.433 . S
C762 C758 1.350 . S
C762 C759 1.463 1_655 S
C762 N766 1.427 . S
C763 H753 0.929 . S
C763 C761 1.433 . S
C763 N766 1.384 . S
C764 H755 0.929 . S
C764 C756 1.378 . S
C764 C759 1.350 . S
C765 H752 0.929 . S
C765 C757 1.433 . S
C765 N767 1.384 . S
N766 C762 1.427 . S
N766 C763 1.384 . S
N767 C759 1.427 . S
N767 C765 1.384 . S
H768 C774 0.930 . S
H769 C778 0.930 . S
H770 C783 0.929 . S
H771 C781 0.929 . S
H772 C776 0.929 . S
H773 C782 0.929 . S
C774 H768 0.930 . S
C774 C775 1.367 . S
C774 C782 1.378 1_565 S
C775 C774 1.367 . S
C775 C783 1.433 . S
C776 H772 0.929 . S
C776 C778 1.378 1_565 S
C776 C780 1.350 1_565 S
C777 C780 1.463 1_565 S
C777 C782 1.350 1_565 S
C777 N785 1.427 . S
C778 H769 0.930 . S
C778 C776 1.378 1_545 S
C778 C779 1.367 . S
C779 C778 1.367 . S
C779 C781 1.433 . S
C780 C776 1.350 1_545 S
C780 C777 1.463 1_545 S
C780 N784 1.427 . S
C781 H771 0.929 . S
C781 C779 1.433 . S
C781 N784 1.384 . S
C782 H773 0.929 . S
C782 C774 1.378 1_545 S
C782 C777 1.350 1_545 S
C783 H770 0.929 . S
C783 C775 1.433 . S
C783 N785 1.384 . S
N784 C780 1.427 . S
N784 C781 1.384 . S
N785 C777 1.427 . S
N785 C783 1.384 . S
H786 C792 0.930 . S
H787 C796 0.930 . S
H788 C801 0.929 . S
H789 C799 0.929 . S
H790 C794 0.929 . S
H791 C800 0.929 . S
C792 H786 0.930 . S
C792 C793 1.367 . S
C792 C800 1.378 . S
C793 C792 1.367 . S
C793 C801 1.433 . S
C794 H790 0.929 . S
C794 C796 1.378 . S
C794 C798 1.350 . S
C795 C798 1.463 . S
C795 C800 1.350 . S
C795 N803 1.427 . S
C796 H787 0.930 . S
C796 C794 1.378 . S
C796 C797 1.367 . S
C797 C796 1.367 . S
C797 C799 1.433 . S
C798 C794 1.350 . S
C798 C795 1.463 . S
C798 N802 1.427 . S
C799 H789 0.929 . S
C799 C797 1.433 . S
C799 N802 1.384 . S
C800 H791 0.929 . S
C800 C792 1.378 . S
C800 C795 1.350 . S
C801 H788 0.929 . S
C801 C793 1.433 . S
C801 N803 1.384 . S
N802 C798 1.427 . S
N802 C799 1.384 . S
N803 C795 1.427 . S
N803 C801 1.384 . S
H804 C810 0.930 . S
H805 C814 0.930 . S
H806 C819 0.929 . S
H807 C817 0.929 . S
H808 C812 0.929 . S
H809 C818 0.929 . S
C810 H804 0.930 . S
C810 C811 1.367 . S
C810 C818 1.378 . S
C811 C810 1.367 . S
C811 C819 1.433 . S
C812 H808 0.929 . S
C812 C814 1.378 . S
C812 C816 1.350 . S
C813 C816 1.463 1_455 S
C813 C818 1.350 . S
C813 N821 1.427 . S
C814 H805 0.930 . S
C814 C812 1.378 . S
C814 C815 1.367 . S
C815 C814 1.367 . S
C815 C817 1.433 . S
C816 C812 1.350 . S
C816 C813 1.463 1_655 S
C816 N820 1.427 . S
C817 H807 0.929 . S
C817 C815 1.433 . S
C817 N820 1.384 . S
C818 H809 0.929 . S
C818 C810 1.378 . S
C818 C813 1.350 . S
C819 H806 0.929 . S
C819 C811 1.433 . S
C819 N821 1.384 . S
N820 C816 1.427 . S
N820 C817 1.384 . S
N821 C813 1.427 . S
N821 C819 1.384 . S
H822 C828 0.930 . S
H823 C832 0.930 . S
H824 C837 0.929 . S
H825 C835 0.929 . S
H826 C830 0.929 1_565 S
H827 C836 0.929 1_545 S
C828 H822 0.930 . S
C828 C829 1.367 . S
C828 C836 1.378 . S
C829 C828 1.367 . S
C829 C837 1.433 . S
C830 H826 0.929 1_545 S
C830 C832 1.378 . S
C830 C834 1.350 . S
C831 C834 1.463 1_564 S
C831 C836 1.350 . S
C831 N839 1.427 . S
C832 H823 0.930 . S
C832 C830 1.378 . S
C832 C833 1.367 . S
C833 C832 1.367 . S
C833 C835 1.433 . S
C834 C830 1.350 . S
C834 C831 1.463 1_546 S
C834 N838 1.427 . S
C835 H825 0.929 . S
C835 C833 1.433 . S
C835 N838 1.384 . S
C836 H827 0.929 1_565 S
C836 C828 1.378 . S
C836 C831 1.350 . S
C837 H824 0.929 . S
C837 C829 1.433 . S
C837 N839 1.384 . S
N838 C834 1.427 . S
N838 C835 1.384 . S
N839 C831 1.427 . S
N839 C837 1.384 . S
H840 C846 0.930 . S
H841 C850 0.930 . S
H842 C855 0.929 . S
H843 C853 0.929 . S
H844 C848 0.929 . S
H845 C854 0.929 . S
C846 H840 0.930 . S
C846 C847 1.367 . S
C846 C854 1.378 . S
C847 C846 1.367 . S
C847 C855 1.433 . S
C848 H844 0.929 . S
C848 C850 1.378 . S
C848 C852 1.350 . S
C849 C852 1.463 . S
C849 C854 1.350 . S
C849 N857 1.427 . S
C850 H841 0.930 . S
C850 C848 1.378 . S
C850 C851 1.367 . S
C851 C850 1.367 . S
C851 C853 1.433 . S
C852 C848 1.350 . S
C852 C849 1.463 . S
C852 N856 1.427 . S
C853 H843 0.929 . S
C853 C851 1.433 . S
C853 N856 1.384 . S
C854 H845 0.929 . S
C854 C846 1.378 . S
C854 C849 1.350 . S
C855 H842 0.929 . S
C855 C847 1.433 . S
C855 N857 1.384 . S
N856 C852 1.427 . S
N856 C853 1.384 . S
N857 C849 1.427 . S
N857 C855 1.384 . S
H858 C864 0.930 . S
H859 C868 0.930 . S
H860 C873 0.929 . S
H861 C871 0.929 . S
H862 C866 0.929 . S
H863 C872 0.929 . S
C864 H858 0.930 . S
C864 C865 1.367 . S
C864 C872 1.378 . S
C865 C864 1.367 . S
C865 C873 1.433 . S
C866 H862 0.929 . S
C866 C868 1.378 . S
C866 C870 1.350 . S
C867 C870 1.463 . S
C867 C872 1.350 . S
C867 N875 1.427 . S
C868 H859 0.930 . S
C868 C866 1.378 . S
C868 C869 1.367 . S
C869 C868 1.367 . S
C869 C871 1.433 . S
C870 C866 1.350 . S
C870 C867 1.463 . S
C870 N874 1.427 . S
C871 H861 0.929 . S
C871 C869 1.433 . S
C871 N874 1.384 . S
C872 H863 0.929 . S
C872 C864 1.378 . S
C872 C867 1.350 . S
C873 H860 0.929 . S
C873 C865 1.433 . S
C873 N875 1.384 . S
N874 C870 1.427 . S
N874 C871 1.384 . S
N875 C867 1.427 . S
N875 C873 1.384 . S
H876 C882 0.930 . S
H877 C886 0.930 . S
H878 C891 0.929 . S
H879 C889 0.929 . S
H880 C884 0.929 . S
H881 C890 0.929 . S
C882 H876 0.930 . S
C882 C883 1.367 . S
C882 C890 1.378 . S
C883 C882 1.367 . S
C883 C891 1.433 . S
C884 H880 0.929 . S
C884 C886 1.378 . S
C884 C888 1.350 . S
C885 C888 1.463 . S
C885 C890 1.350 . S
C885 N893 1.427 . S
C886 H877 0.930 . S
C886 C884 1.378 . S
C886 C887 1.367 . S
C887 C886 1.367 . S
C887 C889 1.433 . S
C888 C884 1.350 . S
C888 C885 1.463 . S
C888 N892 1.427 . S
C889 H879 0.929 . S
C889 C887 1.433 . S
C889 N892 1.384 . S
C890 H881 0.929 . S
C890 C882 1.378 . S
C890 C885 1.350 . S
C891 H878 0.929 . S
C891 C883 1.433 . S
C891 N893 1.384 . S
N892 C888 1.427 . S
N892 C889 1.384 . S
N893 C885 1.427 . S
N893 C891 1.384 . S
H894 C900 0.930 . S
H895 C904 0.930 . S
H896 C909 0.929 . S
H897 C907 0.929 . S
H898 C902 0.929 . S
H899 C908 0.929 . S
C900 H894 0.930 . S
C900 C901 1.367 . S
C900 C908 1.378 . S
C901 C900 1.367 . S
C901 C909 1.433 . S
C902 H898 0.929 . S
C902 C904 1.378 . S
C902 C906 1.350 . S
C903 C906 1.463 . S
C903 C908 1.350 . S
C903 N911 1.427 . S
C904 H895 0.930 . S
C904 C902 1.378 . S
C904 C905 1.367 . S
C905 C904 1.367 . S
C905 C907 1.433 . S
C906 C902 1.350 . S
C906 C903 1.463 . S
C906 N910 1.427 . S
C907 H897 0.929 . S
C907 C905 1.433 . S
C907 N910 1.384 . S
C908 H899 0.929 . S
C908 C900 1.378 . S
C908 C903 1.350 . S
C909 H896 0.929 . S
C909 C901 1.433 . S
C909 N911 1.384 . S
N910 C906 1.427 . S
N910 C907 1.384 . S
N911 C903 1.427 . S
N911 C909 1.384 . S
H912 C918 0.930 . S
H913 C922 0.930 . S
H914 C927 0.929 . S
H915 C925 0.929 . S
H916 C920 0.929 . S
H917 C926 0.929 . S
C918 H912 0.930 . S
C918 C919 1.367 . S
C918 C926 1.378 . S
C919 C918 1.367 . S
C919 C927 1.433 . S
C920 H916 0.929 . S
C920 C922 1.378 . S
C920 C924 1.350 . S
C921 C924 1.463 . S
C921 C926 1.350 . S
C921 N929 1.427 . S
C922 H913 0.930 . S
C922 C920 1.378 . S
C922 C923 1.367 . S
C923 C922 1.367 . S
C923 C925 1.433 . S
C924 C920 1.350 . S
C924 C921 1.463 . S
C924 N928 1.427 . S
C925 H915 0.929 . S
C925 C923 1.433 . S
C925 N928 1.384 . S
C926 H917 0.929 . S
C926 C918 1.378 . S
C926 C921 1.350 . S
C927 H914 0.929 . S
C927 C919 1.433 . S
C927 N929 1.384 . S
N928 C924 1.427 . S
N928 C925 1.384 . S
N929 C921 1.427 . S
N929 C927 1.384 . S
H930 C936 0.930 . S
H931 C940 0.930 . S
H932 C945 0.929 . S
H933 C943 0.929 . S
H934 C938 0.929 . S
H935 C944 0.929 . S
C936 H930 0.930 . S
C936 C937 1.367 . S
C936 C944 1.378 . S
C937 C936 1.367 . S
C937 C945 1.433 . S
C938 H934 0.929 . S
C938 C940 1.378 . S
C938 C942 1.350 . S
C939 C942 1.463 . S
C939 C944 1.350 . S
C939 N947 1.427 . S
C940 H931 0.930 . S
C940 C938 1.378 . S
C940 C941 1.367 . S
C941 C940 1.367 . S
C941 C943 1.433 . S
C942 C938 1.350 . S
C942 C939 1.463 . S
C942 N946 1.427 . S
C943 H933 0.929 . S
C943 C941 1.433 . S
C943 N946 1.384 . S
C944 H935 0.929 . S
C944 C936 1.378 . S
C944 C939 1.350 . S
C945 H932 0.929 . S
C945 C937 1.433 . S
C945 N947 1.384 . S
N946 C942 1.427 . S
N946 C943 1.384 . S
N947 C939 1.427 . S
N947 C945 1.384 . S
C415 C172 1.261 . S
C419 C5 1.254 . S
C433 C2 1.257 . S
C437 C39 1.260 . S
C451 C36 1.262 . S
C455 C73 1.255 . S
C469 C107 1.265 . S
C473 C70 1.260 . S
C487 C141 1.265 . S
C491 C104 1.266 . S
C505 C138 1.266 . S
C509 C175 1.265 . S
C523 C240 1.257 . S
C527 C209 1.257 . S
C541 C274 1.262 . S
C545 C243 1.255 . S
C559 C308 1.267 . S
C563 C277 1.260 . S
C577 C342 1.257 . S
C581 C311 1.261 . S
C595 C376 1.267 . S
C599 C345 1.264 . S
C613 C206 1.258 . S
C617 C379 1.257 . S
C631 C281 1.268 . S
C635 C9 1.279 . S
C649 C43 1.262 . S
C653 C315 1.273 . S
C667 C77 1.265 . S
C671 C349 1.267 . S
C685 C111 1.278 . S
C689 C383 1.270 . S
C703 C145 1.279 . S
C707 C213 1.268 . S
C721 C247 1.279 . S
C725 C179 1.267 . S
C739 C339 1.524 . S
C743 C33 1.525 . S
C757 C373 1.526 . S
C761 C67 1.525 . S
C775 C101 1.526 . S
C779 C407 1.526 . S
C793 C135 1.526 . S
C797 C237 1.526 . S
C811 C169 1.526 . S
C815 C271 1.525 . S
C829 C305 1.525 . S
C833 C203 1.526 . S
C847 C20 1.565 . S
C851 C224 1.564 . S
C865 C258 1.570 . S
C869 C54 1.570 . S
C883 C88 1.570 . S
C887 C292 1.568 . S
C901 C326 1.570 . S
C905 C122 1.568 . S
C919 C360 1.568 . S
C923 C156 1.569 . S
C937 C394 1.566 . S
C941 C190 1.564 . S
