# Generated by pormake.
# Topology snp, (6)-cn, num edge types: 1
# Building blocks:
#     Node 0, Type 0, BuildingBlock: CUWYAW_clean_sbu_0, # of connection points: 6
#     Node 1, Type 0, BuildingBlock: CUWYAW_clean_sbu_0, # of connection points: 6
#     Node 2, Type 0, BuildingBlock: CUWYAW_clean_sbu_0, # of connection points: 6
#     Node 3, Type 0, BuildingBlock: CUWYAW_clean_sbu_0, # of connection points: 6
#     Edge 4, Type (0, 0), BuildingBlock: MIFKUJ_clean_linker_0, # of connection points: 2
#     Edge 5, Type (0, 0), BuildingBlock: MIFKUJ_clean_linker_0, # of connection points: 2
#     Edge 6, Type (0, 0), BuildingBlock: MIFKUJ_clean_linker_0, # of connection points: 2
#     Edge 7, Type (0, 0), BuildingBlock: MIFKUJ_clean_linker_0, # of connection points: 2
#     Edge 8, Type (0, 0), BuildingBlock: MIFKUJ_clean_linker_0, # of connection points: 2
#     Edge 9, Type (0, 0), BuildingBlock: MIFKUJ_clean_linker_0, # of connection points: 2
#     Edge 10, Type (0, 0), BuildingBlock: MIFKUJ_clean_linker_0, # of connection points: 2
#     Edge 11, Type (0, 0), BuildingBlock: MIFKUJ_clean_linker_0, # of connection points: 2
#     Edge 12, Type (0, 0), BuildingBlock: MIFKUJ_clean_linker_0, # of connection points: 2
#     Edge 13, Type (0, 0), BuildingBlock: MIFKUJ_clean_linker_0, # of connection points: 2
#     Edge 14, Type (0, 0), BuildingBlock: MIFKUJ_clean_linker_0, # of connection points: 2
#     Edge 15, Type (0, 0), BuildingBlock: MIFKUJ_clean_linker_0, # of connection points: 2
# Relax obj value: 0.294
# Max RMSD: 0.215
# Mean RMSD: 0.201
data_MOF--net-snp--node1-CUWYAW_clean_sbu_0--edge1-MIFKUJ_clean_linker_0
_symmetry_space_group_name_H-M    P1
_symmetry_Int_Tables_number       1
_symmetry_cell_setting            triclinic
loop_
_symmetry_equiv_pos_as_xyz
'x, y, z'
_cell_length_a     31.67796
_cell_length_b     31.450768
_cell_length_c     42.322182
_cell_angle_alpha  93.402899
_cell_angle_beta   81.734347
_cell_angle_gamma 121.69425
loop_
_atom_site_label
_atom_site_type_symbol
_atom_site_fract_x
_atom_site_fract_y
_atom_site_fract_z
_atom_type_partial_charge
C0 C 0.24114 0.94335 0.15081 0.0
Eu1 Eu 0.2649 0.03243 0.16967 0.0
C2 C 0.24936 0.92441 0.11957 0.0
C3 C 0.26103 0.95315 0.09207 0.0
C4 C 0.26987 0.93625 0.06222 0.0
C5 C 0.26781 0.89043 0.05924 0.0
C6 C 0.25655 0.86181 0.08695 0.0
C7 C 0.2475 0.87884 0.11699 0.0
C8 C 0.20831 0.06953 0.1952 0.0
C9 C 0.28881 0.11851 0.12068 0.0
C10 C 0.35701 0.22699 0.21645 0.0
Eu11 Eu 0.3218 0.13812 0.19327 0.0
C12 C 0.36928 0.24511 0.24898 0.0
C13 C 0.41015 0.24782 0.26056 0.0
C14 C 0.41764 0.25889 0.29253 0.0
C15 C 0.38429 0.26717 0.31363 0.0
C16 C 0.34451 0.26619 0.30179 0.0
C17 C 0.33722 0.25548 0.26981 0.0
C18 C 0.37868 0.09891 0.17177 0.0
C19 C 0.28005 0.04919 0.24612 0.0
O20 O 0.2819 0.97354 0.1636 0.0
O21 O 0.21027 0.95959 0.15307 0.0
O22 O 0.19672 0.03989 0.17097 0.0
O23 O 0.24593 0.07519 0.2052 0.0
O24 O 0.28185 0.07335 0.12273 0.0
O25 O 0.2995 0.14829 0.14581 0.0
O26 O 0.30941 0.19642 0.21408 0.0
O27 O 0.38531 0.21287 0.19943 0.0
O28 O 0.38544 0.12659 0.19672 0.0
O29 O 0.34327 0.09434 0.15858 0.0
O30 O 0.29743 0.09722 0.24122 0.0
O31 O 0.26899 0.01804 0.22176 0.0
H32 H 0.26291 0.98858 0.09361 0.0
H33 H 0.27716 0.95871 1.0414 0.0
H34 H 0.25485 0.82646 0.0854 0.0
H35 H 0.23909 0.85654 0.13814 0.0
H36 H 0.43562 0.23997 0.24522 0.0
H37 H 0.44855 0.25932 0.30098 0.0
H38 H 0.31872 0.27336 0.31736 0.0
H39 H 0.30558 0.25391 0.26159 0.0
C40 C 0.19865 0.31404 0.72836 0.0
Eu41 Eu 0.1682 0.32114 0.67514 0.0
C42 C 0.19588 0.29229 0.76005 0.0
C43 C 0.19834 0.31913 0.78831 0.0
C44 C 0.20354 0.30373 0.81744 0.0
C45 C 0.20669 0.26082 0.81957 0.0
C46 C 0.20296 0.23327 0.79133 0.0
C47 C 0.19787 0.2488 0.76215 0.0
C48 C 0.17774 0.40568 0.65148 0.0
C49 C 0.05008 0.28129 0.68042 0.0
C50 C 0.07189 0.2942 0.56361 0.0
Eu51 Eu 0.11975 0.30705 0.61286 0.0
C52 C 0.06392 0.27395 0.53024 0.0
C53 C 0.03232 0.22242 0.52498 0.0
C54 C 0.01976 0.20429 0.49427 0.0
C55 C 0.03805 0.23691 0.46747 0.0
C56 C 0.07059 0.28837 0.47272 0.0
C57 C 0.08306 0.30648 0.50347 0.0
C58 C 0.12667 0.22849 0.63035 0.0
C59 C 0.23539 0.34888 0.60658 0.0
O60 O 0.20323 0.29263 0.70158 0.0
O61 O 0.17673 0.33916 0.72595 0.0
O62 O 0.21157 0.40541 0.66536 0.0
O63 O 0.14024 0.36209 0.6519 0.0
O64 O 0.08557 0.28117 0.69355 0.0
O65 O 0.05736 0.29767 0.65088 0.0
O66 O 0.11375 0.33568 0.56835 0.0
O67 O 0.05489 0.26223 0.58746 0.0
O68 O 0.14007 0.24807 0.60188 0.0
O69 O 0.11683 0.25612 0.6483 0.0
O70 O 0.20186 0.35574 0.5964 0.0
O71 O 0.22677 0.32739 0.63472 0.0
H72 H 0.19801 0.35334 0.7877 0.0
H73 H 0.20692 0.32682 0.83807 0.0
H74 H 0.20426 0.19959 0.79159 0.0
H75 H 0.19668 0.22721 0.74103 0.0
H76 H 0.01599 0.19591 0.54482 0.0
H77 H -0.00584 0.16459 0.49188 0.0
H78 H 0.08651 0.31508 0.45304 0.0
H79 H 0.10698 0.34638 0.50638 0.0
C80 C 0.86445 0.15166 0.05742 0.0
Eu81 Eu 0.87045 0.0804 0.0802 0.0
C82 C 0.85909 0.16271 1.02556 0.0
C83 C 0.88446 0.15457 0.99821 0.0
C84 C 0.87488 0.15957 0.968 0.0
C85 C 0.83909 0.17203 0.96446 0.0
C86 C 0.81474 0.18151 0.99192 0.0
C87 C 0.82457 0.1767 1.02225 0.0
C88 C 0.94761 0.0733 0.09108 0.0
C89 C 0.86633 -0.00024 1.02387 0.0
C90 C 0.81617 0.88945 0.1231 0.0
Eu91 Eu 0.83621 0.97338 0.09911 0.0
C92 C 0.81717 0.87263 0.15459 0.0
C93 C 0.77189 0.83855 0.1729 0.0
C94 C 0.77145 0.82511 0.20382 0.0
C95 C 0.81638 0.84535 0.21692 0.0
C96 C 0.86183 0.87851 0.1983 0.0
C97 C 0.86226 0.89184 0.16737 0.0
C98 C 0.76374 0.99088 0.0895 0.0
C99 C 0.86313 0.05816 0.1555 0.0
O100 O 0.82566 0.11107 0.07113 0.0
O101 O 0.90707 0.15614 0.06087 0.0
O102 O 0.94742 0.11469 0.09319 0.0
O103 O 0.90915 0.03885 0.07946 0.0
O104 O 0.86929 0.04309 1.03098 0.0
O105 O 0.85676 0.96762 0.04656 0.0
O106 O 0.85913 0.92064 0.10647 0.0
O107 O 0.78245 0.90114 0.12203 0.0
O108 O 0.76442 0.95164 0.07894 0.0
O109 O 0.80076 0.01791 0.10402 0.0
O110 O 0.85375 0.01314 0.14668 0.0
O111 O 0.86698 0.09041 0.13456 0.0
H112 H 0.911 0.14332 1.00015 0.0
H113 H 0.8955 0.15345 0.9474 0.0
H114 H 0.78699 0.19112 0.99009 0.0
H115 H 0.80416 0.18249 0.04316 0.0
H116 H 0.73667 0.8229 0.16346 0.0
H117 H 0.73597 0.7989 0.21749 0.0
H118 H 0.89702 0.89503 0.20789 0.0
H119 H 0.89787 0.9177 0.15377 0.0
C120 C 0.19472 0.96225 0.66922 0.0
Eu121 Eu 0.10885 0.90622 0.64855 0.0
C122 C 0.2107 0.96081 0.69992 0.0
C123 C 0.18055 0.95667 0.72868 0.0
C124 C 0.18745 0.94139 0.75676 0.0
C125 C 0.2256 0.93103 0.75677 0.0
C126 C 0.25868 0.93974 0.72846 0.0
C127 C 0.25101 0.95409 0.70024 0.0
C128 C 0.04564 0.92592 0.62498 0.0
C129 C 0.01693 0.86752 0.70821 0.0
C130 C 0.9256 0.75031 0.6166 0.0
Eu131 Eu 0.0078 0.81573 0.63935 0.0
C132 C 0.90663 0.7536 0.58774 0.0
C133 C 0.86459 0.71219 0.57685 0.0
C134 C 0.84814 0.71629 0.54878 0.0
C135 C 0.87315 0.76211 0.53182 0.0
C136 C 0.91501 0.80332 0.54292 0.0
C137 C 0.93191 0.79882 0.57033 0.0
C138 C 0.06851 0.79289 0.66374 0.0
C139 C 0.09497 0.87607 0.57691 0.0
O140 O 0.18386 0.92285 0.65181 0.0
O141 O 0.162 0.97593 0.66969 0.0
O142 O 0.094 0.9533 0.6174 0.0
O143 O 0.03508 0.89442 0.64603 0.0
O144 O 0.06598 0.89006 0.69925 0.0
O145 O 0.98502 0.8387 0.68804 0.0
O146 O 0.92747 0.78137 0.63905 0.0
O147 O 0.96661 0.74909 0.61147 0.0
O148 O 0.02081 0.77209 0.67281 0.0
O149 O 0.08195 0.82508 0.64194 0.0
O150 O 0.04704 0.84524 0.588 0.0
O151 O 0.12875 0.90141 0.59625 0.0
H152 H 0.14987 0.96254 0.72906 0.0
H153 H 0.16107 0.93511 0.77792 0.0
H154 H 0.28949 0.93378 0.72776 0.0
H155 H 0.27489 0.95725 0.6783 0.0
H156 H 0.84491 0.67681 0.58982 0.0
H157 H 0.81592 0.68394 0.54039 0.0
H158 H 0.93546 0.83874 0.52991 0.0
H159 H 0.96507 0.83073 0.57777 0.0
H160 H 0.91988 -0.0047 0.13123 0.0
H161 H 0.94663 0.01125 0.1833 0.0
H162 H 0.07796 0.15082 0.14735 0.0
H163 H 0.04565 0.1375 0.09657 0.0
H164 H 0.98226 0.02815 0.22573 0.0
H165 H 0.12957 0.24975 0.19839 0.0
H166 H 0.13368 0.3157 0.16754 0.0
H167 H 0.9812 0.21717 0.15093 0.0
H168 H 0.97633 0.15067 0.18185 0.0
H169 H 0.18158 0.12573 0.16851 0.0
H170 H 0.1334 0.1599 0.19442 0.0
H171 H 0.12338 0.09535 0.285 0.0
H172 H 0.17613 0.06457 0.25846 0.0
H173 H 0.09824 0.20614 0.24554 0.0
H174 H 0.03269 0.10603 0.31864 0.0
H175 H 0.00518 0.04926 0.3649 0.0
H176 H 0.97112 0.92617 0.30219 0.0
H177 H -0.00061 0.98194 0.25555 0.0
C178 C 0.95438 0.02916 0.13451 0.0
C179 C 0.97811 0.06683 0.11104 0.0
C180 C 0.96983 0.03905 0.16473 0.0
C181 C 0.01111 0.08602 0.171 0.0
C182 C 0.04242 0.11725 0.14461 0.0
C183 C 0.02513 0.10863 0.11502 0.0
C184 C 0.02163 0.10282 0.20434 0.0
C185 C 0.009 0.06731 0.22841 0.0
C186 C 0.04791 0.15454 0.21282 0.0
C187 C 0.05159 0.19505 0.19365 0.0
C188 C 0.09634 0.24213 0.18892 0.0
C189 C 0.09913 0.27975 0.17107 0.0
C190 C 0.05759 0.27091 0.15756 0.0
C191 C 0.01326 0.22432 0.16172 0.0
C192 C 0.01035 0.18673 0.1796 0.0
C193 C 0.16926 0.11932 0.19396 0.0
C194 C 0.1799 0.09069 0.21132 0.0
C195 C 0.14205 0.13946 0.20927 0.0
C196 C 0.12234 0.12883 0.24205 0.0
C197 C 0.1371 0.10363 0.25983 0.0
C198 C 0.16634 0.08526 0.24458 0.0
C199 C 0.07675 0.13067 0.25434 0.0
C200 C 0.07331 0.16744 0.23994 0.0
C201 C 0.03324 0.08285 0.2558 0.0
C202 C 0.0179 0.04847 0.28341 0.0
C203 C 0.01975 0.06695 0.31462 0.0
C204 C 0.00393 0.03487 0.34097 0.0
C205 C 0.98612 0.98415 0.33648 0.0
C206 C 0.98454 0.96543 0.30563 0.0
C207 C 0.00037 -0.00269 0.27918 0.0
H208 H 0.97355 0.95939 0.35689 0.0
H209 H 0.05989 0.30001 0.14365 0.0
H210 H 0.94572 0.86874 0.64107 0.0
H211 H 0.88054 0.86946 0.61829 0.0
H212 H -0.00647 0.98655 0.55191 0.0
H213 H 0.05801 0.98036 0.57226 0.0
H214 H 0.85925 0.9274 0.63463 0.0
H215 H 0.98171 0.05248 0.51483 0.0
H216 H 0.96571 0.04376 0.45915 0.0
H217 H 0.82047 0.91351 0.48461 0.0
H218 H 0.83486 0.92148 0.5408 0.0
H219 H 0.12361 0.15609 0.59042 0.0
H220 H 0.04677 0.07837 0.58151 0.0
H221 H 0.96773 0.10447 0.66488 0.0
H222 H 0.04513 0.17921 0.67549 0.0
H223 H 0.96749 0.07504 0.56476 0.0
H224 H 0.85603 0.00386 0.68459 0.0
H225 H 0.86244 -0.00216 0.74151 0.0
H226 H -0.00454 0.99223 0.71483 0.0
H227 H 0.9899 -0.00138 0.65785 0.0
C228 C 0.95645 0.89316 0.62072 0.0
C229 C 0.00708 0.92563 0.60906 0.0
C230 C 0.91889 0.89351 0.60749 0.0
C231 C 0.93132 0.93099 0.58512 0.0
C232 C 0.98176 0.95877 0.57039 0.0
C233 C 0.01933 0.95627 0.58248 0.0
C234 C 0.89849 0.95278 0.58711 0.0
C235 C 0.88417 0.95978 0.61916 0.0
C236 C 0.91588 0.99454 0.567 0.0
C237 C 0.90906 0.98814 0.5326 0.0
C238 C 0.94597 0.02222 0.50896 0.0
C239 C 0.93728 0.0173 0.47711 0.0
C240 C 0.89196 0.97837 0.4684 0.0
C241 C 0.85555 0.94372 0.49141 0.0
C242 C 0.86405 0.94833 0.5233 0.0
C243 C 0.09045 0.14382 0.60771 0.0
C244 C 0.09008 0.17439 0.63305 0.0
C245 C 0.04621 0.10012 0.60223 0.0
C246 C 0.00099 0.08673 0.62179 0.0
C247 C 0.00185 0.1141 0.64925 0.0
C248 C 0.04645 0.15689 0.65534 0.0
C249 C 0.95359 0.04498 0.61228 0.0
C250 C 0.94636 0.0418 0.57989 0.0
C251 C 0.91842 0.00422 0.63305 0.0
C252 C 0.92299 0.00256 0.66717 0.0
C253 C 0.88679 0.00173 0.69097 0.0
C254 C 0.89028 -0.00176 0.72319 0.0
C255 C 0.92948 0.99493 0.73178 0.0
C256 C 0.96534 0.99518 0.70817 0.0
C257 C 0.96216 -0.00105 0.67594 0.0
H258 H 0.93197 0.99196 0.75672 0.0
H259 H 0.8852 0.97487 0.44375 0.0
H260 H 0.67916 0.93738 0.0598 0.0
H261 H 0.60491 0.94525 0.06777 0.0
H262 H 0.67599 0.06492 0.13336 0.0
H263 H 0.74976 0.05779 0.1253 0.0
H264 H 0.57679 0.98447 0.15687 0.0
H265 H 0.6711 0.09191 0.06246 0.0
H266 H 0.71016 0.10693 1.00635 0.0
H267 H 0.56827 0.00035 0.97594 0.0
H268 H 0.52843 0.98368 1.03202 0.0
H269 H 0.46384 0.1207 0.19356 0.0
H270 H 0.52014 0.09161 0.17388 0.0
H271 H 0.42583 0.00579 0.102 0.0
H272 H 0.36977 0.03677 0.12108 0.0
H273 H 0.52231 0.04913 0.07732 0.0
H274 H 0.4246 0.94734 0.16834 0.0
H275 H 0.38183 0.92675 0.22363 0.0
H276 H 0.52339 0.01297 0.25936 0.0
H277 H 0.56702 0.03479 0.20429 0.0
C278 C 0.67894 0.96562 0.07564 0.0
C279 C 0.72015 -0.00307 0.09195 0.0
C280 C 0.63664 0.97008 0.08015 0.0
C281 C 0.63498 0.00555 0.10125 0.0
C282 C 0.67646 0.0372 0.11708 0.0
C283 C 0.71868 0.03319 0.11233 0.0
C284 C 0.58979 0.00924 0.10822 0.0
C285 C 0.56485 -0.00133 0.13953 0.0
C286 C 0.57288 0.02555 0.08515 0.0
C287 C 0.5969 0.03601 0.05149 0.0
C288 C 0.64829 0.07124 0.04387 0.0
C289 C 0.67058 0.08016 1.01205 0.0
C290 C 0.6418 0.0546 0.98759 0.0
C291 C 0.59058 0.02007 0.99491 0.0
C292 C 0.56812 0.01082 1.02671 0.0
C293 C 0.45495 0.09563 0.17355 0.0
C294 C 0.41216 0.08063 0.15906 0.0
C295 C 0.48709 0.07877 0.1624 0.0
C296 C 0.47672 0.04552 0.13691 0.0
C297 C 0.43443 0.03111 0.12186 0.0
C298 C 0.40236 0.04862 0.13284 0.0
C299 C 0.5107 0.02653 0.12647 0.0
C300 C 0.53341 0.03395 0.09457 0.0
C301 C 0.52506 0.0063 0.14886 0.0
C302 C 0.49909 0.99287 0.18212 0.0
C303 C 0.44662 0.96215 0.18797 0.0
C304 C 0.42222 0.95024 0.21929 0.0
C305 C 0.44987 0.96857 0.24499 0.0
C306 C 0.50202 -0.00122 0.23942 0.0
C307 C 0.52662 0.01086 0.20816 0.0
H308 H 0.4309 0.95934 0.26921 0.0
H309 H 0.65918 0.06164 0.96298 0.0
H310 H 0.09327 0.40905 0.65548 0.0
H311 H 0.08615 0.48237 0.65606 0.0
H312 H 0.24724 0.57757 0.64141 0.0
H313 H 0.25435 0.50357 0.64305 0.0
H314 H 0.21494 0.62017 0.68122 0.0
H315 H 0.16767 0.55162 0.58031 0.0
H316 H 0.12306 0.48653 0.54173 0.0
H317 H 0.98253 0.46257 0.58861 0.0
H318 H 0.0262 0.527 0.62777 0.0
H319 H 0.15929 0.81122 0.63258 0.0
H320 H 0.19096 0.75415 0.62945 0.0
H321 H 0.06413 0.65226 0.69563 0.0
H322 H 0.03304 0.70909 0.69954 0.0
H323 H 0.09085 0.62247 0.62313 0.0
H324 H 0.1461 0.68827 0.72814 0.0
H325 H 0.19671 0.75571 0.76376 0.0
H326 H 0.33085 0.79074 0.70137 0.0
H327 H 0.28089 0.72386 0.66518 0.0
C328 C 0.12726 0.44555 0.65205 0.0
C329 C 0.17444 0.45057 0.64892 0.0
C330 C 0.12315 0.48764 0.65218 0.0
C331 C 0.1661 0.53589 0.64792 0.0
C332 C 0.21343 0.54093 0.64457 0.0
C333 C 0.21754 0.49867 0.64531 0.0
C334 C 0.16107 0.58065 0.6482 0.0
C335 C 0.1884 0.62084 0.66799 0.0
C336 C 0.12671 0.58231 0.63091 0.0
C337 C 0.10025 0.54401 0.6071 0.0
C338 C 0.12724 0.53232 0.58249 0.0
C339 C 0.10211 0.49553 0.56051 0.0
C340 C 0.04999 0.47039 0.56274 0.0
C341 C 0.0229 0.48209 0.5869 0.0
C342 C 0.04784 0.5188 0.60897 0.0
C343 C 0.13894 0.77729 0.6471 0.0
C344 C 0.09343 0.76449 0.66609 0.0
C345 C 0.15699 0.74472 0.64523 0.0
C346 C 0.12972 0.69897 0.66224 0.0
C347 C 0.08573 0.68742 0.68237 0.0
C348 C 0.06807 0.72004 0.68456 0.0
C349 C 0.14351 0.66049 0.65674 0.0
C350 C 0.11785 0.62172 0.63586 0.0
C351 C 0.18011 0.66073 0.67237 0.0
C352 C 0.20973 0.70161 0.69375 0.0
C353 C 0.1863 0.71085 0.72178 0.0
C354 C 0.2149 0.74882 0.74215 0.0
C355 C 0.26697 0.77756 0.73478 0.0
C356 C 0.29052 0.76849 0.70701 0.0
C357 C 0.2621 0.73057 0.68659 0.0
H358 H 0.28917 0.80672 0.75063 0.0
H359 H 0.03061 0.44188 0.54573 0.0
H360 H 0.30573 0.32489 0.61287 0.0
H361 H 0.36669 0.32481 0.57017 0.0
H362 H 0.32267 0.39101 0.50531 0.0
H363 H 0.26402 0.39322 0.54774 0.0
H364 H 0.34466 0.27105 0.52215 0.0
H365 H 0.40075 0.44567 0.44258 0.0
H366 H 0.43186 0.53518 0.45021 0.0
H367 H 0.4842 0.53111 0.53743 0.0
H368 H 0.45417 0.44174 0.53012 0.0
H369 H 0.31147 0.22506 0.36455 0.0
H370 H 0.31883 0.24501 0.42078 0.0
H371 H 0.47757 0.34829 0.39711 0.0
H372 H 0.4702 0.32882 0.34041 0.0
H373 H 0.43684 0.39252 0.4317 0.0
H374 H 0.4423 0.25137 0.4499 0.0
H375 H 0.42631 0.16571 0.45027 0.0
H376 H 0.27388 0.10964 0.49114 0.0
H377 H 0.28899 0.195 0.49117 0.0
C378 C 0.31036 0.34099 0.58977 0.0
C379 C 0.27947 0.35839 0.5836 0.0
C380 C 0.34513 0.34078 0.56534 0.0
C381 C 0.34957 0.35799 0.5344 0.0
C382 C 0.32111 0.37853 0.52899 0.0
C383 C 0.28689 0.37919 0.55334 0.0
C384 C 0.37687 0.34729 0.50659 0.0
C385 C 0.36551 0.29789 0.50257 0.0
C386 C 0.40648 0.38275 0.4815 0.0
C387 C 0.4251 0.4368 0.48579 0.0
C388 C 0.4193 0.46389 0.46325 0.0
C389 C 0.43664 0.51463 0.46756 0.0
C390 C 0.45996 0.53881 0.49429 0.0
C391 C 0.46604 0.51231 0.51676 0.0
C392 C 0.44879 0.46158 0.51257 0.0
C393 C 0.34803 0.25178 0.37132 0.0
C394 C 0.39012 0.27593 0.34803 0.0
C395 C 0.35237 0.2626 0.40356 0.0
C396 C 0.39889 0.29775 0.41329 0.0
C397 C 0.4414 0.32067 0.3902 0.0
C398 C 0.43713 0.30955 0.35784 0.0
C399 C 0.40065 0.31547 0.44664 0.0
C400 C 0.41742 0.36617 0.45165 0.0
C401 C 0.37773 0.28168 0.473 0.0
C402 C 0.36682 0.22965 0.47048 0.0
C403 C 0.40524 0.22073 0.45868 0.0
C404 C 0.39649 0.17229 0.45915 0.0
C405 C 0.34927 0.13235 0.47105 0.0
C406 C 0.31057 0.14069 0.48222 0.0
C407 C 0.31925 0.18912 0.48208 0.0
H408 H 0.34249 0.09485 0.47123 0.0
H409 H 0.47333 0.57809 0.49759 0.0
H410 H 0.98465 0.31304 0.68002 0.0
H411 H 0.90894 0.2881 0.71836 0.0
H412 H 0.9293 0.18003 0.76115 0.0
H413 H 0.00491 0.20542 0.72375 0.0
H414 H 0.82415 0.15018 0.76065 0.0
H415 H 0.98987 0.29197 0.79065 0.0
H416 H 0.06442 0.37564 0.7768 0.0
H417 H 0.96983 0.4328 0.76745 0.0
H418 H 0.89477 0.34922 0.78102 0.0
H419 H 0.83359 0.11207 0.91386 0.0
H420 H 0.83156 0.12642 0.85884 0.0
H421 H 0.81151 0.24977 0.88645 0.0
H422 H 0.81858 0.23856 0.94166 0.0
H423 H 0.88241 0.28074 0.84299 0.0
H424 H 0.7213 0.1398 0.84591 0.0
H425 H 0.65022 0.0546 0.86009 0.0
H426 H 0.73057 0.99279 0.80643 0.0
H427 H 0.80249 0.07745 0.79238 0.0
C428 C 0.97204 0.28311 0.69715 0.0
C429 C 0.00083 0.26171 0.69951 0.0
C430 C 0.92875 0.2687 0.71878 0.0
C431 C 0.91361 0.23216 0.74242 0.0
C432 C 0.94011 0.20792 0.74285 0.0
C433 C 0.98367 0.22294 0.7218 0.0
C434 C 0.87796 0.22619 0.77085 0.0
C435 C 0.83569 0.1787 0.77869 0.0
C436 C 0.89218 0.26422 0.79371 0.0
C437 C 0.93698 0.31463 0.78672 0.0
C438 C 0.98512 0.3225 0.78569 0.0
C439 C 0.02739 0.3698 0.77784 0.0
C440 C 0.02186 0.40951 0.77123 0.0
C441 C 0.97404 0.40201 0.77257 0.0
C442 C 0.93164 0.35472 0.78035 0.0
C443 C 0.82865 0.14226 0.90837 0.0
C444 C 0.82778 0.17508 0.93211 0.0
C445 C 0.82603 0.14961 0.87681 0.0
C446 C 0.82058 0.1888 0.86827 0.0
C447 C 0.81556 0.21916 0.89238 0.0
C448 C 0.81941 0.21256 0.924 0.0
C449 C 0.82986 0.20311 0.83401 0.0
C450 C 0.86769 0.25244 0.82497 0.0
C451 C 0.81088 0.16666 0.8101 0.0
C452 C 0.76732 0.11526 0.8179 0.0
C453 C 0.7239 0.10808 0.83715 0.0
C454 C 0.68344 0.05982 0.8452 0.0
C455 C 0.68582 0.01831 0.83409 0.0
C456 C 0.72865 0.02497 0.81486 0.0
C457 C 0.76926 0.07314 0.80676 0.0
H458 H 0.65451 0.98098 0.84042 0.0
H459 H 0.05462 0.44609 0.76508 0.0
H460 H 0.86263 0.70613 0.4788 0.0
H461 H 0.84899 0.72224 0.42624 0.0
H462 H 0.83374 0.84405 0.46491 0.0
H463 H 0.85043 0.83018 0.51703 0.0
H464 H 0.75848 0.73587 0.41506 0.0
H465 H 0.90452 0.90527 0.43363 0.0
H466 H 0.99045 0.96764 0.44387 0.0
H467 H 0.04843 0.90374 0.37107 0.0
H468 H 0.96258 0.83921 0.36187 0.0
H469 H 0.75302 0.83986 0.26986 0.0
H470 H 0.75526 0.82272 0.32503 0.0
H471 H 0.88121 0.80548 0.29378 0.0
H472 H 0.87904 0.8224 0.2387 0.0
H473 H 0.89941 0.86583 0.3419 0.0
H474 H 0.76205 0.70467 0.31792 0.0
H475 H 0.67979 0.64608 0.30043 0.0
H476 H 0.60872 0.69284 0.37654 0.0
H477 H 0.69071 0.75224 0.39423 0.0
C478 C 0.85608 0.73615 0.47604 0.0
C479 C 0.85787 0.76717 0.50168 0.0
C480 C 0.84874 0.74554 0.44608 0.0
C481 C 0.84235 0.78553 0.44163 0.0
C482 C 0.84091 0.81453 0.46769 0.0
C483 C 0.84962 0.80608 0.49743 0.0
C484 C 0.83576 0.79573 0.40977 0.0
C485 C 0.78904 0.76472 0.39911 0.0
C486 C 0.87611 0.83254 0.38888 0.0
C487 C 0.9269 0.86636 0.39791 0.0
C488 C 0.93538 0.90317 0.42086 0.0
C489 C 0.98416 0.93928 0.42621 0.0
C490 C 0.0249 0.93968 0.40813 0.0
C491 C 0.01688 0.90336 0.38513 0.0
C492 C 0.96814 0.86663 0.38016 0.0
C493 C 0.78062 0.83157 0.27475 0.0
C494 C 0.81595 0.83254 0.25005 0.0
C495 C 0.78181 0.82174 0.30623 0.0
C496 C 0.81822 0.81257 0.31344 0.0
C497 C 0.85293 0.81268 0.28872 0.0
C498 C 0.8518 0.82255 0.25731 0.0
C499 C 0.82237 0.80569 0.34686 0.0
C500 C 0.86864 0.83718 0.35782 0.0
C501 C 0.78186 0.76899 0.36776 0.0
C502 C 0.73256 0.73326 0.35719 0.0
C503 C 0.72893 0.70275 0.33077 0.0
C504 C 0.68235 0.66934 0.32085 0.0
C505 C 0.63907 0.66584 0.33731 0.0
C506 C 0.64228 0.69565 0.36378 0.0
C507 C 0.68879 0.72916 0.37378 0.0
H508 H 0.60304 0.63994 0.32959 0.0
H509 H 0.06268 0.96803 0.41199 0.0
H510 H 0.25216 0.86132 0.75895 0.0
H511 H 0.25794 0.82438 0.80616 0.0
H512 H 0.2087 0.9094 0.86677 0.0
H513 H 0.20543 0.94858 0.82 0.0
H514 H 0.31791 0.874 0.85301 0.0
H515 H 0.12863 0.83154 0.93102 0.0
H516 H 0.0395 0.79149 0.92471 0.0
H517 H 0.06197 0.72113 0.83934 0.0
H518 H 0.15095 0.75964 0.8455 0.0
H519 H 0.3357 0.94427 1.00822 0.0
H520 H 0.33086 0.92084 0.95278 0.0
H521 H 0.2122 0.77033 0.98122 0.0
H522 H 0.21414 0.79511 1.03706 0.0
H523 H 0.18073 0.79972 0.94334 0.0
H524 H 0.32861 0.79923 0.93273 0.0
H525 H 0.41468 0.8247 0.93975 0.0
H526 H 0.47199 0.96201 0.88829 0.0
H527 H 0.3863 0.93786 0.88137 0.0
C528 C 0.24334 0.87283 0.78229 0.0
C529 C 0.22889 0.90845 0.78554 0.0
C530 C 0.24601 0.85111 0.80919 0.0
C531 C 0.23317 0.86373 0.8398 0.0
C532 C 0.21793 0.89853 0.84324 0.0
C533 C 0.21608 0.92091 0.81642 0.0
C534 C 0.23955 0.84421 0.86847 0.0
C535 C 0.28798 0.8572 0.87278 0.0
C536 C 0.19978 0.81973 0.89346 0.0
C537 C 0.14674 0.7987 0.88872 0.0
C538 C 0.11462 0.80736 0.91096 0.0
C539 C 0.064 0.78472 0.90749 0.0
C540 C 0.04501 0.75346 0.88179 0.0
C541 C 0.0767 0.7452 0.85931 0.0
C542 C 0.12729 0.76754 0.86275 0.0
C543 C 0.30905 0.90593 1.00274 0.0
C544 C 0.27429 0.87199 1.02695 0.0
C545 C 0.30697 0.89217 0.97089 0.0
C546 C 0.27114 0.84363 0.96256 0.0
C547 C 0.23999 0.80808 0.98698 0.0
C548 C 0.24137 0.8222 1.01895 0.0
C549 C 0.2602 0.83393 0.92902 0.0
C550 C 0.21073 0.81526 0.92356 0.0
C551 C 0.29883 0.85181 0.90278 0.0
C552 C 0.3508 0.86658 0.90649 0.0
C553 C 0.35951 0.83496 0.923 0.0
C554 C 0.40828 0.84918 0.92697 0.0
C555 C 0.44877 0.89493 0.91446 0.0
C556 C 0.44059 0.92652 0.8979 0.0
C557 C 0.3919 0.91249 0.89387 0.0
H558 H 0.4865 0.9059 0.91761 0.0
H559 H 0.00583 0.73603 0.87913 0.0
H560 H 0.90199 0.05885 0.96843 0.0
H561 H 0.9249 0.03798 0.91426 0.0
H562 H 0.87793 0.89095 0.94799 0.0
H563 H 0.85595 0.91159 1.00167 0.0
H564 H 0.9628 0.92512 0.91213 0.0
H565 H 0.80982 0.91841 0.90063 0.0
H566 H 0.75526 0.95285 0.90259 0.0
H567 H 0.86172 0.06644 0.83349 0.0
H568 H 0.91737 0.03322 0.83152 0.0
H569 H 0.91933 0.83505 0.73564 0.0
H570 H 0.89124 0.85847 0.78731 0.0
H571 H 0.04471 0.95414 0.80415 0.0
H572 H 0.07231 0.92928 0.75389 0.0
H573 H 0.90429 0.94404 0.8143 0.0
H574 H 0.05449 0.95848 0.88424 0.0
H575 H 0.11389 0.92926 0.87843 0.0
H576 H 0.01173 0.79901 0.8302 0.0
H577 H 0.95097 0.82638 0.8367 0.0
C578 C 0.89611 0.02192 0.96427 0.0
C579 C 0.87702 0.98711 0.98984 0.0
C580 C 0.9092 0.00988 0.9331 0.0
C581 C 0.90319 0.96255 0.92652 0.0
C582 C 0.88344 0.92778 0.952 0.0
C583 C 0.87058 0.93974 0.98295 0.0
C584 C 0.91841 0.94898 0.8937 0.0
C585 C 0.94984 0.92936 0.89084 0.0
C586 C 0.9019 0.95417 0.86545 0.0
C587 C 0.86807 0.97367 0.86625 0.0
C588 C 0.82179 0.95095 0.88603 0.0
C589 C 0.79065 0.97025 0.88713 0.0
C590 C 0.80513 0.01196 0.86831 0.0
C591 C 0.85064 0.03426 0.84817 0.0
C592 C 0.88199 0.0152 0.84704 0.0
C593 C 0.9471 0.86057 0.75052 0.0
C594 C -0.00159 0.87954 0.74036 0.0
C595 C 0.93096 0.87444 0.78006 0.0
C596 C 0.96559 0.90772 0.80031 0.0
C597 C 0.01675 0.92764 0.78969 0.0
C598 C 0.03271 0.91332 0.76057 0.0
C599 C 0.9487 0.92043 0.83288 0.0
C600 C 0.9171 0.93981 0.83566 0.0
C601 C 0.96507 0.91509 0.86116 0.0
C602 C -0.00136 0.89516 0.86034 0.0
C603 C 0.04445 0.92334 0.87271 0.0
C604 C 0.0784 0.90717 0.86924 0.0
C605 C 0.06701 0.86295 0.85338 0.0
C606 C 0.02079 0.83366 0.8421 0.0
C607 C 0.98646 0.84934 0.84583 0.0
H608 H 0.09397 0.85132 0.84996 0.0
H609 H 0.78106 0.02694 0.86933 0.0
H610 H 0.26872 0.09645 0.30007 0.0
H611 H 0.23341 0.06225 0.35401 0.0
H612 H 0.21589 0.92131 0.32342 0.0
H613 H 0.24928 0.95486 0.26843 0.0
H614 H 0.13392 0.90796 0.36554 0.0
H615 H 0.31627 0.00066 0.37123 0.0
H616 H 0.3987 0.07715 0.35645 0.0
H617 H 0.34297 0.16676 0.40228 0.0
H618 H 0.26078 0.09081 0.41806 0.0
H619 H 0.08522 0.81439 0.52575 0.0
H620 H 0.11736 0.83948 0.46929 0.0
H621 H 0.1695 0.99309 0.49377 0.0
H622 H 0.14108 0.96832 0.55006 0.0
H623 H 0.23509 -0.0026 0.45303 0.0
H624 H 0.057 0.90212 0.45844 0.0
H625 H 0.97066 0.82988 0.46734 0.0
H626 H 0.00884 0.7478 0.39654 0.0
H627 H 0.09572 0.81919 0.38754 0.0
C628 C 0.25802 0.05831 0.30466 0.0
C629 C 0.26283 0.0288 0.27971 0.0
C630 C 0.23773 0.03869 0.33578 0.0
C631 C 0.22282 0.98934 0.34332 0.0
C632 C 0.22722 0.95953 0.31846 0.0
C633 C 0.24681 0.97895 0.28702 0.0
C634 C 0.20388 0.96982 0.37724 0.0
C635 C 0.15617 0.92686 0.38472 0.0
C636 C 0.23211 0.99516 0.40249 0.0
C637 C 0.28274 0.04021 0.39602 0.0
C638 C 0.32199 0.03672 0.37856 0.0
C639 C 0.36859 0.07996 0.36997 0.0
C640 C 0.37609 0.12685 0.37844 0.0
C641 C 0.33715 0.13051 0.39575 0.0
C642 C 0.29078 0.08736 0.40492 0.0
C643 C 0.10348 0.85341 0.51889 0.0
C644 C 0.11056 0.88937 0.54227 0.0
C645 C 0.12173 0.86789 0.48653 0.0
C646 C 0.1455 0.91842 0.47661 0.0
C647 C 0.15178 0.95399 0.50026 0.0
C648 C 0.13514 0.93976 0.53256 0.0
C649 C 0.16427 0.93484 0.44198 0.0
C650 C 0.2123 0.97764 0.43421 0.0
C651 C 0.1356 0.90943 0.41663 0.0
C652 C 0.08332 0.86603 0.42256 0.0
C653 C 0.04733 0.86844 0.44509 0.0
C654 C -0.00184 0.82763 0.45011 0.0
C655 C 0.98439 0.7842 0.43263 0.0
C656 C 0.01964 0.78149 0.41009 0.0
C657 C 0.06885 0.82213 0.40501 0.0
H658 H 0.94642 0.75259 0.43646 0.0
H659 H 0.41204 0.16035 0.37159 0.0
H660 H 0.25927 0.21509 0.82844 0.0
H661 H 0.27349 0.19206 0.87825 0.0
H662 H 0.18921 0.25017 0.93206 0.0
H663 H 0.17407 0.2727 0.88235 0.0
H664 H 0.27336 0.27815 0.95876 0.0
H665 H 0.14062 0.12127 0.92238 0.0
H666 H 0.10679 0.05914 0.88022 0.0
H667 H 0.22791 0.0339 0.87771 0.0
H668 H 0.26295 0.09653 0.91951 0.0
H669 H 0.25748 0.18334 0.11171 0.0
H670 H 0.24215 0.2059 0.0621 0.0
H671 H 0.29249 0.11548 1.00925 0.0
H672 H 0.30396 0.0899 0.0593 0.0
H673 H 0.22601 0.10443 0.98091 0.0
H674 H 0.36256 0.25815 1.01248 0.0
H675 H 0.40909 0.32802 0.04787 0.0
H676 H 0.2954 0.3648 0.05442 0.0
H677 H 0.2479 0.29478 1.01935 0.0
C678 C 0.24294 0.22248 0.85072 0.0
C679 C 0.21507 0.24583 0.85067 0.0
C680 C 0.2514 0.20933 0.87949 0.0
C681 C 0.23214 0.21867 0.90947 0.0
C682 C 0.20479 0.2424 0.90957 0.0
C683 C 0.19623 0.25551 0.88081 0.0
C684 C 0.24025 0.20368 0.94053 0.0
C685 C 0.26232 0.23996 0.96375 0.0
C686 C 0.2278 0.15431 0.94708 0.0
C687 C 0.20466 0.11394 0.92383 0.0
C688 C 0.16 0.10242 0.91286 0.0
C689 C 0.14071 0.06725 0.88897 0.0
C690 C 0.16548 0.04297 0.87611 0.0
C691 C 0.20897 0.05299 0.88758 0.0
C692 C 0.22852 0.08827 0.9114 0.0
C693 C 0.26568 0.16853 0.0895 0.0
C694 C 0.2826 0.13513 0.08978 0.0
C695 C 0.25722 0.18185 0.06076 0.0
C696 C 0.26725 0.16389 1.03092 0.0
C697 C 0.28422 0.13042 1.03137 0.0
C698 C 0.29121 0.11592 0.06022 0.0
C699 C 0.25936 0.17903 0.9996 0.0
C700 C 0.23718 0.14272 0.97622 0.0
C701 C 0.27302 0.22879 0.9925 0.0
C702 C 0.30144 0.27092 1.01356 0.0
C703 C 0.34734 0.28096 1.02163 0.0
C704 C 0.37391 0.3206 1.04161 0.0
C705 C 0.35515 0.35074 0.05346 0.0
C706 C 0.30985 0.34138 0.04527 0.0
C707 C 0.28311 0.30175 1.02532 0.0
H708 H 0.37576 0.38141 0.06892 0.0
H709 H 0.15104 0.01649 0.85718 0.0
H710 H 0.86947 0.00488 0.20174 0.0
H711 H 0.90045 0.03284 0.25281 0.0
H712 H 0.90712 0.17141 0.24037 0.0
H713 H 0.87949 0.14473 0.18748 0.0
H714 H 0.9887 0.19231 0.26198 0.0
H715 H 0.8134 0.06219 0.29651 0.0
H716 H 0.7409 0.97568 0.29786 0.0
H717 H 0.82702 0.9223 0.33122 0.0
H718 H 0.90005 0.00814 0.32947 0.0
H719 H 0.02424 0.28367 0.41969 0.0
H720 H -0.00319 0.25226 0.3678 0.0
H721 H 0.9865 0.11421 0.38796 0.0
H722 H 0.01458 0.14558 0.43986 0.0
H723 H 0.91047 0.08994 0.36174 0.0
H724 H 0.07989 0.20383 0.32958 0.0
H725 H 0.16269 0.28168 0.32418 0.0
H726 H 0.10249 0.35641 0.28252 0.0
H727 H 0.01909 0.27912 0.28806 0.0
C728 C 0.87763 0.04152 0.20958 0.0
C729 C 0.87336 0.07301 0.18952 0.0
C730 C 0.89485 0.05734 0.23942 0.0
C731 C 0.90626 0.10449 0.25128 0.0
C732 C 0.89907 0.13495 0.23214 0.0
C733 C 0.8827 0.11942 0.20181 0.0
C734 C 0.9272 0.12266 0.28282 0.0
C735 C 0.97075 0.17022 0.2839 0.0
C736 C 0.90655 0.09302 0.31143 0.0
C737 C 0.86224 0.04155 0.31269 0.0
C738 C 0.81687 0.03192 0.30397 0.0
C739 C 0.77569 0.98297 0.30476 0.0
C740 C 0.77935 0.94344 0.3145 0.0
C741 C 0.82417 0.9528 0.32354 0.0
C742 C 0.86545 0.0016 0.32268 0.0
C743 C 0.01716 0.24693 0.4131 0.0
C744 C 0.02221 0.21768 0.43465 0.0
C745 C 0.00124 0.2288 0.38305 0.0
C746 C 0.98982 0.1807 0.37312 0.0
C747 C -0.00522 0.15136 0.39454 0.0
C748 C 0.01079 0.16949 0.4246 0.0
C749 C 0.97086 0.16054 0.34121 0.0
C750 C 0.9281 0.11244 0.33997 0.0
C751 C -0.00653 0.18877 0.31214 0.0
C752 C 0.04302 0.23588 0.30974 0.0
C753 C 0.08412 0.23705 0.3197 0.0
C754 C 0.13122 0.28102 0.31648 0.0
C755 C 0.1378 0.32403 0.30315 0.0
C756 C 0.0973 0.32311 0.29294 0.0
C757 C 0.05009 0.27922 0.29611 0.0
H758 H 0.17432 0.35803 0.30063 0.0
H759 H 0.74741 0.9056 0.31513 0.0
loop_
_geom_bond_atom_site_label_1
_geom_bond_atom_site_label_2
_geom_bond_distance
_geom_bond_site_symmetry_2
_ccdc_geom_bond_type
C0 Eu1 2.835 . S
C0 C2 1.500 . S
C0 O20 1.257 . S
C0 O21 1.260 . S
Eu1 C0 2.835 . S
Eu1 O20 2.473 . S
Eu1 O21 2.480 . S
Eu1 O22 2.430 . S
Eu1 O23 2.670 . S
Eu1 O24 2.394 . S
Eu1 O29 2.355 . S
Eu1 O31 2.374 . S
C2 C0 1.500 . S
C2 C3 1.377 1_545 S
C2 C7 1.377 . S
C3 C2 1.377 1_565 S
C3 C4 1.395 1_554 S
C3 H32 0.931 . S
C4 C3 1.395 1_556 S
C4 C5 1.383 . S
C4 H33 0.931 . S
C5 C4 1.383 . S
C5 C6 1.394 1_565 S
C6 C5 1.394 1_545 S
C6 C7 1.378 1_556 S
C6 H34 0.931 . S
C7 C2 1.377 . S
C7 C6 1.378 1_554 S
C7 H35 0.931 . S
C8 O22 1.259 . S
C8 O23 1.270 . S
C9 O24 1.251 . S
C9 O25 1.251 . S
C10 Eu11 2.835 . S
C10 C12 1.500 . S
C10 O26 1.257 . S
C10 O27 1.260 . S
Eu11 C10 2.835 . S
Eu11 O23 2.355 . S
Eu11 O25 2.374 . S
Eu11 O26 2.473 . S
Eu11 O27 2.480 . S
Eu11 O28 2.430 . S
Eu11 O29 2.670 . S
Eu11 O30 2.394 . S
C12 C10 1.500 . S
C12 C13 1.377 . S
C12 C17 1.377 . S
C13 C12 1.377 . S
C13 C14 1.395 . S
C13 H36 0.931 . S
C14 C13 1.395 . S
C14 C15 1.383 . S
C14 H37 0.931 . S
C15 C14 1.383 . S
C15 C16 1.394 . S
C16 C15 1.394 . S
C16 C17 1.378 . S
C16 H38 0.931 . S
C17 C12 1.377 . S
C17 C16 1.378 . S
C17 H39 0.931 . S
C18 O28 1.259 . S
C18 O29 1.270 . S
C19 O30 1.251 . S
C19 O31 1.251 . S
O20 C0 1.257 . S
O20 Eu1 2.473 . S
O21 C0 1.260 . S
O21 Eu1 2.480 . S
O22 Eu1 2.430 . S
O22 C8 1.259 . S
O23 Eu1 2.670 . S
O23 C8 1.270 . S
O23 Eu11 2.355 . S
O24 Eu1 2.394 . S
O24 C9 1.251 . S
O25 C9 1.251 . S
O25 Eu11 2.374 . S
O26 C10 1.257 . S
O26 Eu11 2.473 . S
O27 C10 1.260 . S
O27 Eu11 2.480 . S
O28 Eu11 2.430 . S
O28 C18 1.259 . S
O29 Eu1 2.355 . S
O29 Eu11 2.670 . S
O29 C18 1.270 . S
O30 Eu11 2.394 . S
O30 C19 1.251 . S
O31 Eu1 2.374 . S
O31 C19 1.251 . S
H32 C3 0.931 . S
H33 C4 0.931 . S
H34 C6 0.931 . S
H35 C7 0.931 . S
H36 C13 0.931 . S
H37 C14 0.931 . S
H38 C16 0.931 . S
H39 C17 0.931 . S
C40 Eu41 2.835 . S
C40 C42 1.500 . S
C40 O60 1.257 . S
C40 O61 1.260 . S
Eu41 C40 2.835 . S
Eu41 O60 2.473 . S
Eu41 O61 2.480 . S
Eu41 O62 2.430 . S
Eu41 O63 2.670 . S
Eu41 O64 2.394 . S
Eu41 O69 2.355 . S
Eu41 O71 2.374 . S
C42 C40 1.500 . S
C42 C43 1.377 . S
C42 C47 1.377 . S
C43 C42 1.377 . S
C43 C44 1.395 . S
C43 H72 0.931 . S
C44 C43 1.395 . S
C44 C45 1.383 . S
C44 H73 0.931 . S
C45 C44 1.383 . S
C45 C46 1.394 . S
C46 C45 1.394 . S
C46 C47 1.378 . S
C46 H74 0.931 . S
C47 C42 1.377 . S
C47 C46 1.378 . S
C47 H75 0.931 . S
C48 O62 1.259 . S
C48 O63 1.270 . S
C49 O64 1.251 . S
C49 O65 1.251 . S
C50 Eu51 2.835 . S
C50 C52 1.500 . S
C50 O66 1.257 . S
C50 O67 1.260 . S
Eu51 C50 2.835 . S
Eu51 O63 2.355 . S
Eu51 O65 2.374 . S
Eu51 O66 2.473 . S
Eu51 O67 2.480 . S
Eu51 O68 2.430 . S
Eu51 O69 2.670 . S
Eu51 O70 2.394 . S
C52 C50 1.500 . S
C52 C53 1.377 . S
C52 C57 1.377 . S
C53 C52 1.377 . S
C53 C54 1.395 . S
C53 H76 0.931 . S
C54 C53 1.395 . S
C54 C55 1.383 . S
C54 H77 0.931 1_455 S
C55 C54 1.383 . S
C55 C56 1.394 . S
C56 C55 1.394 . S
C56 C57 1.378 . S
C56 H78 0.931 . S
C57 C52 1.377 . S
C57 C56 1.378 . S
C57 H79 0.931 . S
C58 O68 1.259 . S
C58 O69 1.270 . S
C59 O70 1.251 . S
C59 O71 1.251 . S
O60 C40 1.257 . S
O60 Eu41 2.473 . S
O61 C40 1.260 . S
O61 Eu41 2.480 . S
O62 Eu41 2.430 . S
O62 C48 1.259 . S
O63 Eu41 2.670 . S
O63 C48 1.270 . S
O63 Eu51 2.355 . S
O64 Eu41 2.394 . S
O64 C49 1.251 . S
O65 C49 1.251 . S
O65 Eu51 2.374 . S
O66 C50 1.257 . S
O66 Eu51 2.473 . S
O67 C50 1.260 . S
O67 Eu51 2.480 . S
O68 Eu51 2.430 . S
O68 C58 1.259 . S
O69 Eu41 2.355 . S
O69 Eu51 2.670 . S
O69 C58 1.270 . S
O70 Eu51 2.394 . S
O70 C59 1.251 . S
O71 Eu41 2.374 . S
O71 C59 1.251 . S
H72 C43 0.931 . S
H73 C44 0.931 . S
H74 C46 0.931 . S
H75 C47 0.931 . S
H76 C53 0.931 . S
H77 C54 0.931 1_655 S
H78 C56 0.931 . S
H79 C57 0.931 . S
C80 Eu81 2.835 1_556 S
C80 C82 1.500 . S
C80 O100 1.257 1_556 S
C80 O101 1.263 . S
Eu81 C80 2.835 1_554 S
Eu81 O100 2.473 . S
Eu81 O101 2.475 1_554 S
Eu81 O102 2.430 . S
Eu81 O103 2.657 1_545 S
Eu81 O104 2.394 1_545 S
Eu81 O109 2.362 . S
Eu81 O111 2.374 . S
C82 C80 1.500 . S
C82 C83 1.377 . S
C82 C87 1.377 . S
C83 C82 1.377 . S
C83 C84 1.395 . S
C83 H112 0.931 . S
C84 C83 1.395 . S
C84 C85 1.383 . S
C84 H113 0.931 . S
C85 C84 1.383 . S
C85 C86 1.394 . S
C86 C85 1.394 . S
C86 C87 1.378 . S
C86 H114 0.931 . S
C87 C82 1.377 . S
C87 C86 1.378 . S
C87 H115 0.931 . S
C88 O102 1.259 . S
C88 O103 1.272 1_545 S
C89 O104 1.251 . S
C89 O105 1.251 . S
C90 Eu91 2.835 . S
C90 C92 1.500 . S
C90 O106 1.257 . S
C90 O107 1.260 . S
Eu91 C90 2.835 . S
Eu91 O103 2.360 . S
Eu91 O105 2.374 . S
Eu91 O106 2.473 . S
Eu91 O107 2.480 . S
Eu91 O108 2.430 . S
Eu91 O109 2.651 1_565 S
Eu91 O110 2.394 1_565 S
C92 C90 1.500 . S
C92 C93 1.377 . S
C92 C97 1.377 . S
C93 C92 1.377 . S
C93 C94 1.395 . S
C93 H116 0.931 . S
C94 C93 1.395 . S
C94 C95 1.383 . S
C94 H117 0.931 . S
C95 C94 1.383 . S
C95 C96 1.394 . S
C96 C95 1.394 . S
C96 C97 1.378 . S
C96 H118 0.931 . S
C97 C92 1.377 . S
C97 C96 1.378 . S
C97 H119 0.931 . S
C98 O108 1.259 . S
C98 O109 1.272 1_565 S
C99 O110 1.251 . S
C99 O111 1.251 . S
O100 C80 1.257 1_554 S
O100 Eu81 2.473 . S
O101 C80 1.263 . S
O101 Eu81 2.475 1_556 S
O102 Eu81 2.430 . S
O102 C88 1.259 . S
O103 Eu81 2.657 1_565 S
O103 C88 1.272 1_565 S
O103 Eu91 2.360 . S
O104 Eu81 2.394 1_565 S
O104 C89 1.251 . S
O105 C89 1.251 . S
O105 Eu91 2.374 . S
O106 C90 1.257 . S
O106 Eu91 2.473 . S
O107 C90 1.260 . S
O107 Eu91 2.480 . S
O108 Eu91 2.430 . S
O108 C98 1.259 . S
O109 Eu81 2.362 . S
O109 Eu91 2.651 1_545 S
O109 C98 1.272 1_545 S
O110 Eu91 2.394 1_545 S
O110 C99 1.251 . S
O111 Eu81 2.374 . S
O111 C99 1.251 . S
H112 C83 0.931 . S
H113 C84 0.931 . S
H114 C86 0.931 . S
H115 C87 0.931 . S
H116 C93 0.931 . S
H117 C94 0.931 . S
H118 C96 0.931 . S
H119 C97 0.931 . S
C120 Eu121 2.835 . S
C120 C122 1.500 . S
C120 O140 1.257 . S
C120 O141 1.260 . S
Eu121 C120 2.835 . S
Eu121 O140 2.473 . S
Eu121 O141 2.480 . S
Eu121 O142 2.430 . S
Eu121 O143 2.670 . S
Eu121 O144 2.394 1_455 S
Eu121 O149 2.355 . S
Eu121 O151 2.374 . S
C122 C120 1.500 . S
C122 C123 1.377 . S
C122 C127 1.377 . S
C123 C122 1.377 . S
C123 C124 1.395 . S
C123 H152 0.931 . S
C124 C123 1.395 . S
C124 C125 1.383 . S
C124 H153 0.931 . S
C125 C124 1.383 . S
C125 C126 1.394 . S
C126 C125 1.394 . S
C126 C127 1.378 . S
C126 H154 0.931 . S
C127 C122 1.377 . S
C127 C126 1.378 . S
C127 H155 0.931 . S
C128 O142 1.259 . S
C128 O143 1.270 . S
C129 O144 1.251 . S
C129 O145 1.251 . S
C130 Eu131 2.835 . S
C130 C132 1.500 . S
C130 O146 1.257 . S
C130 O147 1.260 . S
Eu131 C130 2.835 . S
Eu131 O143 2.355 1_655 S
Eu131 O145 2.374 . S
Eu131 O146 2.473 . S
Eu131 O147 2.480 . S
Eu131 O148 2.430 . S
Eu131 O149 2.670 1_655 S
Eu131 O150 2.394 1_655 S
C132 C130 1.500 . S
C132 C133 1.377 . S
C132 C137 1.377 . S
C133 C132 1.377 . S
C133 C134 1.395 . S
C133 H156 0.931 . S
C134 C133 1.395 . S
C134 C135 1.383 . S
C134 H157 0.931 . S
C135 C134 1.383 . S
C135 C136 1.394 . S
C136 C135 1.394 . S
C136 C137 1.378 . S
C136 H158 0.931 . S
C137 C132 1.377 . S
C137 C136 1.378 . S
C137 H159 0.931 . S
C138 O148 1.259 . S
C138 O149 1.270 1_655 S
C139 O150 1.251 . S
C139 O151 1.251 . S
O140 C120 1.257 . S
O140 Eu121 2.473 . S
O141 C120 1.260 . S
O141 Eu121 2.480 . S
O142 Eu121 2.430 . S
O142 C128 1.259 . S
O143 Eu121 2.670 . S
O143 C128 1.270 . S
O143 Eu131 2.355 1_455 S
O144 Eu121 2.394 1_655 S
O144 C129 1.251 . S
O145 C129 1.251 . S
O145 Eu131 2.374 . S
O146 C130 1.257 . S
O146 Eu131 2.473 . S
O147 C130 1.260 . S
O147 Eu131 2.480 . S
O148 Eu131 2.430 . S
O148 C138 1.259 . S
O149 Eu121 2.355 . S
O149 Eu131 2.670 1_455 S
O149 C138 1.270 1_455 S
O150 Eu131 2.394 1_455 S
O150 C139 1.251 . S
O151 Eu121 2.374 . S
O151 C139 1.251 . S
H152 C123 0.931 . S
H153 C124 0.931 . S
H154 C126 0.931 . S
H155 C127 0.931 . S
H156 C133 0.931 . S
H157 C134 0.931 . S
H158 C136 0.931 . S
H159 C137 0.931 . S
H160 C178 0.951 . S
H161 C180 0.951 . S
H162 C182 0.950 1_455 S
H163 C183 0.950 . S
H164 C185 0.950 1_565 S
H165 C188 0.950 . S
H166 C189 0.950 . S
H167 C191 0.950 . S
H168 C192 0.950 . S
H169 C193 0.951 . S
H170 C195 0.951 . S
H171 C197 0.950 . S
H172 C198 0.950 . S
H173 C200 0.950 . S
H174 C203 0.950 1_545 S
H175 C204 0.950 . S
H176 C206 0.950 . S
H177 C207 0.950 . S
C178 H160 0.951 . S
C178 C179 1.366 1_545 S
C178 C180 1.388 . S
C179 C178 1.366 1_565 S
C179 C183 1.385 . S
C180 H161 0.951 . S
C180 C178 1.388 . S
C180 C181 1.366 . S
C181 C180 1.366 . S
C181 C182 1.414 . S
C181 C184 1.499 1_655 S
C182 H162 0.950 1_655 S
C182 C181 1.414 . S
C182 C183 1.374 1_545 S
C183 H163 0.950 . S
C183 C179 1.385 . S
C183 C182 1.374 1_565 S
C184 C181 1.499 1_455 S
C184 C185 1.373 . S
C184 C186 1.389 . S
C185 H164 0.950 1_545 S
C185 C184 1.373 . S
C185 C201 1.377 . S
C186 C184 1.389 . S
C186 C187 1.524 . S
C186 C200 1.377 . S
C187 C186 1.524 . S
C187 C188 1.397 . S
C187 C192 1.363 . S
C188 H165 0.950 . S
C188 C187 1.397 . S
C188 C189 1.334 . S
C189 H166 0.950 . S
C189 C188 1.334 . S
C189 C190 1.287 . S
C190 C189 1.287 . S
C190 C191 1.524 . S
C190 H209 0.913 . S
C191 H167 0.950 . S
C191 C190 1.524 . S
C191 C192 1.415 . S
C192 H168 0.950 . S
C192 C187 1.363 . S
C192 C191 1.415 . S
C193 H169 0.951 . S
C193 C194 1.366 . S
C193 C195 1.388 . S
C194 C193 1.366 . S
C194 C198 1.385 . S
C195 H170 0.951 . S
C195 C193 1.388 . S
C195 C196 1.366 . S
C196 C195 1.366 . S
C196 C197 1.414 . S
C196 C199 1.499 . S
C197 H171 0.950 . S
C197 C196 1.414 . S
C197 C198 1.374 . S
C198 H172 0.950 . S
C198 C194 1.385 . S
C198 C197 1.374 . S
C199 C196 1.499 . S
C199 C200 1.373 . S
C199 C201 1.389 . S
C200 H173 0.950 . S
C200 C186 1.377 . S
C200 C199 1.373 . S
C201 C185 1.377 . S
C201 C199 1.389 . S
C201 C202 1.515 1_545 S
C202 C201 1.515 1_565 S
C202 C203 1.401 . S
C202 C207 1.368 . S
C203 H174 0.950 1_565 S
C203 C202 1.401 . S
C203 C204 1.334 . S
C204 H175 0.950 . S
C204 C203 1.334 . S
C204 C205 1.287 . S
C205 C204 1.287 . S
C205 C206 1.524 . S
C205 H208 0.999 . S
C206 H176 0.950 . S
C206 C205 1.524 . S
C206 C207 1.415 . S
C207 H177 0.950 . S
C207 C202 1.368 . S
C207 C206 1.415 . S
H208 C205 0.999 . S
H209 C190 0.913 . S
H210 C228 0.951 . S
H211 C230 0.951 . S
H212 C232 0.950 . S
H213 C233 0.950 . S
H214 C235 0.950 . S
H215 C238 0.950 . S
H216 C239 0.950 . S
H217 C241 0.950 . S
H218 C242 0.950 . S
H219 C243 0.951 . S
H220 C245 0.951 . S
H221 C247 0.950 . S
H222 C248 0.950 . S
H223 C250 0.950 . S
H224 C253 0.950 . S
H225 C254 0.950 . S
H226 C256 0.950 . S
H227 C257 0.950 . S
C228 H210 0.951 . S
C228 C229 1.366 . S
C228 C230 1.388 . S
C229 C228 1.366 . S
C229 C233 1.385 1_655 S
C230 H211 0.951 . S
C230 C228 1.388 . S
C230 C231 1.366 1_655 S
C231 C230 1.366 1_455 S
C231 C232 1.414 . S
C231 C234 1.499 1_565 S
C232 H212 0.950 . S
C232 C231 1.414 . S
C232 C233 1.374 . S
C233 H213 0.950 . S
C233 C229 1.385 1_455 S
C233 C232 1.374 . S
C234 C231 1.499 1_545 S
C234 C235 1.373 . S
C234 C236 1.389 . S
C235 H214 0.950 . S
C235 C234 1.373 . S
C235 C251 1.377 . S
C236 C234 1.389 . S
C236 C237 1.524 . S
C236 C250 1.377 . S
C237 C236 1.524 . S
C237 C238 1.397 1_545 S
C237 C242 1.363 1_455 S
C238 H215 0.950 . S
C238 C237 1.397 1_565 S
C238 C239 1.334 . S
C239 H216 0.950 . S
C239 C238 1.334 . S
C239 C240 1.287 1_455 S
C240 C239 1.287 1_655 S
C240 C241 1.524 . S
C240 H259 0.913 . S
C241 H217 0.950 . S
C241 C240 1.524 . S
C241 C242 1.415 1_565 S
C242 H218 0.950 . S
C242 C237 1.363 1_655 S
C242 C241 1.415 1_545 S
C243 H219 0.951 . S
C243 C244 1.366 . S
C243 C245 1.388 . S
C244 C243 1.366 . S
C244 C248 1.385 . S
C245 H220 0.951 . S
C245 C243 1.388 . S
C245 C246 1.366 . S
C246 C245 1.366 . S
C246 C247 1.414 . S
C246 C249 1.499 . S
C247 H221 0.950 . S
C247 C246 1.414 . S
C247 C248 1.374 . S
C248 H222 0.950 . S
C248 C244 1.385 . S
C248 C247 1.374 . S
C249 C246 1.499 . S
C249 C250 1.373 . S
C249 C251 1.389 . S
C250 H223 0.950 . S
C250 C236 1.377 . S
C250 C249 1.373 . S
C251 C235 1.377 . S
C251 C249 1.389 . S
C251 C252 1.524 . S
C252 C251 1.524 . S
C252 C253 1.397 . S
C252 C257 1.363 . S
C253 H224 0.950 . S
C253 C252 1.397 . S
C253 C254 1.334 . S
C254 H225 0.950 . S
C254 C253 1.334 . S
C254 C255 1.287 . S
C255 C254 1.287 . S
C255 C256 1.524 . S
C255 H258 0.999 . S
C256 H226 0.950 . S
C256 C255 1.524 . S
C256 C257 1.415 . S
C257 H227 0.950 . S
C257 C252 1.363 . S
C257 C256 1.415 . S
H258 C255 0.999 . S
H259 C240 0.913 . S
H260 C278 0.951 . S
H261 C280 0.953 1_565 S
H262 C282 0.950 . S
H263 C283 0.950 . S
H264 C285 0.950 . S
H265 C288 0.950 . S
H266 C289 0.950 . S
H267 C291 0.950 . S
H268 C292 0.950 . S
H269 C293 0.951 . S
H270 C295 0.951 . S
H271 C297 0.950 . S
H272 C298 0.950 . S
H273 C300 0.950 . S
H274 C303 0.950 . S
H275 C304 0.950 1_565 S
H276 C306 0.950 . S
H277 C307 0.950 . S
C278 H260 0.951 . S
C278 C279 1.366 . S
C278 C280 1.376 1_565 S
C279 C278 1.366 . S
C279 C283 1.385 1_565 S
C280 H261 0.953 1_545 S
C280 C278 1.376 1_545 S
C280 C281 1.375 . S
C281 C280 1.375 . S
C281 C282 1.414 . S
C281 C284 1.499 . S
C282 H262 0.950 . S
C282 C281 1.414 . S
C282 C283 1.374 . S
C283 H263 0.950 . S
C283 C279 1.385 1_545 S
C283 C282 1.374 . S
C284 C281 1.499 . S
C284 C285 1.373 . S
C284 C286 1.389 . S
C285 H264 0.950 . S
C285 C284 1.373 . S
C285 C301 1.377 . S
C286 C284 1.389 . S
C286 C287 1.524 . S
C286 C300 1.377 . S
C287 C286 1.524 . S
C287 C288 1.397 . S
C287 C292 1.363 . S
C288 H265 0.950 . S
C288 C287 1.397 . S
C288 C289 1.334 . S
C289 H266 0.950 . S
C289 C288 1.334 . S
C289 C290 1.287 1_554 S
C290 C289 1.287 1_556 S
C290 C291 1.524 . S
C290 H309 0.913 . S
C291 H267 0.950 . S
C291 C290 1.524 . S
C291 C292 1.415 1_556 S
C292 H268 0.950 . S
C292 C287 1.363 . S
C292 C291 1.415 1_554 S
C293 H269 0.951 . S
C293 C294 1.366 . S
C293 C295 1.388 . S
C294 C293 1.366 . S
C294 C298 1.385 . S
C295 H270 0.951 . S
C295 C293 1.388 . S
C295 C296 1.366 . S
C296 C295 1.366 . S
C296 C297 1.414 . S
C296 C299 1.499 . S
C297 H271 0.950 . S
C297 C296 1.414 . S
C297 C298 1.374 . S
C298 H272 0.950 . S
C298 C294 1.385 . S
C298 C297 1.374 . S
C299 C296 1.499 . S
C299 C300 1.373 . S
C299 C301 1.389 . S
C300 H273 0.950 . S
C300 C286 1.377 . S
C300 C299 1.373 . S
C301 C285 1.377 . S
C301 C299 1.389 . S
C301 C302 1.524 . S
C302 C301 1.524 . S
C302 C303 1.397 . S
C302 C307 1.363 . S
C303 H274 0.950 . S
C303 C302 1.397 . S
C303 C304 1.334 . S
C304 H275 0.950 1_545 S
C304 C303 1.334 . S
C304 C305 1.287 . S
C305 C304 1.287 . S
C305 C306 1.524 . S
C305 H308 0.999 . S
C306 H276 0.950 . S
C306 C305 1.524 . S
C306 C307 1.415 . S
C307 H277 0.950 . S
C307 C302 1.363 . S
C307 C306 1.415 . S
H308 C305 0.999 . S
H309 C290 0.913 . S
H310 C328 0.951 . S
H311 C330 0.951 . S
H312 C332 0.950 . S
H313 C333 0.950 . S
H314 C335 0.950 . S
H315 C338 0.950 . S
H316 C339 0.950 1_455 S
H317 C341 0.950 . S
H318 C342 0.950 . S
H319 C343 0.951 . S
H320 C345 0.951 . S
H321 C347 0.950 . S
H322 C348 0.950 . S
H323 C350 0.950 1_655 S
H324 C353 0.950 . S
H325 C354 0.950 . S
H326 C356 0.950 . S
H327 C357 0.950 . S
C328 H310 0.951 . S
C328 C329 1.366 . S
C328 C330 1.388 . S
C329 C328 1.366 . S
C329 C333 1.385 . S
C330 H311 0.951 . S
C330 C328 1.388 . S
C330 C331 1.366 . S
C331 C330 1.366 . S
C331 C332 1.414 . S
C331 C334 1.499 . S
C332 H312 0.950 . S
C332 C331 1.414 . S
C332 C333 1.374 . S
C333 H313 0.950 . S
C333 C329 1.385 . S
C333 C332 1.374 . S
C334 C331 1.499 . S
C334 C335 1.373 . S
C334 C336 1.389 . S
C335 H314 0.950 . S
C335 C334 1.373 . S
C335 C351 1.377 . S
C336 C334 1.389 . S
C336 C337 1.524 . S
C336 C350 1.377 . S
C337 C336 1.524 . S
C337 C338 1.397 . S
C337 C342 1.363 1_455 S
C338 H315 0.950 . S
C338 C337 1.397 . S
C338 C339 1.334 1_455 S
C339 H316 0.950 1_655 S
C339 C338 1.334 1_655 S
C339 C340 1.287 . S
C340 C339 1.287 . S
C340 C341 1.524 . S
C340 H359 0.913 . S
C341 H317 0.950 . S
C341 C340 1.524 . S
C341 C342 1.415 . S
C342 H318 0.950 . S
C342 C337 1.363 1_655 S
C342 C341 1.415 . S
C343 H319 0.951 . S
C343 C344 1.383 . S
C343 C345 1.388 . S
C344 C343 1.383 . S
C344 C348 1.386 1_455 S
C345 H320 0.951 . S
C345 C343 1.388 . S
C345 C346 1.366 . S
C346 C345 1.366 . S
C346 C347 1.414 1_455 S
C346 C349 1.499 . S
C347 H321 0.950 . S
C347 C346 1.414 1_655 S
C347 C348 1.374 . S
C348 H322 0.950 . S
C348 C344 1.386 1_655 S
C348 C347 1.374 . S
C349 C346 1.499 . S
C349 C350 1.373 . S
C349 C351 1.389 . S
C350 H323 0.950 1_455 S
C350 C336 1.377 . S
C350 C349 1.373 . S
C351 C335 1.377 . S
C351 C349 1.389 . S
C351 C352 1.524 . S
C352 C351 1.524 . S
C352 C353 1.397 . S
C352 C357 1.363 . S
C353 H324 0.950 . S
C353 C352 1.397 . S
C353 C354 1.334 . S
C354 H325 0.950 . S
C354 C353 1.334 . S
C354 C355 1.287 . S
C355 C354 1.287 . S
C355 C356 1.524 . S
C355 H358 0.999 . S
C356 H326 0.950 . S
C356 C355 1.524 . S
C356 C357 1.415 . S
C357 H327 0.950 . S
C357 C352 1.363 . S
C357 C356 1.415 . S
H358 C355 0.999 . S
H359 C340 0.913 . S
H360 C378 0.951 . S
H361 C380 0.951 . S
H362 C382 0.950 . S
H363 C383 0.950 . S
H364 C385 0.950 . S
H365 C388 0.950 . S
H366 C389 0.950 . S
H367 C391 0.950 . S
H368 C392 0.950 . S
H369 C393 0.951 . S
H370 C395 0.951 . S
H371 C397 0.950 . S
H372 C398 0.950 . S
H373 C400 0.950 . S
H374 C403 0.950 . S
H375 C404 0.950 . S
H376 C406 0.950 . S
H377 C407 0.950 . S
C378 H360 0.951 . S
C378 C379 1.366 . S
C378 C380 1.388 . S
C379 C378 1.366 . S
C379 C383 1.385 . S
C380 H361 0.951 . S
C380 C378 1.388 . S
C380 C381 1.366 . S
C381 C380 1.366 . S
C381 C382 1.414 . S
C381 C384 1.499 . S
C382 H362 0.950 . S
C382 C381 1.414 . S
C382 C383 1.374 . S
C383 H363 0.950 . S
C383 C379 1.385 . S
C383 C382 1.374 . S
C384 C381 1.499 . S
C384 C385 1.373 . S
C384 C386 1.389 . S
C385 H364 0.950 . S
C385 C384 1.373 . S
C385 C401 1.377 . S
C386 C384 1.389 . S
C386 C387 1.524 . S
C386 C400 1.377 . S
C387 C386 1.524 . S
C387 C388 1.397 . S
C387 C392 1.363 . S
C388 H365 0.950 . S
C388 C387 1.397 . S
C388 C389 1.334 . S
C389 H366 0.950 . S
C389 C388 1.334 . S
C389 C390 1.287 . S
C390 C389 1.287 . S
C390 C391 1.524 . S
C390 H409 0.913 . S
C391 H367 0.950 . S
C391 C390 1.524 . S
C391 C392 1.415 . S
C392 H368 0.950 . S
C392 C387 1.363 . S
C392 C391 1.415 . S
C393 H369 0.951 . S
C393 C394 1.366 . S
C393 C395 1.388 . S
C394 C393 1.366 . S
C394 C398 1.385 . S
C395 H370 0.951 . S
C395 C393 1.388 . S
C395 C396 1.366 . S
C396 C395 1.366 . S
C396 C397 1.414 . S
C396 C399 1.499 . S
C397 H371 0.950 . S
C397 C396 1.414 . S
C397 C398 1.374 . S
C398 H372 0.950 . S
C398 C394 1.385 . S
C398 C397 1.374 . S
C399 C396 1.499 . S
C399 C400 1.373 . S
C399 C401 1.389 . S
C400 H373 0.950 . S
C400 C386 1.377 . S
C400 C399 1.373 . S
C401 C385 1.377 . S
C401 C399 1.389 . S
C401 C402 1.524 . S
C402 C401 1.524 . S
C402 C403 1.397 . S
C402 C407 1.363 . S
C403 H374 0.950 . S
C403 C402 1.397 . S
C403 C404 1.334 . S
C404 H375 0.950 . S
C404 C403 1.334 . S
C404 C405 1.287 . S
C405 C404 1.287 . S
C405 C406 1.524 . S
C405 H408 0.999 . S
C406 H376 0.950 . S
C406 C405 1.524 . S
C406 C407 1.415 . S
C407 H377 0.950 . S
C407 C402 1.363 . S
C407 C406 1.415 . S
H408 C405 0.999 . S
H409 C390 0.913 . S
H410 C428 0.951 . S
H411 C430 0.951 . S
H412 C432 0.950 . S
H413 C433 0.950 . S
H414 C435 0.950 . S
H415 C438 0.950 . S
H416 C439 0.950 . S
H417 C441 0.950 . S
H418 C442 0.950 . S
H419 C443 0.951 . S
H420 C445 0.951 . S
H421 C447 0.950 . S
H422 C448 0.950 . S
H423 C450 0.950 . S
H424 C453 0.950 . S
H425 C454 0.950 . S
H426 C456 0.950 . S
H427 C457 0.950 . S
C428 H410 0.951 . S
C428 C429 1.366 . S
C428 C430 1.388 . S
C429 C428 1.366 . S
C429 C433 1.385 . S
C430 H411 0.951 . S
C430 C428 1.388 . S
C430 C431 1.366 . S
C431 C430 1.366 . S
C431 C432 1.414 . S
C431 C434 1.499 . S
C432 H412 0.950 . S
C432 C431 1.414 . S
C432 C433 1.374 . S
C433 H413 0.950 . S
C433 C429 1.385 . S
C433 C432 1.374 . S
C434 C431 1.499 . S
C434 C435 1.373 1_455 S
C434 C436 1.389 . S
C435 H414 0.950 . S
C435 C434 1.373 1_655 S
C435 C451 1.377 . S
C436 C434 1.389 . S
C436 C437 1.524 . S
C436 C450 1.377 . S
C437 C436 1.524 . S
C437 C438 1.397 . S
C437 C442 1.363 . S
C438 H415 0.950 . S
C438 C437 1.397 . S
C438 C439 1.334 . S
C439 H416 0.950 . S
C439 C438 1.334 . S
C439 C440 1.287 . S
C440 C439 1.287 . S
C440 C441 1.524 . S
C440 H459 0.913 . S
C441 H417 0.950 . S
C441 C440 1.524 . S
C441 C442 1.415 . S
C442 H418 0.950 . S
C442 C437 1.363 . S
C442 C441 1.415 . S
C443 H419 0.951 . S
C443 C444 1.366 . S
C443 C445 1.388 . S
C444 C443 1.366 . S
C444 C448 1.385 . S
C445 H420 0.951 . S
C445 C443 1.388 . S
C445 C446 1.366 . S
C446 C445 1.366 . S
C446 C447 1.414 . S
C446 C449 1.499 . S
C447 H421 0.950 . S
C447 C446 1.414 . S
C447 C448 1.374 . S
C448 H422 0.950 . S
C448 C444 1.385 . S
C448 C447 1.374 . S
C449 C446 1.499 . S
C449 C450 1.373 1_655 S
C449 C451 1.389 . S
C450 H423 0.950 . S
C450 C436 1.377 . S
C450 C449 1.373 1_455 S
C451 C435 1.377 . S
C451 C449 1.389 . S
C451 C452 1.524 . S
C452 C451 1.524 . S
C452 C453 1.397 . S
C452 C457 1.363 . S
C453 H424 0.950 . S
C453 C452 1.397 . S
C453 C454 1.334 . S
C454 H425 0.950 . S
C454 C453 1.334 . S
C454 C455 1.287 . S
C455 C454 1.287 . S
C455 C456 1.524 . S
C455 H458 0.999 . S
C456 H426 0.950 . S
C456 C455 1.524 . S
C456 C457 1.415 . S
C457 H427 0.950 . S
C457 C452 1.363 . S
C457 C456 1.415 . S
H458 C455 0.999 . S
H459 C440 0.913 . S
H460 C478 0.951 . S
H461 C480 0.951 . S
H462 C482 0.950 . S
H463 C483 0.950 . S
H464 C485 0.950 . S
H465 C488 0.950 . S
H466 C489 0.950 1_455 S
H467 C491 0.950 . S
H468 C492 0.950 . S
H469 C493 0.951 . S
H470 C495 0.951 . S
H471 C497 0.950 . S
H472 C498 0.950 . S
H473 C500 0.950 . S
H474 C503 0.950 . S
H475 C504 0.950 . S
H476 C506 0.950 . S
H477 C507 0.950 . S
C478 H460 0.951 . S
C478 C479 1.366 . S
C478 C480 1.388 . S
C479 C478 1.366 . S
C479 C483 1.385 . S
C480 H461 0.951 . S
C480 C478 1.388 . S
C480 C481 1.366 . S
C481 C480 1.366 . S
C481 C482 1.414 . S
C481 C484 1.499 . S
C482 H462 0.950 . S
C482 C481 1.414 . S
C482 C483 1.374 . S
C483 H463 0.950 . S
C483 C479 1.385 . S
C483 C482 1.374 . S
C484 C481 1.499 . S
C484 C485 1.373 . S
C484 C486 1.389 . S
C485 H464 0.950 . S
C485 C484 1.373 . S
C485 C501 1.377 . S
C486 C484 1.389 . S
C486 C487 1.524 . S
C486 C500 1.377 . S
C487 C486 1.524 . S
C487 C488 1.397 . S
C487 C492 1.363 . S
C488 H465 0.950 . S
C488 C487 1.397 . S
C488 C489 1.334 . S
C489 H466 0.950 1_655 S
C489 C488 1.334 . S
C489 C490 1.287 1_655 S
C490 C489 1.287 1_455 S
C490 C491 1.524 1_455 S
C490 H509 0.913 . S
C491 H467 0.950 . S
C491 C490 1.524 1_655 S
C491 C492 1.415 . S
C492 H468 0.950 . S
C492 C487 1.363 . S
C492 C491 1.415 . S
C493 H469 0.951 . S
C493 C494 1.366 . S
C493 C495 1.388 . S
C494 C493 1.366 . S
C494 C498 1.385 . S
C495 H470 0.951 . S
C495 C493 1.388 . S
C495 C496 1.366 . S
C496 C495 1.366 . S
C496 C497 1.414 . S
C496 C499 1.499 . S
C497 H471 0.950 . S
C497 C496 1.414 . S
C497 C498 1.374 . S
C498 H472 0.950 . S
C498 C494 1.385 . S
C498 C497 1.374 . S
C499 C496 1.499 . S
C499 C500 1.373 . S
C499 C501 1.389 . S
C500 H473 0.950 . S
C500 C486 1.377 . S
C500 C499 1.373 . S
C501 C485 1.377 . S
C501 C499 1.389 . S
C501 C502 1.524 . S
C502 C501 1.524 . S
C502 C503 1.397 . S
C502 C507 1.363 . S
C503 H474 0.950 . S
C503 C502 1.397 . S
C503 C504 1.334 . S
C504 H475 0.950 . S
C504 C503 1.334 . S
C504 C505 1.287 . S
C505 C504 1.287 . S
C505 C506 1.524 . S
C505 H508 0.999 . S
C506 H476 0.950 . S
C506 C505 1.524 . S
C506 C507 1.415 . S
C507 H477 0.950 . S
C507 C502 1.363 . S
C507 C506 1.415 . S
H508 C505 0.999 . S
H509 C490 0.913 . S
H510 C528 0.951 . S
H511 C530 0.951 . S
H512 C532 0.950 . S
H513 C533 0.950 . S
H514 C535 0.950 . S
H515 C538 0.950 . S
H516 C539 0.950 . S
H517 C541 0.950 . S
H518 C542 0.950 . S
H519 C543 0.951 . S
H520 C545 0.951 1_545 S
H521 C547 0.950 . S
H522 C548 0.950 . S
H523 C550 0.950 . S
H524 C553 0.950 . S
H525 C554 0.950 . S
H526 C556 0.950 . S
H527 C557 0.950 . S
C528 H510 0.951 . S
C528 C529 1.366 . S
C528 C530 1.388 . S
C529 C528 1.366 . S
C529 C533 1.385 . S
C530 H511 0.951 . S
C530 C528 1.388 . S
C530 C531 1.366 . S
C531 C530 1.366 . S
C531 C532 1.414 . S
C531 C534 1.499 . S
C532 H512 0.950 . S
C532 C531 1.414 . S
C532 C533 1.374 . S
C533 H513 0.950 . S
C533 C529 1.385 . S
C533 C532 1.374 . S
C534 C531 1.499 . S
C534 C535 1.373 . S
C534 C536 1.389 . S
C535 H514 0.950 . S
C535 C534 1.373 . S
C535 C551 1.377 . S
C536 C534 1.389 . S
C536 C537 1.524 . S
C536 C550 1.377 . S
C537 C536 1.524 . S
C537 C538 1.397 . S
C537 C542 1.363 . S
C538 H515 0.950 . S
C538 C537 1.397 . S
C538 C539 1.334 . S
C539 H516 0.950 . S
C539 C538 1.334 . S
C539 C540 1.287 . S
C540 C539 1.287 . S
C540 C541 1.524 . S
C540 H559 0.913 1_455 S
C541 H517 0.950 . S
C541 C540 1.524 . S
C541 C542 1.415 . S
C542 H518 0.950 . S
C542 C537 1.363 . S
C542 C541 1.415 . S
C543 H519 0.951 . S
C543 C544 1.366 1_545 S
C543 C545 1.388 1_545 S
C544 C543 1.366 1_565 S
C544 C548 1.385 . S
C545 H520 0.951 1_565 S
C545 C543 1.388 1_565 S
C545 C546 1.366 . S
C546 C545 1.366 . S
C546 C547 1.414 . S
C546 C549 1.499 . S
C547 H521 0.950 . S
C547 C546 1.414 . S
C547 C548 1.374 . S
C548 H522 0.950 . S
C548 C544 1.385 . S
C548 C547 1.374 . S
C549 C546 1.499 . S
C549 C550 1.373 . S
C549 C551 1.389 . S
C550 H523 0.950 . S
C550 C536 1.377 . S
C550 C549 1.373 . S
C551 C535 1.377 . S
C551 C549 1.389 . S
C551 C552 1.524 . S
C552 C551 1.524 . S
C552 C553 1.397 . S
C552 C557 1.363 1_565 S
C553 H524 0.950 . S
C553 C552 1.397 . S
C553 C554 1.334 . S
C554 H525 0.950 . S
C554 C553 1.334 . S
C554 C555 1.287 1_565 S
C555 C554 1.287 1_545 S
C555 C556 1.524 . S
C555 H558 0.999 . S
C556 H526 0.950 . S
C556 C555 1.524 . S
C556 C557 1.415 . S
C557 H527 0.950 . S
C557 C552 1.363 1_545 S
C557 C556 1.415 . S
H558 C555 0.999 . S
H559 C540 0.913 1_655 S
H560 C578 0.951 . S
H561 C580 0.951 . S
H562 C582 0.950 . S
H563 C583 0.950 . S
H564 C585 0.950 . S
H565 C588 0.950 . S
H566 C589 0.950 . S
H567 C591 0.950 . S
H568 C592 0.950 . S
H569 C593 0.951 . S
H570 C595 0.951 . S
H571 C597 0.950 . S
H572 C598 0.950 . S
H573 C600 0.950 . S
H574 C603 0.950 . S
H575 C604 0.950 . S
H576 C606 0.950 . S
H577 C607 0.950 . S
C578 H560 0.951 . S
C578 C579 1.366 . S
C578 C580 1.388 . S
C579 C578 1.366 . S
C579 C583 1.385 . S
C580 H561 0.951 . S
C580 C578 1.388 . S
C580 C581 1.366 . S
C581 C580 1.366 . S
C581 C582 1.414 . S
C581 C584 1.499 . S
C582 H562 0.950 . S
C582 C581 1.414 . S
C582 C583 1.374 . S
C583 H563 0.950 . S
C583 C579 1.385 . S
C583 C582 1.374 . S
C584 C581 1.499 . S
C584 C585 1.373 . S
C584 C586 1.389 . S
C585 H564 0.950 . S
C585 C584 1.373 . S
C585 C601 1.377 . S
C586 C584 1.389 . S
C586 C587 1.524 . S
C586 C600 1.377 . S
C587 C586 1.524 . S
C587 C588 1.397 . S
C587 C592 1.363 . S
C588 H565 0.950 . S
C588 C587 1.397 . S
C588 C589 1.334 . S
C589 H566 0.950 . S
C589 C588 1.334 . S
C589 C590 1.287 . S
C590 C589 1.287 . S
C590 C591 1.524 . S
C590 H609 0.913 . S
C591 H567 0.950 . S
C591 C590 1.524 . S
C591 C592 1.415 . S
C592 H568 0.950 . S
C592 C587 1.363 . S
C592 C591 1.415 . S
C593 H569 0.951 . S
C593 C594 1.366 . S
C593 C595 1.388 . S
C594 C593 1.366 . S
C594 C598 1.385 . S
C595 H570 0.951 . S
C595 C593 1.388 . S
C595 C596 1.366 . S
C596 C595 1.366 . S
C596 C597 1.414 . S
C596 C599 1.499 . S
C597 H571 0.950 . S
C597 C596 1.414 . S
C597 C598 1.374 . S
C598 H572 0.950 . S
C598 C594 1.385 . S
C598 C597 1.374 . S
C599 C596 1.499 . S
C599 C600 1.373 . S
C599 C601 1.389 . S
C600 H573 0.950 . S
C600 C586 1.377 . S
C600 C599 1.373 . S
C601 C585 1.377 . S
C601 C599 1.389 . S
C601 C602 1.524 . S
C602 C601 1.524 . S
C602 C603 1.397 . S
C602 C607 1.363 . S
C603 H574 0.950 . S
C603 C602 1.397 . S
C603 C604 1.334 1_655 S
C604 H575 0.950 . S
C604 C603 1.334 1_455 S
C604 C605 1.287 1_455 S
C605 C604 1.287 1_655 S
C605 C606 1.524 . S
C605 H608 0.999 1_655 S
C606 H576 0.950 . S
C606 C605 1.524 . S
C606 C607 1.415 . S
C607 H577 0.950 . S
C607 C602 1.363 . S
C607 C606 1.415 . S
H608 C605 0.999 1_455 S
H609 C590 0.913 . S
H610 C628 0.951 . S
H611 C630 0.951 . S
H612 C632 0.950 . S
H613 C633 0.950 . S
H614 C635 0.950 . S
H615 C638 0.950 . S
H616 C639 0.950 . S
H617 C641 0.950 . S
H618 C642 0.950 . S
H619 C643 0.951 . S
H620 C645 0.951 . S
H621 C647 0.950 . S
H622 C648 0.950 . S
H623 C650 0.950 . S
H624 C653 0.950 . S
H625 C654 0.950 1_655 S
H626 C656 0.950 . S
H627 C657 0.950 . S
C628 H610 0.951 . S
C628 C629 1.366 . S
C628 C630 1.388 . S
C629 C628 1.366 . S
C629 C633 1.385 1_545 S
C630 H611 0.951 . S
C630 C628 1.388 . S
C630 C631 1.366 1_545 S
C631 C630 1.366 1_565 S
C631 C632 1.414 . S
C631 C634 1.499 . S
C632 H612 0.950 . S
C632 C631 1.414 . S
C632 C633 1.374 . S
C633 H613 0.950 . S
C633 C629 1.385 1_565 S
C633 C632 1.374 . S
C634 C631 1.499 . S
C634 C635 1.373 . S
C634 C636 1.389 . S
C635 H614 0.950 . S
C635 C634 1.373 . S
C635 C651 1.377 . S
C636 C634 1.389 . S
C636 C637 1.524 1_565 S
C636 C650 1.377 . S
C637 C636 1.524 1_545 S
C637 C638 1.397 . S
C637 C642 1.363 . S
C638 H615 0.950 . S
C638 C637 1.397 . S
C638 C639 1.334 . S
C639 H616 0.950 . S
C639 C638 1.334 . S
C639 C640 1.287 . S
C640 C639 1.287 . S
C640 C641 1.524 . S
C640 H659 0.913 . S
C641 H617 0.950 . S
C641 C640 1.524 . S
C641 C642 1.415 . S
C642 H618 0.950 . S
C642 C637 1.363 . S
C642 C641 1.415 . S
C643 H619 0.951 . S
C643 C644 1.366 . S
C643 C645 1.388 . S
C644 C643 1.366 . S
C644 C648 1.385 . S
C645 H620 0.951 . S
C645 C643 1.388 . S
C645 C646 1.366 . S
C646 C645 1.366 . S
C646 C647 1.414 . S
C646 C649 1.499 . S
C647 H621 0.950 . S
C647 C646 1.414 . S
C647 C648 1.374 . S
C648 H622 0.950 . S
C648 C644 1.385 . S
C648 C647 1.374 . S
C649 C646 1.499 . S
C649 C650 1.373 . S
C649 C651 1.389 . S
C650 H623 0.950 . S
C650 C636 1.377 . S
C650 C649 1.373 . S
C651 C635 1.377 . S
C651 C649 1.389 . S
C651 C652 1.524 . S
C652 C651 1.524 . S
C652 C653 1.397 . S
C652 C657 1.363 . S
C653 H624 0.950 . S
C653 C652 1.397 . S
C653 C654 1.334 . S
C654 H625 0.950 1_455 S
C654 C653 1.334 . S
C654 C655 1.287 1_455 S
C655 C654 1.287 1_655 S
C655 C656 1.524 1_655 S
C655 H658 0.999 . S
C656 H626 0.950 . S
C656 C655 1.524 1_455 S
C656 C657 1.415 . S
C657 H627 0.950 . S
C657 C652 1.363 . S
C657 C656 1.415 . S
H658 C655 0.999 . S
H659 C640 0.913 . S
H660 C678 0.951 . S
H661 C680 0.951 . S
H662 C682 0.950 . S
H663 C683 0.950 . S
H664 C685 0.950 . S
H665 C688 0.950 . S
H666 C689 0.950 . S
H667 C691 0.950 . S
H668 C692 0.950 . S
H669 C693 0.951 . S
H670 C695 0.951 . S
H671 C697 0.950 . S
H672 C698 0.950 . S
H673 C700 0.950 . S
H674 C703 0.950 . S
H675 C704 0.950 . S
H676 C706 0.950 1_554 S
H677 C707 0.950 . S
C678 H660 0.951 . S
C678 C679 1.366 . S
C678 C680 1.388 . S
C679 C678 1.366 . S
C679 C683 1.385 . S
C680 H661 0.951 . S
C680 C678 1.388 . S
C680 C681 1.366 . S
C681 C680 1.366 . S
C681 C682 1.414 . S
C681 C684 1.499 . S
C682 H662 0.950 . S
C682 C681 1.414 . S
C682 C683 1.374 . S
C683 H663 0.950 . S
C683 C679 1.385 . S
C683 C682 1.374 . S
C684 C681 1.499 . S
C684 C685 1.373 . S
C684 C686 1.389 . S
C685 H664 0.950 . S
C685 C684 1.373 . S
C685 C701 1.377 . S
C686 C684 1.389 . S
C686 C687 1.524 . S
C686 C700 1.377 . S
C687 C686 1.524 . S
C687 C688 1.397 . S
C687 C692 1.363 . S
C688 H665 0.950 . S
C688 C687 1.397 . S
C688 C689 1.334 . S
C689 H666 0.950 . S
C689 C688 1.334 . S
C689 C690 1.287 . S
C690 C689 1.287 . S
C690 C691 1.524 . S
C690 H709 0.913 . S
C691 H667 0.950 . S
C691 C690 1.524 . S
C691 C692 1.415 . S
C692 H668 0.950 . S
C692 C687 1.363 . S
C692 C691 1.415 . S
C693 H669 0.951 . S
C693 C694 1.366 . S
C693 C695 1.388 1_554 S
C694 C693 1.366 . S
C694 C698 1.385 1_554 S
C695 H670 0.951 . S
C695 C693 1.388 1_556 S
C695 C696 1.366 . S
C696 C695 1.366 . S
C696 C697 1.414 . S
C696 C699 1.499 . S
C697 H671 0.950 . S
C697 C696 1.414 . S
C697 C698 1.374 . S
C698 H672 0.950 . S
C698 C694 1.385 1_556 S
C698 C697 1.374 . S
C699 C696 1.499 . S
C699 C700 1.373 . S
C699 C701 1.389 . S
C700 H673 0.950 . S
C700 C686 1.377 . S
C700 C699 1.373 . S
C701 C685 1.377 . S
C701 C699 1.389 . S
C701 C702 1.524 . S
C702 C701 1.524 . S
C702 C703 1.397 . S
C702 C707 1.363 . S
C703 H674 0.950 . S
C703 C702 1.397 . S
C703 C704 1.334 1_556 S
C704 H675 0.950 . S
C704 C703 1.334 1_554 S
C704 C705 1.287 . S
C705 C704 1.287 . S
C705 C706 1.524 1_554 S
C705 H708 0.999 . S
C706 H676 0.950 1_556 S
C706 C705 1.524 1_556 S
C706 C707 1.415 . S
C707 H677 0.950 . S
C707 C702 1.363 . S
C707 C706 1.415 . S
H708 C705 0.999 . S
H709 C690 0.913 . S
H710 C728 0.951 . S
H711 C730 0.951 . S
H712 C732 0.950 . S
H713 C733 0.950 . S
H714 C735 0.950 . S
H715 C738 0.950 . S
H716 C739 0.950 . S
H717 C741 0.950 . S
H718 C742 0.950 . S
H719 C743 0.951 . S
H720 C745 0.951 . S
H721 C747 0.950 . S
H722 C748 0.950 . S
H723 C750 0.950 . S
H724 C753 0.950 . S
H725 C754 0.950 . S
H726 C756 0.950 . S
H727 C757 0.950 . S
C728 H710 0.951 . S
C728 C729 1.366 . S
C728 C730 1.388 . S
C729 C728 1.366 . S
C729 C733 1.385 . S
C730 H711 0.951 . S
C730 C728 1.388 . S
C730 C731 1.366 . S
C731 C730 1.366 . S
C731 C732 1.414 . S
C731 C734 1.499 . S
C732 H712 0.950 . S
C732 C731 1.414 . S
C732 C733 1.374 . S
C733 H713 0.950 . S
C733 C729 1.385 . S
C733 C732 1.374 . S
C734 C731 1.499 . S
C734 C735 1.373 . S
C734 C736 1.389 . S
C735 H714 0.950 . S
C735 C734 1.373 . S
C735 C751 1.377 . S
C736 C734 1.389 . S
C736 C737 1.524 . S
C736 C750 1.377 . S
C737 C736 1.524 . S
C737 C738 1.397 . S
C737 C742 1.363 . S
C738 H715 0.950 . S
C738 C737 1.397 . S
C738 C739 1.334 . S
C739 H716 0.950 . S
C739 C738 1.334 . S
C739 C740 1.287 . S
C740 C739 1.287 . S
C740 C741 1.524 1_545 S
C740 H759 0.913 1_545 S
C741 H717 0.950 . S
C741 C740 1.524 1_565 S
C741 C742 1.415 1_565 S
C742 H718 0.950 . S
C742 C737 1.363 . S
C742 C741 1.415 1_545 S
C743 H719 0.951 . S
C743 C744 1.366 . S
C743 C745 1.388 . S
C744 C743 1.366 . S
C744 C748 1.385 . S
C745 H720 0.951 . S
C745 C743 1.388 . S
C745 C746 1.366 . S
C746 C745 1.366 . S
C746 C747 1.414 . S
C746 C749 1.499 . S
C747 H721 0.950 . S
C747 C746 1.414 . S
C747 C748 1.374 . S
C748 H722 0.950 . S
C748 C744 1.385 . S
C748 C747 1.374 . S
C749 C746 1.499 . S
C749 C750 1.373 . S
C749 C751 1.389 . S
C750 H723 0.950 . S
C750 C736 1.377 . S
C750 C749 1.373 . S
C751 C735 1.377 . S
C751 C749 1.389 . S
C751 C752 1.524 1_655 S
C752 C751 1.524 1_455 S
C752 C753 1.397 . S
C752 C757 1.363 . S
C753 H724 0.950 . S
C753 C752 1.397 . S
C753 C754 1.334 . S
C754 H725 0.950 . S
C754 C753 1.334 . S
C754 C755 1.287 . S
C755 C754 1.287 . S
C755 C756 1.524 . S
C755 H758 0.999 . S
C756 H726 0.950 . S
C756 C755 1.524 . S
C756 C757 1.415 . S
C757 H727 0.950 . S
C757 C752 1.363 . S
C757 C756 1.415 . S
H758 C755 0.999 . S
H759 C740 0.913 1_565 S
C179 C88 0.795 1_565 S
C194 C8 0.945 . S
C229 C128 1.038 1_655 S
C244 C58 1.038 . S
C279 C98 1.101 . S
C294 C18 1.109 . S
C329 C48 1.074 . S
C344 C138 1.057 1_455 S
C379 C59 0.578 . S
C394 C15 0.569 . S
C429 C49 0.516 . S
C444 C85 0.552 . S
C479 C135 0.301 . S
C494 C95 0.308 . S
C529 C125 0.342 . S
C544 C5 0.452 . S
C579 C89 3.315 1_556 S
C594 C129 3.285 . S
C629 C19 3.363 . S
C644 C139 3.359 . S
C679 C45 2.847 . S
C694 C9 2.815 . S
C729 C99 2.481 . S
C744 C55 2.428 1_655 S
