# Generated by pormake.
# Topology rac, (4)-cn, num edge types: 1
# Building blocks:
#     Node 0, Type 0, BuildingBlock: GALJAG_clean_sbu_0, # of connection points: 4
#     Node 1, Type 0, BuildingBlock: GALJAG_clean_sbu_0, # of connection points: 4
#     Node 2, Type 0, BuildingBlock: GALJAG_clean_sbu_0, # of connection points: 4
#     Node 3, Type 0, BuildingBlock: GALJAG_clean_sbu_0, # of connection points: 4
#     Node 4, Type 0, BuildingBlock: GALJAG_clean_sbu_0, # of connection points: 4
#     Node 5, Type 0, BuildingBlock: GALJAG_clean_sbu_0, # of connection points: 4
#     Node 6, Type 0, BuildingBlock: GALJAG_clean_sbu_0, # of connection points: 4
#     Node 7, Type 0, BuildingBlock: GALJAG_clean_sbu_0, # of connection points: 4
#     Edge 8, Type (0, 0), BuildingBlock: XUDNAN_clean_linker_2, # of connection points: 2
#     Edge 9, Type (0, 0), BuildingBlock: XUDNAN_clean_linker_2, # of connection points: 2
#     Edge 10, Type (0, 0), BuildingBlock: XUDNAN_clean_linker_2, # of connection points: 2
#     Edge 11, Type (0, 0), BuildingBlock: XUDNAN_clean_linker_2, # of connection points: 2
#     Edge 12, Type (0, 0), BuildingBlock: XUDNAN_clean_linker_2, # of connection points: 2
#     Edge 13, Type (0, 0), BuildingBlock: XUDNAN_clean_linker_2, # of connection points: 2
#     Edge 14, Type (0, 0), BuildingBlock: XUDNAN_clean_linker_2, # of connection points: 2
#     Edge 15, Type (0, 0), BuildingBlock: XUDNAN_clean_linker_2, # of connection points: 2
#     Edge 16, Type (0, 0), BuildingBlock: XUDNAN_clean_linker_2, # of connection points: 2
#     Edge 17, Type (0, 0), BuildingBlock: XUDNAN_clean_linker_2, # of connection points: 2
#     Edge 18, Type (0, 0), BuildingBlock: XUDNAN_clean_linker_2, # of connection points: 2
#     Edge 19, Type (0, 0), BuildingBlock: XUDNAN_clean_linker_2, # of connection points: 2
#     Edge 20, Type (0, 0), BuildingBlock: XUDNAN_clean_linker_2, # of connection points: 2
#     Edge 21, Type (0, 0), BuildingBlock: XUDNAN_clean_linker_2, # of connection points: 2
#     Edge 22, Type (0, 0), BuildingBlock: XUDNAN_clean_linker_2, # of connection points: 2
#     Edge 23, Type (0, 0), BuildingBlock: XUDNAN_clean_linker_2, # of connection points: 2
# Relax obj value: 0.254
# Max RMSD: 0.115
# Mean RMSD: 0.115
data_MOF--net-rac--node1-GALJAG_clean_sbu_0--edge1-XUDNAN_clean_linker_2
_symmetry_space_group_name_H-M    P1
_symmetry_Int_Tables_number       1
_symmetry_cell_setting            triclinic
loop_
_symmetry_equiv_pos_as_xyz
'x, y, z'
_cell_length_a     35.821927
_cell_length_b     22.790434
_cell_length_c     39.283153
_cell_angle_alpha  90.283825
_cell_angle_beta   89.931928
_cell_angle_gamma 89.790141
loop_
_atom_site_label
_atom_site_type_symbol
_atom_site_fract_x
_atom_site_fract_y
_atom_site_fract_z
_atom_type_partial_charge
In0 In 0.37851 0.27976 0.06134 0.0
O1 O 0.38002 0.3018 0.11711 0.0
O2 O 0.41403 0.22998 0.10025 0.0
C3 C 0.33212 0.36873 0.04829 0.0
C4 C 0.33557 0.18344 0.04887 0.0
C5 C 0.43539 0.33543 0.02877 0.0
O6 O 0.34208 0.35588 0.07814 0.0
O7 O 0.34421 0.33499 0.02529 0.0
O8 O 0.41225 0.30314 0.01329 0.0
O9 O 0.43262 0.33342 0.06068 0.0
C10 C 0.40309 0.26203 0.12488 0.0
O11 O 0.36714 0.19008 0.03475 0.0
O12 O 0.32675 0.22395 0.06927 0.0
In13 In 0.11235 0.77507 0.06148 0.0
O14 O 0.12881 0.84434 0.02133 0.0
O15 O 0.13129 0.8694 0.07303 0.0
C16 C 0.05863 0.70204 0.03673 0.0
C17 C 0.09435 0.77697 0.12785 0.0
C18 C 0.17372 0.71311 0.0469 0.0
O19 O 0.0552 0.75747 0.03513 0.0
O20 O 0.08853 0.68499 0.05025 0.0
O21 O 0.16322 0.72329 0.07704 0.0
O22 O 0.15344 0.73512 0.02402 0.0
C23 C 0.13886 0.8826 0.04274 0.0
O24 O 0.12641 0.76368 0.11681 0.0
O25 O 0.0708 0.79106 0.10523 0.0
In26 In 0.39044 0.23838 0.43666 0.0
O27 O 0.37321 0.3343 0.45236 0.0
O28 O 0.33149 0.27334 0.4376 0.0
C29 C 0.44985 0.19511 0.47165 0.0
C30 C 0.41164 0.24509 0.37124 0.0
C31 C 0.34969 0.14497 0.4519 0.0
O32 O 0.42462 0.22561 0.48585 0.0
O33 O 0.44819 0.19556 0.43968 0.0
O34 O 0.35523 0.16103 0.42157 0.0
O35 O 0.364 0.17705 0.47458 0.0
C36 C 0.33865 0.32433 0.44798 0.0
O37 O 0.39753 0.19994 0.38435 0.0
O38 O 0.41487 0.28887 0.39108 0.0
In39 In 0.1185 0.74969 0.44136 0.0
O40 O 0.11897 0.65192 0.4596 0.0
O41 O 0.16912 0.69065 0.44209 0.0
C42 C 0.06736 0.81999 0.47319 0.0
C43 C 0.09873 0.73927 0.37575 0.0
C44 C 0.17272 0.82497 0.45552 0.0
O45 O 0.08512 0.78022 0.48879 0.0
O46 O 0.0724 0.81954 0.44147 0.0
O47 O 0.16105 0.81613 0.42562 0.0
O48 O 0.15685 0.79569 0.4785 0.0
C49 C 0.15366 0.64564 0.45368 0.0
O50 O 0.12809 0.76435 0.38574 0.0
O51 O 0.07856 0.71796 0.39917 0.0
In52 In 0.6281 0.7491 0.93814 0.0
O53 O 0.64535 0.7643 0.88369 0.0
O54 O 0.5899 0.78911 0.89744 0.0
C55 C 0.65732 0.6419 0.92958 0.0
C56 C 0.67196 0.83646 0.96402 0.0
C57 C 0.56898 0.69733 0.96881 0.0
O58 O 0.64147 0.66935 0.90592 0.0
O59 O 0.66067 0.67007 0.95717 0.0
O60 O 0.6012 0.69734 0.98181 0.0
O61 O 0.56562 0.7308 0.94341 0.0
C62 C 0.61417 0.78408 0.87413 0.0
O63 O 0.63724 0.83465 0.97007 0.0
O64 O 0.68386 0.79407 0.9465 0.0
In65 In 0.86978 0.26429 0.94262 0.0
O66 O 0.85585 0.2046 0.98826 0.0
O67 O 0.86081 0.16507 0.93963 0.0
C68 C 0.90501 0.36063 0.96905 0.0
C69 C 0.90289 0.25633 0.88125 0.0
C70 C 0.79785 0.2945 0.93692 0.0
O71 O 0.91929 0.30984 0.972 0.0
O72 O 0.87398 0.36092 0.95423 0.0
O73 O 0.81695 0.2775 0.91169 0.0
O74 O 0.81503 0.29508 0.96493 0.0
C75 C 0.85149 0.15892 0.97033 0.0
O76 O 0.87458 0.28777 0.88721 0.0
O77 O 0.91536 0.22839 0.90667 0.0
In78 In 0.63033 0.77021 0.55906 0.0
O79 O 0.64106 0.67175 0.54367 0.0
O80 O 0.68554 0.73223 0.54103 0.0
C81 C 0.56615 0.82021 0.53577 0.0
C82 C 0.62032 0.75549 0.62616 0.0
C83 C 0.66451 0.87155 0.54818 0.0
O84 O 0.59213 0.80477 0.51582 0.0
O85 O 0.57019 0.8015 0.56562 0.0
O86 O 0.66124 0.85008 0.57765 0.0
O87 O 0.65164 0.84072 0.52419 0.0
C88 C 0.67538 0.67996 0.53757 0.0
O89 O 0.64739 0.78409 0.61401 0.0
O90 O 0.59917 0.73173 0.60431 0.0
In91 In 0.89514 0.25896 0.56897 0.0
O92 O 0.90044 0.20899 0.61844 0.0
O93 O 0.91866 0.29808 0.61831 0.0
C94 C 0.83563 0.19421 0.55457 0.0
C95 C 0.86238 0.36466 0.55614 0.0
C96 C 0.95197 0.19733 0.53885 0.0
O97 O 0.84789 0.2 0.58454 0.0
O98 O 0.85395 0.22029 0.53179 0.0
O99 O 0.91933 0.19883 0.5271 0.0
O100 O 0.9573 0.23323 0.56295 0.0
C101 C 0.91442 0.25115 0.63496 0.0
O102 O 0.89289 0.35011 0.54182 0.0
O103 O 0.85084 0.32819 0.57754 0.0
H104 H 0.27807 0.1445 0.08851 0.0
H105 H 0.33341 0.1124 0.99198 0.0
H106 H 0.28587 0.03722 0.97775 0.0
H107 H 0.25556 0.99275 0.10489 0.0
H108 H 0.21167 1.01028 0.12507 0.0
H109 H 0.24951 0.06198 0.12664 0.0
H110 H 0.20643 0.14127 0.10038 0.0
H111 H 0.16862 0.08947 0.09819 0.0
H112 H 0.18373 0.12683 0.06028 0.0
H113 H 0.23015 0.96722 0.97367 0.0
H114 H 0.17765 0.89905 0.98337 0.0
H115 H 0.161 0.97394 0.08397 0.0
C116 C 0.28029 0.12151 0.06439 0.0
C117 C 0.30941 0.1345 0.04125 0.0
C118 C 0.31148 0.10303 0.01013 0.0
C119 C 0.2844 0.0606 0.00176 0.0
C120 C 0.25566 0.04959 0.02496 0.0
C121 C 0.25393 0.07847 0.05593 0.0
C122 C 0.22142 0.05676 0.07718 0.0
C123 C 0.23538 0.02877 0.1104 0.0
C124 C 0.1934 0.10656 0.08443 0.0
C125 C 0.20492 0.01118 0.05337 0.0
C126 C 0.22469 1.00825 0.02314 0.0
C127 C 0.21461 0.96919 0.99729 0.0
C128 C 0.18446 0.93092 0.00292 0.0
C129 C 0.16493 0.93127 0.03433 0.0
C130 C 0.17505 0.97286 0.05954 0.0
H131 H 0.22914 0.6318 0.44753 0.0
H132 H 0.12815 0.53514 0.47052 0.0
H133 H 0.16565 0.4437 0.47503 0.0
H134 H 0.27185 0.52391 0.39564 0.0
H135 H 0.3186 0.53801 0.41041 0.0
H136 H 0.28424 0.59584 0.41112 0.0
H137 H 0.29572 0.61153 0.47558 0.0
H138 H 0.33019 0.55372 0.4751 0.0
H139 H 0.29133 0.55036 0.50422 0.0
H140 H 0.21366 0.36221 0.47274 0.0
H141 H 0.2679 0.29665 0.46541 0.0
H142 H 0.33871 0.44664 0.44552 0.0
C143 C 0.21482 0.59153 0.45387 0.0
C144 C 0.17554 0.59066 0.45871 0.0
C145 C 0.15809 0.53696 0.46684 0.0
C146 C 0.17923 0.48488 0.46943 0.0
C147 C 0.21782 0.48735 0.46411 0.0
C148 C 0.23548 0.53943 0.45673 0.0
C149 C 0.27713 0.53013 0.45116 0.0
C150 C 0.28861 0.54803 0.41493 0.0
C151 C 0.29993 0.56341 0.47813 0.0
C152 C 0.28025 0.46427 0.45598 0.0
C153 C 0.24564 0.4406 0.46347 0.0
C154 C 0.24086 0.38045 0.46728 0.0
C155 C 0.27193 0.34354 0.46298 0.0
C156 C 0.3077 0.36645 0.45515 0.0
C157 C 0.31194 0.42788 0.45209 0.0
H158 H 0.7377 0.86678 0.93429 0.0
H159 H 0.66245 0.9179 0.01575 0.0
H160 H 0.70502 0.99976 0.03106 0.0
H161 H 0.82562 0.90419 0.97551 0.0
H162 H 0.84594 0.93221 0.9369 0.0
H163 H 0.81158 0.87474 0.93484 0.0
H164 H 0.77087 0.93804 0.8946 0.0
H165 H 0.80526 0.99528 0.89624 0.0
H166 H 0.75751 0.01113 0.90763 0.0
H167 H 0.75613 0.07823 0.03608 0.0
H168 H 0.80496 0.15257 0.02567 0.0
H169 H 0.84409 0.0522 0.93858 0.0
C170 C 0.73039 0.89462 0.95572 0.0
C171 C 0.69699 0.88544 0.97419 0.0
C172 C 0.68799 0.92388 0.00142 0.0
C173 C 0.71214 0.97025 0.01037 0.0
C174 C 0.74494 0.97798 0.99157 0.0
C175 C 0.75371 0.94152 0.96449 0.0
C176 C 0.78864 0.96188 0.94626 0.0
C177 C 0.81979 0.91548 0.94853 0.0
C178 C 0.78004 0.97752 0.90899 0.0
C179 C 0.79817 0.01598 0.96702 0.0
C180 C 0.77313 0.024 0.99348 0.0
C181 C 0.77589 0.07206 0.01551 0.0
C182 C 0.80399 0.11389 0.00957 0.0
C183 C 0.82864 0.10806 0.98148 0.0
C184 C 0.82605 0.05759 0.96053 0.0
H185 H 0.67907 0.56723 0.56301 0.0
H186 H 0.73655 0.68968 0.49742 0.0
H187 H 0.78989 0.62113 0.49265 0.0
H188 H 0.75792 0.52686 0.60986 0.0
H189 H 0.74558 0.45076 0.61473 0.0
H190 H 0.70957 0.50516 0.60924 0.0
H191 H 0.68389 0.44835 0.55707 0.0
H192 H 0.71951 0.39323 0.56272 0.0
H193 H 0.71485 0.4299 0.52239 0.0
H194 H 0.83957 0.54166 0.49844 0.0
H195 H 0.88017 0.45732 0.51386 0.0
H196 H 0.7916 0.38952 0.57781 0.0
C197 C 0.70232 0.57852 0.54669 0.0
C198 C 0.70331 0.63329 0.52998 0.0
C199 C 0.73496 0.64757 0.51001 0.0
C200 C 0.76548 0.60897 0.50723 0.0
C201 C 0.76429 0.55613 0.52487 0.0
C202 C 0.73343 0.5407 0.54409 0.0
C203 C 0.74042 0.48341 0.56258 0.0
C204 C 0.73824 0.4921 0.6014 0.0
C205 C 0.71304 0.43591 0.55046 0.0
C206 C 0.78005 0.46964 0.55118 0.0
C207 C 0.79329 0.51171 0.52915 0.0
C208 C 0.82938 0.50832 0.51559 0.0
C209 C 0.85236 0.46043 0.52456 0.0
C210 C 0.83934 0.41696 0.54721 0.0
C211 C 0.80266 0.42214 0.56061 0.0
H212 H 0.39108 0.33622 0.1784 0.0
H213 H 0.44182 0.16904 0.15174 0.0
H214 H 0.45687 0.15247 0.21245 0.0
H215 H 0.45693 0.37448 0.24811 0.0
H216 H 0.42046 0.40763 0.27342 0.0
H217 H 0.41769 0.40918 0.22762 0.0
H218 H 0.35265 0.35999 0.23015 0.0
H219 H 0.3552 0.35828 0.27584 0.0
H220 H 0.34748 0.29136 0.25227 0.0
H221 H 0.45797 0.14807 0.27607 0.0
H222 H 0.44728 0.15737 0.338 0.0
H223 H 0.39907 0.33001 0.32344 0.0
C224 C 0.40597 0.29656 0.18524 0.0
C225 C 0.41531 0.25379 0.16044 0.0
C226 C 0.43459 0.2024 0.17036 0.0
C227 C 0.44328 0.19275 0.20474 0.0
C228 C 0.43304 0.2354 0.22865 0.0
C229 C 0.41518 0.28661 0.21929 0.0
C230 C 0.40505 0.32378 0.25007 0.0
C231 C 0.42631 0.38223 0.24978 0.0
C232 C 0.36259 0.3339 0.2522 0.0
C233 C 0.4187 0.28444 0.27843 0.0
C234 C 0.43498 0.23383 0.26546 0.0
C235 C 0.44618 0.18808 0.28651 0.0
C236 C 0.43996 0.1937 0.32158 0.0
C237 C 0.42312 0.24488 0.33529 0.0
C238 C 0.41314 0.29136 0.31357 0.0
H239 H 0.14647 0.75148 0.32302 0.0
H240 H 0.0294 0.72529 0.34626 0.0
H241 H 0.01423 0.73419 0.28473 0.0
H242 H 0.13501 0.85786 0.25905 0.0
H243 H 0.1727 0.83039 0.23296 0.0
H244 H 0.17386 0.82016 0.27836 0.0
H245 H 0.18096 0.70774 0.26989 0.0
H246 H 0.18036 0.71768 0.22446 0.0
H247 H 0.14742 0.66883 0.2442 0.0
H248 H 0.01259 0.75265 0.2199 0.0
H249 H 0.02533 0.7675 0.15835 0.0
H250 H 0.1438 0.77767 0.1799 0.0
C251 C 0.11762 0.74711 0.3152 0.0
C252 C 0.08904 0.73788 0.33926 0.0
C253 C 0.05169 0.73205 0.32807 0.0
C254 C 0.04286 0.73742 0.29327 0.0
C255 C 0.07181 0.74788 0.27023 0.0
C256 C 0.1085 0.75167 0.28085 0.0
C257 C 0.13479 0.76237 0.25149 0.0
C258 C 0.15528 0.82119 0.25573 0.0
C259 C 0.1625 0.71109 0.24726 0.0
C260 C 0.10727 0.76454 0.22249 0.0
C261 C 0.07099 0.75667 0.23359 0.0
C262 C 0.04093 0.75839 0.211 0.0
C263 C 0.04836 0.76721 0.17618 0.0
C264 C 0.08552 0.7735 0.16448 0.0
C265 C 0.11511 0.77263 0.18809 0.0
H266 H 0.66379 0.80247 0.82292 0.0
H267 H 0.54596 0.77694 0.84313 0.0
H268 H 0.53427 0.76695 0.78123 0.0
H269 H 0.65126 0.88681 0.74326 0.0
H270 H 0.69207 0.85397 0.72407 0.0
H271 H 0.6899 0.86421 0.76954 0.0
H272 H 0.70334 0.75336 0.77768 0.0
H273 H 0.70468 0.74243 0.73229 0.0
H274 H 0.67303 0.70012 0.758 0.0
H275 H 0.53734 0.74712 0.71767 0.0
H276 H 0.55298 0.73517 0.65661 0.0
H277 H 0.66831 0.77861 0.67839 0.0
C278 C 0.63537 0.79633 0.81424 0.0
C279 C 0.60571 0.79069 0.83764 0.0
C280 C 0.56895 0.78216 0.82548 0.0
C281 C 0.56215 0.77592 0.79043 0.0
C282 C 0.59233 0.77937 0.76806 0.0
C283 C 0.62807 0.79089 0.77945 0.0
C284 C 0.65581 0.79163 0.75038 0.0
C285 C 0.67328 0.8528 0.74659 0.0
C286 C 0.68598 0.74405 0.75487 0.0
C287 C 0.63031 0.7774 0.72087 0.0
C288 C 0.59385 0.76997 0.73156 0.0
C289 C 0.56568 0.75374 0.70896 0.0
C290 C 0.57488 0.74649 0.67443 0.0
C291 C 0.6118 0.7561 0.66289 0.0
C292 C 0.63981 0.7713 0.68652 0.0
H293 H 0.9047 0.33325 0.68497 0.0
H294 H 0.94314 0.15544 0.6667 0.0
H295 H 0.95353 0.14236 0.7285 0.0
H296 H 0.96433 0.36794 0.75992 0.0
H297 H 0.92701 0.40663 0.78127 0.0
H298 H 0.92923 0.40569 0.73542 0.0
H299 H 0.86202 0.36411 0.73284 0.0
H300 H 0.8596 0.36502 0.77855 0.0
H301 H 0.85124 0.29772 0.75555 0.0
H302 H 0.95509 0.14622 0.79269 0.0
H303 H 0.94076 0.16267 0.85377 0.0
H304 H 0.89649 0.33483 0.8298 0.0
C305 C 0.91638 0.29229 0.69401 0.0
C306 C 0.92388 0.2457 0.67128 0.0
C307 C 0.93767 0.19179 0.6839 0.0
C308 C 0.94382 0.18411 0.71887 0.0
C309 C 0.93552 0.23055 0.74086 0.0
C310 C 0.92172 0.28342 0.72893 0.0
C311 C 0.91019 0.32339 0.75801 0.0
C312 C 0.93413 0.37922 0.75869 0.0
C313 C 0.86829 0.3384 0.75611 0.0
C314 C 0.91883 0.28433 0.78807 0.0
C315 C 0.93434 0.23156 0.77778 0.0
C316 C 0.94326 0.1876 0.80107 0.0
C317 C 0.93519 0.19732 0.83568 0.0
C318 C 0.91763 0.24996 0.84635 0.0
C319 C 0.91012 0.29428 0.82229 0.0
H320 H 0.49573 0.39828 0.05282 0.0
H321 H 0.41961 0.38452 0.96738 0.0
H322 H 0.44317 0.47835 0.94496 0.0
H323 H 0.48987 0.55005 0.06594 0.0
H324 H 0.53868 0.5617 0.07468 0.0
H325 H 0.51779 0.49164 0.08354 0.0
H326 H 0.56682 0.43915 0.04543 0.0
H327 H 0.58849 0.50889 0.03722 0.0
H328 H 0.57352 0.46333 0.00224 0.0
H329 H 0.46972 0.57902 0.9353 0.0
H330 H 0.50712 0.66939 0.93175 0.0
H331 H 0.57 0.6158 0.02079 0.0
C332 C 0.48479 0.41427 0.0289 0.0
C333 C 0.45593 0.38372 0.01174 0.0
C334 C 0.44207 0.40648 0.98072 0.0
C335 C 0.45498 0.46021 0.96798 0.0
C336 C 0.48239 0.49028 0.98614 0.0
C337 C 0.49809 0.46728 0.01531 0.0
C338 C 0.52792 0.50805 0.02938 0.0
C339 C 0.51795 0.52909 0.06553 0.0
C340 C 0.56647 0.47807 0.02851 0.0
C341 C 0.52583 0.55817 0.00406 0.0
C342 C 0.499 0.54726 0.97962 0.0
C343 C 0.49114 0.58765 0.95405 0.0
C344 C 0.51231 0.63931 0.95249 0.0
C345 C 0.54149 0.65009 0.97603 0.0
C346 C 0.54773 0.60925 0.00256 0.0
H347 H 0.06476 0.58204 0.03464 0.0
H348 H 0.98822 0.72453 0.01186 0.0
H349 H 0.94075 0.65204 0.99373 0.0
H350 H 0.03937 0.48915 0.96377 0.0
H351 H 0.04402 0.42194 0.98742 0.0
H352 H 0.0717 0.48485 0.99882 0.0
H353 H 0.04628 0.47998 0.06046 0.0
H354 H 0.01836 0.41721 0.04922 0.0
H355 H 0.99656 0.48135 0.06763 0.0
H356 H 0.9016 0.56444 0.97893 0.0
H357 H 0.8738 0.46887 0.96546 0.0
H358 H 0.97588 0.38107 0.99672 0.0
C359 C 0.03801 0.59812 0.02579 0.0
C360 C 0.03017 0.65922 0.02472 0.0
C361 C 0.99488 0.67818 0.01289 0.0
C362 C 0.96775 0.63724 0.00263 0.0
C363 C 0.97634 0.57744 0.00425 0.0
C364 C 0.01069 0.55787 0.01534 0.0
C365 C 0.01298 0.49115 0.01417 0.0
C366 C 0.04385 0.47057 0.98958 0.0
C367 C 0.0189 0.46595 0.05 0.0
C368 C 0.97449 0.47605 1.00059 0.0
C369 C 0.95386 0.52668 0.99528 0.0
C370 C 0.91755 0.52465 0.98293 0.0
C371 C 0.902 0.4698 0.97538 0.0
C372 C 0.92255 0.417 0.97996 0.0
C373 C 0.95933 0.42036 0.99303 0.0
H374 H 0.5648 0.8933 0.47961 0.0
H375 H 0.51162 0.86376 0.57732 0.0
H376 H 0.48034 0.95998 0.57338 0.0
H377 H 0.58209 0.04433 0.49052 0.0
H378 H 0.5715 0.06512 0.44738 0.0
H379 H 0.58831 0.9922 0.45631 0.0
H380 H 0.53019 0.94688 0.42725 0.0
H381 H 0.51378 0.0196 0.41734 0.0
H382 H 0.48424 0.97 0.4406 0.0
H383 H 0.45907 0.06341 0.56148 0.0
H384 H 0.4391 0.15803 0.53706 0.0
H385 H 0.50374 0.12031 0.44601 0.0
C386 C 0.54567 0.90624 0.49967 0.0
C387 C 0.54058 0.87046 0.52872 0.0
C388 C 0.51583 0.88988 0.55469 0.0
C389 C 0.49818 0.94489 0.55286 0.0
C390 C 0.50515 0.98019 0.52472 0.0
C391 C 0.52748 0.96109 0.49813 0.0
C392 C 0.52991 1.00764 0.47064 0.0
C393 C 0.57036 0.02854 0.46595 0.0
C394 C 0.51355 0.98466 0.43696 0.0
C395 C 0.50562 0.05582 0.48601 0.0
C396 C 0.49211 0.03938 0.51748 0.0
C397 C 0.46927 0.07656 0.53674 0.0
C398 C 0.45843 0.13072 0.52281 0.0
C399 C 0.46998 0.14712 0.48969 0.0
C400 C 0.49475 0.10957 0.47155 0.0
H401 H 0.9518 0.12215 0.48349 0.0
H402 H 0.00818 0.15615 0.57918 0.0
H403 H 0.04097 0.06096 0.57423 0.0
H404 H 0.93798 0.97057 0.49363 0.0
H405 H 0.94787 0.95048 0.4501 0.0
H406 H 0.92989 0.0225 0.45993 0.0
H407 H 0.98631 0.07054 0.42982 0.0
H408 H 1.00399 0.99866 0.41914 0.0
H409 H 0.03302 0.04981 0.44202 0.0
H410 H 0.06249 0.95673 0.5619 0.0
H411 H 0.08143 0.861 0.53734 0.0
H412 H 0.01527 0.89721 0.44744 0.0
C413 C 0.97178 0.11022 0.50295 0.0
C414 C 0.97752 0.147 0.53167 0.0
C415 C 1.00363 0.12935 0.55674 0.0
C416 C 0.0221 0.0749 0.55434 0.0
C417 C 0.01478 0.03878 0.52637 0.0
C418 C 0.99112 0.05646 0.50058 0.0
C419 C 0.98888 1.00987 0.47284 0.0
C420 C 0.94877 0.98702 0.46891 0.0
C421 C 1.00396 0.03364 0.43895 0.0
C422 C 0.01447 0.96288 0.4873 0.0
C423 C 0.02862 0.98003 0.51849 0.0
C424 C 0.05191 0.94321 0.5373 0.0
C425 C 0.06216 0.88849 0.52333 0.0
C426 C 0.04971 0.87129 0.49056 0.0
C427 C 0.0251 0.90889 0.47263 0.0
H428 H 0.21704 0.65543 0.09243 0.0
H429 H 0.19732 0.67611 0.98416 0.0
H430 H 0.24016 0.59331 0.97221 0.0
H431 H 0.31661 0.60718 0.08603 0.0
H432 H 0.31078 0.55611 0.1205 0.0
H433 H 0.2839 0.62309 0.11977 0.0
H434 H 0.22309 0.5623 0.12449 0.0
H435 H 0.24959 0.49518 0.12446 0.0
H436 H 0.21355 0.50629 0.09314 0.0
H437 H 0.27773 0.50062 0.97279 0.0
H438 H 0.31143 0.40854 0.98561 0.0
H439 H 0.30506 0.44877 0.0936 0.0
C440 C 0.22263 0.64373 0.06615 0.0
C441 C 0.2041 0.67195 0.03918 0.0
C442 C 0.21155 0.65502 0.00514 0.0
C443 C 0.23575 0.60812 0.99812 0.0
C444 C 0.2523 0.57939 0.02547 0.0
C445 C 0.2465 0.5971 0.05877 0.0
C446 C 0.2649 0.55599 0.08372 0.0
C447 C 0.2959 0.58748 0.10367 0.0
C448 C 0.23605 0.52832 0.10785 0.0
C449 C 0.28084 0.51121 0.05931 0.0
C450 C 0.27364 0.52568 0.02582 0.0
C451 C 0.28406 0.48924 0.99887 0.0
C452 C 0.30285 0.43694 0.0064 0.0
C453 C 0.31066 0.42182 0.04058 0.0
C454 C 0.29946 0.4594 0.06725 0.0
H455 H 0.31622 0.07158 0.4071 0.0
H456 H 0.33312 0.10254 0.5151 0.0
H457 H 0.29292 0.01758 0.5283 0.0
H458 H 0.22196 0.03743 0.41214 0.0
H459 H 0.22338 0.9818 0.37938 0.0
H460 H 0.2564 0.041 0.3787 0.0
H461 H 0.31114 0.9661 0.37805 0.0
H462 H 0.27822 0.90652 0.37863 0.0
H463 H 0.31393 0.91115 0.41082 0.0
H464 H 0.24711 0.93432 0.5293 0.0
H465 H 0.19887 0.85922 0.51794 0.0
H466 H 0.21316 0.88513 0.4093 0.0
C467 C 0.31187 0.06005 0.43353 0.0
C468 C 0.32755 0.09324 0.46011 0.0
C469 C 0.32117 0.0773 0.4944 0.0
C470 C 0.29858 0.02916 0.50212 0.0
C471 C 0.28306 0.99772 0.47519 0.0
C472 C 0.28956 0.01244 0.44161 0.0
C473 C 0.26795 0.97415 0.41734 0.0
C474 C 0.24082 1.01079 0.39564 0.0
C475 C 0.2944 0.93729 0.3949 0.0
C476 C 0.24745 0.93649 0.44254 0.0
C477 C 0.25675 0.95014 0.47577 0.0
C478 C 0.2399 0.92271 0.50339 0.0
C479 C 0.21259 0.88037 0.49673 0.0
C480 C 0.20253 0.86673 0.46279 0.0
C481 C 0.22047 0.89468 0.4355 0.0
H482 H 0.68297 0.56954 0.97926 0.0
H483 H 0.65545 0.57518 0.87183 0.0
H484 H 0.67452 0.47159 0.86564 0.0
H485 H 0.76361 0.49507 0.97148 0.0
H486 H 0.75877 0.45169 0.00948 0.0
H487 H 0.73536 0.52107 0.00651 0.0
H488 H 0.67224 0.46983 0.01917 0.0
H489 H 0.69569 0.39979 0.02154 0.0
H490 H 0.65715 0.40973 0.99264 0.0
H491 H 0.70731 0.37685 0.86846 0.0
H492 H 0.75596 0.3025 0.87906 0.0
H493 H 0.75984 0.35523 0.98518 0.0
C494 C 0.68035 0.54852 0.9546 0.0
C495 C 0.66804 0.58005 0.926 0.0
C496 C 0.665 0.55155 0.89405 0.0
C497 C 0.67527 0.49258 0.89039 0.0
C498 C 0.68782 0.46269 0.91905 0.0
C499 C 0.69027 0.48968 0.95059 0.0
C500 C 0.70946 0.4508 0.97623 0.0
C501 C 0.74382 0.48147 0.99178 0.0
C502 C 0.68199 0.43138 0.00404 0.0
C503 C 0.72035 0.39987 0.95344 0.0
C504 C 0.70645 0.40656 0.92083 0.0
C505 C 0.71752 0.37005 0.89406 0.0
C506 C 0.74519 0.32797 0.90028 0.0
C507 C 0.76149 0.32345 0.93291 0.0
C508 C 0.74726 0.35722 0.96015 0.0
H509 H 0.69229 0.94578 0.59587 0.0
H510 H 0.67708 0.92416 0.48695 0.0
H511 H 0.71208 0.01564 0.47699 0.0
H512 H 0.6887 0.11059 0.59685 0.0
H513 H 0.72399 0.11409 0.62947 0.0
H514 H 0.692 0.05323 0.62815 0.0
H515 H 0.74793 0.98068 0.62627 0.0
H516 H 0.77998 0.04103 0.62742 0.0
H517 H 0.78262 0.98803 0.59327 0.0
H518 H 0.75642 0.09933 0.47861 0.0
H519 H 0.80686 0.16947 0.49176 0.0
H520 H 0.79218 0.13605 0.59961 0.0
C521 C 0.69562 0.96104 0.56998 0.0
C522 C 0.6823 0.9282 0.54217 0.0
C523 C 0.68727 0.94898 0.50859 0.0
C524 C 0.70682 1.00098 0.50271 0.0
C525 C 0.72055 0.03167 0.53073 0.0
C526 C 0.71487 0.01274 0.56372 0.0
C527 C 0.73571 0.04993 0.58919 0.0
C528 C 0.70847 0.08399 0.61227 0.0
C529 C 0.76319 0.01269 0.61024 0.0
C530 C 0.75583 0.0905 0.56522 0.0
C531 C 0.74612 0.08025 0.53166 0.0
C532 C 0.76367 0.10876 0.5048 0.0
C533 C 0.79234 0.14819 0.51249 0.0
C534 C 0.80319 0.15785 0.54667 0.0
C535 C 0.78414 0.1297 0.57328 0.0
loop_
_geom_bond_atom_site_label_1
_geom_bond_atom_site_label_2
_geom_bond_distance
_geom_bond_site_symmetry_2
_ccdc_geom_bond_type
In0 O1 2.294 . S
In0 O2 2.326 . S
In0 O6 2.266 . S
In0 O7 2.326 . S
In0 O8 2.266 . S
In0 O9 2.326 . S
In0 O11 2.294 . S
In0 O12 2.326 . S
O1 In0 2.294 . S
O1 C10 1.240 . S
O2 In0 2.326 . S
O2 C10 1.252 . S
C3 O6 1.252 . S
C3 O7 1.260 . S
C4 O11 1.240 . S
C4 O12 1.252 . S
C5 O8 1.252 . S
C5 O9 1.260 . S
O6 In0 2.266 . S
O6 C3 1.252 . S
O7 In0 2.326 . S
O7 C3 1.260 . S
O8 In0 2.266 . S
O8 C5 1.252 . S
O9 In0 2.326 . S
O9 C5 1.260 . S
C10 O1 1.240 . S
C10 O2 1.252 . S
O11 In0 2.294 . S
O11 C4 1.240 . S
O12 In0 2.326 . S
O12 C4 1.252 . S
In13 O14 2.294 . S
In13 O15 2.326 . S
In13 O19 2.266 . S
In13 O20 2.326 . S
In13 O21 2.266 . S
In13 O22 2.326 . S
In13 O24 2.294 . S
In13 O25 2.326 . S
O14 In13 2.294 . S
O14 C23 1.240 . S
O15 In13 2.326 . S
O15 C23 1.252 . S
C16 O19 1.252 . S
C16 O20 1.260 . S
C17 O24 1.240 . S
C17 O25 1.252 . S
C18 O21 1.252 . S
C18 O22 1.260 . S
O19 In13 2.266 . S
O19 C16 1.252 . S
O20 In13 2.326 . S
O20 C16 1.260 . S
O21 In13 2.266 . S
O21 C18 1.252 . S
O22 In13 2.326 . S
O22 C18 1.260 . S
C23 O14 1.240 . S
C23 O15 1.252 . S
O24 In13 2.294 . S
O24 C17 1.240 . S
O25 In13 2.326 . S
O25 C17 1.252 . S
In26 O27 2.294 . S
In26 O28 2.326 . S
In26 O32 2.266 . S
In26 O33 2.326 . S
In26 O34 2.266 . S
In26 O35 2.326 . S
In26 O37 2.294 . S
In26 O38 2.326 . S
O27 In26 2.294 . S
O27 C36 1.240 . S
O28 In26 2.326 . S
O28 C36 1.252 . S
C29 O32 1.252 . S
C29 O33 1.260 . S
C30 O37 1.240 . S
C30 O38 1.252 . S
C31 O34 1.252 . S
C31 O35 1.260 . S
O32 In26 2.266 . S
O32 C29 1.252 . S
O33 In26 2.326 . S
O33 C29 1.260 . S
O34 In26 2.266 . S
O34 C31 1.252 . S
O35 In26 2.326 . S
O35 C31 1.260 . S
C36 O27 1.240 . S
C36 O28 1.252 . S
O37 In26 2.294 . S
O37 C30 1.240 . S
O38 In26 2.326 . S
O38 C30 1.252 . S
In39 O40 2.294 . S
In39 O41 2.326 . S
In39 O45 2.266 . S
In39 O46 2.326 . S
In39 O47 2.266 . S
In39 O48 2.326 . S
In39 O50 2.294 . S
In39 O51 2.326 . S
O40 In39 2.294 . S
O40 C49 1.240 . S
O41 In39 2.326 . S
O41 C49 1.252 . S
C42 O45 1.252 . S
C42 O46 1.260 . S
C43 O50 1.240 . S
C43 O51 1.252 . S
C44 O47 1.252 . S
C44 O48 1.260 . S
O45 In39 2.266 . S
O45 C42 1.252 . S
O46 In39 2.326 . S
O46 C42 1.260 . S
O47 In39 2.266 . S
O47 C44 1.252 . S
O48 In39 2.326 . S
O48 C44 1.260 . S
C49 O40 1.240 . S
C49 O41 1.252 . S
O50 In39 2.294 . S
O50 C43 1.240 . S
O51 In39 2.326 . S
O51 C43 1.252 . S
In52 O53 2.294 . S
In52 O54 2.326 . S
In52 O58 2.266 . S
In52 O59 2.326 . S
In52 O60 2.266 . S
In52 O61 2.326 . S
In52 O63 2.294 . S
In52 O64 2.326 . S
O53 In52 2.294 . S
O53 C62 1.240 . S
O54 In52 2.326 . S
O54 C62 1.252 . S
C55 O58 1.252 . S
C55 O59 1.260 . S
C56 O63 1.240 . S
C56 O64 1.252 . S
C57 O60 1.252 . S
C57 O61 1.260 . S
O58 In52 2.266 . S
O58 C55 1.252 . S
O59 In52 2.326 . S
O59 C55 1.260 . S
O60 In52 2.266 . S
O60 C57 1.252 . S
O61 In52 2.326 . S
O61 C57 1.260 . S
C62 O53 1.240 . S
C62 O54 1.252 . S
O63 In52 2.294 . S
O63 C56 1.240 . S
O64 In52 2.326 . S
O64 C56 1.252 . S
In65 O66 2.294 . S
In65 O67 2.326 . S
In65 O71 2.266 . S
In65 O72 2.326 . S
In65 O73 2.266 . S
In65 O74 2.326 . S
In65 O76 2.294 . S
In65 O77 2.326 . S
O66 In65 2.294 . S
O66 C75 1.240 . S
O67 In65 2.326 . S
O67 C75 1.252 . S
C68 O71 1.252 . S
C68 O72 1.260 . S
C69 O76 1.240 . S
C69 O77 1.252 . S
C70 O73 1.252 . S
C70 O74 1.260 . S
O71 In65 2.266 . S
O71 C68 1.252 . S
O72 In65 2.326 . S
O72 C68 1.260 . S
O73 In65 2.266 . S
O73 C70 1.252 . S
O74 In65 2.326 . S
O74 C70 1.260 . S
C75 O66 1.240 . S
C75 O67 1.252 . S
O76 In65 2.294 . S
O76 C69 1.240 . S
O77 In65 2.326 . S
O77 C69 1.252 . S
In78 O79 2.294 . S
In78 O80 2.326 . S
In78 O84 2.266 . S
In78 O85 2.326 . S
In78 O86 2.266 . S
In78 O87 2.326 . S
In78 O89 2.294 . S
In78 O90 2.326 . S
O79 In78 2.294 . S
O79 C88 1.240 . S
O80 In78 2.326 . S
O80 C88 1.252 . S
C81 O84 1.252 . S
C81 O85 1.260 . S
C82 O89 1.240 . S
C82 O90 1.252 . S
C83 O86 1.252 . S
C83 O87 1.260 . S
O84 In78 2.266 . S
O84 C81 1.252 . S
O85 In78 2.326 . S
O85 C81 1.260 . S
O86 In78 2.266 . S
O86 C83 1.252 . S
O87 In78 2.326 . S
O87 C83 1.260 . S
C88 O79 1.240 . S
C88 O80 1.252 . S
O89 In78 2.294 . S
O89 C82 1.240 . S
O90 In78 2.326 . S
O90 C82 1.252 . S
In91 O92 2.294 . S
In91 O93 2.326 . S
In91 O97 2.266 . S
In91 O98 2.326 . S
In91 O99 2.266 . S
In91 O100 2.326 . S
In91 O102 2.294 . S
In91 O103 2.326 . S
O92 In91 2.294 . S
O92 C101 1.240 . S
O93 In91 2.326 . S
O93 C101 1.252 . S
C94 O97 1.252 . S
C94 O98 1.260 . S
C95 O102 1.240 . S
C95 O103 1.252 . S
C96 O99 1.252 . S
C96 O100 1.260 . S
O97 In91 2.266 . S
O97 C94 1.252 . S
O98 In91 2.326 . S
O98 C94 1.260 . S
O99 In91 2.266 . S
O99 C96 1.252 . S
O100 In91 2.326 . S
O100 C96 1.260 . S
C101 O92 1.240 . S
C101 O93 1.252 . S
O102 In91 2.294 . S
O102 C95 1.240 . S
O103 In91 2.326 . S
O103 C95 1.252 . S
H104 C116 0.930 . S
H105 C118 0.930 1_556 S
H106 C119 0.930 1_556 S
H107 C123 0.959 . S
H108 C123 0.959 . S
H109 C123 0.961 . S
H110 C124 0.960 . S
H111 C124 0.961 1_565 S
H112 C124 0.959 . S
H113 C127 0.929 1_556 S
H114 C128 0.931 1_556 S
H115 C130 0.930 . S
C116 H104 0.930 . S
C116 C117 1.399 . S
C116 C121 1.399 . S
C117 C116 1.399 . S
C117 C118 1.376 . S
C118 H105 0.930 1_554 S
C118 C117 1.376 . S
C118 C119 1.388 . S
C119 H106 0.930 1_554 S
C119 C118 1.388 . S
C119 C120 1.390 . S
C120 C119 1.390 . S
C120 C121 1.394 . S
C120 C126 1.465 1_545 S
C121 C116 1.399 . S
C121 C120 1.394 . S
C121 C122 1.516 1_545 S
C122 C121 1.516 1_565 S
C122 C123 1.502 . S
C122 C124 1.561 1_565 S
C122 C125 1.526 . S
C123 H107 0.959 . S
C123 H108 0.959 . S
C123 H109 0.961 . S
C123 C122 1.502 . S
C124 H110 0.960 . S
C124 H111 0.961 1_545 S
C124 H112 0.959 . S
C124 C122 1.561 1_545 S
C125 C122 1.526 . S
C125 C126 1.396 . S
C125 C130 1.390 . S
C126 C120 1.465 1_565 S
C126 C125 1.396 . S
C126 C127 1.399 . S
C127 H113 0.929 1_554 S
C127 C126 1.399 . S
C127 C128 1.385 . S
C128 H114 0.931 1_554 S
C128 C127 1.385 . S
C128 C129 1.389 . S
C129 C128 1.389 . S
C129 C130 1.387 . S
C130 H115 0.930 . S
C130 C125 1.390 . S
C130 C129 1.387 . S
H131 C143 0.930 . S
H132 C145 0.930 . S
H133 C146 0.930 . S
H134 C150 0.959 . S
H135 C150 0.959 . S
H136 C150 0.961 . S
H137 C151 0.960 . S
H138 C151 0.961 . S
H139 C151 0.959 . S
H140 C154 0.929 . S
H141 C155 0.931 . S
H142 C157 0.930 . S
C143 H131 0.930 . S
C143 C144 1.399 . S
C143 C148 1.399 . S
C144 C143 1.399 . S
C144 C145 1.376 . S
C145 H132 0.930 . S
C145 C144 1.376 . S
C145 C146 1.388 . S
C146 H133 0.930 . S
C146 C145 1.388 . S
C146 C147 1.390 . S
C147 C146 1.390 . S
C147 C148 1.394 . S
C147 C153 1.465 . S
C148 C143 1.399 . S
C148 C147 1.394 . S
C148 C149 1.516 . S
C149 C148 1.516 . S
C149 C150 1.502 . S
C149 C151 1.561 . S
C149 C152 1.526 . S
C150 H134 0.959 . S
C150 H135 0.959 . S
C150 H136 0.961 . S
C150 C149 1.502 . S
C151 H137 0.960 . S
C151 H138 0.961 . S
C151 H139 0.959 . S
C151 C149 1.561 . S
C152 C149 1.526 . S
C152 C153 1.396 . S
C152 C157 1.390 . S
C153 C147 1.465 . S
C153 C152 1.396 . S
C153 C154 1.399 . S
C154 H140 0.929 . S
C154 C153 1.399 . S
C154 C155 1.385 . S
C155 H141 0.931 . S
C155 C154 1.385 . S
C155 C156 1.389 . S
C156 C155 1.389 . S
C156 C157 1.387 . S
C157 H142 0.930 . S
C157 C152 1.390 . S
C157 C156 1.387 . S
H158 C170 0.930 . S
H159 C172 0.930 . S
H160 C173 0.930 1_545 S
H161 C177 0.959 . S
H162 C177 0.959 . S
H163 C177 0.961 . S
H164 C178 0.960 . S
H165 C178 0.961 . S
H166 C178 0.959 . S
H167 C181 0.929 . S
H168 C182 0.931 . S
H169 C184 0.930 . S
C170 H158 0.930 . S
C170 C171 1.399 . S
C170 C175 1.399 . S
C171 C170 1.399 . S
C171 C172 1.376 . S
C172 H159 0.930 . S
C172 C171 1.376 . S
C172 C173 1.388 . S
C173 H160 0.930 1_565 S
C173 C172 1.388 . S
C173 C174 1.390 . S
C174 C173 1.390 . S
C174 C175 1.394 . S
C174 C180 1.465 1_565 S
C175 C170 1.399 . S
C175 C174 1.394 . S
C175 C176 1.516 . S
C176 C175 1.516 . S
C176 C177 1.502 . S
C176 C178 1.561 . S
C176 C179 1.526 1_565 S
C177 H161 0.959 . S
C177 H162 0.959 . S
C177 H163 0.961 . S
C177 C176 1.502 . S
C178 H164 0.960 . S
C178 H165 0.961 . S
C178 H166 0.959 . S
C178 C176 1.561 . S
C179 C176 1.526 1_545 S
C179 C180 1.396 . S
C179 C184 1.390 . S
C180 C174 1.465 1_545 S
C180 C179 1.396 . S
C180 C181 1.399 . S
C181 H167 0.929 . S
C181 C180 1.399 . S
C181 C182 1.385 . S
C182 H168 0.931 . S
C182 C181 1.385 . S
C182 C183 1.389 . S
C183 C182 1.389 . S
C183 C184 1.387 . S
C184 H169 0.930 . S
C184 C179 1.390 . S
C184 C183 1.387 . S
H185 C197 0.930 . S
H186 C199 0.930 . S
H187 C200 0.930 . S
H188 C204 0.959 . S
H189 C204 0.959 . S
H190 C204 0.961 . S
H191 C205 0.960 . S
H192 C205 0.961 . S
H193 C205 0.959 . S
H194 C208 0.929 . S
H195 C209 0.931 . S
H196 C211 0.930 . S
C197 H185 0.930 . S
C197 C198 1.399 . S
C197 C202 1.399 . S
C198 C197 1.399 . S
C198 C199 1.376 . S
C199 H186 0.930 . S
C199 C198 1.376 . S
C199 C200 1.388 . S
C200 H187 0.930 . S
C200 C199 1.388 . S
C200 C201 1.390 . S
C201 C200 1.390 . S
C201 C202 1.394 . S
C201 C207 1.465 . S
C202 C197 1.399 . S
C202 C201 1.394 . S
C202 C203 1.516 . S
C203 C202 1.516 . S
C203 C204 1.502 . S
C203 C205 1.561 . S
C203 C206 1.526 . S
C204 H188 0.959 . S
C204 H189 0.959 . S
C204 H190 0.961 . S
C204 C203 1.502 . S
C205 H191 0.960 . S
C205 H192 0.961 . S
C205 H193 0.959 . S
C205 C203 1.561 . S
C206 C203 1.526 . S
C206 C207 1.396 . S
C206 C211 1.390 . S
C207 C201 1.465 . S
C207 C206 1.396 . S
C207 C208 1.399 . S
C208 H194 0.929 . S
C208 C207 1.399 . S
C208 C209 1.385 . S
C209 H195 0.931 . S
C209 C208 1.385 . S
C209 C210 1.389 . S
C210 C209 1.389 . S
C210 C211 1.387 . S
C211 H196 0.930 . S
C211 C206 1.390 . S
C211 C210 1.387 . S
H212 C224 0.930 . S
H213 C226 0.930 . S
H214 C227 0.930 . S
H215 C231 0.959 . S
H216 C231 0.959 . S
H217 C231 0.961 . S
H218 C232 0.960 . S
H219 C232 0.961 . S
H220 C232 0.959 . S
H221 C235 0.929 . S
H222 C236 0.931 . S
H223 C238 0.930 . S
C224 H212 0.930 . S
C224 C225 1.399 . S
C224 C229 1.399 . S
C225 C224 1.399 . S
C225 C226 1.376 . S
C226 H213 0.930 . S
C226 C225 1.376 . S
C226 C227 1.388 . S
C227 H214 0.930 . S
C227 C226 1.388 . S
C227 C228 1.390 . S
C228 C227 1.390 . S
C228 C229 1.394 . S
C228 C234 1.465 . S
C229 C224 1.399 . S
C229 C228 1.394 . S
C229 C230 1.516 . S
C230 C229 1.516 . S
C230 C231 1.502 . S
C230 C232 1.561 . S
C230 C233 1.526 . S
C231 H215 0.959 . S
C231 H216 0.959 . S
C231 H217 0.961 . S
C231 C230 1.502 . S
C232 H218 0.960 . S
C232 H219 0.961 . S
C232 H220 0.959 . S
C232 C230 1.561 . S
C233 C230 1.526 . S
C233 C234 1.396 . S
C233 C238 1.390 . S
C234 C228 1.465 . S
C234 C233 1.396 . S
C234 C235 1.399 . S
C235 H221 0.929 . S
C235 C234 1.399 . S
C235 C236 1.385 . S
C236 H222 0.931 . S
C236 C235 1.385 . S
C236 C237 1.389 . S
C237 C236 1.389 . S
C237 C238 1.387 . S
C238 H223 0.930 . S
C238 C233 1.390 . S
C238 C237 1.387 . S
H239 C251 0.930 . S
H240 C253 0.930 . S
H241 C254 0.930 . S
H242 C258 0.959 . S
H243 C258 0.959 . S
H244 C258 0.961 . S
H245 C259 0.960 . S
H246 C259 0.961 . S
H247 C259 0.959 . S
H248 C262 0.929 . S
H249 C263 0.931 . S
H250 C265 0.930 . S
C251 H239 0.930 . S
C251 C252 1.399 . S
C251 C256 1.399 . S
C252 C251 1.399 . S
C252 C253 1.376 . S
C253 H240 0.930 . S
C253 C252 1.376 . S
C253 C254 1.388 . S
C254 H241 0.930 . S
C254 C253 1.388 . S
C254 C255 1.390 . S
C255 C254 1.390 . S
C255 C256 1.394 . S
C255 C261 1.465 . S
C256 C251 1.399 . S
C256 C255 1.394 . S
C256 C257 1.516 . S
C257 C256 1.516 . S
C257 C258 1.502 . S
C257 C259 1.561 . S
C257 C260 1.526 . S
C258 H242 0.959 . S
C258 H243 0.959 . S
C258 H244 0.961 . S
C258 C257 1.502 . S
C259 H245 0.960 . S
C259 H246 0.961 . S
C259 H247 0.959 . S
C259 C257 1.561 . S
C260 C257 1.526 . S
C260 C261 1.396 . S
C260 C265 1.390 . S
C261 C255 1.465 . S
C261 C260 1.396 . S
C261 C262 1.399 . S
C262 H248 0.929 . S
C262 C261 1.399 . S
C262 C263 1.385 . S
C263 H249 0.931 . S
C263 C262 1.385 . S
C263 C264 1.389 . S
C264 C263 1.389 . S
C264 C265 1.387 . S
C265 H250 0.930 . S
C265 C260 1.390 . S
C265 C264 1.387 . S
H266 C278 0.930 . S
H267 C280 0.930 . S
H268 C281 0.930 . S
H269 C285 0.959 . S
H270 C285 0.959 . S
H271 C285 0.961 . S
H272 C286 0.960 . S
H273 C286 0.961 . S
H274 C286 0.959 . S
H275 C289 0.929 . S
H276 C290 0.931 . S
H277 C292 0.930 . S
C278 H266 0.930 . S
C278 C279 1.399 . S
C278 C283 1.399 . S
C279 C278 1.399 . S
C279 C280 1.376 . S
C280 H267 0.930 . S
C280 C279 1.376 . S
C280 C281 1.388 . S
C281 H268 0.930 . S
C281 C280 1.388 . S
C281 C282 1.390 . S
C282 C281 1.390 . S
C282 C283 1.394 . S
C282 C288 1.465 . S
C283 C278 1.399 . S
C283 C282 1.394 . S
C283 C284 1.516 . S
C284 C283 1.516 . S
C284 C285 1.502 . S
C284 C286 1.561 . S
C284 C287 1.526 . S
C285 H269 0.959 . S
C285 H270 0.959 . S
C285 H271 0.961 . S
C285 C284 1.502 . S
C286 H272 0.960 . S
C286 H273 0.961 . S
C286 H274 0.959 . S
C286 C284 1.561 . S
C287 C284 1.526 . S
C287 C288 1.396 . S
C287 C292 1.390 . S
C288 C282 1.465 . S
C288 C287 1.396 . S
C288 C289 1.399 . S
C289 H275 0.929 . S
C289 C288 1.399 . S
C289 C290 1.385 . S
C290 H276 0.931 . S
C290 C289 1.385 . S
C290 C291 1.389 . S
C291 C290 1.389 . S
C291 C292 1.387 . S
C292 H277 0.930 . S
C292 C287 1.390 . S
C292 C291 1.387 . S
H293 C305 0.930 . S
H294 C307 0.930 . S
H295 C308 0.930 . S
H296 C312 0.959 . S
H297 C312 0.959 . S
H298 C312 0.961 . S
H299 C313 0.960 . S
H300 C313 0.961 . S
H301 C313 0.959 . S
H302 C316 0.929 . S
H303 C317 0.931 . S
H304 C319 0.930 . S
C305 H293 0.930 . S
C305 C306 1.399 . S
C305 C310 1.399 . S
C306 C305 1.399 . S
C306 C307 1.376 . S
C307 H294 0.930 . S
C307 C306 1.376 . S
C307 C308 1.388 . S
C308 H295 0.930 . S
C308 C307 1.388 . S
C308 C309 1.390 . S
C309 C308 1.390 . S
C309 C310 1.394 . S
C309 C315 1.465 . S
C310 C305 1.399 . S
C310 C309 1.394 . S
C310 C311 1.516 . S
C311 C310 1.516 . S
C311 C312 1.502 . S
C311 C313 1.561 . S
C311 C314 1.526 . S
C312 H296 0.959 . S
C312 H297 0.959 . S
C312 H298 0.961 . S
C312 C311 1.502 . S
C313 H299 0.960 . S
C313 H300 0.961 . S
C313 H301 0.959 . S
C313 C311 1.561 . S
C314 C311 1.526 . S
C314 C315 1.396 . S
C314 C319 1.390 . S
C315 C309 1.465 . S
C315 C314 1.396 . S
C315 C316 1.399 . S
C316 H302 0.929 . S
C316 C315 1.399 . S
C316 C317 1.385 . S
C317 H303 0.931 . S
C317 C316 1.385 . S
C317 C318 1.389 . S
C318 C317 1.389 . S
C318 C319 1.387 . S
C319 H304 0.930 . S
C319 C314 1.390 . S
C319 C318 1.387 . S
H320 C332 0.930 . S
H321 C334 0.930 . S
H322 C335 0.930 . S
H323 C339 0.959 . S
H324 C339 0.959 . S
H325 C339 0.961 . S
H326 C340 0.960 . S
H327 C340 0.961 . S
H328 C340 0.959 . S
H329 C343 0.929 . S
H330 C344 0.931 . S
H331 C346 0.930 . S
C332 H320 0.930 . S
C332 C333 1.399 . S
C332 C337 1.399 . S
C333 C332 1.399 . S
C333 C334 1.376 1_554 S
C334 H321 0.930 . S
C334 C333 1.376 1_556 S
C334 C335 1.388 . S
C335 H322 0.930 . S
C335 C334 1.388 . S
C335 C336 1.390 . S
C336 C335 1.390 . S
C336 C337 1.394 1_556 S
C336 C342 1.465 . S
C337 C332 1.399 . S
C337 C336 1.394 1_554 S
C337 C338 1.516 . S
C338 C337 1.516 . S
C338 C339 1.502 . S
C338 C340 1.561 . S
C338 C341 1.526 . S
C339 H323 0.959 . S
C339 H324 0.959 . S
C339 H325 0.961 . S
C339 C338 1.502 . S
C340 H326 0.960 . S
C340 H327 0.961 . S
C340 H328 0.959 . S
C340 C338 1.561 . S
C341 C338 1.526 . S
C341 C342 1.396 1_554 S
C341 C346 1.390 . S
C342 C336 1.465 . S
C342 C341 1.396 1_556 S
C342 C343 1.399 . S
C343 H329 0.929 . S
C343 C342 1.399 . S
C343 C344 1.385 . S
C344 H330 0.931 . S
C344 C343 1.385 . S
C344 C345 1.389 . S
C345 C344 1.389 . S
C345 C346 1.387 1_556 S
C346 H331 0.930 . S
C346 C341 1.390 . S
C346 C345 1.387 1_554 S
H347 C359 0.930 . S
H348 C361 0.930 . S
H349 C362 0.930 1_655 S
H350 C366 0.959 . S
H351 C366 0.959 . S
H352 C366 0.961 . S
H353 C367 0.960 1_455 S
H354 C367 0.961 . S
H355 C367 0.959 . S
H356 C370 0.929 . S
H357 C371 0.931 . S
H358 C373 0.930 . S
C359 H347 0.930 . S
C359 C360 1.399 . S
C359 C364 1.399 . S
C360 C359 1.399 . S
C360 C361 1.376 1_554 S
C361 H348 0.930 . S
C361 C360 1.376 1_556 S
C361 C362 1.388 . S
C362 H349 0.930 1_455 S
C362 C361 1.388 . S
C362 C363 1.390 . S
C363 C362 1.390 . S
C363 C364 1.398 1_556 S
C363 C369 1.461 1_455 S
C364 C359 1.399 . S
C364 C363 1.398 1_554 S
C364 C365 1.516 . S
C365 C364 1.516 . S
C365 C366 1.502 . S
C365 C367 1.561 1_455 S
C365 C368 1.526 1_455 S
C366 H350 0.959 . S
C366 H351 0.959 . S
C366 H352 0.961 . S
C366 C365 1.502 . S
C367 H353 0.960 1_655 S
C367 H354 0.961 . S
C367 H355 0.959 . S
C367 C365 1.561 1_655 S
C368 C365 1.526 1_655 S
C368 C369 1.396 1_554 S
C368 C373 1.390 . S
C369 C363 1.461 1_655 S
C369 C368 1.396 1_556 S
C369 C370 1.399 . S
C370 H356 0.929 . S
C370 C369 1.399 . S
C370 C371 1.385 . S
C371 H357 0.931 . S
C371 C370 1.385 . S
C371 C372 1.389 . S
C372 C371 1.389 . S
C372 C373 1.387 1_556 S
C373 H358 0.930 . S
C373 C368 1.390 . S
C373 C372 1.387 1_554 S
H374 C386 0.930 . S
H375 C388 0.930 . S
H376 C389 0.930 . S
H377 C393 0.959 1_545 S
H378 C393 0.959 1_545 S
H379 C393 0.961 . S
H380 C394 0.960 . S
H381 C394 0.961 . S
H382 C394 0.959 . S
H383 C397 0.929 . S
H384 C398 0.931 . S
H385 C400 0.930 . S
C386 H374 0.930 . S
C386 C387 1.399 . S
C386 C391 1.399 . S
C387 C386 1.399 . S
C387 C388 1.376 . S
C388 H375 0.930 . S
C388 C387 1.376 . S
C388 C389 1.388 . S
C389 H376 0.930 . S
C389 C388 1.388 . S
C389 C390 1.390 . S
C390 C389 1.390 . S
C390 C391 1.394 . S
C390 C396 1.465 1_565 S
C391 C386 1.399 . S
C391 C390 1.394 . S
C391 C392 1.516 . S
C392 C391 1.516 . S
C392 C393 1.502 . S
C392 C394 1.561 . S
C392 C395 1.526 1_565 S
C393 H377 0.959 1_565 S
C393 H378 0.959 1_565 S
C393 H379 0.961 . S
C393 C392 1.502 . S
C394 H380 0.960 . S
C394 H381 0.961 . S
C394 H382 0.959 . S
C394 C392 1.561 . S
C395 C392 1.526 1_545 S
C395 C396 1.396 . S
C395 C400 1.390 . S
C396 C390 1.465 1_545 S
C396 C395 1.396 . S
C396 C397 1.399 . S
C397 H383 0.929 . S
C397 C396 1.399 . S
C397 C398 1.385 . S
C398 H384 0.931 . S
C398 C397 1.385 . S
C398 C399 1.389 . S
C399 C398 1.389 . S
C399 C400 1.387 . S
C400 H385 0.930 . S
C400 C395 1.390 . S
C400 C399 1.387 . S
H401 C413 0.930 . S
H402 C415 0.930 . S
H403 C416 0.930 1_455 S
H404 C420 0.959 . S
H405 C420 0.959 . S
H406 C420 0.961 1_545 S
H407 C421 0.960 . S
H408 C421 0.961 . S
H409 C421 0.959 . S
H410 C424 0.929 . S
H411 C425 0.931 . S
H412 C427 0.930 . S
C413 H401 0.930 . S
C413 C414 1.399 . S
C413 C418 1.399 . S
C414 C413 1.399 . S
C414 C415 1.376 . S
C415 H402 0.930 . S
C415 C414 1.376 . S
C415 C416 1.388 . S
C416 H403 0.930 1_655 S
C416 C415 1.388 . S
C416 C417 1.390 . S
C417 C416 1.390 . S
C417 C418 1.394 . S
C417 C423 1.465 1_645 S
C418 C413 1.399 . S
C418 C417 1.394 . S
C418 C419 1.516 . S
C419 C418 1.516 . S
C419 C420 1.502 1_545 S
C419 C421 1.561 1_655 S
C419 C422 1.526 1_645 S
C420 H404 0.959 . S
C420 H405 0.959 . S
C420 H406 0.961 1_565 S
C420 C419 1.502 1_565 S
C421 H407 0.960 . S
C421 H408 0.961 . S
C421 H409 0.959 . S
C421 C419 1.561 1_455 S
C422 C419 1.526 1_465 S
C422 C423 1.396 . S
C422 C427 1.390 . S
C423 C417 1.465 1_465 S
C423 C422 1.396 . S
C423 C424 1.399 . S
C424 H410 0.929 . S
C424 C423 1.399 . S
C424 C425 1.385 . S
C425 H411 0.931 . S
C425 C424 1.385 . S
C425 C426 1.389 . S
C426 C425 1.389 . S
C426 C427 1.387 . S
C427 H412 0.930 . S
C427 C422 1.390 . S
C427 C426 1.387 . S
H428 C440 0.930 . S
H429 C442 0.930 . S
H430 C443 0.930 . S
H431 C447 0.959 . S
H432 C447 0.959 . S
H433 C447 0.961 . S
H434 C448 0.960 . S
H435 C448 0.961 . S
H436 C448 0.959 . S
H437 C451 0.929 . S
H438 C452 0.931 . S
H439 C454 0.930 . S
C440 H428 0.930 . S
C440 C441 1.399 . S
C440 C445 1.399 . S
C441 C440 1.399 . S
C441 C442 1.376 1_554 S
C442 H429 0.930 . S
C442 C441 1.376 1_556 S
C442 C443 1.388 . S
C443 H430 0.930 . S
C443 C442 1.388 . S
C443 C444 1.390 1_556 S
C444 C443 1.390 1_554 S
C444 C445 1.394 . S
C444 C450 1.465 . S
C445 C440 1.399 . S
C445 C444 1.394 . S
C445 C446 1.516 . S
C446 C445 1.516 . S
C446 C447 1.502 . S
C446 C448 1.561 . S
C446 C449 1.526 . S
C447 H431 0.959 . S
C447 H432 0.959 . S
C447 H433 0.961 . S
C447 C446 1.502 . S
C448 H434 0.960 . S
C448 H435 0.961 . S
C448 H436 0.959 . S
C448 C446 1.561 . S
C449 C446 1.526 . S
C449 C450 1.396 . S
C449 C454 1.390 . S
C450 C444 1.465 . S
C450 C449 1.396 . S
C450 C451 1.399 1_554 S
C451 H437 0.929 . S
C451 C450 1.399 1_556 S
C451 C452 1.385 . S
C452 H438 0.931 . S
C452 C451 1.385 . S
C452 C453 1.389 1_556 S
C453 C452 1.389 1_554 S
C453 C454 1.387 . S
C454 H439 0.930 . S
C454 C449 1.390 . S
C454 C453 1.387 . S
H455 C467 0.930 . S
H456 C469 0.930 . S
H457 C470 0.930 . S
H458 C474 0.959 . S
H459 C474 0.959 . S
H460 C474 0.961 . S
H461 C475 0.960 1_545 S
H462 C475 0.961 . S
H463 C475 0.959 . S
H464 C478 0.929 . S
H465 C479 0.931 . S
H466 C481 0.930 . S
C467 H455 0.930 . S
C467 C468 1.399 . S
C467 C472 1.399 . S
C468 C467 1.399 . S
C468 C469 1.376 . S
C469 H456 0.930 . S
C469 C468 1.376 . S
C469 C470 1.388 . S
C470 H457 0.930 . S
C470 C469 1.388 . S
C470 C471 1.390 . S
C471 C470 1.390 . S
C471 C472 1.394 . S
C471 C477 1.465 1_545 S
C472 C467 1.399 . S
C472 C471 1.394 . S
C472 C473 1.516 . S
C473 C472 1.516 . S
C473 C474 1.502 . S
C473 C475 1.561 1_545 S
C473 C476 1.526 1_545 S
C474 H458 0.959 . S
C474 H459 0.959 . S
C474 H460 0.961 . S
C474 C473 1.502 . S
C475 H461 0.960 1_565 S
C475 H462 0.961 . S
C475 H463 0.959 . S
C475 C473 1.561 1_565 S
C476 C473 1.526 1_565 S
C476 C477 1.396 . S
C476 C481 1.390 . S
C477 C471 1.465 1_565 S
C477 C476 1.396 . S
C477 C478 1.399 . S
C478 H464 0.929 . S
C478 C477 1.399 . S
C478 C479 1.385 . S
C479 H465 0.931 . S
C479 C478 1.385 . S
C479 C480 1.389 . S
C480 C479 1.389 . S
C480 C481 1.387 . S
C481 H466 0.930 . S
C481 C476 1.390 . S
C481 C480 1.387 . S
H482 C494 0.930 1_554 S
H483 C496 0.930 . S
H484 C497 0.930 . S
H485 C501 0.959 1_556 S
H486 C501 0.959 . S
H487 C501 0.961 . S
H488 C502 0.960 . S
H489 C502 0.961 . S
H490 C502 0.959 . S
H491 C505 0.929 . S
H492 C506 0.931 . S
H493 C508 0.930 1_554 S
C494 H482 0.930 1_556 S
C494 C495 1.399 . S
C494 C499 1.399 . S
C495 C494 1.399 . S
C495 C496 1.376 . S
C496 H483 0.930 . S
C496 C495 1.376 . S
C496 C497 1.388 . S
C497 H484 0.930 . S
C497 C496 1.388 . S
C497 C498 1.390 . S
C498 C497 1.390 . S
C498 C499 1.394 . S
C498 C504 1.465 . S
C499 C494 1.399 . S
C499 C498 1.394 . S
C499 C500 1.516 1_556 S
C500 C499 1.516 1_554 S
C500 C501 1.502 . S
C500 C502 1.561 . S
C500 C503 1.526 1_554 S
C501 H485 0.959 1_554 S
C501 H486 0.959 . S
C501 H487 0.961 . S
C501 C500 1.502 . S
C502 H488 0.960 . S
C502 H489 0.961 . S
C502 H490 0.959 . S
C502 C500 1.561 . S
C503 C500 1.526 1_556 S
C503 C504 1.396 . S
C503 C508 1.390 . S
C504 C498 1.465 . S
C504 C503 1.396 . S
C504 C505 1.399 . S
C505 H491 0.929 . S
C505 C504 1.399 . S
C505 C506 1.385 . S
C506 H492 0.931 . S
C506 C505 1.385 . S
C506 C507 1.389 . S
C507 C506 1.389 . S
C507 C508 1.387 . S
C508 H493 0.930 1_556 S
C508 C503 1.390 . S
C508 C507 1.387 . S
H509 C521 0.930 . S
H510 C523 0.930 . S
H511 C524 0.930 . S
H512 C528 0.959 . S
H513 C528 0.959 . S
H514 C528 0.961 . S
H515 C529 0.960 1_565 S
H516 C529 0.961 . S
H517 C529 0.959 1_565 S
H518 C532 0.929 1_565 S
H519 C533 0.931 . S
H520 C535 0.930 . S
C521 H509 0.930 . S
C521 C522 1.399 . S
C521 C526 1.399 . S
C522 C521 1.399 . S
C522 C523 1.376 . S
C523 H510 0.930 . S
C523 C522 1.376 . S
C523 C524 1.388 . S
C524 H511 0.930 . S
C524 C523 1.388 . S
C524 C525 1.390 . S
C525 C524 1.390 . S
C525 C526 1.394 . S
C525 C531 1.465 1_565 S
C526 C521 1.399 . S
C526 C525 1.394 . S
C526 C527 1.516 1_565 S
C527 C526 1.516 1_545 S
C527 C528 1.502 . S
C527 C529 1.561 . S
C527 C530 1.526 . S
C528 H512 0.959 . S
C528 H513 0.959 . S
C528 H514 0.961 . S
C528 C527 1.502 . S
C529 H515 0.960 1_545 S
C529 H516 0.961 . S
C529 H517 0.959 1_545 S
C529 C527 1.561 . S
C530 C527 1.526 . S
C530 C531 1.396 . S
C530 C535 1.390 . S
C531 C525 1.465 1_545 S
C531 C530 1.396 . S
C531 C532 1.399 . S
C532 H518 0.929 1_545 S
C532 C531 1.399 . S
C532 C533 1.385 . S
C533 H519 0.931 . S
C533 C532 1.385 . S
C533 C534 1.389 . S
C534 C533 1.389 . S
C534 C535 1.387 . S
C535 H520 0.930 . S
C535 C530 1.390 . S
C535 C534 1.387 . S
C117 C4 1.781 . S
C129 C23 1.799 . S
C144 C49 1.784 . S
C156 C36 1.765 . S
C171 C56 1.795 . S
C183 C75 1.772 . S
C198 C88 1.764 . S
C210 C95 1.785 . S
C225 C10 1.734 . S
C237 C30 1.706 . S
C252 C43 1.738 . S
C264 C17 1.707 . S
C279 C62 1.765 . S
C291 C82 1.726 . S
C306 C101 1.711 . S
C318 C69 1.762 . S
C333 C5 1.415 . S
C345 C57 1.347 . S
C360 C16 1.416 . S
C372 C68 1.345 . S
C387 C81 1.369 . S
C399 C29 1.399 . S
C414 C96 1.384 . S
C426 C42 1.385 . S
C441 C18 0.936 . S
C453 C3 0.950 . S
C468 C31 0.945 . S
C480 C44 0.955 . S
C495 C55 0.897 . S
C507 C70 0.895 . S
C522 C83 0.938 . S
C534 C94 0.941 . S
