# Generated by pormake.
# Topology irl, (4)-cn, num edge types: 1
# Building blocks:
#     Node 0, Type 0, BuildingBlock: ESEHIV_clean_sbu_0, # of connection points: 4
#     Node 1, Type 0, BuildingBlock: ESEHIV_clean_sbu_0, # of connection points: 4
#     Node 2, Type 0, BuildingBlock: ESEHIV_clean_sbu_0, # of connection points: 4
#     Node 3, Type 0, BuildingBlock: ESEHIV_clean_sbu_0, # of connection points: 4
#     Node 4, Type 0, BuildingBlock: ESEHIV_clean_sbu_0, # of connection points: 4
#     Node 5, Type 0, BuildingBlock: ESEHIV_clean_sbu_0, # of connection points: 4
#     Node 6, Type 0, BuildingBlock: ESEHIV_clean_sbu_0, # of connection points: 4
#     Node 7, Type 0, BuildingBlock: ESEHIV_clean_sbu_0, # of connection points: 4
#     Edge 8, Type (0, 0), BuildingBlock: XIVTED_clean_linker_0, # of connection points: 2
#     Edge 9, Type (0, 0), BuildingBlock: XIVTED_clean_linker_0, # of connection points: 2
#     Edge 10, Type (0, 0), BuildingBlock: XIVTED_clean_linker_0, # of connection points: 2
#     Edge 11, Type (0, 0), BuildingBlock: XIVTED_clean_linker_0, # of connection points: 2
#     Edge 12, Type (0, 0), BuildingBlock: XIVTED_clean_linker_0, # of connection points: 2
#     Edge 13, Type (0, 0), BuildingBlock: XIVTED_clean_linker_0, # of connection points: 2
#     Edge 14, Type (0, 0), BuildingBlock: XIVTED_clean_linker_0, # of connection points: 2
#     Edge 15, Type (0, 0), BuildingBlock: XIVTED_clean_linker_0, # of connection points: 2
#     Edge 16, Type (0, 0), BuildingBlock: XIVTED_clean_linker_0, # of connection points: 2
#     Edge 17, Type (0, 0), BuildingBlock: XIVTED_clean_linker_0, # of connection points: 2
#     Edge 18, Type (0, 0), BuildingBlock: XIVTED_clean_linker_0, # of connection points: 2
#     Edge 19, Type (0, 0), BuildingBlock: XIVTED_clean_linker_0, # of connection points: 2
#     Edge 20, Type (0, 0), BuildingBlock: XIVTED_clean_linker_0, # of connection points: 2
#     Edge 21, Type (0, 0), BuildingBlock: XIVTED_clean_linker_0, # of connection points: 2
#     Edge 22, Type (0, 0), BuildingBlock: XIVTED_clean_linker_0, # of connection points: 2
#     Edge 23, Type (0, 0), BuildingBlock: XIVTED_clean_linker_0, # of connection points: 2
# Relax obj value: 0.080
# Max RMSD: 0.129
# Mean RMSD: 0.129
data_MOF--net-irl--node1-ESEHIV_clean_sbu_0--edge1-XIVTED_clean_linker_0
_symmetry_space_group_name_H-M    P1
_symmetry_Int_Tables_number       1
_symmetry_cell_setting            triclinic
loop_
_symmetry_equiv_pos_as_xyz
'x, y, z'
_cell_length_a     10.653892
_cell_length_b     66.426851
_cell_length_c     29.046638
_cell_angle_alpha  90.877934
_cell_angle_beta   89.780053
_cell_angle_gamma 90.120195
loop_
_atom_site_label
_atom_site_type_symbol
_atom_site_fract_x
_atom_site_fract_y
_atom_site_fract_z
_atom_type_partial_charge
Cu0 Cu 0.04159 0.15728 0.03219 0.0
N1 N 0.93934 0.13677 1.00878 0.0
N2 N 0.91117 0.10438 0.98896 0.0
C3 C 0.96262 0.1175 1.01937 0.0
C4 C 0.8513 0.11592 0.95809 0.0
C5 C 0.86872 0.13595 0.97046 0.0
O6 O 0.0456 0.15541 0.09984 0.0
C7 C 0.23448 0.14719 0.96372 0.0
O8 O 0.35026 0.14169 0.95443 0.0
H9 H 0.02832 0.11329 0.04588 0.0
H10 H 0.84273 0.14885 0.95038 0.0
N11 N 0.00153 0.18368 1.01651 0.0
N12 N 0.03715 0.21644 1.0041 0.0
C13 C 0.08527 0.19888 1.0188 0.0
C14 C 0.89544 0.19184 1.00025 0.0
C15 C 0.91711 0.21208 0.9926 0.0
C16 C 0.94529 0.15648 0.12405 0.0
O17 O 0.83755 0.15884 0.10296 0.0
H18 H 0.18034 0.19694 0.03088 0.0
H19 H 0.80936 0.18363 0.99379 0.0
O20 O 0.20578 0.15145 1.00564 0.0
H21 H 0.80537 0.11037 0.92723 0.0
H22 H 0.85044 0.22261 0.97865 0.0
Cu23 Cu 0.96187 0.90821 0.9798 0.0
N24 N 0.09305 0.92667 0.97428 0.0
N25 N 0.1471 0.95917 0.96834 0.0
C26 C 0.0793 0.94546 0.99162 0.0
C27 C 0.20823 0.94847 0.93534 0.0
C28 C 0.17426 0.92844 0.93896 0.0
O29 O 0.89647 0.9127 0.04305 0.0
C30 C 0.84629 0.90174 0.8915 0.0
O31 O 0.84432 0.88255 0.90157 0.0
H32 H 0.00639 0.9494 1.01619 0.0
H33 H 0.19414 0.91663 0.91395 0.0
N34 N 0.007 0.88096 0.97663 0.0
N35 N 0.97062 0.8477 0.97732 0.0
C36 C 0.9285 0.86617 0.98973 0.0
C37 C 0.10431 0.87159 0.95596 0.0
C38 C 0.08234 0.85104 0.95651 0.0
C39 C 0.98264 0.9099 0.07297 0.0
O40 O 0.09403 0.90437 0.0579 0.0
H41 H 0.83878 0.86913 1.00601 0.0
H42 H 0.18197 0.87915 0.93945 0.0
O43 O 0.86613 0.91467 0.92378 0.0
H44 H 0.26413 0.95485 0.90799 0.0
H45 H 0.14054 0.83959 0.94036 0.0
Cu46 Cu 0.01676 0.9129 0.51235 0.0
N47 N 0.91457 0.93317 0.53652 0.0
N48 N 0.8906 0.96549 0.5574 0.0
C49 C 0.93852 0.95244 0.52605 0.0
C50 C 0.832 0.95392 0.58876 0.0
C51 C 0.84682 0.93393 0.57572 0.0
O52 O 0.02072 0.91484 0.44469 0.0
C53 C 0.21105 0.92269 0.58013 0.0
O54 O 0.32731 0.92807 0.5889 0.0
H55 H 0.00342 0.95664 0.49905 0.0
H56 H 0.82215 0.92098 0.59602 0.0
N57 N 0.97734 0.88648 0.52768 0.0
N58 N 0.01461 0.85365 0.53756 0.0
C59 C 0.06092 0.87142 0.52315 0.0
C60 C 0.87322 0.87807 0.54537 0.0
C61 C 0.89612 0.85779 0.55165 0.0
C62 C 0.92083 0.91337 0.42061 0.0
O63 O 0.81313 0.91067 0.44185 0.0
H64 H 0.1556 0.87373 0.5107 0.0
H65 H 0.7876 0.88611 0.5535 0.0
O66 O 0.18129 0.91867 0.53829 0.0
H67 H 0.78966 0.9594 0.62047 0.0
H68 H 0.8303 0.84697 0.56536 0.0
Cu69 Cu 0.97979 0.15935 0.56469 0.0
N70 N 0.11227 0.14136 0.57077 0.0
N71 N 0.16457 0.1089 0.57778 0.0
C72 C 0.10027 0.12255 0.55341 0.0
C73 C 0.222 0.11966 0.61147 0.0
C74 C 0.18916 0.13967 0.60716 0.0
O75 O 0.91601 0.15462 0.50149 0.0
C76 C 0.86503 0.16566 0.65337 0.0
O77 O 0.86498 0.18489 0.64375 0.0
H78 H 0.02954 0.11855 0.5282 0.0
H79 H 0.20553 0.1515 0.63247 0.0
N80 N 0.02372 0.18661 0.56725 0.0
N81 N 0.98838 0.21978 0.56563 0.0
C82 C 0.94289 0.20125 0.55591 0.0
C83 C 0.12579 0.19614 0.58394 0.0
C84 C 0.10435 0.21668 0.58281 0.0
C85 C 0.00263 0.15749 0.47151 0.0
O86 O 0.11384 0.16308 0.48649 0.0
H87 H 0.84999 0.19821 0.54251 0.0
H88 H 0.20744 0.18871 0.59765 0.0
O89 O 0.883 0.15282 0.62071 0.0
H90 H 0.27351 0.11331 0.63981 0.0
H91 H 0.16658 0.22833 0.59579 0.0
Cu92 Cu 0.49016 0.65808 0.02232 0.0
N93 N 0.38641 0.63799 0.99798 0.0
N94 N 0.35413 0.60551 0.98009 0.0
C95 C 0.40359 0.6188 1.01051 0.0
C96 C 0.30166 0.61684 0.94712 0.0
C97 C 0.32149 0.63695 0.95832 0.0
O98 O 0.48465 0.65642 0.08974 0.0
C99 C 0.6884 0.64649 0.95834 0.0
O100 O 0.8034 0.6402 0.95056 0.0
H101 H 0.46426 0.61468 0.03865 0.0
H102 H 0.30179 0.64966 0.93669 0.0
N103 N 0.45854 0.68456 1.00496 0.0
N104 N 0.50245 0.71704 0.99248 0.0
C105 C 0.54471 0.69935 1.00866 0.0
C106 C 0.35698 0.69311 0.98617 0.0
C107 C 0.38376 0.71319 0.97848 0.0
C108 C 0.38633 0.66101 0.11286 0.0
O109 O 0.28685 0.66738 0.09086 0.0
H110 H 0.63721 0.69704 0.02286 0.0
H111 H 0.27055 0.68528 0.97808 0.0
O112 O 0.65654 0.6511 0.99968 0.0
H113 H 0.25974 0.61105 0.91571 0.0
H114 H 0.32156 0.72395 0.96282 0.0
Cu115 Cu 0.49122 0.40815 0.02866 0.0
N116 N 0.58715 0.42885 1.00356 0.0
N117 N 0.60973 0.46108 0.98357 0.0
C118 C 0.55985 0.44815 1.01396 0.0
C119 C 0.67261 0.4494 0.9528 0.0
C120 C 0.65846 0.42947 0.96523 0.0
O121 O 0.50263 0.40863 0.09623 0.0
C122 C 0.28521 0.4192 0.96968 0.0
O123 O 0.16855 0.42497 0.96403 0.0
H124 H 0.49337 0.4524 0.04065 0.0
H125 H 0.68764 0.41641 0.94528 0.0
N126 N 0.52402 0.38189 1.00793 0.0
N127 N 0.48339 0.34916 0.99492 0.0
C128 C 0.44038 0.36681 1.01242 0.0
C129 C 0.62482 0.37357 0.9872 0.0
C130 C 0.6 0.35335 0.97913 0.0
C131 C 0.59497 0.41569 0.11937 0.0
O132 O 0.69 0.42387 0.09755 0.0
H133 H 0.34961 0.36884 0.02864 0.0
H134 H 0.7099 0.38158 0.9785 0.0
O135 O 0.32107 0.41441 1.01003 0.0
H136 H 0.71885 0.45474 0.92206 0.0
H137 H 0.66247 0.34267 0.9624 0.0
Cu138 Cu 0.54315 0.40974 0.5571 0.0
N139 N 0.42433 0.43036 0.55735 0.0
N140 N 0.37602 0.46314 0.55803 0.0
C141 C 0.4605 0.44907 0.56964 0.0
C142 C 0.28122 0.45278 0.53782 0.0
C143 C 0.3112 0.43247 0.53752 0.0
O144 O 0.6301 0.41218 0.4972 0.0
C145 C 0.55184 0.41 0.64986 0.0
O146 O 0.43676 0.40433 0.64007 0.0
H147 H 0.55304 0.45242 0.58303 0.0
H148 H 0.25857 0.42043 0.52115 0.0
N149 N 0.48756 0.38297 0.55806 0.0
N150 N 0.51633 0.34957 0.55695 0.0
C151 C 0.57128 0.36788 0.55811 0.0
C152 C 0.37405 0.37406 0.55716 0.0
C153 C 0.3916 0.35337 0.55658 0.0
C154 C 0.55752 0.40662 0.46426 0.0
O155 O 0.44338 0.40073 0.47472 0.0
H156 H 0.67144 0.3705 0.55921 0.0
H157 H 0.28547 0.38197 0.55636 0.0
O158 O 0.62779 0.41364 0.61669 0.0
H159 H 0.19925 0.45945 0.52234 0.0
H160 H 0.3182 0.3421 0.55511 0.0
Cu161 Cu 0.43626 0.66191 0.55026 0.0
N162 N 0.55707 0.64165 0.55277 0.0
N163 N 0.60517 0.6089 0.55606 0.0
C164 C 0.52584 0.62281 0.53965 0.0
C165 C 0.69138 0.61954 0.58039 0.0
C166 C 0.66113 0.63979 0.57843 0.0
O167 O 0.35336 0.65728 0.49032 0.0
C168 C 0.40875 0.66688 0.64402 0.0
O169 O 0.51048 0.67741 0.63578 0.0
H170 H 0.43811 0.61927 0.52266 0.0
H171 H 0.70496 0.65195 0.59768 0.0
N172 N 0.49177 0.68864 0.54766 0.0
N173 N 0.46766 0.7221 0.54698 0.0
C174 C 0.41149 0.70411 0.55287 0.0
C175 C 0.60374 0.69701 0.538 0.0
C176 C 0.58898 0.71774 0.53743 0.0
C177 C 0.43465 0.65735 0.45766 0.0
O178 O 0.55284 0.66052 0.46836 0.0
H179 H 0.31227 0.70206 0.55945 0.0
H180 H 0.68904 0.68868 0.53106 0.0
O181 O 0.34971 0.65885 0.60999 0.0
H182 H 0.7661 0.61312 0.60054 0.0
H183 H 0.66167 0.72868 0.53038 0.0
H184 H 0.14818 0.98571 0.89764 0.0
H185 H 0.94722 0.07912 0.05974 0.0
H186 H 0.0965 0.98171 0.0445 0.0
H187 H 0.94126 0.08117 0.91152 0.0
H188 H 0.01302 0.04392 0.05483 0.0
H189 H 0.08904 1.02132 0.90208 0.0
C190 C 0.12656 0.99239 0.93093 0.0
C191 C 0.12755 0.98069 0.97083 0.0
C192 C -0.00322 0.05199 0.02331 0.0
C193 C 0.05752 1.02141 0.97604 0.0
C194 C 0.95918 0.0721 0.02613 0.0
C195 C 0.93832 0.0831 0.98602 0.0
C196 C 0.01502 0.04274 0.97998 0.0
C197 C 0.95461 0.0732 0.94332 0.0
C198 C 0.09133 1.01268 0.93337 0.0
C199 C 0.09625 0.99013 1.0129 0.0
N200 N 0.9927 0.05363 0.94142 0.0
N201 N 0.06245 1.00987 1.01438 0.0
H202 H 0.92612 0.99103 0.48715 0.0
H203 H 0.15138 0.08288 0.64939 0.0
H204 H 0.93163 0.98797 0.63525 0.0
H205 H 0.12085 0.08607 0.50173 0.0
H206 H 0.08277 0.04766 0.64532 0.0
H207 H 0.00271 1.02566 0.49224 0.0
C208 C 0.94274 0.99774 0.52079 0.0
C209 C 0.92215 0.9866 0.56079 0.0
C210 C 0.09198 0.05603 0.61378 0.0
C211 C 0.01124 1.02632 0.56705 0.0
C212 C 0.13266 0.07608 0.61603 0.0
C213 C 0.14204 0.08746 0.57576 0.0
C214 C 0.06075 0.04726 0.57096 0.0
C215 C 0.11411 0.0779 0.53359 0.0
C216 C 0.9867 1.01751 0.52373 0.0
C217 C 0.94457 0.99608 0.60356 0.0
N218 N 0.07442 0.05845 0.53231 0.0
N219 N 0.98855 1.01536 0.60557 0.0
H220 H 0.3732 0.58142 0.05362 0.0
H221 H 0.58761 0.48398 0.90675 0.0
H222 H 0.39343 0.58085 0.90539 0.0
H223 H 0.56205 0.48655 0.0549 0.0
H224 H 0.51882 0.51924 0.90429 0.0
H225 H 0.43861 0.54626 0.05362 0.0
C226 C 0.39067 0.5738 0.021 0.0
C227 C 0.37791 0.58411 0.9795 0.0
C228 C 0.52871 0.51208 0.93731 0.0
C229 C 0.45425 0.54369 0.97906 0.0
C230 C 0.56919 0.49202 0.93876 0.0
C231 C 0.5806 0.48227 0.98115 0.0
C232 C 0.49978 0.52247 0.97856 0.0
C233 C 0.55332 0.49336 0.02147 0.0
C234 C 0.42825 0.55371 0.02096 0.0
C235 C 0.40076 0.57343 0.93816 0.0
N236 N 0.51418 0.51276 1.01916 0.0
N237 N 0.43864 0.55383 0.93898 0.0
H238 H 0.29223 0.49121 0.4981 0.0
H239 H 0.67579 0.58144 0.61991 0.0
H240 H 0.51207 0.48414 0.62111 0.0
H241 H 0.48139 0.5871 0.49074 0.0
H242 H 0.61557 0.54589 0.62152 0.0
H243 H 0.35182 0.52684 0.49693 0.0
C244 C 0.35149 0.4972 0.52523 0.0
C245 C 0.3976 0.48462 0.55965 0.0
C246 C 0.58645 0.5549 0.59273 0.0
C247 C 0.46819 0.52536 0.55814 0.0
C248 C 0.62196 0.57519 0.59158 0.0
C249 C 0.58313 0.5874 0.55525 0.0
C250 C 0.5114 0.5467 0.55735 0.0
C251 C 0.51184 0.5784 0.51981 0.0
C252 C 0.38668 0.51751 0.5243 0.0
C253 C 0.47566 0.49321 0.5936 0.0
N254 N 0.47788 0.55869 0.52186 0.0
N255 N 0.50869 0.51298 0.59192 0.0
H256 H 0.74746 0.15849 0.18521 0.0
H257 H 0.18608 0.15168 0.40798 0.0
H258 H 0.14998 0.15174 0.18063 0.0
H259 H 0.78363 0.15721 0.4186 0.0
H260 H 0.16953 0.15033 0.32477 0.0
H261 H 0.75453 0.15706 0.26946 0.0
C262 C 0.8375 0.15667 0.2018 0.0
C263 C 0.94854 0.15529 0.17543 0.0
C264 C 0.08431 0.15176 0.34498 0.0
C265 C 0.95683 0.15361 0.27243 0.0
C266 C 0.09351 0.15254 0.39283 0.0
C267 C 0.98604 0.15471 0.42074 0.0
C268 C 0.96653 0.15327 0.32394 0.0
C269 C 0.86901 0.15551 0.39862 0.0
C270 C 0.8412 0.15583 0.25004 0.0
C271 C 0.06195 0.15291 0.19919 0.0
N272 N 0.86242 0.15495 0.35151 0.0
N273 N 0.06302 0.1522 0.24608 0.0
H274 H 0.7238 0.91082 0.3597 0.0
H275 H 0.1658 0.91558 0.13625 0.0
H276 H 0.12618 0.91798 0.36365 0.0
H277 H 0.76295 0.91081 0.12616 0.0
H278 H 0.14819 0.91756 0.21942 0.0
H279 H 0.73207 0.9116 0.27537 0.0
C280 C 0.81405 0.91261 0.34296 0.0
C281 C 0.9247 0.91428 0.36918 0.0
C282 C 0.06311 0.91616 0.19933 0.0
C283 C 0.9344 0.91518 0.27208 0.0
C284 C 0.07292 0.91501 0.15149 0.0
C285 C 0.96563 0.91288 0.12374 0.0
C286 C 0.94487 0.91506 0.22053 0.0
C287 C 0.84822 0.91246 0.146 0.0
C288 C 0.81844 0.91306 0.29467 0.0
C289 C 0.03842 0.91659 0.34521 0.0
N290 N 0.84101 0.91338 0.19311 0.0
N291 N 0.04018 0.91691 0.29829 0.0
H292 H 0.15222 0.95269 0.64126 0.0
H293 H 0.80177 0.87823 0.81503 0.0
H294 H 0.07833 0.89016 0.61147 0.0
H295 H 0.93044 0.9376 0.85472 0.0
H296 H 0.86589 0.88468 0.7358 0.0
H297 H 0.03768 0.9496 0.71438 0.0
C298 C 0.1087 0.93843 0.64954 0.0
C299 C 0.12126 0.92181 0.61939 0.0
C300 C 0.87867 0.89643 0.76162 0.0
C301 C 0.9927 0.91796 0.70381 0.0
C302 C 0.84134 0.8928 0.80703 0.0
C303 C 0.86091 0.90733 0.84204 0.0
C304 C 0.93668 0.91475 0.75062 0.0
C305 C 0.91282 0.92593 0.82911 0.0
C306 C 0.0439 0.93665 0.69141 0.0
C307 C 0.06583 0.90357 0.6324 0.0
N308 N 0.94998 0.92901 0.78468 0.0
N309 N 0.00469 0.90212 0.6736 0.0
H310 H 0.10156 0.17969 0.93365 0.0
H311 H 0.94762 0.12955 0.68877 0.0
H312 H 0.17539 0.11738 0.902 0.0
H313 H 0.82499 0.18896 0.73055 0.0
H314 H 0.01327 0.12346 0.76826 0.0
H315 H 0.98182 0.18223 0.86238 0.0
C316 C 0.08769 0.1663 0.91278 0.0
C317 C 0.14405 0.14811 0.92492 0.0
C318 C 0.97008 0.13771 0.76019 0.0
C319 C 0.01418 0.15115 0.84096 0.0
C320 C 0.93158 0.14115 0.71474 0.0
C321 C 0.88084 0.15986 0.70259 0.0
C322 C 0.9587 0.1531 0.79383 0.0
C323 C 0.86415 0.17434 0.73796 0.0
C324 C 0.0214 0.16782 0.87138 0.0
C325 C 0.13141 0.13162 0.89435 0.0
N326 N 0.90414 0.17076 0.78156 0.0
N327 N 0.06871 0.13354 0.85377 0.0
H328 H 0.19818 0.67231 0.17313 0.0
H329 H 0.57777 0.63737 0.39571 0.0
H330 H 0.56561 0.64513 0.16959 0.0
H331 H 0.22921 0.66994 0.40654 0.0
H332 H 0.55841 0.63674 0.31236 0.0
H333 H 0.19489 0.66908 0.25716 0.0
C334 C 0.27818 0.66562 0.18991 0.0
C335 C 0.38275 0.65906 0.16399 0.0
C336 C 0.48511 0.64389 0.33266 0.0
C337 C 0.37877 0.65518 0.26048 0.0
C338 C 0.49571 0.64416 0.38045 0.0
C339 C 0.40512 0.65377 0.40824 0.0
C340 C 0.38345 0.6535 0.31179 0.0
C341 C 0.30071 0.66223 0.38645 0.0
C342 C 0.27597 0.66378 0.23797 0.0
C343 C 0.48323 0.6505 0.18787 0.0
N344 N 0.29337 0.66211 0.33939 0.0
N345 N 0.47862 0.64884 0.23453 0.0
H346 H 0.72234 0.43159 0.41638 0.0
H347 H 0.43887 0.39374 0.17457 0.0
H348 H 0.46769 0.38155 0.3986 0.0
H349 H 0.75735 0.4339 0.18106 0.0
H350 H 0.44627 0.39064 0.25801 0.0
H351 H 0.74078 0.43364 0.33159 0.0
C352 C 0.6726 0.42082 0.39481 0.0
C353 C 0.59265 0.40648 0.41464 0.0
C354 C 0.51499 0.40013 0.24134 0.0
C355 C 0.61094 0.40896 0.31819 0.0
C356 C 0.51027 0.40198 0.19352 0.0
C357 C 0.59747 0.4141 0.17053 0.0
C358 C 0.60685 0.41062 0.26692 0.0
C359 C 0.68826 0.42433 0.19726 0.0
C360 C 0.68219 0.42208 0.34649 0.0
C361 C 0.52923 0.39303 0.38498 0.0
N362 N 0.69029 0.42245 0.24401 0.0
N363 N 0.53887 0.39471 0.33864 0.0
H364 H 0.39759 0.38643 0.92945 0.0
H365 H 0.57243 0.44507 0.69947 0.0
H366 H 0.35228 0.45033 0.91459 0.0
H367 H 0.5821 0.38064 0.71222 0.0
H368 H 0.53954 0.44828 0.78311 0.0
H369 H 0.50998 0.38498 0.85589 0.0
C370 C 0.416 0.40028 0.91161 0.0
C371 C 0.36957 0.41861 0.92896 0.0
C372 C 0.55277 0.43345 0.76788 0.0
C373 C 0.49199 0.41701 0.84302 0.0
C374 C 0.57383 0.43166 0.72024 0.0
C375 C 0.58294 0.41258 0.69912 0.0
C376 C 0.53932 0.41601 0.79444 0.0
C377 C 0.57834 0.39564 0.72734 0.0
C378 C 0.47825 0.39943 0.86907 0.0
C379 C 0.3882 0.43593 0.90264 0.0
N380 N 0.55554 0.39772 0.77332 0.0
N381 N 0.44741 0.43471 0.86098 0.0
H382 H 0.61358 0.61635 0.8999 0.0
H383 H 0.37074 0.6938 0.71328 0.0
H384 H 0.57891 0.68017 0.92363 0.0
H385 H 0.40298 0.63016 0.68592 0.0
H386 H 0.40477 0.68787 0.79509 0.0
H387 H 0.50224 0.61983 0.82652 0.0
C388 C 0.57934 0.63103 0.8902 0.0
C389 C 0.6018 0.64792 0.91866 0.0
C390 C 0.4012 0.67507 0.7716 0.0
C391 C 0.4774 0.65218 0.83406 0.0
C392 C 0.37992 0.67844 0.72489 0.0
C393 C 0.38184 0.66242 0.69286 0.0
C394 C 0.42804 0.65552 0.78654 0.0
C395 C 0.39795 0.64288 0.7096 0.0
C396 C 0.516 0.63302 0.84828 0.0
C397 C 0.55827 0.66665 0.90399 0.0
N398 N 0.42274 0.64001 0.75515 0.0
N399 N 0.4992 0.66829 0.86269 0.0
H400 H 0.23061 0.34293 0.997 0.0
H401 H 0.28904 0.22265 0.99563 0.0
H402 H 0.58422 0.31146 0.98986 0.0
H403 H 0.93548 0.2541 1.00397 0.0
H404 H 0.39791 0.25492 0.99192 0.0
H405 H 0.12119 0.31065 0.99791 0.0
C406 C 0.28565 0.32927 0.99585 0.0
C407 C 0.4175 0.33005 0.99374 0.0
C408 C 0.2965 0.25479 0.99453 0.0
C409 C 0.29159 0.29278 0.99425 0.0
C410 C 0.23396 0.23631 0.99697 0.0
C411 C 0.10232 0.23553 1.00054 0.0
C412 C 0.22749 0.27278 0.99568 0.0
C413 C 0.03666 0.25387 1.00099 0.0
C414 C 0.22272 0.31078 0.9961 0.0
C415 C 0.48281 0.3117 0.99125 0.0
N416 N 0.09984 0.27169 0.99877 0.0
N417 N 0.41933 0.29387 0.99176 0.0
H418 H 0.75621 0.72204 0.98868 0.0
H419 H 0.71723 0.8424 0.98298 0.0
H420 H 0.40801 0.75511 0.98988 0.0
H421 H 0.06656 0.80966 0.97761 0.0
H422 H 0.6037 0.81064 0.98694 0.0
H423 H 0.87135 0.75379 0.98571 0.0
C424 C 0.70362 0.73595 0.98862 0.0
C425 C 0.5716 0.73578 0.98982 0.0
C426 C 0.7052 0.81036 0.98499 0.0
C427 C 0.70395 0.77241 0.9859 0.0
C428 C 0.77063 0.82858 0.98311 0.0
C429 C 0.90248 0.82885 0.98029 0.0
C430 C 0.7714 0.79211 0.9841 0.0
C431 C 0.96523 0.81025 0.97946 0.0
C432 C 0.76976 0.75413 0.98664 0.0
C433 C 0.50935 0.7544 0.98866 0.0
N434 N 0.89926 0.79268 0.98143 0.0
N435 N 0.57594 0.77191 0.9869 0.0
H436 H 0.21884 0.84238 0.48666 0.0
H437 H 0.26074 0.7328 0.59631 0.0
H438 H 0.96285 0.82113 0.59083 0.0
H439 H 0.53451 0.75592 0.50086 0.0
H440 H 0.14993 0.76489 0.59436 0.0
H441 H 0.33387 0.81083 0.49088 0.0
C442 C 0.18684 0.83118 0.51068 0.0
C443 C 0.08073 0.83464 0.53867 0.0
C444 C 0.2344 0.763 0.57391 0.0
C445 C 0.2124 0.79809 0.54319 0.0
C446 C 0.29758 0.74461 0.57484 0.0
C447 C 0.40683 0.74154 0.54839 0.0
C448 C 0.28009 0.77854 0.54618 0.0
C449 C 0.45127 0.75761 0.52198 0.0
C450 C 0.25266 0.81306 0.51289 0.0
C451 C 0.04305 0.8192 0.5683 0.0
N452 N 0.38738 0.77535 0.52134 0.0
N453 N 0.10878 0.80165 0.56979 0.0
H454 H 0.42148 0.31279 0.58 0.0
H455 H 0.08529 0.25712 0.55234 0.0
H456 H 0.75826 0.34197 0.53125 0.0
H457 H 0.73658 0.22546 0.57373 0.0
H458 H 0.9682 0.28878 0.54882 0.0
H459 H 0.53543 0.28082 0.5809 0.0
C460 C 0.51883 0.31255 0.5693 0.0
C461 C 0.58004 0.33031 0.55605 0.0
C462 C 0.91724 0.27488 0.5541 0.0
C463 C 0.71181 0.29371 0.55756 0.0
C464 C 0.98425 0.25683 0.55634 0.0
C465 C 0.92086 0.23857 0.56303 0.0
C466 C 0.78581 0.27474 0.55912 0.0
C467 C 0.7894 0.23909 0.56772 0.0
C468 C 0.58411 0.29427 0.57 0.0
C469 C 0.70709 0.32892 0.54282 0.0
N470 N 0.72645 0.25685 0.56586 0.0
N471 N 0.76851 0.31104 0.54414 0.0
loop_
_geom_bond_atom_site_label_1
_geom_bond_atom_site_label_2
_geom_bond_distance
_geom_bond_site_symmetry_2
_ccdc_geom_bond_type
Cu0 N1 1.999 . S
Cu0 O6 1.974 . S
Cu0 N11 1.985 . S
Cu0 O20 1.959 1_554 S
N1 Cu0 1.999 . S
N1 C3 1.263 . S
N1 C5 1.389 1_554 S
N2 C3 1.358 . S
N2 C4 1.400 1_554 S
C3 N1 1.263 . S
C3 N2 1.358 . S
C3 H9 0.930 1_455 S
C4 N2 1.400 1_556 S
C4 C5 1.351 . S
C4 H21 0.930 . S
C5 N1 1.389 1_556 S
C5 C4 1.351 . S
C5 H10 0.930 . S
O6 Cu0 1.974 . S
O6 C16 1.282 . S
C7 O8 1.261 1_455 S
C7 O20 1.251 . S
O8 C7 1.261 1_655 S
H9 C3 0.930 1_655 S
H10 C5 0.930 . S
N11 Cu0 1.985 . S
N11 C13 1.335 1_554 S
N11 C14 1.390 . S
N12 C13 1.345 . S
N12 C15 1.336 1_556 S
C13 N11 1.335 1_556 S
C13 N12 1.345 . S
C13 H18 0.930 . S
C14 N11 1.390 . S
C14 C15 1.346 . S
C14 H19 0.930 . S
C15 N12 1.336 1_554 S
C15 C14 1.346 . S
C15 H22 0.929 . S
C16 O6 1.282 . S
C16 O17 1.216 1_455 S
O17 C16 1.216 1_655 S
H18 C13 0.930 . S
H19 C14 0.930 . S
O20 Cu0 1.959 1_556 S
O20 C7 1.251 . S
H21 C4 0.930 . S
H22 C15 0.929 . S
Cu23 N24 1.999 . S
Cu23 O29 1.974 . S
Cu23 N34 1.985 . S
Cu23 O43 1.959 1_554 S
N24 Cu23 1.999 . S
N24 C26 1.263 . S
N24 C28 1.389 1_554 S
N25 C26 1.358 . S
N25 C27 1.400 1_554 S
C26 N24 1.263 . S
C26 N25 1.358 . S
C26 H32 0.930 1_655 S
C27 N25 1.400 1_556 S
C27 C28 1.351 . S
C27 H44 0.930 . S
C28 N24 1.389 1_556 S
C28 C27 1.351 . S
C28 H33 0.930 . S
O29 Cu23 1.974 . S
O29 C39 1.282 . S
C30 O31 1.261 1_655 S
C30 O43 1.251 . S
O31 C30 1.261 1_455 S
H32 C26 0.930 1_455 S
H33 C28 0.930 . S
N34 Cu23 1.985 . S
N34 C36 1.335 1_554 S
N34 C37 1.390 . S
N35 C36 1.345 . S
N35 C38 1.336 1_556 S
C36 N34 1.335 1_556 S
C36 N35 1.345 . S
C36 H41 0.930 . S
C37 N34 1.390 . S
C37 C38 1.346 . S
C37 H42 0.930 . S
C38 N35 1.336 1_554 S
C38 C37 1.346 . S
C38 H45 0.929 . S
C39 O29 1.282 . S
C39 O40 1.216 1_655 S
O40 C39 1.216 1_455 S
H41 C36 0.930 . S
H42 C37 0.930 . S
O43 Cu23 1.959 1_556 S
O43 C30 1.251 . S
H44 C27 0.930 . S
H45 C38 0.929 . S
Cu46 N47 1.999 . S
Cu46 O52 1.974 . S
Cu46 N57 1.985 . S
Cu46 O66 1.959 . S
N47 Cu46 1.999 . S
N47 C49 1.263 . S
N47 C51 1.389 . S
N48 C49 1.358 . S
N48 C50 1.400 . S
C49 N47 1.263 . S
C49 N48 1.358 . S
C49 H55 0.927 1_455 S
C50 N48 1.400 . S
C50 C51 1.351 . S
C50 H67 0.930 . S
C51 N47 1.389 . S
C51 C50 1.351 . S
C51 H56 0.930 . S
O52 Cu46 1.974 . S
O52 C62 1.282 . S
C53 O54 1.261 1_455 S
C53 O66 1.251 . S
O54 C53 1.261 1_655 S
H55 C49 0.927 1_655 S
H56 C51 0.930 . S
N57 Cu46 1.985 . S
N57 C59 1.335 . S
N57 C60 1.390 . S
N58 C59 1.345 . S
N58 C61 1.336 . S
C59 N57 1.335 . S
C59 N58 1.345 . S
C59 H64 0.930 . S
C60 N57 1.390 . S
C60 C61 1.346 . S
C60 H65 0.930 . S
C61 N58 1.336 . S
C61 C60 1.346 . S
C61 H68 0.929 . S
C62 O52 1.282 . S
C62 O63 1.216 1_455 S
O63 C62 1.216 1_655 S
H64 C59 0.930 . S
H65 C60 0.930 . S
O66 Cu46 1.959 . S
O66 C53 1.251 . S
H67 C50 0.930 . S
H68 C61 0.929 . S
Cu69 N70 1.999 . S
Cu69 O75 1.974 . S
Cu69 N80 1.985 . S
Cu69 O89 1.959 . S
N70 Cu69 1.999 . S
N70 C72 1.263 . S
N70 C74 1.389 . S
N71 C72 1.358 . S
N71 C73 1.400 . S
C72 N70 1.263 . S
C72 N71 1.358 . S
C72 H78 0.927 1_655 S
C73 N71 1.400 . S
C73 C74 1.351 . S
C73 H90 0.930 . S
C74 N70 1.389 . S
C74 C73 1.351 . S
C74 H79 0.930 . S
O75 Cu69 1.974 . S
O75 C85 1.282 . S
C76 O77 1.261 1_655 S
C76 O89 1.251 . S
O77 C76 1.261 1_455 S
H78 C72 0.927 1_455 S
H79 C74 0.930 . S
N80 Cu69 1.985 . S
N80 C82 1.335 . S
N80 C83 1.390 . S
N81 C82 1.345 . S
N81 C84 1.336 . S
C82 N80 1.335 . S
C82 N81 1.345 . S
C82 H87 0.930 . S
C83 N80 1.390 . S
C83 C84 1.346 . S
C83 H88 0.930 . S
C84 N81 1.336 . S
C84 C83 1.346 . S
C84 H91 0.929 . S
C85 O75 1.282 . S
C85 O86 1.216 1_655 S
O86 C85 1.216 1_455 S
H87 C82 0.930 . S
H88 C83 0.930 . S
O89 Cu69 1.959 . S
O89 C76 1.251 . S
H90 C73 0.930 . S
H91 C84 0.929 . S
Cu92 N93 1.999 . S
Cu92 O98 1.974 . S
Cu92 N103 1.985 . S
Cu92 O112 1.959 1_554 S
N93 Cu92 1.999 . S
N93 C95 1.263 . S
N93 C97 1.389 1_554 S
N94 C95 1.358 . S
N94 C96 1.400 1_554 S
C95 N93 1.263 . S
C95 N94 1.358 . S
C95 H101 0.930 . S
C96 N94 1.400 1_556 S
C96 C97 1.351 . S
C96 H113 0.930 . S
C97 N93 1.389 1_556 S
C97 C96 1.351 . S
C97 H102 0.930 . S
O98 Cu92 1.974 . S
O98 C108 1.282 . S
C99 O100 1.261 . S
C99 O112 1.251 . S
O100 C99 1.261 . S
H101 C95 0.930 . S
H102 C97 0.930 . S
N103 Cu92 1.985 . S
N103 C105 1.335 1_554 S
N103 C106 1.390 . S
N104 C105 1.345 . S
N104 C107 1.336 1_556 S
C105 N103 1.335 1_556 S
C105 N104 1.345 . S
C105 H110 0.930 . S
C106 N103 1.390 . S
C106 C107 1.346 . S
C106 H111 0.930 . S
C107 N104 1.336 1_554 S
C107 C106 1.346 . S
C107 H114 0.929 . S
C108 O98 1.282 . S
C108 O109 1.216 . S
O109 C108 1.216 . S
H110 C105 0.930 . S
H111 C106 0.930 . S
O112 Cu92 1.959 1_556 S
O112 C99 1.251 . S
H113 C96 0.930 . S
H114 C107 0.929 . S
Cu115 N116 1.999 . S
Cu115 O121 1.974 . S
Cu115 N126 1.985 . S
Cu115 O135 1.959 1_554 S
N116 Cu115 1.999 . S
N116 C118 1.263 . S
N116 C120 1.389 1_554 S
N117 C118 1.358 . S
N117 C119 1.400 1_554 S
C118 N116 1.263 . S
C118 N117 1.358 . S
C118 H124 0.930 . S
C119 N117 1.400 1_556 S
C119 C120 1.351 . S
C119 H136 0.930 . S
C120 N116 1.389 1_556 S
C120 C119 1.351 . S
C120 H125 0.930 . S
O121 Cu115 1.974 . S
O121 C131 1.282 . S
C122 O123 1.261 . S
C122 O135 1.251 . S
O123 C122 1.261 . S
H124 C118 0.930 . S
H125 C120 0.930 . S
N126 Cu115 1.985 . S
N126 C128 1.335 1_554 S
N126 C129 1.390 . S
N127 C128 1.345 . S
N127 C130 1.336 1_556 S
C128 N126 1.335 1_556 S
C128 N127 1.345 . S
C128 H133 0.930 . S
C129 N126 1.390 . S
C129 C130 1.346 . S
C129 H134 0.930 . S
C130 N127 1.336 1_554 S
C130 C129 1.346 . S
C130 H137 0.929 . S
C131 O121 1.282 . S
C131 O132 1.216 . S
O132 C131 1.216 . S
H133 C128 0.930 . S
H134 C129 0.930 . S
O135 Cu115 1.959 1_556 S
O135 C122 1.251 . S
H136 C119 0.930 . S
H137 C130 0.929 . S
Cu138 N139 1.999 . S
Cu138 O144 1.974 . S
Cu138 N149 1.985 . S
Cu138 O158 1.959 . S
N139 Cu138 1.999 . S
N139 C141 1.263 . S
N139 C143 1.389 . S
N140 C141 1.358 . S
N140 C142 1.400 . S
C141 N139 1.263 . S
C141 N140 1.358 . S
C141 H147 0.930 . S
C142 N140 1.400 . S
C142 C143 1.351 . S
C142 H159 0.930 . S
C143 N139 1.389 . S
C143 C142 1.351 . S
C143 H148 0.930 . S
O144 Cu138 1.974 . S
O144 C154 1.282 . S
C145 O146 1.261 . S
C145 O158 1.251 . S
O146 C145 1.261 . S
H147 C141 0.930 . S
H148 C143 0.930 . S
N149 Cu138 1.985 . S
N149 C151 1.335 . S
N149 C152 1.390 . S
N150 C151 1.345 . S
N150 C153 1.336 . S
C151 N149 1.335 . S
C151 N150 1.345 . S
C151 H156 0.930 . S
C152 N149 1.390 . S
C152 C153 1.346 . S
C152 H157 0.930 . S
C153 N150 1.336 . S
C153 C152 1.346 . S
C153 H160 0.929 . S
C154 O144 1.282 . S
C154 O155 1.216 . S
O155 C154 1.216 . S
H156 C151 0.930 . S
H157 C152 0.930 . S
O158 Cu138 1.959 . S
O158 C145 1.251 . S
H159 C142 0.930 . S
H160 C153 0.929 . S
Cu161 N162 1.999 . S
Cu161 O167 1.974 . S
Cu161 N172 1.985 . S
Cu161 O181 1.959 . S
N162 Cu161 1.999 . S
N162 C164 1.263 . S
N162 C166 1.389 . S
N163 C164 1.358 . S
N163 C165 1.400 . S
C164 N162 1.263 . S
C164 N163 1.358 . S
C164 H170 0.930 . S
C165 N163 1.400 . S
C165 C166 1.351 . S
C165 H182 0.930 . S
C166 N162 1.389 . S
C166 C165 1.351 . S
C166 H171 0.930 . S
O167 Cu161 1.974 . S
O167 C177 1.282 . S
C168 O169 1.261 . S
C168 O181 1.251 . S
O169 C168 1.261 . S
H170 C164 0.930 . S
H171 C166 0.930 . S
N172 Cu161 1.985 . S
N172 C174 1.335 . S
N172 C175 1.390 . S
N173 C174 1.345 . S
N173 C176 1.336 . S
C174 N172 1.335 . S
C174 N173 1.345 . S
C174 H179 0.930 . S
C175 N172 1.390 . S
C175 C176 1.346 . S
C175 H180 0.930 . S
C176 N173 1.336 . S
C176 C175 1.346 . S
C176 H183 0.929 . S
C177 O167 1.282 . S
C177 O178 1.216 . S
O178 C177 1.216 . S
H179 C174 0.930 . S
H180 C175 0.930 . S
O181 Cu161 1.959 . S
O181 C168 1.251 . S
H182 C165 0.930 . S
H183 C176 0.929 . S
H184 C190 0.930 . S
H185 C194 0.930 . S
H186 C199 0.929 . S
H187 C197 0.929 . S
H188 C192 0.929 . S
H189 C198 0.929 . S
C190 H184 0.930 . S
C190 C191 1.367 1_556 S
C190 C198 1.378 . S
C191 C190 1.367 1_554 S
C191 C199 1.433 1_655 S
C192 H188 0.929 . S
C192 C194 1.378 . S
C192 C196 1.350 . S
C193 C196 1.463 1_665 S
C193 C198 1.350 1_554 S
C193 N201 1.427 1_655 S
C194 H185 0.930 . S
C194 C192 1.378 . S
C194 C195 1.367 . S
C195 C194 1.367 . S
C195 C197 1.433 1_454 S
C196 C192 1.350 . S
C196 C193 1.463 1_445 S
C196 N200 1.427 1_454 S
C197 H187 0.929 . S
C197 C195 1.433 1_656 S
C197 N200 1.384 . S
C198 H189 0.929 . S
C198 C190 1.378 . S
C198 C193 1.350 1_556 S
C199 H186 0.929 . S
C199 C191 1.433 1_455 S
C199 N201 1.384 . S
N200 C196 1.427 1_656 S
N200 C197 1.384 . S
N201 C193 1.427 1_455 S
N201 C199 1.384 . S
H202 C208 0.930 . S
H203 C212 0.930 . S
H204 C217 0.929 . S
H205 C215 0.929 . S
H206 C210 0.929 . S
H207 C216 0.929 . S
C208 H202 0.930 . S
C208 C209 1.367 1_655 S
C208 C216 1.378 . S
C209 C208 1.367 1_455 S
C209 C217 1.433 . S
C210 H206 0.929 . S
C210 C212 1.378 . S
C210 C214 1.350 1_455 S
C211 C214 1.463 1_465 S
C211 C216 1.350 1_455 S
C211 N219 1.427 . S
C212 H203 0.930 . S
C212 C210 1.378 . S
C212 C213 1.367 1_455 S
C213 C212 1.367 1_655 S
C213 C215 1.433 . S
C214 C210 1.350 1_655 S
C214 C211 1.463 1_645 S
C214 N218 1.427 . S
C215 H205 0.929 . S
C215 C213 1.433 . S
C215 N218 1.384 . S
C216 H207 0.929 . S
C216 C208 1.378 . S
C216 C211 1.350 1_655 S
C217 H204 0.929 . S
C217 C209 1.433 . S
C217 N219 1.384 . S
N218 C214 1.427 . S
N218 C215 1.384 . S
N219 C211 1.427 . S
N219 C217 1.384 . S
H220 C226 0.930 . S
H221 C230 0.930 . S
H222 C235 0.929 . S
H223 C233 0.929 . S
H224 C228 0.929 . S
H225 C234 0.929 . S
C226 H220 0.930 . S
C226 C227 1.367 . S
C226 C234 1.378 . S
C227 C226 1.367 . S
C227 C235 1.433 1_554 S
C228 H224 0.929 . S
C228 C230 1.378 . S
C228 C232 1.350 1_556 S
C229 C232 1.463 . S
C229 C234 1.350 . S
C229 N237 1.427 1_554 S
C230 H221 0.930 . S
C230 C228 1.378 . S
C230 C231 1.367 1_556 S
C231 C230 1.367 1_554 S
C231 C233 1.433 . S
C232 C228 1.350 1_554 S
C232 C229 1.463 . S
C232 N236 1.427 . S
C233 H223 0.929 . S
C233 C231 1.433 . S
C233 N236 1.384 . S
C234 H225 0.929 . S
C234 C226 1.378 . S
C234 C229 1.350 . S
C235 H222 0.929 . S
C235 C227 1.433 1_556 S
C235 N237 1.384 . S
N236 C232 1.427 . S
N236 C233 1.384 . S
N237 C229 1.427 1_556 S
N237 C235 1.384 . S
H238 C244 0.930 . S
H239 C248 0.930 . S
H240 C253 0.929 . S
H241 C251 0.929 . S
H242 C246 0.929 . S
H243 C252 0.929 . S
C244 H238 0.930 . S
C244 C245 1.367 . S
C244 C252 1.378 . S
C245 C244 1.367 . S
C245 C253 1.433 . S
C246 H242 0.929 . S
C246 C248 1.378 . S
C246 C250 1.350 . S
C247 C250 1.463 . S
C247 C252 1.350 . S
C247 N255 1.427 . S
C248 H239 0.930 . S
C248 C246 1.378 . S
C248 C249 1.367 . S
C249 C248 1.367 . S
C249 C251 1.433 . S
C250 C246 1.350 . S
C250 C247 1.463 . S
C250 N254 1.427 . S
C251 H241 0.929 . S
C251 C249 1.433 . S
C251 N254 1.384 . S
C252 H243 0.929 . S
C252 C244 1.378 . S
C252 C247 1.350 . S
C253 H240 0.929 . S
C253 C245 1.433 . S
C253 N255 1.384 . S
N254 C250 1.427 . S
N254 C251 1.384 . S
N255 C247 1.427 . S
N255 C253 1.384 . S
H256 C262 0.930 . S
H257 C266 0.930 . S
H258 C271 0.929 . S
H259 C269 0.929 . S
H260 C264 0.929 . S
H261 C270 0.929 . S
C262 H256 0.930 . S
C262 C263 1.367 1_655 S
C262 C270 1.378 . S
C263 C262 1.367 1_455 S
C263 C271 1.433 . S
C264 H260 0.929 . S
C264 C266 1.378 . S
C264 C268 1.344 1_455 S
C265 C268 1.463 . S
C265 C270 1.350 . S
C265 N273 1.427 1_655 S
C266 H257 0.930 . S
C266 C264 1.378 . S
C266 C267 1.367 1_455 S
C267 C266 1.367 1_655 S
C267 C269 1.433 . S
C268 C264 1.344 1_655 S
C268 C265 1.463 . S
C268 N272 1.434 . S
C269 H259 0.929 . S
C269 C267 1.433 . S
C269 N272 1.384 . S
C270 H261 0.929 . S
C270 C262 1.378 . S
C270 C265 1.350 . S
C271 H258 0.929 . S
C271 C263 1.433 . S
C271 N273 1.384 . S
N272 C268 1.434 . S
N272 C269 1.384 . S
N273 C265 1.427 1_455 S
N273 C271 1.384 . S
H274 C280 0.930 . S
H275 C284 0.930 . S
H276 C289 0.929 . S
H277 C287 0.929 . S
H278 C282 0.929 . S
H279 C288 0.929 . S
C280 H274 0.930 . S
C280 C281 1.367 1_655 S
C280 C288 1.378 . S
C281 C280 1.367 1_455 S
C281 C289 1.433 . S
C282 H278 0.929 . S
C282 C284 1.378 . S
C282 C286 1.350 . S
C283 C286 1.463 . S
C283 C288 1.350 1_455 S
C283 N291 1.427 . S
C284 H275 0.930 . S
C284 C282 1.378 . S
C284 C285 1.367 1_455 S
C285 C284 1.367 1_655 S
C285 C287 1.433 . S
C286 C282 1.350 . S
C286 C283 1.463 . S
C286 N290 1.427 1_455 S
C287 H277 0.929 . S
C287 C285 1.433 . S
C287 N290 1.384 . S
C288 H279 0.929 . S
C288 C280 1.378 . S
C288 C283 1.350 1_655 S
C289 H276 0.929 . S
C289 C281 1.433 . S
C289 N291 1.384 . S
N290 C286 1.427 1_655 S
N290 C287 1.384 . S
N291 C283 1.427 . S
N291 C289 1.384 . S
H292 C298 0.930 . S
H293 C302 0.930 . S
H294 C307 0.929 . S
H295 C305 0.929 . S
H296 C300 0.929 . S
H297 C306 0.929 . S
C298 H292 0.930 . S
C298 C299 1.367 1_655 S
C298 C306 1.378 . S
C299 C298 1.367 1_455 S
C299 C307 1.433 . S
C300 H296 0.929 . S
C300 C302 1.378 . S
C300 C304 1.350 1_455 S
C301 C304 1.463 1_455 S
C301 C306 1.350 1_455 S
C301 N309 1.427 . S
C302 H293 0.930 . S
C302 C300 1.378 . S
C302 C303 1.367 1_455 S
C303 C302 1.367 1_655 S
C303 C305 1.433 . S
C304 C300 1.350 1_655 S
C304 C301 1.463 1_655 S
C304 N308 1.427 . S
C305 H295 0.929 . S
C305 C303 1.433 . S
C305 N308 1.384 . S
C306 H297 0.929 . S
C306 C298 1.378 . S
C306 C301 1.350 1_655 S
C307 H294 0.929 . S
C307 C299 1.433 . S
C307 N309 1.384 . S
N308 C304 1.427 . S
N308 C305 1.384 . S
N309 C301 1.427 . S
N309 C307 1.384 . S
H310 C316 0.930 . S
H311 C320 0.930 . S
H312 C325 0.929 . S
H313 C323 0.929 . S
H314 C318 0.929 . S
H315 C324 0.929 . S
C316 H310 0.930 . S
C316 C317 1.367 . S
C316 C324 1.378 . S
C317 C316 1.367 . S
C317 C325 1.433 1_455 S
C318 H314 0.929 . S
C318 C320 1.378 . S
C318 C322 1.350 . S
C319 C322 1.463 1_455 S
C319 C324 1.350 . S
C319 N327 1.427 1_455 S
C320 H311 0.930 . S
C320 C318 1.378 . S
C320 C321 1.367 . S
C321 C320 1.367 . S
C321 C323 1.433 1_655 S
C322 C318 1.350 . S
C322 C319 1.463 1_655 S
C322 N326 1.427 1_655 S
C323 H313 0.929 . S
C323 C321 1.433 1_455 S
C323 N326 1.384 . S
C324 H315 0.929 . S
C324 C316 1.378 . S
C324 C319 1.350 . S
C325 H312 0.929 . S
C325 C317 1.433 1_655 S
C325 N327 1.384 . S
N326 C322 1.427 1_455 S
N326 C323 1.384 . S
N327 C319 1.427 1_655 S
N327 C325 1.384 . S
H328 C334 0.930 . S
H329 C338 0.930 . S
H330 C343 0.929 . S
H331 C341 0.929 . S
H332 C336 0.929 . S
H333 C342 0.929 . S
C334 H328 0.930 . S
C334 C335 1.367 . S
C334 C342 1.378 . S
C335 C334 1.367 . S
C335 C343 1.433 . S
C336 H332 0.929 . S
C336 C338 1.378 . S
C336 C340 1.350 . S
C337 C340 1.463 . S
C337 C342 1.350 . S
C337 N345 1.427 . S
C338 H329 0.930 . S
C338 C336 1.378 . S
C338 C339 1.367 . S
C339 C338 1.367 . S
C339 C341 1.433 . S
C340 C336 1.350 . S
C340 C337 1.463 . S
C340 N344 1.427 . S
C341 H331 0.929 . S
C341 C339 1.433 . S
C341 N344 1.384 . S
C342 H333 0.929 . S
C342 C334 1.378 . S
C342 C337 1.350 . S
C343 H330 0.929 . S
C343 C335 1.433 . S
C343 N345 1.384 . S
N344 C340 1.427 . S
N344 C341 1.384 . S
N345 C337 1.427 . S
N345 C343 1.384 . S
H346 C352 0.930 . S
H347 C356 0.930 . S
H348 C361 0.929 . S
H349 C359 0.929 . S
H350 C354 0.929 . S
H351 C360 0.929 . S
C352 H346 0.930 . S
C352 C353 1.367 . S
C352 C360 1.378 . S
C353 C352 1.367 . S
C353 C361 1.433 . S
C354 H350 0.929 . S
C354 C356 1.378 . S
C354 C358 1.350 . S
C355 C358 1.463 . S
C355 C360 1.350 . S
C355 N363 1.427 . S
C356 H347 0.930 . S
C356 C354 1.378 . S
C356 C357 1.367 . S
C357 C356 1.367 . S
C357 C359 1.433 . S
C358 C354 1.350 . S
C358 C355 1.463 . S
C358 N362 1.427 . S
C359 H349 0.929 . S
C359 C357 1.433 . S
C359 N362 1.384 . S
C360 H351 0.929 . S
C360 C352 1.378 . S
C360 C355 1.350 . S
C361 H348 0.929 . S
C361 C353 1.433 . S
C361 N363 1.384 . S
N362 C358 1.427 . S
N362 C359 1.384 . S
N363 C355 1.427 . S
N363 C361 1.384 . S
H364 C370 0.930 . S
H365 C374 0.930 . S
H366 C379 0.929 . S
H367 C377 0.929 . S
H368 C372 0.929 . S
H369 C378 0.929 . S
C370 H364 0.930 . S
C370 C371 1.367 . S
C370 C378 1.378 . S
C371 C370 1.367 . S
C371 C379 1.433 . S
C372 H368 0.929 . S
C372 C374 1.378 . S
C372 C376 1.350 . S
C373 C376 1.463 . S
C373 C378 1.350 . S
C373 N381 1.427 . S
C374 H365 0.930 . S
C374 C372 1.378 . S
C374 C375 1.367 . S
C375 C374 1.367 . S
C375 C377 1.433 . S
C376 C372 1.350 . S
C376 C373 1.463 . S
C376 N380 1.427 . S
C377 H367 0.929 . S
C377 C375 1.433 . S
C377 N380 1.384 . S
C378 H369 0.929 . S
C378 C370 1.378 . S
C378 C373 1.350 . S
C379 H366 0.929 . S
C379 C371 1.433 . S
C379 N381 1.384 . S
N380 C376 1.427 . S
N380 C377 1.384 . S
N381 C373 1.427 . S
N381 C379 1.384 . S
H382 C388 0.930 . S
H383 C392 0.930 . S
H384 C397 0.929 . S
H385 C395 0.929 . S
H386 C390 0.929 . S
H387 C396 0.929 . S
C388 H382 0.930 . S
C388 C389 1.367 . S
C388 C396 1.378 . S
C389 C388 1.367 . S
C389 C397 1.433 . S
C390 H386 0.929 . S
C390 C392 1.378 . S
C390 C394 1.350 . S
C391 C394 1.463 . S
C391 C396 1.350 . S
C391 N399 1.427 . S
C392 H383 0.930 . S
C392 C390 1.378 . S
C392 C393 1.367 . S
C393 C392 1.367 . S
C393 C395 1.433 . S
C394 C390 1.350 . S
C394 C391 1.463 . S
C394 N398 1.427 . S
C395 H385 0.929 . S
C395 C393 1.433 . S
C395 N398 1.384 . S
C396 H387 0.929 . S
C396 C388 1.378 . S
C396 C391 1.350 . S
C397 H384 0.929 . S
C397 C389 1.433 . S
C397 N399 1.384 . S
N398 C394 1.427 . S
N398 C395 1.384 . S
N399 C391 1.427 . S
N399 C397 1.384 . S
H400 C406 0.930 . S
H401 C410 0.930 . S
H402 C415 0.929 . S
H403 C413 0.929 . S
H404 C408 0.929 . S
H405 C414 0.929 . S
C406 H400 0.930 . S
C406 C407 1.367 . S
C406 C414 1.378 . S
C407 C406 1.367 . S
C407 C415 1.433 1_556 S
C408 H404 0.929 . S
C408 C410 1.378 . S
C408 C412 1.350 1_554 S
C409 C412 1.463 . S
C409 C414 1.350 . S
C409 N417 1.427 1_556 S
C410 H401 0.930 . S
C410 C408 1.378 . S
C410 C411 1.367 1_554 S
C411 C410 1.367 1_556 S
C411 C413 1.433 . S
C412 C408 1.350 1_556 S
C412 C409 1.463 . S
C412 N416 1.427 . S
C413 H403 0.929 . S
C413 C411 1.433 . S
C413 N416 1.384 . S
C414 H405 0.929 . S
C414 C406 1.378 . S
C414 C409 1.350 . S
C415 H402 0.929 . S
C415 C407 1.433 1_554 S
C415 N417 1.384 . S
N416 C412 1.427 . S
N416 C413 1.384 . S
N417 C409 1.427 1_554 S
N417 C415 1.384 . S
H418 C424 0.930 . S
H419 C428 0.939 . S
H420 C433 0.929 . S
H421 C431 0.929 . S
H422 C426 0.937 . S
H423 C432 0.929 . S
C424 H418 0.930 . S
C424 C425 1.367 . S
C424 C432 1.378 . S
C425 C424 1.367 . S
C425 C433 1.433 1_556 S
C426 H422 0.937 . S
C426 C428 1.378 . S
C426 C430 1.342 1_554 S
C427 C430 1.463 . S
C427 C432 1.350 . S
C427 N435 1.418 1_556 S
C428 H419 0.939 . S
C428 C426 1.378 . S
C428 C429 1.359 1_554 S
C429 C428 1.359 1_556 S
C429 C431 1.433 . S
C430 C426 1.342 1_556 S
C430 C427 1.463 . S
C430 N434 1.427 . S
C431 H421 0.929 . S
C431 C429 1.433 . S
C431 N434 1.384 . S
C432 H423 0.929 . S
C432 C424 1.378 . S
C432 C427 1.350 . S
C433 H420 0.929 . S
C433 C425 1.433 1_554 S
C433 N435 1.384 . S
N434 C430 1.427 . S
N434 C431 1.384 . S
N435 C427 1.418 1_554 S
N435 C433 1.384 . S
H436 C442 0.930 . S
H437 C446 0.930 . S
H438 C451 0.929 . S
H439 C449 0.929 . S
H440 C444 0.929 . S
H441 C450 0.929 . S
C442 H436 0.930 . S
C442 C443 1.367 . S
C442 C450 1.378 . S
C443 C442 1.367 . S
C443 C451 1.433 . S
C444 H440 0.929 . S
C444 C446 1.378 . S
C444 C448 1.350 . S
C445 C448 1.463 . S
C445 C450 1.350 . S
C445 N453 1.427 . S
C446 H437 0.930 . S
C446 C444 1.378 . S
C446 C447 1.367 . S
C447 C446 1.367 . S
C447 C449 1.433 . S
C448 C444 1.350 . S
C448 C445 1.463 . S
C448 N452 1.427 . S
C449 H439 0.929 . S
C449 C447 1.433 . S
C449 N452 1.384 . S
C450 H441 0.929 . S
C450 C442 1.378 . S
C450 C445 1.350 . S
C451 H438 0.929 . S
C451 C443 1.433 . S
C451 N453 1.384 . S
N452 C448 1.427 . S
N452 C449 1.384 . S
N453 C445 1.427 . S
N453 C451 1.384 . S
H454 C460 0.930 . S
H455 C464 0.930 . S
H456 C469 0.929 . S
H457 C467 0.929 . S
H458 C462 0.929 . S
H459 C468 0.929 . S
C460 H454 0.930 . S
C460 C461 1.367 . S
C460 C468 1.378 . S
C461 C460 1.367 . S
C461 C469 1.433 . S
C462 H458 0.929 . S
C462 C464 1.378 . S
C462 C466 1.350 . S
C463 C466 1.463 . S
C463 C468 1.350 . S
C463 N471 1.427 . S
C464 H455 0.930 . S
C464 C462 1.378 . S
C464 C465 1.367 . S
C465 C464 1.367 . S
C465 C467 1.433 . S
C466 C462 1.350 . S
C466 C463 1.463 . S
C466 N470 1.427 . S
C467 H457 0.929 . S
C467 C465 1.433 . S
C467 N470 1.384 . S
C468 H459 0.929 . S
C468 C460 1.378 . S
C468 C463 1.350 . S
C469 H456 0.929 . S
C469 C461 1.433 . S
C469 N471 1.384 . S
N470 C466 1.427 . S
N470 C467 1.384 . S
N471 C463 1.427 . S
N471 C469 1.384 . S
C191 N25 1.458 . S
C195 N2 1.469 . S
C209 N48 1.474 . S
C213 N71 1.463 . S
C227 N94 1.474 . S
C231 N117 1.464 . S
C245 N140 1.473 . S
C249 N163 1.464 . S
C263 C16 1.495 . S
C267 C85 1.497 . S
C281 C62 1.494 . S
C285 C39 1.500 . S
C299 C53 1.505 . S
C303 C30 1.511 . S
C317 C7 1.511 . S
C321 C76 1.506 . S
C335 C108 1.494 . S
C339 C177 1.500 . S
C353 C154 1.503 . S
C357 C131 1.497 . S
C371 C122 1.511 . S
C375 C145 1.508 . S
C389 C99 1.505 . S
C393 C168 1.509 . S
C407 N127 1.495 . S
C411 N12 1.481 . S
C425 N104 1.492 . S
C429 N35 1.486 . S
C443 N58 1.482 . S
C447 N173 1.494 . S
C461 N150 1.489 . S
C465 N81 1.484 . S
