# Generated by pormake.
# Topology unf, (4)-cn, num edge types: 1
# Building blocks:
#     Node 0, Type 0, BuildingBlock: NAHDIM_clean_sbu_0, # of connection points: 4
#     Node 1, Type 0, BuildingBlock: NAHDIM_clean_sbu_0, # of connection points: 4
#     Node 2, Type 0, BuildingBlock: NAHDIM_clean_sbu_0, # of connection points: 4
#     Node 3, Type 0, BuildingBlock: NAHDIM_clean_sbu_0, # of connection points: 4
#     Node 4, Type 0, BuildingBlock: NAHDIM_clean_sbu_0, # of connection points: 4
#     Node 5, Type 0, BuildingBlock: NAHDIM_clean_sbu_0, # of connection points: 4
#     Node 6, Type 0, BuildingBlock: NAHDIM_clean_sbu_0, # of connection points: 4
#     Node 7, Type 0, BuildingBlock: NAHDIM_clean_sbu_0, # of connection points: 4
#     Node 8, Type 0, BuildingBlock: NAHDIM_clean_sbu_0, # of connection points: 4
#     Node 9, Type 0, BuildingBlock: NAHDIM_clean_sbu_0, # of connection points: 4
#     Node 10, Type 0, BuildingBlock: NAHDIM_clean_sbu_0, # of connection points: 4
#     Node 11, Type 0, BuildingBlock: NAHDIM_clean_sbu_0, # of connection points: 4
#     Edge 12, Type (0, 0), BuildingBlock: ZUJKAS_clean_linker_0, # of connection points: 2
#     Edge 13, Type (0, 0), BuildingBlock: ZUJKAS_clean_linker_0, # of connection points: 2
#     Edge 14, Type (0, 0), BuildingBlock: ZUJKAS_clean_linker_0, # of connection points: 2
#     Edge 15, Type (0, 0), BuildingBlock: ZUJKAS_clean_linker_0, # of connection points: 2
#     Edge 16, Type (0, 0), BuildingBlock: ZUJKAS_clean_linker_0, # of connection points: 2
#     Edge 17, Type (0, 0), BuildingBlock: ZUJKAS_clean_linker_0, # of connection points: 2
#     Edge 18, Type (0, 0), BuildingBlock: ZUJKAS_clean_linker_0, # of connection points: 2
#     Edge 19, Type (0, 0), BuildingBlock: ZUJKAS_clean_linker_0, # of connection points: 2
#     Edge 20, Type (0, 0), BuildingBlock: ZUJKAS_clean_linker_0, # of connection points: 2
#     Edge 21, Type (0, 0), BuildingBlock: ZUJKAS_clean_linker_0, # of connection points: 2
#     Edge 22, Type (0, 0), BuildingBlock: ZUJKAS_clean_linker_0, # of connection points: 2
#     Edge 23, Type (0, 0), BuildingBlock: ZUJKAS_clean_linker_0, # of connection points: 2
#     Edge 24, Type (0, 0), BuildingBlock: ZUJKAS_clean_linker_0, # of connection points: 2
#     Edge 25, Type (0, 0), BuildingBlock: ZUJKAS_clean_linker_0, # of connection points: 2
#     Edge 26, Type (0, 0), BuildingBlock: ZUJKAS_clean_linker_0, # of connection points: 2
#     Edge 27, Type (0, 0), BuildingBlock: ZUJKAS_clean_linker_0, # of connection points: 2
#     Edge 28, Type (0, 0), BuildingBlock: ZUJKAS_clean_linker_0, # of connection points: 2
#     Edge 29, Type (0, 0), BuildingBlock: ZUJKAS_clean_linker_0, # of connection points: 2
#     Edge 30, Type (0, 0), BuildingBlock: ZUJKAS_clean_linker_0, # of connection points: 2
#     Edge 31, Type (0, 0), BuildingBlock: ZUJKAS_clean_linker_0, # of connection points: 2
#     Edge 32, Type (0, 0), BuildingBlock: ZUJKAS_clean_linker_0, # of connection points: 2
#     Edge 33, Type (0, 0), BuildingBlock: ZUJKAS_clean_linker_0, # of connection points: 2
#     Edge 34, Type (0, 0), BuildingBlock: ZUJKAS_clean_linker_0, # of connection points: 2
#     Edge 35, Type (0, 0), BuildingBlock: ZUJKAS_clean_linker_0, # of connection points: 2
# Relax obj value: 0.238
# Max RMSD: 0.179
# Mean RMSD: 0.179
data_MOF--net-unf--node1-NAHDIM_clean_sbu_0--edge1-ZUJKAS_clean_linker_0
_symmetry_space_group_name_H-M    P1
_symmetry_Int_Tables_number       1
_symmetry_cell_setting            triclinic
loop_
_symmetry_equiv_pos_as_xyz
'x, y, z'
_cell_length_a     47.99589
_cell_length_b     48.009738
_cell_length_c     48.677639
_cell_angle_alpha  89.964506
_cell_angle_beta   90.040902
_cell_angle_gamma 119.96876
loop_
_atom_site_label
_atom_site_type_symbol
_atom_site_fract_x
_atom_site_fract_y
_atom_site_fract_z
_atom_type_partial_charge
C0 C 0.07843 0.37297 0.14437 0.0
O1 O 0.08427 0.39829 0.12971 0.0
O2 O 0.02377 0.37247 0.09002 0.0
Zn3 Zn 0.03375 0.33776 0.10037 0.0
O4 O 0.06176 0.33523 0.07109 0.0
C5 C 0.96707 0.2911 0.11187 0.0
O6 O 0.96736 0.31483 0.12556 0.0
O7 O 0.05691 0.34527 0.13639 0.0
C8 C 0.05217 0.32887 0.04635 0.0
O9 O 0.0234 0.32381 0.03997 0.0
C10 C 0.04349 0.39623 0.07552 0.0
O11 O 0.07157 0.39929 0.06953 0.0
O12 O 0.99275 0.29547 0.10048 0.0
C13 C 0.61158 0.69689 0.14615 0.0
O14 O 0.58526 0.67662 0.13299 0.0
O15 O 0.60481 0.63558 0.09745 0.0
Zn16 Zn 0.64207 0.68039 0.10316 0.0
O17 O 0.64302 0.7074 0.07129 0.0
C18 C 0.68479 0.66165 0.08298 0.0
O19 O 0.65977 0.64559 0.06686 0.0
O20 O 0.63853 0.70121 0.13778 0.0
C21 C 0.66871 0.73236 0.06382 0.0
O22 O 0.69545 0.74105 0.07746 0.0
C23 C 0.58101 0.63138 0.0829 0.0
O24 O 0.57957 0.65659 0.07436 0.0
O25 O 0.68317 0.67891 0.10199 0.0
C26 C 0.27733 0.90453 0.13238 0.0
O27 O 0.2758 0.89163 0.10824 0.0
O28 O 0.34847 0.96709 0.08699 0.0
Zn29 Zn 0.30554 0.96052 0.09924 0.0
O30 O 0.27315 0.93562 0.06998 0.0
C31 C 0.33237 0.02936 0.09704 0.0
O32 O 0.35868 0.02896 0.0904 0.0
O33 O 0.29046 0.93494 0.13424 0.0
C34 C 0.27632 0.94472 0.0451 0.0
O35 O 0.30157 0.97206 0.03787 0.0
C36 C 0.35062 0.9467 0.07183 0.0
O37 O 0.32444 0.91968 0.06561 0.0
O38 O 0.3071 0.00306 0.10286 0.0
C39 C 0.61761 0.91456 0.35035 0.0
O40 O 0.59278 0.90786 0.36603 0.0
O41 O 0.6172 0.96751 0.40508 0.0
Zn42 Zn 0.65368 0.96095 0.39299 0.0
O43 O 0.66004 0.93491 0.42192 0.0
C44 C 0.69545 0.03009 0.3937 0.0
O45 O 0.66825 0.03022 0.39597 0.0
O46 O 0.6453 0.93712 0.35728 0.0
C47 C 0.66648 0.94482 0.44658 0.0
O48 O 0.66929 0.9727 0.453 0.0
C49 C 0.59489 0.94705 0.42039 0.0
O50 O 0.59422 0.92003 0.42636 0.0
O51 O 0.69479 0.00343 0.39106 0.0
C52 C 0.08782 0.7132 0.35861 0.0
O53 O 0.10148 0.71453 0.38234 0.0
O54 O 0.02521 0.6447 0.40606 0.0
Zn55 Zn 0.03306 0.6879 0.39325 0.0
O56 O 0.05963 0.72052 0.42184 0.0
C57 C 0.96439 0.66271 0.395 0.0
O58 O 0.96376 0.63554 0.40014 0.0
O59 O 0.05749 0.70132 0.35767 0.0
C60 C 0.04941 0.71989 0.44603 0.0
O61 O 0.02009 0.69756 0.45265 0.0
C62 C 0.04506 0.64228 0.42177 0.0
O63 O 0.07222 0.66824 0.4281 0.0
O64 O 0.9912 0.68786 0.39027 0.0
C65 C 0.29655 0.3822 0.34983 0.0
O66 O 0.31153 0.4069 0.36642 0.0
O67 O 0.36003 0.38926 0.39799 0.0
Zn68 Zn 0.31533 0.35229 0.39105 0.0
O69 O 0.28705 0.35104 0.42186 0.0
C70 C 0.32978 0.30874 0.41499 0.0
O71 O 0.34124 0.33255 0.43274 0.0
O72 O 0.29617 0.35618 0.35553 0.0
C73 C 0.25708 0.33112 0.42191 0.0
O74 O 0.24434 0.31102 0.40125 0.0
C75 C 0.36397 0.41241 0.41329 0.0
O76 O 0.33859 0.41344 0.42197 0.0
O77 O 0.31667 0.31123 0.39316 0.0
C78 C 0.90698 0.6196 0.85852 0.0
O79 O 0.89251 0.60743 0.88201 0.0
O80 O 0.966 0.61043 0.90809 0.0
Zn81 Zn 0.96083 0.6472 0.89431 0.0
O82 O 0.9349 0.65566 0.92185 0.0
C83 C 0.02965 0.68816 0.89913 0.0
O84 O 0.02831 0.66114 0.90633 0.0
O85 O 0.93744 0.63717 0.85818 0.0
C86 C 0.94288 0.66126 0.947 0.0
O87 O 0.96917 0.66182 0.95545 0.0
C88 C 0.94513 0.58841 0.92335 0.0
O89 O 0.91817 0.58812 0.92874 0.0
O90 O 0.00396 0.68769 0.89192 0.0
C91 C 0.3677 0.27297 0.86395 0.0
O92 O 0.37636 0.26905 0.8886 0.0
O93 O 0.37493 0.34391 0.91034 0.0
Zn94 Zn 0.33938 0.3017 0.89599 0.0
O95 O 0.32953 0.26848 0.9251 0.0
C96 C 0.29916 0.33064 0.89228 0.0
O97 O 0.32669 0.35757 0.8948 0.0
O98 O 0.3519 0.28762 0.86145 0.0
C99 C 0.32363 0.27264 0.94972 0.0
O100 O 0.32325 0.29902 0.95618 0.0
C101 C 0.39678 0.3451 0.92589 0.0
O102 O 0.39766 0.31864 0.93078 0.0
O103 O 0.2991 0.30419 0.89082 0.0
C104 C 0.72132 0.09302 0.86615 0.0
O105 O 0.72294 0.10706 0.88972 0.0
O106 O 0.6479 0.0277 0.91032 0.0
Zn107 Zn 0.69284 0.0381 0.90088 0.0
O108 O 0.72193 0.06498 0.93141 0.0
C109 C 0.67011 0.97028 0.89435 0.0
O110 O 0.64356 0.96936 0.88622 0.0
O111 O 0.70835 0.06257 0.86538 0.0
C112 C 0.7158 0.05584 0.95627 0.0
O113 O 0.69025 0.02804 0.96195 0.0
C114 C 0.64299 0.04805 0.92287 0.0
O115 O 0.66738 0.07693 0.92765 0.0
O116 O 0.69452 0.99722 0.90021 0.0
C117 C 0.37513 0.0854 0.63863 0.0
O118 O 0.38943 0.09899 0.61542 0.0
O119 O 0.37917 0.02261 0.59021 0.0
Zn120 Zn 0.34465 0.03194 0.6028 0.0
O121 O 0.34095 0.0603 0.57453 0.0
C122 C 0.29983 0.96356 0.60321 0.0
O123 O 0.32624 0.96174 0.60371 0.0
O124 O 0.35511 0.05539 0.63891 0.0
C125 C 0.32907 0.05031 0.55082 0.0
O126 O 0.31783 0.01995 0.54446 0.0
C127 C 0.40182 0.04231 0.57475 0.0
O128 O 0.40387 0.06995 0.56874 0.0
O129 O 0.30197 0.99101 0.60408 0.0
C130 C 0.90588 0.27906 0.63542 0.0
O131 O 0.892 0.2786 0.61202 0.0
O132 O 0.96666 0.3486 0.58811 0.0
Zn133 Zn 0.95964 0.30542 0.60001 0.0
O134 O 0.93321 0.2731 0.57121 0.0
C135 C 0.02856 0.3333 0.60265 0.0
O136 O 0.02796 0.35995 0.60726 0.0
O137 O 0.9362 0.29088 0.636 0.0
C138 C 0.94318 0.27593 0.54663 0.0
O139 O 0.97144 0.30035 0.5401 0.0
C140 C 0.94661 0.35115 0.57279 0.0
O141 O 0.91947 0.32521 0.56634 0.0
O142 O 0.00217 0.30693 0.60075 0.0
C143 C 0.72407 0.63045 0.63042 0.0
O144 O 0.72688 0.62075 0.60589 0.0
O145 O 0.65289 0.6222 0.58434 0.0
Zn146 Zn 0.69506 0.65836 0.59823 0.0
O147 O 0.7281 0.66814 0.56901 0.0
C148 C 0.66584 0.69841 0.59983 0.0
O149 O 0.63924 0.67095 0.5958 0.0
O150 O 0.70991 0.64673 0.63286 0.0
C151 C 0.72395 0.67432 0.54445 0.0
O152 O 0.69767 0.675 0.53814 0.0
C153 C 0.65183 0.60063 0.56854 0.0
O154 O 0.6785 0.60038 0.56307 0.0
O155 O 0.69217 0.69849 0.60297 0.0
H156 H 0.03947 0.31561 0.99149 0.0
H157 H 0.07465 0.31226 0.95674 0.0
H158 H 0.14782 0.33593 0.01826 0.0
H159 H 0.11296 0.33903 0.05305 0.0
H160 H 0.1376 0.35946 0.93992 0.0
H161 H 0.13529 0.25207 0.98415 0.0
H162 H 0.10641 0.2641 0.99347 0.0
H163 H 0.14567 0.2833 0.00905 0.0
C164 C 0.06303 0.32003 0.99762 0.0
C165 C 0.07332 0.32732 0.02508 0.0
C166 C 0.08307 0.31815 0.97773 0.0
C167 C 0.11355 0.32332 0.98508 0.0
C168 C 0.12409 0.33121 0.01232 0.0
H169 H 0.29097 0.38033 0.90907 0.0
H170 H 0.24132 0.37689 0.92519 0.0
C171 C 0.10416 0.3331 0.03215 0.0
C172 C 0.13478 0.32078 0.96447 0.0
H173 H 0.1787 0.28394 0.95332 0.0
C174 C 0.14625 0.34261 0.94249 0.0
C175 C 0.14541 0.29831 0.96754 0.0
C176 C 0.13231 0.27289 0.98966 0.0
C177 C 0.16973 0.3439 0.92449 0.0
C178 C 0.18233 0.32319 0.929 0.0
C179 C 0.16929 0.30003 0.94995 0.0
C180 C 0.21094 0.3268 0.91421 0.0
C181 C 0.18111 0.36773 0.90114 0.0
C182 C 0.21045 0.29989 0.90238 0.0
C183 C 0.23898 0.30165 0.89358 0.0
C184 C 0.26851 0.33038 0.89643 0.0
C185 C 0.26863 0.35786 0.90652 0.0
C186 C 0.24014 0.356 0.91555 0.0
H187 H 0.16185 0.37263 0.89437 0.0
H188 H 0.20175 0.39082 0.90821 0.0
H189 H 0.18894 0.359 0.88326 0.0
H190 H 0.1882 0.2771 0.90121 0.0
H191 H 0.23807 0.28009 0.88574 0.0
H192 H 0.71786 0.78966 0.04511 0.0
H193 H 0.71559 0.8235 0.00858 0.0
H194 H 0.6164 0.75292 0.99311 0.0
H195 H 0.61822 0.71914 0.02985 0.0
H196 H 0.69915 0.8115 0.95169 0.0
H197 H 0.61399 0.83543 0.01067 0.0
H198 H 0.63575 0.81788 0.02626 0.0
H199 H 0.60123 0.79376 0.00512 0.0
C200 C 0.6956 0.78125 0.03387 0.0
C201 C 0.6681 0.75192 0.04062 0.0
C202 C 0.69439 0.80055 0.01294 0.0
C203 C 0.66571 0.79086 -0.00154 0.0
C204 C 0.6386 0.76104 0.0044 0.0
H205 H 0.6194 0.90863 0.89252 0.0
H206 H 0.61728 0.86075 0.9123 0.0
C207 C 0.63972 0.74177 0.02537 0.0
C208 C 0.66383 0.81276 0.97814 0.0
H209 H 0.62947 0.85911 0.96706 0.0
C210 C 0.68376 0.82177 0.95489 0.0
C211 C 0.64365 0.82599 0.9824 0.0
C212 C 0.6226 0.81805 0.00754 0.0
C213 C 0.68434 0.84409 0.9359 0.0
C214 C 0.66485 0.858 0.94061 0.0
C215 C 0.64423 0.84821 0.96341 0.0
C216 C 0.66751 0.88498 0.92389 0.0
C217 C 0.70592 0.8527 0.9111 0.0
C218 C 0.69664 0.91424 0.92328 0.0
C219 C 0.69794 0.94161 0.91203 0.0
C220 C 0.67003 0.94027 0.90141 0.0
C221 C 0.64131 0.91049 0.90058 0.0
C222 C 0.64003 0.8831 0.91187 0.0
H223 H 0.71079 0.83305 0.90571 0.0
H224 H 0.69516 0.85792 0.89302 0.0
H225 H 0.7293 0.87447 0.91575 0.0
H226 H 0.71797 0.91642 0.93294 0.0
H227 H 0.72047 0.96415 0.91296 0.0
H228 H 0.22287 0.88651 0.05385 0.0
H229 H 0.18442 0.85056 0.01994 0.0
H230 H 0.23659 0.91895 0.95574 0.0
H231 H 0.27577 0.9552 0.98968 0.0
H232 H 0.14542 0.86206 0.98424 0.0
H233 H 0.22969 0.83437 0.92793 0.0
H234 H 0.23907 0.85312 0.96137 0.0
H235 H 0.24122 0.87606 0.93152 0.0
C236 C 0.22626 0.89404 0.03254 0.0
C237 C 0.25247 0.92369 0.02444 0.0
C238 C 0.20421 0.87345 0.01319 0.0
C239 C 0.20787 0.88198 0.98533 0.0
C240 C 0.23366 0.91176 0.97711 0.0
H241 H 0.04183 0.74845 0.88484 0.0
H242 H 0.08763 0.79982 0.89934 0.0
C243 C 0.25588 0.93247 0.99654 0.0
C244 C 0.18437 0.85919 0.9653 0.0
H245 H 0.17531 0.80585 0.91494 0.0
C246 C 0.15191 0.85008 0.96874 0.0
C247 C 0.1931 0.84363 0.94527 0.0
C248 C 0.2276 0.85202 0.94126 0.0
C249 C 0.12766 0.82462 0.95369 0.0
C250 C 0.13627 0.80838 0.93417 0.0
C251 C 0.16888 0.81853 0.92978 0.0
C252 C 0.11163 0.77831 0.92092 0.0
C253 C 0.093 0.81405 0.96016 0.0
C254 C 0.11101 0.7494 0.9268 0.0
C255 C 0.08519 0.72011 0.91824 0.0
C256 C 0.05939 0.7192 0.90379 0.0
C257 C 0.06114 0.74834 0.89628 0.0
C258 C 0.0872 0.7777 0.90463 0.0
H259 H 0.09057 0.82515 0.97937 0.0
H260 H 0.0826 0.82128 0.94312 0.0
H261 H 0.07861 0.78751 0.96234 0.0
H262 H 0.12972 0.74936 0.93925 0.0
H263 H 0.08471 0.69814 0.92422 0.0
H264 H 0.71575 0.7594 0.60864 0.0
H265 H 0.71926 0.80966 0.59362 0.0
H266 H 0.62111 0.75688 0.56505 0.0
H267 H 0.61711 0.70685 0.5807 0.0
H268 H 0.7157 0.82186 0.54166 0.0
H269 H 0.62217 0.83415 0.59692 0.0
H270 H 0.63555 0.8069 0.6082 0.0
H271 H 0.60523 0.79495 0.58189 0.0
C272 C 0.69463 0.75862 0.59986 0.0
C273 C 0.66623 0.72911 0.59565 0.0
C274 C 0.69667 0.78737 0.59131 0.0
C275 C 0.67038 0.78713 0.5784 0.0
C276 C 0.64147 0.75786 0.57557 0.0
H277 H 0.66208 0.88642 0.43963 0.0
H278 H 0.66651 0.8525 0.47462 0.0
C279 C 0.6393 0.72916 0.58434 0.0
C280 C 0.6745 0.81626 0.56416 0.0
H281 H 0.63719 0.85974 0.55183 0.0
C282 C 0.69894 0.83059 0.54437 0.0
C283 C 0.65297 0.82804 0.56785 0.0
C284 C 0.62776 0.81539 0.59011 0.0
C285 C 0.7011 0.85482 0.52696 0.0
C286 C 0.67778 0.86448 0.529 0.0
C287 C 0.65471 0.85185 0.55001 0.0
C288 C 0.67542 0.88558 0.5081 0.0
C289 C 0.72786 0.86927 0.50605 0.0
C290 C 0.67818 0.91509 0.51547 0.0
C291 C 0.67552 0.93457 0.49546 0.0
C292 C 0.66978 0.92465 0.46783 0.0
C293 C 0.66672 0.8949 0.46066 0.0
C294 C 0.66941 0.87553 0.48061 0.0
H295 H 0.74889 0.86719 0.51275 0.0
H296 H 0.7191 0.85614 0.48633 0.0
H297 H 0.73588 0.89502 0.50236 0.0
H298 H 0.68257 0.92309 0.53665 0.0
H299 H 0.67783 0.9573 0.50166 0.0
H300 H 0.11251 0.76516 0.43964 0.0
H301 H 0.14849 0.80384 0.47344 0.0
H302 H 0.07135 0.76753 0.53261 0.0
H303 H 0.03505 0.7281 0.4989 0.0
H304 H 0.14217 0.85157 0.49924 0.0
H305 H 0.14463 0.76594 0.57496 0.0
H306 H 0.1294 0.75405 0.54049 0.0
H307 H 0.10555 0.7596 0.56594 0.0
C308 C 0.1031 0.76527 0.45984 0.0
C309 C 0.07091 0.74351 0.4666 0.0
C310 C 0.12373 0.78741 0.47914 0.0
C311 C 0.11266 0.78831 0.50559 0.0
C312 C 0.08049 0.76682 0.51245 0.0
H313 H 0.24017 0.95781 0.60406 0.0
H314 H 0.19032 0.91347 0.58548 0.0
C315 C 0.05977 0.74447 0.49312 0.0
C316 C 0.13502 0.81246 0.52546 0.0
H317 H 0.17612 0.82116 0.5851 0.0
C318 C 0.14937 0.84501 0.51818 0.0
C319 C 0.14442 0.80366 0.55002 0.0
C320 C 0.13045 0.76893 0.55835 0.0
C321 C 0.17374 0.86901 0.53426 0.0
C322 C 0.18342 0.86025 0.55872 0.0
C323 C 0.16838 0.82776 0.56648 0.0
C324 C 0.21135 0.88419 0.5748 0.0
C325 C 0.19006 0.90332 0.52408 0.0
C326 C 0.23905 0.88145 0.57658 0.0
C327 C 0.26744 0.9065 0.58753 0.0
C328 C 0.26859 0.93481 0.59672 0.0
C329 C 0.24015 0.93648 0.59678 0.0
C330 C 0.21169 0.91124 0.58608 0.0
H331 H 0.18443 0.90484 0.50217 0.0
H332 H 0.1817 0.91717 0.5364 0.0
H333 H 0.21657 0.91496 0.52633 0.0
H334 H 0.23923 0.86066 0.56812 0.0
H335 H 0.28886 0.90437 0.58733 0.0
H336 H 0.0379 0.28288 0.59102 0.0
H337 H 0.08394 0.28538 0.56745 0.0
H338 H 0.13329 0.38896 0.5704 0.0
H339 H 0.08722 0.38677 0.59387 0.0
H340 H 0.12447 0.36324 0.51753 0.0
H341 H 0.17688 0.30937 0.58649 0.0
H342 H 0.13389 0.28592 0.58337 0.0
H343 H 0.15196 0.32507 0.59893 0.0
C344 C 0.05887 0.30621 0.58734 0.0
C345 C 0.05875 0.33465 0.59403 0.0
C346 C 0.08527 0.30757 0.57402 0.0
C347 C 0.11204 0.33734 0.56731 0.0
C348 C 0.11286 0.36575 0.57553 0.0
H349 H 0.27677 0.366 0.46943 0.0
H350 H 0.24297 0.3681 0.50608 0.0
C351 C 0.08651 0.36443 0.58896 0.0
C352 C 0.13666 0.33874 0.54824 0.0
H353 H 0.19046 0.31277 0.53869 0.0
C354 C 0.13922 0.35259 0.5223 0.0
C355 C 0.15581 0.32483 0.55453 0.0
C356 C 0.15479 0.3107 0.58244 0.0
C357 C 0.15966 0.35195 0.50212 0.0
C358 C 0.17777 0.33684 0.50801 0.0
C359 C 0.17617 0.324 0.53424 0.0
C360 C 0.19814 0.3339 0.48684 0.0
C361 C 0.16153 0.36711 0.47451 0.0
C362 C 0.18396 0.31357 0.46421 0.0
C363 C 0.20312 0.31222 0.44327 0.0
C364 C 0.23679 0.33131 0.44463 0.0
C365 C 0.2509 0.35113 0.4677 0.0
C366 C 0.23169 0.3523 0.4887 0.0
H367 H 0.15106 0.38317 0.47506 0.0
H368 H 0.18687 0.3812 0.46746 0.0
H369 H 0.14797 0.3479 0.45917 0.0
H370 H 0.15803 0.29905 0.46261 0.0
H371 H 0.19153 0.29664 0.42584 0.0
H372 H 0.74429 0.69999 0.10593 0.0
H373 H 0.79516 0.70342 0.09239 0.0
H374 H 0.74448 0.62749 0.0334 0.0
H375 H 0.69377 0.62369 0.04683 0.0
H376 H 0.79315 0.623 0.06477 0.0
H377 H 0.83628 0.74309 0.01658 0.0
H378 H 0.82421 0.73832 0.05205 0.0
H379 H 0.7947 0.71717 0.02591 0.0
C380 C 0.74397 0.68375 0.09033 0.0
C381 C 0.71507 0.66178 0.07724 0.0
C382 C 0.77303 0.68584 0.08258 0.0
C383 C 0.77352 0.66595 0.0617 0.0
C384 C 0.74455 0.64306 0.04954 0.0
H385 H 0.88933 0.66494 0.9352 0.0
H386 H 0.85275 0.66915 0.96743 0.0
C387 C 0.71561 0.64103 0.05718 0.0
C388 C 0.80409 0.66997 0.05094 0.0
H389 H 0.86685 0.71812 0.00893 0.0
C390 C 0.80972 0.64404 0.05303 0.0
C391 C 0.82538 0.69741 0.03549 0.0
C392 C 0.81995 0.7256 0.03212 0.0
C393 C 0.83532 0.6442 0.03898 0.0
C394 C 0.8558 0.6711 0.02265 0.0
C395 C 0.8511 0.69765 0.02163 0.0
C396 C 0.87942 0.67034 0.00368 0.0
C397 C 0.83912 0.61487 0.0403 0.0
C398 C 0.90677 0.67006 0.01346 0.0
C399 C 0.92785 0.66767 0.99503 0.0
C400 C 0.92178 0.66548 0.9666 0.0
C401 C 0.89467 0.66646 0.95696 0.0
C402 C 0.87377 0.66895 0.97533 0.0
H403 H 0.81895 0.5946 0.05138 0.0
H404 H 0.84057 0.60676 0.01925 0.0
H405 H 0.86186 0.62104 0.05109 0.0
H406 H 0.91163 0.67142 0.0353 0.0
H407 H 0.94858 0.66706 0.00308 0.0
H408 H 0.32212 0.21565 0.94248 0.0
H409 H 0.3175 0.17744 0.97761 0.0
H410 H 0.31056 0.23707 0.04036 0.0
H411 H 0.31555 0.27592 0.00517 0.0
H412 H 0.35467 0.21738 0.05281 0.0
H413 H 0.23865 0.11356 0.02115 0.0
H414 H 0.26572 0.13002 0.99262 0.0
H415 H 0.25174 0.15405 0.00967 0.0
C416 C 0.31931 0.22059 0.9637 0.0
C417 C 0.3191 0.24879 0.97102 0.0
C418 C 0.31645 0.19859 0.98374 0.0
C419 C 0.3131 0.20416 0.0115 0.0
C420 C 0.31283 0.23223 0.01898 0.0
H421 H 0.28265 0.03941 0.11036 0.0
H422 H 0.27679 0.08548 0.09746 0.0
C423 C 0.31564 0.25434 -0.00113 0.0
C424 C 0.31183 0.18131 0.03252 0.0
H425 H 0.27456 0.10111 0.04636 0.0
C426 C 0.33677 0.19203 0.05188 0.0
C427 C 0.28805 0.14842 0.03174 0.0
C428 C 0.25934 0.1359 0.01286 0.0
C429 C 0.33999 0.17023 0.06896 0.0
C430 C 0.31808 0.13692 0.06612 0.0
C431 C 0.29167 0.12659 0.04834 0.0
C432 C 0.32385 0.11214 0.07872 0.0
C433 C 0.3673 0.1831 0.08936 0.0
C434 C 0.35253 0.11213 0.07306 0.0
C435 C 0.35604 0.086 0.08059 0.0
C436 C 0.33069 0.05908 0.09348 0.0
C437 C 0.30257 0.05974 0.10033 0.0
C438 C 0.29919 0.08606 0.093 0.0
H439 H 0.37331 0.20741 0.09663 0.0
H440 H 0.36141 0.16696 0.10741 0.0
H441 H 0.38903 0.18537 0.07921 0.0
H442 H 0.37156 0.1315 0.0614 0.0
H443 H 0.37797 0.08623 0.07491 0.0
H444 H 0.90638 0.27519 0.12878 0.0
H445 H 0.85555 0.2287 0.11414 0.0
H446 H 0.90799 0.19364 0.06732 0.0
H447 H 0.95855 0.23926 0.08226 0.0
H448 H 0.83599 0.21784 0.06236 0.0
H449 H 0.8391 0.11119 0.09997 0.0
H450 H 0.86549 0.15097 0.11341 0.0
H451 H 0.87587 0.13754 0.08249 0.0
C452 C 0.90706 0.25714 0.11592 0.0
C453 C 0.9365 0.26103 0.10654 0.0
C454 C 0.878 0.23059 0.1076 0.0
C455 C 0.87794 0.20744 0.08993 0.0
C456 C 0.90736 0.21065 0.08154 0.0
H457 H 0.77015 0.11424 0.95095 0.0
H458 H 0.80467 0.14927 0.98738 0.0
C459 C 0.93633 0.23702 0.0899 0.0
C460 C 0.84771 0.18253 0.07705 0.0
H461 H 0.80857 0.1037 0.05762 0.0
C462 C 0.82952 0.19273 0.0619 0.0
C463 C 0.83883 0.14964 0.07676 0.0
C464 C 0.8557 0.13669 0.09432 0.0
C465 C 0.8044 0.17146 0.04476 0.0
C466 C 0.79779 0.13939 0.04229 0.0
C467 C 0.81413 0.1285 0.05913 0.0
C468 C 0.7763 0.11784 0.02055 0.0
C469 C 0.78583 0.18382 0.0288 0.0
C470 C 0.74944 0.08804 0.0271 0.0
C471 C 0.72971 0.06772 0.00622 0.0
C472 C 0.73673 0.07685 0.97849 0.0
C473 C 0.76393 0.10654 0.97208 0.0
C474 C 0.78357 0.12674 0.9929 0.0
H475 H 0.78601 0.20433 0.03953 0.0
H476 H 0.79729 0.19253 0.00842 0.0
H477 H 0.76049 0.16465 0.02554 0.0
H478 H 0.74365 0.08063 0.04834 0.0
H479 H 0.70897 0.04495 0.01182 0.0
H480 H 0.30057 0.03698 0.49996 0.0
H481 H 0.30088 0.07555 0.46661 0.0
H482 H 0.3576 0.15334 0.52245 0.0
H483 H 0.35748 0.11534 0.5557 0.0
H484 H 0.27808 0.12025 0.47628 0.0
H485 H 0.40717 0.18228 0.44867 0.0
H486 H 0.38677 0.1428 0.46419 0.0
H487 H 0.40049 0.17817 0.4851 0.0
C488 C 0.31323 0.06233 0.50504 0.0
C489 C 0.32903 0.07312 0.53045 0.0
C490 C 0.3134 0.08426 0.48598 0.0
C491 C 0.32974 0.11725 0.49194 0.0
C492 C 0.34541 0.12801 0.51727 0.0
H493 H 0.35886 0.29844 0.45861 0.0
H494 H 0.35798 0.24891 0.47118 0.0
C495 C 0.34509 0.1062 0.53633 0.0
C496 C 0.32931 0.14076 0.4726 0.0
H497 H 0.37951 0.21194 0.441 0.0
C498 C 0.30007 0.13992 0.4679 0.0
C499 C 0.35807 0.16618 0.46166 0.0
C500 C 0.38987 0.16731 0.46491 0.0
C501 C 0.29922 0.16535 0.45444 0.0
C502 C 0.32834 0.1919 0.4452 0.0
C503 C 0.35725 0.19159 0.44823 0.0
C504 C 0.32997 0.22201 0.43596 0.0
C505 C 0.26758 0.16475 0.45192 0.0
C506 C 0.31491 0.22339 0.41169 0.0
C507 C 0.31531 0.25181 0.40441 0.0
C508 C 0.3308 0.27916 0.42133 0.0
C509 C 0.34657 0.2778 0.44519 0.0
C510 C 0.34619 0.24953 0.45238 0.0
H511 H 0.24791 0.14424 0.46322 0.0
H512 H 0.26988 0.18747 0.45991 0.0
H513 H 0.26066 0.16265 0.42995 0.0
H514 H 0.30262 0.20246 0.39859 0.0
H515 H 0.30305 0.25218 0.38584 0.0
H516 H 0.88363 0.22364 0.55379 0.0
H517 H 0.84946 0.18477 0.51928 0.0
H518 H 0.92179 0.23539 0.45744 0.0
H519 H 0.95628 0.27488 0.49194 0.0
H520 H 0.85914 0.21887 0.44087 0.0
H521 H 0.86215 0.1141 0.48471 0.0
H522 H 0.85157 0.13449 0.5099 0.0
H523 H 0.89078 0.15498 0.49425 0.0
C524 C 0.89243 0.22651 0.53291 0.0
C525 C 0.92277 0.25226 0.52564 0.0
C526 C 0.87291 0.20415 0.51324 0.0
C527 C 0.88338 0.20692 0.48597 0.0
C528 C 0.91346 0.23276 0.47847 0.0
H529 H 0.75605 0.03915 0.38741 0.0
H530 H 0.8065 0.08529 0.40284 0.0
C531 C 0.9331 0.25522 0.4982 0.0
C532 C 0.86217 0.18309 0.46538 0.0
H533 H 0.8177 0.10231 0.45475 0.0
C534 C 0.85046 0.19339 0.44352 0.0
C535 C 0.85149 0.15 0.46853 0.0
C536 C 0.86492 0.13775 0.49045 0.0
C537 C 0.82659 0.17116 0.42583 0.0
C538 C 0.81381 0.13788 0.43056 0.0
C539 C 0.8272 0.1278 0.45126 0.0
C540 C 0.78468 0.11297 0.41629 0.0
C541 C 0.81495 0.18355 0.40261 0.0
C542 C 0.75577 0.11354 0.41807 0.0
C543 C 0.72696 0.08733 0.40908 0.0
C544 C 0.72644 0.05982 0.39859 0.0
C545 C 0.75563 0.05993 0.39555 0.0
C546 C 0.78449 0.08629 0.40432 0.0
H547 H 0.83425 0.20749 0.39551 0.0
H548 H 0.80655 0.16675 0.38488 0.0
H549 H 0.79464 0.18642 0.40996 0.0
H550 H 0.75513 0.13346 0.42787 0.0
H551 H 0.70489 0.08797 0.41181 0.0
H552 H 0.90697 0.61746 0.41653 0.0
H553 H 0.86246 0.62482 0.43064 0.0
H554 H 0.9107 0.72066 0.39665 0.0
H555 H 0.95603 0.71383 0.38322 0.0
H556 H 0.89494 0.72198 0.44764 0.0
H557 H 0.78773 0.62598 0.39608 0.0
H558 H 0.8089 0.609 0.41309 0.0
H559 H 0.82801 0.63716 0.38534 0.0
C560 C 0.90783 0.63985 0.41144 0.0
C561 C 0.93516 0.66517 0.39897 0.0
C562 C 0.88215 0.64392 0.41931 0.0
C563 C 0.88297 0.67314 0.41438 0.0
C564 C 0.90947 0.69785 0.40054 0.0
H565 H 0.72088 0.68344 0.48914 0.0
H566 H 0.75951 0.68837 0.45379 0.0
C567 C 0.93536 0.69391 0.39291 0.0
C568 C 0.85857 0.67929 0.42728 0.0
H569 H 0.77815 0.64396 0.44038 0.0
C570 C 0.86936 0.70534 0.4455 0.0
C571 C 0.82514 0.65801 0.42422 0.0
C572 C 0.81183 0.63122 0.40335 0.0
C573 C 0.84782 0.70918 0.46228 0.0
C574 C 0.81475 0.68594 0.46126 0.0
C575 C 0.80363 0.66142 0.4415 0.0
C576 C 0.79206 0.68474 0.4824 0.0
C577 C 0.86082 0.73753 0.48157 0.0
C578 C 0.79749 0.68078 0.51008 0.0
C579 C 0.77562 0.67797 0.53021 0.0
C580 C 0.74768 0.67881 0.52306 0.0
C581 C 0.74226 0.68286 0.49531 0.0
C582 C 0.76424 0.68564 0.4751 0.0
H583 H 0.88335 0.75813 0.47345 0.0
H584 H 0.84303 0.74552 0.48508 0.0
H585 H 0.86655 0.73057 0.50163 0.0
H586 H 0.81841 0.67922 0.51607 0.0
H587 H 0.78045 0.67468 0.55136 0.0
H588 H 0.25436 0.33264 0.31721 0.0
H589 H 0.2192 0.33413 0.28169 0.0
H590 H 0.26028 0.43618 0.29412 0.0
H591 H 0.29507 0.43479 0.3302 0.0
H592 H 0.1951 0.40497 0.29385 0.0
H593 H 0.23849 0.36706 0.20379 0.0
H594 H 0.22726 0.3393 0.23187 0.0
H595 H 0.26057 0.37958 0.23568 0.0
C596 C 0.25627 0.35551 0.31214 0.0
C597 C 0.27755 0.38362 0.3265 0.0
C598 C 0.23624 0.35634 0.29172 0.0
C599 C 0.23745 0.38535 0.28498 0.0
C600 C 0.25907 0.41356 0.29894 0.0
H601 H 0.12672 0.42825 0.16716 0.0
H602 H 0.16511 0.43279 0.20254 0.0
C603 C 0.27897 0.41272 0.3195 0.0
C604 C 0.21481 0.38584 0.26454 0.0
H605 H 0.18786 0.36493 0.1987 0.0
C606 C 0.19376 0.39657 0.27295 0.0
C607 C 0.21314 0.37491 0.23727 0.0
C608 C 0.2363 0.36487 0.22652 0.0
C609 C 0.17041 0.39572 0.25504 0.0
C610 C 0.16822 0.38394 0.2281 0.0
C611 C 0.18955 0.37372 0.21951 0.0
C612 C 0.14359 0.38148 0.20852 0.0
C613 C 0.14767 0.40657 0.26515 0.0
C614 C 0.11872 0.35115 0.20047 0.0
C615 C 0.0967 0.34844 0.18042 0.0
C616 C 0.09943 0.37608 0.16782 0.0
C617 C 0.12394 0.40651 0.17647 0.0
C618 C 0.14586 0.40918 0.19669 0.0
H619 H 0.1495 0.41066 0.2877 0.0
H620 H 0.15332 0.4294 0.25479 0.0
H621 H 0.12247 0.38843 0.25993 0.0
H622 H 0.11669 0.32953 0.20941 0.0
H623 H 0.07815 0.32463 0.17423 0.0
H624 H 0.5581 0.69315 0.16976 0.0
H625 H 0.55622 0.72973 0.2038 0.0
H626 H 0.65983 0.78282 0.20686 0.0
H627 H 0.66206 0.7465 0.1729 0.0
H628 H 0.5861 0.74676 0.25886 0.0
H629 H 0.63139 0.85011 0.18668 0.0
H630 H 0.61456 0.80905 0.17513 0.0
H631 H 0.6548 0.83036 0.18848 0.0
C632 C 0.5805 0.71247 0.17781 0.0
C633 C 0.61024 0.71705 0.16849 0.0
C634 C 0.57935 0.73331 0.19722 0.0
C635 C 0.60788 0.75918 0.20741 0.0
C636 C 0.63757 0.76324 0.19885 0.0
H637 H 0.66531 0.91755 0.31772 0.0
H638 H 0.66047 0.87938 0.28234 0.0
C639 C 0.63876 0.74235 0.17957 0.0
C640 C 0.60674 0.78222 0.22682 0.0
H641 H 0.62706 0.86087 0.23352 0.0
C642 C 0.59478 0.77166 0.25335 0.0
C643 C 0.61811 0.81459 0.2194 0.0
C644 C 0.63023 0.82678 0.19081 0.0
C645 C 0.59492 0.79303 0.27309 0.0
C646 C 0.60663 0.82557 0.26577 0.0
C647 C 0.61805 0.83592 0.23904 0.0
C648 C 0.6088 0.84962 0.28596 0.0
C649 C 0.58368 0.78085 0.30186 0.0
C650 C 0.58121 0.84606 0.29913 0.0
C651 C 0.58389 0.86778 0.31951 0.0
C652 C 0.61421 0.89359 0.32683 0.0
C653 C 0.6416 0.89788 0.31266 0.0
C654 C 0.6389 0.87609 0.29243 0.0
H655 H 0.58285 0.75764 0.30574 0.0
H656 H 0.59968 0.79861 0.31738 0.0
H657 H 0.55906 0.77697 0.30478 0.0
H658 H 0.55766 0.82622 0.29395 0.0
H659 H 0.5623 0.86396 0.32988 0.0
H660 H 0.24262 0.83901 0.13354 0.0
H661 H 0.21163 0.80464 0.17183 0.0
H662 H 0.24458 0.88807 0.22371 0.0
H663 H 0.27524 0.92283 0.1853 0.0
H664 H 0.22903 0.79544 0.22369 0.0
H665 H 0.1468 0.84533 0.22897 0.0
H666 H 0.17386 0.85323 0.20055 0.0
H667 H 0.18859 0.87501 0.23223 0.0
C668 C 0.24346 0.8501 0.15312 0.0
C669 C 0.26113 0.8837 0.1563 0.0
C670 C 0.22574 0.83039 0.17498 0.0
C671 C 0.22535 0.84388 0.20041 0.0
C672 C 0.24402 0.87728 0.20403 0.0
H673 H 0.15334 0.746 0.35539 0.0
H674 H 0.18647 0.77553 0.31606 0.0
C675 C 0.26167 0.89707 0.18212 0.0
C676 C 0.20476 0.82295 0.22286 0.0
H677 H 0.14185 0.80913 0.26432 0.0
C678 C 0.20991 0.79835 0.23257 0.0
C679 C 0.17947 0.82646 0.23399 0.0
C680 C 0.17156 0.85121 0.22326 0.0
C681 C 0.19077 0.77749 0.25354 0.0
C682 C 0.16626 0.78177 0.26535 0.0
C683 C 0.16079 0.80603 0.25531 0.0
C684 C 0.14627 0.76181 0.2885 0.0
C685 C 0.19665 0.75077 0.26252 0.0
C686 C 0.11263 0.74453 0.28614 0.0
C687 C 0.09356 0.72786 0.30869 0.0
C688 C 0.10784 0.7283 0.33403 0.0
C689 C 0.14157 0.74503 0.33613 0.0
C690 C 0.1606 0.76178 0.31361 0.0
H691 H 0.20933 0.74496 0.24641 0.0
H692 H 0.212 0.75847 0.28118 0.0
H693 H 0.17373 0.72862 0.26757 0.0
H694 H 0.10112 0.74438 0.26693 0.0
H695 H 0.06765 0.71521 0.3064 0.0
H696 H 0.84158 0.58752 0.85375 0.0
H697 H 0.80979 0.58546 0.81386 0.0
H698 H 0.89672 0.64049 0.76692 0.0
H699 H 0.92886 0.64319 0.80694 0.0
H700 H 0.85622 0.6652 0.76435 0.0
H701 H 0.78892 0.53435 0.74278 0.0
H702 H 0.78544 0.54403 0.77776 0.0
H703 H 0.82399 0.55271 0.76465 0.0
C704 C 0.85398 0.59882 0.83485 0.0
C705 C 0.88778 0.61558 0.83354 0.0
C706 C 0.83573 0.59744 0.81201 0.0
C707 C 0.85088 0.61248 0.78735 0.0
C708 C 0.88457 0.6286 0.78575 0.0
H709 H 0.75931 0.60011 0.63088 0.0
H710 H 0.78935 0.59521 0.66927 0.0
C711 C 0.90289 0.63008 0.80862 0.0
C712 C 0.83168 0.61344 0.76393 0.0
H713 H 0.77015 0.56617 0.72044 0.0
C714 C 0.83753 0.64356 0.75463 0.0
C715 C 0.8075 0.58518 0.75118 0.0
C716 C 0.80124 0.55224 0.7594 0.0
C717 C 0.81949 0.6462 0.73317 0.0
C718 C 0.7945 0.61792 0.72109 0.0
C719 C 0.78903 0.58779 0.73004 0.0
C720 C 0.77455 0.61922 0.69849 0.0
C721 C 0.8277 0.67927 0.72333 0.0
C722 C 0.7556 0.63362 0.70242 0.0
C723 C 0.73846 0.6366 0.68047 0.0
C724 C 0.73983 0.62499 0.65429 0.0
C725 C 0.75784 0.60945 0.65074 0.0
C726 C 0.77501 0.60657 0.67266 0.0
H727 H 0.85225 0.69789 0.72982 0.0
H728 H 0.82615 0.6799 0.70059 0.0
H729 H 0.81033 0.68565 0.73221 0.0
H730 H 0.7544 0.64293 0.72238 0.0
H731 H 0.72463 0.64848 0.68392 0.0
H732 H 0.39561 0.23548 0.86362 0.0
H733 H 0.40126 0.20662 0.82479 0.0
H734 H 0.35941 0.24734 0.77107 0.0
H735 H 0.35301 0.27589 0.81001 0.0
H736 H 0.33114 0.18243 0.76578 0.0
H737 H 0.46364 0.23733 0.76081 0.0
H738 H 0.44759 0.22214 0.79429 0.0
H739 H 0.44426 0.25499 0.78014 0.0
C740 C 0.38797 0.23868 0.84349 0.0
C741 C 0.3738 0.25796 0.83991 0.0
C742 C 0.39143 0.2223 0.82127 0.0
C743 C 0.38117 0.22518 0.79498 0.0
C744 C 0.36763 0.24493 0.7912 0.0
H745 H 0.41148 0.1507 0.64275 0.0
H746 H 0.41371 0.1844 0.68119 0.0
C747 C 0.36402 0.26124 0.81345 0.0
C748 C 0.38238 0.20573 0.77191 0.0
H749 H 0.4328 0.18874 0.73541 0.0
C750 C 0.35339 0.18395 0.75901 0.0
C751 C 0.41147 0.20795 0.763 0.0
C752 C 0.44355 0.23209 0.77509 0.0
C753 C 0.35261 0.16394 0.73771 0.0
C754 C 0.38152 0.16525 0.72953 0.0
C755 C 0.41061 0.18745 0.74205 0.0
C756 C 0.3821 0.14453 0.7073 0.0
C757 C 0.3209 0.14197 0.72387 0.0
C758 C 0.36437 0.11091 0.70961 0.0
C759 C 0.3629 0.09152 0.68761 0.0
C760 C 0.37938 0.10549 0.66303 0.0
C761 C 0.39837 0.13916 0.66134 0.0
C762 C 0.39971 0.15849 0.68329 0.0
H763 H 0.30298 0.14977 0.72761 0.0
H764 H 0.32403 0.14105 0.70135 0.0
H765 H 0.31095 0.11729 0.73219 0.0
H766 H 0.3512 0.09967 0.72824 0.0
H767 H 0.34828 0.06566 0.68965 0.0
H768 H 0.7564 0.15843 0.86268 0.0
H769 H 0.78513 0.19086 0.82279 0.0
H770 H 0.74964 0.10491 0.77378 0.0
H771 H 0.72129 0.07211 0.81382 0.0
H772 H 0.81418 0.14418 0.76865 0.0
H773 H 0.75234 0.21463 0.75513 0.0
H774 H 0.76763 0.21728 0.78925 0.0
H775 H 0.73635 0.17921 0.77651 0.0
C776 C 0.75436 0.14639 0.84335 0.0
C777 C 0.73657 0.11267 0.84142 0.0
C778 C 0.77066 0.16502 0.82052 0.0
C779 C 0.76913 0.15033 0.79524 0.0
C780 C 0.75098 0.11671 0.7931 0.0
H781 H 0.8404 0.24623 0.63897 0.0
H782 H 0.80747 0.21567 0.67809 0.0
C783 C 0.73479 0.09802 0.81598 0.0
C784 C 0.7882 0.1699 0.77154 0.0
H785 H 0.80158 0.23315 0.73059 0.0
C786 C 0.8113 0.16351 0.7602 0.0
C787 C 0.78418 0.1949 0.76043 0.0
C788 C 0.75856 0.20175 0.77076 0.0
C789 C 0.83086 0.18176 0.7383 0.0
C790 C 0.82773 0.20759 0.72791 0.0
C791 C 0.80424 0.21364 0.73891 0.0
C792 C 0.84789 0.22786 0.70497 0.0
C793 C 0.8543 0.17284 0.72619 0.0
C794 C 0.88151 0.24556 0.70739 0.0
C795 C 0.90046 0.26294 0.68501 0.0
C796 C 0.88604 0.26314 0.65991 0.0
C797 C 0.85229 0.24648 0.65797 0.0
C798 C 0.8334 0.22901 0.6803 0.0
H799 H 0.84783 0.14781 0.73152 0.0
H800 H 0.8553 0.17525 0.70347 0.0
H801 H 0.87869 0.1892 0.73448 0.0
H802 H 0.89311 0.24558 0.72649 0.0
H803 H 0.92638 0.27574 0.68723 0.0
H804 H 0.98561 0.3941 0.08051 0.0
H805 H 0.96727 0.42593 0.05495 0.0
H806 H 0.05996 0.47844 0.01575 0.0
H807 H 0.07849 0.44671 0.04099 0.0
H808 H 0.99351 0.49445 0.05175 0.0
H809 H 0.99504 0.44036 0.9513 0.0
H810 H 0.99641 0.4228 0.98374 0.0
H811 H 0.03201 0.45688 0.97034 0.0
C812 C 0.0022 0.41262 0.06664 0.0
C813 C 0.03343 0.41769 0.06259 0.0
C814 C 0.99166 0.43073 0.05205 0.0
C815 C 0.01209 0.45403 0.03312 0.0
C816 C 0.04366 0.46008 0.02989 0.0
H817 H 0.00062 0.58576 0.92003 0.0
H818 H 0.01515 0.55183 0.94682 0.0
C819 C 0.05424 0.44205 0.04446 0.0
C820 C 0.00027 0.47167 0.01634 0.0
H821 H 0.98609 0.48469 0.95015 0.0
C822 C 0.99166 0.49221 0.02956 0.0
C823 C -0.00214 0.46854 0.98742 0.0
C824 C 0.00553 0.44575 0.9723 0.0
C825 C 0.98158 0.51054 0.01449 0.0
C826 C 0.9795 0.50767 0.98552 0.0
C827 C 0.98774 0.48681 0.97236 0.0
C828 C 0.96977 0.52687 0.96843 0.0
C829 C 0.97419 0.53352 0.02961 0.0
C830 C 0.9391 0.5234 0.97119 0.0
C831 C 0.9307 0.54276 0.95592 0.0
C832 C 0.95279 0.56579 0.93751 0.0
C833 C 0.98306 0.56832 0.93407 0.0
C834 C 0.99144 0.54899 0.94937 0.0
H835 H 0.98416 0.53839 0.05079 0.0
H836 H 0.98404 0.55672 0.01844 0.0
H837 H 0.94773 0.52289 0.03112 0.0
H838 H 0.92179 0.50595 0.98536 0.0
H839 H 0.90712 0.54007 0.95893 0.0
H840 H 0.529 0.61468 0.04994 0.0
H841 H 0.49641 0.56361 0.02629 0.0
H842 H 0.54884 0.52412 0.06696 0.0
H843 H 0.58195 0.57535 0.09052 0.0
H844 H 0.54679 0.51774 0.01005 0.0
H845 H 0.42475 0.4758 0.05192 0.0
H846 H 0.4442 0.51646 0.03958 0.0
H847 H 0.46075 0.50639 0.06855 0.0
C848 C 0.53323 0.59497 0.05429 0.0
C849 C 0.55815 0.59912 0.07204 0.0
C850 C 0.51445 0.56573 0.04085 0.0
C851 C 0.52005 0.54004 0.04507 0.0
C852 C 0.54409 0.54367 0.06354 0.0
H853 H 0.44359 0.35484 0.96298 0.0
H854 H 0.47482 0.4022 0.99176 0.0
C855 C 0.56291 0.57293 0.07703 0.0
C856 C 0.5028 0.51051 0.02833 0.0
H857 H 0.42787 0.45008 0.01099 0.0
C858 C 0.52081 0.5027 0.01045 0.0
C859 C 0.46893 0.49113 0.02884 0.0
C860 C 0.44851 0.49764 0.04844 0.0
C861 C 0.50576 0.47647 0.99245 0.0
C862 C 0.47187 0.45739 0.99267 0.0
C863 C 0.45387 0.46493 0.01081 0.0
C864 C 0.45449 0.42951 0.97416 0.0
C865 C 0.52613 0.46995 0.97278 0.0
C866 C 0.4327 0.42923 0.95479 0.0
C867 C 0.41477 0.40221 0.93835 0.0
C868 C 0.41816 0.37489 0.94116 0.0
C869 C 0.44052 0.37554 0.96021 0.0
C870 C 0.45846 0.4026 0.97663 0.0
H871 H 0.55075 0.491 0.97076 0.0
H872 H 0.5283 0.44937 0.9805 0.0
H873 H 0.51484 0.46354 0.95211 0.0
H874 H 0.4293 0.4498 0.95265 0.0
H875 H 0.3977 0.40247 0.92394 0.0
H876 H 0.36315 0.90957 0.03713 0.0
H877 H 0.41305 0.92525 0.01217 0.0
H878 H 0.45745 0.01841 0.051 0.0
H879 H 0.40792 0.00286 0.07634 0.0
H880 H 0.4424 0.97591 0.97534 0.0
H881 H 0.52489 0.99133 0.06126 0.0
H882 H 0.48171 0.97011 0.06513 0.0
H883 H 0.50404 0.01334 0.06574 0.0
C884 C 0.38368 0.93322 0.04069 0.0
C885 C 0.38158 0.95495 0.05875 0.0
C886 C 0.41213 0.94215 0.02636 0.0
C887 C 0.439 0.97284 0.02996 0.0
C888 C 0.43718 0.99438 0.04834 0.0
H889 H 0.6262 0.08354 0.95553 0.0
H890 H 0.57544 0.06499 0.97994 0.0
C891 C 0.40879 0.98547 0.06272 0.0
C892 C 0.46828 0.98309 0.01327 0.0
H893 H 0.54912 0.01219 0.01776 0.0
C894 C 0.46571 0.9836 0.98456 0.0
C895 C 0.4986 0.99314 0.02543 0.0
C896 C 0.50253 0.9917 0.05607 0.0
C897 C 0.49288 0.99465 0.96767 0.0
C898 C 0.52323 0.0051 0.97986 0.0
C899 C 0.52577 0.00433 0.00854 0.0
C900 C 0.55278 0.01681 0.96329 0.0
C901 C 0.48907 0.99579 0.93699 0.0
C902 C 0.5566 0.99588 0.94565 0.0
C903 C 0.58556 0.00638 0.93165 0.0
C904 C 0.6112 0.03797 0.93518 0.0
C905 C 0.60692 0.0591 0.95231 0.0
C906 C 0.57799 0.04854 0.96634 0.0
H907 H 0.4657 0.99384 0.93143 0.0
H908 H 0.50884 0.01845 0.92825 0.0
H909 H 0.49011 0.97541 0.92731 0.0
H910 H 0.53755 0.97116 0.94335 0.0
H911 H 0.58813 0.98947 0.91869 0.0
H912 H 0.59295 0.00287 0.41601 0.0
H913 H 0.55948 0.01837 0.44238 0.0
H914 H 0.51322 0.92591 0.48246 0.0
H915 H 0.54632 0.90999 0.45603 0.0
H916 H 0.47065 0.94765 0.46502 0.0
H917 H 0.574 0.04023 0.52509 0.0
H918 H 0.57882 0.04428 0.48845 0.0
H919 H 0.57636 0.00975 0.50519 0.0
C920 C 0.57546 0.98569 0.43024 0.0
C921 C 0.57247 0.95528 0.43408 0.0
C922 C 0.55652 0.99469 0.44541 0.0
C923 C 0.5344 0.9735 0.46472 0.0
C924 C 0.53038 0.94266 0.46779 0.0
H925 H 0.40126 0.98518 0.57934 0.0
H926 H 0.43384 0.96807 0.55351 0.0
C927 C 0.5493 0.93363 0.45265 0.0
C928 C 0.51581 0.98367 0.48207 0.0
H929 H 0.52388 0.03784 0.53128 0.0
C930 C 0.48221 0.96726 0.47961 0.0
C931 C 0.53107 0.00921 0.50109 0.0
C932 C 0.56702 0.02676 0.50538 0.0
C933 C 0.46342 0.97624 0.49526 0.0
C934 C 0.47871 0.00189 0.51419 0.0
C935 C 0.5123 0.01818 0.51675 0.0
C936 C 0.46028 0.01272 0.53105 0.0
C937 C 0.42749 0.95876 0.4909 0.0
C938 C 0.4653 0.04391 0.52773 0.0
C939 C 0.44695 0.05386 0.54258 0.0
C940 C 0.42331 0.0328 0.56112 0.0
C941 C 0.41916 0.00193 0.56513 0.0
C942 C 0.43757 0.99201 0.55025 0.0
H943 H 0.4205 0.94507 0.47131 0.0
H944 H 0.4156 0.94145 0.50796 0.0
H945 H 0.41826 0.97586 0.49081 0.0
H946 H 0.48292 0.06031 0.51314 0.0
H947 H 0.45083 0.07782 0.53906 0.0
H948 H 0.91134 0.36393 0.53606 0.0
H949 H 0.92859 0.41378 0.51052 0.0
H950 H 0.01909 0.45841 0.55381 0.0
H951 H 0.00229 0.40859 0.57926 0.0
H952 H 0.94903 0.47695 0.52899 0.0
H953 H 0.04547 0.46933 0.4723 0.0
H954 H 0.01424 0.43572 0.49097 0.0
H955 H 0.04768 0.46747 0.50904 0.0
C956 C 0.93483 0.3844 0.54032 0.0
C957 C 0.95556 0.38221 0.55953 0.0
C958 C 0.94463 0.41284 0.52569 0.0
C959 C 0.97532 0.43948 0.52992 0.0
C960 C 0.99557 0.43784 0.54985 0.0
H961 H 0.08022 0.62977 0.4588 0.0
H962 H 0.06301 0.58005 0.48454 0.0
C963 C 0.98582 0.40942 0.5645 0.0
C964 C 0.98627 0.46884 0.51321 0.0
H965 H 0.04264 0.5168 0.46612 0.0
C966 C 0.96942 0.48565 0.51516 0.0
C967 C 0.01285 0.48 0.49521 0.0
C968 C 0.031 0.46209 0.49148 0.0
C969 C 0.97882 0.51375 0.4999 0.0
C970 C 0.0054 0.5249 0.48189 0.0
C971 C 0.02226 0.50811 0.47995 0.0
C972 C 0.01629 0.55422 0.46513 0.0
C973 C 0.96068 0.53166 0.50362 0.0
C974 C 0.99602 0.55576 0.44516 0.0
C975 C 0.00576 0.58411 0.43041 0.0
C976 C 0.03601 0.61134 0.43531 0.0
C977 C 0.05673 0.60927 0.4546 0.0
C978 C 0.04695 0.58091 0.46934 0.0
H979 H 0.9462 0.52443 0.5228 0.0
H980 H 0.97743 0.55803 0.50413 0.0
H981 H 0.94399 0.52627 0.48605 0.0
H982 H 0.97252 0.53515 0.44123 0.0
H983 H 0.98929 0.58485 0.41559 0.0
H984 H 0.42053 0.4127 0.40476 0.0
H985 H 0.47161 0.44536 0.42876 0.0
H986 H 0.4308 0.49476 0.47225 0.0
H987 H 0.37986 0.46264 0.44816 0.0
H988 H 0.49415 0.53537 0.45339 0.0
H989 H 0.4822 0.42941 0.51027 0.0
H990 H 0.48032 0.42575 0.47349 0.0
H991 H 0.44918 0.42842 0.49166 0.0
C992 C 0.42255 0.43081 0.41915 0.0
C993 C 0.39603 0.43486 0.42476 0.0
C994 C 0.45166 0.44926 0.43298 0.0
C995 C 0.45467 0.47192 0.45267 0.0
C996 C 0.42883 0.47718 0.45726 0.0
H997 H 0.59391 0.59852 0.57154 0.0
H998 H 0.54632 0.5666 0.54316 0.0
C999 C 0.39974 0.45879 0.44346 0.0
C1000 C 0.48428 0.48947 0.46927 0.0
H1001 H 0.52946 0.4791 0.51806 0.0
C1002 C 0.50194 0.52311 0.4675 0.0
C1003 C 0.49425 0.47331 0.48767 0.0
C1004 C 0.47542 0.43725 0.49116 0.0
C1005 C 0.52948 0.54109 0.4836 0.0
C1006 C 0.5392 0.52496 0.50225 0.0
C1007 C 0.52182 0.49131 0.50375 0.0
C1008 C 0.56722 0.54272 0.52057 0.0
C1009 C 0.54816 0.57717 0.48033 0.0
C1010 C 0.59416 0.53882 0.51798 0.0
C1011 C 0.62134 0.55686 0.53428 0.0
C1012 C 0.62191 0.57898 0.55353 0.0
C1013 C 0.59432 0.58182 0.55682 0.0
C1014 C 0.56719 0.56379 0.5405 0.0
H1015 H 0.54238 0.58494 0.46067 0.0
H1016 H 0.54192 0.58839 0.49739 0.0
H1017 H 0.57446 0.58635 0.48113 0.0
H1018 H 0.59446 0.52243 0.50285 0.0
H1019 H 0.64214 0.55403 0.53129 0.0
loop_
_geom_bond_atom_site_label_1
_geom_bond_atom_site_label_2
_geom_bond_distance
_geom_bond_site_symmetry_2
_ccdc_geom_bond_type
C0 O1 1.160 . S
C0 O7 1.185 . S
O1 C0 1.160 . S
O2 Zn3 1.899 . S
O2 C10 1.284 . S
Zn3 O2 1.899 . S
Zn3 O4 2.032 . S
Zn3 O7 2.086 . S
Zn3 O12 1.977 . S
O4 Zn3 2.032 . S
O4 C8 1.278 . S
C5 O6 1.203 . S
C5 O12 1.267 1_655 S
O6 C5 1.203 . S
O7 C0 1.185 . S
O7 Zn3 2.086 . S
C8 O4 1.278 . S
C8 O9 1.211 . S
O9 C8 1.211 . S
C10 O2 1.284 . S
C10 O11 1.273 . S
O11 C10 1.273 . S
O12 Zn3 1.977 . S
O12 C5 1.267 1_455 S
C13 O14 1.160 . S
C13 O20 1.185 . S
O14 C13 1.160 . S
O15 Zn16 1.899 . S
O15 C23 1.284 . S
Zn16 O15 1.899 . S
Zn16 O17 2.032 . S
Zn16 O20 2.086 . S
Zn16 O25 1.977 . S
O17 Zn16 2.032 . S
O17 C21 1.278 . S
C18 O19 1.203 . S
C18 O25 1.267 . S
O19 C18 1.203 . S
O20 C13 1.185 . S
O20 Zn16 2.086 . S
C21 O17 1.278 . S
C21 O22 1.211 . S
O22 C21 1.211 . S
C23 O15 1.284 . S
C23 O24 1.273 . S
O24 C23 1.273 . S
O25 Zn16 1.977 . S
O25 C18 1.267 . S
C26 O27 1.160 . S
C26 O33 1.185 . S
O27 C26 1.160 . S
O28 Zn29 1.899 . S
O28 C36 1.284 . S
Zn29 O28 1.899 . S
Zn29 O30 2.032 . S
Zn29 O33 2.086 . S
Zn29 O38 1.977 . S
O30 Zn29 2.032 . S
O30 C34 1.278 . S
C31 O32 1.203 . S
C31 O38 1.267 1_545 S
O32 C31 1.203 . S
O33 C26 1.185 . S
O33 Zn29 2.086 . S
C34 O30 1.278 . S
C34 O35 1.211 . S
O35 C34 1.211 . S
C36 O28 1.284 . S
C36 O37 1.273 . S
O37 C36 1.273 . S
O38 Zn29 1.977 . S
O38 C31 1.267 1_565 S
C39 O40 1.160 . S
C39 O46 1.185 . S
O40 C39 1.160 . S
O41 Zn42 1.899 . S
O41 C49 1.284 . S
Zn42 O41 1.899 . S
Zn42 O43 2.032 . S
Zn42 O46 2.086 . S
Zn42 O51 1.977 . S
O43 Zn42 2.032 . S
O43 C47 1.278 . S
C44 O45 1.203 . S
C44 O51 1.267 1_545 S
O45 C44 1.203 . S
O46 C39 1.185 . S
O46 Zn42 2.086 . S
C47 O43 1.278 . S
C47 O48 1.211 . S
O48 C47 1.211 . S
C49 O41 1.284 . S
C49 O50 1.273 . S
O50 C49 1.273 . S
O51 Zn42 1.977 . S
O51 C44 1.267 1_565 S
C52 O53 1.160 . S
C52 O59 1.185 . S
O53 C52 1.160 . S
O54 Zn55 1.899 . S
O54 C62 1.284 . S
Zn55 O54 1.899 . S
Zn55 O56 2.032 . S
Zn55 O59 2.086 . S
Zn55 O64 1.977 . S
O56 Zn55 2.032 . S
O56 C60 1.278 . S
C57 O58 1.203 . S
C57 O64 1.267 1_655 S
O58 C57 1.203 . S
O59 C52 1.185 . S
O59 Zn55 2.086 . S
C60 O56 1.278 . S
C60 O61 1.211 . S
O61 C60 1.211 . S
C62 O54 1.284 . S
C62 O63 1.273 . S
O63 C62 1.273 . S
O64 Zn55 1.977 . S
O64 C57 1.267 1_455 S
C65 O66 1.160 . S
C65 O72 1.185 . S
O66 C65 1.160 . S
O67 Zn68 1.899 . S
O67 C75 1.284 . S
Zn68 O67 1.899 . S
Zn68 O69 2.032 . S
Zn68 O72 2.086 . S
Zn68 O77 1.977 . S
O69 Zn68 2.032 . S
O69 C73 1.278 . S
C70 O71 1.203 . S
C70 O77 1.267 . S
O71 C70 1.203 . S
O72 C65 1.185 . S
O72 Zn68 2.086 . S
C73 O69 1.278 . S
C73 O74 1.211 . S
O74 C73 1.211 . S
C75 O67 1.284 . S
C75 O76 1.273 . S
O76 C75 1.273 . S
O77 Zn68 1.977 . S
O77 C70 1.267 . S
C78 O79 1.160 . S
C78 O85 1.185 . S
O79 C78 1.160 . S
O80 Zn81 1.899 . S
O80 C88 1.284 . S
Zn81 O80 1.899 . S
Zn81 O82 2.032 . S
Zn81 O85 2.086 . S
Zn81 O90 1.977 . S
O82 Zn81 2.032 . S
O82 C86 1.278 . S
C83 O84 1.203 . S
C83 O90 1.267 1_455 S
O84 C83 1.203 . S
O85 C78 1.185 . S
O85 Zn81 2.086 . S
C86 O82 1.278 . S
C86 O87 1.211 . S
O87 C86 1.211 . S
C88 O80 1.284 . S
C88 O89 1.273 . S
O89 C88 1.273 . S
O90 Zn81 1.977 . S
O90 C83 1.267 1_655 S
C91 O92 1.160 . S
C91 O98 1.185 . S
O92 C91 1.160 . S
O93 Zn94 1.899 . S
O93 C101 1.284 . S
Zn94 O93 1.899 . S
Zn94 O95 2.032 . S
Zn94 O98 2.086 . S
Zn94 O103 1.977 . S
O95 Zn94 2.032 . S
O95 C99 1.278 . S
C96 O97 1.203 . S
C96 O103 1.267 . S
O97 C96 1.203 . S
O98 C91 1.185 . S
O98 Zn94 2.086 . S
C99 O95 1.278 . S
C99 O100 1.211 . S
O100 C99 1.211 . S
C101 O93 1.284 . S
C101 O102 1.273 . S
O102 C101 1.273 . S
O103 Zn94 1.977 . S
O103 C96 1.267 . S
C104 O105 1.160 . S
C104 O111 1.185 . S
O105 C104 1.160 . S
O106 Zn107 1.899 . S
O106 C114 1.284 . S
Zn107 O106 1.899 . S
Zn107 O108 2.032 . S
Zn107 O111 2.086 . S
Zn107 O116 1.977 . S
O108 Zn107 2.032 . S
O108 C112 1.278 . S
C109 O110 1.203 . S
C109 O116 1.267 1_565 S
O110 C109 1.203 . S
O111 C104 1.185 . S
O111 Zn107 2.086 . S
C112 O108 1.278 . S
C112 O113 1.211 . S
O113 C112 1.211 . S
C114 O106 1.284 . S
C114 O115 1.273 . S
O115 C114 1.273 . S
O116 Zn107 1.977 . S
O116 C109 1.267 1_545 S
C117 O118 1.160 . S
C117 O124 1.185 . S
O118 C117 1.160 . S
O119 Zn120 1.899 . S
O119 C127 1.284 . S
Zn120 O119 1.899 . S
Zn120 O121 2.032 . S
Zn120 O124 2.086 . S
Zn120 O129 1.977 . S
O121 Zn120 2.032 . S
O121 C125 1.278 . S
C122 O123 1.203 . S
C122 O129 1.267 1_565 S
O123 C122 1.203 . S
O124 C117 1.185 . S
O124 Zn120 2.086 . S
C125 O121 1.278 . S
C125 O126 1.211 . S
O126 C125 1.211 . S
C127 O119 1.284 . S
C127 O128 1.273 . S
O128 C127 1.273 . S
O129 Zn120 1.977 . S
O129 C122 1.267 1_545 S
C130 O131 1.160 . S
C130 O137 1.185 . S
O131 C130 1.160 . S
O132 Zn133 1.899 . S
O132 C140 1.284 . S
Zn133 O132 1.899 . S
Zn133 O134 2.032 . S
Zn133 O137 2.086 . S
Zn133 O142 1.977 . S
O134 Zn133 2.032 . S
O134 C138 1.278 . S
C135 O136 1.203 . S
C135 O142 1.267 1_455 S
O136 C135 1.203 . S
O137 C130 1.185 . S
O137 Zn133 2.086 . S
C138 O134 1.278 . S
C138 O139 1.211 . S
O139 C138 1.211 . S
C140 O132 1.284 . S
C140 O141 1.273 . S
O141 C140 1.273 . S
O142 Zn133 1.977 . S
O142 C135 1.267 1_655 S
C143 O144 1.160 . S
C143 O150 1.185 . S
O144 C143 1.160 . S
O145 Zn146 1.899 . S
O145 C153 1.284 . S
Zn146 O145 1.899 . S
Zn146 O147 2.032 . S
Zn146 O150 2.086 . S
Zn146 O155 1.977 . S
O147 Zn146 2.032 . S
O147 C151 1.278 . S
C148 O149 1.203 . S
C148 O155 1.267 . S
O149 C148 1.203 . S
O150 C143 1.185 . S
O150 Zn146 2.086 . S
C151 O147 1.278 . S
C151 O152 1.211 . S
O152 C151 1.211 . S
C153 O145 1.284 . S
C153 O154 1.273 . S
O154 C153 1.273 . S
O155 Zn146 1.977 . S
O155 C148 1.267 . S
H156 C164 0.929 . S
H157 C166 0.930 1_556 S
H158 C168 0.930 . S
H159 C171 0.929 . S
H160 C174 0.930 . S
H161 C176 0.960 . S
H162 C176 0.960 . S
H163 C176 0.960 . S
C164 H156 0.929 . S
C164 C165 1.377 . S
C164 C166 1.384 . S
C165 C164 1.377 . S
C165 C171 1.390 . S
C166 H157 0.930 1_554 S
C166 C164 1.384 . S
C166 C167 1.372 . S
C167 C166 1.372 . S
C167 C168 1.400 . S
C167 C172 1.490 . S
C168 H158 0.930 . S
C168 C167 1.400 . S
C168 C171 1.386 . S
H169 C185 0.930 . S
H170 C186 0.931 . S
C171 H159 0.929 . S
C171 C165 1.390 . S
C171 C168 1.386 . S
C172 C167 1.490 . S
C172 C174 1.395 1_554 S
C172 C175 1.403 . S
H173 C179 0.941 . S
C174 H160 0.930 . S
C174 C172 1.395 1_556 S
C174 C177 1.403 . S
C175 C172 1.403 . S
C175 C176 1.524 . S
C175 C179 1.413 . S
C176 H161 0.960 . S
C176 H162 0.960 . S
C176 H163 0.960 . S
C176 C175 1.524 . S
C177 C174 1.403 . S
C177 C178 1.392 . S
C177 C181 1.495 . S
C178 C177 1.392 . S
C178 C179 1.362 1_556 S
C178 C180 1.478 . S
C179 H173 0.941 . S
C179 C175 1.413 . S
C179 C178 1.362 1_554 S
C180 C178 1.478 . S
C180 C182 1.381 . S
C180 C186 1.383 . S
C181 C177 1.495 . S
C181 H187 0.959 . S
C181 H188 0.961 . S
C181 H189 0.960 . S
C182 C180 1.381 . S
C182 C183 1.394 . S
C182 H190 0.930 . S
C183 C182 1.394 . S
C183 C184 1.383 . S
C183 H191 0.929 . S
C184 C183 1.383 . S
C184 C185 1.377 . S
C185 H169 0.930 . S
C185 C184 1.377 . S
C185 C186 1.379 . S
C186 H170 0.931 . S
C186 C180 1.383 . S
C186 C185 1.379 . S
H187 C181 0.959 . S
H188 C181 0.961 . S
H189 C181 0.960 . S
H190 C182 0.930 . S
H191 C183 0.929 . S
H192 C200 0.929 . S
H193 C202 0.930 . S
H194 C204 0.930 . S
H195 C207 0.929 . S
H196 C210 0.930 . S
H197 C212 0.960 . S
H198 C212 0.960 . S
H199 C212 0.960 . S
C200 H192 0.929 . S
C200 C201 1.377 . S
C200 C202 1.384 . S
C201 C200 1.377 . S
C201 C207 1.390 . S
C202 H193 0.930 . S
C202 C200 1.384 . S
C202 C203 1.372 . S
C203 C202 1.372 . S
C203 C204 1.400 . S
C203 C208 1.490 . S
C204 H194 0.930 . S
C204 C203 1.400 . S
C204 C207 1.386 . S
H205 C221 0.930 . S
H206 C222 0.931 . S
C207 H195 0.929 . S
C207 C201 1.390 . S
C207 C204 1.386 . S
C208 C203 1.490 . S
C208 C210 1.395 1_554 S
C208 C211 1.403 . S
H209 C215 0.925 1_554 S
C210 H196 0.930 . S
C210 C208 1.395 1_556 S
C210 C213 1.403 . S
C211 C208 1.403 . S
C211 C212 1.524 . S
C211 C215 1.400 1_554 S
C212 H197 0.960 . S
C212 H198 0.960 . S
C212 H199 0.960 . S
C212 C211 1.524 . S
C213 C210 1.403 . S
C213 C214 1.392 . S
C213 C217 1.495 . S
C214 C213 1.392 . S
C214 C215 1.385 . S
C214 C216 1.478 . S
C215 H209 0.925 1_556 S
C215 C211 1.400 1_556 S
C215 C214 1.385 . S
C216 C214 1.478 . S
C216 C218 1.381 . S
C216 C222 1.383 . S
C217 C213 1.495 . S
C217 H223 0.959 . S
C217 H224 0.961 . S
C217 H225 0.960 . S
C218 C216 1.381 . S
C218 C219 1.394 . S
C218 H226 0.930 . S
C219 C218 1.394 . S
C219 C220 1.383 . S
C219 H227 0.917 1_565 S
C220 C219 1.383 . S
C220 C221 1.377 . S
C221 H205 0.930 . S
C221 C220 1.377 . S
C221 C222 1.379 . S
C222 H206 0.931 . S
C222 C216 1.383 . S
C222 C221 1.379 . S
H223 C217 0.959 . S
H224 C217 0.961 . S
H225 C217 0.960 . S
H226 C218 0.930 . S
H227 C219 0.917 1_545 S
H228 C236 0.929 . S
H229 C238 0.930 . S
H230 C240 0.930 1_556 S
H231 C243 0.929 . S
H232 C246 0.926 1_554 S
H233 C248 0.971 . S
H234 C248 0.960 . S
H235 C248 0.961 1_556 S
C236 H228 0.929 . S
C236 C237 1.377 . S
C236 C238 1.384 . S
C237 C236 1.377 . S
C237 C243 1.390 . S
C238 H229 0.930 . S
C238 C236 1.384 . S
C238 C239 1.372 . S
C239 C238 1.372 . S
C239 C240 1.400 . S
C239 C244 1.490 . S
C240 H230 0.930 1_554 S
C240 C239 1.400 . S
C240 C243 1.386 . S
H241 C257 0.930 . S
H242 C258 0.931 . S
C243 H231 0.929 . S
C243 C237 1.390 . S
C243 C240 1.386 . S
C244 C239 1.490 . S
C244 C246 1.391 1_554 S
C244 C247 1.399 1_554 S
H245 C251 0.930 . S
C246 H232 0.926 1_556 S
C246 C244 1.391 1_556 S
C246 C249 1.410 . S
C247 C244 1.399 1_556 S
C247 C248 1.520 1_556 S
C247 C251 1.407 . S
C248 H233 0.971 . S
C248 H234 0.960 . S
C248 H235 0.961 1_554 S
C248 C247 1.520 1_554 S
C249 C246 1.410 . S
C249 C250 1.392 . S
C249 C253 1.495 . S
C250 C249 1.392 . S
C250 C251 1.385 . S
C250 C252 1.478 . S
C251 H245 0.930 . S
C251 C247 1.407 . S
C251 C250 1.385 . S
C252 C250 1.478 . S
C252 C254 1.381 . S
C252 C258 1.383 . S
C253 C249 1.495 . S
C253 H259 0.959 . S
C253 H260 0.961 . S
C253 H261 0.960 . S
C254 C252 1.381 . S
C254 C255 1.394 . S
C254 H262 0.930 . S
C255 C254 1.394 . S
C255 C256 1.383 . S
C255 H263 0.929 1_455 S
C256 C255 1.383 . S
C256 C257 1.377 . S
C257 H241 0.930 . S
C257 C256 1.377 . S
C257 C258 1.379 . S
C258 H242 0.931 . S
C258 C252 1.383 . S
C258 C257 1.379 . S
H259 C253 0.959 . S
H260 C253 0.961 . S
H261 C253 0.960 . S
H262 C254 0.930 . S
H263 C255 0.929 1_655 S
H264 C272 0.929 . S
H265 C274 0.930 . S
H266 C276 0.930 . S
H267 C279 0.929 . S
H268 C282 0.930 . S
H269 C284 0.960 . S
H270 C284 0.960 . S
H271 C284 0.960 . S
C272 H264 0.929 . S
C272 C273 1.377 . S
C272 C274 1.384 . S
C273 C272 1.377 . S
C273 C279 1.390 . S
C274 H265 0.930 . S
C274 C272 1.384 . S
C274 C275 1.372 . S
C275 C274 1.372 . S
C275 C276 1.400 . S
C275 C280 1.490 . S
C276 H266 0.930 . S
C276 C275 1.400 . S
C276 C279 1.386 . S
H277 C293 0.930 . S
H278 C294 0.931 . S
C279 H267 0.929 . S
C279 C273 1.390 . S
C279 C276 1.386 . S
C280 C275 1.490 . S
C280 C282 1.395 . S
C280 C283 1.403 . S
H281 C287 0.930 . S
C282 H268 0.930 . S
C282 C280 1.395 . S
C282 C285 1.403 . S
C283 C280 1.403 . S
C283 C284 1.524 . S
C283 C287 1.400 . S
C284 H269 0.960 . S
C284 H270 0.960 . S
C284 H271 0.960 . S
C284 C283 1.524 . S
C285 C282 1.403 . S
C285 C286 1.392 . S
C285 C289 1.495 . S
C286 C285 1.392 . S
C286 C287 1.385 . S
C286 C288 1.478 . S
C287 H281 0.930 . S
C287 C283 1.400 . S
C287 C286 1.385 . S
C288 C286 1.478 . S
C288 C290 1.381 . S
C288 C294 1.383 . S
C289 C285 1.495 . S
C289 H295 0.959 . S
C289 H296 0.961 . S
C289 H297 0.960 . S
C290 C288 1.381 . S
C290 C291 1.394 . S
C290 H298 0.930 . S
C291 C290 1.394 . S
C291 C292 1.383 . S
C291 H299 0.929 . S
C292 C291 1.383 . S
C292 C293 1.377 . S
C293 H277 0.930 . S
C293 C292 1.377 . S
C293 C294 1.379 . S
C294 H278 0.931 . S
C294 C288 1.383 . S
C294 C293 1.379 . S
H295 C289 0.959 . S
H296 C289 0.961 . S
H297 C289 0.960 . S
H298 C290 0.930 . S
H299 C291 0.929 . S
H300 C308 0.929 . S
H301 C310 0.930 . S
H302 C312 0.930 . S
H303 C315 0.929 . S
H304 C318 0.930 . S
H305 C320 0.960 . S
H306 C320 0.960 . S
H307 C320 0.960 . S
C308 H300 0.929 . S
C308 C309 1.377 . S
C308 C310 1.384 . S
C309 C308 1.377 . S
C309 C315 1.390 . S
C310 H301 0.930 . S
C310 C308 1.384 . S
C310 C311 1.372 . S
C311 C310 1.372 . S
C311 C312 1.400 . S
C311 C316 1.490 . S
C312 H302 0.930 . S
C312 C311 1.400 . S
C312 C315 1.386 . S
H313 C329 0.930 . S
H314 C330 0.931 . S
C315 H303 0.929 . S
C315 C309 1.390 . S
C315 C312 1.386 . S
C316 C311 1.490 . S
C316 C318 1.395 . S
C316 C319 1.403 . S
H317 C323 0.930 . S
C318 H304 0.930 . S
C318 C316 1.395 . S
C318 C321 1.403 . S
C319 C316 1.403 . S
C319 C320 1.524 . S
C319 C323 1.400 . S
C320 H305 0.960 . S
C320 H306 0.960 . S
C320 H307 0.960 . S
C320 C319 1.524 . S
C321 C318 1.403 . S
C321 C322 1.392 . S
C321 C325 1.495 . S
C322 C321 1.392 . S
C322 C323 1.385 . S
C322 C324 1.478 . S
C323 H317 0.930 . S
C323 C319 1.400 . S
C323 C322 1.385 . S
C324 C322 1.478 . S
C324 C326 1.381 . S
C324 C330 1.383 . S
C325 C321 1.495 . S
C325 H331 0.959 . S
C325 H332 0.961 . S
C325 H333 0.960 . S
C326 C324 1.381 . S
C326 C327 1.394 . S
C326 H334 0.930 . S
C327 C326 1.394 . S
C327 C328 1.383 . S
C327 H335 0.929 . S
C328 C327 1.383 . S
C328 C329 1.377 . S
C329 H313 0.930 . S
C329 C328 1.377 . S
C329 C330 1.379 . S
C330 H314 0.931 . S
C330 C324 1.383 . S
C330 C329 1.379 . S
H331 C325 0.959 . S
H332 C325 0.961 . S
H333 C325 0.960 . S
H334 C326 0.930 . S
H335 C327 0.929 . S
H336 C344 0.929 1_655 S
H337 C346 0.930 . S
H338 C348 0.930 . S
H339 C351 0.929 . S
H340 C354 0.930 . S
H341 C356 0.960 . S
H342 C356 0.960 . S
H343 C356 0.960 . S
C344 H336 0.929 1_455 S
C344 C345 1.377 . S
C344 C346 1.384 . S
C345 C344 1.377 . S
C345 C351 1.390 . S
C346 H337 0.930 . S
C346 C344 1.384 . S
C346 C347 1.372 . S
C347 C346 1.372 . S
C347 C348 1.400 . S
C347 C352 1.490 . S
C348 H338 0.930 . S
C348 C347 1.400 . S
C348 C351 1.386 . S
H349 C365 0.930 . S
H350 C366 0.931 . S
C351 H339 0.929 . S
C351 C345 1.390 . S
C351 C348 1.386 . S
C352 C347 1.490 . S
C352 C354 1.395 . S
C352 C355 1.403 . S
H353 C359 0.930 . S
C354 H340 0.930 . S
C354 C352 1.395 . S
C354 C357 1.403 . S
C355 C352 1.403 . S
C355 C356 1.524 . S
C355 C359 1.400 . S
C356 H341 0.960 . S
C356 H342 0.960 . S
C356 H343 0.960 . S
C356 C355 1.524 . S
C357 C354 1.403 . S
C357 C358 1.392 . S
C357 C361 1.495 . S
C358 C357 1.392 . S
C358 C359 1.385 . S
C358 C360 1.478 . S
C359 H353 0.930 . S
C359 C355 1.400 . S
C359 C358 1.385 . S
C360 C358 1.478 . S
C360 C362 1.381 . S
C360 C366 1.383 . S
C361 C357 1.495 . S
C361 H367 0.959 . S
C361 H368 0.961 . S
C361 H369 0.960 . S
C362 C360 1.381 . S
C362 C363 1.394 . S
C362 H370 0.930 . S
C363 C362 1.394 . S
C363 C364 1.383 . S
C363 H371 0.929 . S
C364 C363 1.383 . S
C364 C365 1.377 . S
C365 H349 0.930 . S
C365 C364 1.377 . S
C365 C366 1.379 . S
C366 H350 0.931 . S
C366 C360 1.383 . S
C366 C365 1.379 . S
H367 C361 0.959 . S
H368 C361 0.961 . S
H369 C361 0.960 . S
H370 C362 0.930 . S
H371 C363 0.929 . S
H372 C380 0.929 . S
H373 C382 0.930 . S
H374 C384 0.930 . S
H375 C387 0.929 . S
H376 C390 0.930 . S
H377 C392 0.960 . S
H378 C392 0.960 . S
H379 C392 0.960 . S
C380 H372 0.929 . S
C380 C381 1.377 . S
C380 C382 1.384 . S
C381 C380 1.377 . S
C381 C387 1.390 . S
C382 H373 0.930 . S
C382 C380 1.384 . S
C382 C383 1.372 . S
C383 C382 1.372 . S
C383 C384 1.400 . S
C383 C388 1.490 . S
C384 H374 0.930 . S
C384 C383 1.400 . S
C384 C387 1.386 . S
H385 C401 0.930 . S
H386 C402 0.931 . S
C387 H375 0.929 . S
C387 C381 1.390 . S
C387 C384 1.386 . S
C388 C383 1.490 . S
C388 C390 1.395 . S
C388 C391 1.403 1_554 S
H389 C395 0.930 . S
C390 H376 0.930 . S
C390 C388 1.395 . S
C390 C393 1.403 . S
C391 C388 1.403 1_556 S
C391 C392 1.524 . S
C391 C395 1.400 . S
C392 H377 0.960 . S
C392 H378 0.960 . S
C392 H379 0.960 . S
C392 C391 1.524 . S
C393 C390 1.403 . S
C393 C394 1.363 1_554 S
C393 C397 1.495 . S
C394 C393 1.363 1_556 S
C394 C395 1.401 . S
C394 C396 1.492 . S
C395 H389 0.930 . S
C395 C391 1.400 . S
C395 C394 1.401 . S
C396 C394 1.492 . S
C396 C398 1.381 . S
C396 C402 1.383 . S
C397 C393 1.495 . S
C397 H403 0.959 . S
C397 H404 0.961 . S
C397 H405 0.960 . S
C398 C396 1.381 . S
C398 C399 1.394 . S
C398 H406 0.930 1_556 S
C399 C398 1.394 . S
C399 C400 1.383 . S
C399 H407 0.929 . S
C400 C399 1.383 . S
C400 C401 1.377 . S
C401 H385 0.930 . S
C401 C400 1.377 . S
C401 C402 1.379 . S
C402 H386 0.931 . S
C402 C396 1.383 . S
C402 C401 1.379 . S
H403 C397 0.959 . S
H404 C397 0.961 . S
H405 C397 0.960 . S
H406 C398 0.930 1_554 S
H407 C399 0.929 . S
H408 C416 0.929 . S
H409 C418 0.930 . S
H410 C420 0.930 1_554 S
H411 C423 0.929 . S
H412 C426 0.930 . S
H413 C428 0.960 . S
H414 C428 0.960 . S
H415 C428 0.960 . S
C416 H408 0.929 . S
C416 C417 1.377 . S
C416 C418 1.384 . S
C417 C416 1.377 . S
C417 C423 1.390 . S
C418 H409 0.930 . S
C418 C416 1.384 . S
C418 C419 1.372 . S
C419 C418 1.372 . S
C419 C420 1.400 . S
C419 C424 1.490 . S
C420 H410 0.930 1_556 S
C420 C419 1.400 . S
C420 C423 1.386 . S
H421 C437 0.930 . S
H422 C438 0.931 . S
C423 H411 0.929 . S
C423 C417 1.390 . S
C423 C420 1.386 . S
C424 C419 1.490 . S
C424 C426 1.395 . S
C424 C427 1.403 1_556 S
H425 C431 0.930 . S
C426 H412 0.930 . S
C426 C424 1.395 . S
C426 C429 1.403 . S
C427 C424 1.403 1_554 S
C427 C428 1.524 . S
C427 C431 1.400 . S
C428 H413 0.960 . S
C428 H414 0.960 . S
C428 H415 0.960 . S
C428 C427 1.524 . S
C429 C426 1.403 . S
C429 C430 1.392 1_556 S
C429 C433 1.495 . S
C430 C429 1.392 1_554 S
C430 C431 1.385 . S
C430 C432 1.478 . S
C431 H425 0.930 . S
C431 C427 1.400 . S
C431 C430 1.385 . S
C432 C430 1.478 . S
C432 C434 1.381 . S
C432 C438 1.383 . S
C433 C429 1.495 . S
C433 H439 0.959 . S
C433 H440 0.981 . S
C433 H441 0.960 . S
C434 C432 1.381 . S
C434 C435 1.394 . S
C434 H442 0.930 . S
C435 C434 1.394 . S
C435 C436 1.383 . S
C435 H443 0.929 1_545 S
C436 C435 1.383 . S
C436 C437 1.377 . S
C437 H421 0.930 . S
C437 C436 1.377 . S
C437 C438 1.379 . S
C438 H422 0.931 . S
C438 C432 1.383 . S
C438 C437 1.379 . S
H439 C433 0.959 . S
H440 C433 0.981 . S
H441 C433 0.960 . S
H442 C434 0.930 . S
H443 C435 0.929 1_565 S
H444 C452 0.929 . S
H445 C454 0.930 . S
H446 C456 0.930 . S
H447 C459 0.929 1_455 S
H448 C462 0.930 . S
H449 C464 0.960 . S
H450 C464 0.960 . S
H451 C464 0.960 . S
C452 H444 0.929 . S
C452 C453 1.377 . S
C452 C454 1.384 . S
C453 C452 1.377 . S
C453 C459 1.390 . S
C454 H445 0.930 . S
C454 C452 1.384 . S
C454 C455 1.372 . S
C455 C454 1.372 . S
C455 C456 1.400 . S
C455 C460 1.490 . S
C456 H446 0.930 . S
C456 C455 1.400 . S
C456 C459 1.386 . S
H457 C473 0.930 . S
H458 C474 0.931 . S
C459 H447 0.929 1_655 S
C459 C453 1.390 . S
C459 C456 1.386 . S
C460 C455 1.490 . S
C460 C462 1.395 . S
C460 C463 1.403 . S
H461 C467 0.930 . S
C462 H448 0.930 . S
C462 C460 1.395 . S
C462 C465 1.403 1_554 S
C463 C460 1.403 . S
C463 C464 1.524 . S
C463 C467 1.400 . S
C464 H449 0.960 . S
C464 H450 0.960 . S
C464 H451 0.960 . S
C464 C463 1.524 . S
C465 C462 1.403 1_556 S
C465 C466 1.392 . S
C465 C469 1.495 . S
C466 C465 1.392 . S
C466 C467 1.385 1_556 S
C466 C468 1.478 . S
C467 H461 0.930 . S
C467 C463 1.400 . S
C467 C466 1.385 1_554 S
C468 C466 1.478 . S
C468 C470 1.381 . S
C468 C474 1.383 . S
C469 C465 1.495 . S
C469 H475 0.959 . S
C469 H476 0.961 . S
C469 H477 0.960 . S
C470 C468 1.381 . S
C470 C471 1.394 . S
C470 H478 0.930 1_556 S
C471 C470 1.394 . S
C471 C472 1.383 . S
C471 H479 0.929 . S
C472 C471 1.383 . S
C472 C473 1.377 . S
C473 H457 0.930 . S
C473 C472 1.377 . S
C473 C474 1.379 . S
C474 H458 0.931 . S
C474 C468 1.383 . S
C474 C473 1.379 . S
H475 C469 0.959 . S
H476 C469 0.961 . S
H477 C469 0.960 . S
H478 C470 0.930 1_554 S
H479 C471 0.929 . S
H480 C488 0.929 . S
H481 C490 0.930 . S
H482 C492 0.930 . S
H483 C495 0.929 . S
H484 C498 0.930 . S
H485 C500 0.960 . S
H486 C500 0.960 . S
H487 C500 0.960 . S
C488 H480 0.929 . S
C488 C489 1.377 . S
C488 C490 1.384 . S
C489 C488 1.377 . S
C489 C495 1.390 . S
C490 H481 0.930 . S
C490 C488 1.384 . S
C490 C491 1.372 . S
C491 C490 1.372 . S
C491 C492 1.400 . S
C491 C496 1.490 . S
C492 H482 0.930 . S
C492 C491 1.400 . S
C492 C495 1.386 . S
H493 C509 0.930 . S
H494 C510 0.931 . S
C495 H483 0.929 . S
C495 C489 1.390 . S
C495 C492 1.386 . S
C496 C491 1.490 . S
C496 C498 1.395 . S
C496 C499 1.403 . S
H497 C503 0.930 . S
C498 H484 0.930 . S
C498 C496 1.395 . S
C498 C501 1.403 . S
C499 C496 1.403 . S
C499 C500 1.524 . S
C499 C503 1.400 . S
C500 H485 0.960 . S
C500 H486 0.960 . S
C500 H487 0.960 . S
C500 C499 1.524 . S
C501 C498 1.403 . S
C501 C502 1.392 . S
C501 C505 1.495 . S
C502 C501 1.392 . S
C502 C503 1.385 . S
C502 C504 1.478 . S
C503 H497 0.930 . S
C503 C499 1.400 . S
C503 C502 1.385 . S
C504 C502 1.478 . S
C504 C506 1.381 . S
C504 C510 1.383 . S
C505 C501 1.495 . S
C505 H511 0.959 . S
C505 H512 0.961 . S
C505 H513 0.960 . S
C506 C504 1.381 . S
C506 C507 1.394 . S
C506 H514 0.930 . S
C507 C506 1.394 . S
C507 C508 1.383 . S
C507 H515 0.929 . S
C508 C507 1.383 . S
C508 C509 1.377 . S
C509 H493 0.930 . S
C509 C508 1.377 . S
C509 C510 1.379 . S
C510 H494 0.931 . S
C510 C504 1.383 . S
C510 C509 1.379 . S
H511 C505 0.959 . S
H512 C505 0.961 . S
H513 C505 0.960 . S
H514 C506 0.930 . S
H515 C507 0.929 . S
H516 C524 0.929 . S
H517 C526 0.930 . S
H518 C528 0.930 . S
H519 C531 0.929 . S
H520 C534 0.930 . S
H521 C536 0.960 . S
H522 C536 0.960 . S
H523 C536 0.960 . S
C524 H516 0.929 . S
C524 C525 1.377 . S
C524 C526 1.384 . S
C525 C524 1.377 . S
C525 C531 1.390 . S
C526 H517 0.930 . S
C526 C524 1.384 . S
C526 C527 1.372 . S
C527 C526 1.372 . S
C527 C528 1.400 . S
C527 C532 1.490 . S
C528 H518 0.930 . S
C528 C527 1.400 . S
C528 C531 1.386 . S
H529 C545 0.930 . S
H530 C546 0.931 . S
C531 H519 0.929 . S
C531 C525 1.390 . S
C531 C528 1.386 . S
C532 C527 1.490 . S
C532 C534 1.395 . S
C532 C535 1.403 . S
H533 C539 0.930 . S
C534 H520 0.930 . S
C534 C532 1.395 . S
C534 C537 1.403 . S
C535 C532 1.403 . S
C535 C536 1.524 . S
C535 C539 1.400 . S
C536 H521 0.960 . S
C536 H522 0.960 . S
C536 H523 0.960 . S
C536 C535 1.524 . S
C537 C534 1.403 . S
C537 C538 1.392 . S
C537 C541 1.495 . S
C538 C537 1.392 . S
C538 C539 1.385 . S
C538 C540 1.478 . S
C539 H533 0.930 . S
C539 C535 1.400 . S
C539 C538 1.385 . S
C540 C538 1.478 . S
C540 C542 1.381 . S
C540 C546 1.383 . S
C541 C537 1.495 . S
C541 H547 0.959 . S
C541 H548 0.961 . S
C541 H549 0.960 . S
C542 C540 1.381 . S
C542 C543 1.394 . S
C542 H550 0.930 . S
C543 C542 1.394 . S
C543 C544 1.383 . S
C543 H551 0.929 . S
C544 C543 1.383 . S
C544 C545 1.377 . S
C545 H529 0.930 . S
C545 C544 1.377 . S
C545 C546 1.379 . S
C546 H530 0.931 . S
C546 C540 1.383 . S
C546 C545 1.379 . S
H547 C541 0.959 . S
H548 C541 0.961 . S
H549 C541 0.960 . S
H550 C542 0.930 . S
H551 C543 0.929 . S
H552 C560 0.929 1_455 S
H553 C562 0.930 . S
H554 C564 0.930 . S
H555 C567 0.929 . S
H556 C570 0.930 . S
H557 C572 0.960 . S
H558 C572 0.960 . S
H559 C572 0.960 . S
C560 H552 0.929 1_655 S
C560 C561 1.377 . S
C560 C562 1.384 . S
C561 C560 1.377 . S
C561 C567 1.390 . S
C562 H553 0.930 . S
C562 C560 1.384 . S
C562 C563 1.372 . S
C563 C562 1.372 . S
C563 C564 1.400 . S
C563 C568 1.490 . S
C564 H554 0.930 . S
C564 C563 1.400 . S
C564 C567 1.386 . S
H565 C581 0.930 . S
H566 C582 0.931 . S
C567 H555 0.929 . S
C567 C561 1.390 . S
C567 C564 1.386 . S
C568 C563 1.490 . S
C568 C570 1.395 . S
C568 C571 1.403 . S
H569 C575 0.930 . S
C570 H556 0.930 . S
C570 C568 1.395 . S
C570 C573 1.403 . S
C571 C568 1.403 . S
C571 C572 1.524 . S
C571 C575 1.400 . S
C572 H557 0.960 . S
C572 H558 0.960 . S
C572 H559 0.960 . S
C572 C571 1.524 . S
C573 C570 1.403 . S
C573 C574 1.392 . S
C573 C577 1.495 . S
C574 C573 1.392 . S
C574 C575 1.385 . S
C574 C576 1.478 . S
C575 H569 0.930 . S
C575 C571 1.400 . S
C575 C574 1.385 . S
C576 C574 1.478 . S
C576 C578 1.381 . S
C576 C582 1.383 . S
C577 C573 1.495 . S
C577 H583 0.959 . S
C577 H584 0.961 . S
C577 H585 0.960 . S
C578 C576 1.381 . S
C578 C579 1.394 . S
C578 H586 0.930 . S
C579 C578 1.394 . S
C579 C580 1.383 . S
C579 H587 0.929 . S
C580 C579 1.383 . S
C580 C581 1.377 . S
C581 H565 0.930 . S
C581 C580 1.377 . S
C581 C582 1.379 . S
C582 H566 0.931 . S
C582 C576 1.383 . S
C582 C581 1.379 . S
H583 C577 0.959 . S
H584 C577 0.961 . S
H585 C577 0.960 . S
H586 C578 0.930 . S
H587 C579 0.929 . S
H588 C596 0.929 . S
H589 C598 0.930 . S
H590 C600 0.930 . S
H591 C603 0.929 . S
H592 C606 0.930 . S
H593 C608 0.960 . S
H594 C608 0.960 . S
H595 C608 0.960 . S
C596 H588 0.929 . S
C596 C597 1.377 . S
C596 C598 1.384 . S
C597 C596 1.377 . S
C597 C603 1.390 . S
C598 H589 0.930 . S
C598 C596 1.384 . S
C598 C599 1.372 . S
C599 C598 1.372 . S
C599 C600 1.400 . S
C599 C604 1.490 . S
C600 H590 0.930 . S
C600 C599 1.400 . S
C600 C603 1.386 . S
H601 C617 0.930 . S
H602 C618 0.931 . S
C603 H591 0.929 . S
C603 C597 1.390 . S
C603 C600 1.386 . S
C604 C599 1.490 . S
C604 C606 1.395 . S
C604 C607 1.403 . S
H605 C611 0.930 . S
C606 H592 0.930 . S
C606 C604 1.395 . S
C606 C609 1.403 . S
C607 C604 1.403 . S
C607 C608 1.524 . S
C607 C611 1.400 . S
C608 H593 0.960 . S
C608 H594 0.960 . S
C608 H595 0.960 . S
C608 C607 1.524 . S
C609 C606 1.403 . S
C609 C610 1.392 . S
C609 C613 1.495 . S
C610 C609 1.392 . S
C610 C611 1.385 . S
C610 C612 1.478 . S
C611 H605 0.930 . S
C611 C607 1.400 . S
C611 C610 1.385 . S
C612 C610 1.478 . S
C612 C614 1.381 . S
C612 C618 1.383 . S
C613 C609 1.495 . S
C613 H619 0.959 . S
C613 H620 0.961 . S
C613 H621 0.960 . S
C614 C612 1.381 . S
C614 C615 1.394 . S
C614 H622 0.930 . S
C615 C614 1.394 . S
C615 C616 1.383 . S
C615 H623 0.929 . S
C616 C615 1.383 . S
C616 C617 1.377 . S
C617 H601 0.930 . S
C617 C616 1.377 . S
C617 C618 1.379 . S
C618 H602 0.931 . S
C618 C612 1.383 . S
C618 C617 1.379 . S
H619 C613 0.959 . S
H620 C613 0.961 . S
H621 C613 0.960 . S
H622 C614 0.930 . S
H623 C615 0.929 . S
H624 C632 0.929 . S
H625 C634 0.930 . S
H626 C636 0.930 . S
H627 C639 0.929 . S
H628 C642 0.930 . S
H629 C644 0.960 . S
H630 C644 0.960 . S
H631 C644 0.960 . S
C632 H624 0.929 . S
C632 C633 1.377 . S
C632 C634 1.384 . S
C633 C632 1.377 . S
C633 C639 1.390 . S
C634 H625 0.930 . S
C634 C632 1.384 . S
C634 C635 1.372 . S
C635 C634 1.372 . S
C635 C636 1.400 . S
C635 C640 1.490 . S
C636 H626 0.930 . S
C636 C635 1.400 . S
C636 C639 1.386 . S
H637 C653 0.930 . S
H638 C654 0.931 . S
C639 H627 0.929 . S
C639 C633 1.390 . S
C639 C636 1.386 . S
C640 C635 1.490 . S
C640 C642 1.395 . S
C640 C643 1.403 . S
H641 C647 0.930 . S
C642 H628 0.930 . S
C642 C640 1.395 . S
C642 C645 1.403 . S
C643 C640 1.403 . S
C643 C644 1.524 . S
C643 C647 1.400 . S
C644 H629 0.960 . S
C644 H630 0.960 . S
C644 H631 0.960 . S
C644 C643 1.524 . S
C645 C642 1.403 . S
C645 C646 1.392 . S
C645 C649 1.495 . S
C646 C645 1.392 . S
C646 C647 1.385 . S
C646 C648 1.478 . S
C647 H641 0.930 . S
C647 C643 1.400 . S
C647 C646 1.385 . S
C648 C646 1.478 . S
C648 C650 1.381 . S
C648 C654 1.383 . S
C649 C645 1.495 . S
C649 H655 0.959 . S
C649 H656 0.961 . S
C649 H657 0.960 . S
C650 C648 1.381 . S
C650 C651 1.394 . S
C650 H658 0.930 . S
C651 C650 1.394 . S
C651 C652 1.383 . S
C651 H659 0.929 . S
C652 C651 1.383 . S
C652 C653 1.377 . S
C653 H637 0.930 . S
C653 C652 1.377 . S
C653 C654 1.379 . S
C654 H638 0.931 . S
C654 C648 1.383 . S
C654 C653 1.379 . S
H655 C649 0.959 . S
H656 C649 0.961 . S
H657 C649 0.960 . S
H658 C650 0.930 . S
H659 C651 0.929 . S
H660 C668 0.929 . S
H661 C670 0.930 . S
H662 C672 0.930 . S
H663 C675 0.929 . S
H664 C678 0.930 . S
H665 C680 0.960 . S
H666 C680 0.960 . S
H667 C680 0.960 . S
C668 H660 0.929 . S
C668 C669 1.377 . S
C668 C670 1.384 . S
C669 C668 1.377 . S
C669 C675 1.390 . S
C670 H661 0.930 . S
C670 C668 1.384 . S
C670 C671 1.372 . S
C671 C670 1.372 . S
C671 C672 1.400 . S
C671 C676 1.490 . S
C672 H662 0.930 . S
C672 C671 1.400 . S
C672 C675 1.386 . S
H673 C689 0.930 . S
H674 C690 0.931 . S
C675 H663 0.929 . S
C675 C669 1.390 . S
C675 C672 1.386 . S
C676 C671 1.490 . S
C676 C678 1.395 . S
C676 C679 1.403 . S
H677 C683 0.930 . S
C678 H664 0.930 . S
C678 C676 1.395 . S
C678 C681 1.403 . S
C679 C676 1.403 . S
C679 C680 1.524 . S
C679 C683 1.400 . S
C680 H665 0.960 . S
C680 H666 0.960 . S
C680 H667 0.960 . S
C680 C679 1.524 . S
C681 C678 1.403 . S
C681 C682 1.392 . S
C681 C685 1.495 . S
C682 C681 1.392 . S
C682 C683 1.385 . S
C682 C684 1.478 . S
C683 H677 0.930 . S
C683 C679 1.400 . S
C683 C682 1.385 . S
C684 C682 1.478 . S
C684 C686 1.381 . S
C684 C690 1.383 . S
C685 C681 1.495 . S
C685 H691 0.959 . S
C685 H692 0.961 . S
C685 H693 0.960 . S
C686 C684 1.381 . S
C686 C687 1.394 . S
C686 H694 0.930 . S
C687 C686 1.394 . S
C687 C688 1.383 . S
C687 H695 0.929 . S
C688 C687 1.383 . S
C688 C689 1.377 . S
C689 H673 0.930 . S
C689 C688 1.377 . S
C689 C690 1.379 . S
C690 H674 0.931 . S
C690 C684 1.383 . S
C690 C689 1.379 . S
H691 C685 0.959 . S
H692 C685 0.961 . S
H693 C685 0.960 . S
H694 C686 0.930 . S
H695 C687 0.929 . S
H696 C704 0.929 . S
H697 C706 0.930 . S
H698 C708 0.930 . S
H699 C711 0.929 . S
H700 C714 0.930 . S
H701 C716 0.960 . S
H702 C716 0.960 . S
H703 C716 0.960 . S
C704 H696 0.929 . S
C704 C705 1.377 . S
C704 C706 1.384 . S
C705 C704 1.377 . S
C705 C711 1.390 . S
C706 H697 0.930 . S
C706 C704 1.384 . S
C706 C707 1.372 . S
C707 C706 1.372 . S
C707 C708 1.400 . S
C707 C712 1.490 . S
C708 H698 0.930 . S
C708 C707 1.400 . S
C708 C711 1.386 . S
H709 C725 0.930 . S
H710 C726 0.931 . S
C711 H699 0.929 . S
C711 C705 1.390 . S
C711 C708 1.386 . S
C712 C707 1.490 . S
C712 C714 1.395 . S
C712 C715 1.403 . S
H713 C719 0.930 . S
C714 H700 0.930 . S
C714 C712 1.395 . S
C714 C717 1.403 . S
C715 C712 1.403 . S
C715 C716 1.524 . S
C715 C719 1.400 . S
C716 H701 0.960 . S
C716 H702 0.960 . S
C716 H703 0.960 . S
C716 C715 1.524 . S
C717 C714 1.403 . S
C717 C718 1.392 . S
C717 C721 1.495 . S
C718 C717 1.392 . S
C718 C719 1.385 . S
C718 C720 1.478 . S
C719 H713 0.930 . S
C719 C715 1.400 . S
C719 C718 1.385 . S
C720 C718 1.478 . S
C720 C722 1.381 . S
C720 C726 1.383 . S
C721 C717 1.495 . S
C721 H727 0.959 . S
C721 H728 0.961 . S
C721 H729 0.960 . S
C722 C720 1.381 . S
C722 C723 1.394 . S
C722 H730 0.930 . S
C723 C722 1.394 . S
C723 C724 1.383 . S
C723 H731 0.929 . S
C724 C723 1.383 . S
C724 C725 1.377 . S
C725 H709 0.930 . S
C725 C724 1.377 . S
C725 C726 1.379 . S
C726 H710 0.931 . S
C726 C720 1.383 . S
C726 C725 1.379 . S
H727 C721 0.959 . S
H728 C721 0.961 . S
H729 C721 0.960 . S
H730 C722 0.930 . S
H731 C723 0.929 . S
H732 C740 0.929 . S
H733 C742 0.930 . S
H734 C744 0.930 . S
H735 C747 0.929 . S
H736 C750 0.930 . S
H737 C752 0.960 . S
H738 C752 0.960 . S
H739 C752 0.960 . S
C740 H732 0.929 . S
C740 C741 1.377 . S
C740 C742 1.384 . S
C741 C740 1.377 . S
C741 C747 1.390 . S
C742 H733 0.930 . S
C742 C740 1.384 . S
C742 C743 1.372 . S
C743 C742 1.372 . S
C743 C744 1.400 . S
C743 C748 1.490 . S
C744 H734 0.930 . S
C744 C743 1.400 . S
C744 C747 1.386 . S
H745 C761 0.930 . S
H746 C762 0.931 . S
C747 H735 0.929 . S
C747 C741 1.390 . S
C747 C744 1.386 . S
C748 C743 1.490 . S
C748 C750 1.395 . S
C748 C751 1.403 . S
H749 C755 0.930 . S
C750 H736 0.930 . S
C750 C748 1.395 . S
C750 C753 1.403 . S
C751 C748 1.403 . S
C751 C752 1.524 . S
C751 C755 1.400 . S
C752 H737 0.960 . S
C752 H738 0.960 . S
C752 H739 0.960 . S
C752 C751 1.524 . S
C753 C750 1.403 . S
C753 C754 1.392 . S
C753 C757 1.495 . S
C754 C753 1.392 . S
C754 C755 1.385 . S
C754 C756 1.478 . S
C755 H749 0.930 . S
C755 C751 1.400 . S
C755 C754 1.385 . S
C756 C754 1.478 . S
C756 C758 1.381 . S
C756 C762 1.383 . S
C757 C753 1.495 . S
C757 H763 0.959 . S
C757 H764 0.961 . S
C757 H765 0.960 . S
C758 C756 1.381 . S
C758 C759 1.394 . S
C758 H766 0.930 . S
C759 C758 1.394 . S
C759 C760 1.383 . S
C759 H767 0.929 . S
C760 C759 1.383 . S
C760 C761 1.377 . S
C761 H745 0.930 . S
C761 C760 1.377 . S
C761 C762 1.379 . S
C762 H746 0.931 . S
C762 C756 1.383 . S
C762 C761 1.379 . S
H763 C757 0.959 . S
H764 C757 0.961 . S
H765 C757 0.960 . S
H766 C758 0.930 . S
H767 C759 0.929 . S
H768 C776 0.929 . S
H769 C778 0.930 . S
H770 C780 0.930 . S
H771 C783 0.929 . S
H772 C786 0.930 . S
H773 C788 0.960 . S
H774 C788 0.960 . S
H775 C788 0.960 . S
C776 H768 0.929 . S
C776 C777 1.377 . S
C776 C778 1.384 . S
C777 C776 1.377 . S
C777 C783 1.390 . S
C778 H769 0.930 . S
C778 C776 1.384 . S
C778 C779 1.372 . S
C779 C778 1.372 . S
C779 C780 1.400 . S
C779 C784 1.490 . S
C780 H770 0.930 . S
C780 C779 1.400 . S
C780 C783 1.386 . S
H781 C797 0.930 . S
H782 C798 0.931 . S
C783 H771 0.929 . S
C783 C777 1.390 . S
C783 C780 1.386 . S
C784 C779 1.490 . S
C784 C786 1.395 . S
C784 C787 1.403 . S
H785 C791 0.930 . S
C786 H772 0.930 . S
C786 C784 1.395 . S
C786 C789 1.403 . S
C787 C784 1.403 . S
C787 C788 1.524 . S
C787 C791 1.400 . S
C788 H773 0.960 . S
C788 H774 0.960 . S
C788 H775 0.960 . S
C788 C787 1.524 . S
C789 C786 1.403 . S
C789 C790 1.392 . S
C789 C793 1.495 . S
C790 C789 1.392 . S
C790 C791 1.385 . S
C790 C792 1.478 . S
C791 H785 0.930 . S
C791 C787 1.400 . S
C791 C790 1.385 . S
C792 C790 1.478 . S
C792 C794 1.381 . S
C792 C798 1.383 . S
C793 C789 1.495 . S
C793 H799 0.959 . S
C793 H800 0.961 . S
C793 H801 0.960 . S
C794 C792 1.381 . S
C794 C795 1.394 . S
C794 H802 0.930 . S
C795 C794 1.394 . S
C795 C796 1.383 . S
C795 H803 0.929 . S
C796 C795 1.383 . S
C796 C797 1.377 . S
C797 H781 0.930 . S
C797 C796 1.377 . S
C797 C798 1.379 . S
C798 H782 0.931 . S
C798 C792 1.383 . S
C798 C797 1.379 . S
H799 C793 0.959 . S
H800 C793 0.961 . S
H801 C793 0.960 . S
H802 C794 0.930 . S
H803 C795 0.929 . S
H804 C812 0.929 1_655 S
H805 C814 0.930 1_655 S
H806 C816 0.930 . S
H807 C819 0.929 . S
H808 C822 0.930 . S
H809 C824 0.960 . S
H810 C824 0.960 . S
H811 C824 0.960 1_554 S
C812 H804 0.929 1_455 S
C812 C813 1.377 . S
C812 C814 1.384 . S
C813 C812 1.377 . S
C813 C819 1.390 . S
C814 H805 0.930 1_455 S
C814 C812 1.384 . S
C814 C815 1.372 . S
C815 C814 1.372 . S
C815 C816 1.400 . S
C815 C820 1.490 . S
C816 H806 0.930 . S
C816 C815 1.400 . S
C816 C819 1.386 . S
H817 C833 0.930 . S
H818 C834 0.931 1_455 S
C819 H807 0.929 . S
C819 C813 1.390 . S
C819 C816 1.386 . S
C820 C815 1.490 . S
C820 C822 1.395 1_455 S
C820 C823 1.403 1_554 S
H821 C827 0.930 . S
C822 H808 0.930 . S
C822 C820 1.395 1_655 S
C822 C825 1.403 . S
C823 C820 1.403 1_556 S
C823 C824 1.524 . S
C823 C827 1.400 . S
C824 H809 0.960 . S
C824 H810 0.960 . S
C824 H811 0.960 1_556 S
C824 C823 1.524 . S
C825 C822 1.403 . S
C825 C826 1.392 1_554 S
C825 C829 1.495 . S
C826 C825 1.392 1_556 S
C826 C827 1.385 1_655 S
C826 C828 1.478 . S
C827 H821 0.930 . S
C827 C823 1.400 . S
C827 C826 1.385 1_455 S
C828 C826 1.478 . S
C828 C830 1.381 . S
C828 C834 1.383 . S
C829 C825 1.495 . S
C829 H835 0.959 . S
C829 H836 0.961 . S
C829 H837 0.960 1_554 S
C830 C828 1.381 . S
C830 C831 1.394 . S
C830 H838 0.930 . S
C831 C830 1.394 . S
C831 C832 1.383 . S
C831 H839 0.929 . S
C832 C831 1.383 . S
C832 C833 1.377 . S
C833 H817 0.930 . S
C833 C832 1.377 . S
C833 C834 1.379 . S
C834 H818 0.931 1_655 S
C834 C828 1.383 . S
C834 C833 1.379 . S
H835 C829 0.959 . S
H836 C829 0.961 . S
H837 C829 0.960 1_556 S
H838 C830 0.930 . S
H839 C831 0.929 . S
H840 C848 0.929 . S
H841 C850 0.930 . S
H842 C852 0.930 . S
H843 C855 0.929 . S
H844 C858 0.930 . S
H845 C860 0.981 . S
H846 C860 0.981 . S
H847 C860 0.921 1_554 S
C848 H840 0.929 . S
C848 C849 1.377 . S
C848 C850 1.384 . S
C849 C848 1.377 . S
C849 C855 1.390 . S
C850 H841 0.930 . S
C850 C848 1.384 . S
C850 C851 1.372 . S
C851 C850 1.372 . S
C851 C852 1.400 . S
C851 C856 1.490 . S
C852 H842 0.930 . S
C852 C851 1.400 . S
C852 C855 1.386 . S
H853 C869 0.930 . S
H854 C870 0.957 . S
C855 H843 0.929 . S
C855 C849 1.390 . S
C855 C852 1.386 . S
C856 C851 1.490 . S
C856 C858 1.395 . S
C856 C859 1.403 . S
H857 C863 0.930 . S
C858 H844 0.930 . S
C858 C856 1.395 . S
C858 C861 1.403 1_554 S
C859 C856 1.403 . S
C859 C860 1.523 1_554 S
C859 C863 1.400 1_554 S
C860 H845 0.981 . S
C860 H846 0.981 . S
C860 H847 0.921 1_556 S
C860 C859 1.523 1_556 S
C861 C858 1.403 1_556 S
C861 C862 1.392 . S
C861 C865 1.495 . S
C862 C861 1.392 . S
C862 C863 1.385 . S
C862 C864 1.478 . S
C863 H857 0.930 . S
C863 C859 1.400 1_556 S
C863 C862 1.385 . S
C864 C862 1.478 . S
C864 C866 1.381 . S
C864 C870 1.383 . S
C865 C861 1.495 . S
C865 H871 0.959 1_556 S
C865 H872 0.961 1_556 S
C865 H873 0.960 . S
C866 C864 1.381 . S
C866 C867 1.394 . S
C866 H874 0.930 . S
C867 C866 1.394 . S
C867 C868 1.383 . S
C867 H875 0.929 . S
C868 C867 1.383 . S
C868 C869 1.377 . S
C869 H853 0.930 . S
C869 C868 1.377 . S
C869 C870 1.379 . S
C870 H854 0.957 . S
C870 C864 1.383 . S
C870 C869 1.379 . S
H871 C865 0.959 1_554 S
H872 C865 0.961 1_554 S
H873 C865 0.960 . S
H874 C866 0.930 . S
H875 C867 0.929 . S
H876 C884 0.929 . S
H877 C886 0.930 1_556 S
H878 C888 0.930 1_545 S
H879 C891 0.929 . S
H880 C894 0.930 . S
H881 C896 0.960 . S
H882 C896 0.960 . S
H883 C896 0.960 . S
C884 H876 0.929 . S
C884 C885 1.377 . S
C884 C886 1.384 . S
C885 C884 1.377 . S
C885 C891 1.390 . S
C886 H877 0.930 1_554 S
C886 C884 1.384 . S
C886 C887 1.372 . S
C887 C886 1.372 . S
C887 C888 1.400 . S
C887 C892 1.490 . S
C888 H878 0.930 1_565 S
C888 C887 1.400 . S
C888 C891 1.386 . S
H889 C905 0.930 . S
H890 C906 0.931 . S
C891 H879 0.929 . S
C891 C885 1.390 . S
C891 C888 1.386 . S
C892 C887 1.490 . S
C892 C894 1.395 1_564 S
C892 C895 1.403 . S
H893 C899 0.930 . S
C894 H880 0.930 . S
C894 C892 1.395 1_546 S
C894 C897 1.403 . S
C895 C892 1.403 . S
C895 C896 1.524 . S
C895 C899 1.400 . S
C896 H881 0.960 . S
C896 H882 0.960 . S
C896 H883 0.960 . S
C896 C895 1.524 . S
C897 C894 1.403 . S
C897 C898 1.392 . S
C897 C901 1.495 . S
C898 C897 1.392 . S
C898 C899 1.385 1_546 S
C898 C900 1.478 . S
C899 H893 0.930 . S
C899 C895 1.400 . S
C899 C898 1.385 1_564 S
C900 C898 1.478 . S
C900 C902 1.381 . S
C900 C906 1.383 . S
C901 C897 1.495 . S
C901 H907 0.959 . S
C901 H908 0.961 . S
C901 H909 0.960 . S
C902 C900 1.381 . S
C902 C903 1.394 . S
C902 H910 0.930 1_545 S
C903 C902 1.394 . S
C903 C904 1.383 . S
C903 H911 0.929 . S
C904 C903 1.383 . S
C904 C905 1.377 . S
C905 H889 0.930 . S
C905 C904 1.377 . S
C905 C906 1.379 . S
C906 H890 0.931 . S
C906 C900 1.383 . S
C906 C905 1.379 . S
H907 C901 0.959 . S
H908 C901 0.961 . S
H909 C901 0.960 . S
H910 C902 0.930 1_565 S
H911 C903 0.929 . S
H912 C920 0.929 . S
H913 C922 0.930 . S
H914 C924 0.930 1_545 S
H915 C927 0.929 . S
H916 C930 0.930 . S
H917 C932 0.960 . S
H918 C932 0.960 . S
H919 C932 0.960 . S
C920 H912 0.929 . S
C920 C921 1.377 . S
C920 C922 1.384 . S
C921 C920 1.377 . S
C921 C927 1.390 . S
C922 H913 0.930 . S
C922 C920 1.384 . S
C922 C923 1.372 . S
C923 C922 1.372 . S
C923 C924 1.400 . S
C923 C928 1.490 . S
C924 H914 0.930 1_565 S
C924 C923 1.400 . S
C924 C927 1.386 . S
H925 C941 0.930 . S
H926 C942 0.931 . S
C927 H915 0.929 . S
C927 C921 1.390 . S
C927 C924 1.386 . S
C928 C923 1.490 . S
C928 C930 1.395 . S
C928 C931 1.403 1_565 S
H929 C935 0.930 . S
C930 H916 0.930 . S
C930 C928 1.395 . S
C930 C933 1.403 . S
C931 C928 1.403 1_545 S
C931 C932 1.524 . S
C931 C935 1.400 . S
C932 H917 0.960 . S
C932 H918 0.960 . S
C932 H919 0.960 . S
C932 C931 1.524 . S
C933 C930 1.403 . S
C933 C934 1.392 1_565 S
C933 C937 1.495 . S
C934 C933 1.392 1_545 S
C934 C935 1.385 . S
C934 C936 1.478 . S
C935 H929 0.930 . S
C935 C931 1.400 . S
C935 C934 1.385 . S
C936 C934 1.478 . S
C936 C938 1.381 . S
C936 C942 1.383 . S
C937 C933 1.495 . S
C937 H943 0.959 . S
C937 H944 0.961 . S
C937 H945 0.960 . S
C938 C936 1.381 . S
C938 C939 1.394 . S
C938 H946 0.930 1_545 S
C939 C938 1.394 . S
C939 C940 1.383 . S
C939 H947 0.929 . S
C940 C939 1.383 . S
C940 C941 1.377 . S
C941 H925 0.930 . S
C941 C940 1.377 . S
C941 C942 1.379 . S
C942 H926 0.931 . S
C942 C936 1.383 . S
C942 C941 1.379 . S
H943 C937 0.959 . S
H944 C937 0.961 . S
H945 C937 0.960 . S
H946 C938 0.930 1_565 S
H947 C939 0.929 . S
H948 C956 0.929 . S
H949 C958 0.930 . S
H950 C960 0.930 . S
H951 C963 0.929 . S
H952 C966 0.930 . S
H953 C968 0.960 . S
H954 C968 0.960 . S
H955 C968 0.960 . S
C956 H948 0.929 . S
C956 C957 1.377 . S
C956 C958 1.384 . S
C957 C956 1.377 . S
C957 C963 1.390 . S
C958 H949 0.930 . S
C958 C956 1.384 . S
C958 C959 1.372 . S
C959 C958 1.372 . S
C959 C960 1.400 . S
C959 C964 1.490 . S
C960 H950 0.930 . S
C960 C959 1.400 . S
C960 C963 1.386 . S
H961 C977 0.930 . S
H962 C978 0.931 . S
C963 H951 0.929 . S
C963 C957 1.390 . S
C963 C960 1.386 . S
C964 C959 1.490 . S
C964 C966 1.395 . S
C964 C967 1.403 1_655 S
H965 C971 0.930 . S
C966 H952 0.930 . S
C966 C964 1.395 . S
C966 C969 1.403 . S
C967 C964 1.403 1_455 S
C967 C968 1.524 . S
C967 C971 1.400 . S
C968 H953 0.960 . S
C968 H954 0.960 . S
C968 H955 0.960 . S
C968 C967 1.524 . S
C969 C966 1.403 . S
C969 C970 1.392 1_655 S
C969 C973 1.495 . S
C970 C969 1.392 1_455 S
C970 C971 1.385 . S
C970 C972 1.478 . S
C971 H965 0.930 . S
C971 C967 1.400 . S
C971 C970 1.385 . S
C972 C970 1.478 . S
C972 C974 1.381 . S
C972 C978 1.383 . S
C973 C969 1.495 . S
C973 H979 0.959 . S
C973 H980 0.961 . S
C973 H981 0.960 . S
C974 C972 1.381 . S
C974 C975 1.394 . S
C974 H982 0.930 . S
C975 C974 1.394 . S
C975 C976 1.383 . S
C975 H983 0.929 . S
C976 C975 1.383 . S
C976 C977 1.377 . S
C977 H961 0.930 . S
C977 C976 1.377 . S
C977 C978 1.379 . S
C978 H962 0.931 . S
C978 C972 1.383 . S
C978 C977 1.379 . S
H979 C973 0.959 . S
H980 C973 0.961 . S
H981 C973 0.960 . S
H982 C974 0.930 . S
H983 C975 0.929 . S
H984 C992 0.929 . S
H985 C994 0.930 . S
H986 C996 0.930 . S
H987 C999 0.929 . S
H988 C1002 0.930 . S
H989 C1004 0.960 . S
H990 C1004 0.960 . S
H991 C1004 0.960 . S
C992 H984 0.929 . S
C992 C993 1.377 . S
C992 C994 1.384 . S
C993 C992 1.377 . S
C993 C999 1.390 . S
C994 H985 0.930 . S
C994 C992 1.384 . S
C994 C995 1.372 . S
C995 C994 1.372 . S
C995 C996 1.400 . S
C995 C1000 1.490 . S
C996 H986 0.930 . S
C996 C995 1.400 . S
C996 C999 1.386 . S
H997 C1013 0.930 . S
H998 C1014 0.931 . S
C999 H987 0.929 . S
C999 C993 1.390 . S
C999 C996 1.386 . S
C1000 C995 1.490 . S
C1000 C1002 1.395 . S
C1000 C1003 1.403 . S
H1001 C1007 0.930 . S
C1002 H988 0.930 . S
C1002 C1000 1.395 . S
C1002 C1005 1.403 . S
C1003 C1000 1.403 . S
C1003 C1004 1.524 . S
C1003 C1007 1.400 . S
C1004 H989 0.960 . S
C1004 H990 0.960 . S
C1004 H991 0.960 . S
C1004 C1003 1.524 . S
C1005 C1002 1.403 . S
C1005 C1006 1.392 . S
C1005 C1009 1.495 . S
C1006 C1005 1.392 . S
C1006 C1007 1.385 . S
C1006 C1008 1.478 . S
C1007 H1001 0.930 . S
C1007 C1003 1.400 . S
C1007 C1006 1.385 . S
C1008 C1006 1.478 . S
C1008 C1010 1.381 . S
C1008 C1014 1.383 . S
C1009 C1005 1.495 . S
C1009 H1015 0.959 . S
C1009 H1016 0.961 . S
C1009 H1017 0.960 . S
C1010 C1008 1.381 . S
C1010 C1011 1.394 . S
C1010 H1018 0.930 . S
C1011 C1010 1.394 . S
C1011 C1012 1.383 . S
C1011 H1019 0.929 . S
C1012 C1011 1.383 . S
C1012 C1013 1.377 . S
C1013 H997 0.930 . S
C1013 C1012 1.377 . S
C1013 C1014 1.379 . S
C1014 H998 0.931 . S
C1014 C1008 1.383 . S
C1014 C1013 1.379 . S
H1015 C1009 0.959 . S
H1016 C1009 0.961 . S
H1017 C1009 0.960 . S
H1018 C1010 0.930 . S
H1019 C1011 0.929 . S
C165 C8 0.462 . S
C184 C96 0.567 . S
C201 C21 0.474 . S
C220 C109 0.591 . S
C237 C34 0.483 . S
C256 C83 0.564 . S
C273 C148 0.516 . S
C292 C47 0.409 . S
C309 C60 0.486 . S
C328 C122 0.471 . S
C345 C135 0.524 . S
C364 C73 0.513 . S
C381 C18 0.519 . S
C400 C86 0.480 . S
C417 C99 0.464 . S
C436 C31 0.434 . S
C453 C5 0.527 . S
C472 C112 0.540 . S
C489 C125 0.483 . S
C508 C70 0.587 . S
C525 C138 0.483 . S
C544 C44 0.538 . S
C561 C57 0.494 . S
C580 C151 0.414 . S
C597 C65 1.688 . S
C616 C0 1.688 . S
C633 C13 1.682 . S
C652 C39 1.666 . S
C669 C26 1.684 . S
C688 C52 1.668 . S
C705 C78 1.682 . S
C724 C143 1.697 . S
C741 C91 1.682 . S
C760 C117 1.692 . S
C777 C104 1.682 . S
C796 C130 1.693 . S
C813 C10 1.476 . S
C832 C88 1.467 . S
C849 C23 1.476 . S
C868 C101 1.473 . S
C885 C36 1.480 . S
C904 C114 1.496 . S
C921 C49 1.485 . S
C940 C127 1.484 . S
C957 C140 1.477 . S
C976 C62 1.481 . S
C993 C75 1.485 . S
C1012 C153 1.477 . S
