# Generated by pormake.
# Topology vmh, (6)-cn, num edge types: 1
# Building blocks:
#     Node 0, Type 0, BuildingBlock: OJICUG_clean_sbu_0, # of connection points: 6
#     Node 1, Type 0, BuildingBlock: OJICUG_clean_sbu_0, # of connection points: 6
#     Node 2, Type 0, BuildingBlock: OJICUG_clean_sbu_0, # of connection points: 6
#     Node 3, Type 0, BuildingBlock: OJICUG_clean_sbu_0, # of connection points: 6
#     Node 4, Type 0, BuildingBlock: OJICUG_clean_sbu_0, # of connection points: 6
#     Node 5, Type 0, BuildingBlock: OJICUG_clean_sbu_0, # of connection points: 6
#     Node 6, Type 0, BuildingBlock: OJICUG_clean_sbu_0, # of connection points: 6
#     Node 7, Type 0, BuildingBlock: OJICUG_clean_sbu_0, # of connection points: 6
#     Edge 8, Type (0, 0), BuildingBlock: KIFKEQ_clean_linker_1, # of connection points: 2
#     Edge 9, Type (0, 0), BuildingBlock: KIFKEQ_clean_linker_1, # of connection points: 2
#     Edge 10, Type (0, 0), BuildingBlock: KIFKEQ_clean_linker_1, # of connection points: 2
#     Edge 11, Type (0, 0), BuildingBlock: KIFKEQ_clean_linker_1, # of connection points: 2
#     Edge 12, Type (0, 0), BuildingBlock: KIFKEQ_clean_linker_1, # of connection points: 2
#     Edge 13, Type (0, 0), BuildingBlock: KIFKEQ_clean_linker_1, # of connection points: 2
#     Edge 14, Type (0, 0), BuildingBlock: KIFKEQ_clean_linker_1, # of connection points: 2
#     Edge 15, Type (0, 0), BuildingBlock: KIFKEQ_clean_linker_1, # of connection points: 2
#     Edge 16, Type (0, 0), BuildingBlock: KIFKEQ_clean_linker_1, # of connection points: 2
#     Edge 17, Type (0, 0), BuildingBlock: KIFKEQ_clean_linker_1, # of connection points: 2
#     Edge 18, Type (0, 0), BuildingBlock: KIFKEQ_clean_linker_1, # of connection points: 2
#     Edge 19, Type (0, 0), BuildingBlock: KIFKEQ_clean_linker_1, # of connection points: 2
#     Edge 20, Type (0, 0), BuildingBlock: KIFKEQ_clean_linker_1, # of connection points: 2
#     Edge 21, Type (0, 0), BuildingBlock: KIFKEQ_clean_linker_1, # of connection points: 2
#     Edge 22, Type (0, 0), BuildingBlock: KIFKEQ_clean_linker_1, # of connection points: 2
#     Edge 23, Type (0, 0), BuildingBlock: KIFKEQ_clean_linker_1, # of connection points: 2
#     Edge 24, Type (0, 0), BuildingBlock: KIFKEQ_clean_linker_1, # of connection points: 2
#     Edge 25, Type (0, 0), BuildingBlock: KIFKEQ_clean_linker_1, # of connection points: 2
#     Edge 26, Type (0, 0), BuildingBlock: KIFKEQ_clean_linker_1, # of connection points: 2
#     Edge 27, Type (0, 0), BuildingBlock: KIFKEQ_clean_linker_1, # of connection points: 2
#     Edge 28, Type (0, 0), BuildingBlock: KIFKEQ_clean_linker_1, # of connection points: 2
#     Edge 29, Type (0, 0), BuildingBlock: KIFKEQ_clean_linker_1, # of connection points: 2
#     Edge 30, Type (0, 0), BuildingBlock: KIFKEQ_clean_linker_1, # of connection points: 2
#     Edge 31, Type (0, 0), BuildingBlock: KIFKEQ_clean_linker_1, # of connection points: 2
# Relax obj value: 0.243
# Max RMSD: 0.270
# Mean RMSD: 0.270
data_MOF--net-vmh--node1-OJICUG_clean_sbu_0--edge1-KIFKEQ_clean_linker_1
_symmetry_space_group_name_H-M    P1
_symmetry_Int_Tables_number       1
_symmetry_cell_setting            triclinic
loop_
_symmetry_equiv_pos_as_xyz
'x, y, z'
_cell_length_a     28.957408
_cell_length_b     43.709668
_cell_length_c     30.818545
_cell_angle_alpha  90.014197
_cell_angle_beta   101.53517
_cell_angle_gamma 89.932549
loop_
_atom_site_label
_atom_site_type_symbol
_atom_site_fract_x
_atom_site_fract_y
_atom_site_fract_z
_atom_type_partial_charge
Sc0 Sc 0.24012 0.08488 0.09837 0.0
Sc1 Sc 0.28706 0.02249 0.05407 0.0
Sc2 Sc 0.32912 0.09492 0.04113 0.0
O3 O 0.28434 0.06722 0.0633 0.0
C4 C 0.24426 0.13604 0.02425 0.0
C5 C 0.17552 0.03652 0.04166 0.0
C6 C 0.30204 0.04663 0.96365 0.0
C7 C 0.26802 0.02195 0.14806 0.0
C8 C 0.33619 0.11661 0.13624 0.0
C9 C 0.39608 0.04201 0.07171 0.0
O10 O 0.23426 0.1283 0.06135 0.0
O11 O 0.2111 0.01862 0.04591 0.0
O12 O 0.32852 0.06802 0.9823 0.0
O13 O 0.24064 0.0448 0.13893 0.0
O14 O 0.33464 0.12558 0.09687 0.0
O15 O 0.36302 0.02264 0.05976 0.0
O16 O 0.30308 0.10009 0.14533 0.0
O17 O 0.29614 0.01354 0.12361 0.0
O18 O 0.38793 0.07016 0.07668 0.0
O19 O 0.17955 0.06492 0.05281 0.0
O20 O 0.27091 0.11982 0.00562 0.0
O21 O 0.27793 0.02977 0.98433 0.0
Sc22 Sc 0.76884 0.09611 0.3674 0.0
Sc23 Sc 0.75858 0.02545 0.4165 0.0
Sc24 Sc 0.67906 0.08305 0.42502 0.0
O25 O 0.736 0.06853 0.4034 0.0
C26 C 0.73874 0.14245 0.43856 0.0
C27 C 0.85526 0.06139 0.4246 0.0
C28 C 0.73759 0.04548 0.50683 0.0
C29 C 0.76925 0.03106 0.31961 0.0
C30 C 0.66067 0.1102 0.3277 0.0
C31 C 0.64798 0.01692 0.4062 0.0
O32 O 0.75773 0.13699 0.40529 0.0
O33 O 0.83107 0.03703 0.42079 0.0
O34 O 0.70098 0.05998 0.48768 0.0
O35 O 0.78275 0.05876 0.32573 0.0
O36 O 0.65038 0.10793 0.36569 0.0
O37 O 0.6899 0.00715 0.41744 0.0
O38 O 0.70171 0.10396 0.32054 0.0
O39 O 0.75078 0.01607 0.34718 0.0
O40 O 0.63906 0.04462 0.39588 0.0
O41 O 0.83748 0.08753 0.4117 0.0
O42 O 0.71467 0.12266 0.45434 0.0
O43 O 0.7673 0.0341 0.48599 0.0
Sc44 Sc 0.767 0.9086 0.86826 0.0
Sc45 Sc 0.75991 0.98022 0.91597 0.0
Sc46 Sc 0.69006 0.92064 0.93931 0.0
O47 O 0.73939 0.93619 0.90828 0.0
C48 C 0.65734 0.89264 0.84253 0.0
C49 C 0.75367 0.97252 0.81625 0.0
C50 C 0.65282 0.98619 0.92368 0.0
C51 C 0.85602 0.94675 0.91053 0.0
C52 C 0.75125 0.86181 0.94456 0.0
C53 C 0.75889 0.96056 0.01235 0.0
O54 O 0.69603 0.8982 0.82984 0.0
O55 O 0.73899 0.98774 0.84606 0.0
O56 O 0.6447 0.9581 0.91603 0.0
O57 O 0.83887 0.91968 0.90448 0.0
O58 O 0.73017 0.88138 0.96392 0.0
O59 O 0.78145 0.97355 0.98598 0.0
O60 O 0.76477 0.86767 0.90849 0.0
O61 O 0.83007 0.97038 0.90743 0.0
O62 O 0.72257 0.94393 -0.00058 0.0
O63 O 0.77071 0.94561 0.82276 0.0
O64 O 0.65315 0.89603 0.88254 0.0
O65 O 0.69387 0.99731 0.92817 0.0
Sc66 Sc 0.24109 0.92049 0.6037 0.0
Sc67 Sc 0.28479 0.98107 0.55239 0.0
Sc68 Sc 0.3197 0.90684 0.53584 0.0
O69 O 0.28107 0.93624 0.5629 0.0
C70 C 0.33866 0.88776 0.63506 0.0
C71 C 0.28121 0.98087 0.65122 0.0
C72 C 0.3911 0.95957 0.5555 0.0
C73 C 0.17448 0.96916 0.54949 0.0
C74 C 0.23482 0.86615 0.53306 0.0
C75 C 0.28376 0.9548 0.45841 0.0
O76 O 0.30605 0.90396 0.64608 0.0
O77 O 0.30391 0.98973 0.62233 0.0
O78 O 0.38273 0.93148 0.56036 0.0
O79 O 0.17831 0.94098 0.5618 0.0
O80 O 0.25857 0.8807 0.50963 0.0
O81 O 0.26705 0.97394 0.48235 0.0
O82 O 0.22954 0.87608 0.57067 0.0
O83 O 0.21032 0.98661 0.55205 0.0
O84 O 0.30788 0.93154 0.47418 0.0
O85 O 0.24842 0.96123 0.64301 0.0
O86 O 0.3361 0.87916 0.59519 0.0
O87 O 0.35869 0.97976 0.54911 0.0
Sc88 Sc 0.72035 0.5917 0.10838 0.0
Sc89 Sc 0.7644 0.52688 0.06671 0.0
Sc90 Sc 0.80512 0.59893 0.04524 0.0
O91 O 0.76244 0.57218 0.07229 0.0
C92 C 0.72297 0.64196 0.03281 0.0
C93 C 0.65346 0.54277 0.05392 0.0
C94 C 0.77604 0.54736 0.97222 0.0
C95 C 0.74795 0.53071 0.16247 0.0
C96 C 0.81892 0.62203 0.14087 0.0
C97 C 0.87324 0.54569 0.0806 0.0
O98 O 0.71493 0.63439 0.07059 0.0
O99 O 0.68859 0.52451 0.05824 0.0
O100 O 0.79936 0.57107 0.98692 0.0
O101 O 0.72096 0.55355 0.15217 0.0
O102 O 0.816 0.62994 0.10079 0.0
O103 O 0.8402 0.52593 0.07379 0.0
O104 O 0.78509 0.60745 0.15249 0.0
O105 O 0.77328 0.52004 0.13687 0.0
O106 O 0.86565 0.57427 0.07748 0.0
O107 O 0.65812 0.57123 0.06498 0.0
O108 O 0.74606 0.62469 0.01193 0.0
O109 O 0.75586 0.5303 -0.00382 0.0
Sc110 Sc 0.24893 0.59465 0.37751 0.0
Sc111 Sc 0.23995 0.5238 0.43084 0.0
Sc112 Sc 0.16711 0.58547 0.44607 0.0
O113 O 0.21888 0.56799 0.4182 0.0
C114 C 0.231 0.64423 0.44898 0.0
C115 C 0.33794 0.55738 0.43035 0.0
C116 C 0.22906 0.54813 0.52562 0.0
C117 C 0.2433 0.52907 0.32969 0.0
C118 C 0.13802 0.61017 0.34706 0.0
C119 C 0.13033 0.51767 0.4279 0.0
O120 O 0.25003 0.636 0.417 0.0
O121 O 0.31241 0.53477 0.43575 0.0
O122 O 0.1985 0.56813 0.50984 0.0
O123 O 0.25142 0.55763 0.3326 0.0
O124 O 0.13039 0.60451 0.38535 0.0
O125 O 0.17052 0.50597 0.42862 0.0
O126 O 0.17883 0.6069 0.33735 0.0
O127 O 0.23395 0.51325 0.36152 0.0
O128 O 0.12375 0.54612 0.43124 0.0
O129 O 0.32102 0.58283 0.41334 0.0
O130 O 0.20283 0.62727 0.46442 0.0
O131 O 0.24855 0.53059 0.50151 0.0
Sc132 Sc 0.2485 0.41175 0.87301 0.0
Sc133 Sc 0.23915 0.47841 0.93309 0.0
Sc134 Sc 0.17577 0.4132 0.94988 0.0
O135 O 0.22133 0.43432 0.91885 0.0
C136 C 0.13996 0.39214 0.84946 0.0
C137 C 0.22782 0.4785 0.83126 0.0
C138 C 0.13279 0.47803 0.94539 0.0
C139 C 0.33649 0.45056 0.9186 0.0
C140 C 0.24238 0.35825 0.94267 0.0
C141 C 0.24266 0.45078 0.02726 0.0
O142 O 0.17726 0.40042 0.8362 0.0
O143 O 0.21673 0.49159 0.86468 0.0
O144 O 0.12648 0.4499 0.93653 0.0
O145 O 0.32093 0.42367 0.90716 0.0
O146 O 0.22009 0.37413 0.96607 0.0
O147 O 0.26263 0.46711 0.00206 0.0
O148 O 0.25266 0.36807 0.90691 0.0
O149 O 0.30941 0.47274 0.92256 0.0
O150 O 0.20868 0.43268 0.01256 0.0
O151 O 0.24544 0.45178 0.83254 0.0
O152 O 0.13754 0.39221 0.89023 0.0
O153 O 0.17234 0.491 0.94791 0.0
Sc154 Sc 0.7209 0.41189 0.61166 0.0
Sc155 Sc 0.76152 0.47519 0.56398 0.0
Sc156 Sc 0.8021 0.40308 0.54533 0.0
O157 O 0.76045 0.43012 0.57255 0.0
C158 C 0.81995 0.38098 0.64258 0.0
C159 C 0.75762 0.47238 0.66259 0.0
C160 C 0.86912 0.45669 0.56723 0.0
C161 C 0.65215 0.46095 0.56152 0.0
C162 C 0.71899 0.36024 0.53705 0.0
C163 C 0.76392 0.45195 0.46986 0.0
O164 O 0.78625 0.39581 0.654 0.0
O165 O 0.78019 0.48251 0.63424 0.0
O166 O 0.86228 0.42881 0.57481 0.0
O167 O 0.65732 0.43223 0.57039 0.0
O168 O 0.74308 0.37621 0.51548 0.0
O169 O 0.74317 0.46877 0.49378 0.0
O170 O 0.71204 0.36856 0.57498 0.0
O171 O 0.68722 0.47913 0.56532 0.0
O172 O 0.79161 0.43019 0.48547 0.0
O173 O 0.72677 0.45141 0.65383 0.0
O174 O 0.81774 0.37326 0.60243 0.0
O175 O 0.83539 0.47594 0.55924 0.0
H176 H 0.23643 0.01339 0.90797 0.0
H177 H 0.36333 0.06652 0.91262 0.0
H178 H 0.23578 1.00041 0.83128 0.0
H179 H 0.36295 0.05289 0.83553 0.0
H180 H 0.30692 0.03921 0.67969 0.0
H181 H 0.31427 0.05834 0.75598 0.0
H182 H 0.29031 0.96687 0.79986 0.0
H183 H 0.28216 0.9482 0.72467 0.0
C184 C 0.26422 0.02226 0.89264 0.0
C185 C 0.30033 0.04053 0.91646 0.0
C186 C 0.26386 0.01483 0.84878 0.0
C187 C 0.29982 0.02526 0.82797 0.0
C188 C 0.33488 0.04462 0.85099 0.0
C189 C 0.33513 0.05225 0.89503 0.0
C190 C 0.30395 0.02335 0.70599 0.0
C191 C 0.2929 0.9925 0.69657 0.0
C192 C 0.30811 0.03419 0.74936 0.0
C193 C 0.30156 0.01413 0.78328 0.0
C194 C 0.29403 0.98294 0.77401 0.0
C195 C 0.28951 0.97228 0.73108 0.0
H196 H 0.72402 0.03019 0.7876 0.0
H197 H 0.7825 0.94646 0.74612 0.0
H198 H 0.72486 0.05267 0.71504 0.0
H199 H 0.78257 0.96865 0.67438 0.0
H200 H 0.81496 0.0218 0.56217 0.0
H201 H 0.8224 0.00864 0.64004 0.0
H202 H 0.68238 0.04377 0.63773 0.0
H203 H 0.67511 0.05754 0.56025 0.0
C204 C 0.73699 0.01661 0.76316 0.0
C205 C 0.75315 0.98655 0.77267 0.0
C206 C 0.73747 0.02947 0.72173 0.0
C207 C 0.75428 0.01248 0.68939 0.0
C208 C 0.77043 0.98253 0.69902 0.0
C209 C 0.76989 0.96972 0.74011 0.0
C210 C 0.78595 0.02701 0.57837 0.0
C211 C 0.74417 0.04024 0.55488 0.0
C212 C 0.79022 0.01948 0.6229 0.0
C213 C 0.75273 0.02489 0.64464 0.0
C214 C 0.71195 0.03956 0.62185 0.0
C215 C 0.70772 0.04722 0.57736 0.0
H216 H 0.71434 0.98694 0.27287 0.0
H217 H 0.83893 0.04146 0.27441 0.0
H218 H 0.72046 0.96644 0.20079 0.0
H219 H 0.84683 0.0198 0.2035 0.0
H220 H 0.79879 0.01234 0.05195 0.0
H221 H 0.80815 0.02589 0.12969 0.0
H222 H 0.76073 0.93559 0.15814 0.0
H223 H 0.74904 0.92277 0.07978 0.0
C224 C 0.74362 0.99397 0.25813 0.0
C225 C 0.77572 0.01605 0.27865 0.0
C226 C 0.74744 0.98208 0.21699 0.0
C227 C 0.78402 0.99165 0.19612 0.0
C228 C 0.81761 0.0125 0.21809 0.0
C229 C 0.81321 0.02482 0.25873 0.0
C230 C 0.79125 0.99526 0.07503 0.0
C231 C 0.77265 0.96671 0.05999 0.0
C232 C 0.79678 0.00292 0.11967 0.0
C233 C 0.78463 0.98193 0.15017 0.0
C234 C 0.76923 0.95256 0.13538 0.0
C235 C 0.76284 0.94513 0.09062 0.0
H236 H 0.19358 0.01679 0.18828 0.0
H237 H 0.33905 0.98953 0.19979 0.0
H238 H 0.19314 0.99539 0.26097 0.0
H239 H 0.33902 0.96873 0.27344 0.0
H240 H 0.23794 0.00279 0.41202 0.0
H241 H 0.23121 0.01385 0.33389 0.0
H242 H 0.30601 0.93035 0.31759 0.0
H243 H 0.31375 0.91942 0.39622 0.0
C244 C 0.22539 0.00601 0.20635 0.0
C245 C 0.26664 0.00523 0.18898 0.0
C246 C 0.22512 0.99383 0.2479 0.0
C247 C 0.26625 0.98095 0.27304 0.0
C248 C 0.30675 0.97844 0.25458 0.0
C249 C 0.30687 0.9904 0.21262 0.0
C250 C 0.25265 0.98662 0.39182 0.0
C251 C 0.27663 0.96035 0.41041 0.0
C252 C 0.24849 0.99285 0.34696 0.0
C253 C 0.26801 0.97287 0.31975 0.0
C254 C 0.29103 0.94623 0.33799 0.0
C255 C 0.29526 0.93998 0.38295 0.0
H256 H 0.75533 0.44093 0.73692 0.0
H257 H 0.78025 0.53126 0.68967 0.0
H258 H 0.76174 0.46075 0.81133 0.0
H259 H 0.78523 0.55162 0.76474 0.0
H260 H 0.83236 0.5673 0.91671 0.0
H261 H 0.83125 0.55044 0.84105 0.0
H262 H 0.71191 0.49231 0.84664 0.0
H263 H 0.71385 0.50836 0.92244 0.0
C264 C 0.76208 0.46514 0.7426 0.0
C265 C 0.76653 0.48475 0.70767 0.0
C266 C 0.76549 0.47651 0.78513 0.0
C267 C 0.77277 0.50784 0.79358 0.0
C268 C 0.77948 0.52735 0.75904 0.0
C269 C 0.77663 0.51579 0.71624 0.0
C270 C 0.80574 0.55104 0.90163 0.0
C271 C 0.77351 0.53884 0.92562 0.0
C272 C 0.80504 0.54152 0.85829 0.0
C273 C 0.77193 0.5198 0.83822 0.0
C274 C 0.73862 0.50853 0.86169 0.0
C275 C 0.73958 0.5178 0.90503 0.0
H276 H 0.20334 0.58521 0.58818 0.0
H277 H 0.27493 0.50017 0.57258 0.0
H278 H 0.2032 0.57216 0.66503 0.0
H279 H 0.27529 0.48755 0.64963 0.0
H280 H 0.19649 0.45323 0.75166 0.0
H281 H 0.20289 0.47403 0.68006 0.0
H282 H 0.25376 0.55948 0.74216 0.0
H283 H 0.24709 0.53838 0.81476 0.0
C284 C 0.21991 0.56403 0.60135 0.0
C285 C 0.23818 0.54333 0.57398 0.0
C286 C 0.22 0.55673 0.64542 0.0
C287 C 0.23826 0.52862 0.66272 0.0
C288 C 0.2601 0.50914 0.63657 0.0
C289 C 0.26015 0.51644 0.59257 0.0
C290 C 0.20832 0.47664 0.74995 0.0
C291 C 0.22173 0.4942 0.7885 0.0
C292 C 0.21249 0.48839 0.70913 0.0
C293 C 0.23028 0.51794 0.70598 0.0
C294 C 0.24048 0.53646 0.74402 0.0
C295 C 0.23625 0.52459 0.78529 0.0
H296 H 0.24845 0.55684 0.25198 0.0
H297 H 0.24725 0.46747 0.31207 0.0
H298 H 0.25835 0.53338 0.18346 0.0
H299 H 0.25797 0.44381 0.2427 0.0
H300 H 0.30776 0.49046 0.07352 0.0
H301 H 0.31543 0.50539 0.1508 0.0
H302 H 0.21203 0.4375 0.16741 0.0
H303 H 0.20534 0.42189 0.09091 0.0
C304 C 0.25059 0.53212 0.25071 0.0
C305 C 0.24703 0.51402 0.2876 0.0
C306 C 0.25686 0.51869 0.21145 0.0
C307 C 0.25985 0.48678 0.20792 0.0
C308 C 0.25589 0.4685 0.24456 0.0
C309 C 0.24953 0.48202 0.28414 0.0
C310 C 0.28751 0.47821 0.0939 0.0
C311 C 0.25509 0.45552 0.07569 0.0
C312 C 0.29172 0.48687 0.13811 0.0
C313 C 0.26347 0.47309 0.1648 0.0
C314 C 0.23426 0.44856 0.14772 0.0
C315 C 0.23021 0.43979 0.10364 0.0
H316 H 0.77861 0.47322 0.19037 0.0
H317 H 0.72063 0.55659 0.23308 0.0
H318 H 0.77847 0.4503 0.26277 0.0
H319 H 0.72202 0.53434 0.30511 0.0
H320 H 0.82425 0.43846 0.4152 0.0
H321 H 0.81849 0.45488 0.33884 0.0
H322 H 0.6836 0.49685 0.34087 0.0
H323 H 0.69039 0.48153 0.41783 0.0
C324 C 0.76611 0.48665 0.21524 0.0
C325 C 0.74935 0.51658 0.20603 0.0
C326 C 0.76608 0.47359 0.25663 0.0
C327 C 0.74971 0.4904 0.28947 0.0
C328 C 0.7336 0.52044 0.2802 0.0
C329 C 0.73316 0.5333 0.23894 0.0
C330 C 0.79315 0.45092 0.39912 0.0
C331 C 0.75803 0.45912 0.4225 0.0
C332 C 0.78974 0.46017 0.35531 0.0
C333 C 0.75086 0.47745 0.334 0.0
C334 C 0.71456 0.48419 0.35677 0.0
C335 C 0.71832 0.47536 0.40074 0.0
H336 H 0.47226 0.07979 0.07626 0.0
H337 H 0.42851 0.98541 0.05476 0.0
H338 H 0.53738 0.07048 0.03908 0.0
H339 H 0.4947 0.97603 0.01894 0.0
H340 H 0.55798 0.97979 0.89959 0.0
H341 H 0.50137 0.99421 0.94469 0.0
H342 H 0.61037 0.04345 0.03379 0.0
H343 H 0.66674 0.02974 0.98792 0.0
C344 C 0.47744 0.05677 0.06508 0.0
C345 C 0.44407 0.03359 0.06681 0.0
C346 C 0.51475 0.05153 0.04363 0.0
C347 C 0.51957 0.02295 0.02438 0.0
C348 C 0.49036 0.99868 0.03186 0.0
C349 C 0.45287 0.00394 0.05296 0.0
C350 C 0.56936 0.99458 0.92793 0.0
C351 C 0.61666 0.00342 0.94053 0.0
C352 C 0.53731 0.00234 0.95421 0.0
C353 C 0.55214 0.01883 -0.00633 0.0
C354 C 0.59824 0.03036 0.00383 0.0
C355 C 0.63031 0.02282 0.97725 0.0
H356 H 0.42177 0.01566 0.53412 0.0
H357 H 0.46488 0.92094 0.55317 0.0
H358 H 0.4854 0.02464 0.49488 0.0
H359 H 0.52714 0.92977 0.51244 0.0
H360 H 0.65774 0.97001 0.46542 0.0
H361 H 0.59944 0.95533 0.50808 0.0
H362 H 0.49426 0.00893 0.42101 0.0
H363 H 0.55316 0.02464 0.37915 0.0
C364 C 0.44533 0.99692 0.5308 0.0
C365 C 0.4374 0.96741 0.54566 0.0
C366 C 0.48125 0.00193 0.50764 0.0
C367 C 0.50975 0.97754 0.49894 0.0
C368 C 0.50519 0.94887 0.51802 0.0
C369 C 0.46953 0.9439 0.54153 0.0
C370 C 0.62181 0.97785 0.45434 0.0
C371 C 0.61017 0.99906 0.41952 0.0
C372 C 0.58849 0.96959 0.47911 0.0
C373 C 0.54292 0.982 0.46888 0.0
C374 C 0.52979 1.00008 0.43068 0.0
C375 C 0.56321 0.00862 0.40622 0.0
H376 H 0.95163 0.58112 0.08402 0.0
H377 H 0.90514 0.48687 0.07851 0.0
H378 H 0.01937 0.5663 0.05377 0.0
H379 H 0.97433 0.47195 0.05008 0.0
H380 H 0.0388 0.46623 0.92893 0.0
H381 H 0.98347 0.48204 0.97451 0.0
H382 H 0.09112 0.53854 0.05328 0.0
H383 H 0.14601 0.52353 0.00672 0.0
C384 C 0.95675 0.55705 0.07798 0.0
C385 C 0.92181 0.53533 0.08147 0.0
C386 C 0.99574 0.54858 0.06067 0.0
C387 C 1.00069 0.51823 0.0476 0.0
C388 C 0.96998 0.49578 0.05807 0.0
C389 C 0.93069 0.50428 0.07488 0.0
C390 C 0.0502 0.48262 0.95528 0.0
C391 C 0.09657 0.49363 0.96433 0.0
C392 C 0.01894 0.49118 0.98195 0.0
C393 C 0.03365 0.51064 0.01842 0.0
C394 C 0.07903 0.52329 0.02566 0.0
C395 C 0.11022 0.51497 -0.00137 0.0
H396 H 0.13772 0.46833 0.48149 0.0
H397 H 0.03694 0.52453 0.39417 0.0
H398 H 0.07633 0.45166 0.51947 0.0
H399 H 0.97465 0.50663 0.43057 0.0
H400 H 0.89725 0.51232 0.54136 0.0
H401 H 0.96074 0.52112 0.50188 0.0
H402 H 0.0047 0.42681 0.523 0.0
H403 H 0.94303 0.41837 0.56441 0.0
C404 C 0.10183 0.47574 0.46883 0.0
C405 C 0.09193 0.49798 0.43541 0.0
C406 C 0.0667 0.46644 0.49091 0.0
C407 C 0.02112 0.47885 0.47912 0.0
C408 C 0.00999 0.49774 0.44156 0.0
C409 C 0.04528 0.50746 0.42007 0.0
C410 C 0.92124 0.4937 0.53865 0.0
C411 C 0.91444 0.46454 0.55527 0.0
C412 C 0.95703 0.49854 0.51525 0.0
C413 C 0.98642 0.47427 0.50774 0.0
C414 C 0.98227 0.44586 0.52771 0.0
C415 C 0.94692 0.44112 0.55164 0.0
H416 H 0.1543 0.97572 0.03278 0.0
H417 H 0.08986 0.0649 0.00842 0.0
H418 H 0.08051 0.95151 -0.00086 0.0
H419 H 0.01508 0.04032 0.97499 0.0
H420 H 0.90382 0.99043 0.87633 0.0
H421 H 0.98062 0.0117 0.90865 0.0
H422 H 1.00052 0.94093 0.00841 0.0
H423 H 0.92305 0.91943 0.97541 0.0
C424 C 0.12431 0.99032 0.0204 0.0
C425 C 0.1285 0.0225 0.02318 0.0
C426 C 0.08169 0.97624 0.00129 0.0
C427 C 0.04165 0.99378 0.98397 0.0
C428 C 0.04537 0.02599 0.98735 0.0
C429 C 0.08818 0.04016 0.00686 0.0
C430 C 0.92515 0.97887 0.90448 0.0
C431 C 0.90745 0.95302 0.92302 0.0
C432 C 0.96892 0.99143 0.92351 0.0
C433 C 0.99655 0.97859 0.96185 0.0
C434 C 0.98026 0.95151 0.97889 0.0
C435 C 0.93609 0.93888 0.95971 0.0
H436 H 0.88591 0.03949 0.50676 0.0
H437 H 0.93582 0.07041 0.39165 0.0
H438 H 0.96294 0.01734 0.53702 0.0
H439 H 0.01339 0.04791 0.42161 0.0
H440 H 0.15794 0.02383 0.50649 0.0
H441 H 0.08374 0.0495 0.47902 0.0
H442 H 0.00907 0.97345 0.52192 0.0
H443 H 0.0843 0.94757 0.55048 0.0
C444 C 0.91403 0.04241 0.4886 0.0
C445 C 0.90512 0.05733 0.44728 0.0
C446 C 0.95796 0.02914 0.50553 0.0
C447 C 0.9944 0.03022 0.48154 0.0
C448 C 0.98632 0.04667 0.44122 0.0
C449 C 0.94206 0.05998 0.42418 0.0
C450 C 0.12587 0.01235 0.51033 0.0
C451 C 0.12753 0.98349 0.53124 0.0
C452 C 0.08305 0.02717 0.4941 0.0
C453 C 0.04013 0.0138 0.49824 0.0
C454 C 0.04146 0.98475 0.51867 0.0
C455 C 0.0846 0.96972 0.5348 0.0
H456 H 0.40681 0.42207 0.97834 0.0
H457 H 0.37967 0.49825 0.8881 0.0
H458 H 0.48295 0.44463 0.01236 0.0
H459 H 0.45564 0.52057 0.92108 0.0
H460 H 0.56685 0.57119 0.02284 0.0
H461 H 0.49251 0.54664 0.9877 0.0
H462 H 0.56035 0.45822 0.0048 0.0
H463 H 0.6331 0.48219 0.04047 0.0
C464 C 0.41798 0.44295 0.96457 0.0
C465 C 0.38753 0.45808 0.93006 0.0
C466 C 0.46144 0.4562 0.98438 0.0
C467 C 0.4754 0.4849 0.97014 0.0
C468 C 0.44588 0.49897 0.93387 0.0
C469 C 0.40265 0.48582 0.9143 0.0
C470 C 0.5657 0.54653 0.01943 0.0
C471 C 0.60642 0.52894 0.03454 0.0
C472 C 0.52316 0.53237 -0.00114 0.0
C473 C 0.52017 0.50026 -0.00698 0.0
C474 C 0.56071 0.48283 0.00893 0.0
C475 C 0.60288 0.49684 0.02927 0.0
H476 H 0.62803 0.5206 0.56873 0.0
H477 H 0.56892 0.43425 0.51705 0.0
H478 H 0.55576 0.54667 0.53516 0.0
H479 H 0.49531 0.46057 0.48375 0.0
H480 H 0.38982 0.51949 0.39041 0.0
H481 H 0.46494 0.49575 0.42372 0.0
H482 H 0.47429 0.5545 0.53784 0.0
H483 H 0.39913 0.57841 0.50379 0.0
C484 C 0.59931 0.507 0.55055 0.0
C485 C 0.60467 0.47516 0.54554 0.0
C486 C 0.55755 0.52209 0.53138 0.0
C487 C 0.51948 0.50598 0.50623 0.0
C488 C 0.52412 0.47392 0.50223 0.0
C489 C 0.56611 0.45868 0.52181 0.0
C490 C 0.40898 0.52818 0.42182 0.0
C491 C 0.38929 0.55156 0.44378 0.0
C492 C 0.45155 0.51405 0.44146 0.0
C493 C 0.47565 0.5227 0.48394 0.0
C494 C 0.45709 0.54725 0.50499 0.0
C495 C 0.41429 0.56137 0.48525 0.0
H496 H 0.39907 0.16387 0.14362 0.0
H497 H 0.37853 0.07521 0.19825 0.0
H498 H 0.48044 0.16471 0.18574 0.0
H499 H 0.46033 0.0757 0.23933 0.0
H500 H 0.62348 0.07251 0.25937 0.0
H501 H 0.54356 0.07557 0.21391 0.0
H502 H 0.52433 0.16374 0.27063 0.0
H503 H 0.60354 0.16016 0.31699 0.0
C504 C 0.41165 0.14483 0.16529 0.0
C505 C 0.38198 0.11971 0.16812 0.0
C506 C 0.45836 0.14522 0.18913 0.0
C507 C 0.47703 0.12011 0.21539 0.0
C508 C 0.44712 0.09526 0.21898 0.0
C509 C 0.40003 0.0952 0.19602 0.0
C510 C 0.60281 0.09303 0.26083 0.0
C511 C 0.62021 0.11644 0.29093 0.0
C512 C 0.55677 0.09454 0.23545 0.0
C513 C 0.52744 0.11977 0.23904 0.0
C514 C 0.54602 0.14406 0.26703 0.0
C515 C 0.59156 0.14218 0.29319 0.0
H516 H 0.63752 0.89856 0.75102 0.0
H517 H 0.57558 0.86992 0.86079 0.0
H518 H 0.56016 0.89387 0.70145 0.0
H519 H 0.49914 0.86545 0.81171 0.0
H520 H 0.3624 0.90397 0.72331 0.0
H521 H 0.4402 0.9015 0.77182 0.0
H522 H 0.49631 0.8578 0.66787 0.0
H523 H 0.41884 0.86011 0.61946 0.0
C524 C 0.60784 0.89067 0.76447 0.0
C525 C 0.61311 0.88485 0.81011 0.0
C526 C 0.56336 0.88808 0.73608 0.0
C527 C 0.52308 0.87975 0.75269 0.0
C528 C 0.52897 0.87256 0.79785 0.0
C529 C 0.57316 0.87495 0.82599 0.0
C530 C 0.39101 0.89326 0.71102 0.0
C531 C 0.38384 0.88209 0.66737 0.0
C532 C 0.4358 0.8919 0.73885 0.0
C533 C 0.47482 0.87961 0.72372 0.0
C534 C 0.46737 0.86776 0.68051 0.0
C535 C 0.42259 0.86882 0.65288 0.0
H536 H 0.84294 0.60811 0.23003 0.0
H537 H 0.90162 0.64306 0.12161 0.0
H538 H 0.92164 0.60846 0.27728 0.0
H539 H 0.97991 0.64319 0.16868 0.0
H540 H 0.11846 0.60048 0.25602 0.0
H541 H 0.04133 0.60612 0.20582 0.0
H542 H 0.98356 0.64416 0.31278 0.0
H543 H 0.05961 0.63876 0.36223 0.0
C544 C 0.87232 0.61634 0.21641 0.0
C545 C 0.86542 0.62583 0.17199 0.0
C546 C 0.9176 0.61649 0.24349 0.0
C547 C 0.95738 0.62577 0.22679 0.0
C548 C 0.95036 0.63561 0.18259 0.0
C549 C 0.90512 0.63584 0.15573 0.0
C550 C 0.08959 0.61075 0.26841 0.0
C551 C 0.0954 0.61894 0.31331 0.0
C552 C 0.04524 0.61383 0.23976 0.0
C553 C 0.0058 0.62504 0.25548 0.0
C554 C 0.01259 0.63474 0.2997 0.0
C555 C 0.05655 0.63184 0.32801 0.0
H556 H 0.90254 0.35735 0.62597 0.0
H557 H 0.84258 0.39609 0.73129 0.0
H558 H 0.98022 0.35721 0.67424 0.0
H559 H 0.92056 0.39588 0.77963 0.0
H560 H 0.05898 0.36782 0.86764 0.0
H561 H 0.98268 0.36211 0.81874 0.0
H562 H 0.0412 0.39437 0.7089 0.0
H563 H 0.11845 0.40023 0.75825 0.0
C564 C 0.9056 0.36537 0.65967 0.0
C565 C 0.86575 0.37653 0.67462 0.0
C566 C 0.9505 0.36561 0.68724 0.0
C567 C 0.95703 0.3767 0.73086 0.0
C568 C 0.91699 0.3869 0.74637 0.0
C569 C 0.87207 0.38696 0.71863 0.0
C570 C 0.05607 0.3735 0.83299 0.0
C571 C 0.09535 0.38468 0.81717 0.0
C572 C 0.0119 0.37039 0.80493 0.0
C573 C 0.0053 0.37813 0.75988 0.0
C574 C 0.0449 0.38805 0.7434 0.0
C575 C 0.08934 0.39137 0.7717 0.0
H576 H 0.20137 0.18342 0.06002 0.0
H577 H 0.26596 0.16014 0.94939 0.0
H578 H 0.20043 0.23717 0.03849 0.0
H579 H 0.26809 0.21338 0.92998 0.0
H580 H 0.23721 0.31079 0.88524 0.0
H581 H 0.22966 0.25693 0.90158 0.0
H582 H 0.2535 0.27782 0.04158 0.0
H583 H 0.2579 0.33206 0.02457 0.0
C584 C 0.2148 0.18966 0.03087 0.0
C585 C 0.23419 0.16744 0.00683 0.0
C586 C 0.21504 0.22055 0.01891 0.0
C587 C 0.2352 0.22986 0.98303 0.0
C588 C 0.25196 0.20732 0.95759 0.0
C589 C 0.25094 0.17657 0.96898 0.0
C590 C 0.24183 0.30375 0.91955 0.0
C591 C 0.2485 0.32553 0.95367 0.0
C592 C 0.23728 0.27282 0.92901 0.0
C593 C 0.24043 0.26285 0.97296 0.0
C594 C 0.24946 0.28463 0.00726 0.0
C595 C 0.25291 0.31566 -0.00234 0.0
H596 H 0.69769 0.16198 0.50598 0.0
H597 H 0.77865 0.19451 0.41163 0.0
H598 H 0.68622 0.21398 0.52824 0.0
H599 H 0.76898 0.24691 0.43573 0.0
H600 H 0.70496 0.33853 0.45261 0.0
H601 H 0.70989 0.2854 0.43008 0.0
H602 H 0.7222 0.25683 0.56625 0.0
H603 H 0.71531 0.30981 0.58827 0.0
C604 C 0.71391 0.18019 0.49046 0.0
C605 C 0.73893 0.17393 0.45666 0.0
C606 C 0.70736 0.21015 0.50347 0.0
C607 C 0.72614 0.23479 0.48351 0.0
C608 C 0.75296 0.22854 0.45106 0.0
C609 C 0.75914 0.19844 0.43765 0.0
C610 C 0.7074 0.32076 0.47748 0.0
C611 C 0.70968 0.32832 0.52218 0.0
C612 C 0.71105 0.29035 0.46472 0.0
C613 C 0.71762 0.26681 0.49645 0.0
C614 C 0.71698 0.27427 0.5408 0.0
C615 C 0.71271 0.30469 0.55347 0.0
H616 H 0.71336 0.84055 0.01279 0.0
H617 H 0.79039 0.8106 0.91382 0.0
H618 H 0.70136 0.78821 0.03195 0.0
H619 H 0.78093 0.75755 0.93531 0.0
H620 H 0.71566 0.66519 0.94938 0.0
H621 H 0.72428 0.71856 0.92938 0.0
H622 H 0.73395 0.74464 0.06635 0.0
H623 H 0.72252 0.69183 0.08545 0.0
C624 C 0.72891 0.82281 -0.00424 0.0
C625 C 0.75272 0.82996 0.96145 0.0
C626 C 0.72208 0.79254 0.007 0.0
C627 C 0.73975 0.76838 0.98504 0.0
C628 C 0.76571 0.77549 0.95222 0.0
C629 C 0.77185 0.80595 0.94033 0.0
C630 C 0.71834 0.68254 0.97487 0.0
C631 C 0.718 0.67434 0.01889 0.0
C632 C 0.72416 0.71308 0.96361 0.0
C633 C 0.73064 0.73605 -0.00371 0.0
C634 C 0.72847 0.72783 0.04002 0.0
C635 C 0.7217 0.69743 0.05106 0.0
H636 H 0.19471 0.66862 0.51637 0.0
H637 H 0.27785 0.69224 0.41924 0.0
H638 H 0.1901 0.72192 0.53565 0.0
H639 H 0.2752 0.74595 0.44041 0.0
H640 H 0.21927 0.8412 0.45043 0.0
H641 H 0.2199 0.78702 0.43205 0.0
H642 H 0.2311 0.76426 0.57033 0.0
H643 H 0.22847 0.81832 0.58823 0.0
C644 C 0.21291 0.68512 0.49965 0.0
C645 C 0.23631 0.67606 0.46582 0.0
C646 C 0.21036 0.71583 0.51095 0.0
C647 C 0.2317 0.73837 0.48923 0.0
C648 C 0.25728 0.72923 0.45702 0.0
C649 C 0.25944 0.69839 0.44531 0.0
C650 C 0.22062 0.82453 0.47667 0.0
C651 C 0.22373 0.83399 0.52075 0.0
C652 C 0.22181 0.7935 0.46628 0.0
C653 C 0.22666 0.77124 0.49981 0.0
C654 C 0.22711 0.78071 0.54357 0.0
C655 C 0.22531 0.81175 0.55387 0.0
loop_
_geom_bond_atom_site_label_1
_geom_bond_atom_site_label_2
_geom_bond_distance
_geom_bond_site_symmetry_2
_ccdc_geom_bond_type
Sc0 O3 2.025 . S
Sc0 O10 2.105 . S
Sc0 O13 2.105 . S
Sc0 O16 2.105 . S
Sc0 O19 2.105 . S
Sc1 O3 2.025 . S
Sc1 O11 2.105 . S
Sc1 O15 2.105 . S
Sc1 O17 2.105 . S
Sc1 O21 2.105 1_554 S
Sc2 O3 2.025 . S
Sc2 O12 2.105 1_554 S
Sc2 O14 2.105 . S
Sc2 O18 2.105 . S
Sc2 O20 2.105 . S
O3 Sc0 2.025 . S
O3 Sc1 2.025 . S
O3 Sc2 2.025 . S
C4 O10 1.268 . S
C4 O20 1.268 . S
C5 O11 1.268 . S
C5 O19 1.268 . S
C6 O12 1.268 . S
C6 O21 1.268 . S
C7 O13 1.268 . S
C7 O17 1.268 . S
C8 O14 1.268 . S
C8 O16 1.268 . S
C9 O15 1.268 . S
C9 O18 1.268 . S
O10 Sc0 2.105 . S
O10 C4 1.268 . S
O11 Sc1 2.105 . S
O11 C5 1.268 . S
O12 Sc2 2.105 1_556 S
O12 C6 1.268 . S
O13 Sc0 2.105 . S
O13 C7 1.268 . S
O14 Sc2 2.105 . S
O14 C8 1.268 . S
O15 Sc1 2.105 . S
O15 C9 1.268 . S
O16 Sc0 2.105 . S
O16 C8 1.268 . S
O17 Sc1 2.105 . S
O17 C7 1.268 . S
O18 Sc2 2.105 . S
O18 C9 1.268 . S
O19 Sc0 2.105 . S
O19 C5 1.268 . S
O20 Sc2 2.105 . S
O20 C4 1.268 . S
O21 Sc1 2.105 1_556 S
O21 C6 1.268 . S
Sc22 O25 2.025 . S
Sc22 O32 2.105 . S
Sc22 O35 2.105 . S
Sc22 O38 2.105 . S
Sc22 O41 2.105 . S
Sc23 O25 2.025 . S
Sc23 O33 2.105 . S
Sc23 O37 2.105 . S
Sc23 O39 2.105 . S
Sc23 O43 2.105 . S
Sc24 O25 2.025 . S
Sc24 O34 2.105 . S
Sc24 O36 2.105 . S
Sc24 O40 2.105 . S
Sc24 O42 2.105 . S
O25 Sc22 2.025 . S
O25 Sc23 2.025 . S
O25 Sc24 2.025 . S
C26 O32 1.268 . S
C26 O42 1.268 . S
C27 O33 1.268 . S
C27 O41 1.268 . S
C28 O34 1.268 . S
C28 O43 1.268 . S
C29 O35 1.268 . S
C29 O39 1.268 . S
C30 O36 1.268 . S
C30 O38 1.268 . S
C31 O37 1.268 . S
C31 O40 1.268 . S
O32 Sc22 2.105 . S
O32 C26 1.268 . S
O33 Sc23 2.105 . S
O33 C27 1.268 . S
O34 Sc24 2.105 . S
O34 C28 1.268 . S
O35 Sc22 2.105 . S
O35 C29 1.268 . S
O36 Sc24 2.105 . S
O36 C30 1.268 . S
O37 Sc23 2.105 . S
O37 C31 1.268 . S
O38 Sc22 2.105 . S
O38 C30 1.268 . S
O39 Sc23 2.105 . S
O39 C29 1.268 . S
O40 Sc24 2.105 . S
O40 C31 1.268 . S
O41 Sc22 2.105 . S
O41 C27 1.268 . S
O42 Sc24 2.105 . S
O42 C26 1.268 . S
O43 Sc23 2.105 . S
O43 C28 1.268 . S
Sc44 O47 2.025 . S
Sc44 O54 2.105 . S
Sc44 O57 2.105 . S
Sc44 O60 2.105 . S
Sc44 O63 2.105 . S
Sc45 O47 2.025 . S
Sc45 O55 2.105 . S
Sc45 O59 2.105 1_556 S
Sc45 O61 2.105 . S
Sc45 O65 2.105 . S
Sc46 O47 2.025 . S
Sc46 O56 2.105 . S
Sc46 O58 2.105 . S
Sc46 O62 2.105 1_556 S
Sc46 O64 2.105 . S
O47 Sc44 2.025 . S
O47 Sc45 2.025 . S
O47 Sc46 2.025 . S
C48 O54 1.268 . S
C48 O64 1.268 . S
C49 O55 1.268 . S
C49 O63 1.268 . S
C50 O56 1.268 . S
C50 O65 1.268 . S
C51 O57 1.268 . S
C51 O61 1.268 . S
C52 O58 1.268 . S
C52 O60 1.268 . S
C53 O59 1.268 . S
C53 O62 1.268 . S
O54 Sc44 2.105 . S
O54 C48 1.268 . S
O55 Sc45 2.105 . S
O55 C49 1.268 . S
O56 Sc46 2.105 . S
O56 C50 1.268 . S
O57 Sc44 2.105 . S
O57 C51 1.268 . S
O58 Sc46 2.105 . S
O58 C52 1.268 . S
O59 Sc45 2.105 1_554 S
O59 C53 1.268 . S
O60 Sc44 2.105 . S
O60 C52 1.268 . S
O61 Sc45 2.105 . S
O61 C51 1.268 . S
O62 Sc46 2.105 1_554 S
O62 C53 1.268 . S
O63 Sc44 2.105 . S
O63 C49 1.268 . S
O64 Sc46 2.105 . S
O64 C48 1.268 . S
O65 Sc45 2.105 . S
O65 C50 1.268 . S
Sc66 O69 2.025 . S
Sc66 O76 2.105 . S
Sc66 O79 2.105 . S
Sc66 O82 2.105 . S
Sc66 O85 2.105 . S
Sc67 O69 2.025 . S
Sc67 O77 2.105 . S
Sc67 O81 2.105 . S
Sc67 O83 2.105 . S
Sc67 O87 2.105 . S
Sc68 O69 2.025 . S
Sc68 O78 2.105 . S
Sc68 O80 2.105 . S
Sc68 O84 2.105 . S
Sc68 O86 2.105 . S
O69 Sc66 2.025 . S
O69 Sc67 2.025 . S
O69 Sc68 2.025 . S
C70 O76 1.268 . S
C70 O86 1.268 . S
C71 O77 1.268 . S
C71 O85 1.268 . S
C72 O78 1.268 . S
C72 O87 1.268 . S
C73 O79 1.268 . S
C73 O83 1.268 . S
C74 O80 1.268 . S
C74 O82 1.268 . S
C75 O81 1.268 . S
C75 O84 1.268 . S
O76 Sc66 2.105 . S
O76 C70 1.268 . S
O77 Sc67 2.105 . S
O77 C71 1.268 . S
O78 Sc68 2.105 . S
O78 C72 1.268 . S
O79 Sc66 2.105 . S
O79 C73 1.268 . S
O80 Sc68 2.105 . S
O80 C74 1.268 . S
O81 Sc67 2.105 . S
O81 C75 1.268 . S
O82 Sc66 2.105 . S
O82 C74 1.268 . S
O83 Sc67 2.105 . S
O83 C73 1.268 . S
O84 Sc68 2.105 . S
O84 C75 1.268 . S
O85 Sc66 2.105 . S
O85 C71 1.268 . S
O86 Sc68 2.105 . S
O86 C70 1.268 . S
O87 Sc67 2.105 . S
O87 C72 1.268 . S
Sc88 O91 2.025 . S
Sc88 O98 2.105 . S
Sc88 O101 2.105 . S
Sc88 O104 2.105 . S
Sc88 O107 2.105 . S
Sc89 O91 2.025 . S
Sc89 O99 2.105 . S
Sc89 O103 2.105 . S
Sc89 O105 2.105 . S
Sc89 O109 2.105 1_554 S
Sc90 O91 2.025 . S
Sc90 O100 2.105 1_554 S
Sc90 O102 2.105 . S
Sc90 O106 2.105 . S
Sc90 O108 2.105 . S
O91 Sc88 2.025 . S
O91 Sc89 2.025 . S
O91 Sc90 2.025 . S
C92 O98 1.268 . S
C92 O108 1.268 . S
C93 O99 1.268 . S
C93 O107 1.268 . S
C94 O100 1.268 . S
C94 O109 1.268 . S
C95 O101 1.268 . S
C95 O105 1.268 . S
C96 O102 1.268 . S
C96 O104 1.268 . S
C97 O103 1.268 . S
C97 O106 1.268 . S
O98 Sc88 2.105 . S
O98 C92 1.268 . S
O99 Sc89 2.105 . S
O99 C93 1.268 . S
O100 Sc90 2.105 1_556 S
O100 C94 1.268 . S
O101 Sc88 2.105 . S
O101 C95 1.268 . S
O102 Sc90 2.105 . S
O102 C96 1.268 . S
O103 Sc89 2.105 . S
O103 C97 1.268 . S
O104 Sc88 2.105 . S
O104 C96 1.268 . S
O105 Sc89 2.105 . S
O105 C95 1.268 . S
O106 Sc90 2.105 . S
O106 C97 1.268 . S
O107 Sc88 2.105 . S
O107 C93 1.268 . S
O108 Sc90 2.105 . S
O108 C92 1.268 . S
O109 Sc89 2.105 1_556 S
O109 C94 1.268 . S
Sc110 O113 2.025 . S
Sc110 O120 2.105 . S
Sc110 O123 2.105 . S
Sc110 O126 2.105 . S
Sc110 O129 2.105 . S
Sc111 O113 2.025 . S
Sc111 O121 2.105 . S
Sc111 O125 2.105 . S
Sc111 O127 2.105 . S
Sc111 O131 2.105 . S
Sc112 O113 2.025 . S
Sc112 O122 2.105 . S
Sc112 O124 2.105 . S
Sc112 O128 2.105 . S
Sc112 O130 2.105 . S
O113 Sc110 2.025 . S
O113 Sc111 2.025 . S
O113 Sc112 2.025 . S
C114 O120 1.268 . S
C114 O130 1.268 . S
C115 O121 1.268 . S
C115 O129 1.268 . S
C116 O122 1.268 . S
C116 O131 1.268 . S
C117 O123 1.268 . S
C117 O127 1.268 . S
C118 O124 1.268 . S
C118 O126 1.268 . S
C119 O125 1.268 . S
C119 O128 1.268 . S
O120 Sc110 2.105 . S
O120 C114 1.268 . S
O121 Sc111 2.105 . S
O121 C115 1.268 . S
O122 Sc112 2.105 . S
O122 C116 1.268 . S
O123 Sc110 2.105 . S
O123 C117 1.268 . S
O124 Sc112 2.105 . S
O124 C118 1.268 . S
O125 Sc111 2.105 . S
O125 C119 1.268 . S
O126 Sc110 2.105 . S
O126 C118 1.268 . S
O127 Sc111 2.105 . S
O127 C117 1.268 . S
O128 Sc112 2.105 . S
O128 C119 1.268 . S
O129 Sc110 2.105 . S
O129 C115 1.268 . S
O130 Sc112 2.105 . S
O130 C114 1.268 . S
O131 Sc111 2.105 . S
O131 C116 1.268 . S
Sc132 O135 2.025 . S
Sc132 O142 2.105 . S
Sc132 O145 2.105 . S
Sc132 O148 2.105 . S
Sc132 O151 2.105 . S
Sc133 O135 2.025 . S
Sc133 O143 2.105 . S
Sc133 O147 2.105 1_556 S
Sc133 O149 2.105 . S
Sc133 O153 2.105 . S
Sc134 O135 2.025 . S
Sc134 O144 2.105 . S
Sc134 O146 2.105 . S
Sc134 O150 2.105 1_556 S
Sc134 O152 2.105 . S
O135 Sc132 2.025 . S
O135 Sc133 2.025 . S
O135 Sc134 2.025 . S
C136 O142 1.268 . S
C136 O152 1.268 . S
C137 O143 1.268 . S
C137 O151 1.268 . S
C138 O144 1.268 . S
C138 O153 1.268 . S
C139 O145 1.268 . S
C139 O149 1.268 . S
C140 O146 1.268 . S
C140 O148 1.268 . S
C141 O147 1.268 . S
C141 O150 1.268 . S
O142 Sc132 2.105 . S
O142 C136 1.268 . S
O143 Sc133 2.105 . S
O143 C137 1.268 . S
O144 Sc134 2.105 . S
O144 C138 1.268 . S
O145 Sc132 2.105 . S
O145 C139 1.268 . S
O146 Sc134 2.105 . S
O146 C140 1.268 . S
O147 Sc133 2.105 1_554 S
O147 C141 1.268 . S
O148 Sc132 2.105 . S
O148 C140 1.268 . S
O149 Sc133 2.105 . S
O149 C139 1.268 . S
O150 Sc134 2.105 1_554 S
O150 C141 1.268 . S
O151 Sc132 2.105 . S
O151 C137 1.268 . S
O152 Sc134 2.105 . S
O152 C136 1.268 . S
O153 Sc133 2.105 . S
O153 C138 1.268 . S
Sc154 O157 2.025 . S
Sc154 O164 2.105 . S
Sc154 O167 2.105 . S
Sc154 O170 2.105 . S
Sc154 O173 2.105 . S
Sc155 O157 2.025 . S
Sc155 O165 2.105 . S
Sc155 O169 2.105 . S
Sc155 O171 2.105 . S
Sc155 O175 2.105 . S
Sc156 O157 2.025 . S
Sc156 O166 2.105 . S
Sc156 O168 2.105 . S
Sc156 O172 2.105 . S
Sc156 O174 2.105 . S
O157 Sc154 2.025 . S
O157 Sc155 2.025 . S
O157 Sc156 2.025 . S
C158 O164 1.268 . S
C158 O174 1.268 . S
C159 O165 1.268 . S
C159 O173 1.268 . S
C160 O166 1.268 . S
C160 O175 1.268 . S
C161 O167 1.268 . S
C161 O171 1.268 . S
C162 O168 1.268 . S
C162 O170 1.268 . S
C163 O169 1.268 . S
C163 O172 1.268 . S
O164 Sc154 2.105 . S
O164 C158 1.268 . S
O165 Sc155 2.105 . S
O165 C159 1.268 . S
O166 Sc156 2.105 . S
O166 C160 1.268 . S
O167 Sc154 2.105 . S
O167 C161 1.268 . S
O168 Sc156 2.105 . S
O168 C162 1.268 . S
O169 Sc155 2.105 . S
O169 C163 1.268 . S
O170 Sc154 2.105 . S
O170 C162 1.268 . S
O171 Sc155 2.105 . S
O171 C161 1.268 . S
O172 Sc156 2.105 . S
O172 C163 1.268 . S
O173 Sc154 2.105 . S
O173 C159 1.268 . S
O174 Sc156 2.105 . S
O174 C158 1.268 . S
O175 Sc155 2.105 . S
O175 C160 1.268 . S
H176 C184 0.950 . S
H177 C189 0.950 . S
H178 C186 0.950 . S
H179 C188 0.950 . S
H180 C190 0.950 . S
H181 C192 0.950 . S
H182 C194 0.950 . S
H183 C195 0.950 . S
C184 H176 0.950 . S
C184 C185 1.386 . S
C184 C186 1.391 . S
C185 C184 1.386 . S
C185 C189 1.393 . S
C186 H178 0.950 . S
C186 C184 1.391 . S
C186 C187 1.400 . S
C187 C186 1.400 . S
C187 C188 1.398 . S
C187 C193 1.491 . S
C188 H179 0.950 . S
C188 C187 1.398 . S
C188 C189 1.391 . S
C189 H177 0.950 . S
C189 C185 1.393 . S
C189 C188 1.391 . S
C190 H180 0.950 . S
C190 C191 1.386 1_545 S
C190 C192 1.391 . S
C191 C190 1.386 1_565 S
C191 C195 1.393 . S
C192 H181 0.950 . S
C192 C190 1.391 . S
C192 C193 1.400 . S
C193 C187 1.491 . S
C193 C192 1.400 . S
C193 C194 1.398 . S
C194 H182 0.950 . S
C194 C193 1.398 . S
C194 C195 1.391 1_545 S
C195 H183 0.950 . S
C195 C191 1.393 . S
C195 C194 1.391 1_565 S
H196 C204 0.950 . S
H197 C209 0.950 . S
H198 C206 0.950 . S
H199 C208 0.950 . S
H200 C210 0.950 . S
H201 C212 0.950 1_565 S
H202 C214 0.950 . S
H203 C215 0.950 . S
C204 H196 0.950 . S
C204 C205 1.386 1_545 S
C204 C206 1.391 . S
C205 C204 1.386 1_565 S
C205 C209 1.393 . S
C206 H198 0.950 . S
C206 C204 1.391 . S
C206 C207 1.400 . S
C207 C206 1.400 . S
C207 C208 1.398 1_545 S
C207 C213 1.491 . S
C208 H199 0.950 . S
C208 C207 1.398 1_565 S
C208 C209 1.391 . S
C209 H197 0.950 . S
C209 C205 1.393 . S
C209 C208 1.391 . S
C210 H200 0.950 . S
C210 C211 1.386 . S
C210 C212 1.391 . S
C211 C210 1.386 . S
C211 C215 1.393 . S
C212 H201 0.950 1_545 S
C212 C210 1.391 . S
C212 C213 1.400 . S
C213 C207 1.491 . S
C213 C212 1.400 . S
C213 C214 1.398 . S
C214 H202 0.950 . S
C214 C213 1.398 . S
C214 C215 1.391 . S
C215 H203 0.950 . S
C215 C211 1.393 . S
C215 C214 1.391 . S
H216 C224 0.954 . S
H217 C229 0.950 . S
H218 C226 0.950 . S
H219 C228 0.950 . S
H220 C230 0.950 . S
H221 C232 0.950 . S
H222 C234 0.950 . S
H223 C235 0.950 . S
C224 H216 0.954 . S
C224 C225 1.396 . S
C224 C226 1.378 1_545 S
C225 C224 1.396 . S
C225 C229 1.393 . S
C226 H218 0.950 . S
C226 C224 1.378 1_565 S
C226 C227 1.400 . S
C227 C226 1.400 . S
C227 C228 1.398 . S
C227 C233 1.491 . S
C228 H219 0.950 . S
C228 C227 1.398 . S
C228 C229 1.391 1_565 S
C229 H217 0.950 . S
C229 C225 1.393 . S
C229 C228 1.391 1_545 S
C230 H220 0.950 . S
C230 C231 1.386 . S
C230 C232 1.391 . S
C231 C230 1.386 . S
C231 C235 1.393 . S
C232 H221 0.950 . S
C232 C230 1.391 . S
C232 C233 1.400 . S
C233 C227 1.491 . S
C233 C232 1.400 . S
C233 C234 1.398 . S
C234 H222 0.950 . S
C234 C233 1.398 . S
C234 C235 1.391 . S
C235 H223 0.950 . S
C235 C231 1.393 . S
C235 C234 1.391 . S
H236 C244 0.950 . S
H237 C249 0.950 . S
H238 C246 0.950 . S
H239 C248 0.950 . S
H240 C250 0.950 . S
H241 C252 0.950 1_545 S
H242 C254 0.950 . S
H243 C255 0.950 . S
C244 H236 0.950 . S
C244 C245 1.386 1_565 S
C244 C246 1.391 . S
C245 C244 1.386 1_545 S
C245 C249 1.393 . S
C246 H238 0.950 . S
C246 C244 1.391 . S
C246 C247 1.400 . S
C247 C246 1.400 . S
C247 C248 1.398 1_565 S
C247 C253 1.491 . S
C248 H239 0.950 . S
C248 C247 1.398 1_545 S
C248 C249 1.391 . S
C249 H237 0.950 . S
C249 C245 1.393 . S
C249 C248 1.391 . S
C250 H240 0.950 . S
C250 C251 1.386 . S
C250 C252 1.391 . S
C251 C250 1.386 . S
C251 C255 1.393 . S
C252 H241 0.950 1_565 S
C252 C250 1.391 . S
C252 C253 1.400 . S
C253 C247 1.491 . S
C253 C252 1.400 . S
C253 C254 1.398 . S
C254 H242 0.950 . S
C254 C253 1.398 . S
C254 C255 1.391 . S
C255 H243 0.950 . S
C255 C251 1.393 . S
C255 C254 1.391 . S
H256 C264 0.950 . S
H257 C269 0.950 . S
H258 C266 0.950 . S
H259 C268 0.950 . S
H260 C270 0.950 . S
H261 C272 0.950 . S
H262 C274 0.950 . S
H263 C275 0.950 . S
C264 H256 0.950 . S
C264 C265 1.386 . S
C264 C266 1.391 . S
C265 C264 1.386 . S
C265 C269 1.393 . S
C266 H258 0.950 . S
C266 C264 1.391 . S
C266 C267 1.400 . S
C267 C266 1.400 . S
C267 C268 1.398 . S
C267 C273 1.491 . S
C268 H259 0.950 . S
C268 C267 1.398 . S
C268 C269 1.391 . S
C269 H257 0.950 . S
C269 C265 1.393 . S
C269 C268 1.391 . S
C270 H260 0.950 . S
C270 C271 1.386 . S
C270 C272 1.391 . S
C271 C270 1.386 . S
C271 C275 1.393 . S
C272 H261 0.950 . S
C272 C270 1.391 . S
C272 C273 1.400 . S
C273 C267 1.491 . S
C273 C272 1.400 . S
C273 C274 1.398 . S
C274 H262 0.950 . S
C274 C273 1.398 . S
C274 C275 1.391 . S
C275 H263 0.950 . S
C275 C271 1.393 . S
C275 C274 1.391 . S
H276 C284 0.950 . S
H277 C289 0.950 . S
H278 C286 0.950 . S
H279 C288 0.950 . S
H280 C290 0.950 . S
H281 C292 0.950 . S
H282 C294 0.950 . S
H283 C295 0.950 . S
C284 H276 0.950 . S
C284 C285 1.386 . S
C284 C286 1.391 . S
C285 C284 1.386 . S
C285 C289 1.393 . S
C286 H278 0.950 . S
C286 C284 1.391 . S
C286 C287 1.400 . S
C287 C286 1.400 . S
C287 C288 1.398 . S
C287 C293 1.491 . S
C288 H279 0.950 . S
C288 C287 1.398 . S
C288 C289 1.391 . S
C289 H277 0.950 . S
C289 C285 1.393 . S
C289 C288 1.391 . S
C290 H280 0.950 . S
C290 C291 1.386 . S
C290 C292 1.391 . S
C291 C290 1.386 . S
C291 C295 1.393 . S
C292 H281 0.950 . S
C292 C290 1.391 . S
C292 C293 1.400 . S
C293 C287 1.491 . S
C293 C292 1.400 . S
C293 C294 1.398 . S
C294 H282 0.950 . S
C294 C293 1.398 . S
C294 C295 1.391 . S
C295 H283 0.950 . S
C295 C291 1.393 . S
C295 C294 1.391 . S
H296 C304 0.950 . S
H297 C309 0.950 . S
H298 C306 0.950 . S
H299 C308 0.950 . S
H300 C310 0.950 . S
H301 C312 0.950 . S
H302 C314 0.950 . S
H303 C315 0.950 . S
C304 H296 0.950 . S
C304 C305 1.386 . S
C304 C306 1.391 . S
C305 C304 1.386 . S
C305 C309 1.393 . S
C306 H298 0.950 . S
C306 C304 1.391 . S
C306 C307 1.400 . S
C307 C306 1.400 . S
C307 C308 1.398 . S
C307 C313 1.491 . S
C308 H299 0.950 . S
C308 C307 1.398 . S
C308 C309 1.391 . S
C309 H297 0.950 . S
C309 C305 1.393 . S
C309 C308 1.391 . S
C310 H300 0.950 . S
C310 C311 1.386 . S
C310 C312 1.391 . S
C311 C310 1.386 . S
C311 C315 1.393 . S
C312 H301 0.950 . S
C312 C310 1.391 . S
C312 C313 1.400 . S
C313 C307 1.491 . S
C313 C312 1.400 . S
C313 C314 1.398 . S
C314 H302 0.950 . S
C314 C313 1.398 . S
C314 C315 1.391 . S
C315 H303 0.950 . S
C315 C311 1.393 . S
C315 C314 1.391 . S
H316 C324 0.950 . S
H317 C329 0.950 . S
H318 C326 0.950 . S
H319 C328 0.950 . S
H320 C330 0.950 . S
H321 C332 0.950 . S
H322 C334 0.950 . S
H323 C335 0.950 . S
C324 H316 0.950 . S
C324 C325 1.386 . S
C324 C326 1.391 . S
C325 C324 1.386 . S
C325 C329 1.393 . S
C326 H318 0.950 . S
C326 C324 1.391 . S
C326 C327 1.400 . S
C327 C326 1.400 . S
C327 C328 1.398 . S
C327 C333 1.491 . S
C328 H319 0.950 . S
C328 C327 1.398 . S
C328 C329 1.391 . S
C329 H317 0.950 . S
C329 C325 1.393 . S
C329 C328 1.391 . S
C330 H320 0.950 . S
C330 C331 1.386 . S
C330 C332 1.391 . S
C331 C330 1.386 . S
C331 C335 1.393 . S
C332 H321 0.950 . S
C332 C330 1.391 . S
C332 C333 1.400 . S
C333 C327 1.491 . S
C333 C332 1.400 . S
C333 C334 1.398 . S
C334 H322 0.950 . S
C334 C333 1.398 . S
C334 C335 1.391 . S
C335 H323 0.950 . S
C335 C331 1.393 . S
C335 C334 1.391 . S
H336 C344 0.950 . S
H337 C349 0.950 . S
H338 C346 0.950 . S
H339 C348 0.950 . S
H340 C350 0.950 . S
H341 C352 0.950 . S
H342 C354 0.950 . S
H343 C355 0.950 . S
C344 H336 0.950 . S
C344 C345 1.386 1_565 S
C344 C346 1.391 . S
C345 C344 1.386 1_545 S
C345 C349 1.393 . S
C346 H338 0.950 . S
C346 C344 1.391 . S
C346 C347 1.400 1_565 S
C347 C346 1.400 1_545 S
C347 C348 1.398 1_554 S
C347 C353 1.491 1_544 S
C348 H339 0.950 . S
C348 C347 1.398 1_556 S
C348 C349 1.391 1_556 S
C349 H337 0.950 . S
C349 C345 1.393 . S
C349 C348 1.391 1_554 S
C350 H340 0.950 . S
C350 C351 1.386 1_545 S
C350 C352 1.391 . S
C351 C350 1.386 1_565 S
C351 C355 1.393 . S
C352 H341 0.950 . S
C352 C350 1.391 . S
C352 C353 1.400 1_545 S
C353 C347 1.491 1_566 S
C353 C352 1.400 1_565 S
C353 C354 1.398 1_556 S
C354 H342 0.950 . S
C354 C353 1.398 1_554 S
C354 C355 1.391 1_554 S
C355 H343 0.950 . S
C355 C351 1.393 . S
C355 C354 1.391 1_556 S
H356 C364 0.950 1_545 S
H357 C369 0.950 . S
H358 C366 0.950 . S
H359 C368 0.950 . S
H360 C370 0.950 1_565 S
H361 C372 0.950 . S
H362 C374 0.950 . S
H363 C375 0.950 . S
C364 H356 0.950 1_565 S
C364 C365 1.386 . S
C364 C366 1.391 1_565 S
C365 C364 1.386 . S
C365 C369 1.393 . S
C366 H358 0.950 . S
C366 C364 1.391 1_545 S
C366 C367 1.400 1_545 S
C367 C366 1.400 1_565 S
C367 C368 1.398 . S
C367 C373 1.491 1_565 S
C368 H359 0.950 . S
C368 C367 1.398 . S
C368 C369 1.391 . S
C369 H357 0.950 . S
C369 C365 1.393 . S
C369 C368 1.391 . S
C370 H360 0.950 1_545 S
C370 C371 1.386 . S
C370 C372 1.391 1_545 S
C371 C370 1.386 . S
C371 C375 1.393 . S
C372 H361 0.950 . S
C372 C370 1.391 1_565 S
C372 C373 1.400 1_565 S
C373 C367 1.491 1_545 S
C373 C372 1.400 1_545 S
C373 C374 1.398 . S
C374 H362 0.950 . S
C374 C373 1.398 . S
C374 C375 1.391 . S
C375 H363 0.950 . S
C375 C371 1.393 . S
C375 C374 1.391 . S
H376 C384 0.950 . S
H377 C389 0.950 . S
H378 C386 0.950 . S
H379 C388 0.950 . S
H380 C390 0.950 . S
H381 C392 0.950 . S
H382 C394 0.950 . S
H383 C395 0.950 . S
C384 H376 0.950 . S
C384 C385 1.386 . S
C384 C386 1.391 . S
C385 C384 1.386 . S
C385 C389 1.393 . S
C386 H378 0.950 . S
C386 C384 1.391 . S
C386 C387 1.400 . S
C387 C386 1.400 . S
C387 C388 1.398 . S
C387 C393 1.491 1_654 S
C388 H379 0.950 . S
C388 C387 1.398 . S
C388 C389 1.391 . S
C389 H377 0.950 . S
C389 C385 1.393 . S
C389 C388 1.391 . S
C390 H380 0.950 . S
C390 C391 1.386 . S
C390 C392 1.391 . S
C391 C390 1.386 . S
C391 C395 1.393 . S
C392 H381 0.950 . S
C392 C390 1.391 . S
C392 C393 1.400 . S
C393 C387 1.491 1_456 S
C393 C392 1.400 . S
C393 C394 1.398 . S
C394 H382 0.950 . S
C394 C393 1.398 . S
C394 C395 1.391 . S
C395 H383 0.950 . S
C395 C391 1.393 . S
C395 C394 1.391 . S
H396 C404 0.950 . S
H397 C409 0.950 . S
H398 C406 0.950 . S
H399 C408 0.950 . S
H400 C410 0.950 . S
H401 C412 0.950 . S
H402 C414 0.950 . S
H403 C415 0.950 . S
C404 H396 0.950 . S
C404 C405 1.386 . S
C404 C406 1.391 . S
C405 C404 1.386 . S
C405 C409 1.393 . S
C406 H398 0.950 . S
C406 C404 1.391 . S
C406 C407 1.400 . S
C407 C406 1.400 . S
C407 C408 1.398 . S
C407 C413 1.491 1_455 S
C408 H399 0.950 . S
C408 C407 1.398 . S
C408 C409 1.391 . S
C409 H397 0.950 . S
C409 C405 1.393 . S
C409 C408 1.391 . S
C410 H400 0.950 . S
C410 C411 1.386 . S
C410 C412 1.391 . S
C411 C410 1.386 . S
C411 C415 1.393 . S
C412 H401 0.950 . S
C412 C410 1.391 . S
C412 C413 1.400 . S
C413 C407 1.491 1_655 S
C413 C412 1.400 . S
C413 C414 1.398 . S
C414 H402 0.950 . S
C414 C413 1.398 . S
C414 C415 1.391 . S
C415 H403 0.950 . S
C415 C411 1.393 . S
C415 C414 1.391 . S
H416 C424 0.950 . S
H417 C429 0.950 . S
H418 C426 0.948 1_565 S
H419 C428 0.950 . S
H420 C430 0.950 . S
H421 C432 0.948 1_545 S
H422 C434 0.950 . S
H423 C435 0.950 . S
C424 H416 0.950 . S
C424 C425 1.386 . S
C424 C426 1.391 . S
C425 C424 1.386 . S
C425 C429 1.393 1_554 S
C426 H418 0.948 1_545 S
C426 C424 1.391 . S
C426 C427 1.400 . S
C427 C426 1.400 . S
C427 C428 1.398 1_554 S
C427 C433 1.491 1_444 S
C428 H419 0.950 . S
C428 C427 1.398 1_556 S
C428 C429 1.391 . S
C429 H417 0.950 . S
C429 C425 1.393 1_556 S
C429 C428 1.391 . S
C430 H420 0.950 . S
C430 C431 1.386 . S
C430 C432 1.391 . S
C431 C430 1.386 . S
C431 C435 1.393 1_556 S
C432 H421 0.948 1_565 S
C432 C430 1.391 . S
C432 C433 1.400 . S
C433 C427 1.491 1_666 S
C433 C432 1.400 . S
C433 C434 1.398 1_556 S
C434 H422 0.950 . S
C434 C433 1.398 1_554 S
C434 C435 1.391 . S
C435 H423 0.950 . S
C435 C431 1.393 1_554 S
C435 C434 1.391 . S
H436 C444 0.950 . S
H437 C449 0.950 1_565 S
H438 C446 0.950 1_455 S
H439 C448 0.950 . S
H440 C450 0.950 . S
H441 C452 0.950 1_655 S
H442 C454 0.950 . S
H443 C455 0.950 1_545 S
C444 H436 0.950 . S
C444 C445 1.386 . S
C444 C446 1.391 . S
C445 C444 1.386 . S
C445 C449 1.393 . S
C446 H438 0.950 1_655 S
C446 C444 1.391 . S
C446 C447 1.400 . S
C447 C446 1.400 . S
C447 C448 1.398 1_545 S
C447 C453 1.491 1_645 S
C448 H439 0.950 . S
C448 C447 1.398 1_565 S
C448 C449 1.391 1_565 S
C449 H437 0.950 1_545 S
C449 C445 1.393 . S
C449 C448 1.391 1_545 S
C450 H440 0.950 . S
C450 C451 1.386 . S
C450 C452 1.391 . S
C451 C450 1.386 . S
C451 C455 1.393 . S
C452 H441 0.950 1_455 S
C452 C450 1.391 . S
C452 C453 1.400 . S
C453 C447 1.491 1_465 S
C453 C452 1.400 . S
C453 C454 1.398 1_565 S
C454 H442 0.950 . S
C454 C453 1.398 1_545 S
C454 C455 1.391 1_545 S
C455 H443 0.950 1_565 S
C455 C451 1.393 . S
C455 C454 1.391 1_565 S
H456 C464 0.950 . S
H457 C469 0.950 . S
H458 C466 0.950 . S
H459 C468 0.950 . S
H460 C470 0.950 . S
H461 C472 0.950 . S
H462 C474 0.950 . S
H463 C475 0.950 . S
C464 H456 0.950 . S
C464 C465 1.386 . S
C464 C466 1.391 . S
C465 C464 1.386 . S
C465 C469 1.393 1_556 S
C466 H458 0.950 . S
C466 C464 1.391 . S
C466 C467 1.400 . S
C467 C466 1.400 . S
C467 C468 1.398 1_556 S
C467 C473 1.491 1_556 S
C468 H459 0.950 . S
C468 C467 1.398 1_554 S
C468 C469 1.391 . S
C469 H457 0.950 . S
C469 C465 1.393 1_554 S
C469 C468 1.391 . S
C470 H460 0.950 . S
C470 C471 1.386 . S
C470 C472 1.391 . S
C471 C470 1.386 . S
C471 C475 1.393 1_554 S
C472 H461 0.950 . S
C472 C470 1.391 . S
C472 C473 1.400 . S
C473 C467 1.491 1_554 S
C473 C472 1.400 . S
C473 C474 1.398 1_554 S
C474 H462 0.950 . S
C474 C473 1.398 1_556 S
C474 C475 1.391 . S
C475 H463 0.950 . S
C475 C471 1.393 1_556 S
C475 C474 1.391 . S
H476 C484 0.950 . S
H477 C489 0.950 . S
H478 C486 0.950 . S
H479 C488 0.950 . S
H480 C490 0.950 . S
H481 C492 0.950 . S
H482 C494 0.950 . S
H483 C495 0.950 . S
C484 H476 0.950 . S
C484 C485 1.386 . S
C484 C486 1.391 . S
C485 C484 1.386 . S
C485 C489 1.393 . S
C486 H478 0.950 . S
C486 C484 1.391 . S
C486 C487 1.400 . S
C487 C486 1.400 . S
C487 C488 1.398 . S
C487 C493 1.491 . S
C488 H479 0.950 . S
C488 C487 1.398 . S
C488 C489 1.391 . S
C489 H477 0.950 . S
C489 C485 1.393 . S
C489 C488 1.391 . S
C490 H480 0.950 . S
C490 C491 1.386 . S
C490 C492 1.391 . S
C491 C490 1.386 . S
C491 C495 1.393 . S
C492 H481 0.950 . S
C492 C490 1.391 . S
C492 C493 1.400 . S
C493 C487 1.491 . S
C493 C492 1.400 . S
C493 C494 1.398 . S
C494 H482 0.950 . S
C494 C493 1.398 . S
C494 C495 1.391 . S
C495 H483 0.950 . S
C495 C491 1.393 . S
C495 C494 1.391 . S
H496 C504 0.950 . S
H497 C509 0.950 . S
H498 C506 0.950 . S
H499 C508 0.950 . S
H500 C510 0.950 . S
H501 C512 0.950 . S
H502 C514 0.950 . S
H503 C515 0.950 . S
C504 H496 0.950 . S
C504 C505 1.386 . S
C504 C506 1.391 . S
C505 C504 1.386 . S
C505 C509 1.393 . S
C506 H498 0.950 . S
C506 C504 1.391 . S
C506 C507 1.400 . S
C507 C506 1.400 . S
C507 C508 1.398 . S
C507 C513 1.491 . S
C508 H499 0.950 . S
C508 C507 1.398 . S
C508 C509 1.391 . S
C509 H497 0.950 . S
C509 C505 1.393 . S
C509 C508 1.391 . S
C510 H500 0.950 . S
C510 C511 1.386 . S
C510 C512 1.391 . S
C511 C510 1.386 . S
C511 C515 1.393 . S
C512 H501 0.950 . S
C512 C510 1.391 . S
C512 C513 1.400 . S
C513 C507 1.491 . S
C513 C512 1.400 . S
C513 C514 1.398 . S
C514 H502 0.950 . S
C514 C513 1.398 . S
C514 C515 1.391 . S
C515 H503 0.950 . S
C515 C511 1.393 . S
C515 C514 1.391 . S
H516 C524 0.950 . S
H517 C529 0.950 . S
H518 C526 0.950 . S
H519 C528 0.950 . S
H520 C530 0.950 . S
H521 C532 0.950 . S
H522 C534 0.950 . S
H523 C535 0.950 . S
C524 H516 0.950 . S
C524 C525 1.386 . S
C524 C526 1.391 . S
C525 C524 1.386 . S
C525 C529 1.393 . S
C526 H518 0.950 . S
C526 C524 1.391 . S
C526 C527 1.400 . S
C527 C526 1.400 . S
C527 C528 1.398 . S
C527 C533 1.491 . S
C528 H519 0.950 . S
C528 C527 1.398 . S
C528 C529 1.391 . S
C529 H517 0.950 . S
C529 C525 1.393 . S
C529 C528 1.391 . S
C530 H520 0.950 . S
C530 C531 1.386 . S
C530 C532 1.391 . S
C531 C530 1.386 . S
C531 C535 1.393 . S
C532 H521 0.950 . S
C532 C530 1.391 . S
C532 C533 1.400 . S
C533 C527 1.491 . S
C533 C532 1.400 . S
C533 C534 1.398 . S
C534 H522 0.950 . S
C534 C533 1.398 . S
C534 C535 1.391 . S
C535 H523 0.950 . S
C535 C531 1.393 . S
C535 C534 1.391 . S
H536 C544 0.950 . S
H537 C549 0.950 . S
H538 C546 0.950 . S
H539 C548 0.950 1_455 S
H540 C550 0.950 . S
H541 C552 0.950 . S
H542 C554 0.950 1_655 S
H543 C555 0.950 . S
C544 H536 0.950 . S
C544 C545 1.386 . S
C544 C546 1.391 . S
C545 C544 1.386 . S
C545 C549 1.393 . S
C546 H538 0.950 . S
C546 C544 1.391 . S
C546 C547 1.400 . S
C547 C546 1.400 . S
C547 C548 1.398 . S
C547 C553 1.491 1_655 S
C548 H539 0.950 1_655 S
C548 C547 1.398 . S
C548 C549 1.391 . S
C549 H537 0.950 . S
C549 C545 1.393 . S
C549 C548 1.391 . S
C550 H540 0.950 . S
C550 C551 1.386 . S
C550 C552 1.391 . S
C551 C550 1.386 . S
C551 C555 1.393 . S
C552 H541 0.950 . S
C552 C550 1.391 . S
C552 C553 1.400 . S
C553 C547 1.491 1_455 S
C553 C552 1.400 . S
C553 C554 1.398 . S
C554 H542 0.950 1_455 S
C554 C553 1.398 . S
C554 C555 1.391 . S
C555 H543 0.950 . S
C555 C551 1.393 . S
C555 C554 1.391 . S
H556 C564 0.950 . S
H557 C569 0.950 . S
H558 C566 0.950 1_455 S
H559 C568 0.950 . S
H560 C570 0.950 . S
H561 C572 0.950 1_655 S
H562 C574 0.950 . S
H563 C575 0.950 . S
C564 H556 0.950 . S
C564 C565 1.386 . S
C564 C566 1.391 . S
C565 C564 1.386 . S
C565 C569 1.393 . S
C566 H558 0.950 1_655 S
C566 C564 1.391 . S
C566 C567 1.400 . S
C567 C566 1.400 . S
C567 C568 1.398 . S
C567 C573 1.491 1_655 S
C568 H559 0.950 . S
C568 C567 1.398 . S
C568 C569 1.391 . S
C569 H557 0.950 . S
C569 C565 1.393 . S
C569 C568 1.391 . S
C570 H560 0.950 . S
C570 C571 1.386 . S
C570 C572 1.391 . S
C571 C570 1.386 . S
C571 C575 1.393 . S
C572 H561 0.950 1_455 S
C572 C570 1.391 . S
C572 C573 1.400 . S
C573 C567 1.491 1_455 S
C573 C572 1.400 . S
C573 C574 1.398 . S
C574 H562 0.950 . S
C574 C573 1.398 . S
C574 C575 1.391 . S
C575 H563 0.950 . S
C575 C571 1.393 . S
C575 C574 1.391 . S
H576 C584 0.950 . S
H577 C589 0.950 . S
H578 C586 0.950 . S
H579 C588 0.950 . S
H580 C590 0.950 . S
H581 C592 0.950 . S
H582 C594 0.950 . S
H583 C595 0.950 . S
C584 H576 0.950 . S
C584 C585 1.386 . S
C584 C586 1.391 . S
C585 C584 1.386 . S
C585 C589 1.393 1_554 S
C586 H578 0.950 . S
C586 C584 1.391 . S
C586 C587 1.400 . S
C587 C586 1.400 . S
C587 C588 1.398 1_554 S
C587 C593 1.491 1_554 S
C588 H579 0.950 . S
C588 C587 1.398 1_556 S
C588 C589 1.391 . S
C589 H577 0.950 . S
C589 C585 1.393 1_556 S
C589 C588 1.391 . S
C590 H580 0.950 . S
C590 C591 1.386 . S
C590 C592 1.391 . S
C591 C590 1.386 . S
C591 C595 1.393 1_556 S
C592 H581 0.950 . S
C592 C590 1.391 . S
C592 C593 1.400 . S
C593 C587 1.491 1_556 S
C593 C592 1.400 . S
C593 C594 1.398 1_556 S
C594 H582 0.950 . S
C594 C593 1.398 1_554 S
C594 C595 1.391 . S
C595 H583 0.950 . S
C595 C591 1.393 1_554 S
C595 C594 1.391 . S
H596 C604 0.950 . S
H597 C609 0.950 . S
H598 C606 0.950 . S
H599 C608 0.950 . S
H600 C610 0.950 . S
H601 C612 0.950 . S
H602 C614 0.950 . S
H603 C615 0.950 . S
C604 H596 0.950 . S
C604 C605 1.386 . S
C604 C606 1.391 . S
C605 C604 1.386 . S
C605 C609 1.393 . S
C606 H598 0.950 . S
C606 C604 1.391 . S
C606 C607 1.400 . S
C607 C606 1.400 . S
C607 C608 1.398 . S
C607 C613 1.491 . S
C608 H599 0.950 . S
C608 C607 1.398 . S
C608 C609 1.391 . S
C609 H597 0.950 . S
C609 C605 1.393 . S
C609 C608 1.391 . S
C610 H600 0.950 . S
C610 C611 1.386 . S
C610 C612 1.391 . S
C611 C610 1.386 . S
C611 C615 1.393 . S
C612 H601 0.950 . S
C612 C610 1.391 . S
C612 C613 1.400 . S
C613 C607 1.491 . S
C613 C612 1.400 . S
C613 C614 1.398 . S
C614 H602 0.950 . S
C614 C613 1.398 . S
C614 C615 1.391 . S
C615 H603 0.950 . S
C615 C611 1.393 . S
C615 C614 1.391 . S
H616 C624 0.950 . S
H617 C629 0.950 . S
H618 C626 0.950 . S
H619 C628 0.950 . S
H620 C630 0.950 . S
H621 C632 0.950 . S
H622 C634 0.950 . S
H623 C635 0.950 . S
C624 H616 0.950 . S
C624 C625 1.386 1_554 S
C624 C626 1.391 . S
C625 C624 1.386 1_556 S
C625 C629 1.393 . S
C626 H618 0.950 . S
C626 C624 1.391 . S
C626 C627 1.400 1_554 S
C627 C626 1.400 1_556 S
C627 C628 1.398 . S
C627 C633 1.491 1_556 S
C628 H619 0.950 . S
C628 C627 1.398 . S
C628 C629 1.391 . S
C629 H617 0.950 . S
C629 C625 1.393 . S
C629 C628 1.391 . S
C630 H620 0.950 . S
C630 C631 1.386 1_556 S
C630 C632 1.391 . S
C631 C630 1.386 1_554 S
C631 C635 1.393 . S
C632 H621 0.950 . S
C632 C630 1.391 . S
C632 C633 1.400 1_556 S
C633 C627 1.491 1_554 S
C633 C632 1.400 1_554 S
C633 C634 1.398 . S
C634 H622 0.950 . S
C634 C633 1.398 . S
C634 C635 1.391 . S
C635 H623 0.950 . S
C635 C631 1.393 . S
C635 C634 1.391 . S
H636 C644 0.950 . S
H637 C649 0.950 . S
H638 C646 0.950 . S
H639 C648 0.950 . S
H640 C650 0.950 . S
H641 C652 0.950 . S
H642 C654 0.950 . S
H643 C655 0.950 . S
C644 H636 0.950 . S
C644 C645 1.386 . S
C644 C646 1.391 . S
C645 C644 1.386 . S
C645 C649 1.393 . S
C646 H638 0.950 . S
C646 C644 1.391 . S
C646 C647 1.400 . S
C647 C646 1.400 . S
C647 C648 1.398 . S
C647 C653 1.491 . S
C648 H639 0.950 . S
C648 C647 1.398 . S
C648 C649 1.391 . S
C649 H637 0.950 . S
C649 C645 1.393 . S
C649 C648 1.391 . S
C650 H640 0.950 . S
C650 C651 1.386 . S
C650 C652 1.391 . S
C651 C650 1.386 . S
C651 C655 1.393 . S
C652 H641 0.950 . S
C652 C650 1.391 . S
C652 C653 1.400 . S
C653 C647 1.491 . S
C653 C652 1.400 . S
C653 C654 1.398 . S
C654 H642 0.950 . S
C654 C653 1.398 . S
C654 C655 1.391 . S
C655 H643 0.950 . S
C655 C651 1.393 . S
C655 C654 1.391 . S
C185 C6 1.284 . S
C191 C71 1.307 . S
C205 C49 1.303 . S
C211 C28 1.263 . S
C225 C29 1.306 . S
C231 C53 1.283 . S
C245 C7 1.322 . S
C251 C75 1.280 . S
C265 C159 1.322 . S
C271 C94 1.274 . S
C285 C116 1.259 . S
C291 C137 1.304 . S
C305 C117 1.306 . S
C311 C141 1.283 . S
C325 C95 1.315 . S
C331 C163 1.256 . S
C345 C9 0.656 . S
C351 C50 0.656 . S
C365 C72 0.706 . S
C371 C31 0.706 . S
C385 C97 0.703 . S
C391 C138 0.703 . S
C405 C119 0.637 . S
C411 C160 0.637 . S
C425 C5 2.141 . S
C431 C51 2.141 . S
C445 C27 2.132 . S
C451 C73 2.132 . S
C465 C139 2.122 . S
C471 C93 2.122 . S
C485 C161 2.123 . S
C491 C115 2.123 . S
C505 C8 1.697 . S
C511 C30 1.699 . S
C525 C48 1.699 . S
C531 C70 1.694 . S
C545 C96 1.694 . S
C551 C118 1.699 . S
C565 C158 1.695 . S
C571 C136 1.700 . S
C585 C4 1.409 . S
C591 C140 1.409 . S
C605 C26 1.418 . S
C611 C162 1.418 . S
C625 C52 1.403 . S
C631 C92 1.403 . S
C645 C114 1.431 . S
C651 C74 1.431 . S
