# Generated by pormake.
# Topology nfc, (4)-cn, num edge types: 1
# Building blocks:
#     Node 0, Type 0, BuildingBlock: KOZSID_clean_sbu_0, # of connection points: 4
#     Node 1, Type 0, BuildingBlock: KOZSID_clean_sbu_0, # of connection points: 4
#     Node 2, Type 0, BuildingBlock: KOZSID_clean_sbu_0, # of connection points: 4
#     Node 3, Type 0, BuildingBlock: KOZSID_clean_sbu_0, # of connection points: 4
#     Node 4, Type 0, BuildingBlock: KOZSID_clean_sbu_0, # of connection points: 4
#     Node 5, Type 0, BuildingBlock: KOZSID_clean_sbu_0, # of connection points: 4
#     Node 6, Type 0, BuildingBlock: KOZSID_clean_sbu_0, # of connection points: 4
#     Node 7, Type 0, BuildingBlock: KOZSID_clean_sbu_0, # of connection points: 4
#     Node 8, Type 0, BuildingBlock: KOZSID_clean_sbu_0, # of connection points: 4
#     Node 9, Type 0, BuildingBlock: KOZSID_clean_sbu_0, # of connection points: 4
#     Node 10, Type 0, BuildingBlock: KOZSID_clean_sbu_0, # of connection points: 4
#     Node 11, Type 0, BuildingBlock: KOZSID_clean_sbu_0, # of connection points: 4
#     Node 12, Type 0, BuildingBlock: KOZSID_clean_sbu_0, # of connection points: 4
#     Node 13, Type 0, BuildingBlock: KOZSID_clean_sbu_0, # of connection points: 4
#     Node 14, Type 0, BuildingBlock: KOZSID_clean_sbu_0, # of connection points: 4
#     Node 15, Type 0, BuildingBlock: KOZSID_clean_sbu_0, # of connection points: 4
#     Edge 16, Type (0, 0), BuildingBlock: MIFKUJ_clean_linker_0, # of connection points: 2
#     Edge 17, Type (0, 0), BuildingBlock: MIFKUJ_clean_linker_0, # of connection points: 2
#     Edge 18, Type (0, 0), BuildingBlock: MIFKUJ_clean_linker_0, # of connection points: 2
#     Edge 19, Type (0, 0), BuildingBlock: MIFKUJ_clean_linker_0, # of connection points: 2
#     Edge 20, Type (0, 0), BuildingBlock: MIFKUJ_clean_linker_0, # of connection points: 2
#     Edge 21, Type (0, 0), BuildingBlock: MIFKUJ_clean_linker_0, # of connection points: 2
#     Edge 22, Type (0, 0), BuildingBlock: MIFKUJ_clean_linker_0, # of connection points: 2
#     Edge 23, Type (0, 0), BuildingBlock: MIFKUJ_clean_linker_0, # of connection points: 2
#     Edge 24, Type (0, 0), BuildingBlock: MIFKUJ_clean_linker_0, # of connection points: 2
#     Edge 25, Type (0, 0), BuildingBlock: MIFKUJ_clean_linker_0, # of connection points: 2
#     Edge 26, Type (0, 0), BuildingBlock: MIFKUJ_clean_linker_0, # of connection points: 2
#     Edge 27, Type (0, 0), BuildingBlock: MIFKUJ_clean_linker_0, # of connection points: 2
#     Edge 28, Type (0, 0), BuildingBlock: MIFKUJ_clean_linker_0, # of connection points: 2
#     Edge 29, Type (0, 0), BuildingBlock: MIFKUJ_clean_linker_0, # of connection points: 2
#     Edge 30, Type (0, 0), BuildingBlock: MIFKUJ_clean_linker_0, # of connection points: 2
#     Edge 31, Type (0, 0), BuildingBlock: MIFKUJ_clean_linker_0, # of connection points: 2
#     Edge 32, Type (0, 0), BuildingBlock: MIFKUJ_clean_linker_0, # of connection points: 2
#     Edge 33, Type (0, 0), BuildingBlock: MIFKUJ_clean_linker_0, # of connection points: 2
#     Edge 34, Type (0, 0), BuildingBlock: MIFKUJ_clean_linker_0, # of connection points: 2
#     Edge 35, Type (0, 0), BuildingBlock: MIFKUJ_clean_linker_0, # of connection points: 2
#     Edge 36, Type (0, 0), BuildingBlock: MIFKUJ_clean_linker_0, # of connection points: 2
#     Edge 37, Type (0, 0), BuildingBlock: MIFKUJ_clean_linker_0, # of connection points: 2
#     Edge 38, Type (0, 0), BuildingBlock: MIFKUJ_clean_linker_0, # of connection points: 2
#     Edge 39, Type (0, 0), BuildingBlock: MIFKUJ_clean_linker_0, # of connection points: 2
#     Edge 40, Type (0, 0), BuildingBlock: MIFKUJ_clean_linker_0, # of connection points: 2
#     Edge 41, Type (0, 0), BuildingBlock: MIFKUJ_clean_linker_0, # of connection points: 2
#     Edge 42, Type (0, 0), BuildingBlock: MIFKUJ_clean_linker_0, # of connection points: 2
#     Edge 43, Type (0, 0), BuildingBlock: MIFKUJ_clean_linker_0, # of connection points: 2
#     Edge 44, Type (0, 0), BuildingBlock: MIFKUJ_clean_linker_0, # of connection points: 2
#     Edge 45, Type (0, 0), BuildingBlock: MIFKUJ_clean_linker_0, # of connection points: 2
#     Edge 46, Type (0, 0), BuildingBlock: MIFKUJ_clean_linker_0, # of connection points: 2
#     Edge 47, Type (0, 0), BuildingBlock: MIFKUJ_clean_linker_0, # of connection points: 2
# Relax obj value: 0.063
# Max RMSD: 0.137
# Mean RMSD: 0.111
data_MOF--net-nfc--node1-KOZSID_clean_sbu_0--edge1-MIFKUJ_clean_linker_0
_symmetry_space_group_name_H-M    P1
_symmetry_Int_Tables_number       1
_symmetry_cell_setting            triclinic
loop_
_symmetry_equiv_pos_as_xyz
'x, y, z'
_cell_length_a     54.34985
_cell_length_b     54.401869
_cell_length_c     44.167362
_cell_angle_alpha  85.335461
_cell_angle_beta   87.033211
_cell_angle_gamma 85.897387
loop_
_atom_site_label
_atom_site_type_symbol
_atom_site_fract_x
_atom_site_fract_y
_atom_site_fract_z
_atom_type_partial_charge
C0 C 0.98186 0.02085 0.06475 0.0
C1 C 0.96474 0.03767 0.07752 0.0
C2 C 0.95216 0.04981 0.0542 0.0
C3 C 0.96229 0.04005 0.0284 0.0
N4 N 0.98067 0.02237 0.03369 0.0
Co5 Co 1.00087 0.00475 1.00125 0.0
N6 N 0.98355 0.02423 0.96668 0.0
C7 C 0.96559 0.04247 0.96988 0.0
C8 C 0.95614 0.05208 0.94295 0.0
C9 C 0.96878 0.03927 0.92108 0.0
C10 C 0.98556 0.02255 0.9358 0.0
N11 N 0.0205 0.98655 0.96887 0.0
C12 C 0.0193 0.98812 0.93782 0.0
C13 C 0.03663 0.97156 0.92495 0.0
C14 C 0.0486 0.95873 0.94832 0.0
C15 C 0.0382 0.96817 0.9742 0.0
N16 N 0.01873 0.98584 0.03579 0.0
C17 C 0.03734 0.96825 0.03256 0.0
C18 C 0.04644 0.95835 0.05958 0.0
C19 C 0.03313 0.97053 0.0815 0.0
C20 C 0.01664 0.98749 0.06668 0.0
N21 N 0.97619 0.97955 0.00255 0.0
C22 C 0.94418 0.94425 0.98859 0.0
C23 C 0.96788 0.93703 0.99822 0.0
C24 C 0.98341 0.95486 0.00527 0.0
C25 C 0.93582 0.96906 0.98968 0.0
C26 C 0.95195 0.98624 0.99709 0.0
N27 N 0.02567 0.02988 0.99967 0.0
C28 C 0.06823 0.03982 1.00022 0.0
C29 C 0.06103 0.06412 0.00643 0.0
C30 C 0.03586 0.07148 0.00666 0.0
C31 C 0.01866 0.05426 0.00289 0.0
C32 C 0.05041 0.02314 0.99703 0.0
H33 H 0.99979 0.06095 0.00371 0.0
H34 H 0.05716 0.00475 0.99336 0.0
H35 H 0.0015 0.94829 0.01149 0.0
H36 H 0.94474 0.00496 0.99676 0.0
C37 C 0.95652 0.04863 0.99871 0.0
C38 C 0.99929 0.00451 0.08319 0.0
C39 C 0.00235 0.00499 0.91937 0.0
C40 C 0.04523 0.96084 0.00382 0.0
H41 H 0.96193 0.04133 0.10119 0.0
H42 H 0.93785 0.06461 0.05579 0.0
H43 H 0.94123 0.06618 0.93968 0.0
H44 H 0.96546 0.04165 0.89706 0.0
H45 H 0.04041 0.96903 0.90108 0.0
H46 H 0.0633 0.94433 0.94663 0.0
H47 H 0.06094 0.94382 0.06296 0.0
H48 H 0.03531 0.96713 0.10572 0.0
H49 H 0.97483 0.91784 0.999 0.0
H50 H 0.91745 0.97557 0.98294 0.0
H51 H 0.08755 0.03339 0.99886 0.0
H52 H 0.02923 0.09011 0.01132 0.0
C53 C 0.24189 0.78171 0.29592 0.0
C54 C 0.25164 0.80303 0.30409 0.0
C55 C 0.27492 0.8034 0.29109 0.0
C56 C 0.27794 0.78261 0.27544 0.0
N57 N 0.25803 0.7689 0.27762 0.0
Co58 Co 0.25391 0.73848 0.25599 0.0
N59 N 0.28838 0.73889 0.23738 0.0
C60 C 0.30557 0.75468 0.2425 0.0
C61 C 0.32756 0.75055 0.22653 0.0
C62 C 0.32432 0.73085 0.21031 0.0
C63 C 0.30044 0.72401 0.21744 0.0
N64 N 0.24929 0.70894 0.23291 0.0
C65 C 0.26465 0.69748 0.21246 0.0
C66 C 0.25371 0.67813 0.20092 0.0
C67 C 0.23056 0.6775 0.21428 0.0
C68 C 0.22866 0.69639 0.23314 0.0
N69 N 0.21994 0.73729 0.27589 0.0
C70 C 0.20393 0.71965 0.27372 0.0
C71 C 0.18291 0.72238 0.29194 0.0
C72 C 0.18563 0.74297 0.30677 0.0
C73 C 0.20814 0.75186 0.29636 0.0
N74 N 0.24101 0.75982 0.22118 0.0
C75 C 0.22588 0.78495 0.16656 0.0
C76 C 0.21066 0.76856 0.18309 0.0
C77 C 0.21852 0.7563 0.2102 0.0
C78 C 0.24782 0.79009 0.17915 0.0
C79 C 0.25488 0.77755 0.20642 0.0
N80 N 0.26662 0.71704 0.29099 0.0
C81 C 0.26208 0.68151 0.32681 0.0
C82 C 0.27646 0.69151 0.34739 0.0
C83 C 0.28802 0.71314 0.33783 0.0
C84 C 0.28315 0.72532 0.30954 0.0
C85 C 0.25748 0.69444 0.2989 0.0
H86 H 0.29212 0.74197 0.30381 0.0
H87 H 0.24569 0.68618 0.28476 0.0
H88 H 0.20648 0.7434 0.22126 0.0
H89 H 0.27211 0.7818 0.21444 0.0
C90 C 0.29963 0.77483 0.25971 0.0
C91 C 0.21739 0.77427 0.30645 0.0
C92 C 0.2899 0.70371 0.20401 0.0
C93 C 0.20856 0.70161 0.25307 0.0
H94 H 0.24295 0.8169 0.31809 0.0
H95 H 0.28812 0.81712 0.29298 0.0
H96 H 0.34373 0.76112 0.22597 0.0
H97 H 0.33787 0.72279 0.19453 0.0
H98 H 0.26172 0.66552 0.18481 0.0
H99 H 0.2169 0.66453 0.21106 0.0
H100 H 0.16738 0.71087 0.29404 0.0
H101 H 0.17247 0.75056 0.32334 0.0
H102 H 0.19325 0.76438 0.17449 0.0
H103 H 0.26033 0.80257 0.16715 0.0
H104 H 0.25345 0.66431 0.33272 0.0
H105 H 0.29956 0.72159 0.35277 0.0
C106 C 0.46046 0.98568 0.5301 0.0
C107 C 0.43599 0.99438 0.53443 0.0
C108 C 0.4329 0.01592 0.51632 0.0
C109 C 0.45557 0.01931 0.50207 0.0
N110 N 0.47297 0.00148 0.51031 0.0
Co111 Co 0.50808 0.99976 0.49389 0.0
N112 N 0.50567 0.03483 0.47596 0.0
C113 C 0.48436 0.04858 0.47155 0.0
C114 C 0.48766 0.07153 0.45732 0.0
C115 C 0.51263 0.07237 0.45208 0.0
C116 C 0.52334 0.04981 0.46359 0.0
N117 N 0.54312 0.998 0.47723 0.0
C118 C 0.55792 0.0161 0.46556 0.0
C119 C 0.58142 0.00606 0.45792 0.0
C120 C 0.58107 0.98099 0.46375 0.0
C121 C 0.5576 0.977 0.47505 0.0
N122 N 0.51046 0.96469 0.51181 0.0
C123 C 0.52868 0.94762 0.50516 0.0
C124 C 0.5256 0.92484 0.52007 0.0
C125 C 0.5039 0.92754 0.53701 0.0
C126 C 0.49489 0.95193 0.53155 0.0
N127 N 0.49725 0.98875 0.45605 0.0
C128 C 0.47842 0.97671 0.40196 0.0
C129 C 0.49742 0.99282 0.40153 0.0
C130 C 0.50655 0.99858 0.42875 0.0
C131 C 0.46965 0.966 0.4299 0.0
C132 C 0.47948 0.97209 0.45665 0.0
N133 N 0.5187 0.01069 0.53169 0.0
C134 C 0.54528 0.00484 0.5738 0.0
C135 C 0.53075 0.02265 0.58892 0.0
C136 C 0.51078 0.03522 0.5744 0.0
C137 C 0.5053 0.02921 0.54553 0.0
C138 C 0.53882 0.99898 0.54529 0.0
H139 H 0.48971 0.03899 0.5349 0.0
H140 H 0.54963 0.98439 0.5348 0.0
H141 H 0.52063 0.01158 0.42759 0.0
H142 H 0.47216 0.96372 0.47779 0.0
C143 C 0.4619 0.04017 0.48354 0.0
C144 C 0.47031 0.96131 0.54307 0.0
C145 C 0.54995 0.04254 0.45907 0.0
C146 C 0.54961 0.95437 0.48762 0.0
H147 H 0.42173 0.98584 0.54879 0.0
H148 H 0.4162 0.02789 0.51421 0.0
H149 H 0.47359 0.08604 0.4516 0.0
H150 H 0.52177 0.08764 0.44031 0.0
H151 H 0.59721 0.01573 0.44885 0.0
H152 H 0.59637 0.96737 0.46095 0.0
H153 H 0.53786 0.90832 0.51913 0.0
H154 H 0.49541 0.91307 0.55128 0.0
H155 H 0.5045 0.00177 0.38037 0.0
H156 H 0.45509 0.95332 0.43109 0.0
H157 H 0.56072 0.9946 0.58463 0.0
H158 H 0.4992 0.04914 0.58558 0.0
C159 C 0.27503 0.19627 0.76603 0.0
C160 C 0.26922 0.17184 0.77168 0.0
C161 C 0.24506 0.17105 0.76508 0.0
C162 C 0.23756 0.1949 0.75561 0.0
N163 N 0.25561 0.21084 0.75525 0.0
Co164 Co 0.25261 0.24733 0.74356 0.0
N165 N 0.21636 0.24669 0.73721 0.0
C166 C 0.20241 0.227 0.74224 0.0
C167 C 0.17826 0.23208 0.73496 0.0
C168 C 0.17675 0.25635 0.72421 0.0
C169 C 0.20019 0.26466 0.72545 0.0
N170 N 0.24968 0.28375 0.73114 0.0
C171 C 0.23041 0.2981 0.71954 0.0
C172 C 0.23667 0.32218 0.71178 0.0
C173 C 0.26083 0.32303 0.7183 0.0
C174 C 0.26795 0.29951 0.7295 0.0
N175 N 0.28878 0.24805 0.75055 0.0
C176 C 0.30237 0.26807 0.74717 0.0
C177 C 0.32616 0.26336 0.75594 0.0
C178 C 0.32781 0.23898 0.76607 0.0
C179 C 0.30486 0.2301 0.76267 0.0
N180 N 0.26001 0.24095 0.70033 0.0
C181 C 0.26619 0.236 0.63737 0.0
C182 C 0.28043 0.25168 0.65157 0.0
C183 C 0.27717 0.25374 0.68288 0.0
C184 C 0.24964 0.22203 0.65547 0.0
C185 C 0.24697 0.22468 0.68661 0.0
N186 N 0.24528 0.25366 0.78686 0.0
C187 C 0.25397 0.2748 0.83075 0.0
C188 C 0.2414 0.25783 0.85013 0.0
C189 C 0.2294 0.23975 0.83702 0.0
C190 C 0.23136 0.23818 0.80559 0.0
C191 C 0.25564 0.27242 0.79948 0.0
H192 H 0.22206 0.2238 0.79712 0.0
H193 H 0.26594 0.28561 0.78612 0.0
H194 H 0.28837 0.26618 0.69231 0.0
H195 H 0.23372 0.21384 0.69892 0.0
C196 C 0.21318 0.20339 0.75011 0.0
C197 C 0.29878 0.20493 0.77292 0.0
C198 C 0.20644 0.28939 0.71379 0.0
C199 C 0.29191 0.29134 0.73729 0.0
H200 H 0.28103 0.15635 0.78057 0.0
H201 H 0.234 0.15518 0.76804 0.0
H202 H 0.16375 0.21936 0.73604 0.0
H203 H 0.16045 0.2666 0.71553 0.0
H204 H 0.22517 0.33742 0.70166 0.0
H205 H 0.27208 0.33872 0.71444 0.0
H206 H 0.34037 0.27633 0.75595 0.0
H207 H 0.34393 0.22913 0.7757 0.0
H208 H 0.29385 0.26252 0.63858 0.0
H209 H 0.23804 0.20974 0.64555 0.0
H210 H 0.26289 0.28969 0.83964 0.0
H211 H 0.21931 0.22619 0.85095 0.0
C212 C 0.98437 0.98572 0.56848 0.0
C213 C 0.96698 0.97179 0.58478 0.0
C214 C 0.95371 0.96178 0.56403 0.0
C215 C 0.96337 0.97028 0.5362 0.0
N216 N 0.98223 0.98496 0.53774 0.0
Co217 Co 0.99897 0.00336 0.50172 0.0
N218 N 0.97832 0.98963 0.47111 0.0
C219 C 0.96082 0.97335 0.47796 0.0
C220 C 0.95117 0.96498 0.45299 0.0
C221 C 0.96334 0.97639 0.42856 0.0
C222 C 0.97964 0.99151 0.43989 0.0
N223 N 0.01536 0.02216 0.46581 0.0
C224 C 0.01261 0.02219 0.4351 0.0
C225 C 0.02759 0.03882 0.41901 0.0
C226 C 0.04077 0.04889 0.43982 0.0
C227 C 0.03298 0.03825 0.46752 0.0
N228 N 0.02002 0.01666 0.53219 0.0
C229 C 0.0385 0.03182 0.52524 0.0
C230 C 0.05013 0.0379 0.55012 0.0
C231 C 0.03822 0.0262 0.57457 0.0
C232 C 0.01963 0.01379 0.56335 0.0
N233 N 0.02368 0.97507 0.49698 0.0
C234 C 0.05713 0.93602 0.48026 0.0
C235 C 0.06495 0.95977 0.48164 0.0
C236 C 0.04806 0.97887 0.49004 0.0
C237 C 0.03273 0.93177 0.48941 0.0
C238 C 0.01653 0.95134 0.49804 0.0
N239 N 0.9742 0.03164 0.5066 0.0
C240 C 0.9649 0.07341 0.52076 0.0
C241 C 0.94 0.06904 0.52635 0.0
C242 C 0.93217 0.04637 0.51929 0.0
C243 C 0.94943 0.02812 0.50931 0.0
C244 C 0.98148 0.05471 0.51061 0.0
H245 H 0.94238 0.01105 0.50504 0.0
H246 H 1.00023 0.05911 0.50721 0.0
H247 H 0.055 0.99668 0.48976 0.0
H248 H 0.99817 0.94694 0.50466 0.0
C249 C 0.95461 0.96548 0.50817 0.0
C250 C 0.00191 0.99991 0.58341 0.0
C251 C 0.99641 0.0067 0.41994 0.0
C252 C 0.04318 0.04149 0.49529 0.0
H253 H 0.9637 0.96949 0.60916 0.0
H254 H 0.93838 0.95017 0.5687 0.0
H255 H 0.9374 0.95161 0.45258 0.0
H256 H 0.9608 0.97331 0.40509 0.0
H257 H 0.02912 0.04308 0.39467 0.0
H258 H 0.0548 0.06203 0.43522 0.0
H259 H 0.06515 0.0499 0.5505 0.0
H260 H 0.0426 0.02704 0.59806 0.0
H261 H 0.08375 0.96391 0.47489 0.0
H262 H 0.02604 0.91348 0.48941 0.0
H263 H 0.9717 0.09102 0.5249 0.0
H264 H 0.91299 0.04218 0.52288 0.0
C265 C 0.27758 0.7987 0.71645 0.0
C266 C 0.26688 0.82061 0.70311 0.0
C267 C 0.24198 0.81998 0.70857 0.0
C268 C 0.23878 0.79793 0.72509 0.0
N269 N 0.26012 0.78438 0.73072 0.0
Co270 Co 0.26321 0.75123 0.75471 0.0
N271 N 0.22635 0.75017 0.76224 0.0
C272 C 0.20916 0.76786 0.75249 0.0
C273 C 0.18546 0.76288 0.7617 0.0
C274 C 0.18751 0.74069 0.77846 0.0
C275 C 0.21247 0.73318 0.7784 0.0
N276 N 0.2663 0.71811 0.77882 0.0
C277 C 0.24883 0.70398 0.79347 0.0
C278 C 0.25952 0.68223 0.80719 0.0
C279 C 0.28442 0.68274 0.80156 0.0
C280 C 0.28765 0.70459 0.7846 0.0
N281 N 0.30008 0.75226 0.74712 0.0
C282 C 0.31726 0.73448 0.75666 0.0
C283 C 0.34096 0.73948 0.74741 0.0
C284 C 0.33889 0.76179 0.73088 0.0
C285 C 0.31395 0.76935 0.73112 0.0
N286 N 0.26514 0.76779 0.79276 0.0
C287 C 0.26313 0.78523 0.85095 0.0
C288 C 0.28162 0.7677 0.84244 0.0
C289 C 0.28242 0.75948 0.81336 0.0
C290 C 0.2469 0.79544 0.82914 0.0
C291 C 0.24828 0.78654 0.80027 0.0
N292 N 0.26126 0.73453 0.71672 0.0
C293 C 0.27768 0.70418 0.68267 0.0
C294 C 0.26058 0.71278 0.66116 0.0
C295 C 0.24325 0.73189 0.66828 0.0
C296 C 0.24392 0.74242 0.69599 0.0
C297 C 0.27761 0.71513 0.71011 0.0
H298 H 0.23049 0.75716 0.6999 0.0
H299 H 0.29117 0.70771 0.72539 0.0
H300 H 0.29669 0.74581 0.80848 0.0
H301 H 0.235 0.79451 0.78485 0.0
C302 C 0.21597 0.78937 0.73557 0.0
C303 C 0.30445 0.79264 0.71509 0.0
C304 C 0.22197 0.71009 0.79484 0.0
C305 C 0.31048 0.71303 0.77385 0.0
H306 H 0.27608 0.8356 0.69077 0.0
H307 H 0.22787 0.83399 0.70137 0.0
H308 H 0.16868 0.77426 0.75722 0.0
H309 H 0.1723 0.73133 0.78983 0.0
H310 H 0.2503 0.66744 0.81994 0.0
H311 H 0.29852 0.6688 0.80898 0.0
H312 H 0.35774 0.7281 0.75183 0.0
H313 H 0.35409 0.77122 0.71961 0.0
H314 H 0.29498 0.75978 0.85849 0.0
H315 H 0.23239 0.80926 0.83478 0.0
H316 H 0.2912 0.6891 0.67832 0.0
H317 H 0.2297 0.73925 0.65219 0.0
C318 C 0.45897 0.02064 0.96469 0.0
C319 C 0.43896 0.01104 0.95256 0.0
C320 C 0.44031 0.98633 0.96098 0.0
C321 C 0.46099 0.98221 0.97762 0.0
N322 N 0.47304 0.00279 0.98031 0.0
Co323 Co 0.50403 0.00497 0.00261 0.0
N324 N 0.5067 0.96831 0.01357 0.0
C325 C 0.49138 0.95161 0.00561 0.0
C326 C 0.49775 0.92782 0.01641 0.0
C327 C 0.51845 0.92931 0.03215 0.0
C328 C 0.5236 0.95405 0.02996 0.0
N329 N 0.53454 0.00728 0.02576 0.0
C330 C 0.54855 0.98944 0.04153 0.0
C331 C 0.5681 0.99919 0.05446 0.0
C332 C 0.56622 0.02404 0.04699 0.0
C333 C 0.54579 0.02808 0.0299 0.0
N334 N 0.50186 0.0415 0.99072 0.0
C335 C 0.51782 0.05803 0.99746 0.0
C336 C 0.51199 0.08167 0.98562 0.0
C337 C 0.49114 0.08019 0.97015 0.0
C338 C 0.48546 0.0556 0.97343 0.0
N339 N 0.48365 0.01025 0.04031 0.0
C340 C 0.45925 0.01463 0.09746 0.0
C341 C 0.4748 0.03256 0.08507 0.0
C342 C 0.48676 0.03 0.05674 0.0
C343 C 0.45466 0.99548 0.07977 0.0
C344 C 0.46681 0.99378 0.05134 0.0
N345 N 0.52437 0.99981 0.96492 0.0
C346 C 0.55645 0.01301 0.92862 0.0
C347 C 0.54817 0.9985 0.90709 0.0
C348 C 0.52918 0.98306 0.91589 0.0
C349 C 0.51777 0.98386 0.9448 0.0
C350 C 0.54444 0.01328 0.95726 0.0
H351 H 0.50303 0.97212 0.94989 0.0
H352 H 0.55121 0.0252 0.97238 0.0
H353 H 0.49893 0.04388 0.04909 0.0
H354 H 0.46284 0.97855 0.03919 0.0
C355 C 0.47039 0.95904 0.98939 0.0
C356 C 0.4641 0.0467 0.96003 0.0
C357 C 0.54436 0.96309 0.04452 0.0
C358 C 0.53754 0.05095 0.01602 0.0
H359 H 0.425 0.02082 0.93868 0.0
H360 H 0.42795 0.97288 0.95516 0.0
H361 H 0.48822 0.9114 0.01362 0.0
H362 H 0.52841 0.91392 0.04422 0.0
H363 H 0.58242 0.98935 0.0677 0.0
H364 H 0.57851 0.03752 0.05292 0.0
H365 H 0.52163 0.09806 0.98816 0.0
H366 H 0.48117 0.09551 0.95796 0.0
H367 H 0.47843 0.04812 0.09762 0.0
H368 H 0.44274 0.98111 0.08837 0.0
H369 H 0.57152 0.02482 0.92304 0.0
H370 H 0.52207 0.97146 0.90003 0.0
C371 C 0.21715 0.24637 0.30226 0.0
C372 C 0.19646 0.25793 0.31607 0.0
C373 C 0.18875 0.27722 0.29629 0.0
C374 C 0.20511 0.27623 0.27163 0.0
N375 N 0.22234 0.25704 0.27416 0.0
Co376 Co 0.25041 0.24899 0.24472 0.0
N377 N 0.24111 0.27894 0.21721 0.0
C378 C 0.22276 0.29656 0.22187 0.0
C379 C 0.21981 0.31368 0.19751 0.0
C380 C 0.23674 0.30604 0.1757 0.0
C381 C 0.24901 0.28469 0.18814 0.0
N382 N 0.27848 0.24099 0.21508 0.0
C383 C 0.28256 0.25061 0.18617 0.0
C384 C 0.3028 0.23859 0.17196 0.0
C385 C 0.31144 0.22026 0.19245 0.0
C386 C 0.296 0.22209 0.21783 0.0
N387 N 0.25964 0.21893 0.27218 0.0
C388 C 0.27826 0.20157 0.26747 0.0
C389 C 0.28112 0.18416 0.29144 0.0
C390 C 0.26375 0.19116 0.31306 0.0
C391 C 0.25114 0.21251 0.30091 0.0
N392 N 0.22892 0.22964 0.22228 0.0
C393 C 0.20091 0.20501 0.18397 0.0
C394 C 0.22403 0.19496 0.19285 0.0
C395 C 0.23751 0.20739 0.21203 0.0
C396 C 0.19164 0.22712 0.19551 0.0
C397 C 0.20581 0.23901 0.21454 0.0
N398 N 0.27203 0.26842 0.26708 0.0
C399 C 0.31039 0.27201 0.29126 0.0
C400 C 0.3024 0.29547 0.29992 0.0
C401 C 0.27884 0.30505 0.29217 0.0
C402 C 0.26408 0.29132 0.27594 0.0
C403 C 0.29508 0.25897 0.27494 0.0
H404 H 0.24634 0.29965 0.27087 0.0
H405 H 0.30233 0.24124 0.26912 0.0
H406 H 0.25511 0.19892 0.21759 0.0
H407 H 0.1979 0.25599 0.22214 0.0
C408 C 0.2063 0.29431 0.24724 0.0
C409 C 0.23324 0.22771 0.3183 0.0
C410 C 0.26576 0.26879 0.17046 0.0
C411 C 0.29482 0.20407 0.24224 0.0
H412 H 0.18868 0.25365 0.3388 0.0
H413 H 0.17386 0.29107 0.30012 0.0
H414 H 0.20586 0.32885 0.19512 0.0
H415 H 0.2389 0.31431 0.15265 0.0
H416 H 0.30977 0.24174 0.1487 0.0
H417 H 0.32608 0.20615 0.18849 0.0
H418 H 0.29516 0.16906 0.29369 0.0
H419 H 0.2616 0.18209 0.3356 0.0
H420 H 0.23205 0.17789 0.18443 0.0
H421 H 0.17355 0.23534 0.1898 0.0
H422 H 0.32835 0.26361 0.29717 0.0
H423 H 0.2719 0.3233 0.29809 0.0
C424 C 0.72198 0.30627 0.78792 0.0
C425 C 0.7295 0.32959 0.79205 0.0
C426 C 0.75141 0.33179 0.77592 0.0
C427 C 0.75598 0.30983 0.76286 0.0
N428 N 0.73828 0.2937 0.76955 0.0
Co429 Co 0.73777 0.2595 0.75558 0.0
N430 N 0.76983 0.26299 0.73137 0.0
C431 C 0.78329 0.28311 0.72809 0.0
C432 C 0.80377 0.28056 0.70891 0.0
C433 C 0.8034 0.25745 0.69921 0.0
C434 C 0.78271 0.24709 0.71333 0.0
N435 N 0.73748 0.22514 0.74206 0.0
C436 C 0.75381 0.21253 0.72375 0.0
C437 C 0.74693 0.18874 0.72096 0.0
C438 C 0.72531 0.18635 0.73766 0.0
C439 C 0.72032 0.20862 0.74985 0.0
N440 N 0.70545 0.2562 0.77928 0.0
C441 C 0.69156 0.2364 0.78178 0.0
C442 C 0.67031 0.23954 0.79951 0.0
C443 C 0.67054 0.26278 0.80891 0.0
C444 C 0.69202 0.27253 0.79623 0.0
N445 N 0.71971 0.27276 0.7193 0.0
C446 C 0.69981 0.28696 0.6626 0.0
C447 C 0.6913 0.2668 0.6807 0.0
C448 C 0.70127 0.26022 0.70892 0.0
C449 C 0.7169 0.30111 0.67444 0.0
C450 C 0.72646 0.29379 0.7027 0.0
N451 N 0.75596 0.24615 0.79177 0.0
C452 C 0.75966 0.21758 0.83638 0.0
C453 C 0.78017 0.22892 0.84498 0.0
C454 C 0.78892 0.24844 0.82593 0.0
C455 C 0.7767 0.25662 0.79959 0.0
C456 C 0.74795 0.22641 0.80993 0.0
H457 H 0.78418 0.27168 0.78619 0.0
H458 H 0.73217 0.21725 0.80502 0.0
H459 H 0.69437 0.24442 0.72143 0.0
H460 H 0.73998 0.3049 0.71004 0.0
C461 C 0.77625 0.30416 0.74335 0.0
C462 C 0.699 0.29717 0.80149 0.0
C463 C 0.77597 0.22224 0.70851 0.0
C464 C 0.69933 0.21481 0.76796 0.0
H465 H 0.72005 0.34366 0.80518 0.0
H466 H 0.76255 0.34761 0.77371 0.0
H467 H 0.81726 0.29398 0.70255 0.0
H468 H 0.81679 0.24928 0.68332 0.0
H469 H 0.75648 0.17456 0.70812 0.0
H470 H 0.71444 0.17034 0.74044 0.0
H471 H 0.65642 0.22641 0.80519 0.0
H472 H 0.65657 0.27147 0.82366 0.0
H473 H 0.67762 0.25564 0.67268 0.0
H474 H 0.72402 0.31694 0.66125 0.0
H475 H 0.752 0.20256 0.85061 0.0
H476 H 0.80495 0.25761 0.83153 0.0
C477 C 0.76579 0.69723 0.27925 0.0
C478 C 0.75546 0.67602 0.29234 0.0
C479 C 0.73061 0.67951 0.28923 0.0
C480 C 0.72706 0.70264 0.27482 0.0
N481 N 0.74821 0.71403 0.26795 0.0
Co482 Co 0.75105 0.74912 0.25074 0.0
N483 N 0.7142 0.75515 0.24933 0.0
C484 C 0.69707 0.73876 0.25777 0.0
C485 C 0.67335 0.74761 0.25224 0.0
C486 C 0.67544 0.7709 0.23883 0.0
C487 C 0.70043 0.77491 0.23705 0.0
N488 N 0.75393 0.78435 0.23423 0.0
C489 C 0.73631 0.80145 0.22389 0.0
C490 C 0.74622 0.82354 0.21345 0.0
C491 C 0.7711 0.82012 0.2167 0.0
C492 C 0.77493 0.79627 0.22898 0.0
N493 N 0.78788 0.74297 0.25138 0.0
C494 C 0.805 0.759 0.24139 0.0
C495 C 0.82884 0.74951 0.24466 0.0
C496 C 0.82685 0.72622 0.2581 0.0
C497 C 0.80178 0.72293 0.2626 0.0
N498 N 0.7518 0.73878 0.20868 0.0
C499 C 0.74745 0.73048 0.14727 0.0
C500 C 0.76508 0.74565 0.15587 0.0
C501 C 0.76703 0.74939 0.18644 0.0
C502 C 0.73321 0.71811 0.17007 0.0
C503 C 0.73577 0.72241 0.20047 0.0
N504 N 0.75029 0.75946 0.29282 0.0
C505 C 0.77082 0.77652 0.33278 0.0
C506 C 0.75365 0.76726 0.35462 0.0
C507 C 0.73385 0.75553 0.34471 0.0
C508 C 0.73249 0.75193 0.31396 0.0
C509 C 0.76868 0.77263 0.30222 0.0
H510 H 0.71723 0.74242 0.30801 0.0
H511 H 0.78259 0.77976 0.2868 0.0
H512 H 0.7805 0.76153 0.19136 0.0
H513 H 0.72404 0.7129 0.2168 0.0
C514 C 0.704 0.71481 0.26951 0.0
C515 C 0.79216 0.70118 0.27955 0.0
C516 C 0.7103 0.79716 0.22188 0.0
C517 C 0.79808 0.78359 0.23202 0.0
H518 H 0.76465 0.65994 0.30393 0.0
H519 H 0.71668 0.66708 0.29765 0.0
H520 H 0.65661 0.73799 0.25657 0.0
H521 H 0.66035 0.78326 0.23052 0.0
H522 H 0.73654 0.84011 0.20356 0.0
H523 H 0.78488 0.83308 0.20957 0.0
H524 H 0.84565 0.75878 0.23907 0.0
H525 H 0.84212 0.71341 0.26483 0.0
H526 H 0.77706 0.75502 0.13901 0.0
H527 H 0.71943 0.70599 0.16448 0.0
H528 H 0.78647 0.78585 0.33926 0.0
H529 H 0.71963 0.74871 0.36067 0.0
C530 C 0.76985 0.30459 0.21465 0.0
C531 C 0.75887 0.32594 0.20027 0.0
C532 C 0.73396 0.32393 0.20316 0.0
C533 C 0.73098 0.30171 0.21939 0.0
N534 N 0.75249 0.28944 0.22742 0.0
Co535 Co 0.75588 0.25648 0.2518 0.0
N536 N 0.71915 0.25287 0.25439 0.0
C537 C 0.70186 0.26895 0.24151 0.0
C538 C 0.67817 0.26215 0.24732 0.0
C539 C 0.68034 0.24051 0.26525 0.0
C540 C 0.70534 0.23534 0.26958 0.0
N541 N 0.75921 0.22368 0.27659 0.0
C542 C 0.74177 0.2089 0.29002 0.0
C543 C 0.75257 0.18857 0.30665 0.0
C544 C 0.7775 0.19049 0.30376 0.0
C545 C 0.78061 0.21187 0.28573 0.0
N546 N 0.79265 0.25993 0.24881 0.0
C547 C 0.80997 0.24323 0.2605 0.0
C548 C 0.83371 0.24916 0.2531 0.0
C549 C 0.83157 0.27087 0.23538 0.0
C550 C 0.80648 0.27726 0.23315 0.0
N551 N 0.75282 0.27335 0.29002 0.0
C552 C 0.74273 0.28955 0.34834 0.0
C553 C 0.76388 0.27438 0.34207 0.0
C554 C 0.7687 0.26678 0.31284 0.0
C555 C 0.72802 0.29839 0.32434 0.0
C556 C 0.73345 0.29019 0.29549 0.0
N557 N 0.759 0.23957 0.21357 0.0
C558 C 0.78257 0.21211 0.18089 0.0
C559 C 0.76998 0.22261 0.15579 0.0
C560 C 0.75034 0.24004 0.16052 0.0
C561 C 0.74501 0.24798 0.18948 0.0
C562 C 0.77672 0.22074 0.20947 0.0
H563 H 0.73008 0.26155 0.19154 0.0
H564 H 0.7874 0.21253 0.22759 0.0
H565 H 0.78484 0.25487 0.30956 0.0
H566 H 0.72111 0.29695 0.27836 0.0
C567 C 0.70835 0.29122 0.22606 0.0
C568 C 0.79686 0.29956 0.21507 0.0
C569 C 0.71484 0.21365 0.28864 0.0
C570 C 0.80333 0.22165 0.27745 0.0
H571 H 0.76789 0.34133 0.18859 0.0
H572 H 0.7197 0.33696 0.19405 0.0
H573 H 0.66126 0.27207 0.24001 0.0
H574 H 0.66519 0.22992 0.27447 0.0
H575 H 0.74338 0.17404 0.31997 0.0
H576 H 0.79167 0.178 0.31403 0.0
H577 H 0.85061 0.23861 0.25925 0.0
H578 H 0.84686 0.28054 0.22478 0.0
H579 H 0.77623 0.26772 0.35989 0.0
H580 H 0.71157 0.31041 0.3281 0.0
H581 H 0.79769 0.19824 0.17827 0.0
H582 H 0.73955 0.24804 0.14177 0.0
C583 C 0.72139 0.75896 0.80766 0.0
C584 C 0.70137 0.77305 0.81939 0.0
C585 C 0.69474 0.79064 0.79696 0.0
C586 C 0.71109 0.78639 0.77299 0.0
N587 N 0.72753 0.76686 0.77853 0.0
Co588 Co 0.75571 0.75521 0.75088 0.0
N589 N 0.747 0.78214 0.71863 0.0
C590 C 0.72825 0.79984 0.71989 0.0
C591 C 0.72589 0.81466 0.69346 0.0
C592 C 0.7439 0.80562 0.6739 0.0
C593 C 0.75635 0.78579 0.6897 0.0
N594 N 0.78411 0.7438 0.72354 0.0
C595 C 0.79021 0.75162 0.69443 0.0
C596 C 0.8112 0.73863 0.68333 0.0
C597 C 0.81831 0.72151 0.70608 0.0
C598 C 0.80137 0.72512 0.72966 0.0
N599 N 0.76415 0.72797 0.78276 0.0
C600 C 0.78244 0.70981 0.78111 0.0
C601 C 0.78363 0.69383 0.80672 0.0
C602 C 0.76525 0.70249 0.82607 0.0
C603 C 0.75398 0.72342 0.81109 0.0
N604 N 0.734 0.73334 0.73247 0.0
C605 C 0.70293 0.70208 0.70708 0.0
C606 C 0.72714 0.69399 0.71378 0.0
C607 C 0.74224 0.7098 0.7263 0.0
C608 C 0.69462 0.72616 0.71301 0.0
C609 C 0.71033 0.74135 0.72556 0.0
N610 N 0.77736 0.77705 0.76954 0.0
C611 C 0.81387 0.78231 0.7967 0.0
C612 C 0.80572 0.80665 0.8016 0.0
C613 C 0.78364 0.81623 0.78913 0.0
C614 C 0.76991 0.80127 0.77324 0.0
C615 C 0.79957 0.768 0.78065 0.0
H616 H 0.75315 0.80962 0.76467 0.0
H617 H 0.80663 0.74951 0.77817 0.0
H618 H 0.76049 0.70253 0.73085 0.0
H619 H 0.70291 0.75952 0.72937 0.0
C620 C 0.71217 0.80104 0.74554 0.0
C621 C 0.73498 0.73934 0.82557 0.0
C622 C 0.77563 0.76982 0.67572 0.0
C623 C 0.79952 0.70957 0.75635 0.0
H624 H 0.6928 0.77125 0.84204 0.0
H625 H 0.6802 0.80524 0.79827 0.0
H626 H 0.71212 0.82965 0.68862 0.0
H627 H 0.74693 0.81242 0.6504 0.0
H628 H 0.81988 0.74076 0.66074 0.0
H629 H 0.83335 0.7074 0.70505 0.0
H630 H 0.79686 0.67828 0.81122 0.0
H631 H 0.76109 0.6948 0.84899 0.0
H632 H 0.73437 0.67539 0.70981 0.0
H633 H 0.67613 0.73343 0.70768 0.0
H634 H 0.83084 0.77401 0.80602 0.0
H635 H 0.77683 0.83518 0.79178 0.0
C636 C 0.46367 0.50267 0.55145 0.0
C637 C 0.44206 0.51567 0.56066 0.0
C638 C 0.43742 0.53409 0.53838 0.0
C639 C 0.45635 0.53117 0.51694 0.0
N640 N 0.47239 0.51158 0.52381 0.0
Co641 Co 0.50306 0.50084 0.50001 0.0
N642 N 0.49829 0.52972 0.46917 0.0
C643 C 0.48038 0.54832 0.46969 0.0
C644 C 0.48091 0.56443 0.4442 0.0
C645 C 0.49981 0.55521 0.42596 0.0
C646 C 0.50986 0.53394 0.44152 0.0
N647 N 0.53366 0.49004 0.47608 0.0
C648 C 0.54196 0.49859 0.44809 0.0
C649 C 0.56334 0.48539 0.43856 0.0
C650 C 0.56828 0.46722 0.46104 0.0
C651 C 0.54971 0.47045 0.48289 0.0
N652 N 0.50788 0.47199 0.53091 0.0
C653 C 0.52602 0.45359 0.5306 0.0
C654 C 0.52556 0.43754 0.55613 0.0
C655 C 0.50641 0.44654 0.57418 0.0
C656 C 0.49614 0.46762 0.55845 0.0
N657 N 0.48347 0.48107 0.47554 0.0
C658 C 0.45563 0.45313 0.44073 0.0
C659 C 0.4779 0.44321 0.45241 0.0
C660 C 0.4914 0.45738 0.46963 0.0
C661 C 0.44777 0.4774 0.4462 0.0
C662 C 0.46187 0.49093 0.46346 0.0
N663 N 0.52265 0.5206 0.52457 0.0
C664 C 0.55812 0.52389 0.55446 0.0
C665 C 0.54986 0.54781 0.56108 0.0
C666 C 0.52764 0.55784 0.54936 0.0
C667 C 0.51445 0.54403 0.53128 0.0
C668 C 0.54438 0.51077 0.53631 0.0
H669 H 0.49766 0.5527 0.52308 0.0
H670 H 0.55168 0.49263 0.53234 0.0
H671 H 0.50815 0.44875 0.47797 0.0
H672 H 0.45491 0.50935 0.46665 0.0
C673 C 0.46113 0.54795 0.49199 0.0
C674 C 0.47704 0.48442 0.57147 0.0
C675 C 0.52836 0.51672 0.42818 0.0
C676 C 0.54514 0.45385 0.5081 0.0
H677 H 0.43163 0.51293 0.58208 0.0
H678 H 0.4228 0.54868 0.53861 0.0
H679 H 0.46803 0.58005 0.43863 0.0
H680 H 0.50466 0.56278 0.40326 0.0
H681 H 0.57338 0.48783 0.41683 0.0
H682 H 0.58279 0.45252 0.46067 0.0
H683 H 0.53853 0.42201 0.56179 0.0
H684 H 0.50148 0.43892 0.59683 0.0
H685 H 0.48464 0.42438 0.4489 0.0
H686 H 0.43081 0.48598 0.43713 0.0
H687 H 0.57505 0.51518 0.56344 0.0
H688 H 0.52061 0.57644 0.55366 0.0
C689 C 0.96088 0.49443 0.0454 0.0
C690 C 0.94015 0.50551 0.05971 0.0
C691 C 0.94174 0.53046 0.05459 0.0
C692 C 0.96326 0.53331 0.03743 0.0
N693 N 0.9756 0.51167 0.03127 0.0
Co694 Co 0.0077 0.50788 0.00654 0.0
N695 N 0.01063 0.54471 1.00011 0.0
C696 C 0.99468 0.56228 0.01144 0.0
C697 C 1.0012 0.58592 0.00359 0.0
C698 C 0.02261 0.58338 0.98617 0.0
C699 C 0.02802 0.55822 0.98432 0.0
N700 N 0.03944 0.50409 0.98112 0.0
C701 C 0.05382 0.5213 0.96631 0.0
C702 C 0.07395 0.51019 0.95082 0.0
C703 C 0.07222 0.48525 0.95574 0.0
C704 C 0.05123 0.48245 0.97391 0.0
N705 N 0.00513 0.47104 0.01365 0.0
C706 C 0.02173 0.45345 0.00364 0.0
C707 C 0.01572 0.4298 0.01244 0.0
C708 C 0.99404 0.43234 0.02929 0.0
C709 C 0.98795 0.45751 0.02979 0.0
N710 N 0.98884 0.50859 0.9692 0.0
C711 C 0.9621 0.50949 0.91624 0.0
C712 C 0.97969 0.49022 0.92345 0.0
C713 C 0.99282 0.49019 0.94975 0.0
C714 C 0.95802 0.52826 0.93595 0.0
C715 C 0.97139 0.52738 0.96219 0.0
N716 N 0.02637 0.50705 0.04406 0.0
C717 C 0.05666 0.4868 0.07768 0.0
C718 C 0.04699 0.50057 0.10132 0.0
C719 C 0.02832 0.51895 0.09526 0.0
C720 C 0.01858 0.52206 0.06659 0.0
C721 C 0.04612 0.49035 0.04928 0.0
H722 H 0.00418 0.53617 0.06359 0.0
H723 H 0.05372 0.47882 0.03231 0.0
H724 H 0.00622 0.4752 0.9537 0.0
H725 H 0.96729 0.54217 0.97633 0.0
C726 C 0.97305 0.55597 0.02804 0.0
C727 C 0.96569 0.46747 0.04613 0.0
C728 C 0.04953 0.54827 0.96651 0.0
C729 C 0.04239 0.4598 0.9852 0.0
H730 H 0.92546 0.49644 0.0727 0.0
H731 H 0.92889 0.54484 0.06275 0.0
H732 H 0.99133 0.60302 0.0094 0.0
H733 H 0.03291 0.59837 0.97566 0.0
H734 H 0.08847 0.5192 0.93745 0.0
H735 H 0.08485 0.47086 0.94719 0.0
H736 H 0.02587 0.41271 0.00715 0.0
H737 H 0.98384 0.41736 0.04005 0.0
H738 H 0.98378 0.4755 0.90846 0.0
H739 H 0.94449 0.54353 0.93122 0.0
H740 H 0.07135 0.47251 0.0815 0.0
H741 H 0.02072 0.53037 0.11293 0.0
C742 C 0.47547 0.55611 0.00815 0.0
C743 C 0.48316 0.57999 0.00611 0.0
C744 C 0.50765 0.57834 0.99749 0.0
C745 C 0.51347 0.55366 0.99473 0.0
N746 N 0.49407 0.53946 1.00057 0.0
Co747 Co 0.49443 0.50254 1.00066 0.0
N748 N 0.53096 0.49984 0.9906 0.0
C749 C 0.54625 0.51854 0.98675 0.0
C750 C 0.57006 0.51115 0.97827 0.0
C751 C 0.56994 0.4863 0.97601 0.0
C752 C 0.54594 0.47994 0.9834 0.0
N753 N 0.4948 0.46563 1.0008 0.0
C754 C 0.51328 0.44906 0.99266 0.0
C755 C 0.50567 0.42514 0.99501 0.0
C756 C 0.48132 0.42671 0.0043 0.0
C757 C 0.47551 0.45138 0.00716 0.0
N758 N 0.4579 0.50524 0.01058 0.0
C759 C 0.44263 0.48652 0.01454 0.0
C760 C 0.41872 0.49396 0.02248 0.0
C761 C 0.41872 0.51889 0.02413 0.0
C762 C 0.44275 0.52522 0.01701 0.0
N763 N 0.48833 0.50542 0.95656 0.0
C764 C 0.48308 0.50572 0.89336 0.0
C765 C 0.46846 0.49152 0.91392 0.0
C766 C 0.47136 0.49164 0.94512 0.0
C767 C 0.4997 0.52051 0.90508 0.0
C768 C 0.5019 0.52019 0.93647 0.0
N769 N 0.50057 0.49963 0.04482 0.0
C770 C 0.48954 0.48438 0.09639 0.0
C771 C 0.50688 0.49844 0.10794 0.0
C772 C 0.52148 0.51255 0.08726 0.0
C773 C 0.51804 0.51289 0.05613 0.0
C774 C 0.4868 0.48515 0.06504 0.0
H775 H 0.52957 0.52425 0.04174 0.0
H776 H 0.47314 0.47416 0.05782 0.0
H777 H 0.45992 0.48013 0.9595 0.0
H778 H 0.51507 0.53167 0.94387 0.0
C779 C 0.53723 0.5431 0.98867 0.0
C780 C 0.45065 0.55009 0.01878 0.0
C781 C 0.53783 0.45522 0.98106 0.0
C782 C 0.45172 0.46193 0.01303 0.0
H783 H 0.47227 0.59676 0.01105 0.0
H784 H 0.51993 0.59325 0.9945 0.0
H785 H 0.58544 0.52261 0.9731 0.0
H786 H 0.58558 0.47443 0.96871 0.0
H787 H 0.51648 0.40841 0.9897 0.0
H788 H 0.46907 0.41178 0.00746 0.0
H789 H 0.40332 0.48251 0.02757 0.0
H790 H 0.40297 0.53089 0.0308 0.0
H791 H 0.45485 0.4802 0.90605 0.0
H792 H 0.51155 0.53179 0.89015 0.0
H793 H 0.47765 0.47323 0.11144 0.0
H794 H 0.53559 0.52335 0.09497 0.0
C795 C 0.94684 0.50841 0.47395 0.0
C796 C 0.92598 0.49767 0.46572 0.0
C797 C 0.92564 0.47498 0.48157 0.0
C798 C 0.94642 0.47288 0.49821 0.0
N799 N 0.95994 0.49276 0.49359 0.0
Co800 Co 0.99209 0.49656 0.51166 0.0
N801 N 0.99701 0.46043 0.52299 0.0
C802 C 0.97926 0.44424 0.52492 0.0
C803 C 0.98771 0.42063 0.53432 0.0
C804 C 0.01226 0.42206 0.53898 0.0
C805 C 0.01747 0.44659 0.53205 0.0
N806 N 0.02418 0.5005 0.52977 0.0
C807 C 0.04253 0.48336 0.53782 0.0
C808 C 0.06199 0.49441 0.54926 0.0
C809 C 0.05521 0.51913 0.54925 0.0
C810 C 0.03221 0.52189 0.53755 0.0
N811 N 0.98707 0.53264 0.50052 0.0
C812 C 0.99859 0.55047 0.51239 0.0
C813 C 0.99074 0.57385 0.50131 0.0
C814 C 0.97307 0.57055 0.48129 0.0
C815 C 0.97124 0.5452 0.48113 0.0
N816 N 0.97495 0.50097 0.551 0.0
C817 C 0.94975 0.50515 0.60714 0.0
C818 C 0.97157 0.4901 0.60473 0.0
C819 C 0.984 0.48847 0.5766 0.0
C820 C 0.9409 0.5185 0.58111 0.0
C821 C 0.95367 0.51593 0.55311 0.0
N822 N 0.0091 0.49202 0.47239 0.0
C823 C 0.03762 0.50536 0.43192 0.0
C824 C 0.03147 0.48632 0.41474 0.0
C825 C 0.01451 0.46976 0.42752 0.0
C826 C 0.0035 0.473 0.45619 0.0
C827 C 0.02624 0.50786 0.46073 0.0
H828 H 0.99018 0.46024 0.46503 0.0
H829 H 0.03098 0.52286 0.47334 0.0
H830 H 1.00087 0.4769 0.57565 0.0
H831 H 0.94622 0.52591 0.53318 0.0
C832 C 0.95596 0.45118 0.5138 0.0
C833 C 0.95285 0.53394 0.46438 0.0
C834 C 0.04109 0.45645 0.53804 0.0
C835 C 0.01913 0.54442 0.52994 0.0
H836 H 0.91239 0.50528 0.44988 0.0
H837 H 0.91244 0.4612 0.48002 0.0
H838 H 0.9774 0.40423 0.5369 0.0
H839 H 0.0247 0.40687 0.54726 0.0
H840 H 0.07911 0.48549 0.55735 0.0
H841 H 0.06604 0.53345 0.55625 0.0
H842 H 0.99755 0.59118 0.50645 0.0
H843 H 0.96253 0.58518 0.4686 0.0
H844 H 0.97914 0.47986 0.6246 0.0
H845 H 0.92412 0.53045 0.58233 0.0
H846 H 0.05052 0.51867 0.42286 0.0
H847 H 0.00954 0.45449 0.41533 0.0
H848 H 0.03746 0.01317 0.11979 0.0
H849 H 0.03737 0.01334 0.17553 0.0
H850 H 0.96054 0.99825 0.18186 0.0
H851 H 0.96089 0.99691 0.12629 0.0
H852 H 0.97315 0.03771 0.21955 0.0
H853 H 0.99997 0.95337 0.20111 0.0
H854 H 0.02715 0.92134 0.17745 0.0
H855 H 0.08984 0.94676 0.218 0.0
H856 H 0.06308 0.97924 0.2415 0.0
H857 H 0.95772 0.01658 0.38083 0.0
H858 H 0.95798 0.01531 0.32563 0.0
H859 H 0.0367 0.99803 0.32335 0.0
H860 H 0.03589 0.99696 0.37902 0.0
H861 H 0.0238 0.97566 0.28215 0.0
H862 H 0.00157 0.05986 0.29868 0.0
H863 H 0.97814 0.09543 0.3201 0.0
H864 H 0.91211 0.07561 0.28147 0.0
H865 H 0.93509 0.03973 0.26012 0.0
C866 C 0.02056 0.00965 0.13299 0.0
C867 C 0.99919 0.00499 0.11801 0.0
C868 C 0.02049 0.00983 0.1651 0.0
C869 C 0.99893 0.00583 0.18358 0.0
C870 C 0.97748 0.00153 0.16863 0.0
C871 C 0.97769 1.0008 0.1366 0.0
C872 C 0.99875 0.00585 0.21824 0.0
C873 C 0.98401 0.02392 0.23323 0.0
C874 C 0.01353 0.98859 0.23661 0.0
C875 C 0.02956 0.96889 0.22282 0.0
C876 C 0.01958 0.95227 0.20478 0.0
C877 C 0.03491 0.93401 0.19143 0.0
C878 C 0.06022 0.93206 0.19616 0.0
C879 C 0.07024 0.94832 0.21433 0.0
C880 C 0.055 0.96665 0.22768 0.0
C881 C 0.9751 0.01221 0.36869 0.0
C882 C 0.99675 0.00677 0.38501 0.0
C883 C 0.97537 0.01193 0.3366 0.0
C884 C 0.9975 0.00724 0.31901 0.0
C885 C 0.01918 0.00181 0.33544 0.0
C886 C 0.01877 0.00142 0.36763 0.0
C887 C 0.99805 0.00764 0.28402 0.0
C888 C 0.01289 0.9896 0.26878 0.0
C889 C 0.9839 0.02544 0.26529 0.0
C890 C 0.97 0.04696 0.27808 0.0
C891 C 0.98202 0.063 0.29492 0.0
C892 C 0.96882 0.08323 0.30703 0.0
C893 C 0.94364 0.08774 0.30222 0.0
C894 C 0.93161 0.07207 0.28522 0.0
C895 C 0.94471 0.05179 0.27309 0.0
H896 H 0.93345 0.10341 0.31161 0.0
H897 H 0.07206 0.91791 0.1858 0.0
H898 H 0.23792 0.67351 0.38232 0.0
H899 H 0.2352 0.66621 0.4374 0.0
H900 H 0.31171 0.68133 0.44142 0.0
H901 H 0.31498 0.68776 0.38591 0.0
H902 H 0.29575 0.64557 0.48765 0.0
H903 H 0.27072 0.72755 0.44327 0.0
H904 H 0.24654 0.75637 0.40839 0.0
H905 H 0.17915 0.73231 0.45238 0.0
H906 H 0.20296 0.70293 0.48711 0.0
H907 H 0.30145 0.70317 0.62462 0.0
H908 H 0.30317 0.68974 0.57316 0.0
H909 H 0.22393 0.68645 0.57775 0.0
H910 H 0.2221 0.7002 0.62932 0.0
H911 H 0.23835 0.7116 0.52784 0.0
H912 H 0.26335 0.63336 0.577 0.0
H913 H 0.28737 0.60375 0.61112 0.0
H914 H 0.35406 0.62 0.55926 0.0
H915 H 0.3305 0.64999 0.52507 0.0
C916 C 0.25452 0.6743 0.39466 0.0
C917 C 0.27661 0.68162 0.37969 0.0
C918 C 0.25284 0.67025 0.42623 0.0
C919 C 0.27311 0.67374 0.44338 0.0
C920 C 0.29583 0.67871 0.42849 0.0
C921 C 0.29758 0.68264 0.39682 0.0
C922 C 0.26958 0.67608 0.47642 0.0
C923 C 0.28331 0.66001 0.49658 0.0
C924 C 0.25292 0.69467 0.48787 0.0
C925 C 0.23861 0.71283 0.46753 0.0
C926 C 0.25075 0.72828 0.44536 0.0
C927 C 0.23711 0.74471 0.42561 0.0
C928 C 0.21132 0.74607 0.42807 0.0
C929 C 0.19912 0.73114 0.45042 0.0
C930 C 0.21268 0.7146 0.47013 0.0
C931 C 0.28444 0.6991 0.6149 0.0
C932 C 0.26163 0.70273 0.63094 0.0
C933 C 0.28545 0.69135 0.58551 0.0
C934 C 0.26371 0.68678 0.57174 0.0
C935 C 0.24094 0.68983 0.58799 0.0
C936 C 0.2399 0.69776 0.61735 0.0
C937 C 0.26462 0.68111 0.53946 0.0
C938 C 0.25049 0.69677 0.51924 0.0
C939 C 0.28088 0.66213 0.52809 0.0
C940 C 0.29516 0.64407 0.54858 0.0
C941 C 0.28317 0.63077 0.573 0.0
C942 C 0.2967 0.61389 0.59233 0.0
C943 C 0.32223 0.61003 0.58739 0.0
C944 C 0.33428 0.62302 0.56307 0.0
C945 C 0.32084 0.63994 0.54367 0.0
H946 H 0.33268 0.59695 0.60238 0.0
H947 H 0.20079 0.7587 0.41269 0.0
H948 H 0.55685 0.04179 0.87418 0.0
H949 H 0.56134 0.04852 0.81905 0.0
H950 H 0.56169 0.96998 0.81124 0.0
H951 H 0.55798 0.96294 0.86668 0.0
H952 H 0.59064 0.99302 0.76564 0.0
H953 H 0.50906 1.00007 0.80988 0.0
H954 H 0.4763 0.01474 0.84613 0.0
H955 H 0.48376 0.08953 0.80961 0.0
H956 H 0.51697 0.07534 0.77343 0.0
H957 H 0.49845 0.01499 0.63658 0.0
H958 H 0.50673 0.01377 0.69049 0.0
H959 H 0.58022 0.03689 0.66718 0.0
H960 H 0.57228 0.03662 0.613 0.0
H961 H 0.51638 0.04275 0.72877 0.0
H962 H 0.62038 0.01097 0.71816 0.0
H963 H 0.64934 0.98869 0.68332 0.0
H964 H 0.58969 0.95065 0.65304 0.0
H965 H 0.56047 0.97244 0.68799 0.0
C966 C 0.5589 0.02583 0.8609 0.0
C967 C 0.5567 0.00183 0.87474 0.0
C968 C 0.56131 0.02975 0.82936 0.0
C969 C 0.56136 0.00978 0.8112 0.0
C970 C 0.56156 0.98562 0.82496 0.0
C971 C 0.5592 0.98166 0.85657 0.0
C972 C 0.55739 0.01435 0.77838 0.0
C973 C 0.57458 0.00408 0.75743 0.0
C974 C 0.53592 0.028 0.76796 0.0
C975 C 0.51574 0.03669 0.78927 0.0
C976 C 0.50389 0.01968 0.80977 0.0
C977 C 0.48526 0.02789 0.83029 0.0
C978 C 0.47813 0.05305 0.8303 0.0
C979 C 0.48946 0.07006 0.80966 0.0
C980 C 0.50818 0.06194 0.78913 0.0
C981 C 0.51622 0.02014 0.64308 0.0
C982 C 0.53479 0.02584 0.62095 0.0
C983 C 0.52097 0.01946 0.67383 0.0
C984 C 0.54425 0.02483 0.68293 0.0
C985 C 0.56233 0.03207 0.6607 0.0
C986 C 0.55777 0.03212 0.62987 0.0
C987 C 0.54975 0.02159 0.71559 0.0
C988 C 0.53275 0.03207 0.73669 0.0
C989 C 0.57076 0.00705 0.72615 0.0
C990 C 0.58823 0.99356 0.70541 0.0
C991 C 0.61349 0.99779 0.70413 0.0
C992 C 0.62993 0.98525 0.68436 0.0
C993 C 0.62134 0.96834 0.6659 0.0
C994 C 0.5963 0.96382 0.66727 0.0
C995 C 0.57979 0.97627 0.68704 0.0
H996 H 0.6341 0.95868 0.65057 0.0
H997 H 0.46366 0.05931 0.84614 0.0
H998 H 0.2041 0.24816 0.89311 0.0
H999 H 0.20591 0.2473 0.94839 0.0
H1000 H 0.28111 0.26841 0.93838 0.0
H1001 H 0.27996 0.2679 0.88341 0.0
H1002 H 0.27711 0.23305 0.98202 0.0
H1003 H 0.2304 0.31012 0.95407 0.0
H1004 H 0.19596 0.33583 0.93107 0.0
H1005 H 0.14392 0.29654 0.9895 0.0
H1006 H 0.17806 0.27041 0.01263 0.0
H1007 H 0.29575 0.28228 0.12142 0.0
H1008 H 0.28892 0.27779 0.06767 0.0
H1009 H 0.2188 0.24759 0.09298 0.0
H1010 H 0.22583 0.2518 0.14678 0.0
H1011 H 0.21696 0.28359 0.04347 0.0
H1012 H 0.26355 0.20964 0.07507 0.0
H1013 H 0.29769 0.18421 0.09895 0.0
H1014 H 0.34966 0.2171 0.03409 0.0
H1015 H 0.31586 0.24313 0.01016 0.0
C1016 C 0.22109 0.25244 0.90267 0.0
C1017 C 0.24182 0.25831 0.88373 0.0
C1018 C 0.22201 0.25218 0.93428 0.0
C1019 C 0.24353 0.25815 0.94752 0.0
C1020 C 0.26426 0.26386 0.92869 0.0
C1021 C 0.26345 0.26388 0.89718 0.0
C1022 C 0.24475 0.25837 0.98097 0.0
C1023 C 0.26412 0.24433 0.99538 0.0
C1024 C 0.22725 0.27235 0.99861 0.0
C1025 C 0.20675 0.28812 0.9848 0.0
C1026 C 0.2116 0.30684 0.96184 0.0
C1027 C 0.19213 0.32151 0.94882 0.0
C1028 C 0.16776 0.31777 0.95874 0.0
C1029 C 0.1628 0.29939 0.98179 0.0
C1030 C 0.1822 0.28465 0.99487 0.0
C1031 C 0.27899 0.27459 0.11537 0.0
C1032 C 0.26144 0.26705 0.13793 0.0
C1033 C 0.27508 0.27205 0.08482 0.0
C1034 C 0.25347 0.26213 0.07648 0.0
C1035 C 0.23559 0.25524 0.09902 0.0
C1036 C 0.2396 0.2576 0.12959 0.0
C1037 C 0.24975 0.25894 0.04415 0.0
C1038 C 0.22987 0.27226 0.03006 0.0
C1039 C 0.26675 0.24429 0.02679 0.0
C1040 C 0.28715 0.22853 0.04098 0.0
C1041 C 0.28227 0.21163 0.06604 0.0
C1042 C 0.30157 0.19708 0.07958 0.0
C1043 C 0.32584 0.19908 0.06809 0.0
C1044 C 0.33085 0.2156 0.04299 0.0
C1045 C 0.31162 0.23026 0.02943 0.0
H1046 H 0.34076 0.18779 0.07859 0.0
H1047 H 0.15272 0.32915 0.94864 0.0
H1048 H 0.00744 0.9606 0.62758 0.0
H1049 H 0.00681 0.96124 0.68324 0.0
H1050 H 0.99698 0.04068 0.67448 0.0
H1051 H 0.99659 0.04 0.61887 0.0
H1052 H 0.03277 0.02367 0.71694 0.0
H1053 H 0.94943 0.00638 0.69836 0.0
H1054 H 0.91713 0.98318 0.67874 0.0
H1055 H 0.94224 0.91797 0.7329 0.0
H1056 H 0.97496 0.94068 0.7525 0.0
H1057 H 0.00988 0.04281 0.87433 0.0
H1058 H 0.00881 0.0423 0.81908 0.0
H1059 H 0.99555 0.96479 0.82936 0.0
H1060 H 0.99464 0.96595 0.88484 0.0
H1061 H 0.97176 0.98037 0.78518 0.0
H1062 H 0.05544 0.99367 0.80217 0.0
H1063 H 0.09017 0.01366 0.82144 0.0
H1064 H 0.06849 0.08154 0.77021 0.0
H1065 H 0.03342 0.06204 0.75093 0.0
C1066 C 0.00483 0.97824 0.63743 0.0
C1067 C 0.00185 1.00024 0.61822 0.0
C1068 C 0.00454 0.97861 0.66952 0.0
C1069 C 0.00172 0.00102 0.68379 0.0
C1070 C 0.99921 0.02304 0.6646 0.0
C1071 C 0.99901 0.02264 0.63255 0.0
C1072 C 0.00148 0.00155 0.71841 0.0
C1073 C 0.01918 0.01444 0.73176 0.0
C1074 C 0.98446 0.98886 0.73848 0.0
C1075 C 0.96483 0.97518 0.72664 0.0
C1076 C 0.94823 0.98703 0.70587 0.0
C1077 C 0.9298 0.97398 0.6948 0.0
C1078 C 0.92765 0.94911 0.70454 0.0
C1079 C 0.94392 0.93724 0.72538 0.0
C1080 C 0.96241 0.95019 0.73647 0.0
C1081 C 0.00653 0.02565 0.8649 0.0
C1082 C 0.00237 0.00443 0.88459 0.0
C1083 C 0.0063 0.02522 0.83288 0.0
C1084 C 0.00275 0.00331 0.81888 0.0
C1085 C 0.99846 0.9821 0.83868 0.0
C1086 C 0.99815 0.98269 0.87075 0.0
C1087 C 0.00316 0.00254 0.78407 0.0
C1088 C 0.98547 0.9896 0.77057 0.0
C1089 C 0.02061 0.01466 0.76385 0.0
C1090 C 0.04166 0.02646 0.77536 0.0
C1091 C 0.05798 0.01291 0.79517 0.0
C1092 C 0.07774 0.02415 0.80608 0.0
C1093 C 0.08149 0.04888 0.79712 0.0
C1094 C 0.06553 0.0624 0.77717 0.0
C1095 C 0.04572 0.05126 0.76623 0.0
H1096 H 0.0968 0.05755 0.80559 0.0
H1097 H 0.91335 0.93904 0.69598 0.0
H1098 H 0.72496 0.33321 0.37103 0.0
H1099 H 0.70918 0.33926 0.42325 0.0
H1100 H 0.72618 0.26189 0.44866 0.0
H1101 H 0.74169 0.25571 0.39684 0.0
H1102 H 0.67874 0.27901 0.46816 0.0
H1103 H 0.76366 0.30288 0.46685 0.0
H1104 H 0.79808 0.32809 0.44817 0.0
H1105 H 0.75515 0.39402 0.47072 0.0
H1106 H 0.72034 0.36917 0.48918 0.0
H1107 H 0.69873 0.25258 0.62164 0.0
H1108 H 0.69611 0.2597 0.5669 0.0
H1109 H 0.68477 0.33827 0.57521 0.0
H1110 H 0.6879 0.33117 0.63046 0.0
H1111 H 0.72046 0.32971 0.53575 0.0
H1112 H 0.63903 0.30382 0.54832 0.0
H1113 H 0.60513 0.27817 0.5675 0.0
H1114 H 0.64028 0.21623 0.52405 0.0
H1115 H 0.6746 0.24135 0.50501 0.0
C1116 C 0.72536 0.31757 0.38786 0.0
C1117 C 0.73474 0.29405 0.38003 0.0
C1118 C 0.71638 0.32104 0.41756 0.0
C1119 C 0.7165 0.30099 0.43966 0.0
C1120 C 0.72587 0.27756 0.43185 0.0
C1121 C 0.735 0.27413 0.40236 0.0
C1122 C 0.70722 0.30408 0.47121 0.0
C1123 C 0.68776 0.29008 0.48307 0.0
C1124 C 0.71842 0.31934 0.49011 0.0
C1125 C 0.7393 0.33423 0.47898 0.0
C1126 C 0.76148 0.32277 0.46754 0.0
C1127 C 0.78107 0.33699 0.45706 0.0
C1128 C 0.77877 0.36265 0.45815 0.0
C1129 C 0.75688 0.37414 0.46981 0.0
C1130 C 0.73723 0.36001 0.48029 0.0
C1131 C 0.69486 0.27132 0.61198 0.0
C1132 C 0.6935 0.29133 0.63032 0.0
C1133 C 0.6933 0.27539 0.58059 0.0
C1134 C 0.68994 0.29952 0.56688 0.0
C1135 C 0.68731 0.3195 0.58531 0.0
C1136 C 0.68912 0.31544 0.6168 0.0
C1137 C 0.69253 0.30374 0.53332 0.0
C1138 C 0.71076 0.31916 0.5209 0.0
C1139 C 0.68013 0.28978 0.5139 0.0
C1140 C 0.65947 0.27452 0.5253 0.0
C1141 C 0.63963 0.28469 0.54301 0.0
C1142 C 0.62032 0.27023 0.55385 0.0
C1143 C 0.62056 0.24558 0.54703 0.0
C1144 C 0.6401 0.23534 0.52931 0.0
C1145 C 0.65948 0.2497 0.51844 0.0
H1146 H 0.60558 0.23443 0.55544 0.0
H1147 H 0.79396 0.37362 0.45004 0.0
H1148 H 0.48509 0.02499 0.14525 0.0
H1149 H 0.47348 0.01908 0.19889 0.0
H1150 H 0.40229 0.99657 0.17731 0.0
H1151 H 0.41386 0.00264 0.12287 0.0
H1152 H 0.43893 0.0367 0.23714 0.0
H1153 H 0.38883 0.94878 0.2319 0.0
H1154 H 0.38409 0.91628 0.19712 0.0
H1155 H 0.45742 0.92555 0.15886 0.0
H1156 H 0.46266 0.95786 0.19367 0.0
H1157 H 0.42917 0.97907 0.39182 0.0
H1158 H 0.41051 0.98245 0.34211 0.0
H1159 H 0.48261 0.97037 0.29833 0.0
H1160 H 0.50133 0.9666 0.34774 0.0
H1161 H 0.42907 0.94937 0.27519 0.0
H1162 H 0.48153 0.03275 0.274 0.0
H1163 H 0.49478 0.06176 0.30919 0.0
H1164 H 0.42518 0.05838 0.35951 0.0
H1165 H 0.41147 0.02959 0.32436 0.0
C1166 C 0.46666 0.01951 0.15172 0.0
C1167 C 0.4504 0.01427 0.12976 0.0
C1168 C 0.46006 0.01607 0.1825 0.0
C1169 C 0.43709 0.00726 0.19208 0.0
C1170 C 0.4202 0.00319 0.17032 0.0
C1171 C 0.42686 0.00658 0.13931 0.0
C1172 C 0.43245 1.00024 0.22481 0.0
C1173 C 0.43601 0.01776 0.24549 0.0
C1174 C 0.42873 0.9755 0.23576 0.0
C1175 C 0.42596 0.95592 0.21504 0.0
C1176 C 0.40393 0.94383 0.21608 0.0
C1177 C 0.40117 0.92545 0.19638 0.0
C1178 C 0.42041 0.91893 0.17571 0.0
C1179 C 0.4425 0.93068 0.1748 0.0
C1180 C 0.44537 0.94903 0.19449 0.0
C1181 C 0.44089 0.97616 0.37167 0.0
C1182 C 0.46671 0.97294 0.37344 0.0
C1183 C 0.43021 0.97809 0.34339 0.0
C1184 C 0.44528 0.97677 0.31681 0.0
C1185 C 0.47076 0.97132 0.31876 0.0
C1186 C 0.48143 0.96941 0.3469 0.0
C1187 C 0.43588 0.98578 0.28704 0.0
C1188 C 0.43018 0.96862 0.26696 0.0
C1189 C 0.43804 0.01075 0.27644 0.0
C1190 C 0.44553 0.02904 0.29667 0.0
C1191 C 0.469 0.0384 0.29243 0.0
C1192 C 0.47661 0.05473 0.3124 0.0
C1193 C 0.46085 0.06187 0.3366 0.0
C1194 C 0.43739 0.05281 0.34078 0.0
C1195 C 0.42969 0.03649 0.32085 0.0
H1196 H 0.4668 0.07444 0.3521 0.0
H1197 H 0.41822 0.90473 0.16045 0.0
H1198 H 0.74493 0.7681 0.10284 0.0
H1199 H 0.73817 0.76572 0.04905 0.0
H1200 H 0.73259 0.68692 0.06421 0.0
H1201 H 0.74001 0.68908 0.11826 0.0
H1202 H 0.76227 0.69933 0.0143 0.0
H1203 H 0.6812 0.72352 0.05288 0.0
H1204 H 0.65036 0.74848 0.08233 0.0
H1205 H 0.6676 0.81368 0.02607 0.0
H1206 H 0.6988 0.78918 0.99653 0.0
H1207 H 0.69645 0.72267 0.86179 0.0
H1208 H 0.69381 0.71774 0.91778 0.0
H1209 H 0.76541 0.74695 0.91996 0.0
H1210 H 0.76791 0.75203 0.86423 0.0
H1211 H 0.69684 0.75256 0.96198 0.0
H1212 H 0.79727 0.71081 0.97346 0.0
H1213 H 0.82838 0.68638 0.94371 0.0
H1214 H 0.77078 0.65461 0.90012 0.0
H1215 H 0.73933 0.67844 0.93002 0.0
C1216 C 0.74248 0.75021 0.09471 0.0
C1217 C 0.74315 0.72873 0.1147 0.0
C1218 C 0.73833 0.74893 0.06404 0.0
C1219 C 0.73458 0.7262 0.05277 0.0
C1220 C 0.73532 0.70466 0.07258 0.0
C1221 C 0.73943 0.70593 0.10339 0.0
C1222 C 0.73068 0.72507 0.02004 0.0
C1223 C 0.74782 0.71076 0.0029 0.0
C1224 C 0.7116 0.73978 0.0053 0.0
C1225 C 0.69244 0.7545 0.02257 0.0
C1226 C 0.6785 0.7432 0.04687 0.0
C1227 C 0.66094 0.75726 0.06357 0.0
C1228 C 0.65705 0.78265 0.0561 0.0
C1229 C 0.67063 0.79401 0.03182 0.0
C1230 C 0.68822 0.78003 0.01505 0.0
C1231 C 0.71139 0.72826 0.87443 0.0
C1232 C 0.73233 0.73777 0.85913 0.0
C1233 C 0.70989 0.72547 0.90621 0.0
C1234 C 0.72951 0.73179 0.92284 0.0
C1235 C 0.75021 0.74176 0.90745 0.0
C1236 C 0.75162 0.74469 0.87579 0.0
C1237 C 0.7289 0.72747 0.95629 0.0
C1238 C 0.71098 0.74079 0.9735 0.0
C1239 C 0.74714 0.71173 0.97114 0.0
C1240 C 0.76594 0.69656 0.95387 0.0
C1241 C 0.79123 0.69845 0.95772 0.0
C1242 C 0.80894 0.68473 0.9408 0.0
C1243 C 0.80157 0.669 0.91999 0.0
C1244 C 0.77647 0.66684 0.91619 0.0
C1245 C 0.7587 0.68046 0.93312 0.0
H1246 H 0.8153 0.65845 0.90684 0.0
H1247 H 0.64349 0.79352 0.06911 0.0
H1248 H 0.48726 0.52494 0.59897 0.0
H1249 H 0.48549 0.53067 0.65335 0.0
H1250 H 0.46297 0.45625 0.67278 0.0
H1251 H 0.46231 0.45153 0.61811 0.0
H1252 H 0.43976 0.48377 0.71026 0.0
H1253 H 0.5256 0.47438 0.67606 0.0
H1254 H 0.56105 0.48562 0.64181 0.0
H1255 H 0.55562 0.55859 0.67307 0.0
H1256 H 0.51987 0.54798 0.70697 0.0
H1257 H 0.47707 0.46512 0.86245 0.0
H1258 H 0.47452 0.46316 0.80769 0.0
H1259 H 0.4838 0.54138 0.79369 0.0
H1260 H 0.48575 0.5437 0.8486 0.0
H1261 H 0.51357 0.51339 0.75389 0.0
H1262 H 0.42838 0.52218 0.78864 0.0
H1263 H 0.39167 0.51161 0.82091 0.0
H1264 H 0.39636 0.43902 0.78854 0.0
H1265 H 0.43333 0.44905 0.75639 0.0
C1266 C 0.48172 0.50993 0.61494 0.0
C1267 C 0.47563 0.48752 0.60458 0.0
C1268 C 0.48094 0.5131 0.64599 0.0
C1269 C 0.47498 0.49357 0.6673 0.0
C1270 C 0.468 0.47146 0.65685 0.0
C1271 C 0.46799 0.4686 0.62569 0.0
C1272 C 0.47639 0.49601 0.70042 0.0
C1273 C 0.45606 0.48991 0.71979 0.0
C1274 C 0.49744 0.50457 0.71289 0.0
C1275 C 0.51992 0.51044 0.69388 0.0
C1276 C 0.53198 0.49283 0.67561 0.0
C1277 C 0.55208 0.49911 0.65618 0.0
C1278 C 0.56049 0.52285 0.6551 0.0
C1279 C 0.54904 0.54024 0.67377 0.0
C1280 C 0.52887 0.5341 0.69313 0.0
C1281 C 0.4782 0.48201 0.84783 0.0
C1282 C 0.48143 0.50461 0.86 0.0
C1283 C 0.47689 0.48081 0.81651 0.0
C1284 C 0.47881 0.50216 0.79672 0.0
C1285 C 0.48234 0.52469 0.80864 0.0
C1286 C 0.48352 0.52595 0.84001 0.0
C1287 C 0.47709 0.50087 0.76355 0.0
C1288 C 0.49735 0.50719 0.74425 0.0
C1289 C 0.4561 0.49231 0.75116 0.0
C1290 C 0.43376 0.4863 0.77032 0.0
C1291 C 0.4217 0.5039 0.78858 0.0
C1292 C 0.40083 0.49801 0.80682 0.0
C1293 C 0.39172 0.47463 0.80683 0.0
C1294 C 0.40345 0.45711 0.78854 0.0
C1295 C 0.42435 0.46289 0.77028 0.0
H1296 H 0.37556 0.47011 0.82097 0.0
H1297 H 0.57589 0.52775 0.63982 0.0
H1298 H 0.79342 0.25972 0.8859 0.0
H1299 H 0.80404 0.24889 0.93829 0.0
H1300 H 0.80096 0.17148 0.92487 0.0
H1301 H 0.79002 0.18233 0.87209 0.0
H1302 H 0.77272 0.18284 0.97144 0.0
H1303 H 0.85588 0.19549 0.94293 0.0
H1304 H 0.89147 0.21567 0.91765 0.0
H1305 H 0.87465 0.27901 0.96888 0.0
H1306 H 0.83871 0.25945 0.99411 0.0
H1307 H 0.78165 0.17719 0.13398 0.0
H1308 H 0.79476 0.16873 0.08147 0.0
H1309 H 0.79061 0.24707 0.05553 0.0
H1310 H 0.77777 0.25555 0.10758 0.0
H1311 H 0.83223 0.22234 0.03025 0.0
H1312 H 0.74302 0.21381 0.04477 0.0
H1313 H 0.7065 0.19462 0.06924 0.0
H1314 H 0.73567 0.12351 0.04333 0.0
H1315 H 0.77252 0.14228 0.01902 0.0
C1316 C 0.79578 0.24034 0.89374 0.0
C1317 C 0.79076 0.22187 0.87494 0.0
C1318 C 0.80197 0.23414 0.92376 0.0
C1319 C 0.80357 0.20932 0.9355 0.0
C1320 C 0.79988 0.19073 0.91627 0.0
C1321 C 0.79354 0.19695 0.88621 0.0
C1322 C 0.80534 0.20349 0.96871 0.0
C1323 C 0.78628 0.19079 0.98424 0.0
C1324 C 0.82286 0.214 0.98551 0.0
C1325 C 0.8445 0.22596 0.97039 0.0
C1326 C 0.85965 0.21379 0.94867 0.0
C1327 C 0.87991 0.22513 0.93436 0.0
C1328 C 0.88531 0.24861 0.94164 0.0
C1329 C 0.87046 0.26081 0.96328 0.0
C1330 C 0.85016 0.24958 0.97764 0.0
C1331 C 0.78375 0.19253 0.11702 0.0
C1332 C 0.77836 0.21699 0.1246 0.0
C1333 C 0.79124 0.1877 0.08717 0.0
C1334 C 0.7936 0.2073 0.06472 0.0
C1335 C 0.78898 0.23171 0.07257 0.0
C1336 C 0.78134 0.23651 0.10218 0.0
C1337 C 0.79903 0.20287 0.03243 0.0
C1338 C 0.81939 0.2136 0.01724 0.0
C1339 C 0.78274 0.1906 0.01588 0.0
C1340 C 0.76064 0.17936 0.03049 0.0
C1341 C 0.74173 0.19405 0.04454 0.0
C1342 C 0.72096 0.18326 0.05832 0.0
C1343 C 0.71881 0.15784 0.05794 0.0
C1344 C 0.73739 0.14318 0.04369 0.0
C1345 C 0.75822 0.15388 0.02991 0.0
H1346 H 0.70272 0.14953 0.06861 0.0
H1347 H 0.90101 0.25735 0.93054 0.0
H1348 H 0.01678 0.4883 0.14949 0.0
H1349 H 0.02724 0.47992 0.20254 0.0
H1350 H 0.1038 0.49058 0.17769 0.0
H1351 H 0.09329 0.49874 0.12392 0.0
H1352 H 0.06112 0.44398 0.23084 0.0
H1353 H 0.12179 0.52274 0.24071 0.0
H1354 H 0.13235 0.5624 0.21367 0.0
H1355 H 0.05894 0.57369 0.18124 0.0
H1356 H 0.04792 0.53427 0.20839 0.0
H1357 H 0.07889 0.49251 0.39168 0.0
H1358 H 0.09462 0.48912 0.33886 0.0
H1359 H 0.02224 0.47255 0.31399 0.0
H1360 H 0.00647 0.47618 0.36601 0.0
H1361 H 0.08002 0.51563 0.28626 0.0
H1362 H 0.0253 0.43033 0.26502 0.0
H1363 H 0.01386 0.39141 0.29294 0.0
H1364 H 0.07532 0.3928 0.3499 0.0
H1365 H 0.08739 0.43153 0.32205 0.0
C1366 C 0.03587 0.48871 0.15533 0.0
C1367 C 0.05423 0.49435 0.13287 0.0
C1368 C 0.04185 0.48374 0.18553 0.0
C1369 C 0.06626 0.48463 0.19395 0.0
C1370 C 0.08486 0.48979 0.17152 0.0
C1371 C 0.07888 0.49443 0.14099 0.0
C1372 C 0.07125 0.48165 0.22664 0.0
C1373 C 0.06554 0.45948 0.24306 0.0
C1374 C 0.07794 0.50162 0.24233 0.0
C1375 C 0.08419 0.52544 0.22618 0.0
C1376 C 0.10793 0.53372 0.22781 0.0
C1377 C 0.11399 0.55615 0.21249 0.0
C1378 C 0.09636 0.5705 0.19563 0.0
C1379 C 0.07261 0.56251 0.19418 0.0
C1380 C 0.06646 0.54011 0.2095 0.0
C1381 C 0.06639 0.48817 0.37487 0.0
C1382 C 0.04151 0.48429 0.3831 0.0
C1383 C 0.07542 0.48613 0.34482 0.0
C1384 C 0.05973 0.48002 0.32272 0.0
C1385 C 0.03486 0.47656 0.33087 0.0
C1386 C 0.02586 0.47862 0.36067 0.0
C1387 C 0.06842 0.47839 0.29059 0.0
C1388 C 0.0767 0.49966 0.27423 0.0
C1389 C 0.06416 0.45752 0.27492 0.0
C1390 C 0.05724 0.43391 0.29142 0.0
C1391 C 0.03653 0.42224 0.28332 0.0
C1392 C 0.02988 0.40023 0.29919 0.0
C1393 C 0.04384 0.38965 0.32319 0.0
C1394 C 0.0645 0.40104 0.33134 0.0
C1395 C 0.07123 0.42304 0.31553 0.0
H1396 H 0.03865 0.37262 0.33547 0.0
H1397 H 0.10109 0.58785 0.18377 0.0
H1398 H 0.79444 0.80404 0.6339 0.0
H1399 H 0.79468 0.80394 0.57821 0.0
H1400 H 0.76185 0.73362 0.58738 0.0
H1401 H 0.76146 0.73387 0.64296 0.0
H1402 H 0.79924 0.73673 0.54117 0.0
H1403 H 0.72601 0.78347 0.57632 0.0
H1404 H 0.70375 0.81631 0.6043 0.0
H1405 H 0.74132 0.87142 0.54822 0.0
H1406 H 0.76421 0.83883 0.5203 0.0
H1407 H 0.74582 0.73158 0.40053 0.0
H1408 H 0.75274 0.73299 0.45441 0.0
H1409 H 0.77751 0.80664 0.43712 0.0
H1410 H 0.76958 0.8058 0.38317 0.0
H1411 H 0.74752 0.80341 0.48683 0.0
H1412 H 0.81884 0.75668 0.44902 0.0
H1413 H 0.84158 0.72369 0.42172 0.0
H1414 H 0.80809 0.66862 0.48235 0.0
H1415 H 0.78493 0.70126 0.50982 0.0
C1416 C 0.78746 0.78857 0.62383 0.0
C1417 C 0.77761 0.76914 0.64229 0.0
C1418 C 0.78763 0.78848 0.59221 0.0
C1419 C 0.77807 0.76886 0.5788 0.0
C1420 C 0.76931 0.74889 0.59735 0.0
C1421 C 0.76899 0.74907 0.62893 0.0
C1422 C 0.77565 0.76987 0.54556 0.0
C1423 C 0.78783 0.75118 0.52923 0.0
C1424 C 0.76114 0.78906 0.53008 0.0
C1425 C 0.74703 0.8087 0.54644 0.0
C1426 C 0.72967 0.80258 0.5701 0.0
C1427 C 0.71692 0.82114 0.58594 0.0
C1428 C 0.72116 0.84593 0.57809 0.0
C1429 C 0.73809 0.8522 0.55431 0.0
C1430 C 0.75096 0.8337 0.53847 0.0
C1431 C 0.75237 0.74825 0.4082 0.0
C1432 C 0.75711 0.76861 0.38754 0.0
C1433 C 0.75665 0.74888 0.43897 0.0
C1434 C 0.76607 0.76974 0.44967 0.0
C1435 C 0.77042 0.79028 0.42926 0.0
C1436 C 0.76603 0.78972 0.39844 0.0
C1437 C 0.771 0.77014 0.48228 0.0
C1438 C 0.7592 0.78908 0.49857 0.0
C1439 C 0.7859 0.75117 0.49768 0.0
C1440 C 0.8 0.73145 0.48136 0.0
C1441 C 0.8162 0.73754 0.45643 0.0
C1442 C 0.82921 0.71889 0.44095 0.0
C1443 C 0.82629 0.69407 0.45029 0.0
C1444 C 0.81039 0.68785 0.47517 0.0
C1445 C 0.79733 0.70642 0.49073 0.0
H1446 H 0.83637 0.67968 0.43827 0.0
H1447 H 0.71127 0.86028 0.59038 0.0
H1448 H 0.51487 0.53803 0.13974 0.0
H1449 H 0.51995 0.53854 0.19425 0.0
H1450 H 0.50906 0.46056 0.20648 0.0
H1451 H 0.50452 0.45969 0.15173 0.0
H1452 H 0.48247 0.48792 0.24965 0.0
H1453 H 0.5655 0.47804 0.20788 0.0
H1454 H 0.6008 0.48826 0.17293 0.0
H1455 H 0.60019 0.56005 0.20692 0.0
H1456 H 0.56463 0.55039 0.24178 0.0
H1457 H 0.51627 0.47597 0.40243 0.0
H1458 H 0.51534 0.46973 0.34832 0.0
H1459 H 0.53894 0.54344 0.32592 0.0
H1460 H 0.54229 0.5486 0.3801 0.0
H1461 H 0.55957 0.51542 0.28754 0.0
H1462 H 0.47513 0.52611 0.32798 0.0
H1463 H 0.44077 0.51525 0.36422 0.0
H1464 H 0.44379 0.44237 0.33291 0.0
H1465 H 0.47837 0.45264 0.29692 0.0
C1466 C 0.51386 0.52089 0.1539 0.0
C1467 C 0.50951 0.49877 0.14126 0.0
C1468 C 0.51663 0.52126 0.18509 0.0
C1469 C 0.5151 0.49955 0.20431 0.0
C1470 C 0.51028 0.47752 0.19198 0.0
C1471 C 0.50762 0.47709 0.16071 0.0
C1472 C 0.51878 0.49992 0.23726 0.0
C1473 C 0.49941 0.49364 0.25803 0.0
C1474 C 0.54076 0.50776 0.24804 0.0
C1475 C 0.56226 0.51356 0.22725 0.0
C1476 C 0.57277 0.49607 0.20774 0.0
C1477 C 0.59284 0.50176 0.18797 0.0
C1478 C 0.60269 0.52481 0.18765 0.0
C1479 C 0.59252 0.54221 0.20717 0.0
C1480 C 0.57242 0.53663 0.22696 0.0
C1481 C 0.52151 0.49068 0.38584 0.0
C1482 C 0.52862 0.51307 0.39525 0.0
C1483 C 0.52072 0.48724 0.35496 0.0
C1484 C 0.52616 0.50646 0.33295 0.0
C1485 C 0.53427 0.52846 0.34242 0.0
C1486 C 0.53582 0.53158 0.37332 0.0
C1487 C 0.52306 0.5039 0.30013 0.0
C1488 C 0.54257 0.50972 0.27929 0.0
C1489 C 0.50111 0.49581 0.2893 0.0
C1490 C 0.47946 0.49009 0.30991 0.0
C1491 C 0.46845 0.50777 0.32885 0.0
C1492 C 0.44896 0.50169 0.3494 0.0
C1493 C 0.44013 0.47811 0.35095 0.0
C1494 C 0.45063 0.46062 0.33176 0.0
C1495 C 0.47016 0.46655 0.31126 0.0
H1496 H 0.42516 0.47339 0.367 0.0
H1497 H 0.61824 0.52918 0.17233 0.0
H1498 H 0.20945 0.75809 0.12344 0.0
H1499 H 0.21194 0.76793 0.06875 0.0
H1500 H 0.2353 0.84022 0.08182 0.0
H1501 H 0.23249 0.8307 0.13712 0.0
H1502 H 0.20057 0.82994 0.0256 0.0
H1503 H 0.27967 0.81028 0.07476 0.0
H1504 H 0.3036 0.78529 0.11365 0.0
H1505 H 0.28941 0.71901 0.07293 0.0
H1506 H 0.26493 0.7436 0.03415 0.0
H1507 H 0.25581 0.83063 0.87412 0.0
H1508 H 0.24825 0.8389 0.92781 0.0
H1509 H 0.2532 0.76038 0.95304 0.0
H1510 H 0.26143 0.75221 0.89999 0.0
H1511 H 0.27654 0.78183 0.99115 0.0
H1512 H 0.197 0.79623 0.94639 0.0
H1513 H 0.1671 0.81622 0.9104 0.0
H1514 H 0.17727 0.88688 0.94302 0.0
H1515 H 0.20749 0.86731 0.97896 0.0
C1516 C 0.21403 0.77651 0.11491 0.0
C1517 C 0.22109 0.79353 0.1346 0.0
C1518 C 0.21549 0.78206 0.0836 0.0
C1519 C 0.224 0.80466 0.07149 0.0
C1520 C 0.22865 0.8227 0.09095 0.0
C1521 C 0.22726 0.81714 0.12243 0.0
C1522 C 0.23256 0.807 0.03932 0.0
C1523 C 0.21746 0.82001 0.0179 0.0
C1524 C 0.25428 0.79343 0.02964 0.0
C1525 C 0.27031 0.77878 0.05172 0.0
C1526 C 0.28157 0.79038 0.07418 0.0
C1527 C 0.29519 0.77628 0.09622 0.0
C1528 C 0.29787 0.75058 0.09587 0.0
C1529 C 0.2872 0.73892 0.07325 0.0
C1530 C 0.27349 0.75294 0.0512 0.0
C1531 C 0.25539 0.81524 0.89128 0.0
C1532 C 0.25938 0.79081 0.88308 0.0
C1533 C 0.25101 0.81995 0.92185 0.0
C1534 C 0.25001 0.80024 0.94443 0.0
C1535 C 0.25411 0.77589 0.93609 0.0
C1536 C 0.25883 0.77123 0.90578 0.0
C1537 C 0.24433 0.80449 0.97683 0.0
C1538 C 0.26 0.79252 0.99853 0.0
C1539 C 0.22286 0.8186 0.98663 0.0
C1540 C 0.20473 0.83037 0.96505 0.0
C1541 C 0.19301 0.81606 0.9457 0.0
C1542 C 0.17598 0.8273 0.92535 0.0
C1543 C 0.17036 0.85282 0.92435 0.0
C1544 C 0.18169 0.86713 0.94377 0.0
C1545 C 0.19877 0.85597 0.96413 0.0
H1546 H 0.15716 0.86149 0.90859 0.0
H1547 H 0.30834 0.7397 0.11302 0.0
H1548 H 0.94002 0.47221 0.89282 0.0
H1549 H 0.92469 0.47214 0.8417 0.0
H1550 H 0.9402 0.54875 0.82353 0.0
H1551 H 0.95523 0.54902 0.87476 0.0
H1552 H 0.89889 0.53747 0.79418 0.0
H1553 H 0.98345 0.50568 0.80682 0.0
H1554 H 0.01633 0.47835 0.83078 0.0
H1555 H 0.9821 0.41463 0.80588 0.0
H1556 H 0.94877 0.44162 0.7822 0.0
H1557 H 0.94055 0.5464 0.63786 0.0
H1558 H 0.92929 0.54749 0.69219 0.0
H1559 H 0.91954 0.46914 0.69824 0.0
H1560 H 0.93162 0.46797 0.64422 0.0
H1561 H 0.95241 0.47898 0.73518 0.0
H1562 H 0.8711 0.51271 0.71402 0.0
H1563 H 0.83949 0.54127 0.68949 0.0
H1564 H 0.86834 0.60241 0.72842 0.0
H1565 H 0.90038 0.57429 0.75284 0.0
C1566 C 0.93972 0.48914 0.87807 0.0
C1567 C 0.94917 0.5105 0.88747 0.0
C1568 C 0.93084 0.48912 0.84901 0.0
C1569 C 0.9317 0.51034 0.82874 0.0
C1570 C 0.93935 0.53222 0.83887 0.0
C1571 C 0.94802 0.53232 0.86808 0.0
C1572 C 0.92825 0.50871 0.79599 0.0
C1573 C 0.91053 0.52474 0.78113 0.0
C1574 C 0.9433 0.49187 0.7792 0.0
C1575 C 0.96348 0.47564 0.79308 0.0
C1576 C 0.98285 0.48583 0.80665 0.0
C1577 C 0.00157 0.47041 0.82017 0.0
C1578 C 1.00126 0.44476 0.81993 0.0
C1579 C 0.98227 0.4345 0.8061 0.0
C1580 C 0.96347 0.44984 0.79264 0.0
C1581 C 0.93517 0.52965 0.65068 0.0
C1582 C 0.93707 0.50708 0.63721 0.0
C1583 C 0.92864 0.53027 0.68166 0.0
C1584 C 0.92358 0.50836 0.69931 0.0
C1585 C 0.92343 0.48622 0.68508 0.0
C1586 C 0.9303 0.48555 0.65431 0.0
C1587 C 0.92285 0.50766 0.73296 0.0
C1588 C 0.94017 0.49134 0.74809 0.0
C1589 C 0.90755 0.52438 0.74972 0.0
C1590 C 0.88827 0.54138 0.73511 0.0
C1591 C 0.87085 0.53227 0.71717 0.0
C1592 C 0.85282 0.54839 0.70332 0.0
C1593 C 0.85194 0.57365 0.70735 0.0
C1594 C 0.86905 0.58284 0.72531 0.0
C1595 C 0.88713 0.56681 0.7392 0.0
H1596 H 0.83797 0.58609 0.6966 0.0
H1597 H 0.01577 0.43285 0.8304 0.0
H1598 H 0.24584 0.2672 0.34615 0.0
H1599 H 0.25111 0.27012 0.4003 0.0
H1600 H 0.23321 0.19408 0.41854 0.0
H1601 H 0.22532 0.19212 0.36469 0.0
H1602 H 0.21431 0.21864 0.46156 0.0
H1603 H 0.29629 0.21501 0.41152 0.0
H1604 H 0.32631 0.23014 0.37168 0.0
H1605 H 0.3202 0.30159 0.40722 0.0
H1606 H 0.29013 0.28694 0.4471 0.0
H1607 H 0.26514 0.19542 0.60476 0.0
H1608 H 0.26145 0.19485 0.54992 0.0
H1609 H 0.26636 0.27387 0.53912 0.0
H1610 H 0.26965 0.2747 0.59406 0.0
H1611 H 0.29245 0.24907 0.49271 0.0
H1612 H 0.21175 0.25322 0.54246 0.0
H1613 H 0.17951 0.2401 0.58048 0.0
H1614 H 0.18199 0.16894 0.54447 0.0
H1615 H 0.21456 0.18151 0.50651 0.0
C1616 C 0.24281 0.25123 0.36186 0.0
C1617 C 0.23591 0.22918 0.35132 0.0
C1618 C 0.24611 0.25279 0.39272 0.0
C1619 C 0.24354 0.23201 0.41342 0.0
C1620 C 0.23572 0.21024 0.40298 0.0
C1621 C 0.23158 0.20897 0.37221 0.0
C1622 C 0.24914 0.23284 0.44587 0.0
C1623 C 0.23159 0.22491 0.46829 0.0
C1624 C 0.27139 0.2417 0.45478 0.0
C1625 C 0.29089 0.24991 0.43221 0.0
C1626 C 0.30147 0.23391 0.4109 0.0
C1627 C 0.31846 0.24242 0.38827 0.0
C1628 C 0.32514 0.26683 0.38687 0.0
C1629 C 0.31508 0.28268 0.40832 0.0
C1630 C 0.29812 0.27427 0.43101 0.0
C1631 C 0.26556 0.21267 0.59072 0.0
C1632 C 0.26739 0.23514 0.60382 0.0
C1633 C 0.26356 0.21229 0.5594 0.0
C1634 C 0.26331 0.23436 0.5406 0.0
C1635 C 0.26654 0.25665 0.5533 0.0
C1636 C 0.26848 0.25706 0.58468 0.0
C1637 C 0.25784 0.23436 0.50813 0.0
C1638 C 0.27533 0.24257 0.48583 0.0
C1639 C 0.23554 0.22574 0.49927 0.0
C1640 C 0.21576 0.21822 0.52184 0.0
C1641 C 0.20556 0.23471 0.54279 0.0
C1642 C 0.18721 0.22738 0.56431 0.0
C1643 C 0.17875 0.20368 0.56494 0.0
C1644 C 0.18859 0.18728 0.54398 0.0
C1645 C 0.20698 0.1945 0.52245 0.0
H1646 H 0.16454 0.19804 0.58162 0.0
H1647 H 0.33813 0.27344 0.36919 0.0
H1648 H 0.1003 0.05134 0.04177 0.0
H1649 H 0.12575 0.07878 0.06508 0.0
H1650 H 0.08774 0.142 0.01861 0.0
H1651 H 0.06262 0.11448 0.99387 0.0
H1652 H 0.13996 0.14692 0.02595 0.0
H1653 H 0.06627 0.12645 0.0849 0.0
H1654 H 0.0364 0.0976 0.10814 0.0
H1655 H 0.0929 0.0602 0.16262 0.0
H1656 H 0.12324 0.08857 0.13929 0.0
H1657 H 0.17427 0.2263 0.13658 0.0
H1658 H 0.15073 0.2055 0.10168 0.0
H1659 H 0.17308 0.1349 0.1474 0.0
H1660 H 0.19557 0.15558 0.18317 0.0
H1661 H 0.12554 0.13776 0.13811 0.0
H1662 H 0.1997 0.15678 0.0782 0.0
H1663 H 0.23032 0.18438 0.05395 0.0
H1664 H 0.17398 0.22403 1.00123 0.0
H1665 H 0.14289 0.19693 0.02557 0.0
C1666 C 0.09785 0.07098 0.03549 0.0
C1667 C 0.07918 0.0807 0.01614 0.0
C1668 C 0.11235 0.08666 0.04906 0.0
C1669 C 0.10827 0.11235 0.04392 0.0
C1670 C 0.09101 0.12218 0.02292 0.0
C1671 C 0.07652 0.10644 0.00911 0.0
C1672 C 0.11986 0.12857 0.06346 0.0
C1673 C 0.13661 0.14529 0.05044 0.0
C1674 C 0.11548 0.12615 0.09537 0.0
C1675 C 0.09707 0.10954 0.11017 0.0
C1676 C 0.07236 0.112 0.10172 0.0
C1677 C 0.05535 0.09573 0.11491 0.0
C1678 C 0.06276 0.07705 0.1368 0.0
C1679 C 0.08719 0.07467 0.14565 0.0
C1680 C 0.1043 0.09086 0.13247 0.0
C1681 C 0.1739 0.20636 0.13939 0.0
C1682 C 0.18673 0.19256 0.16266 0.0
C1683 C 0.16071 0.1945 0.11921 0.0
C1684 C 0.16039 0.16865 0.12176 0.0
C1685 C 0.17314 0.15488 0.14499 0.0
C1686 C 0.18615 0.1667 0.16527 0.0
C1687 C 0.14635 0.15571 0.10082 0.0
C1688 C 0.12888 0.13966 0.11362 0.0
C1689 C 0.15016 0.15879 0.06879 0.0
C1690 C 0.1689 0.17498 0.05397 0.0
C1691 C 0.19378 0.17152 0.06165 0.0
C1692 C 0.21123 0.18707 0.04789 0.0
C1693 C 0.20407 0.20601 0.02619 0.0
C1694 C 0.17947 0.20941 0.01814 0.0
C1695 C 0.16192 0.19395 0.0319 0.0
H1696 H 0.2176 0.21794 0.01549 0.0
H1697 H 0.04958 0.06443 0.14694 0.0
H1698 H 0.10534 0.92295 0.49291 0.0
H1699 H 0.13364 0.89294 0.46797 0.0
H1700 H 0.07504 0.87565 0.41254 0.0
H1701 H 0.04662 0.90506 0.43797 0.0
H1702 H 0.10113 0.83515 0.42763 0.0
H1703 H 0.11975 0.91634 0.38646 0.0
H1704 H 0.13073 0.95942 0.38795 0.0
H1705 H 0.19906 0.93398 0.42835 0.0
H1706 H 0.18832 0.89073 0.42749 0.0
H1707 H 0.17276 0.79845 0.29543 0.0
H1708 H 0.14657 0.82354 0.32986 0.0
H1709 H 0.20109 0.81064 0.39792 0.0
H1710 H 0.22686 0.78463 0.36399 0.0
H1711 H 0.17932 0.86462 0.37945 0.0
H1712 H 0.15925 0.78196 0.41697 0.0
H1713 H 0.14763 0.73992 0.40954 0.0
H1714 H 0.08037 0.77013 0.37007 0.0
H1715 H 0.09191 0.81238 0.37662 0.0
C1716 C 0.09851 0.91257 0.47557 0.0
C1717 C 0.07382 0.91637 0.4673 0.0
C1718 C 0.11468 0.89549 0.46126 0.0
C1719 C 0.1066 0.88233 0.43795 0.0
C1720 C 0.08173 0.88553 0.43044 0.0
C1721 C 0.06548 0.90233 0.44502 0.0
C1722 C 0.12418 0.86598 0.4205 0.0
C1723 C 0.11815 0.8417 0.41704 0.0
C1724 C 0.14656 0.87435 0.40677 0.0
C1725 C 0.1531 0.90032 0.40724 0.0
C1726 C 0.13703 0.91994 0.39588 0.0
C1727 C 0.14322 0.94438 0.39658 0.0
C1728 C 0.16554 0.94943 0.40832 0.0
C1729 C 0.18176 0.93004 0.41931 0.0
C1730 C 0.17563 0.90556 0.41872 0.0
C1731 C 0.179 0.80088 0.31783 0.0
C1732 C 0.2017 0.78968 0.32722 0.0
C1733 C 0.16414 0.81519 0.33736 0.0
C1734 C 0.17199 0.81887 0.36631 0.0
C1735 C 0.19483 0.80802 0.37559 0.0
C1736 C 0.20945 0.79323 0.35631 0.0
C1737 C 0.15615 0.83407 0.38678 0.0
C1738 C 0.16245 0.85811 0.39054 0.0
C1739 C 0.13386 0.82567 0.4003 0.0
C1740 C 0.12658 0.80031 0.39699 0.0
C1741 C 0.14212 0.77963 0.40643 0.0
C1742 C 0.13553 0.75577 0.40243 0.0
C1743 C 0.1133 0.75236 0.38929 0.0
C1744 C 0.0976 0.7728 0.38021 0.0
C1745 C 0.10415 0.79671 0.38407 0.0
H1746 H 0.10823 0.73388 0.38621 0.0
H1747 H 0.17031 0.96837 0.40884 0.0
H1748 H 0.3068 0.80682 0.65368 0.0
H1749 H 0.33437 0.83516 0.62525 0.0
H1750 H 0.36968 0.84563 0.70803 0.0
H1751 H 0.34136 0.81798 0.73657 0.0
H1752 H 0.36605 0.88804 0.67761 0.0
H1753 H 0.39629 0.80818 0.64867 0.0
H1754 H 0.39387 0.76729 0.62907 0.0
H1755 H 0.37058 0.80198 0.54351 0.0
H1756 H 0.37254 0.8431 0.56275 0.0
H1757 H 0.47118 0.94484 0.60375 0.0
H1758 H 0.44388 0.91645 0.63298 0.0
H1759 H 0.40413 0.90973 0.55241 0.0
H1760 H 0.4316 0.93794 0.52327 0.0
H1761 H 0.41061 0.86532 0.58202 0.0
H1762 H 0.38069 0.94539 0.61181 0.0
H1763 H 0.38401 0.98598 0.63182 0.0
H1764 H 0.40799 0.95023 0.71653 0.0
H1765 H 0.40516 0.9094 0.69686 0.0
C1766 C 0.32043 0.8152 0.66582 0.0
C1767 C 0.32185 0.80993 0.69748 0.0
C1768 C 0.33644 0.83134 0.64946 0.0
C1769 C 0.35477 0.84253 0.66406 0.0
C1770 C 0.35597 0.83742 0.69582 0.0
C1771 C 0.33981 0.82142 0.71222 0.0
C1772 C 0.37243 0.85955 0.64643 0.0
C1773 C 0.37601 0.88277 0.65696 0.0
C1774 C 0.38539 0.85339 0.61895 0.0
C1775 C 0.38434 0.82871 0.60725 0.0
C1776 C 0.3905 0.80708 0.62574 0.0
C1777 C 0.38923 0.78387 0.61469 0.0
C1778 C 0.38202 0.78204 0.58509 0.0
C1779 C 0.37613 0.80343 0.56645 0.0
C1780 C 0.37734 0.82669 0.5774 0.0
C1781 C 0.45655 0.93735 0.59235 0.0
C1782 C 0.45343 0.94394 0.56123 0.0
C1783 C 0.4408 0.92112 0.60912 0.0
C1784 C 0.42143 0.91091 0.59528 0.0
C1785 C 0.41869 0.9172 0.56396 0.0
C1786 C 0.43437 0.93348 0.54725 0.0
C1787 C 0.40415 0.89374 0.6132 0.0
C1788 C 0.40066 0.87052 0.60271 0.0
C1789 C 0.3914 0.89984 0.6408 0.0
C1790 C 0.39294 0.92434 0.65275 0.0
C1791 C 0.38684 0.94618 0.63463 0.0
C1792 C 0.38861 0.96923 0.64592 0.0
C1793 C 0.39627 0.97068 0.6754 0.0
C1794 C 0.4021 0.94908 0.69368 0.0
C1795 C 0.4004 0.92598 0.68248 0.0
H1796 H 0.39763 0.98855 0.6841 0.0
H1797 H 0.38104 0.76404 0.57658 0.0
H1798 H 0.29164 0.18914 0.83249 0.0
H1799 H 0.31967 0.16237 0.86454 0.0
H1800 H 0.3726 0.15768 0.78855 0.0
H1801 H 0.34404 0.18371 0.75627 0.0
H1802 H 0.37025 0.11411 0.81785 0.0
H1803 H 0.37866 0.19577 0.84769 0.0
H1804 H 0.36376 0.23631 0.86526 0.0
H1805 H 0.33417 0.20077 0.94824 0.0
H1806 H 0.34857 0.15995 0.93095 0.0
H1807 H 0.47364 0.06773 0.90294 0.0
H1808 H 0.4458 0.09562 0.87159 0.0
H1809 H 0.38958 0.09249 0.94413 0.0
H1810 H 0.41757 0.06489 0.97558 0.0
H1811 H 0.39386 0.14002 0.9169 0.0
H1812 H 0.38709 0.05822 0.88693 0.0
H1813 H 0.40208 0.018 0.86863 0.0
H1814 H 0.42898 0.05433 0.78474 0.0
H1815 H 0.41485 0.09488 0.80291 0.0
C1816 C 0.30927 0.18229 0.82276 0.0
C1817 C 0.31593 0.18864 0.79214 0.0
C1818 C 0.32534 0.16715 0.84106 0.0
C1819 C 0.34853 0.15835 0.82918 0.0
C1820 C 0.35492 0.16432 0.79833 0.0
C1821 C 0.33872 0.17926 0.77995 0.0
C1822 C 0.36607 0.14288 0.84884 0.0
C1823 C 0.3757 0.11998 0.83928 0.0
C1824 C 0.37281 0.15022 0.87719 0.0
C1825 C 0.3645 0.17478 0.88788 0.0
C1826 C 0.36885 0.19658 0.8696 0.0
C1827 C 0.3605 0.21961 0.87952 0.0
C1828 C 0.34796 0.22111 0.90781 0.0
C1829 C 0.34385 0.19957 0.9263 0.0
C1830 C 0.35212 0.17648 0.91647 0.0
C1831 C 0.45535 0.07314 0.91209 0.0
C1832 C 0.44755 0.06418 0.94144 0.0
C1833 C 0.43948 0.08893 0.89422 0.0
C1834 C 0.4155 0.09584 0.90536 0.0
C1835 C 0.40796 0.08735 0.93505 0.0
C1836 C 0.42385 0.07157 0.95292 0.0
C1837 C 0.39809 0.1114 0.88577 0.0
C1838 C 0.38847 0.13426 0.8954 0.0
C1839 C 0.3915 0.10409 0.85738 0.0
C1840 C 0.40014 0.07967 0.84646 0.0
C1841 C 0.39647 0.0577 0.86473 0.0
C1842 C 0.40479 0.03482 0.85435 0.0
C1843 C 0.41648 0.03361 0.82554 0.0
C1844 C 0.41987 0.05529 0.80703 0.0
C1845 C 0.4118 0.07824 0.81741 0.0
H1846 H 0.42292 0.01588 0.81755 0.0
H1847 H 0.34148 0.23895 0.91542 0.0
H1848 H 0.89402 0.93971 0.99384 0.0
H1849 H 0.86992 0.91511 0.96375 0.0
H1850 H 0.93715 0.88485 0.92067 0.0
H1851 H 0.96122 0.9099 0.94969 0.0
H1852 H 0.90468 0.90281 0.87963 0.0
H1853 H 0.90321 0.84959 0.97191 0.0
H1854 H 0.89575 0.83911 0.02683 0.0
H1855 H 0.81878 0.86139 0.01917 0.0
H1856 H 0.82584 0.87234 0.96425 0.0
H1857 H 0.85581 0.80956 0.8018 0.0
H1858 H 0.87866 0.83255 0.83507 0.0
H1859 H 0.81007 0.86074 0.87705 0.0
H1860 H 0.78712 0.83715 0.8446 0.0
H1861 H 0.84235 0.84447 0.91895 0.0
H1862 H 0.84363 0.89721 0.82662 0.0
H1863 H 0.85113 0.9087 0.77193 0.0
H1864 H 0.92843 0.8881 0.77971 0.0
H1865 H 0.92135 0.87614 0.83435 0.0
C1866 C 0.90365 0.92765 0.97815 0.0
C1867 C 0.92954 0.92678 0.97418 0.0
C1868 C 0.88988 0.91348 0.96114 0.0
C1869 C 0.90178 0.89813 0.94003 0.0
C1870 C 0.92762 0.89658 0.93684 0.0
C1871 C 0.94137 0.91072 0.95374 0.0
C1872 C 0.88737 0.88496 0.91972 0.0
C1873 C 0.8913 0.88976 0.8882 0.0
C1874 C 0.86939 0.86858 0.93099 0.0
C1875 C 0.86511 0.86203 0.96402 0.0
C1876 C 0.88473 0.85247 0.98198 0.0
C1877 C 0.88057 0.84639 0.0131 0.0
C1878 C 0.85682 0.84964 0.0265 0.0
C1879 C 0.83717 0.85892 0.00877 0.0
C1880 C 0.84124 0.86504 0.97764 0.0
C1881 C 0.8456 0.82061 0.81817 0.0
C1882 C 0.81966 0.82158 0.82053 0.0
C1883 C 0.85867 0.8339 0.83697 0.0
C1884 C 0.84603 0.84853 0.85831 0.0
C1885 C 0.82015 0.84962 0.86065 0.0
C1886 C 0.80708 0.83632 0.84189 0.0
C1887 C 0.85984 0.86214 0.87882 0.0
C1888 C 0.85574 0.8575 0.91036 0.0
C1889 C 0.87767 0.87871 0.86757 0.0
C1890 C 0.8819 0.88553 0.83456 0.0
C1891 C 0.86219 0.89488 0.81662 0.0
C1892 C 0.86638 0.90154 0.78562 0.0
C1893 C 0.89023 0.89909 0.77233 0.0
C1894 C 0.90995 0.88997 0.79001 0.0
C1895 C 0.90586 0.88326 0.821 0.0
H1896 H 0.89345 0.90431 0.74835 0.0
H1897 H 0.85363 0.84492 0.05059 0.0
H1898 H 0.82273 0.2027 0.7176 0.0
H1899 H 0.84952 0.17802 0.68337 0.0
H1900 H 0.79142 0.18185 0.61984 0.0
H1901 H 0.76474 0.20692 0.65394 0.0
H1902 H 0.8153 0.13376 0.63104 0.0
H1903 H 0.83581 0.2173 0.60398 0.0
H1904 H 0.84774 0.25849 0.61464 0.0
H1905 H 0.91578 0.2261 0.65 0.0
H1906 H 0.90403 0.18462 0.6401 0.0
H1907 H 0.89214 0.08377 0.5129 0.0
H1908 H 0.86319 0.11143 0.54065 0.0
H1909 H 0.91987 0.12229 0.60221 0.0
H1910 H 0.94886 0.095 0.57443 0.0
H1911 H 0.89484 0.16453 0.58903 0.0
H1912 H 0.87418 0.08168 0.62088 0.0
H1913 H 0.8626 0.03958 0.61384 0.0
H1914 H 0.79584 0.06949 0.5729 0.0
H1915 H 0.8072 0.11181 0.57932 0.0
C1916 C 0.81579 0.19824 0.69629 0.0
C1917 C 0.79186 0.20669 0.68816 0.0
C1918 C 0.83102 0.18421 0.67681 0.0
C1919 C 0.82247 0.17829 0.64901 0.0
C1920 C 0.79833 0.18625 0.64119 0.0
C1921 C 0.78318 0.20053 0.66055 0.0
C1922 C 0.83895 0.16404 0.628 0.0
C1923 C 0.83251 0.14062 0.6214 0.0
C1924 C 0.86161 0.17283 0.61606 0.0
C1925 C 0.86894 0.19781 0.62153 0.0
C1926 C 0.85323 0.21893 0.61424 0.0
C1927 C 0.85997 0.24234 0.62013 0.0
C1928 C 0.88249 0.24491 0.63304 0.0
C1929 C 0.89834 0.22408 0.64002 0.0
C1930 C 0.89165 0.20061 0.63426 0.0
C1931 C 0.89841 0.09215 0.53229 0.0
C1932 C 0.92278 0.08719 0.54147 0.0
C1933 C 0.88186 0.10792 0.54815 0.0
C1934 C 0.88924 0.11869 0.5738 0.0
C1935 C 0.91374 0.11427 0.58247 0.0
C1936 C 0.93033 0.0987 0.5665 0.0
C1937 C 0.87139 0.13402 0.59222 0.0
C1938 C 0.87755 0.15769 0.59839 0.0
C1939 C 0.84859 0.12533 0.60407 0.0
C1940 C 0.84168 0.09991 0.60026 0.0
C1941 C 0.85712 0.07928 0.61016 0.0
C1942 C 0.85059 0.05538 0.60632 0.0
C1943 C 0.82853 0.05186 0.59285 0.0
C1944 C 0.81294 0.07224 0.58327 0.0
C1945 C 0.81941 0.09619 0.58702 0.0
H1946 H 0.8235 0.03334 0.58989 0.0
H1947 H 0.88767 0.26305 0.63758 0.0
H1948 H 0.68355 0.22291 0.33812 0.0
H1949 H 0.6554 0.19515 0.36687 0.0
H1950 H 0.67823 0.13774 0.30763 0.0
H1951 H 0.70625 0.16565 0.27882 0.0
H1952 H 0.6287 0.13905 0.31859 0.0
H1953 H 0.6989 0.13811 0.382 0.0
H1954 H 0.72874 0.15765 0.411 0.0
H1955 H 0.66938 0.18843 0.46718 0.0
H1956 H 0.63915 0.16931 0.43825 0.0
H1957 H 0.57528 0.03832 0.40358 0.0
H1958 H 0.60307 0.0667 0.37618 0.0
H1959 H 0.58944 0.11728 0.44645 0.0
H1960 H 0.56311 0.08774 0.47506 0.0
H1961 H 0.63368 0.12089 0.43001 0.0
H1962 H 0.56332 0.12407 0.36969 0.0
H1963 H 0.53115 0.10779 0.34098 0.0
H1964 H 0.58678 0.07751 0.27932 0.0
H1965 H 0.61933 0.09329 0.30794 0.0
C1966 C 0.68256 0.20436 0.33126 0.0
C1967 C 0.69732 0.19652 0.30621 0.0
C1968 C 0.66648 0.18836 0.34783 0.0
C1969 C 0.66463 0.16394 0.33994 0.0
C1970 C 0.67912 0.1563 0.31452 0.0
C1971 C 0.69527 0.17227 0.29804 0.0
C1972 C 0.64776 0.14641 0.35801 0.0
C1973 C 0.63007 0.13487 0.3429 0.0
C1974 C 0.64856 0.14137 0.39005 0.0
C1975 C 0.66676 0.15245 0.4078 0.0
C1976 C 0.69221 0.14914 0.40044 0.0
C1977 C 0.70919 0.16013 0.41688 0.0
C1978 C 0.70096 0.17431 0.44087 0.0
C1979 C 0.67573 0.17745 0.44857 0.0
C1980 C 0.65867 0.16652 0.43218 0.0
C1981 C 0.57851 0.05529 0.4135 0.0
C1982 C 0.56712 0.0604 0.44193 0.0
C1983 C 0.59418 0.07191 0.39743 0.0
C1984 C 0.59833 0.09484 0.40849 0.0
C1985 C 0.58688 0.09995 0.43696 0.0
C1986 C 0.57161 0.08303 0.45338 0.0
C1987 C 0.61458 0.11323 0.39061 0.0
C1988 C 0.63218 0.125 0.40572 0.0
C1989 C 0.6133 0.11895 0.35864 0.0
C1990 C 0.59378 0.10967 0.34114 0.0
C1991 C 0.5687 0.11382 0.3501 0.0
C1992 C 0.5504 0.10469 0.33385 0.0
C1993 C 0.55692 0.09157 0.30839 0.0
C1994 C 0.58176 0.08764 0.29907 0.0
C1995 C 0.60015 0.09669 0.31529 0.0
H1996 H 0.54273 0.0845 0.29585 0.0
H1997 H 0.71413 0.18283 0.45354 0.0
H1998 H 0.67836 0.83413 0.24121 0.0
H1999 H 0.65046 0.86229 0.21041 0.0
H2000 H 0.67782 0.8274 0.1298 0.0
H2001 H 0.70599 0.79955 0.16069 0.0
H2002 H 0.67286 0.8768 0.11866 0.0
H2003 H 0.62261 0.81402 0.16485 0.0
H2004 H 0.60508 0.78769 0.20749 0.0
H2005 H 0.57126 0.85202 0.24718 0.0
H2006 H 0.58899 0.87879 0.20504 0.0
H2007 H 0.57726 0.92746 0.02357 0.0
H2008 H 0.60535 0.89865 0.05316 0.0
H2009 H 0.57779 0.93085 0.1355 0.0
H2010 H 0.54919 0.95912 0.10588 0.0
H2011 H 0.58289 0.88207 0.14511 0.0
H2012 H 0.63403 0.94487 0.09931 0.0
H2013 H 0.65199 0.97108 0.05683 0.0
H2014 H 0.68419 0.90647 0.0163 0.0
H2015 H 0.66609 0.87984 0.05832 0.0
C2016 C 0.67839 0.83267 0.21689 0.0
C2017 C 0.69409 0.8148 0.20316 0.0
C2018 C 0.66244 0.84862 0.19934 0.0
C2019 C 0.66177 0.84677 0.1678 0.0
C2020 C 0.67795 0.82918 0.15404 0.0
C2021 C 0.69396 0.81328 0.17161 0.0
C2022 C 0.64402 0.86297 0.14928 0.0
C2023 C 0.65315 0.8777 0.12421 0.0
C2024 C 0.61833 0.86452 0.15679 0.0
C2025 C 0.60732 0.84843 0.18191 0.0
C2026 C 0.61157 0.82257 0.18277 0.0
C2027 C 0.60159 0.80756 0.20685 0.0
C2028 C 0.5871 0.81818 0.23006 0.0
C2029 C 0.58251 0.84382 0.2292 0.0
C2030 C 0.59252 0.85893 0.20522 0.0
C2031 C 0.57723 0.92823 0.04801 0.0
C2032 C 0.56125 0.94546 0.06255 0.0
C2033 C 0.59334 0.91191 0.06489 0.0
C2034 C 0.594 0.91278 0.09658 0.0
C2035 C 0.57769 0.92981 0.11112 0.0
C2036 C 0.56146 0.94601 0.09425 0.0
C2037 C 0.61174 0.89606 0.11458 0.0
C2038 C 0.6026 0.88118 0.13954 0.0
C2039 C 0.63743 0.89436 0.10695 0.0
C2040 C 0.64852 0.91035 0.08182 0.0
C2041 C 0.64481 0.93624 0.08123 0.0
C2042 C 0.65502 0.95117 0.05725 0.0
C2043 C 0.66918 0.94044 0.03385 0.0
C2044 C 0.67319 0.91475 0.03442 0.0
C2045 C 0.66298 0.89973 0.05833 0.0
H2046 H 0.67707 0.95204 0.0153 0.0
H2047 H 0.57939 0.80653 0.24868 0.0
H2048 H 0.59975 0.5511 0.55702 0.0
H2049 H 0.62433 0.57575 0.58602 0.0
H2050 H 0.55839 0.6023 0.63525 0.0
H2051 H 0.53358 0.57758 0.60616 0.0
H2052 H 0.58567 0.63929 0.61673 0.0
H2053 H 0.60184 0.56047 0.67165 0.0
H2054 H 0.61334 0.51569 0.67795 0.0
H2055 H 0.68412 0.5275 0.63349 0.0
H2056 H 0.67297 0.57233 0.62684 0.0
H2057 H 0.65403 0.69653 0.72177 0.0
H2058 H 0.62683 0.66949 0.69983 0.0
H2059 H 0.68737 0.64298 0.64143 0.0
H2060 H 0.71463 0.67016 0.66298 0.0
H2061 H 0.66109 0.6054 0.66846 0.0
H2062 H 0.64427 0.68455 0.61346 0.0
H2063 H 0.63264 0.7293 0.60842 0.0
H2064 H 0.56246 0.71674 0.65411 0.0
H2065 H 0.57382 0.67192 0.6598 0.0
C2066 C 0.5905 0.56188 0.57434 0.0
C2067 C 0.56474 0.56236 0.57936 0.0
C2068 C 0.60459 0.57594 0.59095 0.0
C2069 C 0.59325 0.59056 0.61316 0.0
C2070 C 0.56752 0.59111 0.61825 0.0
C2071 C 0.55337 0.57708 0.60154 0.0
C2072 C 0.60822 0.60628 0.62977 0.0
C2073 C 0.60189 0.6318 0.62857 0.0
C2074 C 0.62968 0.59661 0.64464 0.0
C2075 C 0.63645 0.56968 0.64848 0.0
C2076 C 0.61976 0.55346 0.663 0.0
C2077 C 0.62625 0.5281 0.66671 0.0
C2078 C 0.6494 0.51874 0.65599 0.0
C2079 C 0.66617 0.53476 0.64172 0.0
C2080 C 0.65981 0.56015 0.63805 0.0
C2081 C 0.6615 0.68511 0.70406 0.0
C2082 C 0.68646 0.68554 0.69402 0.0
C2083 C 0.64596 0.66963 0.69164 0.0
C2084 C 0.65508 0.65441 0.66888 0.0
C2085 C 0.68003 0.65456 0.65906 0.0
C2086 C 0.69558 0.67004 0.67144 0.0
C2087 C 0.63862 0.63834 0.65516 0.0
C2088 C 0.64472 0.6128 0.65689 0.0
C2089 C 0.6169 0.64799 0.6409 0.0
C2090 C 0.61 0.67492 0.63735 0.0
C2091 C 0.62644 0.69135 0.62266 0.0
C2092 C 0.61988 0.71672 0.61964 0.0
C2093 C 0.59685 0.72586 0.63102 0.0
C2094 C 0.5803 0.70964 0.64535 0.0
C2095 C 0.58679 0.68425 0.64847 0.0
H2096 H 0.59181 0.74551 0.62866 0.0
H2097 H 0.65437 0.4991 0.65885 0.0
H2098 H 0.57946 0.42859 0.99979 0.0
H2099 H 0.60661 0.40012 0.97057 0.0
H2100 H 0.55846 0.41279 0.89534 0.0
H2101 H 0.53132 0.44113 0.92471 0.0
H2102 H 0.5741 0.36393 0.90508 0.0
H2103 H 0.61014 0.44246 0.89479 0.0
H2104 H 0.62633 0.47917 0.91388 0.0
H2105 H 0.68274 0.43315 0.95944 0.0
H2106 H 0.66657 0.39607 0.9411 0.0
H2107 H 0.65525 0.32135 0.78673 0.0
H2108 H 0.62769 0.34735 0.81861 0.0
H2109 H 0.67838 0.33451 0.89121 0.0
H2110 H 0.70604 0.3087 0.85907 0.0
H2111 H 0.66168 0.38265 0.88414 0.0
H2112 H 0.62636 0.30413 0.89336 0.0
H2113 H 0.61009 0.26741 0.87439 0.0
H2114 H 0.5524 0.3132 0.83102 0.0
H2115 H 0.56861 0.35029 0.84925 0.0
C2116 C 0.57475 0.4251 0.97707 0.0
C2117 C 0.55362 0.43706 0.96419 0.0
C2118 C 0.5902 0.40895 0.9604 0.0
C2119 C 0.5847 0.40458 0.93063 0.0
C2120 C 0.56306 0.41592 0.91823 0.0
C2121 C 0.54765 0.4321 0.93488 0.0
C2122 C 0.60194 0.38889 0.91201 0.0
C2123 C 0.59318 0.36815 0.90022 0.0
C2124 C 0.62696 0.39415 0.90621 0.0
C2125 C 0.63699 0.41646 0.91682 0.0
C2126 C 0.62589 0.44014 0.90906 0.0
C2127 C 0.63506 0.46102 0.91973 0.0
C2128 C 0.65552 0.45849 0.93791 0.0
C2129 C 0.66687 0.43508 0.94539 0.0
C2130 C 0.65771 0.41412 0.93486 0.0
C2131 C 0.66039 0.32418 0.8095 0.0
C2132 C 0.68254 0.31312 0.82068 0.0
C2133 C 0.64468 0.33891 0.8277 0.0
C2134 C 0.65085 0.34264 0.85743 0.0
C2135 C 0.67326 0.33185 0.86838 0.0
C2136 C 0.68896 0.31712 0.85015 0.0
C2137 C 0.63384 0.35769 0.87711 0.0
C2138 C 0.64264 0.37834 0.88909 0.0
C2139 C 0.60885 0.35234 0.88309 0.0
C2140 C 0.59884 0.33003 0.87246 0.0
C2141 C 0.61031 0.3064 0.8796 0.0
C2142 C 0.60109 0.28551 0.86899 0.0
C2143 C 0.58025 0.28798 0.85146 0.0
C2144 C 0.56855 0.31133 0.84457 0.0
C2145 C 0.57774 0.33229 0.85505 0.0
H2146 H 0.57314 0.27178 0.84327 0.0
H2147 H 0.6626 0.47468 0.94616 0.0
H2148 H 0.79943 0.31334 0.15347 0.0
H2149 H 0.82662 0.3419 0.12495 0.0
H2150 H 0.86184 0.3529 0.20764 0.0
H2151 H 0.83334 0.32572 0.23638 0.0
H2152 H 0.85985 0.39415 0.17841 0.0
H2153 H 0.88746 0.3145 0.14464 0.0
H2154 H 0.88309 0.27478 0.12285 0.0
H2155 H 0.85857 0.31341 0.04 0.0
H2156 H 0.86248 0.35337 0.06144 0.0
H2157 H 0.96545 0.45018 0.10641 0.0
H2158 H 0.93746 0.42188 0.13441 0.0
H2159 H 0.89813 0.41764 0.05286 0.0
H2160 H 0.92658 0.44556 0.02484 0.0
H2161 H 0.90224 0.37318 0.08086 0.0
H2162 H 0.87559 0.45282 0.11497 0.0
H2163 H 0.88091 0.49229 0.13684 0.0
H2164 H 0.90484 0.45295 0.21956 0.0
H2165 H 0.90001 0.41322 0.198 0.0
C2166 C 0.81291 0.32193 0.1656 0.0
C2167 C 0.81421 0.31691 0.19732 0.0
C2168 C 0.82882 0.33815 0.14913 0.0
C2169 C 0.84716 0.34946 0.1636 0.0
C2170 C 0.84821 0.3446 0.19543 0.0
C2171 C 0.83196 0.32878 0.21198 0.0
C2172 C 0.86487 0.36652 0.14594 0.0
C2173 C 0.86933 0.3892 0.15733 0.0
C2174 C 0.87717 0.36092 0.1178 0.0
C2175 C 0.87505 0.33692 0.10476 0.0
C2176 C 0.88101 0.31452 0.12184 0.0
C2177 C 0.87862 0.29197 0.10955 0.0
C2178 C 0.87049 0.29158 0.0801 0.0
C2179 C 0.86482 0.31374 0.06283 0.0
C2180 C 0.86714 0.33635 0.07503 0.0
C2181 C 0.95078 0.44323 0.09452 0.0
C2182 C 0.94818 0.45028 0.06342 0.0
C2183 C 0.9346 0.42707 0.1106 0.0
C2184 C 0.9151 0.4176 0.09617 0.0
C2185 C 0.91278 0.42449 0.06488 0.0
C2186 C 0.92902 0.4406 0.0488 0.0
C2187 C 0.89727 0.4006 0.11351 0.0
C2188 C 0.89277 0.378 0.10201 0.0
C2189 C 0.88506 0.40618 0.14163 0.0
C2190 C 0.88764 0.43004 0.15477 0.0
C2191 C 0.88212 0.45258 0.13776 0.0
C2192 C 0.88504 0.475 0.1501 0.0
C2193 C 0.89326 0.47512 0.17955 0.0
C2194 C 0.8985 0.45282 0.19674 0.0
C2195 C 0.89566 0.43035 0.18448 0.0
H2196 H 0.89552 0.4925 0.18906 0.0
H2197 H 0.86863 0.2741 0.07063 0.0
H2198 H 0.96616 0.55984 0.41136 0.0
H2199 H 0.94045 0.58976 0.38013 0.0
H2200 H 0.87708 0.57406 0.43984 0.0
H2201 H 0.90328 0.54607 0.47238 0.0
H2202 H 0.9056 0.58935 0.34667 0.0
H2203 H 0.83467 0.62066 0.44234 0.0
H2204 H 0.83397 0.62722 0.497 0.0
H2205 H 0.91184 0.63683 0.49046 0.0
H2206 H 0.91298 0.63053 0.43573 0.0
H2207 H 0.80431 0.65188 0.27412 0.0
H2208 H 0.83167 0.62403 0.30556 0.0
H2209 H 0.84774 0.68505 0.35646 0.0
H2210 H 0.81852 0.71224 0.3268 0.0
H2211 H 0.84565 0.64961 0.39384 0.0
H2212 H 0.88891 0.65797 0.29812 0.0
H2213 H 0.89588 0.65781 0.24252 0.0
H2214 H 0.88456 0.58024 0.24767 0.0
H2215 H 0.87717 0.58 0.30328 0.0
C2216 C 0.94671 0.56285 0.41766 0.0
C2217 C 0.93659 0.55029 0.4439 0.0
C2218 C 0.93197 0.5799 0.3998 0.0
C2219 C 0.90673 0.58458 0.40766 0.0
C2220 C 0.89655 0.57143 0.43352 0.0
C2221 C 0.91143 0.55498 0.45182 0.0
C2222 C 0.89107 0.60308 0.38887 0.0
C2223 C 0.89257 0.60256 0.35706 0.0
C2224 C 0.87449 0.621 0.40207 0.0
C2225 C 0.87394 0.62486 0.43499 0.0
C2226 C 0.85163 0.62422 0.45255 0.0
C2227 C 0.85116 0.62789 0.48355 0.0
C2228 C 0.87285 0.63241 0.4972 0.0
C2229 C 0.89506 0.63327 0.47987 0.0
C2230 C 0.89564 0.6296 0.44888 0.0
C2231 C 0.81343 0.65916 0.29237 0.0
C2232 C 0.8091 0.68409 0.29833 0.0
C2233 C 0.82942 0.64334 0.31005 0.0
C2234 C 0.84235 0.65237 0.33318 0.0
C2235 C 0.83808 0.67744 0.33891 0.0
C2236 C 0.82151 0.69305 0.32184 0.0
C2237 C 0.85998 0.63572 0.35164 0.0
C2238 C 0.85879 0.63652 0.38342 0.0
C2239 C 0.8778 0.61901 0.33828 0.0
C2240 C 0.88227 0.61903 0.30484 0.0
C2241 C 0.88774 0.64091 0.28737 0.0
C2242 C 0.89179 0.64089 0.25586 0.0
C2243 C 0.89061 0.61904 0.24156 0.0
C2244 C 0.88544 0.59716 0.25877 0.0
C2245 C 0.88134 0.59708 0.29029 0.0
H2246 H 0.89375 0.61906 0.21716 0.0
H2247 H 0.87243 0.63526 0.52119 0.0
H2248 H 0.35192 0.29975 0.28908 0.0
H2249 H 0.37856 0.32557 0.31369 0.0
H2250 H 0.31677 0.3506 0.3712 0.0
H2251 H 0.28999 0.32451 0.34694 0.0
H2252 H 0.34162 0.38872 0.34436 0.0
H2253 H 0.36331 0.3118 0.40306 0.0
H2254 H 0.37666 0.26743 0.40998 0.0
H2255 H 0.44344 0.28063 0.35673 0.0
H2256 H 0.4304 0.32505 0.34948 0.0
H2257 H 0.40592 0.44959 0.44768 0.0
H2258 H 0.38061 0.42304 0.42228 0.0
H2259 H 0.44508 0.39568 0.37087 0.0
H2260 H 0.47062 0.42213 0.39656 0.0
H2261 H 0.41952 0.35874 0.39317 0.0
H2262 H 0.3994 0.4355 0.33583 0.0
H2263 H 0.38666 0.47993 0.32812 0.0
H2264 H 0.31757 0.46746 0.37658 0.0
H2265 H 0.33003 0.42298 0.38476 0.0
C2266 C 0.34407 0.31039 0.30735 0.0
C2267 C 0.31881 0.31015 0.316 0.0
C2268 C 0.35933 0.32515 0.32137 0.0
C2269 C 0.34966 0.33986 0.34439 0.0
C2270 C 0.32455 0.33942 0.35339 0.0
C2271 C 0.30927 0.32463 0.33941 0.0
C2272 C 0.36545 0.35677 0.3578 0.0
C2273 C 0.35847 0.38215 0.35545 0.0
C2274 C 0.38786 0.34827 0.37124 0.0
C2275 C 0.39572 0.32162 0.37543 0.0
C2276 C 0.3807 0.30515 0.3926 0.0
C2277 C 0.38825 0.28004 0.39667 0.0
C2278 C 0.41081 0.2712 0.38365 0.0
C2279 C 0.42594 0.28749 0.36672 0.0
C2280 C 0.41851 0.31264 0.36271 0.0
C2281 C 0.41464 0.4382 0.43063 0.0
C2282 C 0.44022 0.43793 0.42406 0.0
C2283 C 0.40015 0.42305 0.41609 0.0
C2284 C 0.41089 0.4076 0.39437 0.0
C2285 C 0.43642 0.40744 0.38758 0.0
C2286 C 0.45098 0.42249 0.4023 0.0
C2287 C 0.39561 0.39075 0.37996 0.0
C2288 C 0.4027 0.36537 0.38204 0.0
C2289 C 0.37338 0.39929 0.36605 0.0
C2290 C 0.36578 0.42599 0.36118 0.0
C2291 C 0.3816 0.4423 0.34506 0.0
C2292 C 0.37441 0.46746 0.34055 0.0
C2293 C 0.35137 0.47653 0.35197 0.0
C2294 C 0.33543 0.46042 0.3678 0.0
C2295 C 0.34253 0.43522 0.37232 0.0
H2296 H 0.34584 0.49602 0.34848 0.0
H2297 H 0.41661 0.25174 0.38678 0.0
H2298 H 0.45467 0.56232 0.07638 0.0
H2299 H 0.42657 0.59014 0.10521 0.0
H2300 H 0.3823 0.60616 0.02676 0.0
H2301 H 0.41067 0.57841 0.99784 0.0
H2302 H 0.38835 0.64803 0.05746 0.0
H2303 H 0.3641 0.56542 0.0806 0.0
H2304 H 0.37124 0.52102 0.09603 0.0
H2305 H 0.39437 0.53835 0.18288 0.0
H2306 H 0.38782 0.58291 0.16773 0.0
H2307 H 0.2854 0.70081 0.14317 0.0
H2308 H 0.31155 0.67554 0.10891 0.0
H2309 H 0.35604 0.64769 0.18409 0.0
H2310 H 0.32933 0.67227 0.21833 0.0
H2311 H 0.34769 0.6114 0.15204 0.0
H2312 H 0.37451 0.69374 0.12822 0.0
H2313 H 0.36923 0.73827 0.11239 0.0
H2314 H 0.34192 0.72175 0.02735 0.0
H2315 H 0.34678 0.67711 0.04282 0.0
C2316 C 0.43905 0.57203 0.06534 0.0
C2317 C 0.43454 0.56828 0.03516 0.0
C2318 C 0.42302 0.58781 0.08174 0.0
C2319 C 0.40218 0.59996 0.06822 0.0
C2320 C 0.39824 0.59693 0.0376 0.0
C2321 C 0.4143 0.5811 0.02118 0.0
C2322 C 0.38396 0.6148 0.0866 0.0
C2323 C 0.37917 0.64001 0.07792 0.0
C2324 C 0.37225 0.60433 0.11347 0.0
C2325 C 0.37564 0.57752 0.12293 0.0
C2326 C 0.37084 0.55978 0.10292 0.0
C2327 C 0.37479 0.53457 0.11162 0.0
C2328 C 0.38329 0.52687 0.14041 0.0
C2329 C 0.3878 0.54435 0.16058 0.0
C2330 C 0.38396 0.56958 0.15196 0.0
C2331 C 0.30074 0.68917 0.1522 0.0
C2332 C 0.30553 0.68838 0.18319 0.0
C2333 C 0.31575 0.67489 0.13267 0.0
C2334 C 0.336 0.65991 0.14382 0.0
C2335 C 0.34056 0.65906 0.17493 0.0
C2336 C 0.32543 0.67313 0.19445 0.0
C2337 C 0.3524 0.64489 0.12336 0.0
C2338 C 0.35677 0.61952 0.13155 0.0
C2339 C 0.36374 0.65527 0.09611 0.0
C2340 C 0.36084 0.68209 0.08677 0.0
C2341 C 0.36725 0.69961 0.10621 0.0
C2342 C 0.3644 0.72486 0.09727 0.0
C2343 C 0.35534 0.73282 0.06884 0.0
C2344 C 0.34904 0.71555 0.04931 0.0
C2345 C 0.35185 0.69027 0.05815 0.0
H2346 H 0.35308 0.75238 0.06199 0.0
H2347 H 0.38634 0.50734 0.1471 0.0
H2348 H 0.18551 0.68422 0.7734 0.0
H2349 H 0.15672 0.65722 0.80211 0.0
H2350 H 0.19002 0.66997 0.88541 0.0
H2351 H 0.21882 0.69702 0.85657 0.0
H2352 H 0.18095 0.62222 0.88648 0.0
H2353 H 0.13292 0.69809 0.86497 0.0
H2354 H 0.11518 0.73333 0.83263 0.0
H2355 H 0.07715 0.68377 0.78361 0.0
H2356 H 0.09503 0.64816 0.81533 0.0
H2357 H 0.0854 0.57451 0.98832 0.0
H2358 H 0.11431 0.60156 0.95972 0.0
H2359 H 0.08216 0.5877 0.87607 0.0
H2360 H 0.05329 0.56062 0.90482 0.0
H2361 H 0.09058 0.63609 0.87531 0.0
H2362 H 0.13869 0.56026 0.8967 0.0
H2363 H 0.15661 0.52498 0.92882 0.0
H2364 H 0.19446 0.57452 0.97808 0.0
H2365 H 0.17644 0.61016 0.94655 0.0
C2366 C 0.18665 0.68132 0.79786 0.0
C2367 C 0.20448 0.69299 0.81261 0.0
C2368 C 0.17007 0.66586 0.81438 0.0
C2369 C 0.17069 0.66152 0.84629 0.0
C2370 C 0.18887 0.67282 0.86096 0.0
C2371 C 0.20539 0.68838 0.84442 0.0
C2372 C 0.15244 0.64541 0.86426 0.0
C2373 C 0.16119 0.62557 0.88426 0.0
C2374 C 0.12647 0.64906 0.86127 0.0
C2375 C 0.11552 0.67043 0.84233 0.0
C2376 C 0.12092 0.69468 0.84714 0.0
C2377 C 0.11083 0.71473 0.82894 0.0
C2378 C 0.09509 0.71079 0.80603 0.0
C2379 C 0.08937 0.68679 0.80133 0.0
C2380 C 0.09948 0.66667 0.81942 0.0
C2381 C 0.08451 0.57727 0.96383 0.0
C2382 C 0.06702 0.56534 0.9489 0.0
C2383 C 0.10116 0.59271 0.94737 0.0
C2384 C 0.10086 0.59676 0.9154 0.0
C2385 C 0.08303 0.5851 0.90057 0.0
C2386 C 0.06651 0.56951 0.91704 0.0
C2387 C 0.1191 0.61292 0.89752 0.0
C2388 C 0.11034 0.63276 0.87753 0.0
C2389 C 0.14505 0.60928 0.90054 0.0
C2390 C 0.156 0.58791 0.91946 0.0
C2391 C 0.15068 0.56366 0.91454 0.0
C2392 C 0.16087 0.54359 0.93262 0.0
C2393 C 0.17661 0.54751 0.95553 0.0
C2394 C 0.18223 0.57152 0.96035 0.0
C2395 C 0.17204 0.59166 0.94238 0.0
H2396 H 0.1845 0.53195 0.96949 0.0
H2397 H 0.08729 0.72633 0.79197 0.0
H2398 H 0.07284 0.42059 0.51494 0.0
H2399 H 0.10207 0.3916 0.54293 0.0
H2400 H 0.0799 0.42556 0.62589 0.0
H2401 H 0.0506 0.45419 0.59804 0.0
H2402 H 0.1308 0.41694 0.61879 0.0
H2403 H 0.0575 0.37313 0.6124 0.0
H2404 H 0.02468 0.35635 0.58533 0.0
H2405 H 0.07899 0.31126 0.53706 0.0
H2406 H 0.11221 0.32816 0.56343 0.0
H2407 H 0.17611 0.3282 0.73137 0.0
H2408 H 0.1485 0.35592 0.69972 0.0
H2409 H 0.17003 0.31431 0.62235 0.0
H2410 H 0.19734 0.28637 0.65431 0.0
H2411 H 0.12121 0.32664 0.62377 0.0
H2412 H 0.19447 0.36878 0.63091 0.0
H2413 H 0.22776 0.38554 0.65718 0.0
H2414 H 0.17459 0.43386 0.70251 0.0
H2415 H 0.14091 0.41703 0.67695 0.0
C2416 C 0.07447 0.42188 0.53908 0.0
C2417 C 0.05984 0.43973 0.55434 0.0
C2418 C 0.09104 0.40535 0.55506 0.0
C2419 C 0.09316 0.40642 0.58653 0.0
C2420 C 0.07872 0.4245 0.60162 0.0
C2421 C 0.06204 0.44083 0.58574 0.0
C2422 C 0.10986 0.38834 0.60407 0.0
C2423 C 0.12857 0.39722 0.62011 0.0
C2424 C 0.10734 0.36255 0.60519 0.0
C2425 C 0.08736 0.35212 0.58964 0.0
C2426 C 0.06247 0.35979 0.59583 0.0
C2427 C 0.04379 0.35024 0.58063 0.0
C2428 C 0.04975 0.33279 0.55943 0.0
C2429 C 0.07441 0.32481 0.55345 0.0
C2430 C 0.09317 0.33437 0.56851 0.0
C2431 C 0.17474 0.325 0.70764 0.0
C2432 C 0.18881 0.30541 0.69505 0.0
C2433 C 0.1591 0.34083 0.68955 0.0
C2434 C 0.15746 0.33746 0.65849 0.0
C2435 C 0.17103 0.31735 0.64618 0.0
C2436 C 0.18662 0.30146 0.66434 0.0
C2437 C 0.14203 0.35526 0.6388 0.0
C2438 C 0.12357 0.34635 0.62233 0.0
C2439 C 0.14488 0.38103 0.63713 0.0
C2440 C 0.16513 0.39148 0.6522 0.0
C2441 C 0.18985 0.38286 0.64664 0.0
C2442 C 0.2088 0.39238 0.6614 0.0
C2443 C 0.20329 0.41073 0.68154 0.0
C2444 C 0.17883 0.41963 0.68692 0.0
C2445 C 0.1598 0.41011 0.6723 0.0
H2446 H 0.21798 0.41807 0.69295 0.0
H2447 H 0.03526 0.32541 0.54769 0.0
loop_
_geom_bond_atom_site_label_1
_geom_bond_atom_site_label_2
_geom_bond_distance
_geom_bond_site_symmetry_2
_ccdc_geom_bond_type
C0 C1 1.443 . S
C0 N4 1.376 . S
C0 C38 1.389 1_545 S
C1 C0 1.443 . S
C1 C2 1.340 . S
C1 H41 0.951 . S
C2 C1 1.340 . S
C2 C3 1.439 . S
C2 H42 0.950 . S
C3 C2 1.439 . S
C3 N4 1.374 . S
C3 C37 1.395 1_554 S
N4 C0 1.376 . S
N4 C3 1.374 . S
N4 Co5 2.008 1_655 S
Co5 N4 2.008 1_455 S
Co5 N6 1.995 1_454 S
Co5 N11 2.008 1_544 S
Co5 N16 1.995 1_545 S
Co5 N21 2.282 1_444 S
Co5 N27 2.282 . S
N6 Co5 1.995 1_656 S
N6 C7 1.376 . S
N6 C10 1.383 . S
C7 N6 1.376 . S
C7 C8 1.446 . S
C7 C37 1.391 . S
C8 C7 1.446 . S
C8 C9 1.339 . S
C8 H43 0.949 . S
C9 C8 1.339 . S
C9 C10 1.439 . S
C9 H44 0.950 . S
C10 N6 1.383 . S
C10 C9 1.439 . S
C10 C39 1.392 1_655 S
N11 Co5 2.008 1_566 S
N11 C12 1.376 . S
N11 C15 1.374 . S
C12 N11 1.376 . S
C12 C13 1.443 . S
C12 C39 1.389 1_565 S
C13 C12 1.443 . S
C13 C14 1.340 . S
C13 H45 0.951 . S
C14 C13 1.340 . S
C14 C15 1.439 . S
C14 H46 0.950 . S
C15 N11 1.374 . S
C15 C14 1.439 . S
C15 C40 1.395 1_556 S
N16 Co5 1.995 1_565 S
N16 C17 1.376 . S
N16 C20 1.383 . S
C17 N16 1.376 . S
C17 C18 1.446 . S
C17 C40 1.391 . S
C18 C17 1.446 . S
C18 C19 1.339 . S
C18 H47 0.949 . S
C19 C18 1.339 . S
C19 C20 1.439 . S
C19 H48 0.950 . S
C20 N16 1.383 . S
C20 C19 1.439 . S
C20 C38 1.392 1_455 S
N21 Co5 2.282 1_666 S
N21 C24 1.332 . S
N21 C26 1.332 . S
C22 C23 1.386 . S
C22 C25 1.388 . S
C23 C22 1.386 . S
C23 C24 1.382 . S
C23 H49 0.950 . S
C24 N21 1.332 . S
C24 C23 1.382 . S
C24 H35 0.952 . S
C25 C22 1.388 . S
C25 C26 1.382 . S
C25 H50 0.950 . S
C26 N21 1.332 . S
C26 C25 1.382 . S
C26 H36 0.953 1_565 S
N27 Co5 2.282 . S
N27 C31 1.332 . S
N27 C32 1.332 . S
C28 C29 1.388 . S
C28 C32 1.382 . S
C28 H51 0.950 . S
C29 C28 1.388 . S
C29 C30 1.386 . S
C30 C29 1.386 . S
C30 C31 1.382 . S
C30 H52 0.950 . S
C31 N27 1.332 . S
C31 C30 1.382 . S
C31 H33 0.952 . S
C32 N27 1.332 . S
C32 C28 1.382 . S
C32 H34 0.953 . S
H33 C31 0.952 . S
H34 C32 0.953 . S
H35 C24 0.952 . S
H36 C26 0.953 1_545 S
C37 C3 1.395 1_556 S
C37 C7 1.391 . S
C38 C0 1.389 1_565 S
C38 C20 1.392 1_655 S
C39 C10 1.392 1_455 S
C39 C12 1.389 1_545 S
C40 C15 1.395 1_554 S
C40 C17 1.391 . S
H41 C1 0.951 . S
H42 C2 0.950 . S
H43 C8 0.949 . S
H44 C9 0.950 . S
H45 C13 0.951 . S
H46 C14 0.950 . S
H47 C18 0.949 . S
H48 C19 0.950 . S
H49 C23 0.950 . S
H50 C25 0.950 . S
H51 C28 0.950 . S
H52 C30 0.950 . S
C53 C54 1.443 . S
C53 N57 1.376 . S
C53 C91 1.389 . S
C54 C53 1.443 . S
C54 C55 1.340 . S
C54 H94 0.951 . S
C55 C54 1.340 . S
C55 C56 1.439 . S
C55 H95 0.950 . S
C56 C55 1.439 . S
C56 N57 1.374 . S
C56 C90 1.395 . S
N57 C53 1.376 . S
N57 C56 1.374 . S
N57 Co58 2.008 . S
Co58 N57 2.008 . S
Co58 N59 1.995 . S
Co58 N64 2.008 . S
Co58 N69 1.995 . S
Co58 N74 2.282 . S
Co58 N80 2.282 . S
N59 Co58 1.995 . S
N59 C60 1.376 . S
N59 C63 1.383 . S
C60 N59 1.376 . S
C60 C61 1.446 . S
C60 C90 1.391 . S
C61 C60 1.446 . S
C61 C62 1.339 . S
C61 H96 0.949 . S
C62 C61 1.339 . S
C62 C63 1.439 . S
C62 H97 0.950 . S
C63 N59 1.383 . S
C63 C62 1.439 . S
C63 C92 1.392 . S
N64 Co58 2.008 . S
N64 C65 1.376 . S
N64 C68 1.374 . S
C65 N64 1.376 . S
C65 C66 1.443 . S
C65 C92 1.389 . S
C66 C65 1.443 . S
C66 C67 1.340 . S
C66 H98 0.951 . S
C67 C66 1.340 . S
C67 C68 1.439 . S
C67 H99 0.950 . S
C68 N64 1.374 . S
C68 C67 1.439 . S
C68 C93 1.395 . S
N69 Co58 1.995 . S
N69 C70 1.376 . S
N69 C73 1.383 . S
C70 N69 1.376 . S
C70 C71 1.446 . S
C70 C93 1.391 . S
C71 C70 1.446 . S
C71 C72 1.339 . S
C71 H100 0.949 . S
C72 C71 1.339 . S
C72 C73 1.439 . S
C72 H101 0.950 . S
C73 N69 1.383 . S
C73 C72 1.439 . S
C73 C91 1.392 . S
N74 Co58 2.282 . S
N74 C77 1.332 . S
N74 C79 1.332 . S
C75 C76 1.386 . S
C75 C78 1.388 . S
C76 C75 1.386 . S
C76 C77 1.382 . S
C76 H102 0.950 . S
C77 N74 1.332 . S
C77 C76 1.382 . S
C77 H88 0.952 . S
C78 C75 1.388 . S
C78 C79 1.382 . S
C78 H103 0.950 . S
C79 N74 1.332 . S
C79 C78 1.382 . S
C79 H89 0.948 . S
N80 Co58 2.282 . S
N80 C84 1.332 . S
N80 C85 1.332 . S
C81 C82 1.388 . S
C81 C85 1.382 . S
C81 H104 0.950 . S
C82 C81 1.388 . S
C82 C83 1.386 . S
C83 C82 1.386 . S
C83 C84 1.382 . S
C83 H105 0.950 . S
C84 N80 1.332 . S
C84 C83 1.382 . S
C84 H86 0.952 . S
C85 N80 1.332 . S
C85 C81 1.382 . S
C85 H87 0.948 . S
H86 C84 0.952 . S
H87 C85 0.948 . S
H88 C77 0.952 . S
H89 C79 0.948 . S
C90 C56 1.395 . S
C90 C60 1.391 . S
C91 C53 1.389 . S
C91 C73 1.392 . S
C92 C63 1.392 . S
C92 C65 1.389 . S
C93 C68 1.395 . S
C93 C70 1.391 . S
H94 C54 0.951 . S
H95 C55 0.950 . S
H96 C61 0.949 . S
H97 C62 0.950 . S
H98 C66 0.951 . S
H99 C67 0.950 . S
H100 C71 0.949 . S
H101 C72 0.950 . S
H102 C76 0.950 . S
H103 C78 0.950 . S
H104 C81 0.950 . S
H105 C83 0.950 . S
C106 C107 1.443 . S
C106 N110 1.376 1_565 S
C106 C144 1.389 . S
C107 C106 1.443 . S
C107 C108 1.340 1_565 S
C107 H147 0.951 . S
C108 C107 1.340 1_545 S
C108 C109 1.439 . S
C108 H148 0.950 . S
C109 C108 1.439 . S
C109 N110 1.374 . S
C109 C143 1.395 . S
N110 C106 1.376 1_545 S
N110 C109 1.374 . S
N110 Co111 2.008 . S
Co111 N110 2.008 . S
Co111 N112 1.995 . S
Co111 N117 2.008 1_545 S
Co111 N122 1.995 1_545 S
Co111 N127 2.282 1_545 S
Co111 N133 2.282 . S
N112 Co111 1.995 . S
N112 C113 1.376 . S
N112 C116 1.383 . S
C113 N112 1.376 . S
C113 C114 1.446 . S
C113 C143 1.391 . S
C114 C113 1.446 . S
C114 C115 1.339 . S
C114 H149 0.949 . S
C115 C114 1.339 . S
C115 C116 1.439 . S
C115 H150 0.950 . S
C116 N112 1.383 . S
C116 C115 1.439 . S
C116 C145 1.392 . S
N117 Co111 2.008 1_565 S
N117 C118 1.376 1_565 S
N117 C121 1.374 . S
C118 N117 1.376 1_545 S
C118 C119 1.443 . S
C118 C145 1.389 . S
C119 C118 1.443 . S
C119 C120 1.340 1_545 S
C119 H151 0.951 . S
C120 C119 1.340 1_565 S
C120 C121 1.439 . S
C120 H152 0.950 . S
C121 N117 1.374 . S
C121 C120 1.439 . S
C121 C146 1.395 . S
N122 Co111 1.995 1_565 S
N122 C123 1.376 . S
N122 C126 1.383 . S
C123 N122 1.376 . S
C123 C124 1.446 . S
C123 C146 1.391 . S
C124 C123 1.446 . S
C124 C125 1.339 . S
C124 H153 0.949 . S
C125 C124 1.339 . S
C125 C126 1.439 . S
C125 H154 0.950 . S
C126 N122 1.383 . S
C126 C125 1.439 . S
C126 C144 1.392 . S
N127 Co111 2.282 1_565 S
N127 C130 1.332 . S
N127 C132 1.332 1_565 S
C128 C129 1.386 . S
C128 C131 1.388 1_565 S
C129 C128 1.386 . S
C129 C130 1.382 . S
C129 H155 0.950 . S
C130 N127 1.332 . S
C130 C129 1.382 . S
C130 H141 0.952 . S
C131 C128 1.388 1_545 S
C131 C132 1.382 . S
C131 H156 0.950 . S
C132 N127 1.332 1_545 S
C132 C131 1.382 . S
C132 H142 0.948 . S
N133 Co111 2.282 . S
N133 C137 1.332 . S
N133 C138 1.332 1_545 S
C134 C135 1.388 1_565 S
C134 C138 1.382 . S
C134 H157 0.950 . S
C135 C134 1.388 1_545 S
C135 C136 1.386 . S
C136 C135 1.386 . S
C136 C137 1.382 . S
C136 H158 0.950 . S
C137 N133 1.332 . S
C137 C136 1.382 . S
C137 H139 0.952 . S
C138 N133 1.332 1_565 S
C138 C134 1.382 . S
C138 H140 0.948 . S
H139 C137 0.952 . S
H140 C138 0.948 . S
H141 C130 0.952 . S
H142 C132 0.948 . S
C143 C109 1.395 . S
C143 C113 1.391 . S
C144 C106 1.389 . S
C144 C126 1.392 . S
C145 C116 1.392 . S
C145 C118 1.389 . S
C146 C121 1.395 . S
C146 C123 1.391 . S
H147 C107 0.951 . S
H148 C108 0.950 . S
H149 C114 0.949 . S
H150 C115 0.950 . S
H151 C119 0.951 . S
H152 C120 0.950 . S
H153 C124 0.949 . S
H154 C125 0.950 . S
H155 C129 0.950 . S
H156 C131 0.950 . S
H157 C134 0.950 . S
H158 C136 0.950 . S
C159 C160 1.443 . S
C159 N163 1.376 . S
C159 C197 1.389 . S
C160 C159 1.443 . S
C160 C161 1.340 . S
C160 H200 0.951 . S
C161 C160 1.340 . S
C161 C162 1.439 . S
C161 H201 0.950 . S
C162 C161 1.439 . S
C162 N163 1.374 . S
C162 C196 1.395 . S
N163 C159 1.376 . S
N163 C162 1.374 . S
N163 Co164 2.008 . S
Co164 N163 2.008 . S
Co164 N165 1.995 . S
Co164 N170 2.008 . S
Co164 N175 1.995 . S
Co164 N180 2.282 . S
Co164 N186 2.282 . S
N165 Co164 1.995 . S
N165 C166 1.376 . S
N165 C169 1.383 . S
C166 N165 1.376 . S
C166 C167 1.446 . S
C166 C196 1.391 . S
C167 C166 1.446 . S
C167 C168 1.339 . S
C167 H202 0.949 . S
C168 C167 1.339 . S
C168 C169 1.439 . S
C168 H203 0.950 . S
C169 N165 1.383 . S
C169 C168 1.439 . S
C169 C198 1.392 . S
N170 Co164 2.008 . S
N170 C171 1.376 . S
N170 C174 1.374 . S
C171 N170 1.376 . S
C171 C172 1.443 . S
C171 C198 1.389 . S
C172 C171 1.443 . S
C172 C173 1.340 . S
C172 H204 0.951 . S
C173 C172 1.340 . S
C173 C174 1.439 . S
C173 H205 0.950 . S
C174 N170 1.374 . S
C174 C173 1.439 . S
C174 C199 1.395 . S
N175 Co164 1.995 . S
N175 C176 1.376 . S
N175 C179 1.383 . S
C176 N175 1.376 . S
C176 C177 1.446 . S
C176 C199 1.391 . S
C177 C176 1.446 . S
C177 C178 1.339 . S
C177 H206 0.949 . S
C178 C177 1.339 . S
C178 C179 1.439 . S
C178 H207 0.950 . S
C179 N175 1.383 . S
C179 C178 1.439 . S
C179 C197 1.392 . S
N180 Co164 2.282 . S
N180 C183 1.332 . S
N180 C185 1.332 . S
C181 C182 1.386 . S
C181 C184 1.388 . S
C182 C181 1.386 . S
C182 C183 1.382 . S
C182 H208 0.950 . S
C183 N180 1.332 . S
C183 C182 1.382 . S
C183 H194 0.952 . S
C184 C181 1.388 . S
C184 C185 1.382 . S
C184 H209 0.950 . S
C185 N180 1.332 . S
C185 C184 1.382 . S
C185 H195 0.948 . S
N186 Co164 2.282 . S
N186 C190 1.332 . S
N186 C191 1.332 . S
C187 C188 1.388 . S
C187 C191 1.382 . S
C187 H210 0.950 . S
C188 C187 1.388 . S
C188 C189 1.386 . S
C189 C188 1.386 . S
C189 C190 1.382 . S
C189 H211 0.950 . S
C190 N186 1.332 . S
C190 C189 1.382 . S
C190 H192 0.952 . S
C191 N186 1.332 . S
C191 C187 1.382 . S
C191 H193 0.948 . S
H192 C190 0.952 . S
H193 C191 0.948 . S
H194 C183 0.952 . S
H195 C185 0.948 . S
C196 C162 1.395 . S
C196 C166 1.391 . S
C197 C159 1.389 . S
C197 C179 1.392 . S
C198 C169 1.392 . S
C198 C171 1.389 . S
C199 C174 1.395 . S
C199 C176 1.391 . S
H200 C160 0.951 . S
H201 C161 0.950 . S
H202 C167 0.949 . S
H203 C168 0.950 . S
H204 C172 0.951 . S
H205 C173 0.950 . S
H206 C177 0.949 . S
H207 C178 0.950 . S
H208 C182 0.950 . S
H209 C184 0.950 . S
H210 C187 0.950 . S
H211 C189 0.950 . S
C212 C213 1.443 . S
C212 N216 1.376 . S
C212 C250 1.389 1_655 S
C213 C212 1.443 . S
C213 C214 1.340 . S
C213 H253 0.951 . S
C214 C213 1.340 . S
C214 C215 1.439 . S
C214 H254 0.950 . S
C215 C214 1.439 . S
C215 N216 1.374 . S
C215 C249 1.395 . S
N216 C212 1.376 . S
N216 C215 1.374 . S
N216 Co217 2.008 1_665 S
Co217 N216 2.008 1_445 S
Co217 N218 1.995 1_445 S
Co217 N223 2.008 . S
Co217 N228 1.995 . S
Co217 N233 2.282 1_545 S
Co217 N239 2.282 1_455 S
N218 Co217 1.995 1_665 S
N218 C219 1.376 . S
N218 C222 1.383 . S
C219 N218 1.376 . S
C219 C220 1.446 . S
C219 C249 1.391 . S
C220 C219 1.446 . S
C220 C221 1.339 . S
C220 H255 0.949 . S
C221 C220 1.339 . S
C221 C222 1.439 . S
C221 H256 0.950 . S
C222 N218 1.383 . S
C222 C221 1.439 . S
C222 C251 1.392 1_565 S
N223 Co217 2.008 . S
N223 C224 1.376 . S
N223 C227 1.374 . S
C224 N223 1.376 . S
C224 C225 1.443 . S
C224 C251 1.389 1_455 S
C225 C224 1.443 . S
C225 C226 1.340 . S
C225 H257 0.951 . S
C226 C225 1.340 . S
C226 C227 1.439 . S
C226 H258 0.950 . S
C227 N223 1.374 . S
C227 C226 1.439 . S
C227 C252 1.395 . S
N228 Co217 1.995 . S
N228 C229 1.376 . S
N228 C232 1.383 . S
C229 N228 1.376 . S
C229 C230 1.446 . S
C229 C252 1.391 . S
C230 C229 1.446 . S
C230 C231 1.339 . S
C230 H259 0.949 . S
C231 C230 1.339 . S
C231 C232 1.439 . S
C231 H260 0.950 . S
C232 N228 1.383 . S
C232 C231 1.439 . S
C232 C250 1.392 1_545 S
N233 Co217 2.282 1_565 S
N233 C236 1.332 . S
N233 C238 1.332 . S
C234 C235 1.386 . S
C234 C237 1.388 . S
C235 C234 1.386 . S
C235 C236 1.382 . S
C235 H261 0.950 . S
C236 N233 1.332 . S
C236 C235 1.382 . S
C236 H247 0.952 . S
C237 C234 1.388 . S
C237 C238 1.382 . S
C237 H262 0.950 . S
C238 N233 1.332 . S
C238 C237 1.382 . S
C238 H248 0.948 . S
N239 Co217 2.282 1_655 S
N239 C243 1.332 . S
N239 C244 1.332 . S
C240 C241 1.388 . S
C240 C244 1.382 . S
C240 H263 0.950 . S
C241 C240 1.388 . S
C241 C242 1.386 . S
C242 C241 1.386 . S
C242 C243 1.382 . S
C242 H264 0.950 . S
C243 N239 1.332 . S
C243 C242 1.382 . S
C243 H245 0.952 . S
C244 N239 1.332 . S
C244 C240 1.382 . S
C244 H246 0.948 . S
H245 C243 0.952 . S
H246 C244 0.948 . S
H247 C236 0.952 . S
H248 C238 0.948 . S
C249 C215 1.395 . S
C249 C219 1.391 . S
C250 C212 1.389 1_455 S
C250 C232 1.392 1_565 S
C251 C222 1.392 1_545 S
C251 C224 1.389 1_655 S
C252 C227 1.395 . S
C252 C229 1.391 . S
H253 C213 0.951 . S
H254 C214 0.950 . S
H255 C220 0.949 . S
H256 C221 0.950 . S
H257 C225 0.951 . S
H258 C226 0.950 . S
H259 C230 0.949 . S
H260 C231 0.950 . S
H261 C235 0.950 . S
H262 C237 0.950 . S
H263 C240 0.950 . S
H264 C242 0.950 . S
C265 C266 1.443 . S
C265 N269 1.376 . S
C265 C303 1.389 . S
C266 C265 1.443 . S
C266 C267 1.340 . S
C266 H306 0.951 . S
C267 C266 1.340 . S
C267 C268 1.439 . S
C267 H307 0.950 . S
C268 C267 1.439 . S
C268 N269 1.374 . S
C268 C302 1.395 . S
N269 C265 1.376 . S
N269 C268 1.374 . S
N269 Co270 2.008 . S
Co270 N269 2.008 . S
Co270 N271 1.995 . S
Co270 N276 2.008 . S
Co270 N281 1.995 . S
Co270 N286 2.282 . S
Co270 N292 2.282 . S
N271 Co270 1.995 . S
N271 C272 1.376 . S
N271 C275 1.383 . S
C272 N271 1.376 . S
C272 C273 1.446 . S
C272 C302 1.391 . S
C273 C272 1.446 . S
C273 C274 1.339 . S
C273 H308 0.949 . S
C274 C273 1.339 . S
C274 C275 1.439 . S
C274 H309 0.950 . S
C275 N271 1.383 . S
C275 C274 1.439 . S
C275 C304 1.392 . S
N276 Co270 2.008 . S
N276 C277 1.376 . S
N276 C280 1.374 . S
C277 N276 1.376 . S
C277 C278 1.443 . S
C277 C304 1.389 . S
C278 C277 1.443 . S
C278 C279 1.340 . S
C278 H310 0.951 . S
C279 C278 1.340 . S
C279 C280 1.439 . S
C279 H311 0.950 . S
C280 N276 1.374 . S
C280 C279 1.439 . S
C280 C305 1.395 . S
N281 Co270 1.995 . S
N281 C282 1.376 . S
N281 C285 1.383 . S
C282 N281 1.376 . S
C282 C283 1.446 . S
C282 C305 1.391 . S
C283 C282 1.446 . S
C283 C284 1.339 . S
C283 H312 0.949 . S
C284 C283 1.339 . S
C284 C285 1.439 . S
C284 H313 0.950 . S
C285 N281 1.383 . S
C285 C284 1.439 . S
C285 C303 1.392 . S
N286 Co270 2.282 . S
N286 C289 1.332 . S
N286 C291 1.332 . S
C287 C288 1.386 . S
C287 C290 1.388 . S
C288 C287 1.386 . S
C288 C289 1.382 . S
C288 H314 0.950 . S
C289 N286 1.332 . S
C289 C288 1.382 . S
C289 H300 0.952 . S
C290 C287 1.388 . S
C290 C291 1.382 . S
C290 H315 0.950 . S
C291 N286 1.332 . S
C291 C290 1.382 . S
C291 H301 0.948 . S
N292 Co270 2.282 . S
N292 C296 1.332 . S
N292 C297 1.332 . S
C293 C294 1.388 . S
C293 C297 1.382 . S
C293 H316 0.950 . S
C294 C293 1.388 . S
C294 C295 1.386 . S
C295 C294 1.386 . S
C295 C296 1.382 . S
C295 H317 0.950 . S
C296 N292 1.332 . S
C296 C295 1.382 . S
C296 H298 0.952 . S
C297 N292 1.332 . S
C297 C293 1.382 . S
C297 H299 0.948 . S
H298 C296 0.952 . S
H299 C297 0.948 . S
H300 C289 0.952 . S
H301 C291 0.948 . S
C302 C268 1.395 . S
C302 C272 1.391 . S
C303 C265 1.389 . S
C303 C285 1.392 . S
C304 C275 1.392 . S
C304 C277 1.389 . S
C305 C280 1.395 . S
C305 C282 1.391 . S
H306 C266 0.951 . S
H307 C267 0.950 . S
H308 C273 0.949 . S
H309 C274 0.950 . S
H310 C278 0.951 . S
H311 C279 0.950 . S
H312 C283 0.949 . S
H313 C284 0.950 . S
H314 C288 0.950 . S
H315 C290 0.950 . S
H316 C293 0.950 . S
H317 C295 0.950 . S
C318 C319 1.443 . S
C318 N322 1.352 1_545 S
C318 C356 1.389 . S
C319 C318 1.443 . S
C319 C320 1.340 1_545 S
C319 H359 0.951 . S
C320 C319 1.340 1_565 S
C320 C321 1.439 . S
C320 H360 0.950 . S
C321 C320 1.439 . S
C321 N322 1.404 . S
C321 C355 1.396 . S
N322 C318 1.352 1_565 S
N322 C321 1.404 . S
N322 Co323 2.004 1_566 S
Co323 N322 2.004 1_544 S
Co323 N324 1.995 1_545 S
Co323 N329 2.003 . S
Co323 N334 1.995 1_554 S
Co323 N339 2.282 . S
Co323 N345 2.282 1_544 S
N324 Co323 1.995 1_565 S
N324 C325 1.376 . S
N324 C328 1.383 . S
C325 N324 1.376 . S
C325 C326 1.446 . S
C325 C355 1.390 1_554 S
C326 C325 1.446 . S
C326 C327 1.339 . S
C326 H361 0.949 . S
C327 C326 1.339 . S
C327 C328 1.439 . S
C327 H362 0.950 . S
C328 N324 1.383 . S
C328 C327 1.439 . S
C328 C357 1.392 . S
N329 Co323 2.003 . S
N329 C330 1.345 1_545 S
N329 C333 1.414 . S
C330 N329 1.345 1_565 S
C330 C331 1.443 . S
C330 C357 1.389 . S
C331 C330 1.443 . S
C331 C332 1.340 1_565 S
C331 H363 0.951 . S
C332 C331 1.340 1_545 S
C332 C333 1.439 . S
C332 H364 0.950 . S
C333 N329 1.414 . S
C333 C332 1.439 . S
C333 C358 1.399 . S
N334 Co323 1.995 1_556 S
N334 C335 1.376 . S
N334 C338 1.383 . S
C335 N334 1.376 . S
C335 C336 1.446 . S
C335 C358 1.387 1_556 S
C336 C335 1.446 . S
C336 C337 1.339 . S
C336 H365 0.949 . S
C337 C336 1.339 . S
C337 C338 1.439 . S
C337 H366 0.950 . S
C338 N334 1.383 . S
C338 C337 1.439 . S
C338 C356 1.392 . S
N339 Co323 2.282 . S
N339 C342 1.332 . S
N339 C344 1.332 1_545 S
C340 C341 1.386 . S
C340 C343 1.388 1_545 S
C341 C340 1.386 . S
C341 C342 1.382 . S
C341 H367 0.950 . S
C342 N339 1.332 . S
C342 C341 1.382 . S
C342 H353 0.952 . S
C343 C340 1.388 1_565 S
C343 C344 1.382 . S
C343 H368 0.950 . S
C344 N339 1.332 1_565 S
C344 C343 1.382 . S
C344 H354 0.948 . S
N345 Co323 2.282 1_566 S
N345 C349 1.332 . S
N345 C350 1.332 1_565 S
C346 C347 1.388 1_545 S
C346 C350 1.382 . S
C346 H369 0.950 . S
C347 C346 1.388 1_565 S
C347 C348 1.386 . S
C348 C347 1.386 . S
C348 C349 1.382 . S
C348 H370 0.950 . S
C349 N345 1.332 . S
C349 C348 1.382 . S
C349 H351 0.952 . S
C350 N345 1.332 1_545 S
C350 C346 1.382 . S
C350 H352 0.948 . S
H351 C349 0.952 . S
H352 C350 0.948 . S
H353 C342 0.952 . S
H354 C344 0.948 . S
C355 C321 1.396 . S
C355 C325 1.390 1_556 S
C356 C318 1.389 . S
C356 C338 1.392 . S
C357 C328 1.392 . S
C357 C330 1.389 . S
C358 C333 1.399 . S
C358 C335 1.387 1_554 S
H359 C319 0.951 . S
H360 C320 0.950 . S
H361 C326 0.949 . S
H362 C327 0.950 . S
H363 C331 0.951 . S
H364 C332 0.950 . S
H365 C336 0.949 . S
H366 C337 0.950 . S
H367 C341 0.950 . S
H368 C343 0.950 . S
H369 C346 0.950 . S
H370 C348 0.950 . S
C371 C372 1.443 . S
C371 N375 1.376 . S
C371 C409 1.389 . S
C372 C371 1.443 . S
C372 C373 1.340 . S
C372 H412 0.951 . S
C373 C372 1.340 . S
C373 C374 1.439 . S
C373 H413 0.950 . S
C374 C373 1.439 . S
C374 N375 1.374 . S
C374 C408 1.395 . S
N375 C371 1.376 . S
N375 C374 1.374 . S
N375 Co376 2.008 . S
Co376 N375 2.008 . S
Co376 N377 1.995 . S
Co376 N382 2.008 . S
Co376 N387 1.995 . S
Co376 N392 2.282 . S
Co376 N398 2.282 . S
N377 Co376 1.995 . S
N377 C378 1.376 . S
N377 C381 1.383 . S
C378 N377 1.376 . S
C378 C379 1.446 . S
C378 C408 1.391 . S
C379 C378 1.446 . S
C379 C380 1.339 . S
C379 H414 0.949 . S
C380 C379 1.339 . S
C380 C381 1.439 . S
C380 H415 0.950 . S
C381 N377 1.383 . S
C381 C380 1.439 . S
C381 C410 1.392 . S
N382 Co376 2.008 . S
N382 C383 1.376 . S
N382 C386 1.374 . S
C383 N382 1.376 . S
C383 C384 1.443 . S
C383 C410 1.389 . S
C384 C383 1.443 . S
C384 C385 1.340 . S
C384 H416 0.951 . S
C385 C384 1.340 . S
C385 C386 1.439 . S
C385 H417 0.950 . S
C386 N382 1.374 . S
C386 C385 1.439 . S
C386 C411 1.395 . S
N387 Co376 1.995 . S
N387 C388 1.376 . S
N387 C391 1.383 . S
C388 N387 1.376 . S
C388 C389 1.446 . S
C388 C411 1.391 . S
C389 C388 1.446 . S
C389 C390 1.339 . S
C389 H418 0.949 . S
C390 C389 1.339 . S
C390 C391 1.439 . S
C390 H419 0.950 . S
C391 N387 1.383 . S
C391 C390 1.439 . S
C391 C409 1.392 . S
N392 Co376 2.282 . S
N392 C395 1.332 . S
N392 C397 1.332 . S
C393 C394 1.386 . S
C393 C396 1.388 . S
C394 C393 1.386 . S
C394 C395 1.382 . S
C394 H420 0.950 . S
C395 N392 1.332 . S
C395 C394 1.382 . S
C395 H406 0.952 . S
C396 C393 1.388 . S
C396 C397 1.382 . S
C396 H421 0.950 . S
C397 N392 1.332 . S
C397 C396 1.382 . S
C397 H407 0.948 . S
N398 Co376 2.282 . S
N398 C402 1.332 . S
N398 C403 1.332 . S
C399 C400 1.388 . S
C399 C403 1.382 . S
C399 H422 0.950 . S
C400 C399 1.388 . S
C400 C401 1.386 . S
C401 C400 1.386 . S
C401 C402 1.382 . S
C401 H423 0.950 . S
C402 N398 1.332 . S
C402 C401 1.382 . S
C402 H404 0.952 . S
C403 N398 1.332 . S
C403 C399 1.382 . S
C403 H405 0.948 . S
H404 C402 0.952 . S
H405 C403 0.948 . S
H406 C395 0.952 . S
H407 C397 0.948 . S
C408 C374 1.395 . S
C408 C378 1.391 . S
C409 C371 1.389 . S
C409 C391 1.392 . S
C410 C381 1.392 . S
C410 C383 1.389 . S
C411 C386 1.395 . S
C411 C388 1.391 . S
H412 C372 0.951 . S
H413 C373 0.950 . S
H414 C379 0.949 . S
H415 C380 0.950 . S
H416 C384 0.951 . S
H417 C385 0.950 . S
H418 C389 0.949 . S
H419 C390 0.950 . S
H420 C394 0.950 . S
H421 C396 0.950 . S
H422 C399 0.950 . S
H423 C401 0.950 . S
C424 C425 1.443 . S
C424 N428 1.376 . S
C424 C462 1.389 . S
C425 C424 1.443 . S
C425 C426 1.340 . S
C425 H465 0.951 . S
C426 C425 1.340 . S
C426 C427 1.439 . S
C426 H466 0.950 . S
C427 C426 1.439 . S
C427 N428 1.374 . S
C427 C461 1.395 . S
N428 C424 1.376 . S
N428 C427 1.374 . S
N428 Co429 2.008 . S
Co429 N428 2.008 . S
Co429 N430 1.995 . S
Co429 N435 2.008 . S
Co429 N440 1.995 . S
Co429 N445 2.282 . S
Co429 N451 2.282 . S
N430 Co429 1.995 . S
N430 C431 1.376 . S
N430 C434 1.383 . S
C431 N430 1.376 . S
C431 C432 1.446 . S
C431 C461 1.391 . S
C432 C431 1.446 . S
C432 C433 1.339 . S
C432 H467 0.949 . S
C433 C432 1.339 . S
C433 C434 1.439 . S
C433 H468 0.950 . S
C434 N430 1.383 . S
C434 C433 1.439 . S
C434 C463 1.392 . S
N435 Co429 2.008 . S
N435 C436 1.376 . S
N435 C439 1.374 . S
C436 N435 1.376 . S
C436 C437 1.443 . S
C436 C463 1.389 . S
C437 C436 1.443 . S
C437 C438 1.340 . S
C437 H469 0.951 . S
C438 C437 1.340 . S
C438 C439 1.439 . S
C438 H470 0.950 . S
C439 N435 1.374 . S
C439 C438 1.439 . S
C439 C464 1.395 . S
N440 Co429 1.995 . S
N440 C441 1.376 . S
N440 C444 1.383 . S
C441 N440 1.376 . S
C441 C442 1.446 . S
C441 C464 1.391 . S
C442 C441 1.446 . S
C442 C443 1.339 . S
C442 H471 0.949 . S
C443 C442 1.339 . S
C443 C444 1.439 . S
C443 H472 0.950 . S
C444 N440 1.383 . S
C444 C443 1.439 . S
C444 C462 1.392 . S
N445 Co429 2.282 . S
N445 C448 1.332 . S
N445 C450 1.332 . S
C446 C447 1.386 . S
C446 C449 1.388 . S
C447 C446 1.386 . S
C447 C448 1.382 . S
C447 H473 0.950 . S
C448 N445 1.332 . S
C448 C447 1.382 . S
C448 H459 0.952 . S
C449 C446 1.388 . S
C449 C450 1.382 . S
C449 H474 0.950 . S
C450 N445 1.332 . S
C450 C449 1.382 . S
C450 H460 0.948 . S
N451 Co429 2.282 . S
N451 C455 1.332 . S
N451 C456 1.332 . S
C452 C453 1.388 . S
C452 C456 1.382 . S
C452 H475 0.950 . S
C453 C452 1.388 . S
C453 C454 1.386 . S
C454 C453 1.386 . S
C454 C455 1.382 . S
C454 H476 0.950 . S
C455 N451 1.332 . S
C455 C454 1.382 . S
C455 H457 0.952 . S
C456 N451 1.332 . S
C456 C452 1.382 . S
C456 H458 0.948 . S
H457 C455 0.952 . S
H458 C456 0.948 . S
H459 C448 0.952 . S
H460 C450 0.948 . S
C461 C427 1.395 . S
C461 C431 1.391 . S
C462 C424 1.389 . S
C462 C444 1.392 . S
C463 C434 1.392 . S
C463 C436 1.389 . S
C464 C439 1.395 . S
C464 C441 1.391 . S
H465 C425 0.951 . S
H466 C426 0.950 . S
H467 C432 0.949 . S
H468 C433 0.950 . S
H469 C437 0.951 . S
H470 C438 0.950 . S
H471 C442 0.949 . S
H472 C443 0.950 . S
H473 C447 0.950 . S
H474 C449 0.950 . S
H475 C452 0.950 . S
H476 C454 0.950 . S
C477 C478 1.443 . S
C477 N481 1.376 . S
C477 C515 1.389 . S
C478 C477 1.443 . S
C478 C479 1.340 . S
C478 H518 0.951 . S
C479 C478 1.340 . S
C479 C480 1.439 . S
C479 H519 0.950 . S
C480 C479 1.439 . S
C480 N481 1.374 . S
C480 C514 1.395 . S
N481 C477 1.376 . S
N481 C480 1.374 . S
N481 Co482 2.008 . S
Co482 N481 2.008 . S
Co482 N483 1.995 . S
Co482 N488 2.008 . S
Co482 N493 1.995 . S
Co482 N498 2.282 . S
Co482 N504 2.282 . S
N483 Co482 1.995 . S
N483 C484 1.376 . S
N483 C487 1.383 . S
C484 N483 1.376 . S
C484 C485 1.446 . S
C484 C514 1.391 . S
C485 C484 1.446 . S
C485 C486 1.339 . S
C485 H520 0.949 . S
C486 C485 1.339 . S
C486 C487 1.439 . S
C486 H521 0.950 . S
C487 N483 1.383 . S
C487 C486 1.439 . S
C487 C516 1.392 . S
N488 Co482 2.008 . S
N488 C489 1.376 . S
N488 C492 1.374 . S
C489 N488 1.376 . S
C489 C490 1.443 . S
C489 C516 1.389 . S
C490 C489 1.443 . S
C490 C491 1.340 . S
C490 H522 0.951 . S
C491 C490 1.340 . S
C491 C492 1.439 . S
C491 H523 0.950 . S
C492 N488 1.374 . S
C492 C491 1.439 . S
C492 C517 1.395 . S
N493 Co482 1.995 . S
N493 C494 1.376 . S
N493 C497 1.383 . S
C494 N493 1.376 . S
C494 C495 1.446 . S
C494 C517 1.391 . S
C495 C494 1.446 . S
C495 C496 1.339 . S
C495 H524 0.949 . S
C496 C495 1.339 . S
C496 C497 1.439 . S
C496 H525 0.950 . S
C497 N493 1.383 . S
C497 C496 1.439 . S
C497 C515 1.392 . S
N498 Co482 2.282 . S
N498 C501 1.332 . S
N498 C503 1.332 . S
C499 C500 1.386 . S
C499 C502 1.388 . S
C500 C499 1.386 . S
C500 C501 1.382 . S
C500 H526 0.950 . S
C501 N498 1.332 . S
C501 C500 1.382 . S
C501 H512 0.952 . S
C502 C499 1.388 . S
C502 C503 1.382 . S
C502 H527 0.950 . S
C503 N498 1.332 . S
C503 C502 1.382 . S
C503 H513 0.948 . S
N504 Co482 2.282 . S
N504 C508 1.332 . S
N504 C509 1.332 . S
C505 C506 1.388 . S
C505 C509 1.382 . S
C505 H528 0.950 . S
C506 C505 1.388 . S
C506 C507 1.386 . S
C507 C506 1.386 . S
C507 C508 1.382 . S
C507 H529 0.950 . S
C508 N504 1.332 . S
C508 C507 1.382 . S
C508 H510 0.952 . S
C509 N504 1.332 . S
C509 C505 1.382 . S
C509 H511 0.948 . S
H510 C508 0.952 . S
H511 C509 0.948 . S
H512 C501 0.952 . S
H513 C503 0.948 . S
C514 C480 1.395 . S
C514 C484 1.391 . S
C515 C477 1.389 . S
C515 C497 1.392 . S
C516 C487 1.392 . S
C516 C489 1.389 . S
C517 C492 1.395 . S
C517 C494 1.391 . S
H518 C478 0.951 . S
H519 C479 0.950 . S
H520 C485 0.949 . S
H521 C486 0.950 . S
H522 C490 0.951 . S
H523 C491 0.950 . S
H524 C495 0.949 . S
H525 C496 0.950 . S
H526 C500 0.950 . S
H527 C502 0.950 . S
H528 C505 0.950 . S
H529 C507 0.950 . S
C530 C531 1.443 . S
C530 N534 1.376 . S
C530 C568 1.389 . S
C531 C530 1.443 . S
C531 C532 1.340 . S
C531 H571 0.951 . S
C532 C531 1.340 . S
C532 C533 1.439 . S
C532 H572 0.950 . S
C533 C532 1.439 . S
C533 N534 1.374 . S
C533 C567 1.395 . S
N534 C530 1.376 . S
N534 C533 1.374 . S
N534 Co535 2.008 . S
Co535 N534 2.008 . S
Co535 N536 1.995 . S
Co535 N541 2.008 . S
Co535 N546 1.995 . S
Co535 N551 2.282 . S
Co535 N557 2.282 . S
N536 Co535 1.995 . S
N536 C537 1.376 . S
N536 C540 1.383 . S
C537 N536 1.376 . S
C537 C538 1.446 . S
C537 C567 1.391 . S
C538 C537 1.446 . S
C538 C539 1.339 . S
C538 H573 0.949 . S
C539 C538 1.339 . S
C539 C540 1.439 . S
C539 H574 0.950 . S
C540 N536 1.383 . S
C540 C539 1.439 . S
C540 C569 1.392 . S
N541 Co535 2.008 . S
N541 C542 1.376 . S
N541 C545 1.374 . S
C542 N541 1.376 . S
C542 C543 1.443 . S
C542 C569 1.389 . S
C543 C542 1.443 . S
C543 C544 1.340 . S
C543 H575 0.951 . S
C544 C543 1.340 . S
C544 C545 1.439 . S
C544 H576 0.950 . S
C545 N541 1.374 . S
C545 C544 1.439 . S
C545 C570 1.395 . S
N546 Co535 1.995 . S
N546 C547 1.376 . S
N546 C550 1.383 . S
C547 N546 1.376 . S
C547 C548 1.446 . S
C547 C570 1.391 . S
C548 C547 1.446 . S
C548 C549 1.339 . S
C548 H577 0.949 . S
C549 C548 1.339 . S
C549 C550 1.439 . S
C549 H578 0.950 . S
C550 N546 1.383 . S
C550 C549 1.439 . S
C550 C568 1.392 . S
N551 Co535 2.282 . S
N551 C554 1.332 . S
N551 C556 1.332 . S
C552 C553 1.386 . S
C552 C555 1.388 . S
C553 C552 1.386 . S
C553 C554 1.382 . S
C553 H579 0.950 . S
C554 N551 1.332 . S
C554 C553 1.382 . S
C554 H565 0.952 . S
C555 C552 1.388 . S
C555 C556 1.382 . S
C555 H580 0.950 . S
C556 N551 1.332 . S
C556 C555 1.382 . S
C556 H566 0.948 . S
N557 Co535 2.282 . S
N557 C561 1.332 . S
N557 C562 1.332 . S
C558 C559 1.388 . S
C558 C562 1.382 . S
C558 H581 0.950 . S
C559 C558 1.388 . S
C559 C560 1.386 . S
C560 C559 1.386 . S
C560 C561 1.382 . S
C560 H582 0.950 . S
C561 N557 1.332 . S
C561 C560 1.382 . S
C561 H563 0.952 . S
C562 N557 1.332 . S
C562 C558 1.382 . S
C562 H564 0.948 . S
H563 C561 0.952 . S
H564 C562 0.948 . S
H565 C554 0.952 . S
H566 C556 0.948 . S
C567 C533 1.395 . S
C567 C537 1.391 . S
C568 C530 1.389 . S
C568 C550 1.392 . S
C569 C540 1.392 . S
C569 C542 1.389 . S
C570 C545 1.395 . S
C570 C547 1.391 . S
H571 C531 0.951 . S
H572 C532 0.950 . S
H573 C538 0.949 . S
H574 C539 0.950 . S
H575 C543 0.951 . S
H576 C544 0.950 . S
H577 C548 0.949 . S
H578 C549 0.950 . S
H579 C553 0.950 . S
H580 C555 0.950 . S
H581 C558 0.950 . S
H582 C560 0.950 . S
C583 C584 1.443 . S
C583 N587 1.376 . S
C583 C621 1.389 . S
C584 C583 1.443 . S
C584 C585 1.340 . S
C584 H624 0.951 . S
C585 C584 1.340 . S
C585 C586 1.439 . S
C585 H625 0.950 . S
C586 C585 1.439 . S
C586 N587 1.374 . S
C586 C620 1.395 . S
N587 C583 1.376 . S
N587 C586 1.374 . S
N587 Co588 2.008 . S
Co588 N587 2.008 . S
Co588 N589 1.995 . S
Co588 N594 2.008 . S
Co588 N599 1.995 . S
Co588 N604 2.282 . S
Co588 N610 2.282 . S
N589 Co588 1.995 . S
N589 C590 1.376 . S
N589 C593 1.383 . S
C590 N589 1.376 . S
C590 C591 1.446 . S
C590 C620 1.391 . S
C591 C590 1.446 . S
C591 C592 1.339 . S
C591 H626 0.949 . S
C592 C591 1.339 . S
C592 C593 1.439 . S
C592 H627 0.950 . S
C593 N589 1.383 . S
C593 C592 1.439 . S
C593 C622 1.392 . S
N594 Co588 2.008 . S
N594 C595 1.376 . S
N594 C598 1.374 . S
C595 N594 1.376 . S
C595 C596 1.443 . S
C595 C622 1.389 . S
C596 C595 1.443 . S
C596 C597 1.340 . S
C596 H628 0.951 . S
C597 C596 1.340 . S
C597 C598 1.439 . S
C597 H629 0.950 . S
C598 N594 1.374 . S
C598 C597 1.439 . S
C598 C623 1.395 . S
N599 Co588 1.995 . S
N599 C600 1.376 . S
N599 C603 1.383 . S
C600 N599 1.376 . S
C600 C601 1.446 . S
C600 C623 1.391 . S
C601 C600 1.446 . S
C601 C602 1.339 . S
C601 H630 0.949 . S
C602 C601 1.339 . S
C602 C603 1.439 . S
C602 H631 0.950 . S
C603 N599 1.383 . S
C603 C602 1.439 . S
C603 C621 1.392 . S
N604 Co588 2.282 . S
N604 C607 1.332 . S
N604 C609 1.332 . S
C605 C606 1.386 . S
C605 C608 1.388 . S
C606 C605 1.386 . S
C606 C607 1.382 . S
C606 H632 0.950 . S
C607 N604 1.332 . S
C607 C606 1.382 . S
C607 H618 0.952 . S
C608 C605 1.388 . S
C608 C609 1.382 . S
C608 H633 0.950 . S
C609 N604 1.332 . S
C609 C608 1.382 . S
C609 H619 0.948 . S
N610 Co588 2.282 . S
N610 C614 1.332 . S
N610 C615 1.332 . S
C611 C612 1.388 . S
C611 C615 1.382 . S
C611 H634 0.950 . S
C612 C611 1.388 . S
C612 C613 1.386 . S
C613 C612 1.386 . S
C613 C614 1.382 . S
C613 H635 0.950 . S
C614 N610 1.332 . S
C614 C613 1.382 . S
C614 H616 0.952 . S
C615 N610 1.332 . S
C615 C611 1.382 . S
C615 H617 0.948 . S
H616 C614 0.952 . S
H617 C615 0.948 . S
H618 C607 0.952 . S
H619 C609 0.948 . S
C620 C586 1.395 . S
C620 C590 1.391 . S
C621 C583 1.389 . S
C621 C603 1.392 . S
C622 C593 1.392 . S
C622 C595 1.389 . S
C623 C598 1.395 . S
C623 C600 1.391 . S
H624 C584 0.951 . S
H625 C585 0.950 . S
H626 C591 0.949 . S
H627 C592 0.950 . S
H628 C596 0.951 . S
H629 C597 0.950 . S
H630 C601 0.949 . S
H631 C602 0.950 . S
H632 C606 0.950 . S
H633 C608 0.950 . S
H634 C611 0.950 . S
H635 C613 0.950 . S
C636 C637 1.443 . S
C636 N640 1.376 . S
C636 C674 1.389 . S
C637 C636 1.443 . S
C637 C638 1.340 . S
C637 H677 0.951 . S
C638 C637 1.340 . S
C638 C639 1.439 . S
C638 H678 0.950 . S
C639 C638 1.439 . S
C639 N640 1.374 . S
C639 C673 1.395 . S
N640 C636 1.376 . S
N640 C639 1.374 . S
N640 Co641 2.008 . S
Co641 N640 2.008 . S
Co641 N642 1.995 . S
Co641 N647 2.008 . S
Co641 N652 1.995 . S
Co641 N657 2.282 . S
Co641 N663 2.282 . S
N642 Co641 1.995 . S
N642 C643 1.376 . S
N642 C646 1.383 . S
C643 N642 1.376 . S
C643 C644 1.446 . S
C643 C673 1.391 . S
C644 C643 1.446 . S
C644 C645 1.339 . S
C644 H679 0.949 . S
C645 C644 1.339 . S
C645 C646 1.439 . S
C645 H680 0.950 . S
C646 N642 1.383 . S
C646 C645 1.439 . S
C646 C675 1.392 . S
N647 Co641 2.008 . S
N647 C648 1.376 . S
N647 C651 1.374 . S
C648 N647 1.376 . S
C648 C649 1.443 . S
C648 C675 1.389 . S
C649 C648 1.443 . S
C649 C650 1.340 . S
C649 H681 0.951 . S
C650 C649 1.340 . S
C650 C651 1.439 . S
C650 H682 0.950 . S
C651 N647 1.374 . S
C651 C650 1.439 . S
C651 C676 1.395 . S
N652 Co641 1.995 . S
N652 C653 1.376 . S
N652 C656 1.383 . S
C653 N652 1.376 . S
C653 C654 1.446 . S
C653 C676 1.391 . S
C654 C653 1.446 . S
C654 C655 1.339 . S
C654 H683 0.949 . S
C655 C654 1.339 . S
C655 C656 1.439 . S
C655 H684 0.950 . S
C656 N652 1.383 . S
C656 C655 1.439 . S
C656 C674 1.392 . S
N657 Co641 2.282 . S
N657 C660 1.332 . S
N657 C662 1.332 . S
C658 C659 1.386 . S
C658 C661 1.388 . S
C659 C658 1.386 . S
C659 C660 1.382 . S
C659 H685 0.950 . S
C660 N657 1.332 . S
C660 C659 1.382 . S
C660 H671 0.952 . S
C661 C658 1.388 . S
C661 C662 1.382 . S
C661 H686 0.950 . S
C662 N657 1.332 . S
C662 C661 1.382 . S
C662 H672 0.948 . S
N663 Co641 2.282 . S
N663 C667 1.332 . S
N663 C668 1.332 . S
C664 C665 1.388 . S
C664 C668 1.382 . S
C664 H687 0.950 . S
C665 C664 1.388 . S
C665 C666 1.386 . S
C666 C665 1.386 . S
C666 C667 1.382 . S
C666 H688 0.950 . S
C667 N663 1.332 . S
C667 C666 1.382 . S
C667 H669 0.952 . S
C668 N663 1.332 . S
C668 C664 1.382 . S
C668 H670 0.948 . S
H669 C667 0.952 . S
H670 C668 0.948 . S
H671 C660 0.952 . S
H672 C662 0.948 . S
C673 C639 1.395 . S
C673 C643 1.391 . S
C674 C636 1.389 . S
C674 C656 1.392 . S
C675 C646 1.392 . S
C675 C648 1.389 . S
C676 C651 1.395 . S
C676 C653 1.391 . S
H677 C637 0.951 . S
H678 C638 0.950 . S
H679 C644 0.949 . S
H680 C645 0.950 . S
H681 C649 0.951 . S
H682 C650 0.950 . S
H683 C654 0.949 . S
H684 C655 0.950 . S
H685 C659 0.950 . S
H686 C661 0.950 . S
H687 C664 0.950 . S
H688 C666 0.950 . S
C689 C690 1.443 . S
C689 N693 1.376 . S
C689 C727 1.389 . S
C690 C689 1.443 . S
C690 C691 1.340 . S
C690 H730 0.951 . S
C691 C690 1.340 . S
C691 C692 1.439 . S
C691 H731 0.950 . S
C692 C691 1.439 . S
C692 N693 1.374 . S
C692 C726 1.395 . S
N693 C689 1.376 . S
N693 C692 1.374 . S
N693 Co694 2.008 1_655 S
Co694 N693 2.008 1_455 S
Co694 N695 1.996 1_454 S
Co694 N700 2.008 1_554 S
Co694 N705 1.996 . S
Co694 N710 2.282 1_454 S
Co694 N716 2.282 . S
N695 Co694 1.996 1_656 S
N695 C696 1.389 . S
N695 C699 1.370 1_655 S
C696 N695 1.389 . S
C696 C697 1.446 . S
C696 C726 1.391 1_556 S
C697 C696 1.446 . S
C697 C698 1.339 1_655 S
C697 H732 0.949 . S
C698 C697 1.339 1_455 S
C698 C699 1.439 . S
C698 H733 0.950 . S
C699 N695 1.370 1_455 S
C699 C698 1.439 . S
C699 C728 1.392 . S
N700 Co694 2.008 1_556 S
N700 C701 1.376 . S
N700 C704 1.374 . S
C701 N700 1.376 . S
C701 C702 1.443 . S
C701 C728 1.389 . S
C702 C701 1.443 . S
C702 C703 1.340 . S
C702 H734 0.951 . S
C703 C702 1.340 . S
C703 C704 1.439 . S
C703 H735 0.950 . S
C704 N700 1.374 . S
C704 C703 1.439 . S
C704 C729 1.395 . S
N705 Co694 1.996 . S
N705 C706 1.396 . S
N705 C709 1.361 1_455 S
C706 N705 1.396 . S
C706 C707 1.446 . S
C706 C729 1.391 1_554 S
C707 C706 1.446 . S
C707 C708 1.339 1_455 S
C707 H736 0.949 . S
C708 C707 1.339 1_655 S
C708 C709 1.439 . S
C708 H737 0.950 . S
C709 N705 1.361 1_655 S
C709 C708 1.439 . S
C709 C727 1.392 . S
N710 Co694 2.282 1_656 S
N710 C713 1.332 1_655 S
N710 C715 1.332 . S
C711 C712 1.386 1_655 S
C711 C714 1.388 . S
C712 C711 1.386 1_455 S
C712 C713 1.382 . S
C712 H738 0.950 . S
C713 N710 1.332 1_455 S
C713 C712 1.382 . S
C713 H724 0.952 . S
C714 C711 1.388 . S
C714 C715 1.382 . S
C714 H739 0.950 . S
C715 N710 1.332 . S
C715 C714 1.382 . S
C715 H725 0.948 . S
N716 Co694 2.282 . S
N716 C720 1.332 1_455 S
N716 C721 1.332 . S
C717 C718 1.388 . S
C717 C721 1.382 . S
C717 H740 0.950 . S
C718 C717 1.388 . S
C718 C719 1.386 1_455 S
C719 C718 1.386 1_655 S
C719 C720 1.382 . S
C719 H741 0.950 . S
C720 N716 1.332 1_655 S
C720 C719 1.382 . S
C720 H722 0.952 . S
C721 N716 1.332 . S
C721 C717 1.382 . S
C721 H723 0.948 . S
H722 C720 0.952 . S
H723 C721 0.948 . S
H724 C713 0.952 . S
H725 C715 0.948 . S
C726 C692 1.395 . S
C726 C696 1.391 1_554 S
C727 C689 1.389 . S
C727 C709 1.392 . S
C728 C699 1.392 . S
C728 C701 1.389 . S
C729 C704 1.395 . S
C729 C706 1.391 1_556 S
H730 C690 0.951 . S
H731 C691 0.950 . S
H732 C697 0.949 . S
H733 C698 0.950 . S
H734 C702 0.951 . S
H735 C703 0.950 . S
H736 C707 0.949 . S
H737 C708 0.950 . S
H738 C712 0.950 . S
H739 C714 0.950 . S
H740 C717 0.950 . S
H741 C719 0.950 . S
C742 C743 1.443 . S
C742 N746 1.376 . S
C742 C780 1.389 . S
C743 C742 1.443 . S
C743 C744 1.340 . S
C743 H783 0.951 . S
C744 C743 1.340 . S
C744 C745 1.439 . S
C744 H784 0.950 . S
C745 C744 1.439 . S
C745 N746 1.374 . S
C745 C779 1.400 . S
N746 C742 1.376 . S
N746 C745 1.374 . S
N746 Co747 2.008 . S
Co747 N746 2.008 . S
Co747 N748 1.995 1_554 S
Co747 N753 2.008 1_554 S
Co747 N758 1.995 . S
Co747 N763 2.282 1_554 S
Co747 N769 2.282 . S
N748 Co747 1.995 1_556 S
N748 C749 1.376 . S
N748 C752 1.383 . S
C749 N748 1.376 . S
C749 C750 1.446 . S
C749 C779 1.386 1_556 S
C750 C749 1.446 . S
C750 C751 1.339 . S
C750 H785 0.949 . S
C751 C750 1.339 . S
C751 C752 1.439 . S
C751 H786 0.950 . S
C752 N748 1.383 . S
C752 C751 1.439 . S
C752 C781 1.392 . S
N753 Co747 2.008 1_556 S
N753 C754 1.376 . S
N753 C757 1.374 . S
C754 N753 1.376 . S
C754 C755 1.443 . S
C754 C781 1.389 . S
C755 C754 1.443 . S
C755 C756 1.340 . S
C755 H787 0.951 . S
C756 C755 1.340 . S
C756 C757 1.439 . S
C756 H788 0.950 . S
C757 N753 1.374 . S
C757 C756 1.439 . S
C757 C782 1.397 . S
N758 Co747 1.995 . S
N758 C759 1.376 . S
N758 C762 1.383 . S
C759 N758 1.376 . S
C759 C760 1.446 . S
C759 C782 1.389 1_554 S
C760 C759 1.446 . S
C760 C761 1.339 . S
C760 H789 0.949 . S
C761 C760 1.339 . S
C761 C762 1.439 . S
C761 H790 0.950 . S
C762 N758 1.383 . S
C762 C761 1.439 . S
C762 C780 1.392 . S
N763 Co747 2.282 1_556 S
N763 C766 1.332 . S
N763 C768 1.332 . S
C764 C765 1.386 . S
C764 C767 1.388 . S
C765 C764 1.386 . S
C765 C766 1.382 . S
C765 H791 0.950 . S
C766 N763 1.332 . S
C766 C765 1.382 . S
C766 H777 0.952 . S
C767 C764 1.388 . S
C767 C768 1.382 . S
C767 H792 0.950 . S
C768 N763 1.332 . S
C768 C767 1.382 . S
C768 H778 0.948 . S
N769 Co747 2.282 . S
N769 C773 1.332 . S
N769 C774 1.332 . S
C770 C771 1.388 . S
C770 C774 1.382 . S
C770 H793 0.950 . S
C771 C770 1.388 . S
C771 C772 1.386 . S
C772 C771 1.386 . S
C772 C773 1.382 . S
C772 H794 0.950 . S
C773 N769 1.332 . S
C773 C772 1.382 . S
C773 H775 0.952 . S
C774 N769 1.332 . S
C774 C770 1.382 . S
C774 H776 0.948 . S
H775 C773 0.952 . S
H776 C774 0.948 . S
H777 C766 0.952 . S
H778 C768 0.948 . S
C779 C745 1.400 . S
C779 C749 1.386 1_554 S
C780 C742 1.389 . S
C780 C762 1.392 . S
C781 C752 1.392 . S
C781 C754 1.389 . S
C782 C757 1.397 . S
C782 C759 1.389 1_556 S
H783 C743 0.951 . S
H784 C744 0.950 . S
H785 C750 0.949 . S
H786 C751 0.950 . S
H787 C755 0.951 . S
H788 C756 0.950 . S
H789 C760 0.949 . S
H790 C761 0.950 . S
H791 C765 0.950 . S
H792 C767 0.950 . S
H793 C770 0.950 . S
H794 C772 0.950 . S
C795 C796 1.443 . S
C795 N799 1.376 . S
C795 C833 1.389 . S
C796 C795 1.443 . S
C796 C797 1.340 . S
C796 H836 0.951 . S
C797 C796 1.340 . S
C797 C798 1.439 . S
C797 H837 0.950 . S
C798 C797 1.439 . S
C798 N799 1.374 . S
C798 C832 1.395 . S
N799 C795 1.376 . S
N799 C798 1.374 . S
N799 Co800 2.008 1_655 S
Co800 N799 2.008 1_455 S
Co800 N801 1.997 . S
Co800 N806 2.008 . S
Co800 N811 1.997 1_455 S
Co800 N816 2.282 1_455 S
Co800 N822 2.282 . S
N801 Co800 1.997 . S
N801 C802 1.339 1_455 S
N801 C805 1.418 . S
C802 N801 1.339 1_655 S
C802 C803 1.446 . S
C802 C832 1.391 . S
C803 C802 1.446 . S
C803 C804 1.339 1_655 S
C803 H838 0.949 . S
C804 C803 1.339 1_455 S
C804 C805 1.439 . S
C804 H839 0.950 . S
C805 N801 1.418 . S
C805 C804 1.439 . S
C805 C834 1.392 . S
N806 Co800 2.008 . S
N806 C807 1.376 . S
N806 C810 1.374 . S
C807 N806 1.376 . S
C807 C808 1.443 . S
C807 C834 1.389 . S
C808 C807 1.443 . S
C808 C809 1.340 . S
C808 H840 0.951 . S
C809 C808 1.340 . S
C809 C810 1.439 . S
C809 H841 0.950 . S
C810 N806 1.374 . S
C810 C809 1.439 . S
C810 C835 1.395 . S
N811 Co800 1.997 1_655 S
N811 C812 1.348 1_655 S
N811 C815 1.410 . S
C812 N811 1.348 1_455 S
C812 C813 1.446 . S
C812 C835 1.391 . S
C813 C812 1.446 . S
C813 C814 1.339 1_455 S
C813 H842 0.949 . S
C814 C813 1.339 1_655 S
C814 C815 1.439 . S
C814 H843 0.950 . S
C815 N811 1.410 . S
C815 C814 1.439 . S
C815 C833 1.392 . S
N816 Co800 2.282 1_655 S
N816 C819 1.332 1_655 S
N816 C821 1.332 . S
C817 C818 1.386 1_655 S
C817 C820 1.388 . S
C818 C817 1.386 1_455 S
C818 C819 1.382 . S
C818 H844 0.950 . S
C819 N816 1.332 1_455 S
C819 C818 1.382 . S
C819 H830 0.952 . S
C820 C817 1.388 . S
C820 C821 1.382 . S
C820 H845 0.950 . S
C821 N816 1.332 . S
C821 C820 1.382 . S
C821 H831 0.948 . S
N822 Co800 2.282 . S
N822 C826 1.332 1_455 S
N822 C827 1.332 . S
C823 C824 1.388 . S
C823 C827 1.382 . S
C823 H846 0.950 . S
C824 C823 1.388 . S
C824 C825 1.386 1_455 S
C825 C824 1.386 1_655 S
C825 C826 1.382 . S
C825 H847 0.950 . S
C826 N822 1.332 1_655 S
C826 C825 1.382 . S
C826 H828 0.952 . S
C827 N822 1.332 . S
C827 C823 1.382 . S
C827 H829 0.948 . S
H828 C826 0.952 . S
H829 C827 0.948 . S
H830 C819 0.952 . S
H831 C821 0.948 . S
C832 C798 1.395 . S
C832 C802 1.391 . S
C833 C795 1.389 . S
C833 C815 1.392 . S
C834 C805 1.392 . S
C834 C807 1.389 . S
C835 C810 1.395 . S
C835 C812 1.391 . S
H836 C796 0.951 . S
H837 C797 0.950 . S
H838 C803 0.949 . S
H839 C804 0.950 . S
H840 C808 0.951 . S
H841 C809 0.950 . S
H842 C813 0.949 . S
H843 C814 0.950 . S
H844 C818 0.950 . S
H845 C820 0.950 . S
H846 C823 0.950 . S
H847 C825 0.950 . S
H848 C866 0.951 . S
H849 C868 0.951 . S
H850 C870 0.950 . S
H851 C871 0.950 . S
H852 C873 0.950 . S
H853 C876 0.950 . S
H854 C877 0.950 . S
H855 C879 0.950 . S
H856 C880 0.921 1_545 S
H857 C881 0.951 . S
H858 C883 0.951 . S
H859 C885 0.950 . S
H860 C886 0.950 . S
H861 C888 0.950 . S
H862 C891 0.950 . S
H863 C892 0.950 . S
H864 C894 0.950 . S
H865 C895 0.924 1_565 S
C866 H848 0.951 . S
C866 C867 1.366 1_445 S
C866 C868 1.388 . S
C867 C866 1.366 1_665 S
C867 C871 1.385 . S
C868 H849 0.951 . S
C868 C866 1.388 . S
C868 C869 1.366 1_445 S
C869 C868 1.366 1_665 S
C869 C870 1.414 . S
C869 C872 1.499 . S
C870 H850 0.950 . S
C870 C869 1.414 . S
C870 C871 1.374 . S
C871 H851 0.950 . S
C871 C867 1.385 . S
C871 C870 1.374 . S
C872 C869 1.499 . S
C872 C873 1.373 1_565 S
C872 C874 1.389 1_655 S
C873 H852 0.950 . S
C873 C872 1.373 1_545 S
C873 C889 1.377 . S
C874 C872 1.389 1_455 S
C874 C875 1.524 . S
C874 C888 1.377 . S
C875 C874 1.524 . S
C875 C876 1.397 . S
C875 C880 1.363 . S
C876 H853 0.950 . S
C876 C875 1.397 . S
C876 C877 1.334 . S
C877 H854 0.950 . S
C877 C876 1.334 . S
C877 C878 1.287 . S
C878 C877 1.287 . S
C878 C879 1.524 . S
C878 H897 0.913 . S
C879 H855 0.950 . S
C879 C878 1.524 . S
C879 C880 1.415 . S
C880 H856 0.921 1_565 S
C880 C875 1.363 . S
C880 C879 1.415 . S
C881 H857 0.951 . S
C881 C882 1.366 1_565 S
C881 C883 1.388 . S
C882 C881 1.366 1_545 S
C882 C886 1.385 1_655 S
C883 H858 0.951 . S
C883 C881 1.388 . S
C883 C884 1.366 1_565 S
C884 C883 1.366 1_545 S
C884 C885 1.414 1_655 S
C884 C887 1.499 . S
C885 H859 0.950 . S
C885 C884 1.414 1_455 S
C885 C886 1.374 . S
C886 H860 0.950 . S
C886 C882 1.385 1_455 S
C886 C885 1.374 . S
C887 C884 1.499 . S
C887 C888 1.373 1_645 S
C887 C889 1.389 . S
C888 H861 0.950 . S
C888 C874 1.377 . S
C888 C887 1.373 1_465 S
C889 C873 1.377 . S
C889 C887 1.389 . S
C889 C890 1.524 . S
C890 C889 1.524 . S
C890 C891 1.397 . S
C890 C895 1.363 . S
C891 H862 0.950 . S
C891 C890 1.397 . S
C891 C892 1.334 . S
C892 H863 0.950 . S
C892 C891 1.334 . S
C892 C893 1.287 . S
C893 C892 1.287 . S
C893 C894 1.524 . S
C893 H896 0.999 . S
C894 H864 0.950 . S
C894 C893 1.524 . S
C894 C895 1.415 . S
C895 H865 0.924 1_545 S
C895 C890 1.363 . S
C895 C894 1.415 . S
H896 C893 0.999 . S
H897 C878 0.913 . S
H898 C916 0.951 . S
H899 C918 0.951 . S
H900 C920 0.950 . S
H901 C921 0.950 . S
H902 C923 0.950 . S
H903 C926 0.950 . S
H904 C927 0.950 . S
H905 C929 0.950 . S
H906 C930 0.950 . S
H907 C931 0.951 . S
H908 C933 0.951 . S
H909 C935 0.950 . S
H910 C936 0.950 . S
H911 C938 0.950 . S
H912 C941 0.950 . S
H913 C942 0.950 . S
H914 C944 0.950 . S
H915 C945 0.950 . S
C916 H898 0.951 . S
C916 C917 1.366 . S
C916 C918 1.388 . S
C917 C916 1.366 . S
C917 C921 1.385 . S
C918 H899 0.951 . S
C918 C916 1.388 . S
C918 C919 1.366 . S
C919 C918 1.366 . S
C919 C920 1.414 . S
C919 C922 1.499 . S
C920 H900 0.950 . S
C920 C919 1.414 . S
C920 C921 1.374 . S
C921 H901 0.950 . S
C921 C917 1.385 . S
C921 C920 1.374 . S
C922 C919 1.499 . S
C922 C923 1.373 . S
C922 C924 1.389 . S
C923 H902 0.950 . S
C923 C922 1.373 . S
C923 C939 1.377 . S
C924 C922 1.389 . S
C924 C925 1.524 . S
C924 C938 1.377 . S
C925 C924 1.524 . S
C925 C926 1.397 . S
C925 C930 1.363 . S
C926 H903 0.950 . S
C926 C925 1.397 . S
C926 C927 1.334 . S
C927 H904 0.950 . S
C927 C926 1.334 . S
C927 C928 1.287 . S
C928 C927 1.287 . S
C928 C929 1.524 . S
C928 H947 0.913 . S
C929 H905 0.950 . S
C929 C928 1.524 . S
C929 C930 1.415 . S
C930 H906 0.950 . S
C930 C925 1.363 . S
C930 C929 1.415 . S
C931 H907 0.951 . S
C931 C932 1.366 . S
C931 C933 1.388 . S
C932 C931 1.366 . S
C932 C936 1.385 . S
C933 H908 0.951 . S
C933 C931 1.388 . S
C933 C934 1.366 . S
C934 C933 1.366 . S
C934 C935 1.414 . S
C934 C937 1.499 . S
C935 H909 0.950 . S
C935 C934 1.414 . S
C935 C936 1.374 . S
C936 H910 0.950 . S
C936 C932 1.385 . S
C936 C935 1.374 . S
C937 C934 1.499 . S
C937 C938 1.373 . S
C937 C939 1.389 . S
C938 H911 0.950 . S
C938 C924 1.377 . S
C938 C937 1.373 . S
C939 C923 1.377 . S
C939 C937 1.389 . S
C939 C940 1.524 . S
C940 C939 1.524 . S
C940 C941 1.397 . S
C940 C945 1.363 . S
C941 H912 0.950 . S
C941 C940 1.397 . S
C941 C942 1.334 . S
C942 H913 0.950 . S
C942 C941 1.334 . S
C942 C943 1.287 . S
C943 C942 1.287 . S
C943 C944 1.524 . S
C943 H946 0.999 . S
C944 H914 0.950 . S
C944 C943 1.524 . S
C944 C945 1.415 . S
C945 H915 0.950 . S
C945 C940 1.363 . S
C945 C944 1.415 . S
H946 C943 0.999 . S
H947 C928 0.913 . S
H948 C966 0.951 . S
H949 C968 0.951 . S
H950 C970 0.950 . S
H951 C971 0.950 . S
H952 C973 0.950 . S
H953 C976 0.950 . S
H954 C977 0.950 . S
H955 C979 0.950 . S
H956 C980 0.950 . S
H957 C981 0.951 . S
H958 C983 0.951 . S
H959 C985 0.950 . S
H960 C986 0.950 . S
H961 C988 0.950 . S
H962 C991 0.950 . S
H963 C992 0.950 . S
H964 C994 0.950 . S
H965 C995 0.950 . S
C966 H948 0.951 . S
C966 C967 1.366 1_545 S
C966 C968 1.388 . S
C967 C966 1.366 1_565 S
C967 C971 1.385 . S
C968 H949 0.951 . S
C968 C966 1.388 . S
C968 C969 1.366 1_545 S
C969 C968 1.366 1_565 S
C969 C970 1.414 . S
C969 C972 1.499 . S
C970 H950 0.950 . S
C970 C969 1.414 . S
C970 C971 1.374 . S
C971 H951 0.950 . S
C971 C967 1.385 . S
C971 C970 1.374 . S
C972 C969 1.499 . S
C972 C973 1.373 . S
C972 C974 1.391 . S
C973 H952 0.950 . S
C973 C972 1.373 . S
C973 C989 1.377 . S
C974 C972 1.391 . S
C974 C975 1.524 . S
C974 C988 1.376 1_565 S
C975 C974 1.524 . S
C975 C976 1.413 . S
C975 C980 1.349 1_565 S
C976 H953 0.950 . S
C976 C975 1.413 . S
C976 C977 1.334 . S
C977 H954 0.950 . S
C977 C976 1.334 . S
C977 C978 1.287 . S
C978 C977 1.287 . S
C978 C979 1.524 1_565 S
C978 H997 0.913 . S
C979 H955 0.950 . S
C979 C978 1.524 1_545 S
C979 C980 1.415 . S
C980 H956 0.950 . S
C980 C975 1.349 1_545 S
C980 C979 1.415 . S
C981 H957 0.951 . S
C981 C982 1.366 1_565 S
C981 C983 1.388 . S
C982 C981 1.366 1_545 S
C982 C986 1.385 . S
C983 H958 0.951 . S
C983 C981 1.388 . S
C983 C984 1.366 1_565 S
C984 C983 1.366 1_545 S
C984 C985 1.414 . S
C984 C987 1.499 . S
C985 H959 0.950 . S
C985 C984 1.414 . S
C985 C986 1.374 . S
C986 H960 0.950 . S
C986 C982 1.385 . S
C986 C985 1.374 . S
C987 C984 1.499 . S
C987 C988 1.373 . S
C987 C989 1.389 1_545 S
C988 H961 0.950 . S
C988 C974 1.376 1_545 S
C988 C987 1.373 . S
C989 C973 1.377 . S
C989 C987 1.389 1_565 S
C989 C990 1.524 . S
C990 C989 1.524 . S
C990 C991 1.397 1_565 S
C990 C995 1.363 . S
C991 H962 0.950 . S
C991 C990 1.397 1_545 S
C991 C992 1.334 . S
C992 H963 0.950 . S
C992 C991 1.334 . S
C992 C993 1.287 . S
C993 C992 1.287 . S
C993 C994 1.524 1_545 S
C993 H996 0.999 . S
C994 H964 0.950 . S
C994 C993 1.524 1_565 S
C994 C995 1.415 . S
C995 H965 0.950 . S
C995 C990 1.363 . S
C995 C994 1.415 . S
H996 C993 0.999 . S
H997 C978 0.913 . S
H998 C1016 0.951 . S
H999 C1018 0.951 . S
H1000 C1020 0.950 . S
H1001 C1021 0.950 . S
H1002 C1023 0.946 1_556 S
H1003 C1026 0.950 . S
H1004 C1027 0.950 . S
H1005 C1029 0.950 . S
H1006 C1030 0.950 1_554 S
H1007 C1031 0.951 . S
H1008 C1033 0.951 . S
H1009 C1035 0.950 . S
H1010 C1036 0.950 . S
H1011 C1038 0.950 . S
H1012 C1041 0.950 . S
H1013 C1042 0.950 . S
H1014 C1044 0.950 . S
H1015 C1045 0.950 . S
C1016 H998 0.951 . S
C1016 C1017 1.366 . S
C1016 C1018 1.388 . S
C1017 C1016 1.366 . S
C1017 C1021 1.385 . S
C1018 H999 0.951 . S
C1018 C1016 1.388 . S
C1018 C1019 1.366 . S
C1019 C1018 1.366 . S
C1019 C1020 1.414 . S
C1019 C1022 1.499 . S
C1020 H1000 0.950 . S
C1020 C1019 1.414 . S
C1020 C1021 1.374 . S
C1021 H1001 0.950 . S
C1021 C1017 1.385 . S
C1021 C1020 1.374 . S
C1022 C1019 1.499 . S
C1022 C1023 1.370 1_556 S
C1022 C1024 1.389 1_556 S
C1023 H1002 0.946 1_554 S
C1023 C1022 1.370 1_554 S
C1023 C1039 1.384 . S
C1024 C1022 1.389 1_554 S
C1024 C1025 1.524 1_554 S
C1024 C1038 1.377 . S
C1025 C1024 1.524 1_556 S
C1025 C1026 1.397 . S
C1025 C1030 1.363 . S
C1026 H1003 0.950 . S
C1026 C1025 1.397 . S
C1026 C1027 1.334 . S
C1027 H1004 0.950 . S
C1027 C1026 1.334 . S
C1027 C1028 1.287 . S
C1028 C1027 1.287 . S
C1028 C1029 1.524 . S
C1028 H1047 0.913 . S
C1029 H1005 0.950 . S
C1029 C1028 1.524 . S
C1029 C1030 1.415 . S
C1030 H1006 0.950 1_556 S
C1030 C1025 1.363 . S
C1030 C1029 1.415 . S
C1031 H1007 0.951 . S
C1031 C1032 1.366 . S
C1031 C1033 1.388 . S
C1032 C1031 1.366 . S
C1032 C1036 1.385 . S
C1033 H1008 0.951 . S
C1033 C1031 1.388 . S
C1033 C1034 1.366 . S
C1034 C1033 1.366 . S
C1034 C1035 1.414 . S
C1034 C1037 1.499 . S
C1035 H1009 0.950 . S
C1035 C1034 1.414 . S
C1035 C1036 1.374 . S
C1036 H1010 0.950 . S
C1036 C1032 1.385 . S
C1036 C1035 1.374 . S
C1037 C1034 1.499 . S
C1037 C1038 1.373 . S
C1037 C1039 1.389 . S
C1038 H1011 0.950 . S
C1038 C1024 1.377 . S
C1038 C1037 1.373 . S
C1039 C1023 1.384 . S
C1039 C1037 1.389 . S
C1039 C1040 1.524 . S
C1040 C1039 1.524 . S
C1040 C1041 1.397 . S
C1040 C1045 1.363 . S
C1041 H1012 0.950 . S
C1041 C1040 1.397 . S
C1041 C1042 1.334 . S
C1042 H1013 0.950 . S
C1042 C1041 1.334 . S
C1042 C1043 1.287 . S
C1043 C1042 1.287 . S
C1043 C1044 1.524 . S
C1043 H1046 0.999 . S
C1044 H1014 0.950 . S
C1044 C1043 1.524 . S
C1044 C1045 1.415 . S
C1045 H1015 0.950 . S
C1045 C1040 1.363 . S
C1045 C1044 1.415 . S
H1046 C1043 0.999 . S
H1047 C1028 0.913 . S
H1048 C1066 0.951 . S
H1049 C1068 0.951 . S
H1050 C1070 0.950 . S
H1051 C1071 0.950 . S
H1052 C1073 0.950 . S
H1053 C1076 0.950 . S
H1054 C1077 0.950 . S
H1055 C1079 0.953 . S
H1056 C1080 0.950 . S
H1057 C1081 0.951 . S
H1058 C1083 0.951 . S
H1059 C1085 0.950 . S
H1060 C1086 0.950 . S
H1061 C1088 0.942 1_655 S
H1062 C1091 0.950 . S
H1063 C1092 0.950 . S
H1064 C1094 0.950 . S
H1065 C1095 0.950 1_655 S
C1066 H1048 0.951 . S
C1066 C1067 1.366 . S
C1066 C1068 1.388 . S
C1067 C1066 1.366 . S
C1067 C1071 1.385 1_465 S
C1068 H1049 0.951 . S
C1068 C1066 1.388 . S
C1068 C1069 1.366 . S
C1069 C1068 1.366 . S
C1069 C1070 1.414 1_465 S
C1069 C1072 1.499 . S
C1070 H1050 0.950 . S
C1070 C1069 1.414 1_645 S
C1070 C1071 1.374 . S
C1071 H1051 0.950 . S
C1071 C1067 1.385 1_645 S
C1071 C1070 1.374 . S
C1072 C1069 1.499 . S
C1072 C1073 1.373 1_565 S
C1072 C1074 1.393 . S
C1073 H1052 0.950 . S
C1073 C1072 1.373 1_545 S
C1073 C1089 1.377 . S
C1074 C1072 1.393 . S
C1074 C1075 1.517 1_455 S
C1074 C1088 1.379 . S
C1075 C1074 1.517 1_655 S
C1075 C1076 1.397 . S
C1075 C1080 1.363 1_655 S
C1076 H1053 0.950 . S
C1076 C1075 1.397 . S
C1076 C1077 1.334 . S
C1077 H1054 0.950 . S
C1077 C1076 1.334 . S
C1077 C1078 1.287 . S
C1078 C1077 1.287 . S
C1078 C1079 1.524 . S
C1078 H1097 0.913 . S
C1079 H1055 0.953 . S
C1079 C1078 1.524 . S
C1079 C1080 1.415 1_655 S
C1080 H1056 0.950 . S
C1080 C1075 1.363 1_455 S
C1080 C1079 1.415 1_455 S
C1081 H1057 0.951 . S
C1081 C1082 1.366 1_655 S
C1081 C1083 1.388 . S
C1082 C1081 1.366 1_455 S
C1082 C1086 1.385 1_545 S
C1083 H1058 0.951 . S
C1083 C1081 1.388 . S
C1083 C1084 1.366 1_655 S
C1084 C1083 1.366 1_455 S
C1084 C1085 1.414 1_545 S
C1084 C1087 1.499 . S
C1085 H1059 0.950 . S
C1085 C1084 1.414 1_565 S
C1085 C1086 1.374 . S
C1086 H1060 0.950 . S
C1086 C1082 1.385 1_565 S
C1086 C1085 1.374 . S
C1087 C1084 1.499 . S
C1087 C1088 1.373 1_545 S
C1087 C1089 1.389 . S
C1088 H1061 0.942 1_455 S
C1088 C1074 1.379 . S
C1088 C1087 1.373 1_565 S
C1089 C1073 1.377 . S
C1089 C1087 1.389 . S
C1089 C1090 1.524 . S
C1090 C1089 1.524 . S
C1090 C1091 1.397 . S
C1090 C1095 1.363 . S
C1091 H1062 0.950 . S
C1091 C1090 1.397 . S
C1091 C1092 1.334 . S
C1092 H1063 0.950 . S
C1092 C1091 1.334 . S
C1092 C1093 1.287 . S
C1093 C1092 1.287 . S
C1093 C1094 1.524 . S
C1093 H1096 0.999 . S
C1094 H1064 0.950 . S
C1094 C1093 1.524 . S
C1094 C1095 1.415 . S
C1095 H1065 0.950 1_455 S
C1095 C1090 1.363 . S
C1095 C1094 1.415 . S
H1096 C1093 0.999 . S
H1097 C1078 0.913 . S
H1098 C1116 0.951 . S
H1099 C1118 0.951 . S
H1100 C1120 0.950 . S
H1101 C1121 0.950 . S
H1102 C1123 0.950 . S
H1103 C1126 0.950 . S
H1104 C1127 0.950 . S
H1105 C1129 0.950 . S
H1106 C1130 0.950 . S
H1107 C1131 0.951 . S
H1108 C1133 0.951 . S
H1109 C1135 0.950 . S
H1110 C1136 0.950 . S
H1111 C1138 0.950 . S
H1112 C1141 0.950 . S
H1113 C1142 0.950 . S
H1114 C1144 0.950 . S
H1115 C1145 0.950 . S
C1116 H1098 0.951 . S
C1116 C1117 1.366 . S
C1116 C1118 1.388 . S
C1117 C1116 1.366 . S
C1117 C1121 1.385 . S
C1118 H1099 0.951 . S
C1118 C1116 1.388 . S
C1118 C1119 1.366 . S
C1119 C1118 1.366 . S
C1119 C1120 1.414 . S
C1119 C1122 1.499 . S
C1120 H1100 0.950 . S
C1120 C1119 1.414 . S
C1120 C1121 1.374 . S
C1121 H1101 0.950 . S
C1121 C1117 1.385 . S
C1121 C1120 1.374 . S
C1122 C1119 1.499 . S
C1122 C1123 1.373 . S
C1122 C1124 1.389 . S
C1123 H1102 0.950 . S
C1123 C1122 1.373 . S
C1123 C1139 1.377 . S
C1124 C1122 1.389 . S
C1124 C1125 1.524 . S
C1124 C1138 1.377 . S
C1125 C1124 1.524 . S
C1125 C1126 1.397 . S
C1125 C1130 1.363 . S
C1126 H1103 0.950 . S
C1126 C1125 1.397 . S
C1126 C1127 1.334 . S
C1127 H1104 0.950 . S
C1127 C1126 1.334 . S
C1127 C1128 1.287 . S
C1128 C1127 1.287 . S
C1128 C1129 1.524 . S
C1128 H1147 0.913 . S
C1129 H1105 0.950 . S
C1129 C1128 1.524 . S
C1129 C1130 1.415 . S
C1130 H1106 0.950 . S
C1130 C1125 1.363 . S
C1130 C1129 1.415 . S
C1131 H1107 0.951 . S
C1131 C1132 1.366 . S
C1131 C1133 1.388 . S
C1132 C1131 1.366 . S
C1132 C1136 1.385 . S
C1133 H1108 0.951 . S
C1133 C1131 1.388 . S
C1133 C1134 1.366 . S
C1134 C1133 1.366 . S
C1134 C1135 1.414 . S
C1134 C1137 1.499 . S
C1135 H1109 0.950 . S
C1135 C1134 1.414 . S
C1135 C1136 1.374 . S
C1136 H1110 0.950 . S
C1136 C1132 1.385 . S
C1136 C1135 1.374 . S
C1137 C1134 1.499 . S
C1137 C1138 1.373 . S
C1137 C1139 1.389 . S
C1138 H1111 0.950 . S
C1138 C1124 1.377 . S
C1138 C1137 1.373 . S
C1139 C1123 1.377 . S
C1139 C1137 1.389 . S
C1139 C1140 1.524 . S
C1140 C1139 1.524 . S
C1140 C1141 1.397 . S
C1140 C1145 1.363 . S
C1141 H1112 0.950 . S
C1141 C1140 1.397 . S
C1141 C1142 1.334 . S
C1142 H1113 0.950 . S
C1142 C1141 1.334 . S
C1142 C1143 1.287 . S
C1143 C1142 1.287 . S
C1143 C1144 1.524 . S
C1143 H1146 0.999 . S
C1144 H1114 0.950 . S
C1144 C1143 1.524 . S
C1144 C1145 1.415 . S
C1145 H1115 0.950 . S
C1145 C1140 1.363 . S
C1145 C1144 1.415 . S
H1146 C1143 0.999 . S
H1147 C1128 0.913 . S
H1148 C1166 0.951 . S
H1149 C1168 0.951 . S
H1150 C1170 0.950 . S
H1151 C1171 0.950 . S
H1152 C1173 0.950 . S
H1153 C1176 0.950 . S
H1154 C1177 0.950 . S
H1155 C1179 0.950 . S
H1156 C1180 0.950 . S
H1157 C1181 0.951 . S
H1158 C1183 0.951 . S
H1159 C1185 0.950 . S
H1160 C1186 0.950 . S
H1161 C1188 0.950 . S
H1162 C1191 0.950 . S
H1163 C1192 0.950 . S
H1164 C1194 0.950 . S
H1165 C1195 0.950 . S
C1166 H1148 0.951 . S
C1166 C1167 1.366 1_565 S
C1166 C1168 1.388 . S
C1167 C1166 1.366 1_545 S
C1167 C1171 1.385 . S
C1168 H1149 0.951 . S
C1168 C1166 1.388 . S
C1168 C1169 1.366 1_565 S
C1169 C1168 1.366 1_545 S
C1169 C1170 1.414 . S
C1169 C1172 1.499 . S
C1170 H1150 0.950 . S
C1170 C1169 1.414 . S
C1170 C1171 1.374 . S
C1171 H1151 0.950 . S
C1171 C1167 1.385 . S
C1171 C1170 1.374 . S
C1172 C1169 1.499 . S
C1172 C1173 1.373 . S
C1172 C1174 1.389 1_545 S
C1173 H1152 0.950 . S
C1173 C1172 1.373 . S
C1173 C1189 1.377 . S
C1174 C1172 1.389 1_565 S
C1174 C1175 1.524 . S
C1174 C1188 1.377 . S
C1175 C1174 1.524 . S
C1175 C1176 1.397 . S
C1175 C1180 1.363 . S
C1176 H1153 0.950 . S
C1176 C1175 1.397 . S
C1176 C1177 1.334 . S
C1177 H1154 0.950 . S
C1177 C1176 1.334 . S
C1177 C1178 1.287 . S
C1178 C1177 1.287 . S
C1178 C1179 1.524 . S
C1178 H1197 0.913 . S
C1179 H1155 0.950 . S
C1179 C1178 1.524 . S
C1179 C1180 1.415 . S
C1180 H1156 0.950 . S
C1180 C1175 1.363 . S
C1180 C1179 1.415 . S
C1181 H1157 0.951 . S
C1181 C1182 1.366 1_545 S
C1181 C1183 1.388 . S
C1182 C1181 1.366 1_565 S
C1182 C1186 1.385 . S
C1183 H1158 0.951 . S
C1183 C1181 1.388 . S
C1183 C1184 1.366 1_545 S
C1184 C1183 1.366 1_565 S
C1184 C1185 1.414 . S
C1184 C1187 1.499 . S
C1185 H1159 0.950 . S
C1185 C1184 1.414 . S
C1185 C1186 1.374 . S
C1186 H1160 0.950 . S
C1186 C1182 1.385 . S
C1186 C1185 1.374 . S
C1187 C1184 1.499 . S
C1187 C1188 1.369 . S
C1187 C1189 1.393 1_565 S
C1188 H1161 0.950 . S
C1188 C1174 1.377 . S
C1188 C1187 1.369 . S
C1189 C1173 1.377 . S
C1189 C1187 1.393 1_545 S
C1189 C1190 1.524 . S
C1190 C1189 1.524 . S
C1190 C1191 1.397 . S
C1190 C1195 1.363 . S
C1191 H1162 0.950 . S
C1191 C1190 1.397 . S
C1191 C1192 1.334 . S
C1192 H1163 0.950 . S
C1192 C1191 1.334 . S
C1192 C1193 1.287 . S
C1193 C1192 1.287 . S
C1193 C1194 1.524 . S
C1193 H1196 0.999 . S
C1194 H1164 0.950 . S
C1194 C1193 1.524 . S
C1194 C1195 1.415 . S
C1195 H1165 0.950 . S
C1195 C1190 1.363 . S
C1195 C1194 1.415 . S
H1196 C1193 0.999 . S
H1197 C1178 0.913 . S
H1198 C1216 0.951 . S
H1199 C1218 0.951 . S
H1200 C1220 0.950 . S
H1201 C1221 0.950 . S
H1202 C1223 0.950 1_554 S
H1203 C1226 0.950 . S
H1204 C1227 0.950 . S
H1205 C1229 0.950 . S
H1206 C1230 0.950 1_556 S
H1207 C1231 0.951 . S
H1208 C1233 0.951 . S
H1209 C1235 0.950 . S
H1210 C1236 0.950 . S
H1211 C1238 0.950 . S
H1212 C1241 0.950 . S
H1213 C1242 0.950 . S
H1214 C1244 0.950 . S
H1215 C1245 0.950 . S
C1216 H1198 0.951 . S
C1216 C1217 1.366 . S
C1216 C1218 1.388 . S
C1217 C1216 1.366 . S
C1217 C1221 1.385 . S
C1218 H1199 0.951 . S
C1218 C1216 1.388 . S
C1218 C1219 1.366 . S
C1219 C1218 1.366 . S
C1219 C1220 1.414 . S
C1219 C1222 1.499 . S
C1220 H1200 0.950 . S
C1220 C1219 1.414 . S
C1220 C1221 1.374 . S
C1221 H1201 0.950 . S
C1221 C1217 1.385 . S
C1221 C1220 1.374 . S
C1222 C1219 1.499 . S
C1222 C1223 1.373 1_554 S
C1222 C1224 1.408 . S
C1223 H1202 0.950 1_556 S
C1223 C1222 1.373 1_556 S
C1223 C1239 1.377 . S
C1224 C1222 1.408 . S
C1224 C1225 1.543 . S
C1224 C1238 1.338 1_554 S
C1225 C1224 1.543 . S
C1225 C1226 1.397 . S
C1225 C1230 1.363 . S
C1226 H1203 0.950 . S
C1226 C1225 1.397 . S
C1226 C1227 1.334 . S
C1227 H1204 0.950 . S
C1227 C1226 1.334 . S
C1227 C1228 1.287 . S
C1228 C1227 1.287 . S
C1228 C1229 1.524 . S
C1228 H1247 0.913 . S
C1229 H1205 0.950 . S
C1229 C1228 1.524 . S
C1229 C1230 1.415 . S
C1230 H1206 0.950 1_554 S
C1230 C1225 1.363 . S
C1230 C1229 1.415 . S
C1231 H1207 0.951 . S
C1231 C1232 1.366 . S
C1231 C1233 1.388 . S
C1232 C1231 1.366 . S
C1232 C1236 1.385 . S
C1233 H1208 0.951 . S
C1233 C1231 1.388 . S
C1233 C1234 1.366 . S
C1234 C1233 1.366 . S
C1234 C1235 1.414 . S
C1234 C1237 1.499 . S
C1235 H1209 0.950 . S
C1235 C1234 1.414 . S
C1235 C1236 1.374 . S
C1236 H1210 0.950 . S
C1236 C1232 1.385 . S
C1236 C1235 1.374 . S
C1237 C1234 1.499 . S
C1237 C1238 1.373 . S
C1237 C1239 1.389 . S
C1238 H1211 0.950 . S
C1238 C1224 1.338 1_556 S
C1238 C1237 1.373 . S
C1239 C1223 1.377 . S
C1239 C1237 1.389 . S
C1239 C1240 1.524 . S
C1240 C1239 1.524 . S
C1240 C1241 1.397 . S
C1240 C1245 1.363 . S
C1241 H1212 0.950 . S
C1241 C1240 1.397 . S
C1241 C1242 1.334 . S
C1242 H1213 0.950 . S
C1242 C1241 1.334 . S
C1242 C1243 1.287 . S
C1243 C1242 1.287 . S
C1243 C1244 1.524 . S
C1243 H1246 0.999 . S
C1244 H1214 0.950 . S
C1244 C1243 1.524 . S
C1244 C1245 1.415 . S
C1245 H1215 0.950 . S
C1245 C1240 1.363 . S
C1245 C1244 1.415 . S
H1246 C1243 0.999 . S
H1247 C1228 0.913 . S
H1248 C1266 0.951 . S
H1249 C1268 0.951 . S
H1250 C1270 0.950 . S
H1251 C1271 0.950 . S
H1252 C1273 0.950 . S
H1253 C1276 0.950 . S
H1254 C1277 0.950 . S
H1255 C1279 0.950 . S
H1256 C1280 0.950 . S
H1257 C1281 0.951 . S
H1258 C1283 0.951 . S
H1259 C1285 0.950 . S
H1260 C1286 0.950 . S
H1261 C1288 0.950 . S
H1262 C1291 0.950 . S
H1263 C1292 0.950 . S
H1264 C1294 0.950 . S
H1265 C1295 0.950 . S
C1266 H1248 0.951 . S
C1266 C1267 1.366 . S
C1266 C1268 1.388 . S
C1267 C1266 1.366 . S
C1267 C1271 1.385 . S
C1268 H1249 0.951 . S
C1268 C1266 1.388 . S
C1268 C1269 1.366 . S
C1269 C1268 1.366 . S
C1269 C1270 1.414 . S
C1269 C1272 1.499 . S
C1270 H1250 0.950 . S
C1270 C1269 1.414 . S
C1270 C1271 1.374 . S
C1271 H1251 0.950 . S
C1271 C1267 1.385 . S
C1271 C1270 1.374 . S
C1272 C1269 1.499 . S
C1272 C1273 1.373 . S
C1272 C1274 1.389 . S
C1273 H1252 0.950 . S
C1273 C1272 1.373 . S
C1273 C1289 1.377 . S
C1274 C1272 1.389 . S
C1274 C1275 1.524 . S
C1274 C1288 1.377 . S
C1275 C1274 1.524 . S
C1275 C1276 1.397 . S
C1275 C1280 1.363 . S
C1276 H1253 0.950 . S
C1276 C1275 1.397 . S
C1276 C1277 1.334 . S
C1277 H1254 0.950 . S
C1277 C1276 1.334 . S
C1277 C1278 1.287 . S
C1278 C1277 1.287 . S
C1278 C1279 1.524 . S
C1278 H1297 0.913 . S
C1279 H1255 0.950 . S
C1279 C1278 1.524 . S
C1279 C1280 1.415 . S
C1280 H1256 0.950 . S
C1280 C1275 1.363 . S
C1280 C1279 1.415 . S
C1281 H1257 0.951 . S
C1281 C1282 1.366 . S
C1281 C1283 1.388 . S
C1282 C1281 1.366 . S
C1282 C1286 1.385 . S
C1283 H1258 0.951 . S
C1283 C1281 1.388 . S
C1283 C1284 1.366 . S
C1284 C1283 1.366 . S
C1284 C1285 1.414 . S
C1284 C1287 1.499 . S
C1285 H1259 0.950 . S
C1285 C1284 1.414 . S
C1285 C1286 1.374 . S
C1286 H1260 0.950 . S
C1286 C1282 1.385 . S
C1286 C1285 1.374 . S
C1287 C1284 1.499 . S
C1287 C1288 1.373 . S
C1287 C1289 1.389 . S
C1288 H1261 0.950 . S
C1288 C1274 1.377 . S
C1288 C1287 1.373 . S
C1289 C1273 1.377 . S
C1289 C1287 1.389 . S
C1289 C1290 1.524 . S
C1290 C1289 1.524 . S
C1290 C1291 1.397 . S
C1290 C1295 1.363 . S
C1291 H1262 0.950 . S
C1291 C1290 1.397 . S
C1291 C1292 1.334 . S
C1292 H1263 0.950 . S
C1292 C1291 1.334 . S
C1292 C1293 1.287 . S
C1293 C1292 1.287 . S
C1293 C1294 1.524 . S
C1293 H1296 0.999 . S
C1294 H1264 0.950 . S
C1294 C1293 1.524 . S
C1294 C1295 1.415 . S
C1295 H1265 0.950 . S
C1295 C1290 1.363 . S
C1295 C1294 1.415 . S
H1296 C1293 0.999 . S
H1297 C1278 0.913 . S
H1298 C1316 0.951 . S
H1299 C1318 0.951 . S
H1300 C1320 0.950 . S
H1301 C1321 0.950 . S
H1302 C1323 0.950 . S
H1303 C1326 0.950 . S
H1304 C1327 0.950 . S
H1305 C1329 0.950 . S
H1306 C1330 0.950 . S
H1307 C1331 0.951 . S
H1308 C1333 0.951 . S
H1309 C1335 0.950 . S
H1310 C1336 0.950 . S
H1311 C1338 0.950 . S
H1312 C1341 0.950 . S
H1313 C1342 0.950 . S
H1314 C1344 0.950 . S
H1315 C1345 0.950 . S
C1316 H1298 0.951 . S
C1316 C1317 1.366 . S
C1316 C1318 1.388 . S
C1317 C1316 1.366 . S
C1317 C1321 1.385 . S
C1318 H1299 0.951 . S
C1318 C1316 1.388 . S
C1318 C1319 1.366 . S
C1319 C1318 1.366 . S
C1319 C1320 1.414 . S
C1319 C1322 1.499 . S
C1320 H1300 0.950 . S
C1320 C1319 1.414 . S
C1320 C1321 1.374 . S
C1321 H1301 0.950 . S
C1321 C1317 1.385 . S
C1321 C1320 1.374 . S
C1322 C1319 1.499 . S
C1322 C1323 1.373 . S
C1322 C1324 1.389 . S
C1323 H1302 0.950 . S
C1323 C1322 1.373 . S
C1323 C1339 1.377 1_556 S
C1324 C1322 1.389 . S
C1324 C1325 1.524 . S
C1324 C1338 1.377 1_556 S
C1325 C1324 1.524 . S
C1325 C1326 1.397 . S
C1325 C1330 1.363 . S
C1326 H1303 0.950 . S
C1326 C1325 1.397 . S
C1326 C1327 1.334 . S
C1327 H1304 0.950 . S
C1327 C1326 1.334 . S
C1327 C1328 1.287 . S
C1328 C1327 1.287 . S
C1328 C1329 1.524 . S
C1328 H1347 0.913 . S
C1329 H1305 0.950 . S
C1329 C1328 1.524 . S
C1329 C1330 1.415 . S
C1330 H1306 0.950 . S
C1330 C1325 1.363 . S
C1330 C1329 1.415 . S
C1331 H1307 0.951 . S
C1331 C1332 1.366 . S
C1331 C1333 1.388 . S
C1332 C1331 1.366 . S
C1332 C1336 1.385 . S
C1333 H1308 0.951 . S
C1333 C1331 1.388 . S
C1333 C1334 1.366 . S
C1334 C1333 1.366 . S
C1334 C1335 1.414 . S
C1334 C1337 1.499 . S
C1335 H1309 0.950 . S
C1335 C1334 1.414 . S
C1335 C1336 1.374 . S
C1336 H1310 0.950 . S
C1336 C1332 1.385 . S
C1336 C1335 1.374 . S
C1337 C1334 1.499 . S
C1337 C1338 1.373 . S
C1337 C1339 1.389 . S
C1338 H1311 0.950 . S
C1338 C1324 1.377 1_554 S
C1338 C1337 1.373 . S
C1339 C1323 1.377 1_554 S
C1339 C1337 1.389 . S
C1339 C1340 1.524 . S
C1340 C1339 1.524 . S
C1340 C1341 1.397 . S
C1340 C1345 1.363 . S
C1341 H1312 0.950 . S
C1341 C1340 1.397 . S
C1341 C1342 1.334 . S
C1342 H1313 0.950 . S
C1342 C1341 1.334 . S
C1342 C1343 1.287 . S
C1343 C1342 1.287 . S
C1343 C1344 1.524 . S
C1343 H1346 0.999 . S
C1344 H1314 0.950 . S
C1344 C1343 1.524 . S
C1344 C1345 1.415 . S
C1345 H1315 0.950 . S
C1345 C1340 1.363 . S
C1345 C1344 1.415 . S
H1346 C1343 0.999 . S
H1347 C1328 0.913 . S
H1348 C1366 0.951 . S
H1349 C1368 0.951 . S
H1350 C1370 0.950 . S
H1351 C1371 0.950 . S
H1352 C1373 0.939 1_655 S
H1353 C1376 0.950 . S
H1354 C1377 0.950 . S
H1355 C1379 0.950 . S
H1356 C1380 0.950 . S
H1357 C1381 0.951 . S
H1358 C1383 0.951 . S
H1359 C1385 0.950 . S
H1360 C1386 0.950 . S
H1361 C1388 0.950 . S
H1362 C1391 0.950 . S
H1363 C1392 0.950 . S
H1364 C1394 0.950 . S
H1365 C1395 0.950 1_455 S
C1366 H1348 0.951 . S
C1366 C1367 1.366 1_655 S
C1366 C1368 1.388 . S
C1367 C1366 1.366 1_455 S
C1367 C1371 1.385 . S
C1368 H1349 0.951 . S
C1368 C1366 1.388 . S
C1368 C1369 1.366 1_655 S
C1369 C1368 1.366 1_455 S
C1369 C1370 1.414 . S
C1369 C1372 1.499 . S
C1370 H1350 0.950 . S
C1370 C1369 1.414 . S
C1370 C1371 1.374 . S
C1371 H1351 0.950 . S
C1371 C1367 1.385 . S
C1371 C1370 1.374 . S
C1372 C1369 1.499 . S
C1372 C1373 1.386 . S
C1372 C1374 1.389 . S
C1373 H1352 0.939 1_455 S
C1373 C1372 1.386 . S
C1373 C1389 1.377 1_455 S
C1374 C1372 1.389 . S
C1374 C1375 1.524 . S
C1374 C1388 1.377 . S
C1375 C1374 1.524 . S
C1375 C1376 1.397 . S
C1375 C1380 1.363 . S
C1376 H1353 0.950 . S
C1376 C1375 1.397 . S
C1376 C1377 1.334 . S
C1377 H1354 0.950 . S
C1377 C1376 1.334 . S
C1377 C1378 1.287 . S
C1378 C1377 1.287 . S
C1378 C1379 1.524 . S
C1378 H1397 0.913 . S
C1379 H1355 0.950 . S
C1379 C1378 1.524 . S
C1379 C1380 1.415 . S
C1380 H1356 0.950 . S
C1380 C1375 1.363 . S
C1380 C1379 1.415 . S
C1381 H1357 0.951 . S
C1381 C1382 1.366 . S
C1381 C1383 1.388 . S
C1382 C1381 1.366 . S
C1382 C1386 1.385 1_455 S
C1383 H1358 0.951 . S
C1383 C1381 1.388 . S
C1383 C1384 1.366 . S
C1384 C1383 1.366 . S
C1384 C1385 1.414 1_455 S
C1384 C1387 1.499 . S
C1385 H1359 0.950 . S
C1385 C1384 1.414 1_655 S
C1385 C1386 1.374 . S
C1386 H1360 0.950 . S
C1386 C1382 1.385 1_655 S
C1386 C1385 1.374 . S
C1387 C1384 1.499 . S
C1387 C1388 1.373 . S
C1387 C1389 1.380 1_455 S
C1388 H1361 0.950 . S
C1388 C1374 1.377 . S
C1388 C1387 1.373 . S
C1389 C1373 1.377 1_655 S
C1389 C1387 1.380 1_655 S
C1389 C1390 1.537 . S
C1390 C1389 1.537 . S
C1390 C1391 1.397 . S
C1390 C1395 1.363 . S
C1391 H1362 0.950 . S
C1391 C1390 1.397 . S
C1391 C1392 1.334 . S
C1392 H1363 0.950 . S
C1392 C1391 1.334 . S
C1392 C1393 1.287 . S
C1393 C1392 1.287 . S
C1393 C1394 1.524 . S
C1393 H1396 0.999 . S
C1394 H1364 0.950 . S
C1394 C1393 1.524 . S
C1394 C1395 1.415 . S
C1395 H1365 0.950 1_655 S
C1395 C1390 1.363 . S
C1395 C1394 1.415 . S
H1396 C1393 0.999 . S
H1397 C1378 0.913 . S
H1398 C1416 0.951 . S
H1399 C1418 0.951 . S
H1400 C1420 0.950 . S
H1401 C1421 0.950 . S
H1402 C1423 0.950 . S
H1403 C1426 0.950 . S
H1404 C1427 0.950 . S
H1405 C1429 0.950 . S
H1406 C1430 0.950 . S
H1407 C1431 0.951 . S
H1408 C1433 0.951 . S
H1409 C1435 0.950 . S
H1410 C1436 0.950 . S
H1411 C1438 0.950 . S
H1412 C1441 0.950 . S
H1413 C1442 0.950 . S
H1414 C1444 0.950 . S
H1415 C1445 0.950 . S
C1416 H1398 0.951 . S
C1416 C1417 1.366 . S
C1416 C1418 1.388 . S
C1417 C1416 1.366 . S
C1417 C1421 1.385 . S
C1418 H1399 0.951 . S
C1418 C1416 1.388 . S
C1418 C1419 1.366 . S
C1419 C1418 1.366 . S
C1419 C1420 1.414 . S
C1419 C1422 1.499 . S
C1420 H1400 0.950 . S
C1420 C1419 1.414 . S
C1420 C1421 1.374 . S
C1421 H1401 0.950 . S
C1421 C1417 1.385 . S
C1421 C1420 1.374 . S
C1422 C1419 1.499 . S
C1422 C1423 1.373 . S
C1422 C1424 1.389 . S
C1423 H1402 0.950 . S
C1423 C1422 1.373 . S
C1423 C1439 1.377 . S
C1424 C1422 1.389 . S
C1424 C1425 1.524 . S
C1424 C1438 1.377 . S
C1425 C1424 1.524 . S
C1425 C1426 1.397 . S
C1425 C1430 1.363 . S
C1426 H1403 0.950 . S
C1426 C1425 1.397 . S
C1426 C1427 1.334 . S
C1427 H1404 0.950 . S
C1427 C1426 1.334 . S
C1427 C1428 1.287 . S
C1428 C1427 1.287 . S
C1428 C1429 1.524 . S
C1428 H1447 0.913 . S
C1429 H1405 0.950 . S
C1429 C1428 1.524 . S
C1429 C1430 1.415 . S
C1430 H1406 0.950 . S
C1430 C1425 1.363 . S
C1430 C1429 1.415 . S
C1431 H1407 0.951 . S
C1431 C1432 1.366 . S
C1431 C1433 1.388 . S
C1432 C1431 1.366 . S
C1432 C1436 1.385 . S
C1433 H1408 0.951 . S
C1433 C1431 1.388 . S
C1433 C1434 1.366 . S
C1434 C1433 1.366 . S
C1434 C1435 1.414 . S
C1434 C1437 1.499 . S
C1435 H1409 0.950 . S
C1435 C1434 1.414 . S
C1435 C1436 1.374 . S
C1436 H1410 0.950 . S
C1436 C1432 1.385 . S
C1436 C1435 1.374 . S
C1437 C1434 1.499 . S
C1437 C1438 1.373 . S
C1437 C1439 1.389 . S
C1438 H1411 0.950 . S
C1438 C1424 1.377 . S
C1438 C1437 1.373 . S
C1439 C1423 1.377 . S
C1439 C1437 1.389 . S
C1439 C1440 1.524 . S
C1440 C1439 1.524 . S
C1440 C1441 1.397 . S
C1440 C1445 1.363 . S
C1441 H1412 0.950 . S
C1441 C1440 1.397 . S
C1441 C1442 1.334 . S
C1442 H1413 0.950 . S
C1442 C1441 1.334 . S
C1442 C1443 1.287 . S
C1443 C1442 1.287 . S
C1443 C1444 1.524 . S
C1443 H1446 0.999 . S
C1444 H1414 0.950 . S
C1444 C1443 1.524 . S
C1444 C1445 1.415 . S
C1445 H1415 0.950 . S
C1445 C1440 1.363 . S
C1445 C1444 1.415 . S
H1446 C1443 0.999 . S
H1447 C1428 0.913 . S
H1448 C1466 0.951 . S
H1449 C1468 0.951 . S
H1450 C1470 0.950 . S
H1451 C1471 0.950 . S
H1452 C1473 0.950 . S
H1453 C1476 0.950 . S
H1454 C1477 0.950 . S
H1455 C1479 0.950 . S
H1456 C1480 0.950 . S
H1457 C1481 0.951 . S
H1458 C1483 0.951 . S
H1459 C1485 0.950 . S
H1460 C1486 0.950 . S
H1461 C1488 0.950 . S
H1462 C1491 0.950 . S
H1463 C1492 0.950 . S
H1464 C1494 0.950 . S
H1465 C1495 0.950 . S
C1466 H1448 0.951 . S
C1466 C1467 1.366 . S
C1466 C1468 1.388 . S
C1467 C1466 1.366 . S
C1467 C1471 1.385 . S
C1468 H1449 0.951 . S
C1468 C1466 1.388 . S
C1468 C1469 1.366 . S
C1469 C1468 1.366 . S
C1469 C1470 1.414 . S
C1469 C1472 1.499 . S
C1470 H1450 0.950 . S
C1470 C1469 1.414 . S
C1470 C1471 1.374 . S
C1471 H1451 0.950 . S
C1471 C1467 1.385 . S
C1471 C1470 1.374 . S
C1472 C1469 1.499 . S
C1472 C1473 1.373 . S
C1472 C1474 1.389 . S
C1473 H1452 0.950 . S
C1473 C1472 1.373 . S
C1473 C1489 1.377 . S
C1474 C1472 1.389 . S
C1474 C1475 1.524 . S
C1474 C1488 1.377 . S
C1475 C1474 1.524 . S
C1475 C1476 1.397 . S
C1475 C1480 1.363 . S
C1476 H1453 0.950 . S
C1476 C1475 1.397 . S
C1476 C1477 1.334 . S
C1477 H1454 0.950 . S
C1477 C1476 1.334 . S
C1477 C1478 1.287 . S
C1478 C1477 1.287 . S
C1478 C1479 1.524 . S
C1478 H1497 0.913 . S
C1479 H1455 0.950 . S
C1479 C1478 1.524 . S
C1479 C1480 1.415 . S
C1480 H1456 0.950 . S
C1480 C1475 1.363 . S
C1480 C1479 1.415 . S
C1481 H1457 0.951 . S
C1481 C1482 1.366 . S
C1481 C1483 1.388 . S
C1482 C1481 1.366 . S
C1482 C1486 1.385 . S
C1483 H1458 0.951 . S
C1483 C1481 1.388 . S
C1483 C1484 1.366 . S
C1484 C1483 1.366 . S
C1484 C1485 1.414 . S
C1484 C1487 1.499 . S
C1485 H1459 0.950 . S
C1485 C1484 1.414 . S
C1485 C1486 1.374 . S
C1486 H1460 0.950 . S
C1486 C1482 1.385 . S
C1486 C1485 1.374 . S
C1487 C1484 1.499 . S
C1487 C1488 1.373 . S
C1487 C1489 1.389 . S
C1488 H1461 0.950 . S
C1488 C1474 1.377 . S
C1488 C1487 1.373 . S
C1489 C1473 1.377 . S
C1489 C1487 1.389 . S
C1489 C1490 1.524 . S
C1490 C1489 1.524 . S
C1490 C1491 1.397 . S
C1490 C1495 1.363 . S
C1491 H1462 0.950 . S
C1491 C1490 1.397 . S
C1491 C1492 1.334 . S
C1492 H1463 0.950 . S
C1492 C1491 1.334 . S
C1492 C1493 1.287 . S
C1493 C1492 1.287 . S
C1493 C1494 1.524 . S
C1493 H1496 0.999 . S
C1494 H1464 0.950 . S
C1494 C1493 1.524 . S
C1494 C1495 1.415 . S
C1495 H1465 0.950 . S
C1495 C1490 1.363 . S
C1495 C1494 1.415 . S
H1496 C1493 0.999 . S
H1497 C1478 0.913 . S
H1498 C1516 0.951 . S
H1499 C1518 0.951 . S
H1500 C1520 0.950 . S
H1501 C1521 0.950 . S
H1502 C1523 0.950 . S
H1503 C1526 0.950 . S
H1504 C1527 0.950 . S
H1505 C1529 0.950 . S
H1506 C1530 0.950 . S
H1507 C1531 0.951 . S
H1508 C1533 0.951 . S
H1509 C1535 0.950 . S
H1510 C1536 0.950 . S
H1511 C1538 0.950 . S
H1512 C1541 0.950 . S
H1513 C1542 0.950 . S
H1514 C1544 0.950 . S
H1515 C1545 0.950 . S
C1516 H1498 0.951 . S
C1516 C1517 1.366 . S
C1516 C1518 1.388 . S
C1517 C1516 1.366 . S
C1517 C1521 1.385 . S
C1518 H1499 0.951 . S
C1518 C1516 1.388 . S
C1518 C1519 1.366 . S
C1519 C1518 1.366 . S
C1519 C1520 1.414 . S
C1519 C1522 1.499 . S
C1520 H1500 0.950 . S
C1520 C1519 1.414 . S
C1520 C1521 1.374 . S
C1521 H1501 0.950 . S
C1521 C1517 1.385 . S
C1521 C1520 1.374 . S
C1522 C1519 1.499 . S
C1522 C1523 1.373 . S
C1522 C1524 1.389 . S
C1523 H1502 0.950 . S
C1523 C1522 1.373 . S
C1523 C1539 1.377 1_554 S
C1524 C1522 1.389 . S
C1524 C1525 1.524 . S
C1524 C1538 1.377 1_554 S
C1525 C1524 1.524 . S
C1525 C1526 1.397 . S
C1525 C1530 1.363 . S
C1526 H1503 0.950 . S
C1526 C1525 1.397 . S
C1526 C1527 1.334 . S
C1527 H1504 0.950 . S
C1527 C1526 1.334 . S
C1527 C1528 1.287 . S
C1528 C1527 1.287 . S
C1528 C1529 1.524 . S
C1528 H1547 0.913 . S
C1529 H1505 0.950 . S
C1529 C1528 1.524 . S
C1529 C1530 1.415 . S
C1530 H1506 0.950 . S
C1530 C1525 1.363 . S
C1530 C1529 1.415 . S
C1531 H1507 0.951 . S
C1531 C1532 1.366 . S
C1531 C1533 1.388 . S
C1532 C1531 1.366 . S
C1532 C1536 1.385 . S
C1533 H1508 0.951 . S
C1533 C1531 1.388 . S
C1533 C1534 1.366 . S
C1534 C1533 1.366 . S
C1534 C1535 1.414 . S
C1534 C1537 1.499 . S
C1535 H1509 0.950 . S
C1535 C1534 1.414 . S
C1535 C1536 1.374 . S
C1536 H1510 0.950 . S
C1536 C1532 1.385 . S
C1536 C1535 1.374 . S
C1537 C1534 1.499 . S
C1537 C1538 1.373 . S
C1537 C1539 1.389 . S
C1538 H1511 0.950 . S
C1538 C1524 1.377 1_556 S
C1538 C1537 1.373 . S
C1539 C1523 1.377 1_556 S
C1539 C1537 1.389 . S
C1539 C1540 1.524 . S
C1540 C1539 1.524 . S
C1540 C1541 1.397 . S
C1540 C1545 1.363 . S
C1541 H1512 0.950 . S
C1541 C1540 1.397 . S
C1541 C1542 1.334 . S
C1542 H1513 0.950 . S
C1542 C1541 1.334 . S
C1542 C1543 1.287 . S
C1543 C1542 1.287 . S
C1543 C1544 1.524 . S
C1543 H1546 0.999 . S
C1544 H1514 0.950 . S
C1544 C1543 1.524 . S
C1544 C1545 1.415 . S
C1545 H1515 0.950 . S
C1545 C1540 1.363 . S
C1545 C1544 1.415 . S
H1546 C1543 0.999 . S
H1547 C1528 0.913 . S
H1548 C1566 0.951 . S
H1549 C1568 0.951 . S
H1550 C1570 0.950 . S
H1551 C1571 0.950 . S
H1552 C1573 0.950 . S
H1553 C1576 0.950 . S
H1554 C1577 0.950 . S
H1555 C1579 0.950 . S
H1556 C1580 0.950 . S
H1557 C1581 0.951 . S
H1558 C1583 0.951 . S
H1559 C1585 0.941 1_455 S
H1560 C1586 0.941 1_455 S
H1561 C1588 0.950 . S
H1562 C1591 0.950 . S
H1563 C1592 0.950 . S
H1564 C1594 0.950 . S
H1565 C1595 0.950 . S
C1566 H1548 0.951 . S
C1566 C1567 1.366 1_455 S
C1566 C1568 1.388 . S
C1567 C1566 1.366 1_655 S
C1567 C1571 1.385 . S
C1568 H1549 0.951 . S
C1568 C1566 1.388 . S
C1568 C1569 1.366 1_455 S
C1569 C1568 1.366 1_655 S
C1569 C1570 1.414 . S
C1569 C1572 1.499 . S
C1570 H1550 0.950 . S
C1570 C1569 1.414 . S
C1570 C1571 1.374 . S
C1571 H1551 0.950 . S
C1571 C1567 1.385 . S
C1571 C1570 1.374 . S
C1572 C1569 1.499 . S
C1572 C1573 1.373 . S
C1572 C1574 1.389 1_655 S
C1573 H1552 0.950 . S
C1573 C1572 1.373 . S
C1573 C1589 1.377 . S
C1574 C1572 1.389 1_455 S
C1574 C1575 1.524 . S
C1574 C1588 1.377 . S
C1575 C1574 1.524 . S
C1575 C1576 1.397 . S
C1575 C1580 1.363 . S
C1576 H1553 0.950 . S
C1576 C1575 1.397 . S
C1576 C1577 1.334 . S
C1577 H1554 0.950 . S
C1577 C1576 1.334 . S
C1577 C1578 1.287 . S
C1578 C1577 1.287 . S
C1578 C1579 1.524 . S
C1578 H1597 0.913 . S
C1579 H1555 0.950 . S
C1579 C1578 1.524 . S
C1579 C1580 1.415 . S
C1580 H1556 0.950 . S
C1580 C1575 1.363 . S
C1580 C1579 1.415 . S
C1581 H1557 0.951 . S
C1581 C1582 1.366 . S
C1581 C1583 1.388 . S
C1582 C1581 1.366 . S
C1582 C1586 1.397 . S
C1583 H1558 0.951 . S
C1583 C1581 1.388 . S
C1583 C1584 1.366 . S
C1584 C1583 1.366 . S
C1584 C1585 1.423 . S
C1584 C1587 1.499 . S
C1585 H1559 0.941 1_655 S
C1585 C1584 1.423 . S
C1585 C1586 1.373 . S
C1586 H1560 0.941 1_655 S
C1586 C1582 1.397 . S
C1586 C1585 1.373 . S
C1587 C1584 1.499 . S
C1587 C1588 1.373 1_655 S
C1587 C1589 1.389 . S
C1588 H1561 0.950 . S
C1588 C1574 1.377 . S
C1588 C1587 1.373 1_455 S
C1589 C1573 1.377 . S
C1589 C1587 1.389 . S
C1589 C1590 1.524 . S
C1590 C1589 1.524 . S
C1590 C1591 1.397 . S
C1590 C1595 1.363 . S
C1591 H1562 0.950 . S
C1591 C1590 1.397 . S
C1591 C1592 1.334 . S
C1592 H1563 0.950 . S
C1592 C1591 1.334 . S
C1592 C1593 1.287 . S
C1593 C1592 1.287 . S
C1593 C1594 1.524 . S
C1593 H1596 0.999 . S
C1594 H1564 0.950 . S
C1594 C1593 1.524 . S
C1594 C1595 1.415 . S
C1595 H1565 0.950 . S
C1595 C1590 1.363 . S
C1595 C1594 1.415 . S
H1596 C1593 0.999 . S
H1597 C1578 0.913 . S
H1598 C1616 0.951 . S
H1599 C1618 0.951 . S
H1600 C1620 0.950 . S
H1601 C1621 0.950 . S
H1602 C1623 0.950 . S
H1603 C1626 0.950 . S
H1604 C1627 0.950 . S
H1605 C1629 0.950 . S
H1606 C1630 0.950 . S
H1607 C1631 0.951 . S
H1608 C1633 0.951 . S
H1609 C1635 0.950 . S
H1610 C1636 0.950 . S
H1611 C1638 0.950 . S
H1612 C1641 0.950 . S
H1613 C1642 0.950 . S
H1614 C1644 0.950 . S
H1615 C1645 0.950 . S
C1616 H1598 0.951 . S
C1616 C1617 1.366 . S
C1616 C1618 1.388 . S
C1617 C1616 1.366 . S
C1617 C1621 1.385 . S
C1618 H1599 0.951 . S
C1618 C1616 1.388 . S
C1618 C1619 1.366 . S
C1619 C1618 1.366 . S
C1619 C1620 1.414 . S
C1619 C1622 1.499 . S
C1620 H1600 0.950 . S
C1620 C1619 1.414 . S
C1620 C1621 1.374 . S
C1621 H1601 0.950 . S
C1621 C1617 1.385 . S
C1621 C1620 1.374 . S
C1622 C1619 1.499 . S
C1622 C1623 1.373 . S
C1622 C1624 1.389 . S
C1623 H1602 0.950 . S
C1623 C1622 1.373 . S
C1623 C1639 1.377 . S
C1624 C1622 1.389 . S
C1624 C1625 1.524 . S
C1624 C1638 1.377 . S
C1625 C1624 1.524 . S
C1625 C1626 1.397 . S
C1625 C1630 1.363 . S
C1626 H1603 0.950 . S
C1626 C1625 1.397 . S
C1626 C1627 1.334 . S
C1627 H1604 0.950 . S
C1627 C1626 1.334 . S
C1627 C1628 1.287 . S
C1628 C1627 1.287 . S
C1628 C1629 1.524 . S
C1628 H1647 0.913 . S
C1629 H1605 0.950 . S
C1629 C1628 1.524 . S
C1629 C1630 1.415 . S
C1630 H1606 0.950 . S
C1630 C1625 1.363 . S
C1630 C1629 1.415 . S
C1631 H1607 0.951 . S
C1631 C1632 1.366 . S
C1631 C1633 1.388 . S
C1632 C1631 1.366 . S
C1632 C1636 1.385 . S
C1633 H1608 0.951 . S
C1633 C1631 1.388 . S
C1633 C1634 1.366 . S
C1634 C1633 1.366 . S
C1634 C1635 1.414 . S
C1634 C1637 1.499 . S
C1635 H1609 0.950 . S
C1635 C1634 1.414 . S
C1635 C1636 1.374 . S
C1636 H1610 0.950 . S
C1636 C1632 1.385 . S
C1636 C1635 1.374 . S
C1637 C1634 1.499 . S
C1637 C1638 1.373 . S
C1637 C1639 1.389 . S
C1638 H1611 0.950 . S
C1638 C1624 1.377 . S
C1638 C1637 1.373 . S
C1639 C1623 1.377 . S
C1639 C1637 1.389 . S
C1639 C1640 1.524 . S
C1640 C1639 1.524 . S
C1640 C1641 1.397 . S
C1640 C1645 1.363 . S
C1641 H1612 0.950 . S
C1641 C1640 1.397 . S
C1641 C1642 1.334 . S
C1642 H1613 0.950 . S
C1642 C1641 1.334 . S
C1642 C1643 1.287 . S
C1643 C1642 1.287 . S
C1643 C1644 1.524 . S
C1643 H1646 0.999 . S
C1644 H1614 0.950 . S
C1644 C1643 1.524 . S
C1644 C1645 1.415 . S
C1645 H1615 0.950 . S
C1645 C1640 1.363 . S
C1645 C1644 1.415 . S
H1646 C1643 0.999 . S
H1647 C1628 0.913 . S
H1648 C1666 0.951 . S
H1649 C1668 0.951 . S
H1650 C1670 0.950 . S
H1651 C1671 0.950 . S
H1652 C1673 0.950 . S
H1653 C1676 0.950 . S
H1654 C1677 0.950 . S
H1655 C1679 0.950 . S
H1656 C1680 0.950 . S
H1657 C1681 0.951 . S
H1658 C1683 0.951 . S
H1659 C1685 0.950 . S
H1660 C1686 0.950 . S
H1661 C1688 0.950 . S
H1662 C1691 0.950 . S
H1663 C1692 0.950 . S
H1664 C1694 0.950 . S
H1665 C1695 0.950 . S
C1666 H1648 0.951 . S
C1666 C1667 1.366 . S
C1666 C1668 1.388 . S
C1667 C1666 1.366 . S
C1667 C1671 1.385 . S
C1668 H1649 0.951 . S
C1668 C1666 1.388 . S
C1668 C1669 1.366 . S
C1669 C1668 1.366 . S
C1669 C1670 1.414 . S
C1669 C1672 1.499 . S
C1670 H1650 0.950 . S
C1670 C1669 1.414 . S
C1670 C1671 1.374 . S
C1671 H1651 0.950 . S
C1671 C1667 1.385 . S
C1671 C1670 1.374 . S
C1672 C1669 1.499 . S
C1672 C1673 1.373 . S
C1672 C1674 1.389 . S
C1673 H1652 0.950 . S
C1673 C1672 1.373 . S
C1673 C1689 1.377 . S
C1674 C1672 1.389 . S
C1674 C1675 1.524 . S
C1674 C1688 1.377 . S
C1675 C1674 1.524 . S
C1675 C1676 1.397 . S
C1675 C1680 1.363 . S
C1676 H1653 0.950 . S
C1676 C1675 1.397 . S
C1676 C1677 1.334 . S
C1677 H1654 0.950 . S
C1677 C1676 1.334 . S
C1677 C1678 1.287 . S
C1678 C1677 1.287 . S
C1678 C1679 1.524 . S
C1678 H1697 0.913 . S
C1679 H1655 0.950 . S
C1679 C1678 1.524 . S
C1679 C1680 1.415 . S
C1680 H1656 0.950 . S
C1680 C1675 1.363 . S
C1680 C1679 1.415 . S
C1681 H1657 0.951 . S
C1681 C1682 1.366 . S
C1681 C1683 1.388 . S
C1682 C1681 1.366 . S
C1682 C1686 1.385 . S
C1683 H1658 0.951 . S
C1683 C1681 1.388 . S
C1683 C1684 1.366 . S
C1684 C1683 1.366 . S
C1684 C1685 1.414 . S
C1684 C1687 1.499 . S
C1685 H1659 0.950 . S
C1685 C1684 1.414 . S
C1685 C1686 1.374 . S
C1686 H1660 0.950 . S
C1686 C1682 1.385 . S
C1686 C1685 1.374 . S
C1687 C1684 1.499 . S
C1687 C1688 1.373 . S
C1687 C1689 1.389 . S
C1688 H1661 0.950 . S
C1688 C1674 1.377 . S
C1688 C1687 1.373 . S
C1689 C1673 1.377 . S
C1689 C1687 1.389 . S
C1689 C1690 1.524 . S
C1690 C1689 1.524 . S
C1690 C1691 1.397 . S
C1690 C1695 1.363 . S
C1691 H1662 0.950 . S
C1691 C1690 1.397 . S
C1691 C1692 1.334 . S
C1692 H1663 0.950 . S
C1692 C1691 1.334 . S
C1692 C1693 1.287 . S
C1693 C1692 1.287 . S
C1693 C1694 1.524 . S
C1693 H1696 0.999 . S
C1694 H1664 0.950 . S
C1694 C1693 1.524 . S
C1694 C1695 1.415 . S
C1695 H1665 0.950 . S
C1695 C1690 1.363 . S
C1695 C1694 1.415 . S
H1696 C1693 0.999 . S
H1697 C1678 0.913 . S
H1698 C1716 0.951 . S
H1699 C1718 0.951 . S
H1700 C1720 0.950 . S
H1701 C1721 0.950 . S
H1702 C1723 0.950 . S
H1703 C1726 0.950 . S
H1704 C1727 0.950 . S
H1705 C1729 0.950 . S
H1706 C1730 0.950 . S
H1707 C1731 0.951 . S
H1708 C1733 0.951 . S
H1709 C1735 0.950 . S
H1710 C1736 0.950 . S
H1711 C1738 0.950 . S
H1712 C1741 0.950 . S
H1713 C1742 0.950 . S
H1714 C1744 0.950 . S
H1715 C1745 0.950 . S
C1716 H1698 0.951 . S
C1716 C1717 1.366 . S
C1716 C1718 1.388 . S
C1717 C1716 1.366 . S
C1717 C1721 1.385 . S
C1718 H1699 0.951 . S
C1718 C1716 1.388 . S
C1718 C1719 1.366 . S
C1719 C1718 1.366 . S
C1719 C1720 1.414 . S
C1719 C1722 1.499 . S
C1720 H1700 0.950 . S
C1720 C1719 1.414 . S
C1720 C1721 1.374 . S
C1721 H1701 0.950 . S
C1721 C1717 1.385 . S
C1721 C1720 1.374 . S
C1722 C1719 1.499 . S
C1722 C1723 1.373 . S
C1722 C1724 1.389 . S
C1723 H1702 0.950 . S
C1723 C1722 1.373 . S
C1723 C1739 1.377 . S
C1724 C1722 1.389 . S
C1724 C1725 1.524 . S
C1724 C1738 1.377 . S
C1725 C1724 1.524 . S
C1725 C1726 1.397 . S
C1725 C1730 1.363 . S
C1726 H1703 0.950 . S
C1726 C1725 1.397 . S
C1726 C1727 1.334 . S
C1727 H1704 0.950 . S
C1727 C1726 1.334 . S
C1727 C1728 1.287 . S
C1728 C1727 1.287 . S
C1728 C1729 1.524 . S
C1728 H1747 0.913 . S
C1729 H1705 0.950 . S
C1729 C1728 1.524 . S
C1729 C1730 1.415 . S
C1730 H1706 0.950 . S
C1730 C1725 1.363 . S
C1730 C1729 1.415 . S
C1731 H1707 0.951 . S
C1731 C1732 1.366 . S
C1731 C1733 1.388 . S
C1732 C1731 1.366 . S
C1732 C1736 1.385 . S
C1733 H1708 0.951 . S
C1733 C1731 1.388 . S
C1733 C1734 1.366 . S
C1734 C1733 1.366 . S
C1734 C1735 1.414 . S
C1734 C1737 1.499 . S
C1735 H1709 0.950 . S
C1735 C1734 1.414 . S
C1735 C1736 1.374 . S
C1736 H1710 0.950 . S
C1736 C1732 1.385 . S
C1736 C1735 1.374 . S
C1737 C1734 1.499 . S
C1737 C1738 1.373 . S
C1737 C1739 1.389 . S
C1738 H1711 0.950 . S
C1738 C1724 1.377 . S
C1738 C1737 1.373 . S
C1739 C1723 1.377 . S
C1739 C1737 1.389 . S
C1739 C1740 1.524 . S
C1740 C1739 1.524 . S
C1740 C1741 1.397 . S
C1740 C1745 1.363 . S
C1741 H1712 0.950 . S
C1741 C1740 1.397 . S
C1741 C1742 1.334 . S
C1742 H1713 0.950 . S
C1742 C1741 1.334 . S
C1742 C1743 1.287 . S
C1743 C1742 1.287 . S
C1743 C1744 1.524 . S
C1743 H1746 0.999 . S
C1744 H1714 0.950 . S
C1744 C1743 1.524 . S
C1744 C1745 1.415 . S
C1745 H1715 0.950 . S
C1745 C1740 1.363 . S
C1745 C1744 1.415 . S
H1746 C1743 0.999 . S
H1747 C1728 0.913 . S
H1748 C1766 0.951 . S
H1749 C1768 0.951 . S
H1750 C1770 0.950 . S
H1751 C1771 0.950 . S
H1752 C1773 0.950 . S
H1753 C1776 0.950 . S
H1754 C1777 0.950 . S
H1755 C1779 0.950 . S
H1756 C1780 0.950 . S
H1757 C1781 0.951 . S
H1758 C1783 0.951 . S
H1759 C1785 0.950 . S
H1760 C1786 0.950 . S
H1761 C1788 0.950 . S
H1762 C1791 0.950 . S
H1763 C1792 0.950 . S
H1764 C1794 0.950 . S
H1765 C1795 0.950 . S
C1766 H1748 0.951 . S
C1766 C1767 1.366 . S
C1766 C1768 1.388 . S
C1767 C1766 1.366 . S
C1767 C1771 1.385 . S
C1768 H1749 0.951 . S
C1768 C1766 1.388 . S
C1768 C1769 1.366 . S
C1769 C1768 1.366 . S
C1769 C1770 1.414 . S
C1769 C1772 1.499 . S
C1770 H1750 0.950 . S
C1770 C1769 1.414 . S
C1770 C1771 1.374 . S
C1771 H1751 0.950 . S
C1771 C1767 1.385 . S
C1771 C1770 1.374 . S
C1772 C1769 1.499 . S
C1772 C1773 1.373 . S
C1772 C1774 1.389 . S
C1773 H1752 0.950 . S
C1773 C1772 1.373 . S
C1773 C1789 1.377 . S
C1774 C1772 1.389 . S
C1774 C1775 1.524 . S
C1774 C1788 1.377 . S
C1775 C1774 1.524 . S
C1775 C1776 1.397 . S
C1775 C1780 1.363 . S
C1776 H1753 0.950 . S
C1776 C1775 1.397 . S
C1776 C1777 1.334 . S
C1777 H1754 0.950 . S
C1777 C1776 1.334 . S
C1777 C1778 1.287 . S
C1778 C1777 1.287 . S
C1778 C1779 1.524 . S
C1778 H1797 0.913 . S
C1779 H1755 0.950 . S
C1779 C1778 1.524 . S
C1779 C1780 1.415 . S
C1780 H1756 0.950 . S
C1780 C1775 1.363 . S
C1780 C1779 1.415 . S
C1781 H1757 0.951 . S
C1781 C1782 1.366 . S
C1781 C1783 1.388 . S
C1782 C1781 1.366 . S
C1782 C1786 1.385 . S
C1783 H1758 0.951 . S
C1783 C1781 1.388 . S
C1783 C1784 1.366 . S
C1784 C1783 1.366 . S
C1784 C1785 1.414 . S
C1784 C1787 1.499 . S
C1785 H1759 0.950 . S
C1785 C1784 1.414 . S
C1785 C1786 1.374 . S
C1786 H1760 0.950 . S
C1786 C1782 1.385 . S
C1786 C1785 1.374 . S
C1787 C1784 1.499 . S
C1787 C1788 1.373 . S
C1787 C1789 1.389 . S
C1788 H1761 0.950 . S
C1788 C1774 1.377 . S
C1788 C1787 1.373 . S
C1789 C1773 1.377 . S
C1789 C1787 1.389 . S
C1789 C1790 1.524 . S
C1790 C1789 1.524 . S
C1790 C1791 1.397 . S
C1790 C1795 1.363 . S
C1791 H1762 0.950 . S
C1791 C1790 1.397 . S
C1791 C1792 1.334 . S
C1792 H1763 0.950 . S
C1792 C1791 1.334 . S
C1792 C1793 1.287 . S
C1793 C1792 1.287 . S
C1793 C1794 1.524 . S
C1793 H1796 0.999 . S
C1794 H1764 0.950 . S
C1794 C1793 1.524 . S
C1794 C1795 1.415 . S
C1795 H1765 0.950 . S
C1795 C1790 1.363 . S
C1795 C1794 1.415 . S
H1796 C1793 0.999 . S
H1797 C1778 0.913 . S
H1798 C1816 0.951 . S
H1799 C1818 0.951 . S
H1800 C1820 0.950 . S
H1801 C1821 0.950 . S
H1802 C1823 0.950 . S
H1803 C1826 0.950 . S
H1804 C1827 0.950 . S
H1805 C1829 0.950 . S
H1806 C1830 0.950 . S
H1807 C1831 0.951 . S
H1808 C1833 0.951 . S
H1809 C1835 0.950 . S
H1810 C1836 0.950 . S
H1811 C1838 0.950 . S
H1812 C1841 0.950 . S
H1813 C1842 0.950 . S
H1814 C1844 0.950 . S
H1815 C1845 0.950 . S
C1816 H1798 0.951 . S
C1816 C1817 1.366 . S
C1816 C1818 1.388 . S
C1817 C1816 1.366 . S
C1817 C1821 1.385 . S
C1818 H1799 0.951 . S
C1818 C1816 1.388 . S
C1818 C1819 1.366 . S
C1819 C1818 1.366 . S
C1819 C1820 1.414 . S
C1819 C1822 1.499 . S
C1820 H1800 0.950 . S
C1820 C1819 1.414 . S
C1820 C1821 1.374 . S
C1821 H1801 0.950 . S
C1821 C1817 1.385 . S
C1821 C1820 1.374 . S
C1822 C1819 1.499 . S
C1822 C1823 1.373 . S
C1822 C1824 1.389 . S
C1823 H1802 0.950 . S
C1823 C1822 1.373 . S
C1823 C1839 1.377 . S
C1824 C1822 1.389 . S
C1824 C1825 1.524 . S
C1824 C1838 1.377 . S
C1825 C1824 1.524 . S
C1825 C1826 1.397 . S
C1825 C1830 1.363 . S
C1826 H1803 0.950 . S
C1826 C1825 1.397 . S
C1826 C1827 1.334 . S
C1827 H1804 0.950 . S
C1827 C1826 1.334 . S
C1827 C1828 1.287 . S
C1828 C1827 1.287 . S
C1828 C1829 1.524 . S
C1828 H1847 0.913 . S
C1829 H1805 0.950 . S
C1829 C1828 1.524 . S
C1829 C1830 1.415 . S
C1830 H1806 0.950 . S
C1830 C1825 1.363 . S
C1830 C1829 1.415 . S
C1831 H1807 0.951 . S
C1831 C1832 1.366 . S
C1831 C1833 1.388 . S
C1832 C1831 1.366 . S
C1832 C1836 1.385 . S
C1833 H1808 0.951 . S
C1833 C1831 1.388 . S
C1833 C1834 1.366 . S
C1834 C1833 1.366 . S
C1834 C1835 1.414 . S
C1834 C1837 1.499 . S
C1835 H1809 0.950 . S
C1835 C1834 1.414 . S
C1835 C1836 1.374 . S
C1836 H1810 0.950 . S
C1836 C1832 1.385 . S
C1836 C1835 1.374 . S
C1837 C1834 1.499 . S
C1837 C1838 1.373 . S
C1837 C1839 1.389 . S
C1838 H1811 0.950 . S
C1838 C1824 1.377 . S
C1838 C1837 1.373 . S
C1839 C1823 1.377 . S
C1839 C1837 1.389 . S
C1839 C1840 1.524 . S
C1840 C1839 1.524 . S
C1840 C1841 1.397 . S
C1840 C1845 1.363 . S
C1841 H1812 0.950 . S
C1841 C1840 1.397 . S
C1841 C1842 1.334 . S
C1842 H1813 0.950 . S
C1842 C1841 1.334 . S
C1842 C1843 1.287 . S
C1843 C1842 1.287 . S
C1843 C1844 1.524 . S
C1843 H1846 0.999 . S
C1844 H1814 0.950 . S
C1844 C1843 1.524 . S
C1844 C1845 1.415 . S
C1845 H1815 0.950 . S
C1845 C1840 1.363 . S
C1845 C1844 1.415 . S
H1846 C1843 0.999 . S
H1847 C1828 0.913 . S
H1848 C1866 0.951 . S
H1849 C1868 0.951 . S
H1850 C1870 0.950 . S
H1851 C1871 0.950 . S
H1852 C1873 0.950 . S
H1853 C1876 0.950 . S
H1854 C1877 0.950 1_554 S
H1855 C1879 0.950 . S
H1856 C1880 0.950 . S
H1857 C1881 0.951 . S
H1858 C1883 0.951 . S
H1859 C1885 0.950 . S
H1860 C1886 0.950 . S
H1861 C1888 0.950 . S
H1862 C1891 0.950 . S
H1863 C1892 0.950 . S
H1864 C1894 0.950 . S
H1865 C1895 0.950 . S
C1866 H1848 0.951 . S
C1866 C1867 1.366 . S
C1866 C1868 1.388 . S
C1867 C1866 1.366 . S
C1867 C1871 1.385 . S
C1868 H1849 0.951 . S
C1868 C1866 1.388 . S
C1868 C1869 1.366 . S
C1869 C1868 1.366 . S
C1869 C1870 1.414 . S
C1869 C1872 1.499 . S
C1870 H1850 0.950 . S
C1870 C1869 1.414 . S
C1870 C1871 1.374 . S
C1871 H1851 0.950 . S
C1871 C1867 1.385 . S
C1871 C1870 1.374 . S
C1872 C1869 1.499 . S
C1872 C1873 1.373 . S
C1872 C1874 1.389 . S
C1873 H1852 0.950 . S
C1873 C1872 1.373 . S
C1873 C1889 1.377 . S
C1874 C1872 1.389 . S
C1874 C1875 1.524 . S
C1874 C1888 1.377 . S
C1875 C1874 1.524 . S
C1875 C1876 1.397 . S
C1875 C1880 1.363 . S
C1876 H1853 0.950 . S
C1876 C1875 1.397 . S
C1876 C1877 1.334 . S
C1877 H1854 0.950 1_556 S
C1877 C1876 1.334 . S
C1877 C1878 1.287 . S
C1878 C1877 1.287 . S
C1878 C1879 1.524 . S
C1878 H1897 0.913 1_556 S
C1879 H1855 0.950 . S
C1879 C1878 1.524 . S
C1879 C1880 1.415 . S
C1880 H1856 0.950 . S
C1880 C1875 1.363 . S
C1880 C1879 1.415 . S
C1881 H1857 0.951 . S
C1881 C1882 1.366 . S
C1881 C1883 1.388 . S
C1882 C1881 1.366 . S
C1882 C1886 1.385 . S
C1883 H1858 0.951 . S
C1883 C1881 1.388 . S
C1883 C1884 1.366 . S
C1884 C1883 1.366 . S
C1884 C1885 1.414 . S
C1884 C1887 1.499 . S
C1885 H1859 0.950 . S
C1885 C1884 1.414 . S
C1885 C1886 1.374 . S
C1886 H1860 0.950 . S
C1886 C1882 1.385 . S
C1886 C1885 1.374 . S
C1887 C1884 1.499 . S
C1887 C1888 1.373 . S
C1887 C1889 1.389 . S
C1888 H1861 0.950 . S
C1888 C1874 1.377 . S
C1888 C1887 1.373 . S
C1889 C1873 1.377 . S
C1889 C1887 1.389 . S
C1889 C1890 1.524 . S
C1890 C1889 1.524 . S
C1890 C1891 1.397 . S
C1890 C1895 1.363 . S
C1891 H1862 0.950 . S
C1891 C1890 1.397 . S
C1891 C1892 1.334 . S
C1892 H1863 0.950 . S
C1892 C1891 1.334 . S
C1892 C1893 1.287 . S
C1893 C1892 1.287 . S
C1893 C1894 1.524 . S
C1893 H1896 0.999 . S
C1894 H1864 0.950 . S
C1894 C1893 1.524 . S
C1894 C1895 1.415 . S
C1895 H1865 0.950 . S
C1895 C1890 1.363 . S
C1895 C1894 1.415 . S
H1896 C1893 0.999 . S
H1897 C1878 0.913 1_554 S
H1898 C1916 0.951 . S
H1899 C1918 0.951 . S
H1900 C1920 0.950 . S
H1901 C1921 0.950 . S
H1902 C1923 0.950 . S
H1903 C1926 0.950 . S
H1904 C1927 0.950 . S
H1905 C1929 0.950 . S
H1906 C1930 0.950 . S
H1907 C1931 0.951 . S
H1908 C1933 0.951 . S
H1909 C1935 0.950 . S
H1910 C1936 0.950 . S
H1911 C1938 0.950 . S
H1912 C1941 0.950 . S
H1913 C1942 0.950 . S
H1914 C1944 0.950 . S
H1915 C1945 0.950 . S
C1916 H1898 0.951 . S
C1916 C1917 1.366 . S
C1916 C1918 1.388 . S
C1917 C1916 1.366 . S
C1917 C1921 1.385 . S
C1918 H1899 0.951 . S
C1918 C1916 1.388 . S
C1918 C1919 1.366 . S
C1919 C1918 1.366 . S
C1919 C1920 1.414 . S
C1919 C1922 1.499 . S
C1920 H1900 0.950 . S
C1920 C1919 1.414 . S
C1920 C1921 1.374 . S
C1921 H1901 0.950 . S
C1921 C1917 1.385 . S
C1921 C1920 1.374 . S
C1922 C1919 1.499 . S
C1922 C1923 1.373 . S
C1922 C1924 1.389 . S
C1923 H1902 0.950 . S
C1923 C1922 1.373 . S
C1923 C1939 1.377 . S
C1924 C1922 1.389 . S
C1924 C1925 1.524 . S
C1924 C1938 1.377 . S
C1925 C1924 1.524 . S
C1925 C1926 1.397 . S
C1925 C1930 1.363 . S
C1926 H1903 0.950 . S
C1926 C1925 1.397 . S
C1926 C1927 1.334 . S
C1927 H1904 0.950 . S
C1927 C1926 1.334 . S
C1927 C1928 1.287 . S
C1928 C1927 1.287 . S
C1928 C1929 1.524 . S
C1928 H1947 0.913 . S
C1929 H1905 0.950 . S
C1929 C1928 1.524 . S
C1929 C1930 1.415 . S
C1930 H1906 0.950 . S
C1930 C1925 1.363 . S
C1930 C1929 1.415 . S
C1931 H1907 0.951 . S
C1931 C1932 1.366 . S
C1931 C1933 1.388 . S
C1932 C1931 1.366 . S
C1932 C1936 1.385 . S
C1933 H1908 0.951 . S
C1933 C1931 1.388 . S
C1933 C1934 1.366 . S
C1934 C1933 1.366 . S
C1934 C1935 1.414 . S
C1934 C1937 1.499 . S
C1935 H1909 0.950 . S
C1935 C1934 1.414 . S
C1935 C1936 1.374 . S
C1936 H1910 0.950 . S
C1936 C1932 1.385 . S
C1936 C1935 1.374 . S
C1937 C1934 1.499 . S
C1937 C1938 1.373 . S
C1937 C1939 1.389 . S
C1938 H1911 0.950 . S
C1938 C1924 1.377 . S
C1938 C1937 1.373 . S
C1939 C1923 1.377 . S
C1939 C1937 1.389 . S
C1939 C1940 1.524 . S
C1940 C1939 1.524 . S
C1940 C1941 1.397 . S
C1940 C1945 1.363 . S
C1941 H1912 0.950 . S
C1941 C1940 1.397 . S
C1941 C1942 1.334 . S
C1942 H1913 0.950 . S
C1942 C1941 1.334 . S
C1942 C1943 1.287 . S
C1943 C1942 1.287 . S
C1943 C1944 1.524 . S
C1943 H1946 0.999 . S
C1944 H1914 0.950 . S
C1944 C1943 1.524 . S
C1944 C1945 1.415 . S
C1945 H1915 0.950 . S
C1945 C1940 1.363 . S
C1945 C1944 1.415 . S
H1946 C1943 0.999 . S
H1947 C1928 0.913 . S
H1948 C1966 0.951 . S
H1949 C1968 0.951 . S
H1950 C1970 0.950 . S
H1951 C1971 0.950 . S
H1952 C1973 0.950 . S
H1953 C1976 0.950 . S
H1954 C1977 0.950 . S
H1955 C1979 0.950 . S
H1956 C1980 0.950 . S
H1957 C1981 0.951 . S
H1958 C1983 0.951 . S
H1959 C1985 0.950 . S
H1960 C1986 0.950 . S
H1961 C1988 0.950 . S
H1962 C1991 0.950 . S
H1963 C1992 0.950 . S
H1964 C1994 0.950 . S
H1965 C1995 0.950 . S
C1966 H1948 0.951 . S
C1966 C1967 1.366 . S
C1966 C1968 1.388 . S
C1967 C1966 1.366 . S
C1967 C1971 1.385 . S
C1968 H1949 0.951 . S
C1968 C1966 1.388 . S
C1968 C1969 1.366 . S
C1969 C1968 1.366 . S
C1969 C1970 1.414 . S
C1969 C1972 1.499 . S
C1970 H1950 0.950 . S
C1970 C1969 1.414 . S
C1970 C1971 1.374 . S
C1971 H1951 0.950 . S
C1971 C1967 1.385 . S
C1971 C1970 1.374 . S
C1972 C1969 1.499 . S
C1972 C1973 1.373 . S
C1972 C1974 1.389 . S
C1973 H1952 0.950 . S
C1973 C1972 1.373 . S
C1973 C1989 1.377 . S
C1974 C1972 1.389 . S
C1974 C1975 1.524 . S
C1974 C1988 1.377 . S
C1975 C1974 1.524 . S
C1975 C1976 1.397 . S
C1975 C1980 1.363 . S
C1976 H1953 0.950 . S
C1976 C1975 1.397 . S
C1976 C1977 1.334 . S
C1977 H1954 0.950 . S
C1977 C1976 1.334 . S
C1977 C1978 1.287 . S
C1978 C1977 1.287 . S
C1978 C1979 1.524 . S
C1978 H1997 0.913 . S
C1979 H1955 0.950 . S
C1979 C1978 1.524 . S
C1979 C1980 1.415 . S
C1980 H1956 0.950 . S
C1980 C1975 1.363 . S
C1980 C1979 1.415 . S
C1981 H1957 0.951 . S
C1981 C1982 1.366 . S
C1981 C1983 1.388 . S
C1982 C1981 1.366 . S
C1982 C1986 1.385 . S
C1983 H1958 0.951 . S
C1983 C1981 1.388 . S
C1983 C1984 1.366 . S
C1984 C1983 1.366 . S
C1984 C1985 1.414 . S
C1984 C1987 1.499 . S
C1985 H1959 0.950 . S
C1985 C1984 1.414 . S
C1985 C1986 1.374 . S
C1986 H1960 0.950 . S
C1986 C1982 1.385 . S
C1986 C1985 1.374 . S
C1987 C1984 1.499 . S
C1987 C1988 1.373 . S
C1987 C1989 1.389 . S
C1988 H1961 0.950 . S
C1988 C1974 1.377 . S
C1988 C1987 1.373 . S
C1989 C1973 1.377 . S
C1989 C1987 1.389 . S
C1989 C1990 1.524 . S
C1990 C1989 1.524 . S
C1990 C1991 1.397 . S
C1990 C1995 1.363 . S
C1991 H1962 0.950 . S
C1991 C1990 1.397 . S
C1991 C1992 1.334 . S
C1992 H1963 0.950 . S
C1992 C1991 1.334 . S
C1992 C1993 1.287 . S
C1993 C1992 1.287 . S
C1993 C1994 1.524 . S
C1993 H1996 0.999 . S
C1994 H1964 0.950 . S
C1994 C1993 1.524 . S
C1994 C1995 1.415 . S
C1995 H1965 0.950 . S
C1995 C1990 1.363 . S
C1995 C1994 1.415 . S
H1996 C1993 0.999 . S
H1997 C1978 0.913 . S
H1998 C2016 0.951 . S
H1999 C2018 0.951 . S
H2000 C2020 0.950 . S
H2001 C2021 0.950 . S
H2002 C2023 0.950 . S
H2003 C2026 0.950 . S
H2004 C2027 0.950 . S
H2005 C2029 0.950 . S
H2006 C2030 0.950 . S
H2007 C2031 0.951 . S
H2008 C2033 0.951 . S
H2009 C2035 0.950 . S
H2010 C2036 0.950 . S
H2011 C2038 0.950 . S
H2012 C2041 0.950 . S
H2013 C2042 0.950 . S
H2014 C2044 0.950 . S
H2015 C2045 0.950 . S
C2016 H1998 0.951 . S
C2016 C2017 1.366 . S
C2016 C2018 1.388 . S
C2017 C2016 1.366 . S
C2017 C2021 1.385 . S
C2018 H1999 0.951 . S
C2018 C2016 1.388 . S
C2018 C2019 1.366 . S
C2019 C2018 1.366 . S
C2019 C2020 1.414 . S
C2019 C2022 1.499 . S
C2020 H2000 0.950 . S
C2020 C2019 1.414 . S
C2020 C2021 1.374 . S
C2021 H2001 0.950 . S
C2021 C2017 1.385 . S
C2021 C2020 1.374 . S
C2022 C2019 1.499 . S
C2022 C2023 1.373 . S
C2022 C2024 1.389 . S
C2023 H2002 0.950 . S
C2023 C2022 1.373 . S
C2023 C2039 1.377 . S
C2024 C2022 1.389 . S
C2024 C2025 1.524 . S
C2024 C2038 1.377 . S
C2025 C2024 1.524 . S
C2025 C2026 1.397 . S
C2025 C2030 1.363 . S
C2026 H2003 0.950 . S
C2026 C2025 1.397 . S
C2026 C2027 1.334 . S
C2027 H2004 0.950 . S
C2027 C2026 1.334 . S
C2027 C2028 1.287 . S
C2028 C2027 1.287 . S
C2028 C2029 1.524 . S
C2028 H2047 0.913 . S
C2029 H2005 0.950 . S
C2029 C2028 1.524 . S
C2029 C2030 1.415 . S
C2030 H2006 0.950 . S
C2030 C2025 1.363 . S
C2030 C2029 1.415 . S
C2031 H2007 0.951 . S
C2031 C2032 1.366 . S
C2031 C2033 1.388 . S
C2032 C2031 1.366 . S
C2032 C2036 1.385 . S
C2033 H2008 0.951 . S
C2033 C2031 1.388 . S
C2033 C2034 1.366 . S
C2034 C2033 1.366 . S
C2034 C2035 1.414 . S
C2034 C2037 1.499 . S
C2035 H2009 0.950 . S
C2035 C2034 1.414 . S
C2035 C2036 1.374 . S
C2036 H2010 0.950 . S
C2036 C2032 1.385 . S
C2036 C2035 1.374 . S
C2037 C2034 1.499 . S
C2037 C2038 1.373 . S
C2037 C2039 1.389 . S
C2038 H2011 0.950 . S
C2038 C2024 1.377 . S
C2038 C2037 1.373 . S
C2039 C2023 1.377 . S
C2039 C2037 1.389 . S
C2039 C2040 1.524 . S
C2040 C2039 1.524 . S
C2040 C2041 1.397 . S
C2040 C2045 1.363 . S
C2041 H2012 0.950 . S
C2041 C2040 1.397 . S
C2041 C2042 1.334 . S
C2042 H2013 0.950 . S
C2042 C2041 1.334 . S
C2042 C2043 1.287 . S
C2043 C2042 1.287 . S
C2043 C2044 1.524 . S
C2043 H2046 0.999 1_554 S
C2044 H2014 0.950 . S
C2044 C2043 1.524 . S
C2044 C2045 1.415 . S
C2045 H2015 0.950 . S
C2045 C2040 1.363 . S
C2045 C2044 1.415 . S
H2046 C2043 0.999 1_556 S
H2047 C2028 0.913 . S
H2048 C2066 0.951 . S
H2049 C2068 0.951 . S
H2050 C2070 0.950 . S
H2051 C2071 0.950 . S
H2052 C2073 0.950 . S
H2053 C2076 0.950 . S
H2054 C2077 0.950 . S
H2055 C2079 0.950 . S
H2056 C2080 0.950 . S
H2057 C2081 0.951 . S
H2058 C2083 0.951 . S
H2059 C2085 0.950 . S
H2060 C2086 0.950 . S
H2061 C2088 0.950 . S
H2062 C2091 0.950 . S
H2063 C2092 0.950 . S
H2064 C2094 0.950 . S
H2065 C2095 0.950 . S
C2066 H2048 0.951 . S
C2066 C2067 1.366 . S
C2066 C2068 1.388 . S
C2067 C2066 1.366 . S
C2067 C2071 1.385 . S
C2068 H2049 0.951 . S
C2068 C2066 1.388 . S
C2068 C2069 1.366 . S
C2069 C2068 1.366 . S
C2069 C2070 1.414 . S
C2069 C2072 1.499 . S
C2070 H2050 0.950 . S
C2070 C2069 1.414 . S
C2070 C2071 1.374 . S
C2071 H2051 0.950 . S
C2071 C2067 1.385 . S
C2071 C2070 1.374 . S
C2072 C2069 1.499 . S
C2072 C2073 1.373 . S
C2072 C2074 1.389 . S
C2073 H2052 0.950 . S
C2073 C2072 1.373 . S
C2073 C2089 1.377 . S
C2074 C2072 1.389 . S
C2074 C2075 1.524 . S
C2074 C2088 1.377 . S
C2075 C2074 1.524 . S
C2075 C2076 1.397 . S
C2075 C2080 1.363 . S
C2076 H2053 0.950 . S
C2076 C2075 1.397 . S
C2076 C2077 1.334 . S
C2077 H2054 0.950 . S
C2077 C2076 1.334 . S
C2077 C2078 1.287 . S
C2078 C2077 1.287 . S
C2078 C2079 1.524 . S
C2078 H2097 0.913 . S
C2079 H2055 0.950 . S
C2079 C2078 1.524 . S
C2079 C2080 1.415 . S
C2080 H2056 0.950 . S
C2080 C2075 1.363 . S
C2080 C2079 1.415 . S
C2081 H2057 0.951 . S
C2081 C2082 1.366 . S
C2081 C2083 1.388 . S
C2082 C2081 1.366 . S
C2082 C2086 1.385 . S
C2083 H2058 0.951 . S
C2083 C2081 1.388 . S
C2083 C2084 1.366 . S
C2084 C2083 1.366 . S
C2084 C2085 1.414 . S
C2084 C2087 1.499 . S
C2085 H2059 0.950 . S
C2085 C2084 1.414 . S
C2085 C2086 1.374 . S
C2086 H2060 0.950 . S
C2086 C2082 1.385 . S
C2086 C2085 1.374 . S
C2087 C2084 1.499 . S
C2087 C2088 1.373 . S
C2087 C2089 1.389 . S
C2088 H2061 0.950 . S
C2088 C2074 1.377 . S
C2088 C2087 1.373 . S
C2089 C2073 1.377 . S
C2089 C2087 1.389 . S
C2089 C2090 1.524 . S
C2090 C2089 1.524 . S
C2090 C2091 1.397 . S
C2090 C2095 1.363 . S
C2091 H2062 0.950 . S
C2091 C2090 1.397 . S
C2091 C2092 1.334 . S
C2092 H2063 0.950 . S
C2092 C2091 1.334 . S
C2092 C2093 1.287 . S
C2093 C2092 1.287 . S
C2093 C2094 1.524 . S
C2093 H2096 0.999 . S
C2094 H2064 0.950 . S
C2094 C2093 1.524 . S
C2094 C2095 1.415 . S
C2095 H2065 0.950 . S
C2095 C2090 1.363 . S
C2095 C2094 1.415 . S
H2096 C2093 0.999 . S
H2097 C2078 0.913 . S
H2098 C2116 0.951 . S
H2099 C2118 0.951 . S
H2100 C2120 0.950 . S
H2101 C2121 0.950 . S
H2102 C2123 0.950 . S
H2103 C2126 0.950 . S
H2104 C2127 0.950 . S
H2105 C2129 0.950 . S
H2106 C2130 0.950 . S
H2107 C2131 0.951 . S
H2108 C2133 0.951 . S
H2109 C2135 0.950 . S
H2110 C2136 0.950 . S
H2111 C2138 0.950 . S
H2112 C2141 0.950 . S
H2113 C2142 0.950 . S
H2114 C2144 0.950 . S
H2115 C2145 0.950 . S
C2116 H2098 0.951 . S
C2116 C2117 1.366 . S
C2116 C2118 1.388 . S
C2117 C2116 1.366 . S
C2117 C2121 1.385 . S
C2118 H2099 0.951 . S
C2118 C2116 1.388 . S
C2118 C2119 1.366 . S
C2119 C2118 1.366 . S
C2119 C2120 1.414 . S
C2119 C2122 1.499 . S
C2120 H2100 0.950 . S
C2120 C2119 1.414 . S
C2120 C2121 1.374 . S
C2121 H2101 0.950 . S
C2121 C2117 1.385 . S
C2121 C2120 1.374 . S
C2122 C2119 1.499 . S
C2122 C2123 1.373 . S
C2122 C2124 1.389 . S
C2123 H2102 0.950 . S
C2123 C2122 1.373 . S
C2123 C2139 1.377 . S
C2124 C2122 1.389 . S
C2124 C2125 1.524 . S
C2124 C2138 1.377 . S
C2125 C2124 1.524 . S
C2125 C2126 1.397 . S
C2125 C2130 1.363 . S
C2126 H2103 0.950 . S
C2126 C2125 1.397 . S
C2126 C2127 1.334 . S
C2127 H2104 0.950 . S
C2127 C2126 1.334 . S
C2127 C2128 1.287 . S
C2128 C2127 1.287 . S
C2128 C2129 1.524 . S
C2128 H2147 0.913 . S
C2129 H2105 0.950 . S
C2129 C2128 1.524 . S
C2129 C2130 1.415 . S
C2130 H2106 0.950 . S
C2130 C2125 1.363 . S
C2130 C2129 1.415 . S
C2131 H2107 0.951 . S
C2131 C2132 1.366 . S
C2131 C2133 1.388 . S
C2132 C2131 1.366 . S
C2132 C2136 1.385 . S
C2133 H2108 0.951 . S
C2133 C2131 1.388 . S
C2133 C2134 1.366 . S
C2134 C2133 1.366 . S
C2134 C2135 1.414 . S
C2134 C2137 1.499 . S
C2135 H2109 0.950 . S
C2135 C2134 1.414 . S
C2135 C2136 1.374 . S
C2136 H2110 0.950 . S
C2136 C2132 1.385 . S
C2136 C2135 1.374 . S
C2137 C2134 1.499 . S
C2137 C2138 1.373 . S
C2137 C2139 1.389 . S
C2138 H2111 0.950 . S
C2138 C2124 1.377 . S
C2138 C2137 1.373 . S
C2139 C2123 1.377 . S
C2139 C2137 1.389 . S
C2139 C2140 1.524 . S
C2140 C2139 1.524 . S
C2140 C2141 1.397 . S
C2140 C2145 1.363 . S
C2141 H2112 0.950 . S
C2141 C2140 1.397 . S
C2141 C2142 1.334 . S
C2142 H2113 0.950 . S
C2142 C2141 1.334 . S
C2142 C2143 1.287 . S
C2143 C2142 1.287 . S
C2143 C2144 1.524 . S
C2143 H2146 0.999 . S
C2144 H2114 0.950 . S
C2144 C2143 1.524 . S
C2144 C2145 1.415 . S
C2145 H2115 0.950 . S
C2145 C2140 1.363 . S
C2145 C2144 1.415 . S
H2146 C2143 0.999 . S
H2147 C2128 0.913 . S
H2148 C2166 0.951 . S
H2149 C2168 0.951 . S
H2150 C2170 0.950 . S
H2151 C2171 0.950 . S
H2152 C2173 0.950 . S
H2153 C2176 0.950 . S
H2154 C2177 0.950 . S
H2155 C2179 0.950 . S
H2156 C2180 0.950 . S
H2157 C2181 0.951 . S
H2158 C2183 0.951 . S
H2159 C2185 0.950 . S
H2160 C2186 0.950 . S
H2161 C2188 0.950 . S
H2162 C2191 0.950 . S
H2163 C2192 0.950 . S
H2164 C2194 0.950 . S
H2165 C2195 0.950 . S
C2166 H2148 0.951 . S
C2166 C2167 1.366 . S
C2166 C2168 1.388 . S
C2167 C2166 1.366 . S
C2167 C2171 1.385 . S
C2168 H2149 0.951 . S
C2168 C2166 1.388 . S
C2168 C2169 1.366 . S
C2169 C2168 1.366 . S
C2169 C2170 1.414 . S
C2169 C2172 1.499 . S
C2170 H2150 0.950 . S
C2170 C2169 1.414 . S
C2170 C2171 1.374 . S
C2171 H2151 0.950 . S
C2171 C2167 1.385 . S
C2171 C2170 1.374 . S
C2172 C2169 1.499 . S
C2172 C2173 1.373 . S
C2172 C2174 1.389 . S
C2173 H2152 0.950 . S
C2173 C2172 1.373 . S
C2173 C2189 1.377 . S
C2174 C2172 1.389 . S
C2174 C2175 1.524 . S
C2174 C2188 1.377 . S
C2175 C2174 1.524 . S
C2175 C2176 1.397 . S
C2175 C2180 1.363 . S
C2176 H2153 0.950 . S
C2176 C2175 1.397 . S
C2176 C2177 1.334 . S
C2177 H2154 0.950 . S
C2177 C2176 1.334 . S
C2177 C2178 1.287 . S
C2178 C2177 1.287 . S
C2178 C2179 1.524 . S
C2178 H2197 0.913 . S
C2179 H2155 0.950 . S
C2179 C2178 1.524 . S
C2179 C2180 1.415 . S
C2180 H2156 0.950 . S
C2180 C2175 1.363 . S
C2180 C2179 1.415 . S
C2181 H2157 0.951 . S
C2181 C2182 1.366 . S
C2181 C2183 1.388 . S
C2182 C2181 1.366 . S
C2182 C2186 1.385 . S
C2183 H2158 0.951 . S
C2183 C2181 1.388 . S
C2183 C2184 1.366 . S
C2184 C2183 1.366 . S
C2184 C2185 1.414 . S
C2184 C2187 1.499 . S
C2185 H2159 0.950 . S
C2185 C2184 1.414 . S
C2185 C2186 1.374 . S
C2186 H2160 0.950 . S
C2186 C2182 1.385 . S
C2186 C2185 1.374 . S
C2187 C2184 1.499 . S
C2187 C2188 1.373 . S
C2187 C2189 1.389 . S
C2188 H2161 0.950 . S
C2188 C2174 1.377 . S
C2188 C2187 1.373 . S
C2189 C2173 1.377 . S
C2189 C2187 1.389 . S
C2189 C2190 1.524 . S
C2190 C2189 1.524 . S
C2190 C2191 1.397 . S
C2190 C2195 1.363 . S
C2191 H2162 0.950 . S
C2191 C2190 1.397 . S
C2191 C2192 1.334 . S
C2192 H2163 0.950 . S
C2192 C2191 1.334 . S
C2192 C2193 1.287 . S
C2193 C2192 1.287 . S
C2193 C2194 1.524 . S
C2193 H2196 0.999 . S
C2194 H2164 0.950 . S
C2194 C2193 1.524 . S
C2194 C2195 1.415 . S
C2195 H2165 0.950 . S
C2195 C2190 1.363 . S
C2195 C2194 1.415 . S
H2196 C2193 0.999 . S
H2197 C2178 0.913 . S
H2198 C2216 0.951 . S
H2199 C2218 0.951 . S
H2200 C2220 0.950 . S
H2201 C2221 0.950 . S
H2202 C2223 0.950 . S
H2203 C2226 0.950 . S
H2204 C2227 0.950 . S
H2205 C2229 0.950 . S
H2206 C2230 0.950 . S
H2207 C2231 0.951 . S
H2208 C2233 0.951 . S
H2209 C2235 0.950 . S
H2210 C2236 0.950 . S
H2211 C2238 0.950 . S
H2212 C2241 0.950 . S
H2213 C2242 0.950 . S
H2214 C2244 0.950 . S
H2215 C2245 0.950 . S
C2216 H2198 0.951 . S
C2216 C2217 1.366 . S
C2216 C2218 1.388 . S
C2217 C2216 1.366 . S
C2217 C2221 1.385 . S
C2218 H2199 0.951 . S
C2218 C2216 1.388 . S
C2218 C2219 1.366 . S
C2219 C2218 1.366 . S
C2219 C2220 1.414 . S
C2219 C2222 1.499 . S
C2220 H2200 0.950 . S
C2220 C2219 1.414 . S
C2220 C2221 1.374 . S
C2221 H2201 0.950 . S
C2221 C2217 1.385 . S
C2221 C2220 1.374 . S
C2222 C2219 1.499 . S
C2222 C2223 1.373 . S
C2222 C2224 1.389 . S
C2223 H2202 0.950 . S
C2223 C2222 1.373 . S
C2223 C2239 1.377 . S
C2224 C2222 1.389 . S
C2224 C2225 1.524 . S
C2224 C2238 1.377 . S
C2225 C2224 1.524 . S
C2225 C2226 1.397 . S
C2225 C2230 1.363 . S
C2226 H2203 0.950 . S
C2226 C2225 1.397 . S
C2226 C2227 1.334 . S
C2227 H2204 0.950 . S
C2227 C2226 1.334 . S
C2227 C2228 1.287 . S
C2228 C2227 1.287 . S
C2228 C2229 1.524 . S
C2228 H2247 0.913 . S
C2229 H2205 0.950 . S
C2229 C2228 1.524 . S
C2229 C2230 1.415 . S
C2230 H2206 0.950 . S
C2230 C2225 1.363 . S
C2230 C2229 1.415 . S
C2231 H2207 0.951 . S
C2231 C2232 1.366 . S
C2231 C2233 1.388 . S
C2232 C2231 1.366 . S
C2232 C2236 1.385 . S
C2233 H2208 0.951 . S
C2233 C2231 1.388 . S
C2233 C2234 1.366 . S
C2234 C2233 1.366 . S
C2234 C2235 1.414 . S
C2234 C2237 1.499 . S
C2235 H2209 0.950 . S
C2235 C2234 1.414 . S
C2235 C2236 1.374 . S
C2236 H2210 0.950 . S
C2236 C2232 1.385 . S
C2236 C2235 1.374 . S
C2237 C2234 1.499 . S
C2237 C2238 1.373 . S
C2237 C2239 1.389 . S
C2238 H2211 0.950 . S
C2238 C2224 1.377 . S
C2238 C2237 1.373 . S
C2239 C2223 1.377 . S
C2239 C2237 1.389 . S
C2239 C2240 1.524 . S
C2240 C2239 1.524 . S
C2240 C2241 1.397 . S
C2240 C2245 1.363 . S
C2241 H2212 0.950 . S
C2241 C2240 1.397 . S
C2241 C2242 1.334 . S
C2242 H2213 0.950 . S
C2242 C2241 1.334 . S
C2242 C2243 1.287 . S
C2243 C2242 1.287 . S
C2243 C2244 1.524 . S
C2243 H2246 0.999 . S
C2244 H2214 0.950 . S
C2244 C2243 1.524 . S
C2244 C2245 1.415 . S
C2245 H2215 0.950 . S
C2245 C2240 1.363 . S
C2245 C2244 1.415 . S
H2246 C2243 0.999 . S
H2247 C2228 0.913 . S
H2248 C2266 0.951 . S
H2249 C2268 0.951 . S
H2250 C2270 0.950 . S
H2251 C2271 0.950 . S
H2252 C2273 0.950 . S
H2253 C2276 0.950 . S
H2254 C2277 0.950 . S
H2255 C2279 0.950 . S
H2256 C2280 0.950 . S
H2257 C2281 0.951 . S
H2258 C2283 0.951 . S
H2259 C2285 0.950 . S
H2260 C2286 0.950 . S
H2261 C2288 0.950 . S
H2262 C2291 0.950 . S
H2263 C2292 0.950 . S
H2264 C2294 0.950 . S
H2265 C2295 0.950 . S
C2266 H2248 0.951 . S
C2266 C2267 1.366 . S
C2266 C2268 1.388 . S
C2267 C2266 1.366 . S
C2267 C2271 1.385 . S
C2268 H2249 0.951 . S
C2268 C2266 1.388 . S
C2268 C2269 1.366 . S
C2269 C2268 1.366 . S
C2269 C2270 1.414 . S
C2269 C2272 1.499 . S
C2270 H2250 0.950 . S
C2270 C2269 1.414 . S
C2270 C2271 1.374 . S
C2271 H2251 0.950 . S
C2271 C2267 1.385 . S
C2271 C2270 1.374 . S
C2272 C2269 1.499 . S
C2272 C2273 1.373 . S
C2272 C2274 1.389 . S
C2273 H2252 0.950 . S
C2273 C2272 1.373 . S
C2273 C2289 1.377 . S
C2274 C2272 1.389 . S
C2274 C2275 1.524 . S
C2274 C2288 1.377 . S
C2275 C2274 1.524 . S
C2275 C2276 1.397 . S
C2275 C2280 1.363 . S
C2276 H2253 0.950 . S
C2276 C2275 1.397 . S
C2276 C2277 1.334 . S
C2277 H2254 0.950 . S
C2277 C2276 1.334 . S
C2277 C2278 1.287 . S
C2278 C2277 1.287 . S
C2278 C2279 1.524 . S
C2278 H2297 0.913 . S
C2279 H2255 0.950 . S
C2279 C2278 1.524 . S
C2279 C2280 1.415 . S
C2280 H2256 0.950 . S
C2280 C2275 1.363 . S
C2280 C2279 1.415 . S
C2281 H2257 0.951 . S
C2281 C2282 1.366 . S
C2281 C2283 1.388 . S
C2282 C2281 1.366 . S
C2282 C2286 1.385 . S
C2283 H2258 0.951 . S
C2283 C2281 1.388 . S
C2283 C2284 1.366 . S
C2284 C2283 1.366 . S
C2284 C2285 1.414 . S
C2284 C2287 1.499 . S
C2285 H2259 0.950 . S
C2285 C2284 1.414 . S
C2285 C2286 1.374 . S
C2286 H2260 0.950 . S
C2286 C2282 1.385 . S
C2286 C2285 1.374 . S
C2287 C2284 1.499 . S
C2287 C2288 1.373 . S
C2287 C2289 1.389 . S
C2288 H2261 0.950 . S
C2288 C2274 1.377 . S
C2288 C2287 1.373 . S
C2289 C2273 1.377 . S
C2289 C2287 1.389 . S
C2289 C2290 1.524 . S
C2290 C2289 1.524 . S
C2290 C2291 1.397 . S
C2290 C2295 1.363 . S
C2291 H2262 0.950 . S
C2291 C2290 1.397 . S
C2291 C2292 1.334 . S
C2292 H2263 0.950 . S
C2292 C2291 1.334 . S
C2292 C2293 1.287 . S
C2293 C2292 1.287 . S
C2293 C2294 1.524 . S
C2293 H2296 0.999 . S
C2294 H2264 0.950 . S
C2294 C2293 1.524 . S
C2294 C2295 1.415 . S
C2295 H2265 0.950 . S
C2295 C2290 1.363 . S
C2295 C2294 1.415 . S
H2296 C2293 0.999 . S
H2297 C2278 0.913 . S
H2298 C2316 0.951 . S
H2299 C2318 0.951 . S
H2300 C2320 0.950 . S
H2301 C2321 0.950 . S
H2302 C2323 0.950 . S
H2303 C2326 0.950 . S
H2304 C2327 0.950 . S
H2305 C2329 0.950 . S
H2306 C2330 0.950 . S
H2307 C2331 0.951 . S
H2308 C2333 0.951 . S
H2309 C2335 0.950 . S
H2310 C2336 0.950 . S
H2311 C2338 0.950 . S
H2312 C2341 0.950 . S
H2313 C2342 0.950 . S
H2314 C2344 0.950 . S
H2315 C2345 0.950 . S
C2316 H2298 0.951 . S
C2316 C2317 1.366 . S
C2316 C2318 1.388 . S
C2317 C2316 1.366 . S
C2317 C2321 1.385 . S
C2318 H2299 0.951 . S
C2318 C2316 1.388 . S
C2318 C2319 1.366 . S
C2319 C2318 1.366 . S
C2319 C2320 1.414 . S
C2319 C2322 1.499 . S
C2320 H2300 0.950 . S
C2320 C2319 1.414 . S
C2320 C2321 1.374 . S
C2321 H2301 0.950 . S
C2321 C2317 1.385 . S
C2321 C2320 1.374 . S
C2322 C2319 1.499 . S
C2322 C2323 1.373 . S
C2322 C2324 1.389 . S
C2323 H2302 0.950 . S
C2323 C2322 1.373 . S
C2323 C2339 1.377 . S
C2324 C2322 1.389 . S
C2324 C2325 1.524 . S
C2324 C2338 1.377 . S
C2325 C2324 1.524 . S
C2325 C2326 1.397 . S
C2325 C2330 1.363 . S
C2326 H2303 0.950 . S
C2326 C2325 1.397 . S
C2326 C2327 1.334 . S
C2327 H2304 0.950 . S
C2327 C2326 1.334 . S
C2327 C2328 1.287 . S
C2328 C2327 1.287 . S
C2328 C2329 1.524 . S
C2328 H2347 0.913 . S
C2329 H2305 0.950 . S
C2329 C2328 1.524 . S
C2329 C2330 1.415 . S
C2330 H2306 0.950 . S
C2330 C2325 1.363 . S
C2330 C2329 1.415 . S
C2331 H2307 0.951 . S
C2331 C2332 1.366 . S
C2331 C2333 1.388 . S
C2332 C2331 1.366 . S
C2332 C2336 1.385 . S
C2333 H2308 0.951 . S
C2333 C2331 1.388 . S
C2333 C2334 1.366 . S
C2334 C2333 1.366 . S
C2334 C2335 1.414 . S
C2334 C2337 1.499 . S
C2335 H2309 0.950 . S
C2335 C2334 1.414 . S
C2335 C2336 1.374 . S
C2336 H2310 0.950 . S
C2336 C2332 1.385 . S
C2336 C2335 1.374 . S
C2337 C2334 1.499 . S
C2337 C2338 1.373 . S
C2337 C2339 1.389 . S
C2338 H2311 0.950 . S
C2338 C2324 1.377 . S
C2338 C2337 1.373 . S
C2339 C2323 1.377 . S
C2339 C2337 1.389 . S
C2339 C2340 1.524 . S
C2340 C2339 1.524 . S
C2340 C2341 1.397 . S
C2340 C2345 1.363 . S
C2341 H2312 0.950 . S
C2341 C2340 1.397 . S
C2341 C2342 1.334 . S
C2342 H2313 0.950 . S
C2342 C2341 1.334 . S
C2342 C2343 1.287 . S
C2343 C2342 1.287 . S
C2343 C2344 1.524 . S
C2343 H2346 0.999 . S
C2344 H2314 0.950 . S
C2344 C2343 1.524 . S
C2344 C2345 1.415 . S
C2345 H2315 0.950 . S
C2345 C2340 1.363 . S
C2345 C2344 1.415 . S
H2346 C2343 0.999 . S
H2347 C2328 0.913 . S
H2348 C2366 0.951 . S
H2349 C2368 0.951 . S
H2350 C2370 0.950 . S
H2351 C2371 0.950 . S
H2352 C2373 0.950 . S
H2353 C2376 0.950 . S
H2354 C2377 0.950 . S
H2355 C2379 0.950 . S
H2356 C2380 0.950 . S
H2357 C2381 0.951 . S
H2358 C2383 0.951 . S
H2359 C2385 0.950 . S
H2360 C2386 0.950 . S
H2361 C2388 0.950 . S
H2362 C2391 0.950 . S
H2363 C2392 0.950 . S
H2364 C2394 0.950 . S
H2365 C2395 0.950 . S
C2366 H2348 0.951 . S
C2366 C2367 1.366 . S
C2366 C2368 1.388 . S
C2367 C2366 1.366 . S
C2367 C2371 1.385 . S
C2368 H2349 0.951 . S
C2368 C2366 1.388 . S
C2368 C2369 1.366 . S
C2369 C2368 1.366 . S
C2369 C2370 1.414 . S
C2369 C2372 1.499 . S
C2370 H2350 0.950 . S
C2370 C2369 1.414 . S
C2370 C2371 1.374 . S
C2371 H2351 0.950 . S
C2371 C2367 1.385 . S
C2371 C2370 1.374 . S
C2372 C2369 1.499 . S
C2372 C2373 1.373 . S
C2372 C2374 1.389 . S
C2373 H2352 0.950 . S
C2373 C2372 1.373 . S
C2373 C2389 1.377 . S
C2374 C2372 1.389 . S
C2374 C2375 1.524 . S
C2374 C2388 1.377 . S
C2375 C2374 1.524 . S
C2375 C2376 1.397 . S
C2375 C2380 1.363 . S
C2376 H2353 0.950 . S
C2376 C2375 1.397 . S
C2376 C2377 1.334 . S
C2377 H2354 0.950 . S
C2377 C2376 1.334 . S
C2377 C2378 1.287 . S
C2378 C2377 1.287 . S
C2378 C2379 1.524 . S
C2378 H2397 0.913 . S
C2379 H2355 0.950 . S
C2379 C2378 1.524 . S
C2379 C2380 1.415 . S
C2380 H2356 0.950 . S
C2380 C2375 1.363 . S
C2380 C2379 1.415 . S
C2381 H2357 0.951 . S
C2381 C2382 1.366 . S
C2381 C2383 1.388 . S
C2382 C2381 1.366 . S
C2382 C2386 1.385 . S
C2383 H2358 0.951 . S
C2383 C2381 1.388 . S
C2383 C2384 1.366 . S
C2384 C2383 1.366 . S
C2384 C2385 1.414 . S
C2384 C2387 1.499 . S
C2385 H2359 0.950 . S
C2385 C2384 1.414 . S
C2385 C2386 1.374 . S
C2386 H2360 0.950 . S
C2386 C2382 1.385 . S
C2386 C2385 1.374 . S
C2387 C2384 1.499 . S
C2387 C2388 1.373 . S
C2387 C2389 1.389 . S
C2388 H2361 0.950 . S
C2388 C2374 1.377 . S
C2388 C2387 1.373 . S
C2389 C2373 1.377 . S
C2389 C2387 1.389 . S
C2389 C2390 1.524 . S
C2390 C2389 1.524 . S
C2390 C2391 1.397 . S
C2390 C2395 1.363 . S
C2391 H2362 0.950 . S
C2391 C2390 1.397 . S
C2391 C2392 1.334 . S
C2392 H2363 0.950 . S
C2392 C2391 1.334 . S
C2392 C2393 1.287 . S
C2393 C2392 1.287 . S
C2393 C2394 1.524 . S
C2393 H2396 0.999 . S
C2394 H2364 0.950 . S
C2394 C2393 1.524 . S
C2394 C2395 1.415 . S
C2395 H2365 0.950 . S
C2395 C2390 1.363 . S
C2395 C2394 1.415 . S
H2396 C2393 0.999 . S
H2397 C2378 0.913 . S
H2398 C2416 0.951 . S
H2399 C2418 0.951 . S
H2400 C2420 0.950 . S
H2401 C2421 0.950 . S
H2402 C2423 0.950 . S
H2403 C2426 0.950 . S
H2404 C2427 0.950 . S
H2405 C2429 0.950 . S
H2406 C2430 0.950 . S
H2407 C2431 0.951 . S
H2408 C2433 0.951 . S
H2409 C2435 0.950 . S
H2410 C2436 0.950 . S
H2411 C2438 0.950 . S
H2412 C2441 0.950 . S
H2413 C2442 0.950 . S
H2414 C2444 0.950 . S
H2415 C2445 0.950 . S
C2416 H2398 0.951 . S
C2416 C2417 1.366 . S
C2416 C2418 1.388 . S
C2417 C2416 1.366 . S
C2417 C2421 1.385 . S
C2418 H2399 0.951 . S
C2418 C2416 1.388 . S
C2418 C2419 1.366 . S
C2419 C2418 1.366 . S
C2419 C2420 1.414 . S
C2419 C2422 1.499 . S
C2420 H2400 0.950 . S
C2420 C2419 1.414 . S
C2420 C2421 1.374 . S
C2421 H2401 0.950 . S
C2421 C2417 1.385 . S
C2421 C2420 1.374 . S
C2422 C2419 1.499 . S
C2422 C2423 1.373 . S
C2422 C2424 1.389 . S
C2423 H2402 0.950 . S
C2423 C2422 1.373 . S
C2423 C2439 1.377 . S
C2424 C2422 1.389 . S
C2424 C2425 1.524 . S
C2424 C2438 1.377 . S
C2425 C2424 1.524 . S
C2425 C2426 1.397 . S
C2425 C2430 1.363 . S
C2426 H2403 0.950 . S
C2426 C2425 1.397 . S
C2426 C2427 1.334 . S
C2427 H2404 0.950 . S
C2427 C2426 1.334 . S
C2427 C2428 1.287 . S
C2428 C2427 1.287 . S
C2428 C2429 1.524 . S
C2428 H2447 0.913 . S
C2429 H2405 0.950 . S
C2429 C2428 1.524 . S
C2429 C2430 1.415 . S
C2430 H2406 0.950 . S
C2430 C2425 1.363 . S
C2430 C2429 1.415 . S
C2431 H2407 0.951 . S
C2431 C2432 1.366 . S
C2431 C2433 1.388 . S
C2432 C2431 1.366 . S
C2432 C2436 1.385 . S
C2433 H2408 0.951 . S
C2433 C2431 1.388 . S
C2433 C2434 1.366 . S
C2434 C2433 1.366 . S
C2434 C2435 1.414 . S
C2434 C2437 1.499 . S
C2435 H2409 0.950 . S
C2435 C2434 1.414 . S
C2435 C2436 1.374 . S
C2436 H2410 0.950 . S
C2436 C2432 1.385 . S
C2436 C2435 1.374 . S
C2437 C2434 1.499 . S
C2437 C2438 1.373 . S
C2437 C2439 1.389 . S
C2438 H2411 0.950 . S
C2438 C2424 1.377 . S
C2438 C2437 1.373 . S
C2439 C2423 1.377 . S
C2439 C2437 1.389 . S
C2439 C2440 1.524 . S
C2440 C2439 1.524 . S
C2440 C2441 1.397 . S
C2440 C2445 1.363 . S
C2441 H2412 0.950 . S
C2441 C2440 1.397 . S
C2441 C2442 1.334 . S
C2442 H2413 0.950 . S
C2442 C2441 1.334 . S
C2442 C2443 1.287 . S
C2443 C2442 1.287 . S
C2443 C2444 1.524 . S
C2443 H2446 0.999 . S
C2444 H2414 0.950 . S
C2444 C2443 1.524 . S
C2444 C2445 1.415 . S
C2445 H2415 0.950 . S
C2445 C2440 1.363 . S
C2445 C2444 1.415 . S
H2446 C2443 0.999 . S
H2447 C2428 0.913 . S
C867 C38 2.027 . S
C882 C251 2.026 . S
C917 C82 0.402 . S
C932 C294 0.396 . S
C967 C347 0.375 . S
C982 C135 0.374 . S
C1017 C188 1.192 . S
C1032 C410 1.193 . S
C1067 C250 2.029 . S
C1082 C39 2.030 . S
C1117 C552 0.395 . S
C1132 C446 0.401 . S
C1167 C340 0.375 . S
C1182 C128 0.368 . S
C1217 C499 1.192 . S
C1232 C621 1.193 . S
C1267 C674 1.220 . S
C1282 C764 1.222 . S
C1317 C453 0.368 . S
C1332 C559 0.364 . S
C1367 C718 0.369 . S
C1382 C824 0.370 . S
C1417 C622 1.221 . S
C1432 C506 1.221 . S
C1467 C771 1.219 . S
C1482 C675 1.217 . S
C1517 C75 0.370 . S
C1532 C287 0.365 . S
C1567 C711 0.369 . S
C1582 C817 0.375 . S
C1617 C409 1.221 . S
C1632 C181 1.221 . S
C1667 C29 1.165 . S
C1682 C393 1.159 . S
C1717 C234 1.441 . S
C1732 C91 1.442 . S
C1767 C303 1.989 . S
C1782 C144 1.994 . S
C1817 C197 1.649 . S
C1832 C356 1.648 . S
C1867 C22 1.164 . S
C1882 C612 1.171 . S
C1917 C463 1.442 . S
C1932 C241 1.441 . S
C1967 C569 1.990 . S
C1982 C145 1.987 . S
C2017 C516 1.649 . S
C2032 C357 1.650 . S
C2067 C665 1.172 . S
C2082 C605 1.172 . S
C2117 C781 1.462 . S
C2132 C462 1.463 . S
C2167 C568 1.993 . S
C2182 C727 1.995 . S
C2217 C833 1.648 . S
C2232 C515 1.652 . S
C2267 C400 1.172 . S
C2282 C658 1.173 . S
C2317 C780 1.462 . S
C2332 C92 1.460 . S
C2367 C304 1.993 . S
C2382 C728 1.991 . S
C2417 C834 1.649 . S
C2432 C198 1.646 . S
