# Generated by pormake.
# Topology dft, (4)-cn, num edge types: 1
# Building blocks:
#     Node 0, Type 0, BuildingBlock: UXUYUI_clean_sbu_0, # of connection points: 4
#     Node 1, Type 0, BuildingBlock: UXUYUI_clean_sbu_0, # of connection points: 4
#     Node 2, Type 0, BuildingBlock: UXUYUI_clean_sbu_0, # of connection points: 4
#     Node 3, Type 0, BuildingBlock: UXUYUI_clean_sbu_0, # of connection points: 4
#     Node 4, Type 0, BuildingBlock: UXUYUI_clean_sbu_0, # of connection points: 4
#     Node 5, Type 0, BuildingBlock: UXUYUI_clean_sbu_0, # of connection points: 4
#     Node 6, Type 0, BuildingBlock: UXUYUI_clean_sbu_0, # of connection points: 4
#     Node 7, Type 0, BuildingBlock: UXUYUI_clean_sbu_0, # of connection points: 4
#     Edge 8, Type (0, 0), BuildingBlock: TEMPAE_clean_linker_10, # of connection points: 2
#     Edge 9, Type (0, 0), BuildingBlock: TEMPAE_clean_linker_10, # of connection points: 2
#     Edge 10, Type (0, 0), BuildingBlock: TEMPAE_clean_linker_10, # of connection points: 2
#     Edge 11, Type (0, 0), BuildingBlock: TEMPAE_clean_linker_10, # of connection points: 2
#     Edge 12, Type (0, 0), BuildingBlock: TEMPAE_clean_linker_10, # of connection points: 2
#     Edge 13, Type (0, 0), BuildingBlock: TEMPAE_clean_linker_10, # of connection points: 2
#     Edge 14, Type (0, 0), BuildingBlock: TEMPAE_clean_linker_10, # of connection points: 2
#     Edge 15, Type (0, 0), BuildingBlock: TEMPAE_clean_linker_10, # of connection points: 2
#     Edge 16, Type (0, 0), BuildingBlock: TEMPAE_clean_linker_10, # of connection points: 2
#     Edge 17, Type (0, 0), BuildingBlock: TEMPAE_clean_linker_10, # of connection points: 2
#     Edge 18, Type (0, 0), BuildingBlock: TEMPAE_clean_linker_10, # of connection points: 2
#     Edge 19, Type (0, 0), BuildingBlock: TEMPAE_clean_linker_10, # of connection points: 2
#     Edge 20, Type (0, 0), BuildingBlock: TEMPAE_clean_linker_10, # of connection points: 2
#     Edge 21, Type (0, 0), BuildingBlock: TEMPAE_clean_linker_10, # of connection points: 2
#     Edge 22, Type (0, 0), BuildingBlock: TEMPAE_clean_linker_10, # of connection points: 2
#     Edge 23, Type (0, 0), BuildingBlock: TEMPAE_clean_linker_10, # of connection points: 2
# Relax obj value: 0.226
# Max RMSD: 0.178
# Mean RMSD: 0.177
data_MOF--net-dft--node1-UXUYUI_clean_sbu_0--edge1-TEMPAE_clean_linker_10
_symmetry_space_group_name_H-M    P1
_symmetry_Int_Tables_number       1
_symmetry_cell_setting            triclinic
loop_
_symmetry_equiv_pos_as_xyz
'x, y, z'
_cell_length_a     50.820929
_cell_length_b     50.708333
_cell_length_c     58.699543
_cell_angle_alpha  90.059402
_cell_angle_beta   90.014036
_cell_angle_gamma 89.985057
loop_
_atom_site_label
_atom_site_type_symbol
_atom_site_fract_x
_atom_site_fract_y
_atom_site_fract_z
_atom_type_partial_charge
Li0 Li 0.27055 0.01764 0.19846 0.0
Li1 Li 0.31038 0.99417 0.20027 0.0
Li2 Li 0.28492 0.99459 0.16521 0.0
Li3 Li 0.26947 0.97081 0.19931 0.0
C4 C 0.31601 0.04629 0.18772 0.0
N5 N 0.34389 0.08967 0.20288 0.0
C6 C 0.31538 0.05337 0.21074 0.0
C7 C 0.33082 0.06126 0.17242 0.0
C8 C 0.3296 0.07537 0.21807 0.0
C9 C 0.34477 0.08313 0.18041 0.0
C10 C 0.28958 0.9797 0.24184 0.0
C11 C 0.31107 0.94142 0.25763 0.0
N12 N 0.3041 0.94944 0.27891 0.0
C13 C 0.28263 0.98754 0.26386 0.0
C14 C 0.30393 0.95643 0.23868 0.0
C15 C 0.29016 0.97198 0.28238 0.0
C16 C 0.23679 0.04478 0.22755 0.0
N17 N 0.252 0.04779 0.20872 0.0
C18 C 0.23834 0.09258 0.20469 0.0
C19 C 0.25319 0.07106 0.19731 0.0
C20 C 0.22213 0.08997 0.22394 0.0
C21 C 0.22161 0.06574 0.23552 0.0
H22 H 0.23621 0.02595 0.23617 0.0
H23 H 0.26527 0.07275 0.18222 0.0
C24 C 0.36374 0.98455 0.19682 0.0
N25 N 0.34522 0.9941 0.21128 0.0
C26 C 0.39018 0.98496 0.20299 0.0
C27 C 0.37796 0.00491 0.23894 0.0
C28 C 0.35167 0.00402 0.23208 0.0
C29 C 0.39757 0.99541 0.22423 0.0
H30 H 0.35794 0.97712 0.18029 0.0
H31 H 0.3365 0.01164 0.24318 0.0
C32 C 0.22881 0.01031 0.17322 0.0
N33 N 0.18812 0.0447 0.16359 0.0
C34 C 0.20461 0.00767 0.18429 0.0
C35 C 0.23227 0.03037 0.15718 0.0
C36 C 0.1843 0.02529 0.17921 0.0
C37 C 0.21147 0.04755 0.15255 0.0
C38 C 0.29914 0.942 0.1669 0.0
C39 C 0.27492 0.936 0.15684 0.0
C40 C 0.3209 0.92588 0.16265 0.0
C41 C 0.27288 0.91392 0.14272 0.0
C42 C 0.31805 0.90395 0.14843 0.0
N43 N 0.29431 0.89848 0.13884 0.0
C44 C 0.31056 -0.00013 0.12315 0.0
C45 C 0.26567 0.98747 0.12044 0.0
C46 C 0.31305 -0.00057 0.09946 0.0
N47 N 0.28712 0.99402 0.13305 0.0
C48 C 0.26724 0.98688 0.09672 0.0
C49 C 0.29115 0.99296 0.08594 0.0
H50 H 0.32728 0.0049 0.1337 0.0
H51 H 0.24734 0.98265 0.12881 0.0
C52 C 0.22876 0.94775 0.2232 0.0
N53 N 0.25073 0.94151 0.21119 0.0
C54 C 0.21339 0.92796 0.23285 0.0
C55 C 0.24405 0.89561 0.2183 0.0
C56 C 0.25895 0.9161 0.20906 0.0
C57 C 0.22076 0.90143 0.23018 0.0
H58 H 0.22338 0.96821 0.22546 0.0
H59 H 0.27708 0.91162 0.20031 0.0
O60 O 0.30245 0.02471 0.18006 0.0
O61 O 0.28211 0.99479 0.22364 0.0
O62 O 0.24922 0.99376 0.17842 0.0
O63 O 0.30186 0.96374 0.18052 0.0
H64 H 0.30407 0.04204 0.22287 0.0
H65 H 0.33153 0.05599 0.15455 0.0
H66 H 0.3293 0.08105 0.23583 0.0
H67 H 0.35633 0.09489 0.16875 0.0
H68 H 0.32216 0.92338 0.25542 0.0
H69 H 0.27152 0.00548 0.26659 0.0
H70 H 0.30954 0.94997 0.22183 0.0
H71 H 0.28491 0.97783 0.29951 0.0
H72 H 0.23902 0.11082 0.19513 0.0
H73 H 0.20958 0.06301 0.25056 0.0
H74 H 0.40474 0.97794 0.19096 0.0
H75 H 0.3829 0.01307 0.25545 0.0
H76 H 0.20152 0.99226 0.1967 0.0
H77 H 0.251 0.03298 0.14872 0.0
H78 H 0.1655 0.02354 0.18772 0.0
H79 H 0.21394 0.06327 0.14029 0.0
H80 H 0.25781 0.94813 0.15999 0.0
H81 H 0.3398 0.93027 0.17027 0.0
H82 H 0.25426 0.90904 0.13485 0.0
H83 H 0.33473 0.89129 0.14501 0.0
H84 H 0.33177 0.00444 0.0918 0.0
H85 H 0.25 0.98142 0.08694 0.0
H86 H 0.19602 0.93341 0.24244 0.0
H87 H 0.2505 0.87545 0.21587 0.0
Li88 Li 0.99573 0.29607 0.66712 0.0
Li89 Li 0.99423 0.31704 0.70519 0.0
Li90 Li 0.01888 0.27675 0.7006 0.0
Li91 Li 0.9702 0.27798 0.69916 0.0
C92 C 0.04837 0.31073 0.67284 0.0
N93 N 0.09388 0.30989 0.64712 0.0
C94 C 0.06461 0.33294 0.67199 0.0
C95 C 0.05531 0.28807 0.66067 0.0
C96 C 0.08753 0.33213 0.65887 0.0
C97 C 0.07838 0.28804 0.64775 0.0
C98 C 0.9385 0.313 0.68054 0.0
C99 C 0.89501 0.31669 0.6967 0.0
N100 N 0.88441 0.31324 0.67564 0.0
C101 C 0.92718 0.30979 0.65902 0.0
C102 C 0.9223 0.31677 0.69951 0.0
C103 C 0.8998 0.30987 0.6569 0.0
C104 C 0.98182 0.2826 0.6226 0.0
N105 N -0.00342 0.29979 0.63496 0.0
C106 C 0.01274 0.31998 0.60097 0.0
C107 C 0.0116 0.31853 0.6247 0.0
C108 C -0.00223 0.30239 0.58782 0.0
C109 C 0.98196 0.28368 0.59886 0.0
H110 H 0.96997 0.26799 0.63125 0.0
H111 H 0.02281 0.33226 0.63491 0.0
C112 C 0.01543 0.35731 0.73308 0.0
N113 N 0.99453 0.35013 0.72003 0.0
C114 C 0.01621 0.38225 0.74315 0.0
C115 C 0.97414 0.39194 0.72581 0.0
C116 C 0.974 0.36672 0.71642 0.0
C117 C 0.99558 0.40017 0.7392 0.0
H118 H 0.03171 0.34383 0.73533 0.0
H119 H 0.95789 0.3607 0.7056 0.0
C120 C 0.99562 0.23383 0.67223 0.0
N121 N -0.00318 0.18125 0.65975 0.0
C122 C 0.98465 0.21466 0.68645 0.0
C123 C 0.00708 0.22622 0.65159 0.0
C124 C 0.98549 0.18819 0.67987 0.0
C125 C 0.00753 0.19955 0.64561 0.0
C126 C -0.00375 0.29597 0.74635 0.0
C127 C 0.02042 0.29494 0.75767 0.0
C128 C 0.97473 0.30806 0.75689 0.0
C129 C 0.02278 0.30644 0.77922 0.0
C130 C 0.97789 0.31938 0.77842 0.0
N131 N 0.00165 0.31836 0.78904 0.0
C132 C 0.07217 0.26967 0.71384 0.0
C133 C 0.04591 0.23107 0.71462 0.0
C134 C 0.09401 0.25553 0.72154 0.0
N135 N 0.04881 0.25721 0.7103 0.0
C136 C 0.0672 0.21617 0.72219 0.0
C137 C 0.09165 0.22838 0.72569 0.0
H138 H 0.0738 0.29066 0.71101 0.0
H139 H 0.02697 0.22186 0.71263 0.0
C140 C 0.92363 0.24916 0.68968 0.0
N141 N 0.93986 0.25809 0.70641 0.0
C142 C 0.90233 0.23297 0.6951 0.0
C143 C 0.91521 0.23524 0.73475 0.0
C144 C 0.93598 0.25166 0.72862 0.0
C145 C 0.89826 0.22555 0.71785 0.0
H146 H 0.92761 0.25412 0.67211 0.0
H147 H 0.94947 0.25868 0.74149 0.0
O148 O 0.02582 0.31135 0.68554 0.0
O149 O 0.96529 0.31266 0.683 0.0
O150 O 0.99454 0.25995 0.67814 0.0
O151 O 0.99362 0.28501 0.72515 0.0
H152 H 0.0595 0.35062 0.68136 0.0
H153 H 0.04311 0.27068 0.66129 0.0
H154 H 0.10027 0.34919 0.65803 0.0
H155 H 0.08398 0.27063 0.63825 0.0
H156 H 0.88225 0.31935 0.71128 0.0
H157 H 0.93937 0.30725 0.6441 0.0
H158 H 0.93071 0.31949 0.71626 0.0
H159 H 0.89078 0.30726 0.64036 0.0
H160 H 0.02496 0.33481 0.59295 0.0
H161 H 0.97026 0.26974 0.58921 0.0
H162 H 0.03306 0.38761 0.75345 0.0
H163 H 0.95813 0.40519 0.72171 0.0
H164 H 0.97593 0.22006 0.70259 0.0
H165 H 0.0155 0.24073 0.64023 0.0
H166 H 0.97719 0.17316 0.69078 0.0
H167 H 0.01636 0.19342 0.62969 0.0
H168 H 0.03724 0.28551 0.74989 0.0
H169 H 0.95582 0.30884 0.74849 0.0
H170 H 0.04142 0.30592 0.78811 0.0
H171 H 0.96144 0.32896 0.7867 0.0
H172 H 0.11252 0.26568 0.72414 0.0
H173 H 0.06441 0.1954 0.72576 0.0
H174 H 0.88978 0.22554 0.68163 0.0
H175 H 0.9126 0.22988 0.75246 0.0
Li176 Li 0.67909 0.00376 0.19479 0.0
Li177 Li 0.71697 0.97723 0.19407 0.0
Li178 Li 0.72173 0.02457 0.19497 0.0
Li179 Li 0.70453 0.00038 0.15969 0.0
C180 C 0.69695 0.98885 0.23736 0.0
N181 N 0.6778 0.96248 0.27505 0.0
C182 C 0.68291 0.96535 0.23469 0.0
C183 C 0.70122 -0.00106 0.25921 0.0
C184 C 0.6734 0.95231 0.25394 0.0
C185 C 0.69139 0.98532 0.27805 0.0
C186 C 0.67896 0.94867 0.16651 0.0
C187 C 0.68655 0.91434 0.13879 0.0
N188 N 0.6668 0.89992 0.14822 0.0
C189 C 0.65859 0.9336 0.1758 0.0
C190 C 0.69295 0.93905 0.14775 0.0
C191 C 0.65281 0.90897 0.16636 0.0
C192 C 0.62549 -0.00245 0.19037 0.0
N193 N 0.64403 0.0069 0.20491 0.0
C194 C 0.61108 0.02049 0.23143 0.0
C195 C 0.63749 0.01828 0.22512 0.0
C196 C 0.59149 0.01112 0.21663 0.0
C197 C 0.59897 -0.00055 0.19592 0.0
H198 H 0.63137 0.98882 0.17435 0.0
H199 H 0.65274 0.02585 0.23619 0.0
C200 C 0.75163 0.95171 0.22292 0.0
N201 N 0.73378 0.94654 0.20626 0.0
C202 C 0.76636 0.93138 0.23252 0.0
C203 C 0.74313 0.90043 0.20853 0.0
C204 C 0.72909 0.92144 0.19916 0.0
C205 C 0.76235 0.90529 0.22523 0.0
H206 H 0.75481 0.97182 0.2284 0.0
H207 H 0.7147 0.91752 0.18617 0.0
C208 C 0.67089 0.05021 0.17726 0.0
N209 N 0.62801 0.08293 0.18329 0.0
C210 C 0.65021 0.04984 0.16158 0.0
C211 C 0.66991 0.06733 0.19591 0.0
C212 C 0.62865 0.0665 0.16496 0.0
C213 C 0.64803 0.08371 0.19867 0.0
C214 C 0.76343 0.98624 0.17508 0.0
C215 C 0.78319 0.99458 0.19001 0.0
C216 C 0.7676 0.96408 0.16138 0.0
C217 C 0.80664 0.98027 0.19129 0.0
C218 C 0.7913 0.95027 0.16319 0.0
N219 N 0.81015 0.95856 0.178 0.0
C220 C 0.75223 0.05206 0.22662 0.0
C221 C 0.74559 0.07446 0.19162 0.0
C222 C 0.76761 0.07275 0.23482 0.0
N223 N 0.74175 0.05329 0.20537 0.0
C224 C 0.76089 0.09562 0.19912 0.0
C225 C 0.77221 0.09484 0.22096 0.0
H226 H 0.74895 0.03479 0.23703 0.0
H227 H 0.73686 0.07481 0.17481 0.0
C228 C 0.67952 -0.00366 0.11725 0.0
N229 N 0.70305 0.00064 0.12759 0.0
C230 C 0.67778 0.99614 0.09353 0.0
C231 C 0.72455 0.00477 0.09165 0.0
C232 C 0.72537 0.00482 0.11541 0.0
C233 C 0.70051 0.00039 0.08041 0.0
H234 H 0.66216 0.99284 0.12748 0.0
H235 H 0.74379 0.00818 0.12419 0.0
O236 O 0.70639 0.00211 0.21878 0.0
O237 O 0.68459 0.97299 0.1754 0.0
O238 O 0.69171 0.0334 0.17473 0.0
O239 O 0.74008 -0.00038 0.17403 0.0
H240 H 0.67944 0.95722 0.21797 0.0
H241 H 0.71196 0.01717 0.26158 0.0
H242 H 0.66253 0.93409 0.2521 0.0
H243 H 0.69454 0.99293 0.29506 0.0
H244 H 0.69729 0.90662 0.12434 0.0
H245 H 0.64732 0.94085 0.19014 0.0
H246 H 0.70864 0.95042 0.14022 0.0
H247 H 0.63716 0.89707 0.17344 0.0
H248 H 0.60601 0.02977 0.24747 0.0
H249 H 0.58446 0.99164 0.18419 0.0
H250 H 0.7812 0.93622 0.24508 0.0
H251 H 0.73899 0.8806 0.20268 0.0
H252 H 0.65065 0.03661 0.14712 0.0
H253 H 0.6857 0.06769 0.20828 0.0
H254 H 0.6124 0.0663 0.15306 0.0
H255 H 0.6469 0.09695 0.2131 0.0
H256 H 0.78033 0.01173 0.20068 0.0
H257 H 0.75265 0.95749 0.14959 0.0
H258 H 0.82201 0.98637 0.2029 0.0
H259 H 0.7947 0.93295 0.15282 0.0
H260 H 0.77632 0.07118 0.2516 0.0
H261 H 0.7638 0.1124 0.188 0.0
H262 H 0.65894 0.99233 0.08555 0.0
H263 H 0.74247 0.00843 0.08218 0.0
Li264 Li 0.98284 0.72015 0.69446 0.0
Li265 Li 0.03083 0.71795 0.69239 0.0
Li266 Li 0.00327 0.70056 0.66147 0.0
Li267 Li 0.00631 0.6784 0.6985 0.0
C268 C -0.00309 0.76208 0.67013 0.0
N269 N 0.97611 0.81233 0.66783 0.0
C270 C 0.00947 0.78299 0.68122 0.0
C271 C 0.97395 0.76676 0.65767 0.0
C272 C -0.00139 0.80825 0.67988 0.0
C273 C 0.96368 0.79229 0.65679 0.0
C274 C 0.00603 0.69939 0.73974 0.0
C275 C 0.02465 0.67472 0.77093 0.0
N276 N 0.00139 0.67661 0.78228 0.0
C277 C 0.98235 0.70121 0.75174 0.0
C278 C 0.02742 0.68618 0.74943 0.0
C279 C 0.98039 0.68953 0.77322 0.0
C280 C 0.92911 0.73216 0.70141 0.0
N281 N 0.95418 0.7404 0.70516 0.0
C282 C 0.93891 0.77859 0.72489 0.0
C283 C 0.95944 0.76283 0.71699 0.0
C284 C 0.91282 0.77074 0.72105 0.0
C285 C 0.90794 0.7471 0.70936 0.0
H286 H 0.92554 0.71396 0.69234 0.0
H287 H 0.97961 0.76846 0.72025 0.0
C288 C 0.0777 0.74626 0.6828 0.0
N289 N 0.06184 0.73685 0.69956 0.0
C290 C 0.09958 0.76166 0.68829 0.0
C291 C 0.08798 0.75773 0.72809 0.0
C292 C 0.06659 0.74217 0.72185 0.0
C293 C 0.10477 0.76788 0.71121 0.0
H294 H 0.07308 0.74221 0.66517 0.0
H295 H 0.05328 0.73498 0.73478 0.0
C296 C 0.95833 0.67287 0.6658 0.0
N297 N 0.92707 0.64608 0.63501 0.0
C298 C 0.95845 0.64531 0.66531 0.0
C299 C 0.94215 0.6868 0.65078 0.0
C300 C 0.94252 0.63213 0.64958 0.0
C301 C 0.92655 0.6729 0.63529 0.0
C302 C 0.06054 0.68309 0.67116 0.0
C303 C 0.06955 0.68859 0.64918 0.0
C304 C 0.07859 0.67743 0.68845 0.0
C305 C 0.0966 0.68859 0.64491 0.0
C306 C 0.10547 0.67768 0.6835 0.0
N307 N 0.11384 0.68322 0.66202 0.0
C308 C 0.00341 0.71766 0.61609 0.0
C309 C -0.00255 0.67159 0.62028 0.0
C310 C 0.00185 0.71542 0.59245 0.0
N311 N 0.00092 0.69596 0.62945 0.0
C312 C 0.99513 0.6685 0.59673 0.0
C313 C -0.00271 0.69062 0.5824 0.0
H314 H 0.00687 0.73671 0.62379 0.0
H315 H -0.00369 0.65455 0.63127 0.0
C316 C 0.98621 0.63782 0.72679 0.0
N317 N 0.00609 0.64493 0.71254 0.0
C318 C 0.98521 0.61227 0.73559 0.0
C319 C 0.02486 0.60194 0.71456 0.0
C320 C 0.02536 0.62774 0.70651 0.0
C321 C 0.00447 0.594 0.72907 0.0
H322 H 0.97075 0.65172 0.73074 0.0
H323 H 0.0406 0.6338 0.69482 0.0
O324 O 0.00701 0.73714 0.67152 0.0
O325 O 0.00828 0.71051 0.71862 0.0
O326 O 0.97388 0.68613 0.68098 0.0
O327 O 0.03416 0.68324 0.67574 0.0
H328 H 0.02727 0.77971 0.69093 0.0
H329 H 0.96407 0.75079 0.64893 0.0
H330 H 0.00802 0.8246 0.68848 0.0
H331 H 0.94581 0.79617 0.64735 0.0
H332 H 0.04098 0.66429 0.77858 0.0
H333 H 0.9656 0.71135 0.7445 0.0
H334 H 0.04587 0.6846 0.74035 0.0
H335 H 0.96215 0.69068 0.78267 0.0
H336 H 0.94335 0.79653 0.73416 0.0
H337 H 0.88802 0.74049 0.70614 0.0
H338 H 0.11204 0.76889 0.67471 0.0
H339 H 0.09073 0.76252 0.74591 0.0
H340 H 0.97084 0.6342 0.67681 0.0
H341 H 0.9418 0.70813 0.65097 0.0
H342 H 0.9425 0.61081 0.64894 0.0
H343 H 0.91405 0.68343 0.62346 0.0
H344 H 0.05584 0.69297 0.6356 0.0
H345 H 0.0719 0.67313 0.70554 0.0
H346 H 0.10388 0.69292 0.62801 0.0
H347 H 0.11968 0.67351 0.69674 0.0
H348 H 0.00449 0.73296 0.58221 0.0
H349 H 0.99141 0.64901 0.58994 0.0
H350 H 0.96898 0.60649 0.74645 0.0
H351 H 0.03984 0.58811 0.70908 0.0
Li352 Li 0.27422 0.02687 0.80421 0.0
Li353 Li 0.28884 -0.00178 0.83507 0.0
Li354 Li 0.31454 0.00306 0.80024 0.0
Li355 Li 0.2731 0.97898 0.80036 0.0
C356 C 0.30609 0.05627 0.82823 0.0
N357 N 0.30332 0.1095 0.83797 0.0
C358 C 0.29645 0.06479 0.84928 0.0
C359 C 0.31447 0.07479 0.81217 0.0
C360 C 0.2952 0.0918 0.85388 0.0
C361 C 0.31285 0.10163 0.8174 0.0
C362 C 0.22852 0.99135 0.82083 0.0
C363 C 0.1976 0.95619 0.82785 0.0
N364 N 0.17884 0.96983 0.81628 0.0
C365 C 0.20891 0.00506 0.80906 0.0
C366 C 0.22281 0.96676 0.8304 0.0
C367 C 0.18391 0.99384 0.80695 0.0
C368 C 0.25598 0.06692 0.77516 0.0
N369 N 0.25617 0.05844 0.79709 0.0
C370 C 0.22816 0.0939 0.80844 0.0
C371 C 0.24276 0.0714 0.81371 0.0
C372 C 0.22721 0.10289 0.78582 0.0
C373 C 0.24161 0.08925 0.76912 0.0
H374 H 0.26641 0.05595 0.76224 0.0
H375 H 0.243 0.06394 0.83096 0.0
C376 C 0.31459 0.00088 0.8774 0.0
N377 N 0.29134 0.99489 0.86718 0.0
C378 C 0.31705 -0.00068 0.90104 0.0
C379 C 0.27161 0.9854 0.90314 0.0
C380 C 0.27002 0.9873 0.87947 0.0
C381 C 0.29533 0.99157 0.91422 0.0
H382 H 0.33116 0.00706 0.86714 0.0
H383 H 0.25168 0.98307 0.87095 0.0
C384 C 0.29783 0.00435 0.75757 0.0
N385 N 0.3248 0.00157 0.71676 0.0
C386 C 0.2968 0.98139 0.7444 0.0
C387 C 0.31243 0.02596 0.7499 0.0
C388 C 0.31059 0.98037 0.72383 0.0
C389 C 0.32599 0.02414 0.72926 0.0
C390 C 0.31773 0.95588 0.83319 0.0
C391 C 0.34442 0.9598 0.83783 0.0
C392 C 0.30322 0.93817 0.84641 0.0
C393 C 0.35613 0.94602 0.85576 0.0
C394 C 0.31564 0.92483 0.86423 0.0
N395 N 0.34162 0.929 0.8685 0.0
C396 C 0.3659 0.02236 0.7964 0.0
C397 C 0.35735 0.98407 0.77432 0.0
C398 C 0.39222 0.02206 0.78982 0.0
N399 N 0.34918 0.00347 0.78869 0.0
C400 C 0.38342 0.98331 0.76694 0.0
C401 C 0.40118 0.00225 0.77506 0.0
H402 H 0.35898 0.03717 0.80821 0.0
H403 H 0.34376 0.96885 0.76904 0.0
C404 C 0.23376 0.95596 0.77343 0.0
N405 N 0.25469 0.95047 0.78703 0.0
C406 C 0.219 0.93554 0.76399 0.0
C407 C 0.2486 0.90422 0.78159 0.0
C408 C 0.26254 0.92528 0.79102 0.0
C409 C 0.22634 0.90933 0.76816 0.0
H410 H 0.2284 0.97624 0.77013 0.0
H411 H 0.27954 0.92155 0.80161 0.0
O412 O 0.30706 0.02994 0.82324 0.0
O413 O 0.25322 0.00184 0.82281 0.0
O414 O 0.28461 0.00568 0.77784 0.0
O415 O 0.30574 0.96964 0.81607 0.0
H416 H 0.28972 0.05073 0.86184 0.0
H417 H 0.32189 0.06852 0.79577 0.0
H418 H 0.28767 0.09869 0.87006 0.0
H419 H 0.31911 0.11619 0.80509 0.0
H420 H 0.19299 0.93708 0.83499 0.0
H421 H 0.21297 0.02403 0.80145 0.0
H422 H 0.23783 0.95574 0.83933 0.0
H423 H 0.16858 0.00418 0.79781 0.0
H424 H 0.21746 0.10391 0.82185 0.0
H425 H 0.24099 0.09515 0.7514 0.0
H426 H 0.33574 0.00408 0.90891 0.0
H427 H 0.25428 0.97977 0.9127 0.0
H428 H 0.28565 0.96446 0.75005 0.0
H429 H 0.31355 0.04384 0.75993 0.0
H430 H 0.31005 0.96269 0.71351 0.0
H431 H 0.3375 0.04064 0.72321 0.0
H432 H 0.35592 0.9735 0.82784 0.0
H433 H 0.2825 0.93504 0.84313 0.0
H434 H 0.37674 0.94894 0.85961 0.0
H435 H 0.30461 0.91121 0.8747 0.0
H436 H 0.40558 0.03681 0.7965 0.0
H437 H 0.38992 0.96752 0.75584 0.0
H438 H 0.20209 0.94015 0.75347 0.0
H439 H 0.25477 0.88419 0.78514 0.0
Li440 Li 5e-05 0.32053 0.30048 0.0
Li441 Li -0.00063 0.29548 0.33624 0.0
Li442 Li 0.02384 0.27866 0.30148 0.0
Li443 Li 0.97597 0.27752 0.30321 0.0
C444 C 0.04779 0.33086 0.32323 0.0
N445 N 0.083 0.37179 0.32952 0.0
C446 C 0.04611 0.34687 0.34258 0.0
C447 C 0.06778 0.33534 0.30734 0.0
C448 C 0.06396 0.36756 0.34538 0.0
C449 C 0.08528 0.35621 0.31075 0.0
C450 C 0.9501 0.32048 0.3339 0.0
C451 C 0.91708 0.31308 0.36272 0.0
N452 N 0.91243 0.33947 0.36367 0.0
C453 C 0.94482 0.34751 0.33502 0.0
C454 C 0.93598 0.30311 0.34774 0.0
C455 C 0.92576 0.35673 0.35022 0.0
C456 C 0.99495 0.35985 0.26603 0.0
N457 N -0.00051 0.35522 0.28851 0.0
C458 C 0.00291 0.40131 0.29598 0.0
C459 C 0.00311 0.37531 0.30348 0.0
C460 C -0.00147 0.40677 0.27283 0.0
C461 C 0.99457 0.38566 0.25773 0.0
H462 H 0.9913 0.34357 0.25457 0.0
H463 H 0.00569 0.37115 0.32137 0.0
C464 C 0.01204 0.27801 0.38022 0.0
N465 N 0.00025 0.29792 0.36859 0.0
C466 C 0.01314 0.27859 0.40399 0.0
C467 C 0.99008 0.32026 0.40335 0.0
C468 C 0.98978 0.31905 0.37962 0.0
C469 C 0.00185 0.29983 0.41593 0.0
H470 H 0.02064 0.26167 0.371 0.0
H471 H 0.98127 0.33506 0.37004 0.0
C472 C 0.00961 0.28982 0.257 0.0
N473 N 0.03285 0.28671 0.21452 0.0
C474 C -0.00078 0.27304 0.24036 0.0
C475 C 0.03161 0.30524 0.25192 0.0
C476 C 0.01131 0.27168 0.21902 0.0
C477 C 0.04313 0.30335 0.23038 0.0
C478 C 0.99098 0.2351 0.32869 0.0
C479 C -0.00186 0.21282 0.3161 0.0
C480 C 0.97324 0.23254 0.34674 0.0
C481 C 0.98682 0.18847 0.32134 0.0
C482 C 0.96238 0.20784 0.35148 0.0
N483 N 0.96928 0.18651 0.33876 0.0
C484 C 0.07764 0.26368 0.29999 0.0
C485 C 0.04932 0.24147 0.27424 0.0
C486 C 0.09913 0.24894 0.29233 0.0
N487 N 0.0534 0.2597 0.29083 0.0
C488 C 0.07017 0.22643 0.26601 0.0
C489 C 0.09546 0.23 0.27513 0.0
H490 H 0.08021 0.27806 0.31342 0.0
H491 H 0.02971 0.23824 0.26769 0.0
C492 C 0.92161 0.26391 0.29792 0.0
N493 N 0.94691 0.2573 0.29305 0.0
C494 C 0.90096 0.24784 0.29055 0.0
C495 C 0.93283 0.21903 0.27275 0.0
C496 C 0.95278 0.23561 0.28045 0.0
C497 C 0.90652 0.22492 0.27796 0.0
H498 H 0.9174 0.28158 0.3075 0.0
H499 H 0.97305 0.23119 0.2764 0.0
O500 O 0.0305 0.31043 0.32029 0.0
O501 O 0.96899 0.31119 0.31934 0.0
O502 O -0.0017 0.29108 0.27814 0.0
O503 O 0.00162 0.25918 0.32362 0.0
H504 H 0.03099 0.34355 0.35519 0.0
H505 H 0.06999 0.32269 0.29265 0.0
H506 H 0.06269 0.38024 0.36016 0.0
H507 H 0.10076 0.35995 0.29853 0.0
H508 H 0.90609 0.29984 0.37358 0.0
H509 H 0.95531 0.36125 0.32429 0.0
H510 H 0.93949 0.28214 0.34685 0.0
H511 H 0.92157 0.37761 0.35133 0.0
H512 H 0.00619 0.41699 0.30819 0.0
H513 H 0.99072 0.38908 0.23982 0.0
H514 H 0.02297 0.26267 0.41285 0.0
H515 H 0.98089 0.33693 0.4117 0.0
H516 H 0.98205 0.26115 0.24389 0.0
H517 H 0.03952 0.31868 0.26442 0.0
H518 H 0.00356 0.25869 0.20602 0.0
H519 H 0.0602 0.31515 0.22626 0.0
H520 H 0.01209 0.21434 0.30228 0.0
H521 H 0.96807 0.24936 0.35711 0.0
H522 H 0.99198 0.17113 0.31157 0.0
H523 H 0.94852 0.20563 0.36534 0.0
H524 H 0.11834 0.25225 0.29979 0.0
H525 H 0.06639 0.21162 0.25311 0.0
H526 H 0.88093 0.25307 0.29495 0.0
H527 H 0.93796 0.20189 0.26266 0.0
Li528 Li 0.70592 0.99492 0.82924 0.0
Li529 Li 0.72228 0.96789 0.79783 0.0
Li530 Li 0.72204 0.01599 0.79557 0.0
Li531 Li 0.68138 0.99079 0.79364 0.0
C532 C 0.76642 0.00394 0.81626 0.0
N533 N 0.81559 0.02686 0.81292 0.0
C534 C 0.78657 0.99112 0.80441 0.0
C535 C 0.77134 0.02833 0.82656 0.0
C536 C 0.81129 0.00305 0.8029 0.0
C537 C 0.7963 0.03962 0.82461 0.0
C538 C 0.68976 0.93673 0.82038 0.0
C539 C 0.68442 0.89166 0.80807 0.0
N540 N 0.69187 0.88325 0.8291 0.0
C541 C 0.69725 0.92766 0.84191 0.0
C542 C 0.68315 0.91862 0.80335 0.0
C543 C 0.69821 0.90053 0.84597 0.0
C544 C 0.67955 0.99159 0.87154 0.0
N545 N 0.70296 -0.00288 0.86143 0.0
C546 C 0.72298 0.00525 0.89754 0.0
C547 C 0.72451 0.00374 0.87386 0.0
C548 C 0.69906 -0.00027 0.90852 0.0
C549 C 0.67712 0.99283 0.89522 0.0
H550 H 0.6628 0.98612 0.86119 0.0
H551 H 0.74298 0.00758 0.86541 0.0
C552 C 0.74597 0.93261 0.76738 0.0
N553 N 0.74171 0.93742 0.78983 0.0
C554 C 0.76169 0.91148 0.76066 0.0
C555 C 0.76799 0.90034 0.80033 0.0
C556 C 0.75241 0.92194 0.80628 0.0
C557 C 0.77309 0.89506 0.77723 0.0
H558 H 0.73779 0.94565 0.75468 0.0
H559 H 0.74923 0.92665 0.82403 0.0
C560 C 0.6757 0.03652 0.82793 0.0
N561 N 0.64971 0.06142 0.86325 0.0
C562 C 0.6489 0.03193 0.83149 0.0
C563 C 0.68926 0.0539 0.84224 0.0
C564 C 0.63611 0.04471 0.84944 0.0
C565 C 0.67577 0.06623 0.86004 0.0
C566 C 0.69964 0.99112 0.75139 0.0
C567 C 0.69941 0.01466 0.73902 0.0
C568 C 0.68711 0.9688 0.74256 0.0
C569 C 0.68639 0.01553 0.71807 0.0
C570 C 0.67427 0.9705 0.72157 0.0
N571 N 0.67416 0.99363 0.70987 0.0
C572 C 0.76076 0.04066 0.76941 0.0
C573 C 0.73202 0.07028 0.78835 0.0
C574 C 0.77518 0.06158 0.76048 0.0
N575 N 0.73998 0.04536 0.78336 0.0
C576 C 0.74568 0.09186 0.77954 0.0
C577 C 0.76777 0.08765 0.76558 0.0
H578 H 0.76632 0.02057 0.76549 0.0
H579 H 0.71508 0.07338 0.79915 0.0
C580 C 0.63095 0.96987 0.78646 0.0
N581 N 0.64736 0.98993 0.78082 0.0
C582 C 0.60501 0.9699 0.7788 0.0
C583 C 0.61364 0.01079 0.75899 0.0
C584 C 0.6393 0.01019 0.76738 0.0
C585 C 0.59591 0.99072 0.76507 0.0
H586 H 0.63774 0.95435 0.7976 0.0
H587 H 0.65266 0.02619 0.76361 0.0
O588 O 0.74196 0.99278 0.81763 0.0
O589 O 0.68891 0.96319 0.816 0.0
O590 O 0.68871 0.02378 0.81076 0.0
O591 O 0.71205 0.98993 0.77204 0.0
H592 H 0.78313 0.97228 0.7963 0.0
H593 H 0.75591 0.03864 0.83561 0.0
H594 H 0.82703 0.9934 0.7937 0.0
H595 H 0.80031 0.05859 0.83232 0.0
H596 H 0.67952 0.87742 0.79501 0.0
H597 H 0.70251 0.94138 0.85527 0.0
H598 H 0.67732 0.92532 0.7866 0.0
H599 H 0.70409 0.89321 0.86251 0.0
H600 H 0.74049 0.01017 0.90717 0.0
H601 H 0.65828 0.98859 0.903 0.0
H602 H 0.76558 0.90865 0.74269 0.0
H603 H 0.77618 0.88814 0.8137 0.0
H604 H 0.63813 0.01847 0.82064 0.0
H605 H 0.71004 0.05753 0.8398 0.0
H606 H 0.6154 0.04126 0.85246 0.0
H607 H 0.68605 0.07957 0.87135 0.0
H608 H 0.70895 0.03214 0.7456 0.0
H609 H 0.68712 0.95044 0.75191 0.0
H610 H 0.68593 0.03365 0.70836 0.0
H611 H 0.66435 0.95342 0.7146 0.0
H612 H 0.79226 0.05732 0.7501 0.0
H613 H 0.73896 0.11158 0.78359 0.0
H614 H 0.59196 0.95435 0.78446 0.0
H615 H 0.60762 0.02712 0.74833 0.0
Li616 Li 0.96599 0.71899 0.29994 0.0
Li617 Li 0.0138 0.72164 0.30211 0.0
Li618 Li 0.99056 0.68115 0.29326 0.0
Li619 Li 0.98661 0.70003 0.33273 0.0
C620 C 0.99455 0.70403 0.25362 0.0
N621 N 0.00042 0.68215 0.21074 0.0
C622 C 0.01892 0.70482 0.24262 0.0
C623 C 0.97303 0.69261 0.24254 0.0
C624 C 0.02154 0.69354 0.22102 0.0
C625 C 0.97642 0.68151 0.22095 0.0
C626 C 0.97772 0.76246 0.3224 0.0
C627 C 0.95329 0.79859 0.33881 0.0
N628 N 0.95551 0.81208 0.31889 0.0
C629 C 0.97999 0.77683 0.30216 0.0
C630 C 0.96443 0.77351 0.34094 0.0
C631 C 0.96854 0.80182 0.3007 0.0
C632 C 0.91673 0.74484 0.30657 0.0
N633 N 0.93559 0.73855 0.29104 0.0
C634 C 0.91416 0.76426 0.26253 0.0
C635 C 0.93458 0.74772 0.26932 0.0
C636 C 0.89455 0.77121 0.27822 0.0
C637 C 0.8957 0.76103 0.3004 0.0
H638 H 0.91841 0.73787 0.32391 0.0
H639 H 0.95012 0.74293 0.25747 0.0
C640 C 0.06615 0.72794 0.28711 0.0
N641 N 0.04572 0.74047 0.29743 0.0
C642 C 0.08942 0.74151 0.28243 0.0
C643 C 0.07068 0.7802 0.30023 0.0
C644 C 0.04787 0.76585 0.30463 0.0
C645 C 0.09168 0.76819 0.28861 0.0
H646 H 0.06424 0.70745 0.28225 0.0
H647 H 0.03182 0.77512 0.31359 0.0
C648 C 0.93237 0.68217 0.31463 0.0
N649 N 0.87808 0.67973 0.31738 0.0
C650 C 0.91987 0.68256 0.33584 0.0
C651 C 0.9172 0.67991 0.29485 0.0
C652 C 0.89243 0.68146 0.33687 0.0
C653 C 0.8898 0.6789 0.29657 0.0
C654 C 0.04234 0.68619 0.32709 0.0
C655 C 0.06113 0.66711 0.32157 0.0
C656 C 0.04813 0.7053 0.34353 0.0
C657 C 0.08545 0.66741 0.33267 0.0
C658 C 0.07267 0.70494 0.35424 0.0
N659 N 0.09066 0.68616 0.34864 0.0
C660 C 0.01781 0.64208 0.2685 0.0
C661 C 0.9727 0.63312 0.27535 0.0
C662 C 0.02115 0.61735 0.25844 0.0
N663 N 0.99399 0.64915 0.27707 0.0
C664 C 0.97509 0.60832 0.26536 0.0
C665 C -0.00029 0.59991 0.25726 0.0
H666 H 0.03436 0.65537 0.27009 0.0
H667 H 0.95409 0.63918 0.2825 0.0
C668 C 0.96886 0.7068 0.37785 0.0
N669 N 0.98554 0.69264 0.36449 0.0
C670 C 0.96878 0.7032 0.40141 0.0
C671 C 0.00302 0.67045 0.39706 0.0
C672 C 0.00198 0.67423 0.37352 0.0
C673 C 0.98637 0.6852 0.41119 0.0
H674 H 0.95565 0.72091 0.37019 0.0
H675 H 0.01467 0.66281 0.36253 0.0
O676 O 0.99171 0.71454 0.275 0.0
O677 O 0.98816 0.7376 0.32385 0.0
O678 O 0.95928 0.68334 0.31335 0.0
O679 O 0.0186 0.68649 0.31612 0.0
H680 H 0.03564 0.71411 0.25059 0.0
H681 H 0.95392 0.69227 0.25051 0.0
H682 H 0.04035 0.69388 0.21241 0.0
H683 H 0.95995 0.67241 0.2123 0.0
H684 H 0.94286 0.80731 0.353 0.0
H685 H 0.99015 0.76858 0.2876 0.0
H686 H 0.96272 0.76293 0.35682 0.0
H687 H 0.96993 0.81301 0.28506 0.0
H688 H 0.91383 0.7718 0.24527 0.0
H689 H 0.88106 0.76631 0.31301 0.0
H690 H 0.10533 0.73133 0.27387 0.0
H691 H 0.07148 0.80074 0.30524 0.0
H692 H 0.93119 0.68355 0.35136 0.0
H693 H 0.92641 0.67915 0.27832 0.0
H694 H 0.88254 0.68191 0.35319 0.0
H695 H 0.87787 0.67744 0.28136 0.0
H696 H 0.05697 0.65223 0.30884 0.0
H697 H 0.03386 0.72034 0.34787 0.0
H698 H 0.10018 0.65276 0.32858 0.0
H699 H 0.07742 0.71961 0.36698 0.0
H700 H 0.04042 0.61159 0.25233 0.0
H701 H 0.95819 0.59531 0.26521 0.0
H702 H 0.95569 0.71487 0.41195 0.0
H703 H 0.01672 0.65631 0.40418 0.0
C704 C 0.31485 0.98104 0.04992 0.0
C705 C 0.29313 0.99266 0.06073 0.0
C706 C 0.31667 0.98031 0.02606 0.0
C707 C 0.29632 0.99156 0.01276 0.0
C708 C 0.27447 0.00351 0.02359 0.0
C709 C 0.27313 0.00389 0.04744 0.0
C710 C 0.3402 0.96731 0.01509 0.0
C711 C 0.25247 0.01587 0.00998 0.0
C712 C 0.30914 0.01138 0.95143 0.0
C713 C 0.29704 0.99075 0.93944 0.0
C714 C 0.30957 0.01162 0.97533 0.0
C715 C 0.29766 0.99069 0.98749 0.0
C716 C 0.286 0.96948 0.97547 0.0
C717 C 0.28579 0.96979 0.95158 0.0
C718 C 0.32211 0.03462 0.98756 0.0
C719 C 0.27327 0.94673 0.98786 0.0
H720 H 0.33022 0.9721 0.06013 0.0
H721 H 0.25649 0.01322 0.05573 0.0
H722 H 0.33365 0.9506 0.00427 0.0
H723 H 0.35044 0.98153 0.00381 0.0
H724 H 0.35449 0.95978 0.02786 0.0
H725 H 0.237 0.02461 0.02102 0.0
H726 H 0.26045 0.03156 0.99877 0.0
H727 H 0.24323 0.00083 0.99881 0.0
H728 H 0.3176 0.02777 0.94213 0.0
H729 H 0.27675 0.95362 0.94236 0.0
H730 H 0.3371 0.02745 -0.00017 0.0
H731 H 0.30697 0.04541 0.9975 0.0
H732 H 0.33165 0.04866 0.97563 0.0
H733 H 0.28745 0.93775 -5e-05 0.0
H734 H 0.26616 0.93119 0.97601 0.0
H735 H 0.25633 0.954 0.998 0.0
C736 C 0.97557 0.30489 0.54997 0.0
C737 C -0.00116 0.30325 0.56268 0.0
C738 C 0.97624 0.30513 0.52609 0.0
C739 C 0.00074 0.3031 0.51472 0.0
C740 C 0.0243 0.30144 0.52752 0.0
C741 C 0.02308 0.30181 0.5514 0.0
C742 C 0.95075 0.30749 0.51302 0.0
C743 C 0.05073 0.29873 0.51601 0.0
C744 C -0.00087 0.27737 0.454 0.0
C745 C 0.00217 0.30063 0.44131 0.0
C746 C -0.0009 0.27785 0.47789 0.0
C747 C 0.00163 0.30224 0.48943 0.0
C748 C 0.00465 0.32579 0.4768 0.0
C749 C 0.00517 0.32467 0.45292 0.0
C750 C -0.00383 0.25227 0.4908 0.0
C751 C 0.00709 0.35221 0.48852 0.0
H752 H 0.95686 0.3062 0.55877 0.0
H753 H 0.04103 0.30031 0.5613 0.0
H754 H 0.95166 0.32461 0.50128 0.0
H755 H 0.94768 0.28963 0.50243 0.0
H756 H 0.93349 0.30996 0.52444 0.0
H757 H 0.06719 0.29778 0.52844 0.0
H758 H 0.05105 0.28057 0.50544 0.0
H759 H 0.05414 0.31564 0.50441 0.0
H760 H -0.00366 0.25874 0.44528 0.0
H761 H 0.00805 0.34271 0.44337 0.0
H762 H 0.97777 0.25261 0.50095 0.0
H763 H 0.01275 0.24984 0.50293 0.0
H764 H 0.99565 0.23486 0.4793 0.0
H765 H 0.98958 0.35577 0.4994 0.0
H766 H 0.00892 0.36874 0.47622 0.0
H767 H 0.02456 0.35231 0.49985 0.0
C768 C 0.68416 0.98062 0.9457 0.0
C769 C 0.69731 0.0006 0.93375 0.0
C770 C 0.68351 0.98052 0.96959 0.0
C771 C 0.69632 0.0009 0.98181 0.0
C772 C 0.70917 0.0214 0.96984 0.0
C773 C 0.7095 0.02101 0.94596 0.0
C774 C 0.66962 0.95832 0.98178 0.0
C775 C 0.72294 0.04354 0.98228 0.0
C776 C 0.6784 0.01282 0.04377 0.0
C777 C 0.69917 0.00022 0.05514 0.0
C778 C 0.67708 0.01303 0.01989 0.0
C779 C 0.69703 0.00035 0.00711 0.0
C780 C 0.71794 0.98744 0.01848 0.0
C781 C 0.71876 0.98753 0.04236 0.0
C782 C 0.65451 0.02704 0.00834 0.0
C783 C 0.73952 0.97362 0.00541 0.0
H784 H 0.67495 0.96464 0.93636 0.0
H785 H 0.71936 0.03671 0.9368 0.0
H786 H 0.68399 0.94696 0.99208 0.0
H787 H 0.65471 0.96637 0.99371 0.0
H788 H 0.65969 0.94458 0.96979 0.0
H789 H 0.73131 0.05842 0.97045 0.0
H790 H 0.709 0.05357 0.99397 0.0
H791 H 0.73912 0.03543 0.99287 0.0
H792 H 0.66337 0.02292 0.05355 0.0
H793 H 0.73464 0.97742 0.05105 0.0
H794 H 0.64386 0.01318 0.99698 0.0
H795 H 0.66217 0.04324 0.99752 0.0
H796 H 0.64031 0.03547 0.02075 0.0
H797 H 0.73095 0.95819 0.99424 0.0
H798 H 0.75424 0.96427 0.01683 0.0
H799 H 0.74982 0.98792 0.99423 0.0
C800 C 0.96685 0.67389 0.44886 0.0
C801 C 0.98828 0.68295 0.43614 0.0
C802 C 0.96807 0.67302 0.47274 0.0
C803 C 0.99097 0.68221 0.48399 0.0
C804 C 0.01274 0.69117 0.47108 0.0
C805 C 0.01123 0.69112 0.44724 0.0
C806 C 0.94475 0.66268 0.48591 0.0
C807 C 0.03725 0.7017 0.48245 0.0
C808 C 0.98348 0.70819 0.54422 0.0
C809 C 0.99497 0.68796 0.55718 0.0
C810 C 0.98211 0.70656 0.52041 0.0
C811 C 0.99171 0.68377 0.50925 0.0
C812 C 0.00258 0.6629 0.52216 0.0
C813 C 0.00443 0.6654 0.54593 0.0
C814 C 0.97075 0.72943 0.50718 0.0
C815 C 0.01251 0.63806 0.51086 0.0
H816 H 0.94916 0.66753 0.4401 0.0
H817 H 0.02767 0.6983 0.43723 0.0
H818 H 0.95118 0.64719 0.49804 0.0
H819 H 0.93586 0.67883 0.49609 0.0
H820 H 0.92936 0.65431 0.47457 0.0
H821 H 0.05262 0.7074 0.46994 0.0
H822 H 0.0322 0.71925 0.49289 0.0
H823 H 0.04559 0.68671 0.49414 0.0
H824 H 0.97549 0.72543 0.55266 0.0
H825 H 0.0137 0.64978 0.55561 0.0
H826 H 0.95345 0.72281 0.49719 0.0
H827 H 0.98554 0.73694 0.49489 0.0
H828 H 0.96458 0.74594 0.51843 0.0
H829 H -0.00303 0.62953 0.4998 0.0
H830 H 0.0187 0.62291 0.52343 0.0
H831 H 0.02955 0.64275 0.49978 0.0
C832 C 0.44306 0.97696 0.22508 0.0
C833 C 0.42579 -0.00232 0.23015 0.0
C834 C 0.47031 0.98027 0.22694 0.0
C835 C 0.48047 0.00489 0.23416 0.0
C836 C 0.4631 0.0252 0.24103 0.0
C837 C 0.43587 0.02138 0.23887 0.0
C838 C 0.4882 0.95805 0.21959 0.0
C839 C 0.47324 0.05158 0.2491 0.0
C840 C 0.55419 0.00538 0.24407 0.0
C841 C 0.56327 0.0131 0.22253 0.0
C842 C 0.52712 0.00398 0.24868 0.0
C843 C 0.50893 0.01035 0.23127 0.0
C844 C 0.51808 0.01964 0.20997 0.0
C845 C 0.54514 0.02098 0.2059 0.0
C846 C 0.51804 0.99434 0.27168 0.0
C847 C 0.4993 0.02681 0.19099 0.0
H848 H 0.43526 0.95843 0.2188 0.0
H849 H 0.42259 0.03749 0.24278 0.0
H850 H 0.49827 0.96354 0.2035 0.0
H851 H 0.50364 0.95452 0.23259 0.0
H852 H 0.47727 0.93937 0.21671 0.0
H853 H 0.45761 0.06338 0.25755 0.0
H854 H 0.48986 0.049 0.26115 0.0
H855 H 0.4807 0.06294 0.2343 0.0
H856 H 0.5682 -0.00074 0.25696 0.0
H857 H 0.55218 0.02751 0.1894 0.0
H858 H 0.51034 0.97396 0.27004 0.0
H859 H 0.50179 0.00684 0.27824 0.0
H860 H 0.53427 0.99424 0.28436 0.0
H861 H 0.48851 0.00893 0.18534 0.0
H862 H 0.50958 0.03537 0.17603 0.0
H863 H 0.48449 0.04122 0.19713 0.0
C864 C 0.02165 0.44149 0.74527 0.0
C865 C -0.00248 0.42813 0.74666 0.0
C866 C 0.02287 0.46897 0.74749 0.0
C867 C -0.00064 0.48343 0.75067 0.0
C868 C 0.97535 0.46995 0.75422 0.0
C869 C 0.97477 0.44239 0.75241 0.0
C870 C 0.04899 0.48263 0.74417 0.0
C871 C 0.94983 0.48466 0.75767 0.0
C872 C 0.00379 0.55783 0.75795 0.0
C873 C 0.00193 0.56604 0.73525 0.0
C874 C 0.0027 0.53089 0.76347 0.0
C875 C -0.00082 0.51212 0.74584 0.0
C876 C -0.00357 0.52061 0.72298 0.0
C877 C -0.00189 0.54748 0.71796 0.0
C878 C 0.00613 0.52248 0.78794 0.0
C879 C 0.99215 0.50128 0.70371 0.0
H880 H 0.03938 0.43082 0.7408 0.0
H881 H 0.95618 0.43215 0.75424 0.0
H882 H 0.04983 0.49112 0.72677 0.0
H883 H 0.05133 0.49908 0.75648 0.0
H884 H 0.06579 0.46881 0.74619 0.0
H885 H 0.934 0.47157 0.76418 0.0
H886 H 0.95245 0.50132 0.76971 0.0
H887 H 0.94332 0.49305 0.74115 0.0
H888 H 0.0068 0.57241 0.77122 0.0
H889 H -0.00356 0.55408 0.70045 0.0
H890 H 0.02502 0.51171 0.78979 0.0
H891 H 0.99021 0.50875 0.79304 0.0
H892 H 0.00622 0.53956 0.79981 0.0
H893 H 0.00954 0.48819 0.70205 0.0
H894 H 0.9889 0.5113 0.68712 0.0
H895 H 0.97488 0.4886 0.70736 0.0
C896 C 0.5547 0.0172 0.76009 0.0
C897 C 0.56752 0.99269 0.75921 0.0
C898 C 0.52726 0.01892 0.75849 0.0
C899 C 0.51227 0.99555 0.75644 0.0
C900 C 0.52511 0.97098 0.75386 0.0
C901 C 0.55264 0.96988 0.75504 0.0
C902 C 0.51427 0.04557 0.76085 0.0
C903 C 0.50977 0.94559 0.75174 0.0
C904 C 0.44735 -0.00265 0.78774 0.0
C905 C 0.42941 9e-05 0.76985 0.0
C906 C 0.47432 0.99523 0.78345 0.0
C907 C 0.48354 -0.00356 0.76071 0.0
C908 C 0.46545 -0.00085 0.74251 0.0
C909 C 0.43841 0.00065 0.74731 0.0
C910 C 0.49295 0.99186 0.80331 0.0
C911 C 0.47468 0.00104 0.71814 0.0
H912 H 0.56587 0.03497 0.76346 0.0
H913 H 0.56242 0.95095 0.75371 0.0
H914 H 0.49805 0.04776 0.74833 0.0
H915 H 0.5056 0.04743 0.77812 0.0
H916 H 0.52848 0.06197 0.75839 0.0
H917 H 0.52249 0.9288 0.74657 0.0
H918 H 0.50066 0.94081 0.76841 0.0
H919 H 0.49362 0.94767 0.73916 0.0
H920 H 0.44017 -0.00339 0.80513 0.0
H921 H 0.42434 0.00282 0.73355 0.0
H922 H 0.50643 0.00902 0.80435 0.0
H923 H 0.50524 0.974 0.80081 0.0
H924 H 0.48242 0.99003 0.81982 0.0
H925 H 0.48701 0.01891 0.716 0.0
H926 H 0.45802 0.00204 0.70591 0.0
H927 H 0.48714 0.9838 0.71376 0.0
C928 C 0.0109 0.44208 0.24487 0.0
C929 C -0.00223 0.43445 0.26484 0.0
C930 C 0.01214 0.46873 0.23846 0.0
C931 C 0.00015 0.48803 0.25246 0.0
C932 C 0.9859 0.48024 0.27205 0.0
C933 C 0.98478 0.45356 0.27791 0.0
C934 C 0.02719 0.4763 0.21729 0.0
C935 C 0.97268 0.5002 0.2874 0.0
C936 C 0.02429 0.55757 0.26028 0.0
C937 C 0.00345 0.57193 0.25074 0.0
C938 C 0.02477 0.53 0.25908 0.0
C939 C 0.00395 0.51657 0.24803 0.0
C940 C 0.98436 0.53106 0.23636 0.0
C941 C 0.98427 0.55866 0.23794 0.0
C942 C 0.04609 0.51526 0.27169 0.0
C943 C 0.96218 0.51744 0.22394 0.0
H944 H 0.021 0.42735 0.23473 0.0
H945 H 0.97406 0.44765 0.29303 0.0
H946 H 0.01597 0.49091 0.20711 0.0
H947 H 0.04607 0.48567 0.22222 0.0
H948 H 0.0316 0.45892 0.2064 0.0
H949 H 0.96153 0.49075 0.30148 0.0
H950 H 0.9877 0.51348 0.29494 0.0
H951 H 0.95891 0.51262 0.27741 0.0
H952 H 0.03911 0.56769 0.27029 0.0
H953 H 0.96839 0.56978 0.23019 0.0
H954 H 0.05381 0.4988 0.26119 0.0
H955 H 0.03774 0.50662 0.28748 0.0
H956 H 0.06273 0.52834 0.2765 0.0
H957 H 0.96958 0.50023 0.21416 0.0
H958 H 0.95186 0.53103 0.2121 0.0
H959 H 0.94767 0.51002 0.23651 0.0
C960 C 0.13413 0.20099 0.28331 0.0
C961 C 0.11743 0.213 0.26739 0.0
C962 C 0.15307 0.18252 0.2764 0.0
C963 C 0.15531 0.17599 0.25303 0.0
C964 C 0.13934 0.18896 0.23678 0.0
C965 C 0.12057 0.20732 0.24417 0.0
C966 C 0.16976 0.16906 0.29422 0.0
C967 C 0.1413 0.18264 0.21169 0.0
C968 C 0.2151 0.13795 0.23233 0.0
C969 C 0.20525 0.11212 0.23156 0.0
C970 C 0.19913 0.15901 0.2394 0.0
C971 C 0.17274 0.15405 0.24578 0.0
C972 C 0.16272 0.12802 0.24504 0.0
C973 C 0.17909 0.10739 0.23792 0.0
C974 C 0.21044 0.18652 0.24003 0.0
C975 C 0.13462 0.12198 0.25162 0.0
H976 H 0.13162 0.20516 0.3013 0.0
H977 H 0.10795 0.21689 0.23178 0.0
H978 H 0.16424 0.14793 0.29529 0.0
H979 H 0.19085 0.16993 0.28941 0.0
H980 H 0.16733 0.17809 0.31134 0.0
H981 H 0.12902 0.19601 0.20112 0.0
H982 H 0.16202 0.1841 0.20589 0.0
H983 H 0.13478 0.16205 0.20866 0.0
H984 H 0.23539 0.14164 0.22764 0.0
H985 H 0.17127 0.08753 0.23699 0.0
H986 H 0.20904 0.19465 0.25755 0.0
H987 H 0.19889 0.1997 0.22875 0.0
H988 H 0.23137 0.18704 0.23457 0.0
H989 H 0.13086 0.12857 0.26935 0.0
H990 H 0.13001 0.10061 0.25036 0.0
H991 H 0.1209 0.13296 0.24039 0.0
C992 C 0.88383 0.18404 0.73652 0.0
C993 C 0.87742 0.20654 0.72388 0.0
C994 C 0.86453 0.16559 0.74239 0.0
C995 C 0.83812 0.17 0.73573 0.0
C996 C 0.8315 0.19278 0.72302 0.0
C997 C 0.85136 0.21072 0.71703 0.0
C998 C 0.87244 0.1413 0.75562 0.0
C999 C 0.80346 0.19829 0.71599 0.0
C1000 C 0.7949 0.1092 0.73515 0.0
C1001 C 0.7836 0.11016 0.75696 0.0
C1002 C 0.81202 0.12905 0.72768 0.0
C1003 C 0.8176 0.15061 0.7422 0.0
C1004 C 0.80522 0.15243 0.76373 0.0
C1005 C 0.78854 0.13207 0.77094 0.0
C1006 C 0.82503 0.12634 0.70467 0.0
C1007 C 0.81047 0.17533 0.77957 0.0
H1008 H 0.9041 0.18072 0.74154 0.0
H1009 H 0.84648 0.22824 0.70733 0.0
H1010 H 0.86186 0.14076 0.77214 0.0
H1011 H 0.8668 0.1233 0.74602 0.0
H1012 H 0.89393 0.14059 0.75904 0.0
H1013 H 0.8016 0.21696 0.70623 0.0
H1014 H 0.79587 0.18187 0.70536 0.0
H1015 H 0.79074 0.19954 0.73132 0.0
H1016 H 0.79073 0.09266 0.72403 0.0
H1017 H 0.78016 0.1329 0.7879 0.0
H1018 H 0.84655 0.1237 0.70695 0.0
H1019 H 0.82211 0.14452 0.69449 0.0
H1020 H 0.8173 0.10928 0.69484 0.0
H1021 H 0.83107 0.1744 0.78576 0.0
H1022 H 0.79713 0.17529 0.79456 0.0
H1023 H 0.8081 0.1943 0.77038 0.0
C1024 C 0.84717 0.78401 0.27532 0.0
C1025 C 0.87373 0.79005 0.2717 0.0
C1026 C 0.82732 0.80161 0.26858 0.0
C1027 C 0.83437 0.8259 0.25839 0.0
C1028 C 0.86123 0.83227 0.25517 0.0
C1029 C 0.88059 0.81415 0.26172 0.0
C1030 C 0.79886 0.79404 0.27195 0.0
C1031 C 0.86954 0.85817 0.24472 0.0
C1032 C 0.78782 0.8634 0.21984 0.0
C1033 C 0.7789 0.88354 0.23433 0.0
C1034 C 0.80497 0.8438 0.22776 0.0
C1035 C 0.81379 0.8446 0.25061 0.0
C1036 C 0.80436 0.8644 0.26551 0.0
C1037 C 0.78684 0.8835 0.25724 0.0
C1038 C 0.8144 0.82278 0.21144 0.0
C1039 C 0.81351 0.86599 0.28995 0.0
H1040 H 0.84195 0.76527 0.28297 0.0
H1041 H 0.9012 0.81891 0.25923 0.0
H1042 H 0.78865 0.8092 0.28232 0.0
H1043 H 0.78874 0.79318 0.25522 0.0
H1044 H 0.79672 0.77461 0.28049 0.0
H1045 H 0.89127 0.86044 0.24415 0.0
H1046 H 0.86178 0.85969 0.22711 0.0
H1047 H 0.86114 0.87483 0.25461 0.0
H1048 H 0.78213 0.86341 0.20205 0.0
H1049 H 0.77964 0.89865 0.26869 0.0
H1050 H 0.8118 0.80293 0.21903 0.0
H1051 H 0.83572 0.82545 0.2081 0.0
H1052 H 0.80376 0.82343 0.19491 0.0
H1053 H 0.81029 0.84688 0.29868 0.0
H1054 H 0.8032 0.88172 0.29966 0.0
H1055 H 0.83497 0.87005 0.29041 0.0
C1056 C 0.14053 0.78253 0.73784 0.0
C1057 C 0.1264 0.78622 0.71754 0.0
C1058 C 0.15862 0.80143 0.74549 0.0
C1059 C 0.16308 0.82432 0.7323 0.0
C1060 C 0.15008 0.82746 0.71116 0.0
C1061 C 0.13171 0.80849 0.70413 0.0
C1062 C 0.17199 0.79749 0.76822 0.0
C1063 C 0.15465 0.85145 0.69646 0.0
C1064 C 0.18321 0.887 0.7628 0.0
C1065 C 0.21039 0.88744 0.75898 0.0
C1066 C 0.16766 0.86638 0.75438 0.0
C1067 C 0.17958 0.846 0.7415 0.0
C1068 C 0.20704 0.84644 0.73747 0.0
C1069 C 0.22221 0.86709 0.74648 0.0
C1070 C 0.1385 0.86636 0.75936 0.0
C1071 C 0.2203 0.82528 0.72346 0.0
H1072 H 0.13699 0.76511 0.74807 0.0
H1073 H 0.12074 0.81174 0.68855 0.0
H1074 H 0.19361 0.79967 0.76643 0.0
H1075 H 0.16524 0.81287 0.78035 0.0
H1076 H 0.16773 0.77782 0.77567 0.0
H1077 H 0.14536 0.84947 0.67941 0.0
H1078 H 0.14634 0.86913 0.70497 0.0
H1079 H 0.17603 0.85493 0.69417 0.0
H1080 H 0.17418 0.90265 0.77269 0.0
H1081 H 0.24324 0.86761 0.74343 0.0
H1082 H 0.13297 0.84788 0.76826 0.0
H1083 H 0.12722 0.86701 0.74319 0.0
H1084 H 0.13245 0.88338 0.77008 0.0
H1085 H 0.21701 0.80567 0.73132 0.0
H1086 H 0.24182 0.82858 0.72182 0.0
H1087 H 0.21152 0.82466 0.70615 0.0
C1088 C 0.7869 0.85903 0.75043 0.0
C1089 C 0.79144 0.87365 0.77037 0.0
C1090 C 0.80544 0.84072 0.7425 0.0
C1091 C 0.82886 0.83659 0.75502 0.0
C1092 C 0.83301 0.85031 0.77571 0.0
C1093 C 0.81437 0.86883 0.78304 0.0
C1094 C 0.80044 0.82656 0.72027 0.0
C1095 C 0.85763 0.84616 0.78968 0.0
C1096 C 0.87067 0.77628 0.74241 0.0
C1097 C 0.89084 0.78728 0.72922 0.0
C1098 C 0.85024 0.79207 0.75092 0.0
C1099 C 0.84986 0.81933 0.74574 0.0
C1100 C 0.86993 0.83037 0.73202 0.0
C1101 C 0.89033 0.81422 0.72407 0.0
C1102 C 0.82939 0.77974 0.76581 0.0
C1103 C 0.86996 0.85928 0.72583 0.0
H1104 H 0.76901 0.86222 0.74077 0.0
H1105 H 0.81828 0.88023 0.79829 0.0
H1106 H 0.81543 0.83257 0.70755 0.0
H1107 H 0.80233 0.80494 0.72261 0.0
H1108 H 0.78061 0.8309 0.71323 0.0
H1109 H 0.8567 0.85645 0.80638 0.0
H1110 H 0.86087 0.82482 0.79275 0.0
H1111 H 0.87494 0.85365 0.78018 0.0
H1112 H 0.87125 0.75544 0.74649 0.0
H1113 H 0.90583 0.82261 0.71366 0.0
H1114 H 0.80959 0.7833 0.75848 0.0
H1115 H 0.82972 0.78906 0.78292 0.0
H1116 H 0.83224 0.75815 0.76784 0.0
H1117 H 0.85116 0.86458 0.71737 0.0
H1118 H 0.88647 0.86452 0.7143 0.0
H1119 H 0.87152 0.87145 0.74149 0.0
C1120 C 0.21521 0.85782 0.24989 0.0
C1121 C 0.20397 0.88005 0.23948 0.0
C1122 C 0.19935 0.83758 0.25868 0.0
C1123 C 0.17165 0.83977 0.25714 0.0
C1124 C 0.16021 0.86213 0.24666 0.0
C1125 C 0.17651 0.8819 0.23786 0.0
C1126 C 0.21218 0.81391 0.26963 0.0
C1127 C 0.13072 0.86518 0.24472 0.0
C1128 C 0.12556 0.78126 0.25983 0.0
C1129 C 0.11495 0.78399 0.28177 0.0
C1130 C 0.14524 0.79838 0.25202 0.0
C1131 C 0.15433 0.81882 0.26643 0.0
C1132 C 0.14475 0.82079 0.289 0.0
C1133 C 0.12523 0.80327 0.29643 0.0
C1134 C 0.15517 0.79553 0.22789 0.0
C1135 C 0.15402 0.84232 0.30488 0.0
H1136 H 0.23642 0.85639 0.25142 0.0
H1137 H 0.16768 0.89875 0.22946 0.0
H1138 H 0.20584 0.81229 0.28766 0.0
H1139 H 0.20581 0.79561 0.26085 0.0
H1140 H 0.234 0.815 0.26911 0.0
H1141 H 0.12499 0.88395 0.23632 0.0
H1142 H 0.12238 0.84855 0.23478 0.0
H1143 H 0.12164 0.8646 0.2619 0.0
H1144 H 0.11759 0.76658 0.24832 0.0
H1145 H 0.11749 0.80513 0.31357 0.0
H1146 H 0.17698 0.79623 0.2275 0.0
H1147 H 0.14784 0.81221 0.21745 0.0
H1148 H 0.14855 0.77681 0.21988 0.0
H1149 H 0.17582 0.84304 0.30533 0.0
H1150 H 0.14661 0.83956 0.32252 0.0
H1151 H 0.14704 0.86171 0.29853 0.0
C1152 C 0.11955 0.18791 0.72482 0.0
C1153 C 0.11427 0.2128 0.73414 0.0
C1154 C 0.13965 0.17202 0.73364 0.0
C1155 C 0.15478 0.18125 0.75226 0.0
C1156 C 0.15009 0.20669 0.76132 0.0
C1157 C 0.12986 0.22223 0.7521 0.0
C1158 C 0.14422 0.14506 0.72339 0.0
C1159 C 0.16581 0.21712 0.7812 0.0
C1160 C 0.18421 0.12668 0.78804 0.0
C1161 C 0.20981 0.12509 0.77923 0.0
C1162 C 0.16646 0.14572 0.78012 0.0
C1163 C 0.17447 0.16352 0.76292 0.0
C1164 C 0.20061 0.1628 0.75466 0.0
C1165 C 0.218 0.14359 0.76294 0.0
C1166 C 0.13873 0.14592 0.78938 0.0
C1167 C 0.20986 0.18157 0.73639 0.0
H1168 H 0.10777 0.18077 0.71071 0.0
H1169 H 0.12566 0.24139 0.75945 0.0
H1170 H 0.16511 0.14289 0.71825 0.0
H1171 H 0.14007 0.12963 0.73629 0.0
H1172 H 0.13158 0.14139 0.70828 0.0
H1173 H 0.16108 0.23804 0.7851 0.0
H1174 H 0.16168 0.20507 0.79656 0.0
H1175 H 0.18719 0.21548 0.77766 0.0
H1176 H 0.17763 0.11227 0.80041 0.0
H1177 H 0.2379 0.1427 0.75634 0.0
H1178 H 0.12479 0.13989 0.77579 0.0
H1179 H 0.13315 0.16611 0.79484 0.0
H1180 H 0.13631 0.13235 0.80408 0.0
H1181 H 0.19946 0.17719 0.7202 0.0
H1182 H 0.23139 0.18006 0.73334 0.0
H1183 H 0.20506 0.2022 0.74112 0.0
C1184 C 0.88834 0.17969 0.27179 0.0
C1185 C 0.88513 0.2071 0.2703 0.0
C1186 C 0.86883 0.16245 0.2639 0.0
C1187 C 0.84546 0.17288 0.25438 0.0
C1188 C 0.84185 0.20052 0.25317 0.0
C1189 C 0.86177 0.21733 0.26115 0.0
C1190 C 0.87335 0.13307 0.26554 0.0
C1191 C 0.81715 0.2123 0.24314 0.0
C1192 C 0.80876 0.127 0.21451 0.0
C1193 C 0.78956 0.11643 0.22901 0.0
C1194 C 0.82659 0.14603 0.22236 0.0
C1195 C 0.82514 0.1547 0.24526 0.0
C1196 C 0.80527 0.14474 0.25978 0.0
C1197 C 0.78772 0.12568 0.25147 0.0
C1198 C 0.84758 0.15616 0.2064 0.0
C1199 C 0.80303 0.15365 0.28426 0.0
H1200 H 0.90616 0.17168 0.27922 0.0
H1201 H 0.8593 0.2385 0.25976 0.0
H1202 H 0.85733 0.12376 0.27554 0.0
H1203 H 0.87296 0.12416 0.24827 0.0
H1204 H 0.89247 0.12818 0.27369 0.0
H1205 H 0.81696 0.23418 0.24426 0.0
H1206 H 0.81538 0.20652 0.22497 0.0
H1207 H 0.79957 0.20452 0.25208 0.0
H1208 H 0.81044 0.11971 0.1972 0.0
H1209 H 0.77265 0.11784 0.26264 0.0
H1210 H 0.86725 0.14995 0.21261 0.0
H1211 H 0.84739 0.17803 0.20605 0.0
H1212 H 0.84496 0.14872 0.18874 0.0
H1213 H 0.82084 0.14754 0.29383 0.0
H1214 H 0.78547 0.14527 0.29287 0.0
H1215 H 0.80193 0.17548 0.28513 0.0
loop_
_geom_bond_atom_site_label_1
_geom_bond_atom_site_label_2
_geom_bond_distance
_geom_bond_site_symmetry_2
_ccdc_geom_bond_type
Li0 N17 1.990 . S
Li0 O60 1.956 . S
Li0 O61 1.970 . S
Li0 O62 1.977 . S
Li1 N25 1.990 1_545 S
Li1 O60 1.982 . S
Li1 O61 1.956 . S
Li1 O63 1.950 1_545 S
Li2 N47 1.990 . S
Li2 O60 1.961 . S
Li2 O62 1.957 . S
Li2 O63 1.970 1_545 S
Li3 N53 1.990 . S
Li3 O61 1.961 1_565 S
Li3 O62 1.955 1_565 S
Li3 O63 1.956 . S
C4 C6 1.348 . S
C4 C7 1.356 . S
C4 O60 1.325 . S
N5 C8 1.314 . S
N5 C9 1.279 . S
C6 C4 1.348 . S
C6 C8 1.353 . S
C6 H64 0.929 . S
C7 C4 1.356 . S
C7 C9 1.358 . S
C7 H65 0.930 . S
C8 N5 1.314 . S
C8 C6 1.353 . S
C8 H66 0.930 . S
C9 N5 1.279 . S
C9 C7 1.358 . S
C9 H67 0.930 . S
C10 C13 1.375 . S
C10 C14 1.329 1_545 S
C10 O61 1.326 . S
C11 N12 1.290 . S
C11 C14 1.358 . S
C11 H68 0.930 . S
N12 C11 1.290 . S
N12 C15 1.304 1_565 S
C13 C10 1.375 . S
C13 C15 1.353 . S
C13 H69 0.929 . S
C14 C10 1.329 1_565 S
C14 C11 1.358 . S
C14 H70 0.930 . S
C15 N12 1.304 1_545 S
C15 C13 1.353 . S
C15 H71 0.930 . S
C16 N17 1.314 . S
C16 C21 1.353 . S
C16 H22 0.930 . S
N17 Li0 1.990 . S
N17 C16 1.314 . S
N17 C19 1.279 . S
C18 C19 1.358 . S
C18 C20 1.356 . S
C18 H72 0.930 . S
C19 N17 1.279 . S
C19 C18 1.358 . S
C19 H23 0.930 . S
C20 C18 1.356 . S
C20 C21 1.348 . S
C21 C16 1.353 . S
C21 C20 1.348 . S
C21 H73 0.929 . S
H22 C16 0.930 . S
H23 C19 0.930 . S
C24 N25 1.314 . S
C24 C26 1.353 . S
C24 H30 0.930 . S
N25 Li1 1.990 1_565 S
N25 C24 1.314 . S
N25 C28 1.279 1_565 S
C26 C24 1.353 . S
C26 C29 1.337 1_565 S
C26 H74 0.929 . S
C27 C28 1.358 . S
C27 C29 1.364 . S
C27 H75 0.930 . S
C28 N25 1.279 1_545 S
C28 C27 1.358 . S
C28 H31 0.930 . S
C29 C26 1.337 1_545 S
C29 C27 1.364 . S
H30 C24 0.930 . S
H31 C28 0.930 . S
C32 C34 1.313 1_545 S
C32 C35 1.390 . S
C32 O62 1.325 . S
N33 C36 1.314 1_545 S
N33 C37 1.279 . S
C34 C32 1.313 1_565 S
C34 C36 1.353 . S
C34 H76 0.929 . S
C35 C32 1.390 . S
C35 C37 1.358 . S
C35 H77 0.930 . S
C36 N33 1.314 1_565 S
C36 C34 1.353 . S
C36 H78 0.930 . S
C37 N33 1.279 . S
C37 C35 1.358 . S
C37 H79 0.930 . S
C38 C39 1.348 . S
C38 C40 1.356 . S
C38 O63 1.325 . S
C39 C38 1.348 . S
C39 C41 1.353 . S
C39 H80 0.929 . S
C40 C38 1.356 . S
C40 C42 1.358 . S
C40 H81 0.930 . S
C41 C39 1.353 . S
C41 N43 1.314 . S
C41 H82 0.930 . S
C42 C40 1.358 . S
C42 N43 1.279 . S
C42 H83 0.930 . S
N43 C41 1.314 . S
N43 C42 1.279 . S
C44 C46 1.353 . S
C44 N47 1.314 . S
C44 H50 0.930 . S
C45 N47 1.279 1_565 S
C45 C48 1.358 . S
C45 H51 0.930 . S
C46 C44 1.353 . S
C46 C49 1.359 . S
C46 H84 0.929 . S
N47 Li2 1.990 . S
N47 C44 1.314 . S
N47 C45 1.279 1_545 S
C48 C45 1.358 . S
C48 C49 1.350 1_565 S
C48 H85 0.930 . S
C49 C46 1.359 . S
C49 C48 1.350 1_545 S
H50 C44 0.930 . S
H51 C45 0.930 . S
C52 N53 1.314 . S
C52 C54 1.353 . S
C52 H58 0.930 . S
N53 Li3 1.990 . S
N53 C52 1.314 . S
N53 C56 1.279 . S
C54 C52 1.353 . S
C54 C57 1.348 . S
C54 H86 0.929 . S
C55 C56 1.358 . S
C55 C57 1.356 . S
C55 H87 0.930 . S
C56 N53 1.279 . S
C56 C55 1.358 . S
C56 H59 0.930 . S
C57 C54 1.348 . S
C57 C55 1.356 . S
H58 C52 0.930 . S
H59 C56 0.930 . S
O60 Li0 1.956 . S
O60 Li1 1.982 . S
O60 Li2 1.961 . S
O60 C4 1.325 . S
O61 Li0 1.970 . S
O61 Li1 1.956 . S
O61 Li3 1.961 1_545 S
O61 C10 1.326 . S
O62 Li0 1.977 . S
O62 Li2 1.957 . S
O62 Li3 1.955 1_545 S
O62 C32 1.325 . S
O63 Li1 1.950 1_565 S
O63 Li2 1.970 1_565 S
O63 Li3 1.956 . S
O63 C38 1.325 . S
H64 C6 0.929 . S
H65 C7 0.930 . S
H66 C8 0.930 . S
H67 C9 0.930 . S
H68 C11 0.930 . S
H69 C13 0.929 . S
H70 C14 0.930 . S
H71 C15 0.930 . S
H72 C18 0.930 . S
H73 C21 0.929 . S
H74 C26 0.929 . S
H75 C27 0.930 . S
H76 C34 0.929 . S
H77 C35 0.930 . S
H78 C36 0.930 . S
H79 C37 0.930 . S
H80 C39 0.929 . S
H81 C40 0.930 . S
H82 C41 0.930 . S
H83 C42 0.930 . S
H84 C46 0.929 . S
H85 C48 0.930 . S
H86 C54 0.929 . S
H87 C55 0.930 . S
Li88 N105 1.990 . S
Li88 O148 1.956 . S
Li88 O149 1.970 1_455 S
Li88 O150 1.960 1_455 S
Li89 N113 1.991 . S
Li89 O148 1.957 1_655 S
Li89 O149 1.969 . S
Li89 O151 1.960 1_655 S
Li90 N135 1.990 . S
Li90 O148 1.961 . S
Li90 O150 1.948 1_455 S
Li90 O151 1.970 . S
Li91 N141 1.990 . S
Li91 O149 1.961 . S
Li91 O150 1.977 . S
Li91 O151 1.956 1_655 S
C92 C94 1.348 . S
C92 C95 1.356 . S
C92 O148 1.325 . S
N93 C96 1.314 . S
N93 C97 1.279 . S
C94 C92 1.348 . S
C94 C96 1.353 . S
C94 H152 0.929 . S
C95 C92 1.356 . S
C95 C97 1.358 . S
C95 H153 0.930 . S
C96 N93 1.314 . S
C96 C94 1.353 . S
C96 H154 0.930 . S
C97 N93 1.279 . S
C97 C95 1.358 . S
C97 H155 0.930 . S
C98 C101 1.348 . S
C98 C102 1.356 . S
C98 O149 1.325 . S
C99 N100 1.279 . S
C99 C102 1.358 . S
C99 H156 0.930 . S
N100 C99 1.279 . S
N100 C103 1.314 . S
C101 C98 1.348 . S
C101 C103 1.353 . S
C101 H157 0.929 . S
C102 C98 1.356 . S
C102 C99 1.358 . S
C102 H158 0.930 . S
C103 N100 1.314 . S
C103 C101 1.353 . S
C103 H159 0.930 . S
C104 N105 1.314 1_655 S
C104 C109 1.353 . S
C104 H110 0.930 . S
N105 Li88 1.990 . S
N105 C104 1.314 1_455 S
N105 C107 1.279 . S
C106 C107 1.358 . S
C106 C108 1.378 . S
C106 H160 0.930 . S
C107 N105 1.279 . S
C107 C106 1.358 . S
C107 H111 0.930 . S
C108 C106 1.378 . S
C108 C109 1.330 1_455 S
C109 C104 1.353 . S
C109 C108 1.330 1_655 S
C109 H161 0.929 . S
H110 C104 0.930 . S
H111 C107 0.930 . S
C112 N113 1.314 1_455 S
C112 C114 1.353 . S
C112 H118 0.930 . S
N113 Li89 1.991 . S
N113 C112 1.314 1_655 S
N113 C116 1.279 . S
C114 C112 1.353 . S
C114 C117 1.364 . S
C114 H162 0.929 . S
C115 C116 1.358 . S
C115 C117 1.337 1_655 S
C115 H163 0.930 . S
C116 N113 1.279 . S
C116 C115 1.358 . S
C116 H119 0.930 . S
C117 C114 1.364 . S
C117 C115 1.337 1_455 S
H118 C112 0.930 . S
H119 C116 0.930 . S
C120 C122 1.331 1_455 S
C120 C123 1.377 . S
C120 O150 1.324 1_455 S
N121 C124 1.314 1_455 S
N121 C125 1.279 . S
C122 C120 1.331 1_655 S
C122 C124 1.353 . S
C122 H164 0.929 . S
C123 C120 1.377 . S
C123 C125 1.358 . S
C123 H165 0.930 . S
C124 N121 1.314 1_655 S
C124 C122 1.353 . S
C124 H166 0.930 . S
C125 N121 1.279 . S
C125 C123 1.358 . S
C125 H167 0.930 . S
C126 C127 1.364 . S
C126 C128 1.336 1_455 S
C126 O151 1.326 . S
C127 C126 1.364 . S
C127 C129 1.353 . S
C127 H168 0.929 . S
C128 C126 1.336 1_655 S
C128 C130 1.358 . S
C128 H169 0.930 . S
C129 C127 1.353 . S
C129 N131 1.314 1_455 S
C129 H170 0.930 . S
C130 C128 1.358 . S
C130 N131 1.279 . S
C130 H171 0.930 . S
N131 C129 1.314 1_655 S
N131 C130 1.279 . S
C132 C134 1.353 . S
C132 N135 1.314 . S
C132 H138 0.930 . S
C133 N135 1.279 . S
C133 C136 1.358 . S
C133 H139 0.930 . S
C134 C132 1.353 . S
C134 C137 1.348 . S
C134 H172 0.929 . S
N135 Li90 1.990 . S
N135 C132 1.314 . S
N135 C133 1.279 . S
C136 C133 1.358 . S
C136 C137 1.356 . S
C136 H173 0.930 . S
C137 C134 1.348 . S
C137 C136 1.356 . S
H138 C132 0.930 . S
H139 C133 0.930 . S
C140 N141 1.314 . S
C140 C142 1.353 . S
C140 H146 0.930 . S
N141 Li91 1.990 . S
N141 C140 1.314 . S
N141 C144 1.279 . S
C142 C140 1.353 . S
C142 C145 1.348 . S
C142 H174 0.929 . S
C143 C144 1.358 . S
C143 C145 1.356 . S
C143 H175 0.930 . S
C144 N141 1.279 . S
C144 C143 1.358 . S
C144 H147 0.930 . S
C145 C142 1.348 . S
C145 C143 1.356 . S
H146 C140 0.930 . S
H147 C144 0.930 . S
O148 Li88 1.956 . S
O148 Li89 1.957 1_455 S
O148 Li90 1.961 . S
O148 C92 1.325 . S
O149 Li88 1.970 1_655 S
O149 Li89 1.969 . S
O149 Li91 1.961 . S
O149 C98 1.325 . S
O150 Li88 1.960 1_655 S
O150 Li90 1.948 1_655 S
O150 Li91 1.977 . S
O150 C120 1.324 1_655 S
O151 Li89 1.960 1_455 S
O151 Li90 1.970 . S
O151 Li91 1.956 1_455 S
O151 C126 1.326 . S
H152 C94 0.929 . S
H153 C95 0.930 . S
H154 C96 0.930 . S
H155 C97 0.930 . S
H156 C99 0.930 . S
H157 C101 0.929 . S
H158 C102 0.930 . S
H159 C103 0.930 . S
H160 C106 0.930 . S
H161 C109 0.929 . S
H162 C114 0.929 . S
H163 C115 0.930 . S
H164 C122 0.929 . S
H165 C123 0.930 . S
H166 C124 0.930 . S
H167 C125 0.930 . S
H168 C127 0.929 . S
H169 C128 0.930 . S
H170 C129 0.930 . S
H171 C130 0.930 . S
H172 C134 0.929 . S
H173 C136 0.930 . S
H174 C142 0.929 . S
H175 C143 0.930 . S
Li176 N193 1.990 . S
Li176 O236 1.956 . S
Li176 O237 1.970 1_545 S
Li176 O238 1.961 . S
Li177 N201 1.990 . S
Li177 O236 1.970 1_565 S
Li177 O237 1.956 . S
Li177 O239 1.961 1_565 S
Li178 N223 1.990 . S
Li178 O236 1.961 . S
Li178 O238 1.956 . S
Li178 O239 1.970 . S
Li179 N229 1.990 1_545 S
Li179 O237 1.961 1_545 S
Li179 O238 1.970 . S
Li179 O239 1.956 . S
C180 C182 1.348 1_545 S
C180 C183 1.356 . S
C180 O236 1.325 . S
N181 C184 1.314 1_545 S
N181 C185 1.279 . S
C182 C180 1.348 1_565 S
C182 C184 1.353 . S
C182 H240 0.929 . S
C183 C180 1.356 . S
C183 C185 1.358 . S
C183 H241 0.930 . S
C184 N181 1.314 1_565 S
C184 C182 1.353 . S
C184 H242 0.930 . S
C185 N181 1.279 . S
C185 C183 1.358 . S
C185 H243 0.930 . S
C186 C189 1.348 . S
C186 C190 1.356 . S
C186 O237 1.325 . S
C187 N188 1.279 . S
C187 C190 1.358 . S
C187 H244 0.930 . S
N188 C187 1.279 . S
N188 C191 1.314 . S
C189 C186 1.348 . S
C189 C191 1.353 . S
C189 H245 0.929 . S
C190 C186 1.356 . S
C190 C187 1.358 . S
C190 H246 0.930 . S
C191 N188 1.314 . S
C191 C189 1.353 . S
C191 H247 0.930 . S
C192 N193 1.314 . S
C192 C197 1.353 . S
C192 H198 0.930 . S
N193 Li176 1.990 . S
N193 C192 1.314 . S
N193 C195 1.279 1_545 S
C194 C195 1.358 . S
C194 C196 1.356 1_565 S
C194 H248 0.930 . S
C195 N193 1.279 1_565 S
C195 C194 1.358 . S
C195 H199 0.930 . S
C196 C194 1.356 1_545 S
C196 C197 1.348 . S
C197 C192 1.353 . S
C197 C196 1.348 . S
C197 H249 0.929 . S
H198 C192 0.930 . S
H199 C195 0.930 . S
C200 N201 1.314 . S
C200 C202 1.353 . S
C200 H206 0.930 . S
N201 Li177 1.990 . S
N201 C200 1.314 . S
N201 C204 1.279 . S
C202 C200 1.353 . S
C202 C205 1.348 . S
C202 H250 0.929 . S
C203 C204 1.358 . S
C203 C205 1.356 . S
C203 H251 0.930 . S
C204 N201 1.279 . S
C204 C203 1.358 . S
C204 H207 0.930 . S
C205 C202 1.348 . S
C205 C203 1.356 . S
H206 C200 0.930 . S
H207 C204 0.930 . S
C208 C210 1.348 . S
C208 C211 1.356 . S
C208 O238 1.325 . S
N209 C212 1.314 . S
N209 C213 1.279 . S
C210 C208 1.348 . S
C210 C212 1.353 . S
C210 H252 0.929 . S
C211 C208 1.356 . S
C211 C213 1.358 . S
C211 H253 0.930 . S
C212 N209 1.314 . S
C212 C210 1.353 . S
C212 H254 0.930 . S
C213 N209 1.279 . S
C213 C211 1.358 . S
C213 H255 0.930 . S
C214 C215 1.348 . S
C214 C216 1.356 1_545 S
C214 O239 1.325 . S
C215 C214 1.348 . S
C215 C217 1.353 . S
C215 H256 0.929 . S
C216 C214 1.356 1_565 S
C216 C218 1.358 . S
C216 H257 0.930 . S
C217 C215 1.353 . S
C217 N219 1.334 . S
C217 H258 0.930 . S
C218 C216 1.358 . S
C218 N219 1.261 1_565 S
C218 H259 0.930 . S
N219 C217 1.334 . S
N219 C218 1.261 1_545 S
C220 C222 1.353 . S
C220 N223 1.314 . S
C220 H226 0.930 . S
C221 N223 1.279 . S
C221 C224 1.358 . S
C221 H227 0.930 . S
C222 C220 1.353 . S
C222 C225 1.348 . S
C222 H260 0.929 . S
N223 Li178 1.990 . S
N223 C220 1.314 . S
N223 C221 1.279 . S
C224 C221 1.358 . S
C224 C225 1.356 . S
C224 H261 0.930 . S
C225 C222 1.348 . S
C225 C224 1.356 . S
H226 C220 0.930 . S
H227 C221 0.930 . S
C228 N229 1.316 . S
C228 C230 1.353 . S
C228 H234 0.930 . S
N229 Li179 1.990 1_565 S
N229 C228 1.316 . S
N229 C232 1.278 1_565 S
C230 C228 1.353 . S
C230 C233 1.348 1_565 S
C230 H262 0.929 . S
C231 C232 1.358 . S
C231 C233 1.356 . S
C231 H263 0.930 . S
C232 N229 1.278 1_545 S
C232 C231 1.358 . S
C232 H235 0.930 . S
C233 C230 1.348 1_545 S
C233 C231 1.356 . S
H234 C228 0.930 . S
H235 C232 0.930 . S
O236 Li176 1.956 . S
O236 Li177 1.970 1_545 S
O236 Li178 1.961 . S
O236 C180 1.325 . S
O237 Li176 1.970 1_565 S
O237 Li177 1.956 . S
O237 Li179 1.961 1_565 S
O237 C186 1.325 . S
O238 Li176 1.961 . S
O238 Li178 1.956 . S
O238 Li179 1.970 . S
O238 C208 1.325 . S
O239 Li177 1.961 1_545 S
O239 Li178 1.970 . S
O239 Li179 1.956 . S
O239 C214 1.325 . S
H240 C182 0.929 . S
H241 C183 0.930 . S
H242 C184 0.930 . S
H243 C185 0.930 . S
H244 C187 0.930 . S
H245 C189 0.929 . S
H246 C190 0.930 . S
H247 C191 0.930 . S
H248 C194 0.930 . S
H249 C197 0.929 . S
H250 C202 0.929 . S
H251 C203 0.930 . S
H252 C210 0.929 . S
H253 C211 0.930 . S
H254 C212 0.930 . S
H255 C213 0.930 . S
H256 C215 0.929 . S
H257 C216 0.930 . S
H258 C217 0.930 . S
H259 C218 0.930 . S
H260 C222 0.929 . S
H261 C224 0.930 . S
H262 C230 0.929 . S
H263 C231 0.930 . S
Li264 N281 1.990 . S
Li264 O324 1.956 1_655 S
Li264 O325 1.960 1_655 S
Li264 O326 1.961 . S
Li265 N289 1.990 . S
Li265 O324 1.970 . S
Li265 O325 1.968 . S
Li265 O327 1.961 . S
Li266 N311 1.990 1_455 S
Li266 O324 1.961 . S
Li266 O326 1.949 1_455 S
Li266 O327 1.978 . S
Li267 N317 1.990 . S
Li267 O325 1.962 . S
Li267 O326 1.970 1_455 S
Li267 O327 1.956 . S
C268 C270 1.348 . S
C268 C271 1.356 1_455 S
C268 O324 1.325 . S
N269 C272 1.314 1_655 S
N269 C273 1.279 . S
C270 C268 1.348 . S
C270 C272 1.353 . S
C270 H328 0.929 . S
C271 C268 1.356 1_655 S
C271 C273 1.358 . S
C271 H329 0.930 . S
C272 N269 1.314 1_455 S
C272 C270 1.353 . S
C272 H330 0.930 . S
C273 N269 1.279 . S
C273 C271 1.358 . S
C273 H331 0.930 . S
C274 C277 1.348 1_455 S
C274 C278 1.356 . S
C274 O325 1.326 . S
C275 N276 1.279 . S
C275 C278 1.358 . S
C275 H332 0.930 . S
N276 C275 1.279 . S
N276 C279 1.314 1_455 S
C277 C274 1.348 1_655 S
C277 C279 1.353 . S
C277 H333 0.929 . S
C278 C274 1.356 . S
C278 C275 1.358 . S
C278 H334 0.930 . S
C279 N276 1.314 1_655 S
C279 C277 1.353 . S
C279 H335 0.930 . S
C280 N281 1.314 . S
C280 C285 1.353 . S
C280 H286 0.930 . S
N281 Li264 1.990 . S
N281 C280 1.314 . S
N281 C283 1.279 . S
C282 C283 1.358 . S
C282 C284 1.356 . S
C282 H336 0.930 . S
C283 N281 1.279 . S
C283 C282 1.358 . S
C283 H287 0.930 . S
C284 C282 1.356 . S
C284 C285 1.348 . S
C285 C280 1.353 . S
C285 C284 1.348 . S
C285 H337 0.929 . S
H286 C280 0.930 . S
H287 C283 0.930 . S
C288 N289 1.314 . S
C288 C290 1.353 . S
C288 H294 0.930 . S
N289 Li265 1.990 . S
N289 C288 1.314 . S
N289 C292 1.279 . S
C290 C288 1.353 . S
C290 C293 1.348 . S
C290 H338 0.929 . S
C291 C292 1.358 . S
C291 C293 1.356 . S
C291 H339 0.930 . S
C292 N289 1.279 . S
C292 C291 1.358 . S
C292 H295 0.930 . S
C293 C290 1.348 . S
C293 C291 1.356 . S
H294 C288 0.930 . S
H295 C292 0.930 . S
C296 C298 1.348 . S
C296 C299 1.356 . S
C296 O326 1.325 . S
N297 C300 1.314 . S
N297 C301 1.279 . S
C298 C296 1.348 . S
C298 C300 1.353 . S
C298 H340 0.929 . S
C299 C296 1.356 . S
C299 C301 1.358 . S
C299 H341 0.930 . S
C300 N297 1.314 . S
C300 C298 1.353 . S
C300 H342 0.930 . S
C301 N297 1.279 . S
C301 C299 1.358 . S
C301 H343 0.930 . S
C302 C303 1.348 . S
C302 C304 1.356 . S
C302 O327 1.325 . S
C303 C302 1.348 . S
C303 C305 1.353 . S
C303 H344 0.929 . S
C304 C302 1.356 . S
C304 C306 1.358 . S
C304 H345 0.930 . S
C305 C303 1.353 . S
C305 N307 1.314 . S
C305 H346 0.930 . S
C306 C304 1.358 . S
C306 N307 1.279 . S
C306 H347 0.930 . S
N307 C305 1.314 . S
N307 C306 1.279 . S
C308 C310 1.353 . S
C308 N311 1.314 1_455 S
C308 H314 0.930 . S
C309 N311 1.279 . S
C309 C312 1.358 . S
C309 H315 0.930 . S
C310 C308 1.353 . S
C310 C313 1.348 . S
C310 H348 0.929 . S
N311 Li266 1.990 1_655 S
N311 C308 1.314 1_655 S
N311 C309 1.279 . S
C312 C309 1.358 . S
C312 C313 1.356 1_655 S
C312 H349 0.930 . S
C313 C310 1.348 . S
C313 C312 1.356 1_455 S
H314 C308 0.930 . S
H315 C309 0.930 . S
C316 N317 1.314 1_655 S
C316 C318 1.353 . S
C316 H322 0.930 . S
N317 Li267 1.990 . S
N317 C316 1.314 1_455 S
N317 C320 1.279 . S
C318 C316 1.353 . S
C318 C321 1.348 1_655 S
C318 H350 0.929 . S
C319 C320 1.358 . S
C319 C321 1.356 . S
C319 H351 0.930 . S
C320 N317 1.279 . S
C320 C319 1.358 . S
C320 H323 0.930 . S
C321 C318 1.348 1_455 S
C321 C319 1.356 . S
H322 C316 0.930 . S
H323 C320 0.930 . S
O324 Li264 1.956 1_455 S
O324 Li265 1.970 . S
O324 Li266 1.961 . S
O324 C268 1.325 . S
O325 Li264 1.960 1_455 S
O325 Li265 1.968 . S
O325 Li267 1.962 . S
O325 C274 1.326 . S
O326 Li264 1.961 . S
O326 Li266 1.949 1_655 S
O326 Li267 1.970 1_655 S
O326 C296 1.325 . S
O327 Li265 1.961 . S
O327 Li266 1.978 . S
O327 Li267 1.956 . S
O327 C302 1.325 . S
H328 C270 0.929 . S
H329 C271 0.930 . S
H330 C272 0.930 . S
H331 C273 0.930 . S
H332 C275 0.930 . S
H333 C277 0.929 . S
H334 C278 0.930 . S
H335 C279 0.930 . S
H336 C282 0.930 . S
H337 C285 0.929 . S
H338 C290 0.929 . S
H339 C291 0.930 . S
H340 C298 0.929 . S
H341 C299 0.930 . S
H342 C300 0.930 . S
H343 C301 0.930 . S
H344 C303 0.929 . S
H345 C304 0.930 . S
H346 C305 0.930 . S
H347 C306 0.930 . S
H348 C310 0.929 . S
H349 C312 0.930 . S
H350 C318 0.929 . S
H351 C319 0.930 . S
Li352 N369 1.990 . S
Li352 O412 1.956 . S
Li352 O413 1.970 . S
Li352 O414 1.961 . S
Li353 N377 1.990 1_545 S
Li353 O412 1.970 . S
Li353 O413 1.956 . S
Li353 O415 1.961 1_545 S
Li354 N399 1.990 . S
Li354 O412 1.961 . S
Li354 O414 1.956 . S
Li354 O415 1.970 1_545 S
Li355 N405 1.990 . S
Li355 O413 1.961 1_565 S
Li355 O414 1.970 1_565 S
Li355 O415 1.956 . S
C356 C358 1.348 . S
C356 C359 1.356 . S
C356 O412 1.325 . S
N357 C360 1.314 . S
N357 C361 1.279 . S
C358 C356 1.348 . S
C358 C360 1.353 . S
C358 H416 0.929 . S
C359 C356 1.356 . S
C359 C361 1.358 . S
C359 H417 0.930 . S
C360 N357 1.314 . S
C360 C358 1.353 . S
C360 H418 0.930 . S
C361 N357 1.279 . S
C361 C359 1.358 . S
C361 H419 0.930 . S
C362 C365 1.348 . S
C362 C366 1.356 1_545 S
C362 O413 1.325 . S
C363 N364 1.261 1_565 S
C363 C366 1.358 . S
C363 H420 0.930 . S
N364 C363 1.261 1_545 S
N364 C367 1.334 . S
C365 C362 1.348 . S
C365 C367 1.353 . S
C365 H421 0.929 . S
C366 C362 1.356 1_565 S
C366 C363 1.358 . S
C366 H422 0.930 . S
C367 N364 1.334 . S
C367 C365 1.353 . S
C367 H423 0.930 . S
C368 N369 1.314 . S
C368 C373 1.353 . S
C368 H374 0.930 . S
N369 Li352 1.990 . S
N369 C368 1.314 . S
N369 C371 1.279 . S
C370 C371 1.358 . S
C370 C372 1.356 . S
C370 H424 0.930 . S
C371 N369 1.279 . S
C371 C370 1.358 . S
C371 H375 0.930 . S
C372 C370 1.356 . S
C372 C373 1.348 . S
C373 C368 1.353 . S
C373 C372 1.348 . S
C373 H425 0.929 . S
H374 C368 0.930 . S
H375 C371 0.930 . S
C376 N377 1.316 . S
C376 C378 1.353 . S
C376 H382 0.930 . S
N377 Li353 1.990 1_565 S
N377 C376 1.316 . S
N377 C380 1.278 1_565 S
C378 C376 1.353 . S
C378 C381 1.348 1_565 S
C378 H426 0.929 . S
C379 C380 1.358 . S
C379 C381 1.356 . S
C379 H427 0.930 . S
C380 N377 1.278 1_545 S
C380 C379 1.358 . S
C380 H383 0.930 . S
C381 C378 1.348 1_545 S
C381 C379 1.356 . S
H382 C376 0.930 . S
H383 C380 0.930 . S
C384 C386 1.348 1_545 S
C384 C387 1.356 . S
C384 O414 1.325 . S
N385 C388 1.314 1_545 S
N385 C389 1.279 . S
C386 C384 1.348 1_565 S
C386 C388 1.353 . S
C386 H428 0.929 . S
C387 C384 1.356 . S
C387 C389 1.358 . S
C387 H429 0.930 . S
C388 N385 1.314 1_565 S
C388 C386 1.353 . S
C388 H430 0.930 . S
C389 N385 1.279 . S
C389 C387 1.358 . S
C389 H431 0.930 . S
C390 C391 1.348 . S
C390 C392 1.356 . S
C390 O415 1.325 . S
C391 C390 1.348 . S
C391 C393 1.353 . S
C391 H432 0.929 . S
C392 C390 1.356 . S
C392 C394 1.358 . S
C392 H433 0.930 . S
C393 C391 1.353 . S
C393 N395 1.314 . S
C393 H434 0.930 . S
C394 C392 1.358 . S
C394 N395 1.279 . S
C394 H435 0.930 . S
N395 C393 1.314 . S
N395 C394 1.279 . S
C396 C398 1.353 . S
C396 N399 1.314 . S
C396 H402 0.930 . S
C397 N399 1.279 1_565 S
C397 C400 1.358 . S
C397 H403 0.930 . S
C398 C396 1.353 . S
C398 C401 1.348 . S
C398 H436 0.929 . S
N399 Li354 1.990 . S
N399 C396 1.314 . S
N399 C397 1.279 1_545 S
C400 C397 1.358 . S
C400 C401 1.356 1_565 S
C400 H437 0.930 . S
C401 C398 1.348 . S
C401 C400 1.356 1_545 S
H402 C396 0.930 . S
H403 C397 0.930 . S
C404 N405 1.314 . S
C404 C406 1.353 . S
C404 H410 0.930 . S
N405 Li355 1.990 . S
N405 C404 1.314 . S
N405 C408 1.279 . S
C406 C404 1.353 . S
C406 C409 1.348 . S
C406 H438 0.929 . S
C407 C408 1.358 . S
C407 C409 1.356 . S
C407 H439 0.930 . S
C408 N405 1.279 . S
C408 C407 1.358 . S
C408 H411 0.930 . S
C409 C406 1.348 . S
C409 C407 1.356 . S
H410 C404 0.930 . S
H411 C408 0.930 . S
O412 Li352 1.956 . S
O412 Li353 1.970 . S
O412 Li354 1.961 . S
O412 C356 1.325 . S
O413 Li352 1.970 . S
O413 Li353 1.956 . S
O413 Li355 1.961 1_545 S
O413 C362 1.325 . S
O414 Li352 1.961 . S
O414 Li354 1.956 . S
O414 Li355 1.970 1_545 S
O414 C384 1.325 . S
O415 Li353 1.961 1_565 S
O415 Li354 1.970 1_565 S
O415 Li355 1.956 . S
O415 C390 1.325 . S
H416 C358 0.929 . S
H417 C359 0.930 . S
H418 C360 0.930 . S
H419 C361 0.930 . S
H420 C363 0.930 . S
H421 C365 0.929 . S
H422 C366 0.930 . S
H423 C367 0.930 . S
H424 C370 0.930 . S
H425 C373 0.929 . S
H426 C378 0.929 . S
H427 C379 0.930 . S
H428 C386 0.929 . S
H429 C387 0.930 . S
H430 C388 0.930 . S
H431 C389 0.930 . S
H432 C391 0.929 . S
H433 C392 0.930 . S
H434 C393 0.930 . S
H435 C394 0.930 . S
H436 C398 0.929 . S
H437 C400 0.930 . S
H438 C406 0.929 . S
H439 C407 0.930 . S
Li440 N457 1.990 . S
Li440 O500 1.956 . S
Li440 O501 1.970 1_455 S
Li440 O502 1.962 . S
Li441 N465 1.990 1_455 S
Li441 O500 1.978 . S
Li441 O501 1.949 1_455 S
Li441 O503 1.961 . S
Li442 N487 1.990 . S
Li442 O500 1.961 . S
Li442 O502 1.968 . S
Li442 O503 1.970 . S
Li443 N493 1.990 . S
Li443 O501 1.961 . S
Li443 O502 1.960 1_655 S
Li443 O503 1.956 1_655 S
C444 C446 1.348 . S
C444 C447 1.356 . S
C444 O500 1.325 . S
N445 C448 1.314 . S
N445 C449 1.279 . S
C446 C444 1.348 . S
C446 C448 1.353 . S
C446 H504 0.929 . S
C447 C444 1.356 . S
C447 C449 1.358 . S
C447 H505 0.930 . S
C448 N445 1.314 . S
C448 C446 1.353 . S
C448 H506 0.930 . S
C449 N445 1.279 . S
C449 C447 1.358 . S
C449 H507 0.930 . S
C450 C453 1.348 . S
C450 C454 1.356 . S
C450 O501 1.325 . S
C451 N452 1.279 . S
C451 C454 1.358 . S
C451 H508 0.930 . S
N452 C451 1.279 . S
N452 C455 1.314 . S
C453 C450 1.348 . S
C453 C455 1.353 . S
C453 H509 0.929 . S
C454 C450 1.356 . S
C454 C451 1.358 . S
C454 H510 0.930 . S
C455 N452 1.314 . S
C455 C453 1.353 . S
C455 H511 0.930 . S
C456 N457 1.314 1_655 S
C456 C461 1.353 . S
C456 H462 0.930 . S
N457 Li440 1.990 . S
N457 C456 1.314 1_455 S
N457 C459 1.279 . S
C458 C459 1.358 . S
C458 C460 1.356 . S
C458 H512 0.930 . S
C459 N457 1.279 . S
C459 C458 1.358 . S
C459 H463 0.930 . S
C460 C458 1.356 . S
C460 C461 1.348 1_455 S
C461 C456 1.353 . S
C461 C460 1.348 1_655 S
C461 H513 0.929 . S
H462 C456 0.930 . S
H463 C459 0.930 . S
C464 N465 1.314 1_455 S
C464 C466 1.353 . S
C464 H470 0.930 . S
N465 Li441 1.990 1_655 S
N465 C464 1.314 1_655 S
N465 C468 1.279 . S
C466 C464 1.353 . S
C466 C469 1.348 . S
C466 H514 0.929 . S
C467 C468 1.358 . S
C467 C469 1.356 1_655 S
C467 H515 0.930 . S
C468 N465 1.279 . S
C468 C467 1.358 . S
C468 H471 0.930 . S
C469 C466 1.348 . S
C469 C467 1.356 1_455 S
H470 C464 0.930 . S
H471 C468 0.930 . S
C472 C474 1.348 1_455 S
C472 C475 1.356 . S
C472 O502 1.326 . S
N473 C476 1.314 1_455 S
N473 C477 1.279 . S
C474 C472 1.348 1_655 S
C474 C476 1.353 . S
C474 H516 0.929 . S
C475 C472 1.356 . S
C475 C477 1.358 . S
C475 H517 0.930 . S
C476 N473 1.314 1_655 S
C476 C474 1.353 . S
C476 H518 0.930 . S
C477 N473 1.279 . S
C477 C475 1.358 . S
C477 H519 0.930 . S
C478 C479 1.348 . S
C478 C480 1.356 1_455 S
C478 O503 1.325 . S
C479 C478 1.348 . S
C479 C481 1.353 . S
C479 H520 0.929 . S
C480 C478 1.356 1_655 S
C480 C482 1.358 . S
C480 H521 0.930 . S
C481 C479 1.353 . S
C481 N483 1.314 1_455 S
C481 H522 0.930 . S
C482 C480 1.358 . S
C482 N483 1.279 . S
C482 H523 0.930 . S
N483 C481 1.314 1_655 S
N483 C482 1.279 . S
C484 C486 1.353 . S
C484 N487 1.314 . S
C484 H490 0.930 . S
C485 N487 1.279 . S
C485 C488 1.358 . S
C485 H491 0.930 . S
C486 C484 1.353 . S
C486 C489 1.348 . S
C486 H524 0.929 . S
N487 Li442 1.990 . S
N487 C484 1.314 . S
N487 C485 1.279 . S
C488 C485 1.358 . S
C488 C489 1.356 . S
C488 H525 0.930 . S
C489 C486 1.348 . S
C489 C488 1.356 . S
H490 C484 0.930 . S
H491 C485 0.930 . S
C492 N493 1.314 . S
C492 C494 1.353 . S
C492 H498 0.930 . S
N493 Li443 1.990 . S
N493 C492 1.314 . S
N493 C496 1.279 . S
C494 C492 1.353 . S
C494 C497 1.348 . S
C494 H526 0.929 . S
C495 C496 1.358 . S
C495 C497 1.356 . S
C495 H527 0.930 . S
C496 N493 1.279 . S
C496 C495 1.358 . S
C496 H499 0.930 . S
C497 C494 1.348 . S
C497 C495 1.356 . S
H498 C492 0.930 . S
H499 C496 0.930 . S
O500 Li440 1.956 . S
O500 Li441 1.978 . S
O500 Li442 1.961 . S
O500 C444 1.325 . S
O501 Li440 1.970 1_655 S
O501 Li441 1.949 1_655 S
O501 Li443 1.961 . S
O501 C450 1.325 . S
O502 Li440 1.962 . S
O502 Li442 1.968 . S
O502 Li443 1.960 1_455 S
O502 C472 1.326 . S
O503 Li441 1.961 . S
O503 Li442 1.970 . S
O503 Li443 1.956 1_455 S
O503 C478 1.325 . S
H504 C446 0.929 . S
H505 C447 0.930 . S
H506 C448 0.930 . S
H507 C449 0.930 . S
H508 C451 0.930 . S
H509 C453 0.929 . S
H510 C454 0.930 . S
H511 C455 0.930 . S
H512 C458 0.930 . S
H513 C461 0.929 . S
H514 C466 0.929 . S
H515 C467 0.930 . S
H516 C474 0.929 . S
H517 C475 0.930 . S
H518 C476 0.930 . S
H519 C477 0.930 . S
H520 C479 0.929 . S
H521 C480 0.930 . S
H522 C481 0.930 . S
H523 C482 0.930 . S
H524 C486 0.929 . S
H525 C488 0.930 . S
H526 C494 0.929 . S
H527 C495 0.930 . S
Li528 N545 1.990 . S
Li528 O588 1.957 . S
Li528 O589 1.970 1_545 S
Li528 O590 1.961 . S
Li529 N553 1.990 . S
Li529 O588 1.955 1_565 S
Li529 O589 1.956 . S
Li529 O591 1.961 1_565 S
Li530 N575 1.990 . S
Li530 O588 1.977 . S
Li530 O590 1.956 . S
Li530 O591 1.970 . S
Li531 N581 1.990 1_545 S
Li531 O589 1.950 1_545 S
Li531 O590 1.982 . S
Li531 O591 1.956 . S
C532 C534 1.313 1_545 S
C532 C535 1.390 . S
C532 O588 1.325 . S
N533 C536 1.314 1_545 S
N533 C537 1.279 . S
C534 C532 1.313 1_565 S
C534 C536 1.353 . S
C534 H592 0.929 . S
C535 C532 1.390 . S
C535 C537 1.358 . S
C535 H593 0.930 . S
C536 N533 1.314 1_565 S
C536 C534 1.353 . S
C536 H594 0.930 . S
C537 N533 1.279 . S
C537 C535 1.358 . S
C537 H595 0.930 . S
C538 C541 1.348 . S
C538 C542 1.356 . S
C538 O589 1.325 . S
C539 N540 1.279 . S
C539 C542 1.358 . S
C539 H596 0.930 . S
N540 C539 1.279 . S
N540 C543 1.314 . S
C541 C538 1.348 . S
C541 C543 1.353 . S
C541 H597 0.929 . S
C542 C538 1.356 . S
C542 C539 1.358 . S
C542 H598 0.930 . S
C543 N540 1.314 . S
C543 C541 1.353 . S
C543 H599 0.930 . S
C544 N545 1.314 . S
C544 C549 1.353 . S
C544 H550 0.930 . S
N545 Li528 1.990 . S
N545 C544 1.314 . S
N545 C547 1.279 1_545 S
C546 C547 1.358 . S
C546 C548 1.350 1_565 S
C546 H600 0.930 . S
C547 N545 1.279 1_565 S
C547 C546 1.358 . S
C547 H551 0.930 . S
C548 C546 1.350 1_545 S
C548 C549 1.359 . S
C549 C544 1.353 . S
C549 C548 1.359 . S
C549 H601 0.929 . S
H550 C544 0.930 . S
H551 C547 0.930 . S
C552 N553 1.314 . S
C552 C554 1.353 . S
C552 H558 0.930 . S
N553 Li529 1.990 . S
N553 C552 1.314 . S
N553 C556 1.279 . S
C554 C552 1.353 . S
C554 C557 1.348 . S
C554 H602 0.929 . S
C555 C556 1.358 . S
C555 C557 1.356 . S
C555 H603 0.930 . S
C556 N553 1.279 . S
C556 C555 1.358 . S
C556 H559 0.930 . S
C557 C554 1.348 . S
C557 C555 1.356 . S
H558 C552 0.930 . S
H559 C556 0.930 . S
C560 C562 1.348 . S
C560 C563 1.356 . S
C560 O590 1.325 . S
N561 C564 1.314 . S
N561 C565 1.279 . S
C562 C560 1.348 . S
C562 C564 1.353 . S
C562 H604 0.929 . S
C563 C560 1.356 . S
C563 C565 1.358 . S
C563 H605 0.930 . S
C564 N561 1.314 . S
C564 C562 1.353 . S
C564 H606 0.930 . S
C565 N561 1.279 . S
C565 C563 1.358 . S
C565 H607 0.930 . S
C566 C567 1.376 . S
C566 C568 1.329 1_545 S
C566 O591 1.326 . S
C567 C566 1.376 . S
C567 C569 1.353 . S
C567 H608 0.929 . S
C568 C566 1.329 1_565 S
C568 C570 1.358 . S
C568 H609 0.930 . S
C569 C567 1.353 . S
C569 N571 1.304 1_545 S
C569 H610 0.930 . S
C570 C568 1.358 . S
C570 N571 1.290 . S
C570 H611 0.930 . S
N571 C569 1.304 1_565 S
N571 C570 1.290 . S
C572 C574 1.353 . S
C572 N575 1.314 . S
C572 H578 0.930 . S
C573 N575 1.279 . S
C573 C576 1.358 . S
C573 H579 0.930 . S
C574 C572 1.353 . S
C574 C577 1.348 . S
C574 H612 0.929 . S
N575 Li530 1.990 . S
N575 C572 1.314 . S
N575 C573 1.279 . S
C576 C573 1.358 . S
C576 C577 1.356 . S
C576 H613 0.930 . S
C577 C574 1.348 . S
C577 C576 1.356 . S
H578 C572 0.930 . S
H579 C573 0.930 . S
C580 N581 1.314 . S
C580 C582 1.353 . S
C580 H586 0.930 . S
N581 Li531 1.990 1_565 S
N581 C580 1.314 . S
N581 C584 1.279 1_565 S
C582 C580 1.353 . S
C582 C585 1.337 1_565 S
C582 H614 0.929 . S
C583 C584 1.358 . S
C583 C585 1.364 . S
C583 H615 0.930 . S
C584 N581 1.279 1_545 S
C584 C583 1.358 . S
C584 H587 0.930 . S
C585 C582 1.337 1_545 S
C585 C583 1.364 . S
H586 C580 0.930 . S
H587 C584 0.930 . S
O588 Li528 1.957 . S
O588 Li529 1.955 1_545 S
O588 Li530 1.977 . S
O588 C532 1.325 . S
O589 Li528 1.970 1_565 S
O589 Li529 1.956 . S
O589 Li531 1.950 1_565 S
O589 C538 1.325 . S
O590 Li528 1.961 . S
O590 Li530 1.956 . S
O590 Li531 1.982 . S
O590 C560 1.325 . S
O591 Li529 1.961 1_545 S
O591 Li530 1.970 . S
O591 Li531 1.956 . S
O591 C566 1.326 . S
H592 C534 0.929 . S
H593 C535 0.930 . S
H594 C536 0.930 . S
H595 C537 0.930 . S
H596 C539 0.930 . S
H597 C541 0.929 . S
H598 C542 0.930 . S
H599 C543 0.930 . S
H600 C546 0.930 . S
H601 C549 0.929 . S
H602 C554 0.929 . S
H603 C555 0.930 . S
H604 C562 0.929 . S
H605 C563 0.930 . S
H606 C564 0.930 . S
H607 C565 0.930 . S
H608 C567 0.929 . S
H609 C568 0.930 . S
H610 C569 0.930 . S
H611 C570 0.930 . S
H612 C574 0.929 . S
H613 C576 0.930 . S
H614 C582 0.929 . S
H615 C583 0.930 . S
Li616 N633 1.990 . S
Li616 O676 1.956 1_655 S
Li616 O677 1.977 . S
Li616 O678 1.961 . S
Li617 N641 1.990 . S
Li617 O676 1.970 . S
Li617 O677 1.948 1_455 S
Li617 O679 1.961 . S
Li618 N663 1.991 . S
Li618 O676 1.960 1_655 S
Li618 O678 1.969 . S
Li618 O679 1.957 1_655 S
Li619 N669 1.990 . S
Li619 O677 1.960 1_455 S
Li619 O678 1.970 1_455 S
Li619 O679 1.956 . S
C620 C622 1.365 . S
C620 C623 1.336 1_455 S
C620 O676 1.326 . S
N621 C624 1.314 1_655 S
N621 C625 1.279 . S
C622 C620 1.365 . S
C622 C624 1.353 . S
C622 H680 0.929 . S
C623 C620 1.336 1_655 S
C623 C625 1.358 . S
C623 H681 0.930 . S
C624 N621 1.314 1_455 S
C624 C622 1.353 . S
C624 H682 0.930 . S
C625 N621 1.279 . S
C625 C623 1.358 . S
C625 H683 0.930 . S
C626 C629 1.331 1_455 S
C626 C630 1.377 . S
C626 O677 1.324 1_455 S
C627 N628 1.279 . S
C627 C630 1.358 . S
C627 H684 0.930 . S
N628 C627 1.279 . S
N628 C631 1.314 1_455 S
C629 C626 1.331 1_655 S
C629 C631 1.353 . S
C629 H685 0.929 . S
C630 C626 1.377 . S
C630 C627 1.358 . S
C630 H686 0.930 . S
C631 N628 1.314 1_655 S
C631 C629 1.353 . S
C631 H687 0.930 . S
C632 N633 1.314 . S
C632 C637 1.353 . S
C632 H638 0.930 . S
N633 Li616 1.990 . S
N633 C632 1.314 . S
N633 C635 1.279 . S
C634 C635 1.358 . S
C634 C636 1.356 . S
C634 H688 0.930 . S
C635 N633 1.279 . S
C635 C634 1.358 . S
C635 H639 0.930 . S
C636 C634 1.356 . S
C636 C637 1.348 . S
C637 C632 1.353 . S
C637 C636 1.348 . S
C637 H689 0.929 . S
H638 C632 0.930 . S
H639 C635 0.930 . S
C640 N641 1.314 . S
C640 C642 1.353 . S
C640 H646 0.930 . S
N641 Li617 1.990 . S
N641 C640 1.314 . S
N641 C644 1.279 . S
C642 C640 1.353 . S
C642 C645 1.348 . S
C642 H690 0.929 . S
C643 C644 1.358 . S
C643 C645 1.356 . S
C643 H691 0.930 . S
C644 N641 1.279 . S
C644 C643 1.358 . S
C644 H647 0.930 . S
C645 C642 1.348 . S
C645 C643 1.356 . S
H646 C640 0.930 . S
H647 C644 0.930 . S
C648 C650 1.348 . S
C648 C651 1.356 . S
C648 O678 1.325 . S
N649 C652 1.314 . S
N649 C653 1.279 . S
C650 C648 1.348 . S
C650 C652 1.353 . S
C650 H692 0.929 . S
C651 C648 1.356 . S
C651 C653 1.358 . S
C651 H693 0.930 . S
C652 N649 1.314 . S
C652 C650 1.353 . S
C652 H694 0.930 . S
C653 N649 1.279 . S
C653 C651 1.358 . S
C653 H695 0.930 . S
C654 C655 1.348 . S
C654 C656 1.356 . S
C654 O679 1.325 . S
C655 C654 1.348 . S
C655 C657 1.353 . S
C655 H696 0.929 . S
C656 C654 1.356 . S
C656 C658 1.358 . S
C656 H697 0.930 . S
C657 C655 1.353 . S
C657 N659 1.314 . S
C657 H698 0.930 . S
C658 C656 1.358 . S
C658 N659 1.279 . S
C658 H699 0.930 . S
N659 C657 1.314 . S
N659 C658 1.279 . S
C660 C662 1.353 . S
C660 N663 1.314 1_455 S
C660 H666 0.930 . S
C661 N663 1.279 . S
C661 C664 1.358 . S
C661 H667 0.930 . S
C662 C660 1.353 . S
C662 C665 1.364 . S
C662 H700 0.929 . S
N663 Li618 1.991 . S
N663 C660 1.314 1_655 S
N663 C661 1.279 . S
C664 C661 1.358 . S
C664 C665 1.337 1_655 S
C664 H701 0.930 . S
C665 C662 1.364 . S
C665 C664 1.337 1_455 S
H666 C660 0.930 . S
H667 C661 0.930 . S
C668 N669 1.314 1_655 S
C668 C670 1.353 . S
C668 H674 0.930 . S
N669 Li619 1.990 . S
N669 C668 1.314 1_455 S
N669 C672 1.279 . S
C670 C668 1.353 . S
C670 C673 1.330 1_655 S
C670 H702 0.929 . S
C671 C672 1.358 . S
C671 C673 1.378 . S
C671 H703 0.930 . S
C672 N669 1.279 . S
C672 C671 1.358 . S
C672 H675 0.930 . S
C673 C670 1.330 1_455 S
C673 C671 1.378 . S
H674 C668 0.930 . S
H675 C672 0.930 . S
O676 Li616 1.956 1_455 S
O676 Li617 1.970 . S
O676 Li618 1.960 1_455 S
O676 C620 1.326 . S
O677 Li616 1.977 . S
O677 Li617 1.948 1_655 S
O677 Li619 1.960 1_655 S
O677 C626 1.324 1_655 S
O678 Li616 1.961 . S
O678 Li618 1.969 . S
O678 Li619 1.970 1_655 S
O678 C648 1.325 . S
O679 Li617 1.961 . S
O679 Li618 1.957 1_455 S
O679 Li619 1.956 . S
O679 C654 1.325 . S
H680 C622 0.929 . S
H681 C623 0.930 . S
H682 C624 0.930 . S
H683 C625 0.930 . S
H684 C627 0.930 . S
H685 C629 0.929 . S
H686 C630 0.930 . S
H687 C631 0.930 . S
H688 C634 0.930 . S
H689 C637 0.929 . S
H690 C642 0.929 . S
H691 C643 0.930 . S
H692 C650 0.929 . S
H693 C651 0.930 . S
H694 C652 0.930 . S
H695 C653 0.930 . S
H696 C655 0.929 . S
H697 C656 0.930 . S
H698 C657 0.930 . S
H699 C658 0.930 . S
H700 C662 0.929 . S
H701 C664 0.930 . S
H702 C670 0.929 . S
H703 C671 0.930 . S
C704 C705 1.391 . S
C704 C706 1.394 . S
C704 H720 0.931 . S
C705 C704 1.391 . S
C705 C709 1.376 1_565 S
C706 C704 1.394 . S
C706 C707 1.369 . S
C706 C710 1.531 . S
C707 C706 1.369 . S
C707 C708 1.410 1_565 S
C707 C715 1.503 1_554 S
C708 C707 1.410 1_545 S
C708 C709 1.392 . S
C708 C711 1.511 . S
C709 C705 1.376 1_545 S
C709 C708 1.392 . S
C709 H721 0.929 . S
C710 C706 1.531 . S
C710 H722 0.960 1_554 S
C710 H723 0.962 . S
C710 H724 0.960 . S
C711 C708 1.511 . S
C711 H725 0.961 . S
C711 H726 0.961 1_554 S
C711 H727 0.961 . S
C712 C713 1.370 . S
C712 C714 1.363 . S
C712 H728 0.931 . S
C713 C712 1.370 . S
C713 C717 1.408 1_545 S
C714 C712 1.363 . S
C714 C715 1.370 1_545 S
C714 C718 1.524 . S
C715 C707 1.503 1_556 S
C715 C714 1.370 1_565 S
C715 C716 1.403 . S
C716 C715 1.403 . S
C716 C717 1.404 . S
C716 C719 1.539 . S
C717 C713 1.408 1_565 S
C717 C716 1.404 . S
C717 H729 0.930 . S
C718 C714 1.524 . S
C718 H730 0.977 . S
C718 H731 0.961 1_556 S
C718 H732 0.961 . S
C719 C716 1.539 . S
C719 H733 0.958 . S
C719 H734 0.961 . S
C719 H735 0.985 . S
H720 C704 0.931 . S
H721 C709 0.929 . S
H722 C710 0.960 1_556 S
H723 C710 0.962 . S
H724 C710 0.960 . S
H725 C711 0.961 . S
H726 C711 0.961 1_556 S
H727 C711 0.961 . S
H728 C712 0.931 . S
H729 C717 0.930 . S
H730 C718 0.977 . S
H731 C718 0.961 1_554 S
H732 C718 0.961 . S
H733 C719 0.958 . S
H734 C719 0.961 . S
H735 C719 0.985 . S
C736 C737 1.391 1_655 S
C736 C738 1.394 . S
C736 H752 0.931 . S
C737 C736 1.391 1_455 S
C737 C741 1.376 . S
C738 C736 1.394 . S
C738 C739 1.369 1_655 S
C738 C742 1.531 . S
C739 C738 1.369 1_455 S
C739 C740 1.410 . S
C739 C747 1.503 . S
C740 C739 1.410 . S
C740 C741 1.392 . S
C740 C743 1.511 . S
C741 C737 1.376 . S
C741 C740 1.392 . S
C741 H753 0.929 . S
C742 C738 1.531 . S
C742 H754 0.960 . S
C742 H755 0.962 . S
C742 H756 0.960 . S
C743 C740 1.511 . S
C743 H757 0.961 . S
C743 H758 0.961 . S
C743 H759 0.961 . S
C744 C745 1.370 1_655 S
C744 C746 1.363 . S
C744 H760 0.931 . S
C745 C744 1.370 1_455 S
C745 C749 1.408 . S
C746 C744 1.363 . S
C746 C747 1.370 1_655 S
C746 C750 1.524 . S
C747 C739 1.503 . S
C747 C746 1.370 1_455 S
C747 C748 1.403 . S
C748 C747 1.403 . S
C748 C749 1.404 . S
C748 C751 1.539 . S
C749 C745 1.408 . S
C749 C748 1.404 . S
C749 H761 0.930 . S
C750 C746 1.524 . S
C750 H762 0.956 . S
C750 H763 0.961 . S
C750 H764 0.961 . S
C751 C748 1.539 . S
C751 H765 0.958 . S
C751 H766 0.961 . S
C751 H767 0.960 . S
H752 C736 0.931 . S
H753 C741 0.929 . S
H754 C742 0.960 . S
H755 C742 0.962 . S
H756 C742 0.960 . S
H757 C743 0.961 . S
H758 C743 0.961 . S
H759 C743 0.961 . S
H760 C744 0.931 . S
H761 C749 0.930 . S
H762 C750 0.956 . S
H763 C750 0.961 . S
H764 C750 0.961 . S
H765 C751 0.958 . S
H766 C751 0.961 . S
H767 C751 0.960 . S
C768 C769 1.417 . S
C768 C770 1.394 . S
C768 H784 0.931 . S
C769 C768 1.417 . S
C769 C773 1.353 1_565 S
C770 C768 1.394 . S
C770 C771 1.369 . S
C770 C774 1.531 . S
C771 C770 1.369 . S
C771 C772 1.410 1_565 S
C771 C779 1.503 1_556 S
C772 C771 1.410 1_545 S
C772 C773 1.392 . S
C772 C775 1.511 . S
C773 C769 1.353 1_545 S
C773 C772 1.392 . S
C773 H785 0.929 . S
C774 C770 1.531 . S
C774 H786 0.960 1_556 S
C774 H787 0.962 . S
C774 H788 0.960 . S
C775 C772 1.511 . S
C775 H789 0.961 . S
C775 H790 0.961 1_556 S
C775 H791 0.961 . S
C776 C777 1.370 . S
C776 C778 1.363 . S
C776 H792 0.931 . S
C777 C776 1.370 . S
C777 C781 1.408 1_545 S
C778 C776 1.363 . S
C778 C779 1.370 1_545 S
C778 C782 1.524 . S
C779 C771 1.503 1_554 S
C779 C778 1.370 1_565 S
C779 C780 1.403 . S
C780 C779 1.403 . S
C780 C781 1.404 . S
C780 C783 1.539 . S
C781 C777 1.408 1_565 S
C781 C780 1.404 . S
C781 H793 0.930 . S
C782 C778 1.524 . S
C782 H794 0.979 . S
C782 H795 0.961 1_554 S
C782 H796 0.961 . S
C783 C780 1.539 . S
C783 H797 0.958 . S
C783 H798 0.961 . S
C783 H799 0.982 . S
H784 C768 0.931 . S
H785 C773 0.929 . S
H786 C774 0.960 1_554 S
H787 C774 0.962 . S
H788 C774 0.960 . S
H789 C775 0.961 . S
H790 C775 0.961 1_554 S
H791 C775 0.961 . S
H792 C776 0.931 . S
H793 C781 0.930 . S
H794 C782 0.979 . S
H795 C782 0.961 1_556 S
H796 C782 0.961 . S
H797 C783 0.958 . S
H798 C783 0.961 . S
H799 C783 0.982 . S
C800 C801 1.391 1_655 S
C800 C802 1.394 . S
C800 H816 0.931 . S
C801 C800 1.391 1_455 S
C801 C805 1.376 . S
C802 C800 1.394 . S
C802 C803 1.369 1_655 S
C802 C806 1.531 . S
C803 C802 1.369 1_455 S
C803 C804 1.410 . S
C803 C811 1.503 . S
C804 C803 1.410 . S
C804 C805 1.392 . S
C804 C807 1.511 . S
C805 C801 1.376 . S
C805 C804 1.392 . S
C805 H817 0.929 . S
C806 C802 1.531 . S
C806 H818 0.960 . S
C806 H819 0.962 . S
C806 H820 0.960 . S
C807 C804 1.511 . S
C807 H821 0.961 . S
C807 H822 0.961 . S
C807 H823 0.961 . S
C808 C809 1.370 1_655 S
C808 C810 1.363 . S
C808 H824 0.931 . S
C809 C808 1.370 1_455 S
C809 C813 1.408 . S
C810 C808 1.363 . S
C810 C811 1.370 1_655 S
C810 C814 1.524 . S
C811 C803 1.503 . S
C811 C810 1.370 1_455 S
C811 C812 1.403 . S
C812 C811 1.403 . S
C812 C813 1.404 . S
C812 C815 1.539 . S
C813 C809 1.408 . S
C813 C812 1.404 . S
C813 H825 0.930 . S
C814 C810 1.524 . S
C814 H826 0.956 . S
C814 H827 0.961 . S
C814 H828 0.961 . S
C815 C812 1.539 . S
C815 H829 0.958 . S
C815 H830 0.961 . S
C815 H831 0.960 . S
H816 C800 0.931 . S
H817 C805 0.929 . S
H818 C806 0.960 . S
H819 C806 0.962 . S
H820 C806 0.960 . S
H821 C807 0.961 . S
H822 C807 0.961 . S
H823 C807 0.961 . S
H824 C808 0.931 . S
H825 C813 0.930 . S
H826 C814 0.956 . S
H827 C814 0.961 . S
H828 C814 0.961 . S
H829 C815 0.958 . S
H830 C815 0.961 . S
H831 C815 0.960 . S
C832 C833 1.391 1_565 S
C832 C834 1.394 . S
C832 H848 0.931 . S
C833 C832 1.391 1_545 S
C833 C837 1.376 . S
C834 C832 1.394 . S
C834 C835 1.369 1_565 S
C834 C838 1.531 . S
C835 C834 1.369 1_545 S
C835 C836 1.410 . S
C835 C843 1.503 . S
C836 C835 1.410 . S
C836 C837 1.392 . S
C836 C839 1.511 . S
C837 C833 1.376 . S
C837 C836 1.392 . S
C837 H849 0.929 . S
C838 C834 1.531 . S
C838 H850 0.960 . S
C838 H851 0.962 . S
C838 H852 0.960 . S
C839 C836 1.511 . S
C839 H853 0.961 . S
C839 H854 0.961 . S
C839 H855 0.961 . S
C840 C841 1.370 1_565 S
C840 C842 1.363 . S
C840 H856 0.931 . S
C841 C840 1.370 1_545 S
C841 C845 1.408 . S
C842 C840 1.363 . S
C842 C843 1.370 1_565 S
C842 C846 1.524 . S
C843 C835 1.503 . S
C843 C842 1.370 1_545 S
C843 C844 1.403 . S
C844 C843 1.403 . S
C844 C845 1.404 . S
C844 C847 1.539 . S
C845 C841 1.408 . S
C845 C844 1.404 . S
C845 H857 0.930 . S
C846 C842 1.524 . S
C846 H858 0.956 . S
C846 H859 0.961 . S
C846 H860 0.961 . S
C847 C844 1.539 . S
C847 H861 0.958 . S
C847 H862 0.961 . S
C847 H863 0.960 . S
H848 C832 0.931 . S
H849 C837 0.929 . S
H850 C838 0.960 . S
H851 C838 0.962 . S
H852 C838 0.960 . S
H853 C839 0.961 . S
H854 C839 0.961 . S
H855 C839 0.961 . S
H856 C840 0.931 . S
H857 C845 0.930 . S
H858 C846 0.956 . S
H859 C846 0.961 . S
H860 C846 0.961 . S
H861 C847 0.958 . S
H862 C847 0.961 . S
H863 C847 0.960 . S
C864 C865 1.391 . S
C864 C866 1.394 . S
C864 H880 0.931 . S
C865 C864 1.391 . S
C865 C869 1.376 1_455 S
C866 C864 1.394 . S
C866 C867 1.369 . S
C866 C870 1.531 . S
C867 C866 1.369 . S
C867 C868 1.410 1_455 S
C867 C875 1.503 . S
C868 C867 1.410 1_655 S
C868 C869 1.392 . S
C868 C871 1.511 . S
C869 C865 1.376 1_655 S
C869 C868 1.392 . S
C869 H881 0.929 . S
C870 C866 1.531 . S
C870 H882 0.960 . S
C870 H883 0.962 . S
C870 H884 0.960 . S
C871 C868 1.511 . S
C871 H885 0.961 . S
C871 H886 0.961 . S
C871 H887 0.961 . S
C872 C873 1.365 1_655 S
C872 C874 1.363 . S
C872 H888 0.931 . S
C873 C872 1.365 1_455 S
C873 C877 1.416 . S
C874 C872 1.363 . S
C874 C875 1.370 1_655 S
C874 C878 1.524 . S
C875 C867 1.503 . S
C875 C874 1.370 1_455 S
C875 C876 1.403 . S
C876 C875 1.403 . S
C876 C877 1.404 . S
C876 C879 1.539 . S
C877 C873 1.416 . S
C877 C876 1.404 . S
C877 H889 0.930 . S
C878 C874 1.524 . S
C878 H890 0.956 1_655 S
C878 H891 0.961 . S
C878 H892 0.961 . S
C879 C876 1.539 . S
C879 H893 0.958 . S
C879 H894 0.961 . S
C879 H895 0.960 . S
H880 C864 0.931 . S
H881 C869 0.929 . S
H882 C870 0.960 . S
H883 C870 0.962 . S
H884 C870 0.960 . S
H885 C871 0.961 . S
H886 C871 0.961 . S
H887 C871 0.961 . S
H888 C872 0.931 . S
H889 C877 0.930 . S
H890 C878 0.956 1_455 S
H891 C878 0.961 . S
H892 C878 0.961 . S
H893 C879 0.958 . S
H894 C879 0.961 . S
H895 C879 0.960 . S
C896 C897 1.391 . S
C896 C898 1.394 . S
C896 H912 0.931 . S
C897 C896 1.391 . S
C897 C901 1.376 1_545 S
C898 C896 1.394 . S
C898 C899 1.369 . S
C898 C902 1.531 . S
C899 C898 1.369 . S
C899 C900 1.410 1_545 S
C899 C907 1.503 . S
C900 C899 1.410 1_565 S
C900 C901 1.392 . S
C900 C903 1.511 . S
C901 C897 1.376 1_565 S
C901 C900 1.392 . S
C901 H913 0.929 . S
C902 C898 1.531 . S
C902 H914 0.960 . S
C902 H915 0.962 . S
C902 H916 0.960 . S
C903 C900 1.511 . S
C903 H917 0.961 . S
C903 H918 0.961 . S
C903 H919 0.961 . S
C904 C905 1.370 1_565 S
C904 C906 1.363 . S
C904 H920 0.931 . S
C905 C904 1.370 1_545 S
C905 C909 1.408 . S
C906 C904 1.363 . S
C906 C907 1.370 1_565 S
C906 C910 1.524 . S
C907 C899 1.503 . S
C907 C906 1.370 1_545 S
C907 C908 1.403 . S
C908 C907 1.403 . S
C908 C909 1.404 . S
C908 C911 1.539 . S
C909 C905 1.408 . S
C909 C908 1.404 . S
C909 H921 0.930 . S
C910 C906 1.524 . S
C910 H922 0.956 . S
C910 H923 0.961 . S
C910 H924 0.961 . S
C911 C908 1.539 . S
C911 H925 0.958 . S
C911 H926 0.961 . S
C911 H927 0.960 . S
H912 C896 0.931 . S
H913 C901 0.929 . S
H914 C902 0.960 . S
H915 C902 0.962 . S
H916 C902 0.960 . S
H917 C903 0.961 . S
H918 C903 0.961 . S
H919 C903 0.961 . S
H920 C904 0.931 . S
H921 C909 0.930 . S
H922 C910 0.956 . S
H923 C910 0.961 . S
H924 C910 0.961 . S
H925 C911 0.958 . S
H926 C911 0.961 . S
H927 C911 0.960 . S
C928 C929 1.391 1_455 S
C928 C930 1.394 . S
C928 H944 0.931 . S
C929 C928 1.391 1_655 S
C929 C933 1.376 . S
C930 C928 1.394 . S
C930 C931 1.369 1_455 S
C930 C934 1.531 . S
C931 C930 1.369 1_655 S
C931 C932 1.410 . S
C931 C939 1.503 . S
C932 C931 1.410 . S
C932 C933 1.392 . S
C932 C935 1.511 . S
C933 C929 1.376 . S
C933 C932 1.392 . S
C933 H945 0.929 . S
C934 C930 1.531 . S
C934 H946 0.960 1_455 S
C934 H947 0.962 . S
C934 H948 0.960 . S
C935 C932 1.511 . S
C935 H949 0.961 . S
C935 H950 0.961 . S
C935 H951 0.961 . S
C936 C937 1.378 . S
C936 C938 1.363 . S
C936 H952 0.931 . S
C937 C936 1.378 . S
C937 C941 1.400 1_455 S
C938 C936 1.363 . S
C938 C939 1.370 1_455 S
C938 C942 1.524 . S
C939 C931 1.503 . S
C939 C938 1.370 1_655 S
C939 C940 1.403 . S
C940 C939 1.403 . S
C940 C941 1.404 . S
C940 C943 1.539 . S
C941 C937 1.400 1_655 S
C941 C940 1.404 . S
C941 H953 0.930 . S
C942 C938 1.524 . S
C942 H954 0.956 . S
C942 H955 0.961 . S
C942 H956 0.961 . S
C943 C940 1.539 . S
C943 H957 0.958 . S
C943 H958 0.961 . S
C943 H959 0.960 . S
H944 C928 0.931 . S
H945 C933 0.929 . S
H946 C934 0.960 1_655 S
H947 C934 0.962 . S
H948 C934 0.960 . S
H949 C935 0.961 . S
H950 C935 0.961 . S
H951 C935 0.961 . S
H952 C936 0.931 . S
H953 C941 0.930 . S
H954 C942 0.956 . S
H955 C942 0.961 . S
H956 C942 0.961 . S
H957 C943 0.958 . S
H958 C943 0.961 . S
H959 C943 0.960 . S
C960 C961 1.391 . S
C960 C962 1.394 . S
C960 H976 0.931 . S
C961 C960 1.391 . S
C961 C965 1.376 . S
C962 C960 1.394 . S
C962 C963 1.369 . S
C962 C966 1.531 . S
C963 C962 1.369 . S
C963 C964 1.410 . S
C963 C971 1.503 . S
C964 C963 1.410 . S
C964 C965 1.392 . S
C964 C967 1.511 . S
C965 C961 1.376 . S
C965 C964 1.392 . S
C965 H977 0.929 . S
C966 C962 1.531 . S
C966 H978 0.960 . S
C966 H979 0.962 . S
C966 H980 0.960 . S
C967 C964 1.511 . S
C967 H981 0.961 . S
C967 H982 0.961 . S
C967 H983 0.961 . S
C968 C969 1.370 . S
C968 C970 1.363 . S
C968 H984 0.931 . S
C969 C968 1.370 . S
C969 C973 1.408 . S
C970 C968 1.363 . S
C970 C971 1.370 . S
C970 C974 1.524 . S
C971 C963 1.503 . S
C971 C970 1.370 . S
C971 C972 1.403 . S
C972 C971 1.403 . S
C972 C973 1.404 . S
C972 C975 1.539 . S
C973 C969 1.408 . S
C973 C972 1.404 . S
C973 H985 0.930 . S
C974 C970 1.524 . S
C974 H986 0.956 . S
C974 H987 0.961 . S
C974 H988 0.961 . S
C975 C972 1.539 . S
C975 H989 0.958 . S
C975 H990 0.961 . S
C975 H991 0.960 . S
H976 C960 0.931 . S
H977 C965 0.929 . S
H978 C966 0.960 . S
H979 C966 0.962 . S
H980 C966 0.960 . S
H981 C967 0.961 . S
H982 C967 0.961 . S
H983 C967 0.961 . S
H984 C968 0.931 . S
H985 C973 0.930 . S
H986 C974 0.956 . S
H987 C974 0.961 . S
H988 C974 0.961 . S
H989 C975 0.958 . S
H990 C975 0.961 . S
H991 C975 0.960 . S
C992 C993 1.391 . S
C992 C994 1.394 . S
C992 H1008 0.931 . S
C993 C992 1.391 . S
C993 C997 1.376 . S
C994 C992 1.394 . S
C994 C995 1.369 . S
C994 C998 1.531 . S
C995 C994 1.369 . S
C995 C996 1.410 . S
C995 C1003 1.503 . S
C996 C995 1.410 . S
C996 C997 1.392 . S
C996 C999 1.511 . S
C997 C993 1.376 . S
C997 C996 1.392 . S
C997 H1009 0.929 . S
C998 C994 1.531 . S
C998 H1010 0.960 . S
C998 H1011 0.962 . S
C998 H1012 0.960 . S
C999 C996 1.511 . S
C999 H1013 0.961 . S
C999 H1014 0.961 . S
C999 H1015 0.961 . S
C1000 C1001 1.370 . S
C1000 C1002 1.363 . S
C1000 H1016 0.931 . S
C1001 C1000 1.370 . S
C1001 C1005 1.408 . S
C1002 C1000 1.363 . S
C1002 C1003 1.370 . S
C1002 C1006 1.524 . S
C1003 C995 1.503 . S
C1003 C1002 1.370 . S
C1003 C1004 1.403 . S
C1004 C1003 1.403 . S
C1004 C1005 1.404 . S
C1004 C1007 1.539 . S
C1005 C1001 1.408 . S
C1005 C1004 1.404 . S
C1005 H1017 0.930 . S
C1006 C1002 1.524 . S
C1006 H1018 0.956 . S
C1006 H1019 0.961 . S
C1006 H1020 0.961 . S
C1007 C1004 1.539 . S
C1007 H1021 0.958 . S
C1007 H1022 0.961 . S
C1007 H1023 0.960 . S
H1008 C992 0.931 . S
H1009 C997 0.929 . S
H1010 C998 0.960 . S
H1011 C998 0.962 . S
H1012 C998 0.960 . S
H1013 C999 0.961 . S
H1014 C999 0.961 . S
H1015 C999 0.961 . S
H1016 C1000 0.931 . S
H1017 C1005 0.930 . S
H1018 C1006 0.956 . S
H1019 C1006 0.961 . S
H1020 C1006 0.961 . S
H1021 C1007 0.958 . S
H1022 C1007 0.961 . S
H1023 C1007 0.960 . S
C1024 C1025 1.391 . S
C1024 C1026 1.394 . S
C1024 H1040 0.931 . S
C1025 C1024 1.391 . S
C1025 C1029 1.376 . S
C1026 C1024 1.394 . S
C1026 C1027 1.369 . S
C1026 C1030 1.531 . S
C1027 C1026 1.369 . S
C1027 C1028 1.410 . S
C1027 C1035 1.503 . S
C1028 C1027 1.410 . S
C1028 C1029 1.392 . S
C1028 C1031 1.511 . S
C1029 C1025 1.376 . S
C1029 C1028 1.392 . S
C1029 H1041 0.929 . S
C1030 C1026 1.531 . S
C1030 H1042 0.960 . S
C1030 H1043 0.962 . S
C1030 H1044 0.960 . S
C1031 C1028 1.511 . S
C1031 H1045 0.961 . S
C1031 H1046 0.961 . S
C1031 H1047 0.961 . S
C1032 C1033 1.370 . S
C1032 C1034 1.363 . S
C1032 H1048 0.931 . S
C1033 C1032 1.370 . S
C1033 C1037 1.408 . S
C1034 C1032 1.363 . S
C1034 C1035 1.370 . S
C1034 C1038 1.524 . S
C1035 C1027 1.503 . S
C1035 C1034 1.370 . S
C1035 C1036 1.403 . S
C1036 C1035 1.403 . S
C1036 C1037 1.404 . S
C1036 C1039 1.539 . S
C1037 C1033 1.408 . S
C1037 C1036 1.404 . S
C1037 H1049 0.930 . S
C1038 C1034 1.524 . S
C1038 H1050 0.956 . S
C1038 H1051 0.961 . S
C1038 H1052 0.961 . S
C1039 C1036 1.539 . S
C1039 H1053 0.958 . S
C1039 H1054 0.961 . S
C1039 H1055 0.960 . S
H1040 C1024 0.931 . S
H1041 C1029 0.929 . S
H1042 C1030 0.960 . S
H1043 C1030 0.962 . S
H1044 C1030 0.960 . S
H1045 C1031 0.961 . S
H1046 C1031 0.961 . S
H1047 C1031 0.961 . S
H1048 C1032 0.931 . S
H1049 C1037 0.930 . S
H1050 C1038 0.956 . S
H1051 C1038 0.961 . S
H1052 C1038 0.961 . S
H1053 C1039 0.958 . S
H1054 C1039 0.961 . S
H1055 C1039 0.960 . S
C1056 C1057 1.391 . S
C1056 C1058 1.394 . S
C1056 H1072 0.931 . S
C1057 C1056 1.391 . S
C1057 C1061 1.376 . S
C1058 C1056 1.394 . S
C1058 C1059 1.369 . S
C1058 C1062 1.531 . S
C1059 C1058 1.369 . S
C1059 C1060 1.410 . S
C1059 C1067 1.503 . S
C1060 C1059 1.410 . S
C1060 C1061 1.392 . S
C1060 C1063 1.511 . S
C1061 C1057 1.376 . S
C1061 C1060 1.392 . S
C1061 H1073 0.929 . S
C1062 C1058 1.531 . S
C1062 H1074 0.960 . S
C1062 H1075 0.962 . S
C1062 H1076 0.960 . S
C1063 C1060 1.511 . S
C1063 H1077 0.961 . S
C1063 H1078 0.961 . S
C1063 H1079 0.961 . S
C1064 C1065 1.370 . S
C1064 C1066 1.363 . S
C1064 H1080 0.931 . S
C1065 C1064 1.370 . S
C1065 C1069 1.408 . S
C1066 C1064 1.363 . S
C1066 C1067 1.370 . S
C1066 C1070 1.524 . S
C1067 C1059 1.503 . S
C1067 C1066 1.370 . S
C1067 C1068 1.403 . S
C1068 C1067 1.403 . S
C1068 C1069 1.404 . S
C1068 C1071 1.539 . S
C1069 C1065 1.408 . S
C1069 C1068 1.404 . S
C1069 H1081 0.930 . S
C1070 C1066 1.524 . S
C1070 H1082 0.956 . S
C1070 H1083 0.961 . S
C1070 H1084 0.961 . S
C1071 C1068 1.539 . S
C1071 H1085 0.958 . S
C1071 H1086 0.961 . S
C1071 H1087 0.960 . S
H1072 C1056 0.931 . S
H1073 C1061 0.929 . S
H1074 C1062 0.960 . S
H1075 C1062 0.962 . S
H1076 C1062 0.960 . S
H1077 C1063 0.961 . S
H1078 C1063 0.961 . S
H1079 C1063 0.961 . S
H1080 C1064 0.931 . S
H1081 C1069 0.930 . S
H1082 C1070 0.956 . S
H1083 C1070 0.961 . S
H1084 C1070 0.961 . S
H1085 C1071 0.958 . S
H1086 C1071 0.961 . S
H1087 C1071 0.960 . S
C1088 C1089 1.391 . S
C1088 C1090 1.394 . S
C1088 H1104 0.931 . S
C1089 C1088 1.391 . S
C1089 C1093 1.376 . S
C1090 C1088 1.394 . S
C1090 C1091 1.369 . S
C1090 C1094 1.531 . S
C1091 C1090 1.369 . S
C1091 C1092 1.410 . S
C1091 C1099 1.503 . S
C1092 C1091 1.410 . S
C1092 C1093 1.392 . S
C1092 C1095 1.511 . S
C1093 C1089 1.376 . S
C1093 C1092 1.392 . S
C1093 H1105 0.929 . S
C1094 C1090 1.531 . S
C1094 H1106 0.960 . S
C1094 H1107 0.962 . S
C1094 H1108 0.960 . S
C1095 C1092 1.511 . S
C1095 H1109 0.961 . S
C1095 H1110 0.961 . S
C1095 H1111 0.961 . S
C1096 C1097 1.370 . S
C1096 C1098 1.363 . S
C1096 H1112 0.931 . S
C1097 C1096 1.370 . S
C1097 C1101 1.408 . S
C1098 C1096 1.363 . S
C1098 C1099 1.370 . S
C1098 C1102 1.524 . S
C1099 C1091 1.503 . S
C1099 C1098 1.370 . S
C1099 C1100 1.403 . S
C1100 C1099 1.403 . S
C1100 C1101 1.404 . S
C1100 C1103 1.539 . S
C1101 C1097 1.408 . S
C1101 C1100 1.404 . S
C1101 H1113 0.930 . S
C1102 C1098 1.524 . S
C1102 H1114 0.956 . S
C1102 H1115 0.961 . S
C1102 H1116 0.961 . S
C1103 C1100 1.539 . S
C1103 H1117 0.958 . S
C1103 H1118 0.961 . S
C1103 H1119 0.960 . S
H1104 C1088 0.931 . S
H1105 C1093 0.929 . S
H1106 C1094 0.960 . S
H1107 C1094 0.962 . S
H1108 C1094 0.960 . S
H1109 C1095 0.961 . S
H1110 C1095 0.961 . S
H1111 C1095 0.961 . S
H1112 C1096 0.931 . S
H1113 C1101 0.930 . S
H1114 C1102 0.956 . S
H1115 C1102 0.961 . S
H1116 C1102 0.961 . S
H1117 C1103 0.958 . S
H1118 C1103 0.961 . S
H1119 C1103 0.960 . S
C1120 C1121 1.391 . S
C1120 C1122 1.394 . S
C1120 H1136 0.931 . S
C1121 C1120 1.391 . S
C1121 C1125 1.376 . S
C1122 C1120 1.394 . S
C1122 C1123 1.369 . S
C1122 C1126 1.531 . S
C1123 C1122 1.369 . S
C1123 C1124 1.410 . S
C1123 C1131 1.503 . S
C1124 C1123 1.410 . S
C1124 C1125 1.392 . S
C1124 C1127 1.511 . S
C1125 C1121 1.376 . S
C1125 C1124 1.392 . S
C1125 H1137 0.929 . S
C1126 C1122 1.531 . S
C1126 H1138 0.960 . S
C1126 H1139 0.962 . S
C1126 H1140 0.960 . S
C1127 C1124 1.511 . S
C1127 H1141 0.961 . S
C1127 H1142 0.961 . S
C1127 H1143 0.961 . S
C1128 C1129 1.370 . S
C1128 C1130 1.363 . S
C1128 H1144 0.931 . S
C1129 C1128 1.370 . S
C1129 C1133 1.408 . S
C1130 C1128 1.363 . S
C1130 C1131 1.370 . S
C1130 C1134 1.524 . S
C1131 C1123 1.503 . S
C1131 C1130 1.370 . S
C1131 C1132 1.403 . S
C1132 C1131 1.403 . S
C1132 C1133 1.404 . S
C1132 C1135 1.539 . S
C1133 C1129 1.408 . S
C1133 C1132 1.404 . S
C1133 H1145 0.930 . S
C1134 C1130 1.524 . S
C1134 H1146 0.956 . S
C1134 H1147 0.961 . S
C1134 H1148 0.961 . S
C1135 C1132 1.539 . S
C1135 H1149 0.958 . S
C1135 H1150 0.961 . S
C1135 H1151 0.960 . S
H1136 C1120 0.931 . S
H1137 C1125 0.929 . S
H1138 C1126 0.960 . S
H1139 C1126 0.962 . S
H1140 C1126 0.960 . S
H1141 C1127 0.961 . S
H1142 C1127 0.961 . S
H1143 C1127 0.961 . S
H1144 C1128 0.931 . S
H1145 C1133 0.930 . S
H1146 C1134 0.956 . S
H1147 C1134 0.961 . S
H1148 C1134 0.961 . S
H1149 C1135 0.958 . S
H1150 C1135 0.961 . S
H1151 C1135 0.960 . S
C1152 C1153 1.391 . S
C1152 C1154 1.394 . S
C1152 H1168 0.931 . S
C1153 C1152 1.391 . S
C1153 C1157 1.376 . S
C1154 C1152 1.394 . S
C1154 C1155 1.369 . S
C1154 C1158 1.531 . S
C1155 C1154 1.369 . S
C1155 C1156 1.410 . S
C1155 C1163 1.503 . S
C1156 C1155 1.410 . S
C1156 C1157 1.392 . S
C1156 C1159 1.511 . S
C1157 C1153 1.376 . S
C1157 C1156 1.392 . S
C1157 H1169 0.929 . S
C1158 C1154 1.531 . S
C1158 H1170 0.960 . S
C1158 H1171 0.962 . S
C1158 H1172 0.960 . S
C1159 C1156 1.511 . S
C1159 H1173 0.961 . S
C1159 H1174 0.961 . S
C1159 H1175 0.961 . S
C1160 C1161 1.370 . S
C1160 C1162 1.363 . S
C1160 H1176 0.931 . S
C1161 C1160 1.370 . S
C1161 C1165 1.408 . S
C1162 C1160 1.363 . S
C1162 C1163 1.370 . S
C1162 C1166 1.524 . S
C1163 C1155 1.503 . S
C1163 C1162 1.370 . S
C1163 C1164 1.403 . S
C1164 C1163 1.403 . S
C1164 C1165 1.404 . S
C1164 C1167 1.539 . S
C1165 C1161 1.408 . S
C1165 C1164 1.404 . S
C1165 H1177 0.930 . S
C1166 C1162 1.524 . S
C1166 H1178 0.956 . S
C1166 H1179 0.961 . S
C1166 H1180 0.961 . S
C1167 C1164 1.539 . S
C1167 H1181 0.958 . S
C1167 H1182 0.961 . S
C1167 H1183 0.960 . S
H1168 C1152 0.931 . S
H1169 C1157 0.929 . S
H1170 C1158 0.960 . S
H1171 C1158 0.962 . S
H1172 C1158 0.960 . S
H1173 C1159 0.961 . S
H1174 C1159 0.961 . S
H1175 C1159 0.961 . S
H1176 C1160 0.931 . S
H1177 C1165 0.930 . S
H1178 C1166 0.956 . S
H1179 C1166 0.961 . S
H1180 C1166 0.961 . S
H1181 C1167 0.958 . S
H1182 C1167 0.961 . S
H1183 C1167 0.960 . S
C1184 C1185 1.391 . S
C1184 C1186 1.394 . S
C1184 H1200 0.931 . S
C1185 C1184 1.391 . S
C1185 C1189 1.376 . S
C1186 C1184 1.394 . S
C1186 C1187 1.369 . S
C1186 C1190 1.531 . S
C1187 C1186 1.369 . S
C1187 C1188 1.410 . S
C1187 C1195 1.503 . S
C1188 C1187 1.410 . S
C1188 C1189 1.392 . S
C1188 C1191 1.511 . S
C1189 C1185 1.376 . S
C1189 C1188 1.392 . S
C1189 H1201 0.929 . S
C1190 C1186 1.531 . S
C1190 H1202 0.960 . S
C1190 H1203 0.962 . S
C1190 H1204 0.960 . S
C1191 C1188 1.511 . S
C1191 H1205 0.961 . S
C1191 H1206 0.961 . S
C1191 H1207 0.961 . S
C1192 C1193 1.370 . S
C1192 C1194 1.363 . S
C1192 H1208 0.931 . S
C1193 C1192 1.370 . S
C1193 C1197 1.408 . S
C1194 C1192 1.363 . S
C1194 C1195 1.370 . S
C1194 C1198 1.524 . S
C1195 C1187 1.503 . S
C1195 C1194 1.370 . S
C1195 C1196 1.403 . S
C1196 C1195 1.403 . S
C1196 C1197 1.404 . S
C1196 C1199 1.539 . S
C1197 C1193 1.408 . S
C1197 C1196 1.404 . S
C1197 H1209 0.930 . S
C1198 C1194 1.524 . S
C1198 H1210 0.956 . S
C1198 H1211 0.961 . S
C1198 H1212 0.961 . S
C1199 C1196 1.539 . S
C1199 H1213 0.958 . S
C1199 H1214 0.961 . S
C1199 H1215 0.960 . S
H1200 C1184 0.931 . S
H1201 C1189 0.929 . S
H1202 C1190 0.960 . S
H1203 C1190 0.962 . S
H1204 C1190 0.960 . S
H1205 C1191 0.961 . S
H1206 C1191 0.961 . S
H1207 C1191 0.961 . S
H1208 C1192 0.931 . S
H1209 C1197 0.930 . S
H1210 C1198 0.956 . S
H1211 C1198 0.961 . S
H1212 C1198 0.961 . S
H1213 C1199 0.958 . S
H1214 C1199 0.961 . S
H1215 C1199 0.960 . S
C705 C49 1.595 1_565 S
C713 C381 1.599 . S
C737 C108 1.591 . S
C745 C469 1.597 . S
C769 C548 1.595 1_565 S
C777 C233 1.599 . S
C801 C673 1.591 . S
C809 C313 1.597 . S
C833 C29 0.714 . S
C841 C196 0.725 . S
C865 C117 0.710 . S
C873 C321 0.729 . S
C897 C585 0.771 . S
C905 C401 0.748 . S
C929 C460 0.754 1_655 S
C937 C665 0.739 . S
C961 C489 1.254 . S
C969 C20 1.257 . S
C993 C145 1.283 . S
C1001 C577 1.260 . S
C1025 C636 1.257 . S
C1033 C205 1.273 . S
C1057 C293 1.266 . S
C1065 C409 1.275 . S
C1089 C557 1.273 . S
C1097 C284 1.252 . S
C1121 C57 1.281 . S
C1129 C645 1.254 . S
C1153 C137 1.259 . S
C1161 C372 1.279 . S
C1185 C497 1.251 . S
C1193 C225 1.279 . S
