# Generated by pormake.
# Topology lcv-a, (4)-cn, num edge types: 1
# Building blocks:
#     Node 0, Type 0, BuildingBlock: QUQFOY_clean_sbu_1, # of connection points: 4
#     Node 1, Type 0, BuildingBlock: QUQFOY_clean_sbu_1, # of connection points: 4
#     Node 2, Type 0, BuildingBlock: QUQFOY_clean_sbu_1, # of connection points: 4
#     Node 3, Type 0, BuildingBlock: QUQFOY_clean_sbu_1, # of connection points: 4
#     Node 4, Type 0, BuildingBlock: QUQFOY_clean_sbu_1, # of connection points: 4
#     Node 5, Type 0, BuildingBlock: QUQFOY_clean_sbu_1, # of connection points: 4
#     Node 6, Type 0, BuildingBlock: QUQFOY_clean_sbu_1, # of connection points: 4
#     Node 7, Type 0, BuildingBlock: QUQFOY_clean_sbu_1, # of connection points: 4
#     Node 8, Type 0, BuildingBlock: QUQFOY_clean_sbu_1, # of connection points: 4
#     Node 9, Type 0, BuildingBlock: QUQFOY_clean_sbu_1, # of connection points: 4
#     Node 10, Type 0, BuildingBlock: QUQFOY_clean_sbu_1, # of connection points: 4
#     Node 11, Type 0, BuildingBlock: QUQFOY_clean_sbu_1, # of connection points: 4
#     Node 12, Type 0, BuildingBlock: QUQFOY_clean_sbu_1, # of connection points: 4
#     Node 13, Type 0, BuildingBlock: QUQFOY_clean_sbu_1, # of connection points: 4
#     Node 14, Type 0, BuildingBlock: QUQFOY_clean_sbu_1, # of connection points: 4
#     Node 15, Type 0, BuildingBlock: QUQFOY_clean_sbu_1, # of connection points: 4
#     Node 16, Type 0, BuildingBlock: QUQFOY_clean_sbu_1, # of connection points: 4
#     Node 17, Type 0, BuildingBlock: QUQFOY_clean_sbu_1, # of connection points: 4
#     Node 18, Type 0, BuildingBlock: QUQFOY_clean_sbu_1, # of connection points: 4
#     Node 19, Type 0, BuildingBlock: QUQFOY_clean_sbu_1, # of connection points: 4
#     Node 20, Type 0, BuildingBlock: QUQFOY_clean_sbu_1, # of connection points: 4
#     Node 21, Type 0, BuildingBlock: QUQFOY_clean_sbu_1, # of connection points: 4
#     Node 22, Type 0, BuildingBlock: QUQFOY_clean_sbu_1, # of connection points: 4
#     Node 23, Type 0, BuildingBlock: QUQFOY_clean_sbu_1, # of connection points: 4
#     Node 24, Type 0, BuildingBlock: QUQFOY_clean_sbu_1, # of connection points: 4
#     Node 25, Type 0, BuildingBlock: QUQFOY_clean_sbu_1, # of connection points: 4
#     Node 26, Type 0, BuildingBlock: QUQFOY_clean_sbu_1, # of connection points: 4
#     Node 27, Type 0, BuildingBlock: QUQFOY_clean_sbu_1, # of connection points: 4
#     Node 28, Type 0, BuildingBlock: QUQFOY_clean_sbu_1, # of connection points: 4
#     Node 29, Type 0, BuildingBlock: QUQFOY_clean_sbu_1, # of connection points: 4
#     Node 30, Type 0, BuildingBlock: QUQFOY_clean_sbu_1, # of connection points: 4
#     Node 31, Type 0, BuildingBlock: QUQFOY_clean_sbu_1, # of connection points: 4
#     Node 32, Type 0, BuildingBlock: QUQFOY_clean_sbu_1, # of connection points: 4
#     Node 33, Type 0, BuildingBlock: QUQFOY_clean_sbu_1, # of connection points: 4
#     Node 34, Type 0, BuildingBlock: QUQFOY_clean_sbu_1, # of connection points: 4
#     Node 35, Type 0, BuildingBlock: QUQFOY_clean_sbu_1, # of connection points: 4
#     Node 36, Type 0, BuildingBlock: QUQFOY_clean_sbu_1, # of connection points: 4
#     Node 37, Type 0, BuildingBlock: QUQFOY_clean_sbu_1, # of connection points: 4
#     Node 38, Type 0, BuildingBlock: QUQFOY_clean_sbu_1, # of connection points: 4
#     Node 39, Type 0, BuildingBlock: QUQFOY_clean_sbu_1, # of connection points: 4
#     Node 40, Type 0, BuildingBlock: QUQFOY_clean_sbu_1, # of connection points: 4
#     Node 41, Type 0, BuildingBlock: QUQFOY_clean_sbu_1, # of connection points: 4
#     Node 42, Type 0, BuildingBlock: QUQFOY_clean_sbu_1, # of connection points: 4
#     Node 43, Type 0, BuildingBlock: QUQFOY_clean_sbu_1, # of connection points: 4
#     Node 44, Type 0, BuildingBlock: QUQFOY_clean_sbu_1, # of connection points: 4
#     Node 45, Type 0, BuildingBlock: QUQFOY_clean_sbu_1, # of connection points: 4
#     Node 46, Type 0, BuildingBlock: QUQFOY_clean_sbu_1, # of connection points: 4
#     Node 47, Type 0, BuildingBlock: QUQFOY_clean_sbu_1, # of connection points: 4
#     Edge 48, Type (0, 0), BuildingBlock: CIFDUS_clean_linker_0, # of connection points: 2
#     Edge 49, Type (0, 0), BuildingBlock: CIFDUS_clean_linker_0, # of connection points: 2
#     Edge 50, Type (0, 0), BuildingBlock: CIFDUS_clean_linker_0, # of connection points: 2
#     Edge 51, Type (0, 0), BuildingBlock: CIFDUS_clean_linker_0, # of connection points: 2
#     Edge 52, Type (0, 0), BuildingBlock: CIFDUS_clean_linker_0, # of connection points: 2
#     Edge 53, Type (0, 0), BuildingBlock: CIFDUS_clean_linker_0, # of connection points: 2
#     Edge 54, Type (0, 0), BuildingBlock: CIFDUS_clean_linker_0, # of connection points: 2
#     Edge 55, Type (0, 0), BuildingBlock: CIFDUS_clean_linker_0, # of connection points: 2
#     Edge 56, Type (0, 0), BuildingBlock: CIFDUS_clean_linker_0, # of connection points: 2
#     Edge 57, Type (0, 0), BuildingBlock: CIFDUS_clean_linker_0, # of connection points: 2
#     Edge 58, Type (0, 0), BuildingBlock: CIFDUS_clean_linker_0, # of connection points: 2
#     Edge 59, Type (0, 0), BuildingBlock: CIFDUS_clean_linker_0, # of connection points: 2
#     Edge 60, Type (0, 0), BuildingBlock: CIFDUS_clean_linker_0, # of connection points: 2
#     Edge 61, Type (0, 0), BuildingBlock: CIFDUS_clean_linker_0, # of connection points: 2
#     Edge 62, Type (0, 0), BuildingBlock: CIFDUS_clean_linker_0, # of connection points: 2
#     Edge 63, Type (0, 0), BuildingBlock: CIFDUS_clean_linker_0, # of connection points: 2
#     Edge 64, Type (0, 0), BuildingBlock: CIFDUS_clean_linker_0, # of connection points: 2
#     Edge 65, Type (0, 0), BuildingBlock: CIFDUS_clean_linker_0, # of connection points: 2
#     Edge 66, Type (0, 0), BuildingBlock: CIFDUS_clean_linker_0, # of connection points: 2
#     Edge 67, Type (0, 0), BuildingBlock: CIFDUS_clean_linker_0, # of connection points: 2
#     Edge 68, Type (0, 0), BuildingBlock: CIFDUS_clean_linker_0, # of connection points: 2
#     Edge 69, Type (0, 0), BuildingBlock: CIFDUS_clean_linker_0, # of connection points: 2
#     Edge 70, Type (0, 0), BuildingBlock: CIFDUS_clean_linker_0, # of connection points: 2
#     Edge 71, Type (0, 0), BuildingBlock: CIFDUS_clean_linker_0, # of connection points: 2
#     Edge 72, Type (0, 0), BuildingBlock: CIFDUS_clean_linker_0, # of connection points: 2
#     Edge 73, Type (0, 0), BuildingBlock: CIFDUS_clean_linker_0, # of connection points: 2
#     Edge 74, Type (0, 0), BuildingBlock: CIFDUS_clean_linker_0, # of connection points: 2
#     Edge 75, Type (0, 0), BuildingBlock: CIFDUS_clean_linker_0, # of connection points: 2
#     Edge 76, Type (0, 0), BuildingBlock: CIFDUS_clean_linker_0, # of connection points: 2
#     Edge 77, Type (0, 0), BuildingBlock: CIFDUS_clean_linker_0, # of connection points: 2
#     Edge 78, Type (0, 0), BuildingBlock: CIFDUS_clean_linker_0, # of connection points: 2
#     Edge 79, Type (0, 0), BuildingBlock: CIFDUS_clean_linker_0, # of connection points: 2
#     Edge 80, Type (0, 0), BuildingBlock: CIFDUS_clean_linker_0, # of connection points: 2
#     Edge 81, Type (0, 0), BuildingBlock: CIFDUS_clean_linker_0, # of connection points: 2
#     Edge 82, Type (0, 0), BuildingBlock: CIFDUS_clean_linker_0, # of connection points: 2
#     Edge 83, Type (0, 0), BuildingBlock: CIFDUS_clean_linker_0, # of connection points: 2
#     Edge 84, Type (0, 0), BuildingBlock: CIFDUS_clean_linker_0, # of connection points: 2
#     Edge 85, Type (0, 0), BuildingBlock: CIFDUS_clean_linker_0, # of connection points: 2
#     Edge 86, Type (0, 0), BuildingBlock: CIFDUS_clean_linker_0, # of connection points: 2
#     Edge 87, Type (0, 0), BuildingBlock: CIFDUS_clean_linker_0, # of connection points: 2
#     Edge 88, Type (0, 0), BuildingBlock: CIFDUS_clean_linker_0, # of connection points: 2
#     Edge 89, Type (0, 0), BuildingBlock: CIFDUS_clean_linker_0, # of connection points: 2
#     Edge 90, Type (0, 0), BuildingBlock: CIFDUS_clean_linker_0, # of connection points: 2
#     Edge 91, Type (0, 0), BuildingBlock: CIFDUS_clean_linker_0, # of connection points: 2
#     Edge 92, Type (0, 0), BuildingBlock: CIFDUS_clean_linker_0, # of connection points: 2
#     Edge 93, Type (0, 0), BuildingBlock: CIFDUS_clean_linker_0, # of connection points: 2
#     Edge 94, Type (0, 0), BuildingBlock: CIFDUS_clean_linker_0, # of connection points: 2
#     Edge 95, Type (0, 0), BuildingBlock: CIFDUS_clean_linker_0, # of connection points: 2
#     Edge 96, Type (0, 0), BuildingBlock: CIFDUS_clean_linker_0, # of connection points: 2
#     Edge 97, Type (0, 0), BuildingBlock: CIFDUS_clean_linker_0, # of connection points: 2
#     Edge 98, Type (0, 0), BuildingBlock: CIFDUS_clean_linker_0, # of connection points: 2
#     Edge 99, Type (0, 0), BuildingBlock: CIFDUS_clean_linker_0, # of connection points: 2
#     Edge 100, Type (0, 0), BuildingBlock: CIFDUS_clean_linker_0, # of connection points: 2
#     Edge 101, Type (0, 0), BuildingBlock: CIFDUS_clean_linker_0, # of connection points: 2
#     Edge 102, Type (0, 0), BuildingBlock: CIFDUS_clean_linker_0, # of connection points: 2
#     Edge 103, Type (0, 0), BuildingBlock: CIFDUS_clean_linker_0, # of connection points: 2
#     Edge 104, Type (0, 0), BuildingBlock: CIFDUS_clean_linker_0, # of connection points: 2
#     Edge 105, Type (0, 0), BuildingBlock: CIFDUS_clean_linker_0, # of connection points: 2
#     Edge 106, Type (0, 0), BuildingBlock: CIFDUS_clean_linker_0, # of connection points: 2
#     Edge 107, Type (0, 0), BuildingBlock: CIFDUS_clean_linker_0, # of connection points: 2
#     Edge 108, Type (0, 0), BuildingBlock: CIFDUS_clean_linker_0, # of connection points: 2
#     Edge 109, Type (0, 0), BuildingBlock: CIFDUS_clean_linker_0, # of connection points: 2
#     Edge 110, Type (0, 0), BuildingBlock: CIFDUS_clean_linker_0, # of connection points: 2
#     Edge 111, Type (0, 0), BuildingBlock: CIFDUS_clean_linker_0, # of connection points: 2
#     Edge 112, Type (0, 0), BuildingBlock: CIFDUS_clean_linker_0, # of connection points: 2
#     Edge 113, Type (0, 0), BuildingBlock: CIFDUS_clean_linker_0, # of connection points: 2
#     Edge 114, Type (0, 0), BuildingBlock: CIFDUS_clean_linker_0, # of connection points: 2
#     Edge 115, Type (0, 0), BuildingBlock: CIFDUS_clean_linker_0, # of connection points: 2
#     Edge 116, Type (0, 0), BuildingBlock: CIFDUS_clean_linker_0, # of connection points: 2
#     Edge 117, Type (0, 0), BuildingBlock: CIFDUS_clean_linker_0, # of connection points: 2
#     Edge 118, Type (0, 0), BuildingBlock: CIFDUS_clean_linker_0, # of connection points: 2
#     Edge 119, Type (0, 0), BuildingBlock: CIFDUS_clean_linker_0, # of connection points: 2
#     Edge 120, Type (0, 0), BuildingBlock: CIFDUS_clean_linker_0, # of connection points: 2
#     Edge 121, Type (0, 0), BuildingBlock: CIFDUS_clean_linker_0, # of connection points: 2
#     Edge 122, Type (0, 0), BuildingBlock: CIFDUS_clean_linker_0, # of connection points: 2
#     Edge 123, Type (0, 0), BuildingBlock: CIFDUS_clean_linker_0, # of connection points: 2
#     Edge 124, Type (0, 0), BuildingBlock: CIFDUS_clean_linker_0, # of connection points: 2
#     Edge 125, Type (0, 0), BuildingBlock: CIFDUS_clean_linker_0, # of connection points: 2
#     Edge 126, Type (0, 0), BuildingBlock: CIFDUS_clean_linker_0, # of connection points: 2
#     Edge 127, Type (0, 0), BuildingBlock: CIFDUS_clean_linker_0, # of connection points: 2
#     Edge 128, Type (0, 0), BuildingBlock: CIFDUS_clean_linker_0, # of connection points: 2
#     Edge 129, Type (0, 0), BuildingBlock: CIFDUS_clean_linker_0, # of connection points: 2
#     Edge 130, Type (0, 0), BuildingBlock: CIFDUS_clean_linker_0, # of connection points: 2
#     Edge 131, Type (0, 0), BuildingBlock: CIFDUS_clean_linker_0, # of connection points: 2
#     Edge 132, Type (0, 0), BuildingBlock: CIFDUS_clean_linker_0, # of connection points: 2
#     Edge 133, Type (0, 0), BuildingBlock: CIFDUS_clean_linker_0, # of connection points: 2
#     Edge 134, Type (0, 0), BuildingBlock: CIFDUS_clean_linker_0, # of connection points: 2
#     Edge 135, Type (0, 0), BuildingBlock: CIFDUS_clean_linker_0, # of connection points: 2
#     Edge 136, Type (0, 0), BuildingBlock: CIFDUS_clean_linker_0, # of connection points: 2
#     Edge 137, Type (0, 0), BuildingBlock: CIFDUS_clean_linker_0, # of connection points: 2
#     Edge 138, Type (0, 0), BuildingBlock: CIFDUS_clean_linker_0, # of connection points: 2
#     Edge 139, Type (0, 0), BuildingBlock: CIFDUS_clean_linker_0, # of connection points: 2
#     Edge 140, Type (0, 0), BuildingBlock: CIFDUS_clean_linker_0, # of connection points: 2
#     Edge 141, Type (0, 0), BuildingBlock: CIFDUS_clean_linker_0, # of connection points: 2
#     Edge 142, Type (0, 0), BuildingBlock: CIFDUS_clean_linker_0, # of connection points: 2
#     Edge 143, Type (0, 0), BuildingBlock: CIFDUS_clean_linker_0, # of connection points: 2
# Relax obj value: 0.769
# Max RMSD: 0.386
# Mean RMSD: 0.354
data_MOF--net-lcv-a--node1-QUQFOY_clean_sbu_1--edge1-CIFDUS_clean_linker_0
_symmetry_space_group_name_H-M    P1
_symmetry_Int_Tables_number       1
_symmetry_cell_setting            triclinic
loop_
_symmetry_equiv_pos_as_xyz
'x, y, z'
_cell_length_a     80.596551
_cell_length_b     80.438559
_cell_length_c     80.495297
_cell_angle_alpha  89.380238
_cell_angle_beta   89.592694
_cell_angle_gamma 89.421836
loop_
_atom_site_label
_atom_site_type_symbol
_atom_site_fract_x
_atom_site_fract_y
_atom_site_fract_z
_atom_type_partial_charge
O0 O 0.9778 0.34749 0.24334 0.0
Cd1 Cd 1.0008 0.34921 0.23315 0.0
Cd2 Cd 0.98211 0.31488 0.24502 0.0
O3 O 0.96089 0.32844 0.23758 0.0
O4 O 1.00578 0.37263 0.22586 0.0
O5 O 0.01385 0.36196 0.24996 0.0
C6 C 0.01145 0.37497 0.24063 0.0
C7 C 1.00146 0.31333 0.26632 0.0
C8 C 0.96574 0.34309 0.2346 0.0
C9 C 1.00526 0.31253 0.21682 0.0
O10 O 0.99382 0.30523 0.22491 0.0
O11 O 0.0092 0.32784 0.21943 0.0
O12 O 0.98941 0.30278 0.26573 0.0
O13 O 1.00058 0.32627 0.25672 0.0
O14 O 1.00792 0.73073 0.4871 0.0
Cd15 Cd 1.00512 0.75139 0.47279 0.0
Cd16 Cd 0.03954 0.73415 0.48814 0.0
O17 O 0.02644 0.71211 0.48431 0.0
O18 O 0.98235 0.75069 0.46347 0.0
O19 O 0.98896 0.76712 0.48423 0.0
C20 C 0.9776 0.76024 0.47541 0.0
C21 C 0.04206 0.75509 0.50755 0.0
C22 C 0.01217 0.71732 0.48021 0.0
C23 C 0.04126 0.75213 0.45535 0.0
O24 O 0.04838 0.74292 0.46616 0.0
O25 O 0.02583 0.75665 0.45663 0.0
O26 O 0.05268 0.74286 0.50711 0.0
O27 O 0.02873 0.75385 0.49882 0.0
O28 O 0.60258 0.74955 0.73705 0.0
Cd29 Cd 0.58264 0.74593 0.72214 0.0
Cd30 Cd 0.60057 0.7809 0.73476 0.0
O31 O 0.62243 0.76648 0.73442 0.0
O32 O 0.58016 0.72217 0.71547 0.0
O33 O 0.56684 0.73322 0.73686 0.0
C34 C 0.57158 0.72006 0.72893 0.0
C35 C 0.58101 0.78727 0.75522 0.0
C36 C 0.61726 0.7519 0.73204 0.0
C37 C 0.58137 0.78053 0.70234 0.0
O38 O 0.59193 0.78759 0.71157 0.0
O39 O 0.57579 0.76584 0.7055 0.0
O40 O 0.59359 0.79686 0.75245 0.0
O41 O 0.58076 0.77313 0.74776 0.0
O42 O 0.60169 0.37088 0.9902 0.0
Cd43 Cd 0.60587 0.34906 0.97841 0.0
Cd44 Cd 0.57034 0.36834 0.98929 0.0
O45 O 0.58399 0.39 0.98554 0.0
O46 O 0.62944 0.34844 0.9709 0.0
O47 O 0.62047 0.33439 0.99295 0.0
C48 C 0.63278 0.34006 0.98425 0.0
C49 C 0.56496 0.3503 0.01139 0.0
C50 C 0.5981 0.38392 0.98206 0.0
C51 C 0.57181 0.34693 0.95855 0.0
O52 O 0.56415 0.35769 0.96729 0.0
O53 O 0.58666 0.34172 0.96183 0.0
O54 O 0.55483 0.36246 1.00791 0.0
O55 O 0.57909 0.34986 1.00368 0.0
O56 O 0.97694 0.73307 0.38085 0.0
Cd57 Cd 1.00056 0.72588 0.37639 0.0
Cd58 Cd 0.98104 0.76337 0.38327 0.0
O59 O 0.96096 0.74995 0.39333 0.0
O60 O 1.0039 0.70102 0.3751 0.0
O61 O 0.99981 0.71736 0.3531 0.0
C62 C 1.00083 0.7025 0.35937 0.0
C63 C 0.99484 0.77425 0.36034 0.0
C64 C 0.96861 0.73606 0.39388 0.0
C65 C 0.01405 0.75674 0.39359 0.0
O66 O 0.99957 0.75877 0.39944 0.0
O67 O 0.01739 0.74505 0.3832 0.0
O68 O 0.98705 0.7841 0.3705 0.0
O69 O 0.99169 0.75849 0.36139 0.0
O70 O 0.59603 0.74019 0.65166 0.0
Cd71 Cd 0.58864 0.75251 0.63171 0.0
Cd72 Cd 0.56857 0.72739 0.62837 0.0
O73 O 0.58978 0.71614 0.64031 0.0
O74 O 0.60892 0.76366 0.62087 0.0
O75 O 0.59929 0.7394 0.61308 0.0
C76 C 0.61073 0.75042 0.61194 0.0
C77 C 0.55948 0.73564 0.60148 0.0
C78 C 0.59783 0.72455 0.65103 0.0
C79 C 0.55289 0.75436 0.64474 0.0
O80 O 0.55378 0.73861 0.64539 0.0
O81 O 0.56415 0.76261 0.6368 0.0
O82 O 0.55485 0.72148 0.60767 0.0
O83 O 0.56993 0.74397 0.60977 0.0
O84 O 0.62903 0.36094 0.88386 0.0
Cd85 Cd 0.60418 0.35742 0.88414 0.0
Cd86 Cd 0.6349 0.32994 0.88249 0.0
O87 O 0.6495 0.34795 0.89432 0.0
O88 O 0.59211 0.37956 0.88335 0.0
O89 O 0.59747 0.36449 0.86109 0.0
C90 C 0.59322 0.37868 0.86735 0.0
C91 C 0.62375 0.32288 0.85689 0.0
C92 C 0.63928 0.35993 0.89563 0.0
C93 C 0.60451 0.32217 0.90272 0.0
O94 O 0.61985 0.31949 0.89992 0.0
O95 O 0.59652 0.33485 0.89659 0.0
O96 O 0.63653 0.31484 0.86268 0.0
O97 O 0.61945 0.33648 0.86418 0.0
O98 O 0.98423 0.37118 0.13474 0.0
Cd99 Cd 0.98458 0.34603 0.13761 0.0
Cd100 Cd 0.01741 0.36997 0.13283 0.0
O101 O 1.00201 0.38835 0.14336 0.0
O102 O 0.96192 0.33566 0.13878 0.0
O103 O 0.97694 0.33724 0.11573 0.0
C104 C 0.96287 0.33413 0.12283 0.0
C105 C 0.02205 0.35468 0.10879 0.0
C106 C 0.98819 0.38134 0.14587 0.0
C107 C 0.02026 0.34034 0.15404 0.0
O108 O 0.0258 0.35481 0.15118 0.0
O109 O 1.00608 0.33553 0.14871 0.0
O110 O 0.03239 0.36614 0.11294 0.0
O111 O 1.00791 0.35435 0.11643 0.0
O112 O 0.20674 0.01054 0.38301 0.0
Cd113 Cd 0.22643 0.02323 0.37531 0.0
Cd114 Cd 0.22791 1.00198 0.35208 0.0
O115 O 0.2159 0.98772 0.37085 0.0
O116 O 0.23734 0.03292 0.39552 0.0
O117 O 0.24582 0.00957 0.38364 0.0
C118 C 0.24655 0.01961 0.39601 0.0
C119 C 0.25292 0.00995 0.33984 0.0
C120 C 0.206 0.99497 0.38109 0.0
C121 C 0.21205 0.03111 0.3411 0.0
O122 O 0.21079 0.01553 0.33969 0.0
O123 O 0.22037 0.03716 0.35319 0.0
O124 O 0.24557 0.9966 0.33491 0.0
O125 O 0.24775 0.01652 0.35345 0.0
O126 O 0.37328 0.95008 0.61187 0.0
Cd127 Cd 0.34779 0.95262 0.61052 0.0
Cd128 Cd 0.37302 0.94932 0.57905 0.0
O129 O 0.38726 0.9345 0.59552 0.0
O130 O 0.33787 0.95368 0.63357 0.0
O131 O 0.34416 0.97595 0.61858 0.0
C132 C 0.34017 0.96957 0.63284 0.0
C133 C 0.36597 0.9773 0.5745 0.0
C134 C 0.3817 0.93687 0.61007 0.0
C135 C 0.33845 0.9385 0.5747 0.0
O136 O 0.3535 0.93632 0.57032 0.0
O137 O 0.33437 0.94555 0.58849 0.0
O138 O 0.37574 0.9697 0.56416 0.0
O139 O 0.36276 0.96991 0.58839 0.0
O140 O 0.34456 0.11742 0.83264 0.0
Cd141 Cd 0.35736 0.0976 0.84173 0.0
Cd142 Cd 0.3446 0.10274 0.80241 0.0
O143 O 0.34574 0.12786 0.80836 0.0
O144 O 0.36593 0.10186 0.86456 0.0
O145 O 0.3441 0.08613 0.85979 0.0
C146 C 0.35334 0.09375 0.87031 0.0
C147 C 0.32731 0.08025 0.80567 0.0
C148 C 0.35163 0.12761 0.82291 0.0
C149 C 0.37496 0.08357 0.80845 0.0
O150 O 0.36731 0.09251 0.79782 0.0
O151 O 0.37159 0.08402 0.82413 0.0
O152 O 0.32731 0.08873 0.79187 0.0
O153 O 0.33446 0.08669 0.81839 0.0
O154 O 0.25243 0.12797 0.12007 0.0
Cd155 Cd 0.27035 0.11197 0.11185 0.0
Cd156 Cd 0.24513 0.10893 0.08883 0.0
O157 O 0.23003 0.12079 0.10626 0.0
O158 O 0.28392 0.10776 0.13277 0.0
O159 O 0.26837 0.08877 0.12127 0.0
C160 C 0.27713 0.09328 0.13371 0.0
C161 C 0.25081 0.08266 0.07896 0.0
C162 C 0.23699 0.12949 0.11738 0.0
C163 C 0.27472 0.12872 0.07854 0.0
O164 O 0.25937 0.12586 0.07682 0.0
O165 O 0.28281 0.12212 0.09067 0.0
O166 O 0.23916 0.09152 0.07207 0.0
O167 O 0.25706 0.08794 0.09258 0.0
O168 O 0.21749 0.08876 0.2373 0.0
Cd169 Cd 0.23394 0.07273 0.24667 0.0
Cd170 Cd 0.23813 0.09659 0.26798 0.0
O171 O 0.22891 0.11119 0.24762 0.0
O172 O 0.24228 0.05946 0.22695 0.0
O173 O 0.25629 0.07994 0.23822 0.0
C174 C 0.25466 0.06965 0.22618 0.0
C175 C 0.26055 0.08493 0.28216 0.0
C176 C 0.21864 0.10443 0.23766 0.0
C177 C 0.21626 0.07132 0.27983 0.0
O178 O 0.21852 0.08686 0.27984 0.0
O179 O 0.22363 0.0622 0.26893 0.0
O180 O 0.25527 0.09973 0.28597 0.0
O181 O 0.25512 0.07858 0.26868 0.0
O182 O 0.24938 1.00116 0.51186 0.0
Cd183 Cd 0.2618 0.97906 0.50938 0.0
Cd184 Cd 0.25559 1.00209 0.54264 0.0
O185 O 0.23281 1.00791 0.53121 0.0
O186 O 0.25779 0.96869 0.48744 0.0
O187 O 0.27941 0.98462 0.49244 0.0
C188 C 0.27007 0.97729 0.48181 0.0
C189 C 0.28298 0.01121 0.54114 0.0
C190 C 0.23453 1.00198 0.5168 0.0
C191 C 0.26137 0.96503 0.54656 0.0
O192 O 0.25596 0.97867 0.55255 0.0
O193 O 0.26525 0.96352 0.53106 0.0
O194 O 0.27325 0.01616 0.55302 0.0
O195 O 0.27643 1.00321 0.52907 0.0
O196 O 0.40485 0.98787 0.74511 0.0
Cd197 Cd 0.38478 1.00294 0.74618 0.0
Cd198 Cd 0.37707 0.98312 0.77053 0.0
O199 O 0.38794 0.96752 0.75157 0.0
O200 O 0.37757 0.01091 0.7229 0.0
O201 O 0.36593 0.99 0.73629 0.0
C202 C 0.36713 0.99876 0.72288 0.0
C203 C 0.35019 0.99425 0.77621 0.0
C204 C 0.40132 0.97259 0.74448 0.0
C205 C 0.39212 0.0126 0.78115 0.0
O206 O 0.3937 0.99703 0.78347 0.0
O207 O 0.38556 0.01813 0.76765 0.0
O208 O 0.35551 0.98144 0.78454 0.0
O209 O 0.35916 0.99934 0.76408 0.0
O210 O 0.35698 0.09914 0.99909 0.0
Cd211 Cd 0.3375 0.11434 0.99381 0.0
Cd212 Cd 0.34701 0.09275 0.02909 0.0
O213 O 0.37142 0.09478 0.02066 0.0
O214 O 0.34203 0.12796 0.97345 0.0
O215 O 0.3259 0.10588 0.97338 0.0
C216 C 0.33402 0.11707 0.9651 0.0
C217 C 0.32679 0.07283 0.02897 0.0
C218 C 0.36933 0.10344 1.00761 0.0
C219 C 0.32898 0.12634 0.03042 0.0
O220 O 0.33719 0.11478 0.03767 0.0
O221 O 0.32728 0.12709 0.01452 0.0
O222 O 0.33732 0.07342 0.04106 0.0
O223 O 0.32961 0.08185 0.01583 0.0
O224 O 0.37552 0.20695 0.01601 0.0
Cd225 Cd 0.3699 0.22709 0.02997 0.0
Cd226 Cd 0.34598 0.22823 1.00763 0.0
O227 O 0.3604 0.21131 0.99363 0.0
O228 O 0.39087 0.23173 0.04258 0.0
O229 O 0.38084 0.24874 0.02337 0.0
C230 C 0.39264 0.24495 0.0335 0.0
C231 C 0.33428 0.25314 0.01422 0.0
C232 C 0.37061 0.20221 1.0019 0.0
C233 C 0.33748 0.21323 0.03967 0.0
O234 O 0.3348 0.21359 0.02423 0.0
O235 O 0.3501 0.22051 0.0457 0.0
O236 O 0.3278 0.24438 1.00244 0.0
O237 O 0.34932 0.24961 0.01869 0.0
O238 O 0.85919 0.39268 0.10089 0.0
Cd239 Cd 0.85155 0.37232 0.089 0.0
Cd240 Cd 0.8249 0.37933 0.10888 0.0
O241 O 0.84286 0.39241 0.12304 0.0
O242 O 0.87266 0.36214 0.07969 0.0
O243 O 0.85892 0.35152 0.10107 0.0
C244 C 0.87211 0.35158 0.09191 0.0
C245 C 0.81208 0.35501 0.10131 0.0
C246 C 0.85564 0.398 0.11526 0.0
C247 C 0.82047 0.38813 0.07496 0.0
O248 O 0.81787 0.39366 0.08943 0.0
O249 O 0.83192 0.37722 0.0724 0.0
O250 O 0.80438 0.36517 0.11124 0.0
O251 O 0.82791 0.35657 0.09996 0.0
O252 O 0.97698 0.58531 0.36233 0.0
Cd253 Cd 0.96248 0.5884 0.3419 0.0
Cd254 Cd 0.97337 0.55313 0.35704 0.0
O255 O 0.96903 0.56656 0.37914 0.0
O256 O 0.95665 0.61246 0.33872 0.0
O257 O 0.97762 0.60014 0.32576 0.0
C258 C 0.97035 0.61376 0.33042 0.0
C259 C 0.99427 0.55181 0.33666 0.0
C260 C 0.96962 0.58194 0.37575 0.0
C261 C 0.94145 0.55418 0.33947 0.0
O262 O 0.95178 0.5449 0.34715 0.0
O263 O 0.94403 0.56983 0.33717 0.0
O264 O 0.99362 0.54086 0.34858 0.0
O265 O 0.9845 0.56455 0.3377 0.0
O266 O 0.7321 0.70989 0.61248 0.0
Cd267 Cd 0.72832 0.71342 0.58802 0.0
Cd268 Cd 0.76311 0.71153 0.61075 0.0
O269 O 0.74926 0.69883 0.62913 0.0
O270 O 0.70423 0.71178 0.58187 0.0
O271 O 0.717 0.73567 0.58588 0.0
C272 C 0.70329 0.72775 0.58373 0.0
C273 C 0.76984 0.73598 0.59702 0.0
C274 C 0.7361 0.69707 0.62082 0.0
C275 C 0.76311 0.69921 0.57749 0.0
O276 O 0.76624 0.69499 0.59238 0.0
O277 O 0.74994 0.70757 0.5735 0.0
O278 O 0.78073 0.72861 0.60644 0.0
O279 O 0.75449 0.7316 0.59872 0.0
O280 O 0.10248 0.99865 0.36429 0.0
Cd281 Cd 0.10808 0.99785 0.33951 0.0
Cd282 Cd 0.10077 0.02997 0.36421 0.0
O283 O 0.10801 0.01453 0.38434 0.0
O284 O 0.11332 0.97424 0.33272 0.0
O285 O 0.08877 0.98612 0.32887 0.0
C286 C 0.09787 0.97276 0.32913 0.0
C287 C 0.0785 0.03542 0.34669 0.0
C288 C 0.11163 1.00128 0.3767 0.0
C289 C 0.12894 0.03111 0.33873 0.0
O290 O 0.12174 0.0367 0.35169 0.0
O291 O 0.12457 0.01747 0.33168 0.0
O292 O 0.08188 0.0456 0.35855 0.0
O293 O 0.08589 0.02111 0.34683 0.0
O294 O 0.22499 0.90821 0.50409 0.0
Cd295 Cd 0.23317 0.88548 0.51203 0.0
Cd296 Cd 0.25514 0.89362 0.48839 0.0
O297 O 0.23547 0.90773 0.47866 0.0
O298 O 0.21351 0.87183 0.52105 0.0
O299 O 0.22446 0.86835 0.49618 0.0
C300 C 0.21294 0.86469 0.50672 0.0
C301 C 0.26946 0.86828 0.48891 0.0
C302 C 0.22598 0.91452 0.48955 0.0
C303 C 0.26689 0.89893 0.52045 0.0
O304 O 0.26484 0.9068 0.50694 0.0
O305 O 0.25708 0.88691 0.52427 0.0
O306 O 0.27501 0.88037 0.47969 0.0
O307 O 0.25474 0.86986 0.49493 0.0
O308 O 0.94216 0.48403 0.2613 0.0
Cd309 Cd 0.96488 0.48986 0.26933 0.0
Cd310 Cd 0.96324 0.5101 0.24428 0.0
O311 O 0.9474 0.49144 0.23526 0.0
O312 O 0.97771 0.4692 0.27781 0.0
O313 O 0.98001 0.4791 0.25227 0.0
C314 C 0.9836 0.46754 0.26287 0.0
C315 C 0.98863 0.52294 0.24921 0.0
C316 C 0.93799 0.48431 0.2461 0.0
C317 C 0.95353 0.52524 0.27374 0.0
O318 O 0.94816 0.52285 0.25928 0.0
O319 O 0.96385 0.51466 0.2801 0.0
O320 O 0.97908 0.5286 0.23745 0.0
O321 O 0.98537 0.50847 0.25518 0.0
O322 O 0.6353 0.6156 0.74189 0.0
Cd323 Cd 0.61906 0.60873 0.75873 0.0
Cd324 Cd 0.61199 0.58374 0.74077 0.0
O325 O 0.62334 0.60026 0.72282 0.0
O326 O 0.60881 0.62982 0.76784 0.0
O327 O 0.59744 0.61478 0.74799 0.0
C328 C 0.5978 0.62851 0.75622 0.0
C329 C 0.59274 0.57193 0.75907 0.0
C330 C 0.63411 0.61117 0.72695 0.0
C331 C 0.63678 0.57499 0.76309 0.0
O332 O 0.63204 0.57181 0.74859 0.0
O333 O 0.63085 0.58773 0.77082 0.0
O334 O 0.59501 0.56567 0.74437 0.0
O335 O 0.59859 0.58652 0.7617 0.0
O336 O 0.50054 0.8634 0.70421 0.0
Cd337 Cd 0.51208 0.85846 0.72569 0.0
Cd338 Cd 0.48937 0.83527 0.72881 0.0
O339 O 0.47731 0.85036 0.71067 0.0
O340 O 0.52219 0.8801 0.73316 0.0
O341 O 0.49964 0.86919 0.74445 0.0
C342 C 0.50963 0.88157 0.74321 0.0
C343 C 0.49469 0.82456 0.7545 0.0
C344 C 0.48584 0.85947 0.70061 0.0
C345 C 0.52062 0.82354 0.71566 0.0
O346 O 0.50513 0.82153 0.71568 0.0
O347 O 0.52678 0.83666 0.72207 0.0
O348 O 0.48246 0.8186 0.74601 0.0
O349 O 0.50044 0.83889 0.75009 0.0
O350 O 0.49443 0.26144 0.96772 0.0
Cd351 Cd 0.50042 0.27799 0.98538 0.0
Cd352 Cd 0.52391 0.25418 0.98959 0.0
O353 O 0.50759 0.23885 0.97644 0.0
O354 O 0.47922 0.2914 0.98789 0.0
O355 O 0.48851 0.27403 1.00715 0.0
C356 C 0.47667 0.28343 1.00169 0.0
C357 C 0.53337 0.26251 0.01484 0.0
C358 C 0.49745 0.24601 0.9664 0.0
C359 C 0.53439 0.28437 0.97178 0.0
O360 O 0.53639 0.26881 0.97338 0.0
O361 O 0.52153 0.29156 0.97799 0.0
O362 O 0.54049 0.24992 1.00763 0.0
O363 O 0.51899 0.26721 0.00951 0.0
O364 O 0.08611 0.24504 0.21484 0.0
Cd365 Cd 0.07334 0.25287 0.23465 0.0
Cd366 Cd 0.1004 0.27385 0.23535 0.0
O367 O 0.11104 0.2549 0.21994 0.0
O368 O 0.05865 0.23333 0.24115 0.0
O369 O 0.08078 0.24027 0.25533 0.0
C370 C 0.06913 0.22978 0.25282 0.0
C371 C 0.09145 0.28441 0.26058 0.0
C372 C 0.10137 0.24593 0.21117 0.0
C373 C 0.07079 0.28752 0.21974 0.0
O374 O 0.0865 0.28725 0.21968 0.0
O375 O 0.06277 0.2766 0.22838 0.0
O376 O 0.10432 0.29091 0.2533 0.0
O377 O 0.08664 0.27024 0.25535 0.0
O378 O 0.09603 0.86114 0.46906 0.0
Cd379 Cd 0.09953 0.83645 0.46796 0.0
Cd380 Cd 0.06547 0.86051 0.47314 0.0
O381 O 0.07884 0.8793 0.46042 0.0
O382 O 0.12385 0.83118 0.46521 0.0
O383 O 0.1106 0.82971 0.48939 0.0
C384 C 0.12453 0.82994 0.48124 0.0
C385 C 0.06022 0.84828 0.49845 0.0
C386 C 0.0924 0.87164 0.45784 0.0
C387 C 0.0644 0.82915 0.45225 0.0
O388 O 0.05814 0.84297 0.45685 0.0
O389 O 0.07931 0.82438 0.45599 0.0
O390 O 0.05004 0.85944 0.49252 0.0
O391 O 0.07486 0.84713 0.49178 0.0
O392 O 0.51889 0.24471 0.87846 0.0
Cd393 Cd 0.53955 0.24838 0.86508 0.0
Cd394 Cd 0.52234 0.2749 0.85665 0.0
O395 O 0.50155 0.26085 0.86455 0.0
O396 O 0.54871 0.225 0.86353 0.0
O397 O 0.53746 0.23858 0.84231 0.0
C398 C 0.5428 0.2247 0.84862 0.0
C399 C 0.53905 0.28545 0.836 0.0
C400 C 0.50422 0.24972 0.87576 0.0
C401 C 0.54672 0.28061 0.88185 0.0
O402 O 0.53244 0.28487 0.87688 0.0
O403 O 0.5536 0.26715 0.87659 0.0
O404 O 0.52515 0.29296 0.83963 0.0
O405 O 0.5411 0.27033 0.84129 0.0
O406 O 0.10082 0.23578 0.10958 0.0
Cd407 Cd 0.10532 0.25753 0.12139 0.0
Cd408 Cd 0.06806 0.24383 0.11145 0.0
O409 O 0.07954 0.22059 0.11029 0.0
O410 O 0.12899 0.26025 0.12836 0.0
O411 O 0.1187 0.27119 0.10517 0.0
C412 C 0.13145 0.26775 0.1143 0.0
C413 C 0.0634 0.26744 0.09525 0.0
C414 C 0.09345 0.22385 0.11669 0.0
C415 C 0.07161 0.26287 0.14153 0.0
O416 O 0.06411 0.25067 0.13527 0.0
O417 O 0.08587 0.26781 0.13622 0.0
O418 O 0.05204 0.25621 0.09673 0.0
O419 O 0.07815 0.26371 0.10048 0.0
O420 O 0.10982 0.85317 0.3581 0.0
Cd421 Cd 0.08737 0.85664 0.36944 0.0
Cd422 Cd 0.10526 0.82051 0.35989 0.0
O423 O 0.12738 0.83364 0.36105 0.0
O424 O 0.08317 0.87985 0.37752 0.0
O425 O 0.07453 0.87086 0.35317 0.0
C426 C 0.07687 0.88313 0.36312 0.0
C427 C 0.08192 0.81563 0.34384 0.0
C428 C 0.12198 0.8475 0.36626 0.0
C429 C 0.08298 0.82151 0.38728 0.0
O430 O 0.09742 0.81655 0.38334 0.0
O431 O 0.07682 0.83533 0.38167 0.0
O432 O 0.09336 0.80427 0.34535 0.0
O433 O 0.08547 0.8305 0.34854 0.0
O434 O 0.49696 0.8483 0.59636 0.0
Cd435 Cd 0.48493 0.82823 0.60492 0.0
Cd436 Cd 0.52578 0.83847 0.59445 0.0
O437 O 0.51836 0.8632 0.59905 0.0
O438 O 0.46244 0.83725 0.61219 0.0
O439 O 0.46547 0.8205 0.59081 0.0
C440 C 0.456 0.83023 0.59952 0.0
C441 C 0.53237 0.8198 0.57432 0.0
C442 C 0.50387 0.85995 0.60423 0.0
C443 C 0.51701 0.81707 0.6254 0.0
O444 O 0.52681 0.82565 0.61638 0.0
O445 O 0.50127 0.8158 0.6224 0.0
O446 O 0.54344 0.83013 0.57953 0.0
O447 O 0.51692 0.82258 0.57814 0.0
O448 O 0.70942 0.48424 0.84483 0.0
Cd449 Cd 0.71862 0.50731 0.84327 0.0
Cd450 Cd 0.73861 0.49231 0.82372 0.0
O451 O 0.73538 0.4763 0.84511 0.0
O452 O 0.71461 0.51942 0.86501 0.0
O453 O 0.73897 0.50893 0.85773 0.0
C454 C 0.72982 0.51588 0.86892 0.0
C455 C 0.75811 0.51367 0.81824 0.0
C456 C 0.72038 0.47411 0.8499 0.0
C457 C 0.71246 0.50904 0.80697 0.0
O458 O 0.71935 0.49476 0.80661 0.0
O459 O 0.71352 0.5179 0.82007 0.0
O460 O 0.76056 0.49888 0.81247 0.0
O461 O 0.74579 0.51572 0.82818 0.0
O462 O 0.85248 0.47252 0.0965 0.0
Cd463 Cd 0.83307 0.48782 0.09415 0.0
Cd464 Cd 0.85219 0.50008 0.07268 0.0
O465 O 0.8676 0.49488 0.09419 0.0
O466 O 0.82363 0.49151 0.1174 0.0
O467 O 0.83937 0.50977 0.10407 0.0
C468 C 0.83247 0.50491 0.11778 0.0
C469 C 0.83396 0.52006 0.06095 0.0
C470 C 0.86546 0.48022 0.10025 0.0
C471 C 0.83156 0.47412 0.06111 0.0
O472 O 0.84661 0.47861 0.0607 0.0
O473 O 0.82174 0.48042 0.07208 0.0
O474 O 0.84913 0.51875 0.0556 0.0
O475 O 0.83032 0.51235 0.07453 0.0
O476 O 0.88147 0.62502 0.35601 0.0
Cd477 Cd 0.88357 0.59972 0.35401 0.0
Cd478 Cd 0.88141 0.62734 0.32345 0.0
O479 O 0.89333 0.64289 0.34046 0.0
O480 O 0.88542 0.58796 0.37611 0.0
O481 O 0.86158 0.59182 0.36311 0.0
C482 C 0.8694 0.58788 0.3766 0.0
C483 C 0.8547 0.61732 0.31908 0.0
C484 C 0.89325 0.63512 0.35424 0.0
C485 C 0.90113 0.59595 0.31828 0.0
O486 O 0.89778 0.61069 0.31338 0.0
O487 O 0.89573 0.58999 0.33223 0.0
O488 O 0.86066 0.62881 0.30942 0.0
O489 O 0.86291 0.61348 0.33228 0.0
O490 O 0.74313 0.60382 0.58104 0.0
Cd491 Cd 0.76169 0.61987 0.5853 0.0
Cd492 Cd 0.7468 0.60363 0.5495 0.0
O493 O 0.72435 0.60478 0.56275 0.0
O494 O 0.75811 0.62896 0.608 0.0
O495 O 0.7775 0.61011 0.60252 0.0
C496 C 0.76878 0.61817 0.61341 0.0
C497 C 0.76834 0.58536 0.5438 0.0
C498 C 0.72905 0.60947 0.5769 0.0
C499 C 0.76205 0.63794 0.54948 0.0
O500 O 0.75399 0.6267 0.54213 0.0
O501 O 0.7663 0.63671 0.56494 0.0
O502 O 0.75575 0.58666 0.53389 0.0
O503 O 0.76719 0.59234 0.5582 0.0
O504 O 0.73782 0.61432 0.74205 0.0
Cd505 Cd 0.74017 0.59054 0.73495 0.0
Cd506 Cd 0.73597 0.61156 0.77236 0.0
O507 O 0.7237 0.62994 0.7579 0.0
O508 O 0.72999 0.58896 0.71248 0.0
O509 O 0.75713 0.58777 0.71635 0.0
C510 C 0.74479 0.589 0.70617 0.0
C511 C 0.75935 0.60362 0.78559 0.0
C512 C 0.72466 0.62291 0.74394 0.0
C513 C 0.72419 0.57603 0.76792 0.0
O514 O 0.72264 0.59031 0.77447 0.0
O515 O 0.73185 0.5736 0.75397 0.0
O516 O 0.74857 0.61309 0.79314 0.0
O517 O 0.75882 0.60287 0.76949 0.0
O518 O 0.74424 0.45973 0.97498 0.0
Cd519 Cd 0.76057 0.47642 0.98195 0.0
Cd520 Cd 0.73896 0.48256 1.00547 0.0
O521 O 0.72305 0.47107 0.9882 0.0
O522 O 0.77415 0.48056 0.96127 0.0
O523 O 0.75464 0.49795 0.97022 0.0
C524 C 0.76465 0.49338 0.95847 0.0
C525 C 0.75149 0.50679 0.01487 0.0
C526 C 0.7289 0.46005 0.97825 0.0
C527 C 0.76407 0.46093 0.01713 0.0
O528 O 0.74881 0.46408 0.01927 0.0
O529 O 0.77184 0.46724 1.00448 0.0
O530 O 0.73721 0.50228 0.02089 0.0
O531 O 0.75687 0.49923 1.00185 0.0
O532 O 0.84114 0.50214 0.24641 0.0
Cd533 Cd 0.86089 0.51616 0.23945 0.0
Cd534 Cd 0.8388 0.51227 0.27582 0.0
O535 O 0.83431 0.48813 0.26781 0.0
O536 O 0.86777 0.51203 0.21573 0.0
O537 O 0.85119 0.53279 0.22329 0.0
C538 C 0.85747 0.52373 0.21157 0.0
C539 C 0.82513 0.53728 0.27839 0.0
C540 C 0.8426 0.4886 0.2544 0.0
C541 C 0.8767 0.51944 0.27495 0.0
O542 O 0.86305 0.51567 0.28204 0.0
O543 O 0.87819 0.52105 0.25902 0.0
O544 O 0.82447 0.52628 0.29028 0.0
O545 O 0.83111 0.53275 0.26412 0.0
O546 O 0.86785 0.63252 0.48392 0.0
Cd547 Cd 0.84282 0.63167 0.48605 0.0
Cd548 Cd 0.86948 0.62676 0.51612 0.0
O549 O 0.88485 0.64218 0.50143 0.0
O550 O 0.8327 0.63457 0.46342 0.0
O551 O 0.83679 0.60998 0.4755 0.0
C552 C 0.8334 0.61854 0.46221 0.0
C553 C 0.8592 0.60039 0.51948 0.0
C554 C 0.87725 0.64429 0.48783 0.0
C555 C 0.83776 0.64507 0.5231 0.0
O556 O 0.8523 0.64105 0.52778 0.0
O557 O 0.83232 0.64192 0.5084 0.0
O558 O 0.87108 0.60541 0.52896 0.0
O559 O 0.85613 0.60891 0.50611 0.0
O560 O 0.85045 0.74253 0.47749 0.0
Cd561 Cd 0.85791 0.73046 0.49869 0.0
Cd562 Cd 0.81887 0.73758 0.48533 0.0
O563 O 0.82964 0.73978 0.46183 0.0
O564 O 0.88034 0.71988 0.49747 0.0
O565 O 0.87608 0.74452 0.50868 0.0
C566 C 0.88641 0.73334 0.50336 0.0
C567 C 0.81115 0.7521 0.50903 0.0
C568 C 0.84429 0.73502 0.46528 0.0
C569 C 0.82585 0.71025 0.50651 0.0
O570 O 0.82022 0.71349 0.49223 0.0
O571 O 0.83905 0.71722 0.51194 0.0
O572 O 0.80019 0.74857 0.49791 0.0
O573 O 0.82667 0.75009 0.50509 0.0
O574 O 0.33498 0.87851 0.61682 0.0
Cd575 Cd 0.34003 0.88041 0.59237 0.0
Cd576 Cd 0.32048 0.85593 0.59319 0.0
O577 O 0.33922 0.85246 0.61222 0.0
O578 O 0.36357 0.88824 0.5873 0.0
O579 O 0.35581 0.86225 0.58425 0.0
C580 C 0.36756 0.87297 0.58394 0.0
C581 C 0.32048 0.84766 0.56495 0.0
C582 C 0.3412 0.86494 0.62173 0.0
C583 C 0.30486 0.88814 0.58783 0.0
O584 O 0.30247 0.87459 0.59582 0.0
O585 O 0.31931 0.89149 0.58224 0.0
O586 O 0.31317 0.83866 0.57618 0.0
O587 O 0.32878 0.86013 0.56998 0.0
O588 O 0.45612 0.13099 0.83271 0.0
Cd589 Cd 0.47745 0.12125 0.82469 0.0
Cd590 Cd 0.47729 0.0993 0.84866 0.0
O591 O 0.45531 0.11392 0.85441 0.0
O592 O 0.49202 0.13906 0.81451 0.0
O593 O 0.49625 0.12793 0.83945 0.0
C594 C 0.50023 0.13893 0.82832 0.0
C595 C 0.49803 0.08233 0.83767 0.0
C596 C 0.44832 0.12498 0.84505 0.0
C597 C 0.46188 0.08771 0.81962 0.0
O598 O 0.46139 0.08687 0.83526 0.0
O599 O 0.47019 0.09918 0.81217 0.0
O600 O 0.49038 0.078 0.85134 0.0
O601 O 0.49623 0.09752 0.83251 0.0
O602 O 0.24779 0.23519 0.11053 0.0
Cd603 Cd 0.24527 0.23436 0.08564 0.0
Cd604 Cd 0.27797 0.23349 0.11103 0.0
O605 O 0.26206 0.2251 0.13024 0.0
O606 O 0.22162 0.22963 0.08004 0.0
O607 O 0.23269 0.25478 0.07829 0.0
C608 C 0.21966 0.24549 0.0781 0.0
C609 C 0.28895 0.25643 0.09798 0.0
C610 C 0.24918 0.22383 0.12147 0.0
C611 C 0.27755 0.21292 0.07988 0.0
O612 O 0.28235 0.21485 0.09476 0.0
O613 O 0.26486 0.22068 0.07372 0.0
O614 O 0.29698 0.24907 0.10995 0.0
O615 O 0.27343 0.25289 0.09611 0.0
O616 O 0.65172 0.48568 0.86032 0.0
Cd617 Cd 0.63695 0.49169 0.8414 0.0
Cd618 Cd 0.63213 0.51813 0.85964 0.0
O619 O 0.63966 0.50158 0.87911 0.0
O620 O 0.63113 0.46953 0.8311 0.0
O621 O 0.61391 0.48384 0.8471 0.0
C622 C 0.61743 0.47011 0.83962 0.0
C623 C 0.60924 0.52911 0.84501 0.0
C624 C 0.64969 0.4897 0.87536 0.0
C625 C 0.65505 0.52422 0.83358 0.0
O626 O 0.65248 0.52793 0.84864 0.0
O627 O 0.64757 0.51166 0.82731 0.0
O628 O 0.61415 0.53605 0.85858 0.0
O629 O 0.61559 0.51483 0.84147 0.0
O630 O 0.75304 0.36197 0.98371 0.0
Cd631 Cd 0.75013 0.37099 1.00699 0.0
Cd632 Cd 0.78408 0.36199 0.98508 0.0
O633 O 0.7695 0.36622 0.96356 0.0
O634 O 0.72778 0.38182 1.00846 0.0
O635 O 0.73267 0.35671 0.01869 0.0
C636 C 0.72203 0.3681 0.01436 0.0
C637 C 0.78865 0.34411 1.00799 0.0
C638 C 0.75575 0.36989 0.97031 0.0
C639 C 0.78463 0.39104 1.00679 0.0
O640 O 0.79005 0.38473 0.9934 0.0
O641 O 0.77128 0.38592 0.01431 0.0
O642 O 0.7994 0.3449 0.99594 0.0
O643 O 0.77438 0.35099 1.0055 0.0
O644 O 0.45606 0.99807 0.7265 0.0
Cd645 Cd 0.46694 0.99892 0.74893 0.0
Cd646 Cd 0.48049 0.02224 0.73393 0.0
O647 O 0.48128 1.00103 0.71766 0.0
O648 O 0.46714 0.9763 0.76004 0.0
O649 O 0.48963 0.98839 0.74988 0.0
C650 C 0.48282 0.97542 0.75646 0.0
C651 C 0.49877 0.03288 0.75418 0.0
C652 C 0.46698 0.99457 0.71578 0.0
C653 C 0.45171 0.03086 0.75265 0.0
O654 O 0.45725 0.03334 0.738 0.0
O655 O 0.4579 0.01894 0.7613 0.0
O656 O 0.49859 0.03896 0.73922 0.0
O657 O 0.49048 0.01954 0.75683 0.0
O658 O 0.13019 0.12335 0.26152 0.0
Cd659 Cd 0.11487 0.11733 0.28045 0.0
Cd660 Cd 0.10881 0.09264 0.25708 0.0
O661 O 0.1212 0.10885 0.24032 0.0
O662 O 0.11455 0.13883 0.29346 0.0
O663 O 0.09315 0.13036 0.27908 0.0
C664 C 0.10015 0.14209 0.28714 0.0
C665 C 0.08287 0.08683 0.26808 0.0
C666 C 0.13074 0.11996 0.24619 0.0
C667 C 0.12865 0.08206 0.28609 0.0
O668 O 0.12523 0.07934 0.27102 0.0
O669 O 0.12395 0.09566 0.29309 0.0
O670 O 0.08839 0.07823 0.25563 0.0
O671 O 0.09071 0.10013 0.27174 0.0
H672 H 0.03057 0.33056 0.26536 0.0
H673 H 0.00905 0.28509 0.2841 0.0
H674 H 0.03671 0.27323 0.28814 0.0
H675 H 0.06622 0.2735 0.28025 0.0
H676 H 0.08759 0.31827 0.25986 0.0
H677 H 0.06102 0.33277 0.26313 0.0
C678 C 0.03189 0.31826 0.27088 0.0
C679 C 0.01762 0.30864 0.27412 0.0
C680 C 0.04792 0.31128 0.2727 0.0
C681 C 0.0197 0.29277 0.28135 0.0
C682 C 0.03558 0.28591 0.28356 0.0
C683 C 0.06527 0.28665 0.2772 0.0
C684 C 0.0789 0.29468 0.26959 0.0
C685 C 0.04971 0.2947 0.2784 0.0
C686 C 0.07742 0.31173 0.26578 0.0
C687 C 0.06207 0.31998 0.26738 0.0
H688 H 0.07786 0.8227 0.51264 0.0
H689 H 0.02784 0.84085 0.50538 0.0
H690 H 0.01712 0.81309 0.51075 0.0
H691 H 0.02253 0.78285 0.51118 0.0
H692 H 0.07258 0.76469 0.51822 0.0
H693 H 0.08254 0.79315 0.51964 0.0
C694 C 0.06456 0.82075 0.51286 0.0
C695 C 0.05375 0.83387 0.50823 0.0
C696 C 0.05845 0.80458 0.5156 0.0
C697 C 0.03654 0.83106 0.50877 0.0
C698 C 0.03036 0.81507 0.51166 0.0
C699 C 0.03554 0.78508 0.5136 0.0
C700 C 0.04681 0.77156 0.51423 0.0
C701 C 0.04128 0.80157 0.51412 0.0
C702 C 0.06359 0.77477 0.51755 0.0
C703 C 0.06936 0.79111 0.51822 0.0
H704 H 0.55049 0.77292 0.7572 0.0
H705 H 0.57731 0.81643 0.77208 0.0
H706 H 0.55119 0.83073 0.77825 0.0
H707 H 0.52137 0.83306 0.77294 0.0
H708 H 0.49475 0.79044 0.75558 0.0
H709 H 0.51992 0.77348 0.75766 0.0
C710 C 0.55067 0.78534 0.76232 0.0
C711 C 0.56589 0.7937 0.76383 0.0
C712 C 0.53553 0.79375 0.76528 0.0
C713 C 0.56582 0.80974 0.77059 0.0
C714 C 0.55085 0.81798 0.77405 0.0
C715 C 0.52087 0.81989 0.77026 0.0
C716 C 0.50624 0.81321 0.76362 0.0
C717 C 0.53566 0.81045 0.77051 0.0
C718 C 0.5058 0.79604 0.76053 0.0
C719 C 0.52033 0.78636 0.76145 0.0
H720 H 0.52211 0.28984 0.03116 0.0
H721 H 0.56724 0.26413 0.01724 0.0
H722 H 0.58247 0.29012 0.01848 0.0
H723 H 0.58116 0.32066 0.01609 0.0
H724 H 0.53535 0.3464 0.02774 0.0
H725 H 0.52235 0.32003 0.03496 0.0
C726 C 0.53543 0.28977 0.02907 0.0
C727 C 0.54338 0.27509 0.02361 0.0
C728 C 0.54393 0.30496 0.02889 0.0
C729 C 0.56069 0.27521 0.02128 0.0
C730 C 0.5694 0.29018 0.02172 0.0
C731 C 0.5685 0.32059 0.02076 0.0
C732 C 0.55914 0.33552 0.02098 0.0
C733 C 0.56088 0.30527 0.02434 0.0
C734 C 0.54281 0.33514 0.02721 0.0
C735 C 0.53531 0.32 0.03127 0.0
H736 H 1.00529 0.8063 0.3543 0.0
H737 H 0.01919 0.75502 0.34646 0.0
H738 H 0.04713 0.76337 0.33862 0.0
H739 H 0.06885 0.7848 0.338 0.0
H740 H 0.05475 0.83623 0.34445 0.0
H741 H 0.02587 0.82827 0.34831 0.0
C742 C 0.01425 0.79698 0.35037 0.0
C743 C 0.00998 0.78001 0.35114 0.0
C744 C 0.03048 0.80187 0.34573 0.0
C745 C 0.02192 0.76818 0.34599 0.0
C746 C 0.03805 0.77293 0.3416 0.0
C747 C 0.05941 0.79435 0.33972 0.0
C748 C 0.06417 0.81111 0.3411 0.0
C749 C 0.04267 0.78969 0.342 0.0
C750 C 0.05162 0.82323 0.34332 0.0
C751 C 0.03502 0.81867 0.34569 0.0
H752 H 0.57349 0.75561 0.57845 0.0
H753 H 0.5263 0.73679 0.59499 0.0
H754 H 0.5123 0.76132 0.58325 0.0
H755 H 0.51479 0.79102 0.57579 0.0
H756 H 0.56265 0.81054 0.56185 0.0
H757 H 0.57498 0.78285 0.56459 0.0
C758 C 0.56005 0.75649 0.5787 0.0
C759 C 0.55096 0.74451 0.58773 0.0
C760 C 0.55225 0.77107 0.57276 0.0
C761 C 0.53357 0.74576 0.58802 0.0
C762 C 0.5256 0.76 0.58158 0.0
C763 C 0.52777 0.78912 0.57261 0.0
C764 C 0.53785 0.80297 0.56895 0.0
C765 C 0.53497 0.77323 0.57501 0.0
C766 C 0.55463 0.80019 0.56487 0.0
C767 C 0.56174 0.78434 0.56659 0.0
H768 H 0.59559 0.33632 0.84335 0.0
H769 H 0.62457 0.29096 0.8453 0.0
H770 H 0.60097 0.27545 0.835 0.0
H771 H 0.57073 0.27395 0.83138 0.0
H772 H 0.5414 0.31914 0.8311 0.0
H773 H 0.5665 0.33546 0.83435 0.0
C774 C 0.59695 0.32313 0.84106 0.0
C775 C 0.61184 0.31483 0.84544 0.0
C776 C 0.5831 0.31415 0.83562 0.0
C777 C 0.61332 0.29773 0.84216 0.0
C778 C 0.59972 0.28879 0.8364 0.0
C779 C 0.56983 0.28741 0.83142 0.0
C780 C 0.55405 0.29522 0.83129 0.0
C781 C 0.58431 0.29673 0.83395 0.0
C782 C 0.55327 0.3127 0.83125 0.0
C783 C 0.56766 0.32208 0.83332 0.0
H784 H 0.05377 0.34449 0.1014 0.0
H785 H 1.0026 0.3308 0.09529 0.0
H786 H 0.01112 0.30262 0.088 0.0
H787 H 0.03273 0.2807 0.08818 0.0
H788 H 0.08391 0.29432 0.09468 0.0
H789 H 0.07579 0.32351 0.09662 0.0
C790 C 0.04449 0.33554 0.09789 0.0
C791 C 0.02751 0.33982 0.09913 0.0
C792 C 0.04949 0.31913 0.09401 0.0
C793 C 0.01573 0.3279 0.09463 0.0
C794 C 0.0206 0.31169 0.09053 0.0
C795 C 0.04219 0.29008 0.0895 0.0
C796 C 0.05892 0.28515 0.09145 0.0
C797 C 0.0374 0.30695 0.09093 0.0
C798 C 0.07094 0.2976 0.09317 0.0
C799 C 0.06628 0.31438 0.09442 0.0
H800 H 0.26979 0.05267 0.27789 0.0
H801 H 0.26754 0.09106 0.3149 0.0
H802 H 0.26939 0.06994 0.33688 0.0
H803 H 0.26476 0.04095 0.34525 0.0
H804 H 0.26306 1.00281 0.308 0.0
H805 H 0.27003 0.02336 0.28654 0.0
C806 C 0.27024 0.05651 0.29075 0.0
C807 C 0.26817 0.0735 0.29469 0.0
C808 C 0.27027 0.04423 0.30333 0.0
C809 C 0.26901 0.07815 0.31144 0.0
C810 C 0.26987 0.06602 0.32404 0.0
C811 C 0.26643 0.03695 0.33252 0.0
C812 C 0.26305 0.02033 0.32824 0.0
C813 C 0.26945 0.04903 0.32012 0.0
C814 C 0.26546 0.01547 0.31168 0.0
C815 C 0.26927 0.02729 0.29936 0.0
H816 H 0.35587 0.9853 0.54318 0.0
H817 H 0.35038 0.99993 0.59429 0.0
H818 H 0.32477 0.01493 0.58762 0.0
H819 H 0.30116 0.0186 0.56862 0.0
H820 H 0.30615 1.00279 0.51776 0.0
H821 H 0.33468 0.99394 0.52287 0.0
C822 C 0.34948 0.99239 0.55271 0.0
C823 C 0.35498 0.99132 0.56926 0.0
C824 C 0.33437 1.00052 0.54889 0.0
C825 C 0.34638 1.00044 0.58148 0.0
C826 C 0.33162 1.00891 0.57769 0.0
C827 C 0.30866 0.01379 0.55849 0.0
C828 C 0.30136 0.01116 0.54289 0.0
C829 C 0.32502 1.00825 0.56163 0.0
C830 C 0.31134 1.00485 0.52994 0.0
C831 C 0.32769 0.99966 0.53288 0.0
H832 H 0.34397 1.00514 0.80754 0.0
H833 H 0.3273 0.00969 0.75697 0.0
H834 H 0.31483 0.03675 0.76289 0.0
H835 H 0.31516 0.06164 0.78032 0.0
H836 H 0.33293 0.05761 0.83065 0.0
H837 H 0.33803 0.02797 0.8271 0.0
C838 C 0.3368 0.01164 0.79809 0.0
C839 C 0.3366 1.00542 0.78182 0.0
C840 C 0.33026 0.02763 0.80142 0.0
C841 C 0.32755 0.01418 0.76961 0.0
C842 C 0.32063 0.02981 0.77294 0.0
C843 C 0.31953 0.05418 0.79074 0.0
C844 C 0.324 0.06204 0.80559 0.0
C845 C 0.32287 0.03711 0.78849 0.0
C846 C 0.32952 0.05205 0.81898 0.0
C847 C 0.3326 0.03503 0.81693 0.0
H848 H 0.2533 0.07942 0.04541 0.0
H849 H 0.27077 0.05821 0.09157 0.0
H850 H 0.29612 0.04864 0.07788 0.0
H851 H 0.31616 0.05424 0.05544 0.0
H852 H 0.2992 0.07686 0.0097 0.0
H853 H 0.27086 0.07743 0.02035 0.0
C854 C 0.26224 0.07194 0.05228 0.0
C855 C 0.2604 0.07 0.06959 0.0
C856 C 0.2772 0.06715 0.04448 0.0
C857 C 0.27203 0.06013 0.07827 0.0
C858 C 0.28667 0.05484 0.07049 0.0
C859 C 0.30617 0.05865 0.04752 0.0
C860 C 0.30994 0.06609 0.03206 0.0
C861 C 0.28992 0.05949 0.05396 0.0
C862 C 0.29677 0.07137 0.02181 0.0
C863 C 0.28051 0.07186 0.02797 0.0
H864 H 0.27836 0.26238 0.06635 0.0
H865 H 0.32098 0.26752 0.09797 0.0
H866 H 0.33876 0.27125 0.07356 0.0
H867 H 0.34296 0.26677 0.04374 0.0
H868 H 0.30068 0.25884 0.0123 0.0
H869 H 0.28207 0.26302 0.03598 0.0
C870 C 0.29143 0.26495 0.06797 0.0
C871 C 0.29831 0.26448 0.08408 0.0
C872 C 0.30175 0.26631 0.0538 0.0
C873 C 0.31532 0.26774 0.08581 0.0
C874 C 0.32554 0.26973 0.0718 0.0
C875 C 0.32965 0.26654 0.04187 0.0
C876 C 0.32331 0.26216 0.0262 0.0
C877 C 0.31903 0.26811 0.05576 0.0
C878 C 0.30599 0.26206 0.02414 0.0
C879 C 0.29531 0.26426 0.03778 0.0
H880 H 0.77061 0.34756 0.03667 0.0
H881 H 0.81817 0.33034 0.0184 0.0
H882 H 0.82858 0.32886 0.04684 0.0
H883 H 0.82564 0.33683 0.0761 0.0
H884 H 0.77878 0.3562 0.09403 0.0
H885 H 0.76657 0.35194 0.06671 0.0
C886 C 0.78312 0.34301 0.03888 0.0
C887 C 0.79358 0.3391 0.02524 0.0
C888 C 0.78922 0.34269 0.0553 0.0
C889 C 0.80979 0.33339 0.02852 0.0
C890 C 0.8158 0.33265 0.04484 0.0
C891 C 0.81258 0.33964 0.07426 0.0
C892 C 0.80322 0.34697 0.08726 0.0
C893 C 0.80583 0.33787 0.05825 0.0
C894 C 0.78634 0.3505 0.08444 0.0
C895 C 0.77939 0.34827 0.06868 0.0
H896 H 0.01113 0.51392 0.27256 0.0
H897 H 0.98669 0.557 0.25136 0.0
H898 H 0.99063 0.57206 0.27719 0.0
H899 H 0.99331 0.56979 0.30764 0.0
H900 H 0.01409 0.525 0.32938 0.0
H901 H 0.01939 0.51396 0.30174 0.0
C902 C 1.0073 0.52687 0.27332 0.0
C903 C 0.99825 0.53414 0.2601 0.0
C904 C 0.00845 0.53499 0.28866 0.0
C905 C 0.99362 0.551 0.26126 0.0
C906 C 0.99563 0.55955 0.27621 0.0
C907 C 0.99959 0.55787 0.30636 0.0
C908 C 1.00287 0.54805 0.32065 0.0
C909 C 1.00187 0.55121 0.29034 0.0
C910 C 0.01114 0.53273 0.31867 0.0
C911 C 0.0141 0.52634 0.30281 0.0
H912 H 0.77981 0.75637 0.52214 0.0
H913 H 0.83129 0.75269 0.53618 0.0
H914 H 0.82321 0.74942 0.56526 0.0
H915 H 0.80145 0.74352 0.58627 0.0
H916 H 0.75 0.74831 0.57234 0.0
H917 H 0.75818 0.75552 0.54402 0.0
C918 C 0.7893 0.75535 0.53159 0.0
C919 C 0.80617 0.75466 0.52678 0.0
C920 C 0.78457 0.75348 0.54846 0.0
C921 C 0.81821 0.75332 0.53935 0.0
C922 C 0.8136 0.75131 0.55607 0.0
C923 C 0.792 0.74667 0.57721 0.0
C924 C 0.77508 0.7452 0.58161 0.0
C925 C 0.7968 0.75079 0.56074 0.0
C926 C 0.76311 0.7493 0.56951 0.0
C927 C 0.76778 0.75332 0.55316 0.0
H928 H 0.07453 0.05422 0.27259 0.0
H929 H 0.06731 0.10292 0.29349 0.0
H930 H 0.06152 0.09052 0.32062 0.0
H931 H 0.06605 0.06649 0.3394 0.0
H932 H 0.07336 0.01779 0.31844 0.0
H933 H 0.07115 0.02947 0.29055 0.0
C934 C 0.0709 0.0621 0.28286 0.0
C935 C 0.07186 0.0795 0.28107 0.0
C936 C 0.06803 0.05488 0.29866 0.0
C937 C 0.06697 0.08948 0.29455 0.0
C938 C 0.06383 0.0824 0.31018 0.0
C939 C 0.06649 0.05832 0.32878 0.0
C940 C 0.07042 0.04135 0.3311 0.0
C941 C 0.0655 0.06518 0.31261 0.0
C942 C 0.07067 0.03095 0.31712 0.0
C943 C 0.06952 0.03765 0.30106 0.0
H944 H 0.2956 0.83068 0.54968 0.0
H945 H 0.33778 0.86183 0.53947 0.0
H946 H 0.32734 0.86801 0.51176 0.0
H947 H 0.30292 0.87015 0.49363 0.0
H948 H 0.26064 0.83917 0.50384 0.0
H949 H 0.27464 0.82697 0.52784 0.0
C950 C 0.30286 0.83825 0.54115 0.0
C951 C 0.31722 0.84613 0.54686 0.0
C952 C 0.29663 0.84201 0.52519 0.0
C953 C 0.32652 0.85582 0.53555 0.0
C954 C 0.32052 0.85945 0.51965 0.0
C955 C 0.29711 0.8601 0.50055 0.0
C956 C 0.28059 0.85589 0.49711 0.0
C957 C 0.30508 0.85343 0.51472 0.0
C958 C 0.27329 0.84283 0.5063 0.0
C959 C 0.28122 0.83596 0.52021 0.0
H960 H 0.58789 0.58172 0.79112 0.0
H961 H 0.58904 0.53803 0.76049 0.0
H962 H 0.59156 0.52042 0.78529 0.0
H963 H 0.59865 0.51787 0.81499 0.0
H964 H 0.59895 0.56174 0.84536 0.0
H965 H 0.59046 0.57871 0.82147 0.0
C966 C 0.58816 0.56831 0.78985 0.0
C967 C 0.58842 0.56129 0.7738 0.0
C968 C 0.5902 0.55826 0.80419 0.0
C969 C 0.58875 0.54386 0.77255 0.0
C970 C 0.59041 0.53376 0.78679 0.0
C971 C 0.59642 0.53108 0.81655 0.0
C972 C 0.59964 0.53849 0.83204 0.0
C973 C 0.59194 0.54087 0.80258 0.0
C974 C 0.59661 0.55564 0.8337 0.0
C975 C 0.59187 0.5654 0.81995 0.0
H976 H 0.76207 0.54324 0.83348 0.0
H977 H 0.77233 0.51795 0.78755 0.0
H978 H 0.77753 0.54463 0.77367 0.0
H979 H 0.77326 0.57503 0.77342 0.0
H980 H 0.76196 0.60013 0.81932 0.0
H981 H 0.76365 0.57375 0.83442 0.0
C982 C 0.76602 0.54353 0.82057 0.0
C983 C 0.76665 0.52862 0.81153 0.0
C984 C 0.76863 0.55896 0.81259 0.0
C985 C 0.77183 0.5292 0.79483 0.0
C986 C 0.77462 0.54451 0.78684 0.0
C987 C 0.77183 0.57489 0.78682 0.0
C988 C 0.76716 0.58963 0.79512 0.0
C989 C 0.77224 0.5595 0.7954 0.0
C990 C 0.76542 0.58906 0.81253 0.0
C991 C 0.7662 0.57389 0.82118 0.0
H992 H 0.78156 0.51868 1.0048 0.0
H993 H 0.74867 0.51661 0.04728 0.0
H994 H 0.77149 0.52419 0.06541 0.0
H995 H 0.80167 0.5256 0.06975 0.0
H996 H 0.83476 0.52628 0.0274 0.0
H997 H 0.81102 0.52548 1.00874 0.0
C998 C 0.77922 0.52041 0.01796 0.0
C999 C 0.76337 0.51682 0.02465 0.0
C1000 C 0.79257 0.52431 0.02842 0.0
C1001 C 0.76064 0.51926 0.04173 0.0
C1002 C 0.77379 0.52343 0.05216 0.0
C1003 C 0.8037 0.52615 0.05643 0.0
C1004 C 0.82009 0.52578 0.05005 0.0
C1005 C 0.78996 0.52514 0.04575 0.0
C1006 C 0.82239 0.52659 0.03273 0.0
C1007 C 0.80876 0.52592 0.02202 0.0
H1008 H 0.84504 0.61085 0.28741 0.0
H1009 H 0.83529 0.59753 0.33857 0.0
H1010 H 0.82147 0.57229 0.32985 0.0
H1011 H 0.8179 0.55134 0.30829 0.0
H1012 H 0.82919 0.56382 0.25721 0.0
H1013 H 0.83615 0.59205 0.26522 0.0
C1014 C 0.83927 0.60279 0.29662 0.0
C1015 C 0.84139 0.60601 0.31364 0.0
C1016 C 0.83187 0.58788 0.29152 0.0
C1017 C 0.83396 0.59531 0.3254 0.0
C1018 C 0.82615 0.58077 0.32042 0.0
C1019 C 0.82131 0.56038 0.2988 0.0
C1020 C 0.82333 0.55528 0.2822 0.0
C1021 C 0.82589 0.57647 0.30358 0.0
C1022 C 0.82767 0.56727 0.27011 0.0
C1023 C 0.83181 0.58344 0.27471 0.0
H1024 H 0.83371 0.58626 0.50271 0.0
H1025 H 0.85439 0.59047 0.55174 0.0
H1026 H 0.82779 0.58291 0.56411 0.0
H1027 H 0.79739 0.58152 0.56094 0.0
H1028 H 0.77672 0.57759 0.51184 0.0
H1029 H 0.80448 0.5783 0.4997 0.0
C1030 C 0.8326 0.5849 0.51609 0.0
C1031 C 0.84602 0.58931 0.52623 0.0
C1032 C 0.81707 0.58094 0.52318 0.0
C1033 C 0.84434 0.58727 0.54356 0.0
C1034 C 0.829 0.58314 0.55069 0.0
C1035 C 0.79897 0.58023 0.54763 0.0
C1036 C 0.78487 0.57987 0.53734 0.0
C1037 C 0.81505 0.58092 0.54063 0.0
C1038 C 0.78725 0.57803 0.52011 0.0
C1039 C 0.80318 0.57858 0.5131 0.0
H1040 H 0.51236 0.08767 0.80725 0.0
H1041 H 0.49603 0.04833 0.84017 0.0
H1042 H 0.4972 0.02873 0.81722 0.0
H1043 H 0.49828 0.02391 0.78703 0.0
H1044 H 0.51317 0.06366 0.75391 0.0
H1045 H 0.51733 0.08178 0.77768 0.0
C1046 C 0.50955 0.0747 0.80958 0.0
C1047 C 0.50401 0.0696 0.82554 0.0
C1048 C 0.50971 0.06356 0.79615 0.0
C1049 C 0.50041 0.05269 0.82816 0.0
C1050 C 0.50089 0.04147 0.81493 0.0
C1051 C 0.50285 0.0364 0.78498 0.0
C1052 C 0.50527 0.0424 0.76856 0.0
C1053 C 0.50483 0.04693 0.79874 0.0
C1054 C 0.51119 0.05865 0.7663 0.0
C1055 C 0.51347 0.06909 0.77993 0.0
H1056 H 0.97574 0.37338 0.22351 0.0
H1057 H 0.95214 0.32882 0.20682 0.0
H1058 H 0.9547 0.3385 0.178 0.0
H1059 H 0.9663 0.35819 0.15756 0.0
H1060 H 0.99623 0.3988 0.17386 0.0
H1061 H 0.98866 0.39241 0.20275 0.0
C1062 C 0.97164 0.36556 0.21352 0.0
C1063 C 0.96452 0.35003 0.21736 0.0
C1064 C 0.97444 0.37052 0.19691 0.0
C1065 C 0.95796 0.34067 0.20433 0.0
C1066 C 0.95954 0.34616 0.18781 0.0
C1067 C 0.97166 0.3653 0.16735 0.0
C1068 C 0.98244 0.37848 0.16339 0.0
C1069 C 0.96832 0.36073 0.18394 0.0
C1070 C 0.98822 0.38833 0.17643 0.0
C1071 C 0.98392 0.38464 0.19299 0.0
H1072 H 0.99944 0.72431 0.4039 0.0
H1073 H 0.94953 0.73258 0.42172 0.0
H1074 H 0.95805 0.72367 0.44964 0.0
H1075 H 0.9805 0.71657 0.4695 0.0
H1076 H 0.0309 0.71307 0.45186 0.0
H1077 H 0.02142 0.71644 0.42321 0.0
C1078 C 0.99025 0.72398 0.41362 0.0
C1079 C 0.97376 0.72918 0.41047 0.0
C1080 C 0.99546 0.71961 0.42978 0.0
C1081 C 0.96229 0.72874 0.4237 0.0
C1082 C 0.96717 0.72359 0.43967 0.0
C1083 C 0.98932 0.71637 0.45932 0.0
C1084 C 1.00636 0.71488 0.46288 0.0
C1085 C 0.98383 0.71942 0.44294 0.0
C1086 C 0.01771 0.7142 0.44956 0.0
C1087 C 0.01229 0.71634 0.43316 0.0
H1088 H 0.60982 0.72027 0.72331 0.0
H1089 H 0.63953 0.76205 0.70806 0.0
H1090 H 0.64194 0.75083 0.68015 0.0
H1091 H 0.62795 0.73507 0.65884 0.0
H1092 H 0.59168 0.69854 0.67282 0.0
H1093 H 0.60037 0.70035 0.70187 0.0
C1094 C 0.61681 0.72684 0.7138 0.0
C1095 C 0.62346 0.74253 0.7174 0.0
C1096 C 0.61693 0.72103 0.69736 0.0
C1097 C 0.63371 0.75028 0.70549 0.0
C1098 C 0.63504 0.74389 0.68947 0.0
C1099 C 0.62242 0.72701 0.66823 0.0
C1100 C 0.60875 0.71722 0.66387 0.0
C1101 C 0.62555 0.73012 0.685 0.0
C1102 C 0.60201 0.70642 0.67588 0.0
C1103 C 0.60663 0.7079 0.69258 0.0
H1104 H 0.62975 0.38044 0.97111 0.0
H1105 H 0.58002 0.38945 0.95371 0.0
H1106 H 0.58916 0.38466 0.92516 0.0
H1107 H 0.61041 0.37471 0.9059 0.0
H1108 H 0.65898 0.36095 0.92335 0.0
H1109 H 0.65136 0.37063 0.95121 0.0
C1110 C 0.62098 0.38137 0.96101 0.0
C1111 C 0.6042 0.38491 0.9646 0.0
C1112 C 0.62612 0.37749 0.94472 0.0
C1113 C 0.59301 0.38671 0.95138 0.0
C1114 C 0.5982 0.38376 0.93504 0.0
C1115 C 0.61933 0.37367 0.91564 0.0
C1116 C 0.63512 0.36675 0.91239 0.0
C1117 C 0.61457 0.37854 0.93169 0.0
C1118 C 0.64664 0.36599 0.92543 0.0
C1119 C 0.64228 0.37157 0.94137 0.0
H1120 H 0.13386 1.00152 0.40266 0.0
H1121 H 0.12944 0.98652 0.35194 0.0
H1122 H 0.15746 0.97722 0.35097 0.0
H1123 H 0.18493 0.97815 0.3625 0.0
H1124 H 0.19178 0.99663 0.41187 0.0
H1125 H 0.16169 0.99876 0.41591 0.0
C1126 C 0.139 0.99598 0.39151 0.0
C1127 C 0.12902 0.99463 0.37727 0.0
C1128 C 0.1559 0.99103 0.39095 0.0
C1129 C 0.13611 0.98738 0.36309 0.0
C1130 C 0.1525 0.98209 0.36252 0.0
C1131 C 0.17982 0.98175 0.37447 0.0
C1132 C 0.19048 0.98729 0.38679 0.0
C1133 C 0.16267 0.98432 0.37616 0.0
C1134 C 0.18372 0.99221 0.40218 0.0
C1135 C 0.16651 0.99384 0.40434 0.0
H1136 H 0.34416 0.88352 0.64969 0.0
H1137 H 0.3732 0.85189 0.61806 0.0
H1138 H 0.39392 0.87386 0.61485 0.0
H1139 H 0.39437 0.90477 0.6086 0.0
H1140 H 0.36405 0.93686 0.63906 0.0
H1141 H 0.35193 0.91282 0.65298 0.0
C1142 C 0.35537 0.8812 0.6425 0.0
C1143 C 0.35606 0.86703 0.63229 0.0
C1144 C 0.36558 0.89477 0.63838 0.0
C1145 C 0.37143 0.8634 0.62472 0.0
C1146 C 0.38289 0.87625 0.62215 0.0
C1147 C 0.38544 0.90652 0.61856 0.0
C1148 C 0.37906 0.92258 0.62178 0.0
C1149 C 0.37863 0.89253 0.62679 0.0
C1150 C 0.36825 0.92461 0.63545 0.0
C1151 C 0.36147 0.91084 0.64363 0.0
H1152 H 0.3695 0.12904 0.85166 0.0
H1153 H 0.37501 0.13244 0.79842 0.0
H1154 H 0.40501 0.13357 0.80128 0.0
H1155 H 0.42959 0.13144 0.81831 0.0
H1156 H 0.42544 0.12334 0.87124 0.0
H1157 H 0.39497 0.12552 0.86914 0.0
C1158 C 0.37733 0.12949 0.84071 0.0
C1159 C 0.3699 0.13 0.82484 0.0
C1160 C 0.39478 0.12925 0.8424 0.0
C1161 C 0.3802 0.13184 0.81078 0.0
C1162 C 0.39743 0.1324 0.8124 0.0
C1163 C 0.42215 0.13038 0.82954 0.0
C1164 C 0.42993 0.12757 0.84502 0.0
C1165 C 0.40483 0.13082 0.82809 0.0
C1166 C 0.41987 0.12574 0.85924 0.0
C1167 C 0.40245 0.12693 0.85799 0.0
H1168 H 0.22585 0.15359 0.0976 0.0
H1169 H 0.23453 0.14146 0.14897 0.0
H1170 H 0.23734 0.17102 0.15537 0.0
H1171 H 0.24324 0.19966 0.14495 0.0
H1172 H 0.24025 0.20878 0.09226 0.0
H1173 H 0.2295 0.18177 0.08779 0.0
C1174 C 0.22742 0.1575 0.11036 0.0
C1175 C 0.22972 0.14541 0.12281 0.0
C1176 C 0.23068 0.17425 0.11359 0.0
C1177 C 0.23236 0.15059 0.13922 0.0
C1178 C 0.23441 0.16748 0.14279 0.0
C1179 C 0.23995 0.1958 0.13255 0.0
C1180 C 0.24194 0.20698 0.11906 0.0
C1181 C 0.23462 0.17934 0.12985 0.0
C1182 C 0.23792 0.20145 0.10309 0.0
C1183 C 0.23199 0.18555 0.10042 0.0
H1184 H 0.1474 0.10699 0.21914 0.0
H1185 H 0.14741 0.1482 0.25295 0.0
H1186 H 0.17737 0.15028 0.25044 0.0
H1187 H 0.2033 0.13397 0.246 0.0
H1188 H 0.20343 0.09527 0.20939 0.0
H1189 H 0.17382 0.09915 0.20515 0.0
C1190 C 0.15378 0.11704 0.2252 0.0
C1191 C 0.14532 0.1267 0.23703 0.0
C1192 C 0.17117 0.11837 0.22358 0.0
C1193 C 0.15377 0.14005 0.24431 0.0
C1194 C 0.171 0.14121 0.24301 0.0
C1195 C 0.1971 0.1271 0.23637 0.0
C1196 C 0.20533 0.1137 0.22877 0.0
C1197 C 0.17993 0.12946 0.23382 0.0
C1198 C 0.19718 0.10526 0.21594 0.0
C1199 C 0.18014 0.10732 0.21359 0.0
H1200 H 0.23159 0.99021 0.48565 0.0
H1201 H 0.21226 0.98381 0.53537 0.0
H1202 H 0.20243 0.95621 0.52837 0.0
H1203 H 0.2068 0.9318 0.5112 0.0
H1204 H 0.23104 0.93658 0.46341 0.0
H1205 H 0.23025 0.96687 0.46592 0.0
C1206 C 0.22474 0.98293 0.49477 0.0
C1207 C 0.22324 0.98875 0.51118 0.0
C1208 C 0.22008 0.96661 0.49094 0.0
C1209 C 0.21392 0.97951 0.52276 0.0
C1210 C 0.20842 0.96363 0.51878 0.0
C1211 C 0.21163 0.93943 0.50111 0.0
C1212 C 0.21967 0.93185 0.48745 0.0
C1213 C 0.21264 0.95664 0.50338 0.0
C1214 C 0.22514 0.942 0.47424 0.0
C1215 C 0.22485 0.95935 0.47578 0.0
H1216 H 0.42931 0.95302 0.74694 0.0
H1217 H 0.39404 0.97323 0.71205 0.0
H1218 H 0.41617 0.97814 0.69192 0.0
H1219 H 0.44572 0.98649 0.69019 0.0
H1220 H 0.48102 0.96386 0.72288 0.0
H1221 H 0.45888 0.94866 0.73728 0.0
C1222 C 0.42626 0.95728 0.73449 0.0
C1223 C 0.41013 0.96338 0.73124 0.0
C1224 C 0.43915 0.96007 0.72284 0.0
C1225 C 0.40639 0.96866 0.71495 0.0
C1226 C 0.41914 0.97178 0.70347 0.0
C1227 C 0.44875 0.97739 0.69977 0.0
C1228 C 0.46427 0.97839 0.70768 0.0
C1229 C 0.4357 0.96904 0.70804 0.0
C1230 C 0.4685 0.96494 0.71818 0.0
C1231 C 0.45579 0.95649 0.7267 0.0
H1232 H 0.37055 0.12584 0.98177 0.0
H1233 H 0.37902 0.12143 0.03445 0.0
H1234 H 0.38261 0.15132 0.03614 0.0
H1235 H 0.38029 0.1786 0.02377 0.0
H1236 H 0.36632 0.18482 0.97236 0.0
H1237 H 0.36736 0.15439 0.96906 0.0
C1238 C 0.37259 0.13156 0.99366 0.0
C1239 C 0.37372 0.1214 1.00804 0.0
C1240 C 0.3736 0.14905 0.99475 0.0
C1241 C 0.37785 0.12881 0.02318 0.0
C1242 C 0.37981 0.14598 0.02418 0.0
C1243 C 0.37767 0.17351 0.01165 0.0
C1244 C 0.37338 0.18419 0.99825 0.0
C1245 C 0.37727 0.1562 0.01018 0.0
C1246 C 0.3698 0.17703 0.98285 0.0
C1247 C 0.3703 0.15961 0.98102 0.0
H1248 H 0.84738 0.42457 0.13587 0.0
H1249 H 0.88769 0.40333 0.1073 0.0
H1250 H 0.89997 0.43052 0.10366 0.0
H1251 H 0.89341 0.46049 0.10072 0.0
H1252 H 0.85668 0.48208 0.13289 0.0
H1253 H 0.84943 0.45475 0.14375 0.0
C1254 C 0.85928 0.42572 0.12963 0.0
C1255 C 0.86601 0.41205 0.12099 0.0
C1256 C 0.86676 0.44152 0.12789 0.0
C1257 C 0.88178 0.41378 0.11343 0.0
C1258 C 0.88889 0.42938 0.11127 0.0
C1259 C 0.88468 0.45942 0.11099 0.0
C1260 C 0.87429 0.47301 0.11467 0.0
C1261 C 0.88069 0.44349 0.11725 0.0
C1262 C 0.86411 0.47156 0.12894 0.0
C1263 C 0.85956 0.45578 0.1349 0.0
H1264 H 0.9666 0.61495 0.3695 0.0
H1265 H 0.94078 0.57416 0.39291 0.0
H1266 H 0.91496 0.59039 0.39247 0.0
H1267 H 0.89883 0.61364 0.37987 0.0
H1268 H 0.9238 0.64978 0.34924 0.0
H1269 H 0.95062 0.63923 0.35913 0.0
C1270 C 0.95532 0.60966 0.37464 0.0
C1271 C 0.95549 0.59306 0.38051 0.0
C1272 C 0.94022 0.6184 0.37282 0.0
C1273 C 0.94099 0.5867 0.38789 0.0
C1274 C 0.92615 0.59594 0.38746 0.0
C1275 C 0.91014 0.61869 0.3748 0.0
C1276 C 0.90926 0.63154 0.36281 0.0
C1277 C 0.92544 0.61125 0.37887 0.0
C1278 C 0.92403 0.6394 0.35792 0.0
C1279 C 0.93939 0.63326 0.36348 0.0
H1280 H 0.72454 0.62021 0.60847 0.0
H1281 H 0.72441 0.63736 0.55764 0.0
H1282 H 0.72521 0.66619 0.56685 0.0
H1283 H 0.72988 0.68595 0.58902 0.0
H1284 H 0.73249 0.66927 0.63997 0.0
H1285 H 0.72674 0.64085 0.63119 0.0
C1286 C 0.72432 0.63033 0.59949 0.0
C1287 C 0.72476 0.62661 0.58241 0.0
C1288 C 0.72547 0.64693 0.60492 0.0
C1289 C 0.7242 0.63981 0.57084 0.0
C1290 C 0.72484 0.65632 0.57612 0.0
C1291 C 0.7289 0.67637 0.59835 0.0
C1292 C 0.73158 0.68001 0.61524 0.0
C1293 C 0.72614 0.65998 0.5931 0.0
C1294 C 0.73059 0.66691 0.6269 0.0
C1295 C 0.72728 0.65063 0.62186 0.0
H1296 H 0.91627 0.47009 0.26746 0.0
H1297 H 0.92055 0.4874 0.21665 0.0
H1298 H 0.89033 0.48573 0.21375 0.0
H1299 H 0.86259 0.48443 0.22749 0.0
H1300 H 0.85956 0.47313 0.27984 0.0
H1301 H 0.88917 0.46669 0.28024 0.0
C1302 C 0.91072 0.4733 0.2556 0.0
C1303 C 0.92073 0.47923 0.24237 0.0
C1304 C 0.8934 0.47356 0.25446 0.0
C1305 C 0.91321 0.48295 0.22707 0.0
C1306 C 0.89589 0.48215 0.22549 0.0
C1307 C 0.86854 0.48072 0.23897 0.0
C1308 C 0.85906 0.48013 0.25375 0.0
C1309 C 0.88585 0.47836 0.23939 0.0
C1310 C 0.86655 0.47405 0.26833 0.0
C1311 C 0.88355 0.47052 0.2686 0.0
H1312 H 0.70071 0.64292 0.72954 0.0
H1313 H 0.71221 0.59183 0.74093 0.0
H1314 H 0.68642 0.58293 0.72939 0.0
H1315 H 0.65848 0.58982 0.72068 0.0
H1316 H 0.64405 0.64099 0.71396 0.0
H1317 H 0.67283 0.64965 0.7176 0.0
C1318 C 0.69765 0.62984 0.72917 0.0
C1319 C 0.7089 0.61797 0.73574 0.0
C1320 C 0.68209 0.62481 0.72292 0.0
C1321 C 0.70442 0.60116 0.73549 0.0
C1322 C 0.68943 0.59603 0.72889 0.0
C1323 C 0.66182 0.60278 0.71896 0.0
C1324 C 0.64912 0.6147 0.71707 0.0
C1325 C 0.67798 0.60775 0.72295 0.0
C1326 C 0.65361 0.6315 0.71521 0.0
C1327 C 0.67002 0.6365 0.71787 0.0
H1328 H 0.48605 0.84183 0.62751 0.0
H1329 H 0.51261 0.88748 0.62207 0.0
H1330 H 0.50671 0.89342 0.65144 0.0
H1331 H 0.49595 0.88376 0.67901 0.0
H1332 H 0.46733 0.83873 0.682 0.0
H1333 H 0.47032 0.83527 0.65209 0.0
C1334 C 0.48945 0.85365 0.63179 0.0
C1335 C 0.49911 0.86434 0.62181 0.0
C1336 C 0.48535 0.85721 0.64831 0.0
C1337 C 0.505 0.87892 0.62919 0.0
C1338 C 0.50153 0.88238 0.646 0.0
C1339 C 0.48976 0.87357 0.673 0.0
C1340 C 0.48146 0.86145 0.68282 0.0
C1341 C 0.49189 0.87142 0.65574 0.0
C1342 C 0.47359 0.84831 0.67484 0.0
C1343 C 0.4756 0.84616 0.65775 0.0
H1344 H 0.47513 0.25845 0.94439 0.0
H1345 H 0.50791 0.21641 0.95253 0.0
H1346 H 0.50725 0.21031 0.92283 0.0
H1347 H 0.50434 0.2219 0.89474 0.0
H1348 H 0.47731 0.26784 0.88706 0.0
H1349 H 0.46809 0.26713 0.91607 0.0
C1350 C 0.48181 0.24765 0.93979 0.0
C1351 C 0.49204 0.23821 0.95067 0.0
C1352 C 0.48253 0.24513 0.92257 0.0
C1353 C 0.50014 0.22402 0.9445 0.0
C1354 C 0.4999 0.22066 0.92745 0.0
C1355 C 0.4959 0.23145 0.89926 0.0
C1356 C 0.49196 0.24522 0.88887 0.0
C1357 C 0.49218 0.23188 0.91632 0.0
C1358 C 0.48068 0.25722 0.89475 0.0
C1359 C 0.47569 0.25696 0.91147 0.0
H1360 H 0.11958 0.23272 0.13612 0.0
H1361 H 0.07124 0.21045 0.13905 0.0
H1362 H 0.07183 0.21214 0.16924 0.0
H1363 H 0.08377 0.22364 0.19409 0.0
H1364 H 0.12929 0.2514 0.19131 0.0
H1365 H 0.1322 0.24405 0.16183 0.0
C1366 C 0.109 0.22873 0.14335 0.0
C1367 C 0.09498 0.22242 0.13515 0.0
C1368 C 0.10895 0.23076 0.16074 0.0
C1369 C 0.082 0.21582 0.14484 0.0
C1370 C 0.08231 0.21683 0.16216 0.0
C1371 C 0.09451 0.22802 0.18719 0.0
C1372 C 0.10621 0.2383 0.19499 0.0
C1373 C 0.09538 0.22486 0.17013 0.0
C1374 C 0.12012 0.24347 0.18576 0.0
C1375 C 0.12164 0.23943 0.16883 0.0
H1376 H 0.10868 0.84533 0.44307 0.0
H1377 H 0.09136 0.89522 0.43316 0.0
H1378 H 0.10156 0.89308 0.40449 0.0
H1379 H 0.11386 0.8762 0.38181 0.0
H1380 H 0.12949 0.82577 0.39203 0.0
H1381 H 0.12242 0.82922 0.42137 0.0
C1382 C 0.10735 0.85588 0.43496 0.0
C1383 C 0.09926 0.87044 0.44055 0.0
C1384 C 0.11305 0.85443 0.41847 0.0
C1385 C 0.09743 0.8838 0.42929 0.0
C1386 C 0.10332 0.8826 0.41289 0.0
C1387 C 0.11559 0.86595 0.39049 0.0
C1388 C 0.12144 0.85052 0.38454 0.0
C1389 C 0.11088 0.86785 0.40727 0.0
C1390 C 0.12466 0.83767 0.39609 0.0
C1391 C 0.12047 0.8396 0.41288 0.0
H1392 H 0.7205 0.48512 0.8813 0.0
H1393 H 0.70803 0.44259 0.85241 0.0
H1394 H 0.68162 0.44029 0.86717 0.0
H1395 H 0.65886 0.45761 0.87772 0.0
H1396 H 0.6693 0.50563 0.89788 0.0
H1397 H 0.69891 0.49888 0.89808 0.0
C1398 C 0.71231 0.47486 0.87889 0.0
C1399 C 0.7157 0.46473 0.86504 0.0
C1400 C 0.69611 0.47537 0.88553 0.0
C1401 C 0.70552 0.45092 0.86262 0.0
C1402 C 0.69013 0.44993 0.87078 0.0
C1403 C 0.66761 0.46619 0.88306 0.0
C1404 C 0.66203 0.4824 0.88695 0.0
C1405 C 0.68466 0.46318 0.88075 0.0
C1406 C 0.67326 0.49323 0.89439 0.0
C1407 C 0.69031 0.48951 0.89405 0.0
H1408 H 0.74981 0.39408 0.99305 0.0
H1409 H 0.74702 0.38566 0.94075 0.0
H1410 H 0.73363 0.4133 0.93742 0.0
H1411 H 0.7246 0.4404 0.95068 0.0
H1412 H 0.71876 0.44166 1.00395 0.0
H1413 H 0.73103 0.4142 1.00625 0.0
C1414 C 0.7445 0.39683 0.98122 0.0
C1415 C 0.74824 0.38679 0.96757 0.0
C1416 C 0.73474 0.41119 0.97974 0.0
C1417 C 0.74406 0.39289 0.95167 0.0
C1418 C 0.73611 0.40854 0.9498 0.0
C1419 C 0.72474 0.43412 0.96267 0.0
C1420 C 0.72153 0.44343 0.97725 0.0
C1421 C 0.73133 0.4178 0.96388 0.0
C1422 C 0.72139 0.43498 0.99258 0.0
C1423 C 0.72893 0.41939 0.99396 0.0
H1424 H 0.87488 0.72069 0.46722 0.0
H1425 H 0.82378 0.70861 0.45857 0.0
H1426 H 0.82994 0.67919 0.46365 0.0
H1427 H 0.84877 0.6578 0.47483 0.0
H1428 H 0.89947 0.66968 0.48571 0.0
H1429 H 0.89463 0.69825 0.47584 0.0
C1430 C 0.8651 0.71156 0.46662 0.0
C1431 C 0.84869 0.717 0.46368 0.0
C1432 C 0.86864 0.6947 0.47027 0.0
C1433 C 0.83641 0.70494 0.46144 0.0
C1434 C 0.8399 0.68809 0.4645 0.0
C1435 C 0.85885 0.66645 0.47488 0.0
C1436 C 0.87446 0.66146 0.48111 0.0
C1437 C 0.85578 0.68296 0.46969 0.0
C1438 C 0.88728 0.67317 0.4812 0.0
C1439 C 0.8845 0.68951 0.47552 0.0
H1440 H 0.02447 0.32874 0.19137 0.0
H1441 H 0.00866 0.2762 0.21878 0.0
H1442 H 0.02634 0.27259 0.20539 0.0
H1443 H 0.05984 0.25387 0.17241 0.0
H1444 H 0.06269 0.29272 0.13087 0.0
H1445 H 0.04933 0.3091 0.16148 0.0
C1446 C 0.02766 0.31564 0.19197 0.0
C1447 C 0.01549 0.30275 0.20516 0.0
C1448 C 0.04496 0.30788 0.18012 0.0
C1449 C 0.01865 0.28044 0.20892 0.0
C1450 C 0.03582 0.26764 0.19935 0.0
C1451 C 0.05791 0.26705 0.17023 0.0
C1452 C 0.06187 0.27388 0.15223 0.0
C1453 C 0.05055 0.27705 0.18513 0.0
C1454 C 0.05902 0.29139 0.14379 0.0
C1455 C 0.05252 0.3078 0.1519 0.0
H1456 H 0.09346 0.79606 0.41116 0.0
H1457 H 0.04873 0.81999 0.37913 0.0
H1458 H 0.02521 0.79874 0.38906 0.0
H1459 H 0.03119 0.75714 0.42554 0.0
H1460 H 0.07469 0.75733 0.45456 0.0
H1461 H 0.09098 0.773 0.43445 0.0
C1462 C 0.0805 0.79448 0.40818 0.0
C1463 C 0.07205 0.80892 0.3945 0.0
C1464 C 0.07049 0.77884 0.41858 0.0
C1465 C 0.05229 0.81022 0.38774 0.0
C1466 C 0.03766 0.7967 0.39412 0.0
C1467 C 0.04344 0.7624 0.42653 0.0
C1468 C 0.05151 0.75842 0.44126 0.0
C1469 C 0.04986 0.77495 0.41545 0.0
C1470 C 0.0686 0.76149 0.44328 0.0
C1471 C 0.07807 0.77065 0.43181 0.0
H1472 H 0.55521 0.79858 0.70609 0.0
H1473 H 0.5928 0.7863 0.67111 0.0
H1474 H 0.5791 0.79987 0.6477 0.0
H1475 H 0.5523 0.80972 0.63168 0.0
H1476 H 0.49668 0.81271 0.65393 0.0
H1477 H 0.50445 0.80767 0.68557 0.0
C1478 C 0.55842 0.79878 0.69301 0.0
C1479 C 0.57347 0.79081 0.68912 0.0
C1480 C 0.54714 0.80412 0.68014 0.0
C1481 C 0.58074 0.79201 0.67321 0.0
C1482 C 0.57292 0.79983 0.65968 0.0
C1483 C 0.54525 0.80907 0.64316 0.0
C1484 C 0.5239 0.81122 0.64142 0.0
C1485 C 0.55652 0.80521 0.66085 0.0
C1486 C 0.50965 0.81071 0.65677 0.0
C1487 C 0.51487 0.808 0.67677 0.0
H1488 H 0.55517 0.32009 0.96241 0.0
H1489 H 0.56557 0.35856 0.92762 0.0
H1490 H 0.55442 0.34394 0.90394 0.0
H1491 H 0.5494 0.31634 0.8877 0.0
H1492 H 0.55363 0.26068 0.90973 0.0
H1493 H 0.55523 0.26865 0.94176 0.0
C1494 C 0.55542 0.32325 0.9493 0.0
C1495 C 0.56228 0.33873 0.94547 0.0
C1496 C 0.55248 0.31151 0.93635 0.0
C1497 C 0.56095 0.34609 0.9296 0.0
C1498 C 0.55457 0.33774 0.91594 0.0
C1499 C 0.55057 0.30939 0.89922 0.0
C1500 C 0.55195 0.28807 0.89743 0.0
C1501 C 0.55135 0.32083 0.91699 0.0
C1502 C 0.55361 0.27375 0.91275 0.0
C1503 C 0.55399 0.27901 0.9329 0.0
H1504 H 0.07259 0.81866 0.42358 0.0
H1505 H 0.03278 0.82024 0.45805 0.0
H1506 H 0.01457 0.80277 0.44204 0.0
H1507 H 0.00848 0.78092 0.41938 0.0
H1508 H 0.04613 0.75986 0.37747 0.0
H1509 H 0.07132 0.78048 0.38385 0.0
C1510 C 0.06044 0.81367 0.42636 0.0
C1511 C 0.05391 0.81883 0.44154 0.0
C1512 C 0.05211 0.80178 0.4161 0.0
C1513 C 0.03748 0.81529 0.44644 0.0
C1514 C 0.02689 0.8053 0.43728 0.0
C1515 C 0.02061 0.78272 0.41385 0.0
C1516 C 0.02621 0.76946 0.39788 0.0
C1517 C 0.0324 0.79753 0.42294 0.0
C1518 C 0.04434 0.76889 0.38719 0.0
C1519 C 0.06006 0.78195 0.39141 0.0
H1520 H 0.53603 0.78172 0.63763 0.0
H1521 H 0.53989 0.74327 0.67381 0.0
H1522 H 0.52754 0.75921 0.69602 0.0
H1523 H 0.52367 0.7875 0.71161 0.0
H1524 H 0.53281 0.8423 0.6891 0.0
H1525 H 0.53663 0.83354 0.65739 0.0
C1526 C 0.53465 0.77886 0.65073 0.0
C1527 C 0.54039 0.76302 0.6554 0.0
C1528 C 0.53106 0.79113 0.66326 0.0
C1529 C 0.53633 0.75602 0.67105 0.0
C1530 C 0.52937 0.76518 0.68404 0.0
C1531 C 0.52651 0.79409 0.70016 0.0
C1532 C 0.52887 0.81531 0.70175 0.0
C1533 C 0.5279 0.7823 0.68264 0.0
C1534 C 0.53259 0.82916 0.68634 0.0
C1535 C 0.53417 0.82347 0.66632 0.0
H1536 H 0.5702 0.29046 0.96886 0.0
H1537 H 0.51646 0.29226 0.94339 0.0
H1538 H 0.52678 0.29737 0.91216 0.0
H1539 H 0.57941 0.30375 0.89525 0.0
H1540 H 0.61414 0.31266 0.93328 0.0
H1541 H 0.59854 0.29842 0.9549 0.0
C1542 C 0.56413 0.29218 0.957 0.0
C1543 C 0.54278 0.2917 0.95738 0.0
C1544 C 0.57682 0.29538 0.94017 0.0
C1545 C 0.52966 0.29357 0.94127 0.0
C1546 C 0.53645 0.29613 0.9216 0.0
C1547 C 0.58146 0.30281 0.9085 0.0
C1548 C 0.59595 0.31035 0.91396 0.0
C1549 C 0.56906 0.29751 0.92033 0.0
C1550 C 0.60222 0.30754 0.93005 0.0
C1551 C 0.5933 0.2994 0.94259 0.0
H1552 H 0.01108 0.30529 0.15526 0.0
H1553 H 0.0531 0.34856 0.16648 0.0
H1554 H 0.06267 0.3284 0.16974 0.0
H1555 H 0.08712 0.29712 0.19153 0.0
H1556 H 0.04034 0.29647 0.21818 0.0
H1557 H 0.01238 0.28646 0.18056 0.0
C1558 C 0.02378 0.307 0.15915 0.0
C1559 C 0.0317 0.32782 0.16089 0.0
C1560 C 0.03583 0.28879 0.16445 0.0
C1561 C 0.05276 0.33396 0.16702 0.0
C1562 C 0.07065 0.31925 0.17212 0.0
C1563 C 0.07378 0.29661 0.19007 0.0
C1564 C 0.06268 0.29601 0.20531 0.0
C1565 C 0.06775 0.29636 0.17251 0.0
C1566 C 0.04364 0.29501 0.20496 0.0
C1567 C 0.02583 0.2885 0.1815 0.0
H1568 H 0.1695 0.08175 0.30657 0.0
H1569 H 0.13324 0.04493 0.28069 0.0
H1570 H 0.16059 0.02382 0.28576 0.0
H1571 H 0.1943 0.01912 0.31051 0.0
H1572 H 0.20711 0.06668 0.34681 0.0
H1573 H 0.18821 0.09102 0.33197 0.0
C1574 C 0.15742 0.08402 0.30281 0.0
C1575 C 0.14201 0.07174 0.29338 0.0
C1576 C 0.17774 0.07609 0.30709 0.0
C1577 C 0.1439 0.05017 0.28674 0.0
C1578 C 0.16179 0.03682 0.28877 0.0
C1579 C 0.19358 0.03249 0.31162 0.0
C1580 C 0.20301 0.04197 0.32926 0.0
C1581 C 0.18074 0.04369 0.29746 0.0
C1582 C 0.20102 0.06328 0.33542 0.0
C1583 C 0.18952 0.07928 0.32565 0.0
H1584 H 0.33299 0.90803 0.56188 0.0
H1585 H 0.31739 0.95906 0.55787 0.0
H1586 H 0.29623 0.95139 0.53766 0.0
H1587 H 0.27862 0.92971 0.52555 0.0
H1588 H 0.28914 0.87809 0.5361 0.0
H1589 H 0.31474 0.88593 0.55031 0.0
C1590 C 0.32413 0.91722 0.55747 0.0
C1591 C 0.32562 0.93379 0.56259 0.0
C1592 C 0.31068 0.91246 0.54751 0.0
C1593 C 0.31573 0.94607 0.55495 0.0
C1594 C 0.30364 0.94166 0.54343 0.0
C1595 C 0.28639 0.92016 0.53122 0.0
C1596 C 0.28169 0.90335 0.53028 0.0
C1597 C 0.30031 0.92483 0.54046 0.0
C1598 C 0.29218 0.89111 0.53714 0.0
C1599 C 0.30685 0.89561 0.54518 0.0
H1600 H 0.39077 0.08279 0.77496 0.0
H1601 H 0.38611 0.05764 0.82962 0.0
H1602 H 0.40874 0.03406 0.82532 0.0
H1603 H 0.43852 0.02501 0.78053 0.0
H1604 H 0.43478 0.05779 0.73913 0.0
H1605 H 0.41203 0.07415 0.75096 0.0
C1606 C 0.39554 0.07278 0.7827 0.0
C1607 C 0.38729 0.07129 0.80264 0.0
C1608 C 0.41098 0.0607 0.77406 0.0
C1609 C 0.39225 0.0573 0.81763 0.0
C1610 C 0.40666 0.04246 0.8147 0.0
C1611 C 0.43238 0.03588 0.77563 0.0
C1612 C 0.43782 0.04089 0.75988 0.0
C1613 C 0.41986 0.04446 0.78488 0.0
C1614 C 0.43033 0.05444 0.75143 0.0
C1615 C 0.41719 0.06393 0.75817 0.0
H1616 H 0.30861 0.21271 0.05232 0.0
H1617 H 0.35291 0.18473 0.04248 0.0
H1618 H 0.3447 0.15874 0.04634 0.0
H1619 H 0.3017 0.13077 0.06024 0.0
H1620 H 0.25887 0.157 0.07371 0.0
H1621 H 0.26716 0.18153 0.06317 0.0
C1622 C 0.31164 0.1993 0.05258 0.0
C1623 C 0.33006 0.199 0.04815 0.0
C1624 C 0.29433 0.17529 0.05804 0.0
C1625 C 0.34005 0.18359 0.04644 0.0
C1626 C 0.33346 0.16631 0.04874 0.0
C1627 C 0.29665 0.14325 0.06119 0.0
C1628 C 0.28131 0.14329 0.06922 0.0
C1629 C 0.30538 0.15867 0.05621 0.0
C1630 C 0.2714 0.15734 0.06868 0.0
C1631 C 0.27699 0.17228 0.0626 0.0
H1632 H 0.21385 0.06041 0.30982 0.0
H1633 H 0.18763 0.07208 0.26509 0.0
H1634 H 0.16152 0.06749 0.27236 0.0
H1635 H 0.13214 0.0512 0.31373 0.0
H1636 H 0.15654 0.03386 0.35589 0.0
H1637 H 0.18099 0.04656 0.34969 0.0
C1638 C 0.20061 0.06032 0.30644 0.0
C1639 C 0.20099 0.06565 0.28813 0.0
C1640 C 0.17612 0.0534 0.32263 0.0
C1641 C 0.18601 0.06781 0.27785 0.0
C1642 C 0.16861 0.06469 0.28374 0.0
C1643 C 0.14442 0.04971 0.31897 0.0
C1644 C 0.14413 0.03992 0.33328 0.0
C1645 C 0.15997 0.0555 0.31109 0.0
C1646 C 0.15754 0.03989 0.3438 0.0
C1647 C 0.17235 0.04734 0.33949 0.0
H1648 H 0.25339 0.93163 0.54906 0.0
H1649 H 0.28135 0.97035 0.57227 0.0
H1650 H 0.2952 0.94993 0.59005 0.0
H1651 H 0.30376 0.92085 0.59436 0.0
H1652 H 0.27529 0.88168 0.57285 0.0
H1653 H 0.25692 0.90233 0.55956 0.0
C1654 C 0.26228 0.93554 0.55825 0.0
C1655 C 0.26689 0.95236 0.55888 0.0
C1656 C 0.27017 0.92364 0.5687 0.0
C1657 C 0.27791 0.9574 0.57128 0.0
C1658 C 0.28584 0.94574 0.58149 0.0
C1659 C 0.2932 0.91686 0.58718 0.0
C1660 C 0.29107 0.89987 0.58421 0.0
C1661 C 0.2828 0.92877 0.57957 0.0
C1662 C 0.2772 0.89475 0.5752 0.0
C1663 C 0.26679 0.90658 0.56748 0.0
H1664 H 0.45844 0.05447 0.8179 0.0
H1665 H 0.43605 0.10191 0.80665 0.0
H1666 H 0.41035 0.09157 0.80046 0.0
H1667 H 0.38177 0.04686 0.78527 0.0
H1668 H 0.4217 1.00574 0.80117 0.0
H1669 H 0.44481 0.02558 0.81318 0.0
C1670 C 0.44778 0.06141 0.81335 0.0
C1671 C 0.44868 0.07877 0.81141 0.0
C1672 C 0.43347 0.05289 0.80925 0.0
C1673 C 0.435 0.08847 0.80669 0.0
C1674 C 0.41954 0.08205 0.80317 0.0
C1675 C 0.39371 0.04448 0.79134 0.0
C1676 C 0.4 0.02428 0.79261 0.0
C1677 C 0.4167 0.06441 0.80257 0.0
C1678 C 0.41849 0.01883 0.80136 0.0
C1679 C 0.43361 0.03171 0.80887 0.0
H1680 H 0.30542 0.1917 0.09326 0.0
H1681 H 0.27231 0.20818 0.04362 0.0
H1682 H 0.28804 0.1889 0.01998 0.0
H1683 H 0.31114 0.15494 0.01576 0.0
H1684 H 0.334 0.12982 0.06775 0.0
H1685 H 0.32893 0.15655 0.08919 0.0
C1686 C 0.30479 0.19133 0.07986 0.0
C1687 C 0.28803 0.20207 0.06952 0.0
C1688 C 0.31906 0.17823 0.06922 0.0
C1689 C 0.28306 0.20112 0.0477 0.0
C1690 C 0.29354 0.18951 0.03216 0.0
C1691 C 0.31489 0.15725 0.02839 0.0
C1692 C 0.32328 0.14058 0.04044 0.0
C1693 C 0.31113 0.17709 0.03637 0.0
C1694 C 0.32884 0.14111 0.06239 0.0
C1695 C 0.32673 0.15852 0.07608 0.0
H1696 H 0.78891 0.44315 0.00939 0.0
H1697 H 0.75486 0.45157 0.04865 0.0
H1698 H 0.7665 0.43036 0.06704 0.0
H1699 H 0.7889 0.4073 0.07592 0.0
H1700 H 0.83656 0.38928 0.04374 0.0
H1701 H 0.8306 0.40797 0.017 0.0
C1702 C 0.78574 0.43967 0.02199 0.0
C1703 C 0.77221 0.44842 0.02835 0.0
C1704 C 0.79465 0.42713 0.03133 0.0
C1705 C 0.76563 0.44469 0.04429 0.0
C1706 C 0.77223 0.43241 0.055 0.0
C1707 C 0.79489 0.40866 0.06392 0.0
C1708 C 0.81289 0.3969 0.06081 0.0
C1709 C 0.78614 0.42307 0.05055 0.0
C1710 C 0.8254 0.39687 0.04388 0.0
C1711 C 0.82156 0.40899 0.02718 0.0
H1712 H 0.87582 0.54007 0.30093 0.0
H1713 H 0.90799 0.50548 0.27554 0.0
H1714 H 0.92967 0.50994 0.29635 0.0
H1715 H 0.94098 0.52738 0.31899 0.0
H1716 H 0.90915 0.56326 0.34284 0.0
H1717 H 0.88584 0.55479 0.32548 0.0
C1718 C 0.88769 0.53367 0.29984 0.0
C1719 C 0.89059 0.52297 0.28634 0.0
C1720 C 0.9002 0.53676 0.31147 0.0
C1721 C 0.90575 0.5143 0.28539 0.0
C1722 C 0.91804 0.51672 0.29741 0.0
C1723 C 0.92884 0.53311 0.32054 0.0
C1724 C 0.92683 0.54645 0.33166 0.0
C1725 C 0.91568 0.5285 0.31008 0.0
C1726 C 0.91103 0.55351 0.33385 0.0
C1727 C 0.89775 0.54859 0.32399 0.0
H1728 H 0.82617 0.67376 0.51664 0.0
H1729 H 0.8304 0.638 0.55525 0.0
H1730 H 0.81257 0.65288 0.57469 0.0
H1731 H 0.78923 0.67447 0.58214 0.0
H1732 H 0.76477 0.71602 0.54587 0.0
H1733 H 0.78527 0.71125 0.51993 0.0
C1734 C 0.82155 0.67036 0.52885 0.0
C1735 C 0.82757 0.65511 0.53468 0.0
C1736 C 0.80915 0.67976 0.53781 0.0
C1737 C 0.82475 0.64959 0.55112 0.0
C1738 C 0.81453 0.6581 0.56239 0.0
C1739 C 0.79053 0.68034 0.57005 0.0
C1740 C 0.7761 0.69571 0.56514 0.0
C1741 C 0.80575 0.67226 0.55755 0.0
C1742 C 0.77447 0.70673 0.54722 0.0
C1743 C 0.78749 0.70353 0.53101 0.0
H1744 H 0.92454 0.54117 0.26836 0.0
H1745 H 0.96907 0.54419 0.29727 0.0
H1746 H 0.95888 0.57028 0.3095 0.0
H1747 H 0.9343 0.58901 0.31621 0.0
H1748 H 0.88774 0.57996 0.29246 0.0
H1749 H 0.90112 0.55968 0.27414 0.0
C1750 C 0.93197 0.54736 0.27757 0.0
C1751 C 0.94752 0.54057 0.28214 0.0
C1752 C 0.92513 0.56103 0.28597 0.0
C1753 C 0.95706 0.54904 0.29374 0.0
C1754 C 0.95106 0.56383 0.30086 0.0
C1755 C 0.92712 0.58204 0.30742 0.0
C1756 C 0.90992 0.585 0.30641 0.0
C1757 C 0.93466 0.56934 0.29788 0.0
C1758 C 0.90088 0.57736 0.29385 0.0
C1759 C 0.90853 0.56579 0.2834 0.0
H1760 H 0.72144 0.54065 0.79596 0.0
H1761 H 0.68404 0.49643 0.78704 0.0
H1762 H 0.65955 0.51364 0.77241 0.0
H1763 H 0.64357 0.54168 0.76542 0.0
H1764 H 0.66391 0.59067 0.76917 0.0
H1765 H 0.69035 0.58186 0.77484 0.0
C1766 C 0.70963 0.53706 0.7904 0.0
C1767 C 0.70473 0.51674 0.79216 0.0
C1768 C 0.68544 0.55449 0.77693 0.0
C1769 C 0.68652 0.50941 0.78456 0.0
C1770 C 0.67048 0.52066 0.77546 0.0
C1771 C 0.65418 0.54936 0.76803 0.0
C1772 C 0.65227 0.56683 0.76841 0.0
C1773 C 0.66928 0.5417 0.77216 0.0
C1774 C 0.66573 0.57733 0.77053 0.0
C1775 C 0.68166 0.5718 0.77385 0.0
H1776 H 0.83013 0.46289 0.02865 0.0
H1777 H 0.82789 0.44874 0.08026 0.0
H1778 H 0.81887 0.42248 0.07587 0.0
H1779 H 0.79103 0.39001 0.04137 0.0
H1780 H 0.80349 0.41895 0.99106 0.0
H1781 H 0.82148 0.44363 1.00356 0.0
C1782 C 0.82747 0.45342 0.03792 0.0
C1783 C 0.82787 0.45744 0.05495 0.0
C1784 C 0.82172 0.43786 0.03284 0.0
C1785 C 0.82578 0.44544 0.06739 0.0
C1786 C 0.82031 0.4296 0.06454 0.0
C1787 C 0.7975 0.40061 0.0357 0.0
C1788 C 0.79562 0.40284 0.01495 0.0
C1789 C 0.81537 0.42442 0.0483 0.0
C1790 C 0.80536 0.41854 1.00435 0.0
C1791 C 0.81721 0.43438 0.01242 0.0
H1792 H 0.76567 0.66764 0.5601 0.0
H1793 H 0.76679 0.63976 0.51588 0.0
H1794 H 0.78097 0.66083 0.49952 0.0
H1795 H 0.80225 0.68524 0.49671 0.0
H1796 H 0.82464 0.71763 0.5412 0.0
H1797 H 0.80463 0.70604 0.56536 0.0
C1798 C 0.77074 0.66717 0.54764 0.0
C1799 C 0.76745 0.65251 0.53936 0.0
C1800 C 0.78242 0.67894 0.54099 0.0
C1801 C 0.77038 0.65103 0.52211 0.0
C1802 C 0.77869 0.66306 0.51258 0.0
C1803 C 0.80076 0.68785 0.5098 0.0
C1804 C 0.8143 0.70211 0.51799 0.0
C1805 C 0.78613 0.67646 0.52016 0.0
C1806 C 0.81551 0.70852 0.53786 0.0
C1807 C 0.80277 0.70112 0.55288 0.0
H1808 H 0.66545 0.51714 0.80456 0.0
H1809 H 0.67035 0.55308 0.84218 0.0
H1810 H 0.69058 0.56966 0.82718 0.0
H1811 H 0.71016 0.57697 0.80163 0.0
H1812 H 0.71602 0.54642 0.75045 0.0
H1813 H 0.69495 0.5221 0.75837 0.0
C1814 C 0.67158 0.52846 0.80788 0.0
C1815 C 0.66711 0.53428 0.82354 0.0
C1816 C 0.68354 0.53662 0.79725 0.0
C1817 C 0.6741 0.54893 0.82995 0.0
C1818 C 0.68583 0.55862 0.82138 0.0
C1819 C 0.70609 0.56595 0.79531 0.0
C1820 C 0.71441 0.56259 0.7756 0.0
C1821 C 0.69154 0.55427 0.80569 0.0
C1822 C 0.71023 0.54681 0.7626 0.0
C1823 C 0.69664 0.53172 0.76772 0.0
H1824 H 0.01026 0.40478 0.22402 0.0
H1825 H 0.01141 0.38364 0.27344 0.0
H1826 H 1.00396 0.41065 0.28513 0.0
H1827 H 0.99368 0.43971 0.28103 0.0
H1828 H 0.99359 0.4606 0.23138 0.0
H1829 H 1.00403 0.43453 0.2203 0.0
C1830 C 0.0093 0.40614 0.23738 0.0
C1831 C 0.01134 0.39206 0.24776 0.0
C1832 C 1.00488 0.42175 0.24406 0.0
C1833 C 0.01003 0.39419 0.26508 0.0
C1834 C 1.00558 0.40967 0.2718 0.0
C1835 C 0.99622 0.43866 0.26784 0.0
C1836 C 0.99257 0.4522 0.25712 0.0
C1837 C 1.00243 0.42345 0.26138 0.0
C1838 C 0.9961 0.45049 0.24003 0.0
C1839 C 1.00208 0.4355 0.2336 0.0
H1840 H 0.96181 0.73236 0.48334 0.0
H1841 H 0.95482 0.78542 0.48231 0.0
H1842 H 0.9261 0.78199 0.49256 0.0
H1843 H 0.90252 0.76331 0.50039 0.0
H1844 H 0.91093 0.71022 0.50147 0.0
H1845 H 0.93965 0.71421 0.49287 0.0
C1846 C 0.95396 0.74318 0.48516 0.0
C1847 C 0.96025 0.75907 0.4816 0.0
C1848 C 0.93778 0.74106 0.4913 0.0
C1849 C 0.95016 0.77304 0.48471 0.0
C1850 C 0.93378 0.77104 0.49062 0.0
C1851 C 0.91077 0.75267 0.49914 0.0
C1852 C 0.90452 0.73645 0.50162 0.0
C1853 C 0.92739 0.75505 0.49386 0.0
C1854 C 0.91535 0.7228 0.49967 0.0
C1855 C 0.93177 0.72506 0.49463 0.0
H1856 H 0.58869 0.65713 0.77282 0.0
H1857 H 0.58622 0.63352 0.72504 0.0
H1858 H 0.57625 0.65931 0.7124 0.0
H1859 H 0.57153 0.6896 0.71411 0.0
H1860 H 0.57173 0.71296 0.76204 0.0
H1861 H 0.57884 0.6864 0.77533 0.0
C1862 C 0.58558 0.65754 0.75974 0.0
C1863 C 0.58836 0.64334 0.74994 0.0
C1864 C 0.57947 0.67248 0.75247 0.0
C1865 C 0.58417 0.64414 0.73298 0.0
C1866 C 0.57855 0.65898 0.72565 0.0
C1867 C 0.57263 0.68878 0.72752 0.0
C1868 C 0.57112 0.70332 0.73702 0.0
C1869 C 0.57659 0.67336 0.73516 0.0
C1870 C 0.57264 0.70198 0.7544 0.0
C1871 C 0.57691 0.68679 0.76202 0.0
H1872 H 0.70573 0.33801 0.01388 0.0
H1873 H 0.69768 0.3911 0.01033 0.0
H1874 H 0.66966 0.38677 1.00047 0.0
H1875 H 0.64822 0.36827 0.99066 0.0
H1876 H 0.65443 0.31523 0.99506 0.0
H1877 H 0.68235 0.31908 1.00675 0.0
C1878 C 0.69767 0.3486 0.01143 0.0
C1879 C 0.70393 0.36489 0.01286 0.0
C1880 C 0.68137 0.34603 1.00554 0.0
C1881 C 0.69329 0.37845 0.0094 0.0
C1882 C 0.67726 0.376 1.0036 0.0
C1883 C 0.65571 0.35753 0.9941 0.0
C1884 C 0.64952 0.3415 0.99159 0.0
C1885 C 0.67137 0.3599 1.00117 0.0
C1886 C 0.65909 0.32769 0.99663 0.0
C1887 C 0.675 0.32993 1.00336 0.0
H1888 H 0.95906 0.64589 0.32636 0.0
H1889 H 1.0027 0.61688 0.33822 0.0
H1890 H 0.0166 0.64174 0.34797 0.0
H1891 H 0.01514 0.67142 0.35623 0.0
H1892 H 0.97277 0.70098 0.34149 0.0
H1893 H 0.95972 0.67649 0.32976 0.0
C1894 C 0.97181 0.64514 0.33053 0.0
C1895 C 0.97982 0.62951 0.33144 0.0
C1896 C 0.97991 0.65962 0.3359 0.0
C1897 C 0.99631 0.62875 0.33708 0.0
C1898 C 1.00422 0.64297 0.3429 0.0
C1899 C 1.00323 0.67253 0.35011 0.0
C1900 C 0.99492 0.68801 0.3498 0.0
C1901 C 0.99598 0.65842 0.34284 0.0
C1902 C 0.97949 0.68925 0.34179 0.0
C1903 C 0.97196 0.67521 0.33515 0.0
H1904 H 0.67232 0.71567 0.57757 0.0
H1905 H 0.69722 0.75893 0.59586 0.0
H1906 H 0.67067 0.77075 0.60497 0.0
H1907 H 0.6405 0.76733 0.61065 0.0
H1908 H 0.61595 0.72414 0.59159 0.0
H1909 H 0.64197 0.71404 0.57988 0.0
C1910 C 0.67194 0.72784 0.58324 0.0
C1911 C 0.68687 0.73628 0.58607 0.0
C1912 C 0.65657 0.7346 0.58853 0.0
C1913 C 0.686 0.75209 0.59343 0.0
C1914 C 0.67077 0.75885 0.59878 0.0
C1915 C 0.64077 0.75592 0.60362 0.0
C1916 C 0.62616 0.7465 0.60222 0.0
C1917 C 0.65598 0.75002 0.59682 0.0
C1918 C 0.62689 0.73168 0.59304 0.0
C1919 C 0.64185 0.7258 0.58633 0.0
H1920 H 0.58217 0.40994 0.87537 0.0
H1921 H 0.607 0.38267 0.83646 0.0
H1922 H 0.6156 0.40869 0.82328 0.0
H1923 H 0.61955 0.4392 0.82507 0.0
H1924 H 0.59351 0.46633 0.86336 0.0
H1925 H 0.58189 0.44059 0.87423 0.0
C1926 C 0.58903 0.40967 0.86374 0.0
C1927 C 0.594 0.39425 0.85707 0.0
C1928 C 0.59402 0.42477 0.85617 0.0
C1929 C 0.6029 0.39426 0.84194 0.0
C1930 C 0.608 0.40921 0.83444 0.0
C1931 C 0.61101 0.43954 0.83553 0.0
C1932 C 0.60764 0.4548 0.84343 0.0
C1933 C 0.60417 0.42455 0.84177 0.0
C1934 C 0.59644 0.45488 0.85696 0.0
C1935 C 0.58981 0.44008 0.86331 0.0
H1936 H 0.93212 0.32461 0.13349 0.0
H1937 H 0.959 0.34048 0.08968 0.0
H1938 H 0.93293 0.3453 0.0751 0.0
H1939 H 0.90251 0.34941 0.07641 0.0
H1940 H 0.87578 0.33295 0.12014 0.0
H1941 H 0.90163 0.32378 0.13288 0.0
C1942 C 0.9323 0.32867 0.1206 0.0
C1943 C 0.94754 0.33239 0.11282 0.0
C1944 C 0.91721 0.33157 0.11228 0.0
C1945 C 0.9475 0.33754 0.09605 0.0
C1946 C 0.93254 0.34045 0.08771 0.0
C1947 C 0.90228 0.3434 0.08853 0.0
C1948 C 0.88716 0.34216 0.09736 0.0
C1949 C 0.9173 0.33817 0.09592 0.0
C1950 C 0.88716 0.33421 0.11303 0.0
C1951 C 0.90201 0.32902 0.12043 0.0
H1952 H 0.27399 1.00802 0.4686 0.0
H1953 H 0.26542 0.95713 0.45522 0.0
H1954 H 0.25977 0.96585 0.42653 0.0
H1955 H 0.25383 0.98819 0.40629 0.0
H1956 H 0.25842 0.03938 0.42077 0.0
H1957 H 0.26915 0.03041 0.44789 0.0
C1958 C 0.27145 0.9988 0.45924 0.0
C1959 C 0.27057 0.98188 0.46391 0.0
C1960 C 0.26721 1.00406 0.44302 0.0
C1961 C 0.26655 0.97015 0.45184 0.0
C1962 C 0.26314 0.97518 0.43548 0.0
C1963 C 0.25755 0.99741 0.41522 0.0
C1964 C 0.25549 0.01448 0.4114 0.0
C1965 C 0.26296 0.99213 0.43105 0.0
C1966 C 0.25998 0.02621 0.42332 0.0
C1967 C 0.26606 0.02106 0.43886 0.0
H1968 H 0.33313 0.95994 0.66477 0.0
H1969 H 0.35162 1.00134 0.63589 0.0
H1970 H 0.3607 0.01487 0.66124 0.0
H1971 H 0.36649 0.01333 0.69154 0.0
H1972 H 0.34722 0.97195 0.72004 0.0
H1973 H 0.33545 0.96026 0.69512 0.0
C1974 C 0.33877 0.97211 0.66401 0.0
C1975 C 0.34175 0.97947 0.64834 0.0
C1976 C 0.34415 0.9798 0.67867 0.0
C1977 C 0.34911 0.9953 0.64772 0.0
C1978 C 0.35447 1.00302 0.66225 0.0
C1979 C 0.35948 1.00192 0.69234 0.0
C1980 C 0.35799 0.99352 0.70774 0.0
C1981 C 0.35256 0.99514 0.67779 0.0
C1982 C 0.34874 0.97874 0.70844 0.0
C1983 C 0.34197 0.97196 0.69413 0.0
H1984 H 0.32453 0.09227 0.94398 0.0
H1985 H 0.35006 0.13919 0.94501 0.0
H1986 H 0.35901 0.13552 0.91634 0.0
H1987 H 0.3607 0.11864 0.89124 0.0
H1988 H 0.33426 0.07241 0.88909 0.0
H1989 H 0.32481 0.07602 0.9179 0.0
C1990 C 0.33178 0.10184 0.93783 0.0
C1991 C 0.33656 0.11601 0.94676 0.0
C1992 C 0.33705 0.09961 0.92121 0.0
C1993 C 0.3461 0.12818 0.93855 0.0
C1994 C 0.35137 0.12604 0.92213 0.0
C1995 C 0.35301 0.10924 0.89712 0.0
C1996 C 0.34847 0.09509 0.88811 0.0
C1997 C 0.3472 0.11168 0.91345 0.0
C1998 C 0.33812 0.08329 0.8958 0.0
C1999 C 0.33263 0.08542 0.91225 0.0
H2000 H 0.25175 0.0538 0.1963 0.0
H2001 H 0.28006 0.09129 0.22112 0.0
H2002 H 0.29155 0.10064 0.19462 0.0
H2003 H 0.29009 0.10117 0.16403 0.0
H2004 H 0.26199 0.06353 0.13919 0.0
H2005 H 0.25427 0.05121 0.16588 0.0
C2006 C 0.2608 0.06369 0.19599 0.0
C2007 C 0.26478 0.07194 0.21076 0.0
C2008 C 0.2673 0.06921 0.18057 0.0
C2009 C 0.27659 0.08474 0.21001 0.0
C2010 C 0.28315 0.0902 0.19479 0.0
C2011 C 0.28268 0.08999 0.16441 0.0
C2012 C 0.27646 0.0835 0.14954 0.0
C2013 C 0.27807 0.08299 0.17991 0.0
C2014 C 0.26689 0.06895 0.15038 0.0
C2015 C 0.26235 0.0619 0.1657 0.0
H2016 H 0.40079 0.27164 0.01394 0.0
H2017 H 0.42059 0.23858 0.05162 0.0
H2018 H 0.44829 0.24973 0.04685 0.0
H2019 H 0.4674 0.26583 0.02925 0.0
H2020 H 0.44784 0.29806 0.99075 0.0
H2021 H 0.41959 0.29056 0.99883 0.0
C2022 C 0.41109 0.26711 0.02137 0.0
C2023 C 0.40858 0.25411 0.033 0.0
C2024 C 0.4271 0.27336 0.01833 0.0
C2025 C 0.42211 0.24848 0.04253 0.0
C2026 C 0.438 0.25482 0.03976 0.0
C2027 C 0.45696 0.27155 0.02287 0.0
C2028 C 0.45981 0.28238 0.00927 0.0
C2029 C 0.44074 0.26682 0.02728 0.0
C2030 C 0.44608 0.28968 1.00122 0.0
C2031 C 0.42989 0.28528 1.00576 0.0
H2032 H 0.0853 0.89576 0.33289 0.0
H2033 H 0.06614 0.90991 0.38086 0.0
H2034 H 0.06829 0.93933 0.37303 0.0
H2035 H 0.07884 0.96096 0.35389 0.0
H2036 H 0.10208 0.94674 0.30782 0.0
H2037 H 0.095 0.91755 0.31329 0.0
C2038 C 0.08114 0.90531 0.34142 0.0
C2039 C 0.07522 0.90066 0.35733 0.0
C2040 C 0.08329 0.92223 0.33714 0.0
C2041 C 0.07048 0.91316 0.36849 0.0
C2042 C 0.07181 0.92998 0.36403 0.0
C2043 C 0.08181 0.9515 0.3448 0.0
C2044 C 0.09045 0.95602 0.33018 0.0
C2045 C 0.07859 0.93467 0.34856 0.0
C2046 C 0.095 0.9436 0.31888 0.0
C2047 C 0.0911 0.9269 0.32213 0.0
H2048 H 0.15579 0.82914 0.4679 0.0
H2049 H 0.12962 0.8366 0.51417 0.0
H2050 H 0.15501 0.84676 0.52687 0.0
H2051 H 0.18399 0.85686 0.52377 0.0
H2052 H 0.20978 0.84882 0.4773 0.0
H2053 H 0.18543 0.83561 0.46598 0.0
C2054 C 0.15569 0.8326 0.48088 0.0
C2055 C 0.14068 0.83214 0.48997 0.0
C2056 C 0.17034 0.83864 0.4881 0.0
C2057 C 0.14093 0.83672 0.50681 0.0
C2058 C 0.15546 0.8427 0.51408 0.0
C2059 C 0.18439 0.85193 0.51129 0.0
C2060 C 0.19878 0.8541 0.50141 0.0
C2061 C 0.17015 0.84424 0.50469 0.0
C2062 C 0.19896 0.84753 0.48525 0.0
C2063 C 0.18496 0.83995 0.47868 0.0
H2064 H 0.52534 0.91157 0.74023 0.0
H2065 H 0.48328 0.88792 0.76365 0.0
H2066 H 0.47207 0.91493 0.77162 0.0
H2067 H 0.47226 0.94542 0.76874 0.0
H2068 H 0.51431 0.96914 0.74539 0.0
H2069 H 0.52746 0.94213 0.74093 0.0
C2070 C 0.51393 0.91229 0.74742 0.0
C2071 C 0.50512 0.89766 0.75112 0.0
C2072 C 0.50739 0.92797 0.75188 0.0
C2073 C 0.49034 0.89891 0.7605 0.0
C2074 C 0.48383 0.9144 0.76503 0.0
C2075 C 0.48447 0.94472 0.76303 0.0
C2076 C 0.49214 0.95935 0.75726 0.0
C2077 C 0.49196 0.92905 0.7603 0.0
C2078 C 0.50802 0.95813 0.74992 0.0
C2079 C 0.51555 0.94264 0.74726 0.0
H2080 H 0.07236 0.15334 0.27101 0.0
H2081 H 0.11308 0.17014 0.30082 0.0
H2082 H 0.10566 0.19901 0.29442 0.0
H2083 H 0.08995 0.2193 0.27749 0.0
H2084 H 0.04985 0.20256 0.24685 0.0
H2085 H 0.05454 0.174 0.25662 0.0
C2086 C 0.07939 0.1633 0.27645 0.0
C2087 C 0.09335 0.15944 0.28637 0.0
C2088 C 0.07527 0.17996 0.2724 0.0
C2089 C 0.1023 0.17262 0.2932 0.0
C2090 C 0.09811 0.18919 0.28943 0.0
C2091 C 0.08198 0.20948 0.27319 0.0
C2092 C 0.0696 0.21317 0.26133 0.0
C2093 C 0.08497 0.19299 0.27862 0.0
C2094 C 0.05944 0.20019 0.25596 0.0
C2095 C 0.0622 0.18379 0.26148 0.0
H2096 H 0.50783 0.1671 0.81036 0.0
H2097 H 0.52018 0.14047 0.8555 0.0
H2098 H 0.53662 0.16385 0.86473 0.0
H2099 H 0.54455 0.19321 0.86173 0.0
H2100 H 0.53155 0.22023 0.81702 0.0
H2101 H 0.51873 0.1954 0.80585 0.0
C2102 C 0.51439 0.16626 0.82205 0.0
C2103 C 0.51256 0.15202 0.83225 0.0
C2104 C 0.52371 0.17995 0.82747 0.0
C2105 C 0.5212 0.15125 0.84739 0.0
C2106 C 0.53062 0.16468 0.85273 0.0
C2107 C 0.53933 0.19358 0.84935 0.0
C2108 C 0.539 0.20869 0.84031 0.0
C2109 C 0.53156 0.1793 0.84313 0.0
C2110 C 0.53202 0.20884 0.82432 0.0
C2111 C 0.52455 0.19464 0.81794 0.0
H2112 H 0.20858 0.26563 0.10217 0.0
H2113 H 0.19284 0.24014 0.05835 0.0
H2114 H 0.16384 0.24766 0.06443 0.0
H2115 H 0.1428 0.25832 0.08419 0.0
H2116 H 0.15854 0.27946 0.13034 0.0
H2117 H 0.18763 0.27707 0.12146 0.0
C2118 C 0.1988 0.26221 0.0937 0.0
C2119 C 0.2028 0.25276 0.07958 0.0
C2120 C 0.18213 0.26567 0.09788 0.0
C2121 C 0.19003 0.24773 0.06907 0.0
C2122 C 0.17347 0.25191 0.07264 0.0
C2123 C 0.15262 0.26286 0.09205 0.0
C2124 C 0.14857 0.26941 0.10774 0.0
C2125 C 0.16933 0.26048 0.08726 0.0
C2126 C 0.16138 0.27465 0.11812 0.0
C2127 C 0.17799 0.27316 0.11307 0.0
H2128 H 0.37963 0.84107 0.58443 0.0
H2129 H 0.39547 0.89204 0.58041 0.0
H2130 H 0.42428 0.88314 0.58464 0.0
H2131 H 0.44462 0.86114 0.5924 0.0
H2132 H 0.42921 0.81006 0.59477 0.0
H2133 H 0.40056 0.81869 0.58843 0.0
C2134 C 0.3894 0.85023 0.58408 0.0
C2135 C 0.38525 0.86731 0.58242 0.0
C2136 C 0.40599 0.845 0.58658 0.0
C2137 C 0.39819 0.8789 0.58185 0.0
C2138 C 0.41469 0.8738 0.58439 0.0
C2139 C 0.43498 0.8519 0.59136 0.0
C2140 C 0.43894 0.83499 0.59424 0.0
C2141 C 0.41866 0.85695 0.58731 0.0
C2142 C 0.42644 0.82311 0.59265 0.0
C2143 C 0.41008 0.82808 0.58903 0.0
H2144 H 0.73999 0.51376 0.94661 0.0
H2145 H 0.78496 0.48837 0.93153 0.0
H2146 H 0.77905 0.49504 0.90247 0.0
H2147 H 0.75948 0.50495 0.88119 0.0
H2148 H 0.71371 0.52895 0.89608 0.0
H2149 H 0.72163 0.52608 0.92526 0.0
C2150 C 0.74874 0.51003 0.93703 0.0
C2151 C 0.76296 0.50054 0.94136 0.0
C2152 C 0.74499 0.51348 0.92022 0.0
C2153 C 0.77398 0.49569 0.92866 0.0
C2154 C 0.77054 0.49942 0.91198 0.0
C2155 C 0.75136 0.5099 0.89077 0.0
C2156 C 0.73594 0.51713 0.88634 0.0
C2157 C 0.75583 0.50785 0.90758 0.0
C2158 C 0.72562 0.52336 0.89903 0.0
C2159 C 0.73013 0.52164 0.91577 0.0
H2160 H 0.87218 0.52774 0.18091 0.0
H2161 H 0.82538 0.51799 0.20503 0.0
H2162 H 0.81284 0.51162 0.17827 0.0
H2163 H 0.8159 0.50641 0.14799 0.0
H2164 H 0.86188 0.51948 0.12366 0.0
H2165 H 0.8738 0.5271 0.15016 0.0
C2166 C 0.85914 0.52464 0.1802 0.0
C2167 C 0.8497 0.52344 0.19491 0.0
C2168 C 0.85183 0.52144 0.16465 0.0
C2169 C 0.83284 0.51926 0.19384 0.0
C2170 C 0.82568 0.51546 0.17854 0.0
C2171 C 0.82838 0.51127 0.14847 0.0
C2172 C 0.83792 0.5123 0.13376 0.0
C2173 C 0.83513 0.51617 0.16384 0.0
C2174 C 0.85411 0.51868 0.13468 0.0
C2175 C 0.86106 0.52293 0.14991 0.0
H2176 H 0.84159 0.60495 0.38575 0.0
H2177 H 0.8785 0.57064 0.40458 0.0
H2178 H 0.8683 0.57501 0.43293 0.0
H2179 H 0.85175 0.59172 0.45265 0.0
H2180 H 0.8175 0.62877 0.43392 0.0
H2181 H 0.82353 0.62011 0.40542 0.0
C2182 C 0.84703 0.59799 0.396 0.0
C2183 C 0.86067 0.58726 0.39297 0.0
C2184 C 0.84167 0.60129 0.4124 0.0
C2185 C 0.86789 0.57878 0.4065 0.0
C2186 C 0.86213 0.5814 0.42276 0.0
C2187 C 0.8452 0.59754 0.44236 0.0
C2188 C 0.834 0.61077 0.44548 0.0
C2189 C 0.84942 0.59306 0.42592 0.0
C2190 C 0.82602 0.61847 0.43192 0.0
C2191 C 0.82958 0.61359 0.41559 0.0
H2192 H 0.74137 0.61465 0.63198 0.0
H2193 H 0.79435 0.60818 0.63426 0.0
H2194 H 0.79181 0.59787 0.66312 0.0
H2195 H 0.77407 0.59112 0.68796 0.0
H2196 H 0.72083 0.59611 0.68363 0.0
H2197 H 0.72393 0.60642 0.65535 0.0
C2198 C 0.75242 0.6113 0.63885 0.0
C2199 C 0.76806 0.61272 0.63115 0.0
C2200 C 0.75075 0.60486 0.65506 0.0
C2201 C 0.78219 0.60752 0.64001 0.0
C2202 C 0.78069 0.60155 0.65648 0.0
C2203 C 0.76315 0.59423 0.68074 0.0
C2204 C 0.74721 0.59279 0.6881 0.0
C2205 C 0.76498 0.60014 0.66417 0.0
C2206 C 0.73324 0.59696 0.67845 0.0
C2207 C 0.73498 0.603 0.66223 0.0
loop_
_geom_bond_atom_site_label_1
_geom_bond_atom_site_label_2
_geom_bond_distance
_geom_bond_site_symmetry_2
_ccdc_geom_bond_type
O0 Cd1 2.223 1_655 S
O0 C8 1.315 . S
Cd1 O0 2.223 1_455 S
Cd1 O4 2.297 1_455 S
Cd1 O5 2.439 1_455 S
Cd1 O11 2.240 . S
Cd2 O3 2.240 . S
Cd2 O10 2.223 1_655 S
Cd2 O12 2.297 1_655 S
Cd2 O13 2.439 1_655 S
O3 Cd2 2.240 . S
O3 C8 1.279 . S
O4 Cd1 2.297 1_655 S
O4 C6 1.247 . S
O5 Cd1 2.439 1_655 S
O5 C6 1.208 . S
C6 O4 1.247 . S
C6 O5 1.208 . S
C7 O12 1.247 . S
C7 O13 1.208 . S
C8 O0 1.315 . S
C8 O3 1.279 . S
C9 O10 1.315 . S
C9 O11 1.279 . S
O10 Cd2 2.223 1_455 S
O10 C9 1.315 . S
O11 Cd1 2.240 . S
O11 C9 1.279 . S
O12 Cd2 2.297 1_455 S
O12 C7 1.247 . S
O13 Cd2 2.439 1_455 S
O13 C7 1.208 . S
O14 Cd15 2.223 . S
O14 C22 1.315 . S
Cd15 O14 2.223 . S
Cd15 O18 2.297 . S
Cd15 O19 2.439 . S
Cd15 O25 2.240 1_655 S
Cd16 O17 2.236 . S
Cd16 O24 2.223 . S
Cd16 O26 2.297 . S
Cd16 O27 2.439 . S
O17 Cd16 2.236 . S
O17 C22 1.280 1_455 S
O18 Cd15 2.297 . S
O18 C20 1.247 . S
O19 Cd15 2.439 . S
O19 C20 1.208 . S
C20 O18 1.247 . S
C20 O19 1.208 . S
C21 O26 1.247 . S
C21 O27 1.208 . S
C22 O14 1.315 . S
C22 O17 1.280 1_655 S
C23 O24 1.315 . S
C23 O25 1.279 . S
O24 Cd16 2.223 . S
O24 C23 1.315 . S
O25 Cd15 2.240 1_455 S
O25 C23 1.279 . S
O26 Cd16 2.297 . S
O26 C21 1.247 . S
O27 Cd16 2.439 . S
O27 C21 1.208 . S
O28 Cd29 2.223 . S
O28 C36 1.315 . S
Cd29 O28 2.223 . S
Cd29 O32 2.297 . S
Cd29 O33 2.439 . S
Cd29 O39 2.240 . S
Cd30 O31 2.240 . S
Cd30 O38 2.223 . S
Cd30 O40 2.297 . S
Cd30 O41 2.439 . S
O31 Cd30 2.240 . S
O31 C36 1.279 . S
O32 Cd29 2.297 . S
O32 C34 1.247 . S
O33 Cd29 2.439 . S
O33 C34 1.208 . S
C34 O32 1.247 . S
C34 O33 1.208 . S
C35 O40 1.247 . S
C35 O41 1.208 . S
C36 O28 1.315 . S
C36 O31 1.279 . S
C37 O38 1.315 . S
C37 O39 1.279 . S
O38 Cd30 2.223 . S
O38 C37 1.315 . S
O39 Cd29 2.240 . S
O39 C37 1.279 . S
O40 Cd30 2.297 . S
O40 C35 1.247 . S
O41 Cd30 2.439 . S
O41 C35 1.208 . S
O42 Cd43 2.223 . S
O42 C50 1.315 . S
Cd43 O42 2.223 . S
Cd43 O46 2.297 . S
Cd43 O47 2.439 . S
Cd43 O53 2.240 . S
Cd44 O45 2.240 . S
Cd44 O52 2.223 . S
Cd44 O54 2.297 . S
Cd44 O55 2.394 1_556 S
O45 Cd44 2.240 . S
O45 C50 1.279 . S
O46 Cd43 2.297 . S
O46 C48 1.247 . S
O47 Cd43 2.439 . S
O47 C48 1.208 . S
C48 O46 1.247 . S
C48 O47 1.208 . S
C49 O54 1.247 1_554 S
C49 O55 1.215 . S
C50 O42 1.315 . S
C50 O45 1.279 . S
C51 O52 1.315 . S
C51 O53 1.279 . S
O52 Cd44 2.223 . S
O52 C51 1.315 . S
O53 Cd43 2.240 . S
O53 C51 1.279 . S
O54 Cd44 2.297 . S
O54 C49 1.247 1_556 S
O55 Cd44 2.394 1_554 S
O55 C49 1.215 . S
O56 Cd57 2.223 1_655 S
O56 C64 1.315 . S
Cd57 O56 2.223 1_455 S
Cd57 O60 2.297 1_455 S
Cd57 O61 2.439 1_455 S
Cd57 O67 2.240 . S
Cd58 O59 2.240 . S
Cd58 O66 2.223 1_655 S
Cd58 O68 2.297 1_655 S
Cd58 O69 2.439 1_655 S
O59 Cd58 2.240 . S
O59 C64 1.279 . S
O60 Cd57 2.297 1_655 S
O60 C62 1.247 . S
O61 Cd57 2.439 1_655 S
O61 C62 1.208 . S
C62 O60 1.247 . S
C62 O61 1.208 . S
C63 O68 1.247 . S
C63 O69 1.208 . S
C64 O56 1.315 . S
C64 O59 1.279 . S
C65 O66 1.315 . S
C65 O67 1.279 . S
O66 Cd58 2.223 1_455 S
O66 C65 1.315 . S
O67 Cd57 2.240 . S
O67 C65 1.279 . S
O68 Cd58 2.297 1_455 S
O68 C63 1.247 . S
O69 Cd58 2.439 1_455 S
O69 C63 1.208 . S
O70 Cd71 2.223 . S
O70 C78 1.315 . S
Cd71 O70 2.223 . S
Cd71 O74 2.297 . S
Cd71 O75 2.439 . S
Cd71 O81 2.240 . S
Cd72 O73 2.240 . S
Cd72 O80 2.223 . S
Cd72 O82 2.297 . S
Cd72 O83 2.439 . S
O73 Cd72 2.240 . S
O73 C78 1.279 . S
O74 Cd71 2.297 . S
O74 C76 1.247 . S
O75 Cd71 2.439 . S
O75 C76 1.208 . S
C76 O74 1.247 . S
C76 O75 1.208 . S
C77 O82 1.247 . S
C77 O83 1.208 . S
C78 O70 1.315 . S
C78 O73 1.279 . S
C79 O80 1.315 . S
C79 O81 1.279 . S
O80 Cd72 2.223 . S
O80 C79 1.315 . S
O81 Cd71 2.240 . S
O81 C79 1.279 . S
O82 Cd72 2.297 . S
O82 C77 1.247 . S
O83 Cd72 2.439 . S
O83 C77 1.208 . S
O84 Cd85 2.223 . S
O84 C92 1.315 . S
Cd85 O84 2.223 . S
Cd85 O88 2.297 . S
Cd85 O89 2.439 . S
Cd85 O95 2.240 . S
Cd86 O87 2.240 . S
Cd86 O94 2.223 . S
Cd86 O96 2.297 . S
Cd86 O97 2.439 . S
O87 Cd86 2.240 . S
O87 C92 1.279 . S
O88 Cd85 2.297 . S
O88 C90 1.247 . S
O89 Cd85 2.439 . S
O89 C90 1.208 . S
C90 O88 1.247 . S
C90 O89 1.208 . S
C91 O96 1.247 . S
C91 O97 1.208 . S
C92 O84 1.315 . S
C92 O87 1.279 . S
C93 O94 1.315 . S
C93 O95 1.279 . S
O94 Cd86 2.223 . S
O94 C93 1.315 . S
O95 Cd85 2.240 . S
O95 C93 1.279 . S
O96 Cd86 2.297 . S
O96 C91 1.247 . S
O97 Cd86 2.439 . S
O97 C91 1.208 . S
O98 Cd99 2.223 . S
O98 C106 1.315 . S
Cd99 O98 2.223 . S
Cd99 O102 2.297 . S
Cd99 O103 2.439 . S
Cd99 O109 2.240 1_655 S
Cd100 O101 2.254 . S
Cd100 O108 2.223 . S
Cd100 O110 2.297 . S
Cd100 O111 2.439 . S
O101 Cd100 2.254 . S
O101 C106 1.276 1_455 S
O102 Cd99 2.297 . S
O102 C104 1.247 . S
O103 Cd99 2.439 . S
O103 C104 1.208 . S
C104 O102 1.247 . S
C104 O103 1.208 . S
C105 O110 1.247 . S
C105 O111 1.208 . S
C106 O98 1.315 . S
C106 O101 1.276 1_655 S
C107 O108 1.315 . S
C107 O109 1.279 . S
O108 Cd100 2.223 . S
O108 C107 1.315 . S
O109 Cd99 2.240 1_455 S
O109 C107 1.279 . S
O110 Cd100 2.297 . S
O110 C105 1.247 . S
O111 Cd100 2.439 . S
O111 C105 1.208 . S
O112 Cd113 2.223 1_565 S
O112 C120 1.315 . S
Cd113 O112 2.223 1_545 S
Cd113 O116 2.297 1_545 S
Cd113 O117 2.439 1_545 S
Cd113 O123 2.240 . S
Cd114 O115 2.240 . S
Cd114 O122 2.223 1_565 S
Cd114 O124 2.297 1_565 S
Cd114 O125 2.439 1_565 S
O115 Cd114 2.240 . S
O115 C120 1.279 . S
O116 Cd113 2.297 1_565 S
O116 C118 1.247 . S
O117 Cd113 2.439 1_565 S
O117 C118 1.208 . S
C118 O116 1.247 . S
C118 O117 1.208 . S
C119 O124 1.247 . S
C119 O125 1.208 . S
C120 O112 1.315 . S
C120 O115 1.279 . S
C121 O122 1.315 . S
C121 O123 1.279 . S
O122 Cd114 2.223 1_545 S
O122 C121 1.315 . S
O123 Cd113 2.240 . S
O123 C121 1.279 . S
O124 Cd114 2.297 1_545 S
O124 C119 1.247 . S
O125 Cd114 2.439 1_545 S
O125 C119 1.208 . S
O126 Cd127 2.223 . S
O126 C134 1.315 . S
Cd127 O126 2.223 . S
Cd127 O130 2.297 . S
Cd127 O131 2.439 . S
Cd127 O137 2.240 . S
Cd128 O129 2.240 . S
Cd128 O136 2.223 . S
Cd128 O138 2.297 . S
Cd128 O139 2.394 1_565 S
O129 Cd128 2.240 . S
O129 C134 1.279 . S
O130 Cd127 2.297 . S
O130 C132 1.247 . S
O131 Cd127 2.439 . S
O131 C132 1.208 . S
C132 O130 1.247 . S
C132 O131 1.208 . S
C133 O138 1.247 1_545 S
C133 O139 1.215 . S
C134 O126 1.315 . S
C134 O129 1.279 . S
C135 O136 1.315 . S
C135 O137 1.279 . S
O136 Cd128 2.223 . S
O136 C135 1.315 . S
O137 Cd127 2.240 . S
O137 C135 1.279 . S
O138 Cd128 2.297 . S
O138 C133 1.247 1_565 S
O139 Cd128 2.394 1_545 S
O139 C133 1.215 . S
O140 Cd141 2.223 . S
O140 C148 1.315 . S
Cd141 O140 2.223 . S
Cd141 O144 2.297 . S
Cd141 O145 2.439 . S
Cd141 O151 2.240 . S
Cd142 O143 2.240 . S
Cd142 O150 2.223 . S
Cd142 O152 2.297 . S
Cd142 O153 2.439 . S
O143 Cd142 2.240 . S
O143 C148 1.279 . S
O144 Cd141 2.297 . S
O144 C146 1.247 . S
O145 Cd141 2.439 . S
O145 C146 1.208 . S
C146 O144 1.247 . S
C146 O145 1.208 . S
C147 O152 1.247 . S
C147 O153 1.208 . S
C148 O140 1.315 . S
C148 O143 1.279 . S
C149 O150 1.315 . S
C149 O151 1.279 . S
O150 Cd142 2.223 . S
O150 C149 1.315 . S
O151 Cd141 2.240 . S
O151 C149 1.279 . S
O152 Cd142 2.297 . S
O152 C147 1.247 . S
O153 Cd142 2.439 . S
O153 C147 1.208 . S
O154 Cd155 2.223 . S
O154 C162 1.315 . S
Cd155 O154 2.223 . S
Cd155 O158 2.297 . S
Cd155 O159 2.439 . S
Cd155 O165 2.240 . S
Cd156 O157 2.240 . S
Cd156 O164 2.223 . S
Cd156 O166 2.297 . S
Cd156 O167 2.439 . S
O157 Cd156 2.240 . S
O157 C162 1.279 . S
O158 Cd155 2.297 . S
O158 C160 1.247 . S
O159 Cd155 2.439 . S
O159 C160 1.208 . S
C160 O158 1.247 . S
C160 O159 1.208 . S
C161 O166 1.247 . S
C161 O167 1.208 . S
C162 O154 1.315 . S
C162 O157 1.279 . S
C163 O164 1.315 . S
C163 O165 1.279 . S
O164 Cd156 2.223 . S
O164 C163 1.315 . S
O165 Cd155 2.240 . S
O165 C163 1.279 . S
O166 Cd156 2.297 . S
O166 C161 1.247 . S
O167 Cd156 2.439 . S
O167 C161 1.208 . S
O168 Cd169 2.223 . S
O168 C176 1.315 . S
Cd169 O168 2.223 . S
Cd169 O172 2.297 . S
Cd169 O173 2.439 . S
Cd169 O179 2.240 . S
Cd170 O171 2.240 . S
Cd170 O178 2.223 . S
Cd170 O180 2.297 . S
Cd170 O181 2.439 . S
O171 Cd170 2.240 . S
O171 C176 1.279 . S
O172 Cd169 2.297 . S
O172 C174 1.247 . S
O173 Cd169 2.439 . S
O173 C174 1.208 . S
C174 O172 1.247 . S
C174 O173 1.208 . S
C175 O180 1.247 . S
C175 O181 1.208 . S
C176 O168 1.315 . S
C176 O171 1.279 . S
C177 O178 1.315 . S
C177 O179 1.279 . S
O178 Cd170 2.223 . S
O178 C177 1.315 . S
O179 Cd169 2.240 . S
O179 C177 1.279 . S
O180 Cd170 2.297 . S
O180 C175 1.247 . S
O181 Cd170 2.439 . S
O181 C175 1.208 . S
O182 Cd183 2.223 . S
O182 C190 1.315 . S
Cd183 O182 2.223 . S
Cd183 O186 2.297 . S
Cd183 O187 2.439 . S
Cd183 O193 2.240 . S
Cd184 O185 2.240 . S
Cd184 O192 2.223 . S
Cd184 O194 2.297 . S
Cd184 O195 2.439 1_565 S
O185 Cd184 2.240 . S
O185 C190 1.279 . S
O186 Cd183 2.297 . S
O186 C188 1.247 . S
O187 Cd183 2.439 . S
O187 C188 1.208 . S
C188 O186 1.247 . S
C188 O187 1.208 . S
C189 O194 1.247 1_545 S
C189 O195 1.208 . S
C190 O182 1.315 . S
C190 O185 1.279 . S
C191 O192 1.315 . S
C191 O193 1.279 . S
O192 Cd184 2.223 . S
O192 C191 1.315 . S
O193 Cd183 2.240 . S
O193 C191 1.279 . S
O194 Cd184 2.297 . S
O194 C189 1.247 1_565 S
O195 Cd184 2.439 1_545 S
O195 C189 1.208 . S
O196 Cd197 2.223 1_565 S
O196 C204 1.315 . S
Cd197 O196 2.223 1_545 S
Cd197 O200 2.297 1_545 S
Cd197 O201 2.439 1_545 S
Cd197 O207 2.240 . S
Cd198 O199 2.240 . S
Cd198 O206 2.223 1_565 S
Cd198 O208 2.297 1_565 S
Cd198 O209 2.439 1_565 S
O199 Cd198 2.240 . S
O199 C204 1.279 . S
O200 Cd197 2.297 1_565 S
O200 C202 1.247 . S
O201 Cd197 2.439 1_565 S
O201 C202 1.208 . S
C202 O200 1.247 . S
C202 O201 1.208 . S
C203 O208 1.247 . S
C203 O209 1.208 . S
C204 O196 1.315 . S
C204 O199 1.279 . S
C205 O206 1.315 . S
C205 O207 1.279 . S
O206 Cd198 2.223 1_545 S
O206 C205 1.315 . S
O207 Cd197 2.240 . S
O207 C205 1.279 . S
O208 Cd198 2.297 1_545 S
O208 C203 1.247 . S
O209 Cd198 2.439 1_545 S
O209 C203 1.208 . S
O210 Cd211 2.223 . S
O210 C218 1.315 . S
Cd211 O210 2.223 . S
Cd211 O214 2.297 . S
Cd211 O215 2.439 . S
Cd211 O221 2.240 1_556 S
Cd212 O213 2.254 . S
Cd212 O220 2.223 . S
Cd212 O222 2.297 . S
Cd212 O223 2.439 . S
O213 Cd212 2.254 . S
O213 C218 1.276 1_554 S
O214 Cd211 2.297 . S
O214 C216 1.247 . S
O215 Cd211 2.439 . S
O215 C216 1.208 . S
C216 O214 1.247 . S
C216 O215 1.208 . S
C217 O222 1.247 . S
C217 O223 1.208 . S
C218 O210 1.315 . S
C218 O213 1.276 1_556 S
C219 O220 1.315 . S
C219 O221 1.279 . S
O220 Cd212 2.223 . S
O220 C219 1.315 . S
O221 Cd211 2.240 1_554 S
O221 C219 1.279 . S
O222 Cd212 2.297 . S
O222 C217 1.247 . S
O223 Cd212 2.439 . S
O223 C217 1.208 . S
O224 Cd225 2.223 1_556 S
O224 C232 1.315 . S
Cd225 O224 2.223 1_554 S
Cd225 O228 2.297 1_554 S
Cd225 O229 2.439 1_554 S
Cd225 O235 2.240 . S
Cd226 O227 2.240 . S
Cd226 O234 2.223 1_556 S
Cd226 O236 2.297 1_556 S
Cd226 O237 2.439 1_556 S
O227 Cd226 2.240 . S
O227 C232 1.279 . S
O228 Cd225 2.297 1_556 S
O228 C230 1.247 . S
O229 Cd225 2.439 1_556 S
O229 C230 1.208 . S
C230 O228 1.247 . S
C230 O229 1.208 . S
C231 O236 1.247 . S
C231 O237 1.208 . S
C232 O224 1.315 . S
C232 O227 1.279 . S
C233 O234 1.315 . S
C233 O235 1.279 . S
O234 Cd226 2.223 1_554 S
O234 C233 1.315 . S
O235 Cd225 2.240 . S
O235 C233 1.279 . S
O236 Cd226 2.297 1_554 S
O236 C231 1.247 . S
O237 Cd226 2.439 1_554 S
O237 C231 1.208 . S
O238 Cd239 2.223 . S
O238 C246 1.315 . S
Cd239 O238 2.223 . S
Cd239 O242 2.297 . S
Cd239 O243 2.439 . S
Cd239 O249 2.240 . S
Cd240 O241 2.240 . S
Cd240 O248 2.223 . S
Cd240 O250 2.297 . S
Cd240 O251 2.439 . S
O241 Cd240 2.240 . S
O241 C246 1.279 . S
O242 Cd239 2.297 . S
O242 C244 1.247 . S
O243 Cd239 2.439 . S
O243 C244 1.208 . S
C244 O242 1.247 . S
C244 O243 1.208 . S
C245 O250 1.247 . S
C245 O251 1.208 . S
C246 O238 1.315 . S
C246 O241 1.279 . S
C247 O248 1.315 . S
C247 O249 1.279 . S
O248 Cd240 2.223 . S
O248 C247 1.315 . S
O249 Cd239 2.240 . S
O249 C247 1.279 . S
O250 Cd240 2.297 . S
O250 C245 1.247 . S
O251 Cd240 2.439 . S
O251 C245 1.208 . S
O252 Cd253 2.223 . S
O252 C260 1.315 . S
Cd253 O252 2.223 . S
Cd253 O256 2.297 . S
Cd253 O257 2.439 . S
Cd253 O263 2.240 . S
Cd254 O255 2.240 . S
Cd254 O262 2.223 . S
Cd254 O264 2.297 . S
Cd254 O265 2.394 1_655 S
O255 Cd254 2.240 . S
O255 C260 1.279 . S
O256 Cd253 2.297 . S
O256 C258 1.247 . S
O257 Cd253 2.439 . S
O257 C258 1.208 . S
C258 O256 1.247 . S
C258 O257 1.208 . S
C259 O264 1.247 1_455 S
C259 O265 1.215 . S
C260 O252 1.315 . S
C260 O255 1.279 . S
C261 O262 1.315 . S
C261 O263 1.279 . S
O262 Cd254 2.223 . S
O262 C261 1.315 . S
O263 Cd253 2.240 . S
O263 C261 1.279 . S
O264 Cd254 2.297 . S
O264 C259 1.247 1_655 S
O265 Cd254 2.394 1_455 S
O265 C259 1.215 . S
O266 Cd267 2.223 . S
O266 C274 1.315 . S
Cd267 O266 2.223 . S
Cd267 O270 2.297 . S
Cd267 O271 2.439 . S
Cd267 O277 2.240 . S
Cd268 O269 2.240 . S
Cd268 O276 2.223 . S
Cd268 O278 2.297 . S
Cd268 O279 2.439 . S
O269 Cd268 2.240 . S
O269 C274 1.279 . S
O270 Cd267 2.297 . S
O270 C272 1.247 . S
O271 Cd267 2.439 . S
O271 C272 1.208 . S
C272 O270 1.247 . S
C272 O271 1.208 . S
C273 O278 1.247 . S
C273 O279 1.208 . S
C274 O266 1.315 . S
C274 O269 1.279 . S
C275 O276 1.315 . S
C275 O277 1.279 . S
O276 Cd268 2.223 . S
O276 C275 1.315 . S
O277 Cd267 2.240 . S
O277 C275 1.279 . S
O278 Cd268 2.297 . S
O278 C273 1.247 . S
O279 Cd268 2.439 . S
O279 C273 1.208 . S
O280 Cd281 2.223 . S
O280 C288 1.315 . S
Cd281 O280 2.223 . S
Cd281 O284 2.297 . S
Cd281 O285 2.439 . S
Cd281 O291 2.240 1_565 S
Cd282 O283 2.254 . S
Cd282 O290 2.223 . S
Cd282 O292 2.297 . S
Cd282 O293 2.439 . S
O283 Cd282 2.254 . S
O283 C288 1.276 1_545 S
O284 Cd281 2.297 . S
O284 C286 1.247 . S
O285 Cd281 2.439 . S
O285 C286 1.208 . S
C286 O284 1.247 . S
C286 O285 1.208 . S
C287 O292 1.247 . S
C287 O293 1.208 . S
C288 O280 1.315 . S
C288 O283 1.276 1_565 S
C289 O290 1.315 . S
C289 O291 1.279 . S
O290 Cd282 2.223 . S
O290 C289 1.315 . S
O291 Cd281 2.240 1_545 S
O291 C289 1.279 . S
O292 Cd282 2.297 . S
O292 C287 1.247 . S
O293 Cd282 2.439 . S
O293 C287 1.208 . S
O294 Cd295 2.223 . S
O294 C302 1.315 . S
Cd295 O294 2.223 . S
Cd295 O298 2.297 . S
Cd295 O299 2.439 . S
Cd295 O305 2.240 . S
Cd296 O297 2.240 . S
Cd296 O304 2.223 . S
Cd296 O306 2.297 . S
Cd296 O307 2.439 . S
O297 Cd296 2.240 . S
O297 C302 1.279 . S
O298 Cd295 2.297 . S
O298 C300 1.247 . S
O299 Cd295 2.439 . S
O299 C300 1.208 . S
C300 O298 1.247 . S
C300 O299 1.208 . S
C301 O306 1.247 . S
C301 O307 1.208 . S
C302 O294 1.315 . S
C302 O297 1.279 . S
C303 O304 1.315 . S
C303 O305 1.279 . S
O304 Cd296 2.223 . S
O304 C303 1.315 . S
O305 Cd295 2.240 . S
O305 C303 1.279 . S
O306 Cd296 2.297 . S
O306 C301 1.247 . S
O307 Cd296 2.439 . S
O307 C301 1.208 . S
O308 Cd309 2.223 . S
O308 C316 1.315 . S
Cd309 O308 2.223 . S
Cd309 O312 2.297 . S
Cd309 O313 2.439 . S
Cd309 O319 2.240 . S
Cd310 O311 2.240 . S
Cd310 O318 2.223 . S
Cd310 O320 2.297 . S
Cd310 O321 2.439 1_655 S
O311 Cd310 2.240 . S
O311 C316 1.279 . S
O312 Cd309 2.297 . S
O312 C314 1.247 . S
O313 Cd309 2.439 . S
O313 C314 1.208 . S
C314 O312 1.247 . S
C314 O313 1.208 . S
C315 O320 1.247 1_455 S
C315 O321 1.208 . S
C316 O308 1.315 . S
C316 O311 1.279 . S
C317 O318 1.315 . S
C317 O319 1.279 . S
O318 Cd310 2.223 . S
O318 C317 1.315 . S
O319 Cd309 2.240 . S
O319 C317 1.279 . S
O320 Cd310 2.297 . S
O320 C315 1.247 1_655 S
O321 Cd310 2.439 1_455 S
O321 C315 1.208 . S
O322 Cd323 2.223 . S
O322 C330 1.315 . S
Cd323 O322 2.223 . S
Cd323 O326 2.297 . S
Cd323 O327 2.439 . S
Cd323 O333 2.240 . S
Cd324 O325 2.240 . S
Cd324 O332 2.223 . S
Cd324 O334 2.297 . S
Cd324 O335 2.439 . S
O325 Cd324 2.240 . S
O325 C330 1.279 . S
O326 Cd323 2.297 . S
O326 C328 1.247 . S
O327 Cd323 2.439 . S
O327 C328 1.208 . S
C328 O326 1.247 . S
C328 O327 1.208 . S
C329 O334 1.247 . S
C329 O335 1.208 . S
C330 O322 1.315 . S
C330 O325 1.279 . S
C331 O332 1.315 . S
C331 O333 1.279 . S
O332 Cd324 2.223 . S
O332 C331 1.315 . S
O333 Cd323 2.240 . S
O333 C331 1.279 . S
O334 Cd324 2.297 . S
O334 C329 1.247 . S
O335 Cd324 2.439 . S
O335 C329 1.208 . S
O336 Cd337 2.223 . S
O336 C344 1.315 . S
Cd337 O336 2.223 . S
Cd337 O340 2.297 . S
Cd337 O341 2.439 . S
Cd337 O347 2.240 . S
Cd338 O339 2.240 . S
Cd338 O346 2.223 . S
Cd338 O348 2.297 . S
Cd338 O349 2.439 . S
O339 Cd338 2.240 . S
O339 C344 1.279 . S
O340 Cd337 2.297 . S
O340 C342 1.247 . S
O341 Cd337 2.439 . S
O341 C342 1.208 . S
C342 O340 1.247 . S
C342 O341 1.208 . S
C343 O348 1.247 . S
C343 O349 1.208 . S
C344 O336 1.315 . S
C344 O339 1.279 . S
C345 O346 1.315 . S
C345 O347 1.279 . S
O346 Cd338 2.223 . S
O346 C345 1.315 . S
O347 Cd337 2.240 . S
O347 C345 1.279 . S
O348 Cd338 2.297 . S
O348 C343 1.247 . S
O349 Cd338 2.439 . S
O349 C343 1.208 . S
O350 Cd351 2.223 . S
O350 C358 1.315 . S
Cd351 O350 2.223 . S
Cd351 O354 2.297 . S
Cd351 O355 2.439 . S
Cd351 O361 2.240 . S
Cd352 O353 2.240 . S
Cd352 O360 2.223 . S
Cd352 O362 2.297 . S
Cd352 O363 2.439 1_556 S
O353 Cd352 2.240 . S
O353 C358 1.279 . S
O354 Cd351 2.297 . S
O354 C356 1.247 . S
O355 Cd351 2.439 . S
O355 C356 1.208 . S
C356 O354 1.247 . S
C356 O355 1.208 . S
C357 O362 1.247 1_554 S
C357 O363 1.208 . S
C358 O350 1.315 . S
C358 O353 1.279 . S
C359 O360 1.315 . S
C359 O361 1.279 . S
O360 Cd352 2.223 . S
O360 C359 1.315 . S
O361 Cd351 2.240 . S
O361 C359 1.279 . S
O362 Cd352 2.297 . S
O362 C357 1.247 1_556 S
O363 Cd352 2.439 1_554 S
O363 C357 1.208 . S
O364 Cd365 2.223 . S
O364 C372 1.315 . S
Cd365 O364 2.223 . S
Cd365 O368 2.297 . S
Cd365 O369 2.439 . S
Cd365 O375 2.240 . S
Cd366 O367 2.240 . S
Cd366 O374 2.223 . S
Cd366 O376 2.297 . S
Cd366 O377 2.439 . S
O367 Cd366 2.240 . S
O367 C372 1.279 . S
O368 Cd365 2.297 . S
O368 C370 1.247 . S
O369 Cd365 2.439 . S
O369 C370 1.208 . S
C370 O368 1.247 . S
C370 O369 1.208 . S
C371 O376 1.247 . S
C371 O377 1.208 . S
C372 O364 1.315 . S
C372 O367 1.279 . S
C373 O374 1.315 . S
C373 O375 1.279 . S
O374 Cd366 2.223 . S
O374 C373 1.315 . S
O375 Cd365 2.240 . S
O375 C373 1.279 . S
O376 Cd366 2.297 . S
O376 C371 1.247 . S
O377 Cd366 2.439 . S
O377 C371 1.208 . S
O378 Cd379 2.223 . S
O378 C386 1.315 . S
Cd379 O378 2.223 . S
Cd379 O382 2.297 . S
Cd379 O383 2.439 . S
Cd379 O389 2.240 . S
Cd380 O381 2.240 . S
Cd380 O388 2.223 . S
Cd380 O390 2.297 . S
Cd380 O391 2.439 . S
O381 Cd380 2.240 . S
O381 C386 1.279 . S
O382 Cd379 2.297 . S
O382 C384 1.247 . S
O383 Cd379 2.439 . S
O383 C384 1.208 . S
C384 O382 1.247 . S
C384 O383 1.208 . S
C385 O390 1.247 . S
C385 O391 1.208 . S
C386 O378 1.315 . S
C386 O381 1.279 . S
C387 O388 1.315 . S
C387 O389 1.279 . S
O388 Cd380 2.223 . S
O388 C387 1.315 . S
O389 Cd379 2.240 . S
O389 C387 1.279 . S
O390 Cd380 2.297 . S
O390 C385 1.247 . S
O391 Cd380 2.439 . S
O391 C385 1.208 . S
O392 Cd393 2.223 . S
O392 C400 1.315 . S
Cd393 O392 2.223 . S
Cd393 O396 2.297 . S
Cd393 O397 2.439 . S
Cd393 O403 2.240 . S
Cd394 O395 2.240 . S
Cd394 O402 2.223 . S
Cd394 O404 2.297 . S
Cd394 O405 2.439 . S
O395 Cd394 2.240 . S
O395 C400 1.279 . S
O396 Cd393 2.297 . S
O396 C398 1.247 . S
O397 Cd393 2.439 . S
O397 C398 1.208 . S
C398 O396 1.247 . S
C398 O397 1.208 . S
C399 O404 1.247 . S
C399 O405 1.208 . S
C400 O392 1.315 . S
C400 O395 1.279 . S
C401 O402 1.315 . S
C401 O403 1.279 . S
O402 Cd394 2.223 . S
O402 C401 1.315 . S
O403 Cd393 2.240 . S
O403 C401 1.279 . S
O404 Cd394 2.297 . S
O404 C399 1.247 . S
O405 Cd394 2.439 . S
O405 C399 1.208 . S
O406 Cd407 2.223 . S
O406 C414 1.315 . S
Cd407 O406 2.223 . S
Cd407 O410 2.297 . S
Cd407 O411 2.439 . S
Cd407 O417 2.240 . S
Cd408 O409 2.240 . S
Cd408 O416 2.223 . S
Cd408 O418 2.297 . S
Cd408 O419 2.439 . S
O409 Cd408 2.240 . S
O409 C414 1.279 . S
O410 Cd407 2.297 . S
O410 C412 1.247 . S
O411 Cd407 2.439 . S
O411 C412 1.208 . S
C412 O410 1.247 . S
C412 O411 1.208 . S
C413 O418 1.247 . S
C413 O419 1.208 . S
C414 O406 1.315 . S
C414 O409 1.279 . S
C415 O416 1.315 . S
C415 O417 1.279 . S
O416 Cd408 2.223 . S
O416 C415 1.315 . S
O417 Cd407 2.240 . S
O417 C415 1.279 . S
O418 Cd408 2.297 . S
O418 C413 1.247 . S
O419 Cd408 2.439 . S
O419 C413 1.208 . S
O420 Cd421 2.223 . S
O420 C428 1.315 . S
Cd421 O420 2.223 . S
Cd421 O424 2.297 . S
Cd421 O425 2.439 . S
Cd421 O431 2.240 . S
Cd422 O423 2.240 . S
Cd422 O430 2.223 . S
Cd422 O432 2.297 . S
Cd422 O433 2.439 . S
O423 Cd422 2.240 . S
O423 C428 1.279 . S
O424 Cd421 2.297 . S
O424 C426 1.247 . S
O425 Cd421 2.439 . S
O425 C426 1.208 . S
C426 O424 1.247 . S
C426 O425 1.208 . S
C427 O432 1.247 . S
C427 O433 1.208 . S
C428 O420 1.315 . S
C428 O423 1.279 . S
C429 O430 1.315 . S
C429 O431 1.279 . S
O430 Cd422 2.223 . S
O430 C429 1.315 . S
O431 Cd421 2.240 . S
O431 C429 1.279 . S
O432 Cd422 2.297 . S
O432 C427 1.247 . S
O433 Cd422 2.439 . S
O433 C427 1.208 . S
O434 Cd435 2.223 . S
O434 C442 1.315 . S
Cd435 O434 2.223 . S
Cd435 O438 2.297 . S
Cd435 O439 2.439 . S
Cd435 O445 2.240 . S
Cd436 O437 2.240 . S
Cd436 O444 2.223 . S
Cd436 O446 2.297 . S
Cd436 O447 2.439 . S
O437 Cd436 2.240 . S
O437 C442 1.279 . S
O438 Cd435 2.297 . S
O438 C440 1.247 . S
O439 Cd435 2.439 . S
O439 C440 1.208 . S
C440 O438 1.247 . S
C440 O439 1.208 . S
C441 O446 1.247 . S
C441 O447 1.208 . S
C442 O434 1.315 . S
C442 O437 1.279 . S
C443 O444 1.315 . S
C443 O445 1.279 . S
O444 Cd436 2.223 . S
O444 C443 1.315 . S
O445 Cd435 2.240 . S
O445 C443 1.279 . S
O446 Cd436 2.297 . S
O446 C441 1.247 . S
O447 Cd436 2.439 . S
O447 C441 1.208 . S
O448 Cd449 2.223 . S
O448 C456 1.315 . S
Cd449 O448 2.223 . S
Cd449 O452 2.297 . S
Cd449 O453 2.439 . S
Cd449 O459 2.240 . S
Cd450 O451 2.240 . S
Cd450 O458 2.223 . S
Cd450 O460 2.297 . S
Cd450 O461 2.439 . S
O451 Cd450 2.240 . S
O451 C456 1.279 . S
O452 Cd449 2.297 . S
O452 C454 1.247 . S
O453 Cd449 2.439 . S
O453 C454 1.208 . S
C454 O452 1.247 . S
C454 O453 1.208 . S
C455 O460 1.247 . S
C455 O461 1.208 . S
C456 O448 1.315 . S
C456 O451 1.279 . S
C457 O458 1.315 . S
C457 O459 1.279 . S
O458 Cd450 2.223 . S
O458 C457 1.315 . S
O459 Cd449 2.240 . S
O459 C457 1.279 . S
O460 Cd450 2.297 . S
O460 C455 1.247 . S
O461 Cd450 2.439 . S
O461 C455 1.208 . S
O462 Cd463 2.223 . S
O462 C470 1.315 . S
Cd463 O462 2.223 . S
Cd463 O466 2.297 . S
Cd463 O467 2.439 . S
Cd463 O473 2.240 . S
Cd464 O465 2.240 . S
Cd464 O472 2.223 . S
Cd464 O474 2.297 . S
Cd464 O475 2.439 . S
O465 Cd464 2.240 . S
O465 C470 1.279 . S
O466 Cd463 2.297 . S
O466 C468 1.247 . S
O467 Cd463 2.439 . S
O467 C468 1.208 . S
C468 O466 1.247 . S
C468 O467 1.208 . S
C469 O474 1.247 . S
C469 O475 1.208 . S
C470 O462 1.315 . S
C470 O465 1.279 . S
C471 O472 1.315 . S
C471 O473 1.279 . S
O472 Cd464 2.223 . S
O472 C471 1.315 . S
O473 Cd463 2.240 . S
O473 C471 1.279 . S
O474 Cd464 2.297 . S
O474 C469 1.247 . S
O475 Cd464 2.439 . S
O475 C469 1.208 . S
O476 Cd477 2.223 . S
O476 C484 1.315 . S
Cd477 O476 2.223 . S
Cd477 O480 2.297 . S
Cd477 O481 2.439 . S
Cd477 O487 2.240 . S
Cd478 O479 2.240 . S
Cd478 O486 2.223 . S
Cd478 O488 2.297 . S
Cd478 O489 2.439 . S
O479 Cd478 2.240 . S
O479 C484 1.279 . S
O480 Cd477 2.297 . S
O480 C482 1.247 . S
O481 Cd477 2.439 . S
O481 C482 1.208 . S
C482 O480 1.247 . S
C482 O481 1.208 . S
C483 O488 1.247 . S
C483 O489 1.208 . S
C484 O476 1.315 . S
C484 O479 1.279 . S
C485 O486 1.315 . S
C485 O487 1.279 . S
O486 Cd478 2.223 . S
O486 C485 1.315 . S
O487 Cd477 2.240 . S
O487 C485 1.279 . S
O488 Cd478 2.297 . S
O488 C483 1.247 . S
O489 Cd478 2.439 . S
O489 C483 1.208 . S
O490 Cd491 2.223 . S
O490 C498 1.315 . S
Cd491 O490 2.223 . S
Cd491 O494 2.297 . S
Cd491 O495 2.439 . S
Cd491 O501 2.240 . S
Cd492 O493 2.240 . S
Cd492 O500 2.223 . S
Cd492 O502 2.297 . S
Cd492 O503 2.439 . S
O493 Cd492 2.240 . S
O493 C498 1.279 . S
O494 Cd491 2.297 . S
O494 C496 1.247 . S
O495 Cd491 2.439 . S
O495 C496 1.208 . S
C496 O494 1.247 . S
C496 O495 1.208 . S
C497 O502 1.247 . S
C497 O503 1.208 . S
C498 O490 1.315 . S
C498 O493 1.279 . S
C499 O500 1.315 . S
C499 O501 1.279 . S
O500 Cd492 2.223 . S
O500 C499 1.315 . S
O501 Cd491 2.240 . S
O501 C499 1.279 . S
O502 Cd492 2.297 . S
O502 C497 1.247 . S
O503 Cd492 2.439 . S
O503 C497 1.208 . S
O504 Cd505 2.223 . S
O504 C512 1.315 . S
Cd505 O504 2.223 . S
Cd505 O508 2.297 . S
Cd505 O509 2.439 . S
Cd505 O515 2.240 . S
Cd506 O507 2.240 . S
Cd506 O514 2.223 . S
Cd506 O516 2.297 . S
Cd506 O517 2.439 . S
O507 Cd506 2.240 . S
O507 C512 1.279 . S
O508 Cd505 2.297 . S
O508 C510 1.247 . S
O509 Cd505 2.439 . S
O509 C510 1.208 . S
C510 O508 1.247 . S
C510 O509 1.208 . S
C511 O516 1.247 . S
C511 O517 1.208 . S
C512 O504 1.315 . S
C512 O507 1.279 . S
C513 O514 1.315 . S
C513 O515 1.279 . S
O514 Cd506 2.223 . S
O514 C513 1.315 . S
O515 Cd505 2.240 . S
O515 C513 1.279 . S
O516 Cd506 2.297 . S
O516 C511 1.247 . S
O517 Cd506 2.439 . S
O517 C511 1.208 . S
O518 Cd519 2.223 . S
O518 C526 1.315 . S
Cd519 O518 2.223 . S
Cd519 O522 2.297 . S
Cd519 O523 2.439 . S
Cd519 O529 2.240 1_556 S
Cd520 O521 2.236 . S
Cd520 O528 2.223 . S
Cd520 O530 2.297 . S
Cd520 O531 2.439 . S
O521 Cd520 2.236 . S
O521 C526 1.280 1_554 S
O522 Cd519 2.297 . S
O522 C524 1.247 . S
O523 Cd519 2.439 . S
O523 C524 1.208 . S
C524 O522 1.247 . S
C524 O523 1.208 . S
C525 O530 1.247 . S
C525 O531 1.208 . S
C526 O518 1.315 . S
C526 O521 1.280 1_556 S
C527 O528 1.315 . S
C527 O529 1.279 . S
O528 Cd520 2.223 . S
O528 C527 1.315 . S
O529 Cd519 2.240 1_554 S
O529 C527 1.279 . S
O530 Cd520 2.297 . S
O530 C525 1.247 . S
O531 Cd520 2.439 . S
O531 C525 1.208 . S
O532 Cd533 2.223 . S
O532 C540 1.315 . S
Cd533 O532 2.223 . S
Cd533 O536 2.297 . S
Cd533 O537 2.439 . S
Cd533 O543 2.240 . S
Cd534 O535 2.240 . S
Cd534 O542 2.223 . S
Cd534 O544 2.297 . S
Cd534 O545 2.439 . S
O535 Cd534 2.240 . S
O535 C540 1.279 . S
O536 Cd533 2.297 . S
O536 C538 1.247 . S
O537 Cd533 2.439 . S
O537 C538 1.208 . S
C538 O536 1.247 . S
C538 O537 1.208 . S
C539 O544 1.247 . S
C539 O545 1.208 . S
C540 O532 1.315 . S
C540 O535 1.279 . S
C541 O542 1.315 . S
C541 O543 1.279 . S
O542 Cd534 2.223 . S
O542 C541 1.315 . S
O543 Cd533 2.240 . S
O543 C541 1.279 . S
O544 Cd534 2.297 . S
O544 C539 1.247 . S
O545 Cd534 2.439 . S
O545 C539 1.208 . S
O546 Cd547 2.223 . S
O546 C554 1.315 . S
Cd547 O546 2.223 . S
Cd547 O550 2.297 . S
Cd547 O551 2.439 . S
Cd547 O557 2.240 . S
Cd548 O549 2.240 . S
Cd548 O556 2.223 . S
Cd548 O558 2.297 . S
Cd548 O559 2.439 . S
O549 Cd548 2.240 . S
O549 C554 1.279 . S
O550 Cd547 2.297 . S
O550 C552 1.247 . S
O551 Cd547 2.439 . S
O551 C552 1.208 . S
C552 O550 1.247 . S
C552 O551 1.208 . S
C553 O558 1.247 . S
C553 O559 1.208 . S
C554 O546 1.315 . S
C554 O549 1.279 . S
C555 O556 1.315 . S
C555 O557 1.279 . S
O556 Cd548 2.223 . S
O556 C555 1.315 . S
O557 Cd547 2.240 . S
O557 C555 1.279 . S
O558 Cd548 2.297 . S
O558 C553 1.247 . S
O559 Cd548 2.439 . S
O559 C553 1.208 . S
O560 Cd561 2.223 . S
O560 C568 1.315 . S
Cd561 O560 2.223 . S
Cd561 O564 2.297 . S
Cd561 O565 2.439 . S
Cd561 O571 2.240 . S
Cd562 O563 2.240 . S
Cd562 O570 2.223 . S
Cd562 O572 2.297 . S
Cd562 O573 2.439 . S
O563 Cd562 2.240 . S
O563 C568 1.279 . S
O564 Cd561 2.297 . S
O564 C566 1.247 . S
O565 Cd561 2.439 . S
O565 C566 1.208 . S
C566 O564 1.247 . S
C566 O565 1.208 . S
C567 O572 1.247 . S
C567 O573 1.208 . S
C568 O560 1.315 . S
C568 O563 1.279 . S
C569 O570 1.315 . S
C569 O571 1.279 . S
O570 Cd562 2.223 . S
O570 C569 1.315 . S
O571 Cd561 2.240 . S
O571 C569 1.279 . S
O572 Cd562 2.297 . S
O572 C567 1.247 . S
O573 Cd562 2.439 . S
O573 C567 1.208 . S
O574 Cd575 2.223 . S
O574 C582 1.315 . S
Cd575 O574 2.223 . S
Cd575 O578 2.297 . S
Cd575 O579 2.439 . S
Cd575 O585 2.240 . S
Cd576 O577 2.240 . S
Cd576 O584 2.223 . S
Cd576 O586 2.297 . S
Cd576 O587 2.439 . S
O577 Cd576 2.240 . S
O577 C582 1.279 . S
O578 Cd575 2.297 . S
O578 C580 1.247 . S
O579 Cd575 2.439 . S
O579 C580 1.208 . S
C580 O578 1.247 . S
C580 O579 1.208 . S
C581 O586 1.247 . S
C581 O587 1.208 . S
C582 O574 1.315 . S
C582 O577 1.279 . S
C583 O584 1.315 . S
C583 O585 1.279 . S
O584 Cd576 2.223 . S
O584 C583 1.315 . S
O585 Cd575 2.240 . S
O585 C583 1.279 . S
O586 Cd576 2.297 . S
O586 C581 1.247 . S
O587 Cd576 2.439 . S
O587 C581 1.208 . S
O588 Cd589 2.223 . S
O588 C596 1.315 . S
Cd589 O588 2.223 . S
Cd589 O592 2.297 . S
Cd589 O593 2.439 . S
Cd589 O599 2.240 . S
Cd590 O591 2.240 . S
Cd590 O598 2.223 . S
Cd590 O600 2.297 . S
Cd590 O601 2.439 . S
O591 Cd590 2.240 . S
O591 C596 1.279 . S
O592 Cd589 2.297 . S
O592 C594 1.247 . S
O593 Cd589 2.439 . S
O593 C594 1.208 . S
C594 O592 1.247 . S
C594 O593 1.208 . S
C595 O600 1.247 . S
C595 O601 1.208 . S
C596 O588 1.315 . S
C596 O591 1.279 . S
C597 O598 1.315 . S
C597 O599 1.279 . S
O598 Cd590 2.223 . S
O598 C597 1.315 . S
O599 Cd589 2.240 . S
O599 C597 1.279 . S
O600 Cd590 2.297 . S
O600 C595 1.247 . S
O601 Cd590 2.439 . S
O601 C595 1.208 . S
O602 Cd603 2.223 . S
O602 C610 1.315 . S
Cd603 O602 2.223 . S
Cd603 O606 2.297 . S
Cd603 O607 2.439 . S
Cd603 O613 2.240 . S
Cd604 O605 2.240 . S
Cd604 O612 2.223 . S
Cd604 O614 2.297 . S
Cd604 O615 2.439 . S
O605 Cd604 2.240 . S
O605 C610 1.279 . S
O606 Cd603 2.297 . S
O606 C608 1.247 . S
O607 Cd603 2.439 . S
O607 C608 1.208 . S
C608 O606 1.247 . S
C608 O607 1.208 . S
C609 O614 1.247 . S
C609 O615 1.208 . S
C610 O602 1.315 . S
C610 O605 1.279 . S
C611 O612 1.315 . S
C611 O613 1.279 . S
O612 Cd604 2.223 . S
O612 C611 1.315 . S
O613 Cd603 2.240 . S
O613 C611 1.279 . S
O614 Cd604 2.297 . S
O614 C609 1.247 . S
O615 Cd604 2.439 . S
O615 C609 1.208 . S
O616 Cd617 2.223 . S
O616 C624 1.315 . S
Cd617 O616 2.223 . S
Cd617 O620 2.297 . S
Cd617 O621 2.439 . S
Cd617 O627 2.240 . S
Cd618 O619 2.240 . S
Cd618 O626 2.223 . S
Cd618 O628 2.297 . S
Cd618 O629 2.439 . S
O619 Cd618 2.240 . S
O619 C624 1.279 . S
O620 Cd617 2.297 . S
O620 C622 1.247 . S
O621 Cd617 2.439 . S
O621 C622 1.208 . S
C622 O620 1.247 . S
C622 O621 1.208 . S
C623 O628 1.247 . S
C623 O629 1.208 . S
C624 O616 1.315 . S
C624 O619 1.279 . S
C625 O626 1.315 . S
C625 O627 1.279 . S
O626 Cd618 2.223 . S
O626 C625 1.315 . S
O627 Cd617 2.240 . S
O627 C625 1.279 . S
O628 Cd618 2.297 . S
O628 C623 1.247 . S
O629 Cd618 2.439 . S
O629 C623 1.208 . S
O630 Cd631 2.223 1_556 S
O630 C638 1.315 . S
Cd631 O630 2.223 1_554 S
Cd631 O634 2.297 1_554 S
Cd631 O635 2.439 1_554 S
Cd631 O641 2.240 . S
Cd632 O633 2.240 . S
Cd632 O640 2.223 1_556 S
Cd632 O642 2.297 1_556 S
Cd632 O643 2.439 1_556 S
O633 Cd632 2.240 . S
O633 C638 1.279 . S
O634 Cd631 2.297 1_556 S
O634 C636 1.247 . S
O635 Cd631 2.439 1_556 S
O635 C636 1.208 . S
C636 O634 1.247 . S
C636 O635 1.208 . S
C637 O642 1.247 . S
C637 O643 1.208 . S
C638 O630 1.315 . S
C638 O633 1.279 . S
C639 O640 1.315 . S
C639 O641 1.279 . S
O640 Cd632 2.223 1_554 S
O640 C639 1.315 . S
O641 Cd631 2.240 . S
O641 C639 1.279 . S
O642 Cd632 2.297 1_554 S
O642 C637 1.247 . S
O643 Cd632 2.439 1_554 S
O643 C637 1.208 . S
O644 Cd645 2.223 . S
O644 C652 1.315 . S
Cd645 O644 2.223 . S
Cd645 O648 2.297 . S
Cd645 O649 2.439 . S
Cd645 O655 2.240 1_565 S
Cd646 O647 2.236 . S
Cd646 O654 2.223 . S
Cd646 O656 2.297 . S
Cd646 O657 2.439 . S
O647 Cd646 2.236 . S
O647 C652 1.280 1_545 S
O648 Cd645 2.297 . S
O648 C650 1.247 . S
O649 Cd645 2.439 . S
O649 C650 1.208 . S
C650 O648 1.247 . S
C650 O649 1.208 . S
C651 O656 1.247 . S
C651 O657 1.208 . S
C652 O644 1.315 . S
C652 O647 1.280 1_565 S
C653 O654 1.315 . S
C653 O655 1.279 . S
O654 Cd646 2.223 . S
O654 C653 1.315 . S
O655 Cd645 2.240 1_545 S
O655 C653 1.279 . S
O656 Cd646 2.297 . S
O656 C651 1.247 . S
O657 Cd646 2.439 . S
O657 C651 1.208 . S
O658 Cd659 2.223 . S
O658 C666 1.315 . S
Cd659 O658 2.223 . S
Cd659 O662 2.297 . S
Cd659 O663 2.439 . S
Cd659 O669 2.240 . S
Cd660 O661 2.240 . S
Cd660 O668 2.223 . S
Cd660 O670 2.297 . S
Cd660 O671 2.439 . S
O661 Cd660 2.240 . S
O661 C666 1.279 . S
O662 Cd659 2.297 . S
O662 C664 1.247 . S
O663 Cd659 2.439 . S
O663 C664 1.208 . S
C664 O662 1.247 . S
C664 O663 1.208 . S
C665 O670 1.247 . S
C665 O671 1.208 . S
C666 O658 1.315 . S
C666 O661 1.279 . S
C667 O668 1.315 . S
C667 O669 1.279 . S
O668 Cd660 2.223 . S
O668 C667 1.315 . S
O669 Cd659 2.240 . S
O669 C667 1.279 . S
O670 Cd660 2.297 . S
O670 C665 1.247 . S
O671 Cd660 2.439 . S
O671 C665 1.208 . S
H672 C678 0.930 . S
H673 C681 0.930 . S
H674 C682 0.930 . S
H675 C683 0.930 . S
H676 C686 0.930 . S
H677 C687 0.930 . S
C678 H672 0.930 . S
C678 C679 1.355 . S
C678 C680 1.415 . S
C679 C678 1.355 . S
C679 C681 1.419 . S
C680 C678 1.415 . S
C680 C685 1.425 . S
C680 C687 1.409 . S
C681 H673 0.930 . S
C681 C679 1.419 . S
C681 C682 1.362 . S
C682 H674 0.930 . S
C682 C681 1.362 . S
C682 C685 1.409 . S
C683 H675 0.930 . S
C683 C684 1.355 . S
C683 C685 1.415 . S
C684 C683 1.355 . S
C684 C686 1.419 . S
C685 C680 1.425 . S
C685 C682 1.409 . S
C685 C683 1.415 . S
C686 H676 0.930 . S
C686 C684 1.419 . S
C686 C687 1.362 . S
C687 H677 0.930 . S
C687 C680 1.409 . S
C687 C686 1.362 . S
H688 C694 0.930 . S
H689 C697 0.930 . S
H690 C698 0.930 . S
H691 C699 0.930 . S
H692 C702 0.930 . S
H693 C703 0.930 . S
C694 H688 0.930 . S
C694 C695 1.355 . S
C694 C696 1.415 . S
C695 C694 1.355 . S
C695 C697 1.419 . S
C696 C694 1.415 . S
C696 C701 1.425 . S
C696 C703 1.409 . S
C697 H689 0.930 . S
C697 C695 1.419 . S
C697 C698 1.362 . S
C698 H690 0.930 . S
C698 C697 1.362 . S
C698 C701 1.409 . S
C699 H691 0.930 . S
C699 C700 1.355 . S
C699 C701 1.415 . S
C700 C699 1.355 . S
C700 C702 1.419 . S
C701 C696 1.425 . S
C701 C698 1.409 . S
C701 C699 1.415 . S
C702 H692 0.930 . S
C702 C700 1.419 . S
C702 C703 1.362 . S
C703 H693 0.930 . S
C703 C696 1.409 . S
C703 C702 1.362 . S
H704 C710 0.930 . S
H705 C713 0.930 . S
H706 C714 0.930 . S
H707 C715 0.930 . S
H708 C718 0.930 . S
H709 C719 0.930 . S
C710 H704 0.930 . S
C710 C711 1.355 . S
C710 C712 1.415 . S
C711 C710 1.355 . S
C711 C713 1.419 . S
C712 C710 1.415 . S
C712 C717 1.425 . S
C712 C719 1.409 . S
C713 H705 0.930 . S
C713 C711 1.419 . S
C713 C714 1.362 . S
C714 H706 0.930 . S
C714 C713 1.362 . S
C714 C717 1.409 . S
C715 H707 0.930 . S
C715 C716 1.355 . S
C715 C717 1.415 . S
C716 C715 1.355 . S
C716 C718 1.419 . S
C717 C712 1.425 . S
C717 C714 1.409 . S
C717 C715 1.415 . S
C718 H708 0.930 . S
C718 C716 1.419 . S
C718 C719 1.362 . S
C719 H709 0.930 . S
C719 C712 1.409 . S
C719 C718 1.362 . S
H720 C726 0.930 . S
H721 C729 0.930 . S
H722 C730 0.930 . S
H723 C731 0.930 1_556 S
H724 C734 0.930 . S
H725 C735 0.930 . S
C726 H720 0.930 . S
C726 C727 1.355 . S
C726 C728 1.415 . S
C727 C726 1.355 . S
C727 C729 1.419 1_554 S
C728 C726 1.415 . S
C728 C733 1.425 . S
C728 C735 1.409 . S
C729 H721 0.930 . S
C729 C727 1.419 1_556 S
C729 C730 1.362 . S
C730 H722 0.930 . S
C730 C729 1.362 . S
C730 C733 1.409 1_556 S
C731 H723 0.930 1_554 S
C731 C732 1.355 . S
C731 C733 1.415 . S
C732 C731 1.355 . S
C732 C734 1.419 . S
C733 C728 1.425 . S
C733 C730 1.409 1_554 S
C733 C731 1.415 . S
C734 H724 0.930 . S
C734 C732 1.419 . S
C734 C735 1.362 . S
C735 H725 0.930 . S
C735 C728 1.409 . S
C735 C734 1.362 . S
H736 C742 0.930 . S
H737 C745 0.930 . S
H738 C746 0.930 . S
H739 C747 0.930 . S
H740 C750 0.930 . S
H741 C751 0.930 . S
C742 H736 0.930 . S
C742 C743 1.355 . S
C742 C744 1.415 . S
C743 C742 1.355 . S
C743 C745 1.419 . S
C744 C742 1.415 . S
C744 C749 1.425 . S
C744 C751 1.409 . S
C745 H737 0.930 . S
C745 C743 1.419 . S
C745 C746 1.362 . S
C746 H738 0.930 . S
C746 C745 1.362 . S
C746 C749 1.409 . S
C747 H739 0.930 . S
C747 C748 1.355 . S
C747 C749 1.415 . S
C748 C747 1.355 . S
C748 C750 1.419 . S
C749 C744 1.425 . S
C749 C746 1.409 . S
C749 C747 1.415 . S
C750 H740 0.930 . S
C750 C748 1.419 . S
C750 C751 1.362 . S
C751 H741 0.930 . S
C751 C744 1.409 . S
C751 C750 1.362 . S
H752 C758 0.930 . S
H753 C761 0.930 . S
H754 C762 0.930 . S
H755 C763 0.930 . S
H756 C766 0.930 . S
H757 C767 0.930 . S
C758 H752 0.930 . S
C758 C759 1.355 . S
C758 C760 1.415 . S
C759 C758 1.355 . S
C759 C761 1.419 . S
C760 C758 1.415 . S
C760 C765 1.425 . S
C760 C767 1.409 . S
C761 H753 0.930 . S
C761 C759 1.419 . S
C761 C762 1.362 . S
C762 H754 0.930 . S
C762 C761 1.362 . S
C762 C765 1.409 . S
C763 H755 0.930 . S
C763 C764 1.355 . S
C763 C765 1.415 . S
C764 C763 1.355 . S
C764 C766 1.419 . S
C765 C760 1.425 . S
C765 C762 1.409 . S
C765 C763 1.415 . S
C766 H756 0.930 . S
C766 C764 1.419 . S
C766 C767 1.362 . S
C767 H757 0.930 . S
C767 C760 1.409 . S
C767 C766 1.362 . S
H768 C774 0.930 . S
H769 C777 0.930 . S
H770 C778 0.930 . S
H771 C779 0.930 . S
H772 C782 0.930 . S
H773 C783 0.930 . S
C774 H768 0.930 . S
C774 C775 1.355 . S
C774 C776 1.415 . S
C775 C774 1.355 . S
C775 C777 1.419 . S
C776 C774 1.415 . S
C776 C781 1.425 . S
C776 C783 1.409 . S
C777 H769 0.930 . S
C777 C775 1.419 . S
C777 C778 1.362 . S
C778 H770 0.930 . S
C778 C777 1.362 . S
C778 C781 1.409 . S
C779 H771 0.930 . S
C779 C780 1.355 . S
C779 C781 1.415 . S
C780 C779 1.355 . S
C780 C782 1.419 . S
C781 C776 1.425 . S
C781 C778 1.409 . S
C781 C779 1.415 . S
C782 H772 0.930 . S
C782 C780 1.419 . S
C782 C783 1.362 . S
C783 H773 0.930 . S
C783 C776 1.409 . S
C783 C782 1.362 . S
H784 C790 0.930 . S
H785 C793 0.930 . S
H786 C794 0.930 . S
H787 C795 0.930 . S
H788 C798 0.930 . S
H789 C799 0.930 . S
C790 H784 0.930 . S
C790 C791 1.355 . S
C790 C792 1.415 . S
C791 C790 1.355 . S
C791 C793 1.419 . S
C792 C790 1.415 . S
C792 C797 1.425 . S
C792 C799 1.409 . S
C793 H785 0.930 . S
C793 C791 1.419 . S
C793 C794 1.362 . S
C794 H786 0.930 . S
C794 C793 1.362 . S
C794 C797 1.409 . S
C795 H787 0.930 . S
C795 C796 1.355 . S
C795 C797 1.415 . S
C796 C795 1.355 . S
C796 C798 1.419 . S
C797 C792 1.425 . S
C797 C794 1.409 . S
C797 C795 1.415 . S
C798 H788 0.930 . S
C798 C796 1.419 . S
C798 C799 1.362 . S
C799 H789 0.930 . S
C799 C792 1.409 . S
C799 C798 1.362 . S
H800 C806 0.930 . S
H801 C809 0.930 . S
H802 C810 0.930 . S
H803 C811 0.930 . S
H804 C814 0.930 . S
H805 C815 0.930 . S
C806 H800 0.930 . S
C806 C807 1.355 . S
C806 C808 1.415 . S
C807 C806 1.355 . S
C807 C809 1.419 . S
C808 C806 1.415 . S
C808 C813 1.425 . S
C808 C815 1.409 . S
C809 H801 0.930 . S
C809 C807 1.419 . S
C809 C810 1.362 . S
C810 H802 0.930 . S
C810 C809 1.362 . S
C810 C813 1.409 . S
C811 H803 0.930 . S
C811 C812 1.355 . S
C811 C813 1.415 . S
C812 C811 1.355 . S
C812 C814 1.419 . S
C813 C808 1.425 . S
C813 C810 1.409 . S
C813 C811 1.415 . S
C814 H804 0.930 . S
C814 C812 1.419 . S
C814 C815 1.362 . S
C815 H805 0.930 . S
C815 C808 1.409 . S
C815 C814 1.362 . S
H816 C822 0.930 . S
H817 C825 0.930 . S
H818 C826 0.930 . S
H819 C827 0.930 . S
H820 C830 0.930 . S
H821 C831 0.930 . S
C822 H816 0.930 . S
C822 C823 1.355 . S
C822 C824 1.415 . S
C823 C822 1.355 . S
C823 C825 1.419 . S
C824 C822 1.415 . S
C824 C829 1.425 . S
C824 C831 1.409 . S
C825 H817 0.930 . S
C825 C823 1.419 . S
C825 C826 1.362 . S
C826 H818 0.930 . S
C826 C825 1.362 . S
C826 C829 1.409 . S
C827 H819 0.930 . S
C827 C828 1.355 . S
C827 C829 1.415 . S
C828 C827 1.355 . S
C828 C830 1.419 . S
C829 C824 1.425 . S
C829 C826 1.409 . S
C829 C827 1.415 . S
C830 H820 0.930 . S
C830 C828 1.419 . S
C830 C831 1.362 . S
C831 H821 0.930 . S
C831 C824 1.409 . S
C831 C830 1.362 . S
H832 C838 0.930 . S
H833 C841 0.930 . S
H834 C842 0.930 . S
H835 C843 0.930 . S
H836 C846 0.930 . S
H837 C847 0.930 . S
C838 H832 0.930 . S
C838 C839 1.355 . S
C838 C840 1.415 . S
C839 C838 1.355 . S
C839 C841 1.419 . S
C840 C838 1.415 . S
C840 C845 1.425 . S
C840 C847 1.409 . S
C841 H833 0.930 . S
C841 C839 1.419 . S
C841 C842 1.362 . S
C842 H834 0.930 . S
C842 C841 1.362 . S
C842 C845 1.409 . S
C843 H835 0.930 . S
C843 C844 1.355 . S
C843 C845 1.415 . S
C844 C843 1.355 . S
C844 C846 1.419 . S
C845 C840 1.425 . S
C845 C842 1.409 . S
C845 C843 1.415 . S
C846 H836 0.930 . S
C846 C844 1.419 . S
C846 C847 1.362 . S
C847 H837 0.930 . S
C847 C840 1.409 . S
C847 C846 1.362 . S
H848 C854 0.930 . S
H849 C857 0.930 . S
H850 C858 0.930 . S
H851 C859 0.930 . S
H852 C862 0.930 . S
H853 C863 0.930 . S
C854 H848 0.930 . S
C854 C855 1.355 . S
C854 C856 1.415 . S
C855 C854 1.355 . S
C855 C857 1.419 . S
C856 C854 1.415 . S
C856 C861 1.425 . S
C856 C863 1.409 . S
C857 H849 0.930 . S
C857 C855 1.419 . S
C857 C858 1.362 . S
C858 H850 0.930 . S
C858 C857 1.362 . S
C858 C861 1.409 . S
C859 H851 0.930 . S
C859 C860 1.355 . S
C859 C861 1.415 . S
C860 C859 1.355 . S
C860 C862 1.419 . S
C861 C856 1.425 . S
C861 C858 1.409 . S
C861 C859 1.415 . S
C862 H852 0.930 . S
C862 C860 1.419 . S
C862 C863 1.362 . S
C863 H853 0.930 . S
C863 C856 1.409 . S
C863 C862 1.362 . S
H864 C870 0.930 . S
H865 C873 0.930 . S
H866 C874 0.930 . S
H867 C875 0.930 . S
H868 C878 0.930 . S
H869 C879 0.930 . S
C870 H864 0.930 . S
C870 C871 1.355 . S
C870 C872 1.415 . S
C871 C870 1.355 . S
C871 C873 1.419 . S
C872 C870 1.415 . S
C872 C877 1.425 . S
C872 C879 1.409 . S
C873 H865 0.930 . S
C873 C871 1.419 . S
C873 C874 1.362 . S
C874 H866 0.930 . S
C874 C873 1.362 . S
C874 C877 1.409 . S
C875 H867 0.930 . S
C875 C876 1.355 . S
C875 C877 1.415 . S
C876 C875 1.355 . S
C876 C878 1.419 . S
C877 C872 1.425 . S
C877 C874 1.409 . S
C877 C875 1.415 . S
C878 H868 0.930 . S
C878 C876 1.419 . S
C878 C879 1.362 . S
C879 H869 0.930 . S
C879 C872 1.409 . S
C879 C878 1.362 . S
H880 C886 0.930 . S
H881 C889 0.930 . S
H882 C890 0.930 . S
H883 C891 0.930 . S
H884 C894 0.930 . S
H885 C895 0.930 . S
C886 H880 0.930 . S
C886 C887 1.355 . S
C886 C888 1.415 . S
C887 C886 1.355 . S
C887 C889 1.419 . S
C888 C886 1.415 . S
C888 C893 1.425 . S
C888 C895 1.409 . S
C889 H881 0.930 . S
C889 C887 1.419 . S
C889 C890 1.362 . S
C890 H882 0.930 . S
C890 C889 1.362 . S
C890 C893 1.409 . S
C891 H883 0.930 . S
C891 C892 1.355 . S
C891 C893 1.415 . S
C892 C891 1.355 . S
C892 C894 1.419 . S
C893 C888 1.425 . S
C893 C890 1.409 . S
C893 C891 1.415 . S
C894 H884 0.930 . S
C894 C892 1.419 . S
C894 C895 1.362 . S
C895 H885 0.930 . S
C895 C888 1.409 . S
C895 C894 1.362 . S
H896 C902 0.922 1_655 S
H897 C905 0.930 . S
H898 C906 0.930 . S
H899 C907 0.930 . S
H900 C910 0.930 1_655 S
H901 C911 0.907 1_655 S
C902 H896 0.922 1_455 S
C902 C903 1.355 . S
C902 C904 1.415 . S
C903 C902 1.355 . S
C903 C905 1.419 . S
C904 C902 1.415 . S
C904 C909 1.425 . S
C904 C911 1.429 . S
C905 H897 0.930 . S
C905 C903 1.419 . S
C905 C906 1.362 . S
C906 H898 0.930 . S
C906 C905 1.362 . S
C906 C909 1.409 . S
C907 H899 0.930 . S
C907 C908 1.355 . S
C907 C909 1.415 . S
C908 C907 1.355 . S
C908 C910 1.419 . S
C909 C904 1.425 . S
C909 C906 1.409 . S
C909 C907 1.415 . S
C910 H900 0.930 1_455 S
C910 C908 1.419 . S
C910 C911 1.368 . S
C911 H901 0.907 1_455 S
C911 C904 1.429 . S
C911 C910 1.368 . S
H912 C918 0.930 . S
H913 C921 0.930 . S
H914 C922 0.930 . S
H915 C923 0.930 . S
H916 C926 0.930 . S
H917 C927 0.930 . S
C918 H912 0.930 . S
C918 C919 1.355 . S
C918 C920 1.415 . S
C919 C918 1.355 . S
C919 C921 1.419 . S
C920 C918 1.415 . S
C920 C925 1.425 . S
C920 C927 1.409 . S
C921 H913 0.930 . S
C921 C919 1.419 . S
C921 C922 1.362 . S
C922 H914 0.930 . S
C922 C921 1.362 . S
C922 C925 1.409 . S
C923 H915 0.930 . S
C923 C924 1.355 . S
C923 C925 1.415 . S
C924 C923 1.355 . S
C924 C926 1.419 . S
C925 C920 1.425 . S
C925 C922 1.409 . S
C925 C923 1.415 . S
C926 H916 0.930 . S
C926 C924 1.419 . S
C926 C927 1.362 . S
C927 H917 0.930 . S
C927 C920 1.409 . S
C927 C926 1.362 . S
H928 C934 0.930 . S
H929 C937 0.930 . S
H930 C938 0.930 . S
H931 C939 0.930 . S
H932 C942 0.930 . S
H933 C943 0.930 . S
C934 H928 0.930 . S
C934 C935 1.355 . S
C934 C936 1.415 . S
C935 C934 1.355 . S
C935 C937 1.419 . S
C936 C934 1.415 . S
C936 C941 1.425 . S
C936 C943 1.409 . S
C937 H929 0.930 . S
C937 C935 1.419 . S
C937 C938 1.362 . S
C938 H930 0.930 . S
C938 C937 1.362 . S
C938 C941 1.409 . S
C939 H931 0.930 . S
C939 C940 1.355 . S
C939 C941 1.415 . S
C940 C939 1.355 . S
C940 C942 1.419 . S
C941 C936 1.425 . S
C941 C938 1.409 . S
C941 C939 1.415 . S
C942 H932 0.930 . S
C942 C940 1.419 . S
C942 C943 1.362 . S
C943 H933 0.930 . S
C943 C936 1.409 . S
C943 C942 1.362 . S
H944 C950 0.930 . S
H945 C953 0.930 . S
H946 C954 0.930 . S
H947 C955 0.930 . S
H948 C958 0.930 . S
H949 C959 0.930 . S
C950 H944 0.930 . S
C950 C951 1.355 . S
C950 C952 1.415 . S
C951 C950 1.355 . S
C951 C953 1.419 . S
C952 C950 1.415 . S
C952 C957 1.425 . S
C952 C959 1.409 . S
C953 H945 0.930 . S
C953 C951 1.419 . S
C953 C954 1.362 . S
C954 H946 0.930 . S
C954 C953 1.362 . S
C954 C957 1.409 . S
C955 H947 0.930 . S
C955 C956 1.355 . S
C955 C957 1.415 . S
C956 C955 1.355 . S
C956 C958 1.419 . S
C957 C952 1.425 . S
C957 C954 1.409 . S
C957 C955 1.415 . S
C958 H948 0.930 . S
C958 C956 1.419 . S
C958 C959 1.362 . S
C959 H949 0.930 . S
C959 C952 1.409 . S
C959 C958 1.362 . S
H960 C966 0.930 . S
H961 C969 0.930 . S
H962 C970 0.930 . S
H963 C971 0.930 . S
H964 C974 0.930 . S
H965 C975 0.930 . S
C966 H960 0.930 . S
C966 C967 1.355 . S
C966 C968 1.415 . S
C967 C966 1.355 . S
C967 C969 1.419 . S
C968 C966 1.415 . S
C968 C973 1.425 . S
C968 C975 1.409 . S
C969 H961 0.930 . S
C969 C967 1.419 . S
C969 C970 1.362 . S
C970 H962 0.930 . S
C970 C969 1.362 . S
C970 C973 1.409 . S
C971 H963 0.930 . S
C971 C972 1.355 . S
C971 C973 1.415 . S
C972 C971 1.355 . S
C972 C974 1.419 . S
C973 C968 1.425 . S
C973 C970 1.409 . S
C973 C971 1.415 . S
C974 H964 0.930 . S
C974 C972 1.419 . S
C974 C975 1.362 . S
C975 H965 0.930 . S
C975 C968 1.409 . S
C975 C974 1.362 . S
H976 C982 0.930 . S
H977 C985 0.930 . S
H978 C986 0.930 . S
H979 C987 0.930 . S
H980 C990 0.930 . S
H981 C991 0.930 . S
C982 H976 0.930 . S
C982 C983 1.355 . S
C982 C984 1.415 . S
C983 C982 1.355 . S
C983 C985 1.419 . S
C984 C982 1.415 . S
C984 C989 1.425 . S
C984 C991 1.409 . S
C985 H977 0.930 . S
C985 C983 1.419 . S
C985 C986 1.362 . S
C986 H978 0.930 . S
C986 C985 1.362 . S
C986 C989 1.409 . S
C987 H979 0.930 . S
C987 C988 1.355 . S
C987 C989 1.415 . S
C988 C987 1.355 . S
C988 C990 1.419 . S
C989 C984 1.425 . S
C989 C986 1.409 . S
C989 C987 1.415 . S
C990 H980 0.930 . S
C990 C988 1.419 . S
C990 C991 1.362 . S
C991 H981 0.930 . S
C991 C984 1.409 . S
C991 C990 1.362 . S
H992 C998 0.930 . S
H993 C1001 0.930 . S
H994 C1002 0.930 . S
H995 C1003 0.930 . S
H996 C1006 0.930 . S
H997 C1007 0.930 . S
C998 H992 0.930 . S
C998 C999 1.355 . S
C998 C1000 1.415 . S
C999 C998 1.355 . S
C999 C1001 1.419 . S
C1000 C998 1.415 . S
C1000 C1005 1.425 . S
C1000 C1007 1.409 . S
C1001 H993 0.930 . S
C1001 C999 1.419 . S
C1001 C1002 1.362 . S
C1002 H994 0.930 . S
C1002 C1001 1.362 . S
C1002 C1005 1.409 . S
C1003 H995 0.930 . S
C1003 C1004 1.355 . S
C1003 C1005 1.415 . S
C1004 C1003 1.355 . S
C1004 C1006 1.419 . S
C1005 C1000 1.425 . S
C1005 C1002 1.409 . S
C1005 C1003 1.415 . S
C1006 H996 0.930 . S
C1006 C1004 1.419 . S
C1006 C1007 1.362 . S
C1007 H997 0.930 . S
C1007 C1000 1.409 . S
C1007 C1006 1.362 . S
H1008 C1014 0.930 . S
H1009 C1017 0.930 . S
H1010 C1018 0.930 . S
H1011 C1019 0.930 . S
H1012 C1022 0.930 . S
H1013 C1023 0.930 . S
C1014 H1008 0.930 . S
C1014 C1015 1.355 . S
C1014 C1016 1.415 . S
C1015 C1014 1.355 . S
C1015 C1017 1.419 . S
C1016 C1014 1.415 . S
C1016 C1021 1.425 . S
C1016 C1023 1.409 . S
C1017 H1009 0.930 . S
C1017 C1015 1.419 . S
C1017 C1018 1.362 . S
C1018 H1010 0.930 . S
C1018 C1017 1.362 . S
C1018 C1021 1.409 . S
C1019 H1011 0.930 . S
C1019 C1020 1.355 . S
C1019 C1021 1.415 . S
C1020 C1019 1.355 . S
C1020 C1022 1.419 . S
C1021 C1016 1.425 . S
C1021 C1018 1.409 . S
C1021 C1019 1.415 . S
C1022 H1012 0.930 . S
C1022 C1020 1.419 . S
C1022 C1023 1.362 . S
C1023 H1013 0.930 . S
C1023 C1016 1.409 . S
C1023 C1022 1.362 . S
H1024 C1030 0.930 . S
H1025 C1033 0.930 . S
H1026 C1034 0.930 . S
H1027 C1035 0.930 . S
H1028 C1038 0.930 . S
H1029 C1039 0.930 . S
C1030 H1024 0.930 . S
C1030 C1031 1.355 . S
C1030 C1032 1.415 . S
C1031 C1030 1.355 . S
C1031 C1033 1.419 . S
C1032 C1030 1.415 . S
C1032 C1037 1.425 . S
C1032 C1039 1.409 . S
C1033 H1025 0.930 . S
C1033 C1031 1.419 . S
C1033 C1034 1.362 . S
C1034 H1026 0.930 . S
C1034 C1033 1.362 . S
C1034 C1037 1.409 . S
C1035 H1027 0.930 . S
C1035 C1036 1.355 . S
C1035 C1037 1.415 . S
C1036 C1035 1.355 . S
C1036 C1038 1.419 . S
C1037 C1032 1.425 . S
C1037 C1034 1.409 . S
C1037 C1035 1.415 . S
C1038 H1028 0.930 . S
C1038 C1036 1.419 . S
C1038 C1039 1.362 . S
C1039 H1029 0.930 . S
C1039 C1032 1.409 . S
C1039 C1038 1.362 . S
H1040 C1046 0.930 . S
H1041 C1049 0.930 . S
H1042 C1050 0.930 . S
H1043 C1051 0.930 . S
H1044 C1054 0.930 . S
H1045 C1055 0.930 . S
C1046 H1040 0.930 . S
C1046 C1047 1.355 . S
C1046 C1048 1.415 . S
C1047 C1046 1.355 . S
C1047 C1049 1.419 . S
C1048 C1046 1.415 . S
C1048 C1053 1.425 . S
C1048 C1055 1.409 . S
C1049 H1041 0.930 . S
C1049 C1047 1.419 . S
C1049 C1050 1.362 . S
C1050 H1042 0.930 . S
C1050 C1049 1.362 . S
C1050 C1053 1.409 . S
C1051 H1043 0.930 . S
C1051 C1052 1.355 . S
C1051 C1053 1.415 . S
C1052 C1051 1.355 . S
C1052 C1054 1.419 . S
C1053 C1048 1.425 . S
C1053 C1050 1.409 . S
C1053 C1051 1.415 . S
C1054 H1044 0.930 . S
C1054 C1052 1.419 . S
C1054 C1055 1.362 . S
C1055 H1045 0.930 . S
C1055 C1048 1.409 . S
C1055 C1054 1.362 . S
H1056 C1062 0.930 . S
H1057 C1065 0.930 . S
H1058 C1066 0.930 . S
H1059 C1067 0.930 . S
H1060 C1070 0.930 . S
H1061 C1071 0.930 . S
C1062 H1056 0.930 . S
C1062 C1063 1.355 . S
C1062 C1064 1.415 . S
C1063 C1062 1.355 . S
C1063 C1065 1.419 . S
C1064 C1062 1.415 . S
C1064 C1069 1.425 . S
C1064 C1071 1.409 1_655 S
C1065 H1057 0.930 . S
C1065 C1063 1.419 . S
C1065 C1066 1.362 . S
C1066 H1058 0.930 . S
C1066 C1065 1.362 . S
C1066 C1069 1.409 . S
C1067 H1059 0.930 . S
C1067 C1068 1.370 . S
C1067 C1069 1.415 . S
C1068 C1067 1.370 . S
C1068 C1070 1.407 1_655 S
C1069 C1064 1.425 . S
C1069 C1066 1.409 . S
C1069 C1067 1.415 . S
C1070 H1060 0.930 . S
C1070 C1068 1.407 1_455 S
C1070 C1071 1.362 . S
C1071 H1061 0.930 . S
C1071 C1064 1.409 1_455 S
C1071 C1070 1.362 . S
H1072 C1078 0.930 . S
H1073 C1081 0.930 . S
H1074 C1082 0.904 1_455 S
H1075 C1083 0.930 . S
H1076 C1086 0.930 . S
H1077 C1087 0.930 . S
C1078 H1072 0.930 . S
C1078 C1079 1.355 . S
C1078 C1080 1.415 . S
C1079 C1078 1.355 . S
C1079 C1081 1.419 . S
C1080 C1078 1.415 . S
C1080 C1085 1.425 . S
C1080 C1087 1.409 . S
C1081 H1073 0.930 . S
C1081 C1079 1.419 . S
C1081 C1082 1.378 . S
C1082 H1074 0.904 1_655 S
C1082 C1081 1.378 . S
C1082 C1085 1.419 . S
C1083 H1075 0.930 . S
C1083 C1084 1.355 1_455 S
C1083 C1085 1.415 1_455 S
C1084 C1083 1.355 1_655 S
C1084 C1086 1.419 . S
C1085 C1080 1.425 . S
C1085 C1082 1.419 . S
C1085 C1083 1.415 1_655 S
C1086 H1076 0.930 . S
C1086 C1084 1.419 . S
C1086 C1087 1.362 . S
C1087 H1077 0.930 . S
C1087 C1080 1.409 . S
C1087 C1086 1.362 . S
H1088 C1094 0.930 . S
H1089 C1097 0.930 . S
H1090 C1098 0.930 . S
H1091 C1099 0.930 . S
H1092 C1102 0.930 . S
H1093 C1103 0.930 . S
C1094 H1088 0.930 . S
C1094 C1095 1.355 . S
C1094 C1096 1.415 . S
C1095 C1094 1.355 . S
C1095 C1097 1.419 . S
C1096 C1094 1.415 . S
C1096 C1101 1.425 . S
C1096 C1103 1.409 . S
C1097 H1089 0.930 . S
C1097 C1095 1.419 . S
C1097 C1098 1.362 . S
C1098 H1090 0.930 . S
C1098 C1097 1.362 . S
C1098 C1101 1.409 . S
C1099 H1091 0.930 . S
C1099 C1100 1.355 . S
C1099 C1101 1.415 . S
C1100 C1099 1.355 . S
C1100 C1102 1.419 . S
C1101 C1096 1.425 . S
C1101 C1098 1.409 . S
C1101 C1099 1.415 . S
C1102 H1092 0.930 . S
C1102 C1100 1.419 . S
C1102 C1103 1.362 . S
C1103 H1093 0.930 . S
C1103 C1096 1.409 . S
C1103 C1102 1.362 . S
H1104 C1110 0.930 . S
H1105 C1113 0.930 . S
H1106 C1114 0.930 . S
H1107 C1115 0.930 . S
H1108 C1118 0.930 . S
H1109 C1119 0.930 . S
C1110 H1104 0.930 . S
C1110 C1111 1.355 . S
C1110 C1112 1.415 . S
C1111 C1110 1.355 . S
C1111 C1113 1.419 . S
C1112 C1110 1.415 . S
C1112 C1117 1.425 . S
C1112 C1119 1.409 . S
C1113 H1105 0.930 . S
C1113 C1111 1.419 . S
C1113 C1114 1.362 . S
C1114 H1106 0.930 . S
C1114 C1113 1.362 . S
C1114 C1117 1.409 . S
C1115 H1107 0.930 . S
C1115 C1116 1.355 . S
C1115 C1117 1.415 . S
C1116 C1115 1.355 . S
C1116 C1118 1.419 . S
C1117 C1112 1.425 . S
C1117 C1114 1.409 . S
C1117 C1115 1.415 . S
C1118 H1108 0.930 . S
C1118 C1116 1.419 . S
C1118 C1119 1.362 . S
C1119 H1109 0.930 . S
C1119 C1112 1.409 . S
C1119 C1118 1.362 . S
H1120 C1126 0.930 1_545 S
H1121 C1129 0.930 . S
H1122 C1130 0.930 . S
H1123 C1131 0.930 . S
H1124 C1134 0.930 . S
H1125 C1135 0.930 . S
C1126 H1120 0.930 1_565 S
C1126 C1127 1.355 . S
C1126 C1128 1.415 . S
C1127 C1126 1.355 . S
C1127 C1129 1.419 . S
C1128 C1126 1.415 . S
C1128 C1133 1.425 . S
C1128 C1135 1.409 . S
C1129 H1121 0.930 . S
C1129 C1127 1.419 . S
C1129 C1130 1.362 . S
C1130 H1122 0.930 . S
C1130 C1129 1.362 . S
C1130 C1133 1.409 . S
C1131 H1123 0.930 . S
C1131 C1132 1.355 . S
C1131 C1133 1.415 . S
C1132 C1131 1.355 . S
C1132 C1134 1.419 . S
C1133 C1128 1.425 . S
C1133 C1130 1.409 . S
C1133 C1131 1.415 . S
C1134 H1124 0.930 . S
C1134 C1132 1.419 . S
C1134 C1135 1.362 . S
C1135 H1125 0.930 . S
C1135 C1128 1.409 . S
C1135 C1134 1.362 . S
H1136 C1142 0.930 . S
H1137 C1145 0.930 . S
H1138 C1146 0.930 . S
H1139 C1147 0.930 . S
H1140 C1150 0.930 . S
H1141 C1151 0.930 . S
C1142 H1136 0.930 . S
C1142 C1143 1.355 . S
C1142 C1144 1.415 . S
C1143 C1142 1.355 . S
C1143 C1145 1.419 . S
C1144 C1142 1.415 . S
C1144 C1149 1.425 . S
C1144 C1151 1.409 . S
C1145 H1137 0.930 . S
C1145 C1143 1.419 . S
C1145 C1146 1.362 . S
C1146 H1138 0.930 . S
C1146 C1145 1.362 . S
C1146 C1149 1.409 . S
C1147 H1139 0.930 . S
C1147 C1148 1.355 . S
C1147 C1149 1.415 . S
C1148 C1147 1.355 . S
C1148 C1150 1.419 . S
C1149 C1144 1.425 . S
C1149 C1146 1.409 . S
C1149 C1147 1.415 . S
C1150 H1140 0.930 . S
C1150 C1148 1.419 . S
C1150 C1151 1.362 . S
C1151 H1141 0.930 . S
C1151 C1144 1.409 . S
C1151 C1150 1.362 . S
H1152 C1158 0.930 . S
H1153 C1161 0.930 . S
H1154 C1162 0.930 . S
H1155 C1163 0.930 . S
H1156 C1166 0.930 . S
H1157 C1167 0.930 . S
C1158 H1152 0.930 . S
C1158 C1159 1.355 . S
C1158 C1160 1.415 . S
C1159 C1158 1.355 . S
C1159 C1161 1.419 . S
C1160 C1158 1.415 . S
C1160 C1165 1.425 . S
C1160 C1167 1.409 . S
C1161 H1153 0.930 . S
C1161 C1159 1.419 . S
C1161 C1162 1.362 . S
C1162 H1154 0.930 . S
C1162 C1161 1.362 . S
C1162 C1165 1.409 . S
C1163 H1155 0.930 . S
C1163 C1164 1.355 . S
C1163 C1165 1.415 . S
C1164 C1163 1.355 . S
C1164 C1166 1.419 . S
C1165 C1160 1.425 . S
C1165 C1162 1.409 . S
C1165 C1163 1.415 . S
C1166 H1156 0.930 . S
C1166 C1164 1.419 . S
C1166 C1167 1.362 . S
C1167 H1157 0.930 . S
C1167 C1160 1.409 . S
C1167 C1166 1.362 . S
H1168 C1174 0.930 . S
H1169 C1177 0.930 . S
H1170 C1178 0.930 . S
H1171 C1179 0.930 . S
H1172 C1182 0.930 . S
H1173 C1183 0.930 . S
C1174 H1168 0.930 . S
C1174 C1175 1.355 . S
C1174 C1176 1.415 . S
C1175 C1174 1.355 . S
C1175 C1177 1.419 . S
C1176 C1174 1.415 . S
C1176 C1181 1.425 . S
C1176 C1183 1.409 . S
C1177 H1169 0.930 . S
C1177 C1175 1.419 . S
C1177 C1178 1.362 . S
C1178 H1170 0.930 . S
C1178 C1177 1.362 . S
C1178 C1181 1.409 . S
C1179 H1171 0.930 . S
C1179 C1180 1.355 . S
C1179 C1181 1.415 . S
C1180 C1179 1.355 . S
C1180 C1182 1.419 . S
C1181 C1176 1.425 . S
C1181 C1178 1.409 . S
C1181 C1179 1.415 . S
C1182 H1172 0.930 . S
C1182 C1180 1.419 . S
C1182 C1183 1.362 . S
C1183 H1173 0.930 . S
C1183 C1176 1.409 . S
C1183 C1182 1.362 . S
H1184 C1190 0.930 . S
H1185 C1193 0.930 . S
H1186 C1194 0.930 . S
H1187 C1195 0.930 . S
H1188 C1198 0.930 . S
H1189 C1199 0.930 . S
C1190 H1184 0.930 . S
C1190 C1191 1.355 . S
C1190 C1192 1.415 . S
C1191 C1190 1.355 . S
C1191 C1193 1.419 . S
C1192 C1190 1.415 . S
C1192 C1197 1.425 . S
C1192 C1199 1.409 . S
C1193 H1185 0.930 . S
C1193 C1191 1.419 . S
C1193 C1194 1.362 . S
C1194 H1186 0.930 . S
C1194 C1193 1.362 . S
C1194 C1197 1.409 . S
C1195 H1187 0.930 . S
C1195 C1196 1.355 . S
C1195 C1197 1.415 . S
C1196 C1195 1.355 . S
C1196 C1198 1.419 . S
C1197 C1192 1.425 . S
C1197 C1194 1.409 . S
C1197 C1195 1.415 . S
C1198 H1188 0.930 . S
C1198 C1196 1.419 . S
C1198 C1199 1.362 . S
C1199 H1189 0.930 . S
C1199 C1192 1.409 . S
C1199 C1198 1.362 . S
H1200 C1206 0.930 . S
H1201 C1209 0.930 . S
H1202 C1210 0.930 . S
H1203 C1211 0.930 . S
H1204 C1214 0.930 . S
H1205 C1215 0.930 . S
C1206 H1200 0.930 . S
C1206 C1207 1.355 . S
C1206 C1208 1.415 . S
C1207 C1206 1.355 . S
C1207 C1209 1.419 . S
C1208 C1206 1.415 . S
C1208 C1213 1.425 . S
C1208 C1215 1.409 . S
C1209 H1201 0.930 . S
C1209 C1207 1.419 . S
C1209 C1210 1.362 . S
C1210 H1202 0.930 . S
C1210 C1209 1.362 . S
C1210 C1213 1.409 . S
C1211 H1203 0.930 . S
C1211 C1212 1.355 . S
C1211 C1213 1.415 . S
C1212 C1211 1.355 . S
C1212 C1214 1.419 . S
C1213 C1208 1.425 . S
C1213 C1210 1.409 . S
C1213 C1211 1.415 . S
C1214 H1204 0.930 . S
C1214 C1212 1.419 . S
C1214 C1215 1.362 . S
C1215 H1205 0.930 . S
C1215 C1208 1.409 . S
C1215 C1214 1.362 . S
H1216 C1222 0.930 . S
H1217 C1225 0.930 . S
H1218 C1226 0.930 1_545 S
H1219 C1227 0.889 1_545 S
H1220 C1230 0.930 . S
H1221 C1231 0.930 . S
C1222 H1216 0.930 . S
C1222 C1223 1.355 . S
C1222 C1224 1.415 . S
C1223 C1222 1.355 . S
C1223 C1225 1.419 . S
C1224 C1222 1.415 . S
C1224 C1229 1.425 . S
C1224 C1231 1.409 . S
C1225 H1217 0.930 . S
C1225 C1223 1.419 . S
C1225 C1226 1.362 . S
C1226 H1218 0.930 1_565 S
C1226 C1225 1.362 . S
C1226 C1229 1.409 . S
C1227 H1219 0.889 1_565 S
C1227 C1228 1.367 . S
C1227 C1229 1.446 . S
C1228 C1227 1.367 . S
C1228 C1230 1.419 . S
C1229 C1224 1.425 . S
C1229 C1226 1.409 . S
C1229 C1227 1.446 . S
C1230 H1220 0.930 . S
C1230 C1228 1.419 . S
C1230 C1231 1.362 . S
C1231 H1221 0.930 . S
C1231 C1224 1.409 . S
C1231 C1230 1.362 . S
H1232 C1238 0.930 . S
H1233 C1241 0.930 . S
H1234 C1242 0.930 . S
H1235 C1243 0.930 . S
H1236 C1246 0.930 . S
H1237 C1247 0.930 . S
C1238 H1232 0.930 . S
C1238 C1239 1.388 . S
C1238 C1240 1.415 . S
C1239 C1238 1.388 . S
C1239 C1241 1.399 1_556 S
C1240 C1238 1.415 . S
C1240 C1245 1.425 . S
C1240 C1247 1.409 . S
C1241 H1233 0.930 . S
C1241 C1239 1.399 1_554 S
C1241 C1242 1.362 . S
C1242 H1234 0.930 . S
C1242 C1241 1.362 . S
C1242 C1245 1.409 1_554 S
C1243 H1235 0.930 . S
C1243 C1244 1.355 . S
C1243 C1245 1.415 . S
C1244 C1243 1.355 . S
C1244 C1246 1.419 . S
C1245 C1240 1.425 . S
C1245 C1242 1.409 1_556 S
C1245 C1243 1.415 . S
C1246 H1236 0.930 . S
C1246 C1244 1.419 . S
C1246 C1247 1.362 . S
C1247 H1237 0.930 . S
C1247 C1240 1.409 . S
C1247 C1246 1.362 . S
H1248 C1254 0.930 . S
H1249 C1257 0.930 . S
H1250 C1258 0.930 . S
H1251 C1259 0.930 . S
H1252 C1262 0.930 . S
H1253 C1263 0.930 . S
C1254 H1248 0.930 . S
C1254 C1255 1.355 . S
C1254 C1256 1.415 . S
C1255 C1254 1.355 . S
C1255 C1257 1.419 . S
C1256 C1254 1.415 . S
C1256 C1261 1.425 . S
C1256 C1263 1.409 . S
C1257 H1249 0.930 . S
C1257 C1255 1.419 . S
C1257 C1258 1.362 . S
C1258 H1250 0.930 . S
C1258 C1257 1.362 . S
C1258 C1261 1.409 . S
C1259 H1251 0.930 . S
C1259 C1260 1.355 . S
C1259 C1261 1.415 . S
C1260 C1259 1.355 . S
C1260 C1262 1.419 . S
C1261 C1256 1.425 . S
C1261 C1258 1.409 . S
C1261 C1259 1.415 . S
C1262 H1252 0.930 . S
C1262 C1260 1.419 . S
C1262 C1263 1.362 . S
C1263 H1253 0.930 . S
C1263 C1256 1.409 . S
C1263 C1262 1.362 . S
H1264 C1270 0.930 . S
H1265 C1273 0.930 . S
H1266 C1274 0.930 . S
H1267 C1275 0.930 . S
H1268 C1278 0.930 . S
H1269 C1279 0.930 . S
C1270 H1264 0.930 . S
C1270 C1271 1.355 . S
C1270 C1272 1.415 . S
C1271 C1270 1.355 . S
C1271 C1273 1.419 . S
C1272 C1270 1.415 . S
C1272 C1277 1.425 . S
C1272 C1279 1.409 . S
C1273 H1265 0.930 . S
C1273 C1271 1.419 . S
C1273 C1274 1.362 . S
C1274 H1266 0.930 . S
C1274 C1273 1.362 . S
C1274 C1277 1.409 . S
C1275 H1267 0.930 . S
C1275 C1276 1.355 . S
C1275 C1277 1.415 . S
C1276 C1275 1.355 . S
C1276 C1278 1.419 . S
C1277 C1272 1.425 . S
C1277 C1274 1.409 . S
C1277 C1275 1.415 . S
C1278 H1268 0.930 . S
C1278 C1276 1.419 . S
C1278 C1279 1.362 . S
C1279 H1269 0.930 . S
C1279 C1272 1.409 . S
C1279 C1278 1.362 . S
H1280 C1286 0.930 . S
H1281 C1289 0.930 . S
H1282 C1290 0.930 . S
H1283 C1291 0.930 . S
H1284 C1294 0.930 . S
H1285 C1295 0.930 . S
C1286 H1280 0.930 . S
C1286 C1287 1.355 . S
C1286 C1288 1.415 . S
C1287 C1286 1.355 . S
C1287 C1289 1.419 . S
C1288 C1286 1.415 . S
C1288 C1293 1.425 . S
C1288 C1295 1.409 . S
C1289 H1281 0.930 . S
C1289 C1287 1.419 . S
C1289 C1290 1.362 . S
C1290 H1282 0.930 . S
C1290 C1289 1.362 . S
C1290 C1293 1.409 . S
C1291 H1283 0.930 . S
C1291 C1292 1.355 . S
C1291 C1293 1.415 . S
C1292 C1291 1.355 . S
C1292 C1294 1.419 . S
C1293 C1288 1.425 . S
C1293 C1290 1.409 . S
C1293 C1291 1.415 . S
C1294 H1284 0.930 . S
C1294 C1292 1.419 . S
C1294 C1295 1.362 . S
C1295 H1285 0.930 . S
C1295 C1288 1.409 . S
C1295 C1294 1.362 . S
H1296 C1302 0.930 . S
H1297 C1305 0.930 . S
H1298 C1306 0.930 . S
H1299 C1307 0.930 . S
H1300 C1310 0.930 . S
H1301 C1311 0.930 . S
C1302 H1296 0.930 . S
C1302 C1303 1.355 . S
C1302 C1304 1.415 . S
C1303 C1302 1.355 . S
C1303 C1305 1.419 . S
C1304 C1302 1.415 . S
C1304 C1309 1.425 . S
C1304 C1311 1.409 . S
C1305 H1297 0.930 . S
C1305 C1303 1.419 . S
C1305 C1306 1.362 . S
C1306 H1298 0.930 . S
C1306 C1305 1.362 . S
C1306 C1309 1.409 . S
C1307 H1299 0.930 . S
C1307 C1308 1.355 . S
C1307 C1309 1.415 . S
C1308 C1307 1.355 . S
C1308 C1310 1.419 . S
C1309 C1304 1.425 . S
C1309 C1306 1.409 . S
C1309 C1307 1.415 . S
C1310 H1300 0.930 . S
C1310 C1308 1.419 . S
C1310 C1311 1.362 . S
C1311 H1301 0.930 . S
C1311 C1304 1.409 . S
C1311 C1310 1.362 . S
H1312 C1318 0.930 . S
H1313 C1321 0.930 . S
H1314 C1322 0.930 . S
H1315 C1323 0.930 . S
H1316 C1326 0.930 . S
H1317 C1327 0.930 . S
C1318 H1312 0.930 . S
C1318 C1319 1.355 . S
C1318 C1320 1.415 . S
C1319 C1318 1.355 . S
C1319 C1321 1.419 . S
C1320 C1318 1.415 . S
C1320 C1325 1.425 . S
C1320 C1327 1.409 . S
C1321 H1313 0.930 . S
C1321 C1319 1.419 . S
C1321 C1322 1.362 . S
C1322 H1314 0.930 . S
C1322 C1321 1.362 . S
C1322 C1325 1.409 . S
C1323 H1315 0.930 . S
C1323 C1324 1.355 . S
C1323 C1325 1.415 . S
C1324 C1323 1.355 . S
C1324 C1326 1.419 . S
C1325 C1320 1.425 . S
C1325 C1322 1.409 . S
C1325 C1323 1.415 . S
C1326 H1316 0.930 . S
C1326 C1324 1.419 . S
C1326 C1327 1.362 . S
C1327 H1317 0.930 . S
C1327 C1320 1.409 . S
C1327 C1326 1.362 . S
H1328 C1334 0.930 . S
H1329 C1337 0.930 . S
H1330 C1338 0.930 . S
H1331 C1339 0.930 . S
H1332 C1342 0.930 . S
H1333 C1343 0.930 . S
C1334 H1328 0.930 . S
C1334 C1335 1.355 . S
C1334 C1336 1.415 . S
C1335 C1334 1.355 . S
C1335 C1337 1.419 . S
C1336 C1334 1.415 . S
C1336 C1341 1.425 . S
C1336 C1343 1.409 . S
C1337 H1329 0.930 . S
C1337 C1335 1.419 . S
C1337 C1338 1.362 . S
C1338 H1330 0.930 . S
C1338 C1337 1.362 . S
C1338 C1341 1.409 . S
C1339 H1331 0.930 . S
C1339 C1340 1.355 . S
C1339 C1341 1.415 . S
C1340 C1339 1.355 . S
C1340 C1342 1.419 . S
C1341 C1336 1.425 . S
C1341 C1338 1.409 . S
C1341 C1339 1.415 . S
C1342 H1332 0.930 . S
C1342 C1340 1.419 . S
C1342 C1343 1.362 . S
C1343 H1333 0.930 . S
C1343 C1336 1.409 . S
C1343 C1342 1.362 . S
H1344 C1350 0.930 . S
H1345 C1353 0.930 . S
H1346 C1354 0.930 . S
H1347 C1355 0.930 . S
H1348 C1358 0.930 . S
H1349 C1359 0.930 . S
C1350 H1344 0.930 . S
C1350 C1351 1.355 . S
C1350 C1352 1.415 . S
C1351 C1350 1.355 . S
C1351 C1353 1.419 . S
C1352 C1350 1.415 . S
C1352 C1357 1.425 . S
C1352 C1359 1.409 . S
C1353 H1345 0.930 . S
C1353 C1351 1.419 . S
C1353 C1354 1.362 . S
C1354 H1346 0.930 . S
C1354 C1353 1.362 . S
C1354 C1357 1.409 . S
C1355 H1347 0.930 . S
C1355 C1356 1.355 . S
C1355 C1357 1.415 . S
C1356 C1355 1.355 . S
C1356 C1358 1.419 . S
C1357 C1352 1.425 . S
C1357 C1354 1.409 . S
C1357 C1355 1.415 . S
C1358 H1348 0.930 . S
C1358 C1356 1.419 . S
C1358 C1359 1.362 . S
C1359 H1349 0.930 . S
C1359 C1352 1.409 . S
C1359 C1358 1.362 . S
H1360 C1366 0.930 . S
H1361 C1369 0.930 . S
H1362 C1370 0.930 . S
H1363 C1371 0.930 . S
H1364 C1374 0.930 . S
H1365 C1375 0.930 . S
C1366 H1360 0.930 . S
C1366 C1367 1.355 . S
C1366 C1368 1.415 . S
C1367 C1366 1.355 . S
C1367 C1369 1.419 . S
C1368 C1366 1.415 . S
C1368 C1373 1.425 . S
C1368 C1375 1.409 . S
C1369 H1361 0.930 . S
C1369 C1367 1.419 . S
C1369 C1370 1.362 . S
C1370 H1362 0.930 . S
C1370 C1369 1.362 . S
C1370 C1373 1.409 . S
C1371 H1363 0.930 . S
C1371 C1372 1.355 . S
C1371 C1373 1.415 . S
C1372 C1371 1.355 . S
C1372 C1374 1.419 . S
C1373 C1368 1.425 . S
C1373 C1370 1.409 . S
C1373 C1371 1.415 . S
C1374 H1364 0.930 . S
C1374 C1372 1.419 . S
C1374 C1375 1.362 . S
C1375 H1365 0.930 . S
C1375 C1368 1.409 . S
C1375 C1374 1.362 . S
H1376 C1382 0.930 . S
H1377 C1385 0.930 . S
H1378 C1386 0.930 . S
H1379 C1387 0.930 . S
H1380 C1390 0.930 . S
H1381 C1391 0.930 . S
C1382 H1376 0.930 . S
C1382 C1383 1.355 . S
C1382 C1384 1.415 . S
C1383 C1382 1.355 . S
C1383 C1385 1.419 . S
C1384 C1382 1.415 . S
C1384 C1389 1.425 . S
C1384 C1391 1.409 . S
C1385 H1377 0.930 . S
C1385 C1383 1.419 . S
C1385 C1386 1.362 . S
C1386 H1378 0.930 . S
C1386 C1385 1.362 . S
C1386 C1389 1.409 . S
C1387 H1379 0.930 . S
C1387 C1388 1.355 . S
C1387 C1389 1.415 . S
C1388 C1387 1.355 . S
C1388 C1390 1.419 . S
C1389 C1384 1.425 . S
C1389 C1386 1.409 . S
C1389 C1387 1.415 . S
C1390 H1380 0.930 . S
C1390 C1388 1.419 . S
C1390 C1391 1.362 . S
C1391 H1381 0.930 . S
C1391 C1384 1.409 . S
C1391 C1390 1.362 . S
H1392 C1398 0.930 . S
H1393 C1401 0.930 . S
H1394 C1402 0.930 . S
H1395 C1403 0.930 . S
H1396 C1406 0.930 . S
H1397 C1407 0.930 . S
C1398 H1392 0.930 . S
C1398 C1399 1.355 . S
C1398 C1400 1.415 . S
C1399 C1398 1.355 . S
C1399 C1401 1.419 . S
C1400 C1398 1.415 . S
C1400 C1405 1.425 . S
C1400 C1407 1.409 . S
C1401 H1393 0.930 . S
C1401 C1399 1.419 . S
C1401 C1402 1.362 . S
C1402 H1394 0.930 . S
C1402 C1401 1.362 . S
C1402 C1405 1.409 . S
C1403 H1395 0.930 . S
C1403 C1404 1.355 . S
C1403 C1405 1.415 . S
C1404 C1403 1.355 . S
C1404 C1406 1.419 . S
C1405 C1400 1.425 . S
C1405 C1402 1.409 . S
C1405 C1403 1.415 . S
C1406 H1396 0.930 . S
C1406 C1404 1.419 . S
C1406 C1407 1.362 . S
C1407 H1397 0.930 . S
C1407 C1400 1.409 . S
C1407 C1406 1.362 . S
H1408 C1414 0.930 . S
H1409 C1417 0.930 . S
H1410 C1418 0.930 . S
H1411 C1419 0.930 . S
H1412 C1422 0.930 . S
H1413 C1423 0.930 . S
C1414 H1408 0.930 . S
C1414 C1415 1.355 . S
C1414 C1416 1.415 . S
C1415 C1414 1.355 . S
C1415 C1417 1.419 . S
C1416 C1414 1.415 . S
C1416 C1421 1.425 . S
C1416 C1423 1.409 1_556 S
C1417 H1409 0.930 . S
C1417 C1415 1.419 . S
C1417 C1418 1.362 . S
C1418 H1410 0.930 . S
C1418 C1417 1.362 . S
C1418 C1421 1.409 . S
C1419 H1411 0.930 . S
C1419 C1420 1.416 . S
C1419 C1421 1.415 . S
C1420 C1419 1.416 . S
C1420 C1422 1.375 1_556 S
C1421 C1416 1.425 . S
C1421 C1418 1.409 . S
C1421 C1419 1.415 . S
C1422 H1412 0.930 . S
C1422 C1420 1.375 1_554 S
C1422 C1423 1.362 . S
C1423 H1413 0.930 . S
C1423 C1416 1.409 1_554 S
C1423 C1422 1.362 . S
H1424 C1430 0.930 . S
H1425 C1433 0.930 . S
H1426 C1434 0.930 . S
H1427 C1435 0.930 . S
H1428 C1438 0.930 . S
H1429 C1439 0.930 . S
C1430 H1424 0.930 . S
C1430 C1431 1.355 . S
C1430 C1432 1.415 . S
C1431 C1430 1.355 . S
C1431 C1433 1.419 . S
C1432 C1430 1.415 . S
C1432 C1437 1.425 . S
C1432 C1439 1.409 . S
C1433 H1425 0.930 . S
C1433 C1431 1.419 . S
C1433 C1434 1.362 . S
C1434 H1426 0.930 . S
C1434 C1433 1.362 . S
C1434 C1437 1.409 . S
C1435 H1427 0.930 . S
C1435 C1436 1.355 . S
C1435 C1437 1.415 . S
C1436 C1435 1.355 . S
C1436 C1438 1.419 . S
C1437 C1432 1.425 . S
C1437 C1434 1.409 . S
C1437 C1435 1.415 . S
C1438 H1428 0.930 . S
C1438 C1436 1.419 . S
C1438 C1439 1.362 . S
C1439 H1429 0.930 . S
C1439 C1432 1.409 . S
C1439 C1438 1.362 . S
H1440 C1446 0.930 . S
H1441 C1449 0.930 . S
H1442 C1450 0.930 . S
H1443 C1451 0.930 . S
H1444 C1454 0.930 . S
H1445 C1455 0.930 . S
C1446 H1440 0.930 . S
C1446 C1447 1.355 . S
C1446 C1448 1.415 . S
C1447 C1446 1.355 . S
C1447 C1449 1.419 . S
C1448 C1446 1.415 . S
C1448 C1453 1.425 . S
C1448 C1455 1.409 . S
C1449 H1441 0.930 . S
C1449 C1447 1.419 . S
C1449 C1450 1.362 . S
C1450 H1442 0.930 . S
C1450 C1449 1.362 . S
C1450 C1453 1.409 . S
C1451 H1443 0.930 . S
C1451 C1452 1.355 . S
C1451 C1453 1.415 . S
C1452 C1451 1.355 . S
C1452 C1454 1.419 . S
C1453 C1448 1.425 . S
C1453 C1450 1.409 . S
C1453 C1451 1.415 . S
C1454 H1444 0.930 . S
C1454 C1452 1.419 . S
C1454 C1455 1.362 . S
C1455 H1445 0.930 . S
C1455 C1448 1.409 . S
C1455 C1454 1.362 . S
H1456 C1462 0.930 . S
H1457 C1465 0.930 . S
H1458 C1466 0.930 . S
H1459 C1467 0.930 . S
H1460 C1470 0.930 . S
H1461 C1471 0.930 . S
C1462 H1456 0.930 . S
C1462 C1463 1.355 . S
C1462 C1464 1.415 . S
C1463 C1462 1.355 . S
C1463 C1465 1.419 . S
C1464 C1462 1.415 . S
C1464 C1469 1.425 . S
C1464 C1471 1.409 . S
C1465 H1457 0.930 . S
C1465 C1463 1.419 . S
C1465 C1466 1.362 . S
C1466 H1458 0.930 . S
C1466 C1465 1.362 . S
C1466 C1469 1.409 . S
C1467 H1459 0.930 . S
C1467 C1468 1.355 . S
C1467 C1469 1.415 . S
C1468 C1467 1.355 . S
C1468 C1470 1.419 . S
C1469 C1464 1.425 . S
C1469 C1466 1.409 . S
C1469 C1467 1.415 . S
C1470 H1460 0.930 . S
C1470 C1468 1.419 . S
C1470 C1471 1.362 . S
C1471 H1461 0.930 . S
C1471 C1464 1.409 . S
C1471 C1470 1.362 . S
H1472 C1478 0.930 . S
H1473 C1481 0.930 . S
H1474 C1482 0.930 . S
H1475 C1483 0.930 . S
H1476 C1486 0.930 . S
H1477 C1487 0.930 . S
C1478 H1472 0.930 . S
C1478 C1479 1.355 . S
C1478 C1480 1.415 . S
C1479 C1478 1.355 . S
C1479 C1481 1.419 . S
C1480 C1478 1.415 . S
C1480 C1485 1.425 . S
C1480 C1487 1.409 . S
C1481 H1473 0.930 . S
C1481 C1479 1.419 . S
C1481 C1482 1.362 . S
C1482 H1474 0.930 . S
C1482 C1481 1.362 . S
C1482 C1485 1.409 . S
C1483 H1475 0.930 . S
C1483 C1484 1.355 . S
C1483 C1485 1.415 . S
C1484 C1483 1.355 . S
C1484 C1486 1.419 . S
C1485 C1480 1.425 . S
C1485 C1482 1.409 . S
C1485 C1483 1.415 . S
C1486 H1476 0.930 . S
C1486 C1484 1.419 . S
C1486 C1487 1.362 . S
C1487 H1477 0.930 . S
C1487 C1480 1.409 . S
C1487 C1486 1.362 . S
H1488 C1494 0.930 . S
H1489 C1497 0.930 . S
H1490 C1498 0.930 . S
H1491 C1499 0.930 . S
H1492 C1502 0.930 . S
H1493 C1503 0.930 . S
C1494 H1488 0.930 . S
C1494 C1495 1.355 . S
C1494 C1496 1.415 . S
C1495 C1494 1.355 . S
C1495 C1497 1.419 . S
C1496 C1494 1.415 . S
C1496 C1501 1.425 . S
C1496 C1503 1.409 . S
C1497 H1489 0.930 . S
C1497 C1495 1.419 . S
C1497 C1498 1.362 . S
C1498 H1490 0.930 . S
C1498 C1497 1.362 . S
C1498 C1501 1.409 . S
C1499 H1491 0.930 . S
C1499 C1500 1.355 . S
C1499 C1501 1.415 . S
C1500 C1499 1.355 . S
C1500 C1502 1.419 . S
C1501 C1496 1.425 . S
C1501 C1498 1.409 . S
C1501 C1499 1.415 . S
C1502 H1492 0.930 . S
C1502 C1500 1.419 . S
C1502 C1503 1.362 . S
C1503 H1493 0.930 . S
C1503 C1496 1.409 . S
C1503 C1502 1.362 . S
H1504 C1510 0.930 . S
H1505 C1513 0.930 . S
H1506 C1514 0.930 . S
H1507 C1515 0.930 . S
H1508 C1518 0.930 . S
H1509 C1519 0.930 . S
C1510 H1504 0.930 . S
C1510 C1511 1.355 . S
C1510 C1512 1.415 . S
C1511 C1510 1.355 . S
C1511 C1513 1.419 . S
C1512 C1510 1.415 . S
C1512 C1517 1.425 . S
C1512 C1519 1.409 . S
C1513 H1505 0.930 . S
C1513 C1511 1.419 . S
C1513 C1514 1.362 . S
C1514 H1506 0.930 . S
C1514 C1513 1.362 . S
C1514 C1517 1.409 . S
C1515 H1507 0.930 . S
C1515 C1516 1.355 . S
C1515 C1517 1.415 . S
C1516 C1515 1.355 . S
C1516 C1518 1.419 . S
C1517 C1512 1.425 . S
C1517 C1514 1.409 . S
C1517 C1515 1.415 . S
C1518 H1508 0.930 . S
C1518 C1516 1.419 . S
C1518 C1519 1.362 . S
C1519 H1509 0.930 . S
C1519 C1512 1.409 . S
C1519 C1518 1.362 . S
H1520 C1526 0.930 . S
H1521 C1529 0.930 . S
H1522 C1530 0.930 . S
H1523 C1531 0.930 . S
H1524 C1534 0.930 . S
H1525 C1535 0.930 . S
C1526 H1520 0.930 . S
C1526 C1527 1.355 . S
C1526 C1528 1.415 . S
C1527 C1526 1.355 . S
C1527 C1529 1.419 . S
C1528 C1526 1.415 . S
C1528 C1533 1.425 . S
C1528 C1535 1.409 . S
C1529 H1521 0.930 . S
C1529 C1527 1.419 . S
C1529 C1530 1.362 . S
C1530 H1522 0.930 . S
C1530 C1529 1.362 . S
C1530 C1533 1.409 . S
C1531 H1523 0.930 . S
C1531 C1532 1.355 . S
C1531 C1533 1.415 . S
C1532 C1531 1.355 . S
C1532 C1534 1.419 . S
C1533 C1528 1.425 . S
C1533 C1530 1.409 . S
C1533 C1531 1.415 . S
C1534 H1524 0.930 . S
C1534 C1532 1.419 . S
C1534 C1535 1.362 . S
C1535 H1525 0.930 . S
C1535 C1528 1.409 . S
C1535 C1534 1.362 . S
H1536 C1542 0.930 . S
H1537 C1545 0.930 . S
H1538 C1546 0.930 . S
H1539 C1547 0.930 . S
H1540 C1550 0.930 . S
H1541 C1551 0.930 . S
C1542 H1536 0.930 . S
C1542 C1543 1.355 . S
C1542 C1544 1.415 . S
C1543 C1542 1.355 . S
C1543 C1545 1.419 . S
C1544 C1542 1.415 . S
C1544 C1549 1.425 . S
C1544 C1551 1.409 . S
C1545 H1537 0.930 . S
C1545 C1543 1.419 . S
C1545 C1546 1.362 . S
C1546 H1538 0.930 . S
C1546 C1545 1.362 . S
C1546 C1549 1.409 . S
C1547 H1539 0.930 . S
C1547 C1548 1.355 . S
C1547 C1549 1.415 . S
C1548 C1547 1.355 . S
C1548 C1550 1.419 . S
C1549 C1544 1.425 . S
C1549 C1546 1.409 . S
C1549 C1547 1.415 . S
C1550 H1540 0.930 . S
C1550 C1548 1.419 . S
C1550 C1551 1.362 . S
C1551 H1541 0.930 . S
C1551 C1544 1.409 . S
C1551 C1550 1.362 . S
H1552 C1558 0.930 . S
H1553 C1561 0.930 . S
H1554 C1562 0.930 . S
H1555 C1563 0.930 . S
H1556 C1566 0.930 . S
H1557 C1567 0.930 . S
C1558 H1552 0.930 . S
C1558 C1559 1.355 . S
C1558 C1560 1.415 . S
C1559 C1558 1.355 . S
C1559 C1561 1.419 . S
C1560 C1558 1.415 . S
C1560 C1565 1.425 . S
C1560 C1567 1.409 . S
C1561 H1553 0.930 . S
C1561 C1559 1.419 . S
C1561 C1562 1.362 . S
C1562 H1554 0.930 . S
C1562 C1561 1.362 . S
C1562 C1565 1.409 . S
C1563 H1555 0.930 . S
C1563 C1564 1.355 . S
C1563 C1565 1.415 . S
C1564 C1563 1.355 . S
C1564 C1566 1.419 . S
C1565 C1560 1.425 . S
C1565 C1562 1.409 . S
C1565 C1563 1.415 . S
C1566 H1556 0.930 . S
C1566 C1564 1.419 . S
C1566 C1567 1.362 . S
C1567 H1557 0.930 . S
C1567 C1560 1.409 . S
C1567 C1566 1.362 . S
H1568 C1574 0.930 . S
H1569 C1577 0.930 . S
H1570 C1578 0.930 . S
H1571 C1579 0.930 . S
H1572 C1582 0.930 . S
H1573 C1583 0.930 . S
C1574 H1568 0.930 . S
C1574 C1575 1.355 . S
C1574 C1576 1.415 . S
C1575 C1574 1.355 . S
C1575 C1577 1.419 . S
C1576 C1574 1.415 . S
C1576 C1581 1.425 . S
C1576 C1583 1.409 . S
C1577 H1569 0.930 . S
C1577 C1575 1.419 . S
C1577 C1578 1.362 . S
C1578 H1570 0.930 . S
C1578 C1577 1.362 . S
C1578 C1581 1.409 . S
C1579 H1571 0.930 . S
C1579 C1580 1.355 . S
C1579 C1581 1.415 . S
C1580 C1579 1.355 . S
C1580 C1582 1.419 . S
C1581 C1576 1.425 . S
C1581 C1578 1.409 . S
C1581 C1579 1.415 . S
C1582 H1572 0.930 . S
C1582 C1580 1.419 . S
C1582 C1583 1.362 . S
C1583 H1573 0.930 . S
C1583 C1576 1.409 . S
C1583 C1582 1.362 . S
H1584 C1590 0.930 . S
H1585 C1593 0.930 . S
H1586 C1594 0.930 . S
H1587 C1595 0.930 . S
H1588 C1598 0.930 . S
H1589 C1599 0.930 . S
C1590 H1584 0.930 . S
C1590 C1591 1.355 . S
C1590 C1592 1.415 . S
C1591 C1590 1.355 . S
C1591 C1593 1.419 . S
C1592 C1590 1.415 . S
C1592 C1597 1.425 . S
C1592 C1599 1.409 . S
C1593 H1585 0.930 . S
C1593 C1591 1.419 . S
C1593 C1594 1.362 . S
C1594 H1586 0.930 . S
C1594 C1593 1.362 . S
C1594 C1597 1.409 . S
C1595 H1587 0.930 . S
C1595 C1596 1.355 . S
C1595 C1597 1.415 . S
C1596 C1595 1.355 . S
C1596 C1598 1.419 . S
C1597 C1592 1.425 . S
C1597 C1594 1.409 . S
C1597 C1595 1.415 . S
C1598 H1588 0.930 . S
C1598 C1596 1.419 . S
C1598 C1599 1.362 . S
C1599 H1589 0.930 . S
C1599 C1592 1.409 . S
C1599 C1598 1.362 . S
H1600 C1606 0.930 . S
H1601 C1609 0.930 . S
H1602 C1610 0.930 . S
H1603 C1611 0.930 . S
H1604 C1614 0.930 . S
H1605 C1615 0.930 . S
C1606 H1600 0.930 . S
C1606 C1607 1.355 . S
C1606 C1608 1.415 . S
C1607 C1606 1.355 . S
C1607 C1609 1.419 . S
C1608 C1606 1.415 . S
C1608 C1613 1.425 . S
C1608 C1615 1.409 . S
C1609 H1601 0.930 . S
C1609 C1607 1.419 . S
C1609 C1610 1.362 . S
C1610 H1602 0.930 . S
C1610 C1609 1.362 . S
C1610 C1613 1.409 . S
C1611 H1603 0.930 . S
C1611 C1612 1.355 . S
C1611 C1613 1.415 . S
C1612 C1611 1.355 . S
C1612 C1614 1.419 . S
C1613 C1608 1.425 . S
C1613 C1610 1.409 . S
C1613 C1611 1.415 . S
C1614 H1604 0.930 . S
C1614 C1612 1.419 . S
C1614 C1615 1.362 . S
C1615 H1605 0.930 . S
C1615 C1608 1.409 . S
C1615 C1614 1.362 . S
H1616 C1622 0.930 . S
H1617 C1625 0.930 . S
H1618 C1626 0.930 . S
H1619 C1627 0.930 . S
H1620 C1630 0.930 . S
H1621 C1631 0.930 . S
C1622 H1616 0.930 . S
C1622 C1623 1.355 . S
C1622 C1624 1.415 . S
C1623 C1622 1.355 . S
C1623 C1625 1.419 . S
C1624 C1622 1.415 . S
C1624 C1629 1.425 . S
C1624 C1631 1.409 . S
C1625 H1617 0.930 . S
C1625 C1623 1.419 . S
C1625 C1626 1.362 . S
C1626 H1618 0.930 . S
C1626 C1625 1.362 . S
C1626 C1629 1.409 . S
C1627 H1619 0.930 . S
C1627 C1628 1.355 . S
C1627 C1629 1.415 . S
C1628 C1627 1.355 . S
C1628 C1630 1.419 . S
C1629 C1624 1.425 . S
C1629 C1626 1.409 . S
C1629 C1627 1.415 . S
C1630 H1620 0.930 . S
C1630 C1628 1.419 . S
C1630 C1631 1.362 . S
C1631 H1621 0.930 . S
C1631 C1624 1.409 . S
C1631 C1630 1.362 . S
H1632 C1638 0.930 . S
H1633 C1641 0.930 . S
H1634 C1642 0.930 . S
H1635 C1643 0.930 . S
H1636 C1646 0.930 . S
H1637 C1647 0.930 . S
C1638 H1632 0.930 . S
C1638 C1639 1.355 . S
C1638 C1640 1.415 . S
C1639 C1638 1.355 . S
C1639 C1641 1.419 . S
C1640 C1638 1.415 . S
C1640 C1645 1.425 . S
C1640 C1647 1.409 . S
C1641 H1633 0.930 . S
C1641 C1639 1.419 . S
C1641 C1642 1.362 . S
C1642 H1634 0.930 . S
C1642 C1641 1.362 . S
C1642 C1645 1.409 . S
C1643 H1635 0.930 . S
C1643 C1644 1.355 . S
C1643 C1645 1.415 . S
C1644 C1643 1.355 . S
C1644 C1646 1.419 . S
C1645 C1640 1.425 . S
C1645 C1642 1.409 . S
C1645 C1643 1.415 . S
C1646 H1636 0.930 . S
C1646 C1644 1.419 . S
C1646 C1647 1.362 . S
C1647 H1637 0.930 . S
C1647 C1640 1.409 . S
C1647 C1646 1.362 . S
H1648 C1654 0.930 . S
H1649 C1657 0.930 . S
H1650 C1658 0.930 . S
H1651 C1659 0.930 . S
H1652 C1662 0.930 . S
H1653 C1663 0.930 . S
C1654 H1648 0.930 . S
C1654 C1655 1.355 . S
C1654 C1656 1.415 . S
C1655 C1654 1.355 . S
C1655 C1657 1.419 . S
C1656 C1654 1.415 . S
C1656 C1661 1.425 . S
C1656 C1663 1.409 . S
C1657 H1649 0.930 . S
C1657 C1655 1.419 . S
C1657 C1658 1.362 . S
C1658 H1650 0.930 . S
C1658 C1657 1.362 . S
C1658 C1661 1.409 . S
C1659 H1651 0.930 . S
C1659 C1660 1.355 . S
C1659 C1661 1.415 . S
C1660 C1659 1.355 . S
C1660 C1662 1.419 . S
C1661 C1656 1.425 . S
C1661 C1658 1.409 . S
C1661 C1659 1.415 . S
C1662 H1652 0.930 . S
C1662 C1660 1.419 . S
C1662 C1663 1.362 . S
C1663 H1653 0.930 . S
C1663 C1656 1.409 . S
C1663 C1662 1.362 . S
H1664 C1670 0.930 . S
H1665 C1673 0.930 . S
H1666 C1674 0.930 . S
H1667 C1675 0.930 . S
H1668 C1678 0.930 . S
H1669 C1679 0.930 . S
C1670 H1664 0.930 . S
C1670 C1671 1.355 . S
C1670 C1672 1.415 . S
C1671 C1670 1.355 . S
C1671 C1673 1.419 . S
C1672 C1670 1.415 . S
C1672 C1677 1.425 . S
C1672 C1679 1.409 . S
C1673 H1665 0.930 . S
C1673 C1671 1.419 . S
C1673 C1674 1.362 . S
C1674 H1666 0.930 . S
C1674 C1673 1.362 . S
C1674 C1677 1.409 . S
C1675 H1667 0.930 . S
C1675 C1676 1.355 . S
C1675 C1677 1.415 . S
C1676 C1675 1.355 . S
C1676 C1678 1.419 . S
C1677 C1672 1.425 . S
C1677 C1674 1.409 . S
C1677 C1675 1.415 . S
C1678 H1668 0.930 . S
C1678 C1676 1.419 . S
C1678 C1679 1.362 . S
C1679 H1669 0.930 . S
C1679 C1672 1.409 . S
C1679 C1678 1.362 . S
H1680 C1686 0.930 . S
H1681 C1689 0.930 . S
H1682 C1690 0.930 . S
H1683 C1691 0.930 . S
H1684 C1694 0.930 . S
H1685 C1695 0.930 . S
C1686 H1680 0.930 . S
C1686 C1687 1.355 . S
C1686 C1688 1.415 . S
C1687 C1686 1.355 . S
C1687 C1689 1.419 . S
C1688 C1686 1.415 . S
C1688 C1693 1.425 . S
C1688 C1695 1.409 . S
C1689 H1681 0.930 . S
C1689 C1687 1.419 . S
C1689 C1690 1.362 . S
C1690 H1682 0.930 . S
C1690 C1689 1.362 . S
C1690 C1693 1.409 . S
C1691 H1683 0.930 . S
C1691 C1692 1.355 . S
C1691 C1693 1.415 . S
C1692 C1691 1.355 . S
C1692 C1694 1.419 . S
C1693 C1688 1.425 . S
C1693 C1690 1.409 . S
C1693 C1691 1.415 . S
C1694 H1684 0.930 . S
C1694 C1692 1.419 . S
C1694 C1695 1.362 . S
C1695 H1685 0.930 . S
C1695 C1688 1.409 . S
C1695 C1694 1.362 . S
H1696 C1702 0.930 . S
H1697 C1705 0.930 . S
H1698 C1706 0.930 . S
H1699 C1707 0.930 . S
H1700 C1710 0.930 . S
H1701 C1711 0.930 . S
C1702 H1696 0.930 . S
C1702 C1703 1.355 . S
C1702 C1704 1.415 . S
C1703 C1702 1.355 . S
C1703 C1705 1.419 . S
C1704 C1702 1.415 . S
C1704 C1709 1.425 . S
C1704 C1711 1.409 . S
C1705 H1697 0.930 . S
C1705 C1703 1.419 . S
C1705 C1706 1.362 . S
C1706 H1698 0.930 . S
C1706 C1705 1.362 . S
C1706 C1709 1.409 . S
C1707 H1699 0.930 . S
C1707 C1708 1.355 . S
C1707 C1709 1.415 . S
C1708 C1707 1.355 . S
C1708 C1710 1.419 . S
C1709 C1704 1.425 . S
C1709 C1706 1.409 . S
C1709 C1707 1.415 . S
C1710 H1700 0.930 . S
C1710 C1708 1.419 . S
C1710 C1711 1.362 . S
C1711 H1701 0.930 . S
C1711 C1704 1.409 . S
C1711 C1710 1.362 . S
H1712 C1718 0.930 . S
H1713 C1721 0.930 . S
H1714 C1722 0.930 . S
H1715 C1723 0.930 . S
H1716 C1726 0.930 . S
H1717 C1727 0.930 . S
C1718 H1712 0.930 . S
C1718 C1719 1.355 . S
C1718 C1720 1.415 . S
C1719 C1718 1.355 . S
C1719 C1721 1.419 . S
C1720 C1718 1.415 . S
C1720 C1725 1.425 . S
C1720 C1727 1.409 . S
C1721 H1713 0.930 . S
C1721 C1719 1.419 . S
C1721 C1722 1.362 . S
C1722 H1714 0.930 . S
C1722 C1721 1.362 . S
C1722 C1725 1.409 . S
C1723 H1715 0.930 . S
C1723 C1724 1.355 . S
C1723 C1725 1.415 . S
C1724 C1723 1.355 . S
C1724 C1726 1.419 . S
C1725 C1720 1.425 . S
C1725 C1722 1.409 . S
C1725 C1723 1.415 . S
C1726 H1716 0.930 . S
C1726 C1724 1.419 . S
C1726 C1727 1.362 . S
C1727 H1717 0.930 . S
C1727 C1720 1.409 . S
C1727 C1726 1.362 . S
H1728 C1734 0.930 . S
H1729 C1737 0.930 . S
H1730 C1738 0.930 . S
H1731 C1739 0.930 . S
H1732 C1742 0.930 . S
H1733 C1743 0.930 . S
C1734 H1728 0.930 . S
C1734 C1735 1.355 . S
C1734 C1736 1.415 . S
C1735 C1734 1.355 . S
C1735 C1737 1.419 . S
C1736 C1734 1.415 . S
C1736 C1741 1.425 . S
C1736 C1743 1.409 . S
C1737 H1729 0.930 . S
C1737 C1735 1.419 . S
C1737 C1738 1.362 . S
C1738 H1730 0.930 . S
C1738 C1737 1.362 . S
C1738 C1741 1.409 . S
C1739 H1731 0.930 . S
C1739 C1740 1.355 . S
C1739 C1741 1.415 . S
C1740 C1739 1.355 . S
C1740 C1742 1.419 . S
C1741 C1736 1.425 . S
C1741 C1738 1.409 . S
C1741 C1739 1.415 . S
C1742 H1732 0.930 . S
C1742 C1740 1.419 . S
C1742 C1743 1.362 . S
C1743 H1733 0.930 . S
C1743 C1736 1.409 . S
C1743 C1742 1.362 . S
H1744 C1750 0.930 . S
H1745 C1753 0.930 . S
H1746 C1754 0.930 . S
H1747 C1755 0.930 . S
H1748 C1758 0.930 . S
H1749 C1759 0.930 . S
C1750 H1744 0.930 . S
C1750 C1751 1.355 . S
C1750 C1752 1.415 . S
C1751 C1750 1.355 . S
C1751 C1753 1.419 . S
C1752 C1750 1.415 . S
C1752 C1757 1.425 . S
C1752 C1759 1.409 . S
C1753 H1745 0.930 . S
C1753 C1751 1.419 . S
C1753 C1754 1.362 . S
C1754 H1746 0.930 . S
C1754 C1753 1.362 . S
C1754 C1757 1.409 . S
C1755 H1747 0.930 . S
C1755 C1756 1.355 . S
C1755 C1757 1.415 . S
C1756 C1755 1.355 . S
C1756 C1758 1.419 . S
C1757 C1752 1.425 . S
C1757 C1754 1.409 . S
C1757 C1755 1.415 . S
C1758 H1748 0.930 . S
C1758 C1756 1.419 . S
C1758 C1759 1.362 . S
C1759 H1749 0.930 . S
C1759 C1752 1.409 . S
C1759 C1758 1.362 . S
H1760 C1766 0.930 . S
H1761 C1769 0.930 . S
H1762 C1770 0.930 . S
H1763 C1771 0.930 . S
H1764 C1774 0.930 . S
H1765 C1775 0.930 . S
C1766 H1760 0.930 . S
C1766 C1767 1.355 . S
C1766 C1768 1.415 . S
C1767 C1766 1.355 . S
C1767 C1769 1.419 . S
C1768 C1766 1.415 . S
C1768 C1773 1.425 . S
C1768 C1775 1.409 . S
C1769 H1761 0.930 . S
C1769 C1767 1.419 . S
C1769 C1770 1.362 . S
C1770 H1762 0.930 . S
C1770 C1769 1.362 . S
C1770 C1773 1.409 . S
C1771 H1763 0.930 . S
C1771 C1772 1.355 . S
C1771 C1773 1.415 . S
C1772 C1771 1.355 . S
C1772 C1774 1.419 . S
C1773 C1768 1.425 . S
C1773 C1770 1.409 . S
C1773 C1771 1.415 . S
C1774 H1764 0.930 . S
C1774 C1772 1.419 . S
C1774 C1775 1.362 . S
C1775 H1765 0.930 . S
C1775 C1768 1.409 . S
C1775 C1774 1.362 . S
H1776 C1782 0.930 . S
H1777 C1785 0.930 . S
H1778 C1786 0.930 . S
H1779 C1787 0.930 . S
H1780 C1790 0.930 . S
H1781 C1791 0.930 . S
C1782 H1776 0.930 . S
C1782 C1783 1.355 . S
C1782 C1784 1.415 . S
C1783 C1782 1.355 . S
C1783 C1785 1.419 . S
C1784 C1782 1.415 . S
C1784 C1789 1.425 . S
C1784 C1791 1.409 . S
C1785 H1777 0.930 . S
C1785 C1783 1.419 . S
C1785 C1786 1.362 . S
C1786 H1778 0.930 . S
C1786 C1785 1.362 . S
C1786 C1789 1.409 . S
C1787 H1779 0.930 . S
C1787 C1788 1.355 . S
C1787 C1789 1.415 . S
C1788 C1787 1.355 . S
C1788 C1790 1.419 . S
C1789 C1784 1.425 . S
C1789 C1786 1.409 . S
C1789 C1787 1.415 . S
C1790 H1780 0.930 . S
C1790 C1788 1.419 . S
C1790 C1791 1.362 . S
C1791 H1781 0.930 . S
C1791 C1784 1.409 . S
C1791 C1790 1.362 . S
H1792 C1798 0.930 . S
H1793 C1801 0.930 . S
H1794 C1802 0.930 . S
H1795 C1803 0.930 . S
H1796 C1806 0.930 . S
H1797 C1807 0.930 . S
C1798 H1792 0.930 . S
C1798 C1799 1.355 . S
C1798 C1800 1.415 . S
C1799 C1798 1.355 . S
C1799 C1801 1.419 . S
C1800 C1798 1.415 . S
C1800 C1805 1.425 . S
C1800 C1807 1.409 . S
C1801 H1793 0.930 . S
C1801 C1799 1.419 . S
C1801 C1802 1.362 . S
C1802 H1794 0.930 . S
C1802 C1801 1.362 . S
C1802 C1805 1.409 . S
C1803 H1795 0.930 . S
C1803 C1804 1.355 . S
C1803 C1805 1.415 . S
C1804 C1803 1.355 . S
C1804 C1806 1.419 . S
C1805 C1800 1.425 . S
C1805 C1802 1.409 . S
C1805 C1803 1.415 . S
C1806 H1796 0.930 . S
C1806 C1804 1.419 . S
C1806 C1807 1.362 . S
C1807 H1797 0.930 . S
C1807 C1800 1.409 . S
C1807 C1806 1.362 . S
H1808 C1814 0.930 . S
H1809 C1817 0.930 . S
H1810 C1818 0.930 . S
H1811 C1819 0.930 . S
H1812 C1822 0.930 . S
H1813 C1823 0.930 . S
C1814 H1808 0.930 . S
C1814 C1815 1.355 . S
C1814 C1816 1.415 . S
C1815 C1814 1.355 . S
C1815 C1817 1.419 . S
C1816 C1814 1.415 . S
C1816 C1821 1.425 . S
C1816 C1823 1.409 . S
C1817 H1809 0.930 . S
C1817 C1815 1.419 . S
C1817 C1818 1.362 . S
C1818 H1810 0.930 . S
C1818 C1817 1.362 . S
C1818 C1821 1.409 . S
C1819 H1811 0.930 . S
C1819 C1820 1.355 . S
C1819 C1821 1.415 . S
C1820 C1819 1.355 . S
C1820 C1822 1.419 . S
C1821 C1816 1.425 . S
C1821 C1818 1.409 . S
C1821 C1819 1.415 . S
C1822 H1812 0.930 . S
C1822 C1820 1.419 . S
C1822 C1823 1.362 . S
C1823 H1813 0.930 . S
C1823 C1816 1.409 . S
C1823 C1822 1.362 . S
H1824 C1830 0.930 . S
H1825 C1833 0.930 . S
H1826 C1834 0.930 . S
H1827 C1835 0.930 . S
H1828 C1838 0.930 . S
H1829 C1839 0.930 . S
C1830 H1824 0.930 . S
C1830 C1831 1.355 1_455 S
C1830 C1832 1.415 1_455 S
C1831 C1830 1.355 1_655 S
C1831 C1833 1.419 . S
C1832 C1830 1.415 1_655 S
C1832 C1837 1.425 . S
C1832 C1839 1.409 1_655 S
C1833 H1825 0.930 . S
C1833 C1831 1.419 . S
C1833 C1834 1.362 . S
C1834 H1826 0.930 . S
C1834 C1833 1.362 . S
C1834 C1837 1.409 . S
C1835 H1827 0.930 . S
C1835 C1836 1.355 . S
C1835 C1837 1.415 . S
C1836 C1835 1.355 . S
C1836 C1838 1.419 1_655 S
C1837 C1832 1.425 . S
C1837 C1834 1.409 . S
C1837 C1835 1.415 . S
C1838 H1828 0.930 . S
C1838 C1836 1.419 1_455 S
C1838 C1839 1.362 . S
C1839 H1829 0.930 . S
C1839 C1832 1.409 1_455 S
C1839 C1838 1.362 . S
H1840 C1846 0.930 . S
H1841 C1849 0.930 . S
H1842 C1850 0.930 . S
H1843 C1851 0.930 . S
H1844 C1854 0.930 . S
H1845 C1855 0.930 . S
C1846 H1840 0.930 . S
C1846 C1847 1.355 . S
C1846 C1848 1.415 . S
C1847 C1846 1.355 . S
C1847 C1849 1.419 . S
C1848 C1846 1.415 . S
C1848 C1853 1.425 . S
C1848 C1855 1.409 . S
C1849 H1841 0.930 . S
C1849 C1847 1.419 . S
C1849 C1850 1.362 . S
C1850 H1842 0.930 . S
C1850 C1849 1.362 . S
C1850 C1853 1.409 . S
C1851 H1843 0.930 . S
C1851 C1852 1.355 . S
C1851 C1853 1.415 . S
C1852 C1851 1.355 . S
C1852 C1854 1.419 . S
C1853 C1848 1.425 . S
C1853 C1850 1.409 . S
C1853 C1851 1.415 . S
C1854 H1844 0.930 . S
C1854 C1852 1.419 . S
C1854 C1855 1.362 . S
C1855 H1845 0.930 . S
C1855 C1848 1.409 . S
C1855 C1854 1.362 . S
H1856 C1862 0.930 . S
H1857 C1865 0.930 . S
H1858 C1866 0.930 . S
H1859 C1867 0.930 . S
H1860 C1870 0.930 . S
H1861 C1871 0.930 . S
C1862 H1856 0.930 . S
C1862 C1863 1.355 . S
C1862 C1864 1.415 . S
C1863 C1862 1.355 . S
C1863 C1865 1.419 . S
C1864 C1862 1.415 . S
C1864 C1869 1.425 . S
C1864 C1871 1.409 . S
C1865 H1857 0.930 . S
C1865 C1863 1.419 . S
C1865 C1866 1.362 . S
C1866 H1858 0.930 . S
C1866 C1865 1.362 . S
C1866 C1869 1.409 . S
C1867 H1859 0.930 . S
C1867 C1868 1.355 . S
C1867 C1869 1.415 . S
C1868 C1867 1.355 . S
C1868 C1870 1.419 . S
C1869 C1864 1.425 . S
C1869 C1866 1.409 . S
C1869 C1867 1.415 . S
C1870 H1860 0.930 . S
C1870 C1868 1.419 . S
C1870 C1871 1.362 . S
C1871 H1861 0.930 . S
C1871 C1864 1.409 . S
C1871 C1870 1.362 . S
H1872 C1878 0.932 . S
H1873 C1881 0.930 . S
H1874 C1882 0.930 . S
H1875 C1883 0.930 . S
H1876 C1886 0.930 1_554 S
H1877 C1887 0.934 . S
C1878 H1872 0.932 . S
C1878 C1879 1.355 . S
C1878 C1880 1.415 . S
C1879 C1878 1.355 . S
C1879 C1881 1.419 . S
C1880 C1878 1.415 . S
C1880 C1885 1.425 . S
C1880 C1887 1.407 1_556 S
C1881 H1873 0.930 . S
C1881 C1879 1.419 . S
C1881 C1882 1.362 . S
C1882 H1874 0.930 . S
C1882 C1881 1.362 . S
C1882 C1885 1.409 . S
C1883 H1875 0.930 . S
C1883 C1884 1.355 . S
C1883 C1885 1.415 . S
C1884 C1883 1.355 . S
C1884 C1886 1.419 . S
C1885 C1880 1.425 . S
C1885 C1882 1.409 . S
C1885 C1883 1.415 . S
C1886 H1876 0.930 1_556 S
C1886 C1884 1.419 . S
C1886 C1887 1.361 1_556 S
C1887 H1877 0.934 . S
C1887 C1880 1.407 1_554 S
C1887 C1886 1.361 1_554 S
H1888 C1894 0.930 . S
H1889 C1897 0.914 1_455 S
H1890 C1898 0.960 . S
H1891 C1899 0.917 1_455 S
H1892 C1902 0.930 . S
H1893 C1903 0.930 . S
C1894 H1888 0.930 . S
C1894 C1895 1.355 . S
C1894 C1896 1.415 . S
C1895 C1894 1.355 . S
C1895 C1897 1.443 . S
C1896 C1894 1.415 . S
C1896 C1901 1.425 . S
C1896 C1903 1.409 . S
C1897 H1889 0.914 1_655 S
C1897 C1895 1.443 . S
C1897 C1898 1.354 1_655 S
C1898 H1890 0.960 . S
C1898 C1897 1.354 1_455 S
C1898 C1901 1.390 1_455 S
C1899 H1891 0.917 1_655 S
C1899 C1900 1.355 . S
C1899 C1901 1.415 . S
C1900 C1899 1.355 . S
C1900 C1902 1.419 . S
C1901 C1896 1.425 . S
C1901 C1898 1.390 1_655 S
C1901 C1899 1.415 . S
C1902 H1892 0.930 . S
C1902 C1900 1.419 . S
C1902 C1903 1.362 . S
C1903 H1893 0.930 . S
C1903 C1896 1.409 . S
C1903 C1902 1.362 . S
H1904 C1910 0.930 . S
H1905 C1913 0.930 . S
H1906 C1914 0.930 . S
H1907 C1915 0.930 . S
H1908 C1918 0.930 . S
H1909 C1919 0.930 . S
C1910 H1904 0.930 . S
C1910 C1911 1.355 . S
C1910 C1912 1.415 . S
C1911 C1910 1.355 . S
C1911 C1913 1.419 . S
C1912 C1910 1.415 . S
C1912 C1917 1.425 . S
C1912 C1919 1.409 . S
C1913 H1905 0.930 . S
C1913 C1911 1.419 . S
C1913 C1914 1.362 . S
C1914 H1906 0.930 . S
C1914 C1913 1.362 . S
C1914 C1917 1.409 . S
C1915 H1907 0.930 . S
C1915 C1916 1.355 . S
C1915 C1917 1.415 . S
C1916 C1915 1.355 . S
C1916 C1918 1.419 . S
C1917 C1912 1.425 . S
C1917 C1914 1.409 . S
C1917 C1915 1.415 . S
C1918 H1908 0.930 . S
C1918 C1916 1.419 . S
C1918 C1919 1.362 . S
C1919 H1909 0.930 . S
C1919 C1912 1.409 . S
C1919 C1918 1.362 . S
H1920 C1926 0.930 . S
H1921 C1929 0.930 . S
H1922 C1930 0.930 . S
H1923 C1931 0.930 . S
H1924 C1934 0.930 . S
H1925 C1935 0.930 . S
C1926 H1920 0.930 . S
C1926 C1927 1.355 . S
C1926 C1928 1.415 . S
C1927 C1926 1.355 . S
C1927 C1929 1.419 . S
C1928 C1926 1.415 . S
C1928 C1933 1.425 . S
C1928 C1935 1.409 . S
C1929 H1921 0.930 . S
C1929 C1927 1.419 . S
C1929 C1930 1.362 . S
C1930 H1922 0.930 . S
C1930 C1929 1.362 . S
C1930 C1933 1.409 . S
C1931 H1923 0.930 . S
C1931 C1932 1.355 . S
C1931 C1933 1.415 . S
C1932 C1931 1.355 . S
C1932 C1934 1.419 . S
C1933 C1928 1.425 . S
C1933 C1930 1.409 . S
C1933 C1931 1.415 . S
C1934 H1924 0.930 . S
C1934 C1932 1.419 . S
C1934 C1935 1.362 . S
C1935 H1925 0.930 . S
C1935 C1928 1.409 . S
C1935 C1934 1.362 . S
H1936 C1942 0.930 . S
H1937 C1945 0.930 . S
H1938 C1946 0.930 . S
H1939 C1947 0.930 . S
H1940 C1950 0.930 . S
H1941 C1951 0.930 . S
C1942 H1936 0.930 . S
C1942 C1943 1.355 . S
C1942 C1944 1.415 . S
C1943 C1942 1.355 . S
C1943 C1945 1.419 . S
C1944 C1942 1.415 . S
C1944 C1949 1.425 . S
C1944 C1951 1.409 . S
C1945 H1937 0.930 . S
C1945 C1943 1.419 . S
C1945 C1946 1.362 . S
C1946 H1938 0.930 . S
C1946 C1945 1.362 . S
C1946 C1949 1.409 . S
C1947 H1939 0.930 . S
C1947 C1948 1.355 . S
C1947 C1949 1.415 . S
C1948 C1947 1.355 . S
C1948 C1950 1.419 . S
C1949 C1944 1.425 . S
C1949 C1946 1.409 . S
C1949 C1947 1.415 . S
C1950 H1940 0.930 . S
C1950 C1948 1.419 . S
C1950 C1951 1.362 . S
C1951 H1941 0.930 . S
C1951 C1944 1.409 . S
C1951 C1950 1.362 . S
H1952 C1958 0.930 . S
H1953 C1961 0.930 . S
H1954 C1962 0.930 . S
H1955 C1963 0.930 . S
H1956 C1966 0.930 . S
H1957 C1967 0.930 . S
C1958 H1952 0.930 . S
C1958 C1959 1.355 1_545 S
C1958 C1960 1.415 1_545 S
C1959 C1958 1.355 1_565 S
C1959 C1961 1.419 . S
C1960 C1958 1.415 1_565 S
C1960 C1965 1.425 . S
C1960 C1967 1.409 1_565 S
C1961 H1953 0.930 . S
C1961 C1959 1.419 . S
C1961 C1962 1.362 . S
C1962 H1954 0.930 . S
C1962 C1961 1.362 . S
C1962 C1965 1.409 . S
C1963 H1955 0.930 . S
C1963 C1964 1.355 . S
C1963 C1965 1.415 . S
C1964 C1963 1.355 . S
C1964 C1966 1.419 1_565 S
C1965 C1960 1.425 . S
C1965 C1962 1.409 . S
C1965 C1963 1.415 . S
C1966 H1956 0.930 . S
C1966 C1964 1.419 1_545 S
C1966 C1967 1.362 . S
C1967 H1957 0.930 . S
C1967 C1960 1.409 1_545 S
C1967 C1966 1.362 . S
H1968 C1974 0.930 . S
H1969 C1977 0.930 . S
H1970 C1978 0.930 . S
H1971 C1979 0.917 1_545 S
H1972 C1982 0.930 . S
H1973 C1983 0.930 . S
C1974 H1968 0.930 . S
C1974 C1975 1.355 . S
C1974 C1976 1.415 . S
C1975 C1974 1.355 . S
C1975 C1977 1.419 1_565 S
C1976 C1974 1.415 . S
C1976 C1981 1.425 . S
C1976 C1983 1.409 . S
C1977 H1969 0.930 . S
C1977 C1975 1.419 1_545 S
C1977 C1978 1.362 . S
C1978 H1970 0.930 . S
C1978 C1977 1.362 . S
C1978 C1981 1.409 1_545 S
C1979 H1971 0.917 1_565 S
C1979 C1980 1.365 . S
C1979 C1981 1.417 . S
C1980 C1979 1.365 . S
C1980 C1982 1.419 . S
C1981 C1976 1.425 . S
C1981 C1978 1.409 1_565 S
C1981 C1979 1.417 . S
C1982 H1972 0.930 . S
C1982 C1980 1.419 . S
C1982 C1983 1.362 . S
C1983 H1973 0.930 . S
C1983 C1976 1.409 . S
C1983 C1982 1.362 . S
H1984 C1990 0.930 . S
H1985 C1993 0.930 . S
H1986 C1994 0.930 . S
H1987 C1995 0.930 . S
H1988 C1998 0.930 . S
H1989 C1999 0.930 . S
C1990 H1984 0.930 . S
C1990 C1991 1.355 . S
C1990 C1992 1.415 . S
C1991 C1990 1.355 . S
C1991 C1993 1.419 . S
C1992 C1990 1.415 . S
C1992 C1997 1.425 . S
C1992 C1999 1.409 . S
C1993 H1985 0.930 . S
C1993 C1991 1.419 . S
C1993 C1994 1.362 . S
C1994 H1986 0.930 . S
C1994 C1993 1.362 . S
C1994 C1997 1.409 . S
C1995 H1987 0.930 . S
C1995 C1996 1.355 . S
C1995 C1997 1.415 . S
C1996 C1995 1.355 . S
C1996 C1998 1.419 . S
C1997 C1992 1.425 . S
C1997 C1994 1.409 . S
C1997 C1995 1.415 . S
C1998 H1988 0.930 . S
C1998 C1996 1.419 . S
C1998 C1999 1.362 . S
C1999 H1989 0.930 . S
C1999 C1992 1.409 . S
C1999 C1998 1.362 . S
H2000 C2006 0.930 . S
H2001 C2009 0.930 . S
H2002 C2010 0.930 . S
H2003 C2011 0.930 . S
H2004 C2014 0.930 . S
H2005 C2015 0.930 . S
C2006 H2000 0.930 . S
C2006 C2007 1.355 . S
C2006 C2008 1.415 . S
C2007 C2006 1.355 . S
C2007 C2009 1.419 . S
C2008 C2006 1.415 . S
C2008 C2013 1.425 . S
C2008 C2015 1.409 . S
C2009 H2001 0.930 . S
C2009 C2007 1.419 . S
C2009 C2010 1.362 . S
C2010 H2002 0.930 . S
C2010 C2009 1.362 . S
C2010 C2013 1.409 . S
C2011 H2003 0.930 . S
C2011 C2012 1.355 . S
C2011 C2013 1.415 . S
C2012 C2011 1.355 . S
C2012 C2014 1.419 . S
C2013 C2008 1.425 . S
C2013 C2010 1.409 . S
C2013 C2011 1.415 . S
C2014 H2004 0.930 . S
C2014 C2012 1.419 . S
C2014 C2015 1.362 . S
C2015 H2005 0.930 . S
C2015 C2008 1.409 . S
C2015 C2014 1.362 . S
H2016 C2022 0.930 . S
H2017 C2025 0.930 . S
H2018 C2026 0.930 . S
H2019 C2027 0.930 . S
H2020 C2030 0.930 . S
H2021 C2031 0.930 . S
C2022 H2016 0.930 . S
C2022 C2023 1.355 . S
C2022 C2024 1.415 . S
C2023 C2022 1.355 . S
C2023 C2025 1.419 . S
C2024 C2022 1.415 . S
C2024 C2029 1.425 . S
C2024 C2031 1.409 . S
C2025 H2017 0.930 . S
C2025 C2023 1.419 . S
C2025 C2026 1.362 . S
C2026 H2018 0.930 . S
C2026 C2025 1.362 . S
C2026 C2029 1.409 . S
C2027 H2019 0.930 . S
C2027 C2028 1.355 . S
C2027 C2029 1.415 . S
C2028 C2027 1.355 . S
C2028 C2030 1.419 . S
C2029 C2024 1.425 . S
C2029 C2026 1.409 . S
C2029 C2027 1.415 . S
C2030 H2020 0.930 . S
C2030 C2028 1.419 . S
C2030 C2031 1.362 . S
C2031 H2021 0.930 . S
C2031 C2024 1.409 . S
C2031 C2030 1.362 . S
H2032 C2038 0.930 . S
H2033 C2041 0.930 . S
H2034 C2042 0.930 . S
H2035 C2043 0.930 . S
H2036 C2046 0.930 . S
H2037 C2047 0.930 . S
C2038 H2032 0.930 . S
C2038 C2039 1.355 . S
C2038 C2040 1.415 . S
C2039 C2038 1.355 . S
C2039 C2041 1.419 . S
C2040 C2038 1.415 . S
C2040 C2045 1.425 . S
C2040 C2047 1.409 . S
C2041 H2033 0.930 . S
C2041 C2039 1.419 . S
C2041 C2042 1.362 . S
C2042 H2034 0.930 . S
C2042 C2041 1.362 . S
C2042 C2045 1.409 . S
C2043 H2035 0.930 . S
C2043 C2044 1.355 . S
C2043 C2045 1.415 . S
C2044 C2043 1.355 . S
C2044 C2046 1.419 . S
C2045 C2040 1.425 . S
C2045 C2042 1.409 . S
C2045 C2043 1.415 . S
C2046 H2036 0.930 . S
C2046 C2044 1.419 . S
C2046 C2047 1.362 . S
C2047 H2037 0.930 . S
C2047 C2040 1.409 . S
C2047 C2046 1.362 . S
H2048 C2054 0.930 . S
H2049 C2057 0.930 . S
H2050 C2058 0.930 . S
H2051 C2059 0.930 . S
H2052 C2062 0.930 . S
H2053 C2063 0.930 . S
C2054 H2048 0.930 . S
C2054 C2055 1.355 . S
C2054 C2056 1.415 . S
C2055 C2054 1.355 . S
C2055 C2057 1.419 . S
C2056 C2054 1.415 . S
C2056 C2061 1.425 . S
C2056 C2063 1.409 . S
C2057 H2049 0.930 . S
C2057 C2055 1.419 . S
C2057 C2058 1.362 . S
C2058 H2050 0.930 . S
C2058 C2057 1.362 . S
C2058 C2061 1.409 . S
C2059 H2051 0.930 . S
C2059 C2060 1.355 . S
C2059 C2061 1.415 . S
C2060 C2059 1.355 . S
C2060 C2062 1.419 . S
C2061 C2056 1.425 . S
C2061 C2058 1.409 . S
C2061 C2059 1.415 . S
C2062 H2052 0.930 . S
C2062 C2060 1.419 . S
C2062 C2063 1.362 . S
C2063 H2053 0.930 . S
C2063 C2056 1.409 . S
C2063 C2062 1.362 . S
H2064 C2070 0.930 . S
H2065 C2073 0.930 . S
H2066 C2074 0.930 . S
H2067 C2075 0.930 . S
H2068 C2078 0.930 . S
H2069 C2079 0.930 . S
C2070 H2064 0.930 . S
C2070 C2071 1.355 . S
C2070 C2072 1.415 . S
C2071 C2070 1.355 . S
C2071 C2073 1.419 . S
C2072 C2070 1.415 . S
C2072 C2077 1.425 . S
C2072 C2079 1.409 . S
C2073 H2065 0.930 . S
C2073 C2071 1.419 . S
C2073 C2074 1.362 . S
C2074 H2066 0.930 . S
C2074 C2073 1.362 . S
C2074 C2077 1.409 . S
C2075 H2067 0.930 . S
C2075 C2076 1.355 . S
C2075 C2077 1.415 . S
C2076 C2075 1.355 . S
C2076 C2078 1.419 . S
C2077 C2072 1.425 . S
C2077 C2074 1.409 . S
C2077 C2075 1.415 . S
C2078 H2068 0.930 . S
C2078 C2076 1.419 . S
C2078 C2079 1.362 . S
C2079 H2069 0.930 . S
C2079 C2072 1.409 . S
C2079 C2078 1.362 . S
H2080 C2086 0.930 . S
H2081 C2089 0.930 . S
H2082 C2090 0.930 . S
H2083 C2091 0.930 . S
H2084 C2094 0.930 . S
H2085 C2095 0.930 . S
C2086 H2080 0.930 . S
C2086 C2087 1.355 . S
C2086 C2088 1.415 . S
C2087 C2086 1.355 . S
C2087 C2089 1.419 . S
C2088 C2086 1.415 . S
C2088 C2093 1.425 . S
C2088 C2095 1.409 . S
C2089 H2081 0.930 . S
C2089 C2087 1.419 . S
C2089 C2090 1.362 . S
C2090 H2082 0.930 . S
C2090 C2089 1.362 . S
C2090 C2093 1.409 . S
C2091 H2083 0.930 . S
C2091 C2092 1.355 . S
C2091 C2093 1.415 . S
C2092 C2091 1.355 . S
C2092 C2094 1.419 . S
C2093 C2088 1.425 . S
C2093 C2090 1.409 . S
C2093 C2091 1.415 . S
C2094 H2084 0.930 . S
C2094 C2092 1.419 . S
C2094 C2095 1.362 . S
C2095 H2085 0.930 . S
C2095 C2088 1.409 . S
C2095 C2094 1.362 . S
H2096 C2102 0.930 . S
H2097 C2105 0.930 . S
H2098 C2106 0.930 . S
H2099 C2107 0.930 . S
H2100 C2110 0.930 . S
H2101 C2111 0.930 . S
C2102 H2096 0.930 . S
C2102 C2103 1.355 . S
C2102 C2104 1.415 . S
C2103 C2102 1.355 . S
C2103 C2105 1.419 . S
C2104 C2102 1.415 . S
C2104 C2109 1.425 . S
C2104 C2111 1.409 . S
C2105 H2097 0.930 . S
C2105 C2103 1.419 . S
C2105 C2106 1.362 . S
C2106 H2098 0.930 . S
C2106 C2105 1.362 . S
C2106 C2109 1.409 . S
C2107 H2099 0.930 . S
C2107 C2108 1.355 . S
C2107 C2109 1.415 . S
C2108 C2107 1.355 . S
C2108 C2110 1.419 . S
C2109 C2104 1.425 . S
C2109 C2106 1.409 . S
C2109 C2107 1.415 . S
C2110 H2100 0.930 . S
C2110 C2108 1.419 . S
C2110 C2111 1.362 . S
C2111 H2101 0.930 . S
C2111 C2104 1.409 . S
C2111 C2110 1.362 . S
H2112 C2118 0.930 . S
H2113 C2121 0.930 . S
H2114 C2122 0.930 . S
H2115 C2123 0.930 . S
H2116 C2126 0.930 . S
H2117 C2127 0.930 . S
C2118 H2112 0.930 . S
C2118 C2119 1.355 . S
C2118 C2120 1.415 . S
C2119 C2118 1.355 . S
C2119 C2121 1.419 . S
C2120 C2118 1.415 . S
C2120 C2125 1.425 . S
C2120 C2127 1.409 . S
C2121 H2113 0.930 . S
C2121 C2119 1.419 . S
C2121 C2122 1.362 . S
C2122 H2114 0.930 . S
C2122 C2121 1.362 . S
C2122 C2125 1.409 . S
C2123 H2115 0.930 . S
C2123 C2124 1.355 . S
C2123 C2125 1.415 . S
C2124 C2123 1.355 . S
C2124 C2126 1.419 . S
C2125 C2120 1.425 . S
C2125 C2122 1.409 . S
C2125 C2123 1.415 . S
C2126 H2116 0.930 . S
C2126 C2124 1.419 . S
C2126 C2127 1.362 . S
C2127 H2117 0.930 . S
C2127 C2120 1.409 . S
C2127 C2126 1.362 . S
H2128 C2134 0.930 . S
H2129 C2137 0.930 . S
H2130 C2138 0.930 . S
H2131 C2139 0.930 . S
H2132 C2142 0.930 . S
H2133 C2143 0.930 . S
C2134 H2128 0.930 . S
C2134 C2135 1.355 . S
C2134 C2136 1.415 . S
C2135 C2134 1.355 . S
C2135 C2137 1.419 . S
C2136 C2134 1.415 . S
C2136 C2141 1.425 . S
C2136 C2143 1.409 . S
C2137 H2129 0.930 . S
C2137 C2135 1.419 . S
C2137 C2138 1.362 . S
C2138 H2130 0.930 . S
C2138 C2137 1.362 . S
C2138 C2141 1.409 . S
C2139 H2131 0.930 . S
C2139 C2140 1.355 . S
C2139 C2141 1.415 . S
C2140 C2139 1.355 . S
C2140 C2142 1.419 . S
C2141 C2136 1.425 . S
C2141 C2138 1.409 . S
C2141 C2139 1.415 . S
C2142 H2132 0.930 . S
C2142 C2140 1.419 . S
C2142 C2143 1.362 . S
C2143 H2133 0.930 . S
C2143 C2136 1.409 . S
C2143 C2142 1.362 . S
H2144 C2150 0.930 . S
H2145 C2153 0.930 . S
H2146 C2154 0.930 . S
H2147 C2155 0.930 . S
H2148 C2158 0.930 . S
H2149 C2159 0.930 . S
C2150 H2144 0.930 . S
C2150 C2151 1.355 . S
C2150 C2152 1.415 . S
C2151 C2150 1.355 . S
C2151 C2153 1.419 . S
C2152 C2150 1.415 . S
C2152 C2157 1.425 . S
C2152 C2159 1.409 . S
C2153 H2145 0.930 . S
C2153 C2151 1.419 . S
C2153 C2154 1.362 . S
C2154 H2146 0.930 . S
C2154 C2153 1.362 . S
C2154 C2157 1.409 . S
C2155 H2147 0.930 . S
C2155 C2156 1.355 . S
C2155 C2157 1.415 . S
C2156 C2155 1.355 . S
C2156 C2158 1.419 . S
C2157 C2152 1.425 . S
C2157 C2154 1.409 . S
C2157 C2155 1.415 . S
C2158 H2148 0.930 . S
C2158 C2156 1.419 . S
C2158 C2159 1.362 . S
C2159 H2149 0.930 . S
C2159 C2152 1.409 . S
C2159 C2158 1.362 . S
H2160 C2166 0.930 . S
H2161 C2169 0.930 . S
H2162 C2170 0.930 . S
H2163 C2171 0.930 . S
H2164 C2174 0.930 . S
H2165 C2175 0.930 . S
C2166 H2160 0.930 . S
C2166 C2167 1.355 . S
C2166 C2168 1.415 . S
C2167 C2166 1.355 . S
C2167 C2169 1.419 . S
C2168 C2166 1.415 . S
C2168 C2173 1.425 . S
C2168 C2175 1.409 . S
C2169 H2161 0.930 . S
C2169 C2167 1.419 . S
C2169 C2170 1.362 . S
C2170 H2162 0.930 . S
C2170 C2169 1.362 . S
C2170 C2173 1.409 . S
C2171 H2163 0.930 . S
C2171 C2172 1.355 . S
C2171 C2173 1.415 . S
C2172 C2171 1.355 . S
C2172 C2174 1.419 . S
C2173 C2168 1.425 . S
C2173 C2170 1.409 . S
C2173 C2171 1.415 . S
C2174 H2164 0.930 . S
C2174 C2172 1.419 . S
C2174 C2175 1.362 . S
C2175 H2165 0.930 . S
C2175 C2168 1.409 . S
C2175 C2174 1.362 . S
H2176 C2182 0.930 . S
H2177 C2185 0.930 . S
H2178 C2186 0.930 . S
H2179 C2187 0.930 . S
H2180 C2190 0.930 . S
H2181 C2191 0.930 . S
C2182 H2176 0.930 . S
C2182 C2183 1.355 . S
C2182 C2184 1.415 . S
C2183 C2182 1.355 . S
C2183 C2185 1.419 . S
C2184 C2182 1.415 . S
C2184 C2189 1.425 . S
C2184 C2191 1.409 . S
C2185 H2177 0.930 . S
C2185 C2183 1.419 . S
C2185 C2186 1.362 . S
C2186 H2178 0.930 . S
C2186 C2185 1.362 . S
C2186 C2189 1.409 . S
C2187 H2179 0.930 . S
C2187 C2188 1.355 . S
C2187 C2189 1.415 . S
C2188 C2187 1.355 . S
C2188 C2190 1.419 . S
C2189 C2184 1.425 . S
C2189 C2186 1.409 . S
C2189 C2187 1.415 . S
C2190 H2180 0.930 . S
C2190 C2188 1.419 . S
C2190 C2191 1.362 . S
C2191 H2181 0.930 . S
C2191 C2184 1.409 . S
C2191 C2190 1.362 . S
H2192 C2198 0.930 . S
H2193 C2201 0.930 . S
H2194 C2202 0.930 . S
H2195 C2203 0.930 . S
H2196 C2206 0.930 . S
H2197 C2207 0.930 . S
C2198 H2192 0.930 . S
C2198 C2199 1.355 . S
C2198 C2200 1.415 . S
C2199 C2198 1.355 . S
C2199 C2201 1.419 . S
C2200 C2198 1.415 . S
C2200 C2205 1.425 . S
C2200 C2207 1.409 . S
C2201 H2193 0.930 . S
C2201 C2199 1.419 . S
C2201 C2202 1.362 . S
C2202 H2194 0.930 . S
C2202 C2201 1.362 . S
C2202 C2205 1.409 . S
C2203 H2195 0.930 . S
C2203 C2204 1.355 . S
C2203 C2205 1.415 . S
C2204 C2203 1.355 . S
C2204 C2206 1.419 . S
C2205 C2200 1.425 . S
C2205 C2202 1.409 . S
C2205 C2203 1.415 . S
C2206 H2196 0.930 . S
C2206 C2204 1.419 . S
C2206 C2207 1.362 . S
C2207 H2197 0.930 . S
C2207 C2200 1.409 . S
C2207 C2206 1.362 . S
C679 C7 0.925 . S
C684 C371 0.987 . S
C695 C385 1.213 . S
C700 C21 1.153 . S
C711 C35 1.267 . S
C716 C343 1.274 . S
C727 C357 1.275 . S
C732 C49 1.391 . S
C743 C63 1.075 . S
C748 C427 1.012 . S
C759 C77 1.279 . S
C764 C441 1.223 . S
C775 C91 1.391 . S
C780 C399 1.305 . S
C791 C105 1.088 . S
C796 C413 0.920 . S
C807 C175 0.835 . S
C812 C119 1.012 . S
C823 C133 1.334 . S
C828 C189 1.268 . S
C839 C203 1.145 . S
C844 C147 0.985 . S
C855 C161 0.928 . S
C860 C217 1.065 . S
C871 C609 0.979 . S
C876 C231 0.935 . S
C887 C637 1.152 . S
C892 C245 1.006 . S
C903 C315 1.362 . S
C908 C259 1.336 . S
C919 C567 1.209 . S
C924 C273 1.238 . S
C935 C665 1.097 . S
C940 C287 0.935 . S
C951 C581 1.306 . S
C956 C301 1.301 . S
C967 C329 1.170 . S
C972 C623 1.301 . S
C983 C455 1.310 . S
C988 C511 1.217 . S
C999 C525 1.241 . S
C1004 C469 1.095 . S
C1015 C483 1.294 . S
C1020 C539 1.314 . S
C1031 C553 1.226 . S
C1036 C497 1.277 . S
C1047 C595 1.125 . S
C1052 C651 1.232 . S
C1063 C8 0.929 . S
C1068 C106 0.867 . S
C1079 C64 0.875 . S
C1084 C22 0.941 . S
C1095 C36 1.038 . S
C1100 C78 0.979 . S
C1111 C50 1.020 . S
C1116 C92 1.077 . S
C1127 C288 0.707 . S
C1132 C120 0.783 . S
C1143 C582 0.915 . S
C1148 C134 0.899 . S
C1159 C148 0.813 . S
C1164 C596 0.900 . S
C1175 C162 0.753 . S
C1180 C610 0.712 . S
C1191 C666 0.696 . S
C1196 C176 0.753 . S
C1207 C190 1.069 . S
C1212 C302 1.022 . S
C1223 C204 0.782 . S
C1228 C652 0.799 . S
C1239 C218 0.831 . S
C1244 C232 0.913 . S
C1255 C246 0.769 . S
C1260 C470 0.787 . S
C1271 C260 0.971 . S
C1276 C484 0.909 . S
C1287 C498 0.917 . S
C1292 C274 1.001 . S
C1303 C316 0.990 . S
C1308 C540 0.942 . S
C1319 C512 0.881 . S
C1324 C330 0.946 . S
C1335 C442 1.018 . S
C1340 C344 0.932 . S
C1351 C358 1.098 . S
C1356 C400 1.100 . S
C1367 C414 0.941 . S
C1372 C372 0.937 . S
C1383 C386 0.994 . S
C1388 C428 0.939 . S
C1399 C456 1.030 . S
C1404 C624 1.009 . S
C1415 C638 0.995 . S
C1420 C526 0.948 . S
C1431 C568 1.013 . S
C1436 C554 1.049 . S
C1447 C9 1.597 . S
C1452 C415 1.657 . S
C1463 C429 1.693 . S
C1468 C23 1.633 . S
C1479 C37 1.635 . S
C1484 C443 1.673 . S
C1495 C51 1.649 . S
C1500 C401 1.675 . S
C1511 C387 1.637 . S
C1516 C65 1.669 . S
C1527 C79 1.651 . S
C1532 C345 1.699 . S
C1543 C359 1.679 . S
C1548 C93 1.630 . S
C1559 C107 1.612 . S
C1564 C373 1.676 . S
C1575 C667 1.619 . S
C1580 C121 1.649 . S
C1591 C135 1.654 . S
C1596 C303 1.632 . S
C1607 C149 1.690 . S
C1612 C653 1.634 . S
C1623 C233 1.641 . S
C1628 C163 1.643 . S
C1639 C177 1.665 . S
C1644 C289 1.648 . S
C1655 C191 1.632 . S
C1660 C583 1.676 . S
C1671 C597 1.678 . S
C1676 C205 1.629 . S
C1687 C611 1.674 . S
C1692 C219 1.618 . S
C1703 C527 1.634 . S
C1708 C247 1.709 . S
C1719 C541 1.666 . S
C1724 C261 1.663 . S
C1735 C555 1.620 . S
C1740 C275 1.668 . S
C1751 C317 1.649 . S
C1756 C485 1.631 . S
C1767 C457 1.682 . S
C1772 C331 1.684 . S
C1783 C471 1.679 . S
C1788 C639 1.625 . S
C1799 C499 1.651 . S
C1804 C569 1.699 . S
C1815 C625 1.620 . S
C1820 C513 1.668 . S
C1831 C6 1.604 . S
C1836 C314 1.613 . S
C1847 C20 1.561 . S
C1852 C566 1.553 . S
C1863 C328 1.666 . S
C1868 C34 1.665 . S
C1879 C636 1.529 . S
C1884 C48 1.563 . S
C1895 C258 1.593 . S
C1900 C62 1.593 . S
C1911 C272 1.629 . S
C1916 C76 1.605 . S
C1927 C90 1.607 . S
C1932 C622 1.577 . S
C1943 C104 1.593 . S
C1948 C244 1.567 . S
C1959 C188 1.563 . S
C1964 C118 1.581 . S
C1975 C132 1.595 . S
C1980 C202 1.583 . S
C1991 C216 1.554 . S
C1996 C146 1.562 . S
C2007 C174 1.655 . S
C2012 C160 1.637 . S
C2023 C230 1.518 . S
C2028 C356 1.558 . S
C2039 C426 1.504 . S
C2044 C286 1.526 . S
C2055 C384 1.610 . S
C2060 C300 1.606 . S
C2071 C342 1.601 . S
C2076 C650 1.580 . S
C2087 C664 1.547 . S
C2092 C370 1.570 . S
C2103 C594 1.647 . S
C2108 C398 1.674 . S
C2119 C608 1.581 . S
C2124 C412 1.551 . S
C2135 C580 1.565 . S
C2140 C440 1.576 . S
C2151 C524 1.574 . S
C2156 C454 1.534 . S
C2167 C538 1.664 . S
C2172 C468 1.655 . S
C2183 C482 1.562 . S
C2188 C552 1.564 . S
C2199 C496 1.664 . S
C2204 C510 1.643 . S
