# Generated by pormake.
# Topology uka, (4)-cn, num edge types: 1
# Building blocks:
#     Node 0, Type 0, BuildingBlock: KUFVIS_clean_sbu_0, # of connection points: 4
#     Node 1, Type 0, BuildingBlock: KUFVIS_clean_sbu_0, # of connection points: 4
#     Node 2, Type 0, BuildingBlock: KUFVIS_clean_sbu_0, # of connection points: 4
#     Node 3, Type 0, BuildingBlock: KUFVIS_clean_sbu_0, # of connection points: 4
#     Node 4, Type 0, BuildingBlock: KUFVIS_clean_sbu_0, # of connection points: 4
#     Node 5, Type 0, BuildingBlock: KUFVIS_clean_sbu_0, # of connection points: 4
#     Node 6, Type 0, BuildingBlock: KUFVIS_clean_sbu_0, # of connection points: 4
#     Node 7, Type 0, BuildingBlock: KUFVIS_clean_sbu_0, # of connection points: 4
#     Node 8, Type 0, BuildingBlock: KUFVIS_clean_sbu_0, # of connection points: 4
#     Node 9, Type 0, BuildingBlock: KUFVIS_clean_sbu_0, # of connection points: 4
#     Node 10, Type 0, BuildingBlock: KUFVIS_clean_sbu_0, # of connection points: 4
#     Node 11, Type 0, BuildingBlock: KUFVIS_clean_sbu_0, # of connection points: 4
#     Node 12, Type 0, BuildingBlock: KUFVIS_clean_sbu_0, # of connection points: 4
#     Node 13, Type 0, BuildingBlock: KUFVIS_clean_sbu_0, # of connection points: 4
#     Node 14, Type 0, BuildingBlock: KUFVIS_clean_sbu_0, # of connection points: 4
#     Node 15, Type 0, BuildingBlock: KUFVIS_clean_sbu_0, # of connection points: 4
#     Node 16, Type 0, BuildingBlock: KUFVIS_clean_sbu_0, # of connection points: 4
#     Node 17, Type 0, BuildingBlock: KUFVIS_clean_sbu_0, # of connection points: 4
#     Node 18, Type 0, BuildingBlock: KUFVIS_clean_sbu_0, # of connection points: 4
#     Node 19, Type 0, BuildingBlock: KUFVIS_clean_sbu_0, # of connection points: 4
#     Node 20, Type 0, BuildingBlock: KUFVIS_clean_sbu_0, # of connection points: 4
#     Node 21, Type 0, BuildingBlock: KUFVIS_clean_sbu_0, # of connection points: 4
#     Node 22, Type 0, BuildingBlock: KUFVIS_clean_sbu_0, # of connection points: 4
#     Node 23, Type 0, BuildingBlock: KUFVIS_clean_sbu_0, # of connection points: 4
#     Node 24, Type 0, BuildingBlock: KUFVIS_clean_sbu_0, # of connection points: 4
#     Node 25, Type 0, BuildingBlock: KUFVIS_clean_sbu_0, # of connection points: 4
#     Node 26, Type 0, BuildingBlock: KUFVIS_clean_sbu_0, # of connection points: 4
#     Node 27, Type 0, BuildingBlock: KUFVIS_clean_sbu_0, # of connection points: 4
#     Node 28, Type 0, BuildingBlock: KUFVIS_clean_sbu_0, # of connection points: 4
#     Node 29, Type 0, BuildingBlock: KUFVIS_clean_sbu_0, # of connection points: 4
#     Node 30, Type 0, BuildingBlock: KUFVIS_clean_sbu_0, # of connection points: 4
#     Node 31, Type 0, BuildingBlock: KUFVIS_clean_sbu_0, # of connection points: 4
#     Edge 32, Type (0, 0), None
#     Edge 33, Type (0, 0), None
#     Edge 34, Type (0, 0), None
#     Edge 35, Type (0, 0), None
#     Edge 36, Type (0, 0), None
#     Edge 37, Type (0, 0), None
#     Edge 38, Type (0, 0), None
#     Edge 39, Type (0, 0), None
#     Edge 40, Type (0, 0), None
#     Edge 41, Type (0, 0), None
#     Edge 42, Type (0, 0), None
#     Edge 43, Type (0, 0), None
#     Edge 44, Type (0, 0), None
#     Edge 45, Type (0, 0), None
#     Edge 46, Type (0, 0), None
#     Edge 47, Type (0, 0), None
#     Edge 48, Type (0, 0), None
#     Edge 49, Type (0, 0), None
#     Edge 50, Type (0, 0), None
#     Edge 51, Type (0, 0), None
#     Edge 52, Type (0, 0), None
#     Edge 53, Type (0, 0), None
#     Edge 54, Type (0, 0), None
#     Edge 55, Type (0, 0), None
#     Edge 56, Type (0, 0), None
#     Edge 57, Type (0, 0), None
#     Edge 58, Type (0, 0), None
#     Edge 59, Type (0, 0), None
#     Edge 60, Type (0, 0), None
#     Edge 61, Type (0, 0), None
#     Edge 62, Type (0, 0), None
#     Edge 63, Type (0, 0), None
#     Edge 64, Type (0, 0), None
#     Edge 65, Type (0, 0), None
#     Edge 66, Type (0, 0), None
#     Edge 67, Type (0, 0), None
#     Edge 68, Type (0, 0), None
#     Edge 69, Type (0, 0), None
#     Edge 70, Type (0, 0), None
#     Edge 71, Type (0, 0), None
#     Edge 72, Type (0, 0), None
#     Edge 73, Type (0, 0), None
#     Edge 74, Type (0, 0), None
#     Edge 75, Type (0, 0), None
#     Edge 76, Type (0, 0), None
#     Edge 77, Type (0, 0), None
#     Edge 78, Type (0, 0), None
#     Edge 79, Type (0, 0), None
#     Edge 80, Type (0, 0), None
#     Edge 81, Type (0, 0), None
#     Edge 82, Type (0, 0), None
#     Edge 83, Type (0, 0), None
#     Edge 84, Type (0, 0), None
#     Edge 85, Type (0, 0), None
#     Edge 86, Type (0, 0), None
#     Edge 87, Type (0, 0), None
#     Edge 88, Type (0, 0), None
#     Edge 89, Type (0, 0), None
#     Edge 90, Type (0, 0), None
#     Edge 91, Type (0, 0), None
#     Edge 92, Type (0, 0), None
#     Edge 93, Type (0, 0), None
#     Edge 94, Type (0, 0), None
#     Edge 95, Type (0, 0), None
# Relax obj value: 0.147
# Max RMSD: 0.210
# Mean RMSD: 0.204
data_MOF--net-uka--node1-KUFVIS_clean_sbu_0--edge1-none
_symmetry_space_group_name_H-M    P1
_symmetry_Int_Tables_number       1
_symmetry_cell_setting            triclinic
loop_
_symmetry_equiv_pos_as_xyz
'x, y, z'
_cell_length_a     26.16141
_cell_length_b     27.866515
_cell_length_c     19.342003
_cell_angle_alpha  90.020522
_cell_angle_beta   89.706977
_cell_angle_gamma 89.955444
loop_
_atom_site_label
_atom_site_type_symbol
_atom_site_fract_x
_atom_site_fract_y
_atom_site_fract_z
_atom_type_partial_charge
Mn0 Mn 0.13612 0.28452 0.30002 0.0
Mn1 Mn 0.13084 0.19434 0.19311 0.0
C2 C 0.11216 0.2077 0.34483 0.0
C3 C 0.08583 0.34066 0.3624 0.0
C4 C 0.23207 0.23065 0.24362 0.0
O5 O 0.12578 0.32173 0.20066 0.0
O6 O 0.10635 0.25692 0.13943 0.0
C7 C 0.02486 0.19635 0.20191 0.0
N8 N 0.06558 0.16825 0.19201 0.0
C9 C 0.01853 0.09828 0.22573 0.0
C10 C 0.9743 0.12619 0.22571 0.0
C11 C 0.97942 0.1762 0.22264 0.0
C12 C 0.06488 0.12139 0.21053 0.0
H13 H 0.02981 0.23418 0.19985 0.0
C14 C 0.10805 0.30381 0.14322 0.0
O15 O 0.13437 0.34728 0.35507 0.0
O16 O 0.06755 0.30483 0.33034 0.0
N17 N 0.14872 0.13589 0.24017 0.0
C18 C 0.18391 0.13154 0.29155 0.0
C19 C 0.18642 0.0903 0.3313 0.0
C20 C 0.15103 0.05377 0.32096 0.0
C21 C 0.11006 0.06163 0.27667 0.0
C22 C 0.11022 0.10352 0.23589 0.0
H23 H 0.20588 0.16111 0.30924 0.0
O24 O 0.13224 0.23981 0.38425 0.0
O25 O 0.11116 0.22162 0.2808 0.0
O26 O 0.21428 0.26301 0.28524 0.0
O27 O 0.20396 0.21434 0.19537 0.0
C28 C 0.06465 0.03558 0.285 0.0
C29 C 0.01895 0.05314 0.2575 0.0
H30 H 0.93732 0.11046 0.23691 0.0
H31 H 0.94856 0.19993 0.23164 0.0
H32 H 0.21237 0.08972 0.37443 0.0
H33 H 0.15064 0.02367 0.35548 0.0
H34 H 0.06344 0.00424 0.31815 0.0
H35 H 0.98351 0.03486 0.26985 0.0
Mn36 Mn 0.93125 0.87407 0.53586 0.0
Mn37 Mn 0.0155 0.88331 0.41768 0.0
C38 C 0.02163 0.86859 0.5748 0.0
C39 C 0.88838 0.82659 0.60818 0.0
C40 C 0.96311 0.97115 0.47727 0.0
O41 O 0.88402 0.85254 0.44818 0.0
O42 O 0.94965 0.85088 0.37895 0.0
C43 C 0.02466 0.78258 0.43085 0.0
N44 N 0.04858 0.82399 0.41556 0.0
C45 C 0.1301 0.79084 0.4449 0.0
C46 C 0.10587 0.74883 0.46623 0.0
C47 C 0.05219 0.74589 0.46031 0.0
C48 C 0.09884 0.82927 0.42723 0.0
H49 H 0.98396 0.77965 0.42649 0.0
C50 C 0.9025 0.8393 0.38919 0.0
O51 O 0.87245 0.87041 0.60135 0.0
O52 O 0.92512 0.81084 0.57023 0.0
N53 N 0.08052 0.90941 0.44175 0.0
C54 C 0.09441 0.95567 0.45421 0.0
C55 C 0.14598 0.96672 0.46361 0.0
C56 C 0.18246 0.93035 0.45867 0.0
C57 C 0.1679 0.88363 0.44349 0.0
C58 C 0.11611 0.87478 0.43583 0.0
H59 H 0.06699 0.98412 0.45609 0.0
O60 O 0.98397 0.88302 0.61039 0.0
O61 O 0.00346 0.86115 0.51265 0.0
O62 O 0.9347 0.94744 0.51874 0.0
O63 O 0.9856 0.94988 0.42669 0.0
C64 C 0.20225 0.84485 0.43784 0.0
C65 C 0.18321 0.79776 0.44409 0.0
H66 H 0.12811 0.71855 0.48383 0.0
H67 H 0.0307 0.71495 0.47331 0.0
H68 H 0.15786 0.00332 0.4728 0.0
H69 H 0.22197 0.93868 0.46406 0.0
H70 H 0.24304 0.85086 0.435 0.0
H71 H 0.2092 0.76784 0.4502 0.0
Mn72 Mn 0.34328 0.71522 0.79785 0.0
Mn73 Mn 0.35602 0.80219 0.68724 0.0
C74 C 0.36688 0.79309 0.8412 0.0
C75 C 0.39153 0.66094 0.86585 0.0
C76 C 0.25055 0.77141 0.7363 0.0
O77 O 0.35624 0.67402 0.70248 0.0
O78 O 0.37678 0.73639 0.63753 0.0
C79 C 0.45989 0.7894 0.70361 0.0
N80 N 0.42375 0.82137 0.68685 0.0
C81 C 0.47727 0.88724 0.71889 0.0
C82 C 0.5168 0.8548 0.72801 0.0
C83 C 0.50618 0.80541 0.72731 0.0
C84 C 0.42923 0.86847 0.70242 0.0
H85 H 0.44993 0.75223 0.70675 0.0
C86 C 0.37559 0.68969 0.64461 0.0
O87 O 0.34315 0.65493 0.85873 0.0
O88 O 0.41119 0.69487 0.83062 0.0
N89 N 0.34308 0.86404 0.72806 0.0
C90 C 0.30472 0.87553 0.77303 0.0
C91 C 0.30682 0.91792 0.81094 0.0
C92 C 0.34812 0.94875 0.80342 0.0
C93 C 0.38991 0.93377 0.76471 0.0
C94 C 0.38571 0.89154 0.72513 0.0
H95 H 0.27522 0.85072 0.78608 0.0
O96 O 0.34421 0.76209 0.87986 0.0
O97 O 0.37066 0.7775 0.7781 0.0
O98 O 0.26621 0.73776 0.77695 0.0
O99 O 0.28096 0.78915 0.69142 0.0
C100 C 0.43809 0.95358 0.77687 0.0
C101 C 0.48141 0.93334 0.74674 0.0
H102 H 0.5539 0.868 0.74273 0.0
H103 H 0.53358 0.77895 0.74197 0.0
H104 H 0.27977 0.92409 0.85151 0.0
H105 H 0.35067 0.9805 0.83511 0.0
H106 H 0.44257 0.98312 0.8128 0.0
H107 H 0.51846 0.94844 0.75899 0.0
Mn108 Mn 0.54459 0.12212 0.03844 0.0
Mn109 Mn 0.45252 0.11677 0.93055 0.0
C110 C 0.45731 0.12858 0.0893 0.0
C111 C 0.59654 0.17032 0.09822 0.0
C112 C 0.51207 0.02931 0.97908 0.0
O113 O 0.58482 0.13774 0.94211 0.0
O114 O 0.51373 0.15927 0.88985 0.0
C115 C 0.40934 0.21287 0.96592 0.0
N116 N 0.40432 0.16937 0.9348 0.0
C117 C 0.31245 0.18 0.92999 0.0
C118 C 0.31743 0.22609 0.95575 0.0
C119 C 0.36544 0.24123 0.97759 0.0
C120 C 0.35648 0.15138 0.92677 0.0
H121 H 0.44558 0.22403 0.98594 0.0
C122 C 0.56405 0.15978 0.89052 0.0
O123 O 0.60932 0.12545 0.09357 0.0
O124 O 0.55695 0.18528 0.06708 0.0
N125 N 0.39352 0.0793 0.95491 0.0
C126 C 0.39004 0.03248 0.97398 0.0
C127 C 0.34426 0.0075 0.96662 0.0
C128 C 0.30095 0.03179 0.94503 0.0
C129 C 0.30357 0.08078 0.93077 0.0
C130 C 0.35146 0.10294 0.93419 0.0
H131 H 0.42087 0.01438 -0.0033 0.0
O132 O 0.49772 0.11616 0.12108 0.0
O133 O 0.47062 0.13586 0.02479 0.0
O134 O 0.53721 0.05036 0.02565 0.0
O135 O 0.49331 0.05391 0.92858 0.0
C136 C 0.26023 0.10914 0.91813 0.0
C137 C 0.26449 0.15917 0.91854 0.0
H138 H 0.28443 0.24911 0.96298 0.0
H139 H 0.36739 0.27578 -0.00044 0.0
H140 H 0.34214 0.96954 0.97773 0.0
H141 H 0.2659 0.01218 0.94158 0.0
H142 H 0.22251 0.09354 0.91787 0.0
H143 H 0.23016 0.18091 0.91741 0.0
Mn144 Mn 0.13746 0.69964 0.17545 0.0
Mn145 Mn 0.13322 0.79331 0.27578 0.0
C146 C 0.11574 0.77578 0.1256 0.0
C147 C 0.08809 0.64306 0.11292 0.0
C148 C 0.23319 0.74963 0.23724 0.0
O149 O 0.12223 0.66759 0.27774 0.0
O150 O 0.09844 0.73522 0.33085 0.0
C151 C 0.02528 0.81311 0.27212 0.0
N152 N 0.07303 0.83032 0.27124 0.0
C153 C 0.04245 0.90814 0.23762 0.0
C154 C -0.00712 0.89271 0.2502 0.0
C155 C 0.98483 0.84355 0.25767 0.0
C156 C 0.08258 0.87593 0.25062 0.0
H157 H 0.01938 0.77712 0.28704 0.0
C158 C 0.09983 0.68786 0.33092 0.0
O159 O 0.13577 0.63387 0.1251 0.0
O160 O 0.07032 0.68024 0.14194 0.0
N161 N 0.16205 0.84578 0.22284 0.0
C162 C 0.1972 0.84218 0.17037 0.0
C163 C 0.20829 0.88095 0.1283 0.0
C164 C 0.17987 0.9226 0.13528 0.0
C165 C 0.13913 0.92446 0.18157 0.0
C166 C 0.13067 0.88442 0.22456 0.0
H167 H 0.21195 0.80868 0.15277 0.0
O168 O 0.13585 0.74213 0.08855 0.0
O169 O 0.11291 0.76384 0.19031 0.0
O170 O 0.2163 0.71941 0.19213 0.0
O171 O 0.20255 0.76398 0.28431 0.0
C172 C 0.10067 0.95897 0.17347 0.0
C173 C 0.05175 0.94976 0.19932 0.0
H174 H 0.96047 0.91619 0.24156 0.0
H175 H 0.94709 0.82977 0.25736 0.0
H176 H 0.23553 0.87712 0.0863 0.0
H177 H 0.18548 0.95026 0.09793 0.0
H178 H 0.10642 0.98992 0.14065 0.0
H179 H 0.02045 0.97271 0.18388 0.0
Mn180 Mn 0.54554 0.87136 0.44157 0.0
Mn181 Mn 0.45279 0.87415 0.55067 0.0
C182 C 0.45791 0.86304 0.39207 0.0
C183 C 0.59942 0.82598 0.37663 0.0
C184 C 0.50957 0.96368 0.50396 0.0
O185 O 0.58547 0.85408 0.5389 0.0
O186 O 0.5143 0.83279 0.59223 0.0
C187 C 0.41155 0.77782 0.51133 0.0
N188 N 0.40605 0.8205 0.54496 0.0
C189 C 0.31452 0.80871 0.55033 0.0
C190 C 0.32002 0.76299 0.52333 0.0
C191 C 0.3681 0.74891 0.49974 0.0
C192 C 0.35799 0.83781 0.55385 0.0
H193 H 0.44761 0.7677 0.48919 0.0
C194 C 0.56461 0.83238 0.59159 0.0
O195 O 0.61099 0.87081 0.38501 0.0
O196 O 0.56015 0.80953 0.40695 0.0
N197 N 0.39353 0.91059 0.52612 0.0
C198 C 0.38932 0.95758 0.50837 0.0
C199 C 0.3436 0.98209 0.5186 0.0
C200 C 0.3006 0.95704 0.53972 0.0
C201 C 0.30398 0.90783 0.55274 0.0
C202 C 0.3521 0.88627 0.54751 0.0
H203 H 0.41925 0.97607 0.48369 0.0
O204 O 0.49795 0.87695 0.35978 0.0
O205 O 0.47201 0.85582 0.45615 0.0
O206 O 0.53569 0.94325 0.45717 0.0
O207 O 0.4915 0.93822 0.55426 0.0
C208 C 0.26152 0.87865 0.56681 0.0
C209 C 0.26658 0.82876 0.56435 0.0
H210 H 0.28734 0.73969 0.51612 0.0
H211 H 0.37034 0.71513 0.47514 0.0
H212 H 0.34116 0.02025 0.50929 0.0
H213 H 0.26506 0.97614 0.54105 0.0
H214 H 0.22369 0.89324 0.57048 0.0
H215 H 0.23284 0.80639 0.56801 0.0
Mn216 Mn 0.3435 0.28385 0.68148 0.0
Mn217 Mn 0.35059 0.19588 0.7912 0.0
C218 C 0.3682 0.20631 0.63853 0.0
C219 C 0.39757 0.33784 0.61961 0.0
C220 C 0.24822 0.22771 0.73649 0.0
O221 O 0.35127 0.32379 0.77849 0.0
O222 O 0.37048 0.26077 0.84296 0.0
C223 C 0.45625 0.20509 0.77956 0.0
N224 N 0.41796 0.17458 0.79367 0.0
C225 C 0.46962 0.10675 0.76309 0.0
C226 C 0.51087 0.13756 0.75571 0.0
C227 C 0.50252 0.18724 0.75678 0.0
C228 C 0.42195 0.12729 0.77805 0.0
H229 H 0.44826 0.24275 0.77802 0.0
C230 C 0.36791 0.30752 0.83729 0.0
O231 O 0.34887 0.34432 0.62064 0.0
O232 O 0.41371 0.30357 0.65681 0.0
N233 N 0.33709 0.13504 0.74793 0.0
C234 C 0.30141 0.12585 0.69845 0.0
C235 C 0.30187 0.08253 0.66266 0.0
C236 C 0.3405 0.04943 0.67482 0.0
C237 C 0.38141 0.06277 0.71582 0.0
C238 C 0.37804 0.10567 0.75409 0.0
H239 H 0.27581 0.15273 0.6805 0.0
O240 O 0.34873 0.23804 0.59827 0.0
O241 O 0.36878 0.22125 0.70206 0.0
O242 O 0.26562 0.26086 0.69571 0.0
O243 O 0.27613 0.2113 0.78518 0.0
C244 C 0.42884 0.04089 0.706 0.0
C245 C 0.47251 0.06045 0.73567 0.0
H246 H 0.54795 0.12313 0.74256 0.0
H247 H 0.53169 0.21212 0.74225 0.0
H248 H 0.27559 0.07683 0.62101 0.0
H249 H 0.3425 0.017 0.64461 0.0
H250 H 0.43284 0.01073 0.67095 0.0
H251 H 0.5092 0.04397 0.72452 0.0
Mn252 Mn 0.94083 0.11512 0.94024 0.0
Mn253 Mn 0.03159 0.1122 0.05235 0.0
C254 C 0.02937 0.12328 0.89545 0.0
C255 C 0.89166 0.15884 0.86696 0.0
C256 C 0.97449 0.02239 0.00397 0.0
O257 O 0.89797 0.13448 0.03461 0.0
O258 O 0.96805 0.15242 0.09244 0.0
C259 C 0.07378 0.20876 0.01472 0.0
N260 N 0.07843 0.16638 0.04928 0.0
C261 C 0.17012 0.17895 0.05639 0.0
C262 C 0.16458 0.22476 0.03001 0.0
C263 C 0.11703 0.23825 0.00491 0.0
C264 C 0.12661 0.14939 0.05896 0.0
H265 H 0.03904 0.21788 -0.01073 0.0
C266 C 0.91775 0.15465 0.089 0.0
O267 O 0.87788 0.115 0.87917 0.0
O268 O 0.92931 0.17598 0.89953 0.0
N269 N 0.09172 0.077 0.02731 0.0
C270 C 0.09661 0.03128 0.00366 0.0
C271 C 0.14349 0.00781 0.00776 0.0
C272 C 0.18599 0.03244 0.03164 0.0
C273 C 0.18165 0.08041 0.05045 0.0
C274 C 0.13302 0.1012 0.04949 0.0
H275 H 0.06577 0.01264 0.98102 0.0
O276 O -0.00864 0.10675 0.86297 0.0
O277 O 0.01362 0.13142 0.95847 0.0
O278 O 0.94799 0.0435 0.95873 0.0
O279 O -0.00589 0.04718 0.05371 0.0
C280 C 0.22425 0.10932 0.06422 0.0
C281 C 0.2186 0.15906 0.06702 0.0
H282 H 0.19715 0.24834 0.02337 0.0
H283 H 0.1149 0.2722 0.98085 0.0
H284 H 0.14698 0.97057 -0.00696 0.0
H285 H 0.22192 0.01413 0.03389 0.0
H286 H 0.26242 0.09457 0.06279 0.0
H287 H 0.25238 0.1815 0.0686 0.0
Mn288 Mn 0.88837 0.72173 0.70685 0.0
Mn289 Mn 0.84814 0.61573 0.73315 0.0
C290 C 0.92557 0.66373 0.62818 0.0
C291 C 0.87094 0.79409 0.65871 0.0
C292 C 0.91509 0.66572 0.83429 0.0
O293 O 0.82174 0.73099 0.76354 0.0
O294 O 0.78669 0.66271 0.73111 0.0
C295 C 0.7654 0.56996 0.66567 0.0
N296 N 0.81696 0.5761 0.66654 0.0
C297 C 0.82946 0.49581 0.62405 0.0
C298 C 0.77705 0.4908 0.61759 0.0
C299 C 0.7448 0.52615 0.64506 0.0
C300 C 0.84779 0.53837 0.65257 0.0
H301 H 0.74 0.59702 0.68547 0.0
C302 C 0.78213 0.70812 0.74496 0.0
O303 O 0.89828 0.79123 0.71453 0.0
O304 O 0.85228 0.75493 0.6336 0.0
N305 N 0.90713 0.57424 0.72403 0.0
C306 C 0.95693 0.58164 0.74257 0.0
C307 C -0.00403 0.55197 0.71705 0.0
C308 C 0.98409 0.51579 0.66994 0.0
C309 C 0.93296 0.50701 0.65429 0.0
C310 C 0.8964 0.53978 0.67763 0.0
H311 H 0.96917 0.61299 0.76821 0.0
O312 O 0.9457 0.70534 0.63941 0.0
O313 O 0.88315 0.65746 0.66493 0.0
O314 O 0.93207 0.69644 0.79079 0.0
O315 O 0.87385 0.64425 0.82095 0.0
C316 C 0.91635 0.46612 0.61877 0.0
C317 C 0.864 0.45877 0.60805 0.0
H318 H 0.76215 0.4594 0.59309 0.0
H319 H 0.70397 0.52118 0.64797 0.0
H320 H 0.03543 0.55891 0.7304 0.0
H321 H 0.01438 0.49313 0.6504 0.0
H322 H 0.94309 0.43889 0.60404 0.0
H323 H 0.85083 0.42538 0.58572 0.0
Mn324 Mn 0.01263 0.12187 0.43612 0.0
Mn325 Mn 0.91619 0.11296 0.55107 0.0
C326 C 0.92638 0.12167 0.39769 0.0
C327 C 0.07327 0.17353 0.3757 0.0
C328 C 0.96899 0.02532 0.48728 0.0
O329 O 0.04838 0.13724 0.52856 0.0
O330 O 0.97921 0.14135 0.59582 0.0
C331 C 0.90608 0.21767 0.54644 0.0
N332 N 0.88406 0.1741 0.55651 0.0
C333 C 0.80004 0.20838 0.54669 0.0
C334 C 0.82153 0.25376 0.53994 0.0
C335 C 0.87459 0.25756 0.53519 0.0
C336 C 0.83314 0.169 0.5497 0.0
H337 H 0.9471 0.22101 0.54135 0.0
C338 C 0.0267 0.1501 0.58497 0.0
O339 O 0.08101 0.12801 0.38458 0.0
O340 O 0.0309 0.18912 0.4022 0.0
N341 N 0.85035 0.08895 0.52519 0.0
C342 C 0.83543 0.04192 0.52396 0.0
C343 C 0.78402 0.02989 0.53518 0.0
C344 C 0.74772 0.06628 0.54492 0.0
C345 C 0.76312 0.11414 0.54179 0.0
C346 C 0.81536 0.12362 0.53774 0.0
H347 H 0.86255 0.01314 0.51905 0.0
O348 O 0.96504 0.11088 0.35937 0.0
O349 O 0.93996 0.13267 0.45975 0.0
O350 O 0.00305 0.04827 0.45235 0.0
O351 O 0.94395 0.04611 0.53653 0.0
C352 C 0.72887 0.15299 0.5429 0.0
C353 C 0.74737 0.20027 0.54283 0.0
H354 H 0.79779 0.28518 0.53224 0.0
H355 H 0.89044 0.29039 0.51809 0.0
H356 H 0.77247 0.99262 0.53675 0.0
H357 H 0.70804 0.05718 0.55385 0.0
H358 H 0.68865 0.14701 0.53708 0.0
H359 H 0.72123 0.23005 0.53771 0.0
Mn360 Mn 0.5907 0.27497 0.19518 0.0
Mn361 Mn 0.62822 0.38077 0.22536 0.0
C362 C 0.55101 0.33409 0.11743 0.0
C363 C 0.61381 0.20306 0.14795 0.0
C364 C 0.56193 0.32639 0.32526 0.0
O365 O 0.65638 0.2664 0.25347 0.0
O366 O 0.6916 0.33428 0.22077 0.0
C367 C 0.70946 0.43237 0.16234 0.0
N368 N 0.65851 0.42299 0.16057 0.0
C369 C 0.64229 0.50221 0.11581 0.0
C370 C 0.69445 0.51015 0.11044 0.0
C371 C 0.72796 0.47659 0.13891 0.0
C372 C 0.62584 0.45895 0.14499 0.0
H373 H 0.73569 0.40738 0.18554 0.0
C374 C 0.69639 0.28866 0.23477 0.0
O375 O 0.58523 0.20515 0.20304 0.0
O376 O 0.62972 0.24324 0.12209 0.0
N377 N 0.56824 0.4215 0.2183 0.0
C378 C 0.51907 0.414 0.24041 0.0
C379 C 0.47901 0.44304 0.21689 0.0
C380 C 0.48904 0.47866 0.16793 0.0
C381 C 0.53946 0.48759 0.14818 0.0
C382 C 0.57728 0.45577 0.17056 0.0
H383 H 0.50811 0.38422 0.27056 0.0
O384 O 0.53338 0.29116 0.12632 0.0
O385 O 0.59283 0.3405 0.15533 0.0
O386 O 0.54513 0.29718 0.27976 0.0
O387 O 0.60245 0.34947 0.31205 0.0
C388 C 0.55421 0.5283 0.11036 0.0
C389 C 0.60607 0.53715 0.09781 0.0
H390 H 0.70814 0.54286 0.0873 0.0
H391 H 0.76799 0.48396 0.14242 0.0
H392 H 0.44012 0.43617 0.23358 0.0
H393 H 0.45797 0.50081 0.14993 0.0
H394 H 0.52671 0.55525 0.09691 0.0
H395 H 0.61777 0.57059 0.07406 0.0
Mn396 Mn 0.46604 0.87829 0.93608 0.0
Mn397 Mn 0.55911 0.88993 0.05289 0.0
C398 C 0.55365 0.87578 0.89942 0.0
C399 C 0.4056 0.82658 0.87436 0.0
C400 C 0.50568 0.97484 0.98584 0.0
O401 O 0.42998 0.86734 0.03181 0.0
O402 O 0.49908 0.85553 0.0964 0.0
C403 C 0.58467 0.78593 0.05728 0.0
N404 N 0.5986 0.83286 0.06188 0.0
C405 C 0.68704 0.81223 0.0743 0.0
C406 C 0.67428 0.76353 0.06942 0.0
C407 C 0.62293 0.75038 0.05929 0.0
C408 C 0.64803 0.84559 0.06517 0.0
H409 H 0.54509 0.77612 0.04975 0.0
C410 C 0.45123 0.84978 0.08619 0.0
O411 O 0.39835 0.8721 0.88321 0.0
O412 O 0.44663 0.81054 0.90366 0.0
N413 N 0.62175 0.92071 0.02779 0.0
C414 C 0.63003 0.96866 0.01836 0.0
C415 C 0.67501 0.99006 0.04238 0.0
C416 C 0.71302 0.96141 0.07169 0.0
C417 C 0.70648 0.91162 0.07266 0.0
C418 C 0.65908 0.89304 0.05421 0.0
H419 H 0.60258 0.99097 -0.00634 0.0
O420 O 0.5157 0.8855 0.8598 0.0
O421 O 0.53847 0.86726 0.96178 0.0
O422 O 0.47553 0.95204 0.94582 0.0
O423 O 0.52468 0.95379 0.03915 0.0
C424 C 0.74558 0.8796 0.08934 0.0
C425 C 0.73695 0.82956 0.08469 0.0
H426 H 0.70352 0.73608 0.07241 0.0
H427 H 0.61321 0.71307 0.05249 0.0
H428 H 0.68068 0.02836 0.03719 0.0
H429 H 0.74834 0.97763 0.08896 0.0
H430 H 0.78267 0.89425 0.10016 0.0
H431 H 0.76854 0.80487 0.08788 0.0
Mn432 Mn 0.89058 0.26557 0.77294 0.0
Mn433 Mn 0.84953 0.37223 0.7524 0.0
C434 C 0.92665 0.32345 0.85591 0.0
C435 C 0.8718 0.19071 0.81704 0.0
C436 C 0.9182 0.32568 0.64786 0.0
O437 O 0.82457 0.25693 0.71503 0.0
O438 O 0.7891 0.32424 0.7507 0.0
C439 C 0.76587 0.41219 0.824 0.0
N440 N 0.81747 0.40762 0.82295 0.0
C441 C 0.82704 0.48531 0.87551 0.0
C442 C 0.77428 0.48873 0.88126 0.0
C443 C 0.74375 0.4537 0.84962 0.0
C444 C 0.84699 0.44525 0.84132 0.0
H445 H 0.74148 0.38634 0.79952 0.0
C446 C 0.78468 0.27927 0.73461 0.0
O447 O 0.89999 0.19571 0.76196 0.0
O448 O 0.85323 0.22954 0.84386 0.0
N449 N 0.90683 0.41488 0.76437 0.0
C450 C 0.95645 0.41023 0.74279 0.0
C451 C -0.00585 0.44113 0.76776 0.0
C452 C 0.98089 0.47654 0.81558 0.0
C453 C 0.92993 0.48172 0.83614 0.0
C454 C 0.89515 0.44718 0.81387 0.0
H455 H 0.96946 0.38108 0.71238 0.0
O456 O 0.94696 0.28195 0.84359 0.0
O457 O 0.88534 0.32931 0.81742 0.0
O458 O 0.93478 0.29358 0.68974 0.0
O459 O 0.87714 0.34735 0.66271 0.0
C460 C 0.91174 0.52029 0.87608 0.0
C461 C 0.85987 0.52289 0.89433 0.0
H462 H 0.75755 0.51939 0.90678 0.0
H463 H 0.70309 0.45761 0.84382 0.0
H464 H 0.0336 0.43669 0.75176 0.0
H465 H 0.01023 0.50077 0.83235 0.0
H466 H 0.93626 0.54981 0.88856 0.0
H467 H 0.84539 0.55445 0.92071 0.0
Mn468 Mn 0.46443 0.11639 0.54821 0.0
Mn469 Mn 0.55568 0.10209 0.42927 0.0
C470 C 0.55217 0.11427 0.58384 0.0
C471 C 0.40625 0.17081 0.60856 0.0
C472 C 0.50146 0.01848 0.4973 0.0
O473 O 0.4276 0.13135 0.45505 0.0
O474 O 0.49659 0.1381 0.38852 0.0
C475 C 0.58403 0.20507 0.42174 0.0
N476 N 0.59619 0.15772 0.41681 0.0
C477 C 0.68353 0.17511 0.39088 0.0
C478 C 0.67278 0.2243 0.39573 0.0
C479 C 0.62301 0.2393 0.41309 0.0
C480 C 0.64448 0.14316 0.4065 0.0
H481 H 0.54546 0.21618 0.43428 0.0
C482 C 0.44948 0.14693 0.39989 0.0
O483 O 0.3972 0.12546 0.60125 0.0
O484 O 0.44851 0.18489 0.57999 0.0
N485 N 0.61802 0.0701 0.45148 0.0
C486 C 0.62592 0.02291 0.4668 0.0
C487 C 0.67055 -0.00028 0.444 0.0
C488 C 0.70801 0.02589 0.40836 0.0
C489 C 0.70139 0.0754 0.39972 0.0
C490 C 0.65479 0.09565 0.41933 0.0
H491 H 0.59892 0.00304 0.49668 0.0
O492 O 0.51367 0.10569 0.62355 0.0
O493 O 0.53754 0.12491 0.52187 0.0
O494 O 0.47098 0.04154 0.53741 0.0
O495 O 0.51928 0.0395 0.44325 0.0
C496 C 0.74007 0.10594 0.37589 0.0
C497 C 0.73215 0.15622 0.37651 0.0
H498 H 0.70264 0.25074 0.38835 0.0
H499 H 0.61516 0.27694 0.42054 0.0
H500 H 0.67638 0.96201 0.45486 0.0
H501 H 0.74313 0.00838 0.39239 0.0
H502 H 0.77668 0.09061 0.36269 0.0
H503 H 0.76352 0.18038 0.36945 0.0
Mn504 Mn 0.59391 0.72146 0.28023 0.0
Mn505 Mn 0.62673 0.61386 0.24503 0.0
C506 C 0.55956 0.66255 0.36248 0.0
C507 C 0.61808 0.79459 0.32506 0.0
C508 C 0.55726 0.66913 0.15406 0.0
O509 O 0.65683 0.72843 0.21568 0.0
O510 O 0.6904 0.65808 0.24113 0.0
C511 C 0.70938 0.56125 0.29328 0.0
N512 N 0.65977 0.57217 0.30564 0.0
C513 C 0.64646 0.49513 0.35742 0.0
C514 C 0.69872 0.4867 0.35387 0.0
C515 C 0.72985 0.51855 0.3169 0.0
C516 C 0.62804 0.53751 0.32819 0.0
H517 H 0.73285 0.58485 0.26396 0.0
C518 C 0.69633 0.70345 0.22807 0.0
O519 O 0.58798 0.79149 0.27206 0.0
O520 O 0.6361 0.75464 0.34912 0.0
N521 N 0.5668 0.57409 0.25995 0.0
C522 C 0.51689 0.58066 0.24114 0.0
C523 C 0.47818 0.5514 0.26864 0.0
C524 C 0.49083 0.51571 0.31651 0.0
C525 C 0.54216 0.5078 0.33275 0.0
C526 C 0.57828 0.54032 0.30756 0.0
H527 H 0.50471 0.60974 0.21046 0.0
O528 O 0.54083 0.70532 0.35569 0.0
O529 O 0.59847 0.65589 0.31918 0.0
O530 O 0.54357 0.69893 0.20094 0.0
O531 O 0.59784 0.64568 0.16243 0.0
C532 C 0.55953 0.46746 0.36949 0.0
C533 C 0.61181 0.4604 0.38054 0.0
H534 H 0.71424 0.4551 0.37704 0.0
H535 H 0.76959 0.51186 0.30676 0.0
H536 H 0.43863 0.55754 0.25496 0.0
H537 H 0.46085 0.49301 0.3366 0.0
H538 H 0.53403 0.43892 0.38249 0.0
H539 H 0.62508 0.42725 0.40355 0.0
Mn540 Mn 0.02071 0.86794 0.03934 0.0
Mn541 Mn 0.92278 0.8837 0.93145 0.0
C542 C 0.93582 0.86694 0.08324 0.0
C543 C 0.08015 0.81186 0.09257 0.0
C544 C 0.98093 0.96745 -0.00412 0.0
O545 O 0.05292 0.85683 0.94216 0.0
O546 O 0.9811 0.85015 0.88115 0.0
C547 C 0.89557 0.78001 0.92629 0.0
N548 N 0.88212 0.82714 0.92345 0.0
C549 C 0.79284 0.80743 0.91826 0.0
C550 C 0.8053 0.75863 0.91973 0.0
C551 C 0.85672 0.74501 0.92694 0.0
C552 C 0.83264 0.84028 0.9257 0.0
H553 H 0.93526 0.76969 0.93114 0.0
C554 C 0.02924 0.84267 0.88784 0.0
O555 O 0.08938 0.85741 0.08777 0.0
O556 O 0.03769 0.79861 0.06457 0.0
N557 N 0.86183 0.91406 0.96452 0.0
C558 C 0.85445 0.96153 0.97916 0.0
C559 C 0.80782 0.98361 0.96363 0.0
C560 C 0.76786 0.95604 0.93716 0.0
C561 C 0.77406 0.9064 0.93147 0.0
C562 C 0.8226 0.88728 0.94148 0.0
H563 H 0.88388 0.98309 0.00096 0.0
O564 O 0.97571 0.87427 0.12015 0.0
O565 O 0.94729 0.85914 0.01926 0.0
O566 O 0.0127 0.94329 0.03254 0.0
O567 O 0.9583 0.9472 0.9445 0.0
C568 C 0.73373 0.8751 0.91758 0.0
C569 C 0.74251 0.8251 0.91436 0.0
H570 H 0.7757 0.73148 0.91827 0.0
H571 H 0.86578 0.70776 0.9347 0.0
H572 H 0.80267 0.02169 0.97233 0.0
H573 H 0.73177 0.9729 0.92476 0.0
H574 H 0.69577 0.8898 0.91585 0.0
H575 H 0.71062 0.80069 0.91032 0.0
Mn576 Mn 0.63538 0.78417 0.80227 0.0
Mn577 Mn 0.62866 0.69183 0.70048 0.0
C578 C 0.61321 0.70774 0.85143 0.0
C579 C 0.58903 0.84226 0.86658 0.0
C580 C 0.7297 0.73392 0.7379 0.0
O581 O 0.62099 0.81796 0.70062 0.0
O582 O 0.59487 0.75162 0.64745 0.0
C583 C 0.52018 0.67524 0.70921 0.0
N584 N 0.56724 0.65647 0.70699 0.0
C585 C 0.53469 0.57982 0.7435 0.0
C586 C 0.48544 0.59703 0.73537 0.0
C587 C 0.47908 0.64628 0.72737 0.0
C588 C 0.57555 0.61062 0.72732 0.0
H589 H 0.51532 0.71132 0.6943 0.0
C590 C 0.59792 0.79892 0.64736 0.0
O591 O 0.63674 0.84905 0.85229 0.0
O592 O 0.56915 0.80528 0.8397 0.0
N593 N 0.6568 0.63771 0.75031 0.0
C594 C 0.69413 0.63869 0.79961 0.0
C595 C 0.70661 0.5978 0.8368 0.0
C596 C 0.67603 0.5575 0.83044 0.0
C597 C 0.63275 0.55894 0.78942 0.0
C598 C 0.62402 0.60025 0.74955 0.0
H599 H 0.71009 0.67129 0.81839 0.0
O600 O 0.63472 0.74067 0.88824 0.0
O601 O 0.60973 0.72057 0.78721 0.0
O602 O 0.71311 0.76406 0.78317 0.0
O603 O 0.69908 0.71912 0.69142 0.0
C604 C 0.59342 0.52569 0.79952 0.0
C605 C 0.54381 0.53719 0.77928 0.0
H606 H 0.45249 0.57467 0.74638 0.0
H607 H 0.44204 0.6611 0.7295 0.0
H608 H 0.73607 0.59929 0.87581 0.0
H609 H 0.68051 0.52927 0.8668 0.0
H610 H 0.6001 0.49286 0.82754 0.0
H611 H 0.51243 0.5143 0.79532 0.0
Mn612 Mn 0.42489 0.37684 0.04253 0.0
Mn613 Mn 0.50691 0.38991 0.92307 0.0
C614 C 0.51572 0.37127 0.08015 0.0
C615 C 0.38341 0.32667 0.11298 0.0
C616 C 0.45437 0.4759 0.98678 0.0
O617 O 0.37805 0.35562 0.95306 0.0
O618 O 0.44323 0.35528 0.88288 0.0
C619 C 0.52122 0.28946 0.93411 0.0
N620 N 0.54299 0.33221 0.92023 0.0
C621 C 0.62594 0.30262 0.94897 0.0
C622 C 0.60417 0.2587 0.96755 0.0
C623 C 0.55074 0.25333 0.96154 0.0
C624 C 0.59266 0.33981 0.93352 0.0
H625 H 0.48067 0.28474 0.9297 0.0
C626 C 0.39658 0.3426 0.89363 0.0
O627 O 0.36668 0.37039 0.10872 0.0
O628 O 0.41984 0.31252 0.07327 0.0
N629 N 0.56986 0.4188 0.94797 0.0
C630 C 0.5811 0.466 0.95514 0.0
C631 C 0.63129 0.48038 0.96453 0.0
C632 C 0.66976 0.44607 0.96639 0.0
C633 C 0.65828 0.39788 0.95314 0.0
C634 C 0.60727 0.38603 0.94428 0.0
H635 H 0.55309 0.49284 0.94916 0.0
O636 O 0.47811 0.38386 0.11767 0.0
O637 O 0.49678 0.3657 0.01779 0.0
O638 O 0.42795 0.45146 0.02996 0.0
O639 O 0.47328 0.45498 0.9332 0.0
C640 C 0.69455 0.36096 0.94651 0.0
C641 C 0.67838 0.31258 0.94882 0.0
H642 H 0.62789 0.22894 0.9835 0.0
H643 H 0.53084 0.22133 0.97333 0.0
H644 H 0.64041 0.51805 0.96931 0.0
H645 H 0.70784 0.45861 0.97452 0.0
H646 H 0.73452 0.36923 0.94234 0.0
H647 H 0.70596 0.28374 0.95136 0.0
Mn648 Mn 0.84323 0.20903 0.29515 0.0
Mn649 Mn 0.85227 0.29875 0.18908 0.0
C650 C 0.86551 0.28589 0.34228 0.0
C651 C 0.89093 0.15307 0.36209 0.0
C652 C 0.74891 0.26131 0.22728 0.0
O653 O 0.86084 0.17144 0.19741 0.0
O654 O 0.88413 0.23641 0.13868 0.0
C655 C 0.95924 0.30677 0.20005 0.0
N656 N 0.91504 0.33022 0.19397 0.0
C657 C 0.95403 0.40342 0.23163 0.0
C658 C 0.00142 0.38131 0.22493 0.0
C659 C 0.00231 0.33141 0.21968 0.0
C660 C 0.91053 0.37656 0.21429 0.0
H661 H 0.96011 0.26969 0.18899 0.0
C662 C 0.8835 0.18914 0.14276 0.0
O663 O 0.8432 0.14579 0.35082 0.0
O664 O 0.90992 0.18933 0.33239 0.0
N665 N 0.82704 0.35504 0.23655 0.0
C666 C 0.78993 0.35483 0.28654 0.0
C667 C 0.78289 0.39338 0.3301 0.0
C668 C 0.81589 0.43194 0.32585 0.0
C669 C 0.85808 0.43 0.28202 0.0
C670 C 0.86286 0.39015 0.2375 0.0
H671 H 0.77201 0.32294 0.30399 0.0
O672 O 0.84229 0.2541 0.37931 0.0
O673 O 0.86992 0.27202 0.27824 0.0
O674 O 0.76522 0.23076 0.27242 0.0
O675 O 0.78011 0.27563 0.18099 0.0
C676 C 0.90069 0.45878 0.29578 0.0
C677 C 0.94878 0.44535 0.27062 0.0
H678 H 0.03652 0.40046 0.23592 0.0
H679 H 0.03656 0.31198 0.22325 0.0
H680 H 0.75645 0.38991 0.37287 0.0
H681 H 0.81326 0.45875 0.3649 0.0
H682 H 0.89797 0.48869 0.33145 0.0
H683 H 0.9822 0.4649 0.28768 0.0
Mn684 Mn 0.04574 0.61973 0.53806 0.0
Mn685 Mn 0.9541 0.6148 0.42853 0.0
C686 C 0.95793 0.62742 0.58684 0.0
C687 C 0.0978 0.66803 0.60089 0.0
C688 C 0.01099 0.52608 0.47891 0.0
O689 O 0.08661 0.63546 0.44112 0.0
O690 O 0.01596 0.65511 0.38614 0.0
C691 C 0.91242 0.71165 0.46416 0.0
N692 N 0.90746 0.66869 0.43133 0.0
C693 C 0.81605 0.68088 0.42367 0.0
C694 C 0.82113 0.72658 0.45063 0.0
C695 C 0.86883 0.74062 0.47475 0.0
C696 C 0.85951 0.6515 0.42191 0.0
H697 H 0.94796 0.72176 0.48713 0.0
C698 C 0.06617 0.65592 0.38759 0.0
O699 O 0.11025 0.62313 0.59535 0.0
O700 O 0.05867 0.68299 0.56901 0.0
N701 N 0.89448 0.5793 0.45384 0.0
C702 C 0.88992 0.53302 0.47475 0.0
C703 C 0.84387 0.50888 0.46709 0.0
C704 C 0.80118 0.5336 0.44436 0.0
C705 C 0.80509 0.58212 0.42758 0.0
C706 C 0.85335 0.60331 0.43093 0.0
H707 H 0.92005 0.51477 0.49913 0.0
O708 O -0.00231 0.61447 0.6198 0.0
O709 O 0.97224 0.63428 0.52261 0.0
O710 O 0.03706 0.54727 0.52481 0.0
O711 O -0.00713 0.5507 0.42796 0.0
C712 C 0.76281 0.6111 0.41203 0.0
C713 C 0.76816 0.66089 0.41024 0.0
H714 H 0.78844 0.75008 0.45694 0.0
H715 H 0.8707 0.77456 0.49848 0.0
H716 H 0.84087 0.47117 0.47916 0.0
H717 H 0.7653 0.51492 0.44389 0.0
H718 H 0.72486 0.59657 0.41009 0.0
H719 H 0.73444 0.68326 0.40616 0.0
Mn720 Mn 0.63694 0.20293 0.6803 0.0
Mn721 Mn 0.63124 0.29742 0.77999 0.0
C722 C 0.61666 0.27874 0.62919 0.0
C723 C 0.58888 0.14556 0.61818 0.0
C724 C 0.73206 0.25358 0.74234 0.0
O725 O 0.62064 0.17112 0.7818 0.0
O726 O 0.59741 0.23884 0.83477 0.0
C727 C 0.52283 0.31345 0.7778 0.0
N728 N 0.56979 0.33234 0.77496 0.0
C729 C 0.53558 0.40816 0.7386 0.0
C730 C 0.48677 0.39107 0.75244 0.0
C731 C 0.48101 0.34193 0.76296 0.0
C732 C 0.5772 0.37787 0.75267 0.0
H733 H 0.51844 0.27779 0.79518 0.0
C734 C 0.59795 0.19156 0.83439 0.0
O735 O 0.63646 0.13692 0.63176 0.0
O736 O 0.57025 0.18307 0.64561 0.0
N737 N 0.65869 0.35108 0.72794 0.0
C738 C 0.69569 0.34891 0.67781 0.0
C739 C 0.70474 0.38731 0.63401 0.0
C740 C 0.67306 0.42719 0.63736 0.0
C741 C 0.63168 0.42763 0.68257 0.0
C742 C 0.62506 0.3881 0.72714 0.0
H743 H 0.71303 0.31613 0.66225 0.0
O744 O 0.63707 0.24473 0.59309 0.0
O745 O 0.6126 0.26733 0.69401 0.0
O746 O 0.71528 0.22249 0.69844 0.0
O747 O 0.7015 0.26985 0.78832 0.0
C748 C 0.59124 0.45967 0.67177 0.0
C749 C 0.54286 0.44924 0.69837 0.0
H750 H 0.45326 0.41299 0.743 0.0
H751 H 0.4441 0.32651 0.76427 0.0
H752 H 0.73254 0.38365 0.5927 0.0
H753 H 0.676 0.45367 0.59738 0.0
H754 H 0.59567 0.49017 0.63794 0.0
H755 H 0.51065 0.4713 0.68324 0.0
Mn756 Mn 0.04773 0.37054 0.93976 0.0
Mn757 Mn 0.96185 0.37491 0.05597 0.0
C758 C 0.95872 0.36104 0.89677 0.0
C759 C 0.09535 0.32359 0.87161 0.0
C760 C 0.00754 0.46518 -0.0016 0.0
O761 O 0.09532 0.35251 0.02919 0.0
O762 O 0.02872 0.34486 0.09512 0.0
C763 C 0.9593 0.27424 0.03843 0.0
N764 N 0.93279 0.31415 0.05355 0.0
C765 C 0.85399 0.27803 0.01951 0.0
C766 C 0.88076 0.23763 -0.00173 0.0
C767 C 0.93448 0.23689 0.00656 0.0
C768 C 0.88285 0.31728 0.03952 0.0
H769 H -0.00026 0.27303 0.04594 0.0
C770 C 0.07686 0.33685 0.08689 0.0
O771 O 0.10795 0.36854 0.87614 0.0
O772 O 0.05871 0.30706 0.90887 0.0
N773 N 0.8953 0.39857 0.03392 0.0
C774 C 0.87752 0.44452 0.03275 0.0
C775 C 0.82469 0.45264 0.03321 0.0
C776 C 0.79128 0.41355 0.03906 0.0
C777 C 0.81004 0.36724 0.03999 0.0
C778 C 0.86246 0.36159 0.03711 0.0
H779 H 0.90292 0.47476 0.03347 0.0
O780 O -0.00341 0.37615 0.86176 0.0
O781 O 0.97585 0.35496 0.95993 0.0
O782 O 0.03744 0.44336 0.95625 0.0
O783 O 0.98802 0.44271 0.05001 0.0
C784 C 0.77912 0.32586 0.04323 0.0
C785 C 0.80066 0.28122 0.02514 0.0
H786 H 0.85993 0.20666 0.98045 0.0
H787 H 0.95764 0.20652 -0.00447 0.0
H788 H 0.80979 0.48882 0.03089 0.0
H789 H 0.75107 0.41837 0.04193 0.0
H790 H 0.73905 0.32835 0.05635 0.0
H791 H 0.77673 0.24985 0.01888 0.0
Mn792 Mn 0.84475 0.78262 0.17935 0.0
Mn793 Mn 0.85298 0.69382 0.28745 0.0
C794 C 0.86789 0.70532 0.13487 0.0
C795 C 0.89811 0.83703 0.11824 0.0
C796 C 0.74957 0.72736 0.23611 0.0
O797 O 0.85469 0.82183 0.27596 0.0
O798 O 0.87449 0.75823 0.33881 0.0
C799 C 0.95859 0.70242 0.27522 0.0
N800 N 0.9201 0.67211 0.28886 0.0
C801 C 0.97127 0.60393 0.25856 0.0
C802 C 0.0128 0.63447 0.25156 0.0
C803 C 0.00488 0.68429 0.25334 0.0
C804 C 0.92376 0.62482 0.27329 0.0
H805 H 0.95087 0.74015 0.27346 0.0
C806 C 0.87281 0.80496 0.3334 0.0
O807 O 0.84948 0.84369 0.12049 0.0
O808 O 0.91472 0.80184 0.15331 0.0
N809 N 0.83881 0.63313 0.24408 0.0
C810 C 0.80249 0.62422 0.19547 0.0
C811 C 0.80309 0.58139 0.15832 0.0
C812 C 0.84216 0.54836 0.16862 0.0
C813 C 0.88285 0.56079 0.21072 0.0
C814 C 0.87972 0.60356 0.24937 0.0
H815 H 0.77575 0.65095 0.17988 0.0
O816 O 0.84804 0.73742 0.09549 0.0
O817 O 0.86988 0.71978 0.19847 0.0
O818 O 0.76664 0.76072 0.19552 0.0
O819 O 0.77848 0.7097 0.28272 0.0
C820 C 0.92999 0.53775 0.2026 0.0
C821 C 0.97384 0.55739 0.23175 0.0
H822 H 0.04973 0.61977 0.23825 0.0
H823 H 0.03421 0.70921 0.23973 0.0
H824 H 0.77677 0.57649 0.11669 0.0
H825 H 0.84502 0.51722 0.13583 0.0
H826 H 0.93367 0.50683 0.1689 0.0
H827 H 0.01043 0.54067 0.22075 0.0
Mn828 Mn 0.43829 0.61748 0.44387 0.0
Mn829 Mn 0.52116 0.61079 0.56257 0.0
C830 C 0.52837 0.62503 0.40471 0.0
C831 C 0.39558 0.66292 0.36873 0.0
C832 C 0.47327 0.5211 0.50368 0.0
O833 O 0.38957 0.64 0.53099 0.0
O834 O 0.45401 0.64281 0.60128 0.0
C835 C 0.52776 0.71075 0.54658 0.0
N836 N 0.55272 0.67054 0.56446 0.0
C837 C 0.63366 0.70463 0.53314 0.0
C838 C 0.60824 0.74523 0.50896 0.0
C839 C 0.5543 0.74671 0.51406 0.0
C840 C 0.60335 0.66617 0.55386 0.0
H841 H 0.48697 0.71289 0.55055 0.0
C842 C 0.40682 0.65423 0.59009 0.0
O843 O 0.38048 0.61898 0.37717 0.0
O844 O 0.4307 0.68023 0.40753 0.0
N845 N 0.58709 0.58597 0.53885 0.0
C846 C 0.60201 0.54077 0.52122 0.0
C847 C 0.6541 0.53048 0.515 0.0
C848 C 0.68985 0.56662 0.52733 0.0
C849 C 0.67401 0.61307 0.5413 0.0
C850 C 0.62186 0.62098 0.54732 0.0
H851 H 0.575 0.51248 0.51299 0.0
O852 O 0.4919 0.6083 0.36972 0.0
O853 O 0.50969 0.63261 0.46688 0.0
O854 O 0.44434 0.54416 0.46224 0.0
O855 O 0.49371 0.54312 0.5548 0.0
C856 C 0.70737 0.65269 0.5441 0.0
C857 C 0.687 0.69901 0.53403 0.0
H858 H 0.62978 0.77547 0.48965 0.0
H859 H 0.53137 0.77645 0.49995 0.0
H860 H 0.6668 0.49493 0.50089 0.0
H861 H 0.72968 0.55905 0.52425 0.0
H862 H 0.74837 0.64763 0.54591 0.0
H863 H 0.71213 0.72923 0.52514 0.0
Mn864 Mn 0.38903 0.22134 0.21233 0.0
Mn865 Mn 0.35254 0.1146 0.24055 0.0
C866 C 0.42546 0.16432 0.13209 0.0
C867 C 0.36873 0.29328 0.1641 0.0
C868 C 0.41801 0.16622 0.34 0.0
O869 O 0.32343 0.22907 0.27101 0.0
O870 O 0.28933 0.15964 0.24058 0.0
C871 C 0.27161 0.06166 0.18589 0.0
N872 N 0.32171 0.07299 0.17705 0.0
C873 C 0.33807 0.99498 0.1294 0.0
C874 C 0.28623 0.98513 0.13148 0.0
C875 C 0.25297 0.01752 0.16391 0.0
C876 C 0.35473 0.03842 0.15716 0.0
H877 H 0.24629 0.08579 0.21195 0.0
C878 C 0.28412 0.20517 0.2542 0.0
O879 O 0.3973 0.29122 0.21889 0.0
O880 O 0.35089 0.25358 0.13984 0.0
N881 N 0.41362 0.07582 0.22806 0.0
C882 C 0.46325 0.08412 0.24697 0.0
C883 C 0.50322 0.05547 0.2212 0.0
C884 C 0.49248 0.01969 0.17282 0.0
C885 C 0.44161 0.0108 0.15519 0.0
C886 C 0.40401 0.04224 0.17962 0.0
H887 H 0.47449 0.1151 0.27426 0.0
O888 O 0.44536 0.20607 0.14305 0.0
O889 O 0.38393 0.15719 0.17033 0.0
O890 O 0.43458 0.19676 0.29576 0.0
O891 O 0.37715 0.14449 0.3271 0.0
C892 C 0.42605 0.96977 0.11909 0.0
C893 C 0.37408 0.96056 0.10917 0.0
H894 H 0.27304 0.95152 0.11159 0.0
H895 H 0.2131 0.00938 0.17206 0.0
H896 H 0.54236 0.06273 0.23577 0.0
H897 H 0.52325 -0.00269 0.15374 0.0
H898 H 0.45297 0.94244 0.10625 0.0
H899 H 0.36201 0.92675 0.0872 0.0
Mn900 Mn 0.51066 0.62552 0.94433 0.0
Mn901 Mn 0.41282 0.62021 0.0579 0.0
C902 C 0.42622 0.62949 0.90292 0.0
C903 C 0.57438 0.67488 0.88538 0.0
C904 C 0.46206 0.53039 -0.00268 0.0
O905 O 0.54539 0.63864 0.03838 0.0
O906 O 0.47582 0.64772 0.1041 0.0
C907 C 0.40571 0.72452 0.04725 0.0
N908 N 0.38217 0.68204 0.06005 0.0
C909 C 0.2995 0.71823 0.04494 0.0
C910 C 0.32254 0.76267 0.03576 0.0
C911 C 0.3757 0.76464 0.03163 0.0
C912 C 0.33126 0.6781 0.05162 0.0
H913 H 0.44686 0.72648 0.04272 0.0
C914 C 0.52388 0.6537 0.09392 0.0
O915 O 0.57999 0.62889 0.89319 0.0
O916 O 0.53289 0.69199 0.91231 0.0
N917 N 0.34674 0.59728 0.03084 0.0
C918 C 0.33053 0.55064 0.03148 0.0
C919 C 0.27852 0.54013 0.04072 0.0
C920 C 0.24295 0.57756 0.04654 0.0
C921 C 0.2598 0.62498 0.0425 0.0
C922 C 0.31243 0.63301 0.04061 0.0
H923 H 0.35699 0.52114 0.02967 0.0
O924 O 0.46501 0.61791 0.86543 0.0
O925 O 0.43853 0.63911 0.96621 0.0
O926 O 0.49515 0.55266 0.95976 0.0
O927 O 0.43961 0.55225 0.04791 0.0
C928 C 0.22672 0.6648 0.04077 0.0
C929 C 0.24675 0.71151 0.03924 0.0
H930 H 0.30001 0.79441 0.02482 0.0
H931 H 0.39282 0.79593 0.01136 0.0
H932 H 0.26592 0.5032 0.04361 0.0
H933 H 0.20278 0.56952 0.05325 0.0
H934 H 0.18632 0.6601 0.03411 0.0
H935 H 0.22172 0.74195 0.0318 0.0
Mn936 Mn 0.0926 0.77457 0.69611 0.0
Mn937 Mn 0.12486 0.88261 0.72704 0.0
C938 C 0.05489 0.8321 0.6156 0.0
C939 C 0.1158 0.70121 0.65056 0.0
C940 C 0.06011 0.82706 0.82469 0.0
O941 O 0.15786 0.76911 0.75578 0.0
O942 O 0.19004 0.83997 0.72801 0.0
C943 C 0.20399 0.93983 0.67706 0.0
N944 N 0.15513 0.92591 0.66506 0.0
C945 C 0.13672 0.00277 0.615 0.0
C946 C 0.18807 0.01488 0.61897 0.0
C947 C 0.22108 0.98445 0.65484 0.0
C948 C 0.12113 0.95901 0.64362 0.0
H949 H 0.22908 0.91765 0.70689 0.0
C950 C 0.19676 0.79468 0.7418 0.0
O951 O 0.08721 0.70444 0.70546 0.0
O952 O 0.13252 0.74109 0.62456 0.0
N953 N 0.06291 0.92002 0.71486 0.0
C954 C 0.01367 0.91149 0.73609 0.0
C955 C 0.97322 0.9399 0.71186 0.0
C956 C 0.98315 0.97586 0.6631 0.0
C957 C 0.03367 0.98511 0.64325 0.0
C958 C 0.07182 0.95395 0.66636 0.0
H959 H 0.00332 0.88168 0.76683 0.0
O960 O 0.03675 0.78935 0.6251 0.0
O961 O 0.09565 0.83964 0.65493 0.0
O962 O 0.04473 0.79718 0.77913 0.0
O963 O 0.09999 0.85061 0.81225 0.0
C964 C 0.04833 0.02601 0.60568 0.0
C965 C 0.09992 0.03551 0.59276 0.0
H966 H 0.20087 0.0491 0.59954 0.0
H967 H 0.2597 0.99451 0.66542 0.0
H968 H 0.93435 0.9326 0.72819 0.0
H969 H 0.9519 -0.00223 0.64491 0.0
H970 H 0.0213 0.05361 0.59451 0.0
H971 H 0.11114 0.06918 0.56939 0.0
Mn972 Mn 0.96274 0.37402 0.43708 0.0
Mn973 Mn 0.05728 0.38624 0.55129 0.0
C974 C 0.04922 0.37219 0.39724 0.0
C975 C 0.90269 0.32036 0.3771 0.0
C976 C 0.00298 0.47131 0.48639 0.0
O977 O 0.92802 0.36314 0.53369 0.0
O978 O -0.00187 0.35115 0.59625 0.0
C979 C 0.0849 0.28256 0.55303 0.0
N980 N 0.09779 0.32966 0.55908 0.0
C981 C 0.18661 0.31053 0.5719 0.0
C982 C 0.17492 0.26168 0.56573 0.0
C983 C 0.12396 0.24775 0.55426 0.0
C984 C 0.14696 0.34322 0.56288 0.0
H985 H 0.04558 0.27215 0.54477 0.0
C986 C 0.95002 0.34573 0.58761 0.0
O987 O 0.89466 0.36587 0.38509 0.0
O988 O 0.94408 0.30548 0.40652 0.0
N989 N 0.11929 0.41761 0.52471 0.0
C990 C 0.12699 0.46539 0.51329 0.0
C991 C 0.17168 0.48772 0.53656 0.0
C992 C 0.21005 0.46004 0.56703 0.0
C993 C 0.20429 0.41019 0.56946 0.0
C994 C 0.15713 0.39078 0.55163 0.0
H995 H 0.09955 0.48663 0.48681 0.0
O996 O 0.01039 0.38112 0.35896 0.0
O997 O 0.03573 0.36349 0.46038 0.0
O998 O 0.97244 0.44854 0.44645 0.0
O999 O 0.02151 0.4499 0.53976 0.0
C1000 C 0.24394 0.37884 0.5868 0.0
C1001 C 0.23616 0.32866 0.58279 0.0
H1002 H 0.20473 0.23474 0.56828 0.0
H1003 H 0.11525 0.21043 0.54565 0.0
H1004 H 0.17692 0.52596 0.52976 0.0
H1005 H 0.2451 0.47698 0.58383 0.0
H1006 H 0.2809 0.39395 0.59735 0.0
H1007 H 0.26819 0.30447 0.58651 0.0
Mn1008 Mn 0.39192 0.76783 0.26942 0.0
Mn1009 Mn 0.34642 0.87248 0.24691 0.0
C1010 C 0.42652 0.82636 0.34975 0.0
C1011 C 0.37753 0.69453 0.31742 0.0
C1012 C 0.41889 0.82852 0.14494 0.0
O1013 O 0.32607 0.7555 0.21198 0.0
O1014 O 0.28791 0.82226 0.24462 0.0
C1015 C 0.25876 0.91128 0.31247 0.0
N1016 N 0.31064 0.90863 0.31404 0.0
C1017 C 0.31524 0.98948 0.35765 0.0
C1018 C 0.26223 0.99091 0.36061 0.0
C1019 C 0.23403 0.95354 0.33136 0.0
C1020 C 0.33786 0.94834 0.32981 0.0
H1021 H 0.23626 0.8826 0.29191 0.0
C1022 C 0.28511 0.77697 0.22954 0.0
O1023 O 0.40549 0.69862 0.26191 0.0
O1024 O 0.35652 0.73284 0.34199 0.0
N1025 N 0.40173 0.91702 0.26023 0.0
C1026 C 0.45241 0.91242 0.24402 0.0
C1027 C 0.48819 0.94445 0.27122 0.0
C1028 C 0.47208 0.98025 0.31673 0.0
C1029 C 0.42017 0.98567 0.33093 0.0
C1030 C 0.38704 0.95045 0.30649 0.0
H1031 H 0.46736 0.8826 0.21635 0.0
O1032 O 0.44815 0.78564 0.33712 0.0
O1033 O 0.38366 0.83145 0.31378 0.0
O1034 O 0.43553 0.79623 0.18629 0.0
O1035 O 0.37657 0.84832 0.15843 0.0
C1036 C 0.39956 0.02518 0.36648 0.0
C1037 C 0.3463 0.02885 0.3751 0.0
H1038 H 0.24316 0.02039 0.3848 0.0
H1039 H 0.19301 0.95583 0.32641 0.0
H1040 H 0.52846 0.94016 0.25943 0.0
H1041 H 0.49997 0.00486 0.33646 0.0
H1042 H 0.42408 0.05358 0.38412 0.0
H1043 H 0.32986 0.06121 0.39694 0.0
Mn1044 Mn 0.96289 0.61658 0.0421 0.0
Mn1045 Mn 0.05463 0.60301 0.92337 0.0
C1046 C 0.05049 0.61311 0.07782 0.0
C1047 C 0.90544 0.67021 0.10366 0.0
C1048 C -0.00053 0.51908 -0.01047 0.0
O1049 O 0.92547 0.63238 0.94994 0.0
O1050 O -0.00589 0.63728 0.88219 0.0
C1051 C 0.0805 0.70652 0.91829 0.0
N1052 N 0.09372 0.65957 0.91122 0.0
C1053 C 0.18115 0.67921 0.889 0.0
C1054 C 0.16918 0.72801 0.89593 0.0
C1055 C 0.11889 0.7416 0.91273 0.0
C1056 C 0.1426 0.64619 0.90205 0.0
H1057 H 0.0416 0.71657 0.93086 0.0
C1058 C 0.94696 0.64645 0.89385 0.0
O1059 O 0.89598 0.62502 0.09532 0.0
O1060 O 0.94777 0.68457 0.07559 0.0
N1061 N 0.11762 0.57256 0.94624 0.0
C1062 C 0.12665 0.52574 0.96276 0.0
C1063 C 0.17275 0.50387 0.94286 0.0
C1064 C 0.2102 0.53093 0.90857 0.0
C1065 C 0.20196 0.58009 0.89834 0.0
C1066 C 0.15417 0.599 0.91529 0.0
H1067 H 0.09915 0.5051 -0.00914 0.0
O1068 O 0.01192 0.60441 0.11746 0.0
O1069 O 0.03608 0.62497 0.01615 0.0
O1070 O 0.96838 0.54236 0.02838 0.0
O1071 O 0.02077 0.5397 0.9377 0.0
C1072 C 0.2402 0.61168 0.87615 0.0
C1073 C 0.23064 0.66168 0.87657 0.0
H1074 H 0.19861 0.75515 0.89125 0.0
H1075 H 0.11035 0.77878 0.92272 0.0
H1076 H 0.1796 0.46645 0.95465 0.0
H1077 H 0.24639 0.51446 0.89486 0.0
H1078 H 0.27772 0.59754 0.86497 0.0
H1079 H 0.26152 0.68664 0.87199 0.0
Mn1080 Mn 0.0921 0.21938 0.7724 0.0
Mn1081 Mn 0.12712 0.11232 0.7387 0.0
C1082 C 0.0584 0.16061 0.85222 0.0
C1083 C 0.11255 0.29163 0.81997 0.0
C1084 C 0.05947 0.16692 0.6449 0.0
O1085 O 0.15649 0.2271 0.71128 0.0
O1086 O 0.1907 0.15685 0.7381 0.0
C1087 C 0.20854 0.05969 0.79689 0.0
N1088 N 0.15793 0.06971 0.80138 0.0
C1089 C 0.14177 0.99147 0.84852 0.0
C1090 C 0.19382 0.98287 0.85097 0.0
C1091 C 0.22729 0.01599 0.8207 0.0
C1092 C 0.12514 0.03449 0.81931 0.0
H1093 H 0.23426 0.08462 0.77348 0.0
C1094 C 0.19598 0.20257 0.72581 0.0
O1095 O 0.08348 0.28907 0.76583 0.0
O1096 O 0.1316 0.25206 0.84353 0.0
N1097 N 0.06586 0.07345 0.75079 0.0
C1098 C 0.01597 0.08229 0.73334 0.0
C1099 C 0.97623 0.05324 0.75866 0.0
C1100 C 0.98745 0.01658 0.80565 0.0
C1101 C 0.03843 0.00692 0.82145 0.0
C1102 C 0.07594 0.03843 0.79691 0.0
H1103 H 0.0043 0.1138 0.70778 0.0
O1104 O 0.03785 0.20254 0.84447 0.0
O1105 O 0.09842 0.1545 0.81121 0.0
O1106 O 0.04414 0.19635 0.69123 0.0
O1107 O 0.10071 0.14474 0.65473 0.0
C1108 C 0.05397 0.9659 0.85779 0.0
C1109 C 0.10585 0.95696 0.86844 0.0
H1110 H 0.20714 0.94992 0.87355 0.0
H1111 H 0.26746 0.00877 0.81606 0.0
H1112 H 0.93689 0.06131 0.74595 0.0
H1113 H 0.95676 0.99491 0.82663 0.0
H1114 H 0.02718 0.93851 0.87115 0.0
H1115 H 0.11785 0.9236 0.89192 0.0
Mn1116 Mn 0.52082 0.36782 0.53956 0.0
Mn1117 Mn 0.42313 0.38203 0.431 0.0
C1118 C 0.43585 0.36681 0.58354 0.0
C1119 C 0.58075 0.31356 0.59456 0.0
C1120 C 0.48025 0.46658 0.49374 0.0
O1121 O 0.55405 0.3563 0.44295 0.0
O1122 O 0.48243 0.34894 0.38155 0.0
C1123 C 0.3966 0.27809 0.42935 0.0
N1124 N 0.38299 0.32504 0.42374 0.0
C1125 C 0.29375 0.30483 0.41879 0.0
C1126 C 0.30641 0.25617 0.42318 0.0
C1127 C 0.35786 0.24297 0.43165 0.0
C1128 C 0.33339 0.33797 0.42492 0.0
H1129 H 0.4363 0.26809 0.4354 0.0
C1130 C 0.5308 0.34225 0.38831 0.0
O1131 O 0.58941 0.35908 0.5882 0.0
O1132 O 0.53862 0.29917 0.56676 0.0
N1133 N 0.36181 0.41204 0.46322 0.0
C1134 C 0.35398 0.45941 0.47808 0.0
C1135 C 0.30737 0.48126 0.46181 0.0
C1136 C 0.26782 0.45346 0.43469 0.0
C1137 C 0.27439 0.40384 0.42923 0.0
C1138 C 0.32298 0.38505 0.43968 0.0
H1139 H 0.38301 0.48097 0.50084 0.0
O1140 O 0.47572 0.37451 0.62036 0.0
O1141 O 0.44735 0.35829 0.51964 0.0
O1142 O 0.51203 0.4427 0.53071 0.0
O1143 O 0.45747 0.44607 0.44286 0.0
C1144 C 0.23431 0.37223 0.41568 0.0
C1145 C 0.24331 0.32223 0.414 0.0
H1146 H 0.27692 0.2289 0.42313 0.0
H1147 H 0.36701 0.20599 0.44169 0.0
H1148 H 0.30187 0.51928 0.4706 0.0
H1149 H 0.2317 0.47009 0.42187 0.0
H1150 H 0.19636 0.38681 0.41365 0.0
H1151 H 0.21145 0.29769 0.41089 0.0
loop_
_geom_bond_atom_site_label_1
_geom_bond_atom_site_label_2
_geom_bond_distance
_geom_bond_site_symmetry_2
_ccdc_geom_bond_type
Mn0 O5 2.095 . S
Mn0 O15 2.162 . S
Mn0 O16 2.297 . S
Mn0 O24 2.385 . S
Mn0 O25 2.209 . S
Mn0 O26 2.094 . S
Mn1 O6 2.121 . S
Mn1 N8 2.257 . S
Mn1 N17 2.282 . S
Mn1 O25 2.215 . S
Mn1 O27 2.117 . S
C2 O24 1.234 . S
C2 O25 1.283 . S
C3 O15 1.281 . S
C3 O16 1.236 . S
C4 O26 1.240 . S
C4 O27 1.264 . S
O5 Mn0 2.095 . S
O5 C14 1.250 . S
O6 Mn1 2.121 . S
O6 C14 1.258 . S
C7 N8 1.326 . S
C7 C11 1.460 . S
C7 H13 0.929 . S
N8 Mn1 2.257 . S
N8 C7 1.326 . S
N8 C12 1.362 . S
C9 C10 1.258 . S
C9 C12 1.431 . S
C9 C29 1.449 . S
C10 C9 1.258 . S
C10 C11 1.477 . S
C10 H30 0.931 . S
C11 C7 1.460 . S
C11 C10 1.477 . S
C11 H31 0.930 1_455 S
C12 N8 1.362 . S
C12 C9 1.431 . S
C12 C22 1.476 . S
H13 C7 0.929 . S
C14 O5 1.250 . S
C14 O6 1.258 . S
O15 Mn0 2.162 . S
O15 C3 1.281 . S
O16 Mn0 2.297 . S
O16 C3 1.236 . S
N17 Mn1 2.282 . S
N17 C18 1.328 . S
N17 C22 1.318 . S
C18 N17 1.328 . S
C18 C19 1.457 . S
C18 H23 0.929 . S
C19 C18 1.457 . S
C19 C20 1.291 . S
C19 H32 0.931 . S
C20 C19 1.291 . S
C20 C21 1.373 . S
C20 H33 0.929 . S
C21 C20 1.373 . S
C21 C22 1.396 . S
C21 C28 1.403 . S
C22 C12 1.476 . S
C22 N17 1.318 . S
C22 C21 1.396 . S
H23 C18 0.929 . S
O24 Mn0 2.385 . S
O24 C2 1.234 . S
O25 Mn0 2.209 . S
O25 Mn1 2.215 . S
O25 C2 1.283 . S
O26 Mn0 2.094 . S
O26 C4 1.240 . S
O27 Mn1 2.117 . S
O27 C4 1.264 . S
C28 C21 1.403 . S
C28 C29 1.399 . S
C28 H34 0.929 1_545 S
C29 C9 1.449 . S
C29 C28 1.399 . S
C29 H35 0.930 . S
H30 C10 0.931 . S
H31 C11 0.930 1_655 S
H32 C19 0.931 . S
H33 C20 0.929 . S
H34 C28 0.929 1_565 S
H35 C29 0.930 . S
Mn36 O41 2.095 . S
Mn36 O51 2.162 . S
Mn36 O52 2.297 . S
Mn36 O60 2.385 1_655 S
Mn36 O61 2.209 1_655 S
Mn36 O62 2.094 . S
Mn37 O42 2.121 1_455 S
Mn37 N44 2.257 . S
Mn37 N53 2.282 . S
Mn37 O61 2.215 . S
Mn37 O63 2.117 . S
C38 O60 1.234 . S
C38 O61 1.283 . S
C39 O51 1.281 . S
C39 O52 1.236 . S
C40 O62 1.240 . S
C40 O63 1.264 1_655 S
O41 Mn36 2.095 . S
O41 C50 1.250 . S
O42 Mn37 2.121 1_655 S
O42 C50 1.258 . S
C43 N44 1.326 . S
C43 C47 1.460 . S
C43 H49 0.929 . S
N44 Mn37 2.257 . S
N44 C43 1.326 . S
N44 C48 1.362 . S
C45 C46 1.258 . S
C45 C48 1.431 . S
C45 C65 1.449 . S
C46 C45 1.258 . S
C46 C47 1.477 . S
C46 H66 0.931 . S
C47 C43 1.460 . S
C47 C46 1.477 . S
C47 H67 0.930 . S
C48 N44 1.362 . S
C48 C45 1.431 . S
C48 C58 1.476 . S
H49 C43 0.929 . S
C50 O41 1.250 . S
C50 O42 1.258 . S
O51 Mn36 2.162 . S
O51 C39 1.281 . S
O52 Mn36 2.297 . S
O52 C39 1.236 . S
N53 Mn37 2.282 . S
N53 C54 1.328 . S
N53 C58 1.318 . S
C54 N53 1.328 . S
C54 C55 1.457 . S
C54 H59 0.929 . S
C55 C54 1.457 . S
C55 C56 1.291 . S
C55 H68 0.931 . S
C56 C55 1.291 . S
C56 C57 1.373 . S
C56 H69 0.929 . S
C57 C56 1.373 . S
C57 C58 1.396 . S
C57 C64 1.403 . S
C58 C48 1.476 . S
C58 N53 1.318 . S
C58 C57 1.396 . S
H59 C54 0.929 . S
O60 Mn36 2.385 1_455 S
O60 C38 1.234 . S
O61 Mn36 2.209 1_455 S
O61 Mn37 2.215 . S
O61 C38 1.283 . S
O62 Mn36 2.094 . S
O62 C40 1.240 . S
O63 Mn37 2.117 . S
O63 C40 1.264 1_455 S
C64 C57 1.403 . S
C64 C65 1.399 . S
C64 H70 0.929 . S
C65 C45 1.449 . S
C65 C64 1.399 . S
C65 H71 0.930 . S
H66 C46 0.931 . S
H67 C47 0.930 . S
H68 C55 0.931 . S
H69 C56 0.929 . S
H70 C64 0.929 . S
H71 C65 0.930 . S
Mn72 O77 2.095 . S
Mn72 O87 2.162 . S
Mn72 O88 2.297 . S
Mn72 O96 2.385 . S
Mn72 O97 2.209 . S
Mn72 O98 2.094 . S
Mn73 O78 2.121 . S
Mn73 N80 2.257 . S
Mn73 N89 2.282 . S
Mn73 O97 2.215 . S
Mn73 O99 2.117 . S
C74 O96 1.234 . S
C74 O97 1.283 . S
C75 O87 1.281 . S
C75 O88 1.236 . S
C76 O98 1.240 . S
C76 O99 1.264 . S
O77 Mn72 2.095 . S
O77 C86 1.250 . S
O78 Mn73 2.121 . S
O78 C86 1.258 . S
C79 N80 1.326 . S
C79 C83 1.460 . S
C79 H85 0.929 . S
N80 Mn73 2.257 . S
N80 C79 1.326 . S
N80 C84 1.362 . S
C81 C82 1.258 . S
C81 C84 1.431 . S
C81 C101 1.449 . S
C82 C81 1.258 . S
C82 C83 1.477 . S
C82 H102 0.931 . S
C83 C79 1.460 . S
C83 C82 1.477 . S
C83 H103 0.930 . S
C84 N80 1.362 . S
C84 C81 1.431 . S
C84 C94 1.476 . S
H85 C79 0.929 . S
C86 O77 1.250 . S
C86 O78 1.258 . S
O87 Mn72 2.162 . S
O87 C75 1.281 . S
O88 Mn72 2.297 . S
O88 C75 1.236 . S
N89 Mn73 2.282 . S
N89 C90 1.328 . S
N89 C94 1.318 . S
C90 N89 1.328 . S
C90 C91 1.457 . S
C90 H95 0.929 . S
C91 C90 1.457 . S
C91 C92 1.291 . S
C91 H104 0.931 . S
C92 C91 1.291 . S
C92 C93 1.373 . S
C92 H105 0.929 . S
C93 C92 1.373 . S
C93 C94 1.396 . S
C93 C100 1.403 . S
C94 C84 1.476 . S
C94 N89 1.318 . S
C94 C93 1.396 . S
H95 C90 0.929 . S
O96 Mn72 2.385 . S
O96 C74 1.234 . S
O97 Mn72 2.209 . S
O97 Mn73 2.215 . S
O97 C74 1.283 . S
O98 Mn72 2.094 . S
O98 C76 1.240 . S
O99 Mn73 2.117 . S
O99 C76 1.264 . S
C100 C93 1.403 . S
C100 C101 1.399 . S
C100 H106 0.929 1_565 S
C101 C81 1.449 . S
C101 C100 1.399 . S
C101 H107 0.930 . S
H102 C82 0.931 . S
H103 C83 0.930 . S
H104 C91 0.931 . S
H105 C92 0.929 . S
H106 C100 0.929 1_545 S
H107 C101 0.930 . S
Mn108 O113 2.095 1_554 S
Mn108 O123 2.162 . S
Mn108 O124 2.297 . S
Mn108 O132 2.385 . S
Mn108 O133 2.209 . S
Mn108 O134 2.094 . S
Mn109 O114 2.121 . S
Mn109 N116 2.257 . S
Mn109 N125 2.282 . S
Mn109 O133 2.215 1_556 S
Mn109 O135 2.117 . S
C110 O132 1.234 . S
C110 O133 1.283 . S
C111 O123 1.281 . S
C111 O124 1.236 . S
C112 O134 1.240 . S
C112 O135 1.264 1_554 S
O113 Mn108 2.095 1_556 S
O113 C122 1.250 . S
O114 Mn109 2.121 . S
O114 C122 1.258 . S
C115 N116 1.326 . S
C115 C119 1.460 . S
C115 H121 0.929 . S
N116 Mn109 2.257 . S
N116 C115 1.326 . S
N116 C120 1.362 . S
C117 C118 1.258 . S
C117 C120 1.431 . S
C117 C137 1.449 . S
C118 C117 1.258 . S
C118 C119 1.477 . S
C118 H138 0.931 . S
C119 C115 1.460 . S
C119 C118 1.477 . S
C119 H139 0.930 . S
C120 N116 1.362 . S
C120 C117 1.431 . S
C120 C130 1.476 . S
H121 C115 0.929 . S
C122 O113 1.250 . S
C122 O114 1.258 . S
O123 Mn108 2.162 . S
O123 C111 1.281 . S
O124 Mn108 2.297 . S
O124 C111 1.236 . S
N125 Mn109 2.282 . S
N125 C126 1.328 1_556 S
N125 C130 1.318 . S
C126 N125 1.328 1_554 S
C126 C127 1.457 . S
C126 H131 0.929 . S
C127 C126 1.457 . S
C127 C128 1.291 . S
C127 H140 0.931 . S
C128 C127 1.291 . S
C128 C129 1.384 . S
C128 H141 0.929 . S
C129 C128 1.384 . S
C129 C130 1.389 1_554 S
C129 C136 1.398 1_554 S
C130 C120 1.476 . S
C130 N125 1.318 . S
C130 C129 1.389 1_556 S
H131 C126 0.929 . S
O132 Mn108 2.385 . S
O132 C110 1.234 . S
O133 Mn108 2.209 . S
O133 Mn109 2.215 1_554 S
O133 C110 1.283 . S
O134 Mn108 2.094 . S
O134 C112 1.240 . S
O135 Mn109 2.117 . S
O135 C112 1.264 1_556 S
C136 C129 1.398 1_556 S
C136 C137 1.399 . S
C136 H142 0.929 1_556 S
C137 C117 1.449 . S
C137 C136 1.399 . S
C137 H143 0.930 . S
H138 C118 0.931 . S
H139 C119 0.930 . S
H140 C127 0.931 . S
H141 C128 0.929 . S
H142 C136 0.929 1_554 S
H143 C137 0.930 . S
Mn144 O149 2.095 . S
Mn144 O159 2.162 . S
Mn144 O160 2.297 . S
Mn144 O168 2.385 . S
Mn144 O169 2.209 . S
Mn144 O170 2.094 . S
Mn145 O150 2.121 . S
Mn145 N152 2.257 . S
Mn145 N161 2.282 . S
Mn145 O169 2.215 . S
Mn145 O171 2.117 . S
C146 O168 1.234 . S
C146 O169 1.283 . S
C147 O159 1.281 . S
C147 O160 1.236 . S
C148 O170 1.240 . S
C148 O171 1.264 . S
O149 Mn144 2.095 . S
O149 C158 1.250 . S
O150 Mn145 2.121 . S
O150 C158 1.258 . S
C151 N152 1.326 . S
C151 C155 1.460 . S
C151 H157 0.929 . S
N152 Mn145 2.257 . S
N152 C151 1.326 . S
N152 C156 1.362 . S
C153 C154 1.258 . S
C153 C156 1.431 . S
C153 C173 1.449 . S
C154 C153 1.258 . S
C154 C155 1.477 . S
C154 H174 0.931 . S
C155 C151 1.460 . S
C155 C154 1.477 . S
C155 H175 0.930 1_455 S
C156 N152 1.362 . S
C156 C153 1.431 . S
C156 C166 1.476 . S
H157 C151 0.929 . S
C158 O149 1.250 . S
C158 O150 1.258 . S
O159 Mn144 2.162 . S
O159 C147 1.281 . S
O160 Mn144 2.297 . S
O160 C147 1.236 . S
N161 Mn145 2.282 . S
N161 C162 1.328 . S
N161 C166 1.318 . S
C162 N161 1.328 . S
C162 C163 1.457 . S
C162 H167 0.929 . S
C163 C162 1.457 . S
C163 C164 1.291 . S
C163 H176 0.931 . S
C164 C163 1.291 . S
C164 C165 1.373 . S
C164 H177 0.929 . S
C165 C164 1.373 . S
C165 C166 1.396 . S
C165 C172 1.403 . S
C166 C156 1.476 . S
C166 N161 1.318 . S
C166 C165 1.396 . S
H167 C162 0.929 . S
O168 Mn144 2.385 . S
O168 C146 1.234 . S
O169 Mn144 2.209 . S
O169 Mn145 2.215 . S
O169 C146 1.283 . S
O170 Mn144 2.094 . S
O170 C148 1.240 . S
O171 Mn145 2.117 . S
O171 C148 1.264 . S
C172 C165 1.403 . S
C172 C173 1.399 . S
C172 H178 0.929 1_565 S
C173 C153 1.449 . S
C173 C172 1.399 . S
C173 H179 0.930 . S
H174 C154 0.931 . S
H175 C155 0.930 1_655 S
H176 C163 0.931 . S
H177 C164 0.929 . S
H178 C172 0.929 1_545 S
H179 C173 0.930 . S
Mn180 O185 2.095 . S
Mn180 O195 2.162 . S
Mn180 O196 2.297 . S
Mn180 O204 2.385 . S
Mn180 O205 2.209 . S
Mn180 O206 2.094 . S
Mn181 O186 2.121 . S
Mn181 N188 2.257 . S
Mn181 N197 2.282 . S
Mn181 O205 2.215 . S
Mn181 O207 2.117 . S
C182 O204 1.234 . S
C182 O205 1.283 . S
C183 O195 1.281 . S
C183 O196 1.236 . S
C184 O206 1.240 . S
C184 O207 1.264 . S
O185 Mn180 2.095 . S
O185 C194 1.250 . S
O186 Mn181 2.121 . S
O186 C194 1.258 . S
C187 N188 1.326 . S
C187 C191 1.460 . S
C187 H193 0.929 . S
N188 Mn181 2.257 . S
N188 C187 1.326 . S
N188 C192 1.362 . S
C189 C190 1.258 . S
C189 C192 1.431 . S
C189 C209 1.449 . S
C190 C189 1.258 . S
C190 C191 1.477 . S
C190 H210 0.931 . S
C191 C187 1.460 . S
C191 C190 1.477 . S
C191 H211 0.930 . S
C192 N188 1.362 . S
C192 C189 1.431 . S
C192 C202 1.476 . S
H193 C187 0.929 . S
C194 O185 1.250 . S
C194 O186 1.258 . S
O195 Mn180 2.162 . S
O195 C183 1.281 . S
O196 Mn180 2.297 . S
O196 C183 1.236 . S
N197 Mn181 2.282 . S
N197 C198 1.328 . S
N197 C202 1.318 . S
C198 N197 1.328 . S
C198 C199 1.457 . S
C198 H203 0.929 . S
C199 C198 1.457 . S
C199 C200 1.291 . S
C199 H212 0.931 . S
C200 C199 1.291 . S
C200 C201 1.373 . S
C200 H213 0.929 . S
C201 C200 1.373 . S
C201 C202 1.396 . S
C201 C208 1.403 . S
C202 C192 1.476 . S
C202 N197 1.318 . S
C202 C201 1.396 . S
H203 C198 0.929 . S
O204 Mn180 2.385 . S
O204 C182 1.234 . S
O205 Mn180 2.209 . S
O205 Mn181 2.215 . S
O205 C182 1.283 . S
O206 Mn180 2.094 . S
O206 C184 1.240 . S
O207 Mn181 2.117 . S
O207 C184 1.264 . S
C208 C201 1.403 . S
C208 C209 1.399 . S
C208 H214 0.929 . S
C209 C189 1.449 . S
C209 C208 1.399 . S
C209 H215 0.930 . S
H210 C190 0.931 . S
H211 C191 0.930 . S
H212 C199 0.931 . S
H213 C200 0.929 . S
H214 C208 0.929 . S
H215 C209 0.930 . S
Mn216 O221 2.095 . S
Mn216 O231 2.162 . S
Mn216 O232 2.297 . S
Mn216 O240 2.385 . S
Mn216 O241 2.209 . S
Mn216 O242 2.094 . S
Mn217 O222 2.121 . S
Mn217 N224 2.257 . S
Mn217 N233 2.282 . S
Mn217 O241 2.215 . S
Mn217 O243 2.117 . S
C218 O240 1.234 . S
C218 O241 1.283 . S
C219 O231 1.281 . S
C219 O232 1.236 . S
C220 O242 1.240 . S
C220 O243 1.264 . S
O221 Mn216 2.095 . S
O221 C230 1.250 . S
O222 Mn217 2.121 . S
O222 C230 1.258 . S
C223 N224 1.326 . S
C223 C227 1.460 . S
C223 H229 0.929 . S
N224 Mn217 2.257 . S
N224 C223 1.326 . S
N224 C228 1.362 . S
C225 C226 1.258 . S
C225 C228 1.431 . S
C225 C245 1.449 . S
C226 C225 1.258 . S
C226 C227 1.477 . S
C226 H246 0.931 . S
C227 C223 1.460 . S
C227 C226 1.477 . S
C227 H247 0.930 . S
C228 N224 1.362 . S
C228 C225 1.431 . S
C228 C238 1.476 . S
H229 C223 0.929 . S
C230 O221 1.250 . S
C230 O222 1.258 . S
O231 Mn216 2.162 . S
O231 C219 1.281 . S
O232 Mn216 2.297 . S
O232 C219 1.236 . S
N233 Mn217 2.282 . S
N233 C234 1.328 . S
N233 C238 1.318 . S
C234 N233 1.328 . S
C234 C235 1.457 . S
C234 H239 0.929 . S
C235 C234 1.457 . S
C235 C236 1.291 . S
C235 H248 0.931 . S
C236 C235 1.291 . S
C236 C237 1.373 . S
C236 H249 0.929 . S
C237 C236 1.373 . S
C237 C238 1.396 . S
C237 C244 1.403 . S
C238 C228 1.476 . S
C238 N233 1.318 . S
C238 C237 1.396 . S
H239 C234 0.929 . S
O240 Mn216 2.385 . S
O240 C218 1.234 . S
O241 Mn216 2.209 . S
O241 Mn217 2.215 . S
O241 C218 1.283 . S
O242 Mn216 2.094 . S
O242 C220 1.240 . S
O243 Mn217 2.117 . S
O243 C220 1.264 . S
C244 C237 1.403 . S
C244 C245 1.399 . S
C244 H250 0.929 1_545 S
C245 C225 1.449 . S
C245 C244 1.399 . S
C245 H251 0.930 . S
H246 C226 0.931 . S
H247 C227 0.930 . S
H248 C235 0.931 . S
H249 C236 0.929 . S
H250 C244 0.929 1_565 S
H251 C245 0.930 . S
Mn252 O257 2.095 1_556 S
Mn252 O267 2.162 . S
Mn252 O268 2.297 . S
Mn252 O276 2.385 1_655 S
Mn252 O277 2.209 1_655 S
Mn252 O278 2.094 . S
Mn253 O258 2.121 1_455 S
Mn253 N260 2.257 . S
Mn253 N269 2.282 . S
Mn253 O277 2.215 1_554 S
Mn253 O279 2.117 . S
C254 O276 1.234 . S
C254 O277 1.283 . S
C255 O267 1.281 . S
C255 O268 1.236 . S
C256 O278 1.240 . S
C256 O279 1.264 1_656 S
O257 Mn252 2.095 1_554 S
O257 C266 1.250 . S
O258 Mn253 2.121 1_655 S
O258 C266 1.258 . S
C259 N260 1.326 . S
C259 C263 1.460 . S
C259 H265 0.929 . S
N260 Mn253 2.257 . S
N260 C259 1.326 . S
N260 C264 1.362 . S
C261 C262 1.258 . S
C261 C264 1.431 . S
C261 C281 1.449 . S
C262 C261 1.258 . S
C262 C263 1.477 . S
C262 H282 0.931 . S
C263 C259 1.460 . S
C263 C262 1.477 . S
C263 H283 0.930 . S
C264 N260 1.362 . S
C264 C261 1.431 . S
C264 C274 1.476 . S
H265 C259 0.929 . S
C266 O257 1.250 . S
C266 O258 1.258 . S
O267 Mn252 2.162 . S
O267 C255 1.281 . S
O268 Mn252 2.297 . S
O268 C255 1.236 . S
N269 Mn253 2.282 . S
N269 C270 1.328 1_554 S
N269 C274 1.318 . S
C270 N269 1.328 1_556 S
C270 C271 1.457 . S
C270 H275 0.929 . S
C271 C270 1.457 . S
C271 C272 1.291 . S
C271 H284 0.931 . S
C272 C271 1.291 . S
C272 C273 1.384 . S
C272 H285 0.929 . S
C273 C272 1.384 . S
C273 C274 1.389 1_556 S
C273 C280 1.398 1_556 S
C274 C264 1.476 . S
C274 N269 1.318 . S
C274 C273 1.389 1_554 S
H275 C270 0.929 . S
O276 Mn252 2.385 1_455 S
O276 C254 1.234 . S
O277 Mn252 2.209 1_455 S
O277 Mn253 2.215 1_556 S
O277 C254 1.283 . S
O278 Mn252 2.094 . S
O278 C256 1.240 . S
O279 Mn253 2.117 . S
O279 C256 1.264 1_454 S
C280 C273 1.398 1_554 S
C280 C281 1.399 . S
C280 H286 0.929 1_554 S
C281 C261 1.449 . S
C281 C280 1.399 . S
C281 H287 0.930 . S
H282 C262 0.931 . S
H283 C263 0.930 . S
H284 C271 0.931 . S
H285 C272 0.929 . S
H286 C280 0.929 1_556 S
H287 C281 0.930 . S
Mn288 O293 2.095 . S
Mn288 O303 2.162 . S
Mn288 O304 2.297 . S
Mn288 O312 2.385 . S
Mn288 O313 2.209 . S
Mn288 O314 2.094 . S
Mn289 O294 2.121 . S
Mn289 N296 2.257 . S
Mn289 N305 2.282 . S
Mn289 O313 2.215 . S
Mn289 O315 2.117 . S
C290 O312 1.234 . S
C290 O313 1.283 . S
C291 O303 1.281 . S
C291 O304 1.236 . S
C292 O314 1.240 . S
C292 O315 1.264 . S
O293 Mn288 2.095 . S
O293 C302 1.250 . S
O294 Mn289 2.121 . S
O294 C302 1.258 . S
C295 N296 1.326 . S
C295 C299 1.460 . S
C295 H301 0.929 . S
N296 Mn289 2.257 . S
N296 C295 1.326 . S
N296 C300 1.362 . S
C297 C298 1.258 . S
C297 C300 1.431 . S
C297 C317 1.449 . S
C298 C297 1.258 . S
C298 C299 1.477 . S
C298 H318 0.931 . S
C299 C295 1.460 . S
C299 C298 1.477 . S
C299 H319 0.930 . S
C300 N296 1.362 . S
C300 C297 1.431 . S
C300 C310 1.476 . S
H301 C295 0.929 . S
C302 O293 1.250 . S
C302 O294 1.258 . S
O303 Mn288 2.162 . S
O303 C291 1.281 . S
O304 Mn288 2.297 . S
O304 C291 1.236 . S
N305 Mn289 2.282 . S
N305 C306 1.328 . S
N305 C310 1.318 . S
C306 N305 1.328 . S
C306 C307 1.457 . S
C306 H311 0.929 . S
C307 C306 1.457 . S
C307 C308 1.291 . S
C307 H320 0.931 . S
C308 C307 1.291 . S
C308 C309 1.373 . S
C308 H321 0.929 . S
C309 C308 1.373 . S
C309 C310 1.396 . S
C309 C316 1.403 . S
C310 C300 1.476 . S
C310 N305 1.318 . S
C310 C309 1.396 . S
H311 C306 0.929 . S
O312 Mn288 2.385 . S
O312 C290 1.234 . S
O313 Mn288 2.209 . S
O313 Mn289 2.215 . S
O313 C290 1.283 . S
O314 Mn288 2.094 . S
O314 C292 1.240 . S
O315 Mn289 2.117 . S
O315 C292 1.264 . S
C316 C309 1.403 . S
C316 C317 1.399 . S
C316 H322 0.929 . S
C317 C297 1.449 . S
C317 C316 1.399 . S
C317 H323 0.930 . S
H318 C298 0.931 . S
H319 C299 0.930 . S
H320 C307 0.931 . S
H321 C308 0.929 . S
H322 C316 0.929 . S
H323 C317 0.930 . S
Mn324 O329 2.095 . S
Mn324 O339 2.162 . S
Mn324 O340 2.297 . S
Mn324 O348 2.379 1_455 S
Mn324 O349 2.209 1_455 S
Mn324 O350 2.094 . S
Mn325 O330 2.121 1_655 S
Mn325 N332 2.257 . S
Mn325 N341 2.282 . S
Mn325 O349 2.215 . S
Mn325 O351 2.112 1_655 S
C326 O348 1.239 . S
C326 O349 1.283 . S
C327 O339 1.281 . S
C327 O340 1.236 . S
C328 O350 1.240 . S
C328 O351 1.273 . S
O329 Mn324 2.095 . S
O329 C338 1.250 . S
O330 Mn325 2.121 1_455 S
O330 C338 1.258 . S
C331 N332 1.326 . S
C331 C335 1.460 . S
C331 H337 0.929 . S
N332 Mn325 2.257 . S
N332 C331 1.326 . S
N332 C336 1.362 . S
C333 C334 1.258 . S
C333 C336 1.431 . S
C333 C353 1.449 . S
C334 C333 1.258 . S
C334 C335 1.477 . S
C334 H354 0.931 . S
C335 C331 1.460 . S
C335 C334 1.477 . S
C335 H355 0.930 . S
C336 N332 1.362 . S
C336 C333 1.431 . S
C336 C346 1.476 . S
H337 C331 0.929 . S
C338 O329 1.250 . S
C338 O330 1.258 . S
O339 Mn324 2.162 . S
O339 C327 1.281 . S
O340 Mn324 2.297 . S
O340 C327 1.236 . S
N341 Mn325 2.282 . S
N341 C342 1.328 . S
N341 C346 1.318 . S
C342 N341 1.328 . S
C342 C343 1.457 . S
C342 H347 0.929 . S
C343 C342 1.457 . S
C343 C344 1.291 . S
C343 H356 0.931 . S
C344 C343 1.291 . S
C344 C345 1.373 . S
C344 H357 0.929 . S
C345 C344 1.373 . S
C345 C346 1.396 . S
C345 C352 1.403 . S
C346 C336 1.476 . S
C346 N341 1.318 . S
C346 C345 1.396 . S
H347 C342 0.929 . S
O348 Mn324 2.379 1_655 S
O348 C326 1.239 . S
O349 Mn324 2.209 1_655 S
O349 Mn325 2.215 . S
O349 C326 1.283 . S
O350 Mn324 2.094 . S
O350 C328 1.240 . S
O351 Mn325 2.112 1_455 S
O351 C328 1.273 . S
C352 C345 1.403 . S
C352 C353 1.399 . S
C352 H358 0.929 . S
C353 C333 1.449 . S
C353 C352 1.399 . S
C353 H359 0.930 . S
H354 C334 0.931 . S
H355 C335 0.930 . S
H356 C343 0.931 . S
H357 C344 0.929 . S
H358 C352 0.929 . S
H359 C353 0.930 . S
Mn360 O365 2.095 . S
Mn360 O375 2.162 . S
Mn360 O376 2.297 . S
Mn360 O384 2.385 . S
Mn360 O385 2.209 . S
Mn360 O386 2.094 . S
Mn361 O366 2.121 . S
Mn361 N368 2.257 . S
Mn361 N377 2.282 . S
Mn361 O385 2.215 . S
Mn361 O387 2.117 . S
C362 O384 1.234 . S
C362 O385 1.283 . S
C363 O375 1.281 . S
C363 O376 1.236 . S
C364 O386 1.240 . S
C364 O387 1.264 . S
O365 Mn360 2.095 . S
O365 C374 1.250 . S
O366 Mn361 2.121 . S
O366 C374 1.258 . S
C367 N368 1.326 . S
C367 C371 1.460 . S
C367 H373 0.929 . S
N368 Mn361 2.257 . S
N368 C367 1.326 . S
N368 C372 1.362 . S
C369 C370 1.258 . S
C369 C372 1.431 . S
C369 C389 1.449 . S
C370 C369 1.258 . S
C370 C371 1.477 . S
C370 H390 0.931 . S
C371 C367 1.460 . S
C371 C370 1.477 . S
C371 H391 0.930 . S
C372 N368 1.362 . S
C372 C369 1.431 . S
C372 C382 1.476 . S
H373 C367 0.929 . S
C374 O365 1.250 . S
C374 O366 1.258 . S
O375 Mn360 2.162 . S
O375 C363 1.281 . S
O376 Mn360 2.297 . S
O376 C363 1.236 . S
N377 Mn361 2.282 . S
N377 C378 1.328 . S
N377 C382 1.318 . S
C378 N377 1.328 . S
C378 C379 1.457 . S
C378 H383 0.929 . S
C379 C378 1.457 . S
C379 C380 1.291 . S
C379 H392 0.931 . S
C380 C379 1.291 . S
C380 C381 1.373 . S
C380 H393 0.929 . S
C381 C380 1.373 . S
C381 C382 1.396 . S
C381 C388 1.403 . S
C382 C372 1.476 . S
C382 N377 1.318 . S
C382 C381 1.396 . S
H383 C378 0.929 . S
O384 Mn360 2.385 . S
O384 C362 1.234 . S
O385 Mn360 2.209 . S
O385 Mn361 2.215 . S
O385 C362 1.283 . S
O386 Mn360 2.094 . S
O386 C364 1.240 . S
O387 Mn361 2.117 . S
O387 C364 1.264 . S
C388 C381 1.403 . S
C388 C389 1.399 . S
C388 H394 0.929 . S
C389 C369 1.449 . S
C389 C388 1.399 . S
C389 H395 0.930 . S
H390 C370 0.931 . S
H391 C371 0.930 . S
H392 C379 0.931 . S
H393 C380 0.929 . S
H394 C388 0.929 . S
H395 C389 0.930 . S
Mn396 O401 2.095 1_556 S
Mn396 O411 2.162 . S
Mn396 O412 2.297 . S
Mn396 O420 2.385 . S
Mn396 O421 2.209 . S
Mn396 O422 2.094 . S
Mn397 O402 2.121 . S
Mn397 N404 2.257 . S
Mn397 N413 2.278 1_554 S
Mn397 O421 2.215 1_554 S
Mn397 O423 2.117 . S
C398 O420 1.234 . S
C398 O421 1.283 . S
C399 O411 1.281 . S
C399 O412 1.236 . S
C400 O422 1.240 . S
C400 O423 1.264 1_556 S
O401 Mn396 2.095 1_554 S
O401 C410 1.250 . S
O402 Mn397 2.121 . S
O402 C410 1.258 . S
C403 N404 1.326 . S
C403 C407 1.460 . S
C403 H409 0.929 . S
N404 Mn397 2.257 . S
N404 C403 1.326 . S
N404 C408 1.362 . S
C405 C406 1.258 . S
C405 C408 1.431 . S
C405 C425 1.449 . S
C406 C405 1.258 . S
C406 C407 1.477 . S
C406 H426 0.931 . S
C407 C403 1.460 . S
C407 C406 1.477 . S
C407 H427 0.930 . S
C408 N404 1.362 . S
C408 C405 1.431 . S
C408 C418 1.476 . S
H409 C403 0.929 . S
C410 O401 1.250 . S
C410 O402 1.258 . S
O411 Mn396 2.162 . S
O411 C399 1.281 . S
O412 Mn396 2.297 . S
O412 C399 1.236 . S
N413 Mn397 2.278 1_556 S
N413 C414 1.334 . S
N413 C418 1.316 1_556 S
C414 N413 1.334 . S
C414 C415 1.457 . S
C414 H419 0.929 . S
C415 C414 1.457 . S
C415 C416 1.291 . S
C415 H428 0.931 . S
C416 C415 1.291 . S
C416 C417 1.373 . S
C416 H429 0.929 . S
C417 C416 1.373 . S
C417 C418 1.396 1_556 S
C417 C424 1.403 1_556 S
C418 C408 1.476 . S
C418 N413 1.316 1_554 S
C418 C417 1.396 1_554 S
H419 C414 0.929 . S
O420 Mn396 2.385 . S
O420 C398 1.234 . S
O421 Mn396 2.209 . S
O421 Mn397 2.215 1_556 S
O421 C398 1.283 . S
O422 Mn396 2.094 . S
O422 C400 1.240 . S
O423 Mn397 2.117 . S
O423 C400 1.264 1_554 S
C424 C417 1.403 1_554 S
C424 C425 1.399 . S
C424 H430 0.929 1_554 S
C425 C405 1.449 . S
C425 C424 1.399 . S
C425 H431 0.930 . S
H426 C406 0.931 . S
H427 C407 0.930 . S
H428 C415 0.931 . S
H429 C416 0.929 . S
H430 C424 0.929 1_556 S
H431 C425 0.930 . S
Mn432 O437 2.095 . S
Mn432 O447 2.162 . S
Mn432 O448 2.297 . S
Mn432 O456 2.385 . S
Mn432 O457 2.209 . S
Mn432 O458 2.094 . S
Mn433 O438 2.121 . S
Mn433 N440 2.257 . S
Mn433 N449 2.282 . S
Mn433 O457 2.215 . S
Mn433 O459 2.117 . S
C434 O456 1.234 . S
C434 O457 1.283 . S
C435 O447 1.281 . S
C435 O448 1.236 . S
C436 O458 1.240 . S
C436 O459 1.264 . S
O437 Mn432 2.095 . S
O437 C446 1.250 . S
O438 Mn433 2.121 . S
O438 C446 1.258 . S
C439 N440 1.326 . S
C439 C443 1.460 . S
C439 H445 0.929 . S
N440 Mn433 2.257 . S
N440 C439 1.326 . S
N440 C444 1.362 . S
C441 C442 1.258 . S
C441 C444 1.431 . S
C441 C461 1.449 . S
C442 C441 1.258 . S
C442 C443 1.477 . S
C442 H462 0.931 . S
C443 C439 1.460 . S
C443 C442 1.477 . S
C443 H463 0.930 . S
C444 N440 1.362 . S
C444 C441 1.431 . S
C444 C454 1.476 . S
H445 C439 0.929 . S
C446 O437 1.250 . S
C446 O438 1.258 . S
O447 Mn432 2.162 . S
O447 C435 1.281 . S
O448 Mn432 2.297 . S
O448 C435 1.236 . S
N449 Mn433 2.282 . S
N449 C450 1.328 . S
N449 C454 1.318 . S
C450 N449 1.328 . S
C450 C451 1.457 . S
C450 H455 0.929 . S
C451 C450 1.457 . S
C451 C452 1.291 . S
C451 H464 0.931 . S
C452 C451 1.291 . S
C452 C453 1.373 . S
C452 H465 0.929 . S
C453 C452 1.373 . S
C453 C454 1.396 . S
C453 C460 1.403 . S
C454 C444 1.476 . S
C454 N449 1.318 . S
C454 C453 1.396 . S
H455 C450 0.929 . S
O456 Mn432 2.385 . S
O456 C434 1.234 . S
O457 Mn432 2.209 . S
O457 Mn433 2.215 . S
O457 C434 1.283 . S
O458 Mn432 2.094 . S
O458 C436 1.240 . S
O459 Mn433 2.117 . S
O459 C436 1.264 . S
C460 C453 1.403 . S
C460 C461 1.399 . S
C460 H466 0.929 . S
C461 C441 1.449 . S
C461 C460 1.399 . S
C461 H467 0.930 . S
H462 C442 0.931 . S
H463 C443 0.930 . S
H464 C451 0.931 . S
H465 C452 0.929 . S
H466 C460 0.929 . S
H467 C461 0.930 . S
Mn468 O473 2.095 . S
Mn468 O483 2.162 . S
Mn468 O484 2.297 . S
Mn468 O492 2.385 . S
Mn468 O493 2.209 . S
Mn468 O494 2.094 . S
Mn469 O474 2.121 . S
Mn469 N476 2.257 . S
Mn469 N485 2.282 . S
Mn469 O493 2.215 . S
Mn469 O495 2.117 . S
C470 O492 1.234 . S
C470 O493 1.283 . S
C471 O483 1.281 . S
C471 O484 1.236 . S
C472 O494 1.240 . S
C472 O495 1.264 . S
O473 Mn468 2.095 . S
O473 C482 1.250 . S
O474 Mn469 2.121 . S
O474 C482 1.258 . S
C475 N476 1.326 . S
C475 C479 1.460 . S
C475 H481 0.929 . S
N476 Mn469 2.257 . S
N476 C475 1.326 . S
N476 C480 1.362 . S
C477 C478 1.258 . S
C477 C480 1.431 . S
C477 C497 1.449 . S
C478 C477 1.258 . S
C478 C479 1.477 . S
C478 H498 0.931 . S
C479 C475 1.460 . S
C479 C478 1.477 . S
C479 H499 0.930 . S
C480 N476 1.362 . S
C480 C477 1.431 . S
C480 C490 1.476 . S
H481 C475 0.929 . S
C482 O473 1.250 . S
C482 O474 1.258 . S
O483 Mn468 2.162 . S
O483 C471 1.281 . S
O484 Mn468 2.297 . S
O484 C471 1.236 . S
N485 Mn469 2.282 . S
N485 C486 1.328 . S
N485 C490 1.318 . S
C486 N485 1.328 . S
C486 C487 1.457 . S
C486 H491 0.929 . S
C487 C486 1.457 . S
C487 C488 1.291 . S
C487 H500 0.931 . S
C488 C487 1.291 . S
C488 C489 1.373 . S
C488 H501 0.929 . S
C489 C488 1.373 . S
C489 C490 1.396 . S
C489 C496 1.403 . S
C490 C480 1.476 . S
C490 N485 1.318 . S
C490 C489 1.396 . S
H491 C486 0.929 . S
O492 Mn468 2.385 . S
O492 C470 1.234 . S
O493 Mn468 2.209 . S
O493 Mn469 2.215 . S
O493 C470 1.283 . S
O494 Mn468 2.094 . S
O494 C472 1.240 . S
O495 Mn469 2.117 . S
O495 C472 1.264 . S
C496 C489 1.403 . S
C496 C497 1.399 . S
C496 H502 0.929 . S
C497 C477 1.449 . S
C497 C496 1.399 . S
C497 H503 0.930 . S
H498 C478 0.931 . S
H499 C479 0.930 . S
H500 C487 0.931 . S
H501 C488 0.929 . S
H502 C496 0.929 . S
H503 C497 0.930 . S
Mn504 O509 2.095 . S
Mn504 O519 2.162 . S
Mn504 O520 2.297 . S
Mn504 O528 2.385 . S
Mn504 O529 2.209 . S
Mn504 O530 2.094 . S
Mn505 O510 2.121 . S
Mn505 N512 2.257 . S
Mn505 N521 2.282 . S
Mn505 O529 2.215 . S
Mn505 O531 2.117 . S
C506 O528 1.234 . S
C506 O529 1.283 . S
C507 O519 1.281 . S
C507 O520 1.236 . S
C508 O530 1.240 . S
C508 O531 1.264 . S
O509 Mn504 2.095 . S
O509 C518 1.250 . S
O510 Mn505 2.121 . S
O510 C518 1.258 . S
C511 N512 1.326 . S
C511 C515 1.460 . S
C511 H517 0.929 . S
N512 Mn505 2.257 . S
N512 C511 1.326 . S
N512 C516 1.362 . S
C513 C514 1.258 . S
C513 C516 1.431 . S
C513 C533 1.449 . S
C514 C513 1.258 . S
C514 C515 1.477 . S
C514 H534 0.931 . S
C515 C511 1.460 . S
C515 C514 1.477 . S
C515 H535 0.930 . S
C516 N512 1.362 . S
C516 C513 1.431 . S
C516 C526 1.476 . S
H517 C511 0.929 . S
C518 O509 1.250 . S
C518 O510 1.258 . S
O519 Mn504 2.162 . S
O519 C507 1.281 . S
O520 Mn504 2.297 . S
O520 C507 1.236 . S
N521 Mn505 2.282 . S
N521 C522 1.328 . S
N521 C526 1.318 . S
C522 N521 1.328 . S
C522 C523 1.457 . S
C522 H527 0.929 . S
C523 C522 1.457 . S
C523 C524 1.291 . S
C523 H536 0.931 . S
C524 C523 1.291 . S
C524 C525 1.373 . S
C524 H537 0.929 . S
C525 C524 1.373 . S
C525 C526 1.396 . S
C525 C532 1.403 . S
C526 C516 1.476 . S
C526 N521 1.318 . S
C526 C525 1.396 . S
H527 C522 0.929 . S
O528 Mn504 2.385 . S
O528 C506 1.234 . S
O529 Mn504 2.209 . S
O529 Mn505 2.215 . S
O529 C506 1.283 . S
O530 Mn504 2.094 . S
O530 C508 1.240 . S
O531 Mn505 2.117 . S
O531 C508 1.264 . S
C532 C525 1.403 . S
C532 C533 1.399 . S
C532 H538 0.929 . S
C533 C513 1.449 . S
C533 C532 1.399 . S
C533 H539 0.930 . S
H534 C514 0.931 . S
H535 C515 0.930 . S
H536 C523 0.931 . S
H537 C524 0.929 . S
H538 C532 0.929 . S
H539 C533 0.930 . S
Mn540 O545 2.095 1_554 S
Mn540 O555 2.162 . S
Mn540 O556 2.297 . S
Mn540 O564 2.379 1_455 S
Mn540 O565 2.209 1_455 S
Mn540 O566 2.094 . S
Mn541 O546 2.121 1_655 S
Mn541 N548 2.257 . S
Mn541 N557 2.278 1_556 S
Mn541 O565 2.215 1_556 S
Mn541 O567 2.112 1_655 S
C542 O564 1.239 . S
C542 O565 1.283 . S
C543 O555 1.281 . S
C543 O556 1.236 . S
C544 O566 1.240 . S
C544 O567 1.273 1_554 S
O545 Mn540 2.095 1_556 S
O545 C554 1.250 . S
O546 Mn541 2.121 1_455 S
O546 C554 1.258 . S
C547 N548 1.326 . S
C547 C551 1.460 . S
C547 H553 0.929 . S
N548 Mn541 2.257 . S
N548 C547 1.326 . S
N548 C552 1.362 . S
C549 C550 1.258 . S
C549 C552 1.431 . S
C549 C569 1.449 . S
C550 C549 1.258 . S
C550 C551 1.477 . S
C550 H570 0.931 . S
C551 C547 1.460 . S
C551 C550 1.477 . S
C551 H571 0.930 . S
C552 N548 1.362 . S
C552 C549 1.431 . S
C552 C562 1.476 . S
H553 C547 0.929 . S
C554 O545 1.250 . S
C554 O546 1.258 . S
O555 Mn540 2.162 . S
O555 C543 1.281 . S
O556 Mn540 2.297 . S
O556 C543 1.236 . S
N557 Mn541 2.278 1_554 S
N557 C558 1.334 . S
N557 C562 1.316 1_554 S
C558 N557 1.334 . S
C558 C559 1.457 . S
C558 H563 0.929 . S
C559 C558 1.457 . S
C559 C560 1.291 . S
C559 H572 0.931 . S
C560 C559 1.291 . S
C560 C561 1.373 . S
C560 H573 0.929 . S
C561 C560 1.373 . S
C561 C562 1.396 1_554 S
C561 C568 1.403 1_554 S
C562 C552 1.476 . S
C562 N557 1.316 1_556 S
C562 C561 1.396 1_556 S
H563 C558 0.929 . S
O564 Mn540 2.379 1_655 S
O564 C542 1.239 . S
O565 Mn540 2.209 1_655 S
O565 Mn541 2.215 1_554 S
O565 C542 1.283 . S
O566 Mn540 2.094 . S
O566 C544 1.240 . S
O567 Mn541 2.112 1_455 S
O567 C544 1.273 1_556 S
C568 C561 1.403 1_556 S
C568 C569 1.399 . S
C568 H574 0.929 1_556 S
C569 C549 1.449 . S
C569 C568 1.399 . S
C569 H575 0.930 . S
H570 C550 0.931 . S
H571 C551 0.930 . S
H572 C559 0.931 . S
H573 C560 0.929 . S
H574 C568 0.929 1_554 S
H575 C569 0.930 . S
Mn576 O581 2.095 . S
Mn576 O591 2.162 . S
Mn576 O592 2.297 . S
Mn576 O600 2.385 . S
Mn576 O601 2.209 . S
Mn576 O602 2.094 . S
Mn577 O582 2.121 . S
Mn577 N584 2.257 . S
Mn577 N593 2.282 . S
Mn577 O601 2.215 . S
Mn577 O603 2.117 . S
C578 O600 1.234 . S
C578 O601 1.283 . S
C579 O591 1.281 . S
C579 O592 1.236 . S
C580 O602 1.240 . S
C580 O603 1.264 . S
O581 Mn576 2.095 . S
O581 C590 1.250 . S
O582 Mn577 2.121 . S
O582 C590 1.258 . S
C583 N584 1.326 . S
C583 C587 1.460 . S
C583 H589 0.929 . S
N584 Mn577 2.257 . S
N584 C583 1.326 . S
N584 C588 1.362 . S
C585 C586 1.258 . S
C585 C588 1.431 . S
C585 C605 1.449 . S
C586 C585 1.258 . S
C586 C587 1.477 . S
C586 H606 0.931 . S
C587 C583 1.460 . S
C587 C586 1.477 . S
C587 H607 0.930 . S
C588 N584 1.362 . S
C588 C585 1.431 . S
C588 C598 1.476 . S
H589 C583 0.929 . S
C590 O581 1.250 . S
C590 O582 1.258 . S
O591 Mn576 2.162 . S
O591 C579 1.281 . S
O592 Mn576 2.297 . S
O592 C579 1.236 . S
N593 Mn577 2.282 . S
N593 C594 1.328 . S
N593 C598 1.318 . S
C594 N593 1.328 . S
C594 C595 1.457 . S
C594 H599 0.929 . S
C595 C594 1.457 . S
C595 C596 1.291 . S
C595 H608 0.931 . S
C596 C595 1.291 . S
C596 C597 1.373 . S
C596 H609 0.929 . S
C597 C596 1.373 . S
C597 C598 1.396 . S
C597 C604 1.403 . S
C598 C588 1.476 . S
C598 N593 1.318 . S
C598 C597 1.396 . S
H599 C594 0.929 . S
O600 Mn576 2.385 . S
O600 C578 1.234 . S
O601 Mn576 2.209 . S
O601 Mn577 2.215 . S
O601 C578 1.283 . S
O602 Mn576 2.094 . S
O602 C580 1.240 . S
O603 Mn577 2.117 . S
O603 C580 1.264 . S
C604 C597 1.403 . S
C604 C605 1.399 . S
C604 H610 0.929 . S
C605 C585 1.449 . S
C605 C604 1.399 . S
C605 H611 0.930 . S
H606 C586 0.931 . S
H607 C587 0.930 . S
H608 C595 0.931 . S
H609 C596 0.929 . S
H610 C604 0.929 . S
H611 C605 0.930 . S
Mn612 O617 2.095 1_554 S
Mn612 O627 2.162 . S
Mn612 O628 2.297 . S
Mn612 O636 2.385 . S
Mn612 O637 2.209 . S
Mn612 O638 2.094 . S
Mn613 O618 2.121 . S
Mn613 N620 2.257 . S
Mn613 N629 2.282 . S
Mn613 O637 2.215 1_556 S
Mn613 O639 2.117 . S
C614 O636 1.234 . S
C614 O637 1.283 . S
C615 O627 1.281 . S
C615 O628 1.236 . S
C616 O638 1.240 . S
C616 O639 1.264 1_554 S
O617 Mn612 2.095 1_556 S
O617 C626 1.250 . S
O618 Mn613 2.121 . S
O618 C626 1.258 . S
C619 N620 1.326 . S
C619 C623 1.460 . S
C619 H625 0.929 . S
N620 Mn613 2.257 . S
N620 C619 1.326 . S
N620 C624 1.362 . S
C621 C622 1.258 . S
C621 C624 1.431 . S
C621 C641 1.449 . S
C622 C621 1.258 . S
C622 C623 1.477 . S
C622 H642 0.931 . S
C623 C619 1.460 . S
C623 C622 1.477 . S
C623 H643 0.930 . S
C624 N620 1.362 . S
C624 C621 1.431 . S
C624 C634 1.476 . S
H625 C619 0.929 . S
C626 O617 1.250 . S
C626 O618 1.258 . S
O627 Mn612 2.162 . S
O627 C615 1.281 . S
O628 Mn612 2.297 . S
O628 C615 1.236 . S
N629 Mn613 2.282 . S
N629 C630 1.328 1_556 S
N629 C634 1.318 . S
C630 N629 1.328 1_554 S
C630 C631 1.457 . S
C630 H635 0.929 . S
C631 C630 1.457 . S
C631 C632 1.291 . S
C631 H644 0.931 . S
C632 C631 1.291 . S
C632 C633 1.384 . S
C632 H645 0.929 . S
C633 C632 1.384 . S
C633 C634 1.389 1_554 S
C633 C640 1.398 1_554 S
C634 C624 1.476 . S
C634 N629 1.318 . S
C634 C633 1.389 1_556 S
H635 C630 0.929 . S
O636 Mn612 2.385 . S
O636 C614 1.234 . S
O637 Mn612 2.209 . S
O637 Mn613 2.215 1_554 S
O637 C614 1.283 . S
O638 Mn612 2.094 . S
O638 C616 1.240 . S
O639 Mn613 2.117 . S
O639 C616 1.264 1_556 S
C640 C633 1.398 1_556 S
C640 C641 1.399 . S
C640 H646 0.929 1_556 S
C641 C621 1.449 . S
C641 C640 1.399 . S
C641 H647 0.930 . S
H642 C622 0.931 . S
H643 C623 0.930 . S
H644 C631 0.931 . S
H645 C632 0.929 . S
H646 C640 0.929 1_554 S
H647 C641 0.930 . S
Mn648 O653 2.095 . S
Mn648 O663 2.162 . S
Mn648 O664 2.297 . S
Mn648 O672 2.385 . S
Mn648 O673 2.209 . S
Mn648 O674 2.094 . S
Mn649 O654 2.121 . S
Mn649 N656 2.257 . S
Mn649 N665 2.282 . S
Mn649 O673 2.215 . S
Mn649 O675 2.117 . S
C650 O672 1.234 . S
C650 O673 1.283 . S
C651 O663 1.281 . S
C651 O664 1.236 . S
C652 O674 1.240 . S
C652 O675 1.264 . S
O653 Mn648 2.095 . S
O653 C662 1.250 . S
O654 Mn649 2.121 . S
O654 C662 1.258 . S
C655 N656 1.326 . S
C655 C659 1.460 . S
C655 H661 0.929 . S
N656 Mn649 2.257 . S
N656 C655 1.326 . S
N656 C660 1.362 . S
C657 C658 1.258 . S
C657 C660 1.431 . S
C657 C677 1.449 . S
C658 C657 1.258 . S
C658 C659 1.477 . S
C658 H678 0.931 . S
C659 C655 1.460 . S
C659 C658 1.477 . S
C659 H679 0.930 1_655 S
C660 N656 1.362 . S
C660 C657 1.431 . S
C660 C670 1.476 . S
H661 C655 0.929 . S
C662 O653 1.250 . S
C662 O654 1.258 . S
O663 Mn648 2.162 . S
O663 C651 1.281 . S
O664 Mn648 2.297 . S
O664 C651 1.236 . S
N665 Mn649 2.282 . S
N665 C666 1.328 . S
N665 C670 1.318 . S
C666 N665 1.328 . S
C666 C667 1.457 . S
C666 H671 0.929 . S
C667 C666 1.457 . S
C667 C668 1.291 . S
C667 H680 0.931 . S
C668 C667 1.291 . S
C668 C669 1.373 . S
C668 H681 0.929 . S
C669 C668 1.373 . S
C669 C670 1.396 . S
C669 C676 1.403 . S
C670 C660 1.476 . S
C670 N665 1.318 . S
C670 C669 1.396 . S
H671 C666 0.929 . S
O672 Mn648 2.385 . S
O672 C650 1.234 . S
O673 Mn648 2.209 . S
O673 Mn649 2.215 . S
O673 C650 1.283 . S
O674 Mn648 2.094 . S
O674 C652 1.240 . S
O675 Mn649 2.117 . S
O675 C652 1.264 . S
C676 C669 1.403 . S
C676 C677 1.399 . S
C676 H682 0.929 . S
C677 C657 1.449 . S
C677 C676 1.399 . S
C677 H683 0.930 . S
H678 C658 0.931 . S
H679 C659 0.930 1_455 S
H680 C667 0.931 . S
H681 C668 0.929 . S
H682 C676 0.929 . S
H683 C677 0.930 . S
Mn684 O689 2.095 . S
Mn684 O699 2.162 . S
Mn684 O700 2.297 . S
Mn684 O708 2.385 1_455 S
Mn684 O709 2.209 1_455 S
Mn684 O710 2.094 . S
Mn685 O690 2.121 1_655 S
Mn685 N692 2.257 . S
Mn685 N701 2.282 . S
Mn685 O709 2.215 . S
Mn685 O711 2.117 . S
C686 O708 1.234 . S
C686 O709 1.283 . S
C687 O699 1.281 . S
C687 O700 1.236 . S
C688 O710 1.240 . S
C688 O711 1.264 1_455 S
O689 Mn684 2.095 . S
O689 C698 1.250 . S
O690 Mn685 2.121 1_455 S
O690 C698 1.258 . S
C691 N692 1.326 . S
C691 C695 1.460 . S
C691 H697 0.929 . S
N692 Mn685 2.257 . S
N692 C691 1.326 . S
N692 C696 1.362 . S
C693 C694 1.258 . S
C693 C696 1.431 . S
C693 C713 1.449 . S
C694 C693 1.258 . S
C694 C695 1.477 . S
C694 H714 0.931 . S
C695 C691 1.460 . S
C695 C694 1.477 . S
C695 H715 0.930 . S
C696 N692 1.362 . S
C696 C693 1.431 . S
C696 C706 1.476 . S
H697 C691 0.929 . S
C698 O689 1.250 . S
C698 O690 1.258 . S
O699 Mn684 2.162 . S
O699 C687 1.281 . S
O700 Mn684 2.297 . S
O700 C687 1.236 . S
N701 Mn685 2.282 . S
N701 C702 1.328 . S
N701 C706 1.318 . S
C702 N701 1.328 . S
C702 C703 1.457 . S
C702 H707 0.929 . S
C703 C702 1.457 . S
C703 C704 1.291 . S
C703 H716 0.931 . S
C704 C703 1.291 . S
C704 C705 1.373 . S
C704 H717 0.929 . S
C705 C704 1.373 . S
C705 C706 1.396 . S
C705 C712 1.403 . S
C706 C696 1.476 . S
C706 N701 1.318 . S
C706 C705 1.396 . S
H707 C702 0.929 . S
O708 Mn684 2.385 1_655 S
O708 C686 1.234 . S
O709 Mn684 2.209 1_655 S
O709 Mn685 2.215 . S
O709 C686 1.283 . S
O710 Mn684 2.094 . S
O710 C688 1.240 . S
O711 Mn685 2.117 . S
O711 C688 1.264 1_655 S
C712 C705 1.403 . S
C712 C713 1.399 . S
C712 H718 0.929 . S
C713 C693 1.449 . S
C713 C712 1.399 . S
C713 H719 0.930 . S
H714 C694 0.931 . S
H715 C695 0.930 . S
H716 C703 0.931 . S
H717 C704 0.929 . S
H718 C712 0.929 . S
H719 C713 0.930 . S
Mn720 O725 2.095 . S
Mn720 O735 2.162 . S
Mn720 O736 2.297 . S
Mn720 O744 2.385 . S
Mn720 O745 2.209 . S
Mn720 O746 2.094 . S
Mn721 O726 2.121 . S
Mn721 N728 2.257 . S
Mn721 N737 2.282 . S
Mn721 O745 2.215 . S
Mn721 O747 2.117 . S
C722 O744 1.234 . S
C722 O745 1.283 . S
C723 O735 1.281 . S
C723 O736 1.236 . S
C724 O746 1.240 . S
C724 O747 1.264 . S
O725 Mn720 2.095 . S
O725 C734 1.250 . S
O726 Mn721 2.121 . S
O726 C734 1.258 . S
C727 N728 1.326 . S
C727 C731 1.460 . S
C727 H733 0.929 . S
N728 Mn721 2.257 . S
N728 C727 1.326 . S
N728 C732 1.362 . S
C729 C730 1.258 . S
C729 C732 1.431 . S
C729 C749 1.449 . S
C730 C729 1.258 . S
C730 C731 1.477 . S
C730 H750 0.931 . S
C731 C727 1.460 . S
C731 C730 1.477 . S
C731 H751 0.930 . S
C732 N728 1.362 . S
C732 C729 1.431 . S
C732 C742 1.476 . S
H733 C727 0.929 . S
C734 O725 1.250 . S
C734 O726 1.258 . S
O735 Mn720 2.162 . S
O735 C723 1.281 . S
O736 Mn720 2.297 . S
O736 C723 1.236 . S
N737 Mn721 2.282 . S
N737 C738 1.328 . S
N737 C742 1.318 . S
C738 N737 1.328 . S
C738 C739 1.457 . S
C738 H743 0.929 . S
C739 C738 1.457 . S
C739 C740 1.291 . S
C739 H752 0.931 . S
C740 C739 1.291 . S
C740 C741 1.373 . S
C740 H753 0.929 . S
C741 C740 1.373 . S
C741 C742 1.396 . S
C741 C748 1.403 . S
C742 C732 1.476 . S
C742 N737 1.318 . S
C742 C741 1.396 . S
H743 C738 0.929 . S
O744 Mn720 2.385 . S
O744 C722 1.234 . S
O745 Mn720 2.209 . S
O745 Mn721 2.215 . S
O745 C722 1.283 . S
O746 Mn720 2.094 . S
O746 C724 1.240 . S
O747 Mn721 2.117 . S
O747 C724 1.264 . S
C748 C741 1.403 . S
C748 C749 1.399 . S
C748 H754 0.929 . S
C749 C729 1.449 . S
C749 C748 1.399 . S
C749 H755 0.930 . S
H750 C730 0.931 . S
H751 C731 0.930 . S
H752 C739 0.931 . S
H753 C740 0.929 . S
H754 C748 0.929 . S
H755 C749 0.930 . S
Mn756 O761 2.095 1_556 S
Mn756 O771 2.162 . S
Mn756 O772 2.297 . S
Mn756 O780 2.385 1_455 S
Mn756 O781 2.209 1_455 S
Mn756 O782 2.094 . S
Mn757 O762 2.121 1_655 S
Mn757 N764 2.257 . S
Mn757 N773 2.282 . S
Mn757 O781 2.215 1_554 S
Mn757 O783 2.117 . S
C758 O780 1.234 . S
C758 O781 1.283 . S
C759 O771 1.281 . S
C759 O772 1.236 . S
C760 O782 1.240 . S
C760 O783 1.264 1_456 S
O761 Mn756 2.095 1_554 S
O761 C770 1.250 . S
O762 Mn757 2.121 1_455 S
O762 C770 1.258 . S
C763 N764 1.326 . S
C763 C767 1.460 . S
C763 H769 0.929 . S
N764 Mn757 2.257 . S
N764 C763 1.326 . S
N764 C768 1.362 . S
C765 C766 1.258 . S
C765 C768 1.431 . S
C765 C785 1.449 . S
C766 C765 1.258 . S
C766 C767 1.477 . S
C766 H786 0.931 . S
C767 C763 1.460 . S
C767 C766 1.477 . S
C767 H787 0.930 . S
C768 N764 1.362 . S
C768 C765 1.431 . S
C768 C778 1.476 . S
H769 C763 0.929 . S
C770 O761 1.250 . S
C770 O762 1.258 . S
O771 Mn756 2.162 . S
O771 C759 1.281 . S
O772 Mn756 2.297 . S
O772 C759 1.236 . S
N773 Mn757 2.282 . S
N773 C774 1.328 1_554 S
N773 C778 1.318 . S
C774 N773 1.328 1_556 S
C774 C775 1.457 . S
C774 H779 0.929 . S
C775 C774 1.457 . S
C775 C776 1.291 . S
C775 H788 0.931 . S
C776 C775 1.291 . S
C776 C777 1.384 . S
C776 H789 0.929 . S
C777 C776 1.384 . S
C777 C778 1.389 1_556 S
C777 C784 1.398 1_556 S
C778 C768 1.476 . S
C778 N773 1.318 . S
C778 C777 1.389 1_554 S
H779 C774 0.929 . S
O780 Mn756 2.385 1_655 S
O780 C758 1.234 . S
O781 Mn756 2.209 1_655 S
O781 Mn757 2.215 1_556 S
O781 C758 1.283 . S
O782 Mn756 2.094 . S
O782 C760 1.240 . S
O783 Mn757 2.117 . S
O783 C760 1.264 1_654 S
C784 C777 1.398 1_554 S
C784 C785 1.399 . S
C784 H790 0.929 1_554 S
C785 C765 1.449 . S
C785 C784 1.399 . S
C785 H791 0.930 . S
H786 C766 0.931 . S
H787 C767 0.930 . S
H788 C775 0.931 . S
H789 C776 0.929 . S
H790 C784 0.929 1_556 S
H791 C785 0.930 . S
Mn792 O797 2.095 . S
Mn792 O807 2.162 . S
Mn792 O808 2.297 . S
Mn792 O816 2.385 . S
Mn792 O817 2.209 . S
Mn792 O818 2.094 . S
Mn793 O798 2.121 . S
Mn793 N800 2.257 . S
Mn793 N809 2.282 . S
Mn793 O817 2.215 . S
Mn793 O819 2.117 . S
C794 O816 1.234 . S
C794 O817 1.283 . S
C795 O807 1.281 . S
C795 O808 1.236 . S
C796 O818 1.240 . S
C796 O819 1.264 . S
O797 Mn792 2.095 . S
O797 C806 1.250 . S
O798 Mn793 2.121 . S
O798 C806 1.258 . S
C799 N800 1.326 . S
C799 C803 1.460 . S
C799 H805 0.929 . S
N800 Mn793 2.257 . S
N800 C799 1.326 . S
N800 C804 1.362 . S
C801 C802 1.258 . S
C801 C804 1.431 . S
C801 C821 1.449 . S
C802 C801 1.258 . S
C802 C803 1.477 . S
C802 H822 0.931 . S
C803 C799 1.460 . S
C803 C802 1.477 . S
C803 H823 0.930 1_655 S
C804 N800 1.362 . S
C804 C801 1.431 . S
C804 C814 1.476 . S
H805 C799 0.929 . S
C806 O797 1.250 . S
C806 O798 1.258 . S
O807 Mn792 2.162 . S
O807 C795 1.281 . S
O808 Mn792 2.297 . S
O808 C795 1.236 . S
N809 Mn793 2.282 . S
N809 C810 1.328 . S
N809 C814 1.318 . S
C810 N809 1.328 . S
C810 C811 1.457 . S
C810 H815 0.929 . S
C811 C810 1.457 . S
C811 C812 1.291 . S
C811 H824 0.931 . S
C812 C811 1.291 . S
C812 C813 1.373 . S
C812 H825 0.929 . S
C813 C812 1.373 . S
C813 C814 1.396 . S
C813 C820 1.403 . S
C814 C804 1.476 . S
C814 N809 1.318 . S
C814 C813 1.396 . S
H815 C810 0.929 . S
O816 Mn792 2.385 . S
O816 C794 1.234 . S
O817 Mn792 2.209 . S
O817 Mn793 2.215 . S
O817 C794 1.283 . S
O818 Mn792 2.094 . S
O818 C796 1.240 . S
O819 Mn793 2.117 . S
O819 C796 1.264 . S
C820 C813 1.403 . S
C820 C821 1.399 . S
C820 H826 0.929 . S
C821 C801 1.449 . S
C821 C820 1.399 . S
C821 H827 0.930 . S
H822 C802 0.931 . S
H823 C803 0.930 1_455 S
H824 C811 0.931 . S
H825 C812 0.929 . S
H826 C820 0.929 . S
H827 C821 0.930 . S
Mn828 O833 2.095 . S
Mn828 O843 2.162 . S
Mn828 O844 2.297 . S
Mn828 O852 2.385 . S
Mn828 O853 2.209 . S
Mn828 O854 2.094 . S
Mn829 O834 2.121 . S
Mn829 N836 2.257 . S
Mn829 N845 2.282 . S
Mn829 O853 2.215 . S
Mn829 O855 2.117 . S
C830 O852 1.234 . S
C830 O853 1.283 . S
C831 O843 1.281 . S
C831 O844 1.236 . S
C832 O854 1.240 . S
C832 O855 1.264 . S
O833 Mn828 2.095 . S
O833 C842 1.250 . S
O834 Mn829 2.121 . S
O834 C842 1.258 . S
C835 N836 1.326 . S
C835 C839 1.460 . S
C835 H841 0.929 . S
N836 Mn829 2.257 . S
N836 C835 1.326 . S
N836 C840 1.362 . S
C837 C838 1.258 . S
C837 C840 1.431 . S
C837 C857 1.449 . S
C838 C837 1.258 . S
C838 C839 1.477 . S
C838 H858 0.931 . S
C839 C835 1.460 . S
C839 C838 1.477 . S
C839 H859 0.930 . S
C840 N836 1.362 . S
C840 C837 1.431 . S
C840 C850 1.476 . S
H841 C835 0.929 . S
C842 O833 1.250 . S
C842 O834 1.258 . S
O843 Mn828 2.162 . S
O843 C831 1.281 . S
O844 Mn828 2.297 . S
O844 C831 1.236 . S
N845 Mn829 2.282 . S
N845 C846 1.328 . S
N845 C850 1.318 . S
C846 N845 1.328 . S
C846 C847 1.457 . S
C846 H851 0.929 . S
C847 C846 1.457 . S
C847 C848 1.291 . S
C847 H860 0.931 . S
C848 C847 1.291 . S
C848 C849 1.373 . S
C848 H861 0.929 . S
C849 C848 1.373 . S
C849 C850 1.396 . S
C849 C856 1.403 . S
C850 C840 1.476 . S
C850 N845 1.318 . S
C850 C849 1.396 . S
H851 C846 0.929 . S
O852 Mn828 2.385 . S
O852 C830 1.234 . S
O853 Mn828 2.209 . S
O853 Mn829 2.215 . S
O853 C830 1.283 . S
O854 Mn828 2.094 . S
O854 C832 1.240 . S
O855 Mn829 2.117 . S
O855 C832 1.264 . S
C856 C849 1.403 . S
C856 C857 1.399 . S
C856 H862 0.929 . S
C857 C837 1.449 . S
C857 C856 1.399 . S
C857 H863 0.930 . S
H858 C838 0.931 . S
H859 C839 0.930 . S
H860 C847 0.931 . S
H861 C848 0.929 . S
H862 C856 0.929 . S
H863 C857 0.930 . S
Mn864 O869 2.095 . S
Mn864 O879 2.162 . S
Mn864 O880 2.297 . S
Mn864 O888 2.385 . S
Mn864 O889 2.209 . S
Mn864 O890 2.094 . S
Mn865 O870 2.121 . S
Mn865 N872 2.257 . S
Mn865 N881 2.282 . S
Mn865 O889 2.215 . S
Mn865 O891 2.117 . S
C866 O888 1.234 . S
C866 O889 1.283 . S
C867 O879 1.281 . S
C867 O880 1.236 . S
C868 O890 1.240 . S
C868 O891 1.264 . S
O869 Mn864 2.095 . S
O869 C878 1.250 . S
O870 Mn865 2.121 . S
O870 C878 1.258 . S
C871 N872 1.326 . S
C871 C875 1.460 . S
C871 H877 0.929 . S
N872 Mn865 2.257 . S
N872 C871 1.326 . S
N872 C876 1.362 . S
C873 C874 1.258 . S
C873 C876 1.431 1_565 S
C873 C893 1.449 . S
C874 C873 1.258 . S
C874 C875 1.477 1_565 S
C874 H894 0.931 . S
C875 C871 1.460 . S
C875 C874 1.477 1_545 S
C875 H895 0.930 . S
C876 N872 1.362 . S
C876 C873 1.431 1_545 S
C876 C886 1.478 . S
H877 C871 0.929 . S
C878 O869 1.250 . S
C878 O870 1.258 . S
O879 Mn864 2.162 . S
O879 C867 1.281 . S
O880 Mn864 2.297 . S
O880 C867 1.236 . S
N881 Mn865 2.282 . S
N881 C882 1.328 . S
N881 C886 1.326 . S
C882 N881 1.328 . S
C882 C883 1.457 1_545 S
C882 H887 0.929 . S
C883 C882 1.457 1_565 S
C883 C884 1.291 . S
C883 H896 0.931 . S
C884 C883 1.291 . S
C884 C885 1.373 . S
C884 H897 0.929 . S
C885 C884 1.373 . S
C885 C886 1.385 1_565 S
C885 C892 1.403 . S
C886 C876 1.478 . S
C886 N881 1.326 . S
C886 C885 1.385 1_545 S
H887 C882 0.929 . S
O888 Mn864 2.385 . S
O888 C866 1.234 . S
O889 Mn864 2.209 . S
O889 Mn865 2.215 . S
O889 C866 1.283 . S
O890 Mn864 2.094 . S
O890 C868 1.240 . S
O891 Mn865 2.117 . S
O891 C868 1.264 . S
C892 C885 1.403 . S
C892 C893 1.399 . S
C892 H898 0.929 . S
C893 C873 1.449 . S
C893 C892 1.399 . S
C893 H899 0.930 . S
H894 C874 0.931 . S
H895 C875 0.930 . S
H896 C883 0.931 . S
H897 C884 0.929 . S
H898 C892 0.929 . S
H899 C893 0.930 . S
Mn900 O905 2.095 1_556 S
Mn900 O915 2.162 . S
Mn900 O916 2.297 . S
Mn900 O924 2.385 . S
Mn900 O925 2.209 . S
Mn900 O926 2.094 . S
Mn901 O906 2.121 . S
Mn901 N908 2.257 . S
Mn901 N917 2.278 1_554 S
Mn901 O925 2.215 1_554 S
Mn901 O927 2.117 . S
C902 O924 1.234 . S
C902 O925 1.283 . S
C903 O915 1.281 . S
C903 O916 1.236 . S
C904 O926 1.240 . S
C904 O927 1.264 1_556 S
O905 Mn900 2.095 1_554 S
O905 C914 1.250 . S
O906 Mn901 2.121 . S
O906 C914 1.258 . S
C907 N908 1.326 . S
C907 C911 1.460 . S
C907 H913 0.929 . S
N908 Mn901 2.257 . S
N908 C907 1.326 . S
N908 C912 1.362 . S
C909 C910 1.258 . S
C909 C912 1.431 . S
C909 C929 1.449 . S
C910 C909 1.258 . S
C910 C911 1.477 . S
C910 H930 0.931 . S
C911 C907 1.460 . S
C911 C910 1.477 . S
C911 H931 0.930 . S
C912 N908 1.362 . S
C912 C909 1.431 . S
C912 C922 1.476 . S
H913 C907 0.929 . S
C914 O905 1.250 . S
C914 O906 1.258 . S
O915 Mn900 2.162 . S
O915 C903 1.281 . S
O916 Mn900 2.297 . S
O916 C903 1.236 . S
N917 Mn901 2.278 1_556 S
N917 C918 1.334 . S
N917 C922 1.316 1_556 S
C918 N917 1.334 . S
C918 C919 1.457 . S
C918 H923 0.929 . S
C919 C918 1.457 . S
C919 C920 1.291 . S
C919 H932 0.931 . S
C920 C919 1.291 . S
C920 C921 1.373 . S
C920 H933 0.929 . S
C921 C920 1.373 . S
C921 C922 1.396 1_556 S
C921 C928 1.403 1_556 S
C922 C912 1.476 . S
C922 N917 1.316 1_554 S
C922 C921 1.396 1_554 S
H923 C918 0.929 . S
O924 Mn900 2.385 . S
O924 C902 1.234 . S
O925 Mn900 2.209 . S
O925 Mn901 2.215 1_556 S
O925 C902 1.283 . S
O926 Mn900 2.094 . S
O926 C904 1.240 . S
O927 Mn901 2.117 . S
O927 C904 1.264 1_554 S
C928 C921 1.403 1_554 S
C928 C929 1.399 . S
C928 H934 0.929 1_554 S
C929 C909 1.449 . S
C929 C928 1.399 . S
C929 H935 0.930 . S
H930 C910 0.931 . S
H931 C911 0.930 . S
H932 C919 0.931 . S
H933 C920 0.929 . S
H934 C928 0.929 1_556 S
H935 C929 0.930 . S
Mn936 O941 2.095 . S
Mn936 O951 2.162 . S
Mn936 O952 2.297 . S
Mn936 O960 2.385 . S
Mn936 O961 2.209 . S
Mn936 O962 2.094 . S
Mn937 O942 2.121 . S
Mn937 N944 2.257 . S
Mn937 N953 2.282 . S
Mn937 O961 2.215 . S
Mn937 O963 2.117 . S
C938 O960 1.234 . S
C938 O961 1.283 . S
C939 O951 1.281 . S
C939 O952 1.236 . S
C940 O962 1.240 . S
C940 O963 1.264 . S
O941 Mn936 2.095 . S
O941 C950 1.250 . S
O942 Mn937 2.121 . S
O942 C950 1.258 . S
C943 N944 1.326 . S
C943 C947 1.460 . S
C943 H949 0.929 . S
N944 Mn937 2.257 . S
N944 C943 1.326 . S
N944 C948 1.362 . S
C945 C946 1.258 . S
C945 C948 1.431 1_545 S
C945 C965 1.449 . S
C946 C945 1.258 . S
C946 C947 1.477 1_545 S
C946 H966 0.931 . S
C947 C943 1.460 . S
C947 C946 1.477 1_565 S
C947 H967 0.930 . S
C948 N944 1.362 . S
C948 C945 1.431 1_565 S
C948 C958 1.478 . S
H949 C943 0.929 . S
C950 O941 1.250 . S
C950 O942 1.258 . S
O951 Mn936 2.162 . S
O951 C939 1.281 . S
O952 Mn936 2.297 . S
O952 C939 1.236 . S
N953 Mn937 2.282 . S
N953 C954 1.328 . S
N953 C958 1.326 . S
C954 N953 1.328 . S
C954 C955 1.457 1_565 S
C954 H959 0.929 . S
C955 C954 1.457 1_545 S
C955 C956 1.291 . S
C955 H968 0.931 . S
C956 C955 1.291 . S
C956 C957 1.373 . S
C956 H969 0.929 . S
C957 C956 1.373 . S
C957 C958 1.385 1_545 S
C957 C964 1.403 . S
C958 C948 1.478 . S
C958 N953 1.326 . S
C958 C957 1.385 1_565 S
H959 C954 0.929 . S
O960 Mn936 2.385 . S
O960 C938 1.234 . S
O961 Mn936 2.209 . S
O961 Mn937 2.215 . S
O961 C938 1.283 . S
O962 Mn936 2.094 . S
O962 C940 1.240 . S
O963 Mn937 2.117 . S
O963 C940 1.264 . S
C964 C957 1.403 . S
C964 C965 1.399 . S
C964 H970 0.929 . S
C965 C945 1.449 . S
C965 C964 1.399 . S
C965 H971 0.930 . S
H966 C946 0.931 . S
H967 C947 0.930 . S
H968 C955 0.931 . S
H969 C956 0.929 . S
H970 C964 0.929 . S
H971 C965 0.930 . S
Mn972 O977 2.095 . S
Mn972 O987 2.162 . S
Mn972 O988 2.297 . S
Mn972 O996 2.379 1_655 S
Mn972 O997 2.209 1_655 S
Mn972 O998 2.094 . S
Mn973 O978 2.121 1_455 S
Mn973 N980 2.257 . S
Mn973 N989 2.282 . S
Mn973 O997 2.215 . S
Mn973 O999 2.112 1_455 S
C974 O996 1.239 . S
C974 O997 1.283 . S
C975 O987 1.281 . S
C975 O988 1.236 . S
C976 O998 1.240 . S
C976 O999 1.273 . S
O977 Mn972 2.095 . S
O977 C986 1.250 . S
O978 Mn973 2.121 1_655 S
O978 C986 1.258 . S
C979 N980 1.326 . S
C979 C983 1.460 . S
C979 H985 0.929 . S
N980 Mn973 2.257 . S
N980 C979 1.326 . S
N980 C984 1.362 . S
C981 C982 1.258 . S
C981 C984 1.431 . S
C981 C1001 1.449 . S
C982 C981 1.258 . S
C982 C983 1.477 . S
C982 H1002 0.931 . S
C983 C979 1.460 . S
C983 C982 1.477 . S
C983 H1003 0.930 . S
C984 N980 1.362 . S
C984 C981 1.431 . S
C984 C994 1.476 . S
H985 C979 0.929 . S
C986 O977 1.250 . S
C986 O978 1.258 . S
O987 Mn972 2.162 . S
O987 C975 1.281 . S
O988 Mn972 2.297 . S
O988 C975 1.236 . S
N989 Mn973 2.282 . S
N989 C990 1.328 . S
N989 C994 1.318 . S
C990 N989 1.328 . S
C990 C991 1.457 . S
C990 H995 0.929 . S
C991 C990 1.457 . S
C991 C992 1.291 . S
C991 H1004 0.931 . S
C992 C991 1.291 . S
C992 C993 1.373 . S
C992 H1005 0.929 . S
C993 C992 1.373 . S
C993 C994 1.396 . S
C993 C1000 1.403 . S
C994 C984 1.476 . S
C994 N989 1.318 . S
C994 C993 1.396 . S
H995 C990 0.929 . S
O996 Mn972 2.379 1_455 S
O996 C974 1.239 . S
O997 Mn972 2.209 1_455 S
O997 Mn973 2.215 . S
O997 C974 1.283 . S
O998 Mn972 2.094 . S
O998 C976 1.240 . S
O999 Mn973 2.112 1_655 S
O999 C976 1.273 . S
C1000 C993 1.403 . S
C1000 C1001 1.399 . S
C1000 H1006 0.929 . S
C1001 C981 1.449 . S
C1001 C1000 1.399 . S
C1001 H1007 0.930 . S
H1002 C982 0.931 . S
H1003 C983 0.930 . S
H1004 C991 0.931 . S
H1005 C992 0.929 . S
H1006 C1000 0.929 . S
H1007 C1001 0.930 . S
Mn1008 O1013 2.095 . S
Mn1008 O1023 2.162 . S
Mn1008 O1024 2.297 . S
Mn1008 O1032 2.385 . S
Mn1008 O1033 2.209 . S
Mn1008 O1034 2.094 . S
Mn1009 O1014 2.121 . S
Mn1009 N1016 2.257 . S
Mn1009 N1025 2.282 . S
Mn1009 O1033 2.215 . S
Mn1009 O1035 2.117 . S
C1010 O1032 1.234 . S
C1010 O1033 1.283 . S
C1011 O1023 1.281 . S
C1011 O1024 1.236 . S
C1012 O1034 1.240 . S
C1012 O1035 1.264 . S
O1013 Mn1008 2.095 . S
O1013 C1022 1.250 . S
O1014 Mn1009 2.121 . S
O1014 C1022 1.258 . S
C1015 N1016 1.326 . S
C1015 C1019 1.460 . S
C1015 H1021 0.929 . S
N1016 Mn1009 2.257 . S
N1016 C1015 1.326 . S
N1016 C1020 1.362 . S
C1017 C1018 1.258 . S
C1017 C1020 1.431 1_545 S
C1017 C1037 1.449 . S
C1018 C1017 1.258 . S
C1018 C1019 1.477 1_545 S
C1018 H1038 0.931 . S
C1019 C1015 1.460 . S
C1019 C1018 1.477 1_565 S
C1019 H1039 0.930 . S
C1020 N1016 1.362 . S
C1020 C1017 1.431 1_565 S
C1020 C1030 1.478 . S
H1021 C1015 0.929 . S
C1022 O1013 1.250 . S
C1022 O1014 1.258 . S
O1023 Mn1008 2.162 . S
O1023 C1011 1.281 . S
O1024 Mn1008 2.297 . S
O1024 C1011 1.236 . S
N1025 Mn1009 2.282 . S
N1025 C1026 1.328 . S
N1025 C1030 1.326 . S
C1026 N1025 1.328 . S
C1026 C1027 1.457 1_565 S
C1026 H1031 0.929 . S
C1027 C1026 1.457 1_545 S
C1027 C1028 1.291 . S
C1027 H1040 0.931 . S
C1028 C1027 1.291 . S
C1028 C1029 1.373 . S
C1028 H1041 0.929 . S
C1029 C1028 1.373 . S
C1029 C1030 1.385 1_545 S
C1029 C1036 1.403 . S
C1030 C1020 1.478 . S
C1030 N1025 1.326 . S
C1030 C1029 1.385 1_565 S
H1031 C1026 0.929 . S
O1032 Mn1008 2.385 . S
O1032 C1010 1.234 . S
O1033 Mn1008 2.209 . S
O1033 Mn1009 2.215 . S
O1033 C1010 1.283 . S
O1034 Mn1008 2.094 . S
O1034 C1012 1.240 . S
O1035 Mn1009 2.117 . S
O1035 C1012 1.264 . S
C1036 C1029 1.403 . S
C1036 C1037 1.399 . S
C1036 H1042 0.929 . S
C1037 C1017 1.449 . S
C1037 C1036 1.399 . S
C1037 H1043 0.930 . S
H1038 C1018 0.931 . S
H1039 C1019 0.930 . S
H1040 C1027 0.931 . S
H1041 C1028 0.929 . S
H1042 C1036 0.929 . S
H1043 C1037 0.930 . S
Mn1044 O1049 2.095 1_554 S
Mn1044 O1059 2.162 . S
Mn1044 O1060 2.297 . S
Mn1044 O1068 2.379 1_655 S
Mn1044 O1069 2.209 1_655 S
Mn1044 O1070 2.094 . S
Mn1045 O1050 2.121 1_455 S
Mn1045 N1052 2.257 . S
Mn1045 N1061 2.278 1_556 S
Mn1045 O1069 2.215 1_556 S
Mn1045 O1071 2.112 1_455 S
C1046 O1068 1.239 . S
C1046 O1069 1.283 . S
C1047 O1059 1.281 . S
C1047 O1060 1.236 . S
C1048 O1070 1.240 . S
C1048 O1071 1.273 1_554 S
O1049 Mn1044 2.095 1_556 S
O1049 C1058 1.250 . S
O1050 Mn1045 2.121 1_655 S
O1050 C1058 1.258 . S
C1051 N1052 1.326 . S
C1051 C1055 1.460 . S
C1051 H1057 0.929 . S
N1052 Mn1045 2.257 . S
N1052 C1051 1.326 . S
N1052 C1056 1.362 . S
C1053 C1054 1.258 . S
C1053 C1056 1.431 . S
C1053 C1073 1.449 . S
C1054 C1053 1.258 . S
C1054 C1055 1.477 . S
C1054 H1074 0.931 . S
C1055 C1051 1.460 . S
C1055 C1054 1.477 . S
C1055 H1075 0.930 . S
C1056 N1052 1.362 . S
C1056 C1053 1.431 . S
C1056 C1066 1.476 . S
H1057 C1051 0.929 . S
C1058 O1049 1.250 . S
C1058 O1050 1.258 . S
O1059 Mn1044 2.162 . S
O1059 C1047 1.281 . S
O1060 Mn1044 2.297 . S
O1060 C1047 1.236 . S
N1061 Mn1045 2.278 1_554 S
N1061 C1062 1.334 . S
N1061 C1066 1.316 1_554 S
C1062 N1061 1.334 . S
C1062 C1063 1.457 . S
C1062 H1067 0.929 . S
C1063 C1062 1.457 . S
C1063 C1064 1.291 . S
C1063 H1076 0.931 . S
C1064 C1063 1.291 . S
C1064 C1065 1.373 . S
C1064 H1077 0.929 . S
C1065 C1064 1.373 . S
C1065 C1066 1.396 1_554 S
C1065 C1072 1.403 1_554 S
C1066 C1056 1.476 . S
C1066 N1061 1.316 1_556 S
C1066 C1065 1.396 1_556 S
H1067 C1062 0.929 . S
O1068 Mn1044 2.379 1_455 S
O1068 C1046 1.239 . S
O1069 Mn1044 2.209 1_455 S
O1069 Mn1045 2.215 1_554 S
O1069 C1046 1.283 . S
O1070 Mn1044 2.094 . S
O1070 C1048 1.240 . S
O1071 Mn1045 2.112 1_655 S
O1071 C1048 1.273 1_556 S
C1072 C1065 1.403 1_556 S
C1072 C1073 1.399 . S
C1072 H1078 0.929 1_556 S
C1073 C1053 1.449 . S
C1073 C1072 1.399 . S
C1073 H1079 0.930 . S
H1074 C1054 0.931 . S
H1075 C1055 0.930 . S
H1076 C1063 0.931 . S
H1077 C1064 0.929 . S
H1078 C1072 0.929 1_554 S
H1079 C1073 0.930 . S
Mn1080 O1085 2.095 . S
Mn1080 O1095 2.162 . S
Mn1080 O1096 2.297 . S
Mn1080 O1104 2.385 . S
Mn1080 O1105 2.209 . S
Mn1080 O1106 2.094 . S
Mn1081 O1086 2.121 . S
Mn1081 N1088 2.257 . S
Mn1081 N1097 2.282 . S
Mn1081 O1105 2.215 . S
Mn1081 O1107 2.117 . S
C1082 O1104 1.234 . S
C1082 O1105 1.283 . S
C1083 O1095 1.281 . S
C1083 O1096 1.236 . S
C1084 O1106 1.240 . S
C1084 O1107 1.264 . S
O1085 Mn1080 2.095 . S
O1085 C1094 1.250 . S
O1086 Mn1081 2.121 . S
O1086 C1094 1.258 . S
C1087 N1088 1.326 . S
C1087 C1091 1.460 . S
C1087 H1093 0.929 . S
N1088 Mn1081 2.257 . S
N1088 C1087 1.326 . S
N1088 C1092 1.362 . S
C1089 C1090 1.258 . S
C1089 C1092 1.431 1_565 S
C1089 C1109 1.449 . S
C1090 C1089 1.258 . S
C1090 C1091 1.477 1_565 S
C1090 H1110 0.931 . S
C1091 C1087 1.460 . S
C1091 C1090 1.477 1_545 S
C1091 H1111 0.930 . S
C1092 N1088 1.362 . S
C1092 C1089 1.431 1_545 S
C1092 C1102 1.478 . S
H1093 C1087 0.929 . S
C1094 O1085 1.250 . S
C1094 O1086 1.258 . S
O1095 Mn1080 2.162 . S
O1095 C1083 1.281 . S
O1096 Mn1080 2.297 . S
O1096 C1083 1.236 . S
N1097 Mn1081 2.282 . S
N1097 C1098 1.328 . S
N1097 C1102 1.326 . S
C1098 N1097 1.328 . S
C1098 C1099 1.457 1_545 S
C1098 H1103 0.929 . S
C1099 C1098 1.457 1_565 S
C1099 C1100 1.291 . S
C1099 H1112 0.931 . S
C1100 C1099 1.291 . S
C1100 C1101 1.373 . S
C1100 H1113 0.929 . S
C1101 C1100 1.373 . S
C1101 C1102 1.385 1_565 S
C1101 C1108 1.403 . S
C1102 C1092 1.478 . S
C1102 N1097 1.326 . S
C1102 C1101 1.385 1_545 S
H1103 C1098 0.929 . S
O1104 Mn1080 2.385 . S
O1104 C1082 1.234 . S
O1105 Mn1080 2.209 . S
O1105 Mn1081 2.215 . S
O1105 C1082 1.283 . S
O1106 Mn1080 2.094 . S
O1106 C1084 1.240 . S
O1107 Mn1081 2.117 . S
O1107 C1084 1.264 . S
C1108 C1101 1.403 . S
C1108 C1109 1.399 . S
C1108 H1114 0.929 . S
C1109 C1089 1.449 . S
C1109 C1108 1.399 . S
C1109 H1115 0.930 . S
H1110 C1090 0.931 . S
H1111 C1091 0.930 . S
H1112 C1099 0.931 . S
H1113 C1100 0.929 . S
H1114 C1108 0.929 . S
H1115 C1109 0.930 . S
Mn1116 O1121 2.095 . S
Mn1116 O1131 2.162 . S
Mn1116 O1132 2.297 . S
Mn1116 O1140 2.385 . S
Mn1116 O1141 2.209 . S
Mn1116 O1142 2.094 . S
Mn1117 O1122 2.121 . S
Mn1117 N1124 2.257 . S
Mn1117 N1133 2.282 . S
Mn1117 O1141 2.215 . S
Mn1117 O1143 2.117 . S
C1118 O1140 1.234 . S
C1118 O1141 1.283 . S
C1119 O1131 1.281 . S
C1119 O1132 1.236 . S
C1120 O1142 1.240 . S
C1120 O1143 1.264 . S
O1121 Mn1116 2.095 . S
O1121 C1130 1.250 . S
O1122 Mn1117 2.121 . S
O1122 C1130 1.258 . S
C1123 N1124 1.326 . S
C1123 C1127 1.460 . S
C1123 H1129 0.929 . S
N1124 Mn1117 2.257 . S
N1124 C1123 1.326 . S
N1124 C1128 1.362 . S
C1125 C1126 1.258 . S
C1125 C1128 1.431 . S
C1125 C1145 1.449 . S
C1126 C1125 1.258 . S
C1126 C1127 1.477 . S
C1126 H1146 0.931 . S
C1127 C1123 1.460 . S
C1127 C1126 1.477 . S
C1127 H1147 0.930 . S
C1128 N1124 1.362 . S
C1128 C1125 1.431 . S
C1128 C1138 1.476 . S
H1129 C1123 0.929 . S
C1130 O1121 1.250 . S
C1130 O1122 1.258 . S
O1131 Mn1116 2.162 . S
O1131 C1119 1.281 . S
O1132 Mn1116 2.297 . S
O1132 C1119 1.236 . S
N1133 Mn1117 2.282 . S
N1133 C1134 1.328 . S
N1133 C1138 1.318 . S
C1134 N1133 1.328 . S
C1134 C1135 1.457 . S
C1134 H1139 0.929 . S
C1135 C1134 1.457 . S
C1135 C1136 1.291 . S
C1135 H1148 0.931 . S
C1136 C1135 1.291 . S
C1136 C1137 1.373 . S
C1136 H1149 0.929 . S
C1137 C1136 1.373 . S
C1137 C1138 1.396 . S
C1137 C1144 1.403 . S
C1138 C1128 1.476 . S
C1138 N1133 1.318 . S
C1138 C1137 1.396 . S
H1139 C1134 0.929 . S
O1140 Mn1116 2.385 . S
O1140 C1118 1.234 . S
O1141 Mn1116 2.209 . S
O1141 Mn1117 2.215 . S
O1141 C1118 1.283 . S
O1142 Mn1116 2.094 . S
O1142 C1120 1.240 . S
O1143 Mn1117 2.117 . S
O1143 C1120 1.264 . S
C1144 C1137 1.403 . S
C1144 C1145 1.399 . S
C1144 H1150 0.929 . S
C1145 C1125 1.449 . S
C1145 C1144 1.399 . S
C1145 H1151 0.930 . S
H1146 C1126 0.931 . S
H1147 C1127 0.930 . S
H1148 C1135 0.931 . S
H1149 C1136 0.929 . S
H1150 C1144 0.929 . S
H1151 C1145 0.930 . S
C327 C2 1.620 . S
C38 C938 1.469 . S
C399 C74 1.620 . S
C866 C110 1.469 . S
C146 C543 1.620 . S
C1010 C182 1.469 . S
C218 C471 1.620 . S
C1082 C254 1.469 . S
C39 C291 1.325 . S
C326 C651 1.500 . S
C111 C363 1.324 . S
C398 C579 1.500 . S
C435 C255 1.325 . S
C723 C470 1.500 . S
C507 C183 1.324 . S
C795 C542 1.500 . S
C903 C578 1.621 . S
C362 C614 1.469 . S
C650 C975 1.620 . S
C290 C686 1.469 . S
C1119 C722 1.621 . S
C758 C434 1.469 . S
C1047 C794 1.620 . S
C506 C830 1.469 . S
C615 C867 1.325 . S
C902 C75 1.500 . S
C939 C687 1.325 . S
C974 C3 1.500 . S
C831 C1011 1.325 . S
C1046 C147 1.500 . S
C1083 C759 1.325 . S
C1118 C219 1.500 . S
C878 C4 2.517 . S
C40 C328 1.726 1_665 S
C76 C950 2.517 . S
C112 C400 1.726 1_544 S
C148 C1022 2.517 . S
C184 C472 1.726 1_565 S
C1094 C220 2.517 . S
C256 C544 1.726 1_646 S
C302 C580 2.517 . S
C374 C652 2.517 . S
C724 C446 2.517 . S
C796 C518 2.517 . S
C616 C904 1.726 1_554 S
C976 C688 1.726 1_655 S
C760 C1048 1.726 1_456 S
C1120 C832 1.726 . S
C770 C14 2.089 . S
C806 C50 2.089 . S
C86 C842 2.089 . S
C734 C122 2.089 . S
C698 C158 2.089 . S
C590 C194 2.089 . S
C230 C626 2.089 . S
C662 C266 2.089 . S
C1058 C292 1.703 . S
C1084 C338 1.703 . S
C1130 C364 1.703 . S
C410 C1012 1.703 . S
C986 C436 1.703 . S
C868 C482 1.703 . S
C914 C508 1.703 . S
C940 C554 1.703 . S
