# Generated by pormake.
# Topology sml, (6)-cn, num edge types: 1
# Building blocks:
#     Node 0, Type 0, BuildingBlock: MIFKUJ_clean_sbu_0, # of connection points: 6
#     Node 1, Type 0, BuildingBlock: MIFKUJ_clean_sbu_0, # of connection points: 6
#     Node 2, Type 0, BuildingBlock: MIFKUJ_clean_sbu_0, # of connection points: 6
#     Node 3, Type 0, BuildingBlock: MIFKUJ_clean_sbu_0, # of connection points: 6
#     Node 4, Type 0, BuildingBlock: MIFKUJ_clean_sbu_0, # of connection points: 6
#     Node 5, Type 0, BuildingBlock: MIFKUJ_clean_sbu_0, # of connection points: 6
#     Edge 6, Type (0, 0), BuildingBlock: KIFKEQ_clean_linker_1, # of connection points: 2
#     Edge 7, Type (0, 0), BuildingBlock: KIFKEQ_clean_linker_1, # of connection points: 2
#     Edge 8, Type (0, 0), BuildingBlock: KIFKEQ_clean_linker_1, # of connection points: 2
#     Edge 9, Type (0, 0), BuildingBlock: KIFKEQ_clean_linker_1, # of connection points: 2
#     Edge 10, Type (0, 0), BuildingBlock: KIFKEQ_clean_linker_1, # of connection points: 2
#     Edge 11, Type (0, 0), BuildingBlock: KIFKEQ_clean_linker_1, # of connection points: 2
#     Edge 12, Type (0, 0), BuildingBlock: KIFKEQ_clean_linker_1, # of connection points: 2
#     Edge 13, Type (0, 0), BuildingBlock: KIFKEQ_clean_linker_1, # of connection points: 2
#     Edge 14, Type (0, 0), BuildingBlock: KIFKEQ_clean_linker_1, # of connection points: 2
#     Edge 15, Type (0, 0), BuildingBlock: KIFKEQ_clean_linker_1, # of connection points: 2
#     Edge 16, Type (0, 0), BuildingBlock: KIFKEQ_clean_linker_1, # of connection points: 2
#     Edge 17, Type (0, 0), BuildingBlock: KIFKEQ_clean_linker_1, # of connection points: 2
#     Edge 18, Type (0, 0), BuildingBlock: KIFKEQ_clean_linker_1, # of connection points: 2
#     Edge 19, Type (0, 0), BuildingBlock: KIFKEQ_clean_linker_1, # of connection points: 2
#     Edge 20, Type (0, 0), BuildingBlock: KIFKEQ_clean_linker_1, # of connection points: 2
#     Edge 21, Type (0, 0), BuildingBlock: KIFKEQ_clean_linker_1, # of connection points: 2
#     Edge 22, Type (0, 0), BuildingBlock: KIFKEQ_clean_linker_1, # of connection points: 2
#     Edge 23, Type (0, 0), BuildingBlock: KIFKEQ_clean_linker_1, # of connection points: 2
# Relax obj value: 0.138
# Max RMSD: 0.177
# Mean RMSD: 0.177
data_MOF--net-sml--node1-MIFKUJ_clean_sbu_0--edge1-KIFKEQ_clean_linker_1
_symmetry_space_group_name_H-M    P1
_symmetry_Int_Tables_number       1
_symmetry_cell_setting            triclinic
loop_
_symmetry_equiv_pos_as_xyz
'x, y, z'
_cell_length_a     38.985979
_cell_length_b     38.926928
_cell_length_c     18.496538
_cell_angle_alpha  90.002689
_cell_angle_beta   90.388997
_cell_angle_gamma 119.96551
loop_
_atom_site_label
_atom_site_type_symbol
_atom_site_fract_x
_atom_site_fract_y
_atom_site_fract_z
_atom_type_partial_charge
Zn0 Zn 0.22788 0.43546 0.08946 0.0
Zn1 Zn 0.20539 0.41797 0.92459 0.0
C2 C 0.23735 0.50943 0.11927 0.0
O3 O 0.27239 0.51363 0.1327 0.0
C4 C 0.21177 0.34827 0.91044 0.0
O5 O 0.17507 0.33358 0.88765 0.0
O6 O 0.24012 0.4311 0.1941 0.0
O7 O 0.18209 0.38078 0.06654 0.0
O8 O 0.15497 0.39799 0.98035 0.0
C9 C 0.21066 0.42349 0.23398 0.0
O10 O 0.17794 0.41839 0.20327 0.0
O11 O 0.21016 0.47637 0.09456 0.0
C12 C 0.22475 0.42476 0.77899 0.0
O13 O 0.25882 0.43559 0.81115 0.0
O14 O 0.19438 0.41509 0.81763 0.0
O15 O 0.24729 0.47403 0.94277 0.0
O16 O 0.27774 0.45982 0.02832 0.0
O17 O 0.22983 0.38324 0.93632 0.0
C18 C 0.15134 0.3776 0.03622 0.0
C19 C 0.27907 0.48094 0.97461 0.0
Zn20 Zn 0.78861 0.22124 0.41635 0.0
Zn21 Zn 0.80103 0.19625 0.2424 0.0
C22 C 0.73377 0.24154 0.4778 0.0
O23 O 0.7665 0.26959 0.50776 0.0
C24 C 0.88008 0.21355 0.24698 0.0
O25 O 0.86197 0.17576 0.2295 0.0
O26 O 0.81518 0.23399 0.51454 0.0
O27 O 0.77601 0.16491 0.39718 0.0
O28 O 0.77776 0.14294 0.28843 0.0
C29 C 0.79228 0.20769 0.55909 0.0
O30 O 0.75794 0.17909 0.53548 0.0
O31 O 0.73576 0.21772 0.43326 0.0
C32 C 0.81801 0.22105 0.09879 0.0
O33 O 0.83464 0.25533 0.13281 0.0
O34 O 0.79983 0.18926 0.13518 0.0
O35 O 0.77331 0.22739 0.26001 0.0
O36 O 0.81634 0.26537 0.34247 0.0
O37 O 0.8593 0.22917 0.26353 0.0
C38 C 0.77133 0.13693 0.35556 0.0
C39 C 0.79521 0.26157 0.28709 0.0
Zn40 Zn 0.57913 0.79511 0.74386 0.0
Zn41 Zn 0.59206 0.78529 0.57807 0.0
C42 C 0.50994 0.73243 0.79947 0.0
O43 O 0.50846 0.76371 0.82175 0.0
C44 C 0.65866 0.85987 0.55204 0.0
O45 O 0.66971 0.83601 0.52362 0.0
O46 O 0.58659 0.81694 0.846 0.0
O47 O 0.6326 0.79975 0.72153 0.0
O48 O 0.61721 0.75834 0.63 0.0
C49 C 0.59809 0.7991 0.88904 0.0
O50 O 0.60517 0.77193 0.86277 0.0
O51 O 0.53816 0.73731 0.75862 0.0
C52 C 0.58135 0.79788 0.43295 0.0
O53 O 0.5721 0.82182 0.46674 0.0
O54 O 0.59047 0.77605 0.47024 0.0
O55 O 0.53631 0.76784 0.60451 0.0
O56 O 0.55242 0.8177 0.67852 0.0
O57 O 0.62626 0.8448 0.58657 0.0
C58 C 0.63769 0.77453 0.68648 0.0
C59 C 0.52938 0.79399 0.63005 0.0
Zn60 Zn 0.78727 0.56912 0.0809 0.0
Zn61 Zn 0.80876 0.59442 0.91356 0.0
C62 C 0.77547 0.49027 0.081 0.0
O63 O 0.73832 0.48157 0.08219 0.0
C64 C 0.80406 0.66265 0.87768 0.0
O65 O 0.83732 0.67059 0.84615 0.0
O66 O 0.77411 0.56829 0.18548 0.0
O67 O 0.83569 0.62347 0.07093 0.0
O68 O 0.86031 0.61619 0.96908 0.0
C69 C 0.80148 0.57069 0.22669 0.0
O70 O 0.83338 0.57339 0.19756 0.0
O71 O 0.80263 0.52634 0.0758 0.0
C72 C 0.78886 0.58201 0.76876 0.0
O73 O 0.75528 0.57353 0.79956 0.0
O74 O 0.81944 0.59282 0.80819 0.0
O75 O 0.7652 0.53849 0.9312 0.0
O76 O 0.73759 0.55227 0.02088 0.0
O77 O 0.78685 0.63205 0.91756 0.0
C78 C 0.86532 0.63189 0.03132 0.0
C79 C 0.73423 0.53251 0.96398 0.0
Zn80 Zn 0.21465 0.78948 0.4107 0.0
Zn81 Zn 0.22106 0.81319 0.24446 0.0
C82 C 0.27667 0.77824 0.45152 0.0
O83 O 0.24468 0.74372 0.46196 0.0
C84 C 0.14542 0.8035 0.21456 0.0
O85 O 0.16862 0.83745 0.18264 0.0
O86 O 0.19465 0.77499 0.51295 0.0
O87 O 0.20775 0.83712 0.38814 0.0
O88 O 0.24982 0.86449 0.29921 0.0
C89 C 0.21073 0.80494 0.55506 0.0
O90 O 0.2354 0.83984 0.52786 0.0
O91 O 0.27273 0.80621 0.42461 0.0
C92 C 0.20896 0.79109 0.09938 0.0
O93 O 0.18532 0.75773 0.13265 0.0
O94 O 0.23037 0.82203 0.13712 0.0
O95 O 0.23838 0.77431 0.26776 0.0
O96 O 0.19098 0.74022 0.34511 0.0
O97 O 0.16122 0.78777 0.25265 0.0
C98 C 0.23399 0.86799 0.35637 0.0
C99 C 0.21314 0.74116 0.29394 0.0
Zn100 Zn 0.42606 0.21512 0.75305 0.0
Zn101 Zn 0.40934 0.21868 0.58415 0.0
C102 C 0.49344 0.27999 0.81153 0.0
O103 O 0.49509 0.24941 0.83736 0.0
C104 C 0.34184 0.14065 0.5725 0.0
O105 O 0.32546 0.16107 0.54934 0.0
O106 O 0.41778 0.19308 0.85426 0.0
O107 O 0.37145 0.20562 0.7243 0.0
O108 O 0.38788 0.24877 0.63681 0.0
C109 C 0.40191 0.20728 0.89558 0.0
O110 O 0.39121 0.23169 0.86831 0.0
O111 O 0.46527 0.27385 0.76845 0.0
C112 C 0.41368 0.20208 0.43905 0.0
O113 O 0.42357 0.1784 0.47221 0.0
O114 O 0.40619 0.22488 0.47675 0.0
O115 O 0.46595 0.2366 0.60377 0.0
O116 O 0.45532 0.19447 0.69215 0.0
O117 O 0.37687 0.15924 0.59816 0.0
C118 C 0.36779 0.23262 0.69293 0.0
C119 C 0.47582 0.21477 0.63862 0.0
H120 H 0.31016 0.19604 0.79478 0.0
H121 H 0.36918 0.30221 0.66541 0.0
H122 H 0.27215 0.22226 0.8545 0.0
H123 H 0.33141 0.32837 0.72555 0.0
H124 H 0.29208 0.38053 0.90633 0.0
H125 H 0.32887 0.35081 0.85554 0.0
H126 H 0.21946 0.24137 0.81825 0.0
H127 H 0.18237 0.27115 0.86848 0.0
C128 C 0.31485 0.22484 0.77881 0.0
C129 C 0.34267 0.24706 0.72532 0.0
C130 C 0.29308 0.23978 0.81297 0.0
C131 C 0.29914 0.27746 0.79508 0.0
C132 C 0.32655 0.29944 0.74103 0.0
C133 C 0.34789 0.28429 0.70616 0.0
C134 C 0.27584 0.3499 0.88856 0.0
C135 C 0.23425 0.32821 0.89121 0.0
C136 C 0.29692 0.33304 0.85887 0.0
C137 C 0.27694 0.29399 0.83222 0.0
C138 C 0.23557 0.27155 0.83845 0.0
C139 C 0.21438 0.2886 0.86717 0.0
H140 H 0.1328 0.32493 0.14704 0.0
H141 H 0.08143 0.37447 0.00226 0.0
H142 H 0.06909 0.28661 0.20695 0.0
H143 H 0.01777 0.33609 0.06237 0.0
H144 H 0.9218 0.29421 0.2326 0.0
H145 H 0.98862 0.33423 0.18516 0.0
H146 H 1.00103 0.23016 0.17512 0.0
H147 H 0.93422 0.19002 0.22252 0.0
C148 C 0.10789 0.32749 0.12772 0.0
C149 C 0.11215 0.35266 0.06968 0.0
C150 C 0.07143 0.30554 0.16208 0.0
C151 C 0.0386 0.30862 0.13967 0.0
C152 C 0.04277 0.3336 0.08145 0.0
C153 C 0.07911 0.35526 0.04659 0.0
C154 C 0.93905 0.27998 0.2217 0.0
C155 C 0.92266 0.23889 0.23103 0.0
C156 C 0.97714 0.30285 0.19383 0.0
C157 C 0.99978 0.28519 0.17561 0.0
C158 C 0.98427 0.24456 0.18881 0.0
C159 C 0.94602 0.2216 0.2159 0.0
H160 H 0.75439 0.06823 0.28419 0.0
H161 H 0.75686 0.11487 0.4974 0.0
H162 H 0.72968 1.00233 0.33606 0.0
H163 H 0.73232 0.04937 0.54873 0.0
H164 H 0.64124 0.91708 0.59306 0.0
H165 H 0.67024 0.98456 0.54671 0.0
H166 H 0.75143 0.96592 0.41756 0.0
H167 H 0.72242 0.89848 0.46339 0.0
C168 C 0.74979 0.06455 0.34203 0.0
C169 C 0.75728 0.09691 0.38642 0.0
C170 C 0.73583 0.02682 0.37177 0.0
C171 C 0.72892 0.02064 0.4465 0.0
C172 C 0.7368 0.05304 0.49087 0.0
C173 C 0.75094 0.09069 0.46128 0.0
C174 C 0.66565 0.92755 0.55559 0.0
C175 C 0.67944 0.90233 0.53187 0.0
C176 C 0.68228 0.96622 0.52904 0.0
C177 C 0.71289 0.98042 0.47794 0.0
C178 C 0.72747 0.95562 0.45598 0.0
C179 C 0.71104 0.91707 0.48283 0.0
H180 H 0.66284 0.72842 0.61909 0.0
H181 H 0.67693 0.79355 0.81685 0.0
H182 H 0.70576 0.70495 0.66863 0.0
H183 H 0.71852 0.76871 0.86693 0.0
H184 H 0.74162 0.66364 0.94363 0.0
H185 H 0.70398 0.69438 0.89822 0.0
H186 H 0.78123 0.73946 0.71412 0.0
H187 H 0.81935 0.70982 0.75979 0.0
C188 C 0.67506 0.73779 0.67297 0.0
C189 C 0.66603 0.76256 0.71418 0.0
C190 C 0.69964 0.72436 0.70124 0.0
C191 C 0.71511 0.73481 0.77175 0.0
C192 C 0.70659 0.75992 0.8127 0.0
C193 C 0.68277 0.77411 0.78386 0.0
C194 C 0.7509 0.68064 0.89411 0.0
C195 C 0.78351 0.68435 0.85546 0.0
C196 C 0.72942 0.69822 0.86822 0.0
C197 C 0.73966 0.71903 0.8025 0.0
C198 C 0.77263 0.72336 0.76468 0.0
C199 C 0.79456 0.70657 0.79121 0.0
H200 H 0.08697 0.73425 0.27389 0.0
H201 H 0.10755 0.82085 0.10868 0.0
H202 H 0.01846 0.69382 0.23112 0.0
H203 H 0.03957 0.78032 0.06589 0.0
H204 H 0.93482 0.66942 0.95589 0.0
H205 H 1.0016 0.71226 0.00413 0.0
H206 H 0.95434 0.69761 0.2194 0.0
H207 H 0.88757 0.65528 0.17142 0.0
C208 C 0.0768 0.74488 0.22911 0.0
C209 C 0.10277 0.7808 0.19481 0.0
C210 C 0.03761 0.72175 0.20467 0.0
C211 C 0.02382 0.73379 0.14476 0.0
C212 C 0.04951 0.77008 0.1116 0.0
C213 C 0.0884 0.79343 0.13662 0.0
C214 C 0.93863 0.67547 0.01343 0.0
C215 C 0.90582 0.65894 0.05968 0.0
C216 C 0.97684 0.7001 0.04101 0.0
C217 C 0.98314 0.70821 0.11556 0.0
C218 C 0.95039 0.69164 0.16183 0.0
C219 C 0.91214 0.66758 0.13415 0.0
H220 H 0.378 0.09605 0.56416 0.0
H221 H 0.26477 0.08938 0.53499 0.0
H222 H 0.35055 0.02937 0.51372 0.0
H223 H 0.23727 0.0224 0.48524 0.0
H224 H 0.19792 0.88775 0.46194 0.0
H225 H 0.22266 0.95216 0.52111 0.0
H226 H 0.32601 1.00187 0.38547 0.0
H227 H 0.30126 0.93771 0.32572 0.0
C228 C 0.34704 0.08008 0.54843 0.0
C229 C 0.32355 0.09805 0.55351 0.0
C230 C 0.33146 0.04204 0.51888 0.0
C231 C 0.29191 0.02091 0.49487 0.0
C232 C 0.26784 0.038 0.5034 0.0
C233 C 0.28359 0.07633 0.53188 0.0
C234 C 0.22578 0.91249 0.44434 0.0
C235 C 0.24758 0.9076 0.38893 0.0
C236 C 0.23989 0.94933 0.47824 0.0
C237 C 0.27638 0.9819 0.45828 0.0
C238 C 0.29801 0.97713 0.40256 0.0
C239 C 0.28365 0.94048 0.36791 0.0
H240 H 0.15841 0.38702 0.69375 0.0
H241 H 0.28573 0.45966 0.6843 0.0
H242 H 0.1551 0.38411 0.56205 0.0
H243 H 0.28245 0.4583 0.55295 0.0
H244 H 0.26746 0.42012 0.31732 0.0
H245 H 0.27019 0.41811 0.44921 0.0
H246 H 0.16249 0.42398 0.46138 0.0
H247 H 0.15896 0.42422 0.33058 0.0
C248 C 0.18563 0.40267 0.66347 0.0
C249 C 0.22228 0.4236 0.69927 0.0
C250 C 0.18379 0.40117 0.58795 0.0
C251 C 0.21853 0.42105 0.5466 0.0
C252 C 0.25516 0.44203 0.58278 0.0
C253 C 0.25702 0.44308 0.6582 0.0
C254 C 0.24435 0.42079 0.3484 0.0
C255 C 0.21298 0.42221 0.31359 0.0
C256 C 0.24597 0.41987 0.42397 0.0
C257 C 0.21649 0.42082 0.46618 0.0
C258 C 0.18525 0.42235 0.43092 0.0
C259 C 0.1834 0.42278 0.35568 0.0
H260 H 0.84162 0.28246 0.00427 0.0
H261 H 0.79985 0.15675 0.01409 0.0
H262 H 0.84095 0.27943 0.87265 0.0
H263 H 0.80055 0.15396 0.88264 0.0
H264 H 0.74869 0.15386 0.66103 0.0
H265 H 0.75997 0.15777 0.79 0.0
H266 H 0.86912 0.26888 0.76383 0.0
H267 H 0.85702 0.26554 0.63308 0.0
C268 C 0.83281 0.25428 0.97829 0.0
C269 C 0.82015 0.2197 0.01937 0.0
C270 C 0.83278 0.25263 0.90286 0.0
C271 C 0.8204 0.2164 0.86711 0.0
C272 C 0.80948 0.18219 0.90851 0.0
C273 C 0.80912 0.18377 0.98381 0.0
C274 C 0.77529 0.17911 0.68236 0.0
C275 C 0.80186 0.20957 0.63681 0.0
C276 C 0.78196 0.18113 0.75655 0.0
C277 C 0.81554 0.21354 0.78733 0.0
C278 C 0.84276 0.24368 0.74171 0.0
C279 C 0.83599 0.2417 0.66694 0.0
H280 H 0.58849 0.74592 0.3431 0.0
H281 H 0.57977 0.85226 0.34237 0.0
H282 H 0.59333 0.74857 0.21167 0.0
H283 H 0.58623 0.85593 0.21155 0.0
H284 H 0.55775 0.82627 0.96978 0.0
H285 H 0.55324 0.82615 0.10152 0.0
H286 H 0.63732 0.78472 0.11784 0.0
H287 H 0.64043 0.78339 0.98675 0.0
C288 C 0.58781 0.76996 0.31488 0.0
C289 C 0.58366 0.79878 0.35312 0.0
C290 C 0.59091 0.77172 0.23952 0.0
C291 C 0.59044 0.80265 0.20074 0.0
C292 C 0.58615 0.83139 0.23926 0.0
C293 C 0.58262 0.82936 0.31446 0.0
C294 C 0.57562 0.81769 0.00177 0.0
C295 C 0.5993 0.8047 0.96814 0.0
C296 C 0.57308 0.81758 0.07729 0.0
C297 C 0.59454 0.8049 0.12056 0.0
C298 C 0.61953 0.79362 0.08646 0.0
C299 C 0.62165 0.79325 0.01124 0.0
H300 H 0.7269 0.54709 0.67445 0.0
H301 H 0.85478 0.61175 0.68437 0.0
H302 H 0.72925 0.54334 0.54349 0.0
H303 H 0.8572 0.60922 0.55291 0.0
H304 H 0.84791 0.56152 0.3259 0.0
H305 H 0.84434 0.56333 0.45678 0.0
H306 H 0.7454 0.58384 0.43782 0.0
H307 H 0.74815 0.58062 0.30636 0.0
C308 C 0.75554 0.56073 0.64854 0.0
C309 C 0.79069 0.57966 0.68955 0.0
C310 C 0.75687 0.5588 0.57343 0.0
C311 C 0.79339 0.57605 0.53769 0.0
C312 C 0.82857 0.59508 0.57886 0.0
C313 C 0.82723 0.59669 0.65411 0.0
C314 C 0.82533 0.56635 0.34964 0.0
C315 C 0.79834 0.57102 0.30596 0.0
C316 C 0.82346 0.56764 0.4247 0.0
C317 C 0.79479 0.57401 0.4578 0.0
C318 C 0.76757 0.57841 0.41403 0.0
C319 C 0.76921 0.57674 0.33877 0.0
H320 H 0.22465 0.86315 0.6512 0.0
H321 H 0.18552 0.73815 0.63739 0.0
H322 H 0.22262 0.85925 0.78236 0.0
H323 H 0.18491 0.73439 0.76925 0.0
H324 H 0.15585 0.73465 0.00746 0.0
H325 H 0.15317 0.73716 0.87635 0.0
H326 H 0.25889 0.8527 0.87923 0.0
H327 H 0.26058 0.85075 0.01091 0.0
C328 C 0.21553 0.83476 0.67636 0.0
C329 C 0.20534 0.80096 0.63412 0.0
C330 C 0.21473 0.8326 0.75163 0.0
C331 C 0.20419 0.79666 0.78664 0.0
C332 C 0.19286 0.76251 0.74421 0.0
C333 C 0.19322 0.76461 0.66864 0.0
C334 C 0.17858 0.76059 0.98012 0.0
C335 C 0.20846 0.79256 0.01956 0.0
C336 C 0.17713 0.76193 0.90479 0.0
C337 C 0.20574 0.79513 0.86696 0.0
C338 C 0.23589 0.82695 0.90655 0.0
C339 C 0.23709 0.82577 0.98204 0.0
H340 H 0.40495 0.25368 0.35088 0.0
H341 H 0.41481 0.14795 0.34724 0.0
H342 H 0.40035 0.25199 0.21933 0.0
H343 H 0.40881 0.14541 0.21609 0.0
H344 H 0.44263 0.18103 0.97833 0.0
H345 H 0.44453 0.17863 0.11008 0.0
H346 H 0.35709 0.21579 0.12192 0.0
H347 H 0.35633 0.21948 0.99071 0.0
C348 C 0.40583 0.22993 0.322 0.0
C349 C 0.41038 0.20107 0.35939 0.0
C350 C 0.40292 0.22875 0.2466 0.0
C351 C 0.40408 0.19845 0.207 0.0
C352 C 0.40839 0.16947 0.24466 0.0
C353 C 0.41165 0.17085 0.31995 0.0
C354 C 0.42349 0.18817 0.0092 0.0
C355 C 0.39952 0.20066 0.97436 0.0
C356 C 0.4245 0.18676 0.08471 0.0
C357 C 0.40128 0.19746 0.12674 0.0
C358 C 0.37609 0.2083 0.09141 0.0
C359 C 0.37539 0.21009 0.01615 0.0
H360 H 0.29215 0.58667 0.13984 0.0
H361 H 0.16594 0.5057 0.14353 0.0
H362 H 0.28189 0.6402 0.18022 0.0
H363 H 0.15561 0.55999 0.18435 0.0
H364 H 0.17126 0.6643 0.34514 0.0
H365 H 0.17301 0.60609 0.29801 0.0
H366 H 0.25142 0.67805 0.12823 0.0
H367 H 0.24998 0.7355 0.17454 0.0
C368 C 0.26212 0.58036 0.14879 0.0
C369 C 0.22985 0.54201 0.13818 0.0
C370 C 0.25624 0.6111 0.17177 0.0
C371 C 0.21793 0.6043 0.1853 0.0
C372 C 0.18546 0.56597 0.17463 0.0
C373 C 0.19134 0.53508 0.15064 0.0
C374 C 0.18855 0.66747 0.29744 0.0
C375 C 0.21097 0.70469 0.26441 0.0
C376 C 0.18938 0.63418 0.2703 0.0
C377 C 0.21274 0.63772 0.20996 0.0
C378 C 0.23372 0.67455 0.17552 0.0
C379 C 0.23286 0.70752 0.20229 0.0
H380 H 0.7179 0.27139 0.59816 0.0
H381 H 0.66191 0.19734 0.41092 0.0
H382 H 0.65365 0.26019 0.63871 0.0
H383 H 0.59763 0.18652 0.45144 0.0
H384 H 0.50769 0.22975 0.50463 0.0
H385 H 0.56884 0.23291 0.46642 0.0
H386 H 0.58632 0.20138 0.68179 0.0
H387 H 0.52438 0.19768 0.72028 0.0
C388 C 0.6919 0.25284 0.56553 0.0
C389 C 0.69495 0.23543 0.50108 0.0
C390 C 0.65512 0.24612 0.58921 0.0
C391 C 0.62075 0.22235 0.54837 0.0
C392 C 0.62375 0.20502 0.48382 0.0
C393 C 0.66048 0.21123 0.46068 0.0
C394 C 0.52434 0.22312 0.54379 0.0
C395 C 0.51138 0.21358 0.61555 0.0
C396 C 0.55922 0.22472 0.52171 0.0
C397 C 0.58225 0.21745 0.57117 0.0
C398 C 0.56909 0.20729 0.64275 0.0
C399 C 0.53366 0.20496 0.66463 0.0
H400 H 0.34899 0.52283 0.04982 0.0
H401 H 0.29463 0.51422 0.84117 0.0
H402 H 0.40967 0.58149 0.00812 0.0
H403 H 0.35523 0.57165 0.79947 0.0
H404 H 0.48367 0.66009 0.7346 0.0
H405 H 0.43134 0.59537 0.77814 0.0
H406 H 0.41911 0.65154 0.96974 0.0
H407 H 0.4704 0.71589 0.92595 0.0
C408 C 0.35025 0.53296 0.99484 0.0
C409 C 0.31705 0.51403 0.94888 0.0
C410 C 0.38485 0.56642 0.97108 0.0
C411 C 0.38704 0.58079 0.9005 0.0
C412 C 0.35445 0.56085 0.85377 0.0
C413 C 0.31969 0.52811 0.87792 0.0
C414 C 0.46997 0.65841 0.78623 0.0
C415 C 0.48064 0.69292 0.82652 0.0
C416 C 0.44017 0.62154 0.81108 0.0
C417 C 0.42146 0.61863 0.87738 0.0
C418 C 0.43338 0.65296 0.91886 0.0
C419 C 0.46241 0.68977 0.89338 0.0
H420 H 0.7333 0.26327 0.22375 0.0
H421 H 0.85707 0.33757 0.27633 0.0
H422 H 0.73202 0.31924 0.16937 0.0
H423 H 0.85709 0.39354 0.21665 0.0
H424 H 0.8322 0.49553 0.17415 0.0
H425 H 0.83903 0.441 0.22219 0.0
H426 H 0.74783 0.36039 0.07364 0.0
H427 H 0.73904 0.41463 0.03085 0.0
C428 C 0.76046 0.29167 0.22265 0.0
C429 C 0.79522 0.29619 0.25447 0.0
C430 C 0.75996 0.32386 0.19053 0.0
C431 C 0.7946 0.36132 0.18726 0.0
C432 C 0.82959 0.36558 0.2188 0.0
C433 C 0.82974 0.33348 0.25286 0.0
C434 C 0.81415 0.46617 0.1512 0.0
C435 C 0.78505 0.45912 0.09902 0.0
C436 C 0.81804 0.43474 0.1786 0.0
C437 C 0.79353 0.39569 0.15307 0.0
C438 C 0.76631 0.38952 0.09698 0.0
C439 C 0.7616 0.4207 0.07138 0.0
H440 H 0.29346 0.72095 0.48902 0.0
H441 H 0.34786 0.84806 0.46725 0.0
H442 H 0.35576 0.72847 0.5319 0.0
H443 H 0.41111 0.85556 0.51035 0.0
H444 H 0.50089 0.84319 0.67278 0.0
H445 H 0.44139 0.84292 0.62678 0.0
H446 H 0.42114 0.74968 0.47649 0.0
H447 H 0.4795 0.74963 0.5218 0.0
C448 C 0.31881 0.75059 0.49306 0.0
C449 C 0.31569 0.7839 0.47429 0.0
C450 C 0.35462 0.75486 0.5175 0.0
C451 C 0.38841 0.79259 0.52418 0.0
C452 C 0.38547 0.82613 0.50602 0.0
C453 C 0.34943 0.82181 0.48079 0.0
C454 C 0.48375 0.82281 0.62975 0.0
C455 C 0.49471 0.79606 0.60181 0.0
C456 C 0.44988 0.82283 0.60316 0.0
C457 C 0.4264 0.79596 0.54857 0.0
C458 C 0.4382 0.77025 0.51941 0.0
C459 C 0.47179 0.77029 0.54555 0.0
H460 H 0.66494 0.49542 0.04042 0.0
H461 H 0.71524 0.49491 0.83321 0.0
H462 H 0.6024 0.43732 0.0031 0.0
H463 H 0.65266 0.43768 0.79579 0.0
H464 H 0.52208 0.34988 0.73663 0.0
H465 H 0.57746 0.41507 0.77279 0.0
H466 H 0.58778 0.36553 0.97505 0.0
H467 H 0.53346 0.30078 0.93869 0.0
C468 C 0.66248 0.48341 0.98659 0.0
C469 C 0.69513 0.49971 0.93993 0.0
C470 C 0.62674 0.45017 0.96532 0.0
C471 C 0.62272 0.43316 0.89648 0.0
C472 C 0.65479 0.45048 0.84879 0.0
C473 C 0.6907 0.48314 0.8705 0.0
C474 C 0.53594 0.3532 0.78909 0.0
C475 C 0.52375 0.32031 0.83463 0.0
C476 C 0.56759 0.39034 0.80965 0.0
C477 C 0.58677 0.39527 0.87679 0.0
C478 C 0.57332 0.36269 0.92337 0.0
C479 C 0.54242 0.32557 0.90225 0.0
loop_
_geom_bond_atom_site_label_1
_geom_bond_atom_site_label_2
_geom_bond_distance
_geom_bond_site_symmetry_2
_ccdc_geom_bond_type
Zn0 O6 1.969 . S
Zn0 O7 1.965 . S
Zn0 O11 2.024 . S
Zn0 O16 1.969 . S
Zn1 O8 1.969 . S
Zn1 O14 1.969 . S
Zn1 O15 1.965 . S
Zn1 O17 2.024 . S
C2 O3 1.229 . S
C2 O11 1.058 . S
O3 C2 1.229 . S
C4 O5 1.229 . S
C4 O17 1.058 . S
O5 C4 1.229 . S
O6 Zn0 1.969 . S
O6 C9 1.267 . S
O7 Zn0 1.965 . S
O7 C18 1.260 . S
O8 Zn1 1.969 . S
O8 C18 1.258 1_556 S
C9 O6 1.267 . S
C9 O10 1.228 . S
O10 C9 1.228 . S
O11 Zn0 2.024 . S
O11 C2 1.058 . S
C12 O13 1.228 . S
C12 O14 1.267 . S
O13 C12 1.228 . S
O14 Zn1 1.969 . S
O14 C12 1.267 . S
O15 Zn1 1.965 . S
O15 C19 1.260 . S
O16 Zn0 1.969 . S
O16 C19 1.258 1_554 S
O17 Zn1 2.024 . S
O17 C4 1.058 . S
C18 O7 1.260 . S
C18 O8 1.258 1_554 S
C19 O15 1.260 . S
C19 O16 1.258 1_556 S
Zn20 O26 1.969 . S
Zn20 O27 1.965 . S
Zn20 O31 2.024 . S
Zn20 O36 1.969 . S
Zn21 O28 1.969 . S
Zn21 O34 1.969 . S
Zn21 O35 1.965 . S
Zn21 O37 2.024 . S
C22 O23 1.229 . S
C22 O31 1.058 . S
O23 C22 1.229 . S
C24 O25 1.229 . S
C24 O37 1.058 . S
O25 C24 1.229 . S
O26 Zn20 1.969 . S
O26 C29 1.267 . S
O27 Zn20 1.965 . S
O27 C38 1.260 . S
O28 Zn21 1.969 . S
O28 C38 1.258 . S
C29 O26 1.267 . S
C29 O30 1.228 . S
O30 C29 1.228 . S
O31 Zn20 2.024 . S
O31 C22 1.058 . S
C32 O33 1.228 . S
C32 O34 1.267 . S
O33 C32 1.228 . S
O34 Zn21 1.969 . S
O34 C32 1.267 . S
O35 Zn21 1.965 . S
O35 C39 1.260 . S
O36 Zn20 1.969 . S
O36 C39 1.258 . S
O37 Zn21 2.024 . S
O37 C24 1.058 . S
C38 O27 1.260 . S
C38 O28 1.258 . S
C39 O35 1.260 . S
C39 O36 1.258 . S
Zn40 O46 1.969 . S
Zn40 O47 1.965 . S
Zn40 O51 2.024 . S
Zn40 O56 1.969 . S
Zn41 O48 1.969 . S
Zn41 O54 1.969 . S
Zn41 O55 1.965 . S
Zn41 O57 2.024 . S
C42 O43 1.229 . S
C42 O51 1.058 . S
O43 C42 1.229 . S
C44 O45 1.229 . S
C44 O57 1.058 . S
O45 C44 1.229 . S
O46 Zn40 1.969 . S
O46 C49 1.267 . S
O47 Zn40 1.965 . S
O47 C58 1.260 . S
O48 Zn41 1.969 . S
O48 C58 1.258 . S
C49 O46 1.267 . S
C49 O50 1.228 . S
O50 C49 1.228 . S
O51 Zn40 2.024 . S
O51 C42 1.058 . S
C52 O53 1.228 . S
C52 O54 1.267 . S
O53 C52 1.228 . S
O54 Zn41 1.969 . S
O54 C52 1.267 . S
O55 Zn41 1.965 . S
O55 C59 1.260 . S
O56 Zn40 1.969 . S
O56 C59 1.258 . S
O57 Zn41 2.024 . S
O57 C44 1.058 . S
C58 O47 1.260 . S
C58 O48 1.258 . S
C59 O55 1.260 . S
C59 O56 1.258 . S
Zn60 O66 1.969 . S
Zn60 O67 1.965 . S
Zn60 O71 2.024 . S
Zn60 O76 1.969 . S
Zn61 O68 1.969 . S
Zn61 O74 1.969 . S
Zn61 O75 1.965 . S
Zn61 O77 2.024 . S
C62 O63 1.229 . S
C62 O71 1.058 . S
O63 C62 1.229 . S
C64 O65 1.229 . S
C64 O77 1.058 . S
O65 C64 1.229 . S
O66 Zn60 1.969 . S
O66 C69 1.267 . S
O67 Zn60 1.965 . S
O67 C78 1.260 . S
O68 Zn61 1.969 . S
O68 C78 1.258 1_556 S
C69 O66 1.267 . S
C69 O70 1.228 . S
O70 C69 1.228 . S
O71 Zn60 2.024 . S
O71 C62 1.058 . S
C72 O73 1.228 . S
C72 O74 1.267 . S
O73 C72 1.228 . S
O74 Zn61 1.969 . S
O74 C72 1.267 . S
O75 Zn61 1.965 . S
O75 C79 1.260 . S
O76 Zn60 1.969 . S
O76 C79 1.258 1_554 S
O77 Zn61 2.024 . S
O77 C64 1.058 . S
C78 O67 1.260 . S
C78 O68 1.258 1_554 S
C79 O75 1.260 . S
C79 O76 1.258 1_556 S
Zn80 O86 1.969 . S
Zn80 O87 1.965 . S
Zn80 O91 2.024 . S
Zn80 O96 1.969 . S
Zn81 O88 1.969 . S
Zn81 O94 1.969 . S
Zn81 O95 1.965 . S
Zn81 O97 2.024 . S
C82 O83 1.229 . S
C82 O91 1.058 . S
O83 C82 1.229 . S
C84 O85 1.229 . S
C84 O97 1.058 . S
O85 C84 1.229 . S
O86 Zn80 1.969 . S
O86 C89 1.267 . S
O87 Zn80 1.965 . S
O87 C98 1.260 . S
O88 Zn81 1.969 . S
O88 C98 1.258 . S
C89 O86 1.267 . S
C89 O90 1.228 . S
O90 C89 1.228 . S
O91 Zn80 2.024 . S
O91 C82 1.058 . S
C92 O93 1.228 . S
C92 O94 1.267 . S
O93 C92 1.228 . S
O94 Zn81 1.969 . S
O94 C92 1.267 . S
O95 Zn81 1.965 . S
O95 C99 1.260 . S
O96 Zn80 1.969 . S
O96 C99 1.258 . S
O97 Zn81 2.024 . S
O97 C84 1.058 . S
C98 O87 1.260 . S
C98 O88 1.258 . S
C99 O95 1.260 . S
C99 O96 1.258 . S
Zn100 O106 1.969 . S
Zn100 O107 1.965 . S
Zn100 O111 2.024 . S
Zn100 O116 1.969 . S
Zn101 O108 1.969 . S
Zn101 O114 1.969 . S
Zn101 O115 1.965 . S
Zn101 O117 2.024 . S
C102 O103 1.229 . S
C102 O111 1.058 . S
O103 C102 1.229 . S
C104 O105 1.229 . S
C104 O117 1.058 . S
O105 C104 1.229 . S
O106 Zn100 1.969 . S
O106 C109 1.267 . S
O107 Zn100 1.965 . S
O107 C118 1.260 . S
O108 Zn101 1.969 . S
O108 C118 1.258 . S
C109 O106 1.267 . S
C109 O110 1.228 . S
O110 C109 1.228 . S
O111 Zn100 2.024 . S
O111 C102 1.058 . S
C112 O113 1.228 . S
C112 O114 1.267 . S
O113 C112 1.228 . S
O114 Zn101 1.969 . S
O114 C112 1.267 . S
O115 Zn101 1.965 . S
O115 C119 1.260 . S
O116 Zn100 1.969 . S
O116 C119 1.258 . S
O117 Zn101 2.024 . S
O117 C104 1.058 . S
C118 O107 1.260 . S
C118 O108 1.258 . S
C119 O115 1.260 . S
C119 O116 1.258 . S
H120 C128 0.950 . S
H121 C133 0.950 . S
H122 C130 0.950 . S
H123 C132 0.950 . S
H124 C134 0.950 . S
H125 C136 0.950 . S
H126 C138 0.950 . S
H127 C139 0.950 . S
C128 H120 0.950 . S
C128 C129 1.386 . S
C128 C130 1.391 . S
C129 C128 1.386 . S
C129 C133 1.393 . S
C130 H122 0.950 . S
C130 C128 1.391 . S
C130 C131 1.400 . S
C131 C130 1.400 . S
C131 C132 1.398 . S
C131 C137 1.491 . S
C132 H123 0.950 . S
C132 C131 1.398 . S
C132 C133 1.391 . S
C133 H121 0.950 . S
C133 C129 1.393 . S
C133 C132 1.391 . S
C134 H124 0.950 . S
C134 C135 1.386 . S
C134 C136 1.391 . S
C135 C134 1.386 . S
C135 C139 1.393 . S
C136 H125 0.950 . S
C136 C134 1.391 . S
C136 C137 1.400 . S
C137 C131 1.491 . S
C137 C136 1.400 . S
C137 C138 1.398 . S
C138 H126 0.950 . S
C138 C137 1.398 . S
C138 C139 1.391 . S
C139 H127 0.950 . S
C139 C135 1.393 . S
C139 C138 1.391 . S
H140 C148 0.950 1_556 S
H141 C153 0.950 . S
H142 C150 0.950 . S
H143 C152 0.950 . S
H144 C154 0.950 . S
H145 C156 0.950 1_455 S
H146 C158 0.950 . S
H147 C159 0.950 . S
C148 H140 0.950 1_554 S
C148 C149 1.386 . S
C148 C150 1.391 . S
C149 C148 1.386 . S
C149 C153 1.393 . S
C150 H142 0.950 . S
C150 C148 1.391 . S
C150 C151 1.400 . S
C151 C150 1.400 . S
C151 C152 1.398 . S
C151 C157 1.491 . S
C152 H143 0.950 . S
C152 C151 1.398 . S
C152 C153 1.391 . S
C153 H141 0.950 . S
C153 C149 1.393 . S
C153 C152 1.391 . S
C154 H144 0.950 . S
C154 C155 1.386 . S
C154 C156 1.391 . S
C155 C154 1.386 . S
C155 C159 1.393 . S
C156 H145 0.950 1_655 S
C156 C154 1.391 . S
C156 C157 1.400 1_655 S
C157 C151 1.491 . S
C157 C156 1.400 1_455 S
C157 C158 1.398 1_455 S
C158 H146 0.950 . S
C158 C157 1.398 1_655 S
C158 C159 1.391 . S
C159 H147 0.950 . S
C159 C155 1.393 . S
C159 C158 1.391 . S
H160 C168 0.950 . S
H161 C173 0.950 . S
H162 C170 0.950 . S
H163 C172 0.950 . S
H164 C174 0.950 . S
H165 C176 0.950 1_545 S
H166 C178 0.950 . S
H167 C179 0.950 . S
C168 H160 0.950 . S
C168 C169 1.386 . S
C168 C170 1.391 . S
C169 C168 1.386 . S
C169 C173 1.393 . S
C170 H162 0.950 . S
C170 C168 1.391 . S
C170 C171 1.400 . S
C171 C170 1.400 . S
C171 C172 1.398 . S
C171 C177 1.491 . S
C172 H163 0.950 . S
C172 C171 1.398 . S
C172 C173 1.391 . S
C173 H161 0.950 . S
C173 C169 1.393 . S
C173 C172 1.391 . S
C174 H164 0.950 . S
C174 C175 1.386 . S
C174 C176 1.391 . S
C175 C174 1.386 . S
C175 C179 1.393 . S
C176 H165 0.950 1_565 S
C176 C174 1.391 . S
C176 C177 1.400 1_565 S
C177 C171 1.491 . S
C177 C176 1.400 1_545 S
C177 C178 1.398 1_545 S
C178 H166 0.950 . S
C178 C177 1.398 1_565 S
C178 C179 1.391 . S
C179 H167 0.950 . S
C179 C175 1.393 . S
C179 C178 1.391 . S
H180 C188 0.950 . S
H181 C193 0.950 . S
H182 C190 0.950 . S
H183 C192 0.950 . S
H184 C194 0.950 . S
H185 C196 0.950 . S
H186 C198 0.950 . S
H187 C199 0.950 . S
C188 H180 0.950 . S
C188 C189 1.386 . S
C188 C190 1.391 . S
C189 C188 1.386 . S
C189 C193 1.393 . S
C190 H182 0.950 . S
C190 C188 1.391 . S
C190 C191 1.400 . S
C191 C190 1.400 . S
C191 C192 1.398 . S
C191 C197 1.491 . S
C192 H183 0.950 . S
C192 C191 1.398 . S
C192 C193 1.391 . S
C193 H181 0.950 . S
C193 C189 1.393 . S
C193 C192 1.391 . S
C194 H184 0.950 . S
C194 C195 1.386 . S
C194 C196 1.391 . S
C195 C194 1.386 . S
C195 C199 1.393 . S
C196 H185 0.950 . S
C196 C194 1.391 . S
C196 C197 1.400 . S
C197 C191 1.491 . S
C197 C196 1.400 . S
C197 C198 1.398 . S
C198 H186 0.950 . S
C198 C197 1.398 . S
C198 C199 1.391 . S
C199 H187 0.950 . S
C199 C195 1.393 . S
C199 C198 1.391 . S
H200 C208 0.950 . S
H201 C213 0.950 . S
H202 C210 0.950 1_655 S
H203 C212 0.950 . S
H204 C214 0.950 1_556 S
H205 C216 0.950 . S
H206 C218 0.950 . S
H207 C219 0.950 . S
C208 H200 0.950 . S
C208 C209 1.386 . S
C208 C210 1.391 . S
C209 C208 1.386 . S
C209 C213 1.393 . S
C210 H202 0.950 1_455 S
C210 C208 1.391 . S
C210 C211 1.400 1_455 S
C211 C210 1.400 1_655 S
C211 C212 1.398 1_655 S
C211 C217 1.491 . S
C212 H203 0.950 . S
C212 C211 1.398 1_455 S
C212 C213 1.391 . S
C213 H201 0.950 . S
C213 C209 1.393 . S
C213 C212 1.391 . S
C214 H204 0.950 1_554 S
C214 C215 1.386 . S
C214 C216 1.391 . S
C215 C214 1.386 . S
C215 C219 1.393 . S
C216 H205 0.950 . S
C216 C214 1.391 . S
C216 C217 1.400 . S
C217 C211 1.491 . S
C217 C216 1.400 . S
C217 C218 1.398 . S
C218 H206 0.950 . S
C218 C217 1.398 . S
C218 C219 1.391 . S
C219 H207 0.950 . S
C219 C215 1.393 . S
C219 C218 1.391 . S
H220 C228 0.950 . S
H221 C233 0.950 . S
H222 C230 0.950 . S
H223 C232 0.950 . S
H224 C234 0.950 . S
H225 C236 0.950 . S
H226 C238 0.950 . S
H227 C239 0.950 . S
C228 H220 0.950 . S
C228 C229 1.386 . S
C228 C230 1.391 . S
C229 C228 1.386 . S
C229 C233 1.393 . S
C230 H222 0.950 . S
C230 C228 1.391 . S
C230 C231 1.400 1_545 S
C231 C230 1.400 1_565 S
C231 C232 1.398 1_565 S
C231 C237 1.491 . S
C232 H223 0.950 . S
C232 C231 1.398 1_545 S
C232 C233 1.391 . S
C233 H221 0.950 . S
C233 C229 1.393 . S
C233 C232 1.391 . S
C234 H224 0.950 . S
C234 C235 1.386 . S
C234 C236 1.391 . S
C235 C234 1.386 . S
C235 C239 1.393 . S
C236 H225 0.950 . S
C236 C234 1.391 . S
C236 C237 1.400 . S
C237 C231 1.491 . S
C237 C236 1.400 . S
C237 C238 1.398 . S
C238 H226 0.950 . S
C238 C237 1.398 . S
C238 C239 1.391 . S
C239 H227 0.950 . S
C239 C235 1.393 . S
C239 C238 1.391 . S
H240 C248 0.950 . S
H241 C253 0.950 . S
H242 C250 0.950 . S
H243 C252 0.950 . S
H244 C254 0.950 . S
H245 C256 0.950 . S
H246 C258 0.950 . S
H247 C259 0.950 . S
C248 H240 0.950 . S
C248 C249 1.386 . S
C248 C250 1.391 . S
C249 C248 1.386 . S
C249 C253 1.393 . S
C250 H242 0.950 . S
C250 C248 1.391 . S
C250 C251 1.400 . S
C251 C250 1.400 . S
C251 C252 1.398 . S
C251 C257 1.491 . S
C252 H243 0.950 . S
C252 C251 1.398 . S
C252 C253 1.391 . S
C253 H241 0.950 . S
C253 C249 1.393 . S
C253 C252 1.391 . S
C254 H244 0.950 . S
C254 C255 1.386 . S
C254 C256 1.391 . S
C255 C254 1.386 . S
C255 C259 1.393 . S
C256 H245 0.950 . S
C256 C254 1.391 . S
C256 C257 1.400 . S
C257 C251 1.491 . S
C257 C256 1.400 . S
C257 C258 1.398 . S
C258 H246 0.950 . S
C258 C257 1.398 . S
C258 C259 1.391 . S
C259 H247 0.950 . S
C259 C255 1.393 . S
C259 C258 1.391 . S
H260 C268 0.950 1_554 S
H261 C273 0.950 1_554 S
H262 C270 0.950 . S
H263 C272 0.950 . S
H264 C274 0.950 . S
H265 C276 0.950 . S
H266 C278 0.950 . S
H267 C279 0.950 . S
C268 H260 0.950 1_556 S
C268 C269 1.386 1_556 S
C268 C270 1.391 . S
C269 C268 1.386 1_554 S
C269 C273 1.393 1_554 S
C270 H262 0.950 . S
C270 C268 1.391 . S
C270 C271 1.400 . S
C271 C270 1.400 . S
C271 C272 1.398 . S
C271 C277 1.491 . S
C272 H263 0.950 . S
C272 C271 1.398 . S
C272 C273 1.391 . S
C273 H261 0.950 1_556 S
C273 C269 1.393 1_556 S
C273 C272 1.391 . S
C274 H264 0.950 . S
C274 C275 1.386 . S
C274 C276 1.391 . S
C275 C274 1.386 . S
C275 C279 1.393 . S
C276 H265 0.950 . S
C276 C274 1.391 . S
C276 C277 1.400 . S
C277 C271 1.491 . S
C277 C276 1.400 . S
C277 C278 1.398 . S
C278 H266 0.950 . S
C278 C277 1.398 . S
C278 C279 1.391 . S
C279 H267 0.950 . S
C279 C275 1.393 . S
C279 C278 1.391 . S
H280 C288 0.950 . S
H281 C293 0.950 . S
H282 C290 0.950 . S
H283 C292 0.950 . S
H284 C294 0.950 . S
H285 C296 0.950 . S
H286 C298 0.950 . S
H287 C299 0.950 1_556 S
C288 H280 0.950 . S
C288 C289 1.386 . S
C288 C290 1.391 . S
C289 C288 1.386 . S
C289 C293 1.393 . S
C290 H282 0.950 . S
C290 C288 1.391 . S
C290 C291 1.400 . S
C291 C290 1.400 . S
C291 C292 1.398 . S
C291 C297 1.491 . S
C292 H283 0.950 . S
C292 C291 1.398 . S
C292 C293 1.391 . S
C293 H281 0.950 . S
C293 C289 1.393 . S
C293 C292 1.391 . S
C294 H284 0.950 . S
C294 C295 1.386 1_554 S
C294 C296 1.391 . S
C295 C294 1.386 1_556 S
C295 C299 1.393 1_556 S
C296 H285 0.950 . S
C296 C294 1.391 . S
C296 C297 1.400 . S
C297 C291 1.491 . S
C297 C296 1.400 . S
C297 C298 1.398 . S
C298 H286 0.950 . S
C298 C297 1.398 . S
C298 C299 1.391 . S
C299 H287 0.950 1_554 S
C299 C295 1.393 1_554 S
C299 C298 1.391 . S
H300 C308 0.950 . S
H301 C313 0.950 . S
H302 C310 0.950 . S
H303 C312 0.950 . S
H304 C314 0.950 . S
H305 C316 0.950 . S
H306 C318 0.950 . S
H307 C319 0.950 . S
C308 H300 0.950 . S
C308 C309 1.386 . S
C308 C310 1.391 . S
C309 C308 1.386 . S
C309 C313 1.393 . S
C310 H302 0.950 . S
C310 C308 1.391 . S
C310 C311 1.400 . S
C311 C310 1.400 . S
C311 C312 1.398 . S
C311 C317 1.491 . S
C312 H303 0.950 . S
C312 C311 1.398 . S
C312 C313 1.391 . S
C313 H301 0.950 . S
C313 C309 1.393 . S
C313 C312 1.391 . S
C314 H304 0.950 . S
C314 C315 1.386 . S
C314 C316 1.391 . S
C315 C314 1.386 . S
C315 C319 1.393 . S
C316 H305 0.950 . S
C316 C314 1.391 . S
C316 C317 1.400 . S
C317 C311 1.491 . S
C317 C316 1.400 . S
C317 C318 1.398 . S
C318 H306 0.950 . S
C318 C317 1.398 . S
C318 C319 1.391 . S
C319 H307 0.950 . S
C319 C315 1.393 . S
C319 C318 1.391 . S
H320 C328 0.950 . S
H321 C333 0.950 . S
H322 C330 0.950 . S
H323 C332 0.950 . S
H324 C334 0.950 1_554 S
H325 C336 0.950 . S
H326 C338 0.950 . S
H327 C339 0.950 1_554 S
C328 H320 0.950 . S
C328 C329 1.386 . S
C328 C330 1.391 . S
C329 C328 1.386 . S
C329 C333 1.393 . S
C330 H322 0.950 . S
C330 C328 1.391 . S
C330 C331 1.400 . S
C331 C330 1.400 . S
C331 C332 1.398 . S
C331 C337 1.491 . S
C332 H323 0.950 . S
C332 C331 1.398 . S
C332 C333 1.391 . S
C333 H321 0.950 . S
C333 C329 1.393 . S
C333 C332 1.391 . S
C334 H324 0.950 1_556 S
C334 C335 1.386 1_556 S
C334 C336 1.391 . S
C335 C334 1.386 1_554 S
C335 C339 1.393 1_554 S
C336 H325 0.950 . S
C336 C334 1.391 . S
C336 C337 1.400 . S
C337 C331 1.491 . S
C337 C336 1.400 . S
C337 C338 1.398 . S
C338 H326 0.950 . S
C338 C337 1.398 . S
C338 C339 1.391 . S
C339 H327 0.950 1_556 S
C339 C335 1.393 1_556 S
C339 C338 1.391 . S
H340 C348 0.950 . S
H341 C353 0.950 . S
H342 C350 0.950 . S
H343 C352 0.950 . S
H344 C354 0.950 . S
H345 C356 0.950 . S
H346 C358 0.950 . S
H347 C359 0.950 1_556 S
C348 H340 0.950 . S
C348 C349 1.386 . S
C348 C350 1.391 . S
C349 C348 1.386 . S
C349 C353 1.393 . S
C350 H342 0.950 . S
C350 C348 1.391 . S
C350 C351 1.400 . S
C351 C350 1.400 . S
C351 C352 1.398 . S
C351 C357 1.491 . S
C352 H343 0.950 . S
C352 C351 1.398 . S
C352 C353 1.391 . S
C353 H341 0.950 . S
C353 C349 1.393 . S
C353 C352 1.391 . S
C354 H344 0.950 . S
C354 C355 1.386 1_554 S
C354 C356 1.391 . S
C355 C354 1.386 1_556 S
C355 C359 1.393 1_556 S
C356 H345 0.950 . S
C356 C354 1.391 . S
C356 C357 1.400 . S
C357 C351 1.491 . S
C357 C356 1.400 . S
C357 C358 1.398 . S
C358 H346 0.950 . S
C358 C357 1.398 . S
C358 C359 1.391 . S
C359 H347 0.950 1_554 S
C359 C355 1.393 1_554 S
C359 C358 1.391 . S
H360 C368 0.950 . S
H361 C373 0.950 . S
H362 C370 0.950 . S
H363 C372 0.950 . S
H364 C374 0.950 . S
H365 C376 0.950 . S
H366 C378 0.950 . S
H367 C379 0.950 . S
C368 H360 0.950 . S
C368 C369 1.386 . S
C368 C370 1.391 . S
C369 C368 1.386 . S
C369 C373 1.393 . S
C370 H362 0.950 . S
C370 C368 1.391 . S
C370 C371 1.400 . S
C371 C370 1.400 . S
C371 C372 1.398 . S
C371 C377 1.491 . S
C372 H363 0.950 . S
C372 C371 1.398 . S
C372 C373 1.391 . S
C373 H361 0.950 . S
C373 C369 1.393 . S
C373 C372 1.391 . S
C374 H364 0.950 . S
C374 C375 1.386 . S
C374 C376 1.391 . S
C375 C374 1.386 . S
C375 C379 1.393 . S
C376 H365 0.950 . S
C376 C374 1.391 . S
C376 C377 1.400 . S
C377 C371 1.491 . S
C377 C376 1.400 . S
C377 C378 1.398 . S
C378 H366 0.950 . S
C378 C377 1.398 . S
C378 C379 1.391 . S
C379 H367 0.950 . S
C379 C375 1.393 . S
C379 C378 1.391 . S
H380 C388 0.950 . S
H381 C393 0.950 . S
H382 C390 0.950 . S
H383 C392 0.950 . S
H384 C394 0.950 . S
H385 C396 0.950 . S
H386 C398 0.950 . S
H387 C399 0.950 . S
C388 H380 0.950 . S
C388 C389 1.386 . S
C388 C390 1.391 . S
C389 C388 1.386 . S
C389 C393 1.393 . S
C390 H382 0.950 . S
C390 C388 1.391 . S
C390 C391 1.400 . S
C391 C390 1.400 . S
C391 C392 1.398 . S
C391 C397 1.491 . S
C392 H383 0.950 . S
C392 C391 1.398 . S
C392 C393 1.391 . S
C393 H381 0.950 . S
C393 C389 1.393 . S
C393 C392 1.391 . S
C394 H384 0.950 . S
C394 C395 1.386 . S
C394 C396 1.391 . S
C395 C394 1.386 . S
C395 C399 1.393 . S
C396 H385 0.950 . S
C396 C394 1.391 . S
C396 C397 1.400 . S
C397 C391 1.491 . S
C397 C396 1.400 . S
C397 C398 1.398 . S
C398 H386 0.950 . S
C398 C397 1.398 . S
C398 C399 1.391 . S
C399 H387 0.950 . S
C399 C395 1.393 . S
C399 C398 1.391 . S
H400 C408 0.950 1_554 S
H401 C413 0.950 . S
H402 C410 0.950 . S
H403 C412 0.950 . S
H404 C414 0.950 . S
H405 C416 0.950 . S
H406 C418 0.950 . S
H407 C419 0.950 . S
C408 H400 0.950 1_556 S
C408 C409 1.386 . S
C408 C410 1.391 . S
C409 C408 1.386 . S
C409 C413 1.393 . S
C410 H402 0.950 . S
C410 C408 1.391 . S
C410 C411 1.400 . S
C411 C410 1.400 . S
C411 C412 1.398 . S
C411 C417 1.491 . S
C412 H403 0.950 . S
C412 C411 1.398 . S
C412 C413 1.391 . S
C413 H401 0.950 . S
C413 C409 1.393 . S
C413 C412 1.391 . S
C414 H404 0.950 . S
C414 C415 1.386 . S
C414 C416 1.391 . S
C415 C414 1.386 . S
C415 C419 1.393 . S
C416 H405 0.950 . S
C416 C414 1.391 . S
C416 C417 1.400 . S
C417 C411 1.491 . S
C417 C416 1.400 . S
C417 C418 1.398 . S
C418 H406 0.950 . S
C418 C417 1.398 . S
C418 C419 1.391 . S
C419 H407 0.950 . S
C419 C415 1.393 . S
C419 C418 1.391 . S
H420 C428 0.950 . S
H421 C433 0.950 . S
H422 C430 0.950 . S
H423 C432 0.950 . S
H424 C434 0.950 . S
H425 C436 0.950 . S
H426 C438 0.950 . S
H427 C439 0.950 . S
C428 H420 0.950 . S
C428 C429 1.386 . S
C428 C430 1.391 . S
C429 C428 1.386 . S
C429 C433 1.393 . S
C430 H422 0.950 . S
C430 C428 1.391 . S
C430 C431 1.400 . S
C431 C430 1.400 . S
C431 C432 1.398 . S
C431 C437 1.491 . S
C432 H423 0.950 . S
C432 C431 1.398 . S
C432 C433 1.391 . S
C433 H421 0.950 . S
C433 C429 1.393 . S
C433 C432 1.391 . S
C434 H424 0.950 . S
C434 C435 1.386 . S
C434 C436 1.391 . S
C435 C434 1.386 . S
C435 C439 1.393 . S
C436 H425 0.950 . S
C436 C434 1.391 . S
C436 C437 1.400 . S
C437 C431 1.491 . S
C437 C436 1.400 . S
C437 C438 1.398 . S
C438 H426 0.950 . S
C438 C437 1.398 . S
C438 C439 1.391 . S
C439 H427 0.950 . S
C439 C435 1.393 . S
C439 C438 1.391 . S
H440 C448 0.950 . S
H441 C453 0.950 . S
H442 C450 0.950 . S
H443 C452 0.950 . S
H444 C454 0.950 . S
H445 C456 0.950 . S
H446 C458 0.950 . S
H447 C459 0.950 . S
C448 H440 0.950 . S
C448 C449 1.386 . S
C448 C450 1.391 . S
C449 C448 1.386 . S
C449 C453 1.393 . S
C450 H442 0.950 . S
C450 C448 1.391 . S
C450 C451 1.400 . S
C451 C450 1.400 . S
C451 C452 1.398 . S
C451 C457 1.491 . S
C452 H443 0.950 . S
C452 C451 1.398 . S
C452 C453 1.391 . S
C453 H441 0.950 . S
C453 C449 1.393 . S
C453 C452 1.391 . S
C454 H444 0.950 . S
C454 C455 1.386 . S
C454 C456 1.391 . S
C455 C454 1.386 . S
C455 C459 1.393 . S
C456 H445 0.950 . S
C456 C454 1.391 . S
C456 C457 1.400 . S
C457 C451 1.491 . S
C457 C456 1.400 . S
C457 C458 1.398 . S
C458 H446 0.950 . S
C458 C457 1.398 . S
C458 C459 1.391 . S
C459 H447 0.950 . S
C459 C455 1.393 . S
C459 C458 1.391 . S
H460 C468 0.950 . S
H461 C473 0.950 . S
H462 C470 0.950 . S
H463 C472 0.950 . S
H464 C474 0.950 . S
H465 C476 0.950 . S
H466 C478 0.950 . S
H467 C479 0.950 . S
C468 H460 0.950 . S
C468 C469 1.386 . S
C468 C470 1.391 . S
C469 C468 1.386 . S
C469 C473 1.393 . S
C470 H462 0.950 . S
C470 C468 1.391 . S
C470 C471 1.400 . S
C471 C470 1.400 . S
C471 C472 1.398 . S
C471 C477 1.491 . S
C472 H463 0.950 . S
C472 C471 1.398 . S
C472 C473 1.391 . S
C473 H461 0.950 . S
C473 C469 1.393 . S
C473 C472 1.391 . S
C474 H464 0.950 . S
C474 C475 1.386 . S
C474 C476 1.391 . S
C475 C474 1.386 . S
C475 C479 1.393 . S
C476 H465 0.950 . S
C476 C474 1.391 . S
C476 C477 1.400 . S
C477 C471 1.491 . S
C477 C476 1.400 . S
C477 C478 1.398 . S
C478 H466 0.950 . S
C478 C477 1.398 . S
C478 C479 1.391 . S
C479 H467 0.950 . S
C479 C475 1.393 . S
C479 C478 1.391 . S
C129 C118 1.406 . S
C135 C4 1.328 . S
C149 C18 1.403 . S
C155 C24 1.317 . S
C169 C38 1.403 . S
C175 C44 1.328 . S
C189 C58 1.403 . S
C195 C64 1.329 . S
C209 C84 1.344 . S
C215 C78 1.407 . S
C229 C104 1.348 . S
C235 C98 1.406 . S
C249 C12 1.239 . S
C255 C9 1.239 . S
C269 C32 1.258 . S
C275 C29 1.258 . S
C289 C52 1.259 . S
C295 C49 1.259 . S
C309 C72 1.253 . S
C315 C69 1.253 . S
C329 C89 1.230 . S
C335 C92 1.230 . S
C349 C112 1.258 . S
C355 C109 1.258 . S
C369 C2 1.430 . S
C375 C99 1.493 . S
C389 C22 1.427 . S
C395 C119 1.509 . S
C409 C19 1.514 . S
C415 C42 1.412 . S
C429 C39 1.497 . S
C435 C62 1.441 . S
C449 C82 1.423 . S
C455 C59 1.511 . S
C469 C79 1.509 . S
C475 C102 1.428 . S
