# Generated by pormake.
# Topology whh, (6)-cn, num edge types: 1
# Building blocks:
#     Node 0, Type 0, BuildingBlock: CUKXOW_clean_sbu_0, # of connection points: 6
#     Node 1, Type 0, BuildingBlock: CUKXOW_clean_sbu_0, # of connection points: 6
#     Node 2, Type 0, BuildingBlock: CUKXOW_clean_sbu_0, # of connection points: 6
#     Node 3, Type 0, BuildingBlock: CUKXOW_clean_sbu_0, # of connection points: 6
#     Node 4, Type 0, BuildingBlock: CUKXOW_clean_sbu_0, # of connection points: 6
#     Node 5, Type 0, BuildingBlock: CUKXOW_clean_sbu_0, # of connection points: 6
#     Node 6, Type 0, BuildingBlock: CUKXOW_clean_sbu_0, # of connection points: 6
#     Node 7, Type 0, BuildingBlock: CUKXOW_clean_sbu_0, # of connection points: 6
#     Node 8, Type 0, BuildingBlock: CUKXOW_clean_sbu_0, # of connection points: 6
#     Node 9, Type 0, BuildingBlock: CUKXOW_clean_sbu_0, # of connection points: 6
#     Node 10, Type 0, BuildingBlock: CUKXOW_clean_sbu_0, # of connection points: 6
#     Node 11, Type 0, BuildingBlock: CUKXOW_clean_sbu_0, # of connection points: 6
#     Node 12, Type 0, BuildingBlock: CUKXOW_clean_sbu_0, # of connection points: 6
#     Node 13, Type 0, BuildingBlock: CUKXOW_clean_sbu_0, # of connection points: 6
#     Node 14, Type 0, BuildingBlock: CUKXOW_clean_sbu_0, # of connection points: 6
#     Node 15, Type 0, BuildingBlock: CUKXOW_clean_sbu_0, # of connection points: 6
#     Edge 16, Type (0, 0), BuildingBlock: CIFDUS_clean_linker_0, # of connection points: 2
#     Edge 17, Type (0, 0), BuildingBlock: CIFDUS_clean_linker_0, # of connection points: 2
#     Edge 18, Type (0, 0), BuildingBlock: CIFDUS_clean_linker_0, # of connection points: 2
#     Edge 19, Type (0, 0), BuildingBlock: CIFDUS_clean_linker_0, # of connection points: 2
#     Edge 20, Type (0, 0), BuildingBlock: CIFDUS_clean_linker_0, # of connection points: 2
#     Edge 21, Type (0, 0), BuildingBlock: CIFDUS_clean_linker_0, # of connection points: 2
#     Edge 22, Type (0, 0), BuildingBlock: CIFDUS_clean_linker_0, # of connection points: 2
#     Edge 23, Type (0, 0), BuildingBlock: CIFDUS_clean_linker_0, # of connection points: 2
#     Edge 24, Type (0, 0), BuildingBlock: CIFDUS_clean_linker_0, # of connection points: 2
#     Edge 25, Type (0, 0), BuildingBlock: CIFDUS_clean_linker_0, # of connection points: 2
#     Edge 26, Type (0, 0), BuildingBlock: CIFDUS_clean_linker_0, # of connection points: 2
#     Edge 27, Type (0, 0), BuildingBlock: CIFDUS_clean_linker_0, # of connection points: 2
#     Edge 28, Type (0, 0), BuildingBlock: CIFDUS_clean_linker_0, # of connection points: 2
#     Edge 29, Type (0, 0), BuildingBlock: CIFDUS_clean_linker_0, # of connection points: 2
#     Edge 30, Type (0, 0), BuildingBlock: CIFDUS_clean_linker_0, # of connection points: 2
#     Edge 31, Type (0, 0), BuildingBlock: CIFDUS_clean_linker_0, # of connection points: 2
#     Edge 32, Type (0, 0), BuildingBlock: CIFDUS_clean_linker_0, # of connection points: 2
#     Edge 33, Type (0, 0), BuildingBlock: CIFDUS_clean_linker_0, # of connection points: 2
#     Edge 34, Type (0, 0), BuildingBlock: CIFDUS_clean_linker_0, # of connection points: 2
#     Edge 35, Type (0, 0), BuildingBlock: CIFDUS_clean_linker_0, # of connection points: 2
#     Edge 36, Type (0, 0), BuildingBlock: CIFDUS_clean_linker_0, # of connection points: 2
#     Edge 37, Type (0, 0), BuildingBlock: CIFDUS_clean_linker_0, # of connection points: 2
#     Edge 38, Type (0, 0), BuildingBlock: CIFDUS_clean_linker_0, # of connection points: 2
#     Edge 39, Type (0, 0), BuildingBlock: CIFDUS_clean_linker_0, # of connection points: 2
#     Edge 40, Type (0, 0), BuildingBlock: CIFDUS_clean_linker_0, # of connection points: 2
#     Edge 41, Type (0, 0), BuildingBlock: CIFDUS_clean_linker_0, # of connection points: 2
#     Edge 42, Type (0, 0), BuildingBlock: CIFDUS_clean_linker_0, # of connection points: 2
#     Edge 43, Type (0, 0), BuildingBlock: CIFDUS_clean_linker_0, # of connection points: 2
#     Edge 44, Type (0, 0), BuildingBlock: CIFDUS_clean_linker_0, # of connection points: 2
#     Edge 45, Type (0, 0), BuildingBlock: CIFDUS_clean_linker_0, # of connection points: 2
#     Edge 46, Type (0, 0), BuildingBlock: CIFDUS_clean_linker_0, # of connection points: 2
#     Edge 47, Type (0, 0), BuildingBlock: CIFDUS_clean_linker_0, # of connection points: 2
#     Edge 48, Type (0, 0), BuildingBlock: CIFDUS_clean_linker_0, # of connection points: 2
#     Edge 49, Type (0, 0), BuildingBlock: CIFDUS_clean_linker_0, # of connection points: 2
#     Edge 50, Type (0, 0), BuildingBlock: CIFDUS_clean_linker_0, # of connection points: 2
#     Edge 51, Type (0, 0), BuildingBlock: CIFDUS_clean_linker_0, # of connection points: 2
#     Edge 52, Type (0, 0), BuildingBlock: CIFDUS_clean_linker_0, # of connection points: 2
#     Edge 53, Type (0, 0), BuildingBlock: CIFDUS_clean_linker_0, # of connection points: 2
#     Edge 54, Type (0, 0), BuildingBlock: CIFDUS_clean_linker_0, # of connection points: 2
#     Edge 55, Type (0, 0), BuildingBlock: CIFDUS_clean_linker_0, # of connection points: 2
#     Edge 56, Type (0, 0), BuildingBlock: CIFDUS_clean_linker_0, # of connection points: 2
#     Edge 57, Type (0, 0), BuildingBlock: CIFDUS_clean_linker_0, # of connection points: 2
#     Edge 58, Type (0, 0), BuildingBlock: CIFDUS_clean_linker_0, # of connection points: 2
#     Edge 59, Type (0, 0), BuildingBlock: CIFDUS_clean_linker_0, # of connection points: 2
#     Edge 60, Type (0, 0), BuildingBlock: CIFDUS_clean_linker_0, # of connection points: 2
#     Edge 61, Type (0, 0), BuildingBlock: CIFDUS_clean_linker_0, # of connection points: 2
#     Edge 62, Type (0, 0), BuildingBlock: CIFDUS_clean_linker_0, # of connection points: 2
#     Edge 63, Type (0, 0), BuildingBlock: CIFDUS_clean_linker_0, # of connection points: 2
# Relax obj value: 0.354
# Max RMSD: 0.312
# Mean RMSD: 0.275
data_MOF--net-whh--node1-CUKXOW_clean_sbu_0--edge1-CIFDUS_clean_linker_0
_symmetry_space_group_name_H-M    P1
_symmetry_Int_Tables_number       1
_symmetry_cell_setting            triclinic
loop_
_symmetry_equiv_pos_as_xyz
'x, y, z'
_cell_length_a     27.671333
_cell_length_b     27.322642
_cell_length_c     45.725509
_cell_angle_alpha  93.616115
_cell_angle_beta   100.38522
_cell_angle_gamma 89.918755
loop_
_atom_site_label
_atom_site_type_symbol
_atom_site_fract_x
_atom_site_fract_y
_atom_site_fract_z
_atom_type_partial_charge
Tb0 Tb 0.12458 0.59726 0.1412 0.0
C1 C 0.1203 0.69673 0.17766 0.0
Tb2 Tb 0.08536 0.69631 0.11171 0.0
O3 O 0.20408 0.60994 0.14121 0.0
O4 O 0.15218 0.66068 0.12633 0.0
O5 O 0.11239 0.64905 0.17691 0.0
C6 C 0.03426 0.77753 0.11936 0.0
O7 O 0.13105 0.71631 0.15414 0.0
C8 C 0.02184 0.62526 0.11013 0.0
C9 C 0.09977 0.60445 0.06979 0.0
O10 O 0.03106 0.73648 0.13154 0.0
O11 O 0.06745 0.77362 0.10195 0.0
O12 O 0.01981 0.65669 0.08992 0.0
O13 O 0.0574 0.63607 0.1313 0.0
O14 O 0.10092 0.65386 0.07242 0.0
O15 O 0.10576 0.57571 0.0931 0.0
C16 C 0.11357 0.5267 0.17861 0.0
O17 O 0.15072 0.55681 0.18121 0.0
O18 O 0.0853 0.53317 0.15311 0.0
C19 C 0.19802 0.65355 0.1308 0.0
Tb20 Tb 0.87357 0.12472 0.1676 0.0
C21 C 0.98045 0.12896 0.17036 0.0
Tb22 Tb 0.91126 0.10719 0.10638 0.0
O23 O 0.89267 0.04698 0.18143 0.0
O24 O 0.90092 0.07093 0.14214 0.0
O25 O 0.94462 0.15888 0.17353 0.0
C26 C 0.95349 0.076 0.06068 0.0
O27 O 0.97721 0.10457 0.14376 0.0
C28 C 0.85774 0.18671 0.113 0.0
C29 C 0.80408 0.07027 0.11464 0.0
O30 O 0.96648 0.1155 0.07785 0.0
O31 O 0.91685 0.05484 0.06922 0.0
O32 O 0.86075 0.16454 0.08746 0.0
O33 O 0.88846 0.16734 0.13264 0.0
O34 O 0.84251 0.06252 0.10069 0.0
O35 O 0.80586 0.1015 0.13836 0.0
C36 C 0.85198 0.17713 0.21384 0.0
O37 O 0.82445 0.17368 0.18746 0.0
O38 O 0.88891 0.1476 0.21428 0.0
C39 C 0.90777 0.034 0.15657 0.0
Tb40 Tb 0.5011 0.86579 0.15266 0.0
C41 C 0.45464 0.96467 0.16367 0.0
Tb42 Tb 0.46395 0.91896 0.10014 0.0
O43 O 0.57784 0.87638 0.14647 0.0
O44 O 0.52544 0.92858 0.13446 0.0
O45 O 0.45401 0.91863 0.17025 0.0
C46 C 0.47173 0.96993 0.05306 0.0
O47 O 0.46592 0.97547 0.13766 0.0
C48 C 0.39245 0.86993 0.11781 0.0
C49 C 0.49647 0.80628 0.09332 0.0
O50 O 0.4323 0.96698 0.0647 0.0
O51 O 0.50559 0.94335 0.06742 0.0
O52 O 0.38614 0.90988 0.10347 0.0
O53 O 0.43666 0.85717 0.11878 0.0
O54 O 0.49116 0.84889 0.08025 0.0
O55 O 0.49283 0.80405 0.12142 0.0
C56 C 0.50452 0.81832 0.20187 0.0
O57 O 0.51678 0.80075 0.17732 0.0
O58 O 0.50008 0.86525 0.19987 0.0
C59 C 0.56882 0.91679 0.13323 0.0
Tb60 Tb 0.58184 0.45275 0.13243 0.0
C61 C 0.67816 0.47003 0.17994 0.0
Tb62 Tb 0.67778 0.48193 0.11224 0.0
O63 O 0.58946 0.37661 0.11358 0.0
O64 O 0.65087 0.42042 0.12972 0.0
O65 O 0.6331 0.45198 0.17379 0.0
C66 C 0.77304 0.49581 0.11239 0.0
O67 O 0.69911 0.49047 0.16005 0.0
C68 C 0.61147 0.54926 0.10385 0.0
C69 C 0.58301 0.45757 0.06476 0.0
O70 O 0.74455 0.5256 0.12418 0.0
O71 O 0.74752 0.45812 0.09884 0.0
O72 O 0.64725 0.54399 0.08908 0.0
O73 O 0.61738 0.52045 0.12525 0.0
O74 O 0.63178 0.45207 0.07083 0.0
O75 O 0.55543 0.46228 0.08582 0.0
C76 C 0.51362 0.46548 0.16845 0.0
O77 O 0.52472 0.42376 0.15588 0.0
O78 O 0.53876 0.49927 0.15908 0.0
C79 C 0.63736 0.37962 0.11669 0.0
Tb80 Tb 0.99078 0.85284 0.31867 0.0
C81 C 0.03481 0.94698 0.30455 0.0
Tb82 Tb 0.03552 0.90653 0.368 0.0
O83 O 0.92487 0.84643 0.33769 0.0
O84 O 0.96362 0.91235 0.34426 0.0
O85 O 0.03313 0.9 0.29711 0.0
C86 C 0.03786 0.95531 0.42132 0.0
O87 O 0.02838 0.96099 0.33213 0.0
C88 C 0.10648 0.86072 0.34529 0.0
C89 C 1.01095 0.79068 0.37048 0.0
O90 O 0.0685 0.96189 0.40343 0.0
O91 O 1.00766 0.92063 0.40956 0.0
O92 O 0.11082 0.90331 0.35994 0.0
O93 O 0.06355 0.84418 0.34516 0.0
O94 O 0.0175 0.83433 0.38584 0.0
O95 O 1.00867 0.78841 0.34155 0.0
C96 C 0.94592 0.81855 0.26474 0.0
O97 O 0.96355 0.79258 0.28688 0.0
O98 O 0.95445 0.86421 0.27331 0.0
C99 C 0.92732 0.88974 0.35052 0.0
Tb100 Tb 0.68567 0.0373 0.34226 0.0
C101 C 0.58902 0.08377 0.31282 0.0
Tb102 Tb 0.62521 0.0759 0.38149 0.0
O103 O 0.6749 0.96152 0.35531 0.0
O104 O 0.61932 1.01177 0.35335 0.0
O105 O 0.63579 0.07845 0.31133 0.0
C106 C 0.57231 0.08387 0.42475 0.0
O107 O 0.5736 0.07878 0.33845 0.0
C108 C 0.67473 0.14777 0.36356 0.0
C109 C 0.7322 0.04037 0.40528 0.0
O110 O 0.56088 0.0574 0.40002 0.0
O111 O 0.61321 0.10686 0.42494 0.0
O112 O 0.6306 0.1515 0.36946 0.0
O113 O 0.69008 0.1051 0.36937 0.0
O114 O 0.68588 0.03432 0.40856 0.0
O115 O 0.73932 0.05823 0.38065 0.0
C116 C 0.74533 1.02594 0.30315 0.0
O117 O 0.7568 1.01883 0.33123 0.0
O118 O 0.6981 0.03083 0.29694 0.0
C119 C 0.63103 0.96937 0.36059 0.0
Tb120 Tb 0.39806 0.68201 0.31795 0.0
C121 C 0.39327 0.56947 0.30942 0.0
Tb122 Tb 0.42126 0.6266 0.37356 0.0
O123 O 0.47651 0.68845 0.3132 0.0
O124 O 0.45255 0.63247 0.33568 0.0
O125 O 0.36511 0.60858 0.30592 0.0
C126 C 0.46175 0.58763 0.42494 0.0
O127 O 0.42226 0.56824 0.33627 0.0
C128 C 0.33121 0.66678 0.36201 0.0
C129 C 0.46181 0.7381 0.37156 0.0
O130 O 0.4256 0.56841 0.40546 0.0
O131 O 0.47481 0.6283 0.41533 0.0
O132 O 0.34063 0.62602 0.37493 0.0
O133 O 0.37166 0.68317 0.35834 0.0
O134 O 0.46618 0.69571 0.38512 0.0
O135 O 0.43046 0.74334 0.34646 0.0
C136 C 0.33634 0.72033 0.27358 0.0
O137 O 0.36794 0.68591 0.271 0.0
O138 O 0.34208 0.73543 0.30141 0.0
C139 C 0.49049 0.65291 0.33067 0.0
Tb140 Tb 0.92259 0.43464 0.35362 0.0
C141 C 0.81744 0.39618 0.32146 0.0
Tb142 Tb 0.82772 0.4634 0.38108 0.0
O143 O 0.92376 0.35552 0.36181 0.0
O144 O 0.87214 0.40174 0.37542 0.0
O145 O 0.86346 0.40596 0.31921 0.0
C146 C 0.73773 0.50069 0.37709 0.0
O147 O 0.79738 0.41211 0.34437 0.0
C148 C 0.88608 0.53548 0.37442 0.0
C149 C 0.92967 0.46294 0.42308 0.0
O150 O 0.75814 0.47277 0.39832 0.0
O151 O 0.76765 0.50578 0.35862 0.0
O152 O 0.85875 0.53569 0.39454 0.0
O153 O 0.87703 0.49683 0.35723 0.0
O154 O 0.88131 0.45502 0.42146 0.0
O155 O 0.95207 0.46277 0.39931 0.0
C156 C 0.97288 0.45213 0.3096 0.0
O157 O 0.99248 0.4352 0.3353 0.0
O158 O 0.92671 0.45963 0.30981 0.0
C159 C 0.8842 0.35696 0.37393 0.0
Tb160 Tb 0.97332 0.36599 0.89069 0.0
C161 C 0.94514 0.45949 0.92604 0.0
Tb162 Tb 0.9323 0.45956 0.85465 0.0
O163 O 0.03543 0.4095 0.91471 0.0
O164 O 1.00118 0.42723 0.87215 0.0
O165 O 0.94422 0.41023 0.92469 0.0
C166 C 0.93731 0.52835 0.81525 0.0
O167 O 0.94189 0.48618 0.90197 0.0
C168 C 0.86222 0.39338 0.85918 0.0
C169 C 0.97136 0.36675 0.82427 0.0
O170 O 0.95516 0.53269 0.8438 0.0
O171 O 0.91303 0.48712 0.80985 0.0
O172 O 0.85308 0.43506 0.84686 0.0
O173 O 0.90789 0.39354 0.86774 0.0
O174 O 0.97171 0.41501 0.82616 0.0
O175 O 0.95408 0.34245 0.84409 0.0
C176 C 1.01501 0.27815 0.89605 0.0
O177 O 0.03292 0.31636 0.88624 0.0
O178 O 0.9734 0.28986 0.90455 0.0
C179 C 0.03317 0.44116 0.89453 0.0
Tb180 Tb 0.12735 0.96491 0.87896 0.0
C181 C 0.23101 1.00417 0.86474 0.0
Tb182 Tb 0.15522 0.9448 0.81907 0.0
O183 O 0.14113 0.88628 0.88839 0.0
O184 O 0.18034 0.92038 0.86191 0.0
O185 O 0.19617 1.0096 0.88178 0.0
C186 C 0.15499 0.88579 0.77149 0.0
O187 O 0.22593 0.97359 0.84055 0.0
C188 C 0.12451 0.0345 0.8294 0.0
C189 C 0.04893 0.92921 0.82192 0.0
O190 O 0.13718 0.92987 0.77138 0.0
O191 O 0.17919 0.87788 0.79775 0.0
O192 O 0.15388 1.02401 0.81054 0.0
O193 O 0.11026 0.99523 0.83782 0.0
O194 O 0.08786 0.9036 0.81909 0.0
O195 O 0.05555 0.95988 0.84626 0.0
C196 C 0.09799 1.00054 0.92866 0.0
O197 O 0.08358 0.95943 0.91394 0.0
O198 O 0.12988 1.02143 0.91568 0.0
C199 C 0.17407 0.8796 0.87162 0.0
Tb200 Tb 0.56795 0.15194 0.87486 0.0
C201 C 0.51811 0.25667 0.85856 0.0
Tb202 Tb 0.53947 0.17692 0.81198 0.0
O203 O 0.64661 0.16849 0.87665 0.0
O204 O 0.59356 0.20499 0.84874 0.0
O205 O 0.52881 0.22307 0.87889 0.0
C206 C 0.5507 0.17766 0.75496 0.0
O207 O 0.52463 0.24826 0.8307 0.0
C208 C 0.469 0.13676 0.8346 0.0
C209 C 0.59047 0.08101 0.82325 0.0
O210 O 0.54662 0.21577 0.77292 0.0
O211 O 0.53938 0.14019 0.76828 0.0
O212 O 0.46073 0.16728 0.81364 0.0
O213 O 0.51375 0.12634 0.83884 0.0
O214 O 0.59809 0.12373 0.81342 0.0
O215 O 0.57234 0.08181 0.84823 0.0
C216 C 0.55944 0.12117 0.92815 0.0
O217 O 0.59896 0.11863 0.9165 0.0
O218 O 0.52542 0.14258 0.91022 0.0
C219 C 0.63946 0.1997 0.85595 0.0
Tb220 Tb 0.35806 0.60383 0.8779 0.0
C221 C 0.45344 0.59897 0.92624 0.0
Tb222 Tb 0.45958 0.62294 0.86011 0.0
O223 O 0.37556 0.52758 0.88487 0.0
O224 O 0.40704 0.56423 0.85412 0.0
O225 O 0.40546 0.60892 0.92146 0.0
C226 C 0.53583 0.60831 0.83085 0.0
O227 O 0.48146 0.59987 0.90536 0.0
C228 C 0.4109 0.70371 0.87465 0.0
C229 C 0.36783 0.63692 0.81617 0.0
O230 O 0.52905 0.58627 0.8543 0.0
O231 O 0.50185 0.64093 0.82568 0.0
O232 O 0.44703 0.70354 0.85987 0.0
O233 O 0.40989 0.66139 0.88385 0.0
O234 O 0.40832 0.61139 0.81941 0.0
O235 O 0.34289 0.64357 0.838 0.0
C236 C 0.26174 0.59678 0.87745 0.0
O237 O 0.2837 0.58603 0.85522 0.0
O238 O 0.29431 0.61176 0.90062 0.0
C239 C 0.40811 0.52527 0.86781 0.0
Tb240 Tb 0.9774 0.14136 0.62176 0.0
C241 C 1.01112 0.2571 0.62364 0.0
Tb242 Tb 0.02959 0.18747 0.67108 0.0
O243 O 0.90409 0.1465 0.63119 0.0
O244 O 0.95526 0.20331 0.64759 0.0
O245 O 0.99894 0.21528 0.60675 0.0
C246 C 0.08554 0.20715 0.72428 0.0
O247 O 0.01774 0.25633 0.65265 0.0
C248 C 0.08382 0.14221 0.63597 0.0
C249 C 0.97735 0.09924 0.6847 0.0
O250 O 0.06975 0.23888 0.70489 0.0
O251 O 0.06771 0.16461 0.71396 0.0
O252 O 0.09176 0.18636 0.64719 0.0
O253 O 0.0468 0.12536 0.6443 0.0
O254 O 0.98299 0.14584 0.69275 0.0
O255 O 0.98194 0.08531 0.65674 0.0
C256 C 0.9714 0.09753 0.5668 0.0
O257 O 0.94075 0.09068 0.58468 0.0
O258 O 1.00362 0.12979 0.57954 0.0
C259 C 0.91165 0.18767 0.64728 0.0
Tb260 Tb 0.40762 0.98106 0.60171 0.0
C261 C 0.29949 1.02496 0.58858 0.0
Tb262 Tb 0.34941 0.98902 0.64946 0.0
O263 O 0.40738 0.89954 0.60506 0.0
O264 O 0.34856 0.9409 0.61201 0.0
O265 O 0.34309 1.02259 0.58002 0.0
C266 C 0.28268 0.95138 0.67443 0.0
O267 O 0.29286 1.00989 0.61434 0.0
C268 C 0.40531 0.06716 0.65066 0.0
C269 C 0.46056 0.96943 0.66792 0.0
O270 O 0.28245 0.99688 0.66741 0.0
O271 O 0.32318 0.92983 0.67102 0.0
O272 O 0.38825 0.05293 0.67363 0.0
O273 O 0.38511 0.04134 0.62771 0.0
O274 O 0.41662 0.95781 0.67299 0.0
O275 O 0.46608 0.98343 0.6414 0.0
C276 C 0.44996 0.99201 0.55488 0.0
O277 O 0.46543 1.01194 0.5814 0.0
O278 O 0.41155 0.9651 0.55494 0.0
C279 C 0.364 0.89786 0.6121 0.0
Tb280 Tb 0.59975 0.41921 0.62784 0.0
C281 C 0.56442 0.30888 0.6385 0.0
Tb282 Tb 0.63314 0.3728 0.68759 0.0
O283 O 0.67719 0.41778 0.62079 0.0
O284 O 0.65094 0.36537 0.64434 0.0
O285 O 0.55758 0.34784 0.62166 0.0
C286 C 0.70389 0.33045 0.72529 0.0
O287 O 0.59792 0.30852 0.6632 0.0
C288 C 0.54149 0.40331 0.67763 0.0
C289 C 0.63503 0.48719 0.68985 0.0
O290 O 0.70835 0.3479 0.70025 0.0
O291 O 0.65917 0.3395 0.72956 0.0
O292 O 0.5572 0.37184 0.69761 0.0
O293 O 0.57811 0.41959 0.66876 0.0
O294 O 0.65854 0.44809 0.70065 0.0
O295 O 0.60675 0.48327 0.6624 0.0
C296 C 0.55421 0.45578 0.5768 0.0
O297 O 0.59376 0.47356 0.59383 0.0
O298 O 0.54013 0.41754 0.58866 0.0
C299 C 0.68916 0.38029 0.63645 0.0
Tb300 Tb 0.20195 0.58172 0.61335 0.0
C301 C 0.10622 0.58285 0.56615 0.0
Tb302 Tb 0.10407 0.61832 0.63368 0.0
O303 O 0.16878 0.50986 0.60059 0.0
O304 O 0.14681 0.55309 0.6351 0.0
O305 O 0.15515 0.58846 0.57015 0.0
C306 C 0.04141 0.60613 0.67183 0.0
O307 O 0.08024 0.58713 0.58823 0.0
C308 C 0.15222 0.69203 0.61472 0.0
C309 C 0.20428 0.65084 0.67234 0.0
O310 O 0.02811 0.61625 0.64383 0.0
O311 O 0.08876 0.60304 0.67746 0.0
O312 O 0.11001 0.6968 0.62391 0.0
O313 O 0.1615 0.64665 0.61513 0.0
O314 O 0.15708 0.64365 0.67168 0.0
O315 O 0.2279 0.63305 0.65128 0.0
C316 C 0.29225 0.54507 0.62098 0.0
O317 O 0.26015 0.53984 0.63804 0.0
O318 O 0.27377 0.57226 0.59903 0.0
C319 C 0.13815 0.5134 0.61884 0.0
H320 H 0.83198 0.4976 0.07106 0.0
H321 H 0.83271 0.51345 0.16536 0.0
H322 H 0.9167 0.54601 0.17437 0.0
H323 H 0.98373 0.58438 0.15437 0.0
H324 H 0.97541 0.57991 0.05926 0.0
H325 H 0.90269 0.52774 0.05158 0.0
C326 C 0.85135 0.50664 0.09357 0.0
C327 C 0.82668 0.50299 0.1175 0.0
C328 C 0.89862 0.528 0.0984 0.0
C329 C 0.8514 0.51585 0.14662 0.0
C330 C 0.89929 0.53479 0.15177 0.0
C331 C 0.96677 0.5705 0.13214 0.0
C332 C 0.98541 0.58512 0.10745 0.0
C333 C 0.9225 0.5432 0.12771 0.0
C334 C 0.96242 0.56809 0.07865 0.0
C335 C 0.92029 0.53877 0.07418 0.0
H336 H 0.03831 0.87265 0.10262 0.0
H337 H 0.96253 0.77909 0.15232 0.0
H338 H 0.91909 0.84903 0.17027 0.0
H339 H 0.9043 0.93875 0.17372 0.0
H340 H 0.96932 0.02815 0.11657 0.0
H341 H 1.01504 0.95973 0.10068 0.0
C342 C 1.01224 0.86764 0.1173 0.0
C343 C 1.0051 0.82087 0.12683 0.0
C344 C 0.98588 0.90804 0.127 0.0
C345 C 0.97006 0.81496 0.14527 0.0
C346 C 0.94499 0.85502 0.15564 0.0
C347 C 0.92869 0.94318 0.15796 0.0
C348 C 0.93439 0.98962 0.1474 0.0
C349 C 0.9532 0.90212 0.14717 0.0
C350 C 0.96489 0.99387 0.12606 0.0
C351 C 0.99118 0.95425 0.1166 0.0
H352 H 0.65832 0.89499 0.1181 0.0
H353 H 0.5624 1.01557 0.13171 0.0
H354 H 0.62456 0.07386 0.12352 0.0
H355 H 0.70904 0.09124 0.11706 0.0
H356 H 0.80437 0.97165 0.10082 0.0
H357 H 0.73959 0.91255 0.10463 0.0
C358 C 0.65109 0.93402 0.11908 0.0
C359 C 0.60616 0.95094 0.1261 0.0
C360 C 0.68681 0.96758 0.11363 0.0
C361 C 0.59682 1.00155 0.12667 0.0
C362 C 0.63236 0.03499 0.12194 0.0
C363 C 0.71513 0.05223 0.11354 0.0
C364 C 0.76141 0.0359 0.10857 0.0
C365 C 0.67781 1.01852 0.11595 0.0
C366 C 0.76885 0.98525 0.10417 0.0
C367 C 0.73199 0.9514 0.1068 0.0
H368 H 0.458 0.71956 0.10111 0.0
H369 H 0.56131 0.78629 0.05515 0.0
H370 H 0.60317 0.70739 0.05149 0.0
H371 H 0.61998 0.62586 0.07079 0.0
H372 H 0.52374 0.56436 0.12361 0.0
H373 H 0.47021 0.63557 0.11629 0.0
C374 C 0.48879 0.71641 0.08939 0.0
C375 C 0.50691 0.75876 0.0786 0.0
C376 C 0.51515 0.67257 0.09002 0.0
C377 C 0.5464 0.75425 0.06332 0.0
C378 C 0.57097 0.7094 0.06192 0.0
C379 C 0.5871 0.62776 0.0806 0.0
C380 C 0.5766 0.59036 0.0986 0.0
C381 C 0.55736 0.66938 0.07681 0.0
C382 C 0.53354 0.59316 0.11064 0.0
C383 C 0.50267 0.63367 0.10608 0.0
H384 H 0.92828 0.97569 0.3863 0.0
H385 H 0.84286 0.84457 0.35498 0.0
H386 H 0.77754 0.8737 0.3805 0.0
H387 H 0.73878 0.94201 0.40427 0.0
H388 H 0.82132 0.07457 0.43395 0.0
H389 H 0.8947 0.03774 0.41947 0.0
C390 C 0.89566 0.95332 0.38542 0.0
C391 C 0.89013 0.90852 0.36809 0.0
C392 C 0.85794 0.97004 0.40064 0.0
C393 C 0.84786 0.87965 0.36763 0.0
C394 C 0.81045 0.89604 0.38247 0.0
C395 C 0.7735 0.96189 0.40903 0.0
C396 C 0.77407 1.01146 0.41927 0.0
C397 C 0.81435 0.94183 0.39826 0.0
C398 C 0.8197 0.03633 0.42591 0.0
C399 C 0.86135 1.01585 0.41661 0.0
H400 H 0.6475 0.87557 0.37972 0.0
H401 H 0.53265 0.97961 0.35376 0.0
H402 H 0.47063 0.91956 0.35916 0.0
H403 H 0.44779 0.83542 0.36668 0.0
H404 H 0.56042 0.7299 0.39316 0.0
H405 H 0.62403 0.79236 0.39296 0.0
C406 C 0.60891 0.88502 0.37544 0.0
C407 C 0.59489 0.93199 0.36592 0.0
C408 C 0.57284 0.85005 0.37892 0.0
C409 C 0.54469 0.94382 0.3609 0.0
C410 C 0.509 0.90943 0.36402 0.0
C411 C 0.48627 0.82642 0.37324 0.0
C412 C 0.49919 0.77807 0.38014 0.0
C413 C 0.5225 0.86223 0.3725 0.0
C414 C 0.54929 0.767 0.38835 0.0
C415 C 0.58575 0.80261 0.38774 0.0
H416 H 0.52125 0.58315 0.3697 0.0
H417 H 0.57208 0.67521 0.30802 0.0
H418 H 0.65277 0.63632 0.31746 0.0
H419 H 0.70774 0.57434 0.34176 0.0
H420 H 0.65913 0.48398 0.40502 0.0
H421 H 0.57859 0.52419 0.39665 0.0
C422 C 0.55011 0.59489 0.35846 0.0
C423 C 0.54053 0.63189 0.33796 0.0
C424 C 0.59662 0.57253 0.36424 0.0
C425 C 0.57841 0.6469 0.32379 0.0
C426 C 0.62451 0.62453 0.32916 0.0
C427 C 0.67959 0.56338 0.35381 0.0
C428 C 0.68934 0.52576 0.37383 0.0
C429 C 0.63383 0.587 0.34907 0.0
C430 C 0.65261 0.51261 0.38948 0.0
C431 C 0.60656 0.53559 0.38462 0.0
H432 H 0.02728 0.70033 0.34795 0.0
H433 H 0.97137 0.77588 0.42043 0.0
H434 H 0.93214 0.69937 0.43004 0.0
H435 H 0.90255 0.61594 0.4121 0.0
H436 H 0.94967 0.54516 0.33519 0.0
H437 H 1.00309 0.61539 0.33252 0.0
C438 C 1.00729 0.69996 0.3663 0.0
C439 C 1.00167 0.74392 0.38328 0.0
C440 C 0.98224 0.65705 0.37021 0.0
C441 C 0.97647 0.74261 0.4072 0.0
C442 C 0.95338 0.69905 0.4123 0.0
C443 C 0.92485 0.61561 0.39486 0.0
C444 C 0.92183 0.57539 0.37358 0.0
C445 C 0.9541 0.65685 0.393 0.0
C446 C 0.9512 0.57544 0.35165 0.0
C447 C 0.98169 0.6157 0.35019 0.0
H448 H 0.05698 0.49184 0.8495 0.0
H449 H 0.08884 0.48152 0.94473 0.0
H450 H 0.15839 0.53778 0.94884 0.0
H451 H 0.21835 0.57833 0.92446 0.0
H452 H 0.18996 0.58382 0.82892 0.0
H453 H 0.11094 0.54225 0.8258 0.0
C454 C 0.07855 0.5029 0.87114 0.0
C455 C 0.06842 0.48216 0.8967 0.0
C456 C 0.11962 0.5341 0.87325 0.0
C457 C 0.09649 0.49664 0.92468 0.0
C458 C 0.13634 0.52874 0.92707 0.0
C459 C 0.19413 0.57167 0.90312 0.0
C460 C 0.20998 0.58353 0.87697 0.0
C461 C 0.14955 0.54604 0.90139 0.0
C462 C 0.17853 0.57454 0.84936 0.0
C463 C 0.13346 0.55054 0.84752 0.0
H464 H 0.09415 0.25502 0.87142 0.0
H465 H 0.97763 0.1893 0.9073 0.0
H466 H 1.00306 0.10755 0.89066 0.0
H467 H 0.05443 0.05596 0.86254 0.0
H468 H 0.16688 0.12291 0.82369 0.0
H469 H 0.14728 0.2034 0.84513 0.0
C470 C 0.0747 0.22279 0.87608 0.0
C471 C 0.034 0.22821 0.89066 0.0
C472 C 0.08857 0.17636 0.86563 0.0
C473 C 1.0091 0.1861 0.89627 0.0
C474 C 0.02343 0.13947 0.88653 0.0
C475 C 0.07458 0.08818 0.85867 0.0
C476 C 0.11193 0.08358 0.84136 0.0
C477 C 0.06229 0.13434 0.87052 0.0
C478 C 0.1378 0.12559 0.83671 0.0
C479 C 0.12681 0.17148 0.84915 0.0
H480 H 0.32539 0.97817 0.86649 0.0
H481 H 0.23261 0.10386 0.8714 0.0
H482 H 0.29847 0.1576 0.86214 0.0
H483 H 0.37979 0.16677 0.84666 0.0
H484 H 0.47445 0.04141 0.8471 0.0
H485 H 0.41098 0.98956 0.86021 0.0
C486 C 0.32029 1.01757 0.86655 0.0
C487 C 0.27432 0.03714 0.86951 0.0
C488 C 0.35838 0.04806 0.86144 0.0
C489 C 0.26787 0.08811 0.8694 0.0
C490 C 0.30534 0.11871 0.86372 0.0
C491 C 0.3864 0.12817 0.84983 0.0
C492 C 0.43115 0.10749 0.845 0.0
C493 C 0.3502 0.09882 0.85862 0.0
C494 C 0.43997 0.05785 0.85005 0.0
C495 C 0.40374 0.02821 0.8577 0.0
H496 H 0.5207 0.339 0.82864 0.0
H497 H 0.4772 0.28596 0.90713 0.0
H498 H 0.44252 0.3663 0.9178 0.0
H499 H 0.41943 0.44911 0.90273 0.0
H500 H 0.46252 0.50218 0.82425 0.0
H501 H 0.50318 0.42397 0.8157 0.0
C502 C 0.50371 0.34489 0.84815 0.0
C503 C 0.50083 0.30616 0.86685 0.0
C504 C 0.48379 0.39099 0.85402 0.0
C505 C 0.47967 0.31494 0.89234 0.0
C506 C 0.45974 0.36081 0.89836 0.0
C507 C 0.43795 0.44364 0.8838 0.0
C508 C 0.43741 0.48094 0.86382 0.0
C509 C 0.46078 0.3987 0.87904 0.0
C510 C 0.46223 0.47384 0.83976 0.0
C511 C 0.48526 0.42912 0.83487 0.0
H512 H 0.16031 0.17817 0.61378 0.0
H513 H 0.07098 0.04839 0.61197 0.0
H514 H 0.12488 1.002 0.58379 0.0
H515 H 0.20649 0.9945 0.57055 0.0
H516 H 0.30049 0.12153 0.57784 0.0
H517 H 0.23459 0.17367 0.59071 0.0
C518 C 0.15232 0.13992 0.6068 0.0
C519 C 0.1127 0.11623 0.61569 0.0
C520 C 0.18406 0.11326 0.59107 0.0
C521 C 0.10199 0.06703 0.60598 0.0
C522 C 0.13262 0.0406 0.5897 0.0
C523 C 0.21137 0.03406 0.57315 0.0
C524 C 0.25848 0.05407 0.57399 0.0
C525 C 0.17499 0.06276 0.58341 0.0
C526 C 0.26459 0.10523 0.57715 0.0
C527 C 0.22731 0.13483 0.58549 0.0
H528 H 0.52268 0.26772 0.67937 0.0
H529 H 0.52893 0.253 0.58584 0.0
H530 H 0.47967 0.1766 0.58072 0.0
H531 H 0.43766 0.11145 0.60422 0.0
H532 H 0.43324 0.1307 0.69818 0.0
H533 H 0.47728 0.20821 0.70144 0.0
C534 C 0.51297 0.24809 0.65772 0.0
C535 C 0.52988 0.26591 0.63307 0.0
C536 C 0.48461 0.20482 0.65504 0.0
C537 C 0.51638 0.24024 0.60516 0.0
C538 C 0.48842 0.19637 0.60233 0.0
C539 C 0.44651 0.13264 0.62537 0.0
C540 C 0.43222 0.11473 0.65101 0.0
C541 C 0.47289 0.17776 0.6273 0.0
C542 C 0.44369 0.14308 0.67813 0.0
C543 C 0.46892 0.18766 0.68005 0.0
H544 H 0.32258 0.47786 0.66081 0.0
H545 H 0.37172 0.55948 0.59374 0.0
H546 H 0.45311 0.52174 0.60525 0.0
H547 H 0.51043 0.46756 0.63557 0.0
H548 H 0.46006 0.38417 0.70145 0.0
H549 H 0.3785 0.42085 0.68928 0.0
C550 C 0.35105 0.48743 0.64864 0.0
C551 C 0.34126 0.52174 0.62655 0.0
C552 C 0.39733 0.46538 0.65527 0.0
C553 C 0.37838 0.53333 0.61083 0.0
C554 C 0.42485 0.5118 0.61748 0.0
C555 C 0.48153 0.45707 0.64712 0.0
C556 C 0.4913 0.42319 0.66948 0.0
C557 C 0.43478 0.47806 0.63979 0.0
C558 C 0.45347 0.4101 0.68423 0.0
C559 C 0.40693 0.43114 0.67728 0.0
H560 H 0.11584 0.43453 0.5801 0.0
H561 H 0.07914 0.50331 0.66068 0.0
H562 H 0.02778 0.43218 0.66541 0.0
H563 H 1.00273 0.34682 0.65026 0.0
H564 H 0.04493 0.27506 0.57206 0.0
H565 H 0.08352 0.35174 0.56209 0.0
C566 C 0.09619 0.43424 0.59858 0.0
C567 C 0.10184 0.47402 0.62031 0.0
C568 C 0.06772 0.39271 0.60142 0.0
C569 C 0.07561 0.4733 0.6438 0.0
C570 C 0.04639 0.4325 0.6465 0.0
C571 C 0.01953 0.34809 0.63064 0.0
C572 C 0.02134 0.30496 0.61202 0.0
C573 C 0.04346 0.39148 0.62595 0.0
C574 C 0.04268 0.30756 0.58657 0.0
C575 C 0.06535 0.35128 0.58118 0.0
H576 H 0.03904 0.66932 0.19672 0.0
H577 H 0.13405 0.79366 0.1938 0.0
H578 H 0.07315 0.84868 0.21049 0.0
H579 H 0.99595 0.85955 0.22829 0.0
H580 H 0.90613 0.73406 0.23588 0.0
H581 H 0.95906 0.68127 0.21044 0.0
C582 C 0.04723 0.70828 0.20048 0.0
C583 C 0.09152 0.72754 0.19502 0.0
C584 C 1.01171 0.73935 0.20883 0.0
C585 C 0.10069 0.77823 0.19887 0.0
C586 C 0.0656 0.80958 0.20769 0.0
C587 C 0.98713 0.82087 0.22343 0.0
C588 C 0.94896 0.79982 0.23487 0.0
C589 C 0.02107 0.79038 0.21267 0.0
C590 C 0.936 0.75051 0.22739 0.0
C591 C 0.96728 0.72021 0.21402 0.0
H592 H 0.71263 0.09943 0.26913 0.0
H593 H 0.84509 0.03281 0.31392 0.0
H594 H 0.89409 0.10063 0.30138 0.0
H595 H 0.89835 0.16987 0.27064 0.0
H596 H 0.76647 0.22578 0.21999 0.0
H597 H 0.71665 0.17715 0.24659 0.0
C598 C 0.75228 0.09919 0.27596 0.0
C599 C 0.77577 0.06011 0.29113 0.0
C600 C 0.77944 0.1384 0.26955 0.0
C601 C 0.82683 0.06156 0.30092 0.0
C602 C 0.85448 0.10084 0.29456 0.0
C603 C 0.85857 0.1727 0.26644 0.0
C604 C 0.8351 0.19498 0.241 0.0
C605 C 0.83114 0.13864 0.27817 0.0
C606 C 0.78478 0.20458 0.23794 0.0
C607 C 0.75635 0.17536 0.25225 0.0
H608 H 0.44361 0.85723 0.23675 0.0
H609 H 0.47618 0.7231 0.18899 0.0
H610 H 0.39658 0.68886 0.19302 0.0
H611 H 0.3222 0.69449 0.21422 0.0
H612 H 0.30208 0.81692 0.27329 0.0
H613 H 0.36551 0.86366 0.25564 0.0
C614 C 0.43364 0.82024 0.22761 0.0
C615 C 0.46587 0.79253 0.21288 0.0
C616 C 0.38793 0.80096 0.22977 0.0
C617 C 0.4523 0.74476 0.20095 0.0
C618 C 0.40623 0.72577 0.20232 0.0
C619 C 0.33093 0.73223 0.22234 0.0
C620 C 0.31584 0.74976 0.24861 0.0
C621 C 0.37388 0.75355 0.21668 0.0
C622 C 0.31925 0.80053 0.25558 0.0
C623 C 0.35695 0.82645 0.24654 0.0
H624 H 0.65182 0.43224 0.22766 0.0
H625 H 0.77616 0.45634 0.18476 0.0
H626 H 0.8278 0.40825 0.22046 0.0
H627 H 0.84051 0.37259 0.26784 0.0
H628 H 0.72145 0.36508 0.3165 0.0
H629 H 0.66301 0.38586 0.27249 0.0
C630 C 0.69033 0.4273 0.22636 0.0
C631 C 0.71065 0.44935 0.20449 0.0
C632 C 0.71991 0.39997 0.247 0.0
C633 C 0.76021 0.44168 0.20237 0.0
C634 C 0.78947 0.41298 0.22217 0.0
C635 C 0.80152 0.37422 0.26853 0.0
C636 C 0.78534 0.37278 0.29564 0.0
C637 C 0.77004 0.39345 0.24509 0.0
C638 C 0.73478 0.3697 0.29596 0.0
C639 C 0.70162 0.38284 0.27114 0.0
H640 H 0.12563 0.29234 0.74877 0.0
H641 H 0.07333 0.15368 0.77085 0.0
H642 H 0.03045 0.19483 0.80726 0.0
H643 H 0.99071 0.26993 0.82175 0.0
H644 H 0.03322 0.40873 0.79285 0.0
H645 H 0.09576 0.3681 0.76925 0.0
C646 C 0.10716 0.27125 0.76293 0.0
C647 C 0.09886 0.22114 0.75592 0.0
C648 C 0.07849 0.29553 0.78122 0.0
C649 C 0.07792 0.19303 0.77513 0.0
C650 C 0.05219 0.21663 0.79532 0.0
C651 C 1.01361 0.29134 0.81029 0.0
C652 C 1.00639 0.34189 0.80822 0.0
C653 C 0.04895 0.26785 0.79651 0.0
C654 C 0.03709 0.36939 0.79394 0.0
C655 C 0.07347 0.34643 0.78092 0.0
H656 H 0.28248 0.86125 0.69312 0.0
H657 H 0.18704 0.97851 0.66085 0.0
H658 H 0.11792 0.93869 0.67659 0.0
H659 H 0.09996 0.89541 0.71785 0.0
H660 H 0.20948 0.80367 0.76471 0.0
H661 H 0.25422 0.80136 0.72344 0.0
C662 C 0.24617 0.87733 0.68906 0.0
C663 C 0.23979 0.92407 0.67825 0.0
C664 C 0.20837 0.85656 0.70046 0.0
C665 C 0.19274 0.94388 0.67123 0.0
C666 C 0.15326 0.92068 0.67969 0.0
C667 C 0.13237 0.873 0.71803 0.0
C668 C 0.1548 0.85396 0.7447 0.0
C669 C 0.16232 0.88043 0.69735 0.0
C670 C 0.19355 0.82105 0.74461 0.0
C671 C 0.21979 0.82097 0.72134 0.0
H672 H 0.63975 0.18755 0.78676 0.0
H673 H 0.56359 0.15996 0.69653 0.0
H674 H 0.6355 0.18904 0.67796 0.0
H675 H 0.70023 0.25082 0.68905 0.0
H676 H 0.75363 0.30254 0.77965 0.0
H677 H 0.71859 0.23009 0.797 0.0
C678 C 0.63984 0.18586 0.76301 0.0
C679 C 0.59605 0.1749 0.74282 0.0
C680 C 0.67928 0.20641 0.75299 0.0
C681 C 0.59621 0.17129 0.71223 0.0
C682 C 0.63752 0.18743 0.70177 0.0
C683 C 0.7063 0.24472 0.71256 0.0
C684 C 0.72564 0.28325 0.73315 0.0
C685 C 0.67678 0.20983 0.72206 0.0
C686 C 0.73632 0.27437 0.76342 0.0
C687 C 0.71474 0.23387 0.77328 0.0
H688 H 0.30196 0.66662 0.68449 0.0
H689 H 0.16803 0.69895 0.71766 0.0
H690 H 0.21425 0.71272 0.76788 0.0
H691 H 0.2859 0.68898 0.80218 0.0
H692 H 0.41557 0.6397 0.7691 0.0
H693 H 0.37878 0.6611 0.71913 0.0
C694 C 0.28316 0.6783 0.70258 0.0
C695 C 0.23187 0.67843 0.69816 0.0
C696 C 0.30937 0.6826 0.73151 0.0
C697 C 0.20768 0.69608 0.72112 0.0
C698 C 0.234 0.70399 0.74981 0.0
C699 C 0.30639 0.6837 0.78411 0.0
C700 C 0.35158 0.65999 0.78847 0.0
C701 C 0.28394 0.69285 0.75541 0.0
C702 C 0.37929 0.65569 0.76558 0.0
C703 C 0.35851 0.6682 0.73714 0.0
H704 H 0.19312 0.75186 0.11816 0.0
H705 H 0.29558 0.63446 0.1383 0.0
H706 H 0.3642 0.68982 0.13687 0.0
H707 H 0.3964 0.77244 0.13082 0.0
H708 H 0.29448 0.89018 0.11051 0.0
H709 H 0.22553 0.83487 0.11191 0.0
C710 C 0.23043 0.73836 0.12218 0.0
C711 C 0.23875 0.6886 0.12819 0.0
C712 C 0.27038 0.77095 0.1218 0.0
C713 C 0.28767 0.67225 0.13348 0.0
C714 C 0.3272 0.7041 0.13285 0.0
C715 C 0.35914 0.7861 0.12676 0.0
C716 C 0.351 0.83576 0.12047 0.0
C717 C 0.31922 0.75368 0.12725 0.0
C718 C 0.30217 0.85237 0.11535 0.0
C719 C 0.26252 0.82058 0.11608 0.0
H720 H 0.76604 0.19981 0.08025 0.0
H721 H 0.86596 0.25899 0.15772 0.0
H722 H 0.80737 0.32397 0.1653 0.0
H723 H 0.72825 0.36533 0.14924 0.0
H724 H 0.62451 0.30184 0.07489 0.0
H725 H 0.68361 0.2374 0.0667 0.0
C726 C 0.77494 0.22696 0.09878 0.0
C727 C 0.82079 0.22485 0.11819 0.0
C728 C 0.74025 0.26353 0.1035 0.0
C729 C 0.83124 0.25982 0.1424 0.0
C730 C 0.79769 0.29706 0.1467 0.0
C731 C 0.71849 0.33729 0.13127 0.0
C732 C 0.67201 0.33874 0.11248 0.0
C733 C 0.7522 0.29953 0.12729 0.0
C734 C 0.65985 0.30167 0.08962 0.0
C735 C 0.69379 0.26487 0.08492 0.0
H736 H 0.31791 0.76446 0.35284 0.0
H737 H 0.23751 0.63382 0.36335 0.0
H738 H 0.16069 0.68047 0.35726 0.0
H739 H 0.11597 0.7598 0.34994 0.0
H740 H 0.19826 0.88998 0.34055 0.0
H741 H 0.27369 0.84226 0.34434 0.0
C742 C 0.28353 0.74587 0.35337 0.0
C743 C 0.28386 0.69519 0.35823 0.0
C744 C 0.23937 0.77312 0.34987 0.0
C745 C 0.23875 0.67251 0.3596 0.0
C746 C 0.19463 0.69931 0.35603 0.0
C747 C 0.15028 0.77763 0.34834 0.0
C748 C 0.15095 0.82884 0.34474 0.0
C749 C 0.19433 0.7498 0.3512 0.0
C750 C 0.19624 0.85096 0.34319 0.0
C751 C 0.23962 0.82359 0.3455 0.0
H752 H 0.78817 0.353 0.38341 0.0
H753 H 0.90772 0.2612 0.36564 0.0
H754 H 0.85443 0.18873 0.36024 0.0
H755 H 0.77259 0.15089 0.35901 0.0
H756 H 0.65164 0.24395 0.37281 0.0
H757 H 0.70582 0.31582 0.38016 0.0
C758 C 0.80261 0.31726 0.37826 0.0
C759 C 0.85214 0.313 0.37478 0.0
C760 C 0.77106 0.27561 0.374 0.0
C761 C 0.86997 0.26589 0.36857 0.0
C762 C 0.83933 0.22427 0.36524 0.0
C763 C 0.75806 0.18692 0.36352 0.0
C764 C 0.70791 0.19163 0.36548 0.0
C765 C 0.78958 0.22861 0.36756 0.0
C766 C 0.6899 0.23888 0.37115 0.0
C767 C 0.72103 0.28018 0.37555 0.0
H768 H 0.73847 0.20545 0.8796 0.0
H769 H 0.62321 0.28225 0.82494 0.0
H770 H 0.68064 0.34867 0.82147 0.0
H771 H 0.76405 0.38628 0.83441 0.0
H772 H 0.87942 0.30943 0.88867 0.0
H773 H 0.82224 0.24246 0.89181 0.0
C774 C 0.72595 0.23659 0.8668 0.0
C775 C 0.67623 0.23849 0.85258 0.0
C776 C 0.75945 0.27511 0.86492 0.0
C777 C 0.66098 0.27948 0.83618 0.0
C778 C 0.69392 0.31774 0.83424 0.0
C779 C 0.77664 0.35496 0.84703 0.0
C780 C 0.82627 0.35322 0.86142 0.0
C781 C 0.74326 0.31621 0.84863 0.0
C782 C 0.84172 0.31196 0.87741 0.0
C783 C 0.80887 0.27352 0.87919 0.0
H784 H 0.32527 0.70343 0.89813 0.0
H785 H 0.40446 0.78752 0.84516 0.0
H786 H 0.33824 0.84725 0.83865 0.0
H787 H 0.25805 0.87668 0.84812 0.0
H788 H 0.17735 0.79386 0.90086 0.0
H789 H 0.24299 0.73259 0.9069 0.0
C790 C 0.32799 0.73482 0.88518 0.0
C791 C 0.3703 0.74079 0.87228 0.0
C792 C 0.28913 0.76929 0.8813 0.0
C793 C 0.37288 0.78189 0.85556 0.0
C794 C 0.33475 0.8161 0.8517 0.0
C795 C 0.25449 0.84512 0.86082 0.0
C796 C 0.21238 0.84015 0.87399 0.0
C797 C 0.2927 0.81029 0.86444 0.0
C798 C 0.20901 0.79885 0.89043 0.0
C799 C 0.24677 0.76381 0.89397 0.0
H800 H 0.90326 0.28857 0.64375 0.0
H801 H 0.8223 0.15863 0.65542 0.0
H802 H 0.74703 0.20598 0.65268 0.0
H803 H 0.70247 0.28334 0.64425 0.0
H804 H 0.78128 0.41413 0.63257 0.0
H805 H 0.85829 0.36781 0.63724 0.0
C806 C 0.86933 0.27091 0.64632 0.0
C807 C 0.86871 0.2199 0.65005 0.0
C808 C 0.82541 0.29854 0.64421 0.0
C809 C 0.82405 0.19767 0.65271 0.0
C810 C 0.7808 0.22476 0.651 0.0
C811 C 0.73671 0.30189 0.64337 0.0
C812 C 0.73615 0.35236 0.63868 0.0
C813 C 0.78079 0.27503 0.64636 0.0
C814 C 0.78057 0.37541 0.63632 0.0
C815 C 0.82471 0.3489 0.63914 0.0
H816 H 0.26601 0.89495 0.6147 0.0
H817 H 0.38836 0.7995 0.60888 0.0
H818 H 0.33463 0.72755 0.60803 0.0
H819 H 0.25162 0.69112 0.60915 0.0
H820 H 0.13124 0.78886 0.61652 0.0
H821 H 0.18493 0.85953 0.61658 0.0
C822 C 0.28125 0.85845 0.61348 0.0
C823 C 0.33172 0.85315 0.61207 0.0
C824 C 0.25001 0.81716 0.6131 0.0
C825 C 0.35001 0.80516 0.61009 0.0
C826 C 0.31908 0.76383 0.60957 0.0
C827 C 0.23704 0.72784 0.61058 0.0
C828 C 0.18673 0.73408 0.61257 0.0
C829 C 0.2688 0.76919 0.61101 0.0
C830 C 0.16924 0.78237 0.61468 0.0
C831 C 0.20014 0.82311 0.61483 0.0
H832 H 0.99399 0.54727 0.93771 0.0
H833 H 0.94442 0.42589 0.9811 0.0
H834 H 0.99307 0.45704 0.02858 0.0
H835 H 0.05164 0.51684 0.05744 0.0
H836 H 0.09852 0.64044 0.0149 0.0
H837 H 0.05091 0.60875 0.96707 0.0
C838 C 0.99275 0.52815 0.95764 0.0
C839 C 0.96497 0.48436 0.95571 0.0
C840 C 0.02189 0.54561 0.98481 0.0
C841 C 0.96498 0.45978 0.98183 0.0
C842 C 0.99337 0.47724 0.00896 0.0
C843 C 0.05228 0.53656 0.03766 0.0
C844 C 0.07912 0.58092 0.03987 0.0
C845 C 0.02275 0.51951 0.01058 0.0
C846 C 0.07851 0.60616 0.01394 0.0
C847 C 0.05075 0.58836 0.98662 0.0
H848 H 0.0291 0.95991 0.95457 0.0
H849 H 0.12158 0.08824 0.96039 0.0
H850 H 0.08561 0.12341 0.00223 0.0
H851 H 0.02644 0.11768 0.03685 0.0
H852 H 0.93349 0.98915 0.02934 0.0
H853 H 0.97095 0.9541 0.98857 0.0
C854 C 0.04156 0.99551 0.96509 0.0
C855 C 0.07806 1.02138 0.95458 0.0
C856 C 0.02044 1.0155 0.9888 0.0
C857 C 0.09368 0.06754 0.96827 0.0
C858 C 0.07303 0.08765 0.99211 0.0
C859 C 1.01453 0.08202 0.02622 0.0
C860 C 0.97716 0.0561 0.03601 0.0
C861 C 0.03619 0.06204 0.00254 0.0
C862 C 0.96202 1.00994 0.02212 0.0
C863 C 0.98347 0.9898 -0.00117 0.0
H864 H 0.47349 0.10907 0.94783 0.0
H865 H 0.62777 0.07498 0.967 0.0
H866 H 0.6139 1.02529 0.0074 0.0
H867 H 0.5576 0.98887 0.03587 0.0
H868 H 0.40321 1.02227 0.01714 0.0
H869 H 0.41724 0.07468 0.97777 0.0
C870 C 0.5041 0.09124 0.96111 0.0
C871 C 0.55164 0.09574 0.95454 0.0
C872 C 0.49571 0.06215 0.98408 0.0
C873 C 0.59093 0.07216 0.97172 0.0
C874 C 0.58298 0.04356 -0.00527 0.0
C875 C 0.52699 1.00753 0.02312 0.0
C876 C 0.47935 1.00142 0.02914 0.0
C877 C 0.53545 0.03777 0.0008 0.0
C878 C 0.44014 1.02626 0.01274 0.0
C879 C 0.44819 0.05628 0.9903 0.0
H880 H 0.50461 0.51579 0.05241 0.0
H881 H 0.61453 0.43929 0.01156 0.0
H882 H 0.5856 0.47927 0.96513 0.0
H883 H 0.53038 0.53747 0.93705 0.0
H884 H 0.4229 0.61537 0.97935 0.0
H885 H 0.4511 0.5742 0.02513 0.0
C886 C 0.52176 0.50688 0.03323 0.0
C887 C 0.56113 0.47387 0.03522 0.0
C888 C 0.50636 0.53131 0.00732 0.0
C889 C 0.5837 0.46402 0.01037 0.0
C890 C 0.56754 0.48725 0.98402 0.0
C891 C 0.51369 0.54605 0.95646 0.0
C892 C 0.47488 0.57969 0.95498 0.0
C893 C 0.5294 0.52153 0.98245 0.0
C894 C 0.45293 0.58974 0.98005 0.0
C895 C 0.46875 0.56596 0.00609 0.0
H896 H 0.04496 0.10035 0.5353 0.0
H897 H 0.90583 0.02966 0.5356 0.0
H898 H 0.91461 0.97921 0.49057 0.0
H899 H 0.9629 0.95409 0.45192 0.0
H900 H 0.10191 1.02503 0.45163 0.0
H901 H 0.09253 0.07624 0.49623 0.0
C902 C 1.01636 0.07417 0.52539 0.0
C903 C 0.97462 0.06884 0.53864 0.0
C904 C 0.02202 0.04499 0.49979 0.0
C905 C 0.93814 0.03448 0.52573 0.0
C906 C 0.94327 1.00554 0.50007 0.0
C907 C 0.99125 0.98061 0.46171 0.0
C908 C 0.03331 0.98555 0.44869 0.0
C909 C 0.98527 1.01022 0.48709 0.0
C910 C 0.06942 1.02044 0.46136 0.0
C911 C 0.06397 0.04977 0.48679 0.0
H912 H 0.51601 0.06239 0.55017 0.0
H913 H 0.4233 0.94832 0.49957 0.0
H914 H 0.44972 0.97039 0.45393 0.0
H915 H 0.50046 1.02051 0.42888 0.0
H916 H 0.59498 0.13345 0.47912 0.0
H917 H 0.56552 0.11439 0.52458 0.0
C918 C 0.50197 0.04226 0.52914 0.0
C919 C 0.4683 1.00358 0.52804 0.0
C920 C 0.51695 0.05545 0.50303 0.0
C921 C 0.44962 0.97803 0.50079 0.0
C922 C 0.46445 0.99077 0.47474 0.0
C923 C 0.51403 0.04143 0.44971 0.0
C924 C 0.54958 0.0783 0.45087 0.0
C925 C 0.49806 0.02937 0.47564 0.0
C926 C 0.56732 0.10501 0.47788 0.0
C927 C 0.55083 0.09386 0.50383 0.0
H928 H 0.58245 0.53422 0.54991 0.0
H929 H 0.4725 0.41972 0.53899 0.0
H930 H 0.43425 0.44943 0.49086 0.0
H931 H 0.43228 0.50824 0.45145 0.0
H932 H 0.54217 0.62303 0.4632 0.0
H933 H 0.58013 0.59302 0.51106 0.0
C934 C 0.55003 0.51584 0.537 0.0
C935 C 0.53039 0.47477 0.54801 0.0
C936 C 0.52827 0.53317 0.50934 0.0
C937 C 0.48837 0.4514 0.53103 0.0
C938 C 0.46652 0.46836 0.50347 0.0
C939 C 0.4646 0.52653 0.46451 0.0
C940 C 0.48439 0.56782 0.45372 0.0
C941 C 0.48619 0.50918 0.49229 0.0
C942 C 0.52616 0.59124 0.47095 0.0
C943 C 0.54791 0.57409 0.49837 0.0
H944 H 0.01966 0.53413 0.55479 0.0
H945 H 0.13391 0.58781 0.51172 0.0
H946 H 0.09016 0.55284 0.46356 0.0
H947 H 0.01899 0.50825 0.43404 0.0
H948 H 0.90547 0.45463 0.47785 0.0
H949 H 0.95011 0.48828 0.52577 0.0
C950 C 0.03488 0.53878 0.53486 0.0
C951 C 0.07962 0.56417 0.53671 0.0
C952 C 1.01002 0.51818 0.50756 0.0
C953 C 0.09935 0.5687 0.51079 0.0
C954 C 0.07444 0.54862 0.48333 0.0
C955 C 1.00424 0.5033 0.45409 0.0
C956 C 0.95896 0.47883 0.45236 0.0
C957 C 0.02978 0.52323 0.48151 0.0
C958 C 0.94018 0.47333 0.47854 0.0
C959 C 0.96559 0.49268 0.50593 0.0
H960 H 0.07157 0.46509 0.30428 0.0
H961 H 0.92411 0.45641 0.25347 0.0
H962 H 0.95439 0.47317 0.20842 0.0
H963 H 0.02152 0.49576 0.18317 0.0
H964 H 0.16897 0.50977 0.2331 0.0
H965 H 0.14048 0.48529 0.2779 0.0
C966 C 0.04626 0.46639 0.28329 0.0
C967 C 0.9954 0.45946 0.28259 0.0
C968 C 0.064 0.47714 0.25695 0.0
C969 C 0.96331 0.4618 0.25502 0.0
C970 C 0.98061 0.47138 0.22901 0.0
C971 C 0.04769 0.49244 0.20366 0.0
C972 C 0.09758 0.50402 0.20445 0.0
C973 C 0.03073 0.47976 0.22966 0.0
C974 C 0.1305 0.50055 0.23158 0.0
C975 C 0.11408 0.48685 0.25738 0.0
H976 H 1.01667 0.04858 0.30006 0.0
H977 H 0.06027 0.92057 0.25127 0.0
H978 H 0.05205 0.96476 0.20647 0.0
H979 H 0.0258 0.03796 0.1788 0.0
H980 H 0.98847 0.16854 0.22747 0.0
H981 H 1.0026 0.1264 0.27359 0.0
C982 C 0.02543 0.03062 0.27988 0.0
C983 C 0.03808 0.98037 0.27957 0.0
C984 C 0.02179 0.057 0.25351 0.0
C985 C 0.04934 0.95858 0.2527 0.0
C986 C 0.0449 0.98402 0.22669 0.0
C987 C 0.02164 0.05766 0.19948 0.0
C988 C 1.00443 0.10637 0.19888 0.0
C989 C 0.0301 0.03302 0.22648 0.0
C990 C 1.00064 0.13087 0.22659 0.0
C991 C 1.00851 0.10659 0.25326 0.0
H992 H 0.49719 0.0423 0.29598 0.0
H993 H 0.60624 0.12581 0.26352 0.0
H994 H 0.56692 0.10421 0.21223 0.0
H995 H 0.51276 0.04698 0.17706 0.0
H996 H 0.40529 0.96147 0.20957 0.0
H997 H 0.43157 0.99912 0.2597 0.0
C998 C 0.51101 0.05755 0.27772 0.0
C999 C 0.55491 0.08529 0.28371 0.0
C1000 C 0.48884 0.04378 0.24797 0.0
C1001 C 0.57265 0.10414 0.25962 0.0
C1002 C 0.55036 0.09146 0.23016 0.0
C1003 C 0.49353 0.03837 0.19479 0.0
C1004 C 0.45724 1.00122 0.18948 0.0
C1005 C 0.50998 0.05917 0.22402 0.0
C1006 C 0.43333 0.98995 0.21298 0.0
C1007 C 0.44874 1.01112 0.24184 0.0
H1008 H 0.40681 0.47431 0.28279 0.0
H1009 H 0.43222 0.62791 0.27469 0.0
H1010 H 0.46697 0.61031 0.23088 0.0
H1011 H 0.49299 0.55252 0.19448 0.0
H1012 H 0.47199 0.3976 0.19988 0.0
H1013 H 0.43325 0.41394 0.24402 0.0
C1014 C 0.41989 0.50379 0.27139 0.0
C1015 C 0.4155 0.55313 0.28241 0.0
C1016 C 0.44094 0.49301 0.24525 0.0
C1017 C 0.43331 0.59016 0.26696 0.0
C1018 C 0.45387 0.58001 0.24165 0.0
C1019 C 0.47958 0.52212 0.20505 0.0
C1020 C 0.48532 0.47389 0.19353 0.0
C1021 C 0.45792 0.53177 0.2305 0.0
C1022 C 0.46779 0.43522 0.20792 0.0
C1023 C 0.44583 0.44463 0.23339 0.0
H1024 H 0.06474 0.62414 0.7316 0.0
H1025 H 0.94844 0.56492 0.66302 0.0
H1026 H 0.90395 0.53815 0.70131 0.0
H1027 H 0.90181 0.52558 0.75479 0.0
H1028 H 0.01698 0.58927 0.82274 0.0
H1029 H 0.05775 0.62057 0.78448 0.0
C1030 C 0.02921 0.60608 0.72499 0.0
C1031 C 1.01001 0.59651 0.69437 0.0
C1032 C 1.00367 0.59142 0.74718 0.0
C1033 C 0.9639 0.57317 0.6863 0.0
C1034 C 0.93864 0.55757 0.70828 0.0
C1035 C 0.93524 0.54729 0.76122 0.0
C1036 C 0.9561 0.55509 0.79183 0.0
C1037 C 0.95855 0.5657 0.73886 0.0
C1038 C 0.99966 0.58305 0.79959 0.0
C1039 C 0.02329 0.60069 0.77761 0.0
H1040 H 0.99771 0.99814 0.69 0.0
H1041 H 0.95088 0.12625 0.73734 0.0
H1042 H 0.96364 0.08463 0.78314 0.0
H1043 H 0.99764 1.01573 0.81208 0.0
H1044 H 0.03842 0.88423 0.76567 0.0
H1045 H 1.0163 0.92209 0.71809 0.0
C1046 C 0.98888 1.01647 0.71006 0.0
C1047 C 0.97418 0.06614 0.70969 0.0
C1048 C 0.99546 0.99164 0.73712 0.0
C1049 C 0.96308 0.08858 0.73642 0.0
C1050 C 0.97036 0.06472 0.76302 0.0
C1051 C 1.00053 0.9946 0.7916 0.0
C1052 C 0.02077 0.94713 0.79305 0.0
C1053 C 0.988 1.01676 0.76398 0.0
C1054 C 0.02358 0.92094 0.76574 0.0
C1055 C 1.01143 0.94285 0.73831 0.0
H1056 H 0.46351 0.94355 0.72527 0.0
H1057 H 0.548 1.01792 0.67048 0.0
H1058 H 0.60322 0.05111 0.71499 0.0
H1059 H 0.61895 0.07028 0.76916 0.0
H1060 H 0.53256 0.99916 0.82406 0.0
H1061 H 0.48823 0.95223 0.78012 0.0
C1062 C 0.49475 0.96594 0.72295 0.0
C1063 C 0.50101 0.97841 0.69429 0.0
C1064 C 0.52605 0.98588 0.74883 0.0
C1065 C 0.542 1.00742 0.692 0.0
C1066 C 0.57357 1.02679 0.71758 0.0
C1067 C 0.59137 0.04348 0.77171 0.0
C1068 C 0.57799 0.03977 0.79993 0.0
C1069 C 0.56479 1.01784 0.7461 0.0
C1070 C 0.54291 1.00398 0.80271 0.0
C1071 C 0.51721 0.97728 0.77743 0.0
H1072 H 0.52731 0.62859 0.77221 0.0
H1073 H 0.61324 0.5454 0.83977 0.0
H1074 H 0.65739 0.50708 0.8026 0.0
H1075 H 0.66576 0.49082 0.7504 0.0
H1076 H 0.57428 0.56747 0.68159 0.0
H1077 H 0.53934 0.61547 0.71968 0.0
C1078 C 0.55641 0.60279 0.77892 0.0
C1079 C 0.56716 0.59024 0.80898 0.0
C1080 C 0.58067 0.5796 0.75707 0.0
C1081 C 0.60436 0.55604 0.81701 0.0
C1082 C 0.62953 0.53398 0.79566 0.0
C1083 C 0.63897 0.51874 0.74351 0.0
C1084 C 0.62306 0.52524 0.71273 0.0
C1085 C 0.61728 0.54463 0.76551 0.0
C1086 C 0.58788 0.56163 0.70483 0.0
C1087 C 0.56739 0.58881 0.72671 0.0
loop_
_geom_bond_atom_site_label_1
_geom_bond_atom_site_label_2
_geom_bond_distance
_geom_bond_site_symmetry_2
_ccdc_geom_bond_type
Tb0 O3 2.453 . S
Tb0 O4 2.596 . S
Tb0 O5 2.374 . S
Tb0 O13 2.343 . S
Tb0 O15 2.353 . S
Tb0 O17 2.427 . S
Tb0 O18 2.513 . S
C1 O5 1.251 . S
C1 O7 1.263 . S
Tb2 O4 2.343 . S
Tb2 O7 2.353 . S
Tb2 O10 2.427 . S
Tb2 O11 2.513 . S
Tb2 O12 2.453 1_455 S
Tb2 O13 2.596 . S
Tb2 O14 2.374 . S
O3 Tb0 2.453 . S
O3 C19 1.245 . S
O4 Tb0 2.596 . S
O4 Tb2 2.343 . S
O4 C19 1.259 . S
O5 Tb0 2.374 . S
O5 C1 1.251 . S
C6 O10 1.275 . S
C6 O11 1.246 . S
O7 C1 1.263 . S
O7 Tb2 2.353 . S
C8 O12 1.245 1_455 S
C8 O13 1.259 . S
C9 O14 1.250 . S
C9 O15 1.263 . S
O10 Tb2 2.427 . S
O10 C6 1.275 . S
O11 Tb2 2.513 . S
O11 C6 1.246 . S
O12 Tb2 2.453 1_655 S
O12 C8 1.245 1_655 S
O13 Tb0 2.343 . S
O13 Tb2 2.596 . S
O13 C8 1.259 . S
O14 Tb2 2.374 . S
O14 C9 1.250 . S
O15 Tb0 2.353 . S
O15 C9 1.263 . S
C16 O17 1.275 . S
C16 O18 1.246 . S
O17 Tb0 2.427 . S
O17 C16 1.275 . S
O18 Tb0 2.513 . S
O18 C16 1.246 . S
C19 O3 1.245 . S
C19 O4 1.259 . S
Tb20 O23 2.453 . S
Tb20 O24 2.596 . S
Tb20 O25 2.374 . S
Tb20 O33 2.343 . S
Tb20 O35 2.353 . S
Tb20 O37 2.427 . S
Tb20 O38 2.513 . S
C21 O25 1.251 . S
C21 O27 1.263 . S
Tb22 O24 2.343 . S
Tb22 O27 2.353 . S
Tb22 O30 2.427 . S
Tb22 O31 2.513 . S
Tb22 O32 2.453 . S
Tb22 O33 2.596 . S
Tb22 O34 2.374 . S
O23 Tb20 2.453 . S
O23 C39 1.245 . S
O24 Tb20 2.596 . S
O24 Tb22 2.343 . S
O24 C39 1.259 . S
O25 Tb20 2.374 . S
O25 C21 1.251 . S
C26 O30 1.275 . S
C26 O31 1.246 . S
O27 C21 1.263 . S
O27 Tb22 2.353 . S
C28 O32 1.245 . S
C28 O33 1.259 . S
C29 O34 1.250 . S
C29 O35 1.263 . S
O30 Tb22 2.427 . S
O30 C26 1.275 . S
O31 Tb22 2.513 . S
O31 C26 1.246 . S
O32 Tb22 2.453 . S
O32 C28 1.245 . S
O33 Tb20 2.343 . S
O33 Tb22 2.596 . S
O33 C28 1.259 . S
O34 Tb22 2.374 . S
O34 C29 1.250 . S
O35 Tb20 2.353 . S
O35 C29 1.263 . S
C36 O37 1.275 . S
C36 O38 1.246 . S
O37 Tb20 2.427 . S
O37 C36 1.275 . S
O38 Tb20 2.513 . S
O38 C36 1.246 . S
C39 O23 1.245 . S
C39 O24 1.259 . S
Tb40 O43 2.453 . S
Tb40 O44 2.596 . S
Tb40 O45 2.374 . S
Tb40 O53 2.343 . S
Tb40 O55 2.353 . S
Tb40 O57 2.427 . S
Tb40 O58 2.513 . S
C41 O45 1.251 . S
C41 O47 1.263 . S
Tb42 O44 2.343 . S
Tb42 O47 2.353 . S
Tb42 O50 2.427 . S
Tb42 O51 2.513 . S
Tb42 O52 2.453 . S
Tb42 O53 2.596 . S
Tb42 O54 2.374 . S
O43 Tb40 2.453 . S
O43 C59 1.245 . S
O44 Tb40 2.596 . S
O44 Tb42 2.343 . S
O44 C59 1.259 . S
O45 Tb40 2.374 . S
O45 C41 1.251 . S
C46 O50 1.275 . S
C46 O51 1.246 . S
O47 C41 1.263 . S
O47 Tb42 2.353 . S
C48 O52 1.245 . S
C48 O53 1.259 . S
C49 O54 1.250 . S
C49 O55 1.263 . S
O50 Tb42 2.427 . S
O50 C46 1.275 . S
O51 Tb42 2.513 . S
O51 C46 1.246 . S
O52 Tb42 2.453 . S
O52 C48 1.245 . S
O53 Tb40 2.343 . S
O53 Tb42 2.596 . S
O53 C48 1.259 . S
O54 Tb42 2.374 . S
O54 C49 1.250 . S
O55 Tb40 2.353 . S
O55 C49 1.263 . S
C56 O57 1.275 . S
C56 O58 1.246 . S
O57 Tb40 2.427 . S
O57 C56 1.275 . S
O58 Tb40 2.513 . S
O58 C56 1.246 . S
C59 O43 1.245 . S
C59 O44 1.259 . S
Tb60 O63 2.453 . S
Tb60 O64 2.596 . S
Tb60 O65 2.374 . S
Tb60 O73 2.343 . S
Tb60 O75 2.353 . S
Tb60 O77 2.427 . S
Tb60 O78 2.513 . S
C61 O65 1.251 . S
C61 O67 1.263 . S
Tb62 O64 2.343 . S
Tb62 O67 2.353 . S
Tb62 O70 2.427 . S
Tb62 O71 2.513 . S
Tb62 O72 2.453 . S
Tb62 O73 2.596 . S
Tb62 O74 2.374 . S
O63 Tb60 2.453 . S
O63 C79 1.245 . S
O64 Tb60 2.596 . S
O64 Tb62 2.343 . S
O64 C79 1.259 . S
O65 Tb60 2.374 . S
O65 C61 1.251 . S
C66 O70 1.275 . S
C66 O71 1.246 . S
O67 C61 1.263 . S
O67 Tb62 2.353 . S
C68 O72 1.245 . S
C68 O73 1.259 . S
C69 O74 1.250 . S
C69 O75 1.263 . S
O70 Tb62 2.427 . S
O70 C66 1.275 . S
O71 Tb62 2.513 . S
O71 C66 1.246 . S
O72 Tb62 2.453 . S
O72 C68 1.245 . S
O73 Tb60 2.343 . S
O73 Tb62 2.596 . S
O73 C68 1.259 . S
O74 Tb62 2.374 . S
O74 C69 1.250 . S
O75 Tb60 2.353 . S
O75 C69 1.263 . S
C76 O77 1.275 . S
C76 O78 1.246 . S
O77 Tb60 2.427 . S
O77 C76 1.275 . S
O78 Tb60 2.513 . S
O78 C76 1.246 . S
C79 O63 1.245 . S
C79 O64 1.259 . S
Tb80 O83 2.453 1_455 S
Tb80 O84 2.596 . S
Tb80 O85 2.374 . S
Tb80 O93 2.343 . S
Tb80 O95 2.353 . S
Tb80 O97 2.427 . S
Tb80 O98 2.513 . S
C81 O85 1.251 . S
C81 O87 1.263 . S
Tb82 O84 2.343 . S
Tb82 O87 2.353 . S
Tb82 O90 2.427 . S
Tb82 O91 2.513 . S
Tb82 O92 2.453 . S
Tb82 O93 2.596 . S
Tb82 O94 2.374 . S
O83 Tb80 2.453 1_655 S
O83 C99 1.245 . S
O84 Tb80 2.596 . S
O84 Tb82 2.343 . S
O84 C99 1.259 1_455 S
O85 Tb80 2.374 . S
O85 C81 1.251 . S
C86 O90 1.275 . S
C86 O91 1.246 . S
O87 C81 1.263 . S
O87 Tb82 2.353 . S
C88 O92 1.245 . S
C88 O93 1.259 . S
C89 O94 1.250 . S
C89 O95 1.263 . S
O90 Tb82 2.427 . S
O90 C86 1.275 . S
O91 Tb82 2.513 . S
O91 C86 1.246 . S
O92 Tb82 2.453 . S
O92 C88 1.245 . S
O93 Tb80 2.343 . S
O93 Tb82 2.596 . S
O93 C88 1.259 . S
O94 Tb82 2.374 . S
O94 C89 1.250 . S
O95 Tb80 2.353 . S
O95 C89 1.263 . S
C96 O97 1.275 . S
C96 O98 1.246 . S
O97 Tb80 2.427 . S
O97 C96 1.275 . S
O98 Tb80 2.513 . S
O98 C96 1.246 . S
C99 O83 1.245 . S
C99 O84 1.259 1_655 S
Tb100 O103 2.453 1_545 S
Tb100 O104 2.596 . S
Tb100 O105 2.374 . S
Tb100 O113 2.343 . S
Tb100 O115 2.353 . S
Tb100 O117 2.427 . S
Tb100 O118 2.513 . S
C101 O105 1.251 . S
C101 O107 1.263 . S
Tb102 O104 2.343 . S
Tb102 O107 2.353 . S
Tb102 O110 2.427 . S
Tb102 O111 2.513 . S
Tb102 O112 2.453 . S
Tb102 O113 2.596 . S
Tb102 O114 2.374 . S
O103 Tb100 2.453 1_565 S
O103 C119 1.245 1_565 S
O104 Tb100 2.596 . S
O104 Tb102 2.343 . S
O104 C119 1.259 . S
O105 Tb100 2.374 . S
O105 C101 1.251 . S
C106 O110 1.275 . S
C106 O111 1.246 . S
O107 C101 1.263 . S
O107 Tb102 2.353 . S
C108 O112 1.245 . S
C108 O113 1.259 . S
C109 O114 1.250 . S
C109 O115 1.263 . S
O110 Tb102 2.427 . S
O110 C106 1.275 . S
O111 Tb102 2.513 . S
O111 C106 1.246 . S
O112 Tb102 2.453 . S
O112 C108 1.245 . S
O113 Tb100 2.343 . S
O113 Tb102 2.596 . S
O113 C108 1.259 . S
O114 Tb102 2.374 . S
O114 C109 1.250 . S
O115 Tb100 2.353 . S
O115 C109 1.263 . S
C116 O117 1.275 . S
C116 O118 1.246 . S
O117 Tb100 2.427 . S
O117 C116 1.275 . S
O118 Tb100 2.513 . S
O118 C116 1.246 . S
C119 O103 1.245 1_545 S
C119 O104 1.259 . S
Tb120 O123 2.453 . S
Tb120 O124 2.596 . S
Tb120 O125 2.374 . S
Tb120 O133 2.343 . S
Tb120 O135 2.353 . S
Tb120 O137 2.427 . S
Tb120 O138 2.513 . S
C121 O125 1.251 . S
C121 O127 1.263 . S
Tb122 O124 2.343 . S
Tb122 O127 2.353 . S
Tb122 O130 2.427 . S
Tb122 O131 2.513 . S
Tb122 O132 2.453 . S
Tb122 O133 2.596 . S
Tb122 O134 2.374 . S
O123 Tb120 2.453 . S
O123 C139 1.245 . S
O124 Tb120 2.596 . S
O124 Tb122 2.343 . S
O124 C139 1.259 . S
O125 Tb120 2.374 . S
O125 C121 1.251 . S
C126 O130 1.275 . S
C126 O131 1.246 . S
O127 C121 1.263 . S
O127 Tb122 2.353 . S
C128 O132 1.245 . S
C128 O133 1.259 . S
C129 O134 1.250 . S
C129 O135 1.263 . S
O130 Tb122 2.427 . S
O130 C126 1.275 . S
O131 Tb122 2.513 . S
O131 C126 1.246 . S
O132 Tb122 2.453 . S
O132 C128 1.245 . S
O133 Tb120 2.343 . S
O133 Tb122 2.596 . S
O133 C128 1.259 . S
O134 Tb122 2.374 . S
O134 C129 1.250 . S
O135 Tb120 2.353 . S
O135 C129 1.263 . S
C136 O137 1.275 . S
C136 O138 1.246 . S
O137 Tb120 2.427 . S
O137 C136 1.275 . S
O138 Tb120 2.513 . S
O138 C136 1.246 . S
C139 O123 1.245 . S
C139 O124 1.259 . S
Tb140 O143 2.453 . S
Tb140 O144 2.596 . S
Tb140 O145 2.374 . S
Tb140 O153 2.343 . S
Tb140 O155 2.353 . S
Tb140 O157 2.427 . S
Tb140 O158 2.513 . S
C141 O145 1.251 . S
C141 O147 1.263 . S
Tb142 O144 2.343 . S
Tb142 O147 2.353 . S
Tb142 O150 2.427 . S
Tb142 O151 2.513 . S
Tb142 O152 2.453 . S
Tb142 O153 2.596 . S
Tb142 O154 2.374 . S
O143 Tb140 2.453 . S
O143 C159 1.245 . S
O144 Tb140 2.596 . S
O144 Tb142 2.343 . S
O144 C159 1.259 . S
O145 Tb140 2.374 . S
O145 C141 1.251 . S
C146 O150 1.275 . S
C146 O151 1.246 . S
O147 C141 1.263 . S
O147 Tb142 2.353 . S
C148 O152 1.245 . S
C148 O153 1.259 . S
C149 O154 1.250 . S
C149 O155 1.263 . S
O150 Tb142 2.427 . S
O150 C146 1.275 . S
O151 Tb142 2.513 . S
O151 C146 1.246 . S
O152 Tb142 2.453 . S
O152 C148 1.245 . S
O153 Tb140 2.343 . S
O153 Tb142 2.596 . S
O153 C148 1.259 . S
O154 Tb142 2.374 . S
O154 C149 1.250 . S
O155 Tb140 2.353 . S
O155 C149 1.263 . S
C156 O157 1.275 . S
C156 O158 1.246 . S
O157 Tb140 2.427 . S
O157 C156 1.275 . S
O158 Tb140 2.513 . S
O158 C156 1.246 . S
C159 O143 1.245 . S
C159 O144 1.259 . S
Tb160 O163 2.453 1_655 S
Tb160 O164 2.596 . S
Tb160 O165 2.374 . S
Tb160 O173 2.343 . S
Tb160 O175 2.353 . S
Tb160 O177 2.427 . S
Tb160 O178 2.513 . S
C161 O165 1.251 . S
C161 O167 1.263 . S
Tb162 O164 2.343 . S
Tb162 O167 2.353 . S
Tb162 O170 2.427 . S
Tb162 O171 2.513 . S
Tb162 O172 2.453 . S
Tb162 O173 2.596 . S
Tb162 O174 2.374 . S
O163 Tb160 2.453 1_455 S
O163 C179 1.245 1_455 S
O164 Tb160 2.596 . S
O164 Tb162 2.343 . S
O164 C179 1.259 . S
O165 Tb160 2.374 . S
O165 C161 1.251 . S
C166 O170 1.275 . S
C166 O171 1.246 . S
O167 C161 1.263 . S
O167 Tb162 2.353 . S
C168 O172 1.245 . S
C168 O173 1.259 . S
C169 O174 1.250 . S
C169 O175 1.263 . S
O170 Tb162 2.427 . S
O170 C166 1.275 . S
O171 Tb162 2.513 . S
O171 C166 1.246 . S
O172 Tb162 2.453 . S
O172 C168 1.245 . S
O173 Tb160 2.343 . S
O173 Tb162 2.596 . S
O173 C168 1.259 . S
O174 Tb162 2.374 . S
O174 C169 1.250 . S
O175 Tb160 2.353 . S
O175 C169 1.263 . S
C176 O177 1.275 . S
C176 O178 1.246 . S
O177 Tb160 2.427 . S
O177 C176 1.275 . S
O178 Tb160 2.513 . S
O178 C176 1.246 . S
C179 O163 1.245 1_655 S
C179 O164 1.259 . S
Tb180 O183 2.453 . S
Tb180 O184 2.596 . S
Tb180 O185 2.374 . S
Tb180 O193 2.343 . S
Tb180 O195 2.353 . S
Tb180 O197 2.427 . S
Tb180 O198 2.513 . S
C181 O185 1.251 . S
C181 O187 1.263 . S
Tb182 O184 2.343 . S
Tb182 O187 2.353 . S
Tb182 O190 2.427 . S
Tb182 O191 2.513 . S
Tb182 O192 2.453 . S
Tb182 O193 2.596 . S
Tb182 O194 2.374 . S
O183 Tb180 2.453 . S
O183 C199 1.245 . S
O184 Tb180 2.596 . S
O184 Tb182 2.343 . S
O184 C199 1.259 . S
O185 Tb180 2.374 . S
O185 C181 1.251 . S
C186 O190 1.275 . S
C186 O191 1.246 . S
O187 C181 1.263 . S
O187 Tb182 2.353 . S
C188 O192 1.245 . S
C188 O193 1.259 . S
C189 O194 1.250 . S
C189 O195 1.263 . S
O190 Tb182 2.427 . S
O190 C186 1.275 . S
O191 Tb182 2.513 . S
O191 C186 1.246 . S
O192 Tb182 2.453 . S
O192 C188 1.245 . S
O193 Tb180 2.343 . S
O193 Tb182 2.596 . S
O193 C188 1.259 . S
O194 Tb182 2.374 . S
O194 C189 1.250 . S
O195 Tb180 2.353 . S
O195 C189 1.263 . S
C196 O197 1.275 . S
C196 O198 1.246 . S
O197 Tb180 2.427 . S
O197 C196 1.275 . S
O198 Tb180 2.513 . S
O198 C196 1.246 . S
C199 O183 1.245 . S
C199 O184 1.259 . S
Tb200 O203 2.453 . S
Tb200 O204 2.596 . S
Tb200 O205 2.374 . S
Tb200 O213 2.343 . S
Tb200 O215 2.353 . S
Tb200 O217 2.427 . S
Tb200 O218 2.513 . S
C201 O205 1.251 . S
C201 O207 1.263 . S
Tb202 O204 2.343 . S
Tb202 O207 2.353 . S
Tb202 O210 2.427 . S
Tb202 O211 2.513 . S
Tb202 O212 2.453 . S
Tb202 O213 2.596 . S
Tb202 O214 2.374 . S
O203 Tb200 2.453 . S
O203 C219 1.245 . S
O204 Tb200 2.596 . S
O204 Tb202 2.343 . S
O204 C219 1.259 . S
O205 Tb200 2.374 . S
O205 C201 1.251 . S
C206 O210 1.275 . S
C206 O211 1.246 . S
O207 C201 1.263 . S
O207 Tb202 2.353 . S
C208 O212 1.245 . S
C208 O213 1.259 . S
C209 O214 1.250 . S
C209 O215 1.263 . S
O210 Tb202 2.427 . S
O210 C206 1.275 . S
O211 Tb202 2.513 . S
O211 C206 1.246 . S
O212 Tb202 2.453 . S
O212 C208 1.245 . S
O213 Tb200 2.343 . S
O213 Tb202 2.596 . S
O213 C208 1.259 . S
O214 Tb202 2.374 . S
O214 C209 1.250 . S
O215 Tb200 2.353 . S
O215 C209 1.263 . S
C216 O217 1.275 . S
C216 O218 1.246 . S
O217 Tb200 2.427 . S
O217 C216 1.275 . S
O218 Tb200 2.513 . S
O218 C216 1.246 . S
C219 O203 1.245 . S
C219 O204 1.259 . S
Tb220 O223 2.453 . S
Tb220 O224 2.596 . S
Tb220 O225 2.374 . S
Tb220 O233 2.343 . S
Tb220 O235 2.353 . S
Tb220 O237 2.427 . S
Tb220 O238 2.513 . S
C221 O225 1.251 . S
C221 O227 1.263 . S
Tb222 O224 2.343 . S
Tb222 O227 2.353 . S
Tb222 O230 2.427 . S
Tb222 O231 2.513 . S
Tb222 O232 2.453 . S
Tb222 O233 2.596 . S
Tb222 O234 2.374 . S
O223 Tb220 2.453 . S
O223 C239 1.245 . S
O224 Tb220 2.596 . S
O224 Tb222 2.343 . S
O224 C239 1.259 . S
O225 Tb220 2.374 . S
O225 C221 1.251 . S
C226 O230 1.275 . S
C226 O231 1.246 . S
O227 C221 1.263 . S
O227 Tb222 2.353 . S
C228 O232 1.245 . S
C228 O233 1.259 . S
C229 O234 1.250 . S
C229 O235 1.263 . S
O230 Tb222 2.427 . S
O230 C226 1.275 . S
O231 Tb222 2.513 . S
O231 C226 1.246 . S
O232 Tb222 2.453 . S
O232 C228 1.245 . S
O233 Tb220 2.343 . S
O233 Tb222 2.596 . S
O233 C228 1.259 . S
O234 Tb222 2.374 . S
O234 C229 1.250 . S
O235 Tb220 2.353 . S
O235 C229 1.263 . S
C236 O237 1.275 . S
C236 O238 1.246 . S
O237 Tb220 2.427 . S
O237 C236 1.275 . S
O238 Tb220 2.513 . S
O238 C236 1.246 . S
C239 O223 1.245 . S
C239 O224 1.259 . S
Tb240 O243 2.453 . S
Tb240 O244 2.596 . S
Tb240 O245 2.374 . S
Tb240 O253 2.343 . S
Tb240 O255 2.353 . S
Tb240 O257 2.427 . S
Tb240 O258 2.513 . S
C241 O245 1.251 . S
C241 O247 1.263 . S
Tb242 O244 2.343 . S
Tb242 O247 2.353 . S
Tb242 O250 2.427 . S
Tb242 O251 2.513 . S
Tb242 O252 2.453 1_655 S
Tb242 O253 2.596 . S
Tb242 O254 2.374 . S
O243 Tb240 2.453 . S
O243 C259 1.245 . S
O244 Tb240 2.596 . S
O244 Tb242 2.343 . S
O244 C259 1.259 . S
O245 Tb240 2.374 . S
O245 C241 1.251 . S
C246 O250 1.275 . S
C246 O251 1.246 . S
O247 C241 1.263 . S
O247 Tb242 2.353 . S
C248 O252 1.245 . S
C248 O253 1.259 1_455 S
C249 O254 1.250 . S
C249 O255 1.263 . S
O250 Tb242 2.427 . S
O250 C246 1.275 . S
O251 Tb242 2.513 . S
O251 C246 1.246 . S
O252 Tb242 2.453 1_455 S
O252 C248 1.245 . S
O253 Tb240 2.343 . S
O253 Tb242 2.596 . S
O253 C248 1.259 1_655 S
O254 Tb242 2.374 . S
O254 C249 1.250 . S
O255 Tb240 2.353 . S
O255 C249 1.263 . S
C256 O257 1.275 . S
C256 O258 1.246 . S
O257 Tb240 2.427 . S
O257 C256 1.275 . S
O258 Tb240 2.513 . S
O258 C256 1.246 . S
C259 O243 1.245 . S
C259 O244 1.259 . S
Tb260 O263 2.453 . S
Tb260 O264 2.596 . S
Tb260 O265 2.374 . S
Tb260 O273 2.343 . S
Tb260 O275 2.353 . S
Tb260 O277 2.427 . S
Tb260 O278 2.513 . S
C261 O265 1.251 . S
C261 O267 1.263 . S
Tb262 O264 2.343 . S
Tb262 O267 2.353 . S
Tb262 O270 2.427 . S
Tb262 O271 2.513 . S
Tb262 O272 2.453 1_565 S
Tb262 O273 2.596 . S
Tb262 O274 2.374 . S
O263 Tb260 2.453 . S
O263 C279 1.245 . S
O264 Tb260 2.596 . S
O264 Tb262 2.343 . S
O264 C279 1.259 . S
O265 Tb260 2.374 . S
O265 C261 1.251 . S
C266 O270 1.275 . S
C266 O271 1.246 . S
O267 C261 1.263 . S
O267 Tb262 2.353 . S
C268 O272 1.245 1_565 S
C268 O273 1.259 . S
C269 O274 1.250 . S
C269 O275 1.263 . S
O270 Tb262 2.427 . S
O270 C266 1.275 . S
O271 Tb262 2.513 . S
O271 C266 1.246 . S
O272 Tb262 2.453 1_545 S
O272 C268 1.245 1_545 S
O273 Tb260 2.343 . S
O273 Tb262 2.596 . S
O273 C268 1.259 . S
O274 Tb262 2.374 . S
O274 C269 1.250 . S
O275 Tb260 2.353 . S
O275 C269 1.263 . S
C276 O277 1.275 . S
C276 O278 1.246 . S
O277 Tb260 2.427 . S
O277 C276 1.275 . S
O278 Tb260 2.513 . S
O278 C276 1.246 . S
C279 O263 1.245 . S
C279 O264 1.259 . S
Tb280 O283 2.453 . S
Tb280 O284 2.596 . S
Tb280 O285 2.374 . S
Tb280 O293 2.343 . S
Tb280 O295 2.353 . S
Tb280 O297 2.427 . S
Tb280 O298 2.513 . S
C281 O285 1.251 . S
C281 O287 1.263 . S
Tb282 O284 2.343 . S
Tb282 O287 2.353 . S
Tb282 O290 2.427 . S
Tb282 O291 2.513 . S
Tb282 O292 2.453 . S
Tb282 O293 2.596 . S
Tb282 O294 2.374 . S
O283 Tb280 2.453 . S
O283 C299 1.245 . S
O284 Tb280 2.596 . S
O284 Tb282 2.343 . S
O284 C299 1.259 . S
O285 Tb280 2.374 . S
O285 C281 1.251 . S
C286 O290 1.275 . S
C286 O291 1.246 . S
O287 C281 1.263 . S
O287 Tb282 2.353 . S
C288 O292 1.245 . S
C288 O293 1.259 . S
C289 O294 1.250 . S
C289 O295 1.263 . S
O290 Tb282 2.427 . S
O290 C286 1.275 . S
O291 Tb282 2.513 . S
O291 C286 1.246 . S
O292 Tb282 2.453 . S
O292 C288 1.245 . S
O293 Tb280 2.343 . S
O293 Tb282 2.596 . S
O293 C288 1.259 . S
O294 Tb282 2.374 . S
O294 C289 1.250 . S
O295 Tb280 2.353 . S
O295 C289 1.263 . S
C296 O297 1.275 . S
C296 O298 1.246 . S
O297 Tb280 2.427 . S
O297 C296 1.275 . S
O298 Tb280 2.513 . S
O298 C296 1.246 . S
C299 O283 1.245 . S
C299 O284 1.259 . S
Tb300 O303 2.453 . S
Tb300 O304 2.596 . S
Tb300 O305 2.374 . S
Tb300 O313 2.343 . S
Tb300 O315 2.353 . S
Tb300 O317 2.427 . S
Tb300 O318 2.513 . S
C301 O305 1.251 . S
C301 O307 1.263 . S
Tb302 O304 2.343 . S
Tb302 O307 2.353 . S
Tb302 O310 2.427 . S
Tb302 O311 2.513 . S
Tb302 O312 2.453 . S
Tb302 O313 2.596 . S
Tb302 O314 2.374 . S
O303 Tb300 2.453 . S
O303 C319 1.245 . S
O304 Tb300 2.596 . S
O304 Tb302 2.343 . S
O304 C319 1.259 . S
O305 Tb300 2.374 . S
O305 C301 1.251 . S
C306 O310 1.275 . S
C306 O311 1.246 . S
O307 C301 1.263 . S
O307 Tb302 2.353 . S
C308 O312 1.245 . S
C308 O313 1.259 . S
C309 O314 1.250 . S
C309 O315 1.263 . S
O310 Tb302 2.427 . S
O310 C306 1.275 . S
O311 Tb302 2.513 . S
O311 C306 1.246 . S
O312 Tb302 2.453 . S
O312 C308 1.245 . S
O313 Tb300 2.343 . S
O313 Tb302 2.596 . S
O313 C308 1.259 . S
O314 Tb302 2.374 . S
O314 C309 1.250 . S
O315 Tb300 2.353 . S
O315 C309 1.263 . S
C316 O317 1.275 . S
C316 O318 1.246 . S
O317 Tb300 2.427 . S
O317 C316 1.275 . S
O318 Tb300 2.513 . S
O318 C316 1.246 . S
C319 O303 1.245 . S
C319 O304 1.259 . S
H320 C326 0.930 . S
H321 C329 0.930 . S
H322 C330 0.930 . S
H323 C331 0.930 . S
H324 C334 0.930 . S
H325 C335 0.930 . S
C326 H320 0.930 . S
C326 C327 1.355 . S
C326 C328 1.415 . S
C327 C326 1.355 . S
C327 C329 1.419 . S
C328 C326 1.415 . S
C328 C333 1.425 . S
C328 C335 1.409 . S
C329 H321 0.930 . S
C329 C327 1.419 . S
C329 C330 1.362 . S
C330 H322 0.930 . S
C330 C329 1.362 . S
C330 C333 1.409 . S
C331 H323 0.930 . S
C331 C332 1.355 . S
C331 C333 1.415 . S
C332 C331 1.355 . S
C332 C334 1.419 . S
C333 C328 1.425 . S
C333 C330 1.409 . S
C333 C331 1.415 . S
C334 H324 0.930 . S
C334 C332 1.419 . S
C334 C335 1.362 . S
C335 H325 0.930 . S
C335 C328 1.409 . S
C335 C334 1.362 . S
H336 C342 0.930 . S
H337 C345 0.930 . S
H338 C346 0.930 . S
H339 C347 0.930 . S
H340 C350 0.930 1_545 S
H341 C351 0.930 . S
C342 H336 0.930 . S
C342 C343 1.355 . S
C342 C344 1.415 . S
C343 C342 1.355 . S
C343 C345 1.419 . S
C344 C342 1.415 . S
C344 C349 1.425 1_455 S
C344 C351 1.409 . S
C345 H337 0.930 . S
C345 C343 1.419 . S
C345 C346 1.362 1_455 S
C346 H338 0.930 . S
C346 C345 1.362 1_655 S
C346 C349 1.409 . S
C347 H339 0.930 . S
C347 C348 1.355 . S
C347 C349 1.415 . S
C348 C347 1.355 . S
C348 C350 1.419 1_655 S
C349 C344 1.425 1_655 S
C349 C346 1.409 . S
C349 C347 1.415 . S
C350 H340 0.930 1_565 S
C350 C348 1.419 1_455 S
C350 C351 1.362 . S
C351 H341 0.930 . S
C351 C344 1.409 . S
C351 C350 1.362 . S
H352 C358 0.930 . S
H353 C361 0.930 . S
H354 C362 0.930 . S
H355 C363 0.930 . S
H356 C366 0.930 . S
H357 C367 0.930 1_565 S
C358 H352 0.930 . S
C358 C359 1.355 . S
C358 C360 1.415 1_565 S
C359 C358 1.355 . S
C359 C361 1.419 1_565 S
C360 C358 1.415 1_545 S
C360 C365 1.425 . S
C360 C367 1.409 . S
C361 H353 0.930 . S
C361 C359 1.419 1_545 S
C361 C362 1.362 . S
C362 H354 0.930 . S
C362 C361 1.362 . S
C362 C365 1.409 . S
C363 H355 0.930 . S
C363 C364 1.355 . S
C363 C365 1.415 . S
C364 C363 1.355 . S
C364 C366 1.419 . S
C365 C360 1.425 . S
C365 C362 1.409 . S
C365 C363 1.415 . S
C366 H356 0.930 . S
C366 C364 1.419 . S
C366 C367 1.362 . S
C367 H357 0.930 1_545 S
C367 C360 1.409 . S
C367 C366 1.362 . S
H368 C374 0.930 . S
H369 C377 0.930 . S
H370 C378 0.930 . S
H371 C379 0.930 . S
H372 C382 0.930 . S
H373 C383 0.930 . S
C374 H368 0.930 . S
C374 C375 1.355 . S
C374 C376 1.415 . S
C375 C374 1.355 . S
C375 C377 1.419 . S
C376 C374 1.415 . S
C376 C381 1.425 . S
C376 C383 1.409 . S
C377 H369 0.930 . S
C377 C375 1.419 . S
C377 C378 1.362 . S
C378 H370 0.930 . S
C378 C377 1.362 . S
C378 C381 1.409 . S
C379 H371 0.930 . S
C379 C380 1.355 . S
C379 C381 1.415 . S
C380 C379 1.355 . S
C380 C382 1.419 . S
C381 C376 1.425 . S
C381 C378 1.409 . S
C381 C379 1.415 . S
C382 H372 0.930 . S
C382 C380 1.419 . S
C382 C383 1.362 . S
C383 H373 0.930 . S
C383 C376 1.409 . S
C383 C382 1.362 . S
H384 C390 0.928 1_545 S
H385 C393 0.930 . S
H386 C394 0.930 . S
H387 C395 0.930 . S
H388 C398 0.930 . S
H389 C399 0.930 . S
C390 H384 0.928 1_565 S
C390 C391 1.358 . S
C390 C392 1.413 1_565 S
C391 C390 1.358 . S
C391 C393 1.419 . S
C392 C390 1.413 1_545 S
C392 C397 1.425 . S
C392 C399 1.409 . S
C393 H385 0.930 . S
C393 C391 1.419 . S
C393 C394 1.362 . S
C394 H386 0.930 . S
C394 C393 1.362 . S
C394 C397 1.409 1_565 S
C395 H387 0.930 . S
C395 C396 1.355 . S
C395 C397 1.415 . S
C396 C395 1.355 . S
C396 C398 1.419 . S
C397 C392 1.425 . S
C397 C394 1.409 1_545 S
C397 C395 1.415 . S
C398 H388 0.930 . S
C398 C396 1.419 . S
C398 C399 1.362 . S
C399 H389 0.930 . S
C399 C392 1.409 . S
C399 C398 1.362 . S
H400 C406 0.930 . S
H401 C409 0.930 . S
H402 C410 0.930 . S
H403 C411 0.930 . S
H404 C414 0.930 . S
H405 C415 0.930 . S
C406 H400 0.930 . S
C406 C407 1.355 . S
C406 C408 1.415 . S
C407 C406 1.355 . S
C407 C409 1.419 . S
C408 C406 1.415 . S
C408 C413 1.425 . S
C408 C415 1.409 . S
C409 H401 0.930 . S
C409 C407 1.419 . S
C409 C410 1.362 . S
C410 H402 0.930 . S
C410 C409 1.362 . S
C410 C413 1.409 . S
C411 H403 0.930 . S
C411 C412 1.355 . S
C411 C413 1.415 . S
C412 C411 1.355 . S
C412 C414 1.419 . S
C413 C408 1.425 . S
C413 C410 1.409 . S
C413 C411 1.415 . S
C414 H404 0.930 . S
C414 C412 1.419 . S
C414 C415 1.362 . S
C415 H405 0.930 . S
C415 C408 1.409 . S
C415 C414 1.362 . S
H416 C422 0.930 . S
H417 C425 0.930 . S
H418 C426 0.930 . S
H419 C427 0.930 . S
H420 C430 0.930 . S
H421 C431 0.930 . S
C422 H416 0.930 . S
C422 C423 1.355 . S
C422 C424 1.415 . S
C423 C422 1.355 . S
C423 C425 1.419 . S
C424 C422 1.415 . S
C424 C429 1.425 . S
C424 C431 1.409 . S
C425 H417 0.930 . S
C425 C423 1.419 . S
C425 C426 1.362 . S
C426 H418 0.930 . S
C426 C425 1.362 . S
C426 C429 1.409 . S
C427 H419 0.930 . S
C427 C428 1.355 . S
C427 C429 1.415 . S
C428 C427 1.355 . S
C428 C430 1.419 . S
C429 C424 1.425 . S
C429 C426 1.409 . S
C429 C427 1.415 . S
C430 H420 0.930 . S
C430 C428 1.419 . S
C430 C431 1.362 . S
C431 H421 0.930 . S
C431 C424 1.409 . S
C431 C430 1.362 . S
H432 C438 0.930 . S
H433 C441 0.930 . S
H434 C442 0.930 . S
H435 C443 0.930 . S
H436 C446 0.930 . S
H437 C447 0.930 1_455 S
C438 H432 0.930 . S
C438 C439 1.355 . S
C438 C440 1.415 . S
C439 C438 1.355 . S
C439 C441 1.419 . S
C440 C438 1.415 . S
C440 C445 1.425 1_455 S
C440 C447 1.409 1_455 S
C441 H433 0.930 . S
C441 C439 1.419 . S
C441 C442 1.362 1_455 S
C442 H434 0.930 . S
C442 C441 1.362 1_655 S
C442 C445 1.409 . S
C443 H435 0.930 . S
C443 C444 1.355 . S
C443 C445 1.415 . S
C444 C443 1.355 . S
C444 C446 1.419 . S
C445 C440 1.425 1_655 S
C445 C442 1.409 . S
C445 C443 1.415 . S
C446 H436 0.930 . S
C446 C444 1.419 . S
C446 C447 1.362 . S
C447 H437 0.930 1_655 S
C447 C440 1.409 1_655 S
C447 C446 1.362 . S
H448 C454 0.930 . S
H449 C457 0.930 . S
H450 C458 0.930 . S
H451 C459 0.930 . S
H452 C462 0.930 . S
H453 C463 0.930 . S
C454 H448 0.930 . S
C454 C455 1.355 . S
C454 C456 1.415 . S
C455 C454 1.355 . S
C455 C457 1.419 . S
C456 C454 1.415 . S
C456 C461 1.425 . S
C456 C463 1.409 . S
C457 H449 0.930 . S
C457 C455 1.419 . S
C457 C458 1.362 . S
C458 H450 0.930 . S
C458 C457 1.362 . S
C458 C461 1.409 . S
C459 H451 0.930 . S
C459 C460 1.355 . S
C459 C461 1.415 . S
C460 C459 1.355 . S
C460 C462 1.419 . S
C461 C456 1.425 . S
C461 C458 1.409 . S
C461 C459 1.415 . S
C462 H452 0.930 . S
C462 C460 1.419 . S
C462 C463 1.362 . S
C463 H453 0.930 . S
C463 C456 1.409 . S
C463 C462 1.362 . S
H464 C470 0.930 1_455 S
H465 C473 0.930 . S
H466 C474 0.930 . S
H467 C475 0.930 . S
H468 C478 0.930 . S
H469 C479 0.930 . S
C470 H464 0.930 1_655 S
C470 C471 1.355 . S
C470 C472 1.415 1_655 S
C471 C470 1.355 . S
C471 C473 1.419 . S
C472 C470 1.415 1_455 S
C472 C477 1.425 1_455 S
C472 C479 1.409 . S
C473 H465 0.930 . S
C473 C471 1.419 . S
C473 C474 1.362 . S
C474 H466 0.930 . S
C474 C473 1.362 . S
C474 C477 1.409 . S
C475 H467 0.930 . S
C475 C476 1.355 1_655 S
C475 C477 1.415 . S
C476 C475 1.355 1_455 S
C476 C478 1.419 . S
C477 C472 1.425 1_655 S
C477 C474 1.409 . S
C477 C475 1.415 . S
C478 H468 0.930 . S
C478 C476 1.419 . S
C478 C479 1.362 . S
C479 H469 0.930 . S
C479 C472 1.409 . S
C479 C478 1.362 . S
H480 C486 0.930 . S
H481 C489 0.930 . S
H482 C490 0.930 . S
H483 C491 0.930 . S
H484 C494 0.930 . S
H485 C495 0.930 . S
C486 H480 0.930 . S
C486 C487 1.355 . S
C486 C488 1.415 . S
C487 C486 1.355 . S
C487 C489 1.419 . S
C488 C486 1.415 . S
C488 C493 1.425 . S
C488 C495 1.409 . S
C489 H481 0.930 . S
C489 C487 1.419 . S
C489 C490 1.362 1_565 S
C490 H482 0.930 . S
C490 C489 1.362 1_545 S
C490 C493 1.409 1_545 S
C491 H483 0.930 . S
C491 C492 1.355 . S
C491 C493 1.415 1_545 S
C492 C491 1.355 . S
C492 C494 1.419 1_545 S
C493 C488 1.425 . S
C493 C490 1.409 1_565 S
C493 C491 1.415 1_565 S
C494 H484 0.930 . S
C494 C492 1.419 1_565 S
C494 C495 1.362 . S
C495 H485 0.930 . S
C495 C488 1.409 . S
C495 C494 1.362 . S
H496 C502 0.930 . S
H497 C505 0.930 . S
H498 C506 0.930 . S
H499 C507 0.930 . S
H500 C510 0.930 . S
H501 C511 0.930 . S
C502 H496 0.930 . S
C502 C503 1.355 . S
C502 C504 1.415 . S
C503 C502 1.355 . S
C503 C505 1.419 . S
C504 C502 1.415 . S
C504 C509 1.425 . S
C504 C511 1.409 . S
C505 H497 0.930 . S
C505 C503 1.419 . S
C505 C506 1.362 . S
C506 H498 0.930 . S
C506 C505 1.362 . S
C506 C509 1.409 . S
C507 H499 0.930 . S
C507 C508 1.355 . S
C507 C509 1.415 . S
C508 C507 1.355 . S
C508 C510 1.419 . S
C509 C504 1.425 . S
C509 C506 1.409 . S
C509 C507 1.415 . S
C510 H500 0.930 . S
C510 C508 1.419 . S
C510 C511 1.362 . S
C511 H501 0.930 . S
C511 C504 1.409 . S
C511 C510 1.362 . S
H512 C518 0.930 . S
H513 C521 0.930 . S
H514 C522 0.930 . S
H515 C523 0.930 . S
H516 C526 0.930 . S
H517 C527 0.930 . S
C518 H512 0.930 . S
C518 C519 1.355 . S
C518 C520 1.415 . S
C519 C518 1.355 . S
C519 C521 1.419 1_545 S
C520 C518 1.415 . S
C520 C525 1.425 1_545 S
C520 C527 1.409 . S
C521 H513 0.930 . S
C521 C519 1.419 1_565 S
C521 C522 1.362 . S
C522 H514 0.930 . S
C522 C521 1.362 . S
C522 C525 1.409 . S
C523 H515 0.930 . S
C523 C524 1.355 . S
C523 C525 1.415 . S
C524 C523 1.355 . S
C524 C526 1.419 . S
C525 C520 1.425 1_565 S
C525 C522 1.409 . S
C525 C523 1.415 . S
C526 H516 0.930 . S
C526 C524 1.419 . S
C526 C527 1.362 1_565 S
C527 H517 0.930 . S
C527 C520 1.409 . S
C527 C526 1.362 1_545 S
H528 C534 0.930 . S
H529 C537 0.930 . S
H530 C538 0.930 . S
H531 C539 0.930 . S
H532 C542 0.930 . S
H533 C543 0.930 . S
C534 H528 0.930 . S
C534 C535 1.355 . S
C534 C536 1.415 . S
C535 C534 1.355 . S
C535 C537 1.419 . S
C536 C534 1.415 . S
C536 C541 1.425 . S
C536 C543 1.409 . S
C537 H529 0.930 . S
C537 C535 1.419 . S
C537 C538 1.362 . S
C538 H530 0.930 . S
C538 C537 1.362 . S
C538 C541 1.409 . S
C539 H531 0.930 . S
C539 C540 1.355 . S
C539 C541 1.415 . S
C540 C539 1.355 . S
C540 C542 1.419 . S
C541 C536 1.425 . S
C541 C538 1.409 . S
C541 C539 1.415 . S
C542 H532 0.930 . S
C542 C540 1.419 . S
C542 C543 1.362 . S
C543 H533 0.930 . S
C543 C536 1.409 . S
C543 C542 1.362 . S
H544 C550 0.930 . S
H545 C553 0.930 . S
H546 C554 0.930 . S
H547 C555 0.930 . S
H548 C558 0.930 . S
H549 C559 0.930 . S
C550 H544 0.930 . S
C550 C551 1.355 . S
C550 C552 1.415 . S
C551 C550 1.355 . S
C551 C553 1.419 . S
C552 C550 1.415 . S
C552 C557 1.425 . S
C552 C559 1.409 . S
C553 H545 0.930 . S
C553 C551 1.419 . S
C553 C554 1.362 . S
C554 H546 0.930 . S
C554 C553 1.362 . S
C554 C557 1.409 . S
C555 H547 0.930 . S
C555 C556 1.355 . S
C555 C557 1.415 . S
C556 C555 1.355 . S
C556 C558 1.419 . S
C557 C552 1.425 . S
C557 C554 1.409 . S
C557 C555 1.415 . S
C558 H548 0.930 . S
C558 C556 1.419 . S
C558 C559 1.362 . S
C559 H549 0.930 . S
C559 C552 1.409 . S
C559 C558 1.362 . S
H560 C566 0.930 . S
H561 C569 0.930 . S
H562 C570 0.930 . S
H563 C571 0.930 . S
H564 C574 0.930 . S
H565 C575 0.930 . S
C566 H560 0.930 . S
C566 C567 1.355 . S
C566 C568 1.415 . S
C567 C566 1.355 . S
C567 C569 1.419 1_455 S
C568 C566 1.415 . S
C568 C573 1.425 1_455 S
C568 C575 1.409 . S
C569 H561 0.930 . S
C569 C567 1.419 1_655 S
C569 C570 1.362 . S
C570 H562 0.930 . S
C570 C569 1.362 . S
C570 C573 1.409 . S
C571 H563 0.930 . S
C571 C572 1.355 . S
C571 C573 1.415 . S
C572 C571 1.355 . S
C572 C574 1.419 1_655 S
C573 C568 1.425 1_655 S
C573 C570 1.409 . S
C573 C571 1.415 . S
C574 H564 0.930 . S
C574 C572 1.419 1_455 S
C574 C575 1.362 . S
C575 H565 0.930 . S
C575 C568 1.409 . S
C575 C574 1.362 . S
H576 C582 0.930 . S
H577 C585 0.930 . S
H578 C586 0.930 . S
H579 C587 0.930 . S
H580 C590 0.930 . S
H581 C591 0.930 . S
C582 H576 0.930 . S
C582 C583 1.355 . S
C582 C584 1.415 . S
C583 C582 1.355 . S
C583 C585 1.419 . S
C584 C582 1.415 . S
C584 C589 1.425 . S
C584 C591 1.409 . S
C585 H577 0.930 . S
C585 C583 1.419 . S
C585 C586 1.362 . S
C586 H578 0.930 . S
C586 C585 1.362 . S
C586 C589 1.409 . S
C587 H579 0.930 . S
C587 C588 1.355 . S
C587 C589 1.415 . S
C588 C587 1.355 . S
C588 C590 1.419 . S
C589 C584 1.425 . S
C589 C586 1.409 . S
C589 C587 1.415 . S
C590 H580 0.930 . S
C590 C588 1.419 . S
C590 C591 1.362 . S
C591 H581 0.930 . S
C591 C584 1.409 . S
C591 C590 1.362 . S
H592 C598 0.930 . S
H593 C601 0.930 . S
H594 C602 0.930 . S
H595 C603 0.930 . S
H596 C606 0.930 . S
H597 C607 0.930 . S
C598 H592 0.930 . S
C598 C599 1.355 . S
C598 C600 1.415 . S
C599 C598 1.355 . S
C599 C601 1.419 . S
C600 C598 1.415 . S
C600 C605 1.425 . S
C600 C607 1.409 . S
C601 H593 0.930 . S
C601 C599 1.419 . S
C601 C602 1.362 . S
C602 H594 0.930 . S
C602 C601 1.362 . S
C602 C605 1.409 . S
C603 H595 0.930 . S
C603 C604 1.355 . S
C603 C605 1.415 . S
C604 C603 1.355 . S
C604 C606 1.419 . S
C605 C600 1.425 . S
C605 C602 1.409 . S
C605 C603 1.415 . S
C606 H596 0.930 . S
C606 C604 1.419 . S
C606 C607 1.362 . S
C607 H597 0.930 . S
C607 C600 1.409 . S
C607 C606 1.362 . S
H608 C614 0.930 . S
H609 C617 0.930 . S
H610 C618 0.930 . S
H611 C619 0.930 . S
H612 C622 0.930 . S
H613 C623 0.930 . S
C614 H608 0.930 . S
C614 C615 1.355 . S
C614 C616 1.415 . S
C615 C614 1.355 . S
C615 C617 1.419 . S
C616 C614 1.415 . S
C616 C621 1.425 . S
C616 C623 1.409 . S
C617 H609 0.930 . S
C617 C615 1.419 . S
C617 C618 1.362 . S
C618 H610 0.930 . S
C618 C617 1.362 . S
C618 C621 1.409 . S
C619 H611 0.930 . S
C619 C620 1.355 . S
C619 C621 1.415 . S
C620 C619 1.355 . S
C620 C622 1.419 . S
C621 C616 1.425 . S
C621 C618 1.409 . S
C621 C619 1.415 . S
C622 H612 0.930 . S
C622 C620 1.419 . S
C622 C623 1.362 . S
C623 H613 0.930 . S
C623 C616 1.409 . S
C623 C622 1.362 . S
H624 C630 0.930 . S
H625 C633 0.930 . S
H626 C634 0.930 . S
H627 C635 0.930 . S
H628 C638 0.930 . S
H629 C639 0.930 . S
C630 H624 0.930 . S
C630 C631 1.355 . S
C630 C632 1.415 . S
C631 C630 1.355 . S
C631 C633 1.419 . S
C632 C630 1.415 . S
C632 C637 1.425 . S
C632 C639 1.409 . S
C633 H625 0.930 . S
C633 C631 1.419 . S
C633 C634 1.362 . S
C634 H626 0.930 . S
C634 C633 1.362 . S
C634 C637 1.409 . S
C635 H627 0.930 . S
C635 C636 1.355 . S
C635 C637 1.415 . S
C636 C635 1.355 . S
C636 C638 1.419 . S
C637 C632 1.425 . S
C637 C634 1.409 . S
C637 C635 1.415 . S
C638 H628 0.930 . S
C638 C636 1.419 . S
C638 C639 1.362 . S
C639 H629 0.930 . S
C639 C632 1.409 . S
C639 C638 1.362 . S
H640 C646 0.930 . S
H641 C649 0.930 . S
H642 C650 0.930 . S
H643 C651 0.930 . S
H644 C654 0.930 . S
H645 C655 0.930 . S
C646 H640 0.930 . S
C646 C647 1.355 . S
C646 C648 1.415 . S
C647 C646 1.355 . S
C647 C649 1.419 . S
C648 C646 1.415 . S
C648 C653 1.425 . S
C648 C655 1.409 . S
C649 H641 0.930 . S
C649 C647 1.419 . S
C649 C650 1.362 . S
C650 H642 0.930 . S
C650 C649 1.362 . S
C650 C653 1.409 . S
C651 H643 0.930 . S
C651 C652 1.355 . S
C651 C653 1.415 . S
C652 C651 1.355 . S
C652 C654 1.419 . S
C653 C648 1.425 . S
C653 C650 1.409 . S
C653 C651 1.415 . S
C654 H644 0.930 . S
C654 C652 1.419 . S
C654 C655 1.362 . S
C655 H645 0.930 . S
C655 C648 1.409 . S
C655 C654 1.362 . S
H656 C662 0.930 . S
H657 C665 0.930 . S
H658 C666 0.930 . S
H659 C667 0.930 . S
H660 C670 0.930 . S
H661 C671 0.930 . S
C662 H656 0.930 . S
C662 C663 1.355 . S
C662 C664 1.415 . S
C663 C662 1.355 . S
C663 C665 1.419 . S
C664 C662 1.415 . S
C664 C669 1.425 . S
C664 C671 1.409 . S
C665 H657 0.930 . S
C665 C663 1.419 . S
C665 C666 1.362 . S
C666 H658 0.930 . S
C666 C665 1.362 . S
C666 C669 1.409 . S
C667 H659 0.930 . S
C667 C668 1.355 . S
C667 C669 1.415 . S
C668 C667 1.355 . S
C668 C670 1.419 . S
C669 C664 1.425 . S
C669 C666 1.409 . S
C669 C667 1.415 . S
C670 H660 0.930 . S
C670 C668 1.419 . S
C670 C671 1.362 . S
C671 H661 0.930 . S
C671 C664 1.409 . S
C671 C670 1.362 . S
H672 C678 0.930 . S
H673 C681 0.930 . S
H674 C682 0.930 . S
H675 C683 0.930 . S
H676 C686 0.930 . S
H677 C687 0.930 . S
C678 H672 0.930 . S
C678 C679 1.355 . S
C678 C680 1.415 . S
C679 C678 1.355 . S
C679 C681 1.419 . S
C680 C678 1.415 . S
C680 C685 1.425 . S
C680 C687 1.409 . S
C681 H673 0.930 . S
C681 C679 1.419 . S
C681 C682 1.362 . S
C682 H674 0.930 . S
C682 C681 1.362 . S
C682 C685 1.409 . S
C683 H675 0.930 . S
C683 C684 1.355 . S
C683 C685 1.415 . S
C684 C683 1.355 . S
C684 C686 1.419 . S
C685 C680 1.425 . S
C685 C682 1.409 . S
C685 C683 1.415 . S
C686 H676 0.930 . S
C686 C684 1.419 . S
C686 C687 1.362 . S
C687 H677 0.930 . S
C687 C680 1.409 . S
C687 C686 1.362 . S
H688 C694 0.930 . S
H689 C697 0.930 . S
H690 C698 0.930 . S
H691 C699 0.930 . S
H692 C702 0.930 . S
H693 C703 0.930 . S
C694 H688 0.930 . S
C694 C695 1.355 . S
C694 C696 1.415 . S
C695 C694 1.355 . S
C695 C697 1.419 . S
C696 C694 1.415 . S
C696 C701 1.425 . S
C696 C703 1.409 . S
C697 H689 0.930 . S
C697 C695 1.419 . S
C697 C698 1.362 . S
C698 H690 0.930 . S
C698 C697 1.362 . S
C698 C701 1.409 . S
C699 H691 0.930 . S
C699 C700 1.355 . S
C699 C701 1.415 . S
C700 C699 1.355 . S
C700 C702 1.419 . S
C701 C696 1.425 . S
C701 C698 1.409 . S
C701 C699 1.415 . S
C702 H692 0.930 . S
C702 C700 1.419 . S
C702 C703 1.362 . S
C703 H693 0.930 . S
C703 C696 1.409 . S
C703 C702 1.362 . S
H704 C710 0.930 . S
H705 C713 0.930 . S
H706 C714 0.930 . S
H707 C715 0.930 . S
H708 C718 0.930 . S
H709 C719 0.930 . S
C710 H704 0.930 . S
C710 C711 1.355 . S
C710 C712 1.415 . S
C711 C710 1.355 . S
C711 C713 1.419 . S
C712 C710 1.415 . S
C712 C717 1.425 . S
C712 C719 1.409 . S
C713 H705 0.930 . S
C713 C711 1.419 . S
C713 C714 1.362 . S
C714 H706 0.930 . S
C714 C713 1.362 . S
C714 C717 1.409 . S
C715 H707 0.930 . S
C715 C716 1.355 . S
C715 C717 1.415 . S
C716 C715 1.355 . S
C716 C718 1.419 . S
C717 C712 1.425 . S
C717 C714 1.409 . S
C717 C715 1.415 . S
C718 H708 0.930 . S
C718 C716 1.419 . S
C718 C719 1.362 . S
C719 H709 0.930 . S
C719 C712 1.409 . S
C719 C718 1.362 . S
H720 C726 0.930 . S
H721 C729 0.930 . S
H722 C730 0.930 . S
H723 C731 0.930 . S
H724 C734 0.930 . S
H725 C735 0.930 . S
C726 H720 0.930 . S
C726 C727 1.355 . S
C726 C728 1.415 . S
C727 C726 1.355 . S
C727 C729 1.419 . S
C728 C726 1.415 . S
C728 C733 1.425 . S
C728 C735 1.409 . S
C729 H721 0.930 . S
C729 C727 1.419 . S
C729 C730 1.362 . S
C730 H722 0.930 . S
C730 C729 1.362 . S
C730 C733 1.409 . S
C731 H723 0.930 . S
C731 C732 1.355 . S
C731 C733 1.415 . S
C732 C731 1.355 . S
C732 C734 1.419 . S
C733 C728 1.425 . S
C733 C730 1.409 . S
C733 C731 1.415 . S
C734 H724 0.930 . S
C734 C732 1.419 . S
C734 C735 1.362 . S
C735 H725 0.930 . S
C735 C728 1.409 . S
C735 C734 1.362 . S
H736 C742 0.930 . S
H737 C745 0.930 . S
H738 C746 0.930 . S
H739 C747 0.930 . S
H740 C750 0.930 . S
H741 C751 0.930 . S
C742 H736 0.930 . S
C742 C743 1.355 . S
C742 C744 1.415 . S
C743 C742 1.355 . S
C743 C745 1.419 . S
C744 C742 1.415 . S
C744 C749 1.425 . S
C744 C751 1.409 . S
C745 H737 0.930 . S
C745 C743 1.419 . S
C745 C746 1.362 . S
C746 H738 0.930 . S
C746 C745 1.362 . S
C746 C749 1.409 . S
C747 H739 0.930 . S
C747 C748 1.355 . S
C747 C749 1.415 . S
C748 C747 1.355 . S
C748 C750 1.419 . S
C749 C744 1.425 . S
C749 C746 1.409 . S
C749 C747 1.415 . S
C750 H740 0.930 . S
C750 C748 1.419 . S
C750 C751 1.362 . S
C751 H741 0.930 . S
C751 C744 1.409 . S
C751 C750 1.362 . S
H752 C758 0.930 . S
H753 C761 0.930 . S
H754 C762 0.930 . S
H755 C763 0.930 . S
H756 C766 0.930 . S
H757 C767 0.930 . S
C758 H752 0.930 . S
C758 C759 1.355 . S
C758 C760 1.415 . S
C759 C758 1.355 . S
C759 C761 1.419 . S
C760 C758 1.415 . S
C760 C765 1.425 . S
C760 C767 1.409 . S
C761 H753 0.930 . S
C761 C759 1.419 . S
C761 C762 1.362 . S
C762 H754 0.930 . S
C762 C761 1.362 . S
C762 C765 1.409 . S
C763 H755 0.930 . S
C763 C764 1.355 . S
C763 C765 1.415 . S
C764 C763 1.355 . S
C764 C766 1.419 . S
C765 C760 1.425 . S
C765 C762 1.409 . S
C765 C763 1.415 . S
C766 H756 0.930 . S
C766 C764 1.419 . S
C766 C767 1.362 . S
C767 H757 0.930 . S
C767 C760 1.409 . S
C767 C766 1.362 . S
H768 C774 0.930 . S
H769 C777 0.930 . S
H770 C778 0.930 . S
H771 C779 0.930 . S
H772 C782 0.930 . S
H773 C783 0.930 . S
C774 H768 0.930 . S
C774 C775 1.355 . S
C774 C776 1.415 . S
C775 C774 1.355 . S
C775 C777 1.419 . S
C776 C774 1.415 . S
C776 C781 1.425 . S
C776 C783 1.409 . S
C777 H769 0.930 . S
C777 C775 1.419 . S
C777 C778 1.362 . S
C778 H770 0.930 . S
C778 C777 1.362 . S
C778 C781 1.409 . S
C779 H771 0.930 . S
C779 C780 1.355 . S
C779 C781 1.415 . S
C780 C779 1.355 . S
C780 C782 1.419 . S
C781 C776 1.425 . S
C781 C778 1.409 . S
C781 C779 1.415 . S
C782 H772 0.930 . S
C782 C780 1.419 . S
C782 C783 1.362 . S
C783 H773 0.930 . S
C783 C776 1.409 . S
C783 C782 1.362 . S
H784 C790 0.930 . S
H785 C793 0.930 . S
H786 C794 0.930 . S
H787 C795 0.930 . S
H788 C798 0.930 . S
H789 C799 0.930 . S
C790 H784 0.930 . S
C790 C791 1.355 . S
C790 C792 1.415 . S
C791 C790 1.355 . S
C791 C793 1.419 . S
C792 C790 1.415 . S
C792 C797 1.425 . S
C792 C799 1.409 . S
C793 H785 0.930 . S
C793 C791 1.419 . S
C793 C794 1.362 . S
C794 H786 0.930 . S
C794 C793 1.362 . S
C794 C797 1.409 . S
C795 H787 0.930 . S
C795 C796 1.355 . S
C795 C797 1.415 . S
C796 C795 1.355 . S
C796 C798 1.419 . S
C797 C792 1.425 . S
C797 C794 1.409 . S
C797 C795 1.415 . S
C798 H788 0.930 . S
C798 C796 1.419 . S
C798 C799 1.362 . S
C799 H789 0.930 . S
C799 C792 1.409 . S
C799 C798 1.362 . S
H800 C806 0.930 . S
H801 C809 0.930 . S
H802 C810 0.930 . S
H803 C811 0.930 . S
H804 C814 0.930 . S
H805 C815 0.930 . S
C806 H800 0.930 . S
C806 C807 1.355 . S
C806 C808 1.415 . S
C807 C806 1.355 . S
C807 C809 1.419 . S
C808 C806 1.415 . S
C808 C813 1.425 . S
C808 C815 1.409 . S
C809 H801 0.930 . S
C809 C807 1.419 . S
C809 C810 1.362 . S
C810 H802 0.930 . S
C810 C809 1.362 . S
C810 C813 1.409 . S
C811 H803 0.930 . S
C811 C812 1.355 . S
C811 C813 1.415 . S
C812 C811 1.355 . S
C812 C814 1.419 . S
C813 C808 1.425 . S
C813 C810 1.409 . S
C813 C811 1.415 . S
C814 H804 0.930 . S
C814 C812 1.419 . S
C814 C815 1.362 . S
C815 H805 0.930 . S
C815 C808 1.409 . S
C815 C814 1.362 . S
H816 C822 0.930 . S
H817 C825 0.930 . S
H818 C826 0.930 . S
H819 C827 0.930 . S
H820 C830 0.930 . S
H821 C831 0.930 . S
C822 H816 0.930 . S
C822 C823 1.355 . S
C822 C824 1.415 . S
C823 C822 1.355 . S
C823 C825 1.419 . S
C824 C822 1.415 . S
C824 C829 1.425 . S
C824 C831 1.409 . S
C825 H817 0.930 . S
C825 C823 1.419 . S
C825 C826 1.362 . S
C826 H818 0.930 . S
C826 C825 1.362 . S
C826 C829 1.409 . S
C827 H819 0.930 . S
C827 C828 1.355 . S
C827 C829 1.415 . S
C828 C827 1.355 . S
C828 C830 1.419 . S
C829 C824 1.425 . S
C829 C826 1.409 . S
C829 C827 1.415 . S
C830 H820 0.930 . S
C830 C828 1.419 . S
C830 C831 1.362 . S
C831 H821 0.930 . S
C831 C824 1.409 . S
C831 C830 1.362 . S
H832 C838 0.930 1_455 S
H833 C841 0.930 . S
H834 C842 0.930 . S
H835 C843 0.930 1_655 S
H836 C846 0.930 . S
H837 C847 0.930 . S
C838 H832 0.930 1_655 S
C838 C839 1.355 . S
C838 C840 1.415 1_655 S
C839 C838 1.355 . S
C839 C841 1.419 . S
C840 C838 1.415 1_455 S
C840 C845 1.425 1_456 S
C840 C847 1.409 . S
C841 H833 0.930 . S
C841 C839 1.419 . S
C841 C842 1.362 1_556 S
C842 H834 0.930 . S
C842 C841 1.362 1_554 S
C842 C845 1.409 . S
C843 H835 0.930 1_455 S
C843 C844 1.355 . S
C843 C845 1.415 1_455 S
C844 C843 1.355 . S
C844 C846 1.419 . S
C845 C840 1.425 1_654 S
C845 C842 1.409 . S
C845 C843 1.415 1_655 S
C846 H836 0.930 . S
C846 C844 1.419 . S
C846 C847 1.362 1_554 S
C847 H837 0.930 . S
C847 C840 1.409 . S
C847 C846 1.362 1_556 S
H848 C854 0.930 . S
H849 C857 0.930 . S
H850 C858 0.930 . S
H851 C859 0.930 . S
H852 C862 0.930 . S
H853 C863 0.930 . S
C854 H848 0.930 . S
C854 C855 1.355 1_655 S
C854 C856 1.415 . S
C855 C854 1.355 1_455 S
C855 C857 1.419 . S
C856 C854 1.415 . S
C856 C861 1.425 1_666 S
C856 C863 1.409 . S
C857 H849 0.930 . S
C857 C855 1.419 . S
C857 C858 1.362 1_566 S
C858 H850 0.930 . S
C858 C857 1.362 1_544 S
C858 C861 1.409 . S
C859 H851 0.930 . S
C859 C860 1.355 1_455 S
C859 C861 1.415 . S
C860 C859 1.355 1_655 S
C860 C862 1.419 . S
C861 C856 1.425 1_444 S
C861 C858 1.409 . S
C861 C859 1.415 . S
C862 H852 0.930 . S
C862 C860 1.419 . S
C862 C863 1.362 1_544 S
C863 H853 0.930 . S
C863 C856 1.409 . S
C863 C862 1.362 1_566 S
H864 C870 0.930 . S
H865 C873 0.931 . S
H866 C874 0.930 . S
H867 C875 0.930 . S
H868 C878 0.931 . S
H869 C879 0.930 . S
C870 H864 0.930 . S
C870 C871 1.355 . S
C870 C872 1.415 . S
C871 C870 1.355 . S
C871 C873 1.417 1_545 S
C872 C870 1.415 . S
C872 C877 1.425 1_546 S
C872 C879 1.409 . S
C873 H865 0.931 . S
C873 C871 1.417 1_565 S
C873 C874 1.364 1_556 S
C874 H866 0.930 . S
C874 C873 1.364 1_554 S
C874 C877 1.409 . S
C875 H867 0.930 . S
C875 C876 1.355 . S
C875 C877 1.415 . S
C876 C875 1.355 . S
C876 C878 1.417 1_565 S
C877 C872 1.425 1_564 S
C877 C874 1.409 . S
C877 C875 1.415 . S
C878 H868 0.931 . S
C878 C876 1.417 1_545 S
C878 C879 1.364 1_554 S
C879 H869 0.930 . S
C879 C872 1.409 . S
C879 C878 1.364 1_556 S
H880 C886 0.930 . S
H881 C889 0.930 . S
H882 C890 0.930 . S
H883 C891 0.930 . S
H884 C894 0.930 . S
H885 C895 0.930 . S
C886 H880 0.930 . S
C886 C887 1.355 . S
C886 C888 1.415 1_554 S
C887 C886 1.355 . S
C887 C889 1.419 . S
C888 C886 1.415 1_556 S
C888 C893 1.425 1_556 S
C888 C895 1.409 . S
C889 H881 0.930 . S
C889 C887 1.419 . S
C889 C890 1.362 . S
C890 H882 0.930 . S
C890 C889 1.362 . S
C890 C893 1.409 . S
C891 H883 0.930 . S
C891 C892 1.355 . S
C891 C893 1.415 1_556 S
C892 C891 1.355 . S
C892 C894 1.419 . S
C893 C888 1.425 1_554 S
C893 C890 1.409 . S
C893 C891 1.415 1_554 S
C894 H884 0.930 . S
C894 C892 1.419 . S
C894 C895 1.362 . S
C895 H885 0.930 . S
C895 C888 1.409 . S
C895 C894 1.362 . S
H896 C902 0.930 . S
H897 C905 0.930 . S
H898 C906 0.930 . S
H899 C907 0.930 . S
H900 C910 0.930 . S
H901 C911 0.930 . S
C902 H896 0.930 . S
C902 C903 1.355 1_455 S
C902 C904 1.415 1_545 S
C903 C902 1.355 1_655 S
C903 C905 1.419 . S
C904 C902 1.415 1_565 S
C904 C909 1.425 1_465 S
C904 C911 1.409 . S
C905 H897 0.930 . S
C905 C903 1.419 . S
C905 C906 1.362 . S
C906 H898 0.930 . S
C906 C905 1.362 . S
C906 C909 1.409 . S
C907 H899 0.930 . S
C907 C908 1.355 1_655 S
C907 C909 1.415 1_565 S
C908 C907 1.355 1_455 S
C908 C910 1.419 . S
C909 C904 1.425 1_645 S
C909 C906 1.409 . S
C909 C907 1.415 1_545 S
C910 H900 0.930 . S
C910 C908 1.419 . S
C910 C911 1.362 . S
C911 H901 0.930 . S
C911 C904 1.409 . S
C911 C910 1.362 . S
H912 C918 0.930 . S
H913 C921 0.930 . S
H914 C922 0.930 . S
H915 C923 0.930 . S
H916 C926 0.930 . S
H917 C927 0.930 . S
C918 H912 0.930 . S
C918 C919 1.355 . S
C918 C920 1.415 . S
C919 C918 1.355 . S
C919 C921 1.419 . S
C920 C918 1.415 . S
C920 C925 1.425 1_565 S
C920 C927 1.409 . S
C921 H913 0.930 . S
C921 C919 1.419 . S
C921 C922 1.362 1_565 S
C922 H914 0.930 . S
C922 C921 1.362 1_545 S
C922 C925 1.409 . S
C923 H915 0.930 . S
C923 C924 1.355 . S
C923 C925 1.415 . S
C924 C923 1.355 . S
C924 C926 1.419 . S
C925 C920 1.425 1_545 S
C925 C922 1.409 . S
C925 C923 1.415 . S
C926 H916 0.930 . S
C926 C924 1.419 . S
C926 C927 1.362 1_545 S
C927 H917 0.930 . S
C927 C920 1.409 . S
C927 C926 1.362 1_565 S
H928 C934 0.930 . S
H929 C937 0.930 . S
H930 C938 0.930 . S
H931 C939 0.930 . S
H932 C942 0.930 . S
H933 C943 0.930 . S
C934 H928 0.930 . S
C934 C935 1.355 . S
C934 C936 1.415 . S
C935 C934 1.355 . S
C935 C937 1.419 . S
C936 C934 1.415 . S
C936 C941 1.425 . S
C936 C943 1.409 . S
C937 H929 0.930 . S
C937 C935 1.419 . S
C937 C938 1.362 . S
C938 H930 0.930 . S
C938 C937 1.362 . S
C938 C941 1.409 . S
C939 H931 0.930 . S
C939 C940 1.355 . S
C939 C941 1.415 . S
C940 C939 1.355 . S
C940 C942 1.419 . S
C941 C936 1.425 . S
C941 C938 1.409 . S
C941 C939 1.415 . S
C942 H932 0.930 . S
C942 C940 1.419 . S
C942 C943 1.362 . S
C943 H933 0.930 . S
C943 C936 1.409 . S
C943 C942 1.362 . S
H944 C950 0.930 1_655 S
H945 C953 0.930 . S
H946 C954 0.930 . S
H947 C955 0.930 1_455 S
H948 C958 0.930 . S
H949 C959 0.930 . S
C950 H944 0.930 1_455 S
C950 C951 1.355 . S
C950 C952 1.415 1_455 S
C951 C950 1.355 . S
C951 C953 1.419 . S
C952 C950 1.415 1_655 S
C952 C957 1.425 1_655 S
C952 C959 1.409 . S
C953 H945 0.930 . S
C953 C951 1.419 . S
C953 C954 1.362 . S
C954 H946 0.930 . S
C954 C953 1.362 . S
C954 C957 1.409 . S
C955 H947 0.930 1_655 S
C955 C956 1.355 . S
C955 C957 1.415 1_655 S
C956 C955 1.355 . S
C956 C958 1.419 . S
C957 C952 1.425 1_455 S
C957 C954 1.409 . S
C957 C955 1.415 1_455 S
C958 H948 0.930 . S
C958 C956 1.419 . S
C958 C959 1.362 . S
C959 H949 0.930 . S
C959 C952 1.409 . S
C959 C958 1.362 . S
H960 C966 0.930 . S
H961 C969 0.930 . S
H962 C970 0.930 1_655 S
H963 C971 0.930 . S
H964 C974 0.930 . S
H965 C975 0.930 . S
C966 H960 0.930 . S
C966 C967 1.355 . S
C966 C968 1.415 . S
C967 C966 1.355 . S
C967 C969 1.419 1_455 S
C968 C966 1.415 . S
C968 C973 1.425 . S
C968 C975 1.409 . S
C969 H961 0.930 . S
C969 C967 1.419 1_655 S
C969 C970 1.362 1_655 S
C970 H962 0.930 1_455 S
C970 C969 1.362 1_455 S
C970 C973 1.409 . S
C971 H963 0.930 . S
C971 C972 1.355 . S
C971 C973 1.415 . S
C972 C971 1.355 . S
C972 C974 1.419 . S
C973 C968 1.425 . S
C973 C970 1.409 . S
C973 C971 1.415 . S
C974 H964 0.930 . S
C974 C972 1.419 . S
C974 C975 1.362 . S
C975 H965 0.930 . S
C975 C968 1.409 . S
C975 C974 1.362 . S
H976 C982 0.930 . S
H977 C985 0.930 . S
H978 C986 0.930 . S
H979 C987 0.930 . S
H980 C990 0.930 . S
H981 C991 0.930 . S
C982 H976 0.930 . S
C982 C983 1.355 . S
C982 C984 1.415 . S
C983 C982 1.355 . S
C983 C985 1.419 1_545 S
C984 C982 1.415 . S
C984 C989 1.425 . S
C984 C991 1.409 . S
C985 H977 0.930 . S
C985 C983 1.419 1_565 S
C985 C986 1.362 . S
C986 H978 0.930 . S
C986 C985 1.362 . S
C986 C989 1.409 1_565 S
C987 H979 0.930 . S
C987 C988 1.355 . S
C987 C989 1.415 . S
C988 C987 1.355 . S
C988 C990 1.419 . S
C989 C984 1.425 . S
C989 C986 1.409 1_545 S
C989 C987 1.415 . S
C990 H980 0.930 . S
C990 C988 1.419 . S
C990 C991 1.362 . S
C991 H981 0.930 . S
C991 C984 1.409 . S
C991 C990 1.362 . S
H992 C998 0.930 . S
H993 C1001 0.930 . S
H994 C1002 0.930 . S
H995 C1003 0.930 . S
H996 C1006 0.930 . S
H997 C1007 0.930 1_565 S
C998 H992 0.930 . S
C998 C999 1.355 . S
C998 C1000 1.415 . S
C999 C998 1.355 . S
C999 C1001 1.419 . S
C1000 C998 1.415 . S
C1000 C1005 1.425 . S
C1000 C1007 1.409 . S
C1001 H993 0.930 . S
C1001 C999 1.419 . S
C1001 C1002 1.362 . S
C1002 H994 0.930 . S
C1002 C1001 1.362 . S
C1002 C1005 1.409 . S
C1003 H995 0.930 . S
C1003 C1004 1.355 . S
C1003 C1005 1.415 . S
C1004 C1003 1.355 . S
C1004 C1006 1.419 1_545 S
C1005 C1000 1.425 . S
C1005 C1002 1.409 . S
C1005 C1003 1.415 . S
C1006 H996 0.930 . S
C1006 C1004 1.419 1_565 S
C1006 C1007 1.362 1_565 S
C1007 H997 0.930 1_545 S
C1007 C1000 1.409 . S
C1007 C1006 1.362 1_545 S
H1008 C1014 0.930 . S
H1009 C1017 0.930 . S
H1010 C1018 0.930 . S
H1011 C1019 0.930 . S
H1012 C1022 0.930 . S
H1013 C1023 0.930 . S
C1014 H1008 0.930 . S
C1014 C1015 1.355 . S
C1014 C1016 1.415 . S
C1015 C1014 1.355 . S
C1015 C1017 1.419 . S
C1016 C1014 1.415 . S
C1016 C1021 1.425 . S
C1016 C1023 1.409 . S
C1017 H1009 0.930 . S
C1017 C1015 1.419 . S
C1017 C1018 1.362 . S
C1018 H1010 0.930 . S
C1018 C1017 1.362 . S
C1018 C1021 1.409 . S
C1019 H1011 0.930 . S
C1019 C1020 1.355 . S
C1019 C1021 1.415 . S
C1020 C1019 1.355 . S
C1020 C1022 1.419 . S
C1021 C1016 1.425 . S
C1021 C1018 1.409 . S
C1021 C1019 1.415 . S
C1022 H1012 0.930 . S
C1022 C1020 1.419 . S
C1022 C1023 1.362 . S
C1023 H1013 0.930 . S
C1023 C1016 1.409 . S
C1023 C1022 1.362 . S
H1024 C1030 0.930 . S
H1025 C1033 0.930 . S
H1026 C1034 0.930 . S
H1027 C1035 0.930 . S
H1028 C1038 0.930 . S
H1029 C1039 0.930 . S
C1030 H1024 0.930 . S
C1030 C1031 1.355 . S
C1030 C1032 1.415 . S
C1031 C1030 1.355 . S
C1031 C1033 1.419 . S
C1032 C1030 1.415 . S
C1032 C1037 1.425 . S
C1032 C1039 1.409 . S
C1033 H1025 0.930 . S
C1033 C1031 1.419 . S
C1033 C1034 1.362 . S
C1034 H1026 0.930 . S
C1034 C1033 1.362 . S
C1034 C1037 1.409 . S
C1035 H1027 0.930 . S
C1035 C1036 1.355 . S
C1035 C1037 1.415 . S
C1036 C1035 1.355 . S
C1036 C1038 1.419 . S
C1037 C1032 1.425 . S
C1037 C1034 1.409 . S
C1037 C1035 1.415 . S
C1038 H1028 0.930 . S
C1038 C1036 1.419 . S
C1038 C1039 1.362 . S
C1039 H1029 0.930 . S
C1039 C1032 1.409 . S
C1039 C1038 1.362 . S
H1040 C1046 0.923 1_445 S
H1041 C1049 0.930 . S
H1042 C1050 0.930 . S
H1043 C1051 0.930 . S
H1044 C1054 0.930 . S
H1045 C1055 0.930 . S
C1046 H1040 0.923 1_665 S
C1046 C1047 1.355 . S
C1046 C1048 1.415 . S
C1047 C1046 1.355 . S
C1047 C1049 1.419 . S
C1048 C1046 1.415 . S
C1048 C1053 1.425 . S
C1048 C1055 1.409 1_655 S
C1049 H1041 0.930 . S
C1049 C1047 1.419 . S
C1049 C1050 1.362 . S
C1050 H1042 0.930 . S
C1050 C1049 1.362 . S
C1050 C1053 1.409 . S
C1051 H1043 0.930 . S
C1051 C1052 1.369 . S
C1051 C1053 1.415 . S
C1052 C1051 1.369 . S
C1052 C1054 1.405 1_655 S
C1053 C1048 1.425 . S
C1053 C1050 1.409 . S
C1053 C1051 1.415 . S
C1054 H1044 0.930 . S
C1054 C1052 1.405 1_455 S
C1054 C1055 1.362 . S
C1055 H1045 0.930 . S
C1055 C1048 1.409 1_455 S
C1055 C1054 1.362 . S
H1056 C1062 0.930 . S
H1057 C1065 0.930 . S
H1058 C1066 0.930 . S
H1059 C1067 0.930 . S
H1060 C1070 0.930 . S
H1061 C1071 0.930 . S
C1062 H1056 0.930 . S
C1062 C1063 1.355 . S
C1062 C1064 1.415 . S
C1063 C1062 1.355 . S
C1063 C1065 1.419 . S
C1064 C1062 1.415 . S
C1064 C1069 1.425 . S
C1064 C1071 1.409 . S
C1065 H1057 0.930 . S
C1065 C1063 1.419 . S
C1065 C1066 1.362 . S
C1066 H1058 0.930 . S
C1066 C1065 1.362 . S
C1066 C1069 1.409 . S
C1067 H1059 0.930 . S
C1067 C1068 1.355 . S
C1067 C1069 1.415 . S
C1068 C1067 1.355 . S
C1068 C1070 1.419 . S
C1069 C1064 1.425 . S
C1069 C1066 1.409 . S
C1069 C1067 1.415 . S
C1070 H1060 0.930 . S
C1070 C1068 1.419 . S
C1070 C1071 1.362 . S
C1071 H1061 0.930 . S
C1071 C1064 1.409 . S
C1071 C1070 1.362 . S
H1072 C1078 0.930 . S
H1073 C1081 0.930 . S
H1074 C1082 0.930 . S
H1075 C1083 0.930 . S
H1076 C1086 0.930 . S
H1077 C1087 0.930 . S
C1078 H1072 0.930 . S
C1078 C1079 1.355 . S
C1078 C1080 1.415 . S
C1079 C1078 1.355 . S
C1079 C1081 1.419 . S
C1080 C1078 1.415 . S
C1080 C1085 1.425 . S
C1080 C1087 1.409 . S
C1081 H1073 0.930 . S
C1081 C1079 1.419 . S
C1081 C1082 1.362 . S
C1082 H1074 0.930 . S
C1082 C1081 1.362 . S
C1082 C1085 1.409 . S
C1083 H1075 0.930 . S
C1083 C1084 1.355 . S
C1083 C1085 1.415 . S
C1084 C1083 1.355 . S
C1084 C1086 1.419 . S
C1085 C1080 1.425 . S
C1085 C1082 1.409 . S
C1085 C1083 1.415 . S
C1086 H1076 0.930 . S
C1086 C1084 1.419 . S
C1086 C1087 1.362 . S
C1087 H1077 0.930 . S
C1087 C1080 1.409 . S
C1087 C1086 1.362 . S
C327 C66 1.968 . S
C332 C8 2.138 1_655 S
C343 C6 2.162 . S
C348 C39 2.564 1_565 S
C359 C59 2.808 . S
C364 C29 2.604 . S
C375 C49 2.486 . S
C380 C68 2.565 . S
C391 C99 2.653 . S
C396 C109 2.538 . S
C407 C119 2.667 1_565 S
C412 C129 2.491 . S
C423 C139 2.280 . S
C428 C146 1.993 . S
C439 C89 2.320 . S
C444 C148 2.337 . S
C455 C179 2.125 1_455 S
C460 C236 1.998 . S
C471 C176 2.211 . S
C476 C188 2.549 1_545 S
C487 C181 2.643 . S
C492 C208 2.793 . S
C503 C201 2.528 . S
C508 C239 2.569 . S
C519 C248 2.677 . S
C524 C261 2.502 . S
C535 C281 2.526 . S
C540 C268 2.644 1_545 S
C551 C316 1.970 . S
C556 C288 2.283 . S
C567 C319 2.373 . S
C572 C241 2.307 . S
C583 C1 0.535 . S
C588 C96 0.359 . S
C599 C116 0.601 . S
C604 C36 0.689 . S
C615 C56 0.369 . S
C620 C136 0.578 . S
C631 C61 0.742 . S
C636 C141 0.764 . S
C647 C246 0.454 . S
C652 C169 0.458 . S
C663 C266 0.613 . S
C668 C186 0.675 . S
C679 C206 0.441 . S
C684 C286 0.424 . S
C695 C309 0.745 . S
C700 C229 0.748 . S
C711 C19 1.304 . S
C716 C48 1.312 . S
C727 C28 1.400 . S
C732 C79 1.409 . S
C743 C128 1.003 . S
C748 C88 1.016 . S
C759 C159 1.220 . S
C764 C108 1.236 . S
C775 C219 1.275 . S
C780 C168 1.309 . S
C791 C228 1.399 . S
C796 C199 1.353 . S
C807 C259 1.019 . S
C812 C299 0.999 . S
C823 C279 1.235 . S
C828 C308 1.219 . S
C839 C161 1.648 . S
C844 C9 1.648 . S
C855 C196 1.430 . S
C860 C26 1.430 . S
C871 C216 1.296 . S
C876 C46 1.296 . S
C887 C69 1.545 . S
C892 C221 1.545 . S
C903 C256 1.227 . S
C908 C86 1.227 . S
C919 C276 1.395 . S
C924 C106 1.395 . S
C935 C296 1.442 . S
C940 C126 1.442 . S
C951 C301 1.624 . S
C956 C149 1.624 . S
C967 C156 1.745 1_455 S
C972 C16 1.713 . S
C983 C81 1.894 1_545 S
C988 C21 1.868 1_455 S
C999 C101 1.860 . S
C1004 C41 1.867 1_545 S
C1015 C121 1.759 . S
C1020 C76 1.840 . S
C1031 C306 1.798 1_655 S
C1036 C166 1.724 . S
C1047 C249 1.953 1_565 S
C1052 C189 1.810 1_655 S
C1063 C269 1.913 . S
C1068 C209 1.927 1_565 S
C1079 C226 1.807 . S
C1084 C289 1.817 . S
