# Generated by pormake.
# Topology wkr, (6)-cn, num edge types: 1
# Building blocks:
#     Node 0, Type 0, BuildingBlock: MIDCAF_clean_sbu_0, # of connection points: 6
#     Node 1, Type 0, BuildingBlock: MIDCAF_clean_sbu_0, # of connection points: 6
#     Node 2, Type 0, BuildingBlock: MIDCAF_clean_sbu_0, # of connection points: 6
#     Node 3, Type 0, BuildingBlock: MIDCAF_clean_sbu_0, # of connection points: 6
#     Node 4, Type 0, BuildingBlock: MIDCAF_clean_sbu_0, # of connection points: 6
#     Node 5, Type 0, BuildingBlock: MIDCAF_clean_sbu_0, # of connection points: 6
#     Node 6, Type 0, BuildingBlock: MIDCAF_clean_sbu_0, # of connection points: 6
#     Node 7, Type 0, BuildingBlock: MIDCAF_clean_sbu_0, # of connection points: 6
#     Node 8, Type 0, BuildingBlock: MIDCAF_clean_sbu_0, # of connection points: 6
#     Node 9, Type 0, BuildingBlock: MIDCAF_clean_sbu_0, # of connection points: 6
#     Node 10, Type 0, BuildingBlock: MIDCAF_clean_sbu_0, # of connection points: 6
#     Node 11, Type 0, BuildingBlock: MIDCAF_clean_sbu_0, # of connection points: 6
#     Node 12, Type 0, BuildingBlock: MIDCAF_clean_sbu_0, # of connection points: 6
#     Node 13, Type 0, BuildingBlock: MIDCAF_clean_sbu_0, # of connection points: 6
#     Node 14, Type 0, BuildingBlock: MIDCAF_clean_sbu_0, # of connection points: 6
#     Node 15, Type 0, BuildingBlock: MIDCAF_clean_sbu_0, # of connection points: 6
#     Node 16, Type 0, BuildingBlock: MIDCAF_clean_sbu_0, # of connection points: 6
#     Node 17, Type 0, BuildingBlock: MIDCAF_clean_sbu_0, # of connection points: 6
#     Node 18, Type 0, BuildingBlock: MIDCAF_clean_sbu_0, # of connection points: 6
#     Node 19, Type 0, BuildingBlock: MIDCAF_clean_sbu_0, # of connection points: 6
#     Node 20, Type 0, BuildingBlock: MIDCAF_clean_sbu_0, # of connection points: 6
#     Node 21, Type 0, BuildingBlock: MIDCAF_clean_sbu_0, # of connection points: 6
#     Node 22, Type 0, BuildingBlock: MIDCAF_clean_sbu_0, # of connection points: 6
#     Node 23, Type 0, BuildingBlock: MIDCAF_clean_sbu_0, # of connection points: 6
#     Edge 24, Type (0, 0), BuildingBlock: OJICUG_clean_linker_0, # of connection points: 2
#     Edge 25, Type (0, 0), BuildingBlock: OJICUG_clean_linker_0, # of connection points: 2
#     Edge 26, Type (0, 0), BuildingBlock: OJICUG_clean_linker_0, # of connection points: 2
#     Edge 27, Type (0, 0), BuildingBlock: OJICUG_clean_linker_0, # of connection points: 2
#     Edge 28, Type (0, 0), BuildingBlock: OJICUG_clean_linker_0, # of connection points: 2
#     Edge 29, Type (0, 0), BuildingBlock: OJICUG_clean_linker_0, # of connection points: 2
#     Edge 30, Type (0, 0), BuildingBlock: OJICUG_clean_linker_0, # of connection points: 2
#     Edge 31, Type (0, 0), BuildingBlock: OJICUG_clean_linker_0, # of connection points: 2
#     Edge 32, Type (0, 0), BuildingBlock: OJICUG_clean_linker_0, # of connection points: 2
#     Edge 33, Type (0, 0), BuildingBlock: OJICUG_clean_linker_0, # of connection points: 2
#     Edge 34, Type (0, 0), BuildingBlock: OJICUG_clean_linker_0, # of connection points: 2
#     Edge 35, Type (0, 0), BuildingBlock: OJICUG_clean_linker_0, # of connection points: 2
#     Edge 36, Type (0, 0), BuildingBlock: OJICUG_clean_linker_0, # of connection points: 2
#     Edge 37, Type (0, 0), BuildingBlock: OJICUG_clean_linker_0, # of connection points: 2
#     Edge 38, Type (0, 0), BuildingBlock: OJICUG_clean_linker_0, # of connection points: 2
#     Edge 39, Type (0, 0), BuildingBlock: OJICUG_clean_linker_0, # of connection points: 2
#     Edge 40, Type (0, 0), BuildingBlock: OJICUG_clean_linker_0, # of connection points: 2
#     Edge 41, Type (0, 0), BuildingBlock: OJICUG_clean_linker_0, # of connection points: 2
#     Edge 42, Type (0, 0), BuildingBlock: OJICUG_clean_linker_0, # of connection points: 2
#     Edge 43, Type (0, 0), BuildingBlock: OJICUG_clean_linker_0, # of connection points: 2
#     Edge 44, Type (0, 0), BuildingBlock: OJICUG_clean_linker_0, # of connection points: 2
#     Edge 45, Type (0, 0), BuildingBlock: OJICUG_clean_linker_0, # of connection points: 2
#     Edge 46, Type (0, 0), BuildingBlock: OJICUG_clean_linker_0, # of connection points: 2
#     Edge 47, Type (0, 0), BuildingBlock: OJICUG_clean_linker_0, # of connection points: 2
#     Edge 48, Type (0, 0), BuildingBlock: OJICUG_clean_linker_0, # of connection points: 2
#     Edge 49, Type (0, 0), BuildingBlock: OJICUG_clean_linker_0, # of connection points: 2
#     Edge 50, Type (0, 0), BuildingBlock: OJICUG_clean_linker_0, # of connection points: 2
#     Edge 51, Type (0, 0), BuildingBlock: OJICUG_clean_linker_0, # of connection points: 2
#     Edge 52, Type (0, 0), BuildingBlock: OJICUG_clean_linker_0, # of connection points: 2
#     Edge 53, Type (0, 0), BuildingBlock: OJICUG_clean_linker_0, # of connection points: 2
#     Edge 54, Type (0, 0), BuildingBlock: OJICUG_clean_linker_0, # of connection points: 2
#     Edge 55, Type (0, 0), BuildingBlock: OJICUG_clean_linker_0, # of connection points: 2
#     Edge 56, Type (0, 0), BuildingBlock: OJICUG_clean_linker_0, # of connection points: 2
#     Edge 57, Type (0, 0), BuildingBlock: OJICUG_clean_linker_0, # of connection points: 2
#     Edge 58, Type (0, 0), BuildingBlock: OJICUG_clean_linker_0, # of connection points: 2
#     Edge 59, Type (0, 0), BuildingBlock: OJICUG_clean_linker_0, # of connection points: 2
#     Edge 60, Type (0, 0), BuildingBlock: OJICUG_clean_linker_0, # of connection points: 2
#     Edge 61, Type (0, 0), BuildingBlock: OJICUG_clean_linker_0, # of connection points: 2
#     Edge 62, Type (0, 0), BuildingBlock: OJICUG_clean_linker_0, # of connection points: 2
#     Edge 63, Type (0, 0), BuildingBlock: OJICUG_clean_linker_0, # of connection points: 2
#     Edge 64, Type (0, 0), BuildingBlock: OJICUG_clean_linker_0, # of connection points: 2
#     Edge 65, Type (0, 0), BuildingBlock: OJICUG_clean_linker_0, # of connection points: 2
#     Edge 66, Type (0, 0), BuildingBlock: OJICUG_clean_linker_0, # of connection points: 2
#     Edge 67, Type (0, 0), BuildingBlock: OJICUG_clean_linker_0, # of connection points: 2
#     Edge 68, Type (0, 0), BuildingBlock: OJICUG_clean_linker_0, # of connection points: 2
#     Edge 69, Type (0, 0), BuildingBlock: OJICUG_clean_linker_0, # of connection points: 2
#     Edge 70, Type (0, 0), BuildingBlock: OJICUG_clean_linker_0, # of connection points: 2
#     Edge 71, Type (0, 0), BuildingBlock: OJICUG_clean_linker_0, # of connection points: 2
#     Edge 72, Type (0, 0), BuildingBlock: OJICUG_clean_linker_0, # of connection points: 2
#     Edge 73, Type (0, 0), BuildingBlock: OJICUG_clean_linker_0, # of connection points: 2
#     Edge 74, Type (0, 0), BuildingBlock: OJICUG_clean_linker_0, # of connection points: 2
#     Edge 75, Type (0, 0), BuildingBlock: OJICUG_clean_linker_0, # of connection points: 2
#     Edge 76, Type (0, 0), BuildingBlock: OJICUG_clean_linker_0, # of connection points: 2
#     Edge 77, Type (0, 0), BuildingBlock: OJICUG_clean_linker_0, # of connection points: 2
#     Edge 78, Type (0, 0), BuildingBlock: OJICUG_clean_linker_0, # of connection points: 2
#     Edge 79, Type (0, 0), BuildingBlock: OJICUG_clean_linker_0, # of connection points: 2
#     Edge 80, Type (0, 0), BuildingBlock: OJICUG_clean_linker_0, # of connection points: 2
#     Edge 81, Type (0, 0), BuildingBlock: OJICUG_clean_linker_0, # of connection points: 2
#     Edge 82, Type (0, 0), BuildingBlock: OJICUG_clean_linker_0, # of connection points: 2
#     Edge 83, Type (0, 0), BuildingBlock: OJICUG_clean_linker_0, # of connection points: 2
#     Edge 84, Type (0, 0), BuildingBlock: OJICUG_clean_linker_0, # of connection points: 2
#     Edge 85, Type (0, 0), BuildingBlock: OJICUG_clean_linker_0, # of connection points: 2
#     Edge 86, Type (0, 0), BuildingBlock: OJICUG_clean_linker_0, # of connection points: 2
#     Edge 87, Type (0, 0), BuildingBlock: OJICUG_clean_linker_0, # of connection points: 2
#     Edge 88, Type (0, 0), BuildingBlock: OJICUG_clean_linker_0, # of connection points: 2
#     Edge 89, Type (0, 0), BuildingBlock: OJICUG_clean_linker_0, # of connection points: 2
#     Edge 90, Type (0, 0), BuildingBlock: OJICUG_clean_linker_0, # of connection points: 2
#     Edge 91, Type (0, 0), BuildingBlock: OJICUG_clean_linker_0, # of connection points: 2
#     Edge 92, Type (0, 0), BuildingBlock: OJICUG_clean_linker_0, # of connection points: 2
#     Edge 93, Type (0, 0), BuildingBlock: OJICUG_clean_linker_0, # of connection points: 2
#     Edge 94, Type (0, 0), BuildingBlock: OJICUG_clean_linker_0, # of connection points: 2
#     Edge 95, Type (0, 0), BuildingBlock: OJICUG_clean_linker_0, # of connection points: 2
# Relax obj value: 0.670
# Max RMSD: 0.278
# Mean RMSD: 0.271
data_MOF--net-wkr--node1-MIDCAF_clean_sbu_0--edge1-OJICUG_clean_linker_0
_symmetry_space_group_name_H-M    P1
_symmetry_Int_Tables_number       1
_symmetry_cell_setting            triclinic
loop_
_symmetry_equiv_pos_as_xyz
'x, y, z'
_cell_length_a     35.417316
_cell_length_b     35.459289
_cell_length_c     38.338019
_cell_angle_alpha  89.93122
_cell_angle_beta   90.122358
_cell_angle_gamma 119.91751
loop_
_atom_site_label
_atom_site_type_symbol
_atom_site_fract_x
_atom_site_fract_y
_atom_site_fract_z
_atom_type_partial_charge
Zn0 Zn 0.40978 0.14975 0.13029 0.0
Zn1 Zn 0.53394 0.10981 0.08773 0.0
Zn2 Zn 0.48367 0.14394 0.14054 0.0
C3 C 0.5632 0.11794 0.15781 0.0
C4 C 0.57616 0.19668 0.10814 0.0
O5 O 0.453 0.13065 0.0868 0.0
O6 O 0.3823 0.10713 0.09113 0.0
C7 C 0.42805 0.16705 0.19622 0.0
O8 O 0.53556 0.13139 0.16061 0.0
O9 O 0.56827 0.1038 0.12877 0.0
O10 O 0.56122 0.17518 0.08002 0.0
O11 O 0.5527 0.18503 0.13581 0.0
O12 O 0.39227 0.14387 0.18039 0.0
O13 O 0.46329 0.17134 0.18316 0.0
O14 O 0.49148 0.18055 0.09469 0.0
O15 O 0.45735 0.21141 0.11717 0.0
C16 C 0.48954 0.21512 0.10003 0.0
O17 O 0.47117 0.07817 0.15046 0.0
O18 O 0.46866 0.07082 0.09462 0.0
C19 C 0.41453 0.11243 0.07319 0.0
C20 C 0.46638 0.05415 0.12416 0.0
Zn21 Zn 0.26921 0.44851 0.11415 0.0
Zn22 Zn 0.41596 0.55437 0.13819 0.0
Zn23 Zn 0.34685 0.50894 0.12794 0.0
C24 C 0.39859 0.51346 0.19398 0.0
C25 C 0.38888 0.60885 0.13456 0.0
O26 O 0.34892 0.46791 0.08604 0.0
O27 O 0.28094 0.41602 0.07789 0.0
C28 C 0.2751 0.44851 0.18606 0.0
O29 O 0.36207 0.50943 0.18394 0.0
O30 O 0.42512 0.51629 0.17096 0.0
O31 O 0.41084 0.60329 0.15784 0.0
O32 O 0.36275 0.57611 0.11569 0.0
O33 O 0.25022 0.42478 0.16198 0.0
O34 O 0.31293 0.481 0.17852 0.0
O35 O 0.31853 0.54567 0.10723 0.0
O36 O 0.25176 0.49201 0.09697 0.0
C37 C 0.27944 0.53229 0.09691 0.0
O38 O 0.39503 0.49545 0.09888 0.0
O39 O 0.44689 0.56364 0.09335 0.0
C40 C 0.32032 0.4351 0.06846 0.0
C41 C 0.43324 0.52391 0.08732 0.0
Zn42 Zn 0.89234 0.41927 0.10031 0.0
Zn43 Zn 0.83694 0.26581 0.1231 0.0
Zn44 Zn 0.85312 0.34135 0.13961 0.0
C45 C 0.75946 0.27731 0.12736 0.0
C46 C 0.82493 0.25492 0.18852 0.0
O47 O 0.91798 0.39137 0.15866 0.0
O48 O 0.93529 0.39546 0.1047 0.0
C49 C 0.80627 0.37651 0.08912 0.0
O50 O 0.78454 0.3139 0.14222 0.0
O51 O 0.77516 0.25532 0.11399 0.0
O52 O 0.83653 0.2356 0.16702 0.0
O53 O 0.82782 0.29128 0.18027 0.0
O54 O 0.83972 0.39307 0.06987 0.0
O55 O 0.8075 0.36054 0.11894 0.0
O56 O 0.8809 0.39883 0.17351 0.0
O57 O 0.88404 0.45259 0.14235 0.0
C58 C 0.88213 0.43574 0.17195 0.0
O59 O 0.8653 0.33067 0.08562 0.0
O60 O 0.87357 0.27347 0.08089 0.0
C61 C 0.94751 0.40933 0.13524 0.0
C62 C 0.87414 0.30613 0.06703 0.0
Zn63 Zn 0.59778 0.82363 0.11668 0.0
Zn64 Zn 0.45536 0.87483 0.09339 0.0
Zn65 Zn 0.52023 0.84461 0.13796 0.0
C66 C 0.43981 0.86481 0.16524 0.0
C67 C 0.42461 0.79033 0.11057 0.0
O68 O 0.55188 0.8627 0.08531 0.0
O69 O 0.62037 0.87669 0.08527 0.0
C70 C 0.57624 0.81636 0.18961 0.0
O71 O 0.46992 0.85573 0.15894 0.0
O72 O 0.42553 0.87762 0.14013 0.0
O73 O 0.43799 0.8121 0.08257 0.0
O74 O 0.45025 0.80185 0.13705 0.0
O75 O 0.60587 0.82005 0.16895 0.0
O76 O 0.54644 0.82408 0.17929 0.0
O77 O 0.51423 0.81135 0.09066 0.0
O78 O 0.54306 0.77018 0.09962 0.0
C79 C 0.51032 0.77343 0.09076 0.0
O80 O 0.53008 0.90953 0.14787 0.0
O81 O 0.52094 0.9135 0.09255 0.0
C82 C 0.58956 0.87912 0.07053 0.0
C83 C 0.53001 0.93203 0.12188 0.0
Zn84 Zn 0.58254 0.44241 0.15264 0.0
Zn85 Zn 0.72712 0.54613 0.11277 0.0
Zn86 Zn 0.64991 0.48735 0.13118 0.0
C87 C 0.70997 0.46168 0.09046 0.0
C88 C 0.7327 0.54556 0.18407 0.0
O89 O 0.60225 0.5033 0.10532 0.0
O90 O 0.54528 0.43847 0.1131 0.0
C91 C 0.60578 0.38573 0.13532 0.0
O92 O 0.67375 0.44942 0.10607 0.0
O93 O 0.73814 0.50171 0.08864 0.0
O94 O 0.75611 0.56754 0.15876 0.0
O95 O 0.69253 0.51607 0.17871 0.0
O96 O 0.58614 0.38934 0.16134 0.0
O97 O 0.63048 0.41969 0.11713 0.0
O98 O 0.64737 0.49252 0.18954 0.0
O99 O 0.57799 0.47209 0.19461 0.0
C100 C 0.61486 0.48667 0.20857 0.0
O101 O 0.64688 0.52952 0.08933 0.0
O102 O 0.71429 0.5829 0.08181 0.0
C103 C 0.56161 0.47567 0.09948 0.0
C104 C 0.67485 0.56356 0.07241 0.0
Zn105 Zn 0.17344 0.751 0.12106 0.0
Zn106 Zn 0.10277 0.58364 0.08942 0.0
Zn107 Zn 0.14781 0.66967 0.13646 0.0
C108 C 0.12563 0.56694 0.1552 0.0
C109 C 0.19336 0.63153 0.0906 0.0
O110 O 0.12725 0.68248 0.08539 0.0
O111 O 0.13955 0.7493 0.07954 0.0
C112 C 0.17861 0.75428 0.18712 0.0
O113 O 0.13634 0.60723 0.15551 0.0
O114 O 0.10853 0.5447 0.12781 0.0
O115 O 0.16323 0.62141 0.06827 0.0
O116 O 0.19077 0.64635 0.12047 0.0
O117 O 0.16588 0.77337 0.16637 0.0
O118 O 0.17604 0.71836 0.17796 0.0
O119 O 0.21577 0.69567 0.14188 0.0
O120 O 0.23398 0.75723 0.11432 0.0
C121 C 0.24469 0.73157 0.12859 0.0
O122 O 0.0888 0.61614 0.15931 0.0
O123 O 0.06713 0.61187 0.10639 0.0
C124 C 0.12383 0.71126 0.06759 0.0
C125 C 0.05788 0.59736 0.13712 0.0
Zn126 Zn 0.85963 0.45999 0.36951 0.0
Zn127 Zn 0.82162 0.57198 0.38574 0.0
Zn128 Zn 0.84265 0.51139 0.37657 0.0
C129 C 0.7513 0.48985 0.40665 0.0
C130 C 0.82337 0.56176 0.31408 0.0
O131 O 0.90654 0.52635 0.40071 0.0
O132 O 0.88145 0.45914 0.41725 0.0
C133 C 0.78144 0.40972 0.38108 0.0
O134 O 0.77895 0.47793 0.39899 0.0
O135 O 0.76104 0.52919 0.4034 0.0
O136 O 0.82396 0.58931 0.33536 0.0
O137 O 0.83151 0.53205 0.32484 0.0
O138 O 0.80481 0.4078 0.35721 0.0
O139 O 0.79171 0.44654 0.39505 0.0
O140 O 0.85654 0.50946 0.31999 0.0
O141 O 0.90263 0.48704 0.33161 0.0
C142 C 0.88553 0.50027 0.30943 0.0
O143 O 0.88662 0.55514 0.41679 0.0
O144 O 0.86615 0.60413 0.42293 0.0
C145 C 0.91331 0.49726 0.41509 0.0
C146 C 0.88774 0.58684 0.43391 0.0
Zn147 Zn 0.25808 0.83786 0.37917 0.0
Zn148 Zn 0.3956 0.84488 0.37524 0.0
Zn149 Zn 0.3294 0.83763 0.37618 0.0
C150 C 0.37563 0.83517 0.30742 0.0
C151 C 0.36122 0.78003 0.4166 0.0
O152 O 0.33304 0.88491 0.41673 0.0
O153 O 0.26648 0.87517 0.4199 0.0
C154 C 0.27292 0.84292 0.31118 0.0
O155 O 0.34993 0.84739 0.32044 0.0
O156 O 0.39443 0.82174 0.32788 0.0
O157 O 0.39684 0.81505 0.41802 0.0
O158 O 0.33027 0.7788 0.39796 0.0
O159 O 0.25221 0.85465 0.33102 0.0
O160 O 0.30273 0.83626 0.32397 0.0
O161 O 0.28769 0.7725 0.39364 0.0
O162 O 0.22605 0.77296 0.38642 0.0
C163 C 0.24593 0.75233 0.39271 0.0
O164 O 0.37546 0.89923 0.40326 0.0
O165 O 0.43509 0.90565 0.37948 0.0
C166 C 0.30469 0.89218 0.43194 0.0
C167 C 0.41689 0.92111 0.398 0.0
Zn168 Zn 0.5799 0.4599 0.42936 0.0
Zn169 Zn 0.4142 0.26483 0.37738 0.0
Zn170 Zn 0.4875 0.33978 0.37571 0.0
C171 C 0.49203 0.259 0.39388 0.0
C172 C 0.4303 0.27557 0.31093 0.0
O173 O 0.4648 0.38366 0.3952 0.0
O174 O 0.51901 0.40774 0.43143 0.0
C175 C 0.56861 0.3746 0.42091 0.0
O176 O 0.51162 0.30045 0.39516 0.0
O177 O 0.45186 0.23744 0.38628 0.0
O178 O 0.39523 0.25968 0.32812 0.0
O179 O 0.46585 0.30417 0.32546 0.0
O180 O 0.54878 0.39252 0.43444 0.0
O181 O 0.54753 0.34521 0.39792 0.0
O182 O 0.54087 0.40512 0.35876 0.0
O183 O 0.59187 0.4719 0.37655 0.0
C184 C 0.57223 0.444 0.35222 0.0
O185 O 0.43933 0.33155 0.41716 0.0
O186 O 0.37944 0.26777 0.4164 0.0
C187 C 0.49108 0.41386 0.41568 0.0
C188 C 0.40236 0.30437 0.43065 0.0
Zn189 Zn 0.16571 0.42808 0.38244 0.0
Zn190 Zn 0.08604 0.56385 0.31525 0.0
Zn191 Zn 0.1391 0.47745 0.36132 0.0
C192 C 0.11923 0.49821 0.29203 0.0
C193 C 0.16397 0.57028 0.36316 0.0
O194 O 0.0924 0.43512 0.40104 0.0
O195 O 0.11524 0.38886 0.41246 0.0
C196 C 0.1759 0.43027 0.31056 0.0
O197 O 0.13306 0.47359 0.30394 0.0
O198 O 0.10721 0.51667 0.31459 0.0
O199 O 0.13074 0.55216 0.34318 0.0
O200 O 0.17835 0.54602 0.37464 0.0
O201 O 0.18052 0.41093 0.33655 0.0
O202 O 0.1577 0.45371 0.3145 0.0
O203 O 0.19795 0.52332 0.38549 0.0
O204 O 0.21686 0.47769 0.40771 0.0
C205 C 0.22409 0.51616 0.40354 0.0
O206 O 0.07543 0.46199 0.38389 0.0
O207 O 0.08364 0.51222 0.34688 0.0
C208 C 0.09051 0.40398 0.41974 0.0
C209 C 0.06252 0.4878 0.37266 0.0
Zn210 Zn 0.59479 0.12706 0.34228 0.0
Zn211 Zn 0.73319 0.1794 0.39224 0.0
Zn212 Zn 0.65642 0.14553 0.36815 0.0
C213 C 0.70475 0.23637 0.40814 0.0
C214 C 0.7413 0.18046 0.31976 0.0
O215 O 0.60422 0.08302 0.39266 0.0
O216 O 0.56422 0.11331 0.38815 0.0
C217 C 0.60763 0.19877 0.35404 0.0
O218 O 0.67332 0.2075 0.38984 0.0
O219 O 0.73578 0.23056 0.41723 0.0
O220 O 0.76417 0.19399 0.34707 0.0
O221 O 0.6994 0.15784 0.32207 0.0
O222 O 0.60081 0.18177 0.32406 0.0
O223 O 0.62991 0.19048 0.3763 0.0
O224 O 0.65586 0.13462 0.31037 0.0
O225 O 0.58793 0.08197 0.30736 0.0
C226 C 0.62383 0.10557 0.29218 0.0
O227 O 0.65497 0.1019 0.41007 0.0
O228 O 0.72524 0.12891 0.41973 0.0
C229 C 0.56819 0.08236 0.39944 0.0
C230 C 0.68625 0.10164 0.42726 0.0
Zn231 Zn 0.54624 0.73623 0.39908 0.0
Zn232 Zn 0.43949 0.54523 0.39342 0.0
Zn233 Zn 0.50488 0.65673 0.38015 0.0
C234 C 0.47627 0.60237 0.32252 0.0
C235 C 0.39642 0.5914 0.40206 0.0
O236 O 0.55678 0.66635 0.41772 0.0
O237 O 0.59332 0.73674 0.42746 0.0
C238 C 0.5475 0.73322 0.32457 0.0
O239 O 0.50271 0.64326 0.32542 0.0
O240 O 0.46212 0.58037 0.34998 0.0
O241 O 0.39088 0.55324 0.40101 0.0
O242 O 0.43351 0.62608 0.39554 0.0
O243 O 0.55807 0.7585 0.3505 0.0
O244 O 0.5282 0.69167 0.32929 0.0
O245 O 0.45773 0.67208 0.40194 0.0
O246 O 0.4971 0.73812 0.42371 0.0
C247 C 0.46035 0.70489 0.41828 0.0
O248 O 0.52996 0.61554 0.40178 0.0
O249 O 0.47442 0.57634 0.43534 0.0
C250 C 0.58754 0.69924 0.43368 0.0
C251 C 0.50994 0.58321 0.42272 0.0
Zn252 Zn 0.45811 0.80868 0.91762 0.0
Zn253 Zn 0.56098 0.89377 0.83115 0.0
Zn254 Zn 0.50137 0.82755 0.86164 0.0
C255 C 0.48766 0.84707 0.78812 0.0
C256 C 0.57167 0.83124 0.80659 0.0
O257 O 0.55121 0.85814 0.90299 0.0
O258 O 0.50513 0.86281 0.93887 0.0
C259 C 0.41199 0.82454 0.86672 0.0
O260 O 0.48848 0.81697 0.80598 0.0
O261 O 0.51611 0.88599 0.79481 0.0
O262 O 0.60002 0.86954 0.81576 0.0
O263 O 0.53269 0.81438 0.81848 0.0
O264 O 0.40558 0.80504 0.89549 0.0
O265 O 0.44989 0.84297 0.85288 0.0
O266 O 0.46782 0.75904 0.87353 0.0
O267 O 0.45259 0.75089 0.92918 0.0
C268 C 0.45395 0.73455 0.90028 0.0
O269 O 0.49341 0.88505 0.86793 0.0
O270 O 0.56284 0.93605 0.86739 0.0
C271 C 0.54368 0.87229 0.93154 0.0
C272 C 0.52302 0.92516 0.87189 0.0
Zn273 Zn 0.68716 0.47635 0.9571 0.0
Zn274 Zn 0.65693 0.56473 0.82852 0.0
Zn275 Zn 0.65697 0.51299 0.86685 0.0
C276 C 0.64355 0.49064 0.79103 0.0
C277 C 0.73569 0.57266 0.81832 0.0
O278 O 0.67662 0.56986 0.89986 0.0
O279 O 0.69266 0.52595 0.92551 0.0
C280 C 0.6117 0.41991 0.91623 0.0
O281 O 0.66698 0.49051 0.81662 0.0
O282 O 0.63097 0.51839 0.79095 0.0
O283 O 0.72394 0.6009 0.82295 0.0
O284 O 0.71137 0.53398 0.83041 0.0
O285 O 0.62873 0.42075 0.9459 0.0
O286 O 0.6278 0.45392 0.89713 0.0
O287 O 0.70213 0.49029 0.85212 0.0
O288 O 0.71074 0.50312 0.90765 0.0
C289 C 0.71754 0.48561 0.88114 0.0
O290 O 0.59214 0.49622 0.85654 0.0
O291 O 0.60855 0.56467 0.85814 0.0
C292 C 0.68445 0.55678 0.92827 0.0
C293 C 0.58002 0.52441 0.85987 0.0
Zn294 Zn 0.19766 0.67451 0.90419 0.0
Zn295 Zn 0.09662 0.65111 0.82713 0.0
Zn296 Zn 0.15208 0.6617 0.86026 0.0
C297 C 0.1577 0.63563 0.79031 0.0
C298 C 0.15318 0.72642 0.80098 0.0
O299 O 0.12667 0.68844 0.89869 0.0
O300 O 0.15447 0.66636 0.93965 0.0
C301 C 0.178 0.59373 0.8818 0.0
O302 O 0.18351 0.66864 0.80938 0.0
O303 O 0.11705 0.61857 0.79523 0.0
O304 O 0.11291 0.71083 0.80728 0.0
O305 O 0.17355 0.70886 0.8154 0.0
O306 O 0.20836 0.62576 0.89758 0.0
O307 O 0.14752 0.59775 0.86717 0.0
O308 O 0.21296 0.70781 0.8348 0.0
O309 O 0.24064 0.7335 0.88681 0.0
C310 C 0.24327 0.73717 0.85398 0.0
O311 O 0.10329 0.59377 0.8625 0.0
O312 O 0.05203 0.61173 0.86237 0.0
C313 C 0.12838 0.67903 0.93064 0.0
C314 C 0.06339 0.58337 0.86771 0.0
Zn315 Zn 0.44573 0.10463 0.82802 0.0
Zn316 Zn 0.52916 0.17395 0.91246 0.0
Zn317 Zn 0.49381 0.1537 0.86299 0.0
C318 C 0.52257 0.24317 0.88074 0.0
C319 C 0.58457 0.16072 0.87616 0.0
O320 O 0.50654 0.09986 0.85775 0.0
O321 O 0.43704 0.05067 0.85512 0.0
C322 C 0.43455 0.17128 0.81156 0.0
O323 O 0.52029 0.22225 0.85272 0.0
O324 O 0.51935 0.22525 0.91005 0.0
O325 O 0.58724 0.18399 0.9019 0.0
O326 O 0.54846 0.1402 0.85929 0.0
O327 O 0.40723 0.131 0.8156 0.0
O328 O 0.47259 0.18689 0.82539 0.0
O329 O 0.52172 0.19403 0.81574 0.0
O330 O 0.49738 0.12859 0.79412 0.0
C331 C 0.52394 0.16922 0.79206 0.0
O332 O 0.44597 0.13379 0.90551 0.0
O333 O 0.48834 0.11883 0.93658 0.0
C334 C 0.47629 0.05987 0.86002 0.0
C335 C 0.45151 0.11541 0.93222 0.0
Zn336 Zn 0.30082 0.52652 0.94851 0.0
Zn337 Zn 0.3206 0.41834 0.81264 0.0
Zn338 Zn 0.31308 0.46139 0.8528 0.0
C339 C 0.36679 0.5032 0.78657 0.0
C340 C 0.24126 0.40324 0.80118 0.0
O341 O 0.31078 0.42369 0.8973 0.0
O342 O 0.3054 0.47771 0.9185 0.0
C343 C 0.3638 0.54804 0.88179 0.0
O344 O 0.36618 0.50945 0.81971 0.0
O345 O 0.34516 0.46484 0.7748 0.0
O346 O 0.25521 0.37666 0.8047 0.0
O347 O 0.2607 0.43946 0.81751 0.0
O348 O 0.33232 0.52423 0.90225 0.0
O349 O 0.36791 0.52881 0.85493 0.0
O350 O 0.25721 0.46997 0.84658 0.0
O351 O 0.28014 0.4946 0.89873 0.0
C352 C 0.25255 0.48709 0.87423 0.0
O353 O 0.38229 0.49159 0.84908 0.0
O354 O 0.36946 0.42417 0.84682 0.0
C355 C 0.31079 0.445 0.92387 0.0
C356 C 0.39593 0.46435 0.85294 0.0
Zn357 Zn 0.89708 0.33555 0.82555 0.0
Zn358 Zn 0.75222 0.27401 0.93566 0.0
Zn359 Zn 0.83714 0.32801 0.85781 0.0
C360 C 0.75786 0.25413 0.85691 0.0
C361 C 0.77007 0.35688 0.90327 0.0
O362 O 0.89215 0.39326 0.85783 0.0
O363 O 0.94318 0.37511 0.85954 0.0
C364 C 0.84108 0.26202 0.79914 0.0
O365 O 0.78165 0.27375 0.83035 0.0
O366 O 0.77393 0.2712 0.88621 0.0
O367 O 0.74956 0.33004 0.92804 0.0
O368 O 0.79655 0.35227 0.88303 0.0
O369 O 0.88039 0.27535 0.8076 0.0
O370 O 0.82062 0.28006 0.81283 0.0
O371 O 0.81415 0.3223 0.80497 0.0
O372 O 0.88125 0.36926 0.79021 0.0
C373 C 0.84079 0.35344 0.78519 0.0
O374 O 0.87346 0.31064 0.89432 0.0
O375 O 0.80768 0.28421 0.91121 0.0
C376 C 0.93173 0.40351 0.86387 0.0
C377 C 0.84668 0.29591 0.91924 0.0
Zn378 Zn 0.19151 0.52198 0.58214 0.0
Zn379 Zn 0.09332 0.43463 0.66067 0.0
Zn380 Zn 0.14842 0.48388 0.62627 0.0
C381 C 0.15518 0.5118 0.69807 0.0
C382 C 0.15549 0.41972 0.67944 0.0
O383 O 0.12058 0.43508 0.58561 0.0
O384 O 0.14001 0.49024 0.55028 0.0
C385 C 0.17443 0.57734 0.62183 0.0
O386 O 0.18115 0.50754 0.67686 0.0
O387 O 0.11465 0.48543 0.69505 0.0
O388 O 0.11584 0.39302 0.67235 0.0
O389 O 0.17311 0.45852 0.66694 0.0
O390 O 0.20504 0.57842 0.60427 0.0
O391 O 0.14052 0.54066 0.62835 0.0
O392 O 0.2143 0.50246 0.64592 0.0
O393 O 0.23411 0.50142 0.59179 0.0
C394 C 0.24245 0.50345 0.62408 0.0
O395 O 0.09822 0.50135 0.62803 0.0
O396 O 0.04692 0.43227 0.62776 0.0
C397 C 0.11641 0.45002 0.55638 0.0
C398 C 0.05808 0.47211 0.62352 0.0
Zn399 Zn 0.66109 0.10444 0.66631 0.0
Zn400 Zn 0.6625 0.18934 0.58181 0.0
Zn401 Zn 0.66583 0.15624 0.62975 0.0
C402 C 0.73672 0.24771 0.61681 0.0
C403 C 0.59481 0.17842 0.62267 0.0
O404 O 0.59821 0.10547 0.63345 0.0
O405 O 0.61705 0.05498 0.63609 0.0
C406 C 0.73897 0.16764 0.68178 0.0
O407 O 0.71265 0.22448 0.64227 0.0
O408 O 0.7264 0.23288 0.58611 0.0
O409 O 0.62168 0.20675 0.60205 0.0
O410 O 0.60039 0.14694 0.63232 0.0
O411 O 0.72486 0.12747 0.67629 0.0
O412 O 0.71797 0.18548 0.66913 0.0
O413 O 0.67573 0.19375 0.67786 0.0
O414 O 0.63324 0.12872 0.69947 0.0
C415 C 0.64651 0.16922 0.7003 0.0
O416 O 0.68668 0.12661 0.59043 0.0
O417 O 0.64009 0.13244 0.55668 0.0
C418 C 0.58786 0.06527 0.63091 0.0
C419 C 0.66275 0.11477 0.56309 0.0
Zn420 Zn 0.48334 0.66871 0.58231 0.0
Zn421 Zn 0.58156 0.66493 0.66345 0.0
Zn422 Zn 0.51764 0.66785 0.6328 0.0
C423 C 0.5091 0.63094 0.70637 0.0
C424 C 0.57348 0.73631 0.68595 0.0
O425 O 0.57077 0.6891 0.5958 0.0
O426 O 0.5212 0.65096 0.55641 0.0
C427 C 0.42205 0.5982 0.62145 0.0
O428 O 0.50349 0.65735 0.68745 0.0
O429 O 0.54106 0.62536 0.70052 0.0
O430 O 0.60426 0.73164 0.67361 0.0
O431 O 0.53427 0.7091 0.67693 0.0
O432 O 0.42292 0.62481 0.5991 0.0
O433 O 0.45808 0.60365 0.63389 0.0
O434 O 0.49883 0.71592 0.64095 0.0
O435 O 0.50158 0.73244 0.58577 0.0
C436 C 0.49973 0.74169 0.61732 0.0
O437 O 0.49855 0.60105 0.62818 0.0
O438 O 0.56829 0.62048 0.62356 0.0
C439 C 0.56072 0.67072 0.56586 0.0
C440 C 0.52815 0.59162 0.62029 0.0
Zn441 Zn 0.906 0.56667 0.67763 0.0
Zn442 Zn 0.7885 0.4758 0.5531 0.0
Zn443 Zn 0.85007 0.52516 0.64011 0.0
C444 C 0.76515 0.49449 0.62898 0.0
C445 C 0.82074 0.42817 0.59842 0.0
O446 O 0.8895 0.4972 0.63408 0.0
O447 O 0.94302 0.56509 0.63667 0.0
C448 C 0.83842 0.5762 0.7007 0.0
O449 O 0.78527 0.50595 0.65811 0.0
O450 O 0.7887 0.49882 0.60262 0.0
O451 O 0.80203 0.42863 0.56982 0.0
O452 O 0.83641 0.4602 0.62034 0.0
O453 O 0.87808 0.60355 0.69415 0.0
O454 O 0.82066 0.53907 0.68509 0.0
O455 O 0.81888 0.49458 0.6887 0.0
O456 O 0.8847 0.51031 0.70456 0.0
C457 C 0.84395 0.48476 0.706 0.0
O458 O 0.88201 0.58315 0.6074 0.0
O459 O 0.82904 0.52888 0.58177 0.0
C460 C 0.92957 0.52535 0.62894 0.0
C461 C 0.86352 0.5654 0.57892 0.0
Zn462 Zn 0.32439 0.80274 0.59158 0.0
Zn463 Zn 0.33264 0.89929 0.66771 0.0
Zn464 Zn 0.32962 0.84387 0.63712 0.0
C465 C 0.35078 0.84493 0.7107 0.0
C466 C 0.25602 0.8346 0.68853 0.0
O467 O 0.30771 0.87355 0.59863 0.0
O468 O 0.3395 0.85288 0.56027 0.0
C469 C 0.40108 0.82086 0.62296 0.0
O470 O 0.32222 0.81654 0.6897 0.0
O471 O 0.36353 0.88471 0.70515 0.0
O472 O 0.26755 0.87349 0.67976 0.0
O473 O 0.27919 0.81799 0.67846 0.0
O474 O 0.37188 0.79101 0.60459 0.0
O475 O 0.39467 0.85064 0.63568 0.0
O476 O 0.28292 0.78018 0.65741 0.0
O477 O 0.26258 0.75875 0.60329 0.0
C478 C 0.25588 0.75194 0.63568 0.0
O479 O 0.3968 0.89314 0.63873 0.0
O480 O 0.37768 0.94342 0.634 0.0
C481 C 0.32436 0.87722 0.56841 0.0
C482 C 0.40703 0.93267 0.63213 0.0
Zn483 Zn 0.51204 0.31496 0.58659 0.0
Zn484 Zn 0.44251 0.3464 0.66807 0.0
Zn485 Zn 0.48631 0.33308 0.63309 0.0
C486 C 0.52259 0.36727 0.70099 0.0
C487 C 0.4297 0.27254 0.69582 0.0
O488 O 0.43054 0.30908 0.59806 0.0
O489 O 0.47806 0.33157 0.55544 0.0
C490 C 0.58076 0.39133 0.61157 0.0
O491 O 0.51421 0.33257 0.68393 0.0
O492 O 0.49731 0.38256 0.69707 0.0
O493 O 0.40221 0.28426 0.68783 0.0
O494 O 0.46703 0.29131 0.68063 0.0
O495 O 0.57464 0.35767 0.59554 0.0
O496 O 0.54809 0.39295 0.62429 0.0
O497 O 0.50205 0.28677 0.65548 0.0
O498 O 0.48783 0.25398 0.60454 0.0
C499 C 0.49565 0.25402 0.63675 0.0
O500 O 0.50934 0.40108 0.62733 0.0
O501 O 0.44049 0.38454 0.62897 0.0
C502 C 0.44033 0.32064 0.56622 0.0
C503 C 0.48011 0.41181 0.6218 0.0
C504 C 0.4699 0.25672 0.26534 0.0
C505 C 0.43079 0.25209 0.27874 0.0
H506 H 0.49991 0.23316 0.22938 0.0
C507 C 0.39119 0.21912 0.26476 0.0
H508 H 0.50101 0.28121 0.27579 0.0
C509 C 0.39054 0.19105 0.23886 0.0
C510 C 0.42945 0.19498 0.22588 0.0
H511 H 0.36034 0.21409 0.27452 0.0
H512 H 0.35925 0.16611 0.22903 0.0
C513 C 0.46924 0.22855 0.23919 0.0
C514 C 0.25558 0.4804 0.23589 0.0
C515 C 0.25524 0.44412 0.22088 0.0
H516 H 0.22884 0.50386 0.27476 0.0
C517 C 0.22772 0.40271 0.23526 0.0
H518 H 0.27551 0.51252 0.2248 0.0
C519 C 0.20142 0.3978 0.26424 0.0
C520 C 0.20044 0.4339 0.27823 0.0
H521 H 0.22603 0.37406 0.22367 0.0
H522 H 0.18121 0.36571 0.27527 0.0
C523 C 0.22802 0.47526 0.26389 0.0
C524 C 0.76941 0.19157 0.22315 0.0
C525 C 0.8051 0.23427 0.22205 0.0
H526 H 0.7201 0.14094 0.25503 0.0
C527 C 0.81979 0.25821 0.25295 0.0
H528 H 0.75714 0.17281 0.19937 0.0
C529 C 0.7996 0.23971 0.28458 0.0
C530 C 0.76327 0.19736 0.28586 0.0
H531 H 0.84691 0.29129 0.25263 0.0
H532 H 0.81169 0.25923 0.30802 0.0
C533 C 0.74811 0.17346 0.25481 0.0
C534 C 0.57547 0.75889 0.22834 0.0
C535 C 0.57214 0.79668 0.22442 0.0
H536 H 0.56883 0.70791 0.26291 0.0
C537 C 0.56025 0.8126 0.25323 0.0
H538 H 0.58374 0.74547 0.20621 0.0
C539 C 0.55252 0.79168 0.28548 0.0
C540 C 0.55504 0.75345 0.28949 0.0
H541 H 0.5569 0.84125 0.25081 0.0
H542 H 0.54377 0.80516 0.3073 0.0
C543 C 0.56638 0.73705 0.26054 0.0
C544 C 0.78929 0.59086 0.2288 0.0
C545 C 0.75408 0.55039 0.21849 0.0
H546 H 0.83885 0.6264 0.26727 0.0
C547 C 0.74365 0.51361 0.23901 0.0
H548 H 0.79851 0.61969 0.21325 0.0
C549 C 0.76818 0.51715 0.26887 0.0
C550 C 0.80295 0.55772 0.27943 0.0
H551 H 0.7173 0.48187 0.23143 0.0
H552 H 0.75908 0.48828 0.28435 0.0
C553 C 0.81285 0.59464 0.25936 0.0
C554 C 0.22477 0.83595 0.26093 0.0
C555 C 0.25437 0.82546 0.2764 0.0
H556 H 0.17708 0.82122 0.22095 0.0
C557 C 0.25908 0.79157 0.26198 0.0
H558 H 0.21998 0.86149 0.27169 0.0
C559 C 0.23356 0.76765 0.23361 0.0
C560 C 0.20321 0.77748 0.21871 0.0
H561 H 0.28095 0.78204 0.27364 0.0
H562 H 0.23776 0.74155 0.22327 0.0
C563 C 0.19971 0.81244 0.23222 0.0
C564 C 0.5521 0.73996 0.74653 0.0
C565 C 0.57968 0.76155 0.71829 0.0
H566 H 0.52918 0.74473 0.79671 0.0
C567 C 0.60982 0.80623 0.72128 0.0
H568 H 0.52927 0.70545 0.74548 0.0
C569 C 0.60987 0.82928 0.75129 0.0
C570 C 0.57998 0.80762 0.77851 0.0
H571 H 0.63156 0.82359 0.69989 0.0
H572 H 0.63137 0.86418 0.75228 0.0
C573 C 0.5523 0.76252 0.77616 0.0
C574 C 0.81152 0.61576 0.73963 0.0
C575 C 0.81744 0.58012 0.7328 0.0
H576 H 0.78074 0.64176 0.77254 0.0
C577 C 0.8018 0.54592 0.75699 0.0
H578 H 0.82371 0.64278 0.72153 0.0
C579 C 0.77864 0.54576 0.78629 0.0
C580 C 0.76948 0.57949 0.79209 0.0
H581 H 0.80683 0.51857 0.75301 0.0
H582 H 0.76606 0.51785 0.80348 0.0
C583 C 0.78729 0.61527 0.76896 0.0
C584 C 0.18287 0.7793 0.71185 0.0
C585 C 0.22555 0.81328 0.71771 0.0
H586 H 0.12561 0.7257 0.73434 0.0
C587 C 0.24222 0.82134 0.75185 0.0
H588 H 0.16985 0.77177 0.68559 0.0
C589 C 0.21747 0.79464 0.77944 0.0
C590 C 0.17538 0.75966 0.77353 0.0
H591 H 0.27544 0.84676 0.75685 0.0
H592 H 0.23176 0.80042 0.80522 0.0
C593 C 0.15769 0.75303 0.73969 0.0
C594 C 0.45633 0.24279 0.7832 0.0
C595 C 0.4267 0.19794 0.78555 0.0
H596 H 0.4795 0.30105 0.75326 0.0
C597 C 0.39407 0.17848 0.75969 0.0
H598 H 0.48169 0.25903 0.8026 0.0
C599 C 0.39305 0.20292 0.73104 0.0
C600 C 0.42467 0.24706 0.72787 0.0
H601 H 0.3709 0.14393 0.76052 0.0
H602 H 0.36913 0.18687 0.7106 0.0
C603 C 0.45532 0.26689 0.75475 0.0
C604 C 0.15839 0.372 0.72756 0.0
C605 C 0.17866 0.41052 0.70748 0.0
H606 H 0.16242 0.33876 0.77352 0.0
C607 C 0.22008 0.44388 0.71751 0.0
H608 H 0.12636 0.3457 0.72055 0.0
C609 C 0.23953 0.44039 0.74776 0.0
C610 C 0.2188 0.40308 0.76874 0.0
H611 H 0.237 0.47392 0.70293 0.0
H612 H 0.27097 0.46757 0.75501 0.0
C613 C 0.17868 0.36809 0.75793 0.0
C614 C 0.77625 0.16842 0.73763 0.0
C615 C 0.77278 0.19095 0.70856 0.0
H616 H 0.8007 0.17356 0.78996 0.0
C617 C 0.79689 0.23649 0.70818 0.0
H618 H 0.75745 0.13324 0.73881 0.0
C619 C 0.82207 0.25914 0.73698 0.0
C620 C 0.82298 0.23685 0.76696 0.0
H621 H 0.7948 0.25465 0.68623 0.0
H622 H 0.83915 0.29431 0.73646 0.0
C623 C 0.80088 0.1913 0.76688 0.0
C624 C 0.49811 0.01376 0.09515 0.0
C625 C 0.48214 0.02223 0.12598 0.0
H626 H 0.52885 0.9826 0.07077 0.0
C627 C 0.4855 0.00318 0.15729 0.0
H628 H 0.49689 0.02787 0.0704 0.0
C629 C 0.5033 0.97528 0.15721 0.0
C630 C 0.51877 0.96697 0.12592 0.0
H631 H 0.47417 0.00955 0.18159 0.0
H632 H 0.50394 0.95955 0.18124 0.0
C633 C 0.51705 0.9878 0.09535 0.0
C634 C 0.48672 0.45571 0.07938 0.0
C635 C 0.53098 0.48785 0.08333 0.0
H636 H 0.42051 0.44178 0.07713 0.0
C637 C 0.5427 0.53155 0.0787 0.0
H638 H 0.4765 0.4215 0.08194 0.0
C639 C 0.51033 0.54306 0.07514 0.0
C640 C 0.46569 0.51112 0.07674 0.0
H641 H 0.5764 0.55704 0.08107 0.0
H642 H 0.5204 0.57734 0.07476 0.0
C643 C 0.45438 0.46721 0.07642 0.0
C644 C 0.98494 0.48226 0.10765 0.0
C645 C 0.97797 0.45718 0.13789 0.0
H646 H 0.01115 0.54416 0.08448 0.0
C647 C 0.9961 0.47907 0.16953 0.0
H648 H 0.97175 0.46743 0.08257 0.0
C649 C 0.02066 0.52504 0.17051 0.0
C650 C 0.02689 0.54959 0.13988 0.0
H651 H 0.99183 0.46077 0.1932 0.0
H652 H 0.03551 0.54117 0.19483 0.0
C653 C 0.00756 0.52714 0.10883 0.0
C654 C 0.96139 0.465 0.42333 0.0
C655 C 0.95719 0.50144 0.41445 0.0
H656 H 0.99637 0.43076 0.41545 0.0
C657 C 0.99138 0.53584 0.39631 0.0
H658 H 0.93575 0.43783 0.43745 0.0
C659 C 0.02649 0.53188 0.38424 0.0
C660 C 0.02812 0.49339 0.3898 0.0
H661 H 0.98946 0.56437 0.38904 0.0
H662 H 0.05152 0.55846 0.36931 0.0
C663 C 0.99612 0.46073 0.41068 0.0
C664 C 0.45073 -0.00225 0.38563 0.0
C665 C 0.44454 0.9656 0.40956 0.0
H666 H 0.49553 0.05794 0.36245 0.0
C667 C 0.47753 0.97372 0.43384 0.0
H668 H 0.42629 0.99157 0.36593 0.0
C669 C 0.518 0.01196 0.43186 0.0
C670 C 0.52596 0.04216 0.40527 0.0
H671 H 0.47338 0.94869 0.45223 0.0
H672 H 0.5425 0.01668 0.45053 0.0
C673 C 0.49106 0.03528 0.3832 0.0
C674 C 0.4983 0.47997 0.38542 0.0
C675 C 0.49657 0.45774 0.41621 0.0
H676 H 0.50737 0.5395 0.36309 0.0
C677 C 0.50568 0.47971 0.44825 0.0
H678 H 0.49265 0.46398 0.36033 0.0
C679 C 0.51398 0.52242 0.44986 0.0
C680 C 0.51479 0.54456 0.41935 0.0
H681 H 0.50535 0.46336 0.47225 0.0
H682 H 0.51805 0.53765 0.47514 0.0
C683 C 0.5079 0.52341 0.38694 0.0
C684 C 0.53169 0.03604 0.86788 0.0
C685 C 0.48773 0.02537 0.86668 0.0
H686 H 0.57727 0.01333 0.87114 0.0
C687 C 0.4554 0.9815 0.87074 0.0
H688 H 0.55761 0.0693 0.86478 0.0
C689 C 0.46684 0.94907 0.87455 0.0
C690 C 0.51081 0.95967 0.87433 0.0
H691 H 0.42123 0.97206 0.87017 0.0
H692 H 0.44113 0.91557 0.87648 0.0
C693 C 0.54306 0.00375 0.8717 0.0
C694 C 0.50238 0.46531 0.86519 0.0
C695 C 0.533 0.50991 0.86221 0.0
H696 H 0.43512 0.41596 0.86491 0.0
C697 C 0.51796 0.5397 0.85907 0.0
H698 H 0.51285 0.44149 0.86789 0.0
C699 C 0.47326 0.52498 0.85745 0.0
C700 C 0.44275 0.48018 0.8589 0.0
H701 H 0.54067 0.57425 0.85667 0.0
H702 H 0.46273 0.54864 0.85383 0.0
C703 C 0.45778 0.45061 0.86351 0.0
C704 C 0.00914 0.46116 0.87423 0.0
C705 C 0.96494 0.4491 0.87138 0.0
H706 H 0.07511 0.51325 0.8758 0.0
C707 C 0.95331 0.48159 0.87256 0.0
H708 H 0.01915 0.43686 0.87383 0.0
C709 C 0.98542 0.52542 0.87385 0.0
C710 C 0.02978 0.53759 0.87386 0.0
H711 H 0.91951 0.47335 0.87082 0.0
H712 H 0.97545 0.54974 0.87294 0.0
C713 C 0.04126 0.505 0.87544 0.0
C714 C 0.03704 0.52926 0.61574 0.0
C715 C 0.02465 0.48503 0.61821 0.0
H716 H 0.01667 0.57673 0.6166 0.0
C717 C 0.98004 0.45384 0.61913 0.0
H718 H 0.07105 0.5541 0.61465 0.0
C719 C 0.9487 0.46684 0.62019 0.0
C720 C 0.9614 0.51128 0.62038 0.0
H721 H 0.96934 0.41946 0.62083 0.0
H722 H 0.91475 0.44212 0.62282 0.0
C723 C 0.00579 0.54225 0.61681 0.0
C724 C 0.52981 0.98688 0.62733 0.0
C725 C 0.54188 0.03108 0.62597 0.0
H726 H 0.47779 0.92108 0.63007 0.0
C727 C 0.50915 0.04227 0.62276 0.0
H728 H 0.55421 0.97709 0.62961 0.0
C729 C 0.46523 0.01013 0.62294 0.0
C730 C 0.45312 0.96608 0.62642 0.0
H731 H 0.51736 0.07597 0.62146 0.0
H732 H 0.44082 0.02 0.62177 0.0
C733 C 0.48589 0.95471 0.62758 0.0
C734 C 0.46058 0.46956 0.61062 0.0
C735 C 0.49265 0.45734 0.61337 0.0
H736 H 0.44664 0.52172 0.61028 0.0
C737 C 0.53674 0.48991 0.61265 0.0
H738 H 0.4263 0.44527 0.61067 0.0
C739 C 0.5484 0.53383 0.61225 0.0
C740 C 0.51619 0.54604 0.6127 0.0
H741 H 0.56229 0.48164 0.61452 0.0
H742 H 0.58263 0.5581 0.61377 0.0
C743 C 0.47223 0.51346 0.61038 0.0
C744 C 0.60603 0.15357 0.21157 0.0
C745 C 0.5878 0.11771 0.18896 0.0
H746 H 0.63535 0.17864 0.2613 0.0
C747 C 0.58987 0.08037 0.19809 0.0
H748 H 0.60506 0.1828 0.20508 0.0
C749 C 0.60539 0.07718 0.23106 0.0
C750 C 0.62152 0.11231 0.25442 0.0
H751 H 0.5766 0.05254 0.18086 0.0
H752 H 0.60263 0.04658 0.23901 0.0
C753 C 0.62372 0.15126 0.24361 0.0
C754 C 0.41443 0.5434 0.28955 0.0
C755 C 0.45651 0.58062 0.28933 0.0
H756 H 0.36248 0.49301 0.25939 0.0
C757 C 0.47876 0.59527 0.25782 0.0
H758 H 0.39626 0.53166 0.31363 0.0
C759 C 0.4598 0.57235 0.22719 0.0
C760 C 0.41787 0.53496 0.22738 0.0
H761 H 0.51094 0.6238 0.25696 0.0
H762 H 0.47779 0.58447 0.20307 0.0
C763 C 0.39497 0.52112 0.25871 0.0
C764 C 0.86849 0.48493 0.21115 0.0
C765 C 0.88923 0.4606 0.20455 0.0
H766 H 0.85057 0.51687 0.2501 0.0
C767 C 0.9135 0.4557 0.23121 0.0
H768 H 0.84931 0.48892 0.19097 0.0
C769 C 0.91579 0.47302 0.26409 0.0
C770 C 0.89191 0.49392 0.27204 0.0
H771 H 0.92937 0.4367 0.22717 0.0
H772 H 0.93384 0.46691 0.284 0.0
C773 C 0.86928 0.50098 0.24491 0.0
C774 C 0.39203 0.87089 0.21181 0.0
C775 C 0.42044 0.85627 0.20075 0.0
H776 H 0.35514 0.87577 0.2545 0.0
C777 C 0.43069 0.83221 0.2242 0.0
H778 H 0.38332 0.8893 0.19427 0.0
C779 C 0.41414 0.82385 0.25792 0.0
C780 C 0.38714 0.8397 0.26974 0.0
H781 H 0.45186 0.81974 0.21662 0.0
H782 H 0.42364 0.80569 0.27507 0.0
C783 C 0.37566 0.86287 0.24617 0.0
C784 C 0.59396 0.49719 0.30304 0.0
C785 C 0.58731 0.45722 0.31604 0.0
H786 H 0.60842 0.53839 0.25802 0.0
C787 C 0.59657 0.43085 0.2946 0.0
H788 H 0.5872 0.51815 0.31924 0.0
C789 C 0.61095 0.44361 0.26035 0.0
C790 C 0.61521 0.48236 0.24669 0.0
H791 H 0.59227 0.40021 0.30424 0.0
H792 H 0.61582 0.4217 0.24373 0.0
C793 C 0.60685 0.50919 0.26835 0.0
C794 C 0.1059 0.48485 0.22731 0.0
C795 C 0.1256 0.51322 0.25561 0.0
H796 H 0.08999 0.4796 0.17258 0.0
C797 C 0.14892 0.55813 0.24971 0.0
H798 H 0.0876 0.45001 0.23146 0.0
C799 C 0.15092 0.57485 0.21655 0.0
C800 C 0.12889 0.54713 0.18837 0.0
H801 H 0.16469 0.58058 0.27112 0.0
H802 H 0.16841 0.60989 0.21341 0.0
C803 C 0.10732 0.50178 0.19377 0.0
C804 C 0.41959 0.80319 0.75121 0.0
C805 C 0.44674 0.83977 0.77173 0.0
H806 H 0.36409 0.77427 0.71641 0.0
C807 C 0.43377 0.87054 0.77851 0.0
H808 H 0.42787 0.77801 0.74685 0.0
C809 C 0.39727 0.86749 0.76257 0.0
C810 C 0.37373 0.83476 0.73801 0.0
H811 H 0.45241 0.89781 0.79583 0.0
H812 H 0.38998 0.89336 0.76707 0.0
C813 C 0.38293 0.8007 0.73434 0.0
C814 C 0.6191 0.46946 0.7307 0.0
C815 C 0.62707 0.4574 0.76347 0.0
H816 H 0.57893 0.44941 0.68536 0.0
C817 C 0.60745 0.41293 0.77197 0.0
H818 H 0.63396 0.50347 0.72344 0.0
C819 C 0.57582 0.38144 0.74976 0.0
C820 C 0.56394 0.39468 0.71916 0.0
H821 H 0.61297 0.40299 0.79723 0.0
H822 H 0.55806 0.3478 0.75809 0.0
C823 C 0.58737 0.43853 0.70906 0.0
C824 C 0.20021 0.60166 0.76664 0.0
C825 C 0.17172 0.61815 0.76133 0.0
H826 H 0.21792 0.5541 0.75025 0.0
C827 C 0.14512 0.60515 0.73167 0.0
H828 H 0.22062 0.6108 0.7897 0.0
C829 C 0.14214 0.57206 0.71061 0.0
C830 C 0.16758 0.55258 0.71716 0.0
H831 H 0.12285 0.61725 0.72687 0.0
H832 H 0.118 0.56017 0.68995 0.0
C833 C 0.19832 0.56894 0.74441 0.0
C834 C 0.54167 0.15611 0.73337 0.0
C835 C 0.55463 0.18422 0.76211 0.0
H836 H 0.56067 0.12787 0.69348 0.0
C837 C 0.59897 0.21641 0.76505 0.0
H838 H 0.50771 0.13193 0.72938 0.0
C839 C 0.63036 0.21514 0.74287 0.0
C840 C 0.61709 0.18173 0.71793 0.0
H841 H 0.60991 0.23881 0.78685 0.0
H842 H 0.66467 0.23734 0.74739 0.0
C843 C 0.57232 0.15371 0.71266 0.0
C844 C 0.44718 0.61168 0.74752 0.0
C845 C 0.47336 0.59979 0.72831 0.0
H846 H 0.39201 0.58957 0.78168 0.0
C847 C 0.46236 0.55599 0.72671 0.0
H848 H 0.45432 0.64513 0.7481 0.0
C849 C 0.42638 0.52456 0.74459 0.0
C850 C 0.40131 0.53647 0.76505 0.0
H851 H 0.48105 0.54581 0.71093 0.0
H852 H 0.41889 0.491 0.74317 0.0
C853 C 0.41164 0.58011 0.76641 0.0
C854 C 0.8006 0.424 0.74809 0.0
C855 C 0.829 0.44097 0.71963 0.0
H856 H 0.78086 0.37972 0.79136 0.0
C857 C 0.85127 0.41988 0.70802 0.0
H858 H 0.78313 0.43981 0.7574 0.0
C859 C 0.84994 0.38603 0.72717 0.0
C860 C 0.82631 0.37277 0.75827 0.0
H861 H 0.87293 0.43216 0.68575 0.0
H862 H 0.87106 0.37348 0.71964 0.0
C863 C 0.79912 0.38958 0.76733 0.0
C864 C 0.54743 0.28815 0.07889 0.0
C865 C 0.5302 0.25627 0.10496 0.0
H866 H 0.58815 0.3563 0.06823 0.0
C867 C 0.54745 0.26638 0.13884 0.0
H868 H 0.53422 0.28088 0.05268 0.0
C869 C 0.57859 0.30861 0.14749 0.0
C870 C 0.59184 0.34175 0.12267 0.0
H871 H 0.53423 0.24236 0.15946 0.0
H872 H 0.58837 0.3162 0.17455 0.0
C873 C 0.57857 0.331 0.08772 0.0
C874 C 0.25709 0.6244 0.11017 0.0
C875 C 0.22278 0.6134 0.0865 0.0
H876 H 0.3028 0.6077 0.13135 0.0
C877 C 0.21215 0.57941 0.06259 0.0
H878 H 0.26579 0.64999 0.12915 0.0
C879 C 0.23248 0.55437 0.06458 0.0
C880 C 0.26478 0.56374 0.0897 0.0
H881 H 0.18582 0.5699 0.04405 0.0
H882 H 0.22159 0.52647 0.04753 0.0
C883 C 0.27832 0.60013 0.11143 0.0
C884 C 0.68736 0.2646 0.14814 0.0
C885 C 0.71354 0.26329 0.12134 0.0
H886 H 0.62244 0.24514 0.16464 0.0
C887 C 0.69521 0.24656 0.08863 0.0
H888 H 0.70124 0.27804 0.17342 0.0
C889 C 0.65066 0.22847 0.08339 0.0
C890 C 0.62355 0.22597 0.11107 0.0
H891 H 0.7152 0.24629 0.06737 0.0
H892 H 0.63728 0.21399 0.05825 0.0
C893 C 0.64248 0.24596 0.14304 0.0
C894 C 0.40874 0.66393 0.08767 0.0
C895 C 0.40402 0.65376 0.12347 0.0
H896 H 0.44751 0.71129 0.04874 0.0
C897 C 0.4274 0.68682 0.14781 0.0
H898 H 0.39117 0.63882 0.06838 0.0
C899 C 0.46045 0.727 0.13664 0.0
C900 C 0.46871 0.73586 0.10094 0.0
H901 H 0.42418 0.67983 0.17554 0.0
H902 H 0.48153 0.75021 0.156 0.0
C903 C 0.4413 0.70503 0.07639 0.0
C904 C 0.7365 0.37365 0.10449 0.0
C905 C 0.7714 0.38658 0.08129 0.0
H906 H 0.68846 0.38695 0.12486 0.0
C907 C 0.77775 0.41695 0.05497 0.0
H908 H 0.73085 0.35068 0.12511 0.0
C909 C 0.75416 0.43883 0.05546 0.0
C910 C 0.72302 0.42954 0.08151 0.0
H911 H 0.80396 0.42724 0.03626 0.0
H912 H 0.76279 0.4654 0.03736 0.0
C913 C 0.7121 0.39461 0.10431 0.0
C914 C 0.35868 0.75573 0.14923 0.0
C915 C 0.37704 0.76493 0.11561 0.0
H916 H 0.30136 0.73812 0.17982 0.0
C917 C 0.34977 0.75687 0.08656 0.0
H918 H 0.37874 0.761 0.17208 0.0
C919 C 0.30634 0.74501 0.09109 0.0
C920 C 0.28911 0.73974 0.12465 0.0
H921 H 0.36264 0.76259 0.06027 0.0
H922 H 0.28646 0.74113 0.06836 0.0
C923 C 0.3147 0.74304 0.15372 0.0
C924 C 0.68484 0.42065 0.39146 0.0
C925 C 0.70626 0.45649 0.41397 0.0
H926 H 0.62403 0.36589 0.37604 0.0
C927 C 0.68333 0.46179 0.44133 0.0
H928 H 0.70199 0.41651 0.36978 0.0
C929 C 0.63899 0.43248 0.44531 0.0
C930 C 0.61662 0.39857 0.4211 0.0
H931 H 0.69946 0.48908 0.45908 0.0
H932 H 0.62173 0.43779 0.4663 0.0
C933 C 0.64026 0.39182 0.39495 0.0
C934 C 0.22148 0.63608 0.39394 0.0
C935 C 0.18288 0.61585 0.37423 0.0
H936 H 0.2713 0.69535 0.41643 0.0
C937 C 0.16227 0.63953 0.36528 0.0
H938 H 0.23747 0.61828 0.40203 0.0
C939 C 0.18126 0.68335 0.37397 0.0
C940 C 0.22153 0.70448 0.39143 0.0
H941 H 0.13198 0.62463 0.35084 0.0
H942 H 0.16553 0.70117 0.36515 0.0
C943 C 0.24076 0.68014 0.40235 0.0
C944 C 0.50631 0.20582 0.36475 0.0
C945 C 0.51869 0.23833 0.39009 0.0
H946 H 0.52571 0.16986 0.33243 0.0
C947 C 0.56029 0.25669 0.40527 0.0
H948 H 0.47457 0.19127 0.35237 0.0
C949 C 0.58959 0.2436 0.39422 0.0
C950 C 0.57843 0.21406 0.36649 0.0
H951 H 0.57048 0.28191 0.42488 0.0
H952 H 0.62095 0.25725 0.40683 0.0
C953 C 0.53609 0.1944 0.35266 0.0
C954 C 0.29052 0.58004 0.38301 0.0
C955 C 0.26751 0.55231 0.41084 0.0
H956 H 0.3523 0.61426 0.35789 0.0
C957 C 0.28985 0.55148 0.44068 0.0
H958 H 0.27367 0.58086 0.35963 0.0
C959 C 0.33516 0.5732 0.44051 0.0
C960 C 0.3578 0.59405 0.40999 0.0
H961 H 0.27246 0.5302 0.46233 0.0
H962 H 0.35194 0.56794 0.46199 0.0
C963 C 0.33565 0.59987 0.38215 0.0
C964 C 0.7545 0.35517 0.4277 0.0
C965 C 0.7473 0.36916 0.39536 0.0
H966 H 0.74605 0.30018 0.45755 0.0
C967 C 0.71757 0.33913 0.37182 0.0
H968 H 0.77822 0.37833 0.44585 0.0
C969 C 0.70017 0.29515 0.37806 0.0
C970 C 0.71122 0.28052 0.40844 0.0
H971 H 0.71246 0.34957 0.34653 0.0
H972 H 0.68238 0.27325 0.35698 0.0
C973 C 0.73667 0.31069 0.43417 0.0
C974 C 0.3929 0.70072 0.3958 0.0
C975 C 0.42087 0.7078 0.4241 0.0
H976 H 0.34648 0.71502 0.37284 0.0
C977 C 0.41596 0.72647 0.4547 0.0
H978 H 0.39748 0.68815 0.37143 0.0
C979 C 0.38707 0.74256 0.45534 0.0
C980 C 0.36378 0.74105 0.42509 0.0
H981 H 0.4374 0.73245 0.47675 0.0
H982 H 0.38807 0.76203 0.47747 0.0
C983 C 0.36346 0.71604 0.39669 0.0
C984 C 0.40883 0.65902 0.9234 0.0
C985 C 0.43557 0.68687 0.89692 0.0
H986 H 0.36558 0.59373 0.93944 0.0
C987 C 0.44183 0.66846 0.8665 0.0
H988 H 0.40336 0.67201 0.9472 0.0
C989 C 0.42034 0.62313 0.86221 0.0
C990 C 0.39151 0.59547 0.88789 0.0
H991 H 0.46262 0.68904 0.84572 0.0
H992 H 0.42528 0.60987 0.83841 0.0
C993 C 0.38693 0.61396 0.91886 0.0
C994 C 0.74785 0.3984 0.86325 0.0
C995 C 0.76044 0.3923 0.89663 0.0
H996 H 0.7239 0.4324 0.83194 0.0
C997 C 0.76014 0.41788 0.92431 0.0
H998 H 0.74649 0.378 0.84182 0.0
C999 C 0.74741 0.44891 0.91881 0.0
C1000 C 0.73351 0.45432 0.88566 0.0
H1001 H 0.76958 0.4137 0.95031 0.0
H1002 H 0.74802 0.46831 0.9408 0.0
C1003 C 0.73441 0.4291 0.85776 0.0
C1004 C 0.3489 0.83521 0.86137 0.0
C1005 C 0.374 0.81856 0.84735 0.0
H1006 H 0.28434 0.82189 0.87234 0.0
C1007 C 0.35474 0.78313 0.82427 0.0
H1008 H 0.36308 0.86211 0.87961 0.0
C1009 C 0.30963 0.76016 0.81991 0.0
C1010 C 0.28398 0.77202 0.8396 0.0
H1011 H 0.37349 0.76908 0.81409 0.0
H1012 H 0.29491 0.72923 0.80635 0.0
C1013 C 0.30383 0.81215 0.85716 0.0
C1014 C 0.52115 0.30429 0.91042 0.0
C1015 C 0.53447 0.28944 0.88144 0.0
H1016 H 0.53583 0.35779 0.94455 0.0
C1017 C 0.56771 0.31998 0.85994 0.0
H1018 H 0.49542 0.28139 0.92736 0.0
C1019 C 0.5906 0.36393 0.86981 0.0
C1020 C 0.58032 0.37759 0.90106 0.0
H1021 H 0.57905 0.3094 0.83781 0.0
H1022 H 0.61911 0.38634 0.85505 0.0
C1023 C 0.54428 0.34789 0.92043 0.0
C1024 C 0.194 0.54165 0.91103 0.0
C1025 C 0.1805 0.55362 0.8806 0.0
H1026 H 0.2268 0.51044 0.9328 0.0
C1027 C 0.18241 0.53555 0.84857 0.0
H1028 H 0.19259 0.55503 0.93609 0.0
C1029 C 0.20305 0.51056 0.8465 0.0
C1030 C 0.22145 0.50329 0.87658 0.0
H1031 H 0.17192 0.54418 0.82486 0.0
H1032 H 0.20762 0.50002 0.82113 0.0
C1033 C 0.21417 0.51664 0.90906 0.0
C1034 C 0.68601 0.20742 0.82697 0.0
C1035 C 0.714 0.2159 0.85545 0.0
H1036 H 0.61898 0.17633 0.81092 0.0
C1037 C 0.69784 0.19081 0.8859 0.0
H1038 H 0.69805 0.22522 0.80278 0.0
C1039 C 0.65332 0.16421 0.89045 0.0
C1040 C 0.62467 0.16241 0.86452 0.0
H1041 H 0.71916 0.19523 0.90774 0.0
H1042 H 0.64124 0.1502 0.91596 0.0
C1043 C 0.6411 0.17969 0.83149 0.0
C1044 C 0.31037 0.54683 0.65938 0.0
C1045 C 0.28737 0.51472 0.63409 0.0
H1046 H 0.37306 0.59871 0.67554 0.0
C1047 C 0.31094 0.50278 0.61146 0.0
H1048 H 0.2932 0.55697 0.67696 0.0
C1049 C 0.35647 0.52671 0.61057 0.0
C1050 C 0.37923 0.56254 0.63265 0.0
H1051 H 0.29409 0.47801 0.59177 0.0
H1052 H 0.37348 0.52009 0.59014 0.0
C1053 C 0.35612 0.57076 0.65852 0.0
C1054 C 0.82099 0.35908 0.58741 0.0
C1055 C 0.81325 0.38525 0.61023 0.0
H1056 H 0.80439 0.29445 0.57297 0.0
C1057 C 0.78799 0.36618 0.64031 0.0
H1058 H 0.84003 0.37289 0.56397 0.0
C1059 C 0.76699 0.32094 0.64543 0.0
C1060 C 0.77076 0.29422 0.62032 0.0
H1061 H 0.78054 0.38551 0.65782 0.0
H1062 H 0.74422 0.30671 0.66684 0.0
C1063 C 0.80042 0.31411 0.59265 0.0
C1064 C 0.44174 0.79439 0.65744 0.0
C1065 C 0.44097 0.81912 0.62922 0.0
H1066 H 0.46254 0.75099 0.67649 0.0
C1067 C 0.46915 0.82709 0.60109 0.0
H1068 H 0.41911 0.78643 0.67855 0.0
C1069 C 0.49326 0.80577 0.59915 0.0
C1070 C 0.48921 0.77612 0.62532 0.0
H1071 H 0.46856 0.84556 0.57876 0.0
H1072 H 0.51139 0.80901 0.57553 0.0
C1073 C 0.46619 0.77344 0.65582 0.0
C1074 C 0.69075 0.44868 0.65435 0.0
C1075 C 0.71728 0.47239 0.62622 0.0
H1076 H 0.62621 0.40251 0.67082 0.0
C1077 C 0.69771 0.47341 0.59455 0.0
H1078 H 0.70506 0.4468 0.67885 0.0
C1079 C 0.6524 0.45001 0.59073 0.0
C1080 C 0.62598 0.42506 0.61844 0.0
H1081 H 0.71752 0.49151 0.57245 0.0
H1082 H 0.63813 0.44959 0.5656 0.0
C1083 C 0.64554 0.42432 0.65014 0.0
C1084 C 0.21654 0.63921 0.66099 0.0
C1085 C 0.18176 0.61809 0.63736 0.0
H1086 H 0.26583 0.70004 0.68158 0.0
C1087 C 0.16366 0.64126 0.62201 0.0
H1088 H 0.23139 0.62186 0.67262 0.0
C1089 C 0.18415 0.68633 0.62647 0.0
C1090 C 0.22258 0.70815 0.64641 0.0
H1091 H 0.13739 0.62569 0.60326 0.0
H1092 H 0.17335 0.70463 0.61079 0.0
C1093 C 0.23611 0.68393 0.66631 0.0
C1094 C 0.49274 0.18322 0.63128 0.0
C1095 C 0.50951 0.22349 0.64851 0.0
H1096 H 0.50766 0.13666 0.60923 0.0
C1097 C 0.54969 0.24095 0.66569 0.0
H1098 H 0.46174 0.16929 0.61779 0.0
C1099 C 0.57635 0.22321 0.65968 0.0
C1100 C 0.56192 0.18628 0.63846 0.0
H1101 H 0.5634 0.272 0.67899 0.0
H1102 H 0.60971 0.24062 0.66896 0.0
C1103 C 0.51903 0.16466 0.62618 0.0
C1104 C 0.42376 0.07097 0.98547 0.0
C1105 C 0.42335 0.10244 0.96331 0.0
H1106 H 0.42149 0.04969 0.03811 0.0
C1107 C 0.41028 0.13091 0.97692 0.0
H1108 H 0.43397 0.04881 0.97565 0.0
C1109 C 0.40338 0.13152 0.0129 0.0
C1110 C 0.40946 0.10369 0.03544 0.0
H1111 H 0.41052 0.15602 0.96063 0.0
H1112 H 0.3973 0.15634 0.02341 0.0
C1113 C 0.41736 0.07192 0.0213 0.0
C1114 C 0.35484 0.47089 0.97746 0.0
C1115 C 0.32111 0.43645 0.95902 0.0
H1116 H 0.38305 0.4964 0.02691 0.0
C1117 C 0.29459 0.39689 0.97604 0.0
H1118 H 0.37591 0.50159 0.96457 0.0
C1119 C 0.29837 0.39384 0.01221 0.0
C1120 C 0.32905 0.43021 0.03148 0.0
H1121 H 0.26851 0.36989 0.96207 0.0
H1122 H 0.27452 0.36463 0.0255 0.0
C1123 C 0.35932 0.46756 0.01325 0.0
C1124 C 0.84911 0.32549 0.0131 0.0
C1125 C 0.87447 0.30977 0.0286 0.0
H1126 H 0.8211 0.33366 0.9665 0.0
C1127 C 0.89408 0.29221 0.00709 0.0
H1128 H 0.8319 0.33727 0.02873 0.0
C1129 C 0.88741 0.28967 0.97079 0.0
C1130 C 0.86025 0.30369 0.95598 0.0
H1131 H 0.91327 0.27922 0.01843 0.0
H1132 H 0.90149 0.27479 0.95467 0.0
C1133 C 0.8421 0.3225 0.97735 0.0
C1134 C 0.59422 0.86604 0.97324 0.0
C1135 C 0.57462 0.88962 0.96111 0.0
H1136 H 0.61452 0.84442 0.01821 0.0
C1137 C 0.57015 0.91782 0.98446 0.0
H1138 H 0.59727 0.84339 0.95616 0.0
C1139 C 0.57854 0.91727 0.02006 0.0
C1140 C 0.59297 0.88963 0.03286 0.0
H1141 H 0.55493 0.93624 0.97589 0.0
H1142 H 0.57091 0.93624 0.0378 0.0
C1143 C 0.60347 0.86617 0.00893 0.0
C1144 C 0.63722 0.533 0.98059 0.0
C1145 C 0.67258 0.56648 0.9626 0.0
H1146 H 0.6084 0.50686 0.03007 0.0
C1147 C 0.70144 0.60443 0.98063 0.0
H1148 H 0.61464 0.50329 0.96711 0.0
C1149 C 0.69798 0.6066 0.01694 0.0
C1150 C 0.66588 0.57058 0.03573 0.0
H1151 H 0.72911 0.63053 0.96731 0.0
H1152 H 0.7234 0.63444 0.03065 0.0
C1153 C 0.6335 0.53525 0.01676 0.0
C1154 C 0.0858 0.65956 0.01857 0.0
C1155 C 0.10842 0.70242 0.03103 0.0
H1156 H 0.07099 0.61828 0.9741 0.0
C1157 C 0.12296 0.73697 0.00695 0.0
H1158 H 0.07352 0.63228 0.0364 0.0
C1159 C 0.12153 0.72885 0.9711 0.0
C1160 C 0.10521 0.68617 0.95915 0.0
H1161 H 0.14006 0.77045 0.01576 0.0
H1162 H 0.13885 0.75609 0.95349 0.0
C1163 C 0.08361 0.65154 0.98278 0.0
C1164 C 0.89444 0.55276 0.52525 0.0
C1165 C 0.88441 0.58025 0.54449 0.0
H1166 H 0.90638 0.53489 0.4752 0.0
C1167 C 0.88683 0.61671 0.52807 0.0
H1168 H 0.89285 0.52442 0.53748 0.0
C1169 C 0.89437 0.62272 0.49198 0.0
C1170 C 0.89944 0.59223 0.47176 0.0
H1171 H 0.87904 0.63826 0.5424 0.0
H1172 H 0.89188 0.6488 0.47946 0.0
C1173 C 0.90253 0.55903 0.48941 0.0
C1174 C 0.35929 0.92545 0.51863 0.0
C1175 C 0.3224 0.90423 0.54019 0.0
H1176 H 0.38284 0.93877 0.46627 0.0
C1177 C 0.28166 0.89395 0.5266 0.0
H1178 H 0.39121 0.93403 0.52873 0.0
C1179 C 0.27685 0.89697 0.49061 0.0
C1180 C 0.31268 0.90959 0.46804 0.0
H1181 H 0.25274 0.87749 0.54265 0.0
H1182 H 0.24415 0.88356 0.4803 0.0
C1183 C 0.35446 0.92773 0.48267 0.0
C1184 C 0.41497 0.35152 0.48291 0.0
C1185 C 0.39319 0.31021 0.46742 0.0
H1186 H 0.44497 0.38744 0.52936 0.0
C1187 C 0.3724 0.27339 0.4893 0.0
H1188 H 0.43005 0.38054 0.46702 0.0
C1189 C 0.38066 0.27739 0.52526 0.0
C1190 C 0.40934 0.31822 0.5396 0.0
H1191 H 0.35482 0.24096 0.47831 0.0
H1192 H 0.3702 0.24813 0.54057 0.0
C1193 C 0.42276 0.35549 0.51885 0.0
C1194 C 0.07043 0.44024 0.505 0.0
C1195 C 0.08921 0.42261 0.52729 0.0
H1196 H 0.05501 0.44744 0.45275 0.0
C1197 C 0.09301 0.38723 0.51558 0.0
H1198 H 0.06668 0.46731 0.51359 0.0
C1199 C 0.08522 0.37492 0.48032 0.0
C1200 C 0.07458 0.39861 0.45639 0.0
H1201 H 0.10727 0.37294 0.53226 0.0
H1202 H 0.09351 0.35109 0.47111 0.0
C1203 C 0.06323 0.42842 0.46988 0.0
C1204 C 0.71415 0.09659 0.48623 0.0
C1205 C 0.67866 0.08238 0.46286 0.0
H1206 H 0.7368 0.11799 0.53839 0.0
C1207 C 0.63677 0.06279 0.47685 0.0
H1208 H 0.74717 0.11083 0.47654 0.0
C1209 C 0.6307 0.06605 0.51246 0.0
C1210 C 0.66689 0.08924 0.53451 0.0
H1211 H 0.60942 0.051 0.45962 0.0
H1212 H 0.59816 0.05629 0.52163 0.0
C1213 C 0.70832 0.10044 0.52196 0.0
C1214 C 0.58361 0.64355 0.51594 0.0
C1215 C 0.59293 0.67826 0.53865 0.0
H1216 H 0.57858 0.6235 0.46285 0.0
C1217 C 0.61874 0.72086 0.52641 0.0
H1218 H 0.56469 0.61025 0.52502 0.0
C1219 C 0.62538 0.72835 0.4905 0.0
C1220 C 0.60581 0.69316 0.46688 0.0
H1221 H 0.62703 0.74827 0.54347 0.0
H1222 H 0.63942 0.76157 0.48135 0.0
C1223 C 0.59064 0.6511 0.48011 0.0
loop_
_geom_bond_atom_site_label_1
_geom_bond_atom_site_label_2
_geom_bond_distance
_geom_bond_site_symmetry_2
_ccdc_geom_bond_type
Zn0 O6 1.920 . S
Zn0 O12 1.898 . S
Zn0 O15 1.905 . S
Zn1 O9 1.905 . S
Zn1 O10 1.898 . S
Zn1 O18 1.920 . S
Zn2 O5 2.080 . S
Zn2 O8 2.114 . S
Zn2 O11 2.120 . S
Zn2 O13 2.120 . S
Zn2 O14 2.114 . S
Zn2 O17 2.080 . S
C3 O8 1.166 . S
C3 O9 1.182 . S
C4 O10 1.167 . S
C4 O11 1.299 . S
O5 Zn2 2.080 . S
O5 C19 1.305 . S
O6 Zn0 1.920 . S
O6 C19 1.234 . S
C7 O12 1.167 . S
C7 O13 1.299 . S
O8 Zn2 2.114 . S
O8 C3 1.166 . S
O9 Zn1 1.905 . S
O9 C3 1.182 . S
O10 Zn1 1.898 . S
O10 C4 1.167 . S
O11 Zn2 2.120 . S
O11 C4 1.299 . S
O12 Zn0 1.898 . S
O12 C7 1.167 . S
O13 Zn2 2.120 . S
O13 C7 1.299 . S
O14 Zn2 2.114 . S
O14 C16 1.166 . S
O15 Zn0 1.905 . S
O15 C16 1.182 . S
C16 O14 1.166 . S
C16 O15 1.182 . S
O17 Zn2 2.080 . S
O17 C20 1.305 . S
O18 Zn1 1.920 . S
O18 C20 1.234 . S
C19 O5 1.305 . S
C19 O6 1.234 . S
C20 O17 1.305 . S
C20 O18 1.234 . S
Zn21 O27 1.920 . S
Zn21 O33 1.898 . S
Zn21 O36 1.905 . S
Zn22 O30 1.905 . S
Zn22 O31 1.898 . S
Zn22 O39 1.920 . S
Zn23 O26 2.080 . S
Zn23 O29 2.114 . S
Zn23 O32 2.120 . S
Zn23 O34 2.120 . S
Zn23 O35 2.114 . S
Zn23 O38 2.080 . S
C24 O29 1.166 . S
C24 O30 1.182 . S
C25 O31 1.167 . S
C25 O32 1.299 . S
O26 Zn23 2.080 . S
O26 C40 1.305 . S
O27 Zn21 1.920 . S
O27 C40 1.234 . S
C28 O33 1.167 . S
C28 O34 1.299 . S
O29 Zn23 2.114 . S
O29 C24 1.166 . S
O30 Zn22 1.905 . S
O30 C24 1.182 . S
O31 Zn22 1.898 . S
O31 C25 1.167 . S
O32 Zn23 2.120 . S
O32 C25 1.299 . S
O33 Zn21 1.898 . S
O33 C28 1.167 . S
O34 Zn23 2.120 . S
O34 C28 1.299 . S
O35 Zn23 2.114 . S
O35 C37 1.166 . S
O36 Zn21 1.905 . S
O36 C37 1.182 . S
C37 O35 1.166 . S
C37 O36 1.182 . S
O38 Zn23 2.080 . S
O38 C41 1.305 . S
O39 Zn22 1.920 . S
O39 C41 1.234 . S
C40 O26 1.305 . S
C40 O27 1.234 . S
C41 O38 1.305 . S
C41 O39 1.234 . S
Zn42 O48 1.920 . S
Zn42 O54 1.898 . S
Zn42 O57 1.905 . S
Zn43 O51 1.905 . S
Zn43 O52 1.898 . S
Zn43 O60 1.920 . S
Zn44 O47 2.080 . S
Zn44 O50 2.114 . S
Zn44 O53 2.120 . S
Zn44 O55 2.120 . S
Zn44 O56 2.114 . S
Zn44 O59 2.080 . S
C45 O50 1.166 . S
C45 O51 1.182 . S
C46 O52 1.167 . S
C46 O53 1.299 . S
O47 Zn44 2.080 . S
O47 C61 1.305 . S
O48 Zn42 1.920 . S
O48 C61 1.234 . S
C49 O54 1.167 . S
C49 O55 1.299 . S
O50 Zn44 2.114 . S
O50 C45 1.166 . S
O51 Zn43 1.905 . S
O51 C45 1.182 . S
O52 Zn43 1.898 . S
O52 C46 1.167 . S
O53 Zn44 2.120 . S
O53 C46 1.299 . S
O54 Zn42 1.898 . S
O54 C49 1.167 . S
O55 Zn44 2.120 . S
O55 C49 1.299 . S
O56 Zn44 2.114 . S
O56 C58 1.166 . S
O57 Zn42 1.905 . S
O57 C58 1.182 . S
C58 O56 1.166 . S
C58 O57 1.182 . S
O59 Zn44 2.080 . S
O59 C62 1.305 . S
O60 Zn43 1.920 . S
O60 C62 1.234 . S
C61 O47 1.305 . S
C61 O48 1.234 . S
C62 O59 1.305 . S
C62 O60 1.234 . S
Zn63 O69 1.920 . S
Zn63 O75 1.898 . S
Zn63 O78 1.905 . S
Zn64 O72 1.905 . S
Zn64 O73 1.898 . S
Zn64 O81 1.920 . S
Zn65 O68 2.080 . S
Zn65 O71 2.114 . S
Zn65 O74 2.120 . S
Zn65 O76 2.120 . S
Zn65 O77 2.114 . S
Zn65 O80 2.080 . S
C66 O71 1.166 . S
C66 O72 1.182 . S
C67 O73 1.167 . S
C67 O74 1.299 . S
O68 Zn65 2.080 . S
O68 C82 1.305 . S
O69 Zn63 1.920 . S
O69 C82 1.234 . S
C70 O75 1.167 . S
C70 O76 1.299 . S
O71 Zn65 2.114 . S
O71 C66 1.166 . S
O72 Zn64 1.905 . S
O72 C66 1.182 . S
O73 Zn64 1.898 . S
O73 C67 1.167 . S
O74 Zn65 2.120 . S
O74 C67 1.299 . S
O75 Zn63 1.898 . S
O75 C70 1.167 . S
O76 Zn65 2.120 . S
O76 C70 1.299 . S
O77 Zn65 2.114 . S
O77 C79 1.166 . S
O78 Zn63 1.905 . S
O78 C79 1.182 . S
C79 O77 1.166 . S
C79 O78 1.182 . S
O80 Zn65 2.080 . S
O80 C83 1.305 . S
O81 Zn64 1.920 . S
O81 C83 1.234 . S
C82 O68 1.305 . S
C82 O69 1.234 . S
C83 O80 1.305 . S
C83 O81 1.234 . S
Zn84 O90 1.920 . S
Zn84 O96 1.898 . S
Zn84 O99 1.905 . S
Zn85 O93 1.905 . S
Zn85 O94 1.898 . S
Zn85 O102 1.920 . S
Zn86 O89 2.080 . S
Zn86 O92 2.114 . S
Zn86 O95 2.120 . S
Zn86 O97 2.120 . S
Zn86 O98 2.114 . S
Zn86 O101 2.080 . S
C87 O92 1.166 . S
C87 O93 1.182 . S
C88 O94 1.167 . S
C88 O95 1.299 . S
O89 Zn86 2.080 . S
O89 C103 1.305 . S
O90 Zn84 1.920 . S
O90 C103 1.234 . S
C91 O96 1.167 . S
C91 O97 1.299 . S
O92 Zn86 2.114 . S
O92 C87 1.166 . S
O93 Zn85 1.905 . S
O93 C87 1.182 . S
O94 Zn85 1.898 . S
O94 C88 1.167 . S
O95 Zn86 2.120 . S
O95 C88 1.299 . S
O96 Zn84 1.898 . S
O96 C91 1.167 . S
O97 Zn86 2.120 . S
O97 C91 1.299 . S
O98 Zn86 2.114 . S
O98 C100 1.166 . S
O99 Zn84 1.905 . S
O99 C100 1.182 . S
C100 O98 1.166 . S
C100 O99 1.182 . S
O101 Zn86 2.080 . S
O101 C104 1.305 . S
O102 Zn85 1.920 . S
O102 C104 1.234 . S
C103 O89 1.305 . S
C103 O90 1.234 . S
C104 O101 1.305 . S
C104 O102 1.234 . S
Zn105 O111 1.920 . S
Zn105 O117 1.898 . S
Zn105 O120 1.905 . S
Zn106 O114 1.905 . S
Zn106 O115 1.898 . S
Zn106 O123 1.920 . S
Zn107 O110 2.080 . S
Zn107 O113 2.114 . S
Zn107 O116 2.120 . S
Zn107 O118 2.120 . S
Zn107 O119 2.114 . S
Zn107 O122 2.080 . S
C108 O113 1.166 . S
C108 O114 1.182 . S
C109 O115 1.167 . S
C109 O116 1.299 . S
O110 Zn107 2.080 . S
O110 C124 1.305 . S
O111 Zn105 1.920 . S
O111 C124 1.234 . S
C112 O117 1.167 . S
C112 O118 1.299 . S
O113 Zn107 2.114 . S
O113 C108 1.166 . S
O114 Zn106 1.905 . S
O114 C108 1.182 . S
O115 Zn106 1.898 . S
O115 C109 1.167 . S
O116 Zn107 2.120 . S
O116 C109 1.299 . S
O117 Zn105 1.898 . S
O117 C112 1.167 . S
O118 Zn107 2.120 . S
O118 C112 1.299 . S
O119 Zn107 2.114 . S
O119 C121 1.166 . S
O120 Zn105 1.905 . S
O120 C121 1.182 . S
C121 O119 1.166 . S
C121 O120 1.182 . S
O122 Zn107 2.080 . S
O122 C125 1.305 . S
O123 Zn106 1.920 . S
O123 C125 1.234 . S
C124 O110 1.305 . S
C124 O111 1.234 . S
C125 O122 1.305 . S
C125 O123 1.234 . S
Zn126 O132 1.920 . S
Zn126 O138 1.898 . S
Zn126 O141 1.905 . S
Zn127 O135 1.905 . S
Zn127 O136 1.898 . S
Zn127 O144 1.920 . S
Zn128 O131 2.080 . S
Zn128 O134 2.114 . S
Zn128 O137 2.120 . S
Zn128 O139 2.120 . S
Zn128 O140 2.114 . S
Zn128 O143 2.080 . S
C129 O134 1.166 . S
C129 O135 1.182 . S
C130 O136 1.167 . S
C130 O137 1.299 . S
O131 Zn128 2.080 . S
O131 C145 1.305 . S
O132 Zn126 1.920 . S
O132 C145 1.234 . S
C133 O138 1.167 . S
C133 O139 1.299 . S
O134 Zn128 2.114 . S
O134 C129 1.166 . S
O135 Zn127 1.905 . S
O135 C129 1.182 . S
O136 Zn127 1.898 . S
O136 C130 1.167 . S
O137 Zn128 2.120 . S
O137 C130 1.299 . S
O138 Zn126 1.898 . S
O138 C133 1.167 . S
O139 Zn128 2.120 . S
O139 C133 1.299 . S
O140 Zn128 2.114 . S
O140 C142 1.166 . S
O141 Zn126 1.905 . S
O141 C142 1.182 . S
C142 O140 1.166 . S
C142 O141 1.182 . S
O143 Zn128 2.080 . S
O143 C146 1.305 . S
O144 Zn127 1.920 . S
O144 C146 1.234 . S
C145 O131 1.305 . S
C145 O132 1.234 . S
C146 O143 1.305 . S
C146 O144 1.234 . S
Zn147 O153 1.920 . S
Zn147 O159 1.898 . S
Zn147 O162 1.905 . S
Zn148 O156 1.905 . S
Zn148 O157 1.898 . S
Zn148 O165 1.920 . S
Zn149 O152 2.080 . S
Zn149 O155 2.114 . S
Zn149 O158 2.120 . S
Zn149 O160 2.120 . S
Zn149 O161 2.114 . S
Zn149 O164 2.080 . S
C150 O155 1.166 . S
C150 O156 1.182 . S
C151 O157 1.167 . S
C151 O158 1.299 . S
O152 Zn149 2.080 . S
O152 C166 1.305 . S
O153 Zn147 1.920 . S
O153 C166 1.234 . S
C154 O159 1.167 . S
C154 O160 1.299 . S
O155 Zn149 2.114 . S
O155 C150 1.166 . S
O156 Zn148 1.905 . S
O156 C150 1.182 . S
O157 Zn148 1.898 . S
O157 C151 1.167 . S
O158 Zn149 2.120 . S
O158 C151 1.299 . S
O159 Zn147 1.898 . S
O159 C154 1.167 . S
O160 Zn149 2.120 . S
O160 C154 1.299 . S
O161 Zn149 2.114 . S
O161 C163 1.166 . S
O162 Zn147 1.905 . S
O162 C163 1.182 . S
C163 O161 1.166 . S
C163 O162 1.182 . S
O164 Zn149 2.080 . S
O164 C167 1.305 . S
O165 Zn148 1.920 . S
O165 C167 1.234 . S
C166 O152 1.305 . S
C166 O153 1.234 . S
C167 O164 1.305 . S
C167 O165 1.234 . S
Zn168 O174 1.920 . S
Zn168 O180 1.898 . S
Zn168 O183 1.905 . S
Zn169 O177 1.905 . S
Zn169 O178 1.898 . S
Zn169 O186 1.920 . S
Zn170 O173 2.080 . S
Zn170 O176 2.114 . S
Zn170 O179 2.120 . S
Zn170 O181 2.120 . S
Zn170 O182 2.114 . S
Zn170 O185 2.080 . S
C171 O176 1.166 . S
C171 O177 1.182 . S
C172 O178 1.167 . S
C172 O179 1.299 . S
O173 Zn170 2.080 . S
O173 C187 1.305 . S
O174 Zn168 1.920 . S
O174 C187 1.234 . S
C175 O180 1.167 . S
C175 O181 1.299 . S
O176 Zn170 2.114 . S
O176 C171 1.166 . S
O177 Zn169 1.905 . S
O177 C171 1.182 . S
O178 Zn169 1.898 . S
O178 C172 1.167 . S
O179 Zn170 2.120 . S
O179 C172 1.299 . S
O180 Zn168 1.898 . S
O180 C175 1.167 . S
O181 Zn170 2.120 . S
O181 C175 1.299 . S
O182 Zn170 2.114 . S
O182 C184 1.166 . S
O183 Zn168 1.905 . S
O183 C184 1.182 . S
C184 O182 1.166 . S
C184 O183 1.182 . S
O185 Zn170 2.080 . S
O185 C188 1.305 . S
O186 Zn169 1.920 . S
O186 C188 1.234 . S
C187 O173 1.305 . S
C187 O174 1.234 . S
C188 O185 1.305 . S
C188 O186 1.234 . S
Zn189 O195 1.920 . S
Zn189 O201 1.898 . S
Zn189 O204 1.905 . S
Zn190 O198 1.905 . S
Zn190 O199 1.898 . S
Zn190 O207 1.920 . S
Zn191 O194 2.080 . S
Zn191 O197 2.114 . S
Zn191 O200 2.120 . S
Zn191 O202 2.120 . S
Zn191 O203 2.114 . S
Zn191 O206 2.080 . S
C192 O197 1.166 . S
C192 O198 1.182 . S
C193 O199 1.167 . S
C193 O200 1.299 . S
O194 Zn191 2.080 . S
O194 C208 1.305 . S
O195 Zn189 1.920 . S
O195 C208 1.234 . S
C196 O201 1.167 . S
C196 O202 1.299 . S
O197 Zn191 2.114 . S
O197 C192 1.166 . S
O198 Zn190 1.905 . S
O198 C192 1.182 . S
O199 Zn190 1.898 . S
O199 C193 1.167 . S
O200 Zn191 2.120 . S
O200 C193 1.299 . S
O201 Zn189 1.898 . S
O201 C196 1.167 . S
O202 Zn191 2.120 . S
O202 C196 1.299 . S
O203 Zn191 2.114 . S
O203 C205 1.166 . S
O204 Zn189 1.905 . S
O204 C205 1.182 . S
C205 O203 1.166 . S
C205 O204 1.182 . S
O206 Zn191 2.080 . S
O206 C209 1.305 . S
O207 Zn190 1.920 . S
O207 C209 1.234 . S
C208 O194 1.305 . S
C208 O195 1.234 . S
C209 O206 1.305 . S
C209 O207 1.234 . S
Zn210 O216 1.920 . S
Zn210 O222 1.898 . S
Zn210 O225 1.905 . S
Zn211 O219 1.905 . S
Zn211 O220 1.898 . S
Zn211 O228 1.920 . S
Zn212 O215 2.080 . S
Zn212 O218 2.114 . S
Zn212 O221 2.120 . S
Zn212 O223 2.120 . S
Zn212 O224 2.114 . S
Zn212 O227 2.080 . S
C213 O218 1.166 . S
C213 O219 1.182 . S
C214 O220 1.167 . S
C214 O221 1.299 . S
O215 Zn212 2.080 . S
O215 C229 1.305 . S
O216 Zn210 1.920 . S
O216 C229 1.234 . S
C217 O222 1.167 . S
C217 O223 1.299 . S
O218 Zn212 2.114 . S
O218 C213 1.166 . S
O219 Zn211 1.905 . S
O219 C213 1.182 . S
O220 Zn211 1.898 . S
O220 C214 1.167 . S
O221 Zn212 2.120 . S
O221 C214 1.299 . S
O222 Zn210 1.898 . S
O222 C217 1.167 . S
O223 Zn212 2.120 . S
O223 C217 1.299 . S
O224 Zn212 2.114 . S
O224 C226 1.166 . S
O225 Zn210 1.905 . S
O225 C226 1.182 . S
C226 O224 1.166 . S
C226 O225 1.182 . S
O227 Zn212 2.080 . S
O227 C230 1.305 . S
O228 Zn211 1.920 . S
O228 C230 1.234 . S
C229 O215 1.305 . S
C229 O216 1.234 . S
C230 O227 1.305 . S
C230 O228 1.234 . S
Zn231 O237 1.920 . S
Zn231 O243 1.898 . S
Zn231 O246 1.905 . S
Zn232 O240 1.905 . S
Zn232 O241 1.898 . S
Zn232 O249 1.920 . S
Zn233 O236 2.080 . S
Zn233 O239 2.114 . S
Zn233 O242 2.120 . S
Zn233 O244 2.120 . S
Zn233 O245 2.114 . S
Zn233 O248 2.080 . S
C234 O239 1.166 . S
C234 O240 1.182 . S
C235 O241 1.167 . S
C235 O242 1.299 . S
O236 Zn233 2.080 . S
O236 C250 1.305 . S
O237 Zn231 1.920 . S
O237 C250 1.234 . S
C238 O243 1.167 . S
C238 O244 1.299 . S
O239 Zn233 2.114 . S
O239 C234 1.166 . S
O240 Zn232 1.905 . S
O240 C234 1.182 . S
O241 Zn232 1.898 . S
O241 C235 1.167 . S
O242 Zn233 2.120 . S
O242 C235 1.299 . S
O243 Zn231 1.898 . S
O243 C238 1.167 . S
O244 Zn233 2.120 . S
O244 C238 1.299 . S
O245 Zn233 2.114 . S
O245 C247 1.166 . S
O246 Zn231 1.905 . S
O246 C247 1.182 . S
C247 O245 1.166 . S
C247 O246 1.182 . S
O248 Zn233 2.080 . S
O248 C251 1.305 . S
O249 Zn232 1.920 . S
O249 C251 1.234 . S
C250 O236 1.305 . S
C250 O237 1.234 . S
C251 O248 1.305 . S
C251 O249 1.234 . S
Zn252 O258 1.920 . S
Zn252 O264 1.898 . S
Zn252 O267 1.905 . S
Zn253 O261 1.905 . S
Zn253 O262 1.898 . S
Zn253 O270 1.920 . S
Zn254 O257 2.080 . S
Zn254 O260 2.114 . S
Zn254 O263 2.120 . S
Zn254 O265 2.120 . S
Zn254 O266 2.114 . S
Zn254 O269 2.080 . S
C255 O260 1.166 . S
C255 O261 1.182 . S
C256 O262 1.167 . S
C256 O263 1.299 . S
O257 Zn254 2.080 . S
O257 C271 1.305 . S
O258 Zn252 1.920 . S
O258 C271 1.234 . S
C259 O264 1.167 . S
C259 O265 1.299 . S
O260 Zn254 2.114 . S
O260 C255 1.166 . S
O261 Zn253 1.905 . S
O261 C255 1.182 . S
O262 Zn253 1.898 . S
O262 C256 1.167 . S
O263 Zn254 2.120 . S
O263 C256 1.299 . S
O264 Zn252 1.898 . S
O264 C259 1.167 . S
O265 Zn254 2.120 . S
O265 C259 1.299 . S
O266 Zn254 2.114 . S
O266 C268 1.166 . S
O267 Zn252 1.905 . S
O267 C268 1.182 . S
C268 O266 1.166 . S
C268 O267 1.182 . S
O269 Zn254 2.080 . S
O269 C272 1.305 . S
O270 Zn253 1.920 . S
O270 C272 1.234 . S
C271 O257 1.305 . S
C271 O258 1.234 . S
C272 O269 1.305 . S
C272 O270 1.234 . S
Zn273 O279 1.920 . S
Zn273 O285 1.898 . S
Zn273 O288 1.905 . S
Zn274 O282 1.905 . S
Zn274 O283 1.898 . S
Zn274 O291 1.920 . S
Zn275 O278 2.080 . S
Zn275 O281 2.114 . S
Zn275 O284 2.120 . S
Zn275 O286 2.120 . S
Zn275 O287 2.114 . S
Zn275 O290 2.080 . S
C276 O281 1.166 . S
C276 O282 1.182 . S
C277 O283 1.167 . S
C277 O284 1.299 . S
O278 Zn275 2.080 . S
O278 C292 1.305 . S
O279 Zn273 1.920 . S
O279 C292 1.234 . S
C280 O285 1.167 . S
C280 O286 1.299 . S
O281 Zn275 2.114 . S
O281 C276 1.166 . S
O282 Zn274 1.905 . S
O282 C276 1.182 . S
O283 Zn274 1.898 . S
O283 C277 1.167 . S
O284 Zn275 2.120 . S
O284 C277 1.299 . S
O285 Zn273 1.898 . S
O285 C280 1.167 . S
O286 Zn275 2.120 . S
O286 C280 1.299 . S
O287 Zn275 2.114 . S
O287 C289 1.166 . S
O288 Zn273 1.905 . S
O288 C289 1.182 . S
C289 O287 1.166 . S
C289 O288 1.182 . S
O290 Zn275 2.080 . S
O290 C293 1.305 . S
O291 Zn274 1.920 . S
O291 C293 1.234 . S
C292 O278 1.305 . S
C292 O279 1.234 . S
C293 O290 1.305 . S
C293 O291 1.234 . S
Zn294 O300 1.920 . S
Zn294 O306 1.898 . S
Zn294 O309 1.905 . S
Zn295 O303 1.905 . S
Zn295 O304 1.898 . S
Zn295 O312 1.920 . S
Zn296 O299 2.080 . S
Zn296 O302 2.114 . S
Zn296 O305 2.120 . S
Zn296 O307 2.120 . S
Zn296 O308 2.114 . S
Zn296 O311 2.080 . S
C297 O302 1.166 . S
C297 O303 1.182 . S
C298 O304 1.167 . S
C298 O305 1.299 . S
O299 Zn296 2.080 . S
O299 C313 1.305 . S
O300 Zn294 1.920 . S
O300 C313 1.234 . S
C301 O306 1.167 . S
C301 O307 1.299 . S
O302 Zn296 2.114 . S
O302 C297 1.166 . S
O303 Zn295 1.905 . S
O303 C297 1.182 . S
O304 Zn295 1.898 . S
O304 C298 1.167 . S
O305 Zn296 2.120 . S
O305 C298 1.299 . S
O306 Zn294 1.898 . S
O306 C301 1.167 . S
O307 Zn296 2.120 . S
O307 C301 1.299 . S
O308 Zn296 2.114 . S
O308 C310 1.166 . S
O309 Zn294 1.905 . S
O309 C310 1.182 . S
C310 O308 1.166 . S
C310 O309 1.182 . S
O311 Zn296 2.080 . S
O311 C314 1.305 . S
O312 Zn295 1.920 . S
O312 C314 1.234 . S
C313 O299 1.305 . S
C313 O300 1.234 . S
C314 O311 1.305 . S
C314 O312 1.234 . S
Zn315 O321 1.920 . S
Zn315 O327 1.898 . S
Zn315 O330 1.905 . S
Zn316 O324 1.905 . S
Zn316 O325 1.898 . S
Zn316 O333 1.920 . S
Zn317 O320 2.080 . S
Zn317 O323 2.114 . S
Zn317 O326 2.120 . S
Zn317 O328 2.120 . S
Zn317 O329 2.114 . S
Zn317 O332 2.080 . S
C318 O323 1.166 . S
C318 O324 1.182 . S
C319 O325 1.167 . S
C319 O326 1.299 . S
O320 Zn317 2.080 . S
O320 C334 1.305 . S
O321 Zn315 1.920 . S
O321 C334 1.234 . S
C322 O327 1.167 . S
C322 O328 1.299 . S
O323 Zn317 2.114 . S
O323 C318 1.166 . S
O324 Zn316 1.905 . S
O324 C318 1.182 . S
O325 Zn316 1.898 . S
O325 C319 1.167 . S
O326 Zn317 2.120 . S
O326 C319 1.299 . S
O327 Zn315 1.898 . S
O327 C322 1.167 . S
O328 Zn317 2.120 . S
O328 C322 1.299 . S
O329 Zn317 2.114 . S
O329 C331 1.166 . S
O330 Zn315 1.905 . S
O330 C331 1.182 . S
C331 O329 1.166 . S
C331 O330 1.182 . S
O332 Zn317 2.080 . S
O332 C335 1.305 . S
O333 Zn316 1.920 . S
O333 C335 1.234 . S
C334 O320 1.305 . S
C334 O321 1.234 . S
C335 O332 1.305 . S
C335 O333 1.234 . S
Zn336 O342 1.920 . S
Zn336 O348 1.898 . S
Zn336 O351 1.905 . S
Zn337 O345 1.905 . S
Zn337 O346 1.898 . S
Zn337 O354 1.920 . S
Zn338 O341 2.080 . S
Zn338 O344 2.114 . S
Zn338 O347 2.120 . S
Zn338 O349 2.120 . S
Zn338 O350 2.114 . S
Zn338 O353 2.080 . S
C339 O344 1.166 . S
C339 O345 1.182 . S
C340 O346 1.167 . S
C340 O347 1.299 . S
O341 Zn338 2.080 . S
O341 C355 1.305 . S
O342 Zn336 1.920 . S
O342 C355 1.234 . S
C343 O348 1.167 . S
C343 O349 1.299 . S
O344 Zn338 2.114 . S
O344 C339 1.166 . S
O345 Zn337 1.905 . S
O345 C339 1.182 . S
O346 Zn337 1.898 . S
O346 C340 1.167 . S
O347 Zn338 2.120 . S
O347 C340 1.299 . S
O348 Zn336 1.898 . S
O348 C343 1.167 . S
O349 Zn338 2.120 . S
O349 C343 1.299 . S
O350 Zn338 2.114 . S
O350 C352 1.166 . S
O351 Zn336 1.905 . S
O351 C352 1.182 . S
C352 O350 1.166 . S
C352 O351 1.182 . S
O353 Zn338 2.080 . S
O353 C356 1.305 . S
O354 Zn337 1.920 . S
O354 C356 1.234 . S
C355 O341 1.305 . S
C355 O342 1.234 . S
C356 O353 1.305 . S
C356 O354 1.234 . S
Zn357 O363 1.920 . S
Zn357 O369 1.898 . S
Zn357 O372 1.905 . S
Zn358 O366 1.905 . S
Zn358 O367 1.898 . S
Zn358 O375 1.920 . S
Zn359 O362 2.080 . S
Zn359 O365 2.114 . S
Zn359 O368 2.120 . S
Zn359 O370 2.120 . S
Zn359 O371 2.114 . S
Zn359 O374 2.080 . S
C360 O365 1.166 . S
C360 O366 1.182 . S
C361 O367 1.167 . S
C361 O368 1.299 . S
O362 Zn359 2.080 . S
O362 C376 1.305 . S
O363 Zn357 1.920 . S
O363 C376 1.234 . S
C364 O369 1.167 . S
C364 O370 1.299 . S
O365 Zn359 2.114 . S
O365 C360 1.166 . S
O366 Zn358 1.905 . S
O366 C360 1.182 . S
O367 Zn358 1.898 . S
O367 C361 1.167 . S
O368 Zn359 2.120 . S
O368 C361 1.299 . S
O369 Zn357 1.898 . S
O369 C364 1.167 . S
O370 Zn359 2.120 . S
O370 C364 1.299 . S
O371 Zn359 2.114 . S
O371 C373 1.166 . S
O372 Zn357 1.905 . S
O372 C373 1.182 . S
C373 O371 1.166 . S
C373 O372 1.182 . S
O374 Zn359 2.080 . S
O374 C377 1.305 . S
O375 Zn358 1.920 . S
O375 C377 1.234 . S
C376 O362 1.305 . S
C376 O363 1.234 . S
C377 O374 1.305 . S
C377 O375 1.234 . S
Zn378 O384 1.920 . S
Zn378 O390 1.898 . S
Zn378 O393 1.905 . S
Zn379 O387 1.905 . S
Zn379 O388 1.898 . S
Zn379 O396 1.920 . S
Zn380 O383 2.080 . S
Zn380 O386 2.114 . S
Zn380 O389 2.120 . S
Zn380 O391 2.120 . S
Zn380 O392 2.114 . S
Zn380 O395 2.080 . S
C381 O386 1.166 . S
C381 O387 1.182 . S
C382 O388 1.167 . S
C382 O389 1.299 . S
O383 Zn380 2.080 . S
O383 C397 1.305 . S
O384 Zn378 1.920 . S
O384 C397 1.234 . S
C385 O390 1.167 . S
C385 O391 1.299 . S
O386 Zn380 2.114 . S
O386 C381 1.166 . S
O387 Zn379 1.905 . S
O387 C381 1.182 . S
O388 Zn379 1.898 . S
O388 C382 1.167 . S
O389 Zn380 2.120 . S
O389 C382 1.299 . S
O390 Zn378 1.898 . S
O390 C385 1.167 . S
O391 Zn380 2.120 . S
O391 C385 1.299 . S
O392 Zn380 2.114 . S
O392 C394 1.166 . S
O393 Zn378 1.905 . S
O393 C394 1.182 . S
C394 O392 1.166 . S
C394 O393 1.182 . S
O395 Zn380 2.080 . S
O395 C398 1.305 . S
O396 Zn379 1.920 . S
O396 C398 1.234 . S
C397 O383 1.305 . S
C397 O384 1.234 . S
C398 O395 1.305 . S
C398 O396 1.234 . S
Zn399 O405 1.920 . S
Zn399 O411 1.898 . S
Zn399 O414 1.905 . S
Zn400 O408 1.905 . S
Zn400 O409 1.898 . S
Zn400 O417 1.920 . S
Zn401 O404 2.080 . S
Zn401 O407 2.114 . S
Zn401 O410 2.120 . S
Zn401 O412 2.120 . S
Zn401 O413 2.114 . S
Zn401 O416 2.080 . S
C402 O407 1.166 . S
C402 O408 1.182 . S
C403 O409 1.167 . S
C403 O410 1.299 . S
O404 Zn401 2.080 . S
O404 C418 1.305 . S
O405 Zn399 1.920 . S
O405 C418 1.234 . S
C406 O411 1.167 . S
C406 O412 1.299 . S
O407 Zn401 2.114 . S
O407 C402 1.166 . S
O408 Zn400 1.905 . S
O408 C402 1.182 . S
O409 Zn400 1.898 . S
O409 C403 1.167 . S
O410 Zn401 2.120 . S
O410 C403 1.299 . S
O411 Zn399 1.898 . S
O411 C406 1.167 . S
O412 Zn401 2.120 . S
O412 C406 1.299 . S
O413 Zn401 2.114 . S
O413 C415 1.166 . S
O414 Zn399 1.905 . S
O414 C415 1.182 . S
C415 O413 1.166 . S
C415 O414 1.182 . S
O416 Zn401 2.080 . S
O416 C419 1.305 . S
O417 Zn400 1.920 . S
O417 C419 1.234 . S
C418 O404 1.305 . S
C418 O405 1.234 . S
C419 O416 1.305 . S
C419 O417 1.234 . S
Zn420 O426 1.920 . S
Zn420 O432 1.898 . S
Zn420 O435 1.905 . S
Zn421 O429 1.905 . S
Zn421 O430 1.898 . S
Zn421 O438 1.920 . S
Zn422 O425 2.080 . S
Zn422 O428 2.114 . S
Zn422 O431 2.120 . S
Zn422 O433 2.120 . S
Zn422 O434 2.114 . S
Zn422 O437 2.080 . S
C423 O428 1.166 . S
C423 O429 1.182 . S
C424 O430 1.167 . S
C424 O431 1.299 . S
O425 Zn422 2.080 . S
O425 C439 1.305 . S
O426 Zn420 1.920 . S
O426 C439 1.234 . S
C427 O432 1.167 . S
C427 O433 1.299 . S
O428 Zn422 2.114 . S
O428 C423 1.166 . S
O429 Zn421 1.905 . S
O429 C423 1.182 . S
O430 Zn421 1.898 . S
O430 C424 1.167 . S
O431 Zn422 2.120 . S
O431 C424 1.299 . S
O432 Zn420 1.898 . S
O432 C427 1.167 . S
O433 Zn422 2.120 . S
O433 C427 1.299 . S
O434 Zn422 2.114 . S
O434 C436 1.166 . S
O435 Zn420 1.905 . S
O435 C436 1.182 . S
C436 O434 1.166 . S
C436 O435 1.182 . S
O437 Zn422 2.080 . S
O437 C440 1.305 . S
O438 Zn421 1.920 . S
O438 C440 1.234 . S
C439 O425 1.305 . S
C439 O426 1.234 . S
C440 O437 1.305 . S
C440 O438 1.234 . S
Zn441 O447 1.920 . S
Zn441 O453 1.898 . S
Zn441 O456 1.905 . S
Zn442 O450 1.905 . S
Zn442 O451 1.898 . S
Zn442 O459 1.920 . S
Zn443 O446 2.080 . S
Zn443 O449 2.114 . S
Zn443 O452 2.120 . S
Zn443 O454 2.120 . S
Zn443 O455 2.114 . S
Zn443 O458 2.080 . S
C444 O449 1.166 . S
C444 O450 1.182 . S
C445 O451 1.167 . S
C445 O452 1.299 . S
O446 Zn443 2.080 . S
O446 C460 1.305 . S
O447 Zn441 1.920 . S
O447 C460 1.234 . S
C448 O453 1.167 . S
C448 O454 1.299 . S
O449 Zn443 2.114 . S
O449 C444 1.166 . S
O450 Zn442 1.905 . S
O450 C444 1.182 . S
O451 Zn442 1.898 . S
O451 C445 1.167 . S
O452 Zn443 2.120 . S
O452 C445 1.299 . S
O453 Zn441 1.898 . S
O453 C448 1.167 . S
O454 Zn443 2.120 . S
O454 C448 1.299 . S
O455 Zn443 2.114 . S
O455 C457 1.166 . S
O456 Zn441 1.905 . S
O456 C457 1.182 . S
C457 O455 1.166 . S
C457 O456 1.182 . S
O458 Zn443 2.080 . S
O458 C461 1.305 . S
O459 Zn442 1.920 . S
O459 C461 1.234 . S
C460 O446 1.305 . S
C460 O447 1.234 . S
C461 O458 1.305 . S
C461 O459 1.234 . S
Zn462 O468 1.920 . S
Zn462 O474 1.898 . S
Zn462 O477 1.905 . S
Zn463 O471 1.905 . S
Zn463 O472 1.898 . S
Zn463 O480 1.920 . S
Zn464 O467 2.080 . S
Zn464 O470 2.114 . S
Zn464 O473 2.120 . S
Zn464 O475 2.120 . S
Zn464 O476 2.114 . S
Zn464 O479 2.080 . S
C465 O470 1.166 . S
C465 O471 1.182 . S
C466 O472 1.167 . S
C466 O473 1.299 . S
O467 Zn464 2.080 . S
O467 C481 1.305 . S
O468 Zn462 1.920 . S
O468 C481 1.234 . S
C469 O474 1.167 . S
C469 O475 1.299 . S
O470 Zn464 2.114 . S
O470 C465 1.166 . S
O471 Zn463 1.905 . S
O471 C465 1.182 . S
O472 Zn463 1.898 . S
O472 C466 1.167 . S
O473 Zn464 2.120 . S
O473 C466 1.299 . S
O474 Zn462 1.898 . S
O474 C469 1.167 . S
O475 Zn464 2.120 . S
O475 C469 1.299 . S
O476 Zn464 2.114 . S
O476 C478 1.166 . S
O477 Zn462 1.905 . S
O477 C478 1.182 . S
C478 O476 1.166 . S
C478 O477 1.182 . S
O479 Zn464 2.080 . S
O479 C482 1.305 . S
O480 Zn463 1.920 . S
O480 C482 1.234 . S
C481 O467 1.305 . S
C481 O468 1.234 . S
C482 O479 1.305 . S
C482 O480 1.234 . S
Zn483 O489 1.920 . S
Zn483 O495 1.898 . S
Zn483 O498 1.905 . S
Zn484 O492 1.905 . S
Zn484 O493 1.898 . S
Zn484 O501 1.920 . S
Zn485 O488 2.080 . S
Zn485 O491 2.114 . S
Zn485 O494 2.120 . S
Zn485 O496 2.120 . S
Zn485 O497 2.114 . S
Zn485 O500 2.080 . S
C486 O491 1.166 . S
C486 O492 1.182 . S
C487 O493 1.167 . S
C487 O494 1.299 . S
O488 Zn485 2.080 . S
O488 C502 1.305 . S
O489 Zn483 1.920 . S
O489 C502 1.234 . S
C490 O495 1.167 . S
C490 O496 1.299 . S
O491 Zn485 2.114 . S
O491 C486 1.166 . S
O492 Zn484 1.905 . S
O492 C486 1.182 . S
O493 Zn484 1.898 . S
O493 C487 1.167 . S
O494 Zn485 2.120 . S
O494 C487 1.299 . S
O495 Zn483 1.898 . S
O495 C490 1.167 . S
O496 Zn485 2.120 . S
O496 C490 1.299 . S
O497 Zn485 2.114 . S
O497 C499 1.166 . S
O498 Zn483 1.905 . S
O498 C499 1.182 . S
C499 O497 1.166 . S
C499 O498 1.182 . S
O500 Zn485 2.080 . S
O500 C503 1.305 . S
O501 Zn484 1.920 . S
O501 C503 1.234 . S
C502 O488 1.305 . S
C502 O489 1.234 . S
C503 O500 1.305 . S
C503 O501 1.234 . S
C504 C505 1.387 . S
C504 H508 0.950 . S
C504 C513 1.390 . S
C505 C504 1.387 . S
C505 C507 1.387 . S
H506 C513 0.950 . S
C507 C505 1.387 . S
C507 C509 1.390 . S
C507 H511 0.950 . S
H508 C504 0.950 . S
C509 C507 1.390 . S
C509 C510 1.387 . S
C509 H512 0.950 . S
C510 C509 1.387 . S
C510 C513 1.387 . S
H511 C507 0.950 . S
H512 C509 0.950 . S
C513 C504 1.390 . S
C513 H506 0.950 . S
C513 C510 1.387 . S
C514 C515 1.387 . S
C514 H518 0.950 . S
C514 C523 1.390 . S
C515 C514 1.387 . S
C515 C517 1.387 . S
H516 C523 0.950 . S
C517 C515 1.387 . S
C517 C519 1.390 . S
C517 H521 0.950 . S
H518 C514 0.950 . S
C519 C517 1.390 . S
C519 C520 1.387 . S
C519 H522 0.950 . S
C520 C519 1.387 . S
C520 C523 1.387 . S
H521 C517 0.950 . S
H522 C519 0.950 . S
C523 C514 1.390 . S
C523 H516 0.950 . S
C523 C520 1.387 . S
C524 C525 1.387 . S
C524 H528 0.950 . S
C524 C533 1.390 . S
C525 C524 1.387 . S
C525 C527 1.387 . S
H526 C533 0.950 . S
C527 C525 1.387 . S
C527 C529 1.390 . S
C527 H531 0.950 . S
H528 C524 0.950 . S
C529 C527 1.390 . S
C529 C530 1.387 . S
C529 H532 0.950 . S
C530 C529 1.387 . S
C530 C533 1.387 . S
H531 C527 0.950 . S
H532 C529 0.950 . S
C533 C524 1.390 . S
C533 H526 0.950 . S
C533 C530 1.387 . S
C534 C535 1.387 . S
C534 H538 0.950 . S
C534 C543 1.390 . S
C535 C534 1.387 . S
C535 C537 1.387 . S
H536 C543 0.950 . S
C537 C535 1.387 . S
C537 C539 1.390 . S
C537 H541 0.950 . S
H538 C534 0.950 . S
C539 C537 1.390 . S
C539 C540 1.387 . S
C539 H542 0.950 . S
C540 C539 1.387 . S
C540 C543 1.387 . S
H541 C537 0.950 . S
H542 C539 0.950 . S
C543 C534 1.390 . S
C543 H536 0.950 . S
C543 C540 1.387 . S
C544 C545 1.387 . S
C544 H548 0.950 . S
C544 C553 1.390 . S
C545 C544 1.387 . S
C545 C547 1.387 . S
H546 C553 0.950 . S
C547 C545 1.387 . S
C547 C549 1.390 . S
C547 H551 0.950 . S
H548 C544 0.950 . S
C549 C547 1.390 . S
C549 C550 1.387 . S
C549 H552 0.950 . S
C550 C549 1.387 . S
C550 C553 1.387 . S
H551 C547 0.950 . S
H552 C549 0.950 . S
C553 C544 1.390 . S
C553 H546 0.950 . S
C553 C550 1.387 . S
C554 C555 1.387 . S
C554 H558 0.950 . S
C554 C563 1.390 . S
C555 C554 1.387 . S
C555 C557 1.387 . S
H556 C563 0.950 . S
C557 C555 1.387 . S
C557 C559 1.390 . S
C557 H561 0.950 . S
H558 C554 0.950 . S
C559 C557 1.390 . S
C559 C560 1.387 . S
C559 H562 0.950 . S
C560 C559 1.387 . S
C560 C563 1.387 . S
H561 C557 0.950 . S
H562 C559 0.950 . S
C563 C554 1.390 . S
C563 H556 0.950 . S
C563 C560 1.387 . S
C564 C565 1.387 . S
C564 H568 0.950 . S
C564 C573 1.390 . S
C565 C564 1.387 . S
C565 C567 1.387 . S
H566 C573 0.950 . S
C567 C565 1.387 . S
C567 C569 1.390 . S
C567 H571 0.950 . S
H568 C564 0.950 . S
C569 C567 1.390 . S
C569 C570 1.387 . S
C569 H572 0.950 . S
C570 C569 1.387 . S
C570 C573 1.387 . S
H571 C567 0.950 . S
H572 C569 0.950 . S
C573 C564 1.390 . S
C573 H566 0.950 . S
C573 C570 1.387 . S
C574 C575 1.387 . S
C574 H578 0.950 . S
C574 C583 1.390 . S
C575 C574 1.387 . S
C575 C577 1.387 . S
H576 C583 0.950 . S
C577 C575 1.387 . S
C577 C579 1.390 . S
C577 H581 0.950 . S
H578 C574 0.950 . S
C579 C577 1.390 . S
C579 C580 1.387 . S
C579 H582 0.950 . S
C580 C579 1.387 . S
C580 C583 1.387 . S
H581 C577 0.950 . S
H582 C579 0.950 . S
C583 C574 1.390 . S
C583 H576 0.950 . S
C583 C580 1.387 . S
C584 C585 1.387 . S
C584 H588 0.950 . S
C584 C593 1.390 . S
C585 C584 1.387 . S
C585 C587 1.387 . S
H586 C593 0.950 . S
C587 C585 1.387 . S
C587 C589 1.390 . S
C587 H591 0.950 . S
H588 C584 0.950 . S
C589 C587 1.390 . S
C589 C590 1.387 . S
C589 H592 0.950 . S
C590 C589 1.387 . S
C590 C593 1.387 . S
H591 C587 0.950 . S
H592 C589 0.950 . S
C593 C584 1.390 . S
C593 H586 0.950 . S
C593 C590 1.387 . S
C594 C595 1.387 . S
C594 H598 0.950 . S
C594 C603 1.390 . S
C595 C594 1.387 . S
C595 C597 1.387 . S
H596 C603 0.950 . S
C597 C595 1.387 . S
C597 C599 1.390 . S
C597 H601 0.950 . S
H598 C594 0.950 . S
C599 C597 1.390 . S
C599 C600 1.387 . S
C599 H602 0.950 . S
C600 C599 1.387 . S
C600 C603 1.387 . S
H601 C597 0.950 . S
H602 C599 0.950 . S
C603 C594 1.390 . S
C603 H596 0.950 . S
C603 C600 1.387 . S
C604 C605 1.387 . S
C604 H608 0.950 . S
C604 C613 1.390 . S
C605 C604 1.387 . S
C605 C607 1.387 . S
H606 C613 0.950 . S
C607 C605 1.387 . S
C607 C609 1.390 . S
C607 H611 0.950 . S
H608 C604 0.950 . S
C609 C607 1.390 . S
C609 C610 1.387 . S
C609 H612 0.950 . S
C610 C609 1.387 . S
C610 C613 1.387 . S
H611 C607 0.950 . S
H612 C609 0.950 . S
C613 C604 1.390 . S
C613 H606 0.950 . S
C613 C610 1.387 . S
C614 C615 1.387 . S
C614 H618 0.950 . S
C614 C623 1.390 . S
C615 C614 1.387 . S
C615 C617 1.387 . S
H616 C623 0.950 . S
C617 C615 1.387 . S
C617 C619 1.390 . S
C617 H621 0.950 . S
H618 C614 0.950 . S
C619 C617 1.390 . S
C619 C620 1.387 . S
C619 H622 0.950 . S
C620 C619 1.387 . S
C620 C623 1.387 . S
H621 C617 0.950 . S
H622 C619 0.950 . S
C623 C614 1.390 . S
C623 H616 0.950 . S
C623 C620 1.387 . S
C624 C625 1.387 . S
C624 H628 0.950 . S
C624 C633 1.390 1_545 S
C625 C624 1.387 . S
C625 C627 1.387 . S
H626 C633 0.950 . S
C627 C625 1.387 . S
C627 C629 1.390 1_545 S
C627 H631 0.950 . S
H628 C624 0.950 . S
C629 C627 1.390 1_565 S
C629 C630 1.387 . S
C629 H632 0.950 . S
C630 C629 1.387 . S
C630 C633 1.387 . S
H631 C627 0.950 . S
H632 C629 0.950 . S
C633 C624 1.390 1_565 S
C633 H626 0.950 . S
C633 C630 1.387 . S
C634 C635 1.387 . S
C634 H638 0.950 . S
C634 C643 1.390 . S
C635 C634 1.387 . S
C635 C637 1.387 . S
H636 C643 0.950 . S
C637 C635 1.387 . S
C637 C639 1.390 . S
C637 H641 0.950 . S
H638 C634 0.950 . S
C639 C637 1.390 . S
C639 C640 1.387 . S
C639 H642 0.950 . S
C640 C639 1.387 . S
C640 C643 1.387 . S
H641 C637 0.950 . S
H642 C639 0.950 . S
C643 C634 1.390 . S
C643 H636 0.950 . S
C643 C640 1.387 . S
C644 C645 1.387 . S
C644 H648 0.950 . S
C644 C653 1.390 1_655 S
C645 C644 1.387 . S
C645 C647 1.387 . S
H646 C653 0.950 . S
C647 C645 1.387 . S
C647 C649 1.390 1_655 S
C647 H651 0.950 . S
H648 C644 0.950 . S
C649 C647 1.390 1_455 S
C649 C650 1.387 . S
C649 H652 0.950 . S
C650 C649 1.387 . S
C650 C653 1.387 . S
H651 C647 0.950 . S
H652 C649 0.950 . S
C653 C644 1.390 1_455 S
C653 H646 0.950 . S
C653 C650 1.387 . S
C654 C655 1.387 . S
C654 H658 0.950 . S
C654 C663 1.390 1_655 S
C655 C654 1.387 . S
C655 C657 1.387 . S
H656 C663 0.950 . S
C657 C655 1.387 . S
C657 C659 1.390 1_655 S
C657 H661 0.950 . S
H658 C654 0.950 . S
C659 C657 1.390 1_455 S
C659 C660 1.387 . S
C659 H662 0.950 . S
C660 C659 1.387 . S
C660 C663 1.387 . S
H661 C657 0.950 . S
H662 C659 0.950 . S
C663 C654 1.390 1_455 S
C663 H656 0.950 . S
C663 C660 1.387 . S
C664 C665 1.387 . S
C664 H668 0.950 . S
C664 C673 1.390 1_565 S
C665 C664 1.387 . S
C665 C667 1.387 . S
H666 C673 0.950 . S
C667 C665 1.387 . S
C667 C669 1.390 1_565 S
C667 H671 0.950 . S
H668 C664 0.950 . S
C669 C667 1.390 1_545 S
C669 C670 1.387 . S
C669 H672 0.950 . S
C670 C669 1.387 . S
C670 C673 1.387 . S
H671 C667 0.950 . S
H672 C669 0.950 . S
C673 C664 1.390 1_545 S
C673 H666 0.950 . S
C673 C670 1.387 . S
C674 C675 1.387 . S
C674 H678 0.950 . S
C674 C683 1.390 . S
C675 C674 1.387 . S
C675 C677 1.387 . S
H676 C683 0.950 . S
C677 C675 1.387 . S
C677 C679 1.390 . S
C677 H681 0.950 . S
H678 C674 0.950 . S
C679 C677 1.390 . S
C679 C680 1.387 . S
C679 H682 0.950 . S
C680 C679 1.387 . S
C680 C683 1.387 . S
H681 C677 0.950 . S
H682 C679 0.950 . S
C683 C674 1.390 . S
C683 H676 0.950 . S
C683 C680 1.387 . S
C684 C685 1.387 . S
C684 H688 0.950 . S
C684 C693 1.390 1_545 S
C685 C684 1.387 . S
C685 C687 1.387 . S
H686 C693 0.950 . S
C687 C685 1.387 . S
C687 C689 1.390 1_545 S
C687 H691 0.950 . S
H688 C684 0.950 . S
C689 C687 1.390 1_565 S
C689 C690 1.387 . S
C689 H692 0.950 . S
C690 C689 1.387 . S
C690 C693 1.387 . S
H691 C687 0.950 . S
H692 C689 0.950 . S
C693 C684 1.390 1_565 S
C693 H686 0.950 . S
C693 C690 1.387 . S
C694 C695 1.387 . S
C694 H698 0.950 . S
C694 C703 1.390 . S
C695 C694 1.387 . S
C695 C697 1.387 . S
H696 C703 0.950 . S
C697 C695 1.387 . S
C697 C699 1.390 . S
C697 H701 0.950 . S
H698 C694 0.950 . S
C699 C697 1.390 . S
C699 C700 1.387 . S
C699 H702 0.950 . S
C700 C699 1.387 . S
C700 C703 1.387 . S
H701 C697 0.950 . S
H702 C699 0.950 . S
C703 C694 1.390 . S
C703 H696 0.950 . S
C703 C700 1.387 . S
C704 C705 1.387 . S
C704 H708 0.950 . S
C704 C713 1.390 1_655 S
C705 C704 1.387 . S
C705 C707 1.387 . S
H706 C713 0.950 . S
C707 C705 1.387 . S
C707 C709 1.390 1_655 S
C707 H711 0.950 . S
H708 C704 0.950 . S
C709 C707 1.390 1_455 S
C709 C710 1.387 . S
C709 H712 0.950 . S
C710 C709 1.387 . S
C710 C713 1.387 . S
H711 C707 0.950 . S
H712 C709 0.950 . S
C713 C704 1.390 1_455 S
C713 H706 0.950 . S
C713 C710 1.387 . S
C714 C715 1.387 . S
C714 H718 0.950 . S
C714 C723 1.390 1_455 S
C715 C714 1.387 . S
C715 C717 1.387 . S
H716 C723 0.950 . S
C717 C715 1.387 . S
C717 C719 1.390 1_455 S
C717 H721 0.950 . S
H718 C714 0.950 . S
C719 C717 1.390 1_655 S
C719 C720 1.387 . S
C719 H722 0.950 . S
C720 C719 1.387 . S
C720 C723 1.387 . S
H721 C717 0.950 . S
H722 C719 0.950 . S
C723 C714 1.390 1_655 S
C723 H716 0.950 . S
C723 C720 1.387 . S
C724 C725 1.387 . S
C724 H728 0.950 . S
C724 C733 1.390 1_545 S
C725 C724 1.387 . S
C725 C727 1.387 . S
H726 C733 0.950 . S
C727 C725 1.387 . S
C727 C729 1.390 1_545 S
C727 H731 0.950 . S
H728 C724 0.950 . S
C729 C727 1.390 1_565 S
C729 C730 1.387 . S
C729 H732 0.950 . S
C730 C729 1.387 . S
C730 C733 1.387 . S
H731 C727 0.950 . S
H732 C729 0.950 . S
C733 C724 1.390 1_565 S
C733 H726 0.950 . S
C733 C730 1.387 . S
C734 C735 1.387 . S
C734 H738 0.950 . S
C734 C743 1.390 . S
C735 C734 1.387 . S
C735 C737 1.387 . S
H736 C743 0.950 . S
C737 C735 1.387 . S
C737 C739 1.390 . S
C737 H741 0.950 . S
H738 C734 0.950 . S
C739 C737 1.390 . S
C739 C740 1.387 . S
C739 H742 0.950 . S
C740 C739 1.387 . S
C740 C743 1.387 . S
H741 C737 0.950 . S
H742 C739 0.950 . S
C743 C734 1.390 . S
C743 H736 0.950 . S
C743 C740 1.387 . S
C744 C745 1.387 . S
C744 H748 0.950 . S
C744 C753 1.390 . S
C745 C744 1.387 . S
C745 C747 1.387 . S
H746 C753 0.950 . S
C747 C745 1.387 . S
C747 C749 1.390 . S
C747 H751 0.950 . S
H748 C744 0.950 . S
C749 C747 1.390 . S
C749 C750 1.387 . S
C749 H752 0.950 . S
C750 C749 1.387 . S
C750 C753 1.387 . S
H751 C747 0.950 . S
H752 C749 0.950 . S
C753 C744 1.390 . S
C753 H746 0.950 . S
C753 C750 1.387 . S
C754 C755 1.387 . S
C754 H758 0.950 . S
C754 C763 1.390 . S
C755 C754 1.387 . S
C755 C757 1.387 . S
H756 C763 0.950 . S
C757 C755 1.387 . S
C757 C759 1.390 . S
C757 H761 0.950 . S
H758 C754 0.950 . S
C759 C757 1.390 . S
C759 C760 1.387 . S
C759 H762 0.950 . S
C760 C759 1.387 . S
C760 C763 1.387 . S
H761 C757 0.950 . S
H762 C759 0.950 . S
C763 C754 1.390 . S
C763 H756 0.950 . S
C763 C760 1.387 . S
C764 C765 1.387 . S
C764 H768 0.950 . S
C764 C773 1.390 . S
C765 C764 1.387 . S
C765 C767 1.387 . S
H766 C773 0.950 . S
C767 C765 1.387 . S
C767 C769 1.390 . S
C767 H771 0.950 . S
H768 C764 0.950 . S
C769 C767 1.390 . S
C769 C770 1.387 . S
C769 H772 0.950 . S
C770 C769 1.387 . S
C770 C773 1.387 . S
H771 C767 0.950 . S
H772 C769 0.950 . S
C773 C764 1.390 . S
C773 H766 0.950 . S
C773 C770 1.387 . S
C774 C775 1.387 . S
C774 H778 0.950 . S
C774 C783 1.390 . S
C775 C774 1.387 . S
C775 C777 1.387 . S
H776 C783 0.950 . S
C777 C775 1.387 . S
C777 C779 1.390 . S
C777 H781 0.950 . S
H778 C774 0.950 . S
C779 C777 1.390 . S
C779 C780 1.387 . S
C779 H782 0.950 . S
C780 C779 1.387 . S
C780 C783 1.387 . S
H781 C777 0.950 . S
H782 C779 0.950 . S
C783 C774 1.390 . S
C783 H776 0.950 . S
C783 C780 1.387 . S
C784 C785 1.387 . S
C784 H788 0.950 . S
C784 C793 1.390 . S
C785 C784 1.387 . S
C785 C787 1.387 . S
H786 C793 0.950 . S
C787 C785 1.387 . S
C787 C789 1.390 . S
C787 H791 0.950 . S
H788 C784 0.950 . S
C789 C787 1.390 . S
C789 C790 1.387 . S
C789 H792 0.950 . S
C790 C789 1.387 . S
C790 C793 1.387 . S
H791 C787 0.950 . S
H792 C789 0.950 . S
C793 C784 1.390 . S
C793 H786 0.950 . S
C793 C790 1.387 . S
C794 C795 1.387 . S
C794 H798 0.950 . S
C794 C803 1.390 . S
C795 C794 1.387 . S
C795 C797 1.387 . S
H796 C803 0.950 . S
C797 C795 1.387 . S
C797 C799 1.390 . S
C797 H801 0.950 . S
H798 C794 0.950 . S
C799 C797 1.390 . S
C799 C800 1.387 . S
C799 H802 0.950 . S
C800 C799 1.387 . S
C800 C803 1.387 . S
H801 C797 0.950 . S
H802 C799 0.950 . S
C803 C794 1.390 . S
C803 H796 0.950 . S
C803 C800 1.387 . S
C804 C805 1.387 . S
C804 H808 0.950 . S
C804 C813 1.390 . S
C805 C804 1.387 . S
C805 C807 1.387 . S
H806 C813 0.950 . S
C807 C805 1.387 . S
C807 C809 1.390 . S
C807 H811 0.950 . S
H808 C804 0.950 . S
C809 C807 1.390 . S
C809 C810 1.387 . S
C809 H812 0.950 . S
C810 C809 1.387 . S
C810 C813 1.387 . S
H811 C807 0.950 . S
H812 C809 0.950 . S
C813 C804 1.390 . S
C813 H806 0.950 . S
C813 C810 1.387 . S
C814 C815 1.387 . S
C814 H818 0.950 . S
C814 C823 1.390 . S
C815 C814 1.387 . S
C815 C817 1.387 . S
H816 C823 0.950 . S
C817 C815 1.387 . S
C817 C819 1.390 . S
C817 H821 0.950 . S
H818 C814 0.950 . S
C819 C817 1.390 . S
C819 C820 1.387 . S
C819 H822 0.950 . S
C820 C819 1.387 . S
C820 C823 1.387 . S
H821 C817 0.950 . S
H822 C819 0.950 . S
C823 C814 1.390 . S
C823 H816 0.950 . S
C823 C820 1.387 . S
C824 C825 1.387 . S
C824 H828 0.950 . S
C824 C833 1.390 . S
C825 C824 1.387 . S
C825 C827 1.387 . S
H826 C833 0.950 . S
C827 C825 1.387 . S
C827 C829 1.390 . S
C827 H831 0.950 . S
H828 C824 0.950 . S
C829 C827 1.390 . S
C829 C830 1.387 . S
C829 H832 0.950 . S
C830 C829 1.387 . S
C830 C833 1.387 . S
H831 C827 0.950 . S
H832 C829 0.950 . S
C833 C824 1.390 . S
C833 H826 0.950 . S
C833 C830 1.387 . S
C834 C835 1.387 . S
C834 H838 0.950 . S
C834 C843 1.390 . S
C835 C834 1.387 . S
C835 C837 1.387 . S
H836 C843 0.950 . S
C837 C835 1.387 . S
C837 C839 1.390 . S
C837 H841 0.950 . S
H838 C834 0.950 . S
C839 C837 1.390 . S
C839 C840 1.387 . S
C839 H842 0.950 . S
C840 C839 1.387 . S
C840 C843 1.387 . S
H841 C837 0.950 . S
H842 C839 0.950 . S
C843 C834 1.390 . S
C843 H836 0.950 . S
C843 C840 1.387 . S
C844 C845 1.387 . S
C844 H848 0.950 . S
C844 C853 1.390 . S
C845 C844 1.387 . S
C845 C847 1.387 . S
H846 C853 0.950 . S
C847 C845 1.387 . S
C847 C849 1.390 . S
C847 H851 0.950 . S
H848 C844 0.950 . S
C849 C847 1.390 . S
C849 C850 1.387 . S
C849 H852 0.950 . S
C850 C849 1.387 . S
C850 C853 1.387 . S
H851 C847 0.950 . S
H852 C849 0.950 . S
C853 C844 1.390 . S
C853 H846 0.950 . S
C853 C850 1.387 . S
C854 C855 1.387 . S
C854 H858 0.950 . S
C854 C863 1.390 . S
C855 C854 1.387 . S
C855 C857 1.387 . S
H856 C863 0.950 . S
C857 C855 1.387 . S
C857 C859 1.390 . S
C857 H861 0.950 . S
H858 C854 0.950 . S
C859 C857 1.390 . S
C859 C860 1.387 . S
C859 H862 0.950 . S
C860 C859 1.387 . S
C860 C863 1.387 . S
H861 C857 0.950 . S
H862 C859 0.950 . S
C863 C854 1.390 . S
C863 H856 0.950 . S
C863 C860 1.387 . S
C864 C865 1.387 . S
C864 H868 0.950 . S
C864 C873 1.390 . S
C865 C864 1.387 . S
C865 C867 1.387 . S
H866 C873 0.950 . S
C867 C865 1.387 . S
C867 C869 1.390 . S
C867 H871 0.950 . S
H868 C864 0.950 . S
C869 C867 1.390 . S
C869 C870 1.387 . S
C869 H872 0.950 . S
C870 C869 1.387 . S
C870 C873 1.387 . S
H871 C867 0.950 . S
H872 C869 0.950 . S
C873 C864 1.390 . S
C873 H866 0.950 . S
C873 C870 1.387 . S
C874 C875 1.387 . S
C874 H878 0.950 . S
C874 C883 1.390 . S
C875 C874 1.387 . S
C875 C877 1.387 . S
H876 C883 0.950 . S
C877 C875 1.387 . S
C877 C879 1.390 . S
C877 H881 0.950 . S
H878 C874 0.950 . S
C879 C877 1.390 . S
C879 C880 1.387 . S
C879 H882 0.950 . S
C880 C879 1.387 . S
C880 C883 1.387 . S
H881 C877 0.950 . S
H882 C879 0.950 . S
C883 C874 1.390 . S
C883 H876 0.950 . S
C883 C880 1.387 . S
C884 C885 1.387 . S
C884 H888 0.950 . S
C884 C893 1.390 . S
C885 C884 1.387 . S
C885 C887 1.387 . S
H886 C893 0.950 . S
C887 C885 1.387 . S
C887 C889 1.390 . S
C887 H891 0.950 . S
H888 C884 0.950 . S
C889 C887 1.390 . S
C889 C890 1.387 . S
C889 H892 0.950 . S
C890 C889 1.387 . S
C890 C893 1.387 . S
H891 C887 0.950 . S
H892 C889 0.950 . S
C893 C884 1.390 . S
C893 H886 0.950 . S
C893 C890 1.387 . S
C894 C895 1.387 . S
C894 H898 0.950 . S
C894 C903 1.390 . S
C895 C894 1.387 . S
C895 C897 1.387 . S
H896 C903 0.950 . S
C897 C895 1.387 . S
C897 C899 1.390 . S
C897 H901 0.950 . S
H898 C894 0.950 . S
C899 C897 1.390 . S
C899 C900 1.387 . S
C899 H902 0.950 . S
C900 C899 1.387 . S
C900 C903 1.387 . S
H901 C897 0.950 . S
H902 C899 0.950 . S
C903 C894 1.390 . S
C903 H896 0.950 . S
C903 C900 1.387 . S
C904 C905 1.387 . S
C904 H908 0.950 . S
C904 C913 1.390 . S
C905 C904 1.387 . S
C905 C907 1.387 . S
H906 C913 0.950 . S
C907 C905 1.387 . S
C907 C909 1.390 . S
C907 H911 0.950 . S
H908 C904 0.950 . S
C909 C907 1.390 . S
C909 C910 1.387 . S
C909 H912 0.950 . S
C910 C909 1.387 . S
C910 C913 1.387 . S
H911 C907 0.950 . S
H912 C909 0.950 . S
C913 C904 1.390 . S
C913 H906 0.950 . S
C913 C910 1.387 . S
C914 C915 1.387 . S
C914 H918 0.950 . S
C914 C923 1.390 . S
C915 C914 1.387 . S
C915 C917 1.387 . S
H916 C923 0.950 . S
C917 C915 1.387 . S
C917 C919 1.390 . S
C917 H921 0.950 . S
H918 C914 0.950 . S
C919 C917 1.390 . S
C919 C920 1.387 . S
C919 H922 0.950 . S
C920 C919 1.387 . S
C920 C923 1.387 . S
H921 C917 0.950 . S
H922 C919 0.950 . S
C923 C914 1.390 . S
C923 H916 0.950 . S
C923 C920 1.387 . S
C924 C925 1.387 . S
C924 H928 0.950 . S
C924 C933 1.390 . S
C925 C924 1.387 . S
C925 C927 1.387 . S
H926 C933 0.950 . S
C927 C925 1.387 . S
C927 C929 1.390 . S
C927 H931 0.950 . S
H928 C924 0.950 . S
C929 C927 1.390 . S
C929 C930 1.387 . S
C929 H932 0.950 . S
C930 C929 1.387 . S
C930 C933 1.387 . S
H931 C927 0.950 . S
H932 C929 0.950 . S
C933 C924 1.390 . S
C933 H926 0.950 . S
C933 C930 1.387 . S
C934 C935 1.387 . S
C934 H938 0.950 . S
C934 C943 1.390 . S
C935 C934 1.387 . S
C935 C937 1.387 . S
H936 C943 0.950 . S
C937 C935 1.387 . S
C937 C939 1.390 . S
C937 H941 0.950 . S
H938 C934 0.950 . S
C939 C937 1.390 . S
C939 C940 1.387 . S
C939 H942 0.950 . S
C940 C939 1.387 . S
C940 C943 1.387 . S
H941 C937 0.950 . S
H942 C939 0.950 . S
C943 C934 1.390 . S
C943 H936 0.950 . S
C943 C940 1.387 . S
C944 C945 1.387 . S
C944 H948 0.950 . S
C944 C953 1.390 . S
C945 C944 1.387 . S
C945 C947 1.387 . S
H946 C953 0.950 . S
C947 C945 1.387 . S
C947 C949 1.390 . S
C947 H951 0.950 . S
H948 C944 0.950 . S
C949 C947 1.390 . S
C949 C950 1.387 . S
C949 H952 0.950 . S
C950 C949 1.387 . S
C950 C953 1.387 . S
H951 C947 0.950 . S
H952 C949 0.950 . S
C953 C944 1.390 . S
C953 H946 0.950 . S
C953 C950 1.387 . S
C954 C955 1.387 . S
C954 H958 0.950 . S
C954 C963 1.390 . S
C955 C954 1.387 . S
C955 C957 1.387 . S
H956 C963 0.950 . S
C957 C955 1.387 . S
C957 C959 1.390 . S
C957 H961 0.950 . S
H958 C954 0.950 . S
C959 C957 1.390 . S
C959 C960 1.387 . S
C959 H962 0.950 . S
C960 C959 1.387 . S
C960 C963 1.387 . S
H961 C957 0.950 . S
H962 C959 0.950 . S
C963 C954 1.390 . S
C963 H956 0.950 . S
C963 C960 1.387 . S
C964 C965 1.387 . S
C964 H968 0.950 . S
C964 C973 1.390 . S
C965 C964 1.387 . S
C965 C967 1.387 . S
H966 C973 0.950 . S
C967 C965 1.387 . S
C967 C969 1.390 . S
C967 H971 0.950 . S
H968 C964 0.950 . S
C969 C967 1.390 . S
C969 C970 1.387 . S
C969 H972 0.950 . S
C970 C969 1.387 . S
C970 C973 1.387 . S
H971 C967 0.950 . S
H972 C969 0.950 . S
C973 C964 1.390 . S
C973 H966 0.950 . S
C973 C970 1.387 . S
C974 C975 1.387 . S
C974 H978 0.950 . S
C974 C983 1.390 . S
C975 C974 1.387 . S
C975 C977 1.387 . S
H976 C983 0.950 . S
C977 C975 1.387 . S
C977 C979 1.390 . S
C977 H981 0.950 . S
H978 C974 0.950 . S
C979 C977 1.390 . S
C979 C980 1.387 . S
C979 H982 0.950 . S
C980 C979 1.387 . S
C980 C983 1.387 . S
H981 C977 0.950 . S
H982 C979 0.950 . S
C983 C974 1.390 . S
C983 H976 0.950 . S
C983 C980 1.387 . S
C984 C985 1.387 . S
C984 H988 0.950 . S
C984 C993 1.390 . S
C985 C984 1.387 . S
C985 C987 1.387 . S
H986 C993 0.950 . S
C987 C985 1.387 . S
C987 C989 1.390 . S
C987 H991 0.950 . S
H988 C984 0.950 . S
C989 C987 1.390 . S
C989 C990 1.387 . S
C989 H992 0.950 . S
C990 C989 1.387 . S
C990 C993 1.387 . S
H991 C987 0.950 . S
H992 C989 0.950 . S
C993 C984 1.390 . S
C993 H986 0.950 . S
C993 C990 1.387 . S
C994 C995 1.387 . S
C994 H998 0.950 . S
C994 C1003 1.390 . S
C995 C994 1.387 . S
C995 C997 1.387 . S
H996 C1003 0.950 . S
C997 C995 1.387 . S
C997 C999 1.390 . S
C997 H1001 0.950 . S
H998 C994 0.950 . S
C999 C997 1.390 . S
C999 C1000 1.387 . S
C999 H1002 0.950 . S
C1000 C999 1.387 . S
C1000 C1003 1.387 . S
H1001 C997 0.950 . S
H1002 C999 0.950 . S
C1003 C994 1.390 . S
C1003 H996 0.950 . S
C1003 C1000 1.387 . S
C1004 C1005 1.387 . S
C1004 H1008 0.950 . S
C1004 C1013 1.390 . S
C1005 C1004 1.387 . S
C1005 C1007 1.387 . S
H1006 C1013 0.950 . S
C1007 C1005 1.387 . S
C1007 C1009 1.390 . S
C1007 H1011 0.950 . S
H1008 C1004 0.950 . S
C1009 C1007 1.390 . S
C1009 C1010 1.387 . S
C1009 H1012 0.950 . S
C1010 C1009 1.387 . S
C1010 C1013 1.387 . S
H1011 C1007 0.950 . S
H1012 C1009 0.950 . S
C1013 C1004 1.390 . S
C1013 H1006 0.950 . S
C1013 C1010 1.387 . S
C1014 C1015 1.387 . S
C1014 H1018 0.950 . S
C1014 C1023 1.390 . S
C1015 C1014 1.387 . S
C1015 C1017 1.387 . S
H1016 C1023 0.950 . S
C1017 C1015 1.387 . S
C1017 C1019 1.390 . S
C1017 H1021 0.950 . S
H1018 C1014 0.950 . S
C1019 C1017 1.390 . S
C1019 C1020 1.387 . S
C1019 H1022 0.950 . S
C1020 C1019 1.387 . S
C1020 C1023 1.387 . S
H1021 C1017 0.950 . S
H1022 C1019 0.950 . S
C1023 C1014 1.390 . S
C1023 H1016 0.950 . S
C1023 C1020 1.387 . S
C1024 C1025 1.387 . S
C1024 H1028 0.950 . S
C1024 C1033 1.390 . S
C1025 C1024 1.387 . S
C1025 C1027 1.387 . S
H1026 C1033 0.950 . S
C1027 C1025 1.387 . S
C1027 C1029 1.390 . S
C1027 H1031 0.950 . S
H1028 C1024 0.950 . S
C1029 C1027 1.390 . S
C1029 C1030 1.387 . S
C1029 H1032 0.950 . S
C1030 C1029 1.387 . S
C1030 C1033 1.387 . S
H1031 C1027 0.950 . S
H1032 C1029 0.950 . S
C1033 C1024 1.390 . S
C1033 H1026 0.950 . S
C1033 C1030 1.387 . S
C1034 C1035 1.387 . S
C1034 H1038 0.950 . S
C1034 C1043 1.390 . S
C1035 C1034 1.387 . S
C1035 C1037 1.387 . S
H1036 C1043 0.950 . S
C1037 C1035 1.387 . S
C1037 C1039 1.390 . S
C1037 H1041 0.950 . S
H1038 C1034 0.950 . S
C1039 C1037 1.390 . S
C1039 C1040 1.387 . S
C1039 H1042 0.950 . S
C1040 C1039 1.387 . S
C1040 C1043 1.387 . S
H1041 C1037 0.950 . S
H1042 C1039 0.950 . S
C1043 C1034 1.390 . S
C1043 H1036 0.950 . S
C1043 C1040 1.387 . S
C1044 C1045 1.387 . S
C1044 H1048 0.950 . S
C1044 C1053 1.390 . S
C1045 C1044 1.387 . S
C1045 C1047 1.387 . S
H1046 C1053 0.950 . S
C1047 C1045 1.387 . S
C1047 C1049 1.390 . S
C1047 H1051 0.950 . S
H1048 C1044 0.950 . S
C1049 C1047 1.390 . S
C1049 C1050 1.387 . S
C1049 H1052 0.950 . S
C1050 C1049 1.387 . S
C1050 C1053 1.387 . S
H1051 C1047 0.950 . S
H1052 C1049 0.950 . S
C1053 C1044 1.390 . S
C1053 H1046 0.950 . S
C1053 C1050 1.387 . S
C1054 C1055 1.387 . S
C1054 H1058 0.950 . S
C1054 C1063 1.390 . S
C1055 C1054 1.387 . S
C1055 C1057 1.387 . S
H1056 C1063 0.950 . S
C1057 C1055 1.387 . S
C1057 C1059 1.390 . S
C1057 H1061 0.950 . S
H1058 C1054 0.950 . S
C1059 C1057 1.390 . S
C1059 C1060 1.387 . S
C1059 H1062 0.950 . S
C1060 C1059 1.387 . S
C1060 C1063 1.387 . S
H1061 C1057 0.950 . S
H1062 C1059 0.950 . S
C1063 C1054 1.390 . S
C1063 H1056 0.950 . S
C1063 C1060 1.387 . S
C1064 C1065 1.387 . S
C1064 H1068 0.950 . S
C1064 C1073 1.390 . S
C1065 C1064 1.387 . S
C1065 C1067 1.387 . S
H1066 C1073 0.950 . S
C1067 C1065 1.387 . S
C1067 C1069 1.390 . S
C1067 H1071 0.950 . S
H1068 C1064 0.950 . S
C1069 C1067 1.390 . S
C1069 C1070 1.387 . S
C1069 H1072 0.950 . S
C1070 C1069 1.387 . S
C1070 C1073 1.387 . S
H1071 C1067 0.950 . S
H1072 C1069 0.950 . S
C1073 C1064 1.390 . S
C1073 H1066 0.950 . S
C1073 C1070 1.387 . S
C1074 C1075 1.387 . S
C1074 H1078 0.950 . S
C1074 C1083 1.390 . S
C1075 C1074 1.387 . S
C1075 C1077 1.387 . S
H1076 C1083 0.950 . S
C1077 C1075 1.387 . S
C1077 C1079 1.390 . S
C1077 H1081 0.950 . S
H1078 C1074 0.950 . S
C1079 C1077 1.390 . S
C1079 C1080 1.387 . S
C1079 H1082 0.950 . S
C1080 C1079 1.387 . S
C1080 C1083 1.387 . S
H1081 C1077 0.950 . S
H1082 C1079 0.950 . S
C1083 C1074 1.390 . S
C1083 H1076 0.950 . S
C1083 C1080 1.387 . S
C1084 C1085 1.387 . S
C1084 H1088 0.950 . S
C1084 C1093 1.390 . S
C1085 C1084 1.387 . S
C1085 C1087 1.387 . S
H1086 C1093 0.950 . S
C1087 C1085 1.387 . S
C1087 C1089 1.390 . S
C1087 H1091 0.950 . S
H1088 C1084 0.950 . S
C1089 C1087 1.390 . S
C1089 C1090 1.387 . S
C1089 H1092 0.950 . S
C1090 C1089 1.387 . S
C1090 C1093 1.387 . S
H1091 C1087 0.950 . S
H1092 C1089 0.950 . S
C1093 C1084 1.390 . S
C1093 H1086 0.950 . S
C1093 C1090 1.387 . S
C1094 C1095 1.387 . S
C1094 H1098 0.950 . S
C1094 C1103 1.390 . S
C1095 C1094 1.387 . S
C1095 C1097 1.387 . S
H1096 C1103 0.950 . S
C1097 C1095 1.387 . S
C1097 C1099 1.390 . S
C1097 H1101 0.950 . S
H1098 C1094 0.950 . S
C1099 C1097 1.390 . S
C1099 C1100 1.387 . S
C1099 H1102 0.950 . S
C1100 C1099 1.387 . S
C1100 C1103 1.387 . S
H1101 C1097 0.950 . S
H1102 C1099 0.950 . S
C1103 C1094 1.390 . S
C1103 H1096 0.950 . S
C1103 C1100 1.387 . S
C1104 C1105 1.387 . S
C1104 H1108 0.950 . S
C1104 C1113 1.390 1_556 S
C1105 C1104 1.387 . S
C1105 C1107 1.387 . S
H1106 C1113 0.950 . S
C1107 C1105 1.387 . S
C1107 C1109 1.390 1_556 S
C1107 H1111 0.950 . S
H1108 C1104 0.950 . S
C1109 C1107 1.390 1_554 S
C1109 C1110 1.387 . S
C1109 H1112 0.950 . S
C1110 C1109 1.387 . S
C1110 C1113 1.387 . S
H1111 C1107 0.950 . S
H1112 C1109 0.950 . S
C1113 C1104 1.390 1_554 S
C1113 H1106 0.950 . S
C1113 C1110 1.387 . S
C1114 C1115 1.387 . S
C1114 H1118 0.950 . S
C1114 C1123 1.390 1_556 S
C1115 C1114 1.387 . S
C1115 C1117 1.387 . S
H1116 C1123 0.950 . S
C1117 C1115 1.387 . S
C1117 C1119 1.390 1_556 S
C1117 H1121 0.950 . S
H1118 C1114 0.950 . S
C1119 C1117 1.390 1_554 S
C1119 C1120 1.387 . S
C1119 H1122 0.950 . S
C1120 C1119 1.387 . S
C1120 C1123 1.387 . S
H1121 C1117 0.950 . S
H1122 C1119 0.950 . S
C1123 C1114 1.390 1_554 S
C1123 H1116 0.950 . S
C1123 C1120 1.387 . S
C1124 C1125 1.387 . S
C1124 H1128 0.950 . S
C1124 C1133 1.390 1_554 S
C1125 C1124 1.387 . S
C1125 C1127 1.387 . S
H1126 C1133 0.950 . S
C1127 C1125 1.387 . S
C1127 C1129 1.390 1_554 S
C1127 H1131 0.950 . S
H1128 C1124 0.950 . S
C1129 C1127 1.390 1_556 S
C1129 C1130 1.387 . S
C1129 H1132 0.950 . S
C1130 C1129 1.387 . S
C1130 C1133 1.387 . S
H1131 C1127 0.950 . S
H1132 C1129 0.950 . S
C1133 C1124 1.390 1_556 S
C1133 H1126 0.950 . S
C1133 C1130 1.387 . S
C1134 C1135 1.387 . S
C1134 H1138 0.950 . S
C1134 C1143 1.390 1_556 S
C1135 C1134 1.387 . S
C1135 C1137 1.387 . S
H1136 C1143 0.950 . S
C1137 C1135 1.387 . S
C1137 C1139 1.390 1_556 S
C1137 H1141 0.950 . S
H1138 C1134 0.950 . S
C1139 C1137 1.390 1_554 S
C1139 C1140 1.387 . S
C1139 H1142 0.950 . S
C1140 C1139 1.387 . S
C1140 C1143 1.387 . S
H1141 C1137 0.950 . S
H1142 C1139 0.950 . S
C1143 C1134 1.390 1_554 S
C1143 H1136 0.950 . S
C1143 C1140 1.387 . S
C1144 C1145 1.387 . S
C1144 H1148 0.950 . S
C1144 C1153 1.390 1_556 S
C1145 C1144 1.387 . S
C1145 C1147 1.387 . S
H1146 C1153 0.950 . S
C1147 C1145 1.387 . S
C1147 C1149 1.390 1_556 S
C1147 H1151 0.950 . S
H1148 C1144 0.950 . S
C1149 C1147 1.390 1_554 S
C1149 C1150 1.387 . S
C1149 H1152 0.950 . S
C1150 C1149 1.387 . S
C1150 C1153 1.387 . S
H1151 C1147 0.950 . S
H1152 C1149 0.950 . S
C1153 C1144 1.390 1_554 S
C1153 H1146 0.950 . S
C1153 C1150 1.387 . S
C1154 C1155 1.387 . S
C1154 H1158 0.950 . S
C1154 C1163 1.390 1_554 S
C1155 C1154 1.387 . S
C1155 C1157 1.387 . S
H1156 C1163 0.950 . S
C1157 C1155 1.387 . S
C1157 C1159 1.390 1_554 S
C1157 H1161 0.950 . S
H1158 C1154 0.950 . S
C1159 C1157 1.390 1_556 S
C1159 C1160 1.387 . S
C1159 H1162 0.950 . S
C1160 C1159 1.387 . S
C1160 C1163 1.387 . S
H1161 C1157 0.950 . S
H1162 C1159 0.950 . S
C1163 C1154 1.390 1_556 S
C1163 H1156 0.950 . S
C1163 C1160 1.387 . S
C1164 C1165 1.387 . S
C1164 H1168 0.950 . S
C1164 C1173 1.390 . S
C1165 C1164 1.387 . S
C1165 C1167 1.387 . S
H1166 C1173 0.950 . S
C1167 C1165 1.387 . S
C1167 C1169 1.390 . S
C1167 H1171 0.950 . S
H1168 C1164 0.950 . S
C1169 C1167 1.390 . S
C1169 C1170 1.387 . S
C1169 H1172 0.950 . S
C1170 C1169 1.387 . S
C1170 C1173 1.387 . S
H1171 C1167 0.950 . S
H1172 C1169 0.950 . S
C1173 C1164 1.390 . S
C1173 H1166 0.950 . S
C1173 C1170 1.387 . S
C1174 C1175 1.387 . S
C1174 H1178 0.950 . S
C1174 C1183 1.390 . S
C1175 C1174 1.387 . S
C1175 C1177 1.387 . S
H1176 C1183 0.950 . S
C1177 C1175 1.387 . S
C1177 C1179 1.390 . S
C1177 H1181 0.950 . S
H1178 C1174 0.950 . S
C1179 C1177 1.390 . S
C1179 C1180 1.387 . S
C1179 H1182 0.950 . S
C1180 C1179 1.387 . S
C1180 C1183 1.387 . S
H1181 C1177 0.950 . S
H1182 C1179 0.950 . S
C1183 C1174 1.390 . S
C1183 H1176 0.950 . S
C1183 C1180 1.387 . S
C1184 C1185 1.387 . S
C1184 H1188 0.950 . S
C1184 C1193 1.390 . S
C1185 C1184 1.387 . S
C1185 C1187 1.387 . S
H1186 C1193 0.950 . S
C1187 C1185 1.387 . S
C1187 C1189 1.390 . S
C1187 H1191 0.950 . S
H1188 C1184 0.950 . S
C1189 C1187 1.390 . S
C1189 C1190 1.387 . S
C1189 H1192 0.950 . S
C1190 C1189 1.387 . S
C1190 C1193 1.387 . S
H1191 C1187 0.950 . S
H1192 C1189 0.950 . S
C1193 C1184 1.390 . S
C1193 H1186 0.950 . S
C1193 C1190 1.387 . S
C1194 C1195 1.387 . S
C1194 H1198 0.950 . S
C1194 C1203 1.390 . S
C1195 C1194 1.387 . S
C1195 C1197 1.387 . S
H1196 C1203 0.950 . S
C1197 C1195 1.387 . S
C1197 C1199 1.390 . S
C1197 H1201 0.950 . S
H1198 C1194 0.950 . S
C1199 C1197 1.390 . S
C1199 C1200 1.387 . S
C1199 H1202 0.950 . S
C1200 C1199 1.387 . S
C1200 C1203 1.387 . S
H1201 C1197 0.950 . S
H1202 C1199 0.950 . S
C1203 C1194 1.390 . S
C1203 H1196 0.950 . S
C1203 C1200 1.387 . S
C1204 C1205 1.387 . S
C1204 H1208 0.950 . S
C1204 C1213 1.390 . S
C1205 C1204 1.387 . S
C1205 C1207 1.387 . S
H1206 C1213 0.950 . S
C1207 C1205 1.387 . S
C1207 C1209 1.390 . S
C1207 H1211 0.950 . S
H1208 C1204 0.950 . S
C1209 C1207 1.390 . S
C1209 C1210 1.387 . S
C1209 H1212 0.950 . S
C1210 C1209 1.387 . S
C1210 C1213 1.387 . S
H1211 C1207 0.950 . S
H1212 C1209 0.950 . S
C1213 C1204 1.390 . S
C1213 H1206 0.950 . S
C1213 C1210 1.387 . S
C1214 C1215 1.387 . S
C1214 H1218 0.950 . S
C1214 C1223 1.390 . S
C1215 C1214 1.387 . S
C1215 C1217 1.387 . S
H1216 C1223 0.950 . S
C1217 C1215 1.387 . S
C1217 C1219 1.390 . S
C1217 H1221 0.950 . S
H1218 C1214 0.950 . S
C1219 C1217 1.390 . S
C1219 C1220 1.387 . S
C1219 H1222 0.950 . S
C1220 C1219 1.387 . S
C1220 C1223 1.387 . S
H1221 C1217 0.950 . S
H1222 C1219 0.950 . S
C1223 C1214 1.390 . S
C1223 H1216 0.950 . S
C1223 C1220 1.387 . S
C505 C172 1.881 . S
C510 C7 1.880 . S
C515 C28 1.881 . S
C520 C196 1.881 . S
C525 C46 1.878 . S
C530 C214 1.879 . S
C535 C70 1.878 . S
C540 C238 1.880 . S
C545 C88 1.877 . S
C550 C130 1.877 . S
C555 C154 1.878 . S
C560 C112 1.877 . S
C565 C424 1.723 . S
C570 C256 1.725 . S
C575 C448 1.720 . S
C580 C277 1.720 . S
C585 C466 1.722 . S
C590 C298 1.721 . S
C595 C322 1.724 . S
C600 C487 1.723 . S
C605 C382 1.721 . S
C610 C340 1.720 . S
C615 C406 1.721 . S
C620 C364 1.722 . S
C625 C20 1.474 . S
C630 C83 1.474 . S
C635 C103 1.469 . S
C640 C41 1.468 . S
C645 C61 1.474 . S
C650 C125 1.474 . S
C655 C145 1.474 . S
C660 C209 1.474 . S
C665 C167 1.468 . S
C670 C229 1.468 . S
C675 C187 1.468 . S
C680 C251 1.468 . S
C685 C334 2.218 . S
C690 C272 2.218 . S
C695 C293 2.216 . S
C700 C356 2.216 . S
C705 C376 2.216 . S
C710 C314 2.216 . S
C715 C398 2.216 . S
C720 C460 2.216 . S
C725 C418 2.218 . S
C730 C482 2.218 . S
C735 C503 2.216 . S
C740 C440 2.216 . S
C745 C3 0.928 . S
C750 C226 0.928 . S
C755 C234 0.932 . S
C760 C24 0.934 . S
C765 C58 0.930 . S
C770 C142 0.932 . S
C775 C66 0.937 . S
C780 C150 0.937 . S
C785 C184 0.934 . S
C790 C100 0.936 . S
C795 C192 0.936 . S
C800 C108 0.935 . S
C805 C255 0.787 . S
C810 C465 0.787 . S
C815 C276 0.787 . S
C820 C486 0.792 . S
C825 C297 0.788 . S
C830 C381 0.787 . S
C835 C331 0.792 . S
C840 C415 0.792 . S
C845 C423 0.786 . S
C850 C339 0.789 . S
C855 C457 0.786 . S
C860 C373 0.790 . S
C865 C16 0.897 . S
C870 C91 0.867 . S
C875 C109 0.873 . S
C880 C37 0.891 . S
C885 C45 0.891 . S
C890 C4 0.872 . S
C895 C25 0.868 . S
C900 C79 0.897 . S
C905 C49 0.873 . S
C910 C87 0.891 . S
C915 C67 0.872 . S
C920 C121 0.891 . S
C925 C129 0.891 . S
C930 C175 0.874 . S
C935 C193 0.871 . S
C940 C163 0.897 . S
C945 C171 0.893 . S
C950 C217 0.867 . S
C955 C205 0.891 . S
C960 C235 0.874 . S
C965 C133 0.866 . S
C970 C213 0.895 . S
C975 C247 0.891 . S
C980 C151 0.873 . S
C985 C268 0.954 . S
C990 C343 1.101 . S
C995 C361 1.103 . S
C1000 C289 0.951 . S
C1005 C259 1.102 . S
C1010 C310 0.954 . S
C1015 C318 0.959 . S
C1020 C280 1.099 . S
C1025 C301 1.099 . S
C1030 C352 0.959 . S
C1035 C360 0.953 . S
C1040 C319 1.102 . S
C1045 C394 0.953 . S
C1050 C427 1.103 . S
C1055 C445 1.099 . S
C1060 C402 0.959 . S
C1065 C469 1.102 . S
C1070 C436 0.954 . S
C1075 C444 0.952 . S
C1080 C490 1.103 . S
C1085 C385 1.103 . S
C1090 C478 0.950 . S
C1095 C499 0.958 . S
C1100 C403 1.099 . S
C1105 C335 1.402 . S
C1110 C19 1.482 . S
C1115 C355 1.402 . S
C1120 C40 1.480 . S
C1125 C62 1.480 . S
C1130 C377 1.402 . S
C1135 C271 1.399 . S
C1140 C82 1.482 . S
C1145 C292 1.403 . S
C1150 C104 1.480 . S
C1155 C124 1.480 . S
C1160 C313 1.403 . S
C1165 C461 1.403 . S
C1170 C146 1.480 . S
C1175 C481 1.402 . S
C1180 C166 1.482 . S
C1185 C188 1.483 . S
C1190 C502 1.400 . S
C1195 C397 1.403 . S
C1200 C208 1.480 . S
C1205 C230 1.482 . S
C1210 C419 1.399 . S
C1215 C439 1.403 . S
C1220 C250 1.481 . S
