# Generated by pormake.
# Topology lcy, (6)-cn, num edge types: 1
# Building blocks:
#     Node 0, Type 0, BuildingBlock: UKALOJ_clean_sbu_0, # of connection points: 6
#     Node 1, Type 0, BuildingBlock: UKALOJ_clean_sbu_0, # of connection points: 6
#     Node 2, Type 0, BuildingBlock: UKALOJ_clean_sbu_0, # of connection points: 6
#     Node 3, Type 0, BuildingBlock: UKALOJ_clean_sbu_0, # of connection points: 6
#     Edge 4, Type (0, 0), BuildingBlock: EZIPEK_clean_linker_0, # of connection points: 2
#     Edge 5, Type (0, 0), BuildingBlock: EZIPEK_clean_linker_0, # of connection points: 2
#     Edge 6, Type (0, 0), BuildingBlock: EZIPEK_clean_linker_0, # of connection points: 2
#     Edge 7, Type (0, 0), BuildingBlock: EZIPEK_clean_linker_0, # of connection points: 2
#     Edge 8, Type (0, 0), BuildingBlock: EZIPEK_clean_linker_0, # of connection points: 2
#     Edge 9, Type (0, 0), BuildingBlock: EZIPEK_clean_linker_0, # of connection points: 2
#     Edge 10, Type (0, 0), BuildingBlock: EZIPEK_clean_linker_0, # of connection points: 2
#     Edge 11, Type (0, 0), BuildingBlock: EZIPEK_clean_linker_0, # of connection points: 2
#     Edge 12, Type (0, 0), BuildingBlock: EZIPEK_clean_linker_0, # of connection points: 2
#     Edge 13, Type (0, 0), BuildingBlock: EZIPEK_clean_linker_0, # of connection points: 2
#     Edge 14, Type (0, 0), BuildingBlock: EZIPEK_clean_linker_0, # of connection points: 2
#     Edge 15, Type (0, 0), BuildingBlock: EZIPEK_clean_linker_0, # of connection points: 2
# Relax obj value: 0.372
# Max RMSD: 0.307
# Mean RMSD: 0.268
data_MOF--net-lcy--node1-UKALOJ_clean_sbu_0--edge1-EZIPEK_clean_linker_0
_symmetry_space_group_name_H-M    P1
_symmetry_Int_Tables_number       1
_symmetry_cell_setting            triclinic
loop_
_symmetry_equiv_pos_as_xyz
'x, y, z'
_cell_length_a     20.698053
_cell_length_b     20.030011
_cell_length_c     20.323117
_cell_angle_alpha  88.850514
_cell_angle_beta   101.772
_cell_angle_gamma 101.11898
loop_
_atom_site_label
_atom_site_type_symbol
_atom_site_fract_x
_atom_site_fract_y
_atom_site_fract_z
_atom_type_partial_charge
Zn0 Zn 0.34232 0.46311 0.35211 0.0
O1 O 0.31621 0.52317 0.42257 0.0
C2 C 0.44273 0.5797 0.32832 0.0
Zn3 Zn 0.43995 0.46198 0.42057 0.0
C4 C 0.36015 0.5479 0.47419 0.0
O5 O 0.41675 0.52921 0.48592 0.0
C6 C 0.41996 0.37707 0.29905 0.0
O7 O 0.3933 0.37916 0.47427 0.0
O8 O 0.30149 0.37735 0.39736 0.0
N9 N 0.53405 0.46101 0.47775 0.0
C10 C 0.5686 0.40962 0.48763 0.0
C11 C 0.63866 0.50126 0.52038 0.0
N12 N 0.5778 0.51788 0.49822 0.0
N13 N 0.63408 0.43365 0.51346 0.0
C14 C 0.23959 0.49491 0.23225 0.0
C15 C 0.19726 0.39319 0.19643 0.0
N16 N 0.25378 0.4537 0.28405 0.0
N17 N 0.2264 0.39064 0.26182 0.0
N18 N 0.20676 0.45804 0.17656 0.0
H19 H 0.27656 0.5902 0.2887 0.0
H20 H 0.20365 0.5886 0.22378 0.0
H21 H 0.28221 0.59317 0.19997 0.0
C22 C 0.25222 0.5711 0.23713 0.0
C23 C 0.54 0.33615 0.4691 0.0
H24 H 0.48493 0.32399 0.46437 0.0
H25 H 0.56351 0.30305 0.50742 0.0
H26 H 0.55215 0.32433 0.42043 0.0
O27 O 0.45992 0.39344 0.35456 0.0
O28 O 0.36897 0.4041 0.28243 0.0
C29 C 0.332 0.3536 0.45018 0.0
O30 O 0.382 0.55066 0.3101 0.0
O31 O 0.48287 0.54971 0.36884 0.0
Zn32 Zn 0.92969 0.16961 0.6081 0.0
O33 O 0.87423 0.24919 0.56548 0.0
C34 C 0.96331 0.26987 0.71648 0.0
Zn35 Zn 0.85348 0.14144 0.67092 0.0
C36 C 0.81807 0.25151 0.58138 0.0
O37 O 0.79576 0.20827 0.62151 0.0
C38 C 0.96113 0.05129 0.6989 0.0
O39 O 0.79387 0.06131 0.59889 0.0
O40 O 0.86689 0.1017 0.53587 0.0
N41 N 0.79081 0.1293 0.74105 0.0
C42 C 0.76629 0.081 0.78198 0.0
C43 C 0.7467 0.17499 0.81276 0.0
N44 N 0.77764 0.18723 0.7604 0.0
N45 N 0.73922 0.1087 0.82775 0.0
C46 C 0.06449 0.2072 0.56237 0.0
C47 C 0.03598 0.21877 0.45658 0.0
N48 N -0.00328 0.19282 0.5463 0.0
N49 N 0.97901 0.19953 0.48042 0.0
N50 N 0.09004 0.22365 0.50725 0.0
H51 H 0.12373 0.26302 0.64988 0.0
H52 H 0.15203 0.18778 0.63143 0.0
H53 H 0.07841 0.1815 0.66779 0.0
C54 C 0.10659 0.20934 0.632 0.0
C55 C 0.76843 1.00728 0.77743 0.0
H56 H 0.79174 0.99687 0.73514 0.0
H57 H 0.71641 0.97721 0.76962 0.0
H58 H 0.79626 0.99134 0.82588 0.0
O59 O 0.91295 0.06793 0.72145 0.0
O60 O 0.97954 0.08612 0.65036 0.0
C61 C 0.81261 0.06267 0.54221 0.0
O62 O 0.99239 0.24467 0.67704 0.0
O63 O 0.91131 0.23228 0.73149 0.0
Zn64 Zn 0.05445 0.67643 0.86402 0.0
O65 O 0.13807 0.74651 0.93473 0.0
C66 C 0.04052 0.78446 0.76294 0.0
Zn67 Zn 0.13118 0.6818 0.80805 0.0
C68 C 0.19128 0.77533 0.91438 0.0
O69 O 0.19478 0.76514 0.85453 0.0
C70 C 0.01028 0.5654 0.76702 0.0
O71 O 0.18238 0.61888 0.88672 0.0
O72 O 0.08343 0.59422 0.91158 0.0
N73 N 0.19777 0.68315 0.74746 0.0
C74 C 0.21789 0.63569 0.71469 0.0
C75 C 0.26495 0.73296 0.68531 0.0
N76 N 0.22741 0.7434 0.72938 0.0
N77 N 0.25977 0.66587 0.67544 0.0
C78 C 0.95483 0.71233 0.94946 0.0
C79 C 0.92127 0.61333 0.9855 0.0
N80 N 0.98806 0.66959 0.92604 0.0
N81 N 0.967 0.60836 0.94861 0.0
N82 N 0.91276 0.678 0.98664 0.0
H83 H 0.01495 0.80865 0.9324 0.0
H84 H 0.94529 0.81456 0.97212 0.0
H85 H 0.92995 0.79245 0.88437 0.0
C86 C 0.96191 0.78649 0.93417 0.0
C87 C 0.19513 0.56049 0.71917 0.0
H88 H 0.18264 0.54732 0.76896 0.0
H89 H 0.23468 0.53328 0.71059 0.0
H90 H 0.14967 0.54362 0.67949 0.0
O91 O 0.07001 0.59006 0.76089 0.0
O92 O 0.9811 0.60159 0.798 0.0
C93 C 0.14352 0.58738 0.92365 0.0
O94 O 0.02174 0.76147 0.81597 0.0
O95 O 0.07928 0.75306 0.73876 0.0
Zn96 Zn 0.5983 0.89067 0.14519 0.0
O97 O 0.5184 0.85293 0.05638 0.0
C98 C 0.63909 1.00553 0.06269 0.0
Zn99 Zn 0.54508 0.97014 0.16273 0.0
C100 C 0.46478 0.87732 0.05061 0.0
O101 O 0.46511 0.92548 0.08956 0.0
C102 C 0.66648 0.97946 0.27019 0.0
O103 O 0.49576 0.90795 0.23555 0.0
O104 O 0.54448 0.83007 0.20212 0.0
N105 N 0.49497 0.04779 0.16136 0.0
C106 C 0.4918 0.09675 0.20423 0.0
C107 C 0.4403 0.12053 0.1069 0.0
N108 N 0.46289 0.06286 0.10111 0.0
N109 N 0.45847 0.14271 0.17104 0.0
C110 C 0.67733 0.79865 0.08859 0.0
C111 C 0.70543 0.73748 0.17284 0.0
N112 N 0.64735 0.81433 0.13738 0.0
N113 N 0.66409 0.77574 0.18943 0.0
N114 N 0.71452 0.75141 0.10993 0.0
H115 H 0.62541 0.85016 0.00587 0.0
H116 H 0.67692 0.79541 0.98237 0.0
H117 H 0.71621 0.87506 0.02418 0.0
C118 C 0.67328 0.83166 0.02132 0.0
C119 C 0.51999 0.09945 0.27813 0.0
H120 H 0.49834 0.05137 0.30008 0.0
H121 H 0.50752 0.14249 0.30336 0.0
H122 H 0.5754 0.10542 0.28734 0.0
O123 O 0.62384 0.01502 0.24306 0.0
O124 O 0.6701 0.92623 0.23862 0.0
C125 C 0.50709 0.84722 0.23778 0.0
O126 O 0.65676 0.95135 0.08542 0.0
O127 O 0.59329 0.02642 0.08528 0.0
C128 C 0.13259 0.56299 0.04312 0.0
C129 C 0.16597 0.5549 0.98912 0.0
C130 C 0.22916 0.48 0.06181 0.0
C131 C 0.18859 0.4826 0.10997 0.0
N132 N 0.09383 0.5165 0.14079 0.0
N133 N 0.23998 0.4957 0.94539 0.0
C134 C 0.13671 0.51929 0.09744 0.0
C135 C 0.21294 0.51063 0.99789 0.0
N136 N 0.09989 0.61498 0.0476 0.0
N137 N 0.28418 0.45029 0.07809 0.0
H138 H 0.22845 0.51613 0.89787 0.0
H139 H 0.26952 0.45877 0.94761 0.0
H140 H 0.29662 0.42719 0.1242 0.0
H141 H 0.31972 0.45295 0.04799 0.0
H142 H 0.10008 0.6564 0.01591 0.0
H143 H 0.10008 0.6564 0.01591 0.0
H144 H 0.05475 0.54373 0.1332 0.0
H145 H 0.09561 0.48437 0.18196 0.0
C146 C 0.6676 1.01242 0.39095 0.0
C147 C 0.70277 0.99402 0.34257 0.0
C148 C 0.80112 0.99637 0.43506 0.0
C149 C 0.76981 0.02762 0.47917 0.0
N150 N 0.67538 0.07803 0.49131 0.0
N151 N 0.80837 0.97683 0.31952 0.0
C152 C 0.70354 0.03882 0.45523 0.0
C153 C 0.77097 0.98759 0.36501 0.0
N154 N 0.59912 1.00154 0.37749 0.0
N155 N 0.8598 0.9748 0.46036 0.0
H156 H 0.78943 0.97338 0.26784 0.0
H157 H 0.86 0.97836 0.33246 0.0
H158 H 0.882 0.97904 0.51145 0.0
H159 H 0.88216 0.94644 0.43225 0.0
H160 H 0.57142 1.00793 0.41361 0.0
H161 H 0.56993 0.97793 0.33343 0.0
H162 H 0.63038 0.09396 0.47148 0.0
H163 H 0.69913 0.10005 0.53807 0.0
C164 C 0.24993 0.63318 0.55784 0.0
C165 C 0.28565 0.63658 0.62512 0.0
C166 C 0.38163 0.60468 0.58971 0.0
C167 C 0.34239 0.59255 0.52331 0.0
N168 N 0.25661 0.63071 0.44068 0.0
N169 N 0.38223 0.62217 0.70777 0.0
C170 C 0.2811 0.61674 0.50608 0.0
C171 C 0.35066 0.62129 0.64179 0.0
N172 N 0.18563 0.64459 0.54387 0.0
N173 N 0.44959 0.60799 0.60169 0.0
H174 H 0.36074 0.63575 0.7465 0.0
H175 H 0.42664 0.60423 0.72442 0.0
H176 H 0.47628 0.61015 0.56323 0.0
H177 H 0.48113 0.62029 0.64842 0.0
H178 H 0.15409 0.6356 0.49667 0.0
H179 H 0.1619 0.65762 0.58103 0.0
H180 H 0.21467 0.65301 0.42533 0.0
H181 H 0.28418 0.62954 0.40326 0.0
C182 C 0.62318 0.01957 0.93708 0.0
C183 C 0.66382 0.03571 1.0024 0.0
C184 C 0.75789 0.09011 0.95053 0.0
C185 C 0.7152 0.07929 0.88597 0.0
N186 N 0.60561 0.04231 0.81746 0.0
N187 N 0.76812 0.09095 0.07207 0.0
C188 C 0.64735 0.0464 0.87926 0.0
C189 C 0.73089 0.07224 0.0093 0.0
N190 N 0.56278 0.97569 0.93 0.0
N191 N 0.82467 0.1163 0.95506 0.0
H192 H 0.74965 0.07836 0.11573 0.0
H193 H 0.81516 0.1229 0.08098 0.0
H194 H 0.84526 0.1295 0.91271 0.0
H195 H 0.86045 0.12018 0.99964 0.0
H196 H 0.53415 0.95601 0.88385 0.0
H197 H 0.54388 0.95427 0.97086 0.0
H198 H 0.55369 0.02601 0.80984 0.0
H199 H 0.62269 0.05987 0.77418 0.0
C200 C 0.18848 0.3174 0.53029 0.0
C201 C 0.15879 0.25103 0.50427 0.0
C202 C 0.2609 0.24214 0.46482 0.0
C203 C 0.28934 0.30919 0.48919 0.0
N204 N 0.29101 0.40142 0.56365 0.0
N205 N 0.17018 0.14408 0.46125 0.0
C206 C 0.25693 0.34305 0.52932 0.0
C207 C 0.19646 0.21114 0.47645 0.0
N208 N 0.14991 0.35751 0.55133 0.0
N209 N 0.29445 0.21005 0.4279 0.0
H210 H 0.1228 0.12097 0.46927 0.0
H211 H 0.19686 0.11057 0.44539 0.0
H212 H 0.34315 0.23137 0.42214 0.0
H213 H 0.27378 0.16414 0.40187 0.0
H214 H 0.16715 0.40874 0.56473 0.0
H215 H 0.09863 0.34117 0.54971 0.0
H216 H 0.27159 0.42642 0.59736 0.0
H217 H 0.34151 0.4207 0.56334 0.0
C218 C 0.06924 0.90789 0.72177 0.0
C219 C 0.02116 0.85116 0.73651 0.0
C220 C 0.94796 0.93153 0.74927 0.0
C221 C 0.98843 0.98612 0.72155 0.0
N222 N 0.09348 0.02422 0.68501 0.0
N223 N 0.90572 0.81031 0.74496 0.0
C224 C 0.05026 0.97321 0.70773 0.0
C225 C 0.95752 0.86357 0.74322 0.0
N226 N 0.13468 0.90185 0.72649 0.0
N227 N 0.905 0.94413 0.788 0.0
H228 H 0.90978 0.75989 0.73804 0.0
H229 H 0.85722 0.81734 0.74575 0.0
H230 H 0.90746 0.99261 0.80702 0.0
H231 H 0.87712 0.90556 0.81169 0.0
H232 H 0.17347 0.9432 0.72488 0.0
H233 H 0.15207 0.85682 0.73788 0.0
H234 H 0.13244 0.01567 0.66286 0.0
H235 H 0.09102 0.07508 0.68981 0.0
C236 C 0.29581 0.76252 0.99651 0.0
C237 C 0.25645 0.80686 0.95945 0.0
C238 C 0.35896 0.89576 0.97151 0.0
C239 C 0.39868 0.84927 0.00491 0.0
N240 N 0.4054 0.73232 0.03053 0.0
N241 N 0.25215 0.91364 0.90449 0.0
C242 C 0.36735 0.78066 0.01111 0.0
C243 C 0.28871 0.87304 0.94505 0.0
N244 N 0.26447 0.70324 0.01941 0.0
N245 N 0.38854 0.96212 0.96543 0.0
H246 H 0.2 0.90033 0.88862 0.0
H247 H 0.27343 0.95875 0.88432 0.0
H248 H 0.44042 0.97923 0.97774 0.0
H249 H 0.36172 1.00066 0.95043 0.0
H250 H 0.28925 0.66921 0.04908 0.0
H251 H 0.21291 0.69282 0.01567 0.0
H252 H 0.3852 0.68041 0.02851 0.0
H253 H 0.45767 0.74262 0.04083 0.0
C254 C 0.37627 0.25903 0.25252 0.0
C255 C 0.427 0.31923 0.25964 0.0
C256 C 0.49456 0.26408 0.20018 0.0
C257 C 0.44595 0.20345 0.19707 0.0
N258 N 0.34443 0.13873 0.2225 0.0
N259 N 0.53457 0.38035 0.24266 0.0
C260 C 0.38738 0.19999 0.22306 0.0
C261 C 0.48628 0.32222 0.23395 0.0
N262 N 0.31807 0.25775 0.27497 0.0
N263 N 0.54815 0.26535 0.17015 0.0
H264 H 0.52795 0.42536 0.26301 0.0
H265 H 0.58204 0.38408 0.23171 0.0
H266 H 0.5556 0.22256 0.14643 0.0
H267 H 0.58341 0.30885 0.16543 0.0
H268 H 0.27571 0.21928 0.26285 0.0
H269 H 0.31042 0.29613 0.30439 0.0
H270 H 0.30475 0.12955 0.24775 0.0
H271 H 0.35081 0.09506 0.19944 0.0
C272 C 0.76641 0.34619 0.61289 0.0
C273 C 0.78102 0.30794 0.56126 0.0
C274 C 0.70955 0.36614 0.47707 0.0
C275 C 0.68768 0.3958 0.52937 0.0
N276 N 0.68858 0.408 0.64679 0.0
N277 N 0.76241 0.27752 0.44378 0.0
C278 C 0.71485 0.38476 0.59723 0.0
C279 C 0.75221 0.31746 0.49295 0.0
N280 N 0.80263 0.34645 0.67705 0.0
N281 N 0.68962 0.38517 0.41238 0.0
H282 H 0.79349 0.24173 0.45359 0.0
H283 H 0.73669 0.27663 0.39401 0.0
H284 H 0.65859 0.42083 0.4 0.0
H285 H 0.70805 0.37017 0.37219 0.0
H286 H 0.79958 0.37908 0.7151 0.0
H287 H 0.8406 0.31876 0.69058 0.0
H288 H 0.70069 0.39471 0.69698 0.0
H289 H 0.65019 0.43596 0.63692 0.0
C290 C 0.96644 0.44285 0.79834 0.0
C291 C 0.9833 0.49068 0.74854 0.0
C292 C 0.98525 0.39394 0.67535 0.0
C293 C 0.97748 0.34677 0.72905 0.0
N294 N 0.9734 0.33152 0.84591 0.0
N295 N 0.00904 0.51088 0.63909 0.0
C296 C 0.97146 0.37294 0.79157 0.0
C297 C 0.99248 0.46556 0.68704 0.0
N298 N 0.94375 0.46323 0.85167 0.0
N299 N 0.98266 0.3715 0.61158 0.0
H300 H 0.00633 0.56223 0.64166 0.0
H301 H 0.02828 0.49837 0.59842 0.0
H302 H 0.98579 0.32287 0.59831 0.0
H303 H 0.97432 0.40155 0.56943 0.0
H304 H 0.92531 0.42967 0.8863 0.0
H305 H 0.93431 0.51173 0.85633 0.0
H306 H 0.97669 0.34902 0.89462 0.0
H307 H 0.97952 0.28118 0.84366 0.0
C308 C 0.79431 0.67682 0.9873 0.0
C309 C 0.86314 0.70058 0.01556 0.0
C310 C 0.83345 0.7627 0.10322 0.0
C311 C 0.765 0.73269 0.07934 0.0
N312 N 0.67982 0.65507 0.00503 0.0
N313 N 0.94966 0.75682 0.1053 0.0
C314 C 0.74528 0.68776 0.02312 0.0
C315 C 0.88323 0.74109 0.07497 0.0
N316 N 0.77628 0.64559 0.92537 0.0
N317 N 0.8504 0.81348 0.15103 0.0
H318 H 0.98717 0.74142 0.08534 0.0
H319 H 0.96684 0.78046 0.1525 0.0
H320 H 0.81477 0.8315 0.17177 0.0
H321 H 0.89896 0.84176 0.1657 0.0
H322 H 0.72667 0.63219 0.89931 0.0
H323 H 0.81161 0.63877 0.89736 0.0
H324 H 0.66313 0.61682 0.96812 0.0
H325 H 0.64306 0.66291 0.0308 0.0
C326 C 0.51018 0.772 0.33694 0.0
C327 C 0.47432 0.79098 0.27452 0.0
C328 C 0.4303 0.67146 0.24477 0.0
C329 C 0.46086 0.65195 0.30938 0.0
N330 N 0.5127 0.68901 0.42461 0.0
N331 N 0.38357 0.75982 0.18002 0.0
C332 C 0.49572 0.70363 0.35812 0.0
C333 C 0.4277 0.7408 0.23299 0.0
N334 N 0.56047 0.81821 0.3745 0.0
N335 N 0.40739 0.62454 0.19337 0.0
H336 H 0.38227 0.81098 0.17003 0.0
H337 H 0.3444 0.72487 0.15177 0.0
H338 H 0.41292 0.57389 0.19871 0.0
H339 H 0.38899 0.63763 0.14418 0.0
H340 H 0.59341 0.80508 0.41658 0.0
H341 H 0.57153 0.86862 0.36044 0.0
H342 H 0.53266 0.72674 0.46177 0.0
H343 H 0.50061 0.64081 0.4439 0.0
loop_
_geom_bond_atom_site_label_1
_geom_bond_atom_site_label_2
_geom_bond_distance
_geom_bond_site_symmetry_2
_ccdc_geom_bond_type
Zn0 O1 2.055 . S
Zn0 O8 2.046 . S
Zn0 N16 2.036 . S
Zn0 O28 2.053 . S
Zn0 O30 2.066 . S
O1 Zn0 2.055 . S
O1 C4 1.259 . S
C2 O30 1.256 . S
C2 O31 1.244 . S
Zn3 O5 2.046 . S
Zn3 O7 2.055 . S
Zn3 N9 2.036 . S
Zn3 O27 2.066 . S
Zn3 O31 2.053 . S
C4 O1 1.259 . S
C4 O5 1.254 . S
O5 Zn3 2.046 . S
O5 C4 1.254 . S
C6 O27 1.256 . S
C6 O28 1.244 . S
O7 Zn3 2.055 . S
O7 C29 1.259 . S
O8 Zn0 2.046 . S
O8 C29 1.254 . S
N9 Zn3 2.036 . S
N9 C10 1.298 . S
N9 N12 1.398 . S
C10 N9 1.298 . S
C10 N13 1.367 . S
C10 C23 1.481 . S
C11 N12 1.299 . S
C11 N13 1.379 . S
N12 N9 1.398 . S
N12 C11 1.299 . S
N13 C10 1.367 . S
N13 C11 1.379 . S
C14 N16 1.298 . S
C14 N18 1.367 . S
C14 C22 1.481 . S
C15 N17 1.299 . S
C15 N18 1.379 . S
N16 Zn0 2.036 . S
N16 C14 1.298 . S
N16 N17 1.398 . S
N17 C15 1.299 . S
N17 N16 1.398 . S
N18 C14 1.367 . S
N18 C15 1.379 . S
H19 C22 0.980 . S
H20 C22 0.981 . S
H21 C22 0.981 . S
C22 C14 1.481 . S
C22 H19 0.980 . S
C22 H20 0.981 . S
C22 H21 0.981 . S
C23 C10 1.481 . S
C23 H24 0.980 . S
C23 H25 0.981 . S
C23 H26 0.981 . S
H24 C23 0.980 . S
H25 C23 0.981 . S
H26 C23 0.981 . S
O27 Zn3 2.066 . S
O27 C6 1.256 . S
O28 Zn0 2.053 . S
O28 C6 1.244 . S
C29 O7 1.259 . S
C29 O8 1.254 . S
O30 Zn0 2.066 . S
O30 C2 1.256 . S
O31 C2 1.244 . S
O31 Zn3 2.053 . S
Zn32 O33 2.055 . S
Zn32 O40 2.046 . S
Zn32 N48 2.036 . S
Zn32 O60 2.053 . S
Zn32 O62 2.066 . S
O33 Zn32 2.055 . S
O33 C36 1.259 . S
C34 O62 1.256 . S
C34 O63 1.244 . S
Zn35 O37 2.046 . S
Zn35 O39 2.055 . S
Zn35 N41 2.036 . S
Zn35 O59 2.066 . S
Zn35 O63 2.053 . S
C36 O33 1.259 . S
C36 O37 1.254 . S
O37 Zn35 2.046 . S
O37 C36 1.254 . S
C38 O59 1.256 . S
C38 O60 1.244 . S
O39 Zn35 2.055 . S
O39 C61 1.259 . S
O40 Zn32 2.046 . S
O40 C61 1.254 . S
N41 Zn35 2.036 . S
N41 C42 1.298 . S
N41 N44 1.398 . S
C42 N41 1.298 . S
C42 N45 1.367 . S
C42 C55 1.481 1_545 S
C43 N44 1.299 . S
C43 N45 1.379 . S
N44 N41 1.398 . S
N44 C43 1.299 . S
N45 C42 1.367 . S
N45 C43 1.379 . S
C46 N48 1.298 1_455 S
C46 N50 1.367 . S
C46 C54 1.481 1_455 S
C47 N49 1.299 . S
C47 N50 1.379 . S
N48 Zn32 2.036 . S
N48 C46 1.298 1_655 S
N48 N49 1.398 1_655 S
N49 C47 1.299 . S
N49 N48 1.398 1_455 S
N50 C46 1.367 . S
N50 C47 1.379 . S
H51 C54 0.980 . S
H52 C54 0.981 . S
H53 C54 0.981 1_455 S
C54 C46 1.481 1_655 S
C54 H51 0.980 . S
C54 H52 0.981 . S
C54 H53 0.981 1_655 S
C55 C42 1.481 1_565 S
C55 H56 0.980 . S
C55 H57 0.981 . S
C55 H58 0.981 . S
H56 C55 0.980 . S
H57 C55 0.981 . S
H58 C55 0.981 . S
O59 Zn35 2.066 . S
O59 C38 1.256 . S
O60 Zn32 2.053 . S
O60 C38 1.244 . S
C61 O39 1.259 . S
C61 O40 1.254 . S
O62 Zn32 2.066 . S
O62 C34 1.256 . S
O63 C34 1.244 . S
O63 Zn35 2.053 . S
Zn64 O65 2.055 . S
Zn64 O72 2.046 . S
Zn64 N80 2.036 . S
Zn64 O92 2.053 . S
Zn64 O94 2.066 . S
O65 Zn64 2.055 . S
O65 C68 1.259 . S
C66 O94 1.256 . S
C66 O95 1.244 . S
Zn67 O69 2.046 . S
Zn67 O71 2.055 . S
Zn67 N73 2.036 . S
Zn67 O91 2.066 . S
Zn67 O95 2.053 . S
C68 O65 1.259 . S
C68 O69 1.254 . S
O69 Zn67 2.046 . S
O69 C68 1.254 . S
C70 O91 1.256 . S
C70 O92 1.244 . S
O71 Zn67 2.055 . S
O71 C93 1.259 . S
O72 Zn64 2.046 . S
O72 C93 1.254 . S
N73 Zn67 2.036 . S
N73 C74 1.298 . S
N73 N76 1.398 . S
C74 N73 1.298 . S
C74 N77 1.367 . S
C74 C87 1.481 . S
C75 N76 1.299 . S
C75 N77 1.379 . S
N76 N73 1.398 . S
N76 C75 1.299 . S
N77 C74 1.367 . S
N77 C75 1.379 . S
C78 N80 1.298 . S
C78 N82 1.367 1_455 S
C78 C86 1.481 . S
C79 N81 1.299 . S
C79 N82 1.379 . S
N80 Zn64 2.036 . S
N80 C78 1.298 . S
N80 N81 1.398 1_455 S
N81 C79 1.299 . S
N81 N80 1.398 1_655 S
N82 C78 1.367 1_655 S
N82 C79 1.379 . S
H83 C86 0.980 . S
H84 C86 0.978 1_554 S
H85 C86 0.981 . S
C86 C78 1.481 . S
C86 H83 0.980 . S
C86 H84 0.978 1_556 S
C86 H85 0.981 . S
C87 C74 1.481 . S
C87 H88 0.980 . S
C87 H89 0.981 . S
C87 H90 0.981 . S
H88 C87 0.980 . S
H89 C87 0.981 . S
H90 C87 0.981 . S
O91 Zn67 2.066 . S
O91 C70 1.256 . S
O92 Zn64 2.053 . S
O92 C70 1.244 . S
C93 O71 1.259 . S
C93 O72 1.254 . S
O94 Zn64 2.066 . S
O94 C66 1.256 . S
O95 C66 1.244 . S
O95 Zn67 2.053 . S
Zn96 O97 2.055 . S
Zn96 O104 2.046 . S
Zn96 N112 2.036 . S
Zn96 O124 2.053 . S
Zn96 O126 2.066 . S
O97 Zn96 2.055 . S
O97 C100 1.259 . S
C98 O126 1.256 . S
C98 O127 1.244 . S
Zn99 O101 2.046 . S
Zn99 O103 2.055 . S
Zn99 N105 2.036 1_565 S
Zn99 O123 2.066 . S
Zn99 O127 2.053 . S
C100 O97 1.259 . S
C100 O101 1.254 . S
O101 Zn99 2.046 . S
O101 C100 1.254 . S
C102 O123 1.256 . S
C102 O124 1.244 . S
O103 Zn99 2.055 . S
O103 C125 1.259 . S
O104 Zn96 2.046 . S
O104 C125 1.254 . S
N105 Zn99 2.036 1_545 S
N105 C106 1.298 . S
N105 N108 1.398 . S
C106 N105 1.298 . S
C106 N109 1.367 . S
C106 C119 1.481 1_545 S
C107 N108 1.299 . S
C107 N109 1.379 . S
N108 N105 1.398 . S
N108 C107 1.299 . S
N109 C106 1.367 . S
N109 C107 1.379 . S
C110 N112 1.298 . S
C110 N114 1.367 . S
C110 C118 1.481 . S
C111 N113 1.299 . S
C111 N114 1.379 . S
N112 Zn96 2.036 . S
N112 C110 1.298 . S
N112 N113 1.398 . S
N113 C111 1.299 . S
N113 N112 1.398 . S
N114 C110 1.367 . S
N114 C111 1.379 . S
H115 C118 0.980 . S
H116 C118 0.981 1_556 S
H117 C118 0.981 1_556 S
C118 C110 1.481 . S
C118 H115 0.980 . S
C118 H116 0.981 1_554 S
C118 H117 0.981 1_554 S
C119 C106 1.481 1_565 S
C119 H120 0.980 . S
C119 H121 0.981 . S
C119 H122 0.981 1_565 S
H120 C119 0.980 . S
H121 C119 0.981 . S
H122 C119 0.981 1_545 S
O123 Zn99 2.066 . S
O123 C102 1.256 . S
O124 Zn96 2.053 . S
O124 C102 1.244 . S
C125 O103 1.259 . S
C125 O104 1.254 . S
O126 Zn96 2.066 . S
O126 C98 1.256 . S
O127 C98 1.244 . S
O127 Zn99 2.053 . S
C128 C129 1.363 1_554 S
C128 C134 1.379 . S
C128 N136 1.356 1_554 S
C129 C128 1.363 1_556 S
C129 C135 1.363 . S
C130 C131 1.363 . S
C130 C135 1.379 1_554 S
C130 N137 1.356 . S
C131 C130 1.363 . S
C131 C134 1.363 . S
N132 C134 1.356 . S
N132 H144 0.984 . S
N132 H145 0.985 . S
N133 C135 1.356 . S
N133 H138 0.984 . S
N133 H139 0.985 . S
C134 C128 1.379 . S
C134 C131 1.363 . S
C134 N132 1.356 . S
C135 C129 1.363 . S
C135 C130 1.379 1_556 S
C135 N133 1.356 . S
N136 C128 1.356 1_556 S
N136 H142 0.984 . S
N136 H143 0.984 . S
N137 C130 1.356 . S
N137 H140 0.984 . S
N137 H141 0.985 . S
H138 N133 0.984 . S
H139 N133 0.985 . S
H140 N137 0.984 . S
H141 N137 0.985 . S
H142 N136 0.984 . S
H143 N136 0.984 . S
H144 N132 0.984 . S
H145 N132 0.985 . S
C146 C147 1.363 . S
C146 C152 1.379 . S
C146 N154 1.356 . S
C147 C146 1.363 . S
C147 C153 1.359 1_565 S
C148 C149 1.363 1_545 S
C148 C153 1.380 . S
C148 N155 1.356 . S
C149 C148 1.363 1_565 S
C149 C152 1.363 . S
N150 C152 1.356 . S
N150 H162 0.984 . S
N150 H163 0.985 . S
N151 C153 1.358 . S
N151 H156 0.984 1_545 S
N151 H157 0.985 . S
C152 C146 1.379 . S
C152 C149 1.363 . S
C152 N150 1.356 . S
C153 C147 1.359 1_545 S
C153 C148 1.380 . S
C153 N151 1.358 . S
N154 C146 1.356 . S
N154 H160 0.984 . S
N154 H161 0.984 . S
N155 C148 1.356 . S
N155 H158 0.984 . S
N155 H159 0.985 . S
H156 N151 0.984 1_565 S
H157 N151 0.985 . S
H158 N155 0.984 . S
H159 N155 0.985 . S
H160 N154 0.984 . S
H161 N154 0.984 . S
H162 N150 0.984 . S
H163 N150 0.985 . S
C164 C165 1.363 . S
C164 C170 1.379 . S
C164 N172 1.356 . S
C165 C164 1.363 . S
C165 C171 1.363 . S
C166 C167 1.363 . S
C166 C171 1.379 . S
C166 N173 1.356 . S
C167 C166 1.363 . S
C167 C170 1.363 . S
N168 C170 1.356 . S
N168 H180 0.984 . S
N168 H181 0.985 . S
N169 C171 1.356 . S
N169 H174 0.984 . S
N169 H175 0.985 . S
C170 C164 1.379 . S
C170 C167 1.363 . S
C170 N168 1.356 . S
C171 C165 1.363 . S
C171 C166 1.379 . S
C171 N169 1.356 . S
N172 C164 1.356 . S
N172 H178 0.984 . S
N172 H179 0.984 . S
N173 C166 1.356 . S
N173 H176 0.984 . S
N173 H177 0.985 . S
H174 N169 0.984 . S
H175 N169 0.985 . S
H176 N173 0.984 . S
H177 N173 0.985 . S
H178 N172 0.984 . S
H179 N172 0.984 . S
H180 N168 0.984 . S
H181 N168 0.985 . S
C182 C183 1.363 1_556 S
C182 C188 1.379 . S
C182 N190 1.356 . S
C183 C182 1.363 1_554 S
C183 C189 1.363 1_565 S
C184 C185 1.361 1_545 S
C184 C189 1.379 1_556 S
C184 N191 1.356 . S
C185 C184 1.361 1_565 S
C185 C188 1.364 . S
N186 C188 1.356 . S
N186 H198 0.984 . S
N186 H199 0.985 . S
N187 C189 1.356 . S
N187 H192 0.984 . S
N187 H193 0.985 . S
C188 C182 1.379 . S
C188 C185 1.364 . S
C188 N186 1.356 . S
C189 C183 1.363 1_545 S
C189 C184 1.379 1_554 S
C189 N187 1.356 . S
N190 C182 1.356 . S
N190 H196 0.984 . S
N190 H197 0.984 1_556 S
N191 C184 1.356 . S
N191 H194 0.984 . S
N191 H195 0.985 . S
H192 N187 0.984 . S
H193 N187 0.985 . S
H194 N191 0.984 . S
H195 N191 0.985 . S
H196 N190 0.984 . S
H197 N190 0.984 1_554 S
H198 N186 0.984 . S
H199 N186 0.985 . S
C200 C201 1.363 . S
C200 C206 1.379 . S
C200 N208 1.356 . S
C201 C200 1.363 . S
C201 C207 1.363 . S
C202 C203 1.363 . S
C202 C207 1.379 . S
C202 N209 1.356 . S
C203 C202 1.363 . S
C203 C206 1.363 . S
N204 C206 1.356 . S
N204 H216 0.984 . S
N204 H217 0.985 . S
N205 C207 1.356 . S
N205 H210 0.984 . S
N205 H211 0.985 . S
C206 C200 1.379 . S
C206 C203 1.363 . S
C206 N204 1.356 . S
C207 C201 1.363 . S
C207 C202 1.379 . S
C207 N205 1.356 . S
N208 C200 1.356 . S
N208 H214 0.984 . S
N208 H215 0.984 . S
N209 C202 1.356 . S
N209 H212 0.984 . S
N209 H213 0.985 . S
H210 N205 0.984 . S
H211 N205 0.985 . S
H212 N209 0.984 . S
H213 N209 0.985 . S
H214 N208 0.984 . S
H215 N208 0.984 . S
H216 N204 0.984 . S
H217 N204 0.985 . S
C218 C219 1.363 . S
C218 C224 1.379 . S
C218 N226 1.356 . S
C219 C218 1.363 . S
C219 C225 1.363 1_455 S
C220 C221 1.363 . S
C220 C225 1.379 . S
C220 N227 1.356 . S
C221 C220 1.363 . S
C221 C224 1.363 1_655 S
N222 C224 1.356 1_545 S
N222 H234 0.984 . S
N222 H235 0.985 . S
N223 C225 1.356 . S
N223 H228 0.984 1_655 S
N223 H229 0.985 . S
C224 C218 1.379 . S
C224 C221 1.363 1_455 S
C224 N222 1.356 1_565 S
C225 C219 1.363 1_655 S
C225 C220 1.379 . S
C225 N223 1.356 . S
N226 C218 1.356 . S
N226 H232 0.984 . S
N226 H233 0.984 . S
N227 C220 1.356 . S
N227 H230 0.984 . S
N227 H231 0.985 . S
H228 N223 0.984 1_455 S
H229 N223 0.985 . S
H230 N227 0.984 . S
H231 N227 0.985 . S
H232 N226 0.984 . S
H233 N226 0.984 . S
H234 N222 0.984 . S
H235 N222 0.985 . S
C236 C237 1.363 . S
C236 C242 1.379 1_556 S
C236 N244 1.356 . S
C237 C236 1.363 . S
C237 C243 1.363 . S
C238 C239 1.363 1_556 S
C238 C243 1.379 . S
C238 N245 1.356 . S
C239 C238 1.363 1_554 S
C239 C242 1.363 . S
N240 C242 1.356 . S
N240 H252 0.984 . S
N240 H253 0.985 . S
N241 C243 1.356 . S
N241 H246 0.984 . S
N241 H247 0.985 . S
C242 C236 1.379 1_554 S
C242 C239 1.363 . S
C242 N240 1.356 . S
C243 C237 1.363 . S
C243 C238 1.379 . S
C243 N241 1.356 . S
N244 C236 1.356 . S
N244 H250 0.984 . S
N244 H251 0.984 . S
N245 C238 1.356 . S
N245 H248 0.980 1_556 S
N245 H249 0.985 . S
H246 N241 0.984 . S
H247 N241 0.985 . S
H248 N245 0.980 1_554 S
H249 N245 0.985 . S
H250 N244 0.984 . S
H251 N244 0.984 . S
H252 N240 0.984 . S
H253 N240 0.985 . S
C254 C255 1.363 . S
C254 C260 1.379 . S
C254 N262 1.356 . S
C255 C254 1.363 . S
C255 C261 1.363 . S
C256 C257 1.363 . S
C256 C261 1.379 . S
C256 N263 1.356 . S
C257 C256 1.363 . S
C257 C260 1.363 . S
N258 C260 1.356 . S
N258 H270 0.984 . S
N258 H271 0.985 . S
N259 C261 1.356 . S
N259 H264 0.984 . S
N259 H265 0.985 . S
C260 C254 1.379 . S
C260 C257 1.363 . S
C260 N258 1.356 . S
C261 C255 1.363 . S
C261 C256 1.379 . S
C261 N259 1.356 . S
N262 C254 1.356 . S
N262 H268 0.984 . S
N262 H269 0.984 . S
N263 C256 1.356 . S
N263 H266 0.984 . S
N263 H267 0.985 . S
H264 N259 0.984 . S
H265 N259 0.985 . S
H266 N263 0.984 . S
H267 N263 0.985 . S
H268 N262 0.984 . S
H269 N262 0.984 . S
H270 N258 0.984 . S
H271 N258 0.985 . S
C272 C273 1.363 . S
C272 C278 1.379 . S
C272 N280 1.356 . S
C273 C272 1.363 . S
C273 C279 1.363 . S
C274 C275 1.363 . S
C274 C279 1.379 . S
C274 N281 1.356 . S
C275 C274 1.363 . S
C275 C278 1.363 . S
N276 C278 1.356 . S
N276 H288 0.984 . S
N276 H289 0.985 . S
N277 C279 1.356 . S
N277 H282 0.984 . S
N277 H283 0.985 . S
C278 C272 1.379 . S
C278 C275 1.363 . S
C278 N276 1.356 . S
C279 C273 1.363 . S
C279 C274 1.379 . S
C279 N277 1.356 . S
N280 C272 1.356 . S
N280 H286 0.984 . S
N280 H287 0.984 . S
N281 C274 1.356 . S
N281 H284 0.984 . S
N281 H285 0.985 . S
H282 N277 0.984 . S
H283 N277 0.985 . S
H284 N281 0.984 . S
H285 N281 0.985 . S
H286 N280 0.984 . S
H287 N280 0.984 . S
H288 N276 0.984 . S
H289 N276 0.985 . S
C290 C291 1.363 . S
C290 C296 1.379 . S
C290 N298 1.356 . S
C291 C290 1.363 . S
C291 C297 1.363 1_455 S
C292 C293 1.363 . S
C292 C297 1.379 . S
C292 N299 1.356 . S
C293 C292 1.363 . S
C293 C296 1.363 1_655 S
N294 C296 1.356 . S
N294 H306 0.984 . S
N294 H307 0.985 . S
N295 C297 1.356 . S
N295 H300 0.984 . S
N295 H301 0.985 . S
C296 C290 1.379 . S
C296 C293 1.363 1_455 S
C296 N294 1.356 . S
C297 C291 1.363 1_655 S
C297 C292 1.379 . S
C297 N295 1.356 . S
N298 C290 1.356 . S
N298 H304 0.984 . S
N298 H305 0.984 . S
N299 C292 1.356 . S
N299 H302 0.984 . S
N299 H303 0.985 . S
H300 N295 0.984 . S
H301 N295 0.985 . S
H302 N299 0.984 . S
H303 N299 0.985 . S
H304 N298 0.984 . S
H305 N298 0.984 . S
H306 N294 0.984 . S
H307 N294 0.985 . S
C308 C309 1.363 . S
C308 C314 1.379 . S
C308 N316 1.356 . S
C309 C308 1.363 . S
C309 C315 1.363 1_556 S
C310 C311 1.363 . S
C310 C315 1.379 . S
C310 N317 1.356 . S
C311 C310 1.363 . S
C311 C314 1.363 1_554 S
N312 C314 1.356 . S
N312 H324 0.984 . S
N312 H325 0.985 1_556 S
N313 C315 1.356 . S
N313 H318 0.984 . S
N313 H319 0.985 . S
C314 C308 1.379 . S
C314 C311 1.363 1_556 S
C314 N312 1.356 . S
C315 C309 1.363 1_554 S
C315 C310 1.379 . S
C315 N313 1.356 . S
N316 C308 1.356 . S
N316 H322 0.984 . S
N316 H323 0.984 . S
N317 C310 1.356 . S
N317 H320 0.984 . S
N317 H321 0.985 . S
H318 N313 0.984 . S
H319 N313 0.985 . S
H320 N317 0.984 . S
H321 N317 0.985 . S
H322 N316 0.984 . S
H323 N316 0.984 . S
H324 N312 0.984 . S
H325 N312 0.985 1_554 S
C326 C327 1.363 . S
C326 C332 1.379 . S
C326 N334 1.356 . S
C327 C326 1.363 . S
C327 C333 1.363 . S
C328 C329 1.363 . S
C328 C333 1.379 . S
C328 N335 1.356 . S
C329 C328 1.363 . S
C329 C332 1.363 . S
N330 C332 1.356 . S
N330 H342 0.984 . S
N330 H343 0.985 . S
N331 C333 1.356 . S
N331 H336 0.984 . S
N331 H337 0.985 . S
C332 C326 1.379 . S
C332 C329 1.363 . S
C332 N330 1.356 . S
C333 C327 1.363 . S
C333 C328 1.379 . S
C333 N331 1.356 . S
N334 C326 1.356 . S
N334 H340 0.984 . S
N334 H341 0.984 . S
N335 C328 1.356 . S
N335 H338 0.984 . S
N335 H339 0.985 . S
H336 N331 0.984 . S
H337 N331 0.985 . S
H338 N335 0.984 . S
H339 N335 0.985 . S
H340 N334 0.984 . S
H341 N334 0.984 . S
H342 N330 0.984 . S
H343 N330 0.985 . S
C129 C93 1.311 . S
C131 N18 1.318 . S
C147 C102 1.849 . S
C149 C61 1.712 1_565 S
C165 N77 1.115 . S
C167 C4 1.084 . S
C183 C98 1.613 . S
C185 N45 1.545 1_565 S
C201 N50 1.279 . S
C203 C29 1.261 . S
C219 C66 2.033 . S
C221 C38 2.091 1_565 S
C237 C68 1.388 . S
C239 C100 1.530 . S
C255 C6 1.573 . S
C257 N109 1.476 . S
C273 C36 1.419 . S
C275 N13 1.396 . S
C291 C70 2.244 . S
C293 C34 2.225 . S
C309 N82 1.113 . S
C311 N114 1.160 . S
C327 C125 1.572 . S
C329 C2 1.605 . S
