# Generated by pormake.
# Topology unj, (4)-cn, num edge types: 1
# Building blocks:
#     Node 0, Type 0, BuildingBlock: GALJAG_clean_sbu_0, # of connection points: 4
#     Node 1, Type 0, BuildingBlock: GALJAG_clean_sbu_0, # of connection points: 4
#     Node 2, Type 0, BuildingBlock: GALJAG_clean_sbu_0, # of connection points: 4
#     Node 3, Type 0, BuildingBlock: GALJAG_clean_sbu_0, # of connection points: 4
#     Node 4, Type 0, BuildingBlock: GALJAG_clean_sbu_0, # of connection points: 4
#     Node 5, Type 0, BuildingBlock: GALJAG_clean_sbu_0, # of connection points: 4
#     Edge 6, Type (0, 0), BuildingBlock: XUDNAN_clean_linker_2, # of connection points: 2
#     Edge 7, Type (0, 0), BuildingBlock: XUDNAN_clean_linker_2, # of connection points: 2
#     Edge 8, Type (0, 0), BuildingBlock: XUDNAN_clean_linker_2, # of connection points: 2
#     Edge 9, Type (0, 0), BuildingBlock: XUDNAN_clean_linker_2, # of connection points: 2
#     Edge 10, Type (0, 0), BuildingBlock: XUDNAN_clean_linker_2, # of connection points: 2
#     Edge 11, Type (0, 0), BuildingBlock: XUDNAN_clean_linker_2, # of connection points: 2
#     Edge 12, Type (0, 0), BuildingBlock: XUDNAN_clean_linker_2, # of connection points: 2
#     Edge 13, Type (0, 0), BuildingBlock: XUDNAN_clean_linker_2, # of connection points: 2
#     Edge 14, Type (0, 0), BuildingBlock: XUDNAN_clean_linker_2, # of connection points: 2
#     Edge 15, Type (0, 0), BuildingBlock: XUDNAN_clean_linker_2, # of connection points: 2
#     Edge 16, Type (0, 0), BuildingBlock: XUDNAN_clean_linker_2, # of connection points: 2
#     Edge 17, Type (0, 0), BuildingBlock: XUDNAN_clean_linker_2, # of connection points: 2
# Relax obj value: 0.013
# Max RMSD: 0.059
# Mean RMSD: 0.059
data_MOF--net-unj--node1-GALJAG_clean_sbu_0--edge1-XUDNAN_clean_linker_2
_symmetry_space_group_name_H-M    P1
_symmetry_Int_Tables_number       1
_symmetry_cell_setting            triclinic
loop_
_symmetry_equiv_pos_as_xyz
'x, y, z'
_cell_length_a     30.894752
_cell_length_b     30.82971
_cell_length_c     39.696728
_cell_angle_alpha  89.994794
_cell_angle_beta   90.13858
_cell_angle_gamma 119.95115
loop_
_atom_site_label
_atom_site_type_symbol
_atom_site_fract_x
_atom_site_fract_y
_atom_site_fract_z
_atom_type_partial_charge
In0 In 0.50174 0.25321 0.58615 0.0
O1 O 0.55594 0.27772 0.54115 0.0
O2 O 0.51007 0.31038 0.54695 0.0
C3 C 0.56276 0.26337 0.63847 0.0
C4 C 0.44609 0.16373 0.55586 0.0
C5 C 0.44324 0.27975 0.62037 0.0
O6 O 0.57262 0.29776 0.61749 0.0
O7 O 0.52364 0.22263 0.63191 0.0
O8 O 0.43122 0.23461 0.61562 0.0
O9 O 0.4845 0.31133 0.60767 0.0
C10 C 0.54251 0.30735 0.52958 0.0
O11 O 0.43125 0.19474 0.56012 0.0
O12 O 0.48918 0.17739 0.56746 0.0
In13 In 0.24954 0.50148 0.76323 0.0
O14 O 0.23734 0.42737 0.74337 0.0
O15 O 0.31174 0.48881 0.74272 0.0
C16 C 0.16184 0.44322 0.79429 0.0
C17 C 0.23849 0.54288 0.70608 0.0
C18 C 0.29936 0.56328 0.81552 0.0
O19 O 0.19505 0.43099 0.79175 0.0
O20 O 0.17312 0.48502 0.78151 0.0
O21 O 0.27481 0.57248 0.79421 0.0
O22 O 0.30093 0.52392 0.80971 0.0
C23 C 0.28249 0.44307 0.73623 0.0
O24 O 0.281 0.5554 0.71813 0.0
O25 O 0.20238 0.51003 0.72276 0.0
In26 In 0.73746 0.25428 0.92025 0.0
O27 O 0.71111 0.29745 0.88745 0.0
O28 O 0.68776 0.22288 0.87305 0.0
C29 C 0.74942 0.3099 0.97598 0.0
C30 C 0.82515 0.28034 0.89019 0.0
C31 C 0.70578 0.16534 0.95057 0.0
O32 O 0.70672 0.27697 0.9658 0.0
O33 O 0.785 0.31502 0.95781 0.0
O34 O 0.75095 0.19571 0.94407 0.0
O35 O 0.67548 0.1795 0.94152 0.0
C36 C 0.68852 0.26314 0.8661 0.0
O37 O 0.79237 0.23533 0.89537 0.0
O38 O 0.81344 0.31215 0.89978 0.0
In39 In 0.49376 0.74963 0.09329 0.0
O40 O 0.42913 0.73299 0.0578 0.0
O41 O 0.47304 0.69967 0.04637 0.0
C42 C 0.44046 0.73303 0.15056 0.0
C43 C 0.55168 0.84135 0.06687 0.0
C44 C 0.55758 0.72274 0.11898 0.0
O45 O 0.43712 0.69823 0.13211 0.0
O46 O 0.46896 0.77649 0.13937 0.0
O47 O 0.56372 0.76618 0.12236 0.0
O48 O 0.51953 0.69284 0.10202 0.0
C49 C 0.4375 0.70636 0.03774 0.0
O50 O 0.56378 0.80788 0.06684 0.0
O51 O 0.51034 0.82896 0.08071 0.0
In52 In 0.74786 0.49445 0.25646 0.0
O53 O 0.7192 0.43333 0.21527 0.0
O54 O 0.79169 0.49706 0.21046 0.0
C55 C 0.68534 0.45181 0.30911 0.0
C56 C 0.72012 0.55679 0.22941 0.0
C57 C 0.83487 0.52304 0.28859 0.0
O58 O 0.6984 0.42706 0.29055 0.0
O59 O 0.70242 0.4967 0.30039 0.0
O60 O 0.82225 0.5542 0.27887 0.0
O61 O 0.80362 0.47791 0.28214 0.0
C62 C 0.75858 0.45635 0.19788 0.0
O63 O 0.7606 0.57245 0.24552 0.0
O64 O 0.69356 0.50972 0.22727 0.0
In65 In 0.25451 0.73848 0.4268 0.0
O66 O 0.18362 0.7285 0.40113 0.0
O67 O 0.19061 0.66403 0.40892 0.0
C68 C 0.2892 0.83411 0.44606 0.0
C69 C 0.3101 0.73499 0.37544 0.0
C70 C 0.24241 0.69671 0.48836 0.0
O71 O 0.24679 0.80762 0.43271 0.0
O72 O 0.31477 0.81269 0.44909 0.0
O73 O 0.28192 0.71099 0.47154 0.0
O74 O 0.20996 0.70386 0.4742 0.0
C75 C 0.16441 0.68171 0.39772 0.0
O76 O 0.29736 0.7057 0.4003 0.0
O77 O 0.29692 0.76756 0.37727 0.0
H78 H 0.46795 0.08871 0.54434 0.0
H79 H 0.35532 0.1311 0.52639 0.0
H80 H 0.30437 0.05256 0.495 0.0
H81 H 0.45724 0.0304 0.46355 0.0
H82 H 0.46549 0.98069 0.48038 0.0
H83 H 0.49367 0.04055 0.5013 0.0
H84 H 0.44903 0.99733 0.55682 0.0
H85 H 0.4209 0.93733 0.53613 0.0
H86 H 0.38209 0.95737 0.55698 0.0
H87 H 0.26548 0.96989 0.46579 0.0
H88 H 0.23964 0.88643 0.44208 0.0
H89 H 0.37692 0.89685 0.47901 0.0
C90 C 0.43256 0.0814 0.5338 0.0
C91 C 0.41557 0.11599 0.53777 0.0
C92 C 0.36904 0.1051 0.52368 0.0
C93 C 0.33987 0.06066 0.50574 0.0
C94 C 0.35771 0.02744 0.50214 0.0
C95 C 0.40283 0.03706 0.51585 0.0
C96 C 0.41284 0.99457 0.50869 0.0
C97 C 0.46011 0.01265 0.4872 0.0
C98 C 0.41641 0.97021 0.54162 0.0
C99 C 0.36623 0.95958 0.48892 0.0
C100 C 0.33507 0.97942 0.48534 0.0
C101 C 0.28957 0.95393 0.46837 0.0
C102 C 0.27525 0.9066 0.45496 0.0
C103 C 0.3063 0.88524 0.45865 0.0
C104 C 0.35253 0.91234 0.47567 0.0
H105 H 0.46616 0.37436 0.63891 0.0
H106 H 0.34912 0.21864 0.6445 0.0
H107 H 0.29585 0.24362 0.67567 0.0
H108 H 0.44699 0.40953 0.72202 0.0
H109 H 0.45974 0.47084 0.70909 0.0
H110 H 0.48872 0.44069 0.68735 0.0
H111 H 0.45277 0.45064 0.63068 0.0
H112 H 0.4237 0.48084 0.65222 0.0
H113 H 0.38644 0.42628 0.62661 0.0
H114 H 0.25463 0.28562 0.70454 0.0
H115 H 0.2286 0.34159 0.73063 0.0
H116 H 0.37338 0.46995 0.70769 0.0
C117 C 0.42933 0.34552 0.64673 0.0
C118 C 0.41162 0.29457 0.63926 0.0
C119 C 0.36335 0.25789 0.64999 0.0
C120 C 0.33287 0.27171 0.66768 0.0
C121 C 0.35142 0.32229 0.67458 0.0
C122 C 0.39858 0.35862 0.66458 0.0
C123 C 0.40954 0.41034 0.6752 0.0
C124 C 0.45387 0.43424 0.69989 0.0
C125 C 0.41863 0.444 0.64434 0.0
C126 C 0.36099 0.39745 0.69254 0.0
C127 C 0.32797 0.34645 0.69182 0.0
C128 C 0.28024 0.32557 0.70544 0.0
C129 C 0.2658 0.35767 0.72014 0.0
C130 C 0.29908 0.41002 0.72127 0.0
C131 C 0.34736 0.43004 0.70743 0.0
H132 H 0.89391 0.37208 0.86588 0.0
H133 H 0.86701 0.2213 0.88151 0.0
H134 H 0.95108 0.24676 0.85926 0.0
H135 H 0.96089 0.39341 0.78743 0.0
H136 H 0.00345 0.45853 0.79641 0.0
H137 H 0.94128 0.42818 0.81364 0.0
H138 H 0.97826 0.45451 0.87376 0.0
H139 H 0.04053 0.48469 0.85675 0.0
H140 H 0.0228 0.43734 0.88875 0.0
H141 H 0.03926 0.28974 0.83729 0.0
H142 H 0.12291 0.34554 0.81329 0.0
H143 H 0.09028 0.46706 0.8102 0.0
C144 C 0.90569 0.34441 0.86453 0.0
C145 C 0.87421 0.29481 0.87546 0.0
C146 C 0.89066 0.2595 0.87314 0.0
C147 C 0.93833 0.27364 0.86067 0.0
C148 C 0.96868 0.32302 0.85035 0.0
C149 C 0.95282 0.35771 0.8518 0.0
C150 C 0.99223 0.40813 0.83856 0.0
C151 C 0.97333 0.42291 0.80714 0.0
C152 C 0.00947 0.44854 0.8661 0.0
C153 C 0.03298 0.39653 0.82974 0.0
C154 C 0.01882 0.34735 0.83689 0.0
C155 C 0.05066 0.32824 0.8314 0.0
C156 C 0.09808 0.3602 0.81788 0.0
C157 C 0.11285 0.41045 0.80984 0.0
C158 C 0.07986 0.42872 0.81598 0.0
H159 H 0.52438 0.90971 0.04699 0.0
H160 H 0.64979 0.88329 0.05049 0.0
H161 H 0.70257 0.96385 0.02184 0.0
H162 H 0.55024 0.96364 0.96442 0.0
H163 H 0.53134 0.00898 0.97377 0.0
H164 H 0.50368 0.95043 0.99621 0.0
H165 H 0.53028 0.9982 0.05302 0.0
H166 H 0.55782 0.05691 0.03077 0.0
H167 H 0.59495 0.04433 0.05999 0.0
H168 H 0.74141 0.0458 0.99273 0.0
H169 H 0.76439 0.12477 0.96348 0.0
H170 H 0.61341 0.09788 0.97647 0.0
C171 C 0.56311 0.92126 0.04202 0.0
C172 C 0.58323 0.89057 0.05109 0.0
C173 C 0.63376 0.90636 0.04375 0.0
C174 C 0.66401 0.95202 0.02754 0.0
C175 C 0.64299 0.98118 0.0186 0.0
C176 C 0.59374 0.96653 0.02542 0.0
C177 C 0.58017 0.00426 0.0119 0.0
C178 C 0.53892 0.98039 0.98497 0.0
C179 C 0.56492 0.02729 0.04064 0.0
C180 C 0.62959 0.0424 0.99652 0.0
C181 C 0.66526 0.0283 1.00087 0.0
C182 C 0.71385 0.05728 0.98912 0.0
C183 C 0.7265 0.10207 0.97253 0.0
C184 C 0.69064 0.11735 0.96764 0.0
C185 C 0.64149 0.08697 0.97972 0.0
H186 H 0.63677 0.53119 0.1914 0.0
H187 H 0.76914 0.65905 0.23283 0.0
H188 H 0.74332 0.71583 0.20736 0.0
H189 H 0.63531 0.58885 0.11244 0.0
H190 H 0.56815 0.5591 0.11095 0.0
H191 H 0.59748 0.52866 0.132 0.0
H192 H 0.54896 0.52249 0.18664 0.0
H193 H 0.51939 0.55277 0.16575 0.0
H194 H 0.55352 0.57847 0.20437 0.0
H195 H 0.70168 0.75827 0.17892 0.0
H196 H 0.64735 0.78355 0.1493 0.0
H197 H 0.5431 0.62794 0.12553 0.0
C198 C 0.6604 0.57115 0.19505 0.0
C199 C 0.70494 0.5908 0.21409 0.0
C200 C 0.73486 0.64326 0.21832 0.0
C201 C 0.72054 0.67576 0.20393 0.0
C202 C 0.67636 0.65515 0.18531 0.0
C203 C 0.64677 0.60407 0.18079 0.0
C204 C 0.60075 0.59145 0.16004 0.0
C205 C 0.60043 0.56549 0.12689 0.0
C206 C 0.55284 0.55941 0.18042 0.0
C207 C 0.6089 0.64342 0.15376 0.0
C208 C 0.65272 0.67963 0.16855 0.0
C209 C 0.66745 0.73029 0.16705 0.0
C210 C 0.63637 0.74426 0.1502 0.0
C211 C 0.59123 0.70772 0.13499 0.0
C212 C 0.57766 0.65673 0.13661 0.0
H213 H 0.10072 0.71054 0.37058 0.0
H214 H 0.11653 0.58048 0.38984 0.0
H215 H 0.03381 0.52605 0.36431 0.0
H216 H 0.96896 0.65118 0.3883 0.0
H217 H 0.95628 0.68349 0.3553 0.0
H218 H 0.01687 0.71254 0.37513 0.0
H219 H 0.05865 0.72338 0.31683 0.0
H220 H 0.99819 0.69441 0.29682 0.0
H221 H 0.03925 0.66944 0.29013 0.0
H222 H 0.94986 0.48569 0.33714 0.0
H223 H 0.86971 0.46172 0.30904 0.0
H224 H 0.90797 0.6177 0.30684 0.0
C225 C 0.08673 0.67061 0.36941 0.0
C226 C 0.11497 0.64967 0.38219 0.0
C227 C 0.09549 0.59729 0.38019 0.0
C228 C 0.04855 0.56606 0.36577 0.0
C229 C 0.02161 0.5878 0.35343 0.0
C230 C 0.03989 0.63882 0.35502 0.0
C231 C 0.00329 0.65249 0.33972 0.0
C232 C 0.98529 0.67633 0.3662 0.0
C233 C 0.02622 0.68696 0.30905 0.0
C234 C 0.96167 0.60115 0.32929 0.0
C235 C 0.97303 0.56442 0.33752 0.0
C236 C 0.94049 0.51407 0.33053 0.0
C237 C 0.89507 0.50085 0.31459 0.0
C238 C 0.88269 0.53785 0.30577 0.0
C239 C 0.91648 0.58863 0.31328 0.0
H240 H 0.59618 0.29294 0.47975 0.0
H241 H 0.52952 0.38313 0.50671 0.0
H242 H 0.55567 0.4268 0.45218 0.0
H243 H 0.703 0.39 0.43578 0.0
H244 H 0.70253 0.34864 0.40351 0.0
H245 H 0.67902 0.32464 0.4449 0.0
H246 H 0.5948 0.25838 0.4186 0.0
H247 H 0.6179 0.28251 0.37714 0.0
H248 H 0.56085 0.27845 0.39189 0.0
H249 H 0.58993 0.46188 0.39588 0.0
H250 H 0.63189 0.48757 0.34077 0.0
H251 H 0.67401 0.37306 0.34826 0.0
C252 C 0.58746 0.32213 0.47421 0.0
C253 C 0.56099 0.33483 0.4975 0.0
C254 C 0.54979 0.37285 0.48925 0.0
C255 C 0.56439 0.3978 0.45832 0.0
C256 C 0.58983 0.38406 0.43574 0.0
C257 C 0.60138 0.3472 0.44318 0.0
C258 C 0.62902 0.3398 0.4142 0.0
C259 C 0.68151 0.35148 0.42526 0.0
C260 C 0.59883 0.28662 0.3996 0.0
C261 C 0.63152 0.37857 0.38951 0.0
C262 C 0.60862 0.40358 0.40256 0.0
C263 C 0.60766 0.44235 0.38524 0.0
C264 C 0.63152 0.45663 0.35396 0.0
C265 C 0.65567 0.43196 0.34016 0.0
C266 C 0.65499 0.3919 0.35796 0.0
H267 H 0.3097 0.68731 0.52919 0.0
H268 H 0.1549 0.65123 0.52275 0.0
H269 H 0.13806 0.6093 0.57786 0.0
H270 H 0.28679 0.57298 0.56876 0.0
H271 H 0.34083 0.60252 0.59588 0.0
H272 H 0.34131 0.63022 0.55583 0.0
H273 H 0.36301 0.7134 0.58571 0.0
H274 H 0.3626 0.68595 0.62587 0.0
H275 H 0.32336 0.71304 0.61908 0.0
H276 H 0.13663 0.56905 0.63216 0.0
H277 H 0.15149 0.53497 0.68427 0.0
H278 H 0.30784 0.59901 0.65762 0.0
C279 C 0.27233 0.6706 0.53946 0.0
C280 C 0.23356 0.67243 0.52168 0.0
C281 C 0.18519 0.65036 0.53595 0.0
C282 C 0.1752 0.6264 0.56723 0.0
C283 C 0.21408 0.62515 0.5841 0.0
C284 C 0.26176 0.64684 0.57094 0.0
C285 C 0.29669 0.64023 0.59461 0.0
C286 C 0.31762 0.60966 0.57776 0.0
C287 C 0.33891 0.69119 0.60705 0.0
C288 C 0.26098 0.61108 0.62291 0.0
C289 C 0.21352 0.60274 0.61615 0.0
C290 C 0.17368 0.57558 0.63789 0.0
C291 C 0.18249 0.5563 0.66738 0.0
C292 C 0.23082 0.56456 0.67502 0.0
C293 C 0.27061 0.59254 0.65253 0.0
H294 H 0.6286 0.19354 0.8186 0.0
H295 H 0.71009 0.35305 0.83957 0.0
H296 H 0.69002 0.37001 0.78267 0.0
H297 H 0.66305 0.20013 0.7322 0.0
H298 H 0.60271 0.15123 0.71813 0.0
H299 H 0.62289 0.15085 0.76069 0.0
H300 H 0.54342 0.14855 0.78382 0.0
H301 H 0.52263 0.14813 0.74132 0.0
H302 H 0.52863 0.1956 0.77054 0.0
H303 H 0.66607 0.37036 0.72262 0.0
H304 H 0.62867 0.35366 0.6658 0.0
H305 H 0.55782 0.19383 0.68421 0.0
C306 C 0.64169 0.23196 0.81129 0.0
C307 C 0.67096 0.27201 0.8335 0.0
C308 C 0.68741 0.32178 0.82307 0.0
C309 C 0.67651 0.33184 0.7907 0.0
C310 C 0.64855 0.29169 0.76916 0.0
C311 C 0.63042 0.24269 0.77917 0.0
C312 C 0.59988 0.20649 0.75129 0.0
C313 C 0.62356 0.17534 0.73991 0.0
C314 C 0.54541 0.17271 0.76241 0.0
C315 C 0.60394 0.24288 0.72407 0.0
C316 C 0.63286 0.29183 0.7348 0.0
C317 C 0.64301 0.33219 0.714 0.0
C318 C 0.62188 0.32231 0.68167 0.0
C319 C 0.59035 0.27249 0.6706 0.0
C320 C 0.58181 0.2323 0.692 0.0
H321 H 0.36102 0.55674 0.8629 0.0
H322 H 0.28211 0.63634 0.83878 0.0
H323 H 0.30783 0.6803 0.89338 0.0
H324 H 0.33202 0.53926 0.95005 0.0
H325 H 0.39239 0.5499 0.96334 0.0
H326 H 0.36929 0.52548 0.92188 0.0
H327 H 0.44874 0.59845 0.89512 0.0
H328 H 0.4724 0.62278 0.93653 0.0
H329 H 0.46634 0.66211 0.9055 0.0
H330 H 0.33699 0.71131 0.95183 0.0
H331 H 0.37609 0.73494 1.00811 0.0
H332 H 0.43966 0.63856 0.99374 0.0
C333 C 0.34969 0.58387 0.86898 0.0
C334 C 0.31955 0.59314 0.84663 0.0
C335 C 0.3054 0.62883 0.85546 0.0
C336 C 0.3196 0.65381 0.88648 0.0
C337 C 0.34845 0.64313 0.90824 0.0
C338 C 0.3641 0.60968 0.89973 0.0
C339 C 0.39541 0.60552 0.92766 0.0
C340 C 0.37079 0.55185 0.94155 0.0
C341 C 0.4489 0.62329 0.91547 0.0
C342 C 0.39433 0.64137 0.95333 0.0
C343 C 0.36666 0.6623 0.94168 0.0
C344 C 0.35912 0.69553 0.96113 0.0
C345 C 0.38123 0.70849 0.99314 0.0
C346 C 0.41093 0.68864 1.00524 0.0
C347 C 0.41723 0.6544 0.98509 0.0
H348 H 0.68298 0.29415 0.02737 0.0
H349 H 0.83626 0.39115 0.99549 0.0
H350 H 0.85435 0.43792 0.04878 0.0
H351 H 0.66817 0.39001 0.07099 0.0
H352 H 0.63155 0.34896 0.10469 0.0
H353 H 0.62969 0.32374 0.06343 0.0
H354 H 0.65524 0.2626 0.08926 0.0
H355 H 0.65755 0.28789 0.13057 0.0
H356 H 0.71151 0.2871 0.11417 0.0
H357 H 0.85714 0.47319 0.105 0.0
H358 H 0.84408 0.4971 0.16152 0.0
H359 H 0.68931 0.37743 0.15897 0.0
C360 C 0.72014 0.32558 0.03154 0.0
C361 C 0.75822 0.33916 1.00726 0.0
C362 C 0.80654 0.38011 0.01372 0.0
C363 C 0.81722 0.40691 0.04392 0.0
C364 C 0.77924 0.39224 0.06753 0.0
C365 C 0.73162 0.35271 0.06181 0.0
C366 C 0.69814 0.34451 0.09193 0.0
C367 C 0.65429 0.35228 0.08217 0.0
C368 C 0.67952 0.29243 0.10739 0.0
C369 C 0.7345 0.38563 0.11534 0.0
C370 C 0.781 0.41256 0.10058 0.0
C371 C 0.82091 0.45247 0.11686 0.0
C372 C 0.81308 0.46569 0.14901 0.0
C373 C 0.76572 0.43909 0.16469 0.0
C374 C 0.72598 0.39825 0.14768 0.0
H375 H 0.35276 0.80003 0.32263 0.0
H376 H 0.31752 0.65316 0.35879 0.0
H377 H 0.34585 0.6364 0.30473 0.0
H378 H 0.31401 0.76587 0.2382 0.0
H379 H 0.36413 0.82196 0.21986 0.0
H380 H 0.34292 0.82357 0.26181 0.0
H381 H 0.43274 0.8583 0.28498 0.0
H382 H 0.45439 0.85749 0.24302 0.0
H383 H 0.46568 0.82495 0.27657 0.0
H384 H 0.37133 0.63292 0.24536 0.0
H385 H 0.40308 0.64706 0.18705 0.0
H386 H 0.42645 0.79799 0.19029 0.0
C387 C 0.35169 0.76464 0.3193 0.0
C388 C 0.33296 0.72784 0.34485 0.0
C389 C 0.33204 0.68196 0.33961 0.0
C390 C 0.34776 0.672 0.30893 0.0
C391 C 0.36492 0.70858 0.28396 0.0
C392 C 0.36794 0.75436 0.289 0.0
C393 C 0.38837 0.78736 0.25812 0.0
C394 C 0.35006 0.80044 0.24365 0.0
C395 C 0.43826 0.83483 0.26616 0.0
C396 C 0.39571 0.75269 0.23477 0.0
C397 C 0.38144 0.70726 0.25009 0.0
C398 C 0.38313 0.66853 0.23322 0.0
C399 C 0.40089 0.6768 0.20004 0.0
C400 C 0.41728 0.72362 0.18424 0.0
C401 C 0.41433 0.7619 0.20182 0.0
loop_
_geom_bond_atom_site_label_1
_geom_bond_atom_site_label_2
_geom_bond_distance
_geom_bond_site_symmetry_2
_ccdc_geom_bond_type
In0 O1 2.294 . S
In0 O2 2.326 . S
In0 O6 2.266 . S
In0 O7 2.326 . S
In0 O8 2.266 . S
In0 O9 2.326 . S
In0 O11 2.294 . S
In0 O12 2.326 . S
O1 In0 2.294 . S
O1 C10 1.240 . S
O2 In0 2.326 . S
O2 C10 1.252 . S
C3 O6 1.252 . S
C3 O7 1.260 . S
C4 O11 1.240 . S
C4 O12 1.252 . S
C5 O8 1.252 . S
C5 O9 1.260 . S
O6 In0 2.266 . S
O6 C3 1.252 . S
O7 In0 2.326 . S
O7 C3 1.260 . S
O8 In0 2.266 . S
O8 C5 1.252 . S
O9 In0 2.326 . S
O9 C5 1.260 . S
C10 O1 1.240 . S
C10 O2 1.252 . S
O11 In0 2.294 . S
O11 C4 1.240 . S
O12 In0 2.326 . S
O12 C4 1.252 . S
In13 O14 2.294 . S
In13 O15 2.326 . S
In13 O19 2.266 . S
In13 O20 2.326 . S
In13 O21 2.266 . S
In13 O22 2.326 . S
In13 O24 2.294 . S
In13 O25 2.326 . S
O14 In13 2.294 . S
O14 C23 1.240 . S
O15 In13 2.326 . S
O15 C23 1.252 . S
C16 O19 1.252 . S
C16 O20 1.260 . S
C17 O24 1.240 . S
C17 O25 1.252 . S
C18 O21 1.252 . S
C18 O22 1.260 . S
O19 In13 2.266 . S
O19 C16 1.252 . S
O20 In13 2.326 . S
O20 C16 1.260 . S
O21 In13 2.266 . S
O21 C18 1.252 . S
O22 In13 2.326 . S
O22 C18 1.260 . S
C23 O14 1.240 . S
C23 O15 1.252 . S
O24 In13 2.294 . S
O24 C17 1.240 . S
O25 In13 2.326 . S
O25 C17 1.252 . S
In26 O27 2.294 . S
In26 O28 2.326 . S
In26 O32 2.266 . S
In26 O33 2.326 . S
In26 O34 2.266 . S
In26 O35 2.326 . S
In26 O37 2.294 . S
In26 O38 2.326 . S
O27 In26 2.294 . S
O27 C36 1.240 . S
O28 In26 2.326 . S
O28 C36 1.252 . S
C29 O32 1.252 . S
C29 O33 1.260 . S
C30 O37 1.240 . S
C30 O38 1.252 . S
C31 O34 1.252 . S
C31 O35 1.260 . S
O32 In26 2.266 . S
O32 C29 1.252 . S
O33 In26 2.326 . S
O33 C29 1.260 . S
O34 In26 2.266 . S
O34 C31 1.252 . S
O35 In26 2.326 . S
O35 C31 1.260 . S
C36 O27 1.240 . S
C36 O28 1.252 . S
O37 In26 2.294 . S
O37 C30 1.240 . S
O38 In26 2.326 . S
O38 C30 1.252 . S
In39 O40 2.294 . S
In39 O41 2.326 . S
In39 O45 2.266 . S
In39 O46 2.326 . S
In39 O47 2.266 . S
In39 O48 2.326 . S
In39 O50 2.294 . S
In39 O51 2.326 . S
O40 In39 2.294 . S
O40 C49 1.240 . S
O41 In39 2.326 . S
O41 C49 1.252 . S
C42 O45 1.252 . S
C42 O46 1.260 . S
C43 O50 1.240 . S
C43 O51 1.252 . S
C44 O47 1.252 . S
C44 O48 1.260 . S
O45 In39 2.266 . S
O45 C42 1.252 . S
O46 In39 2.326 . S
O46 C42 1.260 . S
O47 In39 2.266 . S
O47 C44 1.252 . S
O48 In39 2.326 . S
O48 C44 1.260 . S
C49 O40 1.240 . S
C49 O41 1.252 . S
O50 In39 2.294 . S
O50 C43 1.240 . S
O51 In39 2.326 . S
O51 C43 1.252 . S
In52 O53 2.294 . S
In52 O54 2.326 . S
In52 O58 2.266 . S
In52 O59 2.326 . S
In52 O60 2.266 . S
In52 O61 2.326 . S
In52 O63 2.294 . S
In52 O64 2.326 . S
O53 In52 2.294 . S
O53 C62 1.240 . S
O54 In52 2.326 . S
O54 C62 1.252 . S
C55 O58 1.252 . S
C55 O59 1.260 . S
C56 O63 1.240 . S
C56 O64 1.252 . S
C57 O60 1.252 . S
C57 O61 1.260 . S
O58 In52 2.266 . S
O58 C55 1.252 . S
O59 In52 2.326 . S
O59 C55 1.260 . S
O60 In52 2.266 . S
O60 C57 1.252 . S
O61 In52 2.326 . S
O61 C57 1.260 . S
C62 O53 1.240 . S
C62 O54 1.252 . S
O63 In52 2.294 . S
O63 C56 1.240 . S
O64 In52 2.326 . S
O64 C56 1.252 . S
In65 O66 2.294 . S
In65 O67 2.326 . S
In65 O71 2.266 . S
In65 O72 2.326 . S
In65 O73 2.266 . S
In65 O74 2.326 . S
In65 O76 2.294 . S
In65 O77 2.326 . S
O66 In65 2.294 . S
O66 C75 1.240 . S
O67 In65 2.326 . S
O67 C75 1.252 . S
C68 O71 1.252 . S
C68 O72 1.260 . S
C69 O76 1.240 . S
C69 O77 1.252 . S
C70 O73 1.252 . S
C70 O74 1.260 . S
O71 In65 2.266 . S
O71 C68 1.252 . S
O72 In65 2.326 . S
O72 C68 1.260 . S
O73 In65 2.266 . S
O73 C70 1.252 . S
O74 In65 2.326 . S
O74 C70 1.260 . S
C75 O66 1.240 . S
C75 O67 1.252 . S
O76 In65 2.294 . S
O76 C69 1.240 . S
O77 In65 2.326 . S
O77 C69 1.252 . S
H78 C90 0.930 . S
H79 C92 0.930 . S
H80 C93 0.930 . S
H81 C97 0.959 . S
H82 C97 0.959 . S
H83 C97 0.961 . S
H84 C98 0.960 . S
H85 C98 0.961 . S
H86 C98 0.959 . S
H87 C101 0.929 . S
H88 C102 0.931 . S
H89 C104 0.930 . S
C90 H78 0.930 . S
C90 C91 1.399 . S
C90 C95 1.399 . S
C91 C90 1.399 . S
C91 C92 1.376 . S
C92 H79 0.930 . S
C92 C91 1.376 . S
C92 C93 1.388 . S
C93 H80 0.930 . S
C93 C92 1.388 . S
C93 C94 1.390 . S
C94 C93 1.390 . S
C94 C95 1.394 . S
C94 C100 1.465 1_545 S
C95 C90 1.399 . S
C95 C94 1.394 . S
C95 C96 1.516 1_545 S
C96 C95 1.516 1_565 S
C96 C97 1.502 . S
C96 C98 1.561 . S
C96 C99 1.526 . S
C97 H81 0.959 . S
C97 H82 0.959 . S
C97 H83 0.961 . S
C97 C96 1.502 . S
C98 H84 0.960 . S
C98 H85 0.961 . S
C98 H86 0.959 . S
C98 C96 1.561 . S
C99 C96 1.526 . S
C99 C100 1.396 . S
C99 C104 1.390 . S
C100 C94 1.465 1_565 S
C100 C99 1.396 . S
C100 C101 1.399 . S
C101 H87 0.929 . S
C101 C100 1.399 . S
C101 C102 1.385 . S
C102 H88 0.931 . S
C102 C101 1.385 . S
C102 C103 1.389 . S
C103 C102 1.389 . S
C103 C104 1.387 . S
C104 H89 0.930 . S
C104 C99 1.390 . S
C104 C103 1.387 . S
H105 C117 0.930 . S
H106 C119 0.930 . S
H107 C120 0.930 . S
H108 C124 0.959 . S
H109 C124 0.959 . S
H110 C124 0.961 . S
H111 C125 0.960 . S
H112 C125 0.961 . S
H113 C125 0.959 . S
H114 C128 0.929 . S
H115 C129 0.931 . S
H116 C131 0.930 . S
C117 H105 0.930 . S
C117 C118 1.399 . S
C117 C122 1.399 . S
C118 C117 1.399 . S
C118 C119 1.376 . S
C119 H106 0.930 . S
C119 C118 1.376 . S
C119 C120 1.388 . S
C120 H107 0.930 . S
C120 C119 1.388 . S
C120 C121 1.390 . S
C121 C120 1.390 . S
C121 C122 1.394 . S
C121 C127 1.465 . S
C122 C117 1.399 . S
C122 C121 1.394 . S
C122 C123 1.516 . S
C123 C122 1.516 . S
C123 C124 1.502 . S
C123 C125 1.561 . S
C123 C126 1.526 . S
C124 H108 0.959 . S
C124 H109 0.959 . S
C124 H110 0.961 . S
C124 C123 1.502 . S
C125 H111 0.960 . S
C125 H112 0.961 . S
C125 H113 0.959 . S
C125 C123 1.561 . S
C126 C123 1.526 . S
C126 C127 1.396 . S
C126 C131 1.390 . S
C127 C121 1.465 . S
C127 C126 1.396 . S
C127 C128 1.399 . S
C128 H114 0.929 . S
C128 C127 1.399 . S
C128 C129 1.385 . S
C129 H115 0.931 . S
C129 C128 1.385 . S
C129 C130 1.389 . S
C130 C129 1.389 . S
C130 C131 1.387 . S
C131 H116 0.930 . S
C131 C126 1.390 . S
C131 C130 1.387 . S
H132 C144 0.930 . S
H133 C146 0.930 . S
H134 C147 0.930 . S
H135 C151 0.959 . S
H136 C151 0.959 . S
H137 C151 0.961 . S
H138 C152 0.960 . S
H139 C152 0.961 . S
H140 C152 0.959 . S
H141 C155 0.929 . S
H142 C156 0.931 . S
H143 C158 0.930 . S
C144 H132 0.930 . S
C144 C145 1.399 . S
C144 C149 1.399 . S
C145 C144 1.399 . S
C145 C146 1.376 . S
C146 H133 0.930 . S
C146 C145 1.376 . S
C146 C147 1.388 . S
C147 H134 0.930 . S
C147 C146 1.388 . S
C147 C148 1.390 . S
C148 C147 1.390 . S
C148 C149 1.394 . S
C148 C154 1.465 1_655 S
C149 C144 1.399 . S
C149 C148 1.394 . S
C149 C150 1.516 . S
C150 C149 1.516 . S
C150 C151 1.502 . S
C150 C152 1.561 . S
C150 C153 1.526 1_655 S
C151 H135 0.959 . S
C151 H136 0.959 . S
C151 H137 0.961 . S
C151 C150 1.502 . S
C152 H138 0.960 . S
C152 H139 0.961 . S
C152 H140 0.959 . S
C152 C150 1.561 . S
C153 C150 1.526 1_455 S
C153 C154 1.396 . S
C153 C158 1.390 . S
C154 C148 1.465 1_455 S
C154 C153 1.396 . S
C154 C155 1.399 . S
C155 H141 0.929 . S
C155 C154 1.399 . S
C155 C156 1.385 . S
C156 H142 0.931 . S
C156 C155 1.385 . S
C156 C157 1.389 . S
C157 C156 1.389 . S
C157 C158 1.387 . S
C158 H143 0.930 . S
C158 C153 1.390 . S
C158 C157 1.387 . S
H159 C171 0.930 1_556 S
H160 C173 0.930 . S
H161 C174 0.930 . S
H162 C178 0.959 . S
H163 C178 0.959 . S
H164 C178 0.961 . S
H165 C179 0.960 . S
H166 C179 0.961 . S
H167 C179 0.959 . S
H168 C182 0.929 . S
H169 C183 0.931 1_554 S
H170 C185 0.930 . S
C171 H159 0.930 1_554 S
C171 C172 1.399 . S
C171 C176 1.402 . S
C172 C171 1.399 . S
C172 C173 1.376 . S
C173 H160 0.930 . S
C173 C172 1.376 . S
C173 C174 1.388 . S
C174 H161 0.930 . S
C174 C173 1.388 . S
C174 C175 1.390 . S
C175 C174 1.390 . S
C175 C176 1.403 . S
C175 C181 1.465 1_565 S
C176 C171 1.402 . S
C176 C175 1.403 . S
C176 C177 1.504 1_554 S
C177 C176 1.504 1_556 S
C177 C178 1.502 . S
C177 C179 1.561 . S
C177 C180 1.526 1_565 S
C178 H162 0.959 . S
C178 H163 0.959 . S
C178 H164 0.961 . S
C178 C177 1.502 . S
C179 H165 0.960 . S
C179 H166 0.961 . S
C179 H167 0.959 . S
C179 C177 1.561 . S
C180 C177 1.526 1_545 S
C180 C181 1.396 1_556 S
C180 C185 1.390 . S
C181 C175 1.465 1_545 S
C181 C180 1.396 1_554 S
C181 C182 1.399 . S
C182 H168 0.929 . S
C182 C181 1.399 . S
C182 C183 1.385 1_554 S
C183 H169 0.931 1_556 S
C183 C182 1.385 1_556 S
C183 C184 1.389 . S
C184 C183 1.389 . S
C184 C185 1.387 . S
C185 H170 0.930 . S
C185 C180 1.390 . S
C185 C184 1.387 . S
H186 C198 0.930 . S
H187 C200 0.930 . S
H188 C201 0.930 . S
H189 C205 0.959 . S
H190 C205 0.959 . S
H191 C205 0.961 . S
H192 C206 0.960 . S
H193 C206 0.961 . S
H194 C206 0.959 . S
H195 C209 0.929 . S
H196 C210 0.931 . S
H197 C212 0.930 . S
C198 H186 0.930 . S
C198 C199 1.399 . S
C198 C203 1.399 . S
C199 C198 1.399 . S
C199 C200 1.376 . S
C200 H187 0.930 . S
C200 C199 1.376 . S
C200 C201 1.388 . S
C201 H188 0.930 . S
C201 C200 1.388 . S
C201 C202 1.390 . S
C202 C201 1.390 . S
C202 C203 1.394 . S
C202 C208 1.465 . S
C203 C198 1.399 . S
C203 C202 1.394 . S
C203 C204 1.516 . S
C204 C203 1.516 . S
C204 C205 1.502 . S
C204 C206 1.561 . S
C204 C207 1.526 . S
C205 H189 0.959 . S
C205 H190 0.959 . S
C205 H191 0.961 . S
C205 C204 1.502 . S
C206 H192 0.960 . S
C206 H193 0.961 . S
C206 H194 0.959 . S
C206 C204 1.561 . S
C207 C204 1.526 . S
C207 C208 1.396 . S
C207 C212 1.390 . S
C208 C202 1.465 . S
C208 C207 1.396 . S
C208 C209 1.399 . S
C209 H195 0.929 . S
C209 C208 1.399 . S
C209 C210 1.385 . S
C210 H196 0.931 . S
C210 C209 1.385 . S
C210 C211 1.389 . S
C211 C210 1.389 . S
C211 C212 1.387 . S
C212 H197 0.930 . S
C212 C207 1.390 . S
C212 C211 1.387 . S
H213 C225 0.930 . S
H214 C227 0.930 . S
H215 C228 0.930 . S
H216 C232 0.959 . S
H217 C232 0.959 . S
H218 C232 0.952 1_455 S
H219 C233 0.960 . S
H220 C233 0.961 1_655 S
H221 C233 0.959 . S
H222 C236 0.929 . S
H223 C237 0.931 . S
H224 C239 0.930 . S
C225 H213 0.930 . S
C225 C226 1.399 . S
C225 C230 1.399 . S
C226 C225 1.399 . S
C226 C227 1.376 . S
C227 H214 0.930 . S
C227 C226 1.376 . S
C227 C228 1.388 . S
C228 H215 0.930 . S
C228 C227 1.388 . S
C228 C229 1.390 . S
C229 C228 1.390 . S
C229 C230 1.394 . S
C229 C235 1.465 1_455 S
C230 C225 1.399 . S
C230 C229 1.394 . S
C230 C231 1.516 1_455 S
C231 C230 1.516 1_655 S
C231 C232 1.502 . S
C231 C233 1.561 1_655 S
C231 C234 1.526 . S
C232 H216 0.959 . S
C232 H217 0.959 . S
C232 H218 0.952 1_655 S
C232 C231 1.502 . S
C233 H219 0.960 . S
C233 H220 0.961 1_455 S
C233 H221 0.959 . S
C233 C231 1.561 1_455 S
C234 C231 1.526 . S
C234 C235 1.396 . S
C234 C239 1.390 . S
C235 C229 1.465 1_655 S
C235 C234 1.396 . S
C235 C236 1.399 . S
C236 H222 0.929 . S
C236 C235 1.399 . S
C236 C237 1.385 . S
C237 H223 0.931 . S
C237 C236 1.385 . S
C237 C238 1.389 . S
C238 C237 1.389 . S
C238 C239 1.387 . S
C239 H224 0.930 . S
C239 C234 1.390 . S
C239 C238 1.387 . S
H240 C252 0.930 . S
H241 C254 0.930 . S
H242 C255 0.930 . S
H243 C259 0.959 . S
H244 C259 0.959 . S
H245 C259 0.961 . S
H246 C260 0.960 . S
H247 C260 0.961 . S
H248 C260 0.959 . S
H249 C263 0.929 . S
H250 C264 0.931 . S
H251 C266 0.930 . S
C252 H240 0.930 . S
C252 C253 1.399 . S
C252 C257 1.399 . S
C253 C252 1.399 . S
C253 C254 1.376 . S
C254 H241 0.930 . S
C254 C253 1.376 . S
C254 C255 1.388 . S
C255 H242 0.930 . S
C255 C254 1.388 . S
C255 C256 1.390 . S
C256 C255 1.390 . S
C256 C257 1.394 . S
C256 C262 1.465 . S
C257 C252 1.399 . S
C257 C256 1.394 . S
C257 C258 1.516 . S
C258 C257 1.516 . S
C258 C259 1.502 . S
C258 C260 1.561 . S
C258 C261 1.526 . S
C259 H243 0.959 . S
C259 H244 0.959 . S
C259 H245 0.961 . S
C259 C258 1.502 . S
C260 H246 0.960 . S
C260 H247 0.961 . S
C260 H248 0.959 . S
C260 C258 1.561 . S
C261 C258 1.526 . S
C261 C262 1.396 . S
C261 C266 1.390 . S
C262 C256 1.465 . S
C262 C261 1.396 . S
C262 C263 1.399 . S
C263 H249 0.929 . S
C263 C262 1.399 . S
C263 C264 1.385 . S
C264 H250 0.931 . S
C264 C263 1.385 . S
C264 C265 1.389 . S
C265 C264 1.389 . S
C265 C266 1.387 . S
C266 H251 0.930 . S
C266 C261 1.390 . S
C266 C265 1.387 . S
H267 C279 0.930 . S
H268 C281 0.930 . S
H269 C282 0.930 . S
H270 C286 0.959 . S
H271 C286 0.959 . S
H272 C286 0.961 . S
H273 C287 0.960 . S
H274 C287 0.961 . S
H275 C287 0.959 . S
H276 C290 0.929 . S
H277 C291 0.931 . S
H278 C293 0.930 . S
C279 H267 0.930 . S
C279 C280 1.399 . S
C279 C284 1.399 . S
C280 C279 1.399 . S
C280 C281 1.376 . S
C281 H268 0.930 . S
C281 C280 1.376 . S
C281 C282 1.388 . S
C282 H269 0.930 . S
C282 C281 1.388 . S
C282 C283 1.390 . S
C283 C282 1.390 . S
C283 C284 1.394 . S
C283 C289 1.465 . S
C284 C279 1.399 . S
C284 C283 1.394 . S
C284 C285 1.516 . S
C285 C284 1.516 . S
C285 C286 1.502 . S
C285 C287 1.561 . S
C285 C288 1.526 . S
C286 H270 0.959 . S
C286 H271 0.959 . S
C286 H272 0.961 . S
C286 C285 1.502 . S
C287 H273 0.960 . S
C287 H274 0.961 . S
C287 H275 0.959 . S
C287 C285 1.561 . S
C288 C285 1.526 . S
C288 C289 1.396 . S
C288 C293 1.390 . S
C289 C283 1.465 . S
C289 C288 1.396 . S
C289 C290 1.399 . S
C290 H276 0.929 . S
C290 C289 1.399 . S
C290 C291 1.385 . S
C291 H277 0.931 . S
C291 C290 1.385 . S
C291 C292 1.389 . S
C292 C291 1.389 . S
C292 C293 1.387 . S
C293 H278 0.930 . S
C293 C288 1.390 . S
C293 C292 1.387 . S
H294 C306 0.930 . S
H295 C308 0.930 . S
H296 C309 0.930 . S
H297 C313 0.959 . S
H298 C313 0.959 . S
H299 C313 0.961 . S
H300 C314 0.960 . S
H301 C314 0.961 . S
H302 C314 0.959 . S
H303 C317 0.929 . S
H304 C318 0.931 . S
H305 C320 0.930 . S
C306 H294 0.930 . S
C306 C307 1.399 . S
C306 C311 1.399 . S
C307 C306 1.399 . S
C307 C308 1.376 . S
C308 H295 0.930 . S
C308 C307 1.376 . S
C308 C309 1.388 . S
C309 H296 0.930 . S
C309 C308 1.388 . S
C309 C310 1.390 . S
C310 C309 1.390 . S
C310 C311 1.394 . S
C310 C316 1.465 . S
C311 C306 1.399 . S
C311 C310 1.394 . S
C311 C312 1.516 . S
C312 C311 1.516 . S
C312 C313 1.502 . S
C312 C314 1.561 . S
C312 C315 1.526 . S
C313 H297 0.959 . S
C313 H298 0.959 . S
C313 H299 0.961 . S
C313 C312 1.502 . S
C314 H300 0.960 . S
C314 H301 0.961 . S
C314 H302 0.959 . S
C314 C312 1.561 . S
C315 C312 1.526 . S
C315 C316 1.396 . S
C315 C320 1.390 . S
C316 C310 1.465 . S
C316 C315 1.396 . S
C316 C317 1.399 . S
C317 H303 0.929 . S
C317 C316 1.399 . S
C317 C318 1.385 . S
C318 H304 0.931 . S
C318 C317 1.385 . S
C318 C319 1.389 . S
C319 C318 1.389 . S
C319 C320 1.387 . S
C320 H305 0.930 . S
C320 C315 1.390 . S
C320 C319 1.387 . S
H321 C333 0.930 . S
H322 C335 0.930 . S
H323 C336 0.930 . S
H324 C340 0.959 . S
H325 C340 0.959 . S
H326 C340 0.961 . S
H327 C341 0.960 . S
H328 C341 0.961 . S
H329 C341 0.959 . S
H330 C344 0.929 . S
H331 C345 0.931 . S
H332 C347 0.930 . S
C333 H321 0.930 . S
C333 C334 1.399 . S
C333 C338 1.399 . S
C334 C333 1.399 . S
C334 C335 1.376 . S
C335 H322 0.930 . S
C335 C334 1.376 . S
C335 C336 1.388 . S
C336 H323 0.930 . S
C336 C335 1.388 . S
C336 C337 1.390 . S
C337 C336 1.390 . S
C337 C338 1.394 . S
C337 C343 1.465 . S
C338 C333 1.399 . S
C338 C337 1.394 . S
C338 C339 1.516 . S
C339 C338 1.516 . S
C339 C340 1.502 . S
C339 C341 1.561 . S
C339 C342 1.526 . S
C340 H324 0.959 . S
C340 H325 0.959 . S
C340 H326 0.961 . S
C340 C339 1.502 . S
C341 H327 0.960 . S
C341 H328 0.961 . S
C341 H329 0.959 . S
C341 C339 1.561 . S
C342 C339 1.526 . S
C342 C343 1.396 . S
C342 C347 1.390 . S
C343 C337 1.465 . S
C343 C342 1.396 . S
C343 C344 1.399 . S
C344 H330 0.929 . S
C344 C343 1.399 . S
C344 C345 1.385 . S
C345 H331 0.931 . S
C345 C344 1.385 . S
C345 C346 1.389 . S
C346 C345 1.389 . S
C346 C347 1.387 . S
C347 H332 0.930 . S
C347 C342 1.390 . S
C347 C346 1.387 . S
H348 C360 0.930 . S
H349 C362 0.930 1_556 S
H350 C363 0.930 . S
H351 C367 0.959 . S
H352 C367 0.959 . S
H353 C367 0.961 . S
H354 C368 0.960 . S
H355 C368 0.961 . S
H356 C368 0.959 . S
H357 C371 0.929 . S
H358 C372 0.931 . S
H359 C374 0.930 . S
C360 H348 0.930 . S
C360 C361 1.399 . S
C360 C365 1.399 . S
C361 C360 1.399 . S
C361 C362 1.376 . S
C362 H349 0.930 1_554 S
C362 C361 1.376 . S
C362 C363 1.388 . S
C363 H350 0.930 . S
C363 C362 1.388 . S
C363 C364 1.390 . S
C364 C363 1.390 . S
C364 C365 1.394 . S
C364 C370 1.465 . S
C365 C360 1.399 . S
C365 C364 1.394 . S
C365 C366 1.516 . S
C366 C365 1.516 . S
C366 C367 1.502 . S
C366 C368 1.561 . S
C366 C369 1.526 . S
C367 H351 0.959 . S
C367 H352 0.959 . S
C367 H353 0.961 . S
C367 C366 1.502 . S
C368 H354 0.960 . S
C368 H355 0.961 . S
C368 H356 0.959 . S
C368 C366 1.561 . S
C369 C366 1.526 . S
C369 C370 1.396 . S
C369 C374 1.390 . S
C370 C364 1.465 . S
C370 C369 1.396 . S
C370 C371 1.399 . S
C371 H357 0.929 . S
C371 C370 1.399 . S
C371 C372 1.385 . S
C372 H358 0.931 . S
C372 C371 1.385 . S
C372 C373 1.389 . S
C373 C372 1.389 . S
C373 C374 1.387 . S
C374 H359 0.930 . S
C374 C369 1.390 . S
C374 C373 1.387 . S
H375 C387 0.930 . S
H376 C389 0.930 . S
H377 C390 0.930 . S
H378 C394 0.959 . S
H379 C394 0.959 . S
H380 C394 0.961 . S
H381 C395 0.960 . S
H382 C395 0.961 . S
H383 C395 0.959 . S
H384 C398 0.929 . S
H385 C399 0.931 . S
H386 C401 0.930 . S
C387 H375 0.930 . S
C387 C388 1.399 . S
C387 C392 1.399 . S
C388 C387 1.399 . S
C388 C389 1.376 . S
C389 H376 0.930 . S
C389 C388 1.376 . S
C389 C390 1.388 . S
C390 H377 0.930 . S
C390 C389 1.388 . S
C390 C391 1.390 . S
C391 C390 1.390 . S
C391 C392 1.394 . S
C391 C397 1.465 . S
C392 C387 1.399 . S
C392 C391 1.394 . S
C392 C393 1.516 . S
C393 C392 1.516 . S
C393 C394 1.502 . S
C393 C395 1.561 . S
C393 C396 1.526 . S
C394 H378 0.959 . S
C394 H379 0.959 . S
C394 H380 0.961 . S
C394 C393 1.502 . S
C395 H381 0.960 . S
C395 H382 0.961 . S
C395 H383 0.959 . S
C395 C393 1.561 . S
C396 C393 1.526 . S
C396 C397 1.396 . S
C396 C401 1.390 . S
C397 C391 1.465 . S
C397 C396 1.396 . S
C397 C398 1.399 . S
C398 H384 0.929 . S
C398 C397 1.399 . S
C398 C399 1.385 . S
C399 H385 0.931 . S
C399 C398 1.385 . S
C399 C400 1.389 . S
C400 C399 1.389 . S
C400 C401 1.387 . S
C401 H386 0.930 . S
C401 C396 1.390 . S
C401 C400 1.387 . S
C91 C4 1.597 . S
C103 C68 1.606 . S
C118 C5 1.603 . S
C130 C23 1.602 . S
C145 C30 1.611 . S
C157 C16 1.604 . S
C172 C43 1.610 . S
C184 C31 1.604 . S
C199 C56 1.604 . S
C211 C44 1.603 . S
C226 C75 1.606 . S
C238 C57 1.611 . S
C253 C10 1.457 . S
C265 C55 1.453 . S
C280 C70 1.453 . S
C292 C17 1.457 . S
C307 C36 1.452 . S
C319 C3 1.450 . S
C334 C18 1.454 . S
C346 C49 1.446 1_556 S
C361 C29 1.455 1_554 S
C373 C62 1.454 . S
C388 C69 1.450 . S
C400 C42 1.450 . S
