# Generated by pormake.
# Topology smc, (6)-cn, num edge types: 1
# Building blocks:
#     Node 0, Type 0, BuildingBlock: BETDEL_clean_sbu_0, # of connection points: 6
#     Node 1, Type 0, BuildingBlock: BETDEL_clean_sbu_0, # of connection points: 6
#     Node 2, Type 0, BuildingBlock: BETDEL_clean_sbu_0, # of connection points: 6
#     Node 3, Type 0, BuildingBlock: BETDEL_clean_sbu_0, # of connection points: 6
#     Node 4, Type 0, BuildingBlock: BETDEL_clean_sbu_0, # of connection points: 6
#     Node 5, Type 0, BuildingBlock: BETDEL_clean_sbu_0, # of connection points: 6
#     Node 6, Type 0, BuildingBlock: BETDEL_clean_sbu_0, # of connection points: 6
#     Node 7, Type 0, BuildingBlock: BETDEL_clean_sbu_0, # of connection points: 6
#     Node 8, Type 0, BuildingBlock: BETDEL_clean_sbu_0, # of connection points: 6
#     Edge 9, Type (0, 0), BuildingBlock: UVAHIK_clean_linker_0, # of connection points: 2
#     Edge 10, Type (0, 0), BuildingBlock: UVAHIK_clean_linker_0, # of connection points: 2
#     Edge 11, Type (0, 0), BuildingBlock: UVAHIK_clean_linker_0, # of connection points: 2
#     Edge 12, Type (0, 0), BuildingBlock: UVAHIK_clean_linker_0, # of connection points: 2
#     Edge 13, Type (0, 0), BuildingBlock: UVAHIK_clean_linker_0, # of connection points: 2
#     Edge 14, Type (0, 0), BuildingBlock: UVAHIK_clean_linker_0, # of connection points: 2
#     Edge 15, Type (0, 0), BuildingBlock: UVAHIK_clean_linker_0, # of connection points: 2
#     Edge 16, Type (0, 0), BuildingBlock: UVAHIK_clean_linker_0, # of connection points: 2
#     Edge 17, Type (0, 0), BuildingBlock: UVAHIK_clean_linker_0, # of connection points: 2
#     Edge 18, Type (0, 0), BuildingBlock: UVAHIK_clean_linker_0, # of connection points: 2
#     Edge 19, Type (0, 0), BuildingBlock: UVAHIK_clean_linker_0, # of connection points: 2
#     Edge 20, Type (0, 0), BuildingBlock: UVAHIK_clean_linker_0, # of connection points: 2
#     Edge 21, Type (0, 0), BuildingBlock: UVAHIK_clean_linker_0, # of connection points: 2
#     Edge 22, Type (0, 0), BuildingBlock: UVAHIK_clean_linker_0, # of connection points: 2
#     Edge 23, Type (0, 0), BuildingBlock: UVAHIK_clean_linker_0, # of connection points: 2
#     Edge 24, Type (0, 0), BuildingBlock: UVAHIK_clean_linker_0, # of connection points: 2
#     Edge 25, Type (0, 0), BuildingBlock: UVAHIK_clean_linker_0, # of connection points: 2
#     Edge 26, Type (0, 0), BuildingBlock: UVAHIK_clean_linker_0, # of connection points: 2
#     Edge 27, Type (0, 0), BuildingBlock: UVAHIK_clean_linker_0, # of connection points: 2
#     Edge 28, Type (0, 0), BuildingBlock: UVAHIK_clean_linker_0, # of connection points: 2
#     Edge 29, Type (0, 0), BuildingBlock: UVAHIK_clean_linker_0, # of connection points: 2
#     Edge 30, Type (0, 0), BuildingBlock: UVAHIK_clean_linker_0, # of connection points: 2
#     Edge 31, Type (0, 0), BuildingBlock: UVAHIK_clean_linker_0, # of connection points: 2
#     Edge 32, Type (0, 0), BuildingBlock: UVAHIK_clean_linker_0, # of connection points: 2
#     Edge 33, Type (0, 0), BuildingBlock: UVAHIK_clean_linker_0, # of connection points: 2
#     Edge 34, Type (0, 0), BuildingBlock: UVAHIK_clean_linker_0, # of connection points: 2
#     Edge 35, Type (0, 0), BuildingBlock: UVAHIK_clean_linker_0, # of connection points: 2
# Relax obj value: 0.150
# Max RMSD: 0.259
# Mean RMSD: 0.259
data_MOF--net-smc--node1-BETDEL_clean_sbu_0--edge1-UVAHIK_clean_linker_0
_symmetry_space_group_name_H-M    P1
_symmetry_Int_Tables_number       1
_symmetry_cell_setting            triclinic
loop_
_symmetry_equiv_pos_as_xyz
'x, y, z'
_cell_length_a     40.727849
_cell_length_b     40.696541
_cell_length_c     51.725511
_cell_angle_alpha  90.091135
_cell_angle_beta   90.148645
_cell_angle_gamma 120.17879
loop_
_atom_site_label
_atom_site_type_symbol
_atom_site_fract_x
_atom_site_fract_y
_atom_site_fract_z
_atom_type_partial_charge
Dy0 Dy 0.04291 0.49126 0.02995 0.0
C1 C 0.92541 0.33451 0.02958 0.0
C2 C 0.09089 0.5685 0.03214 0.0
Dy3 Dy 0.98239 0.40853 0.03563 0.0
O4 O 0.07 0.54973 1.01249 0.0
O5 O 0.08597 0.54497 0.05074 0.0
O6 O 0.04987 0.47966 0.98839 0.0
O7 O 0.99609 0.45027 1.00556 0.0
C8 C 0.01466 0.45327 0.98535 0.0
C9 C 0.01259 0.44382 0.08112 0.0
O10 O 0.03367 0.40349 1.02454 0.0
O11 O 0.08077 0.46701 0.03035 0.0
O12 O 0.94252 0.34988 0.05121 0.0
O13 O 0.94068 0.35918 1.01114 0.0
O14 O 0.97688 0.41933 0.07733 0.0
O15 O 0.03034 0.44838 0.06016 0.0
O16 O 0.99388 0.49601 0.04482 0.0
O17 O 0.94636 0.43564 0.03368 0.0
C18 C 0.06996 0.43105 1.02542 0.0
C19 C 0.95764 0.47091 0.04101 0.0
Dy20 Dy 0.53113 0.56768 1.02311 0.0
C21 C 0.68852 0.59823 1.02609 0.0
C22 C 0.45699 0.54677 0.03045 0.0
Dy23 Dy 0.61665 0.5859 0.03161 0.0
O24 O 0.47908 0.57087 1.0131 0.0
O25 O 0.47581 0.53505 0.04429 0.0
O26 O 0.53133 0.5619 0.97884 0.0
O27 O 0.57788 0.57449 1.00092 0.0
C28 C 0.56641 0.56962 0.97811 0.0
C29 C 0.57493 0.57279 0.075 0.0
O30 O 0.62524 0.64466 1.02478 0.0
O31 O 0.56173 0.63048 1.02808 0.0
O32 O 0.67673 0.60918 0.04591 0.0
O33 O 0.66145 0.58204 1.00909 0.0
O34 O 0.60052 0.56297 0.07169 0.0
O35 O 0.57349 0.58958 0.05483 0.0
O36 O 0.52321 0.51026 0.0306 0.0
O37 O 0.58511 0.523 1.02425 0.0
C38 C 0.59874 0.65478 1.02593 0.0
C39 C 0.54819 0.49898 1.02705 0.0
Dy40 Dy 0.45679 0.97448 0.0379 0.0
C41 C 0.44242 0.10892 0.03198 0.0
C42 C 0.48228 0.924 0.03901 0.0
Dy43 Dy 0.44175 0.043 0.04151 0.0
O44 O 0.48301 0.94361 1.01906 0.0
O45 O 0.46689 0.9314 0.05854 0.0
O46 O 0.42718 0.96154 0.99902 0.0
O47 O 0.45938 0.01789 1.0117 0.0
C48 C 0.43813 0.99682 0.99388 0.0
C49 C 0.44177 0.01756 0.08959 0.0
O50 O 0.38268 0.9914 0.0358 0.0
O51 O 0.39638 0.94467 0.04945 0.0
O52 O 0.46596 0.10506 0.04676 0.0
O53 O 0.41702 0.07603 1.02245 0.0
O54 O 0.43637 0.04568 0.08456 0.0
O55 O 0.44744 0.0054 0.06857 0.0
O56 O 0.51548 0.02284 0.0454 0.0
O57 O 0.50456 0.07163 0.03411 0.0
C58 C 0.37198 0.95603 0.04347 0.0
C59 C 0.5279 0.05888 0.03984 0.0
Dy60 Dy 0.7054 0.81618 0.35818 0.0
C61 C 0.58102 0.66279 0.36022 0.0
C62 C 0.7569 0.8923 0.36057 0.0
Dy63 Dy 0.64055 0.73551 0.36554 0.0
O64 O 0.74419 0.87247 0.33949 0.0
O65 O 0.74212 0.87037 0.3805 0.0
O66 O 0.71322 0.80066 0.31788 0.0
O67 O 0.65849 0.77551 0.33384 0.0
C68 C 0.67752 0.77578 0.31454 0.0
C69 C 0.67067 0.77335 0.41037 0.0
O70 O 0.6901 0.7261 0.35704 0.0
O71 O 0.739 0.78797 0.36528 0.0
O72 O 0.59934 0.67764 0.38161 0.0
O73 O 0.5964 0.68717 0.34165 0.0
O74 O 0.63473 0.74959 0.40662 0.0
O75 O 0.68831 0.77517 0.38989 0.0
O76 O 0.65761 0.82674 0.36641 0.0
O77 O 0.60715 0.76532 0.362 0.0
C78 C 0.72672 0.75159 0.36068 0.0
C79 C 0.62079 0.80229 0.36474 0.0
Dy80 Dy 0.18909 0.89448 0.3655 0.0
C81 C 0.34208 0.91691 0.37098 0.0
C82 C 0.1124 0.86542 0.36396 0.0
Dy83 Dy 0.27446 0.91483 0.37443 0.0
O84 O 0.13228 0.86085 0.34626 0.0
O85 O 0.13455 0.88656 0.38263 0.0
O86 O 0.20565 0.91722 0.32504 0.0
O87 O 0.23326 0.89172 0.34315 0.0
C88 C 0.23268 0.90918 0.32322 0.0
C89 C 0.24431 0.91967 0.41966 0.0
O90 O 0.28057 0.97198 0.36463 0.0
O91 O 0.21738 0.95664 0.37179 0.0
O92 O 0.31542 0.89737 0.38749 0.0
O93 O 0.33242 0.93679 0.35626 0.0
O94 O 0.27882 0.92639 0.41724 0.0
O95 O 0.22823 0.91011 0.39783 0.0
O96 O 0.18114 0.83836 0.37766 0.0
O97 O 0.24265 0.85122 0.3703 0.0
C98 C 0.25377 0.98146 0.36764 0.0
C99 C 0.20627 0.82713 0.37497 0.0
Dy100 Dy 0.11753 0.30848 0.36671 0.0
C101 C 0.08455 0.43116 0.35605 0.0
C102 C 0.13583 0.25273 0.37147 0.0
Dy103 Dy 0.09253 0.37119 0.3704 0.0
O104 O 0.11699 0.25594 0.35224 0.0
O105 O 0.1436 0.2793 0.38842 0.0
O106 O 0.13817 0.33049 0.32602 0.0
O107 O 0.09219 0.3327 0.34143 0.0
C108 C 0.11387 0.34186 0.32232 0.0
C109 C 0.10094 0.34989 0.41817 0.0
O110 O 0.03603 0.3173 0.36493 0.0
O111 O 0.05582 0.2739 0.3759 0.0
O112 O 0.06375 0.40606 0.37336 0.0
O113 O 0.10845 0.42244 0.3461 0.0
O114 O 0.09157 0.37559 0.41386 0.0
O115 O 0.10697 0.33934 0.39663 0.0
O116 O 0.17248 0.3592 0.37712 0.0
O117 O 0.15646 0.40489 0.36627 0.0
C118 C 0.02894 0.28259 0.37141 0.0
C119 C 0.18181 0.39472 0.37236 0.0
Dy120 Dy 0.36542 0.14417 0.70367 0.0
C121 C 0.2476 0.99243 0.69145 0.0
C122 C 0.42213 0.21881 0.70591 0.0
Dy123 Dy 0.3096 0.06095 0.70399 0.0
O124 O 0.41634 0.1955 0.68703 0.0
O125 O 0.39755 0.20105 0.72406 0.0
O126 O 0.33963 0.14527 0.66477 0.0
O127 O 0.3455 0.09898 0.67463 0.0
C128 C 0.33364 0.1122 0.6575 0.0
C129 C 0.3406 0.08545 0.75053 0.0
O130 O 0.36301 0.06015 0.69395 0.0
O131 O 0.40235 0.11954 0.71207 0.0
O132 O 0.26847 0.99898 0.71197 0.0
O133 O 0.26144 0.02292 0.67752 0.0
O134 O 0.32822 0.05132 0.74176 0.0
O135 O 0.33177 0.10431 0.73515 0.0
O136 O 0.31609 0.14945 0.71488 0.0
O137 O 0.27188 0.08726 0.70458 0.0
C138 C 0.3965 0.08649 0.70326 0.0
C139 C 0.28076 0.12239 0.7109 0.0
Dy140 Dy 0.86348 0.22517 0.69686 0.0
C141 C 0.01688 0.25698 0.69848 0.0
C142 C 0.78742 0.20016 0.69983 0.0
Dy143 Dy 0.9439 0.24273 0.70339 0.0
O144 O 0.80667 0.20718 0.67863 0.0
O145 O 0.80985 0.20746 0.71958 0.0
O146 O 0.87597 0.24354 0.65532 0.0
O147 O 0.90249 0.21635 0.67268 0.0
C148 C 0.90068 0.23261 0.65243 0.0
C149 C 0.90894 0.23848 0.74862 0.0
O150 O 0.95218 0.30065 0.69233 0.0
O151 O 0.89061 0.28757 0.70066 0.0
O152 O 0.00148 0.25906 0.71989 0.0
O153 O 0.99292 0.24891 0.67967 0.0
O154 O 0.93175 0.22535 0.7448 0.0
O155 O 0.90588 0.25313 0.72785 0.0
O156 O 0.85384 0.16806 0.70833 0.0
O157 O 0.91454 0.17901 0.70159 0.0
C158 C 0.9265 0.31157 0.69496 0.0
C159 C 0.87808 0.15562 0.70638 0.0
Dy160 Dy 0.78464 0.63452 0.68866 0.0
C161 C 0.7457 0.75557 0.69693 0.0
C162 C 0.80726 0.58197 0.69281 0.0
Dy163 Dy 0.76102 0.69755 0.69944 0.0
O164 O 0.7852 0.58246 0.67476 0.0
O165 O 0.81618 0.60969 0.70906 0.0
O166 O 0.79286 0.64525 0.64481 0.0
O167 O 0.77809 0.67604 0.66823 0.0
C168 C 0.78386 0.67169 0.64516 0.0
C169 C 0.77207 0.66518 0.74174 0.0
O170 O 0.70376 0.64577 0.69042 0.0
O171 O 0.72165 0.59892 0.69052 0.0
O172 O 0.74118 0.73505 0.71732 0.0
O173 O 0.75689 0.74311 0.6777 0.0
O174 O 0.78117 0.70068 0.74009 0.0
O175 O 0.75765 0.64896 0.72041 0.0
O176 O 0.83942 0.68493 0.70087 0.0
O177 O 0.82419 0.73225 0.69384 0.0
C178 C 0.69582 0.60968 0.68904 0.0
C179 C 0.84923 0.72106 0.69815 0.0
C180 C 0.39686 0.53955 1.01236 0.0
C181 C 0.41544 0.53044 0.03149 0.0
C182 C 0.35723 0.52095 1.0115 0.0
C183 C 0.27127 0.4673 0.0505 0.0
H184 H 0.22205 0.43445 0.98357 0.0
C185 C 0.11005 0.40468 0.04054 0.0
C186 C 0.10069 0.42282 1.02129 0.0
C187 C 0.14602 0.40797 0.04073 0.0
C188 C 0.23532 0.4434 1.00242 0.0
H189 H 0.40736 0.49557 0.06516 0.0
H190 H 0.3379 0.46341 0.06392 0.0
H191 H 0.29077 0.46259 0.987 0.0
H192 H 0.1199 0.45661 0.98652 0.0
H193 H 0.1821 0.46198 0.98648 0.0
H194 H 0.2161 0.44961 0.06579 0.0
C195 C 0.354 0.48482 0.04953 0.0
C196 C 0.27469 0.45964 1.00436 0.0
C197 C 0.39371 0.50323 0.05025 0.0
C198 C 0.1264 0.44179 1.00126 0.0
C199 C 0.16207 0.44487 1.00131 0.0
C200 C 0.23186 0.45127 0.04854 0.0
C201 C 0.33534 0.49303 0.02987 0.0
C202 C 0.2932 0.47262 1.02831 0.0
C203 C 0.17296 0.42941 1.02164 0.0
C204 C 0.21352 0.44 1.02436 0.0
H205 H 0.41292 0.56037 0.99763 0.0
H206 H 0.34367 0.52839 0.9964 0.0
H207 H 0.28474 0.47715 0.06921 0.0
H208 H 0.09084 0.39062 0.05648 0.0
H209 H 0.1534 0.39539 0.0565 0.0
C210 C 0.51128 0.89091 1.01634 0.0
C211 C 0.49952 0.89966 0.03953 0.0
C212 C 0.52965 0.86976 1.01651 0.0
C213 C 0.5457 0.80416 0.05713 0.0
H214 H 0.62277 0.82455 1.00567 0.0
C215 C 0.61439 0.71178 0.05177 0.0
C216 C 0.60981 0.69497 1.02735 0.0
C217 C 0.61067 0.74391 0.05472 0.0
C218 C 0.60145 0.81869 1.02022 0.0
H219 H 0.49772 0.89337 0.08113 0.0
H220 H 0.53063 0.857 0.08162 0.0
H221 H 0.59539 0.86577 1.00858 0.0
H222 H 0.59976 0.69908 0.98676 0.0
H223 H 0.59429 0.75591 0.99167 0.0
H224 H 0.5516 0.75691 0.0686 0.0
C225 C 0.52505 0.86582 0.06318 0.0
C226 C 0.58549 0.84208 1.0218 0.0
C227 C 0.50624 0.88669 0.06296 0.0
C228 C 0.60444 0.71231 1.00564 0.0
C229 C 0.60108 0.74466 1.00853 0.0
C230 C 0.56195 0.78106 0.05574 0.0
C231 C 0.53716 0.85722 0.03993 0.0
C232 C 0.55674 0.83458 0.03988 0.0
C233 C 0.6023 0.75964 0.03327 0.0
C234 C 0.58945 0.78761 0.03694 0.0
H235 H 0.50632 0.90047 0.99797 0.0
H236 H 0.53763 0.86296 0.99818 0.0
H237 H 0.52334 0.79711 0.07106 0.0
H238 H 0.61757 0.69819 0.06883 0.0
H239 H 0.61202 0.75504 0.07398 0.0
C240 C 0.31805 0.90243 0.0657 0.0
C241 C 0.33168 0.92598 0.04391 0.0
C242 C 0.28515 0.86681 0.06419 0.0
C243 C 0.2336 0.79198 1.01584 0.0
H244 H 0.16706 0.73989 0.07356 0.0
C245 C 0.1187 0.63233 1.01131 0.0
C246 C 0.11526 0.61039 0.03318 0.0
C247 C 0.14115 0.67199 1.01211 0.0
C248 C 0.18557 0.75397 0.05732 0.0
H249 H 0.32059 0.93186 1.00378 0.0
H250 H 0.26231 0.86955 1.00109 0.0
H251 H 0.21007 0.8085 0.07571 0.0
H252 H 0.13248 0.61273 0.07308 0.0
H253 H 0.17197 0.6821 0.07453 0.0
H254 H 0.2096 0.73737 0.99765 0.0
C255 C 0.27727 0.87856 1.01938 0.0
C256 C 0.21015 0.79336 0.0585 0.0
C257 C 0.31023 0.9145 1.02099 0.0
C258 C 0.13464 0.62892 0.05593 0.0
C259 C 0.157 0.66867 0.05679 0.0
C260 C 0.20892 0.75262 1.01463 0.0
C261 C 0.26521 0.85364 0.0407 0.0
C262 C 0.23507 0.81283 0.03798 0.0
C263 C 0.16059 0.69072 0.03486 0.0
C264 C 0.18508 0.73298 0.03554 0.0
H265 H 0.33432 0.91045 0.0835 0.0
H266 H 0.27713 0.84852 0.08096 0.0
H267 H 0.25278 0.80574 0.99985 0.0
H268 H 0.10395 0.61884 0.99351 0.0
H269 H 0.14292 0.68802 0.99495 0.0
C270 C 0.41773 0.15131 1.01654 0.0
C271 C 0.44751 0.14646 1.0257 0.0
C272 C 0.42386 0.18808 1.0123 0.0
C273 C 0.49929 0.28593 0.99956 0.0
H274 H 0.44167 0.31926 0.04038 0.0
C275 C 0.55866 0.44338 1.02406 0.0
C276 C 0.53363 0.45761 1.02495 0.0
C277 C 0.54472 0.40441 1.02112 0.0
C278 C 0.45763 0.31037 1.02844 0.0
H279 H 0.50705 0.17563 0.0367 0.0
H280 H 0.51775 0.23896 1.02876 0.0
H281 H 0.42153 0.25168 0.03842 0.0
H282 H 0.47417 0.44191 1.02338 0.0
H283 H 0.45006 0.37424 1.01785 0.0
H284 H 0.53576 0.34431 0.98981 0.0
C285 C 0.48976 0.21481 1.02504 0.0
C286 C 0.44597 0.27165 1.02729 0.0
C287 C 0.4835 0.17852 0.02976 0.0
C288 C 0.49433 0.43196 1.02296 0.0
C289 C 0.48041 0.39305 1.01985 0.0
C290 C 0.51074 0.32448 1.0005 0.0
C291 C 0.46005 0.22006 1.01651 0.0
C292 C 0.46739 0.25931 1.01347 0.0
C293 C 0.50543 0.37879 1.01879 0.0
C294 C 0.49076 0.33735 1.01561 0.0
H295 H 0.38974 0.12693 1.01332 0.0
H296 H 0.40051 0.19157 1.00577 0.0
H297 H 0.51611 0.27699 0.98861 0.0
H298 H 0.58906 0.46229 1.02565 0.0
H299 H 0.5648 0.39436 1.02095 0.0
C300 C 0.5948 0.07823 0.05238 0.0
C301 C 0.5694 0.08545 0.03852 0.0
C302 C 0.63404 0.10319 0.05084 0.0
C303 C 0.70547 0.20144 1.02889 0.0
H304 H 0.77542 0.16349 0.03581 0.0
C305 C 0.86477 0.2932 1.00603 0.0
C306 C 0.88819 0.29919 1.0276 0.0
C307 C 0.8267 0.26427 1.0062 0.0
C308 C 0.75611 0.17435 0.03385 0.0
H309 H 0.56523 0.12402 1.01168 0.0
H310 H 0.63331 0.16639 1.0079 0.0
H311 H 0.70705 0.11925 0.03819 0.0
H312 H 0.89099 0.27822 0.06553 0.0
H313 H 0.82454 0.22649 0.06537 0.0
H314 H 0.7548 0.25632 1.0236 0.0
C315 C 0.62327 0.14242 1.02087 0.0
C316 C 0.71689 0.14913 0.03544 0.0
C317 C 0.58405 0.11793 1.02288 0.0
C318 C 0.87356 0.2741 0.04862 0.0
C319 C 0.83563 0.2446 0.04855 0.0
C320 C 0.74454 0.22639 1.02673 0.0
C321 C 0.64895 0.13562 0.03494 0.0
C322 C 0.69091 0.16231 0.03308 0.0
C323 C 0.81158 0.24027 1.0277 0.0
C324 C 0.77021 0.21313 0.02927 0.0
H325 H 0.58432 0.05352 0.06473 0.0
H326 H 0.65256 0.09718 0.06242 0.0
H327 H 0.68681 0.21312 1.02765 0.0
H328 H 0.87522 0.31222 0.98961 0.0
H329 H 0.80873 0.26132 0.98985 0.0
C330 C 0.89534 0.46473 1.02885 0.0
C331 C 0.9297 0.48387 0.04262 0.0
C332 C 0.87071 0.47924 1.02808 0.0
C333 C 0.86868 0.5688 0.03951 0.0
H334 H 0.76013 0.50093 0.03222 0.0
C335 C 0.74906 0.60888 0.04638 0.0
C336 C 0.72302 0.59504 1.02574 0.0
C337 C 0.77745 0.59913 0.04832 0.0
C338 C 0.79044 0.52017 0.03416 0.0
H339 H 0.9645 0.5323 0.06731 0.0
H340 H 0.92074 0.55665 0.06704 0.0
H341 H 0.80158 0.47449 0.03805 0.0
H342 H 0.70745 0.56212 0.99021 0.0
H343 H 0.75643 0.5446 0.99393 0.0
H344 H 0.85673 0.61444 0.03649 0.0
C345 C 0.91333 0.53121 0.056 0.0
C346 C 0.81429 0.50508 0.03735 0.0
C347 C 0.9383 0.51706 0.05637 0.0
C348 C 0.72711 0.57317 1.00636 0.0
C349 C 0.75496 0.56295 1.00852 0.0
C350 C 0.84462 0.58388 0.03683 0.0
C351 C 0.87946 0.51287 0.04147 0.0
C352 C 0.85385 0.52913 0.03967 0.0
C353 C 0.77967 0.57498 0.02986 0.0
C354 C 0.8054 0.55964 0.03374 0.0
H355 H 0.88813 0.43933 1.0178 0.0
H356 H 0.84536 0.46459 1.01626 0.0
H357 H 0.89897 0.58832 0.04082 0.0
H358 H 0.74642 0.6257 0.06161 0.0
H359 H 0.79627 0.60871 0.06494 0.0
C360 C 0.76886 0.73221 0.33902 0.0
C361 C 0.75562 0.7402 0.3618 0.0
C362 C 0.80447 0.73469 0.33872 0.0
C363 C 0.88665 0.7511 0.38101 0.0
H364 H 0.94628 0.81159 0.32294 0.0
C365 C 0.05019 0.8477 0.38487 0.0
C366 C 0.0706 0.84708 0.36324 0.0
C367 C 0.01042 0.82871 0.38419 0.0
C368 C 0.92997 0.7943 0.33915 0.0
H369 H 0.76721 0.75422 0.40236 0.0
H370 H 0.82886 0.75864 0.40203 0.0
H371 H 0.8777 0.78421 0.32241 0.0
H372 H 0.0657 0.82636 0.32397 0.0
H373 H 0.99646 0.79373 0.32267 0.0
H374 H 0.93948 0.76286 0.39817 0.0
C375 C 0.81217 0.74999 0.3844 0.0
C376 C 0.89053 0.77829 0.33877 0.0
C377 C 0.77676 0.7475 0.38465 0.0
C378 C 0.05066 0.82743 0.3409 0.0
C379 C 0.01103 0.8088 0.34013 0.0
C380 C 0.92618 0.76744 0.38148 0.0
C381 C 0.82734 0.74544 0.36117 0.0
C382 C 0.86836 0.75706 0.35992 0.0
C383 C 0.99044 0.80909 0.36178 0.0
C384 C 0.94831 0.78975 0.36073 0.0
H385 H 0.75323 0.72718 0.32108 0.0
H386 H 0.81498 0.73033 0.32059 0.0
H387 H 0.87049 0.73445 0.39746 0.0
H388 H 0.0649 0.86254 0.40235 0.0
H389 H 0.99532 0.82981 0.40107 0.0
C390 C 0.17198 0.22612 0.39368 0.0
C391 C 0.15108 0.22657 0.37218 0.0
C392 C 0.18937 0.20394 0.39345 0.0
C393 C 0.22512 0.15836 0.34873 0.0
H394 H 0.21765 0.09681 0.40797 0.0
C395 C 0.251 0.03192 0.34329 0.0
C396 C 0.26297 0.0211 0.36549 0.0
C397 C 0.24592 0.06341 0.34387 0.0
C398 C 0.22087 0.11447 0.39144 0.0
H399 H 0.13146 0.20383 0.33373 0.0
H400 H 0.16168 0.16494 0.33332 0.0
H401 H 0.18954 0.13725 0.40986 0.0
H402 H 0.28072 0.03525 0.40532 0.0
H403 H 0.27333 0.09137 0.40623 0.0
H404 H 0.25617 0.13538 0.3302 0.0
C405 C 0.16495 0.18199 0.35028 0.0
C406 C 0.20447 0.1375 0.3925 0.0
C407 C 0.14733 0.20395 0.35061 0.0
C408 C 0.27239 0.04373 0.38778 0.0
C409 C 0.26741 0.07538 0.38839 0.0
C410 C 0.24177 0.13553 0.34773 0.0
C411 C 0.18648 0.182 0.3716 0.0
C412 C 0.20581 0.1592 0.371 0.0
C413 C 0.25244 0.08457 0.36679 0.0
C414 C 0.23929 0.11273 0.36891 0.0
H415 H 0.17549 0.24345 0.41053 0.0
H416 H 0.20589 0.20472 0.41012 0.0
H417 H 0.22728 0.17531 0.33201 0.0
H418 H 0.24252 0.01415 0.32614 0.0
H419 H 0.23396 0.06919 0.32695 0.0
C420 C 0.96741 0.23905 0.34967 0.0
C421 C 0.98977 0.25054 0.37216 0.0
C422 C 0.93535 0.20259 0.34811 0.0
C423 C 0.86953 0.11704 0.38575 0.0
H424 H 0.87814 0.06148 0.32771 0.0
C425 C 0.79515 0.95314 0.38508 0.0
C426 C 0.78137 0.93404 0.36145 0.0
C427 C 0.81697 0.99287 0.38582 0.0
C428 C 0.87468 0.07651 0.3438 0.0
H429 H 0.99512 0.23468 0.41118 0.0
H430 H 0.93866 0.1717 0.40884 0.0
H431 H 0.91884 0.13015 0.32992 0.0
H432 H 0.77912 0.94124 0.32012 0.0
H433 H 0.81626 0.01036 0.32138 0.0
H434 H 0.82553 0.06343 0.39977 0.0
C435 C 0.9457 0.19044 0.39236 0.0
C436 C 0.89804 0.11598 0.34501 0.0
C437 C 0.97801 0.22648 0.39373 0.0
C438 C 0.78972 0.95526 0.3386 0.0
C439 C 0.81116 0.99493 0.33934 0.0
C440 C 0.84582 0.07757 0.38441 0.0
C441 C 0.925 0.17748 0.36918 0.0
C442 C 0.8962 0.13659 0.36622 0.0
C443 C 0.82511 0.01433 0.36295 0.0
C444 C 0.84857 0.05666 0.36365 0.0
H445 H 0.97639 0.25697 0.33267 0.0
H446 H 0.91974 0.19335 0.33006 0.0
H447 H 0.86741 0.13226 0.40227 0.0
H448 H 0.7891 0.93741 0.40299 0.0
H449 H 0.82778 0.00667 0.40431 0.0
C450 C 0.15612 0.75965 0.38392 0.0
C451 C 0.19248 0.78582 0.37467 0.0
C452 C 0.14211 0.72053 0.38188 0.0
C453 C 0.17297 0.64987 0.36902 0.0
H454 H 0.06618 0.58256 0.35357 0.0
C455 C 0.11707 0.49615 0.33742 0.0
C456 C 0.08802 0.4688 0.353 0.0
C457 C 0.12646 0.53415 0.33862 0.0
C458 C 0.09601 0.60109 0.35796 0.0
H459 H 0.24268 0.79138 0.35605 0.0
H460 H 0.218 0.72354 0.35175 0.0
H461 H 0.09039 0.65057 0.35957 0.0
H462 H 0.04407 0.45907 0.38055 0.0
H463 H 0.06005 0.52577 0.38221 0.0
H464 H 0.17868 0.60048 0.36667 0.0
C465 C 0.20053 0.73298 0.36127 0.0
C466 C 0.10991 0.64001 0.36159 0.0
C467 C 0.21471 0.77203 0.36364 0.0
C468 C 0.06656 0.47961 0.36832 0.0
C469 C 0.07572 0.51771 0.3693 0.0
C470 C 0.1592 0.61119 0.365 0.0
C471 C 0.16396 0.70663 0.37024 0.0
C472 C 0.14867 0.66497 0.36708 0.0
C473 C 0.1067 0.54548 0.35519 0.0
C474 C 0.12067 0.58646 0.35932 0.0
H475 H 0.13834 0.76936 0.39265 0.0
H476 H 0.11416 0.70122 0.38947 0.0
H477 H 0.20272 0.66786 0.37385 0.0
H478 H 0.13401 0.48862 0.32535 0.0
H479 H 0.15011 0.55496 0.32727 0.0
C480 C 0.23716 0.45493 0.35586 0.0
C481 C 0.22266 0.42356 0.37251 0.0
C482 C 0.27641 0.47971 0.35403 0.0
C483 C 0.36885 0.48517 0.3699 0.0
H484 H 0.41011 0.59173 0.35375 0.0
C485 C 0.52756 0.60444 0.38009 0.0
C486 C 0.54281 0.62878 0.35876 0.0
C487 C 0.48902 0.57659 0.38051 0.0
C488 C 0.39887 0.56193 0.35808 0.0
H489 H 0.23751 0.39453 0.40127 0.0
H490 H 0.30549 0.43867 0.39924 0.0
H491 H 0.34172 0.55074 0.35854 0.0
H492 H 0.53033 0.64211 0.32071 0.0
H493 H 0.46287 0.59399 0.32173 0.0
H494 H 0.4266 0.49727 0.37051 0.0
C495 C 0.28704 0.44345 0.38665 0.0
C496 C 0.35963 0.53831 0.36072 0.0
C497 C 0.24795 0.4183 0.38805 0.0
C498 C 0.51935 0.62363 0.33737 0.0
C499 C 0.48074 0.59634 0.338 0.0
C500 C 0.40816 0.50902 0.36777 0.0
C501 C 0.30198 0.47409 0.36921 0.0
C502 C 0.34396 0.49951 0.36661 0.0
C503 C 0.46507 0.57319 0.35981 0.0
C504 C 0.42348 0.54755 0.36172 0.0
H505 H 0.21831 0.45942 0.34345 0.0
H506 H 0.28662 0.50255 0.3401 0.0
H507 H 0.35805 0.45536 0.37384 0.0
H508 H 0.54502 0.60796 0.39687 0.0
H509 H 0.47753 0.55907 0.39756 0.0
C510 C 0.37675 0.88349 0.38227 0.0
C511 C 0.37543 0.91211 0.36793 0.0
C512 C 0.40599 0.87571 0.37865 0.0
C513 C 0.50152 0.9103 0.36653 0.0
H514 H 0.47212 0.81023 0.33942 0.0
C515 C 0.60822 0.85606 0.35894 0.0
C516 C 0.59442 0.81735 0.36401 0.0
C517 C 0.58332 0.87014 0.35684 0.0
C518 C 0.48081 0.83812 0.34726 0.0
H519 H 0.40418 0.95575 0.339 0.0
H520 H 0.45682 0.94273 0.33323 0.0
H521 H 0.4262 0.83202 0.33985 0.0
H522 H 0.54372 0.76324 0.37144 0.0
H523 H 0.5004 0.78797 0.36882 0.0
H524 H 0.5553 0.91572 0.37558 0.0
C525 C 0.43457 0.9262 0.34701 0.0
C526 C 0.45465 0.85073 0.34713 0.0
C527 C 0.40467 0.93363 0.35032 0.0
C528 C 0.55522 0.79315 0.36736 0.0
C529 C 0.53035 0.80733 0.3656 0.0
C530 C 0.52763 0.89749 0.36703 0.0
C531 C 0.43494 0.89674 0.36092 0.0
C532 C 0.46464 0.88663 0.35709 0.0
C533 C 0.54401 0.84597 0.36006 0.0
C534 C 0.51735 0.86089 0.35786 0.0
H535 H 0.35462 0.86632 0.39596 0.0
H536 H 0.40592 0.85304 0.38966 0.0
H537 H 0.5095 0.93788 0.37468 0.0
H538 H 0.63826 0.87545 0.356 0.0
H539 H 0.59491 0.89988 0.3522 0.0
C540 C 0.72425 0.17403 0.67821 0.0
C541 C 0.74589 0.18387 0.70106 0.0
C542 C 0.68477 0.15753 0.67922 0.0
C543 C 0.60856 0.14959 0.72115 0.0
H544 H 0.54244 0.06629 0.67561 0.0
C545 C 0.44842 0.08613 0.7276 0.0
C546 C 0.42913 0.0805 0.70407 0.0
C547 C 0.48495 0.09128 0.72812 0.0
C548 C 0.56052 0.08967 0.68835 0.0
H549 H 0.74341 0.18411 0.74287 0.0
H550 H 0.67434 0.15545 0.74471 0.0
H551 H 0.61106 0.09144 0.67468 0.0
H552 H 0.43164 0.07404 0.66276 0.0
H553 H 0.49616 0.08391 0.66342 0.0
H554 H 0.55865 0.14887 0.73435 0.0
C555 C 0.68789 0.16065 0.72599 0.0
C556 C 0.59982 0.10408 0.68781 0.0
C557 C 0.72739 0.17699 0.72497 0.0
C558 C 0.44585 0.07766 0.68117 0.0
C559 C 0.48284 0.08346 0.6816 0.0
C560 C 0.56944 0.13538 0.7216 0.0
C561 C 0.66613 0.15071 0.70312 0.0
C562 C 0.62427 0.13432 0.70416 0.0
C563 C 0.50339 0.09192 0.70501 0.0
C564 C 0.54484 0.10526 0.7052 0.0
H565 H 0.73782 0.17897 0.65951 0.0
H566 H 0.6689 0.15068 0.66127 0.0
H567 H 0.62663 0.17333 0.73365 0.0
H568 H 0.43599 0.08861 0.74548 0.0
H569 H 0.49944 0.09663 0.74656 0.0
C570 C 0.92928 0.36265 0.66787 0.0
C571 C 0.9365 0.35133 0.69178 0.0
C572 C 0.92326 0.39354 0.66642 0.0
C573 C 0.92736 0.47497 0.70153 0.0
H574 H 0.82976 0.44083 0.66861 0.0
C575 C 0.84486 0.55594 0.71399 0.0
C576 C 0.82335 0.55651 0.69293 0.0
C577 C 0.86169 0.53321 0.7133 0.0
C578 C 0.85739 0.45136 0.67747 0.0
H579 H 0.94507 0.36415 0.73266 0.0
H580 H 0.93571 0.41897 0.7301 0.0
H581 H 0.85847 0.40114 0.66678 0.0
H582 H 0.80292 0.53423 0.65452 0.0
H583 H 0.83305 0.49569 0.65285 0.0
H584 H 0.92643 0.52541 0.71207 0.0
C585 C 0.93501 0.4043 0.71243 0.0
C586 C 0.87387 0.42847 0.67641 0.0
C587 C 0.9407 0.37316 0.71389 0.0
C588 C 0.81897 0.534 0.67118 0.0
C589 C 0.83619 0.51173 0.67031 0.0
C590 C 0.9111 0.49824 0.70229 0.0
C591 C 0.92428 0.41355 0.6889 0.0
C592 C 0.90893 0.43987 0.6885 0.0
C593 C 0.85778 0.51091 0.69136 0.0
C594 C 0.87572 0.48663 0.69038 0.0
H595 H 0.92489 0.34556 0.65072 0.0
H596 H 0.91537 0.40024 0.64799 0.0
H597 H 0.9544 0.48446 0.71104 0.0
H598 H 0.84871 0.57309 0.73101 0.0
H599 H 0.87749 0.53292 0.73008 0.0
C600 C 0.63488 0.56501 0.71019 0.0
C601 C 0.65638 0.57839 0.6875 0.0
C602 C 0.60422 0.52765 0.71138 0.0
C603 C 0.57969 0.43622 0.68259 0.0
H604 H 0.48419 0.39661 0.71899 0.0
C605 C 0.47014 0.27648 0.68251 0.0
C606 C 0.44909 0.26016 0.70503 0.0
C607 C 0.4935 0.31583 0.68054 0.0
C608 C 0.51098 0.40723 0.70903 0.0
H609 H 0.66171 0.56473 0.6479 0.0
H610 H 0.60751 0.5001 0.64957 0.0
H611 H 0.52543 0.46543 0.71413 0.0
H612 H 0.43623 0.27205 0.74332 0.0
H613 H 0.47802 0.34102 0.74024 0.0
H614 H 0.56623 0.37864 0.67801 0.0
C615 C 0.6144 0.51803 0.66656 0.0
C616 C 0.53445 0.44664 0.70612 0.0
C617 C 0.64501 0.55517 0.66544 0.0
C618 C 0.45227 0.28393 0.72576 0.0
C619 C 0.4759 0.32344 0.72386 0.0
C620 C 0.55651 0.39706 0.68565 0.0
C621 C 0.59495 0.5032 0.68992 0.0
C622 C 0.56893 0.46152 0.69265 0.0
C623 C 0.49669 0.33992 0.70114 0.0
C624 C 0.5217 0.38193 0.69873 0.0
H625 H 0.64389 0.58214 0.72764 0.0
H626 H 0.58991 0.51703 0.72968 0.0
H627 H 0.60658 0.44675 0.67275 0.0
H628 H 0.46795 0.25888 0.66611 0.0
H629 H 0.50848 0.3274 0.66258 0.0
C630 C 0.74757 0.80984 0.72089 0.0
C631 C 0.74833 0.79309 0.69731 0.0
C632 C 0.75794 0.84823 0.72197 0.0
C633 C 0.76949 0.92803 0.71829 0.0
H634 H 0.85537 0.99493 0.67546 0.0
C635 C 0.82369 0.08887 0.71006 0.0
C636 C 0.863 0.11402 0.70767 0.0
C637 C 0.80879 0.04957 0.70954 0.0
C638 C 0.83164 0.97674 0.68776 0.0
H639 H 0.75795 0.80247 0.65614 0.0
H640 H 0.77487 0.8691 0.65783 0.0
H641 H 0.82896 0.92655 0.67261 0.0
H642 H 0.91756 0.11734 0.70355 0.0
H643 H 0.89162 0.04866 0.70317 0.0
H644 H 0.77303 0.97837 0.73404 0.0
C645 C 0.76738 0.85301 0.67564 0.0
C646 C 0.81602 0.93739 0.68581 0.0
C647 C 0.75724 0.81471 0.6746 0.0
C648 C 0.88715 0.09883 0.70534 0.0
C649 C 0.87222 0.05942 0.70492 0.0
C650 C 0.78522 0.96743 0.72031 0.0
C651 C 0.76909 0.87061 0.69946 0.0
C652 C 0.7847 0.91248 0.70102 0.0
C653 C 0.83278 0.03427 0.70674 0.0
C654 C 0.81651 0.99232 0.70506 0.0
H655 H 0.74104 0.79389 0.73873 0.0
H656 H 0.75911 0.86077 0.74067 0.0
H657 H 0.74526 0.90976 0.73019 0.0
H658 H 0.80413 0.09945 0.7118 0.0
H659 H 0.77828 0.03121 0.71063 0.0
C660 C 0.91601 0.74144 0.71086 0.0
C661 C 0.89018 0.74959 0.69851 0.0
C662 C 0.95503 0.76694 0.70958 0.0
C663 C 0.02625 0.86681 0.6922 0.0
H664 H 0.09393 0.82576 0.68838 0.0
C665 C 0.18492 0.96056 0.6691 0.0
C666 C 0.20926 0.95931 0.68785 0.0
C667 C 0.14641 0.93299 0.66873 0.0
C668 C 0.07531 0.83754 0.68948 0.0
H669 H 0.88489 0.79095 0.67528 0.0
H670 H 0.953 0.83492 0.67222 0.0
H671 H 0.02555 0.7826 0.69156 0.0
H672 H 0.21321 0.92715 0.71983 0.0
H673 H 0.14582 0.87816 0.71872 0.0
H674 H 0.07623 0.92173 0.68941 0.0
C675 C 0.94323 0.80934 0.68353 0.0
C676 C 0.03612 0.8129 0.69151 0.0
C677 C 0.90411 0.78408 0.6852 0.0
C678 C 0.19501 0.92867 0.70515 0.0
C679 C 0.15653 0.90072 0.70452 0.0
C680 C 0.06534 0.89135 0.68974 0.0
C681 C 0.96927 0.80096 0.69551 0.0
C682 C 0.01104 0.82721 0.69307 0.0
C683 C 0.1317 0.90336 0.68684 0.0
C684 C 0.09022 0.87696 0.68847 0.0
H685 H 0.90608 0.71521 0.72148 0.0
H686 H 0.97399 0.75987 0.71964 0.0
H687 H 0.00809 0.87903 0.69385 0.0
H688 H 0.19518 0.98391 0.65553 0.0
H689 H 0.12789 0.93537 0.65473 0.0
C690 C 0.21998 0.11656 0.69491 0.0
C691 C 0.25105 0.133 0.71196 0.0
C692 C 0.19527 0.13102 0.69321 0.0
C693 C 0.19105 0.21838 0.70987 0.0
H694 H 0.08495 0.15495 0.69123 0.0
C695 C 0.07441 0.26063 0.71873 0.0
C696 C 0.05057 0.25247 0.69712 0.0
C697 C 0.1016 0.24923 0.7193 0.0
C698 C 0.11465 0.17301 0.69625 0.0
H699 H 0.27943 0.17574 0.7417 0.0
H700 H 0.2353 0.19942 0.73996 0.0
H701 H 0.12456 0.12621 0.6965 0.0
H702 H 0.03749 0.22759 0.6587 0.0
H703 H 0.0845 0.207 0.65996 0.0
H704 H 0.18025 0.26485 0.71064 0.0
C705 C 0.23075 0.17664 0.72694 0.0
C706 C 0.13746 0.1566 0.69919 0.0
C707 C 0.25584 0.16275 0.72821 0.0
C708 C 0.05563 0.23441 0.67558 0.0
C709 C 0.08225 0.22236 0.67635 0.0
C710 C 0.168 0.2346 0.70743 0.0
C711 C 0.2007 0.16176 0.70891 0.0
C712 C 0.17605 0.17904 0.70602 0.0
C713 C 0.10482 0.22886 0.69845 0.0
C714 C 0.12965 0.21209 0.70049 0.0
H715 H 0.21593 0.09388 0.68193 0.0
H716 H 0.17283 0.11898 0.67886 0.0
H717 H 0.22077 0.23691 0.71449 0.0
H718 H 0.07093 0.27434 0.73563 0.0
H719 H 0.11867 0.25451 0.73657 0.0
C720 C 0.07776 0.36494 0.29626 0.0
C721 C 0.10848 0.35847 0.29823 0.0
C722 C 0.07074 0.37859 0.27334 0.0
C723 C 0.11323 0.42714 0.2114 0.0
H724 H 0.00804 0.37814 0.18924 0.0
C725 C 0.06556 0.44873 0.10915 0.0
C726 C 0.02975 0.44582 0.10688 0.0
C727 C 0.07799 0.44243 0.13302 0.0
C728 C 0.03753 0.39275 0.19525 0.0
H729 H 0.15653 0.36216 0.2778 0.0
H730 H 0.14422 0.38603 0.23747 0.0
H731 H 0.02438 0.3586 0.22925 0.0
H732 H 0.98021 0.43674 0.12815 0.0
H733 H 0.00233 0.42732 0.1698 0.0
H734 H 0.12628 0.46137 0.17726 0.0
C735 C 0.12565 0.38068 0.25381 0.0
C736 C 0.04693 0.38136 0.21827 0.0
C737 C 0.13262 0.36684 0.27685 0.0
C738 C 0.00784 0.43899 0.12926 0.0
C739 C 0.02038 0.43309 0.1531 0.0
C740 C 0.10377 0.43875 0.18833 0.0
C741 C 0.09423 0.38618 0.25165 0.0
C742 C 0.08485 0.39844 0.22677 0.0
C743 C 0.05502 0.43335 0.15521 0.0
C744 C 0.06569 0.42182 0.17997 0.0
H745 H 0.05866 0.35894 0.3124 0.0
H746 H 0.04671 0.38309 0.27261 0.0
H747 H 0.1427 0.44112 0.21743 0.0
H748 H 0.08301 0.45362 0.09221 0.0
H749 H 0.10472 0.44276 0.13372 0.0
C750 C 0.68598 0.75075 0.27246 0.0
C751 C 0.66156 0.75202 0.29102 0.0
C752 C 0.67137 0.72816 0.25028 0.0
C753 C 0.58563 0.67923 0.20858 0.0
H754 H 0.63588 0.62599 0.18358 0.0
C755 C 0.57557 0.56713 0.12302 0.0
C756 C 0.56948 0.58399 0.10125 0.0
C757 C 0.58007 0.58337 0.14758 0.0
C758 C 0.62103 0.64014 0.1904 0.0
H759 H 0.60264 0.73128 0.30065 0.0
H760 H 0.57694 0.69123 0.26205 0.0
H761 H 0.65746 0.66245 0.22344 0.0
H762 H 0.5606 0.62964 0.08846 0.0
H763 H 0.56888 0.65829 0.13122 0.0
H764 H 0.54904 0.65662 0.17544 0.0
C765 C 0.60746 0.70786 0.26456 0.0
C766 C 0.63386 0.66161 0.21315 0.0
C767 C 0.62214 0.73051 0.28681 0.0
C768 C 0.56509 0.61583 0.10486 0.0
C769 C 0.56989 0.6323 0.12945 0.0
C770 C 0.57278 0.65772 0.18572 0.0
C771 C 0.63191 0.70623 0.24605 0.0
C772 C 0.61667 0.68183 0.22243 0.0
C773 C 0.57892 0.61711 0.15098 0.0
C774 C 0.5905 0.63807 0.17621 0.0
H775 H 0.7165 0.76714 0.2751 0.0
H776 H 0.69113 0.72821 0.23629 0.0
H777 H 0.57182 0.69459 0.21505 0.0
H778 H 0.57889 0.54247 0.12086 0.0
H779 H 0.58593 0.57024 0.16377 0.0
C780 C 0.44663 0.02454 0.13699 0.0
C781 C 0.4343 1.00012 0.11551 0.0
C782 C 0.43017 0.01165 0.16122 0.0
C783 C 0.36176 0.92729 0.19993 0.0
H784 H 0.3402 0.0015 0.23048 0.0
C785 C 0.28407 0.90506 0.29898 0.0
C786 C 0.25765 0.91763 0.30041 0.0
C787 C 0.30738 0.91314 0.27718 0.0
C788 C 0.34571 0.98028 0.22221 0.0
H789 H 0.39721 0.94225 0.10286 0.0
H790 H 0.36729 0.91957 0.14523 0.0
H791 H 0.3788 0.01768 0.19192 0.0
H792 H 0.2346 0.94803 0.28004 0.0
H793 H 0.27475 0.96184 0.24212 0.0
H794 H 0.32733 0.88951 0.23013 0.0
C795 C 0.39021 0.94868 0.14347 0.0
C796 C 0.36846 0.98978 0.20021 0.0
C797 C 0.40738 0.96157 0.11917 0.0
C798 C 0.25482 0.93815 0.27959 0.0
C799 C 0.27804 0.94623 0.25788 0.0
C800 C 0.3389 0.91776 0.22213 0.0
C801 C 0.40013 0.97415 0.16449 0.0
C802 C 0.37687 0.96351 0.18867 0.0
C803 C 0.30482 0.93407 0.25639 0.0
C804 C 0.33031 0.94408 0.23341 0.0
H805 H 0.46733 0.05443 0.13467 0.0
H806 H 0.43951 0.0318 0.17708 0.0
H807 H 0.36765 0.90636 0.19164 0.0
H808 H 0.28674 0.889 0.3147 0.0
H809 H 0.32785 0.90358 0.27682 0.0
C810 C 0.44752 0.04893 0.96357 0.0
C811 C 0.427 0.01046 0.97074 0.0
C812 C 0.43796 0.06158 0.94109 0.0
C813 C 0.38149 0.02401 0.87967 0.0
H814 H 0.40052 0.12709 0.87303 0.0
C815 C 0.31997 0.06632 0.79551 0.0
C816 C 0.34775 0.0923 0.77855 0.0
C817 C 0.32956 0.06193 0.8207 0.0
C818 C 0.3952 0.09829 0.87467 0.0
H819 H 0.37932 0.95542 0.96072 0.0
H820 H 0.36128 0.97742 0.92243 0.0
H821 H 0.41608 0.10688 0.9136 0.0
H822 H 0.40695 0.13544 0.77499 0.0
H823 H 0.42361 0.12873 0.81976 0.0
H824 H 0.35929 0.01521 0.84109 0.0
C825 C 0.38592 0.99785 0.93329 0.0
C826 C 0.4043 0.08662 0.89786 0.0
C827 C 0.39601 0.98512 0.95545 0.0
C828 C 0.38478 0.11603 0.78793 0.0
C829 C 0.39437 0.1119 0.81341 0.0
C830 C 0.37173 0.03544 0.85684 0.0
C831 C 0.40712 0.03618 0.92542 0.0
C832 C 0.3975 0.04917 0.90077 0.0
C833 C 0.36714 0.08355 0.82959 0.0
C834 C 0.37836 0.0726 0.85407 0.0
H835 H 0.47159 0.06916 0.97504 0.0
H836 H 0.45543 0.09113 0.93577 0.0
H837 H 0.3768 0.99541 0.88051 0.0
H838 H 0.29141 0.04715 0.78858 0.0
H839 H 0.30802 0.03997 0.83279 0.0
C840 C 0.02412 0.43035 0.94266 0.0
C841 C -0.00076 0.42941 0.96177 0.0
C842 C 0.01017 0.40744 0.92056 0.0
C843 C 0.92401 0.35285 0.87995 0.0
H844 H 0.9793 0.30487 0.85465 0.0
C845 C 0.91599 0.23895 0.79666 0.0
C846 C 0.90709 0.25308 0.7746 0.0
C847 C 0.92197 0.25724 0.8206 0.0
C848 C 0.96315 0.31762 0.86153 0.0
H849 H 0.94005 0.40441 0.97238 0.0
H850 H 0.91552 0.36396 0.93382 0.0
H851 H 0.00032 0.34283 0.89396 0.0
H852 H 0.89525 0.29631 0.76072 0.0
H853 H 0.90587 0.32844 0.8025 0.0
H854 H 0.88675 0.32738 0.84739 0.0
C855 C 0.94591 0.38253 0.93589 0.0
C856 C 0.97557 0.3399 0.88398 0.0
C857 C 0.95995 0.40544 0.9581 0.0
C858 C 0.90192 0.28459 0.77737 0.0
C859 C 0.90804 0.30302 0.80137 0.0
C860 C 0.91164 0.33062 0.85735 0.0
C861 C 0.97088 0.38302 0.91689 0.0
C862 C 0.95641 0.3581 0.89343 0.0
C863 C 0.91936 0.29031 0.82313 0.0
C864 C 0.93114 0.31278 0.84777 0.0
H865 H 0.05454 0.44862 0.94487 0.0
H866 H 0.03026 0.40912 0.90621 0.0
H867 H 0.90867 0.36661 0.88655 0.0
H868 H 0.91994 0.2146 0.79521 0.0
H869 H 0.92971 0.24603 0.83701 0.0
C870 C 0.72454 0.60997 0.76797 0.0
C871 C 0.75806 0.64559 0.76686 0.0
C872 C 0.70555 0.59613 0.79148 0.0
C873 C 0.71334 0.60656 0.86264 0.0
H874 H 0.60881 0.58353 0.85892 0.0
C875 C 0.6284 0.59763 0.9547 0.0
C876 C 0.58885 0.57357 0.95468 0.0
C877 C 0.64949 0.60268 0.9322 0.0
C878 C 0.63763 0.58898 0.86045 0.0
H879 H 0.79947 0.69307 0.78975 0.0
H880 H 0.767 0.66828 0.83095 0.0
H881 H 0.64553 0.59641 0.81949 0.0
H882 H 0.54025 0.53544 0.93136 0.0
H883 H 0.57688 0.54269 0.89239 0.0
H884 H 0.7055 0.59869 0.90353 0.0
C885 C 0.75516 0.65131 0.81362 0.0
C886 C 0.65877 0.59651 0.83771 0.0
C887 C 0.77381 0.66548 0.79005 0.0
C888 C 0.57075 0.55426 0.93185 0.0
C889 C 0.59185 0.55873 0.90944 0.0
C890 C 0.69199 0.59837 0.8854 0.0
C891 C 0.72005 0.61723 0.81444 0.0
C892 C 0.69699 0.60584 0.83855 0.0
C893 C 0.63156 0.58339 0.90913 0.0
C894 C 0.6539 0.58996 0.88473 0.0
H895 H 0.71151 0.59403 0.75045 0.0
H896 H 0.67874 0.56957 0.79156 0.0
H897 H 0.74268 0.61347 0.86388 0.0
H898 H 0.6429 0.61363 0.97189 0.0
H899 H 0.67973 0.6226 0.9328 0.0
C900 C 0.72582 0.78537 0.43858 0.0
C901 C 0.6879 0.77679 0.43631 0.0
C902 C 0.73974 0.7802 0.4621 0.0
C903 C 0.72482 0.76897 0.53246 0.0
H904 H 0.7654 0.70115 0.5268 0.0
C905 C 0.74818 0.69874 0.62281 0.0
C906 C 0.77683 0.68921 0.62236 0.0
C907 C 0.7399 0.71316 0.6007 0.0
C908 C 0.75501 0.72079 0.52892 0.0
H909 H 0.63589 0.75925 0.45752 0.0
H910 H 0.66066 0.75153 0.49886 0.0
H911 H 0.74812 0.72246 0.48793 0.0
H912 H 0.81971 0.68767 0.5987 0.0
H913 H 0.80687 0.71456 0.5605 0.0
H914 H 0.7324 0.76816 0.57336 0.0
C915 C 0.67936 0.76154 0.48229 0.0
C916 C 0.74488 0.73286 0.50649 0.0
C917 C 0.6652 0.76601 0.45862 0.0
C918 C 0.79743 0.6948 0.59952 0.0
C919 C 0.78972 0.70993 0.57754 0.0
C920 C 0.73565 0.7575 0.55494 0.0
C921 C 0.71634 0.76725 0.48405 0.0
C922 C 0.72934 0.75677 0.50799 0.0
C923 C 0.76044 0.71889 0.57761 0.0
C924 C 0.75055 0.73283 0.55357 0.0
H925 H 0.74419 0.79412 0.42185 0.0
H926 H 0.76852 0.78532 0.46296 0.0
H927 H 0.71311 0.78758 0.53421 0.0
H928 H 0.73109 0.69358 0.63995 0.0
H929 H 0.71656 0.71868 0.6016 0.0
C930 C 0.2228 0.95897 0.44369 0.0
C931 C 0.23136 0.92957 0.44351 0.0
C932 C 0.22353 0.97714 0.46704 0.0
C933 C 0.22846 0.97012 0.53902 0.0
H934 H 0.29187 0.07986 0.53682 0.0
C935 C 0.31217 0.05653 0.6279 0.0
C936 C 0.31568 0.0921 0.63295 0.0
C937 C 0.2952 0.03674 0.60507 0.0
C938 C 0.27356 0.04931 0.53781 0.0
H939 H 0.24564 0.89499 0.4674 0.0
H940 H 0.24558 0.92531 0.50792 0.0
H941 H 0.27082 0.04356 0.49649 0.0
H942 H 0.30436 0.135 0.6178 0.0
H943 H 0.27486 0.10044 0.57748 0.0
H944 H 0.23217 0.97564 0.58025 0.0
C945 C 0.23816 0.93456 0.49035 0.0
C946 C 0.26136 0.02845 0.51463 0.0
C947 C 0.23803 0.91696 0.4671 0.0
C948 C 0.30204 0.10763 0.61444 0.0
C949 C 0.28523 0.08786 0.59136 0.0
C950 C 0.24063 0.9909 0.56211 0.0
C951 C 0.23238 0.96585 0.49059 0.0
C952 C 0.23957 0.98846 0.51494 0.0
C953 C 0.28143 0.05201 0.58645 0.0
C954 C 0.26431 0.03069 0.56185 0.0
H955 H 0.2186 0.96993 0.42568 0.0
H956 H 0.21872 0.001 0.46652 0.0
H957 H 0.21114 0.93945 0.54004 0.0
H958 H 0.32266 0.04386 0.64162 0.0
H959 H 0.29355 0.00965 0.60182 0.0
C960 C 0.9479 0.22372 0.62641 0.0
C961 C 0.92268 0.23771 0.62843 0.0
C962 C 0.96988 0.23033 0.60409 0.0
C963 C 0.97306 0.24958 0.53474 0.0
H964 H 0.08284 0.30218 0.54105 0.0
C965 C 0.07002 0.29058 0.44483 0.0
C966 C 0.09344 0.33023 0.4433 0.0
C967 C 0.05242 0.27348 0.46828 0.0
C968 C 0.05221 0.287 0.53902 0.0
H969 H 0.8996 0.26822 0.60817 0.0
H970 H 0.93687 0.27851 0.5689 0.0
H971 H 0.04345 0.28293 0.58011 0.0
H972 H 0.11922 0.38265 0.46527 0.0
H973 H 0.09043 0.35272 0.50637 0.0
H974 H 0.98172 0.25408 0.49371 0.0
C975 C 0.94015 0.26303 0.58477 0.0
C976 C 0.02969 0.27596 0.56134 0.0
C977 C 0.91887 0.2572 0.60728 0.0
C978 C 0.1017 0.35196 0.46602 0.0
C979 C 0.08505 0.33483 0.48953 0.0
C980 C 0.99551 0.25986 0.51245 0.0
C981 C 0.96619 0.25005 0.58302 0.0
C982 C 0.9899 0.25796 0.55943 0.0
C983 C 0.0589 0.29566 0.4907 0.0
C984 C 0.03536 0.27945 0.51432 0.0
H985 H 0.9507 0.2077 0.64208 0.0
H986 H 0.98947 0.2197 0.60319 0.0
H987 H 0.94247 0.2356 0.5327 0.0
H988 H 0.0628 0.27323 0.42757 0.0
H989 H 0.03246 0.24319 0.46865 0.0
loop_
_geom_bond_atom_site_label_1
_geom_bond_atom_site_label_2
_geom_bond_distance
_geom_bond_site_symmetry_2
_ccdc_geom_bond_type
Dy0 O4 2.398 . S
Dy0 O5 2.491 1_556 S
Dy0 O6 2.403 . S
Dy0 O7 2.664 1_455 S
Dy0 O11 2.326 . S
Dy0 O15 2.310 1_556 S
Dy0 O16 2.351 1_456 S
C1 O12 1.185 . S
C1 O13 1.355 1_554 S
C2 O4 1.205 . S
C2 O5 1.335 1_556 S
Dy3 O7 2.310 1_554 S
Dy3 O10 2.351 1_655 S
Dy3 O12 2.398 . S
Dy3 O13 2.491 1_554 S
Dy3 O14 2.403 . S
Dy3 O15 2.664 1_655 S
Dy3 O17 2.326 . S
O4 Dy0 2.398 . S
O4 C2 1.205 . S
O5 Dy0 2.491 1_554 S
O5 C2 1.335 1_554 S
O6 Dy0 2.403 . S
O6 C8 1.254 . S
O7 Dy0 2.664 1_655 S
O7 Dy3 2.310 1_556 S
O7 C8 1.268 1_655 S
C8 O6 1.254 . S
C8 O7 1.268 1_455 S
C9 O14 1.254 1_455 S
C9 O15 1.268 . S
O10 Dy3 2.351 1_455 S
O10 C18 1.249 1_554 S
O11 Dy0 2.326 . S
O11 C18 1.267 . S
O12 C1 1.185 . S
O12 Dy3 2.398 . S
O13 C1 1.355 1_556 S
O13 Dy3 2.491 1_556 S
O14 Dy3 2.403 . S
O14 C9 1.254 1_655 S
O15 Dy0 2.310 1_554 S
O15 Dy3 2.664 1_455 S
O15 C9 1.268 . S
O16 Dy0 2.351 1_654 S
O16 C19 1.249 . S
O17 Dy3 2.326 . S
O17 C19 1.267 . S
C18 O10 1.249 1_556 S
C18 O11 1.267 . S
C19 O16 1.249 . S
C19 O17 1.267 . S
Dy20 O24 2.398 . S
Dy20 O25 2.491 1_556 S
Dy20 O26 2.403 . S
Dy20 O27 2.664 . S
Dy20 O31 2.326 . S
Dy20 O35 2.310 1_556 S
Dy20 O36 2.351 1_556 S
C21 O32 1.185 . S
C21 O33 1.355 1_554 S
C22 O24 1.205 . S
C22 O25 1.335 1_556 S
Dy23 O27 2.310 1_554 S
Dy23 O30 2.351 . S
Dy23 O32 2.398 . S
Dy23 O33 2.491 1_554 S
Dy23 O34 2.403 . S
Dy23 O35 2.664 . S
Dy23 O37 2.326 . S
O24 Dy20 2.398 . S
O24 C22 1.205 . S
O25 Dy20 2.491 1_554 S
O25 C22 1.335 1_554 S
O26 Dy20 2.403 . S
O26 C28 1.254 . S
O27 Dy20 2.664 . S
O27 Dy23 2.310 1_556 S
O27 C28 1.268 . S
C28 O26 1.254 . S
C28 O27 1.268 . S
C29 O34 1.254 . S
C29 O35 1.268 . S
O30 Dy23 2.351 . S
O30 C38 1.249 1_554 S
O31 Dy20 2.326 . S
O31 C38 1.267 . S
O32 C21 1.185 . S
O32 Dy23 2.398 . S
O33 C21 1.355 1_556 S
O33 Dy23 2.491 1_556 S
O34 Dy23 2.403 . S
O34 C29 1.254 . S
O35 Dy20 2.310 1_554 S
O35 Dy23 2.664 . S
O35 C29 1.268 . S
O36 Dy20 2.351 1_554 S
O36 C39 1.249 . S
O37 Dy23 2.326 . S
O37 C39 1.267 . S
C38 O30 1.249 1_556 S
C38 O31 1.267 . S
C39 O36 1.249 . S
C39 O37 1.267 . S
Dy40 O44 2.398 . S
Dy40 O45 2.491 1_556 S
Dy40 O46 2.403 . S
Dy40 O47 2.664 1_565 S
Dy40 O51 2.326 . S
Dy40 O55 2.310 1_556 S
Dy40 O56 2.351 1_566 S
C41 O52 1.185 . S
C41 O53 1.355 1_554 S
C42 O44 1.205 . S
C42 O45 1.335 1_556 S
Dy43 O47 2.310 1_554 S
Dy43 O50 2.351 1_545 S
Dy43 O52 2.398 . S
Dy43 O53 2.491 1_554 S
Dy43 O54 2.403 . S
Dy43 O55 2.664 1_545 S
Dy43 O57 2.326 . S
O44 Dy40 2.398 . S
O44 C42 1.205 . S
O45 Dy40 2.491 1_554 S
O45 C42 1.335 1_554 S
O46 Dy40 2.403 . S
O46 C48 1.254 1_565 S
O47 Dy40 2.664 1_545 S
O47 Dy43 2.310 1_556 S
O47 C48 1.268 . S
C48 O46 1.254 1_545 S
C48 O47 1.268 . S
C49 O54 1.254 . S
C49 O55 1.268 1_545 S
O50 Dy43 2.351 1_565 S
O50 C58 1.249 1_554 S
O51 Dy40 2.326 . S
O51 C58 1.267 . S
O52 C41 1.185 . S
O52 Dy43 2.398 . S
O53 C41 1.355 1_556 S
O53 Dy43 2.491 1_556 S
O54 Dy43 2.403 . S
O54 C49 1.254 . S
O55 Dy40 2.310 1_554 S
O55 Dy43 2.664 1_565 S
O55 C49 1.268 1_565 S
O56 Dy40 2.351 1_544 S
O56 C59 1.249 . S
O57 Dy43 2.326 . S
O57 C59 1.267 . S
C58 O50 1.249 1_556 S
C58 O51 1.267 . S
C59 O56 1.249 . S
C59 O57 1.267 . S
Dy60 O64 2.398 . S
Dy60 O65 2.491 . S
Dy60 O66 2.403 . S
Dy60 O67 2.664 . S
Dy60 O71 2.326 . S
Dy60 O75 2.310 . S
Dy60 O76 2.351 . S
C61 O72 1.185 . S
C61 O73 1.355 . S
C62 O64 1.185 . S
C62 O65 1.355 . S
Dy63 O67 2.310 . S
Dy63 O70 2.351 . S
Dy63 O72 2.398 . S
Dy63 O73 2.491 . S
Dy63 O74 2.403 . S
Dy63 O75 2.664 . S
Dy63 O77 2.326 . S
O64 Dy60 2.398 . S
O64 C62 1.185 . S
O65 Dy60 2.491 . S
O65 C62 1.355 . S
O66 Dy60 2.403 . S
O66 C68 1.254 . S
O67 Dy60 2.664 . S
O67 Dy63 2.310 . S
O67 C68 1.268 . S
C68 O66 1.254 . S
C68 O67 1.268 . S
C69 O74 1.254 . S
C69 O75 1.268 . S
O70 Dy63 2.351 . S
O70 C78 1.249 . S
O71 Dy60 2.326 . S
O71 C78 1.267 . S
O72 C61 1.185 . S
O72 Dy63 2.398 . S
O73 C61 1.355 . S
O73 Dy63 2.491 . S
O74 Dy63 2.403 . S
O74 C69 1.254 . S
O75 Dy60 2.310 . S
O75 Dy63 2.664 . S
O75 C69 1.268 . S
O76 Dy60 2.351 . S
O76 C79 1.249 . S
O77 Dy63 2.326 . S
O77 C79 1.267 . S
C78 O70 1.249 . S
C78 O71 1.267 . S
C79 O76 1.249 . S
C79 O77 1.267 . S
Dy80 O84 2.398 . S
Dy80 O85 2.491 . S
Dy80 O86 2.403 . S
Dy80 O87 2.664 . S
Dy80 O91 2.326 . S
Dy80 O95 2.310 . S
Dy80 O96 2.351 . S
C81 O92 1.185 . S
C81 O93 1.355 . S
C82 O84 1.185 . S
C82 O85 1.355 . S
Dy83 O87 2.310 . S
Dy83 O90 2.351 . S
Dy83 O92 2.398 . S
Dy83 O93 2.491 . S
Dy83 O94 2.403 . S
Dy83 O95 2.664 . S
Dy83 O97 2.326 . S
O84 Dy80 2.398 . S
O84 C82 1.185 . S
O85 Dy80 2.491 . S
O85 C82 1.355 . S
O86 Dy80 2.403 . S
O86 C88 1.254 . S
O87 Dy80 2.664 . S
O87 Dy83 2.310 . S
O87 C88 1.268 . S
C88 O86 1.254 . S
C88 O87 1.268 . S
C89 O94 1.254 . S
C89 O95 1.268 . S
O90 Dy83 2.351 . S
O90 C98 1.249 . S
O91 Dy80 2.326 . S
O91 C98 1.267 . S
O92 C81 1.185 . S
O92 Dy83 2.398 . S
O93 C81 1.355 . S
O93 Dy83 2.491 . S
O94 Dy83 2.403 . S
O94 C89 1.254 . S
O95 Dy80 2.310 . S
O95 Dy83 2.664 . S
O95 C89 1.268 . S
O96 Dy80 2.351 . S
O96 C99 1.249 . S
O97 Dy83 2.326 . S
O97 C99 1.267 . S
C98 O90 1.249 . S
C98 O91 1.267 . S
C99 O96 1.249 . S
C99 O97 1.267 . S
Dy100 O104 2.398 . S
Dy100 O105 2.491 . S
Dy100 O106 2.403 . S
Dy100 O107 2.664 . S
Dy100 O111 2.326 . S
Dy100 O115 2.310 . S
Dy100 O116 2.351 . S
C101 O112 1.185 . S
C101 O113 1.355 . S
C102 O104 1.185 . S
C102 O105 1.355 . S
Dy103 O107 2.310 . S
Dy103 O110 2.351 . S
Dy103 O112 2.398 . S
Dy103 O113 2.491 . S
Dy103 O114 2.403 . S
Dy103 O115 2.664 . S
Dy103 O117 2.326 . S
O104 Dy100 2.398 . S
O104 C102 1.185 . S
O105 Dy100 2.491 . S
O105 C102 1.355 . S
O106 Dy100 2.403 . S
O106 C108 1.254 . S
O107 Dy100 2.664 . S
O107 Dy103 2.310 . S
O107 C108 1.268 . S
C108 O106 1.254 . S
C108 O107 1.268 . S
C109 O114 1.254 . S
C109 O115 1.268 . S
O110 Dy103 2.351 . S
O110 C118 1.249 . S
O111 Dy100 2.326 . S
O111 C118 1.267 . S
O112 C101 1.185 . S
O112 Dy103 2.398 . S
O113 C101 1.355 . S
O113 Dy103 2.491 . S
O114 Dy103 2.403 . S
O114 C109 1.254 . S
O115 Dy100 2.310 . S
O115 Dy103 2.664 . S
O115 C109 1.268 . S
O116 Dy100 2.351 . S
O116 C119 1.249 . S
O117 Dy103 2.326 . S
O117 C119 1.267 . S
C118 O110 1.249 . S
C118 O111 1.267 . S
C119 O116 1.249 . S
C119 O117 1.267 . S
Dy120 O124 2.398 . S
Dy120 O125 2.491 . S
Dy120 O126 2.403 . S
Dy120 O127 2.664 . S
Dy120 O131 2.326 . S
Dy120 O135 2.310 . S
Dy120 O136 2.351 . S
C121 O132 1.185 . S
C121 O133 1.355 . S
C122 O124 1.185 . S
C122 O125 1.355 . S
Dy123 O127 2.310 . S
Dy123 O130 2.351 . S
Dy123 O132 2.398 . S
Dy123 O133 2.491 . S
Dy123 O134 2.403 . S
Dy123 O135 2.664 . S
Dy123 O137 2.326 . S
O124 Dy120 2.398 . S
O124 C122 1.185 . S
O125 Dy120 2.491 . S
O125 C122 1.355 . S
O126 Dy120 2.403 . S
O126 C128 1.254 . S
O127 Dy120 2.664 . S
O127 Dy123 2.310 . S
O127 C128 1.268 . S
C128 O126 1.254 . S
C128 O127 1.268 . S
C129 O134 1.254 . S
C129 O135 1.268 . S
O130 Dy123 2.351 . S
O130 C138 1.249 . S
O131 Dy120 2.326 . S
O131 C138 1.267 . S
O132 C121 1.185 . S
O132 Dy123 2.398 . S
O133 C121 1.355 . S
O133 Dy123 2.491 . S
O134 Dy123 2.403 . S
O134 C129 1.254 . S
O135 Dy120 2.310 . S
O135 Dy123 2.664 . S
O135 C129 1.268 . S
O136 Dy120 2.351 . S
O136 C139 1.249 . S
O137 Dy123 2.326 . S
O137 C139 1.267 . S
C138 O130 1.249 . S
C138 O131 1.267 . S
C139 O136 1.249 . S
C139 O137 1.267 . S
Dy140 O144 2.398 . S
Dy140 O145 2.491 . S
Dy140 O146 2.403 . S
Dy140 O147 2.664 . S
Dy140 O151 2.326 . S
Dy140 O155 2.310 . S
Dy140 O156 2.351 . S
C141 O152 1.178 1_455 S
C141 O153 1.355 1_455 S
C142 O144 1.185 . S
C142 O145 1.355 . S
Dy143 O147 2.310 . S
Dy143 O150 2.351 . S
Dy143 O152 2.412 . S
Dy143 O153 2.491 . S
Dy143 O154 2.403 . S
Dy143 O155 2.664 . S
Dy143 O157 2.326 . S
O144 Dy140 2.398 . S
O144 C142 1.185 . S
O145 Dy140 2.491 . S
O145 C142 1.355 . S
O146 Dy140 2.403 . S
O146 C148 1.254 . S
O147 Dy140 2.664 . S
O147 Dy143 2.310 . S
O147 C148 1.268 . S
C148 O146 1.254 . S
C148 O147 1.268 . S
C149 O154 1.254 . S
C149 O155 1.268 . S
O150 Dy143 2.351 . S
O150 C158 1.249 . S
O151 Dy140 2.326 . S
O151 C158 1.267 . S
O152 C141 1.178 1_655 S
O152 Dy143 2.412 . S
O153 C141 1.355 1_655 S
O153 Dy143 2.491 . S
O154 Dy143 2.403 . S
O154 C149 1.254 . S
O155 Dy140 2.310 . S
O155 Dy143 2.664 . S
O155 C149 1.268 . S
O156 Dy140 2.351 . S
O156 C159 1.249 . S
O157 Dy143 2.326 . S
O157 C159 1.267 . S
C158 O150 1.249 . S
C158 O151 1.267 . S
C159 O156 1.249 . S
C159 O157 1.267 . S
Dy160 O164 2.398 . S
Dy160 O165 2.491 . S
Dy160 O166 2.403 . S
Dy160 O167 2.664 . S
Dy160 O171 2.326 . S
Dy160 O175 2.310 . S
Dy160 O176 2.351 . S
C161 O172 1.185 . S
C161 O173 1.355 . S
C162 O164 1.185 . S
C162 O165 1.355 . S
Dy163 O167 2.310 . S
Dy163 O170 2.351 . S
Dy163 O172 2.398 . S
Dy163 O173 2.491 . S
Dy163 O174 2.403 . S
Dy163 O175 2.664 . S
Dy163 O177 2.326 . S
O164 Dy160 2.398 . S
O164 C162 1.185 . S
O165 Dy160 2.491 . S
O165 C162 1.355 . S
O166 Dy160 2.403 . S
O166 C168 1.254 . S
O167 Dy160 2.664 . S
O167 Dy163 2.310 . S
O167 C168 1.268 . S
C168 O166 1.254 . S
C168 O167 1.268 . S
C169 O174 1.254 . S
C169 O175 1.268 . S
O170 Dy163 2.351 . S
O170 C178 1.249 . S
O171 Dy160 2.326 . S
O171 C178 1.267 . S
O172 C161 1.185 . S
O172 Dy163 2.398 . S
O173 C161 1.355 . S
O173 Dy163 2.491 . S
O174 Dy163 2.403 . S
O174 C169 1.254 . S
O175 Dy160 2.310 . S
O175 Dy163 2.664 . S
O175 C169 1.268 . S
O176 Dy160 2.351 . S
O176 C179 1.249 . S
O177 Dy163 2.326 . S
O177 C179 1.267 . S
C178 O170 1.249 . S
C178 O171 1.267 . S
C179 O176 1.249 . S
C179 O177 1.267 . S
C180 C181 1.351 . S
C180 C182 1.327 . S
C180 H205 0.950 . S
C181 C180 1.351 . S
C181 C197 1.347 1_556 S
C182 C180 1.327 . S
C182 C201 1.427 . S
C182 H206 0.950 . S
C183 C200 1.574 . S
C183 C202 1.365 . S
C183 H207 0.949 . S
H184 C188 0.949 . S
C185 C186 1.356 . S
C185 C187 1.327 . S
C185 H208 0.950 . S
C186 C185 1.356 . S
C186 C198 1.342 1_554 S
C187 C185 1.327 . S
C187 C203 1.431 . S
C187 H209 0.950 . S
C188 H184 0.949 . S
C188 C196 1.574 . S
C188 C204 1.368 1_556 S
H189 C197 0.950 . S
H190 C195 0.950 . S
H191 C196 0.949 . S
H192 C198 0.950 . S
H193 C199 0.950 . S
H194 C200 0.949 . S
C195 H190 0.950 . S
C195 C197 1.327 . S
C195 C201 1.430 1_554 S
C196 C188 1.574 . S
C196 H191 0.949 . S
C196 C202 1.372 1_556 S
C197 C181 1.347 1_554 S
C197 H189 0.950 . S
C197 C195 1.327 . S
C198 C186 1.342 1_556 S
C198 H192 0.950 . S
C198 C199 1.327 . S
C199 H193 0.950 . S
C199 C198 1.327 . S
C199 C203 1.426 1_556 S
C200 C183 1.574 . S
C200 H194 0.949 . S
C200 C204 1.369 . S
C201 C182 1.427 . S
C201 C195 1.430 1_556 S
C201 C202 1.523 1_556 S
C202 C183 1.365 . S
C202 C196 1.372 1_554 S
C202 C201 1.523 1_554 S
C203 C187 1.431 . S
C203 C199 1.426 1_554 S
C203 C204 1.523 . S
C204 C188 1.368 1_554 S
C204 C200 1.369 . S
C204 C203 1.523 . S
H205 C180 0.950 . S
H206 C182 0.950 . S
H207 C183 0.949 . S
H208 C185 0.950 . S
H209 C187 0.950 . S
C210 C211 1.351 . S
C210 C212 1.327 . S
C210 H235 0.950 . S
C211 C210 1.351 . S
C211 C227 1.347 1_556 S
C212 C210 1.327 . S
C212 C231 1.427 . S
C212 H236 0.950 . S
C213 C230 1.574 . S
C213 C232 1.364 . S
C213 H237 0.949 . S
H214 C218 0.949 . S
C215 C216 1.356 . S
C215 C217 1.327 . S
C215 H238 0.950 . S
C216 C215 1.356 . S
C216 C228 1.342 1_554 S
C217 C215 1.327 . S
C217 C233 1.431 . S
C217 H239 0.950 . S
C218 H214 0.949 . S
C218 C226 1.574 . S
C218 C234 1.368 1_556 S
H219 C227 0.950 . S
H220 C225 0.950 . S
H221 C226 0.949 . S
H222 C228 0.950 . S
H223 C229 0.950 . S
H224 C230 0.949 . S
C225 H220 0.950 . S
C225 C227 1.327 . S
C225 C231 1.430 1_554 S
C226 C218 1.574 . S
C226 H221 0.949 . S
C226 C232 1.372 1_556 S
C227 C211 1.347 1_554 S
C227 H219 0.950 . S
C227 C225 1.327 . S
C228 C216 1.342 1_556 S
C228 H222 0.950 . S
C228 C229 1.327 . S
C229 H223 0.950 . S
C229 C228 1.327 . S
C229 C233 1.426 1_556 S
C230 C213 1.574 . S
C230 H224 0.949 . S
C230 C234 1.369 . S
C231 C212 1.427 . S
C231 C225 1.430 1_556 S
C231 C232 1.523 1_556 S
C232 C213 1.364 . S
C232 C226 1.372 1_554 S
C232 C231 1.523 1_554 S
C233 C217 1.431 . S
C233 C229 1.426 1_554 S
C233 C234 1.523 . S
C234 C218 1.368 1_554 S
C234 C230 1.369 . S
C234 C233 1.523 . S
H235 C210 0.950 . S
H236 C212 0.950 . S
H237 C213 0.949 . S
H238 C215 0.950 . S
H239 C217 0.950 . S
C240 C241 1.356 . S
C240 C242 1.327 . S
C240 H265 0.950 . S
C241 C240 1.356 . S
C241 C257 1.342 1_554 S
C242 C240 1.327 . S
C242 C261 1.431 . S
C242 H266 0.950 . S
C243 C260 1.574 . S
C243 C262 1.368 1_556 S
C243 H267 0.949 . S
H244 C248 0.949 . S
C245 C246 1.351 . S
C245 C247 1.327 . S
C245 H268 0.950 . S
C246 C245 1.351 . S
C246 C258 1.347 1_556 S
C247 C245 1.327 . S
C247 C263 1.427 . S
C247 H269 0.950 . S
C248 H244 0.949 . S
C248 C256 1.574 . S
C248 C264 1.364 . S
H249 C257 0.950 . S
H250 C255 0.950 . S
H251 C256 0.949 . S
H252 C258 0.950 . S
H253 C259 0.950 . S
H254 C260 0.949 . S
C255 H250 0.950 . S
C255 C257 1.327 . S
C255 C261 1.426 1_556 S
C256 C248 1.574 . S
C256 H251 0.949 . S
C256 C262 1.369 . S
C257 C241 1.342 1_556 S
C257 H249 0.950 . S
C257 C255 1.327 . S
C258 C246 1.347 1_554 S
C258 H252 0.950 . S
C258 C259 1.327 . S
C259 H253 0.950 . S
C259 C258 1.327 . S
C259 C263 1.430 1_554 S
C260 C243 1.574 . S
C260 H254 0.949 . S
C260 C264 1.372 1_556 S
C261 C242 1.431 . S
C261 C255 1.426 1_554 S
C261 C262 1.523 . S
C262 C243 1.368 1_554 S
C262 C256 1.369 . S
C262 C261 1.523 . S
C263 C247 1.427 . S
C263 C259 1.430 1_556 S
C263 C264 1.523 1_556 S
C264 C248 1.364 . S
C264 C260 1.372 1_554 S
C264 C263 1.523 1_554 S
H265 C240 0.950 . S
H266 C242 0.950 . S
H267 C243 0.949 . S
H268 C245 0.950 . S
H269 C247 0.950 . S
C270 C271 1.349 1_556 S
C270 C272 1.327 . S
C270 H295 0.950 . S
C271 C270 1.349 1_554 S
C271 C287 1.349 . S
C272 C270 1.327 . S
C272 C291 1.429 1_556 S
C272 H296 0.950 . S
C273 C290 1.574 . S
C273 C292 1.368 . S
C273 H297 0.949 . S
H274 C278 0.949 . S
C275 C276 1.349 . S
C275 C277 1.327 . S
C275 H298 0.950 . S
C276 C275 1.349 . S
C276 C288 1.349 1_554 S
C277 C275 1.327 . S
C277 C293 1.429 . S
C277 H299 0.950 . S
C278 H274 0.949 . S
C278 C286 1.574 . S
C278 C294 1.368 1_556 S
H279 C287 0.950 . S
H280 C285 0.950 . S
H281 C286 0.949 . S
H282 C288 0.950 . S
H283 C289 0.950 . S
H284 C290 0.949 . S
C285 H280 0.950 . S
C285 C287 1.327 . S
C285 C291 1.429 . S
C286 C278 1.574 . S
C286 H281 0.949 . S
C286 C292 1.368 1_556 S
C287 C271 1.349 . S
C287 H279 0.950 . S
C287 C285 1.327 . S
C288 C276 1.349 1_556 S
C288 H282 0.950 . S
C288 C289 1.327 . S
C289 H283 0.950 . S
C289 C288 1.327 . S
C289 C293 1.429 1_556 S
C290 C273 1.574 . S
C290 H284 0.949 . S
C290 C294 1.368 . S
C291 C272 1.429 1_554 S
C291 C285 1.429 . S
C291 C292 1.523 . S
C292 C273 1.368 . S
C292 C286 1.368 1_554 S
C292 C291 1.523 . S
C293 C277 1.429 . S
C293 C289 1.429 1_554 S
C293 C294 1.523 . S
C294 C278 1.368 1_554 S
C294 C290 1.368 . S
C294 C293 1.523 . S
H295 C270 0.950 . S
H296 C272 0.950 . S
H297 C273 0.949 . S
H298 C275 0.950 . S
H299 C277 0.950 . S
C300 C301 1.349 . S
C300 C302 1.327 . S
C300 H325 0.950 . S
C301 C300 1.349 . S
C301 C317 1.349 1_554 S
C302 C300 1.327 . S
C302 C321 1.429 . S
C302 H326 0.950 . S
C303 C320 1.574 . S
C303 C322 1.368 1_556 S
C303 H327 0.949 . S
H304 C308 0.949 . S
C305 C306 1.349 1_556 S
C305 C307 1.327 . S
C305 H328 0.950 . S
C306 C305 1.349 1_554 S
C306 C318 1.349 . S
C307 C305 1.327 . S
C307 C323 1.429 1_556 S
C307 H329 0.950 . S
C308 H304 0.949 . S
C308 C316 1.574 . S
C308 C324 1.368 . S
H309 C317 0.950 . S
H310 C315 0.950 . S
H311 C316 0.949 . S
H312 C318 0.950 . S
H313 C319 0.950 . S
H314 C320 0.949 . S
C315 H310 0.950 . S
C315 C317 1.327 . S
C315 C321 1.429 1_556 S
C316 C308 1.574 . S
C316 H311 0.949 . S
C316 C322 1.368 . S
C317 C301 1.349 1_556 S
C317 H309 0.950 . S
C317 C315 1.327 . S
C318 C306 1.349 . S
C318 H312 0.950 . S
C318 C319 1.327 . S
C319 H313 0.950 . S
C319 C318 1.327 . S
C319 C323 1.429 . S
C320 C303 1.574 . S
C320 H314 0.949 . S
C320 C324 1.368 1_556 S
C321 C302 1.429 . S
C321 C315 1.429 1_554 S
C321 C322 1.523 . S
C322 C303 1.368 1_554 S
C322 C316 1.368 . S
C322 C321 1.523 . S
C323 C307 1.429 1_554 S
C323 C319 1.429 . S
C323 C324 1.523 . S
C324 C308 1.368 . S
C324 C320 1.368 1_554 S
C324 C323 1.523 . S
H325 C300 0.950 . S
H326 C302 0.950 . S
H327 C303 0.949 . S
H328 C305 0.950 . S
H329 C307 0.950 . S
C330 C331 1.349 1_556 S
C330 C332 1.327 . S
C330 H355 0.950 . S
C331 C330 1.349 1_554 S
C331 C347 1.349 . S
C332 C330 1.327 . S
C332 C351 1.429 1_556 S
C332 H356 0.950 . S
C333 C350 1.574 . S
C333 C352 1.368 . S
C333 H357 0.949 . S
H334 C338 0.949 . S
C335 C336 1.349 . S
C335 C337 1.327 . S
C335 H358 0.950 . S
C336 C335 1.349 . S
C336 C348 1.349 1_554 S
C337 C335 1.327 . S
C337 C353 1.429 . S
C337 H359 0.950 . S
C338 H334 0.949 . S
C338 C346 1.574 . S
C338 C354 1.368 1_556 S
H339 C347 0.950 . S
H340 C345 0.950 . S
H341 C346 0.949 . S
H342 C348 0.950 . S
H343 C349 0.950 . S
H344 C350 0.949 . S
C345 H340 0.950 . S
C345 C347 1.327 . S
C345 C351 1.429 . S
C346 C338 1.574 . S
C346 H341 0.949 . S
C346 C352 1.368 1_556 S
C347 C331 1.349 . S
C347 H339 0.950 . S
C347 C345 1.327 . S
C348 C336 1.349 1_556 S
C348 H342 0.950 . S
C348 C349 1.327 . S
C349 H343 0.950 . S
C349 C348 1.327 . S
C349 C353 1.429 1_556 S
C350 C333 1.574 . S
C350 H344 0.949 . S
C350 C354 1.368 . S
C351 C332 1.429 1_554 S
C351 C345 1.429 . S
C351 C352 1.523 . S
C352 C333 1.368 . S
C352 C346 1.368 1_554 S
C352 C351 1.523 . S
C353 C337 1.429 . S
C353 C349 1.429 1_554 S
C353 C354 1.523 . S
C354 C338 1.368 1_554 S
C354 C350 1.368 . S
C354 C353 1.523 . S
H355 C330 0.950 . S
H356 C332 0.950 . S
H357 C333 0.949 . S
H358 C335 0.950 . S
H359 C337 0.950 . S
C360 C361 1.349 . S
C360 C362 1.327 . S
C360 H385 0.950 . S
C361 C360 1.349 . S
C361 C377 1.349 . S
C362 C360 1.327 . S
C362 C381 1.429 . S
C362 H386 0.950 . S
C363 C380 1.574 . S
C363 C382 1.368 . S
C363 H387 0.949 . S
H364 C368 0.949 . S
C365 C366 1.349 . S
C365 C367 1.327 . S
C365 H388 0.950 . S
C366 C365 1.349 . S
C366 C378 1.349 . S
C367 C365 1.327 . S
C367 C383 1.429 . S
C367 H389 0.950 . S
C368 H364 0.949 . S
C368 C376 1.574 . S
C368 C384 1.368 . S
H369 C377 0.950 . S
H370 C375 0.950 . S
H371 C376 0.949 . S
H372 C378 0.950 . S
H373 C379 0.950 . S
H374 C380 0.949 . S
C375 H370 0.950 . S
C375 C377 1.327 . S
C375 C381 1.429 . S
C376 C368 1.574 . S
C376 H371 0.949 . S
C376 C382 1.368 . S
C377 C361 1.349 . S
C377 H369 0.950 . S
C377 C375 1.327 . S
C378 C366 1.349 . S
C378 H372 0.950 . S
C378 C379 1.327 . S
C379 H373 0.950 . S
C379 C378 1.327 . S
C379 C383 1.429 . S
C380 C363 1.574 . S
C380 H374 0.949 . S
C380 C384 1.368 . S
C381 C362 1.429 . S
C381 C375 1.429 . S
C381 C382 1.523 . S
C382 C363 1.368 . S
C382 C376 1.368 . S
C382 C381 1.523 . S
C383 C367 1.429 . S
C383 C379 1.429 . S
C383 C384 1.523 1_455 S
C384 C368 1.368 . S
C384 C380 1.368 . S
C384 C383 1.523 1_655 S
H385 C360 0.950 . S
H386 C362 0.950 . S
H387 C363 0.949 . S
H388 C365 0.950 . S
H389 C367 0.950 . S
C390 C391 1.349 . S
C390 C392 1.327 . S
C390 H415 0.950 . S
C391 C390 1.349 . S
C391 C407 1.349 . S
C392 C390 1.327 . S
C392 C411 1.429 . S
C392 H416 0.950 . S
C393 C410 1.574 . S
C393 C412 1.368 . S
C393 H417 0.949 . S
H394 C398 0.949 . S
C395 C396 1.349 1_545 S
C395 C397 1.327 . S
C395 H418 0.950 . S
C396 C395 1.349 1_565 S
C396 C408 1.349 . S
C397 C395 1.327 . S
C397 C413 1.429 . S
C397 H419 0.950 . S
C398 H394 0.949 . S
C398 C406 1.574 . S
C398 C414 1.368 . S
H399 C407 0.950 . S
H400 C405 0.950 . S
H401 C406 0.949 . S
H402 C408 0.950 . S
H403 C409 0.950 . S
H404 C410 0.949 . S
C405 H400 0.950 . S
C405 C407 1.327 . S
C405 C411 1.429 . S
C406 C398 1.574 . S
C406 H401 0.949 . S
C406 C412 1.368 . S
C407 C391 1.349 . S
C407 H399 0.950 . S
C407 C405 1.327 . S
C408 C396 1.349 . S
C408 H402 0.950 . S
C408 C409 1.327 1_565 S
C409 H403 0.950 . S
C409 C408 1.327 1_545 S
C409 C413 1.429 . S
C410 C393 1.574 . S
C410 H404 0.949 . S
C410 C414 1.368 . S
C411 C392 1.429 . S
C411 C405 1.429 . S
C411 C412 1.523 . S
C412 C393 1.368 . S
C412 C406 1.368 . S
C412 C411 1.523 . S
C413 C397 1.429 . S
C413 C409 1.429 . S
C413 C414 1.523 . S
C414 C398 1.368 . S
C414 C410 1.368 . S
C414 C413 1.523 . S
H415 C390 0.950 . S
H416 C392 0.950 . S
H417 C393 0.949 . S
H418 C395 0.950 . S
H419 C397 0.950 . S
C420 C421 1.349 . S
C420 C422 1.327 . S
C420 H445 0.950 . S
C421 C420 1.349 . S
C421 C437 1.349 . S
C422 C420 1.327 . S
C422 C441 1.429 1_455 S
C422 H446 0.950 . S
C423 C440 1.574 . S
C423 C442 1.368 . S
C423 H447 0.949 . S
H424 C428 0.949 . S
C425 C426 1.349 . S
C425 C427 1.327 . S
C425 H448 0.950 . S
C426 C425 1.349 . S
C426 C438 1.349 . S
C427 C425 1.327 . S
C427 C443 1.429 1_565 S
C427 H449 0.950 1_565 S
C428 H424 0.949 . S
C428 C436 1.574 . S
C428 C444 1.368 . S
H429 C437 0.957 . S
H430 C435 0.950 . S
H431 C436 0.949 . S
H432 C438 0.950 . S
H433 C439 0.950 . S
H434 C440 0.949 . S
C435 H430 0.950 . S
C435 C437 1.327 1_655 S
C435 C441 1.429 . S
C436 C428 1.574 . S
C436 H431 0.949 . S
C436 C442 1.368 . S
C437 C421 1.349 . S
C437 H429 0.957 . S
C437 C435 1.327 1_455 S
C438 C426 1.349 . S
C438 H432 0.950 . S
C438 C439 1.327 . S
C439 H433 0.950 . S
C439 C438 1.327 . S
C439 C443 1.429 1_565 S
C440 C423 1.574 . S
C440 H434 0.949 . S
C440 C444 1.368 . S
C441 C422 1.429 1_655 S
C441 C435 1.429 . S
C441 C442 1.523 . S
C442 C423 1.368 . S
C442 C436 1.368 . S
C442 C441 1.523 . S
C443 C427 1.429 1_545 S
C443 C439 1.429 1_545 S
C443 C444 1.523 . S
C444 C428 1.368 . S
C444 C440 1.368 . S
C444 C443 1.523 . S
H445 C420 0.950 . S
H446 C422 0.950 . S
H447 C423 0.949 . S
H448 C425 0.950 . S
H449 C427 0.950 1_545 S
C450 C451 1.349 . S
C450 C452 1.327 . S
C450 H475 0.950 . S
C451 C450 1.349 . S
C451 C467 1.349 . S
C452 C450 1.327 . S
C452 C471 1.429 . S
C452 H476 0.950 . S
C453 C470 1.574 . S
C453 C472 1.368 . S
C453 H477 0.949 . S
H454 C458 0.949 . S
C455 C456 1.349 . S
C455 C457 1.327 . S
C455 H478 0.950 . S
C456 C455 1.349 . S
C456 C468 1.349 . S
C457 C455 1.327 . S
C457 C473 1.429 . S
C457 H479 0.950 . S
C458 H454 0.949 . S
C458 C466 1.574 . S
C458 C474 1.368 . S
H459 C467 0.950 . S
H460 C465 0.950 . S
H461 C466 0.949 . S
H462 C468 0.950 . S
H463 C469 0.950 . S
H464 C470 0.949 . S
C465 H460 0.950 . S
C465 C467 1.327 . S
C465 C471 1.429 . S
C466 C458 1.574 . S
C466 H461 0.949 . S
C466 C472 1.368 . S
C467 C451 1.349 . S
C467 H459 0.950 . S
C467 C465 1.327 . S
C468 C456 1.349 . S
C468 H462 0.950 . S
C468 C469 1.327 . S
C469 H463 0.950 . S
C469 C468 1.327 . S
C469 C473 1.429 . S
C470 C453 1.574 . S
C470 H464 0.949 . S
C470 C474 1.368 . S
C471 C452 1.429 . S
C471 C465 1.429 . S
C471 C472 1.523 . S
C472 C453 1.368 . S
C472 C466 1.368 . S
C472 C471 1.523 . S
C473 C457 1.429 . S
C473 C469 1.429 . S
C473 C474 1.523 . S
C474 C458 1.368 . S
C474 C470 1.368 . S
C474 C473 1.523 . S
H475 C450 0.950 . S
H476 C452 0.950 . S
H477 C453 0.949 . S
H478 C455 0.950 . S
H479 C457 0.950 . S
C480 C481 1.349 . S
C480 C482 1.327 . S
C480 H505 0.950 . S
C481 C480 1.349 . S
C481 C497 1.349 . S
C482 C480 1.327 . S
C482 C501 1.429 . S
C482 H506 0.950 . S
C483 C500 1.574 . S
C483 C502 1.368 . S
C483 H507 0.949 . S
H484 C488 0.949 . S
C485 C486 1.349 . S
C485 C487 1.327 . S
C485 H508 0.950 . S
C486 C485 1.349 . S
C486 C498 1.349 . S
C487 C485 1.327 . S
C487 C503 1.429 . S
C487 H509 0.950 . S
C488 H484 0.949 . S
C488 C496 1.574 . S
C488 C504 1.368 . S
H489 C497 0.950 . S
H490 C495 0.950 . S
H491 C496 0.949 . S
H492 C498 0.950 . S
H493 C499 0.950 . S
H494 C500 0.949 . S
C495 H490 0.950 . S
C495 C497 1.327 . S
C495 C501 1.429 . S
C496 C488 1.574 . S
C496 H491 0.949 . S
C496 C502 1.368 . S
C497 C481 1.349 . S
C497 H489 0.950 . S
C497 C495 1.327 . S
C498 C486 1.349 . S
C498 H492 0.950 . S
C498 C499 1.327 . S
C499 H493 0.950 . S
C499 C498 1.327 . S
C499 C503 1.429 . S
C500 C483 1.574 . S
C500 H494 0.949 . S
C500 C504 1.368 . S
C501 C482 1.429 . S
C501 C495 1.429 . S
C501 C502 1.523 . S
C502 C483 1.368 . S
C502 C496 1.368 . S
C502 C501 1.523 . S
C503 C487 1.429 . S
C503 C499 1.429 . S
C503 C504 1.523 . S
C504 C488 1.368 . S
C504 C500 1.368 . S
C504 C503 1.523 . S
H505 C480 0.950 . S
H506 C482 0.950 . S
H507 C483 0.949 . S
H508 C485 0.950 . S
H509 C487 0.950 . S
C510 C511 1.349 . S
C510 C512 1.327 . S
C510 H535 0.950 . S
C511 C510 1.349 . S
C511 C527 1.349 . S
C512 C510 1.327 . S
C512 C531 1.429 . S
C512 H536 0.950 . S
C513 C530 1.574 . S
C513 C532 1.368 . S
C513 H537 0.949 . S
H514 C518 0.949 . S
C515 C516 1.349 . S
C515 C517 1.327 . S
C515 H538 0.950 . S
C516 C515 1.349 . S
C516 C528 1.349 . S
C517 C515 1.327 . S
C517 C533 1.429 . S
C517 H539 0.950 . S
C518 H514 0.949 . S
C518 C526 1.574 . S
C518 C534 1.368 . S
H519 C527 0.950 . S
H520 C525 0.950 . S
H521 C526 0.949 . S
H522 C528 0.950 . S
H523 C529 0.950 . S
H524 C530 0.949 . S
C525 H520 0.950 . S
C525 C527 1.327 . S
C525 C531 1.429 . S
C526 C518 1.574 . S
C526 H521 0.949 . S
C526 C532 1.368 . S
C527 C511 1.349 . S
C527 H519 0.950 . S
C527 C525 1.327 . S
C528 C516 1.349 . S
C528 H522 0.950 . S
C528 C529 1.327 . S
C529 H523 0.950 . S
C529 C528 1.327 . S
C529 C533 1.429 . S
C530 C513 1.574 . S
C530 H524 0.949 . S
C530 C534 1.368 . S
C531 C512 1.429 . S
C531 C525 1.429 . S
C531 C532 1.523 . S
C532 C513 1.368 . S
C532 C526 1.368 . S
C532 C531 1.523 . S
C533 C517 1.429 . S
C533 C529 1.429 . S
C533 C534 1.523 . S
C534 C518 1.368 . S
C534 C530 1.368 . S
C534 C533 1.523 . S
H535 C510 0.950 . S
H536 C512 0.950 . S
H537 C513 0.949 . S
H538 C515 0.950 . S
H539 C517 0.950 . S
C540 C541 1.349 . S
C540 C542 1.327 . S
C540 H565 0.950 . S
C541 C540 1.349 . S
C541 C557 1.349 . S
C542 C540 1.327 . S
C542 C561 1.429 . S
C542 H566 0.950 . S
C543 C560 1.574 . S
C543 C562 1.368 . S
C543 H567 0.949 . S
H544 C548 0.949 . S
C545 C546 1.349 . S
C545 C547 1.327 . S
C545 H568 0.950 . S
C546 C545 1.349 . S
C546 C558 1.349 . S
C547 C545 1.327 . S
C547 C563 1.429 . S
C547 H569 0.950 . S
C548 H544 0.949 . S
C548 C556 1.574 . S
C548 C564 1.368 . S
H549 C557 0.950 . S
H550 C555 0.950 . S
H551 C556 0.949 . S
H552 C558 0.950 . S
H553 C559 0.950 . S
H554 C560 0.949 . S
C555 H550 0.950 . S
C555 C557 1.327 . S
C555 C561 1.429 . S
C556 C548 1.574 . S
C556 H551 0.949 . S
C556 C562 1.368 . S
C557 C541 1.349 . S
C557 H549 0.950 . S
C557 C555 1.327 . S
C558 C546 1.349 . S
C558 H552 0.950 . S
C558 C559 1.327 . S
C559 H553 0.950 . S
C559 C558 1.327 . S
C559 C563 1.429 . S
C560 C543 1.574 . S
C560 H554 0.949 . S
C560 C564 1.368 . S
C561 C542 1.429 . S
C561 C555 1.429 . S
C561 C562 1.523 . S
C562 C543 1.368 . S
C562 C556 1.368 . S
C562 C561 1.523 . S
C563 C547 1.429 . S
C563 C559 1.429 . S
C563 C564 1.523 . S
C564 C548 1.368 . S
C564 C560 1.368 . S
C564 C563 1.523 . S
H565 C540 0.950 . S
H566 C542 0.950 . S
H567 C543 0.949 . S
H568 C545 0.950 . S
H569 C547 0.950 . S
C570 C571 1.349 . S
C570 C572 1.327 . S
C570 H595 0.950 . S
C571 C570 1.349 . S
C571 C587 1.349 . S
C572 C570 1.327 . S
C572 C591 1.429 . S
C572 H596 0.950 . S
C573 C590 1.574 . S
C573 C592 1.368 . S
C573 H597 0.949 . S
H574 C578 0.949 . S
C575 C576 1.349 . S
C575 C577 1.327 . S
C575 H598 0.950 . S
C576 C575 1.349 . S
C576 C588 1.349 . S
C577 C575 1.327 . S
C577 C593 1.429 . S
C577 H599 0.950 . S
C578 H574 0.949 . S
C578 C586 1.574 . S
C578 C594 1.368 . S
H579 C587 0.950 . S
H580 C585 0.950 . S
H581 C586 0.949 . S
H582 C588 0.950 . S
H583 C589 0.950 . S
H584 C590 0.949 . S
C585 H580 0.950 . S
C585 C587 1.327 . S
C585 C591 1.429 . S
C586 C578 1.574 . S
C586 H581 0.949 . S
C586 C592 1.368 . S
C587 C571 1.349 . S
C587 H579 0.950 . S
C587 C585 1.327 . S
C588 C576 1.349 . S
C588 H582 0.950 . S
C588 C589 1.327 . S
C589 H583 0.950 . S
C589 C588 1.327 . S
C589 C593 1.429 . S
C590 C573 1.574 . S
C590 H584 0.949 . S
C590 C594 1.368 . S
C591 C572 1.429 . S
C591 C585 1.429 . S
C591 C592 1.523 . S
C592 C573 1.368 . S
C592 C586 1.368 . S
C592 C591 1.523 . S
C593 C577 1.429 . S
C593 C589 1.429 . S
C593 C594 1.523 . S
C594 C578 1.368 . S
C594 C590 1.368 . S
C594 C593 1.523 . S
H595 C570 0.950 . S
H596 C572 0.950 . S
H597 C573 0.949 . S
H598 C575 0.950 . S
H599 C577 0.950 . S
C600 C601 1.349 . S
C600 C602 1.327 . S
C600 H625 0.950 . S
C601 C600 1.349 . S
C601 C617 1.349 . S
C602 C600 1.327 . S
C602 C621 1.429 . S
C602 H626 0.950 . S
C603 C620 1.574 . S
C603 C622 1.368 . S
C603 H627 0.949 . S
H604 C608 0.949 . S
C605 C606 1.349 . S
C605 C607 1.327 . S
C605 H628 0.950 . S
C606 C605 1.349 . S
C606 C618 1.349 . S
C607 C605 1.327 . S
C607 C623 1.429 . S
C607 H629 0.950 . S
C608 H604 0.949 . S
C608 C616 1.574 . S
C608 C624 1.368 . S
H609 C617 0.950 . S
H610 C615 0.950 . S
H611 C616 0.949 . S
H612 C618 0.950 . S
H613 C619 0.950 . S
H614 C620 0.949 . S
C615 H610 0.950 . S
C615 C617 1.327 . S
C615 C621 1.429 . S
C616 C608 1.574 . S
C616 H611 0.949 . S
C616 C622 1.368 . S
C617 C601 1.349 . S
C617 H609 0.950 . S
C617 C615 1.327 . S
C618 C606 1.349 . S
C618 H612 0.950 . S
C618 C619 1.327 . S
C619 H613 0.950 . S
C619 C618 1.327 . S
C619 C623 1.429 . S
C620 C603 1.574 . S
C620 H614 0.949 . S
C620 C624 1.368 . S
C621 C602 1.429 . S
C621 C615 1.429 . S
C621 C622 1.523 . S
C622 C603 1.368 . S
C622 C616 1.368 . S
C622 C621 1.523 . S
C623 C607 1.429 . S
C623 C619 1.429 . S
C623 C624 1.523 . S
C624 C608 1.368 . S
C624 C620 1.368 . S
C624 C623 1.523 . S
H625 C600 0.950 . S
H626 C602 0.950 . S
H627 C603 0.949 . S
H628 C605 0.950 . S
H629 C607 0.950 . S
C630 C631 1.349 . S
C630 C632 1.327 . S
C630 H655 0.950 . S
C631 C630 1.349 . S
C631 C647 1.349 . S
C632 C630 1.327 . S
C632 C651 1.429 . S
C632 H656 0.950 . S
C633 C650 1.574 . S
C633 C652 1.368 . S
C633 H657 0.949 . S
H634 C638 0.949 1_545 S
C635 C636 1.349 . S
C635 C637 1.327 . S
C635 H658 0.950 . S
C636 C635 1.349 . S
C636 C648 1.349 . S
C637 C635 1.327 . S
C637 C653 1.429 . S
C637 H659 0.950 . S
C638 H634 0.949 1_565 S
C638 C646 1.574 . S
C638 C654 1.368 1_565 S
H639 C647 0.950 . S
H640 C645 0.950 . S
H641 C646 0.949 . S
H642 C648 0.950 . S
H643 C649 0.950 . S
H644 C650 0.968 . S
C645 H640 0.950 . S
C645 C647 1.327 . S
C645 C651 1.429 . S
C646 C638 1.574 . S
C646 H641 0.949 . S
C646 C652 1.368 . S
C647 C631 1.349 . S
C647 H639 0.950 . S
C647 C645 1.327 . S
C648 C636 1.349 . S
C648 H642 0.950 . S
C648 C649 1.327 . S
C649 H643 0.950 . S
C649 C648 1.327 . S
C649 C653 1.429 . S
C650 C633 1.574 . S
C650 H644 0.968 . S
C650 C654 1.368 1_565 S
C651 C632 1.429 . S
C651 C645 1.429 . S
C651 C652 1.523 . S
C652 C633 1.368 . S
C652 C646 1.368 . S
C652 C651 1.523 . S
C653 C637 1.429 . S
C653 C649 1.429 . S
C653 C654 1.523 . S
C654 C638 1.368 1_545 S
C654 C650 1.368 1_545 S
C654 C653 1.523 . S
H655 C630 0.950 . S
H656 C632 0.950 . S
H657 C633 0.949 . S
H658 C635 0.950 . S
H659 C637 0.950 . S
C660 C661 1.349 . S
C660 C662 1.327 . S
C660 H685 0.950 . S
C661 C660 1.349 . S
C661 C677 1.349 . S
C662 C660 1.327 . S
C662 C681 1.429 . S
C662 H686 0.950 . S
C663 C680 1.574 . S
C663 C682 1.368 . S
C663 H687 0.949 1_455 S
H664 C668 0.949 . S
C665 C666 1.349 . S
C665 C667 1.327 . S
C665 H688 0.950 1_565 S
C666 C665 1.349 . S
C666 C678 1.349 . S
C667 C665 1.327 . S
C667 C683 1.429 . S
C667 H689 0.950 . S
C668 H664 0.949 . S
C668 C676 1.574 . S
C668 C684 1.368 . S
H669 C677 0.950 . S
H670 C675 0.950 . S
H671 C676 0.949 . S
H672 C678 0.950 . S
H673 C679 0.950 . S
H674 C680 0.949 . S
C675 H670 0.950 . S
C675 C677 1.327 . S
C675 C681 1.429 . S
C676 C668 1.574 . S
C676 H671 0.949 . S
C676 C682 1.368 . S
C677 C661 1.349 . S
C677 H669 0.950 . S
C677 C675 1.327 . S
C678 C666 1.349 . S
C678 H672 0.950 . S
C678 C679 1.327 . S
C679 H673 0.950 . S
C679 C678 1.327 . S
C679 C683 1.429 . S
C680 C663 1.574 . S
C680 H674 0.949 . S
C680 C684 1.368 . S
C681 C662 1.429 . S
C681 C675 1.429 . S
C681 C682 1.523 1_655 S
C682 C663 1.368 . S
C682 C676 1.368 . S
C682 C681 1.523 1_455 S
C683 C667 1.429 . S
C683 C679 1.429 . S
C683 C684 1.523 . S
C684 C668 1.368 . S
C684 C680 1.368 . S
C684 C683 1.523 . S
H685 C660 0.950 . S
H686 C662 0.950 . S
H687 C663 0.949 1_655 S
H688 C665 0.950 1_545 S
H689 C667 0.950 . S
C690 C691 1.349 . S
C690 C692 1.327 . S
C690 H715 0.950 . S
C691 C690 1.349 . S
C691 C707 1.349 . S
C692 C690 1.327 . S
C692 C711 1.429 . S
C692 H716 0.950 . S
C693 C710 1.574 . S
C693 C712 1.368 . S
C693 H717 0.949 . S
H694 C698 0.949 . S
C695 C696 1.349 . S
C695 C697 1.327 . S
C695 H718 0.950 . S
C696 C695 1.349 . S
C696 C708 1.349 . S
C697 C695 1.327 . S
C697 C713 1.429 . S
C697 H719 0.950 . S
C698 H694 0.949 . S
C698 C706 1.574 . S
C698 C714 1.368 . S
H699 C707 0.950 . S
H700 C705 0.950 . S
H701 C706 0.949 . S
H702 C708 0.950 . S
H703 C709 0.950 . S
H704 C710 0.949 . S
C705 H700 0.950 . S
C705 C707 1.327 . S
C705 C711 1.429 . S
C706 C698 1.574 . S
C706 H701 0.949 . S
C706 C712 1.368 . S
C707 C691 1.349 . S
C707 H699 0.950 . S
C707 C705 1.327 . S
C708 C696 1.349 . S
C708 H702 0.950 . S
C708 C709 1.327 . S
C709 H703 0.950 . S
C709 C708 1.327 . S
C709 C713 1.429 . S
C710 C693 1.574 . S
C710 H704 0.949 . S
C710 C714 1.368 . S
C711 C692 1.429 . S
C711 C705 1.429 . S
C711 C712 1.523 . S
C712 C693 1.368 . S
C712 C706 1.368 . S
C712 C711 1.523 . S
C713 C697 1.429 . S
C713 C709 1.429 . S
C713 C714 1.523 . S
C714 C698 1.368 . S
C714 C710 1.368 . S
C714 C713 1.523 . S
H715 C690 0.950 . S
H716 C692 0.950 . S
H717 C693 0.949 . S
H718 C695 0.950 . S
H719 C697 0.950 . S
C720 C721 1.349 . S
C720 C722 1.327 . S
C720 H745 0.950 . S
C721 C720 1.349 . S
C721 C737 1.349 . S
C722 C720 1.327 . S
C722 C741 1.429 . S
C722 H746 0.950 . S
C723 C740 1.574 . S
C723 C742 1.368 . S
C723 H747 0.949 . S
H724 C728 0.949 . S
C725 C726 1.349 . S
C725 C727 1.327 . S
C725 H748 0.950 . S
C726 C725 1.349 . S
C726 C738 1.349 . S
C727 C725 1.327 . S
C727 C743 1.429 . S
C727 H749 0.950 . S
C728 H724 0.949 . S
C728 C736 1.574 . S
C728 C744 1.368 . S
H729 C737 0.950 . S
H730 C735 0.950 . S
H731 C736 0.949 . S
H732 C738 0.950 1_655 S
H733 C739 0.950 1_655 S
H734 C740 0.949 . S
C735 H730 0.950 . S
C735 C737 1.327 . S
C735 C741 1.429 . S
C736 C728 1.574 . S
C736 H731 0.949 . S
C736 C742 1.368 . S
C737 C721 1.349 . S
C737 H729 0.950 . S
C737 C735 1.327 . S
C738 C726 1.349 . S
C738 H732 0.950 1_455 S
C738 C739 1.327 . S
C739 H733 0.950 1_455 S
C739 C738 1.327 . S
C739 C743 1.429 . S
C740 C723 1.574 . S
C740 H734 0.949 . S
C740 C744 1.368 . S
C741 C722 1.429 . S
C741 C735 1.429 . S
C741 C742 1.523 . S
C742 C723 1.368 . S
C742 C736 1.368 . S
C742 C741 1.523 . S
C743 C727 1.429 . S
C743 C739 1.429 . S
C743 C744 1.523 . S
C744 C728 1.368 . S
C744 C740 1.368 . S
C744 C743 1.523 . S
H745 C720 0.950 . S
H746 C722 0.950 . S
H747 C723 0.949 . S
H748 C725 0.950 . S
H749 C727 0.950 . S
C750 C751 1.349 . S
C750 C752 1.327 . S
C750 H775 0.950 . S
C751 C750 1.349 . S
C751 C767 1.349 . S
C752 C750 1.327 . S
C752 C771 1.429 . S
C752 H776 0.950 . S
C753 C770 1.574 . S
C753 C772 1.368 . S
C753 H777 0.949 . S
H754 C758 0.949 . S
C755 C756 1.349 . S
C755 C757 1.327 . S
C755 H778 0.950 . S
C756 C755 1.349 . S
C756 C768 1.349 . S
C757 C755 1.327 . S
C757 C773 1.429 . S
C757 H779 0.950 . S
C758 H754 0.949 . S
C758 C766 1.574 . S
C758 C774 1.368 . S
H759 C767 0.950 . S
H760 C765 0.950 . S
H761 C766 0.949 . S
H762 C768 0.950 . S
H763 C769 0.950 . S
H764 C770 0.949 . S
C765 H760 0.950 . S
C765 C767 1.327 . S
C765 C771 1.429 . S
C766 C758 1.574 . S
C766 H761 0.949 . S
C766 C772 1.368 . S
C767 C751 1.349 . S
C767 H759 0.950 . S
C767 C765 1.327 . S
C768 C756 1.349 . S
C768 H762 0.950 . S
C768 C769 1.327 . S
C769 H763 0.950 . S
C769 C768 1.327 . S
C769 C773 1.429 . S
C770 C753 1.574 . S
C770 H764 0.949 . S
C770 C774 1.368 . S
C771 C752 1.429 . S
C771 C765 1.429 . S
C771 C772 1.523 . S
C772 C753 1.368 . S
C772 C766 1.368 . S
C772 C771 1.523 . S
C773 C757 1.429 . S
C773 C769 1.429 . S
C773 C774 1.523 . S
C774 C758 1.368 . S
C774 C770 1.368 . S
C774 C773 1.523 . S
H775 C750 0.950 . S
H776 C752 0.950 . S
H777 C753 0.949 . S
H778 C755 0.950 . S
H779 C757 0.950 . S
C780 C781 1.349 1_545 S
C780 C782 1.327 1_545 S
C780 H805 0.950 . S
C781 C780 1.349 1_565 S
C781 C797 1.349 . S
C782 C780 1.327 1_565 S
C782 C801 1.429 . S
C782 H806 0.950 1_565 S
C783 C800 1.574 . S
C783 C802 1.368 . S
C783 H807 0.949 . S
H784 C788 0.949 . S
C785 C786 1.349 . S
C785 C787 1.327 . S
C785 H808 0.950 . S
C786 C785 1.349 . S
C786 C798 1.349 . S
C787 C785 1.327 . S
C787 C803 1.429 . S
C787 H809 0.950 . S
C788 H784 0.949 . S
C788 C796 1.574 . S
C788 C804 1.368 . S
H789 C797 0.950 . S
H790 C795 0.950 . S
H791 C796 0.949 . S
H792 C798 0.950 . S
H793 C799 0.950 . S
H794 C800 0.949 . S
C795 H790 0.950 . S
C795 C797 1.327 . S
C795 C801 1.429 . S
C796 C788 1.574 . S
C796 H791 0.949 . S
C796 C802 1.368 . S
C797 C781 1.349 . S
C797 H789 0.950 . S
C797 C795 1.327 . S
C798 C786 1.349 . S
C798 H792 0.950 . S
C798 C799 1.327 . S
C799 H793 0.950 . S
C799 C798 1.327 . S
C799 C803 1.429 . S
C800 C783 1.574 . S
C800 H794 0.949 . S
C800 C804 1.368 . S
C801 C782 1.429 . S
C801 C795 1.429 . S
C801 C802 1.523 . S
C802 C783 1.368 . S
C802 C796 1.368 . S
C802 C801 1.523 . S
C803 C787 1.429 . S
C803 C799 1.429 . S
C803 C804 1.523 . S
C804 C788 1.368 . S
C804 C800 1.368 . S
C804 C803 1.523 . S
H805 C780 0.950 . S
H806 C782 0.950 1_545 S
H807 C783 0.949 . S
H808 C785 0.950 . S
H809 C787 0.950 . S
C810 C811 1.349 . S
C810 C812 1.327 . S
C810 H835 0.950 . S
C811 C810 1.349 . S
C811 C827 1.349 . S
C812 C810 1.327 . S
C812 C831 1.429 . S
C812 H836 0.950 . S
C813 C830 1.574 . S
C813 C832 1.368 . S
C813 H837 0.949 . S
H814 C818 0.949 . S
C815 C816 1.349 . S
C815 C817 1.327 . S
C815 H838 0.950 . S
C816 C815 1.349 . S
C816 C828 1.349 . S
C817 C815 1.327 . S
C817 C833 1.429 . S
C817 H839 0.950 . S
C818 H814 0.949 . S
C818 C826 1.574 . S
C818 C834 1.368 . S
H819 C827 0.950 1_565 S
H820 C825 0.950 1_565 S
H821 C826 0.949 . S
H822 C828 0.950 . S
H823 C829 0.950 . S
H824 C830 0.949 . S
C825 H820 0.950 1_545 S
C825 C827 1.327 . S
C825 C831 1.429 . S
C826 C818 1.574 . S
C826 H821 0.949 . S
C826 C832 1.368 . S
C827 C811 1.349 . S
C827 H819 0.950 1_545 S
C827 C825 1.327 . S
C828 C816 1.349 . S
C828 H822 0.950 . S
C828 C829 1.327 . S
C829 H823 0.950 . S
C829 C828 1.327 . S
C829 C833 1.429 . S
C830 C813 1.574 . S
C830 H824 0.949 . S
C830 C834 1.368 . S
C831 C812 1.429 . S
C831 C825 1.429 . S
C831 C832 1.523 . S
C832 C813 1.368 . S
C832 C826 1.368 . S
C832 C831 1.523 . S
C833 C817 1.429 . S
C833 C829 1.429 . S
C833 C834 1.523 . S
C834 C818 1.368 . S
C834 C830 1.368 . S
C834 C833 1.523 . S
H835 C810 0.950 . S
H836 C812 0.950 . S
H837 C813 0.949 . S
H838 C815 0.950 . S
H839 C817 0.950 . S
C840 C841 1.349 1_455 S
C840 C842 1.327 . S
C840 H865 0.950 . S
C841 C840 1.349 1_655 S
C841 C857 1.349 . S
C842 C840 1.327 . S
C842 C861 1.429 1_455 S
C842 H866 0.950 . S
C843 C860 1.574 . S
C843 C862 1.368 . S
C843 H867 0.949 . S
H844 C848 0.949 . S
C845 C846 1.349 . S
C845 C847 1.327 . S
C845 H868 0.950 . S
C846 C845 1.349 . S
C846 C858 1.349 . S
C847 C845 1.327 . S
C847 C863 1.429 . S
C847 H869 0.950 . S
C848 H844 0.949 . S
C848 C856 1.574 . S
C848 C864 1.368 . S
H849 C857 0.950 . S
H850 C855 0.950 . S
H851 C856 0.949 1_455 S
H852 C858 0.950 . S
H853 C859 0.950 . S
H854 C860 0.949 . S
C855 H850 0.950 . S
C855 C857 1.327 . S
C855 C861 1.429 . S
C856 C848 1.574 . S
C856 H851 0.949 1_655 S
C856 C862 1.368 . S
C857 C841 1.349 . S
C857 H849 0.950 . S
C857 C855 1.327 . S
C858 C846 1.349 . S
C858 H852 0.950 . S
C858 C859 1.327 . S
C859 H853 0.950 . S
C859 C858 1.327 . S
C859 C863 1.429 . S
C860 C843 1.574 . S
C860 H854 0.949 . S
C860 C864 1.368 . S
C861 C842 1.429 1_655 S
C861 C855 1.429 . S
C861 C862 1.523 . S
C862 C843 1.368 . S
C862 C856 1.368 . S
C862 C861 1.523 . S
C863 C847 1.429 . S
C863 C859 1.429 . S
C863 C864 1.523 . S
C864 C848 1.368 . S
C864 C860 1.368 . S
C864 C863 1.523 . S
H865 C840 0.950 . S
H866 C842 0.950 . S
H867 C843 0.949 . S
H868 C845 0.950 . S
H869 C847 0.950 . S
C870 C871 1.349 . S
C870 C872 1.327 . S
C870 H895 0.950 . S
C871 C870 1.349 . S
C871 C887 1.349 . S
C872 C870 1.327 . S
C872 C891 1.429 . S
C872 H896 0.950 . S
C873 C890 1.574 . S
C873 C892 1.368 . S
C873 H897 0.949 . S
H874 C878 0.949 . S
C875 C876 1.349 . S
C875 C877 1.327 . S
C875 H898 0.950 . S
C876 C875 1.349 . S
C876 C888 1.349 . S
C877 C875 1.327 . S
C877 C893 1.429 . S
C877 H899 0.950 . S
C878 H874 0.949 . S
C878 C886 1.574 . S
C878 C894 1.368 . S
H879 C887 0.950 . S
H880 C885 0.950 . S
H881 C886 0.949 . S
H882 C888 0.950 . S
H883 C889 0.950 . S
H884 C890 0.949 . S
C885 H880 0.950 . S
C885 C887 1.327 . S
C885 C891 1.429 . S
C886 C878 1.574 . S
C886 H881 0.949 . S
C886 C892 1.368 . S
C887 C871 1.349 . S
C887 H879 0.950 . S
C887 C885 1.327 . S
C888 C876 1.349 . S
C888 H882 0.950 . S
C888 C889 1.327 . S
C889 H883 0.950 . S
C889 C888 1.327 . S
C889 C893 1.429 . S
C890 C873 1.574 . S
C890 H884 0.949 . S
C890 C894 1.368 . S
C891 C872 1.429 . S
C891 C885 1.429 . S
C891 C892 1.523 . S
C892 C873 1.368 . S
C892 C886 1.368 . S
C892 C891 1.523 . S
C893 C877 1.429 . S
C893 C889 1.429 . S
C893 C894 1.523 . S
C894 C878 1.368 . S
C894 C890 1.368 . S
C894 C893 1.523 . S
H895 C870 0.950 . S
H896 C872 0.950 . S
H897 C873 0.949 . S
H898 C875 0.950 . S
H899 C877 0.950 . S
C900 C901 1.349 . S
C900 C902 1.327 . S
C900 H925 0.950 . S
C901 C900 1.349 . S
C901 C917 1.349 . S
C902 C900 1.327 . S
C902 C921 1.429 . S
C902 H926 0.950 . S
C903 C920 1.574 . S
C903 C922 1.368 . S
C903 H927 0.949 . S
H904 C908 0.949 . S
C905 C906 1.349 . S
C905 C907 1.327 . S
C905 H928 0.950 . S
C906 C905 1.349 . S
C906 C918 1.349 . S
C907 C905 1.327 . S
C907 C923 1.429 . S
C907 H929 0.950 . S
C908 H904 0.949 . S
C908 C916 1.574 . S
C908 C924 1.368 . S
H909 C917 0.950 . S
H910 C915 0.950 . S
H911 C916 0.949 . S
H912 C918 0.950 . S
H913 C919 0.950 . S
H914 C920 0.949 . S
C915 H910 0.950 . S
C915 C917 1.327 . S
C915 C921 1.429 . S
C916 C908 1.574 . S
C916 H911 0.949 . S
C916 C922 1.368 . S
C917 C901 1.349 . S
C917 H909 0.950 . S
C917 C915 1.327 . S
C918 C906 1.349 . S
C918 H912 0.950 . S
C918 C919 1.327 . S
C919 H913 0.950 . S
C919 C918 1.327 . S
C919 C923 1.429 . S
C920 C903 1.574 . S
C920 H914 0.949 . S
C920 C924 1.368 . S
C921 C902 1.429 . S
C921 C915 1.429 . S
C921 C922 1.523 . S
C922 C903 1.368 . S
C922 C916 1.368 . S
C922 C921 1.523 . S
C923 C907 1.429 . S
C923 C919 1.429 . S
C923 C924 1.523 . S
C924 C908 1.368 . S
C924 C920 1.368 . S
C924 C923 1.523 . S
H925 C900 0.950 . S
H926 C902 0.950 . S
H927 C903 0.949 . S
H928 C905 0.950 . S
H929 C907 0.950 . S
C930 C931 1.349 . S
C930 C932 1.327 . S
C930 H955 0.950 . S
C931 C930 1.349 . S
C931 C947 1.349 . S
C932 C930 1.327 . S
C932 C951 1.429 . S
C932 H956 0.950 1_565 S
C933 C950 1.574 . S
C933 C952 1.368 . S
C933 H957 0.949 . S
H934 C938 0.949 . S
C935 C936 1.349 . S
C935 C937 1.327 . S
C935 H958 0.950 . S
C936 C935 1.349 . S
C936 C948 1.349 . S
C937 C935 1.327 . S
C937 C953 1.429 . S
C937 H959 0.950 . S
C938 H934 0.949 . S
C938 C946 1.574 . S
C938 C954 1.368 . S
H939 C947 0.950 . S
H940 C945 0.950 . S
H941 C946 0.949 . S
H942 C948 0.950 . S
H943 C949 0.950 . S
H944 C950 0.949 . S
C945 H940 0.950 . S
C945 C947 1.327 . S
C945 C951 1.429 . S
C946 C938 1.574 . S
C946 H941 0.949 . S
C946 C952 1.368 1_545 S
C947 C931 1.349 . S
C947 H939 0.950 . S
C947 C945 1.327 . S
C948 C936 1.349 . S
C948 H942 0.950 . S
C948 C949 1.327 . S
C949 H943 0.950 . S
C949 C948 1.327 . S
C949 C953 1.429 . S
C950 C933 1.574 . S
C950 H944 0.949 . S
C950 C954 1.368 1_565 S
C951 C932 1.429 . S
C951 C945 1.429 . S
C951 C952 1.523 . S
C952 C933 1.368 . S
C952 C946 1.368 1_565 S
C952 C951 1.523 . S
C953 C937 1.429 . S
C953 C949 1.429 . S
C953 C954 1.523 . S
C954 C938 1.368 . S
C954 C950 1.368 1_545 S
C954 C953 1.523 . S
H955 C930 0.950 . S
H956 C932 0.950 1_545 S
H957 C933 0.949 . S
H958 C935 0.950 . S
H959 C937 0.950 . S
C960 C961 1.349 . S
C960 C962 1.327 . S
C960 H985 0.950 . S
C961 C960 1.349 . S
C961 C977 1.349 . S
C962 C960 1.327 . S
C962 C981 1.429 . S
C962 H986 0.950 1_655 S
C963 C980 1.574 . S
C963 C982 1.368 . S
C963 H987 0.949 . S
H964 C968 0.949 . S
C965 C966 1.349 . S
C965 C967 1.327 . S
C965 H988 0.950 . S
C966 C965 1.349 . S
C966 C978 1.349 . S
C967 C965 1.327 . S
C967 C983 1.429 . S
C967 H989 0.950 . S
C968 H964 0.949 . S
C968 C976 1.574 . S
C968 C984 1.368 . S
H969 C977 0.950 . S
H970 C975 0.950 . S
H971 C976 0.949 . S
H972 C978 0.950 . S
H973 C979 0.950 . S
H974 C980 0.949 . S
C975 H970 0.950 . S
C975 C977 1.327 . S
C975 C981 1.429 . S
C976 C968 1.574 . S
C976 H971 0.949 . S
C976 C982 1.368 1_455 S
C977 C961 1.349 . S
C977 H969 0.950 . S
C977 C975 1.327 . S
C978 C966 1.349 . S
C978 H972 0.950 . S
C978 C979 1.327 . S
C979 H973 0.950 . S
C979 C978 1.327 . S
C979 C983 1.429 . S
C980 C963 1.574 . S
C980 H974 0.949 . S
C980 C984 1.368 1_655 S
C981 C962 1.429 . S
C981 C975 1.429 . S
C981 C982 1.523 . S
C982 C963 1.368 . S
C982 C976 1.368 1_655 S
C982 C981 1.523 . S
C983 C967 1.429 . S
C983 C979 1.429 . S
C983 C984 1.523 . S
C984 C968 1.368 . S
C984 C980 1.368 1_455 S
C984 C983 1.523 . S
H985 C960 0.950 . S
H986 C962 0.950 1_455 S
H987 C963 0.949 . S
H988 C965 0.950 . S
H989 C967 0.950 . S
C181 C22 1.233 . S
C186 C18 1.279 1_554 S
C211 C42 1.233 . S
C216 C38 1.279 1_554 S
C241 C58 1.279 1_554 S
C246 C2 1.233 . S
C271 C41 1.270 . S
C276 C39 1.244 . S
C301 C59 1.244 . S
C306 C1 1.270 . S
C331 C19 1.244 . S
C336 C21 1.270 . S
C361 C78 1.280 . S
C366 C82 1.233 . S
C391 C102 1.233 . S
C396 C98 1.280 . S
C421 C118 1.279 . S
C426 C62 1.233 . S
C451 C99 1.244 . S
C456 C101 1.270 . S
C481 C119 1.244 . S
C486 C61 1.270 . S
C511 C81 1.270 . S
C516 C79 1.244 . S
C541 C142 1.233 . S
C546 C138 1.280 . S
C571 C158 1.280 . S
C576 C162 1.233 . S
C601 C178 1.280 . S
C606 C122 1.233 . S
C631 C161 1.270 . S
C636 C159 1.244 . S
C661 C179 1.244 . S
C666 C121 1.270 1_565 S
C691 C139 1.244 . S
C696 C141 1.270 . S
C721 C108 2.217 . S
C726 C9 2.012 . S
C751 C68 2.217 . S
C756 C29 2.012 . S
C781 C49 2.011 1_565 S
C786 C88 2.216 . S
C811 C48 2.217 . S
C816 C129 2.012 . S
C841 C8 2.217 1_655 S
C846 C149 2.012 . S
C871 C169 2.011 . S
C876 C28 2.216 . S
C901 C69 2.012 . S
C906 C168 2.217 . S
C931 C89 2.012 . S
C936 C128 2.217 . S
C961 C148 2.216 . S
C966 C109 2.011 . S
