# Generated by pormake.
# Topology und, (4)-cn, num edge types: 1
# Building blocks:
#     Node 0, Type 0, BuildingBlock: CEKHIL_clean_sbu_0, # of connection points: 4
#     Node 1, Type 0, BuildingBlock: CEKHIL_clean_sbu_0, # of connection points: 4
#     Node 2, Type 0, BuildingBlock: CEKHIL_clean_sbu_0, # of connection points: 4
#     Node 3, Type 0, BuildingBlock: CEKHIL_clean_sbu_0, # of connection points: 4
#     Node 4, Type 0, BuildingBlock: CEKHIL_clean_sbu_0, # of connection points: 4
#     Node 5, Type 0, BuildingBlock: CEKHIL_clean_sbu_0, # of connection points: 4
#     Node 6, Type 0, BuildingBlock: CEKHIL_clean_sbu_0, # of connection points: 4
#     Node 7, Type 0, BuildingBlock: CEKHIL_clean_sbu_0, # of connection points: 4
#     Node 8, Type 0, BuildingBlock: CEKHIL_clean_sbu_0, # of connection points: 4
#     Node 9, Type 0, BuildingBlock: CEKHIL_clean_sbu_0, # of connection points: 4
#     Node 10, Type 0, BuildingBlock: CEKHIL_clean_sbu_0, # of connection points: 4
#     Node 11, Type 0, BuildingBlock: CEKHIL_clean_sbu_0, # of connection points: 4
#     Node 12, Type 0, BuildingBlock: CEKHIL_clean_sbu_0, # of connection points: 4
#     Node 13, Type 0, BuildingBlock: CEKHIL_clean_sbu_0, # of connection points: 4
#     Node 14, Type 0, BuildingBlock: CEKHIL_clean_sbu_0, # of connection points: 4
#     Node 15, Type 0, BuildingBlock: CEKHIL_clean_sbu_0, # of connection points: 4
#     Edge 16, Type (0, 0), BuildingBlock: XIVTED_clean_linker_0, # of connection points: 2
#     Edge 17, Type (0, 0), BuildingBlock: XIVTED_clean_linker_0, # of connection points: 2
#     Edge 18, Type (0, 0), BuildingBlock: XIVTED_clean_linker_0, # of connection points: 2
#     Edge 19, Type (0, 0), BuildingBlock: XIVTED_clean_linker_0, # of connection points: 2
#     Edge 20, Type (0, 0), BuildingBlock: XIVTED_clean_linker_0, # of connection points: 2
#     Edge 21, Type (0, 0), BuildingBlock: XIVTED_clean_linker_0, # of connection points: 2
#     Edge 22, Type (0, 0), BuildingBlock: XIVTED_clean_linker_0, # of connection points: 2
#     Edge 23, Type (0, 0), BuildingBlock: XIVTED_clean_linker_0, # of connection points: 2
#     Edge 24, Type (0, 0), BuildingBlock: XIVTED_clean_linker_0, # of connection points: 2
#     Edge 25, Type (0, 0), BuildingBlock: XIVTED_clean_linker_0, # of connection points: 2
#     Edge 26, Type (0, 0), BuildingBlock: XIVTED_clean_linker_0, # of connection points: 2
#     Edge 27, Type (0, 0), BuildingBlock: XIVTED_clean_linker_0, # of connection points: 2
#     Edge 28, Type (0, 0), BuildingBlock: XIVTED_clean_linker_0, # of connection points: 2
#     Edge 29, Type (0, 0), BuildingBlock: XIVTED_clean_linker_0, # of connection points: 2
#     Edge 30, Type (0, 0), BuildingBlock: XIVTED_clean_linker_0, # of connection points: 2
#     Edge 31, Type (0, 0), BuildingBlock: XIVTED_clean_linker_0, # of connection points: 2
#     Edge 32, Type (0, 0), BuildingBlock: XIVTED_clean_linker_0, # of connection points: 2
#     Edge 33, Type (0, 0), BuildingBlock: XIVTED_clean_linker_0, # of connection points: 2
#     Edge 34, Type (0, 0), BuildingBlock: XIVTED_clean_linker_0, # of connection points: 2
#     Edge 35, Type (0, 0), BuildingBlock: XIVTED_clean_linker_0, # of connection points: 2
#     Edge 36, Type (0, 0), BuildingBlock: XIVTED_clean_linker_0, # of connection points: 2
#     Edge 37, Type (0, 0), BuildingBlock: XIVTED_clean_linker_0, # of connection points: 2
#     Edge 38, Type (0, 0), BuildingBlock: XIVTED_clean_linker_0, # of connection points: 2
#     Edge 39, Type (0, 0), BuildingBlock: XIVTED_clean_linker_0, # of connection points: 2
#     Edge 40, Type (0, 0), BuildingBlock: XIVTED_clean_linker_0, # of connection points: 2
#     Edge 41, Type (0, 0), BuildingBlock: XIVTED_clean_linker_0, # of connection points: 2
#     Edge 42, Type (0, 0), BuildingBlock: XIVTED_clean_linker_0, # of connection points: 2
#     Edge 43, Type (0, 0), BuildingBlock: XIVTED_clean_linker_0, # of connection points: 2
#     Edge 44, Type (0, 0), BuildingBlock: XIVTED_clean_linker_0, # of connection points: 2
#     Edge 45, Type (0, 0), BuildingBlock: XIVTED_clean_linker_0, # of connection points: 2
#     Edge 46, Type (0, 0), BuildingBlock: XIVTED_clean_linker_0, # of connection points: 2
#     Edge 47, Type (0, 0), BuildingBlock: XIVTED_clean_linker_0, # of connection points: 2
# Relax obj value: 0.006
# Max RMSD: 0.041
# Mean RMSD: 0.041
data_MOF--net-und--node1-CEKHIL_clean_sbu_0--edge1-XIVTED_clean_linker_0
_symmetry_space_group_name_H-M    P1
_symmetry_Int_Tables_number       1
_symmetry_cell_setting            triclinic
loop_
_symmetry_equiv_pos_as_xyz
'x, y, z'
_cell_length_a     59.871649
_cell_length_b     59.906095
_cell_length_c     22.126777
_cell_angle_alpha  90.013864
_cell_angle_beta   90.025269
_cell_angle_gamma 93.445395
loop_
_atom_site_label
_atom_site_type_symbol
_atom_site_fract_x
_atom_site_fract_y
_atom_site_fract_z
_atom_type_partial_charge
Co0 Co 0.24094 0.35133 0.04687 0.0
O1 O 0.23484 0.37398 0.10471 0.0
O2 O 0.21615 0.36854 0.01941 0.0
C3 C 0.24253 0.32423 0.11686 0.0
O4 O 0.24284 0.32834 0.97796 0.0
Co5 Co 0.28583 0.32766 0.05773 0.0
O6 O 0.27063 0.30609 1.00144 0.0
C7 C 0.28491 0.37188 0.99777 0.0
C8 C 0.21851 0.37932 0.07049 0.0
C9 C 0.25414 0.31091 0.96844 0.0
O10 O 0.26359 0.37225 0.00471 0.0
O11 O 0.29661 0.35636 0.01826 0.0
O12 O 0.2234 0.3293 0.09488 0.0
O13 O 0.25964 0.33661 0.09925 0.0
Co14 Co 0.91629 0.02442 0.24917 0.0
O15 O 0.89623 0.03305 0.18718 0.0
O16 O 0.899 0.04912 0.27692 0.0
C17 C 0.94574 0.02328 0.18631 0.0
O18 O 0.93661 0.01968 0.32266 0.0
Co19 Co 0.93755 0.97837 0.23487 0.0
O20 O 0.9569 0.99011 0.30154 0.0
C21 C 0.89021 0.9803 0.27073 0.0
C22 C 0.89004 0.0485 0.22313 0.0
C23 C 0.9525 0.00663 0.33498 0.0
O24 O 0.89292 0.0015 0.28032 0.0
O25 O 0.90525 0.96878 0.24685 0.0
O26 O 0.94075 0.04216 0.21013 0.0
O27 O 0.93198 0.00648 0.19775 0.0
Co28 Co 0.25634 0.6815 0.54647 0.0
O29 O 0.26288 0.65905 0.6045 0.0
O30 O 0.28089 0.66421 0.51806 0.0
C31 C 0.25525 0.70889 0.6159 0.0
O32 O 0.25409 0.7042 0.47708 0.0
Co33 Co 0.21161 0.70525 0.55825 0.0
O34 O 0.22608 0.72631 0.49942 0.0
C35 C 0.21196 0.66051 0.50096 0.0
C36 C 0.27893 0.65359 0.56942 0.0
C37 C 0.24257 0.72141 0.46658 0.0
O38 O 0.23338 0.6604 0.50597 0.0
O39 O 0.20042 0.67607 0.52198 0.0
O40 O 0.27422 0.70371 0.59313 0.0
O41 O 0.238 0.69647 0.59933 0.0
Co42 Co 0.58383 0.00679 0.75041 0.0
O43 O 0.60428 0.99797 0.68974 0.0
O44 O 0.59979 0.98115 0.77812 0.0
C45 C 0.55518 0.00963 0.68567 0.0
O46 O 0.56292 0.01177 0.82218 0.0
Co47 Co 0.56578 0.05418 0.73763 0.0
O48 O 0.54509 0.04308 0.8024 0.0
C49 C 0.6116 0.04939 0.781 0.0
C50 C 0.60951 0.98202 0.72532 0.0
C51 C 0.54795 0.02581 0.8346 0.0
O52 O 0.6075 0.02817 0.78615 0.0
O53 O 0.59804 0.06245 0.7566 0.0
O54 O 0.55933 0.99039 0.70866 0.0
O55 O 0.56951 0.0259 0.69846 0.0
Co56 Co 0.75595 0.68104 0.99861 0.0
O57 O 0.76285 0.65911 0.93954 0.0
O58 O 0.77952 0.66269 0.02836 0.0
C59 C 0.7566 0.70925 0.93139 0.0
O60 O 0.75305 0.70306 0.06933 0.0
Co61 Co 0.71199 0.70598 0.98271 0.0
O62 O 0.7257 0.72584 0.04568 0.0
C63 C 0.71024 0.65986 0.03179 0.0
C64 C 0.77811 0.65274 0.97591 0.0
C65 C 0.74163 0.72034 0.07982 0.0
O66 O 0.73175 0.66005 0.03422 0.0
O67 O 0.69966 0.67564 0.00809 0.0
O68 O 0.7751 0.70341 0.95571 0.0
O69 O 0.73893 0.69701 0.94519 0.0
Co70 Co 0.08541 0.00724 0.78856 0.0
O71 O 0.10823 0.99868 0.84326 0.0
O72 O 0.09974 0.98125 0.75722 0.0
C73 C 0.05932 0.01054 0.86038 0.0
O74 O 0.06212 0.0118 0.7222 0.0
Co75 Co 0.06716 0.05445 0.80358 0.0
O76 O 0.04485 0.04336 0.74262 0.0
C77 C 0.11214 0.04957 0.75363 0.0
C78 C 0.11173 0.98252 0.80641 0.0
C79 C 0.04693 0.02574 0.71123 0.0
O80 O 0.10775 0.02844 0.74695 0.0
O81 O 0.0992 0.06241 0.78131 0.0
O82 O 0.06259 0.99116 0.83686 0.0
O83 O 0.07303 0.02678 0.84341 0.0
Co84 Co 0.74101 0.3506 0.49863 0.0
O85 O 0.73278 0.37086 0.43668 0.0
O86 O 0.71675 0.36845 0.52651 0.0
C87 C 0.74145 0.32113 0.4357 0.0
O88 O 0.74536 0.33017 0.57211 0.0
Co89 Co 0.78654 0.32838 0.48438 0.0
O90 O 0.77478 0.30955 0.55197 0.0
C91 C 0.78564 0.37579 0.52 0.0
C92 C 0.71753 0.37742 0.47275 0.0
C93 C 0.75826 0.31424 0.58507 0.0
O94 O 0.76442 0.37349 0.52968 0.0
O95 O 0.79683 0.36051 0.4961 0.0
O96 O 0.72273 0.32652 0.45965 0.0
O97 O 0.75856 0.33451 0.44714 0.0
Co98 Co 0.41499 0.02679 0.28878 0.0
O99 O 0.39244 0.03502 0.34455 0.0
O100 O 0.39965 0.05221 0.2575 0.0
C101 C 0.44185 0.0246 0.35917 0.0
O102 O 0.43785 0.02232 0.22132 0.0
Co103 Co 0.43415 0.98006 0.30539 0.0
O104 O 0.45569 0.99117 0.24262 0.0
C105 C 0.38881 0.98367 0.25673 0.0
C106 C 0.38811 0.05084 0.30746 0.0
C107 C 0.45315 0.00849 0.2104 0.0
O108 O 0.39276 0.00482 0.2492 0.0
O109 O 0.40216 0.97126 0.28447 0.0
O110 O 0.43791 0.04372 0.33511 0.0
O111 O 0.42831 0.00801 0.34374 0.0
Co112 Co 0.7451 0.85208 0.5399 0.0
O113 O 0.73786 0.87426 0.59803 0.0
O114 O 0.72006 0.86861 0.51139 0.0
C115 C 0.74679 0.82475 0.60902 0.0
O116 O 0.7479 0.82953 0.47041 0.0
Co117 Co 0.79033 0.82939 0.55086 0.0
O118 O 0.77617 0.80779 0.49284 0.0
C119 C 0.78889 0.87411 0.49403 0.0
C120 C 0.72161 0.87918 0.5629 0.0
C121 C 0.75957 0.81243 0.46007 0.0
O122 O 0.76749 0.87379 0.49974 0.0
O123 O 0.80086 0.85872 0.51415 0.0
O124 O 0.72774 0.82951 0.58593 0.0
O125 O 0.76387 0.83753 0.5929 0.0
Co126 Co 0.41352 0.522 0.75477 0.0
O127 O 0.39297 0.5306 0.6939 0.0
O128 O 0.39618 0.54649 0.7838 0.0
C129 C 0.44254 0.52131 0.69054 0.0
O130 O 0.43439 0.51733 0.82721 0.0
Co131 Co 0.43513 0.47629 0.73934 0.0
O132 O 0.4549 0.48803 0.80514 0.0
C133 C 0.38794 0.4777 0.77711 0.0
C134 C 0.38687 0.54591 0.73044 0.0
C135 C 0.45052 0.5045 0.83878 0.0
O136 O 0.39053 0.49891 0.78654 0.0
O137 O 0.40298 0.4663 0.75281 0.0
O138 O 0.43752 0.54003 0.71517 0.0
O139 O 0.42905 0.5043 0.70215 0.0
Co140 Co 0.75556 0.18063 0.04001 0.0
O141 O 0.76387 0.15961 0.09992 0.0
O142 O 0.78181 0.16535 0.01361 0.0
C143 C 0.75172 0.20841 0.10673 0.0
O144 O 0.75143 0.20229 0.9694 0.0
Co145 Co 0.70807 0.19852 0.04898 0.0
O146 O 0.71984 0.21995 0.98677 0.0
C147 C 0.71357 0.15299 0.00426 0.0
C148 C 0.78047 0.15512 0.06567 0.0
C149 C 0.73761 0.2174 0.95638 0.0
O150 O 0.73483 0.1572 1.00079 0.0
O151 O 0.7002 0.16635 0.02821 0.0
O152 O 0.77124 0.20466 0.08478 0.0
O153 O 0.73562 0.19423 0.09147 0.0
Co154 Co 0.08354 0.51112 0.25338 0.0
O155 O 0.10397 0.50291 0.19182 0.0
O156 O 0.10134 0.48683 0.28151 0.0
C157 C 0.05421 0.51148 0.18989 0.0
O158 O 0.06287 0.51546 0.32645 0.0
Co159 Co 0.06114 0.55651 0.23874 0.0
O160 O 0.04142 0.544 0.30366 0.0
C161 C 0.10845 0.55581 0.27643 0.0
C162 C 0.1104 0.4876 0.22786 0.0
C163 C 0.0463 0.52779 0.33763 0.0
O164 O 0.10634 0.53452 0.28493 0.0
O165 O 0.0931 0.56701 0.25285 0.0
O166 O 0.05959 0.49281 0.21405 0.0
O167 O 0.06753 0.52863 0.20143 0.0
Co168 Co 0.25829 0.18173 0.50762 0.0
O169 O 0.26675 0.15969 0.45068 0.0
O170 O 0.28419 0.16674 0.53745 0.0
C171 C 0.25526 0.20885 0.43855 0.0
O172 O 0.25355 0.2041 0.57616 0.0
Co173 Co 0.21101 0.20004 0.4931 0.0
O174 O 0.22233 0.22189 0.55494 0.0
C175 C 0.21579 0.15467 0.54036 0.0
C176 C 0.28283 0.15544 0.48706 0.0
C177 C 0.23968 0.21935 0.58715 0.0
O178 O 0.23694 0.15893 0.5469 0.0
O179 O 0.20291 0.16789 0.51382 0.0
O180 O 0.2746 0.20515 0.46179 0.0
O181 O 0.23897 0.19492 0.45385 0.0
Co182 Co 0.5839 0.51128 0.29531 0.0
O183 O 0.6055 0.5037 0.35455 0.0
O184 O 0.60134 0.4869 0.2661 0.0
C185 C 0.55577 0.51174 0.36252 0.0
O186 O 0.56194 0.51486 0.22463 0.0
Co187 Co 0.56108 0.55635 0.31068 0.0
O188 O 0.54076 0.54358 0.24742 0.0
C189 C 0.60757 0.55605 0.26551 0.0
C190 C 0.61131 0.4881 0.31855 0.0
C191 C 0.54529 0.52713 0.21391 0.0
O192 O 0.60586 0.53462 0.25989 0.0
O193 O 0.59241 0.56725 0.29002 0.0
O194 O 0.5609 0.49302 0.33817 0.0
O195 O 0.56864 0.52898 0.34871 0.0
Co196 Co 0.24261 0.85222 0.00626 0.0
O197 O 0.23494 0.8742 0.94816 0.0
O198 O 0.21703 0.86807 0.03456 0.0
C199 C 0.24518 0.8246 0.93829 0.0
O200 O 0.24642 0.83004 0.07582 0.0
Co201 Co 0.28934 0.83257 0.99425 0.0
O202 O 0.27733 0.81145 0.05695 0.0
C203 C 0.28565 0.87839 0.03933 0.0
C204 C 0.21883 0.87905 0.98375 0.0
C205 C 0.25988 0.81455 0.08819 0.0
O206 O 0.26439 0.87472 0.04541 0.0
O207 O 0.29823 0.86466 0.01372 0.0
O208 O 0.22591 0.82894 0.96078 0.0
O209 O 0.26176 0.83819 0.9536 0.0
Co210 Co 0.91279 0.521 0.79351 0.0
O211 O 0.88992 0.52738 0.85052 0.0
O212 O 0.89599 0.54593 0.76528 0.0
C213 C 0.93951 0.51919 0.86448 0.0
O214 O 0.93611 0.51904 0.7254 0.0
Co215 Co 0.93603 0.47607 0.80379 0.0
O216 O 0.95815 0.49111 0.74878 0.0
C217 C 0.89178 0.47728 0.74411 0.0
C218 C 0.88493 0.54374 0.81593 0.0
C219 C 0.95359 0.50777 0.7162 0.0
O220 O 0.89178 0.49862 0.75082 0.0
O221 O 0.90717 0.46539 0.7646 0.0
O222 O 0.93468 0.53832 0.84206 0.0
O223 O 0.92713 0.50209 0.84651 0.0
H224 H 0.28058 0.3113 0.17054 0.0
H225 H 0.21694 0.21948 0.38092 0.0
H226 H 0.2091 0.2968 0.16549 0.0
H227 H 0.28758 0.2381 0.39329 0.0
H228 H 0.21357 0.24722 0.30087 0.0
H229 H 0.28349 0.28341 0.24988 0.0
C230 C 0.2655 0.30214 0.18595 0.0
C231 C 0.24456 0.30636 0.16166 0.0
C232 C 0.22979 0.24528 0.32127 0.0
C233 C 0.24772 0.27456 0.25269 0.0
C234 C 0.2317 0.22951 0.36702 0.0
C235 C 0.25257 0.22651 0.39355 0.0
C236 C 0.24891 0.25804 0.30198 0.0
C237 C 0.27117 0.23989 0.37395 0.0
C238 C 0.26716 0.28628 0.23141 0.0
C239 C 0.22557 0.29403 0.18317 0.0
N240 N 0.26891 0.25503 0.32916 0.0
N241 N 0.22759 0.27868 0.22768 0.0
H242 H 0.98783 0.98299 0.37064 0.0
H243 H 0.01138 0.05002 0.67869 0.0
H244 H 0.94875 0.03755 0.4275 0.0
H245 H 0.04787 0.99361 0.62203 0.0
H246 H 0.98815 0.04573 0.58841 0.0
H247 H 0.00976 0.98706 0.46242 0.0
C248 C 0.98378 0.99591 0.40234 0.0
C249 C 0.96622 0.00995 0.39087 0.0
C250 C 0.00117 0.03424 0.59579 0.0
C251 C 0.99167 0.01463 0.49739 0.0
C252 C 0.0145 0.03663 0.64749 0.0
C253 C 0.03178 0.02217 0.65824 0.0
C254 C 0.00506 0.01729 0.55405 0.0
C255 C 0.03482 0.00515 0.61595 0.0
C256 C 0.99642 0.99817 0.45508 0.0
C257 C 0.96206 0.02636 0.43415 0.0
N258 N 0.02167 0.00326 0.56574 0.0
N259 N 0.97469 0.02824 0.4855 0.0
H260 H 0.21762 0.72208 0.67125 0.0
H261 H 0.28322 0.81296 0.88097 0.0
H262 H 0.28915 0.73601 0.66365 0.0
H263 H 0.2123 0.79586 0.89342 0.0
H264 H 0.28595 0.78503 0.80105 0.0
H265 H 0.21539 0.74988 0.75114 0.0
C266 C 0.23285 0.7311 0.6862 0.0
C267 C 0.25361 0.72675 0.661 0.0
C268 C 0.26981 0.78734 0.82144 0.0
C269 C 0.25122 0.75845 0.75269 0.0
C270 C 0.26827 0.80322 0.86714 0.0
C271 C 0.2475 0.80672 0.89361 0.0
C272 C 0.25043 0.77498 0.80215 0.0
C273 C 0.22864 0.79369 0.87411 0.0
C274 C 0.23158 0.74691 0.73198 0.0
C275 C 0.27281 0.7389 0.68199 0.0
N276 N 0.23055 0.77845 0.82937 0.0
N277 N 0.27116 0.75419 0.72683 0.0
H278 H 0.48819 0.98379 0.17704 0.0
H279 H 0.51355 0.0509 0.86998 0.0
H280 H 0.45202 0.04043 0.12039 0.0
H281 H 0.54964 0.99401 0.92515 0.0
H282 H 0.49113 0.04724 0.96131 0.0
H283 H 0.51107 0.98761 0.08635 0.0
C284 C 0.48505 0.99714 0.14573 0.0
C285 C 0.46798 0.0118 0.15669 0.0
C286 C 0.50391 0.03552 0.95357 0.0
C287 C 0.49436 0.01615 0.05184 0.0
C288 C 0.5168 0.03754 0.90117 0.0
C289 C 0.53368 0.02274 0.88949 0.0
C290 C 0.50778 0.01855 0.99522 0.0
C291 C 0.53687 0.0058 0.93197 0.0
C292 C 0.49819 -0.00075 0.09372 0.0
C293 C 0.46493 0.02874 0.11413 0.0
N294 N 0.52408 0.0042 0.98295 0.0
N295 N 0.47793 0.0304 0.0636 0.0
H296 H 0.22987 0.81916 0.18145 0.0
H297 H 0.27112 0.71462 0.37068 0.0
H298 H 0.28153 0.77728 0.11992 0.0
H299 H 0.22375 0.7604 0.43697 0.0
H300 H 0.27495 0.73687 0.27766 0.0
H301 H 0.22638 0.79672 0.27388 0.0
C302 C 0.24035 0.80518 0.18704 0.0
C303 C 0.25606 0.80024 0.14269 0.0
C304 C 0.26379 0.74204 0.31279 0.0
C305 C 0.2523 0.77451 0.24881 0.0
C306 C 0.2617 0.72939 0.36607 0.0
C307 C 0.24705 0.73551 0.41193 0.0
C308 C 0.25111 0.76091 0.30524 0.0
C309 C 0.23518 0.75485 0.403 0.0
C310 C 0.23845 0.79243 0.24003 0.0
C311 C 0.26925 0.78189 0.15282 0.0
N312 N 0.2374 0.76672 0.35087 0.0
N313 N 0.2671 0.76978 0.20466 0.0
H314 H 0.47129 0.0573 0.4023 0.0
H315 H 0.52448 0.97742 0.64621 0.0
H316 H 0.45161 0.98717 0.4219 0.0
H317 H 0.54492 0.0473 0.62474 0.0
H318 H 0.49681 0.98095 0.56622 0.0
H319 H 0.4982 0.05405 0.4843 0.0
C320 C 0.47274 0.04119 0.42367 0.0
C321 C 0.45922 0.02247 0.40546 0.0
C322 C 0.50728 0.99554 0.57915 0.0
C323 C 0.48978 0.01867 0.49952 0.0
C324 C 0.523 0.99355 0.62496 0.0
C325 C 0.53703 0.01208 0.64182 0.0
C326 C 0.50562 0.0162 0.55002 0.0
C327 C 0.53444 0.03259 0.61293 0.0
C328 C 0.48803 0.03936 0.47061 0.0
C329 C 0.46173 0.00201 0.43462 0.0
N330 N 0.51909 0.03407 0.56818 0.0
N331 N 0.47669 0.00066 0.48039 0.0
H332 H 0.21872 0.25761 0.61308 0.0
H333 H 0.27006 0.27 0.94571 0.0
H334 H 0.26714 0.21425 0.68577 0.0
H335 H 0.22862 0.31891 0.86702 0.0
H336 H 0.26709 0.24838 0.85289 0.0
H337 H 0.22097 0.27952 0.70603 0.0
C338 C 0.22995 0.25272 0.64843 0.0
C339 C 0.24273 0.23391 0.6414 0.0
C340 C 0.25857 0.26379 0.85578 0.0
C341 C 0.24516 0.25901 0.74871 0.0
C342 C 0.26016 0.27619 0.90905 0.0
C343 C 0.24967 0.2965 0.9144 0.0
C344 C 0.24634 0.27157 0.8069 0.0
C345 C 0.23695 0.30338 0.86518 0.0
C346 C 0.23117 0.26528 0.70163 0.0
C347 C 0.25702 0.22858 0.68888 0.0
N348 N 0.23573 0.29099 0.81339 0.0
N349 N 0.25774 0.24098 0.74057 0.0
H350 H 0.04996 0.04887 0.9201 0.0
H351 H 0.95949 0.98535 0.13468 0.0
H352 H 0.03062 0.9784 0.90851 0.0
H353 H 0.97397 0.05678 0.14042 0.0
H354 H 0.98749 0.98249 0.05591 0.0
H355 H 0.02342 0.05229 0.00328 0.0
C356 C 0.04003 0.03416 0.93487 0.0
C357 C 0.04244 0.01332 0.90755 0.0
C358 C 0.98466 0.9988 0.07447 0.0
C359 C 0.01235 0.01705 1.00264 0.0
C360 C 0.96873 0.00043 0.11966 0.0
C361 C 0.96435 0.02136 0.14375 0.0
C362 C 0.9963 0.01825 0.05306 0.0
C363 C 0.97685 0.04034 0.12284 0.0
C364 C 0.02498 0.03611 0.9824 0.0
C365 C 0.02926 0.99479 0.92833 0.0
N366 N 0.99222 0.03836 0.07828 0.0
N367 N 0.01482 0.99709 0.97476 0.0
H368 H 0.7915 0.73592 0.88655 0.0
H369 H 0.71313 0.79694 0.65349 0.0
H370 H 0.7198 0.72386 0.87561 0.0
H371 H 0.78426 0.81253 0.6681 0.0
H372 H 0.71569 0.7694 0.73381 0.0
H373 H 0.78958 0.76413 0.80686 0.0
C374 C 0.77537 0.73935 0.8677 0.0
C375 C 0.75579 0.72755 0.8874 0.0
C376 C 0.73077 0.7788 0.71946 0.0
C377 C 0.75348 0.75946 0.79631 0.0
C378 C 0.72932 0.79445 0.67342 0.0
C379 C 0.74851 0.80701 0.65433 0.0
C380 C 0.75157 0.77568 0.74658 0.0
C381 C 0.76906 0.80316 0.68165 0.0
C382 C 0.77428 0.75536 0.82215 0.0
C383 C 0.73531 0.73255 0.86157 0.0
N384 N 0.77006 0.78783 0.72661 0.0
N385 N 0.7347 0.74807 0.81719 0.0
H386 H 0.77891 0.3069 0.3826 0.0
H387 H 0.71355 0.21786 0.16741 0.0
H388 H 0.70725 0.29386 0.38923 0.0
H389 H 0.78377 0.23793 0.15152 0.0
H390 H 0.71059 0.24441 0.2509 0.0
H391 H 0.78093 0.27949 0.30207 0.0
C392 C 0.76359 0.2981 0.36739 0.0
C393 C 0.74285 0.30272 0.39226 0.0
C394 C 0.7266 0.24304 0.22889 0.0
C395 C 0.74501 0.27146 0.2995 0.0
C396 C 0.72828 0.22799 0.18117 0.0
C397 C 0.74895 0.2257 0.15277 0.0
C398 C 0.74576 0.25573 0.24821 0.0
C399 C 0.76752 0.23914 0.17226 0.0
C400 C 0.76474 0.28252 0.32115 0.0
C401 C 0.72356 0.29078 0.37106 0.0
N402 N 0.7655 0.25351 0.21896 0.0
N403 N 0.72508 0.27572 0.3255 0.0
H404 H 0.77213 0.21773 0.8734 0.0
H405 H 0.72463 0.31594 0.6709 0.0
H406 H 0.71216 0.25103 0.91685 0.0
H407 H 0.7839 0.28143 0.62773 0.0
H408 H 0.71998 0.29292 0.76242 0.0
H409 H 0.77715 0.24172 0.78423 0.0
C410 C 0.76006 0.23007 0.86444 0.0
C411 C 0.74168 0.23221 0.90291 0.0
C412 C 0.734 0.29045 0.73278 0.0
C413 C 0.74726 0.25978 0.80054 0.0
C414 C 0.73664 0.3036 0.68049 0.0
C415 C 0.75464 0.3007 0.64114 0.0
C416 C 0.74947 0.27431 0.74591 0.0
C417 C 0.76969 0.28436 0.65624 0.0
C418 C 0.7629 0.24378 0.8134 0.0
C419 C 0.72659 0.24862 0.88868 0.0
N420 N 0.76676 0.27187 0.70713 0.0
N421 N 0.72969 0.26168 0.83879 0.0
H422 H 0.76893 0.71242 0.17763 0.0
H423 H 0.73133 0.81931 0.36384 0.0
H424 H 0.72325 0.75958 0.10953 0.0
H425 H 0.77801 0.77307 0.43148 0.0
H426 H 0.72738 0.79697 0.27119 0.0
H427 H 0.77254 0.73433 0.27126 0.0
C428 C 0.7598 0.7274 0.18203 0.0
C429 C 0.74572 0.73403 0.13542 0.0
C430 C 0.73844 0.7917 0.30648 0.0
C431 C 0.74958 0.75909 0.24276 0.0
C432 C 0.74059 0.8044 0.35958 0.0
C433 C 0.75509 0.7982 0.40567 0.0
C434 C 0.75084 0.77262 0.29933 0.0
C435 C 0.76672 0.77868 0.39722 0.0
C436 C 0.76176 0.73986 0.23565 0.0
C437 C 0.73424 0.75363 0.14407 0.0
N438 N 0.7644 0.76669 0.34522 0.0
N439 N 0.73637 0.76536 0.1965 0.0
H440 H 0.50894 0.54972 0.17987 0.0
H441 H 0.48596 0.48086 0.8746 0.0
H442 H 0.54857 0.49558 0.12303 0.0
H443 H 0.44747 0.53611 0.9295 0.0
H444 H 0.50861 0.4858 0.96525 0.0
H445 H 0.48611 0.5445 0.08969 0.0
C446 C 0.51289 0.53663 0.14859 0.0
C447 C 0.5309 0.52307 0.15949 0.0
C448 C 0.49525 0.49688 0.95759 0.0
C449 C 0.50446 0.51707 0.05502 0.0
C450 C 0.4822 0.49411 0.90559 0.0
C451 C 0.4646 0.5081 0.89396 0.0
C452 C 0.49083 0.51378 0.99891 0.0
C453 C 0.46078 0.52492 0.93628 0.0
C454 C 0.49975 0.53371 0.09682 0.0
C455 C 0.53495 0.50643 0.11682 0.0
N456 N 0.47377 0.52727 0.98682 0.0
N457 N 0.52185 0.50393 0.06649 0.0
H458 H 0.00688 0.54625 0.36467 0.0
H459 H 0.99445 0.49148 0.69324 0.0
H460 H 0.05385 0.50137 0.43765 0.0
H461 H 0.94661 0.53478 0.61733 0.0
H462 H 0.01695 0.49597 0.60201 0.0
H463 H 0.98515 0.54261 0.45718 0.0
C464 C 0.01269 0.53554 0.4001 0.0
C465 C 0.03243 0.52415 0.39307 0.0
C466 C 0.0016 0.50458 0.60526 0.0
C467 C 0.0073 0.52001 0.5002 0.0
C468 C 0.98868 0.50209 0.65756 0.0
C469 C 0.96841 0.51268 0.66318 0.0
C470 C 0.99434 0.51777 0.55766 0.0
C471 C 0.96206 0.52631 0.61529 0.0
C472 C 0.00017 0.53352 0.45314 0.0
C473 C 0.0388 0.51044 0.44077 0.0
N474 N 0.97491 0.52835 0.56449 0.0
N475 N 0.02631 0.50882 0.49235 0.0
H476 H 0.03962 0.54881 0.13656 0.0
H477 H 0.9517 0.48146 0.92211 0.0
H478 H 0.0269 0.47718 0.14469 0.0
H479 H 0.96618 0.55286 0.91373 0.0
H480 H 0.97866 0.47935 0.00469 0.0
H481 H 0.0115 0.55057 0.05747 0.0
C482 C 0.03075 0.53345 0.12199 0.0
C483 C 0.03563 0.5128 0.14689 0.0
C484 C 0.97596 0.49546 0.98469 0.0
C485 C 0.00358 0.51464 0.05594 0.0
C486 C 0.96066 0.49666 0.93745 0.0
C487 C 0.95674 0.51737 0.91122 0.0
C488 C 0.98735 0.51512 0.00569 0.0
C489 C 0.96872 0.53656 0.93274 0.0
C490 C 0.01475 0.53445 0.07666 0.0
C491 C 0.02362 0.49343 0.12653 0.0
N492 N 0.98346 0.53497 0.97885 0.0
N493 N 0.00819 0.49481 0.08185 0.0
H494 H 0.47085 0.55528 0.64858 0.0
H495 H 0.52834 0.47754 0.40692 0.0
H496 H 0.4552 0.48427 0.63145 0.0
H497 H 0.5433 0.54871 0.42234 0.0
H498 H 0.50135 0.47964 0.48925 0.0
H499 H 0.49831 0.55306 0.56743 0.0
C500 C 0.47336 0.5392 0.6281 0.0
C501 C 0.46073 0.51995 0.64643 0.0
C502 C 0.51049 0.49481 0.47449 0.0
C503 C 0.49182 0.5173 0.55342 0.0
C504 C 0.5258 0.49362 0.42734 0.0
C505 C 0.53805 0.51297 0.40804 0.0
C506 C 0.5075 0.51549 0.5024 0.0
C507 C 0.53419 0.53338 0.436 0.0
C508 C 0.48893 0.53795 0.58161 0.0
C509 C 0.46458 0.49953 0.61846 0.0
N510 N 0.51929 0.5341 0.48198 0.0
N511 N 0.47973 0.49876 0.57311 0.0
H512 H 0.12194 0.48026 0.11129 0.0
H513 H 0.21541 0.3956 0.18458 0.0
H514 H 0.13458 0.45767 0.29262 0.0
H515 H 0.18514 0.39961 0.00814 0.0
H516 H 0.18874 0.42111 0.22384 0.0
H517 H 0.1476 0.4537 0.07234 0.0
C518 C 0.13019 0.46975 0.14311 0.0
C519 C 0.12617 0.4713 0.20555 0.0
C520 C 0.18789 0.41642 0.17658 0.0
C521 C 0.15576 0.44078 0.16071 0.0
C522 C 0.20322 0.40195 0.15383 0.0
C523 C 0.2026 0.3955 0.09269 0.0
C524 C 0.17193 0.42488 0.13789 0.0
C525 C 0.18627 0.40417 0.05543 0.0
C526 C 0.14476 0.45448 0.12061 0.0
C527 C 0.13721 0.45707 0.24427 0.0
N528 N 0.17165 0.41855 0.07856 0.0
N529 N 0.15166 0.44249 0.22123 0.0
H530 H 0.77988 0.9187 0.48466 0.0
H531 H 0.87334 0.93976 0.23171 0.0
H532 H 0.8238 0.86952 0.41919 0.0
H533 H 0.86058 0.99205 0.35927 0.0
H534 H 0.8447 0.9156 0.2806 0.0
H535 H 0.80062 0.9473 0.42233 0.0
C536 C 0.79376 0.91395 0.45706 0.0
C537 C 0.80038 0.89185 0.45747 0.0
C538 C 0.84797 0.93247 0.29744 0.0
C539 C 0.82335 0.9239 0.38562 0.0
C540 C 0.86429 0.9463 0.26956 0.0
C541 C 0.86975 0.96777 0.29242 0.0
C542 C 0.83697 0.94005 0.34869 0.0
C543 C 0.85705 0.9755 0.34071 0.0
C544 C 0.8055 0.93018 0.42178 0.0
C545 C 0.81837 0.88643 0.42092 0.0
N546 N 0.84139 0.96146 0.36812 0.0
N547 N 0.82911 0.90229 0.38634 0.0
H548 H 0.31184 0.63349 0.50526 0.0
H549 H 0.36331 0.57577 0.7969 0.0
H550 H 0.2829 0.63732 0.68331 0.0
H551 H 0.37483 0.55368 0.61449 0.0
H552 H 0.33721 0.60241 0.75704 0.0
H553 H 0.33871 0.60774 0.54539 0.0
C554 C 0.31109 0.62888 0.55258 0.0
C555 C 0.295 0.63743 0.59079 0.0
C556 C 0.34549 0.59167 0.72591 0.0
C557 C 0.32581 0.60841 0.63719 0.0
C558 C 0.36038 0.57653 0.74866 0.0
C559 C 0.37111 0.56237 0.7091 0.0
C560 C 0.34167 0.59286 0.66319 0.0
C561 C 0.36677 0.56411 0.64683 0.0
C562 C 0.3264 0.61422 0.5755 0.0
C563 C 0.29488 0.631 0.65196 0.0
N564 N 0.35249 0.57909 0.62585 0.0
N565 N 0.31008 0.617 0.67327 0.0
H566 H 0.72481 0.13634 0.89474 0.0
H567 H 0.62936 0.03823 0.88928 0.0
H568 H 0.67944 0.12466 0.04434 0.0
H569 H 0.63891 0.08431 0.74044 0.0
H570 H 0.65869 0.05981 0.94578 0.0
H571 H 0.70381 0.10676 0.83753 0.0
C572 C 0.71081 0.12713 0.91603 0.0
C573 C 0.70365 0.13292 0.97399 0.0
C574 C 0.65463 0.0648 0.90022 0.0
C575 C 0.68014 0.09913 0.90979 0.0
C576 C 0.63807 0.05252 0.86793 0.0
C577 C 0.63171 0.05969 0.81043 0.0
C578 C 0.66523 0.0839 0.87394 0.0
C579 C 0.64328 0.07841 0.7849 0.0
C580 C 0.69886 0.11042 0.88339 0.0
C581 C 0.68531 0.12072 0.99953 0.0
N582 N 0.65954 0.08995 0.81693 0.0
N583 N 0.67412 0.10434 0.96717 0.0
H584 H 0.1234 0.59769 0.24284 0.0
H585 H 0.22078 0.616 0.48652 0.0
H586 H 0.13951 0.54349 0.36072 0.0
H587 H 0.17587 0.66584 0.43075 0.0
H588 H 0.19909 0.58812 0.42406 0.0
H589 H 0.15217 0.62162 0.29191 0.0
C590 C 0.13316 0.59071 0.27866 0.0
C591 C 0.12865 0.56869 0.2987 0.0
C592 C 0.19418 0.60521 0.4257 0.0
C593 C 0.16164 0.59617 0.35522 0.0
C594 C 0.20648 0.62105 0.46106 0.0
C595 C 0.19989 0.64314 0.46425 0.0
C596 C 0.17578 0.61188 0.39228 0.0
C597 C 0.18133 0.64893 0.43037 0.0
C598 C 0.14957 0.60441 0.30666 0.0
C599 C 0.14228 0.56046 0.34439 0.0
N600 N 0.17004 0.63346 0.3957 0.0
N601 N 0.15803 0.57435 0.37194 0.0
H602 H 0.63374 0.95264 0.79158 0.0
H603 H 0.68755 0.89754 0.49916 0.0
H604 H 0.62075 0.97384 0.60919 0.0
H605 H 0.717 0.89515 0.67696 0.0
H606 H 0.65923 0.92158 0.53973 0.0
H607 H 0.66071 0.92691 0.75142 0.0
C608 C 0.63646 0.95179 0.74326 0.0
C609 C 0.62516 0.96551 0.70378 0.0
C610 C 0.67197 0.91579 0.5697 0.0
C611 C 0.65563 0.93615 0.6576 0.0
C612 C 0.68811 0.90212 0.54652 0.0
C613 C 0.70477 0.89448 0.58451 0.0
C614 C 0.67229 0.92151 0.63145 0.0
C615 C 0.70461 0.90081 0.64577 0.0
C616 C 0.65187 0.93721 0.72036 0.0
C617 C 0.62928 0.96374 0.64143 0.0
N618 N 0.6886 0.91383 0.66734 0.0
N619 N 0.6441 0.94935 0.62032 0.0
H620 H 0.35776 0.49015 0.86333 0.0
H621 H 0.31754 0.36482 0.91786 0.0
H622 H 0.37172 0.43648 0.7413 0.0
H623 H 0.27872 0.41715 0.9894 0.0
H624 H 0.33834 0.39214 0.85564 0.0
H625 H 0.32854 0.46552 0.91124 0.0
C626 C 0.3544 0.4734 0.84583 0.0
C627 C 0.36756 0.46516 0.79921 0.0
C628 C 0.32518 0.39775 0.88448 0.0
C629 C 0.33452 0.43711 0.85378 0.0
C630 C 0.31344 0.38217 0.92045 0.0
C631 C 0.29661 0.38883 0.9592 0.0
C632 C 0.32046 0.42037 0.88796 0.0
C633 C 0.29169 0.41145 0.96008 0.0
C634 C 0.33776 0.45939 0.87319 0.0
C635 C 0.36241 0.44338 0.77808 0.0
N636 N 0.30387 0.4266 0.92554 0.0
N637 N 0.34656 0.43006 0.80608 0.0
H638 H 0.78592 0.14132 0.18126 0.0
H639 H 0.87833 0.05573 0.1066 0.0
H640 H 0.81368 0.13488 1.00258 0.0
H641 H 0.86663 0.07903 0.28776 0.0
H642 H 0.85285 0.08247 0.06771 0.0
H643 H 0.81331 0.11659 0.22048 0.0
C644 C 0.79776 0.13465 0.15007 0.0
C645 C 0.79739 0.14009 0.08827 0.0
C646 C 0.85588 0.08183 0.11592 0.0
C647 C 0.82889 0.11159 0.13338 0.0
C648 C 0.87034 0.06646 0.13839 0.0
C649 C 0.87454 0.06502 0.20076 0.0
C650 C 0.84517 0.09577 0.15602 0.0
C651 C 0.86384 0.07953 0.23945 0.0
C652 C 0.8135 0.12061 0.17276 0.0
C653 C 0.81333 0.13109 0.05041 0.0
N654 N 0.84949 0.0942 0.21647 0.0
N655 N 0.82834 0.11711 0.07351 0.0
H656 H 0.80812 0.62935 0.04239 0.0
H657 H 0.86497 0.57672 0.75165 0.0
H658 H 0.7845 0.63914 0.86054 0.0
H659 H 0.86858 0.54774 0.9297 0.0
H660 H 0.83914 0.60356 0.79158 0.0
H661 H 0.83443 0.60287 1.00279 0.0
C662 C 0.80844 0.62592 0.99434 0.0
C663 C 0.79398 0.63633 0.95487 0.0
C664 C 0.84559 0.59125 0.82171 0.0
C665 C 0.82415 0.60651 0.90922 0.0
C666 C 0.86031 0.57597 0.79893 0.0
C667 C 0.8688 0.55986 0.83719 0.0
C668 C 0.83971 0.59064 0.88334 0.0
C669 C 0.86229 0.55972 0.89831 0.0
C670 C 0.8234 0.61083 0.97175 0.0
C671 C 0.79518 0.63136 0.89283 0.0
N672 N 0.84827 0.57492 0.91951 0.0
N673 N 0.81004 0.61694 0.87195 0.0
H674 H 0.22601 0.13682 0.64942 0.0
H675 H 0.12864 0.04033 0.64224 0.0
H676 H 0.18164 0.12716 0.49675 0.0
H677 H 0.14051 0.08286 0.79769 0.0
H678 H 0.15831 0.06222 0.58775 0.0
H679 H 0.20449 0.1067 0.70303 0.0
C680 C 0.21208 0.12798 0.62673 0.0
C681 C 0.20536 0.1345 0.56898 0.0
C682 C 0.15464 0.06637 0.63421 0.0
C683 C 0.18124 0.10009 0.62911 0.0
C684 C 0.13788 0.05391 0.66529 0.0
C685 C 0.13211 0.06004 0.72414 0.0
C686 C 0.16598 0.08457 0.66301 0.0
C687 C 0.14439 0.07784 0.75206 0.0
C688 C 0.19984 0.11095 0.65732 0.0
C689 C 0.18714 0.1227 0.54154 0.0
N690 N 0.1608 0.08955 0.72116 0.0
N691 N 0.17563 0.10602 0.57195 0.0
H692 H 0.71021 0.38913 0.35625 0.0
H693 H 0.62694 0.48361 0.43286 0.0
H694 H 0.68805 0.40191 0.53789 0.0
H695 H 0.6316 0.45516 0.25438 0.0
H696 H 0.6519 0.45628 0.47102 0.0
H697 H 0.68413 0.4154 0.31779 0.0
C698 C 0.69988 0.39753 0.38822 0.0
C699 C 0.70142 0.39339 0.4506 0.0
C700 C 0.64748 0.45596 0.42355 0.0
C701 C 0.67148 0.42367 0.40638 0.0
C702 C 0.63331 0.47167 0.40143 0.0
C703 C 0.6272 0.47177 0.34004 0.0
C704 C 0.65595 0.44029 0.38405 0.0
C705 C 0.6359 0.45574 0.30189 0.0
C706 C 0.6849 0.41245 0.36601 0.0
C707 C 0.68744 0.40462 0.48957 0.0
N708 N 0.64996 0.4407 0.32448 0.0
N709 N 0.67315 0.4194 0.46683 0.0
H710 H 0.36127 0.95 0.30234 0.0
H711 H 0.32025 0.90499 0.99467 0.0
H712 H 0.37186 0.99185 0.14516 0.0
H713 H 0.27615 0.89686 0.14818 0.0
H714 H 0.34148 0.93523 0.04822 0.0
H715 H 0.33161 0.92824 0.24792 0.0
C716 C 0.35708 0.95477 0.25667 0.0
C717 C 0.36895 0.97263 0.22794 0.0
C718 C 0.3269 0.92708 0.0696 0.0
C719 C 0.3357 0.94763 0.16541 0.0
C720 C 0.3149 0.90983 0.03932 0.0
C721 C 0.29654 0.89849 0.06731 0.0
C722 C 0.32091 0.93242 0.12891 0.0
C723 C 0.29019 0.90532 0.12513 0.0
C724 C 0.34016 0.94246 0.22587 0.0
C725 C 0.36297 0.97821 0.16879 0.0
N726 N 0.3027 0.92155 0.15475 0.0
N727 N 0.34706 0.96539 0.13881 0.0
H728 H 0.82687 0.39145 0.4827 0.0
H729 H 0.84719 0.48606 0.73341 0.0
H730 H 0.774 0.40627 0.60645 0.0
H731 H 0.89692 0.44264 0.6686 0.0
H732 H 0.81889 0.4652 0.67045 0.0
H733 H 0.85122 0.42005 0.53113 0.0
C734 C 0.82027 0.40091 0.51965 0.0
C735 C 0.79854 0.39607 0.54156 0.0
C736 C 0.83606 0.46045 0.67011 0.0
C737 C 0.82648 0.42883 0.59735 0.0
C738 C 0.85213 0.47227 0.70576 0.0
C739 C 0.87429 0.46581 0.7066 0.0
C740 C 0.84255 0.44265 0.6341 0.0
C741 C 0.87995 0.44793 0.66999 0.0
C742 C 0.83421 0.41723 0.54728 0.0
C743 C 0.79075 0.40931 0.58866 0.0
N744 N 0.86423 0.43707 0.63513 0.0
N745 N 0.80488 0.42494 0.61583 0.0
H746 H 0.32874 0.15898 0.49446 0.0
H747 H 0.34604 0.04061 0.34613 0.0
H748 H 0.27326 0.11541 0.43422 0.0
H749 H 0.39299 0.09658 0.31284 0.0
H750 H 0.32056 0.06593 0.39335 0.0
H751 H 0.35464 0.13397 0.44551 0.0
C752 C 0.3221 0.14389 0.47225 0.0
C753 C 0.29893 0.13904 0.46871 0.0
C754 C 0.3363 0.07274 0.37504 0.0
C755 C 0.32814 0.11075 0.41267 0.0
C756 C 0.35073 0.05836 0.34774 0.0
C757 C 0.37135 0.06668 0.32458 0.0
C758 C 0.34286 0.09551 0.38106 0.0
C759 C 0.37696 0.08969 0.32899 0.0
C760 C 0.33679 0.12987 0.44365 0.0
C761 C 0.29105 0.11961 0.4382 0.0
N762 N 0.36289 0.10335 0.35752 0.0
N763 N 0.30561 0.10612 0.41166 0.0
H764 H 0.64187 0.54098 0.19507 0.0
H765 H 0.66561 0.65876 0.05485 0.0
H766 H 0.61716 0.60096 0.27277 0.0
H767 H 0.72353 0.61994 0.07967 0.0
H768 H 0.64364 0.63171 0.11478 0.0
H769 H 0.66958 0.56453 0.13745 0.0
C770 C 0.64245 0.55896 0.2008 0.0
C771 C 0.62682 0.569 0.23795 0.0
C772 C 0.66115 0.62907 0.10681 0.0
C773 C 0.65796 0.59562 0.17203 0.0
C774 C 0.67375 0.64442 0.07223 0.0
C775 C 0.69661 0.64181 0.06255 0.0
C776 C 0.67122 0.61067 0.13147 0.0
C777 C 0.70601 0.6227 0.08647 0.0
C778 C 0.65824 0.57228 0.16802 0.0
C779 C 0.62847 0.59238 0.24392 0.0
N780 N 0.69321 0.60773 0.12007 0.0
N781 N 0.64343 0.60485 0.21049 0.0
H782 H 0.22896 0.91706 0.92146 0.0
H783 H 0.1045 0.93732 0.82063 0.0
H784 H 0.17308 0.878 0.99767 0.0
H785 H 0.15528 0.99114 0.83473 0.0
H786 H 0.13036 0.91202 0.86843 0.0
H787 H 0.20294 0.94178 0.87445 0.0
C788 C 0.21116 0.91391 0.92896 0.0
C789 C 0.20312 0.89566 0.96402 0.0
C790 C 0.13586 0.92931 0.86029 0.0
C791 C 0.17324 0.92338 0.90852 0.0
C792 C 0.12131 0.94359 0.83224 0.0
C793 C 0.12804 0.96615 0.82294 0.0
C794 C 0.15732 0.93768 0.8779 0.0
C795 C 0.14966 0.97374 0.84047 0.0
C796 C 0.19635 0.92794 0.90192 0.0
C797 C 0.17991 0.89213 0.97174 0.0
N798 N 0.16359 0.95952 0.86673 0.0
N799 N 0.1657 0.90573 0.94348 0.0
loop_
_geom_bond_atom_site_label_1
_geom_bond_atom_site_label_2
_geom_bond_distance
_geom_bond_site_symmetry_2
_ccdc_geom_bond_type
Co0 O1 2.216 . S
Co0 O2 2.091 . S
Co0 O4 2.004 1_554 S
Co0 O10 2.021 1_554 S
Co0 O12 2.137 . S
Co0 O13 2.244 . S
O1 Co0 2.216 . S
O1 C8 1.247 . S
O2 Co0 2.091 . S
O2 C8 1.261 . S
C3 O12 1.247 . S
C3 O13 1.272 . S
O4 Co0 2.004 1_556 S
O4 C9 1.259 . S
Co5 O6 2.061 1_554 S
Co5 O11 2.054 . S
Co5 O13 2.135 . S
O6 Co5 2.061 1_556 S
O6 C9 1.235 . S
C7 O10 1.238 . S
C7 O11 1.236 1_556 S
C8 O1 1.247 . S
C8 O2 1.261 . S
C9 O4 1.259 . S
C9 O6 1.235 . S
O10 Co0 2.021 1_556 S
O10 C7 1.238 . S
O11 Co5 2.054 . S
O11 C7 1.236 1_554 S
O12 Co0 2.137 . S
O12 C3 1.247 . S
O13 Co0 2.244 . S
O13 C3 1.272 . S
O13 Co5 2.135 . S
Co14 O15 2.216 . S
Co14 O16 2.091 . S
Co14 O18 2.004 . S
Co14 O24 2.021 . S
Co14 O26 2.137 . S
Co14 O27 2.244 . S
O15 Co14 2.216 . S
O15 C22 1.247 . S
O16 Co14 2.091 . S
O16 C22 1.261 . S
C17 O26 1.247 . S
C17 O27 1.272 . S
O18 Co14 2.004 . S
O18 C23 1.259 . S
Co19 O20 2.061 . S
Co19 O25 2.052 . S
Co19 O27 2.135 1_565 S
O20 Co19 2.061 . S
O20 C23 1.235 1_565 S
C21 O24 1.238 1_565 S
C21 O25 1.241 . S
C22 O15 1.247 . S
C22 O16 1.261 . S
C23 O18 1.259 . S
C23 O20 1.235 1_545 S
O24 Co14 2.021 . S
O24 C21 1.238 1_545 S
O25 Co19 2.052 . S
O25 C21 1.241 . S
O26 Co14 2.137 . S
O26 C17 1.247 . S
O27 Co14 2.244 . S
O27 C17 1.272 . S
O27 Co19 2.135 1_545 S
Co28 O29 2.216 . S
Co28 O30 2.091 . S
Co28 O32 2.004 . S
Co28 O38 2.021 . S
Co28 O40 2.137 . S
Co28 O41 2.244 . S
O29 Co28 2.216 . S
O29 C36 1.247 . S
O30 Co28 2.091 . S
O30 C36 1.261 . S
C31 O40 1.247 . S
C31 O41 1.272 . S
O32 Co28 2.004 . S
O32 C37 1.259 . S
Co33 O34 2.061 . S
Co33 O39 2.052 . S
Co33 O41 2.135 . S
O34 Co33 2.061 . S
O34 C37 1.235 . S
C35 O38 1.238 . S
C35 O39 1.241 . S
C36 O29 1.247 . S
C36 O30 1.261 . S
C37 O32 1.259 . S
C37 O34 1.235 . S
O38 Co28 2.021 . S
O38 C35 1.238 . S
O39 Co33 2.052 . S
O39 C35 1.241 . S
O40 Co28 2.137 . S
O40 C31 1.247 . S
O41 Co28 2.244 . S
O41 C31 1.272 . S
O41 Co33 2.135 . S
Co42 O43 2.216 . S
Co42 O44 2.091 1_545 S
Co42 O46 2.004 . S
Co42 O52 2.021 . S
Co42 O54 2.137 1_545 S
Co42 O55 2.244 . S
O43 Co42 2.216 . S
O43 C50 1.247 1_545 S
O44 Co42 2.091 1_565 S
O44 C50 1.261 . S
C45 O54 1.247 1_545 S
C45 O55 1.272 . S
O46 Co42 2.004 . S
O46 C51 1.259 . S
Co47 O48 2.061 . S
Co47 O53 2.052 . S
Co47 O55 2.135 . S
O48 Co47 2.061 . S
O48 C51 1.235 . S
C49 O52 1.238 . S
C49 O53 1.241 . S
C50 O43 1.247 1_565 S
C50 O44 1.261 . S
C51 O46 1.259 . S
C51 O48 1.235 . S
O52 Co42 2.021 . S
O52 C49 1.238 . S
O53 Co47 2.052 . S
O53 C49 1.241 . S
O54 Co42 2.137 1_565 S
O54 C45 1.247 1_565 S
O55 Co42 2.244 . S
O55 C45 1.272 . S
O55 Co47 2.135 . S
Co56 O57 2.216 1_554 S
Co56 O58 2.091 . S
Co56 O60 2.004 . S
Co56 O66 2.021 . S
Co56 O68 2.137 1_554 S
Co56 O69 2.244 1_554 S
O57 Co56 2.216 1_556 S
O57 C64 1.247 . S
O58 Co56 2.091 . S
O58 C64 1.261 1_554 S
C59 O68 1.247 . S
C59 O69 1.272 . S
O60 Co56 2.004 . S
O60 C65 1.259 . S
Co61 O62 2.061 . S
Co61 O67 2.052 . S
Co61 O69 2.135 1_554 S
O62 Co61 2.061 . S
O62 C65 1.235 . S
C63 O66 1.238 . S
C63 O67 1.241 . S
C64 O57 1.247 . S
C64 O58 1.261 1_556 S
C65 O60 1.259 . S
C65 O62 1.235 . S
O66 Co56 2.021 . S
O66 C63 1.238 . S
O67 Co61 2.052 . S
O67 C63 1.241 . S
O68 Co56 2.137 1_556 S
O68 C59 1.247 . S
O69 Co56 2.244 1_556 S
O69 C59 1.272 . S
O69 Co61 2.135 1_556 S
Co70 O71 2.216 . S
Co70 O72 2.091 1_545 S
Co70 O74 2.004 . S
Co70 O80 2.021 . S
Co70 O82 2.137 1_545 S
Co70 O83 2.244 . S
O71 Co70 2.216 . S
O71 C78 1.247 1_545 S
O72 Co70 2.091 1_565 S
O72 C78 1.261 . S
C73 O82 1.247 1_545 S
C73 O83 1.272 . S
O74 Co70 2.004 . S
O74 C79 1.259 . S
Co75 O76 2.061 . S
Co75 O81 2.052 . S
Co75 O83 2.135 . S
O76 Co75 2.061 . S
O76 C79 1.235 . S
C77 O80 1.238 . S
C77 O81 1.241 . S
C78 O71 1.247 1_565 S
C78 O72 1.261 . S
C79 O74 1.259 . S
C79 O76 1.235 . S
O80 Co70 2.021 . S
O80 C77 1.238 . S
O81 Co75 2.052 . S
O81 C77 1.241 . S
O82 Co70 2.137 1_565 S
O82 C73 1.247 1_565 S
O83 Co70 2.244 . S
O83 C73 1.272 . S
O83 Co75 2.135 . S
Co84 O85 2.216 . S
Co84 O86 2.091 . S
Co84 O88 2.004 . S
Co84 O94 2.021 . S
Co84 O96 2.137 . S
Co84 O97 2.244 . S
O85 Co84 2.216 . S
O85 C92 1.247 . S
O86 Co84 2.091 . S
O86 C92 1.261 . S
C87 O96 1.247 . S
C87 O97 1.272 . S
O88 Co84 2.004 . S
O88 C93 1.259 . S
Co89 O90 2.061 . S
Co89 O95 2.052 . S
Co89 O97 2.135 . S
O90 Co89 2.061 . S
O90 C93 1.235 . S
C91 O94 1.238 . S
C91 O95 1.241 . S
C92 O85 1.247 . S
C92 O86 1.261 . S
C93 O88 1.259 . S
C93 O90 1.235 . S
O94 Co84 2.021 . S
O94 C91 1.238 . S
O95 Co89 2.052 . S
O95 C91 1.241 . S
O96 Co84 2.137 . S
O96 C87 1.247 . S
O97 Co84 2.244 . S
O97 C87 1.272 . S
O97 Co89 2.135 . S
Co98 O99 2.216 . S
Co98 O100 2.091 . S
Co98 O102 2.004 . S
Co98 O108 2.021 . S
Co98 O110 2.137 . S
Co98 O111 2.244 . S
O99 Co98 2.216 . S
O99 C106 1.247 . S
O100 Co98 2.091 . S
O100 C106 1.261 . S
C101 O110 1.247 . S
C101 O111 1.272 . S
O102 Co98 2.004 . S
O102 C107 1.259 . S
Co103 O104 2.061 . S
Co103 O109 2.052 . S
Co103 O111 2.135 1_565 S
O104 Co103 2.061 . S
O104 C107 1.235 1_565 S
C105 O108 1.238 1_565 S
C105 O109 1.241 . S
C106 O99 1.247 . S
C106 O100 1.261 . S
C107 O102 1.259 . S
C107 O104 1.235 1_545 S
O108 Co98 2.021 . S
O108 C105 1.238 1_545 S
O109 Co103 2.052 . S
O109 C105 1.241 . S
O110 Co98 2.137 . S
O110 C101 1.247 . S
O111 Co98 2.244 . S
O111 C101 1.272 . S
O111 Co103 2.135 1_545 S
Co112 O113 2.216 . S
Co112 O114 2.091 . S
Co112 O116 2.004 . S
Co112 O122 2.021 . S
Co112 O124 2.137 . S
Co112 O125 2.244 . S
O113 Co112 2.216 . S
O113 C120 1.247 . S
O114 Co112 2.091 . S
O114 C120 1.261 . S
C115 O124 1.247 . S
C115 O125 1.272 . S
O116 Co112 2.004 . S
O116 C121 1.259 . S
Co117 O118 2.061 . S
Co117 O123 2.052 . S
Co117 O125 2.135 . S
O118 Co117 2.061 . S
O118 C121 1.235 . S
C119 O122 1.238 . S
C119 O123 1.241 . S
C120 O113 1.247 . S
C120 O114 1.261 . S
C121 O116 1.259 . S
C121 O118 1.235 . S
O122 Co112 2.021 . S
O122 C119 1.238 . S
O123 Co117 2.052 . S
O123 C119 1.241 . S
O124 Co112 2.137 . S
O124 C115 1.247 . S
O125 Co112 2.244 . S
O125 C115 1.272 . S
O125 Co117 2.135 . S
Co126 O127 2.216 . S
Co126 O128 2.091 . S
Co126 O130 2.004 . S
Co126 O136 2.021 . S
Co126 O138 2.137 . S
Co126 O139 2.244 . S
O127 Co126 2.216 . S
O127 C134 1.247 . S
O128 Co126 2.091 . S
O128 C134 1.261 . S
C129 O138 1.247 . S
C129 O139 1.272 . S
O130 Co126 2.004 . S
O130 C135 1.259 . S
Co131 O132 2.061 . S
Co131 O137 2.052 . S
Co131 O139 2.135 . S
O132 Co131 2.061 . S
O132 C135 1.235 . S
C133 O136 1.238 . S
C133 O137 1.241 . S
C134 O127 1.247 . S
C134 O128 1.261 . S
C135 O130 1.259 . S
C135 O132 1.235 . S
O136 Co126 2.021 . S
O136 C133 1.238 . S
O137 Co131 2.052 . S
O137 C133 1.241 . S
O138 Co126 2.137 . S
O138 C129 1.247 . S
O139 Co126 2.244 . S
O139 C129 1.272 . S
O139 Co131 2.135 . S
Co140 O141 2.216 . S
Co140 O142 2.091 . S
Co140 O144 2.004 1_554 S
Co140 O150 2.021 1_554 S
Co140 O152 2.137 . S
Co140 O153 2.244 . S
O141 Co140 2.216 . S
O141 C148 1.247 . S
O142 Co140 2.091 . S
O142 C148 1.261 . S
C143 O152 1.247 . S
C143 O153 1.272 . S
O144 Co140 2.004 1_556 S
O144 C149 1.259 . S
Co145 O146 2.061 1_554 S
Co145 O151 2.054 . S
Co145 O153 2.135 . S
O146 Co145 2.061 1_556 S
O146 C149 1.235 . S
C147 O150 1.238 . S
C147 O151 1.236 1_556 S
C148 O141 1.247 . S
C148 O142 1.261 . S
C149 O144 1.259 . S
C149 O146 1.235 . S
O150 Co140 2.021 1_556 S
O150 C147 1.238 . S
O151 Co145 2.054 . S
O151 C147 1.236 1_554 S
O152 Co140 2.137 . S
O152 C143 1.247 . S
O153 Co140 2.244 . S
O153 C143 1.272 . S
O153 Co145 2.135 . S
Co154 O155 2.216 . S
Co154 O156 2.091 . S
Co154 O158 2.004 . S
Co154 O164 2.021 . S
Co154 O166 2.137 . S
Co154 O167 2.244 . S
O155 Co154 2.216 . S
O155 C162 1.247 . S
O156 Co154 2.091 . S
O156 C162 1.261 . S
C157 O166 1.247 . S
C157 O167 1.272 . S
O158 Co154 2.004 . S
O158 C163 1.259 . S
Co159 O160 2.061 . S
Co159 O165 2.052 . S
Co159 O167 2.135 . S
O160 Co159 2.061 . S
O160 C163 1.235 . S
C161 O164 1.238 . S
C161 O165 1.241 . S
C162 O155 1.247 . S
C162 O156 1.261 . S
C163 O158 1.259 . S
C163 O160 1.235 . S
O164 Co154 2.021 . S
O164 C161 1.238 . S
O165 Co159 2.052 . S
O165 C161 1.241 . S
O166 Co154 2.137 . S
O166 C157 1.247 . S
O167 Co154 2.244 . S
O167 C157 1.272 . S
O167 Co159 2.135 . S
Co168 O169 2.216 . S
Co168 O170 2.091 . S
Co168 O172 2.004 . S
Co168 O178 2.021 . S
Co168 O180 2.137 . S
Co168 O181 2.244 . S
O169 Co168 2.216 . S
O169 C176 1.247 . S
O170 Co168 2.091 . S
O170 C176 1.261 . S
C171 O180 1.247 . S
C171 O181 1.272 . S
O172 Co168 2.004 . S
O172 C177 1.259 . S
Co173 O174 2.061 . S
Co173 O179 2.052 . S
Co173 O181 2.135 . S
O174 Co173 2.061 . S
O174 C177 1.235 . S
C175 O178 1.238 . S
C175 O179 1.241 . S
C176 O169 1.247 . S
C176 O170 1.261 . S
C177 O172 1.259 . S
C177 O174 1.235 . S
O178 Co168 2.021 . S
O178 C175 1.238 . S
O179 Co173 2.052 . S
O179 C175 1.241 . S
O180 Co168 2.137 . S
O180 C171 1.247 . S
O181 Co168 2.244 . S
O181 C171 1.272 . S
O181 Co173 2.135 . S
Co182 O183 2.216 . S
Co182 O184 2.091 . S
Co182 O186 2.004 . S
Co182 O192 2.021 . S
Co182 O194 2.137 . S
Co182 O195 2.244 . S
O183 Co182 2.216 . S
O183 C190 1.247 . S
O184 Co182 2.091 . S
O184 C190 1.261 . S
C185 O194 1.247 . S
C185 O195 1.272 . S
O186 Co182 2.004 . S
O186 C191 1.259 . S
Co187 O188 2.061 . S
Co187 O193 2.052 . S
Co187 O195 2.135 . S
O188 Co187 2.061 . S
O188 C191 1.235 . S
C189 O192 1.238 . S
C189 O193 1.241 . S
C190 O183 1.247 . S
C190 O184 1.261 . S
C191 O186 1.259 . S
C191 O188 1.235 . S
O192 Co182 2.021 . S
O192 C189 1.238 . S
O193 Co187 2.052 . S
O193 C189 1.241 . S
O194 Co182 2.137 . S
O194 C185 1.247 . S
O195 Co182 2.244 . S
O195 C185 1.272 . S
O195 Co187 2.135 . S
Co196 O197 2.216 1_554 S
Co196 O198 2.091 . S
Co196 O200 2.004 . S
Co196 O206 2.021 . S
Co196 O208 2.137 1_554 S
Co196 O209 2.244 1_554 S
O197 Co196 2.216 1_556 S
O197 C204 1.247 . S
O198 Co196 2.091 . S
O198 C204 1.261 1_554 S
C199 O208 1.247 . S
C199 O209 1.272 . S
O200 Co196 2.004 . S
O200 C205 1.259 . S
Co201 O202 2.061 . S
Co201 O207 2.052 . S
Co201 O209 2.135 1_554 S
O202 Co201 2.061 . S
O202 C205 1.235 . S
C203 O206 1.238 . S
C203 O207 1.241 . S
C204 O197 1.247 . S
C204 O198 1.261 1_556 S
C205 O200 1.259 . S
C205 O202 1.235 . S
O206 Co196 2.021 . S
O206 C203 1.238 . S
O207 Co201 2.052 . S
O207 C203 1.241 . S
O208 Co196 2.137 1_556 S
O208 C199 1.247 . S
O209 Co196 2.244 1_556 S
O209 C199 1.272 . S
O209 Co201 2.135 1_556 S
Co210 O211 2.216 . S
Co210 O212 2.091 . S
Co210 O214 2.004 . S
Co210 O220 2.021 . S
Co210 O222 2.137 . S
Co210 O223 2.244 . S
O211 Co210 2.216 . S
O211 C218 1.247 . S
O212 Co210 2.091 . S
O212 C218 1.261 . S
C213 O222 1.247 . S
C213 O223 1.272 . S
O214 Co210 2.004 . S
O214 C219 1.259 . S
Co215 O216 2.061 . S
Co215 O221 2.052 . S
Co215 O223 2.135 . S
O216 Co215 2.061 . S
O216 C219 1.235 . S
C217 O220 1.238 . S
C217 O221 1.241 . S
C218 O211 1.247 . S
C218 O212 1.261 . S
C219 O214 1.259 . S
C219 O216 1.235 . S
O220 Co210 2.021 . S
O220 C217 1.238 . S
O221 Co215 2.052 . S
O221 C217 1.241 . S
O222 Co210 2.137 . S
O222 C213 1.247 . S
O223 Co210 2.244 . S
O223 C213 1.272 . S
O223 Co215 2.135 . S
H224 C230 0.930 . S
H225 C234 0.930 . S
H226 C239 0.929 . S
H227 C237 0.929 . S
H228 C232 0.929 . S
H229 C238 0.929 . S
C230 H224 0.930 . S
C230 C231 1.367 . S
C230 C238 1.378 . S
C231 C230 1.367 . S
C231 C239 1.433 . S
C232 H228 0.929 . S
C232 C234 1.378 . S
C232 C236 1.350 . S
C233 C236 1.463 . S
C233 C238 1.350 . S
C233 N241 1.427 . S
C234 H225 0.930 . S
C234 C232 1.378 . S
C234 C235 1.367 . S
C235 C234 1.367 . S
C235 C237 1.433 . S
C236 C232 1.350 . S
C236 C233 1.463 . S
C236 N240 1.427 . S
C237 H227 0.929 . S
C237 C235 1.433 . S
C237 N240 1.384 . S
C238 H229 0.929 . S
C238 C230 1.378 . S
C238 C233 1.350 . S
C239 H226 0.929 . S
C239 C231 1.433 . S
C239 N241 1.384 . S
N240 C236 1.427 . S
N240 C237 1.384 . S
N241 C233 1.427 . S
N241 C239 1.384 . S
H242 C248 0.930 1_565 S
H243 C252 0.930 . S
H244 C257 0.929 . S
H245 C255 0.929 . S
H246 C250 0.932 . S
H247 C256 0.900 1_565 S
C248 H242 0.930 1_545 S
C248 C249 1.367 . S
C248 C256 1.382 . S
C249 C248 1.367 . S
C249 C257 1.433 . S
C250 H246 0.932 . S
C250 C252 1.378 . S
C250 C254 1.350 . S
C251 C254 1.463 1_655 S
C251 C256 1.379 . S
C251 N259 1.427 . S
C252 H243 0.930 . S
C252 C250 1.378 . S
C252 C253 1.367 . S
C253 C252 1.367 . S
C253 C255 1.433 1_545 S
C254 C250 1.350 . S
C254 C251 1.463 1_455 S
C254 N258 1.427 1_545 S
C255 H245 0.929 . S
C255 C253 1.433 1_565 S
C255 N258 1.384 . S
C256 H247 0.900 1_545 S
C256 C248 1.382 . S
C256 C251 1.379 . S
C257 H244 0.929 . S
C257 C249 1.433 . S
C257 N259 1.384 . S
N258 C254 1.427 1_565 S
N258 C255 1.384 . S
N259 C251 1.427 . S
N259 C257 1.384 . S
H260 C266 0.930 . S
H261 C270 0.930 . S
H262 C275 0.929 . S
H263 C273 0.929 . S
H264 C268 0.929 . S
H265 C274 0.929 . S
C266 H260 0.930 . S
C266 C267 1.367 . S
C266 C274 1.378 . S
C267 C266 1.367 . S
C267 C275 1.433 . S
C268 H264 0.929 . S
C268 C270 1.378 . S
C268 C272 1.350 . S
C269 C272 1.463 . S
C269 C274 1.350 . S
C269 N277 1.427 . S
C270 H261 0.930 . S
C270 C268 1.378 . S
C270 C271 1.367 . S
C271 C270 1.367 . S
C271 C273 1.433 . S
C272 C268 1.350 . S
C272 C269 1.463 . S
C272 N276 1.427 . S
C273 H263 0.929 . S
C273 C271 1.433 . S
C273 N276 1.384 . S
C274 H265 0.929 . S
C274 C266 1.378 . S
C274 C269 1.350 . S
C275 H262 0.929 . S
C275 C267 1.433 . S
C275 N277 1.384 . S
N276 C272 1.427 . S
N276 C273 1.384 . S
N277 C269 1.427 . S
N277 C275 1.384 . S
H278 C284 0.930 . S
H279 C288 0.930 . S
H280 C293 0.929 . S
H281 C291 0.929 . S
H282 C286 0.929 . S
H283 C292 0.929 . S
C284 H278 0.930 . S
C284 C285 1.367 1_565 S
C284 C292 1.378 . S
C285 C284 1.367 1_545 S
C285 C293 1.433 . S
C286 H282 0.929 . S
C286 C288 1.378 . S
C286 C290 1.350 . S
C287 C290 1.463 1_554 S
C287 C292 1.350 1_545 S
C287 N295 1.427 . S
C288 H279 0.930 . S
C288 C286 1.378 . S
C288 C289 1.367 . S
C289 C288 1.367 . S
C289 C291 1.433 1_545 S
C290 C286 1.350 . S
C290 C287 1.463 1_556 S
C290 N294 1.427 1_545 S
C291 H281 0.929 . S
C291 C289 1.433 1_565 S
C291 N294 1.384 . S
C292 H283 0.929 . S
C292 C284 1.378 . S
C292 C287 1.350 1_565 S
C293 H280 0.929 . S
C293 C285 1.433 . S
C293 N295 1.384 . S
N294 C290 1.427 1_565 S
N294 C291 1.384 . S
N295 C287 1.427 . S
N295 C293 1.384 . S
H296 C302 0.930 . S
H297 C306 0.930 . S
H298 C311 0.929 . S
H299 C309 0.929 . S
H300 C304 0.929 . S
H301 C310 0.929 . S
C302 H296 0.930 . S
C302 C303 1.367 . S
C302 C310 1.378 . S
C303 C302 1.367 . S
C303 C311 1.433 . S
C304 H300 0.929 . S
C304 C306 1.378 . S
C304 C308 1.350 . S
C305 C308 1.463 . S
C305 C310 1.350 . S
C305 N313 1.427 . S
C306 H297 0.930 . S
C306 C304 1.378 . S
C306 C307 1.367 . S
C307 C306 1.367 . S
C307 C309 1.433 . S
C308 C304 1.350 . S
C308 C305 1.463 . S
C308 N312 1.427 . S
C309 H299 0.929 . S
C309 C307 1.433 . S
C309 N312 1.384 . S
C310 H301 0.929 . S
C310 C302 1.378 . S
C310 C305 1.350 . S
C311 H298 0.929 . S
C311 C303 1.433 . S
C311 N313 1.384 . S
N312 C308 1.427 . S
N312 C309 1.384 . S
N313 C305 1.427 . S
N313 C311 1.384 . S
H314 C320 0.930 . S
H315 C324 0.930 . S
H316 C329 0.929 . S
H317 C327 0.929 . S
H318 C322 0.929 . S
H319 C328 0.929 . S
C320 H314 0.930 . S
C320 C321 1.367 . S
C320 C328 1.378 . S
C321 C320 1.367 . S
C321 C329 1.433 . S
C322 H318 0.929 . S
C322 C324 1.378 . S
C322 C326 1.350 . S
C323 C326 1.463 . S
C323 C328 1.350 . S
C323 N331 1.427 . S
C324 H315 0.930 . S
C324 C322 1.378 . S
C324 C325 1.367 . S
C325 C324 1.367 . S
C325 C327 1.433 . S
C326 C322 1.350 . S
C326 C323 1.463 . S
C326 N330 1.427 . S
C327 H317 0.929 . S
C327 C325 1.433 . S
C327 N330 1.384 . S
C328 H319 0.929 . S
C328 C320 1.378 . S
C328 C323 1.350 . S
C329 H316 0.929 . S
C329 C321 1.433 . S
C329 N331 1.384 . S
N330 C326 1.427 . S
N330 C327 1.384 . S
N331 C323 1.427 . S
N331 C329 1.384 . S
H332 C338 0.930 . S
H333 C342 0.930 . S
H334 C347 0.929 . S
H335 C345 0.929 . S
H336 C340 0.929 . S
H337 C346 0.929 . S
C338 H332 0.930 . S
C338 C339 1.367 . S
C338 C346 1.378 . S
C339 C338 1.367 . S
C339 C347 1.433 . S
C340 H336 0.929 . S
C340 C342 1.378 . S
C340 C344 1.350 . S
C341 C344 1.463 . S
C341 C346 1.350 . S
C341 N349 1.427 . S
C342 H333 0.930 . S
C342 C340 1.378 . S
C342 C343 1.367 . S
C343 C342 1.367 . S
C343 C345 1.433 . S
C344 C340 1.350 . S
C344 C341 1.463 . S
C344 N348 1.427 . S
C345 H335 0.929 . S
C345 C343 1.433 . S
C345 N348 1.384 . S
C346 H337 0.929 . S
C346 C338 1.378 . S
C346 C341 1.350 . S
C347 H334 0.929 . S
C347 C339 1.433 . S
C347 N349 1.384 . S
N348 C344 1.427 . S
N348 C345 1.384 . S
N349 C341 1.427 . S
N349 C347 1.384 . S
H350 C356 0.930 . S
H351 C360 0.930 . S
H352 C365 0.929 . S
H353 C363 0.929 . S
H354 C358 0.929 . S
H355 C364 0.929 1_554 S
C356 H350 0.930 . S
C356 C357 1.367 . S
C356 C364 1.378 . S
C357 C356 1.367 . S
C357 C365 1.433 1_545 S
C358 H354 0.929 . S
C358 C360 1.378 . S
C358 C362 1.350 1_565 S
C359 C362 1.463 1_456 S
C359 C364 1.350 . S
C359 N367 1.427 1_545 S
C360 H351 0.930 . S
C360 C358 1.378 . S
C360 C361 1.367 1_565 S
C361 C360 1.367 1_545 S
C361 C363 1.433 . S
C362 C358 1.350 1_545 S
C362 C359 1.463 1_654 S
C362 N366 1.427 . S
C363 H353 0.929 . S
C363 C361 1.433 . S
C363 N366 1.384 . S
C364 H355 0.929 1_556 S
C364 C356 1.378 . S
C364 C359 1.350 . S
C365 H352 0.929 . S
C365 C357 1.433 1_565 S
C365 N367 1.384 . S
N366 C362 1.427 . S
N366 C363 1.384 . S
N367 C359 1.427 1_565 S
N367 C365 1.384 . S
H368 C374 0.930 . S
H369 C378 0.930 . S
H370 C383 0.929 . S
H371 C381 0.929 . S
H372 C376 0.929 . S
H373 C382 0.929 . S
C374 H368 0.930 . S
C374 C375 1.367 . S
C374 C382 1.378 . S
C375 C374 1.367 . S
C375 C383 1.433 . S
C376 H372 0.929 . S
C376 C378 1.378 . S
C376 C380 1.350 . S
C377 C380 1.463 . S
C377 C382 1.350 . S
C377 N385 1.427 . S
C378 H369 0.930 . S
C378 C376 1.378 . S
C378 C379 1.367 . S
C379 C378 1.367 . S
C379 C381 1.433 . S
C380 C376 1.350 . S
C380 C377 1.463 . S
C380 N384 1.427 . S
C381 H371 0.929 . S
C381 C379 1.433 . S
C381 N384 1.384 . S
C382 H373 0.929 . S
C382 C374 1.378 . S
C382 C377 1.350 . S
C383 H370 0.929 . S
C383 C375 1.433 . S
C383 N385 1.384 . S
N384 C380 1.427 . S
N384 C381 1.384 . S
N385 C377 1.427 . S
N385 C383 1.384 . S
H386 C392 0.930 . S
H387 C396 0.930 . S
H388 C401 0.929 . S
H389 C399 0.929 . S
H390 C394 0.929 . S
H391 C400 0.929 . S
C392 H386 0.930 . S
C392 C393 1.367 . S
C392 C400 1.378 . S
C393 C392 1.367 . S
C393 C401 1.433 . S
C394 H390 0.929 . S
C394 C396 1.378 . S
C394 C398 1.350 . S
C395 C398 1.463 . S
C395 C400 1.350 . S
C395 N403 1.427 . S
C396 H387 0.930 . S
C396 C394 1.378 . S
C396 C397 1.367 . S
C397 C396 1.367 . S
C397 C399 1.433 . S
C398 C394 1.350 . S
C398 C395 1.463 . S
C398 N402 1.427 . S
C399 H389 0.929 . S
C399 C397 1.433 . S
C399 N402 1.384 . S
C400 H391 0.929 . S
C400 C392 1.378 . S
C400 C395 1.350 . S
C401 H388 0.929 . S
C401 C393 1.433 . S
C401 N403 1.384 . S
N402 C398 1.427 . S
N402 C399 1.384 . S
N403 C395 1.427 . S
N403 C401 1.384 . S
H404 C410 0.930 . S
H405 C414 0.930 . S
H406 C419 0.929 . S
H407 C417 0.929 . S
H408 C412 0.929 . S
H409 C418 0.929 . S
C410 H404 0.930 . S
C410 C411 1.367 . S
C410 C418 1.378 . S
C411 C410 1.367 . S
C411 C419 1.433 . S
C412 H408 0.929 . S
C412 C414 1.378 . S
C412 C416 1.350 . S
C413 C416 1.463 . S
C413 C418 1.350 . S
C413 N421 1.427 . S
C414 H405 0.930 . S
C414 C412 1.378 . S
C414 C415 1.367 . S
C415 C414 1.367 . S
C415 C417 1.433 . S
C416 C412 1.350 . S
C416 C413 1.463 . S
C416 N420 1.427 . S
C417 H407 0.929 . S
C417 C415 1.433 . S
C417 N420 1.384 . S
C418 H409 0.929 . S
C418 C410 1.378 . S
C418 C413 1.350 . S
C419 H406 0.929 . S
C419 C411 1.433 . S
C419 N421 1.384 . S
N420 C416 1.427 . S
N420 C417 1.384 . S
N421 C413 1.427 . S
N421 C419 1.384 . S
H422 C428 0.930 . S
H423 C432 0.930 . S
H424 C437 0.929 . S
H425 C435 0.929 . S
H426 C430 0.929 . S
H427 C436 0.929 . S
C428 H422 0.930 . S
C428 C429 1.367 . S
C428 C436 1.378 . S
C429 C428 1.367 . S
C429 C437 1.433 . S
C430 H426 0.929 . S
C430 C432 1.378 . S
C430 C434 1.350 . S
C431 C434 1.463 . S
C431 C436 1.350 . S
C431 N439 1.427 . S
C432 H423 0.930 . S
C432 C430 1.378 . S
C432 C433 1.367 . S
C433 C432 1.367 . S
C433 C435 1.433 . S
C434 C430 1.350 . S
C434 C431 1.463 . S
C434 N438 1.427 . S
C435 H425 0.929 . S
C435 C433 1.433 . S
C435 N438 1.384 . S
C436 H427 0.929 . S
C436 C428 1.378 . S
C436 C431 1.350 . S
C437 H424 0.929 . S
C437 C429 1.433 . S
C437 N439 1.384 . S
N438 C434 1.427 . S
N438 C435 1.384 . S
N439 C431 1.427 . S
N439 C437 1.384 . S
H440 C446 0.930 . S
H441 C450 0.930 . S
H442 C455 0.929 . S
H443 C453 0.929 . S
H444 C448 0.929 1_554 S
H445 C454 0.929 . S
C446 H440 0.930 . S
C446 C447 1.367 . S
C446 C454 1.378 . S
C447 C446 1.367 . S
C447 C455 1.433 . S
C448 H444 0.929 1_556 S
C448 C450 1.378 . S
C448 C452 1.350 . S
C449 C452 1.463 1_554 S
C449 C454 1.350 . S
C449 N457 1.427 . S
C450 H441 0.930 . S
C450 C448 1.378 . S
C450 C451 1.367 . S
C451 C450 1.367 . S
C451 C453 1.433 . S
C452 C448 1.350 . S
C452 C449 1.463 1_556 S
C452 N456 1.427 . S
C453 H443 0.929 . S
C453 C451 1.433 . S
C453 N456 1.384 . S
C454 H445 0.929 . S
C454 C446 1.378 . S
C454 C449 1.350 . S
C455 H442 0.929 . S
C455 C447 1.433 . S
C455 N457 1.384 . S
N456 C452 1.427 . S
N456 C453 1.384 . S
N457 C449 1.427 . S
N457 C455 1.384 . S
H458 C464 0.930 . S
H459 C468 0.930 . S
H460 C473 0.929 . S
H461 C471 0.929 . S
H462 C466 0.929 1_455 S
H463 C472 0.929 1_655 S
C464 H458 0.930 . S
C464 C465 1.367 . S
C464 C472 1.378 . S
C465 C464 1.367 . S
C465 C473 1.433 . S
C466 H462 0.929 1_655 S
C466 C468 1.378 . S
C466 C470 1.350 . S
C467 C470 1.463 1_455 S
C467 C472 1.350 . S
C467 N475 1.427 . S
C468 H459 0.930 . S
C468 C466 1.378 . S
C468 C469 1.367 . S
C469 C468 1.367 . S
C469 C471 1.433 . S
C470 C466 1.350 . S
C470 C467 1.463 1_655 S
C470 N474 1.427 . S
C471 H461 0.929 . S
C471 C469 1.433 . S
C471 N474 1.384 . S
C472 H463 0.929 1_455 S
C472 C464 1.378 . S
C472 C467 1.350 . S
C473 H460 0.929 . S
C473 C465 1.433 . S
C473 N475 1.384 . S
N474 C470 1.427 . S
N474 C471 1.384 . S
N475 C467 1.427 . S
N475 C473 1.384 . S
H476 C482 0.930 . S
H477 C486 0.930 . S
H478 C491 0.929 . S
H479 C489 0.929 . S
H480 C484 0.929 . S
H481 C490 0.929 1_556 S
C482 H476 0.930 . S
C482 C483 1.367 . S
C482 C490 1.378 . S
C483 C482 1.367 . S
C483 C491 1.433 . S
C484 H480 0.929 . S
C484 C486 1.378 1_554 S
C484 C488 1.350 1_554 S
C485 C488 1.463 1_454 S
C485 C490 1.350 . S
C485 N493 1.444 . S
C486 H477 0.930 . S
C486 C484 1.378 1_556 S
C486 C487 1.367 . S
C487 C486 1.367 . S
C487 C489 1.433 . S
C488 C484 1.350 1_556 S
C488 C485 1.463 1_656 S
C488 N492 1.444 . S
C489 H479 0.929 . S
C489 C487 1.433 . S
C489 N492 1.418 . S
C490 H481 0.929 1_554 S
C490 C482 1.378 . S
C490 C485 1.350 . S
C491 H478 0.929 . S
C491 C483 1.433 . S
C491 N493 1.418 . S
N492 C488 1.444 . S
N492 C489 1.418 . S
N493 C485 1.444 . S
N493 C491 1.418 . S
H494 C500 0.930 . S
H495 C504 0.930 . S
H496 C509 0.929 . S
H497 C507 0.929 . S
H498 C502 0.929 . S
H499 C508 0.929 . S
C500 H494 0.930 . S
C500 C501 1.367 . S
C500 C508 1.378 . S
C501 C500 1.367 . S
C501 C509 1.433 . S
C502 H498 0.929 . S
C502 C504 1.378 . S
C502 C506 1.350 . S
C503 C506 1.463 . S
C503 C508 1.350 . S
C503 N511 1.427 . S
C504 H495 0.930 . S
C504 C502 1.378 . S
C504 C505 1.367 . S
C505 C504 1.367 . S
C505 C507 1.433 . S
C506 C502 1.350 . S
C506 C503 1.463 . S
C506 N510 1.427 . S
C507 H497 0.929 . S
C507 C505 1.433 . S
C507 N510 1.384 . S
C508 H499 0.929 . S
C508 C500 1.378 . S
C508 C503 1.350 . S
C509 H496 0.929 . S
C509 C501 1.433 . S
C509 N511 1.384 . S
N510 C506 1.427 . S
N510 C507 1.384 . S
N511 C503 1.427 . S
N511 C509 1.384 . S
H512 C518 0.930 . S
H513 C522 0.930 . S
H514 C527 0.929 . S
H515 C525 0.929 . S
H516 C520 0.929 . S
H517 C526 0.929 . S
C518 H512 0.930 . S
C518 C519 1.367 . S
C518 C526 1.378 . S
C519 C518 1.367 . S
C519 C527 1.433 . S
C520 H516 0.929 . S
C520 C522 1.378 . S
C520 C524 1.350 . S
C521 C524 1.463 . S
C521 C526 1.350 . S
C521 N529 1.427 . S
C522 H513 0.930 . S
C522 C520 1.378 . S
C522 C523 1.367 . S
C523 C522 1.367 . S
C523 C525 1.433 . S
C524 C520 1.350 . S
C524 C521 1.463 . S
C524 N528 1.427 . S
C525 H515 0.929 . S
C525 C523 1.433 . S
C525 N528 1.384 . S
C526 H517 0.929 . S
C526 C518 1.378 . S
C526 C521 1.350 . S
C527 H514 0.929 . S
C527 C519 1.433 . S
C527 N529 1.384 . S
N528 C524 1.427 . S
N528 C525 1.384 . S
N529 C521 1.427 . S
N529 C527 1.384 . S
H530 C536 0.930 . S
H531 C540 0.930 . S
H532 C545 0.929 . S
H533 C543 0.929 . S
H534 C538 0.929 . S
H535 C544 0.929 . S
C536 H530 0.930 . S
C536 C537 1.367 . S
C536 C544 1.378 . S
C537 C536 1.367 . S
C537 C545 1.433 . S
C538 H534 0.929 . S
C538 C540 1.378 . S
C538 C542 1.350 . S
C539 C542 1.463 . S
C539 C544 1.350 . S
C539 N547 1.427 . S
C540 H531 0.930 . S
C540 C538 1.378 . S
C540 C541 1.367 . S
C541 C540 1.367 . S
C541 C543 1.433 . S
C542 C538 1.350 . S
C542 C539 1.463 . S
C542 N546 1.427 . S
C543 H533 0.929 . S
C543 C541 1.433 . S
C543 N546 1.384 . S
C544 H535 0.929 . S
C544 C536 1.378 . S
C544 C539 1.350 . S
C545 H532 0.929 . S
C545 C537 1.433 . S
C545 N547 1.384 . S
N546 C542 1.427 . S
N546 C543 1.384 . S
N547 C539 1.427 . S
N547 C545 1.384 . S
H548 C554 0.930 . S
H549 C558 0.930 . S
H550 C563 0.929 . S
H551 C561 0.929 . S
H552 C556 0.929 . S
H553 C562 0.929 . S
C554 H548 0.930 . S
C554 C555 1.367 . S
C554 C562 1.378 . S
C555 C554 1.367 . S
C555 C563 1.433 . S
C556 H552 0.929 . S
C556 C558 1.378 . S
C556 C560 1.350 . S
C557 C560 1.463 . S
C557 C562 1.350 . S
C557 N565 1.427 . S
C558 H549 0.930 . S
C558 C556 1.378 . S
C558 C559 1.367 . S
C559 C558 1.367 . S
C559 C561 1.433 . S
C560 C556 1.350 . S
C560 C557 1.463 . S
C560 N564 1.427 . S
C561 H551 0.929 . S
C561 C559 1.433 . S
C561 N564 1.384 . S
C562 H553 0.929 . S
C562 C554 1.378 . S
C562 C557 1.350 . S
C563 H550 0.929 . S
C563 C555 1.433 . S
C563 N565 1.384 . S
N564 C560 1.427 . S
N564 C561 1.384 . S
N565 C557 1.427 . S
N565 C563 1.384 . S
H566 C572 0.930 . S
H567 C576 0.930 . S
H568 C581 0.929 1_554 S
H569 C579 0.929 . S
H570 C574 0.929 . S
H571 C580 0.929 . S
C572 H566 0.930 . S
C572 C573 1.367 . S
C572 C580 1.378 . S
C573 C572 1.367 . S
C573 C581 1.433 . S
C574 H570 0.929 . S
C574 C576 1.378 . S
C574 C578 1.350 . S
C575 C578 1.463 . S
C575 C580 1.350 . S
C575 N583 1.427 . S
C576 H567 0.930 . S
C576 C574 1.378 . S
C576 C577 1.367 . S
C577 C576 1.367 . S
C577 C579 1.433 . S
C578 C574 1.350 . S
C578 C575 1.463 . S
C578 N582 1.427 . S
C579 H569 0.929 . S
C579 C577 1.433 . S
C579 N582 1.384 . S
C580 H571 0.929 . S
C580 C572 1.378 . S
C580 C575 1.350 . S
C581 H568 0.929 1_556 S
C581 C573 1.433 . S
C581 N583 1.384 . S
N582 C578 1.427 . S
N582 C579 1.384 . S
N583 C575 1.427 . S
N583 C581 1.384 . S
H584 C590 0.930 . S
H585 C594 0.930 . S
H586 C599 0.929 . S
H587 C597 0.929 . S
H588 C592 0.929 . S
H589 C598 0.929 . S
C590 H584 0.930 . S
C590 C591 1.367 . S
C590 C598 1.378 . S
C591 C590 1.367 . S
C591 C599 1.433 . S
C592 H588 0.929 . S
C592 C594 1.378 . S
C592 C596 1.350 . S
C593 C596 1.463 . S
C593 C598 1.350 . S
C593 N601 1.427 . S
C594 H585 0.930 . S
C594 C592 1.378 . S
C594 C595 1.367 . S
C595 C594 1.367 . S
C595 C597 1.433 . S
C596 C592 1.350 . S
C596 C593 1.463 . S
C596 N600 1.427 . S
C597 H587 0.929 . S
C597 C595 1.433 . S
C597 N600 1.384 . S
C598 H589 0.929 . S
C598 C590 1.378 . S
C598 C593 1.350 . S
C599 H586 0.929 . S
C599 C591 1.433 . S
C599 N601 1.384 . S
N600 C596 1.427 . S
N600 C597 1.384 . S
N601 C593 1.427 . S
N601 C599 1.384 . S
H602 C608 0.930 . S
H603 C612 0.930 . S
H604 C617 0.929 . S
H605 C615 0.929 . S
H606 C610 0.929 . S
H607 C616 0.929 . S
C608 H602 0.930 . S
C608 C609 1.367 . S
C608 C616 1.378 . S
C609 C608 1.367 . S
C609 C617 1.433 . S
C610 H606 0.929 . S
C610 C612 1.378 . S
C610 C614 1.350 . S
C611 C614 1.463 . S
C611 C616 1.350 . S
C611 N619 1.427 . S
C612 H603 0.930 . S
C612 C610 1.378 . S
C612 C613 1.367 . S
C613 C612 1.367 . S
C613 C615 1.433 . S
C614 C610 1.350 . S
C614 C611 1.463 . S
C614 N618 1.427 . S
C615 H605 0.929 . S
C615 C613 1.433 . S
C615 N618 1.384 . S
C616 H607 0.929 . S
C616 C608 1.378 . S
C616 C611 1.350 . S
C617 H604 0.929 . S
C617 C609 1.433 . S
C617 N619 1.384 . S
N618 C614 1.427 . S
N618 C615 1.384 . S
N619 C611 1.427 . S
N619 C617 1.384 . S
H620 C626 0.930 . S
H621 C630 0.930 . S
H622 C635 0.929 . S
H623 C633 0.929 1_554 S
H624 C628 0.929 . S
H625 C634 0.929 . S
C626 H620 0.930 . S
C626 C627 1.367 . S
C626 C634 1.378 . S
C627 C626 1.367 . S
C627 C635 1.433 . S
C628 H624 0.929 . S
C628 C630 1.378 . S
C628 C632 1.350 . S
C629 C632 1.463 . S
C629 C634 1.350 . S
C629 N637 1.427 . S
C630 H621 0.930 . S
C630 C628 1.378 . S
C630 C631 1.367 . S
C631 C630 1.367 . S
C631 C633 1.433 . S
C632 C628 1.350 . S
C632 C629 1.463 . S
C632 N636 1.427 . S
C633 H623 0.929 1_556 S
C633 C631 1.433 . S
C633 N636 1.384 . S
C634 H625 0.929 . S
C634 C626 1.378 . S
C634 C629 1.350 . S
C635 H622 0.929 . S
C635 C627 1.433 . S
C635 N637 1.384 . S
N636 C632 1.427 . S
N636 C633 1.384 . S
N637 C629 1.427 . S
N637 C635 1.384 . S
H638 C644 0.930 . S
H639 C648 0.930 . S
H640 C653 0.929 . S
H641 C651 0.929 . S
H642 C646 0.929 . S
H643 C652 0.929 . S
C644 H638 0.930 . S
C644 C645 1.367 . S
C644 C652 1.378 . S
C645 C644 1.367 . S
C645 C653 1.433 . S
C646 H642 0.929 . S
C646 C648 1.378 . S
C646 C650 1.350 . S
C647 C650 1.463 . S
C647 C652 1.350 . S
C647 N655 1.427 . S
C648 H639 0.930 . S
C648 C646 1.378 . S
C648 C649 1.367 . S
C649 C648 1.367 . S
C649 C651 1.433 . S
C650 C646 1.350 . S
C650 C647 1.463 . S
C650 N654 1.427 . S
C651 H641 0.929 . S
C651 C649 1.433 . S
C651 N654 1.384 . S
C652 H643 0.929 . S
C652 C644 1.378 . S
C652 C647 1.350 . S
C653 H640 0.929 . S
C653 C645 1.433 . S
C653 N655 1.384 . S
N654 C650 1.427 . S
N654 C651 1.384 . S
N655 C647 1.427 . S
N655 C653 1.384 . S
H656 C662 0.930 . S
H657 C666 0.930 . S
H658 C671 0.929 . S
H659 C669 0.929 . S
H660 C664 0.929 . S
H661 C670 0.929 . S
C662 H656 0.930 . S
C662 C663 1.367 . S
C662 C670 1.378 . S
C663 C662 1.367 . S
C663 C671 1.433 . S
C664 H660 0.929 . S
C664 C666 1.378 . S
C664 C668 1.350 . S
C665 C668 1.463 . S
C665 C670 1.350 . S
C665 N673 1.427 . S
C666 H657 0.930 . S
C666 C664 1.378 . S
C666 C667 1.367 . S
C667 C666 1.367 . S
C667 C669 1.433 . S
C668 C664 1.350 . S
C668 C665 1.463 . S
C668 N672 1.427 . S
C669 H659 0.929 . S
C669 C667 1.433 . S
C669 N672 1.384 . S
C670 H661 0.929 . S
C670 C662 1.378 . S
C670 C665 1.350 . S
C671 H658 0.929 . S
C671 C663 1.433 . S
C671 N673 1.384 . S
N672 C668 1.427 . S
N672 C669 1.384 . S
N673 C665 1.427 . S
N673 C671 1.384 . S
H674 C680 0.930 . S
H675 C684 0.930 . S
H676 C689 0.929 . S
H677 C687 0.929 . S
H678 C682 0.929 . S
H679 C688 0.929 . S
C680 H674 0.930 . S
C680 C681 1.367 . S
C680 C688 1.378 . S
C681 C680 1.367 . S
C681 C689 1.433 . S
C682 H678 0.929 . S
C682 C684 1.378 . S
C682 C686 1.350 . S
C683 C686 1.463 . S
C683 C688 1.350 . S
C683 N691 1.427 . S
C684 H675 0.930 . S
C684 C682 1.378 . S
C684 C685 1.367 . S
C685 C684 1.367 . S
C685 C687 1.433 . S
C686 C682 1.350 . S
C686 C683 1.463 . S
C686 N690 1.427 . S
C687 H677 0.929 . S
C687 C685 1.433 . S
C687 N690 1.384 . S
C688 H679 0.929 . S
C688 C680 1.378 . S
C688 C683 1.350 . S
C689 H676 0.929 . S
C689 C681 1.433 . S
C689 N691 1.384 . S
N690 C686 1.427 . S
N690 C687 1.384 . S
N691 C683 1.427 . S
N691 C689 1.384 . S
H692 C698 0.930 . S
H693 C702 0.930 . S
H694 C707 0.929 . S
H695 C705 0.929 . S
H696 C700 0.929 . S
H697 C706 0.929 . S
C698 H692 0.930 . S
C698 C699 1.367 . S
C698 C706 1.378 . S
C699 C698 1.367 . S
C699 C707 1.433 . S
C700 H696 0.929 . S
C700 C702 1.378 . S
C700 C704 1.350 . S
C701 C704 1.463 . S
C701 C706 1.350 . S
C701 N709 1.427 . S
C702 H693 0.930 . S
C702 C700 1.378 . S
C702 C703 1.367 . S
C703 C702 1.367 . S
C703 C705 1.433 . S
C704 C700 1.350 . S
C704 C701 1.463 . S
C704 N708 1.427 . S
C705 H695 0.929 . S
C705 C703 1.433 . S
C705 N708 1.384 . S
C706 H697 0.929 . S
C706 C698 1.378 . S
C706 C701 1.350 . S
C707 H694 0.929 . S
C707 C699 1.433 . S
C707 N709 1.384 . S
N708 C704 1.427 . S
N708 C705 1.384 . S
N709 C701 1.427 . S
N709 C707 1.384 . S
H710 C716 0.930 . S
H711 C720 0.930 . S
H712 C725 0.929 . S
H713 C723 0.929 . S
H714 C718 0.929 . S
H715 C724 0.929 . S
C716 H710 0.930 . S
C716 C717 1.367 . S
C716 C724 1.378 . S
C717 C716 1.367 . S
C717 C725 1.433 . S
C718 H714 0.929 . S
C718 C720 1.378 . S
C718 C722 1.350 . S
C719 C722 1.463 . S
C719 C724 1.350 . S
C719 N727 1.427 . S
C720 H711 0.930 . S
C720 C718 1.378 . S
C720 C721 1.367 . S
C721 C720 1.367 . S
C721 C723 1.433 . S
C722 C718 1.350 . S
C722 C719 1.463 . S
C722 N726 1.427 . S
C723 H713 0.929 . S
C723 C721 1.433 . S
C723 N726 1.384 . S
C724 H715 0.929 . S
C724 C716 1.378 . S
C724 C719 1.350 . S
C725 H712 0.929 . S
C725 C717 1.433 . S
C725 N727 1.384 . S
N726 C722 1.427 . S
N726 C723 1.384 . S
N727 C719 1.427 . S
N727 C725 1.384 . S
H728 C734 0.930 . S
H729 C738 0.930 . S
H730 C743 0.929 . S
H731 C741 0.929 . S
H732 C736 0.929 . S
H733 C742 0.929 . S
C734 H728 0.930 . S
C734 C735 1.367 . S
C734 C742 1.378 . S
C735 C734 1.367 . S
C735 C743 1.433 . S
C736 H732 0.929 . S
C736 C738 1.378 . S
C736 C740 1.350 . S
C737 C740 1.463 . S
C737 C742 1.350 . S
C737 N745 1.427 . S
C738 H729 0.930 . S
C738 C736 1.378 . S
C738 C739 1.367 . S
C739 C738 1.367 . S
C739 C741 1.433 . S
C740 C736 1.350 . S
C740 C737 1.463 . S
C740 N744 1.427 . S
C741 H731 0.929 . S
C741 C739 1.433 . S
C741 N744 1.384 . S
C742 H733 0.929 . S
C742 C734 1.378 . S
C742 C737 1.350 . S
C743 H730 0.929 . S
C743 C735 1.433 . S
C743 N745 1.384 . S
N744 C740 1.427 . S
N744 C741 1.384 . S
N745 C737 1.427 . S
N745 C743 1.384 . S
H746 C752 0.930 . S
H747 C756 0.930 . S
H748 C761 0.929 . S
H749 C759 0.929 . S
H750 C754 0.929 . S
H751 C760 0.929 . S
C752 H746 0.930 . S
C752 C753 1.367 . S
C752 C760 1.378 . S
C753 C752 1.367 . S
C753 C761 1.433 . S
C754 H750 0.929 . S
C754 C756 1.378 . S
C754 C758 1.350 . S
C755 C758 1.463 . S
C755 C760 1.350 . S
C755 N763 1.427 . S
C756 H747 0.930 . S
C756 C754 1.378 . S
C756 C757 1.367 . S
C757 C756 1.367 . S
C757 C759 1.433 . S
C758 C754 1.350 . S
C758 C755 1.463 . S
C758 N762 1.427 . S
C759 H749 0.929 . S
C759 C757 1.433 . S
C759 N762 1.384 . S
C760 H751 0.929 . S
C760 C752 1.378 . S
C760 C755 1.350 . S
C761 H748 0.929 . S
C761 C753 1.433 . S
C761 N763 1.384 . S
N762 C758 1.427 . S
N762 C759 1.384 . S
N763 C755 1.427 . S
N763 C761 1.384 . S
H764 C770 0.930 . S
H765 C774 0.930 . S
H766 C779 0.929 . S
H767 C777 0.929 . S
H768 C772 0.929 . S
H769 C778 0.929 . S
C770 H764 0.930 . S
C770 C771 1.367 . S
C770 C778 1.378 . S
C771 C770 1.367 . S
C771 C779 1.433 . S
C772 H768 0.929 . S
C772 C774 1.378 . S
C772 C776 1.350 . S
C773 C776 1.463 . S
C773 C778 1.350 . S
C773 N781 1.427 . S
C774 H765 0.930 . S
C774 C772 1.378 . S
C774 C775 1.367 . S
C775 C774 1.367 . S
C775 C777 1.433 . S
C776 C772 1.350 . S
C776 C773 1.463 . S
C776 N780 1.427 . S
C777 H767 0.929 . S
C777 C775 1.433 . S
C777 N780 1.384 . S
C778 H769 0.929 . S
C778 C770 1.378 . S
C778 C773 1.350 . S
C779 H766 0.929 . S
C779 C771 1.433 . S
C779 N781 1.384 . S
N780 C776 1.427 . S
N780 C777 1.384 . S
N781 C773 1.427 . S
N781 C779 1.384 . S
H782 C788 0.930 . S
H783 C792 0.930 . S
H784 C797 0.929 . S
H785 C795 0.929 . S
H786 C790 0.929 . S
H787 C796 0.929 . S
C788 H782 0.930 . S
C788 C789 1.367 . S
C788 C796 1.378 . S
C789 C788 1.367 . S
C789 C797 1.433 . S
C790 H786 0.929 . S
C790 C792 1.378 . S
C790 C794 1.350 . S
C791 C794 1.463 . S
C791 C796 1.350 . S
C791 N799 1.427 . S
C792 H783 0.930 . S
C792 C790 1.378 . S
C792 C793 1.367 . S
C793 C792 1.367 . S
C793 C795 1.433 . S
C794 C790 1.350 . S
C794 C791 1.463 . S
C794 N798 1.427 . S
C795 H785 0.929 . S
C795 C793 1.433 . S
C795 N798 1.384 . S
C796 H787 0.929 . S
C796 C788 1.378 . S
C796 C791 1.350 . S
C797 H784 0.929 . S
C797 C789 1.433 . S
C797 N799 1.384 . S
N798 C794 1.427 . S
N798 C795 1.384 . S
N799 C791 1.427 . S
N799 C797 1.384 . S
C231 C3 1.502 . S
C235 C171 1.502 . S
C249 C23 1.318 . S
C253 C79 1.318 . S
C267 C31 1.502 . S
C271 C199 1.502 . S
C285 C107 1.318 . S
C289 C51 1.318 . S
C303 C205 1.328 . S
C307 C37 1.328 . S
C321 C101 1.501 . S
C325 C45 1.501 . S
C339 C177 1.318 . S
C343 C9 1.318 . S
C357 C73 1.504 . S
C361 C17 1.504 . S
C375 C59 1.499 . S
C379 C115 1.499 . S
C393 C87 1.503 . S
C397 C143 1.503 . S
C411 C149 1.324 . S
C415 C93 1.324 . S
C429 C65 1.328 . S
C433 C121 1.328 . S
C447 C191 1.319 . S
C451 C135 1.319 . S
C465 C163 1.319 . S
C469 C219 1.319 . S
C483 C157 1.502 . S
C487 C213 1.502 . S
C501 C129 1.499 . S
C505 C185 1.499 . S
C519 C162 1.486 . S
C523 C8 1.486 . S
C537 C119 1.473 . S
C541 C21 1.465 . S
C555 C36 1.487 . S
C559 C134 1.487 . S
C573 C147 1.468 . S
C577 C49 1.466 . S
C591 C161 1.465 . S
C595 C35 1.473 . S
C609 C50 1.487 . S
C613 C120 1.487 . S
C627 C133 1.470 . S
C631 C7 1.464 . S
C645 C148 1.486 . S
C649 C22 1.486 . S
C663 C64 1.487 . S
C667 C218 1.486 . S
C681 C175 1.466 . S
C685 C77 1.467 . S
C699 C92 1.486 . S
C703 C190 1.487 . S
C717 C105 1.471 . S
C721 C203 1.468 . S
C735 C91 1.466 . S
C739 C217 1.472 . S
C753 C176 1.486 . S
C757 C106 1.487 . S
C771 C189 1.473 . S
C775 C63 1.463 . S
C789 C204 1.487 . S
C793 C78 1.486 . S
