# Generated by pormake.
# Topology lcs, (4)-cn, num edge types: 1
# Building blocks:
#     Node 0, Type 0, BuildingBlock: AZAVOO_clean_sbu_0, # of connection points: 4
#     Node 1, Type 0, BuildingBlock: AZAVOO_clean_sbu_0, # of connection points: 4
#     Node 2, Type 0, BuildingBlock: AZAVOO_clean_sbu_0, # of connection points: 4
#     Node 3, Type 0, BuildingBlock: AZAVOO_clean_sbu_0, # of connection points: 4
#     Node 4, Type 0, BuildingBlock: AZAVOO_clean_sbu_0, # of connection points: 4
#     Node 5, Type 0, BuildingBlock: AZAVOO_clean_sbu_0, # of connection points: 4
#     Node 6, Type 0, BuildingBlock: AZAVOO_clean_sbu_0, # of connection points: 4
#     Node 7, Type 0, BuildingBlock: AZAVOO_clean_sbu_0, # of connection points: 4
#     Node 8, Type 0, BuildingBlock: AZAVOO_clean_sbu_0, # of connection points: 4
#     Node 9, Type 0, BuildingBlock: AZAVOO_clean_sbu_0, # of connection points: 4
#     Node 10, Type 0, BuildingBlock: AZAVOO_clean_sbu_0, # of connection points: 4
#     Node 11, Type 0, BuildingBlock: AZAVOO_clean_sbu_0, # of connection points: 4
#     Node 12, Type 0, BuildingBlock: AZAVOO_clean_sbu_0, # of connection points: 4
#     Node 13, Type 0, BuildingBlock: AZAVOO_clean_sbu_0, # of connection points: 4
#     Node 14, Type 0, BuildingBlock: AZAVOO_clean_sbu_0, # of connection points: 4
#     Node 15, Type 0, BuildingBlock: AZAVOO_clean_sbu_0, # of connection points: 4
#     Node 16, Type 0, BuildingBlock: AZAVOO_clean_sbu_0, # of connection points: 4
#     Node 17, Type 0, BuildingBlock: AZAVOO_clean_sbu_0, # of connection points: 4
#     Node 18, Type 0, BuildingBlock: AZAVOO_clean_sbu_0, # of connection points: 4
#     Node 19, Type 0, BuildingBlock: AZAVOO_clean_sbu_0, # of connection points: 4
#     Node 20, Type 0, BuildingBlock: AZAVOO_clean_sbu_0, # of connection points: 4
#     Node 21, Type 0, BuildingBlock: AZAVOO_clean_sbu_0, # of connection points: 4
#     Node 22, Type 0, BuildingBlock: AZAVOO_clean_sbu_0, # of connection points: 4
#     Node 23, Type 0, BuildingBlock: AZAVOO_clean_sbu_0, # of connection points: 4
#     Edge 24, Type (0, 0), BuildingBlock: TEMPAE_clean_linker_10, # of connection points: 2
#     Edge 25, Type (0, 0), BuildingBlock: TEMPAE_clean_linker_10, # of connection points: 2
#     Edge 26, Type (0, 0), BuildingBlock: TEMPAE_clean_linker_10, # of connection points: 2
#     Edge 27, Type (0, 0), BuildingBlock: TEMPAE_clean_linker_10, # of connection points: 2
#     Edge 28, Type (0, 0), BuildingBlock: TEMPAE_clean_linker_10, # of connection points: 2
#     Edge 29, Type (0, 0), BuildingBlock: TEMPAE_clean_linker_10, # of connection points: 2
#     Edge 30, Type (0, 0), BuildingBlock: TEMPAE_clean_linker_10, # of connection points: 2
#     Edge 31, Type (0, 0), BuildingBlock: TEMPAE_clean_linker_10, # of connection points: 2
#     Edge 32, Type (0, 0), BuildingBlock: TEMPAE_clean_linker_10, # of connection points: 2
#     Edge 33, Type (0, 0), BuildingBlock: TEMPAE_clean_linker_10, # of connection points: 2
#     Edge 34, Type (0, 0), BuildingBlock: TEMPAE_clean_linker_10, # of connection points: 2
#     Edge 35, Type (0, 0), BuildingBlock: TEMPAE_clean_linker_10, # of connection points: 2
#     Edge 36, Type (0, 0), BuildingBlock: TEMPAE_clean_linker_10, # of connection points: 2
#     Edge 37, Type (0, 0), BuildingBlock: TEMPAE_clean_linker_10, # of connection points: 2
#     Edge 38, Type (0, 0), BuildingBlock: TEMPAE_clean_linker_10, # of connection points: 2
#     Edge 39, Type (0, 0), BuildingBlock: TEMPAE_clean_linker_10, # of connection points: 2
#     Edge 40, Type (0, 0), BuildingBlock: TEMPAE_clean_linker_10, # of connection points: 2
#     Edge 41, Type (0, 0), BuildingBlock: TEMPAE_clean_linker_10, # of connection points: 2
#     Edge 42, Type (0, 0), BuildingBlock: TEMPAE_clean_linker_10, # of connection points: 2
#     Edge 43, Type (0, 0), BuildingBlock: TEMPAE_clean_linker_10, # of connection points: 2
#     Edge 44, Type (0, 0), BuildingBlock: TEMPAE_clean_linker_10, # of connection points: 2
#     Edge 45, Type (0, 0), BuildingBlock: TEMPAE_clean_linker_10, # of connection points: 2
#     Edge 46, Type (0, 0), BuildingBlock: TEMPAE_clean_linker_10, # of connection points: 2
#     Edge 47, Type (0, 0), BuildingBlock: TEMPAE_clean_linker_10, # of connection points: 2
#     Edge 48, Type (0, 0), BuildingBlock: TEMPAE_clean_linker_10, # of connection points: 2
#     Edge 49, Type (0, 0), BuildingBlock: TEMPAE_clean_linker_10, # of connection points: 2
#     Edge 50, Type (0, 0), BuildingBlock: TEMPAE_clean_linker_10, # of connection points: 2
#     Edge 51, Type (0, 0), BuildingBlock: TEMPAE_clean_linker_10, # of connection points: 2
#     Edge 52, Type (0, 0), BuildingBlock: TEMPAE_clean_linker_10, # of connection points: 2
#     Edge 53, Type (0, 0), BuildingBlock: TEMPAE_clean_linker_10, # of connection points: 2
#     Edge 54, Type (0, 0), BuildingBlock: TEMPAE_clean_linker_10, # of connection points: 2
#     Edge 55, Type (0, 0), BuildingBlock: TEMPAE_clean_linker_10, # of connection points: 2
#     Edge 56, Type (0, 0), BuildingBlock: TEMPAE_clean_linker_10, # of connection points: 2
#     Edge 57, Type (0, 0), BuildingBlock: TEMPAE_clean_linker_10, # of connection points: 2
#     Edge 58, Type (0, 0), BuildingBlock: TEMPAE_clean_linker_10, # of connection points: 2
#     Edge 59, Type (0, 0), BuildingBlock: TEMPAE_clean_linker_10, # of connection points: 2
#     Edge 60, Type (0, 0), BuildingBlock: TEMPAE_clean_linker_10, # of connection points: 2
#     Edge 61, Type (0, 0), BuildingBlock: TEMPAE_clean_linker_10, # of connection points: 2
#     Edge 62, Type (0, 0), BuildingBlock: TEMPAE_clean_linker_10, # of connection points: 2
#     Edge 63, Type (0, 0), BuildingBlock: TEMPAE_clean_linker_10, # of connection points: 2
#     Edge 64, Type (0, 0), BuildingBlock: TEMPAE_clean_linker_10, # of connection points: 2
#     Edge 65, Type (0, 0), BuildingBlock: TEMPAE_clean_linker_10, # of connection points: 2
#     Edge 66, Type (0, 0), BuildingBlock: TEMPAE_clean_linker_10, # of connection points: 2
#     Edge 67, Type (0, 0), BuildingBlock: TEMPAE_clean_linker_10, # of connection points: 2
#     Edge 68, Type (0, 0), BuildingBlock: TEMPAE_clean_linker_10, # of connection points: 2
#     Edge 69, Type (0, 0), BuildingBlock: TEMPAE_clean_linker_10, # of connection points: 2
#     Edge 70, Type (0, 0), BuildingBlock: TEMPAE_clean_linker_10, # of connection points: 2
#     Edge 71, Type (0, 0), BuildingBlock: TEMPAE_clean_linker_10, # of connection points: 2
# Relax obj value: 0.140
# Max RMSD: 0.191
# Mean RMSD: 0.183
data_MOF--net-lcs--node1-AZAVOO_clean_sbu_0--edge1-TEMPAE_clean_linker_10
_symmetry_space_group_name_H-M    P1
_symmetry_Int_Tables_number       1
_symmetry_cell_setting            triclinic
loop_
_symmetry_equiv_pos_as_xyz
'x, y, z'
_cell_length_a     49.48671
_cell_length_b     48.613509
_cell_length_c     48.610128
_cell_angle_alpha  94.069317
_cell_angle_beta   94.118491
_cell_angle_gamma 94.103032
loop_
_atom_site_label
_atom_site_type_symbol
_atom_site_fract_x
_atom_site_fract_y
_atom_site_fract_z
_atom_type_partial_charge
Mg0 Mg 0.01101 0.25638 0.4502 0.0
O1 O 0.98904 0.22729 0.41431 0.0
O2 O 0.95068 0.2464 0.40175 0.0
Mg3 Mg 0.94799 0.28651 0.4283 0.0
C4 C 0.96663 0.227 0.39934 0.0
C5 C 0.06891 0.24215 0.46559 0.0
O6 O 0.06502 0.26155 0.48481 0.0
O7 O 0.02412 0.28834 0.42059 0.0
O8 O 0.98497 0.30655 0.40926 0.0
O9 O 0.98837 0.23302 0.48055 0.0
O10 O 0.97396 0.26927 0.46024 0.0
C11 C 0.01055 0.30556 0.40783 0.0
C12 C 0.96929 0.24929 0.47569 0.0
O13 O 0.04996 0.23497 0.44688 0.0
Mg14 Mg 0.98004 0.75328 0.56896 0.0
O15 O 0.99539 0.78208 0.60675 0.0
O16 O 0.96036 0.79569 0.62938 0.0
Mg17 Mg 0.92209 0.77243 0.60714 0.0
C18 C 0.98581 0.79614 0.62643 0.0
C19 C 0.03516 0.74851 0.54184 0.0
O20 O 0.02093 0.75913 0.5219 0.0
O21 O 0.97331 0.71788 0.59682 0.0
O22 O 0.93772 0.731 0.61894 0.0
O23 O 0.97364 0.79047 0.54501 0.0
O24 O 0.94235 0.76986 0.56834 0.0
C25 C 0.95558 0.71384 0.61428 0.0
C26 C 0.94958 0.78992 0.55393 0.0
O27 O 0.02391 0.74323 0.56377 0.0
Mg28 Mg 0.52311 0.78994 0.98273 0.0
O29 O 0.49715 0.76206 0.94891 0.0
O30 O 0.45657 0.77918 0.94338 0.0
Mg31 Mg 0.45734 0.8188 0.97222 0.0
C32 C 0.47301 0.76094 0.9374 0.0
C33 C 0.55987 0.74242 0.97063 0.0
O34 O 0.53658 0.72814 0.97242 0.0
O35 O 0.53055 0.82228 0.95181 0.0
O36 O 0.49041 0.84093 0.94887 0.0
O37 O 0.50551 0.76465 0.0145 0.0
O38 O 0.48832 0.80221 -0.00031 0.0
C39 C 0.51503 0.84006 0.94276 0.0
C40 C 0.48594 0.78096 0.01396 0.0
O41 O 0.5608 0.76866 0.97271 0.0
Mg42 Mg 0.47792 0.25192 0.05314 0.0
O43 O 0.48836 0.27861 0.0935 0.0
O44 O 0.45007 0.28937 0.11198 0.0
Mg45 Mg 0.41462 0.26693 0.08411 0.0
C46 C 0.47596 0.29097 0.11228 0.0
C47 C 0.54118 0.26178 0.05208 0.0
O48 O 0.53454 0.28745 0.05162 0.0
O49 O 0.46814 0.21432 0.07735 0.0
O50 O 0.42873 0.22443 0.09396 0.0
O51 O 0.47351 0.29079 0.03098 0.0
O52 O 0.43998 0.26754 0.04891 0.0
C53 C 0.44761 0.20812 0.09086 0.0
C54 C 0.44836 0.28884 0.03684 0.0
O55 O 0.52249 0.24251 0.05264 0.0
Mg56 Mg 0.99692 0.77627 0.16612 0.0
O57 O 0.96187 0.75702 0.13545 0.0
O58 O 0.94876 0.79012 0.10887 0.0
Mg59 Mg 0.9759 0.8298 0.12131 0.0
C60 C 0.94649 0.76531 0.11596 0.0
C61 C 0.01345 0.73116 0.20437 0.0
O62 O 0.01308 0.7529 0.22198 0.0
O63 O 0.02569 0.77438 0.13177 0.0
O64 O 0.01284 0.80849 0.10637 0.0
O65 O 0.96742 0.79173 0.19557 0.0
O66 O 0.98368 0.8155 0.16262 0.0
C67 C 0.0284 0.78923 0.11134 0.0
C68 C 0.96795 0.81402 0.18243 0.0
O69 O 0.00699 0.73355 0.17889 0.0
Mg70 Mg 0.53111 0.74122 0.34568 0.0
O71 O 0.52608 0.77421 0.31515 0.0
O72 O 0.56563 0.78322 0.29677 0.0
Mg73 Mg 0.59715 0.75853 0.31883 0.0
C74 C 0.54052 0.78688 0.2986 0.0
C75 C 0.4713 0.71203 0.34709 0.0
O76 O 0.48353 0.68895 0.34489 0.0
O77 O 0.53332 0.70804 0.31043 0.0
O78 O 0.57566 0.71789 0.29892 0.0
O79 O 0.54156 0.77345 0.38014 0.0
O80 O 0.57189 0.75574 0.35418 0.0
C81 C 0.55351 0.70239 0.29664 0.0
C82 C 0.56647 0.77334 0.37372 0.0
O83 O 0.48512 0.73496 0.3463 0.0
Mg84 Mg 0.48509 0.29293 0.6785 0.0
O85 O 0.45053 0.27208 0.64812 0.0
O86 O 0.43795 0.30321 0.61899 0.0
Mg87 Mg 0.46412 0.34382 0.63071 0.0
C88 C 0.43581 0.27889 0.62737 0.0
C89 C 0.51734 0.25082 0.70852 0.0
O90 O 0.53228 0.27423 0.71442 0.0
O91 O 0.51391 0.28922 0.64434 0.0
O92 O 0.50146 0.32216 0.61719 0.0
O93 O 0.45625 0.31083 0.70765 0.0
O94 O 0.47232 0.33211 0.67309 0.0
C95 C 0.51689 0.30308 0.62325 0.0
C96 C 0.45761 0.33262 0.69378 0.0
O97 O 0.49526 0.25099 0.69342 0.0
Mg98 Mg 0.03009 0.23274 0.84364 0.0
O99 O 0.02526 0.26275 0.80953 0.0
O100 O 0.06673 0.2757 0.7972 0.0
Mg101 Mg 0.09804 0.2538 0.82248 0.0
C102 C 0.04095 0.27662 0.79491 0.0
C103 C 0.97009 0.24247 0.84668 0.0
O104 O 0.98214 0.26751 0.84734 0.0
O105 O 0.03767 0.19811 0.81143 0.0
O106 O 0.08012 0.21168 0.80277 0.0
O107 O 0.03582 0.26761 0.8765 0.0
O108 O 0.0693 0.25095 0.85443 0.0
C109 C 0.05942 0.19416 0.79949 0.0
C110 C 0.06127 0.26911 0.87195 0.0
O111 O 0.98418 0.22194 0.8422 0.0
Mg112 Mg 0.42807 0.98722 0.22625 0.0
O113 O 0.39545 0.96159 0.19632 0.0
O114 O 0.38429 0.92326 0.2171 0.0
Mg115 Mg 0.40825 0.92413 0.25913 0.0
C116 C 0.38202 0.93809 0.19652 0.0
C117 C 0.42646 0.02553 0.17671 0.0
O118 O 0.4285 0.00194 0.16234 0.0
O119 O 0.39707 0.0006 0.25609 0.0
O120 O 0.38758 0.96183 0.27689 0.0
O121 O 0.46085 0.96499 0.20693 0.0
O122 O 0.43927 0.95141 0.2426 0.0
C123 C 0.3851 0.98752 0.27422 0.0
C124 C 0.45653 0.9468 0.22463 0.0
O125 O 0.42457 0.02568 0.20265 0.0
Mg126 Mg 0.27473 0.09013 0.47787 0.0
O127 O 0.3076 0.12225 0.49884 0.0
O128 O 0.32056 0.15063 0.46724 0.0
Mg129 Mg 0.29602 0.1367 0.42609 0.0
C130 C 0.32205 0.1431 0.49191 0.0
C131 C 0.25662 0.05121 0.522 0.0
O132 O 0.25591 0.03396 0.49984 0.0
O133 O 0.24421 0.12295 0.47881 0.0
O134 O 0.25707 0.14923 0.44535 0.0
O135 O 0.30562 0.06191 0.46267 0.0
O136 O 0.28878 0.09464 0.43906 0.0
C137 C 0.24096 0.14323 0.46386 0.0
C138 C 0.30456 0.07485 0.44026 0.0
O139 O 0.26411 0.07654 0.5201 0.0
Mg140 Mg 0.17075 0.97222 0.75436 0.0
O141 O 0.13708 0.93845 0.73983 0.0
O142 O 0.11486 0.92774 0.77659 0.0
Mg143 Mg 0.13386 0.9549 0.81443 0.0
C144 C 0.11841 0.92451 0.75083 0.0
C145 C 0.20286 0.98488 0.70435 0.0
O146 O 0.22207 0.98255 0.72398 0.0
O147 O 0.13863 0.00338 0.75619 0.0
O148 O 0.11899 0.99333 0.79474 0.0
O149 O 0.19926 0.94025 0.76589 0.0
O150 O 0.17187 0.95938 0.79423 0.0
C151 C 0.12154 0.00799 0.77412 0.0
C152 C 0.18951 0.94175 0.78994 0.0
O153 O 0.17819 0.98096 0.70982 0.0
Mg154 Mg 0.25334 0.78625 0.99044 0.0
O155 O 0.27757 0.82144 0.01862 0.0
O156 O 0.3182 0.82839 0.00189 0.0
Mg157 Mg 0.31864 0.80083 0.96192 0.0
C158 C 0.30146 0.83367 0.02 0.0
C159 C 0.19455 0.77745 0.00426 0.0
O160 O 0.19671 0.75755 0.98496 0.0
O161 O 0.24383 0.81581 0.95733 0.0
O162 O 0.28459 0.82379 0.94107 0.0
O163 O 0.27315 0.75595 0.016 0.0
O164 O 0.28899 0.77149 0.97808 0.0
C165 C 0.25927 0.82747 0.94091 0.0
C166 C 0.29245 0.75751 -0.00059 0.0
O167 O 0.21501 0.79439 0.01137 0.0
Mg168 Mg 0.23832 0.41652 0.02256 0.0
O169 O 0.24489 0.44894 0.99154 0.0
O170 O 0.20547 0.46721 0.98126 0.0
Mg171 Mg 0.17267 0.44337 0.00279 0.0
C172 C 0.23089 0.46596 0.97905 0.0
C173 C 0.29814 0.41156 0.0115 0.0
O174 O 0.28594 0.41098 0.98653 0.0
O175 O 0.2339 0.45033 0.05673 0.0
O176 O 0.19199 0.46191 0.04478 0.0
O177 O 0.22968 0.38323 0.98866 0.0
O178 O 0.19835 0.40841 0.00547 0.0
C179 C 0.21327 0.46382 0.06152 0.0
C180 C 0.20469 0.38952 0.98766 0.0
O181 O 0.28417 0.41565 0.0322 0.0
Mg182 Mg 0.78934 0.20497 0.00884 0.0
O183 O 0.77291 0.16677 0.98129 0.0
O184 O 0.8071 0.14191 0.96954 0.0
Mg185 Mg 0.84602 0.16369 0.99222 0.0
C186 C 0.78185 0.14603 0.96832 0.0
C187 C 0.73741 0.21974 0.0406 0.0
O188 O 0.75499 0.22266 0.06238 0.0
O189 O 0.79451 0.17852 0.04583 0.0
O190 O 0.83033 0.15572 0.0346 0.0
O191 O 0.79724 0.2269 0.9707 0.0
O192 O 0.8273 0.20332 0.99284 0.0
C193 C 0.8124 0.16157 0.05132 0.0
C194 C 0.8209 0.21707 0.97201 0.0
O195 O 0.74553 0.21278 0.01705 0.0
Mg196 Mg 0.10927 0.50322 0.28389 0.0
O197 O 0.14084 0.51882 0.3194 0.0
O198 O 0.16491 0.4833 0.33017 0.0
Mg199 Mg 0.14898 0.44516 0.30174 0.0
C200 C 0.15973 0.50861 0.33381 0.0
C201 C 0.07456 0.55099 0.26987 0.0
O202 O 0.05645 0.52993 0.27032 0.0
O203 O 0.14295 0.50425 0.25441 0.0
O204 O 0.16411 0.46653 0.26437 0.0
O205 O 0.07965 0.48865 0.31374 0.0
O206 O 0.10988 0.46304 0.29566 0.0
C207 C 0.16109 0.48736 0.25009 0.0
C208 C 0.09081 0.46535 0.31204 0.0
O209 O 0.09948 0.54731 0.27558 0.0
Mg210 Mg 0.74188 0.91735 0.53019 0.0
O211 O 0.74541 0.95094 0.49932 0.0
O212 O 0.70329 0.96208 0.48739 0.0
Mg213 Mg 0.67299 0.93653 0.51026 0.0
C214 C 0.72894 0.96489 0.48558 0.0
C215 C 0.80207 0.91508 0.52028 0.0
O216 O 0.79007 0.91344 0.49515 0.0
O217 O 0.73414 0.94961 0.56478 0.0
O218 O 0.6911 0.95686 0.5521 0.0
O219 O 0.73638 0.88401 0.49573 0.0
O220 O 0.70264 0.90542 0.51269 0.0
C221 C 0.7121 0.9608 0.56921 0.0
C222 C 0.7108 0.88799 0.49453 0.0
O223 O 0.78784 0.91996 0.54063 0.0
Mg224 Mg 0.82753 0.01769 0.26776 0.0
O225 O 0.8623 0.04692 0.2902 0.0
O226 O 0.87702 0.02714 0.32804 0.0
Mg227 Mg 0.85431 0.98462 0.32848 0.0
C228 C 0.87776 0.04722 0.31248 0.0
C229 C 0.82729 0.06911 0.23092 0.0
O230 O 0.82968 0.08322 0.25515 0.0
O231 O 0.85775 0.98883 0.25025 0.0
O232 O 0.87245 0.96962 0.28856 0.0
O233 O 0.79805 0.03629 0.29565 0.0
O234 O 0.82036 -0.00036 0.30402 0.0
C235 C 0.87243 0.97214 0.26258 0.0
C236 C 0.80386 0.01724 0.31194 0.0
O237 O 0.82683 0.04286 0.2298 0.0
Mg238 Mg 0.28686 0.69743 0.50477 0.0
O239 O 0.27354 0.65754 0.4782 0.0
O240 O 0.30988 0.63541 0.46756 0.0
Mg241 Mg 0.34679 0.6599 0.49107 0.0
C242 C 0.28425 0.63751 0.46585 0.0
C243 C 0.23439 0.72458 0.52252 0.0
O244 O 0.25238 0.74565 0.52914 0.0
O245 O 0.29314 0.67276 0.54272 0.0
O246 O 0.32984 0.65089 0.53255 0.0
O247 O 0.29423 0.7184 0.46585 0.0
O248 O 0.32529 0.69783 0.49011 0.0
C249 C 0.3113 0.65625 0.5487 0.0
C250 C 0.31855 0.7102 0.46844 0.0
O251 O 0.24232 0.70201 0.51233 0.0
Mg252 Mg 0.34707 0.55202 0.78677 0.0
O253 O 0.37957 0.58301 0.81118 0.0
O254 O 0.39363 0.56219 0.8486 0.0
Mg255 Mg 0.37131 0.51937 0.8486 0.0
C256 C 0.3942 0.58304 0.83401 0.0
C257 C 0.32742 0.56909 0.73084 0.0
O258 O 0.30965 0.54917 0.73625 0.0
O259 O 0.37827 0.52332 0.77132 0.0
O260 O 0.38988 0.50216 0.80934 0.0
O261 O 0.31448 0.56953 0.81066 0.0
O262 O 0.3384 0.53502 0.82306 0.0
C263 C 0.391 0.5051 0.78351 0.0
C264 C 0.32042 0.55198 0.82855 0.0
O265 O 0.34743 0.57613 0.74841 0.0
Mg266 Mg 0.60046 0.0167 0.78672 0.0
O267 O 0.63171 0.03352 0.82248 0.0
O268 O 0.65351 0.99737 0.8361 0.0
Mg269 Mg 0.63643 0.95801 0.81043 0.0
C270 C 0.64964 0.02312 0.83806 0.0
C271 C 0.57642 0.07478 0.7857 0.0
O272 O 0.56441 0.06525 0.8067 0.0
O273 O 0.6351 0.01328 0.75862 0.0
O274 O 0.65365 0.97512 0.77169 0.0
O275 O 0.56858 0.00663 0.81592 0.0
O276 O 0.59894 0.97825 0.80287 0.0
C277 C 0.65221 0.995 0.75589 0.0
C278 C 0.57938 0.98333 0.81797 0.0
O279 O 0.59321 0.06021 0.77386 0.0
Mg280 Mg 0.76231 0.58746 0.98242 0.0
O281 O 0.79662 0.61921 0.00102 0.0
O282 O 0.80936 0.64483 0.96707 0.0
Mg283 Mg 0.78339 0.63006 0.92711 0.0
C284 C 0.81158 0.63872 0.99222 0.0
C285 C 0.74638 0.55079 0.02894 0.0
O286 O 0.74809 0.53243 0.00808 0.0
O287 O 0.73277 0.62127 0.98216 0.0
O288 O 0.74517 0.64427 0.9462 0.0
O289 O 0.7925 0.55784 0.96829 0.0
O290 O 0.77588 0.58968 0.94331 0.0
C291 C 0.72945 0.64016 0.96551 0.0
C292 C 0.79176 0.57012 0.94548 0.0
O293 O 0.75181 0.57623 0.02551 0.0
Mg294 Mg 0.92822 0.48526 0.73882 0.0
O295 O 0.89348 0.4621 0.71028 0.0
O296 O 0.88011 0.42375 0.72997 0.0
Mg297 Mg 0.90391 0.42374 0.77205 0.0
C298 C 0.87854 0.43953 0.7101 0.0
C299 C 0.94593 0.54164 0.71909 0.0
O300 O 0.96412 0.53875 0.73953 0.0
O301 O 0.89827 0.50177 0.76841 0.0
O302 O 0.88523 0.46306 0.78793 0.0
O303 O 0.95827 0.4585 0.7197 0.0
O304 O 0.93689 0.4494 0.75676 0.0
C305 C 0.88451 0.48901 0.78554 0.0
C306 C 0.95348 0.44214 0.73898 0.0
O307 O 0.92697 0.52264 0.71318 0.0
Mg308 Mg 0.74099 0.30677 0.5006 0.0
O309 O 0.76317 0.34214 0.53005 0.0
O310 O 0.80103 0.35573 0.51067 0.0
Mg311 Mg 0.80317 0.33011 0.46985 0.0
C312 C 0.78538 0.35742 0.5304 0.0
C313 C 0.68362 0.29088 0.51741 0.0
O314 O 0.68672 0.27084 0.49855 0.0
O315 O 0.727 0.33691 0.46953 0.0
O316 O 0.76568 0.34915 0.45092 0.0
O317 O 0.76424 0.27623 0.52294 0.0
O318 O 0.77792 0.29732 0.48685 0.0
C319 C 0.74012 0.35024 0.45237 0.0
C320 C 0.78307 0.28162 0.50652 0.0
O321 O 0.70268 0.30979 0.52305 0.0
Mg322 Mg 0.6432 0.47451 0.25451 0.0
O323 O 0.61149 0.43964 0.2375 0.0
O324 O 0.58585 0.42899 0.27188 0.0
Mg325 Mg 0.60101 0.45683 0.31072 0.0
C326 C 0.59192 0.42544 0.24684 0.0
C327 C 0.67967 0.48961 0.2085 0.0
O328 O 0.69692 0.49001 0.23041 0.0
O329 O 0.61038 0.50495 0.25277 0.0
O330 O 0.58778 0.49517 0.28961 0.0
O331 O 0.67169 0.44392 0.26964 0.0
O332 O 0.64101 0.46227 0.29444 0.0
C333 C 0.59193 0.50969 0.26917 0.0
C334 C 0.65986 0.44556 0.29255 0.0
O335 O 0.65466 0.48305 0.211 0.0
C336 C 0.08822 0.41503 0.31917 0.0
C337 C 0.08191 0.44183 0.32776 0.0
C338 C 0.07828 0.39198 0.3322 0.0
C339 C 0.06206 0.39587 0.35475 0.0
C340 C 0.05645 0.42298 0.3642 0.0
C341 C 0.06619 0.44565 0.35036 0.0
C342 C 0.08425 0.36341 0.32114 0.0
C343 C 0.03968 0.42798 0.38856 0.0
C344 C 0.0111 0.33814 0.37048 0.0
C345 C 0.02488 0.32667 0.39258 0.0
C346 C 0.02329 0.36018 0.35754 0.0
C347 C 0.04965 0.37149 0.36739 0.0
C348 C 0.06388 0.3597 0.3894 0.0
C349 C 0.05143 0.33716 0.40154 0.0
C350 C 0.00774 0.37167 0.33361 0.0
C351 C 0.09184 0.37148 0.40075 0.0
H352 H 0.10021 0.41191 0.30156 0.0
H353 H 0.06139 0.46634 0.35715 0.0
H354 H 0.09352 0.35203 0.33793 0.0
H355 H 0.06499 0.35146 0.31314 0.0
H356 H 0.09815 0.36401 0.30419 0.0
H357 H 0.03902 0.45035 0.39472 0.0
H358 H 0.01858 0.41889 0.38334 0.0
H359 H 0.04807 0.41763 0.40657 0.0
H360 H 0.99062 0.32997 0.36342 0.0
H361 H 0.06203 0.32854 0.41883 0.0
H362 H 0.02008 0.37185 0.31544 0.0
H363 H 0.00355 0.39338 0.33929 0.0
H364 H 0.98809 0.35952 0.32746 0.0
H365 H 0.10593 0.37178 0.38402 0.0
H366 H 0.10045 0.35951 0.41748 0.0
H367 H 0.09086 0.39321 0.40909 0.0
C368 C 0.90325 0.80664 0.5512 0.0
C369 C 0.9312 0.81209 0.5492 0.0
C370 C 0.88507 0.82693 0.54661 0.0
C371 C 0.89511 0.85363 0.54044 0.0
C372 C 0.9234 0.85949 0.53893 0.0
C373 C 0.94114 0.83849 0.54299 0.0
C374 C 0.85502 0.81957 0.54791 0.0
C375 C 0.93488 0.88789 0.53305 0.0
C376 C 0.84112 0.89119 0.50272 0.0
C377 C 0.82944 0.90481 0.52483 0.0
C378 C 0.86381 0.87593 0.50729 0.0
C379 C 0.87549 0.87472 0.53458 0.0
C380 C 0.86542 0.8906 0.55663 0.0
C381 C 0.84232 0.90527 0.55155 0.0
C382 C 0.87366 0.85911 0.48319 0.0
C383 C 0.87779 0.89049 0.58591 0.0
H384 H 0.89545 0.78622 0.55586 0.0
H385 H 0.96278 0.84284 0.54169 0.0
H386 H 0.84686 0.83329 0.564 0.0
H387 H 0.84398 0.82278 0.52784 0.0
H388 H 0.85055 0.79777 0.55266 0.0
H389 H 0.95744 0.88949 0.53393 0.0
H390 H 0.92693 0.89295 0.51225 0.0
H391 H 0.92829 0.90369 0.54825 0.0
H392 H 0.83148 0.89085 0.48195 0.0
H393 H 0.83365 0.91602 0.56871 0.0
H394 H 0.86786 0.83686 0.48494 0.0
H395 H 0.89612 0.86162 0.4834 0.0
H396 H 0.8648 0.86498 0.46298 0.0
H397 H 0.87168 0.87055 0.59434 0.0
H398 H 0.87104 0.90751 0.59962 0.0
H399 H 0.90031 0.89243 0.58647 0.0
C400 C 0.41347 0.63202 0.83024 0.0
C401 C 0.40983 0.60902 0.84589 0.0
C402 C 0.4256 0.65749 0.8425 0.0
C403 C 0.43379 0.66019 0.87118 0.0
C404 C 0.43085 0.63687 0.88686 0.0
C405 C 0.4192 0.61161 0.87402 0.0
C406 C 0.4289 0.68173 0.82497 0.0
C407 C 0.43894 0.63886 0.91755 0.0
C408 C 0.48146 0.7194 0.90626 0.0
C409 C 0.46312 0.73667 0.91804 0.0
C410 C 0.4722 0.69515 0.88974 0.0
C411 C 0.44394 0.68763 0.88538 0.0
C412 C 0.42534 0.70535 0.89664 0.0
C413 C 0.43514 0.72973 0.91257 0.0
C414 C 0.49269 0.67712 0.8777 0.0
C415 C 0.39507 0.69791 0.89302 0.0
H416 H 0.40641 0.63027 0.80852 0.0
H417 H 0.41643 0.59412 0.88644 0.0
H418 H 0.4153 0.69776 0.83146 0.0
H419 H 0.45004 0.6913 0.82798 0.0
H420 H 0.424 0.67564 0.8026 0.0
H421 H 0.43612 0.6186 0.92663 0.0
H422 H 0.46053 0.64679 0.92164 0.0
H423 H 0.42655 0.65373 0.92839 0.0
H424 H 0.50312 0.72465 0.91021 0.0
H425 H 0.42079 0.74284 0.92165 0.0
H426 H 0.48728 0.67188 0.8553 0.0
H427 H 0.49248 0.6574 0.88788 0.0
H428 H 0.51365 0.68726 0.88048 0.0
H429 H 0.38841 0.69308 0.87083 0.0
H430 H 0.38326 0.71479 0.90136 0.0
H431 H 0.39008 0.6791 0.90389 0.0
C432 C 0.5775 0.22841 0.0548 0.0
C433 C 0.57003 0.25539 0.05162 0.0
C434 C 0.60469 0.22205 0.05397 0.0
C435 C 0.62489 0.2431 0.04967 0.0
C436 C 0.61752 0.2704 0.04665 0.0
C437 C 0.59021 0.27623 0.04776 0.0
C438 C 0.61177 0.19273 0.05745 0.0
C439 C 0.63844 0.2934 0.04188 0.0
C440 C 0.69929 0.23312 0.06895 0.0
C441 C 0.7085 0.2251 0.04316 0.0
C442 C 0.67208 0.23881 0.07144 0.0
C443 C 0.65364 0.23647 0.04757 0.0
C444 C 0.66276 0.22815 0.02154 0.0
C445 C 0.69002 0.22254 0.01965 0.0
C446 C 0.66309 0.24753 0.09958 0.0
C447 C 0.64375 0.22542 0.99559 0.0
H448 H 0.56208 0.2122 0.05792 0.0
H449 H 0.58466 0.29713 0.04528 0.0
H450 H 0.62044 0.18421 0.03851 0.0
H451 H 0.62751 0.19239 0.07484 0.0
H452 H 0.59384 0.17894 0.0615 0.0
H453 H 0.62949 0.31361 0.04045 0.0
H454 H 0.65475 0.29553 0.05895 0.0
H455 H 0.6481 0.28833 0.02244 0.0
H456 H 0.71338 0.23511 0.08724 0.0
H457 H 0.69689 0.21632 -0.00037 0.0
H458 H 0.64595 0.23325 0.10462 0.0
H459 H 0.65563 0.26851 0.09945 0.0
H460 H 0.67976 0.24779 0.11619 0.0
H461 H 0.62622 0.21046 0.99798 0.0
H462 H 0.65393 0.21838 0.97699 0.0
H463 H 0.63552 0.24562 0.99206 0.0
C464 C 0.03825 0.58212 0.2572 0.0
C465 C 0.06599 0.57799 0.26139 0.0
C466 C 0.0296 0.60706 0.24813 0.0
C467 C 0.04912 0.62841 0.24295 0.0
C468 C 0.07716 0.62449 0.24732 0.0
C469 C 0.08526 0.59936 0.25658 0.0
C470 C -0.00048 0.61049 0.24396 0.0
C471 C 0.09859 0.64674 0.24193 0.0
C472 C 0.02634 0.68251 0.19517 0.0
C473 C 0.02222 0.70469 0.2141 0.0
C474 C 0.03533 0.65766 0.20425 0.0
C475 C 0.04012 0.65483 0.23296 0.0
C476 C 0.03587 0.67708 0.25216 0.0
C477 C 0.02706 0.70174 0.24251 0.0
C478 C 0.03974 0.63444 0.18312 0.0
C479 C 0.04053 0.67481 0.28294 0.0
H480 H 0.02319 0.56578 0.26092 0.0
H481 H 0.10672 0.59633 0.25968 0.0
H482 H 0.99429 0.6288 0.25689 0.0
H483 H 0.99403 0.61422 0.22208 0.0
H484 H 0.98694 0.59206 0.24931 0.0
H485 H 0.11952 0.64051 0.24642 0.0
H486 H 0.09618 0.65167 0.21999 0.0
H487 H 0.09605 0.66599 0.25485 0.0
H488 H 0.02276 0.68463 0.17318 0.0
H489 H 0.02391 0.71872 0.25732 0.0
H490 H 0.02638 0.61583 0.18638 0.0
H491 H 0.06103 0.62871 0.18569 0.0
H492 H 0.03551 0.64007 0.16156 0.0
H493 H 0.02725 0.65738 0.28929 0.0
H494 H 0.03635 0.69402 0.29516 0.0
H495 H 0.06185 0.67028 0.28824 0.0
C496 C 0.61046 0.80245 0.37589 0.0
C497 C 0.58786 0.79231 0.38891 0.0
C498 C 0.63127 0.81972 0.39078 0.0
C499 C 0.6297 0.82618 0.41945 0.0
C500 C 0.6068 0.81605 0.43261 0.0
C501 C 0.58595 0.79958 0.41705 0.0
C502 C 0.65496 0.83091 0.37591 0.0
C503 C 0.60465 0.82196 0.46328 0.0
C504 C 0.69385 0.84485 0.46637 0.0
C505 C 0.69166 0.87302 0.47315 0.0
C506 C 0.67413 0.82942 0.44829 0.0
C507 C 0.65227 0.84279 0.43611 0.0
C508 C 0.65092 0.87162 0.44168 0.0
C509 C 0.67046 0.88635 0.46052 0.0
C510 C 0.67593 0.7986 0.44338 0.0
C511 C 0.62843 0.88675 0.42837 0.0
H512 H 0.61174 0.79717 0.35403 0.0
H513 H 0.56853 0.79158 0.42714 0.0
H514 H 0.65769 0.85376 0.37966 0.0
H515 H 0.67395 0.82256 0.3841 0.0
H516 H 0.6522 0.82548 0.35324 0.0
H517 H 0.58562 0.81224 0.47035 0.0
H518 H 0.6222 0.81412 0.47501 0.0
H519 H 0.60535 0.84458 0.46852 0.0
H520 H 0.71029 0.83461 0.47626 0.0
H521 H 0.66917 0.90828 0.46534 0.0
H522 H 0.67514 0.79252 0.4209 0.0
H523 H 0.65825 0.7875 0.45164 0.0
H524 H 0.69485 0.79162 0.45345 0.0
H525 H 0.62626 0.88146 0.40569 0.0
H526 H 0.63212 0.90955 0.43229 0.0
H527 H 0.60884 0.88023 0.4366 0.0
C528 C 0.45597 0.38381 0.69454 0.0
C529 C 0.44548 0.35841 0.70296 0.0
C530 C 0.44771 0.40898 0.70575 0.0
C531 C 0.42791 0.40879 0.72534 0.0
C532 C 0.41626 0.38317 0.73292 0.0
C533 C 0.42548 0.35827 0.72194 0.0
C534 C 0.46112 0.43577 0.69758 0.0
C535 C 0.39453 0.38208 0.75316 0.0
C536 C 0.4249 0.46968 0.77838 0.0
C537 C 0.40349 0.4835 0.76672 0.0
C538 C 0.43377 0.446 0.76457 0.0
C539 C 0.42033 0.43536 0.73889 0.0
C540 C 0.39922 0.4497 0.72664 0.0
C541 C 0.39131 0.47382 0.74054 0.0
C542 C 0.45697 0.43187 0.77791 0.0
C543 C 0.38399 0.43875 0.6996 0.0
H544 H 0.47165 0.38413 0.68007 0.0
H545 H 0.41728 0.33872 0.72848 0.0
H546 H 0.44558 0.44937 0.69006 0.0
H547 H 0.47262 0.44698 0.71595 0.0
H548 H 0.47534 0.43238 0.6812 0.0
H549 H 0.38584 0.36063 0.755 0.0
H550 H 0.40317 0.39081 0.77389 0.0
H551 H 0.37785 0.39488 0.74665 0.0
H552 H 0.43432 0.47707 0.79863 0.0
H553 H 0.37443 0.48414 0.73163 0.0
H554 H 0.47257 0.42844 0.76299 0.0
H555 H 0.44942 0.41129 0.78394 0.0
H556 H 0.46677 0.44407 0.79664 0.0
H557 H 0.39834 0.43524 0.68344 0.0
H558 H 0.369 0.45303 0.69215 0.0
H559 H 0.37305 0.41848 0.70224 0.0
C560 C 0.92979 0.21199 0.85793 0.0
C561 C 0.94282 0.23852 0.85732 0.0
C562 C 0.90661 0.20776 0.87269 0.0
C563 C 0.89661 0.2305 0.8876 0.0
C564 C 0.90855 0.25752 0.88543 0.0
C565 C 0.93129 0.26121 0.87008 0.0
C566 C 0.89395 0.17873 0.87382 0.0
C567 C 0.89882 0.28233 0.90125 0.0
C568 C 0.8303 0.22517 0.92298 0.0
C569 C 0.83969 0.22004 0.94991 0.0
C570 C 0.84841 0.2277 0.90209 0.0
C571 C 0.87656 0.2258 0.90856 0.0
C572 C 0.88604 0.22063 0.93576 0.0
C573 C 0.86747 0.2175 0.95595 0.0
C574 C 0.83749 0.23247 0.87317 0.0
C575 C 0.91594 0.219 0.94375 0.0
H576 H 0.93836 0.19437 0.84787 0.0
H577 H 0.94105 0.28184 0.86962 0.0
H578 H 0.8997 0.17108 0.89423 0.0
H579 H 0.87145 0.17837 0.87152 0.0
H580 H 0.90079 0.16427 0.85745 0.0
H581 H 0.90819 0.30214 0.89496 0.0
H582 H 0.87642 0.28248 0.89819 0.0
H583 H 0.90408 0.28117 0.9237 0.0
H584 H 0.80877 0.22685 0.91818 0.0
H585 H 0.87485 0.21365 0.97677 0.0
H586 H 0.84436 0.21671 0.85812 0.0
H587 H 0.84558 0.25299 0.86748 0.0
H588 H 0.81494 0.23161 0.87108 0.0
H589 H 0.92403 0.20227 0.93078 0.0
H590 H 0.91995 0.215 0.96584 0.0
H591 H 0.92738 0.23869 0.94 0.0
C592 C 0.33989 0.04829 0.41786 0.0
C593 C 0.31858 0.06568 0.41569 0.0
C594 C 0.35123 0.0374 0.39409 0.0
C595 C 0.34043 0.04342 0.36755 0.0
C596 C 0.31924 0.06136 0.36532 0.0
C597 C 0.30885 0.07256 0.38941 0.0
C598 C 0.37436 0.01898 0.39734 0.0
C599 C 0.3067 0.06777 0.33747 0.0
C600 C 0.38139 0.03003 0.30526 0.0
C601 C 0.37119 0.00317 0.29552 0.0
C602 C 0.37155 0.04345 0.32865 0.0
C603 C 0.35047 0.02999 0.3421 0.0
C604 C 0.33918 0.00341 0.33148 0.0
C605 C 0.34998 0.99014 0.30859 0.0
C606 C 0.38453 0.07149 0.33967 0.0
C607 C 0.31609 0.98872 0.34467 0.0
H608 H 0.3475 0.04296 0.43811 0.0
H609 H 0.29218 0.08578 0.38754 0.0
H610 H 0.36755 0.99763 0.38883 0.0
H611 H 0.39143 0.02634 0.38545 0.0
H612 H 0.38198 0.01827 0.41932 0.0
H613 H 0.29095 0.08284 0.3393 0.0
H614 H 0.32256 0.07624 0.32472 0.0
H615 H 0.29721 0.04844 0.32618 0.0
H616 H 0.3981 0.04 0.29551 0.0
H617 H 0.34207 0.96937 0.30111 0.0
H618 H 0.39422 0.07013 0.36079 0.0
H619 H 0.36889 0.08664 0.34136 0.0
H620 H 0.40019 0.07951 0.32638 0.0
H621 H 0.323 0.98395 0.3659 0.0
H622 H 0.3083 0.96909 0.33271 0.0
H623 H 0.2991 0.00229 0.34647 0.0
C624 C 0.18994 -0.00014 0.65709 0.0
C625 C 0.21006 0.99337 0.67691 0.0
C626 C 0.19683 0.00917 0.63158 0.0
C627 C 0.22447 0.01188 0.62568 0.0
C628 C 0.24482 0.00498 0.64543 0.0
C629 C 0.23738 0.99589 0.67079 0.0
C630 C 0.17456 0.0164 0.61107 0.0
C631 C 0.2745 0.00739 0.63986 0.0
C632 C 0.24199 0.01296 0.55085 0.0
C633 C 0.24835 0.04127 0.54855 0.0
C634 C 0.23403 0.00314 0.57575 0.0
C635 C 0.23223 0.02208 0.59892 0.0
C636 C 0.23845 0.0507 0.59671 0.0
C637 C 0.24651 0.05994 0.57159 0.0
C638 C 0.22773 0.97246 0.57732 0.0
C639 C 0.23669 0.07156 0.62094 0.0
H640 H 0.16879 0.99805 0.66166 0.0
H641 H 0.25308 0.99086 0.68592 0.0
H642 H 0.17781 0.03844 0.60669 0.0
H643 H 0.17516 0.00382 0.5912 0.0
H644 H 0.15405 0.01291 0.61868 0.0
H645 H 0.28778 0.00073 0.65717 0.0
H646 H 0.27771 0.99457 0.62073 0.0
H647 H 0.28095 0.02913 0.63644 0.0
H648 H 0.24335 -0.00165 0.53318 0.0
H649 H 0.25129 0.08185 0.56999 0.0
H650 H 0.20673 0.96835 0.5834 0.0
H651 H 0.24165 0.96474 0.59346 0.0
H652 H 0.22978 0.96048 0.55735 0.0
H653 H 0.21592 0.06999 0.62819 0.0
H654 H 0.24161 0.09312 0.61567 0.0
H655 H 0.25093 0.06707 0.63844 0.0
C656 C 0.21058 0.89957 0.80554 0.0
C657 C 0.1979 0.92384 0.81184 0.0
C658 C 0.21923 0.88304 0.82657 0.0
C659 C 0.21565 0.89141 0.85452 0.0
C660 C 0.20271 0.91583 0.86091 0.0
C661 C 0.19375 0.93158 0.83947 0.0
C662 C 0.23245 0.85682 0.81892 0.0
C663 C 0.19903 0.92577 0.89047 0.0
C664 C 0.22035 0.83965 0.90946 0.0
C665 C 0.24752 0.84477 0.91998 0.0
C666 C 0.20972 0.85448 0.88793 0.0
C667 C 0.2265 0.87533 0.8772 0.0
C668 C 0.25373 0.88107 0.88829 0.0
C669 C 0.26398 0.8655 0.90932 0.0
C670 C 0.18074 0.84748 0.87629 0.0
C671 C 0.27206 0.90361 0.87789 0.0
H672 H 0.21368 0.89344 0.78419 0.0
H673 H 0.18413 0.95045 0.84448 0.0
H674 H 0.2539 0.85862 0.82765 0.0
H675 H 0.22197 0.83904 0.82795 0.0
H676 H 0.2321 0.85227 0.79617 0.0
H677 H 0.18806 0.94491 0.89189 0.0
H678 H 0.18758 0.90951 0.90078 0.0
H679 H 0.21918 0.92995 0.90215 0.0
H680 H 0.20763 0.82345 0.91746 0.0
H681 H 0.28496 0.86962 0.91751 0.0
H682 H 0.18033 0.8411 0.85388 0.0
H683 H 0.16896 0.86598 0.8784 0.0
H684 H 0.17043 0.83056 0.88679 0.0
H685 H 0.27473 0.89889 0.85564 0.0
H686 H 0.29243 0.90608 0.88938 0.0
H687 H 0.26264 0.92363 0.87986 0.0
C688 C 0.33891 0.85945 0.05091 0.0
C689 C 0.31096 0.85305 0.0444 0.0
C690 C 0.34865 0.87551 0.0752 0.0
C691 C 0.33001 0.88602 0.09329 0.0
C692 C 0.30173 0.88073 0.08626 0.0
C693 C 0.29254 0.86405 0.06206 0.0
C694 C 0.37897 0.88012 0.0821 0.0
C695 C 0.28121 0.892 0.10471 0.0
C696 C 0.35686 0.89771 0.16868 0.0
C697 C 0.36567 0.92597 0.17105 0.0
C698 C 0.34451 0.88474 0.14376 0.0
C699 C 0.34032 0.90041 0.1206 0.0
C700 C 0.34787 0.92921 0.12316 0.0
C701 C 0.36069 0.94162 0.14827 0.0
C702 C 0.33718 0.85391 0.14189 0.0
C703 C 0.34327 0.94674 0.09909 0.0
H704 H 0.35336 0.85105 0.03749 0.0
H705 H 0.27091 0.8594 0.05713 0.0
H706 H 0.38501 0.9025 0.08643 0.0
H707 H 0.38468 0.86979 0.10108 0.0
H708 H 0.39073 0.87188 0.06515 0.0
H709 H 0.26014 0.88865 0.09489 0.0
H710 H 0.2821 0.88175 0.12439 0.0
H711 H 0.28603 0.91449 0.10998 0.0
H712 H 0.36063 0.8853 0.18601 0.0
H713 H 0.36729 0.96346 0.14986 0.0
H714 H 0.34956 0.84343 0.12675 0.0
H715 H 0.31554 0.84928 0.13435 0.0
H716 H 0.34066 0.84491 0.1621 0.0
H717 H 0.35673 0.94091 0.08269 0.0
H718 H 0.34748 0.96917 0.10524 0.0
H719 H 0.32201 0.94299 0.08997 0.0
C720 C 0.3388 0.39233 0.992 0.0
C721 C 0.32594 0.40214 0.01517 0.0
C722 C 0.36229 0.37796 0.995 0.0
C723 C 0.3734 0.37359 0.02184 0.0
C724 C 0.36209 0.38581 0.04527 0.0
C725 C 0.33836 0.39983 0.04168 0.0
C726 C 0.3736 0.36524 0.96944 0.0
C727 C 0.37368 0.38213 0.07424 0.0
C728 C 0.40177 0.30427 0.03095 0.0
C729 C 0.42987 0.31086 0.03197 0.0
C730 C 0.38337 0.32452 0.02749 0.0
C731 C 0.39326 0.35228 0.02535 0.0
C732 C 0.42165 0.35916 0.02628 0.0
C733 C 0.4397 0.33825 0.02935 0.0
C734 C 0.35326 0.31612 0.02615 0.0
C735 C 0.4329 0.3886 0.02447 0.0
H736 H 0.32958 0.3943 0.97139 0.0
H737 H 0.32881 0.40769 0.0597 0.0
H738 H 0.3961 0.3682 0.97098 0.0
H739 H 0.36797 0.34263 0.96747 0.0
H740 H 0.36558 0.37412 0.95034 0.0
H741 H 0.36589 0.39685 0.08976 0.0
H742 H 0.368 0.36078 0.0796 0.0
H743 H 0.39619 0.385 0.07569 0.0
H744 H 0.39405 0.28308 0.03275 0.0
H745 H 0.46144 0.34343 0.03034 0.0
H746 H 0.3432 0.32189 0.00648 0.0
H747 H 0.34391 0.32725 0.04332 0.0
H748 H 0.34896 0.29354 0.02756 0.0
H749 H 0.42448 0.39675 0.00518 0.0
H750 H 0.45543 0.39045 0.02489 0.0
H751 H 0.42661 0.40189 0.04202 0.0
C752 C 0.93093 0.83442 0.20785 0.0
C753 C 0.95179 0.83744 0.19005 0.0
C754 C 0.9171 0.85726 0.2168 0.0
C755 C 0.92472 0.88377 0.20813 0.0
C756 C 0.94524 0.88675 0.18955 0.0
C757 C 0.95838 0.86351 0.18057 0.0
C758 C 0.89494 0.8532 0.23625 0.0
C759 C 0.95427 0.91469 0.1802 0.0
C760 C 0.87733 0.94093 0.22042 0.0
C761 C 0.88797 0.95281 0.24641 0.0
C762 C 0.88936 0.91869 0.20733 0.0
C763 C 0.91282 0.90863 0.22035 0.0
C764 C 0.9245 0.92171 0.24582 0.0
C765 C 0.91175 0.94344 0.25867 0.0
C766 C 0.87616 0.90505 0.18035 0.0
C767 C 0.94991 0.91211 0.26003 0.0
H768 H 0.92566 0.81429 0.2151 0.0
H769 H 0.97461 0.86605 0.16691 0.0
H770 H 0.90161 0.86381 0.25683 0.0
H771 H 0.87636 0.86259 0.22846 0.0
H772 H 0.88968 0.831 0.2389 0.0
H773 H 0.96902 0.91318 0.16407 0.0
H774 H 0.93653 0.92508 0.1719 0.0
H775 H 0.96398 0.92809 0.19816 0.0
H776 H 0.85874 0.94793 0.21108 0.0
H777 H 0.92005 0.9527 0.27874 0.0
H778 H 0.86805 0.88373 0.18356 0.0
H779 H 0.89133 0.90331 0.16471 0.0
H780 H 0.85923 0.91658 0.17192 0.0
H781 H 0.94569 0.8909 0.26652 0.0
H782 H 0.95756 0.92587 0.2786 0.0
H783 H 0.96621 0.91123 0.24553 0.0
C784 C 0.19636 0.7523 0.53716 0.0
C785 C 0.20516 0.72727 0.52625 0.0
C786 C 0.1687 0.75536 0.5402 0.0
C787 C 0.14932 0.73286 0.53213 0.0
C788 C 0.15807 0.70744 0.52136 0.0
C789 C 0.18586 0.70495 0.51856 0.0
C790 C 0.16017 0.78279 0.55178 0.0
C791 C 0.13804 0.68297 0.51254 0.0
C792 C 0.07993 0.73397 0.56105 0.0
C793 C 0.06417 0.74368 0.53914 0.0
C794 C 0.10761 0.73014 0.55899 0.0
C795 C 0.11984 0.73613 0.53442 0.0
C796 C 0.10399 0.74565 0.51214 0.0
C797 C 0.07638 0.74933 0.51477 0.0
C798 C 0.12384 0.71995 0.58321 0.0
C799 C 0.11626 0.75222 0.48558 0.0
H800 H 0.21108 0.76965 0.5432 0.0
H801 H 0.19244 0.68551 0.51013 0.0
H802 H 0.14635 0.79154 0.53627 0.0
H803 H 0.14876 0.77983 0.57031 0.0
H804 H 0.1778 0.79806 0.55762 0.0
H805 H 0.14817 0.66448 0.50509 0.0
H806 H 0.12608 0.67751 0.53009 0.0
H807 H 0.12345 0.68838 0.49573 0.0
H808 H 0.0707 0.72956 0.57998 0.0
H809 H 0.0644 0.75681 0.49771 0.0
H810 H 0.14067 0.73557 0.59076 0.0
H811 H 0.13316 0.70071 0.57663 0.0
H812 H 0.1112 0.71575 0.60065 0.0
H813 H 0.13288 0.76886 0.4899 0.0
H814 H 0.10107 0.75896 0.47001 0.0
H815 H 0.12533 0.73376 0.4765 0.0
C816 C 0.97124 0.66676 0.62216 0.0
C817 C 0.95519 0.68839 0.62948 0.0
C818 C 0.97029 0.64235 0.63605 0.0
C819 C 0.95305 0.6396 0.65788 0.0
C820 C 0.93702 0.66143 0.66552 0.0
C821 C 0.93822 0.68548 0.65121 0.0
C822 C 0.98761 0.61943 0.62726 0.0
C823 C 0.91856 0.65941 0.68886 0.0
C824 C 0.93038 0.56843 0.67944 0.0
C825 C 0.94787 0.56648 0.70313 0.0
C826 C 0.93219 0.59189 0.66419 0.0
C827 C 0.95181 0.614 0.67296 0.0
C828 C 0.96959 0.6121 0.69676 0.0
C829 C 0.96746 0.58834 0.7115 0.0
C830 C 0.91295 0.59313 0.63883 0.0
C831 C 0.99064 0.63533 0.70689 0.0
H832 H 0.98435 0.66874 0.60537 0.0
H833 H 0.92582 0.70207 0.65716 0.0
H834 H 0.00158 0.61485 0.64494 0.0
H835 H 0.97451 0.60022 0.62087 0.0
H836 H -0.00015 0.62474 0.60983 0.0
H837 H 0.90755 0.67832 0.69237 0.0
H838 H 0.90341 0.64142 0.68428 0.0
H839 H 0.93058 0.65596 0.7083 0.0
H840 H 0.91528 0.55158 0.67274 0.0
H841 H 0.98106 0.58704 0.72978 0.0
H842 H 0.9246 0.59687 0.62061 0.0
H843 H 0.90003 0.61067 0.64184 0.0
H844 H 0.89954 0.57379 0.63417 0.0
H845 H 0.00413 0.63996 0.69028 0.0
H846 H 0.00335 0.63034 0.72539 0.0
H847 H 0.98047 0.6544 0.71222 0.0
C848 C 0.19628 0.15086 0.48333 0.0
C849 C 0.21696 0.15948 0.46684 0.0
C850 C 0.17245 0.16478 0.48437 0.0
C851 C 0.16929 0.18793 0.46867 0.0
C852 C 0.19042 0.19728 0.4527 0.0
C853 C 0.21397 0.18294 0.45195 0.0
C854 C 0.15031 0.15424 0.50165 0.0
C855 C 0.18786 0.22203 0.43585 0.0
C856 C 0.09802 0.20625 0.44701 0.0
C857 C 0.09466 0.22841 0.46624 0.0
C858 C 0.12216 0.19278 0.44772 0.0
C859 C 0.14348 0.20176 0.46805 0.0
C860 C 0.14027 0.22415 0.48747 0.0
C861 C 0.11586 0.23719 0.48636 0.0
C862 C 0.12486 0.16892 0.42668 0.0
C863 C 0.16263 0.23437 0.50936 0.0
H864 H 0.19838 0.13278 0.49491 0.0
H865 H 0.22987 0.18991 0.43928 0.0
H866 H 0.14478 0.17113 0.51625 0.0
H867 H 0.13179 0.14714 0.48805 0.0
H868 H 0.15644 0.13679 0.51367 0.0
H869 H 0.20668 0.22748 0.42563 0.0
H870 H 0.17081 0.21768 0.41967 0.0
H871 H 0.18312 0.24024 0.44922 0.0
H872 H 0.08171 0.1993 0.43145 0.0
H873 H 0.11344 0.25431 0.50128 0.0
H874 H 0.12909 0.15009 0.43736 0.0
H875 H 0.14227 0.17371 0.41421 0.0
H876 H 0.10625 0.16427 0.41244 0.0
H877 H 0.16786 0.21733 0.52232 0.0
H878 H 0.15685 0.25193 0.52303 0.0
H879 H 0.18124 0.24111 0.49944 0.0
C880 C 0.57366 0.40709 0.19927 0.0
C881 C 0.5753 0.4046 0.22789 0.0
C882 C 0.55716 0.38811 0.18114 0.0
C883 C 0.5424 0.36575 0.19183 0.0
C884 C 0.54437 0.36283 0.22066 0.0
C885 C 0.56056 0.38247 0.23838 0.0
C886 C 0.55522 0.3922 0.15056 0.0
C887 C 0.52941 0.33892 0.23275 0.0
C888 C 0.48107 0.33122 0.1478 0.0
C889 C 0.49231 0.30886 0.13419 0.0
C890 C 0.49709 0.34978 0.16682 0.0
C891 C 0.52485 0.34552 0.17278 0.0
C892 C 0.53606 0.32243 0.15982 0.0
C893 C 0.51973 0.30455 0.14046 0.0
C894 C 0.48453 0.37445 0.17985 0.0
C895 C 0.56542 0.31686 0.16607 0.0
H896 H 0.58483 0.42428 0.19107 0.0
H897 H 0.56191 0.38033 0.26047 0.0
H898 H 0.56211 0.37392 0.13884 0.0
H899 H 0.53374 0.39414 0.14318 0.0
H900 H 0.56764 0.4109 0.14564 0.0
H901 H 0.53373 0.33917 0.25552 0.0
H902 H 0.5072 0.33955 0.22815 0.0
H903 H 0.53523 0.31905 0.22309 0.0
H904 H 0.45996 0.33479 0.14285 0.0
H905 H 0.5285 0.2872 0.13012 0.0
H906 H 0.49509 0.39381 0.17391 0.0
H907 H 0.48711 0.3747 0.20272 0.0
H908 H 0.46253 0.3745 0.17344 0.0
H909 H 0.5789 0.33389 0.15929 0.0
H910 H 0.57053 0.29706 0.15556 0.0
H911 H 0.56992 0.31617 0.18869 0.0
C912 C 0.32897 0.74824 0.03503 0.0
C913 C 0.31969 0.7489 0.00716 0.0
C914 C 0.35682 0.74754 0.04264 0.0
C915 C 0.37544 0.74769 0.02186 0.0
C916 C 0.36569 0.74508 0.99361 0.0
C917 C 0.33787 0.74568 0.98664 0.0
C918 C 0.36635 0.74927 0.07293 0.0
C919 C 0.38479 0.74473 0.97068 0.0
C920 C 0.44054 0.79265 0.0272 0.0
C921 C 0.45945 0.7728 0.02414 0.0
C922 C 0.41314 0.78473 0.02952 0.0
C923 C 0.4046 0.75624 0.02888 0.0
C924 C 0.42412 0.73637 0.02926 0.0
C925 C 0.4515 0.7449 0.02677 0.0
C926 C 0.39304 0.80673 0.02962 0.0
C927 C 0.41591 0.70593 0.02967 0.0
H928 H 0.31487 0.75045 0.05097 0.0
H929 H 0.33056 0.74558 0.96505 0.0
H930 H 0.38498 0.73819 0.07651 0.0
H931 H 0.37117 0.77127 0.08047 0.0
H932 H 0.35032 0.74052 0.0854 0.0
H933 H 0.37382 0.73997 0.94995 0.0
H934 H 0.39622 0.76525 0.9709 0.0
H935 H 0.39983 0.72917 0.97378 0.0
H936 H 0.44684 0.81431 0.02588 0.0
H937 H 0.46617 0.72949 0.02477 0.0
H938 H 0.37907 0.80396 0.04621 0.0
H939 H 0.38051 0.8049 0.0096 0.0
H940 H 0.40324 0.82795 0.0327 0.0
H941 H 0.39838 0.70238 0.04232 0.0
H942 H 0.43305 0.69456 0.0379 0.0
H943 H 0.40977 0.69712 0.00826 0.0
C944 C 0.97524 0.40112 0.7184 0.0
C945 C 0.96649 0.41603 0.7414 0.0
C946 C 0.98727 0.37601 0.72143 0.0
C947 C 0.99123 0.36632 0.74813 0.0
C948 C 0.98262 0.38159 0.77135 0.0
C949 C 0.97006 0.40601 0.76761 0.0
C950 C 0.99552 0.35978 0.69618 0.0
C951 C 0.98697 0.37239 0.80032 0.0
C952 C 0.00144 0.29424 0.76838 0.0
C953 C 0.02918 0.29681 0.77709 0.0
C954 C 0.98919 0.31579 0.75577 0.0
C955 C 0.00496 0.34068 0.75262 0.0
C956 C 0.03336 0.34247 0.75934 0.0
C957 C 0.04519 0.32035 0.77123 0.0
C958 C 0.95898 0.31278 0.74807 0.0
C959 C 0.05086 0.3688 0.75683 0.0
H960 H 0.97227 0.40881 0.6981 0.0
H961 H 0.9635 0.41765 0.78547 0.0
H962 H 0.0177 0.35752 0.69811 0.0
H963 H 0.98521 0.33862 0.69451 0.0
H964 H 0.99039 0.36977 0.67682 0.0
H965 H 0.97986 0.38721 0.81618 0.0
H966 H 0.97593 0.35192 0.80168 0.0
H967 H 0.00888 0.3701 0.80542 0.0
H968 H 0.98905 0.27587 0.77244 0.0
H969 H 0.06668 0.32245 0.77784 0.0
H970 H 0.95407 0.32202 0.72827 0.0
H971 H 0.94837 0.32391 0.76431 0.0
H972 H 0.9509 0.29075 0.74616 0.0
H973 H 0.04585 0.37764 0.73686 0.0
H974 H 0.07286 0.36542 0.75858 0.0
H975 H 0.0469 0.38436 0.7736 0.0
C976 C 0.36224 0.17666 0.50635 0.0
C977 C 0.33968 0.16032 0.51352 0.0
C978 C 0.37798 0.19454 0.52627 0.0
C979 C 0.37059 0.19671 0.55393 0.0
C980 C 0.34802 0.18001 0.56137 0.0
C981 C 0.33305 0.16178 0.54115 0.0
C982 C 0.40227 0.21145 0.5176 0.0
C983 C 0.33911 0.18212 0.59045 0.0
C984 C 0.42359 0.22959 0.6096 0.0
C985 C 0.41743 0.25737 0.61089 0.0
C986 C 0.4083 0.20951 0.59147 0.0
C987 C 0.3859 0.21725 0.57471 0.0
C988 C 0.37887 0.24503 0.57688 0.0
C989 C 0.39492 0.26481 0.59465 0.0
C990 C 0.41682 0.18028 0.58939 0.0
C991 C 0.35474 0.25403 0.55993 0.0
H992 H 0.36756 0.17552 0.48507 0.0
H993 H 0.31548 0.14941 0.5468 0.0
H994 H 0.39877 0.23376 0.51979 0.0
H995 H 0.4206 0.20843 0.53125 0.0
H996 H 0.40645 0.20592 0.49582 0.0
H997 H 0.3217 0.16706 0.59314 0.0
H998 H 0.35619 0.17853 0.60549 0.0
H999 H 0.33307 0.2033 0.59565 0.0
H1000 H 0.44113 0.22374 0.62187 0.0
H1001 H 0.38997 0.2862 0.59566 0.0
H1002 H 0.4232 0.17512 0.56833 0.0
H1003 H 0.39947 0.16542 0.59259 0.0
H1004 H 0.43392 0.17729 0.60472 0.0
H1005 H 0.35843 0.25209 0.53766 0.0
H1006 H 0.35065 0.27578 0.56568 0.0
H1007 H 0.3363 0.24041 0.56264 0.0
C1008 C 0.57813 0.66462 0.27511 0.0
C1009 C 0.55331 0.67489 0.28134 0.0
C1010 C 0.57983 0.63656 0.26746 0.0
C1011 C 0.55594 0.61846 0.26494 0.0
C1012 C 0.53039 0.6293 0.26771 0.0
C1013 C 0.52938 0.65739 0.27644 0.0
C1014 C 0.60759 0.62594 0.26493 0.0
C1015 C 0.50431 0.61095 0.2634 0.0
C1016 C 0.57293 0.54631 0.24129 0.0
C1017 C 0.57739 0.53499 0.26681 0.0
C1018 C 0.56295 0.57257 0.23987 0.0
C1019 C 0.55868 0.58821 0.26467 0.0
C1020 C 0.56162 0.57609 0.29028 0.0
C1021 C 0.57045 0.54943 0.29093 0.0
C1022 C 0.55857 0.58406 0.21201 0.0
C1023 C 0.55786 0.59215 0.31735 0.0
H1024 H 0.59674 0.678 0.27846 0.0
H1025 H 0.51002 0.66527 0.28063 0.0
H1026 H 0.61204 0.6123 0.2818 0.0
H1027 H 0.60815 0.61346 0.24504 0.0
H1028 H 0.62399 0.64294 0.26617 0.0
H1029 H 0.48661 0.62311 0.25864 0.0
H1030 H 0.50537 0.59473 0.24633 0.0
H1031 H 0.50082 0.60049 0.28252 0.0
H1032 H 0.57787 0.53497 0.22252 0.0
H1033 H 0.57387 0.54074 0.31071 0.0
H1034 H 0.57737 0.59604 0.2073 0.0
H1035 H 0.54182 0.59808 0.21169 0.0
H1036 H 0.55383 0.56718 0.19536 0.0
H1037 H 0.57326 0.61005 0.32074 0.0
H1038 H 0.55992 0.57932 0.3353 0.0
H1039 H 0.53755 0.60042 0.31678 0.0
C1040 C 0.05373 0.80035 0.07028 0.0
C1041 C 0.05118 0.78521 0.09363 0.0
C1042 C 0.07626 0.79851 0.05454 0.0
C1043 C 0.09679 0.78117 0.06235 0.0
C1044 C 0.09403 0.76522 0.08538 0.0
C1045 C 0.07121 0.76738 0.10073 0.0
C1046 C 0.07843 0.81568 0.02996 0.0
C1047 C 0.11554 0.74647 0.09428 0.0
C1048 C 0.14657 0.76052 0.01019 0.0
C1049 C 0.16922 0.77905 0.01849 0.0
C1050 C 0.12277 0.76105 0.02418 0.0
C1051 C 0.12166 0.78053 0.04704 0.0
C1052 C 0.14433 0.79945 0.05537 0.0
C1053 C 0.16783 0.79853 0.04095 0.0
C1054 C 0.0989 0.74067 0.01463 0.0
C1055 C 0.14386 0.82052 0.07968 0.0
H1056 H 0.03831 0.81407 0.06449 0.0
H1057 H 0.06945 0.75558 0.1187 0.0
H1058 H 0.09633 0.83093 0.03369 0.0
H1059 H 0.08156 0.80229 0.01119 0.0
H1060 H 0.06006 0.82703 0.02578 0.0
H1061 H 0.10976 0.73453 0.1119 0.0
H1062 H 0.11933 0.73172 0.07676 0.0
H1063 H 0.13495 0.75896 0.10051 0.0
H1064 H 0.14746 0.74543 0.99282 0.0
H1065 H 0.18525 0.81289 0.04751 0.0
H1066 H 0.08068 0.75189 0.00944 0.0
H1067 H 0.09397 0.72746 0.03156 0.0
H1068 H 0.10291 0.72712 0.99623 0.0
H1069 H 0.12692 0.83392 0.0761 0.0
H1070 H 0.16316 0.83384 0.08342 0.0
H1071 H 0.14021 0.80986 0.09866 0.0
C1072 C 0.68286 0.98116 0.60369 0.0
C1073 C 0.70895 0.97522 0.59661 0.0
C1074 C 0.67785 0.98883 0.63101 0.0
C1075 C 0.69963 0.99156 0.65177 0.0
C1076 C 0.72647 0.9885 0.64435 0.0
C1077 C 0.73081 0.97993 0.61686 0.0
C1078 C 0.64881 0.99158 0.63795 0.0
C1079 C 0.75038 0.99256 0.66568 0.0
C1080 C 0.67573 0.01971 0.7197 0.0
C1081 C 0.66896 0.99511 0.73192 0.0
C1082 C 0.6884 0.01923 0.69473 0.0
C1083 C 0.69332 0.99349 0.68125 0.0
C1084 C 0.68793 0.96879 0.69436 0.0
C1085 C 0.6762 0.96997 0.71975 0.0
C1086 C 0.69506 0.04611 0.68207 0.0
C1087 C 0.69237 0.94082 0.68052 0.0
H1088 H 0.6658 0.97795 0.58823 0.0
H1089 H 0.75112 0.97584 0.61155 0.0
H1090 H 0.64253 0.97489 0.65114 0.0
H1091 H 0.64701 0.01159 0.64983 0.0
H1092 H 0.63442 0.99021 0.6192 0.0
H1093 H 0.76981 0.99627 0.65594 0.0
H1094 H 0.74802 0.0102 0.68088 0.0
H1095 H 0.75164 0.97373 0.67719 0.0
H1096 H 0.67056 0.03925 0.72932 0.0
H1097 H 0.67102 0.9509 0.72912 0.0
H1098 H 0.67897 0.04924 0.66576 0.0
H1099 H 0.71461 0.04575 0.67224 0.0
H1100 H 0.69631 0.06404 0.69772 0.0
H1101 H 0.67839 0.93668 0.66154 0.0
H1102 H 0.68872 0.92381 0.69422 0.0
H1103 H 0.71341 0.94049 0.67415 0.0
C1104 C 0.7857 0.0385 0.35481 0.0
C1105 C 0.79243 0.01515 0.33893 0.0
C1106 C 0.77576 0.03587 0.38101 0.0
C1107 C 0.77181 0.00924 0.39088 0.0
C1108 C 0.77823 0.98566 0.37456 0.0
C1109 C 0.78879 0.98898 0.34902 0.0
C1110 C 0.76985 0.06148 0.39824 0.0
C1111 C 0.77372 0.95679 0.38392 0.0
C1112 C 0.76733 0.98973 0.46421 0.0
C1113 C 0.73945 0.98219 0.46425 0.0
C1114 C 0.77797 0.00158 0.44139 0.0
C1115 C 0.76038 0.00527 0.41787 0.0
C1116 C 0.732 -0.00022 0.41873 0.0
C1117 C 0.72185 0.98857 0.44205 0.0
C1118 C 0.80829 0.00796 0.44157 0.0
C1119 C 0.71253 0.00294 0.39397 0.0
H1120 H 0.78879 0.05876 0.34706 0.0
H1121 H 0.79382 0.97088 0.33663 0.0
H1122 H 0.74829 0.06013 0.40319 0.0
H1123 H 0.78246 0.06304 0.4182 0.0
H1124 H 0.77404 0.08065 0.38762 0.0
H1125 H 0.77891 0.94063 0.36826 0.0
H1126 H 0.78633 0.95491 0.4034 0.0
H1127 H 0.75215 0.95259 0.38821 0.0
H1128 H 0.78102 0.98528 0.48149 0.0
H1129 H 0.70025 0.98294 0.44191 0.0
H1130 H 0.81301 0.02761 0.432 0.0
H1131 H 0.81714 0.99124 0.42925 0.0
H1132 H 0.81829 0.00948 0.46289 0.0
H1133 H 0.71735 0.02274 0.38473 0.0
H1134 H 0.69107 0.00209 0.39939 0.0
H1135 H 0.71454 0.98595 0.37792 0.0
C1136 C 0.79115 0.14863 0.09461 0.0
C1137 C 0.81336 0.1488 0.0782 0.0
C1138 C 0.79218 0.13629 0.11996 0.0
C1139 C 0.81611 0.12426 0.12927 0.0
C1140 C 0.83868 0.12478 0.11299 0.0
C1141 C 0.83696 0.13683 0.08763 0.0
C1142 C 0.76757 0.13579 0.13659 0.0
C1143 C 0.86471 0.11252 0.12232 0.0
C1144 C 0.83002 0.11209 0.2053 0.0
C1145 C 0.82398 0.08344 0.2051 0.0
C1146 C 0.82711 0.12577 0.18085 0.0
C1147 C 0.81756 0.1105 0.15571 0.0
C1148 C 0.81088 0.08168 0.15552 0.0
C1149 C 0.81437 0.06847 0.18014 0.0
C1150 C 0.83486 0.15646 0.18182 0.0
C1151 C 0.80035 0.0647 0.12921 0.0
H1152 H 0.77284 0.15779 0.08747 0.0
H1153 H 0.85436 0.13708 0.07529 0.0
H1154 H 0.76031 0.11407 0.13923 0.0
H1155 H 0.77303 0.14605 0.15757 0.0
H1156 H 0.75063 0.14627 0.12664 0.0
H1157 H 0.88074 0.11548 0.10771 0.0
H1158 H 0.87257 0.12213 0.143 0.0
H1159 H 0.86072 0.09004 0.12433 0.0
H1160 H 0.83747 0.12379 0.22449 0.0
H1161 H 0.8094 0.04637 0.17985 0.0
H1162 H 0.81756 0.16737 0.17333 0.0
H1163 H 0.85195 0.16037 0.16868 0.0
H1164 H 0.84106 0.16551 0.20316 0.0
H1165 H 0.78242 0.07381 0.11952 0.0
H1166 H 0.79449 0.04285 0.13287 0.0
H1167 H 0.81618 0.06495 0.11416 0.0
C1168 C 0.68018 0.03051 0.88155 0.0
C1169 C 0.66734 0.04146 0.85854 0.0
C1170 C 0.69825 0.04717 0.90038 0.0
C1171 C 0.70402 0.07533 0.89581 0.0
C1172 C 0.6909 0.0866 0.87279 0.0
C1173 C 0.67249 0.06957 0.85456 0.0
C1174 C 0.71136 0.03455 0.92502 0.0
C1175 C 0.69683 0.11646 0.86705 0.0
C1176 C 0.73452 0.12558 0.95517 0.0
C1177 C 0.76223 0.12689 0.95054 0.0
C1178 C 0.7154 0.10857 0.93777 0.0
C1179 C 0.72414 0.09288 0.91488 0.0
C1180 C 0.7521 0.09401 0.91015 0.0
C1181 C 0.77086 0.11081 0.92821 0.0
C1182 C 0.68584 0.10747 0.94382 0.0
C1183 C 0.76212 0.07786 0.88573 0.0
H1184 H 0.67609 0.00883 0.88486 0.0
H1185 H 0.66276 0.07809 0.83671 0.0
H1186 H 0.7337 0.03538 0.92378 0.0
H1187 H 0.70751 0.04658 0.94442 0.0
H1188 H 0.70371 0.01267 0.92631 0.0
H1189 H 0.68477 0.12209 0.84839 0.0
H1190 H 0.69233 0.13028 0.88502 0.0
H1191 H 0.71874 0.12042 0.86401 0.0
H1192 H 0.72773 0.13783 0.9725 0.0
H1193 H 0.79221 0.11191 0.92439 0.0
H1194 H 0.6782 0.0858 0.9461 0.0
H1195 H 0.67351 0.11489 0.92628 0.0
H1196 H 0.68251 0.12027 0.96296 0.0
H1197 H 0.7567 0.05544 0.88675 0.0
H1198 H 0.78448 0.08116 0.88484 0.0
H1199 H 0.75206 0.08404 0.86622 0.0
C1200 C 0.58396 0.69984 0.96089 0.0
C1201 C 0.58511 0.72817 0.96896 0.0
C1202 C 0.60773 0.68579 0.96051 0.0
C1203 C 0.63312 0.70038 0.96886 0.0
C1204 C 0.63439 0.729 0.977 0.0
C1205 C 0.61037 0.74262 0.97671 0.0
C1206 C 0.60568 0.65537 0.95117 0.0
C1207 C 0.66109 0.74513 0.98634 0.0
C1208 C 0.69112 0.65777 0.99095 0.0
C1209 C 0.70562 0.65673 0.96721 0.0
C1210 C 0.6677 0.67237 0.99199 0.0
C1211 C 0.65841 0.68579 0.96858 0.0
C1212 C 0.67307 0.68497 0.94466 0.0
C1213 C 0.69661 0.67065 0.94435 0.0
C1214 C 0.65278 0.67326 0.01803 0.0
C1215 C 0.66356 0.69871 0.91916 0.0
H1216 H 0.56448 0.68864 0.95479 0.0
H1217 H 0.61133 0.76449 0.98319 0.0
H1218 H 0.61822 0.65175 0.93342 0.0
H1219 H 0.61378 0.6434 0.9681 0.0
H1220 H 0.58443 0.64719 0.94487 0.0
H1221 H 0.65851 0.76718 0.9925 0.0
H1222 H 0.67105 0.73572 0.00418 0.0
H1223 H 0.67504 0.74423 0.96948 0.0
H1224 H 0.69804 0.64716 0.00871 0.0
H1225 H 0.70757 0.66977 0.92582 0.0
H1226 H 0.63195 0.66318 0.01355 0.0
H1227 H 0.65073 0.69504 0.02557 0.0
H1228 H 0.66328 0.66271 0.0348 0.0
H1229 H 0.64295 0.68974 0.91137 0.0
H1230 H 0.67739 0.69625 0.90228 0.0
H1231 H 0.66207 0.72112 0.92433 0.0
C1232 C 0.0994 0.04679 0.79687 0.0
C1233 C 0.10571 0.03248 0.77243 0.0
C1234 C 0.08756 0.07205 0.79626 0.0
C1235 C 0.08102 0.0828 0.77048 0.0
C1236 C 0.08535 0.06733 0.74561 0.0
C1237 C 0.09824 0.04256 0.74688 0.0
C1238 C 0.08388 0.08811 0.82335 0.0
C1239 C 0.07755 0.07743 0.7177 0.0
C1240 C 0.04154 0.14586 0.78192 0.0
C1241 C 0.06279 0.16683 0.78508 0.0
C1242 C 0.04657 0.1184 0.7741 0.0
C1243 C 0.07353 0.11183 0.77023 0.0
C1244 C 0.09448 0.13329 0.77092 0.0
C1245 C 0.08875 0.16054 0.77788 0.0
C1246 C 0.02344 0.09621 0.77198 0.0
C1247 C 0.12359 0.12726 0.76714 0.0
H1248 H 0.10519 0.03905 0.81665 0.0
H1249 H 0.10274 0.03127 0.72792 0.0
H1250 H 0.09699 0.10776 0.82513 0.0
H1251 H 0.06255 0.09353 0.82411 0.0
H1252 H 0.08915 0.07638 0.84153 0.0
H1253 H 0.07491 0.06012 0.70131 0.0
H1254 H 0.05845 0.08808 0.71799 0.0
H1255 H 0.09382 0.09244 0.71213 0.0
H1256 H 0.02128 0.15057 0.78687 0.0
H1257 H 0.10527 0.1766 0.77973 0.0
H1258 H 0.02371 0.08541 0.79134 0.0
H1259 H 0.02553 0.08057 0.75464 0.0
H1260 H 0.00344 0.10504 0.76891 0.0
H1261 H 0.13143 0.11579 0.78461 0.0
H1262 H 0.13709 0.14641 0.76636 0.0
H1263 H 0.12485 0.11402 0.74783 0.0
C1264 C 0.91971 0.24203 0.46549 0.0
C1265 C 0.94204 0.2438 0.48496 0.0
C1266 C 0.89332 0.24243 0.47381 0.0
C1267 C 0.88933 0.24519 0.5024 0.0
C1268 C 0.91168 0.24439 0.52217 0.0
C1269 C 0.93799 0.24358 0.51314 0.0
C1270 C 0.87005 0.24266 0.45195 0.0
C1271 C 0.90819 0.24692 0.55278 0.0
C1272 C 0.83281 0.29166 0.51121 0.0
C1273 C 0.81047 0.27247 0.5115 0.0
C1274 C 0.85914 0.28311 0.51108 0.0
C1275 C 0.86307 0.25453 0.5108 0.0
C1276 C 0.84076 0.23525 0.51355 0.0
C1277 C 0.81452 0.24454 0.51401 0.0
C1278 C 0.88239 0.30453 0.50875 0.0
C1279 C 0.84421 0.20468 0.51368 0.0
H1280 H 0.92294 0.24155 0.4437 0.0
H1281 H 0.95543 0.24479 0.52813 0.0
H1282 H 0.85265 0.2285 0.45654 0.0
H1283 H 0.86298 0.26381 0.45181 0.0
H1284 H 0.87606 0.23646 0.43094 0.0
H1285 H 0.92565 0.23925 0.56485 0.0
H1286 H 0.90682 0.269 0.55967 0.0
H1287 H 0.88918 0.23534 0.55758 0.0
H1288 H 0.82966 0.31335 0.51014 0.0
H1289 H 0.7971 0.22977 0.51449 0.0
H1290 H 0.88945 0.30246 0.48759 0.0
H1291 H 0.8998 0.30131 0.52354 0.0
H1292 H 0.8764 0.32596 0.51278 0.0
H1293 H 0.84539 0.19591 0.49214 0.0
H1294 H 0.82683 0.19355 0.52247 0.0
H1295 H 0.86331 0.2008 0.52568 0.0
C1296 C 0.54311 0.9534 0.83616 0.0
C1297 C 0.57035 0.9636 0.83756 0.0
C1298 C 0.53455 0.93285 0.8532 0.0
C1299 C 0.55356 0.92322 0.8728 0.0
C1300 C 0.58099 0.93421 0.8748 0.0
C1301 C 0.58918 0.9539 0.85669 0.0
C1302 C 0.50535 0.92101 0.8498 0.0
C1303 C 0.60161 0.92532 0.89614 0.0
C1304 C 0.52325 0.88911 0.93259 0.0
C1305 C 0.52595 0.8611 0.92538 0.0
C1306 C 0.533 0.90961 0.91613 0.0
C1307 C 0.54466 0.90176 0.89127 0.0
C1308 C 0.54724 0.87338 0.88382 0.0
C1309 C 0.53832 0.85337 0.90132 0.0
C1310 C 0.53081 0.93965 0.92533 0.0
C1311 C 0.5587 0.86414 0.85704 0.0
H1312 H 0.52871 0.96081 0.82105 0.0
H1313 H 0.61024 0.96203 0.85774 0.0
H1314 H 0.50456 0.89824 0.84537 0.0
H1315 H 0.49543 0.92499 0.86928 0.0
H1316 H 0.49345 0.92994 0.83282 0.0
H1317 H 0.62175 0.93695 0.89593 0.0
H1318 H 0.59429 0.92846 0.91711 0.0
H1319 H 0.60423 0.90294 0.89234 0.0
H1320 H 0.51382 0.89496 0.95138 0.0
H1321 H 0.54015 0.83162 0.89576 0.0
H1322 H 0.51696 0.94908 0.91038 0.0
H1323 H 0.551 0.95126 0.92579 0.0
H1324 H 0.52305 0.94231 0.94616 0.0
H1325 H 0.54647 0.87146 0.83935 0.0
H1326 H 0.55886 0.84128 0.85407 0.0
H1327 H 0.57977 0.87341 0.85651 0.0
C1328 C 0.92893 0.19676 0.37361 0.0
C1329 C 0.95686 0.20191 0.38116 0.0
C1330 C 0.91835 0.1716 0.3598 0.0
C1331 C 0.93616 0.15117 0.3527 0.0
C1332 C 0.96455 0.15681 0.35874 0.0
C1333 C 0.97456 0.182 0.37325 0.0
C1334 C 0.88791 0.16629 0.35432 0.0
C1335 C 0.98423 0.13585 0.3508 0.0
C1336 C 0.90409 0.07776 0.35005 0.0
C1337 C 0.89548 0.07254 0.32191 0.0
C1338 C 0.91825 0.10288 0.36013 0.0
C1339 C 0.92459 0.12312 0.34155 0.0
C1340 C 0.9173 0.11739 0.31288 0.0
C1341 C 0.90248 0.0923 0.30343 0.0
C1342 C 0.92508 0.10833 0.39093 0.0
C1343 C 0.92429 0.13814 0.29234 0.0
H1344 H 0.915 0.21188 0.37975 0.0
H1345 H 0.99617 0.18588 0.37884 0.0
H1346 H 0.88252 0.1598 0.33216 0.0
H1347 H 0.88054 0.14915 0.36645 0.0
H1348 H 0.87695 0.18479 0.35997 0.0
H1349 H 0.00564 0.1448 0.35334 0.0
H1350 H 0.98227 0.1182 0.36397 0.0
H1351 H 0.97949 0.12751 0.329 0.0
H1352 H 0.89866 0.0627 0.36452 0.0
H1353 H 0.8961 0.08832 0.28162 0.0
H1354 H 0.9137 0.12567 0.39895 0.0
H1355 H 0.94703 0.1146 0.39535 0.0
H1356 H 0.91992 0.08996 0.40243 0.0
H1357 H 0.91177 0.15604 0.29499 0.0
H1358 H 0.92061 0.12912 0.27063 0.0
H1359 H 0.94591 0.14614 0.29604 0.0
C1360 C 0.55092 0.11749 0.78834 0.0
C1361 C 0.56892 0.10119 0.77474 0.0
C1362 C 0.54256 0.14184 0.77759 0.0
C1363 C 0.55234 0.15012 0.75255 0.0
C1364 C 0.5707 0.13392 0.73882 0.0
C1365 C 0.57883 0.10971 0.75011 0.0
C1366 C 0.52312 0.15865 0.79297 0.0
C1367 C 0.58157 0.14203 0.71206 0.0
C1368 C 0.51144 0.19943 0.71203 0.0
C1369 C 0.52623 0.2249 0.71948 0.0
C1370 C 0.51982 0.17489 0.72245 0.0
C1371 C 0.54348 0.17585 0.74085 0.0
C1372 C 0.5585 0.20147 0.74838 0.0
C1373 C 0.54974 0.22564 0.73758 0.0
C1374 C 0.50332 0.14793 0.71383 0.0
C1375 C 0.58376 0.20341 0.76802 0.0
H1376 H 0.54316 0.11113 0.80739 0.0
H1377 H 0.59269 0.09724 0.73939 0.0
H1378 H 0.53233 0.18002 0.79828 0.0
H1379 H 0.50425 0.16016 0.77958 0.0
H1380 H 0.51761 0.14955 0.81233 0.0
H1381 H 0.59574 0.12725 0.70397 0.0
H1382 H 0.56449 0.14306 0.69617 0.0
H1383 H 0.59239 0.16293 0.71515 0.0
H1384 H 0.49331 0.19864 0.69802 0.0
H1385 H 0.56133 0.24519 0.74349 0.0
H1386 H 0.49567 0.13873 0.7323 0.0
H1387 H 0.51632 0.13294 0.70409 0.0
H1388 H 0.48571 0.1506 0.69902 0.0
H1389 H 0.57869 0.19589 0.78819 0.0
H1390 H 0.59327 0.22488 0.77166 0.0
H1391 H 0.5989 0.18996 0.75966 0.0
C1392 C 0.16159 0.38771 0.95722 0.0
C1393 C 0.1841 0.37468 0.96756 0.0
C1394 C 0.14107 0.37294 0.9395 0.0
C1395 C 0.14283 0.34434 0.93278 0.0
C1396 C 0.16579 0.33124 0.94285 0.0
C1397 C 0.18636 0.3467 0.95979 0.0
C1398 C 0.11732 0.38778 0.92837 0.0
C1399 C 0.16815 0.30064 0.93664 0.0
C1400 C 0.07864 0.29738 0.91484 0.0
C1401 C 0.08047 0.29061 0.88662 0.0
C1402 C 0.09851 0.31544 0.93005 0.0
C1403 C 0.12016 0.32763 0.9164 0.0
C1404 C 0.12114 0.32209 0.88751 0.0
C1405 C 0.10145 0.30325 0.87301 0.0
C1406 C 0.0971 0.32033 0.96093 0.0
C1407 C 0.14338 0.33545 0.8721 0.0
H1408 H 0.16005 0.40945 0.96286 0.0
H1409 H 0.20373 0.33659 0.96793 0.0
H1410 H 0.1142 0.38368 0.90557 0.0
H1411 H 0.09848 0.37989 0.93719 0.0
H1412 H 0.12027 0.41049 0.93344 0.0
H1413 H 0.18743 0.2937 0.94593 0.0
H1414 H 0.1509 0.28871 0.94478 0.0
H1415 H 0.16703 0.29553 0.91397 0.0
H1416 H 0.06238 0.28747 0.92531 0.0
H1417 H 0.10247 0.29843 0.85103 0.0
H1418 H 0.09773 0.3428 0.967 0.0
H1419 H 0.11502 0.31227 0.97181 0.0
H1420 H 0.0784 0.31009 0.96818 0.0
H1421 H 0.14557 0.35812 0.87741 0.0
H1422 H 0.13941 0.33154 0.84932 0.0
H1423 H 0.16305 0.32723 0.87835 0.0
C1424 C 0.42852 0.6871 0.3602 0.0
C1425 C 0.44327 0.712 0.35609 0.0
C1426 C 0.40453 0.68706 0.37402 0.0
C1427 C 0.3953 0.71249 0.38419 0.0
C1428 C 0.40877 0.73767 0.37792 0.0
C1429 C 0.43249 0.73712 0.3638 0.0
C1430 C 0.39039 0.65974 0.37975 0.0
C1431 C 0.3997 0.76525 0.38839 0.0
C1432 C 0.32851 0.71391 0.41877 0.0
C1433 C 0.33765 0.7124 0.44656 0.0
C1434 C 0.34695 0.71385 0.39799 0.0
C1435 C 0.37506 0.71274 0.4054 0.0
C1436 C 0.38431 0.71192 0.43356 0.0
C1437 C 0.36549 0.71154 0.45368 0.0
C1438 C 0.33636 0.71434 0.36816 0.0
C1439 C 0.41413 0.71122 0.44249 0.0
H1440 H 0.43644 0.66759 0.35396 0.0
H1441 H 0.44351 0.75652 0.36041 0.0
H1442 H 0.39518 0.65574 0.40169 0.0
H1443 H 0.36801 0.66023 0.37644 0.0
H1444 H 0.39692 0.64229 0.36644 0.0
H1445 H 0.40942 0.78266 0.37809 0.0
H1446 H 0.37733 0.76563 0.38515 0.0
H1447 H 0.40524 0.76867 0.41097 0.0
H1448 H 0.30695 0.71432 0.4132 0.0
H1449 H 0.37265 0.71058 0.47518 0.0
H1450 H 0.34065 0.69491 0.35644 0.0
H1451 H 0.34694 0.73165 0.35851 0.0
H1452 H 0.31413 0.71652 0.36594 0.0
H1453 H 0.42206 0.69232 0.43295 0.0
H1454 H 0.41798 0.71143 0.46531 0.0
H1455 H 0.42586 0.72931 0.43531 0.0
C1456 C 0.84644 0.49201 0.81601 0.0
C1457 C 0.86949 0.50474 0.80567 0.0
C1458 C 0.8343 0.50463 0.83829 0.0
C1459 C 0.84589 0.53031 0.85093 0.0
C1460 C 0.86871 0.54368 0.84006 0.0
C1461 C 0.88009 0.53084 0.81728 0.0
C1462 C 0.8095 0.49007 0.84877 0.0
C1463 C 0.88181 0.5709 0.85325 0.0
C1464 C 0.80052 0.57046 0.89576 0.0
C1465 C 0.80766 0.56182 0.92208 0.0
C1466 C 0.81336 0.56101 0.87254 0.0
C1467 C 0.83417 0.5428 0.87575 0.0
C1468 C 0.84231 0.5349 0.90244 0.0
C1469 C 0.82873 0.5443 0.92532 0.0
C1470 C 0.80375 0.56951 0.84439 0.0
C1471 C 0.86481 0.51589 0.9067 0.0
H1472 H 0.83821 0.47184 0.80699 0.0
H1473 H 0.89816 0.54052 0.80955 0.0
H1474 H 0.81437 0.48421 0.8701 0.0
H1475 H 0.79285 0.50416 0.84964 0.0
H1476 H 0.80203 0.47109 0.83554 0.0
H1477 H 0.89863 0.57922 0.84152 0.0
H1478 H 0.86652 0.58644 0.85474 0.0
H1479 H 0.89002 0.56812 0.87463 0.0
H1480 H 0.78409 0.58385 0.89303 0.0
H1481 H 0.83439 0.53769 0.94563 0.0
H1482 H 0.79439 0.55109 0.83143 0.0
H1483 H 0.82116 0.57802 0.83366 0.0
H1484 H 0.78856 0.58522 0.84566 0.0
H1485 H 0.85831 0.49504 0.89662 0.0
H1486 H 0.87042 0.51383 0.92896 0.0
H1487 H 0.88313 0.52367 0.89688 0.0
C1488 C 0.71718 0.50311 0.17908 0.0
C1489 C 0.68927 0.49785 0.18182 0.0
C1490 C 0.72674 0.51171 0.15433 0.0
C1491 C 0.70796 0.51531 0.13175 0.0
C1492 C 0.67976 0.50995 0.13431 0.0
C1493 C 0.67076 0.50119 0.15928 0.0
C1494 C 0.75696 0.517 0.15237 0.0
C1495 C 0.6591 0.51364 0.11072 0.0
C1496 C 0.73139 0.56142 0.07655 0.0
C1497 C 0.73711 0.54189 0.05553 0.0
C1498 C 0.72173 0.55307 0.1014 0.0
C1499 C 0.71789 0.52452 0.1054 0.0
C1500 C 0.72384 0.50473 0.08436 0.0
C1501 C 0.73329 0.51364 0.05967 0.0
C1502 C 0.71552 0.57481 0.12332 0.0
C1503 C 0.72024 0.4741 0.08792 0.0
H1504 H 0.73166 0.50054 0.19633 0.0
H1505 H 0.64917 0.49727 0.16123 0.0
H1506 H 0.76361 0.50361 0.13508 0.0
H1507 H 0.76181 0.53877 0.14782 0.0
H1508 H 0.7689 0.51302 0.17173 0.0
H1509 H 0.63793 0.50872 0.11604 0.0
H1510 H 0.66106 0.5353 0.10484 0.0
H1511 H 0.66295 0.5001 0.09229 0.0
H1512 H 0.73418 0.58329 0.07351 0.0
H1513 H 0.73769 0.49838 0.04359 0.0
H1514 H 0.72814 0.57278 0.14276 0.0
H1515 H 0.69394 0.57172 0.12799 0.0
H1516 H 0.71935 0.59614 0.11692 0.0
H1517 H 0.73295 0.46909 0.10637 0.0
H1518 H 0.72587 0.46137 0.06962 0.0
H1519 H 0.69879 0.46813 0.09148 0.0
C1520 C 0.69885 0.35613 0.42115 0.0
C1521 C 0.72525 0.36559 0.43173 0.0
C1522 C 0.68609 0.3682 0.39874 0.0
C1523 C 0.69985 0.39063 0.38714 0.0
C1524 C 0.72598 0.40107 0.39864 0.0
C1525 C 0.7385 0.3882 0.42057 0.0
C1526 C 0.6584 0.35624 0.38674 0.0
C1527 C 0.74103 0.42543 0.38738 0.0
C1528 C 0.68416 0.4073 0.31275 0.0
C1529 C 0.66805 0.42966 0.3162 0.0
C1530 C 0.69366 0.39358 0.33559 0.0
C1531 C 0.68738 0.40288 0.36253 0.0
C1532 C 0.67063 0.42505 0.36603 0.0
C1533 C 0.66095 0.43799 0.34279 0.0
C1534 C 0.71101 0.36961 0.331 0.0
C1535 C 0.6639 0.43593 0.39441 0.0
H1536 H 0.68868 0.33846 0.42954 0.0
H1537 H 0.75886 0.39564 0.4288 0.0
H1538 H 0.64398 0.37266 0.38595 0.0
H1539 H 0.6598 0.34762 0.36518 0.0
H1540 H 0.64994 0.33957 0.39887 0.0
H1541 H 0.76037 0.43217 0.39985 0.0
H1542 H 0.74571 0.41991 0.3658 0.0
H1543 H 0.72811 0.44317 0.38692 0.0
H1544 H 0.68956 0.4007 0.29222 0.0
H1545 H 0.64865 0.4554 0.34563 0.0
H1546 H 0.7029 0.35152 0.34138 0.0
H1547 H 0.73197 0.37536 0.34028 0.0
H1548 H 0.71201 0.36337 0.30868 0.0
H1549 H 0.6551 0.4189 0.40579 0.0
H1550 H 0.64935 0.45228 0.39347 0.0
H1551 H 0.68279 0.44468 0.40656 0.0
C1552 C 0.85446 0.40184 0.67805 0.0
C1553 C 0.86034 0.4302 0.68515 0.0
C1554 C 0.83966 0.39232 0.65309 0.0
C1555 C 0.82983 0.41164 0.63508 0.0
C1556 C 0.83444 0.44033 0.64283 0.0
C1557 C 0.85004 0.4493 0.6676 0.0
C1558 C 0.83578 0.36156 0.64536 0.0
C1559 C 0.82362 0.46154 0.62458 0.0
C1560 C 0.82266 0.38537 0.55947 0.0
C1561 C 0.79528 0.37508 0.55585 0.0
C1562 C 0.83383 0.39832 0.58483 0.0
C1563 C 0.81715 0.40163 0.6071 0.0
C1564 C 0.7891 0.39295 0.60312 0.0
C1565 C 0.77853 0.3795 0.57761 0.0
C1566 C 0.86392 0.40689 0.58825 0.0
C1567 C 0.77052 0.39679 0.62615 0.0
H1568 H 0.86252 0.38697 0.69144 0.0
H1569 H 0.85432 0.47125 0.67313 0.0
H1570 H 0.81393 0.35509 0.64043 0.0
H1571 H 0.84643 0.35648 0.62654 0.0
H1572 H 0.84374 0.34926 0.66214 0.0
H1573 H 0.8258 0.48268 0.63518 0.0
H1574 H 0.8348 0.46181 0.60561 0.0
H1575 H 0.80185 0.45608 0.61797 0.0
H1576 H 0.83587 0.3821 0.54289 0.0
H1577 H 0.75733 0.37182 0.57498 0.0
H1578 H 0.87401 0.39425 0.60349 0.0
H1579 H 0.86747 0.42884 0.5964 0.0
H1580 H 0.87377 0.40427 0.5685 0.0
H1581 H 0.77525 0.38242 0.64226 0.0
H1582 H 0.74876 0.39268 0.61865 0.0
H1583 H 0.77375 0.41814 0.63613 0.0
C1584 C 0.42675 0.05228 0.13452 0.0
C1585 C 0.42884 0.05198 0.16342 0.0
C1586 C 0.42997 0.07725 0.12181 0.0
C1587 C 0.43581 0.1024 0.1384 0.0
C1588 C 0.43804 0.1022 0.16757 0.0
C1589 C 0.43431 0.07703 0.17972 0.0
C1590 C 0.42699 0.07674 0.09064 0.0
C1591 C 0.4445 0.12856 0.18597 0.0
C1592 C 0.46735 0.16522 0.10667 0.0
C1593 C 0.44486 0.18088 0.10269 0.0
C1594 C 0.46471 0.13952 0.11815 0.0
C1595 C 0.43891 0.12911 0.12538 0.0
C1596 C 0.41608 0.14461 0.12096 0.0
C1597 C 0.41937 0.17037 0.10988 0.0
C1598 C 0.48958 0.12371 0.12295 0.0
C1599 C 0.38817 0.13405 0.12806 0.0
H1600 H 0.42247 0.03301 0.12182 0.0
H1601 H 0.43618 0.07696 0.20207 0.0
H1602 H 0.41048 0.0897 0.08407 0.0
H1603 H 0.44598 0.08568 0.08288 0.0
H1604 H 0.42232 0.05547 0.08071 0.0
H1605 H 0.44631 0.12475 0.20826 0.0
H1606 H 0.46385 0.13914 0.18069 0.0
H1607 H 0.42836 0.14291 0.18249 0.0
H1608 H 0.4871 0.17323 0.10122 0.0
H1609 H 0.40181 0.18218 0.10661 0.0
H1610 H 0.48633 0.10285 0.11189 0.0
H1611 H 0.49316 0.12077 0.14531 0.0
H1612 H 0.5081 0.13448 0.11588 0.0
H1613 H 0.38249 0.11334 0.11727 0.0
H1614 H 0.37232 0.14812 0.12228 0.0
H1615 H 0.38827 0.13168 0.15059 0.0
C1616 C 0.99627 0.837 0.66082 0.0
C1617 C 0.00499 0.81388 0.64602 0.0
C1618 C 0.01469 0.85478 0.67829 0.0
C1619 C 0.04233 0.84894 0.68144 0.0
C1620 C 0.05109 0.82524 0.66711 0.0
C1621 C 0.03237 0.80815 0.64936 0.0
C1622 C 0.0047 0.88013 0.6929 0.0
C1623 C 0.08028 0.81805 0.67034 0.0
C1624 C 0.09563 0.90767 0.70454 0.0
C1625 C 0.09961 0.90462 0.73298 0.0
C1626 C 0.07691 0.88979 0.68756 0.0
C1627 C 0.06223 0.868 0.69922 0.0
C1628 C 0.06654 0.86448 0.72782 0.0
C1629 C 0.08499 0.88302 0.74442 0.0
C1630 C 0.07254 0.89445 0.65723 0.0
C1631 C 0.05168 0.84114 0.74086 0.0
H1632 H 0.97518 0.84162 0.65817 0.0
H1633 H 0.03918 0.79017 0.63815 0.0
H1634 H 0.00901 0.87987 0.71558 0.0
H1635 H 0.01571 0.89901 0.68645 0.0
H1636 H 0.98255 0.8816 0.68839 0.0
H1637 H 0.08352 0.79819 0.65874 0.0
H1638 H 0.09376 0.83466 0.66283 0.0
H1639 H 0.0866 0.81656 0.69252 0.0
H1640 H 0.10669 0.92447 0.69562 0.0
H1641 H 0.08812 0.88045 0.76636 0.0
H1642 H 0.05089 0.89778 0.65196 0.0
H1643 H 0.07732 0.87587 0.64444 0.0
H1644 H 0.08532 0.91257 0.65147 0.0
H1645 H 0.02946 0.8431 0.73843 0.0
H1646 H 0.05793 0.84079 0.76324 0.0
H1647 H 0.05554 0.82101 0.7302 0.0
C1648 C 0.5089 0.82391 0.29426 0.0
C1649 C 0.52815 0.80792 0.28252 0.0
C1650 C 0.49825 0.84547 0.28043 0.0
C1651 C 0.50639 0.85055 0.25379 0.0
C1652 C 0.52502 0.83373 0.24132 0.0
C1653 C 0.53612 0.81286 0.25611 0.0
C1654 C 0.47894 0.86338 0.29478 0.0
C1655 C 0.53336 0.83794 0.21257 0.0
C1656 C 0.45774 0.89594 0.219 0.0
C1657 C 0.47146 0.922 0.22537 0.0
C1658 C 0.47011 0.87194 0.2256 0.0
C1659 C 0.49621 0.87443 0.23996 0.0
C1660 C 0.51068 0.90075 0.24493 0.0
C1661 C 0.49815 0.92428 0.23722 0.0
C1662 C 0.45443 0.84418 0.21909 0.0
C1663 C 0.53823 0.90441 0.26081 0.0
H1664 H 0.50292 0.82022 0.31479 0.0
H1665 H 0.55087 0.80029 0.24697 0.0
H1666 H 0.48741 0.88526 0.29685 0.0
H1667 H 0.45922 0.86252 0.28226 0.0
H1668 H 0.47508 0.85691 0.3157 0.0
H1669 H 0.54602 0.8215 0.20486 0.0
H1670 H 0.51509 0.83825 0.19798 0.0
H1671 H 0.5451 0.85823 0.21245 0.0
H1672 H 0.43695 0.89444 0.20994 0.0
H1673 H 0.50842 0.94465 0.24243 0.0
H1674 H 0.44607 0.83707 0.23816 0.0
H1675 H 0.46793 0.82848 0.21155 0.0
H1676 H 0.43724 0.84522 0.20328 0.0
H1677 H 0.53593 0.90038 0.28275 0.0
H1678 H 0.54798 0.92564 0.26019 0.0
H1679 H 0.55197 0.88939 0.25249 0.0
C1680 C 0.82821 0.65771 0.04024 0.0
C1681 C 0.83183 0.65524 0.01183 0.0
C1682 C 0.84648 0.67466 0.05874 0.0
C1683 C 0.86922 0.68897 0.04866 0.0
C1684 C 0.87342 0.68584 0.02013 0.0
C1685 C 0.85453 0.66928 0.00204 0.0
C1686 C 0.84102 0.67788 0.08892 0.0
C1687 C 0.8977 0.70029 0.00864 0.0
C1688 C 0.90286 0.75497 0.08661 0.0
C1689 C 0.92583 0.74542 0.10039 0.0
C1690 C 0.88379 0.73665 0.07054 0.0
C1691 C 0.88809 0.70814 0.06763 0.0
C1692 C 0.91105 0.69829 0.0818 0.0
C1693 C 0.9295 0.71702 0.09827 0.0
C1694 C 0.85927 0.7479 0.05626 0.0
C1695 C 0.91662 0.66814 0.07881 0.0
H1696 H 0.81062 0.64705 0.04792 0.0
H1697 H 0.85759 0.66725 0.98015 0.0
H1698 H 0.85886 0.67246 0.10201 0.0
H1699 H 0.83776 0.69979 0.09483 0.0
H1700 H 0.8229 0.66471 0.0936 0.0
H1701 H 0.89895 0.69431 0.98631 0.0
H1702 H 0.89659 0.72302 0.01135 0.0
H1703 H 0.91672 0.69537 0.02014 0.0
H1704 H 0.89977 0.77686 0.08838 0.0
H1705 H 0.94731 0.70954 0.10874 0.0
H1706 H 0.84039 0.73625 0.06132 0.0
H1707 H 0.86024 0.74519 0.03351 0.0
H1708 H 0.85787 0.77021 0.06224 0.0
H1709 H 0.89884 0.65503 0.08433 0.0
H1710 H 0.93478 0.66361 0.09203 0.0
H1711 H 0.9199 0.66209 0.05693 0.0
C1712 C 0.56011 0.28114 0.61461 0.0
C1713 C 0.53976 0.298 0.60596 0.0
C1714 C 0.58307 0.27821 0.59963 0.0
C1715 C 0.58563 0.29235 0.57537 0.0
C1716 C 0.5647 0.30852 0.56595 0.0
C1717 C 0.54204 0.3112 0.58138 0.0
C1718 C 0.60503 0.26078 0.61029 0.0
C1719 C 0.56662 0.32373 0.54003 0.0
C1720 C 0.6562 0.31142 0.55373 0.0
C1721 C 0.65854 0.29114 0.53221 0.0
C1722 C 0.63266 0.31184 0.5681 0.0
C1723 C 0.61088 0.29158 0.56069 0.0
C1724 C 0.61309 0.27103 0.53903 0.0
C1725 C 0.63694 0.27103 0.52506 0.0
C1726 C 0.63105 0.33406 0.59116 0.0
C1727 C 0.5902 0.24918 0.53051 0.0
H1728 H 0.55854 0.27083 0.63355 0.0
H1729 H 0.52633 0.32408 0.57437 0.0
H1730 H 0.60977 0.24534 0.59376 0.0
H1731 H 0.62394 0.27413 0.6164 0.0
H1732 H 0.59916 0.24971 0.62844 0.0
H1733 H 0.54781 0.33394 0.53452 0.0
H1734 H 0.58392 0.33975 0.54299 0.0
H1735 H 0.57061 0.30924 0.52237 0.0
H1736 H 0.67283 0.32698 0.55944 0.0
H1737 H 0.63859 0.25529 0.50844 0.0
H1738 H 0.62719 0.32446 0.61069 0.0
H1739 H 0.61381 0.34672 0.58623 0.0
H1740 H 0.64997 0.34799 0.59469 0.0
H1741 H 0.58526 0.23737 0.54844 0.0
H1742 H 0.59527 0.23444 0.51346 0.0
H1743 H 0.57163 0.25912 0.52367 0.0
C1744 C 0.23449 0.48217 0.10844 0.0
C1745 C 0.21184 0.47854 0.08908 0.0
C1746 C 0.23148 0.49032 0.13632 0.0
C1747 C 0.20516 0.49385 0.14499 0.0
C1748 C 0.18274 0.49278 0.12507 0.0
C1749 C 0.18647 0.48563 0.09732 0.0
C1750 C 0.25613 0.49317 0.15673 0.0
C1751 C 0.15424 0.4963 0.13334 0.0
C1752 C 0.18391 0.46597 0.21114 0.0
C1753 C 0.17702 0.48998 0.22579 0.0
C1754 C 0.19478 0.46719 0.18544 0.0
C1755 C 0.19984 0.49321 0.17462 0.0
C1756 C 0.1954 0.51775 0.1906 0.0
C1757 C 0.18338 0.51582 0.21579 0.0
C1758 C 0.19861 0.4404 0.1689 0.0
C1759 C 0.20187 0.54596 0.18057 0.0
H1760 H 0.25431 0.47739 0.10215 0.0
H1761 H 0.16887 0.4834 0.08249 0.0
H1762 H 0.25457 0.51024 0.17283 0.0
H1763 H 0.25761 0.47376 0.16724 0.0
H1764 H 0.27512 0.49713 0.14629 0.0
H1765 H 0.13928 0.49626 0.11516 0.0
H1766 H 0.1478 0.47921 0.14598 0.0
H1767 H 0.1536 0.51597 0.14618 0.0
H1768 H 0.17901 0.44596 0.21883 0.0
H1769 H 0.17847 0.53447 0.22736 0.0
H1770 H 0.21962 0.44038 0.16242 0.0
H1771 H 0.18461 0.43831 0.14985 0.0
H1772 H 0.19459 0.42201 0.18075 0.0
H1773 H 0.21934 0.54605 0.16748 0.0
H1774 H 0.20655 0.56177 0.19824 0.0
H1775 H 0.18398 0.55212 0.16806 0.0
C1776 C 0.32036 0.55023 0.87932 0.0
C1777 C 0.30586 0.54965 0.8535 0.0
C1778 C 0.30745 0.54185 0.90241 0.0
C1779 C 0.27988 0.53137 0.89901 0.0
C1780 C 0.26482 0.53235 0.87323 0.0
C1781 C 0.27799 0.542 0.8508 0.0
C1782 C 0.32386 0.54225 0.92985 0.0
C1783 C 0.23565 0.52055 0.86847 0.0
C1784 C 0.26127 0.47145 0.9413 0.0
C1785 C 0.24424 0.48334 0.95975 0.0
C1786 C 0.27288 0.48694 0.92138 0.0
C1787 C 0.26819 0.51531 0.92072 0.0
C1788 C 0.25181 0.52771 0.94007 0.0
C1789 C 0.23947 0.51134 0.95905 0.0
C1790 C 0.28956 0.47269 0.90058 0.0
C1791 C 0.24737 0.55813 0.9407 0.0
H1792 H 0.34199 0.55623 0.88119 0.0
H1793 H 0.26703 0.54128 0.83059 0.0
H1794 H 0.31176 0.54917 0.94705 0.0
H1795 H 0.32955 0.52106 0.93342 0.0
H1796 H 0.34282 0.55607 0.93048 0.0
H1797 H 0.22601 0.52578 0.84835 0.0
H1798 H 0.23495 0.49769 0.86862 0.0
H1799 H 0.22346 0.52822 0.88525 0.0
H1800 H 0.26469 0.44969 0.94181 0.0
H1801 H 0.22641 0.52047 0.97358 0.0
H1802 H 0.31068 0.4823 0.90257 0.0
H1803 H 0.28096 0.47521 0.87926 0.0
H1804 H 0.29024 0.45024 0.90329 0.0
H1805 H 0.26723 0.57051 0.94213 0.0
H1806 H 0.23581 0.56497 0.95839 0.0
H1807 H 0.23607 0.56273 0.92125 0.0
C1808 C 0.29635 0.65306 0.59677 0.0
C1809 C 0.31176 0.64339 0.57548 0.0
C1810 C 0.29798 0.64184 0.62265 0.0
C1811 C 0.31523 0.62031 0.62721 0.0
C1812 C 0.33044 0.61016 0.60567 0.0
C1813 C 0.32859 0.62186 0.58014 0.0
C1814 C 0.28154 0.65322 0.64522 0.0
C1815 C 0.34884 0.58702 0.60961 0.0
C1816 C 0.34108 0.60596 0.6999 0.0
C1817 C 0.32395 0.58284 0.70473 0.0
C1818 C 0.338 0.61885 0.67502 0.0
C1819 C 0.31746 0.60821 0.65445 0.0
C1820 C 0.29993 0.58508 0.65934 0.0
C1821 C 0.30333 0.57274 0.68444 0.0
C1822 C 0.35699 0.64358 0.67057 0.0
C1823 C 0.27794 0.573 0.63781 0.0
H1824 H 0.28338 0.66974 0.59341 0.0
H1825 H 0.34046 0.6141 0.5638 0.0
H1826 H 0.26796 0.63643 0.65228 0.0
H1827 H 0.2953 0.66166 0.66335 0.0
H1828 H 0.26896 0.66985 0.63832 0.0
H1829 H 0.35898 0.58121 0.59061 0.0
H1830 H 0.36471 0.59329 0.62662 0.0
H1831 H 0.33698 0.56846 0.61564 0.0
H1832 H 0.35695 0.61397 0.71553 0.0
H1833 H 0.28999 0.55488 0.68799 0.0
H1834 H 0.34516 0.66122 0.66512 0.0
H1835 H 0.36935 0.63856 0.65299 0.0
H1836 H 0.37096 0.65019 0.68916 0.0
H1837 H 0.26446 0.58918 0.63176 0.0
H1838 H 0.26534 0.55561 0.64525 0.0
H1839 H 0.28725 0.56534 0.61891 0.0
C1840 C 0.18005 0.5555 0.35194 0.0
C1841 C 0.17701 0.52694 0.35463 0.0
C1842 C 0.19763 0.57295 0.37057 0.0
C1843 C 0.21204 0.56164 0.39277 0.0
C1844 C 0.20855 0.53293 0.39599 0.0
C1845 C 0.1913 0.51586 0.37669 0.0
C1846 C 0.20117 0.60341 0.36618 0.0
C1847 C 0.22311 0.52023 0.41976 0.0
C1848 C 0.27617 0.60219 0.42557 0.0
C1849 C 0.26628 0.61676 0.44818 0.0
C1850 C 0.25876 0.58402 0.40745 0.0
C1851 C 0.23096 0.5799 0.41243 0.0
C1852 C 0.22107 0.59388 0.43574 0.0
C1853 C 0.23879 0.61238 0.45316 0.0
C1854 C 0.26993 0.56986 0.38252 0.0
C1855 C 0.1917 0.58957 0.44208 0.0
H1856 H 0.16925 0.56415 0.33479 0.0
H1857 H 0.18888 0.49382 0.37897 0.0
H1858 H 0.1955 0.61582 0.38462 0.0
H1859 H 0.22283 0.60944 0.36352 0.0
H1860 H 0.18864 0.60888 0.34777 0.0
H1861 H 0.21736 0.49774 0.41994 0.0
H1862 H 0.2454 0.52325 0.41847 0.0
H1863 H 0.21844 0.5307 0.4397 0.0
H1864 H 0.29735 0.60569 0.42152 0.0
H1865 H 0.2311 0.62345 0.47075 0.0
H1866 H 0.25932 0.5761 0.36332 0.0
H1867 H 0.26617 0.5471 0.3826 0.0
H1868 H 0.2921 0.57498 0.38181 0.0
H1869 H 0.17837 0.59687 0.42521 0.0
H1870 H 0.18763 0.60077 0.46189 0.0
H1871 H 0.18597 0.56721 0.44318 0.0
loop_
_geom_bond_atom_site_label_1
_geom_bond_atom_site_label_2
_geom_bond_distance
_geom_bond_site_symmetry_2
_ccdc_geom_bond_type
Mg0 O1 2.028 . S
Mg0 O7 1.986 . S
Mg0 O9 2.114 1_455 S
Mg0 O10 2.251 1_455 S
Mg0 O13 2.010 . S
O1 Mg0 2.028 . S
O1 C4 1.250 1_455 S
O2 Mg3 2.028 . S
O2 C4 1.248 . S
Mg3 O2 2.028 . S
Mg3 O8 2.032 . S
Mg3 O10 2.079 . S
C4 O1 1.250 1_655 S
C4 O2 1.248 . S
C5 O6 1.264 . S
C5 O13 1.249 . S
O6 C5 1.264 . S
O7 Mg0 1.986 . S
O7 C11 1.246 . S
O8 Mg3 2.032 . S
O8 C11 1.259 1_655 S
O9 Mg0 2.114 1_655 S
O9 C12 1.252 . S
O10 Mg0 2.251 1_655 S
O10 Mg3 2.079 . S
O10 C12 1.273 . S
C11 O7 1.246 . S
C11 O8 1.259 1_455 S
C12 O9 1.252 . S
C12 O10 1.273 . S
O13 Mg0 2.010 . S
O13 C5 1.249 . S
Mg14 O15 2.028 . S
Mg14 O21 1.986 . S
Mg14 O23 2.114 1_455 S
Mg14 O24 2.251 1_455 S
Mg14 O27 2.010 . S
O15 Mg14 2.028 . S
O15 C18 1.250 . S
O16 Mg17 2.028 1_455 S
O16 C18 1.248 . S
Mg17 O16 2.028 1_655 S
Mg17 O22 2.032 . S
Mg17 O24 2.079 . S
C18 O15 1.250 . S
C18 O16 1.248 . S
C19 O20 1.264 . S
C19 O27 1.249 . S
O20 C19 1.264 . S
O21 Mg14 1.986 . S
O21 C25 1.246 1_455 S
O22 Mg17 2.032 . S
O22 C25 1.259 . S
O23 Mg14 2.114 1_655 S
O23 C26 1.252 . S
O24 Mg14 2.251 1_655 S
O24 Mg17 2.079 . S
O24 C26 1.273 . S
C25 O21 1.246 1_655 S
C25 O22 1.259 . S
C26 O23 1.252 . S
C26 O24 1.273 . S
O27 Mg14 2.010 . S
O27 C19 1.249 . S
Mg28 O29 2.028 . S
Mg28 O35 1.986 . S
Mg28 O37 2.114 . S
Mg28 O38 2.251 . S
Mg28 O41 2.010 . S
O29 Mg28 2.028 . S
O29 C32 1.250 . S
O30 Mg31 2.028 . S
O30 C32 1.248 . S
Mg31 O30 2.028 . S
Mg31 O36 2.032 . S
Mg31 O38 2.079 . S
C32 O29 1.250 . S
C32 O30 1.248 . S
C33 O34 1.264 . S
C33 O41 1.249 . S
O34 C33 1.264 . S
O35 Mg28 1.986 . S
O35 C39 1.246 . S
O36 Mg31 2.032 . S
O36 C39 1.259 . S
O37 Mg28 2.114 . S
O37 C40 1.252 . S
O38 Mg28 2.251 . S
O38 Mg31 2.079 . S
O38 C40 1.273 . S
C39 O35 1.246 . S
C39 O36 1.259 . S
C40 O37 1.252 . S
C40 O38 1.273 . S
O41 Mg28 2.010 . S
O41 C33 1.249 . S
Mg42 O43 2.028 . S
Mg42 O49 1.986 . S
Mg42 O51 2.114 . S
Mg42 O52 2.251 . S
Mg42 O55 2.010 . S
O43 Mg42 2.028 . S
O43 C46 1.250 . S
O44 Mg45 2.028 . S
O44 C46 1.248 . S
Mg45 O44 2.028 . S
Mg45 O50 2.032 . S
Mg45 O52 2.079 . S
C46 O43 1.250 . S
C46 O44 1.248 . S
C47 O48 1.264 . S
C47 O55 1.249 . S
O48 C47 1.264 . S
O49 Mg42 1.986 . S
O49 C53 1.246 . S
O50 Mg45 2.032 . S
O50 C53 1.259 . S
O51 Mg42 2.114 . S
O51 C54 1.252 . S
O52 Mg42 2.251 . S
O52 Mg45 2.079 . S
O52 C54 1.273 . S
C53 O49 1.246 . S
C53 O50 1.259 . S
C54 O51 1.252 . S
C54 O52 1.273 . S
O55 Mg42 2.010 . S
O55 C47 1.249 . S
Mg56 O57 2.028 1_455 S
Mg56 O63 1.986 . S
Mg56 O65 2.114 1_455 S
Mg56 O66 2.251 1_455 S
Mg56 O69 2.010 . S
O57 Mg56 2.028 1_655 S
O57 C60 1.250 . S
O58 Mg59 2.028 . S
O58 C60 1.248 . S
Mg59 O58 2.028 . S
Mg59 O64 2.032 1_655 S
Mg59 O66 2.079 . S
C60 O57 1.250 . S
C60 O58 1.248 . S
C61 O62 1.264 . S
C61 O69 1.249 . S
O62 C61 1.264 . S
O63 Mg56 1.986 . S
O63 C67 1.246 . S
O64 Mg59 2.032 1_455 S
O64 C67 1.259 . S
O65 Mg56 2.114 1_655 S
O65 C68 1.252 . S
O66 Mg56 2.251 1_655 S
O66 Mg59 2.079 . S
O66 C68 1.273 . S
C67 O63 1.246 . S
C67 O64 1.259 . S
C68 O65 1.252 . S
C68 O66 1.273 . S
O69 Mg56 2.010 . S
O69 C61 1.249 . S
Mg70 O71 2.028 . S
Mg70 O77 1.986 . S
Mg70 O79 2.114 . S
Mg70 O80 2.251 . S
Mg70 O83 2.010 . S
O71 Mg70 2.028 . S
O71 C74 1.250 . S
O72 Mg73 2.028 . S
O72 C74 1.248 . S
Mg73 O72 2.028 . S
Mg73 O78 2.032 . S
Mg73 O80 2.079 . S
C74 O71 1.250 . S
C74 O72 1.248 . S
C75 O76 1.264 . S
C75 O83 1.249 . S
O76 C75 1.264 . S
O77 Mg70 1.986 . S
O77 C81 1.246 . S
O78 Mg73 2.032 . S
O78 C81 1.259 . S
O79 Mg70 2.114 . S
O79 C82 1.252 . S
O80 Mg70 2.251 . S
O80 Mg73 2.079 . S
O80 C82 1.273 . S
C81 O77 1.246 . S
C81 O78 1.259 . S
C82 O79 1.252 . S
C82 O80 1.273 . S
O83 Mg70 2.010 . S
O83 C75 1.249 . S
Mg84 O85 2.028 . S
Mg84 O91 1.986 . S
Mg84 O93 2.114 . S
Mg84 O94 2.251 . S
Mg84 O97 2.010 . S
O85 Mg84 2.028 . S
O85 C88 1.250 . S
O86 Mg87 2.028 . S
O86 C88 1.248 . S
Mg87 O86 2.028 . S
Mg87 O92 2.032 . S
Mg87 O94 2.079 . S
C88 O85 1.250 . S
C88 O86 1.248 . S
C89 O90 1.264 . S
C89 O97 1.249 . S
O90 C89 1.264 . S
O91 Mg84 1.986 . S
O91 C95 1.246 . S
O92 Mg87 2.032 . S
O92 C95 1.259 . S
O93 Mg84 2.114 . S
O93 C96 1.252 . S
O94 Mg84 2.251 . S
O94 Mg87 2.079 . S
O94 C96 1.273 . S
C95 O91 1.246 . S
C95 O92 1.259 . S
C96 O93 1.252 . S
C96 O94 1.273 . S
O97 Mg84 2.010 . S
O97 C89 1.249 . S
Mg98 O99 2.028 1_455 S
Mg98 O105 1.986 . S
Mg98 O107 2.114 . S
Mg98 O108 2.251 . S
Mg98 O111 2.010 1_455 S
O99 Mg98 2.028 1_655 S
O99 C102 1.250 . S
O100 Mg101 2.028 . S
O100 C102 1.248 1_455 S
Mg101 O100 2.028 . S
Mg101 O106 2.032 . S
Mg101 O108 2.079 . S
C102 O99 1.250 . S
C102 O100 1.248 1_655 S
C103 O104 1.264 . S
C103 O111 1.249 . S
O104 C103 1.264 . S
O105 Mg98 1.986 . S
O105 C109 1.246 . S
O106 Mg101 2.032 . S
O106 C109 1.259 . S
O107 Mg98 2.114 . S
O107 C110 1.252 . S
O108 Mg98 2.251 . S
O108 Mg101 2.079 . S
O108 C110 1.273 . S
C109 O105 1.246 . S
C109 O106 1.259 . S
C110 O107 1.252 . S
C110 O108 1.273 . S
O111 Mg98 2.010 1_655 S
O111 C103 1.249 . S
Mg112 O113 2.028 1_545 S
Mg112 O119 1.986 . S
Mg112 O121 2.114 1_545 S
Mg112 O122 2.251 1_545 S
Mg112 O125 2.010 . S
O113 Mg112 2.028 1_565 S
O113 C116 1.250 . S
O114 Mg115 2.028 . S
O114 C116 1.248 . S
Mg115 O114 2.028 . S
Mg115 O120 2.032 . S
Mg115 O122 2.079 . S
C116 O113 1.250 . S
C116 O114 1.248 . S
C117 O118 1.264 . S
C117 O125 1.249 . S
O118 C117 1.264 . S
O119 Mg112 1.986 . S
O119 C123 1.246 . S
O120 Mg115 2.032 . S
O120 C123 1.259 1_565 S
O121 Mg112 2.114 1_565 S
O121 C124 1.252 . S
O122 Mg112 2.251 1_565 S
O122 Mg115 2.079 . S
O122 C124 1.273 . S
C123 O119 1.246 . S
C123 O120 1.259 1_545 S
C124 O121 1.252 . S
C124 O122 1.273 . S
O125 Mg112 2.010 . S
O125 C117 1.249 . S
Mg126 O127 2.028 . S
Mg126 O133 1.986 . S
Mg126 O135 2.114 . S
Mg126 O136 2.251 . S
Mg126 O139 2.010 . S
O127 Mg126 2.028 . S
O127 C130 1.250 . S
O128 Mg129 2.028 . S
O128 C130 1.248 . S
Mg129 O128 2.028 . S
Mg129 O134 2.032 . S
Mg129 O136 2.079 . S
C130 O127 1.250 . S
C130 O128 1.248 . S
C131 O132 1.264 . S
C131 O139 1.249 . S
O132 C131 1.264 . S
O133 Mg126 1.986 . S
O133 C137 1.246 . S
O134 Mg129 2.032 . S
O134 C137 1.259 . S
O135 Mg126 2.114 . S
O135 C138 1.252 . S
O136 Mg126 2.251 . S
O136 Mg129 2.079 . S
O136 C138 1.273 . S
C137 O133 1.246 . S
C137 O134 1.259 . S
C138 O135 1.252 . S
C138 O136 1.273 . S
O139 Mg126 2.010 . S
O139 C131 1.249 . S
Mg140 O141 2.028 1_545 S
Mg140 O147 1.986 . S
Mg140 O149 2.114 1_545 S
Mg140 O150 2.251 1_545 S
Mg140 O153 2.010 . S
O141 Mg140 2.028 1_565 S
O141 C144 1.250 . S
O142 Mg143 2.028 . S
O142 C144 1.248 . S
Mg143 O142 2.028 . S
Mg143 O148 2.032 1_565 S
Mg143 O150 2.079 . S
C144 O141 1.250 . S
C144 O142 1.248 . S
C145 O146 1.264 . S
C145 O153 1.249 . S
O146 C145 1.264 . S
O147 Mg140 1.986 . S
O147 C151 1.246 . S
O148 Mg143 2.032 1_545 S
O148 C151 1.259 . S
O149 Mg140 2.114 1_565 S
O149 C152 1.252 . S
O150 Mg140 2.251 1_565 S
O150 Mg143 2.079 . S
O150 C152 1.273 . S
C151 O147 1.246 . S
C151 O148 1.259 . S
C152 O149 1.252 . S
C152 O150 1.273 . S
O153 Mg140 2.010 . S
O153 C145 1.249 . S
Mg154 O155 2.028 1_556 S
Mg154 O161 1.986 . S
Mg154 O163 2.114 1_556 S
Mg154 O164 2.251 . S
Mg154 O167 2.010 1_556 S
O155 Mg154 2.028 1_554 S
O155 C158 1.250 . S
O156 Mg157 2.028 1_554 S
O156 C158 1.248 . S
Mg157 O156 2.028 1_556 S
Mg157 O162 2.032 . S
Mg157 O164 2.079 . S
C158 O155 1.250 . S
C158 O156 1.248 . S
C159 O160 1.264 . S
C159 O167 1.249 . S
O160 C159 1.264 . S
O161 Mg154 1.986 . S
O161 C165 1.246 . S
O162 Mg157 2.032 . S
O162 C165 1.259 . S
O163 Mg154 2.114 1_554 S
O163 C166 1.252 1_554 S
O164 Mg154 2.251 . S
O164 Mg157 2.079 . S
O164 C166 1.273 . S
C165 O161 1.246 . S
C165 O162 1.259 . S
C166 O163 1.252 1_556 S
C166 O164 1.273 . S
O167 Mg154 2.010 1_554 S
O167 C159 1.249 . S
Mg168 O169 2.028 1_554 S
Mg168 O175 1.986 . S
Mg168 O177 2.114 1_554 S
Mg168 O178 2.251 1_554 S
Mg168 O181 2.010 . S
O169 Mg168 2.028 1_556 S
O169 C172 1.250 . S
O170 Mg171 2.028 . S
O170 C172 1.248 . S
Mg171 O170 2.028 . S
Mg171 O176 2.032 1_556 S
Mg171 O178 2.079 . S
C172 O169 1.250 . S
C172 O170 1.248 . S
C173 O174 1.264 . S
C173 O181 1.249 . S
O174 C173 1.264 . S
O175 Mg168 1.986 . S
O175 C179 1.246 . S
O176 Mg171 2.032 1_554 S
O176 C179 1.259 . S
O177 Mg168 2.114 1_556 S
O177 C180 1.252 . S
O178 Mg168 2.251 1_556 S
O178 Mg171 2.079 . S
O178 C180 1.273 . S
C179 O175 1.246 . S
C179 O176 1.259 . S
C180 O177 1.252 . S
C180 O178 1.273 . S
O181 Mg168 2.010 . S
O181 C173 1.249 . S
Mg182 O183 2.028 1_554 S
Mg182 O189 1.986 . S
Mg182 O191 2.114 1_554 S
Mg182 O192 2.251 1_554 S
Mg182 O195 2.010 . S
O183 Mg182 2.028 1_556 S
O183 C186 1.250 . S
O184 Mg185 2.028 . S
O184 C186 1.248 . S
Mg185 O184 2.028 . S
Mg185 O190 2.032 1_556 S
Mg185 O192 2.079 . S
C186 O183 1.250 . S
C186 O184 1.248 . S
C187 O188 1.264 . S
C187 O195 1.249 . S
O188 C187 1.264 . S
O189 Mg182 1.986 . S
O189 C193 1.246 . S
O190 Mg185 2.032 1_554 S
O190 C193 1.259 . S
O191 Mg182 2.114 1_556 S
O191 C194 1.252 . S
O192 Mg182 2.251 1_556 S
O192 Mg185 2.079 . S
O192 C194 1.273 . S
C193 O189 1.246 . S
C193 O190 1.259 . S
C194 O191 1.252 . S
C194 O192 1.273 . S
O195 Mg182 2.010 . S
O195 C187 1.249 . S
Mg196 O197 2.028 . S
Mg196 O203 1.986 . S
Mg196 O205 2.114 . S
Mg196 O206 2.251 . S
Mg196 O209 2.010 . S
O197 Mg196 2.028 . S
O197 C200 1.250 . S
O198 Mg199 2.028 . S
O198 C200 1.248 . S
Mg199 O198 2.028 . S
Mg199 O204 2.032 . S
Mg199 O206 2.079 . S
C200 O197 1.250 . S
C200 O198 1.248 . S
C201 O202 1.264 . S
C201 O209 1.249 . S
O202 C201 1.264 . S
O203 Mg196 1.986 . S
O203 C207 1.246 . S
O204 Mg199 2.032 . S
O204 C207 1.259 . S
O205 Mg196 2.114 . S
O205 C208 1.252 . S
O206 Mg196 2.251 . S
O206 Mg199 2.079 . S
O206 C208 1.273 . S
C207 O203 1.246 . S
C207 O204 1.259 . S
C208 O205 1.252 . S
C208 O206 1.273 . S
O209 Mg196 2.010 . S
O209 C201 1.249 . S
Mg210 O211 2.028 . S
Mg210 O217 1.986 . S
Mg210 O219 2.114 . S
Mg210 O220 2.251 . S
Mg210 O223 2.010 . S
O211 Mg210 2.028 . S
O211 C214 1.250 . S
O212 Mg213 2.028 . S
O212 C214 1.248 . S
Mg213 O212 2.028 . S
Mg213 O218 2.032 . S
Mg213 O220 2.079 . S
C214 O211 1.250 . S
C214 O212 1.248 . S
C215 O216 1.264 . S
C215 O223 1.249 . S
O216 C215 1.264 . S
O217 Mg210 1.986 . S
O217 C221 1.246 . S
O218 Mg213 2.032 . S
O218 C221 1.259 . S
O219 Mg210 2.114 . S
O219 C222 1.252 . S
O220 Mg210 2.251 . S
O220 Mg213 2.079 . S
O220 C222 1.273 . S
C221 O217 1.246 . S
C221 O218 1.259 . S
C222 O219 1.252 . S
C222 O220 1.273 . S
O223 Mg210 2.010 . S
O223 C215 1.249 . S
Mg224 O225 2.028 . S
Mg224 O231 1.986 1_545 S
Mg224 O233 2.114 . S
Mg224 O234 2.251 1_545 S
Mg224 O237 2.010 . S
O225 Mg224 2.028 . S
O225 C228 1.250 . S
O226 Mg227 2.028 1_545 S
O226 C228 1.248 . S
Mg227 O226 2.028 1_565 S
Mg227 O232 2.032 . S
Mg227 O234 2.079 . S
C228 O225 1.250 . S
C228 O226 1.248 . S
C229 O230 1.264 . S
C229 O237 1.249 . S
O230 C229 1.264 . S
O231 Mg224 1.986 1_565 S
O231 C235 1.246 . S
O232 Mg227 2.032 . S
O232 C235 1.259 . S
O233 Mg224 2.114 . S
O233 C236 1.252 1_545 S
O234 Mg224 2.251 1_565 S
O234 Mg227 2.079 . S
O234 C236 1.273 . S
C235 O231 1.246 . S
C235 O232 1.259 . S
C236 O233 1.252 1_565 S
C236 O234 1.273 . S
O237 Mg224 2.010 . S
O237 C229 1.249 . S
Mg238 O239 2.028 . S
Mg238 O245 1.986 . S
Mg238 O247 2.114 . S
Mg238 O248 2.251 . S
Mg238 O251 2.010 . S
O239 Mg238 2.028 . S
O239 C242 1.250 . S
O240 Mg241 2.028 . S
O240 C242 1.248 . S
Mg241 O240 2.028 . S
Mg241 O246 2.032 . S
Mg241 O248 2.079 . S
C242 O239 1.250 . S
C242 O240 1.248 . S
C243 O244 1.264 . S
C243 O251 1.249 . S
O244 C243 1.264 . S
O245 Mg238 1.986 . S
O245 C249 1.246 . S
O246 Mg241 2.032 . S
O246 C249 1.259 . S
O247 Mg238 2.114 . S
O247 C250 1.252 . S
O248 Mg238 2.251 . S
O248 Mg241 2.079 . S
O248 C250 1.273 . S
C249 O245 1.246 . S
C249 O246 1.259 . S
C250 O247 1.252 . S
C250 O248 1.273 . S
O251 Mg238 2.010 . S
O251 C243 1.249 . S
Mg252 O253 2.028 . S
Mg252 O259 1.986 . S
Mg252 O261 2.114 . S
Mg252 O262 2.251 . S
Mg252 O265 2.010 . S
O253 Mg252 2.028 . S
O253 C256 1.250 . S
O254 Mg255 2.028 . S
O254 C256 1.248 . S
Mg255 O254 2.028 . S
Mg255 O260 2.032 . S
Mg255 O262 2.079 . S
C256 O253 1.250 . S
C256 O254 1.248 . S
C257 O258 1.264 . S
C257 O265 1.249 . S
O258 C257 1.264 . S
O259 Mg252 1.986 . S
O259 C263 1.246 . S
O260 Mg255 2.032 . S
O260 C263 1.259 . S
O261 Mg252 2.114 . S
O261 C264 1.252 . S
O262 Mg252 2.251 . S
O262 Mg255 2.079 . S
O262 C264 1.273 . S
C263 O259 1.246 . S
C263 O260 1.259 . S
C264 O261 1.252 . S
C264 O262 1.273 . S
O265 Mg252 2.010 . S
O265 C257 1.249 . S
Mg266 O267 2.028 . S
Mg266 O273 1.986 . S
Mg266 O275 2.114 1_545 S
Mg266 O276 2.251 1_545 S
Mg266 O279 2.010 . S
O267 Mg266 2.028 . S
O267 C270 1.250 . S
O268 Mg269 2.028 1_545 S
O268 C270 1.248 . S
Mg269 O268 2.028 1_565 S
Mg269 O274 2.032 . S
Mg269 O276 2.079 . S
C270 O267 1.250 . S
C270 O268 1.248 . S
C271 O272 1.264 . S
C271 O279 1.249 . S
O272 C271 1.264 . S
O273 Mg266 1.986 . S
O273 C277 1.246 1_545 S
O274 Mg269 2.032 . S
O274 C277 1.259 . S
O275 Mg266 2.114 1_565 S
O275 C278 1.252 . S
O276 Mg266 2.251 1_565 S
O276 Mg269 2.079 . S
O276 C278 1.273 . S
C277 O273 1.246 1_565 S
C277 O274 1.259 . S
C278 O275 1.252 . S
C278 O276 1.273 . S
O279 Mg266 2.010 . S
O279 C271 1.249 . S
Mg280 O281 2.029 1_556 S
Mg280 O287 1.986 . S
Mg280 O289 2.113 . S
Mg280 O290 2.251 . S
Mg280 O293 2.011 1_556 S
O281 Mg280 2.029 1_554 S
O281 C284 1.250 . S
O282 Mg283 2.028 . S
O282 C284 1.248 1_556 S
Mg283 O282 2.028 . S
Mg283 O288 2.032 . S
Mg283 O290 2.079 . S
C284 O281 1.250 . S
C284 O282 1.248 1_554 S
C285 O286 1.264 . S
C285 O293 1.249 . S
O286 C285 1.264 . S
O287 Mg280 1.986 . S
O287 C291 1.246 . S
O288 Mg283 2.032 . S
O288 C291 1.259 . S
O289 Mg280 2.113 . S
O289 C292 1.252 . S
O290 Mg280 2.251 . S
O290 Mg283 2.079 . S
O290 C292 1.273 . S
C291 O287 1.246 . S
C291 O288 1.259 . S
C292 O289 1.252 . S
C292 O290 1.273 . S
O293 Mg280 2.011 1_554 S
O293 C285 1.249 . S
Mg294 O295 2.028 . S
Mg294 O301 1.986 . S
Mg294 O303 2.114 . S
Mg294 O304 2.251 . S
Mg294 O307 2.010 . S
O295 Mg294 2.028 . S
O295 C298 1.250 . S
O296 Mg297 2.028 . S
O296 C298 1.248 . S
Mg297 O296 2.028 . S
Mg297 O302 2.032 . S
Mg297 O304 2.079 . S
C298 O295 1.250 . S
C298 O296 1.248 . S
C299 O300 1.264 . S
C299 O307 1.249 . S
O300 C299 1.264 . S
O301 Mg294 1.986 . S
O301 C305 1.246 . S
O302 Mg297 2.032 . S
O302 C305 1.259 . S
O303 Mg294 2.114 . S
O303 C306 1.252 . S
O304 Mg294 2.251 . S
O304 Mg297 2.079 . S
O304 C306 1.273 . S
C305 O301 1.246 . S
C305 O302 1.259 . S
C306 O303 1.252 . S
C306 O304 1.273 . S
O307 Mg294 2.010 . S
O307 C299 1.249 . S
Mg308 O309 2.028 . S
Mg308 O315 1.986 . S
Mg308 O317 2.114 . S
Mg308 O318 2.251 . S
Mg308 O321 2.010 . S
O309 Mg308 2.028 . S
O309 C312 1.250 . S
O310 Mg311 2.028 . S
O310 C312 1.248 . S
Mg311 O310 2.028 . S
Mg311 O316 2.032 . S
Mg311 O318 2.079 . S
C312 O309 1.250 . S
C312 O310 1.248 . S
C313 O314 1.264 . S
C313 O321 1.249 . S
O314 C313 1.264 . S
O315 Mg308 1.986 . S
O315 C319 1.246 . S
O316 Mg311 2.032 . S
O316 C319 1.259 . S
O317 Mg308 2.114 . S
O317 C320 1.252 . S
O318 Mg308 2.251 . S
O318 Mg311 2.079 . S
O318 C320 1.273 . S
C319 O315 1.246 . S
C319 O316 1.259 . S
C320 O317 1.252 . S
C320 O318 1.273 . S
O321 Mg308 2.010 . S
O321 C313 1.249 . S
Mg322 O323 2.028 . S
Mg322 O329 1.986 . S
Mg322 O331 2.114 . S
Mg322 O332 2.251 . S
Mg322 O335 2.010 . S
O323 Mg322 2.028 . S
O323 C326 1.250 . S
O324 Mg325 2.028 . S
O324 C326 1.248 . S
Mg325 O324 2.028 . S
Mg325 O330 2.032 . S
Mg325 O332 2.079 . S
C326 O323 1.250 . S
C326 O324 1.248 . S
C327 O328 1.264 . S
C327 O335 1.249 . S
O328 C327 1.264 . S
O329 Mg322 1.986 . S
O329 C333 1.246 . S
O330 Mg325 2.032 . S
O330 C333 1.259 . S
O331 Mg322 2.114 . S
O331 C334 1.252 . S
O332 Mg322 2.251 . S
O332 Mg325 2.079 . S
O332 C334 1.273 . S
C333 O329 1.246 . S
C333 O330 1.259 . S
C334 O331 1.252 . S
C334 O332 1.273 . S
O335 Mg322 2.010 . S
O335 C327 1.249 . S
C336 C337 1.391 . S
C336 C338 1.394 . S
C336 H352 0.931 . S
C337 C336 1.391 . S
C337 C341 1.376 . S
C338 C336 1.394 . S
C338 C339 1.369 . S
C338 C342 1.531 . S
C339 C338 1.369 . S
C339 C340 1.410 . S
C339 C347 1.503 . S
C340 C339 1.410 . S
C340 C341 1.392 . S
C340 C343 1.511 . S
C341 C337 1.376 . S
C341 C340 1.392 . S
C341 H353 0.929 . S
C342 C338 1.531 . S
C342 H354 0.960 . S
C342 H355 0.962 . S
C342 H356 0.960 . S
C343 C340 1.511 . S
C343 H357 0.961 . S
C343 H358 0.961 . S
C343 H359 0.961 . S
C344 C345 1.370 . S
C344 C346 1.363 . S
C344 H360 0.931 . S
C345 C344 1.370 . S
C345 C349 1.408 . S
C346 C344 1.363 . S
C346 C347 1.370 . S
C346 C350 1.524 . S
C347 C339 1.503 . S
C347 C346 1.370 . S
C347 C348 1.403 . S
C348 C347 1.403 . S
C348 C349 1.404 . S
C348 C351 1.539 . S
C349 C345 1.408 . S
C349 C348 1.404 . S
C349 H361 0.930 . S
C350 C346 1.524 . S
C350 H362 0.956 . S
C350 H363 0.961 . S
C350 H364 0.961 1_455 S
C351 C348 1.539 . S
C351 H365 0.958 . S
C351 H366 0.961 . S
C351 H367 0.960 . S
H352 C336 0.931 . S
H353 C341 0.929 . S
H354 C342 0.960 . S
H355 C342 0.962 . S
H356 C342 0.960 . S
H357 C343 0.961 . S
H358 C343 0.961 . S
H359 C343 0.961 . S
H360 C344 0.931 . S
H361 C349 0.930 . S
H362 C350 0.956 . S
H363 C350 0.961 . S
H364 C350 0.961 1_655 S
H365 C351 0.958 . S
H366 C351 0.961 . S
H367 C351 0.960 . S
C368 C369 1.391 . S
C368 C370 1.394 . S
C368 H384 0.931 . S
C369 C368 1.391 . S
C369 C373 1.376 . S
C370 C368 1.394 . S
C370 C371 1.369 . S
C370 C374 1.531 . S
C371 C370 1.369 . S
C371 C372 1.410 . S
C371 C379 1.503 . S
C372 C371 1.410 . S
C372 C373 1.392 . S
C372 C375 1.511 . S
C373 C369 1.376 . S
C373 C372 1.392 . S
C373 H385 0.929 . S
C374 C370 1.531 . S
C374 H386 0.960 . S
C374 H387 0.962 . S
C374 H388 0.960 . S
C375 C372 1.511 . S
C375 H389 0.961 . S
C375 H390 0.961 . S
C375 H391 0.961 . S
C376 C377 1.370 . S
C376 C378 1.363 . S
C376 H392 0.931 . S
C377 C376 1.370 . S
C377 C381 1.408 . S
C378 C376 1.363 . S
C378 C379 1.370 . S
C378 C382 1.524 . S
C379 C371 1.503 . S
C379 C378 1.370 . S
C379 C380 1.403 . S
C380 C379 1.403 . S
C380 C381 1.404 . S
C380 C383 1.539 . S
C381 C377 1.408 . S
C381 C380 1.404 . S
C381 H393 0.930 . S
C382 C378 1.524 . S
C382 H394 0.956 . S
C382 H395 0.961 . S
C382 H396 0.961 . S
C383 C380 1.539 . S
C383 H397 0.958 . S
C383 H398 0.961 . S
C383 H399 0.960 . S
H384 C368 0.931 . S
H385 C373 0.929 . S
H386 C374 0.960 . S
H387 C374 0.962 . S
H388 C374 0.960 . S
H389 C375 0.961 . S
H390 C375 0.961 . S
H391 C375 0.961 . S
H392 C376 0.931 . S
H393 C381 0.930 . S
H394 C382 0.956 . S
H395 C382 0.961 . S
H396 C382 0.961 . S
H397 C383 0.958 . S
H398 C383 0.961 . S
H399 C383 0.960 . S
C400 C401 1.391 . S
C400 C402 1.394 . S
C400 H416 0.931 . S
C401 C400 1.391 . S
C401 C405 1.376 . S
C402 C400 1.394 . S
C402 C403 1.369 . S
C402 C406 1.531 . S
C403 C402 1.369 . S
C403 C404 1.410 . S
C403 C411 1.503 . S
C404 C403 1.410 . S
C404 C405 1.392 . S
C404 C407 1.511 . S
C405 C401 1.376 . S
C405 C404 1.392 . S
C405 H417 0.929 . S
C406 C402 1.531 . S
C406 H418 0.960 . S
C406 H419 0.962 . S
C406 H420 0.960 . S
C407 C404 1.511 . S
C407 H421 0.961 . S
C407 H422 0.961 . S
C407 H423 0.961 . S
C408 C409 1.370 . S
C408 C410 1.363 . S
C408 H424 0.931 . S
C409 C408 1.370 . S
C409 C413 1.408 . S
C410 C408 1.363 . S
C410 C411 1.370 . S
C410 C414 1.524 . S
C411 C403 1.503 . S
C411 C410 1.370 . S
C411 C412 1.403 . S
C412 C411 1.403 . S
C412 C413 1.404 . S
C412 C415 1.539 . S
C413 C409 1.408 . S
C413 C412 1.404 . S
C413 H425 0.930 . S
C414 C410 1.524 . S
C414 H426 0.956 . S
C414 H427 0.961 . S
C414 H428 0.961 . S
C415 C412 1.539 . S
C415 H429 0.958 . S
C415 H430 0.961 . S
C415 H431 0.960 . S
H416 C400 0.931 . S
H417 C405 0.929 . S
H418 C406 0.960 . S
H419 C406 0.962 . S
H420 C406 0.960 . S
H421 C407 0.961 . S
H422 C407 0.961 . S
H423 C407 0.961 . S
H424 C408 0.931 . S
H425 C413 0.930 . S
H426 C414 0.956 . S
H427 C414 0.961 . S
H428 C414 0.961 . S
H429 C415 0.958 . S
H430 C415 0.961 . S
H431 C415 0.960 . S
C432 C433 1.391 . S
C432 C434 1.394 . S
C432 H448 0.931 . S
C433 C432 1.391 . S
C433 C437 1.376 . S
C434 C432 1.394 . S
C434 C435 1.369 . S
C434 C438 1.531 . S
C435 C434 1.369 . S
C435 C436 1.410 . S
C435 C443 1.503 . S
C436 C435 1.410 . S
C436 C437 1.392 . S
C436 C439 1.511 . S
C437 C433 1.376 . S
C437 C436 1.392 . S
C437 H449 0.929 . S
C438 C434 1.531 . S
C438 H450 0.960 . S
C438 H451 0.962 . S
C438 H452 0.960 . S
C439 C436 1.511 . S
C439 H453 0.961 . S
C439 H454 0.961 . S
C439 H455 0.961 . S
C440 C441 1.370 . S
C440 C442 1.363 . S
C440 H456 0.931 . S
C441 C440 1.370 . S
C441 C445 1.408 . S
C442 C440 1.363 . S
C442 C443 1.370 . S
C442 C446 1.524 . S
C443 C435 1.503 . S
C443 C442 1.370 . S
C443 C444 1.403 . S
C444 C443 1.403 . S
C444 C445 1.404 . S
C444 C447 1.539 1_554 S
C445 C441 1.408 . S
C445 C444 1.404 . S
C445 H457 0.930 1_554 S
C446 C442 1.524 . S
C446 H458 0.956 . S
C446 H459 0.961 . S
C446 H460 0.961 . S
C447 C444 1.539 1_556 S
C447 H461 0.958 1_556 S
C447 H462 0.961 . S
C447 H463 0.958 1_556 S
H448 C432 0.931 . S
H449 C437 0.929 . S
H450 C438 0.960 . S
H451 C438 0.962 . S
H452 C438 0.960 . S
H453 C439 0.961 . S
H454 C439 0.961 . S
H455 C439 0.961 . S
H456 C440 0.931 . S
H457 C445 0.930 1_556 S
H458 C446 0.956 . S
H459 C446 0.961 . S
H460 C446 0.961 . S
H461 C447 0.958 1_554 S
H462 C447 0.961 . S
H463 C447 0.958 1_554 S
C464 C465 1.391 . S
C464 C466 1.394 . S
C464 H480 0.931 . S
C465 C464 1.391 . S
C465 C469 1.376 . S
C466 C464 1.394 . S
C466 C467 1.369 . S
C466 C470 1.531 . S
C467 C466 1.369 . S
C467 C468 1.410 . S
C467 C475 1.503 . S
C468 C467 1.410 . S
C468 C469 1.392 . S
C468 C471 1.511 . S
C469 C465 1.376 . S
C469 C468 1.392 . S
C469 H481 0.929 . S
C470 C466 1.531 . S
C470 H482 0.960 . S
C470 H483 0.962 . S
C470 H484 0.960 . S
C471 C468 1.511 . S
C471 H485 0.961 . S
C471 H486 0.961 . S
C471 H487 0.961 . S
C472 C473 1.370 . S
C472 C474 1.363 . S
C472 H488 0.931 . S
C473 C472 1.370 . S
C473 C477 1.408 . S
C474 C472 1.363 . S
C474 C475 1.370 . S
C474 C478 1.524 . S
C475 C467 1.503 . S
C475 C474 1.370 . S
C475 C476 1.403 . S
C476 C475 1.403 . S
C476 C477 1.404 . S
C476 C479 1.539 . S
C477 C473 1.408 . S
C477 C476 1.404 . S
C477 H489 0.930 . S
C478 C474 1.524 . S
C478 H490 0.956 . S
C478 H491 0.961 . S
C478 H492 0.961 . S
C479 C476 1.539 . S
C479 H493 0.958 . S
C479 H494 0.961 . S
C479 H495 0.960 . S
H480 C464 0.931 . S
H481 C469 0.929 . S
H482 C470 0.960 . S
H483 C470 0.962 . S
H484 C470 0.960 . S
H485 C471 0.961 . S
H486 C471 0.961 . S
H487 C471 0.961 . S
H488 C472 0.931 . S
H489 C477 0.930 . S
H490 C478 0.956 . S
H491 C478 0.961 . S
H492 C478 0.961 . S
H493 C479 0.958 . S
H494 C479 0.961 . S
H495 C479 0.960 . S
C496 C497 1.391 . S
C496 C498 1.394 . S
C496 H512 0.931 . S
C497 C496 1.391 . S
C497 C501 1.376 . S
C498 C496 1.394 . S
C498 C499 1.369 . S
C498 C502 1.531 . S
C499 C498 1.369 . S
C499 C500 1.410 . S
C499 C507 1.503 . S
C500 C499 1.410 . S
C500 C501 1.392 . S
C500 C503 1.511 . S
C501 C497 1.376 . S
C501 C500 1.392 . S
C501 H513 0.929 . S
C502 C498 1.531 . S
C502 H514 0.960 . S
C502 H515 0.962 . S
C502 H516 0.960 . S
C503 C500 1.511 . S
C503 H517 0.961 . S
C503 H518 0.961 . S
C503 H519 0.961 . S
C504 C505 1.370 . S
C504 C506 1.363 . S
C504 H520 0.931 . S
C505 C504 1.370 . S
C505 C509 1.408 . S
C506 C504 1.363 . S
C506 C507 1.370 . S
C506 C510 1.524 . S
C507 C499 1.503 . S
C507 C506 1.370 . S
C507 C508 1.403 . S
C508 C507 1.403 . S
C508 C509 1.404 . S
C508 C511 1.539 . S
C509 C505 1.408 . S
C509 C508 1.404 . S
C509 H521 0.930 . S
C510 C506 1.524 . S
C510 H522 0.956 . S
C510 H523 0.961 . S
C510 H524 0.961 . S
C511 C508 1.539 . S
C511 H525 0.958 . S
C511 H526 0.961 . S
C511 H527 0.960 . S
H512 C496 0.931 . S
H513 C501 0.929 . S
H514 C502 0.960 . S
H515 C502 0.962 . S
H516 C502 0.960 . S
H517 C503 0.961 . S
H518 C503 0.961 . S
H519 C503 0.961 . S
H520 C504 0.931 . S
H521 C509 0.930 . S
H522 C510 0.956 . S
H523 C510 0.961 . S
H524 C510 0.961 . S
H525 C511 0.958 . S
H526 C511 0.961 . S
H527 C511 0.960 . S
C528 C529 1.391 . S
C528 C530 1.394 . S
C528 H544 0.931 . S
C529 C528 1.391 . S
C529 C533 1.376 . S
C530 C528 1.394 . S
C530 C531 1.369 . S
C530 C534 1.531 . S
C531 C530 1.369 . S
C531 C532 1.410 . S
C531 C539 1.503 . S
C532 C531 1.410 . S
C532 C533 1.392 . S
C532 C535 1.511 . S
C533 C529 1.376 . S
C533 C532 1.392 . S
C533 H545 0.929 . S
C534 C530 1.531 . S
C534 H546 0.960 . S
C534 H547 0.962 . S
C534 H548 0.960 . S
C535 C532 1.511 . S
C535 H549 0.961 . S
C535 H550 0.961 . S
C535 H551 0.961 . S
C536 C537 1.370 . S
C536 C538 1.363 . S
C536 H552 0.931 . S
C537 C536 1.370 . S
C537 C541 1.408 . S
C538 C536 1.363 . S
C538 C539 1.370 . S
C538 C542 1.524 . S
C539 C531 1.503 . S
C539 C538 1.370 . S
C539 C540 1.403 . S
C540 C539 1.403 . S
C540 C541 1.404 . S
C540 C543 1.539 . S
C541 C537 1.408 . S
C541 C540 1.404 . S
C541 H553 0.930 . S
C542 C538 1.524 . S
C542 H554 0.956 . S
C542 H555 0.961 . S
C542 H556 0.961 . S
C543 C540 1.539 . S
C543 H557 0.958 . S
C543 H558 0.961 . S
C543 H559 0.960 . S
H544 C528 0.931 . S
H545 C533 0.929 . S
H546 C534 0.960 . S
H547 C534 0.962 . S
H548 C534 0.960 . S
H549 C535 0.961 . S
H550 C535 0.961 . S
H551 C535 0.961 . S
H552 C536 0.931 . S
H553 C541 0.930 . S
H554 C542 0.956 . S
H555 C542 0.961 . S
H556 C542 0.961 . S
H557 C543 0.958 . S
H558 C543 0.961 . S
H559 C543 0.960 . S
C560 C561 1.391 . S
C560 C562 1.394 . S
C560 H576 0.931 . S
C561 C560 1.391 . S
C561 C565 1.376 . S
C562 C560 1.394 . S
C562 C563 1.369 . S
C562 C566 1.531 . S
C563 C562 1.369 . S
C563 C564 1.410 . S
C563 C571 1.503 . S
C564 C563 1.410 . S
C564 C565 1.392 . S
C564 C567 1.511 . S
C565 C561 1.376 . S
C565 C564 1.392 . S
C565 H577 0.929 . S
C566 C562 1.531 . S
C566 H578 0.960 . S
C566 H579 0.962 . S
C566 H580 0.960 . S
C567 C564 1.511 . S
C567 H581 0.961 . S
C567 H582 0.961 . S
C567 H583 0.961 . S
C568 C569 1.370 . S
C568 C570 1.363 . S
C568 H584 0.931 . S
C569 C568 1.370 . S
C569 C573 1.408 . S
C570 C568 1.363 . S
C570 C571 1.370 . S
C570 C574 1.524 . S
C571 C563 1.503 . S
C571 C570 1.370 . S
C571 C572 1.403 . S
C572 C571 1.403 . S
C572 C573 1.404 . S
C572 C575 1.539 . S
C573 C569 1.408 . S
C573 C572 1.404 . S
C573 H585 0.930 1_556 S
C574 C570 1.524 . S
C574 H586 0.956 . S
C574 H587 0.961 . S
C574 H588 0.961 . S
C575 C572 1.539 . S
C575 H589 0.958 . S
C575 H590 0.961 1_556 S
C575 H591 0.960 . S
H576 C560 0.931 . S
H577 C565 0.929 . S
H578 C566 0.960 . S
H579 C566 0.962 . S
H580 C566 0.960 . S
H581 C567 0.961 . S
H582 C567 0.961 . S
H583 C567 0.961 . S
H584 C568 0.931 . S
H585 C573 0.930 1_554 S
H586 C574 0.956 . S
H587 C574 0.961 . S
H588 C574 0.961 . S
H589 C575 0.958 . S
H590 C575 0.961 1_554 S
H591 C575 0.960 . S
C592 C593 1.391 . S
C592 C594 1.394 . S
C592 H608 0.931 . S
C593 C592 1.391 . S
C593 C597 1.376 . S
C594 C592 1.394 . S
C594 C595 1.369 . S
C594 C598 1.531 . S
C595 C594 1.369 . S
C595 C596 1.410 . S
C595 C603 1.503 . S
C596 C595 1.410 . S
C596 C597 1.392 . S
C596 C599 1.511 . S
C597 C593 1.376 . S
C597 C596 1.392 . S
C597 H609 0.929 . S
C598 C594 1.531 . S
C598 H610 0.960 . S
C598 H611 0.962 . S
C598 H612 0.960 . S
C599 C596 1.511 . S
C599 H613 0.961 . S
C599 H614 0.961 . S
C599 H615 0.961 . S
C600 C601 1.370 . S
C600 C602 1.363 . S
C600 H616 0.931 . S
C601 C600 1.370 . S
C601 C605 1.408 . S
C602 C600 1.363 . S
C602 C603 1.370 . S
C602 C606 1.524 . S
C603 C595 1.503 . S
C603 C602 1.370 . S
C603 C604 1.403 . S
C604 C603 1.403 . S
C604 C605 1.404 . S
C604 C607 1.539 1_545 S
C605 C601 1.408 . S
C605 C604 1.404 . S
C605 H617 0.930 1_545 S
C606 C602 1.524 . S
C606 H618 0.956 . S
C606 H619 0.961 . S
C606 H620 0.961 . S
C607 C604 1.539 1_565 S
C607 H621 0.958 . S
C607 H622 0.961 . S
C607 H623 0.960 1_565 S
H608 C592 0.931 . S
H609 C597 0.929 . S
H610 C598 0.960 . S
H611 C598 0.962 . S
H612 C598 0.960 . S
H613 C599 0.961 . S
H614 C599 0.961 . S
H615 C599 0.961 . S
H616 C600 0.931 . S
H617 C605 0.930 1_565 S
H618 C606 0.956 . S
H619 C606 0.961 . S
H620 C606 0.961 . S
H621 C607 0.958 . S
H622 C607 0.961 . S
H623 C607 0.960 1_545 S
C624 C625 1.391 . S
C624 C626 1.394 . S
C624 H640 0.931 . S
C625 C624 1.391 . S
C625 C629 1.376 . S
C626 C624 1.394 . S
C626 C627 1.369 . S
C626 C630 1.531 . S
C627 C626 1.369 . S
C627 C628 1.410 . S
C627 C635 1.503 . S
C628 C627 1.410 . S
C628 C629 1.392 . S
C628 C631 1.511 . S
C629 C625 1.376 . S
C629 C628 1.392 . S
C629 H641 0.929 . S
C630 C626 1.531 . S
C630 H642 0.960 . S
C630 H643 0.962 . S
C630 H644 0.960 . S
C631 C628 1.511 . S
C631 H645 0.961 . S
C631 H646 0.961 . S
C631 H647 0.961 . S
C632 C633 1.370 . S
C632 C634 1.363 . S
C632 H648 0.931 . S
C633 C632 1.370 . S
C633 C637 1.408 . S
C634 C632 1.363 . S
C634 C635 1.370 . S
C634 C638 1.524 . S
C635 C627 1.503 . S
C635 C634 1.370 . S
C635 C636 1.403 . S
C636 C635 1.403 . S
C636 C637 1.404 . S
C636 C639 1.539 . S
C637 C633 1.408 . S
C637 C636 1.404 . S
C637 H649 0.930 . S
C638 C634 1.524 . S
C638 H650 0.956 . S
C638 H651 0.961 . S
C638 H652 0.961 . S
C639 C636 1.539 . S
C639 H653 0.958 . S
C639 H654 0.961 . S
C639 H655 0.960 . S
H640 C624 0.931 . S
H641 C629 0.929 . S
H642 C630 0.960 . S
H643 C630 0.962 . S
H644 C630 0.960 . S
H645 C631 0.961 . S
H646 C631 0.961 . S
H647 C631 0.961 . S
H648 C632 0.931 . S
H649 C637 0.930 . S
H650 C638 0.956 . S
H651 C638 0.961 . S
H652 C638 0.961 . S
H653 C639 0.958 . S
H654 C639 0.961 . S
H655 C639 0.960 . S
C656 C657 1.391 . S
C656 C658 1.394 . S
C656 H672 0.931 . S
C657 C656 1.391 . S
C657 C661 1.376 . S
C658 C656 1.394 . S
C658 C659 1.369 . S
C658 C662 1.531 . S
C659 C658 1.369 . S
C659 C660 1.410 . S
C659 C667 1.503 . S
C660 C659 1.410 . S
C660 C661 1.392 . S
C660 C663 1.490 1_565 S
C661 C657 1.376 . S
C661 C660 1.392 . S
C661 H673 0.929 1_565 S
C662 C658 1.531 . S
C662 H674 0.960 . S
C662 H675 0.962 . S
C662 H676 0.960 . S
C663 C660 1.490 1_545 S
C663 H677 0.987 . S
C663 H678 0.938 1_545 S
C663 H679 0.980 . S
C664 C665 1.370 . S
C664 C666 1.363 . S
C664 H680 0.931 . S
C665 C664 1.370 . S
C665 C669 1.408 . S
C666 C664 1.363 . S
C666 C667 1.370 . S
C666 C670 1.524 . S
C667 C659 1.503 . S
C667 C666 1.370 . S
C667 C668 1.403 . S
C668 C667 1.403 . S
C668 C669 1.404 . S
C668 C671 1.539 . S
C669 C665 1.408 . S
C669 C668 1.404 . S
C669 H681 0.930 . S
C670 C666 1.524 . S
C670 H682 0.956 . S
C670 H683 0.961 . S
C670 H684 0.961 . S
C671 C668 1.539 . S
C671 H685 0.958 . S
C671 H686 0.961 . S
C671 H687 0.960 . S
H672 C656 0.931 . S
H673 C661 0.929 1_545 S
H674 C662 0.960 . S
H675 C662 0.962 . S
H676 C662 0.960 . S
H677 C663 0.987 . S
H678 C663 0.938 1_565 S
H679 C663 0.980 . S
H680 C664 0.931 . S
H681 C669 0.930 . S
H682 C670 0.956 . S
H683 C670 0.961 . S
H684 C670 0.961 . S
H685 C671 0.958 . S
H686 C671 0.961 . S
H687 C671 0.960 . S
C688 C689 1.391 . S
C688 C690 1.394 . S
C688 H704 0.931 . S
C689 C688 1.391 . S
C689 C693 1.376 . S
C690 C688 1.394 . S
C690 C691 1.369 . S
C690 C694 1.531 . S
C691 C690 1.369 . S
C691 C692 1.410 . S
C691 C699 1.503 . S
C692 C691 1.410 . S
C692 C693 1.392 . S
C692 C695 1.511 . S
C693 C689 1.376 . S
C693 C692 1.392 . S
C693 H705 0.929 . S
C694 C690 1.531 . S
C694 H706 0.960 . S
C694 H707 0.962 . S
C694 H708 0.960 . S
C695 C692 1.511 . S
C695 H709 0.961 . S
C695 H710 0.961 . S
C695 H711 0.961 . S
C696 C697 1.370 . S
C696 C698 1.363 . S
C696 H712 0.931 . S
C697 C696 1.370 . S
C697 C701 1.408 . S
C698 C696 1.363 . S
C698 C699 1.370 . S
C698 C702 1.524 . S
C699 C691 1.503 . S
C699 C698 1.370 . S
C699 C700 1.403 . S
C700 C699 1.403 . S
C700 C701 1.404 . S
C700 C703 1.521 1_565 S
C701 C697 1.408 . S
C701 C700 1.404 . S
C701 H713 0.930 1_565 S
C702 C698 1.524 . S
C702 H714 0.956 . S
C702 H715 0.961 . S
C702 H716 0.961 . S
C703 C700 1.521 1_545 S
C703 H717 0.975 . S
C703 H718 0.977 . S
C703 H719 0.947 1_545 S
H704 C688 0.931 . S
H705 C693 0.929 . S
H706 C694 0.960 . S
H707 C694 0.962 . S
H708 C694 0.960 . S
H709 C695 0.961 . S
H710 C695 0.961 . S
H711 C695 0.961 . S
H712 C696 0.931 . S
H713 C701 0.930 1_545 S
H714 C702 0.956 . S
H715 C702 0.961 . S
H716 C702 0.961 . S
H717 C703 0.975 . S
H718 C703 0.977 . S
H719 C703 0.947 1_565 S
C720 C721 1.391 . S
C720 C722 1.394 . S
C720 H736 0.931 1_554 S
C721 C720 1.391 . S
C721 C725 1.376 . S
C722 C720 1.394 . S
C722 C723 1.369 . S
C722 C726 1.531 . S
C723 C722 1.369 . S
C723 C724 1.410 . S
C723 C731 1.503 . S
C724 C723 1.410 . S
C724 C725 1.392 . S
C724 C727 1.511 . S
C725 C721 1.376 . S
C725 C724 1.392 . S
C725 H737 0.929 . S
C726 C722 1.531 . S
C726 H738 0.960 . S
C726 H739 0.962 . S
C726 H740 0.960 1_554 S
C727 C724 1.511 . S
C727 H741 0.961 . S
C727 H742 0.961 . S
C727 H743 0.961 . S
C728 C729 1.370 . S
C728 C730 1.363 . S
C728 H744 0.931 . S
C729 C728 1.370 . S
C729 C733 1.408 . S
C730 C728 1.363 . S
C730 C731 1.370 . S
C730 C734 1.524 . S
C731 C723 1.503 . S
C731 C730 1.370 . S
C731 C732 1.403 . S
C732 C731 1.403 . S
C732 C733 1.404 . S
C732 C735 1.539 . S
C733 C729 1.408 . S
C733 C732 1.404 . S
C733 H745 0.930 . S
C734 C730 1.524 . S
C734 H746 0.956 . S
C734 H747 0.961 . S
C734 H748 0.961 . S
C735 C732 1.539 . S
C735 H749 0.958 . S
C735 H750 0.961 . S
C735 H751 0.960 . S
H736 C720 0.931 1_556 S
H737 C725 0.929 . S
H738 C726 0.960 . S
H739 C726 0.962 . S
H740 C726 0.960 1_556 S
H741 C727 0.961 . S
H742 C727 0.961 . S
H743 C727 0.961 . S
H744 C728 0.931 . S
H745 C733 0.930 . S
H746 C734 0.956 . S
H747 C734 0.961 . S
H748 C734 0.961 . S
H749 C735 0.958 . S
H750 C735 0.961 . S
H751 C735 0.960 . S
C752 C753 1.391 . S
C752 C754 1.394 . S
C752 H768 0.931 . S
C753 C752 1.391 . S
C753 C757 1.376 . S
C754 C752 1.394 . S
C754 C755 1.369 . S
C754 C758 1.531 . S
C755 C754 1.369 . S
C755 C756 1.410 . S
C755 C763 1.503 . S
C756 C755 1.410 . S
C756 C757 1.392 . S
C756 C759 1.511 . S
C757 C753 1.376 . S
C757 C756 1.392 . S
C757 H769 0.929 1_655 S
C758 C754 1.531 . S
C758 H770 0.960 . S
C758 H771 0.962 . S
C758 H772 0.960 . S
C759 C756 1.511 . S
C759 H773 0.961 1_655 S
C759 H774 0.961 . S
C759 H775 0.961 1_655 S
C760 C761 1.370 . S
C760 C762 1.363 . S
C760 H776 0.931 . S
C761 C760 1.370 . S
C761 C765 1.408 . S
C762 C760 1.363 . S
C762 C763 1.370 . S
C762 C766 1.524 . S
C763 C755 1.503 . S
C763 C762 1.370 . S
C763 C764 1.403 . S
C764 C763 1.403 . S
C764 C765 1.404 . S
C764 C767 1.539 . S
C765 C761 1.408 . S
C765 C764 1.404 . S
C765 H777 0.930 . S
C766 C762 1.524 . S
C766 H778 0.956 . S
C766 H779 0.961 . S
C766 H780 0.961 . S
C767 C764 1.539 . S
C767 H781 0.958 . S
C767 H782 0.961 . S
C767 H783 0.960 . S
H768 C752 0.931 . S
H769 C757 0.929 1_455 S
H770 C758 0.960 . S
H771 C758 0.962 . S
H772 C758 0.960 . S
H773 C759 0.961 1_455 S
H774 C759 0.961 . S
H775 C759 0.961 1_455 S
H776 C760 0.931 . S
H777 C765 0.930 . S
H778 C766 0.956 . S
H779 C766 0.961 . S
H780 C766 0.961 . S
H781 C767 0.958 . S
H782 C767 0.961 . S
H783 C767 0.960 . S
C784 C785 1.391 . S
C784 C786 1.394 . S
C784 H800 0.931 . S
C785 C784 1.391 . S
C785 C789 1.376 . S
C786 C784 1.394 . S
C786 C787 1.369 . S
C786 C790 1.531 . S
C787 C786 1.369 . S
C787 C788 1.410 . S
C787 C795 1.503 . S
C788 C787 1.410 . S
C788 C789 1.392 . S
C788 C791 1.511 . S
C789 C785 1.376 . S
C789 C788 1.392 . S
C789 H801 0.929 . S
C790 C786 1.531 . S
C790 H802 0.960 . S
C790 H803 0.962 . S
C790 H804 0.960 . S
C791 C788 1.511 . S
C791 H805 0.961 . S
C791 H806 0.961 . S
C791 H807 0.961 . S
C792 C793 1.370 . S
C792 C794 1.363 . S
C792 H808 0.931 . S
C793 C792 1.370 . S
C793 C797 1.408 . S
C794 C792 1.363 . S
C794 C795 1.370 . S
C794 C798 1.524 . S
C795 C787 1.503 . S
C795 C794 1.370 . S
C795 C796 1.403 . S
C796 C795 1.403 . S
C796 C797 1.404 . S
C796 C799 1.539 . S
C797 C793 1.408 . S
C797 C796 1.404 . S
C797 H809 0.930 . S
C798 C794 1.524 . S
C798 H810 0.956 . S
C798 H811 0.961 . S
C798 H812 0.961 . S
C799 C796 1.539 . S
C799 H813 0.958 . S
C799 H814 0.961 . S
C799 H815 0.960 . S
H800 C784 0.931 . S
H801 C789 0.929 . S
H802 C790 0.960 . S
H803 C790 0.962 . S
H804 C790 0.960 . S
H805 C791 0.961 . S
H806 C791 0.961 . S
H807 C791 0.961 . S
H808 C792 0.931 . S
H809 C797 0.930 . S
H810 C798 0.956 . S
H811 C798 0.961 . S
H812 C798 0.961 . S
H813 C799 0.958 . S
H814 C799 0.961 . S
H815 C799 0.960 . S
C816 C817 1.388 . S
C816 C818 1.392 . S
C816 H832 0.935 1_655 S
C817 C816 1.388 . S
C817 C821 1.376 . S
C818 C816 1.392 . S
C818 C819 1.369 . S
C818 C822 1.531 1_655 S
C819 C818 1.369 . S
C819 C820 1.410 . S
C819 C827 1.503 . S
C820 C819 1.410 . S
C820 C821 1.392 . S
C820 C823 1.511 . S
C821 C817 1.376 . S
C821 C820 1.392 . S
C821 H833 0.929 . S
C822 C818 1.531 1_455 S
C822 H834 0.960 . S
C822 H835 0.962 . S
C822 H836 0.960 . S
C823 C820 1.511 . S
C823 H837 0.961 . S
C823 H838 0.961 . S
C823 H839 0.961 . S
C824 C825 1.370 . S
C824 C826 1.363 . S
C824 H840 0.931 . S
C825 C824 1.370 . S
C825 C829 1.408 . S
C826 C824 1.363 . S
C826 C827 1.370 . S
C826 C830 1.524 . S
C827 C819 1.503 . S
C827 C826 1.370 . S
C827 C828 1.403 . S
C828 C827 1.403 . S
C828 C829 1.404 . S
C828 C831 1.539 . S
C829 C825 1.408 . S
C829 C828 1.404 . S
C829 H841 0.930 . S
C830 C826 1.524 . S
C830 H842 0.956 . S
C830 H843 0.961 . S
C830 H844 0.961 . S
C831 C828 1.539 . S
C831 H845 0.958 . S
C831 H846 0.961 . S
C831 H847 0.960 . S
H832 C816 0.935 1_455 S
H833 C821 0.929 . S
H834 C822 0.960 . S
H835 C822 0.962 . S
H836 C822 0.960 . S
H837 C823 0.961 . S
H838 C823 0.961 . S
H839 C823 0.961 . S
H840 C824 0.931 . S
H841 C829 0.930 . S
H842 C830 0.956 . S
H843 C830 0.961 . S
H844 C830 0.961 . S
H845 C831 0.958 . S
H846 C831 0.961 . S
H847 C831 0.960 . S
C848 C849 1.391 . S
C848 C850 1.394 . S
C848 H864 0.931 . S
C849 C848 1.391 . S
C849 C853 1.376 . S
C850 C848 1.394 . S
C850 C851 1.369 . S
C850 C854 1.531 . S
C851 C850 1.369 . S
C851 C852 1.410 . S
C851 C859 1.503 . S
C852 C851 1.410 . S
C852 C853 1.392 . S
C852 C855 1.511 . S
C853 C849 1.376 . S
C853 C852 1.392 . S
C853 H865 0.929 . S
C854 C850 1.531 . S
C854 H866 0.960 . S
C854 H867 0.962 . S
C854 H868 0.960 . S
C855 C852 1.511 . S
C855 H869 0.961 . S
C855 H870 0.961 . S
C855 H871 0.961 . S
C856 C857 1.370 . S
C856 C858 1.363 . S
C856 H872 0.931 . S
C857 C856 1.370 . S
C857 C861 1.408 . S
C858 C856 1.363 . S
C858 C859 1.370 . S
C858 C862 1.524 . S
C859 C851 1.503 . S
C859 C858 1.370 . S
C859 C860 1.403 . S
C860 C859 1.403 . S
C860 C861 1.404 . S
C860 C863 1.539 . S
C861 C857 1.408 . S
C861 C860 1.404 . S
C861 H873 0.930 . S
C862 C858 1.524 . S
C862 H874 0.956 . S
C862 H875 0.961 . S
C862 H876 0.961 . S
C863 C860 1.539 . S
C863 H877 0.958 . S
C863 H878 0.961 . S
C863 H879 0.960 . S
H864 C848 0.931 . S
H865 C853 0.929 . S
H866 C854 0.960 . S
H867 C854 0.962 . S
H868 C854 0.960 . S
H869 C855 0.961 . S
H870 C855 0.961 . S
H871 C855 0.961 . S
H872 C856 0.931 . S
H873 C861 0.930 . S
H874 C862 0.956 . S
H875 C862 0.961 . S
H876 C862 0.961 . S
H877 C863 0.958 . S
H878 C863 0.961 . S
H879 C863 0.960 . S
C880 C881 1.391 . S
C880 C882 1.394 . S
C880 H896 0.931 . S
C881 C880 1.391 . S
C881 C885 1.376 . S
C882 C880 1.394 . S
C882 C883 1.369 . S
C882 C886 1.531 . S
C883 C882 1.369 . S
C883 C884 1.410 . S
C883 C891 1.503 . S
C884 C883 1.410 . S
C884 C885 1.392 . S
C884 C887 1.511 . S
C885 C881 1.376 . S
C885 C884 1.392 . S
C885 H897 0.929 . S
C886 C882 1.531 . S
C886 H898 0.960 . S
C886 H899 0.962 . S
C886 H900 0.960 . S
C887 C884 1.511 . S
C887 H901 0.961 . S
C887 H902 0.961 . S
C887 H903 0.961 . S
C888 C889 1.370 . S
C888 C890 1.363 . S
C888 H904 0.931 . S
C889 C888 1.370 . S
C889 C893 1.408 . S
C890 C888 1.363 . S
C890 C891 1.370 . S
C890 C894 1.524 . S
C891 C883 1.503 . S
C891 C890 1.370 . S
C891 C892 1.403 . S
C892 C891 1.403 . S
C892 C893 1.404 . S
C892 C895 1.539 . S
C893 C889 1.408 . S
C893 C892 1.404 . S
C893 H905 0.930 . S
C894 C890 1.524 . S
C894 H906 0.956 . S
C894 H907 0.961 . S
C894 H908 0.961 . S
C895 C892 1.539 . S
C895 H909 0.958 . S
C895 H910 0.961 . S
C895 H911 0.960 . S
H896 C880 0.931 . S
H897 C885 0.929 . S
H898 C886 0.960 . S
H899 C886 0.962 . S
H900 C886 0.960 . S
H901 C887 0.961 . S
H902 C887 0.961 . S
H903 C887 0.961 . S
H904 C888 0.931 . S
H905 C893 0.930 . S
H906 C894 0.956 . S
H907 C894 0.961 . S
H908 C894 0.961 . S
H909 C895 0.958 . S
H910 C895 0.961 . S
H911 C895 0.960 . S
C912 C913 1.391 . S
C912 C914 1.394 . S
C912 H928 0.931 1_556 S
C913 C912 1.391 . S
C913 C917 1.376 . S
C914 C912 1.394 . S
C914 C915 1.369 . S
C914 C918 1.531 1_556 S
C915 C914 1.369 . S
C915 C916 1.410 . S
C915 C923 1.503 . S
C916 C915 1.410 . S
C916 C917 1.392 . S
C916 C919 1.511 . S
C917 C913 1.376 . S
C917 C916 1.392 . S
C917 H929 0.929 . S
C918 C914 1.531 1_554 S
C918 H930 0.960 1_554 S
C918 H931 0.962 . S
C918 H932 0.960 . S
C919 C916 1.511 . S
C919 H933 0.961 . S
C919 H934 0.961 . S
C919 H935 0.961 . S
C920 C921 1.370 . S
C920 C922 1.363 . S
C920 H936 0.931 . S
C921 C920 1.370 . S
C921 C925 1.408 . S
C922 C920 1.363 . S
C922 C923 1.370 . S
C922 C926 1.524 . S
C923 C915 1.503 . S
C923 C922 1.370 . S
C923 C924 1.403 . S
C924 C923 1.403 . S
C924 C925 1.404 . S
C924 C927 1.539 . S
C925 C921 1.408 . S
C925 C924 1.404 . S
C925 H937 0.930 . S
C926 C922 1.524 . S
C926 H938 0.956 . S
C926 H939 0.961 . S
C926 H940 0.961 . S
C927 C924 1.539 . S
C927 H941 0.958 . S
C927 H942 0.961 . S
C927 H943 0.960 . S
H928 C912 0.931 1_554 S
H929 C917 0.929 . S
H930 C918 0.960 1_556 S
H931 C918 0.962 . S
H932 C918 0.960 . S
H933 C919 0.961 . S
H934 C919 0.961 . S
H935 C919 0.961 . S
H936 C920 0.931 . S
H937 C925 0.930 . S
H938 C926 0.956 . S
H939 C926 0.961 . S
H940 C926 0.961 . S
H941 C927 0.958 . S
H942 C927 0.961 . S
H943 C927 0.960 . S
C944 C945 1.391 . S
C944 C946 1.394 . S
C944 H960 0.931 . S
C945 C944 1.391 . S
C945 C949 1.376 . S
C946 C944 1.394 . S
C946 C947 1.369 . S
C946 C950 1.531 . S
C947 C946 1.369 . S
C947 C948 1.410 . S
C947 C955 1.503 . S
C948 C947 1.410 . S
C948 C949 1.392 . S
C948 C951 1.511 . S
C949 C945 1.376 . S
C949 C948 1.392 . S
C949 H961 0.929 . S
C950 C946 1.531 . S
C950 H962 0.960 . S
C950 H963 0.962 . S
C950 H964 0.960 . S
C951 C948 1.511 . S
C951 H965 0.961 . S
C951 H966 0.961 . S
C951 H967 0.961 . S
C952 C953 1.370 . S
C952 C954 1.363 . S
C952 H968 0.931 . S
C953 C952 1.370 . S
C953 C957 1.408 1_655 S
C954 C952 1.363 . S
C954 C955 1.370 . S
C954 C958 1.524 . S
C955 C947 1.503 . S
C955 C954 1.370 . S
C955 C956 1.403 . S
C956 C955 1.403 . S
C956 C957 1.404 1_655 S
C956 C959 1.539 1_655 S
C957 C953 1.408 1_455 S
C957 C956 1.404 1_455 S
C957 H969 0.930 . S
C958 C954 1.524 . S
C958 H970 0.956 . S
C958 H971 0.961 . S
C958 H972 0.961 . S
C959 C956 1.539 1_455 S
C959 H973 0.958 . S
C959 H974 0.961 . S
C959 H975 0.960 . S
H960 C944 0.931 . S
H961 C949 0.929 . S
H962 C950 0.960 . S
H963 C950 0.962 . S
H964 C950 0.960 . S
H965 C951 0.961 . S
H966 C951 0.961 . S
H967 C951 0.961 . S
H968 C952 0.931 . S
H969 C957 0.930 . S
H970 C958 0.956 . S
H971 C958 0.961 . S
H972 C958 0.961 . S
H973 C959 0.958 . S
H974 C959 0.961 . S
H975 C959 0.960 . S
C976 C977 1.391 . S
C976 C978 1.394 . S
C976 H992 0.931 . S
C977 C976 1.391 . S
C977 C981 1.376 . S
C978 C976 1.394 . S
C978 C979 1.369 . S
C978 C982 1.531 . S
C979 C978 1.369 . S
C979 C980 1.410 . S
C979 C987 1.503 . S
C980 C979 1.410 . S
C980 C981 1.392 . S
C980 C983 1.511 . S
C981 C977 1.376 . S
C981 C980 1.392 . S
C981 H993 0.929 . S
C982 C978 1.531 . S
C982 H994 0.960 . S
C982 H995 0.962 . S
C982 H996 0.960 . S
C983 C980 1.511 . S
C983 H997 0.961 . S
C983 H998 0.961 . S
C983 H999 0.961 . S
C984 C985 1.370 . S
C984 C986 1.363 . S
C984 H1000 0.931 . S
C985 C984 1.370 . S
C985 C989 1.408 . S
C986 C984 1.363 . S
C986 C987 1.370 . S
C986 C990 1.524 . S
C987 C979 1.503 . S
C987 C986 1.370 . S
C987 C988 1.403 . S
C988 C987 1.403 . S
C988 C989 1.404 . S
C988 C991 1.539 . S
C989 C985 1.408 . S
C989 C988 1.404 . S
C989 H1001 0.930 . S
C990 C986 1.524 . S
C990 H1002 0.956 . S
C990 H1003 0.961 . S
C990 H1004 0.961 . S
C991 C988 1.539 . S
C991 H1005 0.958 . S
C991 H1006 0.961 . S
C991 H1007 0.960 . S
H992 C976 0.931 . S
H993 C981 0.929 . S
H994 C982 0.960 . S
H995 C982 0.962 . S
H996 C982 0.960 . S
H997 C983 0.961 . S
H998 C983 0.961 . S
H999 C983 0.961 . S
H1000 C984 0.931 . S
H1001 C989 0.930 . S
H1002 C990 0.956 . S
H1003 C990 0.961 . S
H1004 C990 0.961 . S
H1005 C991 0.958 . S
H1006 C991 0.961 . S
H1007 C991 0.960 . S
C1008 C1009 1.391 . S
C1008 C1010 1.394 . S
C1008 H1024 0.931 . S
C1009 C1008 1.391 . S
C1009 C1013 1.376 . S
C1010 C1008 1.394 . S
C1010 C1011 1.369 . S
C1010 C1014 1.531 . S
C1011 C1010 1.369 . S
C1011 C1012 1.410 . S
C1011 C1019 1.503 . S
C1012 C1011 1.410 . S
C1012 C1013 1.392 . S
C1012 C1015 1.511 . S
C1013 C1009 1.376 . S
C1013 C1012 1.392 . S
C1013 H1025 0.929 . S
C1014 C1010 1.531 . S
C1014 H1026 0.960 . S
C1014 H1027 0.962 . S
C1014 H1028 0.960 . S
C1015 C1012 1.511 . S
C1015 H1029 0.961 . S
C1015 H1030 0.961 . S
C1015 H1031 0.961 . S
C1016 C1017 1.370 . S
C1016 C1018 1.363 . S
C1016 H1032 0.931 . S
C1017 C1016 1.370 . S
C1017 C1021 1.408 . S
C1018 C1016 1.363 . S
C1018 C1019 1.370 . S
C1018 C1022 1.524 . S
C1019 C1011 1.503 . S
C1019 C1018 1.370 . S
C1019 C1020 1.403 . S
C1020 C1019 1.403 . S
C1020 C1021 1.404 . S
C1020 C1023 1.539 . S
C1021 C1017 1.408 . S
C1021 C1020 1.404 . S
C1021 H1033 0.930 . S
C1022 C1018 1.524 . S
C1022 H1034 0.956 . S
C1022 H1035 0.961 . S
C1022 H1036 0.961 . S
C1023 C1020 1.539 . S
C1023 H1037 0.958 . S
C1023 H1038 0.961 . S
C1023 H1039 0.960 . S
H1024 C1008 0.931 . S
H1025 C1013 0.929 . S
H1026 C1014 0.960 . S
H1027 C1014 0.962 . S
H1028 C1014 0.960 . S
H1029 C1015 0.961 . S
H1030 C1015 0.961 . S
H1031 C1015 0.961 . S
H1032 C1016 0.931 . S
H1033 C1021 0.930 . S
H1034 C1022 0.956 . S
H1035 C1022 0.961 . S
H1036 C1022 0.961 . S
H1037 C1023 0.958 . S
H1038 C1023 0.961 . S
H1039 C1023 0.960 . S
C1040 C1041 1.391 . S
C1040 C1042 1.394 . S
C1040 H1056 0.931 . S
C1041 C1040 1.391 . S
C1041 C1045 1.376 . S
C1042 C1040 1.394 . S
C1042 C1043 1.369 . S
C1042 C1046 1.531 . S
C1043 C1042 1.369 . S
C1043 C1044 1.410 . S
C1043 C1051 1.503 . S
C1044 C1043 1.410 . S
C1044 C1045 1.392 . S
C1044 C1047 1.511 . S
C1045 C1041 1.376 . S
C1045 C1044 1.392 . S
C1045 H1057 0.929 . S
C1046 C1042 1.531 . S
C1046 H1058 0.960 . S
C1046 H1059 0.962 . S
C1046 H1060 0.960 . S
C1047 C1044 1.511 . S
C1047 H1061 0.961 . S
C1047 H1062 0.961 . S
C1047 H1063 0.961 . S
C1048 C1049 1.370 . S
C1048 C1050 1.363 . S
C1048 H1064 0.931 . S
C1049 C1048 1.370 . S
C1049 C1053 1.408 . S
C1050 C1048 1.363 . S
C1050 C1051 1.370 . S
C1050 C1054 1.524 . S
C1051 C1043 1.503 . S
C1051 C1050 1.370 . S
C1051 C1052 1.403 . S
C1052 C1051 1.403 . S
C1052 C1053 1.404 . S
C1052 C1055 1.539 . S
C1053 C1049 1.408 . S
C1053 C1052 1.404 . S
C1053 H1065 0.930 . S
C1054 C1050 1.524 . S
C1054 H1066 0.956 . S
C1054 H1067 0.961 . S
C1054 H1068 0.961 . S
C1055 C1052 1.539 . S
C1055 H1069 0.958 . S
C1055 H1070 0.961 . S
C1055 H1071 0.960 . S
H1056 C1040 0.931 . S
H1057 C1045 0.929 . S
H1058 C1046 0.960 . S
H1059 C1046 0.962 . S
H1060 C1046 0.960 . S
H1061 C1047 0.961 . S
H1062 C1047 0.961 . S
H1063 C1047 0.961 . S
H1064 C1048 0.931 . S
H1065 C1053 0.930 . S
H1066 C1054 0.956 . S
H1067 C1054 0.961 . S
H1068 C1054 0.961 . S
H1069 C1055 0.958 . S
H1070 C1055 0.961 . S
H1071 C1055 0.960 . S
C1072 C1073 1.391 . S
C1072 C1074 1.394 . S
C1072 H1088 0.931 . S
C1073 C1072 1.391 . S
C1073 C1077 1.376 . S
C1074 C1072 1.394 . S
C1074 C1075 1.369 . S
C1074 C1078 1.531 1_565 S
C1075 C1074 1.369 . S
C1075 C1076 1.410 . S
C1075 C1083 1.503 . S
C1076 C1075 1.410 . S
C1076 C1077 1.392 . S
C1076 C1079 1.511 . S
C1077 C1073 1.376 . S
C1077 C1076 1.392 . S
C1077 H1089 0.929 . S
C1078 C1074 1.531 1_545 S
C1078 H1090 0.960 . S
C1078 H1091 0.962 . S
C1078 H1092 0.960 . S
C1079 C1076 1.511 . S
C1079 H1093 0.961 . S
C1079 H1094 0.961 . S
C1079 H1095 0.961 . S
C1080 C1081 1.370 . S
C1080 C1082 1.363 . S
C1080 H1096 0.931 . S
C1081 C1080 1.370 . S
C1081 C1085 1.408 . S
C1082 C1080 1.363 . S
C1082 C1083 1.370 . S
C1082 C1086 1.524 . S
C1083 C1075 1.503 . S
C1083 C1082 1.370 . S
C1083 C1084 1.403 . S
C1084 C1083 1.403 . S
C1084 C1085 1.404 . S
C1084 C1087 1.539 . S
C1085 C1081 1.408 . S
C1085 C1084 1.404 . S
C1085 H1097 0.930 . S
C1086 C1082 1.524 . S
C1086 H1098 0.956 . S
C1086 H1099 0.961 . S
C1086 H1100 0.961 . S
C1087 C1084 1.539 . S
C1087 H1101 0.958 . S
C1087 H1102 0.961 . S
C1087 H1103 0.960 . S
H1088 C1072 0.931 . S
H1089 C1077 0.929 . S
H1090 C1078 0.960 . S
H1091 C1078 0.962 . S
H1092 C1078 0.960 . S
H1093 C1079 0.961 . S
H1094 C1079 0.961 . S
H1095 C1079 0.961 . S
H1096 C1080 0.931 . S
H1097 C1085 0.930 . S
H1098 C1086 0.956 . S
H1099 C1086 0.961 . S
H1100 C1086 0.961 . S
H1101 C1087 0.958 . S
H1102 C1087 0.961 . S
H1103 C1087 0.960 . S
C1104 C1105 1.391 . S
C1104 C1106 1.394 . S
C1104 H1120 0.931 1_565 S
C1105 C1104 1.391 . S
C1105 C1109 1.376 . S
C1106 C1104 1.394 . S
C1106 C1107 1.369 . S
C1106 C1110 1.531 . S
C1107 C1106 1.369 . S
C1107 C1108 1.410 . S
C1107 C1115 1.503 . S
C1108 C1107 1.410 . S
C1108 C1109 1.392 . S
C1108 C1111 1.511 . S
C1109 C1105 1.376 . S
C1109 C1108 1.392 . S
C1109 H1121 0.929 . S
C1110 C1106 1.531 . S
C1110 H1122 0.960 . S
C1110 H1123 0.962 . S
C1110 H1124 0.960 1_565 S
C1111 C1108 1.511 . S
C1111 H1125 0.961 . S
C1111 H1126 0.961 . S
C1111 H1127 0.961 . S
C1112 C1113 1.370 . S
C1112 C1114 1.363 . S
C1112 H1128 0.931 . S
C1113 C1112 1.370 . S
C1113 C1117 1.408 . S
C1114 C1112 1.363 . S
C1114 C1115 1.370 . S
C1114 C1118 1.524 . S
C1115 C1107 1.503 . S
C1115 C1114 1.370 . S
C1115 C1116 1.403 . S
C1116 C1115 1.403 . S
C1116 C1117 1.404 . S
C1116 C1119 1.539 1_565 S
C1117 C1113 1.408 . S
C1117 C1116 1.404 . S
C1117 H1129 0.930 . S
C1118 C1114 1.524 . S
C1118 H1130 0.956 . S
C1118 H1131 0.961 . S
C1118 H1132 0.961 . S
C1119 C1116 1.539 1_545 S
C1119 H1133 0.958 . S
C1119 H1134 0.961 . S
C1119 H1135 0.960 . S
H1120 C1104 0.931 1_545 S
H1121 C1109 0.929 . S
H1122 C1110 0.960 . S
H1123 C1110 0.962 . S
H1124 C1110 0.960 1_545 S
H1125 C1111 0.961 . S
H1126 C1111 0.961 . S
H1127 C1111 0.961 . S
H1128 C1112 0.931 . S
H1129 C1117 0.930 . S
H1130 C1118 0.956 . S
H1131 C1118 0.961 . S
H1132 C1118 0.961 . S
H1133 C1119 0.958 . S
H1134 C1119 0.961 . S
H1135 C1119 0.960 . S
C1136 C1137 1.391 . S
C1136 C1138 1.394 . S
C1136 H1152 0.931 . S
C1137 C1136 1.391 . S
C1137 C1141 1.376 . S
C1138 C1136 1.394 . S
C1138 C1139 1.369 . S
C1138 C1142 1.531 . S
C1139 C1138 1.369 . S
C1139 C1140 1.410 . S
C1139 C1147 1.503 . S
C1140 C1139 1.410 . S
C1140 C1141 1.392 . S
C1140 C1143 1.511 . S
C1141 C1137 1.376 . S
C1141 C1140 1.392 . S
C1141 H1153 0.929 . S
C1142 C1138 1.531 . S
C1142 H1154 0.960 . S
C1142 H1155 0.962 . S
C1142 H1156 0.960 . S
C1143 C1140 1.511 . S
C1143 H1157 0.961 . S
C1143 H1158 0.961 . S
C1143 H1159 0.961 . S
C1144 C1145 1.370 . S
C1144 C1146 1.363 . S
C1144 H1160 0.931 . S
C1145 C1144 1.370 . S
C1145 C1149 1.408 . S
C1146 C1144 1.363 . S
C1146 C1147 1.370 . S
C1146 C1150 1.524 . S
C1147 C1139 1.503 . S
C1147 C1146 1.370 . S
C1147 C1148 1.403 . S
C1148 C1147 1.403 . S
C1148 C1149 1.404 . S
C1148 C1151 1.539 . S
C1149 C1145 1.408 . S
C1149 C1148 1.404 . S
C1149 H1161 0.930 . S
C1150 C1146 1.524 . S
C1150 H1162 0.956 . S
C1150 H1163 0.961 . S
C1150 H1164 0.961 . S
C1151 C1148 1.539 . S
C1151 H1165 0.958 . S
C1151 H1166 0.961 . S
C1151 H1167 0.960 . S
H1152 C1136 0.931 . S
H1153 C1141 0.929 . S
H1154 C1142 0.960 . S
H1155 C1142 0.962 . S
H1156 C1142 0.960 . S
H1157 C1143 0.961 . S
H1158 C1143 0.961 . S
H1159 C1143 0.961 . S
H1160 C1144 0.931 . S
H1161 C1149 0.930 . S
H1162 C1150 0.956 . S
H1163 C1150 0.961 . S
H1164 C1150 0.961 . S
H1165 C1151 0.958 . S
H1166 C1151 0.961 . S
H1167 C1151 0.960 . S
C1168 C1169 1.391 . S
C1168 C1170 1.394 . S
C1168 H1184 0.931 . S
C1169 C1168 1.391 . S
C1169 C1173 1.376 . S
C1170 C1168 1.394 . S
C1170 C1171 1.369 . S
C1170 C1174 1.531 . S
C1171 C1170 1.369 . S
C1171 C1172 1.410 . S
C1171 C1179 1.503 . S
C1172 C1171 1.410 . S
C1172 C1173 1.392 . S
C1172 C1175 1.511 . S
C1173 C1169 1.376 . S
C1173 C1172 1.392 . S
C1173 H1185 0.929 . S
C1174 C1170 1.531 . S
C1174 H1186 0.960 . S
C1174 H1187 0.962 . S
C1174 H1188 0.960 . S
C1175 C1172 1.511 . S
C1175 H1189 0.961 . S
C1175 H1190 0.961 . S
C1175 H1191 0.961 . S
C1176 C1177 1.370 . S
C1176 C1178 1.363 . S
C1176 H1192 0.931 . S
C1177 C1176 1.370 . S
C1177 C1181 1.408 . S
C1178 C1176 1.363 . S
C1178 C1179 1.370 . S
C1178 C1182 1.524 . S
C1179 C1171 1.503 . S
C1179 C1178 1.370 . S
C1179 C1180 1.403 . S
C1180 C1179 1.403 . S
C1180 C1181 1.404 . S
C1180 C1183 1.539 . S
C1181 C1177 1.408 . S
C1181 C1180 1.404 . S
C1181 H1193 0.930 . S
C1182 C1178 1.524 . S
C1182 H1194 0.956 . S
C1182 H1195 0.961 . S
C1182 H1196 0.961 . S
C1183 C1180 1.539 . S
C1183 H1197 0.958 . S
C1183 H1198 0.961 . S
C1183 H1199 0.960 . S
H1184 C1168 0.931 . S
H1185 C1173 0.929 . S
H1186 C1174 0.960 . S
H1187 C1174 0.962 . S
H1188 C1174 0.960 . S
H1189 C1175 0.961 . S
H1190 C1175 0.961 . S
H1191 C1175 0.961 . S
H1192 C1176 0.931 . S
H1193 C1181 0.930 . S
H1194 C1182 0.956 . S
H1195 C1182 0.961 . S
H1196 C1182 0.961 . S
H1197 C1183 0.958 . S
H1198 C1183 0.961 . S
H1199 C1183 0.960 . S
C1200 C1201 1.391 . S
C1200 C1202 1.394 . S
C1200 H1216 0.931 . S
C1201 C1200 1.391 . S
C1201 C1205 1.376 . S
C1202 C1200 1.394 . S
C1202 C1203 1.369 . S
C1202 C1206 1.531 . S
C1203 C1202 1.369 . S
C1203 C1204 1.410 . S
C1203 C1211 1.503 . S
C1204 C1203 1.410 . S
C1204 C1205 1.392 . S
C1204 C1207 1.511 . S
C1205 C1201 1.376 . S
C1205 C1204 1.392 . S
C1205 H1217 0.929 . S
C1206 C1202 1.531 . S
C1206 H1218 0.960 . S
C1206 H1219 0.962 . S
C1206 H1220 0.960 . S
C1207 C1204 1.511 . S
C1207 H1221 0.961 . S
C1207 H1222 0.961 . S
C1207 H1223 0.961 . S
C1208 C1209 1.370 . S
C1208 C1210 1.363 . S
C1208 H1224 0.931 1_556 S
C1209 C1208 1.370 . S
C1209 C1213 1.408 . S
C1210 C1208 1.363 . S
C1210 C1211 1.370 . S
C1210 C1214 1.524 1_556 S
C1211 C1203 1.503 . S
C1211 C1210 1.370 . S
C1211 C1212 1.403 . S
C1212 C1211 1.403 . S
C1212 C1213 1.404 . S
C1212 C1215 1.539 . S
C1213 C1209 1.408 . S
C1213 C1212 1.404 . S
C1213 H1225 0.930 . S
C1214 C1210 1.524 1_554 S
C1214 H1226 0.956 . S
C1214 H1227 0.961 1_554 S
C1214 H1228 0.961 . S
C1215 C1212 1.539 . S
C1215 H1229 0.958 . S
C1215 H1230 0.961 . S
C1215 H1231 0.960 . S
H1216 C1200 0.931 . S
H1217 C1205 0.929 . S
H1218 C1206 0.960 . S
H1219 C1206 0.962 . S
H1220 C1206 0.960 . S
H1221 C1207 0.961 . S
H1222 C1207 0.961 . S
H1223 C1207 0.961 . S
H1224 C1208 0.931 1_554 S
H1225 C1213 0.930 . S
H1226 C1214 0.956 . S
H1227 C1214 0.961 1_556 S
H1228 C1214 0.961 . S
H1229 C1215 0.958 . S
H1230 C1215 0.961 . S
H1231 C1215 0.960 . S
C1232 C1233 1.391 . S
C1232 C1234 1.394 . S
C1232 H1248 0.931 . S
C1233 C1232 1.391 . S
C1233 C1237 1.376 . S
C1234 C1232 1.394 . S
C1234 C1235 1.369 . S
C1234 C1238 1.531 . S
C1235 C1234 1.369 . S
C1235 C1236 1.410 . S
C1235 C1243 1.503 . S
C1236 C1235 1.410 . S
C1236 C1237 1.392 . S
C1236 C1239 1.511 . S
C1237 C1233 1.376 . S
C1237 C1236 1.392 . S
C1237 H1249 0.929 . S
C1238 C1234 1.531 . S
C1238 H1250 0.960 . S
C1238 H1251 0.962 . S
C1238 H1252 0.960 . S
C1239 C1236 1.511 . S
C1239 H1253 0.961 . S
C1239 H1254 0.961 . S
C1239 H1255 0.961 . S
C1240 C1241 1.370 . S
C1240 C1242 1.363 . S
C1240 H1256 0.931 . S
C1241 C1240 1.370 . S
C1241 C1245 1.408 . S
C1242 C1240 1.363 . S
C1242 C1243 1.370 . S
C1242 C1246 1.524 . S
C1243 C1235 1.503 . S
C1243 C1242 1.370 . S
C1243 C1244 1.403 . S
C1244 C1243 1.403 . S
C1244 C1245 1.404 . S
C1244 C1247 1.539 . S
C1245 C1241 1.408 . S
C1245 C1244 1.404 . S
C1245 H1257 0.930 . S
C1246 C1242 1.524 . S
C1246 H1258 0.956 . S
C1246 H1259 0.961 . S
C1246 H1260 0.961 . S
C1247 C1244 1.539 . S
C1247 H1261 0.958 . S
C1247 H1262 0.961 . S
C1247 H1263 0.960 . S
H1248 C1232 0.931 . S
H1249 C1237 0.929 . S
H1250 C1238 0.960 . S
H1251 C1238 0.962 . S
H1252 C1238 0.960 . S
H1253 C1239 0.961 . S
H1254 C1239 0.961 . S
H1255 C1239 0.961 . S
H1256 C1240 0.931 . S
H1257 C1245 0.930 . S
H1258 C1246 0.956 . S
H1259 C1246 0.961 . S
H1260 C1246 0.961 . S
H1261 C1247 0.958 . S
H1262 C1247 0.961 . S
H1263 C1247 0.960 . S
C1264 C1265 1.391 . S
C1264 C1266 1.394 . S
C1264 H1280 0.931 . S
C1265 C1264 1.391 . S
C1265 C1269 1.376 . S
C1266 C1264 1.394 . S
C1266 C1267 1.369 . S
C1266 C1270 1.531 . S
C1267 C1266 1.369 . S
C1267 C1268 1.410 . S
C1267 C1275 1.503 . S
C1268 C1267 1.410 . S
C1268 C1269 1.392 . S
C1268 C1271 1.511 . S
C1269 C1265 1.376 . S
C1269 C1268 1.392 . S
C1269 H1281 0.929 . S
C1270 C1266 1.531 . S
C1270 H1282 0.960 . S
C1270 H1283 0.962 . S
C1270 H1284 0.960 . S
C1271 C1268 1.511 . S
C1271 H1285 0.961 . S
C1271 H1286 0.961 . S
C1271 H1287 0.961 . S
C1272 C1273 1.370 . S
C1272 C1274 1.363 . S
C1272 H1288 0.931 . S
C1273 C1272 1.370 . S
C1273 C1277 1.408 . S
C1274 C1272 1.363 . S
C1274 C1275 1.370 . S
C1274 C1278 1.524 . S
C1275 C1267 1.503 . S
C1275 C1274 1.370 . S
C1275 C1276 1.403 . S
C1276 C1275 1.403 . S
C1276 C1277 1.404 . S
C1276 C1279 1.539 . S
C1277 C1273 1.408 . S
C1277 C1276 1.404 . S
C1277 H1289 0.930 . S
C1278 C1274 1.524 . S
C1278 H1290 0.956 . S
C1278 H1291 0.961 . S
C1278 H1292 0.961 . S
C1279 C1276 1.539 . S
C1279 H1293 0.958 . S
C1279 H1294 0.961 . S
C1279 H1295 0.960 . S
H1280 C1264 0.931 . S
H1281 C1269 0.929 . S
H1282 C1270 0.960 . S
H1283 C1270 0.962 . S
H1284 C1270 0.960 . S
H1285 C1271 0.961 . S
H1286 C1271 0.961 . S
H1287 C1271 0.961 . S
H1288 C1272 0.931 . S
H1289 C1277 0.930 . S
H1290 C1278 0.956 . S
H1291 C1278 0.961 . S
H1292 C1278 0.961 . S
H1293 C1279 0.958 . S
H1294 C1279 0.961 . S
H1295 C1279 0.960 . S
C1296 C1297 1.391 . S
C1296 C1298 1.394 . S
C1296 H1312 0.931 . S
C1297 C1296 1.391 . S
C1297 C1301 1.376 . S
C1298 C1296 1.394 . S
C1298 C1299 1.369 . S
C1298 C1302 1.531 . S
C1299 C1298 1.369 . S
C1299 C1300 1.410 . S
C1299 C1307 1.503 . S
C1300 C1299 1.410 . S
C1300 C1301 1.392 . S
C1300 C1303 1.511 . S
C1301 C1297 1.376 . S
C1301 C1300 1.392 . S
C1301 H1313 0.929 . S
C1302 C1298 1.531 . S
C1302 H1314 0.960 . S
C1302 H1315 0.962 . S
C1302 H1316 0.960 . S
C1303 C1300 1.511 . S
C1303 H1317 0.961 . S
C1303 H1318 0.961 . S
C1303 H1319 0.961 . S
C1304 C1305 1.370 . S
C1304 C1306 1.363 . S
C1304 H1320 0.931 . S
C1305 C1304 1.370 . S
C1305 C1309 1.408 . S
C1306 C1304 1.363 . S
C1306 C1307 1.370 . S
C1306 C1310 1.524 . S
C1307 C1299 1.503 . S
C1307 C1306 1.370 . S
C1307 C1308 1.403 . S
C1308 C1307 1.403 . S
C1308 C1309 1.404 . S
C1308 C1311 1.539 . S
C1309 C1305 1.408 . S
C1309 C1308 1.404 . S
C1309 H1321 0.930 . S
C1310 C1306 1.524 . S
C1310 H1322 0.956 . S
C1310 H1323 0.961 . S
C1310 H1324 0.961 . S
C1311 C1308 1.539 . S
C1311 H1325 0.958 . S
C1311 H1326 0.961 . S
C1311 H1327 0.960 . S
H1312 C1296 0.931 . S
H1313 C1301 0.929 . S
H1314 C1302 0.960 . S
H1315 C1302 0.962 . S
H1316 C1302 0.960 . S
H1317 C1303 0.961 . S
H1318 C1303 0.961 . S
H1319 C1303 0.961 . S
H1320 C1304 0.931 . S
H1321 C1309 0.930 . S
H1322 C1310 0.956 . S
H1323 C1310 0.961 . S
H1324 C1310 0.961 . S
H1325 C1311 0.958 . S
H1326 C1311 0.961 . S
H1327 C1311 0.960 . S
C1328 C1329 1.391 . S
C1328 C1330 1.394 . S
C1328 H1344 0.931 . S
C1329 C1328 1.391 . S
C1329 C1333 1.376 . S
C1330 C1328 1.394 . S
C1330 C1331 1.369 . S
C1330 C1334 1.531 . S
C1331 C1330 1.369 . S
C1331 C1332 1.410 . S
C1331 C1339 1.503 . S
C1332 C1331 1.410 . S
C1332 C1333 1.392 . S
C1332 C1335 1.511 . S
C1333 C1329 1.376 . S
C1333 C1332 1.392 . S
C1333 H1345 0.929 1_655 S
C1334 C1330 1.531 . S
C1334 H1346 0.960 . S
C1334 H1347 0.962 . S
C1334 H1348 0.960 . S
C1335 C1332 1.511 . S
C1335 H1349 0.961 . S
C1335 H1350 0.961 . S
C1335 H1351 0.961 1_655 S
C1336 C1337 1.370 . S
C1336 C1338 1.363 . S
C1336 H1352 0.931 . S
C1337 C1336 1.370 . S
C1337 C1341 1.408 . S
C1338 C1336 1.363 . S
C1338 C1339 1.370 . S
C1338 C1342 1.524 . S
C1339 C1331 1.503 . S
C1339 C1338 1.370 . S
C1339 C1340 1.403 . S
C1340 C1339 1.403 . S
C1340 C1341 1.404 . S
C1340 C1343 1.539 . S
C1341 C1337 1.408 . S
C1341 C1340 1.404 . S
C1341 H1353 0.930 . S
C1342 C1338 1.524 . S
C1342 H1354 0.956 . S
C1342 H1355 0.961 . S
C1342 H1356 0.961 . S
C1343 C1340 1.539 . S
C1343 H1357 0.958 . S
C1343 H1358 0.961 . S
C1343 H1359 0.960 . S
H1344 C1328 0.931 . S
H1345 C1333 0.929 1_455 S
H1346 C1334 0.960 . S
H1347 C1334 0.962 . S
H1348 C1334 0.960 . S
H1349 C1335 0.961 . S
H1350 C1335 0.961 . S
H1351 C1335 0.961 1_455 S
H1352 C1336 0.931 . S
H1353 C1341 0.930 . S
H1354 C1342 0.956 . S
H1355 C1342 0.961 . S
H1356 C1342 0.961 . S
H1357 C1343 0.958 . S
H1358 C1343 0.961 . S
H1359 C1343 0.960 . S
C1360 C1361 1.391 . S
C1360 C1362 1.394 . S
C1360 H1376 0.931 . S
C1361 C1360 1.391 . S
C1361 C1365 1.376 . S
C1362 C1360 1.394 . S
C1362 C1363 1.369 . S
C1362 C1366 1.531 . S
C1363 C1362 1.369 . S
C1363 C1364 1.410 . S
C1363 C1371 1.503 . S
C1364 C1363 1.410 . S
C1364 C1365 1.392 . S
C1364 C1367 1.511 . S
C1365 C1361 1.376 . S
C1365 C1364 1.392 . S
C1365 H1377 0.929 . S
C1366 C1362 1.531 . S
C1366 H1378 0.960 . S
C1366 H1379 0.962 . S
C1366 H1380 0.960 . S
C1367 C1364 1.511 . S
C1367 H1381 0.961 . S
C1367 H1382 0.961 . S
C1367 H1383 0.961 . S
C1368 C1369 1.370 . S
C1368 C1370 1.363 . S
C1368 H1384 0.931 . S
C1369 C1368 1.370 . S
C1369 C1373 1.408 . S
C1370 C1368 1.363 . S
C1370 C1371 1.370 . S
C1370 C1374 1.524 . S
C1371 C1363 1.503 . S
C1371 C1370 1.370 . S
C1371 C1372 1.403 . S
C1372 C1371 1.403 . S
C1372 C1373 1.404 . S
C1372 C1375 1.539 . S
C1373 C1369 1.408 . S
C1373 C1372 1.404 . S
C1373 H1385 0.930 . S
C1374 C1370 1.524 . S
C1374 H1386 0.956 . S
C1374 H1387 0.961 . S
C1374 H1388 0.961 . S
C1375 C1372 1.539 . S
C1375 H1389 0.958 . S
C1375 H1390 0.961 . S
C1375 H1391 0.960 . S
H1376 C1360 0.931 . S
H1377 C1365 0.929 . S
H1378 C1366 0.960 . S
H1379 C1366 0.962 . S
H1380 C1366 0.960 . S
H1381 C1367 0.961 . S
H1382 C1367 0.961 . S
H1383 C1367 0.961 . S
H1384 C1368 0.931 . S
H1385 C1373 0.930 . S
H1386 C1374 0.956 . S
H1387 C1374 0.961 . S
H1388 C1374 0.961 . S
H1389 C1375 0.958 . S
H1390 C1375 0.961 . S
H1391 C1375 0.960 . S
C1392 C1393 1.391 . S
C1392 C1394 1.394 . S
C1392 H1408 0.931 . S
C1393 C1392 1.391 . S
C1393 C1397 1.376 . S
C1394 C1392 1.394 . S
C1394 C1395 1.369 . S
C1394 C1398 1.531 . S
C1395 C1394 1.369 . S
C1395 C1396 1.410 . S
C1395 C1403 1.503 . S
C1396 C1395 1.410 . S
C1396 C1397 1.392 . S
C1396 C1399 1.511 . S
C1397 C1393 1.376 . S
C1397 C1396 1.392 . S
C1397 H1409 0.929 . S
C1398 C1394 1.531 . S
C1398 H1410 0.960 . S
C1398 H1411 0.962 . S
C1398 H1412 0.960 . S
C1399 C1396 1.511 . S
C1399 H1413 0.961 . S
C1399 H1414 0.961 . S
C1399 H1415 0.961 . S
C1400 C1401 1.370 . S
C1400 C1402 1.363 . S
C1400 H1416 0.931 . S
C1401 C1400 1.370 . S
C1401 C1405 1.408 . S
C1402 C1400 1.363 . S
C1402 C1403 1.370 . S
C1402 C1406 1.524 . S
C1403 C1395 1.503 . S
C1403 C1402 1.370 . S
C1403 C1404 1.403 . S
C1404 C1403 1.403 . S
C1404 C1405 1.404 . S
C1404 C1407 1.539 . S
C1405 C1401 1.408 . S
C1405 C1404 1.404 . S
C1405 H1417 0.930 . S
C1406 C1402 1.524 . S
C1406 H1418 0.956 . S
C1406 H1419 0.961 . S
C1406 H1420 0.961 . S
C1407 C1404 1.539 . S
C1407 H1421 0.958 . S
C1407 H1422 0.961 . S
C1407 H1423 0.960 . S
H1408 C1392 0.931 . S
H1409 C1397 0.929 . S
H1410 C1398 0.960 . S
H1411 C1398 0.962 . S
H1412 C1398 0.960 . S
H1413 C1399 0.961 . S
H1414 C1399 0.961 . S
H1415 C1399 0.961 . S
H1416 C1400 0.931 . S
H1417 C1405 0.930 . S
H1418 C1406 0.956 . S
H1419 C1406 0.961 . S
H1420 C1406 0.961 . S
H1421 C1407 0.958 . S
H1422 C1407 0.961 . S
H1423 C1407 0.960 . S
C1424 C1425 1.391 . S
C1424 C1426 1.394 . S
C1424 H1440 0.931 . S
C1425 C1424 1.391 . S
C1425 C1429 1.376 . S
C1426 C1424 1.394 . S
C1426 C1427 1.369 . S
C1426 C1430 1.531 . S
C1427 C1426 1.369 . S
C1427 C1428 1.410 . S
C1427 C1435 1.503 . S
C1428 C1427 1.410 . S
C1428 C1429 1.392 . S
C1428 C1431 1.511 . S
C1429 C1425 1.376 . S
C1429 C1428 1.392 . S
C1429 H1441 0.929 . S
C1430 C1426 1.531 . S
C1430 H1442 0.960 . S
C1430 H1443 0.962 . S
C1430 H1444 0.960 . S
C1431 C1428 1.511 . S
C1431 H1445 0.961 . S
C1431 H1446 0.961 . S
C1431 H1447 0.961 . S
C1432 C1433 1.370 . S
C1432 C1434 1.363 . S
C1432 H1448 0.931 . S
C1433 C1432 1.370 . S
C1433 C1437 1.408 . S
C1434 C1432 1.363 . S
C1434 C1435 1.370 . S
C1434 C1438 1.524 . S
C1435 C1427 1.503 . S
C1435 C1434 1.370 . S
C1435 C1436 1.403 . S
C1436 C1435 1.403 . S
C1436 C1437 1.404 . S
C1436 C1439 1.539 . S
C1437 C1433 1.408 . S
C1437 C1436 1.404 . S
C1437 H1449 0.930 . S
C1438 C1434 1.524 . S
C1438 H1450 0.956 . S
C1438 H1451 0.961 . S
C1438 H1452 0.961 . S
C1439 C1436 1.539 . S
C1439 H1453 0.958 . S
C1439 H1454 0.961 . S
C1439 H1455 0.960 . S
H1440 C1424 0.931 . S
H1441 C1429 0.929 . S
H1442 C1430 0.960 . S
H1443 C1430 0.962 . S
H1444 C1430 0.960 . S
H1445 C1431 0.961 . S
H1446 C1431 0.961 . S
H1447 C1431 0.961 . S
H1448 C1432 0.931 . S
H1449 C1437 0.930 . S
H1450 C1438 0.956 . S
H1451 C1438 0.961 . S
H1452 C1438 0.961 . S
H1453 C1439 0.958 . S
H1454 C1439 0.961 . S
H1455 C1439 0.960 . S
C1456 C1457 1.391 . S
C1456 C1458 1.394 . S
C1456 H1472 0.931 . S
C1457 C1456 1.391 . S
C1457 C1461 1.376 . S
C1458 C1456 1.394 . S
C1458 C1459 1.369 . S
C1458 C1462 1.531 . S
C1459 C1458 1.369 . S
C1459 C1460 1.410 . S
C1459 C1467 1.503 . S
C1460 C1459 1.410 . S
C1460 C1461 1.392 . S
C1460 C1463 1.511 . S
C1461 C1457 1.376 . S
C1461 C1460 1.392 . S
C1461 H1473 0.929 . S
C1462 C1458 1.531 . S
C1462 H1474 0.960 . S
C1462 H1475 0.962 . S
C1462 H1476 0.960 . S
C1463 C1460 1.511 . S
C1463 H1477 0.961 . S
C1463 H1478 0.961 . S
C1463 H1479 0.961 . S
C1464 C1465 1.370 . S
C1464 C1466 1.363 . S
C1464 H1480 0.931 . S
C1465 C1464 1.370 . S
C1465 C1469 1.408 . S
C1466 C1464 1.363 . S
C1466 C1467 1.370 . S
C1466 C1470 1.524 . S
C1467 C1459 1.503 . S
C1467 C1466 1.370 . S
C1467 C1468 1.403 . S
C1468 C1467 1.403 . S
C1468 C1469 1.404 . S
C1468 C1471 1.539 . S
C1469 C1465 1.408 . S
C1469 C1468 1.404 . S
C1469 H1481 0.930 . S
C1470 C1466 1.524 . S
C1470 H1482 0.956 . S
C1470 H1483 0.961 . S
C1470 H1484 0.961 . S
C1471 C1468 1.539 . S
C1471 H1485 0.958 . S
C1471 H1486 0.961 . S
C1471 H1487 0.960 . S
H1472 C1456 0.931 . S
H1473 C1461 0.929 . S
H1474 C1462 0.960 . S
H1475 C1462 0.962 . S
H1476 C1462 0.960 . S
H1477 C1463 0.961 . S
H1478 C1463 0.961 . S
H1479 C1463 0.961 . S
H1480 C1464 0.931 . S
H1481 C1469 0.930 . S
H1482 C1470 0.956 . S
H1483 C1470 0.961 . S
H1484 C1470 0.961 . S
H1485 C1471 0.958 . S
H1486 C1471 0.961 . S
H1487 C1471 0.960 . S
C1488 C1489 1.391 . S
C1488 C1490 1.394 . S
C1488 H1504 0.931 . S
C1489 C1488 1.391 . S
C1489 C1493 1.376 . S
C1490 C1488 1.394 . S
C1490 C1491 1.369 . S
C1490 C1494 1.531 . S
C1491 C1490 1.369 . S
C1491 C1492 1.410 . S
C1491 C1499 1.503 . S
C1492 C1491 1.410 . S
C1492 C1493 1.392 . S
C1492 C1495 1.511 . S
C1493 C1489 1.376 . S
C1493 C1492 1.392 . S
C1493 H1505 0.929 . S
C1494 C1490 1.531 . S
C1494 H1506 0.960 . S
C1494 H1507 0.962 . S
C1494 H1508 0.960 . S
C1495 C1492 1.511 . S
C1495 H1509 0.961 . S
C1495 H1510 0.961 . S
C1495 H1511 0.961 . S
C1496 C1497 1.370 . S
C1496 C1498 1.363 . S
C1496 H1512 0.931 . S
C1497 C1496 1.370 . S
C1497 C1501 1.408 . S
C1498 C1496 1.363 . S
C1498 C1499 1.370 . S
C1498 C1502 1.524 . S
C1499 C1491 1.503 . S
C1499 C1498 1.370 . S
C1499 C1500 1.403 . S
C1500 C1499 1.403 . S
C1500 C1501 1.404 . S
C1500 C1503 1.539 . S
C1501 C1497 1.408 . S
C1501 C1500 1.404 . S
C1501 H1513 0.930 . S
C1502 C1498 1.524 . S
C1502 H1514 0.956 . S
C1502 H1515 0.961 . S
C1502 H1516 0.961 . S
C1503 C1500 1.539 . S
C1503 H1517 0.958 . S
C1503 H1518 0.961 . S
C1503 H1519 0.960 . S
H1504 C1488 0.931 . S
H1505 C1493 0.929 . S
H1506 C1494 0.960 . S
H1507 C1494 0.962 . S
H1508 C1494 0.960 . S
H1509 C1495 0.961 . S
H1510 C1495 0.961 . S
H1511 C1495 0.961 . S
H1512 C1496 0.931 . S
H1513 C1501 0.930 . S
H1514 C1502 0.956 . S
H1515 C1502 0.961 . S
H1516 C1502 0.961 . S
H1517 C1503 0.958 . S
H1518 C1503 0.961 . S
H1519 C1503 0.960 . S
C1520 C1521 1.391 . S
C1520 C1522 1.394 . S
C1520 H1536 0.931 . S
C1521 C1520 1.391 . S
C1521 C1525 1.376 . S
C1522 C1520 1.394 . S
C1522 C1523 1.369 . S
C1522 C1526 1.531 . S
C1523 C1522 1.369 . S
C1523 C1524 1.410 . S
C1523 C1531 1.503 . S
C1524 C1523 1.410 . S
C1524 C1525 1.392 . S
C1524 C1527 1.511 . S
C1525 C1521 1.376 . S
C1525 C1524 1.392 . S
C1525 H1537 0.929 . S
C1526 C1522 1.531 . S
C1526 H1538 0.960 . S
C1526 H1539 0.962 . S
C1526 H1540 0.960 . S
C1527 C1524 1.511 . S
C1527 H1541 0.961 . S
C1527 H1542 0.961 . S
C1527 H1543 0.961 . S
C1528 C1529 1.370 . S
C1528 C1530 1.363 . S
C1528 H1544 0.931 . S
C1529 C1528 1.370 . S
C1529 C1533 1.408 . S
C1530 C1528 1.363 . S
C1530 C1531 1.370 . S
C1530 C1534 1.524 . S
C1531 C1523 1.503 . S
C1531 C1530 1.370 . S
C1531 C1532 1.403 . S
C1532 C1531 1.403 . S
C1532 C1533 1.404 . S
C1532 C1535 1.539 . S
C1533 C1529 1.408 . S
C1533 C1532 1.404 . S
C1533 H1545 0.930 . S
C1534 C1530 1.524 . S
C1534 H1546 0.956 . S
C1534 H1547 0.961 . S
C1534 H1548 0.961 . S
C1535 C1532 1.539 . S
C1535 H1549 0.958 . S
C1535 H1550 0.961 . S
C1535 H1551 0.960 . S
H1536 C1520 0.931 . S
H1537 C1525 0.929 . S
H1538 C1526 0.960 . S
H1539 C1526 0.962 . S
H1540 C1526 0.960 . S
H1541 C1527 0.961 . S
H1542 C1527 0.961 . S
H1543 C1527 0.961 . S
H1544 C1528 0.931 . S
H1545 C1533 0.930 . S
H1546 C1534 0.956 . S
H1547 C1534 0.961 . S
H1548 C1534 0.961 . S
H1549 C1535 0.958 . S
H1550 C1535 0.961 . S
H1551 C1535 0.960 . S
C1552 C1553 1.391 . S
C1552 C1554 1.394 . S
C1552 H1568 0.931 . S
C1553 C1552 1.391 . S
C1553 C1557 1.376 . S
C1554 C1552 1.394 . S
C1554 C1555 1.369 . S
C1554 C1558 1.531 . S
C1555 C1554 1.369 . S
C1555 C1556 1.410 . S
C1555 C1563 1.503 . S
C1556 C1555 1.410 . S
C1556 C1557 1.392 . S
C1556 C1559 1.511 . S
C1557 C1553 1.376 . S
C1557 C1556 1.392 . S
C1557 H1569 0.929 . S
C1558 C1554 1.531 . S
C1558 H1570 0.960 . S
C1558 H1571 0.962 . S
C1558 H1572 0.960 . S
C1559 C1556 1.511 . S
C1559 H1573 0.961 . S
C1559 H1574 0.961 . S
C1559 H1575 0.961 . S
C1560 C1561 1.370 . S
C1560 C1562 1.363 . S
C1560 H1576 0.931 . S
C1561 C1560 1.370 . S
C1561 C1565 1.408 . S
C1562 C1560 1.363 . S
C1562 C1563 1.370 . S
C1562 C1566 1.524 . S
C1563 C1555 1.503 . S
C1563 C1562 1.370 . S
C1563 C1564 1.403 . S
C1564 C1563 1.403 . S
C1564 C1565 1.404 . S
C1564 C1567 1.539 . S
C1565 C1561 1.408 . S
C1565 C1564 1.404 . S
C1565 H1577 0.930 . S
C1566 C1562 1.524 . S
C1566 H1578 0.956 . S
C1566 H1579 0.961 . S
C1566 H1580 0.961 . S
C1567 C1564 1.539 . S
C1567 H1581 0.958 . S
C1567 H1582 0.961 . S
C1567 H1583 0.960 . S
H1568 C1552 0.931 . S
H1569 C1557 0.929 . S
H1570 C1558 0.960 . S
H1571 C1558 0.962 . S
H1572 C1558 0.960 . S
H1573 C1559 0.961 . S
H1574 C1559 0.961 . S
H1575 C1559 0.961 . S
H1576 C1560 0.931 . S
H1577 C1565 0.930 . S
H1578 C1566 0.956 . S
H1579 C1566 0.961 . S
H1580 C1566 0.961 . S
H1581 C1567 0.958 . S
H1582 C1567 0.961 . S
H1583 C1567 0.960 . S
C1584 C1585 1.391 . S
C1584 C1586 1.394 . S
C1584 H1600 0.931 . S
C1585 C1584 1.391 . S
C1585 C1589 1.376 . S
C1586 C1584 1.394 . S
C1586 C1587 1.369 . S
C1586 C1590 1.531 . S
C1587 C1586 1.369 . S
C1587 C1588 1.410 . S
C1587 C1595 1.503 . S
C1588 C1587 1.410 . S
C1588 C1589 1.392 . S
C1588 C1591 1.511 . S
C1589 C1585 1.376 . S
C1589 C1588 1.392 . S
C1589 H1601 0.929 . S
C1590 C1586 1.531 . S
C1590 H1602 0.960 . S
C1590 H1603 0.962 . S
C1590 H1604 0.960 . S
C1591 C1588 1.511 . S
C1591 H1605 0.961 . S
C1591 H1606 0.961 . S
C1591 H1607 0.961 . S
C1592 C1593 1.370 . S
C1592 C1594 1.363 . S
C1592 H1608 0.931 . S
C1593 C1592 1.370 . S
C1593 C1597 1.408 . S
C1594 C1592 1.363 . S
C1594 C1595 1.370 . S
C1594 C1598 1.524 . S
C1595 C1587 1.503 . S
C1595 C1594 1.370 . S
C1595 C1596 1.403 . S
C1596 C1595 1.403 . S
C1596 C1597 1.404 . S
C1596 C1599 1.539 . S
C1597 C1593 1.408 . S
C1597 C1596 1.404 . S
C1597 H1609 0.930 . S
C1598 C1594 1.524 . S
C1598 H1610 0.956 . S
C1598 H1611 0.961 . S
C1598 H1612 0.961 . S
C1599 C1596 1.539 . S
C1599 H1613 0.958 . S
C1599 H1614 0.961 . S
C1599 H1615 0.960 . S
H1600 C1584 0.931 . S
H1601 C1589 0.929 . S
H1602 C1590 0.960 . S
H1603 C1590 0.962 . S
H1604 C1590 0.960 . S
H1605 C1591 0.961 . S
H1606 C1591 0.961 . S
H1607 C1591 0.961 . S
H1608 C1592 0.931 . S
H1609 C1597 0.930 . S
H1610 C1598 0.956 . S
H1611 C1598 0.961 . S
H1612 C1598 0.961 . S
H1613 C1599 0.958 . S
H1614 C1599 0.961 . S
H1615 C1599 0.960 . S
C1616 C1617 1.391 . S
C1616 C1618 1.394 . S
C1616 H1632 0.931 . S
C1617 C1616 1.391 . S
C1617 C1621 1.376 . S
C1618 C1616 1.394 . S
C1618 C1619 1.369 . S
C1618 C1622 1.531 . S
C1619 C1618 1.369 . S
C1619 C1620 1.410 . S
C1619 C1627 1.503 . S
C1620 C1619 1.410 . S
C1620 C1621 1.392 . S
C1620 C1623 1.511 . S
C1621 C1617 1.376 . S
C1621 C1620 1.392 . S
C1621 H1633 0.929 . S
C1622 C1618 1.531 . S
C1622 H1634 0.960 . S
C1622 H1635 0.962 . S
C1622 H1636 0.960 . S
C1623 C1620 1.511 . S
C1623 H1637 0.961 . S
C1623 H1638 0.961 . S
C1623 H1639 0.961 . S
C1624 C1625 1.370 . S
C1624 C1626 1.363 . S
C1624 H1640 0.931 . S
C1625 C1624 1.370 . S
C1625 C1629 1.408 . S
C1626 C1624 1.363 . S
C1626 C1627 1.370 . S
C1626 C1630 1.524 . S
C1627 C1619 1.503 . S
C1627 C1626 1.370 . S
C1627 C1628 1.403 . S
C1628 C1627 1.403 . S
C1628 C1629 1.404 . S
C1628 C1631 1.539 . S
C1629 C1625 1.408 . S
C1629 C1628 1.404 . S
C1629 H1641 0.930 . S
C1630 C1626 1.524 . S
C1630 H1642 0.956 . S
C1630 H1643 0.961 . S
C1630 H1644 0.961 . S
C1631 C1628 1.539 . S
C1631 H1645 0.958 . S
C1631 H1646 0.961 . S
C1631 H1647 0.960 . S
H1632 C1616 0.931 . S
H1633 C1621 0.929 . S
H1634 C1622 0.960 . S
H1635 C1622 0.962 . S
H1636 C1622 0.960 . S
H1637 C1623 0.961 . S
H1638 C1623 0.961 . S
H1639 C1623 0.961 . S
H1640 C1624 0.931 . S
H1641 C1629 0.930 . S
H1642 C1630 0.956 . S
H1643 C1630 0.961 . S
H1644 C1630 0.961 . S
H1645 C1631 0.958 . S
H1646 C1631 0.961 . S
H1647 C1631 0.960 . S
C1648 C1649 1.391 . S
C1648 C1650 1.394 . S
C1648 H1664 0.931 . S
C1649 C1648 1.391 . S
C1649 C1653 1.376 . S
C1650 C1648 1.394 . S
C1650 C1651 1.369 . S
C1650 C1654 1.531 . S
C1651 C1650 1.369 . S
C1651 C1652 1.410 . S
C1651 C1659 1.503 . S
C1652 C1651 1.410 . S
C1652 C1653 1.392 . S
C1652 C1655 1.511 . S
C1653 C1649 1.376 . S
C1653 C1652 1.392 . S
C1653 H1665 0.929 . S
C1654 C1650 1.531 . S
C1654 H1666 0.960 . S
C1654 H1667 0.962 . S
C1654 H1668 0.960 . S
C1655 C1652 1.511 . S
C1655 H1669 0.961 . S
C1655 H1670 0.961 . S
C1655 H1671 0.961 . S
C1656 C1657 1.370 . S
C1656 C1658 1.363 . S
C1656 H1672 0.931 . S
C1657 C1656 1.370 . S
C1657 C1661 1.408 . S
C1658 C1656 1.363 . S
C1658 C1659 1.370 . S
C1658 C1662 1.524 . S
C1659 C1651 1.503 . S
C1659 C1658 1.370 . S
C1659 C1660 1.403 . S
C1660 C1659 1.403 . S
C1660 C1661 1.404 . S
C1660 C1663 1.539 . S
C1661 C1657 1.408 . S
C1661 C1660 1.404 . S
C1661 H1673 0.930 . S
C1662 C1658 1.524 . S
C1662 H1674 0.956 . S
C1662 H1675 0.961 . S
C1662 H1676 0.961 . S
C1663 C1660 1.539 . S
C1663 H1677 0.958 . S
C1663 H1678 0.961 . S
C1663 H1679 0.960 . S
H1664 C1648 0.931 . S
H1665 C1653 0.929 . S
H1666 C1654 0.960 . S
H1667 C1654 0.962 . S
H1668 C1654 0.960 . S
H1669 C1655 0.961 . S
H1670 C1655 0.961 . S
H1671 C1655 0.961 . S
H1672 C1656 0.931 . S
H1673 C1661 0.930 . S
H1674 C1662 0.956 . S
H1675 C1662 0.961 . S
H1676 C1662 0.961 . S
H1677 C1663 0.958 . S
H1678 C1663 0.961 . S
H1679 C1663 0.960 . S
C1680 C1681 1.391 . S
C1680 C1682 1.394 . S
C1680 H1696 0.931 . S
C1681 C1680 1.391 . S
C1681 C1685 1.376 . S
C1682 C1680 1.394 . S
C1682 C1683 1.369 . S
C1682 C1686 1.531 . S
C1683 C1682 1.369 . S
C1683 C1684 1.410 . S
C1683 C1691 1.503 . S
C1684 C1683 1.410 . S
C1684 C1685 1.392 . S
C1684 C1687 1.511 . S
C1685 C1681 1.376 . S
C1685 C1684 1.392 . S
C1685 H1697 0.929 . S
C1686 C1682 1.531 . S
C1686 H1698 0.960 . S
C1686 H1699 0.962 . S
C1686 H1700 0.960 . S
C1687 C1684 1.511 . S
C1687 H1701 0.961 . S
C1687 H1702 0.961 . S
C1687 H1703 0.961 . S
C1688 C1689 1.370 . S
C1688 C1690 1.363 . S
C1688 H1704 0.931 . S
C1689 C1688 1.370 . S
C1689 C1693 1.408 . S
C1690 C1688 1.363 . S
C1690 C1691 1.370 . S
C1690 C1694 1.524 . S
C1691 C1683 1.503 . S
C1691 C1690 1.370 . S
C1691 C1692 1.403 . S
C1692 C1691 1.403 . S
C1692 C1693 1.404 . S
C1692 C1695 1.539 . S
C1693 C1689 1.408 . S
C1693 C1692 1.404 . S
C1693 H1705 0.930 . S
C1694 C1690 1.524 . S
C1694 H1706 0.956 . S
C1694 H1707 0.961 . S
C1694 H1708 0.961 . S
C1695 C1692 1.539 . S
C1695 H1709 0.958 . S
C1695 H1710 0.961 . S
C1695 H1711 0.960 . S
H1696 C1680 0.931 . S
H1697 C1685 0.929 . S
H1698 C1686 0.960 . S
H1699 C1686 0.962 . S
H1700 C1686 0.960 . S
H1701 C1687 0.961 . S
H1702 C1687 0.961 . S
H1703 C1687 0.961 . S
H1704 C1688 0.931 . S
H1705 C1693 0.930 . S
H1706 C1694 0.956 . S
H1707 C1694 0.961 . S
H1708 C1694 0.961 . S
H1709 C1695 0.958 . S
H1710 C1695 0.961 . S
H1711 C1695 0.960 . S
C1712 C1713 1.391 . S
C1712 C1714 1.394 . S
C1712 H1728 0.931 . S
C1713 C1712 1.391 . S
C1713 C1717 1.376 . S
C1714 C1712 1.394 . S
C1714 C1715 1.369 . S
C1714 C1718 1.531 . S
C1715 C1714 1.369 . S
C1715 C1716 1.410 . S
C1715 C1723 1.503 . S
C1716 C1715 1.410 . S
C1716 C1717 1.392 . S
C1716 C1719 1.511 . S
C1717 C1713 1.376 . S
C1717 C1716 1.392 . S
C1717 H1729 0.929 . S
C1718 C1714 1.531 . S
C1718 H1730 0.960 . S
C1718 H1731 0.962 . S
C1718 H1732 0.960 . S
C1719 C1716 1.511 . S
C1719 H1733 0.961 . S
C1719 H1734 0.961 . S
C1719 H1735 0.961 . S
C1720 C1721 1.370 . S
C1720 C1722 1.363 . S
C1720 H1736 0.931 . S
C1721 C1720 1.370 . S
C1721 C1725 1.408 . S
C1722 C1720 1.363 . S
C1722 C1723 1.370 . S
C1722 C1726 1.524 . S
C1723 C1715 1.503 . S
C1723 C1722 1.370 . S
C1723 C1724 1.403 . S
C1724 C1723 1.403 . S
C1724 C1725 1.404 . S
C1724 C1727 1.539 . S
C1725 C1721 1.408 . S
C1725 C1724 1.404 . S
C1725 H1737 0.930 . S
C1726 C1722 1.524 . S
C1726 H1738 0.956 . S
C1726 H1739 0.961 . S
C1726 H1740 0.961 . S
C1727 C1724 1.539 . S
C1727 H1741 0.958 . S
C1727 H1742 0.961 . S
C1727 H1743 0.960 . S
H1728 C1712 0.931 . S
H1729 C1717 0.929 . S
H1730 C1718 0.960 . S
H1731 C1718 0.962 . S
H1732 C1718 0.960 . S
H1733 C1719 0.961 . S
H1734 C1719 0.961 . S
H1735 C1719 0.961 . S
H1736 C1720 0.931 . S
H1737 C1725 0.930 . S
H1738 C1726 0.956 . S
H1739 C1726 0.961 . S
H1740 C1726 0.961 . S
H1741 C1727 0.958 . S
H1742 C1727 0.961 . S
H1743 C1727 0.960 . S
C1744 C1745 1.391 . S
C1744 C1746 1.394 . S
C1744 H1760 0.931 . S
C1745 C1744 1.391 . S
C1745 C1749 1.376 . S
C1746 C1744 1.394 . S
C1746 C1747 1.369 . S
C1746 C1750 1.531 . S
C1747 C1746 1.369 . S
C1747 C1748 1.410 . S
C1747 C1755 1.503 . S
C1748 C1747 1.410 . S
C1748 C1749 1.392 . S
C1748 C1751 1.511 . S
C1749 C1745 1.376 . S
C1749 C1748 1.392 . S
C1749 H1761 0.929 . S
C1750 C1746 1.531 . S
C1750 H1762 0.960 . S
C1750 H1763 0.962 . S
C1750 H1764 0.960 . S
C1751 C1748 1.511 . S
C1751 H1765 0.961 . S
C1751 H1766 0.961 . S
C1751 H1767 0.961 . S
C1752 C1753 1.370 . S
C1752 C1754 1.363 . S
C1752 H1768 0.931 . S
C1753 C1752 1.370 . S
C1753 C1757 1.408 . S
C1754 C1752 1.363 . S
C1754 C1755 1.370 . S
C1754 C1758 1.524 . S
C1755 C1747 1.503 . S
C1755 C1754 1.370 . S
C1755 C1756 1.403 . S
C1756 C1755 1.403 . S
C1756 C1757 1.404 . S
C1756 C1759 1.539 . S
C1757 C1753 1.408 . S
C1757 C1756 1.404 . S
C1757 H1769 0.930 . S
C1758 C1754 1.524 . S
C1758 H1770 0.956 . S
C1758 H1771 0.961 . S
C1758 H1772 0.961 . S
C1759 C1756 1.539 . S
C1759 H1773 0.958 . S
C1759 H1774 0.961 . S
C1759 H1775 0.960 . S
H1760 C1744 0.931 . S
H1761 C1749 0.929 . S
H1762 C1750 0.960 . S
H1763 C1750 0.962 . S
H1764 C1750 0.960 . S
H1765 C1751 0.961 . S
H1766 C1751 0.961 . S
H1767 C1751 0.961 . S
H1768 C1752 0.931 . S
H1769 C1757 0.930 . S
H1770 C1758 0.956 . S
H1771 C1758 0.961 . S
H1772 C1758 0.961 . S
H1773 C1759 0.958 . S
H1774 C1759 0.961 . S
H1775 C1759 0.960 . S
C1776 C1777 1.391 . S
C1776 C1778 1.394 . S
C1776 H1792 0.931 . S
C1777 C1776 1.391 . S
C1777 C1781 1.376 . S
C1778 C1776 1.394 . S
C1778 C1779 1.369 . S
C1778 C1782 1.531 . S
C1779 C1778 1.369 . S
C1779 C1780 1.410 . S
C1779 C1787 1.503 . S
C1780 C1779 1.410 . S
C1780 C1781 1.392 . S
C1780 C1783 1.511 . S
C1781 C1777 1.376 . S
C1781 C1780 1.392 . S
C1781 H1793 0.929 . S
C1782 C1778 1.531 . S
C1782 H1794 0.960 . S
C1782 H1795 0.962 . S
C1782 H1796 0.960 . S
C1783 C1780 1.511 . S
C1783 H1797 0.961 . S
C1783 H1798 0.961 . S
C1783 H1799 0.961 . S
C1784 C1785 1.370 . S
C1784 C1786 1.363 . S
C1784 H1800 0.931 . S
C1785 C1784 1.370 . S
C1785 C1789 1.408 . S
C1786 C1784 1.363 . S
C1786 C1787 1.370 . S
C1786 C1790 1.524 . S
C1787 C1779 1.503 . S
C1787 C1786 1.370 . S
C1787 C1788 1.403 . S
C1788 C1787 1.403 . S
C1788 C1789 1.404 . S
C1788 C1791 1.539 . S
C1789 C1785 1.408 . S
C1789 C1788 1.404 . S
C1789 H1801 0.930 . S
C1790 C1786 1.524 . S
C1790 H1802 0.956 . S
C1790 H1803 0.961 . S
C1790 H1804 0.961 . S
C1791 C1788 1.539 . S
C1791 H1805 0.958 . S
C1791 H1806 0.961 . S
C1791 H1807 0.960 . S
H1792 C1776 0.931 . S
H1793 C1781 0.929 . S
H1794 C1782 0.960 . S
H1795 C1782 0.962 . S
H1796 C1782 0.960 . S
H1797 C1783 0.961 . S
H1798 C1783 0.961 . S
H1799 C1783 0.961 . S
H1800 C1784 0.931 . S
H1801 C1789 0.930 . S
H1802 C1790 0.956 . S
H1803 C1790 0.961 . S
H1804 C1790 0.961 . S
H1805 C1791 0.958 . S
H1806 C1791 0.961 . S
H1807 C1791 0.960 . S
C1808 C1809 1.391 . S
C1808 C1810 1.394 . S
C1808 H1824 0.931 . S
C1809 C1808 1.391 . S
C1809 C1813 1.376 . S
C1810 C1808 1.394 . S
C1810 C1811 1.369 . S
C1810 C1814 1.531 . S
C1811 C1810 1.369 . S
C1811 C1812 1.410 . S
C1811 C1819 1.503 . S
C1812 C1811 1.410 . S
C1812 C1813 1.392 . S
C1812 C1815 1.511 . S
C1813 C1809 1.376 . S
C1813 C1812 1.392 . S
C1813 H1825 0.929 . S
C1814 C1810 1.531 . S
C1814 H1826 0.960 . S
C1814 H1827 0.962 . S
C1814 H1828 0.960 . S
C1815 C1812 1.511 . S
C1815 H1829 0.961 . S
C1815 H1830 0.961 . S
C1815 H1831 0.961 . S
C1816 C1817 1.370 . S
C1816 C1818 1.363 . S
C1816 H1832 0.931 . S
C1817 C1816 1.370 . S
C1817 C1821 1.408 . S
C1818 C1816 1.363 . S
C1818 C1819 1.370 . S
C1818 C1822 1.524 . S
C1819 C1811 1.503 . S
C1819 C1818 1.370 . S
C1819 C1820 1.403 . S
C1820 C1819 1.403 . S
C1820 C1821 1.404 . S
C1820 C1823 1.539 . S
C1821 C1817 1.408 . S
C1821 C1820 1.404 . S
C1821 H1833 0.930 . S
C1822 C1818 1.524 . S
C1822 H1834 0.956 . S
C1822 H1835 0.961 . S
C1822 H1836 0.961 . S
C1823 C1820 1.539 . S
C1823 H1837 0.958 . S
C1823 H1838 0.961 . S
C1823 H1839 0.960 . S
H1824 C1808 0.931 . S
H1825 C1813 0.929 . S
H1826 C1814 0.960 . S
H1827 C1814 0.962 . S
H1828 C1814 0.960 . S
H1829 C1815 0.961 . S
H1830 C1815 0.961 . S
H1831 C1815 0.961 . S
H1832 C1816 0.931 . S
H1833 C1821 0.930 . S
H1834 C1822 0.956 . S
H1835 C1822 0.961 . S
H1836 C1822 0.961 . S
H1837 C1823 0.958 . S
H1838 C1823 0.961 . S
H1839 C1823 0.960 . S
C1840 C1841 1.391 . S
C1840 C1842 1.394 . S
C1840 H1856 0.931 . S
C1841 C1840 1.391 . S
C1841 C1845 1.376 . S
C1842 C1840 1.394 . S
C1842 C1843 1.369 . S
C1842 C1846 1.531 . S
C1843 C1842 1.369 . S
C1843 C1844 1.410 . S
C1843 C1851 1.503 . S
C1844 C1843 1.410 . S
C1844 C1845 1.392 . S
C1844 C1847 1.511 . S
C1845 C1841 1.376 . S
C1845 C1844 1.392 . S
C1845 H1857 0.929 . S
C1846 C1842 1.531 . S
C1846 H1858 0.960 . S
C1846 H1859 0.962 . S
C1846 H1860 0.960 . S
C1847 C1844 1.511 . S
C1847 H1861 0.961 . S
C1847 H1862 0.961 . S
C1847 H1863 0.961 . S
C1848 C1849 1.370 . S
C1848 C1850 1.363 . S
C1848 H1864 0.931 . S
C1849 C1848 1.370 . S
C1849 C1853 1.408 . S
C1850 C1848 1.363 . S
C1850 C1851 1.370 . S
C1850 C1854 1.524 . S
C1851 C1843 1.503 . S
C1851 C1850 1.370 . S
C1851 C1852 1.403 . S
C1852 C1851 1.403 . S
C1852 C1853 1.404 . S
C1852 C1855 1.539 . S
C1853 C1849 1.408 . S
C1853 C1852 1.404 . S
C1853 H1865 0.930 . S
C1854 C1850 1.524 . S
C1854 H1866 0.956 . S
C1854 H1867 0.961 . S
C1854 H1868 0.961 . S
C1855 C1852 1.539 . S
C1855 H1869 0.958 . S
C1855 H1870 0.961 . S
C1855 H1871 0.960 . S
H1856 C1840 0.931 . S
H1857 C1845 0.929 . S
H1858 C1846 0.960 . S
H1859 C1846 0.962 . S
H1860 C1846 0.960 . S
H1861 C1847 0.961 . S
H1862 C1847 0.961 . S
H1863 C1847 0.961 . S
H1864 C1848 0.931 . S
H1865 C1853 0.930 . S
H1866 C1854 0.956 . S
H1867 C1854 0.961 . S
H1868 C1854 0.961 . S
H1869 C1855 0.958 . S
H1870 C1855 0.961 . S
H1871 C1855 0.960 . S
C337 C208 1.314 . S
C345 C11 1.322 . S
C369 C26 1.246 . S
C377 C215 1.113 . S
C401 C256 1.374 . S
C409 C32 1.351 . S
C433 C47 0.876 . S
C441 C187 0.981 . S
C465 C201 1.046 . S
C473 C61 0.960 . S
C497 C82 1.256 . S
C505 C222 1.256 . S
C529 C96 1.315 . S
C537 C263 1.326 . S
C561 C103 1.032 . S
C569 C194 1.248 . S
C593 C138 1.338 . S
C601 C123 1.310 . S
C625 C145 0.905 . S
C633 C131 1.012 . S
C657 C152 1.335 . S
C665 C165 1.306 . S
C689 C158 1.365 . S
C697 C116 1.368 . S
C721 C173 1.152 . S
C729 C54 1.251 . S
C753 C68 1.336 . S
C761 C235 1.311 . S
C785 C243 0.993 . S
C793 C19 0.939 . S
C817 C25 1.419 . S
C825 C299 1.192 . S
C849 C137 1.398 . S
C857 C5 1.174 . S
C881 C326 1.290 . S
C889 C46 1.321 . S
C913 C166 1.518 . S
C921 C40 1.505 . S
C945 C306 1.531 . S
C953 C102 1.476 . S
C977 C130 1.407 . S
C985 C88 1.432 . S
C1009 C81 1.352 . S
C1017 C333 1.378 . S
C1041 C67 1.385 . S
C1049 C159 1.225 . S
C1073 C221 1.337 . S
C1081 C277 1.380 . S
C1105 C236 1.524 . S
C1113 C214 1.483 . S
C1137 C193 1.414 . S
C1145 C229 1.202 . S
C1169 C270 1.292 . S
C1177 C186 1.306 . S
C1201 C33 1.241 . S
C1209 C291 1.391 . S
C1233 C151 1.371 . S
C1241 C109 1.354 . S
C1265 C12 1.514 . S
C1273 C320 1.511 . S
C1297 C278 1.318 . S
C1305 C39 1.320 . S
C1329 C4 1.371 . S
C1337 C228 1.365 . S
C1361 C271 1.056 . S
C1369 C89 0.951 . S
C1393 C180 1.266 . S
C1401 C110 1.253 . S
C1425 C75 1.049 . S
C1433 C250 1.250 . S
C1457 C305 1.301 . S
C1465 C292 1.334 . S
C1489 C327 1.016 . S
C1497 C285 0.976 . S
C1521 C319 1.333 . S
C1529 C334 1.324 . S
C1553 C298 1.341 . S
C1561 C312 1.356 . S
C1585 C117 1.246 . S
C1593 C53 1.417 . S
C1617 C18 1.320 . S
C1625 C144 1.305 . S
C1649 C74 1.458 . S
C1657 C124 1.527 . S
C1681 C284 1.441 . S
C1689 C60 1.446 . S
C1713 C95 1.398 . S
C1721 C313 1.190 . S
C1745 C179 1.377 . S
C1753 C207 1.383 . S
C1777 C264 1.529 . S
C1785 C172 1.478 . S
C1809 C249 1.425 . S
C1817 C257 1.214 . S
C1841 C200 1.340 . S
C1849 C242 1.319 . S
