# Generated by pormake.
# Topology unf, (4)-cn, num edge types: 1
# Building blocks:
#     Node 0, Type 0, BuildingBlock: GALJAG_clean_sbu_0, # of connection points: 4
#     Node 1, Type 0, BuildingBlock: GALJAG_clean_sbu_0, # of connection points: 4
#     Node 2, Type 0, BuildingBlock: GALJAG_clean_sbu_0, # of connection points: 4
#     Node 3, Type 0, BuildingBlock: GALJAG_clean_sbu_0, # of connection points: 4
#     Node 4, Type 0, BuildingBlock: GALJAG_clean_sbu_0, # of connection points: 4
#     Node 5, Type 0, BuildingBlock: GALJAG_clean_sbu_0, # of connection points: 4
#     Node 6, Type 0, BuildingBlock: GALJAG_clean_sbu_0, # of connection points: 4
#     Node 7, Type 0, BuildingBlock: GALJAG_clean_sbu_0, # of connection points: 4
#     Node 8, Type 0, BuildingBlock: GALJAG_clean_sbu_0, # of connection points: 4
#     Node 9, Type 0, BuildingBlock: GALJAG_clean_sbu_0, # of connection points: 4
#     Node 10, Type 0, BuildingBlock: GALJAG_clean_sbu_0, # of connection points: 4
#     Node 11, Type 0, BuildingBlock: GALJAG_clean_sbu_0, # of connection points: 4
#     Edge 12, Type (0, 0), BuildingBlock: KIFKEQ_clean_linker_1, # of connection points: 2
#     Edge 13, Type (0, 0), BuildingBlock: KIFKEQ_clean_linker_1, # of connection points: 2
#     Edge 14, Type (0, 0), BuildingBlock: KIFKEQ_clean_linker_1, # of connection points: 2
#     Edge 15, Type (0, 0), BuildingBlock: KIFKEQ_clean_linker_1, # of connection points: 2
#     Edge 16, Type (0, 0), BuildingBlock: KIFKEQ_clean_linker_1, # of connection points: 2
#     Edge 17, Type (0, 0), BuildingBlock: KIFKEQ_clean_linker_1, # of connection points: 2
#     Edge 18, Type (0, 0), BuildingBlock: KIFKEQ_clean_linker_1, # of connection points: 2
#     Edge 19, Type (0, 0), BuildingBlock: KIFKEQ_clean_linker_1, # of connection points: 2
#     Edge 20, Type (0, 0), BuildingBlock: KIFKEQ_clean_linker_1, # of connection points: 2
#     Edge 21, Type (0, 0), BuildingBlock: KIFKEQ_clean_linker_1, # of connection points: 2
#     Edge 22, Type (0, 0), BuildingBlock: KIFKEQ_clean_linker_1, # of connection points: 2
#     Edge 23, Type (0, 0), BuildingBlock: KIFKEQ_clean_linker_1, # of connection points: 2
#     Edge 24, Type (0, 0), BuildingBlock: KIFKEQ_clean_linker_1, # of connection points: 2
#     Edge 25, Type (0, 0), BuildingBlock: KIFKEQ_clean_linker_1, # of connection points: 2
#     Edge 26, Type (0, 0), BuildingBlock: KIFKEQ_clean_linker_1, # of connection points: 2
#     Edge 27, Type (0, 0), BuildingBlock: KIFKEQ_clean_linker_1, # of connection points: 2
#     Edge 28, Type (0, 0), BuildingBlock: KIFKEQ_clean_linker_1, # of connection points: 2
#     Edge 29, Type (0, 0), BuildingBlock: KIFKEQ_clean_linker_1, # of connection points: 2
#     Edge 30, Type (0, 0), BuildingBlock: KIFKEQ_clean_linker_1, # of connection points: 2
#     Edge 31, Type (0, 0), BuildingBlock: KIFKEQ_clean_linker_1, # of connection points: 2
#     Edge 32, Type (0, 0), BuildingBlock: KIFKEQ_clean_linker_1, # of connection points: 2
#     Edge 33, Type (0, 0), BuildingBlock: KIFKEQ_clean_linker_1, # of connection points: 2
#     Edge 34, Type (0, 0), BuildingBlock: KIFKEQ_clean_linker_1, # of connection points: 2
#     Edge 35, Type (0, 0), BuildingBlock: KIFKEQ_clean_linker_1, # of connection points: 2
# Relax obj value: 0.104
# Max RMSD: 0.121
# Mean RMSD: 0.121
data_MOF--net-unf--node1-GALJAG_clean_sbu_0--edge1-KIFKEQ_clean_linker_1
_symmetry_space_group_name_H-M    P1
_symmetry_Int_Tables_number       1
_symmetry_cell_setting            triclinic
loop_
_symmetry_equiv_pos_as_xyz
'x, y, z'
_cell_length_a     40.665833
_cell_length_b     40.713968
_cell_length_c     35.653139
_cell_angle_alpha  90.05846
_cell_angle_beta   89.93314
_cell_angle_gamma 119.99693
loop_
_atom_site_label
_atom_site_type_symbol
_atom_site_fract_x
_atom_site_fract_y
_atom_site_fract_z
_atom_type_partial_charge
In0 In 0.068 0.36512 0.07654 0.0
O1 O 0.07737 0.34053 0.13026 0.0
O2 O 0.10874 0.40026 0.12363 0.0
C3 C 0.00078 0.30266 0.06286 0.0
C4 C 0.12128 0.36392 0.0328 0.0
C5 C 0.0441 0.41416 0.05857 0.0
O6 O 0.00858 0.31902 0.0944 0.0
O7 O 0.02716 0.31727 0.03896 0.0
O8 O 0.06577 0.40847 0.03767 0.0
O9 O 0.03625 0.3968 0.08944 0.0
C10 C 0.10216 0.372 0.14347 0.0
O11 O 0.12417 0.39455 0.04452 0.0
O12 O 0.09154 0.33425 0.04293 0.0
In13 In 0.61011 0.708 0.07242 0.0
O14 O 0.63314 0.74115 0.12672 0.0
O15 O 0.57336 0.71124 0.11948 0.0
C16 C 0.67199 0.70297 0.0566 0.0
C17 C 0.61426 0.76386 0.02893 0.0
C18 C 0.56208 0.63461 0.05577 0.0
O19 O 0.65928 0.69918 0.08966 0.0
O20 O 0.65411 0.71026 0.03221 0.0
O21 O 0.56423 0.66137 0.03611 0.0
O22 O 0.58212 0.64497 0.08503 0.0
C23 C 0.60117 0.73314 0.1398 0.0
O24 O 0.58281 0.73559 0.03818 0.0
O25 O 0.64311 0.76369 0.04157 0.0
In26 In 0.28171 0.9121 0.0601 0.0
O27 O 0.24945 0.8647 0.01746 0.0
O28 O 0.22026 0.88931 0.04476 0.0
C29 C 0.34858 0.93364 0.02554 0.0
C30 C 0.26487 0.87218 0.1247 0.0
C31 C 0.28816 0.9811 0.06428 0.0
O32 O 0.31961 0.92924 0.00837 0.0
O33 O 0.34331 0.92511 0.05988 0.0
O34 O 0.30808 0.9721 0.08419 0.0
O35 O 0.26444 0.955 0.04343 0.0
C36 C 0.2188 0.86519 0.02154 0.0
O37 O 0.27085 0.90567 0.12322 0.0
O38 O 0.26883 0.85931 0.09391 0.0
In39 In 0.6079 0.90877 0.43531 0.0
O40 O 0.59477 0.85886 0.47419 0.0
O41 O 0.64988 0.88994 0.4499 0.0
C42 C 0.55678 0.92288 0.46909 0.0
C43 C 0.5924 0.87438 0.36755 0.0
C44 C 0.66642 0.98049 0.43705 0.0
O45 O 0.58057 0.91793 0.48714 0.0
O46 O 0.55719 0.91838 0.43411 0.0
O47 O 0.6386 0.97043 0.4152 0.0
O48 O 0.66482 0.95436 0.45727 0.0
C49 C 0.62758 0.86293 0.47079 0.0
O50 O 0.62013 0.90713 0.37333 0.0
O51 O 0.57122 0.8594 0.39566 0.0
In52 In 0.08927 0.6984 0.41819 0.0
O53 O 0.09273 0.71027 0.355 0.0
O54 O 0.14362 0.72372 0.38376 0.0
C55 C 0.01833 0.68428 0.43206 0.0
C56 C 0.13029 0.75636 0.46548 0.0
C57 C 0.07538 0.62712 0.42872 0.0
O58 O 0.03758 0.70498 0.40491 0.0
O59 O 0.03519 0.67179 0.45206 0.0
O60 O 0.09403 0.65355 0.45179 0.0
O61 O 0.06592 0.63726 0.39912 0.0
C62 C 0.12823 0.72392 0.35321 0.0
O63 O 0.136 0.72879 0.46161 0.0
O64 O 0.1036 0.75443 0.44585 0.0
In65 In 0.28857 0.37088 0.43017 0.0
O66 O 0.25829 0.34767 0.37442 0.0
O67 O 0.277 0.40531 0.38657 0.0
C68 C 0.29732 0.30972 0.42692 0.0
C69 C 0.23559 0.36512 0.47944 0.0
C70 C 0.35796 0.42065 0.45733 0.0
O71 O 0.3209 0.341 0.41219 0.0
O72 O 0.26881 0.3091 0.44174 0.0
O73 O 0.33026 0.39936 0.47799 0.0
O74 O 0.35029 0.41829 0.4228 0.0
C75 C 0.25978 0.37797 0.36414 0.0
O76 O 0.25511 0.39463 0.46014 0.0
O77 O 0.2433 0.33909 0.47425 0.0
In78 In 0.89462 0.59709 0.9271 0.0
O79 O 0.84779 0.5898 0.96738 0.0
O80 O 0.87801 0.64172 0.9371 0.0
C81 C 0.90786 0.54239 0.95271 0.0
C82 C 0.85628 0.57714 0.86171 0.0
C83 C 0.96446 0.65679 0.93849 0.0
O84 O 0.89243 0.55662 0.97248 0.0
O85 O 0.91448 0.55406 0.91931 0.0
O86 O 0.95338 0.64281 0.90618 0.0
O87 O 0.94043 0.64074 0.96423 0.0
C88 C 0.85245 0.62239 0.96078 0.0
O89 O 0.89123 0.60132 0.86356 0.0
O90 O 0.84113 0.56189 0.89256 0.0
In91 In 0.38123 0.3008 0.93323 0.0
O92 O 0.35888 0.27322 0.87634 0.0
O93 O 0.4157 0.28895 0.88993 0.0
C94 C 0.32817 0.32089 0.94362 0.0
C95 C 0.36193 0.23985 0.97709 0.0
C96 C 0.43908 0.36972 0.95173 0.0
O97 O 0.33437 0.31156 0.91169 0.0
O98 O 0.34812 0.31935 0.96984 0.0
O99 O 0.42733 0.3412 0.97285 0.0
O100 O 0.42351 0.36288 0.91984 0.0
C101 C 0.38883 0.27349 0.86663 0.0
O102 O 0.39594 0.26318 0.96872 0.0
O103 O 0.33787 0.2473 0.96337 0.0
In104 In 0.68419 0.08473 0.91289 0.0
O105 O 0.70466 0.08839 0.85279 0.0
O106 O 0.70378 0.13642 0.8749 0.0
C107 C 0.66384 0.01234 0.92767 0.0
C108 C 0.74563 0.12268 0.95721 0.0
C109 C 0.61397 0.07378 0.9239 0.0
O110 O 0.67735 0.02736 0.8962 0.0
O111 O 0.6614 0.034 0.95141 0.0
O112 O 0.64098 0.0926 0.94638 0.0
O113 O 0.62317 0.06292 0.89455 0.0
C114 C 0.71189 0.12201 0.84759 0.0
O115 O 0.71953 0.13088 0.95594 0.0
O116 O 0.74051 0.09551 0.93639 0.0
In117 In 0.37665 0.08131 0.57876 0.0
O118 O 0.39625 0.13283 0.54016 0.0
O119 O 0.33718 0.09401 0.54455 0.0
C120 C 0.43191 0.06387 0.56979 0.0
C121 C 0.38463 0.11803 0.64438 0.0
C122 C 0.32113 0.01015 0.56447 0.0
O123 O 0.42693 0.08489 0.54725 0.0
O124 O 0.41071 0.05387 0.59837 0.0
O125 O 0.32196 0.02682 0.59473 0.0
O126 O 0.34759 0.02962 0.54173 0.0
C127 C 0.36313 0.12405 0.53012 0.0
O128 O 0.3546 0.08801 0.63556 0.0
O129 O 0.41109 0.12883 0.62069 0.0
In130 In 0.91172 0.29478 0.56249 0.0
O131 O 0.85463 0.26082 0.53253 0.0
O132 O 0.89711 0.24594 0.52275 0.0
C133 C 0.93248 0.36179 0.52922 0.0
C134 C 0.87478 0.26997 0.62867 0.0
C135 C 0.98205 0.30511 0.57031 0.0
O136 O 0.92635 0.33266 0.51114 0.0
O137 O 0.9262 0.35666 0.56401 0.0
O138 O 0.97292 0.32829 0.58334 0.0
O139 O 0.95536 0.27623 0.55476 0.0
C140 C 0.86376 0.23896 0.51627 0.0
O141 O 0.9005 0.26346 0.61797 0.0
O142 O 0.86839 0.29029 0.60654 0.0
In143 In 0.70024 0.60645 0.5671 0.0
O144 O 0.71655 0.61626 0.62909 0.0
O145 O 0.71479 0.56875 0.60232 0.0
C146 C 0.69279 0.66743 0.55411 0.0
C147 C 0.76263 0.62337 0.52683 0.0
C148 C 0.62788 0.55422 0.55029 0.0
O149 O 0.69255 0.65571 0.58698 0.0
O150 O 0.69753 0.6489 0.5284 0.0
O151 O 0.65519 0.56176 0.52848 0.0
O152 O 0.63739 0.57141 0.58125 0.0
C153 C 0.72152 0.58814 0.63185 0.0
O154 O 0.73277 0.59128 0.52501 0.0
O155 O 0.76087 0.64672 0.54889 0.0
H156 H 0.11597 0.30363 0.99459 0.0
H157 H 0.19457 0.42049 0.0229 0.0
H158 H 0.16764 0.29809 0.96623 0.0
H159 H 0.2464 0.41479 0.99468 0.0
H160 H 0.324 0.35933 0.00373 0.0
H161 H 0.27471 0.37474 0.01817 0.0
H162 H 0.21836 0.32368 0.91384 0.0
H163 H 0.26826 0.30851 0.89906 0.0
C164 C 0.14419 0.3283 0.99418 0.0
C165 C 0.15141 0.36237 0.01126 0.0
C166 C 0.17367 0.32519 0.97772 0.0
C167 C 0.21095 0.35597 0.97846 0.0
C168 C 0.21788 0.3906 0.99396 0.0
C169 C 0.18827 0.39387 0.01 0.0
C170 C 0.30132 0.35175 0.98366 0.0
C171 C 0.29969 0.33247 0.95043 0.0
C172 C 0.27333 0.36089 0.99178 0.0
C173 C 0.24284 0.35047 0.96706 0.0
C174 C 0.24161 0.33196 0.93334 0.0
C175 C 0.27008 0.32335 0.9249 0.0
H176 H 0.55865 0.78077 0.01311 0.0
H177 H 0.67751 0.81919 0.99491 0.0
H178 H 0.5666 0.8381 0.9824 0.0
H179 H 0.68533 0.87613 0.96419 0.0
H180 H 0.68068 0.9643 0.88945 0.0
H181 H 0.66445 0.89987 0.90775 0.0
H182 H 0.60397 0.9069 0.00425 0.0
H183 H 0.62028 0.971 0.98624 0.0
C184 C 0.58626 0.80113 0.002 0.0
C185 C 0.61755 0.79581 0.00667 0.0
C186 C 0.59081 0.83389 0.98456 0.0
C187 C 0.62659 0.8615 0.97105 0.0
C188 C 0.65737 0.85515 0.97403 0.0
C189 C 0.65294 0.82271 0.99187 0.0
C190 C 0.6636 0.95183 0.91432 0.0
C191 C 0.65202 0.97265 0.93665 0.0
C192 C 0.65437 0.91509 0.92477 0.0
C193 C 0.63292 0.89848 0.95734 0.0
C194 C 0.62015 0.91885 0.97878 0.0
C195 C 0.62979 0.95565 0.96865 0.0
H196 H 0.15157 0.86399 0.02479 0.0
H197 H 0.20548 0.80578 0.97561 0.0
H198 H 0.09068 0.81595 -0.00034 0.0
H199 H 0.14403 0.75719 0.95067 0.0
H200 H 0.026 0.69135 0.8913 0.0
H201 H 0.08918 0.74487 0.90637 0.0
H202 H 0.05079 0.74833 0.01855 0.0
H203 H 0.98838 0.69557 0.00369 0.0
C204 C 0.15047 0.8411 0.00829 0.0
C205 C 0.18314 0.83831 0.00256 0.0
C206 C 0.1156 0.81358 0.99397 0.0
C207 C 0.11262 0.78265 0.97365 0.0
C208 C 0.14561 0.78086 0.96614 0.0
C209 C 0.18067 0.8085 0.98055 0.0
C210 C 0.03119 0.7038 0.91905 0.0
C211 C 0.00236 0.68941 0.94631 0.0
C212 C 0.06726 0.73421 0.92769 0.0
C213 C 0.0747 0.75087 0.96351 0.0
C214 C 0.04569 0.73647 0.99052 0.0
C215 C 0.01 0.70607 0.98206 0.0
H216 H 0.70447 0.70394 0.48773 0.0
H217 H 0.66599 0.702 0.60114 0.0
H218 H 0.69009 0.75345 0.47162 0.0
H219 H 0.65144 0.75193 0.58482 0.0
H220 H 0.58556 0.80203 0.5168 0.0
H221 H 0.60378 0.75702 0.54098 0.0
H222 H 0.7136 0.82151 0.4882 0.0
H223 H 0.69557 0.86615 0.46405 0.0
C224 C 0.69321 0.71435 0.50931 0.0
C225 C 0.68638 0.69921 0.54569 0.0
C226 C 0.68513 0.74281 0.50012 0.0
C227 C 0.66974 0.75654 0.52701 0.0
C228 C 0.66313 0.74166 0.56356 0.0
C229 C 0.67167 0.71336 0.57292 0.0
C230 C 0.6137 0.80672 0.51076 0.0
C231 C 0.639 0.83734 0.48826 0.0
C232 C 0.62417 0.78114 0.52474 0.0
C233 C 0.65998 0.78571 0.51618 0.0
C234 C 0.68566 0.81708 0.49481 0.0
C235 C 0.67532 0.84266 0.48108 0.0
H236 H 0.19762 0.77356 0.49795 0.0
H237 H 0.11905 0.81495 0.4844 0.0
H238 H 0.24279 0.8331 0.52833 0.0
H239 H 0.16422 0.8744 0.51513 0.0
H240 H 0.25042 0.9679 0.59571 0.0
H241 H 0.20166 0.9031 0.57825 0.0
H242 H 0.27855 0.89928 0.49707 0.0
H243 H 0.32664 0.96365 0.51389 0.0
C244 C 0.18971 0.79507 0.50212 0.0
C245 C 0.15504 0.78986 0.48849 0.0
C246 C 0.21557 0.8291 0.51941 0.0
C247 C 0.20697 0.85828 0.52382 0.0
C248 C 0.17137 0.8522 0.51226 0.0
C249 C 0.14569 0.81833 0.4945 0.0
C250 C 0.25682 0.95298 0.57435 0.0
C251 C 0.2921 0.97071 0.55597 0.0
C252 C 0.22902 0.91609 0.56437 0.0
C253 C 0.23656 0.89627 0.53653 0.0
C254 C 0.27221 0.91378 0.51895 0.0
C255 C 0.29958 0.9507 0.52837 0.0
H256 H 0.04631 0.37058 0.59027 0.0
H257 H 0.00711 0.25818 0.54608 0.0
H258 H 0.11195 0.38713 0.57761 0.0
H259 H 0.07223 0.27476 0.53293 0.0
H260 H 0.19257 0.30547 0.52546 0.0
H261 H 0.13424 0.2918 0.55781 0.0
H262 H 0.14765 0.39835 0.51897 0.0
H263 H 0.20648 0.41237 0.48733 0.0
C264 C 0.05177 0.3492 0.57856 0.0
C265 C 0.02165 0.31318 0.56889 0.0
C266 C 0.0893 0.35875 0.57109 0.0
C267 C 0.09728 0.33236 0.55403 0.0
C268 C 0.06716 0.29564 0.54647 0.0
C269 C 0.02976 0.28617 0.55381 0.0
C270 C 0.18342 0.32628 0.52443 0.0
C271 C 0.20375 0.35976 0.50349 0.0
C272 C 0.14996 0.31839 0.54285 0.0
C273 C 0.13608 0.34375 0.54057 0.0
C274 C 0.15773 0.37835 0.52155 0.0
C275 C 0.19131 0.3863 0.50322 0.0
H276 H 0.70711 0.67456 0.10054 0.0
H277 H 0.70692 0.71582 0.98899 0.0
H278 H 0.75443 0.65766 0.08063 0.0
H279 H 0.75353 0.69864 0.9691 0.0
H280 H 0.85908 0.69166 0.95118 0.0
H281 H 0.81965 0.71504 0.97827 0.0
H282 H 0.75444 0.60926 0.03779 0.0
H283 H 0.7944 0.58601 0.01106 0.0
C284 C 0.71753 0.68043 0.07196 0.0
C285 C 0.70334 0.69642 0.04627 0.0
C286 C 0.74434 0.67052 0.06051 0.0
C287 C 0.75759 0.67674 0.0233 0.0
C288 C 0.74424 0.6939 -0.00193 0.0
C289 C 0.71738 0.70357 0.00942 0.0
C290 C 0.83649 0.67347 0.97024 0.0
C291 C 0.82956 0.63688 0.97877 0.0
C292 C 0.81387 0.68684 0.98568 0.0
C293 C 0.78384 0.66391 0.00998 0.0
C294 C 0.77762 0.62772 0.01943 0.0
C295 C 0.80029 0.6143 0.00393 0.0
H296 H 0.29148 0.18968 0.00337 0.0
H297 H 0.40712 0.21214 0.00079 0.0
H298 H 0.27143 0.12909 0.03407 0.0
H299 H 0.38696 0.15105 0.03049 0.0
H300 H 0.34442 0.0449 0.098 0.0
H301 H 0.36115 0.1105 0.08538 0.0
H302 H 0.26465 0.07046 0.0111 0.0
H303 H 0.24762 0.00539 0.02433 0.0
C304 C 0.31266 0.18177 0.00967 0.0
C305 C 0.35076 0.20533 -0.00071 0.0
C306 C 0.30117 0.14704 0.02715 0.0
C307 C 0.32751 0.13506 0.03437 0.0
C308 C 0.366 0.15958 0.0257 0.0
C309 C 0.37753 0.19445 0.0084 0.0
C310 C 0.32637 0.05023 0.07966 0.0
C311 C 0.29492 0.02013 0.06189 0.0
C312 C 0.33609 0.08774 0.07224 0.0
C313 C 0.31443 0.09571 0.047 0.0
C314 C 0.28173 0.0654 0.031 0.0
C315 C 0.27208 0.02804 0.0384 0.0
H316 H 0.98132 0.25852 0.00062 0.0
H317 H 0.93478 0.27574 0.10284 0.0
H318 H 0.91794 0.21114 0.98042 0.0
H319 H 0.87093 0.22781 0.08262 0.0
H320 H 0.76619 0.18553 0.00053 0.0
H321 H 0.82725 0.22491 0.03155 0.0
H322 H 0.86469 0.14765 0.99531 0.0
H323 H 0.80407 0.10867 0.96398 0.0
C324 C 0.95754 0.25172 0.01904 0.0
C325 C 0.96291 0.27087 0.05322 0.0
C326 C 0.92124 0.22442 0.00757 0.0
C327 C 0.88946 0.2158 0.02994 0.0
C328 C 0.89491 0.23413 0.06471 0.0
C329 C 0.93141 0.26132 0.07637 0.0
C330 C 0.78732 0.17676 -0.00036 0.0
C331 C 0.78059 0.14433 0.97948 0.0
C332 C 0.82216 0.19915 0.01758 0.0
C333 C 0.85082 0.18948 0.01557 0.0
C334 C 0.84333 0.15607 0.99686 0.0
C335 C 0.80858 0.13373 0.97901 0.0
H336 H 0.4107 0.19772 0.51006 0.0
H337 H 0.29673 0.1042 0.49448 0.0
H338 H 0.39394 0.23944 0.47647 0.0
H339 H 0.28029 0.14535 0.45955 0.0
H340 H 0.25219 0.24205 0.46085 0.0
H341 H 0.26871 0.19454 0.47807 0.0
H342 H 0.37574 0.25761 0.41958 0.0
H343 H 0.35949 0.30609 0.40333 0.0
C344 C 0.38233 0.18593 0.49868 0.0
C345 C 0.35483 0.14796 0.50535 0.0
C346 C 0.37275 0.20974 0.47918 0.0
C347 C 0.33559 0.19586 0.46564 0.0
C348 C 0.30889 0.15718 0.47031 0.0
C349 C 0.31834 0.13356 0.49019 0.0
C350 C 0.27895 0.24547 0.45105 0.0
C351 C 0.3047 0.27794 0.43106 0.0
C352 C 0.28839 0.21804 0.46073 0.0
C353 C 0.32372 0.22232 0.45044 0.0
C354 C 0.34857 0.25377 0.42848 0.0
C355 C 0.33915 0.28137 0.4189 0.0
H356 H 0.87792 0.18859 0.47999 0.0
H357 H 0.78833 0.21325 0.50419 0.0
H358 H 0.83162 0.12784 0.45296 0.0
H359 H 0.74185 0.15209 0.4774 0.0
H360 H 0.66998 0.04451 0.40831 0.0
H361 H 0.7196 0.11038 0.41966 0.0
H362 H 0.78186 0.07075 0.4857 0.0
H363 H 0.73274 0.00547 0.47437 0.0
C364 C 0.84841 0.18129 0.47898 0.0
C365 C 0.83662 0.20539 0.49463 0.0
C366 C 0.82192 0.14647 0.46361 0.0
C367 C 0.78313 0.13508 0.46353 0.0
C368 C 0.77161 0.16025 0.47692 0.0
C369 C 0.79817 0.19515 0.49241 0.0
C370 C 0.69458 0.05002 0.42479 0.0
C371 C 0.69754 0.01999 0.44056 0.0
C372 C 0.72281 0.08761 0.4314 0.0
C373 C 0.75459 0.09563 0.45345 0.0
C374 C 0.75798 0.06545 0.46813 0.0
C375 C 0.72972 0.02806 0.46186 0.0
H376 H 0.98072 0.72049 0.40779 0.0
H377 H 0.96734 0.62626 0.47487 0.0
H378 H 0.91615 0.70548 0.42509 0.0
H379 H 0.90325 0.61116 0.49162 0.0
H380 H 0.77852 0.57456 0.48925 0.0
H381 H 0.83886 0.589 0.46033 0.0
H382 H 0.88586 0.7072 0.4888 0.0
H383 H 0.82568 0.69281 0.51793 0.0
C384 C 0.96386 0.69643 0.42586 0.0
C385 C 0.979 0.67467 0.44021 0.0
C386 C 0.9271 0.68792 0.43578 0.0
C387 C 0.90478 0.65708 0.45953 0.0
C388 C 0.91966 0.6348 0.47291 0.0
C389 C 0.95645 0.64365 0.46356 0.0
C390 C 0.80158 0.60367 0.4889 0.0
C391 C 0.7976 0.63251 0.50613 0.0
C392 C 0.83605 0.6119 0.47243 0.0
C393 C 0.86694 0.64917 0.47248 0.0
C394 C 0.86237 0.67829 0.48812 0.0
C395 C 0.82806 0.67 0.50502 0.0
H396 H 0.22722 0.32493 0.30915 0.0
H397 H 0.24702 0.43521 0.34307 0.0
H398 H 0.18961 0.32526 0.25626 0.0
H399 H 0.20828 0.43512 0.29069 0.0
H400 H 0.16466 0.43492 0.17095 0.0
H401 H 0.20469 0.43812 0.22344 0.0
H402 H 0.1288 0.31909 0.24566 0.0
H403 H 0.08962 0.31574 0.19259 0.0
C404 C 0.2236 0.34932 0.30521 0.0
C405 C 0.23997 0.38 0.33028 0.0
C406 C 0.20173 0.34937 0.27509 0.0
C407 C 0.19539 0.37996 0.26949 0.0
C408 C 0.21273 0.41119 0.29401 0.0
C409 C 0.23488 0.41124 0.32406 0.0
C410 C 0.15641 0.40956 0.18731 0.0
C411 C 0.12411 0.37504 0.1776 0.0
C412 C 0.1793 0.4114 0.21744 0.0
C413 C 0.17025 0.37876 0.23855 0.0
C414 C 0.13716 0.34458 0.22949 0.0
C415 C 0.11445 0.34271 0.19929 0.0
H416 H 0.6576 0.78322 0.18539 0.0
H417 H 0.53569 0.72328 0.17218 0.0
H418 H 0.65202 0.81671 0.23942 0.0
H419 H 0.53011 0.75727 0.22633 0.0
H420 H 0.54074 0.8004 0.35095 0.0
H421 H 0.54051 0.76441 0.29578 0.0
H422 H 0.63466 0.86593 0.2494 0.0
H423 H 0.6352 0.90163 0.30443 0.0
C424 C 0.62956 0.77704 0.19417 0.0
C425 C 0.5971 0.75072 0.17448 0.0
C426 C 0.62639 0.79647 0.22494 0.0
C427 C 0.59066 0.79003 0.2368 0.0
C428 C 0.55801 0.76279 0.21787 0.0
C429 C 0.56121 0.74338 0.18689 0.0
C430 C 0.56096 0.81508 0.32866 0.0
C431 C 0.58818 0.85375 0.33212 0.0
C432 C 0.56082 0.79449 0.29709 0.0
C433 C 0.58798 0.81222 0.26856 0.0
C434 C 0.61392 0.85129 0.2713 0.0
C435 C 0.61402 0.87182 0.3027 0.0
H436 H 0.22735 0.79505 0.12928 0.0
H437 H 0.26856 0.89629 0.19668 0.0
H438 H 0.19599 0.75606 0.18452 0.0
H439 H 0.23789 0.85724 0.25196 0.0
H440 H 0.20463 0.77071 0.34801 0.0
H441 H 0.24123 0.80485 0.29262 0.0
H442 H 0.13919 0.75115 0.22575 0.0
H443 H 0.10228 0.71743 0.28135 0.0
C444 C 0.23032 0.8089 0.15603 0.0
C445 C 0.25032 0.84867 0.15877 0.0
C446 C 0.21221 0.78662 0.18749 0.0
C447 C 0.2145 0.80372 0.22234 0.0
C448 C 0.2359 0.8434 0.22541 0.0
C449 C 0.25335 0.8657 0.19382 0.0
C450 C 0.19006 0.76586 0.3214 0.0
C451 C 0.15058 0.74153 0.31895 0.0
C452 C 0.211 0.78549 0.28982 0.0
C453 C 0.19298 0.78059 0.25506 0.0
C454 C 0.15375 0.75516 0.25224 0.0
C455 C 0.13265 0.73604 0.28401 0.0
H456 H 0.88248 0.59385 0.78978 0.0
H457 H 0.77981 0.54709 0.85594 0.0
H458 H 0.84622 0.59074 0.73373 0.0
H459 H 0.74387 0.54493 0.80005 0.0
H460 H 0.72152 0.61276 0.70299 0.0
H461 H 0.75136 0.60367 0.75861 0.0
H462 H 0.7873 0.53809 0.693 0.0
H463 H 0.75664 0.54629 0.63751 0.0
C464 C 0.85212 0.58243 0.7922 0.0
C465 C 0.83394 0.57073 0.82714 0.0
C466 C 0.83142 0.58059 0.76019 0.0
C467 C 0.79238 0.56776 0.76278 0.0
C468 C 0.77399 0.55504 0.79747 0.0
C469 C 0.79452 0.55611 0.82931 0.0
C470 C 0.73534 0.59597 0.7006 0.0
C471 C 0.73679 0.58022 0.66602 0.0
C472 C 0.75224 0.59067 0.73238 0.0
C473 C 0.77157 0.57021 0.72992 0.0
C474 C 0.77259 0.55401 0.69549 0.0
C475 C 0.75495 0.55859 0.66389 0.0
H476 H 0.44786 0.26459 0.84256 0.0
H477 H 0.334 0.23786 0.81366 0.0
H478 H 0.44826 0.22685 0.78935 0.0
H479 H 0.33461 0.20078 0.76029 0.0
H480 H 0.33021 0.10173 0.69736 0.0
H481 H 0.33299 0.14074 0.75052 0.0
H482 H 0.4479 0.2244 0.72048 0.0
H483 H 0.44529 0.18498 0.66755 0.0
C484 C 0.42314 0.25108 0.82455 0.0
C485 C 0.39085 0.25408 0.83235 0.0
C486 C 0.42338 0.22951 0.79405 0.0
C487 C 0.3913 0.21045 0.77082 0.0
C488 C 0.35949 0.21446 0.77807 0.0
C489 C 0.35927 0.236 0.80847 0.0
C490 C 0.35618 0.12829 0.70229 0.0
C491 C 0.3875 0.14032 0.67825 0.0
C492 C 0.35767 0.15082 0.73256 0.0
C493 C 0.39054 0.1859 0.73951 0.0
C494 C 0.42225 0.19745 0.71603 0.0
C495 C 0.42072 0.17491 0.68567 0.0
H496 H 0.73258 0.19543 0.83073 0.0
H497 H 0.73679 0.09815 0.78837 0.0
H498 H 0.77196 0.23341 0.77815 0.0
H499 H 0.77574 0.13589 0.73591 0.0
H500 H 0.88311 0.22392 0.67811 0.0
H501 H 0.84183 0.18901 0.73037 0.0
H502 H 0.77252 0.23964 0.70787 0.0
H503 H 0.81424 0.27503 0.65542 0.0
C504 C 0.74148 0.18205 0.80993 0.0
C505 C 0.73179 0.14388 0.81375 0.0
C506 C 0.76395 0.20377 0.77984 0.0
C507 C 0.77733 0.18775 0.75322 0.0
C508 C 0.76644 0.14921 0.75639 0.0
C509 C 0.74388 0.12751 0.78628 0.0
C510 C 0.85928 0.22792 0.68447 0.0
C511 C 0.8518 0.25208 0.66257 0.0
C512 C 0.83545 0.20767 0.71423 0.0
C513 C 0.80362 0.21116 0.72286 0.0
C514 C 0.79688 0.23643 0.70187 0.0
C515 C 0.82072 0.25664 0.67188 0.0
H516 H 0.06169 0.45992 0.99727 0.0
H517 H 0.98357 0.4149 0.09041 0.0
H518 H 0.02656 0.48909 0.97245 0.0
H519 H 0.94736 0.44256 0.06487 0.0
H520 H 0.91361 0.52923 0.0266 0.0
H521 H 0.94726 0.4995 0.05354 0.0
H522 H 0.96852 0.47222 0.94212 0.0
H523 H 0.93627 0.50355 0.91526 0.0
C524 C 0.03708 0.45643 0.01251 0.0
C525 C 0.02543 0.43527 0.0458 0.0
C526 C 0.01662 0.47272 -0.00194 0.0
C527 C 0.98373 0.46777 0.01633 0.0
C528 C 0.97269 0.44731 0.05019 0.0
C529 C -0.00656 0.43141 0.06486 0.0
C530 C 0.925 0.51637 0.00791 0.0
C531 C 0.92245 0.5188 0.96883 0.0
C532 C 0.94431 0.49928 0.02335 0.0
C533 C 0.96111 0.48385 4e-05 0.0
C534 C 0.95684 0.48469 0.96093 0.0
C535 C 0.93793 0.5022 0.9455 0.0
H536 H 0.5113 0.60346 -0.00174 0.0
H537 H 0.57002 0.57665 0.08297 0.0
H538 H 0.48444 0.53952 0.97277 0.0
H539 H 0.54493 0.51356 0.05655 0.0
H540 H 0.46144 0.39106 0.02369 0.0
H541 H 0.4903 0.45457 0.04962 0.0
H542 H 0.50077 0.50032 0.93798 0.0
H543 H 0.46995 0.43617 0.91227 0.0
C544 C 0.51829 0.58379 0.01151 0.0
C545 C 0.54248 0.5949 0.04274 0.0
C546 C 0.50337 0.54731 0.9966 0.0
C547 C 0.5128 0.52135 0.01229 0.0
C548 C 0.53658 0.53247 0.04397 0.0
C549 C 0.551 0.56871 0.05916 0.0
C550 C 0.47048 0.41473 0.00459 0.0
C551 C 0.46334 0.40864 0.96595 0.0
C552 C 0.48712 0.45127 0.01948 0.0
C553 C 0.49753 0.48272 0.99601 0.0
C554 C 0.49223 0.47673 0.95704 0.0
C555 C 0.47508 0.44003 0.94219 0.0
H556 H 0.36693 0.95862 0.95346 0.0
H557 H 0.416 0.95115 0.05827 0.0
H558 H 0.43038 -0.00392 0.92669 0.0
H559 H 0.47938 0.98801 0.03132 0.0
H560 H 0.55068 0.02571 0.88401 0.0
H561 H 0.48554 0.99125 0.90716 0.0
H562 H 0.5217 0.0536 0.01135 0.0
H563 H 0.58694 0.08757 0.98846 0.0
C564 C 0.39126 0.9645 0.97059 0.0
C565 C 0.38654 0.952 0.00797 0.0
C566 C 0.42759 0.98598 0.95525 0.0
C567 C 0.4599 -0.00455 0.97704 0.0
C568 C 0.45506 0.9819 0.01407 0.0
C569 C 0.41875 0.9604 0.02938 0.0
C570 C 0.54457 0.03262 0.91155 0.0
C571 C 0.57394 0.05916 0.93453 0.0
C572 C 0.50725 0.01284 0.92483 0.0
C573 C 0.49861 0.01921 0.96134 0.0
C574 C 0.52764 0.04743 0.98341 0.0
C575 C 0.56493 0.06722 0.97013 0.0
H576 H 0.55573 0.94012 0.54297 0.0
H577 H 0.50896 0.94221 0.43485 0.0
H578 H 0.52775 0.97569 0.57006 0.0
H579 H 0.48057 0.97723 0.46202 0.0
H580 H 0.47665 0.07833 0.50813 0.0
H581 H 0.50561 0.04206 0.4858 0.0
H582 H 0.46711 0.97267 0.58553 0.0
H583 H 0.43854 0.00939 0.60819 0.0
C584 C 0.53886 0.94755 0.52516 0.0
C585 C 0.53468 0.93856 0.48674 0.0
C586 C 0.52288 0.96795 0.54069 0.0
C587 C 0.50253 0.97984 0.51804 0.0
C588 C 0.49686 0.96923 0.48001 0.0
C589 C 0.51275 0.9488 0.46453 0.0
C590 C 0.47496 0.05579 0.52563 0.0
C591 C 0.45523 0.04663 0.55985 0.0
C592 C 0.49115 0.03472 0.51263 0.0
C593 C 0.48798 0.00401 0.53355 0.0
C594 C 0.47002 -0.00386 0.56876 0.0
C595 C 0.45375 0.01724 0.58177 0.0
H596 H 0.95428 0.38005 0.4563 0.0
H597 H 0.95242 0.42926 0.56313 0.0
H598 H -0.00822 0.44339 0.42956 0.0
H599 H 0.98921 0.49255 0.53623 0.0
H600 H 0.08933 0.59866 0.49198 0.0
H601 H 0.05415 0.53347 0.51446 0.0
H602 H 0.98875 0.49973 0.41198 0.0
H603 H 0.02451 0.56485 0.38917 0.0
C604 C 0.96136 0.4044 0.47389 0.0
C605 C 0.95052 0.39975 0.51184 0.0
C606 C 0.98286 0.44067 0.45857 0.0
C607 C -0.00605 0.47298 0.48091 0.0
C608 C 0.98187 0.46822 0.51851 0.0
C609 C 0.96041 0.43198 0.53382 0.0
C610 C 0.06799 0.57717 0.47393 0.0
C611 C 0.05954 0.58687 0.43891 0.0
C612 C 0.04752 0.53992 0.48699 0.0
C613 C 0.01814 0.51161 0.46532 0.0
C614 C 0.01123 0.52088 0.42933 0.0
C615 C 0.03176 0.55818 0.41624 0.0
H616 H 0.42276 0.46811 0.41876 0.0
H617 H 0.38133 0.42216 0.52908 0.0
H618 H 0.48784 0.49938 0.44227 0.0
H619 H 0.44619 0.45223 0.55229 0.0
H620 H 0.56534 0.54261 0.5892 0.0
H621 H 0.50006 0.51206 0.56706 0.0
H622 H 0.53438 0.48332 0.46302 0.0
H623 H 0.60005 0.51508 0.48483 0.0
C624 C 0.42757 0.46491 0.44807 0.0
C625 C 0.39699 0.44279 0.4721 0.0
C626 C 0.46485 0.48243 0.46146 0.0
C627 C 0.4723 0.47801 0.49911 0.0
C628 C 0.44153 0.45657 0.52326 0.0
C629 C 0.40431 0.43927 0.50993 0.0
C630 C 0.55887 0.52937 0.56177 0.0
C631 C 0.58779 0.53123 0.53873 0.0
C632 C 0.52141 0.51181 0.54907 0.0
C633 C 0.51197 0.49549 0.51311 0.0
C634 C 0.54079 0.49629 0.49056 0.0
C635 C 0.57833 0.51407 0.5032 0.0
loop_
_geom_bond_atom_site_label_1
_geom_bond_atom_site_label_2
_geom_bond_distance
_geom_bond_site_symmetry_2
_ccdc_geom_bond_type
In0 O1 2.294 . S
In0 O2 2.326 . S
In0 O6 2.266 . S
In0 O7 2.326 . S
In0 O8 2.266 . S
In0 O9 2.326 . S
In0 O11 2.294 . S
In0 O12 2.326 . S
O1 In0 2.294 . S
O1 C10 1.240 . S
O2 In0 2.326 . S
O2 C10 1.252 . S
C3 O6 1.252 . S
C3 O7 1.260 . S
C4 O11 1.240 . S
C4 O12 1.252 . S
C5 O8 1.252 . S
C5 O9 1.260 . S
O6 In0 2.266 . S
O6 C3 1.252 . S
O7 In0 2.326 . S
O7 C3 1.260 . S
O8 In0 2.266 . S
O8 C5 1.252 . S
O9 In0 2.326 . S
O9 C5 1.260 . S
C10 O1 1.240 . S
C10 O2 1.252 . S
O11 In0 2.294 . S
O11 C4 1.240 . S
O12 In0 2.326 . S
O12 C4 1.252 . S
In13 O14 2.294 . S
In13 O15 2.326 . S
In13 O19 2.266 . S
In13 O20 2.326 . S
In13 O21 2.266 . S
In13 O22 2.326 . S
In13 O24 2.294 . S
In13 O25 2.326 . S
O14 In13 2.294 . S
O14 C23 1.240 . S
O15 In13 2.326 . S
O15 C23 1.252 . S
C16 O19 1.252 . S
C16 O20 1.260 . S
C17 O24 1.240 . S
C17 O25 1.252 . S
C18 O21 1.252 . S
C18 O22 1.260 . S
O19 In13 2.266 . S
O19 C16 1.252 . S
O20 In13 2.326 . S
O20 C16 1.260 . S
O21 In13 2.266 . S
O21 C18 1.252 . S
O22 In13 2.326 . S
O22 C18 1.260 . S
C23 O14 1.240 . S
C23 O15 1.252 . S
O24 In13 2.294 . S
O24 C17 1.240 . S
O25 In13 2.326 . S
O25 C17 1.252 . S
In26 O27 2.294 . S
In26 O28 2.326 . S
In26 O32 2.266 . S
In26 O33 2.326 . S
In26 O34 2.266 . S
In26 O35 2.326 . S
In26 O37 2.294 . S
In26 O38 2.326 . S
O27 In26 2.294 . S
O27 C36 1.240 . S
O28 In26 2.326 . S
O28 C36 1.252 . S
C29 O32 1.252 . S
C29 O33 1.260 . S
C30 O37 1.240 . S
C30 O38 1.252 . S
C31 O34 1.252 . S
C31 O35 1.260 . S
O32 In26 2.266 . S
O32 C29 1.252 . S
O33 In26 2.326 . S
O33 C29 1.260 . S
O34 In26 2.266 . S
O34 C31 1.252 . S
O35 In26 2.326 . S
O35 C31 1.260 . S
C36 O27 1.240 . S
C36 O28 1.252 . S
O37 In26 2.294 . S
O37 C30 1.240 . S
O38 In26 2.326 . S
O38 C30 1.252 . S
In39 O40 2.294 . S
In39 O41 2.326 . S
In39 O45 2.266 . S
In39 O46 2.326 . S
In39 O47 2.266 . S
In39 O48 2.326 . S
In39 O50 2.294 . S
In39 O51 2.326 . S
O40 In39 2.294 . S
O40 C49 1.240 . S
O41 In39 2.326 . S
O41 C49 1.252 . S
C42 O45 1.252 . S
C42 O46 1.260 . S
C43 O50 1.240 . S
C43 O51 1.252 . S
C44 O47 1.252 . S
C44 O48 1.260 . S
O45 In39 2.266 . S
O45 C42 1.252 . S
O46 In39 2.326 . S
O46 C42 1.260 . S
O47 In39 2.266 . S
O47 C44 1.252 . S
O48 In39 2.326 . S
O48 C44 1.260 . S
C49 O40 1.240 . S
C49 O41 1.252 . S
O50 In39 2.294 . S
O50 C43 1.240 . S
O51 In39 2.326 . S
O51 C43 1.252 . S
In52 O53 2.294 . S
In52 O54 2.326 . S
In52 O58 2.266 . S
In52 O59 2.326 . S
In52 O60 2.266 . S
In52 O61 2.326 . S
In52 O63 2.294 . S
In52 O64 2.326 . S
O53 In52 2.294 . S
O53 C62 1.240 . S
O54 In52 2.326 . S
O54 C62 1.252 . S
C55 O58 1.252 . S
C55 O59 1.260 . S
C56 O63 1.240 . S
C56 O64 1.252 . S
C57 O60 1.252 . S
C57 O61 1.260 . S
O58 In52 2.266 . S
O58 C55 1.252 . S
O59 In52 2.326 . S
O59 C55 1.260 . S
O60 In52 2.266 . S
O60 C57 1.252 . S
O61 In52 2.326 . S
O61 C57 1.260 . S
C62 O53 1.240 . S
C62 O54 1.252 . S
O63 In52 2.294 . S
O63 C56 1.240 . S
O64 In52 2.326 . S
O64 C56 1.252 . S
In65 O66 2.294 . S
In65 O67 2.326 . S
In65 O71 2.266 . S
In65 O72 2.326 . S
In65 O73 2.266 . S
In65 O74 2.326 . S
In65 O76 2.294 . S
In65 O77 2.326 . S
O66 In65 2.294 . S
O66 C75 1.240 . S
O67 In65 2.326 . S
O67 C75 1.252 . S
C68 O71 1.252 . S
C68 O72 1.260 . S
C69 O76 1.240 . S
C69 O77 1.252 . S
C70 O73 1.252 . S
C70 O74 1.260 . S
O71 In65 2.266 . S
O71 C68 1.252 . S
O72 In65 2.326 . S
O72 C68 1.260 . S
O73 In65 2.266 . S
O73 C70 1.252 . S
O74 In65 2.326 . S
O74 C70 1.260 . S
C75 O66 1.240 . S
C75 O67 1.252 . S
O76 In65 2.294 . S
O76 C69 1.240 . S
O77 In65 2.326 . S
O77 C69 1.252 . S
In78 O79 2.294 . S
In78 O80 2.326 . S
In78 O84 2.266 . S
In78 O85 2.326 . S
In78 O86 2.266 . S
In78 O87 2.326 . S
In78 O89 2.294 . S
In78 O90 2.326 . S
O79 In78 2.294 . S
O79 C88 1.240 . S
O80 In78 2.326 . S
O80 C88 1.252 . S
C81 O84 1.252 . S
C81 O85 1.260 . S
C82 O89 1.240 . S
C82 O90 1.252 . S
C83 O86 1.252 . S
C83 O87 1.260 . S
O84 In78 2.266 . S
O84 C81 1.252 . S
O85 In78 2.326 . S
O85 C81 1.260 . S
O86 In78 2.266 . S
O86 C83 1.252 . S
O87 In78 2.326 . S
O87 C83 1.260 . S
C88 O79 1.240 . S
C88 O80 1.252 . S
O89 In78 2.294 . S
O89 C82 1.240 . S
O90 In78 2.326 . S
O90 C82 1.252 . S
In91 O92 2.294 . S
In91 O93 2.326 . S
In91 O97 2.266 . S
In91 O98 2.326 . S
In91 O99 2.266 . S
In91 O100 2.326 . S
In91 O102 2.294 . S
In91 O103 2.326 . S
O92 In91 2.294 . S
O92 C101 1.240 . S
O93 In91 2.326 . S
O93 C101 1.252 . S
C94 O97 1.252 . S
C94 O98 1.260 . S
C95 O102 1.240 . S
C95 O103 1.252 . S
C96 O99 1.252 . S
C96 O100 1.260 . S
O97 In91 2.266 . S
O97 C94 1.252 . S
O98 In91 2.326 . S
O98 C94 1.260 . S
O99 In91 2.266 . S
O99 C96 1.252 . S
O100 In91 2.326 . S
O100 C96 1.260 . S
C101 O92 1.240 . S
C101 O93 1.252 . S
O102 In91 2.294 . S
O102 C95 1.240 . S
O103 In91 2.326 . S
O103 C95 1.252 . S
In104 O105 2.294 . S
In104 O106 2.326 . S
In104 O110 2.266 . S
In104 O111 2.326 . S
In104 O112 2.266 . S
In104 O113 2.326 . S
In104 O115 2.294 . S
In104 O116 2.326 . S
O105 In104 2.294 . S
O105 C114 1.240 . S
O106 In104 2.326 . S
O106 C114 1.252 . S
C107 O110 1.252 . S
C107 O111 1.260 . S
C108 O115 1.240 . S
C108 O116 1.252 . S
C109 O112 1.252 . S
C109 O113 1.260 . S
O110 In104 2.266 . S
O110 C107 1.252 . S
O111 In104 2.326 . S
O111 C107 1.260 . S
O112 In104 2.266 . S
O112 C109 1.252 . S
O113 In104 2.326 . S
O113 C109 1.260 . S
C114 O105 1.240 . S
C114 O106 1.252 . S
O115 In104 2.294 . S
O115 C108 1.240 . S
O116 In104 2.326 . S
O116 C108 1.252 . S
In117 O118 2.294 . S
In117 O119 2.326 . S
In117 O123 2.266 . S
In117 O124 2.326 . S
In117 O125 2.266 . S
In117 O126 2.326 . S
In117 O128 2.294 . S
In117 O129 2.326 . S
O118 In117 2.294 . S
O118 C127 1.240 . S
O119 In117 2.326 . S
O119 C127 1.252 . S
C120 O123 1.252 . S
C120 O124 1.260 . S
C121 O128 1.240 . S
C121 O129 1.252 . S
C122 O125 1.252 . S
C122 O126 1.260 . S
O123 In117 2.266 . S
O123 C120 1.252 . S
O124 In117 2.326 . S
O124 C120 1.260 . S
O125 In117 2.266 . S
O125 C122 1.252 . S
O126 In117 2.326 . S
O126 C122 1.260 . S
C127 O118 1.240 . S
C127 O119 1.252 . S
O128 In117 2.294 . S
O128 C121 1.240 . S
O129 In117 2.326 . S
O129 C121 1.252 . S
In130 O131 2.294 . S
In130 O132 2.326 . S
In130 O136 2.266 . S
In130 O137 2.326 . S
In130 O138 2.266 . S
In130 O139 2.326 . S
In130 O141 2.294 . S
In130 O142 2.326 . S
O131 In130 2.294 . S
O131 C140 1.240 . S
O132 In130 2.326 . S
O132 C140 1.252 . S
C133 O136 1.252 . S
C133 O137 1.260 . S
C134 O141 1.240 . S
C134 O142 1.252 . S
C135 O138 1.252 . S
C135 O139 1.260 . S
O136 In130 2.266 . S
O136 C133 1.252 . S
O137 In130 2.326 . S
O137 C133 1.260 . S
O138 In130 2.266 . S
O138 C135 1.252 . S
O139 In130 2.326 . S
O139 C135 1.260 . S
C140 O131 1.240 . S
C140 O132 1.252 . S
O141 In130 2.294 . S
O141 C134 1.240 . S
O142 In130 2.326 . S
O142 C134 1.252 . S
In143 O144 2.294 . S
In143 O145 2.326 . S
In143 O149 2.266 . S
In143 O150 2.326 . S
In143 O151 2.266 . S
In143 O152 2.326 . S
In143 O154 2.294 . S
In143 O155 2.326 . S
O144 In143 2.294 . S
O144 C153 1.240 . S
O145 In143 2.326 . S
O145 C153 1.252 . S
C146 O149 1.252 . S
C146 O150 1.260 . S
C147 O154 1.240 . S
C147 O155 1.252 . S
C148 O151 1.252 . S
C148 O152 1.260 . S
O149 In143 2.266 . S
O149 C146 1.252 . S
O150 In143 2.326 . S
O150 C146 1.260 . S
O151 In143 2.266 . S
O151 C148 1.252 . S
O152 In143 2.326 . S
O152 C148 1.260 . S
C153 O144 1.240 . S
C153 O145 1.252 . S
O154 In143 2.294 . S
O154 C147 1.240 . S
O155 In143 2.326 . S
O155 C147 1.252 . S
H156 C164 0.950 . S
H157 C169 0.950 . S
H158 C166 0.950 . S
H159 C168 0.950 . S
H160 C170 0.950 . S
H161 C172 0.950 . S
H162 C174 0.950 . S
H163 C175 0.950 . S
C164 H156 0.950 . S
C164 C165 1.386 1_556 S
C164 C166 1.391 . S
C165 C164 1.386 1_554 S
C165 C169 1.393 . S
C166 H158 0.950 . S
C166 C164 1.391 . S
C166 C167 1.400 1_556 S
C167 C166 1.400 1_554 S
C167 C168 1.398 . S
C167 C173 1.491 1_554 S
C168 H159 0.950 . S
C168 C167 1.398 . S
C168 C169 1.391 . S
C169 H157 0.950 . S
C169 C165 1.393 . S
C169 C168 1.391 . S
C170 H160 0.950 . S
C170 C171 1.386 1_554 S
C170 C172 1.391 . S
C171 C170 1.386 1_556 S
C171 C175 1.393 . S
C172 H161 0.950 . S
C172 C170 1.391 . S
C172 C173 1.400 1_554 S
C173 C167 1.491 1_556 S
C173 C172 1.400 1_556 S
C173 C174 1.398 . S
C174 H162 0.950 . S
C174 C173 1.398 . S
C174 C175 1.391 . S
C175 H163 0.950 . S
C175 C171 1.393 . S
C175 C174 1.391 . S
H176 C184 0.950 . S
H177 C189 0.950 1_556 S
H178 C186 0.950 . S
H179 C188 0.950 . S
H180 C190 0.950 . S
H181 C192 0.950 . S
H182 C194 0.950 . S
H183 C195 0.945 1_554 S
C184 H176 0.950 . S
C184 C185 1.386 . S
C184 C186 1.391 . S
C185 C184 1.386 . S
C185 C189 1.393 . S
C186 H178 0.950 . S
C186 C184 1.391 . S
C186 C187 1.400 . S
C187 C186 1.400 . S
C187 C188 1.398 1_554 S
C187 C193 1.491 1_554 S
C188 H179 0.950 . S
C188 C187 1.398 1_556 S
C188 C189 1.391 1_556 S
C189 H177 0.950 1_554 S
C189 C185 1.393 . S
C189 C188 1.391 1_554 S
C190 H180 0.950 . S
C190 C191 1.386 . S
C190 C192 1.391 . S
C191 C190 1.386 . S
C191 C195 1.393 . S
C192 H181 0.950 . S
C192 C190 1.391 . S
C192 C193 1.400 . S
C193 C187 1.491 1_556 S
C193 C192 1.400 . S
C193 C194 1.398 1_556 S
C194 H182 0.950 . S
C194 C193 1.398 1_554 S
C194 C195 1.391 1_554 S
C195 H183 0.945 1_556 S
C195 C191 1.393 . S
C195 C194 1.391 1_556 S
H196 C204 0.950 . S
H197 C209 0.950 . S
H198 C206 0.950 . S
H199 C208 0.950 . S
H200 C210 0.950 . S
H201 C212 0.950 . S
H202 C214 0.950 . S
H203 C215 0.950 1_655 S
C204 H196 0.950 . S
C204 C205 1.386 . S
C204 C206 1.391 . S
C205 C204 1.386 . S
C205 C209 1.393 1_554 S
C206 H198 0.950 . S
C206 C204 1.391 . S
C206 C207 1.400 . S
C207 C206 1.400 . S
C207 C208 1.398 1_554 S
C207 C213 1.491 1_554 S
C208 H199 0.950 . S
C208 C207 1.398 1_556 S
C208 C209 1.391 . S
C209 H197 0.950 . S
C209 C205 1.393 1_556 S
C209 C208 1.391 . S
C210 H200 0.950 . S
C210 C211 1.386 . S
C210 C212 1.391 . S
C211 C210 1.386 . S
C211 C215 1.393 1_556 S
C212 H201 0.950 . S
C212 C210 1.391 . S
C212 C213 1.400 . S
C213 C207 1.491 1_556 S
C213 C212 1.400 . S
C213 C214 1.398 1_556 S
C214 H202 0.950 . S
C214 C213 1.398 1_554 S
C214 C215 1.391 . S
C215 H203 0.950 1_455 S
C215 C211 1.393 1_554 S
C215 C214 1.391 . S
H216 C224 0.950 . S
H217 C229 0.950 . S
H218 C226 0.950 . S
H219 C228 0.950 . S
H220 C230 0.950 . S
H221 C232 0.950 . S
H222 C234 0.950 . S
H223 C235 0.950 . S
C224 H216 0.950 . S
C224 C225 1.386 . S
C224 C226 1.391 . S
C225 C224 1.386 . S
C225 C229 1.393 . S
C226 H218 0.950 . S
C226 C224 1.391 . S
C226 C227 1.400 . S
C227 C226 1.400 . S
C227 C228 1.398 . S
C227 C233 1.491 . S
C228 H219 0.950 . S
C228 C227 1.398 . S
C228 C229 1.391 . S
C229 H217 0.950 . S
C229 C225 1.393 . S
C229 C228 1.391 . S
C230 H220 0.950 . S
C230 C231 1.386 . S
C230 C232 1.391 . S
C231 C230 1.386 . S
C231 C235 1.393 . S
C232 H221 0.950 . S
C232 C230 1.391 . S
C232 C233 1.400 . S
C233 C227 1.491 . S
C233 C232 1.400 . S
C233 C234 1.398 . S
C234 H222 0.950 . S
C234 C233 1.398 . S
C234 C235 1.391 . S
C235 H223 0.950 . S
C235 C231 1.393 . S
C235 C234 1.391 . S
H236 C244 0.950 . S
H237 C249 0.950 . S
H238 C246 0.950 . S
H239 C248 0.950 . S
H240 C250 0.950 . S
H241 C252 0.950 . S
H242 C254 0.950 . S
H243 C255 0.950 . S
C244 H236 0.950 . S
C244 C245 1.386 . S
C244 C246 1.391 . S
C245 C244 1.386 . S
C245 C249 1.393 . S
C246 H238 0.950 . S
C246 C244 1.391 . S
C246 C247 1.400 . S
C247 C246 1.400 . S
C247 C248 1.398 . S
C247 C253 1.491 . S
C248 H239 0.950 . S
C248 C247 1.398 . S
C248 C249 1.391 . S
C249 H237 0.950 . S
C249 C245 1.393 . S
C249 C248 1.391 . S
C250 H240 0.950 . S
C250 C251 1.386 . S
C250 C252 1.391 . S
C251 C250 1.386 . S
C251 C255 1.393 . S
C252 H241 0.950 . S
C252 C250 1.391 . S
C252 C253 1.400 . S
C253 C247 1.491 . S
C253 C252 1.400 . S
C253 C254 1.398 . S
C254 H242 0.950 . S
C254 C253 1.398 . S
C254 C255 1.391 . S
C255 H243 0.950 . S
C255 C251 1.393 . S
C255 C254 1.391 . S
H256 C264 0.950 . S
H257 C269 0.950 1_655 S
H258 C266 0.950 . S
H259 C268 0.950 . S
H260 C270 0.950 . S
H261 C272 0.950 . S
H262 C274 0.950 . S
H263 C275 0.950 . S
C264 H256 0.950 . S
C264 C265 1.386 . S
C264 C266 1.391 . S
C265 C264 1.386 . S
C265 C269 1.393 . S
C266 H258 0.950 . S
C266 C264 1.391 . S
C266 C267 1.400 . S
C267 C266 1.400 . S
C267 C268 1.398 . S
C267 C273 1.491 . S
C268 H259 0.950 . S
C268 C267 1.398 . S
C268 C269 1.391 . S
C269 H257 0.950 1_455 S
C269 C265 1.393 . S
C269 C268 1.391 . S
C270 H260 0.950 . S
C270 C271 1.386 . S
C270 C272 1.391 . S
C271 C270 1.386 . S
C271 C275 1.393 . S
C272 H261 0.950 . S
C272 C270 1.391 . S
C272 C273 1.400 . S
C273 C267 1.491 . S
C273 C272 1.400 . S
C273 C274 1.398 . S
C274 H262 0.950 . S
C274 C273 1.398 . S
C274 C275 1.391 . S
C275 H263 0.950 . S
C275 C271 1.393 . S
C275 C274 1.391 . S
H276 C284 0.950 . S
H277 C289 0.950 . S
H278 C286 0.950 . S
H279 C288 0.950 . S
H280 C290 0.950 . S
H281 C292 0.950 . S
H282 C294 0.950 . S
H283 C295 0.950 . S
C284 H276 0.950 . S
C284 C285 1.386 . S
C284 C286 1.391 . S
C285 C284 1.386 . S
C285 C289 1.393 . S
C286 H278 0.950 . S
C286 C284 1.391 . S
C286 C287 1.400 . S
C287 C286 1.400 . S
C287 C288 1.398 1_554 S
C287 C293 1.491 1_554 S
C288 H279 0.950 . S
C288 C287 1.398 1_556 S
C288 C289 1.391 1_556 S
C289 H277 0.950 . S
C289 C285 1.393 . S
C289 C288 1.391 1_554 S
C290 H280 0.950 . S
C290 C291 1.386 . S
C290 C292 1.391 . S
C291 C290 1.386 . S
C291 C295 1.393 . S
C292 H281 0.950 . S
C292 C290 1.391 . S
C292 C293 1.400 . S
C293 C287 1.491 1_556 S
C293 C292 1.400 . S
C293 C294 1.398 1_556 S
C294 H282 0.950 . S
C294 C293 1.398 1_554 S
C294 C295 1.391 1_554 S
C295 H283 0.950 . S
C295 C291 1.393 . S
C295 C294 1.391 1_556 S
H296 C304 0.950 . S
H297 C309 0.950 1_554 S
H298 C306 0.950 . S
H299 C308 0.950 . S
H300 C310 0.950 . S
H301 C312 0.950 . S
H302 C314 0.950 . S
H303 C315 0.950 1_566 S
C304 H296 0.950 . S
C304 C305 1.386 . S
C304 C306 1.391 . S
C305 C304 1.386 . S
C305 C309 1.393 . S
C306 H298 0.950 . S
C306 C304 1.391 . S
C306 C307 1.400 . S
C307 C306 1.400 . S
C307 C308 1.398 1_556 S
C307 C313 1.491 1_556 S
C308 H299 0.950 . S
C308 C307 1.398 1_554 S
C308 C309 1.391 1_554 S
C309 H297 0.950 1_556 S
C309 C305 1.393 . S
C309 C308 1.391 1_556 S
C310 H300 0.950 . S
C310 C311 1.386 . S
C310 C312 1.391 . S
C311 C310 1.386 . S
C311 C315 1.393 . S
C312 H301 0.950 . S
C312 C310 1.391 . S
C312 C313 1.400 . S
C313 C307 1.491 1_554 S
C313 C312 1.400 . S
C313 C314 1.398 1_554 S
C314 H302 0.950 . S
C314 C313 1.398 1_556 S
C314 C315 1.391 1_556 S
C315 H303 0.950 1_544 S
C315 C311 1.393 . S
C315 C314 1.391 1_554 S
H316 C324 0.950 1_455 S
H317 C329 0.950 . S
H318 C326 0.950 . S
H319 C328 0.950 . S
H320 C330 0.950 . S
H321 C332 0.950 . S
H322 C334 0.950 . S
H323 C335 0.950 . S
C324 H316 0.950 1_655 S
C324 C325 1.386 1_556 S
C324 C326 1.391 . S
C325 C324 1.386 1_554 S
C325 C329 1.393 . S
C326 H318 0.950 . S
C326 C324 1.391 . S
C326 C327 1.400 1_556 S
C327 C326 1.400 1_554 S
C327 C328 1.398 . S
C327 C333 1.491 1_554 S
C328 H319 0.950 . S
C328 C327 1.398 . S
C328 C329 1.391 . S
C329 H317 0.950 . S
C329 C325 1.393 . S
C329 C328 1.391 . S
C330 H320 0.950 . S
C330 C331 1.386 1_554 S
C330 C332 1.391 . S
C331 C330 1.386 1_556 S
C331 C335 1.393 . S
C332 H321 0.950 . S
C332 C330 1.391 . S
C332 C333 1.400 1_554 S
C333 C327 1.491 1_556 S
C333 C332 1.400 1_556 S
C333 C334 1.398 . S
C334 H322 0.950 . S
C334 C333 1.398 . S
C334 C335 1.391 . S
C335 H323 0.950 . S
C335 C331 1.393 . S
C335 C334 1.391 . S
H336 C344 0.950 . S
H337 C349 0.950 . S
H338 C346 0.950 . S
H339 C348 0.950 . S
H340 C350 0.950 . S
H341 C352 0.950 . S
H342 C354 0.950 . S
H343 C355 0.950 . S
C344 H336 0.950 . S
C344 C345 1.386 . S
C344 C346 1.391 . S
C345 C344 1.386 . S
C345 C349 1.393 . S
C346 H338 0.950 . S
C346 C344 1.391 . S
C346 C347 1.400 . S
C347 C346 1.400 . S
C347 C348 1.398 . S
C347 C353 1.491 . S
C348 H339 0.950 . S
C348 C347 1.398 . S
C348 C349 1.391 . S
C349 H337 0.950 . S
C349 C345 1.393 . S
C349 C348 1.391 . S
C350 H340 0.950 . S
C350 C351 1.386 . S
C350 C352 1.391 . S
C351 C350 1.386 . S
C351 C355 1.393 . S
C352 H341 0.950 . S
C352 C350 1.391 . S
C352 C353 1.400 . S
C353 C347 1.491 . S
C353 C352 1.400 . S
C353 C354 1.398 . S
C354 H342 0.950 . S
C354 C353 1.398 . S
C354 C355 1.391 . S
C355 H343 0.950 . S
C355 C351 1.393 . S
C355 C354 1.391 . S
H356 C364 0.950 . S
H357 C369 0.950 . S
H358 C366 0.950 . S
H359 C368 0.950 . S
H360 C370 0.950 . S
H361 C372 0.950 . S
H362 C374 0.950 . S
H363 C375 0.950 1_565 S
C364 H356 0.950 . S
C364 C365 1.386 . S
C364 C366 1.391 . S
C365 C364 1.386 . S
C365 C369 1.393 . S
C366 H358 0.950 . S
C366 C364 1.391 . S
C366 C367 1.400 . S
C367 C366 1.400 . S
C367 C368 1.398 . S
C367 C373 1.491 . S
C368 H359 0.950 . S
C368 C367 1.398 . S
C368 C369 1.391 . S
C369 H357 0.950 . S
C369 C365 1.393 . S
C369 C368 1.391 . S
C370 H360 0.950 . S
C370 C371 1.386 . S
C370 C372 1.391 . S
C371 C370 1.386 . S
C371 C375 1.393 . S
C372 H361 0.950 . S
C372 C370 1.391 . S
C372 C373 1.400 . S
C373 C367 1.491 . S
C373 C372 1.400 . S
C373 C374 1.398 . S
C374 H362 0.950 . S
C374 C373 1.398 . S
C374 C375 1.391 . S
C375 H363 0.950 1_545 S
C375 C371 1.393 . S
C375 C374 1.391 . S
H376 C384 0.950 1_455 S
H377 C389 0.950 . S
H378 C386 0.950 . S
H379 C388 0.950 . S
H380 C390 0.950 . S
H381 C392 0.950 . S
H382 C394 0.950 . S
H383 C395 0.950 . S
C384 H376 0.950 1_655 S
C384 C385 1.386 . S
C384 C386 1.391 . S
C385 C384 1.386 . S
C385 C389 1.393 . S
C386 H378 0.950 . S
C386 C384 1.391 . S
C386 C387 1.400 . S
C387 C386 1.400 . S
C387 C388 1.398 . S
C387 C393 1.491 . S
C388 H379 0.950 . S
C388 C387 1.398 . S
C388 C389 1.391 . S
C389 H377 0.950 . S
C389 C385 1.393 . S
C389 C388 1.391 . S
C390 H380 0.950 . S
C390 C391 1.386 . S
C390 C392 1.391 . S
C391 C390 1.386 . S
C391 C395 1.393 . S
C392 H381 0.950 . S
C392 C390 1.391 . S
C392 C393 1.400 . S
C393 C387 1.491 . S
C393 C392 1.400 . S
C393 C394 1.398 . S
C394 H382 0.950 . S
C394 C393 1.398 . S
C394 C395 1.391 . S
C395 H383 0.950 . S
C395 C391 1.393 . S
C395 C394 1.391 . S
H396 C404 0.950 . S
H397 C409 0.950 . S
H398 C406 0.950 . S
H399 C408 0.950 . S
H400 C410 0.950 . S
H401 C412 0.950 . S
H402 C414 0.950 . S
H403 C415 0.950 . S
C404 H396 0.950 . S
C404 C405 1.386 . S
C404 C406 1.391 . S
C405 C404 1.386 . S
C405 C409 1.393 . S
C406 H398 0.950 . S
C406 C404 1.391 . S
C406 C407 1.400 . S
C407 C406 1.400 . S
C407 C408 1.398 . S
C407 C413 1.491 . S
C408 H399 0.950 . S
C408 C407 1.398 . S
C408 C409 1.391 . S
C409 H397 0.950 . S
C409 C405 1.393 . S
C409 C408 1.391 . S
C410 H400 0.950 . S
C410 C411 1.386 . S
C410 C412 1.391 . S
C411 C410 1.386 . S
C411 C415 1.393 . S
C412 H401 0.950 . S
C412 C410 1.391 . S
C412 C413 1.400 . S
C413 C407 1.491 . S
C413 C412 1.400 . S
C413 C414 1.398 . S
C414 H402 0.950 . S
C414 C413 1.398 . S
C414 C415 1.391 . S
C415 H403 0.950 . S
C415 C411 1.393 . S
C415 C414 1.391 . S
H416 C424 0.950 . S
H417 C429 0.950 . S
H418 C426 0.950 . S
H419 C428 0.950 . S
H420 C430 0.950 . S
H421 C432 0.950 . S
H422 C434 0.950 . S
H423 C435 0.950 . S
C424 H416 0.950 . S
C424 C425 1.386 . S
C424 C426 1.391 . S
C425 C424 1.386 . S
C425 C429 1.393 . S
C426 H418 0.950 . S
C426 C424 1.391 . S
C426 C427 1.400 . S
C427 C426 1.400 . S
C427 C428 1.398 . S
C427 C433 1.491 . S
C428 H419 0.950 . S
C428 C427 1.398 . S
C428 C429 1.391 . S
C429 H417 0.950 . S
C429 C425 1.393 . S
C429 C428 1.391 . S
C430 H420 0.950 . S
C430 C431 1.386 . S
C430 C432 1.391 . S
C431 C430 1.386 . S
C431 C435 1.393 . S
C432 H421 0.950 . S
C432 C430 1.391 . S
C432 C433 1.400 . S
C433 C427 1.491 . S
C433 C432 1.400 . S
C433 C434 1.398 . S
C434 H422 0.950 . S
C434 C433 1.398 . S
C434 C435 1.391 . S
C435 H423 0.950 . S
C435 C431 1.393 . S
C435 C434 1.391 . S
H436 C444 0.950 . S
H437 C449 0.950 . S
H438 C446 0.950 . S
H439 C448 0.950 . S
H440 C450 0.950 . S
H441 C452 0.950 . S
H442 C454 0.950 . S
H443 C455 0.950 . S
C444 H436 0.950 . S
C444 C445 1.386 . S
C444 C446 1.391 . S
C445 C444 1.386 . S
C445 C449 1.393 . S
C446 H438 0.950 . S
C446 C444 1.391 . S
C446 C447 1.400 . S
C447 C446 1.400 . S
C447 C448 1.398 . S
C447 C453 1.491 . S
C448 H439 0.950 . S
C448 C447 1.398 . S
C448 C449 1.391 . S
C449 H437 0.950 . S
C449 C445 1.393 . S
C449 C448 1.391 . S
C450 H440 0.950 . S
C450 C451 1.386 . S
C450 C452 1.391 . S
C451 C450 1.386 . S
C451 C455 1.393 . S
C452 H441 0.950 . S
C452 C450 1.391 . S
C452 C453 1.400 . S
C453 C447 1.491 . S
C453 C452 1.400 . S
C453 C454 1.398 . S
C454 H442 0.950 . S
C454 C453 1.398 . S
C454 C455 1.391 . S
C455 H443 0.950 . S
C455 C451 1.393 . S
C455 C454 1.391 . S
H456 C464 0.950 . S
H457 C469 0.950 . S
H458 C466 0.950 . S
H459 C468 0.950 . S
H460 C470 0.950 . S
H461 C472 0.950 . S
H462 C474 0.950 . S
H463 C475 0.950 . S
C464 H456 0.950 . S
C464 C465 1.386 . S
C464 C466 1.391 . S
C465 C464 1.386 . S
C465 C469 1.393 . S
C466 H458 0.950 . S
C466 C464 1.391 . S
C466 C467 1.400 . S
C467 C466 1.400 . S
C467 C468 1.398 . S
C467 C473 1.491 . S
C468 H459 0.950 . S
C468 C467 1.398 . S
C468 C469 1.391 . S
C469 H457 0.950 . S
C469 C465 1.393 . S
C469 C468 1.391 . S
C470 H460 0.950 . S
C470 C471 1.386 . S
C470 C472 1.391 . S
C471 C470 1.386 . S
C471 C475 1.393 . S
C472 H461 0.950 . S
C472 C470 1.391 . S
C472 C473 1.400 . S
C473 C467 1.491 . S
C473 C472 1.400 . S
C473 C474 1.398 . S
C474 H462 0.950 . S
C474 C473 1.398 . S
C474 C475 1.391 . S
C475 H463 0.950 . S
C475 C471 1.393 . S
C475 C474 1.391 . S
H476 C484 0.950 . S
H477 C489 0.950 . S
H478 C486 0.950 . S
H479 C488 0.950 . S
H480 C490 0.950 . S
H481 C492 0.950 . S
H482 C494 0.950 . S
H483 C495 0.950 . S
C484 H476 0.950 . S
C484 C485 1.386 . S
C484 C486 1.391 . S
C485 C484 1.386 . S
C485 C489 1.393 . S
C486 H478 0.950 . S
C486 C484 1.391 . S
C486 C487 1.400 . S
C487 C486 1.400 . S
C487 C488 1.398 . S
C487 C493 1.491 . S
C488 H479 0.950 . S
C488 C487 1.398 . S
C488 C489 1.391 . S
C489 H477 0.950 . S
C489 C485 1.393 . S
C489 C488 1.391 . S
C490 H480 0.950 . S
C490 C491 1.386 . S
C490 C492 1.391 . S
C491 C490 1.386 . S
C491 C495 1.393 . S
C492 H481 0.950 . S
C492 C490 1.391 . S
C492 C493 1.400 . S
C493 C487 1.491 . S
C493 C492 1.400 . S
C493 C494 1.398 . S
C494 H482 0.950 . S
C494 C493 1.398 . S
C494 C495 1.391 . S
C495 H483 0.950 . S
C495 C491 1.393 . S
C495 C494 1.391 . S
H496 C504 0.950 . S
H497 C509 0.950 . S
H498 C506 0.950 . S
H499 C508 0.950 . S
H500 C510 0.950 . S
H501 C512 0.950 . S
H502 C514 0.950 . S
H503 C515 0.950 . S
C504 H496 0.950 . S
C504 C505 1.386 . S
C504 C506 1.391 . S
C505 C504 1.386 . S
C505 C509 1.393 . S
C506 H498 0.950 . S
C506 C504 1.391 . S
C506 C507 1.400 . S
C507 C506 1.400 . S
C507 C508 1.398 . S
C507 C513 1.491 . S
C508 H499 0.950 . S
C508 C507 1.398 . S
C508 C509 1.391 . S
C509 H497 0.950 . S
C509 C505 1.393 . S
C509 C508 1.391 . S
C510 H500 0.950 . S
C510 C511 1.386 . S
C510 C512 1.391 . S
C511 C510 1.386 . S
C511 C515 1.393 . S
C512 H501 0.950 . S
C512 C510 1.391 . S
C512 C513 1.400 . S
C513 C507 1.491 . S
C513 C512 1.400 . S
C513 C514 1.398 . S
C514 H502 0.950 . S
C514 C513 1.398 . S
C514 C515 1.391 . S
C515 H503 0.950 . S
C515 C511 1.393 . S
C515 C514 1.391 . S
H516 C524 0.950 1_556 S
H517 C529 0.950 . S
H518 C526 0.950 . S
H519 C528 0.950 1_655 S
H520 C530 0.950 1_554 S
H521 C532 0.950 . S
H522 C534 0.950 1_455 S
H523 C535 0.950 . S
C524 H516 0.950 1_554 S
C524 C525 1.386 . S
C524 C526 1.391 1_554 S
C525 C524 1.386 . S
C525 C529 1.393 . S
C526 H518 0.950 . S
C526 C524 1.391 1_556 S
C526 C527 1.400 1_556 S
C527 C526 1.400 1_554 S
C527 C528 1.398 . S
C527 C533 1.491 1_454 S
C528 H519 0.950 1_455 S
C528 C527 1.398 . S
C528 C529 1.391 . S
C529 H517 0.950 . S
C529 C525 1.393 . S
C529 C528 1.391 . S
C530 H520 0.950 1_556 S
C530 C531 1.386 . S
C530 C532 1.391 1_556 S
C531 C530 1.386 . S
C531 C535 1.393 . S
C532 H521 0.950 . S
C532 C530 1.391 1_554 S
C532 C533 1.400 1_554 S
C533 C527 1.491 1_656 S
C533 C532 1.400 1_556 S
C533 C534 1.398 . S
C534 H522 0.950 1_655 S
C534 C533 1.398 . S
C534 C535 1.391 . S
C535 H523 0.950 . S
C535 C531 1.393 . S
C535 C534 1.391 . S
H536 C544 0.950 . S
H537 C549 0.950 . S
H538 C546 0.946 1_556 S
H539 C548 0.950 . S
H540 C550 0.950 . S
H541 C552 0.946 1_554 S
H542 C554 0.950 . S
H543 C555 0.950 . S
C544 H536 0.950 . S
C544 C545 1.386 . S
C544 C546 1.394 . S
C545 C544 1.386 . S
C545 C549 1.393 . S
C546 H538 0.946 1_554 S
C546 C544 1.394 . S
C546 C547 1.401 . S
C547 C546 1.401 . S
C547 C548 1.398 . S
C547 C553 1.491 1_554 S
C548 H539 0.950 . S
C548 C547 1.398 . S
C548 C549 1.391 . S
C549 H537 0.950 . S
C549 C545 1.393 . S
C549 C548 1.391 . S
C550 H540 0.950 . S
C550 C551 1.386 . S
C550 C552 1.394 . S
C551 C550 1.386 . S
C551 C555 1.393 . S
C552 H541 0.946 1_556 S
C552 C550 1.394 . S
C552 C553 1.401 . S
C553 C547 1.491 1_556 S
C553 C552 1.401 . S
C553 C554 1.398 . S
C554 H542 0.950 . S
C554 C553 1.398 . S
C554 C555 1.391 . S
C555 H543 0.950 . S
C555 C551 1.393 . S
C555 C554 1.391 . S
H556 C564 0.950 . S
H557 C569 0.950 . S
H558 C566 0.950 1_556 S
H559 C568 0.950 . S
H560 C570 0.950 . S
H561 C572 0.950 1_554 S
H562 C574 0.950 . S
H563 C575 0.950 . S
C564 H556 0.950 . S
C564 C565 1.386 . S
C564 C566 1.391 1_565 S
C565 C564 1.386 . S
C565 C569 1.393 . S
C566 H558 0.950 1_554 S
C566 C564 1.391 1_545 S
C566 C567 1.400 1_545 S
C567 C566 1.400 1_565 S
C567 C568 1.398 . S
C567 C573 1.491 1_564 S
C568 H559 0.950 . S
C568 C567 1.398 . S
C568 C569 1.391 . S
C569 H557 0.950 . S
C569 C565 1.393 . S
C569 C568 1.391 . S
C570 H560 0.950 . S
C570 C571 1.386 . S
C570 C572 1.391 1_545 S
C571 C570 1.386 . S
C571 C575 1.393 . S
C572 H561 0.950 1_556 S
C572 C570 1.391 1_565 S
C572 C573 1.400 1_565 S
C573 C567 1.491 1_546 S
C573 C572 1.400 1_545 S
C573 C574 1.398 . S
C574 H562 0.950 . S
C574 C573 1.398 . S
C574 C575 1.391 . S
C575 H563 0.950 . S
C575 C571 1.393 . S
C575 C574 1.391 . S
H576 C584 0.950 . S
H577 C589 0.950 . S
H578 C586 0.950 1_545 S
H579 C588 0.950 . S
H580 C590 0.950 . S
H581 C592 0.950 1_565 S
H582 C594 0.950 . S
H583 C595 0.950 . S
C584 H576 0.950 . S
C584 C585 1.386 . S
C584 C586 1.391 . S
C585 C584 1.386 . S
C585 C589 1.393 . S
C586 H578 0.950 1_565 S
C586 C584 1.391 . S
C586 C587 1.400 . S
C587 C586 1.400 . S
C587 C588 1.398 . S
C587 C593 1.491 1_565 S
C588 H579 0.950 . S
C588 C587 1.398 . S
C588 C589 1.391 . S
C589 H577 0.950 . S
C589 C585 1.393 . S
C589 C588 1.391 . S
C590 H580 0.950 . S
C590 C591 1.386 . S
C590 C592 1.391 . S
C591 C590 1.386 . S
C591 C595 1.393 . S
C592 H581 0.950 1_545 S
C592 C590 1.391 . S
C592 C593 1.400 . S
C593 C587 1.491 1_545 S
C593 C592 1.400 . S
C593 C594 1.398 . S
C594 H582 0.950 . S
C594 C593 1.398 . S
C594 C595 1.391 . S
C595 H583 0.950 . S
C595 C591 1.393 . S
C595 C594 1.391 . S
H596 C604 0.950 . S
H597 C609 0.950 . S
H598 C606 0.950 1_455 S
H599 C608 0.950 . S
H600 C610 0.950 . S
H601 C612 0.950 1_655 S
H602 C614 0.950 . S
H603 C615 0.950 . S
C604 H596 0.950 . S
C604 C605 1.386 . S
C604 C606 1.391 . S
C605 C604 1.386 . S
C605 C609 1.393 . S
C606 H598 0.950 1_655 S
C606 C604 1.391 . S
C606 C607 1.400 . S
C607 C606 1.400 . S
C607 C608 1.398 . S
C607 C613 1.491 1_655 S
C608 H599 0.950 . S
C608 C607 1.398 . S
C608 C609 1.391 . S
C609 H597 0.950 . S
C609 C605 1.393 . S
C609 C608 1.391 . S
C610 H600 0.950 . S
C610 C611 1.386 . S
C610 C612 1.391 . S
C611 C610 1.386 . S
C611 C615 1.393 . S
C612 H601 0.950 1_455 S
C612 C610 1.391 . S
C612 C613 1.400 . S
C613 C607 1.491 1_455 S
C613 C612 1.400 . S
C613 C614 1.398 . S
C614 H602 0.950 . S
C614 C613 1.398 . S
C614 C615 1.391 . S
C615 H603 0.950 . S
C615 C611 1.393 . S
C615 C614 1.391 . S
H616 C624 0.950 . S
H617 C629 0.950 . S
H618 C626 0.950 . S
H619 C628 0.950 . S
H620 C630 0.950 . S
H621 C632 0.950 . S
H622 C634 0.950 . S
H623 C635 0.950 . S
C624 H616 0.950 . S
C624 C625 1.386 . S
C624 C626 1.391 . S
C625 C624 1.386 . S
C625 C629 1.393 . S
C626 H618 0.950 . S
C626 C624 1.391 . S
C626 C627 1.400 . S
C627 C626 1.400 . S
C627 C628 1.398 . S
C627 C633 1.491 . S
C628 H619 0.950 . S
C628 C627 1.398 . S
C628 C629 1.391 . S
C629 H617 0.950 . S
C629 C625 1.393 . S
C629 C628 1.391 . S
C630 H620 0.950 . S
C630 C631 1.386 . S
C630 C632 1.391 . S
C631 C630 1.386 . S
C631 C635 1.393 . S
C632 H621 0.950 . S
C632 C630 1.391 . S
C632 C633 1.400 . S
C633 C627 1.491 . S
C633 C632 1.400 . S
C633 C634 1.398 . S
C634 H622 0.950 . S
C634 C633 1.398 . S
C634 C635 1.391 . S
C635 H623 0.950 . S
C635 C631 1.393 . S
C635 C634 1.391 . S
C165 C4 1.107 . S
C171 C94 1.109 . S
C185 C17 1.100 . S
C191 C107 1.104 1_565 S
C205 C36 1.108 . S
C211 C83 1.107 1_455 S
C225 C146 1.106 . S
C231 C49 1.107 . S
C245 C56 1.102 . S
C251 C122 1.104 1_565 S
C265 C135 1.108 1_455 S
C271 C69 1.103 . S
C285 C16 1.108 . S
C291 C88 1.109 . S
C305 C95 1.101 . S
C311 C31 1.107 1_545 S
C325 C3 1.106 1_655 S
C331 C108 1.101 . S
C345 C127 1.108 . S
C351 C68 1.107 . S
C365 C140 1.101 . S
C371 C44 1.106 1_545 S
C385 C55 1.104 1_655 S
C391 C147 1.099 . S
C405 C75 1.554 . S
C411 C10 1.557 . S
C425 C23 1.553 . S
C431 C43 1.558 . S
C445 C30 1.567 . S
C451 C62 1.558 . S
C465 C82 1.561 . S
C471 C153 1.553 . S
C485 C101 1.553 . S
C491 C121 1.562 . S
C505 C114 1.558 . S
C511 C134 1.553 . S
C525 C5 1.517 . S
C531 C81 1.517 . S
C545 C18 1.515 . S
C551 C96 1.515 . S
C565 C29 1.527 . S
C571 C109 1.527 . S
C585 C42 1.522 . S
C591 C120 1.522 . S
C605 C133 1.526 . S
C611 C57 1.526 . S
C625 C70 1.533 . S
C631 C148 1.533 . S
