# Generated by pormake.
# Topology irl, (4)-cn, num edge types: 1
# Building blocks:
#     Node 0, Type 0, BuildingBlock: ESEHIV_clean_sbu_0, # of connection points: 4
#     Node 1, Type 0, BuildingBlock: ESEHIV_clean_sbu_0, # of connection points: 4
#     Node 2, Type 0, BuildingBlock: ESEHIV_clean_sbu_0, # of connection points: 4
#     Node 3, Type 0, BuildingBlock: ESEHIV_clean_sbu_0, # of connection points: 4
#     Node 4, Type 0, BuildingBlock: ESEHIV_clean_sbu_0, # of connection points: 4
#     Node 5, Type 0, BuildingBlock: ESEHIV_clean_sbu_0, # of connection points: 4
#     Node 6, Type 0, BuildingBlock: ESEHIV_clean_sbu_0, # of connection points: 4
#     Node 7, Type 0, BuildingBlock: ESEHIV_clean_sbu_0, # of connection points: 4
#     Edge 8, Type (0, 0), BuildingBlock: FUNLAD_clean_linker_0, # of connection points: 2
#     Edge 9, Type (0, 0), BuildingBlock: FUNLAD_clean_linker_0, # of connection points: 2
#     Edge 10, Type (0, 0), BuildingBlock: FUNLAD_clean_linker_0, # of connection points: 2
#     Edge 11, Type (0, 0), BuildingBlock: FUNLAD_clean_linker_0, # of connection points: 2
#     Edge 12, Type (0, 0), BuildingBlock: FUNLAD_clean_linker_0, # of connection points: 2
#     Edge 13, Type (0, 0), BuildingBlock: FUNLAD_clean_linker_0, # of connection points: 2
#     Edge 14, Type (0, 0), BuildingBlock: FUNLAD_clean_linker_0, # of connection points: 2
#     Edge 15, Type (0, 0), BuildingBlock: FUNLAD_clean_linker_0, # of connection points: 2
#     Edge 16, Type (0, 0), BuildingBlock: FUNLAD_clean_linker_0, # of connection points: 2
#     Edge 17, Type (0, 0), BuildingBlock: FUNLAD_clean_linker_0, # of connection points: 2
#     Edge 18, Type (0, 0), BuildingBlock: FUNLAD_clean_linker_0, # of connection points: 2
#     Edge 19, Type (0, 0), BuildingBlock: FUNLAD_clean_linker_0, # of connection points: 2
#     Edge 20, Type (0, 0), BuildingBlock: FUNLAD_clean_linker_0, # of connection points: 2
#     Edge 21, Type (0, 0), BuildingBlock: FUNLAD_clean_linker_0, # of connection points: 2
#     Edge 22, Type (0, 0), BuildingBlock: FUNLAD_clean_linker_0, # of connection points: 2
#     Edge 23, Type (0, 0), BuildingBlock: FUNLAD_clean_linker_0, # of connection points: 2
# Relax obj value: 0.081
# Max RMSD: 0.129
# Mean RMSD: 0.129
data_MOF--net-irl--node1-ESEHIV_clean_sbu_0--edge1-FUNLAD_clean_linker_0
_symmetry_space_group_name_H-M    P1
_symmetry_Int_Tables_number       1
_symmetry_cell_setting            triclinic
loop_
_symmetry_equiv_pos_as_xyz
'x, y, z'
_cell_length_a     12.212366
_cell_length_b     75.82062
_cell_length_c     34.487506
_cell_angle_alpha  88.866935
_cell_angle_beta   90.013105
_cell_angle_gamma 90.187052
loop_
_atom_site_label
_atom_site_type_symbol
_atom_site_fract_x
_atom_site_fract_y
_atom_site_fract_z
_atom_type_partial_charge
Cu0 Cu 0.02548 0.15474 0.00885 0.0
N1 N 0.92514 0.1359 0.00762 0.0
N2 N 0.88499 0.10703 1.00549 0.0
C3 C 0.96079 0.11931 0.01408 0.0
C4 C 0.79717 0.11632 0.99288 0.0
C5 C 0.82216 0.13418 0.99425 0.0
O6 O 0.11564 0.14963 0.05454 0.0
C7 C 0.01701 0.16005 0.93186 0.0
O8 O 0.92419 0.16643 0.94463 0.0
H9 H 0.04417 0.11632 0.02253 0.0
H10 H 0.77117 0.14499 0.98429 0.0
N11 N 0.97631 0.17795 0.01649 0.0
N12 N 0.00095 0.20722 0.02021 0.0
C13 C 0.03532 0.19209 1.00432 0.0
C14 C 0.90108 0.1844 0.04096 0.0
C15 C 0.91631 0.20246 0.04337 0.0
C16 C 0.05515 0.14647 0.08415 0.0
O17 O 0.94833 0.14703 0.08008 0.0
H18 H 0.1076 0.19109 0.98633 0.0
H19 H 0.8437 0.17646 0.05768 0.0
O20 O 0.08678 0.15429 0.95664 0.0
H21 H 0.72166 0.11065 0.98233 0.0
H22 H 0.87117 0.2113 0.06171 0.0
Cu23 Cu 0.98765 0.90173 0.02704 0.0
N24 N 0.09238 0.91966 0.0199 0.0
N25 N 0.13139 0.94856 0.01513 0.0
C26 C 0.07061 0.93592 0.03292 0.0
C27 C 0.19564 0.93987 0.99005 0.0
C28 C 0.17157 0.92201 0.99309 0.0
O29 O 0.94111 0.90443 0.08064 0.0
C30 C 0.9294 0.90247 0.95228 0.0
O31 O 0.0255 0.8948 0.95231 0.0
H32 H 0.00246 0.93863 0.05195 0.0
H33 H 0.20253 0.91182 0.9746 0.0
N34 N 0.03067 0.87799 0.02287 0.0
N35 N 0.00702 0.84864 0.02225 0.0
C36 C 0.95793 0.86457 0.0226 0.0
C37 C 0.12993 0.87034 0.0224 0.0
C38 C 0.11554 0.85221 0.02222 0.0
C39 C 0.02084 0.90115 0.10363 0.0
O40 O 0.11478 0.89637 0.08861 0.0
H41 H 0.87025 0.8665 0.02404 0.0
H42 H 0.20702 0.87739 0.02304 0.0
O43 O 0.88601 0.90649 0.98459 0.0
H44 H 0.25119 0.94605 0.96941 0.0
H45 H 0.17991 0.84243 0.0223 0.0
Cu46 Cu 0.01794 0.90578 0.53041 0.0
N47 N 0.9154 0.92424 0.53059 0.0
N48 N 0.87815 0.95321 0.52974 0.0
C49 C 0.94418 0.94038 0.51693 0.0
C50 C 0.80396 0.94486 0.55264 0.0
C51 C 0.82712 0.92695 0.55312 0.0
O52 O 0.10784 0.91071 0.48454 0.0
C53 C 0.01598 0.89984 0.60796 0.0
O54 O 0.9266 0.89192 0.59611 0.0
H55 H 0.01936 0.94292 0.50113 0.0
H56 H 0.78819 0.91697 0.57123 0.0
N57 N 0.97066 0.88239 0.52332 0.0
N58 N -0.00334 0.85322 0.51953 0.0
C59 C 0.03464 0.86857 0.53337 0.0
C60 C 0.88833 0.8755 0.5024 0.0
C61 C 0.90454 0.85747 0.49988 0.0
C62 C 0.04649 0.91225 0.45462 0.0
O63 O 0.94024 0.91033 0.45882 0.0
H64 H 0.11158 0.86996 0.54864 0.0
H65 H 0.82424 0.88309 0.48838 0.0
O66 O 0.08003 0.90677 0.58258 0.0
H67 H 0.74143 0.9513 0.56944 0.0
H68 H 0.8541 0.8483 0.48409 0.0
Cu69 Cu 0.98877 0.15692 0.51095 0.0
N70 N 0.09737 0.13966 0.51638 0.0
N71 N 0.14186 0.11108 0.52292 0.0
C72 C 0.06984 0.12292 0.50846 0.0
C73 C 0.21959 0.12085 0.54044 0.0
C74 C 0.19206 0.13854 0.53628 0.0
O75 O 0.94044 0.15422 0.45759 0.0
C76 C 0.94321 0.15366 0.58584 0.0
O77 O 0.04248 0.16031 0.58437 0.0
H78 H 0.9919 0.11945 0.49568 0.0
H79 H 0.23311 0.14954 0.54958 0.0
N80 N 0.02365 0.18095 0.51589 0.0
N81 N 0.98539 0.20988 0.51688 0.0
C82 C 0.94537 0.19337 0.51318 0.0
C83 C 0.11768 0.1898 0.52173 0.0
C84 C 0.09424 0.20768 0.52243 0.0
C85 C 0.0174 0.15881 0.43438 0.0
O86 O 0.10885 0.1649 0.4492 0.0
H87 H 0.85989 0.19017 0.50895 0.0
H88 H 0.19729 0.18374 0.52499 0.0
O89 O 0.89149 0.15123 0.5542 0.0
H90 H 0.28805 0.1156 0.55686 0.0
H91 H 0.15322 0.21819 0.52613 0.0
Cu92 Cu 0.52833 0.65535 0.02126 0.0
N93 N 0.43205 0.63632 0.02998 0.0
N94 N 0.39675 0.60726 0.03397 0.0
C95 C 0.45083 0.62035 0.01483 0.0
C96 C 0.33878 0.61549 0.06165 0.0
C97 C 0.36102 0.63339 0.05922 0.0
O98 O 0.64234 0.6534 0.06078 0.0
C99 C 0.48519 0.65673 0.94415 0.0
O100 O 0.38926 0.65945 0.9602 0.0
H101 H 0.51398 0.61818 0.99345 0.0
H102 H 0.33574 0.64319 0.07969 0.0
N103 N 0.47276 0.67795 0.02976 0.0
N104 N 0.49418 0.70728 0.03376 0.0
C105 C 0.51878 0.69263 0.01392 0.0
C106 C 0.41642 0.68354 0.0607 0.0
C107 C 0.42911 0.70162 0.06314 0.0
C108 C 0.6425 0.64058 0.08531 0.0
O109 O 0.61931 0.62469 0.07325 0.0
H110 H 0.57909 0.69226 0.99094 0.0
H111 H 0.37823 0.67496 0.08216 0.0
O112 O 0.56793 0.65456 0.96641 0.0
H113 H 0.28975 0.60899 0.08384 0.0
H114 H 0.39869 0.70976 0.08618 0.0
Cu115 Cu 0.4909 0.40117 0.02718 0.0
N116 N 0.59401 0.41953 0.03051 0.0
N117 N 0.63461 0.44826 0.03564 0.0
C118 C 0.55991 0.43544 0.04221 0.0
C119 C 0.72063 0.44007 0.01929 0.0
C120 C 0.69566 0.42227 0.01637 0.0
O121 O 0.41952 0.40225 0.07753 0.0
C122 C 0.47597 0.40668 0.95126 0.0
O123 O 0.5779 0.40193 0.95734 0.0
H124 H 0.47772 0.43777 0.05265 0.0
H125 H 0.74519 0.41236 1.0027 0.0
N126 N 0.5378 0.37769 0.02173 0.0
N127 N 0.51576 0.34834 0.01973 0.0
C128 C 0.46604 0.36421 0.01907 0.0
C129 C 0.63729 0.37013 0.0237 0.0
C130 C 0.6238 0.35198 0.02273 0.0
C131 C 0.48596 0.39714 0.10402 0.0
O132 O 0.58206 0.39112 0.09363 0.0
H133 H 0.37817 0.36604 0.01861 0.0
H134 H 0.71353 0.37723 0.02714 0.0
O135 O 0.41005 0.40684 0.97996 0.0
H136 H 0.79446 0.44656 0.00898 0.0
H137 H 0.68826 0.34224 0.02473 0.0
Cu138 Cu 0.52177 0.40754 0.52371 0.0
N139 N 0.41796 0.42572 0.52486 0.0
N140 N 0.37749 0.45451 0.52632 0.0
C141 C 0.45275 0.44198 0.53394 0.0
C142 C 0.29029 0.44575 0.51203 0.0
C143 C 0.31522 0.42789 0.51139 0.0
O144 O 0.61044 0.41337 0.47832 0.0
C145 C 0.51183 0.40315 0.60007 0.0
O146 O 0.41631 0.39789 0.587 0.0
H147 H 0.53581 0.44468 0.54313 0.0
H148 H 0.26506 0.41753 0.49953 0.0
N149 N 0.47945 0.38399 0.51657 0.0
N150 N 0.51238 0.35501 0.51152 0.0
C151 C 0.55554 0.37119 0.51692 0.0
C152 C 0.38335 0.37572 0.51075 0.0
C153 C 0.40346 0.35778 0.50777 0.0
C154 C 0.5483 0.41375 0.44855 0.0
O155 O 0.44444 0.40966 0.45277 0.0
H156 H 0.64152 0.37382 0.52179 0.0
H157 H 0.30471 0.3822 0.50889 0.0
O158 O 0.5842 0.4082 0.57551 0.0
H159 H 0.21572 0.45184 0.50146 0.0
H160 H 0.34273 0.34765 0.50281 0.0
Cu161 Cu 0.47944 0.66048 0.50731 0.0
N162 N 0.57906 0.64188 0.50288 0.0
N163 N 0.61519 0.61299 0.49918 0.0
C164 C 0.54056 0.62584 0.4937 0.0
C165 C 0.70569 0.62132 0.51215 0.0
C166 C 0.68336 0.63922 0.51421 0.0
O167 O 0.39795 0.65889 0.45846 0.0
C168 C 0.48049 0.65695 0.58479 0.0
O169 O 0.58157 0.66114 0.57536 0.0
H170 H 0.45583 0.6235 0.48604 0.0
H171 H 0.73691 0.64928 0.52549 0.0
N172 N 0.53134 0.68381 0.50969 0.0
N173 N 0.51294 0.7132 0.51095 0.0
C174 C 0.46203 0.69742 0.514 0.0
C175 C 0.63071 0.69119 0.50414 0.0
C176 C 0.61936 0.70937 0.50462 0.0
C177 C 0.45577 0.66433 0.42966 0.0
O178 O 0.55335 0.67088 0.43639 0.0
H179 H 0.37449 0.69573 0.51744 0.0
H180 H 0.705 0.68392 0.49864 0.0
O181 O 0.40915 0.65608 0.55771 0.0
H182 H 0.78101 0.61488 0.52088 0.0
H183 H 0.68394 0.719 0.50006 0.0
C184 C 0.11836 0.97847 0.98464 0.0
C185 C 0.11355 0.96735 0.01776 0.0
C186 C 0.09011 0.99637 0.98686 0.0
C187 C 0.05736 1.00357 0.0224 0.0
C188 C 0.05634 0.99254 0.05561 0.0
C189 C 0.08295 0.97465 0.05327 0.0
C190 C 0.02732 1.02255 0.02645 0.0
C191 C 0.9843 0.03267 0.99757 0.0
C192 C 0.95392 0.05165 1.00199 0.0
C193 C 0.87767 0.05939 0.97625 0.0
C194 C 0.85154 0.07738 0.97823 0.0
C195 C 0.9024 0.08815 1.0057 0.0
H196 H 0.06393 0.0572 0.04987 0.0
C197 C 0.97734 0.08035 0.03183 0.0
C198 C 0.00299 0.0624 0.03 0.0
H199 H 0.01755 0.08822 0.05351 0.0
H200 H 0.14088 0.97322 0.9568 0.0
H201 H 0.09481 1.00453 0.96081 0.0
H202 H 0.0329 0.99771 0.08347 0.0
H203 H 0.07914 0.96645 0.0793 0.0
H204 H 0.03556 1.02801 0.05516 0.0
H205 H 0.96667 1.0267 0.96987 0.0
H206 H 0.83891 0.05153 0.9542 0.0
H207 H 0.79453 0.08296 0.95738 0.0
C208 C 0.88378 0.98359 0.55547 0.0
C209 C 0.89801 0.97191 0.5247 0.0
C210 C 0.91539 1.00137 0.55144 0.0
C211 C 0.96102 1.00784 0.51638 0.0
C212 C 0.971 0.99626 0.4853 0.0
C213 C 0.94092 0.97852 0.4895 0.0
C214 C 0.9962 1.0266 0.51041 0.0
C215 C 0.02986 0.0372 0.53915 0.0
C216 C 0.06573 0.05595 0.53273 0.0
C217 C 0.12956 0.06421 0.56116 0.0
C218 C 0.15917 0.08207 0.55726 0.0
C219 C 0.12454 0.09218 0.52494 0.0
H220 H 0.98237 0.06047 0.47764 0.0
C221 C 0.06297 0.08382 0.49608 0.0
C222 C 0.03353 0.06602 0.49992 0.0
H223 H 0.03535 0.09118 0.47072 0.0
H224 H 0.85152 0.97885 0.583 0.0
H225 H 0.90348 1.00998 0.57573 0.0
H226 H 0.00435 1.00087 0.45779 0.0
H227 H 0.95208 0.96986 0.46523 0.0
H228 H 0.00024 0.0314 0.4806 0.0
H229 H 0.03508 0.03184 0.56852 0.0
H230 H 0.15526 0.05689 0.58686 0.0
H231 H 0.20532 0.08811 0.5803 0.0
C232 C 0.40653 0.57699 0.06307 0.0
C233 C 0.4178 0.58852 0.0308 0.0
C234 C 0.43678 0.5592 0.06086 0.0
C235 C 0.47966 0.5524 0.02623 0.0
C236 C 0.48756 0.56384 0.99373 0.0
C237 C 0.45732 0.5816 0.99596 0.0
C238 C 0.51632 0.53362 0.02225 0.0
C239 C 0.52729 0.52188 0.05203 0.0
C240 C 0.56078 0.50308 0.04737 0.0
C241 C 0.52592 0.49053 0.07526 0.0
C242 C 0.55256 0.4727 0.07182 0.0
C243 C 0.6167 0.46692 0.04075 0.0
H244 H 0.65883 0.5067 0.99519 0.0
C245 C 0.65558 0.47951 0.01355 0.0
C246 C 0.62757 0.4974 0.01669 0.0
H247 H 0.70479 0.47545 0.98921 0.0
H248 H 0.37721 0.58177 0.09051 0.0
H249 H 0.42633 0.55101 0.08657 0.0
H250 H 0.51877 0.55908 0.96647 0.0
H251 H 0.46577 0.58997 0.97034 0.0
H252 H 0.53468 0.52932 0.99312 0.0
H253 H 0.50718 0.52576 0.08123 0.0
H254 H 0.4757 0.49447 0.09948 0.0
H255 H 0.52229 0.46335 0.09343 0.0
C256 C 0.35276 0.48504 0.50016 0.0
C257 C 0.39648 0.47332 0.52818 0.0
C258 C 0.38267 0.50296 0.49961 0.0
C259 C 0.4568 0.50955 0.52724 0.0
C260 C 0.4962 0.49792 0.55617 0.0
C261 C 0.46708 0.48007 0.55652 0.0
C262 C 0.49449 0.52835 0.52756 0.0
C263 C 0.49223 0.53942 0.49638 0.0
C264 C 0.53058 0.55818 0.49696 0.0
C265 C 0.48768 0.57018 0.46945 0.0
C266 C 0.51809 0.58799 0.46954 0.0
C267 C 0.59365 0.59428 0.4968 0.0
H268 H 0.64726 0.55544 0.54438 0.0
C269 C 0.64058 0.58217 0.52332 0.0
C270 C 0.60929 0.56432 0.5235 0.0
H271 H 0.69882 0.58659 0.54473 0.0
H272 H 0.29837 0.48025 0.4779 0.0
H273 H 0.34736 0.51151 0.47751 0.0
H274 H 0.55196 0.50257 0.5782 0.0
H275 H 0.501 0.47144 0.5788 0.0
H276 H 0.52774 0.53305 0.55467 0.0
H277 H 0.45859 0.53482 0.46926 0.0
H278 H 0.42833 0.56586 0.44827 0.0
H279 H 0.48152 0.59692 0.4484 0.0
C280 C 0.04087 0.13145 0.14796 0.0
C281 C 0.09751 0.14344 0.12366 0.0
C282 C 0.05279 0.13198 0.18811 0.0
C283 C 0.12086 0.1447 0.20487 0.0
C284 C 0.18593 0.15552 0.1804 0.0
C285 C 0.17407 0.15495 0.13996 0.0
C286 C 0.121 0.14761 0.24741 0.0
C287 C 0.03134 0.1449 0.26989 0.0
C288 C 0.02564 0.14913 0.31187 0.0
C289 C 0.94395 0.14119 0.33526 0.0
C290 C 0.93734 0.14472 0.375 0.0
C291 C 0.01228 0.15633 0.39195 0.0
H292 H 0.15811 0.16839 0.31173 0.0
C293 C 0.09083 0.16479 0.3682 0.0
C294 C 0.09723 0.16133 0.32873 0.0
H295 H 0.14881 0.17405 0.3802 0.0
H296 H 0.98185 0.12235 0.13595 0.0
H297 H 0.00533 0.12286 0.20588 0.0
H298 H 0.24055 0.16523 0.19263 0.0
H299 H 0.21771 0.16445 0.12183 0.0
H300 H 0.19507 0.15309 0.25972 0.0
H301 H 0.95748 0.13954 0.25708 0.0
H302 H 0.88638 0.13196 0.32292 0.0
H303 H 0.87603 0.13799 0.39256 0.0
C304 C 0.0257 0.92712 0.39094 0.0
C305 C 0.08741 0.91583 0.41513 0.0
C306 C 0.03876 0.92695 0.35082 0.0
C307 C 0.11312 0.91528 0.33397 0.0
C308 C 0.18247 0.90523 0.35837 0.0
C309 C 0.16946 0.90544 0.39881 0.0
C310 C 0.11598 0.91267 0.29133 0.0
C311 C 0.02597 0.9143 0.2686 0.0
C312 C 0.02347 0.91034 0.22644 0.0
C313 C 0.9377 0.91707 0.2032 0.0
C314 C 0.93343 0.91371 0.16335 0.0
C315 C 0.01494 0.9035 0.14609 0.0
H316 H 0.1669 0.89339 0.22601 0.0
C317 C 0.09815 0.89625 0.16963 0.0
C318 C 0.10221 0.89953 0.20921 0.0
H319 H 0.16137 0.88806 0.15739 0.0
H320 H 0.96242 0.93538 0.403 0.0
H321 H 0.9876 0.93551 0.33311 0.0
H322 H 0.24186 0.89635 0.34608 0.0
H323 H 0.21715 0.89649 0.41688 0.0
H324 H 0.1929 0.90832 0.27916 0.0
H325 H 0.94934 0.91851 0.28136 0.0
H326 H 0.87479 0.92522 0.2158 0.0
H327 H 0.86838 0.91948 0.14597 0.0
C328 C 0.97271 0.89085 0.67563 0.0
C329 C 0.02801 0.90248 0.65011 0.0
C330 C 0.96087 0.89476 0.71468 0.0
C331 C 0.00363 0.91051 0.7293 0.0
C332 C 0.06605 0.92156 0.7045 0.0
C333 C 0.0777 0.91764 0.66505 0.0
C334 C 0.98637 0.91519 0.77057 0.0
C335 C 0.89469 0.9105 0.7903 0.0
C336 C 0.88292 0.9118 0.8331 0.0
C337 C 0.81536 0.8995 0.85278 0.0
C338 C 0.81873 0.89784 0.89327 0.0
C339 C 0.88782 0.90876 0.91466 0.0
H340 H 0.99378 0.93392 0.84097 0.0
C341 C 0.9464 0.92227 0.89539 0.0
C342 C 0.94379 0.92385 0.85494 0.0
H343 H 0.00183 0.93063 0.91139 0.0
H344 H 0.93491 0.87891 0.66511 0.0
H345 H 0.91721 0.88546 0.73324 0.0
H346 H 0.10209 0.93358 0.71531 0.0
H347 H 0.12029 0.92688 0.64599 0.0
H348 H 0.05233 0.9221 0.78495 0.0
H349 H 0.82912 0.90382 0.77508 0.0
H350 H 0.76665 0.89017 0.83669 0.0
H351 H 0.77518 0.88704 0.90744 0.0
C352 C 0.96237 0.16803 0.86461 0.0
C353 C 0.02808 0.1577 0.88958 0.0
C354 C 0.9529 0.1641 0.82548 0.0
C355 C 0.00854 0.14962 0.81021 0.0
C356 C 0.0802 0.13998 0.83452 0.0
C357 C 0.08957 0.14392 0.87403 0.0
C358 C 0.99568 0.14485 0.76879 0.0
C359 C 0.90279 0.14801 0.74841 0.0
C360 C 0.89429 0.14602 0.70566 0.0
C361 C 0.82261 0.15711 0.68457 0.0
C362 C 0.82759 0.15811 0.64398 0.0
C363 C 0.90311 0.1478 0.62405 0.0
H364 H 0.01472 0.12517 0.70034 0.0
C365 C 0.96632 0.1354 0.64482 0.0
C366 C 0.96162 0.13441 0.68526 0.0
H367 H 0.02609 0.12745 0.62992 0.0
H368 H 0.91524 0.17894 0.8756 0.0
H369 H 0.90141 0.17244 0.80737 0.0
H370 H 0.126 0.12899 0.82324 0.0
H371 H 0.14048 0.13569 0.89262 0.0
H372 H 0.06598 0.139 0.7548 0.0
H373 H 0.83276 0.15371 0.76291 0.0
H374 H 0.76878 0.16603 0.69957 0.0
H375 H 0.77996 0.16805 0.6286 0.0
C376 C 0.59233 0.6311 0.15336 0.0
C377 C 0.62903 0.64438 0.12726 0.0
C378 C 0.56411 0.63509 0.19159 0.0
C379 C 0.57234 0.65249 0.20478 0.0
C380 C 0.61333 0.66559 0.17919 0.0
C381 C 0.64053 0.66164 0.14087 0.0
C382 C 0.54284 0.65747 0.24516 0.0
C383 C 0.47155 0.64845 0.26828 0.0
C384 C 0.4468 0.65352 0.30909 0.0
C385 C 0.41152 0.64054 0.33616 0.0
C386 C 0.40189 0.64441 0.37572 0.0
C387 C 0.42686 0.66138 0.38872 0.0
H388 H 0.4832 0.68151 0.30201 0.0
C389 C 0.45271 0.67468 0.36127 0.0
C390 C 0.46145 0.67088 0.32192 0.0
H391 H 0.47254 0.68788 0.3706 0.0
H392 H 0.58233 0.61764 0.14401 0.0
H393 H 0.53646 0.62448 0.21062 0.0
H394 H 0.62202 0.67907 0.18862 0.0
H395 H 0.66813 0.67223 0.12167 0.0
H396 H 0.58201 0.66927 0.2559 0.0
H397 H 0.43303 0.63654 0.25777 0.0
H398 H 0.39773 0.62712 0.32709 0.0
H399 H 0.38383 0.63384 0.39635 0.0
C400 C 0.5227 0.42944 0.38623 0.0
C401 C 0.58632 0.41786 0.40905 0.0
C402 C 0.52778 0.42905 0.34587 0.0
C403 C 0.59559 0.4168 0.32757 0.0
C404 C 0.66783 0.40656 0.35047 0.0
C405 C 0.66297 0.40703 0.39105 0.0
C406 C 0.58705 0.41334 0.28538 0.0
C407 C 0.49462 0.41606 0.26447 0.0
C408 C 0.48238 0.41012 0.2239 0.0
C409 C 0.41527 0.41959 0.19768 0.0
C410 C 0.40866 0.41472 0.15868 0.0
C411 C 0.46828 0.40018 0.14565 0.0
H412 H 0.58301 0.38671 0.23099 0.0
C413 C 0.52833 0.39 0.17261 0.0
C414 C 0.53516 0.39486 0.21125 0.0
H415 H 0.57395 0.37857 0.16348 0.0
H416 H 0.46288 0.43791 0.39966 0.0
H417 H 0.47466 0.43775 0.32932 0.0
H418 H 0.72224 0.39722 0.33706 0.0
H419 H 0.71148 0.39779 0.4081 0.0
H420 H 0.65662 0.407 0.27191 0.0
H421 H 0.42462 0.42252 0.27728 0.0
H422 H 0.37174 0.43119 0.207 0.0
H423 H 0.36237 0.42286 0.13844 0.0
C424 C 0.51955 0.42231 0.88993 0.0
C425 C 0.4453 0.4119 0.91149 0.0
C426 C 0.51131 0.42365 0.84969 0.0
C427 C 0.42953 0.41428 0.83008 0.0
C428 C 0.34925 0.40516 0.852 0.0
C429 C 0.35711 0.40394 0.89255 0.0
C430 C 0.42942 0.41284 0.78712 0.0
C431 C 0.52092 0.41438 0.76515 0.0
C432 C 0.52285 0.41074 0.72297 0.0
C433 C 0.60106 0.41911 0.69885 0.0
C434 C 0.60219 0.41615 0.65879 0.0
C435 C 0.52551 0.40463 0.64246 0.0
H436 H 0.39269 0.39113 0.72448 0.0
C437 C 0.45164 0.39556 0.66701 0.0
C438 C 0.45043 0.39852 0.70671 0.0
H439 H 0.39272 0.38634 0.65543 0.0
H440 H 0.58777 0.4287 0.90412 0.0
H441 H 0.57152 0.43153 0.83416 0.0
H442 H 0.28424 0.39806 0.83762 0.0
H443 H 0.29956 0.39572 0.90862 0.0
H444 H 0.35246 0.40922 0.77361 0.0
H445 H 0.59817 0.41811 0.77824 0.0
H446 H 0.65937 0.42831 0.71084 0.0
H447 H 0.65996 0.42332 0.64057 0.0
C448 C 0.39795 0.65886 0.87858 0.0
C449 C 0.49248 0.65591 0.90117 0.0
C450 C 0.40122 0.65792 0.83816 0.0
C451 C 0.49939 0.65389 0.81902 0.0
C452 C 0.59429 0.65111 0.84159 0.0
C453 C 0.59096 0.65206 0.88219 0.0
C454 C 0.50763 0.65306 0.77581 0.0
C455 C 0.42128 0.65184 0.75124 0.0
C456 C 0.43294 0.65148 0.70807 0.0
C457 C 0.34501 0.65687 0.68413 0.0
C458 C 0.35664 0.65781 0.64354 0.0
C459 C 0.45664 0.65336 0.62633 0.0
H460 H 0.59801 0.6408 0.70717 0.0
C461 C 0.54187 0.64699 0.65012 0.0
C462 C 0.53009 0.64591 0.69031 0.0
H463 H 0.61936 0.6431 0.63764 0.0
H464 H 0.32056 0.662 0.8921 0.0
H465 H 0.32668 0.66068 0.82232 0.0
H466 H 0.67149 0.64812 0.82776 0.0
H467 H 0.66525 0.64973 0.89864 0.0
H468 H 0.58986 0.65365 0.76396 0.0
H469 H 0.33855 0.65155 0.76259 0.0
H470 H 0.26837 0.66095 0.69692 0.0
H471 H 0.28964 0.66278 0.62593 0.0
C472 C 0.36339 0.32861 1.00061 0.0
C473 C 0.46238 0.33125 0.02063 0.0
C474 C 0.30813 0.31238 1.0031 0.0
C475 C 0.34996 0.2984 0.02608 0.0
C476 C 0.44891 0.30105 0.04605 0.0
C477 C 0.50514 0.31719 0.043 0.0
C478 C 0.28974 0.2813 0.03146 0.0
C479 C 0.22521 0.27422 1.00396 0.0
C480 C 0.16681 0.25697 0.00912 0.0
C481 C 0.15163 0.24621 0.97684 0.0
C482 C 0.09705 0.22997 0.98052 0.0
C483 C 0.05336 0.2243 0.01637 0.0
H484 H 0.13074 0.25949 0.07037 0.0
C485 C 0.06579 0.23527 0.04854 0.0
C486 C 0.12271 0.25136 0.04506 0.0
H487 H 0.03358 0.2312 0.07657 0.0
H488 H 0.32841 0.33917 0.98308 0.0
H489 H 0.23109 0.31101 0.98791 0.0
H490 H 0.48279 0.29059 0.06421 0.0
H491 H 0.58034 0.31884 0.05917 0.0
H492 H 0.30348 0.27391 0.05832 0.0
H493 H 0.21997 0.28071 0.97566 0.0
H494 H 0.18361 0.25025 0.94873 0.0
H495 H 0.08816 0.22186 0.95522 0.0
C496 C 0.57365 0.73458 0.06101 0.0
C497 C 0.54464 0.72448 0.02875 0.0
C498 C 0.6285 0.75077 0.05613 0.0
C499 C 0.65459 0.75735 0.01877 0.0
C500 C 0.62296 0.74746 0.98656 0.0
C501 C 0.56997 0.73113 0.99148 0.0
C502 C 0.71113 0.77469 0.0124 0.0
C503 C 0.78584 0.78127 0.03722 0.0
C504 C 0.8437 0.79852 0.03097 0.0
C505 C 0.94771 0.80099 0.04755 0.0
C506 C 0.00251 0.81722 0.04382 0.0
C507 C 0.95362 0.83156 0.02409 0.0
H508 H 0.71446 0.81159 0.99818 0.0
C509 C 0.84952 0.82911 0.00744 0.0
C510 C 0.79537 0.8128 0.01067 0.0
H511 H 0.80972 0.83986 0.99192 0.0
H512 H 0.55612 0.72978 0.09012 0.0
H513 H 0.64912 0.75819 0.08162 0.0
H514 H 0.64082 0.75226 0.95743 0.0
H515 H 0.54813 0.72371 0.96609 0.0
H516 H 0.69492 0.78174 0.98529 0.0
H517 H 0.80964 0.77336 0.06242 0.0
H518 H 0.98672 0.79031 0.06362 0.0
H519 H 0.08186 0.8187 0.05739 0.0
C520 C 0.05505 0.82501 0.49072 0.0
C521 C 0.05058 0.83631 0.52254 0.0
C522 C 0.11385 0.80914 0.49316 0.0
C523 C 0.16777 0.80411 0.52775 0.0
C524 C 0.16046 0.81519 0.55978 0.0
C525 C 0.10396 0.83121 0.55705 0.0
C526 C 0.22841 0.78711 0.53193 0.0
C527 C 0.28598 0.77988 0.50288 0.0
C528 C 0.34766 0.76296 0.5073 0.0
C529 C 0.441 0.76016 0.48437 0.0
C530 C 0.49771 0.7441 0.48654 0.0
C531 C 0.46079 0.7303 0.51106 0.0
H532 H 0.23928 0.75073 0.54996 0.0
C533 C 0.3677 0.73312 0.53413 0.0
C534 C 0.31206 0.74925 0.53243 0.0
H535 H 0.33739 0.72276 0.55337 0.0
H536 H 0.01516 0.82866 0.46372 0.0
H537 H 0.11573 0.80072 0.46818 0.0
H538 H 0.20009 0.81158 0.58689 0.0
H539 H 0.10126 0.83961 0.58207 0.0
H540 H 0.23089 0.78096 0.56063 0.0
H541 H 0.2924 0.78697 0.47528 0.0
H542 H 0.46992 0.77041 0.46454 0.0
H543 H 0.56822 0.74227 0.46806 0.0
C544 C 0.52131 0.3223 0.51986 0.0
C545 C 0.57223 0.33852 0.51055 0.0
C546 C 0.58181 0.30654 0.52084 0.0
C547 C 0.69483 0.30664 0.5123 0.0
C548 C 0.74488 0.32282 0.50259 0.0
C549 C 0.68466 0.33847 0.50148 0.0
C550 C 0.76485 0.29047 0.51449 0.0
C551 C 0.72636 0.27381 0.51197 0.0
C552 C 0.79751 0.25776 0.51289 0.0
C553 C 0.75749 0.24222 0.49648 0.0
C554 C 0.81953 0.22673 0.49726 0.0
C555 C 0.92342 0.22619 0.51503 0.0
H556 H 0.93477 0.26885 0.54448 0.0
C557 C 0.96386 0.24177 0.53149 0.0
C558 C 0.90173 0.25734 0.53053 0.0
H559 H 0.04252 0.24187 0.54591 0.0
H560 H 0.43537 0.32181 0.52744 0.0
H561 H 0.54015 0.29447 0.52934 0.0
H562 H 0.83147 0.32339 0.49578 0.0
H563 H 0.72681 0.35056 0.49342 0.0
H564 H 0.85268 0.29255 0.51631 0.0
H565 H 0.63958 0.27175 0.50689 0.0
H566 H 0.67773 0.24205 0.48271 0.0
H567 H 0.78568 0.21522 0.48362 0.0
loop_
_geom_bond_atom_site_label_1
_geom_bond_atom_site_label_2
_geom_bond_distance
_geom_bond_site_symmetry_2
_ccdc_geom_bond_type
Cu0 N1 1.999 . S
Cu0 O6 1.974 . S
Cu0 N11 1.985 . S
Cu0 O20 1.959 1_554 S
N1 Cu0 1.999 . S
N1 C3 1.263 . S
N1 C5 1.389 1_554 S
N2 C3 1.358 . S
N2 C4 1.400 1_554 S
C3 N1 1.263 . S
C3 N2 1.358 . S
C3 H9 0.930 . S
C4 N2 1.400 1_556 S
C4 C5 1.351 . S
C4 H21 0.930 . S
C5 N1 1.389 1_556 S
C5 C4 1.351 . S
C5 H10 0.930 . S
O6 Cu0 1.974 . S
O6 C16 1.282 . S
C7 O8 1.261 1_455 S
C7 O20 1.251 . S
O8 C7 1.261 1_655 S
H9 C3 0.930 . S
H10 C5 0.930 . S
N11 Cu0 1.985 . S
N11 C13 1.335 1_554 S
N11 C14 1.390 . S
N12 C13 1.345 1_554 S
N12 C15 1.336 . S
C13 N11 1.335 1_556 S
C13 N12 1.345 1_556 S
C13 H18 0.930 . S
C14 N11 1.390 . S
C14 C15 1.346 . S
C14 H19 0.930 . S
C15 N12 1.336 . S
C15 C14 1.346 . S
C15 H22 0.929 . S
C16 O6 1.282 . S
C16 O17 1.216 1_455 S
O17 C16 1.216 1_655 S
H18 C13 0.930 . S
H19 C14 0.930 . S
O20 Cu0 1.959 1_556 S
O20 C7 1.251 . S
H21 C4 0.930 . S
H22 C15 0.929 . S
Cu23 N24 1.999 . S
Cu23 O29 1.974 . S
Cu23 N34 1.985 . S
Cu23 O43 1.959 1_554 S
N24 Cu23 1.999 . S
N24 C26 1.263 . S
N24 C28 1.389 1_554 S
N25 C26 1.358 . S
N25 C27 1.400 1_554 S
C26 N24 1.263 . S
C26 N25 1.358 . S
C26 H32 0.930 . S
C27 N25 1.400 1_556 S
C27 C28 1.351 . S
C27 H44 0.930 . S
C28 N24 1.389 1_556 S
C28 C27 1.351 . S
C28 H33 0.930 . S
O29 Cu23 1.974 . S
O29 C39 1.282 . S
C30 O31 1.261 1_655 S
C30 O43 1.251 . S
O31 C30 1.261 1_455 S
H32 C26 0.930 . S
H33 C28 0.930 . S
N34 Cu23 1.985 . S
N34 C36 1.335 1_554 S
N34 C37 1.390 . S
N35 C36 1.345 1_554 S
N35 C38 1.336 . S
C36 N34 1.335 1_556 S
C36 N35 1.345 1_556 S
C36 H41 0.930 . S
C37 N34 1.390 . S
C37 C38 1.346 . S
C37 H42 0.930 . S
C38 N35 1.336 . S
C38 C37 1.346 . S
C38 H45 0.929 . S
C39 O29 1.282 . S
C39 O40 1.216 1_655 S
O40 C39 1.216 1_455 S
H41 C36 0.930 . S
H42 C37 0.930 . S
O43 Cu23 1.959 1_556 S
O43 C30 1.251 . S
H44 C27 0.930 . S
H45 C38 0.929 . S
Cu46 N47 1.999 . S
Cu46 O52 1.974 . S
Cu46 N57 1.985 . S
Cu46 O66 1.959 . S
N47 Cu46 1.999 . S
N47 C49 1.263 . S
N47 C51 1.389 . S
N48 C49 1.358 . S
N48 C50 1.400 . S
C49 N47 1.263 . S
C49 N48 1.358 . S
C49 H55 0.930 . S
C50 N48 1.400 . S
C50 C51 1.351 . S
C50 H67 0.930 . S
C51 N47 1.389 . S
C51 C50 1.351 . S
C51 H56 0.930 . S
O52 Cu46 1.974 . S
O52 C62 1.282 . S
C53 O54 1.261 1_455 S
C53 O66 1.251 . S
O54 C53 1.261 1_655 S
H55 C49 0.930 . S
H56 C51 0.930 . S
N57 Cu46 1.985 . S
N57 C59 1.335 . S
N57 C60 1.390 . S
N58 C59 1.345 . S
N58 C61 1.336 . S
C59 N57 1.335 . S
C59 N58 1.345 . S
C59 H64 0.930 . S
C60 N57 1.390 . S
C60 C61 1.346 . S
C60 H65 0.930 . S
C61 N58 1.336 . S
C61 C60 1.346 . S
C61 H68 0.929 . S
C62 O52 1.282 . S
C62 O63 1.216 1_455 S
O63 C62 1.216 1_655 S
H64 C59 0.930 . S
H65 C60 0.930 . S
O66 Cu46 1.959 . S
O66 C53 1.251 . S
H67 C50 0.930 . S
H68 C61 0.929 . S
Cu69 N70 1.999 . S
Cu69 O75 1.974 . S
Cu69 N80 1.985 . S
Cu69 O89 1.959 . S
N70 Cu69 1.999 . S
N70 C72 1.263 . S
N70 C74 1.389 . S
N71 C72 1.358 . S
N71 C73 1.400 . S
C72 N70 1.263 . S
C72 N71 1.358 . S
C72 H78 0.930 . S
C73 N71 1.400 . S
C73 C74 1.351 . S
C73 H90 0.930 . S
C74 N70 1.389 . S
C74 C73 1.351 . S
C74 H79 0.930 . S
O75 Cu69 1.974 . S
O75 C85 1.282 . S
C76 O77 1.261 1_655 S
C76 O89 1.251 . S
O77 C76 1.261 1_455 S
H78 C72 0.930 . S
H79 C74 0.930 . S
N80 Cu69 1.985 . S
N80 C82 1.335 . S
N80 C83 1.390 . S
N81 C82 1.345 . S
N81 C84 1.336 . S
C82 N80 1.335 . S
C82 N81 1.345 . S
C82 H87 0.930 . S
C83 N80 1.390 . S
C83 C84 1.346 . S
C83 H88 0.930 . S
C84 N81 1.336 . S
C84 C83 1.346 . S
C84 H91 0.929 . S
C85 O75 1.282 . S
C85 O86 1.216 1_655 S
O86 C85 1.216 1_455 S
H87 C82 0.930 . S
H88 C83 0.930 . S
O89 Cu69 1.959 . S
O89 C76 1.251 . S
H90 C73 0.930 . S
H91 C84 0.929 . S
Cu92 N93 1.999 . S
Cu92 O98 1.974 . S
Cu92 N103 1.985 . S
Cu92 O112 1.959 1_554 S
N93 Cu92 1.999 . S
N93 C95 1.263 . S
N93 C97 1.389 1_554 S
N94 C95 1.358 . S
N94 C96 1.400 1_554 S
C95 N93 1.263 . S
C95 N94 1.358 . S
C95 H101 0.930 . S
C96 N94 1.400 1_556 S
C96 C97 1.351 . S
C96 H113 0.930 . S
C97 N93 1.389 1_556 S
C97 C96 1.351 . S
C97 H102 0.930 . S
O98 Cu92 1.974 . S
O98 C108 1.282 . S
C99 O100 1.261 . S
C99 O112 1.251 . S
O100 C99 1.261 . S
H101 C95 0.930 . S
H102 C97 0.930 . S
N103 Cu92 1.985 . S
N103 C105 1.335 1_554 S
N103 C106 1.390 . S
N104 C105 1.345 1_554 S
N104 C107 1.336 . S
C105 N103 1.335 1_556 S
C105 N104 1.345 1_556 S
C105 H110 0.930 . S
C106 N103 1.390 . S
C106 C107 1.346 . S
C106 H111 0.930 . S
C107 N104 1.336 . S
C107 C106 1.346 . S
C107 H114 0.929 . S
C108 O98 1.282 . S
C108 O109 1.216 . S
O109 C108 1.216 . S
H110 C105 0.930 . S
H111 C106 0.930 . S
O112 Cu92 1.959 1_556 S
O112 C99 1.251 . S
H113 C96 0.930 . S
H114 C107 0.929 . S
Cu115 N116 1.999 . S
Cu115 O121 1.974 . S
Cu115 N126 1.985 . S
Cu115 O135 1.959 1_554 S
N116 Cu115 1.999 . S
N116 C118 1.263 . S
N116 C120 1.389 1_554 S
N117 C118 1.358 . S
N117 C119 1.400 1_554 S
C118 N116 1.263 . S
C118 N117 1.358 . S
C118 H124 0.930 . S
C119 N117 1.400 1_556 S
C119 C120 1.351 . S
C119 H136 0.930 . S
C120 N116 1.389 1_556 S
C120 C119 1.351 . S
C120 H125 0.930 . S
O121 Cu115 1.974 . S
O121 C131 1.282 . S
C122 O123 1.261 . S
C122 O135 1.251 . S
O123 C122 1.261 . S
H124 C118 0.930 . S
H125 C120 0.930 . S
N126 Cu115 1.985 . S
N126 C128 1.335 1_554 S
N126 C129 1.390 . S
N127 C128 1.345 1_554 S
N127 C130 1.336 . S
C128 N126 1.335 1_556 S
C128 N127 1.345 1_556 S
C128 H133 0.930 . S
C129 N126 1.390 . S
C129 C130 1.346 . S
C129 H134 0.930 . S
C130 N127 1.336 . S
C130 C129 1.346 . S
C130 H137 0.929 . S
C131 O121 1.282 . S
C131 O132 1.216 . S
O132 C131 1.216 . S
H133 C128 0.930 . S
H134 C129 0.930 . S
O135 Cu115 1.959 1_556 S
O135 C122 1.251 . S
H136 C119 0.930 . S
H137 C130 0.929 . S
Cu138 N139 1.999 . S
Cu138 O144 1.974 . S
Cu138 N149 1.985 . S
Cu138 O158 1.959 . S
N139 Cu138 1.999 . S
N139 C141 1.263 . S
N139 C143 1.389 . S
N140 C141 1.358 . S
N140 C142 1.400 . S
C141 N139 1.263 . S
C141 N140 1.358 . S
C141 H147 0.930 . S
C142 N140 1.400 . S
C142 C143 1.351 . S
C142 H159 0.930 . S
C143 N139 1.389 . S
C143 C142 1.351 . S
C143 H148 0.930 . S
O144 Cu138 1.974 . S
O144 C154 1.282 . S
C145 O146 1.261 . S
C145 O158 1.251 . S
O146 C145 1.261 . S
H147 C141 0.930 . S
H148 C143 0.930 . S
N149 Cu138 1.985 . S
N149 C151 1.335 . S
N149 C152 1.390 . S
N150 C151 1.345 . S
N150 C153 1.336 . S
C151 N149 1.335 . S
C151 N150 1.345 . S
C151 H156 0.930 . S
C152 N149 1.390 . S
C152 C153 1.346 . S
C152 H157 0.930 . S
C153 N150 1.336 . S
C153 C152 1.346 . S
C153 H160 0.929 . S
C154 O144 1.282 . S
C154 O155 1.216 . S
O155 C154 1.216 . S
H156 C151 0.930 . S
H157 C152 0.930 . S
O158 Cu138 1.959 . S
O158 C145 1.251 . S
H159 C142 0.930 . S
H160 C153 0.929 . S
Cu161 N162 1.999 . S
Cu161 O167 1.974 . S
Cu161 N172 1.985 . S
Cu161 O181 1.959 . S
N162 Cu161 1.999 . S
N162 C164 1.263 . S
N162 C166 1.389 . S
N163 C164 1.358 . S
N163 C165 1.400 . S
C164 N162 1.263 . S
C164 N163 1.358 . S
C164 H170 0.930 . S
C165 N163 1.400 . S
C165 C166 1.351 . S
C165 H182 0.930 . S
C166 N162 1.389 . S
C166 C165 1.351 . S
C166 H171 0.930 . S
O167 Cu161 1.974 . S
O167 C177 1.282 . S
C168 O169 1.261 . S
C168 O181 1.251 . S
O169 C168 1.261 . S
H170 C164 0.930 . S
H171 C166 0.930 . S
N172 Cu161 1.985 . S
N172 C174 1.335 . S
N172 C175 1.390 . S
N173 C174 1.345 . S
N173 C176 1.336 . S
C174 N172 1.335 . S
C174 N173 1.345 . S
C174 H179 0.930 . S
C175 N172 1.390 . S
C175 C176 1.346 . S
C175 H180 0.930 . S
C176 N173 1.336 . S
C176 C175 1.346 . S
C176 H183 0.929 . S
C177 O167 1.282 . S
C177 O178 1.216 . S
O178 C177 1.216 . S
H179 C174 0.930 . S
H180 C175 0.930 . S
O181 Cu161 1.959 . S
O181 C168 1.251 . S
H182 C165 0.930 . S
H183 C176 0.929 . S
C184 C185 1.386 . S
C184 C186 1.383 . S
C184 H200 0.951 1_554 S
C185 C184 1.386 . S
C185 C189 1.383 1_655 S
C186 C184 1.383 . S
C186 C187 1.402 . S
C186 H201 0.951 1_554 S
C187 C186 1.402 . S
C187 C188 1.375 1_655 S
C187 C190 1.481 . S
C188 C187 1.375 1_455 S
C188 C189 1.367 . S
C188 H202 0.951 . S
C189 C185 1.383 1_455 S
C189 C188 1.367 . S
C189 H203 0.950 . S
C190 C187 1.481 . S
C190 C191 1.297 1_565 S
C190 H204 0.950 1_655 S
C191 C190 1.297 1_545 S
C191 C192 1.479 . S
C191 H205 0.950 . S
C192 C191 1.479 . S
C192 C193 1.375 . S
C192 C198 1.404 1_655 S
C193 C192 1.375 . S
C193 C194 1.369 . S
C193 H206 0.950 1_554 S
C194 C193 1.369 . S
C194 C195 1.405 1_655 S
C194 H207 0.937 1_554 S
C195 C194 1.405 1_455 S
C195 C197 1.384 . S
H196 C198 0.949 . S
C197 C195 1.384 . S
C197 C198 1.385 . S
C197 H199 0.950 . S
C198 C192 1.404 1_455 S
C198 H196 0.949 . S
C198 C197 1.385 . S
H199 C197 0.950 . S
H200 C184 0.951 1_556 S
H201 C186 0.951 1_556 S
H202 C188 0.951 . S
H203 C189 0.950 . S
H204 C190 0.950 1_455 S
H205 C191 0.950 . S
H206 C193 0.950 1_556 S
H207 C194 0.937 1_556 S
C208 C209 1.386 . S
C208 C210 1.383 . S
C208 H224 0.951 . S
C209 C208 1.386 . S
C209 C213 1.383 1_455 S
C210 C208 1.383 . S
C210 C211 1.402 . S
C210 H225 0.951 . S
C211 C210 1.402 . S
C211 C212 1.375 1_455 S
C211 C214 1.481 . S
C212 C211 1.375 1_655 S
C212 C213 1.367 . S
C212 H226 0.951 . S
C213 C209 1.383 1_655 S
C213 C212 1.367 . S
C213 H227 0.950 . S
C214 C211 1.481 . S
C214 C215 1.297 1_565 S
C214 H228 0.950 1_455 S
C215 C214 1.297 1_545 S
C215 C216 1.479 . S
C215 H229 0.950 . S
C216 C215 1.479 . S
C216 C217 1.375 . S
C216 C222 1.404 . S
C217 C216 1.375 . S
C217 C218 1.369 . S
C217 H230 0.950 . S
C218 C217 1.369 . S
C218 C219 1.392 1_455 S
C218 H231 0.951 . S
C219 C218 1.392 1_655 S
C219 C221 1.384 . S
H220 C222 0.949 1_655 S
C221 C219 1.384 . S
C221 C222 1.385 1_655 S
C221 H223 0.950 . S
C222 C216 1.404 . S
C222 H220 0.949 1_455 S
C222 C221 1.385 1_455 S
H223 C221 0.950 . S
H224 C208 0.951 . S
H225 C210 0.951 . S
H226 C212 0.951 . S
H227 C213 0.950 . S
H228 C214 0.950 1_655 S
H229 C215 0.950 . S
H230 C217 0.950 . S
H231 C218 0.951 . S
C232 C233 1.386 . S
C232 C234 1.383 . S
C232 H248 0.951 . S
C233 C232 1.386 . S
C233 C237 1.383 . S
C234 C232 1.383 . S
C234 C235 1.402 . S
C234 H249 0.951 . S
C235 C234 1.402 . S
C235 C236 1.375 . S
C235 C238 1.481 . S
C236 C235 1.375 . S
C236 C237 1.367 . S
C236 H250 0.951 . S
C237 C233 1.383 . S
C237 C236 1.367 . S
C237 H251 0.950 . S
C238 C235 1.481 . S
C238 C239 1.297 . S
C238 H252 0.950 . S
C239 C238 1.297 . S
C239 C240 1.479 . S
C239 H253 0.950 . S
C240 C239 1.479 . S
C240 C241 1.375 . S
C240 C246 1.404 . S
C241 C240 1.375 . S
C241 C242 1.369 . S
C241 H254 0.950 . S
C242 C241 1.369 . S
C242 C243 1.392 . S
C242 H255 0.951 . S
C243 C242 1.392 . S
C243 C245 1.384 . S
H244 C246 0.949 . S
C245 C243 1.384 . S
C245 C246 1.385 . S
C245 H247 0.950 . S
C246 C240 1.404 . S
C246 H244 0.949 . S
C246 C245 1.385 . S
H247 C245 0.950 . S
H248 C232 0.951 . S
H249 C234 0.951 . S
H250 C236 0.951 . S
H251 C237 0.950 . S
H252 C238 0.950 . S
H253 C239 0.950 . S
H254 C241 0.950 . S
H255 C242 0.951 . S
C256 C257 1.386 . S
C256 C258 1.383 . S
C256 H272 0.951 . S
C257 C256 1.386 . S
C257 C261 1.383 . S
C258 C256 1.383 . S
C258 C259 1.402 . S
C258 H273 0.951 . S
C259 C258 1.402 . S
C259 C260 1.375 . S
C259 C262 1.481 . S
C260 C259 1.375 . S
C260 C261 1.367 . S
C260 H274 0.951 . S
C261 C257 1.383 . S
C261 C260 1.367 . S
C261 H275 0.950 . S
C262 C259 1.481 . S
C262 C263 1.297 . S
C262 H276 0.950 . S
C263 C262 1.297 . S
C263 C264 1.479 . S
C263 H277 0.950 . S
C264 C263 1.479 . S
C264 C265 1.375 . S
C264 C270 1.404 . S
C265 C264 1.375 . S
C265 C266 1.369 . S
C265 H278 0.950 . S
C266 C265 1.369 . S
C266 C267 1.392 . S
C266 H279 0.951 . S
C267 C266 1.392 . S
C267 C269 1.384 . S
H268 C270 0.949 . S
C269 C267 1.384 . S
C269 C270 1.385 . S
C269 H271 0.950 . S
C270 C264 1.404 . S
C270 H268 0.949 . S
C270 C269 1.385 . S
H271 C269 0.950 . S
H272 C256 0.951 . S
H273 C258 0.951 . S
H274 C260 0.951 . S
H275 C261 0.950 . S
H276 C262 0.950 . S
H277 C263 0.950 . S
H278 C265 0.950 . S
H279 C266 0.951 . S
C280 C281 1.386 . S
C280 C282 1.383 . S
C280 H296 0.951 . S
C281 C280 1.386 . S
C281 C285 1.383 1_455 S
C282 C280 1.383 . S
C282 C283 1.402 . S
C282 H297 0.951 . S
C283 C282 1.402 . S
C283 C284 1.375 1_455 S
C283 C286 1.481 1_455 S
C284 C283 1.375 1_655 S
C284 C285 1.367 . S
C284 H298 0.951 . S
C285 C281 1.383 1_655 S
C285 C284 1.367 . S
C285 H299 0.950 . S
C286 C283 1.481 1_655 S
C286 C287 1.297 1_655 S
C286 H300 0.950 . S
C287 C286 1.297 1_455 S
C287 C288 1.479 . S
C287 H301 0.950 . S
C288 C287 1.479 . S
C288 C289 1.375 . S
C288 C294 1.404 1_455 S
C289 C288 1.375 . S
C289 C290 1.369 . S
C289 H302 0.950 . S
C290 C289 1.369 . S
C290 C291 1.392 1_455 S
C290 H303 0.951 . S
C291 C290 1.392 1_655 S
C291 C293 1.384 . S
H292 C294 0.949 . S
C293 C291 1.384 . S
C293 C294 1.385 . S
C293 H295 0.950 . S
C294 C288 1.404 1_655 S
C294 H292 0.949 . S
C294 C293 1.385 . S
H295 C293 0.950 . S
H296 C280 0.951 . S
H297 C282 0.951 . S
H298 C284 0.951 . S
H299 C285 0.950 . S
H300 C286 0.950 . S
H301 C287 0.950 . S
H302 C289 0.950 . S
H303 C290 0.951 . S
C304 C305 1.386 . S
C304 C306 1.383 . S
C304 H320 0.951 . S
C305 C304 1.386 . S
C305 C309 1.383 1_455 S
C306 C304 1.383 . S
C306 C307 1.402 1_455 S
C306 H321 0.951 . S
C307 C306 1.402 1_655 S
C307 C308 1.375 . S
C307 C310 1.481 . S
C308 C307 1.375 . S
C308 C309 1.367 . S
C308 H322 0.951 . S
C309 C305 1.383 1_655 S
C309 C308 1.367 . S
C309 H323 0.950 . S
C310 C307 1.481 . S
C310 C311 1.297 1_655 S
C310 H324 0.950 . S
C311 C310 1.297 1_455 S
C311 C312 1.479 . S
C311 H325 0.950 . S
C312 C311 1.479 . S
C312 C313 1.375 . S
C312 C318 1.404 1_455 S
C313 C312 1.375 . S
C313 C314 1.369 . S
C313 H326 0.950 . S
C314 C313 1.369 . S
C314 C315 1.392 1_455 S
C314 H327 0.951 . S
C315 C314 1.392 1_655 S
C315 C317 1.384 . S
H316 C318 0.949 . S
C317 C315 1.384 . S
C317 C318 1.385 . S
C317 H319 0.950 . S
C318 C312 1.404 1_655 S
C318 H316 0.949 . S
C318 C317 1.385 . S
H319 C317 0.950 . S
H320 C304 0.951 . S
H321 C306 0.951 . S
H322 C308 0.951 . S
H323 C309 0.950 . S
H324 C310 0.950 . S
H325 C311 0.950 . S
H326 C313 0.950 . S
H327 C314 0.951 . S
C328 C329 1.386 . S
C328 C330 1.383 . S
C328 H344 0.951 . S
C329 C328 1.386 . S
C329 C333 1.383 1_455 S
C330 C328 1.383 . S
C330 C331 1.402 . S
C330 H345 0.951 . S
C331 C330 1.402 . S
C331 C332 1.375 1_455 S
C331 C334 1.481 1_455 S
C332 C331 1.375 1_655 S
C332 C333 1.367 . S
C332 H346 0.951 . S
C333 C329 1.383 1_655 S
C333 C332 1.367 . S
C333 H347 0.950 . S
C334 C331 1.481 1_655 S
C334 C335 1.297 1_655 S
C334 H348 0.950 . S
C335 C334 1.297 1_455 S
C335 C336 1.479 . S
C335 H349 0.950 . S
C336 C335 1.479 . S
C336 C337 1.375 . S
C336 C342 1.404 1_455 S
C337 C336 1.375 . S
C337 C338 1.369 . S
C337 H350 0.950 . S
C338 C337 1.369 . S
C338 C339 1.392 1_455 S
C338 H351 0.951 . S
C339 C338 1.392 1_655 S
C339 C341 1.384 . S
H340 C342 0.949 . S
C341 C339 1.384 . S
C341 C342 1.385 . S
C341 H343 0.950 . S
C342 C336 1.404 1_655 S
C342 H340 0.949 . S
C342 C341 1.385 . S
H343 C341 0.950 . S
H344 C328 0.951 . S
H345 C330 0.951 . S
H346 C332 0.951 . S
H347 C333 0.950 . S
H348 C334 0.950 . S
H349 C335 0.950 . S
H350 C337 0.950 . S
H351 C338 0.951 . S
C352 C353 1.386 . S
C352 C354 1.383 . S
C352 H368 0.951 . S
C353 C352 1.386 . S
C353 C357 1.383 1_455 S
C354 C352 1.383 . S
C354 C355 1.402 1_455 S
C354 H369 0.951 . S
C355 C354 1.402 1_655 S
C355 C356 1.375 . S
C355 C358 1.481 . S
C356 C355 1.375 . S
C356 C357 1.367 . S
C356 H370 0.951 . S
C357 C353 1.383 1_655 S
C357 C356 1.367 . S
C357 H371 0.950 . S
C358 C355 1.481 . S
C358 C359 1.297 1_655 S
C358 H372 0.950 . S
C359 C358 1.297 1_455 S
C359 C360 1.479 . S
C359 H373 0.950 . S
C360 C359 1.479 . S
C360 C361 1.375 . S
C360 C366 1.404 1_455 S
C361 C360 1.375 . S
C361 C362 1.369 . S
C361 H374 0.950 . S
C362 C361 1.369 . S
C362 C363 1.392 1_455 S
C362 H375 0.951 . S
C363 C362 1.392 1_655 S
C363 C365 1.384 . S
H364 C366 0.949 . S
C365 C363 1.384 . S
C365 C366 1.385 . S
C365 H367 0.950 . S
C366 C360 1.404 1_655 S
C366 H364 0.949 . S
C366 C365 1.385 . S
H367 C365 0.950 . S
H368 C352 0.951 . S
H369 C354 0.951 . S
H370 C356 0.951 . S
H371 C357 0.950 . S
H372 C358 0.950 . S
H373 C359 0.950 . S
H374 C361 0.950 . S
H375 C362 0.951 . S
C376 C377 1.386 . S
C376 C378 1.383 . S
C376 H392 0.951 . S
C377 C376 1.386 . S
C377 C381 1.383 . S
C378 C376 1.383 . S
C378 C379 1.402 . S
C378 H393 0.951 . S
C379 C378 1.402 . S
C379 C380 1.375 . S
C379 C382 1.481 . S
C380 C379 1.375 . S
C380 C381 1.367 . S
C380 H394 0.951 . S
C381 C377 1.383 . S
C381 C380 1.367 . S
C381 H395 0.950 . S
C382 C379 1.481 . S
C382 C383 1.297 . S
C382 H396 0.950 . S
C383 C382 1.297 . S
C383 C384 1.479 . S
C383 H397 0.950 . S
C384 C383 1.479 . S
C384 C385 1.375 . S
C384 C390 1.404 . S
C385 C384 1.375 . S
C385 C386 1.369 . S
C385 H398 0.950 . S
C386 C385 1.369 . S
C386 C387 1.392 . S
C386 H399 0.951 . S
C387 C386 1.392 . S
C387 C389 1.384 . S
H388 C390 0.949 . S
C389 C387 1.384 . S
C389 C390 1.385 . S
C389 H391 0.950 . S
C390 C384 1.404 . S
C390 H388 0.949 . S
C390 C389 1.385 . S
H391 C389 0.950 . S
H392 C376 0.951 . S
H393 C378 0.951 . S
H394 C380 0.951 . S
H395 C381 0.950 . S
H396 C382 0.950 . S
H397 C383 0.950 . S
H398 C385 0.950 . S
H399 C386 0.951 . S
C400 C401 1.386 . S
C400 C402 1.383 . S
C400 H416 0.951 . S
C401 C400 1.386 . S
C401 C405 1.383 . S
C402 C400 1.383 . S
C402 C403 1.402 . S
C402 H417 0.951 . S
C403 C402 1.402 . S
C403 C404 1.375 . S
C403 C406 1.481 . S
C404 C403 1.375 . S
C404 C405 1.367 . S
C404 H418 0.951 . S
C405 C401 1.383 . S
C405 C404 1.367 . S
C405 H419 0.950 . S
C406 C403 1.481 . S
C406 C407 1.297 . S
C406 H420 0.950 . S
C407 C406 1.297 . S
C407 C408 1.479 . S
C407 H421 0.950 . S
C408 C407 1.479 . S
C408 C409 1.375 . S
C408 C414 1.404 . S
C409 C408 1.375 . S
C409 C410 1.369 . S
C409 H422 0.950 . S
C410 C409 1.369 . S
C410 C411 1.392 . S
C410 H423 0.951 . S
C411 C410 1.392 . S
C411 C413 1.384 . S
H412 C414 0.949 . S
C413 C411 1.384 . S
C413 C414 1.385 . S
C413 H415 0.950 . S
C414 C408 1.404 . S
C414 H412 0.949 . S
C414 C413 1.385 . S
H415 C413 0.950 . S
H416 C400 0.951 . S
H417 C402 0.951 . S
H418 C404 0.951 . S
H419 C405 0.950 . S
H420 C406 0.950 . S
H421 C407 0.950 . S
H422 C409 0.950 . S
H423 C410 0.951 . S
C424 C425 1.386 . S
C424 C426 1.383 . S
C424 H440 0.951 . S
C425 C424 1.386 . S
C425 C429 1.383 . S
C426 C424 1.383 . S
C426 C427 1.402 . S
C426 H441 0.951 . S
C427 C426 1.402 . S
C427 C428 1.375 . S
C427 C430 1.481 . S
C428 C427 1.375 . S
C428 C429 1.367 . S
C428 H442 0.951 . S
C429 C425 1.383 . S
C429 C428 1.367 . S
C429 H443 0.950 . S
C430 C427 1.481 . S
C430 C431 1.297 . S
C430 H444 0.950 . S
C431 C430 1.297 . S
C431 C432 1.479 . S
C431 H445 0.950 . S
C432 C431 1.479 . S
C432 C433 1.375 . S
C432 C438 1.404 . S
C433 C432 1.375 . S
C433 C434 1.369 . S
C433 H446 0.950 . S
C434 C433 1.369 . S
C434 C435 1.392 . S
C434 H447 0.951 . S
C435 C434 1.392 . S
C435 C437 1.384 . S
H436 C438 0.949 . S
C437 C435 1.384 . S
C437 C438 1.385 . S
C437 H439 0.950 . S
C438 C432 1.404 . S
C438 H436 0.949 . S
C438 C437 1.385 . S
H439 C437 0.950 . S
H440 C424 0.951 . S
H441 C426 0.951 . S
H442 C428 0.951 . S
H443 C429 0.950 . S
H444 C430 0.950 . S
H445 C431 0.950 . S
H446 C433 0.950 . S
H447 C434 0.951 . S
C448 C449 1.386 . S
C448 C450 1.383 . S
C448 H464 0.951 . S
C449 C448 1.386 . S
C449 C453 1.383 . S
C450 C448 1.383 . S
C450 C451 1.402 . S
C450 H465 0.951 . S
C451 C450 1.402 . S
C451 C452 1.375 . S
C451 C454 1.481 . S
C452 C451 1.375 . S
C452 C453 1.367 . S
C452 H466 0.951 . S
C453 C449 1.383 . S
C453 C452 1.367 . S
C453 H467 0.950 . S
C454 C451 1.481 . S
C454 C455 1.297 . S
C454 H468 0.950 . S
C455 C454 1.297 . S
C455 C456 1.479 . S
C455 H469 0.950 . S
C456 C455 1.479 . S
C456 C457 1.375 . S
C456 C462 1.404 . S
C457 C456 1.375 . S
C457 C458 1.369 . S
C457 H470 0.950 . S
C458 C457 1.369 . S
C458 C459 1.392 . S
C458 H471 0.951 . S
C459 C458 1.392 . S
C459 C461 1.384 . S
H460 C462 0.949 . S
C461 C459 1.384 . S
C461 C462 1.385 . S
C461 H463 0.950 . S
C462 C456 1.404 . S
C462 H460 0.949 . S
C462 C461 1.385 . S
H463 C461 0.950 . S
H464 C448 0.951 . S
H465 C450 0.951 . S
H466 C452 0.951 . S
H467 C453 0.950 . S
H468 C454 0.950 . S
H469 C455 0.950 . S
H470 C457 0.950 . S
H471 C458 0.951 . S
C472 C473 1.386 . S
C472 C474 1.383 . S
C472 H488 0.951 . S
C473 C472 1.386 . S
C473 C477 1.383 1_556 S
C474 C472 1.383 . S
C474 C475 1.402 1_556 S
C474 H489 0.951 . S
C475 C474 1.402 1_554 S
C475 C476 1.375 . S
C475 C478 1.481 . S
C476 C475 1.375 . S
C476 C477 1.367 . S
C476 H490 0.951 . S
C477 C473 1.383 1_554 S
C477 C476 1.367 . S
C477 H491 0.950 . S
C478 C475 1.481 . S
C478 C479 1.297 1_554 S
C478 H492 0.950 . S
C479 C478 1.297 1_556 S
C479 C480 1.479 . S
C479 H493 0.950 . S
C480 C479 1.479 . S
C480 C481 1.375 . S
C480 C486 1.404 1_556 S
C481 C480 1.375 . S
C481 C482 1.369 . S
C481 H494 0.950 . S
C482 C481 1.369 . S
C482 C483 1.392 . S
C482 H495 0.951 . S
C483 C482 1.392 . S
C483 C485 1.384 1_556 S
H484 C486 0.949 . S
C485 C483 1.384 1_554 S
C485 C486 1.385 . S
C485 H487 0.950 . S
C486 C480 1.404 1_554 S
C486 H484 0.949 . S
C486 C485 1.385 . S
H487 C485 0.950 . S
H488 C472 0.951 . S
H489 C474 0.951 . S
H490 C476 0.951 . S
H491 C477 0.950 . S
H492 C478 0.950 . S
H493 C479 0.950 . S
H494 C481 0.950 . S
H495 C482 0.951 . S
C496 C497 1.386 1_554 S
C496 C498 1.383 . S
C496 H512 0.951 . S
C497 C496 1.386 1_556 S
C497 C501 1.383 . S
C498 C496 1.383 . S
C498 C499 1.402 1_554 S
C498 H513 0.951 . S
C499 C498 1.402 1_556 S
C499 C500 1.375 . S
C499 C502 1.481 . S
C500 C499 1.375 . S
C500 C501 1.367 . S
C500 H514 0.951 . S
C501 C497 1.383 . S
C501 C500 1.367 . S
C501 H515 0.950 . S
C502 C499 1.481 . S
C502 C503 1.314 . S
C502 H516 0.950 . S
C503 C502 1.314 . S
C503 C504 1.482 . S
C503 H517 0.929 1_556 S
C504 C503 1.482 . S
C504 C505 1.375 1_556 S
C504 C510 1.404 . S
C505 C504 1.375 1_554 S
C505 C506 1.369 . S
C505 H518 0.950 . S
C506 C505 1.369 . S
C506 C507 1.392 1_554 S
C506 H519 0.951 . S
C507 C506 1.392 1_556 S
C507 C509 1.384 . S
H508 C510 0.949 . S
C509 C507 1.384 . S
C509 C510 1.385 . S
C509 H511 0.950 . S
C510 C504 1.404 . S
C510 H508 0.949 . S
C510 C509 1.385 . S
H511 C509 0.950 . S
H512 C496 0.951 . S
H513 C498 0.951 . S
H514 C500 0.951 . S
H515 C501 0.950 . S
H516 C502 0.950 . S
H517 C503 0.929 1_554 S
H518 C505 0.950 . S
H519 C506 0.951 . S
C520 C521 1.386 . S
C520 C522 1.383 . S
C520 H536 0.951 . S
C521 C520 1.386 . S
C521 C525 1.383 . S
C522 C520 1.383 . S
C522 C523 1.402 . S
C522 H537 0.951 . S
C523 C522 1.402 . S
C523 C524 1.375 . S
C523 C526 1.481 . S
C524 C523 1.375 . S
C524 C525 1.367 . S
C524 H538 0.951 . S
C525 C521 1.383 . S
C525 C524 1.367 . S
C525 H539 0.950 . S
C526 C523 1.481 . S
C526 C527 1.297 . S
C526 H540 0.950 . S
C527 C526 1.297 . S
C527 C528 1.479 . S
C527 H541 0.950 . S
C528 C527 1.479 . S
C528 C529 1.375 . S
C528 C534 1.404 . S
C529 C528 1.375 . S
C529 C530 1.369 . S
C529 H542 0.950 . S
C530 C529 1.369 . S
C530 C531 1.392 . S
C530 H543 0.951 . S
C531 C530 1.392 . S
C531 C533 1.384 . S
H532 C534 0.949 . S
C533 C531 1.384 . S
C533 C534 1.385 . S
C533 H535 0.950 . S
C534 C528 1.404 . S
C534 H532 0.949 . S
C534 C533 1.385 . S
H535 C533 0.950 . S
H536 C520 0.951 . S
H537 C522 0.951 . S
H538 C524 0.951 . S
H539 C525 0.950 . S
H540 C526 0.950 . S
H541 C527 0.950 . S
H542 C529 0.950 . S
H543 C530 0.951 . S
C544 C545 1.386 . S
C544 C546 1.383 . S
C544 H560 0.951 . S
C545 C544 1.386 . S
C545 C549 1.383 . S
C546 C544 1.383 . S
C546 C547 1.402 . S
C546 H561 0.951 . S
C547 C546 1.402 . S
C547 C548 1.375 . S
C547 C550 1.481 . S
C548 C547 1.375 . S
C548 C549 1.367 . S
C548 H562 0.951 . S
C549 C545 1.383 . S
C549 C548 1.367 . S
C549 H563 0.950 . S
C550 C547 1.481 . S
C550 C551 1.297 . S
C550 H564 0.950 . S
C551 C550 1.297 . S
C551 C552 1.479 . S
C551 H565 0.950 . S
C552 C551 1.479 . S
C552 C553 1.375 . S
C552 C558 1.404 . S
C553 C552 1.375 . S
C553 C554 1.369 . S
C553 H566 0.950 . S
C554 C553 1.369 . S
C554 C555 1.392 . S
C554 H567 0.951 . S
C555 C554 1.392 . S
C555 C557 1.384 . S
H556 C558 0.949 . S
C557 C555 1.384 . S
C557 C558 1.385 . S
C557 H559 0.950 . S
C558 C552 1.404 . S
C558 H556 0.949 . S
C558 C557 1.385 . S
H559 C557 0.950 . S
H560 C544 0.951 . S
H561 C546 0.951 . S
H562 C548 0.951 . S
H563 C549 0.950 . S
H564 C550 0.950 . S
H565 C551 0.950 . S
H566 C553 0.950 . S
H567 C554 0.951 . S
C185 N25 1.483 . S
C195 N2 1.505 . S
C209 N48 1.478 . S
C219 N71 1.500 . S
C233 N94 1.431 . S
C243 N117 1.413 . S
C257 N140 1.432 . S
C267 N163 1.403 . S
C281 C16 1.477 . S
C291 C85 1.455 . S
C305 C62 1.474 . S
C315 C39 1.455 . S
C329 C53 1.490 . S
C339 C30 1.475 . S
C353 C7 1.489 . S
C363 C76 1.473 . S
C377 C108 1.476 . S
C387 C177 1.454 . S
C401 C154 1.496 . S
C411 C131 1.482 . S
C425 C122 1.510 . S
C435 C145 1.506 . S
C449 C99 1.491 . S
C459 C168 1.476 . S
C473 N127 1.462 1_556 S
C483 N12 1.493 1_556 S
C497 N104 1.512 1_556 S
C507 N35 1.473 1_556 S
C521 N58 1.512 . S
C531 N173 1.474 . S
C545 N150 1.475 . S
C555 N81 1.429 . S
