# Generated by pormake.
# Topology rob, (6)-cn, num edge types: 1
# Building blocks:
#     Node 0, Type 0, BuildingBlock: MIFKUJ_clean_sbu_0, # of connection points: 6
#     Node 1, Type 0, BuildingBlock: MIFKUJ_clean_sbu_0, # of connection points: 6
#     Node 2, Type 0, BuildingBlock: MIFKUJ_clean_sbu_0, # of connection points: 6
#     Node 3, Type 0, BuildingBlock: MIFKUJ_clean_sbu_0, # of connection points: 6
#     Edge 4, Type (0, 0), BuildingBlock: XIVTED_clean_linker_0, # of connection points: 2
#     Edge 5, Type (0, 0), BuildingBlock: XIVTED_clean_linker_0, # of connection points: 2
#     Edge 6, Type (0, 0), BuildingBlock: XIVTED_clean_linker_0, # of connection points: 2
#     Edge 7, Type (0, 0), BuildingBlock: XIVTED_clean_linker_0, # of connection points: 2
#     Edge 8, Type (0, 0), BuildingBlock: XIVTED_clean_linker_0, # of connection points: 2
#     Edge 9, Type (0, 0), BuildingBlock: XIVTED_clean_linker_0, # of connection points: 2
#     Edge 10, Type (0, 0), BuildingBlock: XIVTED_clean_linker_0, # of connection points: 2
#     Edge 11, Type (0, 0), BuildingBlock: XIVTED_clean_linker_0, # of connection points: 2
#     Edge 12, Type (0, 0), BuildingBlock: XIVTED_clean_linker_0, # of connection points: 2
#     Edge 13, Type (0, 0), BuildingBlock: XIVTED_clean_linker_0, # of connection points: 2
#     Edge 14, Type (0, 0), BuildingBlock: XIVTED_clean_linker_0, # of connection points: 2
#     Edge 15, Type (0, 0), BuildingBlock: XIVTED_clean_linker_0, # of connection points: 2
# Relax obj value: 0.071
# Max RMSD: 0.166
# Mean RMSD: 0.166
data_MOF--net-rob--node1-MIFKUJ_clean_sbu_0--edge1-XIVTED_clean_linker_0
_symmetry_space_group_name_H-M    P1
_symmetry_Int_Tables_number       1
_symmetry_cell_setting            triclinic
loop_
_symmetry_equiv_pos_as_xyz
'x, y, z'
_cell_length_a     16.02972
_cell_length_b     23.140073
_cell_length_c     30.65867
_cell_angle_alpha  89.883361
_cell_angle_beta   84.031586
_cell_angle_gamma 89.206326
loop_
_atom_site_label
_atom_site_type_symbol
_atom_site_fract_x
_atom_site_fract_y
_atom_site_fract_z
_atom_type_partial_charge
Zn0 Zn 0.1789 0.28728 0.91984 0.0
Zn1 Zn 0.30211 0.2264 0.98505 0.0
C2 C 0.28689 0.30671 0.84733 0.0
O3 O 0.26107 0.35811 0.86157 0.0
C4 C 0.21988 0.21801 0.06786 0.0
O5 O 0.24794 0.16531 0.05877 0.0
O6 O 0.09577 0.32722 0.8841 0.0
O7 O 0.12414 0.21952 0.95127 0.0
O8 O 0.23542 0.16437 0.95911 0.0
C9 C 0.03986 0.29829 0.86772 0.0
O10 O 0.02346 0.24586 0.88234 0.0
O11 O 0.26473 0.2627 0.87044 0.0
C12 C 0.44006 0.22925 0.03263 0.0
O13 O 0.41932 0.28386 0.02836 0.0
O14 O 0.40038 0.19131 0.01341 0.0
O15 O 0.34679 0.29301 0.94757 0.0
O16 O 0.23116 0.34515 0.95719 0.0
O17 O 0.22992 0.25656 0.03823 0.0
C18 C 0.15648 0.17041 0.95849 0.0
C19 C 0.31043 0.34128 0.95644 0.0
Zn20 Zn 0.66909 0.77614 0.02197 0.0
Zn21 Zn 0.7592 0.72833 0.10213 0.0
C22 C 0.80239 0.78625 0.95871 0.0
O23 O 0.76631 0.83761 0.9617 0.0
C24 C 0.64141 0.70275 0.1701 0.0
O25 O 0.67922 0.65365 0.15825 0.0
O26 O 0.59441 0.79491 0.97453 0.0
O27 O 0.61019 0.71551 0.05981 0.0
O28 O 0.72348 0.66302 0.06443 0.0
C29 C 0.5865 0.74967 0.95189 0.0
O30 O 0.61772 0.70069 0.96514 0.0
O31 O 0.77363 0.74652 0.98465 0.0
C32 C 0.86119 0.74164 0.16673 0.0
O33 O 0.83269 0.7937 0.15877 0.0
O34 O 0.8433 0.70024 0.14228 0.0
O35 O 0.81126 0.79892 0.07172 0.0
O36 O 0.70166 0.84731 0.05245 0.0
O37 O 0.66107 0.74781 0.14762 0.0
C38 C 0.64606 0.66633 0.05899 0.0
C39 C 0.77759 0.84618 0.06088 0.0
Zn40 Zn 0.26714 0.73805 0.59935 0.0
Zn41 Zn 0.16082 0.69077 0.52608 0.0
C42 C 0.16035 0.76423 0.67267 0.0
O43 O 0.19658 0.81301 0.6602 0.0
C44 C 0.28046 0.6788 0.45604 0.0
O45 O 0.24409 0.62835 0.46108 0.0
O46 O 0.35776 0.76676 0.63459 0.0
O47 O 0.31565 0.66691 0.56774 0.0
O48 O 0.20397 0.61876 0.55365 0.0
C49 C 0.3896 0.72612 0.65568 0.0
O50 O 0.36844 0.67266 0.64829 0.0
O51 O 0.1761 0.71975 0.64864 0.0
C52 C 0.05547 0.71666 0.46419 0.0
O53 O 0.08379 0.76653 0.47609 0.0
O54 O 0.07586 0.6713 0.48424 0.0
O55 O 0.10882 0.75419 0.5658 0.0
O56 O 0.22558 0.8027 0.5624 0.0
O57 O 0.25695 0.71911 0.48296 0.0
C58 C 0.28169 0.61974 0.55863 0.0
C59 C 0.14653 0.80205 0.56193 0.0
Zn60 Zn 0.76807 0.26239 0.50456 0.0
Zn61 Zn 0.75244 0.21199 0.39249 0.0
C62 C 0.62627 0.29871 0.558 0.0
O63 O 0.66902 0.34664 0.55253 0.0
C64 C 0.92662 0.23708 0.36468 0.0
O65 O 0.94132 0.19079 0.38765 0.0
O66 O 0.83021 0.30083 0.55036 0.0
O67 O 0.81472 0.18256 0.49325 0.0
O68 O 0.79349 0.14531 0.4283 0.0
C69 C 0.90288 0.28977 0.56145 0.0
O70 O 0.95282 0.25375 0.53778 0.0
O71 O 0.65404 0.25351 0.53765 0.0
C72 C 0.70004 0.22387 0.31006 0.0
O73 O 0.7179 0.27653 0.32167 0.0
O74 O 0.70596 0.1829 0.33742 0.0
O75 O 0.66321 0.2651 0.42181 0.0
O76 O 0.75864 0.31291 0.45188 0.0
O77 O 0.85249 0.25773 0.36705 0.0
C78 C 0.81971 0.14091 0.46606 0.0
C79 C 0.68533 0.31083 0.4399 0.0
H80 H 0.70633 0.55835 0.03338 0.0
H81 H 0.25164 0.4445 0.99145 0.0
H82 H 0.47744 0.65907 0.05735 0.0
H83 H 0.48121 0.34996 0.9521 0.0
H84 H 0.33392 0.52219 0.01836 0.0
H85 H 0.62493 0.47853 0.00768 0.0
C86 C 0.63902 0.56344 0.03364 0.0
C87 C 0.59864 0.61543 0.04732 0.0
C88 C 0.36638 0.4845 1.00376 0.0
C89 C 0.50558 0.52497 0.01777 0.0
C90 C 0.31938 0.44023 0.98821 0.0
C91 C 0.35955 0.39052 0.96977 0.0
C92 C 0.45422 0.47903 1.0009 0.0
C93 C 0.4476 0.38737 0.96641 0.0
C94 C 0.59269 0.51812 0.01872 0.0
C95 C 0.5113 0.61988 0.04684 0.0
N96 N 0.49201 0.4309 0.98205 0.0
N97 N 0.46784 0.57536 0.03221 0.0
H98 H 0.4476 0.60777 0.56892 0.0
H99 H 0.51346 0.30229 0.4487 0.0
H100 H 0.24268 0.51706 0.52015 0.0
H101 H 0.71321 0.41984 0.46776 0.0
H102 H 0.41141 0.37435 0.48076 0.0
H103 H 0.54334 0.53135 0.54047 0.0
C104 C 0.42243 0.57148 0.55252 0.0
C105 C 0.33687 0.5692 0.54657 0.0
C106 C 0.47757 0.3843 0.47774 0.0
C107 C 0.4471 0.4814 0.51341 0.0
C108 C 0.5358 0.34338 0.4593 0.0
C109 C 0.62204 0.35496 0.45596 0.0
C110 C 0.50597 0.43698 0.49289 0.0
C111 C 0.64744 0.4089 0.47012 0.0
C112 C 0.47743 0.52794 0.53605 0.0
C113 C 0.30815 0.52068 0.52538 0.0
N114 N 0.58976 0.44767 0.48822 0.0
N115 N 0.36334 0.47874 0.50927 0.0
H116 H 0.9867 0.16611 0.95596 0.0
H117 H 0.94471 0.85529 0.06943 0.0
H118 H 0.198 0.06389 0.98998 0.0
H119 H 0.73504 0.95068 0.02595 0.0
H120 H 0.03729 0.93333 0.04331 0.0
H121 H 0.89321 0.08862 0.98251 0.0
C122 C 0.01361 0.12719 0.9687 0.0
C123 C 0.10047 0.12154 0.97075 0.0
C124 C 0.97101 0.93735 0.03961 0.0
C125 C -0.00663 0.03285 1.00168 0.0
C126 C 0.91788 0.8929 0.05474 0.0
C127 C 0.83186 0.89631 0.04975 0.0
C128 C 0.93805 0.98576 0.0194 0.0
C129 C 0.80088 0.94619 0.0305 0.0
C130 C 0.96003 0.08301 0.98399 0.0
C131 C 0.13156 0.07009 0.98763 0.0
N132 N 0.85406 0.98889 0.01586 0.0
N133 N 0.07796 0.02783 1.00264 0.0
H134 H 0.92401 0.0692 0.41384 0.0
H135 H 0.98788 0.83308 0.59367 0.0
H136 H 0.81252 0.09207 0.54703 0.0
H137 H 0.19678 0.8871 0.50349 0.0
H138 H 0.90446 0.91468 0.56954 0.0
H139 H 0.00615 0.98669 0.43811 0.0
C140 C 0.91586 0.05623 0.44797 0.0
C141 C 0.86162 0.08724 0.47856 0.0
C142 C 0.96871 0.90869 0.5553 0.0
C143 C 0.95413 0.99355 0.50614 0.0
C144 C 0.01619 0.86247 0.56904 0.0
C145 C 0.0993 0.85403 0.55079 0.0
C146 C 0.00389 0.94542 0.52212 0.0
C147 C 0.13321 0.89286 0.51875 0.0
C148 C 0.96317 0.00976 0.46178 0.0
C149 C 0.85391 0.06923 0.52251 0.0
N150 N 0.08489 0.93663 0.50492 0.0
N151 N 0.89928 0.02323 0.53499 0.0
H152 H 0.73994 0.29071 0.23881 0.0
H153 H 0.43654 0.1343 0.08704 0.0
H154 H 0.60859 0.13488 0.27907 0.0
H155 H 0.57155 0.29095 0.05417 0.0
H156 H 0.51352 0.12331 0.15208 0.0
H157 H 0.69355 0.28144 0.16641 0.0
C158 C 0.70125 0.25431 0.23233 0.0
C159 C 0.67692 0.21402 0.26525 0.0
C160 C 0.52741 0.15938 0.13009 0.0
C161 C 0.62247 0.20323 0.18186 0.0
C162 C 0.48414 0.16535 0.09281 0.0
C163 C 0.49768 0.21376 0.06542 0.0
C164 C 0.5845 0.20204 0.13962 0.0
C165 C 0.55888 0.25323 0.07463 0.0
C166 C 0.67491 0.24888 0.19078 0.0
C167 C 0.62819 0.1671 0.25462 0.0
N168 N 0.59935 0.24675 0.11104 0.0
N169 N 0.60139 0.16339 0.2139 0.0
H170 H 0.57311 0.79795 0.2166 0.0
H171 H 0.37729 0.59657 0.41312 0.0
H172 H 0.58173 0.61141 0.21839 0.0
H173 H 0.32486 0.77987 0.41155 0.0
H174 H 0.46538 0.60572 0.34433 0.0
H175 H 0.48997 0.79646 0.28901 0.0
C176 C 0.55695 0.75683 0.23193 0.0
C177 C 0.58461 0.70472 0.21141 0.0
C178 C 0.43507 0.64423 0.35882 0.0
C179 C 0.49137 0.70279 0.29401 0.0
C180 C 0.38488 0.639 0.39831 0.0
C181 C 0.3431 0.68743 0.41783 0.0
C182 C 0.44353 0.69832 0.33809 0.0
C183 C 0.35619 0.74148 0.39747 0.0
C184 C 0.51005 0.75604 0.27328 0.0
C185 C 0.56239 0.65273 0.23286 0.0
N186 N 0.40483 0.74549 0.3583 0.0
N187 N 0.51763 0.6532 0.2728 0.0
H188 H 0.53605 0.84485 0.90598 0.0
H189 H 0.49394 0.65277 0.6931 0.0
H190 H 0.56708 0.65932 0.89808 0.0
H191 H 0.38717 0.82487 0.70584 0.0
H192 H 0.54583 0.66302 0.76435 0.0
H193 H 0.49801 0.84526 0.83011 0.0
C194 C 0.5342 0.80432 0.88853 0.0
C195 C 0.55493 0.75199 0.90836 0.0
C196 C 0.51166 0.69887 0.75155 0.0
C197 C 0.51376 0.75241 0.82195 0.0
C198 C 0.48258 0.69316 0.71069 0.0
C199 C 0.43557 0.7378 0.69382 0.0
C200 C 0.49317 0.74946 0.77607 0.0
C201 C 0.4233 0.78944 0.7178 0.0
C202 C 0.51305 0.80466 0.84528 0.0
C203 C 0.552 0.70078 0.88423 0.0
N204 N 0.45109 0.79369 0.75818 0.0
N205 N 0.53236 0.70239 0.84239 0.0
H206 H 0.52907 0.38759 0.59247 0.0
H207 H 0.34578 0.20791 0.80342 0.0
H208 H 0.56864 0.20372 0.60487 0.0
H209 H 0.32782 0.39332 0.78962 0.0
H210 H 0.41438 0.20219 0.728 0.0
H211 H 0.43669 0.38674 0.66072 0.0
C212 C 0.51718 0.34684 0.60933 0.0
C213 C 0.55727 0.29581 0.59347 0.0
C214 C 0.39511 0.244 0.74162 0.0
C215 C 0.45312 0.29455 0.67215 0.0
C216 C 0.35651 0.24731 0.78467 0.0
C217 C 0.33178 0.30119 0.80298 0.0
C218 C 0.40845 0.29493 0.71692 0.0
C219 C 0.34637 0.35084 0.77712 0.0
C220 C 0.46476 0.34635 0.64842 0.0
C221 C 0.539 0.24405 0.61619 0.0
N222 N 0.3837 0.34645 0.73556 0.0
N223 N 0.48914 0.24484 0.6549 0.0
H224 H 0.88669 0.6383 0.2091 0.0
H225 H 0.97981 0.80522 0.42556 0.0
H226 H 0.91968 0.82253 0.21893 0.0
H227 H 0.03871 0.62336 0.4099 0.0
H228 H 0.93471 0.80728 0.35244 0.0
H229 H 0.92842 0.62726 0.28384 0.0
C230 C 0.904 0.67618 0.22661 0.0
C231 C 0.89916 0.73149 0.20795 0.0
C232 C 0.95711 0.76673 0.36491 0.0
C233 C 0.94443 0.7193 0.29308 0.0
C234 C 0.98229 0.76543 0.40684 0.0
C235 C 0.01383 0.71417 0.4236 0.0
C236 C 0.96345 0.71643 0.33923 0.0
C237 C 0.01472 0.66377 0.39806 0.0
C238 C 0.9271 0.66987 0.26924 0.0
C239 C 0.92163 0.77913 0.2321 0.0
N240 N 0.99052 0.6662 0.35676 0.0
N241 N 0.94247 0.77195 0.27342 0.0
H242 H 0.08679 0.19628 0.3449 0.0
H243 H 0.1191 0.31037 0.09726 0.0
H244 H 0.90366 0.31307 0.29779 0.0
H245 H 0.24507 0.15851 0.14159 0.0
H246 H 0.06091 0.32931 0.17353 0.0
H247 H 0.17019 0.20279 0.27394 0.0
C248 C 0.06495 0.22432 0.32 0.0
C249 C 0.9872 0.25314 0.32704 0.0
C250 C 0.10187 0.29218 0.16639 0.0
C251 C 0.08181 0.26004 0.24546 0.0
C252 C 0.13481 0.28133 0.12302 0.0
C253 C 0.1857 0.2323 0.11312 0.0
C254 C 0.12148 0.25425 0.19985 0.0
C255 C 0.2048 0.19622 0.14762 0.0
C256 C 0.11236 0.22771 0.27936 0.0
C257 C 0.96271 0.28944 0.29363 0.0
N258 N 0.17262 0.20787 0.18934 0.0
N259 N 0.00918 0.29109 0.25394 0.0
H260 H 0.79283 0.32463 0.63062 0.0
H261 H 0.13036 0.35634 0.80159 0.0
H262 H 0.05694 0.29402 0.59332 0.0
H263 H 0.89101 0.27608 0.83549 0.0
H264 H 0.09679 0.36613 0.72562 0.0
H265 H 0.82267 0.33963 0.70634 0.0
C266 C 0.85738 0.32223 0.6381 0.0
C267 C 0.9226 0.30758 0.60557 0.0
C268 C 0.05113 0.34751 0.75 0.0
C269 C 0.95664 0.32542 0.69211 0.0
C270 C 0.0697 0.34239 0.79337 0.0
C271 C 0.01307 0.31546 0.82485 0.0
C272 C 0.97465 0.32688 0.73839 0.0
C273 C 0.93616 0.29715 0.81219 0.0
C274 C 0.87406 0.33051 0.68137 0.0
C275 C 0.00484 0.3048 0.61741 0.0
N276 N 0.91908 0.30323 0.76988 0.0
N277 N 0.01961 0.31357 0.65983 0.0
H278 H 0.0794 0.67069 0.71408 0.0
H279 H 0.91606 0.86266 0.92401 0.0
H280 H 0.12589 0.85238 0.73009 0.0
H281 H 0.83755 0.68673 0.91037 0.0
H282 H 0.00804 0.85314 0.8562 0.0
H283 H 0.00068 0.67018 0.78763 0.0
C284 C 0.07288 0.71037 0.73287 0.0
C285 C 0.10909 0.7617 0.71574 0.0
C286 C 0.97144 0.81622 0.86795 0.0
C287 C 0.02074 0.76118 0.79969 0.0
C288 C 0.91921 0.82162 0.90688 0.0
C289 C 0.86898 0.77554 0.9226 0.0
C290 C 0.97295 0.76452 0.8439 0.0
C291 C 0.8758 0.72318 0.89931 0.0
C292 C 0.02836 0.70998 0.77484 0.0
C293 C 0.09911 0.81175 0.74163 0.0
N294 N 0.92614 0.71923 0.86065 0.0
N295 N 0.05621 0.81012 0.78205 0.0
loop_
_geom_bond_atom_site_label_1
_geom_bond_atom_site_label_2
_geom_bond_distance
_geom_bond_site_symmetry_2
_ccdc_geom_bond_type
Zn0 O6 1.969 . S
Zn0 O7 1.965 . S
Zn0 O11 2.024 . S
Zn0 O16 1.969 . S
Zn1 O8 1.969 . S
Zn1 O14 1.969 . S
Zn1 O15 1.965 . S
Zn1 O17 2.024 . S
C2 O3 1.229 . S
C2 O11 1.058 . S
O3 C2 1.229 . S
C4 O5 1.229 . S
C4 O17 1.058 . S
O5 C4 1.229 . S
O6 Zn0 1.969 . S
O6 C9 1.267 . S
O7 Zn0 1.965 . S
O7 C18 1.260 1_556 S
O8 Zn1 1.969 . S
O8 C18 1.258 . S
C9 O6 1.267 . S
C9 O10 1.228 . S
O10 C9 1.228 . S
O11 Zn0 2.024 . S
O11 C2 1.058 . S
C12 O13 1.228 . S
C12 O14 1.267 . S
O13 C12 1.228 . S
O14 Zn1 1.969 . S
O14 C12 1.267 . S
O15 Zn1 1.965 . S
O15 C19 1.260 1_554 S
O16 Zn0 1.969 . S
O16 C19 1.258 . S
O17 Zn1 2.024 . S
O17 C4 1.058 . S
C18 O7 1.260 1_554 S
C18 O8 1.258 . S
C19 O15 1.260 1_556 S
C19 O16 1.258 . S
Zn20 O26 1.969 . S
Zn20 O27 1.965 . S
Zn20 O31 2.024 . S
Zn20 O36 1.969 . S
Zn21 O28 1.969 . S
Zn21 O34 1.969 . S
Zn21 O35 1.965 . S
Zn21 O37 2.024 . S
C22 O23 1.229 . S
C22 O31 1.058 . S
O23 C22 1.229 . S
C24 O25 1.229 . S
C24 O37 1.058 . S
O25 C24 1.229 . S
O26 Zn20 1.969 . S
O26 C29 1.267 . S
O27 Zn20 1.965 . S
O27 C38 1.260 1_556 S
O28 Zn21 1.969 . S
O28 C38 1.258 . S
C29 O26 1.267 . S
C29 O30 1.228 . S
O30 C29 1.228 . S
O31 Zn20 2.024 . S
O31 C22 1.058 . S
C32 O33 1.228 . S
C32 O34 1.267 . S
O33 C32 1.228 . S
O34 Zn21 1.969 . S
O34 C32 1.267 . S
O35 Zn21 1.965 . S
O35 C39 1.260 1_554 S
O36 Zn20 1.969 . S
O36 C39 1.258 . S
O37 Zn21 2.024 . S
O37 C24 1.058 . S
C38 O27 1.260 1_554 S
C38 O28 1.258 . S
C39 O35 1.260 1_556 S
C39 O36 1.258 . S
Zn40 O46 1.969 . S
Zn40 O47 1.965 . S
Zn40 O51 2.024 . S
Zn40 O56 1.969 . S
Zn41 O48 1.969 . S
Zn41 O54 1.969 . S
Zn41 O55 1.965 . S
Zn41 O57 2.024 . S
C42 O43 1.229 . S
C42 O51 1.058 . S
O43 C42 1.229 . S
C44 O45 1.229 . S
C44 O57 1.058 . S
O45 C44 1.229 . S
O46 Zn40 1.969 . S
O46 C49 1.267 . S
O47 Zn40 1.965 . S
O47 C58 1.260 . S
O48 Zn41 1.969 . S
O48 C58 1.258 . S
C49 O46 1.267 . S
C49 O50 1.228 . S
O50 C49 1.228 . S
O51 Zn40 2.024 . S
O51 C42 1.058 . S
C52 O53 1.228 . S
C52 O54 1.267 . S
O53 C52 1.228 . S
O54 Zn41 1.969 . S
O54 C52 1.267 . S
O55 Zn41 1.965 . S
O55 C59 1.260 . S
O56 Zn40 1.969 . S
O56 C59 1.258 . S
O57 Zn41 2.024 . S
O57 C44 1.058 . S
C58 O47 1.260 . S
C58 O48 1.258 . S
C59 O55 1.260 . S
C59 O56 1.258 . S
Zn60 O66 1.969 . S
Zn60 O67 1.965 . S
Zn60 O71 2.024 . S
Zn60 O76 1.969 . S
Zn61 O68 1.969 . S
Zn61 O74 1.969 . S
Zn61 O75 1.965 . S
Zn61 O77 2.024 . S
C62 O63 1.229 . S
C62 O71 1.058 . S
O63 C62 1.229 . S
C64 O65 1.229 . S
C64 O77 1.058 . S
O65 C64 1.229 . S
O66 Zn60 1.969 . S
O66 C69 1.267 . S
O67 Zn60 1.965 . S
O67 C78 1.260 . S
O68 Zn61 1.969 . S
O68 C78 1.258 . S
C69 O66 1.267 . S
C69 O70 1.228 . S
O70 C69 1.228 . S
O71 Zn60 2.024 . S
O71 C62 1.058 . S
C72 O73 1.228 . S
C72 O74 1.267 . S
O73 C72 1.228 . S
O74 Zn61 1.969 . S
O74 C72 1.267 . S
O75 Zn61 1.965 . S
O75 C79 1.260 . S
O76 Zn60 1.969 . S
O76 C79 1.258 . S
O77 Zn61 2.024 . S
O77 C64 1.058 . S
C78 O67 1.260 . S
C78 O68 1.258 . S
C79 O75 1.260 . S
C79 O76 1.258 . S
H80 C86 0.930 . S
H81 C90 0.930 . S
H82 C95 0.929 . S
H83 C93 0.929 . S
H84 C88 0.929 . S
H85 C94 0.929 . S
C86 H80 0.930 . S
C86 C87 1.367 . S
C86 C94 1.378 . S
C87 C86 1.367 . S
C87 C95 1.433 1_556 S
C88 H84 0.929 . S
C88 C90 1.378 . S
C88 C92 1.350 . S
C89 C92 1.462 . S
C89 C94 1.351 1_554 S
C89 N97 1.428 . S
C90 H81 0.930 . S
C90 C88 1.378 . S
C90 C91 1.367 . S
C91 C90 1.367 . S
C91 C93 1.433 . S
C92 C88 1.350 . S
C92 C89 1.462 . S
C92 N96 1.427 . S
C93 H83 0.929 . S
C93 C91 1.433 . S
C93 N96 1.383 . S
C94 H85 0.929 . S
C94 C86 1.378 . S
C94 C89 1.351 1_556 S
C95 H82 0.929 . S
C95 C87 1.433 1_554 S
C95 N97 1.384 . S
N96 C92 1.427 . S
N96 C93 1.383 . S
N97 C89 1.428 . S
N97 C95 1.384 . S
H98 C104 0.930 . S
H99 C108 0.930 . S
H100 C113 0.929 . S
H101 C111 0.929 . S
H102 C106 0.929 . S
H103 C112 0.929 . S
C104 H98 0.930 . S
C104 C105 1.367 . S
C104 C112 1.378 . S
C105 C104 1.367 . S
C105 C113 1.433 . S
C106 H102 0.929 . S
C106 C108 1.378 . S
C106 C110 1.350 . S
C107 C110 1.463 . S
C107 C112 1.350 . S
C107 N115 1.427 . S
C108 H99 0.930 . S
C108 C106 1.378 . S
C108 C109 1.367 . S
C109 C108 1.367 . S
C109 C111 1.433 . S
C110 C106 1.350 . S
C110 C107 1.463 . S
C110 N114 1.427 . S
C111 H101 0.929 . S
C111 C109 1.433 . S
C111 N114 1.384 . S
C112 H103 0.929 . S
C112 C104 1.378 . S
C112 C107 1.350 . S
C113 H100 0.929 . S
C113 C105 1.433 . S
C113 N115 1.384 . S
N114 C110 1.427 . S
N114 C111 1.384 . S
N115 C107 1.427 . S
N115 C113 1.384 . S
H116 C122 0.930 . S
H117 C126 0.930 . S
H118 C131 0.929 . S
H119 C129 0.929 . S
H120 C124 0.929 1_455 S
H121 C130 0.929 1_655 S
C122 H116 0.930 . S
C122 C123 1.355 1_554 S
C122 C130 1.378 . S
C123 C122 1.355 1_556 S
C123 C131 1.447 . S
C124 H120 0.929 1_655 S
C124 C126 1.378 . S
C124 C128 1.350 1_556 S
C125 C128 1.463 1_445 S
C125 C130 1.350 . S
C125 N133 1.427 1_554 S
C126 H117 0.930 . S
C126 C124 1.378 . S
C126 C127 1.367 1_556 S
C127 C126 1.367 1_554 S
C127 C129 1.433 . S
C128 C124 1.350 1_554 S
C128 C125 1.463 1_665 S
C128 N132 1.427 . S
C129 H119 0.929 . S
C129 C127 1.433 . S
C129 N132 1.384 . S
C130 H121 0.929 1_455 S
C130 C122 1.378 . S
C130 C125 1.350 . S
C131 H118 0.929 . S
C131 C123 1.447 . S
C131 N133 1.384 . S
N132 C128 1.427 . S
N132 C129 1.384 . S
N133 C125 1.427 1_556 S
N133 C131 1.384 . S
H134 C140 0.930 . S
H135 C144 0.930 . S
H136 C149 0.929 . S
H137 C147 0.929 . S
H138 C142 0.929 . S
H139 C148 0.929 . S
C140 H134 0.930 . S
C140 C141 1.367 . S
C140 C148 1.378 . S
C141 C140 1.367 . S
C141 C149 1.433 . S
C142 H138 0.929 . S
C142 C144 1.378 . S
C142 C146 1.350 . S
C143 C146 1.463 1_645 S
C143 C148 1.350 . S
C143 N151 1.427 . S
C144 H135 0.930 . S
C144 C142 1.378 . S
C144 C145 1.367 . S
C145 C144 1.367 . S
C145 C147 1.433 . S
C146 C142 1.350 . S
C146 C143 1.463 1_465 S
C146 N150 1.427 . S
C147 H137 0.929 . S
C147 C145 1.433 . S
C147 N150 1.384 . S
C148 H139 0.929 . S
C148 C140 1.378 . S
C148 C143 1.350 . S
C149 H136 0.929 . S
C149 C141 1.433 . S
C149 N151 1.384 . S
N150 C146 1.427 . S
N150 C147 1.384 . S
N151 C143 1.427 . S
N151 C149 1.384 . S
H152 C158 0.930 . S
H153 C162 0.930 . S
H154 C167 0.929 . S
H155 C165 0.929 . S
H156 C160 0.929 . S
H157 C166 0.929 . S
C158 H152 0.930 . S
C158 C159 1.367 . S
C158 C166 1.378 . S
C159 C158 1.367 . S
C159 C167 1.433 . S
C160 H156 0.929 . S
C160 C162 1.378 . S
C160 C164 1.350 . S
C161 C164 1.463 . S
C161 C166 1.350 . S
C161 N169 1.427 . S
C162 H153 0.930 . S
C162 C160 1.378 . S
C162 C163 1.367 . S
C163 C162 1.367 . S
C163 C165 1.433 . S
C164 C160 1.350 . S
C164 C161 1.463 . S
C164 N168 1.427 . S
C165 H155 0.929 . S
C165 C163 1.433 . S
C165 N168 1.384 . S
C166 H157 0.929 . S
C166 C158 1.378 . S
C166 C161 1.350 . S
C167 H154 0.929 . S
C167 C159 1.433 . S
C167 N169 1.384 . S
N168 C164 1.427 . S
N168 C165 1.384 . S
N169 C161 1.427 . S
N169 C167 1.384 . S
H170 C176 0.930 . S
H171 C180 0.930 . S
H172 C185 0.929 . S
H173 C183 0.929 . S
H174 C178 0.929 . S
H175 C184 0.929 . S
C176 H170 0.930 . S
C176 C177 1.367 . S
C176 C184 1.378 . S
C177 C176 1.367 . S
C177 C185 1.433 . S
C178 H174 0.929 . S
C178 C180 1.378 . S
C178 C182 1.350 . S
C179 C182 1.463 . S
C179 C184 1.350 . S
C179 N187 1.427 . S
C180 H171 0.930 . S
C180 C178 1.378 . S
C180 C181 1.367 . S
C181 C180 1.367 . S
C181 C183 1.433 . S
C182 C178 1.350 . S
C182 C179 1.463 . S
C182 N186 1.427 . S
C183 H173 0.929 . S
C183 C181 1.433 . S
C183 N186 1.384 . S
C184 H175 0.929 . S
C184 C176 1.378 . S
C184 C179 1.350 . S
C185 H172 0.929 . S
C185 C177 1.433 . S
C185 N187 1.384 . S
N186 C182 1.427 . S
N186 C183 1.384 . S
N187 C179 1.427 . S
N187 C185 1.384 . S
H188 C194 0.930 . S
H189 C198 0.930 . S
H190 C203 0.929 . S
H191 C201 0.929 . S
H192 C196 0.929 . S
H193 C202 0.929 . S
C194 H188 0.930 . S
C194 C195 1.367 . S
C194 C202 1.378 . S
C195 C194 1.367 . S
C195 C203 1.433 . S
C196 H192 0.929 . S
C196 C198 1.378 . S
C196 C200 1.350 . S
C197 C200 1.463 . S
C197 C202 1.350 . S
C197 N205 1.427 . S
C198 H189 0.930 . S
C198 C196 1.378 . S
C198 C199 1.367 . S
C199 C198 1.367 . S
C199 C201 1.433 . S
C200 C196 1.350 . S
C200 C197 1.463 . S
C200 N204 1.427 . S
C201 H191 0.929 . S
C201 C199 1.433 . S
C201 N204 1.384 . S
C202 H193 0.929 . S
C202 C194 1.378 . S
C202 C197 1.350 . S
C203 H190 0.929 . S
C203 C195 1.433 . S
C203 N205 1.384 . S
N204 C200 1.427 . S
N204 C201 1.384 . S
N205 C197 1.427 . S
N205 C203 1.384 . S
H206 C212 0.930 . S
H207 C216 0.930 . S
H208 C221 0.929 . S
H209 C219 0.929 . S
H210 C214 0.929 . S
H211 C220 0.929 . S
C212 H206 0.930 . S
C212 C213 1.367 . S
C212 C220 1.378 . S
C213 C212 1.367 . S
C213 C221 1.433 . S
C214 H210 0.929 . S
C214 C216 1.378 . S
C214 C218 1.350 . S
C215 C218 1.463 . S
C215 C220 1.350 . S
C215 N223 1.427 . S
C216 H207 0.930 . S
C216 C214 1.378 . S
C216 C217 1.367 . S
C217 C216 1.367 . S
C217 C219 1.433 . S
C218 C214 1.350 . S
C218 C215 1.463 . S
C218 N222 1.427 . S
C219 H209 0.929 . S
C219 C217 1.433 . S
C219 N222 1.384 . S
C220 H211 0.929 . S
C220 C212 1.378 . S
C220 C215 1.350 . S
C221 H208 0.929 . S
C221 C213 1.433 . S
C221 N223 1.384 . S
N222 C218 1.427 . S
N222 C219 1.384 . S
N223 C215 1.427 . S
N223 C221 1.384 . S
H224 C230 0.930 . S
H225 C234 0.930 . S
H226 C239 0.929 . S
H227 C237 0.929 . S
H228 C232 0.929 . S
H229 C238 0.929 . S
C230 H224 0.930 . S
C230 C231 1.367 . S
C230 C238 1.378 1_655 S
C231 C230 1.367 . S
C231 C239 1.433 . S
C232 H228 0.929 . S
C232 C234 1.378 1_655 S
C232 C236 1.350 1_655 S
C233 C236 1.463 1_655 S
C233 C238 1.350 1_655 S
C233 N241 1.427 . S
C234 H225 0.930 . S
C234 C232 1.378 1_455 S
C234 C235 1.367 . S
C235 C234 1.367 . S
C235 C237 1.433 . S
C236 C232 1.350 1_455 S
C236 C233 1.463 1_455 S
C236 N240 1.427 . S
C237 H227 0.929 . S
C237 C235 1.433 . S
C237 N240 1.384 . S
C238 H229 0.929 . S
C238 C230 1.378 1_455 S
C238 C233 1.350 1_455 S
C239 H226 0.929 . S
C239 C231 1.433 . S
C239 N241 1.384 . S
N240 C236 1.427 . S
N240 C237 1.384 . S
N241 C233 1.427 . S
N241 C239 1.384 . S
H242 C248 0.930 . S
H243 C252 0.930 . S
H244 C257 0.929 . S
H245 C255 0.929 . S
H246 C250 0.929 . S
H247 C256 0.929 . S
C248 H242 0.930 . S
C248 C249 1.367 . S
C248 C256 1.378 . S
C249 C248 1.367 . S
C249 C257 1.433 . S
C250 H246 0.929 . S
C250 C252 1.378 . S
C250 C254 1.350 . S
C251 C254 1.463 1_655 S
C251 C256 1.350 . S
C251 N259 1.427 . S
C252 H243 0.930 . S
C252 C250 1.378 . S
C252 C253 1.367 . S
C253 C252 1.367 . S
C253 C255 1.433 . S
C254 C250 1.350 . S
C254 C251 1.463 1_455 S
C254 N258 1.427 . S
C255 H245 0.929 . S
C255 C253 1.433 . S
C255 N258 1.384 . S
C256 H247 0.929 . S
C256 C248 1.378 . S
C256 C251 1.350 . S
C257 H244 0.929 . S
C257 C249 1.433 . S
C257 N259 1.384 . S
N258 C254 1.427 . S
N258 C255 1.384 . S
N259 C251 1.427 . S
N259 C257 1.384 . S
H260 C266 0.930 . S
H261 C270 0.930 . S
H262 C275 0.929 . S
H263 C273 0.929 . S
H264 C268 0.929 . S
H265 C274 0.929 . S
C266 H260 0.930 . S
C266 C267 1.367 . S
C266 C274 1.378 . S
C267 C266 1.367 . S
C267 C275 1.433 1_655 S
C268 H264 0.929 . S
C268 C270 1.378 . S
C268 C272 1.350 . S
C269 C272 1.463 1_655 S
C269 C274 1.350 . S
C269 N277 1.427 1_655 S
C270 H261 0.930 . S
C270 C268 1.378 . S
C270 C271 1.367 . S
C271 C270 1.367 . S
C271 C273 1.433 1_455 S
C272 C268 1.350 . S
C272 C269 1.463 1_455 S
C272 N276 1.427 1_455 S
C273 H263 0.929 . S
C273 C271 1.433 1_655 S
C273 N276 1.384 . S
C274 H265 0.929 . S
C274 C266 1.378 . S
C274 C269 1.350 . S
C275 H262 0.929 . S
C275 C267 1.433 1_455 S
C275 N277 1.384 . S
N276 C272 1.427 1_655 S
N276 C273 1.384 . S
N277 C269 1.427 1_455 S
N277 C275 1.384 . S
H278 C284 0.930 . S
H279 C288 0.930 . S
H280 C293 0.929 . S
H281 C291 0.929 . S
H282 C286 0.929 . S
H283 C292 0.929 . S
C284 H278 0.930 . S
C284 C285 1.367 . S
C284 C292 1.378 . S
C285 C284 1.367 . S
C285 C293 1.433 . S
C286 H282 0.929 . S
C286 C288 1.378 . S
C286 C290 1.350 . S
C287 C290 1.463 1_455 S
C287 C292 1.350 . S
C287 N295 1.427 . S
C288 H279 0.930 . S
C288 C286 1.378 . S
C288 C289 1.367 . S
C289 C288 1.367 . S
C289 C291 1.433 . S
C290 C286 1.350 . S
C290 C287 1.463 1_655 S
C290 N294 1.427 . S
C291 H281 0.929 . S
C291 C289 1.433 . S
C291 N294 1.384 . S
C292 H283 0.929 . S
C292 C284 1.378 . S
C292 C287 1.350 . S
C293 H280 0.929 . S
C293 C285 1.433 . S
C293 N295 1.384 . S
N294 C290 1.427 . S
N294 C291 1.384 . S
N295 C287 1.427 . S
N295 C293 1.384 . S
C87 C38 1.499 1_556 S
C91 C19 1.499 1_554 S
C105 C58 1.496 . S
C109 C79 1.496 . S
C123 C18 1.481 1_556 S
C127 C39 1.486 1_554 S
C141 C78 1.487 . S
C145 C59 1.487 . S
C159 C72 1.236 . S
C163 C12 1.247 . S
C177 C24 1.031 . S
C181 C44 1.018 . S
C195 C29 1.251 . S
C199 C49 1.238 . S
C213 C62 0.999 . S
C217 C2 1.012 . S
C231 C32 1.257 . S
C235 C52 1.245 . S
C249 C64 1.006 . S
C253 C4 1.025 . S
C267 C69 1.237 . S
C271 C9 1.239 . S
C285 C42 1.022 . S
C289 C22 1.003 . S
