# Generated by pormake.
# Topology wio, (6)-cn, num edge types: 1
# Building blocks:
#     Node 0, Type 0, BuildingBlock: LEVNOQ01_clean_sbu_1, # of connection points: 6
#     Node 1, Type 0, BuildingBlock: LEVNOQ01_clean_sbu_1, # of connection points: 6
#     Node 2, Type 0, BuildingBlock: LEVNOQ01_clean_sbu_1, # of connection points: 6
#     Node 3, Type 0, BuildingBlock: LEVNOQ01_clean_sbu_1, # of connection points: 6
#     Node 4, Type 0, BuildingBlock: LEVNOQ01_clean_sbu_1, # of connection points: 6
#     Node 5, Type 0, BuildingBlock: LEVNOQ01_clean_sbu_1, # of connection points: 6
#     Node 6, Type 0, BuildingBlock: LEVNOQ01_clean_sbu_1, # of connection points: 6
#     Node 7, Type 0, BuildingBlock: LEVNOQ01_clean_sbu_1, # of connection points: 6
#     Node 8, Type 0, BuildingBlock: LEVNOQ01_clean_sbu_1, # of connection points: 6
#     Node 9, Type 0, BuildingBlock: LEVNOQ01_clean_sbu_1, # of connection points: 6
#     Node 10, Type 0, BuildingBlock: LEVNOQ01_clean_sbu_1, # of connection points: 6
#     Node 11, Type 0, BuildingBlock: LEVNOQ01_clean_sbu_1, # of connection points: 6
#     Node 12, Type 0, BuildingBlock: LEVNOQ01_clean_sbu_1, # of connection points: 6
#     Node 13, Type 0, BuildingBlock: LEVNOQ01_clean_sbu_1, # of connection points: 6
#     Node 14, Type 0, BuildingBlock: LEVNOQ01_clean_sbu_1, # of connection points: 6
#     Node 15, Type 0, BuildingBlock: LEVNOQ01_clean_sbu_1, # of connection points: 6
#     Node 16, Type 0, BuildingBlock: LEVNOQ01_clean_sbu_1, # of connection points: 6
#     Node 17, Type 0, BuildingBlock: LEVNOQ01_clean_sbu_1, # of connection points: 6
#     Node 18, Type 0, BuildingBlock: LEVNOQ01_clean_sbu_1, # of connection points: 6
#     Node 19, Type 0, BuildingBlock: LEVNOQ01_clean_sbu_1, # of connection points: 6
#     Node 20, Type 0, BuildingBlock: LEVNOQ01_clean_sbu_1, # of connection points: 6
#     Node 21, Type 0, BuildingBlock: LEVNOQ01_clean_sbu_1, # of connection points: 6
#     Node 22, Type 0, BuildingBlock: LEVNOQ01_clean_sbu_1, # of connection points: 6
#     Node 23, Type 0, BuildingBlock: LEVNOQ01_clean_sbu_1, # of connection points: 6
#     Node 24, Type 0, BuildingBlock: LEVNOQ01_clean_sbu_1, # of connection points: 6
#     Node 25, Type 0, BuildingBlock: LEVNOQ01_clean_sbu_1, # of connection points: 6
#     Node 26, Type 0, BuildingBlock: LEVNOQ01_clean_sbu_1, # of connection points: 6
#     Node 27, Type 0, BuildingBlock: LEVNOQ01_clean_sbu_1, # of connection points: 6
#     Node 28, Type 0, BuildingBlock: LEVNOQ01_clean_sbu_1, # of connection points: 6
#     Node 29, Type 0, BuildingBlock: LEVNOQ01_clean_sbu_1, # of connection points: 6
#     Node 30, Type 0, BuildingBlock: LEVNOQ01_clean_sbu_1, # of connection points: 6
#     Node 31, Type 0, BuildingBlock: LEVNOQ01_clean_sbu_1, # of connection points: 6
#     Edge 32, Type (0, 0), None
#     Edge 33, Type (0, 0), None
#     Edge 34, Type (0, 0), None
#     Edge 35, Type (0, 0), None
#     Edge 36, Type (0, 0), None
#     Edge 37, Type (0, 0), None
#     Edge 38, Type (0, 0), None
#     Edge 39, Type (0, 0), None
#     Edge 40, Type (0, 0), None
#     Edge 41, Type (0, 0), None
#     Edge 42, Type (0, 0), None
#     Edge 43, Type (0, 0), None
#     Edge 44, Type (0, 0), None
#     Edge 45, Type (0, 0), None
#     Edge 46, Type (0, 0), None
#     Edge 47, Type (0, 0), None
#     Edge 48, Type (0, 0), None
#     Edge 49, Type (0, 0), None
#     Edge 50, Type (0, 0), None
#     Edge 51, Type (0, 0), None
#     Edge 52, Type (0, 0), None
#     Edge 53, Type (0, 0), None
#     Edge 54, Type (0, 0), None
#     Edge 55, Type (0, 0), None
#     Edge 56, Type (0, 0), None
#     Edge 57, Type (0, 0), None
#     Edge 58, Type (0, 0), None
#     Edge 59, Type (0, 0), None
#     Edge 60, Type (0, 0), None
#     Edge 61, Type (0, 0), None
#     Edge 62, Type (0, 0), None
#     Edge 63, Type (0, 0), None
#     Edge 64, Type (0, 0), None
#     Edge 65, Type (0, 0), None
#     Edge 66, Type (0, 0), None
#     Edge 67, Type (0, 0), None
#     Edge 68, Type (0, 0), None
#     Edge 69, Type (0, 0), None
#     Edge 70, Type (0, 0), None
#     Edge 71, Type (0, 0), None
#     Edge 72, Type (0, 0), None
#     Edge 73, Type (0, 0), None
#     Edge 74, Type (0, 0), None
#     Edge 75, Type (0, 0), None
#     Edge 76, Type (0, 0), None
#     Edge 77, Type (0, 0), None
#     Edge 78, Type (0, 0), None
#     Edge 79, Type (0, 0), None
#     Edge 80, Type (0, 0), None
#     Edge 81, Type (0, 0), None
#     Edge 82, Type (0, 0), None
#     Edge 83, Type (0, 0), None
#     Edge 84, Type (0, 0), None
#     Edge 85, Type (0, 0), None
#     Edge 86, Type (0, 0), None
#     Edge 87, Type (0, 0), None
#     Edge 88, Type (0, 0), None
#     Edge 89, Type (0, 0), None
#     Edge 90, Type (0, 0), None
#     Edge 91, Type (0, 0), None
#     Edge 92, Type (0, 0), None
#     Edge 93, Type (0, 0), None
#     Edge 94, Type (0, 0), None
#     Edge 95, Type (0, 0), None
#     Edge 96, Type (0, 0), None
#     Edge 97, Type (0, 0), None
#     Edge 98, Type (0, 0), None
#     Edge 99, Type (0, 0), None
#     Edge 100, Type (0, 0), None
#     Edge 101, Type (0, 0), None
#     Edge 102, Type (0, 0), None
#     Edge 103, Type (0, 0), None
#     Edge 104, Type (0, 0), None
#     Edge 105, Type (0, 0), None
#     Edge 106, Type (0, 0), None
#     Edge 107, Type (0, 0), None
#     Edge 108, Type (0, 0), None
#     Edge 109, Type (0, 0), None
#     Edge 110, Type (0, 0), None
#     Edge 111, Type (0, 0), None
#     Edge 112, Type (0, 0), None
#     Edge 113, Type (0, 0), None
#     Edge 114, Type (0, 0), None
#     Edge 115, Type (0, 0), None
#     Edge 116, Type (0, 0), None
#     Edge 117, Type (0, 0), None
#     Edge 118, Type (0, 0), None
#     Edge 119, Type (0, 0), None
#     Edge 120, Type (0, 0), None
#     Edge 121, Type (0, 0), None
#     Edge 122, Type (0, 0), None
#     Edge 123, Type (0, 0), None
#     Edge 124, Type (0, 0), None
#     Edge 125, Type (0, 0), None
#     Edge 126, Type (0, 0), None
#     Edge 127, Type (0, 0), None
# Relax obj value: 0.335
# Max RMSD: 0.237
# Mean RMSD: 0.237
data_MOF--net-wio--node1-LEVNOQ01_clean_sbu_1--edge1-none
_symmetry_space_group_name_H-M    P1
_symmetry_Int_Tables_number       1
_symmetry_cell_setting            triclinic
loop_
_symmetry_equiv_pos_as_xyz
'x, y, z'
_cell_length_a     27.289458
_cell_length_b     27.28881
_cell_length_c     19.52295
_cell_angle_alpha  89.99316
_cell_angle_beta   90.007771
_cell_angle_gamma 90.054437
loop_
_atom_site_label
_atom_site_type_symbol
_atom_site_fract_x
_atom_site_fract_y
_atom_site_fract_z
_atom_type_partial_charge
O0 O 0.12841 -0.03653 0.30035 0.0
Mg1 Mg 0.1451 0.01697 0.37261 0.0
O2 O 0.05138 -0.01715 0.28623 0.0
Mg3 Mg 0.07869 0.05504 0.32186 0.0
O4 O 0.08797 0.0224 0.44165 0.0
O5 O 0.15175 -0.02862 0.45249 0.0
O6 O 0.10255 0.13173 0.35456 0.0
O7 O 0.00242 0.06748 0.38261 0.0
Mg8 Mg 0.01921 0.08829 0.27154 0.0
O9 O 0.06653 0.07513 0.19706 0.0
O10 O 0.03062 0.15785 0.32025 0.0
O11 O -0.0364 0.03623 0.29734 0.0
O12 O -0.00837 0.10752 0.18152 0.0
C13 C 0.20359 0.04391 0.27519 0.0
C14 C 0.08736 -0.04411 0.2731 0.0
C15 C 0.10962 -0.01404 0.47347 0.0
C16 C 0.0719 0.1664 0.34747 0.0
C17 C -0.03674 0.04904 0.35883 0.0
C18 C 0.03186 0.09096 0.1566 0.0
O19 O 0.21557 0.04325 0.33807 0.0
O20 O 0.1576 0.04561 0.26127 0.0
O21 O 0.1657 0.87851 0.54979 0.0
Mg22 Mg 0.11244 0.89495 0.62241 0.0
O23 O 0.14629 0.80146 0.53597 0.0
Mg24 Mg 0.07419 0.82888 0.57177 0.0
O25 O 0.10682 0.83795 0.69163 0.0
O26 O 0.15845 0.90135 0.70186 0.0
O27 O -0.00244 0.8527 0.60455 0.0
O28 O 0.06167 0.75254 0.63253 0.0
Mg29 Mg 0.04089 0.76942 0.5215 0.0
O30 O 0.05407 0.81673 0.44696 0.0
O31 O -0.02865 0.78076 0.57022 0.0
O32 O 0.09283 0.71377 0.54723 0.0
O33 O 0.02158 0.7418 0.43152 0.0
C34 C 0.08549 -0.04605 0.5258 0.0
C35 C 0.1732 0.83747 0.52257 0.0
C36 C 0.14352 0.85942 0.72317 0.0
C37 C -0.03715 0.82203 0.59746 0.0
C38 C 0.08005 0.7134 0.60874 0.0
C39 C 0.03819 0.78202 0.40655 0.0
O40 O 0.08627 -0.03442 0.58879 0.0
O41 O 0.0837 0.90804 0.51131 0.0
O42 O 0.25059 0.91572 0.80054 0.0
Mg43 Mg 0.23415 0.86212 0.8727 0.0
O44 O 0.32759 0.89643 0.78606 0.0
Mg45 Mg 0.30037 0.82417 0.82171 0.0
O46 O 0.29134 0.85663 0.9416 0.0
O47 O 0.22765 0.90773 0.95256 0.0
O48 O 0.27654 0.74748 0.85441 0.0
O49 O 0.37668 0.81174 0.88244 0.0
Mg50 Mg 0.35982 0.79096 0.77141 0.0
O51 O 0.3125 0.8041 0.69689 0.0
O52 O 0.34848 0.72139 0.82015 0.0
O53 O 0.41547 0.84301 0.79717 0.0
O54 O 0.3874 0.7717 0.68143 0.0
C55 C 0.17538 0.83529 0.77561 0.0
C56 C 0.29156 0.92338 0.77316 0.0
C57 C 0.26976 0.89306 0.97349 0.0
C58 C 0.3072 0.71282 0.84735 0.0
C59 C 0.41583 0.83017 0.85867 0.0
C60 C 0.34718 0.78824 0.65647 0.0
O61 O 0.16359 0.83589 0.83855 0.0
O62 O 0.22132 0.83364 0.76133 0.0
O63 O 0.28623 0.16544 0.04725 0.0
Mg64 Mg 0.33814 0.10979 0.02153 0.0
O65 O 0.31727 0.12655 0.13259 0.0
Mg66 Mg 0.3049 0.05014 0.07192 0.0
O67 O 0.32476 0.06253 0.94699 0.0
O68 O 0.35758 0.13732 0.93156 0.0
O69 O 0.29572 -0.02916 0.01159 0.0
O70 O 0.23266 0.07748 0.03644 0.0
Mg71 Mg 0.26653 -0.01636 0.12245 0.0
O72 O 0.27266 0.04038 0.19188 0.0
O73 O 0.29294 0.91316 0.08893 0.0
O74 O 0.21367 0.00025 0.04928 0.0
O75 O 0.21972 -0.02207 0.20099 0.0
C76 C 0.41628 0.05717 0.09736 0.0
C77 C 0.29895 0.16574 0.1088 0.0
C78 C 0.34085 0.09715 0.90658 0.0
C79 C 0.29391 0.9249 0.02597 0.0
C80 C 0.20603 0.04139 0.02244 0.0
C81 C 0.23514 0.01964 0.22253 0.0
O82 O 0.40771 0.09846 0.07023 0.0
O83 O 0.38162 0.02646 0.10442 0.0
O84 O 0.1284 0.91581 0.18945 0.0
Mg85 Mg 0.14483 0.86248 0.11691 0.0
O86 O 0.05136 0.89638 0.20336 0.0
Mg87 Mg 0.07878 0.82428 0.16759 0.0
O88 O 0.08782 0.85691 0.04771 0.0
O89 O 0.1513 0.90843 0.0374 0.0
O90 O 0.10263 0.74765 0.13484 0.0
O91 O 0.00245 0.81172 0.10684 0.0
Mg92 Mg 0.01937 0.79099 0.21786 0.0
O93 O 0.06666 0.80417 0.29242 0.0
O94 O 0.0307 0.72144 0.16918 0.0
O95 O -0.0363 0.84293 0.19213 0.0
O96 O -0.00828 0.77169 0.30782 0.0
C97 C 0.20386 0.83558 0.21357 0.0
C98 C 0.08736 0.92332 0.21667 0.0
C99 C 0.10933 0.89356 0.01613 0.0
C100 C 0.07197 0.71294 0.14195 0.0
C101 C -0.03668 0.83012 0.13064 0.0
C102 C 0.03193 0.7883 0.33281 0.0
O103 O 0.21545 0.8363 0.15056 0.0
O104 O 0.15795 0.83383 0.22804 0.0
O105 O 0.21338 0.87848 0.4389 0.0
Mg106 Mg 0.26693 0.89516 0.36671 0.0
O107 O 0.23275 0.80145 0.4531 0.0
Mg108 Mg 0.30495 0.82875 0.41749 0.0
O109 O 0.27231 0.83801 0.2977 0.0
O110 O 0.22137 0.90185 0.2868 0.0
O111 O 0.38164 0.85261 0.38482 0.0
O112 O 0.3174 0.75247 0.35675 0.0
Mg113 Mg 0.33817 0.76929 0.46781 0.0
O114 O 0.32503 0.81659 0.54231 0.0
O115 O 0.40774 0.78068 0.41913 0.0
O116 O 0.28611 0.71367 0.44201 0.0
O117 O 0.3574 0.74167 0.55782 0.0
C118 C 0.29385 -0.04635 0.46414 0.0
C119 C 0.20578 0.83743 0.46614 0.0
C120 C 0.23591 0.8597 0.26586 0.0
C121 C 0.4163 0.82196 0.39192 0.0
C122 C 0.29895 0.71332 0.38053 0.0
C123 C 0.34086 0.7819 0.58275 0.0
O124 O 0.29323 -0.03438 0.40126 0.0
O125 O 0.2955 0.90767 0.47809 0.0
O126 O 0.41538 0.03628 0.69212 0.0
Mg127 Mg 0.35972 0.08818 0.71785 0.0
O128 O 0.37651 0.06735 0.60679 0.0
Mg129 Mg 0.3001 0.05495 0.66745 0.0
O130 O 0.31247 0.0748 0.7924 0.0
O131 O 0.38726 0.10762 0.80781 0.0
O132 O 0.2208 0.04572 0.72777 0.0
O133 O 0.32744 -0.01729 0.70291 0.0
Mg134 Mg 0.23362 0.01663 0.61687 0.0
O135 O 0.29038 0.02271 0.54747 0.0
O136 O 0.16316 0.04305 0.65042 0.0
O137 O 0.25022 -0.0363 0.68996 0.0
O138 O 0.22785 -0.03012 0.53827 0.0
C139 C 0.30709 0.16633 0.64206 0.0
C140 C 0.41569 0.04903 0.63059 0.0
C141 C 0.3471 0.09089 0.8328 0.0
C142 C 0.17486 0.04396 0.7134 0.0
C143 C 0.29136 -0.04395 0.71681 0.0
C144 C 0.26959 -0.01476 0.51677 0.0
O145 O 0.34839 0.15777 0.66918 0.0
O146 O 0.27639 0.13166 0.63498 0.0
O147 O 0.16567 0.00065 0.93871 0.0
Mg148 Mg 0.11203 -0.01577 0.86662 0.0
O149 O 0.14639 0.07766 0.95328 0.0
Mg150 Mg 0.07413 0.05045 0.91764 0.0
O151 O 0.10658 0.04143 0.79775 0.0
O152 O 0.1576 -0.02232 0.78673 0.0
O153 O -0.00257 0.02662 0.88497 0.0
O154 O 0.06168 0.12676 0.85692 0.0
Mg155 Mg 0.04094 0.10989 0.96795 0.0
O156 O 0.05406 0.06258 0.04248 0.0
O157 O -0.02864 0.09856 0.91924 0.0
O158 O 0.093 0.16554 0.94218 0.0
O159 O 0.02168 0.1375 0.05791 0.0
C160 C 0.08522 0.92546 0.96372 0.0
C161 C 0.17336 0.04162 0.9661 0.0
C162 C 0.14298 0.01982 0.76584 0.0
C163 C -0.03722 0.05728 0.89204 0.0
C164 C 0.08013 0.16591 0.8807 0.0
C165 C 0.03821 0.09728 0.08288 0.0
O166 O 0.08578 0.91368 0.90078 0.0
O167 O 0.08361 -0.02861 0.97801 0.0
O168 O 0.75071 0.91571 0.68909 0.0
Mg169 Mg 0.73416 0.86222 0.6168 0.0
O170 O 0.82772 0.89636 0.70325 0.0
Mg171 Mg 0.80035 0.82417 0.66758 0.0
O172 O 0.79123 0.85679 0.54772 0.0
O173 O 0.72755 0.90794 0.53709 0.0
O174 O 0.77648 0.74747 0.63488 0.0
O175 O 0.87666 0.8117 0.60689 0.0
Mg176 Mg 0.85981 0.79087 0.71795 0.0
O177 O 0.81247 0.8041 0.79242 0.0
O178 O 0.84836 0.72129 0.66928 0.0
O179 O 0.91551 0.84286 0.69221 0.0
O180 O 0.88733 0.77163 0.808 0.0
C181 C 0.67538 0.83534 0.71384 0.0
C182 C 0.79174 0.92331 0.71636 0.0
C183 C 0.76961 0.89329 0.51598 0.0
C184 C 0.80708 0.71277 0.64202 0.0
C185 C 0.91584 0.83007 0.63071 0.0
C186 C 0.84713 0.78824 0.8329 0.0
O187 O 0.6636 0.83599 0.6509 0.0
O188 O 0.72133 0.83366 0.72807 0.0
O189 O 0.71341 0.00067 0.43965 0.0
Mg190 Mg 0.76665 -0.01577 0.36701 0.0
O191 O 0.73279 0.07774 0.45335 0.0
Mg192 Mg 0.8049 0.05033 0.41761 0.0
O193 O 0.77228 0.0412 0.29775 0.0
O194 O 0.7206 -0.02217 0.28762 0.0
O195 O 0.88152 0.02648 0.38489 0.0
O196 O 0.81746 0.12664 0.35683 0.0
Mg197 Mg 0.83821 0.10978 0.46789 0.0
O198 O 0.82499 0.06248 0.54244 0.0
O199 O 0.90776 0.0984 0.41924 0.0
O200 O 0.7863 0.16546 0.4421 0.0
O201 O 0.85749 0.13741 0.55787 0.0
C202 C 0.7937 0.92528 0.46362 0.0
C203 C 0.70589 0.04174 0.4668 0.0
C204 C 0.73554 0.01975 0.26627 0.0
C205 C 0.91624 0.05713 0.39202 0.0
C206 C 0.7991 0.1658 0.3806 0.0
C207 C 0.84087 0.0972 0.58284 0.0
O208 O 0.79291 0.91362 0.40064 0.0
O209 O 0.79545 -0.02881 0.47807 0.0
O210 O 0.6284 -0.03651 0.18902 0.0
Mg211 Mg 0.64494 0.01701 0.11675 0.0
O212 O 0.55139 -0.01717 0.20317 0.0
Mg213 Mg 0.57875 0.05503 0.16753 0.0
O214 O 0.58785 0.02244 0.04767 0.0
O215 O 0.65153 -0.0287 0.03702 0.0
O216 O 0.60263 0.13171 0.13485 0.0
O217 O 0.50246 0.06755 0.10677 0.0
Mg218 Mg 0.51935 0.0882 0.21784 0.0
O219 O 0.56663 0.07508 0.2924 0.0
O220 O 0.5307 0.15779 0.16918 0.0
O221 O 0.46367 0.0362 0.19202 0.0
O222 O 0.4917 0.10741 0.30782 0.0
C223 C 0.7037 0.04387 0.2138 0.0
C224 C 0.58737 -0.04412 0.21628 0.0
C225 C 0.60947 -0.01404 0.01593 0.0
C226 C 0.57197 0.16637 0.14196 0.0
C227 C 0.46331 0.04912 0.13056 0.0
C228 C 0.53192 0.09089 0.33281 0.0
O229 O 0.71551 0.04324 0.15087 0.0
O230 O 0.65777 0.04554 0.22805 0.0
O231 O 0.66566 0.87858 0.9397 0.0
Mg232 Mg 0.61245 0.89503 0.86699 0.0
O233 O 0.64628 0.80151 0.9534 0.0
Mg234 Mg 0.57417 0.82891 0.9176 0.0
O235 O 0.6068 0.83805 0.79776 0.0
O236 O 0.65852 0.9014 0.78763 0.0
O237 O 0.49756 0.85275 0.88479 0.0
O238 O 0.56165 0.75258 0.85686 0.0
Mg239 Mg 0.54086 0.76946 0.96789 0.0
O240 O 0.55407 0.81675 0.04243 0.0
O241 O 0.47133 0.78083 0.91914 0.0
O242 O 0.59279 0.71378 0.94219 0.0
O243 O 0.52155 0.74183 0.05786 0.0
C244 C 0.58536 -0.04602 0.96356 0.0
C245 C 0.67316 0.83752 0.96687 0.0
C246 C 0.64356 0.85948 0.7663 0.0
C247 C 0.46285 0.8221 0.89188 0.0
C248 C 0.58001 0.71343 0.88067 0.0
C249 C 0.53819 0.78203 0.08284 0.0
O250 O 0.58618 -0.03437 0.90057 0.0
O251 O 0.5836 0.90806 0.97802 0.0
O252 O 0.75064 -0.03655 0.79991 0.0
Mg253 Mg 0.73421 0.01675 0.87247 0.0
O254 O 0.8277 -0.01716 0.78611 0.0
Mg255 Mg 0.80028 0.05495 0.82183 0.0
O256 O 0.79119 0.02234 0.94171 0.0
O257 O 0.72774 -0.02924 0.95193 0.0
O258 O 0.77641 0.13157 0.85453 0.0
O259 O 0.8766 0.06754 0.88259 0.0
Mg260 Mg 0.8597 0.08823 0.77154 0.0
O261 O 0.81242 0.07503 0.69698 0.0
O262 O 0.84833 0.1578 0.82017 0.0
O263 O 0.9154 0.03634 0.79731 0.0
O264 O 0.88735 0.10753 0.68158 0.0
C265 C 0.67523 0.04376 0.77582 0.0
C266 C 0.7917 -0.04409 0.77276 0.0
C267 C 0.76969 -0.01435 0.97323 0.0
C268 C 0.80705 0.16629 0.84738 0.0
C269 C 0.91575 0.0492 0.85879 0.0
C270 C 0.84714 0.09092 0.65659 0.0
O271 O 0.66362 0.04303 0.83882 0.0
O272 O 0.72115 0.04546 0.76137 0.0
O273 O 0.66567 0.00077 0.55046 0.0
Mg274 Mg 0.61212 -0.01576 0.62268 0.0
O275 O 0.64632 0.07779 0.53622 0.0
Mg276 Mg 0.57413 0.05044 0.57186 0.0
O277 O 0.60674 0.04133 0.69174 0.0
O278 O 0.65781 -0.02242 0.70243 0.0
O279 O 0.49743 0.02655 0.60454 0.0
O280 O 0.56164 0.12675 0.63255 0.0
Mg281 Mg 0.54084 0.10988 0.52149 0.0
O282 O 0.55406 0.06256 0.44701 0.0
O283 O 0.47125 0.09844 0.57014 0.0
O284 O 0.59284 0.16557 0.54725 0.0
O285 O 0.52162 0.13744 0.43146 0.0
C286 C 0.58528 0.92546 0.52562 0.0
C287 C 0.67329 0.0418 0.5232 0.0
C288 C 0.64321 0.01967 0.72349 0.0
C289 C 0.46273 0.05716 0.59738 0.0
C290 C 0.58004 0.16592 0.60876 0.0
C291 C 0.53821 0.09723 0.40655 0.0
O292 O 0.58587 0.91369 0.58857 0.0
O293 O 0.58363 -0.0286 0.51138 0.0
O294 O 0.62848 0.91576 0.29986 0.0
Mg295 Mg 0.64491 0.86249 0.37249 0.0
O296 O 0.55141 0.89637 0.28606 0.0
Mg297 Mg 0.57882 0.82426 0.32184 0.0
O298 O 0.58792 0.85689 0.44169 0.0
O299 O 0.65135 0.9085 0.45191 0.0
O300 O 0.60268 0.74765 0.35463 0.0
O301 O 0.50248 0.81171 0.38256 0.0
Mg302 Mg 0.5194 0.79097 0.27155 0.0
O303 O 0.56667 0.80417 0.19699 0.0
O304 O 0.53077 0.72142 0.32027 0.0
O305 O 0.4637 0.84288 0.29722 0.0
O306 O 0.49175 0.77165 0.18159 0.0
C307 C 0.70389 0.83545 0.27588 0.0
C308 C 0.58742 0.92328 0.27268 0.0
C309 C 0.60939 0.8936 0.47319 0.0
C310 C 0.57204 0.71294 0.34752 0.0
C311 C 0.46334 0.83005 0.35872 0.0
C312 C 0.53195 0.78828 0.15659 0.0
O313 O 0.7155 0.83621 0.33888 0.0
O314 O 0.65797 0.83373 0.26142 0.0
O315 O 0.7134 0.87848 0.05052 0.0
Mg316 Mg 0.76697 0.895 0.12273 0.0
O317 O 0.73273 0.80146 0.03631 0.0
Mg318 Mg 0.80493 0.82881 0.07191 0.0
O319 O 0.77236 0.8379 0.19179 0.0
O320 O 0.72129 0.90164 0.20249 0.0
O321 O 0.88162 0.8527 0.10456 0.0
O322 O 0.81747 0.75251 0.13267 0.0
Mg323 Mg 0.83808 0.76942 0.0216 0.0
O324 O 0.82498 0.81669 0.94703 0.0
O325 O 0.90769 0.78077 0.07023 0.0
O326 O 0.78608 0.71376 0.04745 0.0
O327 O 0.85728 0.74174 0.93164 0.0
C328 C 0.7938 -0.04623 0.02567 0.0
C329 C 0.70577 0.83745 0.02327 0.0
C330 C 0.7359 0.85955 0.22354 0.0
C331 C 0.91627 0.82204 0.09744 0.0
C332 C 0.79901 0.71337 0.10891 0.0
C333 C 0.84078 0.78196 0.90664 0.0
O334 O 0.79321 -0.03444 0.08861 0.0
O335 O 0.79543 0.90783 0.0114 0.0
O336 O 0.6284 0.46347 0.80035 0.0
Mg337 Mg 0.64509 0.51697 0.87261 0.0
O338 O 0.55138 0.48285 0.78623 0.0
Mg339 Mg 0.57869 0.55504 0.82186 0.0
O340 O 0.58797 0.5224 0.94165 0.0
O341 O 0.65174 0.47137 0.95249 0.0
O342 O 0.60255 0.63173 0.85456 0.0
O343 O 0.50242 0.56748 0.88261 0.0
Mg344 Mg 0.51921 0.58829 0.77154 0.0
O345 O 0.56653 0.57513 0.69706 0.0
O346 O 0.53062 0.65785 0.82024 0.0
O347 O 0.4636 0.53623 0.79734 0.0
O348 O 0.49163 0.60752 0.68151 0.0
C349 C 0.70359 0.54391 0.77519 0.0
C350 C 0.58735 0.45589 0.7731 0.0
C351 C 0.60962 0.48596 0.97347 0.0
C352 C 0.57191 0.66639 0.84746 0.0
C353 C 0.46326 0.54905 0.85883 0.0
C354 C 0.53186 0.59096 0.6566 0.0
O355 O 0.71557 0.54325 0.83807 0.0
O356 O 0.6576 0.5456 0.76126 0.0
O357 O 0.6657 0.37851 0.04979 0.0
Mg358 Mg 0.61244 0.39495 0.12241 0.0
O359 O 0.64629 0.30146 0.03598 0.0
Mg360 Mg 0.57419 0.32888 0.07177 0.0
O361 O 0.60682 0.33795 0.19163 0.0
O362 O 0.65845 0.40136 0.20186 0.0
O363 O 0.49756 0.35269 0.10455 0.0
O364 O 0.56166 0.25254 0.13252 0.0
Mg365 Mg 0.54089 0.26942 0.0215 0.0
O366 O 0.55407 0.31673 0.94696 0.0
O367 O 0.47135 0.28076 0.07022 0.0
O368 O 0.59284 0.21376 0.04721 0.0
O369 O 0.52158 0.2418 0.93152 0.0
C370 C 0.58549 0.45395 0.02579 0.0
C371 C 0.6732 0.33747 0.02257 0.0
C372 C 0.64352 0.35942 0.22317 0.0
C373 C 0.46285 0.32202 0.09746 0.0
C374 C 0.58003 0.2134 0.10871 0.0
C375 C 0.53819 0.28202 0.90655 0.0
O376 O 0.58627 0.46558 0.08879 0.0
O377 O 0.5837 0.40804 0.01131 0.0
O378 O 0.75059 0.41572 0.30054 0.0
Mg379 Mg 0.73415 0.36212 0.37269 0.0
O380 O 0.8276 0.39643 0.28606 0.0
Mg381 Mg 0.80037 0.32417 0.32171 0.0
O382 O 0.79134 0.35663 0.4416 0.0
O383 O 0.72766 0.40774 0.45255 0.0
O384 O 0.77654 0.24748 0.3544 0.0
O385 O 0.87668 0.31174 0.38244 0.0
Mg386 Mg 0.85982 0.29096 0.27141 0.0
O387 O 0.8125 0.3041 0.19689 0.0
O388 O 0.84847 0.22138 0.32014 0.0
O389 O 0.91547 0.34301 0.29717 0.0
O390 O 0.8874 0.27169 0.18143 0.0
C391 C 0.67538 0.33529 0.27561 0.0
C392 C 0.79157 0.42338 0.27315 0.0
C393 C 0.76976 0.39306 0.47348 0.0
C394 C 0.80719 0.21282 0.34735 0.0
C395 C 0.91583 0.33017 0.35866 0.0
C396 C 0.84718 0.28824 0.15647 0.0
O397 O 0.66359 0.33589 0.33855 0.0
O398 O 0.72132 0.33365 0.26133 0.0
O399 O 0.78623 0.66545 0.54724 0.0
Mg400 Mg 0.83814 0.60979 0.52153 0.0
O401 O 0.81727 0.62656 0.63259 0.0
Mg402 Mg 0.8049 0.55015 0.57192 0.0
O403 O 0.82476 0.56253 0.44699 0.0
O404 O 0.85758 0.63731 0.43156 0.0
O405 O 0.79572 0.47085 0.51159 0.0
O406 O 0.73266 0.57748 0.53644 0.0
Mg407 Mg 0.76653 0.48364 0.62245 0.0
O408 O 0.77266 0.54038 0.69188 0.0
O409 O 0.79294 0.41316 0.58893 0.0
O410 O 0.71367 0.50025 0.54929 0.0
O411 O 0.71972 0.47793 0.70099 0.0
C412 C 0.91627 0.55717 0.59736 0.0
C413 C 0.79897 0.66574 0.60877 0.0
C414 C 0.84085 0.59715 0.40658 0.0
C415 C 0.79391 0.4249 0.52597 0.0
C416 C 0.70603 0.54139 0.52244 0.0
C417 C 0.73514 0.51964 0.72254 0.0
O418 O 0.90771 0.59847 0.57023 0.0
O419 O 0.88162 0.52646 0.60441 0.0
O420 O 0.6284 0.41581 0.68945 0.0
Mg421 Mg 0.64482 0.36248 0.61691 0.0
O422 O 0.55136 0.39638 0.70336 0.0
Mg423 Mg 0.57878 0.32428 0.66759 0.0
O424 O 0.58782 0.35691 0.54771 0.0
O425 O 0.6513 0.40842 0.53739 0.0
O426 O 0.60263 0.24766 0.63484 0.0
O427 O 0.50245 0.31172 0.60684 0.0
Mg428 Mg 0.51936 0.29099 0.71787 0.0
O429 O 0.56665 0.30417 0.79242 0.0
O430 O 0.5307 0.22143 0.66918 0.0
O431 O 0.4637 0.34293 0.69213 0.0
O432 O 0.49172 0.27169 0.80782 0.0
C433 C 0.70386 0.33558 0.71357 0.0
C434 C 0.58736 0.42332 0.71667 0.0
C435 C 0.60933 0.39356 0.51613 0.0
C436 C 0.57198 0.21294 0.64195 0.0
C437 C 0.46331 0.33011 0.63064 0.0
C438 C 0.53193 0.2883 0.83281 0.0
O439 O 0.71545 0.3363 0.65056 0.0
O440 O 0.65795 0.33383 0.72804 0.0
O441 O 0.71338 0.37848 0.93891 0.0
Mg442 Mg 0.76693 0.39516 0.86671 0.0
O443 O 0.73275 0.30145 0.9531 0.0
Mg444 Mg 0.80494 0.32875 0.91749 0.0
O445 O 0.77231 0.33801 0.7977 0.0
O446 O 0.72137 0.40185 0.7868 0.0
O447 O 0.88164 0.35261 0.88482 0.0
O448 O 0.81739 0.25247 0.85675 0.0
Mg449 Mg 0.83816 0.26929 0.96781 0.0
O450 O 0.82503 0.31659 0.04231 0.0
O451 O 0.90773 0.28067 0.91913 0.0
O452 O 0.7861 0.21366 0.94203 0.0
O453 O 0.8574 0.24168 0.05782 0.0
C454 C 0.79385 0.45365 0.96414 0.0
C455 C 0.70578 0.33743 0.96615 0.0
C456 C 0.7359 0.3597 0.76586 0.0
C457 C 0.9163 0.32196 0.89192 0.0
C458 C 0.79897 0.21332 0.88055 0.0
C459 C 0.84086 0.2819 0.08275 0.0
O460 O 0.79323 0.46562 0.90126 0.0
O461 O 0.7955 0.40767 0.97809 0.0
O462 O 0.91538 0.53629 0.19212 0.0
Mg463 Mg 0.85972 0.58819 0.21785 0.0
O464 O 0.87652 0.56736 0.10679 0.0
Mg465 Mg 0.80011 0.55495 0.16745 0.0
O466 O 0.81247 0.5748 0.2924 0.0
O467 O 0.88726 0.60762 0.30781 0.0
O468 O 0.72081 0.54572 0.22777 0.0
O469 O 0.82745 0.48271 0.2029 0.0
Mg470 Mg 0.73363 0.51663 0.11687 0.0
O471 O 0.79038 0.52271 0.04747 0.0
O472 O 0.66316 0.54305 0.15042 0.0
O473 O 0.75023 0.4637 0.18995 0.0
O474 O 0.72785 0.46988 0.03827 0.0
C475 C 0.80709 0.66633 0.14206 0.0
C476 C 0.9157 0.54903 0.13059 0.0
C477 C 0.84711 0.59089 0.3328 0.0
C478 C 0.67486 0.54396 0.2134 0.0
C479 C 0.79137 0.45605 0.2168 0.0
C480 C 0.76959 0.48524 0.01676 0.0
O481 O 0.84839 0.65777 0.16918 0.0
O482 O 0.77639 0.63166 0.13498 0.0
O483 O 0.66567 0.50065 0.43872 0.0
Mg484 Mg 0.61203 0.48423 0.36662 0.0
O485 O 0.64639 0.57766 0.45328 0.0
Mg486 Mg 0.57413 0.55045 0.41764 0.0
O487 O 0.60658 0.54143 0.29775 0.0
O488 O 0.65761 0.47768 0.28674 0.0
O489 O 0.49744 0.52662 0.38497 0.0
O490 O 0.56169 0.62676 0.35692 0.0
Mg491 Mg 0.54095 0.60989 0.46795 0.0
O492 O 0.55407 0.56258 0.54248 0.0
O493 O 0.47137 0.59856 0.41923 0.0
O494 O 0.593 0.66555 0.4422 0.0
O495 O 0.52168 0.6375 0.55791 0.0
C496 C 0.58522 0.42545 0.46372 0.0
C497 C 0.67336 0.54162 0.4661 0.0
C498 C 0.64299 0.51982 0.26585 0.0
C499 C 0.46279 0.55728 0.39204 0.0
C500 C 0.58011 0.66591 0.38072 0.0
C501 C 0.53821 0.59727 0.58288 0.0
O502 O 0.58578 0.41368 0.40077 0.0
O503 O 0.58361 0.47139 0.47801 0.0
O504 O 0.25071 0.41572 0.18909 0.0
Mg505 Mg 0.23416 0.36222 0.1168 0.0
O506 O 0.32773 0.39636 0.20325 0.0
Mg507 Mg 0.30036 0.32417 0.16758 0.0
O508 O 0.29123 0.35679 0.04772 0.0
O509 O 0.22755 0.40794 0.03709 0.0
O510 O 0.27647 0.24747 0.13488 0.0
O511 O 0.37666 0.31169 0.10689 0.0
Mg512 Mg 0.35981 0.29086 0.21795 0.0
O513 O 0.31247 0.3041 0.29241 0.0
O514 O 0.34835 0.22129 0.16928 0.0
O515 O 0.41552 0.34285 0.19221 0.0
O516 O 0.38733 0.27163 0.30801 0.0
C517 C 0.17538 0.33535 0.21384 0.0
C518 C 0.29174 0.42331 0.21636 0.0
C519 C 0.26961 0.39329 0.01598 0.0
C520 C 0.30707 0.21277 0.14203 0.0
C521 C 0.41584 0.33006 0.13071 0.0
C522 C 0.34713 0.28824 0.3329 0.0
O523 O 0.1636 0.33599 0.1509 0.0
O524 O 0.22133 0.33366 0.22807 0.0
O525 O 0.21341 0.50068 0.93965 0.0
Mg526 Mg 0.26665 0.48423 0.86701 0.0
O527 O 0.23279 0.57774 0.95335 0.0
Mg528 Mg 0.3049 0.55033 0.91761 0.0
O529 O 0.27228 0.5412 0.79775 0.0
O530 O 0.2206 0.47782 0.78762 0.0
O531 O 0.38152 0.52648 0.88489 0.0
O532 O 0.31746 0.62664 0.85683 0.0
Mg533 Mg 0.3382 0.60978 0.96789 0.0
O534 O 0.32499 0.56248 0.04244 0.0
O535 O 0.40775 0.59841 0.91924 0.0
O536 O 0.2863 0.66547 0.94212 0.0
O537 O 0.3575 0.63741 0.05787 0.0
C538 C 0.2937 0.42528 0.96362 0.0
C539 C 0.20589 0.54174 0.9668 0.0
C540 C 0.23554 0.51975 0.76627 0.0
C541 C 0.41624 0.55713 0.89202 0.0
C542 C 0.29912 0.6658 0.88062 0.0
C543 C 0.34087 0.59719 0.08284 0.0
O544 O 0.29291 0.41362 0.90064 0.0
O545 O 0.29545 0.47119 0.97807 0.0
O546 O 0.1284 0.46349 0.68902 0.0
Mg547 Mg 0.14494 0.51701 0.61675 0.0
O548 O 0.05138 0.48283 0.70316 0.0
Mg549 Mg 0.07875 0.55503 0.66753 0.0
O550 O 0.08785 0.52244 0.54767 0.0
O551 O 0.15153 0.4713 0.53702 0.0
O552 O 0.10263 0.63171 0.63486 0.0
O553 O 0.00245 0.56756 0.60677 0.0
Mg554 Mg 0.01935 0.5882 0.71784 0.0
O555 O 0.06663 0.57508 0.7924 0.0
O556 O 0.03071 0.6578 0.66918 0.0
O557 O -0.03633 0.53621 0.69202 0.0
O558 O -0.0083 0.60742 0.80782 0.0
C559 C 0.2037 0.54386 0.7138 0.0
C560 C 0.08737 0.45588 0.71628 0.0
C561 C 0.10947 0.48596 0.51593 0.0
C562 C 0.07198 0.66636 0.64196 0.0
C563 C -0.03669 0.54913 0.63056 0.0
C564 C 0.03192 0.59089 0.83281 0.0
O565 O 0.21551 0.54324 0.65087 0.0
O566 O 0.15777 0.54553 0.72805 0.0
O567 O 0.16566 0.37858 0.4397 0.0
Mg568 Mg 0.11245 0.39503 0.36699 0.0
O569 O 0.14628 0.30151 0.4534 0.0
Mg570 Mg 0.07417 0.32891 0.4176 0.0
O571 O 0.1068 0.33805 0.29776 0.0
O572 O 0.15852 0.4014 0.28763 0.0
O573 O -0.00244 0.35275 0.38479 0.0
O574 O 0.06165 0.25258 0.35686 0.0
Mg575 Mg 0.04087 0.26946 0.46789 0.0
O576 O 0.05408 0.31675 0.54243 0.0
O577 O -0.02867 0.28083 0.41914 0.0
O578 O 0.09279 0.21377 0.4422 0.0
O579 O 0.02155 0.24183 0.55785 0.0
C580 C 0.08536 0.45398 0.46356 0.0
C581 C 0.17316 0.33752 0.46687 0.0
C582 C 0.14356 0.35948 0.2663 0.0
C583 C -0.03715 0.3221 0.39188 0.0
C584 C 0.07999 0.21343 0.3807 0.0
C585 C 0.03819 0.28203 0.58284 0.0
O586 O 0.08618 0.46563 0.40057 0.0
O587 O 0.0836 0.40806 0.47802 0.0
O588 O 0.25065 0.46344 0.29991 0.0
Mg589 Mg 0.23421 0.51675 0.37247 0.0
O590 O 0.32771 0.48284 0.28611 0.0
Mg591 Mg 0.30029 0.55495 0.32183 0.0
O592 O 0.2912 0.52234 0.44171 0.0
O593 O 0.22774 0.47076 0.45193 0.0
O594 O 0.27641 0.63156 0.35452 0.0
O595 O 0.37661 0.56755 0.38259 0.0
Mg596 Mg 0.3597 0.58824 0.27154 0.0
O597 O 0.31243 0.57503 0.19698 0.0
O598 O 0.34833 0.6578 0.32017 0.0
O599 O 0.41541 0.53635 0.29731 0.0
O600 O 0.38735 0.60753 0.18158 0.0
C601 C 0.17524 0.54375 0.27581 0.0
C602 C 0.29171 0.45591 0.27276 0.0
C603 C 0.2697 0.48565 0.47323 0.0
C604 C 0.30705 0.66628 0.34738 0.0
C605 C 0.41576 0.5492 0.35879 0.0
C606 C 0.34714 0.59091 0.15659 0.0
O607 O 0.16362 0.54303 0.33881 0.0
O608 O 0.22115 0.54546 0.26137 0.0
O609 O 0.16567 0.50077 0.05046 0.0
Mg610 Mg 0.11212 0.48424 0.12268 0.0
O611 O 0.14633 0.57779 0.03622 0.0
Mg612 Mg 0.07413 0.55044 0.07186 0.0
O613 O 0.10674 0.54133 0.19174 0.0
O614 O 0.15781 0.47758 0.20243 0.0
O615 O -0.00257 0.52655 0.10454 0.0
O616 O 0.06164 0.62675 0.13255 0.0
Mg617 Mg 0.04085 0.60988 0.02149 0.0
O618 O 0.05407 0.56256 0.94701 0.0
O619 O -0.02874 0.59844 0.07014 0.0
O620 O 0.09284 0.66558 0.04724 0.0
O621 O 0.02162 0.63744 0.93146 0.0
C622 C 0.08528 0.42546 0.02562 0.0
C623 C 0.17329 0.5418 0.02319 0.0
C624 C 0.14321 0.51967 0.22349 0.0
C625 C -0.03726 0.55716 0.09738 0.0
C626 C 0.08003 0.66592 0.10873 0.0
C627 C 0.03822 0.59723 0.90655 0.0
O628 O 0.08587 0.41369 0.08857 0.0
O629 O 0.08363 0.4714 0.01138 0.0
O630 O 0.12847 0.41576 0.79986 0.0
Mg631 Mg 0.14491 0.36249 0.87249 0.0
O632 O 0.05141 0.39637 0.78606 0.0
Mg633 Mg 0.07882 0.32426 0.82184 0.0
O634 O 0.08792 0.35689 0.94169 0.0
O635 O 0.15135 0.4085 0.95191 0.0
O636 O 0.10269 0.24765 0.85462 0.0
O637 O 0.00248 0.3117 0.88256 0.0
Mg638 Mg 0.0194 0.29097 0.77154 0.0
O639 O 0.06667 0.30417 0.69699 0.0
O640 O 0.03077 0.22142 0.82026 0.0
O641 O -0.0363 0.34287 0.79722 0.0
O642 O -0.00825 0.27164 0.68159 0.0
C643 C 0.20388 0.33545 0.77587 0.0
C644 C 0.08741 0.42328 0.77269 0.0
C645 C 0.10939 0.3936 0.9732 0.0
C646 C 0.07204 0.21294 0.84751 0.0
C647 C -0.03666 0.33005 0.85872 0.0
C648 C 0.03194 0.28828 0.65659 0.0
O649 O 0.2155 0.33621 0.83888 0.0
O650 O 0.15797 0.33374 0.76142 0.0
O651 O 0.2134 0.37848 0.55052 0.0
Mg652 Mg 0.26697 0.395 0.62273 0.0
O653 O 0.23273 0.30146 0.53631 0.0
Mg654 Mg 0.30493 0.32881 0.57191 0.0
O655 O 0.27235 0.3379 0.69179 0.0
O656 O 0.22129 0.40164 0.70249 0.0
O657 O 0.38161 0.35269 0.60456 0.0
O658 O 0.31747 0.25251 0.63267 0.0
Mg659 Mg 0.33808 0.26942 0.5216 0.0
O660 O 0.32497 0.31669 0.44703 0.0
O661 O 0.40769 0.28076 0.57023 0.0
O662 O 0.28608 0.21375 0.54744 0.0
O663 O 0.35728 0.24174 0.43164 0.0
C664 C 0.2938 0.45377 0.52567 0.0
C665 C 0.20577 0.33745 0.52327 0.0
C666 C 0.2359 0.35955 0.72354 0.0
C667 C 0.41626 0.32204 0.59744 0.0
C668 C 0.29903 0.21337 0.60888 0.0
C669 C 0.34078 0.28196 0.40664 0.0
O670 O 0.29321 0.46556 0.58861 0.0
O671 O 0.29543 0.40783 0.5114 0.0
loop_
_geom_bond_atom_site_label_1
_geom_bond_atom_site_label_2
_geom_bond_distance
_geom_bond_site_symmetry_2
_ccdc_geom_bond_type
O0 Mg1 1.990 1_565 S
O0 C14 1.253 . S
Mg1 O0 1.990 1_545 S
Mg1 O4 2.180 . S
Mg1 O5 2.118 . S
Mg1 O19 2.030 . S
O2 Mg3 2.072 . S
O2 C14 1.260 1_545 S
Mg3 O2 2.072 . S
Mg3 O4 2.099 . S
Mg3 O6 2.079 . S
Mg3 O7 2.072 . S
Mg3 O9 2.099 . S
Mg3 O20 2.079 . S
O4 Mg1 2.180 . S
O4 Mg3 2.099 . S
O4 C15 1.279 . S
O5 Mg1 2.118 . S
O5 C15 1.256 . S
O6 Mg3 2.079 . S
O6 C16 1.264 . S
O7 Mg3 2.072 . S
O7 C17 1.260 . S
Mg8 O9 2.180 . S
Mg8 O10 2.030 . S
Mg8 O11 1.990 . S
Mg8 O12 2.117 . S
O9 Mg3 2.099 . S
O9 Mg8 2.180 . S
O9 C18 1.279 . S
O10 Mg8 2.030 . S
O10 C16 1.248 . S
O11 Mg8 1.990 . S
O11 C17 1.253 . S
O12 Mg8 2.117 . S
O12 C18 1.250 . S
C13 O19 1.248 . S
C13 O20 1.264 . S
C14 O0 1.253 . S
C14 O2 1.260 1_565 S
C15 O4 1.279 . S
C15 O5 1.256 . S
C16 O6 1.264 . S
C16 O10 1.248 . S
C17 O7 1.260 . S
C17 O11 1.253 . S
C18 O9 1.279 . S
C18 O12 1.250 . S
O19 Mg1 2.030 . S
O19 C13 1.248 . S
O20 Mg3 2.079 . S
O20 C13 1.264 . S
O21 Mg22 1.990 . S
O21 C35 1.253 . S
Mg22 O21 1.990 . S
Mg22 O25 2.180 . S
Mg22 O26 2.117 . S
Mg22 O40 2.030 1_565 S
O23 Mg24 2.072 . S
O23 C35 1.260 . S
Mg24 O23 2.072 . S
Mg24 O25 2.099 . S
Mg24 O27 2.079 . S
Mg24 O28 2.072 . S
Mg24 O30 2.099 . S
Mg24 O41 2.079 . S
O25 Mg22 2.180 . S
O25 Mg24 2.099 . S
O25 C36 1.279 . S
O26 Mg22 2.117 . S
O26 C36 1.250 . S
O27 Mg24 2.079 . S
O27 C37 1.264 . S
O28 Mg24 2.072 . S
O28 C38 1.260 . S
Mg29 O30 2.180 . S
Mg29 O31 2.030 . S
Mg29 O32 1.990 . S
Mg29 O33 2.117 . S
O30 Mg24 2.099 . S
O30 Mg29 2.180 . S
O30 C39 1.279 . S
O31 Mg29 2.030 . S
O31 C37 1.248 . S
O32 Mg29 1.990 . S
O32 C38 1.253 . S
O33 Mg29 2.117 . S
O33 C39 1.250 . S
C34 O40 1.248 . S
C34 O41 1.264 1_545 S
C35 O21 1.253 . S
C35 O23 1.260 . S
C36 O25 1.279 . S
C36 O26 1.250 . S
C37 O27 1.264 . S
C37 O31 1.248 . S
C38 O28 1.260 . S
C38 O32 1.253 . S
C39 O30 1.279 . S
C39 O33 1.250 . S
O40 Mg22 2.030 1_545 S
O40 C34 1.248 . S
O41 Mg24 2.079 . S
O41 C34 1.264 1_565 S
O42 Mg43 1.990 1_545 S
O42 C56 1.253 . S
Mg43 O42 1.990 1_565 S
Mg43 O46 2.180 . S
Mg43 O47 2.118 . S
Mg43 O61 2.030 . S
O44 Mg45 2.072 . S
O44 C56 1.260 1_565 S
Mg45 O44 2.072 . S
Mg45 O46 2.099 . S
Mg45 O48 2.079 . S
Mg45 O49 2.072 . S
Mg45 O51 2.099 . S
Mg45 O62 2.079 . S
O46 Mg43 2.180 . S
O46 Mg45 2.099 . S
O46 C57 1.279 . S
O47 Mg43 2.118 . S
O47 C57 1.256 . S
O48 Mg45 2.079 . S
O48 C58 1.264 . S
O49 Mg45 2.072 . S
O49 C59 1.260 . S
Mg50 O51 2.180 . S
Mg50 O52 2.030 . S
Mg50 O53 1.990 . S
Mg50 O54 2.117 . S
O51 Mg45 2.099 . S
O51 Mg50 2.180 . S
O51 C60 1.279 . S
O52 Mg50 2.030 . S
O52 C58 1.248 . S
O53 Mg50 1.990 . S
O53 C59 1.253 . S
O54 Mg50 2.117 . S
O54 C60 1.250 . S
C55 O61 1.248 . S
C55 O62 1.264 . S
C56 O42 1.253 . S
C56 O44 1.260 1_545 S
C57 O46 1.279 . S
C57 O47 1.256 . S
C58 O48 1.264 . S
C58 O52 1.248 . S
C59 O49 1.260 . S
C59 O53 1.253 . S
C60 O51 1.279 . S
C60 O54 1.250 . S
O61 Mg43 2.030 . S
O61 C55 1.248 . S
O62 Mg45 2.079 . S
O62 C55 1.264 . S
O63 Mg64 1.990 . S
O63 C77 1.253 . S
Mg64 O63 1.990 . S
Mg64 O67 2.180 1_554 S
Mg64 O68 2.117 1_554 S
Mg64 O82 2.030 . S
O65 Mg66 2.072 . S
O65 C77 1.260 . S
Mg66 O65 2.072 . S
Mg66 O67 2.099 1_554 S
Mg66 O69 2.079 . S
Mg66 O70 2.072 . S
Mg66 O72 2.099 . S
Mg66 O83 2.079 . S
O67 Mg64 2.180 1_556 S
O67 Mg66 2.099 1_556 S
O67 C78 1.279 . S
O68 Mg64 2.117 1_556 S
O68 C78 1.250 . S
O69 Mg66 2.079 . S
O69 C79 1.264 1_545 S
O70 Mg66 2.072 . S
O70 C80 1.260 . S
Mg71 O72 2.180 . S
Mg71 O73 2.030 1_545 S
Mg71 O74 1.990 . S
Mg71 O75 2.117 . S
O72 Mg66 2.099 . S
O72 Mg71 2.180 . S
O72 C81 1.279 . S
O73 Mg71 2.030 1_565 S
O73 C79 1.248 . S
O74 Mg71 1.990 . S
O74 C80 1.253 . S
O75 Mg71 2.117 . S
O75 C81 1.250 . S
C76 O82 1.248 . S
C76 O83 1.264 . S
C77 O63 1.253 . S
C77 O65 1.260 . S
C78 O67 1.279 . S
C78 O68 1.250 . S
C79 O69 1.264 1_565 S
C79 O73 1.248 . S
C80 O70 1.260 . S
C80 O74 1.253 . S
C81 O72 1.279 . S
C81 O75 1.250 . S
O82 Mg64 2.030 . S
O82 C76 1.248 . S
O83 Mg66 2.079 . S
O83 C76 1.264 . S
O84 Mg85 1.990 1_545 S
O84 C98 1.253 . S
Mg85 O84 1.990 1_565 S
Mg85 O88 2.180 . S
Mg85 O89 2.118 . S
Mg85 O103 2.030 . S
O86 Mg87 2.072 . S
O86 C98 1.260 1_565 S
Mg87 O86 2.072 . S
Mg87 O88 2.099 . S
Mg87 O90 2.079 . S
Mg87 O91 2.072 . S
Mg87 O93 2.099 . S
Mg87 O104 2.079 . S
O88 Mg85 2.180 . S
O88 Mg87 2.099 . S
O88 C99 1.279 . S
O89 Mg85 2.118 . S
O89 C99 1.256 . S
O90 Mg87 2.079 . S
O90 C100 1.264 . S
O91 Mg87 2.072 . S
O91 C101 1.260 . S
Mg92 O93 2.180 . S
Mg92 O94 2.030 . S
Mg92 O95 1.990 . S
Mg92 O96 2.117 . S
O93 Mg87 2.099 . S
O93 Mg92 2.180 . S
O93 C102 1.279 . S
O94 Mg92 2.030 . S
O94 C100 1.248 . S
O95 Mg92 1.990 . S
O95 C101 1.253 . S
O96 Mg92 2.117 . S
O96 C102 1.250 . S
C97 O103 1.248 . S
C97 O104 1.264 . S
C98 O84 1.253 . S
C98 O86 1.260 1_545 S
C99 O88 1.279 . S
C99 O89 1.256 . S
C100 O90 1.264 . S
C100 O94 1.248 . S
C101 O91 1.260 . S
C101 O95 1.253 . S
C102 O93 1.279 . S
C102 O96 1.250 . S
O103 Mg85 2.030 . S
O103 C97 1.248 . S
O104 Mg87 2.079 . S
O104 C97 1.264 . S
O105 Mg106 1.990 . S
O105 C119 1.253 . S
Mg106 O105 1.990 . S
Mg106 O109 2.180 . S
Mg106 O110 2.117 . S
Mg106 O124 2.030 1_565 S
O107 Mg108 2.072 . S
O107 C119 1.260 . S
Mg108 O107 2.072 . S
Mg108 O109 2.099 . S
Mg108 O111 2.079 . S
Mg108 O112 2.072 . S
Mg108 O114 2.099 . S
Mg108 O125 2.079 . S
O109 Mg106 2.180 . S
O109 Mg108 2.099 . S
O109 C120 1.279 . S
O110 Mg106 2.117 . S
O110 C120 1.250 . S
O111 Mg108 2.079 . S
O111 C121 1.264 . S
O112 Mg108 2.072 . S
O112 C122 1.260 . S
Mg113 O114 2.180 . S
Mg113 O115 2.030 . S
Mg113 O116 1.990 . S
Mg113 O117 2.117 . S
O114 Mg108 2.099 . S
O114 Mg113 2.180 . S
O114 C123 1.279 . S
O115 Mg113 2.030 . S
O115 C121 1.248 . S
O116 Mg113 1.990 . S
O116 C122 1.253 . S
O117 Mg113 2.117 . S
O117 C123 1.250 . S
C118 O124 1.248 . S
C118 O125 1.264 1_545 S
C119 O105 1.253 . S
C119 O107 1.260 . S
C120 O109 1.279 . S
C120 O110 1.250 . S
C121 O111 1.264 . S
C121 O115 1.248 . S
C122 O112 1.260 . S
C122 O116 1.253 . S
C123 O114 1.279 . S
C123 O117 1.250 . S
O124 Mg106 2.030 1_545 S
O124 C118 1.248 . S
O125 Mg108 2.079 . S
O125 C118 1.264 1_565 S
O126 Mg127 1.990 . S
O126 C140 1.253 . S
Mg127 O126 1.990 . S
Mg127 O130 2.180 . S
Mg127 O131 2.117 . S
Mg127 O145 2.030 . S
O128 Mg129 2.072 . S
O128 C140 1.260 . S
Mg129 O128 2.072 . S
Mg129 O130 2.099 . S
Mg129 O132 2.079 . S
Mg129 O133 2.072 . S
Mg129 O135 2.099 . S
Mg129 O146 2.079 . S
O130 Mg127 2.180 . S
O130 Mg129 2.099 . S
O130 C141 1.279 . S
O131 Mg127 2.117 . S
O131 C141 1.250 . S
O132 Mg129 2.079 . S
O132 C142 1.264 . S
O133 Mg129 2.072 . S
O133 C143 1.260 1_545 S
Mg134 O135 2.180 . S
Mg134 O136 2.030 . S
Mg134 O137 1.990 1_545 S
Mg134 O138 2.118 . S
O135 Mg129 2.099 . S
O135 Mg134 2.180 . S
O135 C144 1.279 . S
O136 Mg134 2.030 . S
O136 C142 1.248 . S
O137 Mg134 1.990 1_565 S
O137 C143 1.253 . S
O138 Mg134 2.118 . S
O138 C144 1.256 . S
C139 O145 1.248 . S
C139 O146 1.264 . S
C140 O126 1.253 . S
C140 O128 1.260 . S
C141 O130 1.279 . S
C141 O131 1.250 . S
C142 O132 1.264 . S
C142 O136 1.248 . S
C143 O133 1.260 1_565 S
C143 O137 1.253 . S
C144 O135 1.279 . S
C144 O138 1.256 . S
O145 Mg127 2.030 . S
O145 C139 1.248 . S
O146 Mg129 2.079 . S
O146 C139 1.264 . S
O147 Mg148 1.990 . S
O147 C161 1.253 . S
Mg148 O147 1.990 . S
Mg148 O151 2.180 . S
Mg148 O152 2.117 . S
Mg148 O166 2.030 1_545 S
O149 Mg150 2.072 . S
O149 C161 1.260 . S
Mg150 O149 2.072 . S
Mg150 O151 2.099 . S
Mg150 O153 2.079 . S
Mg150 O154 2.072 . S
Mg150 O156 2.099 1_556 S
Mg150 O167 2.079 . S
O151 Mg148 2.180 . S
O151 Mg150 2.099 . S
O151 C162 1.279 . S
O152 Mg148 2.117 . S
O152 C162 1.250 . S
O153 Mg150 2.079 . S
O153 C163 1.264 . S
O154 Mg150 2.072 . S
O154 C164 1.260 . S
Mg155 O156 2.180 1_556 S
Mg155 O157 2.030 . S
Mg155 O158 1.990 . S
Mg155 O159 2.117 1_556 S
O156 Mg150 2.099 1_554 S
O156 Mg155 2.180 1_554 S
O156 C165 1.279 . S
O157 Mg155 2.030 . S
O157 C163 1.248 . S
O158 Mg155 1.990 . S
O158 C164 1.253 . S
O159 Mg155 2.117 1_554 S
O159 C165 1.250 . S
C160 O166 1.248 . S
C160 O167 1.264 1_565 S
C161 O147 1.253 . S
C161 O149 1.260 . S
C162 O151 1.279 . S
C162 O152 1.250 . S
C163 O153 1.264 . S
C163 O157 1.248 . S
C164 O154 1.260 . S
C164 O158 1.253 . S
C165 O156 1.279 . S
C165 O159 1.250 . S
O166 Mg148 2.030 1_565 S
O166 C160 1.248 . S
O167 Mg150 2.079 . S
O167 C160 1.264 1_545 S
O168 Mg169 1.990 1_545 S
O168 C182 1.253 . S
Mg169 O168 1.990 1_565 S
Mg169 O172 2.180 . S
Mg169 O173 2.118 . S
Mg169 O187 2.030 . S
O170 Mg171 2.072 . S
O170 C182 1.260 1_565 S
Mg171 O170 2.072 . S
Mg171 O172 2.099 . S
Mg171 O174 2.079 . S
Mg171 O175 2.072 . S
Mg171 O177 2.099 . S
Mg171 O188 2.079 . S
O172 Mg169 2.180 . S
O172 Mg171 2.099 . S
O172 C183 1.279 . S
O173 Mg169 2.118 . S
O173 C183 1.256 . S
O174 Mg171 2.079 . S
O174 C184 1.264 . S
O175 Mg171 2.072 . S
O175 C185 1.260 . S
Mg176 O177 2.180 . S
Mg176 O178 2.030 . S
Mg176 O179 1.990 . S
Mg176 O180 2.117 . S
O177 Mg171 2.099 . S
O177 Mg176 2.180 . S
O177 C186 1.279 . S
O178 Mg176 2.030 . S
O178 C184 1.248 . S
O179 Mg176 1.990 . S
O179 C185 1.253 . S
O180 Mg176 2.117 . S
O180 C186 1.250 . S
C181 O187 1.248 . S
C181 O188 1.264 . S
C182 O168 1.253 . S
C182 O170 1.260 1_545 S
C183 O172 1.279 . S
C183 O173 1.256 . S
C184 O174 1.264 . S
C184 O178 1.248 . S
C185 O175 1.260 . S
C185 O179 1.253 . S
C186 O177 1.279 . S
C186 O180 1.250 . S
O187 Mg169 2.030 . S
O187 C181 1.248 . S
O188 Mg171 2.079 . S
O188 C181 1.264 . S
O189 Mg190 1.990 . S
O189 C203 1.253 . S
Mg190 O189 1.990 . S
Mg190 O193 2.180 . S
Mg190 O194 2.117 . S
Mg190 O208 2.030 1_545 S
O191 Mg192 2.072 . S
O191 C203 1.260 . S
Mg192 O191 2.072 . S
Mg192 O193 2.099 . S
Mg192 O195 2.079 . S
Mg192 O196 2.072 . S
Mg192 O198 2.099 . S
Mg192 O209 2.079 . S
O193 Mg190 2.180 . S
O193 Mg192 2.099 . S
O193 C204 1.279 . S
O194 Mg190 2.117 . S
O194 C204 1.250 . S
O195 Mg192 2.079 . S
O195 C205 1.264 . S
O196 Mg192 2.072 . S
O196 C206 1.260 . S
Mg197 O198 2.180 . S
Mg197 O199 2.030 . S
Mg197 O200 1.990 . S
Mg197 O201 2.117 . S
O198 Mg192 2.099 . S
O198 Mg197 2.180 . S
O198 C207 1.279 . S
O199 Mg197 2.030 . S
O199 C205 1.248 . S
O200 Mg197 1.990 . S
O200 C206 1.253 . S
O201 Mg197 2.117 . S
O201 C207 1.250 . S
C202 O208 1.248 . S
C202 O209 1.264 1_565 S
C203 O189 1.253 . S
C203 O191 1.260 . S
C204 O193 1.279 . S
C204 O194 1.250 . S
C205 O195 1.264 . S
C205 O199 1.248 . S
C206 O196 1.260 . S
C206 O200 1.253 . S
C207 O198 1.279 . S
C207 O201 1.250 . S
O208 Mg190 2.030 1_565 S
O208 C202 1.248 . S
O209 Mg192 2.079 . S
O209 C202 1.264 1_545 S
O210 Mg211 1.990 1_565 S
O210 C224 1.253 . S
Mg211 O210 1.990 1_545 S
Mg211 O214 2.180 . S
Mg211 O215 2.118 . S
Mg211 O229 2.030 . S
O212 Mg213 2.072 . S
O212 C224 1.260 1_545 S
Mg213 O212 2.072 . S
Mg213 O214 2.099 . S
Mg213 O216 2.079 . S
Mg213 O217 2.072 . S
Mg213 O219 2.099 . S
Mg213 O230 2.079 . S
O214 Mg211 2.180 . S
O214 Mg213 2.099 . S
O214 C225 1.279 . S
O215 Mg211 2.118 . S
O215 C225 1.256 . S
O216 Mg213 2.079 . S
O216 C226 1.264 . S
O217 Mg213 2.072 . S
O217 C227 1.260 . S
Mg218 O219 2.180 . S
Mg218 O220 2.030 . S
Mg218 O221 1.990 . S
Mg218 O222 2.117 . S
O219 Mg213 2.099 . S
O219 Mg218 2.180 . S
O219 C228 1.279 . S
O220 Mg218 2.030 . S
O220 C226 1.248 . S
O221 Mg218 1.990 . S
O221 C227 1.253 . S
O222 Mg218 2.117 . S
O222 C228 1.250 . S
C223 O229 1.248 . S
C223 O230 1.264 . S
C224 O210 1.253 . S
C224 O212 1.260 1_565 S
C225 O214 1.279 . S
C225 O215 1.256 . S
C226 O216 1.264 . S
C226 O220 1.248 . S
C227 O217 1.260 . S
C227 O221 1.253 . S
C228 O219 1.279 . S
C228 O222 1.250 . S
O229 Mg211 2.030 . S
O229 C223 1.248 . S
O230 Mg213 2.079 . S
O230 C223 1.264 . S
O231 Mg232 1.990 . S
O231 C245 1.253 . S
Mg232 O231 1.990 . S
Mg232 O235 2.180 . S
Mg232 O236 2.117 . S
Mg232 O250 2.030 1_565 S
O233 Mg234 2.072 . S
O233 C245 1.260 . S
Mg234 O233 2.072 . S
Mg234 O235 2.099 . S
Mg234 O237 2.079 . S
Mg234 O238 2.072 . S
Mg234 O240 2.099 1_556 S
Mg234 O251 2.079 . S
O235 Mg232 2.180 . S
O235 Mg234 2.099 . S
O235 C246 1.279 . S
O236 Mg232 2.117 . S
O236 C246 1.250 . S
O237 Mg234 2.079 . S
O237 C247 1.264 . S
O238 Mg234 2.072 . S
O238 C248 1.260 . S
Mg239 O240 2.180 1_556 S
Mg239 O241 2.030 . S
Mg239 O242 1.990 . S
Mg239 O243 2.117 1_556 S
O240 Mg234 2.099 1_554 S
O240 Mg239 2.180 1_554 S
O240 C249 1.279 . S
O241 Mg239 2.030 . S
O241 C247 1.248 . S
O242 Mg239 1.990 . S
O242 C248 1.253 . S
O243 Mg239 2.117 1_554 S
O243 C249 1.250 . S
C244 O250 1.248 . S
C244 O251 1.264 1_545 S
C245 O231 1.253 . S
C245 O233 1.260 . S
C246 O235 1.279 . S
C246 O236 1.250 . S
C247 O237 1.264 . S
C247 O241 1.248 . S
C248 O238 1.260 . S
C248 O242 1.253 . S
C249 O240 1.279 . S
C249 O243 1.250 . S
O250 Mg232 2.030 1_545 S
O250 C244 1.248 . S
O251 Mg234 2.079 . S
O251 C244 1.264 1_565 S
O252 Mg253 1.990 1_565 S
O252 C266 1.253 . S
Mg253 O252 1.990 1_545 S
Mg253 O256 2.180 . S
Mg253 O257 2.118 . S
Mg253 O271 2.030 . S
O254 Mg255 2.072 . S
O254 C266 1.260 1_545 S
Mg255 O254 2.072 . S
Mg255 O256 2.099 . S
Mg255 O258 2.079 . S
Mg255 O259 2.072 . S
Mg255 O261 2.099 . S
Mg255 O272 2.079 . S
O256 Mg253 2.180 . S
O256 Mg255 2.099 . S
O256 C267 1.279 . S
O257 Mg253 2.118 . S
O257 C267 1.256 . S
O258 Mg255 2.079 . S
O258 C268 1.264 . S
O259 Mg255 2.072 . S
O259 C269 1.260 . S
Mg260 O261 2.180 . S
Mg260 O262 2.030 . S
Mg260 O263 1.990 . S
Mg260 O264 2.117 . S
O261 Mg255 2.099 . S
O261 Mg260 2.180 . S
O261 C270 1.279 . S
O262 Mg260 2.030 . S
O262 C268 1.248 . S
O263 Mg260 1.990 . S
O263 C269 1.253 . S
O264 Mg260 2.117 . S
O264 C270 1.250 . S
C265 O271 1.248 . S
C265 O272 1.264 . S
C266 O252 1.253 . S
C266 O254 1.260 1_565 S
C267 O256 1.279 . S
C267 O257 1.256 . S
C268 O258 1.264 . S
C268 O262 1.248 . S
C269 O259 1.260 . S
C269 O263 1.253 . S
C270 O261 1.279 . S
C270 O264 1.250 . S
O271 Mg253 2.030 . S
O271 C265 1.248 . S
O272 Mg255 2.079 . S
O272 C265 1.264 . S
O273 Mg274 1.990 . S
O273 C287 1.253 . S
Mg274 O273 1.990 . S
Mg274 O277 2.180 . S
Mg274 O278 2.117 . S
Mg274 O292 2.030 1_545 S
O275 Mg276 2.072 . S
O275 C287 1.260 . S
Mg276 O275 2.072 . S
Mg276 O277 2.099 . S
Mg276 O279 2.079 . S
Mg276 O280 2.072 . S
Mg276 O282 2.099 . S
Mg276 O293 2.079 . S
O277 Mg274 2.180 . S
O277 Mg276 2.099 . S
O277 C288 1.279 . S
O278 Mg274 2.117 . S
O278 C288 1.250 . S
O279 Mg276 2.079 . S
O279 C289 1.264 . S
O280 Mg276 2.072 . S
O280 C290 1.260 . S
Mg281 O282 2.180 . S
Mg281 O283 2.030 . S
Mg281 O284 1.990 . S
Mg281 O285 2.117 . S
O282 Mg276 2.099 . S
O282 Mg281 2.180 . S
O282 C291 1.279 . S
O283 Mg281 2.030 . S
O283 C289 1.248 . S
O284 Mg281 1.990 . S
O284 C290 1.253 . S
O285 Mg281 2.117 . S
O285 C291 1.250 . S
C286 O292 1.248 . S
C286 O293 1.264 1_565 S
C287 O273 1.253 . S
C287 O275 1.260 . S
C288 O277 1.279 . S
C288 O278 1.250 . S
C289 O279 1.264 . S
C289 O283 1.248 . S
C290 O280 1.260 . S
C290 O284 1.253 . S
C291 O282 1.279 . S
C291 O285 1.250 . S
O292 Mg274 2.030 1_565 S
O292 C286 1.248 . S
O293 Mg276 2.079 . S
O293 C286 1.264 1_545 S
O294 Mg295 1.990 1_545 S
O294 C308 1.253 . S
Mg295 O294 1.990 1_565 S
Mg295 O298 2.180 . S
Mg295 O299 2.118 . S
Mg295 O313 2.030 . S
O296 Mg297 2.072 . S
O296 C308 1.260 1_565 S
Mg297 O296 2.072 . S
Mg297 O298 2.099 . S
Mg297 O300 2.079 . S
Mg297 O301 2.072 . S
Mg297 O303 2.099 . S
Mg297 O314 2.079 . S
O298 Mg295 2.180 . S
O298 Mg297 2.099 . S
O298 C309 1.279 . S
O299 Mg295 2.118 . S
O299 C309 1.256 . S
O300 Mg297 2.079 . S
O300 C310 1.264 . S
O301 Mg297 2.072 . S
O301 C311 1.260 . S
Mg302 O303 2.180 . S
Mg302 O304 2.030 . S
Mg302 O305 1.990 . S
Mg302 O306 2.117 . S
O303 Mg297 2.099 . S
O303 Mg302 2.180 . S
O303 C312 1.279 . S
O304 Mg302 2.030 . S
O304 C310 1.248 . S
O305 Mg302 1.990 . S
O305 C311 1.253 . S
O306 Mg302 2.117 . S
O306 C312 1.250 . S
C307 O313 1.248 . S
C307 O314 1.264 . S
C308 O294 1.253 . S
C308 O296 1.260 1_545 S
C309 O298 1.279 . S
C309 O299 1.256 . S
C310 O300 1.264 . S
C310 O304 1.248 . S
C311 O301 1.260 . S
C311 O305 1.253 . S
C312 O303 1.279 . S
C312 O306 1.250 . S
O313 Mg295 2.030 . S
O313 C307 1.248 . S
O314 Mg297 2.079 . S
O314 C307 1.264 . S
O315 Mg316 1.990 . S
O315 C329 1.253 . S
Mg316 O315 1.990 . S
Mg316 O319 2.180 . S
Mg316 O320 2.117 . S
Mg316 O334 2.030 1_565 S
O317 Mg318 2.072 . S
O317 C329 1.260 . S
Mg318 O317 2.072 . S
Mg318 O319 2.099 . S
Mg318 O321 2.079 . S
Mg318 O322 2.072 . S
Mg318 O324 2.099 1_554 S
Mg318 O335 2.079 . S
O319 Mg316 2.180 . S
O319 Mg318 2.099 . S
O319 C330 1.279 . S
O320 Mg316 2.117 . S
O320 C330 1.250 . S
O321 Mg318 2.079 . S
O321 C331 1.264 . S
O322 Mg318 2.072 . S
O322 C332 1.260 . S
Mg323 O324 2.180 1_554 S
Mg323 O325 2.030 . S
Mg323 O326 1.990 . S
Mg323 O327 2.117 1_554 S
O324 Mg318 2.099 1_556 S
O324 Mg323 2.180 1_556 S
O324 C333 1.279 . S
O325 Mg323 2.030 . S
O325 C331 1.248 . S
O326 Mg323 1.990 . S
O326 C332 1.253 . S
O327 Mg323 2.117 1_556 S
O327 C333 1.250 . S
C328 O334 1.248 . S
C328 O335 1.264 1_545 S
C329 O315 1.253 . S
C329 O317 1.260 . S
C330 O319 1.279 . S
C330 O320 1.250 . S
C331 O321 1.264 . S
C331 O325 1.248 . S
C332 O322 1.260 . S
C332 O326 1.253 . S
C333 O324 1.279 . S
C333 O327 1.250 . S
O334 Mg316 2.030 1_545 S
O334 C328 1.248 . S
O335 Mg318 2.079 . S
O335 C328 1.264 1_565 S
O336 Mg337 1.990 . S
O336 C350 1.253 . S
Mg337 O336 1.990 . S
Mg337 O340 2.180 . S
Mg337 O341 2.117 . S
Mg337 O355 2.030 . S
O338 Mg339 2.072 . S
O338 C350 1.260 . S
Mg339 O338 2.072 . S
Mg339 O340 2.099 . S
Mg339 O342 2.079 . S
Mg339 O343 2.072 . S
Mg339 O345 2.099 . S
Mg339 O356 2.079 . S
O340 Mg337 2.180 . S
O340 Mg339 2.099 . S
O340 C351 1.279 . S
O341 Mg337 2.117 . S
O341 C351 1.250 . S
O342 Mg339 2.079 . S
O342 C352 1.264 . S
O343 Mg339 2.072 . S
O343 C353 1.260 . S
Mg344 O345 2.180 . S
Mg344 O346 2.030 . S
Mg344 O347 1.990 . S
Mg344 O348 2.117 . S
O345 Mg339 2.099 . S
O345 Mg344 2.180 . S
O345 C354 1.279 . S
O346 Mg344 2.030 . S
O346 C352 1.248 . S
O347 Mg344 1.990 . S
O347 C353 1.253 . S
O348 Mg344 2.117 . S
O348 C354 1.250 . S
C349 O355 1.248 . S
C349 O356 1.264 . S
C350 O336 1.253 . S
C350 O338 1.260 . S
C351 O340 1.279 . S
C351 O341 1.250 . S
C352 O342 1.264 . S
C352 O346 1.248 . S
C353 O343 1.260 . S
C353 O347 1.253 . S
C354 O345 1.279 . S
C354 O348 1.250 . S
O355 Mg337 2.030 . S
O355 C349 1.248 . S
O356 Mg339 2.079 . S
O356 C349 1.264 . S
O357 Mg358 1.990 . S
O357 C371 1.253 . S
Mg358 O357 1.990 . S
Mg358 O361 2.180 . S
Mg358 O362 2.117 . S
Mg358 O376 2.030 . S
O359 Mg360 2.072 . S
O359 C371 1.260 . S
Mg360 O359 2.072 . S
Mg360 O361 2.099 . S
Mg360 O363 2.079 . S
Mg360 O364 2.072 . S
Mg360 O366 2.099 1_554 S
Mg360 O377 2.079 . S
O361 Mg358 2.180 . S
O361 Mg360 2.099 . S
O361 C372 1.279 . S
O362 Mg358 2.117 . S
O362 C372 1.250 . S
O363 Mg360 2.079 . S
O363 C373 1.264 . S
O364 Mg360 2.072 . S
O364 C374 1.260 . S
Mg365 O366 2.180 1_554 S
Mg365 O367 2.030 . S
Mg365 O368 1.990 . S
Mg365 O369 2.117 1_554 S
O366 Mg360 2.099 1_556 S
O366 Mg365 2.180 1_556 S
O366 C375 1.279 . S
O367 Mg365 2.030 . S
O367 C373 1.248 . S
O368 Mg365 1.990 . S
O368 C374 1.253 . S
O369 Mg365 2.117 1_556 S
O369 C375 1.250 . S
C370 O376 1.248 . S
C370 O377 1.264 . S
C371 O357 1.253 . S
C371 O359 1.260 . S
C372 O361 1.279 . S
C372 O362 1.250 . S
C373 O363 1.264 . S
C373 O367 1.248 . S
C374 O364 1.260 . S
C374 O368 1.253 . S
C375 O366 1.279 . S
C375 O369 1.250 . S
O376 Mg358 2.030 . S
O376 C370 1.248 . S
O377 Mg360 2.079 . S
O377 C370 1.264 . S
O378 Mg379 1.990 . S
O378 C392 1.253 . S
Mg379 O378 1.990 . S
Mg379 O382 2.180 . S
Mg379 O383 2.117 . S
Mg379 O397 2.030 . S
O380 Mg381 2.072 . S
O380 C392 1.260 . S
Mg381 O380 2.072 . S
Mg381 O382 2.099 . S
Mg381 O384 2.079 . S
Mg381 O385 2.072 . S
Mg381 O387 2.099 . S
Mg381 O398 2.079 . S
O382 Mg379 2.180 . S
O382 Mg381 2.099 . S
O382 C393 1.279 . S
O383 Mg379 2.117 . S
O383 C393 1.250 . S
O384 Mg381 2.079 . S
O384 C394 1.264 . S
O385 Mg381 2.072 . S
O385 C395 1.260 . S
Mg386 O387 2.180 . S
Mg386 O388 2.030 . S
Mg386 O389 1.990 . S
Mg386 O390 2.117 . S
O387 Mg381 2.099 . S
O387 Mg386 2.180 . S
O387 C396 1.279 . S
O388 Mg386 2.030 . S
O388 C394 1.248 . S
O389 Mg386 1.990 . S
O389 C395 1.253 . S
O390 Mg386 2.117 . S
O390 C396 1.250 . S
C391 O397 1.248 . S
C391 O398 1.264 . S
C392 O378 1.253 . S
C392 O380 1.260 . S
C393 O382 1.279 . S
C393 O383 1.250 . S
C394 O384 1.264 . S
C394 O388 1.248 . S
C395 O385 1.260 . S
C395 O389 1.253 . S
C396 O387 1.279 . S
C396 O390 1.250 . S
O397 Mg379 2.030 . S
O397 C391 1.248 . S
O398 Mg381 2.079 . S
O398 C391 1.264 . S
O399 Mg400 1.990 . S
O399 C413 1.253 . S
Mg400 O399 1.990 . S
Mg400 O403 2.180 . S
Mg400 O404 2.117 . S
Mg400 O418 2.030 . S
O401 Mg402 2.072 . S
O401 C413 1.260 . S
Mg402 O401 2.072 . S
Mg402 O403 2.099 . S
Mg402 O405 2.079 . S
Mg402 O406 2.072 . S
Mg402 O408 2.099 . S
Mg402 O419 2.079 . S
O403 Mg400 2.180 . S
O403 Mg402 2.099 . S
O403 C414 1.279 . S
O404 Mg400 2.117 . S
O404 C414 1.250 . S
O405 Mg402 2.079 . S
O405 C415 1.264 . S
O406 Mg402 2.072 . S
O406 C416 1.260 . S
Mg407 O408 2.180 . S
Mg407 O409 2.030 . S
Mg407 O410 1.990 . S
Mg407 O411 2.117 . S
O408 Mg402 2.099 . S
O408 Mg407 2.180 . S
O408 C417 1.279 . S
O409 Mg407 2.030 . S
O409 C415 1.248 . S
O410 Mg407 1.990 . S
O410 C416 1.253 . S
O411 Mg407 2.117 . S
O411 C417 1.250 . S
C412 O418 1.248 . S
C412 O419 1.264 . S
C413 O399 1.253 . S
C413 O401 1.260 . S
C414 O403 1.279 . S
C414 O404 1.250 . S
C415 O405 1.264 . S
C415 O409 1.248 . S
C416 O406 1.260 . S
C416 O410 1.253 . S
C417 O408 1.279 . S
C417 O411 1.250 . S
O418 Mg400 2.030 . S
O418 C412 1.248 . S
O419 Mg402 2.079 . S
O419 C412 1.264 . S
O420 Mg421 1.990 . S
O420 C434 1.253 . S
Mg421 O420 1.990 . S
Mg421 O424 2.180 . S
Mg421 O425 2.117 . S
Mg421 O439 2.030 . S
O422 Mg423 2.072 . S
O422 C434 1.260 . S
Mg423 O422 2.072 . S
Mg423 O424 2.099 . S
Mg423 O426 2.079 . S
Mg423 O427 2.072 . S
Mg423 O429 2.099 . S
Mg423 O440 2.079 . S
O424 Mg421 2.180 . S
O424 Mg423 2.099 . S
O424 C435 1.279 . S
O425 Mg421 2.117 . S
O425 C435 1.250 . S
O426 Mg423 2.079 . S
O426 C436 1.264 . S
O427 Mg423 2.072 . S
O427 C437 1.260 . S
Mg428 O429 2.180 . S
Mg428 O430 2.030 . S
Mg428 O431 1.990 . S
Mg428 O432 2.117 . S
O429 Mg423 2.099 . S
O429 Mg428 2.180 . S
O429 C438 1.279 . S
O430 Mg428 2.030 . S
O430 C436 1.248 . S
O431 Mg428 1.990 . S
O431 C437 1.253 . S
O432 Mg428 2.117 . S
O432 C438 1.250 . S
C433 O439 1.248 . S
C433 O440 1.264 . S
C434 O420 1.253 . S
C434 O422 1.260 . S
C435 O424 1.279 . S
C435 O425 1.250 . S
C436 O426 1.264 . S
C436 O430 1.248 . S
C437 O427 1.260 . S
C437 O431 1.253 . S
C438 O429 1.279 . S
C438 O432 1.250 . S
O439 Mg421 2.030 . S
O439 C433 1.248 . S
O440 Mg423 2.079 . S
O440 C433 1.264 . S
O441 Mg442 1.990 . S
O441 C455 1.253 . S
Mg442 O441 1.990 . S
Mg442 O445 2.180 . S
Mg442 O446 2.117 . S
Mg442 O460 2.030 . S
O443 Mg444 2.072 . S
O443 C455 1.260 . S
Mg444 O443 2.072 . S
Mg444 O445 2.099 . S
Mg444 O447 2.079 . S
Mg444 O448 2.072 . S
Mg444 O450 2.099 1_556 S
Mg444 O461 2.079 . S
O445 Mg442 2.180 . S
O445 Mg444 2.099 . S
O445 C456 1.279 . S
O446 Mg442 2.117 . S
O446 C456 1.250 . S
O447 Mg444 2.079 . S
O447 C457 1.264 . S
O448 Mg444 2.072 . S
O448 C458 1.260 . S
Mg449 O450 2.180 1_556 S
Mg449 O451 2.030 . S
Mg449 O452 1.990 . S
Mg449 O453 2.117 1_556 S
O450 Mg444 2.099 1_554 S
O450 Mg449 2.180 1_554 S
O450 C459 1.279 . S
O451 Mg449 2.030 . S
O451 C457 1.248 . S
O452 Mg449 1.990 . S
O452 C458 1.253 . S
O453 Mg449 2.117 1_554 S
O453 C459 1.250 . S
C454 O460 1.248 . S
C454 O461 1.264 . S
C455 O441 1.253 . S
C455 O443 1.260 . S
C456 O445 1.279 . S
C456 O446 1.250 . S
C457 O447 1.264 . S
C457 O451 1.248 . S
C458 O448 1.260 . S
C458 O452 1.253 . S
C459 O450 1.279 . S
C459 O453 1.250 . S
O460 Mg442 2.030 . S
O460 C454 1.248 . S
O461 Mg444 2.079 . S
O461 C454 1.264 . S
O462 Mg463 1.990 . S
O462 C476 1.253 . S
Mg463 O462 1.990 . S
Mg463 O466 2.180 . S
Mg463 O467 2.117 . S
Mg463 O481 2.030 . S
O464 Mg465 2.072 . S
O464 C476 1.260 . S
Mg465 O464 2.072 . S
Mg465 O466 2.099 . S
Mg465 O468 2.079 . S
Mg465 O469 2.072 . S
Mg465 O471 2.099 . S
Mg465 O482 2.079 . S
O466 Mg463 2.180 . S
O466 Mg465 2.099 . S
O466 C477 1.279 . S
O467 Mg463 2.117 . S
O467 C477 1.250 . S
O468 Mg465 2.079 . S
O468 C478 1.264 . S
O469 Mg465 2.072 . S
O469 C479 1.260 . S
Mg470 O471 2.180 . S
Mg470 O472 2.030 . S
Mg470 O473 1.990 . S
Mg470 O474 2.117 . S
O471 Mg465 2.099 . S
O471 Mg470 2.180 . S
O471 C480 1.279 . S
O472 Mg470 2.030 . S
O472 C478 1.248 . S
O473 Mg470 1.990 . S
O473 C479 1.253 . S
O474 Mg470 2.117 . S
O474 C480 1.250 . S
C475 O481 1.248 . S
C475 O482 1.264 . S
C476 O462 1.253 . S
C476 O464 1.260 . S
C477 O466 1.279 . S
C477 O467 1.250 . S
C478 O468 1.264 . S
C478 O472 1.248 . S
C479 O469 1.260 . S
C479 O473 1.253 . S
C480 O471 1.279 . S
C480 O474 1.250 . S
O481 Mg463 2.030 . S
O481 C475 1.248 . S
O482 Mg465 2.079 . S
O482 C475 1.264 . S
O483 Mg484 1.990 . S
O483 C497 1.253 . S
Mg484 O483 1.990 . S
Mg484 O487 2.180 . S
Mg484 O488 2.117 . S
Mg484 O502 2.030 . S
O485 Mg486 2.072 . S
O485 C497 1.260 . S
Mg486 O485 2.072 . S
Mg486 O487 2.099 . S
Mg486 O489 2.079 . S
Mg486 O490 2.072 . S
Mg486 O492 2.099 . S
Mg486 O503 2.079 . S
O487 Mg484 2.180 . S
O487 Mg486 2.099 . S
O487 C498 1.279 . S
O488 Mg484 2.117 . S
O488 C498 1.250 . S
O489 Mg486 2.079 . S
O489 C499 1.264 . S
O490 Mg486 2.072 . S
O490 C500 1.260 . S
Mg491 O492 2.180 . S
Mg491 O493 2.030 . S
Mg491 O494 1.990 . S
Mg491 O495 2.117 . S
O492 Mg486 2.099 . S
O492 Mg491 2.180 . S
O492 C501 1.279 . S
O493 Mg491 2.030 . S
O493 C499 1.248 . S
O494 Mg491 1.990 . S
O494 C500 1.253 . S
O495 Mg491 2.117 . S
O495 C501 1.250 . S
C496 O502 1.248 . S
C496 O503 1.264 . S
C497 O483 1.253 . S
C497 O485 1.260 . S
C498 O487 1.279 . S
C498 O488 1.250 . S
C499 O489 1.264 . S
C499 O493 1.248 . S
C500 O490 1.260 . S
C500 O494 1.253 . S
C501 O492 1.279 . S
C501 O495 1.250 . S
O502 Mg484 2.030 . S
O502 C496 1.248 . S
O503 Mg486 2.079 . S
O503 C496 1.264 . S
O504 Mg505 1.990 . S
O504 C518 1.253 . S
Mg505 O504 1.990 . S
Mg505 O508 2.180 . S
Mg505 O509 2.117 . S
Mg505 O523 2.030 . S
O506 Mg507 2.072 . S
O506 C518 1.260 . S
Mg507 O506 2.072 . S
Mg507 O508 2.099 . S
Mg507 O510 2.079 . S
Mg507 O511 2.072 . S
Mg507 O513 2.099 . S
Mg507 O524 2.079 . S
O508 Mg505 2.180 . S
O508 Mg507 2.099 . S
O508 C519 1.279 . S
O509 Mg505 2.117 . S
O509 C519 1.250 . S
O510 Mg507 2.079 . S
O510 C520 1.264 . S
O511 Mg507 2.072 . S
O511 C521 1.260 . S
Mg512 O513 2.180 . S
Mg512 O514 2.030 . S
Mg512 O515 1.990 . S
Mg512 O516 2.117 . S
O513 Mg507 2.099 . S
O513 Mg512 2.180 . S
O513 C522 1.279 . S
O514 Mg512 2.030 . S
O514 C520 1.248 . S
O515 Mg512 1.990 . S
O515 C521 1.253 . S
O516 Mg512 2.117 . S
O516 C522 1.250 . S
C517 O523 1.248 . S
C517 O524 1.264 . S
C518 O504 1.253 . S
C518 O506 1.260 . S
C519 O508 1.279 . S
C519 O509 1.250 . S
C520 O510 1.264 . S
C520 O514 1.248 . S
C521 O511 1.260 . S
C521 O515 1.253 . S
C522 O513 1.279 . S
C522 O516 1.250 . S
O523 Mg505 2.030 . S
O523 C517 1.248 . S
O524 Mg507 2.079 . S
O524 C517 1.264 . S
O525 Mg526 1.990 . S
O525 C539 1.253 . S
Mg526 O525 1.990 . S
Mg526 O529 2.180 . S
Mg526 O530 2.117 . S
Mg526 O544 2.030 . S
O527 Mg528 2.072 . S
O527 C539 1.260 . S
Mg528 O527 2.072 . S
Mg528 O529 2.099 . S
Mg528 O531 2.079 . S
Mg528 O532 2.072 . S
Mg528 O534 2.099 1_556 S
Mg528 O545 2.079 . S
O529 Mg526 2.180 . S
O529 Mg528 2.099 . S
O529 C540 1.279 . S
O530 Mg526 2.117 . S
O530 C540 1.250 . S
O531 Mg528 2.079 . S
O531 C541 1.264 . S
O532 Mg528 2.072 . S
O532 C542 1.260 . S
Mg533 O534 2.180 1_556 S
Mg533 O535 2.030 . S
Mg533 O536 1.990 . S
Mg533 O537 2.117 1_556 S
O534 Mg528 2.099 1_554 S
O534 Mg533 2.180 1_554 S
O534 C543 1.279 . S
O535 Mg533 2.030 . S
O535 C541 1.248 . S
O536 Mg533 1.990 . S
O536 C542 1.253 . S
O537 Mg533 2.117 1_554 S
O537 C543 1.250 . S
C538 O544 1.248 . S
C538 O545 1.264 . S
C539 O525 1.253 . S
C539 O527 1.260 . S
C540 O529 1.279 . S
C540 O530 1.250 . S
C541 O531 1.264 . S
C541 O535 1.248 . S
C542 O532 1.260 . S
C542 O536 1.253 . S
C543 O534 1.279 . S
C543 O537 1.250 . S
O544 Mg526 2.030 . S
O544 C538 1.248 . S
O545 Mg528 2.079 . S
O545 C538 1.264 . S
O546 Mg547 1.990 . S
O546 C560 1.253 . S
Mg547 O546 1.990 . S
Mg547 O550 2.180 . S
Mg547 O551 2.117 . S
Mg547 O565 2.030 . S
O548 Mg549 2.072 . S
O548 C560 1.260 . S
Mg549 O548 2.072 . S
Mg549 O550 2.099 . S
Mg549 O552 2.079 . S
Mg549 O553 2.072 . S
Mg549 O555 2.099 . S
Mg549 O566 2.079 . S
O550 Mg547 2.180 . S
O550 Mg549 2.099 . S
O550 C561 1.279 . S
O551 Mg547 2.117 . S
O551 C561 1.250 . S
O552 Mg549 2.079 . S
O552 C562 1.264 . S
O553 Mg549 2.072 . S
O553 C563 1.260 . S
Mg554 O555 2.180 . S
Mg554 O556 2.030 . S
Mg554 O557 1.990 . S
Mg554 O558 2.117 . S
O555 Mg549 2.099 . S
O555 Mg554 2.180 . S
O555 C564 1.279 . S
O556 Mg554 2.030 . S
O556 C562 1.248 . S
O557 Mg554 1.990 . S
O557 C563 1.253 . S
O558 Mg554 2.117 . S
O558 C564 1.250 . S
C559 O565 1.248 . S
C559 O566 1.264 . S
C560 O546 1.253 . S
C560 O548 1.260 . S
C561 O550 1.279 . S
C561 O551 1.250 . S
C562 O552 1.264 . S
C562 O556 1.248 . S
C563 O553 1.260 . S
C563 O557 1.253 . S
C564 O555 1.279 . S
C564 O558 1.250 . S
O565 Mg547 2.030 . S
O565 C559 1.248 . S
O566 Mg549 2.079 . S
O566 C559 1.264 . S
O567 Mg568 1.990 . S
O567 C581 1.253 . S
Mg568 O567 1.990 . S
Mg568 O571 2.180 . S
Mg568 O572 2.117 . S
Mg568 O586 2.030 . S
O569 Mg570 2.072 . S
O569 C581 1.260 . S
Mg570 O569 2.072 . S
Mg570 O571 2.099 . S
Mg570 O573 2.079 . S
Mg570 O574 2.072 . S
Mg570 O576 2.099 . S
Mg570 O587 2.079 . S
O571 Mg568 2.180 . S
O571 Mg570 2.099 . S
O571 C582 1.279 . S
O572 Mg568 2.117 . S
O572 C582 1.250 . S
O573 Mg570 2.079 . S
O573 C583 1.264 . S
O574 Mg570 2.072 . S
O574 C584 1.260 . S
Mg575 O576 2.180 . S
Mg575 O577 2.030 . S
Mg575 O578 1.990 . S
Mg575 O579 2.117 . S
O576 Mg570 2.099 . S
O576 Mg575 2.180 . S
O576 C585 1.279 . S
O577 Mg575 2.030 . S
O577 C583 1.248 . S
O578 Mg575 1.990 . S
O578 C584 1.253 . S
O579 Mg575 2.117 . S
O579 C585 1.250 . S
C580 O586 1.248 . S
C580 O587 1.264 . S
C581 O567 1.253 . S
C581 O569 1.260 . S
C582 O571 1.279 . S
C582 O572 1.250 . S
C583 O573 1.264 . S
C583 O577 1.248 . S
C584 O574 1.260 . S
C584 O578 1.253 . S
C585 O576 1.279 . S
C585 O579 1.250 . S
O586 Mg568 2.030 . S
O586 C580 1.248 . S
O587 Mg570 2.079 . S
O587 C580 1.264 . S
O588 Mg589 1.990 . S
O588 C602 1.253 . S
Mg589 O588 1.990 . S
Mg589 O592 2.180 . S
Mg589 O593 2.117 . S
Mg589 O607 2.030 . S
O590 Mg591 2.072 . S
O590 C602 1.260 . S
Mg591 O590 2.072 . S
Mg591 O592 2.099 . S
Mg591 O594 2.079 . S
Mg591 O595 2.072 . S
Mg591 O597 2.099 . S
Mg591 O608 2.079 . S
O592 Mg589 2.180 . S
O592 Mg591 2.099 . S
O592 C603 1.279 . S
O593 Mg589 2.117 . S
O593 C603 1.250 . S
O594 Mg591 2.079 . S
O594 C604 1.264 . S
O595 Mg591 2.072 . S
O595 C605 1.260 . S
Mg596 O597 2.180 . S
Mg596 O598 2.030 . S
Mg596 O599 1.990 . S
Mg596 O600 2.117 . S
O597 Mg591 2.099 . S
O597 Mg596 2.180 . S
O597 C606 1.279 . S
O598 Mg596 2.030 . S
O598 C604 1.248 . S
O599 Mg596 1.990 . S
O599 C605 1.253 . S
O600 Mg596 2.117 . S
O600 C606 1.250 . S
C601 O607 1.248 . S
C601 O608 1.264 . S
C602 O588 1.253 . S
C602 O590 1.260 . S
C603 O592 1.279 . S
C603 O593 1.250 . S
C604 O594 1.264 . S
C604 O598 1.248 . S
C605 O595 1.260 . S
C605 O599 1.253 . S
C606 O597 1.279 . S
C606 O600 1.250 . S
O607 Mg589 2.030 . S
O607 C601 1.248 . S
O608 Mg591 2.079 . S
O608 C601 1.264 . S
O609 Mg610 1.990 . S
O609 C623 1.253 . S
Mg610 O609 1.990 . S
Mg610 O613 2.180 . S
Mg610 O614 2.117 . S
Mg610 O628 2.030 . S
O611 Mg612 2.072 . S
O611 C623 1.260 . S
Mg612 O611 2.072 . S
Mg612 O613 2.099 . S
Mg612 O615 2.079 . S
Mg612 O616 2.072 . S
Mg612 O618 2.099 1_554 S
Mg612 O629 2.079 . S
O613 Mg610 2.180 . S
O613 Mg612 2.099 . S
O613 C624 1.279 . S
O614 Mg610 2.117 . S
O614 C624 1.250 . S
O615 Mg612 2.079 . S
O615 C625 1.264 . S
O616 Mg612 2.072 . S
O616 C626 1.260 . S
Mg617 O618 2.180 1_554 S
Mg617 O619 2.030 . S
Mg617 O620 1.990 . S
Mg617 O621 2.117 1_554 S
O618 Mg612 2.099 1_556 S
O618 Mg617 2.180 1_556 S
O618 C627 1.279 . S
O619 Mg617 2.030 . S
O619 C625 1.248 . S
O620 Mg617 1.990 . S
O620 C626 1.253 . S
O621 Mg617 2.117 1_556 S
O621 C627 1.250 . S
C622 O628 1.248 . S
C622 O629 1.264 . S
C623 O609 1.253 . S
C623 O611 1.260 . S
C624 O613 1.279 . S
C624 O614 1.250 . S
C625 O615 1.264 . S
C625 O619 1.248 . S
C626 O616 1.260 . S
C626 O620 1.253 . S
C627 O618 1.279 . S
C627 O621 1.250 . S
O628 Mg610 2.030 . S
O628 C622 1.248 . S
O629 Mg612 2.079 . S
O629 C622 1.264 . S
O630 Mg631 1.990 . S
O630 C644 1.253 . S
Mg631 O630 1.990 . S
Mg631 O634 2.180 . S
Mg631 O635 2.117 . S
Mg631 O649 2.030 . S
O632 Mg633 2.072 . S
O632 C644 1.260 . S
Mg633 O632 2.072 . S
Mg633 O634 2.099 . S
Mg633 O636 2.079 . S
Mg633 O637 2.072 . S
Mg633 O639 2.099 . S
Mg633 O650 2.079 . S
O634 Mg631 2.180 . S
O634 Mg633 2.099 . S
O634 C645 1.279 . S
O635 Mg631 2.117 . S
O635 C645 1.250 . S
O636 Mg633 2.079 . S
O636 C646 1.264 . S
O637 Mg633 2.072 . S
O637 C647 1.260 . S
Mg638 O639 2.180 . S
Mg638 O640 2.030 . S
Mg638 O641 1.990 . S
Mg638 O642 2.117 . S
O639 Mg633 2.099 . S
O639 Mg638 2.180 . S
O639 C648 1.279 . S
O640 Mg638 2.030 . S
O640 C646 1.248 . S
O641 Mg638 1.990 . S
O641 C647 1.253 . S
O642 Mg638 2.117 . S
O642 C648 1.250 . S
C643 O649 1.248 . S
C643 O650 1.264 . S
C644 O630 1.253 . S
C644 O632 1.260 . S
C645 O634 1.279 . S
C645 O635 1.250 . S
C646 O636 1.264 . S
C646 O640 1.248 . S
C647 O637 1.260 . S
C647 O641 1.253 . S
C648 O639 1.279 . S
C648 O642 1.250 . S
O649 Mg631 2.030 . S
O649 C643 1.248 . S
O650 Mg633 2.079 . S
O650 C643 1.264 . S
O651 Mg652 1.990 . S
O651 C665 1.253 . S
Mg652 O651 1.990 . S
Mg652 O655 2.180 . S
Mg652 O656 2.117 . S
Mg652 O670 2.030 . S
O653 Mg654 2.072 . S
O653 C665 1.260 . S
Mg654 O653 2.072 . S
Mg654 O655 2.099 . S
Mg654 O657 2.079 . S
Mg654 O658 2.072 . S
Mg654 O660 2.099 . S
Mg654 O671 2.079 . S
O655 Mg652 2.180 . S
O655 Mg654 2.099 . S
O655 C666 1.279 . S
O656 Mg652 2.117 . S
O656 C666 1.250 . S
O657 Mg654 2.079 . S
O657 C667 1.264 . S
O658 Mg654 2.072 . S
O658 C668 1.260 . S
Mg659 O660 2.180 . S
Mg659 O661 2.030 . S
Mg659 O662 1.990 . S
Mg659 O663 2.117 . S
O660 Mg654 2.099 . S
O660 Mg659 2.180 . S
O660 C669 1.279 . S
O661 Mg659 2.030 . S
O661 C667 1.248 . S
O662 Mg659 1.990 . S
O662 C668 1.253 . S
O663 Mg659 2.117 . S
O663 C669 1.250 . S
C664 O670 1.248 . S
C664 O671 1.264 . S
C665 O651 1.253 . S
C665 O653 1.260 . S
C666 O655 1.279 . S
C666 O656 1.250 . S
C667 O657 1.264 . S
C667 O661 1.248 . S
C668 O658 1.260 . S
C668 O662 1.253 . S
C669 O660 1.279 . S
C669 O663 1.250 . S
O670 Mg652 2.030 . S
O670 C664 1.248 . S
O671 Mg654 2.079 . S
O671 C664 1.264 . S
C13 C81 1.461 . S
C15 C34 1.461 . S
C55 C36 1.461 . S
C57 C79 1.461 1_556 S
C120 C97 1.461 . S
C118 C144 1.461 . S
C162 C142 1.461 . S
C99 C160 1.461 1_554 S
C181 C246 1.461 . S
C202 C183 1.461 . S
C223 C204 1.461 . S
C244 C225 1.461 1_556 S
C265 C288 1.461 . S
C286 C309 1.461 . S
C330 C307 1.461 . S
C267 C328 1.461 1_556 S
C349 C417 1.461 . S
C351 C370 1.461 1_556 S
C372 C391 1.461 . S
C415 C393 1.461 . S
C433 C456 1.461 . S
C480 C454 1.461 1_554 S
C478 C498 1.461 . S
C435 C496 1.461 . S
C582 C517 1.461 . S
C519 C538 1.461 1_554 S
C559 C540 1.461 . S
C561 C580 1.461 . S
C624 C601 1.461 . S
C645 C622 1.461 1_556 S
C666 C643 1.461 . S
C664 C603 1.461 . S
C584 C16 1.243 . S
C37 C185 1.243 1_455 S
C58 C542 1.243 . S
C76 C227 1.243 . S
C100 C626 1.243 . S
C311 C121 1.243 . S
C668 C139 1.243 . S
C163 C269 1.243 1_455 S
C184 C413 1.243 . S
C17 C205 1.243 1_455 S
C374 C226 1.243 . S
C59 C247 1.243 . S
C458 C268 1.243 . S
C140 C289 1.243 . S
C310 C500 1.243 . S
C331 C101 1.243 1_655 S
C352 C248 1.243 . S
C373 C521 1.243 . S
C394 C206 1.243 . S
C412 C563 1.243 1_655 S
C436 C290 1.243 . S
C457 C647 1.243 1_655 S
C332 C475 1.243 . S
C499 C605 1.243 . S
C77 C520 1.243 . S
C353 C541 1.243 . S
C38 C562 1.243 . S
C395 C583 1.243 1_655 S
C122 C604 1.243 . S
C625 C476 1.243 1_455 S
C646 C164 1.243 . S
C437 C667 1.243 . S
C14 C98 0.200 1_565 S
C35 C119 0.200 . S
C56 C143 0.200 1_545 S
C161 C80 0.200 1_556 S
C266 C182 0.200 1_565 S
C287 C203 0.200 . S
C224 C308 0.200 1_565 S
C245 C329 0.200 1_556 S
C350 C434 0.200 . S
C455 C371 0.200 1_556 S
C479 C392 0.200 . S
C497 C416 0.200 . S
C602 C518 0.200 . S
C539 C623 0.200 1_556 S
C644 C560 0.200 . S
C581 C665 0.200 . S
C165 C18 1.613 . S
C39 C102 1.613 . S
C60 C123 1.613 . S
C141 C78 1.613 . S
C186 C333 1.613 . S
C270 C207 1.613 . S
C291 C228 1.613 . S
C249 C312 1.613 . S
C354 C501 1.613 . S
C438 C375 1.613 . S
C459 C396 1.613 . S
C477 C414 1.613 . S
C522 C669 1.613 . S
C606 C543 1.613 . S
C564 C627 1.613 . S
C648 C585 1.613 . S
