# Generated by pormake.
# Topology qtz-h, (3)-cn, num edge types: 1
# Building blocks:
#     Node 0, Type 0, BuildingBlock: OLANEW_clean_sbu_2, # of connection points: 3
#     Node 1, Type 0, BuildingBlock: OLANEW_clean_sbu_2, # of connection points: 3
#     Node 2, Type 0, BuildingBlock: OLANEW_clean_sbu_2, # of connection points: 3
#     Node 3, Type 0, BuildingBlock: OLANEW_clean_sbu_2, # of connection points: 3
#     Node 4, Type 0, BuildingBlock: OLANEW_clean_sbu_2, # of connection points: 3
#     Node 5, Type 0, BuildingBlock: OLANEW_clean_sbu_2, # of connection points: 3
#     Node 6, Type 0, BuildingBlock: OLANEW_clean_sbu_2, # of connection points: 3
#     Node 7, Type 0, BuildingBlock: OLANEW_clean_sbu_2, # of connection points: 3
#     Node 8, Type 0, BuildingBlock: OLANEW_clean_sbu_2, # of connection points: 3
#     Node 9, Type 0, BuildingBlock: OLANEW_clean_sbu_2, # of connection points: 3
#     Node 10, Type 0, BuildingBlock: OLANEW_clean_sbu_2, # of connection points: 3
#     Node 11, Type 0, BuildingBlock: OLANEW_clean_sbu_2, # of connection points: 3
#     Edge 12, Type (0, 0), BuildingBlock: KIFKEQ_clean_linker_1, # of connection points: 2
#     Edge 13, Type (0, 0), BuildingBlock: KIFKEQ_clean_linker_1, # of connection points: 2
#     Edge 14, Type (0, 0), BuildingBlock: KIFKEQ_clean_linker_1, # of connection points: 2
#     Edge 15, Type (0, 0), BuildingBlock: KIFKEQ_clean_linker_1, # of connection points: 2
#     Edge 16, Type (0, 0), BuildingBlock: KIFKEQ_clean_linker_1, # of connection points: 2
#     Edge 17, Type (0, 0), BuildingBlock: KIFKEQ_clean_linker_1, # of connection points: 2
#     Edge 18, Type (0, 0), BuildingBlock: KIFKEQ_clean_linker_1, # of connection points: 2
#     Edge 19, Type (0, 0), BuildingBlock: KIFKEQ_clean_linker_1, # of connection points: 2
#     Edge 20, Type (0, 0), BuildingBlock: KIFKEQ_clean_linker_1, # of connection points: 2
#     Edge 21, Type (0, 0), BuildingBlock: KIFKEQ_clean_linker_1, # of connection points: 2
#     Edge 22, Type (0, 0), BuildingBlock: KIFKEQ_clean_linker_1, # of connection points: 2
#     Edge 23, Type (0, 0), BuildingBlock: KIFKEQ_clean_linker_1, # of connection points: 2
#     Edge 24, Type (0, 0), BuildingBlock: KIFKEQ_clean_linker_1, # of connection points: 2
#     Edge 25, Type (0, 0), BuildingBlock: KIFKEQ_clean_linker_1, # of connection points: 2
#     Edge 26, Type (0, 0), BuildingBlock: KIFKEQ_clean_linker_1, # of connection points: 2
#     Edge 27, Type (0, 0), BuildingBlock: KIFKEQ_clean_linker_1, # of connection points: 2
#     Edge 28, Type (0, 0), BuildingBlock: KIFKEQ_clean_linker_1, # of connection points: 2
#     Edge 29, Type (0, 0), BuildingBlock: KIFKEQ_clean_linker_1, # of connection points: 2
# Relax obj value: 0.007
# Max RMSD: 0.028
# Mean RMSD: 0.028
data_MOF--net-qtz-h--node1-OLANEW_clean_sbu_2--edge1-KIFKEQ_clean_linker_1
_symmetry_space_group_name_H-M    P1
_symmetry_Int_Tables_number       1
_symmetry_cell_setting            triclinic
loop_
_symmetry_equiv_pos_as_xyz
'x, y, z'
_cell_length_a     60.380759
_cell_length_b     60.39873
_cell_length_c     69.728283
_cell_angle_alpha  90.003532
_cell_angle_beta   90.125837
_cell_angle_gamma 119.99699
loop_
_atom_site_label
_atom_site_type_symbol
_atom_site_fract_x
_atom_site_fract_y
_atom_site_fract_z
_atom_type_partial_charge
O0 O 0.66491 0.2439 0.07394 0.0
Cd1 Cd 0.69056 0.25946 0.10321 0.0
O2 O 0.64365 0.20525 0.086 0.0
Cd3 Cd 0.61437 0.16461 0.08549 0.0
O4 O 0.58547 0.12398 0.08521 0.0
C5 C 0.58148 0.11054 0.07019 0.0
O6 O 0.59493 0.12142 0.05472 0.0
C7 C 0.64823 0.22043 0.07198 0.0
C8 C 0.68116 0.29176 0.12603 0.0
O9 O 0.69592 0.30035 0.11142 0.0
O10 O 0.67034 0.26776 0.1296 0.0
O11 O 0.42196 0.63188 0.40911 0.0
Cd12 Cd 0.43606 0.6444 0.44219 0.0
O13 O 0.43614 0.60505 0.41168 0.0
Cd14 Cd 0.44231 0.57344 0.4039 0.0
O15 O 0.4539 0.54476 0.40032 0.0
C16 C 0.47692 0.552 0.39581 0.0
O17 O 0.49281 0.57646 0.39294 0.0
C18 C 0.42517 0.61446 0.40172 0.0
C19 C 0.39867 0.64749 0.46342 0.0
O20 O 0.41755 0.66763 0.45628 0.0
O21 O 0.3976 0.62601 0.46065 0.0
O22 O 0.7545 0.40393 0.76282 0.0
Cd23 Cd 0.75243 0.40204 0.79779 0.0
O24 O 0.79602 0.42204 0.76621 0.0
Cd25 Cd 0.83545 0.43681 0.7565 0.0
O26 O 0.87552 0.45134 0.74899 0.0
C27 C 0.89216 0.47426 0.75312 0.0
O28 O 0.88477 0.48889 0.76161 0.0
C29 C 0.77655 0.41376 0.75529 0.0
C30 C 0.713 0.35554 0.81129 0.0
O31 O 0.70984 0.37489 0.80934 0.0
O32 O 0.73474 0.35815 0.80675 0.0
O33 O 0.3917 0.78344 0.08395 0.0
Cd34 Cd 0.40372 0.78469 0.11759 0.0
O35 O 0.41608 0.82501 0.08482 0.0
Cd36 Cd 0.43783 0.86417 0.07385 0.0
O37 O 0.46244 0.90508 0.0685 0.0
C38 C 0.45625 0.92079 0.07522 0.0
O39 O 0.43475 0.91193 0.0848 0.0
C40 C 0.40137 0.80484 0.07539 0.0
C41 C 0.38413 0.73667 0.13442 0.0
O42 O 0.37229 0.74927 0.13581 0.0
O43 O 0.40502 0.74664 0.12486 0.0
O44 O 0.59015 0.3442 0.41215 0.0
Cd45 Cd 0.58024 0.32458 0.44395 0.0
O46 O 0.57997 0.37247 0.42194 0.0
Cd47 Cd 0.57234 0.40383 0.41713 0.0
O48 O 0.56084 0.43241 0.41246 0.0
C49 C 0.54069 0.42648 0.40287 0.0
O50 O 0.52741 0.40327 0.39578 0.0
C51 C 0.58781 0.36359 0.40873 0.0
C52 C 0.6243 0.33791 0.46536 0.0
O53 O 0.61455 0.31827 0.45435 0.0
O54 O 0.61323 0.35129 0.46621 0.0
O55 O 0.21302 0.58478 0.73709 0.0
Cd56 Cd 0.21521 0.57756 0.77137 0.0
O57 O 0.17482 0.57909 0.74247 0.0
Cd58 Cd 0.13724 0.57351 0.73465 0.0
O59 O 0.09651 0.5611 0.7331 0.0
C60 C 0.08066 0.53791 0.73708 0.0
O61 O 0.08944 0.52254 0.74145 0.0
C62 C 0.19282 0.5839 0.7308 0.0
C63 C 0.2481 0.62245 0.79106 0.0
O64 O 0.25591 0.6075 0.785 0.0
O65 O 0.2248 0.61621 0.78775 0.0
O66 O 0.80656 0.39501 0.60603 0.0
Cd67 Cd 0.81918 0.39338 0.573 0.0
O68 O 0.82176 0.43653 0.60517 0.0
Cd69 Cd 0.84368 0.44134 0.57917 0.0
O70 O 0.8828 0.45477 0.56975 0.0
C71 C 0.8971 0.45347 0.58258 0.0
O72 O 0.88701 0.44341 0.59927 0.0
C73 C 0.80952 0.4153 0.61392 0.0
C74 C 0.77863 0.38183 0.548 0.0
O75 O 0.78148 0.3641 0.55562 0.0
O76 O 0.79514 0.40507 0.55205 0.0
O77 O 0.39399 0.81718 0.92186 0.0
Cd78 Cd 0.3956 0.82643 0.88759 0.0
O79 O 0.37162 0.83596 0.92812 0.0
Cd80 Cd 0.37816 0.8539 0.89993 0.0
O81 O 0.39994 0.89011 0.88473 0.0
C82 C 0.42078 0.89585 0.87631 0.0
O83 O 0.42799 0.87865 0.87526 0.0
C84 C 0.38181 0.82306 0.93374 0.0
C85 C 0.36408 0.78256 0.86636 0.0
O86 O 0.38793 0.79024 0.86848 0.0
O87 O 0.35517 0.79565 0.87424 0.0
O88 O 0.669 0.44353 0.27357 0.0
Cd89 Cd 0.68814 0.45986 0.24219 0.0
O90 O 0.6347 0.44538 0.26598 0.0
Cd91 Cd 0.59855 0.4439 0.27242 0.0
O92 O 0.56576 0.44948 0.27619 0.0
C93 C 0.56977 0.47135 0.28139 0.0
O94 O 0.59337 0.48958 0.28471 0.0
C95 C 0.64716 0.44015 0.27811 0.0
C96 C 0.68232 0.421 0.21746 0.0
O97 O 0.70042 0.43062 0.22987 0.0
O98 O 0.66683 0.42969 0.21673 0.0
O99 O 0.21468 0.64858 0.58615 0.0
Cd100 Cd 0.21706 0.65802 0.55192 0.0
O101 O 0.17993 0.613 0.57867 0.0
Cd102 Cd 0.14398 0.57772 0.58415 0.0
O103 O 0.10322 0.54953 0.58373 0.0
C104 C 0.08899 0.55527 0.57399 0.0
O105 O 0.09954 0.57724 0.56487 0.0
C106 C 0.19584 0.62734 0.59134 0.0
C107 C 0.2575 0.65639 0.53418 0.0
O108 O 0.25969 0.67774 0.53942 0.0
O109 O 0.23626 0.63587 0.53737 0.0
O110 O 0.55993 0.16447 0.93179 0.0
Cd111 Cd 0.54593 0.15335 0.89851 0.0
O112 O 0.5866 0.14981 0.9291 0.0
Cd113 Cd 0.57036 0.13009 0.90204 0.0
O114 O 0.54635 0.09601 0.88497 0.0
C115 C 0.55269 0.07888 0.88441 0.0
O116 O 0.57404 0.0834 0.89284 0.0
C117 C 0.57762 0.16133 0.93884 0.0
C118 C 0.57934 0.19377 0.87515 0.0
O119 O 0.55828 0.19184 0.88083 0.0
O120 O 0.58429 0.17628 0.88014 0.0
O121 O 0.33133 0.54644 0.26552 0.0
Cd122 Cd 0.31477 0.53232 0.23312 0.0
O123 O 0.36236 0.53903 0.25847 0.0
Cd124 Cd 0.39588 0.53532 0.26476 0.0
O125 O 0.42818 0.52911 0.26917 0.0
C126 C 0.42502 0.50936 0.27804 0.0
O127 O 0.40224 0.4931 0.28473 0.0
C128 C 0.35178 0.54677 0.27039 0.0
C129 C 0.32789 0.57425 0.20942 0.0
O130 O 0.30623 0.56293 0.21798 0.0
O131 O 0.34319 0.56556 0.21193 0.0
H132 H 0.65656 0.40675 0.18332 0.0
H133 H 0.70218 0.38949 0.22167 0.0
H134 H 0.6538 0.37428 0.16083 0.0
H135 H 0.69896 0.35678 0.19937 0.0
H136 H 0.66393 0.28296 0.16294 0.0
H137 H 0.66209 0.3133 0.18521 0.0
H138 H 0.68885 0.37038 0.1406 0.0
H139 H 0.69117 0.34025 0.11837 0.0
C140 C 0.66578 0.39588 0.18702 0.0
C141 C 0.67965 0.40069 0.20422 0.0
C142 C 0.66427 0.37741 0.17413 0.0
C143 C 0.67612 0.36306 0.17843 0.0
C144 C 0.68949 0.36747 0.19581 0.0
C145 C 0.69144 0.38627 0.2085 0.0
C146 C 0.66917 0.30189 0.15782 0.0
C147 C 0.6778 0.30928 0.13894 0.0
C148 C 0.66822 0.31924 0.17059 0.0
C149 C 0.67539 0.34413 0.16459 0.0
C150 C 0.6831 0.35123 0.14552 0.0
C151 C 0.68452 0.33404 0.13285 0.0
H152 H 0.34985 0.60926 0.46961 0.0
H153 H 0.40195 0.68895 0.48176 0.0
H154 H 0.31605 0.61171 0.48662 0.0
H155 H 0.36869 0.69119 0.49989 0.0
H156 H 0.29711 0.69452 0.51441 0.0
H157 H 0.33112 0.69238 0.49734 0.0
H158 H 0.30061 0.61423 0.51627 0.0
H159 H 0.26577 0.61605 0.53223 0.0
C160 C 0.35414 0.62724 0.47618 0.0
C161 C 0.37849 0.64892 0.47433 0.0
C162 C 0.3348 0.62864 0.48609 0.0
C163 C 0.33949 0.65165 0.49478 0.0
C164 C 0.36408 0.67326 0.49311 0.0
C165 C 0.38326 0.67197 0.48283 0.0
C166 C 0.29775 0.67691 0.51489 0.0
C167 C 0.27875 0.65542 0.52455 0.0
C168 C 0.31737 0.6757 0.50521 0.0
C169 C 0.31877 0.65311 0.50532 0.0
C170 C 0.29995 0.63179 0.51541 0.0
C171 C 0.28003 0.63285 0.52472 0.0
H172 H 0.57112 0.2286 0.85614 0.0
H173 H 0.62961 0.20949 0.86884 0.0
H174 H 0.60232 0.26652 0.83889 0.0
H175 H 0.66109 0.24795 0.85247 0.0
H176 H 0.70938 0.30868 0.8096 0.0
H177 H 0.676 0.26857 0.823 0.0
H178 H 0.6373 0.30738 0.84457 0.0
H179 H 0.67004 0.34711 0.83032 0.0
C180 C 0.59068 0.23254 0.85527 0.0
C181 C 0.59792 0.21608 0.86386 0.0
C182 C 0.60864 0.2544 0.8455 0.0
C183 C 0.63437 0.26051 0.84434 0.0
C184 C 0.64144 0.24374 0.85274 0.0
C185 C 0.62339 0.22171 0.86225 0.0
C186 C 0.69363 0.30856 0.81711 0.0
C187 C 0.69236 0.33105 0.81895 0.0
C188 C 0.67455 0.28558 0.82491 0.0
C189 C 0.65392 0.28463 0.83501 0.0
C190 C 0.65259 0.30717 0.83663 0.0
C191 C 0.67148 0.33005 0.82858 0.0
H192 H 0.37515 0.60752 0.19521 0.0
H193 H 0.29728 0.5924 0.1963 0.0
H194 H 0.38779 0.64596 0.17646 0.0
H195 H 0.30964 0.63031 0.17683 0.0
H196 H 0.34657 0.71517 0.16146 0.0
H197 H 0.3325 0.67541 0.17885 0.0
H198 H 0.38503 0.66148 0.14604 0.0
H199 H 0.39982 0.70181 0.12926 0.0
C200 C 0.36065 0.61225 0.19123 0.0
C201 C 0.33524 0.59697 0.19729 0.0
C202 C 0.36786 0.63423 0.18036 0.0
C203 C 0.34975 0.64132 0.17507 0.0
C204 C 0.32421 0.62573 0.18089 0.0
C205 C 0.31707 0.60389 0.19196 0.0
C206 C 0.35502 0.70354 0.15791 0.0
C207 C 0.3744 0.7117 0.14407 0.0
C208 C 0.34685 0.68063 0.16781 0.0
C209 C 0.35767 0.66518 0.16394 0.0
C210 C 0.37661 0.67309 0.14971 0.0
C211 C 0.38499 0.69615 0.13997 0.0
H212 H 0.76805 0.41509 0.52897 0.0
H213 H 0.73947 0.33452 0.5381 0.0
H214 H 0.73146 0.40481 0.50835 0.0
H215 H 0.70262 0.32427 0.51787 0.0
H216 H 0.65289 0.3143 0.46569 0.0
H217 H 0.69081 0.32535 0.4849 0.0
H218 H 0.68578 0.38777 0.51063 0.0
H219 H 0.64821 0.37709 0.4911 0.0
C220 C 0.75395 0.39519 0.5266 0.0
C221 C 0.75668 0.37563 0.53518 0.0
C222 C 0.73288 0.3893 0.51487 0.0
C223 C 0.71405 0.36371 0.51148 0.0
C224 C 0.71692 0.34417 0.51996 0.0
C225 C 0.738 0.35005 0.53166 0.0
C226 C 0.65991 0.33043 0.47541 0.0
C227 C 0.6475 0.3448 0.47688 0.0
C228 C 0.68158 0.33667 0.48651 0.0
C229 C 0.69133 0.35741 0.49935 0.0
C230 C 0.679 0.37188 0.50071 0.0
C231 C 0.65735 0.36566 0.48959 0.0
H232 H 0.24079 0.66257 0.79909 0.0
H233 H 0.29444 0.63581 0.80712 0.0
H234 H 0.26911 0.70151 0.81664 0.0
H235 H 0.3223 0.67419 0.82546 0.0
H236 H 0.37827 0.75655 0.8419 0.0
H237 H 0.3506 0.71847 0.82317 0.0
H238 H 0.28416 0.71715 0.84759 0.0
H239 H 0.3119 0.75586 0.86558 0.0
C240 C 0.25857 0.66493 0.80474 0.0
C241 C 0.26538 0.64612 0.80171 0.0
C242 C 0.27477 0.68721 0.81494 0.0
C243 C 0.29803 0.69107 0.8226 0.0
C244 C 0.30479 0.67216 0.81954 0.0
C245 C 0.28873 0.65004 0.80911 0.0
C246 C 0.35775 0.74812 0.84322 0.0
C247 C 0.34727 0.75924 0.85517 0.0
C248 C 0.34184 0.72616 0.83257 0.0
C249 C 0.31505 0.71461 0.83382 0.0
C250 C 0.30465 0.72572 0.84593 0.0
C251 C 0.32056 0.74785 0.85637 0.0
H252 H 0.44908 0.95931 0.08855 0.0
H253 H 0.50282 0.9455 0.0574 0.0
H254 H 0.47845 0.00523 0.08649 0.0
H255 H 0.53237 0.99142 0.05566 0.0
H256 H 0.56908 0.07624 0.04083 0.0
H257 H 0.53791 0.03062 0.04111 0.0
H258 H 0.51956 0.03662 0.10003 0.0
H259 H 0.55037 0.08226 0.09968 0.0
C260 C 0.46713 0.96605 0.08123 0.0
C261 C 0.47363 0.94871 0.07319 0.0
C262 C 0.48403 0.99238 0.08016 0.0
C263 C 0.50782 0.002 0.071 0.0
C264 C 0.5141 0.98467 0.06264 0.0
C265 C 0.4972 0.95833 0.06373 0.0
C266 C 0.55835 0.06785 0.05383 0.0
C267 C 0.56226 0.08291 0.07025 0.0
C268 C 0.54057 0.04167 0.05401 0.0
C269 C 0.52626 0.02996 0.07059 0.0
C270 C 0.53002 0.04508 0.08695 0.0
C271 C 0.54782 0.07124 0.08678 0.0
H272 H 0.56392 0.47606 0.41531 0.0
H273 H 0.49737 0.41916 0.38464 0.0
H274 H 0.54845 0.50621 0.41222 0.0
H275 H 0.48212 0.44952 0.38131 0.0
H276 H 0.4493 0.5003 0.40157 0.0
H277 H 0.46502 0.47017 0.40205 0.0
H278 H 0.54091 0.53138 0.3883 0.0
H279 H 0.5253 0.56162 0.38812 0.0
C280 C 0.54609 0.47003 0.40779 0.0
C281 C 0.53184 0.44516 0.40029 0.0
C282 C 0.5373 0.48738 0.40591 0.0
C283 C 0.51404 0.48025 0.39653 0.0
C284 C 0.49996 0.45549 0.38882 0.0
C285 C 0.50878 0.43814 0.39065 0.0
C286 C 0.46931 0.50732 0.39854 0.0
C287 C 0.48607 0.5334 0.39491 0.0
C288 C 0.47829 0.49002 0.39871 0.0
C289 C 0.50424 0.4984 0.39529 0.0
C290 C 0.52088 0.52439 0.39127 0.0
C291 C 0.5119 0.54169 0.39106 0.0
H292 H 0.9138 0.44925 0.7354 0.0
H293 H 0.93265 0.52135 0.76179 0.0
H294 H 0.9591 0.46485 0.72989 0.0
H295 H 0.97793 0.53671 0.75665 0.0
H296 H 0.05603 0.56473 0.72963 0.0
H297 H 0.01031 0.54952 0.73191 0.0
H298 H 0.99678 0.4749 0.74868 0.0
H299 H 0.04229 0.4899 0.74603 0.0
C300 C 0.92759 0.46843 0.74002 0.0
C301 C 0.91959 0.48402 0.7491 0.0
C302 C 0.95358 0.47733 0.73695 0.0
C303 C 0.97217 0.502 0.74289 0.0
C304 C 0.96411 0.51773 0.75167 0.0
C305 C 0.93813 0.50885 0.75473 0.0
C306 C 0.04327 0.54504 0.73369 0.0
C307 C 0.05283 0.52855 0.73769 0.0
C308 C 0.01708 0.53636 0.7351 0.0
C309 C -0.00013 0.51101 0.74053 0.0
C310 C 0.00943 0.49445 0.74423 0.0
C311 C 0.03558 0.50311 0.74282 0.0
H312 H 0.05341 0.56434 0.55725 0.0
H313 H 0.06103 0.5074 0.5895 0.0
H314 H 0.00714 0.53747 0.55793 0.0
H315 H 0.01462 0.4801 0.5897 0.0
H316 H 0.92472 0.47649 0.55015 0.0
H317 H 0.97111 0.49861 0.54643 0.0
H318 H 0.97886 0.47965 0.6049 0.0
H319 H 0.93267 0.45701 0.60841 0.0
C320 C 0.04522 0.54593 0.5643 0.0
C321 C 0.06092 0.5381 0.57346 0.0
C322 C 0.01864 0.53041 0.56455 0.0
C323 C 0.0071 0.50661 0.57389 0.0
C324 C 0.02285 0.49848 0.58262 0.0
C325 C 0.04947 0.51408 0.58244 0.0
C326 C 0.93634 0.47681 0.56212 0.0
C327 C 0.925 0.46512 0.57961 0.0
C328 C 0.96294 0.48962 0.56003 0.0
C329 C 0.97876 0.49107 0.57541 0.0
C330 C 0.9673 0.47867 0.59268 0.0
C331 C 0.94076 0.46581 0.59473 0.0
H332 H 0.41466 0.93731 0.88153 0.0
H333 H 0.46767 0.91539 0.85925 0.0
H334 H 0.44703 0.98205 0.87849 0.0
H335 H 0.49995 0.96035 0.85561 0.0
H336 H 0.55805 0.03666 0.88535 0.0
H337 H 0.52577 0.99283 0.87828 0.0
H338 H 0.47408 0.0184 0.85926 0.0
H339 H 0.50628 0.06238 0.86696 0.0
C340 C 0.43303 0.94203 0.87553 0.0
C341 C 0.43871 0.92275 0.87095 0.0
C342 C 0.45161 0.96778 0.87365 0.0
C343 C 0.47627 0.97487 0.86703 0.0
C344 C 0.48133 0.95556 0.86114 0.0
C345 C 0.46277 0.92977 0.86312 0.0
C346 C 0.53997 0.03303 0.87937 0.0
C347 C 0.53461 0.05299 0.87701 0.0
C348 C 0.52145 0.00784 0.87516 0.0
C349 C 0.49717 0.00199 0.86836 0.0
C350 C 0.49241 0.02217 0.86482 0.0
C351 C 0.51091 0.0474 0.86914 0.0
H352 H 0.47438 0.53908 0.26595 0.0
H353 H 0.42421 0.46801 0.29482 0.0
H354 H 0.50916 0.52975 0.26809 0.0
H355 H 0.45918 0.4589 0.29722 0.0
H356 H 0.51883 0.43819 0.27515 0.0
H357 H 0.48402 0.44764 0.27561 0.0
H358 H 0.53739 0.52585 0.29134 0.0
H359 H 0.57228 0.51654 0.29059 0.0
C360 C 0.47081 0.52156 0.27289 0.0
C361 C 0.44647 0.50425 0.28014 0.0
C362 C 0.49081 0.51628 0.27422 0.0
C363 C 0.48693 0.49356 0.28281 0.0
C364 C 0.46269 0.47642 0.29031 0.0
C365 C 0.44269 0.48172 0.28902 0.0
C366 C 0.52313 0.45737 0.27881 0.0
C367 C 0.54837 0.47664 0.28273 0.0
C368 C 0.50315 0.46275 0.27918 0.0
C369 C 0.50795 0.48752 0.28344 0.0
C370 C 0.53312 0.50666 0.28773 0.0
C371 C 0.55309 0.50128 0.28741 0.0
H372 H 0.61476 0.15709 0.95804 0.0
H373 H 0.5627 0.18621 0.9641 0.0
H374 H 0.63044 0.17117 0.99044 0.0
H375 H 0.57819 0.19995 0.99678 0.0
H376 H 0.63467 0.24558 0.04628 0.0
H377 H 0.61685 0.23142 0.01411 0.0
H378 H 0.61579 0.16015 0.02326 0.0
H379 H 0.63459 0.17479 0.05491 0.0
C380 C 0.6066 0.16645 0.96629 0.0
C381 C 0.58743 0.17047 0.95846 0.0
C382 C 0.61548 0.17436 0.98494 0.0
C383 C 0.60542 0.18649 0.99625 0.0
C384 C 0.58644 0.1908 0.98838 0.0
C385 C 0.57751 0.18284 0.96968 0.0
C386 C 0.63036 0.22679 0.04143 0.0
C387 C 0.63538 0.211 0.05328 0.0
C388 C 0.62004 0.21863 0.02308 0.0
C389 C 0.61486 0.19464 0.01614 0.0
C390 C 0.61967 0.17878 0.02813 0.0
C391 C 0.62993 0.18693 0.04645 0.0
H392 H 0.40227 0.57344 0.28049 0.0
H393 H 0.32614 0.54191 0.30355 0.0
H394 H 0.42034 0.58955 0.31215 0.0
H395 H 0.34411 0.55786 0.33532 0.0
H396 H 0.38477 0.61396 0.38409 0.0
H397 H 0.36739 0.59762 0.35233 0.0
H398 H 0.42523 0.57641 0.34373 0.0
H399 H 0.44344 0.59412 0.37506 0.0
C400 C 0.38939 0.56937 0.29244 0.0
C401 C 0.36279 0.55591 0.28966 0.0
C402 C 0.39974 0.57875 0.31058 0.0
C403 C 0.3837 0.57493 0.32632 0.0
C404 C 0.35705 0.56143 0.32348 0.0
C405 C 0.34673 0.55217 0.30531 0.0
C406 C 0.39381 0.60587 0.37539 0.0
C407 C 0.41508 0.60471 0.3823 0.0
C408 C 0.3837 0.59626 0.35725 0.0
C409 C 0.39467 0.58535 0.34556 0.0
C410 C 0.41628 0.58466 0.35235 0.0
C411 C 0.42644 0.59435 0.37049 0.0
H412 H 0.81518 0.45031 0.73365 0.0
H413 H 0.74336 0.37954 0.72933 0.0
H414 H 0.82073 0.45022 0.69906 0.0
H415 H 0.74831 0.37993 0.69451 0.0
H416 H 0.7856 0.37398 0.63781 0.0
H417 H 0.77566 0.37398 0.67167 0.0
H418 H 0.80329 0.45511 0.66893 0.0
H419 H 0.81367 0.45526 0.63518 0.0
C420 C 0.80072 0.43459 0.72531 0.0
C421 C 0.77924 0.41453 0.73422 0.0
C422 C 0.80362 0.43479 0.70544 0.0
C423 C 0.78501 0.41499 0.69403 0.0
C424 C 0.76316 0.39527 0.70293 0.0
C425 C 0.76024 0.39512 0.72282 0.0
C426 C 0.78928 0.39177 0.64436 0.0
C427 C 0.80064 0.41466 0.63381 0.0
C428 C 0.78348 0.39174 0.66376 0.0
C429 C 0.78891 0.41459 0.67303 0.0
C430 C 0.7993 0.43728 0.66228 0.0
C431 C 0.8051 0.43731 0.6429 0.0
H432 H 0.3909 0.76837 0.04835 0.0
H433 H 0.39915 0.84306 0.05598 0.0
H434 H 0.38335 0.77018 0.0141 0.0
H435 H 0.39275 0.84541 0.02171 0.0
H436 H 0.35761 0.83296 0.96278 0.0
H437 H 0.36007 0.82662 0.99703 0.0
H438 H 0.40762 0.79338 0.98579 0.0
H439 H 0.40479 0.79926 0.95147 0.0
C440 C 0.39124 0.78523 0.04268 0.0
C441 C 0.39629 0.80587 0.05476 0.0
C442 C 0.38708 0.78634 0.02306 0.0
C443 C 0.38764 0.80801 0.01513 0.0
C444 C 0.39208 0.82838 0.02734 0.0
C445 C 0.39628 0.82728 0.04695 0.0
C446 C 0.36837 0.82403 0.96757 0.0
C447 C 0.38114 0.81676 0.95436 0.0
C448 C 0.36991 0.82057 0.98723 0.0
C449 C 0.38426 0.80975 0.99417 0.0
C450 C 0.39625 0.8016 0.98092 0.0
C451 C 0.39471 0.80506 0.96123 0.0
H452 H 0.57832 0.33956 0.37421 0.0
H453 H 0.61249 0.41441 0.40019 0.0
H454 H 0.59092 0.35928 0.34246 0.0
H455 H 0.62515 0.43412 0.36846 0.0
H456 H 0.6736 0.45185 0.31161 0.0
H457 H 0.65735 0.4342 0.34342 0.0
H458 H 0.58152 0.38842 0.3198 0.0
H459 H 0.59777 0.40623 0.28793 0.0
C460 C 0.5883 0.36021 0.37308 0.0
C461 C 0.59415 0.37549 0.38957 0.0
C462 C 0.59535 0.37146 0.35495 0.0
C463 C 0.6089 0.39819 0.35306 0.0
C464 C 0.61468 0.41347 0.36956 0.0
C465 C 0.60722 0.4022 0.38766 0.0
C466 C 0.65341 0.43823 0.31328 0.0
C467 C 0.63686 0.43062 0.2974 0.0
C468 C 0.64412 0.42825 0.33146 0.0
C469 C 0.61819 0.41005 0.33402 0.0
C470 C 0.60159 0.40247 0.31816 0.0
C471 C 0.61081 0.41283 0.30001 0.0
H472 H 0.17016 0.6089 0.71489 0.0
H473 H 0.21117 0.56965 0.70051 0.0
H474 H 0.16855 0.61823 0.6809 0.0
H475 H 0.20941 0.57885 0.66652 0.0
H476 H 0.17743 0.57948 0.60613 0.0
H477 H 0.17439 0.56753 0.63999 0.0
H478 H 0.20459 0.64642 0.65632 0.0
H479 H 0.20779 0.65841 0.62247 0.0
C480 C 0.17835 0.60183 0.70443 0.0
C481 C 0.19051 0.58829 0.71026 0.0
C482 C 0.17765 0.60739 0.68504 0.0
C483 C 0.18877 0.59915 0.67114 0.0
C484 C 0.20048 0.58518 0.67695 0.0
C485 C 0.20159 0.58004 0.69636 0.0
C486 C 0.18295 0.59416 0.61697 0.0
C487 C 0.19255 0.61981 0.61173 0.0
C488 C 0.18146 0.58737 0.6363 0.0
C489 C 0.18917 0.60605 0.65071 0.0
C490 C 0.19829 0.63163 0.64547 0.0
C491 C 0.20023 0.63848 0.62615 0.0
loop_
_geom_bond_atom_site_label_1
_geom_bond_atom_site_label_2
_geom_bond_distance
_geom_bond_site_symmetry_2
_ccdc_geom_bond_type
O0 Cd1 2.300 . S
O0 C7 1.275 . S
Cd1 O0 2.300 . S
Cd1 O9 2.381 . S
Cd1 O10 2.378 . S
O2 Cd3 2.385 . S
O2 C7 1.255 . S
Cd3 O2 2.385 . S
Cd3 O4 2.317 . S
O4 Cd3 2.317 . S
O4 C5 1.232 . S
C5 O4 1.232 . S
C5 O6 1.218 . S
O6 C5 1.218 . S
C7 O0 1.275 . S
C7 O2 1.255 . S
C8 O9 1.258 . S
C8 O10 1.256 . S
O9 Cd1 2.381 . S
O9 C8 1.258 . S
O10 Cd1 2.378 . S
O10 C8 1.256 . S
O11 Cd12 2.300 . S
O11 C18 1.275 . S
Cd12 O11 2.300 . S
Cd12 O20 2.381 . S
Cd12 O21 2.378 . S
O13 Cd14 2.385 . S
O13 C18 1.255 . S
Cd14 O13 2.385 . S
Cd14 O15 2.317 . S
O15 Cd14 2.317 . S
O15 C16 1.232 . S
C16 O15 1.232 . S
C16 O17 1.218 . S
O17 C16 1.218 . S
C18 O11 1.275 . S
C18 O13 1.255 . S
C19 O20 1.258 . S
C19 O21 1.256 . S
O20 Cd12 2.381 . S
O20 C19 1.258 . S
O21 Cd12 2.378 . S
O21 C19 1.256 . S
O22 Cd23 2.300 . S
O22 C29 1.275 . S
Cd23 O22 2.300 . S
Cd23 O31 2.381 . S
Cd23 O32 2.378 . S
O24 Cd25 2.385 . S
O24 C29 1.255 . S
Cd25 O24 2.385 . S
Cd25 O26 2.317 . S
O26 Cd25 2.317 . S
O26 C27 1.232 . S
C27 O26 1.232 . S
C27 O28 1.218 . S
O28 C27 1.218 . S
C29 O22 1.275 . S
C29 O24 1.255 . S
C30 O31 1.258 . S
C30 O32 1.256 . S
O31 Cd23 2.381 . S
O31 C30 1.258 . S
O32 Cd23 2.378 . S
O32 C30 1.256 . S
O33 Cd34 2.300 . S
O33 C40 1.275 . S
Cd34 O33 2.300 . S
Cd34 O42 2.381 . S
Cd34 O43 2.378 . S
O35 Cd36 2.385 . S
O35 C40 1.255 . S
Cd36 O35 2.385 . S
Cd36 O37 2.317 . S
O37 Cd36 2.317 . S
O37 C38 1.232 . S
C38 O37 1.232 . S
C38 O39 1.218 . S
O39 C38 1.218 . S
C40 O33 1.275 . S
C40 O35 1.255 . S
C41 O42 1.258 . S
C41 O43 1.256 . S
O42 Cd34 2.381 . S
O42 C41 1.258 . S
O43 Cd34 2.378 . S
O43 C41 1.256 . S
O44 Cd45 2.300 . S
O44 C51 1.275 . S
Cd45 O44 2.300 . S
Cd45 O53 2.381 . S
Cd45 O54 2.378 . S
O46 Cd47 2.385 . S
O46 C51 1.255 . S
Cd47 O46 2.385 . S
Cd47 O48 2.317 . S
O48 Cd47 2.317 . S
O48 C49 1.232 . S
C49 O48 1.232 . S
C49 O50 1.218 . S
O50 C49 1.218 . S
C51 O44 1.275 . S
C51 O46 1.255 . S
C52 O53 1.258 . S
C52 O54 1.256 . S
O53 Cd45 2.381 . S
O53 C52 1.258 . S
O54 Cd45 2.378 . S
O54 C52 1.256 . S
O55 Cd56 2.300 . S
O55 C62 1.275 . S
Cd56 O55 2.300 . S
Cd56 O64 2.381 . S
Cd56 O65 2.378 . S
O57 Cd58 2.385 . S
O57 C62 1.255 . S
Cd58 O57 2.385 . S
Cd58 O59 2.317 . S
O59 Cd58 2.317 . S
O59 C60 1.232 . S
C60 O59 1.232 . S
C60 O61 1.218 . S
O61 C60 1.218 . S
C62 O55 1.275 . S
C62 O57 1.255 . S
C63 O64 1.258 . S
C63 O65 1.256 . S
O64 Cd56 2.381 . S
O64 C63 1.258 . S
O65 Cd56 2.378 . S
O65 C63 1.256 . S
O66 Cd67 2.300 . S
O66 C73 1.275 . S
Cd67 O66 2.300 . S
Cd67 O75 2.381 . S
Cd67 O76 2.378 . S
O68 Cd69 2.385 . S
O68 C73 1.255 . S
Cd69 O68 2.385 . S
Cd69 O70 2.317 . S
O70 Cd69 2.317 . S
O70 C71 1.232 . S
C71 O70 1.232 . S
C71 O72 1.218 . S
O72 C71 1.218 . S
C73 O66 1.275 . S
C73 O68 1.255 . S
C74 O75 1.258 . S
C74 O76 1.256 . S
O75 Cd67 2.381 . S
O75 C74 1.258 . S
O76 Cd67 2.378 . S
O76 C74 1.256 . S
O77 Cd78 2.300 . S
O77 C84 1.275 . S
Cd78 O77 2.300 . S
Cd78 O86 2.381 . S
Cd78 O87 2.378 . S
O79 Cd80 2.385 . S
O79 C84 1.255 . S
Cd80 O79 2.385 . S
Cd80 O81 2.317 . S
O81 Cd80 2.317 . S
O81 C82 1.232 . S
C82 O81 1.232 . S
C82 O83 1.218 . S
O83 C82 1.218 . S
C84 O77 1.275 . S
C84 O79 1.255 . S
C85 O86 1.258 . S
C85 O87 1.256 . S
O86 Cd78 2.381 . S
O86 C85 1.258 . S
O87 Cd78 2.378 . S
O87 C85 1.256 . S
O88 Cd89 2.300 . S
O88 C95 1.275 . S
Cd89 O88 2.300 . S
Cd89 O97 2.381 . S
Cd89 O98 2.378 . S
O90 Cd91 2.385 . S
O90 C95 1.255 . S
Cd91 O90 2.385 . S
Cd91 O92 2.317 . S
O92 Cd91 2.317 . S
O92 C93 1.232 . S
C93 O92 1.232 . S
C93 O94 1.218 . S
O94 C93 1.218 . S
C95 O88 1.275 . S
C95 O90 1.255 . S
C96 O97 1.258 . S
C96 O98 1.256 . S
O97 Cd89 2.381 . S
O97 C96 1.258 . S
O98 Cd89 2.378 . S
O98 C96 1.256 . S
O99 Cd100 2.300 . S
O99 C106 1.275 . S
Cd100 O99 2.300 . S
Cd100 O108 2.381 . S
Cd100 O109 2.378 . S
O101 Cd102 2.385 . S
O101 C106 1.255 . S
Cd102 O101 2.385 . S
Cd102 O103 2.317 . S
O103 Cd102 2.317 . S
O103 C104 1.232 . S
C104 O103 1.232 . S
C104 O105 1.218 . S
O105 C104 1.218 . S
C106 O99 1.275 . S
C106 O101 1.255 . S
C107 O108 1.258 . S
C107 O109 1.256 . S
O108 Cd100 2.381 . S
O108 C107 1.258 . S
O109 Cd100 2.378 . S
O109 C107 1.256 . S
O110 Cd111 2.300 . S
O110 C117 1.275 . S
Cd111 O110 2.300 . S
Cd111 O119 2.381 . S
Cd111 O120 2.378 . S
O112 Cd113 2.385 . S
O112 C117 1.255 . S
Cd113 O112 2.385 . S
Cd113 O114 2.317 . S
O114 Cd113 2.317 . S
O114 C115 1.232 . S
C115 O114 1.232 . S
C115 O116 1.218 . S
O116 C115 1.218 . S
C117 O110 1.275 . S
C117 O112 1.255 . S
C118 O119 1.258 . S
C118 O120 1.256 . S
O119 Cd111 2.381 . S
O119 C118 1.258 . S
O120 Cd111 2.378 . S
O120 C118 1.256 . S
O121 Cd122 2.300 . S
O121 C128 1.275 . S
Cd122 O121 2.300 . S
Cd122 O130 2.381 . S
Cd122 O131 2.378 . S
O123 Cd124 2.385 . S
O123 C128 1.255 . S
Cd124 O123 2.385 . S
Cd124 O125 2.317 . S
O125 Cd124 2.317 . S
O125 C126 1.232 . S
C126 O125 1.232 . S
C126 O127 1.218 . S
O127 C126 1.218 . S
C128 O121 1.275 . S
C128 O123 1.255 . S
C129 O130 1.258 . S
C129 O131 1.256 . S
O130 Cd122 2.381 . S
O130 C129 1.258 . S
O131 Cd122 2.378 . S
O131 C129 1.256 . S
H132 C140 0.950 . S
H133 C145 0.950 . S
H134 C142 0.950 . S
H135 C144 0.950 . S
H136 C146 0.950 . S
H137 C148 0.950 . S
H138 C150 0.950 . S
H139 C151 0.950 . S
C140 H132 0.950 . S
C140 C141 1.386 . S
C140 C142 1.391 . S
C141 C140 1.386 . S
C141 C145 1.393 . S
C142 H134 0.950 . S
C142 C140 1.391 . S
C142 C143 1.400 . S
C143 C142 1.400 . S
C143 C144 1.398 . S
C143 C149 1.491 . S
C144 H135 0.950 . S
C144 C143 1.398 . S
C144 C145 1.391 . S
C145 H133 0.950 . S
C145 C141 1.393 . S
C145 C144 1.391 . S
C146 H136 0.950 . S
C146 C147 1.386 . S
C146 C148 1.391 . S
C147 C146 1.386 . S
C147 C151 1.393 . S
C148 H137 0.950 . S
C148 C146 1.391 . S
C148 C149 1.400 . S
C149 C143 1.491 . S
C149 C148 1.400 . S
C149 C150 1.398 . S
C150 H138 0.950 . S
C150 C149 1.398 . S
C150 C151 1.391 . S
C151 H139 0.950 . S
C151 C147 1.393 . S
C151 C150 1.391 . S
H152 C160 0.950 . S
H153 C165 0.950 . S
H154 C162 0.950 . S
H155 C164 0.950 . S
H156 C166 0.950 . S
H157 C168 0.950 . S
H158 C170 0.950 . S
H159 C171 0.950 . S
C160 H152 0.950 . S
C160 C161 1.386 . S
C160 C162 1.391 . S
C161 C160 1.386 . S
C161 C165 1.393 . S
C162 H154 0.950 . S
C162 C160 1.391 . S
C162 C163 1.400 . S
C163 C162 1.400 . S
C163 C164 1.398 . S
C163 C169 1.491 . S
C164 H155 0.950 . S
C164 C163 1.398 . S
C164 C165 1.391 . S
C165 H153 0.950 . S
C165 C161 1.393 . S
C165 C164 1.391 . S
C166 H156 0.950 . S
C166 C167 1.386 . S
C166 C168 1.391 . S
C167 C166 1.386 . S
C167 C171 1.393 . S
C168 H157 0.950 . S
C168 C166 1.391 . S
C168 C169 1.400 . S
C169 C163 1.491 . S
C169 C168 1.400 . S
C169 C170 1.398 . S
C170 H158 0.950 . S
C170 C169 1.398 . S
C170 C171 1.391 . S
C171 H159 0.950 . S
C171 C167 1.393 . S
C171 C170 1.391 . S
H172 C180 0.950 . S
H173 C185 0.950 . S
H174 C182 0.950 . S
H175 C184 0.950 . S
H176 C186 0.950 . S
H177 C188 0.950 . S
H178 C190 0.950 . S
H179 C191 0.950 . S
C180 H172 0.950 . S
C180 C181 1.386 . S
C180 C182 1.391 . S
C181 C180 1.386 . S
C181 C185 1.393 . S
C182 H174 0.950 . S
C182 C180 1.391 . S
C182 C183 1.400 . S
C183 C182 1.400 . S
C183 C184 1.398 . S
C183 C189 1.491 . S
C184 H175 0.950 . S
C184 C183 1.398 . S
C184 C185 1.391 . S
C185 H173 0.950 . S
C185 C181 1.393 . S
C185 C184 1.391 . S
C186 H176 0.950 . S
C186 C187 1.386 . S
C186 C188 1.391 . S
C187 C186 1.386 . S
C187 C191 1.393 . S
C188 H177 0.950 . S
C188 C186 1.391 . S
C188 C189 1.400 . S
C189 C183 1.491 . S
C189 C188 1.400 . S
C189 C190 1.398 . S
C190 H178 0.950 . S
C190 C189 1.398 . S
C190 C191 1.391 . S
C191 H179 0.950 . S
C191 C187 1.393 . S
C191 C190 1.391 . S
H192 C200 0.950 . S
H193 C205 0.950 . S
H194 C202 0.950 . S
H195 C204 0.950 . S
H196 C206 0.950 . S
H197 C208 0.950 . S
H198 C210 0.950 . S
H199 C211 0.950 . S
C200 H192 0.950 . S
C200 C201 1.386 . S
C200 C202 1.391 . S
C201 C200 1.386 . S
C201 C205 1.393 . S
C202 H194 0.950 . S
C202 C200 1.391 . S
C202 C203 1.400 . S
C203 C202 1.400 . S
C203 C204 1.398 . S
C203 C209 1.491 . S
C204 H195 0.950 . S
C204 C203 1.398 . S
C204 C205 1.391 . S
C205 H193 0.950 . S
C205 C201 1.393 . S
C205 C204 1.391 . S
C206 H196 0.950 . S
C206 C207 1.386 . S
C206 C208 1.391 . S
C207 C206 1.386 . S
C207 C211 1.393 . S
C208 H197 0.950 . S
C208 C206 1.391 . S
C208 C209 1.400 . S
C209 C203 1.491 . S
C209 C208 1.400 . S
C209 C210 1.398 . S
C210 H198 0.950 . S
C210 C209 1.398 . S
C210 C211 1.391 . S
C211 H199 0.950 . S
C211 C207 1.393 . S
C211 C210 1.391 . S
H212 C220 0.950 . S
H213 C225 0.950 . S
H214 C222 0.950 . S
H215 C224 0.950 . S
H216 C226 0.950 . S
H217 C228 0.950 . S
H218 C230 0.950 . S
H219 C231 0.950 . S
C220 H212 0.950 . S
C220 C221 1.386 . S
C220 C222 1.391 . S
C221 C220 1.386 . S
C221 C225 1.393 . S
C222 H214 0.950 . S
C222 C220 1.391 . S
C222 C223 1.400 . S
C223 C222 1.400 . S
C223 C224 1.398 . S
C223 C229 1.491 . S
C224 H215 0.950 . S
C224 C223 1.398 . S
C224 C225 1.391 . S
C225 H213 0.950 . S
C225 C221 1.393 . S
C225 C224 1.391 . S
C226 H216 0.950 . S
C226 C227 1.386 . S
C226 C228 1.391 . S
C227 C226 1.386 . S
C227 C231 1.393 . S
C228 H217 0.950 . S
C228 C226 1.391 . S
C228 C229 1.400 . S
C229 C223 1.491 . S
C229 C228 1.400 . S
C229 C230 1.398 . S
C230 H218 0.950 . S
C230 C229 1.398 . S
C230 C231 1.391 . S
C231 H219 0.950 . S
C231 C227 1.393 . S
C231 C230 1.391 . S
H232 C240 0.950 . S
H233 C245 0.950 . S
H234 C242 0.950 . S
H235 C244 0.950 . S
H236 C246 0.950 . S
H237 C248 0.950 . S
H238 C250 0.950 . S
H239 C251 0.950 . S
C240 H232 0.950 . S
C240 C241 1.386 . S
C240 C242 1.391 . S
C241 C240 1.386 . S
C241 C245 1.393 . S
C242 H234 0.950 . S
C242 C240 1.391 . S
C242 C243 1.400 . S
C243 C242 1.400 . S
C243 C244 1.398 . S
C243 C249 1.491 . S
C244 H235 0.950 . S
C244 C243 1.398 . S
C244 C245 1.391 . S
C245 H233 0.950 . S
C245 C241 1.393 . S
C245 C244 1.391 . S
C246 H236 0.950 . S
C246 C247 1.386 . S
C246 C248 1.391 . S
C247 C246 1.386 . S
C247 C251 1.393 . S
C248 H237 0.950 . S
C248 C246 1.391 . S
C248 C249 1.400 . S
C249 C243 1.491 . S
C249 C248 1.400 . S
C249 C250 1.398 . S
C250 H238 0.950 . S
C250 C249 1.398 . S
C250 C251 1.391 . S
C251 H239 0.950 . S
C251 C247 1.393 . S
C251 C250 1.391 . S
H252 C260 0.950 . S
H253 C265 0.950 . S
H254 C262 0.950 . S
H255 C264 0.950 . S
H256 C266 0.950 . S
H257 C268 0.950 . S
H258 C270 0.950 . S
H259 C271 0.950 . S
C260 H252 0.950 . S
C260 C261 1.386 . S
C260 C262 1.391 . S
C261 C260 1.386 . S
C261 C265 1.393 . S
C262 H254 0.950 . S
C262 C260 1.391 . S
C262 C263 1.400 . S
C263 C262 1.400 . S
C263 C264 1.398 . S
C263 C269 1.491 1_565 S
C264 H255 0.950 . S
C264 C263 1.398 . S
C264 C265 1.391 . S
C265 H253 0.950 . S
C265 C261 1.393 . S
C265 C264 1.391 . S
C266 H256 0.950 . S
C266 C267 1.386 . S
C266 C268 1.391 . S
C267 C266 1.386 . S
C267 C271 1.393 . S
C268 H257 0.950 . S
C268 C266 1.391 . S
C268 C269 1.400 . S
C269 C263 1.491 1_545 S
C269 C268 1.400 . S
C269 C270 1.398 . S
C270 H258 0.950 . S
C270 C269 1.398 . S
C270 C271 1.391 . S
C271 H259 0.950 . S
C271 C267 1.393 . S
C271 C270 1.391 . S
H272 C280 0.950 . S
H273 C285 0.950 . S
H274 C282 0.950 . S
H275 C284 0.950 . S
H276 C286 0.950 . S
H277 C288 0.950 . S
H278 C290 0.950 . S
H279 C291 0.950 . S
C280 H272 0.950 . S
C280 C281 1.386 . S
C280 C282 1.391 . S
C281 C280 1.386 . S
C281 C285 1.393 . S
C282 H274 0.950 . S
C282 C280 1.391 . S
C282 C283 1.400 . S
C283 C282 1.400 . S
C283 C284 1.398 . S
C283 C289 1.491 . S
C284 H275 0.950 . S
C284 C283 1.398 . S
C284 C285 1.391 . S
C285 H273 0.950 . S
C285 C281 1.393 . S
C285 C284 1.391 . S
C286 H276 0.950 . S
C286 C287 1.386 . S
C286 C288 1.391 . S
C287 C286 1.386 . S
C287 C291 1.393 . S
C288 H277 0.950 . S
C288 C286 1.391 . S
C288 C289 1.400 . S
C289 C283 1.491 . S
C289 C288 1.400 . S
C289 C290 1.398 . S
C290 H278 0.950 . S
C290 C289 1.398 . S
C290 C291 1.391 . S
C291 H279 0.950 . S
C291 C287 1.393 . S
C291 C290 1.391 . S
H292 C300 0.950 . S
H293 C305 0.950 . S
H294 C302 0.950 . S
H295 C304 0.950 . S
H296 C306 0.950 . S
H297 C308 0.950 . S
H298 C310 0.950 . S
H299 C311 0.950 . S
C300 H292 0.950 . S
C300 C301 1.386 . S
C300 C302 1.391 . S
C301 C300 1.386 . S
C301 C305 1.393 . S
C302 H294 0.950 . S
C302 C300 1.391 . S
C302 C303 1.400 . S
C303 C302 1.400 . S
C303 C304 1.398 . S
C303 C309 1.491 1_655 S
C304 H295 0.950 . S
C304 C303 1.398 . S
C304 C305 1.391 . S
C305 H293 0.950 . S
C305 C301 1.393 . S
C305 C304 1.391 . S
C306 H296 0.950 . S
C306 C307 1.386 . S
C306 C308 1.391 . S
C307 C306 1.386 . S
C307 C311 1.393 . S
C308 H297 0.950 . S
C308 C306 1.391 . S
C308 C309 1.400 . S
C309 C303 1.491 1_455 S
C309 C308 1.400 . S
C309 C310 1.398 . S
C310 H298 0.950 . S
C310 C309 1.398 . S
C310 C311 1.391 . S
C311 H299 0.950 . S
C311 C307 1.393 . S
C311 C310 1.391 . S
H312 C320 0.950 . S
H313 C325 0.950 . S
H314 C322 0.950 . S
H315 C324 0.950 . S
H316 C326 0.950 . S
H317 C328 0.950 . S
H318 C330 0.950 . S
H319 C331 0.950 . S
C320 H312 0.950 . S
C320 C321 1.386 . S
C320 C322 1.391 . S
C321 C320 1.386 . S
C321 C325 1.393 . S
C322 H314 0.950 . S
C322 C320 1.391 . S
C322 C323 1.400 . S
C323 C322 1.400 . S
C323 C324 1.398 . S
C323 C329 1.491 1_455 S
C324 H315 0.950 . S
C324 C323 1.398 . S
C324 C325 1.391 . S
C325 H313 0.950 . S
C325 C321 1.393 . S
C325 C324 1.391 . S
C326 H316 0.950 . S
C326 C327 1.386 . S
C326 C328 1.391 . S
C327 C326 1.386 . S
C327 C331 1.393 . S
C328 H317 0.950 . S
C328 C326 1.391 . S
C328 C329 1.400 . S
C329 C323 1.491 1_655 S
C329 C328 1.400 . S
C329 C330 1.398 . S
C330 H318 0.950 . S
C330 C329 1.398 . S
C330 C331 1.391 . S
C331 H319 0.950 . S
C331 C327 1.393 . S
C331 C330 1.391 . S
H332 C340 0.950 . S
H333 C345 0.950 . S
H334 C342 0.950 . S
H335 C344 0.950 . S
H336 C346 0.950 . S
H337 C348 0.950 . S
H338 C350 0.950 . S
H339 C351 0.950 . S
C340 H332 0.950 . S
C340 C341 1.386 . S
C340 C342 1.391 . S
C341 C340 1.386 . S
C341 C345 1.393 . S
C342 H334 0.950 . S
C342 C340 1.391 . S
C342 C343 1.400 . S
C343 C342 1.400 . S
C343 C344 1.398 . S
C343 C349 1.491 1_565 S
C344 H335 0.950 . S
C344 C343 1.398 . S
C344 C345 1.391 . S
C345 H333 0.950 . S
C345 C341 1.393 . S
C345 C344 1.391 . S
C346 H336 0.950 . S
C346 C347 1.386 . S
C346 C348 1.391 . S
C347 C346 1.386 . S
C347 C351 1.393 . S
C348 H337 0.950 . S
C348 C346 1.391 . S
C348 C349 1.400 . S
C349 C343 1.491 1_545 S
C349 C348 1.400 . S
C349 C350 1.398 . S
C350 H338 0.950 . S
C350 C349 1.398 . S
C350 C351 1.391 . S
C351 H339 0.950 . S
C351 C347 1.393 . S
C351 C350 1.391 . S
H352 C360 0.950 . S
H353 C365 0.950 . S
H354 C362 0.950 . S
H355 C364 0.950 . S
H356 C366 0.950 . S
H357 C368 0.950 . S
H358 C370 0.950 . S
H359 C371 0.950 . S
C360 H352 0.950 . S
C360 C361 1.386 . S
C360 C362 1.391 . S
C361 C360 1.386 . S
C361 C365 1.393 . S
C362 H354 0.950 . S
C362 C360 1.391 . S
C362 C363 1.400 . S
C363 C362 1.400 . S
C363 C364 1.398 . S
C363 C369 1.491 . S
C364 H355 0.950 . S
C364 C363 1.398 . S
C364 C365 1.391 . S
C365 H353 0.950 . S
C365 C361 1.393 . S
C365 C364 1.391 . S
C366 H356 0.950 . S
C366 C367 1.386 . S
C366 C368 1.391 . S
C367 C366 1.386 . S
C367 C371 1.393 . S
C368 H357 0.950 . S
C368 C366 1.391 . S
C368 C369 1.400 . S
C369 C363 1.491 . S
C369 C368 1.400 . S
C369 C370 1.398 . S
C370 H358 0.950 . S
C370 C369 1.398 . S
C370 C371 1.391 . S
C371 H359 0.950 . S
C371 C367 1.393 . S
C371 C370 1.391 . S
H372 C380 0.950 . S
H373 C385 0.950 . S
H374 C382 0.950 . S
H375 C384 0.950 . S
H376 C386 0.950 . S
H377 C388 0.950 . S
H378 C390 0.950 . S
H379 C391 0.950 . S
C380 H372 0.950 . S
C380 C381 1.386 . S
C380 C382 1.391 . S
C381 C380 1.386 . S
C381 C385 1.393 . S
C382 H374 0.950 . S
C382 C380 1.391 . S
C382 C383 1.400 . S
C383 C382 1.400 . S
C383 C384 1.398 . S
C383 C389 1.491 1_556 S
C384 H375 0.950 . S
C384 C383 1.398 . S
C384 C385 1.391 . S
C385 H373 0.950 . S
C385 C381 1.393 . S
C385 C384 1.391 . S
C386 H376 0.950 . S
C386 C387 1.386 . S
C386 C388 1.391 . S
C387 C386 1.386 . S
C387 C391 1.393 . S
C388 H377 0.950 . S
C388 C386 1.391 . S
C388 C389 1.400 . S
C389 C383 1.491 1_554 S
C389 C388 1.400 . S
C389 C390 1.398 . S
C390 H378 0.950 . S
C390 C389 1.398 . S
C390 C391 1.391 . S
C391 H379 0.950 . S
C391 C387 1.393 . S
C391 C390 1.391 . S
H392 C400 0.950 . S
H393 C405 0.950 . S
H394 C402 0.950 . S
H395 C404 0.950 . S
H396 C406 0.950 . S
H397 C408 0.950 . S
H398 C410 0.950 . S
H399 C411 0.950 . S
C400 H392 0.950 . S
C400 C401 1.386 . S
C400 C402 1.391 . S
C401 C400 1.386 . S
C401 C405 1.393 . S
C402 H394 0.950 . S
C402 C400 1.391 . S
C402 C403 1.400 . S
C403 C402 1.400 . S
C403 C404 1.398 . S
C403 C409 1.491 . S
C404 H395 0.950 . S
C404 C403 1.398 . S
C404 C405 1.391 . S
C405 H393 0.950 . S
C405 C401 1.393 . S
C405 C404 1.391 . S
C406 H396 0.950 . S
C406 C407 1.386 . S
C406 C408 1.391 . S
C407 C406 1.386 . S
C407 C411 1.393 . S
C408 H397 0.950 . S
C408 C406 1.391 . S
C408 C409 1.400 . S
C409 C403 1.491 . S
C409 C408 1.400 . S
C409 C410 1.398 . S
C410 H398 0.950 . S
C410 C409 1.398 . S
C410 C411 1.391 . S
C411 H399 0.950 . S
C411 C407 1.393 . S
C411 C410 1.391 . S
H412 C420 0.950 . S
H413 C425 0.950 . S
H414 C422 0.950 . S
H415 C424 0.950 . S
H416 C426 0.950 . S
H417 C428 0.950 . S
H418 C430 0.950 . S
H419 C431 0.950 . S
C420 H412 0.950 . S
C420 C421 1.386 . S
C420 C422 1.391 . S
C421 C420 1.386 . S
C421 C425 1.393 . S
C422 H414 0.950 . S
C422 C420 1.391 . S
C422 C423 1.400 . S
C423 C422 1.400 . S
C423 C424 1.398 . S
C423 C429 1.491 . S
C424 H415 0.950 . S
C424 C423 1.398 . S
C424 C425 1.391 . S
C425 H413 0.950 . S
C425 C421 1.393 . S
C425 C424 1.391 . S
C426 H416 0.950 . S
C426 C427 1.386 . S
C426 C428 1.391 . S
C427 C426 1.386 . S
C427 C431 1.393 . S
C428 H417 0.950 . S
C428 C426 1.391 . S
C428 C429 1.400 . S
C429 C423 1.491 . S
C429 C428 1.400 . S
C429 C430 1.398 . S
C430 H418 0.950 . S
C430 C429 1.398 . S
C430 C431 1.391 . S
C431 H419 0.950 . S
C431 C427 1.393 . S
C431 C430 1.391 . S
H432 C440 0.950 . S
H433 C445 0.950 . S
H434 C442 0.950 . S
H435 C444 0.950 . S
H436 C446 0.950 . S
H437 C448 0.950 . S
H438 C450 0.950 . S
H439 C451 0.950 . S
C440 H432 0.950 . S
C440 C441 1.386 . S
C440 C442 1.391 . S
C441 C440 1.386 . S
C441 C445 1.393 . S
C442 H434 0.950 . S
C442 C440 1.391 . S
C442 C443 1.400 . S
C443 C442 1.400 . S
C443 C444 1.398 . S
C443 C449 1.491 1_554 S
C444 H435 0.950 . S
C444 C443 1.398 . S
C444 C445 1.391 . S
C445 H433 0.950 . S
C445 C441 1.393 . S
C445 C444 1.391 . S
C446 H436 0.950 . S
C446 C447 1.386 . S
C446 C448 1.391 . S
C447 C446 1.386 . S
C447 C451 1.393 . S
C448 H437 0.950 . S
C448 C446 1.391 . S
C448 C449 1.400 . S
C449 C443 1.491 1_556 S
C449 C448 1.400 . S
C449 C450 1.398 . S
C450 H438 0.950 . S
C450 C449 1.398 . S
C450 C451 1.391 . S
C451 H439 0.950 . S
C451 C447 1.393 . S
C451 C450 1.391 . S
H452 C460 0.950 . S
H453 C465 0.950 . S
H454 C462 0.950 . S
H455 C464 0.950 . S
H456 C466 0.950 . S
H457 C468 0.950 . S
H458 C470 0.950 . S
H459 C471 0.950 . S
C460 H452 0.950 . S
C460 C461 1.386 . S
C460 C462 1.391 . S
C461 C460 1.386 . S
C461 C465 1.393 . S
C462 H454 0.950 . S
C462 C460 1.391 . S
C462 C463 1.400 . S
C463 C462 1.400 . S
C463 C464 1.398 . S
C463 C469 1.491 . S
C464 H455 0.950 . S
C464 C463 1.398 . S
C464 C465 1.391 . S
C465 H453 0.950 . S
C465 C461 1.393 . S
C465 C464 1.391 . S
C466 H456 0.950 . S
C466 C467 1.386 . S
C466 C468 1.391 . S
C467 C466 1.386 . S
C467 C471 1.393 . S
C468 H457 0.950 . S
C468 C466 1.391 . S
C468 C469 1.400 . S
C469 C463 1.491 . S
C469 C468 1.400 . S
C469 C470 1.398 . S
C470 H458 0.950 . S
C470 C469 1.398 . S
C470 C471 1.391 . S
C471 H459 0.950 . S
C471 C467 1.393 . S
C471 C470 1.391 . S
H472 C480 0.950 . S
H473 C485 0.950 . S
H474 C482 0.950 . S
H475 C484 0.950 . S
H476 C486 0.950 . S
H477 C488 0.950 . S
H478 C490 0.950 . S
H479 C491 0.950 . S
C480 H472 0.950 . S
C480 C481 1.386 . S
C480 C482 1.391 . S
C481 C480 1.386 . S
C481 C485 1.393 . S
C482 H474 0.950 . S
C482 C480 1.391 . S
C482 C483 1.400 . S
C483 C482 1.400 . S
C483 C484 1.398 . S
C483 C489 1.491 . S
C484 H475 0.950 . S
C484 C483 1.398 . S
C484 C485 1.391 . S
C485 H473 0.950 . S
C485 C481 1.393 . S
C485 C484 1.391 . S
C486 H476 0.950 . S
C486 C487 1.386 . S
C486 C488 1.391 . S
C487 C486 1.386 . S
C487 C491 1.393 . S
C488 H477 0.950 . S
C488 C486 1.391 . S
C488 C489 1.400 . S
C489 C483 1.491 . S
C489 C488 1.400 . S
C489 C490 1.398 . S
C490 H478 0.950 . S
C490 C489 1.398 . S
C490 C491 1.391 . S
C491 H479 0.950 . S
C491 C487 1.393 . S
C491 C490 1.391 . S
C141 C96 1.556 . S
C147 C8 1.541 . S
C161 C19 1.545 . S
C167 C107 1.557 . S
C181 C118 1.539 . S
C187 C30 1.550 . S
C201 C129 1.556 . S
C207 C41 1.542 . S
C221 C74 1.557 . S
C227 C52 1.549 . S
C241 C63 1.557 . S
C247 C85 1.543 . S
C261 C38 1.267 . S
C267 C5 1.245 . S
C281 C49 1.255 . S
C287 C16 1.286 . S
C301 C27 1.278 . S
C307 C60 1.299 . S
C321 C104 1.294 . S
C327 C71 1.296 . S
C341 C82 1.245 . S
C347 C115 1.252 . S
C361 C126 1.277 . S
C367 C93 1.299 . S
C381 C117 1.480 . S
C387 C7 1.482 . S
C401 C128 1.481 . S
C407 C18 1.480 . S
C421 C29 1.480 . S
C427 C73 1.482 . S
C441 C40 1.510 . S
C447 C84 1.512 . S
C461 C51 1.492 . S
C467 C95 1.485 . S
C481 C62 1.500 . S
C487 C106 1.507 . S
