# Generated by pormake.
# Topology snz, (6)-cn, num edge types: 1
# Building blocks:
#     Node 0, Type 0, BuildingBlock: KUMJIN_clean_sbu_0, # of connection points: 6
#     Node 1, Type 0, BuildingBlock: KUMJIN_clean_sbu_0, # of connection points: 6
#     Node 2, Type 0, BuildingBlock: KUMJIN_clean_sbu_0, # of connection points: 6
#     Node 3, Type 0, BuildingBlock: KUMJIN_clean_sbu_0, # of connection points: 6
#     Node 4, Type 0, BuildingBlock: KUMJIN_clean_sbu_0, # of connection points: 6
#     Node 5, Type 0, BuildingBlock: KUMJIN_clean_sbu_0, # of connection points: 6
#     Node 6, Type 0, BuildingBlock: KUMJIN_clean_sbu_0, # of connection points: 6
#     Node 7, Type 0, BuildingBlock: KUMJIN_clean_sbu_0, # of connection points: 6
#     Node 8, Type 0, BuildingBlock: KUMJIN_clean_sbu_0, # of connection points: 6
#     Edge 9, Type (0, 0), BuildingBlock: KIFKEQ_clean_linker_1, # of connection points: 2
#     Edge 10, Type (0, 0), BuildingBlock: KIFKEQ_clean_linker_1, # of connection points: 2
#     Edge 11, Type (0, 0), BuildingBlock: KIFKEQ_clean_linker_1, # of connection points: 2
#     Edge 12, Type (0, 0), BuildingBlock: KIFKEQ_clean_linker_1, # of connection points: 2
#     Edge 13, Type (0, 0), BuildingBlock: KIFKEQ_clean_linker_1, # of connection points: 2
#     Edge 14, Type (0, 0), BuildingBlock: KIFKEQ_clean_linker_1, # of connection points: 2
#     Edge 15, Type (0, 0), BuildingBlock: KIFKEQ_clean_linker_1, # of connection points: 2
#     Edge 16, Type (0, 0), BuildingBlock: KIFKEQ_clean_linker_1, # of connection points: 2
#     Edge 17, Type (0, 0), BuildingBlock: KIFKEQ_clean_linker_1, # of connection points: 2
#     Edge 18, Type (0, 0), BuildingBlock: KIFKEQ_clean_linker_1, # of connection points: 2
#     Edge 19, Type (0, 0), BuildingBlock: KIFKEQ_clean_linker_1, # of connection points: 2
#     Edge 20, Type (0, 0), BuildingBlock: KIFKEQ_clean_linker_1, # of connection points: 2
#     Edge 21, Type (0, 0), BuildingBlock: KIFKEQ_clean_linker_1, # of connection points: 2
#     Edge 22, Type (0, 0), BuildingBlock: KIFKEQ_clean_linker_1, # of connection points: 2
#     Edge 23, Type (0, 0), BuildingBlock: KIFKEQ_clean_linker_1, # of connection points: 2
#     Edge 24, Type (0, 0), BuildingBlock: KIFKEQ_clean_linker_1, # of connection points: 2
#     Edge 25, Type (0, 0), BuildingBlock: KIFKEQ_clean_linker_1, # of connection points: 2
#     Edge 26, Type (0, 0), BuildingBlock: KIFKEQ_clean_linker_1, # of connection points: 2
#     Edge 27, Type (0, 0), BuildingBlock: KIFKEQ_clean_linker_1, # of connection points: 2
#     Edge 28, Type (0, 0), BuildingBlock: KIFKEQ_clean_linker_1, # of connection points: 2
#     Edge 29, Type (0, 0), BuildingBlock: KIFKEQ_clean_linker_1, # of connection points: 2
#     Edge 30, Type (0, 0), BuildingBlock: KIFKEQ_clean_linker_1, # of connection points: 2
#     Edge 31, Type (0, 0), BuildingBlock: KIFKEQ_clean_linker_1, # of connection points: 2
#     Edge 32, Type (0, 0), BuildingBlock: KIFKEQ_clean_linker_1, # of connection points: 2
#     Edge 33, Type (0, 0), BuildingBlock: KIFKEQ_clean_linker_1, # of connection points: 2
#     Edge 34, Type (0, 0), BuildingBlock: KIFKEQ_clean_linker_1, # of connection points: 2
#     Edge 35, Type (0, 0), BuildingBlock: KIFKEQ_clean_linker_1, # of connection points: 2
# Relax obj value: 0.273
# Max RMSD: 0.305
# Mean RMSD: 0.206
data_MOF--net-snz--node1-KUMJIN_clean_sbu_0--edge1-KIFKEQ_clean_linker_1
_symmetry_space_group_name_H-M    P1
_symmetry_Int_Tables_number       1
_symmetry_cell_setting            triclinic
loop_
_symmetry_equiv_pos_as_xyz
'x, y, z'
_cell_length_a     61.560183
_cell_length_b     56.578483
_cell_length_c     16.821335
_cell_angle_alpha  93.664465
_cell_angle_beta   94.556746
_cell_angle_gamma 120.53456
loop_
_atom_site_label
_atom_site_type_symbol
_atom_site_fract_x
_atom_site_fract_y
_atom_site_fract_z
_atom_type_partial_charge
Eu0 Eu 0.11541 0.48196 0.24347 0.0
C1 C 0.00566 0.43022 0.29319 0.0
C2 C 0.98519 0.38929 0.1962 0.0
C3 C 0.96847 0.38835 0.32268 0.0
C4 C 0.00488 0.41687 0.22092 0.0
C5 C 0.98663 0.41659 0.34304 0.0
C6 C 0.96776 0.37468 0.24917 0.0
C7 C 1.00143 0.4609 0.41885 0.0
N8 N 0.02284 0.45768 0.30888 0.0
C9 C 0.0199 0.47343 0.36744 0.0
C10 C 0.98524 0.43222 0.40816 0.0
Eu11 Eu 0.05414 0.47807 0.22011 0.0
N12 N 0.02148 0.43198 0.17059 0.0
C13 C 0.01791 0.42161 0.09195 0.0
C14 C 0.98264 0.37788 0.11731 0.0
C15 C 0.99868 0.39437 0.06437 0.0
H16 H 0.03248 0.49562 0.37608 0.0
H17 H 0.9964 0.38605 1.0025 0.0
H18 H 0.95281 0.35331 0.23198 0.0
H19 H 0.99979 0.47336 0.46682 0.0
H20 H 0.03028 0.43404 1.05054 0.0
H21 H 0.16821 0.56293 0.50237 0.0
H22 H 0.96775 0.35681 0.09583 0.0
H23 H 0.14254 0.48002 0.07454 0.0
H24 H 0.13998 0.51603 0.43794 0.0
H25 H 0.17223 0.51279 0.99146 0.0
H26 H 0.95401 0.37735 0.36098 0.0
H27 H 0.19327 0.60042 0.42178 0.0
H28 H 0.20743 0.61456 0.28878 0.0
H29 H 0.97083 0.42258 0.44766 0.0
H30 H 0.20828 0.60091 0.14802 0.0
N31 N 0.1461 0.52601 0.31772 0.0
C32 C 0.14952 0.53175 0.39979 0.0
C33 C 0.18035 0.57965 0.39215 0.0
C34 C 0.17876 0.57333 0.30953 0.0
C35 C 0.16621 0.55857 0.43773 0.0
C36 C 0.16156 0.54589 0.2737 0.0
H37 H 0.19579 0.56292 1.03735 0.0
N38 N 0.1471 0.51126 0.16422 0.0
C39 C 0.16921 0.52037 1.04772 0.0
C40 C 0.16188 0.53831 0.19427 0.0
C41 C 0.15219 0.50187 0.09505 0.0
C42 C 0.1824 0.54861 0.07372 0.0
C43 C 0.17958 0.55783 0.14912 0.0
O44 O 0.13032 0.45623 0.1981 0.0
O45 O 0.0741 0.45537 0.19455 0.0
O46 O 0.06113 0.47072 0.35643 0.0
O47 O 0.10289 0.48052 0.37342 0.0
O48 O 0.08845 0.43821 0.26989 0.0
O49 O 0.13916 0.4724 0.32301 0.0
O50 O 0.04374 0.5101 0.22236 0.0
O51 O 0.0968 0.50763 0.23561 0.0
O52 O 0.10308 0.47715 0.10165 0.0
O53 O 0.06718 0.48111 0.08991 0.0
O54 O 0.07546 0.51621 0.3091 0.0
O55 O 0.0307 0.48046 0.11909 0.0
C56 C 0.06882 0.4331 0.22246 0.0
C57 C 0.1678 0.4608 0.2705 0.0
C58 C 0.19699 0.44352 0.30068 0.0
C59 C 0.17208 0.43944 0.29246 0.0
C60 C 0.21714 0.46909 0.28469 0.0
C61 C 0.18848 0.48592 0.25564 0.0
C62 C 0.21289 0.48991 0.26228 0.0
C63 C 0.08171 0.47513 0.40512 0.0
C64 C 0.14212 0.45748 0.26759 0.0
C65 C 0.19501 0.58558 0.18244 0.0
C66 C 0.19459 0.59333 0.26261 0.0
C67 C 0.09798 0.52505 0.29066 0.0
C68 C 1.00332 0.49637 0.1521 0.0
C69 C 0.9962 0.51341 0.1132 0.0
C70 C 0.97102 0.50831 0.11134 0.0
C71 C 0.9538 0.48671 0.15186 0.0
C72 C 0.98509 0.47431 0.18799 0.0
C73 C 0.96073 0.46981 0.18903 0.0
C74 C 0.08524 0.4791 1.05521 0.0
C75 C 0.02929 0.50066 0.15383 0.0
H76 H 0.15622 0.42007 0.30497 0.0
H77 H 0.23636 0.47297 0.28868 0.0
H78 H 0.1858 0.50259 0.23968 0.0
H79 H 0.22871 0.5094 0.25041 0.0
H80 H 0.00993 0.52999 0.08311 0.0
H81 H 0.93472 0.48268 0.1548 0.0
H82 H 0.98955 0.4603 0.21484 0.0
H83 H 0.94704 0.45296 0.21834 0.0
Eu84 Eu 0.61611 0.53592 0.08897 0.0
C85 C 0.67578 0.47952 0.16756 0.0
C86 C 0.70912 0.49775 0.08263 0.0
C87 C 0.71774 0.48794 0.21589 0.0
C88 C 0.68411 0.48971 0.09703 0.0
C89 C 0.69212 0.47721 0.22626 0.0
C90 C 0.72625 0.49822 0.14395 0.0
C91 C 0.65564 0.44915 0.29266 0.0
N92 N 0.65079 0.46848 0.17393 0.0
C93 C 0.64026 0.45187 0.23261 0.0
C94 C 0.68183 0.46256 0.29076 0.0
Eu95 Eu 0.62614 0.47728 0.07662 0.0
N96 N 0.66677 0.4882 1.0386 0.0
C97 C 0.67241 0.49055 0.96122 0.0
C98 C 0.71563 0.50315 1.00546 0.0
C99 C 0.69692 0.49862 0.94392 0.0
H100 H 0.61999 0.44166 0.23497 0.0
H101 H 0.70127 0.50124 0.88288 0.0
H102 H 0.74566 0.50493 0.13452 0.0
H103 H 0.64727 0.43682 0.34048 0.0
H104 H 0.65844 0.4864 0.91151 0.0
H105 H 0.54095 0.51351 0.28091 0.0
H106 H 0.73457 0.50925 0.992 0.0
H107 H 0.62289 0.5719 0.93124 0.0
H108 H 0.58372 0.52741 0.25241 0.0
H109 H 0.59597 0.57682 0.82448 0.0
H110 H 0.7307 0.48688 0.26099 0.0
H111 H 0.5079 0.50562 0.17155 0.0
H112 H 0.49696 0.50941 1.02797 0.0
H113 H 0.69371 0.46027 0.33695 0.0
H114 H 0.5122 0.52695 0.90126 0.0
N115 N 0.57531 0.52491 0.12515 0.0
C116 C 0.56975 0.52324 0.20264 0.0
C117 C 0.52675 0.51128 0.158 0.0
C118 C 0.53325 0.51609 0.08052 0.0
C119 C 0.54535 0.51575 0.21981 0.0
C120 C 0.55816 0.52355 0.06629 0.0
H121 H 0.54945 0.55331 0.82612 0.0
N122 N 0.59174 0.54458 0.99015 0.0
C123 C 0.58739 0.56431 0.87176 0.0
C124 C 0.5667 0.5336 0.99576 0.0
C125 C 0.60255 0.56151 0.93238 0.0
C126 C 0.56114 0.55086 0.87259 0.0
C127 C 0.55059 0.53613 0.93671 0.0
O128 O 0.62698 0.57966 0.09898 0.0
O129 O 0.64556 0.52347 0.0868 0.0
O130 O 0.63033 0.49173 0.21707 0.0
O131 O 0.61747 0.52391 0.22143 0.0
O132 O 0.65039 0.55567 1.02249 0.0
O133 O 0.63968 0.56472 0.19529 0.0
O134 O 0.61293 0.43332 0.07132 0.0
O135 O 0.59685 0.48985 0.08021 0.0
O136 O 0.61269 0.522 0.94851 0.0
O137 O 0.6245 0.48893 0.94393 0.0
O138 O 0.59214 0.45757 0.14396 0.0
O139 O 0.60141 0.4479 0.9712 0.0
C140 C 0.65999 0.54097 1.04252 0.0
C141 C 0.66729 0.61105 0.17327 0.0
C142 C 0.69608 0.66131 0.19819 0.0
C143 C 0.67124 0.63784 0.18912 0.0
C144 C 0.71666 0.65749 0.18881 0.0
C145 C 0.68829 0.60796 0.16582 0.0
C146 C 0.71274 0.63104 0.17272 0.0
C147 C 0.62437 0.50815 0.25993 0.0
C148 C 0.64144 0.58639 0.16698 0.0
C149 C 0.52498 0.52572 0.94665 0.0
C150 C 0.51631 0.51573 1.01875 0.0
C151 C 0.58242 0.47213 0.12402 0.0
C152 C 0.60227 0.40653 0.94577 0.0
C153 C 0.58012 0.3816 0.91229 0.0
C154 C 0.58163 0.36046 0.86784 0.0
C155 C 0.60607 0.36545 0.85683 0.0
C156 C 0.62615 0.41095 0.9325 0.0
C157 C 0.62796 0.39054 0.88789 0.0
C158 C 0.61822 0.50519 0.90562 0.0
C159 C 0.60018 0.42656 1.00016 0.0
H160 H 0.65515 0.64033 0.19644 0.0
H161 H 0.73588 0.67505 0.19378 0.0
H162 H 0.68586 0.58767 0.1556 0.0
H163 H 0.72876 0.62838 0.16627 0.0
H164 H 0.56183 0.37879 0.92204 0.0
H165 H 0.60856 0.34982 0.82588 0.0
H166 H 0.64337 0.42987 0.95829 0.0
H167 H 0.6465 0.3939 0.87891 0.0
Eu168 Eu 0.5688 0.02593 0.86727 0.0
C169 C 0.61704 0.14586 0.9987 0.0
C170 C 0.59249 0.15993 0.91632 0.0
C171 C 0.60846 0.18055 1.05506 0.0
C172 C 0.60301 0.14303 0.9264 0.0
C173 C 0.62077 0.16549 0.06268 0.0
C174 C 0.59432 0.17776 0.98195 0.0
C175 C 0.65169 0.15716 0.13199 0.0
N176 N 0.62918 0.13151 1.00361 0.0
C177 C 0.6474 0.13795 0.06709 0.0
C178 C 0.63784 0.17049 0.13069 0.0
Eu179 Eu 0.61867 0.09735 0.89405 0.0
N180 N 0.60215 0.12614 0.86348 0.0
C181 C 0.59426 0.12814 0.78725 0.0
C182 C 0.5819 0.15974 0.83944 0.0
C183 C 0.58353 0.14446 0.7743 0.0
H184 H 0.65816 0.1277 0.06878 0.0
H185 H 0.5764 0.14509 0.71403 0.0
H186 H 0.58598 0.19052 0.9756 0.0
H187 H 0.66559 0.16159 0.18307 0.0
H188 H 0.59524 0.11656 0.73587 0.0
H189 H 0.59302 0.965 1.05576 0.0
H190 H 0.57366 0.17242 0.82916 0.0
H191 H 0.53068 0.99743 0.68864 0.0
H192 H 0.58111 0.99915 1.02761 0.0
H193 H 0.52333 0.96381 0.574 0.0
H194 H 0.61076 0.19537 0.10402 0.0
H195 H 0.59751 0.93789 0.94403 0.0
H196 H 0.59114 0.92383 0.79589 0.0
H197 H 0.64127 0.18545 0.18094 0.0
H198 H 0.57177 0.92354 0.66209 0.0
N199 N 0.58087 0.99362 0.90079 0.0
C200 C 0.58357 0.9882 0.97789 0.0
C201 C 0.59267 0.95329 0.93118 0.0
C202 C 0.58694 0.95659 0.85208 0.0
C203 C 0.59002 0.96845 0.99434 0.0
C204 C 0.58017 0.97657 0.83867 0.0
H205 H 0.54533 0.93747 0.57959 0.0
N206 N 0.55803 0.99173 0.75696 0.0
C207 C 0.53635 0.9672 0.62661 0.0
C208 C 0.56858 0.97582 0.76389 0.0
C209 C 0.54062 0.98631 0.69182 0.0
C210 C 0.54894 0.95253 0.62979 0.0
C211 C 0.56448 0.95592 0.70013 0.0
O212 O 0.53421 0.98696 0.8783 0.0
O213 O 0.57578 0.06907 0.87118 0.0
O214 O 0.60624 0.08766 1.0251 0.0
O215 O 0.58113 0.03965 1.00825 0.0
O216 O 0.54823 0.03942 0.78233 0.0
O217 O 0.5401 0.02495 0.93849 0.0
O218 O 0.65203 0.10001 0.84446 0.0
O219 O 0.61075 0.05407 0.89203 0.0
O220 O 0.5816 0.03618 0.73675 0.0
O221 O 0.60751 0.08406 0.75327 0.0
O222 O 0.63953 0.08401 0.97874 0.0
O223 O 0.65036 0.13662 0.86793 0.0
C224 C 0.55921 0.06497 0.81225 0.0
C225 C 0.49769 0.98714 0.91162 0.0
C226 C 0.45682 0.96231 0.96389 0.0
C227 C 0.48353 0.97518 0.97431 0.0
C228 C 0.44469 0.96243 0.88932 0.0
C229 C 0.48532 0.98721 0.8382 0.0
C230 C 0.45889 0.97498 0.82743 0.0
C231 C 0.59321 0.06373 1.05714 0.0
C232 C 0.52518 0.9983 0.92435 0.0
C233 C 0.5743 0.93856 0.71079 0.0
C234 C 0.5854 0.93878 0.78695 0.0
C235 C 0.6276 0.05827 0.94969 0.0
C236 C 0.69173 0.14211 0.88749 0.0
C237 C 0.71052 0.13735 0.85859 0.0
C238 C 0.7361 0.15232 0.8971 0.0
C239 C 0.7424 0.17212 0.96338 0.0
C240 C 0.69921 0.16241 0.95335 0.0
C241 C 0.7242 0.17711 0.99086 0.0
C242 C 0.59487 0.06002 0.70457 0.0
C243 C 0.66459 0.12678 0.84886 0.0
H244 H 0.49354 0.97593 1.03129 0.0
H245 H 0.42419 0.95238 0.87793 0.0
H246 H 0.49603 0.9964 0.78933 0.0
H247 H 0.44931 0.97485 0.77044 0.0
H248 H 0.70526 0.12201 0.80743 0.0
H249 H 0.76172 0.18418 0.99366 0.0
H250 H 0.6858 0.16727 0.97591 0.0
H251 H 0.72955 0.19264 1.04151 0.0
Eu252 Eu 0.80973 0.9049 0.37072 0.0
C253 C 0.7046 0.85044 0.30699 0.0
C254 C 0.68395 0.84838 0.17581 0.0
C255 C 0.66585 0.80809 0.24773 0.0
C256 C 0.70431 0.86272 0.23874 0.0
C257 C 0.68509 0.82307 0.31263 0.0
C258 C 0.6652 0.82076 0.17957 0.0
C259 C 0.70386 0.82788 0.44847 0.0
N260 N 0.72332 0.86558 0.36919 0.0
C261 C 0.72282 0.85485 0.4401 0.0
C262 C 0.6851 0.81178 0.38413 0.0
Eu263 Eu 0.75497 0.91122 0.349 0.0
N264 N 0.72266 0.88943 0.23674 0.0
C265 C 0.7197 0.90406 0.17941 0.0
C266 C 0.68229 0.86266 0.11294 0.0
C267 C 0.6999 0.89082 0.11586 0.0
H268 H 0.73724 0.86654 0.49027 0.0
H269 H 0.6982 0.90239 0.06943 0.0
H270 H 0.64966 0.80933 0.13128 0.0
H271 H 0.70389 0.81945 0.50442 0.0
H272 H 0.73314 0.92598 0.18173 0.0
H273 H 0.87126 0.99596 0.59445 0.0
H274 H 0.66687 0.85244 0.06386 0.0
H275 H 0.82774 0.88319 0.21277 0.0
H276 H 0.8344 0.95085 0.54525 0.0
H277 H 0.86234 0.90183 0.12759 0.0
H278 H 0.6509 0.78698 0.25074 0.0
H279 H 0.90472 0.02042 0.50839 0.0
H280 H 0.92236 0.02 0.37979 0.0
H281 H 0.67048 0.79085 0.39075 0.0
H282 H 0.91994 0.99447 0.2523 0.0
N283 N 0.84576 0.94847 0.42935 0.0
C284 C 0.84854 0.96042 0.50585 0.0
C285 C 0.88845 1.00022 0.48588 0.0
C286 C 0.88642 0.98739 0.40965 0.0
C287 C 0.86966 0.98643 0.53469 0.0
C288 C 0.86474 0.96107 0.38301 0.0
H289 H 0.89799 0.95022 0.15886 0.0
N290 N 0.84326 0.92087 0.29005 0.0
C291 C 0.86281 0.9148 0.17865 0.0
C292 C 0.8634 0.94684 0.3111 0.0
C293 C 0.84328 0.90431 0.22709 0.0
C294 C 0.88283 0.94214 0.19633 0.0
C295 C 0.88362 0.95835 0.26418 0.0
O296 O 0.80065 0.87055 0.44202 0.0
O297 O 0.76734 0.88056 0.35145 0.0
O298 O 0.76585 0.91479 0.49096 0.0
O299 O 0.79998 0.90761 0.50276 0.0
O300 O 0.78578 0.8711 0.26921 0.0
O301 O 0.83574 0.88934 0.39343 0.0
O302 O 0.72841 0.91551 0.41943 0.0
O303 O 0.79655 0.9344 0.39533 0.0
O304 O 0.80378 0.91208 0.23252 0.0
O305 O 0.76465 0.90936 0.21606 0.0
O306 O 0.7846 0.95207 0.31242 0.0
O307 O 0.74658 0.9442 0.33522 0.0
C308 C 0.7639 0.86379 0.29121 0.0
C309 C 0.81587 0.84115 0.40486 0.0
C310 C 0.8134 0.79773 0.4348 0.0
C311 C 0.81881 0.82483 0.46047 0.0
C312 C 0.80511 0.78761 0.35268 0.0
C313 C 0.80758 0.83017 0.32379 0.0
C314 C 0.80216 0.80363 0.29814 0.0
C315 C 0.78293 0.91154 0.53731 0.0
C316 C 0.82055 0.86914 0.43118 0.0
C317 C 0.90442 0.98516 0.28811 0.0
C318 C 0.9058 0.99967 0.36072 0.0
C319 C 0.80382 0.9558 0.35981 0.0
C320 C 0.70285 0.92781 0.33788 0.0
C321 C 0.70087 0.94648 0.28963 0.0
C322 C 0.67746 0.93903 0.24402 0.0
C323 C 0.65608 0.91291 0.24881 0.0
C324 C 0.68096 0.90195 0.34114 0.0
C325 C 0.65786 0.89466 0.29703 0.0
C326 C 0.78481 0.91154 0.18412 0.0
C327 C 0.72799 0.93408 0.37831 0.0
H328 H 0.82496 0.83309 0.52333 0.0
H329 H 0.80131 0.76738 0.32974 0.0
H330 H 0.80531 0.84209 0.27987 0.0
H331 H 0.79579 0.79545 0.23531 0.0
H332 H 0.71764 0.96633 0.28569 0.0
H333 H 0.63776 0.90664 0.21598 0.0
H334 H 0.6817 0.88699 0.37654 0.0
H335 H 0.64121 0.87462 0.29985 0.0
Eu336 Eu 0.17373 0.78821 0.43572 0.0
C337 C 0.244 0.7638 0.56713 0.0
C338 C 0.25892 0.79436 0.69242 0.0
C339 C 0.25428 0.74909 0.69042 0.0
C340 C 0.24974 0.78853 0.60957 0.0
C341 C 0.24697 0.74418 0.60702 0.0
C342 C 0.26037 0.77419 0.73298 0.0
C343 C 0.23967 0.71847 0.47788 0.0
N344 N 0.23785 0.76004 0.48607 0.0
C345 C 0.23756 0.73878 0.44105 0.0
C346 C 0.24383 0.72085 0.56141 0.0
Eu347 Eu 0.23258 0.79491 0.43026 0.0
N348 N 0.2481 0.80769 0.56903 0.0
C349 C 0.25755 0.83385 0.60603 0.0
C350 C 0.26694 0.82055 0.73176 0.0
C351 C 0.26665 0.84053 0.688 0.0
H352 H 0.23556 0.73735 0.37621 0.0
H353 H 0.27361 0.86115 0.7172 0.0
H354 H 0.26688 0.77813 0.79683 0.0
H355 H 0.23849 0.70123 0.44172 0.0
H356 H 0.25839 0.84978 0.57269 0.0
H357 H 0.13135 0.72198 0.14873 0.0
H358 H 0.27403 0.82579 0.79529 0.0
H359 H 0.17462 0.84834 0.48885 0.0
H360 H 0.14679 0.7331 0.29279 0.0
H361 H 0.173 0.88494 0.42236 0.0
H362 H 0.25632 0.73409 0.72203 0.0
H363 H 0.13183 0.75777 0.07081 0.0
H364 H 0.14043 0.80592 0.06895 0.0
H365 H 0.24588 0.70531 0.58983 0.0
H366 H 0.15277 0.85067 0.14303 0.0
N367 N 0.1582 0.77561 0.29679 0.0
C368 C 0.14815 0.74931 0.25969 0.0
C369 C 0.13907 0.76295 0.13421 0.0
C370 C 0.14787 0.78936 0.17342 0.0
C371 C 0.13887 0.74273 0.17788 0.0
C372 C 0.15723 0.79513 0.25616 0.0
H373 H 0.16479 0.88021 0.2744 0.0
N374 N 0.17049 0.82426 0.37925 0.0
C375 C 0.17083 0.8671 0.38658 0.0
C376 C 0.16399 0.8203 0.29826 0.0
C377 C 0.17211 0.84641 0.42389 0.0
C378 C 0.1662 0.86435 0.30312 0.0
C379 C 0.16185 0.84037 0.25804 0.0
O380 O 0.14187 0.79191 0.47074 0.0
O381 O 0.20569 0.79185 0.52827 0.0
O382 O 0.204 0.75084 0.37768 0.0
O383 O 0.16854 0.74475 0.43139 0.0
O384 O 0.17595 0.79164 0.5743 0.0
O385 O 0.13684 0.75154 0.44591 0.0
O386 O 0.26541 0.79382 0.39469 0.0
O387 O 0.20034 0.79061 0.33763 0.0
O388 O 0.20428 0.83282 0.48823 0.0
O389 O 0.23707 0.83699 0.42336 0.0
O390 O 0.22965 0.78969 0.29158 0.0
O391 O 0.26819 0.8333 0.42196 0.0
C392 C 0.19633 0.79148 0.59824 0.0
C393 C 0.09956 0.75459 0.4305 0.0
C394 C 0.05462 0.73699 0.44662 0.0
C395 C 0.08017 0.74765 0.48025 0.0
C396 C 0.04901 0.73314 0.36225 0.0
C397 C 0.09331 0.75096 0.34697 0.0
C398 C 0.06818 0.7402 0.31322 0.0
C399 C 0.18122 0.73456 0.39732 0.0
C400 C 0.12612 0.76542 0.46649 0.0
C401 C 0.15421 0.83535 0.17482 0.0
C402 C 0.1471 0.80985 0.13269 0.0
C403 C 0.20956 0.79049 0.2676 0.0
C404 C 0.30688 0.83339 0.42574 0.0
C405 C 0.32408 0.85071 0.37623 0.0
C406 C 0.35028 0.8615 0.395 0.0
C407 C 0.3592 0.85516 0.46515 0.0
C408 C 0.31594 0.82747 0.49621 0.0
C409 C 0.3421 0.83849 0.5159 0.0
C410 C 0.22629 0.84835 0.46178 0.0
C411 C 0.27964 0.82057 0.39855 0.0
H412 H 0.08509 0.75085 0.5449 0.0
H413 H 0.02967 0.72429 0.33369 0.0
H414 H 0.10778 0.75628 0.30774 0.0
H415 H 0.06349 0.73718 0.24855 0.0
H416 H 0.31697 0.85497 0.3212 0.0
H417 H 0.37934 0.86316 0.48067 0.0
H418 H 0.30285 0.8141 0.53498 0.0
H419 H 0.3491 0.83378 0.57002 0.0
Eu420 Eu 0.24792 0.25602 0.43558 0.0
C421 C 0.31883 0.3758 0.5594 0.0
C422 C 0.30501 0.39839 0.46856 0.0
C423 C 0.3208 0.41843 0.60766 0.0
C424 C 0.30821 0.37604 0.48458 0.0
C425 C 0.32622 0.39761 0.62102 0.0
C426 C 0.31023 0.41885 0.53133 0.0
C427 C 0.34784 0.37953 0.699 0.0
N428 N 0.32471 0.35603 0.56893 0.0
C429 C 0.34036 0.35858 0.63577 0.0
C430 C 0.34022 0.39878 0.69238 0.0
Eu431 Eu 0.30942 0.31924 0.46203 0.0
N432 N 0.30384 0.35618 0.42513 0.0
C433 C 0.29929 0.3595 0.34679 0.0
C434 C 0.29805 0.40034 0.38923 0.0
C435 C 0.29585 0.3812 0.32789 0.0
H436 H 0.34623 0.34363 0.64155 0.0
H437 H 0.29139 0.38306 0.26591 0.0
H438 H 0.30734 0.43579 0.52051 0.0
H439 H 0.35946 0.38079 0.75275 0.0
H440 H 0.29757 0.34523 0.29793 0.0
H441 H 0.26391 0.18827 0.62405 0.0
H442 H 0.29539 0.41713 0.37443 0.0
H443 H 0.20938 0.23442 0.25966 0.0
H444 H 0.26037 0.22793 0.59913 0.0
H445 H 0.19262 0.19675 0.14799 0.0
H446 H 0.32593 0.43508 0.65465 0.0
H447 H 0.25543 0.15306 0.5123 0.0
H448 H 0.24022 0.1346 0.36737 0.0
H449 H 0.34626 0.41518 0.74107 0.0
H450 H 0.22077 0.13688 0.23702 0.0
N451 N 0.25086 0.21721 0.47126 0.0
C452 C 0.25653 0.21338 0.54819 0.0
C453 C 0.2538 0.17072 0.50022 0.0
C454 C 0.24584 0.17328 0.42286 0.0
C455 C 0.25854 0.19051 0.56339 0.0
C456 C 0.24406 0.19676 0.41022 0.0
H457 H 0.20222 0.15944 0.15563 0.0
N458 N 0.2291 0.21921 0.32883 0.0
C459 C 0.20413 0.19692 0.20036 0.0
C460 C 0.23302 0.19792 0.33673 0.0
C461 C 0.2136 0.21817 0.26389 0.0
C462 C 0.2097 0.176 0.20475 0.0
C463 C 0.22369 0.17587 0.27431 0.0
O464 O 0.22405 0.2643 0.51003 0.0
O465 O 0.26712 0.30259 0.44903 0.0
O466 O 0.29785 0.31061 0.5943 0.0
O467 O 0.26113 0.26716 0.57563 0.0
O468 O 0.23794 0.28005 0.35441 0.0
O469 O 0.20735 0.22558 0.43643 0.0
O470 O 0.35117 0.34128 0.48596 0.0
O471 O 0.29013 0.27252 0.44671 0.0
O472 O 0.25931 0.26321 0.30271 0.0
O473 O 0.29755 0.30526 0.32161 0.0
O474 O 0.32248 0.29447 0.52971 0.0
O475 O 0.33339 0.32828 0.36456 0.0
C476 C 0.25325 0.30442 0.39186 0.0
C477 C 0.18029 0.24339 0.45825 0.0
C478 C 0.14039 0.24135 0.48373 0.0
C479 C 0.16138 0.23837 0.50935 0.0
C480 C 0.13865 0.24897 0.40656 0.0
C481 C 0.17751 0.25068 0.38156 0.0
C482 C 0.15694 0.25348 0.35617 0.0
C483 C 0.27953 0.28895 0.62538 0.0
C484 C 0.20298 0.24132 0.48395 0.0
C485 C 0.22742 0.15373 0.28475 0.0
C486 C 0.23848 0.15243 0.35896 0.0
C487 C 0.30516 0.26999 0.49776 0.0
C488 C 0.37341 0.37022 0.38877 0.0
C489 C 0.39427 0.37481 0.34752 0.0
C490 C 0.41118 0.40144 0.32562 0.0
C491 C 0.40682 0.42304 0.34651 0.0
C492 C 0.37007 0.39249 0.40883 0.0
C493 C 0.38654 0.41857 0.38767 0.0
C494 C 0.27863 0.28391 0.27174 0.0
C495 C 0.35493 0.34251 0.41106 0.0
H496 H 0.16319 0.23266 0.56869 0.0
H497 H 0.1228 0.25114 0.38453 0.0
H498 H 0.19117 0.25412 0.34064 0.0
H499 H 0.15514 0.25915 0.29681 0.0
H500 H 0.39714 0.35781 0.33203 0.0
H501 H 0.41951 0.44376 0.33256 0.0
H502 H 0.35476 0.3898 0.44153 0.0
H503 H 0.38367 0.43553 0.40384 0.0
Eu504 Eu 0.39768 0.11282 0.53741 0.0
C505 C 0.32061 0.08237 0.77544 0.0
C506 C 0.30518 0.11389 0.76252 0.0
C507 C 0.27713 0.06771 0.79678 0.0
C508 C 0.32456 0.10767 0.75755 0.0
C509 C 0.29707 0.06236 0.79734 0.0
C510 C 0.28119 0.09345 0.77947 0.0
C511 C 0.31558 0.03464 0.82758 0.0
N512 N 0.3404 0.07805 0.77663 0.0
C513 C 0.33861 0.05518 0.80586 0.0
C514 C 0.29459 0.03803 0.82207 0.0
Eu515 Eu 0.37827 0.11321 0.73409 0.0
N516 N 0.34808 0.12711 0.74297 0.0
C517 C 0.35443 0.15399 0.74342 0.0
C518 C 0.31094 0.14089 0.75471 0.0
C519 C 0.33588 0.16122 0.74732 0.0
H520 H 0.35473 0.05236 0.80987 0.0
H521 H 0.34085 0.18243 0.74475 0.0
H522 H 0.26597 0.09772 0.78246 0.0
H523 H 0.31403 0.01621 0.84845 0.0
H524 H 0.37384 0.16987 0.73959 0.0
H525 H 0.42074 0.03012 0.55282 0.0
H526 H 0.29663 0.14653 0.75818 0.0
H527 H 0.42911 0.17219 0.45582 0.0
H528 H 0.39602 0.05146 0.57368 0.0
H529 H 0.4678 0.19806 0.39293 0.0
H530 H 0.25881 0.05247 0.81252 0.0
H531 H 0.46047 0.05426 0.49222 0.0
H532 H 0.49148 0.09555 0.43263 0.0
H533 H 0.27681 0.02215 0.83932 0.0
H534 H 0.50442 0.14106 0.38995 0.0
N535 N 0.41995 0.08827 0.52068 0.0
C536 C 0.41238 0.06255 0.54334 0.0
C537 C 0.44926 0.06388 0.49938 0.0
C538 C 0.45706 0.0899 0.47556 0.0
C539 C 0.42681 0.05017 0.5332 0.0
C540 C 0.44186 0.10172 0.48672 0.0
H541 H 0.49573 0.17919 0.37455 0.0
N542 N 0.43464 0.13856 0.47454 0.0
C543 C 0.46291 0.17829 0.41251 0.0
C544 C 0.4494 0.12754 0.46334 0.0
C545 C 0.44088 0.16342 0.44844 0.0
C546 C 0.47861 0.16759 0.40235 0.0
C547 C 0.47193 0.14192 0.42741 0.0
O548 O 0.39136 0.11104 0.40661 0.0
O549 O 0.3728 0.12265 0.60777 0.0
O550 O 0.34754 0.07259 0.65964 0.0
O551 O 0.3701 0.0684 0.56101 0.0
O552 O 0.39479 0.15088 0.53239 0.0
O553 O 0.35933 0.08924 0.47123 0.0
O554 O 0.39548 0.11075 0.84986 0.0
O555 O 0.40741 0.11163 0.66639 0.0
O556 O 0.42947 0.15323 0.60966 0.0
O557 O 0.40997 0.15706 0.71953 0.0
O558 O 0.39404 0.08481 0.75094 0.0
O559 O 0.38885 0.14436 0.8364 0.0
C560 C 0.37787 0.14528 0.57991 0.0
C561 C 0.3549 0.11461 0.37317 0.0
C562 C 0.35958 0.15835 0.34062 0.0
C563 C 0.37017 0.14212 0.3585 0.0
C564 C 0.33312 0.14648 0.33462 0.0
C565 C 0.32845 0.10306 0.3674 0.0
C566 C 0.31766 0.11892 0.34795 0.0
C567 C 0.35039 0.05756 0.60234 0.0
C568 C 0.36678 0.09942 0.40481 0.0
C569 C 0.48703 0.13025 0.417 0.0
C570 C 0.47964 0.10433 0.44117 0.0
C571 C 0.41038 0.09394 0.70046 0.0
C572 C 0.42632 0.15517 0.91673 0.0
C573 C 0.43031 0.17677 0.97271 0.0
C574 C 0.45501 0.19779 1.00501 0.0
C575 C 0.47597 0.19691 0.98164 0.0
C576 C 0.44743 0.15473 0.89214 0.0
C577 C 0.47213 0.17553 0.92472 0.0
C578 C 0.42907 0.16729 0.67552 0.0
C579 C 0.40005 0.13474 0.88111 0.0
H580 H 0.39051 0.15107 0.36077 0.0
H581 H 0.32448 0.15845 0.31944 0.0
H582 H 0.31622 0.08201 0.37972 0.0
H583 H 0.29728 0.1099 0.34398 0.0
H584 H 0.41402 0.17708 0.99192 0.0
H585 H 0.49512 0.21263 1.00737 0.0
H586 H 0.44489 0.13858 0.84749 0.0
H587 H 0.48831 0.17502 0.90589 0.0
Eu588 Eu 0.95227 0.18144 0.83713 0.0
C589 C 0.88389 0.21173 0.67224 0.0
C590 C 0.86141 0.18851 0.54037 0.0
C591 C 0.84118 0.20292 0.63439 0.0
C592 C 0.88307 0.1992 0.59818 0.0
C593 C 0.86312 0.21426 0.69068 0.0
C594 C 0.84028 0.18997 0.55942 0.0
C595 C 0.88754 0.2398 0.81791 0.0
N596 N 0.90519 0.22198 0.72575 0.0
C597 C 0.90747 0.23643 0.79736 0.0
C598 C 0.86514 0.22839 0.76474 0.0
Eu599 Eu 0.93884 0.21678 0.68502 0.0
N600 N 0.90389 0.19848 0.58136 0.0
C601 C 0.90512 0.18949 0.50529 0.0
C602 C 0.86185 0.17729 0.46446 0.0
C603 C 0.88399 0.17823 0.44632 0.0
H604 H 0.92433 0.24501 0.84007 0.0
H605 H 0.88481 0.17032 0.38704 0.0
H606 H 0.82342 0.18172 0.51594 0.0
H607 H 0.88937 0.2509 0.87529 0.0
H608 H 0.9223 0.19028 0.49106 0.0
H609 H 0.05506 0.25855 0.9049 0.0
H610 H 0.8454 0.16848 0.41905 0.0
H611 H 0.92569 0.11258 0.81788 0.0
H612 H 0.01009 0.24206 0.89694 0.0
H613 H 0.93676 0.07738 0.7805 0.0
H614 H 0.82495 0.20438 0.64784 0.0
H615 H 0.06971 0.22702 0.86205 0.0
H616 H 0.05894 0.17951 0.80959 0.0
H617 H 0.84962 0.23075 0.78118 0.0
H618 H 0.02671 0.13031 0.77267 0.0
N619 N 0.99751 0.20033 0.85056 0.0
C620 C 0.01527 0.22733 0.87869 0.0
C621 C 0.04951 0.21928 0.85918 0.0
C622 C 0.03156 0.19161 0.83247 0.0
C623 C 0.04131 0.2371 0.88346 0.0
C624 C 0.00542 0.18253 0.83006 0.0
H625 H 0.98117 0.092 0.76228 0.0
N626 N 0.96269 0.14666 0.81253 0.0
C627 C 0.95117 0.09914 0.78708 0.0
C628 C 0.9874 0.15493 0.8091 0.0
C629 C 0.94486 0.11908 0.8069 0.0
C630 C 0.97623 0.10747 0.77695 0.0
C631 C 0.99485 0.13559 0.7902 0.0
O632 O 0.94583 0.15491 0.93277 0.0
O633 O 0.92494 0.1943 0.79092 0.0
O634 O 0.96159 0.24816 0.79499 0.0
O635 O 0.96743 0.22508 0.8964 0.0
O636 O 0.90914 0.15373 0.81525 0.0
O637 O 0.94923 0.1943 0.959 0.0
O638 O 0.95245 0.24034 0.58314 0.0
O639 O 0.96875 0.20924 0.74253 0.0
O640 O 0.93235 0.15051 0.72313 0.0
O641 O 0.91822 0.171 0.63199 0.0
O642 O 0.96326 0.20515 0.61814 0.0
O643 O 0.95845 0.26181 0.70041 0.0
C644 C 0.90403 0.17173 0.79077 0.0
C645 C 0.91637 0.15673 1.01191 0.0
C646 C 0.88335 0.16114 0.07069 0.0
C647 C 0.90809 0.1731 1.0495 0.0
C648 C 0.86691 0.13238 1.05508 0.0
C649 C 0.89963 0.12792 0.99711 0.0
C650 C 0.87508 0.11591 1.01859 0.0
C651 C 0.96987 0.24764 0.86943 0.0
C652 C 0.94149 0.17013 0.98227 0.0
C653 C 0.02067 0.14478 0.78815 0.0
C654 C 0.03901 0.17276 0.80943 0.0
C655 C 0.97612 0.20349 0.67956 0.0
C656 C 0.95066 0.28151 0.59174 0.0
C657 C 0.92997 0.27053 0.53101 0.0
C658 C 0.92215 0.28757 0.49791 0.0
C659 C 0.93477 0.31572 0.52718 0.0
C660 C 0.96289 0.30962 0.62175 0.0
C661 C 0.95485 0.32658 0.58987 0.0
C662 C 0.91947 0.14957 0.65452 0.0
C663 C 0.95964 0.26396 0.62446 0.0
H664 H 0.92098 0.19526 0.06237 0.0
H665 H 0.84778 0.12268 0.07112 0.0
H666 H 0.90531 0.11468 0.96776 0.0
H667 H 0.86228 0.09376 1.00654 0.0
H668 H 0.9206 0.24896 0.50656 0.0
H669 H 0.92938 0.32926 0.50072 0.0
H670 H 0.97876 0.31848 0.66935 0.0
H671 H 0.96455 0.3483 0.61266 0.0
Eu672 Eu 0.84845 0.6124 0.74943 0.0
C673 C 0.9249 0.73474 0.84848 0.0
C674 C 0.96574 0.7429 0.8175 0.0
C675 C 0.95522 0.77855 0.80464 0.0
C676 C 0.9415 0.72528 0.84031 0.0
C677 C 0.9319 0.76178 0.83296 0.0
C678 C 0.97212 0.76914 0.79703 0.0
C679 C 0.89374 0.75498 0.88365 0.0
N680 N 0.90261 0.71821 0.87686 0.0
C681 C 0.88771 0.72845 0.89877 0.0
C682 C 0.9157 0.77155 0.84923 0.0
Eu683 Eu 0.89281 0.67263 0.89442 0.0
N684 N 0.93484 0.69981 0.86084 0.0
C685 C 0.95271 0.69223 0.8687 0.0
C686 C 0.98329 0.73415 0.81924 0.0
C687 C 0.97695 0.70903 0.84695 0.0
H688 H 0.8706 0.71568 0.9249 0.0
H689 H 0.99074 0.70254 0.85157 0.0
H690 H 0.99047 0.78271 0.77807 0.0
H691 H 0.88143 0.76261 0.89845 0.0
H692 H 0.94878 0.67337 0.89193 0.0
H693 H 0.79333 0.62169 0.49496 0.0
H694 H 1.00208 0.74708 0.80226 0.0
H695 H 0.82785 0.56945 0.89018 0.0
H696 H 0.83207 0.62896 0.57582 0.0
H697 H 0.78724 0.53476 0.93244 0.0
H698 H 0.96075 0.79922 0.79133 0.0
H699 H 0.75126 0.59344 0.5408 0.0
H700 H 0.72542 0.56241 0.63944 0.0
H701 H 0.92039 0.79215 0.8379 0.0
H702 H 0.72373 0.53809 0.75711 0.0
N703 N 0.81221 0.60647 0.66859 0.0
C704 C 0.81377 0.61679 0.59645 0.0
C705 C 0.76821 0.59682 0.57683 0.0
C706 C 0.76656 0.58452 0.64745 0.0
C707 C 0.79191 0.61272 0.55064 0.0
C708 C 0.78921 0.58968 0.69234 0.0
H709 H 0.74662 0.52686 0.86418 0.0
N710 N 0.81042 0.58111 0.79897 0.0
C711 C 0.78727 0.5464 0.88379 0.0
C712 C 0.78827 0.57629 0.75897 0.0
C713 C 0.81026 0.56613 0.85972 0.0
C714 C 0.76437 0.54205 0.84539 0.0
C715 C 0.76463 0.55697 0.78198 0.0
O716 O 0.85265 0.5951 0.63587 0.0
O717 O 0.88899 0.64717 0.78222 0.0
O718 O 0.87594 0.68558 0.7924 0.0
O719 O 0.83783 0.64565 0.73885 0.0
O720 O 0.8742 0.6397 0.66252 0.0
O721 O 0.8414 0.57027 0.73368 0.0
O722 O 0.9091 0.7011 1.00551 0.0
O723 O 0.85494 0.63292 0.87386 0.0
O724 O 0.86889 0.60034 0.84401 0.0
O725 O 0.90616 0.64179 0.88877 0.0
O726 O 0.85601 0.66605 0.93739 0.0
O727 O 0.90045 0.6593 1.00747 0.0
C728 C 0.89404 0.65517 0.71412 0.0
C729 C 0.8657 0.56216 0.64574 0.0
C730 C 0.90178 0.56652 0.58328 0.0
C731 C 0.88678 0.5774 0.60517 0.0
C732 C 0.89614 0.54058 0.60391 0.0
C733 C 0.86033 0.53622 0.66647 0.0
C734 C 0.87565 0.52567 0.64642 0.0
C735 C 0.85335 0.67292 0.74829 0.0
C736 C 0.8483 0.57213 0.66224 0.0
C737 C 0.74204 0.5526 0.73965 0.0
C738 C 0.74301 0.56646 0.67272 0.0
C739 C 0.8415 0.64057 0.90783 0.0
C740 C 0.93808 0.69414 0.08656 0.0
C741 C 0.94144 0.67947 0.1454 0.0
C742 C 0.96582 0.68818 0.18385 0.0
C743 C 0.98704 0.71168 0.16324 0.0
C744 C 0.95952 0.71776 0.0662 0.0
C745 C 0.98385 0.72635 0.10425 0.0
C746 C 0.89259 0.61447 0.88069 0.0
C747 C 0.91224 0.68406 1.04597 0.0
H748 H 0.89101 0.59726 0.58752 0.0
H749 H 0.90739 0.53182 0.58647 0.0
H750 H 0.84412 0.52399 0.69748 0.0
H751 H 0.8713 0.50563 0.66239 0.0
H752 H 0.92504 0.66132 0.16186 0.0
H753 H 0.00593 0.71872 0.19308 0.0
H754 H 0.95757 0.72955 1.02088 0.0
H755 H 1.00024 0.74452 0.08824 0.0
H756 H 0.11669 0.47252 0.94948 0.0
H757 H 0.05225 0.48304 0.93524 0.0
H758 H 0.11583 0.47141 0.80365 0.0
H759 H 0.05119 0.48192 0.78917 0.0
H760 H 0.04431 0.46866 0.50731 0.0
H761 H 0.04496 0.4694 0.65295 0.0
H762 H 0.1203 0.48189 0.6741 0.0
H763 H 0.11927 0.48082 0.52825 0.0
C764 C 0.10226 0.47486 0.91641 0.0
C765 C 0.08475 0.47819 0.95967 0.0
C766 C 0.1017 0.4742 0.82987 0.0
C767 C 0.08343 0.47659 0.77813 0.0
C768 C 0.06579 0.47972 0.82175 0.0
C769 C 0.06645 0.48051 0.90831 0.0
C770 C 0.06117 0.47159 0.54186 0.0
C771 C 0.08168 0.47477 0.50038 0.0
C772 C 0.06168 0.47216 0.62838 0.0
C773 C 0.08277 0.47585 0.68189 0.0
C774 C 0.10323 0.4788 0.64001 0.0
C775 C 0.10271 0.47832 0.55354 0.0
H776 H 0.61129 0.53846 0.79693 0.0
H777 H 0.6268 0.47262 0.79012 0.0
H778 H 0.61281 0.53935 0.65276 0.0
H779 H 0.62851 0.4733 0.64566 0.0
H780 H 0.63372 0.47667 0.36978 0.0
H781 H 0.63235 0.47585 0.51412 0.0
H782 H 0.61208 0.53837 0.51889 0.0
H783 H 0.61382 0.53914 0.37455 0.0
C784 C 0.61494 0.52385 0.76566 0.0
C785 C 0.61874 0.50541 0.81062 0.0
C786 C 0.61592 0.52435 0.67992 0.0
C787 C 0.62086 0.50642 0.6306 0.0
C788 C 0.62468 0.48794 0.67607 0.0
C789 C 0.62367 0.48748 0.76185 0.0
C790 C 0.62904 0.49047 0.40057 0.0
C791 C 0.62398 0.50798 0.35501 0.0
C792 C 0.62811 0.48999 0.48636 0.0
C793 C 0.62199 0.50699 0.5351 0.0
C794 C 0.61698 0.52457 0.48904 0.0
C795 C 0.61793 0.52502 0.40326 0.0
H796 H 0.61469 0.10475 0.6103 0.0
H797 H 0.57497 0.01617 0.57489 0.0
H798 H 0.61433 0.10587 0.46535 0.0
H799 H 0.57431 0.01689 0.42966 0.0
H800 H 0.57241 0.01894 0.15123 0.0
H801 H 0.57278 0.01781 0.29612 0.0
H802 H 0.61485 0.10684 0.33227 0.0
H803 H 0.61414 0.10757 0.18705 0.0
C804 C 0.60573 0.08518 0.57234 0.0
C805 C 0.59474 0.06031 0.6095 0.0
C806 C 0.60547 0.08577 0.48626 0.0
C807 C 0.59421 0.06151 0.42881 0.0
C808 C 0.5833 0.03662 0.46656 0.0
C809 C 0.58357 0.03607 0.55273 0.0
C810 C 0.58185 0.03852 0.18924 0.0
C811 C 0.59334 0.0634 0.1522 0.0
C812 C 0.58213 0.03793 0.27532 0.0
C813 C 0.59391 0.06219 0.33289 0.0
C814 C 0.60535 0.0871 0.29526 0.0
C815 C 0.60506 0.08765 0.20909 0.0
H816 H 0.7514 0.9178 0.64267 0.0
H817 H 0.81547 0.90661 0.65535 0.0
H818 H 0.75221 0.91827 0.78861 0.0
H819 H 0.81628 0.90669 0.80084 0.0
H820 H 0.82152 0.91519 0.08253 0.0
H821 H 0.82137 0.91558 0.93695 0.0
H822 H 0.74839 0.90925 0.91727 0.0
H823 H 0.749 0.90924 0.06188 0.0
C824 C 0.76585 0.91541 0.67574 0.0
C825 C 0.78336 0.91223 0.63238 0.0
C826 C 0.76631 0.91553 0.76207 0.0
C827 C 0.78435 0.91248 0.81298 0.0
C828 C 0.80189 0.90937 0.76897 0.0
C829 C 0.80139 0.90923 0.68278 0.0
C830 C 0.80528 0.91386 1.04801 0.0
C831 C 0.78525 0.91212 0.08936 0.0
C832 C 0.80508 0.914 0.96171 0.0
C833 C 0.7848 0.91244 0.90879 0.0
C834 C 0.76485 0.91076 0.95076 0.0
C835 C 0.76511 0.91062 1.03673 0.0
H836 H 0.19944 0.75287 0.70277 0.0
H837 H 0.20451 0.83122 0.72894 0.0
H838 H 0.20063 0.75221 0.84957 0.0
H839 H 0.20555 0.83072 0.87491 0.0
H840 H 0.20705 0.82942 0.1632 0.0
H841 H 0.20585 0.83008 1.01642 0.0
H842 H 0.2 0.7511 0.99076 0.0
H843 H 0.201 0.75058 0.13674 0.0
C844 C 0.20178 0.77082 0.73842 0.0
C845 C 0.20353 0.79304 0.69611 0.0
C846 C 0.20204 0.77026 0.82645 0.0
C847 C 0.20328 0.79145 0.88339 0.0
C848 C 0.20475 0.81342 0.84056 0.0
C849 C 0.20451 0.81392 0.75297 0.0
C850 C 0.20447 0.81136 0.12748 0.0
C851 C 0.20244 0.78901 0.16971 0.0
C852 C 0.20422 0.81192 1.03945 0.0
C853 C 0.20273 0.79061 0.98243 0.0
C854 C 0.20101 0.76852 1.02518 0.0
C855 C 0.20123 0.768 0.11277 0.0
H856 H 0.24557 0.24818 0.71643 0.0
H857 H 0.31351 0.32828 0.75839 0.0
H858 H 0.24527 0.24665 0.86109 0.0
H859 H 0.31341 0.32716 0.90318 0.0
H860 H 0.31389 0.32346 0.18073 0.0
H861 H 0.31433 0.32483 1.03605 0.0
H862 H 0.24388 0.24642 0.9941 0.0
H863 H 0.24379 0.24531 0.139 0.0
C864 C 0.26069 0.26579 0.75574 0.0
C865 C 0.27958 0.28843 0.7204 0.0
C866 C 0.26054 0.26496 0.84165 0.0
C867 C 0.27931 0.28672 0.90075 0.0
C868 C 0.29822 0.3094 0.86488 0.0
C869 C 0.29833 0.31018 0.77889 0.0
C870 C 0.29833 0.30624 0.14143 0.0
C871 C 0.27882 0.28418 0.17678 0.0
C872 C 0.29851 0.30703 1.05552 0.0
C873 C 0.27914 0.2858 0.99646 0.0
C874 C 0.25962 0.26369 1.03238 0.0
C875 C 0.25948 0.26294 0.11838 0.0
H876 H 0.35315 0.17956 0.20682 0.0
H877 H 0.40447 0.19993 0.42406 0.0
H878 H 0.38766 0.21305 0.14267 0.0
H879 H 0.43951 0.23422 0.36028 0.0
H880 H 0.44105 0.23621 0.99522 0.0
H881 H 0.42467 0.25008 0.10491 0.0
H882 H 0.45647 0.21643 0.2694 0.0
H883 H 0.47343 0.20386 0.16075 0.0
C884 C 0.37159 0.19242 0.24244 0.0
C885 C 0.37646 0.18636 0.31885 0.0
C886 C 0.39163 0.21188 0.20567 0.0
C887 C 0.41682 0.22541 0.24493 0.0
C888 C 0.42055 0.22336 0.32723 0.0
C889 C 0.40048 0.20375 0.36387 0.0
C890 C 0.44585 0.2335 1.056 0.0
C891 C 0.4577 0.21823 0.06976 0.0
C892 C 0.43632 0.24123 0.11883 0.0
C893 C 0.43787 0.23289 0.19508 0.0
C894 C 0.45431 0.22276 0.21138 0.0
C895 C 0.46414 0.21543 0.14882 0.0
H896 H 0.93138 0.30273 0.35038 0.0
H897 H 0.87252 0.24583 0.48011 0.0
H898 H 0.91018 0.27207 0.22763 0.0
H899 H 0.84951 0.21563 0.35538 0.0
H900 H 0.88931 0.21058 1.03458 0.0
H901 H 0.88442 0.24317 0.12 0.0
H902 H 0.85753 0.18488 0.29476 0.0
H903 H 0.8604 0.15172 0.20614 0.0
C904 C 0.91296 0.28433 0.35131 0.0
C905 C 0.90381 0.27619 0.42431 0.0
C906 C 0.90056 0.2665 0.28045 0.0
C907 C 0.87854 0.24038 0.28144 0.0
C908 C 0.86709 0.23479 0.35268 0.0
C909 C 0.87997 0.25228 0.42408 0.0
C910 C 0.88145 0.20438 0.08993 0.0
C911 C 0.87562 0.17871 0.11416 0.0
C912 C 0.8789 0.22326 0.13972 0.0
C913 C 0.87176 0.21748 0.21681 0.0
C914 C 0.86334 0.19058 0.2368 0.0
C915 C 0.86513 0.17138 0.18587 0.0
H916 H 0.90033 0.55213 0.4259 0.0
H917 H 0.94658 0.61474 0.62445 0.0
H918 H 0.92567 0.58299 0.33211 0.0
H919 H 0.97278 0.64571 0.53092 0.0
H920 H 0.97073 0.64307 0.171 0.0
H921 H 0.96466 0.61235 0.27465 0.0
H922 H 0.95777 0.66839 0.44319 0.0
H923 H 0.96469 0.69913 0.34059 0.0
C924 C 0.9167 0.57214 0.44943 0.0
C925 C 0.9215 0.58144 0.53167 0.0
C926 C 0.9313 0.58982 0.39591 0.0
C927 C 0.95093 0.61702 0.42417 0.0
C928 C 0.95739 0.62509 0.50753 0.0
C929 C 0.94259 0.60748 0.56089 0.0
C930 C 0.96891 0.64912 0.23134 0.0
C931 C 0.96833 0.67332 0.24888 0.0
C932 C 0.96532 0.63159 0.29038 0.0
C933 C 0.96089 0.63803 0.36735 0.0
C934 C 0.96193 0.66323 0.38551 0.0
C935 C 0.96566 0.68074 0.32677 0.0
H936 H 0.25468 0.34188 0.5119 0.0
H937 H 0.23311 0.31393 0.25835 0.0
H938 H 0.23946 0.3743 0.49675 0.0
H939 H 0.21773 0.34566 0.24311 0.0
H940 H 0.17119 0.3875 0.2475 0.0
H941 H 0.18396 0.35394 0.27538 0.0
H942 H 0.24927 0.41692 0.4355 0.0
H943 H 0.23633 0.45023 0.40848 0.0
C944 C 0.24703 0.34291 0.45285 0.0
C945 C 0.24585 0.32584 0.38594 0.0
C946 C 0.23811 0.36136 0.44406 0.0
C947 C 0.22717 0.36272 0.36852 0.0
C948 C 0.22565 0.34517 0.30237 0.0
C949 C 0.23473 0.32707 0.31103 0.0
C950 C 0.18801 0.39409 0.28972 0.0
C951 C 0.20273 0.42178 0.32505 0.0
C952 C 0.19555 0.37488 0.30519 0.0
C953 C 0.21789 0.38261 0.35735 0.0
C954 C 0.23194 0.40999 0.3954 0.0
C955 C 0.22457 0.42922 0.37928 0.0
H956 H 0.73345 0.70219 0.30819 0.0
H957 H 0.67017 0.68507 0.13451 0.0
H958 H 0.74467 0.75004 0.33359 0.0
H959 H 0.68105 0.73324 0.16175 0.0
H960 H 0.73635 0.82964 0.15478 0.0
H961 H 0.71553 0.77913 0.13628 0.0
H962 H 0.73152 0.78006 0.39159 0.0
H963 H 0.75271 0.83026 0.40898 0.0
C964 C 0.72177 0.70862 0.27582 0.0
C965 C 0.70104 0.68982 0.21871 0.0
C966 C 0.72804 0.73605 0.29113 0.0
C967 C 0.71373 0.74557 0.24991 0.0
C968 C 0.69256 0.72663 0.19419 0.0
C969 C 0.68619 0.699 0.17908 0.0
C970 C 0.73457 0.81883 0.20701 0.0
C971 C 0.74557 0.83376 0.28347 0.0
C972 C 0.72269 0.78993 0.19657 0.0
C973 C 0.72204 0.77549 0.26237 0.0
C974 C 0.73193 0.79048 0.33942 0.0
C975 C 0.74374 0.81926 0.34969 0.0
H976 H 0.46723 0.935 0.07679 0.0
H977 H 0.41208 0.95761 1.00164 0.0
H978 H 0.44381 0.91365 0.18588 0.0
H979 H 0.38718 0.93365 0.10583 0.0
H980 H 0.3566 0.90863 0.34042 0.0
H981 H 0.38341 0.93432 0.24089 0.0
H982 H 0.40847 0.87551 0.21797 0.0
H983 H 0.38288 0.8512 0.32129 0.0
C984 C 0.45013 0.93552 0.08327 0.0
C985 C 0.44182 0.94839 1.02996 0.0
C986 C 0.43631 0.92267 0.14541 0.0
C987 C 0.41337 0.92164 0.15528 0.0
C988 C 0.40493 0.93431 0.10159 0.0
C989 C 0.41904 0.94768 1.0404 0.0
C990 C 0.36817 0.90155 0.31456 0.0
C991 C 0.36786 0.8781 0.33867 0.0
C992 C 0.38335 0.91605 0.25677 0.0
C993 C 0.39815 0.90704 0.22022 0.0
C994 C 0.39787 0.88358 0.24537 0.0
C995 C 0.38311 0.86948 0.30445 0.0
H996 H 0.5386 0.08252 0.92625 0.0
H997 H 0.54257 0.075 0.67224 0.0
H998 H 0.50409 0.09225 0.89968 0.0
H999 H 0.50903 0.08581 0.64591 0.0
H1000 H 0.45805 0.12776 0.65122 0.0
H1001 H 0.49688 0.1256 0.67997 0.0
H1002 H 0.45693 0.05804 0.81825 0.0
H1003 H 0.41803 0.05899 0.78556 0.0
C1004 C 0.53292 0.08413 0.86518 0.0
C1005 C 0.54389 0.07866 0.80162 0.0
C1006 C 0.51291 0.08938 0.8497 0.0
C1007 C 0.50369 0.08988 0.77043 0.0
C1008 C 0.51569 0.0859 0.70758 0.0
C1009 C 0.53505 0.07983 0.72281 0.0
C1010 C 0.4574 0.11207 0.68622 0.0
C1011 C 0.43452 0.0931 0.71415 0.0
C1012 C 0.47978 0.11103 0.7036 0.0
C1013 C 0.48022 0.09181 0.75239 0.0
C1014 C 0.4575 0.07333 0.78146 0.0
C1015 C 0.43508 0.0738 0.7621 0.0
H1016 H 0.99116 0.25719 1.02764 0.0
H1017 H 0.97935 0.29886 0.83737 0.0
H1018 H 0.01483 0.3012 0.11489 0.0
H1019 H 1.00262 0.34248 0.92456 0.0
H1020 H 0.03567 0.38322 0.27106 0.0
H1021 H 0.01136 0.33784 0.18911 0.0
H1022 H 0.04602 0.37557 0.98272 0.0
H1023 H 0.06985 0.42052 0.06432 0.0
C1024 C 0.99344 0.27562 1.00432 0.0
C1025 C 0.9834 0.27425 0.92472 0.0
C1026 C 0.00697 0.30091 1.05468 0.0
C1027 C 0.01096 0.3256 1.02682 0.0
C1028 C 1.00046 0.32409 0.94784 0.0
C1029 C 0.98691 0.29888 0.89772 0.0
C1030 C 0.03794 0.38167 0.20809 0.0
C1031 C 0.05394 0.40554 0.17343 0.0
C1032 C 0.02417 0.35568 0.16116 0.0
C1033 C 0.02634 0.35295 0.07864 0.0
C1034 C 0.04327 0.37683 1.04529 0.0
C1035 C 0.05699 0.40268 0.0921 0.0
H1036 H 0.79933 0.63977 0.84047 0.0
H1037 H 0.82403 0.60494 1.02109 0.0
H1038 H 0.75615 0.6143 0.8754 0.0
H1039 H 0.78058 0.57834 1.05496 0.0
H1040 H 0.67616 0.54996 0.89773 0.0
H1041 H 0.71944 0.57217 0.8653 0.0
H1042 H 0.74679 0.57655 0.11378 0.0
H1043 H 0.70279 0.55275 0.1446 0.0
C1044 C 0.79533 0.62617 0.88674 0.0
C1045 C 0.81481 0.62337 0.92539 0.0
C1046 C 0.77045 0.61135 0.90691 0.0
C1047 C 0.76424 0.59346 0.96733 0.0
C1048 C 0.78422 0.59173 1.00835 0.0
C1049 C 0.80916 0.6067 0.98819 0.0
C1050 C 0.69138 0.55497 0.94502 0.0
C1051 C 0.68587 0.54879 1.02323 0.0
C1052 C 0.71644 0.56827 0.92677 0.0
C1053 C 0.73719 0.5769 0.98677 0.0
C1054 C 0.7316 0.57016 0.0652 0.0
C1055 C 0.70628 0.5563 0.08315 0.0
H1056 H 0.93281 0.63293 0.99918 0.0
H1057 H 0.88096 0.56207 0.82839 0.0
H1058 H 0.95297 0.60821 1.04851 0.0
H1059 H 0.90216 0.53797 0.8727 0.0
H1060 H 0.92447 0.48889 1.02445 0.0
H1061 H 0.90663 0.51458 0.96979 0.0
H1062 H 0.97909 0.5905 1.03554 0.0
H1063 H 0.99639 0.56452 0.09724 0.0
C1064 C 0.92589 0.61212 0.97144 0.0
C1065 C 0.90506 0.59938 0.91017 0.0
C1066 C 0.93767 0.59794 0.99926 0.0
C1067 C 0.92937 0.57077 0.96551 0.0
C1068 C 0.90889 0.55845 0.90253 0.0
C1069 C 0.89672 0.57237 0.87625 0.0
C1070 C 0.93666 0.51113 1.02829 0.0
C1071 C 0.96182 0.52455 0.06732 0.0
C1072 C 0.92645 0.526 0.99522 0.0
C1073 C 0.94115 0.55495 0.99777 0.0
C1074 C 0.96679 0.56836 1.0335 0.0
C1075 C 0.97695 0.55338 0.06796 0.0
H1076 H 0.53483 0.33366 0.92521 0.0
H1077 H 0.57436 0.32412 0.73576 0.0
H1078 H 0.49769 0.28964 0.87417 0.0
H1079 H 0.53866 0.27849 0.69214 0.0
H1080 H 0.4409 0.19856 0.82042 0.0
H1081 H 0.47711 0.244 0.8658 0.0
H1082 H 0.50023 0.24904 0.62778 0.0
H1083 H 0.46559 0.20205 0.58662 0.0
C1084 C 0.53585 0.32234 0.87277 0.0
C1085 C 0.55818 0.33304 0.83557 0.0
C1086 C 0.51443 0.29638 0.84425 0.0
C1087 C 0.51471 0.2796 0.77898 0.0
C1088 C 0.53701 0.29041 0.74159 0.0
C1089 C 0.55809 0.31675 0.76834 0.0
C1090 C 0.45401 0.20915 0.77828 0.0
C1091 C 0.45053 0.19618 0.7004 0.0
C1092 C 0.47476 0.23576 0.80388 0.0
C1093 C 0.49222 0.25097 0.75115 0.0
C1094 C 0.48805 0.2382 0.6719 0.0
C1095 C 0.46781 0.21111 0.64746 0.0
H1096 H 0.89068 0.19221 0.91322 0.0
H1097 H 0.85997 0.14203 0.68456 0.0
H1098 H 0.8485 0.18405 0.93341 0.0
H1099 H 0.81742 0.13381 0.7032 0.0
H1100 H 0.75192 0.15394 0.74656 0.0
H1101 H 0.79173 0.15729 0.71484 0.0
H1102 H 0.80782 0.14626 0.95954 0.0
H1103 H 0.76852 0.14303 0.99065 0.0
C1104 C 0.87477 0.1796 0.86716 0.0
C1105 C 0.87868 0.16844 0.79692 0.0
C1106 C 0.85055 0.17465 0.87868 0.0
C1107 C 0.82932 0.15812 0.82018 0.0
C1108 C 0.83325 0.14682 0.74935 0.0
C1109 C 0.85759 0.15153 0.73854 0.0
C1110 C 0.76367 0.15151 0.79282 0.0
C1111 C 0.757 0.14835 0.87131 0.0
C1112 C 0.78659 0.15359 0.77482 0.0
C1113 C 0.8034 0.15264 0.83499 0.0
C1114 C 0.79582 0.14781 0.91198 0.0
C1115 C 0.77308 0.14569 0.92973 0.0
H1116 H 0.63414 0.05405 0.10653 0.0
H1117 H 0.6392 0.02197 0.87388 0.0
H1118 H 0.64933 0.02711 0.17141 0.0
H1119 H 0.65561 0.99535 0.93931 0.0
H1120 H 0.65189 0.92656 0.09174 0.0
H1121 H 0.64162 0.95565 1.01555 0.0
H1122 H 0.68651 0.02413 0.2016 0.0
H1123 H 0.69626 0.99474 0.2788 0.0
C1124 C 0.63822 0.04085 0.06911 0.0
C1125 C 0.63428 0.03908 0.98496 0.0
C1126 C 0.64746 0.02578 0.10649 0.0
C1127 C 0.65385 0.00899 1.06101 0.0
C1128 C 0.65063 0.00779 0.97639 0.0
C1129 C 0.64103 0.0228 0.93872 0.0
C1130 C 0.6597 0.94789 0.11628 0.0
C1131 C 0.6746 0.95815 0.19224 0.0
C1132 C 0.65395 0.96467 0.07209 0.0
C1133 C 0.66283 0.9922 0.10266 0.0
C1134 C 0.67888 0.00288 0.17667 0.0
C1135 C 0.68474 0.98611 0.22071 0.0
H1136 H 0.14033 0.69225 0.45655 0.0
H1137 H 0.19533 0.70662 0.29361 0.0
H1138 H 0.12289 0.64247 0.42937 0.0
H1139 H 0.17855 0.65705 0.2685 0.0
H1140 H 0.12313 0.56218 0.18256 0.0
H1141 H 0.1436 0.61279 0.20618 0.0
H1142 H 0.13188 0.60736 0.45566 0.0
H1143 H 0.11128 0.55727 0.43127 0.0
C1144 C 0.1488 0.68488 0.4151 0.0
C1145 C 0.16958 0.70378 0.37849 0.0
C1146 C 0.13894 0.65619 0.39992 0.0
C1147 C 0.14941 0.64533 0.34724 0.0
C1148 C 0.1698 0.66428 0.30917 0.0
C1149 C 0.17967 0.69293 0.32446 0.0
C1150 C 0.12565 0.57196 0.2428 0.0
C1151 C 0.11607 0.55564 0.30545 0.0
C1152 C 0.13723 0.60104 0.25649 0.0
C1153 C 0.13914 0.61453 0.33286 0.0
C1154 C 0.13034 0.59805 0.39566 0.0
C1155 C 0.11886 0.56921 0.38197 0.0
H1156 H 0.56894 0.46412 0.27217 0.0
H1157 H 0.53868 0.46126 1.02958 0.0
H1158 H 0.52676 0.44466 0.31343 0.0
H1159 H 0.49579 0.441 0.07027 0.0
H1160 H 0.42823 0.43273 0.2012 0.0
H1161 H 0.46883 0.45013 0.14901 0.0
H1162 H 0.48672 0.40223 0.30185 0.0
H1163 H 0.44632 0.38552 0.35602 0.0
C1164 C 0.55321 0.45976 0.22782 0.0
C1165 C 0.55736 0.46533 0.14832 0.0
C1166 C 0.52885 0.44808 0.25119 0.0
C1167 C 0.50755 0.44088 0.19537 0.0
C1168 C 0.51167 0.44644 0.11536 0.0
C1169 C 0.53628 0.45835 0.09199 0.0
C1170 C 0.44074 0.42572 0.22343 0.0
C1171 C 0.43398 0.40789 0.28382 0.0
C1172 C 0.46404 0.4356 0.19288 0.0
C1173 C 0.48146 0.42803 0.2217 0.0
C1174 C 0.47413 0.40907 0.27915 0.0
C1175 C 0.45073 0.3991 0.30958 0.0
H1176 H 0.88489 0.72386 0.70477 0.0
H1177 H 0.80531 0.66228 0.69368 0.0
H1178 H 0.87408 0.75376 0.63714 0.0
H1179 H 0.79417 0.69267 0.62751 0.0
H1180 H 0.78397 0.74129 0.43403 0.0
H1181 H 0.79285 0.71151 0.51011 0.0
H1182 H 0.85856 0.78343 0.64451 0.0
H1183 H 0.85063 0.81322 0.5638 0.0
C1184 C 0.86497 0.71683 0.6889 0.0
C1185 C 0.84599 0.69066 0.70551 0.0
C1186 C 0.8587 0.73417 0.65019 0.0
C1187 C 0.83315 0.72609 0.62691 0.0
C1188 C 0.81409 0.69975 0.64331 0.0
C1189 C 0.82043 0.68223 0.68162 0.0
C1190 C 0.80048 0.75088 0.47936 0.0
C1191 C 0.81687 0.77987 0.49107 0.0
C1192 C 0.80539 0.73365 0.52421 0.0
C1193 C 0.82669 0.74473 0.58346 0.0
C1194 C 0.84232 0.77383 0.59822 0.0
C1195 C 0.83754 0.7911 0.55263 0.0
H1196 H 0.30173 0.02761 0.6459 0.0
H1197 H 0.35417 0.0178 0.51241 0.0
H1198 H 0.27035 0.97828 0.61182 0.0
H1199 H 0.32379 0.96885 0.48173 0.0
H1200 H 0.26022 0.88557 0.3738 0.0
H1201 H 0.28785 0.93517 0.40577 0.0
H1202 H 0.25538 0.93178 0.62637 0.0
H1203 H 0.22652 0.88175 0.59107 0.0
C1204 C 0.30679 0.01496 0.61019 0.0
C1205 C 0.33082 0.0271 0.58265 0.0
C1206 C 0.28869 0.98642 0.59059 0.0
C1207 C 0.29399 0.96888 0.54293 0.0
C1208 C 0.31822 0.98119 0.51648 0.0
C1209 C 0.33606 0.00962 0.53515 0.0
C1210 C 0.25871 0.89538 0.42885 0.0
C1211 C 0.24104 0.8794 0.47973 0.0
C1212 C 0.27496 0.92408 0.44806 0.0
C1213 C 0.27473 0.93814 0.52015 0.0
C1214 C 0.25638 0.9222 0.57011 0.0
C1215 C 0.2397 0.89333 0.54993 0.0
H1216 H 0.02205 0.25085 0.72067 0.0
H1217 H 0.98769 0.16648 0.61403 0.0
H1218 H 0.06365 0.26013 0.68998 0.0
H1219 H 0.02918 0.17564 0.58109 0.0
H1220 H 0.11051 0.19615 0.56167 0.0
H1221 H 0.07219 0.18638 0.62266 0.0
H1222 H 0.08487 0.26632 0.57576 0.0
H1223 H 0.12302 0.27607 0.51749 0.0
C1224 C 0.02356 0.2341 0.69223 0.0
C1225 C 1.00176 0.20771 0.67222 0.0
C1226 C 0.04738 0.23947 0.67341 0.0
C1227 C 0.05009 0.21872 0.63254 0.0
C1228 C 0.02818 0.19212 0.61364 0.0
C1229 C 0.00431 0.18682 0.63231 0.0
C1230 C 0.10541 0.21186 0.5665 0.0
C1231 C 0.11991 0.23691 0.53457 0.0
C1232 C 0.08321 0.20614 0.60046 0.0
C1233 C 0.07505 0.22541 0.60398 0.0
C1234 C 0.0904 0.25095 0.57544 0.0
C1235 C 0.11236 0.25656 0.54142 0.0
H1236 H 0.3976 0.20026 0.59861 0.0
H1237 H 0.32553 0.12401 0.54318 0.0
H1238 H 0.37665 0.22657 0.57554 0.0
H1239 H 0.30437 0.15066 0.5171 0.0
H1240 H 0.29868 0.2273 0.38406 0.0
H1241 H 0.31276 0.19391 0.40501 0.0
H1242 H 0.33837 0.22807 0.6537 0.0
H1243 H 0.32384 0.26042 0.63375 0.0
C1244 C 0.37713 0.18907 0.58253 0.0
C1245 C 0.36323 0.15997 0.57564 0.0
C1246 C 0.36513 0.20421 0.56855 0.0
C1247 C 0.33878 0.19089 0.54412 0.0
C1248 C 0.3247 0.16167 0.53562 0.0
C1249 C 0.33676 0.14637 0.55162 0.0
C1250 C 0.30656 0.22705 0.44366 0.0
C1251 C 0.3095 0.24628 0.50763 0.0
C1252 C 0.31476 0.20798 0.45568 0.0
C1253 C 0.32664 0.20811 0.53141 0.0
C1254 C 0.32924 0.22715 0.59485 0.0
C1255 C 0.32084 0.24575 0.58322 0.0
H1256 H 0.843 0.99905 0.29993 0.0
H1257 H 0.8038 0.97694 0.50859 0.0
H1258 H 0.87132 0.04649 0.36662 0.0
H1259 H 0.83099 0.02408 0.57405 0.0
H1260 H 0.89773 0.09944 0.70957 0.0
H1261 H 0.87233 0.05391 0.63627 0.0
H1262 H 0.87518 0.09004 0.41587 0.0
H1263 H 0.90288 0.13635 0.4904 0.0
C1264 C 0.84055 0.0044 0.36018 0.0
C1265 C 0.82183 0.98417 0.40027 0.0
C1266 C 0.85656 0.03163 0.39816 0.0
C1267 C 0.85383 0.0393 0.47654 0.0
C1268 C 0.83435 0.01901 0.51489 0.0
C1269 C 0.81864 0.9919 0.47738 0.0
C1270 C 0.89386 0.09791 0.64531 0.0
C1271 C 0.9032 0.12181 0.6062 0.0
C1272 C 0.87854 0.07155 0.60301 0.0
C1273 C 0.87131 0.06794 0.51971 0.0
C1274 C 0.88048 0.09184 0.47986 0.0
C1275 C 0.89618 0.11847 0.52269 0.0
H1276 H 0.93054 0.64169 0.72176 0.0
H1277 H 0.91452 0.70312 0.64619 0.0
H1278 H 0.97093 0.66452 0.66741 0.0
H1279 H 0.95533 0.72693 0.59403 0.0
H1280 H 0.01345 0.74355 0.42117 0.0
H1281 H 0.97678 0.72644 0.49233 0.0
H1282 H 0.01176 0.69811 0.66454 0.0
H1283 H 0.04777 0.71348 0.58878 0.0
C1284 C 0.93601 0.66047 0.69458 0.0
C1285 C 0.91971 0.67097 0.68933 0.0
C1286 C 0.95924 0.67368 0.66313 0.0
C1287 C 0.96674 0.69762 0.62456 0.0
C1288 C 0.95031 0.70823 0.62087 0.0
C1289 C 0.92695 0.69482 0.65168 0.0
C1290 C 0.01334 0.73349 0.4739 0.0
C1291 C 0.03356 0.72946 0.49773 0.0
C1292 C 0.99229 0.72404 0.51618 0.0
C1293 C 0.99067 0.71036 0.58459 0.0
C1294 C 0.01161 0.70769 0.61104 0.0
C1295 C 0.03263 0.71696 0.5681 0.0
loop_
_geom_bond_atom_site_label_1
_geom_bond_atom_site_label_2
_geom_bond_distance
_geom_bond_site_symmetry_2
_ccdc_geom_bond_type
Eu0 N31 2.657 . S
Eu0 N38 2.609 . S
Eu0 O44 2.558 . S
Eu0 O45 2.612 . S
Eu0 O47 2.339 . S
Eu0 O48 2.563 . S
Eu0 O49 2.419 . S
Eu0 O51 2.380 . S
Eu0 O52 2.432 . S
Eu0 C64 2.848 . S
C1 C4 1.429 . S
C1 C5 1.411 . S
C1 N8 1.377 . S
C2 C4 1.420 . S
C2 C6 1.423 . S
C2 C14 1.392 . S
C3 C5 1.420 . S
C3 C6 1.351 . S
C3 H26 0.931 . S
C4 C1 1.429 . S
C4 C2 1.420 . S
C4 N12 1.362 . S
C5 C1 1.411 . S
C5 C3 1.420 . S
C5 C10 1.395 . S
C6 C2 1.423 . S
C6 C3 1.351 . S
C6 H18 0.930 . S
C7 C9 1.400 . S
C7 C10 1.386 . S
C7 H19 0.930 . S
N8 C1 1.377 . S
N8 C9 1.321 . S
N8 Eu11 2.609 1_655 S
C9 C7 1.400 . S
C9 N8 1.321 . S
C9 H16 0.930 . S
C10 C5 1.395 . S
C10 C7 1.386 . S
C10 H29 0.930 . S
Eu11 N8 2.609 1_455 S
Eu11 N12 2.657 1_455 S
Eu11 O45 2.380 . S
Eu11 O46 2.432 . S
Eu11 O50 2.558 1_455 S
Eu11 O51 2.612 . S
Eu11 O53 2.339 . S
Eu11 O54 2.563 . S
Eu11 O55 2.419 1_455 S
Eu11 C75 2.848 1_455 S
N12 C4 1.362 . S
N12 Eu11 2.657 1_655 S
N12 C13 1.334 . S
C13 N12 1.334 . S
C13 C15 1.413 1_554 S
C13 H20 0.929 . S
C14 C2 1.392 . S
C14 C15 1.367 1_554 S
C14 H22 0.930 1_554 S
C15 C13 1.413 1_556 S
C15 C14 1.367 1_556 S
C15 H17 0.930 . S
H16 C9 0.930 . S
H17 C15 0.930 . S
H18 C6 0.930 . S
H19 C7 0.930 . S
H20 C13 0.929 . S
H21 C35 0.930 . S
H22 C14 0.930 1_556 S
H23 C41 0.930 . S
H24 C32 0.929 . S
H25 C39 0.930 . S
H26 C3 0.931 . S
H27 C33 0.930 . S
H28 C66 0.930 . S
H29 C10 0.930 . S
H30 C65 0.931 . S
N31 Eu0 2.657 . S
N31 C32 1.334 . S
N31 C36 1.362 . S
C32 H24 0.929 . S
C32 N31 1.334 . S
C32 C35 1.413 . S
C33 H27 0.930 . S
C33 C34 1.392 . S
C33 C35 1.367 . S
C34 C33 1.392 . S
C34 C36 1.420 . S
C34 C66 1.423 . S
C35 H21 0.930 . S
C35 C32 1.413 . S
C35 C33 1.367 . S
C36 N31 1.362 . S
C36 C34 1.420 . S
C36 C40 1.429 . S
H37 C42 0.930 . S
N38 Eu0 2.609 . S
N38 C40 1.377 . S
N38 C41 1.321 . S
C39 H25 0.930 . S
C39 C41 1.400 . S
C39 C42 1.386 . S
C40 C36 1.429 . S
C40 N38 1.377 . S
C40 C43 1.411 . S
C41 H23 0.930 . S
C41 N38 1.321 . S
C41 C39 1.400 . S
C42 H37 0.930 . S
C42 C39 1.386 . S
C42 C43 1.395 . S
C43 C40 1.411 . S
C43 C42 1.395 . S
C43 C65 1.420 . S
O44 Eu0 2.558 . S
O44 C64 1.257 . S
O45 Eu0 2.612 . S
O45 Eu11 2.380 . S
O45 C56 1.276 . S
O46 Eu11 2.432 . S
O46 C63 1.264 . S
O47 Eu0 2.339 . S
O47 C63 1.254 . S
O48 Eu0 2.563 . S
O48 C56 1.235 . S
O49 Eu0 2.419 . S
O49 C64 1.249 . S
O50 Eu11 2.558 1_655 S
O50 C75 1.257 . S
O51 Eu0 2.380 . S
O51 Eu11 2.612 . S
O51 C67 1.276 . S
O52 Eu0 2.432 . S
O52 C74 1.264 . S
O53 Eu11 2.339 . S
O53 C74 1.254 . S
O54 Eu11 2.563 . S
O54 C67 1.235 . S
O55 Eu11 2.419 1_655 S
O55 C75 1.249 . S
C56 O45 1.276 . S
C56 O48 1.235 . S
C57 C59 1.393 . S
C57 C61 1.395 . S
C57 C64 1.492 . S
C58 C59 1.392 . S
C58 C60 1.386 . S
C59 C57 1.393 . S
C59 C58 1.392 . S
C59 H76 0.930 . S
C60 C58 1.386 . S
C60 C62 1.395 . S
C60 H77 0.930 . S
C61 C57 1.395 . S
C61 C62 1.379 . S
C61 H78 0.930 . S
C62 C60 1.395 . S
C62 C61 1.379 . S
C62 H79 0.930 . S
C63 O46 1.264 . S
C63 O47 1.254 . S
C64 Eu0 2.848 . S
C64 O44 1.257 . S
C64 O49 1.249 . S
C64 C57 1.492 . S
C65 H30 0.931 . S
C65 C43 1.420 . S
C65 C66 1.351 . S
C66 H28 0.930 . S
C66 C34 1.423 . S
C66 C65 1.351 . S
C67 O51 1.276 . S
C67 O54 1.235 . S
C68 C69 1.393 . S
C68 C72 1.395 . S
C68 C75 1.492 . S
C69 C68 1.393 . S
C69 C70 1.392 . S
C69 H80 0.930 . S
C70 C69 1.392 . S
C70 C71 1.386 . S
C71 C70 1.386 . S
C71 C73 1.395 . S
C71 H81 0.930 . S
C72 C68 1.395 . S
C72 C73 1.379 . S
C72 H82 0.930 . S
C73 C71 1.395 . S
C73 C72 1.379 . S
C73 H83 0.930 . S
C74 O52 1.264 . S
C74 O53 1.254 . S
C75 Eu11 2.848 1_655 S
C75 O50 1.257 . S
C75 O55 1.249 . S
C75 C68 1.492 . S
H76 C59 0.930 . S
H77 C60 0.930 . S
H78 C61 0.930 . S
H79 C62 0.930 . S
H80 C69 0.930 . S
H81 C71 0.930 . S
H82 C72 0.930 . S
H83 C73 0.930 . S
Eu84 N115 2.657 . S
Eu84 N122 2.609 . S
Eu84 O128 2.558 . S
Eu84 O129 2.612 . S
Eu84 O131 2.339 . S
Eu84 O132 2.563 . S
Eu84 O133 2.419 . S
Eu84 O135 2.380 . S
Eu84 O136 2.432 . S
Eu84 C148 2.848 . S
C85 C88 1.429 . S
C85 C89 1.411 . S
C85 N92 1.377 . S
C86 C88 1.420 . S
C86 C90 1.423 . S
C86 C98 1.392 1_554 S
C87 C89 1.420 . S
C87 C90 1.351 . S
C87 H110 0.931 . S
C88 C85 1.429 . S
C88 C86 1.420 . S
C88 N96 1.362 . S
C89 C85 1.411 . S
C89 C87 1.420 . S
C89 C94 1.395 . S
C90 C86 1.423 . S
C90 C87 1.351 . S
C90 H102 0.930 . S
C91 C93 1.400 . S
C91 C94 1.386 . S
C91 H103 0.930 . S
N92 C85 1.377 . S
N92 C93 1.321 . S
N92 Eu95 2.609 . S
C93 C91 1.400 . S
C93 N92 1.321 . S
C93 H100 0.930 . S
C94 C89 1.395 . S
C94 C91 1.386 . S
C94 H113 0.930 . S
Eu95 N92 2.609 . S
Eu95 N96 2.657 . S
Eu95 O129 2.380 . S
Eu95 O130 2.432 . S
Eu95 O134 2.558 . S
Eu95 O135 2.612 . S
Eu95 O137 2.339 . S
Eu95 O138 2.563 . S
Eu95 O139 2.419 . S
Eu95 C159 2.848 . S
N96 C88 1.362 . S
N96 Eu95 2.657 . S
N96 C97 1.334 1_554 S
C97 N96 1.334 1_556 S
C97 C99 1.413 . S
C97 H104 0.929 . S
C98 C86 1.392 1_556 S
C98 C99 1.367 . S
C98 H106 0.930 . S
C99 C97 1.413 . S
C99 C98 1.367 . S
C99 H101 0.930 . S
H100 C93 0.930 . S
H101 C99 0.930 . S
H102 C90 0.930 . S
H103 C91 0.930 . S
H104 C97 0.929 . S
H105 C119 0.930 . S
H106 C98 0.930 . S
H107 C125 0.930 . S
H108 C116 0.929 . S
H109 C123 0.930 . S
H110 C87 0.931 . S
H111 C117 0.930 . S
H112 C150 0.930 . S
H113 C94 0.930 . S
H114 C149 0.931 . S
N115 Eu84 2.657 . S
N115 C116 1.334 . S
N115 C120 1.362 . S
C116 H108 0.929 . S
C116 N115 1.334 . S
C116 C119 1.413 . S
C117 H111 0.930 . S
C117 C118 1.392 . S
C117 C119 1.367 . S
C118 C117 1.392 . S
C118 C120 1.420 . S
C118 C150 1.423 . S
C119 H105 0.930 . S
C119 C116 1.413 . S
C119 C117 1.367 . S
C120 N115 1.362 . S
C120 C118 1.420 . S
C120 C124 1.429 . S
H121 C126 0.930 . S
N122 Eu84 2.609 . S
N122 C124 1.377 . S
N122 C125 1.321 1_554 S
C123 H109 0.930 . S
C123 C125 1.400 . S
C123 C126 1.386 . S
C124 C120 1.429 . S
C124 N122 1.377 . S
C124 C127 1.411 . S
C125 H107 0.930 . S
C125 N122 1.321 1_556 S
C125 C123 1.400 . S
C126 H121 0.930 . S
C126 C123 1.386 . S
C126 C127 1.395 1_556 S
C127 C124 1.411 . S
C127 C126 1.395 1_554 S
C127 C149 1.420 . S
O128 Eu84 2.558 . S
O128 C148 1.257 . S
O129 Eu84 2.612 . S
O129 Eu95 2.380 . S
O129 C140 1.276 . S
O130 Eu95 2.432 . S
O130 C147 1.264 . S
O131 Eu84 2.339 . S
O131 C147 1.254 . S
O132 Eu84 2.563 . S
O132 C140 1.235 . S
O133 Eu84 2.419 . S
O133 C148 1.249 . S
O134 Eu95 2.558 . S
O134 C159 1.257 . S
O135 Eu84 2.380 . S
O135 Eu95 2.612 . S
O135 C151 1.276 . S
O136 Eu84 2.432 . S
O136 C158 1.264 1_554 S
O137 Eu95 2.339 . S
O137 C158 1.254 1_554 S
O138 Eu95 2.563 . S
O138 C151 1.235 . S
O139 Eu95 2.419 . S
O139 C159 1.249 . S
C140 O129 1.276 . S
C140 O132 1.235 . S
C141 C143 1.393 . S
C141 C145 1.395 . S
C141 C148 1.492 . S
C142 C143 1.392 . S
C142 C144 1.386 . S
C143 C141 1.393 . S
C143 C142 1.392 . S
C143 H160 0.930 . S
C144 C142 1.386 . S
C144 C146 1.395 . S
C144 H161 0.930 . S
C145 C141 1.395 . S
C145 C146 1.379 . S
C145 H162 0.930 . S
C146 C144 1.395 . S
C146 C145 1.379 . S
C146 H163 0.930 . S
C147 O130 1.264 . S
C147 O131 1.254 . S
C148 Eu84 2.848 . S
C148 O128 1.257 . S
C148 O133 1.249 . S
C148 C141 1.492 . S
C149 H114 0.931 . S
C149 C127 1.420 . S
C149 C150 1.351 . S
C150 H112 0.930 . S
C150 C118 1.423 . S
C150 C149 1.351 . S
C151 O135 1.276 . S
C151 O138 1.235 . S
C152 C153 1.400 . S
C152 C156 1.395 . S
C152 C159 1.492 . S
C153 C152 1.400 . S
C153 C154 1.391 1_554 S
C153 H164 0.924 1_554 S
C154 C153 1.391 1_556 S
C154 C155 1.386 1_556 S
C155 C154 1.386 1_554 S
C155 C157 1.395 . S
C155 H165 0.930 . S
C156 C152 1.395 . S
C156 C157 1.379 . S
C156 H166 0.930 . S
C157 C155 1.395 . S
C157 C156 1.379 . S
C157 H167 0.930 . S
C158 O136 1.264 1_556 S
C158 O137 1.254 1_556 S
C159 Eu95 2.848 . S
C159 O134 1.257 . S
C159 O139 1.249 . S
C159 C152 1.492 . S
H160 C143 0.930 . S
H161 C144 0.930 . S
H162 C145 0.930 . S
H163 C146 0.930 . S
H164 C153 0.924 1_556 S
H165 C155 0.930 . S
H166 C156 0.930 . S
H167 C157 0.930 . S
Eu168 N199 2.657 1_556 S
Eu168 N206 2.609 . S
Eu168 O212 2.558 . S
Eu168 O213 2.612 . S
Eu168 O215 2.339 1_556 S
Eu168 O216 2.563 . S
Eu168 O217 2.419 1_556 S
Eu168 O219 2.380 1_556 S
Eu168 O220 2.432 . S
Eu168 C232 2.848 . S
C169 C172 1.429 1_554 S
C169 C173 1.411 . S
C169 N176 1.377 . S
C170 C172 1.420 . S
C170 C174 1.423 . S
C170 C182 1.392 . S
C171 C173 1.420 . S
C171 C174 1.351 1_554 S
C171 H194 0.931 . S
C172 C169 1.429 1_556 S
C172 C170 1.420 . S
C172 N180 1.362 . S
C173 C169 1.411 . S
C173 C171 1.420 . S
C173 C178 1.395 . S
C174 C170 1.423 . S
C174 C171 1.351 1_556 S
C174 H186 0.930 . S
C175 C177 1.400 . S
C175 C178 1.386 . S
C175 H187 0.930 . S
N176 C169 1.377 . S
N176 C177 1.321 . S
N176 Eu179 2.609 . S
C177 C175 1.400 . S
C177 N176 1.321 . S
C177 H184 0.930 . S
C178 C173 1.395 . S
C178 C175 1.386 . S
C178 H197 0.930 . S
Eu179 N176 2.609 . S
Eu179 N180 2.657 1_554 S
Eu179 O213 2.380 1_554 S
Eu179 O214 2.432 . S
Eu179 O218 2.558 . S
Eu179 O219 2.612 . S
Eu179 O221 2.339 1_554 S
Eu179 O222 2.563 . S
Eu179 O223 2.419 1_554 S
Eu179 C243 2.848 . S
N180 C172 1.362 . S
N180 Eu179 2.657 1_556 S
N180 C181 1.334 . S
C181 N180 1.334 . S
C181 C183 1.413 . S
C181 H188 0.929 . S
C182 C170 1.392 . S
C182 C183 1.367 . S
C182 H190 0.930 . S
C183 C181 1.413 . S
C183 C182 1.367 . S
C183 H185 0.930 . S
H184 C177 0.930 . S
H185 C183 0.930 . S
H186 C174 0.930 . S
H187 C175 0.930 . S
H188 C181 0.929 . S
H189 C203 0.930 . S
H190 C182 0.930 . S
H191 C209 0.930 . S
H192 C200 0.929 . S
H193 C207 0.930 . S
H194 C171 0.931 . S
H195 C201 0.930 . S
H196 C234 0.930 . S
H197 C178 0.930 . S
H198 C233 0.931 . S
N199 Eu168 2.657 1_554 S
N199 C200 1.334 . S
N199 C204 1.343 1_545 S
C200 H192 0.929 . S
C200 N199 1.334 . S
C200 C203 1.413 . S
C201 H195 0.930 . S
C201 C202 1.392 . S
C201 C203 1.367 1_565 S
C202 C201 1.392 . S
C202 C204 1.439 . S
C202 C234 1.423 . S
C203 H189 0.930 . S
C203 C200 1.413 . S
C203 C201 1.367 1_545 S
C204 N199 1.343 1_565 S
C204 C202 1.439 . S
C204 C208 1.429 1_554 S
H205 C210 0.930 . S
N206 Eu168 2.609 . S
N206 C208 1.377 1_545 S
N206 C209 1.321 . S
C207 H193 0.930 . S
C207 C209 1.400 1_565 S
C207 C210 1.386 . S
C208 C204 1.429 1_556 S
C208 N206 1.377 1_565 S
C208 C211 1.411 . S
C209 H191 0.930 . S
C209 N206 1.321 . S
C209 C207 1.400 1_545 S
C210 H205 0.930 . S
C210 C207 1.386 . S
C210 C211 1.395 . S
C211 C208 1.411 . S
C211 C210 1.395 . S
C211 C233 1.420 . S
O212 Eu168 2.558 . S
O212 C232 1.257 . S
O213 Eu168 2.612 . S
O213 Eu179 2.380 1_556 S
O213 C224 1.276 . S
O214 Eu179 2.432 . S
O214 C231 1.264 . S
O215 Eu168 2.339 1_554 S
O215 C231 1.254 . S
O216 Eu168 2.563 . S
O216 C224 1.235 . S
O217 Eu168 2.419 1_554 S
O217 C232 1.249 1_554 S
O218 Eu179 2.558 . S
O218 C243 1.257 . S
O219 Eu168 2.380 1_554 S
O219 Eu179 2.612 . S
O219 C235 1.276 . S
O220 Eu168 2.432 . S
O220 C242 1.264 . S
O221 Eu179 2.339 1_556 S
O221 C242 1.254 . S
O222 Eu179 2.563 . S
O222 C235 1.235 . S
O223 Eu179 2.419 1_556 S
O223 C243 1.249 1_556 S
C224 O213 1.276 . S
C224 O216 1.235 . S
C225 C227 1.393 1_556 S
C225 C229 1.395 1_545 S
C225 C232 1.492 . S
C226 C227 1.392 1_565 S
C226 C228 1.394 . S
C227 C225 1.393 1_554 S
C227 C226 1.392 1_545 S
C227 H244 0.930 . S
C228 C226 1.394 . S
C228 C230 1.384 1_554 S
C228 H245 0.933 . S
C229 C225 1.395 1_565 S
C229 C230 1.379 . S
C229 H246 0.930 . S
C230 C228 1.384 1_556 S
C230 C229 1.379 . S
C230 H247 0.930 . S
C231 O214 1.264 . S
C231 O215 1.254 . S
C232 Eu168 2.848 . S
C232 O212 1.257 . S
C232 O217 1.249 1_556 S
C232 C225 1.492 . S
C233 H198 0.931 . S
C233 C211 1.420 . S
C233 C234 1.351 1_556 S
C234 H196 0.930 . S
C234 C202 1.423 . S
C234 C233 1.351 1_554 S
C235 O219 1.276 . S
C235 O222 1.235 . S
C236 C237 1.393 1_554 S
C236 C240 1.395 . S
C236 C243 1.492 . S
C237 C236 1.393 1_556 S
C237 C238 1.392 . S
C237 H248 0.930 . S
C238 C237 1.392 . S
C238 C239 1.392 . S
C239 C238 1.392 . S
C239 C241 1.387 1_556 S
C239 H249 0.932 . S
C240 C236 1.395 . S
C240 C241 1.379 . S
C240 H250 0.930 . S
C241 C239 1.387 1_554 S
C241 C240 1.379 . S
C241 H251 0.930 . S
C242 O220 1.264 . S
C242 O221 1.254 . S
C243 Eu179 2.848 . S
C243 O218 1.257 . S
C243 O223 1.249 1_554 S
C243 C236 1.492 . S
H244 C227 0.930 . S
H245 C228 0.933 . S
H246 C229 0.930 . S
H247 C230 0.930 . S
H248 C237 0.930 . S
H249 C239 0.932 . S
H250 C240 0.930 . S
H251 C241 0.930 . S
Eu252 N283 2.657 . S
Eu252 N290 2.609 . S
Eu252 O296 2.558 . S
Eu252 O297 2.612 . S
Eu252 O299 2.339 . S
Eu252 O300 2.563 . S
Eu252 O301 2.419 . S
Eu252 O303 2.380 . S
Eu252 O304 2.432 . S
Eu252 C316 2.848 . S
C253 C256 1.429 . S
C253 C257 1.411 . S
C253 N260 1.377 . S
C254 C256 1.420 . S
C254 C258 1.423 . S
C254 C266 1.392 . S
C255 C257 1.420 . S
C255 C258 1.351 . S
C255 H278 0.931 . S
C256 C253 1.429 . S
C256 C254 1.420 . S
C256 N264 1.362 . S
C257 C253 1.411 . S
C257 C255 1.420 . S
C257 C262 1.395 . S
C258 C254 1.423 . S
C258 C255 1.351 . S
C258 H270 0.930 . S
C259 C261 1.400 . S
C259 C262 1.386 . S
C259 H271 0.930 . S
N260 C253 1.377 . S
N260 C261 1.321 . S
N260 Eu263 2.609 . S
C261 C259 1.400 . S
C261 N260 1.321 . S
C261 H268 0.930 . S
C262 C257 1.395 . S
C262 C259 1.386 . S
C262 H281 0.930 . S
Eu263 N260 2.609 . S
Eu263 N264 2.657 . S
Eu263 O297 2.380 . S
Eu263 O298 2.432 . S
Eu263 O302 2.558 . S
Eu263 O303 2.612 . S
Eu263 O305 2.339 . S
Eu263 O306 2.563 . S
Eu263 O307 2.419 . S
Eu263 C327 2.848 . S
N264 C256 1.362 . S
N264 Eu263 2.657 . S
N264 C265 1.334 . S
C265 N264 1.334 . S
C265 C267 1.413 . S
C265 H272 0.929 . S
C266 C254 1.392 . S
C266 C267 1.367 . S
C266 H274 0.930 . S
C267 C265 1.413 . S
C267 C266 1.367 . S
C267 H269 0.930 . S
H268 C261 0.930 . S
H269 C267 0.930 . S
H270 C258 0.930 . S
H271 C259 0.930 . S
H272 C265 0.929 . S
H273 C287 0.930 . S
H274 C266 0.930 . S
H275 C293 0.930 . S
H276 C284 0.929 . S
H277 C291 0.930 . S
H278 C255 0.931 . S
H279 C285 0.930 . S
H280 C318 0.930 . S
H281 C262 0.930 . S
H282 C317 0.931 . S
N283 Eu252 2.657 . S
N283 C284 1.334 . S
N283 C288 1.362 . S
C284 H276 0.929 . S
C284 N283 1.334 . S
C284 C287 1.413 . S
C285 H279 0.930 . S
C285 C286 1.392 1_545 S
C285 C287 1.367 1_545 S
C286 C285 1.392 1_565 S
C286 C288 1.420 . S
C286 C318 1.423 1_565 S
C287 H273 0.930 . S
C287 C284 1.413 . S
C287 C285 1.367 1_565 S
C288 N283 1.362 . S
C288 C286 1.420 . S
C288 C292 1.429 . S
H289 C294 0.930 . S
N290 Eu252 2.609 . S
N290 C292 1.377 . S
N290 C293 1.321 . S
C291 H277 0.930 . S
C291 C293 1.400 . S
C291 C294 1.386 . S
C292 C288 1.429 . S
C292 N290 1.377 . S
C292 C295 1.411 . S
C293 H275 0.930 . S
C293 N290 1.321 . S
C293 C291 1.400 . S
C294 H289 0.930 . S
C294 C291 1.386 . S
C294 C295 1.395 . S
C295 C292 1.411 . S
C295 C294 1.395 . S
C295 C317 1.420 1_565 S
O296 Eu252 2.558 . S
O296 C316 1.257 . S
O297 Eu252 2.612 . S
O297 Eu263 2.380 . S
O297 C308 1.276 . S
O298 Eu263 2.432 . S
O298 C315 1.264 . S
O299 Eu252 2.339 . S
O299 C315 1.254 . S
O300 Eu252 2.563 . S
O300 C308 1.235 . S
O301 Eu252 2.419 . S
O301 C316 1.249 . S
O302 Eu263 2.558 . S
O302 C327 1.257 . S
O303 Eu252 2.380 . S
O303 Eu263 2.612 . S
O303 C319 1.276 . S
O304 Eu252 2.432 . S
O304 C326 1.264 . S
O305 Eu263 2.339 . S
O305 C326 1.254 . S
O306 Eu263 2.563 . S
O306 C319 1.235 . S
O307 Eu263 2.419 . S
O307 C327 1.249 . S
C308 O297 1.276 . S
C308 O300 1.235 . S
C309 C311 1.393 . S
C309 C313 1.395 . S
C309 C316 1.492 . S
C310 C311 1.392 . S
C310 C312 1.386 . S
C311 C309 1.393 . S
C311 C310 1.392 . S
C311 H328 0.930 . S
C312 C310 1.386 . S
C312 C314 1.395 . S
C312 H329 0.930 . S
C313 C309 1.395 . S
C313 C314 1.379 . S
C313 H330 0.930 . S
C314 C312 1.395 . S
C314 C313 1.379 . S
C314 H331 0.930 . S
C315 O298 1.264 . S
C315 O299 1.254 . S
C316 Eu252 2.848 . S
C316 O296 1.257 . S
C316 O301 1.249 . S
C316 C309 1.492 . S
C317 H282 0.931 . S
C317 C295 1.420 1_545 S
C317 C318 1.351 . S
C318 H280 0.930 . S
C318 C286 1.423 1_545 S
C318 C317 1.351 . S
C319 O303 1.276 . S
C319 O306 1.235 . S
C320 C321 1.393 . S
C320 C324 1.395 . S
C320 C327 1.492 . S
C321 C320 1.393 . S
C321 C322 1.392 . S
C321 H332 0.930 . S
C322 C321 1.392 . S
C322 C323 1.386 . S
C323 C322 1.386 . S
C323 C325 1.395 . S
C323 H333 0.930 1_565 S
C324 C320 1.395 . S
C324 C325 1.379 . S
C324 H334 0.930 . S
C325 C323 1.395 . S
C325 C324 1.379 . S
C325 H335 0.930 . S
C326 O304 1.264 . S
C326 O305 1.254 . S
C327 Eu263 2.848 . S
C327 O302 1.257 . S
C327 O307 1.249 . S
C327 C320 1.492 . S
H328 C311 0.930 . S
H329 C312 0.930 . S
H330 C313 0.930 . S
H331 C314 0.930 . S
H332 C321 0.930 . S
H333 C323 0.930 1_545 S
H334 C324 0.930 . S
H335 C325 0.930 . S
Eu336 N367 2.657 . S
Eu336 N374 2.609 . S
Eu336 O380 2.558 . S
Eu336 O381 2.612 . S
Eu336 O383 2.339 . S
Eu336 O384 2.563 . S
Eu336 O385 2.419 . S
Eu336 O387 2.380 . S
Eu336 O388 2.432 . S
Eu336 C400 2.848 . S
C337 C340 1.429 . S
C337 C341 1.411 . S
C337 N344 1.377 . S
C338 C340 1.420 . S
C338 C342 1.423 . S
C338 C350 1.392 . S
C339 C341 1.420 . S
C339 C342 1.351 . S
C339 H362 0.931 . S
C340 C337 1.429 . S
C340 C338 1.420 . S
C340 N348 1.362 . S
C341 C337 1.411 . S
C341 C339 1.420 . S
C341 C346 1.395 . S
C342 C338 1.423 . S
C342 C339 1.351 . S
C342 H354 0.930 . S
C343 C345 1.400 . S
C343 C346 1.386 . S
C343 H355 0.930 . S
N344 C337 1.377 . S
N344 C345 1.321 . S
N344 Eu347 2.609 . S
C345 C343 1.400 . S
C345 N344 1.321 . S
C345 H352 0.930 . S
C346 C341 1.395 . S
C346 C343 1.386 . S
C346 H365 0.930 . S
Eu347 N344 2.609 . S
Eu347 N348 2.657 . S
Eu347 O381 2.380 . S
Eu347 O382 2.432 . S
Eu347 O386 2.558 . S
Eu347 O387 2.612 . S
Eu347 O389 2.339 . S
Eu347 O390 2.563 . S
Eu347 O391 2.419 . S
Eu347 C411 2.848 . S
N348 C340 1.362 . S
N348 Eu347 2.657 . S
N348 C349 1.334 . S
C349 N348 1.334 . S
C349 C351 1.413 . S
C349 H356 0.929 . S
C350 C338 1.392 . S
C350 C351 1.367 . S
C350 H358 0.930 . S
C351 C349 1.413 . S
C351 C350 1.367 . S
C351 H353 0.930 . S
H352 C345 0.930 . S
H353 C351 0.930 . S
H354 C342 0.930 . S
H355 C343 0.930 . S
H356 C349 0.929 . S
H357 C371 0.930 1_556 S
H358 C350 0.930 . S
H359 C377 0.930 . S
H360 C368 0.929 . S
H361 C375 0.930 . S
H362 C339 0.931 . S
H363 C369 0.930 . S
H364 C402 0.930 . S
H365 C346 0.930 . S
H366 C401 0.931 1_556 S
N367 Eu336 2.657 . S
N367 C368 1.334 . S
N367 C372 1.362 . S
C368 H360 0.929 . S
C368 N367 1.334 . S
C368 C371 1.413 . S
C369 H363 0.930 . S
C369 C370 1.392 1_556 S
C369 C371 1.367 1_556 S
C370 C369 1.392 1_554 S
C370 C372 1.420 . S
C370 C402 1.423 1_554 S
C371 H357 0.930 1_554 S
C371 C368 1.413 . S
C371 C369 1.367 1_554 S
C372 N367 1.362 . S
C372 C370 1.420 . S
C372 C376 1.429 . S
H373 C378 0.930 . S
N374 Eu336 2.609 . S
N374 C376 1.377 . S
N374 C377 1.321 . S
C375 H361 0.930 . S
C375 C377 1.400 . S
C375 C378 1.386 . S
C376 C372 1.429 . S
C376 N374 1.377 . S
C376 C379 1.411 . S
C377 H359 0.930 . S
C377 N374 1.321 . S
C377 C375 1.400 . S
C378 H373 0.930 . S
C378 C375 1.386 . S
C378 C379 1.395 . S
C379 C376 1.411 . S
C379 C378 1.395 . S
C379 C401 1.420 . S
O380 Eu336 2.558 . S
O380 C400 1.257 . S
O381 Eu336 2.612 . S
O381 Eu347 2.380 . S
O381 C392 1.276 . S
O382 Eu347 2.432 . S
O382 C399 1.264 . S
O383 Eu336 2.339 . S
O383 C399 1.254 . S
O384 Eu336 2.563 . S
O384 C392 1.235 . S
O385 Eu336 2.419 . S
O385 C400 1.249 . S
O386 Eu347 2.558 . S
O386 C411 1.257 . S
O387 Eu336 2.380 . S
O387 Eu347 2.612 . S
O387 C403 1.276 . S
O388 Eu336 2.432 . S
O388 C410 1.264 . S
O389 Eu347 2.339 . S
O389 C410 1.254 . S
O390 Eu347 2.563 . S
O390 C403 1.235 . S
O391 Eu347 2.419 . S
O391 C411 1.249 . S
C392 O381 1.276 . S
C392 O384 1.235 . S
C393 C395 1.393 . S
C393 C397 1.395 . S
C393 C400 1.492 . S
C394 C395 1.392 . S
C394 C396 1.386 . S
C395 C393 1.393 . S
C395 C394 1.392 . S
C395 H412 0.930 . S
C396 C394 1.386 . S
C396 C398 1.395 . S
C396 H413 0.974 . S
C397 C393 1.395 . S
C397 C398 1.379 . S
C397 H414 0.930 . S
C398 C396 1.395 . S
C398 C397 1.379 . S
C398 H415 0.930 . S
C399 O382 1.264 . S
C399 O383 1.254 . S
C400 Eu336 2.848 . S
C400 O380 1.257 . S
C400 O385 1.249 . S
C400 C393 1.492 . S
C401 H366 0.931 1_554 S
C401 C379 1.420 . S
C401 C402 1.351 1_554 S
C402 H364 0.930 . S
C402 C370 1.423 1_556 S
C402 C401 1.351 1_556 S
C403 O387 1.276 . S
C403 O390 1.235 . S
C404 C405 1.393 . S
C404 C408 1.395 . S
C404 C411 1.492 . S
C405 C404 1.393 . S
C405 C406 1.392 . S
C405 H416 0.930 . S
C406 C405 1.392 . S
C406 C407 1.386 . S
C407 C406 1.386 . S
C407 C409 1.395 . S
C407 H417 0.930 . S
C408 C404 1.395 . S
C408 C409 1.379 . S
C408 H418 0.930 . S
C409 C407 1.395 . S
C409 C408 1.379 . S
C409 H419 0.930 . S
C410 O388 1.264 . S
C410 O389 1.254 . S
C411 Eu347 2.848 . S
C411 O386 1.257 . S
C411 O391 1.249 . S
C411 C404 1.492 . S
H412 C395 0.930 . S
H413 C396 0.974 . S
H414 C397 0.930 . S
H415 C398 0.930 . S
H416 C405 0.930 . S
H417 C407 0.930 . S
H418 C408 0.930 . S
H419 C409 0.930 . S
Eu420 N451 2.657 . S
Eu420 N458 2.609 . S
Eu420 O464 2.558 . S
Eu420 O465 2.612 . S
Eu420 O467 2.339 . S
Eu420 O468 2.563 . S
Eu420 O469 2.419 . S
Eu420 O471 2.380 . S
Eu420 O472 2.432 . S
Eu420 C484 2.848 . S
C421 C424 1.429 . S
C421 C425 1.411 . S
C421 N428 1.377 . S
C422 C424 1.420 . S
C422 C426 1.423 . S
C422 C434 1.392 . S
C423 C425 1.420 . S
C423 C426 1.351 . S
C423 H446 0.931 . S
C424 C421 1.429 . S
C424 C422 1.420 . S
C424 N432 1.362 . S
C425 C421 1.411 . S
C425 C423 1.420 . S
C425 C430 1.395 . S
C426 C422 1.423 . S
C426 C423 1.351 . S
C426 H438 0.930 . S
C427 C429 1.400 . S
C427 C430 1.386 . S
C427 H439 0.930 . S
N428 C421 1.377 . S
N428 C429 1.321 . S
N428 Eu431 2.609 . S
C429 C427 1.400 . S
C429 N428 1.321 . S
C429 H436 0.930 . S
C430 C425 1.395 . S
C430 C427 1.386 . S
C430 H449 0.930 . S
Eu431 N428 2.609 . S
Eu431 N432 2.657 . S
Eu431 O465 2.380 . S
Eu431 O466 2.432 . S
Eu431 O470 2.558 . S
Eu431 O471 2.612 . S
Eu431 O473 2.339 . S
Eu431 O474 2.563 . S
Eu431 O475 2.419 . S
Eu431 C495 2.848 . S
N432 C424 1.362 . S
N432 Eu431 2.657 . S
N432 C433 1.334 . S
C433 N432 1.334 . S
C433 C435 1.413 . S
C433 H440 0.929 . S
C434 C422 1.392 . S
C434 C435 1.367 . S
C434 H442 0.930 . S
C435 C433 1.413 . S
C435 C434 1.367 . S
C435 H437 0.930 . S
H436 C429 0.930 . S
H437 C435 0.930 . S
H438 C426 0.930 . S
H439 C427 0.930 . S
H440 C433 0.929 . S
H441 C455 0.930 . S
H442 C434 0.930 . S
H443 C461 0.930 . S
H444 C452 0.929 . S
H445 C459 0.930 1_556 S
H446 C423 0.931 . S
H447 C453 0.930 . S
H448 C486 0.930 . S
H449 C430 0.930 . S
H450 C485 0.931 . S
N451 Eu420 2.657 . S
N451 C452 1.334 . S
N451 C456 1.362 . S
C452 H444 0.929 . S
C452 N451 1.334 . S
C452 C455 1.413 . S
C453 H447 0.930 . S
C453 C454 1.392 . S
C453 C455 1.367 . S
C454 C453 1.392 . S
C454 C456 1.420 . S
C454 C486 1.423 . S
C455 H441 0.930 . S
C455 C452 1.413 . S
C455 C453 1.367 . S
C456 N451 1.362 . S
C456 C454 1.420 . S
C456 C460 1.429 . S
H457 C462 0.930 . S
N458 Eu420 2.609 . S
N458 C460 1.377 . S
N458 C461 1.321 . S
C459 H445 0.930 1_554 S
C459 C461 1.400 . S
C459 C462 1.386 . S
C460 C456 1.429 . S
C460 N458 1.377 . S
C460 C463 1.411 . S
C461 H443 0.930 . S
C461 N458 1.321 . S
C461 C459 1.400 . S
C462 H457 0.930 . S
C462 C459 1.386 . S
C462 C463 1.395 . S
C463 C460 1.411 . S
C463 C462 1.395 . S
C463 C485 1.420 . S
O464 Eu420 2.558 . S
O464 C484 1.257 . S
O465 Eu420 2.612 . S
O465 Eu431 2.380 . S
O465 C476 1.276 . S
O466 Eu431 2.432 . S
O466 C483 1.264 . S
O467 Eu420 2.339 . S
O467 C483 1.254 . S
O468 Eu420 2.563 . S
O468 C476 1.235 . S
O469 Eu420 2.419 . S
O469 C484 1.249 . S
O470 Eu431 2.558 . S
O470 C495 1.257 . S
O471 Eu420 2.380 . S
O471 Eu431 2.612 . S
O471 C487 1.276 . S
O472 Eu420 2.432 . S
O472 C494 1.264 . S
O473 Eu431 2.339 . S
O473 C494 1.254 . S
O474 Eu431 2.563 . S
O474 C487 1.235 . S
O475 Eu431 2.419 . S
O475 C495 1.249 . S
C476 O465 1.276 . S
C476 O468 1.235 . S
C477 C479 1.393 . S
C477 C481 1.395 . S
C477 C484 1.492 . S
C478 C479 1.392 . S
C478 C480 1.386 . S
C479 C477 1.393 . S
C479 C478 1.392 . S
C479 H496 0.930 . S
C480 C478 1.386 . S
C480 C482 1.395 . S
C480 H497 0.930 . S
C481 C477 1.395 . S
C481 C482 1.379 . S
C481 H498 0.930 . S
C482 C480 1.395 . S
C482 C481 1.379 . S
C482 H499 0.930 . S
C483 O466 1.264 . S
C483 O467 1.254 . S
C484 Eu420 2.848 . S
C484 O464 1.257 . S
C484 O469 1.249 . S
C484 C477 1.492 . S
C485 H450 0.931 . S
C485 C463 1.420 . S
C485 C486 1.351 . S
C486 H448 0.930 . S
C486 C454 1.423 . S
C486 C485 1.351 . S
C487 O471 1.276 . S
C487 O474 1.235 . S
C488 C489 1.393 . S
C488 C492 1.395 . S
C488 C495 1.492 . S
C489 C488 1.393 . S
C489 C490 1.392 . S
C489 H500 0.930 . S
C490 C489 1.392 . S
C490 C491 1.386 . S
C491 C490 1.386 . S
C491 C493 1.395 . S
C491 H501 0.930 . S
C492 C488 1.395 . S
C492 C493 1.379 . S
C492 H502 0.930 . S
C493 C491 1.395 . S
C493 C492 1.379 . S
C493 H503 0.930 . S
C494 O472 1.264 . S
C494 O473 1.254 . S
C495 Eu431 2.848 . S
C495 O470 1.257 . S
C495 O475 1.249 . S
C495 C488 1.492 . S
H496 C479 0.930 . S
H497 C480 0.930 . S
H498 C481 0.930 . S
H499 C482 0.930 . S
H500 C489 0.930 . S
H501 C491 0.930 . S
H502 C492 0.930 . S
H503 C493 0.930 . S
Eu504 N535 2.657 . S
Eu504 N542 2.609 . S
Eu504 O548 2.558 . S
Eu504 O549 2.612 . S
Eu504 O551 2.339 . S
Eu504 O552 2.563 . S
Eu504 O553 2.419 . S
Eu504 O555 2.380 . S
Eu504 O556 2.432 . S
Eu504 C568 2.848 . S
C505 C508 1.429 . S
C505 C509 1.411 . S
C505 N512 1.377 . S
C506 C508 1.420 . S
C506 C510 1.423 . S
C506 C518 1.392 . S
C507 C509 1.420 . S
C507 C510 1.351 . S
C507 H530 0.931 . S
C508 C505 1.429 . S
C508 C506 1.420 . S
C508 N516 1.362 . S
C509 C505 1.411 . S
C509 C507 1.420 . S
C509 C514 1.395 . S
C510 C506 1.423 . S
C510 C507 1.351 . S
C510 H522 0.930 . S
C511 C513 1.400 . S
C511 C514 1.386 . S
C511 H523 0.930 . S
N512 C505 1.377 . S
N512 C513 1.321 . S
N512 Eu515 2.609 . S
C513 C511 1.400 . S
C513 N512 1.321 . S
C513 H520 0.930 . S
C514 C509 1.395 . S
C514 C511 1.386 . S
C514 H533 0.930 . S
Eu515 N512 2.609 . S
Eu515 N516 2.657 . S
Eu515 O549 2.380 . S
Eu515 O550 2.432 . S
Eu515 O554 2.558 . S
Eu515 O555 2.612 . S
Eu515 O557 2.339 . S
Eu515 O558 2.563 . S
Eu515 O559 2.419 . S
Eu515 C579 2.848 . S
N516 C508 1.362 . S
N516 Eu515 2.657 . S
N516 C517 1.334 . S
C517 N516 1.334 . S
C517 C519 1.413 . S
C517 H524 0.929 . S
C518 C506 1.392 . S
C518 C519 1.367 . S
C518 H526 0.930 . S
C519 C517 1.413 . S
C519 C518 1.367 . S
C519 H521 0.930 . S
H520 C513 0.930 . S
H521 C519 0.930 . S
H522 C510 0.930 . S
H523 C511 0.930 . S
H524 C517 0.929 . S
H525 C539 0.930 . S
H526 C518 0.930 . S
H527 C545 0.930 . S
H528 C536 0.929 . S
H529 C543 0.930 . S
H530 C507 0.931 . S
H531 C537 0.930 . S
H532 C570 0.930 . S
H533 C514 0.930 . S
H534 C569 0.931 . S
N535 Eu504 2.657 . S
N535 C536 1.334 . S
N535 C540 1.362 . S
C536 H528 0.929 . S
C536 N535 1.334 . S
C536 C539 1.413 . S
C537 H531 0.930 . S
C537 C538 1.392 . S
C537 C539 1.367 . S
C538 C537 1.392 . S
C538 C540 1.420 . S
C538 C570 1.423 . S
C539 H525 0.930 . S
C539 C536 1.413 . S
C539 C537 1.367 . S
C540 N535 1.362 . S
C540 C538 1.420 . S
C540 C544 1.429 . S
H541 C546 0.930 . S
N542 Eu504 2.609 . S
N542 C544 1.377 . S
N542 C545 1.321 . S
C543 H529 0.930 . S
C543 C545 1.400 . S
C543 C546 1.386 . S
C544 C540 1.429 . S
C544 N542 1.377 . S
C544 C547 1.411 . S
C545 H527 0.930 . S
C545 N542 1.321 . S
C545 C543 1.400 . S
C546 H541 0.930 . S
C546 C543 1.386 . S
C546 C547 1.395 . S
C547 C544 1.411 . S
C547 C546 1.395 . S
C547 C569 1.420 . S
O548 Eu504 2.558 . S
O548 C568 1.257 . S
O549 Eu504 2.612 . S
O549 Eu515 2.380 . S
O549 C560 1.276 . S
O550 Eu515 2.432 . S
O550 C567 1.264 . S
O551 Eu504 2.339 . S
O551 C567 1.254 . S
O552 Eu504 2.563 . S
O552 C560 1.235 . S
O553 Eu504 2.419 . S
O553 C568 1.249 . S
O554 Eu515 2.558 . S
O554 C579 1.257 . S
O555 Eu504 2.380 . S
O555 Eu515 2.612 . S
O555 C571 1.276 . S
O556 Eu504 2.432 . S
O556 C578 1.264 . S
O557 Eu515 2.339 . S
O557 C578 1.254 . S
O558 Eu515 2.563 . S
O558 C571 1.235 . S
O559 Eu515 2.419 . S
O559 C579 1.249 . S
C560 O549 1.276 . S
C560 O552 1.235 . S
C561 C563 1.393 . S
C561 C565 1.395 . S
C561 C568 1.492 . S
C562 C563 1.392 . S
C562 C564 1.386 . S
C563 C561 1.393 . S
C563 C562 1.392 . S
C563 H580 0.930 . S
C564 C562 1.386 . S
C564 C566 1.395 . S
C564 H581 0.930 . S
C565 C561 1.395 . S
C565 C566 1.379 . S
C565 H582 0.930 . S
C566 C564 1.395 . S
C566 C565 1.379 . S
C566 H583 0.930 . S
C567 O550 1.264 . S
C567 O551 1.254 . S
C568 Eu504 2.848 . S
C568 O548 1.257 . S
C568 O553 1.249 . S
C568 C561 1.492 . S
C569 H534 0.931 . S
C569 C547 1.420 . S
C569 C570 1.351 . S
C570 H532 0.930 . S
C570 C538 1.423 . S
C570 C569 1.351 . S
C571 O555 1.276 . S
C571 O558 1.235 . S
C572 C573 1.393 . S
C572 C576 1.395 . S
C572 C579 1.492 . S
C573 C572 1.393 . S
C573 C574 1.392 . S
C573 H584 0.930 . S
C574 C573 1.392 . S
C574 C575 1.386 . S
C575 C574 1.386 . S
C575 C577 1.395 . S
C575 H585 0.930 1_556 S
C576 C572 1.395 . S
C576 C577 1.379 . S
C576 H586 0.930 . S
C577 C575 1.395 . S
C577 C576 1.379 . S
C577 H587 0.930 . S
C578 O556 1.264 . S
C578 O557 1.254 . S
C579 Eu515 2.848 . S
C579 O554 1.257 . S
C579 O559 1.249 . S
C579 C572 1.492 . S
H580 C563 0.930 . S
H581 C564 0.930 . S
H582 C565 0.930 . S
H583 C566 0.930 . S
H584 C573 0.930 . S
H585 C575 0.930 1_554 S
H586 C576 0.930 . S
H587 C577 0.930 . S
Eu588 N619 2.633 1_655 S
Eu588 N626 2.609 . S
Eu588 O632 2.558 . S
Eu588 O633 2.612 . S
Eu588 O635 2.339 . S
Eu588 O636 2.563 . S
Eu588 O637 2.419 . S
Eu588 O639 2.380 . S
Eu588 O640 2.432 . S
Eu588 C652 2.848 . S
C589 C592 1.429 . S
C589 C593 1.411 . S
C589 N596 1.377 . S
C590 C592 1.420 . S
C590 C594 1.423 . S
C590 C602 1.392 . S
C591 C593 1.420 . S
C591 C594 1.351 . S
C591 H614 0.931 . S
C592 C589 1.429 . S
C592 C590 1.420 . S
C592 N600 1.362 . S
C593 C589 1.411 . S
C593 C591 1.420 . S
C593 C598 1.395 . S
C594 C590 1.423 . S
C594 C591 1.351 . S
C594 H606 0.930 . S
C595 C597 1.400 . S
C595 C598 1.386 . S
C595 H607 0.930 . S
N596 C589 1.377 . S
N596 C597 1.321 . S
N596 Eu599 2.609 . S
C597 C595 1.400 . S
C597 N596 1.321 . S
C597 H604 0.930 . S
C598 C593 1.395 . S
C598 C595 1.386 . S
C598 H617 0.930 . S
Eu599 N596 2.609 . S
Eu599 N600 2.657 . S
Eu599 O633 2.380 . S
Eu599 O634 2.432 . S
Eu599 O638 2.558 . S
Eu599 O639 2.612 . S
Eu599 O641 2.339 . S
Eu599 O642 2.563 . S
Eu599 O643 2.419 . S
Eu599 C663 2.848 . S
N600 C592 1.362 . S
N600 Eu599 2.657 . S
N600 C601 1.334 . S
C601 N600 1.334 . S
C601 C603 1.413 . S
C601 H608 0.929 . S
C602 C590 1.392 . S
C602 C603 1.367 . S
C602 H610 0.930 . S
C603 C601 1.413 . S
C603 C602 1.367 . S
C603 H605 0.930 . S
H604 C597 0.930 . S
H605 C603 0.930 . S
H606 C594 0.930 . S
H607 C595 0.930 . S
H608 C601 0.929 . S
H609 C623 0.930 . S
H610 C602 0.930 . S
H611 C629 0.930 . S
H612 C620 0.929 . S
H613 C627 0.930 . S
H614 C591 0.931 . S
H615 C621 0.930 . S
H616 C654 0.930 . S
H617 C598 0.930 . S
H618 C653 0.931 . S
N619 Eu588 2.633 1_455 S
N619 C620 1.336 . S
N619 C624 1.385 . S
C620 H612 0.929 . S
C620 N619 1.336 . S
C620 C623 1.413 . S
C621 H615 0.930 . S
C621 C622 1.392 . S
C621 C623 1.367 . S
C622 C621 1.392 . S
C622 C624 1.420 . S
C622 C654 1.423 . S
C623 H609 0.930 . S
C623 C620 1.413 . S
C623 C621 1.367 . S
C624 N619 1.385 . S
C624 C622 1.420 . S
C624 C628 1.429 1_455 S
H625 C630 0.973 . S
N626 Eu588 2.609 . S
N626 C628 1.377 . S
N626 C629 1.321 . S
C627 H613 0.930 . S
C627 C629 1.400 . S
C627 C630 1.386 . S
C628 C624 1.429 1_655 S
C628 N626 1.377 . S
C628 C631 1.411 1_655 S
C629 H611 0.930 . S
C629 N626 1.321 . S
C629 C627 1.400 . S
C630 H625 0.973 . S
C630 C627 1.386 . S
C630 C631 1.395 1_655 S
C631 C628 1.411 1_455 S
C631 C630 1.395 1_455 S
C631 C653 1.420 . S
O632 Eu588 2.558 . S
O632 C652 1.257 . S
O633 Eu588 2.612 . S
O633 Eu599 2.380 . S
O633 C644 1.276 . S
O634 Eu599 2.432 . S
O634 C651 1.264 . S
O635 Eu588 2.339 . S
O635 C651 1.254 . S
O636 Eu588 2.563 . S
O636 C644 1.235 . S
O637 Eu588 2.419 . S
O637 C652 1.249 . S
O638 Eu599 2.558 . S
O638 C663 1.257 . S
O639 Eu588 2.380 . S
O639 Eu599 2.612 . S
O639 C655 1.276 . S
O640 Eu588 2.432 . S
O640 C662 1.264 . S
O641 Eu599 2.339 . S
O641 C662 1.254 . S
O642 Eu599 2.563 . S
O642 C655 1.235 . S
O643 Eu599 2.419 . S
O643 C663 1.249 . S
C644 O633 1.276 . S
C644 O636 1.235 . S
C645 C647 1.393 1_556 S
C645 C649 1.397 . S
C645 C652 1.492 . S
C646 C647 1.392 . S
C646 C648 1.386 . S
C647 C645 1.393 1_554 S
C647 C646 1.392 . S
C647 H664 0.930 . S
C648 C646 1.386 . S
C648 C650 1.395 . S
C648 H665 0.930 . S
C649 C645 1.397 . S
C649 C650 1.372 1_556 S
C649 H666 0.934 . S
C650 C648 1.395 . S
C650 C649 1.372 1_554 S
C650 H667 0.930 . S
C651 O634 1.264 . S
C651 O635 1.254 . S
C652 Eu588 2.848 . S
C652 O632 1.257 . S
C652 O637 1.249 . S
C652 C645 1.492 . S
C653 H618 0.931 . S
C653 C631 1.420 . S
C653 C654 1.351 . S
C654 H616 0.930 . S
C654 C622 1.423 . S
C654 C653 1.351 . S
C655 O639 1.276 . S
C655 O642 1.235 . S
C656 C657 1.393 . S
C656 C660 1.395 . S
C656 C663 1.492 . S
C657 C656 1.393 . S
C657 C658 1.392 . S
C657 H668 0.930 . S
C658 C657 1.392 . S
C658 C659 1.386 . S
C659 C658 1.386 . S
C659 C661 1.395 . S
C659 H669 0.930 . S
C660 C656 1.395 . S
C660 C661 1.379 . S
C660 H670 0.930 . S
C661 C659 1.395 . S
C661 C660 1.379 . S
C661 H671 0.930 . S
C662 O640 1.264 . S
C662 O641 1.254 . S
C663 Eu599 2.848 . S
C663 O638 1.257 . S
C663 O643 1.249 . S
C663 C656 1.492 . S
H664 C647 0.930 . S
H665 C648 0.930 . S
H666 C649 0.934 . S
H667 C650 0.930 . S
H668 C657 0.930 . S
H669 C659 0.930 . S
H670 C660 0.930 . S
H671 C661 0.930 . S
Eu672 N703 2.657 . S
Eu672 N710 2.609 . S
Eu672 O716 2.558 . S
Eu672 O717 2.612 . S
Eu672 O719 2.339 . S
Eu672 O720 2.563 . S
Eu672 O721 2.419 . S
Eu672 O723 2.380 . S
Eu672 O724 2.432 . S
Eu672 C736 2.848 . S
C673 C676 1.429 . S
C673 C677 1.411 . S
C673 N680 1.377 . S
C674 C676 1.420 . S
C674 C678 1.423 1_655 S
C674 C686 1.392 . S
C675 C677 1.420 . S
C675 C678 1.351 1_655 S
C675 H698 0.931 1_655 S
C676 C673 1.429 . S
C676 C674 1.420 . S
C676 N684 1.362 . S
C677 C673 1.411 . S
C677 C675 1.420 . S
C677 C682 1.395 . S
C678 C674 1.423 1_455 S
C678 C675 1.351 1_455 S
C678 H690 0.930 . S
C679 C681 1.400 . S
C679 C682 1.386 . S
C679 H691 0.930 . S
N680 C673 1.377 . S
N680 C681 1.321 . S
N680 Eu683 2.609 . S
C681 C679 1.400 . S
C681 N680 1.321 . S
C681 H688 0.930 . S
C682 C677 1.395 . S
C682 C679 1.386 . S
C682 H701 0.930 . S
Eu683 N680 2.609 . S
Eu683 N684 2.657 . S
Eu683 O717 2.380 . S
Eu683 O718 2.432 . S
Eu683 O722 2.558 1_556 S
Eu683 O723 2.612 . S
Eu683 O725 2.339 . S
Eu683 O726 2.563 . S
Eu683 O727 2.419 1_556 S
Eu683 C747 2.848 1_556 S
N684 C676 1.362 . S
N684 Eu683 2.657 . S
N684 C685 1.334 . S
C685 N684 1.334 . S
C685 C687 1.413 . S
C685 H692 0.929 . S
C686 C674 1.392 . S
C686 C687 1.367 . S
C686 H694 0.930 1_655 S
C687 C685 1.413 . S
C687 C686 1.367 . S
C687 H689 0.930 . S
H688 C681 0.930 . S
H689 C687 0.930 . S
H690 C678 0.930 . S
H691 C679 0.930 . S
H692 C685 0.929 . S
H693 C707 0.930 . S
H694 C686 0.930 1_455 S
H695 C713 0.930 . S
H696 C704 0.929 . S
H697 C711 0.930 . S
H698 C675 0.931 1_455 S
H699 C705 0.930 . S
H700 C738 0.930 . S
H701 C682 0.930 . S
H702 C737 0.931 . S
N703 Eu672 2.657 . S
N703 C704 1.334 . S
N703 C708 1.362 . S
C704 H696 0.929 . S
C704 N703 1.334 . S
C704 C707 1.413 . S
C705 H699 0.930 . S
C705 C706 1.392 . S
C705 C707 1.367 . S
C706 C705 1.392 . S
C706 C708 1.420 . S
C706 C738 1.423 . S
C707 H693 0.930 . S
C707 C704 1.413 . S
C707 C705 1.367 . S
C708 N703 1.362 . S
C708 C706 1.420 . S
C708 C712 1.429 . S
H709 C714 0.930 . S
N710 Eu672 2.609 . S
N710 C712 1.377 . S
N710 C713 1.321 . S
C711 H697 0.930 . S
C711 C713 1.400 . S
C711 C714 1.386 . S
C712 C708 1.429 . S
C712 N710 1.377 . S
C712 C715 1.411 . S
C713 H695 0.930 . S
C713 N710 1.321 . S
C713 C711 1.400 . S
C714 H709 0.930 . S
C714 C711 1.386 . S
C714 C715 1.395 . S
C715 C712 1.411 . S
C715 C714 1.395 . S
C715 C737 1.420 . S
O716 Eu672 2.558 . S
O716 C736 1.257 . S
O717 Eu672 2.612 . S
O717 Eu683 2.380 . S
O717 C728 1.276 . S
O718 Eu683 2.432 . S
O718 C735 1.264 . S
O719 Eu672 2.339 . S
O719 C735 1.254 . S
O720 Eu672 2.563 . S
O720 C728 1.235 . S
O721 Eu672 2.419 . S
O721 C736 1.249 . S
O722 Eu683 2.558 1_554 S
O722 C747 1.257 . S
O723 Eu672 2.380 . S
O723 Eu683 2.612 . S
O723 C739 1.276 . S
O724 Eu672 2.432 . S
O724 C746 1.264 . S
O725 Eu683 2.339 . S
O725 C746 1.254 . S
O726 Eu683 2.563 . S
O726 C739 1.235 . S
O727 Eu683 2.419 1_554 S
O727 C747 1.249 . S
C728 O717 1.276 . S
C728 O720 1.235 . S
C729 C731 1.393 . S
C729 C733 1.395 . S
C729 C736 1.492 . S
C730 C731 1.392 . S
C730 C732 1.386 . S
C731 C729 1.393 . S
C731 C730 1.392 . S
C731 H748 0.930 . S
C732 C730 1.386 . S
C732 C734 1.395 . S
C732 H749 0.930 . S
C733 C729 1.395 . S
C733 C734 1.379 . S
C733 H750 0.930 . S
C734 C732 1.395 . S
C734 C733 1.379 . S
C734 H751 0.930 . S
C735 O718 1.264 . S
C735 O719 1.254 . S
C736 Eu672 2.848 . S
C736 O716 1.257 . S
C736 O721 1.249 . S
C736 C729 1.492 . S
C737 H702 0.931 . S
C737 C715 1.420 . S
C737 C738 1.351 . S
C738 H700 0.930 . S
C738 C706 1.423 . S
C738 C737 1.351 . S
C739 O723 1.276 . S
C739 O726 1.235 . S
C740 C741 1.393 . S
C740 C744 1.395 . S
C740 C747 1.492 . S
C741 C740 1.393 . S
C741 C742 1.392 . S
C741 H752 0.930 . S
C742 C741 1.392 . S
C742 C743 1.386 . S
C743 C742 1.386 . S
C743 C745 1.395 . S
C743 H753 0.930 . S
C744 C740 1.395 . S
C744 C745 1.379 . S
C744 H754 0.930 . S
C745 C743 1.395 . S
C745 C744 1.379 . S
C745 H755 0.930 . S
C746 O724 1.264 . S
C746 O725 1.254 . S
C747 Eu683 2.848 1_554 S
C747 O722 1.257 . S
C747 O727 1.249 . S
C747 C740 1.492 . S
H748 C731 0.930 . S
H749 C732 0.930 . S
H750 C733 0.930 . S
H751 C734 0.930 . S
H752 C741 0.930 . S
H753 C743 0.930 . S
H754 C744 0.930 . S
H755 C745 0.930 . S
H756 C764 0.950 . S
H757 C769 0.950 . S
H758 C766 0.950 . S
H759 C768 0.950 . S
H760 C770 0.950 . S
H761 C772 0.950 . S
H762 C774 0.950 . S
H763 C775 0.950 . S
C764 H756 0.950 . S
C764 C765 1.386 . S
C764 C766 1.391 . S
C765 C764 1.386 . S
C765 C769 1.393 . S
C766 H758 0.950 . S
C766 C764 1.391 . S
C766 C767 1.400 . S
C767 C766 1.400 . S
C767 C768 1.398 . S
C767 C773 1.491 . S
C768 H759 0.950 . S
C768 C767 1.398 . S
C768 C769 1.391 . S
C769 H757 0.950 . S
C769 C765 1.393 . S
C769 C768 1.391 . S
C770 H760 0.950 . S
C770 C771 1.386 . S
C770 C772 1.391 . S
C771 C770 1.386 . S
C771 C775 1.393 . S
C772 H761 0.950 . S
C772 C770 1.391 . S
C772 C773 1.400 . S
C773 C767 1.491 . S
C773 C772 1.400 . S
C773 C774 1.398 . S
C774 H762 0.950 . S
C774 C773 1.398 . S
C774 C775 1.391 . S
C775 H763 0.950 . S
C775 C771 1.393 . S
C775 C774 1.391 . S
H776 C784 0.950 . S
H777 C789 0.950 . S
H778 C786 0.950 . S
H779 C788 0.950 . S
H780 C790 0.950 . S
H781 C792 0.950 . S
H782 C794 0.950 . S
H783 C795 0.950 . S
C784 H776 0.950 . S
C784 C785 1.386 . S
C784 C786 1.391 . S
C785 C784 1.386 . S
C785 C789 1.393 . S
C786 H778 0.950 . S
C786 C784 1.391 . S
C786 C787 1.400 . S
C787 C786 1.400 . S
C787 C788 1.398 . S
C787 C793 1.491 . S
C788 H779 0.950 . S
C788 C787 1.398 . S
C788 C789 1.391 . S
C789 H777 0.950 . S
C789 C785 1.393 . S
C789 C788 1.391 . S
C790 H780 0.950 . S
C790 C791 1.386 . S
C790 C792 1.391 . S
C791 C790 1.386 . S
C791 C795 1.393 . S
C792 H781 0.950 . S
C792 C790 1.391 . S
C792 C793 1.400 . S
C793 C787 1.491 . S
C793 C792 1.400 . S
C793 C794 1.398 . S
C794 H782 0.950 . S
C794 C793 1.398 . S
C794 C795 1.391 . S
C795 H783 0.950 . S
C795 C791 1.393 . S
C795 C794 1.391 . S
H796 C804 0.950 . S
H797 C809 0.950 . S
H798 C806 0.950 . S
H799 C808 0.950 . S
H800 C810 0.950 . S
H801 C812 0.950 . S
H802 C814 0.950 . S
H803 C815 0.950 . S
C804 H796 0.950 . S
C804 C805 1.386 . S
C804 C806 1.391 . S
C805 C804 1.386 . S
C805 C809 1.393 . S
C806 H798 0.950 . S
C806 C804 1.391 . S
C806 C807 1.400 . S
C807 C806 1.400 . S
C807 C808 1.398 . S
C807 C813 1.491 . S
C808 H799 0.950 . S
C808 C807 1.398 . S
C808 C809 1.391 . S
C809 H797 0.950 . S
C809 C805 1.393 . S
C809 C808 1.391 . S
C810 H800 0.950 . S
C810 C811 1.386 . S
C810 C812 1.391 . S
C811 C810 1.386 . S
C811 C815 1.393 . S
C812 H801 0.950 . S
C812 C810 1.391 . S
C812 C813 1.400 . S
C813 C807 1.491 . S
C813 C812 1.400 . S
C813 C814 1.398 . S
C814 H802 0.950 . S
C814 C813 1.398 . S
C814 C815 1.391 . S
C815 H803 0.950 . S
C815 C811 1.393 . S
C815 C814 1.391 . S
H816 C824 0.950 . S
H817 C829 0.950 . S
H818 C826 0.950 . S
H819 C828 0.950 . S
H820 C830 0.950 . S
H821 C832 0.950 . S
H822 C834 0.950 . S
H823 C835 0.950 . S
C824 H816 0.950 . S
C824 C825 1.386 . S
C824 C826 1.391 . S
C825 C824 1.386 . S
C825 C829 1.393 . S
C826 H818 0.950 . S
C826 C824 1.391 . S
C826 C827 1.400 . S
C827 C826 1.400 . S
C827 C828 1.398 . S
C827 C833 1.491 . S
C828 H819 0.950 . S
C828 C827 1.398 . S
C828 C829 1.391 . S
C829 H817 0.950 . S
C829 C825 1.393 . S
C829 C828 1.391 . S
C830 H820 0.950 . S
C830 C831 1.386 . S
C830 C832 1.391 . S
C831 C830 1.386 . S
C831 C835 1.393 . S
C832 H821 0.950 . S
C832 C830 1.391 . S
C832 C833 1.400 . S
C833 C827 1.491 . S
C833 C832 1.400 . S
C833 C834 1.398 . S
C834 H822 0.950 . S
C834 C833 1.398 . S
C834 C835 1.391 . S
C835 H823 0.950 . S
C835 C831 1.393 . S
C835 C834 1.391 . S
H836 C844 0.950 . S
H837 C849 0.950 . S
H838 C846 0.950 . S
H839 C848 0.950 . S
H840 C850 0.950 . S
H841 C852 0.950 . S
H842 C854 0.950 . S
H843 C855 0.950 . S
C844 H836 0.950 . S
C844 C845 1.386 . S
C844 C846 1.391 . S
C845 C844 1.386 . S
C845 C849 1.393 . S
C846 H838 0.950 . S
C846 C844 1.391 . S
C846 C847 1.400 . S
C847 C846 1.400 . S
C847 C848 1.398 . S
C847 C853 1.491 . S
C848 H839 0.950 . S
C848 C847 1.398 . S
C848 C849 1.391 . S
C849 H837 0.950 . S
C849 C845 1.393 . S
C849 C848 1.391 . S
C850 H840 0.950 . S
C850 C851 1.386 . S
C850 C852 1.391 . S
C851 C850 1.386 . S
C851 C855 1.393 . S
C852 H841 0.950 . S
C852 C850 1.391 . S
C852 C853 1.400 . S
C853 C847 1.491 . S
C853 C852 1.400 . S
C853 C854 1.398 . S
C854 H842 0.950 . S
C854 C853 1.398 . S
C854 C855 1.391 . S
C855 H843 0.950 . S
C855 C851 1.393 . S
C855 C854 1.391 . S
H856 C864 0.950 . S
H857 C869 0.950 . S
H858 C866 0.950 . S
H859 C868 0.950 . S
H860 C870 0.950 . S
H861 C872 0.950 . S
H862 C874 0.950 . S
H863 C875 0.950 . S
C864 H856 0.950 . S
C864 C865 1.386 . S
C864 C866 1.391 . S
C865 C864 1.386 . S
C865 C869 1.393 . S
C866 H858 0.950 . S
C866 C864 1.391 . S
C866 C867 1.400 . S
C867 C866 1.400 . S
C867 C868 1.398 . S
C867 C873 1.491 . S
C868 H859 0.950 . S
C868 C867 1.398 . S
C868 C869 1.391 . S
C869 H857 0.950 . S
C869 C865 1.393 . S
C869 C868 1.391 . S
C870 H860 0.950 . S
C870 C871 1.386 . S
C870 C872 1.391 . S
C871 C870 1.386 . S
C871 C875 1.393 . S
C872 H861 0.950 . S
C872 C870 1.391 . S
C872 C873 1.400 . S
C873 C867 1.491 . S
C873 C872 1.400 . S
C873 C874 1.398 . S
C874 H862 0.950 . S
C874 C873 1.398 . S
C874 C875 1.391 . S
C875 H863 0.950 . S
C875 C871 1.393 . S
C875 C874 1.391 . S
H876 C884 0.950 . S
H877 C889 0.950 . S
H878 C886 0.950 . S
H879 C888 0.950 . S
H880 C890 0.950 . S
H881 C892 0.950 . S
H882 C894 0.950 . S
H883 C895 0.950 . S
C884 H876 0.950 . S
C884 C885 1.386 . S
C884 C886 1.391 . S
C885 C884 1.386 . S
C885 C889 1.393 . S
C886 H878 0.950 . S
C886 C884 1.391 . S
C886 C887 1.400 . S
C887 C886 1.400 . S
C887 C888 1.398 . S
C887 C893 1.491 . S
C888 H879 0.950 . S
C888 C887 1.398 . S
C888 C889 1.391 . S
C889 H877 0.950 . S
C889 C885 1.393 . S
C889 C888 1.391 . S
C890 H880 0.950 . S
C890 C891 1.386 . S
C890 C892 1.391 . S
C891 C890 1.386 . S
C891 C895 1.393 . S
C892 H881 0.950 . S
C892 C890 1.391 . S
C892 C893 1.400 1_556 S
C893 C887 1.491 . S
C893 C892 1.400 1_554 S
C893 C894 1.398 . S
C894 H882 0.950 . S
C894 C893 1.398 . S
C894 C895 1.391 1_554 S
C895 H883 0.950 . S
C895 C891 1.393 . S
C895 C894 1.391 1_556 S
H896 C904 0.950 . S
H897 C909 0.950 . S
H898 C906 0.950 . S
H899 C908 0.950 . S
H900 C910 0.950 1_556 S
H901 C912 0.950 . S
H902 C914 0.950 . S
H903 C915 0.950 . S
C904 H896 0.950 . S
C904 C905 1.386 . S
C904 C906 1.391 . S
C905 C904 1.386 . S
C905 C909 1.393 . S
C906 H898 0.950 . S
C906 C904 1.391 . S
C906 C907 1.400 . S
C907 C906 1.400 . S
C907 C908 1.398 . S
C907 C913 1.491 . S
C908 H899 0.950 . S
C908 C907 1.398 . S
C908 C909 1.391 . S
C909 H897 0.950 . S
C909 C905 1.393 . S
C909 C908 1.391 . S
C910 H900 0.950 1_554 S
C910 C911 1.386 1_554 S
C910 C912 1.391 . S
C911 C910 1.386 1_556 S
C911 C915 1.393 1_556 S
C912 H901 0.950 . S
C912 C910 1.391 . S
C912 C913 1.400 . S
C913 C907 1.491 . S
C913 C912 1.400 . S
C913 C914 1.398 . S
C914 H902 0.950 . S
C914 C913 1.398 . S
C914 C915 1.391 . S
C915 H903 0.950 . S
C915 C911 1.393 1_554 S
C915 C914 1.391 . S
H916 C924 0.950 . S
H917 C929 0.950 . S
H918 C926 0.950 . S
H919 C928 0.950 . S
H920 C930 0.950 . S
H921 C932 0.950 . S
H922 C934 0.950 . S
H923 C935 0.950 . S
C924 H916 0.950 . S
C924 C925 1.386 . S
C924 C926 1.391 . S
C925 C924 1.386 . S
C925 C929 1.393 . S
C926 H918 0.950 . S
C926 C924 1.391 . S
C926 C927 1.400 . S
C927 C926 1.400 . S
C927 C928 1.398 . S
C927 C933 1.491 . S
C928 H919 0.950 . S
C928 C927 1.398 . S
C928 C929 1.391 . S
C929 H917 0.950 . S
C929 C925 1.393 . S
C929 C928 1.391 . S
C930 H920 0.950 . S
C930 C931 1.386 . S
C930 C932 1.391 . S
C931 C930 1.386 . S
C931 C935 1.393 . S
C932 H921 0.950 . S
C932 C930 1.391 . S
C932 C933 1.400 . S
C933 C927 1.491 . S
C933 C932 1.400 . S
C933 C934 1.398 . S
C934 H922 0.950 . S
C934 C933 1.398 . S
C934 C935 1.391 . S
C935 H923 0.950 . S
C935 C931 1.393 . S
C935 C934 1.391 . S
H936 C944 0.950 . S
H937 C949 0.950 . S
H938 C946 0.950 . S
H939 C948 0.950 . S
H940 C950 0.950 . S
H941 C952 0.950 . S
H942 C954 0.950 . S
H943 C955 0.950 . S
C944 H936 0.950 . S
C944 C945 1.386 . S
C944 C946 1.391 . S
C945 C944 1.386 . S
C945 C949 1.393 . S
C946 H938 0.950 . S
C946 C944 1.391 . S
C946 C947 1.400 . S
C947 C946 1.400 . S
C947 C948 1.398 . S
C947 C953 1.491 . S
C948 H939 0.950 . S
C948 C947 1.398 . S
C948 C949 1.391 . S
C949 H937 0.950 . S
C949 C945 1.393 . S
C949 C948 1.391 . S
C950 H940 0.950 . S
C950 C951 1.386 . S
C950 C952 1.391 . S
C951 C950 1.386 . S
C951 C955 1.393 . S
C952 H941 0.950 . S
C952 C950 1.391 . S
C952 C953 1.400 . S
C953 C947 1.491 . S
C953 C952 1.400 . S
C953 C954 1.398 . S
C954 H942 0.950 . S
C954 C953 1.398 . S
C954 C955 1.391 . S
C955 H943 0.950 . S
C955 C951 1.393 . S
C955 C954 1.391 . S
H956 C964 0.950 . S
H957 C969 0.950 . S
H958 C966 0.950 . S
H959 C968 0.950 . S
H960 C970 0.950 . S
H961 C972 0.950 . S
H962 C974 0.950 . S
H963 C975 0.950 . S
C964 H956 0.950 . S
C964 C965 1.386 . S
C964 C966 1.391 . S
C965 C964 1.386 . S
C965 C969 1.393 . S
C966 H958 0.950 . S
C966 C964 1.391 . S
C966 C967 1.400 . S
C967 C966 1.400 . S
C967 C968 1.398 . S
C967 C973 1.491 . S
C968 H959 0.950 . S
C968 C967 1.398 . S
C968 C969 1.391 . S
C969 H957 0.950 . S
C969 C965 1.393 . S
C969 C968 1.391 . S
C970 H960 0.950 . S
C970 C971 1.386 . S
C970 C972 1.391 . S
C971 C970 1.386 . S
C971 C975 1.393 . S
C972 H961 0.950 . S
C972 C970 1.391 . S
C972 C973 1.400 . S
C973 C967 1.491 . S
C973 C972 1.400 . S
C973 C974 1.398 . S
C974 H962 0.950 . S
C974 C973 1.398 . S
C974 C975 1.391 . S
C975 H963 0.950 . S
C975 C971 1.393 . S
C975 C974 1.391 . S
H976 C984 0.950 1_556 S
H977 C989 0.950 1_545 S
H978 C986 0.950 1_556 S
H979 C988 0.950 . S
H980 C990 0.950 . S
H981 C992 0.950 . S
H982 C994 0.950 1_556 S
H983 C995 0.950 . S
C984 H976 0.950 1_554 S
C984 C985 1.386 . S
C984 C986 1.391 . S
C985 C984 1.386 . S
C985 C989 1.393 . S
C986 H978 0.950 1_554 S
C986 C984 1.391 . S
C986 C987 1.400 . S
C987 C986 1.400 . S
C987 C988 1.398 . S
C987 C993 1.491 . S
C988 H979 0.950 . S
C988 C987 1.398 . S
C988 C989 1.391 . S
C989 H977 0.950 1_565 S
C989 C985 1.393 . S
C989 C988 1.391 . S
C990 H980 0.950 . S
C990 C991 1.386 . S
C990 C992 1.391 . S
C991 C990 1.386 . S
C991 C995 1.393 . S
C992 H981 0.950 . S
C992 C990 1.391 . S
C992 C993 1.400 . S
C993 C987 1.491 . S
C993 C992 1.400 . S
C993 C994 1.398 . S
C994 H982 0.950 1_554 S
C994 C993 1.398 . S
C994 C995 1.391 . S
C995 H983 0.950 . S
C995 C991 1.393 . S
C995 C994 1.391 . S
H996 C1004 0.950 . S
H997 C1009 0.950 . S
H998 C1006 0.950 . S
H999 C1008 0.950 . S
H1000 C1010 0.950 . S
H1001 C1012 0.950 . S
H1002 C1014 0.950 . S
H1003 C1015 0.950 . S
C1004 H996 0.950 . S
C1004 C1005 1.386 . S
C1004 C1006 1.391 . S
C1005 C1004 1.386 . S
C1005 C1009 1.393 . S
C1006 H998 0.950 . S
C1006 C1004 1.391 . S
C1006 C1007 1.400 . S
C1007 C1006 1.400 . S
C1007 C1008 1.398 . S
C1007 C1013 1.491 . S
C1008 H999 0.950 . S
C1008 C1007 1.398 . S
C1008 C1009 1.391 . S
C1009 H997 0.950 . S
C1009 C1005 1.393 . S
C1009 C1008 1.391 . S
C1010 H1000 0.950 . S
C1010 C1011 1.386 . S
C1010 C1012 1.391 . S
C1011 C1010 1.386 . S
C1011 C1015 1.393 . S
C1012 H1001 0.950 . S
C1012 C1010 1.391 . S
C1012 C1013 1.400 . S
C1013 C1007 1.491 . S
C1013 C1012 1.400 . S
C1013 C1014 1.398 . S
C1014 H1002 0.950 . S
C1014 C1013 1.398 . S
C1014 C1015 1.391 . S
C1015 H1003 0.950 . S
C1015 C1011 1.393 . S
C1015 C1014 1.391 . S
H1016 C1024 0.950 1_455 S
H1017 C1029 0.950 . S
H1018 C1026 0.950 1_455 S
H1019 C1028 0.950 . S
H1020 C1030 0.950 . S
H1021 C1032 0.950 1_556 S
H1022 C1034 0.950 . S
H1023 C1035 0.950 . S
C1024 H1016 0.950 1_655 S
C1024 C1025 1.386 . S
C1024 C1026 1.391 . S
C1025 C1024 1.386 . S
C1025 C1029 1.393 . S
C1026 H1018 0.950 1_655 S
C1026 C1024 1.391 . S
C1026 C1027 1.400 . S
C1027 C1026 1.400 . S
C1027 C1028 1.398 . S
C1027 C1033 1.491 1_556 S
C1028 H1019 0.950 . S
C1028 C1027 1.398 . S
C1028 C1029 1.391 . S
C1029 H1017 0.950 . S
C1029 C1025 1.393 . S
C1029 C1028 1.391 . S
C1030 H1020 0.950 . S
C1030 C1031 1.386 1_655 S
C1030 C1032 1.391 . S
C1031 C1030 1.386 1_455 S
C1031 C1035 1.393 . S
C1032 H1021 0.950 1_554 S
C1032 C1030 1.391 . S
C1032 C1033 1.400 . S
C1033 C1027 1.491 1_554 S
C1033 C1032 1.400 . S
C1033 C1034 1.398 1_655 S
C1034 H1022 0.950 . S
C1034 C1033 1.398 1_455 S
C1034 C1035 1.391 . S
C1035 H1023 0.950 . S
C1035 C1031 1.393 . S
C1035 C1034 1.391 . S
H1036 C1044 0.950 . S
H1037 C1049 0.950 . S
H1038 C1046 0.950 . S
H1039 C1048 0.950 . S
H1040 C1050 0.950 . S
H1041 C1052 0.950 1_556 S
H1042 C1054 0.950 . S
H1043 C1055 0.950 . S
C1044 H1036 0.950 . S
C1044 C1045 1.386 . S
C1044 C1046 1.391 1_556 S
C1045 C1044 1.386 . S
C1045 C1049 1.393 . S
C1046 H1038 0.950 . S
C1046 C1044 1.391 1_554 S
C1046 C1047 1.400 1_554 S
C1047 C1046 1.400 1_556 S
C1047 C1048 1.398 . S
C1047 C1053 1.491 1_556 S
C1048 H1039 0.950 . S
C1048 C1047 1.398 . S
C1048 C1049 1.391 . S
C1049 H1037 0.950 . S
C1049 C1045 1.393 . S
C1049 C1048 1.391 . S
C1050 H1040 0.950 . S
C1050 C1051 1.386 . S
C1050 C1052 1.391 . S
C1051 C1050 1.386 . S
C1051 C1055 1.393 . S
C1052 H1041 0.950 1_554 S
C1052 C1050 1.391 . S
C1052 C1053 1.400 . S
C1053 C1047 1.491 1_554 S
C1053 C1052 1.400 . S
C1053 C1054 1.398 . S
C1054 H1042 0.950 . S
C1054 C1053 1.398 . S
C1054 C1055 1.391 . S
C1055 H1043 0.950 . S
C1055 C1051 1.393 . S
C1055 C1054 1.391 . S
H1056 C1064 0.950 . S
H1057 C1069 0.950 . S
H1058 C1066 0.950 1_554 S
H1059 C1068 0.950 . S
H1060 C1070 0.950 . S
H1061 C1072 0.950 . S
H1062 C1074 0.950 . S
H1063 C1075 0.950 . S
C1064 H1056 0.950 . S
C1064 C1065 1.386 . S
C1064 C1066 1.391 . S
C1065 C1064 1.386 . S
C1065 C1069 1.393 . S
C1066 H1058 0.950 1_556 S
C1066 C1064 1.391 . S
C1066 C1067 1.400 . S
C1067 C1066 1.400 . S
C1067 C1068 1.398 . S
C1067 C1073 1.491 . S
C1068 H1059 0.950 . S
C1068 C1067 1.398 . S
C1068 C1069 1.391 . S
C1069 H1057 0.950 . S
C1069 C1065 1.393 . S
C1069 C1068 1.391 . S
C1070 H1060 0.950 . S
C1070 C1071 1.386 1_556 S
C1070 C1072 1.391 . S
C1071 C1070 1.386 1_554 S
C1071 C1075 1.393 . S
C1072 H1061 0.950 . S
C1072 C1070 1.391 . S
C1072 C1073 1.400 . S
C1073 C1067 1.491 . S
C1073 C1072 1.400 . S
C1073 C1074 1.398 1_556 S
C1074 H1062 0.950 . S
C1074 C1073 1.398 1_554 S
C1074 C1075 1.391 . S
C1075 H1063 0.950 . S
C1075 C1071 1.393 . S
C1075 C1074 1.391 . S
H1076 C1084 0.950 . S
H1077 C1089 0.950 . S
H1078 C1086 0.950 . S
H1079 C1088 0.950 . S
H1080 C1090 0.950 . S
H1081 C1092 0.950 . S
H1082 C1094 0.950 . S
H1083 C1095 0.950 . S
C1084 H1076 0.950 . S
C1084 C1085 1.386 . S
C1084 C1086 1.391 . S
C1085 C1084 1.386 . S
C1085 C1089 1.393 . S
C1086 H1078 0.950 . S
C1086 C1084 1.391 . S
C1086 C1087 1.400 . S
C1087 C1086 1.400 . S
C1087 C1088 1.398 . S
C1087 C1093 1.491 . S
C1088 H1079 0.950 . S
C1088 C1087 1.398 . S
C1088 C1089 1.391 . S
C1089 H1077 0.950 . S
C1089 C1085 1.393 . S
C1089 C1088 1.391 . S
C1090 H1080 0.950 . S
C1090 C1091 1.386 . S
C1090 C1092 1.391 . S
C1091 C1090 1.386 . S
C1091 C1095 1.393 . S
C1092 H1081 0.950 . S
C1092 C1090 1.391 . S
C1092 C1093 1.400 . S
C1093 C1087 1.491 . S
C1093 C1092 1.400 . S
C1093 C1094 1.398 . S
C1094 H1082 0.950 . S
C1094 C1093 1.398 . S
C1094 C1095 1.391 . S
C1095 H1083 0.950 . S
C1095 C1091 1.393 . S
C1095 C1094 1.391 . S
H1096 C1104 0.950 . S
H1097 C1109 0.950 . S
H1098 C1106 0.950 . S
H1099 C1108 0.950 . S
H1100 C1110 0.950 . S
H1101 C1112 0.950 . S
H1102 C1114 0.950 . S
H1103 C1115 0.950 . S
C1104 H1096 0.950 . S
C1104 C1105 1.386 . S
C1104 C1106 1.391 . S
C1105 C1104 1.386 . S
C1105 C1109 1.393 . S
C1106 H1098 0.950 . S
C1106 C1104 1.391 . S
C1106 C1107 1.400 . S
C1107 C1106 1.400 . S
C1107 C1108 1.398 . S
C1107 C1113 1.491 . S
C1108 H1099 0.950 . S
C1108 C1107 1.398 . S
C1108 C1109 1.391 . S
C1109 H1097 0.950 . S
C1109 C1105 1.393 . S
C1109 C1108 1.391 . S
C1110 H1100 0.950 . S
C1110 C1111 1.386 . S
C1110 C1112 1.391 . S
C1111 C1110 1.386 . S
C1111 C1115 1.393 . S
C1112 H1101 0.950 . S
C1112 C1110 1.391 . S
C1112 C1113 1.400 . S
C1113 C1107 1.491 . S
C1113 C1112 1.400 . S
C1113 C1114 1.398 . S
C1114 H1102 0.950 . S
C1114 C1113 1.398 . S
C1114 C1115 1.391 . S
C1115 H1103 0.950 . S
C1115 C1111 1.393 . S
C1115 C1114 1.391 . S
H1116 C1124 0.950 . S
H1117 C1129 0.950 . S
H1118 C1126 0.950 . S
H1119 C1128 0.950 . S
H1120 C1130 0.946 1_556 S
H1121 C1132 0.950 1_556 S
H1122 C1134 0.950 . S
H1123 C1135 0.950 . S
C1124 H1116 0.950 . S
C1124 C1125 1.386 . S
C1124 C1126 1.391 . S
C1125 C1124 1.386 . S
C1125 C1129 1.393 1_554 S
C1126 H1118 0.950 . S
C1126 C1124 1.391 . S
C1126 C1127 1.400 . S
C1127 C1126 1.400 . S
C1127 C1128 1.398 1_554 S
C1127 C1133 1.491 . S
C1128 H1119 0.950 . S
C1128 C1127 1.398 1_556 S
C1128 C1129 1.391 . S
C1129 H1117 0.950 . S
C1129 C1125 1.393 1_556 S
C1129 C1128 1.391 . S
C1130 H1120 0.946 1_554 S
C1130 C1131 1.385 1_565 S
C1130 C1132 1.395 1_565 S
C1131 C1130 1.385 1_545 S
C1131 C1135 1.393 . S
C1132 H1121 0.950 1_554 S
C1132 C1130 1.395 1_545 S
C1132 C1133 1.400 . S
C1133 C1127 1.491 . S
C1133 C1132 1.400 . S
C1133 C1134 1.398 . S
C1134 H1122 0.950 . S
C1134 C1133 1.398 . S
C1134 C1135 1.391 . S
C1135 H1123 0.950 . S
C1135 C1131 1.393 . S
C1135 C1134 1.391 . S
H1136 C1144 0.950 . S
H1137 C1149 0.950 . S
H1138 C1146 0.950 . S
H1139 C1148 0.950 . S
H1140 C1150 0.950 . S
H1141 C1152 0.950 . S
H1142 C1154 0.950 . S
H1143 C1155 0.950 . S
C1144 H1136 0.950 . S
C1144 C1145 1.386 . S
C1144 C1146 1.391 . S
C1145 C1144 1.386 . S
C1145 C1149 1.393 . S
C1146 H1138 0.950 . S
C1146 C1144 1.391 . S
C1146 C1147 1.400 . S
C1147 C1146 1.400 . S
C1147 C1148 1.398 . S
C1147 C1153 1.491 . S
C1148 H1139 0.950 . S
C1148 C1147 1.398 . S
C1148 C1149 1.391 . S
C1149 H1137 0.950 . S
C1149 C1145 1.393 . S
C1149 C1148 1.391 . S
C1150 H1140 0.950 . S
C1150 C1151 1.386 . S
C1150 C1152 1.391 . S
C1151 C1150 1.386 . S
C1151 C1155 1.393 . S
C1152 H1141 0.950 . S
C1152 C1150 1.391 . S
C1152 C1153 1.400 . S
C1153 C1147 1.491 . S
C1153 C1152 1.400 . S
C1153 C1154 1.398 . S
C1154 H1142 0.950 . S
C1154 C1153 1.398 . S
C1154 C1155 1.391 . S
C1155 H1143 0.950 . S
C1155 C1151 1.393 . S
C1155 C1154 1.391 . S
H1156 C1164 0.950 . S
H1157 C1169 0.950 . S
H1158 C1166 0.950 . S
H1159 C1168 0.950 . S
H1160 C1170 0.950 . S
H1161 C1172 0.950 . S
H1162 C1174 0.950 . S
H1163 C1175 0.950 . S
C1164 H1156 0.950 . S
C1164 C1165 1.386 . S
C1164 C1166 1.391 . S
C1165 C1164 1.386 . S
C1165 C1169 1.393 . S
C1166 H1158 0.950 . S
C1166 C1164 1.391 . S
C1166 C1167 1.400 . S
C1167 C1166 1.400 . S
C1167 C1168 1.398 . S
C1167 C1173 1.491 . S
C1168 H1159 0.950 . S
C1168 C1167 1.398 . S
C1168 C1169 1.391 . S
C1169 H1157 0.950 . S
C1169 C1165 1.393 . S
C1169 C1168 1.391 . S
C1170 H1160 0.950 . S
C1170 C1171 1.386 . S
C1170 C1172 1.391 . S
C1171 C1170 1.386 . S
C1171 C1175 1.393 . S
C1172 H1161 0.950 . S
C1172 C1170 1.391 . S
C1172 C1173 1.400 . S
C1173 C1167 1.491 . S
C1173 C1172 1.400 . S
C1173 C1174 1.398 . S
C1174 H1162 0.950 . S
C1174 C1173 1.398 . S
C1174 C1175 1.391 . S
C1175 H1163 0.950 . S
C1175 C1171 1.393 . S
C1175 C1174 1.391 . S
H1176 C1184 0.950 . S
H1177 C1189 0.950 . S
H1178 C1186 0.950 . S
H1179 C1188 0.950 . S
H1180 C1190 0.950 . S
H1181 C1192 0.950 . S
H1182 C1194 0.950 . S
H1183 C1195 0.950 . S
C1184 H1176 0.950 . S
C1184 C1185 1.386 . S
C1184 C1186 1.391 . S
C1185 C1184 1.386 . S
C1185 C1189 1.393 . S
C1186 H1178 0.950 . S
C1186 C1184 1.391 . S
C1186 C1187 1.400 . S
C1187 C1186 1.400 . S
C1187 C1188 1.398 . S
C1187 C1193 1.491 . S
C1188 H1179 0.950 . S
C1188 C1187 1.398 . S
C1188 C1189 1.391 . S
C1189 H1177 0.950 . S
C1189 C1185 1.393 . S
C1189 C1188 1.391 . S
C1190 H1180 0.950 . S
C1190 C1191 1.386 . S
C1190 C1192 1.391 . S
C1191 C1190 1.386 . S
C1191 C1195 1.393 . S
C1192 H1181 0.950 . S
C1192 C1190 1.391 . S
C1192 C1193 1.400 . S
C1193 C1187 1.491 . S
C1193 C1192 1.400 . S
C1193 C1194 1.398 . S
C1194 H1182 0.950 . S
C1194 C1193 1.398 . S
C1194 C1195 1.391 . S
C1195 H1183 0.950 . S
C1195 C1191 1.393 . S
C1195 C1194 1.391 . S
H1196 C1204 0.950 . S
H1197 C1209 0.950 . S
H1198 C1206 0.950 1_565 S
H1199 C1208 0.950 . S
H1200 C1210 0.950 . S
H1201 C1212 0.950 . S
H1202 C1214 0.950 . S
H1203 C1215 0.950 . S
C1204 H1196 0.950 . S
C1204 C1205 1.386 . S
C1204 C1206 1.391 . S
C1205 C1204 1.386 . S
C1205 C1209 1.393 . S
C1206 H1198 0.950 1_545 S
C1206 C1204 1.391 . S
C1206 C1207 1.400 1_545 S
C1207 C1206 1.400 1_565 S
C1207 C1208 1.398 . S
C1207 C1213 1.491 . S
C1208 H1199 0.950 . S
C1208 C1207 1.398 . S
C1208 C1209 1.391 1_565 S
C1209 H1197 0.950 . S
C1209 C1205 1.393 . S
C1209 C1208 1.391 1_545 S
C1210 H1200 0.950 . S
C1210 C1211 1.386 . S
C1210 C1212 1.391 . S
C1211 C1210 1.386 . S
C1211 C1215 1.393 . S
C1212 H1201 0.950 . S
C1212 C1210 1.391 . S
C1212 C1213 1.400 . S
C1213 C1207 1.491 . S
C1213 C1212 1.400 . S
C1213 C1214 1.398 . S
C1214 H1202 0.950 . S
C1214 C1213 1.398 . S
C1214 C1215 1.391 . S
C1215 H1203 0.950 . S
C1215 C1211 1.393 . S
C1215 C1214 1.391 . S
H1216 C1224 0.950 1_655 S
H1217 C1229 0.950 . S
H1218 C1226 0.950 . S
H1219 C1228 0.950 . S
H1220 C1230 0.950 . S
H1221 C1232 0.950 . S
H1222 C1234 0.950 . S
H1223 C1235 0.950 . S
C1224 H1216 0.950 1_455 S
C1224 C1225 1.386 . S
C1224 C1226 1.391 . S
C1225 C1224 1.386 . S
C1225 C1229 1.393 . S
C1226 H1218 0.950 . S
C1226 C1224 1.391 . S
C1226 C1227 1.400 . S
C1227 C1226 1.400 . S
C1227 C1228 1.398 . S
C1227 C1233 1.491 . S
C1228 H1219 0.950 . S
C1228 C1227 1.398 . S
C1228 C1229 1.391 . S
C1229 H1217 0.950 . S
C1229 C1225 1.393 . S
C1229 C1228 1.391 . S
C1230 H1220 0.950 . S
C1230 C1231 1.386 . S
C1230 C1232 1.391 . S
C1231 C1230 1.386 . S
C1231 C1235 1.393 . S
C1232 H1221 0.950 . S
C1232 C1230 1.391 . S
C1232 C1233 1.400 . S
C1233 C1227 1.491 . S
C1233 C1232 1.400 . S
C1233 C1234 1.398 . S
C1234 H1222 0.950 . S
C1234 C1233 1.398 . S
C1234 C1235 1.391 . S
C1235 H1223 0.950 . S
C1235 C1231 1.393 . S
C1235 C1234 1.391 . S
H1236 C1244 0.950 . S
H1237 C1249 0.950 . S
H1238 C1246 0.950 . S
H1239 C1248 0.950 . S
H1240 C1250 0.950 . S
H1241 C1252 0.950 . S
H1242 C1254 0.950 . S
H1243 C1255 0.950 . S
C1244 H1236 0.950 . S
C1244 C1245 1.386 . S
C1244 C1246 1.391 . S
C1245 C1244 1.386 . S
C1245 C1249 1.393 . S
C1246 H1238 0.950 . S
C1246 C1244 1.391 . S
C1246 C1247 1.400 . S
C1247 C1246 1.400 . S
C1247 C1248 1.398 . S
C1247 C1253 1.491 . S
C1248 H1239 0.950 . S
C1248 C1247 1.398 . S
C1248 C1249 1.391 . S
C1249 H1237 0.950 . S
C1249 C1245 1.393 . S
C1249 C1248 1.391 . S
C1250 H1240 0.950 . S
C1250 C1251 1.386 . S
C1250 C1252 1.391 . S
C1251 C1250 1.386 . S
C1251 C1255 1.393 . S
C1252 H1241 0.950 . S
C1252 C1250 1.391 . S
C1252 C1253 1.400 . S
C1253 C1247 1.491 . S
C1253 C1252 1.400 . S
C1253 C1254 1.398 . S
C1254 H1242 0.950 . S
C1254 C1253 1.398 . S
C1254 C1255 1.391 . S
C1255 H1243 0.950 . S
C1255 C1251 1.393 . S
C1255 C1254 1.391 . S
H1256 C1264 0.950 . S
H1257 C1269 0.950 . S
H1258 C1266 0.950 . S
H1259 C1268 0.950 . S
H1260 C1270 0.950 . S
H1261 C1272 0.950 . S
H1262 C1274 0.950 . S
H1263 C1275 0.950 . S
C1264 H1256 0.950 . S
C1264 C1265 1.386 1_545 S
C1264 C1266 1.391 . S
C1265 C1264 1.386 1_565 S
C1265 C1269 1.393 . S
C1266 H1258 0.950 . S
C1266 C1264 1.391 . S
C1266 C1267 1.400 . S
C1267 C1266 1.400 . S
C1267 C1268 1.398 . S
C1267 C1273 1.491 . S
C1268 H1259 0.950 . S
C1268 C1267 1.398 . S
C1268 C1269 1.391 1_545 S
C1269 H1257 0.950 . S
C1269 C1265 1.393 . S
C1269 C1268 1.391 1_565 S
C1270 H1260 0.950 . S
C1270 C1271 1.386 . S
C1270 C1272 1.391 . S
C1271 C1270 1.386 . S
C1271 C1275 1.393 . S
C1272 H1261 0.950 . S
C1272 C1270 1.391 . S
C1272 C1273 1.400 . S
C1273 C1267 1.491 . S
C1273 C1272 1.400 . S
C1273 C1274 1.398 . S
C1274 H1262 0.950 . S
C1274 C1273 1.398 . S
C1274 C1275 1.391 . S
C1275 H1263 0.950 . S
C1275 C1271 1.393 . S
C1275 C1274 1.391 . S
H1276 C1284 0.950 . S
H1277 C1289 0.950 . S
H1278 C1286 0.950 . S
H1279 C1288 0.950 . S
H1280 C1290 0.950 . S
H1281 C1292 0.950 . S
H1282 C1294 0.944 1_455 S
H1283 C1295 0.950 . S
C1284 H1276 0.950 . S
C1284 C1285 1.386 . S
C1284 C1286 1.391 . S
C1285 C1284 1.386 . S
C1285 C1289 1.393 . S
C1286 H1278 0.950 . S
C1286 C1284 1.391 . S
C1286 C1287 1.400 . S
C1287 C1286 1.400 . S
C1287 C1288 1.398 . S
C1287 C1293 1.491 . S
C1288 H1279 0.950 . S
C1288 C1287 1.398 . S
C1288 C1289 1.391 . S
C1289 H1277 0.950 . S
C1289 C1285 1.393 . S
C1289 C1288 1.391 . S
C1290 H1280 0.950 . S
C1290 C1291 1.386 1_655 S
C1290 C1292 1.391 . S
C1291 C1290 1.386 1_455 S
C1291 C1295 1.393 . S
C1292 H1281 0.950 . S
C1292 C1290 1.391 . S
C1292 C1293 1.400 . S
C1293 C1287 1.491 . S
C1293 C1292 1.400 . S
C1293 C1294 1.412 . S
C1294 H1282 0.944 1_655 S
C1294 C1293 1.412 . S
C1294 C1295 1.383 1_655 S
C1295 H1283 0.950 . S
C1295 C1291 1.393 . S
C1295 C1294 1.383 1_455 S
C765 C74 3.298 1_556 S
C771 C63 3.298 . S
C785 C158 3.350 . S
C791 C147 3.350 . S
C805 C242 3.348 . S
C811 C231 3.348 . S
C825 C315 3.264 . S
C831 C326 3.264 1_556 S
C845 C392 3.402 . S
C851 C403 3.402 1_556 S
C865 C483 3.262 . S
C871 C494 3.262 1_556 S
C885 C562 2.571 . S
C891 C574 2.571 . S
C905 C658 2.029 . S
C911 C646 2.029 1_556 S
C925 C730 1.558 . S
C931 C742 1.558 . S
C945 C476 1.980 . S
C951 C58 1.664 . S
C965 C142 1.480 . S
C971 C308 1.830 . S
C985 C226 1.166 . S
C991 C406 1.303 . S
C1005 C224 2.043 . S
C1011 C571 2.285 . S
C1025 C651 1.803 . S
C1031 C56 1.595 . S
C1045 C739 1.835 . S
C1051 C140 1.697 . S
C1065 C746 0.982 . S
C1071 C70 0.961 . S
C1085 C154 1.390 . S
C1091 C578 1.416 . S
C1105 C644 1.586 . S
C1111 C238 1.563 . S
C1125 C235 1.845 . S
C1131 C322 1.603 1_545 S
C1145 C399 2.527 . S
C1151 C67 2.465 . S
C1165 C151 2.003 . S
C1171 C490 1.788 . S
C1185 C735 1.580 . S
C1191 C310 1.566 . S
C1205 C567 1.804 . S
C1211 C410 1.675 . S
C1225 C655 1.735 1_455 S
C1231 C478 1.792 . S
C1245 C560 2.054 . S
C1251 C487 2.012 . S
C1265 C319 1.284 . S
C1271 C662 1.424 . S
C1285 C728 1.314 . S
C1291 C394 1.359 . S
