# Generated by pormake.
# Topology sml, (6)-cn, num edge types: 1
# Building blocks:
#     Node 0, Type 0, BuildingBlock: KUMJIN_clean_sbu_0, # of connection points: 6
#     Node 1, Type 0, BuildingBlock: KUMJIN_clean_sbu_0, # of connection points: 6
#     Node 2, Type 0, BuildingBlock: KUMJIN_clean_sbu_0, # of connection points: 6
#     Node 3, Type 0, BuildingBlock: KUMJIN_clean_sbu_0, # of connection points: 6
#     Node 4, Type 0, BuildingBlock: KUMJIN_clean_sbu_0, # of connection points: 6
#     Node 5, Type 0, BuildingBlock: KUMJIN_clean_sbu_0, # of connection points: 6
#     Edge 6, Type (0, 0), BuildingBlock: KIFKEQ_clean_linker_1, # of connection points: 2
#     Edge 7, Type (0, 0), BuildingBlock: KIFKEQ_clean_linker_1, # of connection points: 2
#     Edge 8, Type (0, 0), BuildingBlock: KIFKEQ_clean_linker_1, # of connection points: 2
#     Edge 9, Type (0, 0), BuildingBlock: KIFKEQ_clean_linker_1, # of connection points: 2
#     Edge 10, Type (0, 0), BuildingBlock: KIFKEQ_clean_linker_1, # of connection points: 2
#     Edge 11, Type (0, 0), BuildingBlock: KIFKEQ_clean_linker_1, # of connection points: 2
#     Edge 12, Type (0, 0), BuildingBlock: KIFKEQ_clean_linker_1, # of connection points: 2
#     Edge 13, Type (0, 0), BuildingBlock: KIFKEQ_clean_linker_1, # of connection points: 2
#     Edge 14, Type (0, 0), BuildingBlock: KIFKEQ_clean_linker_1, # of connection points: 2
#     Edge 15, Type (0, 0), BuildingBlock: KIFKEQ_clean_linker_1, # of connection points: 2
#     Edge 16, Type (0, 0), BuildingBlock: KIFKEQ_clean_linker_1, # of connection points: 2
#     Edge 17, Type (0, 0), BuildingBlock: KIFKEQ_clean_linker_1, # of connection points: 2
#     Edge 18, Type (0, 0), BuildingBlock: KIFKEQ_clean_linker_1, # of connection points: 2
#     Edge 19, Type (0, 0), BuildingBlock: KIFKEQ_clean_linker_1, # of connection points: 2
#     Edge 20, Type (0, 0), BuildingBlock: KIFKEQ_clean_linker_1, # of connection points: 2
#     Edge 21, Type (0, 0), BuildingBlock: KIFKEQ_clean_linker_1, # of connection points: 2
#     Edge 22, Type (0, 0), BuildingBlock: KIFKEQ_clean_linker_1, # of connection points: 2
#     Edge 23, Type (0, 0), BuildingBlock: KIFKEQ_clean_linker_1, # of connection points: 2
# Relax obj value: 0.028
# Max RMSD: 0.150
# Mean RMSD: 0.150
data_MOF--net-sml--node1-KUMJIN_clean_sbu_0--edge1-KIFKEQ_clean_linker_1
_symmetry_space_group_name_H-M    P1
_symmetry_Int_Tables_number       1
_symmetry_cell_setting            triclinic
loop_
_symmetry_equiv_pos_as_xyz
'x, y, z'
_cell_length_a     33.695792
_cell_length_b     33.729011
_cell_length_c     24.284045
_cell_angle_alpha  89.761006
_cell_angle_beta   90.014729
_cell_angle_gamma 120.053
loop_
_atom_site_label
_atom_site_type_symbol
_atom_site_fract_x
_atom_site_fract_y
_atom_site_fract_z
_atom_type_partial_charge
Eu0 Eu 0.1856 0.42515 0.9675 0.0
C1 C 0.32702 0.38716 0.06587 0.0
C2 C 0.28561 0.30408 0.06534 0.0
C3 C 0.368 0.34543 0.05199 0.0
C4 C 0.28587 0.34603 0.07047 0.0
C5 C 0.36858 0.38703 0.05792 0.0
C6 C 0.32663 0.3041 0.05549 0.0
C7 C 0.40942 0.46919 0.06638 0.0
N8 N 0.32689 0.42722 0.0704 0.0
C9 C 0.36767 0.46774 0.07404 0.0
C10 C 0.40985 0.42872 0.0573 0.0
Eu11 Eu 0.25418 0.42178 0.0834 0.0
N12 N 0.24627 0.34676 0.07941 0.0
C13 C 0.20572 0.30607 0.08503 0.0
C14 C 0.24413 0.26302 0.07013 0.0
C15 C 0.20414 0.26408 0.08028 0.0
H16 H 0.36845 0.49954 0.0826 0.0
H17 H 0.17175 0.2324 0.08402 0.0
H18 H 0.32679 0.27221 0.05113 0.0
H19 H 0.44128 0.50154 0.06795 0.0
H20 H 0.17346 0.30433 0.09144 0.0
H21 H 0.25415 0.60994 0.97438 0.0
H22 H 0.24262 0.2303 0.06622 0.0
H23 H 0.07692 0.34146 0.95061 0.0
H24 H 0.25744 0.53897 0.9653 0.0
H25 H 0.9987 0.331 0.9545 0.0
H26 H 0.3995 0.34483 0.04537 0.0
H27 H 0.17953 0.60597 0.98856 0.0
H28 H 0.09373 0.55778 0.99577 0.0
H29 H 0.44232 0.42991 0.05149 0.0
H30 H 0.02423 0.48171 0.99099 0.0
N31 N 0.18549 0.49498 0.97459 0.0
C32 C 0.22464 0.53663 0.97102 0.0
C33 C 0.18076 0.57463 0.98441 0.0
C34 C 0.14058 0.53185 0.98581 0.0
C35 C 0.22291 0.57703 0.97623 0.0
C36 C 0.1441 0.49209 0.98038 0.0
H37 H 0.98842 0.39716 0.97484 0.0
N38 N 0.10981 0.41214 0.97081 0.0
C39 C 0.02829 0.36439 0.9618 0.0
C40 C 0.10505 0.44935 0.97849 0.0
C41 C 0.07245 0.37037 0.95961 0.0
C42 C 0.02264 0.40181 0.9734 0.0
C43 C 0.0613 0.44513 0.98084 0.0
O44 O 0.15974 0.38553 0.89179 0.0
O45 O 0.23131 0.39991 0.99756 0.0
O46 O 0.30346 0.4791 0.02438 0.0
O47 O 0.25992 0.46783 0.94531 0.0
O48 O 0.17107 0.3519 0.96075 0.0
O49 O 0.20496 0.45871 0.88685 0.0
O50 O 0.29838 0.47486 0.14136 0.0
O51 O 0.22462 0.46205 0.04341 0.0
O52 O 0.13546 0.38466 0.03605 0.0
O53 O 0.1789 0.37274 0.10274 0.0
O54 O 0.21269 0.44754 0.12693 0.0
O55 O 0.25738 0.40309 0.16949 0.0
C56 C 0.21008 0.3595 0.97974 0.0
C57 C 0.15662 0.42276 0.81057 0.0
C58 C 0.15134 0.42427 0.71022 0.0
C59 C 0.17395 0.42229 0.75805 0.0
C60 C 0.11079 0.42621 0.716 0.0
C61 C 0.11633 0.42491 0.81545 0.0
C62 C 0.09347 0.42644 0.76824 0.0
C63 C 0.29937 0.4866 0.97153 0.0
C64 C 0.18127 0.42091 0.85944 0.0
C65 C 0.05757 0.48439 0.98849 0.0
C66 C 0.09713 0.52768 0.9911 0.0
C67 C 0.20603 0.46763 0.08595 0.0
C68 C 0.30626 0.46005 0.23736 0.0
C69 C 0.27874 0.4442 0.28514 0.0
C70 C 0.29875 0.45826 0.33773 0.0
C71 C 0.34643 0.488 0.34141 0.0
C72 C 0.35356 0.48991 0.2423 0.0
C73 C 0.37349 0.50359 0.29408 0.0
C74 C 0.13939 0.36591 0.0823 0.0
C75 C 0.28645 0.44564 0.18211 0.0
H76 H 0.20547 0.42119 0.75454 0.0
H77 H 0.09222 0.42716 0.68008 0.0
H78 H 0.10263 0.42542 0.85557 0.0
H79 H 0.06222 0.42788 0.77212 0.0
H80 H 0.24211 0.42119 0.28138 0.0
H81 H 0.36282 0.5 0.38102 0.0
H82 H 0.37519 0.50229 0.20601 0.0
H83 H 0.41008 0.52657 0.29757 0.0
Eu84 Eu 0.76358 0.17856 0.29747 0.0
C85 C 0.93513 0.32662 0.39721 0.0
C86 C 0.98406 0.29298 0.39549 0.0
C87 C 0.01724 0.37464 0.38049 0.0
C88 C 0.94014 0.28835 0.4016 0.0
C89 C 0.97402 0.37036 0.38828 0.0
C90 C 0.02221 0.33601 0.38386 0.0
C91 C 0.92588 0.40359 0.40088 0.0
N92 N 0.89291 0.32166 0.40444 0.0
C93 C 0.88847 0.35975 0.40949 0.0
C94 C 0.96871 0.40888 0.38918 0.0
Eu95 Eu 0.83054 0.24536 0.4164 0.0
N96 N 0.90262 0.24694 0.41296 0.0
C97 C 0.90789 0.20964 0.42209 0.0
C98 C 0.9887 0.25437 0.40204 0.0
C99 C 0.95055 0.2127 0.41608 0.0
H100 H 0.85587 0.35665 0.42005 0.0
H101 H 0.95391 0.18272 0.42229 0.0
H102 H 0.05594 0.33995 0.37865 0.0
H103 H 0.9217 0.4333 0.40376 0.0
H104 H 0.87986 0.17671 0.43328 0.0
H105 H 0.6469 0.24665 0.28743 0.0
H106 H 0.02173 0.25656 0.39744 0.0
H107 H 0.7373 0.06903 0.28208 0.0
H108 H 0.72122 0.24943 0.28188 0.0
H109 H 0.66928 0.99126 0.28989 0.0
H110 H 0.04725 0.40786 0.37304 0.0
H111 H 0.57629 0.17331 0.30802 0.0
H112 H 0.53874 0.08835 0.32428 0.0
H113 H 0.99775 0.44296 0.38279 0.0
H114 H 0.54514 0.01874 0.326 0.0
N115 N 0.69342 0.17863 0.29967 0.0
C116 C 0.69083 0.21724 0.29067 0.0
C117 C 0.60889 0.17433 0.3054 0.0
C118 C 0.61152 0.13445 0.31184 0.0
C119 C 0.64863 0.21575 0.29362 0.0
C120 C 0.65481 0.13767 0.30786 0.0
H121 H 0.59332 0.98205 0.31155 0.0
N122 N 0.70015 0.10288 0.30115 0.0
C123 C 0.66578 0.02114 0.2958 0.0
C124 C 0.65833 0.09857 0.30893 0.0
C125 C 0.70408 0.06507 0.29124 0.0
C126 C 0.623 0.0161 0.30822 0.0
C127 C 0.61865 0.05506 0.31362 0.0
O128 O 0.77678 0.15057 0.22333 0.0
O129 O 0.8331 0.22355 0.33117 0.0
O130 O 0.81503 0.29145 0.36128 0.0
O131 O 0.79853 0.25416 0.27686 0.0
O132 O 0.82262 0.16422 0.29421 0.0
O133 O 0.75456 0.20044 0.21599 0.0
O134 O 0.81838 0.2837 0.4799 0.0
O135 O 0.76182 0.21501 0.37361 0.0
O136 O 0.75232 0.12787 0.36592 0.0
O137 O 0.81027 0.17051 0.42937 0.0
O138 O 0.76245 0.19983 0.45641 0.0
O139 O 0.84575 0.23927 0.50222 0.0
C140 C 0.8532 0.20278 0.31492 0.0
C141 C 0.73988 0.15108 0.14083 0.0
C142 C 0.73396 0.14996 0.04059 0.0
C143 C 0.75819 0.17028 0.08926 0.0
C144 C 0.69113 0.10941 0.04477 0.0
C145 C 0.69722 0.11087 0.14433 0.0
C146 C 0.67309 0.09002 0.09629 0.0
C147 C 0.8111 0.29102 0.30692 0.0
C148 C 0.76629 0.17421 0.18999 0.0
C149 C 0.57581 0.05183 0.32121 0.0
C150 C 0.57221 0.09146 0.32025 0.0
C151 C 0.73675 0.19435 0.41488 0.0
C152 C 0.85316 0.29417 0.5684 0.0
C153 C 0.83843 0.27322 0.62016 0.0
C154 C 0.8557 0.29869 0.66859 0.0
C155 C 0.88852 0.34551 0.6646 0.0
C156 C 0.88629 0.34072 0.56488 0.0
C157 C 0.90393 0.36623 0.61299 0.0
C158 C 0.77644 0.13122 0.41044 0.0
C159 C 0.83132 0.26644 0.51959 0.0
H160 H 0.79164 0.20099 0.08728 0.0
H161 H 0.6711 0.09303 1.00839 0.0
H162 H 0.68263 0.09576 0.18393 0.0
H163 H 0.6401 0.05894 0.09897 0.0
H164 H 0.8124 0.23726 0.62269 0.0
H165 H 0.90246 0.36593 0.70137 0.0
H166 H 0.89815 0.35733 0.52528 0.0
H167 H 0.92936 0.40225 0.6103 0.0
Eu168 Eu 0.58098 0.7574 0.63662 0.0
C169 C 0.60596 0.93776 0.7417 0.0
C170 C 0.68861 0.98516 0.73843 0.0
C171 C 0.64123 0.02063 0.73515 0.0
C172 C 0.64869 0.94159 0.7415 0.0
C173 C 0.60171 0.97729 0.73982 0.0
C174 C 0.68461 0.02455 0.7343 0.0
C175 C 0.51996 0.92849 0.75174 0.0
N176 N 0.56856 0.89548 0.74639 0.0
C177 C 0.52601 0.8904 0.75361 0.0
C178 C 0.55794 0.97212 0.74415 0.0
Eu179 Eu 0.5805 0.83199 0.74801 0.0
N180 N 0.6513 0.90285 0.74602 0.0
C181 C 0.69315 0.90573 0.75078 0.0
C182 C 0.73139 0.98794 0.74068 0.0
C183 C 0.73362 0.94805 0.74746 0.0
H184 H 0.49656 0.85662 0.75955 0.0
H185 H 0.76654 0.94982 0.74995 0.0
H186 H 0.71488 0.05824 0.73162 0.0
H187 H 0.48606 0.92417 0.75626 0.0
H188 H 0.69611 0.87558 0.75532 0.0
H189 H 0.39626 0.63486 0.62882 0.0
H190 H 0.76283 0.0207 0.73824 0.0
H191 H 0.66759 0.73604 0.62628 0.0
H192 H 0.46537 0.7102 0.62103 0.0
H193 H 0.68033 0.66994 0.6349 0.0
H194 H 0.63866 0.05137 0.73323 0.0
H195 H 0.4025 0.56652 0.65048 0.0
H196 H 0.45264 0.53231 0.66642 0.0
H197 H 0.55323 1.00163 0.74296 0.0
H198 H 0.52995 0.542 0.66866 0.0
N199 N 0.51159 0.68584 0.63875 0.0
C200 C 0.46929 0.68107 0.63 0.0
C201 C 0.4333 0.59973 0.64693 0.0
C202 C 0.47672 0.60437 0.65279 0.0
C203 C 0.42964 0.63816 0.6345 0.0
C204 C 0.51579 0.6484 0.6479 0.0
H205 H 0.6148 0.59261 0.65465 0.0
N206 N 0.59601 0.69619 0.64175 0.0
C207 C 0.64618 0.66497 0.6394 0.0
C208 C 0.55928 0.65371 0.64917 0.0
C209 C 0.6389 0.70217 0.63435 0.0
C210 C 0.60911 0.6214 0.65069 0.0
C211 C 0.56491 0.61521 0.65485 0.0
O212 O 0.62481 0.77394 0.56448 0.0
O213 O 0.60606 0.82822 0.66536 0.0
O214 O 0.54016 0.84028 0.67776 0.0
O215 O 0.53169 0.78271 0.61703 0.0
O216 O 0.6547 0.81627 0.6307 0.0
O217 O 0.55146 0.74543 0.55389 0.0
O218 O 0.53742 0.81903 0.82055 0.0
O219 O 0.55344 0.76093 0.71852 0.0
O220 O 0.61391 0.74396 0.70935 0.0
O221 O 0.6296 0.80492 0.76802 0.0
O222 O 0.506 0.77619 0.75041 0.0
O223 O 0.60742 0.83406 0.83043 0.0
C224 C 0.64706 0.84767 0.64934 0.0
C225 C 0.59284 0.73628 0.48064 0.0
C226 C 0.59383 0.73293 0.38013 0.0
C227 C 0.58698 0.75122 0.42891 0.0
C228 C 0.60571 0.69846 0.38463 0.0
C229 C 0.6038 0.70142 0.48419 0.0
C230 C 0.61008 0.68256 0.43625 0.0
C231 C 0.52316 0.81527 0.63268 0.0
C232 C 0.59105 0.76049 0.52968 0.0
C233 C 0.52623 0.57173 0.66283 0.0
C234 C 0.48222 0.56627 0.66175 0.0
C235 C 0.51189 0.74365 0.732 0.0
C236 C 0.57399 0.85172 0.90465 0.0
C237 C 0.57474 0.83322 0.95621 0.0
C238 C 0.57908 0.85766 1.0047 0.0
C239 C 0.58227 0.90079 1.00079 0.0
C240 C 0.57737 0.89481 0.90137 0.0
C241 C 0.58133 0.91912 0.9494 0.0
C242 C 0.63364 0.76913 0.75334 0.0
C243 C 0.56952 0.82522 0.85513 0.0
H244 H 0.57753 0.77754 0.42709 0.0
H245 H 0.61256 0.68424 0.34844 0.0
H246 H 0.60831 0.68943 0.52377 0.0
H247 H 0.61925 0.65611 0.43907 0.0
H248 H 0.57263 0.80009 0.95845 0.0
H249 H 0.5851 0.92015 0.0375 0.0
H250 H 0.57691 0.90955 0.86189 0.0
H251 H 0.58369 0.95228 0.94683 0.0
Eu252 Eu 0.82323 0.58276 0.97167 0.0
C253 C 0.68644 0.6211 0.06616 0.0
C254 C 0.72922 0.70408 0.06929 0.0
C255 C 0.64825 0.66488 0.04706 0.0
C256 C 0.7275 0.66142 0.0748 0.0
C257 C 0.64615 0.62257 0.05373 0.0
C258 C 0.68971 0.70552 0.05455 0.0
C259 C 0.60337 0.54022 0.05957 0.0
N260 N 0.68531 0.58046 0.07139 0.0
C261 C 0.64398 0.54039 0.07154 0.0
C262 C 0.60456 0.58144 0.04952 0.0
Eu263 Eu 0.75627 0.58352 0.08987 0.0
N264 N 0.76557 0.6592 0.08856 0.0
C265 C 0.80555 0.6989 0.10048 0.0
C266 C 0.77057 0.74429 0.07896 0.0
C267 C 0.80869 0.74161 0.09517 0.0
H268 H 0.64172 0.50802 0.08107 0.0
H269 H 0.84071 0.77259 0.10377 0.0
H270 H 0.69071 0.73796 0.04973 0.0
H271 H 0.57109 0.50825 0.05859 0.0
H272 H 0.83598 0.6993 0.11409 0.0
H273 H 0.75235 0.39759 0.98229 0.0
H274 H 0.77324 0.77755 0.07486 0.0
H275 H 0.93264 0.66511 0.95196 0.0
H276 H 0.75032 0.46911 0.97104 0.0
H277 H 0.01031 0.6744 0.95639 0.0
H278 H 0.61779 0.66654 0.03689 0.0
H279 H 0.82649 0.40046 0.99617 0.0
H280 H 0.91237 0.44765 1.00215 0.0
H281 H 0.57299 0.58124 0.0403 0.0
H282 H 0.98252 0.52316 0.9961 0.0
N283 N 0.82233 0.51236 0.9797 0.0
C284 C 0.78283 0.47097 0.97709 0.0
C285 C 0.82577 0.43204 0.99129 0.0
C286 C 0.86633 0.47451 0.9915 0.0
C287 C 0.78388 0.43027 0.98338 0.0
C288 C 0.86347 0.51462 0.98525 0.0
H289 H 0.01941 0.60767 0.97837 0.0
N290 N 0.89877 0.59463 0.97429 0.0
C291 C 0.98042 0.64129 0.96441 0.0
C292 C 0.90288 0.55707 0.98266 0.0
C293 C 0.93655 0.63596 0.96201 0.0
C294 C 0.9854 0.60357 0.9769 0.0
C295 C 0.94635 0.56058 0.98503 0.0
O296 O 0.84885 0.62216 0.89538 0.0
O297 O 0.77748 0.607 1.00385 0.0
O298 O 0.70943 0.52274 0.0342 0.0
O299 O 0.74788 0.54308 0.95028 0.0
O300 O 0.83716 0.65591 0.96631 0.0
O301 O 0.80347 0.54908 0.89138 0.0
O302 O 0.70912 0.529 0.14562 0.0
O303 O 0.78644 0.54459 0.04874 0.0
O304 O 0.87529 0.6274 0.03658 0.0
O305 O 0.83163 0.63093 0.10966 0.0
O306 O 0.80079 0.56051 0.13146 0.0
O307 O 0.75171 0.59936 0.17627 0.0
C308 C 0.79833 0.64779 0.98664 0.0
C309 C 0.85223 0.58486 0.81488 0.0
C310 C 0.85836 0.58394 0.71455 0.0
C311 C 0.835 0.58497 0.76218 0.0
C312 C 0.89951 0.58317 0.72084 0.0
C313 C 0.89297 0.5836 0.82019 0.0
C314 C 0.91654 0.58293 0.77326 0.0
C315 C 0.71033 0.51937 0.97984 0.0
C316 C 0.82734 0.58678 0.86347 0.0
C317 C 0.94941 0.52098 0.99346 0.0
C318 C 0.90948 0.47802 0.99679 0.0
C319 C 0.80654 0.53987 0.09049 0.0
C320 C 0.70138 0.5417 0.24265 0.0
C321 C 0.72847 0.55899 0.29041 0.0
C322 C 0.70877 0.54356 0.34303 0.0
C323 C 0.66173 0.51098 0.34678 0.0
C324 C 0.65474 0.5091 0.24766 0.0
C325 C 0.63505 0.49406 0.29949 0.0
C326 C 0.8713 0.64221 0.08558 0.0
C327 C 0.72132 0.55688 0.18742 0.0
H328 H 0.80307 0.58523 0.75844 0.0
H329 H 0.91882 0.58315 0.68521 0.0
H330 H 0.90658 0.58326 0.86041 0.0
H331 H 0.94819 0.5823 0.77749 0.0
H332 H 0.76462 0.58409 0.28658 0.0
H333 H 0.64562 0.49776 0.38638 0.0
H334 H 0.63344 0.49547 0.2114 0.0
H335 H 0.59898 0.46889 0.30304 0.0
Eu336 Eu 0.2527 0.8258 0.30088 0.0
C337 C 0.0695 0.67494 0.41005 0.0
C338 C 0.02245 0.7104 0.40358 0.0
C339 C 0.98645 0.62744 0.40554 0.0
C340 C 0.06593 0.71396 0.40728 0.0
C341 C 0.02976 0.63121 0.41031 0.0
C342 C 0.98282 0.66696 0.40201 0.0
C343 C 0.07842 0.59827 0.42319 0.0
N344 N 0.11178 0.67971 0.41414 0.0
C345 C 0.11676 0.64236 0.42266 0.0
C346 C 0.03472 0.59263 0.41638 0.0
Eu347 Eu 0.1753 0.75507 0.41322 0.0
N348 N 0.10491 0.75541 0.40872 0.0
C349 C 0.10251 0.79471 0.40945 0.0
C350 C 0.02005 0.7506 0.40212 0.0
C351 C 0.06026 0.79291 0.40552 0.0
H352 H 0.15059 0.64675 0.42814 0.0
H353 H 0.05878 0.82424 0.40498 0.0
H354 H 0.94918 0.66358 0.39889 0.0
H355 H 0.08257 0.56872 0.42897 0.0
H356 H 0.13301 0.82787 0.41146 0.0
H357 H 0.3827 0.77328 0.30168 0.0
H358 H 0.98735 0.74932 0.39908 0.0
H359 H 0.26684 0.9304 0.28569 0.0
H360 H 0.30532 0.76197 0.29647 0.0
H361 H 0.32998 0.01117 0.2841 0.0
H362 H 0.95555 0.59415 0.40527 0.0
H363 H 0.44946 0.85134 0.31004 0.0
H364 H 0.48012 0.93601 0.31186 0.0
H365 H 0.00504 0.55845 0.41689 0.0
H366 H 0.46583 1.00074 0.30662 0.0
N367 N 0.32652 0.83284 0.3041 0.0
C368 C 0.33351 0.79633 0.30036 0.0
C369 C 0.41522 0.8466 0.30823 0.0
C370 C 0.40821 0.88411 0.309 0.0
C371 C 0.37768 0.80255 0.30331 0.0
C372 C 0.36287 0.87606 0.30686 0.0
H373 H 0.4102 0.02905 0.29592 0.0
N374 N 0.31107 0.90356 0.30014 0.0
C375 C 0.33743 0.98376 0.2902 0.0
C376 C 0.35492 0.9125 0.30452 0.0
C377 C 0.30187 0.93817 0.29106 0.0
C378 C 0.38266 0.99372 0.297 0.0
C379 C 0.39196 0.9579 0.30348 0.0
O380 O 0.23631 0.84892 0.22477 0.0
O381 O 0.18077 0.78185 0.32859 0.0
O382 O 0.16545 0.7055 0.34359 0.0
O383 O 0.23118 0.75051 0.29035 0.0
O384 O 0.19501 0.84192 0.29049 0.0
O385 O 0.26303 0.80233 0.22127 0.0
O386 O 0.19101 0.7296 0.48775 0.0
O387 O 0.24734 0.79696 0.38477 0.0
O388 O 0.26822 0.87397 0.37252 0.0
O389 O 0.20386 0.83225 0.42854 0.0
O390 O 0.22936 0.73432 0.42029 0.0
O391 O 0.16672 0.77793 0.49446 0.0
C392 C 0.16244 0.80361 0.30972 0.0
C393 C 0.27563 0.85029 0.14415 0.0
C394 C 0.28144 0.85555 0.04411 0.0
C395 C 0.25698 0.83332 0.09208 0.0
C396 C 0.32458 0.89535 0.04893 0.0
C397 C 0.31861 0.89011 0.1484 0.0
C398 C 0.34288 0.91259 0.10083 0.0
C399 C 0.1949 0.71075 0.30398 0.0
C400 C 0.24915 0.82622 0.19323 0.0
C401 C 0.43703 0.96608 0.30721 0.0
C402 C 0.44514 0.92926 0.31014 0.0
C403 C 0.26294 0.77172 0.40049 0.0
C404 C 0.15503 0.72916 0.57101 0.0
C405 C 0.17287 0.74946 0.6222 0.0
C406 C 0.153 0.72541 0.67117 0.0
C407 C 0.11473 0.68114 0.66863 0.0
C408 C 0.11624 0.68521 0.56897 0.0
C409 C 0.09618 0.66138 0.61771 0.0
C410 C 0.24193 0.87081 0.41476 0.0
C411 C 0.17999 0.75284 0.52083 0.0
H412 H 0.22377 0.80242 0.08894 0.0
H413 H 0.34394 0.91329 1.01252 0.0
H414 H 0.3333 0.90377 0.18825 0.0
H415 H 0.376 0.94342 0.10417 0.0
H416 H 0.20316 0.78324 0.62394 0.0
H417 H 0.09913 0.66201 0.70605 0.0
H418 H 0.10202 0.66905 0.52991 0.0
H419 H 0.06656 0.62728 0.61602 0.0
Eu420 Eu 0.43094 0.25067 0.63744 0.0
C421 C 0.39939 0.0686 0.73955 0.0
C422 C 0.31645 0.0247 0.73661 0.0
C423 C 0.36043 0.98569 0.73061 0.0
C424 C 0.35765 0.06708 0.7405 0.0
C425 C 0.40126 0.02784 0.73569 0.0
C426 C 0.31811 0.98414 0.73091 0.0
C427 C 0.48358 0.07317 0.74526 0.0
N428 N 0.43819 0.10981 0.74404 0.0
C429 C 0.47992 0.11258 0.74886 0.0
C430 C 0.4441 0.03062 0.73803 0.0
Eu431 Eu 0.43 0.1754 0.74824 0.0
N432 N 0.35727 0.10692 0.74592 0.0
C433 C 0.31652 0.10641 0.75017 0.0
C434 C 0.27479 0.02427 0.73909 0.0
C435 C 0.27486 0.06529 0.74636 0.0
H436 H 0.51053 0.14554 0.75433 0.0
H437 H 0.2428 0.06533 0.74867 0.0
H438 H 0.28683 0.95134 0.72754 0.0
H439 H 0.51679 0.07562 0.74805 0.0
H440 H 0.31546 0.13757 0.75472 0.0
H441 H 0.60925 0.39033 0.64701 0.0
H442 H 0.24243 0.99247 0.73603 0.0
H443 H 0.33576 0.25609 0.61656 0.0
H444 H 0.54727 0.31072 0.64064 0.0
H445 H 0.31188 0.3146 0.61245 0.0
H446 H 0.36117 0.95405 0.72717 0.0
H447 H 0.59133 0.45287 0.65154 0.0
H448 H 0.53258 0.47708 0.648 0.0
H449 H 0.44698 1.0001 0.7353 0.0
H450 H 0.45173 0.45686 0.6391 0.0
N451 N 0.49357 0.32665 0.64424 0.0
C452 C 0.53837 0.33712 0.64306 0.0
C453 C 0.56367 0.41765 0.64939 0.0
C454 C 0.51788 0.40701 0.64758 0.0
C455 C 0.57393 0.38251 0.64667 0.0
C456 C 0.48308 0.36059 0.64502 0.0
H457 H 0.36933 0.3964 0.62574 0.0
N458 N 0.40521 0.30426 0.63503 0.0
C459 C 0.34728 0.32473 0.62063 0.0
C460 C 0.4376 0.34909 0.64011 0.0
C461 C 0.36081 0.29176 0.62308 0.0
C462 C 0.3798 0.37086 0.62826 0.0
C463 C 0.42573 0.38366 0.63718 0.0
O464 O 0.39416 0.22771 0.55986 0.0
O465 O 0.40688 0.17932 0.6645 0.0
O466 O 0.46932 0.16803 0.67624 0.0
O467 O 0.48816 0.2343 0.62573 0.0
O468 O 0.35863 0.18965 0.62605 0.0
O469 O 0.46791 0.27118 0.55866 0.0
O470 O 0.4736 0.18444 0.81892 0.0
O471 O 0.45755 0.24792 0.72154 0.0
O472 O 0.39086 0.25998 0.70552 0.0
O473 O 0.38459 0.20585 0.771 0.0
O474 O 0.50424 0.22995 0.75087 0.0
O475 O 0.40437 0.17139 0.8319 0.0
C476 C 0.36661 0.15876 0.64599 0.0
C477 C 0.42615 0.27161 0.47989 0.0
C478 C 0.42084 0.27226 0.37943 0.0
C479 C 0.43089 0.25611 0.42814 0.0
C480 C 0.40657 0.30492 0.38404 0.0
C481 C 0.41296 0.30483 0.48334 0.0
C482 C 0.40326 0.32139 0.43552 0.0
C483 C 0.49254 0.19823 0.63682 0.0
C484 C 0.4307 0.24917 0.52941 0.0
C485 C 0.46016 0.42983 0.64127 0.0
C486 C 0.50612 0.44142 0.64644 0.0
C487 C 0.499 0.26386 0.73589 0.0
C488 C 0.4387 0.15252 0.90464 0.0
C489 C 0.43692 0.1706 0.9559 0.0
C490 C 0.43454 0.14717 1.0049 0.0
C491 C 0.43414 0.10533 1.00171 0.0
C492 C 0.43806 0.11071 0.9021 0.0
C493 C 0.43589 0.08731 0.95061 0.0
C494 C 0.37528 0.23745 0.75247 0.0
C495 C 0.44247 0.17882 0.85485 0.0
H496 H 0.44202 0.23107 0.42631 0.0
H497 H 0.39707 0.31732 0.34809 0.0
H498 H 0.40929 0.31728 0.52281 0.0
H499 H 0.39228 0.34647 0.4384 0.0
H500 H 0.43701 0.20279 0.95752 0.0
H501 H 0.43301 0.0868 0.03875 0.0
H502 H 0.43948 0.09636 0.86286 0.0
H503 H 0.43575 0.05519 0.94864 0.0
H504 H 0.30829 0.25647 0.72289 0.0
H505 H 0.38279 0.24945 0.86362 0.0
H506 H 0.26711 0.28248 0.78257 0.0
H507 H 0.34248 0.27685 0.92299 0.0
H508 H 0.30173 0.39796 0.95765 0.0
H509 H 0.34042 0.36418 0.90759 0.0
H510 H 0.21086 0.24032 0.88448 0.0
H511 H 0.17224 0.27299 0.93807 0.0
C512 C 0.31582 0.26048 0.76651 0.0
C513 C 0.34861 0.25083 0.78866 0.0
C514 C 0.29212 0.27508 0.80061 0.0
C515 C 0.30159 0.28138 0.85725 0.0
C516 C 0.33446 0.27193 0.87946 0.0
C517 C 0.3573 0.25615 0.84559 0.0
C518 C 0.28164 0.36293 0.9437 0.0
C519 C 0.23406 0.33759 0.9534 0.0
C520 C 0.30379 0.34382 0.91459 0.0
C521 C 0.27856 0.29969 0.89243 0.0
C522 C 0.23101 0.27436 0.90152 0.0
C523 C 0.20901 0.29301 0.93213 0.0
H524 H 0.1261 0.30699 0.16779 0.0
H525 H 0.05908 0.36745 0.07724 0.0
H526 H 0.05958 0.26851 0.22855 0.0
H527 H 0.99242 0.3282 0.1369 0.0
H528 H 0.901 0.29289 0.28521 0.0
H529 H 0.97158 0.33192 0.23199 0.0
H530 H 0.97829 0.20736 0.22833 0.0
H531 H 0.90782 0.16851 0.28337 0.0
C532 C 0.09701 0.31161 0.16026 0.0
C533 C 0.09776 0.33978 0.11687 0.0
C534 C 0.05883 0.28946 0.1951 0.0
C535 C 0.02072 0.29535 0.18776 0.0
C536 C 0.02139 0.32328 0.14416 0.0
C537 C 0.05939 0.34522 0.10924 0.0
C538 C 0.91801 0.27404 0.27413 0.0
C539 C 0.89919 0.22772 0.28908 0.0
C540 C 0.95821 0.29629 0.24296 0.0
C541 C 0.9803 0.27262 0.22521 0.0
C542 C 0.96227 0.22665 0.24159 0.0
C543 C 0.92193 0.20435 0.27295 0.0
H544 H 0.69218 0.05366 0.41098 0.0
H545 H 0.82386 0.11581 0.49191 0.0
H546 H 0.66381 0.9882 0.47294 0.0
H547 H 0.79504 0.05034 0.55475 0.0
H548 H 0.73512 0.89678 0.61157 0.0
H549 H 0.76878 0.96665 0.55523 0.0
H550 H 0.64394 0.97199 0.57134 0.0
H551 H 0.61045 0.90237 0.62642 0.0
C552 C 0.71545 0.05305 0.44123 0.0
C553 C 0.76068 0.08976 0.44555 0.0
C554 C 0.69887 0.01579 0.4775 0.0
C555 C 0.72708 0.01412 0.51909 0.0
C556 C 0.77254 0.05042 0.52296 0.0
C557 C 0.78904 0.08796 0.48688 0.0
C558 C 0.71526 0.9134 0.60374 0.0
C559 C 0.67013 0.89396 0.62361 0.0
C560 C 0.73451 0.95342 0.57156 0.0
C561 C 0.70879 0.97452 0.55805 0.0
C562 C 0.66439 0.95613 0.58 0.0
C563 C 0.64531 0.91635 0.6122 0.0
H564 H 0.69288 0.81638 0.83828 0.0
H565 H 0.63096 0.68702 0.75271 0.0
H566 H 0.73206 0.78918 0.89973 0.0
H567 H 0.67117 0.66098 0.81171 0.0
H568 H 0.70881 0.60488 0.95514 0.0
H569 H 0.66913 0.63655 0.90419 0.0
H570 H 0.79277 0.76898 0.9019 0.0
H571 H 0.83213 0.7372 0.95576 0.0
C572 C 0.68791 0.78239 0.83218 0.0
C573 C 0.65912 0.75417 0.78997 0.0
C574 C 0.71056 0.7669 0.86722 0.0
C575 C 0.70464 0.72276 0.861 0.0
C576 C 0.67606 0.69486 0.81851 0.0
C577 C 0.6535 0.71021 0.78383 0.0
C578 C 0.72736 0.641 0.94494 0.0
C579 C 0.77346 0.66875 0.96031 0.0
C580 C 0.70472 0.6591 0.91497 0.0
C581 C 0.72785 0.70526 0.89814 0.0
C582 C 0.77377 0.73338 0.91451 0.0
C583 C 0.79641 0.71521 0.94506 0.0
H584 H 0.12123 0.84389 0.25427 0.0
H585 H 0.10118 0.71135 0.30007 0.0
H586 H 0.05078 0.80631 0.19919 0.0
H587 H 0.02983 0.67419 0.24824 0.0
H588 H 0.8793 0.63616 0.19612 0.0
H589 H 0.94838 0.67567 0.25262 0.0
H590 H 0.02732 0.74665 0.10858 0.0
H591 H 0.9582 0.70596 0.05134 0.0
C592 C 0.10137 0.80683 0.25369 0.0
C593 C 0.11655 0.78073 0.28275 0.0
C594 C 0.06125 0.7854 0.22194 0.0
C595 C 0.03496 0.7374 0.21951 0.0
C596 C 0.04933 0.71127 0.24964 0.0
C597 C 0.09008 0.73267 0.27991 0.0
C598 C 0.91129 0.66046 0.17647 0.0
C599 C 0.91327 0.6682 0.11928 0.0
C600 C 0.9508 0.68285 0.20882 0.0
C601 C 0.993 0.7144 0.18501 0.0
C602 C 0.99504 0.72274 0.12796 0.0
C603 C 0.95563 0.69936 0.09524 0.0
H604 H 0.27856 0.10629 0.60921 0.0
H605 H 0.4061 0.10637 0.62332 0.0
H606 H 0.24636 0.03524 0.55585 0.0
H607 H 0.37423 0.03576 0.57131 0.0
H608 H 0.32593 0.94919 0.41482 0.0
H609 H 0.35329 0.01532 0.47472 0.0
H610 H 0.22226 0.95219 0.55762 0.0
H611 H 0.19439 0.8857 0.4969 0.0
C612 C 0.29947 0.09076 0.60184 0.0
C613 C 0.34491 0.11212 0.62101 0.0
C614 C 0.28101 0.04998 0.57136 0.0
C615 C 0.30782 0.02991 0.55857 0.0
C616 C 0.35274 0.05052 0.57942 0.0
C617 C 0.37098 0.09101 0.60999 0.0
C618 C 0.30261 0.94933 0.44538 0.0
C619 C 0.2577 0.91194 0.45054 0.0
C620 C 0.31858 0.98723 0.48031 0.0
C621 C 0.29016 0.98914 0.52144 0.0
C622 C 0.24504 0.95205 0.52627 0.0
C623 C 0.2291 0.91383 0.4915 0.0
H624 H 0.18652 0.37173 0.67156 0.0
H625 H 0.15901 0.47884 0.62277 0.0
H626 H 0.21645 0.37282 0.5797 0.0
H627 H 0.18978 0.48083 0.53154 0.0
H628 H 0.21707 0.45527 0.35823 0.0
H629 H 0.17765 0.44184 0.44671 0.0
H630 H 0.27985 0.41776 0.5225 0.0
H631 H 0.3176 0.42898 0.43391 0.0
C632 C 0.18713 0.39572 0.6413 0.0
C633 C 0.17016 0.42505 0.65444 0.0
C634 C 0.20432 0.3964 0.58854 0.0
C635 C 0.20539 0.42676 0.54773 0.0
C636 C 0.18854 0.45618 0.56119 0.0
C637 C 0.17106 0.45523 0.61371 0.0
C638 C 0.2304 0.44602 0.39358 0.0
C639 C 0.27079 0.44374 0.38917 0.0
C640 C 0.2082 0.43895 0.44455 0.0
C641 C 0.22588 0.42941 0.49226 0.0
C642 C 0.26493 0.42479 0.48694 0.0
C643 C 0.28694 0.43171 0.43612 0.0
H644 H 0.78368 0.2416 1.01491 0.0
H645 H 0.72781 0.10737 0.94214 0.0
H646 H 0.81518 0.27672 0.92646 0.0
H647 H 0.75579 0.14254 0.85247 0.0
H648 H 0.84738 0.21848 0.70649 0.0
H649 H 0.81979 0.18266 0.79642 0.0
H650 H 0.79459 0.29213 0.84156 0.0
H651 H 0.82436 0.3287 0.75272 0.0
C652 C 0.77804 0.21944 0.9801 0.0
C653 C 0.75304 0.17148 0.98597 0.0
C654 C 0.79549 0.2397 0.92889 0.0
C655 C 0.78775 0.21265 0.88177 0.0
C656 C 0.76296 0.16466 0.8877 0.0
C657 C 0.74615 0.14438 0.93916 0.0
C658 C 0.83604 0.23481 0.7359 0.0
C659 C 0.83847 0.27661 0.723 0.0
C660 C 0.8199 0.21417 0.78737 0.0
C661 C 0.80505 0.23448 0.82677 0.0
C662 C 0.80681 0.27596 0.81313 0.0
C663 C 0.82367 0.29693 0.76207 0.0
H664 H 0.61359 0.82035 0.35197 0.0
H665 H 0.56515 0.68595 0.28229 0.0
H666 H 0.60673 0.84857 0.26294 0.0
H667 H 0.56345 0.71567 0.19198 0.0
H668 H 0.52394 0.77041 0.04342 0.0
H669 H 0.52557 0.74 0.13401 0.0
H670 H 0.64174 0.87112 0.17823 0.0
H671 H 0.63848 0.90166 0.08866 0.0
C672 C 0.60144 0.79661 0.31789 0.0
C673 C 0.58992 0.75059 0.325 0.0
C674 C 0.59845 0.81322 0.26619 0.0
C675 C 0.58501 0.7847 0.21964 0.0
C676 C 0.57341 0.73871 0.2267 0.0
C677 C 0.57529 0.72179 0.27868 0.0
C678 C 0.54979 0.79261 0.07264 0.0
C679 C 0.58082 0.83854 0.05919 0.0
C680 C 0.55094 0.77515 0.1246 0.0
C681 C 0.58365 0.80304 0.16404 0.0
C682 C 0.61522 0.84879 0.14983 0.0
C683 C 0.61359 0.86636 0.09826 0.0
H684 H 0.85675 0.53378 0.62542 0.0
H685 H 0.8175 0.63185 0.67667 0.0
H686 H 0.82585 0.53128 0.53426 0.0
H687 H 0.78681 0.62968 0.58508 0.0
H688 H 0.6857 0.56705 0.44038 0.0
H689 H 0.72443 0.58048 0.52845 0.0
H690 H 0.83496 0.57174 0.4501 0.0
H691 H 0.7947 0.55585 0.36211 0.0
C692 C 0.84213 0.55537 0.61702 0.0
C693 C 0.83974 0.58306 0.65853 0.0
C694 C 0.82449 0.55405 0.56452 0.0
C695 C 0.80395 0.58044 0.55192 0.0
C696 C 0.80185 0.60844 0.59334 0.0
C697 C 0.81941 0.60966 0.64598 0.0
C698 C 0.71833 0.56808 0.44188 0.0
C699 C 0.73664 0.55952 0.39434 0.0
C700 C 0.74089 0.57634 0.49241 0.0
C701 C 0.78267 0.57669 0.4968 0.0
C702 C 0.80236 0.57076 0.44856 0.0
C703 C 0.7796 0.56227 0.3979 0.0
H704 H 0.19232 0.69518 0.74503 0.0
H705 H 0.15853 0.80128 0.71771 0.0
H706 H 0.22396 0.7276 0.83557 0.0
H707 H 0.18913 0.83317 0.80905 0.0
H708 H 0.19597 0.83003 1.00451 0.0
H709 H 0.16536 0.79969 0.91283 0.0
H710 H 0.29331 0.80771 0.86906 0.0
H711 H 0.32411 0.83854 0.96018 0.0
C712 C 0.19165 0.72538 0.75867 0.0
C713 C 0.173 0.74579 0.72496 0.0
C714 C 0.20977 0.74393 0.81015 0.0
C715 C 0.20866 0.78263 0.82915 0.0
C716 C 0.18999 0.80308 0.79535 0.0
C717 C 0.17277 0.78508 0.74328 0.0
C718 C 0.21746 0.8253 0.97519 0.0
C719 C 0.26247 0.83682 0.98913 0.0
C720 C 0.20009 0.80826 0.92283 0.0
C721 C 0.22714 0.80159 0.8841 0.0
C722 C 0.27185 0.81253 0.89833 0.0
C723 C 0.28948 0.83034 0.95021 0.0
H724 H 0.44295 0.31737 0.27951 0.0
H725 H 0.40624 0.1863 0.35319 0.0
H726 H 0.44369 0.28724 0.18961 0.0
H727 H 0.41248 0.1581 0.26418 0.0
H728 H 0.37907 0.1015 0.09205 0.0
H729 H 0.37567 0.13191 0.18129 0.0
H730 H 0.48322 0.26636 0.13022 0.0
H731 H 0.48502 0.23594 0.04017 0.0
C732 C 0.43517 0.28217 0.27689 0.0
C733 C 0.42411 0.25442 0.3243 0.0
C734 C 0.43656 0.26509 0.22504 0.0
C735 C 0.42816 0.22006 0.21907 0.0
C736 C 0.41822 0.19263 0.2666 0.0
C737 C 0.41563 0.20931 0.31826 0.0
C738 C 0.40205 0.13753 0.10004 0.0
C739 C 0.43245 0.16621 0.05917 0.0
C740 C 0.40033 0.15504 0.15143 0.0
C741 C 0.42944 0.20168 0.16365 0.0
C742 C 0.45971 0.23045 0.12241 0.0
C743 C 0.46095 0.21298 0.0707 0.0
H744 H 0.26879 0.558 0.08741 0.0
H745 H 0.1262 0.46162 0.11807 0.0
H746 H 0.26172 0.61687 0.13736 0.0
H747 H 0.11889 0.5201 0.16927 0.0
H748 H 0.12273 0.65151 0.23942 0.0
H749 H 0.12164 0.59465 0.17515 0.0
H750 H 0.25449 0.62441 0.23508 0.0
H751 H 0.25551 0.68101 0.29777 0.0
C752 C 0.23543 0.55008 0.10289 0.0
C753 C 0.19776 0.50573 0.09767 0.0
C754 C 0.23148 0.58346 0.13249 0.0
C755 C 0.18995 0.57298 0.15855 0.0
C756 C 0.15136 0.52947 0.14983 0.0
C757 C 0.15541 0.49602 0.12022 0.0
C758 C 0.15112 0.645 0.2393 0.0
C759 C 0.18926 0.67054 0.27333 0.0
C760 C 0.15074 0.61279 0.2023 0.0
C761 C 0.18853 0.60571 0.19882 0.0
C762 C 0.2255 0.62997 0.23507 0.0
C763 C 0.22594 0.66208 0.27153 0.0
H764 H 0.7028 0.2513 0.39824 0.0
H765 H 0.66897 0.11914 0.46351 0.0
H766 H 0.636 0.24601 0.44351 0.0
H767 H 0.60524 0.11573 0.51463 0.0
H768 H 0.48588 0.11839 0.59928 0.0
H769 H 0.53585 0.11118 0.53178 0.0
H770 H 0.62391 0.2586 0.5318 0.0
H771 H 0.5727 0.26531 0.59535 0.0
C772 C 0.6798 0.22019 0.42046 0.0
C773 C 0.68996 0.18489 0.4258 0.0
C774 C 0.64229 0.2177 0.44819 0.0
C775 C 0.61583 0.18119 0.48479 0.0
C776 C 0.62433 0.14437 0.48698 0.0
C777 C 0.66091 0.1462 0.45757 0.0
C778 C 0.51609 0.14903 0.58469 0.0
C779 C 0.52528 0.19243 0.60224 0.0
C780 C 0.54478 0.14503 0.54588 0.0
C781 C 0.58373 0.18436 0.52481 0.0
C782 C 0.59346 0.22748 0.54464 0.0
C783 C 0.56439 0.23142 0.58211 0.0
H784 H 0.38133 0.56276 1.0027 0.0
H785 H 0.30823 0.48019 0.86214 0.0
H786 H 0.43903 0.62051 0.93972 0.0
H787 H 0.36456 0.53767 0.80049 0.0
H788 H 0.41993 0.69405 0.74111 0.0
H789 H 0.37504 0.62673 0.7994 0.0
H790 H 0.49831 0.62568 0.84459 0.0
H791 H 0.54324 0.69224 0.78429 0.0
C792 C 0.3782 0.55638 0.9588 0.0
C793 C 0.33974 0.51747 0.93738 0.0
C794 C 0.4111 0.58928 0.92285 0.0
C795 C 0.40573 0.58345 0.86538 0.0
C796 C 0.36924 0.543 0.84454 0.0
C797 C 0.3369 0.5103 0.88005 0.0
C798 C 0.43722 0.67863 0.76224 0.0
C799 C 0.48483 0.6979 0.75757 0.0
C800 C 0.41169 0.64045 0.79584 0.0
C801 C 0.43346 0.62161 0.82687 0.0
C802 C 0.48094 0.63994 0.82129 0.0
C803 C 0.50644 0.67757 0.78631 0.0
H804 H 0.86339 0.32852 0.21616 0.0
H805 H 0.7723 0.34383 0.32746 0.0
H806 H 0.86508 0.38776 0.15561 0.0
H807 H 0.77274 0.40216 0.26582 0.0
H808 H 0.73807 0.45259 0.10407 0.0
H809 H 0.74274 0.39338 0.15799 0.0
H810 H 0.88976 0.47924 0.16635 0.0
H811 H 0.88475 0.53919 0.11428 0.0
C812 C 0.84437 0.34522 0.22804 0.0
C813 C 0.8181 0.33211 0.27668 0.0
C814 C 0.84517 0.37884 0.1933 0.0
C815 C 0.81859 0.399 0.20572 0.0
C816 C 0.79321 0.38675 0.25513 0.0
C817 C 0.79339 0.35393 0.29069 0.0
C818 C 0.77148 0.45795 0.11561 0.0
C819 C 0.81121 0.49979 0.10373 0.0
C820 C 0.77409 0.4245 0.14718 0.0
C821 C 0.81655 0.43209 0.16689 0.0
C822 C 0.85663 0.47261 0.1517 0.0
C823 C 0.85386 0.50658 0.12137 0.0
H824 H 0.30504 0.72271 0.41509 0.0
H825 H 0.32373 0.85763 0.43992 0.0
H826 H 0.37418 0.74387 0.46838 0.0
H827 H 0.39288 0.87864 0.4947 0.0
H828 H 0.51967 0.80687 0.52221 0.0
H829 H 0.46269 0.80567 0.45983 0.0
H830 H 0.40242 0.84124 0.59371 0.0
H831 H 0.45989 0.84208 0.65728 0.0
C832 C 0.32457 0.75722 0.43105 0.0
C833 C 0.30935 0.78861 0.42296 0.0
C834 C 0.36399 0.7693 0.46166 0.0
C835 C 0.3886 0.81277 0.48591 0.0
C836 C 0.37427 0.84484 0.47665 0.0
C837 C 0.3351 0.83298 0.44485 0.0
C838 C 0.4947 0.81506 0.53846 0.0
C839 C 0.49367 0.82369 0.59491 0.0
C840 C 0.46224 0.81456 0.50257 0.0
C841 C 0.42801 0.82293 0.52204 0.0
C842 C 0.42876 0.83496 0.57768 0.0
C843 C 0.46151 0.83539 0.61401 0.0
H844 H 0.64496 0.43185 1.00971 0.0
H845 H 0.68414 0.53147 0.87871 0.0
H846 H 0.58814 0.37278 0.94824 0.0
H847 H 0.62693 0.47285 0.81818 0.0
H848 H 0.47658 0.3298 0.76578 0.0
H849 H 0.5208 0.39508 0.82815 0.0
H850 H 0.62719 0.35987 0.83737 0.0
H851 H 0.58486 0.29679 0.77375 0.0
C852 C 0.64028 0.44147 0.96863 0.0
C853 C 0.66909 0.48612 0.9489 0.0
C854 C 0.60792 0.40776 0.93349 0.0
C855 C 0.60313 0.41853 0.87868 0.0
C856 C 0.62959 0.46388 0.86037 0.0
C857 C 0.66242 0.49725 0.895 0.0
C858 C 0.50994 0.33683 0.78001 0.0
C859 C 0.52729 0.30816 0.76469 0.0
C860 C 0.53487 0.37372 0.81615 0.0
C861 C 0.57677 0.38156 0.8384 0.0
C862 C 0.59462 0.35398 0.82148 0.0
C863 C 0.57048 0.31812 0.78471 0.0
loop_
_geom_bond_atom_site_label_1
_geom_bond_atom_site_label_2
_geom_bond_distance
_geom_bond_site_symmetry_2
_ccdc_geom_bond_type
Eu0 N31 2.657 . S
Eu0 N38 2.609 . S
Eu0 O44 2.558 . S
Eu0 O45 2.612 . S
Eu0 O47 2.339 . S
Eu0 O48 2.563 . S
Eu0 O49 2.419 . S
Eu0 O51 2.380 1_556 S
Eu0 O52 2.432 1_556 S
Eu0 C64 2.848 . S
C1 C4 1.429 . S
C1 C5 1.411 . S
C1 N8 1.377 . S
C2 C4 1.420 . S
C2 C6 1.423 . S
C2 C14 1.392 . S
C3 C5 1.420 . S
C3 C6 1.351 . S
C3 H26 0.931 . S
C4 C1 1.429 . S
C4 C2 1.420 . S
C4 N12 1.362 . S
C5 C1 1.411 . S
C5 C3 1.420 . S
C5 C10 1.395 . S
C6 C2 1.423 . S
C6 C3 1.351 . S
C6 H18 0.930 . S
C7 C9 1.400 . S
C7 C10 1.386 . S
C7 H19 0.930 . S
N8 C1 1.377 . S
N8 C9 1.321 . S
N8 Eu11 2.609 . S
C9 C7 1.400 . S
C9 N8 1.321 . S
C9 H16 0.930 . S
C10 C5 1.395 . S
C10 C7 1.386 . S
C10 H29 0.930 . S
Eu11 N8 2.609 . S
Eu11 N12 2.657 . S
Eu11 O45 2.380 1_554 S
Eu11 O46 2.432 . S
Eu11 O50 2.558 . S
Eu11 O51 2.612 . S
Eu11 O53 2.339 . S
Eu11 O54 2.563 . S
Eu11 O55 2.419 . S
Eu11 C75 2.848 . S
N12 C4 1.362 . S
N12 Eu11 2.657 . S
N12 C13 1.334 . S
C13 N12 1.334 . S
C13 C15 1.413 . S
C13 H20 0.929 . S
C14 C2 1.392 . S
C14 C15 1.367 . S
C14 H22 0.930 . S
C15 C13 1.413 . S
C15 C14 1.367 . S
C15 H17 0.930 . S
H16 C9 0.930 . S
H17 C15 0.930 . S
H18 C6 0.930 . S
H19 C7 0.930 . S
H20 C13 0.929 . S
H21 C35 0.930 . S
H22 C14 0.930 . S
H23 C41 0.930 . S
H24 C32 0.929 . S
H25 C39 0.930 1_655 S
H26 C3 0.931 . S
H27 C33 0.930 . S
H28 C66 0.930 . S
H29 C10 0.930 . S
H30 C65 0.931 . S
N31 Eu0 2.657 . S
N31 C32 1.334 . S
N31 C36 1.362 . S
C32 H24 0.929 . S
C32 N31 1.334 . S
C32 C35 1.413 . S
C33 H27 0.930 . S
C33 C34 1.392 . S
C33 C35 1.367 . S
C34 C33 1.392 . S
C34 C36 1.420 . S
C34 C66 1.423 . S
C35 H21 0.930 . S
C35 C32 1.413 . S
C35 C33 1.367 . S
C36 N31 1.362 . S
C36 C34 1.420 . S
C36 C40 1.429 . S
H37 C42 0.930 1_655 S
N38 Eu0 2.609 . S
N38 C40 1.377 . S
N38 C41 1.321 . S
C39 H25 0.930 1_455 S
C39 C41 1.400 . S
C39 C42 1.386 . S
C40 C36 1.429 . S
C40 N38 1.377 . S
C40 C43 1.411 . S
C41 H23 0.930 . S
C41 N38 1.321 . S
C41 C39 1.400 . S
C42 H37 0.930 1_455 S
C42 C39 1.386 . S
C42 C43 1.395 . S
C43 C40 1.411 . S
C43 C42 1.395 . S
C43 C65 1.420 . S
O44 Eu0 2.558 . S
O44 C64 1.257 . S
O45 Eu0 2.612 . S
O45 Eu11 2.380 1_556 S
O45 C56 1.276 . S
O46 Eu11 2.432 . S
O46 C63 1.264 1_554 S
O47 Eu0 2.339 . S
O47 C63 1.254 . S
O48 Eu0 2.563 . S
O48 C56 1.235 . S
O49 Eu0 2.419 . S
O49 C64 1.249 . S
O50 Eu11 2.558 . S
O50 C75 1.257 . S
O51 Eu0 2.380 1_554 S
O51 Eu11 2.612 . S
O51 C67 1.276 . S
O52 Eu0 2.432 1_554 S
O52 C74 1.264 . S
O53 Eu11 2.339 . S
O53 C74 1.254 . S
O54 Eu11 2.563 . S
O54 C67 1.235 . S
O55 Eu11 2.419 . S
O55 C75 1.249 . S
C56 O45 1.276 . S
C56 O48 1.235 . S
C57 C59 1.393 . S
C57 C61 1.395 . S
C57 C64 1.492 . S
C58 C59 1.392 . S
C58 C60 1.386 . S
C59 C57 1.393 . S
C59 C58 1.392 . S
C59 H76 0.930 . S
C60 C58 1.386 . S
C60 C62 1.395 . S
C60 H77 0.930 . S
C61 C57 1.395 . S
C61 C62 1.379 . S
C61 H78 0.930 . S
C62 C60 1.395 . S
C62 C61 1.379 . S
C62 H79 0.930 . S
C63 O46 1.264 1_556 S
C63 O47 1.254 . S
C64 Eu0 2.848 . S
C64 O44 1.257 . S
C64 O49 1.249 . S
C64 C57 1.492 . S
C65 H30 0.931 . S
C65 C43 1.420 . S
C65 C66 1.351 . S
C66 H28 0.930 . S
C66 C34 1.423 . S
C66 C65 1.351 . S
C67 O51 1.276 . S
C67 O54 1.235 . S
C68 C69 1.393 . S
C68 C72 1.395 . S
C68 C75 1.492 . S
C69 C68 1.393 . S
C69 C70 1.392 . S
C69 H80 0.930 . S
C70 C69 1.392 . S
C70 C71 1.386 . S
C71 C70 1.386 . S
C71 C73 1.395 . S
C71 H81 0.930 . S
C72 C68 1.395 . S
C72 C73 1.379 . S
C72 H82 0.930 . S
C73 C71 1.395 . S
C73 C72 1.379 . S
C73 H83 0.930 . S
C74 O52 1.264 . S
C74 O53 1.254 . S
C75 Eu11 2.848 . S
C75 O50 1.257 . S
C75 O55 1.249 . S
C75 C68 1.492 . S
H76 C59 0.930 . S
H77 C60 0.930 . S
H78 C61 0.930 . S
H79 C62 0.930 . S
H80 C69 0.930 . S
H81 C71 0.930 . S
H82 C72 0.930 . S
H83 C73 0.930 . S
Eu84 N115 2.657 . S
Eu84 N122 2.609 . S
Eu84 O128 2.558 . S
Eu84 O129 2.612 . S
Eu84 O131 2.339 . S
Eu84 O132 2.563 . S
Eu84 O133 2.419 . S
Eu84 O135 2.380 . S
Eu84 O136 2.432 . S
Eu84 C148 2.848 . S
C85 C88 1.429 . S
C85 C89 1.411 . S
C85 N92 1.377 . S
C86 C88 1.420 . S
C86 C90 1.423 1_655 S
C86 C98 1.392 . S
C87 C89 1.420 1_455 S
C87 C90 1.351 . S
C87 H110 0.931 . S
C88 C85 1.429 . S
C88 C86 1.420 . S
C88 N96 1.362 . S
C89 C85 1.411 . S
C89 C87 1.420 1_655 S
C89 C94 1.395 . S
C90 C86 1.423 1_455 S
C90 C87 1.351 . S
C90 H102 0.930 . S
C91 C93 1.400 . S
C91 C94 1.386 . S
C91 H103 0.930 . S
N92 C85 1.377 . S
N92 C93 1.321 . S
N92 Eu95 2.609 . S
C93 C91 1.400 . S
C93 N92 1.321 . S
C93 H100 0.930 . S
C94 C89 1.395 . S
C94 C91 1.386 . S
C94 H113 0.930 1_655 S
Eu95 N92 2.609 . S
Eu95 N96 2.657 . S
Eu95 O129 2.380 . S
Eu95 O130 2.432 . S
Eu95 O134 2.558 . S
Eu95 O135 2.612 . S
Eu95 O137 2.339 . S
Eu95 O138 2.563 . S
Eu95 O139 2.419 . S
Eu95 C159 2.848 . S
N96 C88 1.362 . S
N96 Eu95 2.657 . S
N96 C97 1.334 . S
C97 N96 1.334 . S
C97 C99 1.413 . S
C97 H104 0.929 . S
C98 C86 1.392 . S
C98 C99 1.367 . S
C98 H106 0.930 1_655 S
C99 C97 1.413 . S
C99 C98 1.367 . S
C99 H101 0.930 . S
H100 C93 0.930 . S
H101 C99 0.930 . S
H102 C90 0.930 . S
H103 C91 0.930 . S
H104 C97 0.929 . S
H105 C119 0.930 . S
H106 C98 0.930 1_455 S
H107 C125 0.930 . S
H108 C116 0.929 . S
H109 C123 0.930 1_565 S
H110 C87 0.931 . S
H111 C117 0.930 . S
H112 C150 0.930 . S
H113 C94 0.930 1_455 S
H114 C149 0.931 . S
N115 Eu84 2.657 . S
N115 C116 1.334 . S
N115 C120 1.362 . S
C116 H108 0.929 . S
C116 N115 1.334 . S
C116 C119 1.413 . S
C117 H111 0.930 . S
C117 C118 1.392 . S
C117 C119 1.367 . S
C118 C117 1.392 . S
C118 C120 1.420 . S
C118 C150 1.423 . S
C119 H105 0.930 . S
C119 C116 1.413 . S
C119 C117 1.367 . S
C120 N115 1.362 . S
C120 C118 1.420 . S
C120 C124 1.429 . S
H121 C126 0.930 1_565 S
N122 Eu84 2.609 . S
N122 C124 1.377 . S
N122 C125 1.321 . S
C123 H109 0.930 1_545 S
C123 C125 1.400 . S
C123 C126 1.386 . S
C124 C120 1.429 . S
C124 N122 1.377 . S
C124 C127 1.411 . S
C125 H107 0.930 . S
C125 N122 1.321 . S
C125 C123 1.400 . S
C126 H121 0.930 1_545 S
C126 C123 1.386 . S
C126 C127 1.395 . S
C127 C124 1.411 . S
C127 C126 1.395 . S
C127 C149 1.420 . S
O128 Eu84 2.558 . S
O128 C148 1.257 . S
O129 Eu84 2.612 . S
O129 Eu95 2.380 . S
O129 C140 1.276 . S
O130 Eu95 2.432 . S
O130 C147 1.264 . S
O131 Eu84 2.339 . S
O131 C147 1.254 . S
O132 Eu84 2.563 . S
O132 C140 1.235 . S
O133 Eu84 2.419 . S
O133 C148 1.249 . S
O134 Eu95 2.558 . S
O134 C159 1.257 . S
O135 Eu84 2.380 . S
O135 Eu95 2.612 . S
O135 C151 1.276 . S
O136 Eu84 2.432 . S
O136 C158 1.264 . S
O137 Eu95 2.339 . S
O137 C158 1.254 . S
O138 Eu95 2.563 . S
O138 C151 1.235 . S
O139 Eu95 2.419 . S
O139 C159 1.249 . S
C140 O129 1.276 . S
C140 O132 1.235 . S
C141 C143 1.393 . S
C141 C145 1.395 . S
C141 C148 1.492 . S
C142 C143 1.392 . S
C142 C144 1.386 . S
C143 C141 1.393 . S
C143 C142 1.392 . S
C143 H160 0.930 . S
C144 C142 1.386 . S
C144 C146 1.395 . S
C144 H161 0.930 1_554 S
C145 C141 1.395 . S
C145 C146 1.379 . S
C145 H162 0.930 . S
C146 C144 1.395 . S
C146 C145 1.379 . S
C146 H163 0.930 . S
C147 O130 1.264 . S
C147 O131 1.254 . S
C148 Eu84 2.848 . S
C148 O128 1.257 . S
C148 O133 1.249 . S
C148 C141 1.492 . S
C149 H114 0.931 . S
C149 C127 1.420 . S
C149 C150 1.351 . S
C150 H112 0.930 . S
C150 C118 1.423 . S
C150 C149 1.351 . S
C151 O135 1.276 . S
C151 O138 1.235 . S
C152 C153 1.393 . S
C152 C156 1.395 . S
C152 C159 1.492 . S
C153 C152 1.393 . S
C153 C154 1.392 . S
C153 H164 0.930 . S
C154 C153 1.392 . S
C154 C155 1.386 . S
C155 C154 1.386 . S
C155 C157 1.395 . S
C155 H165 0.930 . S
C156 C152 1.395 . S
C156 C157 1.379 . S
C156 H166 0.930 . S
C157 C155 1.395 . S
C157 C156 1.379 . S
C157 H167 0.930 . S
C158 O136 1.264 . S
C158 O137 1.254 . S
C159 Eu95 2.848 . S
C159 O134 1.257 . S
C159 O139 1.249 . S
C159 C152 1.492 . S
H160 C143 0.930 . S
H161 C144 0.930 1_556 S
H162 C145 0.930 . S
H163 C146 0.930 . S
H164 C153 0.930 . S
H165 C155 0.930 . S
H166 C156 0.930 . S
H167 C157 0.930 . S
Eu168 N199 2.657 . S
Eu168 N206 2.609 . S
Eu168 O212 2.558 . S
Eu168 O213 2.612 . S
Eu168 O215 2.339 . S
Eu168 O216 2.563 . S
Eu168 O217 2.419 . S
Eu168 O219 2.380 . S
Eu168 O220 2.432 . S
Eu168 C232 2.848 . S
C169 C172 1.429 . S
C169 C173 1.411 . S
C169 N176 1.377 . S
C170 C172 1.420 . S
C170 C174 1.423 1_565 S
C170 C182 1.392 . S
C171 C173 1.420 1_545 S
C171 C174 1.351 . S
C171 H194 0.931 . S
C172 C169 1.429 . S
C172 C170 1.420 . S
C172 N180 1.362 . S
C173 C169 1.411 . S
C173 C171 1.420 1_565 S
C173 C178 1.395 . S
C174 C170 1.423 1_545 S
C174 C171 1.351 . S
C174 H186 0.930 . S
C175 C177 1.400 . S
C175 C178 1.386 . S
C175 H187 0.930 . S
N176 C169 1.377 . S
N176 C177 1.321 . S
N176 Eu179 2.609 . S
C177 C175 1.400 . S
C177 N176 1.321 . S
C177 H184 0.930 . S
C178 C173 1.395 . S
C178 C175 1.386 . S
C178 H197 0.930 1_565 S
Eu179 N176 2.609 . S
Eu179 N180 2.657 . S
Eu179 O213 2.380 . S
Eu179 O214 2.432 . S
Eu179 O218 2.558 . S
Eu179 O219 2.612 . S
Eu179 O221 2.339 . S
Eu179 O222 2.563 . S
Eu179 O223 2.419 . S
Eu179 C243 2.848 . S
N180 C172 1.362 . S
N180 Eu179 2.657 . S
N180 C181 1.334 . S
C181 N180 1.334 . S
C181 C183 1.413 . S
C181 H188 0.929 . S
C182 C170 1.392 . S
C182 C183 1.367 . S
C182 H190 0.930 1_565 S
C183 C181 1.413 . S
C183 C182 1.367 . S
C183 H185 0.930 . S
H184 C177 0.930 . S
H185 C183 0.930 . S
H186 C174 0.930 . S
H187 C175 0.930 . S
H188 C181 0.929 . S
H189 C203 0.930 . S
H190 C182 0.930 1_545 S
H191 C209 0.930 . S
H192 C200 0.929 . S
H193 C207 0.930 . S
H194 C171 0.931 . S
H195 C201 0.930 . S
H196 C234 0.930 . S
H197 C178 0.930 1_545 S
H198 C233 0.931 . S
N199 Eu168 2.657 . S
N199 C200 1.334 . S
N199 C204 1.362 . S
C200 H192 0.929 . S
C200 N199 1.334 . S
C200 C203 1.413 . S
C201 H195 0.930 . S
C201 C202 1.392 . S
C201 C203 1.367 . S
C202 C201 1.392 . S
C202 C204 1.420 . S
C202 C234 1.423 . S
C203 H189 0.930 . S
C203 C200 1.413 . S
C203 C201 1.367 . S
C204 N199 1.362 . S
C204 C202 1.420 . S
C204 C208 1.429 . S
H205 C210 0.930 . S
N206 Eu168 2.609 . S
N206 C208 1.377 . S
N206 C209 1.321 . S
C207 H193 0.930 . S
C207 C209 1.400 . S
C207 C210 1.386 . S
C208 C204 1.429 . S
C208 N206 1.377 . S
C208 C211 1.411 . S
C209 H191 0.930 . S
C209 N206 1.321 . S
C209 C207 1.400 . S
C210 H205 0.930 . S
C210 C207 1.386 . S
C210 C211 1.395 . S
C211 C208 1.411 . S
C211 C210 1.395 . S
C211 C233 1.420 . S
O212 Eu168 2.558 . S
O212 C232 1.257 . S
O213 Eu168 2.612 . S
O213 Eu179 2.380 . S
O213 C224 1.276 . S
O214 Eu179 2.432 . S
O214 C231 1.264 . S
O215 Eu168 2.339 . S
O215 C231 1.254 . S
O216 Eu168 2.563 . S
O216 C224 1.235 . S
O217 Eu168 2.419 . S
O217 C232 1.249 . S
O218 Eu179 2.558 . S
O218 C243 1.257 . S
O219 Eu168 2.380 . S
O219 Eu179 2.612 . S
O219 C235 1.276 . S
O220 Eu168 2.432 . S
O220 C242 1.264 . S
O221 Eu179 2.339 . S
O221 C242 1.254 . S
O222 Eu179 2.563 . S
O222 C235 1.235 . S
O223 Eu179 2.419 . S
O223 C243 1.249 . S
C224 O213 1.276 . S
C224 O216 1.235 . S
C225 C227 1.393 . S
C225 C229 1.395 . S
C225 C232 1.492 . S
C226 C227 1.392 . S
C226 C228 1.386 . S
C227 C225 1.393 . S
C227 C226 1.392 . S
C227 H244 0.930 . S
C228 C226 1.386 . S
C228 C230 1.395 . S
C228 H245 0.930 . S
C229 C225 1.395 . S
C229 C230 1.379 . S
C229 H246 0.930 . S
C230 C228 1.395 . S
C230 C229 1.379 . S
C230 H247 0.930 . S
C231 O214 1.264 . S
C231 O215 1.254 . S
C232 Eu168 2.848 . S
C232 O212 1.257 . S
C232 O217 1.249 . S
C232 C225 1.492 . S
C233 H198 0.931 . S
C233 C211 1.420 . S
C233 C234 1.351 . S
C234 H196 0.930 . S
C234 C202 1.423 . S
C234 C233 1.351 . S
C235 O219 1.276 . S
C235 O222 1.235 . S
C236 C237 1.393 . S
C236 C240 1.395 . S
C236 C243 1.492 . S
C237 C236 1.393 . S
C237 C238 1.392 . S
C237 H248 0.930 . S
C238 C237 1.392 . S
C238 C239 1.386 1_556 S
C239 C238 1.386 1_554 S
C239 C241 1.395 1_554 S
C239 H249 0.930 . S
C240 C236 1.395 . S
C240 C241 1.379 . S
C240 H250 0.930 . S
C241 C239 1.395 1_556 S
C241 C240 1.379 . S
C241 H251 0.930 . S
C242 O220 1.264 . S
C242 O221 1.254 . S
C243 Eu179 2.848 . S
C243 O218 1.257 . S
C243 O223 1.249 . S
C243 C236 1.492 . S
H244 C227 0.930 . S
H245 C228 0.930 . S
H246 C229 0.930 . S
H247 C230 0.930 . S
H248 C237 0.930 . S
H249 C239 0.930 . S
H250 C240 0.930 . S
H251 C241 0.930 . S
Eu252 N283 2.657 . S
Eu252 N290 2.609 . S
Eu252 O296 2.558 . S
Eu252 O297 2.612 . S
Eu252 O299 2.339 . S
Eu252 O300 2.563 . S
Eu252 O301 2.419 . S
Eu252 O303 2.380 1_556 S
Eu252 O304 2.432 1_556 S
Eu252 C316 2.848 . S
C253 C256 1.429 . S
C253 C257 1.411 . S
C253 N260 1.377 . S
C254 C256 1.420 . S
C254 C258 1.423 . S
C254 C266 1.392 . S
C255 C257 1.420 . S
C255 C258 1.351 . S
C255 H278 0.931 . S
C256 C253 1.429 . S
C256 C254 1.420 . S
C256 N264 1.362 . S
C257 C253 1.411 . S
C257 C255 1.420 . S
C257 C262 1.395 . S
C258 C254 1.423 . S
C258 C255 1.351 . S
C258 H270 0.930 . S
C259 C261 1.400 . S
C259 C262 1.386 . S
C259 H271 0.930 . S
N260 C253 1.377 . S
N260 C261 1.321 . S
N260 Eu263 2.609 . S
C261 C259 1.400 . S
C261 N260 1.321 . S
C261 H268 0.930 . S
C262 C257 1.395 . S
C262 C259 1.386 . S
C262 H281 0.930 . S
Eu263 N260 2.609 . S
Eu263 N264 2.657 . S
Eu263 O297 2.380 1_554 S
Eu263 O298 2.432 . S
Eu263 O302 2.558 . S
Eu263 O303 2.612 . S
Eu263 O305 2.339 . S
Eu263 O306 2.563 . S
Eu263 O307 2.419 . S
Eu263 C327 2.848 . S
N264 C256 1.362 . S
N264 Eu263 2.657 . S
N264 C265 1.334 . S
C265 N264 1.334 . S
C265 C267 1.413 . S
C265 H272 0.929 . S
C266 C254 1.392 . S
C266 C267 1.367 . S
C266 H274 0.930 . S
C267 C265 1.413 . S
C267 C266 1.367 . S
C267 H269 0.930 . S
H268 C261 0.930 . S
H269 C267 0.930 . S
H270 C258 0.930 . S
H271 C259 0.930 . S
H272 C265 0.929 . S
H273 C287 0.930 . S
H274 C266 0.930 . S
H275 C293 0.930 . S
H276 C284 0.929 . S
H277 C291 0.930 1_455 S
H278 C255 0.931 . S
H279 C285 0.930 . S
H280 C318 0.930 . S
H281 C262 0.930 . S
H282 C317 0.931 . S
N283 Eu252 2.657 . S
N283 C284 1.334 . S
N283 C288 1.362 . S
C284 H276 0.929 . S
C284 N283 1.334 . S
C284 C287 1.413 . S
C285 H279 0.930 . S
C285 C286 1.392 . S
C285 C287 1.367 . S
C286 C285 1.392 . S
C286 C288 1.420 . S
C286 C318 1.423 . S
C287 H273 0.930 . S
C287 C284 1.413 . S
C287 C285 1.367 . S
C288 N283 1.362 . S
C288 C286 1.420 . S
C288 C292 1.429 . S
H289 C294 0.930 1_455 S
N290 Eu252 2.609 . S
N290 C292 1.377 . S
N290 C293 1.321 . S
C291 H277 0.930 1_655 S
C291 C293 1.400 . S
C291 C294 1.386 . S
C292 C288 1.429 . S
C292 N290 1.377 . S
C292 C295 1.411 . S
C293 H275 0.930 . S
C293 N290 1.321 . S
C293 C291 1.400 . S
C294 H289 0.930 1_655 S
C294 C291 1.386 . S
C294 C295 1.395 . S
C295 C292 1.411 . S
C295 C294 1.395 . S
C295 C317 1.420 . S
O296 Eu252 2.558 . S
O296 C316 1.257 . S
O297 Eu252 2.612 . S
O297 Eu263 2.380 1_556 S
O297 C308 1.276 . S
O298 Eu263 2.432 . S
O298 C315 1.264 1_554 S
O299 Eu252 2.339 . S
O299 C315 1.254 . S
O300 Eu252 2.563 . S
O300 C308 1.235 . S
O301 Eu252 2.419 . S
O301 C316 1.249 . S
O302 Eu263 2.558 . S
O302 C327 1.257 . S
O303 Eu252 2.380 1_554 S
O303 Eu263 2.612 . S
O303 C319 1.276 . S
O304 Eu252 2.432 1_554 S
O304 C326 1.264 . S
O305 Eu263 2.339 . S
O305 C326 1.254 . S
O306 Eu263 2.563 . S
O306 C319 1.235 . S
O307 Eu263 2.419 . S
O307 C327 1.249 . S
C308 O297 1.276 . S
C308 O300 1.235 . S
C309 C311 1.393 . S
C309 C313 1.395 . S
C309 C316 1.492 . S
C310 C311 1.392 . S
C310 C312 1.386 . S
C311 C309 1.393 . S
C311 C310 1.392 . S
C311 H328 0.930 . S
C312 C310 1.386 . S
C312 C314 1.395 . S
C312 H329 0.930 . S
C313 C309 1.395 . S
C313 C314 1.379 . S
C313 H330 0.930 . S
C314 C312 1.395 . S
C314 C313 1.379 . S
C314 H331 0.930 . S
C315 O298 1.264 1_556 S
C315 O299 1.254 . S
C316 Eu252 2.848 . S
C316 O296 1.257 . S
C316 O301 1.249 . S
C316 C309 1.492 . S
C317 H282 0.931 . S
C317 C295 1.420 . S
C317 C318 1.351 . S
C318 H280 0.930 . S
C318 C286 1.423 . S
C318 C317 1.351 . S
C319 O303 1.276 . S
C319 O306 1.235 . S
C320 C321 1.393 . S
C320 C324 1.395 . S
C320 C327 1.492 . S
C321 C320 1.393 . S
C321 C322 1.392 . S
C321 H332 0.930 . S
C322 C321 1.392 . S
C322 C323 1.386 . S
C323 C322 1.386 . S
C323 C325 1.395 . S
C323 H333 0.930 . S
C324 C320 1.395 . S
C324 C325 1.379 . S
C324 H334 0.930 . S
C325 C323 1.395 . S
C325 C324 1.379 . S
C325 H335 0.930 . S
C326 O304 1.264 . S
C326 O305 1.254 . S
C327 Eu263 2.848 . S
C327 O302 1.257 . S
C327 O307 1.249 . S
C327 C320 1.492 . S
H328 C311 0.930 . S
H329 C312 0.930 . S
H330 C313 0.930 . S
H331 C314 0.930 . S
H332 C321 0.930 . S
H333 C323 0.930 . S
H334 C324 0.930 . S
H335 C325 0.930 . S
Eu336 N367 2.657 . S
Eu336 N374 2.609 . S
Eu336 O380 2.558 . S
Eu336 O381 2.612 . S
Eu336 O383 2.339 . S
Eu336 O384 2.563 . S
Eu336 O385 2.419 . S
Eu336 O387 2.380 . S
Eu336 O388 2.432 . S
Eu336 C400 2.848 . S
C337 C340 1.429 . S
C337 C341 1.411 . S
C337 N344 1.377 . S
C338 C340 1.420 . S
C338 C342 1.423 1_455 S
C338 C350 1.392 . S
C339 C341 1.420 1_655 S
C339 C342 1.351 . S
C339 H362 0.931 . S
C340 C337 1.429 . S
C340 C338 1.420 . S
C340 N348 1.362 . S
C341 C337 1.411 . S
C341 C339 1.420 1_455 S
C341 C346 1.395 . S
C342 C338 1.423 1_655 S
C342 C339 1.351 . S
C342 H354 0.930 . S
C343 C345 1.400 . S
C343 C346 1.386 . S
C343 H355 0.930 . S
N344 C337 1.377 . S
N344 C345 1.321 . S
N344 Eu347 2.609 . S
C345 C343 1.400 . S
C345 N344 1.321 . S
C345 H352 0.930 . S
C346 C341 1.395 . S
C346 C343 1.386 . S
C346 H365 0.930 1_455 S
Eu347 N344 2.609 . S
Eu347 N348 2.657 . S
Eu347 O381 2.380 . S
Eu347 O382 2.432 . S
Eu347 O386 2.558 . S
Eu347 O387 2.612 . S
Eu347 O389 2.339 . S
Eu347 O390 2.563 . S
Eu347 O391 2.419 . S
Eu347 C411 2.848 . S
N348 C340 1.362 . S
N348 Eu347 2.657 . S
N348 C349 1.334 . S
C349 N348 1.334 . S
C349 C351 1.413 . S
C349 H356 0.929 . S
C350 C338 1.392 . S
C350 C351 1.367 . S
C350 H358 0.930 1_455 S
C351 C349 1.413 . S
C351 C350 1.367 . S
C351 H353 0.930 . S
H352 C345 0.930 . S
H353 C351 0.930 . S
H354 C342 0.930 . S
H355 C343 0.930 . S
H356 C349 0.929 . S
H357 C371 0.930 . S
H358 C350 0.930 1_655 S
H359 C377 0.930 . S
H360 C368 0.929 . S
H361 C375 0.930 1_545 S
H362 C339 0.931 . S
H363 C369 0.930 . S
H364 C402 0.930 . S
H365 C346 0.930 1_655 S
H366 C401 0.931 . S
N367 Eu336 2.657 . S
N367 C368 1.334 . S
N367 C372 1.362 . S
C368 H360 0.929 . S
C368 N367 1.334 . S
C368 C371 1.413 . S
C369 H363 0.930 . S
C369 C370 1.392 . S
C369 C371 1.367 . S
C370 C369 1.392 . S
C370 C372 1.420 . S
C370 C402 1.423 . S
C371 H357 0.930 . S
C371 C368 1.413 . S
C371 C369 1.367 . S
C372 N367 1.362 . S
C372 C370 1.420 . S
C372 C376 1.429 . S
H373 C378 0.930 1_545 S
N374 Eu336 2.609 . S
N374 C376 1.377 . S
N374 C377 1.321 . S
C375 H361 0.930 1_565 S
C375 C377 1.400 . S
C375 C378 1.386 . S
C376 C372 1.429 . S
C376 N374 1.377 . S
C376 C379 1.411 . S
C377 H359 0.930 . S
C377 N374 1.321 . S
C377 C375 1.400 . S
C378 H373 0.930 1_565 S
C378 C375 1.386 . S
C378 C379 1.395 . S
C379 C376 1.411 . S
C379 C378 1.395 . S
C379 C401 1.420 . S
O380 Eu336 2.558 . S
O380 C400 1.257 . S
O381 Eu336 2.612 . S
O381 Eu347 2.380 . S
O381 C392 1.276 . S
O382 Eu347 2.432 . S
O382 C399 1.264 . S
O383 Eu336 2.339 . S
O383 C399 1.254 . S
O384 Eu336 2.563 . S
O384 C392 1.235 . S
O385 Eu336 2.419 . S
O385 C400 1.249 . S
O386 Eu347 2.558 . S
O386 C411 1.257 . S
O387 Eu336 2.380 . S
O387 Eu347 2.612 . S
O387 C403 1.276 . S
O388 Eu336 2.432 . S
O388 C410 1.264 . S
O389 Eu347 2.339 . S
O389 C410 1.254 . S
O390 Eu347 2.563 . S
O390 C403 1.235 . S
O391 Eu347 2.419 . S
O391 C411 1.249 . S
C392 O381 1.276 . S
C392 O384 1.235 . S
C393 C395 1.393 . S
C393 C397 1.395 . S
C393 C400 1.492 . S
C394 C395 1.392 . S
C394 C396 1.386 . S
C395 C393 1.393 . S
C395 C394 1.392 . S
C395 H412 0.930 . S
C396 C394 1.386 . S
C396 C398 1.395 . S
C396 H413 0.930 1_554 S
C397 C393 1.395 . S
C397 C398 1.379 . S
C397 H414 0.930 . S
C398 C396 1.395 . S
C398 C397 1.379 . S
C398 H415 0.930 . S
C399 O382 1.264 . S
C399 O383 1.254 . S
C400 Eu336 2.848 . S
C400 O380 1.257 . S
C400 O385 1.249 . S
C400 C393 1.492 . S
C401 H366 0.931 . S
C401 C379 1.420 . S
C401 C402 1.351 . S
C402 H364 0.930 . S
C402 C370 1.423 . S
C402 C401 1.351 . S
C403 O387 1.276 . S
C403 O390 1.235 . S
C404 C405 1.393 . S
C404 C408 1.395 . S
C404 C411 1.492 . S
C405 C404 1.393 . S
C405 C406 1.392 . S
C405 H416 0.930 . S
C406 C405 1.392 . S
C406 C407 1.386 . S
C407 C406 1.386 . S
C407 C409 1.395 . S
C407 H417 0.930 . S
C408 C404 1.395 . S
C408 C409 1.379 . S
C408 H418 0.930 . S
C409 C407 1.395 . S
C409 C408 1.379 . S
C409 H419 0.930 . S
C410 O388 1.264 . S
C410 O389 1.254 . S
C411 Eu347 2.848 . S
C411 O386 1.257 . S
C411 O391 1.249 . S
C411 C404 1.492 . S
H412 C395 0.930 . S
H413 C396 0.930 1_556 S
H414 C397 0.930 . S
H415 C398 0.930 . S
H416 C405 0.930 . S
H417 C407 0.930 . S
H418 C408 0.930 . S
H419 C409 0.930 . S
Eu420 N451 2.657 . S
Eu420 N458 2.609 . S
Eu420 O464 2.558 . S
Eu420 O465 2.612 . S
Eu420 O467 2.339 . S
Eu420 O468 2.563 . S
Eu420 O469 2.419 . S
Eu420 O471 2.380 . S
Eu420 O472 2.432 . S
Eu420 C484 2.848 . S
C421 C424 1.429 . S
C421 C425 1.411 . S
C421 N428 1.377 . S
C422 C424 1.420 . S
C422 C426 1.423 1_545 S
C422 C434 1.392 . S
C423 C425 1.420 1_565 S
C423 C426 1.351 . S
C423 H446 0.931 . S
C424 C421 1.429 . S
C424 C422 1.420 . S
C424 N432 1.362 . S
C425 C421 1.411 . S
C425 C423 1.420 1_545 S
C425 C430 1.395 . S
C426 C422 1.423 1_565 S
C426 C423 1.351 . S
C426 H438 0.930 . S
C427 C429 1.400 . S
C427 C430 1.386 . S
C427 H439 0.930 . S
N428 C421 1.377 . S
N428 C429 1.321 . S
N428 Eu431 2.609 . S
C429 C427 1.400 . S
C429 N428 1.321 . S
C429 H436 0.930 . S
C430 C425 1.395 . S
C430 C427 1.386 . S
C430 H449 0.930 1_545 S
Eu431 N428 2.609 . S
Eu431 N432 2.657 . S
Eu431 O465 2.380 . S
Eu431 O466 2.432 . S
Eu431 O470 2.558 . S
Eu431 O471 2.612 . S
Eu431 O473 2.339 . S
Eu431 O474 2.563 . S
Eu431 O475 2.419 . S
Eu431 C495 2.848 . S
N432 C424 1.362 . S
N432 Eu431 2.657 . S
N432 C433 1.334 . S
C433 N432 1.334 . S
C433 C435 1.413 . S
C433 H440 0.929 . S
C434 C422 1.392 . S
C434 C435 1.367 . S
C434 H442 0.930 1_545 S
C435 C433 1.413 . S
C435 C434 1.367 . S
C435 H437 0.930 . S
H436 C429 0.930 . S
H437 C435 0.930 . S
H438 C426 0.930 . S
H439 C427 0.930 . S
H440 C433 0.929 . S
H441 C455 0.930 . S
H442 C434 0.930 1_565 S
H443 C461 0.930 . S
H444 C452 0.929 . S
H445 C459 0.930 . S
H446 C423 0.931 . S
H447 C453 0.930 . S
H448 C486 0.930 . S
H449 C430 0.930 1_565 S
H450 C485 0.931 . S
N451 Eu420 2.657 . S
N451 C452 1.334 . S
N451 C456 1.362 . S
C452 H444 0.929 . S
C452 N451 1.334 . S
C452 C455 1.413 . S
C453 H447 0.930 . S
C453 C454 1.392 . S
C453 C455 1.367 . S
C454 C453 1.392 . S
C454 C456 1.420 . S
C454 C486 1.423 . S
C455 H441 0.930 . S
C455 C452 1.413 . S
C455 C453 1.367 . S
C456 N451 1.362 . S
C456 C454 1.420 . S
C456 C460 1.429 . S
H457 C462 0.930 . S
N458 Eu420 2.609 . S
N458 C460 1.377 . S
N458 C461 1.321 . S
C459 H445 0.930 . S
C459 C461 1.400 . S
C459 C462 1.386 . S
C460 C456 1.429 . S
C460 N458 1.377 . S
C460 C463 1.411 . S
C461 H443 0.930 . S
C461 N458 1.321 . S
C461 C459 1.400 . S
C462 H457 0.930 . S
C462 C459 1.386 . S
C462 C463 1.395 . S
C463 C460 1.411 . S
C463 C462 1.395 . S
C463 C485 1.420 . S
O464 Eu420 2.558 . S
O464 C484 1.257 . S
O465 Eu420 2.612 . S
O465 Eu431 2.380 . S
O465 C476 1.276 . S
O466 Eu431 2.432 . S
O466 C483 1.264 . S
O467 Eu420 2.339 . S
O467 C483 1.254 . S
O468 Eu420 2.563 . S
O468 C476 1.235 . S
O469 Eu420 2.419 . S
O469 C484 1.249 . S
O470 Eu431 2.558 . S
O470 C495 1.257 . S
O471 Eu420 2.380 . S
O471 Eu431 2.612 . S
O471 C487 1.276 . S
O472 Eu420 2.432 . S
O472 C494 1.264 . S
O473 Eu431 2.339 . S
O473 C494 1.254 . S
O474 Eu431 2.563 . S
O474 C487 1.235 . S
O475 Eu431 2.419 . S
O475 C495 1.249 . S
C476 O465 1.276 . S
C476 O468 1.235 . S
C477 C479 1.393 . S
C477 C481 1.395 . S
C477 C484 1.492 . S
C478 C479 1.392 . S
C478 C480 1.386 . S
C479 C477 1.393 . S
C479 C478 1.392 . S
C479 H496 0.930 . S
C480 C478 1.386 . S
C480 C482 1.395 . S
C480 H497 0.930 . S
C481 C477 1.395 . S
C481 C482 1.379 . S
C481 H498 0.930 . S
C482 C480 1.395 . S
C482 C481 1.379 . S
C482 H499 0.930 . S
C483 O466 1.264 . S
C483 O467 1.254 . S
C484 Eu420 2.848 . S
C484 O464 1.257 . S
C484 O469 1.249 . S
C484 C477 1.492 . S
C485 H450 0.931 . S
C485 C463 1.420 . S
C485 C486 1.351 . S
C486 H448 0.930 . S
C486 C454 1.423 . S
C486 C485 1.351 . S
C487 O471 1.276 . S
C487 O474 1.235 . S
C488 C489 1.393 . S
C488 C492 1.395 . S
C488 C495 1.492 . S
C489 C488 1.393 . S
C489 C490 1.392 . S
C489 H500 0.930 . S
C490 C489 1.392 . S
C490 C491 1.386 1_556 S
C491 C490 1.386 1_554 S
C491 C493 1.395 1_554 S
C491 H501 0.930 . S
C492 C488 1.395 . S
C492 C493 1.379 . S
C492 H502 0.930 . S
C493 C491 1.395 1_556 S
C493 C492 1.379 . S
C493 H503 0.930 . S
C494 O472 1.264 . S
C494 O473 1.254 . S
C495 Eu431 2.848 . S
C495 O470 1.257 . S
C495 O475 1.249 . S
C495 C488 1.492 . S
H496 C479 0.930 . S
H497 C480 0.930 . S
H498 C481 0.930 . S
H499 C482 0.930 . S
H500 C489 0.930 . S
H501 C491 0.930 . S
H502 C492 0.930 . S
H503 C493 0.930 . S
H504 C512 0.950 . S
H505 C517 0.950 . S
H506 C514 0.950 . S
H507 C516 0.950 . S
H508 C518 0.950 . S
H509 C520 0.950 . S
H510 C522 0.950 . S
H511 C523 0.950 . S
C512 H504 0.950 . S
C512 C513 1.386 . S
C512 C514 1.391 . S
C513 C512 1.386 . S
C513 C517 1.393 . S
C514 H506 0.950 . S
C514 C512 1.391 . S
C514 C515 1.400 . S
C515 C514 1.400 . S
C515 C516 1.398 . S
C515 C521 1.491 . S
C516 H507 0.950 . S
C516 C515 1.398 . S
C516 C517 1.391 . S
C517 H505 0.950 . S
C517 C513 1.393 . S
C517 C516 1.391 . S
C518 H508 0.950 . S
C518 C519 1.386 . S
C518 C520 1.391 . S
C519 C518 1.386 . S
C519 C523 1.393 . S
C520 H509 0.950 . S
C520 C518 1.391 . S
C520 C521 1.400 . S
C521 C515 1.491 . S
C521 C520 1.400 . S
C521 C522 1.398 . S
C522 H510 0.950 . S
C522 C521 1.398 . S
C522 C523 1.391 . S
C523 H511 0.950 . S
C523 C519 1.393 . S
C523 C522 1.391 . S
H524 C532 0.950 . S
H525 C537 0.950 . S
H526 C534 0.950 . S
H527 C536 0.950 . S
H528 C538 0.950 . S
H529 C540 0.950 . S
H530 C542 0.950 . S
H531 C543 0.950 . S
C532 H524 0.950 . S
C532 C533 1.386 . S
C532 C534 1.391 . S
C533 C532 1.386 . S
C533 C537 1.393 . S
C534 H526 0.950 . S
C534 C532 1.391 . S
C534 C535 1.400 . S
C535 C534 1.400 . S
C535 C536 1.398 . S
C535 C541 1.491 1_455 S
C536 H527 0.950 . S
C536 C535 1.398 . S
C536 C537 1.391 . S
C537 H525 0.950 . S
C537 C533 1.393 . S
C537 C536 1.391 . S
C538 H528 0.950 . S
C538 C539 1.386 . S
C538 C540 1.391 . S
C539 C538 1.386 . S
C539 C543 1.393 . S
C540 H529 0.950 . S
C540 C538 1.391 . S
C540 C541 1.400 . S
C541 C535 1.491 1_655 S
C541 C540 1.400 . S
C541 C542 1.398 . S
C542 H530 0.950 . S
C542 C541 1.398 . S
C542 C543 1.391 . S
C543 H531 0.950 . S
C543 C539 1.393 . S
C543 C542 1.391 . S
H544 C552 0.950 . S
H545 C557 0.950 . S
H546 C554 0.950 . S
H547 C556 0.950 . S
H548 C558 0.950 . S
H549 C560 0.950 . S
H550 C562 0.950 . S
H551 C563 0.950 . S
C552 H544 0.950 . S
C552 C553 1.386 . S
C552 C554 1.391 . S
C553 C552 1.386 . S
C553 C557 1.393 . S
C554 H546 0.950 . S
C554 C552 1.391 . S
C554 C555 1.400 . S
C555 C554 1.400 . S
C555 C556 1.398 . S
C555 C561 1.491 1_545 S
C556 H547 0.950 . S
C556 C555 1.398 . S
C556 C557 1.391 . S
C557 H545 0.950 . S
C557 C553 1.393 . S
C557 C556 1.391 . S
C558 H548 0.950 . S
C558 C559 1.386 . S
C558 C560 1.391 . S
C559 C558 1.386 . S
C559 C563 1.393 . S
C560 H549 0.950 . S
C560 C558 1.391 . S
C560 C561 1.400 . S
C561 C555 1.491 1_565 S
C561 C560 1.400 . S
C561 C562 1.398 . S
C562 H550 0.950 . S
C562 C561 1.398 . S
C562 C563 1.391 . S
C563 H551 0.950 . S
C563 C559 1.393 . S
C563 C562 1.391 . S
H564 C572 0.950 . S
H565 C577 0.950 . S
H566 C574 0.950 . S
H567 C576 0.950 . S
H568 C578 0.950 . S
H569 C580 0.950 . S
H570 C582 0.950 . S
H571 C583 0.950 . S
C572 H564 0.950 . S
C572 C573 1.386 . S
C572 C574 1.391 . S
C573 C572 1.386 . S
C573 C577 1.393 . S
C574 H566 0.950 . S
C574 C572 1.391 . S
C574 C575 1.400 . S
C575 C574 1.400 . S
C575 C576 1.398 . S
C575 C581 1.491 . S
C576 H567 0.950 . S
C576 C575 1.398 . S
C576 C577 1.391 . S
C577 H565 0.950 . S
C577 C573 1.393 . S
C577 C576 1.391 . S
C578 H568 0.950 . S
C578 C579 1.386 . S
C578 C580 1.391 . S
C579 C578 1.386 . S
C579 C583 1.393 . S
C580 H569 0.950 . S
C580 C578 1.391 . S
C580 C581 1.400 . S
C581 C575 1.491 . S
C581 C580 1.400 . S
C581 C582 1.398 . S
C582 H570 0.950 . S
C582 C581 1.398 . S
C582 C583 1.391 . S
C583 H571 0.950 . S
C583 C579 1.393 . S
C583 C582 1.391 . S
H584 C592 0.950 . S
H585 C597 0.950 . S
H586 C594 0.950 . S
H587 C596 0.950 . S
H588 C598 0.950 . S
H589 C600 0.950 . S
H590 C602 0.950 . S
H591 C603 0.950 . S
C592 H584 0.950 . S
C592 C593 1.386 . S
C592 C594 1.391 . S
C593 C592 1.386 . S
C593 C597 1.393 . S
C594 H586 0.950 . S
C594 C592 1.391 . S
C594 C595 1.400 . S
C595 C594 1.400 . S
C595 C596 1.398 . S
C595 C601 1.491 1_455 S
C596 H587 0.950 . S
C596 C595 1.398 . S
C596 C597 1.391 . S
C597 H585 0.950 . S
C597 C593 1.393 . S
C597 C596 1.391 . S
C598 H588 0.950 . S
C598 C599 1.386 . S
C598 C600 1.391 . S
C599 C598 1.386 . S
C599 C603 1.393 . S
C600 H589 0.950 . S
C600 C598 1.391 . S
C600 C601 1.400 . S
C601 C595 1.491 1_655 S
C601 C600 1.400 . S
C601 C602 1.398 . S
C602 H590 0.950 . S
C602 C601 1.398 . S
C602 C603 1.391 . S
C603 H591 0.950 . S
C603 C599 1.393 . S
C603 C602 1.391 . S
H604 C612 0.950 . S
H605 C617 0.950 . S
H606 C614 0.950 . S
H607 C616 0.950 . S
H608 C618 0.950 . S
H609 C620 0.950 . S
H610 C622 0.950 . S
H611 C623 0.950 . S
C612 H604 0.950 . S
C612 C613 1.386 . S
C612 C614 1.391 . S
C613 C612 1.386 . S
C613 C617 1.393 . S
C614 H606 0.950 . S
C614 C612 1.391 . S
C614 C615 1.400 . S
C615 C614 1.400 . S
C615 C616 1.398 . S
C615 C621 1.491 1_545 S
C616 H607 0.950 . S
C616 C615 1.398 . S
C616 C617 1.391 . S
C617 H605 0.950 . S
C617 C613 1.393 . S
C617 C616 1.391 . S
C618 H608 0.950 . S
C618 C619 1.386 . S
C618 C620 1.391 . S
C619 C618 1.386 . S
C619 C623 1.393 . S
C620 H609 0.950 . S
C620 C618 1.391 . S
C620 C621 1.400 . S
C621 C615 1.491 1_565 S
C621 C620 1.400 . S
C621 C622 1.398 . S
C622 H610 0.950 . S
C622 C621 1.398 . S
C622 C623 1.391 . S
C623 H611 0.950 . S
C623 C619 1.393 . S
C623 C622 1.391 . S
H624 C632 0.950 . S
H625 C637 0.950 . S
H626 C634 0.950 . S
H627 C636 0.950 . S
H628 C638 0.950 . S
H629 C640 0.950 . S
H630 C642 0.950 . S
H631 C643 0.950 . S
C632 H624 0.950 . S
C632 C633 1.386 . S
C632 C634 1.391 . S
C633 C632 1.386 . S
C633 C637 1.393 . S
C634 H626 0.950 . S
C634 C632 1.391 . S
C634 C635 1.400 . S
C635 C634 1.400 . S
C635 C636 1.398 . S
C635 C641 1.491 . S
C636 H627 0.950 . S
C636 C635 1.398 . S
C636 C637 1.391 . S
C637 H625 0.950 . S
C637 C633 1.393 . S
C637 C636 1.391 . S
C638 H628 0.950 . S
C638 C639 1.386 . S
C638 C640 1.391 . S
C639 C638 1.386 . S
C639 C643 1.393 . S
C640 H629 0.950 . S
C640 C638 1.391 . S
C640 C641 1.400 . S
C641 C635 1.491 . S
C641 C640 1.400 . S
C641 C642 1.398 . S
C642 H630 0.950 . S
C642 C641 1.398 . S
C642 C643 1.391 . S
C643 H631 0.950 . S
C643 C639 1.393 . S
C643 C642 1.391 . S
H644 C652 0.950 . S
H645 C657 0.950 . S
H646 C654 0.950 . S
H647 C656 0.950 . S
H648 C658 0.950 . S
H649 C660 0.950 . S
H650 C662 0.950 . S
H651 C663 0.950 . S
C652 H644 0.950 . S
C652 C653 1.386 . S
C652 C654 1.391 . S
C653 C652 1.386 . S
C653 C657 1.393 . S
C654 H646 0.950 . S
C654 C652 1.391 . S
C654 C655 1.400 . S
C655 C654 1.400 . S
C655 C656 1.398 . S
C655 C661 1.491 . S
C656 H647 0.950 . S
C656 C655 1.398 . S
C656 C657 1.391 . S
C657 H645 0.950 . S
C657 C653 1.393 . S
C657 C656 1.391 . S
C658 H648 0.950 . S
C658 C659 1.386 . S
C658 C660 1.391 . S
C659 C658 1.386 . S
C659 C663 1.393 . S
C660 H649 0.950 . S
C660 C658 1.391 . S
C660 C661 1.400 . S
C661 C655 1.491 . S
C661 C660 1.400 . S
C661 C662 1.398 . S
C662 H650 0.950 . S
C662 C661 1.398 . S
C662 C663 1.391 . S
C663 H651 0.950 . S
C663 C659 1.393 . S
C663 C662 1.391 . S
H664 C672 0.950 . S
H665 C677 0.950 . S
H666 C674 0.950 . S
H667 C676 0.950 . S
H668 C678 0.950 . S
H669 C680 0.950 . S
H670 C682 0.950 . S
H671 C683 0.950 . S
C672 H664 0.950 . S
C672 C673 1.386 . S
C672 C674 1.391 . S
C673 C672 1.386 . S
C673 C677 1.393 . S
C674 H666 0.950 . S
C674 C672 1.391 . S
C674 C675 1.400 . S
C675 C674 1.400 . S
C675 C676 1.398 . S
C675 C681 1.491 . S
C676 H667 0.950 . S
C676 C675 1.398 . S
C676 C677 1.391 . S
C677 H665 0.950 . S
C677 C673 1.393 . S
C677 C676 1.391 . S
C678 H668 0.950 . S
C678 C679 1.386 . S
C678 C680 1.391 . S
C679 C678 1.386 . S
C679 C683 1.393 . S
C680 H669 0.950 . S
C680 C678 1.391 . S
C680 C681 1.400 . S
C681 C675 1.491 . S
C681 C680 1.400 . S
C681 C682 1.398 . S
C682 H670 0.950 . S
C682 C681 1.398 . S
C682 C683 1.391 . S
C683 H671 0.950 . S
C683 C679 1.393 . S
C683 C682 1.391 . S
H684 C692 0.950 . S
H685 C697 0.950 . S
H686 C694 0.950 . S
H687 C696 0.950 . S
H688 C698 0.950 . S
H689 C700 0.950 . S
H690 C702 0.950 . S
H691 C703 0.950 . S
C692 H684 0.950 . S
C692 C693 1.386 . S
C692 C694 1.391 . S
C693 C692 1.386 . S
C693 C697 1.393 . S
C694 H686 0.950 . S
C694 C692 1.391 . S
C694 C695 1.400 . S
C695 C694 1.400 . S
C695 C696 1.398 . S
C695 C701 1.491 . S
C696 H687 0.950 . S
C696 C695 1.398 . S
C696 C697 1.391 . S
C697 H685 0.950 . S
C697 C693 1.393 . S
C697 C696 1.391 . S
C698 H688 0.950 . S
C698 C699 1.386 . S
C698 C700 1.391 . S
C699 C698 1.386 . S
C699 C703 1.393 . S
C700 H689 0.950 . S
C700 C698 1.391 . S
C700 C701 1.400 . S
C701 C695 1.491 . S
C701 C700 1.400 . S
C701 C702 1.398 . S
C702 H690 0.950 . S
C702 C701 1.398 . S
C702 C703 1.391 . S
C703 H691 0.950 . S
C703 C699 1.393 . S
C703 C702 1.391 . S
H704 C712 0.950 . S
H705 C717 0.950 . S
H706 C714 0.950 . S
H707 C716 0.950 . S
H708 C718 0.950 . S
H709 C720 0.950 . S
H710 C722 0.950 . S
H711 C723 0.950 . S
C712 H704 0.950 . S
C712 C713 1.386 . S
C712 C714 1.391 . S
C713 C712 1.386 . S
C713 C717 1.393 . S
C714 H706 0.950 . S
C714 C712 1.391 . S
C714 C715 1.400 . S
C715 C714 1.400 . S
C715 C716 1.398 . S
C715 C721 1.491 . S
C716 H707 0.950 . S
C716 C715 1.398 . S
C716 C717 1.391 . S
C717 H705 0.950 . S
C717 C713 1.393 . S
C717 C716 1.391 . S
C718 H708 0.950 . S
C718 C719 1.386 . S
C718 C720 1.391 . S
C719 C718 1.386 . S
C719 C723 1.393 . S
C720 H709 0.950 . S
C720 C718 1.391 . S
C720 C721 1.400 . S
C721 C715 1.491 . S
C721 C720 1.400 . S
C721 C722 1.398 . S
C722 H710 0.950 . S
C722 C721 1.398 . S
C722 C723 1.391 . S
C723 H711 0.950 . S
C723 C719 1.393 . S
C723 C722 1.391 . S
H724 C732 0.950 . S
H725 C737 0.950 . S
H726 C734 0.950 . S
H727 C736 0.950 . S
H728 C738 0.950 . S
H729 C740 0.950 . S
H730 C742 0.950 . S
H731 C743 0.950 . S
C732 H724 0.950 . S
C732 C733 1.386 . S
C732 C734 1.391 . S
C733 C732 1.386 . S
C733 C737 1.393 . S
C734 H726 0.950 . S
C734 C732 1.391 . S
C734 C735 1.400 . S
C735 C734 1.400 . S
C735 C736 1.398 . S
C735 C741 1.491 . S
C736 H727 0.950 . S
C736 C735 1.398 . S
C736 C737 1.391 . S
C737 H725 0.950 . S
C737 C733 1.393 . S
C737 C736 1.391 . S
C738 H728 0.950 . S
C738 C739 1.386 . S
C738 C740 1.391 . S
C739 C738 1.386 . S
C739 C743 1.393 . S
C740 H729 0.950 . S
C740 C738 1.391 . S
C740 C741 1.400 . S
C741 C735 1.491 . S
C741 C740 1.400 . S
C741 C742 1.398 . S
C742 H730 0.950 . S
C742 C741 1.398 . S
C742 C743 1.391 . S
C743 H731 0.950 . S
C743 C739 1.393 . S
C743 C742 1.391 . S
H744 C752 0.950 . S
H745 C757 0.950 . S
H746 C754 0.950 . S
H747 C756 0.950 . S
H748 C758 0.950 . S
H749 C760 0.950 . S
H750 C762 0.950 . S
H751 C763 0.950 . S
C752 H744 0.950 . S
C752 C753 1.386 . S
C752 C754 1.391 . S
C753 C752 1.386 . S
C753 C757 1.393 . S
C754 H746 0.950 . S
C754 C752 1.391 . S
C754 C755 1.400 . S
C755 C754 1.400 . S
C755 C756 1.398 . S
C755 C761 1.491 . S
C756 H747 0.950 . S
C756 C755 1.398 . S
C756 C757 1.391 . S
C757 H745 0.950 . S
C757 C753 1.393 . S
C757 C756 1.391 . S
C758 H748 0.950 . S
C758 C759 1.386 . S
C758 C760 1.391 . S
C759 C758 1.386 . S
C759 C763 1.393 . S
C760 H749 0.950 . S
C760 C758 1.391 . S
C760 C761 1.400 . S
C761 C755 1.491 . S
C761 C760 1.400 . S
C761 C762 1.398 . S
C762 H750 0.950 . S
C762 C761 1.398 . S
C762 C763 1.391 . S
C763 H751 0.950 . S
C763 C759 1.393 . S
C763 C762 1.391 . S
H764 C772 0.950 . S
H765 C777 0.950 . S
H766 C774 0.950 . S
H767 C776 0.950 . S
H768 C778 0.950 . S
H769 C780 0.950 . S
H770 C782 0.950 . S
H771 C783 0.950 . S
C772 H764 0.950 . S
C772 C773 1.386 . S
C772 C774 1.391 . S
C773 C772 1.386 . S
C773 C777 1.393 . S
C774 H766 0.950 . S
C774 C772 1.391 . S
C774 C775 1.400 . S
C775 C774 1.400 . S
C775 C776 1.398 . S
C775 C781 1.491 . S
C776 H767 0.950 . S
C776 C775 1.398 . S
C776 C777 1.391 . S
C777 H765 0.950 . S
C777 C773 1.393 . S
C777 C776 1.391 . S
C778 H768 0.950 . S
C778 C779 1.386 . S
C778 C780 1.391 . S
C779 C778 1.386 . S
C779 C783 1.393 . S
C780 H769 0.950 . S
C780 C778 1.391 . S
C780 C781 1.400 . S
C781 C775 1.491 . S
C781 C780 1.400 . S
C781 C782 1.398 . S
C782 H770 0.950 . S
C782 C781 1.398 . S
C782 C783 1.391 . S
C783 H771 0.950 . S
C783 C779 1.393 . S
C783 C782 1.391 . S
H784 C792 0.950 . S
H785 C797 0.950 . S
H786 C794 0.950 . S
H787 C796 0.950 . S
H788 C798 0.950 . S
H789 C800 0.950 . S
H790 C802 0.950 . S
H791 C803 0.950 . S
C792 H784 0.950 . S
C792 C793 1.386 . S
C792 C794 1.391 . S
C793 C792 1.386 . S
C793 C797 1.393 . S
C794 H786 0.950 . S
C794 C792 1.391 . S
C794 C795 1.400 . S
C795 C794 1.400 . S
C795 C796 1.398 . S
C795 C801 1.491 . S
C796 H787 0.950 . S
C796 C795 1.398 . S
C796 C797 1.391 . S
C797 H785 0.950 . S
C797 C793 1.393 . S
C797 C796 1.391 . S
C798 H788 0.950 . S
C798 C799 1.386 . S
C798 C800 1.391 . S
C799 C798 1.386 . S
C799 C803 1.393 . S
C800 H789 0.950 . S
C800 C798 1.391 . S
C800 C801 1.400 . S
C801 C795 1.491 . S
C801 C800 1.400 . S
C801 C802 1.398 . S
C802 H790 0.950 . S
C802 C801 1.398 . S
C802 C803 1.391 . S
C803 H791 0.950 . S
C803 C799 1.393 . S
C803 C802 1.391 . S
H804 C812 0.950 . S
H805 C817 0.950 . S
H806 C814 0.950 . S
H807 C816 0.950 . S
H808 C818 0.950 . S
H809 C820 0.950 . S
H810 C822 0.950 . S
H811 C823 0.950 . S
C812 H804 0.950 . S
C812 C813 1.386 . S
C812 C814 1.391 . S
C813 C812 1.386 . S
C813 C817 1.393 . S
C814 H806 0.950 . S
C814 C812 1.391 . S
C814 C815 1.400 . S
C815 C814 1.400 . S
C815 C816 1.398 . S
C815 C821 1.491 . S
C816 H807 0.950 . S
C816 C815 1.398 . S
C816 C817 1.391 . S
C817 H805 0.950 . S
C817 C813 1.393 . S
C817 C816 1.391 . S
C818 H808 0.950 . S
C818 C819 1.386 . S
C818 C820 1.391 . S
C819 C818 1.386 . S
C819 C823 1.393 . S
C820 H809 0.950 . S
C820 C818 1.391 . S
C820 C821 1.400 . S
C821 C815 1.491 . S
C821 C820 1.400 . S
C821 C822 1.398 . S
C822 H810 0.950 . S
C822 C821 1.398 . S
C822 C823 1.391 . S
C823 H811 0.950 . S
C823 C819 1.393 . S
C823 C822 1.391 . S
H824 C832 0.950 . S
H825 C837 0.950 . S
H826 C834 0.950 . S
H827 C836 0.950 . S
H828 C838 0.950 . S
H829 C840 0.950 . S
H830 C842 0.950 . S
H831 C843 0.950 . S
C832 H824 0.950 . S
C832 C833 1.386 . S
C832 C834 1.391 . S
C833 C832 1.386 . S
C833 C837 1.393 . S
C834 H826 0.950 . S
C834 C832 1.391 . S
C834 C835 1.400 . S
C835 C834 1.400 . S
C835 C836 1.398 . S
C835 C841 1.491 . S
C836 H827 0.950 . S
C836 C835 1.398 . S
C836 C837 1.391 . S
C837 H825 0.950 . S
C837 C833 1.393 . S
C837 C836 1.391 . S
C838 H828 0.950 . S
C838 C839 1.386 . S
C838 C840 1.391 . S
C839 C838 1.386 . S
C839 C843 1.393 . S
C840 H829 0.950 . S
C840 C838 1.391 . S
C840 C841 1.400 . S
C841 C835 1.491 . S
C841 C840 1.400 . S
C841 C842 1.398 . S
C842 H830 0.950 . S
C842 C841 1.398 . S
C842 C843 1.391 . S
C843 H831 0.950 . S
C843 C839 1.393 . S
C843 C842 1.391 . S
H844 C852 0.950 . S
H845 C857 0.950 . S
H846 C854 0.950 . S
H847 C856 0.950 . S
H848 C858 0.950 . S
H849 C860 0.950 . S
H850 C862 0.950 . S
H851 C863 0.950 . S
C852 H844 0.950 . S
C852 C853 1.386 . S
C852 C854 1.391 . S
C853 C852 1.386 . S
C853 C857 1.393 . S
C854 H846 0.950 . S
C854 C852 1.391 . S
C854 C855 1.400 . S
C855 C854 1.400 . S
C855 C856 1.398 . S
C855 C861 1.491 . S
C856 H847 0.950 . S
C856 C855 1.398 . S
C856 C857 1.391 . S
C857 H845 0.950 . S
C857 C853 1.393 . S
C857 C856 1.391 . S
C858 H848 0.950 . S
C858 C859 1.386 . S
C858 C860 1.391 . S
C859 C858 1.386 . S
C859 C863 1.393 . S
C860 H849 0.950 . S
C860 C858 1.391 . S
C860 C861 1.400 . S
C861 C855 1.491 . S
C861 C860 1.400 . S
C861 C862 1.398 . S
C862 H850 0.950 . S
C862 C861 1.398 . S
C862 C863 1.391 . S
C863 H851 0.950 . S
C863 C859 1.393 . S
C863 C862 1.391 . S
C513 C494 1.443 . S
C519 C56 1.384 . S
C533 C74 1.445 . S
C539 C140 1.382 . S
C553 C158 1.437 . S
C559 C224 1.408 . S
C573 C242 1.445 . S
C579 C308 1.382 . S
C593 C392 1.387 . S
C599 C326 1.442 . S
C613 C476 1.382 . S
C619 C410 1.445 . S
C633 C58 1.297 . S
C639 C70 1.297 . S
C653 C142 1.318 1_556 S
C659 C154 1.318 . S
C673 C226 1.302 . S
C679 C238 1.302 1_554 S
C693 C310 1.329 . S
C699 C322 1.329 . S
C713 C406 1.331 . S
C719 C394 1.331 1_556 S
C733 C478 1.316 . S
C739 C490 1.316 1_554 S
C753 C67 1.379 . S
C759 C399 1.426 . S
C773 C151 1.390 . S
C779 C483 1.418 . S
C793 C63 1.440 . S
C799 C235 1.357 . S
C813 C147 1.425 . S
C819 C319 1.375 . S
C833 C403 1.373 . S
C839 C231 1.431 . S
C853 C315 1.436 . S
C859 C487 1.365 . S
