# Generated by pormake.
# Topology ukd, (4)-cn, num edge types: 1
# Building blocks:
#     Node 0, Type 0, BuildingBlock: AZAVOO_clean_sbu_0, # of connection points: 4
#     Node 1, Type 0, BuildingBlock: AZAVOO_clean_sbu_0, # of connection points: 4
#     Node 2, Type 0, BuildingBlock: AZAVOO_clean_sbu_0, # of connection points: 4
#     Node 3, Type 0, BuildingBlock: AZAVOO_clean_sbu_0, # of connection points: 4
#     Node 4, Type 0, BuildingBlock: AZAVOO_clean_sbu_0, # of connection points: 4
#     Node 5, Type 0, BuildingBlock: AZAVOO_clean_sbu_0, # of connection points: 4
#     Node 6, Type 0, BuildingBlock: AZAVOO_clean_sbu_0, # of connection points: 4
#     Node 7, Type 0, BuildingBlock: AZAVOO_clean_sbu_0, # of connection points: 4
#     Node 8, Type 0, BuildingBlock: AZAVOO_clean_sbu_0, # of connection points: 4
#     Node 9, Type 0, BuildingBlock: AZAVOO_clean_sbu_0, # of connection points: 4
#     Node 10, Type 0, BuildingBlock: AZAVOO_clean_sbu_0, # of connection points: 4
#     Node 11, Type 0, BuildingBlock: AZAVOO_clean_sbu_0, # of connection points: 4
#     Node 12, Type 0, BuildingBlock: AZAVOO_clean_sbu_0, # of connection points: 4
#     Node 13, Type 0, BuildingBlock: AZAVOO_clean_sbu_0, # of connection points: 4
#     Node 14, Type 0, BuildingBlock: AZAVOO_clean_sbu_0, # of connection points: 4
#     Node 15, Type 0, BuildingBlock: AZAVOO_clean_sbu_0, # of connection points: 4
#     Node 16, Type 0, BuildingBlock: AZAVOO_clean_sbu_0, # of connection points: 4
#     Node 17, Type 0, BuildingBlock: AZAVOO_clean_sbu_0, # of connection points: 4
#     Node 18, Type 0, BuildingBlock: AZAVOO_clean_sbu_0, # of connection points: 4
#     Node 19, Type 0, BuildingBlock: AZAVOO_clean_sbu_0, # of connection points: 4
#     Node 20, Type 0, BuildingBlock: AZAVOO_clean_sbu_0, # of connection points: 4
#     Node 21, Type 0, BuildingBlock: AZAVOO_clean_sbu_0, # of connection points: 4
#     Node 22, Type 0, BuildingBlock: AZAVOO_clean_sbu_0, # of connection points: 4
#     Node 23, Type 0, BuildingBlock: AZAVOO_clean_sbu_0, # of connection points: 4
#     Node 24, Type 0, BuildingBlock: AZAVOO_clean_sbu_0, # of connection points: 4
#     Node 25, Type 0, BuildingBlock: AZAVOO_clean_sbu_0, # of connection points: 4
#     Node 26, Type 0, BuildingBlock: AZAVOO_clean_sbu_0, # of connection points: 4
#     Node 27, Type 0, BuildingBlock: AZAVOO_clean_sbu_0, # of connection points: 4
#     Node 28, Type 0, BuildingBlock: AZAVOO_clean_sbu_0, # of connection points: 4
#     Node 29, Type 0, BuildingBlock: AZAVOO_clean_sbu_0, # of connection points: 4
#     Node 30, Type 0, BuildingBlock: AZAVOO_clean_sbu_0, # of connection points: 4
#     Node 31, Type 0, BuildingBlock: AZAVOO_clean_sbu_0, # of connection points: 4
#     Edge 32, Type (0, 0), None
#     Edge 33, Type (0, 0), None
#     Edge 34, Type (0, 0), None
#     Edge 35, Type (0, 0), None
#     Edge 36, Type (0, 0), None
#     Edge 37, Type (0, 0), None
#     Edge 38, Type (0, 0), None
#     Edge 39, Type (0, 0), None
#     Edge 40, Type (0, 0), None
#     Edge 41, Type (0, 0), None
#     Edge 42, Type (0, 0), None
#     Edge 43, Type (0, 0), None
#     Edge 44, Type (0, 0), None
#     Edge 45, Type (0, 0), None
#     Edge 46, Type (0, 0), None
#     Edge 47, Type (0, 0), None
#     Edge 48, Type (0, 0), None
#     Edge 49, Type (0, 0), None
#     Edge 50, Type (0, 0), None
#     Edge 51, Type (0, 0), None
#     Edge 52, Type (0, 0), None
#     Edge 53, Type (0, 0), None
#     Edge 54, Type (0, 0), None
#     Edge 55, Type (0, 0), None
#     Edge 56, Type (0, 0), None
#     Edge 57, Type (0, 0), None
#     Edge 58, Type (0, 0), None
#     Edge 59, Type (0, 0), None
#     Edge 60, Type (0, 0), None
#     Edge 61, Type (0, 0), None
#     Edge 62, Type (0, 0), None
#     Edge 63, Type (0, 0), None
#     Edge 64, Type (0, 0), None
#     Edge 65, Type (0, 0), None
#     Edge 66, Type (0, 0), None
#     Edge 67, Type (0, 0), None
#     Edge 68, Type (0, 0), None
#     Edge 69, Type (0, 0), None
#     Edge 70, Type (0, 0), None
#     Edge 71, Type (0, 0), None
#     Edge 72, Type (0, 0), None
#     Edge 73, Type (0, 0), None
#     Edge 74, Type (0, 0), None
#     Edge 75, Type (0, 0), None
#     Edge 76, Type (0, 0), None
#     Edge 77, Type (0, 0), None
#     Edge 78, Type (0, 0), None
#     Edge 79, Type (0, 0), None
#     Edge 80, Type (0, 0), None
#     Edge 81, Type (0, 0), None
#     Edge 82, Type (0, 0), None
#     Edge 83, Type (0, 0), None
#     Edge 84, Type (0, 0), None
#     Edge 85, Type (0, 0), None
#     Edge 86, Type (0, 0), None
#     Edge 87, Type (0, 0), None
#     Edge 88, Type (0, 0), None
#     Edge 89, Type (0, 0), None
#     Edge 90, Type (0, 0), None
#     Edge 91, Type (0, 0), None
#     Edge 92, Type (0, 0), None
#     Edge 93, Type (0, 0), None
#     Edge 94, Type (0, 0), None
#     Edge 95, Type (0, 0), None
# Relax obj value: 0.175
# Max RMSD: 0.212
# Mean RMSD: 0.212
data_MOF--net-ukd--node1-AZAVOO_clean_sbu_0--edge1-none
_symmetry_space_group_name_H-M    P1
_symmetry_Int_Tables_number       1
_symmetry_cell_setting            triclinic
loop_
_symmetry_equiv_pos_as_xyz
'x, y, z'
_cell_length_a     19.129046
_cell_length_b     19.129108
_cell_length_c     36.257027
_cell_angle_alpha  89.999918
_cell_angle_beta   89.999927
_cell_angle_gamma 89.999971
loop_
_atom_site_label
_atom_site_type_symbol
_atom_site_fract_x
_atom_site_fract_y
_atom_site_fract_z
_atom_type_partial_charge
Mg0 Mg 0.24131 0.28813 0.35455 0.0
O1 O 0.17864 0.18772 0.36276 0.0
O2 O 0.07798 0.19555 0.33143 0.0
Mg3 Mg 0.07388 0.30456 0.30553 0.0
C4 C 0.12081 0.16205 0.35179 0.0
C5 C 0.35572 0.17262 0.36522 0.0
O6 O 0.31755 0.14293 0.33951 0.0
O7 O 0.26445 0.25605 0.2952 0.0
O8 O 0.16145 0.26962 0.26653 0.0
O9 O 0.18842 0.32976 0.40434 0.0
O10 O 0.14879 0.3432 0.3472 0.0
C11 C 0.22613 0.25321 0.26635 0.0
C12 C 0.1394 0.35005 0.38216 0.0
O13 O 0.33917 0.23297 0.37693 0.0
Mg14 Mg 0.94467 0.99117 0.60447 0.0
O15 O 0.04507 0.92851 0.61275 0.0
O16 O 0.03729 0.82783 0.58142 0.0
Mg17 Mg 0.92832 0.82371 0.55548 0.0
C18 C 0.07076 0.87067 0.60179 0.0
C19 C 0.06017 0.10557 0.61517 0.0
O20 O 0.08992 0.06735 0.58951 0.0
O21 O 0.97684 0.01426 0.54513 0.0
O22 O 0.96333 0.91125 0.51648 0.0
O23 O 0.90298 0.93832 0.65426 0.0
O24 O 0.88963 0.89864 0.59712 0.0
C25 C 0.97974 0.97593 0.5163 0.0
C26 C 0.88273 0.88927 0.63209 0.0
O27 O -0.00021 0.08905 0.62685 0.0
Mg28 Mg 0.2417 0.69488 0.85455 0.0
O29 O 0.30437 0.79529 0.86276 0.0
O30 O 0.40503 0.78746 0.83143 0.0
Mg31 Mg 0.40912 0.67844 0.80553 0.0
C32 C 0.36219 0.82096 0.85179 0.0
C33 C 0.12729 0.81039 0.86522 0.0
O34 O 0.16545 0.84008 0.83951 0.0
O35 O 0.21856 0.72695 0.7952 0.0
O36 O 0.32155 0.71339 0.76653 0.0
O37 O 0.29459 0.65325 0.90434 0.0
O38 O 0.33421 0.63981 0.8472 0.0
C39 C 0.25688 0.7298 0.76635 0.0
C40 C 0.34361 0.63296 0.88216 0.0
O41 O 0.14384 0.75004 0.87693 0.0
Mg42 Mg 0.53834 -0.00817 0.10447 0.0
O43 O 0.43793 0.05449 0.11275 0.0
O44 O 0.44572 0.15517 0.08142 0.0
Mg45 Mg 0.55469 0.15929 0.05548 0.0
C46 C 0.41225 0.11233 0.10179 0.0
C47 C 0.42284 0.87743 0.11517 0.0
O48 O 0.39309 0.91566 0.08951 0.0
O49 O 0.50616 0.96874 0.04513 0.0
O50 O 0.51968 0.07176 0.01648 0.0
O51 O 0.58003 0.04468 0.15426 0.0
O52 O 0.59338 0.08436 0.09712 0.0
C53 C 0.50326 0.00708 0.0163 0.0
C54 C 0.60028 0.09373 0.13209 0.0
O55 O 0.48322 0.89395 0.12685 0.0
Mg56 Mg 0.24167 0.72755 0.14046 0.0
O57 O 0.16511 0.81682 0.1398 0.0
O58 O 0.06646 0.79013 0.16957 0.0
Mg59 Mg 0.08043 0.67591 0.18822 0.0
C60 C 0.10473 0.83281 0.1516 0.0
C61 C 0.38416 0.81875 0.13146 0.0
O62 O 0.41128 0.78131 0.15823 0.0
O63 O 0.26358 0.74627 0.20181 0.0
O64 O 0.16473 0.70992 0.22914 0.0
O65 O 0.19081 0.6917 0.08848 0.0
O66 O 0.15974 0.6574 0.1447 0.0
C67 C 0.22678 0.73424 0.23064 0.0
C68 C 0.14802 0.65825 0.10977 0.0
O69 O 0.32229 0.80691 0.12047 0.0
Mg70 Mg 0.50561 0.99145 0.3905 0.0
O71 O 0.41633 0.91489 0.38982 0.0
O72 O 0.443 0.81625 0.4196 0.0
Mg73 Mg 0.5572 0.83024 0.43829 0.0
C74 C 0.40033 0.85452 0.40162 0.0
C75 C 0.41438 0.13391 0.38151 0.0
O76 O 0.45172 0.16096 0.40835 0.0
O77 O 0.48683 0.01339 0.45183 0.0
O78 O 0.52313 0.91455 0.47919 0.0
O79 O 0.5415 0.94059 0.33853 0.0
O80 O 0.57575 0.90952 0.39476 0.0
C81 C 0.49881 0.9766 0.48068 0.0
C82 C 0.57493 0.89779 0.35982 0.0
O83 O 0.42627 0.07208 0.37048 0.0
Mg84 Mg 0.24134 0.25545 0.64046 0.0
O85 O 0.3179 0.16618 0.6398 0.0
O86 O 0.41655 0.19288 0.66957 0.0
Mg87 Mg 0.40258 0.30709 0.68822 0.0
C88 C 0.37828 0.15019 0.6516 0.0
C89 C 0.09885 0.16426 0.63146 0.0
O90 O 0.07173 0.20169 0.65823 0.0
O91 O 0.21943 0.23674 0.70181 0.0
O92 O 0.31828 0.27308 0.72914 0.0
O93 O 0.2922 0.2913 0.58848 0.0
O94 O 0.32327 0.32561 0.6447 0.0
C95 C 0.25623 0.24877 0.73064 0.0
C96 C 0.33499 0.32475 0.60977 0.0
O97 O 0.16072 0.17609 0.62047 0.0
Mg98 Mg 0.9774 -0.00845 0.8905 0.0
O99 O 0.06667 0.06811 0.88982 0.0
O100 O 0.04 0.16675 0.9196 0.0
Mg101 Mg 0.92581 0.15277 0.93829 0.0
C102 C 0.08267 0.12849 0.90162 0.0
C103 C 0.06863 0.8491 0.88151 0.0
O104 O 0.03129 0.82205 0.90835 0.0
O105 O -0.00382 0.96961 0.95183 0.0
O106 O 0.95988 0.06845 0.97919 0.0
O107 O 0.94151 0.04242 0.83853 0.0
O108 O 0.90725 0.07349 0.89476 0.0
C109 C 0.98419 0.00641 0.98068 0.0
C110 C 0.90808 0.08521 0.85982 0.0
O111 O 0.05674 0.91093 0.87048 0.0
Mg112 Mg 0.74171 0.69483 0.64329 0.0
O113 O 0.80436 0.79525 0.63507 0.0
O114 O 0.90503 0.78744 0.6664 0.0
Mg115 Mg 0.90914 0.67844 0.69231 0.0
C116 C 0.86218 0.82093 0.64604 0.0
C117 C 0.6273 0.81033 0.63261 0.0
O118 O 0.66549 0.84004 0.65831 0.0
O119 O 0.71857 0.72692 0.70264 0.0
O120 O 0.82157 0.71338 0.7313 0.0
O121 O 0.7946 0.65319 0.5935 0.0
O122 O 0.83423 0.63978 0.65064 0.0
C123 C 0.75689 0.72978 0.73149 0.0
C124 C 0.84363 0.63292 0.61568 0.0
O125 O 0.64384 0.74997 0.62091 0.0
Mg126 Mg 0.03832 -0.00821 0.39334 0.0
O127 O 0.93791 0.05446 0.38508 0.0
O128 O 0.94571 0.15513 0.41641 0.0
Mg129 Mg 0.05468 0.15924 0.44235 0.0
C130 C 0.91223 0.11229 0.39603 0.0
C131 C 0.92283 0.87738 0.38264 0.0
O132 O 0.8931 0.91556 0.40833 0.0
O133 O 0.00615 0.96868 0.45268 0.0
O134 O 0.01967 0.07169 0.48134 0.0
O135 O 0.08001 0.04466 0.34355 0.0
O136 O 0.09337 0.08432 0.4007 0.0
C137 C 0.00326 0.00701 0.48152 0.0
C138 C 0.10025 0.0937 0.36573 0.0
O139 O 0.9832 0.89392 0.37095 0.0
Mg140 Mg 0.7413 0.28817 0.14329 0.0
O141 O 0.67865 0.18775 0.13507 0.0
O142 O 0.57798 0.19556 0.1664 0.0
Mg143 Mg 0.57386 0.30457 0.19231 0.0
C144 C 0.62083 0.16207 0.14604 0.0
C145 C 0.8557 0.17267 0.13262 0.0
O146 O 0.81752 0.14296 0.15831 0.0
O147 O 0.76443 0.25608 0.20264 0.0
O148 O 0.66143 0.26963 0.2313 0.0
O149 O 0.68841 0.32981 0.0935 0.0
O150 O 0.64877 0.34322 0.15064 0.0
C151 C 0.72611 0.25322 0.23149 0.0
C152 C 0.63938 0.35008 0.11568 0.0
O153 O 0.83917 0.23303 0.12091 0.0
Mg154 Mg 0.44469 0.99121 0.89334 0.0
O155 O 0.54509 0.92855 0.88507 0.0
O156 O 0.5373 0.82788 0.91641 0.0
Mg157 Mg 0.42832 0.82377 0.94235 0.0
C158 C 0.57077 0.87071 0.89603 0.0
C159 C 0.56018 0.10563 0.88264 0.0
O160 O 0.58991 0.06744 0.90833 0.0
O161 O 0.47685 0.01433 0.95268 0.0
O162 O 0.46333 0.91132 0.98134 0.0
O163 O 0.403 0.93835 0.84355 0.0
O164 O 0.38964 0.89869 0.9007 0.0
C165 C 0.47975 0.976 0.98152 0.0
C166 C 0.38275 0.88931 0.86573 0.0
O167 O 0.49981 0.08909 0.87095 0.0
Mg168 Mg 0.74134 0.25553 0.85736 0.0
O169 O 0.81787 0.16623 0.85801 0.0
O170 O 0.91653 0.19292 0.82824 0.0
Mg171 Mg 0.90258 0.30713 0.80959 0.0
C172 C 0.87824 0.15023 0.84619 0.0
C173 C 0.59886 0.16431 0.86635 0.0
O174 O 0.57177 0.20169 0.83954 0.0
O175 O 0.7194 0.23682 0.79602 0.0
O176 O 0.81826 0.27314 0.76868 0.0
O177 O 0.79223 0.29136 0.90934 0.0
O178 O 0.82329 0.32566 0.85311 0.0
C179 C 0.7562 0.24884 0.76718 0.0
C180 C 0.83502 0.3248 0.88805 0.0
O181 O 0.66071 0.17618 0.87736 0.0
Mg182 Mg 0.47745 -0.00849 0.60731 0.0
O183 O 0.56672 0.06808 0.608 0.0
O184 O 0.54005 0.16671 0.57821 0.0
Mg185 Mg 0.42586 0.15272 0.55951 0.0
C186 C 0.58272 0.12845 0.5962 0.0
C187 C 0.56865 0.84904 0.61632 0.0
O188 O 0.53128 0.82197 0.5895 0.0
O189 O 0.49625 0.96957 0.54598 0.0
O190 O 0.45995 0.06841 0.51862 0.0
O191 O 0.44154 0.04238 0.65928 0.0
O192 O 0.4073 0.07344 0.60304 0.0
C193 C 0.48426 0.00636 0.51713 0.0
C194 C 0.40812 0.08517 0.63798 0.0
O195 O 0.55678 0.91089 0.62734 0.0
Mg196 Mg 0.74167 0.72748 0.35736 0.0
O197 O 0.66514 0.81678 0.35801 0.0
O198 O 0.56648 0.79009 0.32824 0.0
Mg199 Mg 0.58043 0.67587 0.30959 0.0
C200 C 0.60477 0.83278 0.34619 0.0
C201 C 0.88415 0.8187 0.36635 0.0
O202 O 0.91124 0.78132 0.33954 0.0
O203 O 0.76361 0.74619 0.29602 0.0
O204 O 0.66475 0.70987 0.26868 0.0
O205 O 0.69077 0.69165 0.40934 0.0
O206 O 0.65972 0.65735 0.35311 0.0
C207 C 0.7268 0.73416 0.26718 0.0
C208 C 0.64799 0.6582 0.38805 0.0
O209 O 0.8223 0.80682 0.37736 0.0
Mg210 Mg 0.00556 0.99149 0.10731 0.0
O211 O 0.91629 0.91493 0.108 0.0
O212 O 0.94296 0.81629 0.07821 0.0
Mg213 Mg 0.05715 0.83028 0.05951 0.0
C214 C 0.90029 0.85455 0.0962 0.0
C215 C 0.91436 0.13396 0.11632 0.0
O216 O 0.95173 0.16103 0.08951 0.0
O217 O 0.98676 0.01344 0.04598 0.0
O218 O 0.02306 0.9146 0.01862 0.0
O219 O 0.04147 0.94062 0.15928 0.0
O220 O 0.07571 0.90956 0.10304 0.0
C221 C -0.00126 0.97664 0.01713 0.0
C222 C 0.07489 0.89783 0.13798 0.0
O223 O 0.92623 0.07211 0.12734 0.0
Mg224 Mg 0.74101 0.78824 0.85446 0.0
O225 O 0.67833 0.68784 0.86271 0.0
O226 O 0.57767 0.69565 0.83137 0.0
Mg227 Mg 0.57357 0.80465 0.80545 0.0
C228 C 0.6205 0.66216 0.85174 0.0
C229 C 0.8554 0.67272 0.86518 0.0
O230 O 0.81718 0.64295 0.83952 0.0
O231 O 0.76412 0.75611 0.79511 0.0
O232 O 0.66112 0.76967 0.76645 0.0
O233 O 0.68816 0.82991 0.90425 0.0
O234 O 0.64849 0.8433 0.84711 0.0
C235 C 0.7258 0.75325 0.76627 0.0
C236 C 0.63911 0.85016 0.88208 0.0
O237 O 0.83889 0.73311 0.87684 0.0
Mg238 Mg 0.44494 0.49112 0.10451 0.0
O239 O 0.54536 0.42846 0.11272 0.0
O240 O 0.53753 0.3278 0.08138 0.0
Mg241 Mg 0.42849 0.32369 0.0555 0.0
C242 C 0.57103 0.37064 0.10173 0.0
C243 C 0.56048 0.6055 0.11521 0.0
O244 O 0.59022 0.56729 0.08954 0.0
O245 O 0.47698 0.51426 0.04516 0.0
O246 O 0.46338 0.41127 0.01649 0.0
O247 O 0.40334 0.43825 0.15432 0.0
O248 O 0.38988 0.3986 0.09718 0.0
C249 C 0.4798 0.47595 0.01631 0.0
C250 C 0.38304 0.38921 0.13215 0.0
O251 O 0.50009 0.58899 0.12689 0.0
Mg252 Mg 0.742 0.19477 0.35446 0.0
O253 O 0.80468 0.29517 0.36271 0.0
O254 O 0.90534 0.28736 0.33137 0.0
Mg255 Mg 0.90944 0.17836 0.30545 0.0
C256 C 0.86251 0.32084 0.35174 0.0
C257 C 0.6276 0.31029 0.36518 0.0
O258 O 0.66583 0.34006 0.33952 0.0
O259 O 0.71889 0.2269 0.29511 0.0
O260 O 0.82188 0.21333 0.26645 0.0
O261 O 0.79485 0.1531 0.40425 0.0
O262 O 0.83452 0.13971 0.34711 0.0
C263 C 0.75721 0.22976 0.26627 0.0
C264 C 0.84389 0.13284 0.38208 0.0
O265 O 0.64412 0.24989 0.37684 0.0
Mg266 Mg 0.03807 0.49188 0.60451 0.0
O267 O 0.93765 0.55455 0.61272 0.0
O268 O 0.94548 0.6552 0.58138 0.0
Mg269 Mg 0.05451 0.65931 0.5555 0.0
C270 C 0.91197 0.61236 0.60174 0.0
C271 C 0.92253 0.3775 0.61521 0.0
O272 O 0.89279 0.41571 0.58954 0.0
O273 O 0.00603 0.46875 0.54516 0.0
O274 O 0.01962 0.57174 0.51649 0.0
O275 O 0.07967 0.54476 0.65432 0.0
O276 O 0.09313 0.5844 0.59718 0.0
C277 C 0.00321 0.50706 0.51631 0.0
C278 C 0.09997 0.59379 0.63215 0.0
O279 O 0.98292 0.39401 0.62689 0.0
Mg280 Mg 0.74135 0.22763 0.64053 0.0
O281 O 0.66477 0.31688 0.63987 0.0
O282 O 0.56612 0.29018 0.66963 0.0
Mg283 Mg 0.58012 0.17597 0.6883 0.0
C284 C 0.60439 0.33287 0.65167 0.0
C285 C 0.88384 0.31883 0.63151 0.0
O286 O 0.91098 0.28138 0.65827 0.0
O287 O 0.76326 0.24636 0.70187 0.0
O288 O 0.66441 0.21002 0.72921 0.0
O289 O 0.69051 0.19176 0.58855 0.0
O290 O 0.65943 0.15746 0.64477 0.0
C291 C 0.72645 0.23434 0.73071 0.0
C292 C 0.64772 0.15831 0.60984 0.0
O293 O 0.82196 0.30701 0.62053 0.0
Mg294 Mg 0.00532 0.49155 0.89048 0.0
O295 O 0.91603 0.41501 0.88986 0.0
O296 O 0.94275 0.31634 0.91961 0.0
Mg297 Mg 0.057 0.33029 0.93821 0.0
C298 C 0.90004 0.35464 0.90167 0.0
C299 C 0.9141 0.63405 0.88147 0.0
O300 O 0.95156 0.66122 0.90822 0.0
O301 O 0.98669 0.51346 0.95183 0.0
O302 O 0.02306 0.4146 0.97915 0.0
O303 O 0.04109 0.44068 0.83848 0.0
O304 O 0.07547 0.40961 0.89469 0.0
C305 C -0.00124 0.47664 0.98066 0.0
C306 C 0.07458 0.39789 0.85976 0.0
O307 O 0.92592 0.57217 0.8705 0.0
Mg308 Mg 0.74166 0.75537 0.14053 0.0
O309 O 0.81824 0.66612 0.13987 0.0
O310 O 0.91689 0.69282 0.16964 0.0
Mg311 Mg 0.90289 0.80703 0.1883 0.0
C312 C 0.87862 0.65013 0.15167 0.0
C313 C 0.59917 0.66417 0.13151 0.0
O314 O 0.57203 0.70162 0.15827 0.0
O315 O 0.71975 0.73664 0.20187 0.0
O316 O 0.8186 0.77298 0.22921 0.0
O317 O 0.7925 0.79124 0.08855 0.0
O318 O 0.82358 0.82554 0.14477 0.0
C319 C 0.75656 0.74866 0.23071 0.0
C320 C 0.83529 0.82469 0.10983 0.0
O321 O 0.66105 0.67599 0.12053 0.0
Mg322 Mg 0.47769 0.49145 0.39048 0.0
O323 O 0.56697 0.568 0.38986 0.0
O324 O 0.54026 0.66667 0.41961 0.0
Mg325 Mg 0.42601 0.65271 0.43821 0.0
C326 C 0.58297 0.62837 0.40167 0.0
C327 C 0.56891 0.34895 0.38147 0.0
O328 O 0.53145 0.32179 0.40822 0.0
O329 O 0.49631 0.46955 0.45183 0.0
O330 O 0.45995 0.56841 0.47915 0.0
O331 O 0.44191 0.54233 0.33848 0.0
O332 O 0.40754 0.57339 0.39469 0.0
C333 C 0.48425 0.50636 0.48066 0.0
C334 C 0.40843 0.58511 0.35976 0.0
O335 O 0.55708 0.41084 0.3705 0.0
Mg336 Mg 0.24201 0.19477 0.14338 0.0
O337 O 0.30467 0.29518 0.13513 0.0
O338 O 0.40534 0.28739 0.16647 0.0
Mg339 Mg 0.40946 0.17839 0.19238 0.0
C340 C 0.36249 0.32087 0.1461 0.0
C341 C 0.12762 0.3103 0.13265 0.0
O342 O 0.16587 0.34008 0.1583 0.0
O343 O 0.2189 0.22689 0.20272 0.0
O344 O 0.3219 0.21334 0.23138 0.0
O345 O 0.29486 0.15312 0.09358 0.0
O346 O 0.33454 0.13973 0.15072 0.0
C347 C 0.25723 0.22975 0.23156 0.0
C348 C 0.34391 0.13287 0.11575 0.0
O349 O 0.14412 0.24989 0.121 0.0
Mg350 Mg 0.53805 0.4919 0.89331 0.0
O351 O 0.43763 0.55457 0.88512 0.0
O352 O 0.44547 0.65522 0.91646 0.0
Mg353 Mg 0.55451 0.65932 0.94234 0.0
C354 C 0.41196 0.61239 0.89611 0.0
C355 C 0.42252 0.37751 0.88261 0.0
O356 O 0.39278 0.4157 0.90829 0.0
O357 O 0.50601 0.46875 0.95267 0.0
O358 O 0.51961 0.57173 0.98134 0.0
O359 O 0.57965 0.54479 0.84351 0.0
O360 O 0.59312 0.58442 0.90065 0.0
C361 C 0.5032 0.50706 0.98152 0.0
C362 C 0.59994 0.59382 0.86569 0.0
O363 O 0.4829 0.39404 0.87093 0.0
Mg364 Mg 0.241 0.78823 0.64338 0.0
O365 O 0.17834 0.68782 0.63513 0.0
O366 O 0.07767 0.69562 0.66646 0.0
Mg367 Mg 0.07355 0.80462 0.69238 0.0
C368 C 0.12052 0.66213 0.6461 0.0
C369 C 0.35539 0.6727 0.63265 0.0
O370 O 0.31714 0.64292 0.6583 0.0
O371 O 0.2641 0.75611 0.70272 0.0
O372 O 0.1611 0.76967 0.73138 0.0
O373 O 0.18815 0.82988 0.59358 0.0
O374 O 0.14847 0.84327 0.65072 0.0
C375 C 0.22578 0.75325 0.73156 0.0
C376 C 0.1391 0.85013 0.61575 0.0
O377 O 0.33889 0.73311 0.621 0.0
Mg378 Mg 0.94496 0.4911 0.39331 0.0
O379 O 0.04537 0.42843 0.38512 0.0
O380 O 0.03754 0.32778 0.41646 0.0
Mg381 Mg 0.9285 0.32368 0.44234 0.0
C382 C 0.07105 0.37062 0.3961 0.0
C383 C 0.06049 0.6055 0.38261 0.0
O384 O 0.09022 0.56731 0.40829 0.0
O385 O 0.97699 0.51426 0.45267 0.0
O386 O 0.96339 0.41127 0.48134 0.0
O387 O 0.90336 0.43821 0.34351 0.0
O388 O 0.88989 0.39858 0.40065 0.0
C389 C 0.97981 0.47595 0.48152 0.0
C390 C 0.88307 0.38919 0.36569 0.0
O391 O 0.00011 0.58897 0.37093 0.0
Mg392 Mg 0.24166 0.75539 0.35729 0.0
O393 O 0.31821 0.66611 0.35793 0.0
O394 O 0.41687 0.69281 0.32817 0.0
Mg395 Mg 0.40289 0.80703 0.30952 0.0
C396 C 0.37858 0.65011 0.34612 0.0
C397 C 0.09917 0.66417 0.36631 0.0
O398 O 0.07204 0.70158 0.33953 0.0
O399 O 0.21972 0.73669 0.29595 0.0
O400 O 0.31858 0.77303 0.26861 0.0
O401 O 0.29254 0.79121 0.40927 0.0
O402 O 0.3236 0.82554 0.35305 0.0
C403 C 0.25653 0.74872 0.26711 0.0
C404 C 0.33532 0.82467 0.38799 0.0
O405 O 0.16104 0.67602 0.3773 0.0
Mg406 Mg 0.97774 0.49147 0.10732 0.0
O407 O 0.06702 0.56803 0.10795 0.0
O408 O 0.0403 0.66669 0.0782 0.0
Mg409 Mg 0.92606 0.65273 0.05958 0.0
C410 C 0.08301 0.6284 0.09614 0.0
C411 C 0.06893 0.34896 0.11636 0.0
O412 O 0.03143 0.32176 0.08963 0.0
O413 O -0.00361 0.46957 0.04596 0.0
O414 O 0.96002 0.56843 0.01865 0.0
O415 O 0.94195 0.54234 0.15931 0.0
O416 O 0.90759 0.57341 0.1031 0.0
C417 C 0.98433 0.50638 0.01714 0.0
C418 C 0.90847 0.58513 0.13803 0.0
O419 O 0.05714 0.41087 0.1273 0.0
Mg420 Mg 0.24135 0.22762 0.85729 0.0
O421 O 0.1648 0.3169 0.85793 0.0
O422 O 0.06614 0.2902 0.82817 0.0
Mg423 Mg 0.08011 0.17598 0.80952 0.0
C424 C 0.10443 0.33289 0.84612 0.0
C425 C 0.38383 0.31884 0.86631 0.0
O426 O 0.41096 0.28143 0.83953 0.0
O427 O 0.26328 0.24631 0.79595 0.0
O428 O 0.16443 0.20998 0.76861 0.0
O429 O 0.19047 0.19179 0.90927 0.0
O430 O 0.15941 0.15747 0.85305 0.0
C431 C 0.22648 0.23428 0.76711 0.0
C432 C 0.14768 0.15834 0.88799 0.0
O433 O 0.32196 0.30699 0.8773 0.0
Mg434 Mg 0.50526 0.49153 0.60732 0.0
O435 O 0.41599 0.41498 0.60795 0.0
O436 O 0.44271 0.31631 0.5782 0.0
Mg437 Mg 0.55695 0.33027 0.55958 0.0
C438 C 0.4 0.3546 0.59614 0.0
C439 C 0.41408 0.63404 0.61636 0.0
O440 O 0.45158 0.66124 0.58963 0.0
O441 O 0.48662 0.51344 0.54597 0.0
O442 O 0.52299 0.41457 0.51865 0.0
O443 O 0.54106 0.44066 0.65931 0.0
O444 O 0.57542 0.4096 0.6031 0.0
C445 C 0.49868 0.47662 0.51714 0.0
C446 C 0.57454 0.39787 0.63803 0.0
O447 O 0.42587 0.57214 0.6273 0.0
loop_
_geom_bond_atom_site_label_1
_geom_bond_atom_site_label_2
_geom_bond_distance
_geom_bond_site_symmetry_2
_ccdc_geom_bond_type
Mg0 O1 2.028 . S
Mg0 O7 1.986 . S
Mg0 O9 2.114 . S
Mg0 O10 2.251 . S
Mg0 O13 2.010 . S
O1 Mg0 2.028 . S
O1 C4 1.250 . S
O2 Mg3 2.028 . S
O2 C4 1.248 . S
Mg3 O2 2.028 . S
Mg3 O8 2.032 . S
Mg3 O10 2.079 . S
C4 O1 1.250 . S
C4 O2 1.248 . S
C5 O6 1.264 . S
C5 O13 1.249 . S
O6 C5 1.264 . S
O7 Mg0 1.986 . S
O7 C11 1.246 . S
O8 Mg3 2.032 . S
O8 C11 1.259 . S
O9 Mg0 2.114 . S
O9 C12 1.252 . S
O10 Mg0 2.251 . S
O10 Mg3 2.079 . S
O10 C12 1.273 . S
C11 O7 1.246 . S
C11 O8 1.259 . S
C12 O9 1.252 . S
C12 O10 1.273 . S
O13 Mg0 2.010 . S
O13 C5 1.249 . S
Mg14 O15 2.028 . S
Mg14 O21 1.986 1_565 S
Mg14 O23 2.114 1_455 S
Mg14 O24 2.251 1_455 S
Mg14 O27 2.010 1_565 S
O15 Mg14 2.028 . S
O15 C18 1.250 . S
O16 Mg17 2.028 1_455 S
O16 C18 1.248 . S
Mg17 O16 2.028 1_655 S
Mg17 O22 2.032 . S
Mg17 O24 2.079 . S
C18 O15 1.250 . S
C18 O16 1.248 . S
C19 O20 1.264 . S
C19 O27 1.249 . S
O20 C19 1.264 . S
O21 Mg14 1.986 1_545 S
O21 C25 1.246 1_545 S
O22 Mg17 2.032 . S
O22 C25 1.259 1_655 S
O23 Mg14 2.114 1_655 S
O23 C26 1.252 . S
O24 Mg14 2.251 1_655 S
O24 Mg17 2.079 . S
O24 C26 1.273 . S
C25 O21 1.246 1_565 S
C25 O22 1.259 1_455 S
C26 O23 1.252 . S
C26 O24 1.273 . S
O27 Mg14 2.010 1_545 S
O27 C19 1.249 . S
Mg28 O29 2.028 . S
Mg28 O35 1.986 . S
Mg28 O37 2.114 . S
Mg28 O38 2.251 . S
Mg28 O41 2.010 . S
O29 Mg28 2.028 . S
O29 C32 1.250 . S
O30 Mg31 2.028 . S
O30 C32 1.248 . S
Mg31 O30 2.028 . S
Mg31 O36 2.032 . S
Mg31 O38 2.079 . S
C32 O29 1.250 . S
C32 O30 1.248 . S
C33 O34 1.264 . S
C33 O41 1.249 . S
O34 C33 1.264 . S
O35 Mg28 1.986 . S
O35 C39 1.246 . S
O36 Mg31 2.032 . S
O36 C39 1.259 . S
O37 Mg28 2.114 . S
O37 C40 1.252 . S
O38 Mg28 2.251 . S
O38 Mg31 2.079 . S
O38 C40 1.273 . S
C39 O35 1.246 . S
C39 O36 1.259 . S
C40 O37 1.252 . S
C40 O38 1.273 . S
O41 Mg28 2.010 . S
O41 C33 1.249 . S
Mg42 O43 2.028 . S
Mg42 O49 1.986 1_545 S
Mg42 O51 2.114 . S
Mg42 O52 2.251 . S
Mg42 O55 2.010 1_545 S
O43 Mg42 2.028 . S
O43 C46 1.250 . S
O44 Mg45 2.028 . S
O44 C46 1.248 . S
Mg45 O44 2.028 . S
Mg45 O50 2.032 . S
Mg45 O52 2.079 . S
C46 O43 1.250 . S
C46 O44 1.248 . S
C47 O48 1.264 . S
C47 O55 1.249 . S
O48 C47 1.264 . S
O49 Mg42 1.986 1_565 S
O49 C53 1.246 1_565 S
O50 Mg45 2.032 . S
O50 C53 1.259 . S
O51 Mg42 2.114 . S
O51 C54 1.252 . S
O52 Mg42 2.251 . S
O52 Mg45 2.079 . S
O52 C54 1.273 . S
C53 O49 1.246 1_545 S
C53 O50 1.259 . S
C54 O51 1.252 . S
C54 O52 1.273 . S
O55 Mg42 2.010 1_565 S
O55 C47 1.249 . S
Mg56 O57 2.028 . S
Mg56 O63 1.986 . S
Mg56 O65 2.114 . S
Mg56 O66 2.251 . S
Mg56 O69 2.010 . S
O57 Mg56 2.028 . S
O57 C60 1.250 . S
O58 Mg59 2.028 . S
O58 C60 1.248 . S
Mg59 O58 2.028 . S
Mg59 O64 2.032 . S
Mg59 O66 2.079 . S
C60 O57 1.250 . S
C60 O58 1.248 . S
C61 O62 1.264 . S
C61 O69 1.249 . S
O62 C61 1.264 . S
O63 Mg56 1.986 . S
O63 C67 1.246 . S
O64 Mg59 2.032 . S
O64 C67 1.259 . S
O65 Mg56 2.114 . S
O65 C68 1.252 . S
O66 Mg56 2.251 . S
O66 Mg59 2.079 . S
O66 C68 1.273 . S
C67 O63 1.246 . S
C67 O64 1.259 . S
C68 O65 1.252 . S
C68 O66 1.273 . S
O69 Mg56 2.010 . S
O69 C61 1.249 . S
Mg70 O71 2.028 . S
Mg70 O77 1.986 1_565 S
Mg70 O79 2.114 . S
Mg70 O80 2.251 . S
Mg70 O83 2.010 1_565 S
O71 Mg70 2.028 . S
O71 C74 1.250 . S
O72 Mg73 2.028 . S
O72 C74 1.248 . S
Mg73 O72 2.028 . S
Mg73 O78 2.032 . S
Mg73 O80 2.079 . S
C74 O71 1.250 . S
C74 O72 1.248 . S
C75 O76 1.264 . S
C75 O83 1.249 . S
O76 C75 1.264 . S
O77 Mg70 1.986 1_545 S
O77 C81 1.246 1_545 S
O78 Mg73 2.032 . S
O78 C81 1.259 . S
O79 Mg70 2.114 . S
O79 C82 1.252 . S
O80 Mg70 2.251 . S
O80 Mg73 2.079 . S
O80 C82 1.273 . S
C81 O77 1.246 1_565 S
C81 O78 1.259 . S
C82 O79 1.252 . S
C82 O80 1.273 . S
O83 Mg70 2.010 1_545 S
O83 C75 1.249 . S
Mg84 O85 2.028 . S
Mg84 O91 1.986 . S
Mg84 O93 2.114 . S
Mg84 O94 2.251 . S
Mg84 O97 2.010 . S
O85 Mg84 2.028 . S
O85 C88 1.250 . S
O86 Mg87 2.028 . S
O86 C88 1.248 . S
Mg87 O86 2.028 . S
Mg87 O92 2.032 . S
Mg87 O94 2.079 . S
C88 O85 1.250 . S
C88 O86 1.248 . S
C89 O90 1.264 . S
C89 O97 1.249 . S
O90 C89 1.264 . S
O91 Mg84 1.986 . S
O91 C95 1.246 . S
O92 Mg87 2.032 . S
O92 C95 1.259 . S
O93 Mg84 2.114 . S
O93 C96 1.252 . S
O94 Mg84 2.251 . S
O94 Mg87 2.079 . S
O94 C96 1.273 . S
C95 O91 1.246 . S
C95 O92 1.259 . S
C96 O93 1.252 . S
C96 O94 1.273 . S
O97 Mg84 2.010 . S
O97 C89 1.249 . S
Mg98 O99 2.028 . S
Mg98 O105 1.986 1_545 S
Mg98 O107 2.114 1_455 S
Mg98 O108 2.251 1_455 S
Mg98 O111 2.010 1_545 S
O99 Mg98 2.028 . S
O99 C102 1.250 . S
O100 Mg101 2.028 1_455 S
O100 C102 1.248 . S
Mg101 O100 2.028 1_655 S
Mg101 O106 2.032 . S
Mg101 O108 2.079 . S
C102 O99 1.250 . S
C102 O100 1.248 . S
C103 O104 1.264 . S
C103 O111 1.249 . S
O104 C103 1.264 . S
O105 Mg98 1.986 1_565 S
O105 C109 1.246 1_565 S
O106 Mg101 2.032 . S
O106 C109 1.259 1_655 S
O107 Mg98 2.114 1_655 S
O107 C110 1.252 . S
O108 Mg98 2.251 1_655 S
O108 Mg101 2.079 . S
O108 C110 1.273 . S
C109 O105 1.246 1_545 S
C109 O106 1.259 1_455 S
C110 O107 1.252 . S
C110 O108 1.273 . S
O111 Mg98 2.010 1_565 S
O111 C103 1.249 . S
Mg112 O113 2.028 . S
Mg112 O119 1.986 . S
Mg112 O121 2.114 . S
Mg112 O122 2.251 . S
Mg112 O125 2.010 . S
O113 Mg112 2.028 . S
O113 C116 1.250 . S
O114 Mg115 2.028 . S
O114 C116 1.248 . S
Mg115 O114 2.028 . S
Mg115 O120 2.032 . S
Mg115 O122 2.079 . S
C116 O113 1.250 . S
C116 O114 1.248 . S
C117 O118 1.264 . S
C117 O125 1.249 . S
O118 C117 1.264 . S
O119 Mg112 1.986 . S
O119 C123 1.246 . S
O120 Mg115 2.032 . S
O120 C123 1.259 . S
O121 Mg112 2.114 . S
O121 C124 1.252 . S
O122 Mg112 2.251 . S
O122 Mg115 2.079 . S
O122 C124 1.273 . S
C123 O119 1.246 . S
C123 O120 1.259 . S
C124 O121 1.252 . S
C124 O122 1.273 . S
O125 Mg112 2.010 . S
O125 C117 1.249 . S
Mg126 O127 2.028 . S
Mg126 O133 1.986 1_545 S
Mg126 O135 2.114 1_655 S
Mg126 O136 2.251 1_655 S
Mg126 O139 2.010 1_545 S
O127 Mg126 2.028 . S
O127 C130 1.250 . S
O128 Mg129 2.028 1_655 S
O128 C130 1.248 . S
Mg129 O128 2.028 1_455 S
Mg129 O134 2.032 . S
Mg129 O136 2.079 . S
C130 O127 1.250 . S
C130 O128 1.248 . S
C131 O132 1.264 . S
C131 O139 1.249 . S
O132 C131 1.264 . S
O133 Mg126 1.986 1_565 S
O133 C137 1.246 1_565 S
O134 Mg129 2.032 . S
O134 C137 1.259 1_455 S
O135 Mg126 2.114 1_455 S
O135 C138 1.252 . S
O136 Mg126 2.251 1_455 S
O136 Mg129 2.079 . S
O136 C138 1.273 . S
C137 O133 1.246 1_545 S
C137 O134 1.259 1_655 S
C138 O135 1.252 . S
C138 O136 1.273 . S
O139 Mg126 2.010 1_565 S
O139 C131 1.249 . S
Mg140 O141 2.028 . S
Mg140 O147 1.986 . S
Mg140 O149 2.114 . S
Mg140 O150 2.251 . S
Mg140 O153 2.010 . S
O141 Mg140 2.028 . S
O141 C144 1.250 . S
O142 Mg143 2.028 . S
O142 C144 1.248 . S
Mg143 O142 2.028 . S
Mg143 O148 2.032 . S
Mg143 O150 2.079 . S
C144 O141 1.250 . S
C144 O142 1.248 . S
C145 O146 1.264 . S
C145 O153 1.249 . S
O146 C145 1.264 . S
O147 Mg140 1.986 . S
O147 C151 1.246 . S
O148 Mg143 2.032 . S
O148 C151 1.259 . S
O149 Mg140 2.114 . S
O149 C152 1.252 . S
O150 Mg140 2.251 . S
O150 Mg143 2.079 . S
O150 C152 1.273 . S
C151 O147 1.246 . S
C151 O148 1.259 . S
C152 O149 1.252 . S
C152 O150 1.273 . S
O153 Mg140 2.010 . S
O153 C145 1.249 . S
Mg154 O155 2.028 . S
Mg154 O161 1.986 1_565 S
Mg154 O163 2.114 . S
Mg154 O164 2.251 . S
Mg154 O167 2.010 1_565 S
O155 Mg154 2.028 . S
O155 C158 1.250 . S
O156 Mg157 2.028 . S
O156 C158 1.248 . S
Mg157 O156 2.028 . S
Mg157 O162 2.032 . S
Mg157 O164 2.079 . S
C158 O155 1.250 . S
C158 O156 1.248 . S
C159 O160 1.264 . S
C159 O167 1.249 . S
O160 C159 1.264 . S
O161 Mg154 1.986 1_545 S
O161 C165 1.246 1_545 S
O162 Mg157 2.032 . S
O162 C165 1.259 . S
O163 Mg154 2.114 . S
O163 C166 1.252 . S
O164 Mg154 2.251 . S
O164 Mg157 2.079 . S
O164 C166 1.273 . S
C165 O161 1.246 1_565 S
C165 O162 1.259 . S
C166 O163 1.252 . S
C166 O164 1.273 . S
O167 Mg154 2.010 1_545 S
O167 C159 1.249 . S
Mg168 O169 2.028 . S
Mg168 O175 1.986 . S
Mg168 O177 2.114 . S
Mg168 O178 2.251 . S
Mg168 O181 2.010 . S
O169 Mg168 2.028 . S
O169 C172 1.250 . S
O170 Mg171 2.028 . S
O170 C172 1.248 . S
Mg171 O170 2.028 . S
Mg171 O176 2.032 . S
Mg171 O178 2.079 . S
C172 O169 1.250 . S
C172 O170 1.248 . S
C173 O174 1.264 . S
C173 O181 1.249 . S
O174 C173 1.264 . S
O175 Mg168 1.986 . S
O175 C179 1.246 . S
O176 Mg171 2.032 . S
O176 C179 1.259 . S
O177 Mg168 2.114 . S
O177 C180 1.252 . S
O178 Mg168 2.251 . S
O178 Mg171 2.079 . S
O178 C180 1.273 . S
C179 O175 1.246 . S
C179 O176 1.259 . S
C180 O177 1.252 . S
C180 O178 1.273 . S
O181 Mg168 2.010 . S
O181 C173 1.249 . S
Mg182 O183 2.028 . S
Mg182 O189 1.986 1_545 S
Mg182 O191 2.114 . S
Mg182 O192 2.251 . S
Mg182 O195 2.010 1_545 S
O183 Mg182 2.028 . S
O183 C186 1.250 . S
O184 Mg185 2.028 . S
O184 C186 1.248 . S
Mg185 O184 2.028 . S
Mg185 O190 2.032 . S
Mg185 O192 2.079 . S
C186 O183 1.250 . S
C186 O184 1.248 . S
C187 O188 1.264 . S
C187 O195 1.249 . S
O188 C187 1.264 . S
O189 Mg182 1.986 1_565 S
O189 C193 1.246 1_565 S
O190 Mg185 2.032 . S
O190 C193 1.259 . S
O191 Mg182 2.114 . S
O191 C194 1.252 . S
O192 Mg182 2.251 . S
O192 Mg185 2.079 . S
O192 C194 1.273 . S
C193 O189 1.246 1_545 S
C193 O190 1.259 . S
C194 O191 1.252 . S
C194 O192 1.273 . S
O195 Mg182 2.010 1_565 S
O195 C187 1.249 . S
Mg196 O197 2.028 . S
Mg196 O203 1.986 . S
Mg196 O205 2.114 . S
Mg196 O206 2.251 . S
Mg196 O209 2.010 . S
O197 Mg196 2.028 . S
O197 C200 1.250 . S
O198 Mg199 2.028 . S
O198 C200 1.248 . S
Mg199 O198 2.028 . S
Mg199 O204 2.032 . S
Mg199 O206 2.079 . S
C200 O197 1.250 . S
C200 O198 1.248 . S
C201 O202 1.264 . S
C201 O209 1.249 . S
O202 C201 1.264 . S
O203 Mg196 1.986 . S
O203 C207 1.246 . S
O204 Mg199 2.032 . S
O204 C207 1.259 . S
O205 Mg196 2.114 . S
O205 C208 1.252 . S
O206 Mg196 2.251 . S
O206 Mg199 2.079 . S
O206 C208 1.273 . S
C207 O203 1.246 . S
C207 O204 1.259 . S
C208 O205 1.252 . S
C208 O206 1.273 . S
O209 Mg196 2.010 . S
O209 C201 1.249 . S
Mg210 O211 2.028 . S
Mg210 O217 1.986 1_565 S
Mg210 O219 2.114 1_655 S
Mg210 O220 2.251 1_655 S
Mg210 O223 2.010 1_565 S
O211 Mg210 2.028 . S
O211 C214 1.250 . S
O212 Mg213 2.028 1_655 S
O212 C214 1.248 . S
Mg213 O212 2.028 1_455 S
Mg213 O218 2.032 . S
Mg213 O220 2.079 . S
C214 O211 1.250 . S
C214 O212 1.248 . S
C215 O216 1.264 . S
C215 O223 1.249 . S
O216 C215 1.264 . S
O217 Mg210 1.986 1_545 S
O217 C221 1.246 1_545 S
O218 Mg213 2.032 . S
O218 C221 1.259 1_455 S
O219 Mg210 2.114 1_455 S
O219 C222 1.252 . S
O220 Mg210 2.251 1_455 S
O220 Mg213 2.079 . S
O220 C222 1.273 . S
C221 O217 1.246 1_565 S
C221 O218 1.259 1_655 S
C222 O219 1.252 . S
C222 O220 1.273 . S
O223 Mg210 2.010 1_545 S
O223 C215 1.249 . S
Mg224 O225 2.028 . S
Mg224 O231 1.986 . S
Mg224 O233 2.114 . S
Mg224 O234 2.251 . S
Mg224 O237 2.010 . S
O225 Mg224 2.028 . S
O225 C228 1.250 . S
O226 Mg227 2.028 . S
O226 C228 1.248 . S
Mg227 O226 2.028 . S
Mg227 O232 2.032 . S
Mg227 O234 2.079 . S
C228 O225 1.250 . S
C228 O226 1.248 . S
C229 O230 1.264 . S
C229 O237 1.249 . S
O230 C229 1.264 . S
O231 Mg224 1.986 . S
O231 C235 1.246 . S
O232 Mg227 2.032 . S
O232 C235 1.259 . S
O233 Mg224 2.114 . S
O233 C236 1.252 . S
O234 Mg224 2.251 . S
O234 Mg227 2.079 . S
O234 C236 1.273 . S
C235 O231 1.246 . S
C235 O232 1.259 . S
C236 O233 1.252 . S
C236 O234 1.273 . S
O237 Mg224 2.010 . S
O237 C229 1.249 . S
Mg238 O239 2.028 . S
Mg238 O245 1.986 . S
Mg238 O247 2.114 . S
Mg238 O248 2.251 . S
Mg238 O251 2.010 . S
O239 Mg238 2.028 . S
O239 C242 1.250 . S
O240 Mg241 2.028 . S
O240 C242 1.248 . S
Mg241 O240 2.028 . S
Mg241 O246 2.032 . S
Mg241 O248 2.079 . S
C242 O239 1.250 . S
C242 O240 1.248 . S
C243 O244 1.264 . S
C243 O251 1.249 . S
O244 C243 1.264 . S
O245 Mg238 1.986 . S
O245 C249 1.246 . S
O246 Mg241 2.032 . S
O246 C249 1.259 . S
O247 Mg238 2.114 . S
O247 C250 1.252 . S
O248 Mg238 2.251 . S
O248 Mg241 2.079 . S
O248 C250 1.273 . S
C249 O245 1.246 . S
C249 O246 1.259 . S
C250 O247 1.252 . S
C250 O248 1.273 . S
O251 Mg238 2.010 . S
O251 C243 1.249 . S
Mg252 O253 2.028 . S
Mg252 O259 1.986 . S
Mg252 O261 2.114 . S
Mg252 O262 2.251 . S
Mg252 O265 2.010 . S
O253 Mg252 2.028 . S
O253 C256 1.250 . S
O254 Mg255 2.028 . S
O254 C256 1.248 . S
Mg255 O254 2.028 . S
Mg255 O260 2.032 . S
Mg255 O262 2.079 . S
C256 O253 1.250 . S
C256 O254 1.248 . S
C257 O258 1.264 . S
C257 O265 1.249 . S
O258 C257 1.264 . S
O259 Mg252 1.986 . S
O259 C263 1.246 . S
O260 Mg255 2.032 . S
O260 C263 1.259 . S
O261 Mg252 2.114 . S
O261 C264 1.252 . S
O262 Mg252 2.251 . S
O262 Mg255 2.079 . S
O262 C264 1.273 . S
C263 O259 1.246 . S
C263 O260 1.259 . S
C264 O261 1.252 . S
C264 O262 1.273 . S
O265 Mg252 2.010 . S
O265 C257 1.249 . S
Mg266 O267 2.028 . S
Mg266 O273 1.986 . S
Mg266 O275 2.114 1_655 S
Mg266 O276 2.251 1_655 S
Mg266 O279 2.010 . S
O267 Mg266 2.028 . S
O267 C270 1.250 . S
O268 Mg269 2.028 1_655 S
O268 C270 1.248 . S
Mg269 O268 2.028 1_455 S
Mg269 O274 2.032 . S
Mg269 O276 2.079 . S
C270 O267 1.250 . S
C270 O268 1.248 . S
C271 O272 1.264 . S
C271 O279 1.249 . S
O272 C271 1.264 . S
O273 Mg266 1.986 . S
O273 C277 1.246 . S
O274 Mg269 2.032 . S
O274 C277 1.259 1_455 S
O275 Mg266 2.114 1_455 S
O275 C278 1.252 . S
O276 Mg266 2.251 1_455 S
O276 Mg269 2.079 . S
O276 C278 1.273 . S
C277 O273 1.246 . S
C277 O274 1.259 1_655 S
C278 O275 1.252 . S
C278 O276 1.273 . S
O279 Mg266 2.010 . S
O279 C271 1.249 . S
Mg280 O281 2.028 . S
Mg280 O287 1.986 . S
Mg280 O289 2.114 . S
Mg280 O290 2.251 . S
Mg280 O293 2.010 . S
O281 Mg280 2.028 . S
O281 C284 1.250 . S
O282 Mg283 2.028 . S
O282 C284 1.248 . S
Mg283 O282 2.028 . S
Mg283 O288 2.032 . S
Mg283 O290 2.079 . S
C284 O281 1.250 . S
C284 O282 1.248 . S
C285 O286 1.264 . S
C285 O293 1.249 . S
O286 C285 1.264 . S
O287 Mg280 1.986 . S
O287 C291 1.246 . S
O288 Mg283 2.032 . S
O288 C291 1.259 . S
O289 Mg280 2.114 . S
O289 C292 1.252 . S
O290 Mg280 2.251 . S
O290 Mg283 2.079 . S
O290 C292 1.273 . S
C291 O287 1.246 . S
C291 O288 1.259 . S
C292 O289 1.252 . S
C292 O290 1.273 . S
O293 Mg280 2.010 . S
O293 C285 1.249 . S
Mg294 O295 2.028 . S
Mg294 O301 1.986 . S
Mg294 O303 2.114 1_655 S
Mg294 O304 2.251 1_655 S
Mg294 O307 2.010 . S
O295 Mg294 2.028 . S
O295 C298 1.250 . S
O296 Mg297 2.028 1_655 S
O296 C298 1.248 . S
Mg297 O296 2.028 1_455 S
Mg297 O302 2.032 . S
Mg297 O304 2.079 . S
C298 O295 1.250 . S
C298 O296 1.248 . S
C299 O300 1.264 . S
C299 O307 1.249 . S
O300 C299 1.264 . S
O301 Mg294 1.986 . S
O301 C305 1.246 . S
O302 Mg297 2.032 . S
O302 C305 1.259 1_455 S
O303 Mg294 2.114 1_455 S
O303 C306 1.252 . S
O304 Mg294 2.251 1_455 S
O304 Mg297 2.079 . S
O304 C306 1.273 . S
C305 O301 1.246 . S
C305 O302 1.259 1_655 S
C306 O303 1.252 . S
C306 O304 1.273 . S
O307 Mg294 2.010 . S
O307 C299 1.249 . S
Mg308 O309 2.028 . S
Mg308 O315 1.986 . S
Mg308 O317 2.114 . S
Mg308 O318 2.251 . S
Mg308 O321 2.010 . S
O309 Mg308 2.028 . S
O309 C312 1.250 . S
O310 Mg311 2.028 . S
O310 C312 1.248 . S
Mg311 O310 2.028 . S
Mg311 O316 2.032 . S
Mg311 O318 2.079 . S
C312 O309 1.250 . S
C312 O310 1.248 . S
C313 O314 1.264 . S
C313 O321 1.249 . S
O314 C313 1.264 . S
O315 Mg308 1.986 . S
O315 C319 1.246 . S
O316 Mg311 2.032 . S
O316 C319 1.259 . S
O317 Mg308 2.114 . S
O317 C320 1.252 . S
O318 Mg308 2.251 . S
O318 Mg311 2.079 . S
O318 C320 1.273 . S
C319 O315 1.246 . S
C319 O316 1.259 . S
C320 O317 1.252 . S
C320 O318 1.273 . S
O321 Mg308 2.010 . S
O321 C313 1.249 . S
Mg322 O323 2.028 . S
Mg322 O329 1.986 . S
Mg322 O331 2.114 . S
Mg322 O332 2.251 . S
Mg322 O335 2.010 . S
O323 Mg322 2.028 . S
O323 C326 1.250 . S
O324 Mg325 2.028 . S
O324 C326 1.248 . S
Mg325 O324 2.028 . S
Mg325 O330 2.032 . S
Mg325 O332 2.079 . S
C326 O323 1.250 . S
C326 O324 1.248 . S
C327 O328 1.264 . S
C327 O335 1.249 . S
O328 C327 1.264 . S
O329 Mg322 1.986 . S
O329 C333 1.246 . S
O330 Mg325 2.032 . S
O330 C333 1.259 . S
O331 Mg322 2.114 . S
O331 C334 1.252 . S
O332 Mg322 2.251 . S
O332 Mg325 2.079 . S
O332 C334 1.273 . S
C333 O329 1.246 . S
C333 O330 1.259 . S
C334 O331 1.252 . S
C334 O332 1.273 . S
O335 Mg322 2.010 . S
O335 C327 1.249 . S
Mg336 O337 2.028 . S
Mg336 O343 1.986 . S
Mg336 O345 2.114 . S
Mg336 O346 2.251 . S
Mg336 O349 2.010 . S
O337 Mg336 2.028 . S
O337 C340 1.250 . S
O338 Mg339 2.028 . S
O338 C340 1.248 . S
Mg339 O338 2.028 . S
Mg339 O344 2.032 . S
Mg339 O346 2.079 . S
C340 O337 1.250 . S
C340 O338 1.248 . S
C341 O342 1.264 . S
C341 O349 1.249 . S
O342 C341 1.264 . S
O343 Mg336 1.986 . S
O343 C347 1.246 . S
O344 Mg339 2.032 . S
O344 C347 1.259 . S
O345 Mg336 2.114 . S
O345 C348 1.252 . S
O346 Mg336 2.251 . S
O346 Mg339 2.079 . S
O346 C348 1.273 . S
C347 O343 1.246 . S
C347 O344 1.259 . S
C348 O345 1.252 . S
C348 O346 1.273 . S
O349 Mg336 2.010 . S
O349 C341 1.249 . S
Mg350 O351 2.028 . S
Mg350 O357 1.986 . S
Mg350 O359 2.114 . S
Mg350 O360 2.251 . S
Mg350 O363 2.010 . S
O351 Mg350 2.028 . S
O351 C354 1.250 . S
O352 Mg353 2.028 . S
O352 C354 1.248 . S
Mg353 O352 2.028 . S
Mg353 O358 2.032 . S
Mg353 O360 2.079 . S
C354 O351 1.250 . S
C354 O352 1.248 . S
C355 O356 1.264 . S
C355 O363 1.249 . S
O356 C355 1.264 . S
O357 Mg350 1.986 . S
O357 C361 1.246 . S
O358 Mg353 2.032 . S
O358 C361 1.259 . S
O359 Mg350 2.114 . S
O359 C362 1.252 . S
O360 Mg350 2.251 . S
O360 Mg353 2.079 . S
O360 C362 1.273 . S
C361 O357 1.246 . S
C361 O358 1.259 . S
C362 O359 1.252 . S
C362 O360 1.273 . S
O363 Mg350 2.010 . S
O363 C355 1.249 . S
Mg364 O365 2.028 . S
Mg364 O371 1.986 . S
Mg364 O373 2.114 . S
Mg364 O374 2.251 . S
Mg364 O377 2.010 . S
O365 Mg364 2.028 . S
O365 C368 1.250 . S
O366 Mg367 2.028 . S
O366 C368 1.248 . S
Mg367 O366 2.028 . S
Mg367 O372 2.032 . S
Mg367 O374 2.079 . S
C368 O365 1.250 . S
C368 O366 1.248 . S
C369 O370 1.264 . S
C369 O377 1.249 . S
O370 C369 1.264 . S
O371 Mg364 1.986 . S
O371 C375 1.246 . S
O372 Mg367 2.032 . S
O372 C375 1.259 . S
O373 Mg364 2.114 . S
O373 C376 1.252 . S
O374 Mg364 2.251 . S
O374 Mg367 2.079 . S
O374 C376 1.273 . S
C375 O371 1.246 . S
C375 O372 1.259 . S
C376 O373 1.252 . S
C376 O374 1.273 . S
O377 Mg364 2.010 . S
O377 C369 1.249 . S
Mg378 O379 2.028 . S
Mg378 O385 1.986 . S
Mg378 O387 2.114 1_455 S
Mg378 O388 2.251 1_455 S
Mg378 O391 2.010 . S
O379 Mg378 2.028 . S
O379 C382 1.250 . S
O380 Mg381 2.028 1_455 S
O380 C382 1.248 . S
Mg381 O380 2.028 1_655 S
Mg381 O386 2.032 . S
Mg381 O388 2.079 . S
C382 O379 1.250 . S
C382 O380 1.248 . S
C383 O384 1.264 . S
C383 O391 1.249 . S
O384 C383 1.264 . S
O385 Mg378 1.986 . S
O385 C389 1.246 . S
O386 Mg381 2.032 . S
O386 C389 1.259 1_655 S
O387 Mg378 2.114 1_655 S
O387 C390 1.252 . S
O388 Mg378 2.251 1_655 S
O388 Mg381 2.079 . S
O388 C390 1.273 . S
C389 O385 1.246 . S
C389 O386 1.259 1_455 S
C390 O387 1.252 . S
C390 O388 1.273 . S
O391 Mg378 2.010 . S
O391 C383 1.249 . S
Mg392 O393 2.028 . S
Mg392 O399 1.986 . S
Mg392 O401 2.114 . S
Mg392 O402 2.251 . S
Mg392 O405 2.010 . S
O393 Mg392 2.028 . S
O393 C396 1.250 . S
O394 Mg395 2.028 . S
O394 C396 1.248 . S
Mg395 O394 2.028 . S
Mg395 O400 2.032 . S
Mg395 O402 2.079 . S
C396 O393 1.250 . S
C396 O394 1.248 . S
C397 O398 1.264 . S
C397 O405 1.249 . S
O398 C397 1.264 . S
O399 Mg392 1.986 . S
O399 C403 1.246 . S
O400 Mg395 2.032 . S
O400 C403 1.259 . S
O401 Mg392 2.114 . S
O401 C404 1.252 . S
O402 Mg392 2.251 . S
O402 Mg395 2.079 . S
O402 C404 1.273 . S
C403 O399 1.246 . S
C403 O400 1.259 . S
C404 O401 1.252 . S
C404 O402 1.273 . S
O405 Mg392 2.010 . S
O405 C397 1.249 . S
Mg406 O407 2.028 . S
Mg406 O413 1.986 . S
Mg406 O415 2.114 1_455 S
Mg406 O416 2.251 1_455 S
Mg406 O419 2.010 . S
O407 Mg406 2.028 . S
O407 C410 1.250 . S
O408 Mg409 2.028 1_455 S
O408 C410 1.248 . S
Mg409 O408 2.028 1_655 S
Mg409 O414 2.032 . S
Mg409 O416 2.079 . S
C410 O407 1.250 . S
C410 O408 1.248 . S
C411 O412 1.264 . S
C411 O419 1.249 . S
O412 C411 1.264 . S
O413 Mg406 1.986 . S
O413 C417 1.246 . S
O414 Mg409 2.032 . S
O414 C417 1.259 1_655 S
O415 Mg406 2.114 1_655 S
O415 C418 1.252 . S
O416 Mg406 2.251 1_655 S
O416 Mg409 2.079 . S
O416 C418 1.273 . S
C417 O413 1.246 . S
C417 O414 1.259 1_455 S
C418 O415 1.252 . S
C418 O416 1.273 . S
O419 Mg406 2.010 . S
O419 C411 1.249 . S
Mg420 O421 2.028 . S
Mg420 O427 1.986 . S
Mg420 O429 2.114 . S
Mg420 O430 2.251 . S
Mg420 O433 2.010 . S
O421 Mg420 2.028 . S
O421 C424 1.250 . S
O422 Mg423 2.028 . S
O422 C424 1.248 . S
Mg423 O422 2.028 . S
Mg423 O428 2.032 . S
Mg423 O430 2.079 . S
C424 O421 1.250 . S
C424 O422 1.248 . S
C425 O426 1.264 . S
C425 O433 1.249 . S
O426 C425 1.264 . S
O427 Mg420 1.986 . S
O427 C431 1.246 . S
O428 Mg423 2.032 . S
O428 C431 1.259 . S
O429 Mg420 2.114 . S
O429 C432 1.252 . S
O430 Mg420 2.251 . S
O430 Mg423 2.079 . S
O430 C432 1.273 . S
C431 O427 1.246 . S
C431 O428 1.259 . S
C432 O429 1.252 . S
C432 O430 1.273 . S
O433 Mg420 2.010 . S
O433 C425 1.249 . S
Mg434 O435 2.028 . S
Mg434 O441 1.986 . S
Mg434 O443 2.114 . S
Mg434 O444 2.251 . S
Mg434 O447 2.010 . S
O435 Mg434 2.028 . S
O435 C438 1.250 . S
O436 Mg437 2.028 . S
O436 C438 1.248 . S
Mg437 O436 2.028 . S
Mg437 O442 2.032 . S
Mg437 O444 2.079 . S
C438 O435 1.250 . S
C438 O436 1.248 . S
C439 O440 1.264 . S
C439 O447 1.249 . S
O440 C439 1.264 . S
O441 Mg434 1.986 . S
O441 C445 1.246 . S
O442 Mg437 2.032 . S
O442 C445 1.259 . S
O443 Mg434 2.114 . S
O443 C446 1.252 . S
O444 Mg434 2.251 . S
O444 Mg437 2.079 . S
O444 C446 1.273 . S
C445 O441 1.246 . S
C445 O442 1.259 . S
C446 O443 1.252 . S
C446 O444 1.273 . S
O447 Mg434 2.010 . S
O447 C439 1.249 . S
C382 C12 1.787 . S
C26 C116 1.787 . S
C354 C40 1.787 . S
C54 C144 1.787 . S
C68 C410 1.787 . S
C82 C200 1.787 . S
C96 C438 1.787 . S
C110 C172 1.787 . S
C270 C124 1.787 . S
C4 C138 1.787 . S
C242 C152 1.787 . S
C166 C32 1.787 . S
C298 C180 1.787 . S
C88 C194 1.787 . S
C208 C326 1.787 . S
C60 C222 1.787 . S
C236 C158 1.787 . S
C250 C340 1.787 . S
C130 C264 1.787 . S
C368 C278 1.787 . S
C186 C292 1.787 . S
C424 C306 1.787 . S
C214 C320 1.787 . S
C334 C396 1.787 . S
C46 C348 1.787 . S
C362 C228 1.787 . S
C376 C18 1.787 . S
C390 C256 1.787 . S
C404 C74 1.787 . S
C418 C312 1.787 . S
C432 C102 1.787 . S
C446 C284 1.787 . S
C347 C11 1.777 . S
C25 C137 1.777 1_465 S
C375 C39 1.777 . S
C53 C165 1.777 1_544 S
C403 C67 1.777 . S
C81 C193 1.777 1_565 S
C431 C95 1.777 . S
C109 C221 1.777 1_446 S
C123 C235 1.777 . S
C151 C263 1.777 . S
C179 C291 1.777 . S
C207 C319 1.777 . S
C249 C361 1.777 1_554 S
C389 C277 1.777 1_455 S
C417 C305 1.777 1_454 S
C333 C445 1.777 . S
C5 C75 0.855 . S
C19 C89 0.855 . S
C33 C103 0.855 . S
C61 C47 0.855 . S
C117 C187 0.855 . S
C131 C201 0.855 . S
C145 C215 0.855 . S
C159 C173 0.855 . S
C229 C299 0.855 . S
C313 C243 0.855 . S
C257 C327 0.855 . S
C271 C285 0.855 . S
C411 C341 0.855 . S
C355 C425 0.855 . S
C439 C369 0.855 . S
C383 C397 0.855 . S
