# Generated by pormake.
# Topology fnz, (5)-cn, num edge types: 1
# Building blocks:
#     Node 0, Type 0, BuildingBlock: BEQFEK_clean_sbu_0, # of connection points: 5
#     Node 1, Type 0, BuildingBlock: BEQFEK_clean_sbu_0, # of connection points: 5
#     Node 2, Type 0, BuildingBlock: BEQFEK_clean_sbu_0, # of connection points: 5
#     Node 3, Type 0, BuildingBlock: BEQFEK_clean_sbu_0, # of connection points: 5
#     Node 4, Type 0, BuildingBlock: BEQFEK_clean_sbu_0, # of connection points: 5
#     Node 5, Type 0, BuildingBlock: BEQFEK_clean_sbu_0, # of connection points: 5
#     Node 6, Type 0, BuildingBlock: BEQFEK_clean_sbu_0, # of connection points: 5
#     Node 7, Type 0, BuildingBlock: BEQFEK_clean_sbu_0, # of connection points: 5
#     Node 8, Type 0, BuildingBlock: BEQFEK_clean_sbu_0, # of connection points: 5
#     Node 9, Type 0, BuildingBlock: BEQFEK_clean_sbu_0, # of connection points: 5
#     Node 10, Type 0, BuildingBlock: BEQFEK_clean_sbu_0, # of connection points: 5
#     Node 11, Type 0, BuildingBlock: BEQFEK_clean_sbu_0, # of connection points: 5
#     Edge 12, Type (0, 0), BuildingBlock: UVAHIK_clean_linker_0, # of connection points: 2
#     Edge 13, Type (0, 0), BuildingBlock: UVAHIK_clean_linker_0, # of connection points: 2
#     Edge 14, Type (0, 0), BuildingBlock: UVAHIK_clean_linker_0, # of connection points: 2
#     Edge 15, Type (0, 0), BuildingBlock: UVAHIK_clean_linker_0, # of connection points: 2
#     Edge 16, Type (0, 0), BuildingBlock: UVAHIK_clean_linker_0, # of connection points: 2
#     Edge 17, Type (0, 0), BuildingBlock: UVAHIK_clean_linker_0, # of connection points: 2
#     Edge 18, Type (0, 0), BuildingBlock: UVAHIK_clean_linker_0, # of connection points: 2
#     Edge 19, Type (0, 0), BuildingBlock: UVAHIK_clean_linker_0, # of connection points: 2
#     Edge 20, Type (0, 0), BuildingBlock: UVAHIK_clean_linker_0, # of connection points: 2
#     Edge 21, Type (0, 0), BuildingBlock: UVAHIK_clean_linker_0, # of connection points: 2
#     Edge 22, Type (0, 0), BuildingBlock: UVAHIK_clean_linker_0, # of connection points: 2
#     Edge 23, Type (0, 0), BuildingBlock: UVAHIK_clean_linker_0, # of connection points: 2
#     Edge 24, Type (0, 0), BuildingBlock: UVAHIK_clean_linker_0, # of connection points: 2
#     Edge 25, Type (0, 0), BuildingBlock: UVAHIK_clean_linker_0, # of connection points: 2
#     Edge 26, Type (0, 0), BuildingBlock: UVAHIK_clean_linker_0, # of connection points: 2
#     Edge 27, Type (0, 0), BuildingBlock: UVAHIK_clean_linker_0, # of connection points: 2
#     Edge 28, Type (0, 0), BuildingBlock: UVAHIK_clean_linker_0, # of connection points: 2
#     Edge 29, Type (0, 0), BuildingBlock: UVAHIK_clean_linker_0, # of connection points: 2
#     Edge 30, Type (0, 0), BuildingBlock: UVAHIK_clean_linker_0, # of connection points: 2
#     Edge 31, Type (0, 0), BuildingBlock: UVAHIK_clean_linker_0, # of connection points: 2
#     Edge 32, Type (0, 0), BuildingBlock: UVAHIK_clean_linker_0, # of connection points: 2
#     Edge 33, Type (0, 0), BuildingBlock: UVAHIK_clean_linker_0, # of connection points: 2
#     Edge 34, Type (0, 0), BuildingBlock: UVAHIK_clean_linker_0, # of connection points: 2
#     Edge 35, Type (0, 0), BuildingBlock: UVAHIK_clean_linker_0, # of connection points: 2
#     Edge 36, Type (0, 0), BuildingBlock: UVAHIK_clean_linker_0, # of connection points: 2
#     Edge 37, Type (0, 0), BuildingBlock: UVAHIK_clean_linker_0, # of connection points: 2
#     Edge 38, Type (0, 0), BuildingBlock: UVAHIK_clean_linker_0, # of connection points: 2
#     Edge 39, Type (0, 0), BuildingBlock: UVAHIK_clean_linker_0, # of connection points: 2
#     Edge 40, Type (0, 0), BuildingBlock: UVAHIK_clean_linker_0, # of connection points: 2
#     Edge 41, Type (0, 0), BuildingBlock: UVAHIK_clean_linker_0, # of connection points: 2
# Relax obj value: 0.275
# Max RMSD: 0.250
# Mean RMSD: 0.236
data_MOF--net-fnz--node1-BEQFEK_clean_sbu_0--edge1-UVAHIK_clean_linker_0
_symmetry_space_group_name_H-M    P1
_symmetry_Int_Tables_number       1
_symmetry_cell_setting            triclinic
loop_
_symmetry_equiv_pos_as_xyz
'x, y, z'
_cell_length_a     48.580149
_cell_length_b     48.608335
_cell_length_c     44.099856
_cell_angle_alpha  90.082902
_cell_angle_beta   89.938609
_cell_angle_gamma 119.95645
loop_
_atom_site_label
_atom_site_type_symbol
_atom_site_fract_x
_atom_site_fract_y
_atom_site_fract_z
_atom_type_partial_charge
Co0 Co 0.47481 0.17375 0.06294 0.0
Co1 Co 0.46959 0.16974 0.98907 0.0
C2 C 0.51801 0.16061 0.0229 0.0
O3 O 0.50866 0.16519 0.04859 0.0
O4 O 0.5065 0.16381 0.99791 0.0
C5 C 0.49957 0.19108 0.12742 0.0
O6 O 0.52652 0.19407 0.11774 0.0
C7 C 0.47759 0.18506 0.92061 0.0
C8 C 0.42818 0.15275 0.90641 0.0
C9 C 0.45757 0.17508 0.89505 0.0
N10 N 0.46043 0.16939 0.94548 0.0
N11 N 0.43097 0.15013 0.93642 0.0
C12 C 0.51244 0.20824 0.92144 0.0
H13 H 0.52309 0.20528 0.94257 0.0
H14 H 0.51627 0.23273 0.92098 0.0
H15 H 0.5243 0.20502 0.90132 0.0
C16 C 0.46377 0.2259 0.05064 0.0
N17 N 0.4731 0.20588 0.04008 0.0
N18 N 0.47103 0.20467 1.01023 0.0
C19 C 0.46044 0.22416 1.00103 0.0
C20 C 0.45462 0.23763 0.02631 0.0
C21 C 0.45655 0.22737 0.08348 0.0
H22 H 0.43859 0.20329 0.09132 0.0
H23 H 0.47853 0.23536 0.09694 0.0
H24 H 0.44747 0.24381 0.08791 0.0
O25 O 0.43514 0.1331 0.05588 0.0
O26 O 0.43331 0.13012 1.00546 0.0
H27 H 0.42993 0.2025 0.96289 0.0
H28 H 0.44452 0.24462 0.9665 0.0
C29 C 0.45075 0.22567 0.96916 0.0
H30 H 0.47057 0.23056 0.95358 0.0
H31 H 0.41249 0.13519 0.95087 0.0
O32 O 0.47681 0.1829 0.1086 0.0
C33 C 0.42215 0.11825 0.03144 0.0
Co34 Co 0.28569 0.43095 0.08368 0.0
Co35 Co 0.27557 0.4081 0.01639 0.0
C36 C 0.34082 0.45139 0.04251 0.0
O37 O 0.33011 0.45319 0.06837 0.0
O38 O 0.32209 0.43568 0.02098 0.0
C39 C 0.30194 0.47252 0.13588 0.0
O40 O 0.32418 0.49432 0.11863 0.0
C41 C 0.27161 0.42103 0.95319 0.0
C42 C 0.24499 0.37302 0.9332 0.0
C43 C 0.25736 0.40497 0.92673 0.0
N44 N 0.26759 0.39961 0.97443 0.0
N45 N 0.25243 0.37098 0.96219 0.0
C46 C 0.28463 0.45559 0.95953 0.0
H47 H 0.2908 0.46097 0.98386 0.0
H48 H 0.26697 0.46266 0.95298 0.0
H49 H 0.30627 0.46971 0.94563 0.0
C50 C 0.23161 0.44015 0.06838 0.0
N51 N 0.25589 0.43592 0.0597 0.0
N52 N 0.25068 0.42481 0.03186 0.0
C53 C 0.22246 0.42054 0.02227 0.0
C54 C 0.20943 0.43033 0.04504 0.0
C55 C 0.22802 0.45001 0.09962 0.0
H56 H 0.25034 0.47163 0.10628 0.0
H57 H 0.20823 0.45518 0.10078 0.0
H58 H 0.22351 0.43082 0.1159 0.0
O59 O 0.27303 0.38527 0.08578 0.0
O60 O 0.26383 0.36858 0.03789 0.0
H61 H 0.20988 0.38059 0.99309 0.0
H62 H 0.179 0.39021 0.99717 0.0
C63 C 0.20506 0.40048 0.99533 0.0
H64 H 0.21334 0.41521 0.97453 0.0
H65 H 0.24537 0.34998 0.97415 0.0
O66 O 0.28438 0.44474 0.1254 0.0
C67 C 0.26479 0.36333 0.06604 0.0
Co68 Co 0.81617 0.29784 0.05165 0.0
Co69 Co 0.82286 0.29666 0.97823 0.0
C70 C 0.83096 0.35414 1.0109 0.0
O71 O 0.82579 0.34029 0.03661 0.0
O72 O 0.82829 0.33934 0.9861 0.0
C73 C 0.82226 0.30498 0.11877 0.0
O74 O 0.85231 0.32502 0.11292 0.0
C75 C 0.80743 0.29026 0.91048 0.0
C76 C 0.83524 0.26819 0.89533 0.0
C77 C 0.81423 0.2775 0.88495 0.0
N78 N 0.82344 0.28809 0.93468 0.0
N79 N 0.84036 0.27534 0.92504 0.0
C80 C 0.78401 0.30159 0.91242 0.0
H81 H 0.77739 0.30228 0.9364 0.0
H82 H 0.76253 0.28593 0.89885 0.0
H83 H 0.79489 0.32589 0.90283 0.0
C84 C 0.76467 0.23463 0.03831 0.0
N85 N 0.78479 0.26406 0.02814 0.0
N86 N 0.78707 0.2632 0.99838 0.0
C87 C 0.76821 0.23304 0.98896 0.0
C88 C 0.75408 0.21379 1.01398 0.0
C89 C 0.76145 0.22549 0.07108 0.0
H90 H 0.7851 0.23163 0.0803 0.0
H91 H 0.75249 0.23906 0.0839 0.0
H92 H 0.74473 0.19973 0.07433 0.0
O93 O 0.85698 0.29825 0.04669 0.0
O94 O 0.86189 0.29968 0.99629 0.0
H95 H 0.79325 0.22406 0.95402 0.0
H96 H 0.75118 0.19604 0.95487 0.0
C97 C 0.76948 0.2214 0.95785 0.0
H98 H 0.76535 0.23561 0.94077 0.0
H99 H 0.85468 0.27045 0.93906 0.0
O100 O 0.80326 0.29182 0.09656 0.0
C101 C 0.87274 0.30017 0.0228 0.0
Co102 Co 0.5692 0.85234 0.07627 0.0
Co103 Co 0.56743 0.85065 1.00565 0.0
C104 C 0.53557 0.87933 0.04029 0.0
O105 O 0.54392 0.87278 0.06532 0.0
O106 O 0.5417 0.87047 0.01534 0.0
C107 C 0.53416 0.82227 0.12728 0.0
O108 O 0.51266 0.80897 0.10586 0.0
C109 C 0.53834 0.82815 0.94643 0.0
C110 C 0.58 0.84778 0.91597 0.0
C111 C 0.54716 0.82942 0.91639 0.0
N112 N 0.5648 0.84455 0.96309 0.0
N113 N 0.58963 0.85649 0.94476 0.0
C114 C 0.50532 0.81249 0.95908 0.0
H115 H 0.505 0.82269 0.98147 0.0
H116 H 0.49639 0.78677 0.9622 0.0
H117 H 0.48912 0.81513 0.94313 0.0
C118 C 0.56431 0.79064 0.06585 0.0
N119 N 0.5594 0.81407 0.0559 0.0
N120 N 0.55665 0.81241 0.02622 0.0
C121 C 0.55882 0.78725 0.0164 0.0
C122 C 0.56425 0.77285 0.04111 0.0
C123 C 0.57656 0.79031 0.09698 0.0
H124 H 0.592 0.81495 0.10516 0.0
H125 H 0.55614 0.77807 0.11273 0.0
H126 H 0.59036 0.77778 0.09748 0.0
O127 O 0.61361 0.88409 0.06704 0.0
O128 O 0.61173 0.88258 0.0165 0.0
H129 H 0.58251 0.79941 0.97341 0.0
H130 H 0.56027 0.75714 0.98082 0.0
C131 C 0.56055 0.77996 0.98367 0.0
H132 H 0.53985 0.77807 0.97144 0.0
H133 H 0.61312 0.87037 0.95193 0.0
O134 O 0.56216 0.84347 0.12004 0.0
C135 C 0.62691 0.89386 0.04125 0.0
Co136 Co 0.70021 0.51499 0.06434 0.0
Co137 Co 0.703 0.52343 0.99043 0.0
C138 C 0.6439 0.47514 0.02381 0.0
O139 O 0.6576 0.48217 0.04971 0.0
O140 O 0.65909 0.488 0.99932 0.0
C141 C 0.69244 0.48951 0.12883 0.0
O142 O 0.66847 0.46277 0.11887 0.0
C143 C 0.7104 0.51369 0.92226 0.0
C144 C 0.72766 0.56261 0.90654 0.0
C145 C 0.72067 0.53288 0.8961 0.0
N146 N 0.71178 0.53162 0.94651 0.0
N147 N 0.72204 0.56077 0.93653 0.0
C148 C 0.69875 0.47891 0.92428 0.0
H149 H 0.68542 0.46908 0.94573 0.0
H150 H 0.71939 0.47501 0.92403 0.0
H151 H 0.68338 0.46633 0.90456 0.0
C152 C 0.76296 0.52477 0.05191 0.0
N153 N 0.73387 0.5163 0.04119 0.0
N154 N 0.73534 0.51975 1.01145 0.0
C155 C 0.76557 0.53055 1.00255 0.0
C156 C 0.78434 0.53511 0.02792 0.0
C157 C 0.77111 0.53024 0.08497 0.0
H158 H 0.76646 0.54902 0.09352 0.0
H159 H 0.7558 0.50802 0.09762 0.0
H160 H 0.7962 0.53745 0.08957 0.0
O161 O 0.69999 0.55509 0.0576 0.0
O162 O 0.70234 0.56122 1.00735 0.0
H163 H 0.77448 0.56273 0.96588 0.0
H164 H 0.80296 0.54921 0.96883 0.0
C165 C 0.77751 0.54211 0.97119 0.0
H166 H 0.76353 0.52294 0.95469 0.0
H167 H 0.72553 0.57969 0.95034 0.0
O168 O 0.70713 0.51246 0.11021 0.0
C169 C 0.70048 0.5705 0.03401 0.0
Co170 Co 0.14609 0.70413 0.08 0.0
Co171 Co 0.13353 0.71829 1.01402 0.0
C172 C 0.11131 0.65163 0.03642 0.0
O173 O 0.12384 0.66069 0.06253 0.0
O174 O 0.11441 0.67165 0.01621 0.0
C175 C 0.16976 0.68479 0.13182 0.0
O176 O 0.1678 0.66172 0.11472 0.0
C177 C 0.15072 0.72608 0.95061 0.0
C178 C 0.12943 0.75394 0.93348 0.0
C179 C 0.14912 0.7421 0.92539 0.0
N180 N 0.13317 0.7287 0.97272 0.0
N181 N 0.11977 0.74462 0.96215 0.0
C182 C 0.17212 0.71253 0.95518 0.0
H183 H 0.17179 0.70557 0.97919 0.0
H184 H 0.19675 0.73014 0.94834 0.0
H185 H 0.16402 0.69126 0.9406 0.0
C186 C 0.20973 0.7581 0.06595 0.0
N187 N 0.18092 0.73483 0.05681 0.0
N188 N 0.17509 0.74178 0.02966 0.0
C189 C 0.19941 0.77015 0.02104 0.0
C190 C 0.2224 0.7814 0.04366 0.0
C191 C 0.22317 0.75982 0.09686 0.0
H192 H 0.22159 0.73681 0.10228 0.0
H193 H 0.2484 0.77894 0.09824 0.0
H194 H 0.20906 0.76434 0.11389 0.0
O195 O 0.11322 0.71685 0.084 0.0
O196 O 0.10584 0.72906 0.03725 0.0
H197 H 0.17252 0.78488 0.9937 0.0
H198 H 0.213 0.81521 0.99893 0.0
C199 C 0.19714 0.78936 0.99556 0.0
H200 H 0.20381 0.78246 0.974 0.0
H201 H 0.10575 0.75089 0.97511 0.0
O202 O 0.16106 0.70356 0.12131 0.0
C203 C 0.09957 0.72635 0.06549 0.0
Co204 Co 0.82155 0.49425 0.52641 0.0
Co205 Co 0.83497 0.56396 0.52424 0.0
C206 C 0.80352 0.52257 0.57936 0.0
O207 O 0.80418 0.49913 0.5669 0.0
O208 O 0.81432 0.54891 0.56526 0.0
C209 C 0.82527 0.43557 0.51834 0.0
O210 O 0.81131 0.40475 0.51421 0.0
C211 C 0.82602 0.61921 0.52744 0.0
C212 C 0.8643 0.65345 0.49742 0.0
C213 C 0.83939 0.64961 0.51561 0.0
N214 N 0.84246 0.60574 0.51699 0.0
N215 N 0.8655 0.62641 0.49928 0.0
C216 C 0.79632 0.60208 0.54591 0.0
H217 H 0.78444 0.57616 0.54151 0.0
H218 H 0.77968 0.61084 0.54068 0.0
H219 H 0.80261 0.60635 0.57031 0.0
C220 C 0.79414 0.49364 0.46463 0.0
N221 N 0.80644 0.50746 0.49175 0.0
N222 N 0.81088 0.53645 0.49158 0.0
C223 C 0.80104 0.54177 0.46465 0.0
C224 C 0.79027 0.51494 0.44626 0.0
C225 C 0.78981 0.46208 0.4554 0.0
H226 H 0.81137 0.46095 0.46145 0.0
H227 H 0.76951 0.44309 0.46814 0.0
H228 H 0.78539 0.45776 0.43073 0.0
O229 O 0.86874 0.519 0.52819 0.0
O230 O 0.87788 0.56842 0.52443 0.0
H231 H 0.82676 0.59022 0.45044 0.0
H232 H 0.78618 0.5689 0.4372 0.0
C233 C 0.80208 0.57217 0.45658 0.0
H234 H 0.79463 0.58101 0.47631 0.0
H235 H 0.88164 0.62179 0.48796 0.0
O236 O 0.80821 0.44855 0.52121 0.0
C237 C 0.88785 0.54876 0.52654 0.0
Co238 Co 0.28441 0.81516 0.47989 0.0
Co239 Co 0.28927 0.82521 0.54979 0.0
C240 C 0.34733 0.85453 0.51308 0.0
O241 O 0.33041 0.84375 0.48927 0.0
O242 O 0.33482 0.84715 0.5393 0.0
C243 C 0.28988 0.78169 0.42863 0.0
O244 O 0.30057 0.76921 0.44854 0.0
C245 C 0.29809 0.82092 0.6157 0.0
C246 C 0.26962 0.84133 0.63361 0.0
C247 C 0.28871 0.82911 0.64226 0.0
N248 N 0.2851 0.82811 0.59228 0.0
N249 N 0.26821 0.84037 0.60322 0.0
C250 C 0.32017 0.80801 0.61255 0.0
H251 H 0.32339 0.80404 0.58832 0.0
H252 H 0.31062 0.78532 0.62515 0.0
H253 H 0.34348 0.82497 0.62274 0.0
C254 C 0.23643 0.75069 0.49947 0.0
N255 N 0.26211 0.77915 0.50567 0.0
N256 N 0.26531 0.78287 0.53525 0.0
C257 C 0.2423 0.7565 0.54881 0.0
C258 C 0.22292 0.73523 0.52662 0.0
C259 C 0.22114 0.74185 0.46879 0.0
H260 H 0.23127 0.72937 0.4559 0.0
H261 H 0.19506 0.72593 0.47042 0.0
H262 H 0.22587 0.76345 0.4561 0.0
O263 O 0.26421 0.84149 0.48286 0.0
O264 O 0.27108 0.85027 0.53235 0.0
H265 H 0.22872 0.76993 0.58996 0.0
H266 H 0.21859 0.72868 0.58867 0.0
C267 C 0.23667 0.75327 0.58231 0.0
H268 H 0.25913 0.75944 0.59406 0.0
H269 H 0.25563 0.84807 0.58993 0.0
O270 O 0.28184 0.80161 0.43737 0.0
C271 C 0.26168 0.85467 0.50682 0.0
Co272 Co 0.48125 0.30443 0.5255 0.0
Co273 Co 0.41348 0.24591 0.52276 0.0
C274 C 0.45643 0.25792 0.57752 0.0
O275 O 0.47908 0.28276 0.56526 0.0
O276 O 0.43007 0.24143 0.56354 0.0
C277 C 0.52975 0.36387 0.54062 0.0
O278 O 0.52174 0.35359 0.56856 0.0
C279 C 0.3614 0.17949 0.52164 0.0
C280 C 0.32509 0.18411 0.49547 0.0
C281 C 0.331 0.16216 0.50957 0.0
N282 N 0.3728 0.21023 0.51493 0.0
N283 N 0.35086 0.21288 0.49963 0.0
C284 C 0.38072 0.16706 0.53641 0.0
H285 H 0.40646 0.18438 0.534 0.0
H286 H 0.37528 0.14397 0.5263 0.0
H287 H 0.37487 0.16344 0.56093 0.0
C288 C 0.48509 0.27989 0.46376 0.0
N289 N 0.47039 0.27714 0.4906 0.0
N290 N 0.44184 0.25194 0.48973 0.0
C291 C 0.43762 0.23762 0.46244 0.0
C292 C 0.46479 0.25488 0.44473 0.0
C293 C 0.51642 0.30801 0.45555 0.0
H294 H 0.51579 0.3301 0.46037 0.0
H295 H 0.53525 0.30825 0.46998 0.0
H296 H 0.5224 0.3078 0.43132 0.0
O297 O 0.45319 0.32315 0.52786 0.0
O298 O 0.40488 0.28179 0.52395 0.0
H299 H 0.38868 0.21349 0.44955 0.0
H300 H 0.41147 0.1973 0.43255 0.0
C301 C 0.40795 0.20795 0.45341 0.0
H302 H 0.40055 0.19031 0.47194 0.0
H303 H 0.35382 0.23427 0.49128 0.0
O304 O 0.5224 0.34346 0.51962 0.0
C305 C 0.42333 0.31157 0.52633 0.0
Co306 Co 0.17467 0.47253 0.48559 0.0
Co307 Co 0.17118 0.47003 0.55601 0.0
C308 C 0.14133 0.50071 0.52176 0.0
O309 O 0.1499 0.494 0.4968 0.0
O310 O 0.14946 0.49422 0.54696 0.0
C311 C 0.20578 0.5073 0.43167 0.0
O312 O 0.22066 0.53147 0.45027 0.0
C313 C 0.18149 0.48645 0.62137 0.0
C314 C 0.15949 0.43823 0.64102 0.0
C315 C 0.17406 0.47005 0.64854 0.0
N316 N 0.17151 0.46509 0.59867 0.0
N317 N 0.15839 0.43638 0.61066 0.0
C318 C 0.19628 0.5215 0.6171 0.0
H319 H 0.19898 0.52759 0.59261 0.0
H320 H 0.21986 0.53381 0.62831 0.0
H321 H 0.18119 0.52984 0.62811 0.0
C322 C 0.23803 0.48214 0.50001 0.0
N323 N 0.21245 0.48433 0.50841 0.0
N324 N 0.21187 0.48596 0.53816 0.0
C325 C 0.23773 0.48616 0.54955 0.0
C326 C 0.25503 0.48315 0.52583 0.0
C327 C 0.24151 0.47147 0.46902 0.0
H328 H 0.21781 0.45593 0.45887 0.0
H329 H 0.25475 0.4926 0.45431 0.0
H330 H 0.25455 0.45817 0.46961 0.0
O331 O 0.14641 0.42648 0.49067 0.0
O332 O 0.14436 0.42613 0.54092 0.0
H333 H 0.2265 0.46163 0.59202 0.0
H334 H 0.26823 0.49031 0.5871 0.0
C335 C 0.24366 0.48533 0.58274 0.0
H336 H 0.24016 0.50341 0.59463 0.0
H337 H 0.14853 0.41539 0.59814 0.0
O338 O 0.18513 0.48048 0.44213 0.0
C339 C 0.13661 0.41158 0.51562 0.0
Co340 Co 0.68513 0.18132 0.51466 0.0
Co341 Co 0.74763 0.17866 0.51299 0.0
C342 C 0.73105 0.20553 0.56775 0.0
O343 O 0.7052 0.20074 0.55531 0.0
O344 O 0.74987 0.1986 0.55376 0.0
C345 C 0.62347 0.16394 0.52937 0.0
O346 O 0.63435 0.16673 0.55712 0.0
C347 C 0.81377 0.19197 0.51707 0.0
C348 C 0.81216 0.15604 0.4851 0.0
C349 C 0.83191 0.17998 0.50475 0.0
N350 N 0.78444 0.17564 0.50533 0.0
N351 N 0.78355 0.154 0.48652 0.0
C352 C 0.82436 0.21946 0.5383 0.0
H353 H 0.81041 0.23153 0.53437 0.0
H354 H 0.85007 0.23665 0.53542 0.0
H355 H 0.82022 0.21055 0.56196 0.0
C356 C 0.71011 0.21208 0.45357 0.0
N357 N 0.7131 0.20028 0.48037 0.0
N358 N 0.74001 0.19993 0.48026 0.0
C359 C 0.75521 0.21197 0.45369 0.0
C360 C 0.73675 0.21999 0.43557 0.0
C361 C 0.68167 0.21457 0.44502 0.0
H362 H 0.67363 0.22288 0.46478 0.0
H363 H 0.68699 0.23105 0.42565 0.0
H364 H 0.66207 0.19069 0.43856 0.0
O365 O 0.67017 0.13541 0.51619 0.0
O366 O 0.71446 0.13353 0.51367 0.0
H367 H 0.7794 0.18751 0.44009 0.0
H368 H 0.79581 0.22629 0.42381 0.0
C369 C 0.78504 0.21222 0.44458 0.0
H370 H 0.80254 0.22194 0.46333 0.0
H371 H 0.76339 0.13795 0.47442 0.0
O372 O 0.64335 0.17797 0.50812 0.0
C373 C 0.68441 0.1196 0.51511 0.0
Co374 Co 0.55026 0.71301 0.48074 0.0
Co375 Co 0.54633 0.70913 0.55118 0.0
C376 C 0.51764 0.65051 0.51563 0.0
O377 O 0.52765 0.66722 0.49166 0.0
O378 O 0.52125 0.66346 0.54151 0.0
C379 C 0.51621 0.70998 0.42829 0.0
O380 O 0.49365 0.7026 0.44844 0.0
C381 C 0.5242 0.70441 0.61415 0.0
C382 C 0.56856 0.74077 0.63591 0.0
C383 C 0.53648 0.7206 0.64113 0.0
N384 N 0.54791 0.71521 0.59374 0.0
N385 N 0.5745 0.73623 0.60716 0.0
C386 C 0.49005 0.68203 0.6068 0.0
H387 H 0.48643 0.67939 0.58189 0.0
H388 H 0.47472 0.69053 0.61695 0.0
H389 H 0.48297 0.65845 0.61675 0.0
C390 C 0.53825 0.76552 0.49337 0.0
N391 N 0.5371 0.73838 0.50207 0.0
N392 N 0.53227 0.73477 0.53148 0.0
C393 C 0.52856 0.75876 0.54216 0.0
C394 C 0.53286 0.77948 0.51852 0.0
C395 C 0.55137 0.78118 0.4634 0.0
H396 H 0.56664 0.77256 0.45344 0.0
H397 H 0.53139 0.77545 0.44769 0.0
H398 H 0.56566 0.80737 0.46575 0.0
O399 O 0.59549 0.72939 0.48896 0.0
O400 O 0.59124 0.72437 0.53907 0.0
H401 H 0.54586 0.77067 0.58768 0.0
H402 H 0.51681 0.78193 0.57768 0.0
C403 C 0.52369 0.76347 0.57485 0.0
H404 H 0.50449 0.74099 0.58431 0.0
H405 H 0.59635 0.74895 0.59616 0.0
O406 O 0.5433 0.71518 0.43703 0.0
C407 C 0.60794 0.73186 0.51494 0.0
C408 C 0.53498 0.12595 0.99631 0.0
C409 C 0.53501 0.14229 0.02272 0.0
C410 C 0.53932 0.09962 0.9982 0.0
C411 C 0.52303 0.0372 0.05357 0.0
H412 H 0.55935 0.00696 0.99287 0.0
C413 C 0.52804 0.9211 0.0661 0.0
C414 C 0.52595 0.90392 0.03965 0.0
C415 C 0.52805 0.94984 0.06431 0.0
C416 C 0.54867 0.01488 1.0098 0.0
H417 H 0.54445 0.14659 0.07111 0.0
H418 H 0.55268 0.10121 0.07419 0.0
H419 H 0.56782 0.06074 0.98915 0.0
H420 H 0.51898 0.90204 0.99091 0.0
H421 H 0.51819 0.95166 0.98797 0.0
H422 H 0.50356 0.99131 0.07403 0.0
C423 C 0.54806 0.108 0.05222 0.0
C424 C 0.55375 0.04581 1.00777 0.0
C425 C 0.54372 0.1343 0.05036 0.0
C426 C 0.52093 0.91473 1.01174 0.0
C427 C 0.5209 0.94344 1.00998 0.0
C428 C 0.51791 0.00629 0.05557 0.0
C429 C 0.54403 0.08927 0.02647 0.0
C430 C 0.54094 0.05734 0.0296 0.0
C431 C 0.52578 0.96199 0.03607 0.0
C432 C 0.53053 0.99466 0.03364 0.0
H433 H 0.52857 0.13147 0.97457 0.0
H434 H 0.5363 0.08589 0.97786 0.0
H435 H 0.51216 0.04502 0.0704 0.0
H436 H 0.53196 0.91358 0.088 0.0
H437 H 0.53181 0.96344 0.0849 0.0
C438 C 0.59164 0.45158 0.05082 0.0
C439 C 0.60859 0.45911 0.02329 0.0
C440 C 0.56109 0.44757 0.05197 0.0
C441 C 0.49211 0.43708 1.00742 0.0
H442 H 0.48887 0.49354 0.06778 0.0
C443 C 0.38746 0.46118 1.01037 0.0
C444 C 0.37497 0.46143 0.03911 0.0
C445 C 0.41682 0.46257 1.00763 0.0
C446 C 0.48908 0.47733 0.05104 0.0
H447 H 0.60475 0.464 0.97478 0.0
H448 H 0.5512 0.45633 0.97682 0.0
H449 H 0.53513 0.48671 0.06506 0.0
H450 H 0.38469 0.46541 0.08739 0.0
H451 H 0.43542 0.46734 0.08271 0.0
H452 H 0.44583 0.42719 0.99369 0.0
C453 C 0.56189 0.45421 0.99758 0.0
C454 C 0.51564 0.47338 0.04952 0.0
C455 C 0.59261 0.45849 0.99643 0.0
C456 C 0.39362 0.46539 0.06488 0.0
C457 C 0.42283 0.46643 0.06216 0.0
C458 C 0.46531 0.44073 1.00915 0.0
C459 C 0.54658 0.45049 0.02558 0.0
C460 C 0.51746 0.45319 0.02774 0.0
C461 C 0.43434 0.46395 0.03355 0.0
C462 C 0.46343 0.46096 0.03099 0.0
H463 H 0.6029 0.45145 0.07197 0.0
H464 H 0.5495 0.44391 0.07379 0.0
H465 H 0.49282 0.42132 0.99043 0.0
H466 H 0.37382 0.45834 0.99001 0.0
H467 H 0.4253 0.46156 0.98517 0.0
C468 C 0.07433 0.60726 1.00231 0.0
C469 C 0.08681 0.61794 0.03151 0.0
C470 C 0.04569 0.5788 0.99843 0.0
C471 C 0.97152 0.52998 0.03923 0.0
H472 H 0.95411 0.46709 0.97693 0.0
C473 C 0.85942 0.40617 0.03814 0.0
C474 C 0.84915 0.38943 1.01058 0.0
C475 C 0.88557 0.43692 0.03889 0.0
C476 C 0.95829 0.48477 0.99403 0.0
H477 H 0.0801 0.60577 0.07932 0.0
H478 H 0.03018 0.55611 0.07246 0.0
H479 H 0.00759 0.5124 0.98216 0.0
H480 H 0.85543 0.39387 0.96175 0.0
H481 H 0.90021 0.4479 0.963 0.0
H482 H 0.9223 0.50271 0.05099 0.0
C483 C 0.04243 0.57002 0.05264 0.0
C484 C 0.98909 0.51057 0.99718 0.0
C485 C 0.07127 0.59828 0.0565 0.0
C486 C 0.86294 0.40578 0.98346 0.0
C487 C 0.88899 0.43667 0.9842 0.0
C488 C 0.94065 0.50437 0.03589 0.0
C489 C 0.02879 0.56061 0.02369 0.0
C490 C 0.99612 0.5332 0.0201 0.0
C491 C 0.9018 0.45186 1.01205 0.0
C492 C 0.93368 0.48116 1.01349 0.0
H493 H 0.08571 0.62181 0.98257 0.0
H494 H 0.03581 0.57209 0.97584 0.0
H495 H 0.9761 0.54746 0.05668 0.0
H496 H 0.84925 0.39455 0.05952 0.0
H497 H 0.89452 0.44778 0.0608 0.0
C498 C 0.10472 0.51477 0.54925 0.0
C499 C 0.11672 0.51046 0.52168 0.0
C500 C 0.07654 0.51598 0.54992 0.0
C501 C 0.01535 0.52107 0.50316 0.0
H502 H 0.95723 0.46012 0.56152 0.0
C503 C 0.8783 0.46272 0.49318 0.0
C504 C 0.86017 0.45397 0.51986 0.0
C505 C 0.91134 0.47581 0.49448 0.0
C506 C 0.97312 0.47775 0.54546 0.0
H507 H 0.1099 0.50716 0.4729 0.0
H508 H 0.06081 0.5093 0.47416 0.0
H509 H 0.01268 0.47448 0.56205 0.0
H510 H 0.86185 0.45216 0.56873 0.0
H511 H 0.91948 0.47533 0.57128 0.0
H512 H 0.97549 0.52403 0.48639 0.0
C513 C 0.07317 0.51165 0.49527 0.0
C514 C 0.00509 0.486 0.54577 0.0
C515 C 0.10137 0.51036 0.49457 0.0
C516 C 0.8755 0.45905 0.54789 0.0
C517 C 0.90846 0.4719 0.54923 0.0
C518 C 0.98328 0.51296 0.50297 0.0
C519 C 0.05968 0.51302 0.52307 0.0
C520 C 0.02656 0.50739 0.52438 0.0
C521 C 0.92685 0.47999 0.52252 0.0
C522 C 0.96158 0.49079 0.52387 0.0
H523 H 0.11601 0.51529 0.57058 0.0
H524 H 0.06716 0.51775 0.57167 0.0
H525 H 0.03134 0.53785 0.48655 0.0
H526 H 0.86677 0.45847 0.47128 0.0
H527 H 0.92446 0.48125 0.4734 0.0
C528 C 0.59174 0.11559 0.49764 0.0
C529 C 0.5932 0.13482 0.52212 0.0
C530 C 0.56625 0.08459 0.49476 0.0
C531 C 0.49993 0.02133 0.54079 0.0
H532 H 0.47537 0.97859 0.4631 0.0
C533 C 0.40158 0.89018 0.53489 0.0
C534 C 0.38047 0.88113 0.51028 0.0
C535 C 0.43015 0.91923 0.53456 0.0
C536 C 0.48152 0.9901 0.48504 0.0
H537 H 0.56828 0.13744 0.56167 0.0
H538 H 0.52243 0.08446 0.55532 0.0
H539 H 0.51615 0.03393 0.46524 0.0
H540 H 0.37356 0.89491 0.46543 0.0
H541 H 0.42207 0.9457 0.46535 0.0
H542 H 0.46369 0.97832 0.56037 0.0
C543 C 0.54168 0.09246 0.53914 0.0
C544 C 0.50551 0.02199 0.48633 0.0
C545 C 0.56768 0.12315 0.54253 0.0
C546 C 0.3894 0.90094 0.48468 0.0
C547 C 0.4175 0.93029 0.48465 0.0
C548 C 0.47541 0.98972 0.53941 0.0
C549 C 0.54106 0.07225 0.51583 0.0
C550 C 0.51508 0.03821 0.51424 0.0
C551 C 0.43792 0.94038 0.50995 0.0
C552 C 0.46567 0.97354 0.51151 0.0
H553 H 0.61139 0.12362 0.48188 0.0
H554 H 0.56726 0.06995 0.47679 0.0
H555 H 0.50696 0.03239 0.56288 0.0
H556 H 0.39546 0.87535 0.5549 0.0
H557 H 0.4456 0.92543 0.55409 0.0
C558 C 0.54635 0.4202 0.55308 0.0
C559 C 0.53176 0.39442 0.53304 0.0
C560 C 0.54282 0.44683 0.5491 0.0
C561 C 0.51143 0.48424 0.49473 0.0
H562 H 0.51222 0.52956 0.5673 0.0
C563 C 0.51741 0.60515 0.48894 0.0
C564 C 0.50788 0.61639 0.51391 0.0
C565 C 0.51554 0.57558 0.48993 0.0
C566 C 0.51114 0.51686 0.54676 0.0
H567 H 0.50229 0.37639 0.49285 0.0
H568 H 0.49464 0.42156 0.48686 0.0
H569 H 0.51969 0.4842 0.57148 0.0
H570 H 0.48603 0.60405 0.55837 0.0
H571 H 0.48066 0.55143 0.55934 0.0
H572 H 0.50069 0.51552 0.47024 0.0
C573 C 0.51002 0.42228 0.50495 0.0
C574 C 0.51631 0.49112 0.5491 0.0
C575 C 0.51439 0.39617 0.50839 0.0
C576 C 0.49383 0.59618 0.53886 0.0
C577 C 0.49122 0.56615 0.53955 0.0
C578 C 0.50536 0.50941 0.49249 0.0
C579 C 0.52369 0.44783 0.52555 0.0
C580 C 0.51721 0.47478 0.52306 0.0
C581 C 0.50333 0.55598 0.51564 0.0
C582 C 0.50584 0.52662 0.51838 0.0
H583 H 0.55978 0.41939 0.57231 0.0
H584 H 0.55465 0.46633 0.56493 0.0
H585 H 0.51213 0.47267 0.474 0.0
H586 H 0.52855 0.62013 0.46939 0.0
H587 H 0.52554 0.56916 0.47115 0.0
C588 C 0.3824 0.07092 0.06111 0.0
C589 C 0.3965 0.08468 0.03318 0.0
C590 C 0.36215 0.03811 0.06348 0.0
C591 C 0.31764 0.96412 0.01732 0.0
H592 H 0.32716 0.92388 0.08934 0.0
C593 C 0.26948 0.82982 0.02311 0.0
C594 C 0.24806 0.81476 0.04701 0.0
C595 C 0.28909 0.86278 0.02303 0.0
C596 C 0.32429 0.93488 0.06916 0.0
H597 H 0.39919 0.07483 0.98557 0.0
H598 H 0.36491 0.01795 0.98985 0.0
H599 H 0.35577 0.98172 0.08559 0.0
H600 H 0.23133 0.82202 0.09023 0.0
H601 H 0.26665 0.87953 0.09072 0.0
H602 H 0.28693 0.9171 1.00062 0.0
C603 C 0.36881 0.03233 1.00989 0.0
C604 C 0.34038 0.96801 0.06707 0.0
C605 C 0.38866 0.06511 1.00743 0.0
C606 C 0.24811 0.83293 0.07183 0.0
C607 C 0.2681 0.86585 0.072 0.0
C608 C 0.30201 0.93107 0.01923 0.0
C609 C 0.35585 0.01829 0.03807 0.0
C610 C 0.33735 0.98308 0.04106 0.0
C611 C 0.28793 0.88113 0.04711 0.0
C612 C 0.30529 0.91617 0.04509 0.0
H613 H 0.38776 0.08536 0.08135 0.0
H614 H 0.35198 0.02824 0.0854 0.0
H615 H 0.31413 0.97478 0.99723 0.0
H616 H 0.26972 0.81624 1.0037 0.0
H617 H 0.30442 0.87406 1.00371 0.0
C618 C 0.43538 0.27368 0.04474 0.0
C619 C 0.42989 0.24667 0.02836 0.0
C620 C 0.41007 0.27846 0.05191 0.0
C621 C 0.33339 0.26345 0.02837 0.0
H622 H 0.31768 0.27135 0.11334 0.0
C623 C 0.24975 0.30732 0.05514 0.0
C624 C 0.26403 0.3337 0.07457 0.0
C625 C 0.25965 0.28487 0.05551 0.0
C626 C 0.32171 0.26923 0.08952 0.0
H627 H 0.39418 0.20409 1.00565 0.0
H628 H 0.35035 0.21361 0.01657 0.0
H629 H 0.35982 0.26027 0.09909 0.0
H630 H 0.29575 0.35458 0.11289 0.0
H631 H 0.31412 0.31679 0.11263 0.0
H632 H 0.29748 0.27478 0.01819 0.0
C633 C 0.37403 0.23064 0.02431 0.0
C634 C 0.34582 0.26293 0.08145 0.0
C635 C 0.39914 0.22549 0.01776 0.0
C636 C 0.28458 0.33465 0.09739 0.0
C637 C 0.29511 0.31273 0.09724 0.0
C638 C 0.3098 0.27044 0.03634 0.0
C639 C 0.37918 0.25664 0.04214 0.0
C640 C 0.35226 0.2608 0.05081 0.0
C641 C 0.28464 0.28911 0.07466 0.0
C642 C 0.30423 0.27436 0.06701 0.0
H643 H 0.45891 0.29016 0.05322 0.0
H644 H 0.41448 0.29892 0.06538 0.0
H645 H 0.338 0.26176 1.00459 0.0
H646 H 0.23325 0.30568 0.03775 0.0
H647 H 0.24995 0.26605 0.03876 0.0
C648 C 0.91881 0.30674 0.05421 0.0
C649 C 0.90615 0.30759 0.0258 0.0
C650 C 0.95144 0.31835 0.0576 0.0
C651 C 0.02652 0.34563 1.01334 0.0
H652 H 0.06609 0.39316 0.08668 0.0
C653 C 0.16151 0.42915 0.02299 0.0
C654 C 0.17567 0.42191 0.04707 0.0
C655 C 0.12855 0.41607 0.02193 0.0
C656 C 0.05527 0.37988 0.06614 0.0
H657 H 0.91783 0.32035 0.97847 0.0
H658 H 0.97434 0.34134 0.98449 0.0
H659 H 0.00837 0.36607 0.08145 0.0
H660 H 0.16668 0.39628 0.08948 0.0
H661 H 0.10919 0.37467 0.08833 0.0
H662 H 0.07369 0.36055 0.99774 0.0
C663 C 0.95923 0.33109 1.00413 0.0
C664 C 0.02218 0.36408 0.0632 0.0
C665 C 0.92666 0.31911 1.00067 0.0
C666 C 0.1565 0.40287 0.07098 0.0
C667 C 0.12359 0.39028 0.07021 0.0
C668 C 0.05957 0.3619 0.0161 0.0
C669 C 0.97221 0.33145 0.03274 0.0
C670 C 0.00733 0.34682 0.03667 0.0
C671 C 0.10927 0.39599 0.04523 0.0
C672 C 0.07424 0.37927 0.04244 0.0
H673 H 0.90366 0.29787 0.07401 0.0
H674 H 0.96039 0.3175 0.07984 0.0
H675 H 0.01607 0.33205 0.99289 0.0
H676 H 0.17582 0.44369 1.00427 0.0
H677 H 0.11803 0.42102 1.00255 0.0
C678 C 0.7724 0.17552 0.02426 0.0
C679 C 0.74766 0.18093 0.01591 0.0
C680 C 0.76743 0.14474 0.02532 0.0
C681 C 0.7443 0.07664 0.04392 0.0
H682 H 0.69037 0.01516 0.98375 0.0
C683 C 0.66909 0.94382 0.06479 0.0
C684 C 0.65807 0.92327 0.03969 0.0
C685 C 0.69118 0.97591 0.06076 0.0
C686 C 0.70617 0.0321 1.00037 0.0
H687 H 0.69864 0.15925 1.00179 0.0
H688 H 0.68939 0.10483 1.00421 0.0
H689 H 0.70466 0.07035 0.97813 0.0
H690 H 0.66572 0.91876 0.99189 0.0
H691 H 0.70496 0.97462 0.98507 0.0
H692 H 0.74543 0.03819 0.06636 0.0
C693 C 0.71279 0.12439 1.00957 0.0
C694 C 0.71382 0.06366 0.99742 0.0
C695 C 0.71786 0.15532 1.00844 0.0
C696 C 0.67318 0.93424 1.01153 0.0
C697 C 0.69552 0.96628 1.00757 0.0
C698 C 0.73672 0.04502 0.04683 0.0
C699 C 0.73758 0.11883 0.018 0.0
C700 C 0.73217 0.08607 0.01961 0.0
C701 C 0.70285 0.98781 0.03165 0.0
C702 C 0.7168 0.02222 0.02555 0.0
H703 H 0.79572 0.19523 0.0297 0.0
H704 H 0.78706 0.14128 0.03148 0.0
H705 H 0.75849 0.09338 0.06143 0.0
H706 H 0.65823 0.93603 0.08691 0.0
H707 H 0.69641 0.99176 0.07989 0.0
C708 C 0.60488 0.76007 0.02143 0.0
C709 C 0.57862 0.75219 0.04029 0.0
C710 C 0.61943 0.74156 0.02133 0.0
C711 C 0.63653 0.69105 0.06779 0.0
H712 H 0.64587 0.65588 0.99208 0.0
C713 C 0.67851 0.59909 0.06351 0.0
C714 C 0.694 0.59703 0.03739 0.0
C715 C 0.66714 0.62036 0.06481 0.0
C716 C 0.64418 0.66605 1.01336 0.0
H717 H 0.54774 0.7196 0.07463 0.0
H718 H 0.57401 0.68749 0.07514 0.0
H719 H 0.61967 0.68745 0.99242 0.0
H720 H 0.71172 0.61728 0.99302 0.0
H721 H 0.69342 0.65565 0.99587 0.0
H722 H 0.66193 0.67078 0.08874 0.0
C723 C 0.58273 0.70767 0.06001 0.0
C724 C 0.62882 0.68385 1.01353 0.0
C725 C 0.56769 0.72586 0.05963 0.0
C726 C 0.69964 0.61813 1.01336 0.0
C727 C 0.68879 0.63988 0.0149 0.0
C728 C 0.65248 0.67377 0.06757 0.0
C729 C 0.60862 0.71533 0.04071 0.0
C730 C 0.62465 0.69627 0.04076 0.0
C731 C 0.67146 0.64058 0.04025 0.0
C732 C 0.6563 0.66077 0.04037 0.0
H733 H 0.61459 0.78092 1.00712 0.0
H734 H 0.63965 0.74819 1.0066 0.0
H735 H 0.63395 0.70082 0.089 0.0
H736 H 0.67351 0.58299 0.08235 0.0
H737 H 0.65361 0.61976 0.08457 0.0
C738 C 0.82672 0.5914 0.02211 0.0
C739 C 0.81783 0.5603 0.03099 0.0
C740 C 0.85676 0.61655 0.02915 0.0
C741 C 0.91838 0.64342 0.085 0.0
H742 H 0.97691 0.69413 0.02153 0.0
C743 C 0.05164 0.70529 0.09794 0.0
C744 C 0.07066 0.72652 0.07525 0.0
C745 C 0.01915 0.69451 0.09874 0.0
C746 C 0.96072 0.68113 0.0398 0.0
H747 H 0.83316 0.5308 0.0536 0.0
H748 H 0.88599 0.57528 0.06665 0.0
H749 H 0.92328 0.65371 1.00836 0.0
H750 H 0.07232 0.75817 0.03985 0.0
H751 H 0.01594 0.74102 0.04259 0.0
H752 H 0.95548 0.6708 0.1166 0.0
C753 C 0.86958 0.57993 0.05409 0.0
C754 C 0.93008 0.6576 0.03206 0.0
C755 C 0.8397 0.5546 0.04642 0.0
C756 C 0.05793 0.74113 0.05708 0.0
C757 C 0.02554 0.73097 0.05843 0.0
C758 C 0.94884 0.66748 0.09289 0.0
C759 C 0.87806 0.61107 0.04581 0.0
C760 C 0.90916 0.63789 0.05448 0.0
C761 C 0.00535 0.7054 0.07728 0.0
C762 C 0.97088 0.68581 0.07027 0.0
H763 H 0.80998 0.59651 1.01083 0.0
H764 H 0.86293 0.64043 0.02258 0.0
H765 H 0.90218 0.62875 0.10267 0.0
H766 H 0.06087 0.69386 0.11253 0.0
H767 H 0.00467 0.67507 0.11388 0.0
C768 C 0.17931 0.67988 0.51456 0.0
C769 C 0.19 0.70844 0.53056 0.0
C770 C 0.14726 0.65609 0.51574 0.0
C771 C 0.07258 0.62918 0.55905 0.0
H772 H 0.03075 0.59859 0.48145 0.0
C773 C 0.93597 0.55027 0.54849 0.0
C774 C 0.92234 0.56091 0.52678 0.0
C775 C 0.96889 0.56262 0.5492 0.0
C776 C 0.04214 0.60681 0.5033 0.0
H777 H 0.17549 0.73464 0.56004 0.0
H778 H 0.1201 0.69309 0.56279 0.0
H779 H 0.08869 0.63034 0.48364 0.0
H780 H 0.93199 0.59261 0.48882 0.0
H781 H 0.98949 0.61415 0.48983 0.0
H782 H 0.02601 0.60675 0.57858 0.0
C783 C 0.13641 0.6887 0.54972 0.0
C784 C 0.07532 0.62469 0.5046 0.0
C785 C 0.16824 0.7125 0.54826 0.0
C786 C 0.94202 0.58395 0.50568 0.0
C787 C 0.97484 0.59601 0.50611 0.0
C788 C 0.03944 0.61108 0.55778 0.0
C789 C 0.12542 0.66041 0.53314 0.0
C790 C 0.09084 0.63695 0.53238 0.0
C791 C 0.98869 0.58567 0.52801 0.0
C792 C 0.02382 0.60057 0.52978 0.0
H793 H 0.19562 0.67631 0.50057 0.0
H794 H 0.13948 0.63453 0.50274 0.0
H795 H 0.0839 0.63799 0.58084 0.0
H796 H 0.92124 0.53305 0.5654 0.0
H797 H 0.97885 0.55418 0.56632 0.0
C798 C 0.29387 0.1131 0.48125 0.0
C799 C 0.31024 0.12742 0.50817 0.0
C800 C 0.27621 0.08009 0.47878 0.0
C801 C 0.24008 0.00527 0.52228 0.0
H802 H 0.26943 0.97416 0.45588 0.0
C803 C 0.2505 0.89445 0.53109 0.0
C804 C 0.25058 0.87795 0.50493 0.0
C805 C 0.24563 0.92028 0.52897 0.0
C806 C 0.26006 0.98207 0.47407 0.0
H807 H 0.3188 0.11878 0.55444 0.0
H808 H 0.2882 0.061 0.5501 0.0
H809 H 0.28373 0.02962 0.45719 0.0
H810 H 0.24245 0.87368 0.45635 0.0
H811 H 0.23333 0.91861 0.45271 0.0
H812 H 0.21721 0.9579 0.53969 0.0
C813 C 0.28918 0.07527 0.53084 0.0
C814 C 0.26842 0.014 0.47487 0.0
C815 C 0.30711 0.10829 0.53318 0.0
C816 C 0.24299 0.88619 0.47689 0.0
C817 C 0.23789 0.91201 0.47479 0.0
C818 C 0.23136 0.97321 0.52132 0.0
C819 C 0.27419 0.06087 0.50338 0.0
C820 C 0.25965 0.02614 0.49962 0.0
C821 C 0.24045 0.93014 0.50065 0.0
C822 C 0.24251 0.96158 0.49792 0.0
H823 H 0.29574 0.1274 0.46169 0.0
H824 H 0.26474 0.06955 0.45744 0.0
H825 H 0.23261 0.01402 0.54137 0.0
H826 H 0.256 0.88864 0.55313 0.0
H827 H 0.24814 0.93376 0.54937 0.0
C828 C 0.27354 0.44758 0.5479 0.0
C829 C 0.27869 0.47225 0.52794 0.0
C830 C 0.29414 0.43534 0.54826 0.0
C831 C 0.34265 0.4183 0.4994 0.0
H832 H 0.37888 0.40662 0.57333 0.0
C833 C 0.37934 0.32282 0.515 0.0
C834 C 0.41001 0.33318 0.52636 0.0
C835 C 0.36701 0.34338 0.51424 0.0
C836 C 0.36913 0.40996 0.55249 0.0
H837 H 0.3094 0.50325 0.49257 0.0
H838 H 0.34489 0.48076 0.49231 0.0
H839 H 0.35116 0.43719 0.57458 0.0
H840 H 0.45171 0.37327 0.54605 0.0
H841 H 0.42963 0.40891 0.5455 0.0
H842 H 0.35914 0.38967 0.47764 0.0
C843 C 0.32523 0.47156 0.50814 0.0
C844 C 0.35324 0.42734 0.55322 0.0
C845 C 0.30499 0.48439 0.50831 0.0
C846 C 0.428 0.36456 0.53714 0.0
C847 C 0.41539 0.38494 0.5369 0.0
C848 C 0.35791 0.40033 0.49881 0.0
C849 C 0.31988 0.44683 0.52808 0.0
C850 C 0.33959 0.43139 0.52674 0.0
C851 C 0.38482 0.37455 0.52531 0.0
C852 C 0.37098 0.39571 0.52542 0.0
H853 H 0.2529 0.43681 0.56251 0.0
H854 H 0.28916 0.41589 0.56345 0.0
H855 H 0.33209 0.42086 0.47874 0.0
H856 H 0.36494 0.2989 0.50636 0.0
H857 H 0.34328 0.33473 0.50541 0.0
C858 C 0.09749 0.36144 0.48922 0.0
C859 C 0.11406 0.37707 0.51566 0.0
C860 C 0.07208 0.33031 0.49078 0.0
C861 C 0.01072 0.2853 0.54453 0.0
H862 H 0.9797 0.21938 0.48321 0.0
C863 C 0.87855 0.19636 0.53866 0.0
C864 C 0.86582 0.19135 0.50937 0.0
C865 C 0.91121 0.2095 0.54274 0.0
C866 C 0.988 0.23759 0.50053 0.0
H867 H 0.1196 0.3711 0.56365 0.0
H868 H 0.0752 0.31702 0.56628 0.0
H869 H 0.03565 0.26087 0.48318 0.0
H870 H 0.8763 0.19415 0.46141 0.0
H871 H 0.93343 0.21889 0.46824 0.0
H872 H 0.96319 0.26428 0.56046 0.0
C873 C 0.08149 0.32898 0.54454 0.0
C874 C 0.02004 0.26115 0.50059 0.0
C875 C 0.10678 0.36001 0.54301 0.0
C876 C 0.8858 0.19805 0.48423 0.0
C877 C 0.91852 0.21188 0.48824 0.0
C878 C 0.97873 0.26217 0.5442 0.0
C879 C 0.06299 0.31441 0.51876 0.0
C880 C 0.03139 0.28577 0.52202 0.0
C881 C 0.93176 0.21859 0.51755 0.0
C882 C 0.96668 0.23868 0.52152 0.0
H883 H 0.10275 0.37386 0.46775 0.0
H884 H 0.05809 0.31967 0.47056 0.0
H885 H 0.01868 0.30425 0.56109 0.0
H886 H 0.86329 0.19051 0.55836 0.0
H887 H 0.92043 0.21348 0.56565 0.0
C888 C 0.63378 0.06822 0.52401 0.0
C889 C 0.66583 0.08452 0.51497 0.0
C890 C 0.61665 0.035 0.52444 0.0
C891 C 0.63018 0.96635 0.52634 0.0
H892 H 0.54046 0.9173 0.50702 0.0
C893 C 0.56369 0.83243 0.54359 0.0
C894 C 0.54181 0.81336 0.52131 0.0
C895 C 0.57526 0.86503 0.54435 0.0
C896 C 0.56557 0.93065 0.51225 0.0
H897 H 0.70459 0.07881 0.49799 0.0
H898 H 0.67467 0.02122 0.49779 0.0
H899 H 0.56801 0.97518 0.50346 0.0
H900 H 0.51451 0.81337 0.48258 0.0
H901 H 0.53597 0.87093 0.48289 0.0
H902 H 0.62845 0.92226 0.53371 0.0
C903 C 0.66293 0.03388 0.50562 0.0
C904 C 0.5813 0.96387 0.51058 0.0
C905 C 0.68011 0.06697 0.50558 0.0
C906 C 0.53126 0.82757 0.50009 0.0
C907 C 0.54339 0.86047 0.50044 0.0
C908 C 0.61465 0.93334 0.52766 0.0
C909 C 0.63116 0.01741 0.51556 0.0
C910 C 0.61387 0.98211 0.51751 0.0
C911 C 0.56613 0.8797 0.52221 0.0
C912 C 0.58212 0.91498 0.52081 0.0
H913 H 0.62211 0.08112 0.53137 0.0
H914 H 0.59233 0.02317 0.53245 0.0
H915 H 0.65508 0.97949 0.53244 0.0
H916 H 0.57302 0.82247 0.55978 0.0
H917 H 0.59215 0.87886 0.56189 0.0
C918 C 0.65598 0.74476 0.54588 0.0
C919 C 0.6417 0.74058 0.51725 0.0
C920 C 0.6857 0.74717 0.54863 0.0
C921 C 0.75526 0.7545 0.5064 0.0
H922 H 0.74691 0.68972 0.56286 0.0
C923 C 0.82219 0.68553 0.49317 0.0
C924 C 0.82766 0.67208 0.51893 0.0
C925 C 0.80681 0.7032 0.49588 0.0
C926 C 0.7503 0.70855 0.54755 0.0
H927 H 0.64872 0.73864 0.46885 0.0
H928 H 0.70041 0.74232 0.47374 0.0
H929 H 0.70719 0.70574 0.56235 0.0
H930 H 0.82459 0.66897 0.56786 0.0
H931 H 0.79878 0.70081 0.5729 0.0
H932 H 0.79808 0.75654 0.49104 0.0
C933 C 0.68869 0.74392 0.49403 0.0
C934 C 0.72736 0.71772 0.54723 0.0
C935 C 0.65895 0.74159 0.49126 0.0
C936 C 0.81988 0.67857 0.54764 0.0
C937 C 0.80505 0.69671 0.55045 0.0
C938 C 0.77849 0.74551 0.5069 0.0
C939 C 0.70171 0.74537 0.52284 0.0
C940 C 0.7291 0.74015 0.52615 0.0
C941 C 0.79716 0.70817 0.52451 0.0
C942 C 0.77577 0.72174 0.52693 0.0
H943 H 0.64358 0.74465 0.56635 0.0
H944 H 0.69546 0.74885 0.57108 0.0
H945 H 0.7573 0.77205 0.49007 0.0
H946 H 0.82812 0.68082 0.47079 0.0
H947 H 0.80091 0.71133 0.47537 0.0
C948 C 0.49678 0.24951 0.40205 0.0
C949 C 0.46932 0.24964 0.41199 0.0
C950 C 0.50043 0.24371 0.37142 0.0
C951 C 0.45372 0.20827 0.30039 0.0
H952 H 0.53583 0.25388 0.261 0.0
C953 C 0.46825 0.19712 0.1704 0.0
C954 C 0.49597 0.19773 0.15999 0.0
C955 C 0.46515 0.20365 0.20092 0.0
C956 C 0.51274 0.24054 0.27163 0.0
H957 H 0.42461 0.24468 0.39715 0.0
H958 H 0.43076 0.23448 0.34404 0.0
H959 H 0.53049 0.26479 0.31401 0.0
H960 H 0.54214 0.2057 0.17407 0.0
H961 H 0.53659 0.21651 0.22701 0.0
H962 H 0.43596 0.18386 0.25816 0.0
C963 C 0.44936 0.23829 0.35988 0.0
C964 C 0.50967 0.24687 0.30221 0.0
C965 C 0.44581 0.2442 0.39042 0.0
C966 C 0.52045 0.20506 0.18107 0.0
C967 C 0.51734 0.21152 0.21157 0.0
C968 C 0.45679 0.20187 0.26985 0.0
C969 C 0.47665 0.23776 0.34983 0.0
C970 C 0.48009 0.23089 0.31712 0.0
C971 C 0.48965 0.21097 0.22209 0.0
C972 C 0.48635 0.2179 0.25487 0.0
H973 H 0.51524 0.25337 0.41809 0.0
H974 H 0.52165 0.24322 0.36482 0.0
H975 H 0.43062 0.195 0.31103 0.0
H976 H 0.44893 0.19179 0.15491 0.0
H977 H 0.44363 0.20341 0.20778 0.0
C978 C 0.26777 0.45814 0.18199 0.0
C979 C 0.29452 0.48077 0.1659 0.0
C980 C 0.25913 0.46608 0.20933 0.0
C981 C 0.28923 0.52045 0.27361 0.0
H982 H 0.19971 0.49036 0.28715 0.0
C983 C 0.24139 0.53776 0.3882 0.0
C984 C 0.21497 0.51008 0.39938 0.0
C985 C 0.25136 0.53908 0.35819 0.0
C986 C 0.22478 0.49889 0.28374 0.0
H987 H 0.3336 0.52937 0.16627 0.0
H988 H 0.31854 0.54319 0.21457 0.0
H989 H 0.21755 0.48332 0.23758 0.0
H990 H 0.17776 0.46247 0.38763 0.0
H991 H 0.1952 0.46471 0.33567 0.0
H992 H 0.29628 0.53505 0.32014 0.0
C993 C 0.3043 0.51932 0.20576 0.0
C994 C 0.23498 0.49486 0.25538 0.0
C995 C 0.31288 0.51141 0.17815 0.0
C996 C 0.1982 0.48417 0.37975 0.0
C997 C 0.20807 0.48553 0.34985 0.0
C998 C 0.27899 0.5244 0.3021 0.0
C999 C 0.27708 0.49681 0.22136 0.0
C1000 C 0.26716 0.50481 0.25027 0.0
C1001 C 0.23496 0.51283 0.33881 0.0
C1002 C 0.24652 0.51287 0.30766 0.0
H1003 H 0.2531 0.43429 0.17328 0.0
H1004 H 0.23838 0.44806 0.22115 0.0
H1005 H 0.31416 0.52823 0.2703 0.0
H1006 H 0.25479 0.55813 0.40278 0.0
H1007 H 0.27203 0.56052 0.35021 0.0
C1008 C 0.78048 0.27251 0.15839 0.0
C1009 C 0.81126 0.2971 0.15103 0.0
C1010 C 0.77106 0.26456 0.18885 0.0
C1011 C 0.8051 0.27431 0.2672 0.0
H1012 H 0.71886 0.24607 0.29334 0.0
C1013 C 0.77151 0.25755 0.39468 0.0
C1014 C 0.74271 0.23077 0.4032 0.0
C1015 C 0.7786 0.26606 0.36406 0.0
C1016 C 0.743 0.25364 0.28645 0.0
H1017 H 0.85588 0.33304 0.17045 0.0
H1018 H 0.83945 0.31981 0.22298 0.0
H1019 H 0.73344 0.25977 0.24017 0.0
H1020 H 0.69818 0.1926 0.38614 0.0
H1021 H 0.71033 0.20744 0.33263 0.0
H1022 H 0.81474 0.2683 0.31336 0.0
C1023 C 0.82265 0.30598 0.20538 0.0
C1024 C 0.75141 0.26148 0.25579 0.0
C1025 C 0.83207 0.3138 0.17504 0.0
C1026 C 0.72055 0.21344 0.38034 0.0
C1027 C 0.72757 0.22199 0.34962 0.0
C1028 C 0.79675 0.26661 0.29778 0.0
C1029 C 0.79211 0.28101 0.21291 0.0
C1030 C 0.78268 0.2721 0.24563 0.0
C1031 C 0.75699 0.24813 0.34092 0.0
C1032 C 0.7656 0.25626 0.308 0.0
H1033 H 0.76377 0.259 0.14061 0.0
H1034 H 0.74746 0.24499 0.19347 0.0
H1035 H 0.82921 0.28159 0.26044 0.0
H1036 H 0.78884 0.27174 0.41179 0.0
H1037 H 0.80117 0.28675 0.35852 0.0
C1038 C 0.5469 0.82772 0.18262 0.0
C1039 C 0.52677 0.81021 0.1586 0.0
C1040 C 0.54086 0.81528 0.21196 0.0
C1041 C 0.50712 0.74063 0.25164 0.0
H1042 H 0.50849 0.78891 0.32234 0.0
C1043 C 0.53189 0.71647 0.37375 0.0
C1044 C 0.51154 0.71614 0.39656 0.0
C1045 C 0.52919 0.72489 0.34413 0.0
C1046 C 0.50776 0.77509 0.30275 0.0
H1047 H 0.48436 0.76617 0.1464 0.0
H1048 H 0.47429 0.74419 0.19764 0.0
H1049 H 0.51241 0.81097 0.27156 0.0
H1050 H 0.47209 0.72379 0.40631 0.0
H1051 H 0.4679 0.73926 0.35448 0.0
H1052 H 0.50368 0.70529 0.28286 0.0
C1053 C 0.49451 0.76761 0.19373 0.0
C1054 C 0.5102 0.78776 0.27383 0.0
C1055 C 0.50022 0.78026 0.1645 0.0
C1056 C 0.48799 0.7237 0.38911 0.0
C1057 C 0.48567 0.73269 0.35959 0.0
C1058 C 0.50523 0.72821 0.28057 0.0
C1059 C 0.51491 0.78492 0.21762 0.0
C1060 C 0.51017 0.77074 0.24809 0.0
C1061 C 0.50645 0.73363 0.33696 0.0
C1062 C 0.50581 0.74547 0.30634 0.0
H1063 H 0.56749 0.85088 0.17871 0.0
H1064 H 0.55704 0.82894 0.23004 0.0
H1065 H 0.50727 0.72719 0.23209 0.0
H1066 H 0.55022 0.71068 0.37889 0.0
H1067 H 0.54562 0.72567 0.32706 0.0
C1068 C 0.79864 0.53562 0.39243 0.0
C1069 C 0.78048 0.51153 0.41348 0.0
C1070 C 0.7893 0.53306 0.36191 0.0
C1071 C 0.71893 0.48896 0.31036 0.0
H1072 H 0.78269 0.52401 0.24703 0.0
C1073 C 0.68524 0.46768 0.18214 0.0
C1074 C 0.70261 0.4925 0.16143 0.0
C1075 C 0.6947 0.47005 0.21262 0.0
C1076 C 0.76447 0.51439 0.26435 0.0
H1077 H 0.73819 0.46558 0.41853 0.0
H1078 H 0.72214 0.46061 0.36527 0.0
H1079 H 0.79902 0.52739 0.29976 0.0
H1080 H 0.74389 0.53945 0.15713 0.0
H1081 H 0.76027 0.5437 0.21017 0.0
H1082 H 0.68439 0.47584 0.27488 0.0
C1083 C 0.74345 0.48191 0.37238 0.0
C1084 C 0.77389 0.51634 0.29483 0.0
C1085 C 0.75283 0.48455 0.40297 0.0
C1086 C 0.72982 0.51982 0.17227 0.0
C1087 C 0.73937 0.52215 0.20278 0.0
C1088 C 0.70952 0.48694 0.27987 0.0
C1089 C 0.76146 0.50619 0.35125 0.0
C1090 C 0.75131 0.50371 0.31846 0.0
C1091 C 0.72195 0.4973 0.22354 0.0
C1092 C 0.7321 0.49964 0.25628 0.0
H1093 H 0.82028 0.5566 0.39955 0.0
H1094 H 0.80376 0.55252 0.34677 0.0
H1095 H 0.70068 0.4794 0.32765 0.0
H1096 H 0.66423 0.44619 0.17481 0.0
H1097 H 0.6808 0.45016 0.22753 0.0
C1098 C 0.19138 0.71927 0.17748 0.0
C1099 C 0.18525 0.69155 0.16188 0.0
C1100 C 0.20764 0.72718 0.20493 0.0
C1101 C 0.22616 0.69488 0.27086 0.0
H1102 H 0.29007 0.78314 0.28364 0.0
C1103 C 0.28578 0.74386 0.38771 0.0
C1104 C 0.28487 0.77117 0.39668 0.0
C1105 C 0.27877 0.73296 0.35776 0.0
C1106 C 0.27236 0.7584 0.2804 0.0
H1107 H 0.19083 0.64998 0.16326 0.0
H1108 H 0.21907 0.66375 0.21195 0.0
H1109 H 0.26735 0.76531 0.23331 0.0
H1110 H 0.27685 0.80894 0.3812 0.0
H1111 H 0.26473 0.79005 0.32928 0.0
H1112 H 0.2303 0.68833 0.31835 0.0
C1113 C 0.21134 0.67934 0.20254 0.0
C1114 C 0.25937 0.74821 0.25163 0.0
C1115 C 0.19522 0.67151 0.17475 0.0
C1116 C 0.27772 0.78781 0.37503 0.0
C1117 C 0.27101 0.77712 0.34518 0.0
C1118 C 0.23916 0.70512 0.29978 0.0
C1119 C 0.21805 0.7075 0.21763 0.0
C1120 C 0.23537 0.71663 0.24682 0.0
C1121 C 0.27115 0.74943 0.33627 0.0
C1122 C 0.26158 0.73724 0.30499 0.0
H1123 H 0.18401 0.73525 0.16833 0.0
H1124 H 0.2119 0.7487 0.21637 0.0
H1125 H 0.20763 0.67042 0.26775 0.0
H1126 H 0.29116 0.73051 0.40394 0.0
H1127 H 0.27914 0.71161 0.35144 0.0
C1128 C 0.52621 0.75364 0.67682 0.0
C1129 C 0.51901 0.72331 0.66713 0.0
C1130 C 0.51223 0.75738 0.70283 0.0
C1131 C 0.48628 0.72143 0.77579 0.0
H1132 H 0.47265 0.79295 0.78671 0.0
C1133 C 0.50376 0.78052 0.89189 0.0
C1134 C 0.52707 0.81277 0.89005 0.0
C1135 C 0.48819 0.76367 0.86573 0.0
C1136 C 0.47587 0.77258 0.78405 0.0
H1137 H 0.49068 0.6729 0.67596 0.0
H1138 H 0.46652 0.67945 0.72252 0.0
H1139 H 0.47014 0.77178 0.7359 0.0
H1140 H 0.5515 0.85309 0.86005 0.0
H1141 H 0.52437 0.82384 0.81439 0.0
H1142 H 0.49429 0.72366 0.82359 0.0
C1143 C 0.48277 0.70028 0.70965 0.0
C1144 C 0.47441 0.76044 0.75503 0.0
C1145 C 0.49652 0.69652 0.68314 0.0
C1146 C 0.53349 0.82827 0.862 0.0
C1147 C 0.51772 0.81157 0.83596 0.0
C1148 C 0.48763 0.7335 0.80484 0.0
C1149 C 0.49097 0.73084 0.71998 0.0
C1150 C 0.4816 0.73609 0.75045 0.0
C1151 C 0.49557 0.77889 0.83742 0.0
C1152 C 0.48434 0.7604 0.80894 0.0
H1153 H 0.54326 0.77464 0.6646 0.0
H1154 H 0.51954 0.78127 0.71041 0.0
H1155 H 0.49204 0.70273 0.77297 0.0
H1156 H 0.49894 0.76779 0.91311 0.0
H1157 H 0.47137 0.73848 0.86744 0.0
C1158 C 0.78652 0.54376 0.62384 0.0
C1159 C 0.79143 0.51986 0.61131 0.0
C1160 C 0.77659 0.54213 0.65409 0.0
C1161 C 0.77441 0.50576 0.72921 0.0
H1162 H 0.71358 0.53238 0.74925 0.0
C1163 C 0.73018 0.50159 0.85425 0.0
C1164 C 0.72458 0.52618 0.86338 0.0
C1165 C 0.73625 0.49805 0.82353 0.0
C1166 C 0.73095 0.52524 0.74435 0.0
H1167 H 0.78951 0.47531 0.62151 0.0
H1168 H 0.77241 0.47259 0.67423 0.0
H1169 H 0.72836 0.53206 0.6966 0.0
H1170 H 0.72107 0.56622 0.84643 0.0
H1171 H 0.73211 0.56059 0.79407 0.0
H1172 H 0.77753 0.4996 0.77706 0.0
C1173 C 0.77632 0.49271 0.66056 0.0
C1174 C 0.7394 0.52499 0.71389 0.0
C1175 C 0.78592 0.49416 0.63014 0.0
C1176 C 0.72506 0.54683 0.84067 0.0
C1177 C 0.73117 0.54339 0.81021 0.0
C1178 C 0.76615 0.50627 0.7598 0.0
C1179 C 0.77151 0.5167 0.67309 0.0
C1180 C 0.76151 0.51555 0.70574 0.0
C1181 C 0.73701 0.51903 0.80092 0.0
C1182 C 0.74451 0.51639 0.76802 0.0
H1183 H 0.79053 0.56399 0.6103 0.0
H1184 H 0.77356 0.56129 0.66279 0.0
H1185 H 0.79171 0.49857 0.72404 0.0
H1186 H 0.73088 0.48555 0.87075 0.0
H1187 H 0.74039 0.47881 0.81756 0.0
C1188 C 0.30271 0.84758 0.6951 0.0
C1189 C 0.2933 0.82302 0.67389 0.0
C1190 C 0.29723 0.84067 0.7259 0.0
C1191 C 0.26646 0.7773 0.7843 0.0
H1192 H 0.2178 0.81718 0.80844 0.0
C1193 C 0.17388 0.72966 0.88161 0.0
C1194 C 0.17015 0.7519 0.89877 0.0
C1195 C 0.19426 0.73952 0.85655 0.0
C1196 C 0.23183 0.80627 0.80256 0.0
H1197 H 0.27318 0.77235 0.66793 0.0
H1198 H 0.26314 0.76007 0.72193 0.0
H1199 H 0.24801 0.83331 0.76189 0.0
H1200 H 0.18543 0.80174 0.90436 0.0
H1201 H 0.22164 0.81917 0.86136 0.0
H1202 H 0.24965 0.74986 0.82508 0.0
C1203 C 0.27534 0.78471 0.71491 0.0
C1204 C 0.24924 0.81558 0.77578 0.0
C1205 C 0.28118 0.79171 0.68401 0.0
C1206 C 0.1875 0.78411 0.89103 0.0
C1207 C 0.20821 0.79403 0.8664 0.0
C1208 C 0.24919 0.76814 0.81146 0.0
C1209 C 0.28161 0.80899 0.73586 0.0
C1210 C 0.26653 0.80108 0.76619 0.0
C1211 C 0.2115 0.77184 0.84853 0.0
C1212 C 0.23142 0.78235 0.82072 0.0
H1213 H 0.31206 0.87189 0.68765 0.0
H1214 H 0.30283 0.85988 0.74166 0.0
H1215 H 0.27952 0.76567 0.77735 0.0
H1216 H 0.16054 0.70464 0.88715 0.0
H1217 H 0.19583 0.72173 0.84305 0.0
C1218 C 0.44253 0.16293 0.84019 0.0
C1219 C 0.46322 0.18446 0.86211 0.0
C1220 C 0.44428 0.17156 0.80966 0.0
C1221 C 0.49503 0.22944 0.75063 0.0
H1222 H 0.41415 0.20179 0.71105 0.0
C1223 C 0.48563 0.27009 0.6278 0.0
C1224 C 0.45997 0.24909 0.60933 0.0
C1225 C 0.48762 0.26278 0.65832 0.0
C1226 C 0.43704 0.20935 0.72137 0.0
H1227 H 0.50247 0.23247 0.86805 0.0
H1228 H 0.50596 0.24733 0.81451 0.0
H1229 H 0.41539 0.18858 0.76392 0.0
H1230 H 0.41682 0.20323 0.60878 0.0
H1231 H 0.42069 0.1901 0.66126 0.0
H1232 H 0.51667 0.24992 0.70785 0.0
C1233 C 0.48838 0.22349 0.82124 0.0
C1234 C 0.43774 0.20182 0.75197 0.0
C1235 C 0.48651 0.21484 0.85208 0.0
C1236 C 0.43683 0.22018 0.62218 0.0
C1237 C 0.43894 0.21277 0.65258 0.0
C1238 C 0.49434 0.23681 0.71982 0.0
C1239 C 0.46681 0.20213 0.79967 0.0
C1240 C 0.46669 0.21149 0.76711 0.0
C1241 C 0.46411 0.23411 0.67142 0.0
C1242 C 0.46527 0.22669 0.70454 0.0
H1243 H 0.42439 0.13922 0.84669 0.0
H1244 H 0.42768 0.15414 0.79381 0.0
H1245 H 0.51779 0.23716 0.76134 0.0
H1246 H 0.50387 0.29267 0.61891 0.0
H1247 H 0.50723 0.28012 0.67185 0.0
C1248 C 0.21714 0.40455 0.89199 0.0
C1249 C 0.24907 0.41782 0.90037 0.0
C1250 C 0.20862 0.4171 0.86779 0.0
C1251 C 0.23868 0.48651 0.81547 0.0
H1252 H 0.17117 0.42444 0.76453 0.0
C1253 C 0.21412 0.49871 0.68872 0.0
C1254 C 0.18217 0.48187 0.67972 0.0
C1255 C 0.22204 0.49945 0.71933 0.0
C1256 C 0.18964 0.4422 0.77883 0.0
H1257 H 0.29727 0.45445 0.89046 0.0
H1258 H 0.28265 0.47562 0.84689 0.0
H1259 H 0.18601 0.40703 0.80976 0.0
H1260 H 0.13345 0.45598 0.69518 0.0
H1261 H 0.14716 0.45798 0.74864 0.0
H1262 H 0.24321 0.5214 0.78285 0.0
C1263 C 0.26401 0.45617 0.85958 0.0
C1264 C 0.19818 0.43221 0.80486 0.0
C1265 C 0.27246 0.44393 0.88429 0.0
C1266 C 0.15823 0.46914 0.70177 0.0
C1267 C 0.16609 0.47013 0.73226 0.0
C1268 C 0.23036 0.4965 0.78896 0.0
C1269 C 0.23195 0.44274 0.85092 0.0
C1270 C 0.22277 0.45416 0.82359 0.0
C1271 C 0.19802 0.48336 0.74101 0.0
C1272 C 0.20567 0.47436 0.77049 0.0
H1273 H 0.19867 0.3848 0.90457 0.0
H1274 H 0.18364 0.40666 0.86235 0.0
H1275 H 0.25754 0.5041 0.82952 0.0
H1276 H 0.23292 0.50822 0.67194 0.0
H1277 H 0.24683 0.50971 0.72549 0.0
C1278 C 0.79256 0.24254 0.8391 0.0
C1279 C 0.8009 0.27154 0.85349 0.0
C1280 C 0.78269 0.23714 0.80873 0.0
C1281 C 0.79189 0.27757 0.73628 0.0
H1282 H 0.71862 0.19835 0.71102 0.0
C1283 C 0.76956 0.23027 0.61143 0.0
C1284 C 0.7385 0.21732 0.59983 0.0
C1285 C 0.77618 0.23925 0.64208 0.0
C1286 C 0.73905 0.22069 0.71764 0.0
H1287 H 0.80563 0.31781 0.84683 0.0
H1288 H 0.78906 0.30868 0.79327 0.0
H1289 H 0.731 0.2092 0.76504 0.0
H1290 H 0.69011 0.20392 0.61183 0.0
H1291 H 0.70155 0.21886 0.66536 0.0
H1292 H 0.80054 0.28856 0.68877 0.0
C1293 C 0.78972 0.28991 0.80585 0.0
C1294 C 0.74625 0.22685 0.74865 0.0
C1295 C 0.79892 0.29505 0.83662 0.0
C1296 C 0.71434 0.21395 0.61979 0.0
C1297 C 0.72085 0.22233 0.65059 0.0
C1298 C 0.78506 0.27112 0.7052 0.0
C1299 C 0.78157 0.26087 0.79147 0.0
C1300 C 0.77283 0.25532 0.75845 0.0
C1301 C 0.75184 0.23495 0.66224 0.0
C1302 C 0.75859 0.24252 0.69541 0.0
H1303 H 0.79393 0.22395 0.85135 0.0
H1304 H 0.77685 0.21462 0.79844 0.0
H1305 H 0.81267 0.29961 0.74295 0.0
H1306 H 0.78881 0.23324 0.59686 0.0
H1307 H 0.80027 0.24868 0.65022 0.0
loop_
_geom_bond_atom_site_label_1
_geom_bond_atom_site_label_2
_geom_bond_distance
_geom_bond_site_symmetry_2
_ccdc_geom_bond_type
Co0 O3 1.970 . S
Co0 N17 1.989 . S
Co0 O25 1.967 . S
Co0 O32 1.920 . S
Co1 O4 1.966 . S
Co1 N10 2.022 . S
Co1 N18 1.993 . S
Co1 O26 1.941 . S
C2 O3 1.258 . S
C2 O4 1.263 1_554 S
O3 Co0 1.970 . S
O3 C2 1.258 . S
O4 Co1 1.966 . S
O4 C2 1.263 1_556 S
C5 O6 1.235 . S
C5 O32 1.289 . S
O6 C5 1.235 . S
C7 C9 1.400 . S
C7 N10 1.351 . S
C7 C12 1.501 . S
C8 C9 1.387 . S
C8 N11 1.341 . S
C9 C7 1.400 . S
C9 C8 1.387 . S
N10 Co1 2.022 . S
N10 C7 1.351 . S
N10 N11 1.365 . S
N11 C8 1.341 . S
N11 N10 1.365 . S
N11 H31 0.862 . S
C12 C7 1.501 . S
C12 H13 0.961 . S
C12 H14 0.961 . S
C12 H15 0.960 . S
H13 C12 0.961 . S
H14 C12 0.961 . S
H15 C12 0.960 . S
C16 N17 1.342 . S
C16 C20 1.401 . S
C16 C21 1.499 . S
N17 Co0 1.989 . S
N17 C16 1.342 . S
N17 N18 1.388 1_554 S
N18 Co1 1.993 . S
N18 N17 1.388 1_556 S
N18 C19 1.346 . S
C19 N18 1.346 . S
C19 C20 1.396 1_556 S
C19 C29 1.510 . S
C20 C16 1.401 . S
C20 C19 1.396 1_554 S
C21 C16 1.499 . S
C21 H22 0.959 . S
C21 H23 0.960 . S
C21 H24 0.961 . S
H22 C21 0.959 . S
H23 C21 0.960 . S
H24 C21 0.961 . S
O25 Co0 1.967 . S
O25 C33 1.258 . S
O26 Co1 1.941 . S
O26 C33 1.266 1_556 S
H27 C29 0.959 . S
H28 C29 0.961 . S
C29 C19 1.510 . S
C29 H27 0.959 . S
C29 H28 0.961 . S
C29 H30 0.960 . S
H30 C29 0.960 . S
H31 N11 0.862 . S
O32 Co0 1.920 . S
O32 C5 1.289 . S
C33 O25 1.258 . S
C33 O26 1.266 1_554 S
Co34 O37 1.970 . S
Co34 N51 1.989 . S
Co34 O59 1.967 . S
Co34 O66 1.920 . S
Co35 O38 1.966 1_556 S
Co35 N44 2.022 . S
Co35 N52 1.993 1_556 S
Co35 O60 1.941 1_556 S
C36 O37 1.258 . S
C36 O38 1.263 . S
O37 Co34 1.970 . S
O37 C36 1.258 . S
O38 Co35 1.966 1_554 S
O38 C36 1.263 . S
C39 O40 1.235 . S
C39 O66 1.289 . S
O40 C39 1.235 . S
C41 C43 1.400 . S
C41 N44 1.351 . S
C41 C46 1.501 . S
C42 C43 1.387 . S
C42 N45 1.341 . S
C43 C41 1.400 . S
C43 C42 1.387 . S
N44 Co35 2.022 . S
N44 C41 1.351 . S
N44 N45 1.365 . S
N45 C42 1.341 . S
N45 N44 1.365 . S
N45 H65 0.862 . S
C46 C41 1.501 . S
C46 H47 0.961 . S
C46 H48 0.961 . S
C46 H49 0.960 . S
H47 C46 0.961 . S
H48 C46 0.961 . S
H49 C46 0.960 . S
C50 N51 1.342 . S
C50 C54 1.401 . S
C50 C55 1.499 . S
N51 Co34 1.989 . S
N51 C50 1.342 . S
N51 N52 1.388 . S
N52 Co35 1.993 1_554 S
N52 N51 1.388 . S
N52 C53 1.346 . S
C53 N52 1.346 . S
C53 C54 1.396 . S
C53 C63 1.510 1_554 S
C54 C50 1.401 . S
C54 C53 1.396 . S
C55 C50 1.499 . S
C55 H56 0.959 . S
C55 H57 0.960 . S
C55 H58 0.961 . S
H56 C55 0.959 . S
H57 C55 0.960 . S
H58 C55 0.961 . S
O59 Co34 1.967 . S
O59 C67 1.258 . S
O60 Co35 1.941 1_554 S
O60 C67 1.266 . S
H61 C63 0.959 . S
H62 C63 0.961 . S
C63 C53 1.510 1_556 S
C63 H61 0.959 . S
C63 H62 0.961 . S
C63 H64 0.960 . S
H64 C63 0.960 . S
H65 N45 0.862 . S
O66 Co34 1.920 . S
O66 C39 1.289 . S
C67 O59 1.258 . S
C67 O60 1.266 . S
Co68 O71 1.970 . S
Co68 N85 1.989 . S
Co68 O93 1.967 . S
Co68 O100 1.920 . S
Co69 O72 1.966 . S
Co69 N78 2.022 . S
Co69 N86 1.993 . S
Co69 O94 1.941 . S
C70 O71 1.258 . S
C70 O72 1.263 1_554 S
O71 Co68 1.970 . S
O71 C70 1.258 . S
O72 Co69 1.966 . S
O72 C70 1.263 1_556 S
C73 O74 1.235 . S
C73 O100 1.289 . S
O74 C73 1.235 . S
C75 C77 1.400 . S
C75 N78 1.351 . S
C75 C80 1.501 . S
C76 C77 1.387 . S
C76 N79 1.341 . S
C77 C75 1.400 . S
C77 C76 1.387 . S
N78 Co69 2.022 . S
N78 C75 1.351 . S
N78 N79 1.365 . S
N79 C76 1.341 . S
N79 N78 1.365 . S
N79 H99 0.862 . S
C80 C75 1.501 . S
C80 H81 0.961 . S
C80 H82 0.961 . S
C80 H83 0.960 . S
H81 C80 0.961 . S
H82 C80 0.961 . S
H83 C80 0.960 . S
C84 N85 1.342 . S
C84 C88 1.401 . S
C84 C89 1.499 . S
N85 Co68 1.989 . S
N85 C84 1.342 . S
N85 N86 1.388 1_554 S
N86 Co69 1.993 . S
N86 N85 1.388 1_556 S
N86 C87 1.346 . S
C87 N86 1.346 . S
C87 C88 1.396 1_556 S
C87 C97 1.510 . S
C88 C84 1.401 . S
C88 C87 1.396 1_554 S
C89 C84 1.499 . S
C89 H90 0.959 . S
C89 H91 0.960 . S
C89 H92 0.961 . S
H90 C89 0.959 . S
H91 C89 0.960 . S
H92 C89 0.961 . S
O93 Co68 1.967 . S
O93 C101 1.258 . S
O94 Co69 1.941 . S
O94 C101 1.266 1_556 S
H95 C97 0.959 . S
H96 C97 0.961 . S
C97 C87 1.510 . S
C97 H95 0.959 . S
C97 H96 0.961 . S
C97 H98 0.960 . S
H98 C97 0.960 . S
H99 N79 0.862 . S
O100 Co68 1.920 . S
O100 C73 1.289 . S
C101 O93 1.258 . S
C101 O94 1.266 1_554 S
Co102 O105 1.970 . S
Co102 N119 1.989 . S
Co102 O127 1.967 . S
Co102 O134 1.920 . S
Co103 O106 1.966 1_556 S
Co103 N112 2.022 . S
Co103 N120 1.993 1_556 S
Co103 O128 1.941 1_556 S
C104 O105 1.258 . S
C104 O106 1.263 . S
O105 Co102 1.970 . S
O105 C104 1.258 . S
O106 Co103 1.966 1_554 S
O106 C104 1.263 . S
C107 O108 1.235 . S
C107 O134 1.289 . S
O108 C107 1.235 . S
C109 C111 1.400 . S
C109 N112 1.351 . S
C109 C114 1.501 . S
C110 C111 1.387 . S
C110 N113 1.341 . S
C111 C109 1.400 . S
C111 C110 1.387 . S
N112 Co103 2.022 . S
N112 C109 1.351 . S
N112 N113 1.365 . S
N113 C110 1.341 . S
N113 N112 1.365 . S
N113 H133 0.862 . S
C114 C109 1.501 . S
C114 H115 0.961 . S
C114 H116 0.961 . S
C114 H117 0.960 . S
H115 C114 0.961 . S
H116 C114 0.961 . S
H117 C114 0.960 . S
C118 N119 1.342 . S
C118 C122 1.401 . S
C118 C123 1.499 . S
N119 Co102 1.989 . S
N119 C118 1.342 . S
N119 N120 1.388 . S
N120 Co103 1.993 1_554 S
N120 N119 1.388 . S
N120 C121 1.346 . S
C121 N120 1.346 . S
C121 C122 1.396 . S
C121 C131 1.510 1_554 S
C122 C118 1.401 . S
C122 C121 1.396 . S
C123 C118 1.499 . S
C123 H124 0.959 . S
C123 H125 0.960 . S
C123 H126 0.961 . S
H124 C123 0.959 . S
H125 C123 0.960 . S
H126 C123 0.961 . S
O127 Co102 1.967 . S
O127 C135 1.258 . S
O128 Co103 1.941 1_554 S
O128 C135 1.266 . S
H129 C131 0.959 . S
H130 C131 0.961 . S
C131 C121 1.510 1_556 S
C131 H129 0.959 . S
C131 H130 0.961 . S
C131 H132 0.960 . S
H132 C131 0.960 . S
H133 N113 0.862 . S
O134 Co102 1.920 . S
O134 C107 1.289 . S
C135 O127 1.258 . S
C135 O128 1.266 . S
Co136 O139 1.970 . S
Co136 N153 1.989 . S
Co136 O161 1.967 . S
Co136 O168 1.920 . S
Co137 O140 1.966 . S
Co137 N146 2.022 . S
Co137 N154 1.993 . S
Co137 O162 1.941 . S
C138 O139 1.258 . S
C138 O140 1.263 1_554 S
O139 Co136 1.970 . S
O139 C138 1.258 . S
O140 Co137 1.966 . S
O140 C138 1.263 1_556 S
C141 O142 1.235 . S
C141 O168 1.289 . S
O142 C141 1.235 . S
C143 C145 1.400 . S
C143 N146 1.351 . S
C143 C148 1.501 . S
C144 C145 1.387 . S
C144 N147 1.341 . S
C145 C143 1.400 . S
C145 C144 1.387 . S
N146 Co137 2.022 . S
N146 C143 1.351 . S
N146 N147 1.365 . S
N147 C144 1.341 . S
N147 N146 1.365 . S
N147 H167 0.862 . S
C148 C143 1.501 . S
C148 H149 0.961 . S
C148 H150 0.961 . S
C148 H151 0.960 . S
H149 C148 0.961 . S
H150 C148 0.961 . S
H151 C148 0.960 . S
C152 N153 1.342 . S
C152 C156 1.401 . S
C152 C157 1.499 . S
N153 Co136 1.989 . S
N153 C152 1.342 . S
N153 N154 1.388 1_554 S
N154 Co137 1.993 . S
N154 N153 1.388 1_556 S
N154 C155 1.346 . S
C155 N154 1.346 . S
C155 C156 1.396 1_556 S
C155 C165 1.510 . S
C156 C152 1.401 . S
C156 C155 1.396 1_554 S
C157 C152 1.499 . S
C157 H158 0.959 . S
C157 H159 0.960 . S
C157 H160 0.961 . S
H158 C157 0.959 . S
H159 C157 0.960 . S
H160 C157 0.961 . S
O161 Co136 1.967 . S
O161 C169 1.258 . S
O162 Co137 1.941 . S
O162 C169 1.266 1_556 S
H163 C165 0.959 . S
H164 C165 0.961 . S
C165 C155 1.510 . S
C165 H163 0.959 . S
C165 H164 0.961 . S
C165 H166 0.960 . S
H166 C165 0.960 . S
H167 N147 0.862 . S
O168 Co136 1.920 . S
O168 C141 1.289 . S
C169 O161 1.258 . S
C169 O162 1.266 1_554 S
Co170 O173 1.970 . S
Co170 N187 1.989 . S
Co170 O195 1.967 . S
Co170 O202 1.920 . S
Co171 O174 1.966 1_556 S
Co171 N180 2.022 . S
Co171 N188 1.993 1_556 S
Co171 O196 1.941 1_556 S
C172 O173 1.258 . S
C172 O174 1.263 . S
O173 Co170 1.970 . S
O173 C172 1.258 . S
O174 Co171 1.966 1_554 S
O174 C172 1.263 . S
C175 O176 1.235 . S
C175 O202 1.289 . S
O176 C175 1.235 . S
C177 C179 1.400 . S
C177 N180 1.351 . S
C177 C182 1.501 . S
C178 C179 1.387 . S
C178 N181 1.341 . S
C179 C177 1.400 . S
C179 C178 1.387 . S
N180 Co171 2.022 . S
N180 C177 1.351 . S
N180 N181 1.365 . S
N181 C178 1.341 . S
N181 N180 1.365 . S
N181 H201 0.862 . S
C182 C177 1.501 . S
C182 H183 0.961 . S
C182 H184 0.961 . S
C182 H185 0.960 . S
H183 C182 0.961 . S
H184 C182 0.961 . S
H185 C182 0.960 . S
C186 N187 1.342 . S
C186 C190 1.401 . S
C186 C191 1.499 . S
N187 Co170 1.989 . S
N187 C186 1.342 . S
N187 N188 1.388 . S
N188 Co171 1.993 1_554 S
N188 N187 1.388 . S
N188 C189 1.346 . S
C189 N188 1.346 . S
C189 C190 1.396 . S
C189 C199 1.510 1_554 S
C190 C186 1.401 . S
C190 C189 1.396 . S
C191 C186 1.499 . S
C191 H192 0.959 . S
C191 H193 0.960 . S
C191 H194 0.961 . S
H192 C191 0.959 . S
H193 C191 0.960 . S
H194 C191 0.961 . S
O195 Co170 1.967 . S
O195 C203 1.258 . S
O196 Co171 1.941 1_554 S
O196 C203 1.266 . S
H197 C199 0.959 . S
H198 C199 0.961 . S
C199 C189 1.510 1_556 S
C199 H197 0.959 . S
C199 H198 0.961 . S
C199 H200 0.960 . S
H200 C199 0.960 . S
H201 N181 0.862 . S
O202 Co170 1.920 . S
O202 C175 1.289 . S
C203 O195 1.258 . S
C203 O196 1.266 . S
Co204 O207 1.970 . S
Co204 N221 1.989 . S
Co204 O229 1.967 . S
Co204 O236 1.920 . S
Co205 O208 1.966 . S
Co205 N214 2.022 . S
Co205 N222 1.993 . S
Co205 O230 1.941 . S
C206 O207 1.258 . S
C206 O208 1.263 . S
O207 Co204 1.970 . S
O207 C206 1.258 . S
O208 Co205 1.966 . S
O208 C206 1.263 . S
C209 O210 1.235 . S
C209 O236 1.289 . S
O210 C209 1.235 . S
C211 C213 1.400 . S
C211 N214 1.351 . S
C211 C216 1.501 . S
C212 C213 1.387 . S
C212 N215 1.341 . S
C213 C211 1.400 . S
C213 C212 1.387 . S
N214 Co205 2.022 . S
N214 C211 1.351 . S
N214 N215 1.365 . S
N215 C212 1.341 . S
N215 N214 1.365 . S
N215 H235 0.862 . S
C216 C211 1.501 . S
C216 H217 0.961 . S
C216 H218 0.961 . S
C216 H219 0.960 . S
H217 C216 0.961 . S
H218 C216 0.961 . S
H219 C216 0.960 . S
C220 N221 1.342 . S
C220 C224 1.401 . S
C220 C225 1.499 . S
N221 Co204 1.989 . S
N221 C220 1.342 . S
N221 N222 1.388 . S
N222 Co205 1.993 . S
N222 N221 1.388 . S
N222 C223 1.346 . S
C223 N222 1.346 . S
C223 C224 1.396 . S
C223 C233 1.510 . S
C224 C220 1.401 . S
C224 C223 1.396 . S
C225 C220 1.499 . S
C225 H226 0.959 . S
C225 H227 0.960 . S
C225 H228 0.961 . S
H226 C225 0.959 . S
H227 C225 0.960 . S
H228 C225 0.961 . S
O229 Co204 1.967 . S
O229 C237 1.258 . S
O230 Co205 1.941 . S
O230 C237 1.266 . S
H231 C233 0.959 . S
H232 C233 0.961 . S
C233 C223 1.510 . S
C233 H231 0.959 . S
C233 H232 0.961 . S
C233 H234 0.960 . S
H234 C233 0.960 . S
H235 N215 0.862 . S
O236 Co204 1.920 . S
O236 C209 1.289 . S
C237 O229 1.258 . S
C237 O230 1.266 . S
Co238 O241 1.970 . S
Co238 N255 1.989 . S
Co238 O263 1.967 . S
Co238 O270 1.920 . S
Co239 O242 1.966 . S
Co239 N248 2.022 . S
Co239 N256 1.993 . S
Co239 O264 1.941 . S
C240 O241 1.258 . S
C240 O242 1.263 . S
O241 Co238 1.970 . S
O241 C240 1.258 . S
O242 Co239 1.966 . S
O242 C240 1.263 . S
C243 O244 1.235 . S
C243 O270 1.289 . S
O244 C243 1.235 . S
C245 C247 1.400 . S
C245 N248 1.351 . S
C245 C250 1.501 . S
C246 C247 1.387 . S
C246 N249 1.341 . S
C247 C245 1.400 . S
C247 C246 1.387 . S
N248 Co239 2.022 . S
N248 C245 1.351 . S
N248 N249 1.365 . S
N249 C246 1.341 . S
N249 N248 1.365 . S
N249 H269 0.862 . S
C250 C245 1.501 . S
C250 H251 0.961 . S
C250 H252 0.961 . S
C250 H253 0.960 . S
H251 C250 0.961 . S
H252 C250 0.961 . S
H253 C250 0.960 . S
C254 N255 1.342 . S
C254 C258 1.401 . S
C254 C259 1.499 . S
N255 Co238 1.989 . S
N255 C254 1.342 . S
N255 N256 1.388 . S
N256 Co239 1.993 . S
N256 N255 1.388 . S
N256 C257 1.346 . S
C257 N256 1.346 . S
C257 C258 1.396 . S
C257 C267 1.510 . S
C258 C254 1.401 . S
C258 C257 1.396 . S
C259 C254 1.499 . S
C259 H260 0.959 . S
C259 H261 0.960 . S
C259 H262 0.961 . S
H260 C259 0.959 . S
H261 C259 0.960 . S
H262 C259 0.961 . S
O263 Co238 1.967 . S
O263 C271 1.258 . S
O264 Co239 1.941 . S
O264 C271 1.266 . S
H265 C267 0.959 . S
H266 C267 0.961 . S
C267 C257 1.510 . S
C267 H265 0.959 . S
C267 H266 0.961 . S
C267 H268 0.960 . S
H268 C267 0.960 . S
H269 N249 0.862 . S
O270 Co238 1.920 . S
O270 C243 1.289 . S
C271 O263 1.258 . S
C271 O264 1.266 . S
Co272 O275 1.970 . S
Co272 N289 1.989 . S
Co272 O297 1.967 . S
Co272 O304 1.920 . S
Co273 O276 1.966 . S
Co273 N282 2.022 . S
Co273 N290 1.993 . S
Co273 O298 1.941 . S
C274 O275 1.258 . S
C274 O276 1.263 . S
O275 Co272 1.970 . S
O275 C274 1.258 . S
O276 Co273 1.966 . S
O276 C274 1.263 . S
C277 O278 1.235 . S
C277 O304 1.289 . S
O278 C277 1.235 . S
C279 C281 1.400 . S
C279 N282 1.351 . S
C279 C284 1.501 . S
C280 C281 1.387 . S
C280 N283 1.341 . S
C281 C279 1.400 . S
C281 C280 1.387 . S
N282 Co273 2.022 . S
N282 C279 1.351 . S
N282 N283 1.365 . S
N283 C280 1.341 . S
N283 N282 1.365 . S
N283 H303 0.862 . S
C284 C279 1.501 . S
C284 H285 0.961 . S
C284 H286 0.961 . S
C284 H287 0.960 . S
H285 C284 0.961 . S
H286 C284 0.961 . S
H287 C284 0.960 . S
C288 N289 1.342 . S
C288 C292 1.401 . S
C288 C293 1.499 . S
N289 Co272 1.989 . S
N289 C288 1.342 . S
N289 N290 1.388 . S
N290 Co273 1.993 . S
N290 N289 1.388 . S
N290 C291 1.346 . S
C291 N290 1.346 . S
C291 C292 1.396 . S
C291 C301 1.510 . S
C292 C288 1.401 . S
C292 C291 1.396 . S
C293 C288 1.499 . S
C293 H294 0.959 . S
C293 H295 0.960 . S
C293 H296 0.961 . S
H294 C293 0.959 . S
H295 C293 0.960 . S
H296 C293 0.961 . S
O297 Co272 1.967 . S
O297 C305 1.258 . S
O298 Co273 1.941 . S
O298 C305 1.266 . S
H299 C301 0.959 . S
H300 C301 0.961 . S
C301 C291 1.510 . S
C301 H299 0.959 . S
C301 H300 0.961 . S
C301 H302 0.960 . S
H302 C301 0.960 . S
H303 N283 0.862 . S
O304 Co272 1.920 . S
O304 C277 1.289 . S
C305 O297 1.258 . S
C305 O298 1.266 . S
Co306 O309 1.970 . S
Co306 N323 1.989 . S
Co306 O331 1.967 . S
Co306 O338 1.920 . S
Co307 O310 1.966 . S
Co307 N316 2.022 . S
Co307 N324 1.993 . S
Co307 O332 1.941 . S
C308 O309 1.258 . S
C308 O310 1.263 . S
O309 Co306 1.970 . S
O309 C308 1.258 . S
O310 Co307 1.966 . S
O310 C308 1.263 . S
C311 O312 1.235 . S
C311 O338 1.289 . S
O312 C311 1.235 . S
C313 C315 1.400 . S
C313 N316 1.351 . S
C313 C318 1.501 . S
C314 C315 1.387 . S
C314 N317 1.341 . S
C315 C313 1.400 . S
C315 C314 1.387 . S
N316 Co307 2.022 . S
N316 C313 1.351 . S
N316 N317 1.365 . S
N317 C314 1.341 . S
N317 N316 1.365 . S
N317 H337 0.862 . S
C318 C313 1.501 . S
C318 H319 0.961 . S
C318 H320 0.961 . S
C318 H321 0.960 . S
H319 C318 0.961 . S
H320 C318 0.961 . S
H321 C318 0.960 . S
C322 N323 1.342 . S
C322 C326 1.401 . S
C322 C327 1.499 . S
N323 Co306 1.989 . S
N323 C322 1.342 . S
N323 N324 1.388 . S
N324 Co307 1.993 . S
N324 N323 1.388 . S
N324 C325 1.346 . S
C325 N324 1.346 . S
C325 C326 1.396 . S
C325 C335 1.510 . S
C326 C322 1.401 . S
C326 C325 1.396 . S
C327 C322 1.499 . S
C327 H328 0.959 . S
C327 H329 0.960 . S
C327 H330 0.961 . S
H328 C327 0.959 . S
H329 C327 0.960 . S
H330 C327 0.961 . S
O331 Co306 1.967 . S
O331 C339 1.258 . S
O332 Co307 1.941 . S
O332 C339 1.266 . S
H333 C335 0.959 . S
H334 C335 0.961 . S
C335 C325 1.510 . S
C335 H333 0.959 . S
C335 H334 0.961 . S
C335 H336 0.960 . S
H336 C335 0.960 . S
H337 N317 0.862 . S
O338 Co306 1.920 . S
O338 C311 1.289 . S
C339 O331 1.258 . S
C339 O332 1.266 . S
Co340 O343 1.970 . S
Co340 N357 1.989 . S
Co340 O365 1.967 . S
Co340 O372 1.920 . S
Co341 O344 1.966 . S
Co341 N350 2.022 . S
Co341 N358 1.993 . S
Co341 O366 1.941 . S
C342 O343 1.258 . S
C342 O344 1.263 . S
O343 Co340 1.970 . S
O343 C342 1.258 . S
O344 Co341 1.966 . S
O344 C342 1.263 . S
C345 O346 1.235 . S
C345 O372 1.289 . S
O346 C345 1.235 . S
C347 C349 1.400 . S
C347 N350 1.351 . S
C347 C352 1.501 . S
C348 C349 1.387 . S
C348 N351 1.341 . S
C349 C347 1.400 . S
C349 C348 1.387 . S
N350 Co341 2.022 . S
N350 C347 1.351 . S
N350 N351 1.365 . S
N351 C348 1.341 . S
N351 N350 1.365 . S
N351 H371 0.862 . S
C352 C347 1.501 . S
C352 H353 0.961 . S
C352 H354 0.961 . S
C352 H355 0.960 . S
H353 C352 0.961 . S
H354 C352 0.961 . S
H355 C352 0.960 . S
C356 N357 1.342 . S
C356 C360 1.401 . S
C356 C361 1.499 . S
N357 Co340 1.989 . S
N357 C356 1.342 . S
N357 N358 1.388 . S
N358 Co341 1.993 . S
N358 N357 1.388 . S
N358 C359 1.346 . S
C359 N358 1.346 . S
C359 C360 1.396 . S
C359 C369 1.510 . S
C360 C356 1.401 . S
C360 C359 1.396 . S
C361 C356 1.499 . S
C361 H362 0.959 . S
C361 H363 0.960 . S
C361 H364 0.961 . S
H362 C361 0.959 . S
H363 C361 0.960 . S
H364 C361 0.961 . S
O365 Co340 1.967 . S
O365 C373 1.258 . S
O366 Co341 1.941 . S
O366 C373 1.266 . S
H367 C369 0.959 . S
H368 C369 0.961 . S
C369 C359 1.510 . S
C369 H367 0.959 . S
C369 H368 0.961 . S
C369 H370 0.960 . S
H370 C369 0.960 . S
H371 N351 0.862 . S
O372 Co340 1.920 . S
O372 C345 1.289 . S
C373 O365 1.258 . S
C373 O366 1.266 . S
Co374 O377 1.970 . S
Co374 N391 1.989 . S
Co374 O399 1.967 . S
Co374 O406 1.920 . S
Co375 O378 1.966 . S
Co375 N384 2.022 . S
Co375 N392 1.993 . S
Co375 O400 1.941 . S
C376 O377 1.258 . S
C376 O378 1.263 . S
O377 Co374 1.970 . S
O377 C376 1.258 . S
O378 Co375 1.966 . S
O378 C376 1.263 . S
C379 O380 1.235 . S
C379 O406 1.289 . S
O380 C379 1.235 . S
C381 C383 1.400 . S
C381 N384 1.351 . S
C381 C386 1.501 . S
C382 C383 1.387 . S
C382 N385 1.341 . S
C383 C381 1.400 . S
C383 C382 1.387 . S
N384 Co375 2.022 . S
N384 C381 1.351 . S
N384 N385 1.365 . S
N385 C382 1.341 . S
N385 N384 1.365 . S
N385 H405 0.862 . S
C386 C381 1.501 . S
C386 H387 0.961 . S
C386 H388 0.961 . S
C386 H389 0.960 . S
H387 C386 0.961 . S
H388 C386 0.961 . S
H389 C386 0.960 . S
C390 N391 1.342 . S
C390 C394 1.401 . S
C390 C395 1.499 . S
N391 Co374 1.989 . S
N391 C390 1.342 . S
N391 N392 1.388 . S
N392 Co375 1.993 . S
N392 N391 1.388 . S
N392 C393 1.346 . S
C393 N392 1.346 . S
C393 C394 1.396 . S
C393 C403 1.510 . S
C394 C390 1.401 . S
C394 C393 1.396 . S
C395 C390 1.499 . S
C395 H396 0.959 . S
C395 H397 0.960 . S
C395 H398 0.961 . S
H396 C395 0.959 . S
H397 C395 0.960 . S
H398 C395 0.961 . S
O399 Co374 1.967 . S
O399 C407 1.258 . S
O400 Co375 1.941 . S
O400 C407 1.266 . S
H401 C403 0.959 . S
H402 C403 0.961 . S
C403 C393 1.510 . S
C403 H401 0.959 . S
C403 H402 0.961 . S
C403 H404 0.960 . S
H404 C403 0.960 . S
H405 N385 0.862 . S
O406 Co374 1.920 . S
O406 C379 1.289 . S
C407 O399 1.258 . S
C407 O400 1.266 . S
C408 C409 1.349 1_556 S
C408 C410 1.327 . S
C408 H433 0.950 . S
C409 C408 1.349 1_554 S
C409 C425 1.349 . S
C410 C408 1.327 . S
C410 C429 1.429 1_556 S
C410 H434 0.950 . S
C411 C428 1.574 1_545 S
C411 C430 1.368 . S
C411 H435 0.949 . S
H412 C416 0.965 1_565 S
C413 C414 1.349 . S
C413 C415 1.327 . S
C413 H436 0.950 . S
C414 C413 1.349 . S
C414 C426 1.349 . S
C415 C413 1.327 . S
C415 C431 1.429 . S
C415 H437 0.950 . S
C416 H412 0.965 1_545 S
C416 C424 1.576 . S
C416 C432 1.344 1_546 S
H417 C425 0.950 . S
H418 C423 0.950 . S
H419 C424 0.949 . S
H420 C426 0.950 1_556 S
H421 C427 0.950 1_556 S
H422 C428 0.949 . S
C423 H418 0.950 . S
C423 C425 1.327 . S
C423 C429 1.429 . S
C424 C416 1.576 . S
C424 H419 0.949 . S
C424 C430 1.368 1_556 S
C425 C409 1.349 . S
C425 H417 0.950 . S
C425 C423 1.327 . S
C426 C414 1.349 . S
C426 H420 0.950 1_554 S
C426 C427 1.327 . S
C427 H421 0.950 1_554 S
C427 C426 1.327 . S
C427 C431 1.429 . S
C428 C411 1.574 1_565 S
C428 H422 0.949 . S
C428 C432 1.368 . S
C429 C410 1.429 1_554 S
C429 C423 1.429 . S
C429 C430 1.523 . S
C430 C411 1.368 . S
C430 C424 1.368 1_554 S
C430 C429 1.523 . S
C431 C415 1.429 . S
C431 C427 1.429 . S
C431 C432 1.523 . S
C432 C416 1.344 1_564 S
C432 C428 1.368 . S
C432 C431 1.523 . S
H433 C408 0.950 . S
H434 C410 0.950 . S
H435 C411 0.949 . S
H436 C413 0.950 . S
H437 C415 0.950 . S
C438 C439 1.349 . S
C438 C440 1.327 . S
C438 H463 0.950 . S
C439 C438 1.349 . S
C439 C455 1.349 . S
C440 C438 1.327 . S
C440 C459 1.429 . S
C440 H464 0.950 . S
C441 C458 1.574 . S
C441 C460 1.368 . S
C441 H465 0.949 1_554 S
H442 C446 0.949 . S
C443 C444 1.349 . S
C443 C445 1.327 . S
C443 H466 0.950 . S
C444 C443 1.349 . S
C444 C456 1.349 . S
C445 C443 1.327 . S
C445 C461 1.429 . S
C445 H467 0.950 . S
C446 H442 0.949 . S
C446 C454 1.574 . S
C446 C462 1.368 . S
H447 C455 0.950 1_556 S
H448 C453 0.950 1_556 S
H449 C454 0.949 . S
H450 C456 0.950 . S
H451 C457 0.950 . S
H452 C458 0.960 . S
C453 H448 0.950 1_554 S
C453 C455 1.327 . S
C453 C459 1.429 . S
C454 C446 1.574 . S
C454 H449 0.949 . S
C454 C460 1.368 . S
C455 C439 1.349 . S
C455 H447 0.950 1_554 S
C455 C453 1.327 . S
C456 C444 1.349 . S
C456 H450 0.950 . S
C456 C457 1.327 . S
C457 H451 0.950 . S
C457 C456 1.327 . S
C457 C461 1.429 . S
C458 C441 1.574 . S
C458 H452 0.960 . S
C458 C462 1.368 . S
C459 C440 1.429 . S
C459 C453 1.429 . S
C459 C460 1.523 . S
C460 C441 1.368 . S
C460 C454 1.368 . S
C460 C459 1.523 . S
C461 C445 1.429 . S
C461 C457 1.429 . S
C461 C462 1.523 . S
C462 C446 1.368 . S
C462 C458 1.368 . S
C462 C461 1.523 . S
H463 C438 0.950 . S
H464 C440 0.950 . S
H465 C441 0.949 1_556 S
H466 C443 0.950 . S
H467 C445 0.950 . S
C468 C469 1.349 1_556 S
C468 C470 1.327 . S
C468 H493 0.950 . S
C469 C468 1.349 1_554 S
C469 C485 1.349 . S
C470 C468 1.327 . S
C470 C489 1.429 1_556 S
C470 H494 0.950 . S
C471 C488 1.568 1_455 S
C471 C490 1.374 . S
C471 H495 0.949 . S
H472 C476 0.949 . S
C473 C474 1.349 . S
C473 C475 1.327 . S
C473 H496 0.950 . S
C474 C473 1.349 . S
C474 C486 1.349 1_554 S
C475 C473 1.327 . S
C475 C491 1.429 . S
C475 H497 0.950 . S
C476 H472 0.949 . S
C476 C484 1.574 1_655 S
C476 C492 1.368 1_556 S
H477 C485 0.950 . S
H478 C483 0.950 . S
H479 C484 0.949 . S
H480 C486 0.950 . S
H481 C487 0.950 . S
H482 C488 0.949 . S
C483 H478 0.950 . S
C483 C485 1.327 . S
C483 C489 1.429 . S
C484 C476 1.574 1_455 S
C484 H479 0.949 . S
C484 C490 1.368 1_556 S
C485 C469 1.349 . S
C485 H477 0.950 . S
C485 C483 1.327 . S
C486 C474 1.349 1_556 S
C486 H480 0.950 . S
C486 C487 1.327 . S
C487 H481 0.950 . S
C487 C486 1.327 . S
C487 C491 1.429 1_556 S
C488 C471 1.568 1_655 S
C488 H482 0.949 . S
C488 C492 1.368 . S
C489 C470 1.429 1_554 S
C489 C483 1.429 . S
C489 C490 1.523 . S
C490 C471 1.374 . S
C490 C484 1.368 1_554 S
C490 C489 1.523 . S
C491 C475 1.429 . S
C491 C487 1.429 1_554 S
C491 C492 1.523 . S
C492 C476 1.368 1_554 S
C492 C488 1.368 . S
C492 C491 1.523 . S
H493 C468 0.950 . S
H494 C470 0.950 . S
H495 C471 0.949 . S
H496 C473 0.950 . S
H497 C475 0.950 . S
C498 C499 1.349 . S
C498 C500 1.327 . S
C498 H523 0.950 . S
C499 C498 1.349 . S
C499 C515 1.349 . S
C500 C498 1.327 . S
C500 C519 1.429 . S
C500 H524 0.950 . S
C501 C518 1.574 1_455 S
C501 C520 1.368 . S
C501 H525 0.949 . S
H502 C506 0.949 . S
C503 C504 1.349 . S
C503 C505 1.327 . S
C503 H526 0.950 . S
C504 C503 1.349 . S
C504 C516 1.349 . S
C505 C503 1.327 . S
C505 C521 1.429 . S
C505 H527 0.950 . S
C506 H502 0.949 . S
C506 C514 1.574 . S
C506 C522 1.368 1_455 S
H507 C515 0.950 . S
H508 C513 0.950 . S
H509 C514 0.949 . S
H510 C516 0.950 . S
H511 C517 0.950 . S
H512 C518 0.949 . S
C513 H508 0.950 . S
C513 C515 1.327 . S
C513 C519 1.429 . S
C514 C506 1.574 . S
C514 H509 0.949 . S
C514 C520 1.368 . S
C515 C499 1.349 . S
C515 H507 0.950 . S
C515 C513 1.327 . S
C516 C504 1.349 . S
C516 H510 0.950 . S
C516 C517 1.327 . S
C517 H511 0.950 . S
C517 C516 1.327 . S
C517 C521 1.429 . S
C518 C501 1.574 1_655 S
C518 H512 0.949 . S
C518 C522 1.368 . S
C519 C500 1.429 . S
C519 C513 1.429 . S
C519 C520 1.523 . S
C520 C501 1.368 . S
C520 C514 1.368 . S
C520 C519 1.523 . S
C521 C505 1.429 . S
C521 C517 1.429 . S
C521 C522 1.523 . S
C522 C506 1.368 1_655 S
C522 C518 1.368 . S
C522 C521 1.523 . S
H523 C498 0.950 . S
H524 C500 0.950 . S
H525 C501 0.949 . S
H526 C503 0.950 . S
H527 C505 0.950 . S
C528 C529 1.349 . S
C528 C530 1.327 . S
C528 H553 0.950 . S
C529 C528 1.349 . S
C529 C545 1.349 . S
C530 C528 1.327 . S
C530 C549 1.429 . S
C530 H554 0.950 . S
C531 C548 1.574 . S
C531 C550 1.368 1_565 S
C531 H555 0.949 1_565 S
H532 C536 0.949 . S
C533 C534 1.349 . S
C533 C535 1.327 . S
C533 H556 0.950 . S
C534 C533 1.349 . S
C534 C546 1.349 . S
C535 C533 1.327 . S
C535 C551 1.429 . S
C535 H557 0.950 . S
C536 H532 0.949 . S
C536 C544 1.574 . S
C536 C552 1.368 . S
H537 C545 0.950 . S
H538 C543 0.950 . S
H539 C544 0.948 1_545 S
H540 C546 0.950 . S
H541 C547 0.950 . S
H542 C548 0.949 . S
C543 H538 0.950 . S
C543 C545 1.327 . S
C543 C549 1.429 . S
C544 C536 1.574 . S
C544 H539 0.948 1_565 S
C544 C550 1.368 1_565 S
C545 C529 1.349 . S
C545 H537 0.950 . S
C545 C543 1.327 . S
C546 C534 1.349 . S
C546 H540 0.950 . S
C546 C547 1.327 . S
C547 H541 0.950 . S
C547 C546 1.327 . S
C547 C551 1.429 . S
C548 C531 1.574 . S
C548 H542 0.949 . S
C548 C552 1.368 . S
C549 C530 1.429 . S
C549 C543 1.429 . S
C549 C550 1.523 . S
C550 C531 1.368 1_545 S
C550 C544 1.368 1_545 S
C550 C549 1.523 . S
C551 C535 1.429 . S
C551 C547 1.429 . S
C551 C552 1.523 . S
C552 C536 1.368 . S
C552 C548 1.368 . S
C552 C551 1.523 . S
H553 C528 0.950 . S
H554 C530 0.950 . S
H555 C531 0.949 1_545 S
H556 C533 0.950 . S
H557 C535 0.950 . S
C558 C559 1.349 . S
C558 C560 1.327 . S
C558 H583 0.950 . S
C559 C558 1.349 . S
C559 C575 1.349 . S
C560 C558 1.327 . S
C560 C579 1.429 . S
C560 H584 0.950 . S
C561 C578 1.574 . S
C561 C580 1.368 . S
C561 H585 0.949 . S
H562 C566 0.949 . S
C563 C564 1.349 . S
C563 C565 1.327 . S
C563 H586 0.950 . S
C564 C563 1.349 . S
C564 C576 1.349 . S
C565 C563 1.327 . S
C565 C581 1.429 . S
C565 H587 0.950 . S
C566 H562 0.949 . S
C566 C574 1.574 . S
C566 C582 1.368 . S
H567 C575 0.950 . S
H568 C573 0.950 . S
H569 C574 0.949 . S
H570 C576 0.950 . S
H571 C577 0.950 . S
H572 C578 0.949 . S
C573 H568 0.950 . S
C573 C575 1.327 . S
C573 C579 1.429 . S
C574 C566 1.574 . S
C574 H569 0.949 . S
C574 C580 1.368 . S
C575 C559 1.349 . S
C575 H567 0.950 . S
C575 C573 1.327 . S
C576 C564 1.349 . S
C576 H570 0.950 . S
C576 C577 1.327 . S
C577 H571 0.950 . S
C577 C576 1.327 . S
C577 C581 1.429 . S
C578 C561 1.574 . S
C578 H572 0.949 . S
C578 C582 1.368 . S
C579 C560 1.429 . S
C579 C573 1.429 . S
C579 C580 1.523 . S
C580 C561 1.368 . S
C580 C574 1.368 . S
C580 C579 1.523 . S
C581 C565 1.429 . S
C581 C577 1.429 . S
C581 C582 1.523 . S
C582 C566 1.368 . S
C582 C578 1.368 . S
C582 C581 1.523 . S
H583 C558 0.950 . S
H584 C560 0.950 . S
H585 C561 0.949 . S
H586 C563 0.950 . S
H587 C565 0.950 . S
C588 C589 1.349 . S
C588 C590 1.327 . S
C588 H613 0.950 . S
C589 C588 1.349 . S
C589 C605 1.349 1_554 S
C590 C588 1.327 . S
C590 C609 1.429 . S
C590 H614 0.950 . S
C591 C608 1.574 . S
C591 C610 1.368 1_556 S
C591 H615 0.949 . S
H592 C596 0.949 . S
C593 C594 1.349 . S
C593 C595 1.327 . S
C593 H616 0.950 1_554 S
C594 C593 1.349 . S
C594 C606 1.349 . S
C595 C593 1.327 . S
C595 C611 1.429 . S
C595 H617 0.950 1_554 S
C596 H592 0.949 . S
C596 C604 1.574 . S
C596 C612 1.368 . S
H597 C605 0.950 . S
H598 C603 0.950 . S
H599 C604 0.949 . S
H600 C606 0.950 . S
H601 C607 0.950 . S
H602 C608 0.949 . S
C603 H598 0.950 . S
C603 C605 1.327 . S
C603 C609 1.429 1_556 S
C604 C596 1.574 . S
C604 H599 0.949 . S
C604 C610 1.368 . S
C605 C589 1.349 1_556 S
C605 H597 0.950 . S
C605 C603 1.327 . S
C606 C594 1.349 . S
C606 H600 0.950 . S
C606 C607 1.327 . S
C607 H601 0.950 . S
C607 C606 1.327 . S
C607 C611 1.429 . S
C608 C591 1.574 . S
C608 H602 0.949 . S
C608 C612 1.368 1_556 S
C609 C590 1.429 . S
C609 C603 1.429 1_554 S
C609 C610 1.523 1_545 S
C610 C591 1.368 1_554 S
C610 C604 1.368 . S
C610 C609 1.523 1_565 S
C611 C595 1.429 . S
C611 C607 1.429 . S
C611 C612 1.523 . S
C612 C596 1.368 . S
C612 C608 1.368 1_554 S
C612 C611 1.523 . S
H613 C588 0.950 . S
H614 C590 0.950 . S
H615 C591 0.949 . S
H616 C593 0.950 1_556 S
H617 C595 0.950 1_556 S
C618 C619 1.349 . S
C618 C620 1.327 . S
C618 H643 0.950 . S
C619 C618 1.349 . S
C619 C635 1.349 1_554 S
C620 C618 1.327 . S
C620 C639 1.429 . S
C620 H644 0.950 . S
C621 C638 1.572 1_556 S
C621 C640 1.355 1_556 S
C621 H645 0.963 . S
H622 C626 0.949 . S
C623 C624 1.349 . S
C623 C625 1.327 . S
C623 H646 0.937 1_554 S
C624 C623 1.349 . S
C624 C636 1.349 . S
C625 C623 1.327 . S
C625 C641 1.429 . S
C625 H647 0.950 1_554 S
C626 H622 0.949 . S
C626 C634 1.574 . S
C626 C642 1.368 . S
H627 C635 0.950 . S
H628 C633 0.950 . S
H629 C634 0.949 . S
H630 C636 0.950 . S
H631 C637 0.950 . S
H632 C638 0.949 1_556 S
C633 H628 0.950 . S
C633 C635 1.327 . S
C633 C639 1.429 1_556 S
C634 C626 1.574 . S
C634 H629 0.949 . S
C634 C640 1.368 . S
C635 C619 1.349 1_556 S
C635 H627 0.950 . S
C635 C633 1.327 . S
C636 C624 1.349 . S
C636 H630 0.950 . S
C636 C637 1.327 . S
C637 H631 0.950 . S
C637 C636 1.327 . S
C637 C641 1.429 . S
C638 C621 1.572 1_554 S
C638 H632 0.949 1_554 S
C638 C642 1.368 . S
C639 C620 1.429 . S
C639 C633 1.429 1_554 S
C639 C640 1.523 . S
C640 C621 1.355 1_554 S
C640 C634 1.368 . S
C640 C639 1.523 . S
C641 C625 1.429 . S
C641 C637 1.429 . S
C641 C642 1.523 . S
C642 C626 1.368 . S
C642 C638 1.368 . S
C642 C641 1.523 . S
H643 C618 0.950 . S
H644 C620 0.950 . S
H645 C621 0.963 . S
H646 C623 0.937 1_556 S
H647 C625 0.950 1_556 S
C648 C649 1.349 . S
C648 C650 1.327 . S
C648 H673 0.950 . S
C649 C648 1.349 . S
C649 C665 1.349 . S
C650 C648 1.327 . S
C650 C669 1.429 . S
C650 H674 0.950 . S
C651 C668 1.574 . S
C651 C670 1.368 . S
C651 H675 0.949 1_554 S
H652 C656 0.949 . S
C653 C654 1.349 . S
C653 C655 1.327 . S
C653 H676 0.950 . S
C654 C653 1.349 . S
C654 C666 1.349 . S
C655 C653 1.327 . S
C655 C671 1.429 . S
C655 H677 0.951 1_554 S
C656 H652 0.949 . S
C656 C664 1.574 . S
C656 C672 1.368 . S
H657 C665 0.950 1_556 S
H658 C663 0.950 1_556 S
H659 C664 0.949 . S
H660 C666 0.950 . S
H661 C667 0.950 . S
H662 C668 0.949 1_556 S
C663 H658 0.950 1_554 S
C663 C665 1.327 . S
C663 C669 1.429 . S
C664 C656 1.574 . S
C664 H659 0.949 . S
C664 C670 1.368 . S
C665 C649 1.349 . S
C665 H657 0.950 1_554 S
C665 C663 1.327 . S
C666 C654 1.349 . S
C666 H660 0.950 . S
C666 C667 1.327 . S
C667 H661 0.950 . S
C667 C666 1.327 . S
C667 C671 1.429 . S
C668 C651 1.574 . S
C668 H662 0.949 1_554 S
C668 C672 1.368 . S
C669 C650 1.429 . S
C669 C663 1.429 . S
C669 C670 1.523 1_655 S
C670 C651 1.368 . S
C670 C664 1.368 . S
C670 C669 1.523 1_455 S
C671 C655 1.429 . S
C671 C667 1.429 . S
C671 C672 1.523 . S
C672 C656 1.368 . S
C672 C668 1.368 . S
C672 C671 1.523 . S
H673 C648 0.950 . S
H674 C650 0.950 . S
H675 C651 0.949 1_556 S
H676 C653 0.950 . S
H677 C655 0.951 1_556 S
C678 C679 1.349 1_556 S
C678 C680 1.327 . S
C678 H703 0.950 . S
C679 C678 1.349 1_554 S
C679 C695 1.349 . S
C680 C678 1.327 . S
C680 C699 1.429 1_556 S
C680 H704 0.950 . S
C681 C698 1.574 . S
C681 C700 1.368 . S
C681 H705 0.949 . S
H682 C686 0.949 . S
C683 C684 1.349 . S
C683 C685 1.327 . S
C683 H706 0.950 . S
C684 C683 1.349 . S
C684 C696 1.349 . S
C685 C683 1.327 . S
C685 C701 1.429 . S
C685 H707 0.950 . S
C686 H682 0.949 . S
C686 C694 1.574 . S
C686 C702 1.368 1_556 S
H687 C695 0.950 . S
H688 C693 0.950 . S
H689 C694 0.949 . S
H690 C696 0.950 1_556 S
H691 C697 0.941 1_556 S
H692 C698 0.949 . S
C693 H688 0.950 . S
C693 C695 1.327 . S
C693 C699 1.429 . S
C694 C686 1.574 . S
C694 H689 0.949 . S
C694 C700 1.368 1_556 S
C695 C679 1.349 . S
C695 H687 0.950 . S
C695 C693 1.327 . S
C696 C684 1.349 . S
C696 H690 0.950 1_554 S
C696 C697 1.328 . S
C697 H691 0.941 1_554 S
C697 C696 1.328 . S
C697 C701 1.436 . S
C698 C681 1.574 . S
C698 H692 0.949 . S
C698 C702 1.368 . S
C699 C680 1.429 1_554 S
C699 C693 1.429 . S
C699 C700 1.523 . S
C700 C681 1.368 . S
C700 C694 1.368 1_554 S
C700 C699 1.523 . S
C701 C685 1.429 . S
C701 C697 1.436 . S
C701 C702 1.523 1_565 S
C702 C686 1.368 1_554 S
C702 C698 1.368 . S
C702 C701 1.523 1_545 S
H703 C678 0.950 . S
H704 C680 0.950 . S
H705 C681 0.949 . S
H706 C683 0.950 . S
H707 C685 0.950 . S
C708 C709 1.349 . S
C708 C710 1.327 . S
C708 H733 0.950 1_554 S
C709 C708 1.349 . S
C709 C725 1.349 . S
C710 C708 1.327 . S
C710 C729 1.429 . S
C710 H734 0.950 1_554 S
C711 C728 1.574 . S
C711 C730 1.368 . S
C711 H735 0.949 . S
H712 C716 0.949 . S
C713 C714 1.349 . S
C713 C715 1.327 . S
C713 H736 0.950 . S
C714 C713 1.349 . S
C714 C726 1.349 1_554 S
C715 C713 1.327 . S
C715 C731 1.429 . S
C715 H737 0.950 . S
C716 H712 0.949 . S
C716 C724 1.574 . S
C716 C732 1.368 1_556 S
H717 C725 0.950 . S
H718 C723 0.950 . S
H719 C724 0.949 . S
H720 C726 0.950 . S
H721 C727 0.950 . S
H722 C728 0.949 . S
C723 H718 0.950 . S
C723 C725 1.327 . S
C723 C729 1.429 . S
C724 C716 1.574 . S
C724 H719 0.949 . S
C724 C730 1.368 1_556 S
C725 C709 1.349 . S
C725 H717 0.950 . S
C725 C723 1.327 . S
C726 C714 1.349 1_556 S
C726 H720 0.950 . S
C726 C727 1.327 . S
C727 H721 0.950 . S
C727 C726 1.327 . S
C727 C731 1.429 1_556 S
C728 C711 1.574 . S
C728 H722 0.949 . S
C728 C732 1.368 . S
C729 C710 1.429 . S
C729 C723 1.429 . S
C729 C730 1.523 . S
C730 C711 1.368 . S
C730 C724 1.368 1_554 S
C730 C729 1.523 . S
C731 C715 1.429 . S
C731 C727 1.429 1_554 S
C731 C732 1.523 . S
C732 C716 1.368 1_554 S
C732 C728 1.368 . S
C732 C731 1.523 . S
H733 C708 0.950 1_556 S
H734 C710 0.950 1_556 S
H735 C711 0.949 . S
H736 C713 0.950 . S
H737 C715 0.950 . S
C738 C739 1.349 1_556 S
C738 C740 1.327 . S
C738 H763 0.950 . S
C739 C738 1.349 1_554 S
C739 C755 1.349 . S
C740 C738 1.327 . S
C740 C759 1.429 1_556 S
C740 H764 0.950 . S
C741 C758 1.574 . S
C741 C760 1.368 . S
C741 H765 0.949 . S
H742 C746 0.949 . S
C743 C744 1.349 . S
C743 C745 1.327 . S
C743 H766 0.950 . S
C744 C743 1.349 . S
C744 C756 1.349 . S
C745 C743 1.327 . S
C745 C761 1.429 . S
C745 H767 0.950 . S
C746 H742 0.949 . S
C746 C754 1.574 . S
C746 C762 1.368 1_556 S
H747 C755 0.950 . S
H748 C753 0.950 . S
H749 C754 0.949 . S
H750 C756 0.950 1_556 S
H751 C757 0.938 1_556 S
H752 C758 0.949 . S
C753 H748 0.950 . S
C753 C755 1.327 . S
C753 C759 1.429 . S
C754 C746 1.574 . S
C754 H749 0.949 . S
C754 C760 1.368 1_556 S
C755 C739 1.349 . S
C755 H747 0.950 . S
C755 C753 1.327 . S
C756 C744 1.349 . S
C756 H750 0.950 1_554 S
C756 C757 1.328 . S
C757 H751 0.938 1_554 S
C757 C756 1.328 . S
C757 C761 1.439 . S
C758 C741 1.574 . S
C758 H752 0.949 . S
C758 C762 1.368 . S
C759 C740 1.429 1_554 S
C759 C753 1.429 . S
C759 C760 1.523 . S
C760 C741 1.368 . S
C760 C754 1.368 1_554 S
C760 C759 1.523 . S
C761 C745 1.429 . S
C761 C757 1.439 . S
C761 C762 1.523 1_455 S
C762 C746 1.368 1_554 S
C762 C758 1.368 . S
C762 C761 1.523 1_655 S
H763 C738 0.950 . S
H764 C740 0.950 . S
H765 C741 0.949 . S
H766 C743 0.950 . S
H767 C745 0.950 . S
C768 C769 1.349 . S
C768 C770 1.327 . S
C768 H793 0.950 . S
C769 C768 1.349 . S
C769 C785 1.349 . S
C770 C768 1.327 . S
C770 C789 1.429 . S
C770 H794 0.950 . S
C771 C788 1.574 . S
C771 C790 1.368 . S
C771 H795 0.949 . S
H772 C776 0.949 1_655 S
C773 C774 1.349 . S
C773 C775 1.327 . S
C773 H796 0.950 . S
C774 C773 1.349 . S
C774 C786 1.349 . S
C775 C773 1.327 . S
C775 C791 1.429 . S
C775 H797 0.950 . S
C776 H772 0.949 1_455 S
C776 C784 1.574 . S
C776 C792 1.368 1_455 S
H777 C785 0.950 . S
H778 C783 0.950 . S
H779 C784 0.949 . S
H780 C786 0.950 . S
H781 C787 0.950 . S
H782 C788 0.949 1_655 S
C783 H778 0.950 . S
C783 C785 1.327 . S
C783 C789 1.429 . S
C784 C776 1.574 . S
C784 H779 0.949 . S
C784 C790 1.368 . S
C785 C769 1.349 . S
C785 H777 0.950 . S
C785 C783 1.327 . S
C786 C774 1.349 . S
C786 H780 0.950 . S
C786 C787 1.327 . S
C787 H781 0.950 . S
C787 C786 1.327 . S
C787 C791 1.429 . S
C788 C771 1.574 . S
C788 H782 0.949 1_455 S
C788 C792 1.368 1_455 S
C789 C770 1.429 . S
C789 C783 1.429 . S
C789 C790 1.523 . S
C790 C771 1.368 . S
C790 C784 1.368 . S
C790 C789 1.523 . S
C791 C775 1.429 . S
C791 C787 1.429 . S
C791 C792 1.523 . S
C792 C776 1.368 1_655 S
C792 C788 1.368 1_655 S
C792 C791 1.523 . S
H793 C768 0.950 . S
H794 C770 0.950 . S
H795 C771 0.949 . S
H796 C773 0.950 . S
H797 C775 0.950 . S
C798 C799 1.349 . S
C798 C800 1.327 . S
C798 H823 0.950 . S
C799 C798 1.349 . S
C799 C815 1.349 . S
C800 C798 1.327 . S
C800 C819 1.429 . S
C800 H824 0.950 . S
C801 C818 1.574 1_545 S
C801 C820 1.368 . S
C801 H825 0.949 . S
H802 C806 0.949 . S
C803 C804 1.349 . S
C803 C805 1.327 . S
C803 H826 0.950 . S
C804 C803 1.349 . S
C804 C816 1.349 . S
C805 C803 1.327 . S
C805 C821 1.429 . S
C805 H827 0.950 . S
C806 H802 0.949 . S
C806 C814 1.574 1_565 S
C806 C822 1.368 . S
H807 C815 0.950 . S
H808 C813 0.950 . S
H809 C814 0.949 . S
H810 C816 0.950 . S
H811 C817 0.950 . S
H812 C818 0.949 . S
C813 H808 0.950 . S
C813 C815 1.327 . S
C813 C819 1.429 . S
C814 C806 1.574 1_545 S
C814 H809 0.949 . S
C814 C820 1.368 . S
C815 C799 1.349 . S
C815 H807 0.950 . S
C815 C813 1.327 . S
C816 C804 1.349 . S
C816 H810 0.950 . S
C816 C817 1.327 . S
C817 H811 0.950 . S
C817 C816 1.327 . S
C817 C821 1.429 . S
C818 C801 1.574 1_565 S
C818 H812 0.949 . S
C818 C822 1.368 . S
C819 C800 1.429 . S
C819 C813 1.429 . S
C819 C820 1.523 . S
C820 C801 1.368 . S
C820 C814 1.368 . S
C820 C819 1.523 . S
C821 C805 1.429 . S
C821 C817 1.429 . S
C821 C822 1.523 . S
C822 C806 1.368 . S
C822 C818 1.368 . S
C822 C821 1.523 . S
H823 C798 0.950 . S
H824 C800 0.950 . S
H825 C801 0.949 . S
H826 C803 0.950 . S
H827 C805 0.950 . S
C828 C829 1.349 . S
C828 C830 1.327 . S
C828 H853 0.950 . S
C829 C828 1.349 . S
C829 C845 1.349 . S
C830 C828 1.327 . S
C830 C849 1.429 . S
C830 H854 0.950 . S
C831 C848 1.574 . S
C831 C850 1.368 . S
C831 H855 0.949 . S
H832 C836 0.949 . S
C833 C834 1.349 . S
C833 C835 1.327 . S
C833 H856 0.950 . S
C834 C833 1.349 . S
C834 C846 1.349 . S
C835 C833 1.327 . S
C835 C851 1.429 . S
C835 H857 0.950 . S
C836 H832 0.949 . S
C836 C844 1.574 . S
C836 C852 1.368 . S
H837 C845 0.950 . S
H838 C843 0.950 . S
H839 C844 0.949 . S
H840 C846 0.950 . S
H841 C847 0.950 . S
H842 C848 0.949 . S
C843 H838 0.950 . S
C843 C845 1.327 . S
C843 C849 1.429 . S
C844 C836 1.574 . S
C844 H839 0.949 . S
C844 C850 1.368 . S
C845 C829 1.349 . S
C845 H837 0.950 . S
C845 C843 1.327 . S
C846 C834 1.349 . S
C846 H840 0.950 . S
C846 C847 1.327 . S
C847 H841 0.950 . S
C847 C846 1.327 . S
C847 C851 1.429 . S
C848 C831 1.574 . S
C848 H842 0.949 . S
C848 C852 1.368 . S
C849 C830 1.429 . S
C849 C843 1.429 . S
C849 C850 1.523 . S
C850 C831 1.368 . S
C850 C844 1.368 . S
C850 C849 1.523 . S
C851 C835 1.429 . S
C851 C847 1.429 . S
C851 C852 1.523 . S
C852 C836 1.368 . S
C852 C848 1.368 . S
C852 C851 1.523 . S
H853 C828 0.950 . S
H854 C830 0.950 . S
H855 C831 0.949 . S
H856 C833 0.950 . S
H857 C835 0.950 . S
C858 C859 1.349 . S
C858 C860 1.327 . S
C858 H883 0.950 . S
C859 C858 1.349 . S
C859 C875 1.349 . S
C860 C858 1.327 . S
C860 C879 1.429 . S
C860 H884 0.950 . S
C861 C878 1.574 1_455 S
C861 C880 1.368 . S
C861 H885 0.949 . S
H862 C866 0.949 . S
C863 C864 1.349 . S
C863 C865 1.327 . S
C863 H886 0.950 . S
C864 C863 1.349 . S
C864 C876 1.349 . S
C865 C863 1.327 . S
C865 C881 1.429 . S
C865 H887 0.950 . S
C866 H862 0.949 . S
C866 C874 1.574 1_655 S
C866 C882 1.368 . S
H867 C875 0.950 . S
H868 C873 0.950 . S
H869 C874 0.949 . S
H870 C876 0.950 . S
H871 C877 0.950 . S
H872 C878 0.949 . S
C873 H868 0.950 . S
C873 C875 1.327 . S
C873 C879 1.429 . S
C874 C866 1.574 1_455 S
C874 H869 0.949 . S
C874 C880 1.368 . S
C875 C859 1.349 . S
C875 H867 0.950 . S
C875 C873 1.327 . S
C876 C864 1.349 . S
C876 H870 0.950 . S
C876 C877 1.327 . S
C877 H871 0.950 . S
C877 C876 1.327 . S
C877 C881 1.429 . S
C878 C861 1.574 1_655 S
C878 H872 0.949 . S
C878 C882 1.368 . S
C879 C860 1.429 . S
C879 C873 1.429 . S
C879 C880 1.523 . S
C880 C861 1.368 . S
C880 C874 1.368 . S
C880 C879 1.523 . S
C881 C865 1.429 . S
C881 C877 1.429 . S
C881 C882 1.523 . S
C882 C866 1.368 . S
C882 C878 1.368 . S
C882 C881 1.523 . S
H883 C858 0.950 . S
H884 C860 0.950 . S
H885 C861 0.949 . S
H886 C863 0.950 . S
H887 C865 0.950 . S
C888 C889 1.349 . S
C888 C890 1.327 . S
C888 H913 0.950 . S
C889 C888 1.349 . S
C889 C905 1.349 . S
C890 C888 1.327 . S
C890 C909 1.429 . S
C890 H914 0.950 . S
C891 C908 1.574 . S
C891 C910 1.368 1_565 S
C891 H915 0.948 1_565 S
H892 C896 0.949 . S
C893 C894 1.349 . S
C893 C895 1.327 . S
C893 H916 0.950 . S
C894 C893 1.349 . S
C894 C906 1.349 . S
C895 C893 1.327 . S
C895 C911 1.429 . S
C895 H917 0.950 . S
C896 H892 0.949 . S
C896 C904 1.574 . S
C896 C912 1.368 . S
H897 C905 0.950 . S
H898 C903 0.950 . S
H899 C904 0.949 1_545 S
H900 C906 0.950 . S
H901 C907 0.950 . S
H902 C908 0.949 . S
C903 H898 0.950 . S
C903 C905 1.327 . S
C903 C909 1.429 . S
C904 C896 1.574 . S
C904 H899 0.949 1_565 S
C904 C910 1.368 1_565 S
C905 C889 1.349 . S
C905 H897 0.950 . S
C905 C903 1.327 . S
C906 C894 1.349 . S
C906 H900 0.950 . S
C906 C907 1.327 . S
C907 H901 0.950 . S
C907 C906 1.327 . S
C907 C911 1.429 . S
C908 C891 1.574 . S
C908 H902 0.949 . S
C908 C912 1.368 . S
C909 C890 1.429 . S
C909 C903 1.429 . S
C909 C910 1.523 . S
C910 C891 1.368 1_545 S
C910 C904 1.368 1_545 S
C910 C909 1.523 . S
C911 C895 1.429 . S
C911 C907 1.429 . S
C911 C912 1.523 . S
C912 C896 1.368 . S
C912 C908 1.368 . S
C912 C911 1.523 . S
H913 C888 0.950 . S
H914 C890 0.950 . S
H915 C891 0.948 1_545 S
H916 C893 0.950 . S
H917 C895 0.950 . S
C918 C919 1.349 . S
C918 C920 1.327 . S
C918 H943 0.950 . S
C919 C918 1.349 . S
C919 C935 1.349 . S
C920 C918 1.327 . S
C920 C939 1.429 . S
C920 H944 0.950 . S
C921 C938 1.574 . S
C921 C940 1.368 . S
C921 H945 0.949 . S
H922 C926 0.949 . S
C923 C924 1.349 . S
C923 C925 1.327 . S
C923 H946 0.950 . S
C924 C923 1.349 . S
C924 C936 1.349 . S
C925 C923 1.327 . S
C925 C941 1.429 . S
C925 H947 0.950 . S
C926 H922 0.949 . S
C926 C934 1.574 . S
C926 C942 1.368 . S
H927 C935 0.950 . S
H928 C933 0.950 . S
H929 C934 0.949 . S
H930 C936 0.950 . S
H931 C937 0.950 . S
H932 C938 0.949 . S
C933 H928 0.950 . S
C933 C935 1.327 . S
C933 C939 1.429 . S
C934 C926 1.574 . S
C934 H929 0.949 . S
C934 C940 1.368 . S
C935 C919 1.349 . S
C935 H927 0.950 . S
C935 C933 1.327 . S
C936 C924 1.349 . S
C936 H930 0.950 . S
C936 C937 1.327 . S
C937 H931 0.950 . S
C937 C936 1.327 . S
C937 C941 1.429 . S
C938 C921 1.574 . S
C938 H932 0.949 . S
C938 C942 1.368 . S
C939 C920 1.429 . S
C939 C933 1.429 . S
C939 C940 1.523 . S
C940 C921 1.368 . S
C940 C934 1.368 . S
C940 C939 1.523 . S
C941 C925 1.429 . S
C941 C937 1.429 . S
C941 C942 1.523 . S
C942 C926 1.368 . S
C942 C938 1.368 . S
C942 C941 1.523 . S
H943 C918 0.950 . S
H944 C920 0.950 . S
H945 C921 0.949 . S
H946 C923 0.950 . S
H947 C925 0.950 . S
C948 C949 1.349 . S
C948 C950 1.327 . S
C948 H973 0.950 . S
C949 C948 1.349 . S
C949 C965 1.349 . S
C950 C948 1.327 . S
C950 C969 1.429 . S
C950 H974 0.950 . S
C951 C968 1.574 . S
C951 C970 1.368 . S
C951 H975 0.949 . S
H952 C956 0.949 . S
C953 C954 1.349 . S
C953 C955 1.327 . S
C953 H976 0.950 . S
C954 C953 1.349 . S
C954 C966 1.349 . S
C955 C953 1.327 . S
C955 C971 1.429 . S
C955 H977 0.950 . S
C956 H952 0.949 . S
C956 C964 1.574 . S
C956 C972 1.368 . S
H957 C965 0.950 . S
H958 C963 0.950 . S
H959 C964 0.949 . S
H960 C966 0.950 . S
H961 C967 0.950 . S
H962 C968 0.949 . S
C963 H958 0.950 . S
C963 C965 1.327 . S
C963 C969 1.429 . S
C964 C956 1.574 . S
C964 H959 0.949 . S
C964 C970 1.368 . S
C965 C949 1.349 . S
C965 H957 0.950 . S
C965 C963 1.327 . S
C966 C954 1.349 . S
C966 H960 0.950 . S
C966 C967 1.327 . S
C967 H961 0.950 . S
C967 C966 1.327 . S
C967 C971 1.429 . S
C968 C951 1.574 . S
C968 H962 0.949 . S
C968 C972 1.368 . S
C969 C950 1.429 . S
C969 C963 1.429 . S
C969 C970 1.523 . S
C970 C951 1.368 . S
C970 C964 1.368 . S
C970 C969 1.523 . S
C971 C955 1.429 . S
C971 C967 1.429 . S
C971 C972 1.523 . S
C972 C956 1.368 . S
C972 C968 1.368 . S
C972 C971 1.523 . S
H973 C948 0.950 . S
H974 C950 0.950 . S
H975 C951 0.949 . S
H976 C953 0.950 . S
H977 C955 0.950 . S
C978 C979 1.349 . S
C978 C980 1.327 . S
C978 H1003 0.950 . S
C979 C978 1.349 . S
C979 C995 1.349 . S
C980 C978 1.327 . S
C980 C999 1.429 . S
C980 H1004 0.950 . S
C981 C998 1.574 . S
C981 C1000 1.368 . S
C981 H1005 0.949 . S
H982 C986 0.949 . S
C983 C984 1.349 . S
C983 C985 1.327 . S
C983 H1006 0.950 . S
C984 C983 1.349 . S
C984 C996 1.349 . S
C985 C983 1.327 . S
C985 C1001 1.429 . S
C985 H1007 0.950 . S
C986 H982 0.949 . S
C986 C994 1.574 . S
C986 C1002 1.368 . S
H987 C995 0.950 . S
H988 C993 0.950 . S
H989 C994 0.949 . S
H990 C996 0.950 . S
H991 C997 0.950 . S
H992 C998 0.949 . S
C993 H988 0.950 . S
C993 C995 1.327 . S
C993 C999 1.429 . S
C994 C986 1.574 . S
C994 H989 0.949 . S
C994 C1000 1.368 . S
C995 C979 1.349 . S
C995 H987 0.950 . S
C995 C993 1.327 . S
C996 C984 1.349 . S
C996 H990 0.950 . S
C996 C997 1.327 . S
C997 H991 0.950 . S
C997 C996 1.327 . S
C997 C1001 1.429 . S
C998 C981 1.574 . S
C998 H992 0.949 . S
C998 C1002 1.368 . S
C999 C980 1.429 . S
C999 C993 1.429 . S
C999 C1000 1.523 . S
C1000 C981 1.368 . S
C1000 C994 1.368 . S
C1000 C999 1.523 . S
C1001 C985 1.429 . S
C1001 C997 1.429 . S
C1001 C1002 1.523 . S
C1002 C986 1.368 . S
C1002 C998 1.368 . S
C1002 C1001 1.523 . S
H1003 C978 0.950 . S
H1004 C980 0.950 . S
H1005 C981 0.949 . S
H1006 C983 0.950 . S
H1007 C985 0.950 . S
C1008 C1009 1.349 . S
C1008 C1010 1.327 . S
C1008 H1033 0.950 . S
C1009 C1008 1.349 . S
C1009 C1025 1.349 . S
C1010 C1008 1.327 . S
C1010 C1029 1.429 . S
C1010 H1034 0.950 . S
C1011 C1028 1.574 . S
C1011 C1030 1.368 . S
C1011 H1035 0.949 . S
H1012 C1016 0.949 . S
C1013 C1014 1.349 . S
C1013 C1015 1.327 . S
C1013 H1036 0.950 . S
C1014 C1013 1.349 . S
C1014 C1026 1.349 . S
C1015 C1013 1.327 . S
C1015 C1031 1.429 . S
C1015 H1037 0.950 . S
C1016 H1012 0.949 . S
C1016 C1024 1.574 . S
C1016 C1032 1.368 . S
H1017 C1025 0.950 . S
H1018 C1023 0.950 . S
H1019 C1024 0.949 . S
H1020 C1026 0.950 . S
H1021 C1027 0.950 . S
H1022 C1028 0.949 . S
C1023 H1018 0.950 . S
C1023 C1025 1.327 . S
C1023 C1029 1.429 . S
C1024 C1016 1.574 . S
C1024 H1019 0.949 . S
C1024 C1030 1.368 . S
C1025 C1009 1.349 . S
C1025 H1017 0.950 . S
C1025 C1023 1.327 . S
C1026 C1014 1.349 . S
C1026 H1020 0.950 . S
C1026 C1027 1.327 . S
C1027 H1021 0.950 . S
C1027 C1026 1.327 . S
C1027 C1031 1.429 . S
C1028 C1011 1.574 . S
C1028 H1022 0.949 . S
C1028 C1032 1.368 . S
C1029 C1010 1.429 . S
C1029 C1023 1.429 . S
C1029 C1030 1.523 . S
C1030 C1011 1.368 . S
C1030 C1024 1.368 . S
C1030 C1029 1.523 . S
C1031 C1015 1.429 . S
C1031 C1027 1.429 . S
C1031 C1032 1.523 . S
C1032 C1016 1.368 . S
C1032 C1028 1.368 . S
C1032 C1031 1.523 . S
H1033 C1008 0.950 . S
H1034 C1010 0.950 . S
H1035 C1011 0.949 . S
H1036 C1013 0.950 . S
H1037 C1015 0.950 . S
C1038 C1039 1.349 . S
C1038 C1040 1.327 . S
C1038 H1063 0.950 . S
C1039 C1038 1.349 . S
C1039 C1055 1.349 . S
C1040 C1038 1.327 . S
C1040 C1059 1.429 . S
C1040 H1064 0.950 . S
C1041 C1058 1.574 . S
C1041 C1060 1.368 . S
C1041 H1065 0.949 . S
H1042 C1046 0.949 . S
C1043 C1044 1.349 . S
C1043 C1045 1.327 . S
C1043 H1066 0.950 . S
C1044 C1043 1.349 . S
C1044 C1056 1.349 . S
C1045 C1043 1.327 . S
C1045 C1061 1.429 . S
C1045 H1067 0.950 . S
C1046 H1042 0.949 . S
C1046 C1054 1.574 . S
C1046 C1062 1.368 . S
H1047 C1055 0.950 . S
H1048 C1053 0.950 . S
H1049 C1054 0.949 . S
H1050 C1056 0.950 . S
H1051 C1057 0.950 . S
H1052 C1058 0.949 . S
C1053 H1048 0.950 . S
C1053 C1055 1.327 . S
C1053 C1059 1.429 . S
C1054 C1046 1.574 . S
C1054 H1049 0.949 . S
C1054 C1060 1.368 . S
C1055 C1039 1.349 . S
C1055 H1047 0.950 . S
C1055 C1053 1.327 . S
C1056 C1044 1.349 . S
C1056 H1050 0.950 . S
C1056 C1057 1.327 . S
C1057 H1051 0.950 . S
C1057 C1056 1.327 . S
C1057 C1061 1.429 . S
C1058 C1041 1.574 . S
C1058 H1052 0.949 . S
C1058 C1062 1.368 . S
C1059 C1040 1.429 . S
C1059 C1053 1.429 . S
C1059 C1060 1.523 . S
C1060 C1041 1.368 . S
C1060 C1054 1.368 . S
C1060 C1059 1.523 . S
C1061 C1045 1.429 . S
C1061 C1057 1.429 . S
C1061 C1062 1.523 . S
C1062 C1046 1.368 . S
C1062 C1058 1.368 . S
C1062 C1061 1.523 . S
H1063 C1038 0.950 . S
H1064 C1040 0.950 . S
H1065 C1041 0.949 . S
H1066 C1043 0.950 . S
H1067 C1045 0.950 . S
C1068 C1069 1.349 . S
C1068 C1070 1.327 . S
C1068 H1093 0.950 . S
C1069 C1068 1.349 . S
C1069 C1085 1.349 . S
C1070 C1068 1.327 . S
C1070 C1089 1.429 . S
C1070 H1094 0.950 . S
C1071 C1088 1.574 . S
C1071 C1090 1.368 . S
C1071 H1095 0.949 . S
H1072 C1076 0.949 . S
C1073 C1074 1.349 . S
C1073 C1075 1.327 . S
C1073 H1096 0.950 . S
C1074 C1073 1.349 . S
C1074 C1086 1.349 . S
C1075 C1073 1.327 . S
C1075 C1091 1.429 . S
C1075 H1097 0.950 . S
C1076 H1072 0.949 . S
C1076 C1084 1.574 . S
C1076 C1092 1.368 . S
H1077 C1085 0.950 . S
H1078 C1083 0.950 . S
H1079 C1084 0.949 . S
H1080 C1086 0.950 . S
H1081 C1087 0.950 . S
H1082 C1088 0.949 . S
C1083 H1078 0.950 . S
C1083 C1085 1.327 . S
C1083 C1089 1.429 . S
C1084 C1076 1.574 . S
C1084 H1079 0.949 . S
C1084 C1090 1.368 . S
C1085 C1069 1.349 . S
C1085 H1077 0.950 . S
C1085 C1083 1.327 . S
C1086 C1074 1.349 . S
C1086 H1080 0.950 . S
C1086 C1087 1.327 . S
C1087 H1081 0.950 . S
C1087 C1086 1.327 . S
C1087 C1091 1.429 . S
C1088 C1071 1.574 . S
C1088 H1082 0.949 . S
C1088 C1092 1.368 . S
C1089 C1070 1.429 . S
C1089 C1083 1.429 . S
C1089 C1090 1.523 . S
C1090 C1071 1.368 . S
C1090 C1084 1.368 . S
C1090 C1089 1.523 . S
C1091 C1075 1.429 . S
C1091 C1087 1.429 . S
C1091 C1092 1.523 . S
C1092 C1076 1.368 . S
C1092 C1088 1.368 . S
C1092 C1091 1.523 . S
H1093 C1068 0.950 . S
H1094 C1070 0.950 . S
H1095 C1071 0.949 . S
H1096 C1073 0.950 . S
H1097 C1075 0.950 . S
C1098 C1099 1.349 . S
C1098 C1100 1.327 . S
C1098 H1123 0.950 . S
C1099 C1098 1.349 . S
C1099 C1115 1.349 . S
C1100 C1098 1.327 . S
C1100 C1119 1.429 . S
C1100 H1124 0.950 . S
C1101 C1118 1.574 . S
C1101 C1120 1.368 . S
C1101 H1125 0.949 . S
H1102 C1106 0.949 . S
C1103 C1104 1.349 . S
C1103 C1105 1.327 . S
C1103 H1126 0.950 . S
C1104 C1103 1.349 . S
C1104 C1116 1.349 . S
C1105 C1103 1.327 . S
C1105 C1121 1.429 . S
C1105 H1127 0.950 . S
C1106 H1102 0.949 . S
C1106 C1114 1.574 . S
C1106 C1122 1.368 . S
H1107 C1115 0.950 . S
H1108 C1113 0.950 . S
H1109 C1114 0.949 . S
H1110 C1116 0.950 . S
H1111 C1117 0.950 . S
H1112 C1118 0.949 . S
C1113 H1108 0.950 . S
C1113 C1115 1.327 . S
C1113 C1119 1.429 . S
C1114 C1106 1.574 . S
C1114 H1109 0.949 . S
C1114 C1120 1.368 . S
C1115 C1099 1.349 . S
C1115 H1107 0.950 . S
C1115 C1113 1.327 . S
C1116 C1104 1.349 . S
C1116 H1110 0.950 . S
C1116 C1117 1.327 . S
C1117 H1111 0.950 . S
C1117 C1116 1.327 . S
C1117 C1121 1.429 . S
C1118 C1101 1.574 . S
C1118 H1112 0.949 . S
C1118 C1122 1.368 . S
C1119 C1100 1.429 . S
C1119 C1113 1.429 . S
C1119 C1120 1.523 . S
C1120 C1101 1.368 . S
C1120 C1114 1.368 . S
C1120 C1119 1.523 . S
C1121 C1105 1.429 . S
C1121 C1117 1.429 . S
C1121 C1122 1.523 . S
C1122 C1106 1.368 . S
C1122 C1118 1.368 . S
C1122 C1121 1.523 . S
H1123 C1098 0.950 . S
H1124 C1100 0.950 . S
H1125 C1101 0.949 . S
H1126 C1103 0.950 . S
H1127 C1105 0.950 . S
C1128 C1129 1.349 . S
C1128 C1130 1.327 . S
C1128 H1153 0.950 . S
C1129 C1128 1.349 . S
C1129 C1145 1.349 . S
C1130 C1128 1.327 . S
C1130 C1149 1.429 . S
C1130 H1154 0.950 . S
C1131 C1148 1.574 . S
C1131 C1150 1.368 . S
C1131 H1155 0.949 . S
H1132 C1136 0.949 . S
C1133 C1134 1.349 . S
C1133 C1135 1.327 . S
C1133 H1156 0.950 . S
C1134 C1133 1.349 . S
C1134 C1146 1.349 . S
C1135 C1133 1.327 . S
C1135 C1151 1.429 . S
C1135 H1157 0.950 . S
C1136 H1132 0.949 . S
C1136 C1144 1.574 . S
C1136 C1152 1.368 . S
H1137 C1145 0.950 . S
H1138 C1143 0.950 . S
H1139 C1144 0.949 . S
H1140 C1146 0.950 . S
H1141 C1147 0.950 . S
H1142 C1148 0.949 . S
C1143 H1138 0.950 . S
C1143 C1145 1.327 . S
C1143 C1149 1.429 . S
C1144 C1136 1.574 . S
C1144 H1139 0.949 . S
C1144 C1150 1.368 . S
C1145 C1129 1.349 . S
C1145 H1137 0.950 . S
C1145 C1143 1.327 . S
C1146 C1134 1.349 . S
C1146 H1140 0.950 . S
C1146 C1147 1.327 . S
C1147 H1141 0.950 . S
C1147 C1146 1.327 . S
C1147 C1151 1.429 . S
C1148 C1131 1.574 . S
C1148 H1142 0.949 . S
C1148 C1152 1.368 . S
C1149 C1130 1.429 . S
C1149 C1143 1.429 . S
C1149 C1150 1.523 . S
C1150 C1131 1.368 . S
C1150 C1144 1.368 . S
C1150 C1149 1.523 . S
C1151 C1135 1.429 . S
C1151 C1147 1.429 . S
C1151 C1152 1.523 . S
C1152 C1136 1.368 . S
C1152 C1148 1.368 . S
C1152 C1151 1.523 . S
H1153 C1128 0.950 . S
H1154 C1130 0.950 . S
H1155 C1131 0.949 . S
H1156 C1133 0.950 . S
H1157 C1135 0.950 . S
C1158 C1159 1.349 . S
C1158 C1160 1.327 . S
C1158 H1183 0.950 . S
C1159 C1158 1.349 . S
C1159 C1175 1.349 . S
C1160 C1158 1.327 . S
C1160 C1179 1.429 . S
C1160 H1184 0.950 . S
C1161 C1178 1.574 . S
C1161 C1180 1.368 . S
C1161 H1185 0.949 . S
H1162 C1166 0.949 . S
C1163 C1164 1.349 . S
C1163 C1165 1.327 . S
C1163 H1186 0.950 . S
C1164 C1163 1.349 . S
C1164 C1176 1.349 . S
C1165 C1163 1.327 . S
C1165 C1181 1.429 . S
C1165 H1187 0.950 . S
C1166 H1162 0.949 . S
C1166 C1174 1.574 . S
C1166 C1182 1.368 . S
H1167 C1175 0.950 . S
H1168 C1173 0.950 . S
H1169 C1174 0.949 . S
H1170 C1176 0.950 . S
H1171 C1177 0.950 . S
H1172 C1178 0.949 . S
C1173 H1168 0.950 . S
C1173 C1175 1.327 . S
C1173 C1179 1.429 . S
C1174 C1166 1.574 . S
C1174 H1169 0.949 . S
C1174 C1180 1.368 . S
C1175 C1159 1.349 . S
C1175 H1167 0.950 . S
C1175 C1173 1.327 . S
C1176 C1164 1.349 . S
C1176 H1170 0.950 . S
C1176 C1177 1.327 . S
C1177 H1171 0.950 . S
C1177 C1176 1.327 . S
C1177 C1181 1.429 . S
C1178 C1161 1.574 . S
C1178 H1172 0.949 . S
C1178 C1182 1.368 . S
C1179 C1160 1.429 . S
C1179 C1173 1.429 . S
C1179 C1180 1.523 . S
C1180 C1161 1.368 . S
C1180 C1174 1.368 . S
C1180 C1179 1.523 . S
C1181 C1165 1.429 . S
C1181 C1177 1.429 . S
C1181 C1182 1.523 . S
C1182 C1166 1.368 . S
C1182 C1178 1.368 . S
C1182 C1181 1.523 . S
H1183 C1158 0.950 . S
H1184 C1160 0.950 . S
H1185 C1161 0.949 . S
H1186 C1163 0.950 . S
H1187 C1165 0.950 . S
C1188 C1189 1.349 . S
C1188 C1190 1.327 . S
C1188 H1213 0.950 . S
C1189 C1188 1.349 . S
C1189 C1205 1.349 . S
C1190 C1188 1.327 . S
C1190 C1209 1.429 . S
C1190 H1214 0.950 . S
C1191 C1208 1.574 . S
C1191 C1210 1.368 . S
C1191 H1215 0.949 . S
H1192 C1196 0.949 . S
C1193 C1194 1.349 . S
C1193 C1195 1.327 . S
C1193 H1216 0.950 . S
C1194 C1193 1.349 . S
C1194 C1206 1.349 . S
C1195 C1193 1.327 . S
C1195 C1211 1.429 . S
C1195 H1217 0.950 . S
C1196 H1192 0.949 . S
C1196 C1204 1.574 . S
C1196 C1212 1.368 . S
H1197 C1205 0.950 . S
H1198 C1203 0.950 . S
H1199 C1204 0.949 . S
H1200 C1206 0.950 . S
H1201 C1207 0.950 . S
H1202 C1208 0.949 . S
C1203 H1198 0.950 . S
C1203 C1205 1.327 . S
C1203 C1209 1.429 . S
C1204 C1196 1.574 . S
C1204 H1199 0.949 . S
C1204 C1210 1.368 . S
C1205 C1189 1.349 . S
C1205 H1197 0.950 . S
C1205 C1203 1.327 . S
C1206 C1194 1.349 . S
C1206 H1200 0.950 . S
C1206 C1207 1.327 . S
C1207 H1201 0.950 . S
C1207 C1206 1.327 . S
C1207 C1211 1.429 . S
C1208 C1191 1.574 . S
C1208 H1202 0.949 . S
C1208 C1212 1.368 . S
C1209 C1190 1.429 . S
C1209 C1203 1.429 . S
C1209 C1210 1.523 . S
C1210 C1191 1.368 . S
C1210 C1204 1.368 . S
C1210 C1209 1.523 . S
C1211 C1195 1.429 . S
C1211 C1207 1.429 . S
C1211 C1212 1.523 . S
C1212 C1196 1.368 . S
C1212 C1208 1.368 . S
C1212 C1211 1.523 . S
H1213 C1188 0.950 . S
H1214 C1190 0.950 . S
H1215 C1191 0.949 . S
H1216 C1193 0.950 . S
H1217 C1195 0.950 . S
C1218 C1219 1.349 . S
C1218 C1220 1.327 . S
C1218 H1243 0.950 . S
C1219 C1218 1.349 . S
C1219 C1235 1.349 . S
C1220 C1218 1.327 . S
C1220 C1239 1.429 . S
C1220 H1244 0.950 . S
C1221 C1238 1.574 . S
C1221 C1240 1.368 . S
C1221 H1245 0.949 . S
H1222 C1226 0.949 . S
C1223 C1224 1.349 . S
C1223 C1225 1.327 . S
C1223 H1246 0.950 . S
C1224 C1223 1.349 . S
C1224 C1236 1.349 . S
C1225 C1223 1.327 . S
C1225 C1241 1.429 . S
C1225 H1247 0.950 . S
C1226 H1222 0.949 . S
C1226 C1234 1.574 . S
C1226 C1242 1.368 . S
H1227 C1235 0.950 . S
H1228 C1233 0.950 . S
H1229 C1234 0.949 . S
H1230 C1236 0.950 . S
H1231 C1237 0.950 . S
H1232 C1238 0.949 . S
C1233 H1228 0.950 . S
C1233 C1235 1.327 . S
C1233 C1239 1.429 . S
C1234 C1226 1.574 . S
C1234 H1229 0.949 . S
C1234 C1240 1.368 . S
C1235 C1219 1.349 . S
C1235 H1227 0.950 . S
C1235 C1233 1.327 . S
C1236 C1224 1.349 . S
C1236 H1230 0.950 . S
C1236 C1237 1.327 . S
C1237 H1231 0.950 . S
C1237 C1236 1.327 . S
C1237 C1241 1.429 . S
C1238 C1221 1.574 . S
C1238 H1232 0.949 . S
C1238 C1242 1.368 . S
C1239 C1220 1.429 . S
C1239 C1233 1.429 . S
C1239 C1240 1.523 . S
C1240 C1221 1.368 . S
C1240 C1234 1.368 . S
C1240 C1239 1.523 . S
C1241 C1225 1.429 . S
C1241 C1237 1.429 . S
C1241 C1242 1.523 . S
C1242 C1226 1.368 . S
C1242 C1238 1.368 . S
C1242 C1241 1.523 . S
H1243 C1218 0.950 . S
H1244 C1220 0.950 . S
H1245 C1221 0.949 . S
H1246 C1223 0.950 . S
H1247 C1225 0.950 . S
C1248 C1249 1.349 . S
C1248 C1250 1.327 . S
C1248 H1273 0.950 . S
C1249 C1248 1.349 . S
C1249 C1265 1.349 . S
C1250 C1248 1.327 . S
C1250 C1269 1.429 . S
C1250 H1274 0.950 . S
C1251 C1268 1.574 . S
C1251 C1270 1.368 . S
C1251 H1275 0.949 . S
H1252 C1256 0.949 . S
C1253 C1254 1.349 . S
C1253 C1255 1.327 . S
C1253 H1276 0.950 . S
C1254 C1253 1.349 . S
C1254 C1266 1.349 . S
C1255 C1253 1.327 . S
C1255 C1271 1.429 . S
C1255 H1277 0.950 . S
C1256 H1252 0.949 . S
C1256 C1264 1.574 . S
C1256 C1272 1.368 . S
H1257 C1265 0.950 . S
H1258 C1263 0.950 . S
H1259 C1264 0.949 . S
H1260 C1266 0.950 . S
H1261 C1267 0.950 . S
H1262 C1268 0.949 . S
C1263 H1258 0.950 . S
C1263 C1265 1.327 . S
C1263 C1269 1.429 . S
C1264 C1256 1.574 . S
C1264 H1259 0.949 . S
C1264 C1270 1.368 . S
C1265 C1249 1.349 . S
C1265 H1257 0.950 . S
C1265 C1263 1.327 . S
C1266 C1254 1.349 . S
C1266 H1260 0.950 . S
C1266 C1267 1.327 . S
C1267 H1261 0.950 . S
C1267 C1266 1.327 . S
C1267 C1271 1.429 . S
C1268 C1251 1.574 . S
C1268 H1262 0.949 . S
C1268 C1272 1.368 . S
C1269 C1250 1.429 . S
C1269 C1263 1.429 . S
C1269 C1270 1.523 . S
C1270 C1251 1.368 . S
C1270 C1264 1.368 . S
C1270 C1269 1.523 . S
C1271 C1255 1.429 . S
C1271 C1267 1.429 . S
C1271 C1272 1.523 . S
C1272 C1256 1.368 . S
C1272 C1268 1.368 . S
C1272 C1271 1.523 . S
H1273 C1248 0.950 . S
H1274 C1250 0.950 . S
H1275 C1251 0.949 . S
H1276 C1253 0.950 . S
H1277 C1255 0.950 . S
C1278 C1279 1.349 . S
C1278 C1280 1.327 . S
C1278 H1303 0.950 . S
C1279 C1278 1.349 . S
C1279 C1295 1.349 . S
C1280 C1278 1.327 . S
C1280 C1299 1.429 . S
C1280 H1304 0.950 . S
C1281 C1298 1.574 . S
C1281 C1300 1.368 . S
C1281 H1305 0.949 . S
H1282 C1286 0.949 . S
C1283 C1284 1.349 . S
C1283 C1285 1.327 . S
C1283 H1306 0.950 . S
C1284 C1283 1.349 . S
C1284 C1296 1.349 . S
C1285 C1283 1.327 . S
C1285 C1301 1.429 . S
C1285 H1307 0.950 . S
C1286 H1282 0.949 . S
C1286 C1294 1.574 . S
C1286 C1302 1.368 . S
H1287 C1295 0.950 . S
H1288 C1293 0.950 . S
H1289 C1294 0.949 . S
H1290 C1296 0.950 . S
H1291 C1297 0.950 . S
H1292 C1298 0.949 . S
C1293 H1288 0.950 . S
C1293 C1295 1.327 . S
C1293 C1299 1.429 . S
C1294 C1286 1.574 . S
C1294 H1289 0.949 . S
C1294 C1300 1.368 . S
C1295 C1279 1.349 . S
C1295 H1287 0.950 . S
C1295 C1293 1.327 . S
C1296 C1284 1.349 . S
C1296 H1290 0.950 . S
C1296 C1297 1.327 . S
C1297 H1291 0.950 . S
C1297 C1296 1.327 . S
C1297 C1301 1.429 . S
C1298 C1281 1.574 . S
C1298 H1292 0.949 . S
C1298 C1302 1.368 . S
C1299 C1280 1.429 . S
C1299 C1293 1.429 . S
C1299 C1300 1.523 . S
C1300 C1281 1.368 . S
C1300 C1294 1.368 . S
C1300 C1299 1.523 . S
C1301 C1285 1.429 . S
C1301 C1297 1.429 . S
C1301 C1302 1.523 . S
C1302 C1286 1.368 . S
C1302 C1298 1.368 . S
C1302 C1301 1.523 . S
H1303 C1278 0.950 . S
H1304 C1280 0.950 . S
H1305 C1281 0.949 . S
H1306 C1283 0.950 . S
H1307 C1285 0.950 . S
C409 C2 1.960 . S
C414 C104 1.964 . S
C439 C138 1.960 . S
C444 C36 1.964 . S
C469 C172 1.964 . S
C474 C70 1.961 . S
C499 C308 2.015 . S
C504 C209 2.133 . S
C529 C345 2.133 . S
C534 C240 2.015 . S
C559 C277 2.134 . S
C564 C376 2.015 . S
C589 C33 0.624 . S
C594 C190 0.618 . S
C619 C20 0.351 . S
C624 C67 0.406 . S
C649 C101 0.624 . S
C654 C54 0.618 . S
C679 C88 0.351 . S
C684 C135 0.406 . S
C709 C122 0.618 . S
C714 C169 0.624 . S
C739 C156 0.351 . S
C744 C203 0.406 . S
C769 C258 0.215 . S
C774 C237 0.268 . S
C799 C281 0.560 . S
C804 C271 0.383 . S
C829 C326 0.215 . S
C834 C305 0.268 . S
C859 C339 0.383 . S
C864 C349 0.560 . S
C889 C373 0.268 . S
C894 C394 0.215 . S
C919 C407 0.383 . S
C924 C213 0.560 . S
C949 C292 1.959 . S
C954 C5 1.936 . S
C979 C39 1.439 . S
C984 C311 1.441 . S
C1009 C73 1.936 . S
C1014 C360 1.959 . S
C1039 C107 1.439 . S
C1044 C379 1.441 . S
C1069 C224 1.959 . S
C1074 C141 1.936 . S
C1099 C175 1.439 . S
C1104 C243 1.441 . S
C1129 C383 0.874 . S
C1134 C111 0.872 . S
C1159 C206 2.427 . S
C1164 C145 2.316 . S
C1189 C247 0.874 . S
C1194 C179 0.872 . S
C1219 C9 2.316 . S
C1224 C274 2.427 . S
C1249 C43 0.873 . S
C1254 C315 0.874 . S
C1279 C77 2.316 . S
C1284 C342 2.427 . S
