# Generated by pormake.
# Topology dmp, (4)-cn, num edge types: 1
# Building blocks:
#     Node 0, Type 0, BuildingBlock: CEKHIL_clean_sbu_0, # of connection points: 4
#     Node 1, Type 0, BuildingBlock: CEKHIL_clean_sbu_0, # of connection points: 4
#     Node 2, Type 0, BuildingBlock: CEKHIL_clean_sbu_0, # of connection points: 4
#     Node 3, Type 0, BuildingBlock: CEKHIL_clean_sbu_0, # of connection points: 4
#     Edge 4, Type (0, 0), BuildingBlock: XUDNAN_clean_linker_2, # of connection points: 2
#     Edge 5, Type (0, 0), BuildingBlock: XUDNAN_clean_linker_2, # of connection points: 2
#     Edge 6, Type (0, 0), BuildingBlock: XUDNAN_clean_linker_2, # of connection points: 2
#     Edge 7, Type (0, 0), BuildingBlock: XUDNAN_clean_linker_2, # of connection points: 2
#     Edge 8, Type (0, 0), BuildingBlock: XUDNAN_clean_linker_2, # of connection points: 2
#     Edge 9, Type (0, 0), BuildingBlock: XUDNAN_clean_linker_2, # of connection points: 2
#     Edge 10, Type (0, 0), BuildingBlock: XUDNAN_clean_linker_2, # of connection points: 2
#     Edge 11, Type (0, 0), BuildingBlock: XUDNAN_clean_linker_2, # of connection points: 2
# Relax obj value: 0.088
# Max RMSD: 0.196
# Mean RMSD: 0.196
data_MOF--net-dmp--node1-CEKHIL_clean_sbu_0--edge1-XUDNAN_clean_linker_2
_symmetry_space_group_name_H-M    P1
_symmetry_Int_Tables_number       1
_symmetry_cell_setting            triclinic
loop_
_symmetry_equiv_pos_as_xyz
'x, y, z'
_cell_length_a     39.08184
_cell_length_b     19.067472
_cell_length_c     14.477589
_cell_angle_alpha  90.064915
_cell_angle_beta   89.927891
_cell_angle_gamma 91.841196
loop_
_atom_site_label
_atom_site_type_symbol
_atom_site_fract_x
_atom_site_fract_y
_atom_site_fract_z
_atom_type_partial_charge
Co0 Co 0.10388 0.25065 0.32065 0.0
O1 O 0.07459 0.32964 0.32261 0.0
O2 O 0.10734 0.2979 0.43903 0.0
C3 C 0.06472 0.17498 0.25954 0.0
O4 O 0.13681 0.17125 0.34266 0.0
Co5 Co 0.12308 0.186 0.13138 0.0
O6 O 0.14065 0.11002 0.21024 0.0
C7 C 0.16079 0.31216 0.19751 0.0
C8 C 0.08494 0.34058 0.40649 0.0
C9 C 0.14744 0.11875 0.29572 0.0
O10 O 0.14324 0.30992 0.27257 0.0
O11 O 0.15523 0.2708 0.12904 0.0
O12 O 0.06501 0.18779 0.34763 0.0
O13 O 0.08585 0.21297 0.21049 0.0
Co14 Co 0.40509 0.75569 0.20241 0.0
O15 O 0.44283 0.69703 0.17791 0.0
O16 O 0.42143 0.71495 0.31708 0.0
C17 C 0.42455 0.84514 0.11256 0.0
O18 O 0.3661 0.81484 0.2513 0.0
Co19 Co 0.35907 0.79188 0.03443 0.0
O20 O 0.33489 0.84746 0.12822 0.0
C21 C 0.35019 0.65419 0.12339 0.0
C22 C 0.44396 0.68438 0.26558 0.0
C23 C 0.34085 0.84682 0.2148 0.0
O24 O 0.37202 0.67365 0.18553 0.0
O25 O 0.34348 0.6915 0.05264 0.0
O26 O 0.43549 0.83925 0.19683 0.0
O27 O 0.4049 0.79404 0.0839 0.0
Co28 Co 0.90801 0.7581 0.78782 0.0
O29 O 0.94573 0.69812 0.80502 0.0
O30 O 0.92405 0.72389 0.66863 0.0
C31 C 0.92826 0.84187 0.88559 0.0
O32 O 0.86907 0.82041 0.74682 0.0
Co33 Co 0.86303 0.78587 0.96149 0.0
O34 O 0.83888 0.84726 0.87459 0.0
C35 C 0.85249 0.65434 0.8579 0.0
C36 C 0.94695 0.69128 0.71625 0.0
C37 C 0.84427 0.85102 0.78778 0.0
O38 O 0.87448 0.67607 0.7973 0.0
O39 O 0.84651 0.6875 0.93285 0.0
O40 O 0.93868 0.84062 0.8004 0.0
O41 O 0.90854 0.78963 0.91004 0.0
Co42 Co 0.6016 0.25024 0.67392 0.0
O43 O 0.57063 0.32619 0.66509 0.0
O44 O 0.60418 0.29142 0.55175 0.0
C45 C 0.56369 0.17466 0.74078 0.0
O46 O 0.63641 0.17325 0.65812 0.0
Co47 Co 0.62256 0.19692 0.86619 0.0
O48 O 0.64176 0.11863 0.79465 0.0
C49 C 0.65789 0.3223 0.78934 0.0
C50 C 0.58093 0.33379 0.5805 0.0
C51 C 0.64831 0.12411 0.70867 0.0
O52 O 0.6394 0.31569 0.7165 0.0
O53 O 0.65398 0.2829 0.86042 0.0
O54 O 0.56431 0.18306 0.65185 0.0
O55 O 0.58395 0.21644 0.78748 0.0
H56 H 0.27323 0.8227 0.2035 0.0
H57 H 0.34976 0.94592 0.35305 0.0
H58 H 0.30379 0.01631 0.42255 0.0
H59 H 0.22688 0.95387 0.13349 0.0
H60 H 0.18535 0.91045 0.14287 0.0
H61 H 0.22262 0.85953 0.1268 0.0
H62 H 0.20789 0.7886 0.27506 0.0
H63 H 0.17026 0.83951 0.29154 0.0
H64 H 0.20148 0.83412 0.38258 0.0
H65 H 0.2505 0.08775 0.44753 0.0
H66 H 0.19783 0.15342 0.42087 0.0
H67 H 0.15691 0.98207 0.25377 0.0
C68 C 0.28013 0.86282 0.25379 0.0
C69 C 0.31478 0.87892 0.27369 0.0
C70 C 0.32321 0.93227 0.33833 0.0
C71 C 0.29723 0.97234 0.37793 0.0
C72 C 0.26313 0.95712 0.35334 0.0
C73 C 0.25466 0.90259 0.29366 0.0
C74 C 0.21725 0.90224 0.26705 0.0
C75 C 0.21281 0.90688 0.16138 0.0
C76 C 0.19809 0.83726 0.30644 0.0
C77 C 0.20635 0.96828 0.315 0.0
C78 C 0.2327 -0.00178 0.36708 0.0
C79 C 0.2295 0.06372 0.409 0.0
C80 C 0.19937 0.1006 0.39392 0.0
C81 C 0.17322 0.07243 0.3358 0.0
C82 C 0.17629 0.00425 0.29961 0.0
H83 H 0.18658 0.39723 0.058 0.0
H84 H 0.20564 0.32675 0.33753 0.0
H85 H 0.25987 0.39626 0.34063 0.0
H86 H 0.27545 0.40653 0.97799 0.0
H87 H 0.27036 0.48672 0.91434 0.0
H88 H 0.23439 0.42626 0.9295 0.0
H89 H 0.1991 0.52521 0.00196 0.0
H90 H 0.23479 0.58599 0.98597 0.0
H91 H 0.21632 0.57377 0.09918 0.0
H92 H 0.31099 0.47343 0.31593 0.0
H93 H 0.35239 0.56781 0.27393 0.0
H94 H 0.29918 0.59571 0.01358 0.0
C95 C 0.2024 0.39636 0.11933 0.0
C96 C 0.19215 0.35683 0.1975 0.0
C97 C 0.21305 0.35735 0.27729 0.0
C98 C 0.24403 0.39598 0.27938 0.0
C99 C 0.25353 0.43452 0.20148 0.0
C100 C 0.23315 0.4362 0.1235 0.0
C101 C 0.24799 0.48744 0.05295 0.0
C102 C 0.25762 0.44944 0.96339 0.0
C103 C 0.22307 0.5466 0.03395 0.0
C104 C 0.2796 0.5145 0.10406 0.0
C105 C 0.28259 0.48206 0.18873 0.0
C106 C 0.30903 0.4993 0.24974 0.0
C107 C 0.33249 0.55298 0.22501 0.0
C108 C 0.32907 0.58962 0.14052 0.0
C109 C 0.30269 0.56866 0.07842 0.0
H110 H 0.65947 0.98939 0.75657 0.0
H111 H 0.69909 0.15892 0.58458 0.0
H112 H 0.75264 0.09519 0.56108 0.0
H113 H 0.72938 0.96544 0.87752 0.0
H114 H 0.72615 0.87117 0.88649 0.0
H115 H 0.68829 0.92006 0.8691 0.0
H116 H 0.67369 0.84761 0.72195 0.0
H117 H 0.71147 0.79742 0.73956 0.0
H118 H 0.70505 0.84143 0.63114 0.0
H119 H 0.8065 0.02408 0.58575 0.0
H120 H 0.8526 0.95218 0.65162 0.0
H121 H 0.7765 0.83113 0.80611 0.0
C122 C 0.6788 0.0115 0.71045 0.0
C123 C 0.67506 0.07856 0.67167 0.0
C124 C 0.70115 0.1068 0.61334 0.0
C125 C 0.73176 0.07105 0.60004 0.0
C126 C 0.73546 0.00649 0.64382 0.0
C127 C 0.70919 0.97632 0.69612 0.0
C128 C 0.72051 0.91122 0.74533 0.0
C129 C 0.71582 0.91745 0.85077 0.0
C130 C 0.70155 0.84553 0.70719 0.0
C131 C 0.75788 0.9122 0.71852 0.0
C132 C 0.76612 0.9662 0.65801 0.0
C133 C 0.80008 0.98059 0.63121 0.0
C134 C 0.82612 0.93966 0.66873 0.0
C135 C 0.8179 0.8863 0.73353 0.0
C136 C 0.78334 0.8715 0.75617 0.0
H137 H 0.81 0.57638 0.97317 0.0
H138 H 0.84176 0.59818 0.68655 0.0
H139 H 0.79583 0.51438 0.64005 0.0
H140 H 0.78607 0.38582 0.95686 0.0
H141 H 0.75046 0.39419 0.03491 0.0
H142 H 0.78786 0.45128 0.04683 0.0
H143 H 0.74945 0.55918 0.03536 0.0
H144 H 0.71205 0.50259 0.02149 0.0
H145 H 0.72224 0.56868 0.93597 0.0
H146 H 0.74249 0.44266 0.62165 0.0
H147 H 0.6899 0.36926 0.63384 0.0
H148 H 0.69376 0.38613 0.93304 0.0
C149 C 0.80782 0.56222 0.90091 0.0
C150 C 0.82951 0.59402 0.83357 0.0
C151 C 0.82571 0.57426 0.73964 0.0
C152 C 0.79953 0.52699 0.71233 0.0
C153 C 0.77779 0.49888 0.77991 0.0
C154 C 0.78212 0.51413 0.87249 0.0
C155 C 0.75475 0.47708 0.93062 0.0
C156 C 0.77074 0.42392 0.99618 0.0
C157 C 0.73337 0.53007 0.98398 0.0
C158 C 0.73379 0.44044 0.85578 0.0
C159 C 0.74751 0.45437 0.76944 0.0
C160 C 0.73182 0.43021 0.6889 0.0
C161 C 0.70172 0.38913 0.69669 0.0
C162 C 0.68772 0.37179 0.78451 0.0
C163 C 0.70399 0.39809 0.86511 0.0
H164 H 0.05983 0.13478 0.07778 0.0
H165 H 0.01516 0.09739 0.34872 0.0
H166 H 0.97337 0.01266 0.28054 0.0
H167 H 0.98092 0.12377 0.94852 0.0
H168 H 0.99942 0.079 0.85174 0.0
H169 H 0.02564 0.13782 0.92121 0.0
H170 H 0.06795 0.03855 0.95187 0.0
H171 H 0.04203 0.97968 0.88184 0.0
H172 H 0.05206 0.95632 -0.00089 0.0
H173 H 0.93684 0.93177 0.18417 0.0
H174 H 0.90985 0.85442 0.06645 0.0
H175 H 0.97815 0.94393 0.85795 0.0
C176 C 0.04123 0.10878 0.12266 0.0
C177 C 0.04062 0.12275 0.21844 0.0
C178 C 0.01604 0.08747 0.2751 0.0
C179 C 0.99213 0.03947 0.23702 0.0
C180 C 0.99319 0.02732 0.14226 0.0
C181 C 0.0172 0.06053 0.08582 0.0
C182 C 0.01331 0.03652 0.98653 0.0
C183 C 0.00428 0.09795 0.92329 0.0
C184 C 0.04576 0.00062 0.9529 0.0
C185 C 0.98345 0.98443 0.9962 0.0
C186 C 0.97212 0.98027 0.08653 0.0
C187 C 0.94537 0.93465 0.1131 0.0
C188 C 0.93017 0.89106 0.04577 0.0
C189 C 0.94186 0.8934 0.9532 0.0
C190 C 0.96849 0.94147 0.92805 0.0
H191 H 0.56096 0.13057 0.92222 0.0
H192 H 0.50928 0.1091 0.65785 0.0
H193 H 0.46556 0.03047 0.72859 0.0
H194 H 0.54771 0.95101 0.98937 0.0
H195 H 0.54132 0.97031 0.10995 0.0
H196 H 0.56765 0.02846 0.03999 0.0
H197 H 0.53007 0.13232 0.08662 0.0
H198 H 0.50342 0.07423 0.15605 0.0
H199 H 0.48453 0.12625 0.06685 0.0
H200 H 0.42832 0.95269 0.82457 0.0
H201 H 0.40197 0.87188 0.9389 0.0
H202 H 0.47755 0.94065 0.14197 0.0
C203 C 0.54031 0.10955 0.87958 0.0
C204 C 0.5384 0.12617 0.78467 0.0
C205 C 0.51128 0.09704 0.73069 0.0
C206 C 0.48618 0.05264 0.7703 0.0
C207 C 0.48862 0.0375 0.86393 0.0
C208 C 0.51509 0.06437 0.91794 0.0
C209 C 0.51254 0.03621 0.01573 0.0
C210 C 0.54418 -0.00602 0.04016 0.0
C211 C 0.50732 0.09582 0.08541 0.0
C212 C 0.48068 0.98903 0.00765 0.0
C213 C 0.46716 0.99129 0.91963 0.0
C214 C 0.43852 0.95059 0.89392 0.0
C215 C 0.42372 0.90491 0.95933 0.0
C216 C 0.43767 0.90017 0.04917 0.0
C217 C 0.46612 0.94381 0.07406 0.0
H218 H 0.94646 0.6216 0.54802 0.0
H219 H 0.00794 0.66295 0.79272 0.0
H220 H 0.05136 0.58289 0.73599 0.0
H221 H 0.96199 0.44029 0.53767 0.0
H222 H 0.96399 0.43509 0.41348 0.0
H223 H 0.93891 0.5011 0.4679 0.0
H224 H 0.97253 0.59831 0.37771 0.0
H225 H 0.99756 0.53246 0.32246 0.0
H226 H 0.0186 0.60344 0.38476 0.0
H227 H 0.08576 0.49112 0.6614 0.0
H228 H 0.11021 0.39614 0.56807 0.0
H229 H 0.02748 0.41389 0.37057 0.0
C230 C 0.96942 0.61483 0.58838 0.0
C231 C 0.97387 0.64857 0.67464 0.0
C232 C 0.00393 0.63741 0.72656 0.0
C233 C 0.02884 0.59215 0.69489 0.0
C234 C 0.02341 0.55818 0.61099 0.0
C235 C 0.99461 0.56909 0.55795 0.0
C236 C 0.99434 0.5226 0.47287 0.0
C237 C 0.96295 0.47177 0.47305 0.0
C238 C 0.99586 0.56687 0.3842 0.0
C239 C 0.02723 0.4838 0.48721 0.0
C240 C 0.04358 0.50516 0.56734 0.0
C241 C 0.07346 0.47444 0.59779 0.0
C242 C 0.0871 0.42041 0.54468 0.0
C243 C 0.07093 0.39808 0.46196 0.0
C244 C 0.0407 0.43056 0.43293 0.0
H245 H 0.44845 0.62695 0.44085 0.0
H246 H 0.49725 0.63135 0.17112 0.0
H247 H 0.5385 0.54557 0.22383 0.0
H248 H 0.52712 0.60804 0.57516 0.0
H249 H 0.50712 0.54911 0.65779 0.0
H250 H 0.48214 0.61401 0.60078 0.0
H251 H 0.43973 0.51616 0.54369 0.0
H252 H 0.46463 0.45101 0.6002 0.0
H253 H 0.45567 0.44351 0.47843 0.0
H254 H 0.57297 0.45535 0.30163 0.0
H255 H 0.59908 0.36737 0.40267 0.0
H256 H 0.52873 0.42085 0.62225 0.0
C257 C 0.46808 0.61045 0.39345 0.0
C258 C 0.46959 0.63601 0.30191 0.0
C259 C 0.49547 0.61255 0.24158 0.0
C260 C 0.51914 0.56381 0.2708 0.0
C261 C 0.51676 0.53888 0.36078 0.0
C262 C 0.49204 0.56142 0.42153 0.0
C263 C 0.49471 0.52437 0.51371 0.0
C264 C 0.50329 0.57703 0.59145 0.0
C265 C 0.46173 0.4812 0.53522 0.0
C266 C 0.52448 0.47726 0.49455 0.0
C267 C 0.53686 0.48663 0.40599 0.0
C268 C 0.56371 0.44781 0.37149 0.0
C269 C 0.57834 0.39793 0.42923 0.0
C270 C 0.56608 0.38745 0.52028 0.0
C271 C 0.53886 0.42795 0.55312 0.0
loop_
_geom_bond_atom_site_label_1
_geom_bond_atom_site_label_2
_geom_bond_distance
_geom_bond_site_symmetry_2
_ccdc_geom_bond_type
Co0 O1 2.216 . S
Co0 O2 2.091 . S
Co0 O4 2.004 . S
Co0 O10 2.021 . S
Co0 O12 2.137 . S
Co0 O13 2.244 . S
O1 Co0 2.216 . S
O1 C8 1.247 . S
O2 Co0 2.091 . S
O2 C8 1.261 . S
C3 O12 1.247 . S
C3 O13 1.272 . S
O4 Co0 2.004 . S
O4 C9 1.259 . S
Co5 O6 2.061 . S
Co5 O11 2.052 . S
Co5 O13 2.135 . S
O6 Co5 2.061 . S
O6 C9 1.235 . S
C7 O10 1.238 . S
C7 O11 1.241 . S
C8 O1 1.247 . S
C8 O2 1.261 . S
C9 O4 1.259 . S
C9 O6 1.235 . S
O10 Co0 2.021 . S
O10 C7 1.238 . S
O11 Co5 2.052 . S
O11 C7 1.241 . S
O12 Co0 2.137 . S
O12 C3 1.247 . S
O13 Co0 2.244 . S
O13 C3 1.272 . S
O13 Co5 2.135 . S
Co14 O15 2.216 . S
Co14 O16 2.091 . S
Co14 O18 2.004 . S
Co14 O24 2.021 . S
Co14 O26 2.137 . S
Co14 O27 2.244 . S
O15 Co14 2.216 . S
O15 C22 1.247 . S
O16 Co14 2.091 . S
O16 C22 1.261 . S
C17 O26 1.247 . S
C17 O27 1.272 . S
O18 Co14 2.004 . S
O18 C23 1.259 . S
Co19 O20 2.061 . S
Co19 O25 2.052 . S
Co19 O27 2.135 . S
O20 Co19 2.061 . S
O20 C23 1.235 . S
C21 O24 1.238 . S
C21 O25 1.241 . S
C22 O15 1.247 . S
C22 O16 1.261 . S
C23 O18 1.259 . S
C23 O20 1.235 . S
O24 Co14 2.021 . S
O24 C21 1.238 . S
O25 Co19 2.052 . S
O25 C21 1.241 . S
O26 Co14 2.137 . S
O26 C17 1.247 . S
O27 Co14 2.244 . S
O27 C17 1.272 . S
O27 Co19 2.135 . S
Co28 O29 2.216 . S
Co28 O30 2.091 . S
Co28 O32 2.004 . S
Co28 O38 2.021 . S
Co28 O40 2.137 . S
Co28 O41 2.244 . S
O29 Co28 2.216 . S
O29 C36 1.247 . S
O30 Co28 2.091 . S
O30 C36 1.261 . S
C31 O40 1.247 . S
C31 O41 1.272 . S
O32 Co28 2.004 . S
O32 C37 1.259 . S
Co33 O34 2.061 . S
Co33 O39 2.052 . S
Co33 O41 2.135 . S
O34 Co33 2.061 . S
O34 C37 1.235 . S
C35 O38 1.238 . S
C35 O39 1.241 . S
C36 O29 1.247 . S
C36 O30 1.261 . S
C37 O32 1.259 . S
C37 O34 1.235 . S
O38 Co28 2.021 . S
O38 C35 1.238 . S
O39 Co33 2.052 . S
O39 C35 1.241 . S
O40 Co28 2.137 . S
O40 C31 1.247 . S
O41 Co28 2.244 . S
O41 C31 1.272 . S
O41 Co33 2.135 . S
Co42 O43 2.216 . S
Co42 O44 2.091 . S
Co42 O46 2.004 . S
Co42 O52 2.021 . S
Co42 O54 2.137 . S
Co42 O55 2.244 . S
O43 Co42 2.216 . S
O43 C50 1.247 . S
O44 Co42 2.091 . S
O44 C50 1.261 . S
C45 O54 1.247 . S
C45 O55 1.272 . S
O46 Co42 2.004 . S
O46 C51 1.259 . S
Co47 O48 2.061 . S
Co47 O53 2.052 . S
Co47 O55 2.135 . S
O48 Co47 2.061 . S
O48 C51 1.235 . S
C49 O52 1.238 . S
C49 O53 1.241 . S
C50 O43 1.247 . S
C50 O44 1.261 . S
C51 O46 1.259 . S
C51 O48 1.235 . S
O52 Co42 2.021 . S
O52 C49 1.238 . S
O53 Co47 2.052 . S
O53 C49 1.241 . S
O54 Co42 2.137 . S
O54 C45 1.247 . S
O55 Co42 2.244 . S
O55 C45 1.272 . S
O55 Co47 2.135 . S
H56 C68 0.930 . S
H57 C70 0.930 . S
H58 C71 0.930 1_545 S
H59 C75 0.959 . S
H60 C75 0.959 . S
H61 C75 0.961 . S
H62 C76 0.960 . S
H63 C76 0.961 . S
H64 C76 0.959 . S
H65 C79 0.929 . S
H66 C80 0.931 . S
H67 C82 0.930 . S
C68 H56 0.930 . S
C68 C69 1.399 . S
C68 C73 1.399 . S
C69 C68 1.399 . S
C69 C70 1.376 . S
C70 H57 0.930 . S
C70 C69 1.376 . S
C70 C71 1.388 . S
C71 H58 0.930 1_565 S
C71 C70 1.388 . S
C71 C72 1.390 . S
C72 C71 1.390 . S
C72 C73 1.394 . S
C72 C78 1.465 1_565 S
C73 C68 1.399 . S
C73 C72 1.394 . S
C73 C74 1.516 . S
C74 C73 1.516 . S
C74 C75 1.502 . S
C74 C76 1.561 . S
C74 C77 1.526 1_565 S
C75 H59 0.959 . S
C75 H60 0.959 . S
C75 H61 0.961 . S
C75 C74 1.502 . S
C76 H62 0.960 . S
C76 H63 0.961 . S
C76 H64 0.959 . S
C76 C74 1.561 . S
C77 C74 1.526 1_545 S
C77 C78 1.396 . S
C77 C82 1.390 . S
C78 C72 1.465 1_545 S
C78 C77 1.396 . S
C78 C79 1.399 . S
C79 H65 0.929 . S
C79 C78 1.399 . S
C79 C80 1.385 . S
C80 H66 0.931 . S
C80 C79 1.385 . S
C80 C81 1.389 . S
C81 C80 1.389 . S
C81 C82 1.387 . S
C82 H67 0.930 . S
C82 C77 1.390 . S
C82 C81 1.387 . S
H83 C95 0.930 . S
H84 C97 0.930 . S
H85 C98 0.930 . S
H86 C102 0.959 . S
H87 C102 0.959 1_556 S
H88 C102 0.961 1_556 S
H89 C103 0.960 . S
H90 C103 0.961 . S
H91 C103 0.959 . S
H92 C106 0.929 . S
H93 C107 0.931 . S
H94 C109 0.930 . S
C95 H83 0.930 . S
C95 C96 1.399 . S
C95 C100 1.399 . S
C96 C95 1.399 . S
C96 C97 1.376 . S
C97 H84 0.930 . S
C97 C96 1.376 . S
C97 C98 1.388 . S
C98 H85 0.930 . S
C98 C97 1.388 . S
C98 C99 1.390 . S
C99 C98 1.390 . S
C99 C100 1.394 . S
C99 C105 1.465 . S
C100 C95 1.399 . S
C100 C99 1.394 . S
C100 C101 1.516 . S
C101 C100 1.516 . S
C101 C102 1.502 . S
C101 C103 1.561 . S
C101 C104 1.526 . S
C102 H86 0.959 . S
C102 H87 0.959 1_554 S
C102 H88 0.961 1_554 S
C102 C101 1.502 . S
C103 H89 0.960 . S
C103 H90 0.961 . S
C103 H91 0.959 . S
C103 C101 1.561 . S
C104 C101 1.526 . S
C104 C105 1.396 . S
C104 C109 1.390 . S
C105 C99 1.465 . S
C105 C104 1.396 . S
C105 C106 1.399 . S
C106 H92 0.929 . S
C106 C105 1.399 . S
C106 C107 1.385 . S
C107 H93 0.931 . S
C107 C106 1.385 . S
C107 C108 1.389 . S
C108 C107 1.389 . S
C108 C109 1.387 . S
C109 H94 0.930 . S
C109 C104 1.390 . S
C109 C108 1.387 . S
H110 C122 0.930 . S
H111 C124 0.930 . S
H112 C125 0.930 . S
H113 C129 0.959 . S
H114 C129 0.959 . S
H115 C129 0.961 . S
H116 C130 0.960 . S
H117 C130 0.961 . S
H118 C130 0.959 . S
H119 C133 0.929 . S
H120 C134 0.931 . S
H121 C136 0.930 . S
C122 H110 0.930 . S
C122 C123 1.399 . S
C122 C127 1.399 . S
C123 C122 1.399 . S
C123 C124 1.376 . S
C124 H111 0.930 . S
C124 C123 1.376 . S
C124 C125 1.388 . S
C125 H112 0.930 . S
C125 C124 1.388 . S
C125 C126 1.390 . S
C126 C125 1.390 . S
C126 C127 1.394 . S
C126 C132 1.465 1_545 S
C127 C122 1.399 . S
C127 C126 1.394 . S
C127 C128 1.516 1_545 S
C128 C127 1.516 1_565 S
C128 C129 1.502 . S
C128 C130 1.561 1_565 S
C128 C131 1.526 . S
C129 H113 0.959 . S
C129 H114 0.959 . S
C129 H115 0.961 . S
C129 C128 1.502 . S
C130 H116 0.960 . S
C130 H117 0.961 . S
C130 H118 0.959 . S
C130 C128 1.561 1_545 S
C131 C128 1.526 . S
C131 C132 1.396 . S
C131 C136 1.390 . S
C132 C126 1.465 1_565 S
C132 C131 1.396 . S
C132 C133 1.399 . S
C133 H119 0.929 . S
C133 C132 1.399 . S
C133 C134 1.385 . S
C134 H120 0.931 . S
C134 C133 1.385 . S
C134 C135 1.389 . S
C135 C134 1.389 . S
C135 C136 1.387 . S
C136 H121 0.930 . S
C136 C131 1.390 . S
C136 C135 1.387 . S
H137 C149 0.930 . S
H138 C151 0.930 . S
H139 C152 0.930 . S
H140 C156 0.959 . S
H141 C156 0.959 1_554 S
H142 C156 0.961 1_554 S
H143 C157 0.960 . S
H144 C157 0.961 . S
H145 C157 0.959 . S
H146 C160 0.929 . S
H147 C161 0.931 . S
H148 C163 0.930 . S
C149 H137 0.930 . S
C149 C150 1.399 . S
C149 C154 1.399 . S
C150 C149 1.399 . S
C150 C151 1.376 . S
C151 H138 0.930 . S
C151 C150 1.376 . S
C151 C152 1.388 . S
C152 H139 0.930 . S
C152 C151 1.388 . S
C152 C153 1.390 . S
C153 C152 1.390 . S
C153 C154 1.394 . S
C153 C159 1.465 . S
C154 C149 1.399 . S
C154 C153 1.394 . S
C154 C155 1.516 . S
C155 C154 1.516 . S
C155 C156 1.502 . S
C155 C157 1.561 . S
C155 C158 1.526 . S
C156 H140 0.959 . S
C156 H141 0.959 1_556 S
C156 H142 0.961 1_556 S
C156 C155 1.502 . S
C157 H143 0.960 . S
C157 H144 0.961 . S
C157 H145 0.959 . S
C157 C155 1.561 . S
C158 C155 1.526 . S
C158 C159 1.396 . S
C158 C163 1.390 . S
C159 C153 1.465 . S
C159 C158 1.396 . S
C159 C160 1.399 . S
C160 H146 0.929 . S
C160 C159 1.399 . S
C160 C161 1.385 . S
C161 H147 0.931 . S
C161 C160 1.385 . S
C161 C162 1.389 . S
C162 C161 1.389 . S
C162 C163 1.387 . S
C163 H148 0.930 . S
C163 C158 1.390 . S
C163 C162 1.387 . S
H164 C176 0.930 1_556 S
H165 C178 0.930 . S
H166 C179 0.930 1_565 S
H167 C183 0.959 . S
H168 C183 0.959 . S
H169 C183 0.961 1_455 S
H170 C184 0.960 1_545 S
H171 C184 0.961 . S
H172 C184 0.959 . S
H173 C187 0.929 . S
H174 C188 0.931 . S
H175 C190 0.930 . S
C176 H164 0.930 1_554 S
C176 C177 1.399 . S
C176 C181 1.399 1_554 S
C177 C176 1.399 . S
C177 C178 1.376 . S
C178 H165 0.930 . S
C178 C177 1.376 . S
C178 C179 1.388 . S
C179 H166 0.930 1_545 S
C179 C178 1.388 . S
C179 C180 1.390 . S
C180 C179 1.390 . S
C180 C181 1.394 1_554 S
C180 C186 1.465 1_445 S
C181 C176 1.399 1_556 S
C181 C180 1.394 1_556 S
C181 C182 1.516 . S
C182 C181 1.516 . S
C182 C183 1.502 1_455 S
C182 C184 1.561 1_545 S
C182 C185 1.526 1_445 S
C183 H167 0.959 . S
C183 H168 0.959 . S
C183 H169 0.961 1_655 S
C183 C182 1.502 1_655 S
C184 H170 0.960 1_565 S
C184 H171 0.961 . S
C184 H172 0.959 . S
C184 C182 1.561 1_565 S
C185 C182 1.526 1_665 S
C185 C186 1.396 1_556 S
C185 C190 1.390 . S
C186 C180 1.465 1_665 S
C186 C185 1.396 1_554 S
C186 C187 1.399 . S
C187 H173 0.929 . S
C187 C186 1.399 . S
C187 C188 1.385 . S
C188 H174 0.931 . S
C188 C187 1.385 . S
C188 C189 1.389 1_554 S
C189 C188 1.389 1_556 S
C189 C190 1.387 . S
C190 H175 0.930 . S
C190 C185 1.390 . S
C190 C189 1.387 . S
H191 C203 0.930 . S
H192 C205 0.930 . S
H193 C206 0.930 . S
H194 C210 0.959 1_556 S
H195 C210 0.959 . S
H196 C210 0.961 . S
H197 C211 0.960 1_545 S
H198 C211 0.961 . S
H199 C211 0.959 1_545 S
H200 C214 0.929 1_545 S
H201 C215 0.931 . S
H202 C217 0.930 . S
C203 H191 0.930 . S
C203 C204 1.399 . S
C203 C208 1.399 . S
C204 C203 1.399 . S
C204 C205 1.376 . S
C205 H192 0.930 . S
C205 C204 1.376 . S
C205 C206 1.388 . S
C206 H193 0.930 . S
C206 C205 1.388 . S
C206 C207 1.390 . S
C207 C206 1.390 . S
C207 C208 1.394 . S
C207 C213 1.465 1_546 S
C208 C203 1.399 . S
C208 C207 1.394 . S
C208 C209 1.516 1_546 S
C209 C208 1.516 1_564 S
C209 C210 1.502 . S
C209 C211 1.561 . S
C209 C212 1.526 . S
C210 H194 0.959 1_554 S
C210 H195 0.959 . S
C210 H196 0.961 . S
C210 C209 1.502 . S
C211 H197 0.960 1_565 S
C211 H198 0.961 . S
C211 H199 0.959 1_565 S
C211 C209 1.561 . S
C212 C209 1.526 . S
C212 C213 1.396 . S
C212 C217 1.390 . S
C213 C207 1.465 1_564 S
C213 C212 1.396 . S
C213 C214 1.399 1_554 S
C214 H200 0.929 1_565 S
C214 C213 1.399 1_556 S
C214 C215 1.385 1_556 S
C215 H201 0.931 . S
C215 C214 1.385 1_554 S
C215 C216 1.389 . S
C216 C215 1.389 . S
C216 C217 1.387 . S
C217 H202 0.930 . S
C217 C212 1.390 . S
C217 C216 1.387 . S
H218 C230 0.930 . S
H219 C232 0.930 . S
H220 C233 0.930 . S
H221 C237 0.959 . S
H222 C237 0.959 . S
H223 C237 0.961 . S
H224 C238 0.960 . S
H225 C238 0.961 . S
H226 C238 0.959 . S
H227 C241 0.929 . S
H228 C242 0.931 . S
H229 C244 0.930 . S
C230 H218 0.930 . S
C230 C231 1.399 . S
C230 C235 1.399 . S
C231 C230 1.399 . S
C231 C232 1.376 . S
C232 H219 0.930 . S
C232 C231 1.376 . S
C232 C233 1.388 1_655 S
C233 H220 0.930 . S
C233 C232 1.388 1_455 S
C233 C234 1.390 . S
C234 C233 1.390 . S
C234 C235 1.394 1_455 S
C234 C240 1.465 . S
C235 C230 1.399 . S
C235 C234 1.394 1_655 S
C235 C236 1.516 . S
C236 C235 1.516 . S
C236 C237 1.502 . S
C236 C238 1.561 . S
C236 C239 1.526 1_655 S
C237 H221 0.959 . S
C237 H222 0.959 . S
C237 H223 0.961 . S
C237 C236 1.502 . S
C238 H224 0.960 . S
C238 H225 0.961 . S
C238 H226 0.959 . S
C238 C236 1.561 . S
C239 C236 1.526 1_455 S
C239 C240 1.396 . S
C239 C244 1.390 . S
C240 C234 1.465 . S
C240 C239 1.396 . S
C240 C241 1.399 . S
C241 H227 0.929 . S
C241 C240 1.399 . S
C241 C242 1.385 . S
C242 H228 0.931 . S
C242 C241 1.385 . S
C242 C243 1.389 . S
C243 C242 1.389 . S
C243 C244 1.387 . S
C244 H229 0.930 . S
C244 C239 1.390 . S
C244 C243 1.387 . S
H245 C257 0.930 . S
H246 C259 0.930 . S
H247 C260 0.930 . S
H248 C264 0.959 . S
H249 C264 0.959 . S
H250 C264 0.961 . S
H251 C265 0.960 . S
H252 C265 0.961 . S
H253 C265 0.959 . S
H254 C268 0.929 . S
H255 C269 0.931 . S
H256 C271 0.930 . S
C257 H245 0.930 . S
C257 C258 1.399 . S
C257 C262 1.399 . S
C258 C257 1.399 . S
C258 C259 1.376 . S
C259 H246 0.930 . S
C259 C258 1.376 . S
C259 C260 1.388 . S
C260 H247 0.930 . S
C260 C259 1.388 . S
C260 C261 1.390 . S
C261 C260 1.390 . S
C261 C262 1.394 . S
C261 C267 1.465 . S
C262 C257 1.399 . S
C262 C261 1.394 . S
C262 C263 1.516 . S
C263 C262 1.516 . S
C263 C264 1.502 . S
C263 C265 1.561 . S
C263 C266 1.526 . S
C264 H248 0.959 . S
C264 H249 0.959 . S
C264 H250 0.961 . S
C264 C263 1.502 . S
C265 H251 0.960 . S
C265 H252 0.961 . S
C265 H253 0.959 . S
C265 C263 1.561 . S
C266 C263 1.526 . S
C266 C267 1.396 . S
C266 C271 1.390 . S
C267 C261 1.465 . S
C267 C266 1.396 . S
C267 C268 1.399 . S
C268 H254 0.929 . S
C268 C267 1.399 . S
C268 C269 1.385 . S
C269 H255 0.931 . S
C269 C268 1.385 . S
C269 C270 1.389 . S
C270 C269 1.389 . S
C270 C271 1.387 . S
C271 H256 0.930 . S
C271 C266 1.390 . S
C271 C270 1.387 . S
C69 C23 1.112 . S
C81 C9 1.088 . S
C96 C7 0.975 . S
C108 C21 0.998 . S
C123 C51 1.012 . S
C135 C37 1.030 . S
C150 C35 0.972 . S
C162 C49 0.972 . S
C177 C3 1.488 . S
C189 C31 1.547 . S
C204 C45 1.525 . S
C216 C17 1.520 . S
C231 C36 1.548 . S
C243 C8 1.526 . S
C258 C22 1.519 . S
C270 C50 1.551 . S
