# Generated by pormake.
# Topology lvt-a, (3)-cn, num edge types: 1
# Building blocks:
#     Node 0, Type 0, BuildingBlock: OLANEW_clean_sbu_2, # of connection points: 3
#     Node 1, Type 0, BuildingBlock: OLANEW_clean_sbu_2, # of connection points: 3
#     Node 2, Type 0, BuildingBlock: OLANEW_clean_sbu_2, # of connection points: 3
#     Node 3, Type 0, BuildingBlock: OLANEW_clean_sbu_2, # of connection points: 3
#     Node 4, Type 0, BuildingBlock: OLANEW_clean_sbu_2, # of connection points: 3
#     Node 5, Type 0, BuildingBlock: OLANEW_clean_sbu_2, # of connection points: 3
#     Node 6, Type 0, BuildingBlock: OLANEW_clean_sbu_2, # of connection points: 3
#     Node 7, Type 0, BuildingBlock: OLANEW_clean_sbu_2, # of connection points: 3
#     Node 8, Type 0, BuildingBlock: OLANEW_clean_sbu_2, # of connection points: 3
#     Node 9, Type 0, BuildingBlock: OLANEW_clean_sbu_2, # of connection points: 3
#     Node 10, Type 0, BuildingBlock: OLANEW_clean_sbu_2, # of connection points: 3
#     Node 11, Type 0, BuildingBlock: OLANEW_clean_sbu_2, # of connection points: 3
#     Node 12, Type 0, BuildingBlock: OLANEW_clean_sbu_2, # of connection points: 3
#     Node 13, Type 0, BuildingBlock: OLANEW_clean_sbu_2, # of connection points: 3
#     Node 14, Type 0, BuildingBlock: OLANEW_clean_sbu_2, # of connection points: 3
#     Node 15, Type 0, BuildingBlock: OLANEW_clean_sbu_2, # of connection points: 3
#     Node 16, Type 0, BuildingBlock: OLANEW_clean_sbu_2, # of connection points: 3
#     Node 17, Type 0, BuildingBlock: OLANEW_clean_sbu_2, # of connection points: 3
#     Node 18, Type 0, BuildingBlock: OLANEW_clean_sbu_2, # of connection points: 3
#     Node 19, Type 0, BuildingBlock: OLANEW_clean_sbu_2, # of connection points: 3
#     Node 20, Type 0, BuildingBlock: OLANEW_clean_sbu_2, # of connection points: 3
#     Node 21, Type 0, BuildingBlock: OLANEW_clean_sbu_2, # of connection points: 3
#     Node 22, Type 0, BuildingBlock: OLANEW_clean_sbu_2, # of connection points: 3
#     Node 23, Type 0, BuildingBlock: OLANEW_clean_sbu_2, # of connection points: 3
#     Node 24, Type 0, BuildingBlock: OLANEW_clean_sbu_2, # of connection points: 3
#     Node 25, Type 0, BuildingBlock: OLANEW_clean_sbu_2, # of connection points: 3
#     Node 26, Type 0, BuildingBlock: OLANEW_clean_sbu_2, # of connection points: 3
#     Node 27, Type 0, BuildingBlock: OLANEW_clean_sbu_2, # of connection points: 3
#     Node 28, Type 0, BuildingBlock: OLANEW_clean_sbu_2, # of connection points: 3
#     Node 29, Type 0, BuildingBlock: OLANEW_clean_sbu_2, # of connection points: 3
#     Node 30, Type 0, BuildingBlock: OLANEW_clean_sbu_2, # of connection points: 3
#     Node 31, Type 0, BuildingBlock: OLANEW_clean_sbu_2, # of connection points: 3
#     Edge 32, Type (0, 0), BuildingBlock: OJICUG_clean_linker_0, # of connection points: 2
#     Edge 33, Type (0, 0), BuildingBlock: OJICUG_clean_linker_0, # of connection points: 2
#     Edge 34, Type (0, 0), BuildingBlock: OJICUG_clean_linker_0, # of connection points: 2
#     Edge 35, Type (0, 0), BuildingBlock: OJICUG_clean_linker_0, # of connection points: 2
#     Edge 36, Type (0, 0), BuildingBlock: OJICUG_clean_linker_0, # of connection points: 2
#     Edge 37, Type (0, 0), BuildingBlock: OJICUG_clean_linker_0, # of connection points: 2
#     Edge 38, Type (0, 0), BuildingBlock: OJICUG_clean_linker_0, # of connection points: 2
#     Edge 39, Type (0, 0), BuildingBlock: OJICUG_clean_linker_0, # of connection points: 2
#     Edge 40, Type (0, 0), BuildingBlock: OJICUG_clean_linker_0, # of connection points: 2
#     Edge 41, Type (0, 0), BuildingBlock: OJICUG_clean_linker_0, # of connection points: 2
#     Edge 42, Type (0, 0), BuildingBlock: OJICUG_clean_linker_0, # of connection points: 2
#     Edge 43, Type (0, 0), BuildingBlock: OJICUG_clean_linker_0, # of connection points: 2
#     Edge 44, Type (0, 0), BuildingBlock: OJICUG_clean_linker_0, # of connection points: 2
#     Edge 45, Type (0, 0), BuildingBlock: OJICUG_clean_linker_0, # of connection points: 2
#     Edge 46, Type (0, 0), BuildingBlock: OJICUG_clean_linker_0, # of connection points: 2
#     Edge 47, Type (0, 0), BuildingBlock: OJICUG_clean_linker_0, # of connection points: 2
#     Edge 48, Type (0, 0), BuildingBlock: OJICUG_clean_linker_0, # of connection points: 2
#     Edge 49, Type (0, 0), BuildingBlock: OJICUG_clean_linker_0, # of connection points: 2
#     Edge 50, Type (0, 0), BuildingBlock: OJICUG_clean_linker_0, # of connection points: 2
#     Edge 51, Type (0, 0), BuildingBlock: OJICUG_clean_linker_0, # of connection points: 2
#     Edge 52, Type (0, 0), BuildingBlock: OJICUG_clean_linker_0, # of connection points: 2
#     Edge 53, Type (0, 0), BuildingBlock: OJICUG_clean_linker_0, # of connection points: 2
#     Edge 54, Type (0, 0), BuildingBlock: OJICUG_clean_linker_0, # of connection points: 2
#     Edge 55, Type (0, 0), BuildingBlock: OJICUG_clean_linker_0, # of connection points: 2
#     Edge 56, Type (0, 0), BuildingBlock: OJICUG_clean_linker_0, # of connection points: 2
#     Edge 57, Type (0, 0), BuildingBlock: OJICUG_clean_linker_0, # of connection points: 2
#     Edge 58, Type (0, 0), BuildingBlock: OJICUG_clean_linker_0, # of connection points: 2
#     Edge 59, Type (0, 0), BuildingBlock: OJICUG_clean_linker_0, # of connection points: 2
#     Edge 60, Type (0, 0), BuildingBlock: OJICUG_clean_linker_0, # of connection points: 2
#     Edge 61, Type (0, 0), BuildingBlock: OJICUG_clean_linker_0, # of connection points: 2
#     Edge 62, Type (0, 0), BuildingBlock: OJICUG_clean_linker_0, # of connection points: 2
#     Edge 63, Type (0, 0), BuildingBlock: OJICUG_clean_linker_0, # of connection points: 2
#     Edge 64, Type (0, 0), BuildingBlock: OJICUG_clean_linker_0, # of connection points: 2
#     Edge 65, Type (0, 0), BuildingBlock: OJICUG_clean_linker_0, # of connection points: 2
#     Edge 66, Type (0, 0), BuildingBlock: OJICUG_clean_linker_0, # of connection points: 2
#     Edge 67, Type (0, 0), BuildingBlock: OJICUG_clean_linker_0, # of connection points: 2
#     Edge 68, Type (0, 0), BuildingBlock: OJICUG_clean_linker_0, # of connection points: 2
#     Edge 69, Type (0, 0), BuildingBlock: OJICUG_clean_linker_0, # of connection points: 2
#     Edge 70, Type (0, 0), BuildingBlock: OJICUG_clean_linker_0, # of connection points: 2
#     Edge 71, Type (0, 0), BuildingBlock: OJICUG_clean_linker_0, # of connection points: 2
#     Edge 72, Type (0, 0), BuildingBlock: OJICUG_clean_linker_0, # of connection points: 2
#     Edge 73, Type (0, 0), BuildingBlock: OJICUG_clean_linker_0, # of connection points: 2
#     Edge 74, Type (0, 0), BuildingBlock: OJICUG_clean_linker_0, # of connection points: 2
#     Edge 75, Type (0, 0), BuildingBlock: OJICUG_clean_linker_0, # of connection points: 2
#     Edge 76, Type (0, 0), BuildingBlock: OJICUG_clean_linker_0, # of connection points: 2
#     Edge 77, Type (0, 0), BuildingBlock: OJICUG_clean_linker_0, # of connection points: 2
#     Edge 78, Type (0, 0), BuildingBlock: OJICUG_clean_linker_0, # of connection points: 2
#     Edge 79, Type (0, 0), BuildingBlock: OJICUG_clean_linker_0, # of connection points: 2
# Relax obj value: 0.006
# Max RMSD: 0.017
# Mean RMSD: 0.017
data_MOF--net-lvt-a--node1-OLANEW_clean_sbu_2--edge1-OJICUG_clean_linker_0
_symmetry_space_group_name_H-M    P1
_symmetry_Int_Tables_number       1
_symmetry_cell_setting            triclinic
loop_
_symmetry_equiv_pos_as_xyz
'x, y, z'
_cell_length_a     71.672807
_cell_length_b     71.234523
_cell_length_c     61.040799
_cell_angle_alpha  90.00455
_cell_angle_beta   90.107674
_cell_angle_gamma 90.036044
loop_
_atom_site_label
_atom_site_type_symbol
_atom_site_fract_x
_atom_site_fract_y
_atom_site_fract_z
_atom_type_partial_charge
O0 O 0.03162 0.58231 0.05196 0.0
Cd1 Cd 0.06446 0.58527 0.04161 0.0
O2 O 0.03502 0.5563 0.07093 0.0
Cd3 Cd 0.06206 0.55027 0.05601 0.0
O4 O 0.07386 0.53252 0.03025 0.0
C5 C 0.07317 0.53818 0.01052 0.0
O6 O 0.0671 0.55525 0.00655 0.0
C7 C 0.02484 0.56987 0.0646 0.0
C8 C 0.08538 0.60165 0.07517 0.0
O9 O 0.07509 0.61162 0.06256 0.0
O10 O 0.08593 0.58388 0.07194 0.0
O11 O 0.65424 0.78799 0.31158 0.0
Cd12 Cd 0.66145 0.82152 0.30936 0.0
O13 O 0.65449 0.78396 0.27583 0.0
Cd14 Cd 0.66562 0.8116 0.26745 0.0
O15 O 0.68867 0.82347 0.2485 0.0
C16 C 0.70482 0.8238 0.25714 0.0
O17 O 0.70663 0.8188 0.27776 0.0
C18 C 0.65204 0.7774 0.295 0.0
C19 C 0.6374 0.84339 0.33473 0.0
O20 O 0.63427 0.84077 0.31427 0.0
O21 O 0.65183 0.83562 0.3432 0.0
O22 O 0.43645 0.40325 0.56586 0.0
Cd23 Cd 0.40272 0.40667 0.56098 0.0
O24 O 0.43793 0.43189 0.57923 0.0
Cd25 Cd 0.41051 0.44082 0.56748 0.0
O26 O 0.39784 0.46071 0.54454 0.0
C27 C 0.39891 0.45717 0.52417 0.0
O28 O 0.4059 0.44097 0.51796 0.0
C29 C 0.44579 0.41631 0.57494 0.0
C30 C 0.38253 0.3844 0.5902 0.0
O31 O 0.38517 0.37908 0.57039 0.0
O32 O 0.38944 0.40018 0.59621 0.0
O33 O 0.82412 0.18634 0.80888 0.0
Cd34 Cd 0.81906 0.15241 0.80673 0.0
O35 O 0.79884 0.18968 0.82888 0.0
Cd36 Cd 0.78741 0.16245 0.81913 0.0
O37 O 0.76844 0.14956 0.79534 0.0
C38 C 0.77417 0.14701 0.77587 0.0
O39 O 0.79173 0.1506 0.77132 0.0
C40 C 0.81354 0.19664 0.82051 0.0
C41 C 0.84082 0.13306 0.83723 0.0
O42 O 0.84599 0.13447 0.81721 0.0
O43 O 0.82539 0.14075 0.84282 0.0
O44 O 0.03195 0.41014 0.91595 0.0
Cd45 Cd 0.06578 0.41312 0.92026 0.0
O46 O 0.02974 0.44037 0.90893 0.0
Cd47 Cd 0.05755 0.44828 0.92049 0.0
O48 O 0.07077 0.46709 0.94429 0.0
C49 C 0.07104 0.48456 0.94003 0.0
O50 O 0.06505 0.49025 0.92078 0.0
C51 C 0.02219 0.42423 0.91022 0.0
C52 C 0.08561 0.38851 0.89334 0.0
O53 O 0.08238 0.38442 0.91342 0.0
O54 O 0.0794 0.40415 0.88596 0.0
O55 O 0.82625 0.78439 0.18048 0.0
Cd56 Cd 0.81931 0.81798 0.18297 0.0
O57 O 0.80416 0.78021 0.15589 0.0
Cd58 Cd 0.79083 0.80715 0.1629 0.0
O59 O 0.76825 0.82014 0.18164 0.0
C60 C 0.77003 0.82121 0.20234 0.0
O61 O 0.78591 0.81603 0.21126 0.0
C62 C 0.81779 0.77377 0.16696 0.0
C63 C 0.8416 0.83986 0.1555 0.0
O64 O 0.84588 0.83754 0.17572 0.0
O65 O 0.82688 0.83174 0.14824 0.0
O66 O 0.43797 0.56711 0.40901 0.0
Cd67 Cd 0.40521 0.55773 0.40613 0.0
O68 O 0.43744 0.56993 0.4449 0.0
Cd69 Cd 0.40992 0.55736 0.44972 0.0
O70 O 0.39725 0.53484 0.46903 0.0
C71 C 0.39871 0.51804 0.46223 0.0
O72 O 0.40606 0.51505 0.44284 0.0
C73 C 0.44614 0.57137 0.42684 0.0
C74 C 0.3843 0.58247 0.38045 0.0
O75 O 0.38448 0.58392 0.40138 0.0
O76 O 0.39404 0.5694 0.37168 0.0
O77 O 0.65125 0.18822 0.67514 0.0
Cd78 Cd 0.65218 0.15443 0.68232 0.0
O79 O 0.68132 0.18789 0.66801 0.0
Cd80 Cd 0.68717 0.1604 0.68237 0.0
O81 O 0.70439 0.14808 0.70827 0.0
C82 C 0.72166 0.14562 0.7045 0.0
O83 O 0.72796 0.14879 0.68464 0.0
C84 C 0.66586 0.19664 0.66857 0.0
C85 C 0.63036 0.13389 0.65291 0.0
O86 O 0.62421 0.13803 0.67201 0.0
O87 O 0.64674 0.13951 0.64768 0.0
O88 O 0.93278 0.40998 0.91979 0.0
Cd89 Cd 0.89934 0.41303 0.92716 0.0
O90 O 0.93405 0.43973 0.91023 0.0
Cd91 Cd 0.90666 0.44753 0.92297 0.0
O92 O 0.89413 0.46579 0.94769 0.0
C93 C 0.89527 0.46087 0.96766 0.0
O94 O 0.90219 0.44426 0.97233 0.0
C95 C 0.94196 0.42383 0.91226 0.0
C96 C 0.87706 0.38881 0.90237 0.0
O97 O 0.88296 0.40435 0.89437 0.0
O98 O 0.88186 0.3846 0.92201 0.0
O99 O 0.31126 0.18633 0.66433 0.0
Cd100 Cd 0.30658 0.15232 0.6658 0.0
O101 O 0.28146 0.19035 0.65701 0.0
Cd102 Cd 0.27215 0.16209 0.66565 0.0
O103 O 0.25195 0.14879 0.68756 0.0
C104 C 0.25589 0.14786 0.70785 0.0
O105 O 0.27257 0.15314 0.71436 0.0
C106 C 0.29779 0.19711 0.65926 0.0
C107 C 0.33098 0.13273 0.63849 0.0
O108 O 0.31607 0.14024 0.63089 0.0
O109 O 0.33445 0.13454 0.65899 0.0
O110 O 0.53588 0.56865 0.41538 0.0
Cd111 Cd 0.569 0.56054 0.41758 0.0
O112 O 0.53337 0.573 0.45093 0.0
Cd113 Cd 0.56092 0.56187 0.45914 0.0
O114 O 0.57394 0.53958 0.47848 0.0
C115 C 0.57402 0.523 0.47078 0.0
O116 O 0.56799 0.52028 0.45068 0.0
C117 C 0.52612 0.57328 0.4319 0.0
C118 C 0.59192 0.58575 0.39516 0.0
O119 O 0.58432 0.57183 0.38526 0.0
O120 O 0.58857 0.58784 0.41564 0.0
O121 O 0.16602 0.78955 0.15673 0.0
Cd122 Cd 0.16612 0.82352 0.16289 0.0
O123 O 0.14901 0.78557 0.18632 0.0
Cd124 Cd 0.15703 0.81271 0.20014 0.0
O125 O 0.17774 0.82487 0.22239 0.0
C126 C 0.1945 0.82609 0.21576 0.0
O127 O 0.19823 0.82172 0.19532 0.0
C128 C 0.15635 0.77891 0.16902 0.0
C129 C 0.14171 0.84168 0.13419 0.0
O130 O 0.13564 0.83323 0.15128 0.0
O131 O 0.15933 0.84169 0.13066 0.0
O132 O 0.93839 0.55119 0.08892 0.0
Cd133 Cd 0.90539 0.54236 0.0902 0.0
O134 O 0.93546 0.56752 0.05854 0.0
Cd135 Cd 0.90814 0.55557 0.05084 0.0
O136 O 0.89508 0.53464 0.02955 0.0
C137 C 0.89625 0.51742 0.03486 0.0
O138 O 0.9036 0.51306 0.05393 0.0
C139 C 0.94542 0.562 0.07455 0.0
C140 C 0.8827 0.57056 0.10758 0.0
O141 O 0.89101 0.55875 0.12007 0.0
O142 O 0.88522 0.56913 0.08687 0.0
O143 O 0.16398 0.18337 0.83129 0.0
Cd144 Cd 0.17101 0.15012 0.82535 0.0
O145 O 0.14937 0.18701 0.79987 0.0
Cd146 Cd 0.15917 0.16008 0.78716 0.0
O147 O 0.17987 0.14781 0.76508 0.0
C148 C 0.19676 0.14707 0.77142 0.0
O149 O 0.20076 0.15205 0.79162 0.0
C150 C 0.15467 0.19364 0.81819 0.0
C151 C 0.14407 0.12575 0.8422 0.0
O152 O 0.15726 0.1321 0.85432 0.0
O153 O 0.14348 0.1311 0.82216 0.0
O154 O 0.5355 0.4048 0.56594 0.0
Cd155 Cd 0.56906 0.40908 0.56045 0.0
O156 O 0.53369 0.43241 0.58194 0.0
Cd157 Cd 0.56125 0.44216 0.57176 0.0
O158 O 0.57416 0.46316 0.55049 0.0
C159 C 0.57422 0.46021 0.52995 0.0
O160 O 0.56825 0.44393 0.52261 0.0
C161 C 0.526 0.41709 0.57613 0.0
C162 C 0.59065 0.38643 0.58788 0.0
O163 O 0.58388 0.40201 0.59471 0.0
O164 O 0.58713 0.38147 0.56811 0.0
O165 O 0.31104 0.78592 0.31725 0.0
Cd166 Cd 0.3059 0.81976 0.31359 0.0
O167 O 0.28216 0.78186 0.32849 0.0
Cd168 Cd 0.27203 0.80977 0.31957 0.0
O169 O 0.25121 0.82307 0.29841 0.0
C170 C 0.25478 0.82469 0.2781 0.0
O171 O 0.27147 0.82003 0.27108 0.0
C172 C 0.29829 0.7752 0.32459 0.0
C173 C 0.33143 0.84143 0.33726 0.0
O174 O 0.31678 0.83474 0.34641 0.0
O175 O 0.33411 0.83772 0.31695 0.0
O176 O 0.53345 0.07043 0.56667 0.0
Cd177 Cd 0.56722 0.06622 0.5634 0.0
O178 O 0.53094 0.04235 0.58138 0.0
Cd179 Cd 0.55859 0.0326 0.57154 0.0
O180 O 0.57164 0.01213 0.54969 0.0
C181 C 0.57165 0.01554 0.52924 0.0
O182 O 0.56553 0.03191 0.52242 0.0
C183 C 0.52355 0.0579 0.57591 0.0
C184 C 0.58712 0.08892 0.59253 0.0
O185 O 0.58501 0.09375 0.57245 0.0
O186 O 0.57981 0.07342 0.59884 0.0
O187 O 0.14656 0.28463 0.81376 0.0
Cd188 Cd 0.1526 0.31838 0.81085 0.0
O189 O 0.17281 0.28037 0.83182 0.0
Cd190 Cd 0.18439 0.30755 0.82218 0.0
O191 O 0.20295 0.32091 0.79837 0.0
C192 C 0.19686 0.324 0.77913 0.0
O193 O 0.17919 0.32064 0.77487 0.0
C194 C 0.15748 0.27391 0.82443 0.0
C195 C 0.12978 0.3401 0.83785 0.0
O196 O 0.12573 0.33763 0.81759 0.0
O197 O 0.1445 0.33218 0.84538 0.0
O198 O 0.93843 0.90776 0.07265 0.0
Cd199 Cd 0.90464 0.91277 0.07178 0.0
O200 O 0.94345 0.93823 0.07328 0.0
Cd201 Cd 0.91529 0.94677 0.06376 0.0
O202 O 0.90204 0.96397 0.03844 0.0
C203 C 0.90163 0.98167 0.04108 0.0
O204 O 0.90741 -0.01131 0.05981 0.0
C205 C 0.94966 0.92153 0.07429 0.0
C206 C 0.88512 0.88818 0.09907 0.0
O207 O 0.88702 0.88468 0.0786 0.0
O208 O 0.89254 0.90322 0.10666 0.0
O209 O 0.31723 0.68669 0.30907 0.0
Cd210 Cd 0.316 0.65326 0.29986 0.0
O211 O 0.28758 0.68616 0.31832 0.0
Cd212 Cd 0.28111 0.65906 0.30328 0.0
O213 O 0.26364 0.64697 0.27743 0.0
C214 C 0.2463 0.645 0.28116 0.0
O215 O 0.24002 0.64856 0.30094 0.0
C216 C 0.30302 0.69491 0.31704 0.0
C217 C 0.33892 0.63123 0.32653 0.0
O218 O 0.3445 0.63685 0.30769 0.0
O219 O 0.32259 0.63614 0.33282 0.0
O220 O 0.53454 0.90629 0.41203 0.0
Cd221 Cd 0.56759 0.91497 0.4124 0.0
O222 O 0.53287 0.90341 0.44786 0.0
Cd223 Cd 0.56036 0.91521 0.45506 0.0
O224 O 0.5729 0.93739 0.47507 0.0
C225 C 0.57248 0.95417 0.468 0.0
O226 O 0.56627 0.95727 0.44805 0.0
C227 C 0.52522 0.90221 0.42909 0.0
C228 C 0.58956 0.89093 0.38711 0.0
O229 O 0.58774 0.88834 0.40778 0.0
O230 O 0.58093 0.9048 0.3784 0.0
O231 O 0.31781 0.2859 0.6728 0.0
Cd232 Cd 0.31712 0.31968 0.68013 0.0
O233 O 0.28737 0.28617 0.668 0.0
Cd234 Cd 0.28209 0.31343 0.68322 0.0
O235 O 0.26535 0.32498 0.70997 0.0
C236 C 0.24799 0.32742 0.70669 0.0
O237 O 0.2413 0.32471 0.68688 0.0
C238 C 0.30287 0.27749 0.66725 0.0
C239 C 0.339 0.34007 0.65072 0.0
O240 O 0.34514 0.33597 0.66987 0.0
O241 O 0.3226 0.3345 0.64545 0.0
O242 O 0.93979 0.07551 0.92492 0.0
Cd243 Cd 0.90622 0.07264 0.9314 0.0
O244 O 0.93987 0.04899 0.90645 0.0
Cd245 Cd 0.91314 0.03983 0.92001 0.0
O246 O 0.90105 0.02327 0.94667 0.0
C247 C 0.90089 0.03027 0.96584 0.0
O248 O 0.9064 0.04772 0.96849 0.0
C249 C 0.94832 0.06369 0.91296 0.0
C250 C 0.88523 0.09259 0.90067 0.0
O251 O 0.88869 0.09953 0.91962 0.0
O252 O 0.8917 0.07627 0.89623 0.0
O253 O 0.14688 0.68841 0.17357 0.0
Cd254 Cd 0.14739 0.65431 0.17827 0.0
O255 O 0.17355 0.69068 0.15602 0.0
Cd256 Cd 0.18198 0.66242 0.16581 0.0
O257 O 0.20011 0.64884 0.18994 0.0
C258 C 0.19418 0.64689 0.20942 0.0
O259 O 0.17679 0.65137 0.21376 0.0
C260 C 0.15874 0.69829 0.16324 0.0
C261 C 0.12744 0.63651 0.14488 0.0
O262 O 0.11905 0.64425 0.16103 0.0
O263 O 0.14531 0.63702 0.14448 0.0
O264 O 0.43644 0.90668 0.40965 0.0
Cd265 Cd 0.40351 0.91575 0.40859 0.0
O266 O 0.43688 0.90352 0.4455 0.0
Cd267 Cd 0.40926 0.91554 0.45121 0.0
O268 O 0.39618 0.93815 0.46994 0.0
C269 C 0.39716 0.9548 0.46255 0.0
O270 O 0.40429 0.95749 0.44297 0.0
C271 C 0.44514 0.90239 0.42712 0.0
C272 C 0.38118 0.8904 0.38545 0.0
O273 O 0.39014 0.90345 0.37554 0.0
O274 O 0.38289 0.88923 0.40632 0.0
O275 O 0.81353 0.68324 0.15757 0.0
Cd276 Cd 0.80561 0.64999 0.16172 0.0
O277 O 0.82172 0.68689 0.19206 0.0
Cd278 Cd 0.80983 0.65993 0.20201 0.0
O279 O 0.78553 0.64766 0.21829 0.0
C280 C 0.77061 0.64532 0.20732 0.0
O281 O 0.77084 0.64871 0.18617 0.0
C282 C 0.82006 0.69353 0.17281 0.0
C283 C 0.83199 0.62557 0.14383 0.0
O284 O 0.81897 0.63261 0.13199 0.0
O285 O 0.83268 0.63025 0.1641 0.0
O286 O 0.03616 0.05077 0.8922 0.0
Cd287 Cd 0.06922 0.04216 0.89219 0.0
O288 O 0.03711 0.06407 0.92469 0.0
Cd289 Cd 0.06419 0.05158 0.93243 0.0
O290 O 0.07663 0.02811 0.95037 0.0
C291 C 0.07406 0.01165 0.9429 0.0
O292 O 0.06564 0.00971 0.92389 0.0
C293 C 0.02816 0.06003 0.90731 0.0
C294 C 0.09229 0.07059 0.87606 0.0
O295 O 0.08433 0.05889 0.86311 0.0
O296 O 0.08923 0.06896 0.89666 0.0
O297 O 0.65757 0.2878 0.66868 0.0
Cd298 Cd 0.66238 0.32175 0.67124 0.0
O299 O 0.68708 0.28388 0.65992 0.0
Cd300 Cd 0.6967 0.31188 0.66932 0.0
O301 O 0.71716 0.32484 0.69126 0.0
C302 C 0.71351 0.32539 0.71162 0.0
O303 O 0.69694 0.31993 0.71826 0.0
C304 C 0.67081 0.27712 0.66262 0.0
C305 C 0.63826 0.34197 0.64411 0.0
O306 O 0.65325 0.33465 0.63656 0.0
O307 O 0.63458 0.33967 0.66448 0.0
O308 O 0.43456 0.07124 0.56138 0.0
Cd309 Cd 0.40115 0.06765 0.55406 0.0
O310 O 0.43521 0.04359 0.57742 0.0
Cd311 Cd 0.40797 0.03436 0.56539 0.0
O312 O 0.39547 0.01391 0.54303 0.0
C313 C 0.39643 0.01703 0.52256 0.0
O314 O 0.4032 0.03319 0.51585 0.0
C315 C 0.4434 0.05878 0.57212 0.0
C316 C 0.37915 0.08956 0.58177 0.0
O317 O 0.38553 0.07364 0.58805 0.0
O318 O 0.38323 0.09519 0.56242 0.0
O319 O 0.65867 0.68983 0.32266 0.0
Cd320 Cd 0.66894 0.65733 0.32746 0.0
O321 O 0.65943 0.68809 0.28669 0.0
Cd322 Cd 0.67355 0.66094 0.28512 0.0
O323 O 0.6989 0.64831 0.2717 0.0
C324 C 0.69961 0.64553 0.25114 0.0
O325 O 0.68456 0.64862 0.23936 0.0
C326 C 0.65589 0.69732 0.30403 0.0
C327 C 0.64284 0.63508 0.34935 0.0
O328 O 0.65482 0.64489 0.35996 0.0
O329 O 0.6431 0.63589 0.32837 0.0
O330 O 0.03561 0.89752 0.05611 0.0
Cd331 Cd 0.06723 0.89284 0.04206 0.0
O332 O 0.03852 0.92798 0.06119 0.0
Cd333 Cd 0.06564 0.93144 0.04539 0.0
O334 O 0.078 0.95099 0.02188 0.0
C335 C 0.07482 0.94848 0.0016 0.0
O336 O 0.06595 0.9332 -0.00454 0.0
C337 C 0.02885 0.91305 0.06258 0.0
C338 C 0.09117 0.87678 0.07294 0.0
O339 O 0.09172 0.89445 0.06899 0.0
O340 O 0.07931 0.86677 0.06242 0.0
O341 O 0.80709 0.28694 0.83141 0.0
Cd342 Cd 0.80094 0.32063 0.82863 0.0
O343 O 0.82121 0.28466 0.79957 0.0
Cd344 Cd 0.81145 0.31226 0.78891 0.0
O345 O 0.79037 0.32499 0.76763 0.0
C346 C 0.77357 0.32543 0.77426 0.0
O347 O 0.76992 0.31992 0.79435 0.0
C348 C 0.81602 0.27719 0.81748 0.0
C349 C 0.82664 0.34195 0.85246 0.0
O350 O 0.8125 0.33441 0.86181 0.0
O351 O 0.8287 0.33939 0.83182 0.0
C352 C 0.07845 0.49256 0.97917 0.0
C353 C 0.07492 0.49844 0.95757 0.0
H354 H 0.08088 0.50052 0.01289 0.0
C355 C 0.07322 0.51776 0.9533 0.0
H356 H 0.07995 0.4778 0.98303 0.0
C357 C 0.07374 0.53079 0.97041 0.0
C358 C 0.07598 0.5248 -0.0078 0.0
H359 H 0.07066 0.52281 0.93683 0.0
H360 H 0.07155 0.54548 0.96662 0.0
C361 C 0.07899 0.50561 -0.00369 0.0
C362 C 0.73585 0.82777 0.20714 0.0
C363 C 0.75365 0.82517 0.21639 0.0
H364 H 0.70642 0.82958 0.21276 0.0
C365 C 0.75535 0.82454 0.23933 0.0
H366 H 0.73405 0.82844 0.18953 0.0
C367 C 0.73952 0.82519 0.25264 0.0
C368 C 0.72162 0.82649 0.24333 0.0
H369 H 0.76886 0.82272 0.24703 0.0
H370 H 0.7413 0.82384 0.2702 0.0
C371 C 0.72 0.82843 0.22047 0.0
C372 C 0.39877 0.46879 0.48544 0.0
C373 C 0.3955 0.47217 0.50779 0.0
H374 H 0.40213 0.48058 0.45346 0.0
C375 C 0.39085 0.49047 0.5145 0.0
H376 H 0.40222 0.45484 0.47966 0.0
C377 C 0.39079 0.50527 0.49942 0.0
C378 C 0.39538 0.50208 0.47734 0.0
H379 H 0.38812 0.49354 0.53157 0.0
H380 H 0.38802 0.51933 0.50531 0.0
C381 C 0.39871 0.48357 0.47038 0.0
C382 C 0.74143 0.14272 0.76201 0.0
C383 C 0.76072 0.14326 0.7579 0.0
H384 H 0.71389 0.14285 0.74835 0.0
C385 C 0.76696 0.1421 0.73612 0.0
H386 H 0.73615 0.14346 0.7786 0.0
C387 C 0.7542 0.14174 0.71879 0.0
C388 C 0.73491 0.14254 0.72283 0.0
H389 H 0.78172 0.1423 0.73237 0.0
H390 H 0.75951 0.14169 0.70219 0.0
C391 C 0.72865 0.14237 0.74465 0.0
C392 C 0.88786 0.50725 -0.00329 0.0
C393 C 0.89258 0.50255 0.01841 0.0
H394 H 0.88481 0.49772 0.96363 0.0
C395 C 0.89571 0.4836 0.02366 0.0
H396 H 0.88522 0.52169 -0.00788 0.0
C397 C 0.89546 0.46985 0.00733 0.0
C398 C 0.89209 0.47475 0.98536 0.0
H399 H 0.89921 0.47946 0.04024 0.0
H400 H 0.89879 0.45553 0.0118 0.0
C401 C 0.88762 0.49349 0.98036 0.0
C402 C 0.2307 0.14489 0.76214 0.0
C403 C 0.21196 0.14385 0.75542 0.0
H404 H 0.2593 0.14674 0.75241 0.0
C405 C 0.20799 0.14164 0.733 0.0
H406 H 0.23428 0.14642 0.7793 0.0
C407 C 0.22238 0.14182 0.71753 0.0
C408 C 0.24103 0.14421 0.72418 0.0
H409 H 0.19371 0.14067 0.72726 0.0
H410 H 0.21878 0.14098 0.70032 0.0
C411 C 0.24508 0.14507 0.7467 0.0
C412 C 0.57556 0.48834 0.47741 0.0
C413 C 0.57755 0.50675 0.48538 0.0
H414 H 0.57317 0.45916 0.48521 0.0
C415 C 0.58096 0.50943 0.50786 0.0
H416 H 0.57309 0.48574 0.46017 0.0
C417 C 0.58101 0.49415 0.52226 0.0
C418 C 0.57765 0.47587 0.51447 0.0
H419 H 0.58269 0.52341 0.51453 0.0
H420 H 0.58278 0.49679 0.53961 0.0
C421 C 0.57561 0.47307 0.4918 0.0
C422 C 0.24322 0.82833 0.2396 0.0
C423 C 0.23957 0.82847 0.26221 0.0
H424 H 0.23186 0.82769 0.20718 0.0
C425 C 0.221 0.8303 0.26931 0.0
H426 H 0.25736 0.8271 0.23354 0.0
C427 C 0.20633 0.83064 0.25415 0.0
C428 C 0.20994 0.82915 0.23158 0.0
H429 H 0.21769 0.83059 0.28662 0.0
H430 H 0.19215 0.83117 0.2602 0.0
C431 C 0.22857 0.82866 0.22445 0.0
C432 C 0.5732 0.00359 0.49069 0.0
C433 C 0.57528 0.00028 0.51327 0.0
H434 H 0.57091 -0.00835 0.45865 0.0
C435 C 0.5789 0.98188 0.52046 0.0
H436 H 0.57056 0.01761 0.48456 0.0
C437 C 0.57912 0.96696 0.50555 0.0
C438 C 0.5757 0.97012 0.48316 0.0
H439 H 0.5807 0.97885 0.53772 0.0
H440 H 0.58107 0.95285 0.51176 0.0
C441 C 0.5734 -0.01132 0.47581 0.0
C442 C 0.21573 0.33082 0.72184 0.0
C443 C 0.23509 0.32994 0.72542 0.0
H444 H 0.18848 0.32986 0.736 0.0
C445 C 0.24177 0.32951 0.7471 0.0
H446 H 0.2101 0.33133 0.70537 0.0
C447 C 0.22933 0.32866 0.76472 0.0
C448 C 0.20996 0.32822 0.76102 0.0
H449 H 0.25661 0.32894 0.75045 0.0
H450 H 0.23493 0.32747 0.78115 0.0
C451 C 0.20331 0.32997 0.73944 0.0
C452 C 0.89935 0.01382 0.02473 0.0
C453 C 0.898 -0.00574 0.0222 0.0
H454 H 0.9011 0.04056 0.00894 0.0
C455 C 0.89514 0.98687 0.00109 0.0
H456 H 0.90139 0.02001 0.04077 0.0
C457 C 0.89499 -0.00131 0.98278 0.0
C458 C 0.89768 0.01814 0.98521 0.0
H459 H 0.89392 0.97187 -0.00144 0.0
H460 H 0.89364 -0.00754 0.96666 0.0
C461 C 0.89919 0.02563 0.00644 0.0
C462 C 0.20103 0.64242 0.24933 0.0
C463 C 0.2074 0.64294 0.22757 0.0
H464 H 0.20832 0.64241 0.28332 0.0
C465 C 0.22668 0.64165 0.22361 0.0
H466 H 0.18627 0.64321 0.25297 0.0
C467 C 0.23936 0.64121 0.24106 0.0
C468 C 0.23302 0.64203 0.26283 0.0
H469 H 0.23206 0.6419 0.20704 0.0
H470 H 0.25415 0.64112 0.23744 0.0
C471 C 0.2137 0.64195 0.26676 0.0
C472 C 0.38905 0.96827 0.49932 0.0
C473 C 0.39355 0.97104 0.47714 0.0
H474 H 0.38623 0.98067 0.5311 0.0
C475 C 0.39655 -0.01056 0.4696 0.0
H476 H 0.38653 0.9543 0.50566 0.0
C477 C 0.39637 0.00456 0.48419 0.0
C478 C 0.3932 0.00163 0.50665 0.0
H479 H 0.39989 -0.0079 0.45258 0.0
H480 H 0.39958 0.01843 0.47798 0.0
C481 C 0.38888 0.98341 0.51393 0.0
C482 C 0.73444 0.6418 0.25234 0.0
C483 C 0.71774 0.64209 0.2402 0.0
H484 H 0.7643 0.6424 0.25149 0.0
C485 C 0.71869 0.64101 0.21724 0.0
H486 H 0.73421 0.64249 0.27006 0.0
C487 C 0.73594 0.64098 0.20659 0.0
C488 C 0.75263 0.642 0.21866 0.0
H489 H 0.70611 0.64104 0.20738 0.0
H490 H 0.73614 0.64097 0.18885 0.0
C491 C 0.75171 0.64175 0.24168 0.0
C492 C 0.08377 -0.00294 0.9786 0.0
C493 C 0.0775 -0.00502 0.95689 0.0
H494 H 0.08805 0.98393 0.00976 0.0
C495 C 0.07272 0.97696 0.94935 0.0
H496 H 0.08768 0.01072 0.9849 0.0
C497 C 0.07292 0.9616 0.9636 0.0
C498 C 0.07792 0.96391 0.98571 0.0
H499 H 0.068 0.97481 0.93267 0.0
H500 H 0.06834 0.94809 0.95748 0.0
C501 C 0.08399 0.98168 -0.00713 0.0
C502 C 0.76172 0.33154 0.73618 0.0
C503 C 0.7581 0.32885 0.7586 0.0
H504 H 0.75045 0.33274 0.7037 0.0
C505 C 0.73947 0.32751 0.76559 0.0
H506 H 0.7759 0.33275 0.73025 0.0
C507 C 0.72487 0.32751 0.75037 0.0
C508 C 0.72858 0.32885 0.72781 0.0
H509 H 0.73616 0.32561 0.78275 0.0
H510 H 0.71075 0.3256 0.75625 0.0
C511 C 0.74711 0.33153 0.72094 0.0
C512 C 0.97309 0.57983 0.06058 0.0
C513 C 0.96565 0.56631 0.07488 0.0
H514 H -0.00236 0.59179 0.0464 0.0
C515 C 0.97793 0.55555 0.08775 0.0
H516 H 0.96401 0.58844 0.05055 0.0
C517 C -0.00275 0.55733 0.0852 0.0
C518 C 0.00467 0.57007 0.06993 0.0
H519 H 0.97266 0.54503 0.09896 0.0
H520 H 0.00632 0.54821 0.09459 0.0
C521 C -0.00761 0.58177 0.05823 0.0
C522 C 0.65017 0.74865 0.31875 0.0
C523 C 0.64906 0.75694 0.29787 0.0
H524 H 0.65301 0.72321 0.33715 0.0
C525 C 0.64734 0.74523 0.27943 0.0
H526 H 0.65139 0.75725 0.33331 0.0
C527 C 0.64827 0.72574 0.28163 0.0
C528 C 0.65094 0.71748 0.30232 0.0
H529 H 0.64624 0.75111 0.26312 0.0
H530 H 0.64787 0.71721 0.26694 0.0
C531 C 0.6511 0.72911 0.32095 0.0
C532 C 0.49588 0.39997 0.56891 0.0
C533 C 0.5056 0.41475 0.57914 0.0
H534 H 0.46923 0.38875 0.55969 0.0
C535 C 0.49538 0.42855 0.59037 0.0
H536 H 0.50333 0.38907 0.5602 0.0
C537 C 0.47592 0.42838 0.59003 0.0
C538 C 0.46616 0.41438 0.57851 0.0
H539 H 0.50239 0.44002 0.59863 0.0
H540 H 0.46854 0.43972 0.59807 0.0
C541 C 0.47632 0.39978 0.56863 0.0
C542 C 0.82849 0.2263 0.80708 0.0
C543 C 0.81699 0.21708 0.8223 0.0
H544 H 0.83724 0.25263 0.79359 0.0
C545 C 0.80718 0.22785 0.83774 0.0
H546 H 0.83626 0.2184 0.79498 0.0
C547 C 0.8079 0.24744 0.8371 0.0
C548 C 0.81825 0.2567 0.8208 0.0
H549 H 0.79833 0.22116 0.84981 0.0
H550 H 0.7995 0.2553 0.84864 0.0
C551 C 0.82901 0.24593 0.80624 0.0
C552 C 0.97244 0.4064 0.91478 0.0
C553 C 0.96229 0.42231 0.90811 0.0
H554 H -0.00054 0.39442 0.92054 0.0
C555 C 0.97205 0.43776 0.89953 0.0
H556 H 0.96535 0.39424 0.9214 0.0
C557 C -0.00849 0.43788 0.89908 0.0
C558 C 0.00173 0.42253 0.90716 0.0
H559 H 0.9647 0.45018 0.894 0.0
H560 H -0.00146 0.45037 0.89321 0.0
C561 C -0.008 0.4065 0.91429 0.0
C562 C 0.81533 0.72266 0.15054 0.0
C563 C 0.82314 0.71385 0.16902 0.0
H564 H 0.80755 0.7486 0.13537 0.0
C565 C 0.83171 0.72503 0.18515 0.0
H566 H 0.80867 0.71449 0.13777 0.0
C567 C 0.83125 0.74462 0.18364 0.0
C568 C 0.82197 0.75342 0.16612 0.0
H569 H 0.83797 0.71867 0.19951 0.0
H570 H 0.83709 0.75283 0.19692 0.0
C571 C 0.81463 0.74224 0.14919 0.0
C572 C 0.47542 0.58006 0.44687 0.0
C573 C 0.4664 0.57566 0.42705 0.0
H574 H 0.50133 0.58306 0.46388 0.0
C575 C 0.47726 0.57323 0.40809 0.0
H576 H 0.46749 0.58222 0.46175 0.0
C577 C 0.49677 0.57369 0.40933 0.0
C578 C 0.50578 0.57661 0.42953 0.0
H579 H 0.47077 0.56993 0.39252 0.0
H580 H 0.50474 0.57074 0.39467 0.0
C581 C 0.49487 0.58054 0.44809 0.0
C582 C 0.65156 0.24793 0.66819 0.0
C583 C 0.66803 0.25655 0.66074 0.0
H584 H 0.63783 0.2221 0.67639 0.0
C585 C 0.68274 0.24514 0.65338 0.0
H586 H 0.63994 0.25631 0.6739 0.0
C587 C 0.68154 0.22564 0.65482 0.0
C588 C 0.66559 0.21701 0.66363 0.0
H589 H 0.69556 0.25128 0.6473 0.0
H590 H 0.69346 0.21737 0.6498 0.0
C591 C 0.65034 0.22832 0.6696 0.0
C592 C 0.28539 0.22925 0.65181 0.0
C593 C 0.30043 0.21773 0.65796 0.0
H594 H 0.27447 0.25706 0.64965 0.0
C595 C 0.31719 0.22624 0.66474 0.0
H596 H 0.27233 0.22321 0.64627 0.0
C597 C 0.31844 0.24582 0.66665 0.0
C598 C 0.30293 0.2572 0.66186 0.0
H599 H 0.32907 0.21777 0.66951 0.0
H600 H 0.33123 0.25193 0.67287 0.0
C601 C 0.28662 0.24871 0.65376 0.0
C602 C 0.16804 0.74961 0.15083 0.0
C603 C 0.15508 0.7585 0.16463 0.0
H604 H 0.17939 0.72354 0.13953 0.0
C605 C 0.14202 0.74744 0.17593 0.0
H606 H 0.17828 0.75774 0.14189 0.0
C607 C 0.14253 0.72789 0.17442 0.0
C608 C 0.15628 0.71892 0.16179 0.0
H609 H 0.13176 0.75387 0.18656 0.0
H610 H 0.13269 0.7198 0.18401 0.0
C611 C 0.16871 0.73 0.14952 0.0
C612 C 0.14099 0.22517 0.8093 0.0
C613 C 0.15232 0.21394 0.82282 0.0
H614 H 0.13342 0.25302 0.79953 0.0
C615 C 0.16324 0.22268 0.83904 0.0
H616 H 0.1323 0.21887 0.79675 0.0
C617 C 0.16405 0.24224 0.84045 0.0
C618 C 0.15373 0.25349 0.8259 0.0
H619 H 0.17209 0.21447 0.84978 0.0
H620 H 0.17341 0.24856 0.8523 0.0
C621 C 0.14159 0.24475 0.81094 0.0
C622 C 0.28818 0.72363 0.33275 0.0
C623 C 0.30362 0.71516 0.32261 0.0
H624 H 0.27454 0.74914 0.34165 0.0
C625 C 0.31854 0.72658 0.31579 0.0
H626 H 0.27654 0.71525 0.33844 0.0
C627 C 0.31737 0.74617 0.3176 0.0
C628 C 0.30129 0.75465 0.32631 0.0
H629 H 0.33067 0.7205 0.30798 0.0
H630 H 0.32865 0.75464 0.31116 0.0
C631 C 0.28704 0.74311 0.3346 0.0
C632 C 0.47313 0.04693 0.58851 0.0
C633 C 0.46369 0.06075 0.57637 0.0
H634 H 0.49937 0.03535 0.59812 0.0
C635 C 0.47413 0.07517 0.5665 0.0
H636 H 0.46554 0.03573 0.59654 0.0
C637 C 0.49367 0.07496 0.56742 0.0
C638 C 0.5031 0.06031 0.57822 0.0
H639 H 0.46729 0.08608 0.55711 0.0
H640 H 0.50136 0.08571 0.55871 0.0
C641 C 0.49258 0.0467 0.58941 0.0
C642 C 0.00142 0.9317 0.07549 0.0
C643 C 0.00903 0.91429 0.0694 0.0
H644 H 0.97678 0.94757 0.08205 0.0
C645 C -0.00291 0.89866 0.0677 0.0
H646 H 0.01019 0.944 0.07716 0.0
C647 C 0.97781 0.90072 0.07056 0.0
C648 C 0.97011 0.91844 0.07511 0.0
H649 H 0.0025 0.88502 0.06314 0.0
H650 H 0.96889 0.88862 0.0681 0.0
C651 C 0.9822 0.93375 0.07828 0.0
C652 C 0.49528 0.90093 0.40766 0.0
C653 C 0.50491 0.89842 0.42755 0.0
H654 H 0.46876 0.90397 0.39183 0.0
C655 C 0.4946 0.89445 0.44657 0.0
H656 H 0.50278 0.9039 0.39267 0.0
C657 C 0.47512 0.89448 0.44609 0.0
C658 C 0.46546 0.89849 0.42657 0.0
H659 H 0.50155 0.89223 0.46213 0.0
H660 H 0.46766 0.89229 0.46129 0.0
C661 C 0.47575 0.90097 0.40718 0.0
C662 C -0.00078 0.07574 0.92138 0.0
C663 C 0.00787 0.06391 0.90601 0.0
H664 H 0.97352 0.08527 0.93534 0.0
C665 C -0.00335 0.05404 0.89099 0.0
H666 H 0.00748 0.08362 0.93308 0.0
C667 C 0.97721 0.0548 0.89248 0.0
C668 C 0.96857 0.06567 0.90876 0.0
H669 H 0.00284 0.04484 0.8789 0.0
H670 H 0.96896 0.04624 0.88143 0.0
C671 C 0.97976 0.07673 0.92263 0.0
C672 C 0.09922 0.63459 0.12098 0.0
C673 C 0.11674 0.62748 0.12709 0.0
H674 H 0.07577 0.63219 0.09931 0.0
C675 C 0.1239 0.61176 0.11606 0.0
H676 H 0.09343 0.64674 0.12918 0.0
C677 C 0.11355 0.6031 0.09941 0.0
C678 C 0.09618 0.61043 0.09305 0.0
H679 H 0.13736 0.60599 0.12054 0.0
H680 H 0.11927 0.59089 0.09126 0.0
C681 C 0.08917 0.62632 0.10386 0.0
C682 C 0.61183 0.8672 0.33808 0.0
C683 C 0.62485 0.85523 0.34814 0.0
H684 H 0.59059 0.888 0.3425 0.0
C685 C 0.62596 0.85485 0.37113 0.0
H686 H 0.61066 0.86784 0.3204 0.0
C687 C 0.61429 0.86623 0.38379 0.0
C688 C 0.60148 0.87843 0.37373 0.0
H689 H 0.63581 0.84573 0.37937 0.0
H690 H 0.61552 0.86566 0.40147 0.0
C691 C 0.60036 0.87879 0.35074 0.0
C692 C 0.35813 0.36015 0.59787 0.0
C693 C 0.37167 0.37277 0.60565 0.0
H694 H 0.33691 0.34014 0.60611 0.0
C695 C 0.37458 0.37436 0.62834 0.0
H696 H 0.35555 0.35869 0.58046 0.0
C697 C 0.36422 0.36344 0.64298 0.0
C698 C 0.35041 0.35111 0.63522 0.0
H699 H 0.38499 0.38393 0.63478 0.0
H700 H 0.36677 0.36493 0.6604 0.0
C701 C 0.34742 0.3496 0.61254 0.0
C702 C 0.86149 0.11706 0.89124 0.0
C703 C 0.874 0.10306 0.88443 0.0
H704 H 0.84093 0.13729 0.88164 0.0
C705 C 0.8756 0.09907 0.86196 0.0
H706 H 0.85992 0.12038 0.90846 0.0
C707 C 0.86502 0.10901 0.84659 0.0
C708 C 0.85229 0.12281 0.85343 0.0
H709 H 0.88519 0.0884 0.85625 0.0
H710 H 0.86659 0.1057 0.82937 0.0
C711 C 0.85057 0.12668 0.87591 0.0
C712 C 0.09539 0.37725 0.85622 0.0
C713 C 0.09646 0.37572 0.87915 0.0
H714 H 0.10485 0.36696 0.82519 0.0
C715 C 0.10826 0.36209 0.88838 0.0
H716 H 0.08637 0.38759 0.84864 0.0
C717 C 0.11908 0.3505 0.87496 0.0
C718 C 0.11802 0.35205 0.85204 0.0
H719 H 0.10941 0.36061 0.90599 0.0
H720 H 0.12824 0.34029 0.88254 0.0
C721 C 0.10592 0.3654 0.8428 0.0
C722 C 0.85134 0.85065 0.11815 0.0
C723 C 0.85314 0.85183 0.14105 0.0
H724 H 0.86025 0.86102 0.08693 0.0
C725 C 0.86582 0.86479 0.15001 0.0
H726 H 0.84173 0.84075 0.11076 0.0
C727 C 0.87622 0.87659 0.13637 0.0
C728 C 0.8744 0.87543 0.11348 0.0
H729 H 0.86748 0.86606 0.16759 0.0
H730 H 0.88571 0.88659 0.14377 0.0
C731 C 0.86199 0.86221 0.10451 0.0
C732 C 0.34717 0.61728 0.36295 0.0
C733 C 0.35085 0.61918 0.34045 0.0
H734 H 0.35506 0.6044 0.39331 0.0
C735 C 0.36583 0.60919 0.3313 0.0
H736 H 0.33576 0.62485 0.37048 0.0
C737 C 0.37668 0.59725 0.34429 0.0
C738 C 0.373 0.59534 0.36679 0.0
H739 H 0.36897 0.61033 0.314 0.0
H740 H 0.388 0.58956 0.33672 0.0
C741 C 0.35825 0.60562 0.37603 0.0
C742 C 0.61159 0.11316 0.60013 0.0
C743 C 0.59788 0.10075 0.60793 0.0
H744 H 0.63285 0.13314 0.60833 0.0
C745 C 0.59472 0.09954 0.63059 0.0
H746 H 0.61436 0.11432 0.58274 0.0
C747 C 0.60502 0.11061 0.64519 0.0
C748 C 0.61899 0.12272 0.63743 0.0
H749 H 0.58419 0.09014 0.63704 0.0
H750 H 0.60229 0.1094 0.66258 0.0
C751 C 0.62221 0.12387 0.61477 0.0
C752 C 0.8516 0.36653 0.85449 0.0
C753 C 0.84001 0.35349 0.86512 0.0
H754 H 0.87225 0.3881 0.85798 0.0
C755 C 0.84106 0.35183 0.88803 0.0
H756 H 0.85107 0.36815 0.83686 0.0
C757 C 0.85342 0.36301 0.90008 0.0
C758 C 0.86469 0.37635 0.8895 0.0
H759 H 0.83235 0.34185 0.89667 0.0
H760 H 0.85385 0.36146 0.91773 0.0
C761 C 0.86368 0.37798 0.86659 0.0
C762 C 0.34336 0.12489 0.60127 0.0
C763 C 0.34367 0.12205 0.62404 0.0
H764 H 0.35459 0.11707 0.57007 0.0
C765 C 0.35599 0.10868 0.63285 0.0
H766 H 0.33405 0.13515 0.59402 0.0
C767 C 0.36749 0.09809 0.61911 0.0
C768 C 0.36719 0.10095 0.59633 0.0
H769 H 0.35649 0.10615 0.65034 0.0
H770 H 0.37667 0.08771 0.62633 0.0
C771 C 0.35516 0.11459 0.58757 0.0
C772 C 0.61841 0.60987 0.34937 0.0
C773 C 0.62935 0.6229 0.36099 0.0
H774 H 0.59809 0.58787 0.35104 0.0
C775 C 0.62754 0.62391 0.38389 0.0
H776 H 0.61948 0.60872 0.33173 0.0
C777 C 0.61517 0.61206 0.39494 0.0
C778 C 0.60448 0.5988 0.38337 0.0
H779 H 0.63573 0.63384 0.39331 0.0
H780 H 0.6142 0.61311 0.41261 0.0
C781 C 0.60618 0.59789 0.36045 0.0
C782 C 0.09842 0.85218 0.10084 0.0
C783 C 0.10397 0.86812 0.08897 0.0
H784 H 0.10594 0.83159 0.1249 0.0
C785 C 0.12194 0.87547 0.09227 0.0
H786 H 0.08461 0.84627 0.09863 0.0
C787 C 0.13431 0.86677 0.10683 0.0
C788 C 0.1287 0.85093 0.11884 0.0
H789 H 0.12657 0.88771 0.08325 0.0
H790 H 0.1482 0.87254 0.10887 0.0
C791 C 0.11058 0.84383 0.1159 0.0
C792 C 0.86961 0.58834 0.1395 0.0
C793 C 0.87026 0.58515 0.11679 0.0
H794 H 0.85717 0.60373 0.16583 0.0
C795 C 0.85861 0.59577 0.10299 0.0
H796 H 0.87844 0.58044 0.15057 0.0
C797 C 0.8463 0.609 0.11176 0.0
C798 C 0.84552 0.61206 0.13449 0.0
H799 H 0.85877 0.59364 0.08542 0.0
H800 H 0.83734 0.61677 0.10071 0.0
C801 C 0.85744 0.60172 0.14825 0.0
C802 C 0.10592 0.08893 0.84489 0.0
C803 C 0.10497 0.08527 0.86749 0.0
H804 H 0.11885 0.10472 0.81921 0.0
C805 C 0.11658 0.09547 0.88177 0.0
H806 H 0.09712 0.08135 0.83347 0.0
C807 C 0.12916 0.10873 0.87358 0.0
C808 C 0.13024 0.11225 0.85095 0.0
H809 H 0.11619 0.09298 0.89927 0.0
H810 H 0.1381 0.11617 0.88498 0.0
C811 C 0.11834 0.10235 0.83672 0.0
C812 C 0.62641 0.35081 0.6069 0.0
C813 C 0.62571 0.35297 0.62977 0.0
H814 H 0.61563 0.35948 0.57574 0.0
C815 C 0.61312 0.36595 0.63878 0.0
H816 H 0.63593 0.34086 0.5995 0.0
C817 C 0.60175 0.37685 0.62517 0.0
C818 C 0.60244 0.37468 0.6023 0.0
H819 H 0.61231 0.36795 0.65634 0.0
H820 H 0.59235 0.38692 0.63256 0.0
C821 C 0.61475 0.36142 0.59331 0.0
C822 C 0.34371 0.85443 0.37262 0.0
C823 C 0.34463 0.85341 0.34965 0.0
H824 H 0.35469 0.86673 0.40197 0.0
C825 C 0.358 0.86429 0.3386 0.0
H826 H 0.3336 0.84618 0.38162 0.0
C827 C 0.36993 0.87624 0.35024 0.0
C828 C 0.36893 0.87735 0.3732 0.0
H829 H 0.35904 0.86385 0.32091 0.0
H830 H 0.37992 0.88462 0.34123 0.0
C831 C 0.35582 0.86617 0.38429 0.0
loop_
_geom_bond_atom_site_label_1
_geom_bond_atom_site_label_2
_geom_bond_distance
_geom_bond_site_symmetry_2
_ccdc_geom_bond_type
O0 Cd1 2.300 . S
O0 C7 1.275 . S
Cd1 O0 2.300 . S
Cd1 O9 2.381 . S
Cd1 O10 2.378 . S
O2 Cd3 2.385 . S
O2 C7 1.255 . S
Cd3 O2 2.385 . S
Cd3 O4 2.317 . S
O4 Cd3 2.317 . S
O4 C5 1.232 . S
C5 O4 1.232 . S
C5 O6 1.218 . S
O6 C5 1.218 . S
C7 O0 1.275 . S
C7 O2 1.255 . S
C8 O9 1.258 . S
C8 O10 1.256 . S
O9 Cd1 2.381 . S
O9 C8 1.258 . S
O10 Cd1 2.378 . S
O10 C8 1.256 . S
O11 Cd12 2.300 . S
O11 C18 1.275 . S
Cd12 O11 2.300 . S
Cd12 O20 2.381 . S
Cd12 O21 2.378 . S
O13 Cd14 2.385 . S
O13 C18 1.255 . S
Cd14 O13 2.385 . S
Cd14 O15 2.317 . S
O15 Cd14 2.317 . S
O15 C16 1.232 . S
C16 O15 1.232 . S
C16 O17 1.218 . S
O17 C16 1.218 . S
C18 O11 1.275 . S
C18 O13 1.255 . S
C19 O20 1.258 . S
C19 O21 1.256 . S
O20 Cd12 2.381 . S
O20 C19 1.258 . S
O21 Cd12 2.378 . S
O21 C19 1.256 . S
O22 Cd23 2.300 . S
O22 C29 1.275 . S
Cd23 O22 2.300 . S
Cd23 O31 2.381 . S
Cd23 O32 2.378 . S
O24 Cd25 2.385 . S
O24 C29 1.255 . S
Cd25 O24 2.385 . S
Cd25 O26 2.317 . S
O26 Cd25 2.317 . S
O26 C27 1.232 . S
C27 O26 1.232 . S
C27 O28 1.218 . S
O28 C27 1.218 . S
C29 O22 1.275 . S
C29 O24 1.255 . S
C30 O31 1.258 . S
C30 O32 1.256 . S
O31 Cd23 2.381 . S
O31 C30 1.258 . S
O32 Cd23 2.378 . S
O32 C30 1.256 . S
O33 Cd34 2.300 . S
O33 C40 1.275 . S
Cd34 O33 2.300 . S
Cd34 O42 2.381 . S
Cd34 O43 2.378 . S
O35 Cd36 2.385 . S
O35 C40 1.255 . S
Cd36 O35 2.385 . S
Cd36 O37 2.317 . S
O37 Cd36 2.317 . S
O37 C38 1.232 . S
C38 O37 1.232 . S
C38 O39 1.218 . S
O39 C38 1.218 . S
C40 O33 1.275 . S
C40 O35 1.255 . S
C41 O42 1.258 . S
C41 O43 1.256 . S
O42 Cd34 2.381 . S
O42 C41 1.258 . S
O43 Cd34 2.378 . S
O43 C41 1.256 . S
O44 Cd45 2.300 . S
O44 C51 1.275 . S
Cd45 O44 2.300 . S
Cd45 O53 2.381 . S
Cd45 O54 2.378 . S
O46 Cd47 2.385 . S
O46 C51 1.255 . S
Cd47 O46 2.385 . S
Cd47 O48 2.317 . S
O48 Cd47 2.317 . S
O48 C49 1.232 . S
C49 O48 1.232 . S
C49 O50 1.218 . S
O50 C49 1.218 . S
C51 O44 1.275 . S
C51 O46 1.255 . S
C52 O53 1.258 . S
C52 O54 1.256 . S
O53 Cd45 2.381 . S
O53 C52 1.258 . S
O54 Cd45 2.378 . S
O54 C52 1.256 . S
O55 Cd56 2.300 . S
O55 C62 1.275 . S
Cd56 O55 2.300 . S
Cd56 O64 2.381 . S
Cd56 O65 2.378 . S
O57 Cd58 2.385 . S
O57 C62 1.255 . S
Cd58 O57 2.385 . S
Cd58 O59 2.317 . S
O59 Cd58 2.317 . S
O59 C60 1.232 . S
C60 O59 1.232 . S
C60 O61 1.218 . S
O61 C60 1.218 . S
C62 O55 1.275 . S
C62 O57 1.255 . S
C63 O64 1.258 . S
C63 O65 1.256 . S
O64 Cd56 2.381 . S
O64 C63 1.258 . S
O65 Cd56 2.378 . S
O65 C63 1.256 . S
O66 Cd67 2.300 . S
O66 C73 1.275 . S
Cd67 O66 2.300 . S
Cd67 O75 2.381 . S
Cd67 O76 2.378 . S
O68 Cd69 2.385 . S
O68 C73 1.255 . S
Cd69 O68 2.385 . S
Cd69 O70 2.317 . S
O70 Cd69 2.317 . S
O70 C71 1.232 . S
C71 O70 1.232 . S
C71 O72 1.218 . S
O72 C71 1.218 . S
C73 O66 1.275 . S
C73 O68 1.255 . S
C74 O75 1.258 . S
C74 O76 1.256 . S
O75 Cd67 2.381 . S
O75 C74 1.258 . S
O76 Cd67 2.378 . S
O76 C74 1.256 . S
O77 Cd78 2.300 . S
O77 C84 1.275 . S
Cd78 O77 2.300 . S
Cd78 O86 2.381 . S
Cd78 O87 2.378 . S
O79 Cd80 2.385 . S
O79 C84 1.255 . S
Cd80 O79 2.385 . S
Cd80 O81 2.317 . S
O81 Cd80 2.317 . S
O81 C82 1.232 . S
C82 O81 1.232 . S
C82 O83 1.218 . S
O83 C82 1.218 . S
C84 O77 1.275 . S
C84 O79 1.255 . S
C85 O86 1.258 . S
C85 O87 1.256 . S
O86 Cd78 2.381 . S
O86 C85 1.258 . S
O87 Cd78 2.378 . S
O87 C85 1.256 . S
O88 Cd89 2.300 . S
O88 C95 1.275 . S
Cd89 O88 2.300 . S
Cd89 O97 2.381 . S
Cd89 O98 2.378 . S
O90 Cd91 2.385 1_556 S
O90 C95 1.255 . S
Cd91 O90 2.385 1_554 S
Cd91 O92 2.317 1_554 S
O92 Cd91 2.317 1_556 S
O92 C93 1.232 . S
C93 O92 1.232 . S
C93 O94 1.218 1_556 S
O94 C93 1.218 1_554 S
C95 O88 1.275 . S
C95 O90 1.255 . S
C96 O97 1.258 . S
C96 O98 1.256 . S
O97 Cd89 2.381 . S
O97 C96 1.258 . S
O98 Cd89 2.378 . S
O98 C96 1.256 . S
O99 Cd100 2.300 . S
O99 C106 1.275 . S
Cd100 O99 2.300 . S
Cd100 O108 2.381 . S
Cd100 O109 2.378 . S
O101 Cd102 2.385 . S
O101 C106 1.255 . S
Cd102 O101 2.385 . S
Cd102 O103 2.317 . S
O103 Cd102 2.317 . S
O103 C104 1.232 . S
C104 O103 1.232 . S
C104 O105 1.218 . S
O105 C104 1.218 . S
C106 O99 1.275 . S
C106 O101 1.255 . S
C107 O108 1.258 . S
C107 O109 1.256 . S
O108 Cd100 2.381 . S
O108 C107 1.258 . S
O109 Cd100 2.378 . S
O109 C107 1.256 . S
O110 Cd111 2.300 . S
O110 C117 1.275 . S
Cd111 O110 2.300 . S
Cd111 O119 2.381 . S
Cd111 O120 2.378 . S
O112 Cd113 2.385 . S
O112 C117 1.255 . S
Cd113 O112 2.385 . S
Cd113 O114 2.317 . S
O114 Cd113 2.317 . S
O114 C115 1.232 . S
C115 O114 1.232 . S
C115 O116 1.218 . S
O116 C115 1.218 . S
C117 O110 1.275 . S
C117 O112 1.255 . S
C118 O119 1.258 . S
C118 O120 1.256 . S
O119 Cd111 2.381 . S
O119 C118 1.258 . S
O120 Cd111 2.378 . S
O120 C118 1.256 . S
O121 Cd122 2.300 . S
O121 C128 1.275 . S
Cd122 O121 2.300 . S
Cd122 O130 2.381 . S
Cd122 O131 2.378 . S
O123 Cd124 2.385 . S
O123 C128 1.255 . S
Cd124 O123 2.385 . S
Cd124 O125 2.317 . S
O125 Cd124 2.317 . S
O125 C126 1.232 . S
C126 O125 1.232 . S
C126 O127 1.218 . S
O127 C126 1.218 . S
C128 O121 1.275 . S
C128 O123 1.255 . S
C129 O130 1.258 . S
C129 O131 1.256 . S
O130 Cd122 2.381 . S
O130 C129 1.258 . S
O131 Cd122 2.378 . S
O131 C129 1.256 . S
O132 Cd133 2.300 . S
O132 C139 1.275 . S
Cd133 O132 2.300 . S
Cd133 O141 2.381 . S
Cd133 O142 2.378 . S
O134 Cd135 2.385 1_554 S
O134 C139 1.255 . S
Cd135 O134 2.385 1_556 S
Cd135 O136 2.317 1_556 S
O136 Cd135 2.317 1_554 S
O136 C137 1.232 . S
C137 O136 1.232 . S
C137 O138 1.218 1_554 S
O138 C137 1.218 1_556 S
C139 O132 1.275 . S
C139 O134 1.255 . S
C140 O141 1.258 . S
C140 O142 1.256 . S
O141 Cd133 2.381 . S
O141 C140 1.258 . S
O142 Cd133 2.378 . S
O142 C140 1.256 . S
O143 Cd144 2.300 . S
O143 C150 1.275 . S
Cd144 O143 2.300 . S
Cd144 O152 2.381 . S
Cd144 O153 2.378 . S
O145 Cd146 2.385 . S
O145 C150 1.255 . S
Cd146 O145 2.385 . S
Cd146 O147 2.317 . S
O147 Cd146 2.317 . S
O147 C148 1.232 . S
C148 O147 1.232 . S
C148 O149 1.218 . S
O149 C148 1.218 . S
C150 O143 1.275 . S
C150 O145 1.255 . S
C151 O152 1.258 . S
C151 O153 1.256 . S
O152 Cd144 2.381 . S
O152 C151 1.258 . S
O153 Cd144 2.378 . S
O153 C151 1.256 . S
O154 Cd155 2.300 . S
O154 C161 1.275 . S
Cd155 O154 2.300 . S
Cd155 O163 2.381 . S
Cd155 O164 2.378 . S
O156 Cd157 2.385 . S
O156 C161 1.255 . S
Cd157 O156 2.385 . S
Cd157 O158 2.317 . S
O158 Cd157 2.317 . S
O158 C159 1.232 . S
C159 O158 1.232 . S
C159 O160 1.218 . S
O160 C159 1.218 . S
C161 O154 1.275 . S
C161 O156 1.255 . S
C162 O163 1.258 . S
C162 O164 1.256 . S
O163 Cd155 2.381 . S
O163 C162 1.258 . S
O164 Cd155 2.378 . S
O164 C162 1.256 . S
O165 Cd166 2.300 . S
O165 C172 1.275 . S
Cd166 O165 2.300 . S
Cd166 O174 2.381 . S
Cd166 O175 2.378 . S
O167 Cd168 2.385 . S
O167 C172 1.255 . S
Cd168 O167 2.385 . S
Cd168 O169 2.317 . S
O169 Cd168 2.317 . S
O169 C170 1.232 . S
C170 O169 1.232 . S
C170 O171 1.218 . S
O171 C170 1.218 . S
C172 O165 1.275 . S
C172 O167 1.255 . S
C173 O174 1.258 . S
C173 O175 1.256 . S
O174 Cd166 2.381 . S
O174 C173 1.258 . S
O175 Cd166 2.378 . S
O175 C173 1.256 . S
O176 Cd177 2.300 . S
O176 C183 1.275 . S
Cd177 O176 2.300 . S
Cd177 O185 2.381 . S
Cd177 O186 2.378 . S
O178 Cd179 2.385 . S
O178 C183 1.255 . S
Cd179 O178 2.385 . S
Cd179 O180 2.317 . S
O180 Cd179 2.317 . S
O180 C181 1.232 . S
C181 O180 1.232 . S
C181 O182 1.218 . S
O182 C181 1.218 . S
C183 O176 1.275 . S
C183 O178 1.255 . S
C184 O185 1.258 . S
C184 O186 1.256 . S
O185 Cd177 2.381 . S
O185 C184 1.258 . S
O186 Cd177 2.378 . S
O186 C184 1.256 . S
O187 Cd188 2.300 . S
O187 C194 1.275 . S
Cd188 O187 2.300 . S
Cd188 O196 2.381 . S
Cd188 O197 2.378 . S
O189 Cd190 2.385 . S
O189 C194 1.255 . S
Cd190 O189 2.385 . S
Cd190 O191 2.317 . S
O191 Cd190 2.317 . S
O191 C192 1.232 . S
C192 O191 1.232 . S
C192 O193 1.218 . S
O193 C192 1.218 . S
C194 O187 1.275 . S
C194 O189 1.255 . S
C195 O196 1.258 . S
C195 O197 1.256 . S
O196 Cd188 2.381 . S
O196 C195 1.258 . S
O197 Cd188 2.378 . S
O197 C195 1.256 . S
O198 Cd199 2.300 . S
O198 C205 1.275 . S
Cd199 O198 2.300 . S
Cd199 O207 2.381 . S
Cd199 O208 2.378 . S
O200 Cd201 2.385 . S
O200 C205 1.255 . S
Cd201 O200 2.385 . S
Cd201 O202 2.317 . S
O202 Cd201 2.317 . S
O202 C203 1.232 . S
C203 O202 1.232 . S
C203 O204 1.218 . S
O204 C203 1.218 . S
C205 O198 1.275 . S
C205 O200 1.255 . S
C206 O207 1.258 . S
C206 O208 1.256 . S
O207 Cd199 2.381 . S
O207 C206 1.258 . S
O208 Cd199 2.378 . S
O208 C206 1.256 . S
O209 Cd210 2.300 . S
O209 C216 1.275 . S
Cd210 O209 2.300 . S
Cd210 O218 2.381 . S
Cd210 O219 2.378 . S
O211 Cd212 2.385 . S
O211 C216 1.255 . S
Cd212 O211 2.385 . S
Cd212 O213 2.317 . S
O213 Cd212 2.317 . S
O213 C214 1.232 . S
C214 O213 1.232 . S
C214 O215 1.218 . S
O215 C214 1.218 . S
C216 O209 1.275 . S
C216 O211 1.255 . S
C217 O218 1.258 . S
C217 O219 1.256 . S
O218 Cd210 2.381 . S
O218 C217 1.258 . S
O219 Cd210 2.378 . S
O219 C217 1.256 . S
O220 Cd221 2.300 . S
O220 C227 1.275 . S
Cd221 O220 2.300 . S
Cd221 O229 2.381 . S
Cd221 O230 2.378 . S
O222 Cd223 2.385 . S
O222 C227 1.255 . S
Cd223 O222 2.385 . S
Cd223 O224 2.317 . S
O224 Cd223 2.317 . S
O224 C225 1.232 . S
C225 O224 1.232 . S
C225 O226 1.218 . S
O226 C225 1.218 . S
C227 O220 1.275 . S
C227 O222 1.255 . S
C228 O229 1.258 . S
C228 O230 1.256 . S
O229 Cd221 2.381 . S
O229 C228 1.258 . S
O230 Cd221 2.378 . S
O230 C228 1.256 . S
O231 Cd232 2.300 . S
O231 C238 1.275 . S
Cd232 O231 2.300 . S
Cd232 O240 2.381 . S
Cd232 O241 2.378 . S
O233 Cd234 2.385 . S
O233 C238 1.255 . S
Cd234 O233 2.385 . S
Cd234 O235 2.317 . S
O235 Cd234 2.317 . S
O235 C236 1.232 . S
C236 O235 1.232 . S
C236 O237 1.218 . S
O237 C236 1.218 . S
C238 O231 1.275 . S
C238 O233 1.255 . S
C239 O240 1.258 . S
C239 O241 1.256 . S
O240 Cd232 2.381 . S
O240 C239 1.258 . S
O241 Cd232 2.378 . S
O241 C239 1.256 . S
O242 Cd243 2.300 . S
O242 C249 1.275 . S
Cd243 O242 2.300 . S
Cd243 O251 2.381 . S
Cd243 O252 2.378 . S
O244 Cd245 2.385 . S
O244 C249 1.255 . S
Cd245 O244 2.385 . S
Cd245 O246 2.317 . S
O246 Cd245 2.317 . S
O246 C247 1.232 . S
C247 O246 1.232 . S
C247 O248 1.218 . S
O248 C247 1.218 . S
C249 O242 1.275 . S
C249 O244 1.255 . S
C250 O251 1.258 . S
C250 O252 1.256 . S
O251 Cd243 2.381 . S
O251 C250 1.258 . S
O252 Cd243 2.378 . S
O252 C250 1.256 . S
O253 Cd254 2.300 . S
O253 C260 1.275 . S
Cd254 O253 2.300 . S
Cd254 O262 2.381 . S
Cd254 O263 2.378 . S
O255 Cd256 2.385 . S
O255 C260 1.255 . S
Cd256 O255 2.385 . S
Cd256 O257 2.317 . S
O257 Cd256 2.317 . S
O257 C258 1.232 . S
C258 O257 1.232 . S
C258 O259 1.218 . S
O259 C258 1.218 . S
C260 O253 1.275 . S
C260 O255 1.255 . S
C261 O262 1.258 . S
C261 O263 1.256 . S
O262 Cd254 2.381 . S
O262 C261 1.258 . S
O263 Cd254 2.378 . S
O263 C261 1.256 . S
O264 Cd265 2.300 . S
O264 C271 1.275 . S
Cd265 O264 2.300 . S
Cd265 O273 2.381 . S
Cd265 O274 2.378 . S
O266 Cd267 2.385 . S
O266 C271 1.255 . S
Cd267 O266 2.385 . S
Cd267 O268 2.317 . S
O268 Cd267 2.317 . S
O268 C269 1.232 . S
C269 O268 1.232 . S
C269 O270 1.218 . S
O270 C269 1.218 . S
C271 O264 1.275 . S
C271 O266 1.255 . S
C272 O273 1.258 . S
C272 O274 1.256 . S
O273 Cd265 2.381 . S
O273 C272 1.258 . S
O274 Cd265 2.378 . S
O274 C272 1.256 . S
O275 Cd276 2.300 . S
O275 C282 1.275 . S
Cd276 O275 2.300 . S
Cd276 O284 2.381 . S
Cd276 O285 2.378 . S
O277 Cd278 2.385 . S
O277 C282 1.255 . S
Cd278 O277 2.385 . S
Cd278 O279 2.317 . S
O279 Cd278 2.317 . S
O279 C280 1.232 . S
C280 O279 1.232 . S
C280 O281 1.218 . S
O281 C280 1.218 . S
C282 O275 1.275 . S
C282 O277 1.255 . S
C283 O284 1.258 . S
C283 O285 1.256 . S
O284 Cd276 2.381 . S
O284 C283 1.258 . S
O285 Cd276 2.378 . S
O285 C283 1.256 . S
O286 Cd287 2.300 . S
O286 C293 1.275 . S
Cd287 O286 2.300 . S
Cd287 O295 2.381 . S
Cd287 O296 2.378 . S
O288 Cd289 2.385 1_556 S
O288 C293 1.255 . S
Cd289 O288 2.385 1_554 S
Cd289 O290 2.317 1_554 S
O290 Cd289 2.317 1_556 S
O290 C291 1.232 . S
C291 O290 1.232 . S
C291 O292 1.218 1_556 S
O292 C291 1.218 1_554 S
C293 O286 1.275 . S
C293 O288 1.255 . S
C294 O295 1.258 . S
C294 O296 1.256 . S
O295 Cd287 2.381 . S
O295 C294 1.258 . S
O296 Cd287 2.378 . S
O296 C294 1.256 . S
O297 Cd298 2.300 . S
O297 C304 1.275 . S
Cd298 O297 2.300 . S
Cd298 O306 2.381 . S
Cd298 O307 2.378 . S
O299 Cd300 2.385 . S
O299 C304 1.255 . S
Cd300 O299 2.385 . S
Cd300 O301 2.317 . S
O301 Cd300 2.317 . S
O301 C302 1.232 . S
C302 O301 1.232 . S
C302 O303 1.218 . S
O303 C302 1.218 . S
C304 O297 1.275 . S
C304 O299 1.255 . S
C305 O306 1.258 . S
C305 O307 1.256 . S
O306 Cd298 2.381 . S
O306 C305 1.258 . S
O307 Cd298 2.378 . S
O307 C305 1.256 . S
O308 Cd309 2.300 . S
O308 C315 1.275 . S
Cd309 O308 2.300 . S
Cd309 O317 2.381 . S
Cd309 O318 2.378 . S
O310 Cd311 2.385 . S
O310 C315 1.255 . S
Cd311 O310 2.385 . S
Cd311 O312 2.317 . S
O312 Cd311 2.317 . S
O312 C313 1.232 . S
C313 O312 1.232 . S
C313 O314 1.218 . S
O314 C313 1.218 . S
C315 O308 1.275 . S
C315 O310 1.255 . S
C316 O317 1.258 . S
C316 O318 1.256 . S
O317 Cd309 2.381 . S
O317 C316 1.258 . S
O318 Cd309 2.378 . S
O318 C316 1.256 . S
O319 Cd320 2.300 . S
O319 C326 1.275 . S
Cd320 O319 2.300 . S
Cd320 O328 2.381 . S
Cd320 O329 2.378 . S
O321 Cd322 2.385 . S
O321 C326 1.255 . S
Cd322 O321 2.385 . S
Cd322 O323 2.317 . S
O323 Cd322 2.317 . S
O323 C324 1.232 . S
C324 O323 1.232 . S
C324 O325 1.218 . S
O325 C324 1.218 . S
C326 O319 1.275 . S
C326 O321 1.255 . S
C327 O328 1.258 . S
C327 O329 1.256 . S
O328 Cd320 2.381 . S
O328 C327 1.258 . S
O329 Cd320 2.378 . S
O329 C327 1.256 . S
O330 Cd331 2.300 . S
O330 C337 1.275 . S
Cd331 O330 2.300 . S
Cd331 O339 2.381 . S
Cd331 O340 2.378 . S
O332 Cd333 2.385 1_554 S
O332 C337 1.255 . S
Cd333 O332 2.385 1_556 S
Cd333 O334 2.317 1_556 S
O334 Cd333 2.317 1_554 S
O334 C335 1.232 . S
C335 O334 1.232 . S
C335 O336 1.218 1_554 S
O336 C335 1.218 1_556 S
C337 O330 1.275 . S
C337 O332 1.255 . S
C338 O339 1.258 . S
C338 O340 1.256 . S
O339 Cd331 2.381 . S
O339 C338 1.258 . S
O340 Cd331 2.378 . S
O340 C338 1.256 . S
O341 Cd342 2.300 . S
O341 C348 1.275 . S
Cd342 O341 2.300 . S
Cd342 O350 2.381 . S
Cd342 O351 2.378 . S
O343 Cd344 2.385 . S
O343 C348 1.255 . S
Cd344 O343 2.385 . S
Cd344 O345 2.317 . S
O345 Cd344 2.317 . S
O345 C346 1.232 . S
C346 O345 1.232 . S
C346 O347 1.218 . S
O347 C346 1.218 . S
C348 O341 1.275 . S
C348 O343 1.255 . S
C349 O350 1.258 . S
C349 O351 1.256 . S
O350 Cd342 2.381 . S
O350 C349 1.258 . S
O351 Cd342 2.378 . S
O351 C349 1.256 . S
C352 C353 1.387 . S
C352 H356 0.950 . S
C352 C361 1.390 1_556 S
C353 C352 1.387 . S
C353 C355 1.387 . S
H354 C361 0.950 . S
C355 C353 1.387 . S
C355 C357 1.390 1_556 S
C355 H359 0.950 . S
H356 C352 0.950 . S
C357 C355 1.390 1_554 S
C357 C358 1.387 . S
C357 H360 0.950 . S
C358 C357 1.387 . S
C358 C361 1.387 . S
H359 C355 0.950 . S
H360 C357 0.950 . S
C361 C352 1.390 1_554 S
C361 H354 0.950 . S
C361 C358 1.387 . S
C362 C363 1.387 . S
C362 H366 0.950 . S
C362 C371 1.390 . S
C363 C362 1.387 . S
C363 C365 1.387 . S
H364 C371 0.950 . S
C365 C363 1.387 . S
C365 C367 1.390 . S
C365 H369 0.950 . S
H366 C362 0.950 . S
C367 C365 1.390 . S
C367 C368 1.387 . S
C367 H370 0.950 . S
C368 C367 1.387 . S
C368 C371 1.387 . S
H369 C365 0.950 . S
H370 C367 0.950 . S
C371 C362 1.390 . S
C371 H364 0.950 . S
C371 C368 1.387 . S
C372 C373 1.387 . S
C372 H376 0.950 . S
C372 C381 1.390 . S
C373 C372 1.387 . S
C373 C375 1.387 . S
H374 C381 0.950 . S
C375 C373 1.387 . S
C375 C377 1.390 . S
C375 H379 0.950 . S
H376 C372 0.950 . S
C377 C375 1.390 . S
C377 C378 1.387 . S
C377 H380 0.950 . S
C378 C377 1.387 . S
C378 C381 1.387 . S
H379 C375 0.950 . S
H380 C377 0.950 . S
C381 C372 1.390 . S
C381 H374 0.950 . S
C381 C378 1.387 . S
C382 C383 1.387 . S
C382 H386 0.950 . S
C382 C391 1.390 . S
C383 C382 1.387 . S
C383 C385 1.387 . S
H384 C391 0.950 . S
C385 C383 1.387 . S
C385 C387 1.390 . S
C385 H389 0.950 . S
H386 C382 0.950 . S
C387 C385 1.390 . S
C387 C388 1.387 . S
C387 H390 0.950 . S
C388 C387 1.387 . S
C388 C391 1.387 . S
H389 C385 0.950 . S
H390 C387 0.950 . S
C391 C382 1.390 . S
C391 H384 0.950 . S
C391 C388 1.387 . S
C392 C393 1.387 . S
C392 H396 0.950 . S
C392 C401 1.390 1_554 S
C393 C392 1.387 . S
C393 C395 1.387 . S
H394 C401 0.950 . S
C395 C393 1.387 . S
C395 C397 1.390 1_554 S
C395 H399 0.950 . S
H396 C392 0.950 . S
C397 C395 1.390 1_556 S
C397 C398 1.387 . S
C397 H400 0.950 . S
C398 C397 1.387 . S
C398 C401 1.387 . S
H399 C395 0.950 . S
H400 C397 0.950 . S
C401 C392 1.390 1_556 S
C401 H394 0.950 . S
C401 C398 1.387 . S
C402 C403 1.387 . S
C402 H406 0.950 . S
C402 C411 1.390 . S
C403 C402 1.387 . S
C403 C405 1.387 . S
H404 C411 0.950 . S
C405 C403 1.387 . S
C405 C407 1.390 . S
C405 H409 0.950 . S
H406 C402 0.950 . S
C407 C405 1.390 . S
C407 C408 1.387 . S
C407 H410 0.950 . S
C408 C407 1.387 . S
C408 C411 1.387 . S
H409 C405 0.950 . S
H410 C407 0.950 . S
C411 C402 1.390 . S
C411 H404 0.950 . S
C411 C408 1.387 . S
C412 C413 1.387 . S
C412 H416 0.950 . S
C412 C421 1.390 . S
C413 C412 1.387 . S
C413 C415 1.387 . S
H414 C421 0.950 . S
C415 C413 1.387 . S
C415 C417 1.390 . S
C415 H419 0.950 . S
H416 C412 0.950 . S
C417 C415 1.390 . S
C417 C418 1.387 . S
C417 H420 0.950 . S
C418 C417 1.387 . S
C418 C421 1.387 . S
H419 C415 0.950 . S
H420 C417 0.950 . S
C421 C412 1.390 . S
C421 H414 0.950 . S
C421 C418 1.387 . S
C422 C423 1.387 . S
C422 H426 0.950 . S
C422 C431 1.390 . S
C423 C422 1.387 . S
C423 C425 1.387 . S
H424 C431 0.950 . S
C425 C423 1.387 . S
C425 C427 1.390 . S
C425 H429 0.950 . S
H426 C422 0.950 . S
C427 C425 1.390 . S
C427 C428 1.387 . S
C427 H430 0.950 . S
C428 C427 1.387 . S
C428 C431 1.387 . S
H429 C425 0.950 . S
H430 C427 0.950 . S
C431 C422 1.390 . S
C431 H424 0.950 . S
C431 C428 1.387 . S
C432 C433 1.387 . S
C432 H436 0.950 . S
C432 C441 1.390 1_545 S
C433 C432 1.387 . S
C433 C435 1.387 . S
H434 C441 0.950 . S
C435 C433 1.387 . S
C435 C437 1.390 1_545 S
C435 H439 0.950 . S
H436 C432 0.950 . S
C437 C435 1.390 1_565 S
C437 C438 1.387 . S
C437 H440 0.950 . S
C438 C437 1.387 . S
C438 C441 1.387 . S
H439 C435 0.950 . S
H440 C437 0.950 . S
C441 C432 1.390 1_565 S
C441 H434 0.950 . S
C441 C438 1.387 . S
C442 C443 1.387 . S
C442 H446 0.950 . S
C442 C451 1.390 . S
C443 C442 1.387 . S
C443 C445 1.387 . S
H444 C451 0.950 . S
C445 C443 1.387 . S
C445 C447 1.390 . S
C445 H449 0.950 . S
H446 C442 0.950 . S
C447 C445 1.390 . S
C447 C448 1.387 . S
C447 H450 0.950 . S
C448 C447 1.387 . S
C448 C451 1.387 . S
H449 C445 0.950 . S
H450 C447 0.950 . S
C451 C442 1.390 . S
C451 H444 0.950 . S
C451 C448 1.387 . S
C452 C453 1.387 . S
C452 H456 0.950 . S
C452 C461 1.390 1_564 S
C453 C452 1.387 . S
C453 C455 1.387 . S
H454 C461 0.950 . S
C455 C453 1.387 . S
C455 C457 1.390 1_564 S
C455 H459 0.950 . S
H456 C452 0.950 . S
C457 C455 1.390 1_546 S
C457 C458 1.387 . S
C457 H460 0.950 . S
C458 C457 1.387 . S
C458 C461 1.387 . S
H459 C455 0.950 . S
H460 C457 0.950 . S
C461 C452 1.390 1_546 S
C461 H454 0.950 . S
C461 C458 1.387 . S
C462 C463 1.387 . S
C462 H466 0.950 . S
C462 C471 1.390 . S
C463 C462 1.387 . S
C463 C465 1.387 . S
H464 C471 0.950 . S
C465 C463 1.387 . S
C465 C467 1.390 . S
C465 H469 0.950 . S
H466 C462 0.950 . S
C467 C465 1.390 . S
C467 C468 1.387 . S
C467 H470 0.950 . S
C468 C467 1.387 . S
C468 C471 1.387 . S
H469 C465 0.950 . S
H470 C467 0.950 . S
C471 C462 1.390 . S
C471 H464 0.950 . S
C471 C468 1.387 . S
C472 C473 1.387 . S
C472 H476 0.950 . S
C472 C481 1.390 1_565 S
C473 C472 1.387 . S
C473 C475 1.387 . S
H474 C481 0.950 . S
C475 C473 1.387 . S
C475 C477 1.390 1_565 S
C475 H479 0.950 . S
H476 C472 0.950 . S
C477 C475 1.390 1_545 S
C477 C478 1.387 . S
C477 H480 0.950 . S
C478 C477 1.387 . S
C478 C481 1.387 . S
H479 C475 0.950 . S
H480 C477 0.950 . S
C481 C472 1.390 1_545 S
C481 H474 0.950 . S
C481 C478 1.387 . S
C482 C483 1.387 . S
C482 H486 0.950 . S
C482 C491 1.390 . S
C483 C482 1.387 . S
C483 C485 1.387 . S
H484 C491 0.950 . S
C485 C483 1.387 . S
C485 C487 1.390 . S
C485 H489 0.950 . S
H486 C482 0.950 . S
C487 C485 1.390 . S
C487 C488 1.387 . S
C487 H490 0.950 . S
C488 C487 1.387 . S
C488 C491 1.387 . S
H489 C485 0.950 . S
H490 C487 0.950 . S
C491 C482 1.390 . S
C491 H484 0.950 . S
C491 C488 1.387 . S
C492 C493 1.387 . S
C492 H496 0.950 . S
C492 C501 1.390 1_546 S
C493 C492 1.387 . S
C493 C495 1.387 . S
H494 C501 0.950 . S
C495 C493 1.387 . S
C495 C497 1.390 1_546 S
C495 H499 0.950 . S
H496 C492 0.950 . S
C497 C495 1.390 1_564 S
C497 C498 1.387 . S
C497 H500 0.950 . S
C498 C497 1.387 . S
C498 C501 1.387 . S
H499 C495 0.950 . S
H500 C497 0.950 . S
C501 C492 1.390 1_564 S
C501 H494 0.950 . S
C501 C498 1.387 . S
C502 C503 1.387 . S
C502 H506 0.950 . S
C502 C511 1.390 . S
C503 C502 1.387 . S
C503 C505 1.387 . S
H504 C511 0.950 . S
C505 C503 1.387 . S
C505 C507 1.390 . S
C505 H509 0.950 . S
H506 C502 0.950 . S
C507 C505 1.390 . S
C507 C508 1.387 . S
C507 H510 0.950 . S
C508 C507 1.387 . S
C508 C511 1.387 . S
H509 C505 0.950 . S
H510 C507 0.950 . S
C511 C502 1.390 . S
C511 H504 0.950 . S
C511 C508 1.387 . S
C512 C513 1.387 . S
C512 H516 0.950 . S
C512 C521 1.390 1_655 S
C513 C512 1.387 . S
C513 C515 1.387 . S
H514 C521 0.950 . S
C515 C513 1.387 . S
C515 C517 1.390 1_655 S
C515 H519 0.950 . S
H516 C512 0.950 . S
C517 C515 1.390 1_455 S
C517 C518 1.387 . S
C517 H520 0.950 . S
C518 C517 1.387 . S
C518 C521 1.387 . S
H519 C515 0.950 . S
H520 C517 0.950 . S
C521 C512 1.390 1_455 S
C521 H514 0.950 . S
C521 C518 1.387 . S
C522 C523 1.387 . S
C522 H526 0.950 . S
C522 C531 1.390 . S
C523 C522 1.387 . S
C523 C525 1.387 . S
H524 C531 0.950 . S
C525 C523 1.387 . S
C525 C527 1.390 . S
C525 H529 0.950 . S
H526 C522 0.950 . S
C527 C525 1.390 . S
C527 C528 1.387 . S
C527 H530 0.950 . S
C528 C527 1.387 . S
C528 C531 1.387 . S
H529 C525 0.950 . S
H530 C527 0.950 . S
C531 C522 1.390 . S
C531 H524 0.950 . S
C531 C528 1.387 . S
C532 C533 1.387 . S
C532 H536 0.950 . S
C532 C541 1.390 . S
C533 C532 1.387 . S
C533 C535 1.387 . S
H534 C541 0.950 . S
C535 C533 1.387 . S
C535 C537 1.390 . S
C535 H539 0.950 . S
H536 C532 0.950 . S
C537 C535 1.390 . S
C537 C538 1.387 . S
C537 H540 0.950 . S
C538 C537 1.387 . S
C538 C541 1.387 . S
H539 C535 0.950 . S
H540 C537 0.950 . S
C541 C532 1.390 . S
C541 H534 0.950 . S
C541 C538 1.387 . S
C542 C543 1.387 . S
C542 H546 0.950 . S
C542 C551 1.390 . S
C543 C542 1.387 . S
C543 C545 1.387 . S
H544 C551 0.950 . S
C545 C543 1.387 . S
C545 C547 1.390 . S
C545 H549 0.950 . S
H546 C542 0.950 . S
C547 C545 1.390 . S
C547 C548 1.387 . S
C547 H550 0.950 . S
C548 C547 1.387 . S
C548 C551 1.387 . S
H549 C545 0.950 . S
H550 C547 0.950 . S
C551 C542 1.390 . S
C551 H544 0.950 . S
C551 C548 1.387 . S
C552 C553 1.387 . S
C552 H556 0.950 . S
C552 C561 1.390 1_655 S
C553 C552 1.387 . S
C553 C555 1.387 . S
H554 C561 0.950 . S
C555 C553 1.387 . S
C555 C557 1.390 1_655 S
C555 H559 0.950 . S
H556 C552 0.950 . S
C557 C555 1.390 1_455 S
C557 C558 1.387 . S
C557 H560 0.950 . S
C558 C557 1.387 . S
C558 C561 1.387 . S
H559 C555 0.950 . S
H560 C557 0.950 . S
C561 C552 1.390 1_455 S
C561 H554 0.950 . S
C561 C558 1.387 . S
C562 C563 1.387 . S
C562 H566 0.950 . S
C562 C571 1.390 . S
C563 C562 1.387 . S
C563 C565 1.387 . S
H564 C571 0.950 . S
C565 C563 1.387 . S
C565 C567 1.390 . S
C565 H569 0.950 . S
H566 C562 0.950 . S
C567 C565 1.390 . S
C567 C568 1.387 . S
C567 H570 0.950 . S
C568 C567 1.387 . S
C568 C571 1.387 . S
H569 C565 0.950 . S
H570 C567 0.950 . S
C571 C562 1.390 . S
C571 H564 0.950 . S
C571 C568 1.387 . S
C572 C573 1.387 . S
C572 H576 0.950 . S
C572 C581 1.390 . S
C573 C572 1.387 . S
C573 C575 1.387 . S
H574 C581 0.950 . S
C575 C573 1.387 . S
C575 C577 1.390 . S
C575 H579 0.950 . S
H576 C572 0.950 . S
C577 C575 1.390 . S
C577 C578 1.387 . S
C577 H580 0.950 . S
C578 C577 1.387 . S
C578 C581 1.387 . S
H579 C575 0.950 . S
H580 C577 0.950 . S
C581 C572 1.390 . S
C581 H574 0.950 . S
C581 C578 1.387 . S
C582 C583 1.387 . S
C582 H586 0.950 . S
C582 C591 1.390 . S
C583 C582 1.387 . S
C583 C585 1.387 . S
H584 C591 0.950 . S
C585 C583 1.387 . S
C585 C587 1.390 . S
C585 H589 0.950 . S
H586 C582 0.950 . S
C587 C585 1.390 . S
C587 C588 1.387 . S
C587 H590 0.950 . S
C588 C587 1.387 . S
C588 C591 1.387 . S
H589 C585 0.950 . S
H590 C587 0.950 . S
C591 C582 1.390 . S
C591 H584 0.950 . S
C591 C588 1.387 . S
C592 C593 1.387 . S
C592 H596 0.950 . S
C592 C601 1.390 . S
C593 C592 1.387 . S
C593 C595 1.387 . S
H594 C601 0.950 . S
C595 C593 1.387 . S
C595 C597 1.390 . S
C595 H599 0.950 . S
H596 C592 0.950 . S
C597 C595 1.390 . S
C597 C598 1.387 . S
C597 H600 0.950 . S
C598 C597 1.387 . S
C598 C601 1.387 . S
H599 C595 0.950 . S
H600 C597 0.950 . S
C601 C592 1.390 . S
C601 H594 0.950 . S
C601 C598 1.387 . S
C602 C603 1.387 . S
C602 H606 0.950 . S
C602 C611 1.390 . S
C603 C602 1.387 . S
C603 C605 1.387 . S
H604 C611 0.950 . S
C605 C603 1.387 . S
C605 C607 1.390 . S
C605 H609 0.950 . S
H606 C602 0.950 . S
C607 C605 1.390 . S
C607 C608 1.387 . S
C607 H610 0.950 . S
C608 C607 1.387 . S
C608 C611 1.387 . S
H609 C605 0.950 . S
H610 C607 0.950 . S
C611 C602 1.390 . S
C611 H604 0.950 . S
C611 C608 1.387 . S
C612 C613 1.387 . S
C612 H616 0.950 . S
C612 C621 1.390 . S
C613 C612 1.387 . S
C613 C615 1.387 . S
H614 C621 0.950 . S
C615 C613 1.387 . S
C615 C617 1.390 . S
C615 H619 0.950 . S
H616 C612 0.950 . S
C617 C615 1.390 . S
C617 C618 1.387 . S
C617 H620 0.950 . S
C618 C617 1.387 . S
C618 C621 1.387 . S
H619 C615 0.950 . S
H620 C617 0.950 . S
C621 C612 1.390 . S
C621 H614 0.950 . S
C621 C618 1.387 . S
C622 C623 1.387 . S
C622 H626 0.950 . S
C622 C631 1.390 . S
C623 C622 1.387 . S
C623 C625 1.387 . S
H624 C631 0.950 . S
C625 C623 1.387 . S
C625 C627 1.390 . S
C625 H629 0.950 . S
H626 C622 0.950 . S
C627 C625 1.390 . S
C627 C628 1.387 . S
C627 H630 0.950 . S
C628 C627 1.387 . S
C628 C631 1.387 . S
H629 C625 0.950 . S
H630 C627 0.950 . S
C631 C622 1.390 . S
C631 H624 0.950 . S
C631 C628 1.387 . S
C632 C633 1.387 . S
C632 H636 0.950 . S
C632 C641 1.390 . S
C633 C632 1.387 . S
C633 C635 1.387 . S
H634 C641 0.950 . S
C635 C633 1.387 . S
C635 C637 1.390 . S
C635 H639 0.950 . S
H636 C632 0.950 . S
C637 C635 1.390 . S
C637 C638 1.387 . S
C637 H640 0.950 . S
C638 C637 1.387 . S
C638 C641 1.387 . S
H639 C635 0.950 . S
H640 C637 0.950 . S
C641 C632 1.390 . S
C641 H634 0.950 . S
C641 C638 1.387 . S
C642 C643 1.387 . S
C642 H646 0.950 . S
C642 C651 1.390 1_455 S
C643 C642 1.387 . S
C643 C645 1.387 . S
H644 C651 0.950 . S
C645 C643 1.387 . S
C645 C647 1.390 1_455 S
C645 H649 0.950 . S
H646 C642 0.950 . S
C647 C645 1.390 1_655 S
C647 C648 1.387 . S
C647 H650 0.950 . S
C648 C647 1.387 . S
C648 C651 1.387 . S
H649 C645 0.950 . S
H650 C647 0.950 . S
C651 C642 1.390 1_655 S
C651 H644 0.950 . S
C651 C648 1.387 . S
C652 C653 1.387 . S
C652 H656 0.950 . S
C652 C661 1.390 . S
C653 C652 1.387 . S
C653 C655 1.387 . S
H654 C661 0.950 . S
C655 C653 1.387 . S
C655 C657 1.390 . S
C655 H659 0.950 . S
H656 C652 0.950 . S
C657 C655 1.390 . S
C657 C658 1.387 . S
C657 H660 0.950 . S
C658 C657 1.387 . S
C658 C661 1.387 . S
H659 C655 0.950 . S
H660 C657 0.950 . S
C661 C652 1.390 . S
C661 H654 0.950 . S
C661 C658 1.387 . S
C662 C663 1.387 . S
C662 H666 0.950 . S
C662 C671 1.390 1_455 S
C663 C662 1.387 . S
C663 C665 1.387 . S
H664 C671 0.950 . S
C665 C663 1.387 . S
C665 C667 1.390 1_455 S
C665 H669 0.950 . S
H666 C662 0.950 . S
C667 C665 1.390 1_655 S
C667 C668 1.387 . S
C667 H670 0.950 . S
C668 C667 1.387 . S
C668 C671 1.387 . S
H669 C665 0.950 . S
H670 C667 0.950 . S
C671 C662 1.390 1_655 S
C671 H664 0.950 . S
C671 C668 1.387 . S
C672 C673 1.387 . S
C672 H676 0.950 . S
C672 C681 1.390 . S
C673 C672 1.387 . S
C673 C675 1.387 . S
H674 C681 0.950 . S
C675 C673 1.387 . S
C675 C677 1.390 . S
C675 H679 0.950 . S
H676 C672 0.950 . S
C677 C675 1.390 . S
C677 C678 1.387 . S
C677 H680 0.950 . S
C678 C677 1.387 . S
C678 C681 1.387 . S
H679 C675 0.950 . S
H680 C677 0.950 . S
C681 C672 1.390 . S
C681 H674 0.950 . S
C681 C678 1.387 . S
C682 C683 1.387 . S
C682 H686 0.950 . S
C682 C691 1.390 . S
C683 C682 1.387 . S
C683 C685 1.387 . S
H684 C691 0.950 . S
C685 C683 1.387 . S
C685 C687 1.390 . S
C685 H689 0.950 . S
H686 C682 0.950 . S
C687 C685 1.390 . S
C687 C688 1.387 . S
C687 H690 0.950 . S
C688 C687 1.387 . S
C688 C691 1.387 . S
H689 C685 0.950 . S
H690 C687 0.950 . S
C691 C682 1.390 . S
C691 H684 0.950 . S
C691 C688 1.387 . S
C692 C693 1.387 . S
C692 H696 0.950 . S
C692 C701 1.390 . S
C693 C692 1.387 . S
C693 C695 1.387 . S
H694 C701 0.950 . S
C695 C693 1.387 . S
C695 C697 1.390 . S
C695 H699 0.950 . S
H696 C692 0.950 . S
C697 C695 1.390 . S
C697 C698 1.387 . S
C697 H700 0.950 . S
C698 C697 1.387 . S
C698 C701 1.387 . S
H699 C695 0.950 . S
H700 C697 0.950 . S
C701 C692 1.390 . S
C701 H694 0.950 . S
C701 C698 1.387 . S
C702 C703 1.387 . S
C702 H706 0.950 . S
C702 C711 1.390 . S
C703 C702 1.387 . S
C703 C705 1.387 . S
H704 C711 0.950 . S
C705 C703 1.387 . S
C705 C707 1.390 . S
C705 H709 0.950 . S
H706 C702 0.950 . S
C707 C705 1.390 . S
C707 C708 1.387 . S
C707 H710 0.950 . S
C708 C707 1.387 . S
C708 C711 1.387 . S
H709 C705 0.950 . S
H710 C707 0.950 . S
C711 C702 1.390 . S
C711 H704 0.950 . S
C711 C708 1.387 . S
C712 C713 1.387 . S
C712 H716 0.950 . S
C712 C721 1.390 . S
C713 C712 1.387 . S
C713 C715 1.387 . S
H714 C721 0.950 . S
C715 C713 1.387 . S
C715 C717 1.390 . S
C715 H719 0.950 . S
H716 C712 0.950 . S
C717 C715 1.390 . S
C717 C718 1.387 . S
C717 H720 0.950 . S
C718 C717 1.387 . S
C718 C721 1.387 . S
H719 C715 0.950 . S
H720 C717 0.950 . S
C721 C712 1.390 . S
C721 H714 0.950 . S
C721 C718 1.387 . S
C722 C723 1.387 . S
C722 H726 0.950 . S
C722 C731 1.390 . S
C723 C722 1.387 . S
C723 C725 1.387 . S
H724 C731 0.950 . S
C725 C723 1.387 . S
C725 C727 1.390 . S
C725 H729 0.950 . S
H726 C722 0.950 . S
C727 C725 1.390 . S
C727 C728 1.387 . S
C727 H730 0.950 . S
C728 C727 1.387 . S
C728 C731 1.387 . S
H729 C725 0.950 . S
H730 C727 0.950 . S
C731 C722 1.390 . S
C731 H724 0.950 . S
C731 C728 1.387 . S
C732 C733 1.387 . S
C732 H736 0.950 . S
C732 C741 1.390 . S
C733 C732 1.387 . S
C733 C735 1.387 . S
H734 C741 0.950 . S
C735 C733 1.387 . S
C735 C737 1.390 . S
C735 H739 0.950 . S
H736 C732 0.950 . S
C737 C735 1.390 . S
C737 C738 1.387 . S
C737 H740 0.950 . S
C738 C737 1.387 . S
C738 C741 1.387 . S
H739 C735 0.950 . S
H740 C737 0.950 . S
C741 C732 1.390 . S
C741 H734 0.950 . S
C741 C738 1.387 . S
C742 C743 1.387 . S
C742 H746 0.950 . S
C742 C751 1.390 . S
C743 C742 1.387 . S
C743 C745 1.387 . S
H744 C751 0.950 . S
C745 C743 1.387 . S
C745 C747 1.390 . S
C745 H749 0.950 . S
H746 C742 0.950 . S
C747 C745 1.390 . S
C747 C748 1.387 . S
C747 H750 0.950 . S
C748 C747 1.387 . S
C748 C751 1.387 . S
H749 C745 0.950 . S
H750 C747 0.950 . S
C751 C742 1.390 . S
C751 H744 0.950 . S
C751 C748 1.387 . S
C752 C753 1.387 . S
C752 H756 0.950 . S
C752 C761 1.390 . S
C753 C752 1.387 . S
C753 C755 1.387 . S
H754 C761 0.950 . S
C755 C753 1.387 . S
C755 C757 1.390 . S
C755 H759 0.950 . S
H756 C752 0.950 . S
C757 C755 1.390 . S
C757 C758 1.387 . S
C757 H760 0.950 . S
C758 C757 1.387 . S
C758 C761 1.387 . S
H759 C755 0.950 . S
H760 C757 0.950 . S
C761 C752 1.390 . S
C761 H754 0.950 . S
C761 C758 1.387 . S
C762 C763 1.387 . S
C762 H766 0.950 . S
C762 C771 1.390 . S
C763 C762 1.387 . S
C763 C765 1.387 . S
H764 C771 0.950 . S
C765 C763 1.387 . S
C765 C767 1.390 . S
C765 H769 0.950 . S
H766 C762 0.950 . S
C767 C765 1.390 . S
C767 C768 1.387 . S
C767 H770 0.950 . S
C768 C767 1.387 . S
C768 C771 1.387 . S
H769 C765 0.950 . S
H770 C767 0.950 . S
C771 C762 1.390 . S
C771 H764 0.950 . S
C771 C768 1.387 . S
C772 C773 1.387 . S
C772 H776 0.950 . S
C772 C781 1.390 . S
C773 C772 1.387 . S
C773 C775 1.387 . S
H774 C781 0.950 . S
C775 C773 1.387 . S
C775 C777 1.390 . S
C775 H779 0.950 . S
H776 C772 0.950 . S
C777 C775 1.390 . S
C777 C778 1.387 . S
C777 H780 0.950 . S
C778 C777 1.387 . S
C778 C781 1.387 . S
H779 C775 0.950 . S
H780 C777 0.950 . S
C781 C772 1.390 . S
C781 H774 0.950 . S
C781 C778 1.387 . S
C782 C783 1.387 . S
C782 H786 0.950 . S
C782 C791 1.390 . S
C783 C782 1.387 . S
C783 C785 1.387 . S
H784 C791 0.950 . S
C785 C783 1.387 . S
C785 C787 1.390 . S
C785 H789 0.950 . S
H786 C782 0.950 . S
C787 C785 1.390 . S
C787 C788 1.387 . S
C787 H790 0.950 . S
C788 C787 1.387 . S
C788 C791 1.387 . S
H789 C785 0.950 . S
H790 C787 0.950 . S
C791 C782 1.390 . S
C791 H784 0.950 . S
C791 C788 1.387 . S
C792 C793 1.387 . S
C792 H796 0.950 . S
C792 C801 1.390 . S
C793 C792 1.387 . S
C793 C795 1.387 . S
H794 C801 0.950 . S
C795 C793 1.387 . S
C795 C797 1.390 . S
C795 H799 0.950 . S
H796 C792 0.950 . S
C797 C795 1.390 . S
C797 C798 1.387 . S
C797 H800 0.950 . S
C798 C797 1.387 . S
C798 C801 1.387 . S
H799 C795 0.950 . S
H800 C797 0.950 . S
C801 C792 1.390 . S
C801 H794 0.950 . S
C801 C798 1.387 . S
C802 C803 1.387 . S
C802 H806 0.950 . S
C802 C811 1.390 . S
C803 C802 1.387 . S
C803 C805 1.387 . S
H804 C811 0.950 . S
C805 C803 1.387 . S
C805 C807 1.390 . S
C805 H809 0.950 . S
H806 C802 0.950 . S
C807 C805 1.390 . S
C807 C808 1.387 . S
C807 H810 0.950 . S
C808 C807 1.387 . S
C808 C811 1.387 . S
H809 C805 0.950 . S
H810 C807 0.950 . S
C811 C802 1.390 . S
C811 H804 0.950 . S
C811 C808 1.387 . S
C812 C813 1.387 . S
C812 H816 0.950 . S
C812 C821 1.390 . S
C813 C812 1.387 . S
C813 C815 1.387 . S
H814 C821 0.950 . S
C815 C813 1.387 . S
C815 C817 1.390 . S
C815 H819 0.950 . S
H816 C812 0.950 . S
C817 C815 1.390 . S
C817 C818 1.387 . S
C817 H820 0.950 . S
C818 C817 1.387 . S
C818 C821 1.387 . S
H819 C815 0.950 . S
H820 C817 0.950 . S
C821 C812 1.390 . S
C821 H814 0.950 . S
C821 C818 1.387 . S
C822 C823 1.387 . S
C822 H826 0.950 . S
C822 C831 1.390 . S
C823 C822 1.387 . S
C823 C825 1.387 . S
H824 C831 0.950 . S
C825 C823 1.387 . S
C825 C827 1.390 . S
C825 H829 0.950 . S
H826 C822 0.950 . S
C827 C825 1.390 . S
C827 C828 1.387 . S
C827 H830 0.950 . S
C828 C827 1.387 . S
C828 C831 1.387 . S
H829 C825 0.950 . S
H830 C827 0.950 . S
C831 C822 1.390 . S
C831 H824 0.950 . S
C831 C828 1.387 . S
C353 C49 1.231 . S
C358 C5 1.231 . S
C363 C60 1.231 . S
C368 C16 1.231 . S
C373 C27 1.225 . S
C378 C71 1.225 . S
C383 C38 1.231 . S
C388 C82 1.231 . S
C393 C137 1.514 . S
C398 C93 1.514 . S
C403 C148 1.511 . S
C408 C104 1.511 . S
C413 C115 1.510 . S
C418 C159 1.510 . S
C423 C170 1.511 . S
C428 C126 1.511 . S
C433 C181 1.225 . S
C438 C225 1.225 . S
C443 C236 1.225 . S
C448 C192 1.225 . S
C453 C203 1.225 . S
C458 C247 1.225 . S
C463 C258 1.225 . S
C468 C214 1.225 . S
C473 C269 1.514 . S
C478 C313 1.514 . S
C483 C324 1.515 . S
C488 C280 1.515 . S
C493 C291 1.514 . S
C498 C335 1.514 . S
C503 C346 1.515 . S
C508 C302 1.515 . S
C513 C139 1.530 . S
C518 C7 1.484 . S
C523 C18 1.482 . S
C528 C326 1.529 . S
C533 C161 1.529 . S
C538 C29 1.482 . S
C543 C40 1.483 . S
C548 C348 1.530 . S
C553 C95 1.530 . S
C558 C51 1.482 . S
C563 C282 1.529 . S
C568 C62 1.484 . S
C573 C73 1.485 . S
C578 C117 1.530 . S
C583 C304 1.530 . S
C588 C84 1.482 . S
C593 C106 1.530 . S
C598 C238 1.485 . S
C603 C128 1.529 . S
C608 C260 1.484 . S
C613 C150 1.530 . S
C618 C194 1.483 . S
C623 C216 1.485 . S
C628 C172 1.529 . S
C633 C315 1.529 . S
C638 C183 1.485 . S
C643 C337 1.530 . S
C648 C205 1.485 . S
C653 C227 1.482 . S
C658 C271 1.529 . S
C663 C293 1.530 . S
C668 C249 1.483 . S
C673 C261 1.543 . S
C678 C8 1.543 . S
C683 C19 1.540 . S
C688 C228 1.540 . S
C693 C30 1.542 . S
C698 C239 1.542 . S
C703 C250 1.543 . S
C708 C41 1.543 . S
C713 C52 1.541 . S
C718 C195 1.541 . S
C723 C63 1.542 . S
C728 C206 1.542 . S
C733 C217 1.540 . S
C738 C74 1.540 . S
C743 C184 1.543 . S
C748 C85 1.543 . S
C753 C349 1.607 . S
C758 C96 1.607 . S
C763 C107 1.607 . S
C768 C316 1.607 . S
C773 C327 1.607 . S
C778 C118 1.607 . S
C783 C338 1.606 . S
C788 C129 1.606 . S
C793 C140 1.607 . S
C798 C283 1.607 . S
C803 C294 1.606 . S
C808 C151 1.606 . S
C813 C305 1.607 . S
C818 C162 1.607 . S
C823 C173 1.606 . S
C828 C272 1.606 . S
