# Generated by pormake.
# Topology uom, (4)-cn, num edge types: 1
# Building blocks:
#     Node 0, Type 0, BuildingBlock: NAWXER_clean_sbu_0, # of connection points: 4
#     Node 1, Type 0, BuildingBlock: NAWXER_clean_sbu_0, # of connection points: 4
#     Node 2, Type 0, BuildingBlock: NAWXER_clean_sbu_0, # of connection points: 4
#     Node 3, Type 0, BuildingBlock: NAWXER_clean_sbu_0, # of connection points: 4
#     Node 4, Type 0, BuildingBlock: NAWXER_clean_sbu_0, # of connection points: 4
#     Node 5, Type 0, BuildingBlock: NAWXER_clean_sbu_0, # of connection points: 4
#     Edge 6, Type (0, 0), BuildingBlock: EZIPEK_clean_linker_0, # of connection points: 2
#     Edge 7, Type (0, 0), BuildingBlock: EZIPEK_clean_linker_0, # of connection points: 2
#     Edge 8, Type (0, 0), BuildingBlock: EZIPEK_clean_linker_0, # of connection points: 2
#     Edge 9, Type (0, 0), BuildingBlock: EZIPEK_clean_linker_0, # of connection points: 2
#     Edge 10, Type (0, 0), BuildingBlock: EZIPEK_clean_linker_0, # of connection points: 2
#     Edge 11, Type (0, 0), BuildingBlock: EZIPEK_clean_linker_0, # of connection points: 2
#     Edge 12, Type (0, 0), BuildingBlock: EZIPEK_clean_linker_0, # of connection points: 2
#     Edge 13, Type (0, 0), BuildingBlock: EZIPEK_clean_linker_0, # of connection points: 2
#     Edge 14, Type (0, 0), BuildingBlock: EZIPEK_clean_linker_0, # of connection points: 2
#     Edge 15, Type (0, 0), BuildingBlock: EZIPEK_clean_linker_0, # of connection points: 2
#     Edge 16, Type (0, 0), BuildingBlock: EZIPEK_clean_linker_0, # of connection points: 2
#     Edge 17, Type (0, 0), BuildingBlock: EZIPEK_clean_linker_0, # of connection points: 2
# Relax obj value: 0.104
# Max RMSD: 0.115
# Mean RMSD: 0.115
data_MOF--net-uom--node1-NAWXER_clean_sbu_0--edge1-EZIPEK_clean_linker_0
_symmetry_space_group_name_H-M    P1
_symmetry_Int_Tables_number       1
_symmetry_cell_setting            triclinic
loop_
_symmetry_equiv_pos_as_xyz
'x, y, z'
_cell_length_a     20.644334
_cell_length_b     21.222169
_cell_length_c     27.468145
_cell_angle_alpha  90.250522
_cell_angle_beta   89.547492
_cell_angle_gamma 120.49838
loop_
_atom_site_label
_atom_site_type_symbol
_atom_site_fract_x
_atom_site_fract_y
_atom_site_fract_z
_atom_type_partial_charge
C0 C 0.29716 0.02088 0.96866 0.0
C1 C 0.3029 0.13601 0.12744 0.0
O2 O 0.31581 0.0873 0.97615 0.0
Zn3 Zn 0.30211 0.07878 0.04692 0.0
O4 O 0.27556 0.97785 1.00529 0.0
Zn5 Zn 0.25576 0.9781 0.08327 0.0
O6 O 0.14853 0.91186 0.08583 0.0
O7 O 0.18063 0.01471 0.04721 0.0
O8 O 0.27498 0.06669 0.13152 0.0
O9 O 0.32724 0.16567 0.08614 0.0
O10 O 0.38177 0.04334 0.06525 0.0
O11 O 0.31707 0.94059 0.1069 0.0
C12 C 0.12975 0.95141 0.06232 0.0
C13 C 0.37829 0.98838 0.08728 0.0
C14 C 0.43489 0.46543 0.40506 0.0
C15 C 0.24955 0.20939 0.4247 0.0
O16 O 0.44086 0.41453 0.42434 0.0
Zn17 Zn 0.34256 0.33326 0.41136 0.0
O18 O 0.37363 0.45026 0.38358 0.0
Zn19 Zn 0.26774 0.35176 0.37028 0.0
O20 O 0.19361 0.36938 0.40255 0.0
O21 O 0.26534 0.35268 0.45397 0.0
O22 O 0.22646 0.24334 0.39814 0.0
O23 O 0.31648 0.24116 0.44081 0.0
O24 O 0.33799 0.30312 0.3352 0.0
O25 O 0.26035 0.33125 0.30023 0.0
C26 C 0.20998 0.36254 0.44608 0.0
C27 C 0.30259 0.30388 0.29722 0.0
C28 C 0.04719 0.31193 0.62846 0.0
C29 C 0.91565 0.22394 0.78736 0.0
O30 O 0.97621 0.27644 0.6352 0.0
Zn31 Zn 0.97362 0.26994 0.70692 0.0
O32 O 0.09033 0.33272 0.66556 0.0
Zn33 Zn 0.08114 0.32863 0.743 0.0
O34 O 0.13565 0.2786 0.75864 0.0
O35 O 0.02809 0.20958 0.72011 0.0
O36 O 0.98679 0.2669 0.78984 0.0
O37 O 0.88278 0.2104 0.74625 0.0
O38 O 1.00313 0.3763 0.72878 0.0
O39 O 0.11612 0.42988 0.7612 0.0
C40 C 0.087 0.21711 0.74061 0.0
C41 C 0.05871 0.43263 0.74784 0.0
C42 C 0.63315 0.9508 0.05149 0.0
C43 C 0.84532 0.91258 1.02306 0.0
O44 O 0.69702 0.00629 0.06201 0.0
Zn45 Zn 0.81197 0.03713 0.05955 0.0
O46 O 0.62984 0.8943 1.03268 0.0
Zn47 Zn 0.73694 0.92898 1.03116 0.0
O48 O 0.7598 0.93369 0.10674 0.0
O49 O 0.83659 0.04684 0.12894 0.0
O50 O 0.77759 0.86688 1.01148 0.0
O51 O 0.86288 0.97567 1.0395 0.0
O52 O 0.85612 0.11861 1.01348 0.0
O53 O 0.78115 0.01321 0.97731 0.0
C54 C 0.79695 0.97942 0.14038 0.0
C55 C 0.82556 0.0826 0.97487 0.0
C56 C 0.97266 0.94662 0.42241 0.0
C57 C 0.71352 0.73748 0.41917 0.0
O58 O 0.91605 0.94734 0.44093 0.0
Zn59 Zn 0.84039 0.8474 0.423 0.0
O60 O 0.96252 0.89004 0.39962 0.0
Zn61 Zn 0.87724 0.78679 0.37657 0.0
O62 O 0.87781 0.80555 0.30565 0.0
O63 O 0.83564 0.86521 0.34886 0.0
O64 O 0.76141 0.72907 0.39445 0.0
O65 O 0.73436 0.79691 0.44222 0.0
O66 O 0.88387 0.79009 0.46031 0.0
O67 O 0.91647 0.73002 0.40942 0.0
C68 C 0.85199 0.8489 0.30769 0.0
C69 C 0.91302 0.75015 0.4528 0.0
C70 C 0.06305 0.70598 0.75601 0.0
C71 C 0.07004 0.9382 0.74192 0.0
O72 O 0.01706 0.72155 0.77598 0.0
Zn73 Zn 0.05976 0.81803 0.74812 0.0
O74 O 0.11611 0.75244 0.72838 0.0
Zn75 Zn 0.15993 0.8622 0.70281 0.0
O76 O 0.25933 0.91536 0.73431 0.0
O77 O 0.16285 0.87384 0.78534 0.0
O78 O 0.12253 0.93604 0.71843 0.0
O79 O 0.01895 0.88113 0.76317 0.0
O80 O 0.03798 0.7933 0.67265 0.0
O81 O 0.14431 0.8497 0.6319 0.0
C82 C 0.23372 0.9092 0.77753 0.0
C83 C 0.07296 0.80889 0.63182 0.0
C84 C 0.37154 0.24152 0.18689 0.0
C85 C 0.30318 0.18049 0.17026 0.0
C86 C 0.23579 0.19816 0.23858 0.0
C87 C 0.30266 0.26322 0.25242 0.0
N88 N 0.43212 0.35248 0.23574 0.0
N89 N 0.16763 0.11008 0.17488 0.0
C90 C 0.36999 0.28647 0.22538 0.0
C91 C 0.23458 0.16141 0.19466 0.0
N92 N 0.43843 0.25462 0.16749 0.0
N93 N 0.17406 0.16926 0.26852 0.0
H94 H 0.16379 0.08309 0.14227 0.0
H95 H 0.11563 0.09946 0.18818 0.0
H96 H 0.17239 0.19351 0.30123 0.0
H97 H 0.12693 0.1177 0.26325 0.0
H98 H 0.49052 0.2932 0.18146 0.0
H99 H 0.44208 0.22242 0.14006 0.0
H100 H 0.48053 0.37646 0.21423 0.0
H101 H 0.43297 0.38633 0.2637 0.0
C102 C 0.09285 0.28772 0.49594 0.0
C103 C 0.16034 0.35545 0.48795 0.0
C104 C 0.14376 0.39913 0.56743 0.0
C105 C 0.08191 0.328 0.5784 0.0
N106 N 0.00691 0.20071 0.55526 0.0
N107 N 0.25416 0.47375 0.51735 0.0
C108 C 0.05808 0.27142 0.54295 0.0
C109 C 0.18671 0.41069 0.52401 0.0
N110 N 0.06297 0.23786 0.45897 0.0
N111 N 0.16063 0.45648 0.59787 0.0
H112 H 0.28485 0.48593 0.4849 0.0
H113 H 0.28181 0.51196 0.54482 0.0
H114 H 0.13187 0.45109 0.63022 0.0
H115 H 0.19896 0.51072 0.58908 0.0
H116 H 0.00997 0.19097 0.46081 0.0
H117 H 0.08828 0.24611 0.42479 0.0
H118 H 0.99317 0.15617 0.53269 0.0
H119 H 0.98365 0.18479 0.58996 0.0
C120 C 0.83147 0.17638 0.91526 0.0
C121 C 0.84476 0.11845 0.9261 0.0
C122 C 0.88125 0.11746 0.84089 0.0
C123 C 0.87729 0.18106 0.83167 0.0
N124 N 0.85583 0.27609 0.86067 0.0
N125 N 0.89685 0.04389 0.90142 0.0
C126 C 0.85417 0.21188 0.86904 0.0
C127 C 0.87304 0.09127 0.88936 0.0
N128 N 0.79504 0.19586 0.9484 0.0
N129 N 0.89391 0.0826 0.80326 0.0
H130 H 0.8965 0.02714 0.93707 0.0
H131 H 0.92447 0.0274 0.87722 0.0
H132 H 0.90048 0.10055 0.7673 0.0
H133 H 0.89067 0.03224 0.80686 0.0
H134 H 0.77712 0.23261 0.94078 0.0
H135 H 0.77706 0.17071 0.9823 0.0
H136 H 0.84842 0.30612 0.88796 0.0
H137 H 0.86876 0.30131 0.82658 0.0
C138 C 0.75548 0.87332 0.19847 0.0
C139 C 0.80086 0.94978 0.18942 0.0
C140 C 0.87776 0.96055 0.26019 0.0
C141 C 0.83977 0.88272 0.26393 0.0
N142 N 0.74492 0.76446 0.23434 0.0
N143 N 0.87906 0.06698 0.22707 0.0
C144 C 0.7796 0.83897 0.23222 0.0
C145 C 0.8553 0.9941 0.22443 0.0
N146 N 0.68528 0.83496 0.17873 0.0
N147 N 0.93628 0.0026 0.29053 0.0
H148 H 0.85383 0.09049 0.20734 0.0
H149 H 0.91486 0.10198 0.25376 0.0
H150 H 0.9508 0.98098 0.31945 0.0
H151 H 0.97341 0.05826 0.28541 0.0
H152 H 0.64691 0.78052 0.18704 0.0
H153 H 0.66111 0.86053 0.16006 0.0
H154 H 0.70672 0.73017 0.20828 0.0
H155 H 0.75854 0.73687 0.25984 0.0
C156 C 0.06105 0.76708 0.54302 0.0
C157 C 0.02888 0.78006 0.58534 0.0
C158 C 0.91 0.7282 0.54088 0.0
C159 C 0.94771 0.73659 0.49616 0.0
N160 N 0.06397 0.76649 0.4549 0.0
N161 N 0.92175 0.78607 0.61796 0.0
C162 C 0.02451 0.75584 0.49712 0.0
C163 C 0.95254 0.76307 0.58295 0.0
N164 N 0.12432 0.76225 0.54654 0.0
N165 N 0.8333 0.69112 0.54227 0.0
H166 H 0.95226 0.82173 0.64596 0.0
H167 H 0.86795 0.77858 0.61496 0.0
H168 H 0.80128 0.66553 0.51138 0.0
H169 H 0.80281 0.67959 0.57474 0.0
H170 H 0.14626 0.74755 0.51722 0.0
H171 H 0.14878 0.76308 0.57975 0.0
H172 H 0.1222 0.78964 0.45415 0.0
H173 H 0.03943 0.75535 0.42065 0.0
C174 C 0.26066 0.91523 0.90752 0.0
C175 C 0.29848 0.99226 0.91832 0.0
C176 C 0.31847 0.01698 0.83029 0.0
C177 C 0.28172 0.94109 0.82091 0.0
N178 N 0.2516 0.82353 0.85054 0.0
N179 N 0.39401 0.11171 0.88808 0.0
C180 C 0.26641 0.89277 0.85985 0.0
C181 C 0.33722 0.04204 0.87919 0.0
N182 N 0.2132 0.86263 0.93973 0.0
N183 N 0.33311 0.06499 0.79321 0.0
H184 H 0.41695 0.12945 0.92255 0.0
H185 H 0.42568 0.14783 0.86027 0.0
H186 H 0.32244 0.04842 0.75692 0.0
H187 H 0.35226 0.12026 0.79918 0.0
H188 H 0.18162 0.80753 0.93019 0.0
H189 H 0.19543 0.87184 0.97295 0.0
H190 H 0.24573 0.7873 0.8781 0.0
H191 H 0.25364 0.80621 0.81517 0.0
C192 C 0.02874 0.92132 1.00052 0.0
C193 C 0.04975 0.92378 0.05013 0.0
C194 C 0.91953 0.87936 0.07518 0.0
C195 C 0.90326 0.89182 1.02748 0.0
N196 N 0.93743 0.91787 0.94341 0.0
N197 N 0.01564 0.90915 0.13551 0.0
C198 C 0.95615 0.90958 0.98952 0.0
C199 C 0.99491 0.90225 0.08773 0.0
N200 N 0.07777 0.92919 0.9641 0.0
N201 N 0.86261 0.84731 0.10863 0.0
H202 H 0.07065 0.92791 0.14655 0.0
H203 H 0.97961 0.90228 0.16438 0.0
H204 H 0.80699 0.83009 0.09967 0.0
H205 H 0.86908 0.83113 0.14312 0.0
H206 H 0.06377 0.92165 0.92738 0.0
H207 H 0.13107 0.93746 0.97086 0.0
H208 H 0.97574 0.93984 0.9147 0.0
H209 H 0.88269 0.9041 0.93452 0.0
C210 C 0.0727 0.05022 0.47189 0.0
C211 C 0.05117 0.00858 0.42805 0.0
C212 C 0.18095 0.08282 0.39802 0.0
C213 C 0.19523 0.13304 0.43556 0.0
N214 N 0.15851 0.16693 0.50964 0.0
N215 N 0.08789 0.99162 0.34594 0.0
C216 C 0.14241 0.11708 0.4733 0.0
C217 C 0.10636 0.02541 0.39042 0.0
N218 N 0.02838 0.02477 0.51257 0.0
N219 N 0.23873 0.09222 0.36845 0.0
H220 H 0.03495 0.95023 0.33579 0.0
H221 H 0.12475 0.00972 0.31631 0.0
H222 H 0.29371 0.13532 0.37346 0.0
H223 H 0.23376 0.05357 0.34291 0.0
H224 H 0.04255 0.05249 0.54558 0.0
H225 H 0.9817 0.97223 0.51511 0.0
H226 H 0.1192 0.16296 0.53523 0.0
H227 H 0.21108 0.21438 0.51265 0.0
C228 C 0.0859 0.11543 0.78802 0.0
C229 C 0.09455 0.15164 0.74299 0.0
C230 C 0.07448 0.04303 0.69872 0.0
C231 C 0.07162 0.00865 0.74344 0.0
N232 N 0.08951 0.01734 0.83054 0.0
N233 N 0.11293 0.15642 0.65613 0.0
C234 C 0.08146 0.04622 0.7882 0.0
C235 C 0.09382 0.11732 0.69854 0.0
N236 N 0.07864 0.14547 0.83034 0.0
N237 N 0.05577 0.00367 0.65643 0.0
H238 H 0.12846 0.21149 0.65488 0.0
H239 H 0.12087 0.1366 0.62324 0.0
H240 H 0.04003 0.94864 0.65497 0.0
H241 H 0.04837 0.02343 0.62369 0.0
H242 H 0.06379 0.11781 0.86347 0.0
H243 H 0.0824 0.19632 0.83181 0.0
H244 H 0.10499 0.04593 0.86334 0.0
H245 H 0.08672 0.96695 0.83222 0.0
C246 C 0.55407 0.9766 0.10918 0.0
C247 C 0.56416 0.95388 0.06222 0.0
C248 C 0.44401 0.93917 1.03687 0.0
C249 C 0.44017 0.97288 0.08071 0.0
N250 N 0.49434 0.0295 0.15742 0.0
N251 N 0.52499 0.92727 0.97826 0.0
C252 C 0.49604 0.99329 0.11663 0.0
C253 C 0.5107 0.93856 1.02519 0.0
N254 N 0.59789 0.97939 0.14712 0.0
N255 N 0.38309 0.90562 1.00699 0.0
H256 H 0.57434 0.92892 0.96748 0.0
H257 H 0.49126 0.92379 0.94913 0.0
H258 H 0.33163 0.90061 1.016 0.0
H259 H 0.3808 0.87505 0.97657 0.0
H260 H 0.58854 0.98893 0.183 0.0
H261 H 0.63885 0.96471 0.14368 0.0
H262 H 0.53811 0.053 0.18239 0.0
H263 H 0.45126 0.04045 0.16449 0.0
C264 C 0.59833 0.65481 0.37194 0.0
C265 C 0.63379 0.6776 0.41791 0.0
C266 C 0.52625 0.57148 0.45602 0.0
C267 C 0.49824 0.54208 0.40914 0.0
N268 N 0.51078 0.55356 0.32164 0.0
N269 N 0.63423 0.6557 0.50395 0.0
C270 C 0.53437 0.5836 0.36679 0.0
C271 C 0.59802 0.63604 0.46024 0.0
N272 N 0.62584 0.70175 0.33327 0.0
N273 N 0.48348 0.53835 0.49645 0.0
H274 H 0.68632 0.70304 0.50867 0.0
H275 H 0.615 0.62257 0.53476 0.0
H276 H 0.42991 0.49201 0.49451 0.0
H277 H 0.49767 0.56089 0.53121 0.0
H278 H 0.5987 0.69113 0.29986 0.0
H279 H 0.67195 0.75468 0.33624 0.0
H280 H 0.54046 0.57801 0.28975 0.0
H281 H 0.46468 0.5014 0.31609 0.0
C282 C 0.02341 0.58726 0.71628 0.0
C283 C 0.05073 0.6313 0.75836 0.0
C284 C 0.07164 0.53931 0.79704 0.0
C285 C 0.05558 0.50093 0.75203 0.0
N286 N 0.02486 0.49463 0.66626 0.0
N287 N 0.10397 0.65284 0.83852 0.0
C288 C 0.03317 0.52619 0.71104 0.0
C289 C 0.07546 0.60823 0.79885 0.0
N290 N 0.98687 0.60329 0.6815 0.0
N291 N 0.0796 0.50842 0.83843 0.0
H292 H 0.10365 0.70168 0.84185 0.0
H293 H 0.13142 0.64344 0.86674 0.0
H294 H 0.07421 0.45685 0.839 0.0
H295 H 0.08422 0.53057 0.87301 0.0
H296 H 0.95858 0.56882 0.65237 0.0
H297 H 0.97785 0.64726 0.68458 0.0
H298 H 0.01855 0.5172 0.63432 0.0
H299 H 0.03068 0.44953 0.65973 0.0
loop_
_geom_bond_atom_site_label_1
_geom_bond_atom_site_label_2
_geom_bond_distance
_geom_bond_site_symmetry_2
_ccdc_geom_bond_type
C0 O2 1.247 . S
C0 O4 1.258 1_545 S
C1 O8 1.247 . S
C1 O9 1.258 . S
O2 C0 1.247 . S
O2 Zn3 2.030 . S
Zn3 O2 2.030 . S
Zn3 O7 2.035 1_556 S
Zn3 O9 2.033 1_556 S
Zn3 O10 2.028 1_556 S
O4 C0 1.258 1_565 S
O4 Zn5 2.035 1_566 S
Zn5 O4 2.035 1_544 S
Zn5 O6 2.028 . S
Zn5 O8 2.028 . S
Zn5 O11 2.035 . S
O6 Zn5 2.028 . S
O6 C12 1.247 . S
O7 Zn3 2.035 1_554 S
O7 C12 1.258 . S
O8 C1 1.247 . S
O8 Zn5 2.028 . S
O9 C1 1.258 . S
O9 Zn3 2.033 1_554 S
O10 Zn3 2.028 1_554 S
O10 C13 1.247 . S
O11 Zn5 2.035 . S
O11 C13 1.258 . S
C12 O6 1.247 . S
C12 O7 1.258 . S
C13 O10 1.247 . S
C13 O11 1.258 . S
C14 O16 1.247 . S
C14 O18 1.258 . S
C15 O22 1.247 . S
C15 O23 1.258 . S
O16 C14 1.247 . S
O16 Zn17 2.028 . S
Zn17 O16 2.028 . S
Zn17 O21 2.035 . S
Zn17 O23 2.035 . S
Zn17 O24 2.028 . S
O18 C14 1.258 . S
O18 Zn19 2.035 . S
Zn19 O18 2.035 . S
Zn19 O20 2.028 . S
Zn19 O22 2.028 . S
Zn19 O25 2.035 . S
O20 Zn19 2.028 . S
O20 C26 1.247 . S
O21 Zn17 2.035 . S
O21 C26 1.258 . S
O22 C15 1.247 . S
O22 Zn19 2.028 . S
O23 C15 1.258 . S
O23 Zn17 2.035 . S
O24 Zn17 2.028 . S
O24 C27 1.247 . S
O25 Zn19 2.035 . S
O25 C27 1.258 . S
C26 O20 1.247 . S
C26 O21 1.258 . S
C27 O24 1.247 . S
C27 O25 1.258 . S
C28 O30 1.247 1_455 S
C28 O32 1.258 . S
C29 O36 1.247 1_655 S
C29 O37 1.258 . S
O30 C28 1.247 1_655 S
O30 Zn31 2.028 . S
Zn31 O30 2.028 . S
Zn31 O35 2.035 . S
Zn31 O37 2.035 . S
Zn31 O38 2.028 . S
O32 C28 1.258 . S
O32 Zn33 2.035 . S
Zn33 O32 2.035 . S
Zn33 O34 2.028 . S
Zn33 O36 2.028 . S
Zn33 O39 2.035 . S
O34 Zn33 2.028 . S
O34 C40 1.247 . S
O35 Zn31 2.035 . S
O35 C40 1.258 1_655 S
O36 C29 1.247 1_455 S
O36 Zn33 2.028 . S
O37 C29 1.258 . S
O37 Zn31 2.035 . S
O38 Zn31 2.028 . S
O38 C41 1.247 1_655 S
O39 Zn33 2.035 . S
O39 C41 1.258 . S
C40 O34 1.247 . S
C40 O35 1.258 1_455 S
C41 O38 1.247 1_455 S
C41 O39 1.258 . S
C42 O44 1.247 . S
C42 O46 1.258 1_545 S
C43 O50 1.247 1_545 S
C43 O51 1.258 . S
O44 C42 1.247 . S
O44 Zn45 2.028 . S
Zn45 O44 2.028 . S
Zn45 O49 2.035 . S
Zn45 O51 2.035 . S
Zn45 O52 2.028 1_554 S
O46 C42 1.258 1_565 S
O46 Zn47 2.036 . S
Zn47 O46 2.036 . S
Zn47 O48 2.032 . S
Zn47 O50 2.028 . S
Zn47 O53 2.032 1_554 S
O48 Zn47 2.032 . S
O48 C54 1.247 . S
O49 Zn45 2.035 . S
O49 C54 1.258 1_545 S
O50 C43 1.247 1_565 S
O50 Zn47 2.028 . S
O51 C43 1.258 . S
O51 Zn45 2.035 . S
O52 Zn45 2.028 1_556 S
O52 C55 1.247 . S
O53 Zn47 2.032 1_556 S
O53 C55 1.258 1_565 S
C54 O48 1.247 . S
C54 O49 1.258 1_565 S
C55 O52 1.247 . S
C55 O53 1.258 1_545 S
C56 O58 1.247 . S
C56 O60 1.258 . S
C57 O64 1.247 . S
C57 O65 1.258 . S
O58 C56 1.247 . S
O58 Zn59 2.028 . S
Zn59 O58 2.028 . S
Zn59 O63 2.035 . S
Zn59 O65 2.035 . S
Zn59 O66 2.028 . S
O60 C56 1.258 . S
O60 Zn61 2.035 . S
Zn61 O60 2.035 . S
Zn61 O62 2.028 . S
Zn61 O64 2.028 . S
Zn61 O67 2.035 . S
O62 Zn61 2.028 . S
O62 C68 1.247 . S
O63 Zn59 2.035 . S
O63 C68 1.258 . S
O64 C57 1.247 . S
O64 Zn61 2.028 . S
O65 C57 1.258 . S
O65 Zn59 2.035 . S
O66 Zn59 2.028 . S
O66 C69 1.247 . S
O67 Zn61 2.035 . S
O67 C69 1.258 . S
C68 O62 1.247 . S
C68 O63 1.258 . S
C69 O66 1.247 . S
C69 O67 1.258 . S
C70 O72 1.247 . S
C70 O74 1.258 . S
C71 O78 1.247 . S
C71 O79 1.258 . S
O72 C70 1.247 . S
O72 Zn73 2.028 . S
Zn73 O72 2.028 . S
Zn73 O77 2.035 . S
Zn73 O79 2.035 . S
Zn73 O80 2.028 . S
O74 C70 1.258 . S
O74 Zn75 2.035 . S
Zn75 O74 2.035 . S
Zn75 O76 2.028 . S
Zn75 O78 2.028 . S
Zn75 O81 2.035 . S
O76 Zn75 2.028 . S
O76 C82 1.247 . S
O77 Zn73 2.035 . S
O77 C82 1.258 . S
O78 C71 1.247 . S
O78 Zn75 2.028 . S
O79 C71 1.258 . S
O79 Zn73 2.035 . S
O80 Zn73 2.028 . S
O80 C83 1.247 . S
O81 Zn75 2.035 . S
O81 C83 1.258 . S
C82 O76 1.247 . S
C82 O77 1.258 . S
C83 O80 1.247 . S
C83 O81 1.258 . S
C84 C85 1.363 . S
C84 C90 1.379 . S
C84 N92 1.356 . S
C85 C84 1.363 . S
C85 C91 1.363 . S
C86 C87 1.363 . S
C86 C91 1.379 . S
C86 N93 1.356 . S
C87 C86 1.363 . S
C87 C90 1.363 . S
N88 C90 1.356 . S
N88 H100 0.984 . S
N88 H101 0.985 . S
N89 C91 1.356 . S
N89 H94 0.984 . S
N89 H95 0.985 . S
C90 C84 1.379 . S
C90 C87 1.363 . S
C90 N88 1.356 . S
C91 C85 1.363 . S
C91 C86 1.379 . S
C91 N89 1.356 . S
N92 C84 1.356 . S
N92 H98 0.984 . S
N92 H99 0.984 . S
N93 C86 1.356 . S
N93 H96 0.984 . S
N93 H97 0.985 . S
H94 N89 0.984 . S
H95 N89 0.985 . S
H96 N93 0.984 . S
H97 N93 0.985 . S
H98 N92 0.984 . S
H99 N92 0.984 . S
H100 N88 0.984 . S
H101 N88 0.985 . S
C102 C103 1.363 . S
C102 C108 1.379 . S
C102 N110 1.356 . S
C103 C102 1.363 . S
C103 C109 1.363 . S
C104 C105 1.363 . S
C104 C109 1.379 . S
C104 N111 1.356 . S
C105 C104 1.363 . S
C105 C108 1.363 . S
N106 C108 1.356 . S
N106 H118 0.984 1_455 S
N106 H119 0.985 1_455 S
N107 C109 1.356 . S
N107 H112 0.984 . S
N107 H113 0.985 . S
C108 C102 1.379 . S
C108 C105 1.363 . S
C108 N106 1.356 . S
C109 C103 1.363 . S
C109 C104 1.379 . S
C109 N107 1.356 . S
N110 C102 1.356 . S
N110 H116 0.984 . S
N110 H117 0.984 . S
N111 C104 1.356 . S
N111 H114 0.984 . S
N111 H115 0.985 . S
H112 N107 0.984 . S
H113 N107 0.985 . S
H114 N111 0.984 . S
H115 N111 0.985 . S
H116 N110 0.984 . S
H117 N110 0.984 . S
H118 N106 0.984 1_655 S
H119 N106 0.985 1_655 S
C120 C121 1.363 . S
C120 C126 1.379 . S
C120 N128 1.356 . S
C121 C120 1.363 . S
C121 C127 1.363 . S
C122 C123 1.363 . S
C122 C127 1.379 . S
C122 N129 1.356 . S
C123 C122 1.363 . S
C123 C126 1.363 . S
N124 C126 1.356 . S
N124 H136 0.984 . S
N124 H137 0.985 . S
N125 C127 1.356 . S
N125 H130 0.984 1_545 S
N125 H131 0.985 1_545 S
C126 C120 1.379 . S
C126 C123 1.363 . S
C126 N124 1.356 . S
C127 C121 1.363 . S
C127 C122 1.379 . S
C127 N125 1.356 . S
N128 C120 1.356 . S
N128 H134 0.984 . S
N128 H135 0.984 . S
N129 C122 1.356 . S
N129 H132 0.984 . S
N129 H133 0.985 . S
H130 N125 0.984 1_565 S
H131 N125 0.985 1_565 S
H132 N129 0.984 . S
H133 N129 0.985 . S
H134 N128 0.984 . S
H135 N128 0.984 . S
H136 N124 0.984 . S
H137 N124 0.985 . S
C138 C139 1.363 . S
C138 C144 1.379 . S
C138 N146 1.356 . S
C139 C138 1.363 . S
C139 C145 1.363 . S
C140 C141 1.363 . S
C140 C145 1.379 . S
C140 N147 1.356 . S
C141 C140 1.363 . S
C141 C144 1.363 . S
N142 C144 1.356 . S
N142 H154 0.984 . S
N142 H155 0.985 . S
N143 C145 1.356 1_545 S
N143 H148 0.984 . S
N143 H149 0.985 . S
C144 C138 1.379 . S
C144 C141 1.363 . S
C144 N142 1.356 . S
C145 C139 1.363 . S
C145 C140 1.379 . S
C145 N143 1.356 1_565 S
N146 C138 1.356 . S
N146 H152 0.984 . S
N146 H153 0.984 . S
N147 C140 1.356 . S
N147 H150 0.984 . S
N147 H151 0.985 . S
H148 N143 0.984 . S
H149 N143 0.985 . S
H150 N147 0.984 . S
H151 N147 0.985 . S
H152 N146 0.984 . S
H153 N146 0.984 . S
H154 N142 0.984 . S
H155 N142 0.985 . S
C156 C157 1.363 1_655 S
C156 C162 1.379 . S
C156 N164 1.356 1_655 S
C157 C156 1.363 1_455 S
C157 C163 1.363 1_455 S
C158 C159 1.363 . S
C158 C163 1.379 . S
C158 N165 1.356 . S
C159 C158 1.363 . S
C159 C162 1.363 . S
N160 C162 1.356 . S
N160 H172 0.984 . S
N160 H173 0.985 . S
N161 C163 1.356 1_455 S
N161 H166 0.984 . S
N161 H167 0.984 1_455 S
C162 C156 1.379 . S
C162 C159 1.363 . S
C162 N160 1.356 . S
C163 C157 1.363 1_655 S
C163 C158 1.379 . S
C163 N161 1.356 1_655 S
N164 C156 1.356 1_455 S
N164 H170 0.984 . S
N164 H171 0.984 . S
N165 C158 1.356 . S
N165 H168 0.984 . S
N165 H169 0.985 . S
H166 N161 0.984 . S
H167 N161 0.984 1_655 S
H168 N165 0.984 . S
H169 N165 0.985 . S
H170 N164 0.984 . S
H171 N164 0.984 . S
H172 N160 0.984 . S
H173 N160 0.985 . S
C174 C175 1.363 . S
C174 C180 1.379 . S
C174 N182 1.356 . S
C175 C174 1.363 . S
C175 C181 1.363 1_565 S
C176 C177 1.363 . S
C176 C181 1.379 1_565 S
C176 N183 1.356 . S
C177 C176 1.363 . S
C177 C180 1.363 . S
N178 C180 1.356 . S
N178 H190 0.984 . S
N178 H191 0.985 . S
N179 C181 1.356 . S
N179 H184 0.984 . S
N179 H185 0.985 . S
C180 C174 1.379 . S
C180 C177 1.363 . S
C180 N178 1.356 . S
C181 C175 1.363 1_545 S
C181 C176 1.379 1_545 S
C181 N179 1.356 . S
N182 C174 1.356 . S
N182 H188 0.984 . S
N182 H189 0.984 . S
N183 C176 1.356 . S
N183 H186 0.984 . S
N183 H187 0.985 1_565 S
H184 N179 0.984 . S
H185 N179 0.985 . S
H186 N183 0.984 . S
H187 N183 0.985 1_545 S
H188 N182 0.984 . S
H189 N182 0.984 . S
H190 N178 0.984 . S
H191 N178 0.985 . S
C192 C193 1.363 1_556 S
C192 C198 1.379 . S
C192 N200 1.356 . S
C193 C192 1.363 1_554 S
C193 C199 1.363 . S
C194 C195 1.371 1_455 S
C194 C199 1.378 . S
C194 N201 1.351 1_445 S
C195 C194 1.371 1_655 S
C195 C198 1.363 1_654 S
N196 C198 1.356 1_655 S
N196 H208 0.984 . S
N196 H209 0.985 . S
N197 C199 1.356 . S
N197 H202 0.984 . S
N197 H203 0.985 . S
C198 C192 1.379 . S
C198 C195 1.363 1_456 S
C198 N196 1.356 1_455 S
C199 C193 1.363 . S
C199 C194 1.378 . S
C199 N197 1.356 . S
N200 C192 1.356 . S
N200 H206 0.984 . S
N200 H207 0.984 . S
N201 C194 1.351 1_665 S
N201 H204 0.984 . S
N201 H205 0.985 . S
H202 N197 0.984 . S
H203 N197 0.985 . S
H204 N201 0.984 . S
H205 N201 0.985 . S
H206 N200 0.984 . S
H207 N200 0.984 . S
H208 N196 0.984 . S
H209 N196 0.985 . S
C210 C211 1.363 1_545 S
C210 C216 1.379 . S
C210 N218 1.356 1_445 S
C211 C210 1.363 1_565 S
C211 C217 1.363 1_565 S
C212 C213 1.363 . S
C212 C217 1.379 . S
C212 N219 1.356 . S
C213 C212 1.363 . S
C213 C216 1.363 . S
N214 C216 1.356 . S
N214 H226 0.984 . S
N214 H227 0.985 . S
N215 C217 1.356 1_565 S
N215 H220 0.984 . S
N215 H221 0.985 . S
C216 C210 1.379 . S
C216 C213 1.363 . S
C216 N214 1.356 . S
C217 C211 1.363 1_545 S
C217 C212 1.379 . S
C217 N215 1.356 1_545 S
N218 C210 1.356 1_665 S
N218 H224 0.984 . S
N218 H225 0.984 . S
N219 C212 1.356 . S
N219 H222 0.984 . S
N219 H223 0.985 . S
H220 N215 0.984 . S
H221 N215 0.985 . S
H222 N219 0.984 . S
H223 N219 0.985 . S
H224 N218 0.984 . S
H225 N218 0.984 . S
H226 N214 0.984 . S
H227 N214 0.985 . S
C228 C229 1.363 . S
C228 C234 1.379 . S
C228 N236 1.356 . S
C229 C228 1.363 . S
C229 C235 1.363 . S
C230 C231 1.364 1_565 S
C230 C235 1.374 1_565 S
C230 N237 1.361 . S
C231 C230 1.364 1_545 S
C231 C234 1.363 . S
N232 C234 1.356 . S
N232 H244 0.984 . S
N232 H245 0.985 . S
N233 C235 1.356 1_655 S
N233 H238 0.984 . S
N233 H239 0.985 . S
C234 C228 1.379 . S
C234 C231 1.363 . S
C234 N232 1.356 . S
C235 C229 1.363 . S
C235 C230 1.374 1_545 S
C235 N233 1.356 1_455 S
N236 C228 1.356 . S
N236 H242 0.984 . S
N236 H243 0.984 . S
N237 C230 1.361 . S
N237 H240 0.984 . S
N237 H241 0.985 . S
H238 N233 0.984 . S
H239 N233 0.985 . S
H240 N237 0.984 . S
H241 N237 0.985 . S
H242 N236 0.984 . S
H243 N236 0.984 . S
H244 N232 0.984 . S
H245 N232 0.985 . S
C246 C247 1.363 . S
C246 C252 1.379 . S
C246 N254 1.356 1_545 S
C247 C246 1.363 . S
C247 C253 1.363 1_554 S
C248 C249 1.363 1_556 S
C248 C253 1.379 . S
C248 N255 1.356 . S
C249 C248 1.363 1_554 S
C249 C252 1.363 . S
N250 C252 1.356 . S
N250 H262 0.984 1_545 S
N250 H263 0.985 . S
N251 C253 1.356 . S
N251 H256 0.984 . S
N251 H257 0.985 . S
C252 C246 1.379 . S
C252 C249 1.363 . S
C252 N250 1.356 . S
C253 C247 1.363 1_556 S
C253 C248 1.379 . S
C253 N251 1.356 . S
N254 C246 1.356 1_565 S
N254 H260 0.984 . S
N254 H261 0.984 . S
N255 C248 1.356 . S
N255 H258 0.984 . S
N255 H259 0.985 . S
H256 N251 0.984 . S
H257 N251 0.985 . S
H258 N255 0.984 . S
H259 N255 0.985 . S
H260 N254 0.984 . S
H261 N254 0.984 . S
H262 N250 0.984 1_565 S
H263 N250 0.985 . S
C264 C265 1.363 . S
C264 C270 1.379 . S
C264 N272 1.356 . S
C265 C264 1.363 . S
C265 C271 1.363 . S
C266 C267 1.363 . S
C266 C271 1.379 . S
C266 N273 1.356 . S
C267 C266 1.363 . S
C267 C270 1.363 . S
N268 C270 1.356 . S
N268 H280 0.984 . S
N268 H281 0.985 . S
N269 C271 1.356 . S
N269 H274 0.984 . S
N269 H275 0.985 . S
C270 C264 1.379 . S
C270 C267 1.363 . S
C270 N268 1.356 . S
C271 C265 1.363 . S
C271 C266 1.379 . S
C271 N269 1.356 . S
N272 C264 1.356 . S
N272 H278 0.984 . S
N272 H279 0.984 . S
N273 C266 1.356 . S
N273 H276 0.984 . S
N273 H277 0.985 . S
H274 N269 0.984 . S
H275 N269 0.985 . S
H276 N273 0.984 . S
H277 N273 0.985 . S
H278 N272 0.984 . S
H279 N272 0.984 . S
H280 N268 0.984 . S
H281 N268 0.985 . S
C282 C283 1.363 . S
C282 C288 1.379 . S
C282 N290 1.356 . S
C283 C282 1.363 . S
C283 C289 1.363 . S
C284 C285 1.363 . S
C284 C289 1.379 . S
C284 N291 1.356 . S
C285 C284 1.363 . S
C285 C288 1.363 . S
N286 C288 1.356 1_655 S
N286 H298 0.984 . S
N286 H299 0.985 . S
N287 C289 1.356 . S
N287 H292 0.984 . S
N287 H293 0.985 . S
C288 C282 1.379 . S
C288 C285 1.363 . S
C288 N286 1.356 1_455 S
C289 C283 1.363 . S
C289 C284 1.379 . S
C289 N287 1.356 . S
N290 C282 1.356 . S
N290 H296 0.984 1_455 S
N290 H297 0.984 . S
N291 C284 1.356 . S
N291 H294 0.984 . S
N291 H295 0.985 . S
H292 N287 0.984 . S
H293 N287 0.985 . S
H294 N291 0.984 . S
H295 N291 0.985 . S
H296 N290 0.984 1_655 S
H297 N290 0.984 . S
H298 N286 0.984 . S
H299 N286 0.985 . S
C85 C1 1.709 . S
C87 C27 1.671 . S
C103 C26 1.708 . S
C105 C28 1.672 . S
C121 C55 1.671 . S
C123 C29 1.709 . S
C139 C54 1.708 . S
C141 C68 1.672 . S
C157 C83 1.671 . S
C159 C69 1.709 . S
C175 C0 1.672 1_565 S
C177 C82 1.708 . S
C193 C12 1.263 . S
C195 C43 1.264 . S
C211 C56 1.262 1_455 S
C213 C15 1.264 . S
C229 C40 1.262 . S
C231 C71 1.264 1_545 S
C247 C42 1.575 . S
C249 C13 1.576 . S
C265 C57 1.577 . S
C267 C14 1.575 . S
C283 C70 1.575 . S
C285 C41 1.576 . S
