# Generated by pormake.
# Topology qtz-e, (6)-cn, num edge types: 1
# Building blocks:
#     Node 0, Type 0, BuildingBlock: GEDQOX_clean_sbu_0, # of connection points: 6
#     Node 1, Type 0, BuildingBlock: GEDQOX_clean_sbu_0, # of connection points: 6
#     Node 2, Type 0, BuildingBlock: GEDQOX_clean_sbu_0, # of connection points: 6
#     Node 3, Type 0, BuildingBlock: GEDQOX_clean_sbu_0, # of connection points: 6
#     Node 4, Type 0, BuildingBlock: GEDQOX_clean_sbu_0, # of connection points: 6
#     Node 5, Type 0, BuildingBlock: GEDQOX_clean_sbu_0, # of connection points: 6
#     Edge 6, Type (0, 0), BuildingBlock: XUDNAN_clean_linker_2, # of connection points: 2
#     Edge 7, Type (0, 0), BuildingBlock: XUDNAN_clean_linker_2, # of connection points: 2
#     Edge 8, Type (0, 0), BuildingBlock: XUDNAN_clean_linker_2, # of connection points: 2
#     Edge 9, Type (0, 0), BuildingBlock: XUDNAN_clean_linker_2, # of connection points: 2
#     Edge 10, Type (0, 0), BuildingBlock: XUDNAN_clean_linker_2, # of connection points: 2
#     Edge 11, Type (0, 0), BuildingBlock: XUDNAN_clean_linker_2, # of connection points: 2
#     Edge 12, Type (0, 0), BuildingBlock: XUDNAN_clean_linker_2, # of connection points: 2
#     Edge 13, Type (0, 0), BuildingBlock: XUDNAN_clean_linker_2, # of connection points: 2
#     Edge 14, Type (0, 0), BuildingBlock: XUDNAN_clean_linker_2, # of connection points: 2
#     Edge 15, Type (0, 0), BuildingBlock: XUDNAN_clean_linker_2, # of connection points: 2
#     Edge 16, Type (0, 0), BuildingBlock: XUDNAN_clean_linker_2, # of connection points: 2
#     Edge 17, Type (0, 0), BuildingBlock: XUDNAN_clean_linker_2, # of connection points: 2
#     Edge 18, Type (0, 0), BuildingBlock: XUDNAN_clean_linker_2, # of connection points: 2
#     Edge 19, Type (0, 0), BuildingBlock: XUDNAN_clean_linker_2, # of connection points: 2
#     Edge 20, Type (0, 0), BuildingBlock: XUDNAN_clean_linker_2, # of connection points: 2
#     Edge 21, Type (0, 0), BuildingBlock: XUDNAN_clean_linker_2, # of connection points: 2
#     Edge 22, Type (0, 0), BuildingBlock: XUDNAN_clean_linker_2, # of connection points: 2
#     Edge 23, Type (0, 0), BuildingBlock: XUDNAN_clean_linker_2, # of connection points: 2
# Relax obj value: 0.085
# Max RMSD: 0.171
# Mean RMSD: 0.171
data_MOF--net-qtz-e--node1-GEDQOX_clean_sbu_0--edge1-XUDNAN_clean_linker_2
_symmetry_space_group_name_H-M    P1
_symmetry_Int_Tables_number       1
_symmetry_cell_setting            triclinic
loop_
_symmetry_equiv_pos_as_xyz
'x, y, z'
_cell_length_a     26.216375
_cell_length_b     26.122829
_cell_length_c     52.08049
_cell_angle_alpha  90.404265
_cell_angle_beta   89.579376
_cell_angle_gamma 119.70786
loop_
_atom_site_label
_atom_site_type_symbol
_atom_site_fract_x
_atom_site_fract_y
_atom_site_fract_z
_atom_type_partial_charge
Nd0 Nd 0.16824 0.38681 0.06152 0.0
Nd1 Nd 0.26461 0.50745 0.04559 0.0
C2 C 0.07684 0.2988 0.08519 0.0
C3 C 0.05361 0.28756 0.11196 0.0
C4 C 0.01942 0.22947 0.12063 0.0
C5 C -0.00102 0.21787 0.14608 0.0
C6 C 0.01214 0.26413 0.16363 0.0
C7 C 0.0456 0.32249 0.15474 0.0
C8 C 0.06637 0.33402 0.12926 0.0
C9 C 0.27961 0.42224 0.08004 0.0
C10 C 0.19242 0.50267 0.09496 0.0
C11 C 0.3632 0.59719 0.02855 0.0
C12 C 0.38061 0.61647 1.00201 0.0
C13 C 0.33847 0.59072 0.98259 0.0
C14 C 0.35241 0.61064 0.95743 0.0
C15 C 0.40894 0.65618 0.95119 0.0
C16 C 0.45208 0.68013 0.97038 0.0
C17 C 0.43781 0.66055 0.99579 0.0
C18 C 0.15787 0.48398 0.02818 0.0
C19 C 0.22972 0.38935 1.00847 0.0
O20 O 0.07371 0.34012 0.07247 0.0
O21 O 0.12674 0.30002 0.08139 0.0
O22 O 0.24702 0.3714 0.06931 0.0
O23 O 0.25438 0.45201 0.07942 0.0
O24 O 0.15229 0.45307 0.08448 0.0
O25 O 0.24704 0.52878 0.08639 0.0
O26 O 0.35777 0.54601 0.03408 0.0
O27 O 0.31909 0.60266 0.0371 0.0
O28 O 0.19938 0.53609 0.03444 0.0
O29 O 0.17466 0.44617 0.02879 0.0
O30 O 0.27072 0.4418 1.01686 0.0
O31 O 0.17866 0.35974 1.02054 0.0
H32 H 0.00887 0.19285 0.10773 0.0
H33 H 0.97268 0.17238 0.15201 0.0
H34 H 0.05716 0.3593 0.16765 0.0
H35 H 0.09306 0.37927 0.12319 0.0
H36 H 0.29427 0.55607 0.98704 0.0
H37 H 0.31868 0.59117 0.94287 0.0
H38 H 0.49592 0.71537 0.9659 0.0
H39 H 0.47088 0.68047 1.01059 0.0
Nd40 Nd 0.78498 0.1611 0.39457 0.0
Nd41 Nd 0.75926 0.25304 0.3716 0.0
C42 C 0.78097 0.07144 0.4199 0.0
C43 C 0.76612 0.04698 0.44643 0.0
C44 C 0.70763 0.01607 0.45539 0.0
C45 C 0.69445 0.99066 0.47996 0.0
C46 C 0.73935 -0.00466 0.49618 0.0
C47 C 0.79786 0.0279 0.48741 0.0
C48 C 0.81096 0.05296 0.46288 0.0
C49 C 0.85092 0.27606 0.4121 0.0
C50 C 0.68505 0.18534 0.42165 0.0
C51 C 0.77333 0.35261 0.35316 0.0
C52 C 0.77411 0.36926 0.32646 0.0
C53 C 0.77869 0.42335 0.32009 0.0
C54 C 0.77126 0.43475 0.29461 0.0
C55 C 0.75844 0.39167 0.27559 0.0
C56 C 0.75666 0.33878 0.28194 0.0
C57 C 0.76467 0.32773 0.30721 0.0
C58 C 0.68054 0.14365 0.35585 0.0
C59 C 0.845 0.21355 0.33929 0.0
O60 O 0.73805 0.06669 0.40556 0.0
O61 O 0.82923 0.12203 0.41692 0.0
O62 O 0.87462 0.24395 0.4065 0.0
O63 O 0.79725 0.24722 0.40822 0.0
O64 O 0.70291 0.14693 0.41712 0.0
O65 O 0.70779 0.23575 0.40914 0.0
O66 O 0.81758 0.3458 0.36002 0.0
O67 O 0.72245 0.30958 0.3608 0.0
O68 O 0.66965 0.18688 0.3574 0.0
O69 O 0.73453 0.16015 0.35899 0.0
O70 O 0.82843 0.25337 0.34324 0.0
O71 O 0.82923 0.16892 0.35532 0.0
H72 H 0.67181 0.01058 0.4433 0.0
H73 H 0.64889 0.96575 0.48588 0.0
H74 H 0.83388 0.03382 0.49946 0.0
H75 H 0.85642 0.07659 0.45667 0.0
H76 H 0.78585 0.45563 0.33486 0.0
H77 H 0.7727 0.4758 0.28996 0.0
H78 H 0.74739 0.30533 0.26745 0.0
H79 H 0.761 0.28568 0.31192 0.0
Nd80 Nd 0.61329 0.79166 0.72778 0.0
Nd81 Nd 0.50215 0.79034 0.71197 0.0
C82 C 0.69131 0.77204 0.75132 0.0
C83 C 0.70305 0.76141 0.77819 0.0
C84 C 0.67325 0.70477 0.78915 0.0
C85 C 0.68627 0.69505 0.81414 0.0
C86 C 0.72966 0.74163 0.82879 0.0
C87 C 0.75848 0.7984 0.81794 0.0
C88 C 0.74561 0.80806 0.79299 0.0
C89 C 0.61689 0.89868 0.7284 0.0
C90 C 0.51152 0.76937 0.77109 0.0
C91 C 0.42297 0.80991 0.69011 0.0
C92 C 0.40309 0.80284 0.66312 0.0
C93 C 0.42967 0.85041 0.64592 0.0
C94 C 0.41751 0.8416 0.61966 0.0
C95 C 0.37854 0.78504 0.61011 0.0
C96 C 0.34949 0.73829 0.62748 0.0
C97 C 0.36147 0.74709 0.65369 0.0
C98 C 0.49054 0.68084 0.71272 0.0
C99 C 0.60651 0.81784 0.66841 0.0
O100 O 0.64437 0.73051 0.74007 0.0
O101 O 0.70056 0.82481 0.74591 0.0
O102 O 0.65845 0.89186 0.71815 0.0
O103 O 0.57679 0.85069 0.73679 0.0
O104 O 0.55263 0.75716 0.76361 0.0
O105 O 0.49078 0.7936 0.75517 0.0
O106 O 0.47688 0.85139 0.69444 0.0
O107 O 0.4094 0.76151 0.70261 0.0
O108 O 0.4499 0.69251 0.71965 0.0
O109 O 0.53569 0.72612 0.70424 0.0
O110 O 0.56045 0.82267 0.6754 0.0
O111 O 0.63178 0.7984 0.68455 0.0
H112 H 0.64034 0.66764 0.77832 0.0
H113 H 0.66348 0.65064 0.82167 0.0
H114 H 0.79132 0.83566 0.82871 0.0
H115 H 0.76946 0.85222 0.78523 0.0
H116 H 0.4615 0.89404 0.65262 0.0
H117 H 0.4403 0.87856 0.60674 0.0
H118 H 0.31801 0.69455 0.62076 0.0
H119 H 0.33949 0.70961 0.6664 0.0
Nd120 Nd 0.80469 0.60895 0.06079 0.0
Nd121 Nd 0.69544 0.50095 0.0413 0.0
C122 C 0.9027 0.67767 0.08653 0.0
C123 C 0.92231 0.68721 0.11391 0.0
C124 C 0.96403 0.67198 0.12223 0.0
C125 C 0.98503 0.68335 0.14758 0.0
C126 C 0.96528 0.71082 0.16528 0.0
C127 C 0.92236 0.72456 0.15708 0.0
C128 C 0.90118 0.71295 0.13182 0.0
C129 C 0.70144 0.61129 0.06631 0.0
C130 C 0.72734 0.49706 0.0993 0.0
C131 C 0.59725 0.42392 1.01865 0.0
C132 C 0.58458 0.40235 0.9921 0.0
C133 C 0.54628 0.34246 0.98725 0.0
C134 C 0.53995 0.32023 0.9623 0.0
C135 C 0.57174 0.35778 0.9419 0.0
C136 C 0.60859 0.41809 0.94671 0.0
C137 C 0.61522 0.44014 0.97162 0.0
C138 C 0.79344 0.49093 0.03691 0.0
C139 C 0.77064 0.6153 1.00253 0.0
O140 O 0.89169 0.62781 0.07581 0.0
O141 O 0.86539 0.69446 0.07953 0.0
O142 O 0.75083 0.6582 0.06091 0.0
O143 O 0.70884 0.56838 0.0704 0.0
O144 O 0.77988 0.53951 0.09248 0.0
O145 O 0.68184 0.4801 0.08403 0.0
O146 O 0.61258 0.47926 0.02218 0.0
O147 O 0.63016 0.40845 0.03138 0.0
O148 O 0.74212 0.44823 0.04303 0.0
O149 O 0.79239 0.5379 0.03206 0.0
O150 O 0.71969 0.56876 1.00856 0.0
O151 O 0.81575 0.63628 1.01847 0.0
H152 H 0.98128 0.65214 0.10895 0.0
H153 H 0.01826 0.67244 0.15305 0.0
H154 H 0.90522 0.74474 0.17022 0.0
H155 H 0.86873 0.72489 0.12628 0.0
H156 H 0.52264 0.31265 1.00286 0.0
H157 H 0.51075 0.27362 0.95898 0.0
H158 H 0.63402 0.4478 0.93136 0.0
H159 H 0.64573 0.48637 0.97494 0.0
Nd160 Nd 0.19664 0.80998 0.39459 0.0
Nd161 Nd 0.20119 0.70176 0.37553 0.0
C162 C 0.21861 0.91036 0.41718 0.0
C163 C 0.22765 0.93461 0.44379 0.0
C164 C 0.27103 0.93594 0.45997 0.0
C165 C 0.27758 0.9575 0.48521 0.0
C166 C 0.24111 0.97859 0.49502 0.0
C167 C 0.19886 0.97867 0.47841 0.0
C168 C 0.19215 0.95683 0.45324 0.0
C169 C 0.10201 0.70258 0.40745 0.0
C170 C 0.25658 0.74992 0.43093 0.0
C171 C 0.17533 0.59855 0.35575 0.0
C172 C 0.15907 0.57366 0.3297 0.0
C173 C 0.11211 0.57342 0.31678 0.0
C174 C 0.10318 0.55924 0.29076 0.0
C175 C 0.14124 0.54561 0.27701 0.0
C176 C 0.18562 0.54177 0.29045 0.0
C177 C 0.19447 0.55576 0.31656 0.0
C178 C 0.30169 0.80452 0.36675 0.0
C179 C 0.14631 0.76492 0.33754 0.0
O180 O 0.25947 0.90124 0.40725 0.0
O181 O 0.16565 0.86848 0.41137 0.0
O182 O 0.09618 0.7471 0.40065 0.0
O183 O 0.15491 0.71667 0.40786 0.0
O184 O 0.25445 0.79785 0.42468 0.0
O185 O 0.23094 0.70177 0.41664 0.0
O186 O 0.1371 0.60825 0.36798 0.0
O187 O 0.22932 0.64176 0.35835 0.0
O188 O 0.30024 0.75605 0.37334 0.0
O189 O 0.2508 0.79768 0.36348 0.0
O190 O 0.14837 0.7168 0.34359 0.0
O191 O 0.16898 0.81155 0.35292 0.0
H192 H 0.29978 0.92 0.45321 0.0
H193 H 0.31064 0.95651 0.49714 0.0
H194 H 0.17098 -0.00394 0.48469 0.0
H195 H 0.15894 0.95723 0.44111 0.0
H196 H 0.08374 0.58673 0.32639 0.0
H197 H 0.06824 0.56203 0.28121 0.0
H198 H 0.21459 0.52948 0.28067 0.0
H199 H 0.23055 0.55504 0.32624 0.0
Nd200 Nd 0.36076 0.17584 0.7311 0.0
Nd201 Nd 0.47729 0.19747 0.70627 0.0
C202 C 0.28162 0.18349 0.76084 0.0
C203 C 0.2796 0.20614 0.78699 0.0
C204 C 0.32814 0.25667 0.79711 0.0
C205 C 0.32619 0.27636 0.82206 0.0
C206 C 0.27601 0.24584 0.83781 0.0
C207 C 0.22702 0.1959 0.82742 0.0
C208 C 0.22889 0.17628 0.80235 0.0
C209 C 0.3813 0.08274 0.73063 0.0
C210 C 0.48373 0.22958 0.76467 0.0
C211 C 0.55837 0.18844 0.67956 0.0
C212 C 0.56743 0.18495 0.65169 0.0
C213 C 0.5476 0.12992 0.63966 0.0
C214 C 0.54921 0.12576 0.61293 0.0
C215 C 0.57094 0.17661 0.59775 0.0
C216 C 0.59363 0.23183 0.60988 0.0
C217 C 0.59191 0.23598 0.63652 0.0
C218 C 0.46244 0.29365 0.7073 0.0
C219 C 0.35449 0.14047 0.67124 0.0
O220 O 0.31269 0.2223 0.74321 0.0
O221 O 0.28783 0.13685 0.75975 0.0
O222 O 0.33024 0.07635 0.72498 0.0
O223 O 0.41731 0.1353 0.73583 0.0
O224 O 0.43515 0.23177 0.76024 0.0
O225 O 0.50424 0.20634 0.74792 0.0
O226 O 0.51233 0.14312 0.6895 0.0
O227 O 0.56578 0.23874 0.68843 0.0
O228 O 0.51296 0.29663 0.71025 0.0
O229 O 0.4225 0.24174 0.70231 0.0
O230 O 0.40873 0.15032 0.67433 0.0
O231 O 0.32642 0.15222 0.68965 0.0
H232 H 0.36784 0.28084 0.7858 0.0
H233 H 0.36423 0.31581 0.82903 0.0
H234 H 0.18775 0.17099 0.83889 0.0
H235 H 0.19083 0.13718 0.79505 0.0
H236 H 0.52923 0.08989 0.65087 0.0
H237 H 0.53166 0.08262 0.60413 0.0
H238 H 0.61227 0.272 0.59873 0.0
H239 H 0.60843 0.27917 0.64513 0.0
H240 H 0.23204 0.58232 0.24238 0.0
H241 H 0.04172 0.49665 0.24707 0.0
H242 H 0.03632 0.49102 0.19986 0.0
H243 H 0.25112 0.66535 0.18382 0.0
H244 H 0.30906 0.6534 0.1718 0.0
H245 H 0.29873 0.65645 0.20592 0.0
H246 H 0.28928 0.55345 0.2114 0.0
H247 H 0.30065 0.55066 0.17744 0.0
H248 H 0.23603 0.49233 0.19255 0.0
H249 H 0.05094 0.48859 0.15265 0.0
H250 H 0.08339 0.47994 0.10913 0.0
H251 H 0.26398 0.56406 0.13515 0.0
C252 C 0.18907 0.56192 0.2336 0.0
C253 C 0.13728 0.53981 0.24859 0.0
C254 C 0.08212 0.51449 0.23611 0.0
C255 C 0.07859 0.51124 0.20926 0.0
C256 C 0.13058 0.53362 0.19516 0.0
C257 C 0.18472 0.55795 0.20689 0.0
C258 C 0.23362 0.57444 0.18747 0.0
C259 C 0.27561 0.6414 0.18724 0.0
C260 C 0.26682 0.54069 0.19251 0.0
C261 C 0.19834 0.55395 0.16297 0.0
C262 C 0.13909 0.53163 0.16782 0.0
C263 C 0.09722 0.50652 0.14856 0.0
C264 C 0.11612 0.50191 0.12391 0.0
C265 C 0.17621 0.52162 0.11884 0.0
C266 C 0.21802 0.54987 0.13839 0.0
H267 H 0.59829 0.10788 0.56669 0.0
H268 H 0.54088 0.23769 0.56468 0.0
H269 H 0.54614 0.23873 0.51755 0.0
H270 H 0.70352 0.16955 0.52093 0.0
H271 H 0.6921 0.10233 0.50586 0.0
H272 H 0.6721 0.10183 0.53893 0.0
H273 H 0.56637 0.01948 0.52908 0.0
H274 H 0.58577 0.01981 0.49577 0.0
H275 H 0.52479 0.03024 0.50438 0.0
H276 H 0.57304 0.23941 0.47242 0.0
H277 H 0.62299 0.24153 0.43187 0.0
H278 H 0.66198 0.1102 0.46196 0.0
C279 C 0.58499 0.13501 0.55625 0.0
C280 C 0.56905 0.17261 0.56934 0.0
C281 C 0.55373 0.2089 0.55506 0.0
C282 C 0.55581 0.20924 0.52826 0.0
C283 C 0.57308 0.17286 0.51593 0.0
C284 C 0.58719 0.13611 0.52937 0.0
C285 C 0.61152 0.1071 0.51158 0.0
C286 C 0.67348 0.12112 0.51982 0.0
C287 C 0.56958 0.04019 0.51011 0.0
C288 C 0.61273 0.1367 0.48646 0.0
C289 C 0.58876 0.17312 0.4893 0.0
C290 C 0.59066 0.21004 0.46969 0.0
C291 C 0.61938 0.21119 0.44678 0.0
C292 C 0.64602 0.17588 0.44376 0.0
C293 C 0.64088 0.13676 0.46354 0.0
H294 H 0.49514 0.66814 0.91721 0.0
H295 H 0.34776 0.69869 0.92638 0.0
H296 H 0.36095 0.73453 0.88181 0.0
H297 H 0.58441 0.79478 0.8752 0.0
H298 H 0.60974 0.75463 0.85557 0.0
H299 H 0.59195 0.73566 0.88888 0.0
H300 H 0.51935 0.62795 0.87579 0.0
H301 H 0.53674 0.64685 0.84247 0.0
H302 H 0.46153 0.61304 0.85333 0.0
H303 H 0.38658 0.76317 0.83656 0.0
H304 H 0.42287 0.78239 0.79198 0.0
H305 H 0.55247 0.731 0.81089 0.0
C306 C 0.46646 0.68335 0.90983 0.0
C307 C 0.42056 0.68102 0.92507 0.0
C308 C 0.38303 0.70017 0.91485 0.0
C309 C 0.39029 0.7207 0.88965 0.0
C310 C 0.43518 0.7216 0.87492 0.0
C311 C 0.47274 0.7035 0.8845 0.0
C312 C 0.51539 0.70627 0.86394 0.0
C313 C 0.57914 0.7505 0.87134 0.0
C314 C 0.50773 0.64486 0.85857 0.0
C315 C 0.49528 0.72818 0.84138 0.0
C316 C 0.44932 0.73713 0.84829 0.0
C317 C 0.4227 0.75659 0.83085 0.0
C318 C 0.44359 0.76729 0.80556 0.0
C319 C 0.49036 0.75808 0.79791 0.0
C320 C 0.51653 0.73834 0.81613 0.0
H321 H 0.82247 0.48229 0.24252 0.0
H322 H 0.65847 0.31775 0.25037 0.0
H323 H 0.63109 0.32801 0.20619 0.0
H324 H 0.76686 0.55905 0.20383 0.0
H325 H 0.8318 0.59455 0.18397 0.0
H326 H 0.83722 0.57588 0.21667 0.0
H327 H 0.88659 0.51657 0.20104 0.0
H328 H 0.88124 0.53505 0.16832 0.0
H329 H 0.85007 0.45888 0.1775 0.0
H330 H 0.62176 0.35543 0.16152 0.0
H331 H 0.63301 0.39689 0.11796 0.0
H332 H 0.80472 0.54149 0.13892 0.0
C333 C 0.78063 0.44894 0.2349 0.0
C334 C 0.74233 0.39937 0.24957 0.0
C335 C 0.68826 0.35587 0.23914 0.0
C336 C 0.67231 0.36142 0.21422 0.0
C337 C 0.71119 0.41052 0.20007 0.0
C338 C 0.76436 0.45344 0.20992 0.0
C339 C 0.79914 0.50048 0.19024 0.0
C340 C 0.8093 0.56106 0.19922 0.0
C341 C 0.85769 0.50281 0.1839 0.0
C342 C 0.75712 0.47704 0.16786 0.0
C343 C 0.7065 0.42545 0.17397 0.0
C344 C 0.66118 0.3958 0.15641 0.0
C345 C 0.66789 0.4196 0.13179 0.0
C346 C 0.71974 0.47202 0.1251 0.0
C347 C 0.76473 0.50098 0.14341 0.0
H348 H 0.36175 0.852 0.57432 0.0
H349 H 0.37347 0.69298 0.58279 0.0
H350 H 0.35108 0.67051 0.53679 0.0
H351 H 0.24237 0.79231 0.53392 0.0
H352 H 0.26513 0.85499 0.51336 0.0
H353 H 0.28997 0.86563 0.54609 0.0
H354 H 0.39795 0.922 0.53217 0.0
H355 H 0.37677 0.91463 0.49891 0.0
H356 H 0.4258 0.88941 0.50943 0.0
H357 H 0.31911 0.66081 0.49096 0.0
H358 H 0.28075 0.66538 0.44834 0.0
H359 H 0.29155 0.83134 0.46975 0.0
C360 C 0.36087 0.81315 0.56637 0.0
C361 C 0.36903 0.77406 0.58213 0.0
C362 C 0.36648 0.72308 0.57111 0.0
C363 C 0.35432 0.71021 0.54497 0.0
C364 C 0.34533 0.74901 0.53006 0.0
C365 C 0.34884 0.79965 0.5403 0.0
C366 C 0.33365 0.83201 0.52049 0.0
C367 C 0.27963 0.83652 0.52898 0.0
C368 C 0.38668 0.89313 0.51493 0.0
C369 C 0.31983 0.79094 0.49771 0.0
C370 C 0.32726 0.74357 0.50355 0.0
C371 C 0.31391 0.69812 0.48601 0.0
C372 C 0.29198 0.70101 0.46189 0.0
C373 C 0.28359 0.74896 0.45561 0.0
C374 C 0.2984 0.79465 0.47374 0.0
H375 H 0.5569 0.40162 0.89682 0.0
H376 H 0.57849 0.26024 0.9283 0.0
H377 H 0.57144 0.21952 0.88468 0.0
H378 H 0.45035 0.31668 0.85108 0.0
H379 H 0.47775 0.3748 0.82771 0.0
H380 H 0.48985 0.39275 0.86134 0.0
H381 H 0.60247 0.4537 0.85047 0.0
H382 H 0.58813 0.43102 0.81729 0.0
H383 H 0.63781 0.4168 0.83562 0.0
H384 H 0.55595 0.19083 0.83854 0.0
H385 H 0.52211 0.16987 0.79353 0.0
H386 H 0.50511 0.32666 0.7926 0.0
C387 C 0.56118 0.3627 0.89441 0.0
C388 C 0.56828 0.33398 0.91579 0.0
C389 C 0.57257 0.28251 0.9121 0.0
C390 C 0.56936 0.25955 0.88742 0.0
C391 C 0.56209 0.28877 0.86672 0.0
C392 C 0.55773 0.33905 0.86994 0.0
C393 C 0.54467 0.35887 0.84482 0.0
C394 C 0.48724 0.36102 0.84638 0.0
C395 C 0.59636 0.41865 0.83656 0.0
C396 C 0.5386 0.30975 0.82732 0.0
C397 C 0.55107 0.27104 0.84012 0.0
C398 C 0.54654 0.22102 0.82824 0.0
C399 C 0.5273 0.20946 0.80277 0.0
C400 C 0.51114 0.24676 0.78994 0.0
C401 C 0.51752 0.2978 0.80218 0.0
H402 H 0.36112 0.43878 0.04362 0.0
H403 H 0.34026 0.47487 0.12307 0.0
H404 H 0.4481 0.53858 0.12696 0.0
H405 H 0.49971 0.43958 0.04656 0.0
H406 H 0.51786 0.47528 1.01547 0.0
H407 H 0.44287 0.4299 0.02451 0.0
H408 H 0.43758 0.52505 1.01175 0.0
H409 H 0.51605 0.5695 1.0086 0.0
H410 H 0.47749 0.59103 0.03098 0.0
H411 H 0.5578 0.59491 0.12242 0.0
H412 H 0.66229 0.63466 0.11054 0.0
H413 H 0.61144 0.57252 0.03262 0.0
C414 C 0.3797 0.45913 0.06193 0.0
C415 C 0.3433 0.45074 0.08333 0.0
C416 C 0.36818 0.47982 0.10674 0.0
C417 C 0.42906 0.51663 0.10897 0.0
C418 C 0.46389 0.5255 0.08728 0.0
C419 C 0.4401 0.49805 0.06413 0.0
C420 C 0.48696 0.51628 0.04356 0.0
C421 C 0.48703 0.46204 0.03197 0.0
C422 C 0.4789 0.55259 0.0225 0.0
C423 C 0.54143 0.5548 0.05928 0.0
C424 C 0.52695 0.56072 0.0843 0.0
C425 C 0.56975 0.59165 0.10279 0.0
C426 C 0.62892 0.61482 0.09585 0.0
C427 C 0.6444 0.6074 0.07064 0.0
C428 C 0.60033 0.57907 0.05194 0.0
H429 H 0.11468 0.60765 0.41743 0.0
H430 H 0.98314 0.66083 0.40829 0.0
H431 H 0.90486 0.55687 0.41381 0.0
H432 H 0.04547 0.48349 0.37907 0.0
H433 H 0.06366 0.43652 0.39744 0.0
H434 H 0.11135 0.51489 0.39825 0.0
H435 H 0.10446 0.51926 0.4472 0.0
H436 H 0.05929 0.44012 0.44763 0.0
H437 H 0.03349 0.4855 0.46266 0.0
H438 H 0.84244 0.44856 0.41871 0.0
H439 H 0.79758 0.34129 0.41705 0.0
H440 H 0.97009 0.35621 0.41723 0.0
C441 C 0.06938 0.59756 0.41675 0.0
C442 C 0.05463 0.64203 0.41236 0.0
C443 C -0.00492 0.62727 0.41169 0.0
C444 C 0.95057 0.56853 0.41489 0.0
C445 C 0.96676 0.52555 0.41848 0.0
C446 C 0.02471 0.5392 0.41913 0.0
C447 C 0.03034 0.48417 0.42056 0.0
C448 C 0.06467 0.47954 0.39742 0.0
C449 C 0.05856 0.48215 0.44603 0.0
C450 C 0.9663 0.4371 0.41967 0.0
C451 C 0.9306 0.46227 0.41937 0.0
C452 C 0.86992 0.42843 0.41879 0.0
C453 C 0.84495 0.36731 0.41779 0.0
C454 C 0.88046 0.34033 0.41647 0.0
C455 C 0.94201 0.37567 0.41797 0.0
H456 H 0.42733 0.04179 0.76503 0.0
H457 H 0.38615 0.03506 0.68433 0.0
H458 H 0.4566 0.0001 0.67414 0.0
H459 H 0.57489 0.09319 0.76073 0.0
H460 H 0.57914 0.04687 0.78514 0.0
H461 H 0.52202 0.06604 0.78659 0.0
H462 H 0.44074 0.9559 0.78696 0.0
H463 H 0.49766 0.93647 0.78743 0.0
H464 H 0.44213 0.90662 0.76291 0.0
H465 H 0.54705 0.98514 0.67297 0.0
H466 H 0.61301 0.94451 0.68172 0.0
H467 H 0.58672 0.95413 0.76336 0.0
C468 C 0.4315 0.03066 0.74533 0.0
C469 C 0.40171 0.0408 0.72543 0.0
C470 C 0.40824 0.02655 0.69982 0.0
C471 C 0.44914 0.00813 0.69385 0.0
C472 C 0.48198 0.00373 0.71383 0.0
C473 C 0.47086 0.01118 0.73918 0.0
C474 C 0.50848 -0.00038 0.75738 0.0
C475 C 0.54848 0.05473 0.77339 0.0
C476 C 0.46998 0.94649 0.77468 0.0
C477 C 0.54367 0.98571 0.73836 0.0
C478 C 0.52948 0.9903 0.71328 0.0
C479 C 0.55749 0.9802 0.69254 0.0
C480 C 0.59584 0.95834 0.69765 0.0
C481 C 0.60453 0.94641 0.7232 0.0
C482 C 0.58108 0.96364 0.74369 0.0
H483 H 0.56651 0.63681 0.71312 0.0
H484 H 0.38352 0.58726 0.70334 0.0
H485 H 0.357 0.48304 0.69926 0.0
H486 H 0.56815 0.52632 0.67026 0.0
H487 H 0.61463 0.51242 0.69102 0.0
H488 H 0.62028 0.58402 0.69089 0.0
H489 H 0.60202 0.57711 0.74004 0.0
H490 H 0.59593 0.50535 0.74032 0.0
H491 H 0.53705 0.51495 0.75299 0.0
H492 H 0.34916 0.3844 0.69768 0.0
H493 H 0.36091 0.29623 0.69946 0.0
H494 H 0.54769 0.40845 0.71273 0.0
C495 C 0.52115 0.60399 0.70975 0.0
C496 C 0.4771 0.61982 0.70841 0.0
C497 C 0.41791 0.57582 0.70442 0.0
C498 C 0.40238 0.51656 0.70203 0.0
C499 C 0.44649 0.50201 0.70398 0.0
C500 C 0.50463 0.54424 0.70785 0.0
C501 C 0.54261 0.51604 0.71091 0.0
C502 C 0.58916 0.53588 0.68948 0.0
C503 C 0.57106 0.52915 0.73765 0.0
C504 C 0.49668 0.4516 0.70805 0.0
C505 C 0.4416 0.44456 0.70393 0.0
C506 C 0.39205 0.38918 0.70087 0.0
C507 C 0.39905 0.33946 0.70197 0.0
C508 C 0.45505 0.34575 0.70628 0.0
C509 C 0.50433 0.40249 0.7094 0.0
H510 H 0.12331 0.56503 0.02391 0.0
H511 H 0.05861 0.37673 1.02072 0.0
H512 H 0.9568 0.35898 1.01741 0.0
H513 H 0.01726 0.55917 0.06425 0.0
H514 H 0.01136 0.61843 0.04972 0.0
H515 H 0.07906 0.61695 0.04737 0.0
H516 H 0.07628 0.6214 0.99771 0.0
H517 H 0.00877 0.62368 0.99986 0.0
H518 H 0.0121 0.56767 0.98069 0.0
H519 H 0.86359 0.36192 1.02089 0.0
H520 H 0.78412 0.38403 0.0293 0.0
H521 H 0.91008 0.57136 0.0298 0.0
C522 C 0.08786 0.52006 0.02182 0.0
C523 C 0.09835 0.47207 0.02245 0.0
C524 C 0.0511 0.4139 1.02006 0.0
C525 C -0.0066 0.40357 1.01815 0.0
C526 C 0.98444 0.45202 1.01839 0.0
C527 C 0.03045 0.50916 1.01991 0.0
C528 C 0.00913 0.55327 0.02225 0.0
C529 C 0.03046 0.58902 0.04739 0.0
C530 C 0.02767 0.59389 0.99872 0.0
C531 C 0.94365 0.51192 0.02273 0.0
C532 C 0.93042 0.45378 1.02023 0.0
C533 C 0.87329 0.40722 0.02232 0.0
C534 C 0.82858 0.42033 0.02726 0.0
C535 C 0.84125 0.47952 0.03002 0.0
C536 C 0.89933 0.5259 0.02733 0.0
H537 H 0.40763 0.84266 0.38817 0.0
H538 H 0.31916 0.88155 0.3278 0.0
H539 H 0.41521 0.96256 0.3126 0.0
H540 H 0.50631 0.9912 0.40362 0.0
H541 H 0.56583 0.97828 0.41147 0.0
H542 H 0.49118 0.92 0.41502 0.0
H543 H 0.51464 0.85374 0.38548 0.0
H544 H 0.589 0.91293 0.38126 0.0
H545 H 0.54334 0.8786 0.35364 0.0
H546 H 0.51856 0.04114 0.30566 0.0
H547 H 0.61785 0.12521 0.31282 0.0
H548 H 0.63884 0.0374 0.37868 0.0
C549 C 0.40876 0.86812 0.37162 0.0
C550 C 0.35672 0.85611 0.35889 0.0
C551 C 0.35897 0.89061 0.33772 0.0
C552 C 0.41323 0.93589 0.32879 0.0
C553 C 0.46415 0.94592 0.34148 0.0
C554 C 0.46219 0.91393 0.36283 0.0
C555 C 0.52203 0.93822 0.37505 0.0
C556 C 0.52128 0.95814 0.40292 0.0
C557 C 0.5435 0.89317 0.37377 0.0
C558 C 0.55799 0.99 0.35759 0.0
C559 C 0.52403 -0.00752 0.33789 0.0
C560 C 0.54582 0.03919 0.32069 0.0
C561 C 0.60237 0.08643 0.32475 0.0
C562 C 0.63599 0.08659 0.34589 0.0
C563 C 0.61482 0.0368 0.36176 0.0
H564 H 0.1866 0.24936 0.86621 0.0
H565 H 0.3656 0.28344 0.87224 0.0
H566 H 0.37188 0.32151 0.91602 0.0
H567 H 0.20469 0.37454 0.90212 0.0
H568 H 0.13493 0.33627 0.9185 0.0
H569 H 0.14386 0.31142 0.88731 0.0
H570 H 0.10933 0.20739 0.90562 0.0
H571 H 0.10025 0.23194 0.93689 0.0
H572 H 0.14641 0.1993 0.933 0.0
H573 H 0.36198 0.3623 0.95797 0.0
H574 H 0.33388 0.39649 0.99702 0.0
H575 H 0.15786 0.32859 0.96716 0.0
C576 C 0.22694 0.26435 0.87682 0.0
C577 C 0.27652 0.26503 0.86518 0.0
C578 C 0.32811 0.28485 0.88001 0.0
C579 C 0.33178 0.30586 0.90516 0.0
C580 C 0.28292 0.30588 0.91578 0.0
C581 C 0.2311 0.28492 0.90231 0.0
C582 C 0.18512 0.28971 0.91865 0.0
C583 C 0.16603 0.33041 0.90588 0.0
C584 C 0.13213 0.22843 0.92384 0.0
C585 C 0.21956 0.31725 0.94317 0.0
C586 C 0.27605 0.32645 0.94089 0.0
C587 C 0.31759 0.35446 0.96014 0.0
C588 C 0.30123 0.37382 0.98228 0.0
C589 C 0.24348 0.36438 0.98538 0.0
C590 C 0.20191 0.33515 0.9656 0.0
H591 H 0.87179 0.28986 0.29823 0.0
H592 H 0.89058 0.14296 0.32492 0.0
H593 H 0.93787 0.1427 0.28382 0.0
H594 H 0.83597 0.24072 0.23373 0.0
H595 H 0.87612 0.31297 0.21962 0.0
H596 H 0.84714 0.30467 0.25172 0.0
H597 H 0.95078 0.378 0.26871 0.0
H598 H 0.97994 0.38653 0.23661 0.0
H599 H 0.01089 0.3647 0.26221 0.0
H600 H 0.97927 0.15508 0.23913 0.0
H601 H 0.01309 0.17991 0.19433 0.0
H602 H 0.96757 0.31865 0.19568 0.0
C603 C 0.88655 0.2581 0.29563 0.0
C604 C 0.87747 0.21647 0.31508 0.0
C605 C 0.89696 0.17537 0.31054 0.0
C606 C 0.92397 0.17489 0.28718 0.0
C607 C 0.9315 0.21586 0.26837 0.0
C608 C 0.91366 0.25697 0.27234 0.0
C609 C 0.92532 0.29489 0.24855 0.0
C610 C 0.8677 0.28786 0.23777 0.0
C611 C 0.96936 0.35988 0.2544 0.0
C612 C 0.95195 0.26826 0.23052 0.0
C613 C 0.95518 0.22284 0.24243 0.0
C614 C 0.97698 0.19061 0.22965 0.0
C615 C -0.00425 0.20484 0.20405 0.0
C616 C -0.00721 0.25101 0.19119 0.0
C617 C 0.97094 0.2834 0.20487 0.0
H618 H 0.57441 0.87283 0.63188 0.0
H619 H 0.69622 0.80862 0.64551 0.0
H620 H 0.74104 0.84517 0.60294 0.0
H621 H 0.55454 0.83866 0.56317 0.0
H622 H 0.55114 0.90405 0.5554 0.0
H623 H 0.527 0.87036 0.58646 0.0
H624 H 0.59897 0.96994 0.60807 0.0
H625 H 0.62373 0.00337 0.577 0.0
H626 H 0.67597 0.00561 0.59994 0.0
H627 H 0.77395 0.88965 0.55942 0.0
H628 H 0.79369 0.93965 0.51774 0.0
H629 H 0.65313 0.9789 0.53209 0.0
C630 C 0.61017 0.8659 0.62585 0.0
C631 C 0.63158 0.83743 0.64217 0.0
C632 C 0.67884 0.82999 0.63349 0.0
C633 C 0.70462 0.85064 0.60929 0.0
C634 C 0.68284 0.87882 0.59385 0.0
C635 C 0.63663 0.88647 0.60171 0.0
C636 C 0.62259 0.91947 0.58151 0.0
C637 C 0.56012 0.88083 0.57101 0.0
C638 C 0.63083 0.97808 0.59228 0.0
C639 C 0.66867 0.92973 0.5612 0.0
C640 C 0.70259 0.90552 0.56874 0.0
C641 C 0.74788 0.90905 0.55338 0.0
C642 C 0.75911 0.93817 0.52975 0.0
C643 C 0.72565 0.96418 0.52152 0.0
C644 C 0.67947 0.95939 0.53758 0.0
H645 H 0.65827 0.66638 0.86719 0.0
H646 H 0.84032 0.79205 0.84932 0.0
H647 H 0.86985 0.77558 0.89185 0.0
H648 H 0.66307 0.70326 0.9342 0.0
H649 H 0.61621 0.62825 0.94438 0.0
H650 H 0.60858 0.65055 0.91265 0.0
H651 H 0.62376 0.56787 0.89265 0.0
H652 H 0.63056 0.54505 0.92439 0.0
H653 H 0.68802 0.56333 0.901 0.0
H654 H 0.88052 0.74501 0.93637 0.0
H655 H 0.87113 0.7008 0.97919 0.0
H656 H 0.68292 0.59329 0.96796 0.0
C657 C 0.70441 0.69018 0.8721 0.0
C658 C 0.74679 0.73102 0.85476 0.0
C659 C 0.80665 0.76154 0.86228 0.0
C660 C 0.82404 0.75216 0.88641 0.0
C661 C 0.78127 0.71183 0.90297 0.0
C662 C 0.72269 0.68113 0.89614 0.0
C663 C 0.6857 0.63972 0.91748 0.0
C664 C 0.64075 0.65647 0.92779 0.0
C665 C 0.65524 0.57518 0.90832 0.0
C666 C 0.73276 0.65184 0.93726 0.0
C667 C 0.78754 0.69372 0.92854 0.0
C668 C 0.83781 0.71211 0.9434 0.0
C669 C 0.83205 0.6868 0.96775 0.0
C670 C 0.77645 0.64328 0.97703 0.0
C671 C 0.72625 0.62602 0.96147 0.0
H672 H 0.1004 0.67977 0.29916 0.0
H673 H 0.13068 0.85436 0.31896 0.0
H674 H 0.08699 0.85853 0.27777 0.0
H675 H 0.13335 0.7069 0.23111 0.0
H676 H 0.0774 0.63366 0.22211 0.0
H677 H 0.11198 0.64681 0.25306 0.0
H678 H 0.00587 0.59994 0.27478 0.0
H679 H 0.97555 0.58784 0.24292 0.0
H680 H 0.95926 0.62928 0.26612 0.0
H681 H 0.04017 0.84426 0.23416 0.0
H682 H -0.00425 0.8136 0.19126 0.0
H683 H -0.00489 0.64795 0.19912 0.0
C684 C 0.09772 0.71886 0.29493 0.0
C685 C 0.11915 0.76678 0.31258 0.0
C686 C 0.11478 0.81704 0.306 0.0
C687 C 0.0899 0.81981 0.28256 0.0
C688 C 0.06938 0.772 0.26568 0.0
C689 C 0.07298 0.72241 0.27153 0.0
C690 C 0.04808 0.67738 0.2498 0.0
C691 C 0.09546 0.66543 0.23835 0.0
C692 C -0.00594 0.62021 0.25893 0.0
C693 C 0.03045 0.70962 0.23077 0.0
C694 C 0.04278 0.76396 0.24042 0.0
C695 C 0.03017 0.80168 0.2265 0.0
C696 C 0.00446 0.7836 0.20214 0.0
C697 C -0.00857 0.72814 0.19164 0.0
C698 C 0.00482 0.6908 0.20635 0.0
H699 H 0.40493 0.12479 0.62765 0.0
H700 H 0.23846 0.09754 0.65779 0.0
H701 H 0.19109 0.05217 0.61639 0.0
H702 H 0.38604 0.16311 0.56338 0.0
H703 H 0.42293 0.12729 0.54897 0.0
H704 H 0.44132 0.1567 0.58112 0.0
H705 H 0.41955 0.05376 0.5971 0.0
H706 H 0.40002 0.02474 0.56499 0.0
H707 H 0.34853 0.99055 0.59099 0.0
H708 H 0.16166 0.00686 0.57162 0.0
H709 H 0.15322 0.97071 0.52724 0.0
H710 H 0.3409 0.03357 0.52572 0.0
C711 C 0.35842 0.10933 0.62569 0.0
C712 C 0.32542 0.11478 0.64618 0.0
C713 C 0.26479 0.09411 0.64249 0.0
C714 C 0.23747 0.06805 0.61903 0.0
C715 C 0.27135 0.06317 0.59934 0.0
C716 C 0.33062 0.08362 0.60242 0.0
C717 C 0.35768 0.07454 0.57816 0.0
C718 C 0.40479 0.13396 0.56723 0.0
C719 C 0.38292 0.03344 0.58311 0.0
C720 C 0.30434 0.04548 0.56086 0.0
C721 C 0.25492 0.03898 0.57347 0.0
C722 C 0.20031 0.01245 0.56152 0.0
C723 C 0.19615 -0.00752 0.53606 0.0
C724 C 0.2464 -0.00039 0.52239 0.0
C725 C 0.30119 0.02654 0.5353 0.0
loop_
_geom_bond_atom_site_label_1
_geom_bond_atom_site_label_2
_geom_bond_distance
_geom_bond_site_symmetry_2
_ccdc_geom_bond_type
Nd0 C2 2.836 . S
Nd0 O20 2.500 . S
Nd0 O21 2.492 . S
Nd0 O22 2.487 . S
Nd0 O23 2.682 . S
Nd0 O24 2.410 . S
Nd0 O29 2.414 . S
Nd0 O31 2.424 . S
Nd1 C11 2.836 1_554 S
Nd1 O23 2.414 . S
Nd1 O25 2.424 . S
Nd1 O26 2.500 1_554 S
Nd1 O27 2.492 1_554 S
Nd1 O28 2.487 . S
Nd1 O29 2.682 . S
Nd1 O30 2.410 1_554 S
C2 Nd0 2.836 . S
C2 C3 1.498 . S
C2 O20 1.258 . S
C2 O21 1.239 . S
C3 C2 1.498 . S
C3 C4 1.366 . S
C3 C8 1.407 . S
C4 C3 1.366 . S
C4 C5 1.392 . S
C4 H32 0.930 . S
C5 C4 1.392 . S
C5 C6 1.398 . S
C5 H33 0.929 1_455 S
C6 C5 1.398 . S
C6 C7 1.352 . S
C7 C6 1.352 . S
C7 C8 1.384 . S
C7 H34 0.930 . S
C8 C3 1.407 . S
C8 C7 1.384 . S
C8 H35 0.929 . S
C9 O22 1.241 . S
C9 O23 1.273 . S
C10 O24 1.251 . S
C10 O25 1.268 . S
C11 Nd1 2.836 1_556 S
C11 C12 1.498 . S
C11 O26 1.258 . S
C11 O27 1.239 . S
C12 C11 1.498 . S
C12 C13 1.366 . S
C12 C17 1.407 . S
C13 C12 1.366 . S
C13 C14 1.392 . S
C13 H36 0.930 . S
C14 C13 1.392 . S
C14 C15 1.398 . S
C14 H37 0.929 . S
C15 C14 1.398 . S
C15 C16 1.352 . S
C16 C15 1.352 . S
C16 C17 1.384 . S
C16 H38 0.930 . S
C17 C12 1.407 . S
C17 C16 1.384 . S
C17 H39 0.929 . S
C18 O28 1.241 . S
C18 O29 1.273 . S
C19 O30 1.251 . S
C19 O31 1.268 1_556 S
O20 Nd0 2.500 . S
O20 C2 1.258 . S
O21 Nd0 2.492 . S
O21 C2 1.239 . S
O22 Nd0 2.487 . S
O22 C9 1.241 . S
O23 Nd0 2.682 . S
O23 Nd1 2.414 . S
O23 C9 1.273 . S
O24 Nd0 2.410 . S
O24 C10 1.251 . S
O25 Nd1 2.424 . S
O25 C10 1.268 . S
O26 Nd1 2.500 1_556 S
O26 C11 1.258 . S
O27 Nd1 2.492 1_556 S
O27 C11 1.239 . S
O28 Nd1 2.487 . S
O28 C18 1.241 . S
O29 Nd0 2.414 . S
O29 Nd1 2.682 . S
O29 C18 1.273 . S
O30 Nd1 2.410 1_556 S
O30 C19 1.251 . S
O31 Nd0 2.424 . S
O31 C19 1.268 1_554 S
H32 C4 0.930 . S
H33 C5 0.929 1_655 S
H34 C7 0.930 . S
H35 C8 0.929 . S
H36 C13 0.930 . S
H37 C14 0.929 . S
H38 C16 0.930 . S
H39 C17 0.929 . S
Nd40 C42 2.836 . S
Nd40 O60 2.500 . S
Nd40 O61 2.492 . S
Nd40 O62 2.487 . S
Nd40 O63 2.682 . S
Nd40 O64 2.410 . S
Nd40 O69 2.414 . S
Nd40 O71 2.424 . S
Nd41 C51 2.836 . S
Nd41 O63 2.414 . S
Nd41 O65 2.424 . S
Nd41 O66 2.500 . S
Nd41 O67 2.492 . S
Nd41 O68 2.487 . S
Nd41 O69 2.682 . S
Nd41 O70 2.410 . S
C42 Nd40 2.836 . S
C42 C43 1.498 . S
C42 O60 1.258 . S
C42 O61 1.239 . S
C43 C42 1.498 . S
C43 C44 1.366 . S
C43 C48 1.407 . S
C44 C43 1.366 . S
C44 C45 1.392 . S
C44 H72 0.930 . S
C45 C44 1.392 . S
C45 C46 1.398 . S
C45 H73 0.929 1_545 S
C46 C45 1.398 . S
C46 C47 1.352 . S
C47 C46 1.352 . S
C47 C48 1.384 . S
C47 H74 0.930 . S
C48 C43 1.407 . S
C48 C47 1.384 . S
C48 H75 0.929 . S
C49 O62 1.241 . S
C49 O63 1.273 . S
C50 O64 1.251 . S
C50 O65 1.268 . S
C51 Nd41 2.836 . S
C51 C52 1.498 . S
C51 O66 1.258 . S
C51 O67 1.239 . S
C52 C51 1.498 . S
C52 C53 1.366 . S
C52 C57 1.407 . S
C53 C52 1.366 . S
C53 C54 1.392 . S
C53 H76 0.930 . S
C54 C53 1.392 . S
C54 C55 1.398 . S
C54 H77 0.929 . S
C55 C54 1.398 . S
C55 C56 1.352 . S
C56 C55 1.352 . S
C56 C57 1.384 . S
C56 H78 0.930 . S
C57 C52 1.407 . S
C57 C56 1.384 . S
C57 H79 0.929 . S
C58 O68 1.241 . S
C58 O69 1.273 . S
C59 O70 1.251 . S
C59 O71 1.268 . S
O60 Nd40 2.500 . S
O60 C42 1.258 . S
O61 Nd40 2.492 . S
O61 C42 1.239 . S
O62 Nd40 2.487 . S
O62 C49 1.241 . S
O63 Nd40 2.682 . S
O63 Nd41 2.414 . S
O63 C49 1.273 . S
O64 Nd40 2.410 . S
O64 C50 1.251 . S
O65 Nd41 2.424 . S
O65 C50 1.268 . S
O66 Nd41 2.500 . S
O66 C51 1.258 . S
O67 Nd41 2.492 . S
O67 C51 1.239 . S
O68 Nd41 2.487 . S
O68 C58 1.241 . S
O69 Nd40 2.414 . S
O69 Nd41 2.682 . S
O69 C58 1.273 . S
O70 Nd41 2.410 . S
O70 C59 1.251 . S
O71 Nd40 2.424 . S
O71 C59 1.268 . S
H72 C44 0.930 . S
H73 C45 0.929 1_565 S
H74 C47 0.930 . S
H75 C48 0.929 . S
H76 C53 0.930 . S
H77 C54 0.929 . S
H78 C56 0.930 . S
H79 C57 0.929 . S
Nd80 C82 2.836 . S
Nd80 O100 2.500 . S
Nd80 O101 2.492 . S
Nd80 O102 2.487 . S
Nd80 O103 2.682 . S
Nd80 O104 2.410 . S
Nd80 O109 2.414 . S
Nd80 O111 2.424 . S
Nd81 C91 2.836 . S
Nd81 O103 2.414 . S
Nd81 O105 2.424 . S
Nd81 O106 2.500 . S
Nd81 O107 2.492 . S
Nd81 O108 2.487 . S
Nd81 O109 2.682 . S
Nd81 O110 2.410 . S
C82 Nd80 2.836 . S
C82 C83 1.498 . S
C82 O100 1.258 . S
C82 O101 1.239 . S
C83 C82 1.498 . S
C83 C84 1.366 . S
C83 C88 1.407 . S
C84 C83 1.366 . S
C84 C85 1.392 . S
C84 H112 0.930 . S
C85 C84 1.392 . S
C85 C86 1.398 . S
C85 H113 0.929 . S
C86 C85 1.398 . S
C86 C87 1.352 . S
C87 C86 1.352 . S
C87 C88 1.384 . S
C87 H114 0.930 . S
C88 C83 1.407 . S
C88 C87 1.384 . S
C88 H115 0.929 . S
C89 O102 1.241 . S
C89 O103 1.273 . S
C90 O104 1.251 . S
C90 O105 1.268 . S
C91 Nd81 2.836 . S
C91 C92 1.498 . S
C91 O106 1.258 . S
C91 O107 1.239 . S
C92 C91 1.498 . S
C92 C93 1.366 . S
C92 C97 1.407 . S
C93 C92 1.366 . S
C93 C94 1.392 . S
C93 H116 0.930 . S
C94 C93 1.392 . S
C94 C95 1.398 . S
C94 H117 0.929 . S
C95 C94 1.398 . S
C95 C96 1.352 . S
C96 C95 1.352 . S
C96 C97 1.384 . S
C96 H118 0.930 . S
C97 C92 1.407 . S
C97 C96 1.384 . S
C97 H119 0.929 . S
C98 O108 1.241 . S
C98 O109 1.273 . S
C99 O110 1.251 . S
C99 O111 1.268 . S
O100 Nd80 2.500 . S
O100 C82 1.258 . S
O101 Nd80 2.492 . S
O101 C82 1.239 . S
O102 Nd80 2.487 . S
O102 C89 1.241 . S
O103 Nd80 2.682 . S
O103 Nd81 2.414 . S
O103 C89 1.273 . S
O104 Nd80 2.410 . S
O104 C90 1.251 . S
O105 Nd81 2.424 . S
O105 C90 1.268 . S
O106 Nd81 2.500 . S
O106 C91 1.258 . S
O107 Nd81 2.492 . S
O107 C91 1.239 . S
O108 Nd81 2.487 . S
O108 C98 1.241 . S
O109 Nd80 2.414 . S
O109 Nd81 2.682 . S
O109 C98 1.273 . S
O110 Nd81 2.410 . S
O110 C99 1.251 . S
O111 Nd80 2.424 . S
O111 C99 1.268 . S
H112 C84 0.930 . S
H113 C85 0.929 . S
H114 C87 0.930 . S
H115 C88 0.929 . S
H116 C93 0.930 . S
H117 C94 0.929 . S
H118 C96 0.930 . S
H119 C97 0.929 . S
Nd120 C122 2.836 . S
Nd120 O140 2.500 . S
Nd120 O141 2.492 . S
Nd120 O142 2.487 . S
Nd120 O143 2.682 . S
Nd120 O144 2.410 . S
Nd120 O149 2.414 . S
Nd120 O151 2.424 . S
Nd121 C131 2.836 1_554 S
Nd121 O143 2.414 . S
Nd121 O145 2.424 . S
Nd121 O146 2.500 1_554 S
Nd121 O147 2.492 1_554 S
Nd121 O148 2.487 . S
Nd121 O149 2.682 . S
Nd121 O150 2.410 1_554 S
C122 Nd120 2.836 . S
C122 C123 1.498 . S
C122 O140 1.258 . S
C122 O141 1.239 . S
C123 C122 1.498 . S
C123 C124 1.366 . S
C123 C128 1.407 . S
C124 C123 1.366 . S
C124 C125 1.392 . S
C124 H152 0.930 . S
C125 C124 1.392 . S
C125 C126 1.398 . S
C125 H153 0.929 1_655 S
C126 C125 1.398 . S
C126 C127 1.352 . S
C127 C126 1.352 . S
C127 C128 1.384 . S
C127 H154 0.930 . S
C128 C123 1.407 . S
C128 C127 1.384 . S
C128 H155 0.929 . S
C129 O142 1.241 . S
C129 O143 1.273 . S
C130 O144 1.251 . S
C130 O145 1.268 . S
C131 Nd121 2.836 1_556 S
C131 C132 1.498 . S
C131 O146 1.258 . S
C131 O147 1.239 . S
C132 C131 1.498 . S
C132 C133 1.366 . S
C132 C137 1.407 . S
C133 C132 1.366 . S
C133 C134 1.392 . S
C133 H156 0.930 . S
C134 C133 1.392 . S
C134 C135 1.398 . S
C134 H157 0.929 . S
C135 C134 1.398 . S
C135 C136 1.352 . S
C136 C135 1.352 . S
C136 C137 1.384 . S
C136 H158 0.930 . S
C137 C132 1.407 . S
C137 C136 1.384 . S
C137 H159 0.929 . S
C138 O148 1.241 . S
C138 O149 1.273 . S
C139 O150 1.251 . S
C139 O151 1.268 1_556 S
O140 Nd120 2.500 . S
O140 C122 1.258 . S
O141 Nd120 2.492 . S
O141 C122 1.239 . S
O142 Nd120 2.487 . S
O142 C129 1.241 . S
O143 Nd120 2.682 . S
O143 Nd121 2.414 . S
O143 C129 1.273 . S
O144 Nd120 2.410 . S
O144 C130 1.251 . S
O145 Nd121 2.424 . S
O145 C130 1.268 . S
O146 Nd121 2.500 1_556 S
O146 C131 1.258 . S
O147 Nd121 2.492 1_556 S
O147 C131 1.239 . S
O148 Nd121 2.487 . S
O148 C138 1.241 . S
O149 Nd120 2.414 . S
O149 Nd121 2.682 . S
O149 C138 1.273 . S
O150 Nd121 2.410 1_556 S
O150 C139 1.251 . S
O151 Nd120 2.424 . S
O151 C139 1.268 1_554 S
H152 C124 0.930 . S
H153 C125 0.929 1_455 S
H154 C127 0.930 . S
H155 C128 0.929 . S
H156 C133 0.930 . S
H157 C134 0.929 . S
H158 C136 0.930 . S
H159 C137 0.929 . S
Nd160 C162 2.836 . S
Nd160 O180 2.500 . S
Nd160 O181 2.492 . S
Nd160 O182 2.487 . S
Nd160 O183 2.682 . S
Nd160 O184 2.410 . S
Nd160 O189 2.414 . S
Nd160 O191 2.424 . S
Nd161 C171 2.836 . S
Nd161 O183 2.414 . S
Nd161 O185 2.424 . S
Nd161 O186 2.500 . S
Nd161 O187 2.492 . S
Nd161 O188 2.487 . S
Nd161 O189 2.682 . S
Nd161 O190 2.410 . S
C162 Nd160 2.836 . S
C162 C163 1.498 . S
C162 O180 1.258 . S
C162 O181 1.239 . S
C163 C162 1.498 . S
C163 C164 1.366 . S
C163 C168 1.407 . S
C164 C163 1.366 . S
C164 C165 1.392 . S
C164 H192 0.930 . S
C165 C164 1.392 . S
C165 C166 1.398 . S
C165 H193 0.929 1_565 S
C166 C165 1.398 . S
C166 C167 1.352 . S
C167 C166 1.352 . S
C167 C168 1.384 . S
C167 H194 0.930 . S
C168 C163 1.407 . S
C168 C167 1.384 . S
C168 H195 0.929 . S
C169 O182 1.241 . S
C169 O183 1.273 . S
C170 O184 1.251 . S
C170 O185 1.268 . S
C171 Nd161 2.836 . S
C171 C172 1.498 . S
C171 O186 1.258 . S
C171 O187 1.239 . S
C172 C171 1.498 . S
C172 C173 1.366 . S
C172 C177 1.407 . S
C173 C172 1.366 . S
C173 C174 1.392 . S
C173 H196 0.930 . S
C174 C173 1.392 . S
C174 C175 1.398 . S
C174 H197 0.929 . S
C175 C174 1.398 . S
C175 C176 1.352 . S
C176 C175 1.352 . S
C176 C177 1.384 . S
C176 H198 0.930 . S
C177 C172 1.407 . S
C177 C176 1.384 . S
C177 H199 0.929 . S
C178 O188 1.241 . S
C178 O189 1.273 . S
C179 O190 1.251 . S
C179 O191 1.268 . S
O180 Nd160 2.500 . S
O180 C162 1.258 . S
O181 Nd160 2.492 . S
O181 C162 1.239 . S
O182 Nd160 2.487 . S
O182 C169 1.241 . S
O183 Nd160 2.682 . S
O183 Nd161 2.414 . S
O183 C169 1.273 . S
O184 Nd160 2.410 . S
O184 C170 1.251 . S
O185 Nd161 2.424 . S
O185 C170 1.268 . S
O186 Nd161 2.500 . S
O186 C171 1.258 . S
O187 Nd161 2.492 . S
O187 C171 1.239 . S
O188 Nd161 2.487 . S
O188 C178 1.241 . S
O189 Nd160 2.414 . S
O189 Nd161 2.682 . S
O189 C178 1.273 . S
O190 Nd161 2.410 . S
O190 C179 1.251 . S
O191 Nd160 2.424 . S
O191 C179 1.268 . S
H192 C164 0.930 . S
H193 C165 0.929 1_545 S
H194 C167 0.930 . S
H195 C168 0.929 . S
H196 C173 0.930 . S
H197 C174 0.929 . S
H198 C176 0.930 . S
H199 C177 0.929 . S
Nd200 C202 2.836 . S
Nd200 O220 2.500 . S
Nd200 O221 2.492 . S
Nd200 O222 2.487 . S
Nd200 O223 2.682 . S
Nd200 O224 2.410 . S
Nd200 O229 2.414 . S
Nd200 O231 2.424 . S
Nd201 C211 2.836 . S
Nd201 O223 2.414 . S
Nd201 O225 2.424 . S
Nd201 O226 2.500 . S
Nd201 O227 2.492 . S
Nd201 O228 2.487 . S
Nd201 O229 2.682 . S
Nd201 O230 2.410 . S
C202 Nd200 2.836 . S
C202 C203 1.498 . S
C202 O220 1.258 . S
C202 O221 1.239 . S
C203 C202 1.498 . S
C203 C204 1.366 . S
C203 C208 1.407 . S
C204 C203 1.366 . S
C204 C205 1.392 . S
C204 H232 0.930 . S
C205 C204 1.392 . S
C205 C206 1.398 . S
C205 H233 0.929 . S
C206 C205 1.398 . S
C206 C207 1.352 . S
C207 C206 1.352 . S
C207 C208 1.384 . S
C207 H234 0.930 . S
C208 C203 1.407 . S
C208 C207 1.384 . S
C208 H235 0.929 . S
C209 O222 1.241 . S
C209 O223 1.273 . S
C210 O224 1.251 . S
C210 O225 1.268 . S
C211 Nd201 2.836 . S
C211 C212 1.498 . S
C211 O226 1.258 . S
C211 O227 1.239 . S
C212 C211 1.498 . S
C212 C213 1.366 . S
C212 C217 1.407 . S
C213 C212 1.366 . S
C213 C214 1.392 . S
C213 H236 0.930 . S
C214 C213 1.392 . S
C214 C215 1.398 . S
C214 H237 0.929 . S
C215 C214 1.398 . S
C215 C216 1.352 . S
C216 C215 1.352 . S
C216 C217 1.384 . S
C216 H238 0.930 . S
C217 C212 1.407 . S
C217 C216 1.384 . S
C217 H239 0.929 . S
C218 O228 1.241 . S
C218 O229 1.273 . S
C219 O230 1.251 . S
C219 O231 1.268 . S
O220 Nd200 2.500 . S
O220 C202 1.258 . S
O221 Nd200 2.492 . S
O221 C202 1.239 . S
O222 Nd200 2.487 . S
O222 C209 1.241 . S
O223 Nd200 2.682 . S
O223 Nd201 2.414 . S
O223 C209 1.273 . S
O224 Nd200 2.410 . S
O224 C210 1.251 . S
O225 Nd201 2.424 . S
O225 C210 1.268 . S
O226 Nd201 2.500 . S
O226 C211 1.258 . S
O227 Nd201 2.492 . S
O227 C211 1.239 . S
O228 Nd201 2.487 . S
O228 C218 1.241 . S
O229 Nd200 2.414 . S
O229 Nd201 2.682 . S
O229 C218 1.273 . S
O230 Nd201 2.410 . S
O230 C219 1.251 . S
O231 Nd200 2.424 . S
O231 C219 1.268 . S
H232 C204 0.930 . S
H233 C205 0.929 . S
H234 C207 0.930 . S
H235 C208 0.929 . S
H236 C213 0.930 . S
H237 C214 0.929 . S
H238 C216 0.930 . S
H239 C217 0.929 . S
H240 C252 0.930 . S
H241 C254 0.930 . S
H242 C255 0.930 . S
H243 C259 0.959 . S
H244 C259 0.959 . S
H245 C259 0.961 . S
H246 C260 0.960 . S
H247 C260 0.961 . S
H248 C260 0.959 . S
H249 C263 0.929 . S
H250 C264 0.931 . S
H251 C266 0.930 . S
C252 H240 0.930 . S
C252 C253 1.399 . S
C252 C257 1.399 . S
C253 C252 1.399 . S
C253 C254 1.376 . S
C254 H241 0.930 . S
C254 C253 1.376 . S
C254 C255 1.388 . S
C255 H242 0.930 . S
C255 C254 1.388 . S
C255 C256 1.390 . S
C256 C255 1.390 . S
C256 C257 1.394 . S
C256 C262 1.465 . S
C257 C252 1.399 . S
C257 C256 1.394 . S
C257 C258 1.516 . S
C258 C257 1.516 . S
C258 C259 1.502 . S
C258 C260 1.561 . S
C258 C261 1.526 . S
C259 H243 0.959 . S
C259 H244 0.959 . S
C259 H245 0.961 . S
C259 C258 1.502 . S
C260 H246 0.960 . S
C260 H247 0.961 . S
C260 H248 0.959 . S
C260 C258 1.561 . S
C261 C258 1.526 . S
C261 C262 1.396 . S
C261 C266 1.390 . S
C262 C256 1.465 . S
C262 C261 1.396 . S
C262 C263 1.399 . S
C263 H249 0.929 . S
C263 C262 1.399 . S
C263 C264 1.385 . S
C264 H250 0.931 . S
C264 C263 1.385 . S
C264 C265 1.389 . S
C265 C264 1.389 . S
C265 C266 1.387 . S
C266 H251 0.930 . S
C266 C261 1.390 . S
C266 C265 1.387 . S
H267 C279 0.930 . S
H268 C281 0.930 . S
H269 C282 0.930 . S
H270 C286 0.959 . S
H271 C286 0.959 . S
H272 C286 0.961 . S
H273 C287 0.960 . S
H274 C287 0.961 . S
H275 C287 0.959 . S
H276 C290 0.929 . S
H277 C291 0.931 . S
H278 C293 0.930 . S
C279 H267 0.930 . S
C279 C280 1.399 . S
C279 C284 1.399 . S
C280 C279 1.399 . S
C280 C281 1.376 . S
C281 H268 0.930 . S
C281 C280 1.376 . S
C281 C282 1.388 . S
C282 H269 0.930 . S
C282 C281 1.388 . S
C282 C283 1.390 . S
C283 C282 1.390 . S
C283 C284 1.394 . S
C283 C289 1.465 . S
C284 C279 1.399 . S
C284 C283 1.394 . S
C284 C285 1.516 . S
C285 C284 1.516 . S
C285 C286 1.502 . S
C285 C287 1.561 . S
C285 C288 1.526 . S
C286 H270 0.959 . S
C286 H271 0.959 . S
C286 H272 0.961 . S
C286 C285 1.502 . S
C287 H273 0.960 . S
C287 H274 0.961 . S
C287 H275 0.959 . S
C287 C285 1.561 . S
C288 C285 1.526 . S
C288 C289 1.396 . S
C288 C293 1.390 . S
C289 C283 1.465 . S
C289 C288 1.396 . S
C289 C290 1.399 . S
C290 H276 0.929 . S
C290 C289 1.399 . S
C290 C291 1.385 . S
C291 H277 0.931 . S
C291 C290 1.385 . S
C291 C292 1.389 . S
C292 C291 1.389 . S
C292 C293 1.387 . S
C293 H278 0.930 . S
C293 C288 1.390 . S
C293 C292 1.387 . S
H294 C306 0.930 . S
H295 C308 0.930 . S
H296 C309 0.930 . S
H297 C313 0.959 . S
H298 C313 0.959 . S
H299 C313 0.961 . S
H300 C314 0.960 . S
H301 C314 0.961 . S
H302 C314 0.959 . S
H303 C317 0.929 . S
H304 C318 0.931 . S
H305 C320 0.930 . S
C306 H294 0.930 . S
C306 C307 1.399 . S
C306 C311 1.399 . S
C307 C306 1.399 . S
C307 C308 1.376 . S
C308 H295 0.930 . S
C308 C307 1.376 . S
C308 C309 1.388 . S
C309 H296 0.930 . S
C309 C308 1.388 . S
C309 C310 1.390 . S
C310 C309 1.390 . S
C310 C311 1.394 . S
C310 C316 1.465 . S
C311 C306 1.399 . S
C311 C310 1.394 . S
C311 C312 1.516 . S
C312 C311 1.516 . S
C312 C313 1.502 . S
C312 C314 1.561 . S
C312 C315 1.526 . S
C313 H297 0.959 . S
C313 H298 0.959 . S
C313 H299 0.961 . S
C313 C312 1.502 . S
C314 H300 0.960 . S
C314 H301 0.961 . S
C314 H302 0.959 . S
C314 C312 1.561 . S
C315 C312 1.526 . S
C315 C316 1.396 . S
C315 C320 1.390 . S
C316 C310 1.465 . S
C316 C315 1.396 . S
C316 C317 1.399 . S
C317 H303 0.929 . S
C317 C316 1.399 . S
C317 C318 1.385 . S
C318 H304 0.931 . S
C318 C317 1.385 . S
C318 C319 1.389 . S
C319 C318 1.389 . S
C319 C320 1.387 . S
C320 H305 0.930 . S
C320 C315 1.390 . S
C320 C319 1.387 . S
H321 C333 0.930 . S
H322 C335 0.930 . S
H323 C336 0.930 . S
H324 C340 0.959 . S
H325 C340 0.959 . S
H326 C340 0.961 . S
H327 C341 0.960 . S
H328 C341 0.961 . S
H329 C341 0.959 . S
H330 C344 0.929 . S
H331 C345 0.931 . S
H332 C347 0.930 . S
C333 H321 0.930 . S
C333 C334 1.399 . S
C333 C338 1.399 . S
C334 C333 1.399 . S
C334 C335 1.376 . S
C335 H322 0.930 . S
C335 C334 1.376 . S
C335 C336 1.388 . S
C336 H323 0.930 . S
C336 C335 1.388 . S
C336 C337 1.390 . S
C337 C336 1.390 . S
C337 C338 1.394 . S
C337 C343 1.465 . S
C338 C333 1.399 . S
C338 C337 1.394 . S
C338 C339 1.516 . S
C339 C338 1.516 . S
C339 C340 1.502 . S
C339 C341 1.561 . S
C339 C342 1.526 . S
C340 H324 0.959 . S
C340 H325 0.959 . S
C340 H326 0.961 . S
C340 C339 1.502 . S
C341 H327 0.960 . S
C341 H328 0.961 . S
C341 H329 0.959 . S
C341 C339 1.561 . S
C342 C339 1.526 . S
C342 C343 1.396 . S
C342 C347 1.390 . S
C343 C337 1.465 . S
C343 C342 1.396 . S
C343 C344 1.399 . S
C344 H330 0.929 . S
C344 C343 1.399 . S
C344 C345 1.385 . S
C345 H331 0.931 . S
C345 C344 1.385 . S
C345 C346 1.389 . S
C346 C345 1.389 . S
C346 C347 1.387 . S
C347 H332 0.930 . S
C347 C342 1.390 . S
C347 C346 1.387 . S
H348 C360 0.930 . S
H349 C362 0.930 . S
H350 C363 0.930 . S
H351 C367 0.959 . S
H352 C367 0.959 . S
H353 C367 0.961 . S
H354 C368 0.960 . S
H355 C368 0.961 . S
H356 C368 0.959 . S
H357 C371 0.929 . S
H358 C372 0.931 . S
H359 C374 0.930 . S
C360 H348 0.930 . S
C360 C361 1.399 . S
C360 C365 1.399 . S
C361 C360 1.399 . S
C361 C362 1.376 . S
C362 H349 0.930 . S
C362 C361 1.376 . S
C362 C363 1.388 . S
C363 H350 0.930 . S
C363 C362 1.388 . S
C363 C364 1.390 . S
C364 C363 1.390 . S
C364 C365 1.394 . S
C364 C370 1.465 . S
C365 C360 1.399 . S
C365 C364 1.394 . S
C365 C366 1.516 . S
C366 C365 1.516 . S
C366 C367 1.502 . S
C366 C368 1.561 . S
C366 C369 1.526 . S
C367 H351 0.959 . S
C367 H352 0.959 . S
C367 H353 0.961 . S
C367 C366 1.502 . S
C368 H354 0.960 . S
C368 H355 0.961 . S
C368 H356 0.959 . S
C368 C366 1.561 . S
C369 C366 1.526 . S
C369 C370 1.396 . S
C369 C374 1.390 . S
C370 C364 1.465 . S
C370 C369 1.396 . S
C370 C371 1.399 . S
C371 H357 0.929 . S
C371 C370 1.399 . S
C371 C372 1.385 . S
C372 H358 0.931 . S
C372 C371 1.385 . S
C372 C373 1.389 . S
C373 C372 1.389 . S
C373 C374 1.387 . S
C374 H359 0.930 . S
C374 C369 1.390 . S
C374 C373 1.387 . S
H375 C387 0.930 . S
H376 C389 0.930 . S
H377 C390 0.930 . S
H378 C394 0.959 . S
H379 C394 0.959 . S
H380 C394 0.961 . S
H381 C395 0.960 . S
H382 C395 0.961 . S
H383 C395 0.959 . S
H384 C398 0.929 . S
H385 C399 0.931 . S
H386 C401 0.930 . S
C387 H375 0.930 . S
C387 C388 1.399 . S
C387 C392 1.399 . S
C388 C387 1.399 . S
C388 C389 1.376 . S
C389 H376 0.930 . S
C389 C388 1.376 . S
C389 C390 1.388 . S
C390 H377 0.930 . S
C390 C389 1.388 . S
C390 C391 1.390 . S
C391 C390 1.390 . S
C391 C392 1.394 . S
C391 C397 1.465 . S
C392 C387 1.399 . S
C392 C391 1.394 . S
C392 C393 1.516 . S
C393 C392 1.516 . S
C393 C394 1.502 . S
C393 C395 1.561 . S
C393 C396 1.526 . S
C394 H378 0.959 . S
C394 H379 0.959 . S
C394 H380 0.961 . S
C394 C393 1.502 . S
C395 H381 0.960 . S
C395 H382 0.961 . S
C395 H383 0.959 . S
C395 C393 1.561 . S
C396 C393 1.526 . S
C396 C397 1.396 . S
C396 C401 1.390 . S
C397 C391 1.465 . S
C397 C396 1.396 . S
C397 C398 1.399 . S
C398 H384 0.929 . S
C398 C397 1.399 . S
C398 C399 1.385 . S
C399 H385 0.931 . S
C399 C398 1.385 . S
C399 C400 1.389 . S
C400 C399 1.389 . S
C400 C401 1.387 . S
C401 H386 0.930 . S
C401 C396 1.390 . S
C401 C400 1.387 . S
H402 C414 0.930 . S
H403 C416 0.930 . S
H404 C417 0.930 . S
H405 C421 0.959 . S
H406 C421 0.959 1_556 S
H407 C421 0.961 . S
H408 C422 0.960 . S
H409 C422 0.961 . S
H410 C422 0.959 . S
H411 C425 0.929 . S
H412 C426 0.931 . S
H413 C428 0.930 . S
C414 H402 0.930 . S
C414 C415 1.399 . S
C414 C419 1.399 . S
C415 C414 1.399 . S
C415 C416 1.376 . S
C416 H403 0.930 . S
C416 C415 1.376 . S
C416 C417 1.388 . S
C417 H404 0.930 . S
C417 C416 1.388 . S
C417 C418 1.390 . S
C418 C417 1.390 . S
C418 C419 1.394 . S
C418 C424 1.465 . S
C419 C414 1.399 . S
C419 C418 1.394 . S
C419 C420 1.516 . S
C420 C419 1.516 . S
C420 C421 1.502 . S
C420 C422 1.561 1_554 S
C420 C423 1.526 . S
C421 H405 0.959 . S
C421 H406 0.959 1_554 S
C421 H407 0.961 . S
C421 C420 1.502 . S
C422 H408 0.960 . S
C422 H409 0.961 . S
C422 H410 0.959 . S
C422 C420 1.561 1_556 S
C423 C420 1.526 . S
C423 C424 1.396 . S
C423 C428 1.390 . S
C424 C418 1.465 . S
C424 C423 1.396 . S
C424 C425 1.399 . S
C425 H411 0.929 . S
C425 C424 1.399 . S
C425 C426 1.385 . S
C426 H412 0.931 . S
C426 C425 1.385 . S
C426 C427 1.389 . S
C427 C426 1.389 . S
C427 C428 1.387 . S
C428 H413 0.930 . S
C428 C423 1.390 . S
C428 C427 1.387 . S
H429 C441 0.930 . S
H430 C443 0.940 . S
H431 C444 0.930 . S
H432 C448 0.959 . S
H433 C448 0.959 . S
H434 C448 0.961 . S
H435 C449 0.960 . S
H436 C449 0.961 . S
H437 C449 0.959 . S
H438 C452 0.929 . S
H439 C453 0.931 . S
H440 C455 0.937 . S
C441 H429 0.930 . S
C441 C442 1.399 . S
C441 C446 1.399 . S
C442 C441 1.399 . S
C442 C443 1.376 . S
C443 H430 0.940 . S
C443 C442 1.376 . S
C443 C444 1.388 1_455 S
C444 H431 0.930 . S
C444 C443 1.388 1_655 S
C444 C445 1.390 . S
C445 C444 1.390 . S
C445 C446 1.394 1_655 S
C445 C451 1.465 . S
C446 C441 1.399 . S
C446 C445 1.394 1_455 S
C446 C447 1.516 . S
C447 C446 1.516 . S
C447 C448 1.502 . S
C447 C449 1.561 . S
C447 C450 1.526 1_455 S
C448 H432 0.959 . S
C448 H433 0.959 . S
C448 H434 0.961 . S
C448 C447 1.502 . S
C449 H435 0.960 . S
C449 H436 0.961 . S
C449 H437 0.959 . S
C449 C447 1.561 . S
C450 C447 1.526 1_655 S
C450 C451 1.396 . S
C450 C455 1.390 . S
C451 C445 1.465 . S
C451 C450 1.396 . S
C451 C452 1.399 . S
C452 H438 0.929 . S
C452 C451 1.399 . S
C452 C453 1.385 . S
C453 H439 0.931 . S
C453 C452 1.385 . S
C453 C454 1.389 . S
C454 C453 1.389 . S
C454 C455 1.387 . S
C455 H440 0.937 . S
C455 C450 1.390 . S
C455 C454 1.387 . S
H456 C468 0.930 . S
H457 C470 0.930 . S
H458 C471 0.930 1_565 S
H459 C475 0.959 . S
H460 C475 0.959 . S
H461 C475 0.961 . S
H462 C476 0.960 . S
H463 C476 0.961 . S
H464 C476 0.959 . S
H465 C479 0.929 . S
H466 C480 0.931 . S
H467 C482 0.930 . S
C468 H456 0.930 . S
C468 C469 1.399 . S
C468 C473 1.399 . S
C469 C468 1.399 . S
C469 C470 1.376 . S
C470 H457 0.930 . S
C470 C469 1.376 . S
C470 C471 1.388 . S
C471 H458 0.930 1_545 S
C471 C470 1.388 . S
C471 C472 1.390 . S
C472 C471 1.390 . S
C472 C473 1.394 . S
C472 C478 1.465 1_545 S
C473 C468 1.399 . S
C473 C472 1.394 . S
C473 C474 1.516 . S
C474 C473 1.516 . S
C474 C475 1.502 . S
C474 C476 1.561 1_545 S
C474 C477 1.526 1_545 S
C475 H459 0.959 . S
C475 H460 0.959 . S
C475 H461 0.961 . S
C475 C474 1.502 . S
C476 H462 0.960 . S
C476 H463 0.961 . S
C476 H464 0.959 . S
C476 C474 1.561 1_565 S
C477 C474 1.526 1_565 S
C477 C478 1.396 . S
C477 C482 1.390 . S
C478 C472 1.465 1_565 S
C478 C477 1.396 . S
C478 C479 1.399 . S
C479 H465 0.929 . S
C479 C478 1.399 . S
C479 C480 1.385 . S
C480 H466 0.931 . S
C480 C479 1.385 . S
C480 C481 1.389 . S
C481 C480 1.389 . S
C481 C482 1.387 . S
C482 H467 0.930 . S
C482 C477 1.390 . S
C482 C481 1.387 . S
H483 C495 0.930 . S
H484 C497 0.930 . S
H485 C498 0.930 . S
H486 C502 0.959 . S
H487 C502 0.959 . S
H488 C502 0.961 . S
H489 C503 0.960 . S
H490 C503 0.961 . S
H491 C503 0.959 . S
H492 C506 0.929 . S
H493 C507 0.931 . S
H494 C509 0.930 . S
C495 H483 0.930 . S
C495 C496 1.399 . S
C495 C500 1.399 . S
C496 C495 1.399 . S
C496 C497 1.376 . S
C497 H484 0.930 . S
C497 C496 1.376 . S
C497 C498 1.388 . S
C498 H485 0.930 . S
C498 C497 1.388 . S
C498 C499 1.390 . S
C499 C498 1.390 . S
C499 C500 1.394 . S
C499 C505 1.465 . S
C500 C495 1.399 . S
C500 C499 1.394 . S
C500 C501 1.516 . S
C501 C500 1.516 . S
C501 C502 1.502 . S
C501 C503 1.561 . S
C501 C504 1.526 . S
C502 H486 0.959 . S
C502 H487 0.959 . S
C502 H488 0.961 . S
C502 C501 1.502 . S
C503 H489 0.960 . S
C503 H490 0.961 . S
C503 H491 0.959 . S
C503 C501 1.561 . S
C504 C501 1.526 . S
C504 C505 1.396 . S
C504 C509 1.390 . S
C505 C499 1.465 . S
C505 C504 1.396 . S
C505 C506 1.399 . S
C506 H492 0.929 . S
C506 C505 1.399 . S
C506 C507 1.385 . S
C507 H493 0.931 . S
C507 C506 1.385 . S
C507 C508 1.389 . S
C508 C507 1.389 . S
C508 C509 1.387 . S
C509 H494 0.930 . S
C509 C504 1.390 . S
C509 C508 1.387 . S
H510 C522 0.930 1_556 S
H511 C524 0.930 . S
H512 C525 0.930 . S
H513 C529 0.959 . S
H514 C529 0.959 1_655 S
H515 C529 0.961 . S
H516 C530 0.960 . S
H517 C530 0.961 . S
H518 C530 0.959 1_554 S
H519 C533 0.929 . S
H520 C534 0.931 . S
H521 C536 0.930 1_556 S
C522 H510 0.930 1_554 S
C522 C523 1.399 . S
C522 C527 1.399 . S
C523 C522 1.399 . S
C523 C524 1.376 . S
C524 H511 0.930 . S
C524 C523 1.376 . S
C524 C525 1.388 . S
C525 H512 0.930 . S
C525 C524 1.388 . S
C525 C526 1.390 . S
C526 C525 1.390 . S
C526 C527 1.394 . S
C526 C532 1.465 1_455 S
C527 C522 1.399 . S
C527 C526 1.394 . S
C527 C528 1.516 1_454 S
C528 C527 1.516 1_656 S
C528 C529 1.502 1_655 S
C528 C530 1.561 . S
C528 C531 1.526 1_556 S
C529 H513 0.959 . S
C529 H514 0.959 1_455 S
C529 H515 0.961 . S
C529 C528 1.502 1_455 S
C530 H516 0.960 . S
C530 H517 0.961 . S
C530 H518 0.959 1_556 S
C530 C528 1.561 . S
C531 C528 1.526 1_554 S
C531 C532 1.396 . S
C531 C536 1.390 . S
C532 C526 1.465 1_655 S
C532 C531 1.396 . S
C532 C533 1.399 . S
C533 H519 0.929 . S
C533 C532 1.399 . S
C533 C534 1.385 . S
C534 H520 0.931 . S
C534 C533 1.385 . S
C534 C535 1.389 . S
C535 C534 1.389 . S
C535 C536 1.387 . S
C536 H521 0.930 1_554 S
C536 C531 1.390 . S
C536 C535 1.387 . S
H537 C549 0.930 . S
H538 C551 0.930 . S
H539 C552 0.930 . S
H540 C556 0.959 . S
H541 C556 0.959 . S
H542 C556 0.961 . S
H543 C557 0.960 . S
H544 C557 0.961 1_545 S
H545 C557 0.959 . S
H546 C560 0.936 . S
H547 C561 0.931 . S
H548 C563 0.930 . S
C549 H537 0.930 . S
C549 C550 1.399 . S
C549 C554 1.399 . S
C550 C549 1.399 . S
C550 C551 1.376 . S
C551 H538 0.930 . S
C551 C550 1.376 . S
C551 C552 1.388 . S
C552 H539 0.930 . S
C552 C551 1.388 . S
C552 C553 1.390 . S
C553 C552 1.390 . S
C553 C554 1.394 . S
C553 C559 1.465 . S
C554 C549 1.399 . S
C554 C553 1.394 . S
C554 C555 1.516 1_565 S
C555 C554 1.516 1_545 S
C555 C556 1.502 . S
C555 C557 1.561 1_545 S
C555 C558 1.526 . S
C556 H540 0.959 . S
C556 H541 0.959 . S
C556 H542 0.961 . S
C556 C555 1.502 . S
C557 H543 0.960 . S
C557 H544 0.961 1_565 S
C557 H545 0.959 . S
C557 C555 1.561 1_565 S
C558 C555 1.526 . S
C558 C559 1.396 1_545 S
C558 C563 1.390 . S
C559 C553 1.465 . S
C559 C558 1.396 1_565 S
C559 C560 1.394 . S
C560 H546 0.936 . S
C560 C559 1.394 . S
C560 C561 1.384 1_565 S
C561 H547 0.931 . S
C561 C560 1.384 1_545 S
C561 C562 1.389 . S
C562 C561 1.389 . S
C562 C563 1.387 . S
C563 H548 0.930 . S
C563 C558 1.390 . S
C563 C562 1.387 . S
H564 C576 0.930 . S
H565 C578 0.930 . S
H566 C579 0.930 . S
H567 C583 0.959 . S
H568 C583 0.959 . S
H569 C583 0.961 . S
H570 C584 0.960 . S
H571 C584 0.961 . S
H572 C584 0.959 . S
H573 C587 0.929 . S
H574 C588 0.931 . S
H575 C590 0.930 . S
C576 H564 0.930 . S
C576 C577 1.399 . S
C576 C581 1.399 . S
C577 C576 1.399 . S
C577 C578 1.376 . S
C578 H565 0.930 . S
C578 C577 1.376 . S
C578 C579 1.388 . S
C579 H566 0.930 . S
C579 C578 1.388 . S
C579 C580 1.390 . S
C580 C579 1.390 . S
C580 C581 1.394 . S
C580 C586 1.465 . S
C581 C576 1.399 . S
C581 C580 1.394 . S
C581 C582 1.516 . S
C582 C581 1.516 . S
C582 C583 1.502 . S
C582 C584 1.561 . S
C582 C585 1.526 . S
C583 H567 0.959 . S
C583 H568 0.959 . S
C583 H569 0.961 . S
C583 C582 1.502 . S
C584 H570 0.960 . S
C584 H571 0.961 . S
C584 H572 0.959 . S
C584 C582 1.561 . S
C585 C582 1.526 . S
C585 C586 1.396 . S
C585 C590 1.390 . S
C586 C580 1.465 . S
C586 C585 1.396 . S
C586 C587 1.399 . S
C587 H573 0.929 . S
C587 C586 1.399 . S
C587 C588 1.385 . S
C588 H574 0.931 . S
C588 C587 1.385 . S
C588 C589 1.389 . S
C589 C588 1.389 . S
C589 C590 1.387 . S
C590 H575 0.930 . S
C590 C585 1.390 . S
C590 C589 1.387 . S
H591 C603 0.930 . S
H592 C605 0.930 . S
H593 C606 0.930 . S
H594 C610 0.959 . S
H595 C610 0.959 . S
H596 C610 0.961 . S
H597 C611 0.960 . S
H598 C611 0.961 . S
H599 C611 0.959 . S
H600 C614 0.929 . S
H601 C615 0.931 . S
H602 C617 0.930 . S
C603 H591 0.930 . S
C603 C604 1.399 . S
C603 C608 1.399 . S
C604 C603 1.399 . S
C604 C605 1.376 . S
C605 H592 0.930 . S
C605 C604 1.376 . S
C605 C606 1.388 . S
C606 H593 0.930 . S
C606 C605 1.388 . S
C606 C607 1.390 . S
C607 C606 1.390 . S
C607 C608 1.394 . S
C607 C613 1.465 . S
C608 C603 1.399 . S
C608 C607 1.394 . S
C608 C609 1.516 . S
C609 C608 1.516 . S
C609 C610 1.502 1_655 S
C609 C611 1.561 . S
C609 C612 1.526 . S
C610 H594 0.959 . S
C610 H595 0.959 . S
C610 H596 0.961 . S
C610 C609 1.502 1_455 S
C611 H597 0.960 . S
C611 H598 0.961 . S
C611 H599 0.959 . S
C611 C609 1.561 . S
C612 C609 1.526 . S
C612 C613 1.396 . S
C612 C617 1.390 1_655 S
C613 C607 1.465 . S
C613 C612 1.396 . S
C613 C614 1.399 . S
C614 H600 0.929 . S
C614 C613 1.399 . S
C614 C615 1.385 . S
C615 H601 0.931 . S
C615 C614 1.385 . S
C615 C616 1.389 1_655 S
C616 C615 1.389 1_455 S
C616 C617 1.387 . S
C617 H602 0.930 . S
C617 C612 1.390 1_455 S
C617 C616 1.387 . S
H618 C630 0.930 . S
H619 C632 0.930 . S
H620 C633 0.930 . S
H621 C637 0.959 . S
H622 C637 0.959 . S
H623 C637 0.961 . S
H624 C638 0.960 . S
H625 C638 0.961 . S
H626 C638 0.959 . S
H627 C641 0.929 . S
H628 C642 0.931 . S
H629 C644 0.930 . S
C630 H618 0.930 . S
C630 C631 1.399 . S
C630 C635 1.399 . S
C631 C630 1.399 . S
C631 C632 1.376 . S
C632 H619 0.930 . S
C632 C631 1.376 . S
C632 C633 1.388 . S
C633 H620 0.930 . S
C633 C632 1.388 . S
C633 C634 1.390 . S
C634 C633 1.390 . S
C634 C635 1.394 . S
C634 C640 1.465 . S
C635 C630 1.399 . S
C635 C634 1.394 . S
C635 C636 1.516 . S
C636 C635 1.516 . S
C636 C637 1.502 . S
C636 C638 1.561 1_565 S
C636 C639 1.526 . S
C637 H621 0.959 . S
C637 H622 0.959 . S
C637 H623 0.961 . S
C637 C636 1.502 . S
C638 H624 0.960 . S
C638 H625 0.961 . S
C638 H626 0.959 . S
C638 C636 1.561 1_545 S
C639 C636 1.526 . S
C639 C640 1.396 . S
C639 C644 1.390 1_565 S
C640 C634 1.465 . S
C640 C639 1.396 . S
C640 C641 1.399 . S
C641 H627 0.929 . S
C641 C640 1.399 . S
C641 C642 1.385 . S
C642 H628 0.931 . S
C642 C641 1.385 . S
C642 C643 1.389 1_565 S
C643 C642 1.389 1_545 S
C643 C644 1.387 . S
C644 H629 0.930 . S
C644 C639 1.390 1_545 S
C644 C643 1.387 . S
H645 C657 0.930 . S
H646 C659 0.930 . S
H647 C660 0.930 . S
H648 C664 0.959 . S
H649 C664 0.959 . S
H650 C664 0.961 . S
H651 C665 0.960 . S
H652 C665 0.961 . S
H653 C665 0.959 . S
H654 C668 0.929 . S
H655 C669 0.931 . S
H656 C671 0.930 . S
C657 H645 0.930 . S
C657 C658 1.399 . S
C657 C662 1.399 . S
C658 C657 1.399 . S
C658 C659 1.376 . S
C659 H646 0.930 . S
C659 C658 1.376 . S
C659 C660 1.388 . S
C660 H647 0.930 . S
C660 C659 1.388 . S
C660 C661 1.390 . S
C661 C660 1.390 . S
C661 C662 1.394 . S
C661 C667 1.465 . S
C662 C657 1.399 . S
C662 C661 1.394 . S
C662 C663 1.516 . S
C663 C662 1.516 . S
C663 C664 1.502 . S
C663 C665 1.561 . S
C663 C666 1.526 . S
C664 H648 0.959 . S
C664 H649 0.959 . S
C664 H650 0.961 . S
C664 C663 1.502 . S
C665 H651 0.960 . S
C665 H652 0.961 . S
C665 H653 0.959 . S
C665 C663 1.561 . S
C666 C663 1.526 . S
C666 C667 1.396 . S
C666 C671 1.390 . S
C667 C661 1.465 . S
C667 C666 1.396 . S
C667 C668 1.399 . S
C668 H654 0.929 . S
C668 C667 1.399 . S
C668 C669 1.385 . S
C669 H655 0.931 . S
C669 C668 1.385 . S
C669 C670 1.389 . S
C670 C669 1.389 . S
C670 C671 1.387 . S
C671 H656 0.930 . S
C671 C666 1.390 . S
C671 C670 1.387 . S
H672 C684 0.930 . S
H673 C686 0.930 . S
H674 C687 0.930 . S
H675 C691 0.959 . S
H676 C691 0.959 . S
H677 C691 0.961 . S
H678 C692 0.960 . S
H679 C692 0.961 . S
H680 C692 0.959 . S
H681 C695 0.929 . S
H682 C696 0.931 . S
H683 C698 0.930 . S
C684 H672 0.930 . S
C684 C685 1.399 . S
C684 C689 1.399 . S
C685 C684 1.399 . S
C685 C686 1.376 . S
C686 H673 0.930 . S
C686 C685 1.376 . S
C686 C687 1.388 . S
C687 H674 0.930 . S
C687 C686 1.388 . S
C687 C688 1.390 . S
C688 C687 1.390 . S
C688 C689 1.394 . S
C688 C694 1.465 . S
C689 C684 1.399 . S
C689 C688 1.394 . S
C689 C690 1.516 . S
C690 C689 1.516 . S
C690 C691 1.502 . S
C690 C692 1.561 1_455 S
C690 C693 1.526 . S
C691 H675 0.959 . S
C691 H676 0.959 . S
C691 H677 0.961 . S
C691 C690 1.502 . S
C692 H678 0.960 . S
C692 H679 0.961 . S
C692 H680 0.959 . S
C692 C690 1.561 1_655 S
C693 C690 1.526 . S
C693 C694 1.396 . S
C693 C698 1.390 1_455 S
C694 C688 1.465 . S
C694 C693 1.396 . S
C694 C695 1.399 . S
C695 H681 0.929 . S
C695 C694 1.399 . S
C695 C696 1.385 . S
C696 H682 0.931 . S
C696 C695 1.385 . S
C696 C697 1.389 1_455 S
C697 C696 1.389 1_655 S
C697 C698 1.387 . S
C698 H683 0.930 . S
C698 C693 1.390 1_655 S
C698 C697 1.387 . S
H699 C711 0.930 . S
H700 C713 0.930 . S
H701 C714 0.930 . S
H702 C718 0.959 . S
H703 C718 0.959 . S
H704 C718 0.961 . S
H705 C719 0.960 . S
H706 C719 0.961 . S
H707 C719 0.959 . S
H708 C722 0.929 . S
H709 C723 0.931 . S
H710 C725 0.930 . S
C711 H699 0.930 . S
C711 C712 1.399 . S
C711 C716 1.399 . S
C712 C711 1.399 . S
C712 C713 1.376 . S
C713 H700 0.930 . S
C713 C712 1.376 . S
C713 C714 1.388 . S
C714 H701 0.930 . S
C714 C713 1.388 . S
C714 C715 1.390 . S
C715 C714 1.390 . S
C715 C716 1.394 . S
C715 C721 1.465 . S
C716 C711 1.399 . S
C716 C715 1.394 . S
C716 C717 1.516 . S
C717 C716 1.516 . S
C717 C718 1.502 . S
C717 C719 1.561 . S
C717 C720 1.526 . S
C718 H702 0.959 . S
C718 H703 0.959 . S
C718 H704 0.961 . S
C718 C717 1.502 . S
C719 H705 0.960 . S
C719 H706 0.961 . S
C719 H707 0.959 . S
C719 C717 1.561 . S
C720 C717 1.526 . S
C720 C721 1.396 . S
C720 C725 1.390 . S
C721 C715 1.465 . S
C721 C720 1.396 . S
C721 C722 1.399 1_545 S
C722 H708 0.929 . S
C722 C721 1.399 1_565 S
C722 C723 1.385 . S
C723 H709 0.931 . S
C723 C722 1.385 . S
C723 C724 1.389 . S
C724 C723 1.389 . S
C724 C725 1.387 1_565 S
C725 H710 0.930 . S
C725 C720 1.390 . S
C725 C724 1.387 1_545 S
C253 C175 1.193 . S
C265 C10 1.182 . S
C280 C215 1.192 . S
C292 C50 1.170 . S
C307 C15 1.194 . S
C319 C90 1.206 . S
C334 C55 1.192 . S
C346 C130 1.171 . S
C361 C95 1.191 . S
C373 C170 1.170 . S
C388 C135 1.193 . S
C400 C210 1.190 . S
C415 C9 1.053 . S
C427 C129 1.074 . S
C442 C169 1.091 . S
C454 C49 1.067 . S
C469 C209 1.095 . S
C481 C89 1.081 . S
C496 C98 0.904 . S
C508 C218 1.012 . S
C523 C18 1.016 . S
C535 C138 1.012 . S
C550 C178 0.899 . S
C562 C58 1.021 . S
C577 C206 1.317 . S
C589 C19 1.359 . S
C604 C59 1.346 . S
C616 C6 1.303 . S
C631 C99 1.338 . S
C643 C46 1.354 . S
C658 C86 1.332 . S
C670 C139 1.338 . S
C685 C179 1.340 . S
C697 C126 1.356 . S
C712 C219 1.359 . S
C724 C166 1.302 . S
