# Generated by pormake.
# Topology wjf, (4)-cn, num edge types: 1
# Building blocks:
#     Node 0, Type 0, BuildingBlock: CEKHIL_clean_sbu_0, # of connection points: 4
#     Node 1, Type 0, BuildingBlock: CEKHIL_clean_sbu_0, # of connection points: 4
#     Node 2, Type 0, BuildingBlock: CEKHIL_clean_sbu_0, # of connection points: 4
#     Node 3, Type 0, BuildingBlock: CEKHIL_clean_sbu_0, # of connection points: 4
#     Node 4, Type 0, BuildingBlock: CEKHIL_clean_sbu_0, # of connection points: 4
#     Node 5, Type 0, BuildingBlock: CEKHIL_clean_sbu_0, # of connection points: 4
#     Node 6, Type 0, BuildingBlock: CEKHIL_clean_sbu_0, # of connection points: 4
#     Node 7, Type 0, BuildingBlock: CEKHIL_clean_sbu_0, # of connection points: 4
#     Node 8, Type 0, BuildingBlock: CEKHIL_clean_sbu_0, # of connection points: 4
#     Node 9, Type 0, BuildingBlock: CEKHIL_clean_sbu_0, # of connection points: 4
#     Node 10, Type 0, BuildingBlock: CEKHIL_clean_sbu_0, # of connection points: 4
#     Node 11, Type 0, BuildingBlock: CEKHIL_clean_sbu_0, # of connection points: 4
#     Edge 12, Type (0, 0), BuildingBlock: AJUNOK_clean_linker_0, # of connection points: 2
#     Edge 13, Type (0, 0), BuildingBlock: AJUNOK_clean_linker_0, # of connection points: 2
#     Edge 14, Type (0, 0), BuildingBlock: AJUNOK_clean_linker_0, # of connection points: 2
#     Edge 15, Type (0, 0), BuildingBlock: AJUNOK_clean_linker_0, # of connection points: 2
#     Edge 16, Type (0, 0), BuildingBlock: AJUNOK_clean_linker_0, # of connection points: 2
#     Edge 17, Type (0, 0), BuildingBlock: AJUNOK_clean_linker_0, # of connection points: 2
#     Edge 18, Type (0, 0), BuildingBlock: AJUNOK_clean_linker_0, # of connection points: 2
#     Edge 19, Type (0, 0), BuildingBlock: AJUNOK_clean_linker_0, # of connection points: 2
#     Edge 20, Type (0, 0), BuildingBlock: AJUNOK_clean_linker_0, # of connection points: 2
#     Edge 21, Type (0, 0), BuildingBlock: AJUNOK_clean_linker_0, # of connection points: 2
#     Edge 22, Type (0, 0), BuildingBlock: AJUNOK_clean_linker_0, # of connection points: 2
#     Edge 23, Type (0, 0), BuildingBlock: AJUNOK_clean_linker_0, # of connection points: 2
#     Edge 24, Type (0, 0), BuildingBlock: AJUNOK_clean_linker_0, # of connection points: 2
#     Edge 25, Type (0, 0), BuildingBlock: AJUNOK_clean_linker_0, # of connection points: 2
#     Edge 26, Type (0, 0), BuildingBlock: AJUNOK_clean_linker_0, # of connection points: 2
#     Edge 27, Type (0, 0), BuildingBlock: AJUNOK_clean_linker_0, # of connection points: 2
#     Edge 28, Type (0, 0), BuildingBlock: AJUNOK_clean_linker_0, # of connection points: 2
#     Edge 29, Type (0, 0), BuildingBlock: AJUNOK_clean_linker_0, # of connection points: 2
#     Edge 30, Type (0, 0), BuildingBlock: AJUNOK_clean_linker_0, # of connection points: 2
#     Edge 31, Type (0, 0), BuildingBlock: AJUNOK_clean_linker_0, # of connection points: 2
#     Edge 32, Type (0, 0), BuildingBlock: AJUNOK_clean_linker_0, # of connection points: 2
#     Edge 33, Type (0, 0), BuildingBlock: AJUNOK_clean_linker_0, # of connection points: 2
#     Edge 34, Type (0, 0), BuildingBlock: AJUNOK_clean_linker_0, # of connection points: 2
#     Edge 35, Type (0, 0), BuildingBlock: AJUNOK_clean_linker_0, # of connection points: 2
# Relax obj value: 0.108
# Max RMSD: 0.131
# Mean RMSD: 0.131
data_MOF--net-wjf--node1-CEKHIL_clean_sbu_0--edge1-AJUNOK_clean_linker_0
_symmetry_space_group_name_H-M    P1
_symmetry_Int_Tables_number       1
_symmetry_cell_setting            triclinic
loop_
_symmetry_equiv_pos_as_xyz
'x, y, z'
_cell_length_a     37.253488
_cell_length_b     37.289938
_cell_length_c     19.801995
_cell_angle_alpha  89.970595
_cell_angle_beta   89.8909
_cell_angle_gamma 120.0561
loop_
_atom_site_label
_atom_site_type_symbol
_atom_site_fract_x
_atom_site_fract_y
_atom_site_fract_z
_atom_type_partial_charge
Co0 Co 0.33518 0.39615 0.09601 0.0
O1 O 0.27592 0.36635 0.08456 0.0
O2 O 0.31661 0.43191 0.05623 0.0
C3 C 0.33661 0.3745 0.20152 0.0
O4 O 0.39769 0.43708 0.10195 0.0
Co5 Co 0.38195 0.34702 0.11416 0.0
O6 O 0.43085 0.40263 0.12981 0.0
C7 C 0.3493 0.35037 0.98108 0.0
C8 C 0.27939 0.39974 0.05791 0.0
C9 C 0.43095 0.43627 0.11771 0.0
O10 O 0.34173 0.37826 0.00349 0.0
O11 O 0.36199 0.33116 0.01889 0.0
O12 O 0.32934 0.40481 0.19181 0.0
O13 O 0.33813 0.35581 0.14775 0.0
Co14 Co 0.94832 0.33301 0.42619 0.0
O15 O 0.91778 0.2737 0.41814 0.0
O16 O 0.89314 0.3145 0.3896 0.0
C17 C 0.97427 0.33665 0.53058 0.0
O18 O 0.9715 0.3959 0.42895 0.0
Co19 Co 0.0444 0.37695 0.43557 0.0
O20 O 0.03984 0.42692 0.45158 0.0
C21 C 1.00406 0.34213 0.3068 0.0
C22 C 0.88783 0.27722 0.39189 0.0
C23 C 1.00689 0.42851 0.4414 0.0
O24 O 0.96992 0.33683 0.33185 0.0
O25 O 0.03703 0.35452 0.34172 0.0
O26 O 0.93666 0.32988 0.52314 0.0
O27 O 0.99242 0.33588 0.47551 0.0
Co28 Co 0.62727 0.94435 0.76194 0.0
O29 O 0.65265 0.91045 0.75419 0.0
O30 O 0.58872 0.89094 0.72203 0.0
C31 C 0.64739 0.96666 0.86821 0.0
O32 O 0.59053 0.9708 0.76398 0.0
Co33 Co 0.68258 0.03935 0.77904 0.0
O34 O 0.62907 0.03766 0.79423 0.0
C35 C 0.6765 1.00256 0.64545 0.0
C36 C 0.61851 0.88236 0.72653 0.0
C37 C 0.59417 1.00605 0.78014 0.0
O38 O 0.64829 0.96752 0.66909 0.0
O39 O 0.6965 0.03468 0.68251 0.0
O40 O 0.61488 0.9306 0.85754 0.0
O41 O 0.66901 0.9857 0.81546 0.0
Co42 Co 0.68898 0.62292 0.09548 0.0
O43 O 0.74831 0.65 0.08416 0.0
O44 O 0.70503 0.58456 0.05854 0.0
C45 C 0.68805 0.64654 0.20015 0.0
O46 O 0.62588 0.58444 0.10167 0.0
Co47 Co 0.64663 0.67622 0.10872 0.0
O48 O 0.59613 0.6224 0.12754 0.0
C49 C 0.67705 0.668 0.97656 0.0
C50 C 0.74301 0.61542 0.05962 0.0
C51 C 0.59376 0.58762 0.11657 0.0
O52 O 0.68381 0.64006 0.00136 0.0
O53 O 0.66569 0.68899 0.01267 0.0
O54 O 0.69356 0.61499 0.1921 0.0
O55 O 0.68835 0.66528 0.14518 0.0
Co56 Co 0.07617 0.68709 0.43143 0.0
O57 O 0.10779 0.74664 0.42535 0.0
O58 O 0.13052 0.70515 0.39177 0.0
C59 C 0.05259 0.68265 0.5377 0.0
O60 O 0.05275 0.62437 0.43149 0.0
Co61 Co 0.98066 0.64203 0.44784 0.0
O62 O 0.98526 0.59164 0.46005 0.0
C63 C 0.01743 0.67531 0.31476 0.0
C64 C 0.13721 0.74281 0.39732 0.0
C65 C 0.0184 0.5911 0.44602 0.0
O66 O 0.0531 0.68448 0.33857 0.0
O67 O 0.98483 0.66087 0.35157 0.0
O68 O 0.08952 0.68831 0.52715 0.0
O69 O 0.03312 0.6843 0.48497 0.0
Co70 Co 0.40229 0.0728 0.7619 0.0
O71 O 0.3718 0.10155 0.75148 0.0
O72 O 0.43794 0.12821 0.72519 0.0
C73 C 0.37916 0.0468 0.86629 0.0
O74 O 0.44392 0.05208 0.76725 0.0
Co75 Co 0.35394 0.97677 0.77385 0.0
O76 O 0.40945 0.98388 0.79151 0.0
C77 C 0.35897 0.01547 0.64289 0.0
C78 C 0.40522 0.13232 0.72622 0.0
C79 C 0.44314 0.01784 0.78144 0.0
O80 O 0.38618 0.05054 0.6676 0.0
O81 O 0.3394 0.98271 0.67882 0.0
O82 O 0.40927 0.0848 0.85881 0.0
O83 O 0.36146 0.02805 0.81104 0.0
Co84 Co 0.62154 0.6832 0.56853 0.0
O85 O 0.65014 0.74249 0.58039 0.0
O86 O 0.5844 0.70038 0.60687 0.0
C87 C 0.64443 0.6823 0.46374 0.0
O88 O 0.58152 0.62062 0.56238 0.0
Co89 Co 0.6718 0.63749 0.55259 0.0
O90 O 0.61668 0.58792 0.53658 0.0
C91 C 0.66673 0.66999 0.68496 0.0
C92 C 0.61594 0.73795 0.60577 0.0
C93 C 0.58275 0.58749 0.54771 0.0
O94 O 0.63882 0.67715 0.66155 0.0
O95 O 0.68626 0.65699 0.64844 0.0
O96 O 0.61356 0.68884 0.47254 0.0
O97 O 0.66292 0.68108 0.51801 0.0
Co98 Co 0.94731 0.62081 0.9044 0.0
O99 O 0.91501 0.64798 0.91215 0.0
O100 O 0.89305 0.5833 0.94298 0.0
C101 C 0.97143 0.64154 0.79892 0.0
O102 O 0.97139 0.5821 0.90245 0.0
Co103 Co 0.04285 0.67231 0.89004 0.0
O104 O 0.03896 0.61785 0.87464 0.0
C105 C 1.00478 0.66757 0.02214 0.0
C106 C 0.88591 0.61403 0.93916 0.0
C107 C 1.0059 0.58376 0.88722 0.0
O108 O 0.96968 0.64028 -0.00226 0.0
O109 O 0.03773 0.68651 0.98623 0.0
O110 O 0.93456 0.60988 0.80844 0.0
O111 O 0.99045 0.66214 0.85232 0.0
Co112 Co 0.338 0.94333 0.23537 0.0
O113 O 0.27871 0.91439 0.2475 0.0
O114 O 0.31894 0.88883 0.27488 0.0
C115 C 0.34 0.967 0.13004 0.0
O116 O 0.40039 0.96436 0.2292 0.0
Co117 Co 0.38547 0.03941 0.21835 0.0
O118 O 0.43408 0.03223 0.20261 0.0
C119 C 0.35306 1.00279 0.35135 0.0
C120 C 0.28196 0.88436 0.27421 0.0
C121 C 0.43387 0.99848 0.21419 0.0
O122 O 0.34471 0.96733 0.32808 0.0
O123 O 0.36674 0.03531 0.31461 0.0
O124 O 0.33217 0.92921 0.13949 0.0
O125 O 0.34157 0.9871 0.18401 0.0
Co126 Co 0.39614 0.32914 0.56934 0.0
O127 O 0.36809 0.26986 0.5784 0.0
O128 O 0.4335 0.31153 0.60594 0.0
C129 C 0.3733 0.33189 0.465 0.0
O130 O 0.4352 0.39216 0.56519 0.0
Co131 Co 0.34294 0.37183 0.55934 0.0
O132 O 0.3971 0.42202 0.54088 0.0
C133 C 0.35075 0.33957 0.68951 0.0
C134 C 0.40196 0.27392 0.60387 0.0
C135 C 0.43194 0.42432 0.55127 0.0
O136 O 0.3788 0.33335 0.6637 0.0
O137 O 0.32985 0.35168 0.65483 0.0
O138 O 0.40446 0.32566 0.47255 0.0
O139 O 0.35433 0.33103 0.52009 0.0
Co140 Co 0.07591 0.39566 0.90046 0.0
O141 O 0.10634 0.36678 0.90936 0.0
O142 O 0.13008 0.43149 0.9411 0.0
C143 C 0.05331 0.37575 0.79425 0.0
O144 O 0.05274 0.43534 0.8974 0.0
Co145 Co 0.9799 0.34339 0.88232 0.0
O146 O 0.98526 0.39855 0.86875 0.0
C147 C 0.01612 0.34756 0.01534 0.0
C148 C 0.13584 0.39984 0.93736 0.0
C149 C 0.01776 0.43284 0.88244 0.0
O150 O 0.05143 0.3758 0.99261 0.0
O151 O 0.98416 0.32792 0.97782 0.0
O152 O 0.0906 0.40646 0.8048 0.0
O153 O 0.03335 0.35562 0.84742 0.0
Co154 Co 0.69174 0.07133 0.2345 0.0
O155 O 0.75108 0.10412 0.24024 0.0
O156 O 0.70847 0.12554 0.27363 0.0
C157 C 0.68807 0.04765 0.12879 0.0
O158 O 0.62855 0.0457 0.2341 0.0
Co159 Co 0.65094 0.97597 0.22077 0.0
O160 O 0.59963 0.97849 0.20546 0.0
C161 C 0.68307 0.01438 0.35262 0.0
C162 C 0.74647 0.13292 0.2684 0.0
C163 C 0.5967 0.01035 0.21884 0.0
O164 O 0.69 0.0491 0.32775 0.0
O165 O 0.66991 0.98149 0.31711 0.0
O166 O 0.69252 0.08413 0.13862 0.0
O167 O 0.69078 0.02903 0.18187 0.0
C168 C 0.37113 0.34671 0.27575 0.0
C169 C 0.34496 0.36356 0.26901 0.0
C170 C 0.38008 0.33664 0.33933 0.0
C171 C 0.3624 0.3421 0.39849 0.0
H172 H 0.38542 0.34185 0.23173 0.0
H173 H 0.40092 0.32433 0.342 0.0
S174 S 0.28939 0.38262 0.40709 0.0
N175 N 0.30054 0.38428 0.32604 0.0
N176 N 0.3157 0.36373 0.44533 0.0
C177 C 0.33524 0.35794 0.39208 0.0
C178 C 0.32698 0.36914 0.3274 0.0
C179 C 0.97189 0.33887 0.65656 0.0
C180 C 0.99533 0.34646 0.59709 0.0
C181 C 0.99082 0.34793 0.72021 0.0
C182 C 0.03404 0.36591 0.72671 0.0
H183 H 0.93855 0.32551 0.6541 0.0
H184 H 0.97143 0.34132 0.7645 0.0
S185 S 0.10961 0.39108 0.58753 0.0
N186 N 0.06427 0.37166 0.54953 0.0
N187 N 0.09976 0.39029 0.66897 0.0
C188 C 0.05792 0.37378 0.66795 0.0
C189 C 0.03859 0.3636 0.60319 0.0
C190 C 0.69444 0.99701 0.967 0.0
C191 C 0.65679 0.9865 0.93505 0.0
C192 C 0.70417 0.0164 0.03046 0.0
C193 C 0.67729 0.02732 0.06235 0.0
H194 H 0.7162 0.9897 0.94318 0.0
H195 H 0.73316 0.02349 0.05423 0.0
S196 S 0.57548 0.00745 -0.0013 0.0
N197 N 0.5923 0.98778 0.94019 0.0
N198 N 0.6119 0.02678 0.05723 0.0
C199 C 0.63993 0.01762 0.03035 0.0
C200 C 0.62932 0.99652 0.9671 0.0
C201 C 0.68228 0.63872 0.3258 0.0
C202 C 0.67825 0.6576 0.26697 0.0
C203 C 0.67196 0.64743 0.38947 0.0
C204 C 0.65625 0.67454 0.39649 0.0
H205 H 0.69349 0.61699 0.32279 0.0
H206 H 0.67554 0.63213 0.43325 0.0
S207 S 0.64189 0.73397 0.25972 0.0
N208 N 0.65981 0.70689 0.2211 0.0
N209 N 0.63862 0.72149 0.34036 0.0
C210 C 0.65235 0.6939 0.33852 0.0
C211 C 0.66387 0.68593 0.27387 0.0
C212 C 1.00418 0.68981 0.70181 0.0
C213 C 0.99184 0.65131 0.73233 0.0
C214 C 0.02365 0.69968 0.63825 0.0
C215 C 0.03276 0.67197 0.60473 0.0
H216 H 0.99813 0.71212 0.72673 0.0
H217 H 0.03203 0.7293 0.61551 0.0
S218 S 1.00825 0.56798 0.66471 0.0
N219 N 0.98991 0.58538 0.72449 0.0
N220 N 0.02893 0.60504 0.60714 0.0
C221 C 0.0214 0.63381 0.63543 0.0
C222 C 1.00028 0.62317 0.69886 0.0
C223 C 0.37546 0.0296 0.05591 0.0
C224 C 0.34895 0.98658 0.06257 0.0
C225 C 0.38509 0.04873 0.99226 0.0
C226 C 0.36783 0.02571 0.93298 0.0
H227 H 0.38949 0.04863 0.10004 0.0
H228 H 0.40614 0.08186 0.98966 0.0
S229 S 0.29406 0.91229 0.92412 0.0
N230 N 0.30456 0.92162 0.00527 0.0
N231 N 0.32107 0.95751 0.88594 0.0
C232 C 0.34034 0.98272 0.93932 0.0
C233 C 0.33134 0.96317 0.00403 0.0
C234 C 0.2085 0.43713 0.98546 0.0
C235 C 0.17266 0.39989 0.96718 0.0
C236 C 0.2431 0.43711 0.01438 0.0
C237 C 0.24283 0.39981 0.02737 0.0
H238 H 0.20999 0.46655 0.97701 0.0
H239 H 0.27004 0.4665 0.02727 0.0
S240 S 0.15663 0.2938 0.98907 0.0
N241 N 0.13942 0.32467 0.96418 0.0
N242 N 0.2036 0.32466 0.01878 0.0
C243 C 0.20712 0.36243 0.00947 0.0
C244 C 0.1723 0.36247 0.97936 0.0
C245 C 0.81327 0.2389 0.3519 0.0
C246 C 0.85176 0.24083 0.36008 0.0
C247 C 0.77926 0.20413 0.32199 0.0
C248 C 0.78278 0.17044 0.29778 0.0
H249 H 0.8092 0.26411 0.36964 0.0
H250 H 0.75005 0.20368 0.31782 0.0
S251 S 0.87789 0.16166 0.30341 0.0
N252 N 0.89169 0.20663 0.33918 0.0
N253 N 0.82877 0.14225 0.28265 0.0
C254 C 0.8215 0.17262 0.30449 0.0
C255 C 0.85568 0.20751 0.33567 0.0
C256 C 0.6526 0.84353 0.6846 0.0
C257 C 0.61577 0.8443 0.69704 0.0
C258 C 0.65206 0.80925 0.6545 0.0
C259 C 0.61462 0.77378 0.63627 0.0
H260 H 0.68243 0.86995 0.69733 0.0
H261 H 0.68142 0.81053 0.64614 0.0
S262 S 0.50923 0.75927 0.6592 0.0
N263 N 0.54054 0.8062 0.68902 0.0
N264 N 0.53946 0.74124 0.63376 0.0
C265 C 0.57739 0.77373 0.64915 0.0
C266 C 0.57798 0.80909 0.67904 0.0
C267 C 0.81506 0.65006 0.01294 0.0
C268 C 0.77857 0.61308 0.02984 0.0
C269 C 0.84897 0.64972 0.98282 0.0
C270 C 0.84834 0.61238 0.969 0.0
H271 H 0.81743 0.6798 0.02225 0.0
H272 H 0.87618 0.67921 0.97106 0.0
S273 S 0.76065 0.50673 0.00436 0.0
N274 N 0.74386 0.53783 0.03055 0.0
N275 N 0.80809 0.5372 0.97526 0.0
C276 C 0.81224 0.57505 0.98617 0.0
C277 C 0.77727 0.57539 0.01609 0.0
C278 C 0.20805 0.77564 0.34234 0.0
C279 C 0.17498 0.77948 0.36896 0.0
C280 C 0.24291 0.80967 0.31252 0.0
C281 C 0.24562 0.84859 0.3069 0.0
H282 H 0.20696 0.74609 0.34422 0.0
H283 H 0.26751 0.80523 0.29259 0.0
S284 S 0.16891 0.87603 0.37193 0.0
N285 N 0.14863 0.82645 0.39035 0.0
N286 N 0.21322 0.8895 0.3335 0.0
C287 C 0.21312 0.85298 0.33414 0.0
C288 C 0.1781 0.81872 0.36536 0.0
C289 C 0.44131 0.20641 0.68401 0.0
C290 C 0.40451 0.16848 0.69534 0.0
C291 C 0.44051 0.24044 0.65432 0.0
C292 C 0.40296 0.23758 0.63359 0.0
H293 H 0.47091 0.21001 0.69882 0.0
H294 H 0.46954 0.26913 0.64743 0.0
S295 S 0.29802 0.14448 0.64969 0.0
N296 N 0.32955 0.13001 0.68206 0.0
N297 N 0.32804 0.19305 0.62603 0.0
C298 C 0.36607 0.19955 0.64395 0.0
C299 C 0.36684 0.1653 0.67483 0.0
C300 C 0.32824 0.35803 0.79618 0.0
C301 C 0.34536 0.33653 0.76368 0.0
C302 C 0.32825 0.36086 0.86651 0.0
C303 C 0.34526 0.3422 0.90739 0.0
H304 H 0.3163 0.37441 0.76718 0.0
H305 H 0.31584 0.37895 0.8887 0.0
S306 S 0.38815 0.2768 0.84706 0.0
N307 N 0.37545 0.29217 0.77752 0.0
N308 N 0.37571 0.29758 0.90996 0.0
C309 C 0.36005 0.31827 0.87565 0.0
C310 C 0.36009 0.31546 0.80379 0.0
C311 C 0.04505 0.35859 0.20028 0.0
C312 C 1.00641 0.33752 0.23306 0.0
C313 C 0.04785 0.3599 0.12991 0.0
C314 C 0.01212 0.34008 0.08926 0.0
H315 H 0.07339 0.37589 0.22898 0.0
H316 H 0.07835 0.37787 0.10741 0.0
S317 S 0.90389 0.27465 0.15096 0.0
N318 N 0.93199 0.29196 0.22021 0.0
N319 N 0.93706 0.29444 0.08759 0.0
C320 C 0.97342 0.31634 0.12151 0.0
C321 C 0.97061 0.31513 0.19344 0.0
C322 C 0.66287 0.97054 0.53033 0.0
C323 C 0.6837 1.00615 0.57112 0.0
C324 C 0.66457 0.97325 0.45975 0.0
C325 C 0.68701 0.0117 0.42677 0.0
H326 H 0.64391 0.94025 0.55289 0.0
H327 H 0.64659 0.94508 0.43099 0.0
S328 S 0.75195 0.11376 0.50919 0.0
N329 N 0.73113 0.0808 0.57253 0.0
N330 N 0.73428 0.08573 0.43994 0.0
C331 C 0.71006 0.0473 0.46663 0.0
C332 C 0.70846 0.04456 0.53867 0.0
C333 C 0.68886 0.65062 0.79116 0.0
C334 C 0.67439 0.67437 0.75845 0.0
C335 C 0.69125 0.65017 0.8616 0.0
C336 C 0.67944 0.6736 0.90216 0.0
H337 H 0.69675 0.63081 0.76241 0.0
H338 H 0.70123 0.63018 0.88427 0.0
S339 S 0.64549 0.74604 0.83991 0.0
N340 N 0.65253 0.72553 0.77092 0.0
N341 N 0.65694 0.72483 0.90333 0.0
C342 C 0.66742 0.6996 0.86967 0.0
C343 C 0.66486 0.69989 0.79786 0.0
C344 C 0.04921 0.69262 0.19917 0.0
C345 C 0.01373 0.67851 0.24039 0.0
C346 C 0.04628 0.69084 0.12864 0.0
C347 C 1.00773 0.67476 0.09615 0.0
H348 H 0.07955 0.70389 0.22135 0.0
H349 H 0.07434 0.70052 0.0996 0.0
S350 S 0.90605 0.63965 0.17964 0.0
N351 N 0.93918 0.65214 0.2426 0.0
N352 N 0.93382 0.6489 0.1101 0.0
C353 C 0.9723 0.66298 0.13636 0.0
C354 C 0.97526 0.66487 0.20835 0.0
C355 C 0.37528 0.04445 0.45727 0.0
C356 C 0.3496 1.00652 0.42498 0.0
C357 C 0.37676 0.04734 0.52773 0.0
C358 C 0.35251 0.01243 0.56871 0.0
H359 H 0.39582 0.07177 0.42811 0.0
H360 H 0.39826 0.077 0.55 0.0
S361 S 0.27482 0.90738 0.50782 0.0
N362 N 0.29566 0.93447 0.43841 0.0
N363 N 0.2982 0.9397 0.57088 0.0
C364 C 0.32456 0.97489 0.53673 0.0
C365 C 0.32322 0.97198 0.4649 0.0
C366 C 0.50887 0.47398 0.12042 0.0
C367 C 0.47178 0.47556 0.11937 0.0
C368 C 0.54794 0.51012 0.11986 0.0
C369 C 0.55184 0.54962 0.11885 0.0
H370 H 0.50794 0.44448 0.12075 0.0
H371 H 0.57529 0.50694 0.12019 0.0
S372 S 0.46446 0.57123 0.11718 0.0
N373 N 0.44165 0.52022 0.11825 0.0
N374 N 0.51472 0.58808 0.11739 0.0
C375 C 0.51497 0.55174 0.1186 0.0
C376 C 0.47514 0.51483 0.11874 0.0
C377 C 0.97824 0.5132 0.45431 0.0
C378 C 0.01657 0.55015 0.44535 0.0
C379 C 0.97523 0.47411 0.45257 0.0
C380 C 1.01045 0.47017 0.44248 0.0
H381 H 0.95004 0.51428 0.46241 0.0
H382 H 0.94505 0.44682 0.4598 0.0
S383 S 0.11825 0.55691 0.41525 0.0
N384 N 0.09057 0.57986 0.42535 0.0
N385 N 0.08504 0.50683 0.42209 0.0
C386 C 0.04903 0.50683 0.43347 0.0
C387 C 0.05205 0.5466 0.4349 0.0
C388 C 0.51681 0.97483 0.7779 0.0
C389 C 0.55639 0.0103 0.78205 0.0
C390 C 0.48075 0.97778 0.77863 0.0
C391 C 0.48243 0.01638 0.783 0.0
H392 H 0.51345 0.94433 0.77405 0.0
H393 H 0.45122 0.94932 0.77474 0.0
S394 S 0.57821 0.11894 0.79675 0.0
N395 N 0.59502 0.08561 0.79212 0.0
N396 N 0.52717 0.0909 0.7931 0.0
C397 C 0.52174 0.05216 0.78771 0.0
C398 C 0.55862 0.04919 0.78745 0.0
C399 C 0.5454 0.50961 0.54234 0.0
C400 C 0.54359 0.5465 0.54651 0.0
C401 C 0.5094 0.47043 0.54385 0.0
C402 C 0.46984 0.46625 0.54898 0.0
H403 H 0.57498 0.51079 0.5387 0.0
H404 H 0.5127 0.44322 0.5408 0.0
S405 S 0.44755 0.55289 0.56097 0.0
N406 N 0.49853 0.57602 0.55561 0.0
N407 N 0.43103 0.50278 0.55838 0.0
C408 C 0.46747 0.50288 0.55261 0.0
C409 C 0.5042 0.5428 0.55143 0.0
C410 C 0.04668 0.5466 0.88181 0.0
C411 C 1.00793 0.54478 0.88519 0.0
C412 C 0.04969 0.51051 0.88107 0.0
C413 C 0.01408 0.47092 0.88295 0.0
H414 H 0.07517 0.57622 0.88034 0.0
H415 H 0.08023 0.51375 0.87865 0.0
S416 S 0.90495 0.44874 0.89164 0.0
N417 N 0.93308 0.49974 0.89004 0.0
N418 N 0.93851 0.43219 0.88869 0.0
C419 C 0.97506 0.46863 0.88595 0.0
C420 C 0.97204 0.50538 0.88708 0.0
C421 C 0.55078 0.04173 0.21547 0.0
C422 C 0.55473 1.00617 0.21671 0.0
C423 C 0.51174 0.03872 0.21362 0.0
C424 C 0.47468 1.0 0.21349 0.0
H425 H 0.57808 0.07231 0.2157 0.0
H426 H 0.51079 0.06728 0.21319 0.0
S427 S 0.46756 0.8971 0.21552 0.0
N428 N 0.51781 0.93061 0.21697 0.0
N429 N 0.44465 0.92519 0.21373 0.0
C430 C 0.47809 0.96411 0.21433 0.0
C431 C 0.51795 0.96714 0.2158 0.0
loop_
_geom_bond_atom_site_label_1
_geom_bond_atom_site_label_2
_geom_bond_distance
_geom_bond_site_symmetry_2
_ccdc_geom_bond_type
Co0 O1 2.216 . S
Co0 O2 2.091 . S
Co0 O4 2.004 . S
Co0 O10 2.021 1_554 S
Co0 O12 2.137 . S
Co0 O13 2.244 . S
O1 Co0 2.216 . S
O1 C8 1.247 . S
O2 Co0 2.091 . S
O2 C8 1.261 . S
C3 O12 1.247 . S
C3 O13 1.272 . S
O4 Co0 2.004 . S
O4 C9 1.259 . S
Co5 O6 2.061 . S
Co5 O11 2.052 1_554 S
Co5 O13 2.135 . S
O6 Co5 2.061 . S
O6 C9 1.235 . S
C7 O10 1.238 . S
C7 O11 1.241 . S
C8 O1 1.247 . S
C8 O2 1.261 . S
C9 O4 1.259 . S
C9 O6 1.235 . S
O10 Co0 2.021 1_556 S
O10 C7 1.238 . S
O11 Co5 2.052 1_556 S
O11 C7 1.241 . S
O12 Co0 2.137 . S
O12 C3 1.247 . S
O13 Co0 2.244 . S
O13 C3 1.272 . S
O13 Co5 2.135 . S
Co14 O15 2.216 . S
Co14 O16 2.091 . S
Co14 O18 2.004 . S
Co14 O24 2.021 . S
Co14 O26 2.137 . S
Co14 O27 2.244 1_655 S
O15 Co14 2.216 . S
O15 C22 1.247 . S
O16 Co14 2.091 . S
O16 C22 1.261 . S
C17 O26 1.247 . S
C17 O27 1.272 1_655 S
O18 Co14 2.004 . S
O18 C23 1.259 . S
Co19 O20 2.061 . S
Co19 O25 2.052 . S
Co19 O27 2.135 . S
O20 Co19 2.061 . S
O20 C23 1.235 1_455 S
C21 O24 1.238 1_455 S
C21 O25 1.241 . S
C22 O15 1.247 . S
C22 O16 1.261 . S
C23 O18 1.259 . S
C23 O20 1.235 1_655 S
O24 Co14 2.021 . S
O24 C21 1.238 1_655 S
O25 Co19 2.052 . S
O25 C21 1.241 . S
O26 Co14 2.137 . S
O26 C17 1.247 . S
O27 Co14 2.244 1_455 S
O27 C17 1.272 1_455 S
O27 Co19 2.135 . S
Co28 O29 2.216 . S
Co28 O30 2.091 . S
Co28 O32 2.004 . S
Co28 O38 2.021 . S
Co28 O40 2.137 . S
Co28 O41 2.244 1_565 S
O29 Co28 2.216 . S
O29 C36 1.247 . S
O30 Co28 2.091 . S
O30 C36 1.261 . S
C31 O40 1.247 . S
C31 O41 1.272 1_565 S
O32 Co28 2.004 . S
O32 C37 1.259 . S
Co33 O34 2.061 . S
Co33 O39 2.052 . S
Co33 O41 2.135 . S
O34 Co33 2.061 . S
O34 C37 1.235 1_545 S
C35 O38 1.238 1_545 S
C35 O39 1.241 . S
C36 O29 1.247 . S
C36 O30 1.261 . S
C37 O32 1.259 . S
C37 O34 1.235 1_565 S
O38 Co28 2.021 . S
O38 C35 1.238 1_565 S
O39 Co33 2.052 . S
O39 C35 1.241 . S
O40 Co28 2.137 . S
O40 C31 1.247 . S
O41 Co28 2.244 1_545 S
O41 C31 1.272 1_545 S
O41 Co33 2.135 . S
Co42 O43 2.216 . S
Co42 O44 2.091 . S
Co42 O46 2.004 . S
Co42 O52 2.021 1_554 S
Co42 O54 2.137 . S
Co42 O55 2.244 . S
O43 Co42 2.216 . S
O43 C50 1.247 . S
O44 Co42 2.091 . S
O44 C50 1.261 . S
C45 O54 1.247 . S
C45 O55 1.272 . S
O46 Co42 2.004 . S
O46 C51 1.259 . S
Co47 O48 2.061 . S
Co47 O53 2.052 1_554 S
Co47 O55 2.135 . S
O48 Co47 2.061 . S
O48 C51 1.235 . S
C49 O52 1.238 . S
C49 O53 1.241 . S
C50 O43 1.247 . S
C50 O44 1.261 . S
C51 O46 1.259 . S
C51 O48 1.235 . S
O52 Co42 2.021 1_556 S
O52 C49 1.238 . S
O53 Co47 2.052 1_556 S
O53 C49 1.241 . S
O54 Co42 2.137 . S
O54 C45 1.247 . S
O55 Co42 2.244 . S
O55 C45 1.272 . S
O55 Co47 2.135 . S
Co56 O57 2.216 . S
Co56 O58 2.091 . S
Co56 O60 2.004 . S
Co56 O66 2.021 . S
Co56 O68 2.137 . S
Co56 O69 2.244 1_455 S
O57 Co56 2.216 . S
O57 C64 1.247 . S
O58 Co56 2.091 . S
O58 C64 1.261 . S
C59 O68 1.247 . S
C59 O69 1.272 1_455 S
O60 Co56 2.004 . S
O60 C65 1.259 . S
Co61 O62 2.061 . S
Co61 O67 2.052 . S
Co61 O69 2.135 . S
O62 Co61 2.061 . S
O62 C65 1.235 1_655 S
C63 O66 1.238 1_655 S
C63 O67 1.241 . S
C64 O57 1.247 . S
C64 O58 1.261 . S
C65 O60 1.259 . S
C65 O62 1.235 1_455 S
O66 Co56 2.021 . S
O66 C63 1.238 1_455 S
O67 Co61 2.052 . S
O67 C63 1.241 . S
O68 Co56 2.137 . S
O68 C59 1.247 . S
O69 Co56 2.244 1_655 S
O69 C59 1.272 1_655 S
O69 Co61 2.135 . S
Co70 O71 2.216 . S
Co70 O72 2.091 . S
Co70 O74 2.004 . S
Co70 O80 2.021 . S
Co70 O82 2.137 . S
Co70 O83 2.244 1_545 S
O71 Co70 2.216 . S
O71 C78 1.247 . S
O72 Co70 2.091 . S
O72 C78 1.261 . S
C73 O82 1.247 . S
C73 O83 1.272 1_545 S
O74 Co70 2.004 . S
O74 C79 1.259 . S
Co75 O76 2.061 . S
Co75 O81 2.052 . S
Co75 O83 2.135 . S
O76 Co75 2.061 . S
O76 C79 1.235 1_565 S
C77 O80 1.238 1_565 S
C77 O81 1.241 . S
C78 O71 1.247 . S
C78 O72 1.261 . S
C79 O74 1.259 . S
C79 O76 1.235 1_545 S
O80 Co70 2.021 . S
O80 C77 1.238 1_545 S
O81 Co75 2.052 . S
O81 C77 1.241 . S
O82 Co70 2.137 . S
O82 C73 1.247 . S
O83 Co70 2.244 1_565 S
O83 C73 1.272 1_565 S
O83 Co75 2.135 . S
Co84 O85 2.216 . S
Co84 O86 2.091 . S
Co84 O88 2.004 . S
Co84 O94 2.021 . S
Co84 O96 2.137 . S
Co84 O97 2.244 . S
O85 Co84 2.216 . S
O85 C92 1.247 . S
O86 Co84 2.091 . S
O86 C92 1.261 . S
C87 O96 1.247 . S
C87 O97 1.272 . S
O88 Co84 2.004 . S
O88 C93 1.259 . S
Co89 O90 2.061 . S
Co89 O95 2.052 . S
Co89 O97 2.135 . S
O90 Co89 2.061 . S
O90 C93 1.235 . S
C91 O94 1.238 . S
C91 O95 1.241 . S
C92 O85 1.247 . S
C92 O86 1.261 . S
C93 O88 1.259 . S
C93 O90 1.235 . S
O94 Co84 2.021 . S
O94 C91 1.238 . S
O95 Co89 2.052 . S
O95 C91 1.241 . S
O96 Co84 2.137 . S
O96 C87 1.247 . S
O97 Co84 2.244 . S
O97 C87 1.272 . S
O97 Co89 2.135 . S
Co98 O99 2.216 . S
Co98 O100 2.091 . S
Co98 O102 2.004 . S
Co98 O108 2.021 1_556 S
Co98 O110 2.137 . S
Co98 O111 2.244 1_655 S
O99 Co98 2.216 . S
O99 C106 1.247 . S
O100 Co98 2.091 . S
O100 C106 1.261 . S
C101 O110 1.247 . S
C101 O111 1.272 1_655 S
O102 Co98 2.004 . S
O102 C107 1.259 . S
Co103 O104 2.061 . S
Co103 O109 2.052 1_556 S
Co103 O111 2.135 . S
O104 Co103 2.061 . S
O104 C107 1.235 1_455 S
C105 O108 1.238 1_455 S
C105 O109 1.241 . S
C106 O99 1.247 . S
C106 O100 1.261 . S
C107 O102 1.259 . S
C107 O104 1.235 1_655 S
O108 Co98 2.021 1_554 S
O108 C105 1.238 1_655 S
O109 Co103 2.052 1_554 S
O109 C105 1.241 . S
O110 Co98 2.137 . S
O110 C101 1.247 . S
O111 Co98 2.244 1_455 S
O111 C101 1.272 1_455 S
O111 Co103 2.135 . S
Co112 O113 2.216 . S
Co112 O114 2.091 . S
Co112 O116 2.004 . S
Co112 O122 2.021 . S
Co112 O124 2.137 . S
Co112 O125 2.244 1_565 S
O113 Co112 2.216 . S
O113 C120 1.247 . S
O114 Co112 2.091 . S
O114 C120 1.261 . S
C115 O124 1.247 . S
C115 O125 1.272 1_565 S
O116 Co112 2.004 . S
O116 C121 1.259 . S
Co117 O118 2.061 . S
Co117 O123 2.052 . S
Co117 O125 2.135 . S
O118 Co117 2.061 . S
O118 C121 1.235 1_545 S
C119 O122 1.238 1_545 S
C119 O123 1.241 . S
C120 O113 1.247 . S
C120 O114 1.261 . S
C121 O116 1.259 . S
C121 O118 1.235 1_565 S
O122 Co112 2.021 . S
O122 C119 1.238 1_565 S
O123 Co117 2.052 . S
O123 C119 1.241 . S
O124 Co112 2.137 . S
O124 C115 1.247 . S
O125 Co112 2.244 1_545 S
O125 C115 1.272 1_545 S
O125 Co117 2.135 . S
Co126 O127 2.216 . S
Co126 O128 2.091 . S
Co126 O130 2.004 . S
Co126 O136 2.021 . S
Co126 O138 2.137 . S
Co126 O139 2.244 . S
O127 Co126 2.216 . S
O127 C134 1.247 . S
O128 Co126 2.091 . S
O128 C134 1.261 . S
C129 O138 1.247 . S
C129 O139 1.272 . S
O130 Co126 2.004 . S
O130 C135 1.259 . S
Co131 O132 2.061 . S
Co131 O137 2.052 . S
Co131 O139 2.135 . S
O132 Co131 2.061 . S
O132 C135 1.235 . S
C133 O136 1.238 . S
C133 O137 1.241 . S
C134 O127 1.247 . S
C134 O128 1.261 . S
C135 O130 1.259 . S
C135 O132 1.235 . S
O136 Co126 2.021 . S
O136 C133 1.238 . S
O137 Co131 2.052 . S
O137 C133 1.241 . S
O138 Co126 2.137 . S
O138 C129 1.247 . S
O139 Co126 2.244 . S
O139 C129 1.272 . S
O139 Co131 2.135 . S
Co140 O141 2.216 . S
Co140 O142 2.091 . S
Co140 O144 2.004 . S
Co140 O150 2.021 1_556 S
Co140 O152 2.137 . S
Co140 O153 2.244 1_455 S
O141 Co140 2.216 . S
O141 C148 1.247 . S
O142 Co140 2.091 . S
O142 C148 1.261 . S
C143 O152 1.247 . S
C143 O153 1.272 1_455 S
O144 Co140 2.004 . S
O144 C149 1.259 . S
Co145 O146 2.061 . S
Co145 O151 2.052 1_556 S
Co145 O153 2.135 . S
O146 Co145 2.061 . S
O146 C149 1.235 1_655 S
C147 O150 1.238 1_655 S
C147 O151 1.241 . S
C148 O141 1.247 . S
C148 O142 1.261 . S
C149 O144 1.259 . S
C149 O146 1.235 1_455 S
O150 Co140 2.021 1_554 S
O150 C147 1.238 1_455 S
O151 Co145 2.052 1_554 S
O151 C147 1.241 . S
O152 Co140 2.137 . S
O152 C143 1.247 . S
O153 Co140 2.244 1_655 S
O153 C143 1.272 1_655 S
O153 Co145 2.135 . S
Co154 O155 2.216 . S
Co154 O156 2.091 . S
Co154 O158 2.004 . S
Co154 O164 2.021 . S
Co154 O166 2.137 . S
Co154 O167 2.244 1_545 S
O155 Co154 2.216 . S
O155 C162 1.247 . S
O156 Co154 2.091 . S
O156 C162 1.261 . S
C157 O166 1.247 . S
C157 O167 1.272 1_545 S
O158 Co154 2.004 . S
O158 C163 1.259 . S
Co159 O160 2.061 . S
Co159 O165 2.052 . S
Co159 O167 2.135 . S
O160 Co159 2.061 . S
O160 C163 1.235 1_565 S
C161 O164 1.238 1_565 S
C161 O165 1.241 . S
C162 O155 1.247 . S
C162 O156 1.261 . S
C163 O158 1.259 . S
C163 O160 1.235 1_545 S
O164 Co154 2.021 . S
O164 C161 1.238 1_545 S
O165 Co159 2.052 . S
O165 C161 1.241 . S
O166 Co154 2.137 . S
O166 C157 1.247 . S
O167 Co154 2.244 1_565 S
O167 C157 1.272 1_565 S
O167 Co159 2.135 . S
C168 C169 1.369 . S
C168 C170 1.419 . S
C168 H172 0.930 . S
C169 C168 1.369 . S
C169 C178 1.429 . S
C170 C168 1.419 . S
C170 C171 1.363 . S
C170 H173 0.929 . S
C171 C170 1.363 . S
C171 C177 1.428 . S
H172 C168 0.930 . S
H173 C170 0.929 . S
S174 N175 1.613 . S
S174 N176 1.610 . S
N175 S174 1.613 . S
N175 C178 1.350 . S
N176 S174 1.610 . S
N176 C177 1.351 . S
C177 C171 1.428 . S
C177 N176 1.351 . S
C177 C178 1.434 . S
C178 C169 1.429 . S
C178 N175 1.350 . S
C178 C177 1.434 . S
C179 C180 1.369 . S
C179 C181 1.419 . S
C179 H183 0.930 . S
C180 C179 1.369 . S
C180 C189 1.429 1_655 S
C181 C179 1.419 . S
C181 C182 1.363 1_655 S
C181 H184 0.929 . S
C182 C181 1.363 1_455 S
C182 C188 1.428 . S
H183 C179 0.930 . S
H184 C181 0.929 . S
S185 N186 1.613 . S
S185 N187 1.610 . S
N186 S185 1.613 . S
N186 C189 1.350 . S
N187 S185 1.610 . S
N187 C188 1.351 . S
C188 C182 1.428 . S
C188 N187 1.351 . S
C188 C189 1.434 . S
C189 C180 1.429 1_455 S
C189 N186 1.350 . S
C189 C188 1.434 . S
C190 C191 1.369 . S
C190 C192 1.419 1_556 S
C190 H194 0.930 . S
C191 C190 1.369 . S
C191 C200 1.429 1_565 S
C192 C190 1.419 1_554 S
C192 C193 1.363 1_565 S
C192 H195 0.929 . S
C193 C192 1.363 1_545 S
C193 C199 1.428 . S
H194 C190 0.930 . S
H195 C192 0.929 . S
S196 N197 1.613 . S
S196 N198 1.610 1_556 S
N197 S196 1.613 . S
N197 C200 1.350 . S
N198 S196 1.610 1_554 S
N198 C199 1.351 . S
C199 C193 1.428 . S
C199 N198 1.351 . S
C199 C200 1.434 1_554 S
C200 C191 1.429 1_545 S
C200 N197 1.350 . S
C200 C199 1.434 1_556 S
C201 C202 1.369 . S
C201 C203 1.419 . S
C201 H205 0.930 . S
C202 C201 1.369 . S
C202 C211 1.429 . S
C203 C201 1.419 . S
C203 C204 1.363 . S
C203 H206 0.929 . S
C204 C203 1.363 . S
C204 C210 1.428 . S
H205 C201 0.930 . S
H206 C203 0.929 . S
S207 N208 1.613 . S
S207 N209 1.610 . S
N208 S207 1.613 . S
N208 C211 1.350 . S
N209 S207 1.610 . S
N209 C210 1.351 . S
C210 C204 1.428 . S
C210 N209 1.351 . S
C210 C211 1.434 . S
C211 C202 1.429 . S
C211 N208 1.350 . S
C211 C210 1.434 . S
C212 C213 1.369 . S
C212 C214 1.419 1_655 S
C212 H216 0.930 . S
C213 C212 1.369 . S
C213 C222 1.429 . S
C214 C212 1.419 1_455 S
C214 C215 1.363 . S
C214 H217 0.929 . S
C215 C214 1.363 . S
C215 C221 1.428 . S
H216 C212 0.930 . S
H217 C214 0.929 . S
S218 N219 1.614 1_455 S
S218 N220 1.610 . S
N219 S218 1.614 1_655 S
N219 C222 1.349 . S
N220 S218 1.610 . S
N220 C221 1.351 . S
C221 C215 1.428 . S
C221 N220 1.351 . S
C221 C222 1.434 1_455 S
C222 C213 1.429 . S
C222 N219 1.349 . S
C222 C221 1.434 1_655 S
C223 C224 1.369 1_545 S
C223 C225 1.419 1_554 S
C223 H227 0.930 . S
C224 C223 1.369 1_565 S
C224 C233 1.429 . S
C225 C223 1.419 1_556 S
C225 C226 1.363 . S
C225 H228 0.929 . S
C226 C225 1.363 . S
C226 C232 1.428 1_545 S
H227 C223 0.930 . S
H228 C225 0.929 . S
S229 N230 1.613 1_556 S
S229 N231 1.610 . S
N230 S229 1.613 1_554 S
N230 C233 1.350 . S
N231 S229 1.610 . S
N231 C232 1.351 . S
C232 C226 1.428 1_565 S
C232 N231 1.351 . S
C232 C233 1.434 1_556 S
C233 C224 1.429 . S
C233 N230 1.350 . S
C233 C232 1.434 1_554 S
C234 C235 1.369 1_554 S
C234 C236 1.419 . S
C234 H238 0.930 . S
C235 C234 1.369 1_556 S
C235 C244 1.429 . S
C236 C234 1.419 . S
C236 C237 1.363 . S
C236 H239 0.929 . S
C237 C236 1.363 . S
C237 C243 1.428 1_554 S
H238 C234 0.930 . S
H239 C236 0.929 . S
S240 N241 1.613 . S
S240 N242 1.610 . S
N241 S240 1.613 . S
N241 C244 1.350 . S
N242 S240 1.610 . S
N242 C243 1.351 . S
C243 C237 1.428 1_556 S
C243 N242 1.351 . S
C243 C244 1.434 . S
C244 C235 1.429 . S
C244 N241 1.350 . S
C244 C243 1.434 . S
C245 C246 1.369 . S
C245 C247 1.419 . S
C245 H249 0.930 . S
C246 C245 1.369 . S
C246 C255 1.429 . S
C247 C245 1.419 . S
C247 C248 1.363 . S
C247 H250 0.929 . S
C248 C247 1.363 . S
C248 C254 1.428 . S
H249 C245 0.930 . S
H250 C247 0.929 . S
S251 N252 1.613 . S
S251 N253 1.610 . S
N252 S251 1.613 . S
N252 C255 1.350 . S
N253 S251 1.610 . S
N253 C254 1.351 . S
C254 C248 1.428 . S
C254 N253 1.351 . S
C254 C255 1.434 . S
C255 C246 1.429 . S
C255 N252 1.350 . S
C255 C254 1.434 . S
C256 C257 1.369 . S
C256 C258 1.419 . S
C256 H260 0.930 . S
C257 C256 1.369 . S
C257 C266 1.429 . S
C258 C256 1.419 . S
C258 C259 1.363 . S
C258 H261 0.929 . S
C259 C258 1.363 . S
C259 C265 1.428 . S
H260 C256 0.930 . S
H261 C258 0.929 . S
S262 N263 1.613 . S
S262 N264 1.610 . S
N263 S262 1.613 . S
N263 C266 1.350 . S
N264 S262 1.610 . S
N264 C265 1.351 . S
C265 C259 1.428 . S
C265 N264 1.351 . S
C265 C266 1.434 . S
C266 C257 1.429 . S
C266 N263 1.350 . S
C266 C265 1.434 . S
C267 C268 1.369 1_556 S
C267 C269 1.419 . S
C267 H271 0.930 . S
C268 C267 1.369 1_554 S
C268 C277 1.429 . S
C269 C267 1.419 . S
C269 C270 1.363 . S
C269 H272 0.929 . S
C270 C269 1.363 . S
C270 C276 1.428 1_556 S
H271 C267 0.930 . S
H272 C269 0.929 . S
S273 N274 1.613 . S
S273 N275 1.610 . S
N274 S273 1.613 . S
N274 C277 1.350 . S
N275 S273 1.610 . S
N275 C276 1.351 . S
C276 C270 1.428 1_554 S
C276 N275 1.351 . S
C276 C277 1.434 . S
C277 C268 1.429 . S
C277 N274 1.350 . S
C277 C276 1.434 . S
C278 C279 1.369 . S
C278 C280 1.419 . S
C278 H282 0.930 . S
C279 C278 1.369 . S
C279 C288 1.429 . S
C280 C278 1.419 . S
C280 C281 1.363 . S
C280 H283 0.929 . S
C281 C280 1.363 . S
C281 C287 1.428 . S
H282 C278 0.930 . S
H283 C280 0.929 . S
S284 N285 1.613 . S
S284 N286 1.610 . S
N285 S284 1.613 . S
N285 C288 1.350 . S
N286 S284 1.610 . S
N286 C287 1.351 . S
C287 C281 1.428 . S
C287 N286 1.351 . S
C287 C288 1.434 . S
C288 C279 1.429 . S
C288 N285 1.350 . S
C288 C287 1.434 . S
C289 C290 1.369 . S
C289 C291 1.419 . S
C289 H293 0.930 . S
C290 C289 1.369 . S
C290 C299 1.429 . S
C291 C289 1.419 . S
C291 C292 1.363 . S
C291 H294 0.929 . S
C292 C291 1.363 . S
C292 C298 1.428 . S
H293 C289 0.930 . S
H294 C291 0.929 . S
S295 N296 1.613 . S
S295 N297 1.610 . S
N296 S295 1.613 . S
N296 C299 1.350 . S
N297 S295 1.610 . S
N297 C298 1.351 . S
C298 C292 1.428 . S
C298 N297 1.351 . S
C298 C299 1.434 . S
C299 C290 1.429 . S
C299 N296 1.350 . S
C299 C298 1.434 . S
C300 C301 1.369 . S
C300 C302 1.419 . S
C300 H304 0.930 . S
C301 C300 1.369 . S
C301 C310 1.429 . S
C302 C300 1.419 . S
C302 C303 1.363 . S
C302 H305 0.929 . S
C303 C302 1.363 . S
C303 C309 1.428 . S
H304 C300 0.930 . S
H305 C302 0.929 . S
S306 N307 1.613 . S
S306 N308 1.610 . S
N307 S306 1.613 . S
N307 C310 1.350 . S
N308 S306 1.610 . S
N308 C309 1.351 . S
C309 C303 1.428 . S
C309 N308 1.351 . S
C309 C310 1.434 . S
C310 C301 1.429 . S
C310 N307 1.350 . S
C310 C309 1.434 . S
C311 C312 1.369 . S
C311 C313 1.419 . S
C311 H315 0.930 . S
C312 C311 1.369 . S
C312 C321 1.429 1_455 S
C313 C311 1.419 . S
C313 C314 1.363 1_455 S
C313 H316 0.929 . S
C314 C313 1.363 1_655 S
C314 C320 1.428 . S
H315 C311 0.930 . S
H316 C313 0.929 . S
S317 N318 1.613 . S
S317 N319 1.610 . S
N318 S317 1.613 . S
N318 C321 1.350 . S
N319 S317 1.610 . S
N319 C320 1.351 . S
C320 C314 1.428 . S
C320 N319 1.351 . S
C320 C321 1.434 . S
C321 C312 1.429 1_655 S
C321 N318 1.350 . S
C321 C320 1.434 . S
C322 C323 1.369 1_565 S
C322 C324 1.419 . S
C322 H326 0.930 . S
C323 C322 1.369 1_545 S
C323 C332 1.429 . S
C324 C322 1.419 . S
C324 C325 1.363 . S
C324 H327 0.929 . S
C325 C324 1.363 . S
C325 C331 1.428 1_565 S
H326 C322 0.930 . S
H327 C324 0.929 . S
S328 N329 1.613 . S
S328 N330 1.610 . S
N329 S328 1.613 . S
N329 C332 1.350 . S
N330 S328 1.610 . S
N330 C331 1.351 . S
C331 C325 1.428 1_545 S
C331 N330 1.351 . S
C331 C332 1.434 . S
C332 C323 1.429 . S
C332 N329 1.350 . S
C332 C331 1.434 . S
C333 C334 1.369 . S
C333 C335 1.419 . S
C333 H337 0.930 . S
C334 C333 1.369 . S
C334 C343 1.429 . S
C335 C333 1.419 . S
C335 C336 1.363 . S
C335 H338 0.929 . S
C336 C335 1.363 . S
C336 C342 1.428 . S
H337 C333 0.930 . S
H338 C335 0.929 . S
S339 N340 1.613 . S
S339 N341 1.610 . S
N340 S339 1.613 . S
N340 C343 1.350 . S
N341 S339 1.610 . S
N341 C342 1.351 . S
C342 C336 1.428 . S
C342 N341 1.351 . S
C342 C343 1.434 . S
C343 C334 1.429 . S
C343 N340 1.350 . S
C343 C342 1.434 . S
C344 C345 1.369 1_455 S
C344 C346 1.419 . S
C344 H348 0.930 . S
C345 C344 1.369 1_655 S
C345 C354 1.429 . S
C346 C344 1.419 . S
C346 C347 1.363 . S
C346 H349 0.929 . S
C347 C346 1.363 . S
C347 C353 1.428 1_455 S
H348 C344 0.930 . S
H349 C346 0.929 . S
S350 N351 1.613 . S
S350 N352 1.610 . S
N351 S350 1.613 . S
N351 C354 1.350 . S
N352 S350 1.610 . S
N352 C353 1.351 . S
C353 C347 1.428 1_655 S
C353 N352 1.351 . S
C353 C354 1.434 . S
C354 C345 1.429 . S
C354 N351 1.350 . S
C354 C353 1.434 . S
C355 C356 1.369 . S
C355 C357 1.419 . S
C355 H359 0.930 . S
C356 C355 1.369 . S
C356 C365 1.429 1_545 S
C357 C355 1.419 . S
C357 C358 1.363 1_545 S
C357 H360 0.929 . S
C358 C357 1.363 1_565 S
C358 C364 1.428 . S
H359 C355 0.930 . S
H360 C357 0.929 . S
S361 N362 1.613 . S
S361 N363 1.610 . S
N362 S361 1.613 . S
N362 C365 1.350 . S
N363 S361 1.610 . S
N363 C364 1.351 . S
C364 C358 1.428 . S
C364 N363 1.351 . S
C364 C365 1.434 . S
C365 C356 1.429 1_565 S
C365 N362 1.350 . S
C365 C364 1.434 . S
C366 C367 1.369 . S
C366 C368 1.419 . S
C366 H370 0.930 . S
C367 C366 1.369 . S
C367 C376 1.429 . S
C368 C366 1.419 . S
C368 C369 1.363 . S
C368 H371 0.929 . S
C369 C368 1.363 . S
C369 C375 1.428 . S
H370 C366 0.930 . S
H371 C368 0.929 . S
S372 N373 1.613 . S
S372 N374 1.610 . S
N373 S372 1.613 . S
N373 C376 1.350 . S
N374 S372 1.610 . S
N374 C375 1.351 . S
C375 C369 1.428 . S
C375 N374 1.351 . S
C375 C376 1.434 . S
C376 C367 1.429 . S
C376 N373 1.350 . S
C376 C375 1.434 . S
C377 C378 1.369 1_655 S
C377 C379 1.419 . S
C377 H381 0.930 . S
C378 C377 1.369 1_455 S
C378 C387 1.429 . S
C379 C377 1.419 . S
C379 C380 1.363 . S
C379 H382 0.929 . S
C380 C379 1.363 . S
C380 C386 1.428 1_655 S
H381 C377 0.930 . S
H382 C379 0.929 . S
S383 N384 1.613 . S
S383 N385 1.610 . S
N384 S383 1.613 . S
N384 C387 1.350 . S
N385 S383 1.610 . S
N385 C386 1.351 . S
C386 C380 1.428 1_455 S
C386 N385 1.351 . S
C386 C387 1.434 . S
C387 C378 1.429 . S
C387 N384 1.350 . S
C387 C386 1.434 . S
C388 C389 1.369 . S
C388 C390 1.419 . S
C388 H392 0.930 . S
C389 C388 1.369 . S
C389 C398 1.429 1_565 S
C390 C388 1.419 . S
C390 C391 1.363 1_565 S
C390 H393 0.929 . S
C391 C390 1.363 1_545 S
C391 C397 1.428 . S
H392 C388 0.930 . S
H393 C390 0.929 . S
S394 N395 1.613 . S
S394 N396 1.610 . S
N395 S394 1.613 . S
N395 C398 1.350 . S
N396 S394 1.610 . S
N396 C397 1.351 . S
C397 C391 1.428 . S
C397 N396 1.351 . S
C397 C398 1.434 . S
C398 C389 1.429 1_545 S
C398 N395 1.350 . S
C398 C397 1.434 . S
C399 C400 1.369 . S
C399 C401 1.419 . S
C399 H403 0.930 . S
C400 C399 1.369 . S
C400 C409 1.429 . S
C401 C399 1.419 . S
C401 C402 1.363 . S
C401 H404 0.929 . S
C402 C401 1.363 . S
C402 C408 1.428 . S
H403 C399 0.930 . S
H404 C401 0.929 . S
S405 N406 1.613 . S
S405 N407 1.610 . S
N406 S405 1.613 . S
N406 C409 1.350 . S
N407 S405 1.610 . S
N407 C408 1.351 . S
C408 C402 1.428 . S
C408 N407 1.351 . S
C408 C409 1.434 . S
C409 C400 1.429 . S
C409 N406 1.350 . S
C409 C408 1.434 . S
C410 C411 1.369 1_455 S
C410 C412 1.419 . S
C410 H414 0.930 . S
C411 C410 1.369 1_655 S
C411 C420 1.429 . S
C412 C410 1.419 . S
C412 C413 1.363 . S
C412 H415 0.929 . S
C413 C412 1.363 . S
C413 C419 1.428 1_455 S
H414 C410 0.930 . S
H415 C412 0.929 . S
S416 N417 1.613 . S
S416 N418 1.610 . S
N417 S416 1.613 . S
N417 C420 1.350 . S
N418 S416 1.610 . S
N418 C419 1.351 . S
C419 C413 1.428 1_655 S
C419 N418 1.351 . S
C419 C420 1.434 . S
C420 C411 1.429 . S
C420 N417 1.350 . S
C420 C419 1.434 . S
C421 C422 1.369 . S
C421 C423 1.419 . S
C421 H425 0.930 . S
C422 C421 1.369 . S
C422 C431 1.429 1_545 S
C423 C421 1.419 . S
C423 C424 1.363 1_545 S
C423 H426 0.929 . S
C424 C423 1.363 1_565 S
C424 C430 1.428 . S
H425 C421 0.930 . S
H426 C423 0.929 . S
S427 N428 1.613 . S
S427 N429 1.610 . S
N428 S427 1.613 . S
N428 C431 1.350 . S
N429 S427 1.610 . S
N429 C430 1.351 . S
C430 C424 1.428 . S
C430 N429 1.351 . S
C430 C431 1.434 . S
C431 C422 1.429 1_565 S
C431 N428 1.350 . S
C431 C430 1.434 . S
C169 C3 1.517 . S
C171 C129 1.521 . S
C180 C17 1.523 . S
C182 C143 1.518 . S
C191 C31 1.521 . S
C193 C157 1.518 . S
C202 C45 1.524 . S
C204 C87 1.519 . S
C213 C101 1.520 . S
C215 C59 1.519 . S
C224 C115 1.519 . S
C226 C73 1.524 . S
C235 C148 1.590 . S
C237 C8 1.590 . S
C246 C22 1.589 . S
C248 C162 1.591 . S
C257 C36 1.592 . S
C259 C92 1.588 . S
C268 C50 1.592 . S
C270 C106 1.588 . S
C279 C64 1.592 . S
C281 C120 1.588 . S
C290 C78 1.587 . S
C292 C134 1.591 . S
C301 C133 1.045 . S
C303 C7 1.049 . S
C312 C21 1.043 . S
C314 C147 1.047 . S
C323 C35 1.041 . S
C325 C161 1.043 . S
C334 C91 1.041 . S
C336 C49 1.045 . S
C345 C63 1.051 . S
C347 C105 1.047 . S
C356 C119 1.042 . S
C358 C77 1.045 . S
C367 C9 1.509 . S
C369 C51 1.504 . S
C378 C65 1.507 . S
C380 C23 1.506 . S
C389 C37 1.504 . S
C391 C79 1.507 . S
C400 C93 1.507 . S
C402 C135 1.505 . S
C411 C107 1.508 . S
C413 C149 1.504 . S
C422 C163 1.503 . S
C424 C121 1.508 . S
