# Generated by pormake.
# Topology xfh, (7)-cn, num edge types: 1
# Building blocks:
#     Node 0, Type 0, BuildingBlock: NUHQUE_clean_sbu_2, # of connection points: 7
#     Node 1, Type 0, BuildingBlock: NUHQUE_clean_sbu_2, # of connection points: 7
#     Node 2, Type 0, BuildingBlock: NUHQUE_clean_sbu_2, # of connection points: 7
#     Node 3, Type 0, BuildingBlock: NUHQUE_clean_sbu_2, # of connection points: 7
#     Node 4, Type 0, BuildingBlock: NUHQUE_clean_sbu_2, # of connection points: 7
#     Node 5, Type 0, BuildingBlock: NUHQUE_clean_sbu_2, # of connection points: 7
#     Node 6, Type 0, BuildingBlock: NUHQUE_clean_sbu_2, # of connection points: 7
#     Node 7, Type 0, BuildingBlock: NUHQUE_clean_sbu_2, # of connection points: 7
#     Node 8, Type 0, BuildingBlock: NUHQUE_clean_sbu_2, # of connection points: 7
#     Node 9, Type 0, BuildingBlock: NUHQUE_clean_sbu_2, # of connection points: 7
#     Node 10, Type 0, BuildingBlock: NUHQUE_clean_sbu_2, # of connection points: 7
#     Node 11, Type 0, BuildingBlock: NUHQUE_clean_sbu_2, # of connection points: 7
#     Node 12, Type 0, BuildingBlock: NUHQUE_clean_sbu_2, # of connection points: 7
#     Node 13, Type 0, BuildingBlock: NUHQUE_clean_sbu_2, # of connection points: 7
#     Node 14, Type 0, BuildingBlock: NUHQUE_clean_sbu_2, # of connection points: 7
#     Node 15, Type 0, BuildingBlock: NUHQUE_clean_sbu_2, # of connection points: 7
#     Edge 16, Type (0, 0), BuildingBlock: KIFKEQ_clean_linker_1, # of connection points: 2
#     Edge 17, Type (0, 0), BuildingBlock: KIFKEQ_clean_linker_1, # of connection points: 2
#     Edge 18, Type (0, 0), BuildingBlock: KIFKEQ_clean_linker_1, # of connection points: 2
#     Edge 19, Type (0, 0), BuildingBlock: KIFKEQ_clean_linker_1, # of connection points: 2
#     Edge 20, Type (0, 0), BuildingBlock: KIFKEQ_clean_linker_1, # of connection points: 2
#     Edge 21, Type (0, 0), BuildingBlock: KIFKEQ_clean_linker_1, # of connection points: 2
#     Edge 22, Type (0, 0), BuildingBlock: KIFKEQ_clean_linker_1, # of connection points: 2
#     Edge 23, Type (0, 0), BuildingBlock: KIFKEQ_clean_linker_1, # of connection points: 2
#     Edge 24, Type (0, 0), BuildingBlock: KIFKEQ_clean_linker_1, # of connection points: 2
#     Edge 25, Type (0, 0), BuildingBlock: KIFKEQ_clean_linker_1, # of connection points: 2
#     Edge 26, Type (0, 0), BuildingBlock: KIFKEQ_clean_linker_1, # of connection points: 2
#     Edge 27, Type (0, 0), BuildingBlock: KIFKEQ_clean_linker_1, # of connection points: 2
#     Edge 28, Type (0, 0), BuildingBlock: KIFKEQ_clean_linker_1, # of connection points: 2
#     Edge 29, Type (0, 0), BuildingBlock: KIFKEQ_clean_linker_1, # of connection points: 2
#     Edge 30, Type (0, 0), BuildingBlock: KIFKEQ_clean_linker_1, # of connection points: 2
#     Edge 31, Type (0, 0), BuildingBlock: KIFKEQ_clean_linker_1, # of connection points: 2
#     Edge 32, Type (0, 0), BuildingBlock: KIFKEQ_clean_linker_1, # of connection points: 2
#     Edge 33, Type (0, 0), BuildingBlock: KIFKEQ_clean_linker_1, # of connection points: 2
#     Edge 34, Type (0, 0), BuildingBlock: KIFKEQ_clean_linker_1, # of connection points: 2
#     Edge 35, Type (0, 0), BuildingBlock: KIFKEQ_clean_linker_1, # of connection points: 2
#     Edge 36, Type (0, 0), BuildingBlock: KIFKEQ_clean_linker_1, # of connection points: 2
#     Edge 37, Type (0, 0), BuildingBlock: KIFKEQ_clean_linker_1, # of connection points: 2
#     Edge 38, Type (0, 0), BuildingBlock: KIFKEQ_clean_linker_1, # of connection points: 2
#     Edge 39, Type (0, 0), BuildingBlock: KIFKEQ_clean_linker_1, # of connection points: 2
#     Edge 40, Type (0, 0), BuildingBlock: KIFKEQ_clean_linker_1, # of connection points: 2
#     Edge 41, Type (0, 0), BuildingBlock: KIFKEQ_clean_linker_1, # of connection points: 2
#     Edge 42, Type (0, 0), BuildingBlock: KIFKEQ_clean_linker_1, # of connection points: 2
#     Edge 43, Type (0, 0), BuildingBlock: KIFKEQ_clean_linker_1, # of connection points: 2
#     Edge 44, Type (0, 0), BuildingBlock: KIFKEQ_clean_linker_1, # of connection points: 2
#     Edge 45, Type (0, 0), BuildingBlock: KIFKEQ_clean_linker_1, # of connection points: 2
#     Edge 46, Type (0, 0), BuildingBlock: KIFKEQ_clean_linker_1, # of connection points: 2
#     Edge 47, Type (0, 0), BuildingBlock: KIFKEQ_clean_linker_1, # of connection points: 2
#     Edge 48, Type (0, 0), BuildingBlock: KIFKEQ_clean_linker_1, # of connection points: 2
#     Edge 49, Type (0, 0), BuildingBlock: KIFKEQ_clean_linker_1, # of connection points: 2
#     Edge 50, Type (0, 0), BuildingBlock: KIFKEQ_clean_linker_1, # of connection points: 2
#     Edge 51, Type (0, 0), BuildingBlock: KIFKEQ_clean_linker_1, # of connection points: 2
#     Edge 52, Type (0, 0), BuildingBlock: KIFKEQ_clean_linker_1, # of connection points: 2
#     Edge 53, Type (0, 0), BuildingBlock: KIFKEQ_clean_linker_1, # of connection points: 2
#     Edge 54, Type (0, 0), BuildingBlock: KIFKEQ_clean_linker_1, # of connection points: 2
#     Edge 55, Type (0, 0), BuildingBlock: KIFKEQ_clean_linker_1, # of connection points: 2
#     Edge 56, Type (0, 0), BuildingBlock: KIFKEQ_clean_linker_1, # of connection points: 2
#     Edge 57, Type (0, 0), BuildingBlock: KIFKEQ_clean_linker_1, # of connection points: 2
#     Edge 58, Type (0, 0), BuildingBlock: KIFKEQ_clean_linker_1, # of connection points: 2
#     Edge 59, Type (0, 0), BuildingBlock: KIFKEQ_clean_linker_1, # of connection points: 2
#     Edge 60, Type (0, 0), BuildingBlock: KIFKEQ_clean_linker_1, # of connection points: 2
#     Edge 61, Type (0, 0), BuildingBlock: KIFKEQ_clean_linker_1, # of connection points: 2
#     Edge 62, Type (0, 0), BuildingBlock: KIFKEQ_clean_linker_1, # of connection points: 2
#     Edge 63, Type (0, 0), BuildingBlock: KIFKEQ_clean_linker_1, # of connection points: 2
#     Edge 64, Type (0, 0), BuildingBlock: KIFKEQ_clean_linker_1, # of connection points: 2
#     Edge 65, Type (0, 0), BuildingBlock: KIFKEQ_clean_linker_1, # of connection points: 2
#     Edge 66, Type (0, 0), BuildingBlock: KIFKEQ_clean_linker_1, # of connection points: 2
#     Edge 67, Type (0, 0), BuildingBlock: KIFKEQ_clean_linker_1, # of connection points: 2
#     Edge 68, Type (0, 0), BuildingBlock: KIFKEQ_clean_linker_1, # of connection points: 2
#     Edge 69, Type (0, 0), BuildingBlock: KIFKEQ_clean_linker_1, # of connection points: 2
#     Edge 70, Type (0, 0), BuildingBlock: KIFKEQ_clean_linker_1, # of connection points: 2
#     Edge 71, Type (0, 0), BuildingBlock: KIFKEQ_clean_linker_1, # of connection points: 2
# Relax obj value: 0.263
# Max RMSD: 0.279
# Mean RMSD: 0.266
data_MOF--net-xfh--node1-NUHQUE_clean_sbu_2--edge1-KIFKEQ_clean_linker_1
_symmetry_space_group_name_H-M    P1
_symmetry_Int_Tables_number       1
_symmetry_cell_setting            triclinic
loop_
_symmetry_equiv_pos_as_xyz
'x, y, z'
_cell_length_a     35.465477
_cell_length_b     34.355947
_cell_length_c     70.280347
_cell_angle_alpha  90.2621
_cell_angle_beta   90.092186
_cell_angle_gamma 90.241511
loop_
_atom_site_label
_atom_site_type_symbol
_atom_site_fract_x
_atom_site_fract_y
_atom_site_fract_z
_atom_type_partial_charge
O0 O 0.21301 0.08043 0.07338 0.0
Tb1 Tb 0.21229 0.06684 0.10353 0.0
Eu2 Eu 0.31525 0.07856 0.11637 0.0
C3 C 0.24474 0.08241 0.06379 0.0
O4 O 0.27687 0.07906 0.07292 0.0
C5 C 0.25277 0.14344 0.11528 0.0
O6 O 0.32128 0.08653 0.14807 0.0
C7 C 0.38058 0.07649 0.09983 0.0
C8 C 0.29439 0.07395 0.15937 0.0
O9 O 0.26344 0.05952 0.15179 0.0
C10 C 0.26884 0.99716 0.11041 0.0
C11 C 0.41406 0.05236 0.09584 0.0
C12 C 0.42678 0.05011 0.07694 0.0
C13 C 0.45936 0.02919 0.07239 0.0
C14 C 0.4791 1.01008 0.08675 0.0
C15 C 0.46784 0.0132 0.10581 0.0
C16 C 0.4352 0.03443 0.1104 0.0
O17 O 0.22784 0.11743 0.1207 0.0
O18 O 0.28468 0.13272 0.10755 0.0
O19 O 0.15122 0.07319 0.10057 0.0
O20 O 0.17251 0.03363 0.12106 0.0
C21 C 0.14204 0.04835 0.1137 0.0
O22 O 0.29319 0.01768 0.12045 0.0
O23 O 0.24344 0.01294 0.09919 0.0
O24 O 0.37566 0.08941 0.1173 0.0
O25 O 0.34898 0.06673 0.09115 0.0
H26 H 0.41181 0.06541 0.06579 0.0
H27 H 0.50506 0.99506 0.08324 0.0
H28 H 0.42687 0.03749 0.12515 0.0
O29 O 0.73301 0.6718 0.38581 0.0
Tb30 Tb 0.72816 0.60853 0.38884 0.0
Eu31 Eu 0.73754 0.51861 0.36263 0.0
C32 C 0.75645 0.69161 0.39684 0.0
O33 O 0.77799 0.67232 0.40872 0.0
C34 C 0.80341 0.56607 0.38043 0.0
O35 O 0.74356 0.45281 0.36428 0.0
C36 C 0.75034 0.5463 0.32874 0.0
C37 C 0.72711 0.43305 0.37804 0.0
O38 O 0.7066 0.4521 0.39051 0.0
C39 C 0.65878 0.55836 0.37367 0.0
C40 C 0.73511 0.55878 0.30998 0.0
C41 C 0.7364 0.5986 0.30502 0.0
C42 C 0.72574 0.61078 0.28671 0.0
C43 C 0.71407 0.58285 0.27335 0.0
C44 C 0.71365 0.54307 0.27764 0.0
C45 C 0.72412 0.53112 0.29604 0.0
O46 O 0.78501 0.59884 0.37772 0.0
O47 O 0.78494 0.5332 0.38245 0.0
O48 O 0.71195 0.62625 0.41752 0.0
O49 O 0.73758 0.57108 0.41381 0.0
C50 C 0.72357 0.59531 0.42624 0.0
O51 O 0.67785 0.52571 0.37227 0.0
O52 O 0.67517 0.59301 0.37447 0.0
O53 O 0.75067 0.50894 0.33275 0.0
O54 O 0.74408 0.5685 0.34371 0.0
H55 H 0.74658 0.62 0.3152 0.0
H56 H 0.7078 0.59207 0.25895 0.0
H57 H 0.72457 0.50032 0.29928 0.0
O58 O 0.29203 0.92679 0.57101 0.0
Tb59 Tb 0.29332 0.93556 0.60173 0.0
Eu60 Eu 0.1868 0.92758 0.60396 0.0
C61 C 0.26161 0.93305 0.56076 0.0
O62 O 0.23027 0.94299 0.56936 0.0
C63 C 0.24725 0.85912 0.60622 0.0
O64 O 0.18587 0.92929 0.63608 0.0
C65 C 0.11831 0.92101 0.59073 0.0
C66 C 0.21579 0.93946 0.64602 0.0
O67 O 0.24736 0.94722 0.63706 0.0
C68 C 0.2362 1.00946 0.60176 0.0
C69 C 0.08304 0.94277 0.58654 0.0
C70 C 0.07151 0.94689 0.56743 0.0
C71 C 0.03697 0.96458 0.56285 0.0
C72 C 0.01435 0.97879 0.57763 0.0
C73 C 0.02493 0.97504 0.59679 0.0
C74 C 0.05926 0.95662 0.6012 0.0
O75 O 0.27205 0.88224 0.61444 0.0
O76 O 0.2189 0.873 0.59631 0.0
O77 O 0.35448 0.93325 0.59692 0.0
O78 O 0.33455 0.95087 0.62396 0.0
C79 C 0.36464 0.94493 0.61381 0.0
O80 O 0.20412 0.9902 0.59993 0.0
O81 O 0.26977 0.9937 0.604 0.0
O82 O 0.12729 0.91475 0.60861 0.0
O83 O 0.1478 0.92795 0.57991 0.0
H84 H 0.08896 0.93525 0.55612 0.0
H85 H 0.98781 0.99261 0.57418 0.0
H86 H 0.06731 0.95313 0.61597 0.0
O87 O 0.80723 0.55081 0.8103 0.0
Tb88 Tb 0.80765 0.54659 0.84122 0.0
Eu89 Eu 0.81075 0.4744 0.87598 0.0
C90 C 0.81546 0.52178 0.79878 0.0
O91 O 0.82541 0.48809 0.80595 0.0
C92 C 0.88124 0.52271 0.86219 0.0
O93 O 0.80286 0.45321 0.90619 0.0
C94 C 0.81613 0.41669 0.85194 0.0
C95 C 0.80099 0.47948 0.91988 0.0
O96 O 0.8036 0.5164 0.91523 0.0
C97 C 0.73496 0.51175 0.86079 0.0
C98 C 0.7973 0.37899 0.84747 0.0
C99 C 0.78813 0.36901 0.82844 0.0
C100 C 0.7722 0.33223 0.82399 0.0
C101 C 0.76582 0.30589 0.83887 0.0
C102 C 0.77521 0.31517 0.85768 0.0
C103 C 0.79081 0.35162 0.86198 0.0
O104 O 0.86567 0.52565 0.84518 0.0
O105 O 0.86038 0.51484 0.87708 0.0
O106 O 0.80163 0.60897 0.83667 0.0
O107 O 0.80801 0.58858 0.86498 0.0
C108 C 0.80372 0.61938 0.85442 0.0
O109 O 0.75404 0.50259 0.87614 0.0
O110 O 0.75204 0.5189 0.84448 0.0
O111 O 0.83473 0.41869 0.86814 0.0
O112 O 0.79774 0.44885 0.84804 0.0
H113 H 0.79375 0.38964 0.81716 0.0
H114 H 0.7553 0.27686 0.83574 0.0
H115 H 0.79842 0.35821 0.87659 0.0
O116 O 0.81643 0.95242 0.93829 0.0
Tb117 Tb 0.81917 0.97645 0.90986 0.0
Eu118 Eu 0.71869 0.96729 0.89526 0.0
C119 C 0.78368 0.94569 0.9463 0.0
O120 O 0.75285 0.95291 0.93668 0.0
C121 C 0.77999 0.90015 0.89508 0.0
O122 O 0.70792 0.96269 0.86386 0.0
C123 C 0.65726 0.97613 0.91473 0.0
C124 C 0.73697 0.96683 0.85247 0.0
O125 O 0.7707 0.97086 0.86001 0.0
C126 C 0.76478 0.0456 0.90224 0.0
C127 C 0.62569 1.00253 0.91923 0.0
C128 C 0.61697 1.00902 0.93849 0.0
C129 C 0.58477 0.03015 0.94373 0.0
C130 C 0.56197 0.04565 0.92936 0.0
C131 C 0.57021 0.03988 0.91004 0.0
C132 C 0.60216 0.01803 0.90498 0.0
O133 O 0.80744 0.92536 0.89209 0.0
O134 O 0.74739 0.91091 0.90212 0.0
O135 O 0.87899 0.98103 0.91705 0.0
O136 O 0.85949 1.00735 0.8916 0.0
C137 C 0.8889 1.00137 0.9023 0.0
O138 O 0.74579 0.02512 0.88969 0.0
O139 O 0.78598 0.02877 0.91512 0.0
O140 O 0.65807 0.95956 0.89781 0.0
O141 O 0.69077 0.98588 0.92131 0.0
H142 H 0.63476 0.99651 0.94941 0.0
H143 H 0.53585 0.0599 0.93321 0.0
H144 H 0.60801 0.01231 0.8901 0.0
O145 O 0.299 0.52305 0.68772 0.0
Tb146 Tb 0.29198 0.5103 0.6579 0.0
Eu147 Eu 0.30036 0.43397 0.62702 0.0
C148 C 0.31241 0.49739 0.69969 0.0
O149 O 0.32226 0.46278 0.69348 0.0
C150 C 0.36761 0.4897 0.63859 0.0
O151 O 0.29254 0.41261 0.59697 0.0
C152 C 0.30983 0.37696 0.6507 0.0
C153 C 0.32175 0.41113 0.5855 0.0
O154 O 0.35542 0.41876 0.59243 0.0
C155 C 0.22345 0.46255 0.64369 0.0
C156 C 0.28863 0.3416 0.65654 0.0
C157 C 0.27965 0.33524 0.67588 0.0
C158 C 0.25989 0.30138 0.6814 0.0
C159 C 0.24957 0.27405 0.66741 0.0
C160 C 0.25938 0.27935 0.64836 0.0
C161 C 0.27868 0.31309 0.64293 0.0
O162 O 0.35123 0.49479 0.65517 0.0
O163 O 0.34861 0.47578 0.62407 0.0
O164 O 0.27139 0.56982 0.65929 0.0
O165 O 0.29008 0.54779 0.63259 0.0
C166 C 0.27628 0.57802 0.64145 0.0
O167 O 0.24085 0.45513 0.62764 0.0
O168 O 0.24256 0.47262 0.65897 0.0
O169 O 0.32336 0.3771 0.63327 0.0
O170 O 0.29596 0.41083 0.65592 0.0
H171 H 0.28817 0.35637 0.68657 0.0
H172 H 0.23589 0.24706 0.67153 0.0
H173 H 0.28638 0.3166 0.62811 0.0
O174 O 0.72767 0.07011 0.44476 0.0
Tb175 Tb 0.73128 0.06515 0.41407 0.0
Eu176 Eu 0.80481 0.0642 0.38202 0.0
C177 C 0.75814 0.06811 0.45535 0.0
O178 O 0.79093 0.06251 0.44712 0.0
C179 C 0.76047 0.14043 0.39392 0.0
O180 O 0.81564 0.05042 0.35147 0.0
C181 C 0.86859 0.07143 0.40008 0.0
C182 C 0.78623 0.04849 0.34019 0.0
O183 O 0.75265 0.05538 0.3473 0.0
C184 C 0.76691 0.98738 0.3991 0.0
C185 C 0.90492 0.05231 0.40521 0.0
C186 C 0.91121 0.03984 0.42409 0.0
C187 C 0.94725 0.02764 0.42992 0.0
C188 C 0.97669 0.02682 0.4167 0.0
C189 C 0.9713 0.03906 0.39798 0.0
C190 C 0.93546 0.0518 0.3922 0.0
O191 O 0.7544 0.12394 0.41051 0.0
O192 O 0.77131 0.11945 0.3793 0.0
O193 O 0.67023 0.06459 0.41781 0.0
O194 O 0.69205 0.05788 0.38988 0.0
C195 C 0.66125 0.05964 0.40001 0.0
O196 O 0.77832 1.00474 0.38354 0.0
O197 O 0.75793 1.00761 0.41442 0.0
O198 O 0.86366 0.08127 0.38219 0.0
O199 O 0.83718 0.06008 0.40852 0.0
H200 H 0.88876 0.04168 0.4345 0.0
H201 H 1.00462 0.0179 0.42124 0.0
H202 H 0.93196 0.06278 0.37788 0.0
O203 O 0.19821 0.48887 0.19879 0.0
Tb204 Tb 0.20305 0.49415 0.16815 0.0
Eu205 Eu 0.19578 0.5739 0.13754 0.0
C206 C 0.2128 0.51493 0.21042 0.0
O207 O 0.22944 0.54587 0.20335 0.0
C208 C 0.12666 0.51858 0.14898 0.0
O209 O 0.20127 0.59331 0.10709 0.0
C210 C 0.19327 0.63149 0.1617 0.0
C211 C 0.19941 0.56514 0.09437 0.0
O212 O 0.1948 0.52934 0.10049 0.0
C213 C 0.2728 0.53499 0.14937 0.0
C214 C 0.21504 0.66714 0.16686 0.0
C215 C 0.2234 0.67588 0.18614 0.0
C216 C 0.24204 0.71099 0.19114 0.0
C217 C 0.25188 0.73696 0.17659 0.0
C218 C 0.24333 0.72899 0.15755 0.0
C219 C 0.22508 0.69415 0.15269 0.0
O220 O 0.14347 0.51009 0.16518 0.0
O221 O 0.14482 0.53566 0.1351 0.0
O222 O 0.21791 0.43323 0.17188 0.0
O223 O 0.20231 0.45258 0.14426 0.0
C224 C 0.21302 0.42269 0.15427 0.0
O225 O 0.2526 0.54684 0.13491 0.0
O226 O 0.25687 0.52545 0.16563 0.0
O227 O 0.17628 0.6316 0.14502 0.0
O228 O 0.20808 0.59749 0.16595 0.0
H229 H 0.21506 0.65565 0.19716 0.0
H230 H 0.26443 0.76491 0.18013 0.0
H231 H 0.21813 0.68861 0.1379 0.0
O232 O 0.73009 0.5628 0.58085 0.0
Tb233 Tb 0.71516 0.56612 0.61091 0.0
Eu234 Eu 0.81481 0.57273 0.61351 0.0
C235 C 0.72599 0.59376 0.5701 0.0
O236 O 0.71495 0.62641 0.5781 0.0
C237 C 0.75664 0.64628 0.6165 0.0
O238 O 0.81754 0.55911 0.64504 0.0
C239 C 0.88294 0.57677 0.60027 0.0
C240 C 0.78933 0.56549 0.65678 0.0
O241 O 0.75785 0.57999 0.6501 0.0
C242 C 0.76705 0.49523 0.61374 0.0
C243 C 0.91548 0.55125 0.59618 0.0
C244 C 0.92679 0.54543 0.57716 0.0
C245 C 0.95907 0.52344 0.57285 0.0
C246 C 0.97946 0.50681 0.58782 0.0
C247 C 0.96873 0.51238 0.60679 0.0
C248 C 0.93695 0.53486 0.61099 0.0
O249 O 0.72776 0.62422 0.6211 0.0
O250 O 0.78852 0.63224 0.60983 0.0
O251 O 0.65704 0.56202 0.60038 0.0
O252 O 0.66767 0.55492 0.62987 0.0
C253 C 0.64169 0.55539 0.61686 0.0
O254 O 0.79336 0.51368 0.60424 0.0
O255 O 0.74084 0.51466 0.62274 0.0
O256 O 0.87451 0.58305 0.61823 0.0
O257 O 0.85308 0.57265 0.58931 0.0
H258 H 0.91072 0.55859 0.56577 0.0
H259 H 1.00543 0.49138 0.58488 0.0
H260 H 0.92951 0.53996 0.62574 0.0
O261 O 0.23003 0.17795 0.87955 0.0
Tb262 Tb 0.23323 0.11485 0.88334 0.0
Eu263 Eu 0.23892 0.02524 0.8604 0.0
C264 C 0.26073 0.19928 0.88188 0.0
O265 O 0.29285 0.1815 0.88503 0.0
C266 C 0.30736 0.07101 0.87512 0.0
O267 O 0.23964 0.95915 0.86108 0.0
C268 C 0.247 0.05626 0.82691 0.0
C269 C 0.2425 0.94172 0.8777 0.0
O270 O 0.24476 0.96352 0.89308 0.0
C271 C 0.16137 0.06355 0.8742 0.0
C272 C 0.23174 0.06796 0.80811 0.0
C273 C 0.23389 0.10749 0.80273 0.0
C274 C 0.22394 0.11893 0.78424 0.0
C275 C 0.21165 0.09086 0.77115 0.0
C276 C 0.21056 0.05128 0.77591 0.0
C277 C 0.22042 0.03993 0.79447 0.0
O278 O 0.2886 0.1028 0.87078 0.0
O279 O 0.28894 0.03867 0.87844 0.0
O280 O 0.23948 0.13673 0.91232 0.0
O281 O 0.23267 0.07589 0.90812 0.0
C282 C 0.23735 0.10333 0.92078 0.0
O283 O 0.1818 0.03178 0.87317 0.0
O284 O 0.17654 0.09877 0.87304 0.0
O285 O 0.25235 0.01906 0.83036 0.0
O286 O 0.23723 0.07644 0.84206 0.0
H287 H 0.24474 0.12907 0.81265 0.0
H288 H 0.20566 0.09971 0.75665 0.0
H289 H 0.22048 1.00928 0.79803 0.0
O290 O 0.77656 0.43968 0.07291 0.0
Tb291 Tb 0.78714 0.43228 0.1033 0.0
Eu292 Eu 0.68419 0.42554 0.10413 0.0
C293 C 0.79117 0.41515 0.0605 0.0
O294 O 0.81054 0.38538 0.06687 0.0
C295 C 0.74334 0.35153 0.10412 0.0
O296 O 0.68285 0.43389 0.13612 0.0
C297 C 0.61512 0.42292 0.09142 0.0
C298 C 0.71197 0.42755 0.14731 0.0
O299 O 0.74376 0.41541 0.13989 0.0
C300 C 0.73358 0.50204 0.10685 0.0
C301 C 0.58168 0.44761 0.08742 0.0
C302 C 0.57148 0.4552 0.06839 0.0
C303 C 0.53919 0.47712 0.06415 0.0
C304 C 0.51702 0.49145 0.07903 0.0
C305 C 0.52559 0.48285 0.09802 0.0
C306 C 0.55791 0.46087 0.10221 0.0
O307 O 0.77293 0.37222 0.10941 0.0
O308 O 0.71113 0.36682 0.09842 0.0
O309 O 0.84667 0.44233 0.09606 0.0
O310 O 0.8313 0.43718 0.12504 0.0
C311 C 0.85927 0.4429 0.11347 0.0
O312 O 0.70693 0.48512 0.09675 0.0
O313 O 0.75837 0.48122 0.11611 0.0
O314 O 0.62424 0.4169 0.10929 0.0
O315 O 0.64467 0.427 0.08031 0.0
H316 H 0.58837 0.44369 0.05683 0.0
H317 H 0.49149 0.50739 0.07574 0.0
H318 H 0.56411 0.45382 0.11689 0.0
O319 O 0.30955 0.04158 0.31231 0.0
Tb320 Tb 0.31507 0.04158 0.34307 0.0
Eu321 Eu 0.31352 0.96969 0.37719 0.0
C322 C 0.33832 0.04839 0.30101 0.0
O323 O 0.37205 0.05347 0.30839 0.0
C324 C 0.38711 0.01431 0.36462 0.0
O325 O 0.3028 0.94846 0.40709 0.0
C326 C 0.31625 0.91251 0.35273 0.0
C327 C 0.2929 0.97451 0.41992 0.0
O328 O 0.28993 1.01102 0.41466 0.0
C329 C 0.24052 0.01302 0.36235 0.0
C330 C 0.29518 0.87684 0.34699 0.0
C331 C 0.28941 0.86813 0.32751 0.0
C332 C 0.27135 0.8332 0.32197 0.0
C333 C 0.25933 0.80715 0.33597 0.0
C334 C 0.26638 0.81449 0.35526 0.0
C335 C 0.28387 0.84947 0.36075 0.0
O336 O 0.3719 0.01792 0.34758 0.0
O337 O 0.36595 1.00595 0.37934 0.0
O338 O 0.32032 0.10408 0.33827 0.0
O339 O 0.30833 0.0841 0.36622 0.0
C340 C 0.31399 0.11481 0.35574 0.0
O341 O 0.25895 1.0023 0.37761 0.0
O342 O 0.25796 0.0172 0.34593 0.0
O343 O 0.33276 0.91195 0.3695 0.0
O344 O 0.30119 0.94644 0.3487 0.0
H345 H 0.29957 0.88801 0.31672 0.0
H346 H 0.24693 0.77952 0.33169 0.0
H347 H 0.28959 0.85468 0.37571 0.0
O348 O 0.31444 0.44668 0.43391 0.0
Tb349 Tb 0.3159 0.47523 0.40643 0.0
Eu350 Eu 0.21624 0.46049 0.39354 0.0
C351 C 0.28692 0.45338 0.44597 0.0
O352 O 0.25926 0.4764 0.44088 0.0
C353 C 0.28028 0.39678 0.39335 0.0
O354 O 0.20716 0.45376 0.36199 0.0
C355 C 0.15444 0.4649 0.41304 0.0
C356 C 0.23612 0.46098 0.35087 0.0
O357 O 0.26893 0.46856 0.35878 0.0
C358 C 0.25852 0.54265 0.39885 0.0
C359 C 0.12305 0.49073 0.41856 0.0
C360 C 0.11438 0.49402 0.43801 0.0
C361 C 0.08379 0.51645 0.44405 0.0
C362 C 0.06185 0.53585 0.43063 0.0
C363 C 0.06887 0.53181 0.41107 0.0
C364 C 0.09986 0.50933 0.40504 0.0
O365 O 0.30509 0.42375 0.38885 0.0
O366 O 0.24802 0.40622 0.40116 0.0
O367 O 0.37414 0.4884 0.41469 0.0
O368 O 0.35757 0.49666 0.38594 0.0
C369 C 0.38544 0.49946 0.39795 0.0
O370 O 0.23783 0.52068 0.38764 0.0
O371 O 0.28269 0.52779 0.41096 0.0
O372 O 0.15559 0.45156 0.39545 0.0
O373 O 0.18785 0.47336 0.42019 0.0
H374 H 0.13084 0.47826 0.44845 0.0
H375 H 0.03705 0.55137 0.43547 0.0
H376 H 0.10514 0.50549 0.38997 0.0
O377 O 0.7963 0.01774 0.18871 0.0
Tb378 Tb 0.79266 1.00619 0.15865 0.0
Eu379 Eu 0.80194 0.92761 0.12986 0.0
C380 C 0.80934 0.99159 0.20052 0.0
O381 O 0.82129 0.95803 0.19388 0.0
C382 C 0.87073 0.98279 0.14136 0.0
O383 O 0.79585 0.91011 0.0992 0.0
C384 C 0.80945 0.86922 0.15285 0.0
C385 C 0.78236 0.93678 0.08774 0.0
O386 O 0.77351 0.97094 0.09488 0.0
C387 C 0.72395 0.95821 0.14495 0.0
C388 C 0.78791 0.83529 0.16013 0.0
C389 C 0.78445 0.8295 0.17993 0.0
C390 C 0.7668 0.79578 0.18693 0.0
C391 C 0.75275 0.7679 0.17415 0.0
C392 C 0.75662 0.77263 0.15445 0.0
C393 C 0.77376 0.80667 0.14752 0.0
O394 O 0.85271 0.99282 0.15698 0.0
O395 O 0.85344 0.96527 0.12719 0.0
O396 O 0.77486 0.06663 0.15982 0.0
O397 O 0.78779 0.04178 0.13281 0.0
C398 C 0.77669 0.0732 0.14166 0.0
O399 O 0.74223 0.94865 0.12947 0.0
O400 O 0.74244 0.96955 0.16019 0.0
O401 O 0.81943 0.86822 0.13481 0.0
O402 O 0.79918 0.90409 0.15871 0.0
H403 H 0.79639 0.85051 0.18981 0.0
H404 H 0.74079 0.74115 0.17972 0.0
H405 H 0.77701 0.8102 0.1323 0.0
O406 O 0.22694 0.56933 0.94147 0.0
Tb407 Tb 0.22635 0.57068 0.91054 0.0
Eu408 Eu 0.30663 0.57221 0.88112 0.0
C409 C 0.21424 0.59857 0.95176 0.0
O410 O 0.20057 0.62933 0.94317 0.0
C411 C 0.25889 0.64744 0.89209 0.0
O412 O 0.32069 0.56079 0.85065 0.0
C413 C 0.36826 0.57642 0.90112 0.0
C414 C 0.29253 0.56217 0.83858 0.0
O415 O 0.25884 0.57106 0.84498 0.0
C416 C 0.26405 0.49391 0.89396 0.0
C417 C 0.40294 0.55443 0.90631 0.0
C418 C 0.40816 0.54191 0.92525 0.0
C419 C 0.44201 0.52391 0.9309 0.0
C420 C 0.47049 0.51846 0.91734 0.0
C421 C 0.46622 0.53082 0.89852 0.0
C422 C 0.43254 0.54911 0.89305 0.0
O423 O 0.24867 0.6302 0.908 0.0
O424 O 0.27383 0.62761 0.87805 0.0
O425 O 0.16533 0.57186 0.91475 0.0
O426 O 0.18632 0.56464 0.88667 0.0
C427 C 0.15582 0.56719 0.89698 0.0
O428 O 0.28015 0.51293 0.88 0.0
O429 O 0.25051 0.51191 0.90909 0.0
O430 O 0.36548 0.58861 0.88345 0.0
O431 O 0.33567 0.56523 0.90841 0.0
H432 H 0.3861 0.54673 0.93563 0.0
H433 H 0.49729 0.50619 0.92164 0.0
H434 H 0.42973 0.55942 0.87857 0.0
O435 O 0.70018 0.98861 0.70067 0.0
Tb436 Tb 0.70703 0.99458 0.67024 0.0
Eu437 Eu 0.70519 0.07123 0.63917 0.0
C438 C 0.71013 0.01696 0.71224 0.0
O439 O 0.72291 0.04972 0.70509 0.0
C440 C 0.63337 0.01872 0.64914 0.0
O441 O 0.71574 0.08706 0.60861 0.0
C442 C 0.69919 0.13117 0.6617 0.0
C443 C 0.72571 0.05814 0.59739 0.0
O444 O 0.72855 0.02317 0.60474 0.0
C445 C 0.78043 0.03412 0.65514 0.0
C446 C 0.72148 0.16577 0.66796 0.0
C447 C 0.72556 0.17457 0.68754 0.0
C448 C 0.7448 0.20859 0.69344 0.0
C449 C 0.75927 0.23389 0.67968 0.0
C450 C 0.75423 0.22652 0.6602 0.0
C451 C 0.73602 0.19203 0.65444 0.0
O452 O 0.64835 0.01222 0.66598 0.0
O453 O 0.65363 0.0337 0.63538 0.0
O454 O 0.71893 0.93283 0.67321 0.0
O455 O 0.7111 0.95583 0.64539 0.0
C456 C 0.71854 0.92456 0.65515 0.0
O457 O 0.76338 0.04634 0.63977 0.0
O458 O 0.76155 0.02452 0.67051 0.0
O459 O 0.68749 0.13077 0.64389 0.0
O460 O 0.71013 0.09673 0.66772 0.0
H461 H 0.7134 0.15539 0.6981 0.0
H462 H 0.77212 0.26106 0.68427 0.0
H463 H 0.73215 0.1864 0.63938 0.0
H464 H 0.25458 0.36646 0.17092 0.0
H465 H 0.18506 0.38886 0.12174 0.0
H466 H 0.26424 0.29958 0.16002 0.0
H467 H 0.19385 0.3211 0.1111 0.0
H468 H 0.1856 0.18088 0.12053 0.0
H469 H 0.17587 0.24986 0.12831 0.0
H470 H 0.29616 0.26877 0.12786 0.0
H471 H 0.30602 0.20034 0.11963 0.0
C472 C 0.24135 0.35701 0.15778 0.0
C473 C 0.21913 0.38275 0.14713 0.0
C474 C 0.24696 0.31883 0.15154 0.0
C475 C 0.22976 0.30533 0.13476 0.0
C476 C 0.2073 0.33092 0.12412 0.0
C477 C 0.20242 0.36957 0.13014 0.0
C478 C 0.20992 0.19985 0.12198 0.0
C479 C 0.24657 0.18519 0.11952 0.0
C480 C 0.20432 0.23926 0.12629 0.0
C481 C 0.23529 0.26445 0.12864 0.0
C482 C 0.27186 0.24986 0.12611 0.0
C483 C 0.27744 0.21074 0.12138 0.0
H484 H 0.44102 0.52103 0.42266 0.0
H485 H 0.41696 0.50732 0.36278 0.0
H486 H 0.50577 0.54054 0.4151 0.0
H487 H 0.48205 0.52604 0.35523 0.0
H488 H 0.61407 0.50216 0.35792 0.0
H489 H 0.5465 0.49222 0.3626 0.0
H490 H 0.54182 0.59652 0.39695 0.0
H491 H 0.60959 0.607 0.39195 0.0
C492 C 0.44958 0.52235 0.40789 0.0
C493 C 0.42409 0.51255 0.3933 0.0
C494 C 0.48651 0.53375 0.40356 0.0
C495 C 0.49887 0.53486 0.38458 0.0
C496 C 0.47325 0.52536 0.36998 0.0
C497 C 0.43607 0.5147 0.37429 0.0
C498 C 0.59854 0.52334 0.36621 0.0
C499 C 0.61714 0.55536 0.37458 0.0
C500 C 0.55984 0.5177 0.36883 0.0
C501 C 0.53899 0.54351 0.38019 0.0
C502 C 0.55732 0.5761 0.38818 0.0
C503 C 0.59598 0.58223 0.38522 0.0
H504 H 0.19135 0.80414 0.60446 0.0
H505 H 0.31114 0.81776 0.61369 0.0
H506 H 0.19679 0.73421 0.6106 0.0
H507 H 0.31656 0.7477 0.61931 0.0
H508 H 0.30985 0.61182 0.61051 0.0
H509 H 0.30235 0.67945 0.59971 0.0
H510 H 0.21877 0.69859 0.64326 0.0
H511 H 0.22712 0.63186 0.6544 0.0
C512 C 0.21889 0.79214 0.60753 0.0
C513 C 0.25079 0.81647 0.60871 0.0
C514 C 0.22195 0.75219 0.61105 0.0
C515 C 0.25711 0.73566 0.61532 0.0
C516 C 0.2892 0.75971 0.61586 0.0
C517 C 0.28602 0.7998 0.61279 0.0
C518 C 0.28958 0.63043 0.61756 0.0
C519 C 0.26906 0.61678 0.63326 0.0
C520 C 0.28543 0.66903 0.61147 0.0
C521 C 0.25993 0.69407 0.62066 0.0
C522 C 0.23839 0.67979 0.63586 0.0
C523 C 0.24325 0.6417 0.64224 0.0
H524 H 0.13008 0.54726 0.86117 0.0
H525 H 0.09215 0.57895 0.91741 0.0
H526 H 0.0643 0.53678 0.85123 0.0
H527 H 0.02703 0.5697 0.90752 0.0
H528 H 0.92143 0.50406 0.89374 0.0
H529 H 0.98736 0.5156 0.9005 0.0
H530 H 1.00192 0.56647 0.8449 0.0
H531 H 0.93497 0.55392 0.83784 0.0
C532 C 0.10769 0.55239 0.87133 0.0
C533 C 0.1163 0.56354 0.89013 0.0
C534 C 0.06999 0.54657 0.86562 0.0
C535 C 0.04019 0.5518 0.87862 0.0
C536 C 0.0491 0.56438 0.8972 0.0
C537 C 0.08653 0.56996 0.90288 0.0
C538 C 0.93845 0.51772 0.88284 0.0
C539 C 0.92255 0.52844 0.86528 0.0
C540 C 0.97646 0.52459 0.88681 0.0
C541 C 1.00007 0.54273 0.87343 0.0
C542 C 0.98463 0.55245 0.85556 0.0
C543 C 0.94624 0.54535 0.85152 0.0
H544 H 0.77559 0.68066 0.83505 0.0
H545 H 0.82622 0.64993 0.88879 0.0
H546 H 0.77089 0.7484 0.84556 0.0
H547 H 0.82252 0.71844 0.89911 0.0
H548 H 0.84558 0.85815 0.8928 0.0
H549 H 0.85233 0.78913 0.88401 0.0
H550 H 0.73204 0.78031 0.87586 0.0
H551 H 0.72504 0.84852 0.88507 0.0
C552 C 0.78586 0.68847 0.84909 0.0
C553 C 0.80113 0.6601 0.86115 0.0
C554 C 0.78315 0.72717 0.85508 0.0
C555 C 0.79644 0.73851 0.87309 0.0
C556 C 0.81227 0.71033 0.88511 0.0
C557 C 0.81418 0.67126 0.87927 0.0
C558 C 0.82063 0.84139 0.88917 0.0
C559 C 0.7848 0.85874 0.88962 0.0
C560 C 0.82448 0.80195 0.88428 0.0
C561 C 0.79267 0.77958 0.87931 0.0
C562 C 0.75697 0.797 0.87964 0.0
C563 C 0.75302 0.836 0.88494 0.0
H564 H 0.41451 0.52901 0.66322 0.0
H565 H 0.41177 0.47373 0.60787 0.0
H566 H 0.48034 0.54727 0.65807 0.0
H567 H 0.47747 0.49083 0.603 0.0
H568 H 0.58395 0.55933 0.59132 0.0
H569 H 0.51732 0.54548 0.59698 0.0
H570 H 0.54232 0.51978 0.65582 0.0
H571 H 0.60863 0.53489 0.65021 0.0
C572 C 0.42799 0.52052 0.65003 0.0
C573 C 0.40783 0.50001 0.63595 0.0
C574 C 0.46576 0.53086 0.6471 0.0
C575 C 0.4842 0.52071 0.63006 0.0
C576 C 0.46402 0.49986 0.61611 0.0
C577 C 0.42633 0.48977 0.61898 0.0
C578 C 0.57505 0.55092 0.60546 0.0
C579 C 0.60132 0.54807 0.62031 0.0
C580 C 0.53696 0.54274 0.60871 0.0
C581 C 0.52443 0.53127 0.62685 0.0
C582 C 0.55083 0.52898 0.64175 0.0
C583 C 0.58887 0.53738 0.63851 0.0
H584 H 0.76411 0.18294 0.36104 0.0
H585 H 0.7465 0.19553 0.42152 0.0
H586 H 0.75592 0.25271 0.35701 0.0
H587 H 0.73952 0.26562 0.41761 0.0
H588 H 0.69076 0.38388 0.40248 0.0
H589 H 0.69866 0.31405 0.40609 0.0
H590 H 0.78344 0.31474 0.362 0.0
H591 H 0.7745 0.38469 0.35797 0.0
C592 C 0.75876 0.2006 0.37354 0.0
C593 C 0.75593 0.18337 0.39163 0.0
C594 C 0.75429 0.24086 0.37123 0.0
C595 C 0.74704 0.26525 0.38695 0.0
C596 C 0.74443 0.24796 0.40507 0.0
C597 C 0.74868 0.20763 0.40736 0.0
C598 C 0.71107 0.3692 0.3935 0.0
C599 C 0.73198 0.39009 0.37991 0.0
C600 C 0.71584 0.32899 0.39569 0.0
C601 C 0.74188 0.30834 0.38445 0.0
C602 C 0.76273 0.32929 0.37078 0.0
C603 C 0.75777 0.36957 0.36851 0.0
H604 H 0.92036 0.45416 0.09062 0.0
H605 H 0.88696 0.45052 0.14959 0.0
H606 H 0.98459 0.47094 0.10018 0.0
H607 H 0.95106 0.46836 0.15925 0.0
H608 H 0.08095 0.46808 0.16913 0.0
H609 H 0.01653 0.44758 0.16102 0.0
H610 H 0.01726 0.52582 0.11308 0.0
H611 H 0.08111 0.54543 0.12083 0.0
C612 C 0.92681 0.45694 0.10564 0.0
C613 C 0.89864 0.45121 0.11934 0.0
C614 C 0.96358 0.46683 0.11115 0.0
C615 C 0.97307 0.47148 0.13052 0.0
C616 C 0.94495 0.46478 0.14424 0.0
C617 C 0.90815 0.45476 0.1387 0.0
C618 C 0.06716 0.48105 0.15696 0.0
C619 C 0.08642 0.50817 0.14557 0.0
C620 C 0.03023 0.46933 0.1523 0.0
C621 C 0.01178 0.48456 0.13618 0.0
C622 C 0.03077 0.51259 0.12526 0.0
C623 C 0.06747 0.52411 0.12984 0.0
H624 H 0.7561 0.86636 0.67254 0.0
H625 H 0.69898 0.89508 0.6202 0.0
H626 H 0.76793 0.8007 0.66054 0.0
H627 H 0.7099 0.82852 0.60836 0.0
H628 H 0.69222 0.68927 0.61546 0.0
H629 H 0.6853 0.75877 0.62232 0.0
H630 H 0.80542 0.7687 0.63096 0.0
H631 H 0.81262 0.69929 0.62366 0.0
C632 C 0.74615 0.85858 0.65843 0.0
C633 C 0.72654 0.88562 0.64729 0.0
C634 C 0.75313 0.82114 0.65155 0.0
C635 C 0.7399 0.80971 0.63354 0.0
C636 C 0.72039 0.83677 0.6223 0.0
C637 C 0.7142 0.87469 0.62903 0.0
C638 C 0.71721 0.70638 0.61861 0.0
C639 C 0.75295 0.68883 0.61915 0.0
C640 C 0.71324 0.74614 0.62238 0.0
C641 C 0.74483 0.76892 0.62716 0.0
C642 C 0.78066 0.75164 0.62731 0.0
C643 C 0.78476 0.71203 0.6231 0.0
H644 H 0.12494 0.99561 0.88162 0.0
H645 H 0.10422 0.11862 0.87424 0.0
H646 H 0.05899 0.98488 0.88832 0.0
H647 H 0.03691 0.1073 0.88101 0.0
H648 H 0.91346 0.04829 0.8733 0.0
H649 H 0.97881 0.06777 0.86638 0.0
H650 H 0.01671 1.00456 0.91574 0.0
H651 H 0.95192 0.98528 0.92261 0.0
C652 C 0.10636 0.02054 0.88132 0.0
C653 C 0.1202 0.05815 0.87742 0.0
C654 C 0.06841 0.01425 0.8853 0.0
C655 C 0.04285 0.04525 0.88541 0.0
C656 C 0.0561 0.08286 0.88103 0.0
C657 C 0.09457 0.08934 0.87721 0.0
C658 C 0.93583 0.03884 0.8827 0.0
C659 C 0.92774 0.01494 0.89838 0.0
C660 C 0.9731 0.05022 0.87882 0.0
C661 C 1.00284 0.03749 0.89046 0.0
C662 C 0.99442 0.01449 0.90641 0.0
C663 C 0.95732 1.00345 0.91035 0.0
H664 H 0.8007 0.102 0.10736 0.0
H665 H 0.73383 0.1303 0.15673 0.0
H666 H 0.79071 0.16817 0.09505 0.0
H667 H 0.72312 0.19552 0.14431 0.0
H668 H 0.68596 0.29895 0.10876 0.0
H669 H 0.69141 0.22915 0.11497 0.0
H670 H 0.81222 0.23714 0.10887 0.0
H671 H 0.807 0.307 0.10297 0.0
C672 C 0.78339 0.12212 0.11538 0.0
C673 C 0.76813 0.11122 0.133 0.0
C674 C 0.77779 0.15989 0.10839 0.0
C675 C 0.75603 0.18684 0.11871 0.0
C676 C 0.73967 0.17525 0.13597 0.0
C677 C 0.74597 0.138 0.14312 0.0
C678 C 0.71363 0.28573 0.10844 0.0
C679 C 0.74607 0.30858 0.10553 0.0
C680 C 0.71672 0.24583 0.11204 0.0
C681 C 0.75223 0.22782 0.11241 0.0
C682 C 0.78449 0.25023 0.10852 0.0
C683 C 0.78148 0.29026 0.10529 0.0
H684 H 0.59729 0.07003 0.42028 0.0
H685 H 0.63612 0.03945 0.36405 0.0
H686 H 0.53243 0.05994 0.41027 0.0
H687 H 0.5705 0.02816 0.35396 0.0
H688 H 0.42711 0.99447 0.39611 0.0
H689 H 0.49314 1.00561 0.40297 0.0
H690 H 0.50797 0.05776 0.34767 0.0
H691 H 0.44104 0.04561 0.34052 0.0
C692 C 0.59192 0.06106 0.40573 0.0
C693 C 0.62189 0.05524 0.39302 0.0
C694 C 0.55462 0.055 0.39998 0.0
C695 C 0.54601 0.04253 0.38136 0.0
C696 C 0.57598 0.03782 0.36839 0.0
C697 C 0.61358 0.04412 0.37418 0.0
C698 C 0.44424 1.00827 0.3853 0.0
C699 C 0.42844 0.0195 0.3678 0.0
C700 C 0.4823 0.0149 0.38931 0.0
C701 C 0.50598 0.03332 0.37606 0.0
C702 C 0.49063 0.04349 0.35824 0.0
C703 C 0.45224 0.03662 0.35415 0.0
H704 H 0.32835 0.17972 0.33499 0.0
H705 H 0.29512 0.14225 0.39106 0.0
H706 H 0.32244 0.24755 0.3449 0.0
H707 H 0.28955 0.21033 0.40114 0.0
H708 H 0.23741 0.33352 0.40292 0.0
H709 H 0.24794 0.26556 0.3947 0.0
H710 H 0.35067 0.29734 0.36564 0.0
H711 H 0.33993 0.36567 0.37367 0.0
C712 C 0.32007 0.18604 0.3495 0.0
C713 C 0.31209 0.15575 0.36225 0.0
C714 C 0.31691 0.22493 0.35522 0.0
C715 C 0.3055 0.23445 0.37382 0.0
C716 C 0.29801 0.20402 0.38665 0.0
C717 C 0.30137 0.16506 0.38093 0.0
C718 C 0.26235 0.32612 0.39482 0.0
C719 C 0.28773 0.3552 0.38888 0.0
C720 C 0.26852 0.28702 0.39023 0.0
C721 C 0.30014 0.27592 0.37951 0.0
C722 C 0.3258 0.30493 0.37375 0.0
C723 C 0.31973 0.34409 0.37843 0.0
H724 H 0.92267 0.94144 0.12136 0.0
H725 H 0.91071 0.04361 0.15681 0.0
H726 H 0.98937 0.95704 0.11654 0.0
H727 H 0.9774 0.05985 0.15141 0.0
H728 H 0.07901 0.09136 0.1076 0.0
H729 H 0.01397 0.07538 0.11651 0.0
H730 H 0.05174 0.96736 0.14092 0.0
H731 H 0.11713 0.98394 0.13261 0.0
C732 C 0.93434 0.96717 0.12816 0.0
C733 C 0.9115 0.99135 0.13945 0.0
C734 C 0.97249 0.97595 0.12546 0.0
C735 C 0.98836 1.0096 0.1336 0.0
C736 C 0.9657 0.03373 0.14499 0.0
C737 C 0.92769 0.02437 0.14812 0.0
C738 C 0.07344 0.06435 0.11499 0.0
C739 C 0.103 0.03882 0.1194 0.0
C740 C 0.03633 0.05536 0.12017 0.0
C741 C 0.02801 0.02024 0.12942 0.0
C742 C 0.05755 0.99465 0.13381 0.0
C743 C 0.09483 1.00412 0.12907 0.0
H744 H 0.22569 0.69988 0.91662 0.0
H745 H 0.28323 0.69288 0.8626 0.0
H746 H 0.21965 0.7702 0.91276 0.0
H747 H 0.2782 0.76296 0.85901 0.0
H748 H 0.2347 0.8862 0.84951 0.0
H749 H 0.23645 0.81541 0.85289 0.0
H750 H 0.25542 0.82875 0.91331 0.0
H751 H 0.2526 0.89903 0.90999 0.0
C752 C 0.23721 0.71328 0.90396 0.0
C753 C 0.25501 0.69049 0.88997 0.0
C754 C 0.23392 0.75375 0.90177 0.0
C755 C 0.24846 0.77262 0.88555 0.0
C756 C 0.26608 0.74968 0.87155 0.0
C757 C 0.26923 0.7093 0.8737 0.0
C758 C 0.23914 0.87398 0.86351 0.0
C759 C 0.24351 0.89846 0.87945 0.0
C760 C 0.24035 0.8333 0.86546 0.0
C761 C 0.24608 0.81601 0.88341 0.0
C762 C 0.25032 0.84068 0.89931 0.0
C763 C 0.24898 0.8812 0.89737 0.0
H764 H 0.42909 0.93584 0.59321 0.0
H765 H 0.38902 0.9725 0.64834 0.0
H766 H 0.49351 0.95237 0.60258 0.0
H767 H 0.45353 0.98976 0.65771 0.0
H768 H 0.59444 0.02935 0.61603 0.0
H769 H 0.53019 1.01035 0.60844 0.0
H770 H 0.51647 0.96418 0.66506 0.0
H771 H 0.58121 0.98386 0.67285 0.0
C772 C 0.43409 0.94735 0.60737 0.0
C773 C 0.40397 0.95299 0.62 0.0
C774 C 0.47102 0.9571 0.61272 0.0
C775 C 0.47885 0.9728 0.63087 0.0
C776 C 0.44871 0.97751 0.64369 0.0
C777 C 0.41169 0.96778 0.6383 0.0
C778 C 0.57788 0.01524 0.62696 0.0
C779 C 0.59328 1.00811 0.64508 0.0
C780 C 0.54094 1.00403 0.62252 0.0
C781 C 0.51808 0.98529 0.63604 0.0
C782 C 0.53315 0.97871 0.65431 0.0
C783 C 0.57034 0.98991 0.65877 0.0
H784 H 0.26331 0.15592 0.94646 0.0
H785 H 0.217 0.03983 0.94195 0.0
H786 H 0.26615 0.14971 0.98103 0.0
H787 H 0.21916 0.03388 0.9768 0.0
H788 H 0.18562 0.06773 0.03982 0.0
H789 H 0.18519 0.07044 0.00505 0.0
H790 H 0.30189 0.10647 0.00547 0.0
H791 H 0.30265 0.10318 0.04026 0.0
C792 C 0.2538 0.12902 0.9529 0.0
C793 C 0.23992 0.09833 0.94158 0.0
C794 C 0.25558 0.12545 0.97266 0.0
C795 C 0.24287 0.09136 0.98156 0.0
C796 C 0.22897 0.06055 0.97026 0.0
C797 C 0.22788 0.06386 0.95038 0.0
C798 C 0.21117 0.07632 0.03251 0.0
C799 C 0.24414 0.08542 0.04278 0.0
C800 C 0.21098 0.07752 0.01261 0.0
C801 C 0.24353 0.08852 1.00261 0.0
C802 C 0.27639 0.09798 0.01287 0.0
C803 C 0.2768 0.09609 0.03275 0.0
H804 H 0.7543 0.47822 0.26782 0.0
H805 H 0.65715 0.54535 0.25131 0.0
H806 H 0.75078 0.44219 0.23781 0.0
H807 H 0.65477 0.51129 0.22104 0.0
H808 H 0.64844 0.43854 0.16866 0.0
H809 H 0.64447 0.45649 0.20218 0.0
H810 H 0.76618 0.45577 0.20596 0.0
H811 H 0.76987 0.43605 0.17274 0.0
C812 C 0.73164 0.48463 0.25799 0.0
C813 C 0.70625 0.51493 0.26186 0.0
C814 C 0.72997 0.46445 0.24061 0.0
C815 C 0.70299 0.47425 0.22668 0.0
C816 C 0.67588 0.50256 0.23129 0.0
C817 C 0.67737 0.5224 0.24866 0.0
C818 C 0.67432 0.44184 0.17673 0.0
C819 C 0.70947 0.43616 0.16798 0.0
C820 C 0.67209 0.45231 0.19597 0.0
C821 C 0.705 0.45799 0.20691 0.0
C822 C 0.74013 0.45112 0.19822 0.0
C823 C 0.74231 0.44012 0.17904 0.0
H824 H 0.32122 0.91172 0.53828 0.0
H825 H 0.20659 0.95348 0.53544 0.0
H826 H 0.32643 0.91731 0.50373 0.0
H827 H 0.21185 0.95887 0.50096 0.0
H828 H 0.25817 0.01847 0.44687 0.0
H829 H 0.24854 1.00358 0.48029 0.0
H830 H 0.30152 0.89179 0.47224 0.0
H831 H 0.31124 0.90677 0.43848 0.0
C832 C 0.29699 0.92163 0.53028 0.0
C833 C 0.26361 0.93251 0.53967 0.0
C834 C 0.29992 0.92461 0.51047 0.0
C835 C 0.26966 0.93881 0.49963 0.0
C836 C 0.23584 0.9483 0.50895 0.0
C837 C 0.2328 0.94506 0.52872 0.0
C838 C 0.26762 0.99058 0.45214 0.0
C839 C 0.2856 0.96385 0.44001 0.0
C840 C 0.26183 0.98194 0.4713 0.0
C841 C 0.27416 0.94646 0.47892 0.0
C842 C 0.29187 0.91946 0.46679 0.0
C843 C 0.29727 0.92794 0.44746 0.0
H844 H 0.78952 0.58554 0.77981 0.0
H845 H 0.83471 0.47052 0.77025 0.0
H846 H 0.78367 0.59477 0.74563 0.0
H847 H 0.82856 0.47979 0.73587 0.0
H848 H 0.84855 0.53095 0.67533 0.0
H849 H 0.8553 0.51939 0.70948 0.0
H850 H 0.74552 0.56959 0.71909 0.0
H851 H 0.73885 0.5814 0.6851 0.0
C852 C 0.79823 0.56216 0.77043 0.0
C853 C 0.81255 0.52724 0.77784 0.0
C854 C 0.79464 0.5674 0.75079 0.0
C855 C 0.80545 0.53797 0.73798 0.0
C856 C 0.82021 0.50316 0.74534 0.0
C857 C 0.82357 0.49779 0.76505 0.0
C858 C 0.82582 0.53945 0.68473 0.0
C859 C 0.79322 0.55727 0.67745 0.0
C860 C 0.82962 0.53262 0.7043 0.0
C861 C 0.80104 0.54373 0.71706 0.0
C862 C 0.76832 0.56116 0.70972 0.0
C863 C 0.76441 0.56775 0.69018 0.0
H864 H 0.81634 0.8805 0.06598 0.0
H865 H 0.74017 0.9781 0.06289 0.0
H866 H 0.81439 0.87437 0.03119 0.0
H867 H 0.73823 0.97198 0.02846 0.0
H868 H 0.72045 0.93781 0.96803 0.0
H869 H 0.71723 0.92746 1.00227 0.0
H870 H 0.83851 0.91792 0.00463 0.0
H871 H 0.84187 0.92804 0.97031 0.0
C872 C 0.7988 0.9002 0.05791 0.0
C873 C 0.77863 0.92994 0.06709 0.0
C874 C 0.79782 0.89681 0.03805 0.0
C875 C 0.77613 0.92267 0.02716 0.0
C876 C 0.75483 0.95132 0.03648 0.0
C877 C 0.75619 0.95502 0.0562 0.0
C878 C 0.74641 0.9329 0.97578 0.0
C879 C 0.78147 0.93432 0.96651 0.0
C880 C 0.74453 0.92704 0.99539 0.0
C881 C 0.77763 0.92223 0.00611 0.0
C882 C 0.81253 0.92129 0.99669 0.0
C883 C 0.81445 0.92738 0.97707 0.0
H884 H 0.33645 0.45175 0.72926 0.0
H885 H 0.29223 0.56575 0.71625 0.0
H886 H 0.33438 0.46776 0.76326 0.0
H887 H 0.2904 0.58144 0.74993 0.0
H888 H 0.24197 0.57135 0.80991 0.0
H889 H 0.25006 0.55535 0.77643 0.0
H890 H 0.36325 0.5157 0.78776 0.0
H891 H 0.35521 0.53167 0.82152 0.0
C892 C 0.32664 0.48024 0.73362 0.0
C893 C 0.31413 0.50731 0.7201 0.0
C894 C 0.32563 0.48941 0.75302 0.0
C895 C 0.31187 0.52566 0.75913 0.0
C896 C 0.30058 0.55308 0.74558 0.0
C897 C 0.30176 0.54405 0.72628 0.0
C898 C 0.26863 0.55929 0.80531 0.0
C899 C 0.29802 0.55291 0.8183 0.0
C900 C 0.27329 0.55029 0.78613 0.0
C901 C 0.30734 0.53451 0.77956 0.0
C902 C 0.33669 0.5277 0.79254 0.0
C903 C 0.33214 0.53706 0.81177 0.0
H904 H 0.76128 1.00817 0.57348 0.0
H905 H 0.70688 0.12044 0.57496 0.0
H906 H 0.77095 0.01455 0.5394 0.0
H907 H 0.7166 0.12676 0.54053 0.0
H908 H 0.69691 0.08961 0.47645 0.0
H909 H 0.6914 0.09142 0.51109 0.0
H910 H 0.80743 0.05543 0.51628 0.0
H911 H 0.81307 0.05357 0.48167 0.0
C912 C 0.75156 0.03437 0.56654 0.0
C913 C 0.73319 0.06377 0.57689 0.0
C914 C 0.75736 0.0381 0.54701 0.0
C915 C 0.7446 0.07116 0.53732 0.0
C916 C 0.72656 0.10087 0.54766 0.0
C917 C 0.72116 0.09735 0.56734 0.0
C918 C 0.72133 0.08231 0.48498 0.0
C919 C 0.75535 0.07114 0.47632 0.0
C920 C 0.71822 0.08367 0.5048 0.0
C921 C 0.74895 0.07349 0.51636 0.0
C922 C 0.7832 0.06312 0.5077 0.0
C923 C 0.78643 0.06215 0.48789 0.0
H924 H 0.17891 0.45523 0.22965 0.0
H925 H 0.24719 0.55838 0.23819 0.0
H926 H 0.18317 0.44087 0.26358 0.0
H927 H 0.25112 0.54411 0.27208 0.0
H928 H 0.29019 0.4803 0.32511 0.0
H929 H 0.28235 0.49348 0.2914 0.0
H930 H 0.16372 0.46605 0.29559 0.0
H931 H 0.17155 0.45253 0.32955 0.0
C932 C 0.19456 0.47503 0.23878 0.0
C933 C 0.21293 0.50783 0.23119 0.0
C934 C 0.19684 0.46685 0.25822 0.0
C935 C 0.21774 0.49115 0.27046 0.0
C936 C 0.23529 0.52448 0.26294 0.0
C937 C 0.23284 0.53279 0.24354 0.0
C938 C 0.26242 0.47679 0.31888 0.0
C939 C 0.23144 0.4655 0.33006 0.0
C940 C 0.2579 0.48468 0.29956 0.0
C941 C 0.22234 0.48131 0.29089 0.0
C942 C 0.1915 0.46883 0.30189 0.0
C943 C 0.19598 0.46112 0.32132 0.0
H944 H 0.68698 0.64059 0.45168 0.0
H945 H 0.75976 0.54054 0.44808 0.0
H946 H 0.68924 0.63787 0.48618 0.0
H947 H 0.76324 0.53841 0.48297 0.0
H948 H 0.72967 0.52864 0.54721 0.0
H949 H 0.72931 0.52633 0.51236 0.0
H950 H 0.73245 0.65203 0.51088 0.0
H951 H 0.73152 0.65423 0.5454 0.0
C952 C 0.70352 0.61793 0.45832 0.0
C953 C 0.72331 0.59088 0.44719 0.0
C954 C 0.70515 0.61657 0.47815 0.0
C955 C 0.72702 0.58837 0.48748 0.0
C956 C 0.74602 0.56047 0.47631 0.0
C957 C 0.74412 0.56169 0.45634 0.0
C958 C 0.7306 0.55572 0.53939 0.0
C959 C 0.73018 0.59163 0.54909 0.0
C960 C 0.73048 0.55441 0.5194 0.0
C961 C 0.73015 0.589 0.50871 0.0
C962 C 0.73154 0.62477 0.51854 0.0
C963 C 0.73132 0.62606 0.53841 0.0
H964 H 0.15276 0.93553 0.66847 0.0
H965 H 0.27272 0.95757 0.67078 0.0
H966 H 0.1476 0.95241 0.70217 0.0
H967 H 0.26747 0.97483 0.70429 0.0
H968 H 0.25454 0.98905 0.7666 0.0
H969 H 0.25346 0.95254 0.73665 0.0
H970 H 0.15298 0.01405 0.71966 0.0
H971 H 0.15376 0.04983 0.74969 0.0
C972 C 0.1781 0.9435 0.6762 0.0
C973 C 0.21311 0.94555 0.66688 0.0
C974 C 0.1751 0.95328 0.6955 0.0
C975 C 0.20708 0.96508 0.70593 0.0
C976 C 0.24233 0.96539 0.69678 0.0
C977 C 0.2453 0.9558 0.67749 0.0
C978 C 0.23147 0.99367 0.75676 0.0
C979 C 0.20434 0.02242 0.76041 0.0
C980 C 0.23112 0.97315 0.7395 0.0
C981 C 0.20349 0.98081 0.72563 0.0
C982 C 0.17458 1.00725 0.73002 0.0
C983 C 0.17506 0.02787 0.74721 0.0
H984 H 0.79913 0.52793 0.95072 0.0
H985 H 0.79319 0.40625 0.93526 0.0
H986 H 0.79404 0.51099 0.98411 0.0
H987 H 0.78707 0.38918 0.96889 0.0
H988 H 0.82317 0.37305 0.03164 0.0
H989 H 0.82313 0.38726 0.99775 0.0
H990 H 0.75249 0.4873 0.00803 0.0
H991 H 0.75344 0.47363 0.04208 0.0
C992 C 0.79641 0.49748 0.95442 0.0
C993 C 0.7967 0.46845 0.94023 0.0
C994 C 0.79317 0.48776 0.97366 0.0
C995 C 0.78998 0.44868 0.97934 0.0
C996 C 0.78991 0.41957 0.96512 0.0
C997 C 0.79324 0.42934 0.9458 0.0
C998 C 0.80741 0.39797 0.02669 0.0
C999 C 0.78851 0.42234 0.03967 0.0
C1000 C 0.80719 0.406 0.00717 0.0
C1001 C 0.78798 0.43858 1.00003 0.0
C1002 C 0.76818 0.46234 0.01298 0.0
C1003 C 0.7685 0.45437 0.03254 0.0
H1004 H 0.25116 0.03614 0.18551 0.0
H1005 H 0.35096 0.10781 0.18039 0.0
H1006 H 0.26239 0.02977 0.21943 0.0
H1007 H 0.36147 0.10281 0.21462 0.0
H1008 H 0.39135 0.05156 0.27273 0.0
H1009 H 0.38065 0.0586 0.23862 0.0
H1010 H 0.26046 0.06341 0.24853 0.0
H1011 H 0.27115 0.05477 0.28239 0.0
C1012 C 0.27524 0.05105 0.19168 0.0
C1013 C 0.30015 0.07251 0.18023 0.0
C1014 C 0.28162 0.04754 0.21121 0.0
C1015 C 0.31285 0.0658 0.21988 0.0
C1016 C 0.33748 0.0878 0.20843 0.0
C1017 C 0.33129 0.09096 0.18882 0.0
C1018 C 0.36266 0.05397 0.26758 0.0
C1019 C 0.33211 0.05236 0.28026 0.0
C1020 C 0.3565 0.05834 0.24803 0.0
C1021 C 0.31965 0.06159 0.24072 0.0
C1022 C 0.28919 0.06026 0.25351 0.0
C1023 C 0.29533 0.05547 0.27299 0.0
H1024 H 0.34066 0.40596 0.46136 0.0
H1025 H 0.23829 0.46754 0.47528 0.0
H1026 H 0.34769 0.38727 0.49461 0.0
H1027 H 0.24584 0.44984 0.50852 0.0
H1028 H 0.25588 0.39685 0.56625 0.0
H1029 H 0.24567 0.39915 0.53193 0.0
H1030 H 0.36466 0.42041 0.5235 0.0
H1031 H 0.37497 0.41701 0.55763 0.0
C1032 C 0.3195 0.41527 0.47148 0.0
C1033 C 0.28912 0.43857 0.4657 0.0
C1034 C 0.32363 0.40472 0.49056 0.0
C1035 C 0.29753 0.41731 0.50431 0.0
C1036 C 0.26628 0.43922 0.49833 0.0
C1037 C 0.26208 0.44965 0.47925 0.0
C1038 C 0.27994 0.40135 0.55704 0.0
C1039 C 0.31619 0.40709 0.5647 0.0
C1040 C 0.27405 0.40292 0.53737 0.0
C1041 C 0.30426 0.41038 0.52493 0.0
C1042 C 0.34077 0.4142 0.53258 0.0
C1043 C 0.34667 0.41247 0.55222 0.0
H1044 H 0.84994 0.02408 0.32196 0.0
H1045 H 0.73229 0.05069 0.31266 0.0
H1046 H 0.85703 1.00915 0.2881 0.0
H1047 H 0.73948 0.03568 0.27897 0.0
H1048 H 0.77956 0.05484 0.21819 0.0
H1049 H 0.77521 0.06739 0.25215 0.0
H1050 H 0.83243 0.95928 0.26363 0.0
H1051 H 0.83698 0.94647 0.22939 0.0
C1052 C 0.82563 0.02667 0.31271 0.0
C1053 C 0.79061 0.03877 0.3199 0.0
C1054 C 0.82967 0.0179 0.2934 0.0
C1055 C 0.79885 0.02147 0.281 0.0
C1056 C 0.76378 0.03315 0.28824 0.0
C1057 C 0.75966 0.04159 0.30752 0.0
C1058 C 0.79139 0.03372 0.22789 0.0
C1059 C 0.80847 0.99954 0.22113 0.0
C1060 C 0.78869 0.04087 0.24734 0.0
C1061 C 0.80321 0.01414 0.26043 0.0
C1062 C 0.82114 0.98037 0.25375 0.0
C1063 C 0.8236 0.97301 0.23421 0.0
H1064 H 0.21282 0.63447 0.0759 0.0
H1065 H 0.19241 0.512 0.06586 0.0
H1066 H 0.21853 0.6446 0.04149 0.0
H1067 H 0.19723 0.52216 0.03189 0.0
H1068 H 0.24541 0.54196 0.97382 0.0
H1069 H 0.24389 0.53643 0.00829 0.0
H1070 H 0.18135 0.64384 0.01203 0.0
H1071 H 0.18372 0.64991 0.97742 0.0
C1072 C 0.20944 0.60981 0.06639 0.0
C1073 C 0.20236 0.57243 0.07364 0.0
C1074 C 0.21255 0.61561 0.04669 0.0
C1075 C 0.20869 0.58411 0.03391 0.0
C1076 C 0.2012 0.54694 0.04127 0.0
C1077 C 0.19817 0.54117 0.06083 0.0
C1078 C 0.23145 0.56451 0.98196 0.0
C1079 C 0.21442 0.5962 0.97283 0.0
C1080 C 0.23042 0.56126 1.00175 0.0
C1081 C 0.21213 0.58948 0.01296 0.0
C1082 C 0.19591 0.62173 1.00386 0.0
C1083 C 0.19707 0.62507 0.98401 0.0
H1084 H 0.74042 0.06398 0.73974 0.0
H1085 H 0.68021 0.95546 0.73168 0.0
H1086 H 0.74518 0.05084 0.77374 0.0
H1087 H 0.68506 0.94244 0.76574 0.0
H1088 H 0.67211 0.95688 0.83172 0.0
H1089 H 0.66308 0.96954 0.79776 0.0
H1090 H 0.78074 1.00053 0.79271 0.0
H1091 H 0.78988 0.98791 0.82644 0.0
C1092 C 0.72792 0.03751 0.74523 0.0
C1093 C 0.71016 1.01064 0.73301 0.0
C1094 C 0.73085 0.0299 0.76467 0.0
C1095 C 0.71577 0.99547 0.7723 0.0
C1096 C 0.6968 0.96926 0.76022 0.0
C1097 C 0.69418 0.97668 0.74073 0.0
C1098 C 0.69606 0.96613 0.82331 0.0
C1099 C 0.73167 0.97151 0.83176 0.0
C1100 C 0.69089 0.97331 0.8039 0.0
C1101 C 0.72113 0.98641 0.7927 0.0
C1102 C 0.75681 0.99106 0.80109 0.0
C1103 C 0.76207 0.98353 0.82039 0.0
H1104 H 0.55059 0.09164 0.96165 0.0
H1105 H 0.58941 0.97437 0.97155 0.0
H1106 H 0.51901 0.09153 0.99216 0.0
H1107 H 0.56093 0.97562 1.00294 0.0
H1108 H 0.46966 0.96904 0.0477 0.0
H1109 H 0.50231 0.97063 0.01715 0.0
H1110 H 0.52258 0.09413 0.02471 0.0
H1111 H 0.48762 0.09242 0.05452 0.0
C1112 C 0.55293 0.066 0.97047 0.0
C1113 C 0.57204 0.03276 0.9639 0.0
C1114 C 0.53516 0.06612 0.98818 0.0
C1115 C 0.53679 0.03333 1.00007 0.0
C1116 C 0.55802 1.00102 0.99401 0.0
C1117 C 0.57515 1.0006 0.9761 0.0
C1118 C 0.48059 0.99651 0.04252 0.0
C1119 C 0.47575 0.0307 0.05315 0.0
C1120 C 0.49985 0.99745 0.02519 0.0
C1121 C 0.51557 0.03248 0.01839 0.0
C1122 C 0.51041 0.06672 0.02918 0.0
C1123 C 0.4904 0.06586 0.04628 0.0
H1124 H 0.67379 0.65541 0.26866 0.0
H1125 H 0.78861 0.65726 0.28889 0.0
H1126 H 0.68629 0.71205 0.24915 0.0
H1127 H 0.80117 0.71533 0.26982 0.0
H1128 H 0.81961 0.75656 0.20673 0.0
H1129 H 0.8101 0.72227 0.23659 0.0
H1130 H 0.70136 0.77734 0.24284 0.0
H1131 H 0.71074 0.81032 0.2124 0.0
C1132 C 0.70139 0.66899 0.26948 0.0
C1133 C 0.73032 0.65163 0.28012 0.0
C1134 C 0.70862 0.70173 0.25833 0.0
C1135 C 0.74503 0.71816 0.25756 0.0
C1136 C 0.773 0.70304 0.26972 0.0
C1137 C 0.76572 0.67008 0.28089 0.0
C1138 C 0.79439 0.76243 0.21492 0.0
C1139 C 0.76603 0.78622 0.20742 0.0
C1140 C 0.78882 0.74278 0.2321 0.0
C1141 C 0.75465 0.74646 0.24215 0.0
C1142 C 0.72771 0.77314 0.23537 0.0
C1143 C 0.7332 0.79251 0.21807 0.0
H1144 H 0.91687 0.97119 0.45282 0.0
H1145 H 0.99878 0.06423 0.45209 0.0
H1146 H 0.93905 0.95196 0.48449 0.0
H1147 H 0.02012 0.04632 0.48377 0.0
H1148 H 0.07847 0.98466 0.53138 0.0
H1149 H 0.05539 0.99774 0.49934 0.0
H1150 H 0.94208 0.9691 0.51717 0.0
H1151 H 0.96553 0.95374 0.54875 0.0
C1152 C 0.93907 0.98794 0.45965 0.0
C1153 C 0.95621 0.01906 0.45007 0.0
C1154 C 0.9519 0.97697 0.47775 0.0
C1155 C 0.98191 0.99716 0.48664 0.0
C1156 C 0.9978 0.0293 0.47723 0.0
C1157 C 0.98526 0.03994 0.45916 0.0
C1158 C 0.04878 0.98038 0.52835 0.0
C1159 C 0.02385 0.9687 0.54276 0.0
C1160 C 0.03537 0.98846 0.51003 0.0
C1161 C 0.99664 0.98526 0.50568 0.0
C1162 C 0.97202 0.97189 0.51989 0.0
C1163 C 0.98547 0.96354 0.53813 0.0
H1164 H 0.68714 0.22529 0.71776 0.0
H1165 H 0.80832 0.22261 0.71414 0.0
H1166 H 0.69151 0.2589 0.74839 0.0
H1167 H 0.81321 0.25431 0.74517 0.0
H1168 H 0.81483 0.34441 0.79175 0.0
H1169 H 0.80673 0.31405 0.76055 0.0
H1170 H 0.70552 0.25671 0.78041 0.0
H1171 H 0.71218 0.28927 0.81089 0.0
C1172 C 0.71473 0.23075 0.72388 0.0
C1173 C 0.74737 0.22093 0.71371 0.0
C1174 C 0.71737 0.25024 0.74144 0.0
C1175 C 0.7528 0.26 0.74938 0.0
C1176 C 0.78541 0.24845 0.73944 0.0
C1177 C 0.7827 0.22956 0.72179 0.0
C1178 C 0.79032 0.32617 0.78928 0.0
C1179 C 0.76447 0.31902 0.804 0.0
C1180 C 0.786 0.30802 0.77144 0.0
C1181 C 0.75586 0.28197 0.76788 0.0
C1182 C 0.72906 0.27647 0.78237 0.0
C1183 C 0.73312 0.29495 0.80004 0.0
H1184 H 0.29008 0.14829 0.77165 0.0
H1185 H 0.17307 0.17725 0.77925 0.0
H1186 H 0.29829 0.20413 0.75083 0.0
H1187 H 0.18127 0.2347 0.75922 0.0
H1188 H 0.194 0.27584 0.69678 0.0
H1189 H 0.18606 0.24157 0.72654 0.0
H1190 H 0.30102 0.2699 0.7421 0.0
H1191 H 0.30928 0.30276 0.71155 0.0
C1192 C 0.26657 0.16786 0.76955 0.0
C1193 C 0.23105 0.15876 0.77711 0.0
C1194 C 0.27118 0.20002 0.75759 0.0
C1195 C 0.24031 0.22394 0.75297 0.0
C1196 C 0.20552 0.21657 0.76202 0.0
C1197 C 0.20084 0.18401 0.77374 0.0
C1198 C 0.21732 0.27555 0.70677 0.0
C1199 C 0.25243 0.29146 0.70167 0.0
C1200 C 0.21273 0.25605 0.72401 0.0
C1201 C 0.24309 0.25216 0.7368 0.0
C1202 C 0.27722 0.27142 0.73247 0.0
C1203 C 0.28186 0.29081 0.71507 0.0
H1204 H 0.30441 0.74796 0.20559 0.0
H1205 H 0.19593 0.70258 0.2225 0.0
H1206 H 0.31126 0.78006 0.2361 0.0
H1207 H 0.20409 0.73211 0.2539 0.0
H1208 H 0.20744 0.82274 0.30097 0.0
H1209 H 0.20157 0.79099 0.26993 0.0
H1210 H 0.32281 0.77785 0.26794 0.0
H1211 H 0.32821 0.81184 0.29834 0.0
C1212 C 0.28218 0.74425 0.21599 0.0
C1213 C 0.24925 0.72317 0.21134 0.0
C1214 C 0.28632 0.76245 0.23371 0.0
C1215 C 0.25804 0.75948 0.24766 0.0
C1216 C 0.22611 0.73624 0.24345 0.0
C1217 C 0.22169 0.71849 0.22551 0.0
C1218 C 0.23278 0.814 0.29352 0.0
C1219 C 0.26832 0.82057 0.30179 0.0
C1220 C 0.22948 0.79501 0.27588 0.0
C1221 C 0.26164 0.78116 0.26624 0.0
C1222 C 0.29729 0.78848 0.27454 0.0
C1223 C 0.30055 0.80815 0.292 0.0
H1224 H 0.99318 0.46064 0.55602 0.0
H1225 H 0.95924 0.57904 0.54484 0.0
H1226 H 0.02679 0.45879 0.52609 0.0
H1227 H 0.98978 0.57592 0.51396 0.0
H1228 H 0.07961 0.57715 0.4689 0.0
H1229 H 0.04891 0.57773 0.49998 0.0
H1230 H 0.02331 0.45503 0.49353 0.0
H1231 H 0.05629 0.45448 0.46316 0.0
C1232 C 0.99245 0.48619 0.54706 0.0
C1233 C 0.97392 0.52022 0.55307 0.0
C1234 C 0.0114 0.48494 0.52968 0.0
C1235 C 0.01157 0.51737 0.51755 0.0
C1236 C 0.99128 0.5507 0.5231 0.0
C1237 C 0.97295 0.55222 0.54069 0.0
C1238 C 0.0682 0.55025 0.4745 0.0
C1239 C 0.07073 0.51566 0.46394 0.0
C1240 C 0.04999 0.55059 0.49212 0.0
C1241 C 0.03302 0.51652 0.4993 0.0
C1242 C 0.03643 0.48173 0.48875 0.0
C1243 C 0.05536 0.48128 0.47133 0.0
H1244 H 0.5253 0.5456 0.04614 0.0
H1245 H 0.52229 0.42126 0.03791 0.0
H1246 H 0.4987 0.55495 0.01447 0.0
H1247 H 0.49347 0.42998 0.00671 0.0
H1248 H 0.47877 0.45945 0.94406 0.0
H1249 H 0.5028 0.4482 0.97578 0.0
H1250 H 0.4448 0.55095 0.99589 0.0
H1251 H 0.42348 0.564 0.96357 0.0
C1252 C 0.51893 0.52028 0.03744 0.0
C1253 C 0.52629 0.48276 0.04429 0.0
C1254 C 0.50311 0.52551 0.01939 0.0
C1255 C 0.49343 0.49326 0.00788 0.0
C1256 C 0.50103 0.45565 0.01486 0.0
C1257 C 0.51758 0.45052 0.03276 0.0
C1258 C 0.47118 0.47978 0.95523 0.0
C1259 C 0.44978 0.51311 0.9511 0.0
C1260 C 0.48464 0.47302 0.9736 0.0
C1261 C 0.47638 0.49891 0.98857 0.0
C1262 C 0.45278 0.53088 0.9847 0.0
C1263 C 0.43984 0.53802 0.96618 0.0
H1264 H 0.31071 0.75993 0.14707 0.0
H1265 H 0.19107 0.76853 0.13723 0.0
H1266 H 0.32072 0.82131 0.1304 0.0
H1267 H 0.20043 0.83088 0.12141 0.0
H1268 H 0.22614 0.94244 0.09131 0.0
H1269 H 0.22364 0.87246 0.09708 0.0
H1270 H 0.3093 0.88541 0.14052 0.0
H1271 H 0.31275 0.95442 0.13433 0.0
C1272 C 0.2867 0.77462 0.14086 0.0
C1273 C 0.25017 0.75978 0.14337 0.0
C1274 C 0.29228 0.80997 0.13153 0.0
C1275 C 0.2613 0.83163 0.12495 0.0
C1276 C 0.225 0.81504 0.12616 0.0
C1277 C 0.21954 0.7793 0.13523 0.0
C1278 C 0.24483 0.93019 0.10188 0.0
C1279 C 0.26945 0.95421 0.11244 0.0
C1280 C 0.24329 0.89006 0.10524 0.0
C1281 C 0.26619 0.87311 0.1193 0.0
C1282 C 0.29171 0.89706 0.12932 0.0
C1283 C 0.29344 0.93696 0.12588 0.0
H1284 H 0.03594 0.49147 0.38185 0.0
H1285 H 0.03391 0.60258 0.41071 0.0
H1286 H 0.97373 0.50433 0.36857 0.0
H1287 H 0.97097 0.6146 0.39837 0.0
H1288 H 0.85327 0.62674 0.37496 0.0
H1289 H 0.92227 0.62384 0.37516 0.0
H1290 H 0.91629 0.50015 0.38584 0.0
H1291 H 0.84829 0.50286 0.38515 0.0
C1292 C 0.02286 0.51929 0.38478 0.0
C1293 C 0.0394 0.54561 0.39768 0.0
C1294 C 0.98687 0.52643 0.37744 0.0
C1295 C 0.96667 0.55981 0.38301 0.0
C1296 C 0.9854 0.58843 0.39387 0.0
C1297 C 0.02152 0.58148 0.40102 0.0
C1298 C 0.86682 0.59894 0.37719 0.0
C1299 C 0.8452 0.56511 0.38017 0.0
C1300 C 0.90635 0.59725 0.37728 0.0
C1301 C 0.92501 0.56169 0.38034 0.0
C1302 C 0.90316 0.5279 0.38294 0.0
C1303 C 0.86391 0.52957 0.38282 0.0
H1304 H 0.28578 0.06151 0.58673 0.0
H1305 H 0.18324 0.0536 0.61941 0.0
H1306 H 0.28782 0.13159 0.59211 0.0
H1307 H 0.18646 0.12294 0.62613 0.0
H1308 H 0.19265 0.24935 0.63568 0.0
H1309 H 0.18326 0.18772 0.6188 0.0
H1310 H 0.30434 0.17253 0.6164 0.0
H1311 H 0.31304 0.2352 0.63191 0.0
C1312 C 0.26356 0.07496 0.595 0.0
C1313 C 0.23449 0.05227 0.60277 0.0
C1314 C 0.26484 0.1151 0.59826 0.0
C1315 C 0.23775 0.13327 0.6099 0.0
C1316 C 0.20763 0.11052 0.61687 0.0
C1317 C 0.20581 0.07056 0.61314 0.0
C1318 C 0.21705 0.23318 0.63088 0.0
C1319 C 0.25351 0.24681 0.63491 0.0
C1320 C 0.2118 0.19761 0.62146 0.0
C1321 C 0.24297 0.1744 0.61645 0.0
C1322 C 0.2795 0.18945 0.61966 0.0
C1323 C 0.28466 0.22541 0.62864 0.0
H1324 H 0.69149 0.47567 0.88721 0.0
H1325 H 0.68369 0.549 0.83761 0.0
H1326 H 0.62371 0.47887 0.89126 0.0
H1327 H 0.61488 0.55232 0.84179 0.0
H1328 H 0.50581 0.58763 0.87985 0.0
H1329 H 0.56956 0.58126 0.86663 0.0
H1330 H 0.56462 0.45712 0.87561 0.0
H1331 H 0.50148 0.46369 0.88895 0.0
C1332 C 0.67525 0.49231 0.87704 0.0
C1333 C 0.69312 0.51214 0.86209 0.0
C1334 C 0.63621 0.49388 0.87929 0.0
C1335 C 0.61375 0.51562 0.86677 0.0
C1336 C 0.63142 0.53532 0.85166 0.0
C1337 C 0.67075 0.53326 0.84923 0.0
C1338 C 0.5179 0.55889 0.87829 0.0
C1339 C 0.49887 0.52617 0.88549 0.0
C1340 C 0.55443 0.55522 0.87079 0.0
C1341 C 0.57244 0.51876 0.87042 0.0
C1342 C 0.55185 0.4857 0.87604 0.0
C1343 C 0.51557 0.48937 0.88352 0.0
H1344 H 0.7176 0.08848 0.88032 0.0
H1345 H 0.80804 0.10008 0.92129 0.0
H1346 H 0.71821 0.15795 0.87536 0.0
H1347 H 0.80793 0.17072 0.91666 0.0
H1348 H 0.8319 0.27735 0.87561 0.0
H1349 H 0.82698 0.21445 0.8915 0.0
H1350 H 0.70543 0.2207 0.88784 0.0
H1351 H 0.71084 0.28267 0.87115 0.0
C1352 C 0.73731 0.10596 0.88852 0.0
C1353 C 0.76308 0.08858 0.90105 0.0
C1354 C 0.73733 0.14608 0.88585 0.0
C1355 C 0.76301 0.17014 0.89567 0.0
C1356 C 0.78795 0.15299 0.90877 0.0
C1357 C 0.78792 0.11257 0.91147 0.0
C1358 C 0.8042 0.26576 0.87885 0.0
C1359 C 0.77174 0.28447 0.87217 0.0
C1360 C 0.80129 0.22974 0.88796 0.0
C1361 C 0.76581 0.21208 0.8906 0.0
C1362 C 0.73323 0.233 0.8856 0.0
C1363 C 0.7362 0.26864 0.87625 0.0
H1364 H 0.17638 0.49332 0.67072 0.0
H1365 H 0.17652 0.42883 0.61779 0.0
H1366 H 0.10761 0.4983 0.66902 0.0
H1367 H 0.1085 0.43408 0.616 0.0
H1368 H 1.00816 0.55593 0.63226 0.0
H1369 H 0.06701 0.5363 0.64738 0.0
H1370 H 0.04718 0.41756 0.62932 0.0
H1371 H 0.98885 0.43769 0.61377 0.0
C1372 C 0.1617 0.47958 0.65893 0.0
C1373 C 0.18185 0.46111 0.64425 0.0
C1374 C 0.12238 0.4825 0.65795 0.0
C1375 C 0.10257 0.46658 0.6424 0.0
C1376 C 0.12271 0.44615 0.62835 0.0
C1377 C 0.16185 0.44352 0.62924 0.0
C1378 C 0.01556 0.52536 0.63236 0.0
C1379 C 0.99443 0.49832 0.62175 0.0
C1380 C 0.04931 0.51405 0.64098 0.0
C1381 C 0.06218 0.47553 0.63912 0.0
C1382 C 0.03837 0.4476 0.63062 0.0
C1383 C 1.00486 0.45898 0.62189 0.0
H1384 H 0.75582 0.93808 0.42946 0.0
H1385 H 0.77201 0.93814 0.36855 0.0
H1386 H 0.75202 0.86688 0.4289 0.0
H1387 H 0.76829 0.86738 0.36805 0.0
H1388 H 0.72157 0.7421 0.37216 0.0
H1389 H 0.7227 0.81338 0.373 0.0
H1390 H 0.79408 0.81053 0.42278 0.0
H1391 H 0.79297 0.73963 0.42197 0.0
C1392 C 0.75855 0.92301 0.41597 0.0
C1393 C 0.76437 0.94401 0.39908 0.0
C1394 C 0.75652 0.88216 0.41565 0.0
C1395 C 0.75981 0.86131 0.39841 0.0
C1396 C 0.76522 0.8824 0.38154 0.0
C1397 C 0.76765 0.92309 0.38188 0.0
C1398 C 0.73753 0.75668 0.38326 0.0
C1399 C 0.75726 0.735 0.39694 0.0
C1400 C 0.73828 0.79757 0.38372 0.0
C1401 C 0.75842 0.81778 0.398 0.0
C1402 C 0.77791 0.79602 0.41172 0.0
C1403 C 0.7775 0.75526 0.41115 0.0
H1404 H 0.48601 0.435 0.12157 0.0
H1405 H 0.50155 0.55567 0.10688 0.0
H1406 H 0.42808 0.45146 0.13863 0.0
H1407 H 0.44453 0.57259 0.12442 0.0
H1408 H 0.31481 0.56989 0.12203 0.0
H1409 H 0.38078 0.56037 0.11485 0.0
H1410 H 0.39174 0.48498 0.16358 0.0
H1411 H 0.32457 0.49416 0.17067 0.0
C1412 C 0.47784 0.46527 0.12272 0.0
C1413 C 0.49798 0.49406 0.11285 0.0
C1414 C 0.44463 0.47476 0.13247 0.0
C1415 C 0.43116 0.51327 0.13256 0.0
C1416 C 0.45356 0.54251 0.12425 0.0
C1417 C 0.48641 0.53296 0.11436 0.0
C1418 C 0.33123 0.55162 0.13141 0.0
C1419 C 0.31427 0.53257 0.14686 0.0
C1420 C 0.36936 0.54646 0.12739 0.0
C1421 C 0.3918 0.522 0.13867 0.0
C1422 C 0.37522 0.50387 0.15455 0.0
C1423 C 0.33683 0.5093 0.15868 0.0
H1424 H 0.82593 0.44526 0.60696 0.0
H1425 H 0.70904 0.44832 0.6241 0.0
H1426 H 0.82699 0.37481 0.61255 0.0
H1427 H 0.71013 0.37872 0.62968 0.0
H1428 H 0.81753 0.27245 0.65847 0.0
H1429 H 0.82321 0.33479 0.6422 0.0
H1430 H 0.71611 0.31426 0.61452 0.0
H1431 H 0.70986 0.25259 0.63123 0.0
C1432 C 0.80038 0.43084 0.61164 0.0
C1433 C 0.7675 0.45233 0.61526 0.0
C1434 C 0.80102 0.3906 0.61487 0.0
C1435 C 0.76861 0.37118 0.62146 0.0
C1436 C 0.73541 0.3926 0.6243 0.0
C1437 C 0.73491 0.43265 0.6213 0.0
C1438 C 0.79566 0.28085 0.64854 0.0
C1439 C 0.76294 0.25795 0.64641 0.0
C1440 C 0.79904 0.31643 0.63911 0.0
C1441 C 0.76975 0.32975 0.62737 0.0
C1442 C 0.73884 0.30502 0.62375 0.0
C1443 C 0.73546 0.26946 0.63318 0.0
H1444 H 0.53507 0.11016 0.90749 0.0
H1445 H 0.53941 0.99653 0.8812 0.0
H1446 H 0.47334 0.12109 0.89348 0.0
H1447 H 0.47842 1.00818 0.86625 0.0
H1448 H 0.35736 0.13099 0.86823 0.0
H1449 H 0.4264 0.12808 0.86913 0.0
H1450 H 0.41985 1.00557 0.88259 0.0
H1451 H 0.35197 1.00826 0.88124 0.0
C1452 C 0.52347 0.0882 0.89801 0.0
C1453 C 0.54152 0.05206 0.89587 0.0
C1454 C 0.48808 0.09453 0.88988 0.0
C1455 C 0.47028 0.06497 0.87925 0.0
C1456 C 0.49084 0.03107 0.87489 0.0
C1457 C 0.5261 0.02457 0.88322 0.0
C1458 C 0.37083 0.10342 0.87117 0.0
C1459 C 0.34911 0.06997 0.87483 0.0
C1460 C 0.41036 0.10172 0.87167 0.0
C1461 C 0.42885 0.06652 0.87579 0.0
C1462 C 0.40689 0.03301 0.8789 0.0
C1463 C 0.36769 0.0347 0.87841 0.0
H1464 H 0.69338 0.72653 0.15468 0.0
H1465 H 0.79943 0.74299 0.12564 0.0
H1466 H 0.6853 0.66363 0.13881 0.0
H1467 H 0.79093 0.68059 0.10947 0.0
H1468 H 0.79355 0.54602 0.1176 0.0
H1469 H 0.79534 0.61536 0.12435 0.0
H1470 H 0.67815 0.62485 0.10829 0.0
H1471 H 0.67632 0.5547 0.10144 0.0
C1472 C 0.71445 0.71715 0.14453 0.0
C1473 C 0.74726 0.73948 0.1416 0.0
C1474 C 0.70969 0.68127 0.13533 0.0
C1475 C 0.73774 0.66695 0.12309 0.0
C1476 C 0.76907 0.69069 0.11902 0.0
C1477 C 0.77376 0.72662 0.12814 0.0
C1478 C 0.76821 0.56287 0.1153 0.0
C1479 C 0.73471 0.54484 0.10913 0.0
C1480 C 0.76935 0.60274 0.11899 0.0
C1481 C 0.73693 0.62563 0.11678 0.0
C1482 C 0.70355 0.60788 0.11014 0.0
C1483 C 0.70254 0.56783 0.10617 0.0
H1484 H 0.18522 1.00916 0.33461 0.0
H1485 H 0.20288 0.03383 0.39428 0.0
H1486 H 0.117 0.01961 0.33886 0.0
H1487 H 0.13571 0.0449 0.39832 0.0
H1488 H 0.02202 0.09768 0.39794 0.0
H1489 H 0.08667 0.09499 0.38594 0.0
H1490 H 0.06311 0.98345 0.35997 0.0
H1491 H 0.99822 0.98616 0.37222 0.0
C1492 C 0.17465 0.01713 0.34853 0.0
C1493 C 0.19944 0.02054 0.36412 0.0
C1494 C 0.13568 0.02299 0.35096 0.0
C1495 C 0.12112 0.0334 0.36888 0.0
C1496 C 0.14611 0.03741 0.38429 0.0
C1497 C 0.18462 0.03077 0.38199 0.0
C1498 C 0.03026 0.07338 0.38901 0.0
C1499 C 1.00514 0.04238 0.38577 0.0
C1500 C 0.0673 0.07164 0.38229 0.0
C1501 C 0.08 0.03887 0.37215 0.0
C1502 C 0.054 1.00919 0.36761 0.0
C1503 C 0.01688 1.01079 0.37452 0.0
H1504 H 0.20073 0.77662 0.36322 0.0
H1505 H 0.31915 0.77933 0.37711 0.0
H1506 H 0.1944 0.71373 0.37896 0.0
H1507 H 0.31363 0.71564 0.39199 0.0
H1508 H 0.21503 0.5826 0.37372 0.0
H1509 H 0.21319 0.65192 0.36843 0.0
H1510 H 0.29154 0.67014 0.41487 0.0
H1511 H 0.29447 0.5998 0.41975 0.0
C1512 C 0.22516 0.76408 0.3701 0.0
C1513 C 0.2604 0.78255 0.36895 0.0
C1514 C 0.22174 0.72789 0.37891 0.0
C1515 C 0.25371 0.70902 0.38632 0.0
C1516 C 0.28834 0.72921 0.38656 0.0
C1517 C 0.29158 0.76576 0.37802 0.0
C1518 C 0.23168 0.60124 0.38298 0.0
C1519 C 0.25522 0.58548 0.39705 0.0
C1520 C 0.23027 0.6413 0.38007 0.0
C1521 C 0.2521 0.66691 0.39126 0.0
C1522 C 0.27465 0.65129 0.40584 0.0
C1523 C 0.27625 0.61097 0.40868 0.0
H1524 H 0.50725 0.05561 0.13178 0.0
H1525 H 0.48961 0.93842 0.11141 0.0
H1526 H 0.56662 0.03597 0.14643 0.0
H1527 H 0.54832 0.91818 0.12655 0.0
H1528 H 0.67546 0.99122 0.17085 0.0
H1529 H 0.60703 0.99828 0.16774 0.0
H1530 H 0.61029 0.93369 0.11486 0.0
H1531 H 0.67787 0.92623 0.11809 0.0
C1532 C 0.51514 0.02518 0.13134 0.0
C1533 C 0.49408 0.99852 0.12045 0.0
C1534 C 0.54926 0.01388 0.13967 0.0
C1535 C 0.56271 0.97567 0.13726 0.0
C1536 C 0.53922 0.94804 0.12827 0.0
C1537 C 0.50537 0.95943 0.11982 0.0
C1538 C 0.66136 0.97789 0.15877 0.0
C1539 C 0.68216 0.95844 0.14463 0.0
C1540 C 0.62219 0.98207 0.15696 0.0
C1541 C 0.60306 0.96655 0.14107 0.0
C1542 C 0.62381 0.94549 0.12747 0.0
C1543 C 0.66279 0.94154 0.12921 0.0
H1544 H 0.30106 0.44745 0.86859 0.0
H1545 H 0.2229 0.44198 0.91561 0.0
H1546 H 0.29817 0.37714 0.86524 0.0
H1547 H 0.22016 0.37085 0.9122 0.0
H1548 H 0.19869 0.24686 0.88558 0.0
H1549 H 0.19815 0.31806 0.88889 0.0
H1550 H 0.3194 0.32029 0.88371 0.0
H1551 H 0.31998 0.24979 0.88042 0.0
C1552 C 0.28323 0.43131 0.87828 0.0
C1553 C 0.26233 0.45061 0.89246 0.0
C1554 C 0.28171 0.39082 0.87637 0.0
C1555 C 0.25903 0.36826 0.88847 0.0
C1556 C 0.23772 0.38741 0.90256 0.0
C1557 C 0.23953 0.42813 0.90461 0.0
C1558 C 0.22516 0.26265 0.88499 0.0
C1559 C 0.25936 0.24257 0.88265 0.0
C1560 C 0.22488 0.30338 0.88707 0.0
C1561 C 0.25874 0.32492 0.88657 0.0
C1562 C 0.29277 0.30474 0.88399 0.0
C1563 C 0.29309 0.26421 0.88214 0.0
H1564 H 1.00162 0.9377 0.62935 0.0
H1565 H 0.98727 0.0439 0.5977 0.0
H1566 H 0.9481 0.95517 0.64949 0.0
H1567 H 0.9326 0.05995 0.61646 0.0
H1568 H 0.8344 0.08942 0.6504 0.0
H1569 H 0.90056 0.07899 0.64259 0.0
H1570 H 0.88331 0.95457 0.64742 0.0
H1571 H 0.81816 0.96591 0.65682 0.0
C1572 C 0.98748 0.96511 0.62692 0.0
C1573 C 0.99828 0.98905 0.61169 0.0
C1574 C 0.95631 0.97491 0.63826 0.0
C1575 C 0.93503 1.00868 0.6345 0.0
C1576 C 0.94793 0.03389 0.62014 0.0
C1577 C 0.97926 0.02443 0.60909 0.0
C1578 C 0.84536 0.06003 0.65039 0.0
C1579 C 0.82151 0.02847 0.65428 0.0
C1580 C 0.88317 0.05384 0.64563 0.0
C1581 C 0.89758 0.01577 0.64381 0.0
C1582 C 0.87386 0.98435 0.64881 0.0
C1583 C 0.83633 0.99072 0.65415 0.0
loop_
_geom_bond_atom_site_label_1
_geom_bond_atom_site_label_2
_geom_bond_distance
_geom_bond_site_symmetry_2
_ccdc_geom_bond_type
O0 Tb1 2.292 . S
O0 C3 1.255 . S
Tb1 O0 2.292 . S
Tb1 O17 2.326 . S
Tb1 O19 2.500 . S
Tb1 O20 2.473 . S
Tb1 O23 2.324 . S
Eu2 O6 2.292 . S
Eu2 C7 2.852 . S
Eu2 O18 2.324 . S
Eu2 O22 2.326 . S
Eu2 O24 2.500 . S
Eu2 O25 2.473 . S
C3 O0 1.255 . S
C3 O4 1.247 . S
O4 C3 1.247 . S
C5 O17 1.242 . S
C5 O18 1.258 . S
O6 Eu2 2.292 . S
O6 C8 1.255 . S
C7 Eu2 2.852 . S
C7 C11 1.503 . S
C7 O24 1.273 . S
C7 O25 1.257 . S
C8 O6 1.255 . S
C8 O9 1.247 . S
O9 C8 1.247 . S
C10 O22 1.242 . S
C10 O23 1.258 . S
C11 C7 1.503 . S
C11 C12 1.379 . S
C11 C16 1.392 . S
C12 C11 1.379 . S
C12 C13 1.404 . S
C12 H26 0.929 . S
C13 C12 1.404 . S
C13 C14 1.389 . S
C14 C13 1.389 . S
C14 C15 1.399 . S
C14 H27 0.931 . S
C15 C14 1.399 . S
C15 C16 1.390 . S
C16 C11 1.392 . S
C16 C15 1.390 . S
C16 H28 0.929 . S
O17 Tb1 2.326 . S
O17 C5 1.242 . S
O18 Eu2 2.324 . S
O18 C5 1.258 . S
O19 Tb1 2.500 . S
O19 C21 1.273 . S
O20 Tb1 2.473 . S
O20 C21 1.257 . S
C21 O19 1.273 . S
C21 O20 1.257 . S
O22 Eu2 2.326 . S
O22 C10 1.242 . S
O23 Tb1 2.324 . S
O23 C10 1.258 . S
O24 Eu2 2.500 . S
O24 C7 1.273 . S
O25 Eu2 2.473 . S
O25 C7 1.257 . S
H26 C12 0.929 . S
H27 C14 0.931 . S
H28 C16 0.929 . S
O29 Tb30 2.292 . S
O29 C32 1.255 . S
Tb30 O29 2.292 . S
Tb30 O46 2.326 . S
Tb30 O48 2.500 . S
Tb30 O49 2.473 . S
Tb30 O52 2.324 . S
Eu31 O35 2.292 . S
Eu31 C36 2.852 . S
Eu31 O47 2.324 . S
Eu31 O51 2.326 . S
Eu31 O53 2.500 . S
Eu31 O54 2.473 . S
C32 O29 1.255 . S
C32 O33 1.247 . S
O33 C32 1.247 . S
C34 O46 1.242 . S
C34 O47 1.258 . S
O35 Eu31 2.292 . S
O35 C37 1.255 . S
C36 Eu31 2.852 . S
C36 C40 1.503 . S
C36 O53 1.273 . S
C36 O54 1.257 . S
C37 O35 1.255 . S
C37 O38 1.247 . S
O38 C37 1.247 . S
C39 O51 1.242 . S
C39 O52 1.258 . S
C40 C36 1.503 . S
C40 C41 1.379 . S
C40 C45 1.392 . S
C41 C40 1.379 . S
C41 C42 1.404 . S
C41 H55 0.929 . S
C42 C41 1.404 . S
C42 C43 1.389 . S
C43 C42 1.389 . S
C43 C44 1.399 . S
C43 H56 0.931 . S
C44 C43 1.399 . S
C44 C45 1.390 . S
C45 C40 1.392 . S
C45 C44 1.390 . S
C45 H57 0.929 . S
O46 Tb30 2.326 . S
O46 C34 1.242 . S
O47 Eu31 2.324 . S
O47 C34 1.258 . S
O48 Tb30 2.500 . S
O48 C50 1.273 . S
O49 Tb30 2.473 . S
O49 C50 1.257 . S
C50 O48 1.273 . S
C50 O49 1.257 . S
O51 Eu31 2.326 . S
O51 C39 1.242 . S
O52 Tb30 2.324 . S
O52 C39 1.258 . S
O53 Eu31 2.500 . S
O53 C36 1.273 . S
O54 Eu31 2.473 . S
O54 C36 1.257 . S
H55 C41 0.929 . S
H56 C43 0.931 . S
H57 C45 0.929 . S
O58 Tb59 2.292 . S
O58 C61 1.255 . S
Tb59 O58 2.292 . S
Tb59 O75 2.326 . S
Tb59 O77 2.500 . S
Tb59 O78 2.473 . S
Tb59 O81 2.315 1_565 S
Eu60 O64 2.292 . S
Eu60 C65 2.852 . S
Eu60 O76 2.324 . S
Eu60 O80 2.326 . S
Eu60 O82 2.500 . S
Eu60 O83 2.473 . S
C61 O58 1.255 . S
C61 O62 1.247 . S
O62 C61 1.247 . S
C63 O75 1.242 . S
C63 O76 1.258 . S
O64 Eu60 2.292 . S
O64 C66 1.255 . S
C65 Eu60 2.852 . S
C65 C69 1.503 . S
C65 O82 1.273 . S
C65 O83 1.257 . S
C66 O64 1.255 . S
C66 O67 1.247 . S
O67 C66 1.247 . S
C68 O80 1.257 . S
C68 O81 1.258 1_565 S
C69 C65 1.503 . S
C69 C70 1.379 . S
C69 C74 1.392 . S
C70 C69 1.379 . S
C70 C71 1.404 . S
C70 H84 0.929 . S
C71 C70 1.404 . S
C71 C72 1.389 . S
C72 C71 1.389 . S
C72 C73 1.399 . S
C72 H85 0.931 1_455 S
C73 C72 1.399 . S
C73 C74 1.390 . S
C74 C69 1.392 . S
C74 C73 1.390 . S
C74 H86 0.929 . S
O75 Tb59 2.326 . S
O75 C63 1.242 . S
O76 Eu60 2.324 . S
O76 C63 1.258 . S
O77 Tb59 2.500 . S
O77 C79 1.273 . S
O78 Tb59 2.473 . S
O78 C79 1.257 . S
C79 O77 1.273 . S
C79 O78 1.257 . S
O80 Eu60 2.326 . S
O80 C68 1.257 . S
O81 Tb59 2.315 1_545 S
O81 C68 1.258 1_545 S
O82 Eu60 2.500 . S
O82 C65 1.273 . S
O83 Eu60 2.473 . S
O83 C65 1.257 . S
H84 C70 0.929 . S
H85 C72 0.931 1_655 S
H86 C74 0.929 . S
O87 Tb88 2.292 . S
O87 C90 1.255 . S
Tb88 O87 2.292 . S
Tb88 O104 2.326 . S
Tb88 O106 2.500 . S
Tb88 O107 2.473 . S
Tb88 O110 2.324 . S
Eu89 O93 2.292 . S
Eu89 C94 2.852 . S
Eu89 O105 2.324 . S
Eu89 O109 2.326 . S
Eu89 O111 2.500 . S
Eu89 O112 2.473 . S
C90 O87 1.255 . S
C90 O91 1.247 . S
O91 C90 1.247 . S
C92 O104 1.242 . S
C92 O105 1.258 . S
O93 Eu89 2.292 . S
O93 C95 1.255 . S
C94 Eu89 2.852 . S
C94 C98 1.503 . S
C94 O111 1.273 . S
C94 O112 1.257 . S
C95 O93 1.255 . S
C95 O96 1.247 . S
O96 C95 1.247 . S
C97 O109 1.242 . S
C97 O110 1.258 . S
C98 C94 1.503 . S
C98 C99 1.379 . S
C98 C103 1.392 . S
C99 C98 1.379 . S
C99 C100 1.404 . S
C99 H113 0.929 . S
C100 C99 1.404 . S
C100 C101 1.389 . S
C101 C100 1.389 . S
C101 C102 1.399 . S
C101 H114 0.931 . S
C102 C101 1.399 . S
C102 C103 1.390 . S
C103 C98 1.392 . S
C103 C102 1.390 . S
C103 H115 0.929 . S
O104 Tb88 2.326 . S
O104 C92 1.242 . S
O105 Eu89 2.324 . S
O105 C92 1.258 . S
O106 Tb88 2.500 . S
O106 C108 1.273 . S
O107 Tb88 2.473 . S
O107 C108 1.257 . S
C108 O106 1.273 . S
C108 O107 1.257 . S
O109 Eu89 2.326 . S
O109 C97 1.242 . S
O110 Tb88 2.324 . S
O110 C97 1.258 . S
O111 Eu89 2.500 . S
O111 C94 1.273 . S
O112 Eu89 2.473 . S
O112 C94 1.257 . S
H113 C99 0.929 . S
H114 C101 0.931 . S
H115 C103 0.929 . S
O116 Tb117 2.292 . S
O116 C119 1.255 . S
Tb117 O116 2.292 . S
Tb117 O133 2.326 . S
Tb117 O135 2.500 . S
Tb117 O136 2.473 . S
Tb117 O139 2.324 1_565 S
Eu118 O122 2.292 . S
Eu118 C123 2.852 . S
Eu118 O134 2.324 . S
Eu118 O138 2.326 . S
Eu118 O140 2.500 . S
Eu118 O141 2.473 . S
C119 O116 1.255 . S
C119 O120 1.247 . S
O120 C119 1.247 . S
C121 O133 1.242 . S
C121 O134 1.258 . S
O122 Eu118 2.292 . S
O122 C124 1.255 . S
C123 Eu118 2.852 . S
C123 C127 1.503 . S
C123 O140 1.273 . S
C123 O141 1.257 . S
C124 O122 1.255 . S
C124 O125 1.247 . S
O125 C124 1.247 . S
C126 O138 1.242 1_545 S
C126 O139 1.258 . S
C127 C123 1.503 . S
C127 C128 1.379 . S
C127 C132 1.392 . S
C128 C127 1.379 . S
C128 C129 1.404 . S
C128 H142 0.929 . S
C129 C128 1.404 . S
C129 C130 1.389 . S
C130 C129 1.389 . S
C130 C131 1.399 . S
C130 H143 0.931 . S
C131 C130 1.399 . S
C131 C132 1.390 . S
C132 C127 1.392 . S
C132 C131 1.390 . S
C132 H144 0.929 . S
O133 Tb117 2.326 . S
O133 C121 1.242 . S
O134 Eu118 2.324 . S
O134 C121 1.258 . S
O135 Tb117 2.500 . S
O135 C137 1.273 . S
O136 Tb117 2.473 . S
O136 C137 1.257 . S
C137 O135 1.273 . S
C137 O136 1.257 . S
O138 Eu118 2.326 . S
O138 C126 1.242 1_565 S
O139 Tb117 2.324 1_545 S
O139 C126 1.258 . S
O140 Eu118 2.500 . S
O140 C123 1.273 . S
O141 Eu118 2.473 . S
O141 C123 1.257 . S
H142 C128 0.929 . S
H143 C130 0.931 . S
H144 C132 0.929 . S
O145 Tb146 2.292 . S
O145 C148 1.255 . S
Tb146 O145 2.292 . S
Tb146 O162 2.326 . S
Tb146 O164 2.500 . S
Tb146 O165 2.473 . S
Tb146 O168 2.324 . S
Eu147 O151 2.292 . S
Eu147 C152 2.852 . S
Eu147 O163 2.324 . S
Eu147 O167 2.326 . S
Eu147 O169 2.500 . S
Eu147 O170 2.473 . S
C148 O145 1.255 . S
C148 O149 1.247 . S
O149 C148 1.247 . S
C150 O162 1.242 . S
C150 O163 1.258 . S
O151 Eu147 2.292 . S
O151 C153 1.255 . S
C152 Eu147 2.852 . S
C152 C156 1.503 . S
C152 O169 1.273 . S
C152 O170 1.257 . S
C153 O151 1.255 . S
C153 O154 1.247 . S
O154 C153 1.247 . S
C155 O167 1.242 . S
C155 O168 1.258 . S
C156 C152 1.503 . S
C156 C157 1.379 . S
C156 C161 1.392 . S
C157 C156 1.379 . S
C157 C158 1.404 . S
C157 H171 0.929 . S
C158 C157 1.404 . S
C158 C159 1.389 . S
C159 C158 1.389 . S
C159 C160 1.399 . S
C159 H172 0.931 . S
C160 C159 1.399 . S
C160 C161 1.390 . S
C161 C156 1.392 . S
C161 C160 1.390 . S
C161 H173 0.929 . S
O162 Tb146 2.326 . S
O162 C150 1.242 . S
O163 Eu147 2.324 . S
O163 C150 1.258 . S
O164 Tb146 2.500 . S
O164 C166 1.273 . S
O165 Tb146 2.473 . S
O165 C166 1.257 . S
C166 O164 1.273 . S
C166 O165 1.257 . S
O167 Eu147 2.326 . S
O167 C155 1.242 . S
O168 Tb146 2.324 . S
O168 C155 1.258 . S
O169 Eu147 2.500 . S
O169 C152 1.273 . S
O170 Eu147 2.473 . S
O170 C152 1.257 . S
H171 C157 0.929 . S
H172 C159 0.931 . S
H173 C161 0.929 . S
O174 Tb175 2.292 . S
O174 C177 1.255 . S
Tb175 O174 2.292 . S
Tb175 O191 2.326 . S
Tb175 O193 2.500 . S
Tb175 O194 2.473 . S
Tb175 O197 2.324 1_545 S
Eu176 O180 2.292 . S
Eu176 C181 2.852 . S
Eu176 O192 2.324 . S
Eu176 O196 2.326 . S
Eu176 O198 2.500 . S
Eu176 O199 2.473 . S
C177 O174 1.255 . S
C177 O178 1.247 . S
O178 C177 1.247 . S
C179 O191 1.242 . S
C179 O192 1.258 . S
O180 Eu176 2.292 . S
O180 C182 1.255 . S
C181 Eu176 2.852 . S
C181 C185 1.503 . S
C181 O198 1.273 . S
C181 O199 1.257 . S
C182 O180 1.255 . S
C182 O183 1.247 . S
O183 C182 1.247 . S
C184 O196 1.242 1_565 S
C184 O197 1.258 . S
C185 C181 1.503 . S
C185 C186 1.379 . S
C185 C190 1.392 . S
C186 C185 1.379 . S
C186 C187 1.404 . S
C186 H200 0.929 . S
C187 C186 1.404 . S
C187 C188 1.389 . S
C188 C187 1.389 . S
C188 C189 1.399 . S
C188 H201 0.931 1_655 S
C189 C188 1.399 . S
C189 C190 1.390 . S
C190 C185 1.392 . S
C190 C189 1.390 . S
C190 H202 0.929 . S
O191 Tb175 2.326 . S
O191 C179 1.242 . S
O192 Eu176 2.324 . S
O192 C179 1.258 . S
O193 Tb175 2.500 . S
O193 C195 1.273 . S
O194 Tb175 2.473 . S
O194 C195 1.257 . S
C195 O193 1.273 . S
C195 O194 1.257 . S
O196 Eu176 2.326 . S
O196 C184 1.242 1_545 S
O197 Tb175 2.324 1_565 S
O197 C184 1.258 . S
O198 Eu176 2.500 . S
O198 C181 1.273 . S
O199 Eu176 2.473 . S
O199 C181 1.257 . S
H200 C186 0.929 . S
H201 C188 0.931 1_455 S
H202 C190 0.929 . S
O203 Tb204 2.292 . S
O203 C206 1.255 . S
Tb204 O203 2.292 . S
Tb204 O220 2.326 . S
Tb204 O222 2.500 . S
Tb204 O223 2.473 . S
Tb204 O226 2.324 . S
Eu205 O209 2.292 . S
Eu205 C210 2.852 . S
Eu205 O221 2.324 . S
Eu205 O225 2.326 . S
Eu205 O227 2.500 . S
Eu205 O228 2.473 . S
C206 O203 1.255 . S
C206 O207 1.247 . S
O207 C206 1.247 . S
C208 O220 1.242 . S
C208 O221 1.258 . S
O209 Eu205 2.292 . S
O209 C211 1.255 . S
C210 Eu205 2.852 . S
C210 C214 1.503 . S
C210 O227 1.273 . S
C210 O228 1.257 . S
C211 O209 1.255 . S
C211 O212 1.247 . S
O212 C211 1.247 . S
C213 O225 1.242 . S
C213 O226 1.258 . S
C214 C210 1.503 . S
C214 C215 1.379 . S
C214 C219 1.392 . S
C215 C214 1.379 . S
C215 C216 1.404 . S
C215 H229 0.929 . S
C216 C215 1.404 . S
C216 C217 1.389 . S
C217 C216 1.389 . S
C217 C218 1.399 . S
C217 H230 0.931 . S
C218 C217 1.399 . S
C218 C219 1.390 . S
C219 C214 1.392 . S
C219 C218 1.390 . S
C219 H231 0.929 . S
O220 Tb204 2.326 . S
O220 C208 1.242 . S
O221 Eu205 2.324 . S
O221 C208 1.258 . S
O222 Tb204 2.500 . S
O222 C224 1.273 . S
O223 Tb204 2.473 . S
O223 C224 1.257 . S
C224 O222 1.273 . S
C224 O223 1.257 . S
O225 Eu205 2.326 . S
O225 C213 1.242 . S
O226 Tb204 2.324 . S
O226 C213 1.258 . S
O227 Eu205 2.500 . S
O227 C210 1.273 . S
O228 Eu205 2.473 . S
O228 C210 1.257 . S
H229 C215 0.929 . S
H230 C217 0.931 . S
H231 C219 0.929 . S
O232 Tb233 2.292 . S
O232 C235 1.255 . S
Tb233 O232 2.292 . S
Tb233 O249 2.326 . S
Tb233 O251 2.500 . S
Tb233 O252 2.473 . S
Tb233 O255 2.324 . S
Eu234 O238 2.292 . S
Eu234 C239 2.852 . S
Eu234 O250 2.324 . S
Eu234 O254 2.326 . S
Eu234 O256 2.500 . S
Eu234 O257 2.473 . S
C235 O232 1.255 . S
C235 O236 1.247 . S
O236 C235 1.247 . S
C237 O249 1.242 . S
C237 O250 1.258 . S
O238 Eu234 2.292 . S
O238 C240 1.255 . S
C239 Eu234 2.852 . S
C239 C243 1.503 . S
C239 O256 1.273 . S
C239 O257 1.257 . S
C240 O238 1.255 . S
C240 O241 1.247 . S
O241 C240 1.247 . S
C242 O254 1.242 . S
C242 O255 1.258 . S
C243 C239 1.503 . S
C243 C244 1.379 . S
C243 C248 1.392 . S
C244 C243 1.379 . S
C244 C245 1.404 . S
C244 H258 0.929 . S
C245 C244 1.404 . S
C245 C246 1.389 . S
C246 C245 1.389 . S
C246 C247 1.399 . S
C246 H259 0.931 1_655 S
C247 C246 1.399 . S
C247 C248 1.390 . S
C248 C243 1.392 . S
C248 C247 1.390 . S
C248 H260 0.929 . S
O249 Tb233 2.326 . S
O249 C237 1.242 . S
O250 Eu234 2.324 . S
O250 C237 1.258 . S
O251 Tb233 2.500 . S
O251 C253 1.273 . S
O252 Tb233 2.473 . S
O252 C253 1.257 . S
C253 O251 1.273 . S
C253 O252 1.257 . S
O254 Eu234 2.326 . S
O254 C242 1.242 . S
O255 Tb233 2.324 . S
O255 C242 1.258 . S
O256 Eu234 2.500 . S
O256 C239 1.273 . S
O257 Eu234 2.473 . S
O257 C239 1.257 . S
H258 C244 0.929 . S
H259 C246 0.931 1_455 S
H260 C248 0.929 . S
O261 Tb262 2.292 . S
O261 C264 1.255 . S
Tb262 O261 2.292 . S
Tb262 O278 2.326 . S
Tb262 O280 2.500 . S
Tb262 O281 2.473 . S
Tb262 O284 2.324 . S
Eu263 O267 2.292 1_545 S
Eu263 C268 2.852 . S
Eu263 O279 2.324 . S
Eu263 O283 2.326 . S
Eu263 O285 2.500 . S
Eu263 O286 2.473 . S
C264 O261 1.255 . S
C264 O265 1.247 . S
O265 C264 1.247 . S
C266 O278 1.242 . S
C266 O279 1.258 . S
O267 Eu263 2.292 1_565 S
O267 C269 1.255 . S
C268 Eu263 2.852 . S
C268 C272 1.503 . S
C268 O285 1.273 . S
C268 O286 1.257 . S
C269 O267 1.255 . S
C269 O270 1.247 . S
O270 C269 1.247 . S
C271 O283 1.242 . S
C271 O284 1.258 . S
C272 C268 1.503 . S
C272 C273 1.379 . S
C272 C277 1.392 . S
C273 C272 1.379 . S
C273 C274 1.404 . S
C273 H287 0.929 . S
C274 C273 1.404 . S
C274 C275 1.389 . S
C275 C274 1.389 . S
C275 C276 1.399 . S
C275 H288 0.931 . S
C276 C275 1.399 . S
C276 C277 1.390 . S
C277 C272 1.392 . S
C277 C276 1.390 . S
C277 H289 0.929 . S
O278 Tb262 2.326 . S
O278 C266 1.242 . S
O279 Eu263 2.324 . S
O279 C266 1.258 . S
O280 Tb262 2.500 . S
O280 C282 1.273 . S
O281 Tb262 2.473 . S
O281 C282 1.257 . S
C282 O280 1.273 . S
C282 O281 1.257 . S
O283 Eu263 2.326 . S
O283 C271 1.242 . S
O284 Tb262 2.324 . S
O284 C271 1.258 . S
O285 Eu263 2.500 . S
O285 C268 1.273 . S
O286 Eu263 2.473 . S
O286 C268 1.257 . S
H287 C273 0.929 . S
H288 C275 0.931 . S
H289 C277 0.929 . S
O290 Tb291 2.292 . S
O290 C293 1.255 . S
Tb291 O290 2.292 . S
Tb291 O307 2.326 . S
Tb291 O309 2.500 . S
Tb291 O310 2.473 . S
Tb291 O313 2.324 . S
Eu292 O296 2.292 . S
Eu292 C297 2.852 . S
Eu292 O308 2.324 . S
Eu292 O312 2.326 . S
Eu292 O314 2.500 . S
Eu292 O315 2.473 . S
C293 O290 1.255 . S
C293 O294 1.247 . S
O294 C293 1.247 . S
C295 O307 1.242 . S
C295 O308 1.258 . S
O296 Eu292 2.292 . S
O296 C298 1.255 . S
C297 Eu292 2.852 . S
C297 C301 1.503 . S
C297 O314 1.273 . S
C297 O315 1.257 . S
C298 O296 1.255 . S
C298 O299 1.247 . S
O299 C298 1.247 . S
C300 O312 1.242 . S
C300 O313 1.258 . S
C301 C297 1.503 . S
C301 C302 1.379 . S
C301 C306 1.392 . S
C302 C301 1.379 . S
C302 C303 1.404 . S
C302 H316 0.929 . S
C303 C302 1.404 . S
C303 C304 1.389 . S
C304 C303 1.389 . S
C304 C305 1.399 . S
C304 H317 0.931 . S
C305 C304 1.399 . S
C305 C306 1.390 . S
C306 C301 1.392 . S
C306 C305 1.390 . S
C306 H318 0.929 . S
O307 Tb291 2.326 . S
O307 C295 1.242 . S
O308 Eu292 2.324 . S
O308 C295 1.258 . S
O309 Tb291 2.500 . S
O309 C311 1.273 . S
O310 Tb291 2.473 . S
O310 C311 1.257 . S
C311 O309 1.273 . S
C311 O310 1.257 . S
O312 Eu292 2.326 . S
O312 C300 1.242 . S
O313 Tb291 2.324 . S
O313 C300 1.258 . S
O314 Eu292 2.500 . S
O314 C297 1.273 . S
O315 Eu292 2.473 . S
O315 C297 1.257 . S
H316 C302 0.929 . S
H317 C304 0.931 . S
H318 C306 0.929 . S
O319 Tb320 2.292 . S
O319 C322 1.255 1_545 S
Tb320 O319 2.292 . S
Tb320 O336 2.326 1_545 S
Tb320 O338 2.500 . S
Tb320 O339 2.473 . S
Tb320 O342 2.324 1_545 S
Eu321 O325 2.292 . S
Eu321 C326 2.852 . S
Eu321 O337 2.324 . S
Eu321 O341 2.326 . S
Eu321 O343 2.500 . S
Eu321 O344 2.473 . S
C322 O319 1.255 1_565 S
C322 O323 1.247 . S
O323 C322 1.247 . S
C324 O336 1.242 . S
C324 O337 1.258 . S
O325 Eu321 2.292 . S
O325 C327 1.255 . S
C326 Eu321 2.852 . S
C326 C330 1.503 . S
C326 O343 1.273 . S
C326 O344 1.257 . S
C327 O325 1.255 . S
C327 O328 1.247 . S
O328 C327 1.247 . S
C329 O341 1.242 . S
C329 O342 1.258 . S
C330 C326 1.503 . S
C330 C331 1.379 . S
C330 C335 1.392 . S
C331 C330 1.379 . S
C331 C332 1.404 . S
C331 H345 0.929 . S
C332 C331 1.404 . S
C332 C333 1.389 . S
C333 C332 1.389 . S
C333 C334 1.399 . S
C333 H346 0.931 . S
C334 C333 1.399 . S
C334 C335 1.390 . S
C335 C330 1.392 . S
C335 C334 1.390 . S
C335 H347 0.929 . S
O336 Tb320 2.326 1_565 S
O336 C324 1.242 . S
O337 Eu321 2.324 . S
O337 C324 1.258 . S
O338 Tb320 2.500 . S
O338 C340 1.273 . S
O339 Tb320 2.473 . S
O339 C340 1.257 . S
C340 O338 1.273 . S
C340 O339 1.257 . S
O341 Eu321 2.326 . S
O341 C329 1.242 . S
O342 Tb320 2.324 1_565 S
O342 C329 1.258 . S
O343 Eu321 2.500 . S
O343 C326 1.273 . S
O344 Eu321 2.473 . S
O344 C326 1.257 . S
H345 C331 0.929 . S
H346 C333 0.931 . S
H347 C335 0.929 . S
O348 Tb349 2.292 . S
O348 C351 1.255 . S
Tb349 O348 2.292 . S
Tb349 O365 2.326 . S
Tb349 O367 2.500 . S
Tb349 O368 2.473 . S
Tb349 O371 2.324 . S
Eu350 O354 2.292 . S
Eu350 C355 2.852 . S
Eu350 O366 2.324 . S
Eu350 O370 2.326 . S
Eu350 O372 2.500 . S
Eu350 O373 2.473 . S
C351 O348 1.255 . S
C351 O352 1.247 . S
O352 C351 1.247 . S
C353 O365 1.242 . S
C353 O366 1.258 . S
O354 Eu350 2.292 . S
O354 C356 1.255 . S
C355 Eu350 2.852 . S
C355 C359 1.503 . S
C355 O372 1.273 . S
C355 O373 1.257 . S
C356 O354 1.255 . S
C356 O357 1.247 . S
O357 C356 1.247 . S
C358 O370 1.242 . S
C358 O371 1.258 . S
C359 C355 1.503 . S
C359 C360 1.379 . S
C359 C364 1.392 . S
C360 C359 1.379 . S
C360 C361 1.404 . S
C360 H374 0.929 . S
C361 C360 1.404 . S
C361 C362 1.389 . S
C362 C361 1.389 . S
C362 C363 1.399 . S
C362 H375 0.931 . S
C363 C362 1.399 . S
C363 C364 1.390 . S
C364 C359 1.392 . S
C364 C363 1.390 . S
C364 H376 0.929 . S
O365 Tb349 2.326 . S
O365 C353 1.242 . S
O366 Eu350 2.324 . S
O366 C353 1.258 . S
O367 Tb349 2.500 . S
O367 C369 1.273 . S
O368 Tb349 2.473 . S
O368 C369 1.257 . S
C369 O367 1.273 . S
C369 O368 1.257 . S
O370 Eu350 2.326 . S
O370 C358 1.242 . S
O371 Tb349 2.324 . S
O371 C358 1.258 . S
O372 Eu350 2.500 . S
O372 C355 1.273 . S
O373 Eu350 2.473 . S
O373 C355 1.257 . S
H374 C360 0.929 . S
H375 C362 0.931 . S
H376 C364 0.929 . S
O377 Tb378 2.292 . S
O377 C380 1.255 . S
Tb378 O377 2.292 . S
Tb378 O394 2.326 . S
Tb378 O396 2.500 1_565 S
Tb378 O397 2.473 1_565 S
Tb378 O400 2.324 . S
Eu379 O383 2.292 . S
Eu379 C384 2.852 . S
Eu379 O395 2.324 . S
Eu379 O399 2.326 . S
Eu379 O401 2.500 . S
Eu379 O402 2.473 . S
C380 O377 1.255 . S
C380 O381 1.247 . S
O381 C380 1.247 . S
C382 O394 1.242 . S
C382 O395 1.258 . S
O383 Eu379 2.292 . S
O383 C385 1.255 . S
C384 Eu379 2.852 . S
C384 C388 1.503 . S
C384 O401 1.273 . S
C384 O402 1.257 . S
C385 O383 1.255 . S
C385 O386 1.247 . S
O386 C385 1.247 . S
C387 O399 1.242 . S
C387 O400 1.258 . S
C388 C384 1.503 . S
C388 C389 1.379 . S
C388 C393 1.392 . S
C389 C388 1.379 . S
C389 C390 1.404 . S
C389 H403 0.929 . S
C390 C389 1.404 . S
C390 C391 1.389 . S
C391 C390 1.389 . S
C391 C392 1.399 . S
C391 H404 0.931 . S
C392 C391 1.399 . S
C392 C393 1.390 . S
C393 C388 1.392 . S
C393 C392 1.390 . S
C393 H405 0.929 . S
O394 Tb378 2.326 . S
O394 C382 1.242 . S
O395 Eu379 2.324 . S
O395 C382 1.258 . S
O396 Tb378 2.500 1_545 S
O396 C398 1.273 . S
O397 Tb378 2.473 1_545 S
O397 C398 1.257 . S
C398 O396 1.273 . S
C398 O397 1.257 . S
O399 Eu379 2.326 . S
O399 C387 1.242 . S
O400 Tb378 2.324 . S
O400 C387 1.258 . S
O401 Eu379 2.500 . S
O401 C384 1.273 . S
O402 Eu379 2.473 . S
O402 C384 1.257 . S
H403 C389 0.929 . S
H404 C391 0.931 . S
H405 C393 0.929 . S
O406 Tb407 2.292 . S
O406 C409 1.255 . S
Tb407 O406 2.292 . S
Tb407 O423 2.326 . S
Tb407 O425 2.500 . S
Tb407 O426 2.473 . S
Tb407 O429 2.324 . S
Eu408 O412 2.292 . S
Eu408 C413 2.852 . S
Eu408 O424 2.324 . S
Eu408 O428 2.326 . S
Eu408 O430 2.500 . S
Eu408 O431 2.473 . S
C409 O406 1.255 . S
C409 O410 1.247 . S
O410 C409 1.247 . S
C411 O423 1.242 . S
C411 O424 1.258 . S
O412 Eu408 2.292 . S
O412 C414 1.255 . S
C413 Eu408 2.852 . S
C413 C417 1.503 . S
C413 O430 1.273 . S
C413 O431 1.257 . S
C414 O412 1.255 . S
C414 O415 1.247 . S
O415 C414 1.247 . S
C416 O428 1.242 . S
C416 O429 1.258 . S
C417 C413 1.503 . S
C417 C418 1.379 . S
C417 C422 1.392 . S
C418 C417 1.379 . S
C418 C419 1.404 . S
C418 H432 0.929 . S
C419 C418 1.404 . S
C419 C420 1.389 . S
C420 C419 1.389 . S
C420 C421 1.399 . S
C420 H433 0.931 . S
C421 C420 1.399 . S
C421 C422 1.390 . S
C422 C417 1.392 . S
C422 C421 1.390 . S
C422 H434 0.929 . S
O423 Tb407 2.326 . S
O423 C411 1.242 . S
O424 Eu408 2.324 . S
O424 C411 1.258 . S
O425 Tb407 2.500 . S
O425 C427 1.273 . S
O426 Tb407 2.473 . S
O426 C427 1.257 . S
C427 O425 1.273 . S
C427 O426 1.257 . S
O428 Eu408 2.326 . S
O428 C416 1.242 . S
O429 Tb407 2.324 . S
O429 C416 1.258 . S
O430 Eu408 2.500 . S
O430 C413 1.273 . S
O431 Eu408 2.473 . S
O431 C413 1.257 . S
H432 C418 0.929 . S
H433 C420 0.931 . S
H434 C422 0.929 . S
O435 Tb436 2.294 . S
O435 C438 1.267 . S
Tb436 O435 2.294 . S
Tb436 O452 2.326 . S
Tb436 O454 2.500 1_545 S
Tb436 O455 2.473 1_545 S
Tb436 O458 2.324 . S
Eu437 O441 2.292 . S
Eu437 C442 2.852 . S
Eu437 O453 2.324 . S
Eu437 O457 2.326 . S
Eu437 O459 2.500 . S
Eu437 O460 2.473 . S
C438 O435 1.267 . S
C438 O439 1.247 . S
O439 C438 1.247 . S
C440 O452 1.242 . S
C440 O453 1.258 . S
O441 Eu437 2.292 . S
O441 C443 1.255 . S
C442 Eu437 2.852 . S
C442 C446 1.503 . S
C442 O459 1.273 . S
C442 O460 1.257 . S
C443 O441 1.255 . S
C443 O444 1.247 . S
O444 C443 1.247 . S
C445 O457 1.242 . S
C445 O458 1.258 . S
C446 C442 1.503 . S
C446 C447 1.379 . S
C446 C451 1.392 . S
C447 C446 1.379 . S
C447 C448 1.404 . S
C447 H461 0.929 . S
C448 C447 1.404 . S
C448 C449 1.389 . S
C449 C448 1.389 . S
C449 C450 1.399 . S
C449 H462 0.931 . S
C450 C449 1.399 . S
C450 C451 1.390 . S
C451 C446 1.392 . S
C451 C450 1.390 . S
C451 H463 0.929 . S
O452 Tb436 2.326 . S
O452 C440 1.242 . S
O453 Eu437 2.324 . S
O453 C440 1.258 . S
O454 Tb436 2.500 1_565 S
O454 C456 1.273 . S
O455 Tb436 2.473 1_565 S
O455 C456 1.257 . S
C456 O454 1.273 . S
C456 O455 1.257 . S
O457 Eu437 2.326 . S
O457 C445 1.242 . S
O458 Tb436 2.324 . S
O458 C445 1.258 . S
O459 Eu437 2.500 . S
O459 C442 1.273 . S
O460 Eu437 2.473 . S
O460 C442 1.257 . S
H461 C447 0.929 . S
H462 C449 0.931 . S
H463 C451 0.929 . S
H464 C472 0.950 . S
H465 C477 0.950 . S
H466 C474 0.950 . S
H467 C476 0.950 . S
H468 C478 0.950 . S
H469 C480 0.950 . S
H470 C482 0.950 . S
H471 C483 0.950 . S
C472 H464 0.950 . S
C472 C473 1.386 . S
C472 C474 1.391 . S
C473 C472 1.386 . S
C473 C477 1.393 . S
C474 H466 0.950 . S
C474 C472 1.391 . S
C474 C475 1.400 . S
C475 C474 1.400 . S
C475 C476 1.398 . S
C475 C481 1.491 . S
C476 H467 0.950 . S
C476 C475 1.398 . S
C476 C477 1.391 . S
C477 H465 0.950 . S
C477 C473 1.393 . S
C477 C476 1.391 . S
C478 H468 0.950 . S
C478 C479 1.386 . S
C478 C480 1.391 . S
C479 C478 1.386 . S
C479 C483 1.393 . S
C480 H469 0.950 . S
C480 C478 1.391 . S
C480 C481 1.400 . S
C481 C475 1.491 . S
C481 C480 1.400 . S
C481 C482 1.398 . S
C482 H470 0.950 . S
C482 C481 1.398 . S
C482 C483 1.391 . S
C483 H471 0.950 . S
C483 C479 1.393 . S
C483 C482 1.391 . S
H484 C492 0.950 . S
H485 C497 0.950 . S
H486 C494 0.950 . S
H487 C496 0.950 . S
H488 C498 0.950 . S
H489 C500 0.950 . S
H490 C502 0.950 . S
H491 C503 0.950 . S
C492 H484 0.950 . S
C492 C493 1.386 . S
C492 C494 1.391 . S
C493 C492 1.386 . S
C493 C497 1.393 . S
C494 H486 0.950 . S
C494 C492 1.391 . S
C494 C495 1.400 . S
C495 C494 1.400 . S
C495 C496 1.398 . S
C495 C501 1.491 . S
C496 H487 0.950 . S
C496 C495 1.398 . S
C496 C497 1.391 . S
C497 H485 0.950 . S
C497 C493 1.393 . S
C497 C496 1.391 . S
C498 H488 0.950 . S
C498 C499 1.386 . S
C498 C500 1.391 . S
C499 C498 1.386 . S
C499 C503 1.393 . S
C500 H489 0.950 . S
C500 C498 1.391 . S
C500 C501 1.400 . S
C501 C495 1.491 . S
C501 C500 1.400 . S
C501 C502 1.398 . S
C502 H490 0.950 . S
C502 C501 1.398 . S
C502 C503 1.391 . S
C503 H491 0.950 . S
C503 C499 1.393 . S
C503 C502 1.391 . S
H504 C512 0.950 . S
H505 C517 0.950 . S
H506 C514 0.950 . S
H507 C516 0.950 . S
H508 C518 0.950 . S
H509 C520 0.950 . S
H510 C522 0.950 . S
H511 C523 0.950 . S
C512 H504 0.950 . S
C512 C513 1.386 . S
C512 C514 1.391 . S
C513 C512 1.386 . S
C513 C517 1.393 . S
C514 H506 0.950 . S
C514 C512 1.391 . S
C514 C515 1.400 . S
C515 C514 1.400 . S
C515 C516 1.398 . S
C515 C521 1.491 . S
C516 H507 0.950 . S
C516 C515 1.398 . S
C516 C517 1.391 . S
C517 H505 0.950 . S
C517 C513 1.393 . S
C517 C516 1.391 . S
C518 H508 0.950 . S
C518 C519 1.386 . S
C518 C520 1.391 . S
C519 C518 1.386 . S
C519 C523 1.393 . S
C520 H509 0.950 . S
C520 C518 1.391 . S
C520 C521 1.400 . S
C521 C515 1.491 . S
C521 C520 1.400 . S
C521 C522 1.398 . S
C522 H510 0.950 . S
C522 C521 1.398 . S
C522 C523 1.391 . S
C523 H511 0.950 . S
C523 C519 1.393 . S
C523 C522 1.391 . S
H524 C532 0.950 . S
H525 C537 0.950 . S
H526 C534 0.950 . S
H527 C536 0.950 . S
H528 C538 0.950 . S
H529 C540 0.950 . S
H530 C542 0.950 . S
H531 C543 0.950 . S
C532 H524 0.950 . S
C532 C533 1.386 . S
C532 C534 1.391 . S
C533 C532 1.386 . S
C533 C537 1.393 . S
C534 H526 0.950 . S
C534 C532 1.391 . S
C534 C535 1.400 . S
C535 C534 1.400 . S
C535 C536 1.398 . S
C535 C541 1.491 . S
C536 H527 0.950 . S
C536 C535 1.398 . S
C536 C537 1.391 . S
C537 H525 0.950 . S
C537 C533 1.393 . S
C537 C536 1.391 . S
C538 H528 0.950 . S
C538 C539 1.386 . S
C538 C540 1.391 . S
C539 C538 1.386 . S
C539 C543 1.393 . S
C540 H529 0.950 . S
C540 C538 1.391 . S
C540 C541 1.400 1_655 S
C541 C535 1.491 . S
C541 C540 1.400 1_455 S
C541 C542 1.398 . S
C542 H530 0.950 . S
C542 C541 1.398 . S
C542 C543 1.391 1_455 S
C543 H531 0.950 . S
C543 C539 1.393 . S
C543 C542 1.391 1_655 S
H544 C552 0.950 . S
H545 C557 0.950 . S
H546 C554 0.950 . S
H547 C556 0.950 . S
H548 C558 0.950 . S
H549 C560 0.950 . S
H550 C562 0.950 . S
H551 C563 0.950 . S
C552 H544 0.950 . S
C552 C553 1.386 . S
C552 C554 1.391 . S
C553 C552 1.386 . S
C553 C557 1.393 . S
C554 H546 0.950 . S
C554 C552 1.391 . S
C554 C555 1.400 . S
C555 C554 1.400 . S
C555 C556 1.398 . S
C555 C561 1.491 . S
C556 H547 0.950 . S
C556 C555 1.398 . S
C556 C557 1.391 . S
C557 H545 0.950 . S
C557 C553 1.393 . S
C557 C556 1.391 . S
C558 H548 0.950 . S
C558 C559 1.386 . S
C558 C560 1.391 . S
C559 C558 1.386 . S
C559 C563 1.393 . S
C560 H549 0.950 . S
C560 C558 1.391 . S
C560 C561 1.400 . S
C561 C555 1.491 . S
C561 C560 1.400 . S
C561 C562 1.398 . S
C562 H550 0.950 . S
C562 C561 1.398 . S
C562 C563 1.391 . S
C563 H551 0.950 . S
C563 C559 1.393 . S
C563 C562 1.391 . S
H564 C572 0.950 . S
H565 C577 0.950 . S
H566 C574 0.950 . S
H567 C576 0.950 . S
H568 C578 0.950 . S
H569 C580 0.950 . S
H570 C582 0.950 . S
H571 C583 0.950 . S
C572 H564 0.950 . S
C572 C573 1.386 . S
C572 C574 1.391 . S
C573 C572 1.386 . S
C573 C577 1.393 . S
C574 H566 0.950 . S
C574 C572 1.391 . S
C574 C575 1.400 . S
C575 C574 1.400 . S
C575 C576 1.398 . S
C575 C581 1.491 . S
C576 H567 0.950 . S
C576 C575 1.398 . S
C576 C577 1.391 . S
C577 H565 0.950 . S
C577 C573 1.393 . S
C577 C576 1.391 . S
C578 H568 0.950 . S
C578 C579 1.386 . S
C578 C580 1.391 . S
C579 C578 1.386 . S
C579 C583 1.393 . S
C580 H569 0.950 . S
C580 C578 1.391 . S
C580 C581 1.400 . S
C581 C575 1.491 . S
C581 C580 1.400 . S
C581 C582 1.398 . S
C582 H570 0.950 . S
C582 C581 1.398 . S
C582 C583 1.391 . S
C583 H571 0.950 . S
C583 C579 1.393 . S
C583 C582 1.391 . S
H584 C592 0.950 . S
H585 C597 0.950 . S
H586 C594 0.950 . S
H587 C596 0.950 . S
H588 C598 0.950 . S
H589 C600 0.950 . S
H590 C602 0.950 . S
H591 C603 0.950 . S
C592 H584 0.950 . S
C592 C593 1.386 . S
C592 C594 1.391 . S
C593 C592 1.386 . S
C593 C597 1.393 . S
C594 H586 0.950 . S
C594 C592 1.391 . S
C594 C595 1.400 . S
C595 C594 1.400 . S
C595 C596 1.398 . S
C595 C601 1.491 . S
C596 H587 0.950 . S
C596 C595 1.398 . S
C596 C597 1.391 . S
C597 H585 0.950 . S
C597 C593 1.393 . S
C597 C596 1.391 . S
C598 H588 0.950 . S
C598 C599 1.386 . S
C598 C600 1.391 . S
C599 C598 1.386 . S
C599 C603 1.393 . S
C600 H589 0.950 . S
C600 C598 1.391 . S
C600 C601 1.400 . S
C601 C595 1.491 . S
C601 C600 1.400 . S
C601 C602 1.398 . S
C602 H590 0.950 . S
C602 C601 1.398 . S
C602 C603 1.391 . S
C603 H591 0.950 . S
C603 C599 1.393 . S
C603 C602 1.391 . S
H604 C612 0.950 . S
H605 C617 0.950 . S
H606 C614 0.950 . S
H607 C616 0.950 . S
H608 C618 0.950 . S
H609 C620 0.950 . S
H610 C622 0.950 . S
H611 C623 0.950 . S
C612 H604 0.950 . S
C612 C613 1.386 . S
C612 C614 1.391 . S
C613 C612 1.386 . S
C613 C617 1.393 . S
C614 H606 0.950 . S
C614 C612 1.391 . S
C614 C615 1.400 . S
C615 C614 1.400 . S
C615 C616 1.398 . S
C615 C621 1.491 . S
C616 H607 0.950 . S
C616 C615 1.398 . S
C616 C617 1.391 . S
C617 H605 0.950 . S
C617 C613 1.393 . S
C617 C616 1.391 . S
C618 H608 0.950 . S
C618 C619 1.386 . S
C618 C620 1.391 1_455 S
C619 C618 1.386 . S
C619 C623 1.393 . S
C620 H609 0.950 . S
C620 C618 1.391 1_655 S
C620 C621 1.400 . S
C621 C615 1.491 . S
C621 C620 1.400 . S
C621 C622 1.398 1_655 S
C622 H610 0.950 . S
C622 C621 1.398 1_455 S
C622 C623 1.391 . S
C623 H611 0.950 . S
C623 C619 1.393 . S
C623 C622 1.391 . S
H624 C632 0.950 . S
H625 C637 0.950 . S
H626 C634 0.950 . S
H627 C636 0.950 . S
H628 C638 0.950 . S
H629 C640 0.950 . S
H630 C642 0.950 . S
H631 C643 0.950 . S
C632 H624 0.950 . S
C632 C633 1.386 . S
C632 C634 1.391 . S
C633 C632 1.386 . S
C633 C637 1.393 . S
C634 H626 0.950 . S
C634 C632 1.391 . S
C634 C635 1.400 . S
C635 C634 1.400 . S
C635 C636 1.398 . S
C635 C641 1.491 . S
C636 H627 0.950 . S
C636 C635 1.398 . S
C636 C637 1.391 . S
C637 H625 0.950 . S
C637 C633 1.393 . S
C637 C636 1.391 . S
C638 H628 0.950 . S
C638 C639 1.386 . S
C638 C640 1.391 . S
C639 C638 1.386 . S
C639 C643 1.393 . S
C640 H629 0.950 . S
C640 C638 1.391 . S
C640 C641 1.400 . S
C641 C635 1.491 . S
C641 C640 1.400 . S
C641 C642 1.398 . S
C642 H630 0.950 . S
C642 C641 1.398 . S
C642 C643 1.391 . S
C643 H631 0.950 . S
C643 C639 1.393 . S
C643 C642 1.391 . S
H644 C652 0.950 . S
H645 C657 0.950 . S
H646 C654 0.950 . S
H647 C656 0.950 1_655 S
H648 C658 0.950 . S
H649 C660 0.950 . S
H650 C662 0.950 . S
H651 C663 0.950 . S
C652 H644 0.950 . S
C652 C653 1.386 . S
C652 C654 1.391 1_545 S
C653 C652 1.386 . S
C653 C657 1.393 . S
C654 H646 0.950 . S
C654 C652 1.391 1_565 S
C654 C655 1.400 1_455 S
C655 C654 1.400 1_655 S
C655 C656 1.398 1_665 S
C655 C661 1.491 . S
C656 H647 0.950 1_455 S
C656 C655 1.398 1_445 S
C656 C657 1.391 . S
C657 H645 0.950 . S
C657 C653 1.393 . S
C657 C656 1.391 . S
C658 H648 0.950 . S
C658 C659 1.386 . S
C658 C660 1.391 . S
C659 C658 1.386 . S
C659 C663 1.393 . S
C660 H649 0.950 . S
C660 C658 1.391 . S
C660 C661 1.400 . S
C661 C655 1.491 . S
C661 C660 1.400 . S
C661 C662 1.398 . S
C662 H650 0.950 . S
C662 C661 1.398 . S
C662 C663 1.391 . S
C663 H651 0.950 . S
C663 C659 1.393 . S
C663 C662 1.391 . S
H664 C672 0.950 . S
H665 C677 0.950 . S
H666 C674 0.950 . S
H667 C676 0.950 . S
H668 C678 0.950 . S
H669 C680 0.950 . S
H670 C682 0.950 . S
H671 C683 0.950 . S
C672 H664 0.950 . S
C672 C673 1.386 . S
C672 C674 1.391 . S
C673 C672 1.386 . S
C673 C677 1.393 . S
C674 H666 0.950 . S
C674 C672 1.391 . S
C674 C675 1.400 . S
C675 C674 1.400 . S
C675 C676 1.398 . S
C675 C681 1.491 . S
C676 H667 0.950 . S
C676 C675 1.398 . S
C676 C677 1.391 . S
C677 H665 0.950 . S
C677 C673 1.393 . S
C677 C676 1.391 . S
C678 H668 0.950 . S
C678 C679 1.386 . S
C678 C680 1.391 . S
C679 C678 1.386 . S
C679 C683 1.393 . S
C680 H669 0.950 . S
C680 C678 1.391 . S
C680 C681 1.400 . S
C681 C675 1.491 . S
C681 C680 1.400 . S
C681 C682 1.398 . S
C682 H670 0.950 . S
C682 C681 1.398 . S
C682 C683 1.391 . S
C683 H671 0.950 . S
C683 C679 1.393 . S
C683 C682 1.391 . S
H684 C692 0.950 . S
H685 C697 0.950 . S
H686 C694 0.950 . S
H687 C696 0.950 . S
H688 C698 0.950 . S
H689 C700 0.950 . S
H690 C702 0.950 . S
H691 C703 0.950 . S
C692 H684 0.950 . S
C692 C693 1.386 . S
C692 C694 1.391 . S
C693 C692 1.386 . S
C693 C697 1.393 . S
C694 H686 0.950 . S
C694 C692 1.391 . S
C694 C695 1.400 . S
C695 C694 1.400 . S
C695 C696 1.398 . S
C695 C701 1.491 . S
C696 H687 0.950 . S
C696 C695 1.398 . S
C696 C697 1.391 . S
C697 H685 0.950 . S
C697 C693 1.393 . S
C697 C696 1.391 . S
C698 H688 0.950 . S
C698 C699 1.386 . S
C698 C700 1.391 . S
C699 C698 1.386 . S
C699 C703 1.393 1_565 S
C700 H689 0.950 . S
C700 C698 1.391 . S
C700 C701 1.400 1_565 S
C701 C695 1.491 . S
C701 C700 1.400 1_545 S
C701 C702 1.398 . S
C702 H690 0.950 . S
C702 C701 1.398 . S
C702 C703 1.391 . S
C703 H691 0.950 . S
C703 C699 1.393 1_545 S
C703 C702 1.391 . S
H704 C712 0.950 . S
H705 C717 0.950 . S
H706 C714 0.950 . S
H707 C716 0.950 . S
H708 C718 0.950 . S
H709 C720 0.950 . S
H710 C722 0.950 . S
H711 C723 0.950 . S
C712 H704 0.950 . S
C712 C713 1.386 . S
C712 C714 1.391 . S
C713 C712 1.386 . S
C713 C717 1.393 . S
C714 H706 0.950 . S
C714 C712 1.391 . S
C714 C715 1.400 . S
C715 C714 1.400 . S
C715 C716 1.398 . S
C715 C721 1.491 . S
C716 H707 0.950 . S
C716 C715 1.398 . S
C716 C717 1.391 . S
C717 H705 0.950 . S
C717 C713 1.393 . S
C717 C716 1.391 . S
C718 H708 0.950 . S
C718 C719 1.386 . S
C718 C720 1.391 . S
C719 C718 1.386 . S
C719 C723 1.393 . S
C720 H709 0.950 . S
C720 C718 1.391 . S
C720 C721 1.400 . S
C721 C715 1.491 . S
C721 C720 1.400 . S
C721 C722 1.398 . S
C722 H710 0.950 . S
C722 C721 1.398 . S
C722 C723 1.391 . S
C723 H711 0.950 . S
C723 C719 1.393 . S
C723 C722 1.391 . S
H724 C732 0.950 . S
H725 C737 0.950 . S
H726 C734 0.950 . S
H727 C736 0.950 . S
H728 C738 0.950 . S
H729 C740 0.950 . S
H730 C742 0.950 1_565 S
H731 C743 0.950 . S
C732 H724 0.950 . S
C732 C733 1.386 . S
C732 C734 1.391 1_655 S
C733 C732 1.386 . S
C733 C737 1.393 1_565 S
C734 H726 0.950 . S
C734 C732 1.391 1_455 S
C734 C735 1.400 1_565 S
C735 C734 1.400 1_545 S
C735 C736 1.398 1_455 S
C735 C741 1.491 . S
C736 H727 0.950 . S
C736 C735 1.398 1_655 S
C736 C737 1.391 . S
C737 H725 0.950 . S
C737 C733 1.393 1_545 S
C737 C736 1.391 . S
C738 H728 0.950 . S
C738 C739 1.386 . S
C738 C740 1.391 . S
C739 C738 1.386 . S
C739 C743 1.393 . S
C740 H729 0.950 . S
C740 C738 1.391 . S
C740 C741 1.400 . S
C741 C735 1.491 . S
C741 C740 1.400 . S
C741 C742 1.398 . S
C742 H730 0.950 1_545 S
C742 C741 1.398 . S
C742 C743 1.391 . S
C743 H731 0.950 . S
C743 C739 1.393 . S
C743 C742 1.391 . S
H744 C752 0.950 . S
H745 C757 0.950 . S
H746 C754 0.950 . S
H747 C756 0.950 . S
H748 C758 0.950 . S
H749 C760 0.950 . S
H750 C762 0.950 . S
H751 C763 0.950 . S
C752 H744 0.950 . S
C752 C753 1.386 . S
C752 C754 1.391 . S
C753 C752 1.386 . S
C753 C757 1.393 . S
C754 H746 0.950 . S
C754 C752 1.391 . S
C754 C755 1.400 . S
C755 C754 1.400 . S
C755 C756 1.398 . S
C755 C761 1.491 . S
C756 H747 0.950 . S
C756 C755 1.398 . S
C756 C757 1.391 . S
C757 H745 0.950 . S
C757 C753 1.393 . S
C757 C756 1.391 . S
C758 H748 0.950 . S
C758 C759 1.386 . S
C758 C760 1.391 . S
C759 C758 1.386 . S
C759 C763 1.393 . S
C760 H749 0.950 . S
C760 C758 1.391 . S
C760 C761 1.400 . S
C761 C755 1.491 . S
C761 C760 1.400 . S
C761 C762 1.398 . S
C762 H750 0.950 . S
C762 C761 1.398 . S
C762 C763 1.391 . S
C763 H751 0.950 . S
C763 C759 1.393 . S
C763 C762 1.391 . S
H764 C772 0.950 . S
H765 C777 0.950 . S
H766 C774 0.950 . S
H767 C776 0.950 1_545 S
H768 C778 0.950 . S
H769 C780 0.950 . S
H770 C782 0.950 . S
H771 C783 0.950 . S
C772 H764 0.950 . S
C772 C773 1.386 . S
C772 C774 1.391 . S
C773 C772 1.386 . S
C773 C777 1.393 . S
C774 H766 0.950 . S
C774 C772 1.391 . S
C774 C775 1.400 . S
C775 C774 1.400 . S
C775 C776 1.398 . S
C775 C781 1.491 . S
C776 H767 0.950 1_565 S
C776 C775 1.398 . S
C776 C777 1.391 . S
C777 H765 0.950 . S
C777 C773 1.393 . S
C777 C776 1.391 . S
C778 H768 0.950 . S
C778 C779 1.386 . S
C778 C780 1.391 . S
C779 C778 1.386 . S
C779 C783 1.393 1_545 S
C780 H769 0.950 . S
C780 C778 1.391 . S
C780 C781 1.400 1_545 S
C781 C775 1.491 . S
C781 C780 1.400 1_565 S
C781 C782 1.398 . S
C782 H770 0.950 . S
C782 C781 1.398 . S
C782 C783 1.391 . S
C783 H771 0.950 . S
C783 C779 1.393 1_565 S
C783 C782 1.391 . S
H784 C792 0.950 . S
H785 C797 0.950 . S
H786 C794 0.950 . S
H787 C796 0.950 . S
H788 C798 0.950 . S
H789 C800 0.950 . S
H790 C802 0.950 1_556 S
H791 C803 0.950 . S
C792 H784 0.950 . S
C792 C793 1.386 . S
C792 C794 1.391 . S
C793 C792 1.386 . S
C793 C797 1.393 . S
C794 H786 0.950 . S
C794 C792 1.391 . S
C794 C795 1.400 . S
C795 C794 1.400 . S
C795 C796 1.398 . S
C795 C801 1.491 . S
C796 H787 0.950 . S
C796 C795 1.398 . S
C796 C797 1.391 . S
C797 H785 0.950 . S
C797 C793 1.393 . S
C797 C796 1.391 . S
C798 H788 0.950 . S
C798 C799 1.386 . S
C798 C800 1.391 . S
C799 C798 1.386 . S
C799 C803 1.393 . S
C800 H789 0.950 . S
C800 C798 1.391 . S
C800 C801 1.400 1_554 S
C801 C795 1.491 . S
C801 C800 1.400 1_556 S
C801 C802 1.398 1_556 S
C802 H790 0.950 1_554 S
C802 C801 1.398 1_554 S
C802 C803 1.391 . S
C803 H791 0.950 . S
C803 C799 1.393 . S
C803 C802 1.391 . S
H804 C812 0.950 . S
H805 C817 0.950 . S
H806 C814 0.950 . S
H807 C816 0.950 . S
H808 C818 0.950 . S
H809 C820 0.950 . S
H810 C822 0.950 . S
H811 C823 0.950 . S
C812 H804 0.950 . S
C812 C813 1.386 . S
C812 C814 1.391 . S
C813 C812 1.386 . S
C813 C817 1.393 . S
C814 H806 0.950 . S
C814 C812 1.391 . S
C814 C815 1.400 . S
C815 C814 1.400 . S
C815 C816 1.398 . S
C815 C821 1.491 . S
C816 H807 0.950 . S
C816 C815 1.398 . S
C816 C817 1.391 . S
C817 H805 0.950 . S
C817 C813 1.393 . S
C817 C816 1.391 . S
C818 H808 0.950 . S
C818 C819 1.386 . S
C818 C820 1.391 . S
C819 C818 1.386 . S
C819 C823 1.393 . S
C820 H809 0.950 . S
C820 C818 1.391 . S
C820 C821 1.400 . S
C821 C815 1.491 . S
C821 C820 1.400 . S
C821 C822 1.398 . S
C822 H810 0.950 . S
C822 C821 1.398 . S
C822 C823 1.391 . S
C823 H811 0.950 . S
C823 C819 1.393 . S
C823 C822 1.391 . S
H824 C832 0.950 . S
H825 C837 0.950 . S
H826 C834 0.950 . S
H827 C836 0.950 . S
H828 C838 0.950 . S
H829 C840 0.950 . S
H830 C842 0.950 . S
H831 C843 0.950 . S
C832 H824 0.950 . S
C832 C833 1.386 . S
C832 C834 1.391 . S
C833 C832 1.386 . S
C833 C837 1.393 . S
C834 H826 0.950 . S
C834 C832 1.391 . S
C834 C835 1.400 . S
C835 C834 1.400 . S
C835 C836 1.398 . S
C835 C841 1.491 . S
C836 H827 0.950 . S
C836 C835 1.398 . S
C836 C837 1.391 . S
C837 H825 0.950 . S
C837 C833 1.393 . S
C837 C836 1.391 . S
C838 H828 0.950 . S
C838 C839 1.386 . S
C838 C840 1.391 . S
C839 C838 1.386 . S
C839 C843 1.393 . S
C840 H829 0.950 . S
C840 C838 1.391 . S
C840 C841 1.400 . S
C841 C835 1.491 . S
C841 C840 1.400 . S
C841 C842 1.398 . S
C842 H830 0.950 . S
C842 C841 1.398 . S
C842 C843 1.391 . S
C843 H831 0.950 . S
C843 C839 1.393 . S
C843 C842 1.391 . S
H844 C852 0.950 . S
H845 C857 0.950 . S
H846 C854 0.950 . S
H847 C856 0.950 . S
H848 C858 0.950 . S
H849 C860 0.950 . S
H850 C862 0.950 . S
H851 C863 0.950 . S
C852 H844 0.950 . S
C852 C853 1.386 . S
C852 C854 1.391 . S
C853 C852 1.386 . S
C853 C857 1.393 . S
C854 H846 0.950 . S
C854 C852 1.391 . S
C854 C855 1.400 . S
C855 C854 1.400 . S
C855 C856 1.398 . S
C855 C861 1.491 . S
C856 H847 0.950 . S
C856 C855 1.398 . S
C856 C857 1.391 . S
C857 H845 0.950 . S
C857 C853 1.393 . S
C857 C856 1.391 . S
C858 H848 0.950 . S
C858 C859 1.386 . S
C858 C860 1.391 . S
C859 C858 1.386 . S
C859 C863 1.393 . S
C860 H849 0.950 . S
C860 C858 1.391 . S
C860 C861 1.400 . S
C861 C855 1.491 . S
C861 C860 1.400 . S
C861 C862 1.398 . S
C862 H850 0.950 . S
C862 C861 1.398 . S
C862 C863 1.391 . S
C863 H851 0.950 . S
C863 C859 1.393 . S
C863 C862 1.391 . S
H864 C872 0.950 . S
H865 C877 0.950 . S
H866 C874 0.950 . S
H867 C876 0.950 . S
H868 C878 0.950 . S
H869 C880 0.950 1_554 S
H870 C882 0.950 . S
H871 C883 0.950 . S
C872 H864 0.950 . S
C872 C873 1.386 . S
C872 C874 1.391 . S
C873 C872 1.386 . S
C873 C877 1.393 . S
C874 H866 0.950 . S
C874 C872 1.391 . S
C874 C875 1.400 . S
C875 C874 1.400 . S
C875 C876 1.398 . S
C875 C881 1.491 . S
C876 H867 0.950 . S
C876 C875 1.398 . S
C876 C877 1.391 . S
C877 H865 0.950 . S
C877 C873 1.393 . S
C877 C876 1.391 . S
C878 H868 0.950 . S
C878 C879 1.386 . S
C878 C880 1.391 . S
C879 C878 1.386 . S
C879 C883 1.393 . S
C880 H869 0.950 1_556 S
C880 C878 1.391 . S
C880 C881 1.400 1_556 S
C881 C875 1.491 . S
C881 C880 1.400 1_554 S
C881 C882 1.398 1_554 S
C882 H870 0.950 . S
C882 C881 1.398 1_556 S
C882 C883 1.391 . S
C883 H871 0.950 . S
C883 C879 1.393 . S
C883 C882 1.391 . S
H884 C892 0.950 . S
H885 C897 0.950 . S
H886 C894 0.950 . S
H887 C896 0.950 . S
H888 C898 0.950 . S
H889 C900 0.950 . S
H890 C902 0.950 . S
H891 C903 0.950 . S
C892 H884 0.950 . S
C892 C893 1.386 . S
C892 C894 1.391 . S
C893 C892 1.386 . S
C893 C897 1.393 . S
C894 H886 0.950 . S
C894 C892 1.391 . S
C894 C895 1.400 . S
C895 C894 1.400 . S
C895 C896 1.398 . S
C895 C901 1.491 . S
C896 H887 0.950 . S
C896 C895 1.398 . S
C896 C897 1.391 . S
C897 H885 0.950 . S
C897 C893 1.393 . S
C897 C896 1.391 . S
C898 H888 0.950 . S
C898 C899 1.386 . S
C898 C900 1.391 . S
C899 C898 1.386 . S
C899 C903 1.393 . S
C900 H889 0.950 . S
C900 C898 1.391 . S
C900 C901 1.400 . S
C901 C895 1.491 . S
C901 C900 1.400 . S
C901 C902 1.398 . S
C902 H890 0.950 . S
C902 C901 1.398 . S
C902 C903 1.391 . S
C903 H891 0.950 . S
C903 C899 1.393 . S
C903 C902 1.391 . S
H904 C912 0.950 . S
H905 C917 0.950 . S
H906 C914 0.950 . S
H907 C916 0.950 . S
H908 C918 0.950 . S
H909 C920 0.950 . S
H910 C922 0.950 . S
H911 C923 0.950 . S
C912 H904 0.950 . S
C912 C913 1.386 . S
C912 C914 1.391 . S
C913 C912 1.386 . S
C913 C917 1.393 . S
C914 H906 0.950 . S
C914 C912 1.391 . S
C914 C915 1.400 . S
C915 C914 1.400 . S
C915 C916 1.398 . S
C915 C921 1.491 . S
C916 H907 0.950 . S
C916 C915 1.398 . S
C916 C917 1.391 . S
C917 H905 0.950 . S
C917 C913 1.393 . S
C917 C916 1.391 . S
C918 H908 0.950 . S
C918 C919 1.386 . S
C918 C920 1.391 . S
C919 C918 1.386 . S
C919 C923 1.393 . S
C920 H909 0.950 . S
C920 C918 1.391 . S
C920 C921 1.400 . S
C921 C915 1.491 . S
C921 C920 1.400 . S
C921 C922 1.398 . S
C922 H910 0.950 . S
C922 C921 1.398 . S
C922 C923 1.391 . S
C923 H911 0.950 . S
C923 C919 1.393 . S
C923 C922 1.391 . S
H924 C932 0.950 . S
H925 C937 0.950 . S
H926 C934 0.950 . S
H927 C936 0.950 . S
H928 C938 0.950 . S
H929 C940 0.950 . S
H930 C942 0.950 . S
H931 C943 0.950 . S
C932 H924 0.950 . S
C932 C933 1.386 . S
C932 C934 1.391 . S
C933 C932 1.386 . S
C933 C937 1.393 . S
C934 H926 0.950 . S
C934 C932 1.391 . S
C934 C935 1.400 . S
C935 C934 1.400 . S
C935 C936 1.398 . S
C935 C941 1.491 . S
C936 H927 0.950 . S
C936 C935 1.398 . S
C936 C937 1.391 . S
C937 H925 0.950 . S
C937 C933 1.393 . S
C937 C936 1.391 . S
C938 H928 0.950 . S
C938 C939 1.386 . S
C938 C940 1.391 . S
C939 C938 1.386 . S
C939 C943 1.393 . S
C940 H929 0.950 . S
C940 C938 1.391 . S
C940 C941 1.400 . S
C941 C935 1.491 . S
C941 C940 1.400 . S
C941 C942 1.398 . S
C942 H930 0.950 . S
C942 C941 1.398 . S
C942 C943 1.391 . S
C943 H931 0.950 . S
C943 C939 1.393 . S
C943 C942 1.391 . S
H944 C952 0.950 . S
H945 C957 0.950 . S
H946 C954 0.950 . S
H947 C956 0.950 . S
H948 C958 0.950 . S
H949 C960 0.950 . S
H950 C962 0.950 . S
H951 C963 0.950 . S
C952 H944 0.950 . S
C952 C953 1.386 . S
C952 C954 1.391 . S
C953 C952 1.386 . S
C953 C957 1.393 . S
C954 H946 0.950 . S
C954 C952 1.391 . S
C954 C955 1.400 . S
C955 C954 1.400 . S
C955 C956 1.398 . S
C955 C961 1.491 . S
C956 H947 0.950 . S
C956 C955 1.398 . S
C956 C957 1.391 . S
C957 H945 0.950 . S
C957 C953 1.393 . S
C957 C956 1.391 . S
C958 H948 0.950 . S
C958 C959 1.386 . S
C958 C960 1.391 . S
C959 C958 1.386 . S
C959 C963 1.393 . S
C960 H949 0.950 . S
C960 C958 1.391 . S
C960 C961 1.400 . S
C961 C955 1.491 . S
C961 C960 1.400 . S
C961 C962 1.398 . S
C962 H950 0.950 . S
C962 C961 1.398 . S
C962 C963 1.391 . S
C963 H951 0.950 . S
C963 C959 1.393 . S
C963 C962 1.391 . S
H964 C972 0.950 . S
H965 C977 0.950 . S
H966 C974 0.950 . S
H967 C976 0.950 . S
H968 C978 0.950 . S
H969 C980 0.950 . S
H970 C982 0.950 1_565 S
H971 C983 0.950 . S
C972 H964 0.950 . S
C972 C973 1.386 . S
C972 C974 1.391 . S
C973 C972 1.386 . S
C973 C977 1.393 1_565 S
C974 H966 0.950 . S
C974 C972 1.391 . S
C974 C975 1.400 1_565 S
C975 C974 1.400 1_545 S
C975 C976 1.398 . S
C975 C981 1.491 . S
C976 H967 0.950 . S
C976 C975 1.398 . S
C976 C977 1.391 . S
C977 H965 0.950 . S
C977 C973 1.393 1_545 S
C977 C976 1.391 . S
C978 H968 0.950 . S
C978 C979 1.386 . S
C978 C980 1.391 . S
C979 C978 1.386 . S
C979 C983 1.393 . S
C980 H969 0.950 . S
C980 C978 1.391 . S
C980 C981 1.400 . S
C981 C975 1.491 . S
C981 C980 1.400 . S
C981 C982 1.398 . S
C982 H970 0.950 1_545 S
C982 C981 1.398 . S
C982 C983 1.391 . S
C983 H971 0.950 . S
C983 C979 1.393 . S
C983 C982 1.391 . S
H984 C992 0.950 . S
H985 C997 0.950 . S
H986 C994 0.950 . S
H987 C996 0.950 . S
H988 C998 0.950 . S
H989 C1000 0.947 1_556 S
H990 C1002 0.950 1_556 S
H991 C1003 0.950 . S
C992 H984 0.950 . S
C992 C993 1.386 . S
C992 C994 1.391 . S
C993 C992 1.386 . S
C993 C997 1.393 . S
C994 H986 0.950 . S
C994 C992 1.391 . S
C994 C995 1.400 . S
C995 C994 1.400 . S
C995 C996 1.398 . S
C995 C1001 1.491 . S
C996 H987 0.950 . S
C996 C995 1.398 . S
C996 C997 1.391 . S
C997 H985 0.950 . S
C997 C993 1.393 . S
C997 C996 1.391 . S
C998 H988 0.950 . S
C998 C999 1.386 . S
C998 C1000 1.397 . S
C999 C998 1.386 . S
C999 C1003 1.393 . S
C1000 H989 0.947 1_554 S
C1000 C998 1.397 . S
C1000 C1001 1.397 1_554 S
C1001 C995 1.491 . S
C1001 C1000 1.397 1_556 S
C1001 C1002 1.398 1_556 S
C1002 H990 0.950 1_554 S
C1002 C1001 1.398 1_554 S
C1002 C1003 1.391 . S
C1003 H991 0.950 . S
C1003 C999 1.393 . S
C1003 C1002 1.391 . S
H1004 C1012 0.942 1_565 S
H1005 C1017 0.950 . S
H1006 C1014 0.950 1_565 S
H1007 C1016 0.950 . S
H1008 C1018 0.950 . S
H1009 C1020 0.950 . S
H1010 C1022 0.950 . S
H1011 C1023 0.950 . S
C1012 H1004 0.942 1_545 S
C1012 C1013 1.386 . S
C1012 C1014 1.391 . S
C1013 C1012 1.386 . S
C1013 C1017 1.393 . S
C1014 H1006 0.950 1_545 S
C1014 C1012 1.391 . S
C1014 C1015 1.400 . S
C1015 C1014 1.400 . S
C1015 C1016 1.398 . S
C1015 C1021 1.491 . S
C1016 H1007 0.950 . S
C1016 C1015 1.398 . S
C1016 C1017 1.391 . S
C1017 H1005 0.950 . S
C1017 C1013 1.393 . S
C1017 C1016 1.391 . S
C1018 H1008 0.950 . S
C1018 C1019 1.382 1_545 S
C1018 C1020 1.391 . S
C1019 C1018 1.382 1_565 S
C1019 C1023 1.395 . S
C1020 H1009 0.950 . S
C1020 C1018 1.391 . S
C1020 C1021 1.400 . S
C1021 C1015 1.491 . S
C1021 C1020 1.400 . S
C1021 C1022 1.398 1_545 S
C1022 H1010 0.950 . S
C1022 C1021 1.398 1_565 S
C1022 C1023 1.391 . S
C1023 H1011 0.950 . S
C1023 C1019 1.395 . S
C1023 C1022 1.391 . S
H1024 C1032 0.950 . S
H1025 C1037 0.950 . S
H1026 C1034 0.950 . S
H1027 C1036 0.950 . S
H1028 C1038 0.950 . S
H1029 C1040 0.950 . S
H1030 C1042 0.950 . S
H1031 C1043 0.950 . S
C1032 H1024 0.950 . S
C1032 C1033 1.386 . S
C1032 C1034 1.391 . S
C1033 C1032 1.386 . S
C1033 C1037 1.393 . S
C1034 H1026 0.950 . S
C1034 C1032 1.391 . S
C1034 C1035 1.400 . S
C1035 C1034 1.400 . S
C1035 C1036 1.398 . S
C1035 C1041 1.491 . S
C1036 H1027 0.950 . S
C1036 C1035 1.398 . S
C1036 C1037 1.391 . S
C1037 H1025 0.950 . S
C1037 C1033 1.393 . S
C1037 C1036 1.391 . S
C1038 H1028 0.950 . S
C1038 C1039 1.386 . S
C1038 C1040 1.391 . S
C1039 C1038 1.386 . S
C1039 C1043 1.393 . S
C1040 H1029 0.950 . S
C1040 C1038 1.391 . S
C1040 C1041 1.400 . S
C1041 C1035 1.491 . S
C1041 C1040 1.400 . S
C1041 C1042 1.398 . S
C1042 H1030 0.950 . S
C1042 C1041 1.398 . S
C1042 C1043 1.391 . S
C1043 H1031 0.950 . S
C1043 C1039 1.393 . S
C1043 C1042 1.391 . S
H1044 C1052 0.950 . S
H1045 C1057 0.950 . S
H1046 C1054 0.950 . S
H1047 C1056 0.950 . S
H1048 C1058 0.950 . S
H1049 C1060 0.950 . S
H1050 C1062 0.950 1_545 S
H1051 C1063 0.950 . S
C1052 H1044 0.950 . S
C1052 C1053 1.386 . S
C1052 C1054 1.391 . S
C1053 C1052 1.386 . S
C1053 C1057 1.393 1_545 S
C1054 H1046 0.950 . S
C1054 C1052 1.391 . S
C1054 C1055 1.400 1_545 S
C1055 C1054 1.400 1_565 S
C1055 C1056 1.398 . S
C1055 C1061 1.491 . S
C1056 H1047 0.950 . S
C1056 C1055 1.398 . S
C1056 C1057 1.391 . S
C1057 H1045 0.950 . S
C1057 C1053 1.393 1_565 S
C1057 C1056 1.391 . S
C1058 H1048 0.950 . S
C1058 C1059 1.386 . S
C1058 C1060 1.391 . S
C1059 C1058 1.386 . S
C1059 C1063 1.393 . S
C1060 H1049 0.950 . S
C1060 C1058 1.391 . S
C1060 C1061 1.400 . S
C1061 C1055 1.491 . S
C1061 C1060 1.400 . S
C1061 C1062 1.398 . S
C1062 H1050 0.950 1_565 S
C1062 C1061 1.398 . S
C1062 C1063 1.391 . S
C1063 H1051 0.950 . S
C1063 C1059 1.393 . S
C1063 C1062 1.391 . S
H1064 C1072 0.950 . S
H1065 C1077 0.950 . S
H1066 C1074 0.950 . S
H1067 C1076 0.950 . S
H1068 C1078 0.950 . S
H1069 C1080 0.950 1_554 S
H1070 C1082 0.950 1_554 S
H1071 C1083 0.950 . S
C1072 H1064 0.950 . S
C1072 C1073 1.386 . S
C1072 C1074 1.391 . S
C1073 C1072 1.386 . S
C1073 C1077 1.393 . S
C1074 H1066 0.950 . S
C1074 C1072 1.391 . S
C1074 C1075 1.400 . S
C1075 C1074 1.400 . S
C1075 C1076 1.398 . S
C1075 C1081 1.491 . S
C1076 H1067 0.950 . S
C1076 C1075 1.398 . S
C1076 C1077 1.391 . S
C1077 H1065 0.950 . S
C1077 C1073 1.393 . S
C1077 C1076 1.391 . S
C1078 H1068 0.950 . S
C1078 C1079 1.386 . S
C1078 C1080 1.391 . S
C1079 C1078 1.386 . S
C1079 C1083 1.393 . S
C1080 H1069 0.950 1_556 S
C1080 C1078 1.391 . S
C1080 C1081 1.400 1_556 S
C1081 C1075 1.491 . S
C1081 C1080 1.400 1_554 S
C1081 C1082 1.398 1_554 S
C1082 H1070 0.950 1_556 S
C1082 C1081 1.398 1_556 S
C1082 C1083 1.391 . S
C1083 H1071 0.950 . S
C1083 C1079 1.393 . S
C1083 C1082 1.391 . S
H1084 C1092 0.950 . S
H1085 C1097 0.950 . S
H1086 C1094 0.950 . S
H1087 C1096 0.950 . S
H1088 C1098 0.950 . S
H1089 C1100 0.950 . S
H1090 C1102 0.950 . S
H1091 C1103 0.950 . S
C1092 H1084 0.950 . S
C1092 C1093 1.386 . S
C1092 C1094 1.391 . S
C1093 C1092 1.386 . S
C1093 C1097 1.393 1_545 S
C1094 H1086 0.950 . S
C1094 C1092 1.391 . S
C1094 C1095 1.400 . S
C1095 C1094 1.400 . S
C1095 C1096 1.398 1_545 S
C1095 C1101 1.490 . S
C1096 H1087 0.950 . S
C1096 C1095 1.398 1_565 S
C1096 C1097 1.391 . S
C1097 H1085 0.950 . S
C1097 C1093 1.393 1_565 S
C1097 C1096 1.391 . S
C1098 H1088 0.950 . S
C1098 C1099 1.386 . S
C1098 C1100 1.391 . S
C1099 C1098 1.386 . S
C1099 C1103 1.393 1_565 S
C1100 H1089 0.950 . S
C1100 C1098 1.391 . S
C1100 C1101 1.401 1_565 S
C1101 C1095 1.490 . S
C1101 C1100 1.401 1_545 S
C1101 C1102 1.398 . S
C1102 H1090 0.950 . S
C1102 C1101 1.398 . S
C1102 C1103 1.391 . S
C1103 H1091 0.950 . S
C1103 C1099 1.393 1_545 S
C1103 C1102 1.391 . S
H1104 C1112 0.950 . S
H1105 C1117 0.950 . S
H1106 C1114 0.950 . S
H1107 C1116 0.950 1_554 S
H1108 C1118 0.950 . S
H1109 C1120 0.931 1_565 S
H1110 C1122 0.950 . S
H1111 C1123 0.950 . S
C1112 H1104 0.950 . S
C1112 C1113 1.386 1_545 S
C1112 C1114 1.391 . S
C1113 C1112 1.386 1_565 S
C1113 C1117 1.393 . S
C1114 H1106 0.950 . S
C1114 C1112 1.391 . S
C1114 C1115 1.400 . S
C1115 C1114 1.400 . S
C1115 C1116 1.398 1_545 S
C1115 C1121 1.491 1_556 S
C1116 H1107 0.950 1_556 S
C1116 C1115 1.398 1_565 S
C1116 C1117 1.391 . S
C1117 H1105 0.950 . S
C1117 C1113 1.393 . S
C1117 C1116 1.391 . S
C1118 H1108 0.950 . S
C1118 C1119 1.386 . S
C1118 C1120 1.400 . S
C1119 C1118 1.386 . S
C1119 C1123 1.393 . S
C1120 H1109 0.931 1_545 S
C1120 C1118 1.400 . S
C1120 C1121 1.411 . S
C1121 C1115 1.491 1_554 S
C1121 C1120 1.411 . S
C1121 C1122 1.398 . S
C1122 H1110 0.950 . S
C1122 C1121 1.398 . S
C1122 C1123 1.391 . S
C1123 H1111 0.950 . S
C1123 C1119 1.393 . S
C1123 C1122 1.391 . S
H1124 C1132 0.950 . S
H1125 C1137 0.950 . S
H1126 C1134 0.950 . S
H1127 C1136 0.950 . S
H1128 C1138 0.950 . S
H1129 C1140 0.950 . S
H1130 C1142 0.950 . S
H1131 C1143 0.950 . S
C1132 H1124 0.950 . S
C1132 C1133 1.386 . S
C1132 C1134 1.391 . S
C1133 C1132 1.386 . S
C1133 C1137 1.393 . S
C1134 H1126 0.950 . S
C1134 C1132 1.391 . S
C1134 C1135 1.400 . S
C1135 C1134 1.400 . S
C1135 C1136 1.398 . S
C1135 C1141 1.491 . S
C1136 H1127 0.950 . S
C1136 C1135 1.398 . S
C1136 C1137 1.391 . S
C1137 H1125 0.950 . S
C1137 C1133 1.393 . S
C1137 C1136 1.391 . S
C1138 H1128 0.950 . S
C1138 C1139 1.386 . S
C1138 C1140 1.391 . S
C1139 C1138 1.386 . S
C1139 C1143 1.393 . S
C1140 H1129 0.950 . S
C1140 C1138 1.391 . S
C1140 C1141 1.400 . S
C1141 C1135 1.491 . S
C1141 C1140 1.400 . S
C1141 C1142 1.398 . S
C1142 H1130 0.950 . S
C1142 C1141 1.398 . S
C1142 C1143 1.391 . S
C1143 H1131 0.950 . S
C1143 C1139 1.393 . S
C1143 C1142 1.391 . S
H1144 C1152 0.950 1_565 S
H1145 C1157 0.950 . S
H1146 C1154 0.950 . S
H1147 C1156 0.950 . S
H1148 C1158 0.950 1_545 S
H1149 C1160 0.950 . S
H1150 C1162 0.950 . S
H1151 C1163 0.952 . S
C1152 H1144 0.950 1_545 S
C1152 C1153 1.386 . S
C1152 C1154 1.391 1_545 S
C1153 C1152 1.386 . S
C1153 C1157 1.393 1_655 S
C1154 H1146 0.950 . S
C1154 C1152 1.391 1_565 S
C1154 C1155 1.400 1_565 S
C1155 C1154 1.400 1_545 S
C1155 C1156 1.398 1_655 S
C1155 C1161 1.491 1_645 S
C1156 H1147 0.950 . S
C1156 C1155 1.398 1_455 S
C1156 C1157 1.391 . S
C1157 H1145 0.950 . S
C1157 C1153 1.393 1_455 S
C1157 C1156 1.391 . S
C1158 H1148 0.950 1_565 S
C1158 C1159 1.386 . S
C1158 C1160 1.391 1_565 S
C1159 C1158 1.386 . S
C1159 C1163 1.390 1_455 S
C1160 H1149 0.950 . S
C1160 C1158 1.391 1_545 S
C1160 C1161 1.400 1_545 S
C1161 C1155 1.491 1_465 S
C1161 C1160 1.400 1_565 S
C1161 C1162 1.398 1_455 S
C1162 H1150 0.950 . S
C1162 C1161 1.398 1_655 S
C1162 C1163 1.392 . S
C1163 H1151 0.952 . S
C1163 C1159 1.390 1_655 S
C1163 C1162 1.392 . S
H1164 C1172 0.950 . S
H1165 C1177 0.950 . S
H1166 C1174 0.950 . S
H1167 C1176 0.950 . S
H1168 C1178 0.950 . S
H1169 C1180 0.950 . S
H1170 C1182 0.950 . S
H1171 C1183 0.950 . S
C1172 H1164 0.950 . S
C1172 C1173 1.386 . S
C1172 C1174 1.391 . S
C1173 C1172 1.386 . S
C1173 C1177 1.393 . S
C1174 H1166 0.950 . S
C1174 C1172 1.391 . S
C1174 C1175 1.400 . S
C1175 C1174 1.400 . S
C1175 C1176 1.398 . S
C1175 C1181 1.491 . S
C1176 H1167 0.950 . S
C1176 C1175 1.398 . S
C1176 C1177 1.391 . S
C1177 H1165 0.950 . S
C1177 C1173 1.393 . S
C1177 C1176 1.391 . S
C1178 H1168 0.950 . S
C1178 C1179 1.386 . S
C1178 C1180 1.391 . S
C1179 C1178 1.386 . S
C1179 C1183 1.393 . S
C1180 H1169 0.950 . S
C1180 C1178 1.391 . S
C1180 C1181 1.400 . S
C1181 C1175 1.491 . S
C1181 C1180 1.400 . S
C1181 C1182 1.398 . S
C1182 H1170 0.950 . S
C1182 C1181 1.398 . S
C1182 C1183 1.391 . S
C1183 H1171 0.950 . S
C1183 C1179 1.393 . S
C1183 C1182 1.391 . S
H1184 C1192 0.950 . S
H1185 C1197 0.950 . S
H1186 C1194 0.950 . S
H1187 C1196 0.950 . S
H1188 C1198 0.950 . S
H1189 C1200 0.950 . S
H1190 C1202 0.950 . S
H1191 C1203 0.950 . S
C1192 H1184 0.950 . S
C1192 C1193 1.386 . S
C1192 C1194 1.391 . S
C1193 C1192 1.386 . S
C1193 C1197 1.393 . S
C1194 H1186 0.950 . S
C1194 C1192 1.391 . S
C1194 C1195 1.400 . S
C1195 C1194 1.400 . S
C1195 C1196 1.398 . S
C1195 C1201 1.491 . S
C1196 H1187 0.950 . S
C1196 C1195 1.398 . S
C1196 C1197 1.391 . S
C1197 H1185 0.950 . S
C1197 C1193 1.393 . S
C1197 C1196 1.391 . S
C1198 H1188 0.950 . S
C1198 C1199 1.386 . S
C1198 C1200 1.391 . S
C1199 C1198 1.386 . S
C1199 C1203 1.393 . S
C1200 H1189 0.950 . S
C1200 C1198 1.391 . S
C1200 C1201 1.400 . S
C1201 C1195 1.491 . S
C1201 C1200 1.400 . S
C1201 C1202 1.398 . S
C1202 H1190 0.950 . S
C1202 C1201 1.398 . S
C1202 C1203 1.391 . S
C1203 H1191 0.950 . S
C1203 C1199 1.393 . S
C1203 C1202 1.391 . S
H1204 C1212 0.950 . S
H1205 C1217 0.950 . S
H1206 C1214 0.950 . S
H1207 C1216 0.950 . S
H1208 C1218 0.950 . S
H1209 C1220 0.950 . S
H1210 C1222 0.950 . S
H1211 C1223 0.950 . S
C1212 H1204 0.950 . S
C1212 C1213 1.386 . S
C1212 C1214 1.391 . S
C1213 C1212 1.386 . S
C1213 C1217 1.393 . S
C1214 H1206 0.950 . S
C1214 C1212 1.391 . S
C1214 C1215 1.400 . S
C1215 C1214 1.400 . S
C1215 C1216 1.398 . S
C1215 C1221 1.491 . S
C1216 H1207 0.950 . S
C1216 C1215 1.398 . S
C1216 C1217 1.391 . S
C1217 H1205 0.950 . S
C1217 C1213 1.393 . S
C1217 C1216 1.391 . S
C1218 H1208 0.950 . S
C1218 C1219 1.386 . S
C1218 C1220 1.391 . S
C1219 C1218 1.386 . S
C1219 C1223 1.393 . S
C1220 H1209 0.950 . S
C1220 C1218 1.391 . S
C1220 C1221 1.400 . S
C1221 C1215 1.491 . S
C1221 C1220 1.400 . S
C1221 C1222 1.398 . S
C1222 H1210 0.950 . S
C1222 C1221 1.398 . S
C1222 C1223 1.391 . S
C1223 H1211 0.950 . S
C1223 C1219 1.393 . S
C1223 C1222 1.391 . S
H1224 C1232 0.950 . S
H1225 C1237 0.950 . S
H1226 C1234 0.950 . S
H1227 C1236 0.950 . S
H1228 C1238 0.950 . S
H1229 C1240 0.950 . S
H1230 C1242 0.950 1_655 S
H1231 C1243 0.950 . S
C1232 H1224 0.950 . S
C1232 C1233 1.386 . S
C1232 C1234 1.391 . S
C1233 C1232 1.386 . S
C1233 C1237 1.393 . S
C1234 H1226 0.950 . S
C1234 C1232 1.391 . S
C1234 C1235 1.400 . S
C1235 C1234 1.400 . S
C1235 C1236 1.398 1_655 S
C1235 C1241 1.491 1_655 S
C1236 H1227 0.950 . S
C1236 C1235 1.398 1_455 S
C1236 C1237 1.391 1_455 S
C1237 H1225 0.950 . S
C1237 C1233 1.393 . S
C1237 C1236 1.391 1_655 S
C1238 H1228 0.950 . S
C1238 C1239 1.386 . S
C1238 C1240 1.391 . S
C1239 C1238 1.386 . S
C1239 C1243 1.393 . S
C1240 H1229 0.950 . S
C1240 C1238 1.391 . S
C1240 C1241 1.400 . S
C1241 C1235 1.491 1_455 S
C1241 C1240 1.400 . S
C1241 C1242 1.398 . S
C1242 H1230 0.950 1_455 S
C1242 C1241 1.398 . S
C1242 C1243 1.391 . S
C1243 H1231 0.950 . S
C1243 C1239 1.393 . S
C1243 C1242 1.391 . S
H1244 C1252 0.950 . S
H1245 C1257 0.950 . S
H1246 C1254 0.950 . S
H1247 C1256 0.950 1_556 S
H1248 C1258 0.950 . S
H1249 C1260 0.950 . S
H1250 C1262 0.950 . S
H1251 C1263 0.950 . S
C1252 H1244 0.950 . S
C1252 C1253 1.386 . S
C1252 C1254 1.391 . S
C1253 C1252 1.386 . S
C1253 C1257 1.393 . S
C1254 H1246 0.950 . S
C1254 C1252 1.391 . S
C1254 C1255 1.400 . S
C1255 C1254 1.400 . S
C1255 C1256 1.398 . S
C1255 C1261 1.491 1_554 S
C1256 H1247 0.950 1_554 S
C1256 C1255 1.398 . S
C1256 C1257 1.391 . S
C1257 H1245 0.950 . S
C1257 C1253 1.393 . S
C1257 C1256 1.391 . S
C1258 H1248 0.950 . S
C1258 C1259 1.386 . S
C1258 C1260 1.391 . S
C1259 C1258 1.386 . S
C1259 C1263 1.393 . S
C1260 H1249 0.950 . S
C1260 C1258 1.391 . S
C1260 C1261 1.400 . S
C1261 C1255 1.491 1_556 S
C1261 C1260 1.400 . S
C1261 C1262 1.398 . S
C1262 H1250 0.950 . S
C1262 C1261 1.398 . S
C1262 C1263 1.391 . S
C1263 H1251 0.950 . S
C1263 C1259 1.393 . S
C1263 C1262 1.391 . S
H1264 C1272 0.950 . S
H1265 C1277 0.950 . S
H1266 C1274 0.950 . S
H1267 C1276 0.950 . S
H1268 C1278 0.950 . S
H1269 C1280 0.950 . S
H1270 C1282 0.950 . S
H1271 C1283 0.950 . S
C1272 H1264 0.950 . S
C1272 C1273 1.386 . S
C1272 C1274 1.391 . S
C1273 C1272 1.386 . S
C1273 C1277 1.393 . S
C1274 H1266 0.950 . S
C1274 C1272 1.391 . S
C1274 C1275 1.400 . S
C1275 C1274 1.400 . S
C1275 C1276 1.398 . S
C1275 C1281 1.491 . S
C1276 H1267 0.950 . S
C1276 C1275 1.398 . S
C1276 C1277 1.391 . S
C1277 H1265 0.950 . S
C1277 C1273 1.393 . S
C1277 C1276 1.391 . S
C1278 H1268 0.950 . S
C1278 C1279 1.386 . S
C1278 C1280 1.391 . S
C1279 C1278 1.386 . S
C1279 C1283 1.393 . S
C1280 H1269 0.950 . S
C1280 C1278 1.391 . S
C1280 C1281 1.400 . S
C1281 C1275 1.491 . S
C1281 C1280 1.400 . S
C1281 C1282 1.398 . S
C1282 H1270 0.950 . S
C1282 C1281 1.398 . S
C1282 C1283 1.391 . S
C1283 H1271 0.950 . S
C1283 C1279 1.393 . S
C1283 C1282 1.391 . S
H1284 C1292 0.950 . S
H1285 C1297 0.950 . S
H1286 C1294 0.950 . S
H1287 C1296 0.950 . S
H1288 C1298 0.950 . S
H1289 C1300 0.950 . S
H1290 C1302 0.950 . S
H1291 C1303 0.950 . S
C1292 H1284 0.950 . S
C1292 C1293 1.386 . S
C1292 C1294 1.391 . S
C1293 C1292 1.386 . S
C1293 C1297 1.393 . S
C1294 H1286 0.950 . S
C1294 C1292 1.391 . S
C1294 C1295 1.400 . S
C1295 C1294 1.400 . S
C1295 C1296 1.398 . S
C1295 C1301 1.491 . S
C1296 H1287 0.950 . S
C1296 C1295 1.398 . S
C1296 C1297 1.391 . S
C1297 H1285 0.950 . S
C1297 C1293 1.393 . S
C1297 C1296 1.391 . S
C1298 H1288 0.950 . S
C1298 C1299 1.386 . S
C1298 C1300 1.391 . S
C1299 C1298 1.386 . S
C1299 C1303 1.393 . S
C1300 H1289 0.950 . S
C1300 C1298 1.391 . S
C1300 C1301 1.400 . S
C1301 C1295 1.491 . S
C1301 C1300 1.400 . S
C1301 C1302 1.398 . S
C1302 H1290 0.950 . S
C1302 C1301 1.398 . S
C1302 C1303 1.391 . S
C1303 H1291 0.950 . S
C1303 C1299 1.393 . S
C1303 C1302 1.391 . S
H1304 C1312 0.950 . S
H1305 C1317 0.950 . S
H1306 C1314 0.950 . S
H1307 C1316 0.950 . S
H1308 C1318 0.950 . S
H1309 C1320 0.950 . S
H1310 C1322 0.950 . S
H1311 C1323 0.950 . S
C1312 H1304 0.950 . S
C1312 C1313 1.386 . S
C1312 C1314 1.391 . S
C1313 C1312 1.386 . S
C1313 C1317 1.393 . S
C1314 H1306 0.950 . S
C1314 C1312 1.391 . S
C1314 C1315 1.400 . S
C1315 C1314 1.400 . S
C1315 C1316 1.398 . S
C1315 C1321 1.491 . S
C1316 H1307 0.950 . S
C1316 C1315 1.398 . S
C1316 C1317 1.391 . S
C1317 H1305 0.950 . S
C1317 C1313 1.393 . S
C1317 C1316 1.391 . S
C1318 H1308 0.950 . S
C1318 C1319 1.386 . S
C1318 C1320 1.391 . S
C1319 C1318 1.386 . S
C1319 C1323 1.393 . S
C1320 H1309 0.950 . S
C1320 C1318 1.391 . S
C1320 C1321 1.400 . S
C1321 C1315 1.491 . S
C1321 C1320 1.400 . S
C1321 C1322 1.398 . S
C1322 H1310 0.950 . S
C1322 C1321 1.398 . S
C1322 C1323 1.391 . S
C1323 H1311 0.950 . S
C1323 C1319 1.393 . S
C1323 C1322 1.391 . S
H1324 C1332 0.950 . S
H1325 C1337 0.950 . S
H1326 C1334 0.950 . S
H1327 C1336 0.950 . S
H1328 C1338 0.950 . S
H1329 C1340 0.950 . S
H1330 C1342 0.950 . S
H1331 C1343 0.950 . S
C1332 H1324 0.950 . S
C1332 C1333 1.386 . S
C1332 C1334 1.391 . S
C1333 C1332 1.386 . S
C1333 C1337 1.393 . S
C1334 H1326 0.950 . S
C1334 C1332 1.391 . S
C1334 C1335 1.400 . S
C1335 C1334 1.400 . S
C1335 C1336 1.398 . S
C1335 C1341 1.491 . S
C1336 H1327 0.950 . S
C1336 C1335 1.398 . S
C1336 C1337 1.391 . S
C1337 H1325 0.950 . S
C1337 C1333 1.393 . S
C1337 C1336 1.391 . S
C1338 H1328 0.950 . S
C1338 C1339 1.386 . S
C1338 C1340 1.391 . S
C1339 C1338 1.386 . S
C1339 C1343 1.393 . S
C1340 H1329 0.950 . S
C1340 C1338 1.391 . S
C1340 C1341 1.400 . S
C1341 C1335 1.491 . S
C1341 C1340 1.400 . S
C1341 C1342 1.398 . S
C1342 H1330 0.950 . S
C1342 C1341 1.398 . S
C1342 C1343 1.391 . S
C1343 H1331 0.950 . S
C1343 C1339 1.393 . S
C1343 C1342 1.391 . S
H1344 C1352 0.950 . S
H1345 C1357 0.950 . S
H1346 C1354 0.950 . S
H1347 C1356 0.950 . S
H1348 C1358 0.950 . S
H1349 C1360 0.950 . S
H1350 C1362 0.950 . S
H1351 C1363 0.950 . S
C1352 H1344 0.950 . S
C1352 C1353 1.386 . S
C1352 C1354 1.391 . S
C1353 C1352 1.386 . S
C1353 C1357 1.393 . S
C1354 H1346 0.950 . S
C1354 C1352 1.391 . S
C1354 C1355 1.400 . S
C1355 C1354 1.400 . S
C1355 C1356 1.398 . S
C1355 C1361 1.491 . S
C1356 H1347 0.950 . S
C1356 C1355 1.398 . S
C1356 C1357 1.391 . S
C1357 H1345 0.950 . S
C1357 C1353 1.393 . S
C1357 C1356 1.391 . S
C1358 H1348 0.950 . S
C1358 C1359 1.386 . S
C1358 C1360 1.391 . S
C1359 C1358 1.386 . S
C1359 C1363 1.393 . S
C1360 H1349 0.950 . S
C1360 C1358 1.391 . S
C1360 C1361 1.400 . S
C1361 C1355 1.491 . S
C1361 C1360 1.400 . S
C1361 C1362 1.398 . S
C1362 H1350 0.950 . S
C1362 C1361 1.398 . S
C1362 C1363 1.391 . S
C1363 H1351 0.950 . S
C1363 C1359 1.393 . S
C1363 C1362 1.391 . S
H1364 C1372 0.950 . S
H1365 C1377 0.950 . S
H1366 C1374 0.950 . S
H1367 C1376 0.950 . S
H1368 C1378 0.950 . S
H1369 C1380 0.950 . S
H1370 C1382 0.950 . S
H1371 C1383 0.950 . S
C1372 H1364 0.950 . S
C1372 C1373 1.386 . S
C1372 C1374 1.391 . S
C1373 C1372 1.386 . S
C1373 C1377 1.393 . S
C1374 H1366 0.950 . S
C1374 C1372 1.391 . S
C1374 C1375 1.400 . S
C1375 C1374 1.400 . S
C1375 C1376 1.398 . S
C1375 C1381 1.491 . S
C1376 H1367 0.950 . S
C1376 C1375 1.398 . S
C1376 C1377 1.391 . S
C1377 H1365 0.950 . S
C1377 C1373 1.393 . S
C1377 C1376 1.391 . S
C1378 H1368 0.950 . S
C1378 C1379 1.386 . S
C1378 C1380 1.391 . S
C1379 C1378 1.386 . S
C1379 C1383 1.393 . S
C1380 H1369 0.950 . S
C1380 C1378 1.391 . S
C1380 C1381 1.400 . S
C1381 C1375 1.491 . S
C1381 C1380 1.400 . S
C1381 C1382 1.398 . S
C1382 H1370 0.950 . S
C1382 C1381 1.398 . S
C1382 C1383 1.391 . S
C1383 H1371 0.950 . S
C1383 C1379 1.393 . S
C1383 C1382 1.391 . S
H1384 C1392 0.950 . S
H1385 C1397 0.950 . S
H1386 C1394 0.950 . S
H1387 C1396 0.950 . S
H1388 C1398 0.950 . S
H1389 C1400 0.950 . S
H1390 C1402 0.950 . S
H1391 C1403 0.950 . S
C1392 H1384 0.950 . S
C1392 C1393 1.386 . S
C1392 C1394 1.391 . S
C1393 C1392 1.386 . S
C1393 C1397 1.393 . S
C1394 H1386 0.950 . S
C1394 C1392 1.391 . S
C1394 C1395 1.400 . S
C1395 C1394 1.400 . S
C1395 C1396 1.398 . S
C1395 C1401 1.491 . S
C1396 H1387 0.950 . S
C1396 C1395 1.398 . S
C1396 C1397 1.391 . S
C1397 H1385 0.950 . S
C1397 C1393 1.393 . S
C1397 C1396 1.391 . S
C1398 H1388 0.950 . S
C1398 C1399 1.386 . S
C1398 C1400 1.391 . S
C1399 C1398 1.386 . S
C1399 C1403 1.393 . S
C1400 H1389 0.950 . S
C1400 C1398 1.391 . S
C1400 C1401 1.400 . S
C1401 C1395 1.491 . S
C1401 C1400 1.400 . S
C1401 C1402 1.398 . S
C1402 H1390 0.950 . S
C1402 C1401 1.398 . S
C1402 C1403 1.391 . S
C1403 H1391 0.950 . S
C1403 C1399 1.393 . S
C1403 C1402 1.391 . S
H1404 C1412 0.950 . S
H1405 C1417 0.950 . S
H1406 C1414 0.950 . S
H1407 C1416 0.950 . S
H1408 C1418 0.950 . S
H1409 C1420 0.950 . S
H1410 C1422 0.950 . S
H1411 C1423 0.950 . S
C1412 H1404 0.950 . S
C1412 C1413 1.386 . S
C1412 C1414 1.391 . S
C1413 C1412 1.386 . S
C1413 C1417 1.393 . S
C1414 H1406 0.950 . S
C1414 C1412 1.391 . S
C1414 C1415 1.400 . S
C1415 C1414 1.400 . S
C1415 C1416 1.398 . S
C1415 C1421 1.491 . S
C1416 H1407 0.950 . S
C1416 C1415 1.398 . S
C1416 C1417 1.391 . S
C1417 H1405 0.950 . S
C1417 C1413 1.393 . S
C1417 C1416 1.391 . S
C1418 H1408 0.950 . S
C1418 C1419 1.386 . S
C1418 C1420 1.391 . S
C1419 C1418 1.386 . S
C1419 C1423 1.393 . S
C1420 H1409 0.950 . S
C1420 C1418 1.391 . S
C1420 C1421 1.400 . S
C1421 C1415 1.491 . S
C1421 C1420 1.400 . S
C1421 C1422 1.398 . S
C1422 H1410 0.950 . S
C1422 C1421 1.398 . S
C1422 C1423 1.391 . S
C1423 H1411 0.950 . S
C1423 C1419 1.393 . S
C1423 C1422 1.391 . S
H1424 C1432 0.950 . S
H1425 C1437 0.950 . S
H1426 C1434 0.950 . S
H1427 C1436 0.950 . S
H1428 C1438 0.950 . S
H1429 C1440 0.950 . S
H1430 C1442 0.950 . S
H1431 C1443 0.950 . S
C1432 H1424 0.950 . S
C1432 C1433 1.386 . S
C1432 C1434 1.391 . S
C1433 C1432 1.386 . S
C1433 C1437 1.393 . S
C1434 H1426 0.950 . S
C1434 C1432 1.391 . S
C1434 C1435 1.400 . S
C1435 C1434 1.400 . S
C1435 C1436 1.398 . S
C1435 C1441 1.491 . S
C1436 H1427 0.950 . S
C1436 C1435 1.398 . S
C1436 C1437 1.391 . S
C1437 H1425 0.950 . S
C1437 C1433 1.393 . S
C1437 C1436 1.391 . S
C1438 H1428 0.950 . S
C1438 C1439 1.386 . S
C1438 C1440 1.391 . S
C1439 C1438 1.386 . S
C1439 C1443 1.393 . S
C1440 H1429 0.950 . S
C1440 C1438 1.391 . S
C1440 C1441 1.400 . S
C1441 C1435 1.491 . S
C1441 C1440 1.400 . S
C1441 C1442 1.398 . S
C1442 H1430 0.950 . S
C1442 C1441 1.398 . S
C1442 C1443 1.391 . S
C1443 H1431 0.950 . S
C1443 C1439 1.393 . S
C1443 C1442 1.391 . S
H1444 C1452 0.950 . S
H1445 C1457 0.950 . S
H1446 C1454 0.950 . S
H1447 C1456 0.950 . S
H1448 C1458 0.950 . S
H1449 C1460 0.950 . S
H1450 C1462 0.950 . S
H1451 C1463 0.950 . S
C1452 H1444 0.950 . S
C1452 C1453 1.386 . S
C1452 C1454 1.391 . S
C1453 C1452 1.386 . S
C1453 C1457 1.393 . S
C1454 H1446 0.950 . S
C1454 C1452 1.391 . S
C1454 C1455 1.400 . S
C1455 C1454 1.400 . S
C1455 C1456 1.398 . S
C1455 C1461 1.491 . S
C1456 H1447 0.950 . S
C1456 C1455 1.398 . S
C1456 C1457 1.391 . S
C1457 H1445 0.950 . S
C1457 C1453 1.393 . S
C1457 C1456 1.391 . S
C1458 H1448 0.950 . S
C1458 C1459 1.386 . S
C1458 C1460 1.391 . S
C1459 C1458 1.386 . S
C1459 C1463 1.393 . S
C1460 H1449 0.950 . S
C1460 C1458 1.391 . S
C1460 C1461 1.400 . S
C1461 C1455 1.491 . S
C1461 C1460 1.400 . S
C1461 C1462 1.398 . S
C1462 H1450 0.950 . S
C1462 C1461 1.398 . S
C1462 C1463 1.391 . S
C1463 H1451 0.950 . S
C1463 C1459 1.393 . S
C1463 C1462 1.391 . S
H1464 C1472 0.950 . S
H1465 C1477 0.950 . S
H1466 C1474 0.950 . S
H1467 C1476 0.950 . S
H1468 C1478 0.950 . S
H1469 C1480 0.950 . S
H1470 C1482 0.950 . S
H1471 C1483 0.950 . S
C1472 H1464 0.950 . S
C1472 C1473 1.386 . S
C1472 C1474 1.391 . S
C1473 C1472 1.386 . S
C1473 C1477 1.393 . S
C1474 H1466 0.950 . S
C1474 C1472 1.391 . S
C1474 C1475 1.400 . S
C1475 C1474 1.400 . S
C1475 C1476 1.398 . S
C1475 C1481 1.491 . S
C1476 H1467 0.950 . S
C1476 C1475 1.398 . S
C1476 C1477 1.391 . S
C1477 H1465 0.950 . S
C1477 C1473 1.393 . S
C1477 C1476 1.391 . S
C1478 H1468 0.950 . S
C1478 C1479 1.386 . S
C1478 C1480 1.391 . S
C1479 C1478 1.386 . S
C1479 C1483 1.393 . S
C1480 H1469 0.950 . S
C1480 C1478 1.391 . S
C1480 C1481 1.400 . S
C1481 C1475 1.491 . S
C1481 C1480 1.400 . S
C1481 C1482 1.398 . S
C1482 H1470 0.950 . S
C1482 C1481 1.398 . S
C1482 C1483 1.391 . S
C1483 H1471 0.950 . S
C1483 C1479 1.393 . S
C1483 C1482 1.391 . S
H1484 C1492 0.950 . S
H1485 C1497 0.950 . S
H1486 C1494 0.950 . S
H1487 C1496 0.950 . S
H1488 C1498 0.950 . S
H1489 C1500 0.950 . S
H1490 C1502 0.950 . S
H1491 C1503 0.950 . S
C1492 H1484 0.950 . S
C1492 C1493 1.386 . S
C1492 C1494 1.391 . S
C1493 C1492 1.386 . S
C1493 C1497 1.393 . S
C1494 H1486 0.950 . S
C1494 C1492 1.391 . S
C1494 C1495 1.400 . S
C1495 C1494 1.400 . S
C1495 C1496 1.398 . S
C1495 C1501 1.491 . S
C1496 H1487 0.950 . S
C1496 C1495 1.398 . S
C1496 C1497 1.391 . S
C1497 H1485 0.950 . S
C1497 C1493 1.393 . S
C1497 C1496 1.391 . S
C1498 H1488 0.950 . S
C1498 C1499 1.386 1_545 S
C1498 C1500 1.391 1_545 S
C1499 C1498 1.386 1_565 S
C1499 C1503 1.393 . S
C1500 H1489 0.950 . S
C1500 C1498 1.391 1_565 S
C1500 C1501 1.400 . S
C1501 C1495 1.491 . S
C1501 C1500 1.400 . S
C1501 C1502 1.398 . S
C1502 H1490 0.950 . S
C1502 C1501 1.398 . S
C1502 C1503 1.391 . S
C1503 H1491 0.950 . S
C1503 C1499 1.393 . S
C1503 C1502 1.391 . S
H1504 C1512 0.950 . S
H1505 C1517 0.950 . S
H1506 C1514 0.950 . S
H1507 C1516 0.950 . S
H1508 C1518 0.950 . S
H1509 C1520 0.950 . S
H1510 C1522 0.950 . S
H1511 C1523 0.950 . S
C1512 H1504 0.950 . S
C1512 C1513 1.386 . S
C1512 C1514 1.391 . S
C1513 C1512 1.386 . S
C1513 C1517 1.393 . S
C1514 H1506 0.950 . S
C1514 C1512 1.391 . S
C1514 C1515 1.400 . S
C1515 C1514 1.400 . S
C1515 C1516 1.398 . S
C1515 C1521 1.491 . S
C1516 H1507 0.950 . S
C1516 C1515 1.398 . S
C1516 C1517 1.391 . S
C1517 H1505 0.950 . S
C1517 C1513 1.393 . S
C1517 C1516 1.391 . S
C1518 H1508 0.950 . S
C1518 C1519 1.386 . S
C1518 C1520 1.391 . S
C1519 C1518 1.386 . S
C1519 C1523 1.393 . S
C1520 H1509 0.950 . S
C1520 C1518 1.391 . S
C1520 C1521 1.400 . S
C1521 C1515 1.491 . S
C1521 C1520 1.400 . S
C1521 C1522 1.398 . S
C1522 H1510 0.950 . S
C1522 C1521 1.398 . S
C1522 C1523 1.391 . S
C1523 H1511 0.950 . S
C1523 C1519 1.393 . S
C1523 C1522 1.391 . S
H1524 C1532 0.950 . S
H1525 C1537 0.950 . S
H1526 C1534 0.950 . S
H1527 C1536 0.950 . S
H1528 C1538 0.950 . S
H1529 C1540 0.950 . S
H1530 C1542 0.950 . S
H1531 C1543 0.950 . S
C1532 H1524 0.950 . S
C1532 C1533 1.386 . S
C1532 C1534 1.391 . S
C1533 C1532 1.386 . S
C1533 C1537 1.393 1_545 S
C1534 H1526 0.950 . S
C1534 C1532 1.391 . S
C1534 C1535 1.400 1_545 S
C1535 C1534 1.400 1_565 S
C1535 C1536 1.398 . S
C1535 C1541 1.491 . S
C1536 H1527 0.950 . S
C1536 C1535 1.398 . S
C1536 C1537 1.391 . S
C1537 H1525 0.950 . S
C1537 C1533 1.393 1_565 S
C1537 C1536 1.391 . S
C1538 H1528 0.950 . S
C1538 C1539 1.386 . S
C1538 C1540 1.391 . S
C1539 C1538 1.386 . S
C1539 C1543 1.393 . S
C1540 H1529 0.950 . S
C1540 C1538 1.391 . S
C1540 C1541 1.400 . S
C1541 C1535 1.491 . S
C1541 C1540 1.400 . S
C1541 C1542 1.398 . S
C1542 H1530 0.950 . S
C1542 C1541 1.398 . S
C1542 C1543 1.391 . S
C1543 H1531 0.950 . S
C1543 C1539 1.393 . S
C1543 C1542 1.391 . S
H1544 C1552 0.950 . S
H1545 C1557 0.950 . S
H1546 C1554 0.950 . S
H1547 C1556 0.950 . S
H1548 C1558 0.950 . S
H1549 C1560 0.950 . S
H1550 C1562 0.950 . S
H1551 C1563 0.950 . S
C1552 H1544 0.950 . S
C1552 C1553 1.386 . S
C1552 C1554 1.391 . S
C1553 C1552 1.386 . S
C1553 C1557 1.393 . S
C1554 H1546 0.950 . S
C1554 C1552 1.391 . S
C1554 C1555 1.400 . S
C1555 C1554 1.400 . S
C1555 C1556 1.398 . S
C1555 C1561 1.491 . S
C1556 H1547 0.950 . S
C1556 C1555 1.398 . S
C1556 C1557 1.391 . S
C1557 H1545 0.950 . S
C1557 C1553 1.393 . S
C1557 C1556 1.391 . S
C1558 H1548 0.950 . S
C1558 C1559 1.386 . S
C1558 C1560 1.391 . S
C1559 C1558 1.386 . S
C1559 C1563 1.393 . S
C1560 H1549 0.950 . S
C1560 C1558 1.391 . S
C1560 C1561 1.400 . S
C1561 C1555 1.491 . S
C1561 C1560 1.400 . S
C1561 C1562 1.398 . S
C1562 H1550 0.950 . S
C1562 C1561 1.398 . S
C1562 C1563 1.391 . S
C1563 H1551 0.950 . S
C1563 C1559 1.393 . S
C1563 C1562 1.391 . S
H1564 C1572 0.950 . S
H1565 C1577 0.950 . S
H1566 C1574 0.950 . S
H1567 C1576 0.950 . S
H1568 C1578 0.950 . S
H1569 C1580 0.950 . S
H1570 C1582 0.950 1_565 S
H1571 C1583 0.950 1_565 S
C1572 H1564 0.950 . S
C1572 C1573 1.386 1_565 S
C1572 C1574 1.391 . S
C1573 C1572 1.386 1_545 S
C1573 C1577 1.393 . S
C1574 H1566 0.950 . S
C1574 C1572 1.391 . S
C1574 C1575 1.400 1_565 S
C1575 C1574 1.400 1_545 S
C1575 C1576 1.398 . S
C1575 C1581 1.491 . S
C1576 H1567 0.950 . S
C1576 C1575 1.398 . S
C1576 C1577 1.391 . S
C1577 H1565 0.950 . S
C1577 C1573 1.393 . S
C1577 C1576 1.391 . S
C1578 H1568 0.950 . S
C1578 C1579 1.386 . S
C1578 C1580 1.391 . S
C1579 C1578 1.386 . S
C1579 C1583 1.393 . S
C1580 H1569 0.950 . S
C1580 C1578 1.391 . S
C1580 C1581 1.400 . S
C1581 C1575 1.491 . S
C1581 C1580 1.400 . S
C1581 C1582 1.398 . S
C1582 H1570 0.950 1_545 S
C1582 C1581 1.398 . S
C1582 C1583 1.391 . S
C1583 H1571 0.950 1_545 S
C1583 C1579 1.393 . S
C1583 C1582 1.391 . S
C473 C224 2.184 . S
C479 C5 2.241 . S
C493 C369 2.516 . S
C499 C39 2.621 . S
C513 C63 2.586 . S
C519 C166 2.568 . S
C533 C427 2.321 . S
C539 C92 2.350 . S
C553 C108 2.416 . S
C559 C121 2.424 . S
C573 C150 2.547 . S
C579 C253 2.459 . S
C593 C179 2.491 . S
C599 C37 2.277 . S
C613 C311 2.470 . S
C619 C208 2.473 . S
C633 C456 2.181 . S
C639 C237 2.243 . S
C653 C271 2.616 . S
C659 C137 2.522 . S
C673 C398 2.556 . S
C679 C295 2.580 . S
C693 C195 2.342 . S
C699 C324 2.339 . S
C713 C340 2.404 . S
C719 C353 2.440 . S
C733 C382 2.538 . S
C739 C21 2.459 . S
C753 C411 2.508 . S
C759 C269 2.299 . S
C773 C79 2.468 . S
C779 C440 2.482 . S
C793 C282 1.137 . S
C799 C3 1.123 . S
C813 C44 0.800 . S
C819 C298 0.847 . S
C833 C61 0.751 . S
C839 C327 0.721 . S
C853 C90 0.999 . S
C859 C240 1.030 . S
C873 C385 0.588 . S
C879 C119 0.550 . S
C893 C148 1.396 . S
C899 C414 1.434 . S
C913 C443 0.971 . S
C919 C177 0.977 . S
C933 C206 1.246 . S
C939 C356 1.341 . S
C953 C50 1.165 . S
C959 C235 1.151 . S
C973 C66 0.816 . S
C979 C276 0.833 . S
C993 C95 0.767 . S
C999 C293 0.733 . S
C1013 C8 1.039 . S
C1019 C322 0.984 . S
C1033 C351 0.543 . S
C1039 C153 0.532 . S
C1053 C182 1.442 . S
C1059 C380 1.387 . S
C1073 C211 1.004 . S
C1079 C409 0.955 . S
C1093 C438 1.270 . S
C1099 C124 1.317 . S
C1113 C129 1.965 . S
C1119 C13 1.968 . S
C1133 C42 1.801 . S
C1139 C390 1.872 . S
C1153 C187 1.695 . S
C1159 C71 1.696 . S
C1173 C448 2.091 . S
C1179 C100 2.089 . S
C1193 C274 1.791 . S
C1199 C158 1.879 . S
C1213 C216 2.080 . S
C1219 C332 2.078 . S
C1233 C245 1.976 . S
C1239 C361 1.973 . S
C1253 C303 1.707 . S
C1259 C419 1.705 . S
C1273 C218 1.451 . S
C1279 C10 1.396 1_565 S
C1293 C363 1.620 1_655 S
C1299 C34 1.503 . S
C1313 C68 1.072 1_545 S
C1319 C160 1.090 . S
C1333 C97 1.651 . S
C1339 C421 1.694 . S
C1353 C126 1.315 . S
C1359 C102 1.330 . S
C1373 C155 1.599 . S
C1379 C247 1.690 1_455 S
C1393 C184 1.872 . S
C1399 C32 1.940 . S
C1413 C305 1.814 . S
C1419 C213 1.758 . S
C1433 C242 1.414 . S
C1439 C450 1.433 . S
C1453 C131 1.622 1_545 S
C1459 C266 1.504 . S
C1473 C392 1.095 . S
C1479 C300 1.096 . S
C1493 C329 1.673 . S
C1499 C189 1.680 1_465 S
C1513 C334 1.341 . S
C1519 C358 1.296 . S
C1533 C15 1.688 . S
C1539 C387 1.628 . S
C1553 C416 1.885 . S
C1559 C264 1.935 . S
C1573 C73 1.811 1_645 S
C1579 C445 1.766 . S
