# Generated by pormake.
# Topology smn, (6)-cn, num edge types: 1
# Building blocks:
#     Node 0, Type 0, BuildingBlock: VOLQOD_clean_sbu_1, # of connection points: 6
#     Node 1, Type 0, BuildingBlock: VOLQOD_clean_sbu_1, # of connection points: 6
#     Node 2, Type 0, BuildingBlock: VOLQOD_clean_sbu_1, # of connection points: 6
#     Node 3, Type 0, BuildingBlock: VOLQOD_clean_sbu_1, # of connection points: 6
#     Node 4, Type 0, BuildingBlock: VOLQOD_clean_sbu_1, # of connection points: 6
#     Node 5, Type 0, BuildingBlock: VOLQOD_clean_sbu_1, # of connection points: 6
#     Node 6, Type 0, BuildingBlock: VOLQOD_clean_sbu_1, # of connection points: 6
#     Node 7, Type 0, BuildingBlock: VOLQOD_clean_sbu_1, # of connection points: 6
#     Node 8, Type 0, BuildingBlock: VOLQOD_clean_sbu_1, # of connection points: 6
#     Node 9, Type 0, BuildingBlock: VOLQOD_clean_sbu_1, # of connection points: 6
#     Node 10, Type 0, BuildingBlock: VOLQOD_clean_sbu_1, # of connection points: 6
#     Node 11, Type 0, BuildingBlock: VOLQOD_clean_sbu_1, # of connection points: 6
#     Node 12, Type 0, BuildingBlock: VOLQOD_clean_sbu_1, # of connection points: 6
#     Node 13, Type 0, BuildingBlock: VOLQOD_clean_sbu_1, # of connection points: 6
#     Node 14, Type 0, BuildingBlock: VOLQOD_clean_sbu_1, # of connection points: 6
#     Node 15, Type 0, BuildingBlock: VOLQOD_clean_sbu_1, # of connection points: 6
#     Node 16, Type 0, BuildingBlock: VOLQOD_clean_sbu_1, # of connection points: 6
#     Node 17, Type 0, BuildingBlock: VOLQOD_clean_sbu_1, # of connection points: 6
#     Edge 18, Type (0, 0), BuildingBlock: AJUNOK_clean_linker_0, # of connection points: 2
#     Edge 19, Type (0, 0), BuildingBlock: AJUNOK_clean_linker_0, # of connection points: 2
#     Edge 20, Type (0, 0), BuildingBlock: AJUNOK_clean_linker_0, # of connection points: 2
#     Edge 21, Type (0, 0), BuildingBlock: AJUNOK_clean_linker_0, # of connection points: 2
#     Edge 22, Type (0, 0), BuildingBlock: AJUNOK_clean_linker_0, # of connection points: 2
#     Edge 23, Type (0, 0), BuildingBlock: AJUNOK_clean_linker_0, # of connection points: 2
#     Edge 24, Type (0, 0), BuildingBlock: AJUNOK_clean_linker_0, # of connection points: 2
#     Edge 25, Type (0, 0), BuildingBlock: AJUNOK_clean_linker_0, # of connection points: 2
#     Edge 26, Type (0, 0), BuildingBlock: AJUNOK_clean_linker_0, # of connection points: 2
#     Edge 27, Type (0, 0), BuildingBlock: AJUNOK_clean_linker_0, # of connection points: 2
#     Edge 28, Type (0, 0), BuildingBlock: AJUNOK_clean_linker_0, # of connection points: 2
#     Edge 29, Type (0, 0), BuildingBlock: AJUNOK_clean_linker_0, # of connection points: 2
#     Edge 30, Type (0, 0), BuildingBlock: AJUNOK_clean_linker_0, # of connection points: 2
#     Edge 31, Type (0, 0), BuildingBlock: AJUNOK_clean_linker_0, # of connection points: 2
#     Edge 32, Type (0, 0), BuildingBlock: AJUNOK_clean_linker_0, # of connection points: 2
#     Edge 33, Type (0, 0), BuildingBlock: AJUNOK_clean_linker_0, # of connection points: 2
#     Edge 34, Type (0, 0), BuildingBlock: AJUNOK_clean_linker_0, # of connection points: 2
#     Edge 35, Type (0, 0), BuildingBlock: AJUNOK_clean_linker_0, # of connection points: 2
#     Edge 36, Type (0, 0), BuildingBlock: AJUNOK_clean_linker_0, # of connection points: 2
#     Edge 37, Type (0, 0), BuildingBlock: AJUNOK_clean_linker_0, # of connection points: 2
#     Edge 38, Type (0, 0), BuildingBlock: AJUNOK_clean_linker_0, # of connection points: 2
#     Edge 39, Type (0, 0), BuildingBlock: AJUNOK_clean_linker_0, # of connection points: 2
#     Edge 40, Type (0, 0), BuildingBlock: AJUNOK_clean_linker_0, # of connection points: 2
#     Edge 41, Type (0, 0), BuildingBlock: AJUNOK_clean_linker_0, # of connection points: 2
#     Edge 42, Type (0, 0), BuildingBlock: AJUNOK_clean_linker_0, # of connection points: 2
#     Edge 43, Type (0, 0), BuildingBlock: AJUNOK_clean_linker_0, # of connection points: 2
#     Edge 44, Type (0, 0), BuildingBlock: AJUNOK_clean_linker_0, # of connection points: 2
#     Edge 45, Type (0, 0), BuildingBlock: AJUNOK_clean_linker_0, # of connection points: 2
#     Edge 46, Type (0, 0), BuildingBlock: AJUNOK_clean_linker_0, # of connection points: 2
#     Edge 47, Type (0, 0), BuildingBlock: AJUNOK_clean_linker_0, # of connection points: 2
#     Edge 48, Type (0, 0), BuildingBlock: AJUNOK_clean_linker_0, # of connection points: 2
#     Edge 49, Type (0, 0), BuildingBlock: AJUNOK_clean_linker_0, # of connection points: 2
#     Edge 50, Type (0, 0), BuildingBlock: AJUNOK_clean_linker_0, # of connection points: 2
#     Edge 51, Type (0, 0), BuildingBlock: AJUNOK_clean_linker_0, # of connection points: 2
#     Edge 52, Type (0, 0), BuildingBlock: AJUNOK_clean_linker_0, # of connection points: 2
#     Edge 53, Type (0, 0), BuildingBlock: AJUNOK_clean_linker_0, # of connection points: 2
#     Edge 54, Type (0, 0), BuildingBlock: AJUNOK_clean_linker_0, # of connection points: 2
#     Edge 55, Type (0, 0), BuildingBlock: AJUNOK_clean_linker_0, # of connection points: 2
#     Edge 56, Type (0, 0), BuildingBlock: AJUNOK_clean_linker_0, # of connection points: 2
#     Edge 57, Type (0, 0), BuildingBlock: AJUNOK_clean_linker_0, # of connection points: 2
#     Edge 58, Type (0, 0), BuildingBlock: AJUNOK_clean_linker_0, # of connection points: 2
#     Edge 59, Type (0, 0), BuildingBlock: AJUNOK_clean_linker_0, # of connection points: 2
#     Edge 60, Type (0, 0), BuildingBlock: AJUNOK_clean_linker_0, # of connection points: 2
#     Edge 61, Type (0, 0), BuildingBlock: AJUNOK_clean_linker_0, # of connection points: 2
#     Edge 62, Type (0, 0), BuildingBlock: AJUNOK_clean_linker_0, # of connection points: 2
#     Edge 63, Type (0, 0), BuildingBlock: AJUNOK_clean_linker_0, # of connection points: 2
#     Edge 64, Type (0, 0), BuildingBlock: AJUNOK_clean_linker_0, # of connection points: 2
#     Edge 65, Type (0, 0), BuildingBlock: AJUNOK_clean_linker_0, # of connection points: 2
#     Edge 66, Type (0, 0), BuildingBlock: AJUNOK_clean_linker_0, # of connection points: 2
#     Edge 67, Type (0, 0), BuildingBlock: AJUNOK_clean_linker_0, # of connection points: 2
#     Edge 68, Type (0, 0), BuildingBlock: AJUNOK_clean_linker_0, # of connection points: 2
#     Edge 69, Type (0, 0), BuildingBlock: AJUNOK_clean_linker_0, # of connection points: 2
#     Edge 70, Type (0, 0), BuildingBlock: AJUNOK_clean_linker_0, # of connection points: 2
#     Edge 71, Type (0, 0), BuildingBlock: AJUNOK_clean_linker_0, # of connection points: 2
# Relax obj value: 0.237
# Max RMSD: 0.243
# Mean RMSD: 0.242
data_MOF--net-smn--node1-VOLQOD_clean_sbu_1--edge1-AJUNOK_clean_linker_0
_symmetry_space_group_name_H-M    P1
_symmetry_Int_Tables_number       1
_symmetry_cell_setting            triclinic
loop_
_symmetry_equiv_pos_as_xyz
'x, y, z'
_cell_length_a     48.672405
_cell_length_b     48.622943
_cell_length_c     16.234076
_cell_angle_alpha  90.100037
_cell_angle_beta   89.922362
_cell_angle_gamma 119.92446
loop_
_atom_site_label
_atom_site_type_symbol
_atom_site_fract_x
_atom_site_fract_y
_atom_site_fract_z
_atom_type_partial_charge
O0 O 0.01592 0.262 0.64001 0.0
Zn1 Zn 0.98184 0.22119 0.6889 0.0
O2 O 0.00277 0.20553 0.7577 0.0
Zn3 Zn -0.0008 0.16573 0.72632 0.0
Zn4 Zn 0.04536 0.23658 0.77983 0.0
Zn5 Zn 0.98201 0.19577 0.85805 0.0
O6 O 0.97036 0.12975 0.80831 0.0
O7 O 0.9444 0.15402 0.84878 0.0
O8 O 0.95951 0.1888 0.59588 0.0
O9 O 0.97555 0.15399 0.62133 0.0
O10 O 0.0432 0.17271 0.69499 0.0
O11 O 0.07201 0.22488 0.71279 0.0
O12 O 0.05635 0.23359 0.89957 0.0
O13 O 0.95401 0.23325 0.76033 0.0
O14 O 0.01024 0.19392 0.94371 0.0
O15 O 0.96718 0.22545 0.88576 0.0
C16 C 0.04262 0.28347 0.66773 0.0
C17 C 0.94585 0.12892 0.84024 0.0
C18 C 0.06917 0.19904 0.68589 0.0
C19 C 0.96091 0.16395 0.57652 0.0
C20 C 0.03988 0.21225 0.95282 0.0
C21 C 0.95345 0.23576 0.83889 0.0
O22 O 0.05488 0.27906 0.73258 0.0
O23 O 0.74831 0.77037 0.63601 0.0
Zn24 Zn 0.7905 0.78017 0.68378 0.0
O25 O 0.80459 0.81718 0.75097 0.0
Zn26 Zn 0.8469 0.8508 0.72783 0.0
Zn27 Zn 0.77654 0.83327 0.75354 0.0
Zn28 Zn 0.80421 0.80405 0.85914 0.0
O29 O 0.8789 0.84833 0.80874 0.0
O30 O 0.84392 0.80441 0.87349 0.0
O31 O 0.82289 0.79045 0.58921 0.0
O32 O 0.85827 0.84032 0.62063 0.0
O33 O 0.84655 0.89236 0.70048 0.0
O34 O 0.79444 0.87019 0.68192 0.0
O35 O 0.77846 0.85313 0.86463 0.0
O36 O 0.78092 0.74195 0.75841 0.0
O37 O 0.80479 0.83559 0.9389 0.0
O38 O 0.77046 0.75934 0.87506 0.0
C39 C 0.72861 0.77983 0.65089 0.0
C40 C 0.87234 0.82436 0.8548 0.0
C41 C 0.82234 0.8934 0.67301 0.0
C42 C 0.84806 0.81672 0.57224 0.0
C43 C 0.79358 0.85402 0.9297 0.0
C44 C 0.76899 0.73695 0.83103 0.0
O45 O 0.7346 0.80224 0.70175 0.0
O46 O 0.24138 -0.00049 0.62472 0.0
Zn47 Zn 0.23382 0.03271 0.6794 0.0
O48 O 0.19666 0.01098 0.74716 0.0
Zn49 Zn 0.16305 0.01975 0.72327 0.0
Zn50 Zn 0.18124 0.967 0.74989 0.0
Zn51 Zn 0.20799 0.02314 0.85639 0.0
O52 O 0.16421 0.0537 0.80536 0.0
O53 O 0.20752 0.06225 0.87204 0.0
O54 O 0.22482 0.05726 0.58866 0.0
O55 O 0.17463 0.04247 0.61758 0.0
O56 O 0.12201 0.97787 0.69319 0.0
O57 O 0.14426 0.9477 0.67808 0.0
O58 O 0.16191 0.94836 0.86009 0.0
O59 O 0.27246 0.05858 0.75628 0.0
O60 O 0.17573 0.9917 0.93382 0.0
O61 O 0.25219 0.03432 0.87609 0.0
C62 C 0.23295 0.97089 0.64358 0.0
C63 C 0.18766 0.0708 0.85317 0.0
C64 C 0.12113 0.95245 0.6672 0.0
C65 C 0.19871 0.05644 0.57106 0.0
C66 C 0.15896 0.96189 0.92414 0.0
C67 C 0.27577 0.05333 0.83214 0.0
O68 O 0.21257 0.95616 0.70025 0.0
O69 O 0.04947 0.79126 0.25581 0.0
Zn70 Zn 0.01974 0.80269 0.32032 0.0
O71 O -0.00186 0.81521 0.24383 0.0
Zn72 Zn 0.00248 0.85627 0.26216 0.0
Zn73 Zn 0.01551 0.81753 0.1403 0.0
Zn74 Zn 0.95514 0.78395 0.2308 0.0
O75 O 0.95871 0.85084 0.29159 0.0
O76 O 0.93058 0.79817 0.29603 0.0
O77 O 0.04121 0.83817 0.40741 0.0
O78 O 0.02685 0.87275 0.36568 0.0
O79 O 0.03113 0.88783 0.17114 0.0
O80 O 0.05281 0.85921 0.13024 0.0
O81 O 0.98574 0.81537 0.05284 0.0
O82 O 0.98658 0.76172 0.37407 0.0
O83 O 0.94021 0.78233 0.11352 0.0
O84 O 0.94671 0.74333 0.2842 0.0
C85 C 0.04686 0.78191 0.18087 0.0
C86 C 0.93353 0.82509 0.31186 0.0
C87 C 0.0531 0.88537 0.13396 0.0
C88 C 0.04076 0.86414 0.41708 0.0
C89 C 0.95567 0.79937 0.052 0.0
C90 C 0.9597 0.73967 0.3484 0.0
O91 O 0.02973 0.7861 0.12904 0.0
O92 O 0.22491 0.28614 0.23978 0.0
Zn93 Zn 0.2136 0.2471 0.31246 0.0
O94 O 0.19936 0.21021 0.24405 0.0
Zn95 Zn 0.15884 0.17472 0.27486 0.0
Zn96 Zn 0.1937 0.22149 0.13845 0.0
Zn97 Zn 0.23048 0.19791 0.23039 0.0
O98 O 0.16408 0.13623 0.30404 0.0
O99 O 0.21664 0.1597 0.29798 0.0
O100 O 0.18081 0.23736 0.40508 0.0
O101 O 0.14743 0.18617 0.3815 0.0
O102 O 0.12292 0.17072 0.19694 0.0
O103 O 0.15211 0.21731 0.13565 0.0
O104 O 0.19418 0.19164 0.05531 0.0
O105 O 0.25493 0.25595 0.36325 0.0
O106 O 0.23035 0.18281 0.11293 0.0
O107 O 0.27197 0.23031 0.28247 0.0
C108 C 0.23104 0.29002 0.16245 0.0
C109 C 0.19006 0.13643 0.3192 0.0
C110 C 0.1253 0.19419 0.15516 0.0
C111 C 0.15656 0.21089 0.42547 0.0
C112 C 0.21138 0.1788 0.05374 0.0
C113 C 0.27626 0.24939 0.34185 0.0
O114 O 0.22391 0.2665 0.11517 0.0
O115 O 0.73588 0.96713 0.25392 0.0
Zn116 Zn 0.77689 0.99556 0.32063 0.0
O117 O 0.81148 0.01601 0.24574 0.0
Zn118 Zn 0.84777 0.01133 0.26603 0.0
Zn119 Zn 0.79777 0.99712 0.14339 0.0
Zn120 Zn 0.82388 0.05899 0.22981 0.0
O121 O 0.886 0.05484 0.2946 0.0
O122 O 0.8616 0.08323 0.29828 0.0
O123 O 0.78973 0.97354 0.4096 0.0
O124 O 0.83877 0.98736 0.37004 0.0
O125 O 0.85157 0.98238 0.17719 0.0
O126 O 0.8008 0.95877 0.14219 0.0
O127 O 0.82685 0.02551 0.05601 0.0
O128 O 0.77015 0.02983 0.37145 0.0
O129 O 0.84116 0.0722 0.11388 0.0
O130 O 0.79086 0.06857 0.27779 0.0
C131 C 0.73066 0.96819 0.17683 0.0
C132 C 0.88551 0.08018 0.31376 0.0
C133 C 0.8269 0.95904 0.1449 0.0
C134 C 0.81596 0.97373 0.42069 0.0
C135 C 0.84264 0.05562 0.0547 0.0
C136 C 0.77449 0.05622 0.34315 0.0
O137 O 0.75316 0.98348 0.12619 0.0
O138 O 0.68457 0.59572 0.98139 0.0
Zn139 Zn 0.65172 0.55368 0.02809 0.0
O140 O 0.67338 0.54025 0.10117 0.0
Zn141 Zn 0.66997 0.49972 0.07868 0.0
Zn142 Zn 0.71605 0.57159 0.12222 0.0
Zn143 Zn 0.6519 0.53207 0.20021 0.0
O144 O 0.64141 0.46577 0.16518 0.0
O145 O 0.61436 0.49007 0.19333 0.0
O146 O 0.63165 0.51986 0.93684 0.0
O147 O 0.64667 0.48518 0.97342 0.0
O148 O 0.71392 0.50598 0.05201 0.0
O149 O 0.74264 0.55853 0.05987 0.0
O150 O 0.72649 0.56982 0.24374 0.0
O151 O 0.62109 0.56358 0.09342 0.0
O152 O 0.67969 0.53149 0.28872 0.0
O153 O 0.63625 0.56155 0.2214 0.0
C154 C 0.71165 0.61744 0.0066 0.0
C155 C 0.61643 0.46517 0.19262 0.0
C156 C 0.73977 0.53201 0.03902 0.0
C157 C 0.63281 0.49442 0.92362 0.0
C158 C 0.70939 0.54929 0.29813 0.0
C159 C 0.62071 0.56847 0.1709 0.0
O160 O 0.72559 0.61331 0.06832 0.0
O161 O 0.41952 0.11198 0.97474 0.0
Zn162 Zn 0.46116 0.12085 0.02623 0.0
O163 O 0.47413 0.15594 0.10064 0.0
Zn164 Zn 0.51381 0.19361 0.0764 0.0
Zn165 Zn 0.44178 0.16616 0.11811 0.0
Zn166 Zn 0.4814 0.14353 0.20277 0.0
O167 O 0.54851 0.201 0.16209 0.0
O168 O 0.52446 0.15098 0.20447 0.0
O169 O 0.49613 0.13435 0.93746 0.0
O170 O 0.5291 0.18461 0.97267 0.0
O171 O 0.50595 0.23017 0.04764 0.0
O172 O 0.45333 0.20487 0.05315 0.0
O173 O 0.44158 0.17895 0.2375 0.0
O174 O 0.45058 0.08026 0.09305 0.0
O175 O 0.47841 0.1702 0.29128 0.0
O176 O 0.45379 0.09802 0.22125 0.0
C177 C 0.39702 0.11557 0.00341 0.0
C178 C 0.54923 0.17782 0.19731 0.0
C179 C 0.47952 0.22901 0.03314 0.0
C180 C 0.52116 0.16124 0.9244 0.0
C181 C 0.46037 0.18203 0.29628 0.0
C182 C 0.44647 0.07538 0.17087 0.0
O183 O 0.40082 0.13234 0.06774 0.0
O184 O 0.90358 0.32945 0.97454 0.0
Zn185 Zn 0.89765 0.3647 0.02161 0.0
O186 O 0.86226 0.34575 0.0956 0.0
Zn187 Zn 0.82672 0.3511 0.06848 0.0
Zn188 Zn 0.84993 0.30307 0.1193 0.0
Zn189 Zn 0.87557 0.36621 0.19596 0.0
O190 O 0.82398 0.38415 0.14662 0.0
O191 O 0.87342 0.4047 0.19071 0.0
O192 O 0.88688 0.38653 0.92816 0.0
O193 O 0.83707 0.37252 0.96012 0.0
O194 O 0.78795 0.30708 0.04418 0.0
O195 O 0.81055 0.27725 0.05692 0.0
O196 O 0.8377 0.29273 0.23994 0.0
O197 O 0.93847 0.39293 0.08856 0.0
O198 O 0.84696 0.33965 0.2856 0.0
O199 O 0.91994 0.37939 0.21638 0.0
C200 C 0.89806 0.30297 0.00507 0.0
C201 C 0.84895 0.40703 0.17942 0.0
C202 C 0.78745 0.28062 0.03418 0.0
C203 C 0.86074 0.38582 0.9118 0.0
C204 C 0.83478 0.30993 0.29502 0.0
C205 C 0.94299 0.39304 0.16642 0.0
O206 O 0.88123 0.29176 0.07012 0.0
O207 O 0.71631 0.12564 0.58353 0.0
Zn208 Zn 0.6895 0.13844 0.65672 0.0
O209 O 0.66981 0.15565 0.58775 0.0
Zn210 Zn 0.67721 0.19702 0.61933 0.0
Zn211 Zn 0.68539 0.15941 0.48041 0.0
Zn212 Zn 0.62592 0.12777 0.57788 0.0
O213 O 0.63502 0.19518 0.64931 0.0
O214 O 0.60499 0.14264 0.65412 0.0
O215 O 0.71256 0.16983 0.75278 0.0
O216 O 0.69877 0.20617 0.72653 0.0
O217 O 0.71115 0.23208 0.54354 0.0
O218 O 0.72387 0.20019 0.47602 0.0
O219 O 0.65564 0.1611 0.39803 0.0
O220 O 0.65453 0.09731 0.70347 0.0
O221 O 0.61067 0.13332 0.46717 0.0
O222 O 0.61401 0.08403 0.61792 0.0
C223 C 0.71431 0.11974 0.50595 0.0
C224 C 0.60951 0.17007 0.67125 0.0
C225 C 0.73035 0.22775 0.49851 0.0
C226 C 0.71201 0.19511 0.77257 0.0
C227 C 0.62585 0.14947 0.40426 0.0
C228 C 0.62686 0.07734 0.67739 0.0
O229 O 0.69874 0.12776 0.45821 0.0
O230 O 0.89375 0.61501 0.59856 0.0
Zn231 Zn 0.88136 0.57438 0.66551 0.0
O232 O 0.86389 0.53855 0.59286 0.0
Zn233 Zn 0.82263 0.50439 0.62248 0.0
Zn234 Zn 0.85713 0.55205 0.49247 0.0
Zn235 Zn 0.89291 0.52442 0.56822 0.0
O236 O 0.8258 0.46438 0.64467 0.0
O237 O 0.87798 0.48492 0.6316 0.0
O238 O 0.85039 0.56509 0.762 0.0
O239 O 0.81335 0.51547 0.73258 0.0
O240 O 0.78735 0.50329 0.5463 0.0
O241 O 0.81757 0.5521 0.49905 0.0
O242 O 0.85294 0.52198 0.40351 0.0
O243 O 0.92243 0.57981 0.70881 0.0
O244 O 0.88963 0.51106 0.44757 0.0
O245 O 0.93631 0.55532 0.61517 0.0
C246 C 0.89839 0.61928 0.5208 0.0
C247 C 0.85101 0.46255 0.65414 0.0
C248 C 0.79039 0.52847 0.51222 0.0
C249 C 0.82504 0.5393 0.78068 0.0
C250 C 0.8694 0.5086 0.39364 0.0
C251 C 0.9427 0.57326 0.67842 0.0
O252 O 0.88941 0.59617 0.47097 0.0
O253 O 0.39942 0.30609 0.59561 0.0
Zn254 Zn 0.4392 0.33268 0.66639 0.0
O255 O 0.47548 0.35083 0.59517 0.0
Zn256 Zn 0.50793 0.34088 0.62346 0.0
Zn257 Zn 0.46231 0.3359 0.48798 0.0
Zn258 Zn 0.49305 0.395 0.58533 0.0
O259 O 0.55001 0.38206 0.64896 0.0
O260 O 0.52984 0.41418 0.65737 0.0
O261 O 0.44676 0.30905 0.76137 0.0
O262 O 0.49593 0.32011 0.73223 0.0
O263 O 0.50571 0.30556 0.54586 0.0
O264 O 0.4619 0.29591 0.47954 0.0
O265 O 0.49393 0.3648 0.40471 0.0
O266 O 0.43447 0.36862 0.71386 0.0
O267 O 0.51298 0.4101 0.4736 0.0
O268 O 0.46358 0.40925 0.63036 0.0
C269 C 0.39505 0.30941 0.51927 0.0
C270 C 0.55212 0.40841 0.67114 0.0
C271 C 0.48187 0.28767 0.50008 0.0
C272 C 0.47203 0.30843 0.77986 0.0
C273 C 0.51301 0.39445 0.41055 0.0
C274 C 0.44375 0.39688 0.68946 0.0
O275 O 0.41797 0.32538 0.47011 0.0
O276 O 0.3583 0.93019 0.29854 0.0
Zn277 Zn 0.32317 0.88941 0.34694 0.0
O278 O 0.34205 0.8743 0.42432 0.0
Zn279 Zn 0.33825 0.83371 0.40225 0.0
Zn280 Zn 0.38414 0.90522 0.44994 0.0
Zn281 Zn 0.31939 0.86575 0.52149 0.0
O282 O 0.31 0.80041 0.49023 0.0
O283 O 0.28178 0.82394 0.51133 0.0
O284 O 0.30193 0.85508 0.25728 0.0
O285 O 0.31472 0.81898 0.29683 0.0
O286 O 0.38221 0.84001 0.37711 0.0
O287 O 0.41139 0.8924 0.39016 0.0
O288 O 0.39292 0.90352 0.57203 0.0
O289 O 0.2942 0.90244 0.4092 0.0
O290 O 0.3459 0.86487 0.61419 0.0
O291 O 0.30432 0.8958 0.53914 0.0
C292 C 0.38399 0.9519 0.3307 0.0
C293 C 0.28454 0.79947 0.51489 0.0
C294 C 0.40844 0.86601 0.36768 0.0
C295 C 0.30173 0.82885 0.24589 0.0
C296 C 0.37539 0.88321 0.62619 0.0
C297 C 0.29214 0.906 0.48682 0.0
O298 O 0.39455 0.94725 0.39836 0.0
O299 O 0.08626 0.44246 0.30337 0.0
Zn300 Zn 0.12681 0.44863 0.35172 0.0
O301 O 0.14326 0.48524 0.42174 0.0
Zn302 Zn 0.18319 0.5203 0.38678 0.0
Zn303 Zn 0.11272 0.49783 0.44269 0.0
Zn304 Zn 0.15151 0.47375 0.52408 0.0
O305 O 0.22039 0.52453 0.45899 0.0
O306 O 0.19304 0.47746 0.51924 0.0
O307 O 0.15761 0.45737 0.25563 0.0
O308 O 0.19152 0.50873 0.27617 0.0
O309 O 0.17841 0.55921 0.36471 0.0
O310 O 0.12619 0.53704 0.37885 0.0
O311 O 0.11434 0.51108 0.56245 0.0
O312 O 0.11411 0.40872 0.4221 0.0
O313 O 0.15252 0.50324 0.61083 0.0
O314 O 0.12118 0.42906 0.54841 0.0
C315 C 0.06539 0.44887 0.32946 0.0
C316 C 0.21926 0.50119 0.4985 0.0
C317 C 0.15266 0.56001 0.35571 0.0
C318 C 0.18097 0.4839 0.23195 0.0
C319 C 0.13457 0.51511 0.61817 0.0
C320 C 0.11065 0.40525 0.50038 0.0
O321 O 0.07025 0.46632 0.39305 0.0
O322 O 0.56784 0.66023 0.29549 0.0
Zn323 Zn 0.5622 0.69593 0.34138 0.0
O324 O 0.52672 0.67739 0.41455 0.0
Zn325 Zn 0.4945 0.688 0.39241 0.0
Zn326 Zn 0.5089 0.6333 0.42429 0.0
Zn327 Zn 0.5417 0.69208 0.5202 0.0
O328 O 0.49877 0.72342 0.47221 0.0
O329 O 0.54399 0.73298 0.53035 0.0
O330 O 0.55262 0.71834 0.24681 0.0
O331 O 0.50463 0.70872 0.28375 0.0
O332 O 0.45204 0.64721 0.37014 0.0
O333 O 0.47157 0.61467 0.35409 0.0
O334 O 0.48961 0.61863 0.53681 0.0
O335 O 0.6024 0.72383 0.41023 0.0
O336 O 0.5106 0.66414 0.60529 0.0
O337 O 0.58541 0.69992 0.53194 0.0
C338 C 0.55889 0.63209 0.32051 0.0
C339 C 0.52388 0.74148 0.51369 0.0
C340 C 0.44937 0.62095 0.34499 0.0
C341 C 0.52745 0.71977 0.23269 0.0
C342 C 0.4907 0.63469 0.60012 0.0
C343 C 0.6078 0.71818 0.48381 0.0
O344 O 0.53859 0.61934 0.37855 0.0
O345 O 0.38427 0.46634 0.92496 0.0
Zn346 Zn 0.3537 0.47738 0.98702 0.0
O347 O 0.33351 0.49093 0.9105 0.0
Zn348 Zn 0.33478 0.53041 0.93173 0.0
Zn349 Zn 0.3577 0.50205 0.81643 0.0
Zn350 Zn 0.29237 0.45878 0.88224 0.0
O351 O 0.28988 0.52158 0.95623 0.0
O352 O 0.26333 0.46905 0.94332 0.0
O353 O 0.37314 0.51171 0.07691 0.0
O354 O 0.35752 0.54569 0.03746 0.0
O355 O 0.36265 0.56465 0.84484 0.0
O356 O 0.39405 0.54431 0.83444 0.0
O357 O 0.33144 0.50325 0.72429 0.0
O358 O 0.31951 0.4361 0.03394 0.0
O359 O 0.28463 0.46227 0.76 0.0
O360 O 0.28404 0.41687 0.93189 0.0
C361 C 0.38727 0.46403 0.84718 0.0
C362 C 0.26468 0.4947 0.96638 0.0
C363 C 0.38961 0.56764 0.82649 0.0
C364 C 0.37155 0.53701 0.08833 0.0
C365 C 0.30228 0.48426 0.70947 0.0
C366 C 0.29466 0.41344 1.00106 0.0
O367 O 0.37453 0.47379 0.79543 0.0
O368 O 0.55879 0.95046 0.91586 0.0
Zn369 Zn 0.5471 0.91072 0.98576 0.0
O370 O 0.53113 0.87416 0.91474 0.0
Zn371 Zn 0.49005 0.83958 0.94691 0.0
Zn372 Zn 0.5255 0.88607 0.80968 0.0
Zn373 Zn 0.5616 0.86098 0.89868 0.0
O374 O 0.49318 0.79941 0.96774 0.0
O375 O 0.54555 0.82075 0.95899 0.0
O376 O 0.51573 0.9016 0.08039 0.0
O377 O 0.48146 0.85056 0.0578 0.0
O378 O 0.45356 0.83829 0.87585 0.0
O379 O 0.48419 0.88241 0.8061 0.0
O380 O 0.52675 0.85759 0.72376 0.0
O381 O 0.58777 0.91772 0.03648 0.0
O382 O 0.56362 0.84938 0.77943 0.0
O383 O 0.60314 0.89127 0.95391 0.0
C384 C 0.5632 0.95437 0.83793 0.0
C385 C 0.51848 0.79782 0.97845 0.0
C386 C 0.45708 0.8615 0.83094 0.0
C387 C 0.49184 0.87522 0.10262 0.0
C388 C 0.54514 0.84617 0.71985 0.0
C389 C 0.6082 0.91004 0.01451 0.0
O390 O 0.55533 0.93112 0.78923 0.0
O391 O 0.07042 0.63218 0.91202 0.0
Zn392 Zn 0.10895 0.66014 0.98604 0.0
O393 O 0.14624 0.68169 0.91869 0.0
Zn394 Zn 0.17993 0.67317 0.94636 0.0
Zn395 Zn 0.13436 0.66729 0.81054 0.0
Zn396 Zn 0.16211 0.72601 0.91325 0.0
O397 O 0.22103 0.71492 0.97424 0.0
O398 O 0.19978 0.74617 0.98283 0.0
O399 O 0.11782 0.63711 0.08034 0.0
O400 O 0.16795 0.65125 0.05321 0.0
O401 O 0.18007 0.6391 0.8682 0.0
O402 O 0.1366 0.62882 0.79949 0.0
O403 O 0.16516 0.69816 0.73032 0.0
O404 O 0.10032 0.69335 0.03442 0.0
O405 O 0.18108 0.74277 0.80074 0.0
O406 O 0.13136 0.73785 0.96476 0.0
C407 C 0.06648 0.63538 0.83526 0.0
C408 C 0.22262 0.74112 0.99531 0.0
C409 C 0.1569 0.62116 0.82076 0.0
C410 C 0.14366 0.63767 0.09926 0.0
C411 C 0.18243 0.72804 0.73708 0.0
C412 C 0.10961 0.72237 0.01795 0.0
O413 O 0.08959 0.65375 0.78921 0.0
C414 C 0.08848 0.1754 0.57932 0.0
C415 C 0.09468 0.201 0.63113 0.0
C416 C 0.1092 0.17877 0.51517 0.0
C417 C 0.13712 0.20792 0.49956 0.0
H418 H 0.06667 0.15293 0.58548 0.0
H419 H 0.10248 0.1584 0.47574 0.0
S420 S 0.1669 0.28105 0.62543 0.0
N421 N 0.13285 0.25563 0.66872 0.0
N422 N 0.1715 0.26188 0.54746 0.0
C423 C 0.1447 0.23315 0.55419 0.0
C424 C 0.12362 0.2297 0.62007 0.0
C425 C 0.79631 0.94243 0.55154 0.0
C426 C 0.82043 0.95733 0.4926 0.0
C427 C 0.7987 0.92419 0.61476 0.0
C428 C 0.82522 0.91986 0.62164 0.0
H429 H 0.77485 0.94387 0.54734 0.0
H430 H 0.77874 0.91197 0.65624 0.0
S431 S 0.89697 0.95715 0.49036 0.0
N432 N 0.87365 0.9694 0.45121 0.0
N433 N 0.87743 0.93448 0.56944 0.0
C434 C 0.85056 0.93646 0.56721 0.0
C435 C 0.84828 0.95522 0.5027 0.0
C436 C 0.09085 0.89784 0.60968 0.0
C437 C 0.09483 0.92858 0.61584 0.0
C438 C 0.07254 0.87681 0.54718 0.0
C439 C 0.05718 0.8855 0.48827 0.0
H440 H 0.10333 0.89042 0.65123 0.0
H441 H 0.07139 0.85401 0.54355 0.0
S442 S 0.05598 0.96154 0.48493 0.0
N443 N 0.0792 0.96543 0.56335 0.0
N444 N 0.0441 0.9259 0.44651 0.0
C445 C 0.05888 0.9153 0.49776 0.0
C446 C 0.07775 0.93679 0.56153 0.0
C447 C 0.22386 0.12187 0.92283 0.0
C448 C 0.19337 0.10115 0.89059 0.0
C449 C 0.22992 0.14802 0.97137 0.0
C450 C 0.20596 0.15511 0.98886 0.0
H451 H 0.24322 0.11721 0.91346 0.0
H452 H 0.25333 0.16211 0.99789 0.0
S453 S 0.12302 0.11109 0.9114 0.0
N454 N 0.13964 0.09129 0.87367 0.0
N455 N 0.15105 0.14105 0.96406 0.0
C456 C 0.17592 0.13616 0.95197 0.0
C457 C 0.16963 0.10908 0.90292 0.0
C458 C 0.86473 0.06893 0.91096 0.0
C459 C 0.86937 0.07081 0.99663 0.0
C460 C 0.8907 0.08485 0.85712 0.0
C461 C 0.92196 0.10178 0.8874 0.0
H462 H 0.84095 0.05663 0.88589 0.0
H463 H 0.88617 0.08572 0.79212 0.0
S464 S 0.94649 0.10985 0.10601 0.0
N465 N 0.90743 0.08828 0.10874 0.0
N466 N 0.95596 0.11717 0.00761 0.0
C467 C 0.92678 0.10144 0.97239 0.0
C468 C 0.90052 0.0862 0.02706 0.0
C469 C 0.88737 0.78734 0.91875 0.0
C470 C 0.89692 0.81827 0.89015 0.0
C471 C 0.90737 0.7809 0.9663 0.0
C472 C 0.93806 0.80496 0.98612 0.0
H473 H 0.86357 0.76797 0.90761 0.0
H474 H 0.89822 0.75718 0.99073 0.0
S475 S 0.97622 0.88911 0.91865 0.0
N476 N 0.94022 0.87257 0.87891 0.0
N477 N 0.97825 0.86049 0.96799 0.0
C478 C 0.94895 0.83548 0.95264 0.0
C479 C 0.92831 0.84213 0.90454 0.0
C480 C 0.861 0.79381 0.44928 0.0
C481 C 0.86715 0.82037 0.49694 0.0
C482 C 0.88136 0.79624 0.385 0.0
C483 C 0.90886 0.82532 0.36573 0.0
H484 H 0.84112 0.77065 0.46383 0.0
H485 H 0.8762 0.77464 0.35285 0.0
S486 S 0.93286 0.90317 0.4627 0.0
N487 N 0.90053 0.8778 0.51282 0.0
N488 N 0.93891 0.88192 0.39333 0.0
C489 C 0.91392 0.85254 0.40854 0.0
C490 C 0.89311 0.85016 0.47387 0.0
C491 C 0.22281 0.09651 0.45735 0.0
C492 C 0.19573 0.07304 0.49756 0.0
C493 C 0.2204 0.11542 0.39589 0.0
C494 C 0.19079 0.11179 0.37211 0.0
H495 H 0.24618 0.10135 0.4759 0.0
H496 H 0.24227 0.13406 0.36967 0.0
S497 S 0.11216 0.04986 0.44818 0.0
N498 N 0.13783 0.04415 0.50099 0.0
N499 N 0.13362 0.08017 0.38684 0.0
C500 C 0.16337 0.08684 0.40749 0.0
C501 C 0.16577 0.06741 0.46983 0.0
C502 C 0.92612 0.09557 0.42393 0.0
C503 C 0.9102 0.10449 0.36757 0.0
C504 C 0.9431 0.11545 0.48963 0.0
C505 C 0.94492 0.14512 0.50169 0.0
H506 H 0.9238 0.07225 0.4206 0.0
H507 H 0.95382 0.10673 0.53312 0.0
S508 S 0.91221 0.18189 0.36171 0.0
N509 N 0.90084 0.1467 0.32087 0.0
N510 N 0.93273 0.18404 0.44479 0.0
C511 C 0.9311 0.15532 0.44206 0.0
C512 C 0.91384 0.13507 0.37485 0.0
C513 C 0.81696 0.90427 0.12463 0.0
C514 C 0.82823 0.93501 0.09317 0.0
C515 C 0.80598 0.87793 0.07163 0.0
C516 C 0.80464 0.88145 0.98595 0.0
H517 H 0.81492 0.90037 0.19058 0.0
H518 H 0.79725 0.85456 0.09795 0.0
S519 S 0.83366 0.95739 0.8733 0.0
N520 N 0.83949 0.96774 0.97142 0.0
N521 N 0.81814 0.91846 0.87195 0.0
C522 C 0.81705 0.91227 0.95391 0.0
C523 C 0.82902 0.93898 0.00753 0.0
C524 C 0.13218 0.95128 0.06265 0.0
C525 C 0.13117 0.94387 0.97832 0.0
C526 C 0.1054 0.93432 0.11342 0.0
C527 C 0.07665 0.91031 0.08055 0.0
H528 H 0.15407 0.96943 0.09003 0.0
H529 H 0.10768 0.93879 0.17915 0.0
S530 S 0.06041 0.88469 0.86234 0.0
N531 N 0.09803 0.91278 0.86342 0.0
N532 N 0.04811 0.88148 0.95848 0.0
C533 C 0.07494 0.90414 0.99573 0.0
C534 C 0.10208 0.92076 0.94465 0.0
C535 C 0.08097 0.23112 0.06212 0.0
C536 C 0.05635 0.20578 0.01962 0.0
C537 C 0.10101 0.22616 0.11381 0.0
C538 C 0.09772 0.19579 0.12331 0.0
H539 H 0.08568 0.25514 0.05245 0.0
H540 H 0.12072 0.24675 0.14215 0.0
S541 S 0.03529 0.1212 0.02984 0.0
N542 N 0.02795 0.1488 0.99496 0.0
N543 N 0.06641 0.1397 0.09102 0.0
C544 C 0.07179 0.16988 0.0859 0.0
C545 C 0.05098 0.17487 0.03391 0.0
C546 C 0.81098 0.56421 0.89651 0.0
C547 C 0.80715 0.5368 0.85721 0.0
C548 C 0.79048 0.5622 0.95991 0.0
C549 C 0.7652 0.53266 0.98652 0.0
H550 H 0.82881 0.5875 0.87528 0.0
H551 H 0.79351 0.58422 0.98484 0.0
S552 S 0.74925 0.4535 0.91521 0.0
N553 N 0.77942 0.47894 0.85843 0.0
N554 N 0.7407 0.47529 0.97658 0.0
C555 C 0.76292 0.50499 0.95269 0.0
C556 C 0.78388 0.50702 0.88827 0.0
C557 C 0.44867 0.24846 0.9525 0.0
C558 C 0.47828 0.25362 0.98143 0.0
C559 C 0.44659 0.26749 0.89077 0.0
C560 C 0.47403 0.29245 0.85557 0.0
H561 H 0.42677 0.22848 0.97433 0.0
H562 H 0.42341 0.26141 0.86735 0.0
S563 S 0.55703 0.32021 0.92098 0.0
N564 N 0.53542 0.28857 0.97817 0.0
N565 N 0.53162 0.32456 0.86307 0.0
C566 C 0.50367 0.29967 0.88899 0.0
C567 C 0.50578 0.28024 0.95168 0.0
C568 C 0.74415 0.26212 0.92958 0.0
C569 C 0.76293 0.25518 0.98138 0.0
C570 C 0.72691 0.24181 0.86479 0.0
C571 C 0.72767 0.2136 0.84847 0.0
H572 H 0.74417 0.28432 0.93578 0.0
H573 H 0.71387 0.24916 0.82516 0.0
S574 S 0.76836 0.18147 0.97584 0.0
N575 N 0.77755 0.21566 0.01972 0.0
N576 N 0.74543 0.1778 0.89687 0.0
C577 C 0.74426 0.20506 0.90383 0.0
C578 C 0.76174 0.22571 0.97048 0.0
C579 C 0.88663 0.4876 0.27726 0.0
C580 C 0.86198 0.48633 0.32444 0.0
C581 C 0.88094 0.46321 0.22217 0.0
C582 C 0.8506 0.43599 0.2144 0.0
H583 H 0.91071 0.50688 0.2856 0.0
H584 H 0.90112 0.46459 0.18997 0.0
S585 S 0.77744 0.42307 0.31892 0.0
N586 N 0.80543 0.45775 0.35407 0.0
N587 N 0.79506 0.41087 0.25311 0.0
C588 C 0.82525 0.43559 0.25663 0.0
C589 C 0.83093 0.46098 0.3115 0.0
C590 C 0.53587 0.40503 0.26744 0.0
C591 C 0.54009 0.4094 0.35309 0.0
C592 C 0.56186 0.42041 0.21349 0.0
C593 C 0.59286 0.43936 0.24387 0.0
H594 H 0.51226 0.39108 0.242 0.0
H595 H 0.55747 0.41912 0.1478 0.0
S596 S 0.61677 0.45469 0.46314 0.0
N597 N 0.57787 0.43163 0.46583 0.0
N598 N 0.62641 0.45967 0.36456 0.0
C599 C 0.59745 0.44181 0.32935 0.0
C600 C 0.57113 0.42704 0.38399 0.0
C601 C 0.58893 0.16986 0.38166 0.0
C602 C 0.60977 0.1607 0.34785 0.0
C603 C 0.57269 0.18034 0.33155 0.0
C604 C 0.57631 0.18166 0.2456 0.0
H605 H 0.58459 0.16833 0.44746 0.0
H606 H 0.55515 0.18491 0.35972 0.0
S607 S 0.62993 0.16289 0.1269 0.0
N608 N 0.63551 0.15652 0.22387 0.0
N609 N 0.60341 0.17468 0.1288 0.0
C610 C 0.59833 0.17429 0.21118 0.0
C611 C 0.61549 0.16419 0.26258 0.0
C612 C 0.53451 0.1411 0.79681 0.0
C613 C 0.5425 0.16579 0.85346 0.0
C614 C 0.55553 0.14385 0.73416 0.0
C615 C 0.58559 0.17133 0.7255 0.0
H616 H 0.51222 0.11905 0.80212 0.0
H617 H 0.54858 0.12358 0.69411 0.0
S618 S 0.61695 0.24433 0.85209 0.0
N619 N 0.5818 0.2201 0.89197 0.0
N620 N 0.62122 0.2247 0.77477 0.0
C621 C 0.59318 0.19697 0.77836 0.0
C622 C 0.57173 0.1943 0.84228 0.0
C623 C 0.82973 0.40441 0.82907 0.0
C624 C 0.85719 0.40169 0.8375 0.0
C625 C 0.82654 0.42184 0.76498 0.0
C626 C 0.85065 0.43732 0.70635 0.0
H627 H 0.81091 0.39415 0.87438 0.0
H628 H 0.80591 0.42481 0.76475 0.0
S629 S 0.92458 0.43285 0.69085 0.0
N630 N 0.90699 0.41254 0.77485 0.0
N631 N 0.90098 0.44513 0.65375 0.0
C632 C 0.87706 0.43267 0.70989 0.0
C633 C 0.88038 0.41499 0.77561 0.0
C634 C 0.60061 0.48299 0.795 0.0
C635 C 0.61679 0.4741 0.85072 0.0
C636 C 0.58208 0.46248 0.73204 0.0
C637 C 0.5786 0.43203 0.72248 0.0
H638 H 0.60118 0.50544 0.80175 0.0
H639 H 0.56898 0.47003 0.69318 0.0
S640 S 0.62059 0.39947 0.84229 0.0
N641 N 0.63188 0.43443 0.8844 0.0
N642 N 0.59622 0.39573 0.76695 0.0
C643 C 0.59674 0.42386 0.77301 0.0
C644 C 0.61592 0.44488 0.83708 0.0
C645 C 0.44036 0.20986 0.38536 0.0
C646 C 0.46505 0.20425 0.36437 0.0
C647 C 0.44588 0.23554 0.4352 0.0
C648 C 0.4765 0.25718 0.46493 0.0
H649 H 0.41684 0.19517 0.35996 0.0
H650 H 0.42611 0.23935 0.4468 0.0
S651 S 0.54853 0.25062 0.43657 0.0
N652 N 0.52068 0.22022 0.38478 0.0
N653 N 0.53108 0.26913 0.47733 0.0
C654 C 0.50092 0.25043 0.4501 0.0
C655 C 0.49519 0.22384 0.3999 0.0
C656 C 0.81032 0.26662 0.3978 0.0
C657 C 0.8128 0.29425 0.36426 0.0
C658 C 0.78499 0.24709 0.44906 0.0
C659 C 0.76065 0.25396 0.46704 0.0
H660 H 0.82716 0.25915 0.38087 0.0
H661 H 0.78332 0.22516 0.4701 0.0
S662 S 0.75851 0.32592 0.40321 0.0
N663 N 0.79113 0.32987 0.36048 0.0
N664 N 0.74266 0.29223 0.45518 0.0
C665 C 0.76429 0.28295 0.44 0.0
C666 C 0.79056 0.30329 0.38863 0.0
C667 C 0.76768 0.56155 0.46657 0.0
C668 C 0.76367 0.53088 0.47675 0.0
C669 C 0.74902 0.56726 0.41151 0.0
C670 C 0.725 0.54239 0.36637 0.0
H671 H 0.78697 0.58181 0.49715 0.0
H672 H 0.75425 0.59145 0.40179 0.0
S673 S 0.70252 0.45739 0.37575 0.0
N674 N 0.73233 0.47508 0.44119 0.0
N675 N 0.6965 0.4856 0.33896 0.0
C676 C 0.71892 0.51123 0.38071 0.0
C677 C 0.73833 0.50547 0.43605 0.0
C678 C 0.42674 0.84074 0.2639 0.0
C679 C 0.43373 0.86683 0.31465 0.0
C680 C 0.44649 0.84353 0.198 0.0
C681 C 0.47414 0.87253 0.17975 0.0
H682 H 0.40483 0.81847 0.27159 0.0
H683 H 0.43905 0.82293 0.15894 0.0
S684 S 0.50657 0.94622 0.3044 0.0
N685 N 0.47291 0.92133 0.35029 0.0
N686 N 0.50985 0.92653 0.22563 0.0
C687 C 0.48291 0.89803 0.23434 0.0
C688 C 0.4628 0.89516 0.30199 0.0
C689 C 0.17761 0.60312 0.25105 0.0
C690 C 0.15209 0.58487 0.3039 0.0
C691 C 0.17481 0.62096 0.18755 0.0
C692 C 0.14634 0.62136 0.17376 0.0
H693 H 0.19937 0.60224 0.25537 0.0
H694 H 0.19497 0.63351 0.1469 0.0
S695 S 0.07439 0.58233 0.30478 0.0
N696 N 0.09879 0.57183 0.34591 0.0
N697 N 0.09356 0.60518 0.22558 0.0
C698 C 0.12145 0.60522 0.23013 0.0
C699 C 0.12435 0.5871 0.2954 0.0
C700 C 0.39772 0.5465 0.22613 0.0
C701 C 0.38683 0.55755 0.16115 0.0
C702 C 0.41515 0.56656 0.29106 0.0
C703 C 0.42257 0.59853 0.29335 0.0
H704 H 0.3938 0.52252 0.22552 0.0
H705 H 0.4246 0.55749 0.33732 0.0
S706 S 0.39649 0.63832 0.14407 0.0
N707 N 0.38194 0.60192 0.10793 0.0
N708 N 0.41523 0.63951 0.22981 0.0
C709 C 0.40977 0.60925 0.2326 0.0
C710 C 0.39188 0.58882 0.16631 0.0
C711 C 0.51044 0.80282 0.62247 0.0
C712 C 0.5411 0.82423 0.65204 0.0
C713 C 0.50493 0.77702 0.57213 0.0
C714 C 0.52999 0.77208 0.54945 0.0
H715 H 0.49024 0.80466 0.6431 0.0
H716 H 0.48077 0.75981 0.55563 0.0
S717 S 0.61547 0.82561 0.59595 0.0
N718 N 0.59715 0.84154 0.64537 0.0
N719 N 0.58735 0.79401 0.54867 0.0
C720 C 0.56114 0.79528 0.57195 0.0
C721 C 0.56657 0.8211 0.62397 0.0
C722 C 0.23064 0.7542 0.53939 0.0
C723 C 0.2615 0.77446 0.5688 0.0
C724 C 0.20493 0.73883 0.59402 0.0
C725 C 0.20918 0.74452 0.6793 0.0
H726 H 0.22611 0.75162 0.4737 0.0
H727 H 0.18144 0.72351 0.56927 0.0
S728 S 0.28569 0.79393 0.78702 0.0
N729 N 0.29516 0.79769 0.68833 0.0
N730 N 0.24696 0.7698 0.79089 0.0
C731 C 0.24012 0.7638 0.70939 0.0
C732 C 0.26625 0.77853 0.65411 0.0
C733 C 0.24713 0.47206 0.53322 0.0
C734 C 0.24764 0.50131 0.53032 0.0
C735 C 0.2664 0.46709 0.58798 0.0
C736 C 0.28731 0.49143 0.64042 0.0
H737 H 0.22977 0.45201 0.49765 0.0
H738 H 0.26373 0.44364 0.59237 0.0
S739 S 0.29954 0.57303 0.65259 0.0
N740 N 0.27224 0.55546 0.5806 0.0
N741 N 0.3089 0.54636 0.68325 0.0
C742 C 0.28996 0.52155 0.63354 0.0
C743 C 0.2701 0.52652 0.57808 0.0
C744 C 0.19662 0.45939 0.11865 0.0
C745 C 0.19782 0.48637 0.15363 0.0
C746 C 0.21663 0.46218 0.05313 0.0
C747 C 0.23873 0.49209 0.02016 0.0
H748 H 0.18146 0.43613 0.14492 0.0
H749 H 0.21602 0.44076 0.03187 0.0
S750 S 0.24592 0.56926 0.07767 0.0
N751 N 0.21889 0.54341 0.14118 0.0
N752 N 0.25675 0.54856 0.01895 0.0
C753 C 0.23802 0.5189 0.04956 0.0
C754 C 0.21754 0.51606 0.11609 0.0
C755 C 0.49606 0.73722 0.14744 0.0
C756 C 0.524 0.73546 0.15783 0.0
C757 C 0.49312 0.75511 0.08419 0.0
C758 C 0.51795 0.77199 0.02834 0.0
H759 H 0.47661 0.72584 0.19072 0.0
H760 H 0.47208 0.75736 0.08269 0.0
S761 S 0.59329 0.76999 0.01715 0.0
N762 N 0.57499 0.74842 0.09893 0.0
N763 N 0.56941 0.78176 0.97915 0.0
C764 C 0.54478 0.76804 0.03305 0.0
C765 C 0.54785 0.74992 0.09798 0.0
C766 C 0.27957 0.7767 0.17221 0.0
C767 C 0.28545 0.80828 0.17364 0.0
C768 C 0.2617 0.75552 0.10928 0.0
C769 C 0.24908 0.76513 0.04535 0.0
H770 H 0.28755 0.76767 0.22213 0.0
H771 H 0.25588 0.73097 0.11405 0.0
S772 S 0.26236 0.84639 0.01112 0.0
N773 N 0.28067 0.84898 0.09879 0.0
N774 N 0.24719 0.80922 0.98044 0.0
C775 C 0.25694 0.79722 0.04217 0.0
C776 C 0.275 0.81876 0.10638 0.0
C777 C 0.12108 0.56801 0.76172 0.0
C778 C 0.15206 0.59078 0.7864 0.0
C779 C 0.11535 0.54229 0.71188 0.0
C780 C 0.14026 0.53779 0.68579 0.0
H781 H 0.10104 0.57098 0.77726 0.0
H782 H 0.09139 0.52664 0.69051 0.0
S783 S 0.22512 0.58751 0.74352 0.0
N784 N 0.20752 0.60512 0.78858 0.0
N785 N 0.19679 0.55609 0.69589 0.0
C786 C 0.17102 0.55858 0.71624 0.0
C787 C 0.17692 0.58522 0.76654 0.0
C788 C 0.44408 0.61144 0.80047 0.0
C789 C 0.41263 0.59281 0.77272 0.0
C790 C 0.46947 0.62576 0.74455 0.0
C791 C 0.4642 0.62065 0.65939 0.0
H792 H 0.44923 0.61322 0.86582 0.0
H793 H 0.49341 0.63945 0.76811 0.0
S794 S 0.38611 0.5761 0.5555 0.0
N795 N 0.37761 0.57223 0.65477 0.0
N796 N 0.42506 0.59826 0.5497 0.0
C797 C 0.43276 0.60345 0.63095 0.0
C798 C 0.40703 0.58977 0.68765 0.0
C799 C 0.3835 0.84595 0.71522 0.0
C800 C 0.39067 0.87724 0.69701 0.0
C801 C 0.40325 0.84011 0.76686 0.0
C802 C 0.43041 0.86544 0.80227 0.0
H803 H 0.36417 0.82605 0.68378 0.0
H804 H 0.3988 0.81605 0.77303 0.0
S805 S 0.45528 0.95102 0.78805 0.0
N806 N 0.42385 0.93318 0.7278 0.0
N807 N 0.46017 0.92244 0.82716 0.0
C808 C 0.43551 0.89646 0.79188 0.0
C809 C 0.41591 0.90235 0.73834 0.0
C810 C 0.08418 0.34081 0.66205 0.0
C811 C 0.06005 0.31391 0.62232 0.0
C812 C 0.10071 0.36993 0.6212 0.0
C813 C 0.09415 0.37334 0.53849 0.0
H814 H 0.09006 0.33958 0.72577 0.0
H815 H 0.11877 0.39003 0.65516 0.0
S816 S 0.03436 0.30986 0.40477 0.0
N817 N 0.03115 0.29225 0.49401 0.0
N818 N 0.06253 0.34713 0.41741 0.0
C819 C 0.07069 0.34651 0.49712 0.0
C820 C 0.05353 0.31681 0.53902 0.0
C821 C 0.67931 0.73154 0.60618 0.0
C822 C 0.69837 0.76472 0.60589 0.0
C823 C 0.65036 0.71658 0.56403 0.0
C824 C 0.64014 0.73424 0.51776 0.0
H825 H 0.68645 0.71714 0.64094 0.0
H826 H 0.63569 0.69102 0.56824 0.0
S827 S 0.68274 0.82161 0.4927 0.0
N828 N 0.70581 0.81479 0.55381 0.0
N829 N 0.65183 0.78649 0.47162 0.0
C830 C 0.65957 0.76735 0.51444 0.0
C831 C 0.68862 0.78266 0.55942 0.0
C832 C 0.24576 0.92729 0.63492 0.0
C833 C 0.24707 0.95422 0.5991 0.0
C834 C 0.25958 0.91146 0.59638 0.0
C835 C 0.27494 0.92152 0.51973 0.0
H836 H 0.23456 0.91869 0.69431 0.0
H837 H 0.25851 0.89126 0.62758 0.0
S838 S 0.28347 0.98949 0.39693 0.0
N839 N 0.26398 0.98955 0.48029 0.0
N840 N 0.28975 0.9593 0.40761 0.0
C841 C 0.27558 0.9477 0.48153 0.0
C842 C 0.2618 0.96422 0.52139 0.0
C843 C 0.33483 0.07609 0.83463 0.0
C844 C 0.30688 0.07087 0.87368 0.0
C845 C 0.36385 0.09036 0.87721 0.0
C846 C 0.36603 0.10042 0.95982 0.0
H847 H 0.33411 0.06833 0.77167 0.0
H848 H 0.38475 0.09359 0.84493 0.0
S849 S 0.29963 0.09398 0.08731 0.0
N850 N 0.28323 0.0781 0.99796 0.0
N851 N 0.3375 0.10504 0.07745 0.0
C852 C 0.33825 0.09606 0.99849 0.0
C853 C 0.30877 0.08126 0.95556 0.0
C854 C 0.93624 0.2766 0.84087 0.0
C855 C 0.93694 0.25098 0.87848 0.0
C856 C 0.92367 0.29326 0.88232 0.0
C857 C 0.91096 0.28467 0.96255 0.0
H858 H 0.94635 0.28447 0.78011 0.0
H859 H 0.92408 0.31313 0.85112 0.0
S860 S 0.90501 0.21745 0.0852 0.0
N861 N 0.92231 0.21658 0.99855 0.0
N862 N 0.89865 0.24762 0.07601 0.0
C863 C 0.91065 0.25837 0.9996 0.0
C864 C 0.92364 0.24163 0.95771 0.0
C865 C 0.72205 0.68863 0.88537 0.0
C866 C 0.75466 0.70523 0.86832 0.0
C867 C 0.70837 0.66016 0.92994 0.0
C868 C 0.72704 0.6479 0.96137 0.0
H869 H 0.70709 0.69789 0.86472 0.0
H870 H 0.68306 0.64798 0.94135 0.0
S871 S 0.8138 0.68288 0.93348 0.0
N872 N 0.80532 0.70758 0.88492 0.0
N873 N 0.77986 0.65448 0.97105 0.0
C874 C 0.75977 0.66444 0.94483 0.0
C875 C 0.77353 0.69303 0.89766 0.0
C876 C 0.94215 0.67562 0.5086 0.0
C877 C 0.91219 0.65113 0.48446 0.0
C878 C 0.95731 0.7043 0.46456 0.0
C879 C 0.94288 0.70944 0.39533 0.0
H880 H 0.95445 0.67212 0.55951 0.0
H881 H 0.98075 0.7223 0.48419 0.0
S882 S 0.8625 0.65314 0.31443 0.0
N883 N 0.86748 0.63419 0.39202 0.0
N884 N 0.89537 0.68789 0.30985 0.0
C885 C 0.91216 0.68533 0.37334 0.0
C886 C 0.89699 0.65624 0.41779 0.0
C887 C 0.31647 0.29259 0.43172 0.0
C888 C 0.30623 0.26373 0.38936 0.0
C889 C 0.34469 0.30671 0.47737 0.0
C890 C 0.36324 0.29215 0.48334 0.0
H891 H 0.30297 0.30476 0.42806 0.0
H892 H 0.35246 0.32951 0.50638 0.0
S893 S 0.34645 0.21588 0.38942 0.0
N894 N 0.31656 0.22056 0.35999 0.0
N895 N 0.36953 0.24729 0.44614 0.0
C896 C 0.35308 0.26309 0.44331 0.0
C897 C 0.32456 0.2488 0.39623 0.0
C898 C 0.75381 0.09418 0.34479 0.0
C899 C 0.76002 0.07272 0.3873 0.0
C900 C 0.7393 0.10932 0.38417 0.0
C901 C 0.73085 0.10411 0.46819 0.0
H902 H 0.75964 0.09893 0.28004 0.0
H903 H 0.73472 0.12534 0.34817 0.0
S904 S 0.74335 0.05132 0.60874 0.0
N905 N 0.75742 0.0477 0.51923 0.0
N906 N 0.73055 0.07658 0.59319 0.0
C907 C 0.7376 0.08331 0.5121 0.0
C908 C 0.752 0.06749 0.47167 0.0
C909 C 0.66507 0.92468 0.02192 0.0
C910 C 0.63853 0.9233 0.06024 0.0
C911 C 0.6944 0.93835 0.06176 0.0
C912 C 0.69835 0.95076 0.14208 0.0
H913 H 0.66347 0.91591 0.9597 0.0
H914 H 0.71434 0.93958 0.02871 0.0
S915 S 0.63591 0.95089 0.27237 0.0
N916 N 0.61767 0.93406 0.18532 0.0
N917 N 0.67307 0.95951 0.26028 0.0
C918 C 0.67184 0.94844 0.18268 0.0
C919 C 0.64189 0.93486 0.14163 0.0
C920 C 0.048 0.73426 0.13111 0.0
C921 C 0.06452 0.76671 0.15058 0.0
C922 C 0.06296 0.72009 0.08914 0.0
C923 C 0.09471 0.73811 0.063 0.0
H924 H 0.02313 0.71989 0.14686 0.0
H925 H 0.04924 0.695 0.07499 0.0
S926 S 0.14825 0.82412 0.10058 0.0
N927 N 0.11423 0.81645 0.14274 0.0
N928 N 0.14241 0.7901 0.06233 0.0
C929 C 0.11155 0.77062 0.08298 0.0
C930 C 0.09641 0.78486 0.12714 0.0
C931 C 0.24322 0.32503 0.03941 0.0
C932 C 0.24638 0.32209 0.12481 0.0
C933 C 0.25846 0.35462 1.00028 0.0
C934 C 0.2779 0.38252 0.04462 0.0
H935 H 0.22884 0.30423 1.00203 0.0
H936 H 0.25543 0.35549 0.93441 0.0
S937 S 0.29311 0.38814 0.27014 0.0
N938 N 0.2696 0.34985 0.253 0.0
N939 N 0.29853 0.40555 0.17962 0.0
C940 C 0.28092 0.38006 0.13038 0.0
C941 C 0.26506 0.34987 0.17043 0.0
C942 C 0.9791 0.42093 0.28378 0.0
C943 C 0.97519 0.40948 0.20234 0.0
C944 C 0.00839 0.43405 0.32372 0.0
C945 C 0.03496 0.43592 0.2843 0.0
H946 H 0.95921 0.41948 0.31758 0.0
H947 H 0.00998 0.44215 0.38667 0.0
S948 S 0.03771 0.41078 0.06931 0.0
N949 N 0.00057 0.40204 0.08228 0.0
N950 N 0.05586 0.42657 0.15718 0.0
C951 C 0.03161 0.42525 0.20194 0.0
C952 C 0.00171 0.41216 0.16093 0.0
C953 C 0.60126 0.6074 0.16495 0.0
C954 C 0.60204 0.58224 0.20494 0.0
C955 C 0.58702 0.62322 0.20256 0.0
C956 C 0.57258 0.61406 0.28084 0.0
H957 H 0.61277 0.61572 0.10578 0.0
H958 H 0.58758 0.64295 0.17019 0.0
S959 S 0.56602 0.54751 0.40746 0.0
N960 N 0.58567 0.54755 0.32449 0.0
N961 N 0.5586 0.57685 0.39456 0.0
C962 C 0.57213 0.58801 0.3197 0.0
C963 C 0.58695 0.57223 0.28192 0.0
C964 C 0.39169 0.98751 0.20993 0.0
C965 C 0.40177 0.98308 0.28794 0.0
C966 C 0.40724 0.017 0.16958 0.0
C967 C 0.43323 0.0432 0.20616 0.0
H968 H 0.37127 0.9682 0.18007 0.0
H969 H 0.39804 0.01961 0.11118 0.0
S970 S 0.47127 0.04393 0.40488 0.0
N971 N 0.44124 0.00737 0.39663 0.0
N972 N 0.47006 0.06252 0.32124 0.0
C973 C 0.44436 0.03888 0.2823 0.0
C974 C 0.42876 0.00893 0.32307 0.0
C975 C 0.60364 0.01215 0.83704 0.0
C976 C 0.57726 0.98623 0.80094 0.0
C977 C 0.61948 0.04151 0.79652 0.0
C978 C 0.6092 0.04609 0.71907 0.0
H979 H 0.61278 0.00943 0.89542 0.0
H980 H 0.64008 0.0607 0.82615 0.0
S981 S 0.53914 0.98588 0.60277 0.0
N982 N 0.54016 0.96717 0.68641 0.0
N983 N 0.56958 0.02226 0.61062 0.0
C984 C 0.58199 0.0205 0.68408 0.0
C985 C 0.56613 0.9906 0.72493 0.0
C986 C 0.00762 0.61213 0.83978 0.0
C987 C 0.03482 0.61723 0.797 0.0
C988 C 0.97791 0.5976 0.80098 0.0
C989 C 0.97423 0.58711 0.71848 0.0
H990 H 0.00944 0.62036 0.90268 0.0
H991 H 0.95769 0.59476 0.83596 0.0
S992 S 0.03802 0.59243 0.58232 0.0
N993 N 0.05615 0.60905 0.66955 0.0
N994 N 0.00033 0.58136 0.59713 0.0
C995 C 0.00114 0.59094 0.67625 0.0
C996 C 0.03143 0.60613 0.71536 0.0
C997 C 0.41436 0.40454 0.8065 0.0
C998 C 0.4315 0.41569 0.7321 0.0
C999 C 0.40162 0.42126 0.84683 0.0
C1000 C 0.40529 0.44951 0.8137 0.0
H1001 H 0.41031 0.38247 0.83346 0.0
H1002 H 0.38766 0.41127 0.90213 0.0
S1003 S 0.45025 0.4906 0.62528 0.0
N1004 N 0.45313 0.45824 0.63063 0.0
N1005 N 0.42898 0.48928 0.706 0.0
C1006 C 0.42332 0.46159 0.74137 0.0
C1007 C 0.43648 0.4448 0.70068 0.0
loop_
_geom_bond_atom_site_label_1
_geom_bond_atom_site_label_2
_geom_bond_distance
_geom_bond_site_symmetry_2
_ccdc_geom_bond_type
O0 Zn1 1.953 1_455 S
O0 C16 1.225 . S
Zn1 O0 1.953 1_655 S
Zn1 O2 1.949 1_655 S
Zn1 O8 1.919 . S
Zn1 O13 1.924 . S
O2 Zn1 1.949 1_455 S
O2 Zn3 1.923 1_455 S
O2 Zn4 1.950 . S
O2 Zn5 1.945 1_455 S
Zn3 O2 1.923 1_655 S
Zn3 O6 1.933 . S
Zn3 O9 1.941 . S
Zn3 O10 1.965 1_655 S
Zn4 O2 1.950 . S
Zn4 O11 1.938 . S
Zn4 O12 1.906 . S
Zn4 O22 1.953 . S
Zn5 O2 1.945 1_655 S
Zn5 O7 1.932 . S
Zn5 O14 1.977 1_655 S
Zn5 O15 1.910 . S
O6 Zn3 1.933 . S
O6 C17 1.226 . S
O7 Zn5 1.932 . S
O7 C17 1.307 . S
O8 Zn1 1.919 . S
O8 C19 1.253 . S
O9 Zn3 1.941 . S
O9 C19 1.283 . S
O10 Zn3 1.965 1_455 S
O10 C18 1.303 . S
O11 Zn4 1.938 . S
O11 C18 1.247 . S
O12 Zn4 1.906 . S
O12 C20 1.304 . S
O13 Zn1 1.924 . S
O13 C21 1.311 . S
O14 Zn5 1.977 1_455 S
O14 C20 1.272 . S
O15 Zn5 1.910 . S
O15 C21 1.231 . S
C16 O0 1.225 . S
C16 O22 1.298 . S
C17 O6 1.226 . S
C17 O7 1.307 . S
C18 O10 1.303 . S
C18 O11 1.247 . S
C19 O8 1.253 . S
C19 O9 1.283 . S
C20 O12 1.304 . S
C20 O14 1.272 . S
C21 O13 1.311 . S
C21 O15 1.231 . S
O22 Zn4 1.953 . S
O22 C16 1.298 . S
O23 Zn24 1.953 . S
O23 C39 1.225 . S
Zn24 O23 1.953 . S
Zn24 O25 1.949 . S
Zn24 O31 1.919 . S
Zn24 O36 1.924 . S
O25 Zn24 1.949 . S
O25 Zn26 1.923 . S
O25 Zn27 1.950 . S
O25 Zn28 1.945 . S
Zn26 O25 1.923 . S
Zn26 O29 1.933 . S
Zn26 O32 1.941 . S
Zn26 O33 1.965 . S
Zn27 O25 1.950 . S
Zn27 O34 1.938 . S
Zn27 O35 1.906 . S
Zn27 O45 1.953 . S
Zn28 O25 1.945 . S
Zn28 O30 1.932 . S
Zn28 O37 1.977 . S
Zn28 O38 1.910 . S
O29 Zn26 1.933 . S
O29 C40 1.226 . S
O30 Zn28 1.932 . S
O30 C40 1.307 . S
O31 Zn24 1.919 . S
O31 C42 1.253 . S
O32 Zn26 1.941 . S
O32 C42 1.283 . S
O33 Zn26 1.965 . S
O33 C41 1.303 . S
O34 Zn27 1.938 . S
O34 C41 1.247 . S
O35 Zn27 1.906 . S
O35 C43 1.304 . S
O36 Zn24 1.924 . S
O36 C44 1.311 . S
O37 Zn28 1.977 . S
O37 C43 1.272 . S
O38 Zn28 1.910 . S
O38 C44 1.231 . S
C39 O23 1.225 . S
C39 O45 1.298 . S
C40 O29 1.226 . S
C40 O30 1.307 . S
C41 O33 1.303 . S
C41 O34 1.247 . S
C42 O31 1.253 . S
C42 O32 1.283 . S
C43 O35 1.304 . S
C43 O37 1.272 . S
C44 O36 1.311 . S
C44 O38 1.231 . S
O45 Zn27 1.953 . S
O45 C39 1.298 . S
O46 Zn47 1.953 . S
O46 C62 1.225 1_545 S
Zn47 O46 1.953 . S
Zn47 O48 1.949 . S
Zn47 O54 1.919 . S
Zn47 O59 1.924 . S
O48 Zn47 1.949 . S
O48 Zn49 1.923 . S
O48 Zn50 1.950 1_545 S
O48 Zn51 1.945 . S
Zn49 O48 1.923 . S
Zn49 O52 1.933 . S
Zn49 O55 1.941 . S
Zn49 O56 1.965 1_545 S
Zn50 O48 1.950 1_565 S
Zn50 O57 1.938 . S
Zn50 O58 1.906 . S
Zn50 O68 1.953 . S
Zn51 O48 1.945 . S
Zn51 O53 1.932 . S
Zn51 O60 1.977 1_545 S
Zn51 O61 1.910 . S
O52 Zn49 1.933 . S
O52 C63 1.226 . S
O53 Zn51 1.932 . S
O53 C63 1.307 . S
O54 Zn47 1.919 . S
O54 C65 1.253 . S
O55 Zn49 1.941 . S
O55 C65 1.283 . S
O56 Zn49 1.965 1_565 S
O56 C64 1.303 . S
O57 Zn50 1.938 . S
O57 C64 1.247 . S
O58 Zn50 1.906 . S
O58 C66 1.304 . S
O59 Zn47 1.924 . S
O59 C67 1.311 . S
O60 Zn51 1.977 1_565 S
O60 C66 1.272 . S
O61 Zn51 1.910 . S
O61 C67 1.231 . S
C62 O46 1.225 1_565 S
C62 O68 1.298 . S
C63 O52 1.226 . S
C63 O53 1.307 . S
C64 O56 1.303 . S
C64 O57 1.247 . S
C65 O54 1.253 . S
C65 O55 1.283 . S
C66 O58 1.304 . S
C66 O60 1.272 . S
C67 O59 1.311 . S
C67 O61 1.231 . S
O68 Zn50 1.953 . S
O68 C62 1.298 . S
O69 Zn70 1.953 . S
O69 C85 1.225 . S
Zn70 O69 1.953 . S
Zn70 O71 1.949 . S
Zn70 O77 1.919 . S
Zn70 O82 1.924 . S
O71 Zn70 1.949 . S
O71 Zn72 1.923 . S
O71 Zn73 1.950 . S
O71 Zn74 1.945 1_455 S
Zn72 O71 1.923 . S
Zn72 O75 1.933 1_455 S
Zn72 O78 1.941 . S
Zn72 O79 1.965 . S
Zn73 O71 1.950 . S
Zn73 O80 1.938 . S
Zn73 O81 1.906 1_455 S
Zn73 O91 1.953 . S
Zn74 O71 1.945 1_655 S
Zn74 O76 1.932 . S
Zn74 O83 1.977 . S
Zn74 O84 1.910 . S
O75 Zn72 1.933 1_655 S
O75 C86 1.226 . S
O76 Zn74 1.932 . S
O76 C86 1.307 . S
O77 Zn70 1.919 . S
O77 C88 1.253 . S
O78 Zn72 1.941 . S
O78 C88 1.283 . S
O79 Zn72 1.965 . S
O79 C87 1.303 . S
O80 Zn73 1.938 . S
O80 C87 1.247 . S
O81 Zn73 1.906 1_655 S
O81 C89 1.304 . S
O82 Zn70 1.924 . S
O82 C90 1.311 1_455 S
O83 Zn74 1.977 . S
O83 C89 1.272 . S
O84 Zn74 1.910 . S
O84 C90 1.231 . S
C85 O69 1.225 . S
C85 O91 1.298 . S
C86 O75 1.226 . S
C86 O76 1.307 . S
C87 O79 1.303 . S
C87 O80 1.247 . S
C88 O77 1.253 . S
C88 O78 1.283 . S
C89 O81 1.304 . S
C89 O83 1.272 . S
C90 O82 1.311 1_655 S
C90 O84 1.231 . S
O91 Zn73 1.953 . S
O91 C85 1.298 . S
O92 Zn93 1.953 . S
O92 C108 1.225 . S
Zn93 O92 1.953 . S
Zn93 O94 1.949 . S
Zn93 O100 1.919 . S
Zn93 O105 1.924 . S
O94 Zn93 1.949 . S
O94 Zn95 1.923 . S
O94 Zn96 1.950 . S
O94 Zn97 1.945 . S
Zn95 O94 1.923 . S
Zn95 O98 1.933 . S
Zn95 O101 1.941 . S
Zn95 O102 1.965 . S
Zn96 O94 1.950 . S
Zn96 O103 1.938 . S
Zn96 O104 1.906 . S
Zn96 O114 1.953 . S
Zn97 O94 1.945 . S
Zn97 O99 1.932 . S
Zn97 O106 1.977 . S
Zn97 O107 1.910 . S
O98 Zn95 1.933 . S
O98 C109 1.226 . S
O99 Zn97 1.932 . S
O99 C109 1.307 . S
O100 Zn93 1.919 . S
O100 C111 1.253 . S
O101 Zn95 1.941 . S
O101 C111 1.283 . S
O102 Zn95 1.965 . S
O102 C110 1.303 . S
O103 Zn96 1.938 . S
O103 C110 1.247 . S
O104 Zn96 1.906 . S
O104 C112 1.304 . S
O105 Zn93 1.924 . S
O105 C113 1.311 . S
O106 Zn97 1.977 . S
O106 C112 1.272 . S
O107 Zn97 1.910 . S
O107 C113 1.231 . S
C108 O92 1.225 . S
C108 O114 1.298 . S
C109 O98 1.226 . S
C109 O99 1.307 . S
C110 O102 1.303 . S
C110 O103 1.247 . S
C111 O100 1.253 . S
C111 O101 1.283 . S
C112 O104 1.304 . S
C112 O106 1.272 . S
C113 O105 1.311 . S
C113 O107 1.231 . S
O114 Zn96 1.953 . S
O114 C108 1.298 . S
O115 Zn116 1.953 . S
O115 C131 1.225 . S
Zn116 O115 1.953 . S
Zn116 O117 1.949 1_565 S
Zn116 O123 1.919 . S
Zn116 O128 1.924 1_565 S
O117 Zn116 1.949 1_545 S
O117 Zn118 1.923 1_545 S
O117 Zn119 1.950 . S
O117 Zn120 1.945 . S
Zn118 O117 1.923 1_565 S
Zn118 O121 1.933 1_565 S
Zn118 O124 1.941 . S
Zn118 O125 1.965 . S
Zn119 O117 1.950 . S
Zn119 O126 1.938 1_545 S
Zn119 O127 1.906 . S
Zn119 O137 1.953 1_545 S
Zn120 O117 1.945 . S
Zn120 O122 1.932 . S
Zn120 O129 1.977 . S
Zn120 O130 1.910 . S
O121 Zn118 1.933 1_545 S
O121 C132 1.226 . S
O122 Zn120 1.932 . S
O122 C132 1.307 . S
O123 Zn116 1.919 . S
O123 C134 1.253 . S
O124 Zn118 1.941 . S
O124 C134 1.283 . S
O125 Zn118 1.965 . S
O125 C133 1.303 . S
O126 Zn119 1.938 1_565 S
O126 C133 1.247 . S
O127 Zn119 1.906 . S
O127 C135 1.304 . S
O128 Zn116 1.924 1_545 S
O128 C136 1.311 . S
O129 Zn120 1.977 . S
O129 C135 1.272 . S
O130 Zn120 1.910 . S
O130 C136 1.231 . S
C131 O115 1.225 . S
C131 O137 1.298 . S
C132 O121 1.226 . S
C132 O122 1.307 . S
C133 O125 1.303 . S
C133 O126 1.247 . S
C134 O123 1.253 . S
C134 O124 1.283 . S
C135 O127 1.304 . S
C135 O129 1.272 . S
C136 O128 1.311 . S
C136 O130 1.231 . S
O137 Zn119 1.953 1_565 S
O137 C131 1.298 . S
O138 Zn139 1.953 1_556 S
O138 C154 1.225 . S
Zn139 O138 1.953 1_554 S
Zn139 O140 1.949 . S
Zn139 O146 1.919 1_554 S
Zn139 O151 1.924 . S
O140 Zn139 1.949 . S
O140 Zn141 1.923 . S
O140 Zn142 1.950 . S
O140 Zn143 1.945 . S
Zn141 O140 1.923 . S
Zn141 O144 1.933 . S
Zn141 O147 1.941 1_554 S
Zn141 O148 1.965 1_554 S
Zn142 O140 1.950 . S
Zn142 O149 1.938 . S
Zn142 O150 1.906 . S
Zn142 O160 1.953 . S
Zn143 O140 1.945 . S
Zn143 O145 1.932 . S
Zn143 O152 1.977 . S
Zn143 O153 1.910 . S
O144 Zn141 1.933 . S
O144 C155 1.226 . S
O145 Zn143 1.932 . S
O145 C155 1.307 . S
O146 Zn139 1.919 1_556 S
O146 C157 1.253 . S
O147 Zn141 1.941 1_556 S
O147 C157 1.283 . S
O148 Zn141 1.965 1_556 S
O148 C156 1.303 . S
O149 Zn142 1.938 . S
O149 C156 1.247 1_554 S
O150 Zn142 1.906 . S
O150 C158 1.304 . S
O151 Zn139 1.924 . S
O151 C159 1.311 . S
O152 Zn143 1.977 . S
O152 C158 1.272 . S
O153 Zn143 1.910 . S
O153 C159 1.231 . S
C154 O138 1.225 . S
C154 O160 1.298 1_556 S
C155 O144 1.226 . S
C155 O145 1.307 . S
C156 O148 1.303 . S
C156 O149 1.247 1_556 S
C157 O146 1.253 . S
C157 O147 1.283 . S
C158 O150 1.304 . S
C158 O152 1.272 . S
C159 O151 1.311 . S
C159 O153 1.231 . S
O160 Zn142 1.953 . S
O160 C154 1.298 1_554 S
O161 Zn162 1.953 1_556 S
O161 C177 1.225 . S
Zn162 O161 1.953 1_554 S
Zn162 O163 1.949 . S
Zn162 O169 1.919 1_554 S
Zn162 O174 1.924 . S
O163 Zn162 1.949 . S
O163 Zn164 1.923 . S
O163 Zn165 1.950 . S
O163 Zn166 1.945 . S
Zn164 O163 1.923 . S
Zn164 O167 1.933 . S
Zn164 O170 1.941 1_554 S
Zn164 O171 1.965 1_554 S
Zn165 O163 1.950 . S
Zn165 O172 1.938 . S
Zn165 O173 1.906 . S
Zn165 O183 1.953 . S
Zn166 O163 1.945 . S
Zn166 O168 1.932 . S
Zn166 O175 1.977 . S
Zn166 O176 1.910 . S
O167 Zn164 1.933 . S
O167 C178 1.226 . S
O168 Zn166 1.932 . S
O168 C178 1.307 . S
O169 Zn162 1.919 1_556 S
O169 C180 1.253 . S
O170 Zn164 1.941 1_556 S
O170 C180 1.283 . S
O171 Zn164 1.965 1_556 S
O171 C179 1.303 . S
O172 Zn165 1.938 . S
O172 C179 1.247 1_554 S
O173 Zn165 1.906 . S
O173 C181 1.304 . S
O174 Zn162 1.924 . S
O174 C182 1.311 . S
O175 Zn166 1.977 . S
O175 C181 1.272 . S
O176 Zn166 1.910 . S
O176 C182 1.231 . S
C177 O161 1.225 . S
C177 O183 1.298 1_556 S
C178 O167 1.226 . S
C178 O168 1.307 . S
C179 O171 1.303 . S
C179 O172 1.247 1_556 S
C180 O169 1.253 . S
C180 O170 1.283 . S
C181 O173 1.304 . S
C181 O175 1.272 . S
C182 O174 1.311 . S
C182 O176 1.231 . S
O183 Zn165 1.953 . S
O183 C177 1.298 1_554 S
O184 Zn185 1.953 1_556 S
O184 C200 1.225 . S
Zn185 O184 1.953 1_554 S
Zn185 O186 1.949 . S
Zn185 O192 1.919 1_554 S
Zn185 O197 1.924 . S
O186 Zn185 1.949 . S
O186 Zn187 1.923 . S
O186 Zn188 1.950 . S
O186 Zn189 1.945 . S
Zn187 O186 1.923 . S
Zn187 O190 1.933 . S
Zn187 O193 1.941 1_554 S
Zn187 O194 1.965 1_554 S
Zn188 O186 1.950 . S
Zn188 O195 1.938 . S
Zn188 O196 1.906 . S
Zn188 O206 1.953 . S
Zn189 O186 1.945 . S
Zn189 O191 1.932 . S
Zn189 O198 1.977 . S
Zn189 O199 1.910 . S
O190 Zn187 1.933 . S
O190 C201 1.226 . S
O191 Zn189 1.932 . S
O191 C201 1.307 . S
O192 Zn185 1.919 1_556 S
O192 C203 1.253 . S
O193 Zn187 1.941 1_556 S
O193 C203 1.283 . S
O194 Zn187 1.965 1_556 S
O194 C202 1.303 . S
O195 Zn188 1.938 . S
O195 C202 1.247 1_554 S
O196 Zn188 1.906 . S
O196 C204 1.304 . S
O197 Zn185 1.924 . S
O197 C205 1.311 . S
O198 Zn189 1.977 . S
O198 C204 1.272 . S
O199 Zn189 1.910 . S
O199 C205 1.231 . S
C200 O184 1.225 . S
C200 O206 1.298 1_556 S
C201 O190 1.226 . S
C201 O191 1.307 . S
C202 O194 1.303 . S
C202 O195 1.247 1_556 S
C203 O192 1.253 . S
C203 O193 1.283 . S
C204 O196 1.304 . S
C204 O198 1.272 . S
C205 O197 1.311 . S
C205 O199 1.231 . S
O206 Zn188 1.953 . S
O206 C200 1.298 1_554 S
O207 Zn208 1.953 . S
O207 C223 1.225 . S
Zn208 O207 1.953 . S
Zn208 O209 1.949 . S
Zn208 O215 1.919 . S
Zn208 O220 1.924 . S
O209 Zn208 1.949 . S
O209 Zn210 1.923 . S
O209 Zn211 1.950 . S
O209 Zn212 1.945 . S
Zn210 O209 1.923 . S
Zn210 O213 1.933 . S
Zn210 O216 1.941 . S
Zn210 O217 1.965 . S
Zn211 O209 1.950 . S
Zn211 O218 1.938 . S
Zn211 O219 1.906 . S
Zn211 O229 1.953 . S
Zn212 O209 1.945 . S
Zn212 O214 1.932 . S
Zn212 O221 1.977 . S
Zn212 O222 1.910 . S
O213 Zn210 1.933 . S
O213 C224 1.226 . S
O214 Zn212 1.932 . S
O214 C224 1.307 . S
O215 Zn208 1.919 . S
O215 C226 1.253 . S
O216 Zn210 1.941 . S
O216 C226 1.283 . S
O217 Zn210 1.965 . S
O217 C225 1.303 . S
O218 Zn211 1.938 . S
O218 C225 1.247 . S
O219 Zn211 1.906 . S
O219 C227 1.304 . S
O220 Zn208 1.924 . S
O220 C228 1.311 . S
O221 Zn212 1.977 . S
O221 C227 1.272 . S
O222 Zn212 1.910 . S
O222 C228 1.231 . S
C223 O207 1.225 . S
C223 O229 1.298 . S
C224 O213 1.226 . S
C224 O214 1.307 . S
C225 O217 1.303 . S
C225 O218 1.247 . S
C226 O215 1.253 . S
C226 O216 1.283 . S
C227 O219 1.304 . S
C227 O221 1.272 . S
C228 O220 1.311 . S
C228 O222 1.231 . S
O229 Zn211 1.953 . S
O229 C223 1.298 . S
O230 Zn231 1.953 . S
O230 C246 1.225 . S
Zn231 O230 1.953 . S
Zn231 O232 1.949 . S
Zn231 O238 1.919 . S
Zn231 O243 1.924 . S
O232 Zn231 1.949 . S
O232 Zn233 1.923 . S
O232 Zn234 1.950 . S
O232 Zn235 1.945 . S
Zn233 O232 1.923 . S
Zn233 O236 1.933 . S
Zn233 O239 1.941 . S
Zn233 O240 1.965 . S
Zn234 O232 1.950 . S
Zn234 O241 1.938 . S
Zn234 O242 1.906 . S
Zn234 O252 1.953 . S
Zn235 O232 1.945 . S
Zn235 O237 1.932 . S
Zn235 O244 1.977 . S
Zn235 O245 1.910 . S
O236 Zn233 1.933 . S
O236 C247 1.226 . S
O237 Zn235 1.932 . S
O237 C247 1.307 . S
O238 Zn231 1.919 . S
O238 C249 1.253 . S
O239 Zn233 1.941 . S
O239 C249 1.283 . S
O240 Zn233 1.965 . S
O240 C248 1.303 . S
O241 Zn234 1.938 . S
O241 C248 1.247 . S
O242 Zn234 1.906 . S
O242 C250 1.304 . S
O243 Zn231 1.924 . S
O243 C251 1.311 . S
O244 Zn235 1.977 . S
O244 C250 1.272 . S
O245 Zn235 1.910 . S
O245 C251 1.231 . S
C246 O230 1.225 . S
C246 O252 1.298 . S
C247 O236 1.226 . S
C247 O237 1.307 . S
C248 O240 1.303 . S
C248 O241 1.247 . S
C249 O238 1.253 . S
C249 O239 1.283 . S
C250 O242 1.304 . S
C250 O244 1.272 . S
C251 O243 1.311 . S
C251 O245 1.231 . S
O252 Zn234 1.953 . S
O252 C246 1.298 . S
O253 Zn254 1.953 . S
O253 C269 1.225 . S
Zn254 O253 1.953 . S
Zn254 O255 1.949 . S
Zn254 O261 1.919 . S
Zn254 O266 1.924 . S
O255 Zn254 1.949 . S
O255 Zn256 1.923 . S
O255 Zn257 1.950 . S
O255 Zn258 1.945 . S
Zn256 O255 1.923 . S
Zn256 O259 1.933 . S
Zn256 O262 1.941 . S
Zn256 O263 1.965 . S
Zn257 O255 1.950 . S
Zn257 O264 1.938 . S
Zn257 O265 1.906 . S
Zn257 O275 1.953 . S
Zn258 O255 1.945 . S
Zn258 O260 1.932 . S
Zn258 O267 1.977 . S
Zn258 O268 1.910 . S
O259 Zn256 1.933 . S
O259 C270 1.226 . S
O260 Zn258 1.932 . S
O260 C270 1.307 . S
O261 Zn254 1.919 . S
O261 C272 1.253 . S
O262 Zn256 1.941 . S
O262 C272 1.283 . S
O263 Zn256 1.965 . S
O263 C271 1.303 . S
O264 Zn257 1.938 . S
O264 C271 1.247 . S
O265 Zn257 1.906 . S
O265 C273 1.304 . S
O266 Zn254 1.924 . S
O266 C274 1.311 . S
O267 Zn258 1.977 . S
O267 C273 1.272 . S
O268 Zn258 1.910 . S
O268 C274 1.231 . S
C269 O253 1.225 . S
C269 O275 1.298 . S
C270 O259 1.226 . S
C270 O260 1.307 . S
C271 O263 1.303 . S
C271 O264 1.247 . S
C272 O261 1.253 . S
C272 O262 1.283 . S
C273 O265 1.304 . S
C273 O267 1.272 . S
C274 O266 1.311 . S
C274 O268 1.231 . S
O275 Zn257 1.953 . S
O275 C269 1.298 . S
O276 Zn277 1.953 . S
O276 C292 1.225 . S
Zn277 O276 1.953 . S
Zn277 O278 1.949 . S
Zn277 O284 1.919 . S
Zn277 O289 1.924 . S
O278 Zn277 1.949 . S
O278 Zn279 1.923 . S
O278 Zn280 1.950 . S
O278 Zn281 1.945 . S
Zn279 O278 1.923 . S
Zn279 O282 1.933 . S
Zn279 O285 1.941 . S
Zn279 O286 1.965 . S
Zn280 O278 1.950 . S
Zn280 O287 1.938 . S
Zn280 O288 1.906 . S
Zn280 O298 1.953 . S
Zn281 O278 1.945 . S
Zn281 O283 1.932 . S
Zn281 O290 1.977 . S
Zn281 O291 1.910 . S
O282 Zn279 1.933 . S
O282 C293 1.226 . S
O283 Zn281 1.932 . S
O283 C293 1.307 . S
O284 Zn277 1.919 . S
O284 C295 1.253 . S
O285 Zn279 1.941 . S
O285 C295 1.283 . S
O286 Zn279 1.965 . S
O286 C294 1.303 . S
O287 Zn280 1.938 . S
O287 C294 1.247 . S
O288 Zn280 1.906 . S
O288 C296 1.304 . S
O289 Zn277 1.924 . S
O289 C297 1.311 . S
O290 Zn281 1.977 . S
O290 C296 1.272 . S
O291 Zn281 1.910 . S
O291 C297 1.231 . S
C292 O276 1.225 . S
C292 O298 1.298 . S
C293 O282 1.226 . S
C293 O283 1.307 . S
C294 O286 1.303 . S
C294 O287 1.247 . S
C295 O284 1.253 . S
C295 O285 1.283 . S
C296 O288 1.304 . S
C296 O290 1.272 . S
C297 O289 1.311 . S
C297 O291 1.231 . S
O298 Zn280 1.953 . S
O298 C292 1.298 . S
O299 Zn300 1.953 . S
O299 C315 1.225 . S
Zn300 O299 1.953 . S
Zn300 O301 1.949 . S
Zn300 O307 1.919 . S
Zn300 O312 1.924 . S
O301 Zn300 1.949 . S
O301 Zn302 1.923 . S
O301 Zn303 1.950 . S
O301 Zn304 1.945 . S
Zn302 O301 1.923 . S
Zn302 O305 1.933 . S
Zn302 O308 1.941 . S
Zn302 O309 1.965 . S
Zn303 O301 1.950 . S
Zn303 O310 1.938 . S
Zn303 O311 1.906 . S
Zn303 O321 1.953 . S
Zn304 O301 1.945 . S
Zn304 O306 1.932 . S
Zn304 O313 1.977 . S
Zn304 O314 1.910 . S
O305 Zn302 1.933 . S
O305 C316 1.226 . S
O306 Zn304 1.932 . S
O306 C316 1.307 . S
O307 Zn300 1.919 . S
O307 C318 1.253 . S
O308 Zn302 1.941 . S
O308 C318 1.283 . S
O309 Zn302 1.965 . S
O309 C317 1.303 . S
O310 Zn303 1.938 . S
O310 C317 1.247 . S
O311 Zn303 1.906 . S
O311 C319 1.304 . S
O312 Zn300 1.924 . S
O312 C320 1.311 . S
O313 Zn304 1.977 . S
O313 C319 1.272 . S
O314 Zn304 1.910 . S
O314 C320 1.231 . S
C315 O299 1.225 . S
C315 O321 1.298 . S
C316 O305 1.226 . S
C316 O306 1.307 . S
C317 O309 1.303 . S
C317 O310 1.247 . S
C318 O307 1.253 . S
C318 O308 1.283 . S
C319 O311 1.304 . S
C319 O313 1.272 . S
C320 O312 1.311 . S
C320 O314 1.231 . S
O321 Zn303 1.953 . S
O321 C315 1.298 . S
O322 Zn323 1.953 . S
O322 C338 1.225 . S
Zn323 O322 1.953 . S
Zn323 O324 1.949 . S
Zn323 O330 1.919 . S
Zn323 O335 1.924 . S
O324 Zn323 1.949 . S
O324 Zn325 1.923 . S
O324 Zn326 1.950 . S
O324 Zn327 1.945 . S
Zn325 O324 1.923 . S
Zn325 O328 1.933 . S
Zn325 O331 1.941 . S
Zn325 O332 1.965 . S
Zn326 O324 1.950 . S
Zn326 O333 1.938 . S
Zn326 O334 1.906 . S
Zn326 O344 1.953 . S
Zn327 O324 1.945 . S
Zn327 O329 1.932 . S
Zn327 O336 1.977 . S
Zn327 O337 1.910 . S
O328 Zn325 1.933 . S
O328 C339 1.226 . S
O329 Zn327 1.932 . S
O329 C339 1.307 . S
O330 Zn323 1.919 . S
O330 C341 1.253 . S
O331 Zn325 1.941 . S
O331 C341 1.283 . S
O332 Zn325 1.965 . S
O332 C340 1.303 . S
O333 Zn326 1.938 . S
O333 C340 1.247 . S
O334 Zn326 1.906 . S
O334 C342 1.304 . S
O335 Zn323 1.924 . S
O335 C343 1.311 . S
O336 Zn327 1.977 . S
O336 C342 1.272 . S
O337 Zn327 1.910 . S
O337 C343 1.231 . S
C338 O322 1.225 . S
C338 O344 1.298 . S
C339 O328 1.226 . S
C339 O329 1.307 . S
C340 O332 1.303 . S
C340 O333 1.247 . S
C341 O330 1.253 . S
C341 O331 1.283 . S
C342 O334 1.304 . S
C342 O336 1.272 . S
C343 O335 1.311 . S
C343 O337 1.231 . S
O344 Zn326 1.953 . S
O344 C338 1.298 . S
O345 Zn346 1.953 . S
O345 C361 1.225 . S
Zn346 O345 1.953 . S
Zn346 O347 1.949 . S
Zn346 O353 1.919 1_556 S
Zn346 O358 1.924 1_556 S
O347 Zn346 1.949 . S
O347 Zn348 1.923 . S
O347 Zn349 1.950 . S
O347 Zn350 1.945 . S
Zn348 O347 1.923 . S
Zn348 O351 1.933 1_556 S
Zn348 O354 1.941 1_556 S
Zn348 O355 1.965 . S
Zn349 O347 1.950 . S
Zn349 O356 1.938 . S
Zn349 O357 1.906 . S
Zn349 O367 1.953 . S
Zn350 O347 1.945 . S
Zn350 O352 1.932 1_556 S
Zn350 O359 1.977 . S
Zn350 O360 1.910 1_556 S
O351 Zn348 1.933 1_554 S
O351 C362 1.226 . S
O352 Zn350 1.932 1_554 S
O352 C362 1.307 . S
O353 Zn346 1.919 1_554 S
O353 C364 1.253 . S
O354 Zn348 1.941 1_554 S
O354 C364 1.283 . S
O355 Zn348 1.965 . S
O355 C363 1.303 . S
O356 Zn349 1.938 . S
O356 C363 1.247 . S
O357 Zn349 1.906 . S
O357 C365 1.304 . S
O358 Zn346 1.924 1_554 S
O358 C366 1.311 . S
O359 Zn350 1.977 . S
O359 C365 1.272 . S
O360 Zn350 1.910 1_554 S
O360 C366 1.231 . S
C361 O345 1.225 . S
C361 O367 1.298 . S
C362 O351 1.226 . S
C362 O352 1.307 . S
C363 O355 1.303 . S
C363 O356 1.247 . S
C364 O353 1.253 . S
C364 O354 1.283 . S
C365 O357 1.304 . S
C365 O359 1.272 . S
C366 O358 1.311 . S
C366 O360 1.231 . S
O367 Zn349 1.953 . S
O367 C361 1.298 . S
O368 Zn369 1.953 . S
O368 C384 1.225 . S
Zn369 O368 1.953 . S
Zn369 O370 1.949 . S
Zn369 O376 1.919 1_556 S
Zn369 O381 1.924 1_556 S
O370 Zn369 1.949 . S
O370 Zn371 1.923 . S
O370 Zn372 1.950 . S
O370 Zn373 1.945 . S
Zn371 O370 1.923 . S
Zn371 O374 1.933 1_556 S
Zn371 O377 1.941 1_556 S
Zn371 O378 1.965 . S
Zn372 O370 1.950 . S
Zn372 O379 1.938 . S
Zn372 O380 1.906 . S
Zn372 O390 1.953 . S
Zn373 O370 1.945 . S
Zn373 O375 1.932 1_556 S
Zn373 O382 1.977 . S
Zn373 O383 1.910 1_556 S
O374 Zn371 1.933 1_554 S
O374 C385 1.226 . S
O375 Zn373 1.932 1_554 S
O375 C385 1.307 . S
O376 Zn369 1.919 1_554 S
O376 C387 1.253 . S
O377 Zn371 1.941 1_554 S
O377 C387 1.283 . S
O378 Zn371 1.965 . S
O378 C386 1.303 . S
O379 Zn372 1.938 . S
O379 C386 1.247 . S
O380 Zn372 1.906 . S
O380 C388 1.304 . S
O381 Zn369 1.924 1_554 S
O381 C389 1.311 . S
O382 Zn373 1.977 . S
O382 C388 1.272 . S
O383 Zn373 1.910 1_554 S
O383 C389 1.231 . S
C384 O368 1.225 . S
C384 O390 1.298 . S
C385 O374 1.226 . S
C385 O375 1.307 . S
C386 O378 1.303 . S
C386 O379 1.247 . S
C387 O376 1.253 . S
C387 O377 1.283 . S
C388 O380 1.304 . S
C388 O382 1.272 . S
C389 O381 1.311 . S
C389 O383 1.231 . S
O390 Zn372 1.953 . S
O390 C384 1.298 . S
O391 Zn392 1.953 . S
O391 C407 1.225 . S
Zn392 O391 1.953 . S
Zn392 O393 1.949 . S
Zn392 O399 1.919 1_556 S
Zn392 O404 1.924 1_556 S
O393 Zn392 1.949 . S
O393 Zn394 1.923 . S
O393 Zn395 1.950 . S
O393 Zn396 1.945 . S
Zn394 O393 1.923 . S
Zn394 O397 1.933 1_556 S
Zn394 O400 1.941 1_556 S
Zn394 O401 1.965 . S
Zn395 O393 1.950 . S
Zn395 O402 1.938 . S
Zn395 O403 1.906 . S
Zn395 O413 1.953 . S
Zn396 O393 1.945 . S
Zn396 O398 1.932 1_556 S
Zn396 O405 1.977 . S
Zn396 O406 1.910 1_556 S
O397 Zn394 1.933 1_554 S
O397 C408 1.226 . S
O398 Zn396 1.932 1_554 S
O398 C408 1.307 . S
O399 Zn392 1.919 1_554 S
O399 C410 1.253 . S
O400 Zn394 1.941 1_554 S
O400 C410 1.283 . S
O401 Zn394 1.965 . S
O401 C409 1.303 . S
O402 Zn395 1.938 . S
O402 C409 1.247 . S
O403 Zn395 1.906 . S
O403 C411 1.304 . S
O404 Zn392 1.924 1_554 S
O404 C412 1.311 . S
O405 Zn396 1.977 . S
O405 C411 1.272 . S
O406 Zn396 1.910 1_554 S
O406 C412 1.231 . S
C407 O391 1.225 . S
C407 O413 1.298 . S
C408 O397 1.226 . S
C408 O398 1.307 . S
C409 O401 1.303 . S
C409 O402 1.247 . S
C410 O399 1.253 . S
C410 O400 1.283 . S
C411 O403 1.304 . S
C411 O405 1.272 . S
C412 O404 1.311 . S
C412 O406 1.231 . S
O413 Zn395 1.953 . S
O413 C407 1.298 . S
C414 C415 1.369 . S
C414 C416 1.419 . S
C414 H418 0.930 . S
C415 C414 1.369 . S
C415 C424 1.429 . S
C416 C414 1.419 . S
C416 C417 1.363 . S
C416 H419 0.929 . S
C417 C416 1.363 . S
C417 C423 1.428 . S
H418 C414 0.930 . S
H419 C416 0.929 . S
S420 N421 1.613 . S
S420 N422 1.610 . S
N421 S420 1.613 . S
N421 C424 1.350 . S
N422 S420 1.610 . S
N422 C423 1.351 . S
C423 C417 1.428 . S
C423 N422 1.351 . S
C423 C424 1.434 . S
C424 C415 1.429 . S
C424 N421 1.350 . S
C424 C423 1.434 . S
C425 C426 1.369 . S
C425 C427 1.419 . S
C425 H429 0.930 . S
C426 C425 1.369 . S
C426 C435 1.429 . S
C427 C425 1.419 . S
C427 C428 1.363 . S
C427 H430 0.929 . S
C428 C427 1.363 . S
C428 C434 1.428 . S
H429 C425 0.930 . S
H430 C427 0.929 . S
S431 N432 1.613 . S
S431 N433 1.610 . S
N432 S431 1.613 . S
N432 C435 1.350 . S
N433 S431 1.610 . S
N433 C434 1.351 . S
C434 C428 1.428 . S
C434 N433 1.351 . S
C434 C435 1.434 . S
C435 C426 1.429 . S
C435 N432 1.350 . S
C435 C434 1.434 . S
C436 C437 1.369 . S
C436 C438 1.419 . S
C436 H440 0.930 . S
C437 C436 1.369 . S
C437 C446 1.429 . S
C438 C436 1.419 . S
C438 C439 1.363 . S
C438 H441 0.929 . S
C439 C438 1.363 . S
C439 C445 1.428 . S
H440 C436 0.930 . S
H441 C438 0.929 . S
S442 N443 1.613 . S
S442 N444 1.610 . S
N443 S442 1.613 . S
N443 C446 1.350 . S
N444 S442 1.610 . S
N444 C445 1.351 . S
C445 C439 1.428 . S
C445 N444 1.351 . S
C445 C446 1.434 . S
C446 C437 1.429 . S
C446 N443 1.350 . S
C446 C445 1.434 . S
C447 C448 1.369 . S
C447 C449 1.419 1_556 S
C447 H451 0.930 . S
C448 C447 1.369 . S
C448 C457 1.429 . S
C449 C447 1.419 1_554 S
C449 C450 1.363 . S
C449 H452 0.929 . S
C450 C449 1.363 . S
C450 C456 1.428 1_554 S
H451 C447 0.930 . S
H452 C449 0.929 . S
S453 N454 1.613 . S
S453 N455 1.610 . S
N454 S453 1.613 . S
N454 C457 1.350 . S
N455 S453 1.610 . S
N455 C456 1.351 . S
C456 C450 1.428 1_556 S
C456 N455 1.351 . S
C456 C457 1.434 . S
C457 C448 1.429 . S
C457 N454 1.350 . S
C457 C456 1.434 . S
C458 C459 1.369 1_556 S
C458 C460 1.419 . S
C458 H462 0.930 . S
C459 C458 1.369 1_554 S
C459 C468 1.429 . S
C460 C458 1.419 . S
C460 C461 1.363 . S
C460 H463 0.929 . S
C461 C460 1.363 . S
C461 C467 1.428 1_556 S
H462 C458 0.930 . S
H463 C460 0.929 . S
S464 N465 1.613 . S
S464 N466 1.610 . S
N465 S464 1.613 . S
N465 C468 1.350 . S
N466 S464 1.610 . S
N466 C467 1.351 . S
C467 C461 1.428 1_554 S
C467 N466 1.351 . S
C467 C468 1.434 . S
C468 C459 1.429 . S
C468 N465 1.350 . S
C468 C467 1.434 . S
C469 C470 1.369 . S
C469 C471 1.419 1_556 S
C469 H473 0.930 . S
C470 C469 1.369 . S
C470 C479 1.429 . S
C471 C469 1.419 1_554 S
C471 C472 1.363 . S
C471 H474 0.929 . S
C472 C471 1.363 . S
C472 C478 1.428 . S
H473 C469 0.930 . S
H474 C471 0.929 . S
S475 N476 1.613 . S
S475 N477 1.610 1_556 S
N476 S475 1.613 . S
N476 C479 1.350 . S
N477 S475 1.610 1_554 S
N477 C478 1.351 . S
C478 C472 1.428 . S
C478 N477 1.351 . S
C478 C479 1.434 1_554 S
C479 C470 1.429 . S
C479 N476 1.350 . S
C479 C478 1.434 1_556 S
C480 C481 1.369 . S
C480 C482 1.419 . S
C480 H484 0.930 . S
C481 C480 1.369 . S
C481 C490 1.429 . S
C482 C480 1.419 . S
C482 C483 1.363 . S
C482 H485 0.929 . S
C483 C482 1.363 . S
C483 C489 1.428 . S
H484 C480 0.930 . S
H485 C482 0.929 . S
S486 N487 1.613 . S
S486 N488 1.610 . S
N487 S486 1.613 . S
N487 C490 1.350 . S
N488 S486 1.610 . S
N488 C489 1.351 . S
C489 C483 1.428 . S
C489 N488 1.351 . S
C489 C490 1.434 . S
C490 C481 1.429 . S
C490 N487 1.350 . S
C490 C489 1.434 . S
C491 C492 1.369 . S
C491 C493 1.419 . S
C491 H495 0.930 . S
C492 C491 1.369 . S
C492 C501 1.429 . S
C493 C491 1.419 . S
C493 C494 1.363 . S
C493 H496 0.929 . S
C494 C493 1.363 . S
C494 C500 1.428 . S
H495 C491 0.930 . S
H496 C493 0.929 . S
S497 N498 1.613 . S
S497 N499 1.610 . S
N498 S497 1.613 . S
N498 C501 1.350 . S
N499 S497 1.610 . S
N499 C500 1.351 . S
C500 C494 1.428 . S
C500 N499 1.351 . S
C500 C501 1.434 . S
C501 C492 1.429 . S
C501 N498 1.350 . S
C501 C500 1.434 . S
C502 C503 1.369 . S
C502 C504 1.419 . S
C502 H506 0.930 . S
C503 C502 1.369 . S
C503 C512 1.429 . S
C504 C502 1.419 . S
C504 C505 1.363 . S
C504 H507 0.929 . S
C505 C504 1.363 . S
C505 C511 1.428 . S
H506 C502 0.930 . S
H507 C504 0.929 . S
S508 N509 1.613 . S
S508 N510 1.610 . S
N509 S508 1.613 . S
N509 C512 1.350 . S
N510 S508 1.610 . S
N510 C511 1.351 . S
C511 C505 1.428 . S
C511 N510 1.351 . S
C511 C512 1.434 . S
C512 C503 1.429 . S
C512 N509 1.350 . S
C512 C511 1.434 . S
C513 C514 1.369 . S
C513 C515 1.419 . S
C513 H517 0.930 . S
C514 C513 1.369 . S
C514 C523 1.429 1_554 S
C515 C513 1.419 . S
C515 C516 1.363 1_554 S
C515 H518 0.929 . S
C516 C515 1.363 1_556 S
C516 C522 1.428 . S
H517 C513 0.930 . S
H518 C515 0.929 . S
S519 N520 1.613 . S
S519 N521 1.610 . S
N520 S519 1.613 . S
N520 C523 1.350 . S
N521 S519 1.610 . S
N521 C522 1.351 . S
C522 C516 1.428 . S
C522 N521 1.351 . S
C522 C523 1.434 . S
C523 C514 1.429 1_556 S
C523 N520 1.350 . S
C523 C522 1.434 . S
C524 C525 1.369 1_554 S
C524 C526 1.419 . S
C524 H528 0.930 . S
C525 C524 1.369 1_556 S
C525 C534 1.429 . S
C526 C524 1.419 . S
C526 C527 1.363 . S
C526 H529 0.929 . S
C527 C526 1.363 . S
C527 C533 1.428 1_554 S
H528 C524 0.930 . S
H529 C526 0.929 . S
S530 N531 1.613 . S
S530 N532 1.610 . S
N531 S530 1.613 . S
N531 C534 1.350 . S
N532 S530 1.610 . S
N532 C533 1.351 . S
C533 C527 1.428 1_556 S
C533 N532 1.351 . S
C533 C534 1.434 . S
C534 C525 1.429 . S
C534 N531 1.350 . S
C534 C533 1.434 . S
C535 C536 1.369 1_554 S
C535 C537 1.419 . S
C535 H539 0.930 . S
C536 C535 1.369 1_556 S
C536 C545 1.429 1_556 S
C537 C535 1.419 . S
C537 C538 1.363 . S
C537 H540 0.929 . S
C538 C537 1.363 . S
C538 C544 1.428 . S
H539 C535 0.930 . S
H540 C537 0.929 . S
S541 N542 1.613 1_554 S
S541 N543 1.610 . S
N542 S541 1.613 1_556 S
N542 C545 1.350 1_556 S
N543 S541 1.610 . S
N543 C544 1.351 . S
C544 C538 1.428 . S
C544 N543 1.351 . S
C544 C545 1.434 . S
C545 C536 1.429 1_554 S
C545 N542 1.350 1_554 S
C545 C544 1.434 . S
C546 C547 1.369 . S
C546 C548 1.419 . S
C546 H550 0.930 . S
C547 C546 1.369 . S
C547 C556 1.429 . S
C548 C546 1.419 . S
C548 C549 1.363 . S
C548 H551 0.929 . S
C549 C548 1.363 . S
C549 C555 1.428 . S
H550 C546 0.930 . S
H551 C548 0.929 . S
S552 N553 1.613 . S
S552 N554 1.610 . S
N553 S552 1.613 . S
N553 C556 1.350 . S
N554 S552 1.610 . S
N554 C555 1.351 . S
C555 C549 1.428 . S
C555 N554 1.351 . S
C555 C556 1.434 . S
C556 C547 1.429 . S
C556 N553 1.350 . S
C556 C555 1.434 . S
C557 C558 1.369 . S
C557 C559 1.419 . S
C557 H561 0.930 . S
C558 C557 1.369 . S
C558 C567 1.429 . S
C559 C557 1.419 . S
C559 C560 1.363 . S
C559 H562 0.929 . S
C560 C559 1.363 . S
C560 C566 1.428 . S
H561 C557 0.930 . S
H562 C559 0.929 . S
S563 N564 1.613 . S
S563 N565 1.610 1_554 S
N564 S563 1.613 . S
N564 C567 1.350 1_554 S
N565 S563 1.610 1_556 S
N565 C566 1.351 . S
C566 C560 1.428 . S
C566 N565 1.351 . S
C566 C567 1.434 . S
C567 C558 1.429 . S
C567 N564 1.350 1_556 S
C567 C566 1.434 . S
C568 C569 1.369 . S
C568 C570 1.419 . S
C568 H572 0.930 . S
C569 C568 1.369 . S
C569 C578 1.429 . S
C570 C568 1.419 . S
C570 C571 1.363 . S
C570 H573 0.929 . S
C571 C570 1.363 . S
C571 C577 1.428 . S
H572 C568 0.930 . S
H573 C570 0.929 . S
S574 N575 1.613 . S
S574 N576 1.610 . S
N575 S574 1.613 . S
N575 C578 1.350 . S
N576 S574 1.610 . S
N576 C577 1.351 . S
C577 C571 1.428 . S
C577 N576 1.351 . S
C577 C578 1.434 . S
C578 C569 1.429 . S
C578 N575 1.350 . S
C578 C577 1.434 . S
C579 C580 1.369 . S
C579 C581 1.419 . S
C579 H583 0.930 . S
C580 C579 1.369 . S
C580 C589 1.429 . S
C581 C579 1.419 . S
C581 C582 1.363 . S
C581 H584 0.929 . S
C582 C581 1.363 . S
C582 C588 1.428 . S
H583 C579 0.930 . S
H584 C581 0.929 . S
S585 N586 1.613 . S
S585 N587 1.610 . S
N586 S585 1.613 . S
N586 C589 1.350 . S
N587 S585 1.610 . S
N587 C588 1.351 . S
C588 C582 1.428 . S
C588 N587 1.351 . S
C588 C589 1.434 . S
C589 C580 1.429 . S
C589 N586 1.350 . S
C589 C588 1.434 . S
C590 C591 1.369 . S
C590 C592 1.419 . S
C590 H594 0.930 . S
C591 C590 1.369 . S
C591 C600 1.429 . S
C592 C590 1.419 . S
C592 C593 1.363 . S
C592 H595 0.929 . S
C593 C592 1.363 . S
C593 C599 1.428 . S
H594 C590 0.930 . S
H595 C592 0.929 . S
S596 N597 1.613 . S
S596 N598 1.610 . S
N597 S596 1.613 . S
N597 C600 1.350 . S
N598 S596 1.610 . S
N598 C599 1.351 . S
C599 C593 1.428 . S
C599 N598 1.351 . S
C599 C600 1.434 . S
C600 C591 1.429 . S
C600 N597 1.350 . S
C600 C599 1.434 . S
C601 C602 1.369 . S
C601 C603 1.419 . S
C601 H605 0.930 . S
C602 C601 1.369 . S
C602 C611 1.429 . S
C603 C601 1.419 . S
C603 C604 1.363 . S
C603 H606 0.929 . S
C604 C603 1.363 . S
C604 C610 1.428 . S
H605 C601 0.930 . S
H606 C603 0.929 . S
S607 N608 1.613 . S
S607 N609 1.610 . S
N608 S607 1.613 . S
N608 C611 1.350 . S
N609 S607 1.610 . S
N609 C610 1.351 . S
C610 C604 1.428 . S
C610 N609 1.351 . S
C610 C611 1.434 . S
C611 C602 1.429 . S
C611 N608 1.350 . S
C611 C610 1.434 . S
C612 C613 1.369 . S
C612 C614 1.419 . S
C612 H616 0.930 . S
C613 C612 1.369 . S
C613 C622 1.429 . S
C614 C612 1.419 . S
C614 C615 1.363 . S
C614 H617 0.929 . S
C615 C614 1.363 . S
C615 C621 1.428 . S
H616 C612 0.930 . S
H617 C614 0.929 . S
S618 N619 1.613 . S
S618 N620 1.610 . S
N619 S618 1.613 . S
N619 C622 1.350 . S
N620 S618 1.610 . S
N620 C621 1.351 . S
C621 C615 1.428 . S
C621 N620 1.351 . S
C621 C622 1.434 . S
C622 C613 1.429 . S
C622 N619 1.350 . S
C622 C621 1.434 . S
C623 C624 1.369 . S
C623 C625 1.419 . S
C623 H627 0.930 . S
C624 C623 1.369 . S
C624 C633 1.429 . S
C625 C623 1.419 . S
C625 C626 1.363 . S
C625 H628 0.929 . S
C626 C625 1.363 . S
C626 C632 1.428 . S
H627 C623 0.930 . S
H628 C625 0.929 . S
S629 N630 1.613 . S
S629 N631 1.610 . S
N630 S629 1.613 . S
N630 C633 1.350 . S
N631 S629 1.610 . S
N631 C632 1.351 . S
C632 C626 1.428 . S
C632 N631 1.351 . S
C632 C633 1.434 . S
C633 C624 1.429 . S
C633 N630 1.350 . S
C633 C632 1.434 . S
C634 C635 1.369 . S
C634 C636 1.419 . S
C634 H638 0.930 . S
C635 C634 1.369 . S
C635 C644 1.429 . S
C636 C634 1.419 . S
C636 C637 1.363 . S
C636 H639 0.929 . S
C637 C636 1.363 . S
C637 C643 1.428 . S
H638 C634 0.930 . S
H639 C636 0.929 . S
S640 N641 1.613 . S
S640 N642 1.610 . S
N641 S640 1.613 . S
N641 C644 1.350 . S
N642 S640 1.610 . S
N642 C643 1.351 . S
C643 C637 1.428 . S
C643 N642 1.351 . S
C643 C644 1.434 . S
C644 C635 1.429 . S
C644 N641 1.350 . S
C644 C643 1.434 . S
C645 C646 1.369 . S
C645 C647 1.419 . S
C645 H649 0.930 . S
C646 C645 1.369 . S
C646 C655 1.429 . S
C647 C645 1.419 . S
C647 C648 1.363 . S
C647 H650 0.929 . S
C648 C647 1.363 . S
C648 C654 1.428 . S
H649 C645 0.930 . S
H650 C647 0.929 . S
S651 N652 1.613 . S
S651 N653 1.610 . S
N652 S651 1.613 . S
N652 C655 1.350 . S
N653 S651 1.610 . S
N653 C654 1.351 . S
C654 C648 1.428 . S
C654 N653 1.351 . S
C654 C655 1.434 . S
C655 C646 1.429 . S
C655 N652 1.350 . S
C655 C654 1.434 . S
C656 C657 1.369 . S
C656 C658 1.419 . S
C656 H660 0.930 . S
C657 C656 1.369 . S
C657 C666 1.429 . S
C658 C656 1.419 . S
C658 C659 1.363 . S
C658 H661 0.929 . S
C659 C658 1.363 . S
C659 C665 1.428 . S
H660 C656 0.930 . S
H661 C658 0.929 . S
S662 N663 1.613 . S
S662 N664 1.610 . S
N663 S662 1.613 . S
N663 C666 1.350 . S
N664 S662 1.610 . S
N664 C665 1.351 . S
C665 C659 1.428 . S
C665 N664 1.351 . S
C665 C666 1.434 . S
C666 C657 1.429 . S
C666 N663 1.350 . S
C666 C665 1.434 . S
C667 C668 1.369 . S
C667 C669 1.419 . S
C667 H671 0.930 . S
C668 C667 1.369 . S
C668 C677 1.429 . S
C669 C667 1.419 . S
C669 C670 1.363 . S
C669 H672 0.929 . S
C670 C669 1.363 . S
C670 C676 1.428 . S
H671 C667 0.930 . S
H672 C669 0.929 . S
S673 N674 1.613 . S
S673 N675 1.610 . S
N674 S673 1.613 . S
N674 C677 1.350 . S
N675 S673 1.610 . S
N675 C676 1.351 . S
C676 C670 1.428 . S
C676 N675 1.351 . S
C676 C677 1.434 . S
C677 C668 1.429 . S
C677 N674 1.350 . S
C677 C676 1.434 . S
C678 C679 1.369 . S
C678 C680 1.419 . S
C678 H682 0.930 . S
C679 C678 1.369 . S
C679 C688 1.429 . S
C680 C678 1.419 . S
C680 C681 1.363 . S
C680 H683 0.929 . S
C681 C680 1.363 . S
C681 C687 1.428 . S
H682 C678 0.930 . S
H683 C680 0.929 . S
S684 N685 1.613 . S
S684 N686 1.610 . S
N685 S684 1.613 . S
N685 C688 1.350 . S
N686 S684 1.610 . S
N686 C687 1.351 . S
C687 C681 1.428 . S
C687 N686 1.351 . S
C687 C688 1.434 . S
C688 C679 1.429 . S
C688 N685 1.350 . S
C688 C687 1.434 . S
C689 C690 1.369 . S
C689 C691 1.419 . S
C689 H693 0.930 . S
C690 C689 1.369 . S
C690 C699 1.429 . S
C691 C689 1.419 . S
C691 C692 1.363 . S
C691 H694 0.929 . S
C692 C691 1.363 . S
C692 C698 1.428 . S
H693 C689 0.930 . S
H694 C691 0.929 . S
S695 N696 1.613 . S
S695 N697 1.610 . S
N696 S695 1.613 . S
N696 C699 1.350 . S
N697 S695 1.610 . S
N697 C698 1.351 . S
C698 C692 1.428 . S
C698 N697 1.351 . S
C698 C699 1.434 . S
C699 C690 1.429 . S
C699 N696 1.350 . S
C699 C698 1.434 . S
C700 C701 1.369 . S
C700 C702 1.419 . S
C700 H704 0.930 . S
C701 C700 1.369 . S
C701 C710 1.429 . S
C702 C700 1.419 . S
C702 C703 1.363 . S
C702 H705 0.929 . S
C703 C702 1.363 . S
C703 C709 1.428 . S
H704 C700 0.930 . S
H705 C702 0.929 . S
S706 N707 1.613 . S
S706 N708 1.610 . S
N707 S706 1.613 . S
N707 C710 1.350 . S
N708 S706 1.610 . S
N708 C709 1.351 . S
C709 C703 1.428 . S
C709 N708 1.351 . S
C709 C710 1.434 . S
C710 C701 1.429 . S
C710 N707 1.350 . S
C710 C709 1.434 . S
C711 C712 1.369 . S
C711 C713 1.419 . S
C711 H715 0.930 . S
C712 C711 1.369 . S
C712 C721 1.429 . S
C713 C711 1.419 . S
C713 C714 1.363 . S
C713 H716 0.929 . S
C714 C713 1.363 . S
C714 C720 1.428 . S
H715 C711 0.930 . S
H716 C713 0.929 . S
S717 N718 1.613 . S
S717 N719 1.610 . S
N718 S717 1.613 . S
N718 C721 1.350 . S
N719 S717 1.610 . S
N719 C720 1.351 . S
C720 C714 1.428 . S
C720 N719 1.351 . S
C720 C721 1.434 . S
C721 C712 1.429 . S
C721 N718 1.350 . S
C721 C720 1.434 . S
C722 C723 1.369 . S
C722 C724 1.419 . S
C722 H726 0.930 . S
C723 C722 1.369 . S
C723 C732 1.429 . S
C724 C722 1.419 . S
C724 C725 1.363 . S
C724 H727 0.929 . S
C725 C724 1.363 . S
C725 C731 1.428 . S
H726 C722 0.930 . S
H727 C724 0.929 . S
S728 N729 1.613 . S
S728 N730 1.610 . S
N729 S728 1.613 . S
N729 C732 1.350 . S
N730 S728 1.610 . S
N730 C731 1.351 . S
C731 C725 1.428 . S
C731 N730 1.351 . S
C731 C732 1.434 . S
C732 C723 1.429 . S
C732 N729 1.350 . S
C732 C731 1.434 . S
C733 C734 1.369 . S
C733 C735 1.419 . S
C733 H737 0.930 . S
C734 C733 1.369 . S
C734 C743 1.429 . S
C735 C733 1.419 . S
C735 C736 1.363 . S
C735 H738 0.929 . S
C736 C735 1.363 . S
C736 C742 1.428 . S
H737 C733 0.930 . S
H738 C735 0.929 . S
S739 N740 1.613 . S
S739 N741 1.610 . S
N740 S739 1.613 . S
N740 C743 1.350 . S
N741 S739 1.610 . S
N741 C742 1.351 . S
C742 C736 1.428 . S
C742 N741 1.351 . S
C742 C743 1.434 . S
C743 C734 1.429 . S
C743 N740 1.350 . S
C743 C742 1.434 . S
C744 C745 1.369 . S
C744 C746 1.419 . S
C744 H748 0.930 . S
C745 C744 1.369 . S
C745 C754 1.429 . S
C746 C744 1.419 . S
C746 C747 1.363 . S
C746 H749 0.929 . S
C747 C746 1.363 . S
C747 C753 1.428 . S
H748 C744 0.930 . S
H749 C746 0.929 . S
S750 N751 1.613 . S
S750 N752 1.610 . S
N751 S750 1.613 . S
N751 C754 1.350 . S
N752 S750 1.610 . S
N752 C753 1.351 . S
C753 C747 1.428 . S
C753 N752 1.351 . S
C753 C754 1.434 . S
C754 C745 1.429 . S
C754 N751 1.350 . S
C754 C753 1.434 . S
C755 C756 1.369 . S
C755 C757 1.419 . S
C755 H759 0.930 . S
C756 C755 1.369 . S
C756 C765 1.429 . S
C757 C755 1.419 . S
C757 C758 1.363 . S
C757 H760 0.929 . S
C758 C757 1.363 . S
C758 C764 1.428 . S
H759 C755 0.930 . S
H760 C757 0.929 . S
S761 N762 1.613 1_556 S
S761 N763 1.610 . S
N762 S761 1.613 1_554 S
N762 C765 1.350 . S
N763 S761 1.610 . S
N763 C764 1.351 1_556 S
C764 C758 1.428 . S
C764 N763 1.351 1_554 S
C764 C765 1.434 . S
C765 C756 1.429 . S
C765 N762 1.350 . S
C765 C764 1.434 . S
C766 C767 1.369 . S
C766 C768 1.419 . S
C766 H770 0.930 . S
C767 C766 1.369 . S
C767 C776 1.429 . S
C768 C766 1.419 . S
C768 C769 1.363 . S
C768 H771 0.929 . S
C769 C768 1.363 . S
C769 C775 1.428 . S
H770 C766 0.930 . S
H771 C768 0.929 . S
S772 N773 1.617 . S
S772 N774 1.610 1_554 S
N773 S772 1.617 . S
N773 C776 1.350 . S
N774 S772 1.610 1_556 S
N774 C775 1.351 1_556 S
C775 C769 1.428 . S
C775 N774 1.351 1_554 S
C775 C776 1.434 . S
C776 C767 1.429 . S
C776 N773 1.350 . S
C776 C775 1.434 . S
C777 C778 1.369 . S
C777 C779 1.419 . S
C777 H781 0.930 . S
C778 C777 1.369 . S
C778 C787 1.429 . S
C779 C777 1.419 . S
C779 C780 1.363 . S
C779 H782 0.929 . S
C780 C779 1.363 . S
C780 C786 1.428 . S
H781 C777 0.930 . S
H782 C779 0.929 . S
S783 N784 1.613 . S
S783 N785 1.610 . S
N784 S783 1.613 . S
N784 C787 1.350 . S
N785 S783 1.610 . S
N785 C786 1.351 . S
C786 C780 1.428 . S
C786 N785 1.351 . S
C786 C787 1.434 . S
C787 C778 1.429 . S
C787 N784 1.350 . S
C787 C786 1.434 . S
C788 C789 1.369 . S
C788 C790 1.419 . S
C788 H792 0.930 . S
C789 C788 1.369 . S
C789 C798 1.429 . S
C790 C788 1.419 . S
C790 C791 1.363 . S
C790 H793 0.929 . S
C791 C790 1.363 . S
C791 C797 1.428 . S
H792 C788 0.930 . S
H793 C790 0.929 . S
S794 N795 1.613 . S
S794 N796 1.610 . S
N795 S794 1.613 . S
N795 C798 1.350 . S
N796 S794 1.610 . S
N796 C797 1.351 . S
C797 C791 1.428 . S
C797 N796 1.351 . S
C797 C798 1.434 . S
C798 C789 1.429 . S
C798 N795 1.350 . S
C798 C797 1.434 . S
C799 C800 1.369 . S
C799 C801 1.419 . S
C799 H803 0.930 . S
C800 C799 1.369 . S
C800 C809 1.429 . S
C801 C799 1.419 . S
C801 C802 1.363 . S
C801 H804 0.929 . S
C802 C801 1.363 . S
C802 C808 1.428 . S
H803 C799 0.930 . S
H804 C801 0.929 . S
S805 N806 1.613 . S
S805 N807 1.610 . S
N806 S805 1.613 . S
N806 C809 1.350 . S
N807 S805 1.610 . S
N807 C808 1.351 . S
C808 C802 1.428 . S
C808 N807 1.351 . S
C808 C809 1.434 . S
C809 C800 1.429 . S
C809 N806 1.350 . S
C809 C808 1.434 . S
C810 C811 1.369 . S
C810 C812 1.419 . S
C810 H814 0.930 . S
C811 C810 1.369 . S
C811 C820 1.429 . S
C812 C810 1.419 . S
C812 C813 1.363 . S
C812 H815 0.929 . S
C813 C812 1.363 . S
C813 C819 1.428 . S
H814 C810 0.930 . S
H815 C812 0.929 . S
S816 N817 1.613 . S
S816 N818 1.610 . S
N817 S816 1.613 . S
N817 C820 1.350 . S
N818 S816 1.610 . S
N818 C819 1.351 . S
C819 C813 1.428 . S
C819 N818 1.351 . S
C819 C820 1.434 . S
C820 C811 1.429 . S
C820 N817 1.350 . S
C820 C819 1.434 . S
C821 C822 1.369 . S
C821 C823 1.419 . S
C821 H825 0.930 . S
C822 C821 1.369 . S
C822 C831 1.429 . S
C823 C821 1.419 . S
C823 C824 1.363 . S
C823 H826 0.929 . S
C824 C823 1.363 . S
C824 C830 1.428 . S
H825 C821 0.930 . S
H826 C823 0.929 . S
S827 N828 1.613 . S
S827 N829 1.610 . S
N828 S827 1.613 . S
N828 C831 1.350 . S
N829 S827 1.610 . S
N829 C830 1.351 . S
C830 C824 1.428 . S
C830 N829 1.351 . S
C830 C831 1.434 . S
C831 C822 1.429 . S
C831 N828 1.350 . S
C831 C830 1.434 . S
C832 C833 1.369 . S
C832 C834 1.419 . S
C832 H836 0.930 . S
C833 C832 1.369 . S
C833 C842 1.429 . S
C834 C832 1.419 . S
C834 C835 1.363 . S
C834 H837 0.929 . S
C835 C834 1.363 . S
C835 C841 1.428 . S
H836 C832 0.930 . S
H837 C834 0.929 . S
S838 N839 1.613 . S
S838 N840 1.610 1_545 S
N839 S838 1.613 . S
N839 C842 1.350 1_545 S
N840 S838 1.610 1_565 S
N840 C841 1.351 . S
C841 C835 1.428 . S
C841 N840 1.351 . S
C841 C842 1.434 . S
C842 C833 1.429 . S
C842 N839 1.350 1_565 S
C842 C841 1.434 . S
C843 C844 1.369 . S
C843 C845 1.419 . S
C843 H847 0.930 . S
C844 C843 1.369 . S
C844 C853 1.429 . S
C845 C843 1.419 . S
C845 C846 1.363 . S
C845 H848 0.929 . S
C846 C845 1.363 . S
C846 C852 1.428 . S
H847 C843 0.930 . S
H848 C845 0.929 . S
S849 N850 1.613 1_554 S
S849 N851 1.610 . S
N850 S849 1.613 1_556 S
N850 C853 1.350 . S
N851 S849 1.610 . S
N851 C852 1.351 1_554 S
C852 C846 1.428 . S
C852 N851 1.351 1_556 S
C852 C853 1.434 . S
C853 C844 1.429 . S
C853 N850 1.350 . S
C853 C852 1.434 . S
C854 C855 1.369 . S
C854 C856 1.419 . S
C854 H858 0.930 . S
C855 C854 1.369 . S
C855 C864 1.429 . S
C856 C854 1.419 . S
C856 C857 1.363 . S
C856 H859 0.929 . S
C857 C856 1.363 . S
C857 C863 1.428 . S
H858 C854 0.930 . S
H859 C856 0.929 . S
S860 N861 1.613 1_554 S
S860 N862 1.610 . S
N861 S860 1.613 1_556 S
N861 C864 1.350 . S
N862 S860 1.610 . S
N862 C863 1.351 1_554 S
C863 C857 1.428 . S
C863 N862 1.351 1_556 S
C863 C864 1.434 . S
C864 C855 1.429 . S
C864 N861 1.350 . S
C864 C863 1.434 . S
C865 C866 1.369 . S
C865 C867 1.419 . S
C865 H869 0.930 . S
C866 C865 1.369 . S
C866 C875 1.429 . S
C867 C865 1.419 . S
C867 C868 1.363 . S
C867 H870 0.929 . S
C868 C867 1.363 . S
C868 C874 1.428 . S
H869 C865 0.930 . S
H870 C867 0.929 . S
S871 N872 1.613 . S
S871 N873 1.610 . S
N872 S871 1.613 . S
N872 C875 1.350 . S
N873 S871 1.610 . S
N873 C874 1.351 . S
C874 C868 1.428 . S
C874 N873 1.351 . S
C874 C875 1.434 . S
C875 C866 1.429 . S
C875 N872 1.350 . S
C875 C874 1.434 . S
C876 C877 1.369 . S
C876 C878 1.419 . S
C876 H880 0.930 . S
C877 C876 1.369 . S
C877 C886 1.429 . S
C878 C876 1.419 . S
C878 C879 1.363 . S
C878 H881 0.929 . S
C879 C878 1.363 . S
C879 C885 1.428 . S
H880 C876 0.930 . S
H881 C878 0.929 . S
S882 N883 1.613 . S
S882 N884 1.610 . S
N883 S882 1.613 . S
N883 C886 1.350 . S
N884 S882 1.610 . S
N884 C885 1.351 . S
C885 C879 1.428 . S
C885 N884 1.351 . S
C885 C886 1.434 . S
C886 C877 1.429 . S
C886 N883 1.350 . S
C886 C885 1.434 . S
C887 C888 1.369 . S
C887 C889 1.419 . S
C887 H891 0.930 . S
C888 C887 1.369 . S
C888 C897 1.429 . S
C889 C887 1.419 . S
C889 C890 1.363 . S
C889 H892 0.929 . S
C890 C889 1.363 . S
C890 C896 1.428 . S
H891 C887 0.930 . S
H892 C889 0.929 . S
S893 N894 1.613 . S
S893 N895 1.610 . S
N894 S893 1.613 . S
N894 C897 1.350 . S
N895 S893 1.610 . S
N895 C896 1.351 . S
C896 C890 1.428 . S
C896 N895 1.351 . S
C896 C897 1.434 . S
C897 C888 1.429 . S
C897 N894 1.350 . S
C897 C896 1.434 . S
C898 C899 1.369 . S
C898 C900 1.419 . S
C898 H902 0.930 . S
C899 C898 1.369 . S
C899 C908 1.429 . S
C900 C898 1.419 . S
C900 C901 1.363 . S
C900 H903 0.929 . S
C901 C900 1.363 . S
C901 C907 1.428 . S
H902 C898 0.930 . S
H903 C900 0.929 . S
S904 N905 1.613 . S
S904 N906 1.610 . S
N905 S904 1.613 . S
N905 C908 1.350 . S
N906 S904 1.610 . S
N906 C907 1.351 . S
C907 C901 1.428 . S
C907 N906 1.351 . S
C907 C908 1.434 . S
C908 C899 1.429 . S
C908 N905 1.350 . S
C908 C907 1.434 . S
C909 C910 1.369 . S
C909 C911 1.419 . S
C909 H913 0.930 1_554 S
C910 C909 1.369 . S
C910 C919 1.429 . S
C911 C909 1.419 . S
C911 C912 1.363 . S
C911 H914 0.929 . S
C912 C911 1.363 . S
C912 C918 1.428 . S
H913 C909 0.930 1_556 S
H914 C911 0.929 . S
S915 N916 1.613 . S
S915 N917 1.610 . S
N916 S915 1.613 . S
N916 C919 1.350 . S
N917 S915 1.610 . S
N917 C918 1.351 . S
C918 C912 1.428 . S
C918 N917 1.351 . S
C918 C919 1.434 . S
C919 C910 1.429 . S
C919 N916 1.350 . S
C919 C918 1.434 . S
C920 C921 1.369 . S
C920 C922 1.419 . S
C920 H924 0.930 . S
C921 C920 1.369 . S
C921 C930 1.429 . S
C922 C920 1.419 . S
C922 C923 1.363 . S
C922 H925 0.929 . S
C923 C922 1.363 . S
C923 C929 1.428 . S
H924 C920 0.930 . S
H925 C922 0.929 . S
S926 N927 1.613 . S
S926 N928 1.610 . S
N927 S926 1.613 . S
N927 C930 1.350 . S
N928 S926 1.610 . S
N928 C929 1.351 . S
C929 C923 1.428 . S
C929 N928 1.351 . S
C929 C930 1.434 . S
C930 C921 1.429 . S
C930 N927 1.350 . S
C930 C929 1.434 . S
C931 C932 1.369 . S
C931 C933 1.419 . S
C931 H935 0.930 . S
C932 C931 1.369 . S
C932 C941 1.429 . S
C933 C931 1.419 . S
C933 C934 1.363 . S
C933 H936 0.929 1_554 S
C934 C933 1.363 . S
C934 C940 1.428 . S
H935 C931 0.930 . S
H936 C933 0.929 1_556 S
S937 N938 1.613 . S
S937 N939 1.610 . S
N938 S937 1.613 . S
N938 C941 1.350 . S
N939 S937 1.610 . S
N939 C940 1.351 . S
C940 C934 1.428 . S
C940 N939 1.351 . S
C940 C941 1.434 . S
C941 C932 1.429 . S
C941 N938 1.350 . S
C941 C940 1.434 . S
C942 C943 1.369 . S
C942 C944 1.419 1_655 S
C942 H946 0.930 . S
C943 C942 1.369 . S
C943 C952 1.429 . S
C944 C942 1.419 1_455 S
C944 C945 1.363 . S
C944 H947 0.929 . S
C945 C944 1.363 . S
C945 C951 1.428 . S
H946 C942 0.930 . S
H947 C944 0.929 . S
S948 N949 1.613 1_455 S
S948 N950 1.610 . S
N949 S948 1.613 1_655 S
N949 C952 1.350 . S
N950 S948 1.610 . S
N950 C951 1.351 . S
C951 C945 1.428 . S
C951 N950 1.351 . S
C951 C952 1.434 1_455 S
C952 C943 1.429 . S
C952 N949 1.350 . S
C952 C951 1.434 1_655 S
C953 C954 1.369 . S
C953 C955 1.419 . S
C953 H957 0.930 . S
C954 C953 1.369 . S
C954 C963 1.429 . S
C955 C953 1.419 . S
C955 C956 1.363 . S
C955 H958 0.929 . S
C956 C955 1.363 . S
C956 C962 1.428 . S
H957 C953 0.930 . S
H958 C955 0.929 . S
S959 N960 1.613 . S
S959 N961 1.610 . S
N960 S959 1.613 . S
N960 C963 1.350 . S
N961 S959 1.610 . S
N961 C962 1.351 . S
C962 C956 1.428 . S
C962 N961 1.351 . S
C962 C963 1.434 . S
C963 C954 1.429 . S
C963 N960 1.350 . S
C963 C962 1.434 . S
C964 C965 1.369 . S
C964 C966 1.419 1_565 S
C964 H968 0.930 . S
C965 C964 1.369 . S
C965 C974 1.429 1_565 S
C966 C964 1.419 1_545 S
C966 C967 1.363 . S
C966 H969 0.929 . S
C967 C966 1.363 . S
C967 C973 1.428 . S
H968 C964 0.930 . S
H969 C966 0.929 . S
S970 N971 1.613 . S
S970 N972 1.610 . S
N971 S970 1.613 . S
N971 C974 1.350 . S
N972 S970 1.610 . S
N972 C973 1.351 . S
C973 C967 1.428 . S
C973 N972 1.351 . S
C973 C974 1.434 . S
C974 C965 1.429 1_545 S
C974 N971 1.350 . S
C974 C973 1.434 . S
C975 C976 1.369 1_545 S
C975 C977 1.419 . S
C975 H979 0.930 1_545 S
C976 C975 1.369 1_565 S
C976 C985 1.417 1_565 S
C977 C975 1.419 . S
C977 C978 1.363 . S
C977 H980 0.929 . S
C978 C977 1.363 . S
C978 C984 1.428 . S
H979 C975 0.930 1_565 S
H980 C977 0.929 . S
S981 N982 1.613 1_545 S
S981 N983 1.610 . S
N982 S981 1.613 1_565 S
N982 C985 1.351 1_565 S
N983 S981 1.610 . S
N983 C984 1.351 . S
C984 C978 1.428 . S
C984 N983 1.351 . S
C984 C985 1.446 . S
C985 C976 1.417 1_545 S
C985 N982 1.351 1_545 S
C985 C984 1.446 . S
C986 C987 1.369 . S
C986 C988 1.419 1_455 S
C986 H990 0.930 . S
C987 C986 1.369 . S
C987 C996 1.429 . S
C988 C986 1.419 1_655 S
C988 C989 1.363 . S
C988 H991 0.929 . S
C989 C988 1.363 . S
C989 C995 1.428 . S
H990 C986 0.930 . S
H991 C988 0.929 . S
S992 N993 1.613 . S
S992 N994 1.610 1_455 S
N993 S992 1.613 . S
N993 C996 1.350 . S
N994 S992 1.610 1_655 S
N994 C995 1.351 . S
C995 C989 1.428 . S
C995 N994 1.351 . S
C995 C996 1.434 1_655 S
C996 C987 1.429 . S
C996 N993 1.350 . S
C996 C995 1.434 1_455 S
C997 C998 1.369 . S
C997 C999 1.419 . S
C997 H1001 0.930 . S
C998 C997 1.369 . S
C998 C1007 1.429 . S
C999 C997 1.419 . S
C999 C1000 1.363 . S
C999 H1002 0.929 . S
C1000 C999 1.363 . S
C1000 C1006 1.428 . S
H1001 C997 0.930 . S
H1002 C999 0.929 . S
S1003 N1004 1.613 . S
S1003 N1005 1.610 . S
N1004 S1003 1.613 . S
N1004 C1007 1.350 . S
N1005 S1003 1.610 . S
N1005 C1006 1.351 . S
C1006 C1000 1.428 . S
C1006 N1005 1.351 . S
C1006 C1007 1.434 . S
C1007 C998 1.429 . S
C1007 N1004 1.350 . S
C1007 C1006 1.434 . S
C415 C18 1.483 . S
C417 C111 1.468 . S
C426 C134 1.467 . S
C428 C41 1.483 . S
C437 C64 1.479 . S
C439 C88 1.473 . S
C448 C63 1.782 . S
C450 C112 1.882 . S
C459 C135 1.884 . S
C461 C17 1.779 . S
C470 C40 1.785 . S
C472 C89 1.880 . S
C481 C42 1.828 . S
C483 C86 1.831 . S
C492 C65 1.832 . S
C494 C109 1.829 . S
C503 C132 1.822 . S
C505 C19 1.838 . S
C514 C133 1.491 . S
C516 C43 1.481 . S
C525 C66 1.480 . S
C527 C87 1.491 . S
C536 C20 1.481 . S
C538 C110 1.494 . S
C547 C249 1.473 . S
C549 C156 1.480 . S
C558 C179 1.476 . S
C560 C272 1.475 . S
C569 C202 1.478 . S
C571 C226 1.473 . S
C580 C250 1.881 . S
C582 C201 1.783 . S
C591 C273 1.885 . S
C593 C155 1.777 . S
C602 C227 1.883 . S
C604 C178 1.779 . S
C613 C180 1.830 . S
C615 C224 1.831 . S
C624 C203 1.833 . S
C626 C247 1.826 . S
C635 C157 1.830 . S
C637 C270 1.831 . S
C646 C181 1.485 . S
C648 C271 1.493 . S
C657 C204 1.479 . S
C659 C225 1.493 . S
C668 C248 1.493 . S
C670 C158 1.480 . S
C679 C294 1.479 . S
C681 C387 1.472 . S
C690 C317 1.479 . S
C692 C410 1.472 . S
C701 C364 1.468 . S
C703 C340 1.483 . S
C712 C388 1.887 . S
C714 C339 1.776 . S
C723 C293 1.785 . S
C725 C411 1.881 . S
C734 C316 1.785 . S
C736 C365 1.880 . S
C745 C318 1.829 . S
C747 C362 1.830 . S
C756 C341 1.834 . S
C758 C385 1.826 . S
C767 C295 1.833 . S
C769 C408 1.827 . S
C778 C409 1.495 . S
C780 C319 1.481 . S
C789 C363 1.489 . S
C791 C342 1.482 . S
C800 C296 1.485 . S
C802 C386 1.490 . S
C811 C16 1.392 . S
C813 C320 1.369 . S
C822 C39 1.393 . S
C824 C343 1.365 . S
C833 C62 1.389 . S
C835 C297 1.371 . S
C844 C67 1.369 . S
C846 C177 1.390 . S
C855 C21 1.364 . S
C857 C200 1.393 . S
C866 C44 1.365 . S
C868 C154 1.393 . S
C877 C246 1.446 . S
C879 C90 1.429 . S
C888 C113 1.428 . S
C890 C269 1.445 . S
C899 C136 1.434 . S
C901 C223 1.443 . S
C910 C389 1.429 . S
C912 C131 1.443 . S
C921 C85 1.446 . S
C923 C412 1.429 . S
C932 C108 1.446 . S
C934 C366 1.429 . S
C943 C205 1.371 . S
C945 C315 1.390 . S
C954 C159 1.368 . S
C956 C338 1.390 . S
C965 C292 1.391 . S
C967 C182 1.367 . S
C976 C384 1.446 . S
C978 C228 1.431 . S
C987 C407 1.446 . S
C989 C251 1.432 . S
C998 C274 1.428 . S
C1000 C361 1.445 . S
