# Generated by pormake.
# Topology vby, (6)-cn, num edge types: 1
# Building blocks:
#     Node 0, Type 0, BuildingBlock: KUMJIN_clean_sbu_0, # of connection points: 6
#     Node 1, Type 0, BuildingBlock: KUMJIN_clean_sbu_0, # of connection points: 6
#     Node 2, Type 0, BuildingBlock: KUMJIN_clean_sbu_0, # of connection points: 6
#     Node 3, Type 0, BuildingBlock: KUMJIN_clean_sbu_0, # of connection points: 6
#     Node 4, Type 0, BuildingBlock: KUMJIN_clean_sbu_0, # of connection points: 6
#     Node 5, Type 0, BuildingBlock: KUMJIN_clean_sbu_0, # of connection points: 6
#     Node 6, Type 0, BuildingBlock: KUMJIN_clean_sbu_0, # of connection points: 6
#     Node 7, Type 0, BuildingBlock: KUMJIN_clean_sbu_0, # of connection points: 6
#     Edge 8, Type (0, 0), BuildingBlock: XIVTED_clean_linker_0, # of connection points: 2
#     Edge 9, Type (0, 0), BuildingBlock: XIVTED_clean_linker_0, # of connection points: 2
#     Edge 10, Type (0, 0), BuildingBlock: XIVTED_clean_linker_0, # of connection points: 2
#     Edge 11, Type (0, 0), BuildingBlock: XIVTED_clean_linker_0, # of connection points: 2
#     Edge 12, Type (0, 0), BuildingBlock: XIVTED_clean_linker_0, # of connection points: 2
#     Edge 13, Type (0, 0), BuildingBlock: XIVTED_clean_linker_0, # of connection points: 2
#     Edge 14, Type (0, 0), BuildingBlock: XIVTED_clean_linker_0, # of connection points: 2
#     Edge 15, Type (0, 0), BuildingBlock: XIVTED_clean_linker_0, # of connection points: 2
#     Edge 16, Type (0, 0), BuildingBlock: XIVTED_clean_linker_0, # of connection points: 2
#     Edge 17, Type (0, 0), BuildingBlock: XIVTED_clean_linker_0, # of connection points: 2
#     Edge 18, Type (0, 0), BuildingBlock: XIVTED_clean_linker_0, # of connection points: 2
#     Edge 19, Type (0, 0), BuildingBlock: XIVTED_clean_linker_0, # of connection points: 2
#     Edge 20, Type (0, 0), BuildingBlock: XIVTED_clean_linker_0, # of connection points: 2
#     Edge 21, Type (0, 0), BuildingBlock: XIVTED_clean_linker_0, # of connection points: 2
#     Edge 22, Type (0, 0), BuildingBlock: XIVTED_clean_linker_0, # of connection points: 2
#     Edge 23, Type (0, 0), BuildingBlock: XIVTED_clean_linker_0, # of connection points: 2
#     Edge 24, Type (0, 0), BuildingBlock: XIVTED_clean_linker_0, # of connection points: 2
#     Edge 25, Type (0, 0), BuildingBlock: XIVTED_clean_linker_0, # of connection points: 2
#     Edge 26, Type (0, 0), BuildingBlock: XIVTED_clean_linker_0, # of connection points: 2
#     Edge 27, Type (0, 0), BuildingBlock: XIVTED_clean_linker_0, # of connection points: 2
#     Edge 28, Type (0, 0), BuildingBlock: XIVTED_clean_linker_0, # of connection points: 2
#     Edge 29, Type (0, 0), BuildingBlock: XIVTED_clean_linker_0, # of connection points: 2
#     Edge 30, Type (0, 0), BuildingBlock: XIVTED_clean_linker_0, # of connection points: 2
#     Edge 31, Type (0, 0), BuildingBlock: XIVTED_clean_linker_0, # of connection points: 2
# Relax obj value: 0.108
# Max RMSD: 0.195
# Mean RMSD: 0.195
data_MOF--net-vby--node1-KUMJIN_clean_sbu_0--edge1-XIVTED_clean_linker_0
_symmetry_space_group_name_H-M    P1
_symmetry_Int_Tables_number       1
_symmetry_cell_setting            triclinic
loop_
_symmetry_equiv_pos_as_xyz
'x, y, z'
_cell_length_a     14.43428
_cell_length_b     99.001559
_cell_length_c     30.571493
_cell_angle_alpha  115.44476
_cell_angle_beta   90.0371
_cell_angle_gamma 90.264361
loop_
_atom_site_label
_atom_site_type_symbol
_atom_site_fract_x
_atom_site_fract_y
_atom_site_fract_z
_atom_type_partial_charge
Eu0 Eu 0.14036 0.40319 0.02628 0.0
C1 C 0.94694 0.34379 0.89217 0.0
C2 C 0.80027 0.34444 0.93132 0.0
C3 C 0.81135 0.33169 0.84363 0.0
C4 C 0.89455 0.34858 0.93387 0.0
C5 C 0.90678 0.33481 0.84673 0.0
C6 C 0.75814 0.33649 0.8859 0.0
C7 C 0.06037 0.33059 0.81219 0.0
N8 N 1.03941 0.34655 0.89673 0.0
C9 C 0.09702 0.33939 0.85815 0.0
C10 C 0.9646 0.32854 0.80625 0.0
Eu11 Eu 0.09652 0.36228 0.97528 0.0
N12 N 0.93793 0.35601 0.97717 0.0
C13 C 0.89303 0.35841 0.01922 0.0
C14 C 0.75237 0.3478 0.97448 0.0
C15 C 0.79952 0.35454 0.01857 0.0
H16 H 0.17112 0.34104 0.86263 0.0
H17 H 0.76376 0.35686 0.05213 0.0
H18 H 0.68543 0.33346 0.88322 0.0
H19 H 0.10599 0.32539 0.78142 0.0
H20 H 0.92807 0.36368 0.05367 0.0
H21 H 0.39726 0.39777 0.88733 0.0
H22 H 0.67994 0.34483 0.9741 0.0
H23 H 0.15637 0.42356 0.1475 0.0
H24 H 0.24709 0.39423 0.91761 0.0
H25 H 0.27557 0.43675 0.20901 0.0
H26 H 0.77892 0.325 0.80896 0.0
H27 H 0.5249 0.41037 0.94438 0.0
H28 H 0.58181 0.42308 0.02975 0.0
H29 H 0.93644 0.32159 0.77071 0.0
H30 H 0.5501 0.43304 0.11692 0.0
N31 N 0.28601 0.40488 0.99227 0.0
C32 C 0.30046 0.39992 0.94356 0.0
C33 C 0.45813 0.40902 0.95822 0.0
C34 C 0.44297 0.41433 0.00798 0.0
C35 C 0.38632 0.40189 0.92593 0.0
C36 C 0.35464 0.41227 0.02426 0.0
H37 H 0.43675 0.43814 0.18394 0.0
N38 N 0.25084 0.41606 0.08828 0.0
C39 C 0.2943 0.43125 0.17111 0.0
C40 C 0.33701 0.41778 0.0735 0.0
C41 C 0.22729 0.42355 0.13614 0.0
C42 C 0.38503 0.43205 0.1568 0.0
C43 C 0.40691 0.42561 0.10749 0.0
O44 O 0.07776 0.42513 0.06771 0.0
O45 O 1.03215 0.38508 -0.00131 0.0
O46 O 0.07581 0.36859 0.91329 0.0
O47 O 0.09591 0.39461 0.94709 0.0
O48 O 0.99603 0.40462 0.05789 0.0
O49 O 0.13687 0.41982 -0.0028 0.0
O50 O 0.18493 0.34255 0.9552 0.0
O51 O 0.20486 0.38058 0.00642 0.0
O52 O 0.14419 0.39719 0.08986 0.0
O53 O 0.08419 0.37282 0.05705 0.0
O54 O 0.24182 0.36147 0.94592 0.0
O55 O 0.09001 0.34831 0.01462 0.0
C56 C 0.96634 0.3916 0.0277 0.0
C57 C 1.01775 0.43773 0.02295 0.0
C58 C 0.96611 0.45962 0.01189 0.0
C59 C 1.03594 0.45181 0.02374 0.0
C60 C 0.87757 0.45301 -0.00062 0.0
C61 C 0.9293 0.43134 0.01008 0.0
C62 C 0.85956 0.439 -0.00147 0.0
C63 C 0.07825 0.38149 0.91027 0.0
C64 C 0.09296 0.42973 0.03421 0.0
C65 C 0.49549 0.42721 0.09131 0.0
C66 C 0.51342 0.4216 0.04169 0.0
C67 C 0.27132 0.3742 0.97778 0.0
C68 C 0.11922 0.32259 0.96793 0.0
C69 C 0.16888 0.31236 0.97973 0.0
C70 C 0.14051 0.2972 0.96118 0.0
C71 C 0.06174 0.29257 0.9311 0.0
C72 C 1.04075 0.3176 0.93814 0.0
C73 C 1.01239 0.30272 0.91979 0.0
C74 C 0.1121 0.38525 0.09385 0.0
C75 C 0.14859 0.33843 0.98656 0.0
H76 H 0.10444 0.4567 0.03393 0.0
H77 H 0.82247 0.45853 0.98936 0.0
H78 H 0.91441 0.42043 0.00872 0.0
H79 H 0.79136 0.43401 0.98851 0.0
H80 H 0.22961 0.31614 0.00277 0.0
H81 H 1.03703 0.28113 0.91697 0.0
H82 H 1.00094 0.32521 0.92921 0.0
H83 H 0.95148 0.29905 0.89692 0.0
Eu84 Eu 0.97531 0.65469 0.03657 0.0
C85 C 0.74478 0.59794 0.9186 0.0
C86 C 0.62202 0.59988 0.9751 0.0
C87 C 0.59243 0.58731 0.88857 0.0
C88 C 0.71392 0.60289 0.96586 0.0
C89 C 0.68499 0.58969 0.87949 0.0
C90 C 0.56102 0.59239 0.93627 0.0
C91 C 0.81523 0.5851 0.82554 0.0
N92 N 0.83463 0.60035 0.91083 0.0
C93 C 0.87179 0.59325 0.86548 0.0
C94 C 0.72094 0.58357 0.83247 0.0
Eu95 Eu 0.92677 0.61392 0.98032 0.0
N96 N 0.77401 0.61033 0.00278 0.0
C97 C 0.748 0.61415 0.04967 0.0
C98 C 0.59435 0.60429 0.02309 0.0
C99 C 0.65803 0.61126 0.06046 0.0
H100 H 0.94512 0.59427 0.86008 0.0
H101 H 0.63761 0.61458 0.09771 0.0
H102 H 0.48994 0.59019 0.94277 0.0
H103 H 0.84451 0.57995 0.78952 0.0
H104 H 0.79513 0.61973 0.07937 0.0
H105 H 0.31524 0.66302 0.97266 0.0
H106 H 0.52443 0.6022 0.03162 0.0
H107 H 0.88794 0.67195 0.14894 0.0
H108 H 0.15271 0.65477 0.96493 0.0
H109 H 0.94233 0.68739 0.23236 0.0
H110 H 0.5453 0.58117 0.85896 0.0
H111 H 0.38766 0.6757 0.05366 0.0
H112 H 0.36989 0.68682 0.14403 0.0
H113 H 0.67729 0.57716 0.80152 0.0
H114 H 0.2681 0.69362 0.2148 0.0
N115 N 0.13267 0.66228 0.04074 0.0
C116 C 0.18278 0.66031 0.00056 0.0
C117 C 0.31601 0.67208 0.05051 0.0
C118 C 0.2628 0.6749 0.09172 0.0
C119 C 0.27529 0.66498 0.00476 0.0
C120 C 0.1699 0.66989 0.0856 0.0
H121 H 0.10817 0.6942 0.24799 0.0
N122 N 1.02206 0.66968 0.11776 0.0
C123 C 0.99104 0.68358 0.20263 0.0
C124 C 0.1127 0.67379 0.1254 0.0
C125 C 0.96045 0.67485 0.15531 0.0
C126 C 0.08476 0.68737 0.21132 0.0
C127 C 0.14668 0.68267 0.17242 0.0
O128 O 0.88688 0.67437 0.05591 0.0
O129 O 0.86473 0.6368 0.00424 0.0
O130 O 0.91341 0.62194 0.92107 0.0
O131 O 0.99754 0.6443 0.95516 0.0
O132 O 0.82994 0.65537 0.06636 0.0
O133 O 0.98524 0.66883 -0.00212 0.0
O134 O 0.9982 0.59254 0.94333 0.0
O135 O 1.036 0.63168 0.00969 0.0
O136 O 1.0143 0.64657 0.09266 0.0
O137 O 0.95003 0.62254 0.06197 0.0
O138 O 0.07367 0.61245 0.95044 0.0
O139 O 0.92501 0.59749 0.01029 0.0
C140 C 0.79896 0.64293 0.03355 0.0
C141 C 0.95351 0.69451 0.04446 0.0
C142 C 0.93303 0.71986 0.05063 0.0
C143 C 0.90575 0.70463 0.03134 0.0
C144 C 1.00921 0.72463 0.08252 0.0
C145 C 1.02877 0.6997 0.07644 0.0
C146 C 0.05649 0.71462 0.09525 0.0
C147 C 0.95806 0.6332 0.91774 0.0
C148 C 0.92518 0.6786 0.02519 0.0
C149 C 0.24044 0.68694 0.17891 0.0
C150 C 0.29842 0.68305 0.13862 0.0
C151 C 0.10326 0.62532 0.98175 0.0
C152 C 0.0494 0.58056 0.9916 0.0
C153 C 1.03125 0.56652 0.99119 0.0
C154 C 0.0994 0.55919 0.00607 0.0
C155 C 0.18612 0.56624 0.02139 0.0
C156 C 0.13596 0.5874 0.00735 0.0
C157 C 0.20398 0.58023 0.02204 0.0
C158 C 0.98962 0.63434 0.09709 0.0
C159 C 0.97649 0.58791 0.9761 0.0
H160 H 0.8471 0.70073 0.00684 0.0
H161 H 1.03327 0.73612 0.09722 0.0
H162 H 0.06641 0.69224 0.08687 0.0
H163 H 0.1151 0.71842 0.11974 0.0
H164 H 0.96428 0.56126 0.97874 0.0
H165 H 0.2398 0.56106 0.03367 0.0
H166 H 0.15079 0.59827 0.00836 0.0
H167 H 0.27076 0.58555 0.0342 0.0
Eu168 Eu 0.15937 0.61157 0.4774 0.0
C169 C 0.97476 0.67103 0.61822 0.0
C170 C 0.82882 0.6716 0.58004 0.0
C171 C 0.84173 0.68342 0.66779 0.0
C172 C 0.92206 0.66703 0.57676 0.0
C173 C 0.93618 0.67976 0.66412 0.0
C174 C 0.7881 0.67934 0.62578 0.0
C175 C 0.0899 0.68264 0.6984 0.0
N176 N 0.06634 0.66772 0.61326 0.0
C177 C 0.12501 0.67408 0.65205 0.0
C178 C 0.99475 0.68523 0.70463 0.0
Eu179 Eu 0.12103 0.6527 0.53391 0.0
N180 N 0.96396 0.65972 0.53315 0.0
C181 C 0.91858 0.65778 0.49157 0.0
C182 C 0.78039 0.66877 0.53732 0.0
C183 C 0.82604 0.66207 0.49296 0.0
H184 H 0.19862 0.67202 0.64733 0.0
H185 H 0.78986 0.66013 0.45975 0.0
H186 H 0.71619 0.68272 0.62899 0.0
H187 H 0.13622 0.68723 0.72925 0.0
H188 H 0.95229 0.65257 0.45688 0.0
H189 H 0.39719 0.61394 0.62137 0.0
H190 H 0.70869 0.67208 0.53827 0.0
H191 H 0.19782 0.59558 0.35533 0.0
H192 H 0.25218 0.61768 0.58808 0.0
H193 H 0.32679 0.58569 0.29891 0.0
H194 H 0.81049 0.68993 0.70278 0.0
H195 H 0.53201 0.60334 0.56822 0.0
H196 H 0.60066 0.59335 0.48565 0.0
H197 H 0.9678 0.69198 0.74051 0.0
H198 H 0.58292 0.58638 0.39877 0.0
N199 N 0.30038 0.6094 0.51502 0.0
C200 C 0.30852 0.61305 0.56346 0.0
C201 C 0.46746 0.60489 0.55288 0.0
C202 C 0.45925 0.60099 0.5034 0.0
C203 C 0.39166 0.6109 0.58296 0.0
C204 C 0.37355 0.60326 0.48508 0.0
H205 H 0.48228 0.58375 0.32928 0.0
N206 N 0.28068 0.60161 0.41914 0.0
C207 C 0.33888 0.58983 0.33747 0.0
C208 C 0.36388 0.59949 0.43608 0.0
C209 C 0.2662 0.59594 0.37007 0.0
C210 C 0.42624 0.58866 0.3547 0.0
C211 C 0.43918 0.59314 0.40429 0.0
O212 O 0.11017 0.58945 0.42681 0.0
O213 O 0.05496 0.62995 0.507 0.0
O214 O 0.09497 0.64513 0.59299 0.0
O215 O 0.10982 0.61899 0.55549 0.0
O216 O 1.01221 0.61067 0.44882 0.0
O217 O 0.13472 0.59395 0.50157 0.0
O218 O 0.2137 0.67215 0.55655 0.0
O219 O 0.22659 0.63424 0.5 0.0
O220 O 0.14728 0.61822 0.41568 0.0
O221 O 0.10684 0.64351 0.45229 0.0
O222 O 0.26503 0.65251 0.56325 0.0
O223 O 0.11857 0.66753 0.49753 0.0
C224 C 0.98619 0.62379 0.47954 0.0
C225 C 0.16051 0.56912 0.44244 0.0
C226 C 0.17006 0.54444 0.44275 0.0
C227 C 0.12837 0.55866 0.45894 0.0
C228 C 0.24544 0.54102 0.4107 0.0
C229 C 0.23524 0.56527 0.41002 0.0
C230 C 0.27766 0.55137 0.39459 0.0
C231 C 0.0934 0.63185 0.59368 0.0
C232 C 0.11449 0.58381 0.45827 0.0
C233 C 0.52446 0.59112 0.42262 0.0
C234 C 0.53444 0.59502 0.47203 0.0
C235 C 0.29304 0.64005 0.52961 0.0
C236 C 0.15453 0.69292 0.54646 0.0
C237 C 0.19708 0.70253 0.52918 0.0
C238 C 0.17164 0.71778 0.54796 0.0
C239 C 0.10414 0.72318 0.5846 0.0
C240 C 0.08695 0.69865 0.58262 0.0
C241 C 0.06222 0.71367 0.60164 0.0
C242 C 0.12307 0.63082 0.41391 0.0
C243 C 0.17934 0.67691 0.52632 0.0
H244 H 0.06989 0.56147 0.48344 0.0
H245 H 0.28012 0.53033 0.39832 0.0
H246 H 0.26064 0.57287 0.39607 0.0
H247 H 0.33553 0.54859 0.36979 0.0
H248 H 0.24851 0.69811 0.50077 0.0
H249 H 0.08429 0.73485 0.6006 0.0
H250 H 0.05309 0.69156 0.59624 0.0
H251 H 1.01031 0.71796 0.62979 0.0
Eu252 Eu 0.99728 0.35869 0.46348 0.0
C253 C 0.80771 0.41571 0.61285 0.0
C254 C 0.66177 0.41717 0.57599 0.0
C255 C 0.6742 0.4271 0.6636 0.0
C256 C 0.75522 0.41268 0.5718 0.0
C257 C 0.7687 0.42343 0.65927 0.0
C258 C 0.62078 0.42396 0.62201 0.0
C259 C 0.9219 0.42517 0.69339 0.0
N260 N 0.89932 0.41241 0.60737 0.0
C261 C 0.95745 0.41758 0.64658 0.0
C262 C 0.82682 0.42788 0.69982 0.0
Eu263 Eu 0.95435 0.39942 0.52706 0.0
N264 N 0.79732 0.4063 0.52795 0.0
C265 C 0.75215 0.40517 0.48725 0.0
C266 C 0.61337 0.41519 0.53397 0.0
C267 C 0.65927 0.4094 0.48951 0.0
H268 H 1.03093 0.41542 0.64164 0.0
H269 H 0.62304 0.4081 0.45693 0.0
H270 H 0.54874 0.4273 0.6259 0.0
H271 H 0.96776 0.4289 0.72444 0.0
H272 H 0.78681 0.40062 0.45266 0.0
H273 H 0.33294 0.3477 0.52412 0.0
H274 H 0.54144 0.41845 0.53561 0.0
H275 H 0.91148 0.34509 0.35026 0.0
H276 H 0.17181 0.35649 0.53309 0.0
H277 H 0.96612 0.33156 0.26611 0.0
H278 H 0.64263 0.43286 0.69895 0.0
H279 H 0.40484 0.33616 0.44295 0.0
H280 H 0.38774 0.32699 0.35292 0.0
H281 H 0.79953 0.43384 0.7361 0.0
H282 H 0.28785 0.32253 0.2827 0.0
N283 N 0.15243 0.35037 0.45795 0.0
C284 C 0.20184 0.35145 0.49744 0.0
C285 C 0.33385 0.34001 0.44667 0.0
C286 C 0.28133 0.33822 0.40604 0.0
C287 C 0.29345 0.34647 0.49251 0.0
C288 C 0.18935 0.34348 0.41292 0.0
H289 H 0.13025 0.32397 0.24997 0.0
N290 N 1.04374 0.34545 0.38155 0.0
C291 C 1.01394 0.33417 0.29596 0.0
C292 C 0.1333 0.34095 0.37345 0.0
C293 C 0.98316 0.3418 0.34372 0.0
C294 C 0.10669 0.32994 0.287 0.0
C295 C 0.16742 0.33313 0.32595 0.0
O296 O 0.90767 0.33892 0.43928 0.0
O297 O 0.8893 0.37656 0.49708 0.0
O298 O 0.92624 0.38917 0.57926 0.0
O299 O 1.01812 0.36789 0.54508 0.0
O300 O 0.85226 0.3587 0.43361 0.0
O301 O 1.00179 0.34367 0.49912 0.0
O302 O 1.03823 0.41987 0.55468 0.0
O303 O 0.06106 0.38155 0.49485 0.0
O304 O 1.04043 0.36934 0.41465 0.0
O305 O 0.94677 0.39045 0.44428 0.0
O306 O 0.10231 0.40007 0.55532 0.0
O307 O 0.94878 0.41485 0.49291 0.0
C308 C 0.82311 0.37105 0.46729 0.0
C309 C 0.96889 0.31823 0.44892 0.0
C310 C 0.95491 0.29329 0.44706 0.0
C311 C 0.92912 0.30852 0.46659 0.0
C312 C 1.02082 0.28802 0.4096 0.0
C313 C 1.0341 0.31261 0.4115 0.0
C314 C 0.05996 0.29763 0.39207 0.0
C315 C 0.97235 0.37805 0.58205 0.0
C316 C 0.94242 0.33415 0.46949 0.0
C317 C 0.26012 0.32844 0.31891 0.0
C318 C 0.31699 0.33098 0.35889 0.0
C319 C 0.12951 0.38733 0.52277 0.0
C320 C 0.97083 0.44037 0.54609 0.0
C321 C 1.0035 0.45062 0.52884 0.0
C322 C 0.97195 0.46558 0.5496 0.0
C323 C 0.90615 0.46993 0.58709 0.0
C324 C 0.90641 0.44516 0.58396 0.0
C325 C 0.87398 0.45979 0.60411 0.0
C326 C 1.00071 0.38071 0.41029 0.0
C327 C 1.00358 0.42473 0.52466 0.0
H328 H 0.87903 0.31286 0.4957 0.0
H329 H 1.04104 0.27637 0.39313 0.0
H330 H 0.06472 0.31977 0.39707 0.0
H331 H 0.11016 0.29342 0.36304 0.0
H332 H 0.05422 0.44702 0.49999 0.0
H333 H 0.87865 0.48118 0.60308 0.0
H334 H 0.88117 0.43764 0.59816 0.0
H335 H 0.82364 0.46329 0.63308 0.0
Eu336 Eu 0.64286 0.90297 0.02556 0.0
C337 C 0.44839 0.84363 0.89273 0.0
C338 C 0.30296 0.8443 0.93294 0.0
C339 C 0.31167 0.83157 0.84517 0.0
C340 C 0.39715 0.84842 0.93481 0.0
C341 C 0.40708 0.83467 0.84758 0.0
C342 C 0.25967 0.83637 0.88784 0.0
C343 C 0.55971 0.83033 0.81192 0.0
N344 N 0.54094 0.84632 0.8966 0.0
C345 C 0.59754 0.83908 0.85762 0.0
C346 C 0.46381 0.82837 0.80667 0.0
Eu347 Eu 0.60006 0.86201 0.97477 0.0
N348 N 0.44155 0.85586 0.97781 0.0
C349 C 0.39765 0.85836 0.0202 0.0
C350 C 0.25619 0.8477 0.97644 0.0
C351 C 0.30428 0.85451 0.0202 0.0
H352 H 0.67177 0.84065 0.86161 0.0
H353 H 0.26936 0.85688 0.05402 0.0
H354 H 0.18699 0.83336 0.88568 0.0
H355 H 0.60451 0.8251 0.78082 0.0
H356 H 0.43337 0.86365 0.05443 0.0
H357 H 0.90279 0.89758 0.88796 0.0
H358 H 0.18386 0.84474 0.97656 0.0
H359 H 0.65606 0.92353 0.14677 0.0
H360 H 0.75207 0.89393 0.91748 0.0
H361 H 0.77366 0.93699 0.20891 0.0
H362 H 0.27837 0.8249 0.81075 0.0
H363 H 1.02896 0.91045 0.94569 0.0
H364 H 0.08367 0.92347 0.03138 0.0
H365 H 0.43472 0.82144 0.77133 0.0
H366 H 0.04995 0.93356 0.11838 0.0
N367 N 0.78923 0.90476 0.99235 0.0
C368 C 0.80478 0.89973 0.94371 0.0
C369 C 0.96195 0.90903 0.95918 0.0
C370 C 0.94561 0.91444 0.00887 0.0
C371 C 0.89097 0.90176 0.92652 0.0
C372 C 0.85704 0.91229 0.0247 0.0
H373 H 0.93525 0.93858 0.18476 0.0
N374 N 0.7519 0.91605 0.08815 0.0
C375 C 0.7933 0.93145 0.17115 0.0
C376 C 0.8383 0.91787 0.07383 0.0
C377 C 0.72721 0.9236 0.13582 0.0
C378 C 0.88426 0.93236 0.15736 0.0
C379 C 0.90728 0.92587 0.10818 0.0
O380 O 0.57889 0.92484 0.06634 0.0
O381 O 0.53546 0.88475 -0.00239 0.0
O382 O 0.58115 0.86824 0.91254 0.0
O383 O 0.60011 0.89428 0.94606 0.0
O384 O 0.4981 0.90427 0.05657 0.0
O385 O 0.63971 0.91953 -0.00382 0.0
O386 O 0.68811 0.84221 0.95385 0.0
O387 O 0.70748 0.8804 0.00615 0.0
O388 O 0.64591 0.89711 0.08944 0.0
O389 O 0.58891 0.87255 0.0566 0.0
O390 O 0.74576 0.8613 0.94593 0.0
O391 O 0.59494 0.848 0.01401 0.0
C392 C 0.46918 0.8912 0.02632 0.0
C393 C 0.52033 0.93741 0.02118 0.0
C394 C 0.47007 0.95927 0.00958 0.0
C395 C 0.53924 0.95145 0.02179 0.0
C396 C 0.38138 0.95273 -0.00308 0.0
C397 C 0.43177 0.93108 0.00816 0.0
C398 C 0.36263 0.93876 -0.00373 0.0
C399 C 0.58356 0.8811 0.90928 0.0
C400 C 0.59498 0.92942 0.03289 0.0
C401 C 0.99606 0.92758 0.09249 0.0
C402 C 1.01513 0.92191 0.04297 0.0
C403 C 0.77444 0.87408 0.97787 0.0
C404 C 0.62302 0.82227 0.96688 0.0
C405 C 0.67276 0.81199 0.97846 0.0
C406 C 0.64398 0.79686 0.96003 0.0
C407 C 0.56476 0.79229 0.93027 0.0
C408 C 0.54407 0.81733 0.93744 0.0
C409 C 0.51533 0.80247 0.91919 0.0
C410 C 0.6152 0.88509 0.09343 0.0
C411 C 0.65277 0.83808 0.98542 0.0
H412 H 0.60782 0.95629 0.03213 0.0
H413 H 0.32677 0.95826 0.98664 0.0
H414 H 0.41632 0.92021 0.00697 0.0
H415 H 0.29433 0.93383 0.98614 0.0
H416 H 0.73384 0.81573 0.00126 0.0
H417 H 0.53975 0.78086 0.91624 0.0
H418 H 0.50416 0.82497 0.92871 0.0
H419 H 0.45406 0.79884 0.89658 0.0
Eu420 Eu 0.47419 0.15514 0.03776 0.0
C421 C 0.24375 0.09842 0.9196 0.0
C422 C 0.12105 0.10033 0.9761 0.0
C423 C 0.09138 0.0878 0.88957 0.0
C424 C 0.21293 0.10335 0.96686 0.0
C425 C 0.18392 0.09019 0.88049 0.0
C426 C 0.06001 0.09286 0.93727 0.0
C427 C 0.31412 0.08562 0.82651 0.0
N428 N 0.33359 0.10083 0.91181 0.0
C429 C 0.37071 0.09375 0.86645 0.0
C430 C 0.21983 0.08408 0.83346 0.0
Eu431 Eu 0.42576 0.11436 0.98132 0.0
N432 N 0.27305 0.11077 0.00379 0.0
C433 C 0.24709 0.11456 0.05067 0.0
C434 C 0.09343 0.10471 0.02408 0.0
C435 C 0.15713 0.11167 0.06145 0.0
H436 H 0.44403 0.09477 0.86104 0.0
H437 H 0.13675 0.11497 0.09869 0.0
H438 H 0.98895 0.09065 0.94376 0.0
H439 H 0.34336 0.08048 0.79048 0.0
H440 H 0.29427 0.12013 0.08035 0.0
H441 H 0.8142 0.16353 0.9741 0.0
H442 H 1.02352 0.10262 0.03261 0.0
H443 H 0.38658 0.17235 0.1501 0.0
H444 H 0.6517 0.15526 0.96625 0.0
H445 H 0.44079 0.18778 0.23355 0.0
H446 H 1.04422 0.08167 0.85996 0.0
H447 H 0.88644 0.17621 0.05514 0.0
H448 H 0.86848 0.18731 0.1455 0.0
H449 H 0.17616 0.07769 0.80251 0.0
H450 H 0.76655 0.19407 0.21621 0.0
N451 N 0.63151 0.16275 0.04204 0.0
C452 C 0.6817 0.1608 0.0019 0.0
C453 C 0.8148 0.17258 0.05195 0.0
C454 C 0.76151 0.17538 0.09312 0.0
C455 C 0.77419 0.16548 0.00617 0.0
C456 C 0.66863 0.17036 0.08693 0.0
H457 H 0.60657 0.19461 0.24929 0.0
N458 N 0.52076 0.17011 0.11899 0.0
C459 C 0.48956 0.18399 0.20385 0.0
C460 C 0.61137 0.17423 0.12669 0.0
C461 C 0.45907 0.17526 0.15651 0.0
C462 C 0.58325 0.18779 0.21261 0.0
C463 C 0.64525 0.18311 0.17374 0.0
O464 O 0.38543 0.17477 0.05704 0.0
O465 O 0.36365 0.13725 0.00533 0.0
O466 O 0.41222 0.12243 0.92219 0.0
O467 O 0.4965 0.14477 0.95631 0.0
O468 O 0.32886 0.15578 0.06754 0.0
O469 O 0.48421 0.16933 -0.00075 0.0
O470 O 0.4974 0.09301 0.94419 0.0
O471 O 0.53496 0.13213 0.01081 0.0
O472 O 0.51299 0.14698 0.09386 0.0
O473 O 0.44932 0.12291 0.06292 0.0
O474 O 0.57266 0.11292 0.95147 0.0
O475 O 0.4235 0.09784 0.01089 0.0
C476 C 0.29789 0.14336 0.03467 0.0
C477 C 0.45175 0.19498 0.04588 0.0
C478 C 0.43061 0.22034 0.0522 0.0
C479 C 0.40379 0.20509 0.03275 0.0
C480 C 0.50652 0.22515 0.08426 0.0
C481 C 0.52675 0.20021 0.07801 0.0
C482 C 0.554 0.21515 0.09699 0.0
C483 C 0.45699 0.13367 0.91886 0.0
C484 C 0.42383 0.17905 0.02647 0.0
C485 C 0.73897 0.18739 0.1803 0.0
C486 C 0.79703 0.18353 0.14004 0.0
C487 C 0.60222 0.12578 0.98285 0.0
C488 C 0.5476 0.08086 0.99213 0.0
C489 C 0.52856 0.06684 0.9917 0.0
C490 C 0.59607 0.05942 0.00657 0.0
C491 C 0.68314 0.06633 0.02186 0.0
C492 C 0.63448 0.08758 0.00785 0.0
C493 C 0.70192 0.0803 0.0225 0.0
C494 C 0.48865 0.13472 0.09814 0.0
C495 C 0.47519 0.08831 0.9767 0.0
H496 H 0.34534 0.20115 0.00813 0.0
H497 H 0.53024 0.23666 0.09908 0.0
H498 H 0.56455 0.19276 0.08845 0.0
H499 H 0.61241 0.21899 0.1216 0.0
H500 H 0.46135 0.06168 0.97925 0.0
H501 H 0.73636 0.06108 0.03414 0.0
H502 H 0.65 0.09842 0.00886 0.0
H503 H 0.76895 0.08553 0.03465 0.0
Eu504 Eu 0.66061 0.11166 0.47818 0.0
C505 C 0.47393 0.17098 0.61834 0.0
C506 C 0.32821 0.17139 0.57974 0.0
C507 C 0.34018 0.18321 0.66753 0.0
C508 C 0.42164 0.16692 0.57673 0.0
C509 C 0.43478 0.17966 0.66413 0.0
C510 C 0.28693 0.17908 0.62536 0.0
C511 C 0.58818 0.18268 0.69885 0.0
N512 N 0.56562 0.16775 0.61363 0.0
C513 C 0.62384 0.17416 0.65259 0.0
C514 C 0.49291 0.18518 0.7048 0.0
Eu515 Eu 0.62122 0.15274 0.53445 0.0
N516 N 0.4641 0.15967 0.53325 0.0
C517 C 0.41919 0.15775 0.49156 0.0
C518 C 0.28023 0.16854 0.53688 0.0
C519 C 0.32652 0.16196 0.49268 0.0
H520 H 0.69754 0.17217 0.64811 0.0
H521 H 0.29071 0.16002 0.45938 0.0
H522 H 0.21489 0.18238 0.62836 0.0
H523 H 0.63415 0.18731 0.72984 0.0
H524 H 0.45335 0.15261 0.45698 0.0
H525 H 0.89441 0.11374 0.62331 0.0
H526 H 0.20841 0.17177 0.53762 0.0
H527 H 0.70314 0.09613 0.3563 0.0
H528 H 0.75016 0.11737 0.58921 0.0
H529 H 0.83414 0.0868 0.30108 0.0
H530 H 0.3085 0.18969 0.70243 0.0
H531 H 1.0311 0.10364 0.57121 0.0
H532 H 0.10253 0.09424 0.4894 0.0
H533 H 0.46552 0.1919 0.74061 0.0
H534 H 0.08758 0.08768 0.40267 0.0
N535 N 0.8007 0.10958 0.51669 0.0
C536 C 0.80739 0.113 0.56503 0.0
C537 C 0.9669 0.10516 0.55549 0.0
C538 C 0.96021 0.10149 0.50611 0.0
C539 C 0.89006 0.11089 0.585 0.0
C540 C 0.87491 0.10369 0.48728 0.0
H541 H 0.98895 0.08512 0.33262 0.0
N542 N 0.78389 0.10216 0.42085 0.0
C543 C 0.84497 0.09083 0.3397 0.0
C544 C 0.86674 0.10013 0.43834 0.0
C545 C 0.77106 0.09664 0.37169 0.0
C546 C 0.93194 0.08979 0.35758 0.0
C547 C 0.94328 0.09409 0.40716 0.0
O548 O 0.61389 0.08948 0.42681 0.0
O549 O 0.55546 0.12996 0.50741 0.0
O550 O 0.59493 0.14517 0.59351 0.0
O551 O 0.60948 0.11903 0.55603 0.0
O552 O 0.51335 0.11056 0.4495 0.0
O553 O 0.63643 0.09387 0.50161 0.0
O554 O 0.71347 0.17225 0.55735 0.0
O555 O 0.72778 0.13437 0.50094 0.0
O556 O 0.64695 0.11822 0.41627 0.0
O557 O 0.60782 0.14355 0.45283 0.0
O558 O 0.76455 0.15266 0.56456 0.0
O559 O 0.61925 0.16752 0.4979 0.0
C560 C 0.48684 0.12369 0.47993 0.0
C561 C 0.66523 0.06917 0.44219 0.0
C562 C 0.67622 0.04437 0.44149 0.0
C563 C 0.63339 0.05851 0.45792 0.0
C564 C 0.75245 0.04123 0.41008 0.0
C565 C 0.74086 0.06559 0.41038 0.0
C566 C 0.78443 0.05178 0.39478 0.0
C567 C 0.59306 0.1319 0.59421 0.0
C568 C 0.61785 0.08375 0.45802 0.0
C569 C 1.02819 0.09217 0.42605 0.0
C570 C 1.03658 0.09583 0.47536 0.0
C571 C 0.79352 0.14025 0.53103 0.0
C572 C 0.65442 0.19293 0.54678 0.0
C573 C 0.69707 0.20252 0.52944 0.0
C574 C 0.67141 0.21774 0.54794 0.0
C575 C 0.60351 0.22316 0.58437 0.0
C576 C 0.58644 0.19867 0.58273 0.0
C577 C 0.56145 0.21367 0.60149 0.0
C578 C 0.62337 0.13083 0.41446 0.0
C579 C 0.67955 0.17694 0.52689 0.0
H580 H 0.57424 0.06109 0.48193 0.0
H581 H 0.78794 0.03061 0.39754 0.0
H582 H 0.76605 0.07335 0.397 0.0
H583 H 0.84296 0.04922 0.37045 0.0
H584 H 0.74879 0.19808 0.50118 0.0
H585 H 0.58346 0.23481 0.60016 0.0
H586 H 0.55247 0.19159 0.59639 0.0
H587 H 0.50924 0.21798 0.62947 0.0
Eu588 Eu 0.49748 0.85897 0.46405 0.0
C589 C 0.3099 0.91623 0.61307 0.0
C590 C 0.16387 0.91777 0.57644 0.0
C591 C 0.17689 0.92775 0.66403 0.0
C592 C 0.25715 0.91319 0.57209 0.0
C593 C 0.27125 0.924 0.65955 0.0
C594 C 0.12326 0.92464 0.62253 0.0
C595 C 0.42461 0.92564 0.6934 0.0
N596 N 0.40144 0.91287 0.60743 0.0
C597 C 0.45984 0.91802 0.64653 0.0
C598 C 0.32962 0.92841 0.7 0.0
Eu599 Eu 0.45578 0.89979 0.52702 0.0
N600 N 0.29885 0.90674 0.52814 0.0
C601 C 0.25335 0.90553 0.48745 0.0
C602 C 0.1152 0.91578 0.53446 0.0
C603 C 0.16061 0.90984 0.48987 0.0
H604 H 0.53325 0.91581 0.64145 0.0
H605 H 0.12414 0.90851 0.45732 0.0
H606 H 0.05134 0.92804 0.62654 0.0
H607 H 0.47066 0.92933 0.72437 0.0
H608 H 0.28769 0.90089 0.45277 0.0
H609 H 0.83308 0.84793 0.52457 0.0
H610 H 1.04338 0.91911 0.53623 0.0
H611 H 0.41095 0.84525 0.351 0.0
H612 H 0.67233 0.85691 0.53368 0.0
H613 H 0.46494 0.83152 0.26678 0.0
H614 H 0.1456 0.93356 0.69943 0.0
H615 H 0.90418 0.83608 0.44326 0.0
H616 H 0.88656 0.82675 0.3532 0.0
H617 H 0.3026 0.93441 0.73632 0.0
H618 H 0.78642 0.82226 0.28305 0.0
N619 N 0.65245 0.85058 0.45844 0.0
C620 C 0.70207 0.85174 0.49796 0.0
C621 C 0.83338 0.84001 0.44703 0.0
C622 C 0.78071 0.83818 0.40641 0.0
C623 C 0.79344 0.84666 0.49296 0.0
C624 C 0.68898 0.84356 0.41336 0.0
H625 H 0.62881 0.82378 0.25047 0.0
N626 N 0.54337 0.84559 0.38211 0.0
C627 C 0.51294 0.83415 0.29658 0.0
C628 C 0.63277 0.841 0.37393 0.0
C629 C 0.48253 0.8419 0.34436 0.0
C630 C 0.60555 0.82984 0.28752 0.0
C631 C 0.6665 0.83306 0.32641 0.0
O632 O 0.40706 0.8393 0.44044 0.0
O633 O 0.39049 0.87697 0.49758 0.0
O634 O 0.42715 0.88965 0.57944 0.0
O635 O 0.51866 0.86832 0.54574 0.0
O636 O 0.35208 0.85904 0.43462 0.0
O637 O 0.50209 0.844 0.49987 0.0
O638 O 0.54024 0.92019 0.55419 0.0
O639 O 0.5616 0.8818 0.49481 0.0
O640 O 0.54017 0.86944 0.41462 0.0
O641 O 0.44773 0.8907 0.4442 0.0
O642 O 0.60404 0.90035 0.55484 0.0
O643 O 0.45005 0.91518 0.49273 0.0
C644 C 0.32378 0.87148 0.46817 0.0
C645 C 0.46812 0.81857 0.4499 0.0
C646 C 0.45397 0.79364 0.4481 0.0
C647 C 0.42854 0.80889 0.46775 0.0
C648 C 0.51926 0.78832 0.41035 0.0
C649 C 0.53269 0.8129 0.41218 0.0
C650 C 0.55816 0.7979 0.39264 0.0
C651 C 0.47303 0.87857 0.58257 0.0
C652 C 0.44215 0.83452 0.47054 0.0
C653 C 0.75898 0.82826 0.31928 0.0
C654 C 0.81599 0.83082 0.35922 0.0
C655 C 0.63046 0.88754 0.5224 0.0
C656 C 0.47293 0.9407 0.54571 0.0
C657 C 0.50704 0.95105 0.52917 0.0
C658 C 0.47585 0.96603 0.55019 0.0
C659 C 0.40893 0.97031 0.58713 0.0
C660 C 0.40739 0.94543 0.58304 0.0
C661 C 0.37528 0.96008 0.60339 0.0
C662 C 0.50102 0.88084 0.41016 0.0
C663 C 0.50534 0.92504 0.52422 0.0
H664 H 0.37889 0.81325 0.49707 0.0
H665 H 0.53916 0.77666 0.39378 0.0
H666 H 0.56309 0.82002 0.39759 0.0
H667 H 0.60787 0.79365 0.36339 0.0
H668 H 0.55858 0.94751 0.50071 0.0
H669 H 0.38174 0.98157 0.60327 0.0
H670 H 0.38101 0.93785 0.59668 0.0
H671 H 0.32408 0.96352 0.63195 0.0
H672 H 0.40614 0.36699 0.90967 0.0
H673 H 0.83362 0.39794 0.09678 0.0
H674 H 0.37075 0.38704 0.06441 0.0
H675 H 0.86555 0.37939 0.94197 0.0
H676 H 0.66536 0.39411 0.08606 0.0
H677 H 0.5738 0.37097 0.92099 0.0
C678 C 0.43369 0.37236 0.94617 0.0
C679 C 0.37345 0.37722 0.9861 0.0
C680 C 0.7089 0.39076 0.05433 0.0
C681 C 0.56737 0.38157 -0.00044 0.0
C682 C 0.80519 0.39291 0.06042 0.0
C683 C 0.86447 0.38846 0.02018 0.0
C684 C 0.67035 0.38429 0.00749 0.0
C685 C 0.82316 0.38247 0.974 0.0
C686 C 0.52973 0.37463 0.95261 0.0
C687 C 0.41387 0.38363 0.03253 0.0
N688 N 0.72915 0.38049 0.96895 0.0
N689 N 0.50787 0.38571 0.03795 0.0
H690 H 0.23645 0.61972 0.91312 0.0
H691 H 0.6632 0.65009 0.10141 0.0
H692 H 0.20334 0.6378 0.06778 0.0
H693 H 0.69931 0.63082 0.94677 0.0
H694 H 0.49532 0.6464 0.0897 0.0
H695 H 0.40442 0.62394 0.92438 0.0
C696 C 0.26447 0.62475 0.94957 0.0
C697 C 0.20483 0.62888 0.98958 0.0
C698 C 0.53958 0.64287 0.05818 0.0
C699 C 0.39889 0.6335 0.00291 0.0
C700 C 0.63579 0.64498 0.06485 0.0
C701 C 0.69635 0.64026 0.02503 0.0
C702 C 0.50203 0.6362 0.01114 0.0
C703 C 0.656 0.63415 0.97856 0.0
C704 C 0.36066 0.62713 0.95597 0.0
C705 C 0.24583 0.63492 0.03589 0.0
N706 N 0.56189 0.63221 0.97293 0.0
N707 N 0.33974 0.63709 0.04123 0.0
H708 H 0.89166 0.63565 0.56666 0.0
H709 H 0.3892 0.63027 0.44298 0.0
H710 H 0.85029 0.61901 0.41278 0.0
H711 H 0.42948 0.6447 0.59607 0.0
H712 H 0.55773 0.62674 0.43116 0.0
H713 H 0.7235 0.63959 0.57852 0.0
C714 C 0.84737 0.63306 0.53545 0.0
C715 C 0.88562 0.62747 0.48877 0.0
C716 C 0.52981 0.63061 0.46736 0.0
C717 C 0.692 0.63157 0.50182 0.0
C718 C 0.43339 0.63251 0.47401 0.0
C719 C 0.39463 0.63721 0.52035 0.0
C720 C 0.58861 0.63369 0.50746 0.0
C721 C 0.45599 0.64064 0.55952 0.0
C722 C 0.75109 0.63517 0.54213 0.0
C723 C 0.82408 0.62368 0.44948 0.0
N724 N 0.54924 0.6387 0.55221 0.0
N725 N 0.73099 0.6259 0.45686 0.0
H726 H 0.68769 0.36639 0.40032 0.0
H727 H 0.26377 0.3914 0.58988 0.0
H728 H 0.72484 0.38096 0.55367 0.0
H729 H 0.22685 0.37593 0.43612 0.0
H730 H 0.43142 0.38754 0.57749 0.0
H731 H 0.51972 0.36954 0.4126 0.0
C732 C 0.66049 0.3704 0.43674 0.0
C733 C 0.7212 0.37388 0.47617 0.0
C734 C 0.38687 0.38482 0.5463 0.0
C735 C 0.52711 0.37725 0.4906 0.0
C736 C 0.29087 0.38699 0.55335 0.0
C737 C 0.23033 0.38356 0.51389 0.0
C738 C 0.42402 0.3794 0.49933 0.0
C739 C 0.27009 0.37827 0.46751 0.0
C740 C 0.56429 0.37216 0.44373 0.0
C741 C 0.68133 0.37862 0.52236 0.0
N742 N 0.36392 0.37634 0.46156 0.0
N743 N 0.58729 0.38022 0.52829 0.0
H744 H 0.86992 0.88702 0.06536 0.0
H745 H 0.37217 0.87915 0.9397 0.0
H746 H 0.91196 0.86706 0.91106 0.0
H747 H 0.33372 0.89729 0.09404 0.0
H748 H 0.20359 0.87527 0.92856 0.0
H749 H 1.03848 0.89121 0.07713 0.0
C750 C 0.91447 0.88367 0.03399 0.0
C751 C 0.87618 0.8772 0.98713 0.0
C752 C 0.23186 0.88002 0.96492 0.0
C753 C 0.07008 0.88157 0.00017 0.0
C754 C 0.32836 0.88212 0.9712 0.0
C755 C 0.36761 0.88803 0.0178 0.0
C756 C 0.1735 0.88398 0.00554 0.0
C757 C 0.30673 0.89232 0.05741 0.0
C758 C 1.0109 0.88597 0.04065 0.0
C759 C 0.93803 0.87246 0.94783 0.0
N760 N 0.21336 0.89011 0.05043 0.0
N761 N 1.03113 0.87485 0.95516 0.0
H762 H 0.16217 0.15049 0.10252 0.0
H763 H 0.73539 0.12022 0.91424 0.0
H764 H 0.19822 0.1313 0.94788 0.0
H765 H 0.70228 0.13825 0.06889 0.0
H766 H 0.90335 0.12443 0.92551 0.0
H767 H 0.99428 0.14681 0.09081 0.0
C768 C 0.13474 0.1454 0.06596 0.0
C769 C 0.19529 0.14069 0.02614 0.0
C770 C 0.85959 0.1276 0.95709 0.0
C771 C 1.00097 0.13666 0.01226 0.0
C772 C 0.76341 0.12523 0.95068 0.0
C773 C 0.70378 0.12934 0.9907 0.0
C774 C 0.89783 0.13396 0.00403 0.0
C775 C 0.74477 0.13537 0.03701 0.0
C776 C 1.03853 0.1433 0.0593 0.0
C777 C 0.15492 0.13461 0.97967 0.0
N778 N 0.83868 0.13754 0.04234 0.0
N779 N 0.0608 0.13268 0.97405 0.0
H780 H 0.3539 0.11874 0.41177 0.0
H781 H 0.92688 0.14486 0.59883 0.0
H782 H 0.38851 0.13569 0.56616 0.0
H783 H 0.89402 0.13081 0.4455 0.0
H784 H 0.09488 0.14155 0.58766 0.0
H785 H 0.18619 0.12268 0.42314 0.0
C786 C 0.32619 0.12349 0.4482 0.0
C787 C 0.38605 0.1274 0.48816 0.0
C788 C 0.05126 0.13908 0.55629 0.0
C789 C 0.19248 0.13162 0.50156 0.0
C790 C 0.95506 0.14093 0.56263 0.0
C791 C 0.89552 0.13752 0.52281 0.0
C792 C 0.08956 0.13401 0.50969 0.0
C793 C 0.93662 0.133 0.47701 0.0
C794 C 0.23022 0.12571 0.45467 0.0
C795 C 0.34567 0.13303 0.53441 0.0
N796 N 1.03062 0.13126 0.47168 0.0
N797 N 0.25182 0.13501 0.53982 0.0
H798 H 0.72381 0.87598 0.43483 0.0
H799 H 0.22957 0.88146 0.55544 0.0
H800 H 0.76774 0.89164 0.58821 0.0
H801 H 0.18547 0.86689 0.40253 0.0
H802 H 0.06115 0.88475 0.56824 0.0
H803 H 0.89154 0.87195 0.42196 0.0
C804 C 0.76848 0.87832 0.46574 0.0
C805 C 0.73096 0.88373 0.51258 0.0
C806 C 0.08816 0.88089 0.53185 0.0
C807 C 0.9246 0.87959 0.49834 0.0
C808 C 0.18459 0.87914 0.52464 0.0
C809 C 0.22226 0.87436 0.47801 0.0
C810 C 1.02819 0.87767 0.4921 0.0
C811 C 0.15984 0.87092 0.43923 0.0
C812 C 0.86465 0.87617 0.45846 0.0
C813 C 0.79325 0.88716 0.55139 0.0
N814 N 0.06661 0.87273 0.44712 0.0
N815 N 0.88631 0.88498 0.54346 0.0
H816 H 0.21529 0.53496 0.97897 0.0
H817 H 0.85283 0.48427 0.04223 0.0
H818 H 0.93987 0.54944 0.03311 0.0
H819 H 0.12347 0.46902 0.98167 0.0
H820 H 0.88414 0.50825 0.04007 0.0
H821 H 0.18396 0.51095 0.98101 0.0
C822 C 0.1483 0.53314 0.9915 0.0
C823 C 0.08025 0.54433 0.00599 0.0
C824 C 0.93674 0.49967 0.02726 0.0
C825 C 1.04356 0.51668 0.00809 0.0
C826 C 0.91874 0.48591 0.02825 0.0
C827 C 0.98544 0.4745 0.012 0.0
C828 C 1.02221 0.50215 0.0099 0.0
C829 C 0.07025 0.47748 -0.00484 0.0
C830 C 0.13028 0.51936 0.99242 0.0
C831 C 0.99418 0.54114 0.02107 0.0
N832 N 0.08606 0.49097 -0.00551 0.0
N833 N 0.97847 0.52767 0.02185 0.0
H834 H 1.00712 0.46167 0.45628 0.0
H835 H 0.11902 0.54851 0.5342 0.0
H836 H 1.01468 0.49513 0.60458 0.0
H837 H 0.14418 0.51439 0.38769 0.0
H838 H 0.0724 0.52924 0.56003 0.0
H839 H 0.05372 0.48082 0.42988 0.0
C840 C 1.01933 0.47299 0.48333 0.0
C841 C 1.00619 0.47677 0.53273 0.0
C842 C 0.08808 0.52597 0.52221 0.0
C843 C 0.05813 0.49883 0.50271 0.0
C844 C 0.11396 0.53699 0.5074 0.0
C845 C 0.13605 0.53307 0.45877 0.0
C846 C 0.08363 0.51089 0.4881 0.0
C847 C 0.12916 0.51791 0.4257 0.0
C848 C 1.04527 0.48395 0.46822 0.0
C849 C 1.0221 0.49171 0.56605 0.0
N850 N 0.10367 0.5074 0.44095 0.0
N851 N 1.04678 0.50216 0.55045 0.0
H852 H 0.62859 0.9684 0.97953 0.0
H853 H 0.43538 0.04995 0.03347 0.0
H854 H 0.35784 0.98405 0.03909 0.0
H855 H 0.71045 0.03499 0.97981 0.0
H856 H 0.40453 0.02572 0.03407 0.0
H857 H 0.6594 0.9926 0.97885 0.0
C858 C 0.57576 0.97693 0.99282 0.0
C859 C 0.49038 0.97409 0.00944 0.0
C860 C 0.47167 0.02773 0.02215 0.0
C861 C 0.52498 1.00191 0.00812 0.0
C862 C 0.48917 0.04155 0.02148 0.0
C863 C 0.57576 0.04459 0.00656 0.0
C864 C 0.54105 0.01675 0.00766 0.0
C865 C 0.64311 0.03328 0.99221 0.0
C866 C 0.59325 0.99075 0.99211 0.0
C867 C 0.42418 0.98559 0.02534 0.0
N868 N 0.62432 0.01991 0.99307 0.0
N869 N 0.44286 0.99894 0.02428 0.0
H870 H 0.652 0.01438 0.38491 0.0
H871 H 0.52019 0.99539 0.6067 0.0
H872 H 0.62435 0.04783 0.53225 0.0
H873 H 0.51292 0.96261 0.45749 0.0
H874 H 0.56575 0.01444 0.58024 0.0
H875 H 0.60702 0.99512 0.41083 0.0
C876 C 0.63647 0.01768 0.42278 0.0
C877 C 0.6425 0.03276 0.45653 0.0
C878 C 0.55428 1.00309 0.55322 0.0
C879 C 0.59073 0.0107 0.48647 0.0
C880 C 0.52799 0.99218 0.56828 0.0
C881 C 0.51158 0.97735 0.53425 0.0
C882 C 0.56493 0.99922 0.50366 0.0
C883 C 0.5252 0.97385 0.48506 0.0
C884 C 0.61051 1.00667 0.43751 0.0
C885 C 0.62006 0.03638 0.50494 0.0
N886 N 0.55071 0.9847 0.47124 0.0
N887 N 0.59571 0.02543 0.51849 0.0
H888 H 0.18531 0.26825 0.90059 0.0
H889 H 0.38205 0.24911 0.11248 0.0
H890 H 0.20798 0.30069 0.04969 0.0
H891 H 0.36839 0.21692 0.96272 0.0
H892 H 0.31613 0.26795 0.09024 0.0
H893 H 0.25223 0.24936 0.92245 0.0
C894 C 0.20458 0.27142 0.93798 0.0
C895 C 0.1903 0.2861 0.97343 0.0
C896 C 0.32731 0.25677 0.06218 0.0
C897 C 0.26727 0.26442 -0.00123 0.0
C898 C 0.36512 0.24598 0.07483 0.0
C899 C 0.38167 0.23139 0.03935 0.0
C900 C 0.30547 0.25303 0.01358 0.0
C901 C 0.35645 0.22797 0.99134 0.0
C902 C 0.24293 0.26061 0.95041 0.0
C903 C 0.21818 0.28958 0.0211 0.0
N904 N 0.32009 0.23872 0.97984 0.0
N905 N 0.25475 0.27881 0.03241 0.0
H906 H 0.68769 0.76787 0.89935 0.0
H907 H 0.88532 0.74866 0.11093 0.0
H908 H 0.71241 0.80033 0.04833 0.0
H909 H 0.87037 0.71645 0.96123 0.0
H910 H 0.81975 0.76753 0.08874 0.0
H911 H 0.75442 0.74894 0.92109 0.0
C912 C 0.70738 0.77104 0.93668 0.0
C913 C 0.69373 0.78573 0.97214 0.0
C914 C 0.83057 0.75635 0.06068 0.0
C915 C 0.77045 0.76401 -0.00266 0.0
C916 C 0.86818 0.74554 0.0733 0.0
C917 C 0.88427 0.73093 0.03782 0.0
C918 C 0.80846 0.7526 0.01211 0.0
C919 C 0.85878 0.72751 0.98985 0.0
C920 C 0.74562 0.7602 0.94905 0.0
C921 C 0.72213 0.7892 0.01973 0.0
N922 N 0.82262 0.73828 0.97837 0.0
N923 N 0.75855 0.77841 0.03097 0.0
H924 H 0.35466 0.71996 0.52595 0.0
H925 H 0.27229 0.7916 0.47197 0.0
H926 H 0.08665 0.73957 0.5298 0.0
H927 H 0.53984 0.7714 0.46384 0.0
H928 H 0.20379 0.77298 0.49518 0.0
H929 H 0.42405 0.73854 0.50261 0.0
C930 C 0.31025 0.72807 0.52146 0.0
C931 C 0.21468 0.72823 0.53023 0.0
C932 C 0.27755 0.77263 0.48839 0.0
C933 C 0.29386 0.74971 0.50416 0.0
C934 C 0.31685 0.78336 0.47553 0.0
C935 C 0.41199 0.78307 0.46567 0.0
C936 C 0.3337 0.76151 0.4916 0.0
C937 C 0.46595 0.77195 0.47031 0.0
C938 C 0.35001 0.73876 0.5085 0.0
C939 C 0.16084 0.73915 0.52431 0.0
N940 N 0.42612 0.76163 0.48281 0.0
N941 N 0.20111 0.74943 0.51183 0.0
H942 H 0.77295 0.29121 0.47035 0.0
H943 H 0.85461 0.21992 0.52624 0.0
H944 H 1.0405 0.2711 0.46315 0.0
H945 H 0.58666 0.23945 0.52918 0.0
H946 H 0.92424 0.23839 0.50248 0.0
H947 H 0.70418 0.27265 0.49378 0.0
C948 C 0.81744 0.283 0.47414 0.0
C949 C 0.91269 0.28271 0.46451 0.0
C950 C 0.85016 0.23861 0.50827 0.0
C951 C 0.83407 0.26124 0.49072 0.0
C952 C 0.81026 0.22798 0.52147 0.0
C953 C 0.71463 0.22816 0.5301 0.0
C954 C 0.79409 0.2495 0.50354 0.0
C955 C 0.66089 0.23902 0.52382 0.0
C956 C 0.77799 0.27231 0.48713 0.0
C957 C 0.96655 0.27163 0.46944 0.0
N958 N 0.70129 0.24924 0.51111 0.0
N959 N 0.92656 0.26136 0.48209 0.0
H960 H 0.14045 0.36225 0.11771 0.0
H961 H 0.92809 0.40148 0.38192 0.0
H962 H 0.06296 0.40876 0.17947 0.0
H963 H 0.11873 0.36447 0.33702 0.0
H964 H 0.96098 0.4037 0.30635 0.0
H965 H 0.11604 0.36197 0.19623 0.0
C966 C 0.11882 0.37244 0.14801 0.0
C967 C 0.10426 0.38558 0.14232 0.0
C968 C 0.99535 0.39512 0.31335 0.0
C969 C 0.07475 0.38529 0.23214 0.0
C970 C 0.97641 0.3938 0.35627 0.0
C971 C 1.01916 0.38255 0.36549 0.0
C972 C 0.0565 0.38503 0.2794 0.0
C973 C 0.08202 0.37304 0.33114 0.0
C974 C 0.10511 0.37229 0.19282 0.0
C975 C 0.07622 0.39848 0.1827 0.0
N976 N 0.09802 0.37441 0.28957 0.0
N977 N 0.06133 0.39799 0.226 0.0
H978 H 0.09076 0.65425 0.17352 0.0
H979 H 0.07429 0.60704 0.32891 0.0
H980 H 0.94357 0.61224 0.12532 0.0
H981 H 0.13593 0.6543 0.38993 0.0
H982 H 1.04448 0.6074 0.2505 0.0
H983 H 0.12523 0.65315 0.24966 0.0
C984 C 0.06458 0.64487 0.17903 0.0
C985 C 1.01218 0.63352 0.14317 0.0
C986 C 0.06483 0.61766 0.28107 0.0
C987 C 0.05415 0.63194 0.23023 0.0
C988 C 0.08273 0.61744 0.32567 0.0
C989 C 0.10832 0.63064 0.36589 0.0
C990 C 0.07357 0.63114 0.27663 0.0
C991 C 0.11617 0.64388 0.35991 0.0
C992 C 0.08496 0.6442 0.22255 0.0
C993 C 0.98335 0.62134 0.15204 0.0
N994 N 0.09921 0.64378 0.31609 0.0
N995 N 1.00477 0.62087 0.19472 0.0
H996 H 0.05872 0.65304 0.89656 0.0
H997 H 0.99929 0.61004 0.60886 0.0
H998 H 0.88725 0.61358 0.82838 0.0
H999 H 0.13858 0.65242 0.68411 0.0
H1000 H 0.9608 0.6102 0.68751 0.0
H1001 H 0.08935 0.65239 0.81794 0.0
C1002 C 1.02752 0.64414 0.86512 0.0
C1003 C 0.97174 0.63311 0.86944 0.0
C1004 C 0.99915 0.61952 0.68668 0.0
C1005 C 1.00696 0.63235 0.77822 0.0
C1006 C 1.02145 0.61939 0.64191 0.0
C1007 C 0.07051 0.63142 0.64012 0.0
C1008 C 1.02731 0.63167 0.7297 0.0
C1009 C 0.09793 0.64321 0.68383 0.0
C1010 C 1.04517 0.6438 0.81995 0.0
C1011 C 0.93258 0.62207 0.82694 0.0
N1012 N 0.07611 0.64303 0.72669 0.0
N1013 N 0.95133 0.6219 0.78302 0.0
H1014 H 0.08813 0.36075 0.60719 0.0
H1015 H 0.98505 0.40223 0.89025 0.0
H1016 H 0.87422 0.39407 0.66552 0.0
H1017 H 0.12942 0.36028 0.82226 0.0
H1018 H 0.95239 0.401 0.80962 0.0
H1019 H 0.1105 0.36154 0.68703 0.0
C1020 C 1.04571 0.36826 0.63673 0.0
C1021 C 0.98072 0.37765 0.62974 0.0
C1022 C 0.9905 0.39201 0.81247 0.0
C1023 C 1.00663 0.37866 0.72173 0.0
C1024 C 1.00958 0.39276 0.85833 0.0
C1025 C 0.05866 0.3812 0.86263 0.0
C1026 C 1.02235 0.37975 0.771 0.0
C1027 C 0.08913 0.36919 0.8204 0.0
C1028 C 0.05865 0.3687 0.68244 0.0
C1029 C 0.92727 0.38701 0.66955 0.0
N1030 N 0.07084 0.3688 0.77638 0.0
N1031 N 0.942 0.3874 0.71403 0.0
H1032 H 0.64464 0.8622 0.11774 0.0
H1033 H 0.42952 0.90161 0.38151 0.0
H1034 H 0.56449 0.90859 0.17876 0.0
H1035 H 0.61853 0.8644 0.33688 0.0
H1036 H 0.46317 0.90375 0.30589 0.0
H1037 H 0.61953 0.86196 0.19626 0.0
C1038 C 0.62229 0.87238 0.14788 0.0
C1039 C 0.60715 0.88546 0.14196 0.0
C1040 C 0.49701 0.89515 0.31294 0.0
C1041 C 0.57685 0.88522 0.23181 0.0
C1042 C 0.47763 0.89387 0.3559 0.0
C1043 C 0.51972 0.8826 0.36524 0.0
C1044 C 0.55798 0.88498 0.27907 0.0
C1045 C 0.58232 0.873 0.33093 0.0
C1046 C 0.60817 0.87225 0.1927 0.0
C1047 C 0.57821 0.89835 0.18215 0.0
N1048 N 0.59881 0.87433 0.28933 0.0
N1049 N 0.56295 0.89788 0.22546 0.0
H1050 H 0.58874 0.15469 0.17497 0.0
H1051 H 0.57571 0.10704 0.32913 0.0
H1052 H 0.44402 0.11244 0.12584 0.0
H1053 H 0.63528 0.15438 0.39074 0.0
H1054 H 0.54552 0.10749 0.25085 0.0
H1055 H 0.62369 0.15347 0.25089 0.0
C1056 C 0.56321 0.14523 0.18022 0.0
C1057 C 0.51137 0.13384 0.14416 0.0
C1058 C 0.56549 0.11774 0.28153 0.0
C1059 C 0.55388 0.13214 0.23099 0.0
C1060 C 0.58356 0.11748 0.32607 0.0
C1061 C 0.60862 0.13068 0.36643 0.0
C1062 C 0.57355 0.13127 0.27729 0.0
C1063 C 0.6159 0.14395 0.36063 0.0
C1064 C 0.58386 0.14449 0.22363 0.0
C1065 C 0.48334 0.12157 0.15272 0.0
N1066 N 0.59878 0.1439 0.31688 0.0
N1067 N 0.505 0.12104 0.19529 0.0
H1068 H 0.55929 0.15331 0.89736 0.0
H1069 H 0.49815 0.1102 0.60971 0.0
H1070 H 0.38494 0.11418 0.82969 0.0
H1071 H 0.63903 0.15246 0.6845 0.0
H1072 H 0.45956 0.11048 0.68854 0.0
H1073 H 0.59023 0.15253 0.81858 0.0
C1074 C 0.52752 0.14446 0.86601 0.0
C1075 C 0.47086 0.13355 0.87051 0.0
C1076 C 0.49828 0.11974 0.68756 0.0
C1077 C 0.50642 0.13265 0.77912 0.0
C1078 C 0.52063 0.11955 0.6427 0.0
C1079 C 0.57014 0.13151 0.64073 0.0
C1080 C 0.52688 0.13189 0.7305 0.0
C1081 C 0.59802 0.1433 0.68436 0.0
C1082 C 0.54534 0.14405 0.82075 0.0
C1083 C 0.431 0.12256 0.8281 0.0
N1084 N 0.57615 0.14318 0.72731 0.0
N1085 N 0.44993 0.12233 0.78411 0.0
H1086 H 0.37277 0.89455 0.66518 0.0
H1087 H 0.63786 0.85985 0.82204 0.0
H1088 H 0.58951 0.86165 0.60907 0.0
H1089 H 0.48969 0.9015 0.88773 0.0
H1090 H 0.60378 0.85854 0.74224 0.0
H1091 H 0.39822 0.89553 0.74571 0.0
C1092 C 0.42617 0.88763 0.66979 0.0
C1093 C 0.48087 0.87832 0.63049 0.0
C1094 C 0.57839 0.86796 0.77402 0.0
C1095 C 0.50812 0.87903 0.72204 0.0
C1096 C 0.59702 0.86862 0.81954 0.0
C1097 C 0.56523 0.88066 0.86132 0.0
C1098 C 0.52722 0.87942 0.77014 0.0
C1099 C 0.5154 0.89203 0.85621 0.0
C1100 C 0.44022 0.88814 0.71569 0.0
C1101 C 0.54631 0.86913 0.63823 0.0
N1102 N 0.49738 0.8911 0.81128 0.0
N1103 N 0.55819 0.86975 0.68307 0.0
loop_
_geom_bond_atom_site_label_1
_geom_bond_atom_site_label_2
_geom_bond_distance
_geom_bond_site_symmetry_2
_ccdc_geom_bond_type
Eu0 N31 2.657 . S
Eu0 N38 2.609 . S
Eu0 O44 2.558 . S
Eu0 O45 2.612 1_454 S
Eu0 O47 2.339 1_554 S
Eu0 O48 2.563 1_455 S
Eu0 O49 2.419 . S
Eu0 O51 2.380 . S
Eu0 O52 2.432 . S
Eu0 C64 2.848 . S
C1 C4 1.429 . S
C1 C5 1.411 . S
C1 N8 1.377 . S
C2 C4 1.420 . S
C2 C6 1.423 . S
C2 C14 1.392 1_556 S
C3 C5 1.420 . S
C3 C6 1.351 . S
C3 H26 0.931 . S
C4 C1 1.429 . S
C4 C2 1.420 . S
C4 N12 1.362 1_556 S
C5 C1 1.411 . S
C5 C3 1.420 . S
C5 C10 1.395 . S
C6 C2 1.423 . S
C6 C3 1.351 . S
C6 H18 0.930 . S
C7 C9 1.400 . S
C7 C10 1.386 . S
C7 H19 0.930 . S
N8 C1 1.377 . S
N8 C9 1.321 . S
N8 Eu11 2.609 1_655 S
C9 C7 1.400 . S
C9 N8 1.321 . S
C9 H16 0.930 1_655 S
C10 C5 1.395 . S
C10 C7 1.386 . S
C10 H29 0.930 . S
Eu11 N8 2.609 1_455 S
Eu11 N12 2.657 1_456 S
Eu11 O45 2.380 1_455 S
Eu11 O46 2.432 . S
Eu11 O50 2.558 . S
Eu11 O51 2.612 1_556 S
Eu11 O53 2.339 1_556 S
Eu11 O54 2.563 . S
Eu11 O55 2.419 . S
Eu11 C75 2.848 . S
N12 C4 1.362 1_554 S
N12 Eu11 2.657 1_654 S
N12 C13 1.334 . S
C13 N12 1.334 . S
C13 C15 1.413 . S
C13 H20 0.929 . S
C14 C2 1.392 1_554 S
C14 C15 1.367 . S
C14 H22 0.930 . S
C15 C13 1.413 . S
C15 C14 1.367 . S
C15 H17 0.930 . S
H16 C9 0.930 1_455 S
H17 C15 0.930 . S
H18 C6 0.930 . S
H19 C7 0.930 . S
H20 C13 0.929 . S
H21 C35 0.930 . S
H22 C14 0.930 . S
H23 C41 0.930 . S
H24 C32 0.929 . S
H25 C39 0.930 . S
H26 C3 0.931 . S
H27 C33 0.930 . S
H28 C66 0.930 . S
H29 C10 0.930 . S
H30 C65 0.931 . S
N31 Eu0 2.657 . S
N31 C32 1.334 1_554 S
N31 C36 1.362 . S
C32 H24 0.929 . S
C32 N31 1.334 1_556 S
C32 C35 1.413 . S
C33 H27 0.930 . S
C33 C34 1.392 1_556 S
C33 C35 1.367 . S
C34 C33 1.392 1_554 S
C34 C36 1.420 . S
C34 C66 1.423 . S
C35 H21 0.930 . S
C35 C32 1.413 . S
C35 C33 1.367 . S
C36 N31 1.362 . S
C36 C34 1.420 . S
C36 C40 1.429 . S
H37 C42 0.930 . S
N38 Eu0 2.609 . S
N38 C40 1.377 . S
N38 C41 1.321 . S
C39 H25 0.930 . S
C39 C41 1.400 . S
C39 C42 1.386 . S
C40 C36 1.429 . S
C40 N38 1.377 . S
C40 C43 1.411 . S
C41 H23 0.930 . S
C41 N38 1.321 . S
C41 C39 1.400 . S
C42 H37 0.930 . S
C42 C39 1.386 . S
C42 C43 1.395 . S
C43 C40 1.411 . S
C43 C42 1.395 . S
C43 C65 1.420 . S
O44 Eu0 2.558 . S
O44 C64 1.257 . S
O45 Eu0 2.612 1_656 S
O45 Eu11 2.380 1_655 S
O45 C56 1.276 1_556 S
O46 Eu11 2.432 . S
O46 C63 1.264 . S
O47 Eu0 2.339 1_556 S
O47 C63 1.254 . S
O48 Eu0 2.563 1_655 S
O48 C56 1.235 . S
O49 Eu0 2.419 . S
O49 C64 1.249 . S
O50 Eu11 2.558 . S
O50 C75 1.257 . S
O51 Eu0 2.380 . S
O51 Eu11 2.612 1_554 S
O51 C67 1.276 . S
O52 Eu0 2.432 . S
O52 C74 1.264 . S
O53 Eu11 2.339 1_554 S
O53 C74 1.254 . S
O54 Eu11 2.563 . S
O54 C67 1.235 1_556 S
O55 Eu11 2.419 . S
O55 C75 1.249 . S
C56 O45 1.276 1_554 S
C56 O48 1.235 . S
C57 C59 1.393 . S
C57 C61 1.395 . S
C57 C64 1.492 1_655 S
C58 C59 1.392 . S
C58 C60 1.386 . S
C59 C57 1.393 . S
C59 C58 1.392 . S
C59 H76 0.930 1_554 S
C60 C58 1.386 . S
C60 C62 1.395 . S
C60 H77 0.930 . S
C61 C57 1.395 . S
C61 C62 1.379 . S
C61 H78 0.930 1_655 S
C62 C60 1.395 . S
C62 C61 1.379 . S
C62 H79 0.930 . S
C63 O46 1.264 . S
C63 O47 1.254 . S
C64 Eu0 2.848 . S
C64 O44 1.257 . S
C64 O49 1.249 . S
C64 C57 1.492 1_455 S
C65 H30 0.931 . S
C65 C43 1.420 . S
C65 C66 1.351 . S
C66 H28 0.930 . S
C66 C34 1.423 . S
C66 C65 1.351 . S
C67 O51 1.276 . S
C67 O54 1.235 1_554 S
C68 C69 1.393 . S
C68 C72 1.395 . S
C68 C75 1.492 . S
C69 C68 1.393 . S
C69 C70 1.392 . S
C69 H80 0.930 1_556 S
C70 C69 1.392 . S
C70 C71 1.386 . S
C71 C70 1.386 . S
C71 C73 1.395 . S
C71 H81 0.930 . S
C72 C68 1.395 . S
C72 C73 1.379 . S
C72 H82 0.930 . S
C73 C71 1.395 . S
C73 C72 1.379 . S
C73 H83 0.930 . S
C74 O52 1.264 . S
C74 O53 1.254 . S
C75 Eu11 2.848 . S
C75 O50 1.257 . S
C75 O55 1.249 . S
C75 C68 1.492 . S
H76 C59 0.930 1_556 S
H77 C60 0.930 . S
H78 C61 0.930 1_455 S
H79 C62 0.930 . S
H80 C69 0.930 1_554 S
H81 C71 0.930 . S
H82 C72 0.930 . S
H83 C73 0.930 . S
Eu84 N115 2.657 1_655 S
Eu84 N122 2.609 1_655 S
Eu84 O128 2.558 . S
Eu84 O129 2.612 . S
Eu84 O131 2.339 1_554 S
Eu84 O132 2.563 . S
Eu84 O133 2.419 . S
Eu84 O135 2.380 1_655 S
Eu84 O136 2.432 . S
Eu84 C148 2.848 . S
C85 C88 1.429 . S
C85 C89 1.411 . S
C85 N92 1.377 . S
C86 C88 1.420 . S
C86 C90 1.423 . S
C86 C98 1.392 1_556 S
C87 C89 1.420 . S
C87 C90 1.351 . S
C87 H110 0.931 . S
C88 C85 1.429 . S
C88 C86 1.420 . S
C88 N96 1.362 1_556 S
C89 C85 1.411 . S
C89 C87 1.420 . S
C89 C94 1.395 . S
C90 C86 1.423 . S
C90 C87 1.351 . S
C90 H102 0.930 . S
C91 C93 1.400 . S
C91 C94 1.386 . S
C91 H103 0.930 . S
N92 C85 1.377 . S
N92 C93 1.321 . S
N92 Eu95 2.609 . S
C93 C91 1.400 . S
C93 N92 1.321 . S
C93 H100 0.930 . S
C94 C89 1.395 . S
C94 C91 1.386 . S
C94 H113 0.930 . S
Eu95 N92 2.609 . S
Eu95 N96 2.657 1_556 S
Eu95 O129 2.380 1_556 S
Eu95 O130 2.432 . S
Eu95 O134 2.558 . S
Eu95 O135 2.612 1_656 S
Eu95 O137 2.339 1_556 S
Eu95 O138 2.563 1_655 S
Eu95 O139 2.419 1_556 S
Eu95 C159 2.848 . S
N96 C88 1.362 1_554 S
N96 Eu95 2.657 1_554 S
N96 C97 1.334 . S
C97 N96 1.334 . S
C97 C99 1.413 . S
C97 H104 0.929 . S
C98 C86 1.392 1_554 S
C98 C99 1.367 . S
C98 H106 0.930 . S
C99 C97 1.413 . S
C99 C98 1.367 . S
C99 H101 0.930 . S
H100 C93 0.930 . S
H101 C99 0.930 . S
H102 C90 0.930 . S
H103 C91 0.930 . S
H104 C97 0.929 . S
H105 C119 0.930 . S
H106 C98 0.930 . S
H107 C125 0.930 1_655 S
H108 C116 0.929 . S
H109 C123 0.930 . S
H110 C87 0.931 . S
H111 C117 0.930 . S
H112 C150 0.930 . S
H113 C94 0.930 . S
H114 C149 0.931 . S
N115 Eu84 2.657 1_455 S
N115 C116 1.334 1_554 S
N115 C120 1.362 . S
C116 H108 0.929 . S
C116 N115 1.334 1_556 S
C116 C119 1.413 . S
C117 H111 0.930 . S
C117 C118 1.392 1_556 S
C117 C119 1.367 . S
C118 C117 1.392 1_554 S
C118 C120 1.420 . S
C118 C150 1.423 . S
C119 H105 0.930 . S
C119 C116 1.413 . S
C119 C117 1.367 . S
C120 N115 1.362 . S
C120 C118 1.420 . S
C120 C124 1.429 . S
H121 C126 0.930 . S
N122 Eu84 2.609 1_455 S
N122 C124 1.377 . S
N122 C125 1.321 . S
C123 H109 0.930 . S
C123 C125 1.400 . S
C123 C126 1.386 . S
C124 C120 1.429 . S
C124 N122 1.377 . S
C124 C127 1.411 . S
C125 H107 0.930 1_455 S
C125 N122 1.321 . S
C125 C123 1.400 . S
C126 H121 0.930 . S
C126 C123 1.386 . S
C126 C127 1.395 . S
C127 C124 1.411 . S
C127 C126 1.395 . S
C127 C149 1.420 . S
O128 Eu84 2.558 . S
O128 C148 1.257 . S
O129 Eu84 2.612 . S
O129 Eu95 2.380 1_554 S
O129 C140 1.276 . S
O130 Eu95 2.432 . S
O130 C147 1.264 . S
O131 Eu84 2.339 1_556 S
O131 C147 1.254 . S
O132 Eu84 2.563 . S
O132 C140 1.235 . S
O133 Eu84 2.419 . S
O133 C148 1.249 . S
O134 Eu95 2.558 . S
O134 C159 1.257 . S
O135 Eu84 2.380 1_455 S
O135 Eu95 2.612 1_454 S
O135 C151 1.276 . S
O136 Eu84 2.432 . S
O136 C158 1.264 . S
O137 Eu95 2.339 1_554 S
O137 C158 1.254 . S
O138 Eu95 2.563 1_455 S
O138 C151 1.235 1_556 S
O139 Eu95 2.419 1_554 S
O139 C159 1.249 1_554 S
C140 O129 1.276 . S
C140 O132 1.235 . S
C141 C143 1.393 . S
C141 C145 1.395 . S
C141 C148 1.492 . S
C142 C143 1.392 . S
C142 C144 1.386 . S
C143 C141 1.393 . S
C143 C142 1.392 . S
C143 H160 0.942 . S
C144 C142 1.386 . S
C144 C146 1.395 . S
C144 H161 0.930 . S
C145 C141 1.395 . S
C145 C146 1.379 . S
C145 H162 0.930 . S
C146 C144 1.395 . S
C146 C145 1.379 . S
C146 H163 0.930 . S
C147 O130 1.264 . S
C147 O131 1.254 . S
C148 Eu84 2.848 . S
C148 O128 1.257 . S
C148 O133 1.249 . S
C148 C141 1.492 . S
C149 H114 0.931 . S
C149 C127 1.420 . S
C149 C150 1.351 . S
C150 H112 0.930 . S
C150 C118 1.423 . S
C150 C149 1.351 . S
C151 O135 1.276 . S
C151 O138 1.235 1_554 S
C152 C153 1.393 . S
C152 C156 1.395 . S
C152 C159 1.492 1_455 S
C153 C152 1.393 . S
C153 C154 1.392 . S
C153 H164 0.930 1_556 S
C154 C153 1.392 . S
C154 C155 1.386 . S
C155 C154 1.386 . S
C155 C157 1.395 . S
C155 H165 0.930 . S
C156 C152 1.395 . S
C156 C157 1.379 . S
C156 H166 0.930 1_455 S
C157 C155 1.395 . S
C157 C156 1.379 . S
C157 H167 0.930 . S
C158 O136 1.264 . S
C158 O137 1.254 . S
C159 Eu95 2.848 . S
C159 O134 1.257 . S
C159 O139 1.249 1_556 S
C159 C152 1.492 1_655 S
H160 C143 0.942 . S
H161 C144 0.930 . S
H162 C145 0.930 . S
H163 C146 0.930 . S
H164 C153 0.930 1_554 S
H165 C155 0.930 . S
H166 C156 0.930 1_655 S
H167 C157 0.930 . S
Eu168 N199 2.657 . S
Eu168 N206 2.609 . S
Eu168 O212 2.558 . S
Eu168 O213 2.612 1_455 S
Eu168 O215 2.339 . S
Eu168 O216 2.563 1_455 S
Eu168 O217 2.419 . S
Eu168 O219 2.380 . S
Eu168 O220 2.432 . S
Eu168 C232 2.848 . S
C169 C172 1.429 . S
C169 C173 1.411 . S
C169 N176 1.377 . S
C170 C172 1.420 . S
C170 C174 1.423 . S
C170 C182 1.392 . S
C171 C173 1.420 . S
C171 C174 1.351 . S
C171 H194 0.931 . S
C172 C169 1.429 . S
C172 C170 1.420 . S
C172 N180 1.362 . S
C173 C169 1.411 . S
C173 C171 1.420 . S
C173 C178 1.395 . S
C174 C170 1.423 . S
C174 C171 1.351 . S
C174 H186 0.930 . S
C175 C177 1.400 . S
C175 C178 1.386 . S
C175 H187 0.930 . S
N176 C169 1.377 . S
N176 C177 1.321 . S
N176 Eu179 2.609 1_655 S
C177 C175 1.400 . S
C177 N176 1.321 . S
C177 H184 0.930 1_655 S
C178 C173 1.395 . S
C178 C175 1.386 . S
C178 H197 0.930 . S
Eu179 N176 2.609 1_455 S
Eu179 N180 2.657 1_455 S
Eu179 O213 2.380 1_455 S
Eu179 O214 2.432 . S
Eu179 O218 2.558 . S
Eu179 O219 2.612 . S
Eu179 O221 2.339 . S
Eu179 O222 2.563 . S
Eu179 O223 2.419 . S
Eu179 C243 2.848 . S
N180 C172 1.362 . S
N180 Eu179 2.657 1_655 S
N180 C181 1.334 . S
C181 N180 1.334 . S
C181 C183 1.413 . S
C181 H188 0.929 . S
C182 C170 1.392 . S
C182 C183 1.367 . S
C182 H190 0.930 . S
C183 C181 1.413 . S
C183 C182 1.367 . S
C183 H185 0.930 . S
H184 C177 0.930 1_455 S
H185 C183 0.930 . S
H186 C174 0.930 . S
H187 C175 0.930 . S
H188 C181 0.929 . S
H189 C203 0.930 . S
H190 C182 0.930 . S
H191 C209 0.930 . S
H192 C200 0.929 . S
H193 C207 0.930 . S
H194 C171 0.931 . S
H195 C201 0.930 . S
H196 C234 0.930 . S
H197 C178 0.930 . S
H198 C233 0.931 . S
N199 Eu168 2.657 . S
N199 C200 1.334 . S
N199 C204 1.362 . S
C200 H192 0.929 . S
C200 N199 1.334 . S
C200 C203 1.413 . S
C201 H195 0.930 . S
C201 C202 1.392 . S
C201 C203 1.367 . S
C202 C201 1.392 . S
C202 C204 1.420 . S
C202 C234 1.423 . S
C203 H189 0.930 . S
C203 C200 1.413 . S
C203 C201 1.367 . S
C204 N199 1.362 . S
C204 C202 1.420 . S
C204 C208 1.429 . S
H205 C210 0.930 . S
N206 Eu168 2.609 . S
N206 C208 1.377 . S
N206 C209 1.321 . S
C207 H193 0.930 . S
C207 C209 1.400 . S
C207 C210 1.386 . S
C208 C204 1.429 . S
C208 N206 1.377 . S
C208 C211 1.411 . S
C209 H191 0.930 . S
C209 N206 1.321 . S
C209 C207 1.400 . S
C210 H205 0.930 . S
C210 C207 1.386 . S
C210 C211 1.395 . S
C211 C208 1.411 . S
C211 C210 1.395 . S
C211 C233 1.420 . S
O212 Eu168 2.558 . S
O212 C232 1.257 . S
O213 Eu168 2.612 1_655 S
O213 Eu179 2.380 1_655 S
O213 C224 1.276 . S
O214 Eu179 2.432 . S
O214 C231 1.264 . S
O215 Eu168 2.339 . S
O215 C231 1.254 . S
O216 Eu168 2.563 1_655 S
O216 C224 1.235 . S
O217 Eu168 2.419 . S
O217 C232 1.249 . S
O218 Eu179 2.558 . S
O218 C243 1.257 . S
O219 Eu168 2.380 . S
O219 Eu179 2.612 . S
O219 C235 1.276 . S
O220 Eu168 2.432 . S
O220 C242 1.264 . S
O221 Eu179 2.339 . S
O221 C242 1.254 . S
O222 Eu179 2.563 . S
O222 C235 1.235 . S
O223 Eu179 2.419 . S
O223 C243 1.249 . S
C224 O213 1.276 . S
C224 O216 1.235 . S
C225 C227 1.393 . S
C225 C229 1.395 . S
C225 C232 1.492 1_655 S
C226 C227 1.392 . S
C226 C228 1.386 . S
C227 C225 1.393 . S
C227 C226 1.392 . S
C227 H244 0.930 . S
C228 C226 1.386 . S
C228 C230 1.395 . S
C228 H245 0.930 . S
C229 C225 1.395 . S
C229 C230 1.379 . S
C229 H246 0.930 1_655 S
C230 C228 1.395 . S
C230 C229 1.379 . S
C230 H247 0.930 . S
C231 O214 1.264 . S
C231 O215 1.254 . S
C232 Eu168 2.848 . S
C232 O212 1.257 . S
C232 O217 1.249 . S
C232 C225 1.492 1_455 S
C233 H198 0.931 . S
C233 C211 1.420 . S
C233 C234 1.351 . S
C234 H196 0.930 . S
C234 C202 1.423 . S
C234 C233 1.351 . S
C235 O219 1.276 . S
C235 O222 1.235 . S
C236 C237 1.393 . S
C236 C240 1.395 . S
C236 C243 1.492 . S
C237 C236 1.393 . S
C237 C238 1.392 . S
C237 H248 0.930 . S
C238 C237 1.392 . S
C238 C239 1.386 . S
C239 C238 1.386 . S
C239 C241 1.395 . S
C239 H249 0.930 . S
C240 C236 1.395 . S
C240 C241 1.379 . S
C240 H250 0.930 . S
C241 C239 1.395 . S
C241 C240 1.379 . S
C241 H251 0.930 . S
C242 O220 1.264 . S
C242 O221 1.254 . S
C243 Eu179 2.848 . S
C243 O218 1.257 . S
C243 O223 1.249 . S
C243 C236 1.492 . S
H244 C227 0.930 . S
H245 C228 0.930 . S
H246 C229 0.930 1_455 S
H247 C230 0.930 . S
H248 C237 0.930 . S
H249 C239 0.930 . S
H250 C240 0.930 . S
H251 C241 0.930 . S
Eu252 N283 2.657 1_655 S
Eu252 N290 2.609 1_655 S
Eu252 O296 2.558 . S
Eu252 O297 2.612 . S
Eu252 O299 2.339 . S
Eu252 O300 2.563 . S
Eu252 O301 2.419 . S
Eu252 O303 2.380 1_655 S
Eu252 O304 2.432 . S
Eu252 C316 2.848 . S
C253 C256 1.429 . S
C253 C257 1.411 . S
C253 N260 1.377 . S
C254 C256 1.420 . S
C254 C258 1.423 . S
C254 C266 1.392 . S
C255 C257 1.420 . S
C255 C258 1.351 . S
C255 H278 0.931 . S
C256 C253 1.429 . S
C256 C254 1.420 . S
C256 N264 1.362 . S
C257 C253 1.411 . S
C257 C255 1.420 . S
C257 C262 1.395 . S
C258 C254 1.423 . S
C258 C255 1.351 . S
C258 H270 0.930 . S
C259 C261 1.400 . S
C259 C262 1.386 . S
C259 H271 0.930 . S
N260 C253 1.377 . S
N260 C261 1.321 . S
N260 Eu263 2.609 . S
C261 C259 1.400 . S
C261 N260 1.321 . S
C261 H268 0.930 . S
C262 C257 1.395 . S
C262 C259 1.386 . S
C262 H281 0.930 . S
Eu263 N260 2.609 . S
Eu263 N264 2.657 . S
Eu263 O297 2.380 . S
Eu263 O298 2.432 . S
Eu263 O302 2.558 . S
Eu263 O303 2.612 1_655 S
Eu263 O305 2.339 . S
Eu263 O306 2.563 1_655 S
Eu263 O307 2.419 . S
Eu263 C327 2.848 . S
N264 C256 1.362 . S
N264 Eu263 2.657 . S
N264 C265 1.334 . S
C265 N264 1.334 . S
C265 C267 1.413 . S
C265 H272 0.929 . S
C266 C254 1.392 . S
C266 C267 1.367 . S
C266 H274 0.930 . S
C267 C265 1.413 . S
C267 C266 1.367 . S
C267 H269 0.930 . S
H268 C261 0.930 . S
H269 C267 0.930 . S
H270 C258 0.930 . S
H271 C259 0.930 . S
H272 C265 0.929 . S
H273 C287 0.930 . S
H274 C266 0.930 . S
H275 C293 0.930 1_655 S
H276 C284 0.929 . S
H277 C291 0.930 . S
H278 C255 0.931 . S
H279 C285 0.930 . S
H280 C318 0.930 . S
H281 C262 0.930 . S
H282 C317 0.931 . S
N283 Eu252 2.657 1_455 S
N283 C284 1.334 . S
N283 C288 1.362 . S
C284 H276 0.929 . S
C284 N283 1.334 . S
C284 C287 1.413 . S
C285 H279 0.930 . S
C285 C286 1.392 . S
C285 C287 1.367 . S
C286 C285 1.392 . S
C286 C288 1.420 . S
C286 C318 1.423 . S
C287 H273 0.930 . S
C287 C284 1.413 . S
C287 C285 1.367 . S
C288 N283 1.362 . S
C288 C286 1.420 . S
C288 C292 1.429 . S
H289 C294 0.930 . S
N290 Eu252 2.609 1_455 S
N290 C292 1.377 . S
N290 C293 1.321 . S
C291 H277 0.930 . S
C291 C293 1.400 . S
C291 C294 1.386 . S
C292 C288 1.429 . S
C292 N290 1.377 . S
C292 C295 1.411 . S
C293 H275 0.930 1_455 S
C293 N290 1.321 . S
C293 C291 1.400 . S
C294 H289 0.930 . S
C294 C291 1.386 . S
C294 C295 1.395 . S
C295 C292 1.411 . S
C295 C294 1.395 . S
C295 C317 1.420 . S
O296 Eu252 2.558 . S
O296 C316 1.257 . S
O297 Eu252 2.612 . S
O297 Eu263 2.380 . S
O297 C308 1.276 . S
O298 Eu263 2.432 . S
O298 C315 1.264 . S
O299 Eu252 2.339 . S
O299 C315 1.254 . S
O300 Eu252 2.563 . S
O300 C308 1.235 . S
O301 Eu252 2.419 . S
O301 C316 1.249 . S
O302 Eu263 2.558 . S
O302 C327 1.257 . S
O303 Eu252 2.380 1_455 S
O303 Eu263 2.612 1_455 S
O303 C319 1.276 . S
O304 Eu252 2.432 . S
O304 C326 1.264 . S
O305 Eu263 2.339 . S
O305 C326 1.254 . S
O306 Eu263 2.563 1_455 S
O306 C319 1.235 . S
O307 Eu263 2.419 . S
O307 C327 1.249 . S
C308 O297 1.276 . S
C308 O300 1.235 . S
C309 C311 1.393 . S
C309 C313 1.395 . S
C309 C316 1.492 . S
C310 C311 1.392 . S
C310 C312 1.386 . S
C311 C309 1.393 . S
C311 C310 1.392 . S
C311 H328 0.930 . S
C312 C310 1.386 . S
C312 C314 1.395 . S
C312 H329 0.930 . S
C313 C309 1.395 . S
C313 C314 1.379 . S
C313 H330 0.930 . S
C314 C312 1.395 . S
C314 C313 1.379 . S
C314 H331 0.930 . S
C315 O298 1.264 . S
C315 O299 1.254 . S
C316 Eu252 2.848 . S
C316 O296 1.257 . S
C316 O301 1.249 . S
C316 C309 1.492 . S
C317 H282 0.931 . S
C317 C295 1.420 . S
C317 C318 1.351 . S
C318 H280 0.930 . S
C318 C286 1.423 . S
C318 C317 1.351 . S
C319 O303 1.276 . S
C319 O306 1.235 . S
C320 C321 1.393 . S
C320 C324 1.395 . S
C320 C327 1.492 1_455 S
C321 C320 1.393 . S
C321 C322 1.392 . S
C321 H332 0.930 . S
C322 C321 1.392 . S
C322 C323 1.386 . S
C323 C322 1.386 . S
C323 C325 1.395 . S
C323 H333 0.930 . S
C324 C320 1.395 . S
C324 C325 1.379 . S
C324 H334 0.930 1_455 S
C325 C323 1.395 . S
C325 C324 1.379 . S
C325 H335 0.930 . S
C326 O304 1.264 . S
C326 O305 1.254 . S
C327 Eu263 2.848 . S
C327 O302 1.257 . S
C327 O307 1.249 . S
C327 C320 1.492 1_655 S
H328 C311 0.930 . S
H329 C312 0.930 . S
H330 C313 0.930 . S
H331 C314 0.930 . S
H332 C321 0.930 . S
H333 C323 0.930 . S
H334 C324 0.930 1_655 S
H335 C325 0.930 . S
Eu336 N367 2.657 . S
Eu336 N374 2.609 . S
Eu336 O380 2.558 . S
Eu336 O381 2.612 1_554 S
Eu336 O383 2.339 1_554 S
Eu336 O384 2.563 . S
Eu336 O385 2.419 . S
Eu336 O387 2.380 . S
Eu336 O388 2.432 . S
Eu336 C400 2.848 . S
C337 C340 1.429 . S
C337 C341 1.411 . S
C337 N344 1.377 . S
C338 C340 1.420 . S
C338 C342 1.423 . S
C338 C350 1.392 1_556 S
C339 C341 1.420 . S
C339 C342 1.351 . S
C339 H362 0.931 . S
C340 C337 1.429 . S
C340 C338 1.420 . S
C340 N348 1.362 1_556 S
C341 C337 1.411 . S
C341 C339 1.420 . S
C341 C346 1.395 . S
C342 C338 1.423 . S
C342 C339 1.351 . S
C342 H354 0.930 . S
C343 C345 1.400 . S
C343 C346 1.386 . S
C343 H355 0.930 . S
N344 C337 1.377 . S
N344 C345 1.321 . S
N344 Eu347 2.609 . S
C345 C343 1.400 . S
C345 N344 1.321 . S
C345 H352 0.930 . S
C346 C341 1.395 . S
C346 C343 1.386 . S
C346 H365 0.930 . S
Eu347 N344 2.609 . S
Eu347 N348 2.657 1_556 S
Eu347 O381 2.380 . S
Eu347 O382 2.432 . S
Eu347 O386 2.558 . S
Eu347 O387 2.612 1_556 S
Eu347 O389 2.339 1_556 S
Eu347 O390 2.563 . S
Eu347 O391 2.419 . S
Eu347 C411 2.848 . S
N348 C340 1.362 1_554 S
N348 Eu347 2.657 1_554 S
N348 C349 1.334 . S
C349 N348 1.334 . S
C349 C351 1.413 . S
C349 H356 0.929 . S
C350 C338 1.392 1_554 S
C350 C351 1.367 . S
C350 H358 0.930 . S
C351 C349 1.413 . S
C351 C350 1.367 . S
C351 H353 0.930 . S
H352 C345 0.930 . S
H353 C351 0.930 . S
H354 C342 0.930 . S
H355 C343 0.930 . S
H356 C349 0.929 . S
H357 C371 0.930 . S
H358 C350 0.930 . S
H359 C377 0.930 . S
H360 C368 0.929 . S
H361 C375 0.930 . S
H362 C339 0.931 . S
H363 C369 0.930 . S
H364 C402 0.930 . S
H365 C346 0.930 . S
H366 C401 0.931 . S
N367 Eu336 2.657 . S
N367 C368 1.334 1_554 S
N367 C372 1.362 . S
C368 H360 0.929 . S
C368 N367 1.334 1_556 S
C368 C371 1.413 . S
C369 H363 0.930 . S
C369 C370 1.392 1_556 S
C369 C371 1.367 . S
C370 C369 1.392 1_554 S
C370 C372 1.420 . S
C370 C402 1.423 . S
C371 H357 0.930 . S
C371 C368 1.413 . S
C371 C369 1.367 . S
C372 N367 1.362 . S
C372 C370 1.420 . S
C372 C376 1.429 . S
H373 C378 0.930 . S
N374 Eu336 2.609 . S
N374 C376 1.377 . S
N374 C377 1.321 . S
C375 H361 0.930 . S
C375 C377 1.400 . S
C375 C378 1.386 . S
C376 C372 1.429 . S
C376 N374 1.377 . S
C376 C379 1.411 . S
C377 H359 0.930 . S
C377 N374 1.321 . S
C377 C375 1.400 . S
C378 H373 0.930 . S
C378 C375 1.386 . S
C378 C379 1.395 . S
C379 C376 1.411 . S
C379 C378 1.395 . S
C379 C401 1.420 . S
O380 Eu336 2.558 . S
O380 C400 1.257 . S
O381 Eu336 2.612 1_556 S
O381 Eu347 2.380 . S
O381 C392 1.276 1_556 S
O382 Eu347 2.432 . S
O382 C399 1.264 . S
O383 Eu336 2.339 1_556 S
O383 C399 1.254 . S
O384 Eu336 2.563 . S
O384 C392 1.235 . S
O385 Eu336 2.419 . S
O385 C400 1.249 . S
O386 Eu347 2.558 . S
O386 C411 1.257 . S
O387 Eu336 2.380 . S
O387 Eu347 2.612 1_554 S
O387 C403 1.276 . S
O388 Eu336 2.432 . S
O388 C410 1.264 . S
O389 Eu347 2.339 1_554 S
O389 C410 1.254 . S
O390 Eu347 2.563 . S
O390 C403 1.235 1_556 S
O391 Eu347 2.419 . S
O391 C411 1.249 . S
C392 O381 1.276 1_554 S
C392 O384 1.235 . S
C393 C395 1.393 . S
C393 C397 1.395 . S
C393 C400 1.492 . S
C394 C395 1.392 . S
C394 C396 1.386 . S
C395 C393 1.393 . S
C395 C394 1.392 . S
C395 H412 0.930 1_554 S
C396 C394 1.386 . S
C396 C398 1.395 . S
C396 H413 0.930 . S
C397 C393 1.395 . S
C397 C398 1.379 . S
C397 H414 0.930 . S
C398 C396 1.395 . S
C398 C397 1.379 . S
C398 H415 0.930 . S
C399 O382 1.264 . S
C399 O383 1.254 . S
C400 Eu336 2.848 . S
C400 O380 1.257 . S
C400 O385 1.249 . S
C400 C393 1.492 . S
C401 H366 0.931 . S
C401 C379 1.420 . S
C401 C402 1.351 . S
C402 H364 0.930 . S
C402 C370 1.423 . S
C402 C401 1.351 . S
C403 O387 1.276 . S
C403 O390 1.235 1_554 S
C404 C405 1.393 . S
C404 C408 1.395 . S
C404 C411 1.492 . S
C405 C404 1.393 . S
C405 C406 1.392 . S
C405 H416 0.930 1_556 S
C406 C405 1.392 . S
C406 C407 1.386 . S
C407 C406 1.386 . S
C407 C409 1.395 . S
C407 H417 0.930 . S
C408 C404 1.395 . S
C408 C409 1.379 . S
C408 H418 0.930 . S
C409 C407 1.395 . S
C409 C408 1.379 . S
C409 H419 0.930 . S
C410 O388 1.264 . S
C410 O389 1.254 . S
C411 Eu347 2.848 . S
C411 O386 1.257 . S
C411 O391 1.249 . S
C411 C404 1.492 . S
H412 C395 0.930 1_556 S
H413 C396 0.930 . S
H414 C397 0.930 . S
H415 C398 0.930 . S
H416 C405 0.930 1_554 S
H417 C407 0.930 . S
H418 C408 0.930 . S
H419 C409 0.930 . S
Eu420 N451 2.657 . S
Eu420 N458 2.609 . S
Eu420 O464 2.558 . S
Eu420 O465 2.612 . S
Eu420 O467 2.339 1_554 S
Eu420 O468 2.563 . S
Eu420 O469 2.419 . S
Eu420 O471 2.380 . S
Eu420 O472 2.432 . S
Eu420 C484 2.848 . S
C421 C424 1.429 . S
C421 C425 1.411 . S
C421 N428 1.377 . S
C422 C424 1.420 . S
C422 C426 1.423 . S
C422 C434 1.392 1_556 S
C423 C425 1.420 . S
C423 C426 1.351 . S
C423 H446 0.931 . S
C424 C421 1.429 . S
C424 C422 1.420 . S
C424 N432 1.362 1_556 S
C425 C421 1.411 . S
C425 C423 1.420 . S
C425 C430 1.395 . S
C426 C422 1.423 . S
C426 C423 1.351 . S
C426 H438 0.930 . S
C427 C429 1.400 . S
C427 C430 1.386 . S
C427 H439 0.930 . S
N428 C421 1.377 . S
N428 C429 1.321 . S
N428 Eu431 2.609 . S
C429 C427 1.400 . S
C429 N428 1.321 . S
C429 H436 0.930 . S
C430 C425 1.395 . S
C430 C427 1.386 . S
C430 H449 0.930 . S
Eu431 N428 2.609 . S
Eu431 N432 2.657 1_556 S
Eu431 O465 2.380 1_556 S
Eu431 O466 2.432 . S
Eu431 O470 2.558 . S
Eu431 O471 2.612 1_556 S
Eu431 O473 2.339 1_556 S
Eu431 O474 2.563 . S
Eu431 O475 2.419 1_556 S
Eu431 C495 2.848 . S
N432 C424 1.362 1_554 S
N432 Eu431 2.657 1_554 S
N432 C433 1.334 . S
C433 N432 1.334 . S
C433 C435 1.413 . S
C433 H440 0.929 . S
C434 C422 1.392 1_554 S
C434 C435 1.367 . S
C434 H442 0.930 . S
C435 C433 1.413 . S
C435 C434 1.367 . S
C435 H437 0.930 . S
H436 C429 0.930 . S
H437 C435 0.930 . S
H438 C426 0.930 . S
H439 C427 0.930 . S
H440 C433 0.929 . S
H441 C455 0.930 . S
H442 C434 0.930 . S
H443 C461 0.930 . S
H444 C452 0.929 . S
H445 C459 0.930 . S
H446 C423 0.931 . S
H447 C453 0.930 . S
H448 C486 0.930 . S
H449 C430 0.930 . S
H450 C485 0.931 . S
N451 Eu420 2.657 . S
N451 C452 1.334 1_554 S
N451 C456 1.362 . S
C452 H444 0.929 . S
C452 N451 1.334 1_556 S
C452 C455 1.413 . S
C453 H447 0.930 . S
C453 C454 1.392 1_556 S
C453 C455 1.367 . S
C454 C453 1.392 1_554 S
C454 C456 1.420 . S
C454 C486 1.423 . S
C455 H441 0.930 . S
C455 C452 1.413 . S
C455 C453 1.367 . S
C456 N451 1.362 . S
C456 C454 1.420 . S
C456 C460 1.429 . S
H457 C462 0.930 . S
N458 Eu420 2.609 . S
N458 C460 1.377 . S
N458 C461 1.321 . S
C459 H445 0.930 . S
C459 C461 1.400 . S
C459 C462 1.386 . S
C460 C456 1.429 . S
C460 N458 1.377 . S
C460 C463 1.411 . S
C461 H443 0.930 . S
C461 N458 1.321 . S
C461 C459 1.400 . S
C462 H457 0.930 . S
C462 C459 1.386 . S
C462 C463 1.395 . S
C463 C460 1.411 . S
C463 C462 1.395 . S
C463 C485 1.420 . S
O464 Eu420 2.558 . S
O464 C484 1.257 . S
O465 Eu420 2.612 . S
O465 Eu431 2.380 1_554 S
O465 C476 1.276 . S
O466 Eu431 2.432 . S
O466 C483 1.264 . S
O467 Eu420 2.339 1_556 S
O467 C483 1.254 . S
O468 Eu420 2.563 . S
O468 C476 1.235 . S
O469 Eu420 2.419 . S
O469 C484 1.249 . S
O470 Eu431 2.558 . S
O470 C495 1.257 . S
O471 Eu420 2.380 . S
O471 Eu431 2.612 1_554 S
O471 C487 1.276 . S
O472 Eu420 2.432 . S
O472 C494 1.264 . S
O473 Eu431 2.339 1_554 S
O473 C494 1.254 . S
O474 Eu431 2.563 . S
O474 C487 1.235 1_556 S
O475 Eu431 2.419 1_554 S
O475 C495 1.249 1_554 S
C476 O465 1.276 . S
C476 O468 1.235 . S
C477 C479 1.393 . S
C477 C481 1.395 . S
C477 C484 1.492 . S
C478 C479 1.392 . S
C478 C480 1.386 . S
C479 C477 1.393 . S
C479 C478 1.392 . S
C479 H496 0.942 . S
C480 C478 1.386 . S
C480 C482 1.395 . S
C480 H497 0.930 . S
C481 C477 1.395 . S
C481 C482 1.379 . S
C481 H498 0.930 . S
C482 C480 1.395 . S
C482 C481 1.379 . S
C482 H499 0.930 . S
C483 O466 1.264 . S
C483 O467 1.254 . S
C484 Eu420 2.848 . S
C484 O464 1.257 . S
C484 O469 1.249 . S
C484 C477 1.492 . S
C485 H450 0.931 . S
C485 C463 1.420 . S
C485 C486 1.351 . S
C486 H448 0.930 . S
C486 C454 1.423 . S
C486 C485 1.351 . S
C487 O471 1.276 . S
C487 O474 1.235 1_554 S
C488 C489 1.393 . S
C488 C492 1.395 . S
C488 C495 1.492 . S
C489 C488 1.393 . S
C489 C490 1.392 . S
C489 H500 0.930 1_556 S
C490 C489 1.392 . S
C490 C491 1.386 . S
C491 C490 1.386 . S
C491 C493 1.395 . S
C491 H501 0.930 . S
C492 C488 1.395 . S
C492 C493 1.379 . S
C492 H502 0.930 . S
C493 C491 1.395 . S
C493 C492 1.379 . S
C493 H503 0.930 . S
C494 O472 1.264 . S
C494 O473 1.254 . S
C495 Eu431 2.848 . S
C495 O470 1.257 . S
C495 O475 1.249 1_556 S
C495 C488 1.492 . S
H496 C479 0.942 . S
H497 C480 0.930 . S
H498 C481 0.930 . S
H499 C482 0.930 . S
H500 C489 0.930 1_554 S
H501 C491 0.930 . S
H502 C492 0.930 . S
H503 C493 0.930 . S
Eu504 N535 2.657 . S
Eu504 N542 2.609 . S
Eu504 O548 2.558 . S
Eu504 O549 2.612 . S
Eu504 O551 2.339 . S
Eu504 O552 2.563 . S
Eu504 O553 2.419 . S
Eu504 O555 2.380 . S
Eu504 O556 2.432 . S
Eu504 C568 2.848 . S
C505 C508 1.429 . S
C505 C509 1.411 . S
C505 N512 1.377 . S
C506 C508 1.420 . S
C506 C510 1.423 . S
C506 C518 1.392 . S
C507 C509 1.420 . S
C507 C510 1.351 . S
C507 H530 0.931 . S
C508 C505 1.429 . S
C508 C506 1.420 . S
C508 N516 1.362 . S
C509 C505 1.411 . S
C509 C507 1.420 . S
C509 C514 1.395 . S
C510 C506 1.423 . S
C510 C507 1.351 . S
C510 H522 0.930 . S
C511 C513 1.400 . S
C511 C514 1.386 . S
C511 H523 0.930 . S
N512 C505 1.377 . S
N512 C513 1.321 . S
N512 Eu515 2.609 . S
C513 C511 1.400 . S
C513 N512 1.321 . S
C513 H520 0.930 . S
C514 C509 1.395 . S
C514 C511 1.386 . S
C514 H533 0.930 . S
Eu515 N512 2.609 . S
Eu515 N516 2.657 . S
Eu515 O549 2.380 . S
Eu515 O550 2.432 . S
Eu515 O554 2.558 . S
Eu515 O555 2.612 . S
Eu515 O557 2.339 . S
Eu515 O558 2.563 . S
Eu515 O559 2.419 . S
Eu515 C579 2.848 . S
N516 C508 1.362 . S
N516 Eu515 2.657 . S
N516 C517 1.334 . S
C517 N516 1.334 . S
C517 C519 1.413 . S
C517 H524 0.929 . S
C518 C506 1.392 . S
C518 C519 1.367 . S
C518 H526 0.930 . S
C519 C517 1.413 . S
C519 C518 1.367 . S
C519 H521 0.930 . S
H520 C513 0.930 . S
H521 C519 0.930 . S
H522 C510 0.930 . S
H523 C511 0.930 . S
H524 C517 0.929 . S
H525 C539 0.930 . S
H526 C518 0.930 . S
H527 C545 0.930 . S
H528 C536 0.929 . S
H529 C543 0.930 . S
H530 C507 0.931 . S
H531 C537 0.930 . S
H532 C570 0.930 . S
H533 C514 0.930 . S
H534 C569 0.931 . S
N535 Eu504 2.657 . S
N535 C536 1.334 . S
N535 C540 1.362 . S
C536 H528 0.929 . S
C536 N535 1.334 . S
C536 C539 1.413 . S
C537 H531 0.930 . S
C537 C538 1.392 . S
C537 C539 1.367 . S
C538 C537 1.392 . S
C538 C540 1.420 . S
C538 C570 1.423 . S
C539 H525 0.930 . S
C539 C536 1.413 . S
C539 C537 1.367 . S
C540 N535 1.362 . S
C540 C538 1.420 . S
C540 C544 1.429 . S
H541 C546 0.930 . S
N542 Eu504 2.609 . S
N542 C544 1.377 . S
N542 C545 1.321 . S
C543 H529 0.930 . S
C543 C545 1.400 . S
C543 C546 1.386 . S
C544 C540 1.429 . S
C544 N542 1.377 . S
C544 C547 1.411 . S
C545 H527 0.930 . S
C545 N542 1.321 . S
C545 C543 1.400 . S
C546 H541 0.930 . S
C546 C543 1.386 . S
C546 C547 1.395 . S
C547 C544 1.411 . S
C547 C546 1.395 . S
C547 C569 1.420 . S
O548 Eu504 2.558 . S
O548 C568 1.257 . S
O549 Eu504 2.612 . S
O549 Eu515 2.380 . S
O549 C560 1.276 . S
O550 Eu515 2.432 . S
O550 C567 1.264 . S
O551 Eu504 2.339 . S
O551 C567 1.254 . S
O552 Eu504 2.563 . S
O552 C560 1.235 . S
O553 Eu504 2.419 . S
O553 C568 1.249 . S
O554 Eu515 2.558 . S
O554 C579 1.257 . S
O555 Eu504 2.380 . S
O555 Eu515 2.612 . S
O555 C571 1.276 . S
O556 Eu504 2.432 . S
O556 C578 1.264 . S
O557 Eu515 2.339 . S
O557 C578 1.254 . S
O558 Eu515 2.563 . S
O558 C571 1.235 . S
O559 Eu515 2.419 . S
O559 C579 1.249 . S
C560 O549 1.276 . S
C560 O552 1.235 . S
C561 C563 1.393 . S
C561 C565 1.395 . S
C561 C568 1.492 . S
C562 C563 1.392 . S
C562 C564 1.386 . S
C563 C561 1.393 . S
C563 C562 1.392 . S
C563 H580 0.930 . S
C564 C562 1.386 . S
C564 C566 1.395 . S
C564 H581 0.930 . S
C565 C561 1.395 . S
C565 C566 1.379 . S
C565 H582 0.930 . S
C566 C564 1.395 . S
C566 C565 1.379 . S
C566 H583 0.930 . S
C567 O550 1.264 . S
C567 O551 1.254 . S
C568 Eu504 2.848 . S
C568 O548 1.257 . S
C568 O553 1.249 . S
C568 C561 1.492 . S
C569 H534 0.931 . S
C569 C547 1.420 . S
C569 C570 1.351 . S
C570 H532 0.930 . S
C570 C538 1.423 . S
C570 C569 1.351 . S
C571 O555 1.276 . S
C571 O558 1.235 . S
C572 C573 1.393 . S
C572 C576 1.395 . S
C572 C579 1.492 . S
C573 C572 1.393 . S
C573 C574 1.392 . S
C573 H584 0.930 . S
C574 C573 1.392 . S
C574 C575 1.386 . S
C575 C574 1.386 . S
C575 C577 1.395 . S
C575 H585 0.930 . S
C576 C572 1.395 . S
C576 C577 1.379 . S
C576 H586 0.930 . S
C577 C575 1.395 . S
C577 C576 1.379 . S
C577 H587 0.930 . S
C578 O556 1.264 . S
C578 O557 1.254 . S
C579 Eu515 2.848 . S
C579 O554 1.257 . S
C579 O559 1.249 . S
C579 C572 1.492 . S
H580 C563 0.930 . S
H581 C564 0.930 . S
H582 C565 0.930 . S
H583 C566 0.930 . S
H584 C573 0.930 . S
H585 C575 0.930 . S
H586 C576 0.930 . S
H587 C577 0.930 . S
Eu588 N619 2.657 . S
Eu588 N626 2.609 . S
Eu588 O632 2.558 . S
Eu588 O633 2.612 . S
Eu588 O635 2.339 . S
Eu588 O636 2.563 . S
Eu588 O637 2.419 . S
Eu588 O639 2.380 . S
Eu588 O640 2.432 . S
Eu588 C652 2.848 . S
C589 C592 1.429 . S
C589 C593 1.411 . S
C589 N596 1.377 . S
C590 C592 1.420 . S
C590 C594 1.423 . S
C590 C602 1.392 . S
C591 C593 1.420 . S
C591 C594 1.351 . S
C591 H614 0.931 . S
C592 C589 1.429 . S
C592 C590 1.420 . S
C592 N600 1.362 . S
C593 C589 1.411 . S
C593 C591 1.420 . S
C593 C598 1.395 . S
C594 C590 1.423 . S
C594 C591 1.351 . S
C594 H606 0.930 . S
C595 C597 1.400 . S
C595 C598 1.386 . S
C595 H607 0.930 . S
N596 C589 1.377 . S
N596 C597 1.321 . S
N596 Eu599 2.609 . S
C597 C595 1.400 . S
C597 N596 1.321 . S
C597 H604 0.930 . S
C598 C593 1.395 . S
C598 C595 1.386 . S
C598 H617 0.930 . S
Eu599 N596 2.609 . S
Eu599 N600 2.657 . S
Eu599 O633 2.380 . S
Eu599 O634 2.432 . S
Eu599 O638 2.558 . S
Eu599 O639 2.612 . S
Eu599 O641 2.339 . S
Eu599 O642 2.563 . S
Eu599 O643 2.419 . S
Eu599 C663 2.848 . S
N600 C592 1.362 . S
N600 Eu599 2.657 . S
N600 C601 1.334 . S
C601 N600 1.334 . S
C601 C603 1.413 . S
C601 H608 0.929 . S
C602 C590 1.392 . S
C602 C603 1.367 . S
C602 H610 0.930 . S
C603 C601 1.413 . S
C603 C602 1.367 . S
C603 H605 0.930 . S
H604 C597 0.930 . S
H605 C603 0.930 . S
H606 C594 0.930 . S
H607 C595 0.930 . S
H608 C601 0.929 . S
H609 C623 0.930 . S
H610 C602 0.930 . S
H611 C629 0.930 . S
H612 C620 0.929 . S
H613 C627 0.930 . S
H614 C591 0.931 . S
H615 C621 0.930 . S
H616 C654 0.930 . S
H617 C598 0.930 . S
H618 C653 0.931 . S
N619 Eu588 2.657 . S
N619 C620 1.334 . S
N619 C624 1.362 . S
C620 H612 0.929 . S
C620 N619 1.334 . S
C620 C623 1.413 . S
C621 H615 0.930 . S
C621 C622 1.392 . S
C621 C623 1.367 . S
C622 C621 1.392 . S
C622 C624 1.420 . S
C622 C654 1.423 . S
C623 H609 0.930 . S
C623 C620 1.413 . S
C623 C621 1.367 . S
C624 N619 1.362 . S
C624 C622 1.420 . S
C624 C628 1.429 . S
H625 C630 0.930 . S
N626 Eu588 2.609 . S
N626 C628 1.377 . S
N626 C629 1.321 . S
C627 H613 0.930 . S
C627 C629 1.400 . S
C627 C630 1.386 . S
C628 C624 1.429 . S
C628 N626 1.377 . S
C628 C631 1.411 . S
C629 H611 0.930 . S
C629 N626 1.321 . S
C629 C627 1.400 . S
C630 H625 0.930 . S
C630 C627 1.386 . S
C630 C631 1.395 . S
C631 C628 1.411 . S
C631 C630 1.395 . S
C631 C653 1.420 . S
O632 Eu588 2.558 . S
O632 C652 1.257 . S
O633 Eu588 2.612 . S
O633 Eu599 2.380 . S
O633 C644 1.276 . S
O634 Eu599 2.432 . S
O634 C651 1.264 . S
O635 Eu588 2.339 . S
O635 C651 1.254 . S
O636 Eu588 2.563 . S
O636 C644 1.235 . S
O637 Eu588 2.419 . S
O637 C652 1.249 . S
O638 Eu599 2.558 . S
O638 C663 1.257 . S
O639 Eu588 2.380 . S
O639 Eu599 2.612 . S
O639 C655 1.276 . S
O640 Eu588 2.432 . S
O640 C662 1.264 . S
O641 Eu599 2.339 . S
O641 C662 1.254 . S
O642 Eu599 2.563 . S
O642 C655 1.235 . S
O643 Eu599 2.419 . S
O643 C663 1.249 . S
C644 O633 1.276 . S
C644 O636 1.235 . S
C645 C647 1.393 . S
C645 C649 1.395 . S
C645 C652 1.492 . S
C646 C647 1.392 . S
C646 C648 1.386 . S
C647 C645 1.393 . S
C647 C646 1.392 . S
C647 H664 0.930 . S
C648 C646 1.386 . S
C648 C650 1.395 . S
C648 H665 0.930 . S
C649 C645 1.395 . S
C649 C650 1.379 . S
C649 H666 0.930 . S
C650 C648 1.395 . S
C650 C649 1.379 . S
C650 H667 0.930 . S
C651 O634 1.264 . S
C651 O635 1.254 . S
C652 Eu588 2.848 . S
C652 O632 1.257 . S
C652 O637 1.249 . S
C652 C645 1.492 . S
C653 H618 0.931 . S
C653 C631 1.420 . S
C653 C654 1.351 . S
C654 H616 0.930 . S
C654 C622 1.423 . S
C654 C653 1.351 . S
C655 O639 1.276 . S
C655 O642 1.235 . S
C656 C657 1.393 . S
C656 C660 1.395 . S
C656 C663 1.492 . S
C657 C656 1.393 . S
C657 C658 1.392 . S
C657 H668 0.930 . S
C658 C657 1.392 . S
C658 C659 1.386 . S
C659 C658 1.386 . S
C659 C661 1.395 . S
C659 H669 0.930 . S
C660 C656 1.395 . S
C660 C661 1.379 . S
C660 H670 0.930 . S
C661 C659 1.395 . S
C661 C660 1.379 . S
C661 H671 0.930 . S
C662 O640 1.264 . S
C662 O641 1.254 . S
C663 Eu599 2.848 . S
C663 O638 1.257 . S
C663 O643 1.249 . S
C663 C656 1.492 . S
H664 C647 0.930 . S
H665 C648 0.930 . S
H666 C649 0.930 . S
H667 C650 0.930 . S
H668 C657 0.930 . S
H669 C659 0.930 . S
H670 C660 0.930 . S
H671 C661 0.930 . S
H672 C678 0.930 . S
H673 C682 0.930 . S
H674 C687 0.929 . S
H675 C685 0.929 . S
H676 C680 0.929 . S
H677 C686 0.929 1_556 S
C678 H672 0.930 . S
C678 C679 1.367 . S
C678 C686 1.378 . S
C679 C678 1.367 . S
C679 C687 1.433 . S
C680 H676 0.929 . S
C680 C682 1.378 . S
C680 C684 1.350 . S
C681 C684 1.463 . S
C681 C686 1.350 . S
C681 N689 1.427 . S
C682 H673 0.930 . S
C682 C680 1.378 . S
C682 C683 1.371 1_554 S
C683 C682 1.371 1_556 S
C683 C685 1.426 . S
C684 C680 1.350 . S
C684 C681 1.463 . S
C684 N688 1.427 1_554 S
C685 H675 0.929 . S
C685 C683 1.426 . S
C685 N688 1.384 . S
C686 H677 0.929 1_554 S
C686 C678 1.378 . S
C686 C681 1.350 . S
C687 H674 0.929 . S
C687 C679 1.433 . S
C687 N689 1.384 . S
N688 C684 1.427 1_556 S
N688 C685 1.384 . S
N689 C681 1.427 . S
N689 C687 1.384 . S
H690 C696 0.930 . S
H691 C700 0.930 . S
H692 C705 0.929 . S
H693 C703 0.929 . S
H694 C698 0.929 . S
H695 C704 0.929 . S
C696 H690 0.930 . S
C696 C697 1.367 . S
C696 C704 1.378 . S
C697 C696 1.367 . S
C697 C705 1.433 . S
C698 H694 0.929 . S
C698 C700 1.378 . S
C698 C702 1.350 . S
C699 C702 1.463 . S
C699 C704 1.350 . S
C699 N707 1.427 . S
C700 H691 0.930 . S
C700 C698 1.378 . S
C700 C701 1.367 . S
C701 C700 1.367 . S
C701 C703 1.433 . S
C702 C698 1.350 . S
C702 C699 1.463 . S
C702 N706 1.427 . S
C703 H693 0.929 . S
C703 C701 1.433 . S
C703 N706 1.384 . S
C704 H695 0.929 . S
C704 C696 1.378 . S
C704 C699 1.350 . S
C705 H692 0.929 . S
C705 C697 1.433 . S
C705 N707 1.384 . S
N706 C702 1.427 . S
N706 C703 1.384 . S
N707 C699 1.427 . S
N707 C705 1.384 . S
H708 C714 0.930 . S
H709 C718 0.930 . S
H710 C723 0.929 . S
H711 C721 0.929 . S
H712 C716 0.929 . S
H713 C722 0.929 . S
C714 H708 0.930 . S
C714 C715 1.367 . S
C714 C722 1.378 . S
C715 C714 1.367 . S
C715 C723 1.433 . S
C716 H712 0.929 . S
C716 C718 1.378 . S
C716 C720 1.350 . S
C717 C720 1.463 . S
C717 C722 1.350 . S
C717 N725 1.427 . S
C718 H709 0.930 . S
C718 C716 1.378 . S
C718 C719 1.367 . S
C719 C718 1.367 . S
C719 C721 1.433 . S
C720 C716 1.350 . S
C720 C717 1.463 . S
C720 N724 1.427 . S
C721 H711 0.929 . S
C721 C719 1.433 . S
C721 N724 1.384 . S
C722 H713 0.929 . S
C722 C714 1.378 . S
C722 C717 1.350 . S
C723 H710 0.929 . S
C723 C715 1.433 . S
C723 N725 1.384 . S
N724 C720 1.427 . S
N724 C721 1.384 . S
N725 C717 1.427 . S
N725 C723 1.384 . S
H726 C732 0.930 . S
H727 C736 0.930 . S
H728 C741 0.929 . S
H729 C739 0.929 . S
H730 C734 0.929 . S
H731 C740 0.929 . S
C732 H726 0.930 . S
C732 C733 1.367 . S
C732 C740 1.378 . S
C733 C732 1.367 . S
C733 C741 1.433 . S
C734 H730 0.929 . S
C734 C736 1.378 . S
C734 C738 1.350 . S
C735 C738 1.463 . S
C735 C740 1.350 . S
C735 N743 1.427 . S
C736 H727 0.930 . S
C736 C734 1.378 . S
C736 C737 1.367 . S
C737 C736 1.367 . S
C737 C739 1.433 . S
C738 C734 1.350 . S
C738 C735 1.463 . S
C738 N742 1.427 . S
C739 H729 0.929 . S
C739 C737 1.433 . S
C739 N742 1.384 . S
C740 H731 0.929 . S
C740 C732 1.378 . S
C740 C735 1.350 . S
C741 H728 0.929 . S
C741 C733 1.433 . S
C741 N743 1.384 . S
N742 C738 1.427 . S
N742 C739 1.384 . S
N743 C735 1.427 . S
N743 C741 1.384 . S
H744 C750 0.930 . S
H745 C754 0.930 . S
H746 C759 0.929 . S
H747 C757 0.929 . S
H748 C752 0.929 . S
H749 C758 0.929 1_455 S
C750 H744 0.930 . S
C750 C751 1.367 . S
C750 C758 1.378 . S
C751 C750 1.367 . S
C751 C759 1.433 1_554 S
C752 H748 0.929 . S
C752 C754 1.378 . S
C752 C756 1.350 1_556 S
C753 C756 1.463 . S
C753 C758 1.350 1_455 S
C753 N761 1.427 1_454 S
C754 H745 0.930 . S
C754 C752 1.378 . S
C754 C755 1.367 . S
C755 C754 1.367 . S
C755 C757 1.433 1_556 S
C756 C752 1.350 1_554 S
C756 C753 1.463 . S
C756 N760 1.427 . S
C757 H747 0.929 . S
C757 C755 1.433 1_554 S
C757 N760 1.384 . S
C758 H749 0.929 1_655 S
C758 C750 1.378 . S
C758 C753 1.350 1_655 S
C759 H746 0.929 . S
C759 C751 1.433 1_556 S
C759 N761 1.384 . S
N760 C756 1.427 . S
N760 C757 1.384 . S
N761 C753 1.427 1_656 S
N761 C759 1.384 . S
H762 C768 0.930 . S
H763 C772 0.930 1_556 S
H764 C777 0.929 . S
H765 C775 0.929 . S
H766 C770 0.929 1_556 S
H767 C776 0.929 1_655 S
C768 H762 0.930 . S
C768 C769 1.367 . S
C768 C776 1.378 . S
C769 C768 1.367 . S
C769 C777 1.433 1_554 S
C770 H766 0.929 1_554 S
C770 C772 1.380 . S
C770 C774 1.348 . S
C771 C774 1.463 . S
C771 C776 1.350 1_655 S
C771 N779 1.427 1_654 S
C772 H763 0.930 1_554 S
C772 C770 1.380 . S
C772 C773 1.367 . S
C773 C772 1.367 . S
C773 C775 1.433 . S
C774 C770 1.348 . S
C774 C771 1.463 . S
C774 N778 1.427 . S
C775 H765 0.929 . S
C775 C773 1.433 . S
C775 N778 1.384 . S
C776 H767 0.929 1_455 S
C776 C768 1.378 . S
C776 C771 1.350 1_455 S
C777 H764 0.929 . S
C777 C769 1.433 1_556 S
C777 N779 1.384 . S
N778 C774 1.427 . S
N778 C775 1.384 . S
N779 C771 1.427 1_456 S
N779 C777 1.384 . S
H780 C786 0.930 . S
H781 C790 0.930 . S
H782 C795 0.929 . S
H783 C793 0.929 . S
H784 C788 0.929 1_455 S
H785 C794 0.929 . S
C786 H780 0.930 . S
C786 C787 1.367 . S
C786 C794 1.378 . S
C787 C786 1.367 . S
C787 C795 1.433 . S
C788 H784 0.929 1_655 S
C788 C790 1.378 . S
C788 C792 1.350 1_655 S
C789 C792 1.463 . S
C789 C794 1.350 . S
C789 N797 1.427 . S
C790 H781 0.930 . S
C790 C788 1.378 . S
C790 C791 1.367 . S
C791 C790 1.367 . S
C791 C793 1.433 . S
C792 C788 1.350 1_455 S
C792 C789 1.463 . S
C792 N796 1.427 1_455 S
C793 H783 0.929 . S
C793 C791 1.433 . S
C793 N796 1.384 . S
C794 H785 0.929 . S
C794 C786 1.378 . S
C794 C789 1.350 . S
C795 H782 0.929 . S
C795 C787 1.433 . S
C795 N797 1.384 . S
N796 C792 1.427 1_655 S
N796 C793 1.384 . S
N797 C789 1.427 . S
N797 C795 1.384 . S
H798 C804 0.930 . S
H799 C808 0.930 . S
H800 C813 0.929 . S
H801 C811 0.929 . S
H802 C806 0.929 1_655 S
H803 C812 0.929 . S
C804 H798 0.930 . S
C804 C805 1.367 . S
C804 C812 1.378 . S
C805 C804 1.367 . S
C805 C813 1.433 . S
C806 H802 0.929 1_455 S
C806 C808 1.378 . S
C806 C810 1.350 1_455 S
C807 C810 1.463 . S
C807 C812 1.350 . S
C807 N815 1.427 . S
C808 H799 0.930 . S
C808 C806 1.378 . S
C808 C809 1.367 . S
C809 C808 1.367 . S
C809 C811 1.433 . S
C810 C806 1.350 1_655 S
C810 C807 1.463 . S
C810 N814 1.427 1_655 S
C811 H801 0.929 . S
C811 C809 1.433 . S
C811 N814 1.384 . S
C812 H803 0.929 . S
C812 C804 1.378 . S
C812 C807 1.350 . S
C813 H800 0.929 . S
C813 C805 1.433 . S
C813 N815 1.384 . S
N814 C810 1.427 1_455 S
N814 C811 1.384 . S
N815 C807 1.427 . S
N815 C813 1.384 . S
H816 C822 0.930 . S
H817 C826 0.930 . S
H818 C831 0.929 . S
H819 C829 0.929 . S
H820 C824 0.929 . S
H821 C830 0.929 . S
C822 H816 0.930 . S
C822 C823 1.367 1_556 S
C822 C830 1.378 . S
C823 C822 1.367 1_554 S
C823 C831 1.433 . S
C824 H820 0.929 . S
C824 C826 1.378 . S
C824 C828 1.350 . S
C825 C828 1.463 1_455 S
C825 C830 1.350 1_554 S
C825 N833 1.427 . S
C826 H817 0.930 . S
C826 C824 1.378 . S
C826 C827 1.367 . S
C827 C826 1.367 . S
C827 C829 1.433 1_554 S
C828 C824 1.350 . S
C828 C825 1.463 1_655 S
C828 N832 1.427 1_554 S
C829 H819 0.929 . S
C829 C827 1.433 1_556 S
C829 N832 1.384 . S
C830 H821 0.929 . S
C830 C822 1.378 . S
C830 C825 1.350 1_556 S
C831 H818 0.929 . S
C831 C823 1.433 . S
C831 N833 1.384 . S
N832 C828 1.427 1_556 S
N832 C829 1.384 . S
N833 C825 1.427 . S
N833 C831 1.384 . S
H834 C840 0.930 1_655 S
H835 C844 0.930 1_455 S
H836 C849 0.929 . S
H837 C847 0.929 . S
H838 C842 0.929 . S
H839 C848 0.929 . S
C840 H834 0.930 1_455 S
C840 C841 1.367 . S
C840 C848 1.378 1_455 S
C841 C840 1.367 . S
C841 C849 1.433 . S
C842 H838 0.929 . S
C842 C844 1.378 1_455 S
C842 C846 1.350 1_455 S
C843 C846 1.463 1_455 S
C843 C848 1.350 1_455 S
C843 N851 1.427 . S
C844 H835 0.930 1_655 S
C844 C842 1.378 1_655 S
C844 C845 1.367 . S
C845 C844 1.367 . S
C845 C847 1.433 . S
C846 C842 1.350 1_655 S
C846 C843 1.463 1_655 S
C846 N850 1.427 . S
C847 H837 0.929 . S
C847 C845 1.433 . S
C847 N850 1.384 . S
C848 H839 0.929 . S
C848 C840 1.378 1_655 S
C848 C843 1.350 1_655 S
C849 H836 0.929 . S
C849 C841 1.433 . S
C849 N851 1.384 . S
N850 C846 1.427 . S
N850 C847 1.384 . S
N851 C843 1.427 . S
N851 C849 1.384 . S
H852 C858 0.930 . S
H853 C862 0.930 . S
H854 C867 0.929 . S
H855 C865 0.929 . S
H856 C860 0.929 . S
H857 C866 0.929 . S
C858 H852 0.930 . S
C858 C859 1.367 1_556 S
C858 C866 1.378 . S
C859 C858 1.367 1_554 S
C859 C867 1.433 . S
C860 H856 0.929 . S
C860 C862 1.378 . S
C860 C864 1.350 . S
C861 C864 1.463 1_565 S
C861 C866 1.350 1_554 S
C861 N869 1.427 . S
C862 H853 0.930 . S
C862 C860 1.378 . S
C862 C863 1.367 . S
C863 C862 1.367 . S
C863 C865 1.433 1_554 S
C864 C860 1.350 . S
C864 C861 1.463 1_545 S
C864 N868 1.427 1_554 S
C865 H855 0.929 . S
C865 C863 1.433 1_556 S
C865 N868 1.384 . S
C866 H857 0.929 . S
C866 C858 1.378 . S
C866 C861 1.350 1_556 S
C867 H854 0.929 . S
C867 C859 1.433 . S
C867 N869 1.384 . S
N868 C864 1.427 1_556 S
N868 C865 1.384 . S
N869 C861 1.427 . S
N869 C867 1.384 . S
H870 C876 0.930 . S
H871 C880 0.930 . S
H872 C885 0.929 . S
H873 C883 0.929 . S
H874 C878 0.929 1_545 S
H875 C884 0.929 1_565 S
C876 H870 0.930 . S
C876 C877 1.367 . S
C876 C884 1.378 . S
C877 C876 1.367 . S
C877 C885 1.433 . S
C878 H874 0.929 1_565 S
C878 C880 1.378 . S
C878 C882 1.350 . S
C879 C882 1.463 1_545 S
C879 C884 1.350 . S
C879 N887 1.427 . S
C880 H871 0.930 . S
C880 C878 1.378 . S
C880 C881 1.367 . S
C881 C880 1.367 . S
C881 C883 1.433 . S
C882 C878 1.350 . S
C882 C879 1.463 1_565 S
C882 N886 1.427 . S
C883 H873 0.929 . S
C883 C881 1.433 . S
C883 N886 1.384 . S
C884 H875 0.929 1_545 S
C884 C876 1.378 . S
C884 C879 1.350 . S
C885 H872 0.929 . S
C885 C877 1.433 . S
C885 N887 1.384 . S
N886 C882 1.427 . S
N886 C883 1.384 . S
N887 C879 1.427 . S
N887 C885 1.384 . S
H888 C894 0.930 . S
H889 C898 0.930 . S
H890 C903 0.929 . S
H891 C901 0.929 . S
H892 C896 0.929 . S
H893 C902 0.929 . S
C894 H888 0.930 . S
C894 C895 1.367 1_556 S
C894 C902 1.378 . S
C895 C894 1.367 1_554 S
C895 C903 1.433 . S
C896 H892 0.929 . S
C896 C898 1.378 . S
C896 C900 1.350 . S
C897 C900 1.463 . S
C897 C902 1.350 1_554 S
C897 N905 1.427 . S
C898 H889 0.930 . S
C898 C896 1.378 . S
C898 C899 1.367 . S
C899 C898 1.367 . S
C899 C901 1.433 1_554 S
C900 C896 1.350 . S
C900 C897 1.463 . S
C900 N904 1.427 1_554 S
C901 H891 0.929 . S
C901 C899 1.433 1_556 S
C901 N904 1.384 . S
C902 H893 0.929 . S
C902 C894 1.378 . S
C902 C897 1.350 1_556 S
C903 H890 0.929 . S
C903 C895 1.433 . S
C903 N905 1.384 . S
N904 C900 1.427 1_556 S
N904 C901 1.384 . S
N905 C897 1.427 . S
N905 C903 1.384 . S
H906 C912 0.930 . S
H907 C916 0.930 . S
H908 C921 0.929 . S
H909 C919 0.929 . S
H910 C914 0.929 . S
H911 C920 0.929 . S
C912 H906 0.930 . S
C912 C913 1.367 1_556 S
C912 C920 1.378 . S
C913 C912 1.367 1_554 S
C913 C921 1.433 . S
C914 H910 0.929 . S
C914 C916 1.378 . S
C914 C918 1.350 . S
C915 C918 1.463 . S
C915 C920 1.350 1_554 S
C915 N923 1.427 . S
C916 H907 0.930 . S
C916 C914 1.378 . S
C916 C917 1.367 . S
C917 C916 1.367 . S
C917 C919 1.433 1_554 S
C918 C914 1.350 . S
C918 C915 1.463 . S
C918 N922 1.427 1_554 S
C919 H909 0.929 . S
C919 C917 1.433 1_556 S
C919 N922 1.384 . S
C920 H911 0.929 . S
C920 C912 1.378 . S
C920 C915 1.350 1_556 S
C921 H908 0.929 . S
C921 C913 1.433 . S
C921 N923 1.384 . S
N922 C918 1.427 1_556 S
N922 C919 1.384 . S
N923 C915 1.427 . S
N923 C921 1.384 . S
H924 C930 0.930 . S
H925 C934 0.930 . S
H926 C939 0.929 . S
H927 C937 0.929 . S
H928 C932 0.929 . S
H929 C938 0.929 . S
C930 H924 0.930 . S
C930 C931 1.367 . S
C930 C938 1.378 . S
C931 C930 1.367 . S
C931 C939 1.433 . S
C932 H928 0.929 . S
C932 C934 1.378 . S
C932 C936 1.350 . S
C933 C936 1.463 . S
C933 C938 1.350 . S
C933 N941 1.427 . S
C934 H925 0.930 . S
C934 C932 1.378 . S
C934 C935 1.367 . S
C935 C934 1.367 . S
C935 C937 1.433 . S
C936 C932 1.350 . S
C936 C933 1.463 . S
C936 N940 1.427 . S
C937 H927 0.929 . S
C937 C935 1.433 . S
C937 N940 1.384 . S
C938 H929 0.929 . S
C938 C930 1.378 . S
C938 C933 1.350 . S
C939 H926 0.929 . S
C939 C931 1.433 . S
C939 N941 1.384 . S
N940 C936 1.427 . S
N940 C937 1.384 . S
N941 C933 1.427 . S
N941 C939 1.384 . S
H942 C948 0.930 . S
H943 C952 0.930 . S
H944 C957 0.929 . S
H945 C955 0.929 . S
H946 C950 0.929 . S
H947 C956 0.929 . S
C948 H942 0.930 . S
C948 C949 1.367 . S
C948 C956 1.378 . S
C949 C948 1.367 . S
C949 C957 1.433 . S
C950 H946 0.929 . S
C950 C952 1.378 . S
C950 C954 1.350 . S
C951 C954 1.463 . S
C951 C956 1.350 . S
C951 N959 1.427 . S
C952 H943 0.930 . S
C952 C950 1.378 . S
C952 C953 1.367 . S
C953 C952 1.367 . S
C953 C955 1.433 . S
C954 C950 1.350 . S
C954 C951 1.463 . S
C954 N958 1.427 . S
C955 H945 0.929 . S
C955 C953 1.433 . S
C955 N958 1.384 . S
C956 H947 0.929 . S
C956 C948 1.378 . S
C956 C951 1.350 . S
C957 H944 0.929 . S
C957 C949 1.433 . S
C957 N959 1.384 . S
N958 C954 1.427 . S
N958 C955 1.384 . S
N959 C951 1.427 . S
N959 C957 1.384 . S
H960 C966 0.930 . S
H961 C970 0.930 . S
H962 C975 0.929 . S
H963 C973 0.929 . S
H964 C968 0.929 . S
H965 C974 0.929 . S
C966 H960 0.930 . S
C966 C967 1.367 . S
C966 C974 1.378 . S
C967 C966 1.367 . S
C967 C975 1.433 1_455 S
C968 H964 0.929 . S
C968 C970 1.378 . S
C968 C972 1.350 1_655 S
C969 C972 1.463 . S
C969 C974 1.350 . S
C969 N977 1.427 1_455 S
C970 H961 0.930 . S
C970 C968 1.378 . S
C970 C971 1.367 . S
C971 C970 1.367 . S
C971 C973 1.433 1_655 S
C972 C968 1.350 1_455 S
C972 C969 1.463 . S
C972 N976 1.427 . S
C973 H963 0.929 . S
C973 C971 1.433 1_455 S
C973 N976 1.384 . S
C974 H965 0.929 . S
C974 C966 1.378 . S
C974 C969 1.350 . S
C975 H962 0.929 . S
C975 C967 1.433 1_655 S
C975 N977 1.384 . S
N976 C972 1.427 . S
N976 C973 1.384 . S
N977 C969 1.427 1_655 S
N977 C975 1.384 . S
H978 C984 0.930 . S
H979 C988 0.930 . S
H980 C993 0.929 . S
H981 C991 0.929 . S
H982 C986 0.929 . S
H983 C992 0.929 . S
C984 H978 0.930 . S
C984 C985 1.367 . S
C984 C992 1.378 . S
C985 C984 1.367 . S
C985 C993 1.433 1_655 S
C986 H982 0.929 . S
C986 C988 1.378 . S
C986 C990 1.350 . S
C987 C990 1.463 . S
C987 C992 1.350 1_455 S
C987 N995 1.427 . S
C988 H979 0.930 . S
C988 C986 1.378 . S
C988 C989 1.367 . S
C989 C988 1.367 . S
C989 C991 1.433 1_455 S
C990 C986 1.350 . S
C990 C987 1.463 . S
C990 N994 1.427 1_455 S
C991 H981 0.929 . S
C991 C989 1.433 1_655 S
C991 N994 1.384 . S
C992 H983 0.929 . S
C992 C984 1.378 . S
C992 C987 1.350 1_655 S
C993 H980 0.929 . S
C993 C985 1.433 1_455 S
C993 N995 1.384 . S
N994 C990 1.427 1_655 S
N994 C991 1.384 . S
N995 C987 1.427 . S
N995 C993 1.384 . S
H996 C1002 0.930 . S
H997 C1006 0.930 . S
H998 C1011 0.929 . S
H999 C1009 0.929 . S
H1000 C1004 0.929 . S
H1001 C1010 0.929 . S
C1002 H996 0.930 . S
C1002 C1003 1.367 1_455 S
C1002 C1010 1.378 . S
C1003 C1002 1.367 1_655 S
C1003 C1011 1.433 . S
C1004 H1000 0.929 . S
C1004 C1006 1.378 . S
C1004 C1008 1.350 . S
C1005 C1008 1.463 . S
C1005 C1010 1.350 1_655 S
C1005 N1013 1.427 . S
C1006 H997 0.930 . S
C1006 C1004 1.378 . S
C1006 C1007 1.367 1_655 S
C1007 C1006 1.367 1_455 S
C1007 C1009 1.433 . S
C1008 C1004 1.350 . S
C1008 C1005 1.463 . S
C1008 N1012 1.427 1_655 S
C1009 H999 0.929 . S
C1009 C1007 1.433 . S
C1009 N1012 1.384 . S
C1010 H1001 0.929 . S
C1010 C1002 1.378 . S
C1010 C1005 1.350 1_455 S
C1011 H998 0.929 . S
C1011 C1003 1.433 . S
C1011 N1013 1.384 . S
N1012 C1008 1.427 1_455 S
N1012 C1009 1.384 . S
N1013 C1005 1.427 . S
N1013 C1011 1.384 . S
H1014 C1020 0.930 . S
H1015 C1024 0.930 . S
H1016 C1029 0.929 . S
H1017 C1027 0.929 . S
H1018 C1022 0.929 . S
H1019 C1028 0.929 1_455 S
C1020 H1014 0.930 . S
C1020 C1021 1.367 . S
C1020 C1028 1.378 . S
C1021 C1020 1.367 . S
C1021 C1029 1.433 . S
C1022 H1018 0.929 . S
C1022 C1024 1.378 . S
C1022 C1026 1.350 . S
C1023 C1026 1.463 . S
C1023 C1028 1.350 . S
C1023 N1031 1.427 . S
C1024 H1015 0.930 . S
C1024 C1022 1.378 . S
C1024 C1025 1.367 1_655 S
C1025 C1024 1.367 1_455 S
C1025 C1027 1.433 . S
C1026 C1022 1.350 . S
C1026 C1023 1.463 . S
C1026 N1030 1.427 1_655 S
C1027 H1017 0.929 . S
C1027 C1025 1.433 . S
C1027 N1030 1.384 . S
C1028 H1019 0.929 1_655 S
C1028 C1020 1.378 . S
C1028 C1023 1.350 . S
C1029 H1016 0.929 . S
C1029 C1021 1.433 . S
C1029 N1031 1.384 . S
N1030 C1026 1.427 1_455 S
N1030 C1027 1.384 . S
N1031 C1023 1.427 . S
N1031 C1029 1.384 . S
H1032 C1038 0.930 . S
H1033 C1042 0.930 . S
H1034 C1047 0.929 . S
H1035 C1045 0.929 . S
H1036 C1040 0.929 . S
H1037 C1046 0.929 . S
C1038 H1032 0.930 . S
C1038 C1039 1.367 . S
C1038 C1046 1.378 . S
C1039 C1038 1.367 . S
C1039 C1047 1.433 . S
C1040 H1036 0.929 . S
C1040 C1042 1.378 . S
C1040 C1044 1.350 . S
C1041 C1044 1.463 . S
C1041 C1046 1.350 . S
C1041 N1049 1.427 . S
C1042 H1033 0.930 . S
C1042 C1040 1.378 . S
C1042 C1043 1.367 . S
C1043 C1042 1.367 . S
C1043 C1045 1.433 . S
C1044 C1040 1.350 . S
C1044 C1041 1.463 . S
C1044 N1048 1.427 . S
C1045 H1035 0.929 . S
C1045 C1043 1.433 . S
C1045 N1048 1.384 . S
C1046 H1037 0.929 . S
C1046 C1038 1.378 . S
C1046 C1041 1.350 . S
C1047 H1034 0.929 . S
C1047 C1039 1.433 . S
C1047 N1049 1.384 . S
N1048 C1044 1.427 . S
N1048 C1045 1.384 . S
N1049 C1041 1.427 . S
N1049 C1047 1.384 . S
H1050 C1056 0.930 . S
H1051 C1060 0.930 . S
H1052 C1065 0.929 . S
H1053 C1063 0.929 . S
H1054 C1058 0.929 . S
H1055 C1064 0.929 . S
C1056 H1050 0.930 . S
C1056 C1057 1.367 . S
C1056 C1064 1.378 . S
C1057 C1056 1.367 . S
C1057 C1065 1.433 . S
C1058 H1054 0.929 . S
C1058 C1060 1.378 . S
C1058 C1062 1.350 . S
C1059 C1062 1.463 . S
C1059 C1064 1.350 . S
C1059 N1067 1.427 . S
C1060 H1051 0.930 . S
C1060 C1058 1.378 . S
C1060 C1061 1.367 . S
C1061 C1060 1.367 . S
C1061 C1063 1.433 . S
C1062 C1058 1.350 . S
C1062 C1059 1.463 . S
C1062 N1066 1.427 . S
C1063 H1053 0.929 . S
C1063 C1061 1.433 . S
C1063 N1066 1.384 . S
C1064 H1055 0.929 . S
C1064 C1056 1.378 . S
C1064 C1059 1.350 . S
C1065 H1052 0.929 . S
C1065 C1057 1.433 . S
C1065 N1067 1.384 . S
N1066 C1062 1.427 . S
N1066 C1063 1.384 . S
N1067 C1059 1.427 . S
N1067 C1065 1.384 . S
H1068 C1074 0.930 . S
H1069 C1078 0.930 . S
H1070 C1083 0.929 . S
H1071 C1081 0.929 . S
H1072 C1076 0.929 . S
H1073 C1082 0.929 . S
C1074 H1068 0.930 . S
C1074 C1075 1.367 . S
C1074 C1082 1.378 . S
C1075 C1074 1.367 . S
C1075 C1083 1.433 . S
C1076 H1072 0.929 . S
C1076 C1078 1.378 . S
C1076 C1080 1.350 . S
C1077 C1080 1.463 . S
C1077 C1082 1.350 . S
C1077 N1085 1.427 . S
C1078 H1069 0.930 . S
C1078 C1076 1.378 . S
C1078 C1079 1.367 . S
C1079 C1078 1.367 . S
C1079 C1081 1.433 . S
C1080 C1076 1.350 . S
C1080 C1077 1.463 . S
C1080 N1084 1.427 . S
C1081 H1071 0.929 . S
C1081 C1079 1.433 . S
C1081 N1084 1.384 . S
C1082 H1073 0.929 . S
C1082 C1074 1.378 . S
C1082 C1077 1.350 . S
C1083 H1070 0.929 . S
C1083 C1075 1.433 . S
C1083 N1085 1.384 . S
N1084 C1080 1.427 . S
N1084 C1081 1.384 . S
N1085 C1077 1.427 . S
N1085 C1083 1.384 . S
H1086 C1092 0.930 . S
H1087 C1096 0.930 . S
H1088 C1101 0.929 . S
H1089 C1099 0.929 . S
H1090 C1094 0.929 . S
H1091 C1100 0.929 . S
C1092 H1086 0.930 . S
C1092 C1093 1.367 . S
C1092 C1100 1.378 . S
C1093 C1092 1.367 . S
C1093 C1101 1.433 . S
C1094 H1090 0.929 . S
C1094 C1096 1.378 . S
C1094 C1098 1.350 . S
C1095 C1098 1.463 . S
C1095 C1100 1.350 . S
C1095 N1103 1.427 . S
C1096 H1087 0.930 . S
C1096 C1094 1.378 . S
C1096 C1097 1.367 . S
C1097 C1096 1.367 . S
C1097 C1099 1.433 . S
C1098 C1094 1.350 . S
C1098 C1095 1.463 . S
C1098 N1102 1.427 . S
C1099 H1089 0.929 . S
C1099 C1097 1.433 . S
C1099 N1102 1.384 . S
C1100 H1091 0.929 . S
C1100 C1092 1.378 . S
C1100 C1095 1.350 . S
C1101 H1088 0.929 . S
C1101 C1093 1.433 . S
C1101 N1103 1.384 . S
N1102 C1098 1.427 . S
N1102 C1099 1.384 . S
N1103 C1095 1.427 . S
N1103 C1101 1.384 . S
C679 C67 2.081 . S
C683 C56 2.080 1_556 S
C697 C151 2.081 . S
C701 C140 2.081 . S
C715 C224 2.087 . S
C719 C235 2.087 . S
C733 C308 2.078 . S
C737 C319 2.078 . S
C751 C403 2.088 . S
C755 C392 2.088 1_556 S
C769 C476 2.080 . S
C773 C487 2.080 . S
C787 C560 2.078 . S
C791 C571 2.078 . S
C805 C655 2.084 . S
C809 C644 2.084 . S
C823 C154 1.796 1_554 S
C827 C58 1.796 . S
C841 C322 1.807 . S
C845 C226 1.807 . S
C859 C394 1.815 . S
C863 C490 1.815 1_554 S
C877 C562 1.802 . S
C881 C658 1.802 . S
C895 C70 1.392 1_554 S
C899 C478 1.392 . S
C913 C406 1.393 1_554 S
C917 C142 1.393 . S
C931 C238 1.397 . S
C935 C646 1.397 . S
C949 C310 1.408 . S
C953 C574 1.408 . S
C967 C74 1.519 . S
C971 C326 1.593 . S
C985 C158 1.592 . S
C989 C242 1.517 . S
C1003 C147 1.504 . S
C1007 C231 1.600 . S
C1021 C315 1.508 . S
C1025 C63 1.598 . S
C1039 C410 1.512 . S
C1043 C662 1.597 . S
C1057 C494 1.592 . S
C1061 C578 1.516 . S
C1075 C483 1.507 . S
C1079 C567 1.599 . S
C1093 C651 1.513 . S
C1097 C399 1.593 . S
