# Generated by pormake.
# Topology qtz-x, (6)-cn, num edge types: 1
# Building blocks:
#     Node 0, Type 0, BuildingBlock: BETDIP_clean_sbu_0, # of connection points: 6
#     Node 1, Type 0, BuildingBlock: BETDIP_clean_sbu_0, # of connection points: 6
#     Node 2, Type 0, BuildingBlock: BETDIP_clean_sbu_0, # of connection points: 6
#     Edge 3, Type (0, 0), BuildingBlock: CIFDUS_clean_linker_0, # of connection points: 2
#     Edge 4, Type (0, 0), BuildingBlock: CIFDUS_clean_linker_0, # of connection points: 2
#     Edge 5, Type (0, 0), BuildingBlock: CIFDUS_clean_linker_0, # of connection points: 2
#     Edge 6, Type (0, 0), BuildingBlock: CIFDUS_clean_linker_0, # of connection points: 2
#     Edge 7, Type (0, 0), BuildingBlock: CIFDUS_clean_linker_0, # of connection points: 2
#     Edge 8, Type (0, 0), BuildingBlock: CIFDUS_clean_linker_0, # of connection points: 2
#     Edge 9, Type (0, 0), BuildingBlock: CIFDUS_clean_linker_0, # of connection points: 2
#     Edge 10, Type (0, 0), BuildingBlock: CIFDUS_clean_linker_0, # of connection points: 2
#     Edge 11, Type (0, 0), BuildingBlock: CIFDUS_clean_linker_0, # of connection points: 2
# Relax obj value: 0.279
# Max RMSD: 0.276
# Mean RMSD: 0.253
data_MOF--net-qtz-x--node1-BETDIP_clean_sbu_0--edge1-CIFDUS_clean_linker_0
_symmetry_space_group_name_H-M    P1
_symmetry_Int_Tables_number       1
_symmetry_cell_setting            triclinic
loop_
_symmetry_equiv_pos_as_xyz
'x, y, z'
_cell_length_a     12.965841
_cell_length_b     12.950685
_cell_length_c     48.040912
_cell_angle_alpha  63.609087
_cell_angle_beta   117.71589
_cell_angle_gamma 121.4567
loop_
_atom_site_label
_atom_site_type_symbol
_atom_site_fract_x
_atom_site_fract_y
_atom_site_fract_z
_atom_type_partial_charge
Tb0 Tb 0.11039 0.61803 0.21041 0.0
Tb1 Tb 0.369 0.7551 0.20513 0.0
C2 C 0.92734 0.45273 0.23296 0.0
C3 C 0.90198 0.41213 0.26439 0.0
C4 C 0.99825 0.40545 0.29456 0.0
C5 C 0.9739 0.36832 0.32391 0.0
C6 C 0.85145 0.33239 0.32407 0.0
C7 C 0.75422 0.33634 0.29404 0.0
C8 C 0.77961 0.37719 0.26452 0.0
C9 C 0.19597 0.86495 0.20025 0.0
C10 C 0.35703 0.66705 0.27478 0.0
C11 C 0.55764 0.92189 0.18581 0.0
C12 C 0.58105 -0.02977 0.15417 0.0
C13 C 0.48683 -0.00728 0.12472 0.0
C14 C 0.50317 0.02319 0.09491 0.0
C15 C 0.6146 0.03335 0.09386 0.0
C16 C 0.71178 0.01742 0.12321 0.0
C17 C 0.69473 -0.0146 0.15316 0.0
C18 C 0.28225 0.50691 0.21556 0.0
C19 C 0.13352 0.70617 0.14024 0.0
O20 O 1.01778 0.43085 0.23439 0.0
O21 O 0.93115 0.56399 0.21382 0.0
O22 O 0.25851 0.79638 0.21788 0.0
O23 O 1.07919 0.79267 0.18837 0.0
O24 O 0.23359 0.60653 0.26186 0.0
O25 O 0.43204 0.7428 0.2563 0.0
O26 O 0.47205 0.94564 0.18632 0.0
O27 O 0.54587 0.80583 0.20149 0.0
O28 O 0.22048 0.57598 0.19791 0.0
O29 O 0.39921 0.57959 0.22707 0.0
O30 O 0.25308 0.7741 0.15373 0.0
O31 O 1.05623 0.62558 0.15852 0.0
H32 H 0.09244 0.42743 0.29566 0.0
H33 H 1.05035 0.36464 0.34665 0.0
H34 H 0.65879 0.30888 0.2934 0.0
H35 H 0.70327 0.38052 0.24176 0.0
H36 H 0.39887 -0.01625 0.1246 0.0
H37 H 0.42738 0.03637 0.07264 0.0
H38 H 0.79838 0.02401 0.12309 0.0
H39 H 0.76863 -0.03142 0.17557 0.0
Tb40 Tb 0.92447 0.19824 0.5737 0.0
Tb41 Tb 0.79088 0.94442 0.56875 0.0
C42 C 1.0123 0.39791 0.58889 0.0
C43 C 1.02929 0.42362 0.61799 0.0
C44 C 0.94757 0.33941 0.63718 0.0
C45 C 0.97572 0.35378 0.66739 0.0
C46 C 0.08491 0.45389 0.67865 0.0
C47 C 0.16342 0.54146 0.6587 0.0
C48 C 0.13626 0.5258 0.6287 0.0
C49 C 1.07017 0.11356 0.57235 0.0
C50 C 0.87933 -0.02807 0.63752 0.0
C51 C 0.71046 0.74954 0.55216 0.0
C52 C 0.65024 0.72463 0.51975 0.0
C53 C 0.68136 0.65063 0.51318 0.0
C54 C 0.62883 0.63149 0.48204 0.0
C55 C 0.54333 0.68523 0.45699 0.0
C56 C 0.51209 0.75885 0.46372 0.0
C57 C 0.56546 0.77896 0.49466 0.0
C58 C 0.64287 0.02772 0.56953 0.0
C59 C 0.83074 0.17509 0.50408 0.0
O60 O 0.89553 0.34839 0.57088 0.0
O61 O 0.08174 0.34235 0.594 0.0
O62 O 0.98925 0.0521 0.58794 0.0
O63 O 1.07283 0.22586 0.55803 0.0
O64 O 0.89143 0.08897 0.62146 0.0
O65 O 0.8592 0.89639 0.62229 0.0
O66 O 0.82925 0.82848 0.55829 0.0
O67 O 0.64477 0.77084 0.56142 0.0
O68 O 0.72556 0.09016 0.55442 0.0
O69 O 0.63776 0.91432 0.58302 0.0
O70 O 0.79731 0.05298 0.5182 0.0
O71 O 0.87243 0.25386 0.52092 0.0
H72 H 0.86353 0.261 0.62914 0.0
H73 H 0.91243 0.28643 0.68202 0.0
H74 H 0.24815 0.61953 0.66681 0.0
H75 H 0.2008 0.59136 0.6143 0.0
H76 H 0.7471 0.60846 0.53208 0.0
H77 H 0.65425 0.57388 0.47762 0.0
H78 H 0.44815 0.80312 0.44481 0.0
H79 H 0.54133 0.83823 0.49884 0.0
Tb80 Tb 0.82962 0.88233 0.87304 0.0
Tb81 Tb 0.98305 0.74082 0.89266 0.0
C82 C 0.66595 -0.03834 0.85758 0.0
C83 C 0.62115 -0.03328 0.88001 0.0
C84 C 0.5769 0.85839 0.90417 0.0
C85 C 0.55345 0.86603 0.92856 0.0
C86 C 0.57587 -0.01751 0.92979 0.0
C87 C 0.61935 0.09105 0.90562 0.0
C88 C 0.64053 0.08303 0.88072 0.0
C89 C 1.07609 0.01745 0.8851 0.0
C90 C 0.94035 0.7762 0.94821 0.0
C91 C 0.15078 0.66483 0.90914 0.0
C92 C 0.18998 0.64465 0.8881 0.0
C93 C 0.27108 0.74684 0.8702 0.0
C94 C 0.28841 0.73325 0.84563 0.0
C95 C 0.2214 0.6182 0.83746 0.0
C96 C 0.14744 0.51366 0.85699 0.0
C97 C 0.13312 0.52653 0.88224 0.0
C98 C 0.73647 0.60586 0.88006 0.0
C99 C 0.86944 0.84566 0.81715 0.0
O100 O 0.63667 0.84967 0.85651 0.0
O101 O 0.7846 0.0357 0.85914 0.0
O102 O 1.01097 0.93264 0.87046 0.0
O103 O 1.00177 0.03151 0.89279 0.0
O104 O 0.84898 0.81152 0.92488 0.0
O105 O 1.01389 0.75519 0.94085 0.0
O106 O 0.17541 0.78156 0.90508 0.0
O107 O 1.03624 0.58913 0.9114 0.0
O108 O 0.80117 0.69017 0.89491 0.0
O109 O 0.8118 0.59062 0.87301 0.0
O110 O 0.95461 0.80033 0.84018 0.0
O111 O 0.80333 0.87538 0.82474 0.0
H112 H 0.56278 0.76762 0.90476 0.0
H113 H 0.52162 0.78098 0.94714 0.0
H114 H 0.63796 0.18204 0.90617 0.0
H115 H 0.67681 0.16833 0.86276 0.0
H116 H 0.31673 0.83929 0.87404 0.0
H117 H 0.35007 0.81497 0.83208 0.0
H118 H 0.09376 0.42329 0.85164 0.0
H119 H 1.07069 0.44554 0.89574 0.0
H120 H 1.04767 -0.00341 0.17758 0.0
H121 H 0.42658 0.01208 0.23405 0.0
H122 H 0.48518 0.20686 0.24471 0.0
H123 H 0.42999 0.37502 0.23818 0.0
H124 H 1.05114 0.3597 0.18179 0.0
H125 H 0.99215 0.16459 0.17115 0.0
C126 C 0.14345 0.04295 0.19204 0.0
C127 C 0.23264 -0.01116 0.20484 0.0
C128 C 0.17668 0.15563 0.19831 0.0
C129 C 0.35591 0.05087 0.2237 0.0
C130 C 0.38954 0.16263 0.2299 0.0
C131 C 0.33418 0.32872 0.22372 0.0
C132 C 0.24514 0.38293 0.21093 0.0
C133 C 0.30084 0.21602 0.21746 0.0
C134 C 0.12175 0.32088 0.1921 0.0
C135 C 0.08795 0.20899 0.1859 0.0
H136 H 0.45037 0.88606 0.59726 0.0
H137 H 0.61495 0.25335 0.5363 0.0
H138 H 0.45367 0.3106 0.53185 0.0
H139 H 0.26359 0.2559 0.54487 0.0
H140 H 0.09979 0.88894 0.60607 0.0
H141 H 0.26152 0.83206 0.61065 0.0
C142 C 0.45125 -0.02114 0.58295 0.0
C143 C 0.54568 0.06513 0.56701 0.0
C144 C 0.35735 0.01099 0.58046 0.0
C145 C 0.54439 0.18483 0.54877 0.0
C146 C 0.4516 0.21749 0.54621 0.0
C147 C 0.26294 0.16323 0.55925 0.0
C148 C 0.16833 0.07682 0.57513 0.0
C149 C 0.35722 0.13132 0.56185 0.0
C150 C 0.17026 -0.04254 0.59358 0.0
C151 C 0.26325 0.92496 0.59619 0.0
H152 H 0.2073 0.23046 0.90496 0.0
H153 H 0.22544 0.02481 0.85833 0.0
H154 H 0.42766 0.19276 0.85069 0.0
H155 H 0.60196 0.39642 0.85834 0.0
H156 H 0.58546 0.59961 0.90587 0.0
H157 H 0.37947 0.43547 0.91175 0.0
C158 C 0.2562 0.222 0.8934 0.0
C159 C 0.20216 0.1151 0.88245 0.0
C160 C 0.37241 0.31888 0.88911 0.0
C161 C 0.26577 0.10577 0.86723 0.0
C162 C 0.38117 0.20197 0.86275 0.0
C163 C 0.55276 0.40497 0.8698 0.0
C164 C 0.60822 0.51039 0.88149 0.0
C165 C 0.43562 0.30877 0.87369 0.0
C166 C 0.54377 0.52015 0.89636 0.0
C167 C 0.42663 0.4257 0.89999 0.0
H168 H 0.74176 0.13976 0.96911 0.0
H169 H 0.37292 0.83643 0.95267 0.0
H170 H 0.34888 0.83238 1.00055 0.0
H171 H 0.43827 0.90478 1.0491 0.0
H172 H 0.81352 0.19722 0.06873 0.0
H173 H 0.83048 0.21575 1.01778 0.0
C174 C 0.65536 0.07449 0.97577 0.0
C175 C 0.55825 -0.01056 0.95715 0.0
C176 C 0.64428 0.06983 1.00412 0.0
C177 C 0.44796 0.90349 0.96639 0.0
C178 C 0.43456 0.90075 0.99387 0.0
C179 C 0.52305 -0.02618 1.04198 0.0
C180 C 0.62422 0.04997 0.06246 0.0
C181 C 0.53285 -0.01797 1.01318 0.0
C182 C 0.73465 0.13727 1.05334 0.0
C183 C 0.74414 0.14804 1.02422 0.0
H184 H 0.70612 0.0514 0.45613 0.0
H185 H 0.97024 0.41311 0.47488 0.0
H186 H 1.00038 0.4931 0.4215 0.0
H187 H 0.95938 0.45902 0.36994 0.0
H188 H 0.68517 0.1034 0.34914 0.0
H189 H 0.65141 0.02272 0.40243 0.0
C190 C 0.76914 0.14813 0.4484 0.0
C191 C 0.83574 0.22575 0.46978 0.0
C192 C 0.78492 0.1947 0.41719 0.0
C193 C 0.91675 0.35108 0.45909 0.0
C194 C 0.93479 0.39699 0.42851 0.0
C195 C 0.89163 0.3642 0.37705 0.0
C196 C 0.82529 0.28713 0.35565 0.0
C197 C 0.8706 0.31947 0.40746 0.0
C198 C 0.73708 0.1647 0.36509 0.0
C199 C 0.71802 0.11849 0.39562 0.0
H200 H 0.93701 0.74994 0.78989 0.0
H201 H 0.77372 0.00904 0.76478 0.0
H202 H 0.76279 0.069 0.70795 0.0
H203 H 0.80264 0.05235 0.66518 0.0
H204 H 0.95474 0.78717 0.68827 0.0
H205 H 0.96425 0.72352 0.7456 0.0
C206 C 0.89839 0.81909 0.77196 0.0
C207 C 0.85633 0.87481 0.78197 0.0
C208 C 0.89046 0.85233 0.7388 0.0
C209 C 0.80612 -0.03626 0.75811 0.0
C210 C 0.80037 -0.00126 0.72547 0.0
C211 C 0.83907 -0.01865 0.68274 0.0
C212 C 0.87998 0.9264 0.6723 0.0
C213 C 0.84299 0.9445 0.71554 0.0
C214 C 0.92303 0.8316 0.69543 0.0
C215 C 0.92912 0.79569 0.72832 0.0
H216 H 0.13053 0.73087 1.00473 0.0
H217 H 0.7813 0.77713 0.97053 0.0
H218 H 0.80206 0.75128 1.02606 0.0
H219 H 0.92384 0.72219 0.0854 0.0
H220 H 0.27804 0.68688 0.11848 0.0
H221 H 0.25018 0.70015 0.06343 0.0
C222 C 1.05874 0.73495 1.00937 0.0
C223 C 0.95476 0.75641 0.983 0.0
C224 C 1.07185 0.72144 1.0417 0.0
C225 C 0.86304 0.76132 0.98996 0.0
C226 C 0.87454 0.74624 1.02195 0.0
C227 C 0.99377 0.71573 0.08057 0.0
C228 C 0.10261 0.70274 0.10635 0.0
C229 C 0.97896 0.72687 1.04818 0.0
C230 C 0.19324 0.69683 0.09929 0.0
C231 C 0.17772 0.70479 0.06765 0.0
H232 H 0.23064 0.61797 0.31422 0.0
H233 H 0.60193 0.71209 0.3139 0.0
H234 H 0.69163 0.72043 0.37068 0.0
H235 H 0.66601 0.70951 0.41983 0.0
H236 H 0.29499 0.61985 0.41946 0.0
H237 H 0.20336 0.59934 0.3638 0.0
C238 C 0.3305 0.63713 0.3268 0.0
C239 C 0.40898 0.6623 0.30995 0.0
C240 C 0.38168 0.64346 0.35932 0.0
C241 C 0.53928 0.69181 0.32632 0.0
C242 C 0.59068 0.69669 0.35879 0.0
C243 C 0.5649 0.68399 0.40767 0.0
C244 C 0.48752 0.66639 0.42377 0.0
C245 C 0.51304 0.67388 0.37546 0.0
C246 C 0.35684 0.63509 0.40751 0.0
C247 C 0.30432 0.62302 0.37571 0.0
H248 H 0.19602 0.4176 0.82462 0.0
H249 H 0.23102 0.80269 0.77984 0.0
H250 H 0.2019 0.78789 0.72798 0.0
H251 H 0.14919 0.6622 0.69375 0.0
H252 H 0.09269 0.27212 0.73654 0.0
H253 H 0.14315 0.2913 0.79034 0.0
C254 C 0.19686 0.49837 0.80359 0.0
C255 C 0.21654 0.61121 0.80663 0.0
C256 C 0.17396 0.48787 0.77315 0.0
C257 C 0.2197 0.71526 0.77892 0.0
C258 C 0.20104 0.70661 0.74888 0.0
C259 C 0.14908 0.58183 0.71494 0.0
C260 C 0.11739 0.46613 0.71127 0.0
C261 C 0.17583 0.59294 0.74557 0.0
C262 C 0.11587 0.36202 0.73879 0.0
C263 C 0.1452 0.37307 0.76954 0.0
loop_
_geom_bond_atom_site_label_1
_geom_bond_atom_site_label_2
_geom_bond_distance
_geom_bond_site_symmetry_2
_ccdc_geom_bond_type
Tb0 C2 2.809 . S
Tb0 O20 2.484 . S
Tb0 O21 2.440 . S
Tb0 O22 2.658 1_655 S
Tb0 O23 2.409 . S
Tb0 O24 2.378 1_655 S
Tb0 O28 2.325 . S
Tb0 O31 2.341 . S
Tb1 C11 2.809 . S
Tb1 O22 2.325 . S
Tb1 O25 2.341 . S
Tb1 O26 2.484 . S
Tb1 O27 2.440 . S
Tb1 O28 2.658 1_455 S
Tb1 O29 2.409 . S
Tb1 O30 2.378 1_455 S
C2 Tb0 2.809 . S
C2 C3 1.514 . S
C2 O20 1.248 . S
C2 O21 1.266 . S
C3 C2 1.514 . S
C3 C4 1.359 . S
C3 C8 1.348 . S
C4 C3 1.359 . S
C4 C5 1.380 . S
C4 H32 0.929 . S
C5 C4 1.380 . S
C5 C6 1.347 . S
C5 H33 0.931 . S
C6 C5 1.347 . S
C6 C7 1.369 . S
C7 C6 1.369 . S
C7 C8 1.408 . S
C7 H34 0.930 . S
C8 C3 1.348 . S
C8 C7 1.408 . S
C8 H35 0.930 . S
C9 O22 1.281 1_655 S
C9 O23 1.254 . S
C10 O24 1.236 . S
C10 O25 1.266 . S
C11 Tb1 2.809 . S
C11 C12 1.514 . S
C11 O26 1.248 . S
C11 O27 1.266 . S
C12 C11 1.514 . S
C12 C13 1.359 1_565 S
C12 C17 1.348 . S
C13 C12 1.359 1_545 S
C13 C14 1.380 . S
C13 H36 0.929 . S
C14 C13 1.380 . S
C14 C15 1.347 . S
C14 H37 0.931 . S
C15 C14 1.347 . S
C15 C16 1.369 1_545 S
C16 C15 1.369 1_565 S
C16 C17 1.408 . S
C16 H38 0.930 . S
C17 C12 1.348 . S
C17 C16 1.408 . S
C17 H39 0.930 . S
C18 O28 1.281 1_455 S
C18 O29 1.254 . S
C19 O30 1.236 . S
C19 O31 1.266 . S
O20 Tb0 2.484 . S
O20 C2 1.248 . S
O21 Tb0 2.440 . S
O21 C2 1.266 . S
O22 Tb0 2.658 1_455 S
O22 Tb1 2.325 . S
O22 C9 1.281 1_455 S
O23 Tb0 2.409 . S
O23 C9 1.254 . S
O24 Tb0 2.378 1_455 S
O24 C10 1.236 . S
O25 Tb1 2.341 . S
O25 C10 1.266 . S
O26 Tb1 2.484 . S
O26 C11 1.248 . S
O27 Tb1 2.440 . S
O27 C11 1.266 . S
O28 Tb0 2.325 . S
O28 Tb1 2.658 1_655 S
O28 C18 1.281 1_655 S
O29 Tb1 2.409 . S
O29 C18 1.254 . S
O30 Tb1 2.378 1_655 S
O30 C19 1.236 . S
O31 Tb0 2.341 . S
O31 C19 1.266 . S
H32 C4 0.929 . S
H33 C5 0.931 . S
H34 C7 0.930 . S
H35 C8 0.930 . S
H36 C13 0.929 . S
H37 C14 0.931 . S
H38 C16 0.930 . S
H39 C17 0.930 . S
Tb40 C42 2.809 . S
Tb40 O60 2.484 . S
Tb40 O61 2.440 1_655 S
Tb40 O62 2.658 1_545 S
Tb40 O63 2.409 1_655 S
Tb40 O64 2.378 . S
Tb40 O68 2.325 . S
Tb40 O71 2.341 . S
Tb41 C51 2.809 . S
Tb41 O62 2.325 . S
Tb41 O65 2.341 . S
Tb41 O66 2.484 . S
Tb41 O67 2.440 . S
Tb41 O68 2.658 1_565 S
Tb41 O69 2.409 . S
Tb41 O70 2.378 1_565 S
C42 Tb40 2.809 . S
C42 C43 1.514 . S
C42 O60 1.248 . S
C42 O61 1.266 1_655 S
C43 C42 1.514 . S
C43 C44 1.359 . S
C43 C48 1.348 1_655 S
C44 C43 1.359 . S
C44 C45 1.380 . S
C44 H72 0.929 . S
C45 C44 1.380 . S
C45 C46 1.347 1_655 S
C45 H73 0.931 . S
C46 C45 1.347 1_455 S
C46 C47 1.369 . S
C47 C46 1.369 . S
C47 C48 1.408 . S
C47 H74 0.930 . S
C48 C43 1.348 1_455 S
C48 C47 1.408 . S
C48 H75 0.930 . S
C49 O62 1.281 1_445 S
C49 O63 1.254 . S
C50 O64 1.236 1_565 S
C50 O65 1.266 . S
C51 Tb41 2.809 . S
C51 C52 1.514 . S
C51 O66 1.248 . S
C51 O67 1.266 . S
C52 C51 1.514 . S
C52 C53 1.359 . S
C52 C57 1.348 . S
C53 C52 1.359 . S
C53 C54 1.380 . S
C53 H76 0.929 . S
C54 C53 1.380 . S
C54 C55 1.347 . S
C54 H77 0.931 . S
C55 C54 1.347 . S
C55 C56 1.369 . S
C56 C55 1.369 . S
C56 C57 1.408 . S
C56 H78 0.930 . S
C57 C52 1.348 . S
C57 C56 1.408 . S
C57 H79 0.930 . S
C58 O68 1.281 1_565 S
C58 O69 1.254 . S
C59 O70 1.236 . S
C59 O71 1.266 . S
O60 Tb40 2.484 . S
O60 C42 1.248 . S
O61 Tb40 2.440 1_455 S
O61 C42 1.266 1_455 S
O62 Tb40 2.658 1_565 S
O62 Tb41 2.325 . S
O62 C49 1.281 1_665 S
O63 Tb40 2.409 1_455 S
O63 C49 1.254 . S
O64 Tb40 2.378 . S
O64 C50 1.236 1_545 S
O65 Tb41 2.341 . S
O65 C50 1.266 . S
O66 Tb41 2.484 . S
O66 C51 1.248 . S
O67 Tb41 2.440 . S
O67 C51 1.266 . S
O68 Tb40 2.325 . S
O68 Tb41 2.658 1_545 S
O68 C58 1.281 1_545 S
O69 Tb41 2.409 . S
O69 C58 1.254 . S
O70 Tb41 2.378 1_545 S
O70 C59 1.236 . S
O71 Tb40 2.341 . S
O71 C59 1.266 . S
H72 C44 0.929 . S
H73 C45 0.931 . S
H74 C47 0.930 . S
H75 C48 0.930 . S
H76 C53 0.929 . S
H77 C54 0.931 . S
H78 C56 0.930 . S
H79 C57 0.930 . S
Tb80 C82 2.809 . S
Tb80 O100 2.484 . S
Tb80 O101 2.440 . S
Tb80 O102 2.658 1_655 S
Tb80 O103 2.409 1_655 S
Tb80 O104 2.378 1_655 S
Tb80 O108 2.325 1_545 S
Tb80 O111 2.341 . S
Tb81 C91 2.809 . S
Tb81 O102 2.325 1_565 S
Tb81 O105 2.341 . S
Tb81 O106 2.484 . S
Tb81 O107 2.440 . S
Tb81 O108 2.658 1_455 S
Tb81 O109 2.409 1_455 S
Tb81 O110 2.378 1_455 S
C82 Tb80 2.809 . S
C82 C83 1.514 . S
C82 O100 1.248 . S
C82 O101 1.266 . S
C83 C82 1.514 . S
C83 C84 1.359 . S
C83 C88 1.348 . S
C84 C83 1.359 . S
C84 C85 1.380 . S
C84 H112 0.929 1_545 S
C85 C84 1.380 . S
C85 C86 1.347 . S
C85 H113 0.931 1_545 S
C86 C85 1.347 . S
C86 C87 1.369 . S
C87 C86 1.369 . S
C87 C88 1.408 . S
C87 H114 0.930 . S
C88 C83 1.348 . S
C88 C87 1.408 . S
C88 H115 0.930 . S
C89 O102 1.281 . S
C89 O103 1.254 . S
C90 O104 1.236 1_565 S
C90 O105 1.266 . S
C91 Tb81 2.809 . S
C91 C92 1.514 . S
C91 O106 1.248 . S
C91 O107 1.266 . S
C92 C91 1.514 . S
C92 C93 1.359 . S
C92 C97 1.348 . S
C93 C92 1.359 . S
C93 C94 1.380 . S
C93 H116 0.929 . S
C94 C93 1.380 . S
C94 C95 1.347 . S
C94 H117 0.931 . S
C95 C94 1.347 . S
C95 C96 1.369 . S
C96 C95 1.369 . S
C96 C97 1.408 . S
C96 H118 0.930 . S
C97 C92 1.348 . S
C97 C96 1.408 . S
C97 H119 0.930 . S
C98 O108 1.281 . S
C98 O109 1.254 . S
C99 O110 1.236 1_545 S
C99 O111 1.266 . S
O100 Tb80 2.484 . S
O100 C82 1.248 . S
O101 Tb80 2.440 . S
O101 C82 1.266 . S
O102 Tb80 2.658 1_455 S
O102 Tb81 2.325 1_545 S
O102 C89 1.281 . S
O103 Tb80 2.409 1_455 S
O103 C89 1.254 . S
O104 Tb80 2.378 1_455 S
O104 C90 1.236 1_545 S
O105 Tb81 2.341 . S
O105 C90 1.266 . S
O106 Tb81 2.484 . S
O106 C91 1.248 . S
O107 Tb81 2.440 . S
O107 C91 1.266 . S
O108 Tb80 2.325 1_565 S
O108 Tb81 2.658 1_655 S
O108 C98 1.281 . S
O109 Tb81 2.409 1_655 S
O109 C98 1.254 . S
O110 Tb81 2.378 1_655 S
O110 C99 1.236 1_565 S
O111 Tb80 2.341 . S
O111 C99 1.266 . S
H112 C84 0.929 1_565 S
H113 C85 0.931 1_565 S
H114 C87 0.930 . S
H115 C88 0.930 . S
H116 C93 0.929 . S
H117 C94 0.931 . S
H118 C96 0.930 . S
H119 C97 0.930 . S
H120 C126 0.930 . S
H121 C129 0.930 1_565 S
H122 C130 0.930 . S
H123 C131 0.930 . S
H124 C134 0.930 . S
H125 C135 0.930 . S
C126 H120 0.930 . S
C126 C127 1.355 . S
C126 C128 1.415 . S
C127 C126 1.355 . S
C127 C129 1.419 1_455 S
C128 C126 1.415 . S
C128 C133 1.425 1_455 S
C128 C135 1.409 . S
C129 H121 0.930 1_545 S
C129 C127 1.419 1_655 S
C129 C130 1.362 . S
C130 H122 0.930 . S
C130 C129 1.362 . S
C130 C133 1.409 . S
C131 H123 0.930 . S
C131 C132 1.355 . S
C131 C133 1.415 . S
C132 C131 1.355 . S
C132 C134 1.419 1_655 S
C133 C128 1.425 1_655 S
C133 C130 1.409 . S
C133 C131 1.415 . S
C134 H124 0.930 . S
C134 C132 1.419 1_455 S
C134 C135 1.362 . S
C135 H125 0.930 . S
C135 C128 1.409 . S
C135 C134 1.362 . S
H136 C142 0.930 . S
H137 C145 0.930 . S
H138 C146 0.930 . S
H139 C147 0.930 . S
H140 C150 0.930 . S
H141 C151 0.930 . S
C142 H136 0.930 . S
C142 C143 1.355 1_545 S
C142 C144 1.415 . S
C143 C142 1.355 1_565 S
C143 C145 1.419 . S
C144 C142 1.415 . S
C144 C149 1.425 1_545 S
C144 C151 1.409 . S
C145 H137 0.930 . S
C145 C143 1.419 . S
C145 C146 1.362 . S
C146 H138 0.930 . S
C146 C145 1.362 . S
C146 C149 1.409 . S
C147 H139 0.930 . S
C147 C148 1.355 1_565 S
C147 C149 1.415 . S
C148 C147 1.355 1_545 S
C148 C150 1.419 . S
C149 C144 1.425 1_565 S
C149 C146 1.409 . S
C149 C147 1.415 . S
C150 H140 0.930 . S
C150 C148 1.419 . S
C150 C151 1.362 . S
C151 H141 0.930 . S
C151 C144 1.409 . S
C151 C150 1.362 . S
H152 C158 0.930 . S
H153 C161 0.930 . S
H154 C162 0.930 . S
H155 C163 0.930 . S
H156 C166 0.930 . S
H157 C167 0.930 . S
C158 H152 0.930 . S
C158 C159 1.355 . S
C158 C160 1.415 . S
C159 C158 1.355 . S
C159 C161 1.419 . S
C160 C158 1.415 . S
C160 C165 1.425 . S
C160 C167 1.409 . S
C161 H153 0.930 . S
C161 C159 1.419 . S
C161 C162 1.362 . S
C162 H154 0.930 . S
C162 C161 1.362 . S
C162 C165 1.409 . S
C163 H155 0.930 . S
C163 C164 1.355 . S
C163 C165 1.415 . S
C164 C163 1.355 . S
C164 C166 1.419 . S
C165 C160 1.425 . S
C165 C162 1.409 . S
C165 C163 1.415 . S
C166 H156 0.930 . S
C166 C164 1.419 . S
C166 C167 1.362 . S
C167 H157 0.930 . S
C167 C160 1.409 . S
C167 C166 1.362 . S
H168 C174 0.930 . S
H169 C177 0.930 . S
H170 C178 0.930 . S
H171 C179 0.930 . S
H172 C182 0.930 . S
H173 C183 0.930 . S
C174 H168 0.930 . S
C174 C175 1.355 . S
C174 C176 1.415 . S
C175 C174 1.355 . S
C175 C177 1.419 . S
C176 C174 1.415 . S
C176 C181 1.425 . S
C176 C183 1.409 1_556 S
C177 H169 0.930 . S
C177 C175 1.419 . S
C177 C178 1.362 . S
C178 H170 0.930 . S
C178 C177 1.362 . S
C178 C181 1.409 . S
C179 H171 0.930 . S
C179 C180 1.355 . S
C179 C181 1.415 . S
C180 C179 1.355 . S
C180 C182 1.419 1_556 S
C181 C176 1.425 . S
C181 C178 1.409 . S
C181 C179 1.415 . S
C182 H172 0.930 . S
C182 C180 1.419 1_554 S
C182 C183 1.362 . S
C183 H173 0.930 . S
C183 C176 1.409 1_554 S
C183 C182 1.362 . S
H184 C190 0.930 . S
H185 C193 0.930 . S
H186 C194 0.930 . S
H187 C195 0.930 . S
H188 C198 0.930 . S
H189 C199 0.930 . S
C190 H184 0.930 . S
C190 C191 1.355 . S
C190 C192 1.415 . S
C191 C190 1.355 . S
C191 C193 1.419 . S
C192 C190 1.415 . S
C192 C197 1.425 . S
C192 C199 1.409 . S
C193 H185 0.930 . S
C193 C191 1.419 . S
C193 C194 1.362 . S
C194 H186 0.930 . S
C194 C193 1.362 . S
C194 C197 1.409 . S
C195 H187 0.930 . S
C195 C196 1.355 . S
C195 C197 1.415 . S
C196 C195 1.355 . S
C196 C198 1.419 . S
C197 C192 1.425 . S
C197 C194 1.409 . S
C197 C195 1.415 . S
C198 H188 0.930 . S
C198 C196 1.419 . S
C198 C199 1.362 . S
C199 H189 0.930 . S
C199 C192 1.409 . S
C199 C198 1.362 . S
H200 C206 0.930 . S
H201 C209 0.930 . S
H202 C210 0.930 . S
H203 C211 0.930 . S
H204 C214 0.930 . S
H205 C215 0.930 . S
C206 H200 0.930 . S
C206 C207 1.355 1_545 S
C206 C208 1.415 . S
C207 C206 1.355 1_565 S
C207 C209 1.419 . S
C208 C206 1.415 . S
C208 C213 1.425 1_545 S
C208 C215 1.409 . S
C209 H201 0.930 . S
C209 C207 1.419 . S
C209 C210 1.362 . S
C210 H202 0.930 . S
C210 C209 1.362 . S
C210 C213 1.409 . S
C211 H203 0.930 . S
C211 C212 1.355 . S
C211 C213 1.415 . S
C212 C211 1.355 . S
C212 C214 1.419 1_565 S
C213 C208 1.425 1_565 S
C213 C210 1.409 . S
C213 C211 1.415 . S
C214 H204 0.930 . S
C214 C212 1.419 1_545 S
C214 C215 1.362 . S
C215 H205 0.930 . S
C215 C208 1.409 . S
C215 C214 1.362 . S
H216 C222 0.930 . S
H217 C225 0.930 . S
H218 C226 0.930 . S
H219 C227 0.930 . S
H220 C230 0.930 . S
H221 C231 0.930 . S
C222 H216 0.930 . S
C222 C223 1.355 1_455 S
C222 C224 1.415 . S
C223 C222 1.355 1_655 S
C223 C225 1.419 . S
C224 C222 1.415 . S
C224 C229 1.425 1_455 S
C224 C231 1.409 1_556 S
C225 H217 0.930 . S
C225 C223 1.419 . S
C225 C226 1.362 . S
C226 H218 0.930 . S
C226 C225 1.362 . S
C226 C229 1.409 . S
C227 H219 0.930 . S
C227 C228 1.355 . S
C227 C229 1.415 1_554 S
C228 C227 1.355 . S
C228 C230 1.419 1_655 S
C229 C224 1.425 1_655 S
C229 C226 1.409 . S
C229 C227 1.415 1_556 S
C230 H220 0.930 . S
C230 C228 1.419 1_455 S
C230 C231 1.362 . S
C231 H221 0.930 . S
C231 C224 1.409 1_554 S
C231 C230 1.362 . S
H232 C238 0.930 . S
H233 C241 0.930 . S
H234 C242 0.930 . S
H235 C243 0.930 . S
H236 C246 0.930 . S
H237 C247 0.930 . S
C238 H232 0.930 . S
C238 C239 1.355 . S
C238 C240 1.415 . S
C239 C238 1.355 . S
C239 C241 1.419 . S
C240 C238 1.415 . S
C240 C245 1.425 . S
C240 C247 1.409 . S
C241 H233 0.930 . S
C241 C239 1.419 . S
C241 C242 1.362 . S
C242 H234 0.930 . S
C242 C241 1.362 . S
C242 C245 1.409 . S
C243 H235 0.930 . S
C243 C244 1.355 . S
C243 C245 1.415 . S
C244 C243 1.355 . S
C244 C246 1.419 . S
C245 C240 1.425 . S
C245 C242 1.409 . S
C245 C243 1.415 . S
C246 H236 0.930 . S
C246 C244 1.419 . S
C246 C247 1.362 . S
C247 H237 0.930 . S
C247 C240 1.409 . S
C247 C246 1.362 . S
H248 C254 0.930 . S
H249 C257 0.930 . S
H250 C258 0.930 . S
H251 C259 0.930 . S
H252 C262 0.930 1_655 S
H253 C263 0.930 . S
C254 H248 0.930 . S
C254 C255 1.355 . S
C254 C256 1.415 . S
C255 C254 1.355 . S
C255 C257 1.419 . S
C256 C254 1.415 . S
C256 C261 1.425 . S
C256 C263 1.409 . S
C257 H249 0.930 . S
C257 C255 1.419 . S
C257 C258 1.362 . S
C258 H250 0.930 . S
C258 C257 1.362 . S
C258 C261 1.409 . S
C259 H251 0.930 . S
C259 C260 1.355 . S
C259 C261 1.415 . S
C260 C259 1.355 . S
C260 C262 1.419 . S
C261 C256 1.425 . S
C261 C258 1.409 . S
C261 C259 1.415 . S
C262 H252 0.930 1_455 S
C262 C260 1.419 . S
C262 C263 1.362 . S
C263 H253 0.930 . S
C263 C256 1.409 . S
C263 C262 1.362 . S
C127 C9 1.648 1_445 S
C132 C18 1.648 1_655 S
C143 C58 1.738 . S
C148 C49 1.738 . S
C159 C89 1.373 . S
C164 C98 1.373 . S
C175 C86 0.985 . S
C180 C15 1.007 1_556 S
C191 C59 2.008 . S
C196 C6 1.942 . S
C207 C99 2.533 1_565 S
C212 C50 2.528 . S
C223 C90 2.521 1_655 S
C228 C19 2.424 . S
C239 C10 2.006 . S
C244 C55 1.872 . S
C255 C95 1.105 . S
C260 C46 1.100 . S
