# Generated by pormake.
# Topology vbn, (6)-cn, num edge types: 1
# Building blocks:
#     Node 0, Type 0, BuildingBlock: MIDCAF_clean_sbu_0, # of connection points: 6
#     Node 1, Type 0, BuildingBlock: MIDCAF_clean_sbu_0, # of connection points: 6
#     Node 2, Type 0, BuildingBlock: MIDCAF_clean_sbu_0, # of connection points: 6
#     Node 3, Type 0, BuildingBlock: MIDCAF_clean_sbu_0, # of connection points: 6
#     Node 4, Type 0, BuildingBlock: MIDCAF_clean_sbu_0, # of connection points: 6
#     Node 5, Type 0, BuildingBlock: MIDCAF_clean_sbu_0, # of connection points: 6
#     Node 6, Type 0, BuildingBlock: MIDCAF_clean_sbu_0, # of connection points: 6
#     Node 7, Type 0, BuildingBlock: MIDCAF_clean_sbu_0, # of connection points: 6
#     Edge 8, Type (0, 0), BuildingBlock: AJUNOK_clean_linker_0, # of connection points: 2
#     Edge 9, Type (0, 0), BuildingBlock: AJUNOK_clean_linker_0, # of connection points: 2
#     Edge 10, Type (0, 0), BuildingBlock: AJUNOK_clean_linker_0, # of connection points: 2
#     Edge 11, Type (0, 0), BuildingBlock: AJUNOK_clean_linker_0, # of connection points: 2
#     Edge 12, Type (0, 0), BuildingBlock: AJUNOK_clean_linker_0, # of connection points: 2
#     Edge 13, Type (0, 0), BuildingBlock: AJUNOK_clean_linker_0, # of connection points: 2
#     Edge 14, Type (0, 0), BuildingBlock: AJUNOK_clean_linker_0, # of connection points: 2
#     Edge 15, Type (0, 0), BuildingBlock: AJUNOK_clean_linker_0, # of connection points: 2
#     Edge 16, Type (0, 0), BuildingBlock: AJUNOK_clean_linker_0, # of connection points: 2
#     Edge 17, Type (0, 0), BuildingBlock: AJUNOK_clean_linker_0, # of connection points: 2
#     Edge 18, Type (0, 0), BuildingBlock: AJUNOK_clean_linker_0, # of connection points: 2
#     Edge 19, Type (0, 0), BuildingBlock: AJUNOK_clean_linker_0, # of connection points: 2
#     Edge 20, Type (0, 0), BuildingBlock: AJUNOK_clean_linker_0, # of connection points: 2
#     Edge 21, Type (0, 0), BuildingBlock: AJUNOK_clean_linker_0, # of connection points: 2
#     Edge 22, Type (0, 0), BuildingBlock: AJUNOK_clean_linker_0, # of connection points: 2
#     Edge 23, Type (0, 0), BuildingBlock: AJUNOK_clean_linker_0, # of connection points: 2
#     Edge 24, Type (0, 0), BuildingBlock: AJUNOK_clean_linker_0, # of connection points: 2
#     Edge 25, Type (0, 0), BuildingBlock: AJUNOK_clean_linker_0, # of connection points: 2
#     Edge 26, Type (0, 0), BuildingBlock: AJUNOK_clean_linker_0, # of connection points: 2
#     Edge 27, Type (0, 0), BuildingBlock: AJUNOK_clean_linker_0, # of connection points: 2
#     Edge 28, Type (0, 0), BuildingBlock: AJUNOK_clean_linker_0, # of connection points: 2
#     Edge 29, Type (0, 0), BuildingBlock: AJUNOK_clean_linker_0, # of connection points: 2
#     Edge 30, Type (0, 0), BuildingBlock: AJUNOK_clean_linker_0, # of connection points: 2
#     Edge 31, Type (0, 0), BuildingBlock: AJUNOK_clean_linker_0, # of connection points: 2
# Relax obj value: 0.265
# Max RMSD: 0.222
# Mean RMSD: 0.222
data_MOF--net-vbn--node1-MIDCAF_clean_sbu_0--edge1-AJUNOK_clean_linker_0
_symmetry_space_group_name_H-M    P1
_symmetry_Int_Tables_number       1
_symmetry_cell_setting            triclinic
loop_
_symmetry_equiv_pos_as_xyz
'x, y, z'
_cell_length_a     18.734712
_cell_length_b     20.257662
_cell_length_c     33.79766
_cell_angle_alpha  90.826359
_cell_angle_beta   89.243298
_cell_angle_gamma 89.832469
loop_
_atom_site_label
_atom_site_type_symbol
_atom_site_fract_x
_atom_site_fract_y
_atom_site_fract_z
_atom_type_partial_charge
Zn0 Zn 0.3277 0.34647 0.45672 0.0
Zn1 Zn 0.48717 0.24272 0.38645 0.0
Zn2 Zn 0.38718 0.30334 0.40884 0.0
C3 C 0.35741 0.17328 0.36513 0.0
C4 C 0.48362 0.35711 0.33991 0.0
O5 O 0.42664 0.40616 0.41001 0.0
O6 O 0.39348 0.41766 0.47262 0.0
C7 C 0.22275 0.2814 0.43203 0.0
O8 O 0.32732 0.22236 0.38303 0.0
O9 O 0.42501 0.16947 0.36442 0.0
O10 O 0.52212 0.30766 0.34743 0.0
O11 O 0.4259 0.36757 0.36037 0.0
O12 O 0.22474 0.3428 0.44018 0.0
O13 O 0.28095 0.25327 0.41987 0.0
O14 O 0.35988 0.39785 0.38035 0.0
O15 O 0.26324 0.40054 0.41773 0.0
C16 C 0.29731 0.42195 0.38784 0.0
O17 O 0.44885 0.2933 0.46226 0.0
O18 O 0.54041 0.23839 0.43734 0.0
C19 C 0.42917 0.43824 0.4432 0.0
C20 C 0.51018 0.26737 0.46637 0.0
Zn21 Zn 0.00739 0.20408 0.90273 0.0
Zn22 Zn 0.23512 0.07851 0.9124 0.0
Zn23 Zn 0.12272 0.14221 0.91524 0.0
C24 C 0.18853 0.03124 0.8505 0.0
C25 C 0.28185 0.19327 0.94003 0.0
O26 O 0.04576 0.13014 0.96757 0.0
O27 O 0.9489 0.18337 0.94939 0.0
C28 C 0.02334 0.1226 0.8384 0.0
O29 O 0.13541 0.05818 0.8696 0.0
O30 O 0.25021 0.05361 0.85625 0.0
O31 O 0.30555 0.13562 0.93486 0.0
O32 O 0.21669 0.20691 0.93091 0.0
O33 O 0.97774 0.16197 0.85313 0.0
O34 O 0.08145 0.11104 0.85693 0.0
O35 O 0.16055 0.24335 0.9116 0.0
O36 O 0.05691 0.29147 0.90049 0.0
C37 C 0.12357 0.2957 0.90532 0.0
O38 O 0.10754 0.0883 0.96598 0.0
O39 O 0.18842 0.01257 0.94962 0.0
C40 C 0.98084 0.1491 0.97446 0.0
C41 C 0.13802 0.03284 0.97203 0.0
Zn42 Zn 0.97753 0.2526 0.62687 0.0
Zn43 Zn 0.80554 0.09443 0.56068 0.0
Zn44 Zn 0.87865 0.17604 0.60022 0.0
C45 C 0.83562 0.03695 0.63282 0.0
C46 C 0.71756 0.20223 0.57108 0.0
O47 O 0.96802 0.19319 0.55698 0.0
O48 O 0.0391 0.2712 0.57985 0.0
C49 C 0.97264 0.14647 0.67707 0.0
O50 O 0.86431 0.09304 0.64052 0.0
O51 O 0.80862 0.02527 0.59954 0.0
O52 O 0.71715 0.14366 0.55808 0.0
O53 O 0.77406 0.22586 0.58756 0.0
O54 O 0.01576 0.19058 0.66615 0.0
O55 O 0.91457 0.13685 0.65773 0.0
O56 O 0.81873 0.26632 0.61282 0.0
O57 O 0.90319 0.31748 0.64617 0.0
C58 C 0.83888 0.31438 0.63537 0.0
O59 O 0.93118 0.13549 0.54649 0.0
O60 O 0.85773 0.073 0.51172 0.0
C61 C 0.02211 0.23166 0.55244 0.0
C62 C 0.91897 0.09694 0.51662 0.0
Zn63 Zn 0.51438 0.22749 0.13886 0.0
Zn64 Zn 0.70464 0.34363 0.05728 0.0
Zn65 Zn 0.62148 0.28557 0.1052 0.0
C66 C 0.67493 0.42771 0.12285 0.0
C67 C 0.78037 0.23382 0.07693 0.0
O68 O 0.52627 0.27308 0.0665 0.0
O69 O 0.44296 0.21492 0.09672 0.0
C70 C 0.53807 0.3411 0.18367 0.0
O71 O 0.64433 0.37686 0.13752 0.0
O72 O 0.7029 0.42534 0.08875 0.0
O73 O 0.78918 0.28848 0.06029 0.0
O74 O 0.72004 0.22082 0.09426 0.0
O75 O 0.4909 0.298 0.17759 0.0
O76 O 0.59498 0.34193 0.16162 0.0
O77 O 0.6691 0.19116 0.12135 0.0
O78 O 0.57774 0.15355 0.15616 0.0
C79 C 0.64188 0.14755 0.14442 0.0
O80 O 0.57417 0.31976 0.04946 0.0
O81 O 0.6556 0.35277 0.00631 0.0
C82 C 0.4641 0.24582 0.06668 0.0
C83 C 0.59088 0.34461 0.01556 0.0
Zn84 Zn 0.74309 0.61693 0.54813 0.0
Zn85 Zn 0.56323 0.75718 0.61824 0.0
Zn86 Zn 0.66061 0.68814 0.59084 0.0
C87 C 0.69571 0.81908 0.63456 0.0
C88 C 0.56476 0.65274 0.66722 0.0
O89 O 0.61237 0.65182 0.53515 0.0
O90 O 0.69285 0.5983 0.49855 0.0
C91 C 0.82098 0.72896 0.55979 0.0
O92 O 0.71841 0.77693 0.60837 0.0
O93 O 0.63039 0.81984 0.64438 0.0
O94 O 0.51965 0.69276 0.65403 0.0
O95 O 0.6259 0.64595 0.64941 0.0
O96 O 0.82783 0.67134 0.54576 0.0
O97 O 0.76217 0.74639 0.5777 0.0
O98 O 0.67438 0.6013 0.62769 0.0
O99 O 0.74172 0.54408 0.58521 0.0
C100 C 0.70834 0.54842 0.61777 0.0
O101 O 0.56799 0.70346 0.54975 0.0
O102 O 0.5005 0.7836 0.57476 0.0
C103 C 0.62955 0.61795 0.50369 0.0
C104 C 0.51357 0.74243 0.54727 0.0
Zn105 Zn 0.78552 0.86348 0.06824 0.0
Zn106 Zn 0.95047 0.71317 0.11999 0.0
Zn107 Zn 0.86059 0.79345 0.09919 0.0
C108 C 0.81308 0.66049 0.1343 0.0
C109 C 0.9587 0.82955 0.168 0.0
O110 O 0.91434 0.83337 0.04942 0.0
O111 O 0.8608 0.92995 0.05604 0.0
C112 C 0.72999 0.75342 0.04728 0.0
O113 O 0.79626 0.70724 0.11084 0.0
O114 O 0.8772 0.65428 0.14486 0.0
O115 O 0.99598 0.78189 0.15465 0.0
O116 O 0.89603 0.83947 0.15423 0.0
O117 O 0.75159 0.80117 0.02687 0.0
O118 O 0.75809 0.74401 0.08144 0.0
O119 O 0.83684 0.87919 0.13802 0.0
O120 O 0.72674 0.8757 0.11761 0.0
C121 C 0.77175 0.89888 0.14144 0.0
O122 O 0.95404 0.77843 0.05651 0.0
O123 O 0.00752 0.68538 0.07158 0.0
C124 C 0.91257 0.89566 0.04323 0.0
C125 C 1.00191 0.734 0.04889 0.0
Zn126 Zn 0.26621 0.9015 0.40364 0.0
Zn127 Zn 0.05404 0.76392 0.38126 0.0
Zn128 Zn 0.16056 0.82803 0.39378 0.0
C129 C 0.17466 0.67849 0.37307 0.0
C130 C 0.05578 0.853 0.32173 0.0
O131 O 0.12869 0.88871 0.44139 0.0
O132 O 0.19943 0.97184 0.42524 0.0
C133 C 0.30792 0.7869 0.43354 0.0
O134 O 0.20691 0.72868 0.38829 0.0
O135 O 0.10919 0.68324 0.36501 0.0
O136 O 0.01125 0.81736 0.33966 0.0
O137 O 0.1191 0.85937 0.33555 0.0
O138 O 0.31712 0.84757 0.44013 0.0
O139 O 0.25623 0.76701 0.41135 0.0
O140 O 0.17885 0.9061 0.34897 0.0
O141 O 0.29345 0.89188 0.34607 0.0
C142 C 0.23981 0.92383 0.33489 0.0
O143 O 0.08152 0.83685 0.44587 0.0
O144 O 0.99926 0.76314 0.43117 0.0
C145 C 0.14527 0.95006 0.44343 0.0
C146 C 0.0236 0.80572 0.45487 0.0
Zn147 Zn 0.32487 0.64346 0.96244 0.0
Zn148 Zn 0.44618 0.75346 0.88408 0.0
Zn149 Zn 0.36723 0.66065 0.89799 0.0
C150 C 0.30456 0.7874 0.85937 0.0
C151 C 0.47285 0.66174 0.82705 0.0
O152 O 0.3982 0.56306 0.92174 0.0
O153 O 0.39421 0.58268 0.9861 0.0
C154 C 0.25897 0.74352 0.95591 0.0
O155 O 0.28789 0.7362 0.87985 0.0
O156 O 0.36951 0.8037 0.85609 0.0
O157 O 0.51157 0.69801 0.84862 0.0
O158 O 0.40829 0.65183 0.83802 0.0
O159 O 0.30722 0.73562 0.98125 0.0
O160 O 0.26852 0.71761 0.92091 0.0
O161 O 0.32105 0.56312 0.89571 0.0
O162 O 0.2401 0.59014 0.94033 0.0
C163 C 0.26062 0.55187 0.91245 0.0
O164 O 0.45312 0.67352 0.94063 0.0
O165 O 0.47947 0.77845 0.93886 0.0
C166 C 0.41166 0.54525 0.95721 0.0
C167 C 0.4852 0.72322 0.95538 0.0
C168 C 0.32205 0.01107 0.3124 0.0
C169 C 0.25321 -0.00556 0.32594 0.0
C170 C 0.35308 0.07143 0.32285 0.0
C171 C 0.31614 0.11834 0.34662 0.0
H172 H 0.35545 0.97414 0.29774 0.0
H173 H 0.40845 0.07909 0.31452 0.0
S174 S 0.12465 0.10958 0.3755 0.0
N175 N 0.14166 0.03741 0.35394 0.0
N176 N 0.20013 0.15137 0.3735 0.0
C177 C 0.24315 0.10715 0.35422 0.0
C178 C 0.21137 0.04522 0.34351 0.0
C179 C 0.23077 0.36843 0.89705 0.0
C180 C 0.15735 0.36173 0.90525 0.0
C181 C 0.26341 0.43071 0.89742 0.0
C182 C 0.22389 0.48825 0.90667 0.0
H183 H 0.26337 0.32531 0.89036 0.0
H184 H 0.32037 0.43348 0.89188 0.0
S185 S 0.0303 0.49802 0.93005 0.0
N186 N 0.04602 0.41863 0.92232 0.0
N187 N 0.10779 0.53503 0.92346 0.0
C188 C 0.1505 0.48238 0.91445 0.0
C189 C 0.11709 0.41931 0.91363 0.0
C190 C 0.6836 0.43259 0.62857 0.0
C191 C 0.71381 0.49124 0.64329 0.0
C192 C 0.72122 0.37284 0.62992 0.0
C193 C 0.79013 0.37027 0.64574 0.0
H194 H 0.63584 0.43457 0.61086 0.0
H195 H 0.69879 0.33025 0.61535 0.0
S196 S 0.87872 0.5062 0.70136 0.0
N197 N 0.80553 0.54002 0.6839 0.0
N198 N 0.87679 0.42795 0.68701 0.0
C199 C 0.81415 0.42614 0.66718 0.0
C200 C 0.7753 0.48666 0.66604 0.0
C201 C 0.7553 0.08039 0.1451 0.0
C202 C 0.68254 0.08732 0.15537 0.0
C203 C 0.78995 0.019 0.14723 0.0
C204 C 0.75278 0.96274 0.15984 0.0
H205 H 0.78462 0.12144 0.13315 0.0
H206 H 0.84327 0.01422 0.13465 0.0
S207 S 0.56868 0.95762 0.20056 0.0
N208 N 0.57969 0.03487 0.18691 0.0
N209 N 0.64511 0.92005 0.1903 0.0
C210 C 0.68376 0.97103 0.17555 0.0
C211 C 0.64835 0.03318 0.17336 0.0
C212 C 0.75198 0.98475 0.67556 0.0
C213 C 0.82337 -0.01312 0.66263 0.0
C214 C 0.71124 0.92807 0.66861 0.0
C215 C 0.74252 0.87095 0.65135 0.0
H216 H 0.72406 0.03026 0.68312 0.0
H217 H 0.65405 0.93147 0.67337 0.0
S218 S 0.93705 0.84219 0.63915 0.0
N219 N 0.92975 0.92178 0.64974 0.0
N220 N 0.85485 0.8126 0.63943 0.0
C221 C 0.81741 0.86814 0.64894 0.0
C222 C 0.85805 0.92662 0.6553 0.0
C223 C 0.69537 0.60498 0.12539 0.0
C224 C 0.76083 0.60884 0.14513 0.0
C225 C 0.65624 0.54633 0.12515 0.0
C226 C 0.68173 0.49014 0.14443 0.0
H227 H 0.67774 0.64458 0.10673 0.0
H228 H 0.61174 0.54208 0.10509 0.0
S229 S 0.83472 0.48239 0.21198 0.0
N230 N 0.83771 0.55764 0.19384 0.0
N231 N 0.76423 0.44687 0.19211 0.0
C232 C 0.73908 0.49726 0.17009 0.0
C233 C 0.77916 0.55688 0.17052 0.0
C234 C 0.31461 0.54209 0.37776 0.0
C235 C 0.27353 0.48495 0.37152 0.0
C236 C 0.28343 0.6052 0.37626 0.0
C237 C 0.2104 0.61305 0.36799 0.0
H238 H 0.36951 0.53796 0.38704 0.0
H239 H 0.31597 0.64764 0.38354 0.0
S240 S 0.08402 0.47756 0.3428 0.0
N241 N 0.15961 0.43951 0.35255 0.0
N242 N 0.10083 0.55713 0.34798 0.0
C243 C 0.17092 0.55589 0.35794 0.0
C244 C 0.20256 0.49206 0.36016 0.0
C245 C 0.15825 0.91516 0.86414 0.0
C246 C 0.18549 0.96141 0.83713 0.0
C247 C 0.19119 0.85307 0.86849 0.0
C248 C 0.25079 0.83516 0.84492 0.0
H249 H 0.11846 0.9306 0.88579 0.0
H250 H 0.17517 0.82283 0.89318 0.0
S251 S 0.32234 0.9282 0.75944 0.0
N252 N 0.2611 0.97763 0.77942 0.0
N253 N 0.32102 0.86044 0.78604 0.0
C254 C 0.26831 0.87568 0.81269 0.0
C255 C 0.2356 0.93887 0.80886 0.0
C256 C 0.45457 0.53922 0.48114 0.0
C257 C 0.47191 0.49812 0.44865 0.0
C258 C 0.50451 0.58226 0.49678 0.0
C259 C 0.57256 0.58877 0.4794 0.0
H260 H 0.40457 0.5335 0.49717 0.0
H261 H 0.49131 0.60523 0.52501 0.0
S262 S 0.63706 0.50436 0.38748 0.0
N263 N 0.55664 0.47362 0.39536 0.0
N264 N 0.65005 0.55897 0.42346 0.0
C265 C 0.58708 0.55447 0.44361 0.0
C266 C 0.53645 0.50856 0.42826 0.0
C267 C 0.00868 0.90171 0.99326 0.0
C268 C 0.97625 0.92687 0.02784 0.0
C269 C 0.06995 0.93116 0.97799 0.0
C270 C 0.09897 -0.01293 0.99662 0.0
H271 H 0.98539 0.86038 0.97738 0.0
H272 H 0.09115 0.91322 0.94998 0.0
S273 S 0.04432 0.05951 0.09346 0.0
N274 N 0.98489 0.00122 0.08466 0.0
N275 N 0.09933 0.05877 0.0548 0.0
C276 C 0.07088 0.00854 0.03317 0.0
C277 C 0.00906 0.97813 0.04897 0.0
C278 C 0.04671 0.06609 0.51164 0.0
C279 C 0.97957 0.07052 0.49345 0.0
C280 C 0.10252 0.03003 0.49413 0.0
C281 C 0.09169 -0.0043 0.45868 0.0
H282 H 0.05522 0.08721 0.54079 0.0
H283 H 0.15272 0.02582 0.50947 0.0
S284 S 0.92874 -0.00684 0.39791 0.0
N285 N 0.90768 0.04059 0.43652 0.0
N286 N 0.01212 0.96965 0.40456 0.0
C287 C 0.02614 0.00091 0.43946 0.0
C288 C 0.96993 0.03902 0.4567 0.0
C289 C 0.43066 0.45125 1.00091 0.0
C290 C 0.44704 0.48243 0.96523 0.0
C291 C 0.47402 0.40132 0.01496 0.0
C292 C 0.53525 0.38009 0.99372 0.0
H293 H 0.38678 0.46866 0.01951 0.0
H294 H 0.46248 0.38397 0.04449 0.0
S295 S 0.59307 0.43809 0.8948 0.0
N296 N 0.52189 0.48332 0.90598 0.0
N297 N 0.60399 0.38782 0.93234 0.0
C298 C 0.5479 0.40622 0.95592 0.0
C299 C 0.50338 0.45767 0.94158 0.0
C300 C 0.58601 0.38347 0.24725 0.0
C301 C 0.52994 0.3818 0.22017 0.0
C302 C 0.57138 0.38871 0.28805 0.0
C303 C 0.50041 0.39192 0.30269 0.0
H304 H 0.6399 0.37136 0.23757 0.0
H305 H 0.61494 0.38067 0.30823 0.0
S306 S 0.33877 0.41507 0.24266 0.0
N307 N 0.40394 0.40361 0.20984 0.0
N308 N 0.37666 0.41289 0.28647 0.0
C309 C 0.44611 0.40392 0.27557 0.0
C310 C 0.46092 0.39861 0.2341 0.0
C311 C 0.06973 0.10503 0.76998 0.0
C312 C 0.0129 0.10016 0.79721 0.0
C313 C 0.05645 0.11222 0.72956 0.0
C314 C 0.98609 0.11413 0.71522 0.0
H315 H 0.12391 0.11102 0.78024 0.0
H316 H 0.10122 0.12246 0.70999 0.0
S317 S 0.82087 0.08443 0.77374 0.0
N318 N 0.88547 0.08316 0.8065 0.0
N319 N 0.86041 0.09693 0.73056 0.0
C320 C 0.9299 0.09932 0.74147 0.0
C321 C 0.94343 0.09228 0.7826 0.0
C322 C 0.5729 0.64959 0.77717 0.0
C323 C 0.50047 0.63936 0.78748 0.0
C324 C 0.59728 0.64352 0.73777 0.0
C325 C 0.54995 0.62748 0.70727 0.0
H326 H 0.61017 0.66697 0.7992 0.0
H327 H 0.6514 0.65849 0.73072 0.0
S328 S 0.35963 0.58127 0.71919 0.0
N329 N 0.38516 0.60064 0.76447 0.0
N330 N 0.43088 0.59057 0.69055 0.0
C331 C 0.47982 0.60951 0.71775 0.0
C332 C 0.45501 0.61523 0.75782 0.0
C333 C 0.93708 0.87765 0.23515 0.0
C334 C 0.98467 0.86443 0.20364 0.0
C335 C 0.9622 0.88356 0.27392 0.0
C336 C 0.03549 0.87662 0.28222 0.0
H337 H 0.87997 0.87568 0.23062 0.0
H338 H 0.92328 0.88655 0.2979 0.0
S339 S 0.18243 0.8633 0.20814 0.0
N340 N 0.10885 0.86114 0.18176 0.0
N341 N 0.1559 0.87176 0.25474 0.0
C342 C 0.084 0.87447 0.25028 0.0
C343 C 0.05846 0.86833 0.21082 0.0
C344 C 0.53537 0.22807 0.53389 0.0
C345 C 0.54934 0.27299 0.50366 0.0
C346 C 0.5879 0.21353 0.56167 0.0
C347 C 0.65603 0.24293 0.55961 0.0
H348 H 0.48707 0.19878 0.53345 0.0
H349 H 0.57845 0.17291 0.58157 0.0
S350 S 0.7113 0.37555 0.49161 0.0
N351 N 0.62967 0.35611 0.47773 0.0
N352 N 0.72893 0.32807 0.52965 0.0
C353 C 0.66637 0.29475 0.53309 0.0
C354 C 0.61288 0.3096 0.50487 0.0
C355 C 0.87498 0.11287 0.01314 0.0
C356 C 0.94387 0.14071 0.01297 0.0
C357 C 0.8224 0.13387 0.04076 0.0
C358 C 0.83701 0.18419 0.06855 0.0
H359 H 0.85899 0.08111 0.98877 0.0
H360 H 0.76784 0.11804 0.03636 0.0
S361 S 0.01347 0.26028 0.08652 0.0
N362 N 0.02724 0.21103 0.04778 0.0
N363 N 0.92896 0.25027 0.09964 0.0
C364 C 0.90856 0.20397 0.07263 0.0
C365 C 0.9619 0.18262 0.0446 0.0
C366 C 0.13685 0.20334 0.51821 0.0
C367 C 0.0668 0.22787 0.51617 0.0
C368 C 0.18502 0.21004 0.48638 0.0
C369 C 0.16571 0.2445 0.45229 0.0
H370 H 0.15553 0.1817 0.54533 0.0
H371 H 0.24005 0.19536 0.49057 0.0
S372 S 0.98626 0.31127 0.43086 0.0
N373 N 0.97761 0.27992 0.47555 0.0
N374 N 0.06987 0.2973 0.41682 0.0
C375 C 0.09424 0.2646 0.44877 0.0
C376 C 0.04442 0.25555 0.48062 0.0
C377 C 0.44498 0.24014 0.99363 0.0
C378 C 0.41704 0.25049 0.03197 0.0
C379 C 0.39963 0.23333 0.96115 0.0
C380 C 0.32483 0.23608 0.96598 0.0
H381 H 0.5017 0.23221 0.98908 0.0
H382 H 0.42286 0.21839 0.93286 0.0
S383 S 0.22635 0.27596 0.05905 0.0
N384 N 0.31106 0.27416 0.07202 0.0
N385 N 0.22584 0.26051 0.01093 0.0
C386 C 0.29697 0.25434 0.00332 0.0
C387 C 0.34307 0.26087 0.03647 0.0
C388 C 0.38876 0.72842 0.52422 0.0
C389 C 0.46171 0.73539 0.51481 0.0
C390 C 0.33662 0.73138 0.49486 0.0
C391 C 0.35553 0.74287 0.45519 0.0
H392 H 0.3716 0.72425 0.55483 0.0
H393 H 0.28096 0.73294 0.50403 0.0
S394 S 0.53961 0.75392 0.41441 0.0
N395 N 0.55075 0.74522 0.46248 0.0
N396 N 0.4525 0.75223 0.40735 0.0
C397 C 0.42857 0.74287 0.44496 0.0
C398 C 0.48181 0.73939 0.47481 0.0
C399 C 0.067 0.71148 0.98443 0.0
C400 C 0.06014 0.74743 0.02015 0.0
C401 C 0.12857 0.71738 0.9603 0.0
C402 C 0.18604 0.75805 0.97173 0.0
H403 H 0.02611 0.67649 0.976 0.0
H404 H 0.13366 0.68548 0.93442 0.0
S405 S 0.1898 0.86766 0.06057 0.0
N406 N 0.11218 0.82957 0.0639 0.0
N407 N 0.22796 0.83985 0.01922 0.0
C408 C 0.17703 0.7976 0.00601 0.0
C409 C 0.11433 0.79207 0.03022 0.0
C410 C 0.91606 0.84279 0.49268 0.0
C411 C 0.98519 0.81519 0.49296 0.0
C412 C 0.86354 0.82382 0.52048 0.0
C413 C 0.87838 0.77548 0.54869 0.0
H414 H 0.90012 0.87307 0.46812 0.0
H415 H 0.809 0.83986 0.51617 0.0
S416 S 0.05485 0.69889 0.56649 0.0
N417 N 0.06879 0.74686 0.52806 0.0
N418 N 0.9701 0.70926 0.57926 0.0
C419 C 0.94973 0.75462 0.55236 0.0
C420 C 1.00322 0.77491 0.52465 0.0
C421 C 0.65835 0.679 0.00435 0.0
C422 C 0.66081 0.72514 0.03578 0.0
C423 C 0.59724 0.67324 0.98075 0.0
C424 C 0.53797 0.71518 0.98709 0.0
H425 H 0.70595 0.65157 0.99578 0.0
H426 H 0.59918 0.64047 0.95512 0.0
S427 S 0.51477 0.83782 0.06851 0.0
N428 N 0.59554 0.80715 0.07493 0.0
N429 N 0.48239 0.79866 0.02949 0.0
C430 C 0.5377 0.75745 0.02028 0.0
C431 C 0.59877 0.76173 0.04496 0.0
loop_
_geom_bond_atom_site_label_1
_geom_bond_atom_site_label_2
_geom_bond_distance
_geom_bond_site_symmetry_2
_ccdc_geom_bond_type
Zn0 O6 1.920 . S
Zn0 O12 1.898 . S
Zn0 O15 1.905 . S
Zn1 O9 1.905 . S
Zn1 O10 1.898 . S
Zn1 O18 1.920 . S
Zn2 O5 2.080 . S
Zn2 O8 2.114 . S
Zn2 O11 2.120 . S
Zn2 O13 2.120 . S
Zn2 O14 2.114 . S
Zn2 O17 2.080 . S
C3 O8 1.166 . S
C3 O9 1.182 . S
C4 O10 1.167 . S
C4 O11 1.299 . S
O5 Zn2 2.080 . S
O5 C19 1.305 . S
O6 Zn0 1.920 . S
O6 C19 1.234 . S
C7 O12 1.167 . S
C7 O13 1.299 . S
O8 Zn2 2.114 . S
O8 C3 1.166 . S
O9 Zn1 1.905 . S
O9 C3 1.182 . S
O10 Zn1 1.898 . S
O10 C4 1.167 . S
O11 Zn2 2.120 . S
O11 C4 1.299 . S
O12 Zn0 1.898 . S
O12 C7 1.167 . S
O13 Zn2 2.120 . S
O13 C7 1.299 . S
O14 Zn2 2.114 . S
O14 C16 1.166 . S
O15 Zn0 1.905 . S
O15 C16 1.182 . S
C16 O14 1.166 . S
C16 O15 1.182 . S
O17 Zn2 2.080 . S
O17 C20 1.305 . S
O18 Zn1 1.920 . S
O18 C20 1.234 . S
C19 O5 1.305 . S
C19 O6 1.234 . S
C20 O17 1.305 . S
C20 O18 1.234 . S
Zn21 O27 1.920 1_455 S
Zn21 O33 1.898 . S
Zn21 O36 1.905 . S
Zn22 O30 1.905 . S
Zn22 O31 1.898 . S
Zn22 O39 1.920 . S
Zn23 O26 2.080 . S
Zn23 O29 2.114 . S
Zn23 O32 2.120 . S
Zn23 O34 2.120 . S
Zn23 O35 2.114 . S
Zn23 O38 2.080 . S
C24 O29 1.166 . S
C24 O30 1.182 . S
C25 O31 1.167 . S
C25 O32 1.299 . S
O26 Zn23 2.080 . S
O26 C40 1.305 1_455 S
O27 Zn21 1.920 1_655 S
O27 C40 1.234 . S
C28 O33 1.167 . S
C28 O34 1.299 . S
O29 Zn23 2.114 . S
O29 C24 1.166 . S
O30 Zn22 1.905 . S
O30 C24 1.182 . S
O31 Zn22 1.898 . S
O31 C25 1.167 . S
O32 Zn23 2.120 . S
O32 C25 1.299 . S
O33 Zn21 1.898 . S
O33 C28 1.167 . S
O34 Zn23 2.120 . S
O34 C28 1.299 . S
O35 Zn23 2.114 . S
O35 C37 1.166 . S
O36 Zn21 1.905 . S
O36 C37 1.182 . S
C37 O35 1.166 . S
C37 O36 1.182 . S
O38 Zn23 2.080 . S
O38 C41 1.305 . S
O39 Zn22 1.920 . S
O39 C41 1.234 . S
C40 O26 1.305 1_655 S
C40 O27 1.234 . S
C41 O38 1.305 . S
C41 O39 1.234 . S
Zn42 O48 1.920 1_655 S
Zn42 O54 1.898 . S
Zn42 O57 1.905 . S
Zn43 O51 1.905 . S
Zn43 O52 1.898 . S
Zn43 O60 1.920 . S
Zn44 O47 2.080 . S
Zn44 O50 2.114 . S
Zn44 O53 2.120 . S
Zn44 O55 2.120 . S
Zn44 O56 2.114 . S
Zn44 O59 2.080 . S
C45 O50 1.166 . S
C45 O51 1.182 . S
C46 O52 1.167 . S
C46 O53 1.299 . S
O47 Zn44 2.080 . S
O47 C61 1.305 1_655 S
O48 Zn42 1.920 1_455 S
O48 C61 1.234 . S
C49 O54 1.167 . S
C49 O55 1.299 . S
O50 Zn44 2.114 . S
O50 C45 1.166 . S
O51 Zn43 1.905 . S
O51 C45 1.182 . S
O52 Zn43 1.898 . S
O52 C46 1.167 . S
O53 Zn44 2.120 . S
O53 C46 1.299 . S
O54 Zn42 1.898 . S
O54 C49 1.167 . S
O55 Zn44 2.120 . S
O55 C49 1.299 . S
O56 Zn44 2.114 . S
O56 C58 1.166 . S
O57 Zn42 1.905 . S
O57 C58 1.182 . S
C58 O56 1.166 . S
C58 O57 1.182 . S
O59 Zn44 2.080 . S
O59 C62 1.305 . S
O60 Zn43 1.920 . S
O60 C62 1.234 . S
C61 O47 1.305 1_455 S
C61 O48 1.234 . S
C62 O59 1.305 . S
C62 O60 1.234 . S
Zn63 O69 1.920 . S
Zn63 O75 1.898 . S
Zn63 O78 1.905 . S
Zn64 O72 1.905 . S
Zn64 O73 1.898 . S
Zn64 O81 1.920 . S
Zn65 O68 2.080 . S
Zn65 O71 2.114 . S
Zn65 O74 2.120 . S
Zn65 O76 2.120 . S
Zn65 O77 2.114 . S
Zn65 O80 2.080 . S
C66 O71 1.166 . S
C66 O72 1.182 . S
C67 O73 1.167 . S
C67 O74 1.299 . S
O68 Zn65 2.080 . S
O68 C82 1.305 . S
O69 Zn63 1.920 . S
O69 C82 1.234 . S
C70 O75 1.167 . S
C70 O76 1.299 . S
O71 Zn65 2.114 . S
O71 C66 1.166 . S
O72 Zn64 1.905 . S
O72 C66 1.182 . S
O73 Zn64 1.898 . S
O73 C67 1.167 . S
O74 Zn65 2.120 . S
O74 C67 1.299 . S
O75 Zn63 1.898 . S
O75 C70 1.167 . S
O76 Zn65 2.120 . S
O76 C70 1.299 . S
O77 Zn65 2.114 . S
O77 C79 1.166 . S
O78 Zn63 1.905 . S
O78 C79 1.182 . S
C79 O77 1.166 . S
C79 O78 1.182 . S
O80 Zn65 2.080 . S
O80 C83 1.305 . S
O81 Zn64 1.920 . S
O81 C83 1.234 . S
C82 O68 1.305 . S
C82 O69 1.234 . S
C83 O80 1.305 . S
C83 O81 1.234 . S
Zn84 O90 1.920 . S
Zn84 O96 1.898 . S
Zn84 O99 1.905 . S
Zn85 O93 1.905 . S
Zn85 O94 1.898 . S
Zn85 O102 1.920 . S
Zn86 O89 2.080 . S
Zn86 O92 2.114 . S
Zn86 O95 2.120 . S
Zn86 O97 2.120 . S
Zn86 O98 2.114 . S
Zn86 O101 2.080 . S
C87 O92 1.166 . S
C87 O93 1.182 . S
C88 O94 1.167 . S
C88 O95 1.299 . S
O89 Zn86 2.080 . S
O89 C103 1.305 . S
O90 Zn84 1.920 . S
O90 C103 1.234 . S
C91 O96 1.167 . S
C91 O97 1.299 . S
O92 Zn86 2.114 . S
O92 C87 1.166 . S
O93 Zn85 1.905 . S
O93 C87 1.182 . S
O94 Zn85 1.898 . S
O94 C88 1.167 . S
O95 Zn86 2.120 . S
O95 C88 1.299 . S
O96 Zn84 1.898 . S
O96 C91 1.167 . S
O97 Zn86 2.120 . S
O97 C91 1.299 . S
O98 Zn86 2.114 . S
O98 C100 1.166 . S
O99 Zn84 1.905 . S
O99 C100 1.182 . S
C100 O98 1.166 . S
C100 O99 1.182 . S
O101 Zn86 2.080 . S
O101 C104 1.305 . S
O102 Zn85 1.920 . S
O102 C104 1.234 . S
C103 O89 1.305 . S
C103 O90 1.234 . S
C104 O101 1.305 . S
C104 O102 1.234 . S
Zn105 O111 1.920 . S
Zn105 O117 1.898 . S
Zn105 O120 1.905 . S
Zn106 O114 1.905 . S
Zn106 O115 1.898 . S
Zn106 O123 1.920 1_655 S
Zn107 O110 2.080 . S
Zn107 O113 2.114 . S
Zn107 O116 2.120 . S
Zn107 O118 2.120 . S
Zn107 O119 2.114 . S
Zn107 O122 2.080 . S
C108 O113 1.166 . S
C108 O114 1.182 . S
C109 O115 1.167 . S
C109 O116 1.299 . S
O110 Zn107 2.080 . S
O110 C124 1.305 . S
O111 Zn105 1.920 . S
O111 C124 1.234 . S
C112 O117 1.167 . S
C112 O118 1.299 . S
O113 Zn107 2.114 . S
O113 C108 1.166 . S
O114 Zn106 1.905 . S
O114 C108 1.182 . S
O115 Zn106 1.898 . S
O115 C109 1.167 . S
O116 Zn107 2.120 . S
O116 C109 1.299 . S
O117 Zn105 1.898 . S
O117 C112 1.167 . S
O118 Zn107 2.120 . S
O118 C112 1.299 . S
O119 Zn107 2.114 . S
O119 C121 1.166 . S
O120 Zn105 1.905 . S
O120 C121 1.182 . S
C121 O119 1.166 . S
C121 O120 1.182 . S
O122 Zn107 2.080 . S
O122 C125 1.305 1_655 S
O123 Zn106 1.920 1_455 S
O123 C125 1.234 . S
C124 O110 1.305 . S
C124 O111 1.234 . S
C125 O122 1.305 1_455 S
C125 O123 1.234 . S
Zn126 O132 1.920 . S
Zn126 O138 1.898 . S
Zn126 O141 1.905 . S
Zn127 O135 1.905 . S
Zn127 O136 1.898 . S
Zn127 O144 1.920 1_455 S
Zn128 O131 2.080 . S
Zn128 O134 2.114 . S
Zn128 O137 2.120 . S
Zn128 O139 2.120 . S
Zn128 O140 2.114 . S
Zn128 O143 2.080 . S
C129 O134 1.166 . S
C129 O135 1.182 . S
C130 O136 1.167 . S
C130 O137 1.299 . S
O131 Zn128 2.080 . S
O131 C145 1.305 . S
O132 Zn126 1.920 . S
O132 C145 1.234 . S
C133 O138 1.167 . S
C133 O139 1.299 . S
O134 Zn128 2.114 . S
O134 C129 1.166 . S
O135 Zn127 1.905 . S
O135 C129 1.182 . S
O136 Zn127 1.898 . S
O136 C130 1.167 . S
O137 Zn128 2.120 . S
O137 C130 1.299 . S
O138 Zn126 1.898 . S
O138 C133 1.167 . S
O139 Zn128 2.120 . S
O139 C133 1.299 . S
O140 Zn128 2.114 . S
O140 C142 1.166 . S
O141 Zn126 1.905 . S
O141 C142 1.182 . S
C142 O140 1.166 . S
C142 O141 1.182 . S
O143 Zn128 2.080 . S
O143 C146 1.305 1_455 S
O144 Zn127 1.920 1_655 S
O144 C146 1.234 . S
C145 O131 1.305 . S
C145 O132 1.234 . S
C146 O143 1.305 1_655 S
C146 O144 1.234 . S
Zn147 O153 1.920 . S
Zn147 O159 1.898 . S
Zn147 O162 1.905 . S
Zn148 O156 1.905 . S
Zn148 O157 1.898 . S
Zn148 O165 1.920 . S
Zn149 O152 2.080 . S
Zn149 O155 2.114 . S
Zn149 O158 2.120 . S
Zn149 O160 2.120 . S
Zn149 O161 2.114 . S
Zn149 O164 2.080 . S
C150 O155 1.166 . S
C150 O156 1.182 . S
C151 O157 1.167 . S
C151 O158 1.299 . S
O152 Zn149 2.080 . S
O152 C166 1.305 . S
O153 Zn147 1.920 . S
O153 C166 1.234 . S
C154 O159 1.167 . S
C154 O160 1.299 . S
O155 Zn149 2.114 . S
O155 C150 1.166 . S
O156 Zn148 1.905 . S
O156 C150 1.182 . S
O157 Zn148 1.898 . S
O157 C151 1.167 . S
O158 Zn149 2.120 . S
O158 C151 1.299 . S
O159 Zn147 1.898 . S
O159 C154 1.167 . S
O160 Zn149 2.120 . S
O160 C154 1.299 . S
O161 Zn149 2.114 . S
O161 C163 1.166 . S
O162 Zn147 1.905 . S
O162 C163 1.182 . S
C163 O161 1.166 . S
C163 O162 1.182 . S
O164 Zn149 2.080 . S
O164 C167 1.305 . S
O165 Zn148 1.920 . S
O165 C167 1.234 . S
C166 O152 1.305 . S
C166 O153 1.234 . S
C167 O164 1.305 . S
C167 O165 1.234 . S
C168 C169 1.368 1_545 S
C168 C170 1.419 . S
C168 H172 0.930 1_545 S
C169 C168 1.368 1_565 S
C169 C178 1.425 1_565 S
C170 C168 1.419 . S
C170 C171 1.363 . S
C170 H173 0.929 . S
C171 C170 1.363 . S
C171 C177 1.428 . S
H172 C168 0.930 1_565 S
H173 C170 0.929 . S
S174 N175 1.613 . S
S174 N176 1.610 . S
N175 S174 1.613 . S
N175 C178 1.350 . S
N176 S174 1.610 . S
N176 C177 1.351 . S
C177 C171 1.428 . S
C177 N176 1.351 . S
C177 C178 1.434 . S
C178 C169 1.425 1_545 S
C178 N175 1.350 . S
C178 C177 1.434 . S
C179 C180 1.369 . S
C179 C181 1.419 . S
C179 H183 0.930 . S
C180 C179 1.369 . S
C180 C189 1.429 . S
C181 C179 1.419 . S
C181 C182 1.363 . S
C181 H184 0.929 . S
C182 C181 1.363 . S
C182 C188 1.428 . S
H183 C179 0.930 . S
H184 C181 0.929 . S
S185 N186 1.613 . S
S185 N187 1.610 . S
N186 S185 1.613 . S
N186 C189 1.350 . S
N187 S185 1.610 . S
N187 C188 1.351 . S
C188 C182 1.428 . S
C188 N187 1.351 . S
C188 C189 1.434 . S
C189 C180 1.429 . S
C189 N186 1.350 . S
C189 C188 1.434 . S
C190 C191 1.369 . S
C190 C192 1.419 . S
C190 H194 0.930 . S
C191 C190 1.369 . S
C191 C200 1.429 . S
C192 C190 1.419 . S
C192 C193 1.363 . S
C192 H195 0.929 . S
C193 C192 1.363 . S
C193 C199 1.428 . S
H194 C190 0.930 . S
H195 C192 0.929 . S
S196 N197 1.613 . S
S196 N198 1.610 . S
N197 S196 1.613 . S
N197 C200 1.350 . S
N198 S196 1.610 . S
N198 C199 1.351 . S
C199 C193 1.428 . S
C199 N198 1.351 . S
C199 C200 1.434 . S
C200 C191 1.429 . S
C200 N197 1.350 . S
C200 C199 1.434 . S
C201 C202 1.369 . S
C201 C203 1.419 . S
C201 H205 0.930 . S
C202 C201 1.369 . S
C202 C211 1.429 . S
C203 C201 1.419 . S
C203 C204 1.350 1_545 S
C203 H206 0.929 . S
C204 C203 1.350 1_565 S
C204 C210 1.425 1_565 S
H205 C201 0.930 . S
H206 C203 0.929 . S
S207 N208 1.613 . S
S207 N209 1.610 1_545 S
N208 S207 1.613 . S
N208 C211 1.350 . S
N209 S207 1.610 1_565 S
N209 C210 1.351 1_565 S
C210 C204 1.425 1_545 S
C210 N209 1.351 1_545 S
C210 C211 1.434 . S
C211 C202 1.429 . S
C211 N208 1.350 . S
C211 C210 1.434 . S
C212 C213 1.368 1_565 S
C212 C214 1.419 . S
C212 H216 0.930 1_565 S
C213 C212 1.368 1_545 S
C213 C222 1.425 1_545 S
C214 C212 1.419 . S
C214 C215 1.363 . S
C214 H217 0.929 . S
C215 C214 1.363 . S
C215 C221 1.428 . S
H216 C212 0.930 1_545 S
H217 C214 0.929 . S
S218 N219 1.613 . S
S218 N220 1.610 . S
N219 S218 1.613 . S
N219 C222 1.350 . S
N220 S218 1.610 . S
N220 C221 1.351 . S
C221 C215 1.428 . S
C221 N220 1.351 . S
C221 C222 1.434 . S
C222 C213 1.425 1_565 S
C222 N219 1.350 . S
C222 C221 1.434 . S
C223 C224 1.369 . S
C223 C225 1.419 . S
C223 H227 0.930 . S
C224 C223 1.369 . S
C224 C233 1.429 . S
C225 C223 1.419 . S
C225 C226 1.363 . S
C225 H228 0.929 . S
C226 C225 1.363 . S
C226 C232 1.428 . S
H227 C223 0.930 . S
H228 C225 0.929 . S
S229 N230 1.613 . S
S229 N231 1.610 . S
N230 S229 1.613 . S
N230 C233 1.350 . S
N231 S229 1.610 . S
N231 C232 1.351 . S
C232 C226 1.428 . S
C232 N231 1.351 . S
C232 C233 1.434 . S
C233 C224 1.429 . S
C233 N230 1.350 . S
C233 C232 1.434 . S
C234 C235 1.369 . S
C234 C236 1.419 . S
C234 H238 0.930 . S
C235 C234 1.369 . S
C235 C244 1.429 . S
C236 C234 1.419 . S
C236 C237 1.363 . S
C236 H239 0.929 . S
C237 C236 1.363 . S
C237 C243 1.428 . S
H238 C234 0.930 . S
H239 C236 0.929 . S
S240 N241 1.613 . S
S240 N242 1.610 . S
N241 S240 1.613 . S
N241 C244 1.350 . S
N242 S240 1.610 . S
N242 C243 1.351 . S
C243 C237 1.428 . S
C243 N242 1.351 . S
C243 C244 1.434 . S
C244 C235 1.429 . S
C244 N241 1.350 . S
C244 C243 1.434 . S
C245 C246 1.369 1_565 S
C245 C247 1.419 . S
C245 H249 0.930 . S
C246 C245 1.369 1_545 S
C246 C255 1.429 1_545 S
C247 C245 1.419 . S
C247 C248 1.363 . S
C247 H250 0.929 . S
C248 C247 1.363 . S
C248 C254 1.428 . S
H249 C245 0.930 . S
H250 C247 0.929 . S
S251 N252 1.613 1_565 S
S251 N253 1.610 . S
N252 S251 1.613 1_545 S
N252 C255 1.350 1_545 S
N253 S251 1.610 . S
N253 C254 1.351 . S
C254 C248 1.428 . S
C254 N253 1.351 . S
C254 C255 1.434 . S
C255 C246 1.429 1_565 S
C255 N252 1.350 1_565 S
C255 C254 1.434 . S
C256 C257 1.369 . S
C256 C258 1.419 . S
C256 H260 0.930 . S
C257 C256 1.369 . S
C257 C266 1.429 . S
C258 C256 1.419 . S
C258 C259 1.363 . S
C258 H261 0.929 . S
C259 C258 1.363 . S
C259 C265 1.428 . S
H260 C256 0.930 . S
H261 C258 0.929 . S
S262 N263 1.613 . S
S262 N264 1.610 . S
N263 S262 1.613 . S
N263 C266 1.350 . S
N264 S262 1.610 . S
N264 C265 1.351 . S
C265 C259 1.428 . S
C265 N264 1.351 . S
C265 C266 1.434 . S
C266 C257 1.429 . S
C266 N263 1.350 . S
C266 C265 1.434 . S
C267 C268 1.369 1_455 S
C267 C269 1.419 1_554 S
C267 H271 0.930 . S
C268 C267 1.369 1_655 S
C268 C277 1.429 1_565 S
C269 C267 1.419 1_556 S
C269 C270 1.363 1_565 S
C269 H272 0.929 . S
C270 C269 1.363 1_545 S
C270 C276 1.428 1_455 S
H271 C267 0.930 . S
H272 C269 0.929 . S
S273 N274 1.613 . S
S273 N275 1.610 1_554 S
N274 S273 1.613 . S
N274 C277 1.350 . S
N275 S273 1.610 1_556 S
N275 C276 1.351 . S
C276 C270 1.428 1_655 S
C276 N275 1.351 . S
C276 C277 1.434 1_556 S
C277 C268 1.429 1_545 S
C277 N274 1.350 . S
C277 C276 1.434 1_554 S
C278 C279 1.369 1_455 S
C278 C280 1.419 . S
C278 H282 0.930 . S
C279 C278 1.369 1_655 S
C279 C288 1.429 1_545 S
C280 C278 1.419 . S
C280 C281 1.363 1_545 S
C280 H283 0.929 . S
C281 C280 1.363 1_565 S
C281 C287 1.428 1_455 S
H282 C278 0.930 . S
H283 C280 0.929 . S
S284 N285 1.613 . S
S284 N286 1.610 . S
N285 S284 1.613 . S
N285 C288 1.350 . S
N286 S284 1.610 . S
N286 C287 1.351 . S
C287 C281 1.428 1_655 S
C287 N286 1.351 . S
C287 C288 1.434 . S
C288 C279 1.429 1_565 S
C288 N285 1.350 . S
C288 C287 1.434 . S
C289 C290 1.369 1_554 S
C289 C291 1.419 . S
C289 H293 0.930 . S
C290 C289 1.369 1_556 S
C290 C299 1.429 . S
C291 C289 1.419 . S
C291 C292 1.363 . S
C291 H294 0.929 . S
C292 C291 1.363 . S
C292 C298 1.428 1_554 S
H293 C289 0.930 . S
H294 C291 0.929 . S
S295 N296 1.613 . S
S295 N297 1.610 . S
N296 S295 1.613 . S
N296 C299 1.350 . S
N297 S295 1.610 . S
N297 C298 1.351 . S
C298 C292 1.428 1_556 S
C298 N297 1.351 . S
C298 C299 1.434 . S
C299 C290 1.429 . S
C299 N296 1.350 . S
C299 C298 1.434 . S
C300 C301 1.369 . S
C300 C302 1.419 . S
C300 H304 0.930 . S
C301 C300 1.369 . S
C301 C310 1.429 . S
C302 C300 1.419 . S
C302 C303 1.363 . S
C302 H305 0.929 . S
C303 C302 1.363 . S
C303 C309 1.428 . S
H304 C300 0.930 . S
H305 C302 0.929 . S
S306 N307 1.613 . S
S306 N308 1.610 . S
N307 S306 1.613 . S
N307 C310 1.350 . S
N308 S306 1.610 . S
N308 C309 1.351 . S
C309 C303 1.428 . S
C309 N308 1.351 . S
C309 C310 1.434 . S
C310 C301 1.429 . S
C310 N307 1.350 . S
C310 C309 1.434 . S
C311 C312 1.369 . S
C311 C313 1.419 . S
C311 H315 0.930 . S
C312 C311 1.369 . S
C312 C321 1.429 1_455 S
C313 C311 1.419 . S
C313 C314 1.363 1_455 S
C313 H316 0.929 . S
C314 C313 1.363 1_655 S
C314 C320 1.428 . S
H315 C311 0.930 . S
H316 C313 0.929 . S
S317 N318 1.613 . S
S317 N319 1.610 . S
N318 S317 1.613 . S
N318 C321 1.350 . S
N319 S317 1.610 . S
N319 C320 1.351 . S
C320 C314 1.428 . S
C320 N319 1.351 . S
C320 C321 1.434 . S
C321 C312 1.429 1_655 S
C321 N318 1.350 . S
C321 C320 1.434 . S
C322 C323 1.369 . S
C322 C324 1.419 . S
C322 H326 0.930 . S
C323 C322 1.369 . S
C323 C332 1.429 . S
C324 C322 1.419 . S
C324 C325 1.363 . S
C324 H327 0.929 . S
C325 C324 1.363 . S
C325 C331 1.428 . S
H326 C322 0.930 . S
H327 C324 0.929 . S
S328 N329 1.613 . S
S328 N330 1.610 . S
N329 S328 1.613 . S
N329 C332 1.350 . S
N330 S328 1.610 . S
N330 C331 1.351 . S
C331 C325 1.428 . S
C331 N330 1.351 . S
C331 C332 1.434 . S
C332 C323 1.429 . S
C332 N329 1.350 . S
C332 C331 1.434 . S
C333 C334 1.369 . S
C333 C335 1.419 . S
C333 H337 0.930 . S
C334 C333 1.369 . S
C334 C343 1.429 1_655 S
C335 C333 1.419 . S
C335 C336 1.363 1_655 S
C335 H338 0.929 . S
C336 C335 1.363 1_455 S
C336 C342 1.428 . S
H337 C333 0.930 . S
H338 C335 0.929 . S
S339 N340 1.613 . S
S339 N341 1.610 . S
N340 S339 1.613 . S
N340 C343 1.350 . S
N341 S339 1.610 . S
N341 C342 1.351 . S
C342 C336 1.428 . S
C342 N341 1.351 . S
C342 C343 1.434 . S
C343 C334 1.429 1_455 S
C343 N340 1.350 . S
C343 C342 1.434 . S
C344 C345 1.369 . S
C344 C346 1.419 . S
C344 H348 0.930 . S
C345 C344 1.369 . S
C345 C354 1.429 . S
C346 C344 1.419 . S
C346 C347 1.363 . S
C346 H349 0.929 . S
C347 C346 1.363 . S
C347 C353 1.428 . S
H348 C344 0.930 . S
H349 C346 0.929 . S
S350 N351 1.613 . S
S350 N352 1.610 . S
N351 S350 1.613 . S
N351 C354 1.350 . S
N352 S350 1.610 . S
N352 C353 1.351 . S
C353 C347 1.428 . S
C353 N352 1.351 . S
C353 C354 1.434 . S
C354 C345 1.429 . S
C354 N351 1.350 . S
C354 C353 1.434 . S
C355 C356 1.369 . S
C355 C357 1.419 . S
C355 H359 0.930 . S
C356 C355 1.369 . S
C356 C365 1.429 . S
C357 C355 1.419 . S
C357 C358 1.363 1_556 S
C357 H360 0.929 . S
C358 C357 1.363 1_554 S
C358 C364 1.428 . S
H359 C355 0.930 . S
H360 C357 0.929 . S
S361 N362 1.613 . S
S361 N363 1.610 . S
N362 S361 1.613 . S
N362 C365 1.350 1_554 S
N363 S361 1.610 . S
N363 C364 1.351 . S
C364 C358 1.428 . S
C364 N363 1.351 . S
C364 C365 1.434 1_554 S
C365 C356 1.429 . S
C365 N362 1.350 1_556 S
C365 C364 1.434 1_556 S
C366 C367 1.369 . S
C366 C368 1.419 . S
C366 H370 0.930 . S
C367 C366 1.369 . S
C367 C376 1.429 . S
C368 C366 1.419 . S
C368 C369 1.363 . S
C368 H371 0.929 . S
C369 C368 1.363 . S
C369 C375 1.428 . S
H370 C366 0.930 . S
H371 C368 0.929 . S
S372 N373 1.613 . S
S372 N374 1.610 . S
N373 S372 1.613 . S
N373 C376 1.350 . S
N374 S372 1.610 . S
N374 C375 1.351 . S
C375 C369 1.428 . S
C375 N374 1.351 . S
C375 C376 1.434 . S
C376 C367 1.429 . S
C376 N373 1.350 . S
C376 C375 1.434 . S
C377 C378 1.369 . S
C377 C379 1.419 . S
C377 H381 0.930 . S
C378 C377 1.369 . S
C378 C387 1.429 . S
C379 C377 1.419 . S
C379 C380 1.363 1_554 S
C379 H382 0.929 . S
C380 C379 1.363 1_556 S
C380 C386 1.428 . S
H381 C377 0.930 . S
H382 C379 0.929 . S
S383 N384 1.613 . S
S383 N385 1.610 . S
N384 S383 1.613 . S
N384 C387 1.350 1_556 S
N385 S383 1.610 . S
N385 C386 1.351 . S
C386 C380 1.428 . S
C386 N385 1.351 . S
C386 C387 1.434 1_556 S
C387 C378 1.429 . S
C387 N384 1.350 1_554 S
C387 C386 1.434 1_554 S
C388 C389 1.369 . S
C388 C390 1.419 . S
C388 H392 0.930 . S
C389 C388 1.369 . S
C389 C398 1.429 . S
C390 C388 1.419 . S
C390 C391 1.363 . S
C390 H393 0.929 . S
C391 C390 1.363 . S
C391 C397 1.428 . S
H392 C388 0.930 . S
H393 C390 0.929 . S
S394 N395 1.613 . S
S394 N396 1.610 . S
N395 S394 1.613 . S
N395 C398 1.350 . S
N396 S394 1.610 . S
N396 C397 1.351 . S
C397 C391 1.428 . S
C397 N396 1.351 . S
C397 C398 1.434 . S
C398 C389 1.429 . S
C398 N395 1.350 . S
C398 C397 1.434 . S
C399 C400 1.369 . S
C399 C401 1.419 1_554 S
C399 H403 0.930 . S
C400 C399 1.369 . S
C400 C409 1.429 . S
C401 C399 1.419 1_556 S
C401 C402 1.363 . S
C401 H404 0.929 . S
C402 C401 1.363 . S
C402 C408 1.428 1_556 S
H403 C399 0.930 . S
H404 C401 0.929 . S
S405 N406 1.613 . S
S405 N407 1.610 . S
N406 S405 1.613 . S
N406 C409 1.350 . S
N407 S405 1.610 . S
N407 C408 1.351 . S
C408 C402 1.428 1_554 S
C408 N407 1.351 . S
C408 C409 1.434 . S
C409 C400 1.429 . S
C409 N406 1.350 . S
C409 C408 1.434 . S
C410 C411 1.369 . S
C410 C412 1.419 . S
C410 H414 0.930 . S
C411 C410 1.369 . S
C411 C420 1.429 . S
C412 C410 1.419 . S
C412 C413 1.363 . S
C412 H415 0.929 . S
C413 C412 1.363 . S
C413 C419 1.428 . S
H414 C410 0.930 . S
H415 C412 0.929 . S
S416 N417 1.613 . S
S416 N418 1.610 . S
N417 S416 1.613 . S
N417 C420 1.350 . S
N418 S416 1.610 . S
N418 C419 1.351 . S
C419 C413 1.428 . S
C419 N418 1.351 . S
C419 C420 1.434 . S
C420 C411 1.429 . S
C420 N417 1.350 . S
C420 C419 1.434 . S
C421 C422 1.369 . S
C421 C423 1.419 1_554 S
C421 H425 0.930 . S
C422 C421 1.369 . S
C422 C431 1.429 1_554 S
C423 C421 1.419 1_556 S
C423 C424 1.363 . S
C423 H426 0.929 . S
C424 C423 1.363 . S
C424 C430 1.428 . S
H425 C421 0.930 . S
H426 C423 0.929 . S
S427 N428 1.613 . S
S427 N429 1.610 . S
N428 S427 1.613 . S
N428 C431 1.350 . S
N429 S427 1.610 . S
N429 C430 1.351 . S
C430 C424 1.428 . S
C430 N429 1.351 . S
C430 C431 1.434 . S
C431 C422 1.429 1_556 S
C431 N428 1.350 . S
C431 C430 1.434 . S
C169 C142 1.209 . S
C171 C3 1.454 . S
C180 C37 1.444 . S
C182 C163 1.208 . S
C191 C100 1.192 . S
C193 C58 1.449 . S
C202 C79 1.445 . S
C204 C121 1.211 . S
C213 C45 1.209 . S
C215 C87 1.453 . S
C224 C108 1.453 . S
C226 C66 1.194 . S
C235 C16 1.208 . S
C237 C129 1.444 . S
C246 C24 1.201 . S
C248 C150 1.445 . S
C257 C19 0.776 . S
C259 C103 0.792 . S
C268 C124 0.772 . S
C270 C41 0.794 . S
C279 C62 0.776 . S
C281 C145 0.792 . S
C290 C166 0.776 . S
C292 C83 0.791 . S
C301 C70 1.282 . S
C303 C4 1.282 . S
C312 C28 1.282 . S
C314 C49 1.282 . S
C323 C151 1.271 . S
C325 C88 1.270 . S
C334 C109 1.268 . S
C336 C130 1.272 . S
C345 C20 1.661 . S
C347 C46 1.573 . S
C356 C40 1.664 . S
C358 C67 1.569 . S
C367 C61 1.664 . S
C369 C7 1.574 . S
C378 C82 1.665 . S
C380 C25 1.574 . S
C389 C104 1.660 . S
C391 C133 1.565 . S
C400 C125 1.662 . S
C402 C154 1.573 . S
C411 C146 1.665 . S
C413 C91 1.572 . S
C422 C112 1.564 . S
C424 C167 1.660 . S
