# Generated by pormake.
# Topology irl, (4)-cn, num edge types: 1
# Building blocks:
#     Node 0, Type 0, BuildingBlock: ESEHIV_clean_sbu_0, # of connection points: 4
#     Node 1, Type 0, BuildingBlock: ESEHIV_clean_sbu_0, # of connection points: 4
#     Node 2, Type 0, BuildingBlock: ESEHIV_clean_sbu_0, # of connection points: 4
#     Node 3, Type 0, BuildingBlock: ESEHIV_clean_sbu_0, # of connection points: 4
#     Node 4, Type 0, BuildingBlock: ESEHIV_clean_sbu_0, # of connection points: 4
#     Node 5, Type 0, BuildingBlock: ESEHIV_clean_sbu_0, # of connection points: 4
#     Node 6, Type 0, BuildingBlock: ESEHIV_clean_sbu_0, # of connection points: 4
#     Node 7, Type 0, BuildingBlock: ESEHIV_clean_sbu_0, # of connection points: 4
#     Edge 8, Type (0, 0), BuildingBlock: UVAHIK_clean_linker_0, # of connection points: 2
#     Edge 9, Type (0, 0), BuildingBlock: UVAHIK_clean_linker_0, # of connection points: 2
#     Edge 10, Type (0, 0), BuildingBlock: UVAHIK_clean_linker_0, # of connection points: 2
#     Edge 11, Type (0, 0), BuildingBlock: UVAHIK_clean_linker_0, # of connection points: 2
#     Edge 12, Type (0, 0), BuildingBlock: UVAHIK_clean_linker_0, # of connection points: 2
#     Edge 13, Type (0, 0), BuildingBlock: UVAHIK_clean_linker_0, # of connection points: 2
#     Edge 14, Type (0, 0), BuildingBlock: UVAHIK_clean_linker_0, # of connection points: 2
#     Edge 15, Type (0, 0), BuildingBlock: UVAHIK_clean_linker_0, # of connection points: 2
#     Edge 16, Type (0, 0), BuildingBlock: UVAHIK_clean_linker_0, # of connection points: 2
#     Edge 17, Type (0, 0), BuildingBlock: UVAHIK_clean_linker_0, # of connection points: 2
#     Edge 18, Type (0, 0), BuildingBlock: UVAHIK_clean_linker_0, # of connection points: 2
#     Edge 19, Type (0, 0), BuildingBlock: UVAHIK_clean_linker_0, # of connection points: 2
#     Edge 20, Type (0, 0), BuildingBlock: UVAHIK_clean_linker_0, # of connection points: 2
#     Edge 21, Type (0, 0), BuildingBlock: UVAHIK_clean_linker_0, # of connection points: 2
#     Edge 22, Type (0, 0), BuildingBlock: UVAHIK_clean_linker_0, # of connection points: 2
#     Edge 23, Type (0, 0), BuildingBlock: UVAHIK_clean_linker_0, # of connection points: 2
# Relax obj value: 0.081
# Max RMSD: 0.129
# Mean RMSD: 0.129
data_MOF--net-irl--node1-ESEHIV_clean_sbu_0--edge1-UVAHIK_clean_linker_0
_symmetry_space_group_name_H-M    P1
_symmetry_Int_Tables_number       1
_symmetry_cell_setting            triclinic
loop_
_symmetry_equiv_pos_as_xyz
'x, y, z'
_cell_length_a     13.265696
_cell_length_b     83.920515
_cell_length_c     38.277955
_cell_angle_alpha  90.642174
_cell_angle_beta   89.786489
_cell_angle_gamma 90.049069
loop_
_atom_site_label
_atom_site_type_symbol
_atom_site_fract_x
_atom_site_fract_y
_atom_site_fract_z
_atom_type_partial_charge
Cu0 Cu 0.02111 0.1552 0.05327 0.0
N1 N 0.92801 0.13841 0.05124 0.0
N2 N 0.8882 0.11245 0.04992 0.0
C3 C 0.95904 0.12347 0.05755 0.0
C4 C 0.80836 0.12088 0.03839 0.0
C5 C 0.83306 0.13695 0.03933 0.0
O6 O 0.06893 0.15496 0.10124 0.0
C7 C 0.06572 0.15029 0.98671 0.0
O8 O 0.96911 0.15364 0.98721 0.0
H9 H 0.03521 0.12072 0.06551 0.0
H10 H 0.78714 0.1467 0.03029 0.0
N11 N 0.97646 0.17605 0.04457 0.0
N12 N -0.00497 0.20238 0.03778 0.0
C13 C 0.04183 0.18819 0.04051 0.0
C14 C 0.88426 0.18274 0.04407 0.0
C15 C 0.8956 0.19904 0.0401 0.0
C16 C -0.00025 0.15958 0.12225 0.0
O17 O 0.91276 0.16399 0.1093 0.0
H18 H 0.12283 0.18666 0.04104 0.0
H19 H 0.81418 0.17635 0.04749 0.0
O20 O 0.1145 0.15041 0.01536 0.0
H21 H 0.73825 0.1158 0.0291 0.0
H22 H 0.83553 0.20775 0.03935 0.0
Cu23 Cu 0.96619 0.90136 0.03886 0.0
N24 N 0.05841 0.91829 0.03681 0.0
N25 N 0.09899 0.94423 0.037 0.0
C26 C 0.0288 0.93322 0.04493 0.0
C27 C 0.17655 0.93586 0.02301 0.0
C28 C 0.15127 0.91981 0.02293 0.0
O29 O 0.88556 0.9056 0.08058 0.0
C30 C 0.96171 0.8954 0.96979 0.0
O31 O 0.04959 0.8898 0.97941 0.0
H32 H 0.95409 0.93599 0.0547 0.0
H33 H 0.19541 0.91009 0.01214 0.0
N34 N 0.01453 0.88059 0.04543 0.0
N35 N 6e-05 0.85401 0.04823 0.0
C36 C 0.95508 0.86783 0.03964 0.0
C37 C 0.10095 0.87474 0.05833 0.0
C38 C 0.09214 0.85829 0.06015 0.0
C39 C 0.94304 0.90778 0.10689 0.0
O40 O 0.04108 0.90684 0.10245 0.0
H41 H 0.87841 0.8688 0.03035 0.0
H42 H 0.1647 0.88189 0.06649 0.0
O43 O 0.90321 0.90142 0.99296 0.0
H44 H 0.24547 0.94097 0.01285 0.0
H45 H 0.14888 0.85018 0.06964 0.0
Cu46 Cu 0.02142 0.8951 0.5414 0.0
N47 N 0.92734 0.91173 0.54348 0.0
N48 N 0.88702 0.93766 0.54463 0.0
C49 C 0.95856 0.9267 0.53744 0.0
C50 C 0.80644 0.92918 0.55561 0.0
C51 C 0.83141 0.91312 0.55474 0.0
O52 O 0.06854 0.89552 0.49326 0.0
C53 C 0.06517 0.9006 0.60793 0.0
O54 O 0.96801 0.89768 0.60764 0.0
H55 H 0.0352 0.92951 0.52989 0.0
H56 H 0.78475 0.90333 0.56327 0.0
N57 N 0.97887 0.8741 0.5496 0.0
N58 N -0.00041 0.84765 0.55337 0.0
C59 C 0.04084 0.86165 0.54374 0.0
C60 C 0.8946 0.86784 0.56354 0.0
C61 C 0.90729 0.8515 0.56596 0.0
C62 C 4e-05 0.89036 0.47269 0.0
O63 O 0.91492 0.88528 0.48625 0.0
H64 H 0.1166 0.86299 0.53362 0.0
H65 H 0.82962 0.87465 0.572 0.0
O66 O 0.11439 0.89996 0.57925 0.0
H67 H 0.73552 0.93421 0.56439 0.0
H68 H 0.85291 0.84315 0.57629 0.0
Cu69 Cu 0.97121 0.14852 0.55574 0.0
N70 N 0.06351 0.13163 0.55739 0.0
N71 N 0.10356 0.10569 0.55707 0.0
C72 C 0.03388 0.11673 0.54911 0.0
C73 C 0.18084 0.11402 0.57123 0.0
C74 C 0.15587 0.13008 0.57139 0.0
O75 O 0.88961 0.14421 0.51453 0.0
C76 C 0.96749 0.15472 0.62476 0.0
O77 O 0.05502 0.1604 0.6147 0.0
H78 H 0.95931 0.11399 0.53934 0.0
H79 H 0.19972 0.13976 0.5824 0.0
N80 N 0.01909 0.16929 0.5487 0.0
N81 N 0.00371 0.19585 0.54579 0.0
C82 C 0.95777 0.18193 0.55309 0.0
C83 C 0.10781 0.17532 0.53797 0.0
C84 C 0.09845 0.19175 0.5361 0.0
C85 C 0.9467 0.14219 0.48793 0.0
O86 O 0.04475 0.14334 0.49189 0.0
H87 H 0.87959 0.18077 0.56081 0.0
H88 H 0.17396 0.16831 0.5317 0.0
O89 O 0.909 0.14854 0.60191 0.0
H90 H 0.24921 0.10888 0.58151 0.0
H91 H 0.15699 0.2 0.52837 0.0
Cu92 Cu 0.51742 0.65471 0.05679 0.0
N93 N 0.42412 0.63793 0.05641 0.0
N94 N 0.38366 0.61199 0.05569 0.0
C95 C 0.45741 0.6229 0.05982 0.0
C96 C 0.29954 0.62058 0.04944 0.0
C97 C 0.32469 0.63664 0.05005 0.0
O98 O 0.56779 0.65474 0.10444 0.0
C99 C 0.55759 0.64785 0.99021 0.0
O100 O 0.45939 0.64967 0.99136 0.0
H101 H 0.53615 0.62006 0.06361 0.0
H102 H 0.27493 0.64655 0.04508 0.0
N103 N 0.47316 0.67553 0.04809 0.0
N104 N 0.49206 0.70201 0.04371 0.0
C105 C 0.53354 0.68817 0.05409 0.0
C106 C 0.38975 0.68149 0.03321 0.0
C107 C 0.40127 0.69785 0.03046 0.0
C108 C 0.50167 0.66028 0.12562 0.0
O109 O 0.41616 0.66552 0.11294 0.0
H110 H 0.60858 0.68704 0.06476 0.0
H111 H 0.32638 0.67446 0.02427 0.0
O112 O 0.60844 0.64978 0.01817 0.0
H113 H 0.22559 0.61564 0.04436 0.0
H114 H 0.34722 0.70599 0.01936 0.0
Cu115 Cu 0.46917 0.40132 0.03517 0.0
N116 N 0.56063 0.41808 0.02944 0.0
N117 N 0.59849 0.44412 0.02809 0.0
C118 C 0.53967 0.43272 0.04219 0.0
C119 C 0.65979 0.43623 1.00553 0.0
C120 C 0.63585 0.42017 1.00627 0.0
O121 O 0.42196 0.40343 0.08341 0.0
C122 C 0.35405 0.39383 0.97499 0.0
O123 O 0.3474 0.37916 0.98629 0.0
H124 H 0.47564 0.4351 0.05905 0.0
H125 H 0.66563 0.41096 0.98917 0.0
N126 N 0.52087 0.38057 0.0308 0.0
N127 N 0.50972 0.35382 0.0306 0.0
C128 C 0.47047 0.36774 0.04258 0.0
C129 C 0.59672 0.37469 0.01122 0.0
C130 C 0.59036 0.35823 0.01115 0.0
C131 C 0.49602 0.40319 0.10464 0.0
O132 O 0.5873 0.40126 0.09183 0.0
H133 H 0.40078 0.36882 0.05713 0.0
H134 H 0.64909 0.38181 0.99633 0.0
O135 O 0.37623 0.40491 0.99667 0.0
H136 H 0.7144 0.44172 0.98838 0.0
H137 H 0.63905 0.35027 0.99647 0.0
Cu138 Cu 0.51331 0.39503 0.54928 0.0
N139 N 0.4185 0.4113 0.55587 0.0
N140 N 0.37723 0.43716 0.55986 0.0
C141 C 0.44206 0.42627 0.54665 0.0
C142 C 0.30908 0.42861 0.57815 0.0
C143 C 0.33484 0.41262 0.57569 0.0
O144 O 0.5594 0.39773 0.5011 0.0
C145 C 0.56208 0.39359 0.61722 0.0
O146 O 0.47112 0.38748 0.61583 0.0
H147 H 0.51092 0.42918 0.53286 0.0
H148 H 0.2991 0.40287 0.58923 0.0
N149 N 0.46997 0.37371 0.5511 0.0
N150 N 0.49036 0.3472 0.55057 0.0
C151 C 0.53506 0.36154 0.5469 0.0
C152 C 0.37997 0.36691 0.55756 0.0
C153 C 0.39249 0.35052 0.55741 0.0
C154 C 0.48523 0.3954 0.48041 0.0
O155 O 0.39713 0.39194 0.49419 0.0
H156 H 0.61479 0.36327 0.54219 0.0
H157 H 0.31081 0.37338 0.56251 0.0
O158 O 0.60436 0.39806 0.58891 0.0
H159 H 0.24757 0.43356 0.59341 0.0
H160 H 0.33409 0.34176 0.56191 0.0
Cu161 Cu 0.46926 0.64875 0.55846 0.0
N162 N 0.55837 0.63145 0.56048 0.0
N163 N 0.59482 0.60538 0.56089 0.0
C164 C 0.52395 0.61654 0.55521 0.0
C165 C 0.67793 0.61366 0.57047 0.0
C166 C 0.65519 0.6298 0.57017 0.0
O167 O 0.38632 0.64466 0.51742 0.0
C168 C 0.46998 0.6549 0.62726 0.0
O169 O 0.55911 0.6597 0.61666 0.0
H170 H 0.44628 0.61397 0.54866 0.0
H171 H 0.70463 0.63954 0.57741 0.0
N172 N 0.52041 0.6693 0.55103 0.0
N173 N 0.50839 0.6959 0.54775 0.0
C174 C 0.46306 0.68224 0.55743 0.0
C175 C 0.60585 0.67486 0.53654 0.0
C176 C 0.59857 0.69132 0.53445 0.0
C177 C 0.44197 0.64174 0.49082 0.0
O178 O 0.54033 0.64186 0.49455 0.0
H179 H 0.38726 0.68148 0.56783 0.0
H180 H 0.66762 0.6675 0.52738 0.0
O181 O 0.40824 0.64926 0.60479 0.0
H182 H 0.74955 0.60846 0.57751 0.0
H183 H 0.65488 0.69923 0.52372 0.0
C184 C 0.13234 0.97173 0.01633 0.0
C185 C 0.08662 0.96131 0.04017 0.0
C186 C 0.11229 0.98816 0.01785 0.0
C187 C 0.01204 1.02006 0.07681 0.0
H188 H 0.96749 0.04288 0.99073 0.0
C189 C 0.97113 0.08859 0.07401 0.0
C190 C 0.90194 0.09535 0.05068 0.0
C191 C 0.9917 0.07226 0.07309 0.0
C192 C 0.97878 0.03666 0.01504 0.0
H193 H 0.98746 0.96015 0.0852 0.0
H194 H 0.95179 0.98854 0.08764 0.0
H195 H 0.01089 1.0146 0.98847 0.0
H196 H 0.7986 0.09 0.00845 0.0
H197 H 0.83313 0.06135 0.00719 0.0
H198 H 0.9781 0.04197 0.10345 0.0
C199 C 0.00329 0.98414 0.06776 0.0
C200 C 0.00514 1.02048 0.01373 0.0
C201 C 0.02298 0.96778 0.06615 0.0
C202 C 0.85178 0.08521 0.02693 0.0
C203 C 0.87263 0.06881 0.02593 0.0
C204 C 0.98588 0.03622 0.07813 0.0
C205 C 0.04671 0.99456 0.04343 0.0
C206 C 0.02193 1.01194 0.04462 0.0
C207 C 0.9436 0.06213 0.04882 0.0
C208 C 0.96889 0.04477 0.04728 0.0
H209 H 0.18122 0.96715 0.99587 0.0
H210 H 0.1481 0.99585 0.99895 0.0
H211 H 0.02526 1.01396 0.10115 0.0
H212 H 0.01029 0.09598 0.09293 0.0
H213 H 0.04739 0.06763 0.09093 0.0
C214 C 0.97052 0.9615 0.5205 0.0
C215 C 0.90059 0.95476 0.54378 0.0
C216 C 0.99129 0.97783 0.52141 0.0
C217 C 0.97777 1.01342 0.57936 0.0
H218 H 0.02756 0.03602 0.4932 0.0
C219 C 0.13501 0.07817 0.57788 0.0
C220 C 0.09058 0.08862 0.55394 0.0
C221 C 0.11402 0.06177 0.57644 0.0
C222 C 0.0134 0.02995 0.51755 0.0
H223 H 0.79602 0.96011 0.58589 0.0
H224 H 0.83095 0.98878 0.58714 0.0
H225 H 0.97893 1.00807 0.49096 0.0
H226 H 0.99279 0.08985 0.50881 0.0
H227 H 0.95543 0.0615 0.50654 0.0
H228 H 0.01042 0.03547 0.60588 0.0
C229 C 0.87084 0.98131 0.56845 0.0
C230 C 0.98638 1.01383 0.51627 0.0
C231 C 0.84979 0.9649 0.56745 0.0
C232 C 0.02733 0.08219 0.52793 0.0
C233 C 0.00666 0.06587 0.52642 0.0
C234 C 0.00495 0.02958 0.58064 0.0
C235 C 0.94261 0.98797 0.54561 0.0
C236 C 0.96829 1.00532 0.54714 0.0
C237 C 0.04876 0.05543 0.55085 0.0
C238 C 0.02298 0.03807 0.54973 0.0
H239 H 0.0102 0.9541 0.50166 0.0
H240 H 0.04761 0.98244 0.50362 0.0
H241 H 0.9656 1.00723 0.60368 0.0
H242 H 0.18354 0.08273 0.59835 0.0
H243 H 0.14884 0.05407 0.59541 0.0
C244 C 0.33473 0.58479 0.03544 0.0
C245 C 0.39686 0.59487 0.05559 0.0
C246 C 0.35401 0.56835 0.03328 0.0
C247 C 0.49462 0.53571 0.07729 0.0
H248 H 0.46884 0.51404 0.98782 0.0
C249 C 0.53941 0.46739 0.06288 0.0
C250 C 0.58488 0.46116 0.03239 0.0
C251 C 0.51724 0.48364 0.06604 0.0
C252 C 0.47745 0.51993 0.01295 0.0
H253 H 0.52523 0.59533 0.09051 0.0
H254 H 0.55991 0.56701 0.08622 0.0
H255 H 0.42544 0.54221 0.993 0.0
H256 H 0.64486 0.46743 0.98159 0.0
H257 H 0.60885 0.49585 0.98747 0.0
H258 H 0.54939 0.51362 0.09705 0.0
C259 C 0.49587 0.57166 0.07217 0.0
C260 C 0.451 0.53606 0.01605 0.0
C261 C 0.47665 0.58802 0.07431 0.0
C262 C 0.61043 0.47176 1.00554 0.0
C263 C 0.58837 0.48806 0.00873 0.0
C264 C 0.52128 0.51962 0.07417 0.0
C265 C 0.43557 0.56158 0.05138 0.0
C266 C 0.45957 0.5442 0.04825 0.0
C267 C 0.54037 0.49421 0.03888 0.0
C268 C 0.51324 0.51148 0.04196 0.0
H269 H 0.27298 0.58965 0.02056 0.0
H270 H 0.30507 0.56094 0.01737 0.0
H271 H 0.5012 0.54147 0.10263 0.0
H272 H 0.51977 0.45966 0.0843 0.0
H273 H 0.47956 0.48782 0.08954 0.0
C274 C 0.44306 0.46121 0.53061 0.0
C275 C 0.38964 0.45429 0.55843 0.0
C276 C 0.46423 0.47753 0.5305 0.0
C277 C 0.48557 0.51282 0.58953 0.0
H278 H 0.48668 0.53587 0.50235 0.0
C279 C 0.63551 0.57785 0.57985 0.0
C280 C 0.5799 0.5883 0.55887 0.0
C281 C 0.61467 0.56143 0.57952 0.0
C282 C 0.48618 0.52969 0.52702 0.0
H283 H 0.31439 0.45941 0.60764 0.0
H284 H 0.34904 0.48802 0.60706 0.0
H285 H 0.43783 0.50795 0.50263 0.0
H286 H 0.46169 0.58946 0.51999 0.0
H287 H 0.42419 0.56117 0.51995 0.0
H288 H 0.53141 0.53474 0.61401 0.0
C289 C 0.37631 0.4807 0.58557 0.0
C290 C 0.45914 0.51356 0.52713 0.0
C291 C 0.35514 0.4643 0.58569 0.0
C292 C 0.50505 0.58185 0.53692 0.0
C293 C 0.4843 0.56552 0.53658 0.0
C294 C 0.51245 0.52899 0.58944 0.0
C295 C 0.43218 0.48751 0.55813 0.0
C296 C 0.4585 0.50487 0.55835 0.0
C297 C 0.53811 0.55506 0.55805 0.0
C298 C 0.51291 0.53767 0.55818 0.0
H299 H 0.46975 0.45394 0.50896 0.0
H300 H 0.50817 0.48223 0.50906 0.0
H301 H 0.48729 0.5065 0.61403 0.0
H302 H 0.69331 0.5824 0.59717 0.0
H303 H 0.65864 0.55373 0.59608 0.0
C304 C 0.95003 0.1692 0.18112 0.0
C305 C 0.00883 0.15879 0.16057 0.0
C306 C 0.93985 0.16691 0.21693 0.0
C307 C 0.94727 0.1352 0.28176 0.0
H308 H 0.93428 0.17042 0.34808 0.0
C309 C 0.9574 0.12834 0.43112 0.0
C310 C 0.90906 0.13978 0.45226 0.0
C311 C 0.95279 0.12925 0.39482 0.0
C312 C 0.93549 0.16047 0.3298 0.0
H313 H 0.10683 0.13819 0.16148 0.0
H314 H 0.0898 0.13418 0.22475 0.0
H315 H 0.97605 0.17553 0.28727 0.0
H316 H 0.81169 0.16043 0.45252 0.0
H317 H 0.80176 0.16195 0.38864 0.0
H318 H 0.90754 0.12013 0.3245 0.0
C319 C 0.05088 0.14406 0.21288 0.0
C320 C 0.96044 0.16339 0.29498 0.0
C321 C 0.06183 0.14647 0.17683 0.0
C322 C 0.8482 0.15132 0.43668 0.0
C323 C 0.8441 0.15233 0.40018 0.0
C324 C 0.92223 0.13227 0.31666 0.0
C325 C 0.98781 0.15407 0.23313 0.0
C326 C 0.96684 0.1508 0.27055 0.0
C327 C 0.90047 0.14175 0.37893 0.0
C328 C 0.91631 0.14488 0.34112 0.0
H329 H 0.90825 0.1788 0.16922 0.0
H330 H 0.89019 0.17477 0.23159 0.0
H331 H 0.94963 0.12527 0.26345 0.0
H332 H 0.00575 0.11944 0.44269 0.0
H333 H -0.00255 0.12095 0.3794 0.0
C334 C 0.05957 0.90371 0.41783 0.0
C335 C 0.00736 0.89131 0.4343 0.0
C336 C 0.04785 0.90614 0.38185 0.0
C337 C 0.95693 0.88669 0.30012 0.0
H338 H 0.90485 0.92992 0.27043 0.0
C339 C 0.84503 0.89861 0.15855 0.0
C340 C 0.90598 0.91015 0.14276 0.0
C341 C 0.84105 0.89763 0.19508 0.0
C342 C 0.9193 0.91778 0.27832 0.0
H343 H 0.9072 0.8712 0.42601 0.0
H344 H 0.8876 0.87531 0.36379 0.0
H345 H 0.94671 0.92485 0.33142 0.0
H346 H 0.00297 0.93049 0.15201 0.0
H347 H -0.00511 0.929 0.21532 0.0
H348 H 0.93075 0.87959 0.24713 0.0
C349 C 0.93732 0.8832 0.37824 0.0
C350 C 0.94419 0.9149 0.31318 0.0
C351 C 0.94834 0.88088 0.41398 0.0
C352 C 0.95459 0.92159 0.16374 0.0
C353 C 0.95008 0.9207 0.20005 0.0
C354 C 0.93208 0.88956 0.26534 0.0
C355 C 0.98473 0.89609 0.36185 0.0
C356 C 0.9635 0.89931 0.32446 0.0
C357 C 0.89758 0.90821 0.21614 0.0
C358 C 0.91324 0.90514 0.25394 0.0
H359 H 0.10482 0.912 0.43298 0.0
H360 H 0.0864 0.91606 0.36982 0.0
H361 H 0.97239 0.87456 0.30786 0.0
H362 H 0.80828 0.88951 0.14284 0.0
H363 H 0.79857 0.88802 0.20676 0.0
C364 C 0.08217 0.91774 0.65984 0.0
C365 C 0.11098 0.90375 0.64204 0.0
C366 C 0.07741 0.91812 0.69634 0.0
C367 C 0.01451 0.88961 0.7635 0.0
H368 H 0.06148 0.92437 0.82897 0.0
C369 C 0.97119 0.88282 0.91149 0.0
C370 C 0.94125 0.89591 0.9321 0.0
C371 C 0.98292 0.88429 0.87551 0.0
C372 C 0.04618 0.91468 0.81084 0.0
H373 H 0.16577 0.8797 0.648 0.0
H374 H 0.16036 0.88043 0.71187 0.0
H375 H 0.1221 0.92645 0.76872 0.0
H376 H 0.89474 0.9206 0.93134 0.0
H377 H 0.91349 0.9232 0.86774 0.0
H378 H 0.93734 0.87791 0.80507 0.0
C379 C 0.14051 0.89107 0.69772 0.0
C380 C 0.08198 0.91581 0.77646 0.0
C381 C 0.14571 0.89074 0.66121 0.0
C382 C 0.91622 0.91026 0.91584 0.0
C383 C 0.92876 0.9118 0.87959 0.0
C384 C 0.97822 0.88853 0.79765 0.0
C385 C 0.10033 0.90442 0.71549 0.0
C386 C 0.06761 0.90318 0.75255 0.0
C387 C 0.96564 0.89896 0.85923 0.0
C388 C -0.00546 0.90095 0.82191 0.0
H389 H 0.05249 0.92775 0.64551 0.0
H390 H 0.04604 0.92856 0.7092 0.0
H391 H -0.00071 0.87988 0.74543 0.0
H392 H 0.99205 0.87168 0.92357 0.0
H393 H 0.01224 0.87418 0.86087 0.0
C394 C 0.14736 0.15984 0.93316 0.0
C395 C 0.11128 0.14696 0.95255 0.0
C396 C 0.14287 0.15939 0.89667 0.0
C397 C 0.08359 0.13451 0.81836 0.0
H398 H 0.94305 0.17261 0.78925 0.0
C399 C 0.92056 0.14005 0.67899 0.0
C400 C 0.94743 0.1543 0.66253 0.0
C401 C 0.93251 0.13856 0.71523 0.0
C402 C 0.98278 0.16193 0.79681 0.0
H403 H 0.05086 0.12305 0.94952 0.0
H404 H 0.04541 0.12204 0.88584 0.0
H405 H 0.0036 0.17069 0.8489 0.0
H406 H 0.00086 0.17841 0.67073 0.0
H407 H 0.02012 0.176 0.73342 0.0
H408 H 0.0633 0.12583 0.76597 0.0
C409 C 0.07744 0.13246 0.89852 0.0
C410 C 0.01829 0.16088 0.83097 0.0
C411 C 0.08159 0.13296 0.935 0.0
C412 C 0.9787 0.16735 0.68295 0.0
C413 C 0.98983 0.16594 0.71893 0.0
C414 C 0.04857 0.13561 0.78398 0.0
C415 C 0.10189 0.14606 0.87913 0.0
C416 C 0.06994 0.14723 0.84209 0.0
C417 C 0.97057 0.15136 0.7354 0.0
C418 C -0.00154 0.1494 0.77273 0.0
H419 H 0.16815 0.17089 0.94618 0.0
H420 H 0.16391 0.16995 0.88233 0.0
H421 H 0.12259 0.12381 0.82624 0.0
H422 H 0.89793 0.12974 0.66364 0.0
H423 H 0.91574 0.12724 0.72725 0.0
C424 C 0.55921 0.64649 0.17994 0.0
C425 C 0.51131 0.65938 0.16391 0.0
C426 C 0.5474 0.64407 0.21595 0.0
C427 C 0.46427 0.66386 0.2985 0.0
H428 H 0.39437 0.62102 0.32685 0.0
C429 C 0.347 0.65209 0.4399 0.0
C430 C 0.40305 0.63986 0.45516 0.0
C431 C 0.34347 0.65336 0.40343 0.0
C432 C 0.41385 0.63305 0.31935 0.0
H433 H 0.41933 0.68037 0.17297 0.0
H434 H 0.39983 0.6763 0.2353 0.0
H435 H 0.43875 0.62609 0.26597 0.0
H436 H 0.49132 0.61864 0.44498 0.0
H437 H 0.48384 0.62061 0.38176 0.0
H438 H 0.44058 0.67083 0.35178 0.0
C439 C 0.44614 0.66801 0.22048 0.0
C440 C 0.44018 0.63592 0.28454 0.0
C441 C 0.45716 0.67032 0.18469 0.0
C442 C 0.44664 0.62807 0.43368 0.0
C443 C 0.44256 0.62925 0.39741 0.0
C444 C 0.43802 0.66099 0.33324 0.0
C445 C 0.48856 0.65462 0.23641 0.0
C446 C 0.46592 0.65136 0.27374 0.0
C447 C 0.39554 0.64236 0.38187 0.0
C448 C 0.41275 0.64555 0.34415 0.0
H449 H 0.60054 0.6378 0.16442 0.0
H450 H 0.58214 0.63375 0.22761 0.0
H451 H 0.48463 0.67586 0.29112 0.0
H452 H 0.31427 0.66146 0.45599 0.0
H453 H 0.30515 0.66346 0.39218 0.0
C454 C 0.40914 0.39178 0.42158 0.0
C455 C 0.49268 0.3965 0.44178 0.0
C456 C 0.41015 0.39312 0.38538 0.0
C457 C 0.53184 0.4143 0.31279 0.0
H458 H 0.40673 0.38093 0.25688 0.0
C459 C 0.56759 0.41022 0.16269 0.0
C460 C 0.48433 0.40502 0.14297 0.0
C461 C 0.56422 0.41042 0.1991 0.0
C462 C 0.44045 0.39047 0.27212 0.0
H463 H 0.64366 0.40627 0.43941 0.0
H464 H 0.64601 0.40854 0.37535 0.0
H465 H 0.41811 0.37804 0.31997 0.0
H466 H 0.33064 0.39646 0.14602 0.0
H467 H 0.32451 0.3967 0.21025 0.0
H468 H 0.55515 0.42664 0.26469 0.0
C469 C 0.57917 0.4039 0.38799 0.0
C470 C 0.4475 0.3888 0.30833 0.0
C471 C 0.57825 0.40251 0.42461 0.0
C472 C 0.3958 0.40055 0.16054 0.0
C473 C 0.39276 0.40057 0.19725 0.0
C474 C 0.52508 0.41596 0.27649 0.0
C475 C 0.49485 0.3992 0.36798 0.0
C476 C 0.49291 0.40071 0.32919 0.0
C477 C 0.47766 0.40529 0.21691 0.0
C478 C 0.47923 0.40406 0.25571 0.0
H479 H 0.34163 0.38709 0.43372 0.0
H480 H 0.34322 0.38965 0.37105 0.0
H481 H 0.5658 0.42382 0.32805 0.0
H482 H 0.63682 0.41386 0.14995 0.0
H483 H 0.63118 0.41399 0.21328 0.0
C484 C 0.39731 0.41163 0.92434 0.0
C485 C 0.37225 0.39643 0.93708 0.0
C486 C 0.43286 0.41345 0.89003 0.0
C487 C 0.56908 0.39103 0.8222 0.0
H488 H 0.46287 0.42141 0.75637 0.0
C489 C 0.61115 0.38311 0.67432 0.0
C490 C 0.60452 0.39628 0.65223 0.0
C491 C 0.6077 0.38513 0.71056 0.0
C492 C 0.49551 0.41312 0.77459 0.0
H493 H 0.36038 0.37138 0.92281 0.0
H494 H 0.42272 0.3746 0.86344 0.0
H495 H 0.39844 0.42117 0.81623 0.0
H496 H 0.59549 0.42197 0.6505 0.0
H497 H 0.59311 0.42568 0.71413 0.0
H498 H 0.66605 0.38291 0.78097 0.0
C499 C 0.41572 0.38506 0.8801 0.0
C500 C 0.45778 0.41292 0.80887 0.0
C501 C 0.379 0.38327 0.9141 0.0
C502 C 0.60343 0.41165 0.66702 0.0
C503 C 0.59973 0.41372 0.70347 0.0
C504 C 0.60775 0.39136 0.78818 0.0
C505 C 0.44536 0.40009 0.86794 0.0
C506 C 0.49204 0.40155 0.83269 0.0
C507 C 0.59674 0.40041 0.72566 0.0
C508 C 0.56935 0.40206 0.7635 0.0
H509 H 0.39341 0.42203 0.94129 0.0
H510 H 0.45478 0.42519 0.88129 0.0
H511 H 0.59854 0.38236 0.84025 0.0
H512 H 0.6093 0.37112 0.66351 0.0
H513 H 0.60456 0.37455 0.72645 0.0
C514 C 0.57031 0.63143 0.93702 0.0
C515 C 0.60269 0.64495 0.95576 0.0
C516 C 0.56891 0.63144 0.90054 0.0
C517 C 0.52556 0.661 0.83364 0.0
H518 H 0.55827 0.62564 0.76856 0.0
C519 C 0.48867 0.66757 0.68521 0.0
C520 C 0.45123 0.65481 0.66514 0.0
C521 C 0.50004 0.66618 0.7212 0.0
C522 C 0.54711 0.63553 0.78657 0.0
H523 H 0.66696 0.66852 0.95152 0.0
H524 H 0.66717 0.66847 0.88756 0.0
H525 H 0.61501 0.62297 0.82893 0.0
H526 H 0.39116 0.63086 0.6669 0.0
H527 H 0.40955 0.62841 0.73049 0.0
H528 H 0.45659 0.67352 0.79168 0.0
C529 C 0.64193 0.6579 0.90101 0.0
C530 C 0.58066 0.63406 0.82103 0.0
C531 C 0.64383 0.65782 0.93758 0.0
C532 C 0.41869 0.64095 0.68197 0.0
C533 C 0.43091 0.63948 0.7182 0.0
C534 C 0.49173 0.66245 0.79934 0.0
C535 C 0.59882 0.64508 0.88224 0.0
C536 C 0.57084 0.64682 0.8449 0.0
C537 C 0.47492 0.65192 0.73799 0.0
C538 C 0.50256 0.64979 0.77529 0.0
H539 H 0.53608 0.62152 0.95059 0.0
H540 H 0.53507 0.6214 0.88697 0.0
H541 H 0.51398 0.6709 0.8516 0.0
H542 H 0.51519 0.67833 0.6727 0.0
H543 H 0.53484 0.67595 0.73543 0.0
C544 C 0.38363 0.33531 0.05658 0.0
C545 C 0.46471 0.33806 0.03347 0.0
C546 C 0.33422 0.32056 0.05726 0.0
C547 C 0.29798 0.28337 1.00396 0.0
H548 H 0.17914 0.2677 0.08967 0.0
C549 C 0.13593 0.21942 0.01784 0.0
C550 C 0.0432 0.2178 0.0354 0.0
C551 C 0.18585 0.23413 0.01702 0.0
C552 C 0.21112 0.27198 0.06545 0.0
H553 H 0.55899 0.32665 0.99396 0.0
H554 H 0.47606 0.30094 0.99625 0.0
H555 H 0.27346 0.29264 0.09052 0.0
H556 H 0.93017 0.23044 0.06578 0.0
H557 H 0.01784 0.25616 0.06464 0.0
H558 H 0.23739 0.26241 0.97921 0.0
C559 C 0.44825 0.31043 0.01306 0.0
C560 C 0.26519 0.28635 0.06586 0.0
C561 C 0.49707 0.32526 0.01208 0.0
C562 C 0.00103 0.23132 0.05182 0.0
C563 C 0.05175 0.246 0.05144 0.0
C564 C 0.24499 0.26891 1.00367 0.0
C565 C 0.36495 0.30791 0.03527 0.0
C566 C 0.30925 0.29232 0.03508 0.0
C567 C 0.14502 0.24757 0.03414 0.0
C568 C 0.20056 0.26306 0.03438 0.0
H569 H 0.35672 0.34458 0.07405 0.0
H570 H 0.27007 0.31927 0.07456 0.0
H571 H 0.32861 0.28763 0.97953 0.0
H572 H 0.17 0.20927 1.00471 0.0
H573 H 0.25774 0.23488 1.00362 0.0
C574 C 0.51196 0.72959 0.02142 0.0
C575 C 0.53889 0.71762 0.04508 0.0
C576 C 0.56169 0.74437 0.02173 0.0
C577 C 0.72465 0.77058 0.07715 0.0
H578 H 0.79205 0.7903 0.989 0.0
C579 C 0.98454 0.8262 0.06949 0.0
C580 C 0.95525 0.83827 0.04644 0.0
C581 C 0.936 0.81132 0.069 0.0
C582 C 0.77307 0.78505 0.0139 0.0
H583 H 0.6374 0.71219 0.08847 0.0
H584 H 0.72478 0.73764 0.08855 0.0
H585 H 0.69989 0.76515 0.98924 0.0
H586 H 0.85431 0.8438 1.00382 0.0
H587 H 0.76934 0.81811 1.00328 0.0
H588 H 0.79798 0.79047 0.10179 0.0
C589 C 0.6649 0.73571 0.06982 0.0
C590 C 0.71985 0.77061 0.01403 0.0
C591 C 0.61538 0.72097 0.06949 0.0
C592 C 0.87802 0.83491 0.02232 0.0
C593 C 0.8299 0.82006 0.02173 0.0
C594 C 0.77799 0.78501 0.07701 0.0
C595 C 0.63941 0.7476 0.0458 0.0
C596 C 0.69477 0.76316 0.04566 0.0
C597 C 0.85742 0.80809 0.04527 0.0
C598 C 0.80286 0.79247 0.04539 0.0
H599 H 0.45395 0.72745 1.00214 0.0
H600 H 0.53893 0.75328 1.00312 0.0
H601 H 0.7055 0.76537 0.10206 0.0
H602 H 0.04326 0.82836 0.08851 0.0
H603 H 0.96017 0.80234 0.08724 0.0
C604 C 0.02063 0.82006 0.57531 0.0
C605 C 0.04758 0.83215 0.55186 0.0
C606 C 0.07129 0.80539 0.57486 0.0
C607 C 0.23559 0.77946 0.51926 0.0
H608 H 0.30483 0.75998 0.6073 0.0
C609 C 0.49335 0.72362 0.52594 0.0
C610 C 0.46494 0.71172 0.54964 0.0
C611 C 0.4456 0.73855 0.52651 0.0
C612 C 0.28531 0.76515 0.58243 0.0
H613 H 0.1471 0.83791 0.50871 0.0
H614 H 0.23584 0.81256 0.50827 0.0
H615 H 0.21202 0.78503 0.60723 0.0
H616 H 0.36657 0.70658 0.59349 0.0
H617 H 0.28269 0.73229 0.59406 0.0
H618 H 0.30851 0.75954 0.49446 0.0
C619 C 0.17536 0.81436 0.52698 0.0
C620 C 0.23179 0.77954 0.5824 0.0
C621 C 0.12505 0.82902 0.5275 0.0
C622 C 0.38953 0.71532 0.57447 0.0
C623 C 0.34207 0.7302 0.57507 0.0
C624 C 0.28902 0.76505 0.51929 0.0
C625 C 0.14985 0.80236 0.55082 0.0
C626 C 0.20598 0.7869 0.55082 0.0
C627 C 0.3686 0.742 0.55091 0.0
C628 C 0.31447 0.75766 0.55087 0.0
H629 H 0.96188 0.82205 0.59455 0.0
H630 H 0.04862 0.79637 0.59334 0.0
H631 H 0.21598 0.78463 0.49441 0.0
H632 H 0.55068 0.72128 0.50637 0.0
H633 H 0.46909 0.7474 0.50778 0.0
C634 C 0.50251 0.31881 0.56793 0.0
C635 C 0.53931 0.33179 0.54875 0.0
C636 C 0.55361 0.30418 0.56749 0.0
C637 C 0.74101 0.28034 0.51685 0.0
H638 H 0.7748 0.25787 0.60393 0.0
C639 C -0.00544 0.2241 0.52678 0.0
C640 C 0.95829 0.21155 0.54743 0.0
C641 C 0.9464 0.239 0.52722 0.0
C642 C 0.76523 0.26387 0.57926 0.0
H643 H 0.6571 0.33928 0.51307 0.0
H644 H 0.74619 0.31392 0.51251 0.0
H645 H 0.68173 0.28289 0.60342 0.0
H646 H 0.84471 0.20523 0.58582 0.0
H647 H 0.76006 0.23082 0.58591 0.0
H648 H 0.82372 0.26126 0.49261 0.0
C649 C 0.67784 0.31501 0.52791 0.0
C650 C 0.71164 0.27824 0.57899 0.0
C651 C 0.62721 0.32963 0.52853 0.0
C652 C 0.87408 0.21445 0.56908 0.0
C653 C 0.82606 0.22928 0.5695 0.0
C654 C 0.7943 0.26592 0.51709 0.0
C655 C 0.64234 0.3021 0.54761 0.0
C656 C 0.6986 0.28667 0.54778 0.0
C657 C 0.86093 0.24176 0.54842 0.0
C658 C 0.80698 0.25743 0.54829 0.0
H659 H 0.4355 0.32006 0.58393 0.0
H660 H 0.52339 0.29445 0.58267 0.0
H661 H 0.73152 0.28639 0.49224 0.0
H662 H 0.05884 0.22233 0.5097 0.0
H663 H 0.97639 0.24837 0.51096 0.0
loop_
_geom_bond_atom_site_label_1
_geom_bond_atom_site_label_2
_geom_bond_distance
_geom_bond_site_symmetry_2
_ccdc_geom_bond_type
Cu0 N1 1.999 . S
Cu0 O6 1.974 . S
Cu0 N11 1.985 . S
Cu0 O20 1.959 1_554 S
N1 Cu0 1.999 . S
N1 C3 1.263 . S
N1 C5 1.389 . S
N2 C3 1.358 . S
N2 C4 1.400 . S
C3 N1 1.263 . S
C3 N2 1.358 . S
C3 H9 0.930 . S
C4 N2 1.400 . S
C4 C5 1.351 . S
C4 H21 0.930 . S
C5 N1 1.389 . S
C5 C4 1.351 . S
C5 H10 0.930 1_554 S
O6 Cu0 1.974 . S
O6 C16 1.282 . S
C7 O8 1.261 1_455 S
C7 O20 1.251 . S
O8 C7 1.261 1_655 S
H9 C3 0.930 . S
H10 C5 0.930 1_556 S
N11 Cu0 1.985 . S
N11 C13 1.335 . S
N11 C14 1.390 . S
N12 C13 1.345 . S
N12 C15 1.336 . S
C13 N11 1.335 . S
C13 N12 1.345 . S
C13 H18 0.953 . S
C14 N11 1.390 . S
C14 C15 1.346 . S
C14 H19 0.930 . S
C15 N12 1.336 . S
C15 C14 1.346 . S
C15 H22 0.929 . S
C16 O6 1.282 . S
C16 O17 1.216 1_455 S
O17 C16 1.216 1_655 S
H18 C13 0.953 . S
H19 C14 0.930 . S
O20 Cu0 1.959 1_556 S
O20 C7 1.251 . S
H21 C4 0.930 . S
H22 C15 0.929 . S
Cu23 N24 1.999 . S
Cu23 O29 1.974 . S
Cu23 N34 1.985 . S
Cu23 O43 1.959 1_554 S
N24 Cu23 1.999 . S
N24 C26 1.263 . S
N24 C28 1.389 . S
N25 C26 1.358 . S
N25 C27 1.400 . S
C26 N24 1.263 . S
C26 N25 1.358 . S
C26 H32 0.930 . S
C27 N25 1.400 . S
C27 C28 1.351 . S
C27 H44 0.930 . S
C28 N24 1.389 . S
C28 C27 1.351 . S
C28 H33 0.930 1_554 S
O29 Cu23 1.974 . S
O29 C39 1.282 . S
C30 O31 1.261 1_655 S
C30 O43 1.251 . S
O31 C30 1.261 1_455 S
H32 C26 0.930 . S
H33 C28 0.930 1_556 S
N34 Cu23 1.985 . S
N34 C36 1.335 . S
N34 C37 1.390 . S
N35 C36 1.345 . S
N35 C38 1.336 . S
C36 N34 1.335 . S
C36 N35 1.345 . S
C36 H41 0.953 . S
C37 N34 1.390 . S
C37 C38 1.346 . S
C37 H42 0.930 . S
C38 N35 1.336 . S
C38 C37 1.346 . S
C38 H45 0.929 . S
C39 O29 1.282 . S
C39 O40 1.216 1_655 S
O40 C39 1.216 1_455 S
H41 C36 0.953 . S
H42 C37 0.930 . S
O43 Cu23 1.959 1_556 S
O43 C30 1.251 . S
H44 C27 0.930 . S
H45 C38 0.929 . S
Cu46 N47 1.999 . S
Cu46 O52 1.974 . S
Cu46 N57 1.985 . S
Cu46 O66 1.959 . S
N47 Cu46 1.999 . S
N47 C49 1.263 . S
N47 C51 1.389 . S
N48 C49 1.358 . S
N48 C50 1.400 . S
C49 N47 1.263 . S
C49 N48 1.358 . S
C49 H55 0.930 . S
C50 N48 1.400 . S
C50 C51 1.351 . S
C50 H67 0.930 . S
C51 N47 1.389 . S
C51 C50 1.351 . S
C51 H56 0.930 . S
O52 Cu46 1.974 . S
O52 C62 1.282 . S
C53 O54 1.261 1_455 S
C53 O66 1.251 . S
O54 C53 1.261 1_655 S
H55 C49 0.930 . S
H56 C51 0.930 . S
N57 Cu46 1.985 . S
N57 C59 1.335 . S
N57 C60 1.390 . S
N58 C59 1.345 . S
N58 C61 1.336 . S
C59 N57 1.335 . S
C59 N58 1.345 . S
C59 H64 0.930 . S
C60 N57 1.390 . S
C60 C61 1.346 . S
C60 H65 0.930 . S
C61 N58 1.336 . S
C61 C60 1.346 . S
C61 H68 0.929 . S
C62 O52 1.282 . S
C62 O63 1.216 1_455 S
O63 C62 1.216 1_655 S
H64 C59 0.930 . S
H65 C60 0.930 . S
O66 Cu46 1.959 . S
O66 C53 1.251 . S
H67 C50 0.930 . S
H68 C61 0.929 . S
Cu69 N70 1.999 . S
Cu69 O75 1.974 . S
Cu69 N80 1.985 . S
Cu69 O89 1.959 . S
N70 Cu69 1.999 . S
N70 C72 1.263 . S
N70 C74 1.389 . S
N71 C72 1.358 . S
N71 C73 1.400 . S
C72 N70 1.263 . S
C72 N71 1.358 . S
C72 H78 0.930 . S
C73 N71 1.400 . S
C73 C74 1.351 . S
C73 H90 0.930 . S
C74 N70 1.389 . S
C74 C73 1.351 . S
C74 H79 0.930 . S
O75 Cu69 1.974 . S
O75 C85 1.282 . S
C76 O77 1.261 1_655 S
C76 O89 1.251 . S
O77 C76 1.261 1_455 S
H78 C72 0.930 . S
H79 C74 0.930 . S
N80 Cu69 1.985 . S
N80 C82 1.335 . S
N80 C83 1.390 . S
N81 C82 1.345 . S
N81 C84 1.336 . S
C82 N80 1.335 . S
C82 N81 1.345 . S
C82 H87 0.930 . S
C83 N80 1.390 . S
C83 C84 1.346 . S
C83 H88 0.930 . S
C84 N81 1.336 . S
C84 C83 1.346 . S
C84 H91 0.929 . S
C85 O75 1.282 . S
C85 O86 1.216 1_655 S
O86 C85 1.216 1_455 S
H87 C82 0.930 . S
H88 C83 0.930 . S
O89 Cu69 1.959 . S
O89 C76 1.251 . S
H90 C73 0.930 . S
H91 C84 0.929 . S
Cu92 N93 1.999 . S
Cu92 O98 1.974 . S
Cu92 N103 1.985 . S
Cu92 O112 1.959 1_554 S
N93 Cu92 1.999 . S
N93 C95 1.263 . S
N93 C97 1.389 . S
N94 C95 1.358 . S
N94 C96 1.400 . S
C95 N93 1.263 . S
C95 N94 1.358 . S
C95 H101 0.930 . S
C96 N94 1.400 . S
C96 C97 1.351 . S
C96 H113 0.930 . S
C97 N93 1.389 . S
C97 C96 1.351 . S
C97 H102 0.930 1_554 S
O98 Cu92 1.974 . S
O98 C108 1.282 . S
C99 O100 1.261 . S
C99 O112 1.251 . S
O100 C99 1.261 . S
H101 C95 0.930 . S
H102 C97 0.930 1_556 S
N103 Cu92 1.985 . S
N103 C105 1.335 . S
N103 C106 1.390 . S
N104 C105 1.345 . S
N104 C107 1.336 . S
C105 N103 1.335 . S
C105 N104 1.345 . S
C105 H110 0.953 . S
C106 N103 1.390 . S
C106 C107 1.346 . S
C106 H111 0.930 . S
C107 N104 1.336 . S
C107 C106 1.346 . S
C107 H114 0.929 . S
C108 O98 1.282 . S
C108 O109 1.216 . S
O109 C108 1.216 . S
H110 C105 0.953 . S
H111 C106 0.930 . S
O112 Cu92 1.959 1_556 S
O112 C99 1.251 . S
H113 C96 0.930 . S
H114 C107 0.929 . S
Cu115 N116 1.999 . S
Cu115 O121 1.974 . S
Cu115 N126 1.985 . S
Cu115 O135 1.959 1_554 S
N116 Cu115 1.999 . S
N116 C118 1.263 . S
N116 C120 1.389 . S
N117 C118 1.358 . S
N117 C119 1.400 . S
C118 N116 1.263 . S
C118 N117 1.358 . S
C118 H124 0.930 . S
C119 N117 1.400 . S
C119 C120 1.351 . S
C119 H136 0.930 . S
C120 N116 1.389 . S
C120 C119 1.351 . S
C120 H125 0.930 1_554 S
O121 Cu115 1.974 . S
O121 C131 1.282 . S
C122 O123 1.261 . S
C122 O135 1.251 . S
O123 C122 1.261 . S
H124 C118 0.930 . S
H125 C120 0.930 1_556 S
N126 Cu115 1.985 . S
N126 C128 1.335 . S
N126 C129 1.390 . S
N127 C128 1.345 . S
N127 C130 1.336 . S
C128 N126 1.335 . S
C128 N127 1.345 . S
C128 H133 0.953 . S
C129 N126 1.390 . S
C129 C130 1.346 . S
C129 H134 0.930 . S
C130 N127 1.336 . S
C130 C129 1.346 . S
C130 H137 0.929 . S
C131 O121 1.282 . S
C131 O132 1.216 . S
O132 C131 1.216 . S
H133 C128 0.953 . S
H134 C129 0.930 . S
O135 Cu115 1.959 1_556 S
O135 C122 1.251 . S
H136 C119 0.930 . S
H137 C130 0.929 . S
Cu138 N139 1.999 . S
Cu138 O144 1.974 . S
Cu138 N149 1.985 . S
Cu138 O158 1.959 . S
N139 Cu138 1.999 . S
N139 C141 1.263 . S
N139 C143 1.389 . S
N140 C141 1.358 . S
N140 C142 1.400 . S
C141 N139 1.263 . S
C141 N140 1.358 . S
C141 H147 0.930 . S
C142 N140 1.400 . S
C142 C143 1.351 . S
C142 H159 0.930 . S
C143 N139 1.389 . S
C143 C142 1.351 . S
C143 H148 0.930 . S
O144 Cu138 1.974 . S
O144 C154 1.282 . S
C145 O146 1.261 . S
C145 O158 1.251 . S
O146 C145 1.261 . S
H147 C141 0.930 . S
H148 C143 0.930 . S
N149 Cu138 1.985 . S
N149 C151 1.335 . S
N149 C152 1.390 . S
N150 C151 1.345 . S
N150 C153 1.336 . S
C151 N149 1.335 . S
C151 N150 1.345 . S
C151 H156 0.930 . S
C152 N149 1.390 . S
C152 C153 1.346 . S
C152 H157 0.930 . S
C153 N150 1.336 . S
C153 C152 1.346 . S
C153 H160 0.929 . S
C154 O144 1.282 . S
C154 O155 1.216 . S
O155 C154 1.216 . S
H156 C151 0.930 . S
H157 C152 0.930 . S
O158 Cu138 1.959 . S
O158 C145 1.251 . S
H159 C142 0.930 . S
H160 C153 0.929 . S
Cu161 N162 1.999 . S
Cu161 O167 1.974 . S
Cu161 N172 1.985 . S
Cu161 O181 1.959 . S
N162 Cu161 1.999 . S
N162 C164 1.263 . S
N162 C166 1.389 . S
N163 C164 1.358 . S
N163 C165 1.400 . S
C164 N162 1.263 . S
C164 N163 1.358 . S
C164 H170 0.930 . S
C165 N163 1.400 . S
C165 C166 1.351 . S
C165 H182 0.930 . S
C166 N162 1.389 . S
C166 C165 1.351 . S
C166 H171 0.930 . S
O167 Cu161 1.974 . S
O167 C177 1.282 . S
C168 O169 1.261 . S
C168 O181 1.251 . S
O169 C168 1.261 . S
H170 C164 0.930 . S
H171 C166 0.930 . S
N172 Cu161 1.985 . S
N172 C174 1.335 . S
N172 C175 1.390 . S
N173 C174 1.345 . S
N173 C176 1.336 . S
C174 N172 1.335 . S
C174 N173 1.345 . S
C174 H179 0.930 . S
C175 N172 1.390 . S
C175 C176 1.346 . S
C175 H180 0.930 . S
C176 N173 1.336 . S
C176 C175 1.346 . S
C176 H183 0.929 . S
C177 O167 1.282 . S
C177 O178 1.216 . S
O178 C177 1.216 . S
H179 C174 0.930 . S
H180 C175 0.930 . S
O181 Cu161 1.959 . S
O181 C168 1.251 . S
H182 C165 0.930 . S
H183 C176 0.929 . S
C184 C185 1.349 . S
C184 C186 1.327 . S
C184 H209 0.950 . S
C185 C184 1.349 . S
C185 C201 1.349 1_655 S
C186 C184 1.327 . S
C186 C205 1.429 . S
C186 H210 0.950 . S
C187 C204 1.574 1_565 S
C187 C206 1.368 1_455 S
C187 H211 0.949 . S
H188 C192 0.949 . S
C189 C190 1.349 . S
C189 C191 1.327 . S
C189 H212 0.950 . S
C190 C189 1.349 . S
C190 C202 1.349 1_455 S
C191 C189 1.327 . S
C191 C207 1.429 . S
C191 H213 0.950 . S
C192 H188 0.949 . S
C192 C200 1.574 1_545 S
C192 C208 1.368 1_655 S
H193 C201 0.950 . S
H194 C199 0.950 . S
H195 C200 0.949 . S
H196 C202 0.950 . S
H197 C203 0.950 . S
H198 C204 0.949 . S
C199 H194 0.950 . S
C199 C201 1.327 . S
C199 C205 1.429 1_455 S
C200 C192 1.574 1_565 S
C200 H195 0.949 . S
C200 C206 1.368 . S
C201 C185 1.349 1_455 S
C201 H193 0.950 . S
C201 C199 1.327 . S
C202 C190 1.349 1_655 S
C202 H196 0.950 . S
C202 C203 1.327 . S
C203 H197 0.950 . S
C203 C202 1.327 . S
C203 C207 1.429 1_655 S
C204 C187 1.574 1_545 S
C204 H198 0.949 . S
C204 C208 1.368 . S
C205 C186 1.429 . S
C205 C199 1.429 1_655 S
C205 C206 1.523 . S
C206 C187 1.368 1_655 S
C206 C200 1.368 . S
C206 C205 1.523 . S
C207 C191 1.429 . S
C207 C203 1.429 1_455 S
C207 C208 1.523 . S
C208 C192 1.368 1_455 S
C208 C204 1.368 . S
C208 C207 1.523 . S
H209 C184 0.950 . S
H210 C186 0.950 . S
H211 C187 0.949 . S
H212 C189 0.950 . S
H213 C191 0.950 . S
C214 C215 1.349 1_655 S
C214 C216 1.327 . S
C214 H239 0.950 . S
C215 C214 1.349 1_455 S
C215 C231 1.349 . S
C216 C214 1.327 . S
C216 C235 1.429 1_655 S
C216 H240 0.950 . S
C217 C234 1.574 1_565 S
C217 C236 1.368 . S
C217 H241 0.949 . S
H218 C222 0.949 . S
C219 C220 1.349 1_455 S
C219 C221 1.327 . S
C219 H242 0.950 . S
C220 C219 1.349 1_655 S
C220 C232 1.349 . S
C221 C219 1.327 . S
C221 C237 1.429 1_455 S
C221 H243 0.950 . S
C222 H218 0.949 . S
C222 C230 1.574 1_545 S
C222 C238 1.368 . S
H223 C231 0.950 . S
H224 C229 0.950 . S
H225 C230 0.949 . S
H226 C232 0.950 . S
H227 C233 0.950 . S
H228 C234 0.949 . S
C229 H224 0.950 . S
C229 C231 1.327 . S
C229 C235 1.429 . S
C230 C222 1.574 1_565 S
C230 H225 0.949 . S
C230 C236 1.368 1_655 S
C231 C215 1.349 . S
C231 H223 0.950 . S
C231 C229 1.327 . S
C232 C220 1.349 . S
C232 H226 0.950 . S
C232 C233 1.327 . S
C233 H227 0.950 . S
C233 C232 1.327 . S
C233 C237 1.429 . S
C234 C217 1.574 1_545 S
C234 H228 0.949 . S
C234 C238 1.368 1_455 S
C235 C216 1.429 1_455 S
C235 C229 1.429 . S
C235 C236 1.523 . S
C236 C217 1.368 . S
C236 C230 1.368 1_455 S
C236 C235 1.523 . S
C237 C221 1.429 1_655 S
C237 C233 1.429 . S
C237 C238 1.523 . S
C238 C222 1.368 . S
C238 C234 1.368 1_655 S
C238 C237 1.523 . S
H239 C214 0.950 . S
H240 C216 0.950 . S
H241 C217 0.949 . S
H242 C219 0.950 . S
H243 C221 0.950 . S
C244 C245 1.349 . S
C244 C246 1.327 . S
C244 H269 0.950 . S
C245 C244 1.349 . S
C245 C261 1.349 . S
C246 C244 1.327 . S
C246 C265 1.429 . S
C246 H270 0.950 . S
C247 C264 1.574 . S
C247 C266 1.368 . S
C247 H271 0.949 . S
H248 C252 0.949 . S
C249 C250 1.349 . S
C249 C251 1.327 . S
C249 H272 0.950 . S
C250 C249 1.349 . S
C250 C262 1.349 . S
C251 C249 1.327 . S
C251 C267 1.429 . S
C251 H273 0.950 . S
C252 H248 0.949 . S
C252 C260 1.574 . S
C252 C268 1.368 . S
H253 C261 0.950 . S
H254 C259 0.950 . S
H255 C260 0.949 . S
H256 C262 0.950 . S
H257 C263 0.950 . S
H258 C264 0.949 . S
C259 H254 0.950 . S
C259 C261 1.327 . S
C259 C265 1.429 . S
C260 C252 1.574 . S
C260 H255 0.949 . S
C260 C266 1.368 . S
C261 C245 1.349 . S
C261 H253 0.950 . S
C261 C259 1.327 . S
C262 C250 1.349 . S
C262 H256 0.950 . S
C262 C263 1.327 . S
C263 H257 0.950 . S
C263 C262 1.327 . S
C263 C267 1.429 . S
C264 C247 1.574 . S
C264 H258 0.949 . S
C264 C268 1.368 . S
C265 C246 1.429 . S
C265 C259 1.429 . S
C265 C266 1.523 . S
C266 C247 1.368 . S
C266 C260 1.368 . S
C266 C265 1.523 . S
C267 C251 1.429 . S
C267 C263 1.429 . S
C267 C268 1.523 . S
C268 C252 1.368 . S
C268 C264 1.368 . S
C268 C267 1.523 . S
H269 C244 0.950 . S
H270 C246 0.950 . S
H271 C247 0.949 . S
H272 C249 0.950 . S
H273 C251 0.950 . S
C274 C275 1.349 . S
C274 C276 1.327 . S
C274 H299 0.950 . S
C275 C274 1.349 . S
C275 C291 1.349 . S
C276 C274 1.327 . S
C276 C295 1.429 . S
C276 H300 0.950 . S
C277 C294 1.574 . S
C277 C296 1.368 . S
C277 H301 0.949 . S
H278 C282 0.949 . S
C279 C280 1.349 . S
C279 C281 1.327 . S
C279 H302 0.950 . S
C280 C279 1.349 . S
C280 C292 1.349 . S
C281 C279 1.327 . S
C281 C297 1.429 . S
C281 H303 0.950 . S
C282 H278 0.949 . S
C282 C290 1.574 . S
C282 C298 1.368 . S
H283 C291 0.950 . S
H284 C289 0.950 . S
H285 C290 0.949 . S
H286 C292 0.950 . S
H287 C293 0.950 . S
H288 C294 0.949 . S
C289 H284 0.950 . S
C289 C291 1.327 . S
C289 C295 1.429 . S
C290 C282 1.574 . S
C290 H285 0.949 . S
C290 C296 1.368 . S
C291 C275 1.349 . S
C291 H283 0.950 . S
C291 C289 1.327 . S
C292 C280 1.349 . S
C292 H286 0.950 . S
C292 C293 1.327 . S
C293 H287 0.950 . S
C293 C292 1.327 . S
C293 C297 1.429 . S
C294 C277 1.574 . S
C294 H288 0.949 . S
C294 C298 1.368 . S
C295 C276 1.429 . S
C295 C289 1.429 . S
C295 C296 1.523 . S
C296 C277 1.368 . S
C296 C290 1.368 . S
C296 C295 1.523 . S
C297 C281 1.429 . S
C297 C293 1.429 . S
C297 C298 1.523 . S
C298 C282 1.368 . S
C298 C294 1.368 . S
C298 C297 1.523 . S
H299 C274 0.950 . S
H300 C276 0.950 . S
H301 C277 0.949 . S
H302 C279 0.950 . S
H303 C281 0.950 . S
C304 C305 1.349 1_655 S
C304 C306 1.327 . S
C304 H329 0.950 . S
C305 C304 1.349 1_455 S
C305 C321 1.349 . S
C306 C304 1.327 . S
C306 C325 1.429 1_655 S
C306 H330 0.950 . S
C307 C324 1.574 . S
C307 C326 1.368 . S
C307 H331 0.949 . S
H308 C312 0.949 . S
C309 C310 1.349 1_455 S
C309 C311 1.327 . S
C309 H332 0.950 . S
C310 C309 1.349 1_655 S
C310 C322 1.349 . S
C311 C309 1.327 . S
C311 C327 1.429 1_455 S
C311 H333 0.950 . S
C312 H308 0.949 . S
C312 C320 1.574 . S
C312 C328 1.368 . S
H313 C321 0.950 . S
H314 C319 0.950 . S
H315 C320 0.949 . S
H316 C322 0.950 . S
H317 C323 0.950 . S
H318 C324 0.949 . S
C319 H314 0.950 . S
C319 C321 1.327 . S
C319 C325 1.429 . S
C320 C312 1.574 . S
C320 H315 0.949 . S
C320 C326 1.368 1_655 S
C321 C305 1.349 . S
C321 H313 0.950 . S
C321 C319 1.327 . S
C322 C310 1.349 . S
C322 H316 0.950 . S
C322 C323 1.327 . S
C323 H317 0.950 . S
C323 C322 1.327 . S
C323 C327 1.429 . S
C324 C307 1.574 . S
C324 H318 0.949 . S
C324 C328 1.368 1_455 S
C325 C306 1.429 1_455 S
C325 C319 1.429 . S
C325 C326 1.523 . S
C326 C307 1.368 . S
C326 C320 1.368 1_455 S
C326 C325 1.523 . S
C327 C311 1.429 1_655 S
C327 C323 1.429 . S
C327 C328 1.523 . S
C328 C312 1.368 . S
C328 C324 1.368 1_655 S
C328 C327 1.523 . S
H329 C304 0.950 . S
H330 C306 0.950 . S
H331 C307 0.949 . S
H332 C309 0.950 . S
H333 C311 0.950 . S
C334 C335 1.349 . S
C334 C336 1.327 . S
C334 H359 0.950 . S
C335 C334 1.349 . S
C335 C351 1.349 1_455 S
C336 C334 1.327 . S
C336 C355 1.429 . S
C336 H360 0.950 . S
C337 C354 1.574 . S
C337 C356 1.368 1_655 S
C337 H361 0.949 . S
H338 C342 0.949 . S
C339 C340 1.349 . S
C339 C341 1.327 . S
C339 H362 0.950 . S
C340 C339 1.349 . S
C340 C352 1.349 1_655 S
C341 C339 1.327 . S
C341 C357 1.429 . S
C341 H363 0.950 . S
C342 H338 0.949 . S
C342 C350 1.574 . S
C342 C358 1.368 1_455 S
H343 C351 0.950 . S
H344 C349 0.950 . S
H345 C350 0.949 . S
H346 C352 0.950 . S
H347 C353 0.950 . S
H348 C354 0.949 . S
C349 H344 0.950 . S
C349 C351 1.327 . S
C349 C355 1.429 1_655 S
C350 C342 1.574 . S
C350 H345 0.949 . S
C350 C356 1.368 . S
C351 C335 1.349 1_655 S
C351 H343 0.950 . S
C351 C349 1.327 . S
C352 C340 1.349 1_455 S
C352 H346 0.950 . S
C352 C353 1.327 . S
C353 H347 0.950 . S
C353 C352 1.327 . S
C353 C357 1.429 1_455 S
C354 C337 1.574 . S
C354 H348 0.949 . S
C354 C358 1.368 . S
C355 C336 1.429 . S
C355 C349 1.429 1_455 S
C355 C356 1.523 . S
C356 C337 1.368 1_455 S
C356 C350 1.368 . S
C356 C355 1.523 . S
C357 C341 1.429 . S
C357 C353 1.429 1_655 S
C357 C358 1.523 . S
C358 C342 1.368 1_655 S
C358 C354 1.368 . S
C358 C357 1.523 . S
H359 C334 0.950 . S
H360 C336 0.950 . S
H361 C337 0.949 . S
H362 C339 0.950 . S
H363 C341 0.950 . S
C364 C365 1.349 1_655 S
C364 C366 1.327 . S
C364 H389 0.950 . S
C365 C364 1.349 1_455 S
C365 C381 1.349 . S
C366 C364 1.327 . S
C366 C385 1.429 1_655 S
C366 H390 0.950 . S
C367 C384 1.574 . S
C367 C386 1.368 . S
C367 H391 0.949 . S
H368 C372 0.949 . S
C369 C370 1.349 1_455 S
C369 C371 1.327 . S
C369 H392 0.950 . S
C370 C369 1.349 1_655 S
C370 C382 1.349 . S
C371 C369 1.327 . S
C371 C387 1.429 1_455 S
C371 H393 0.950 . S
C372 H368 0.949 . S
C372 C380 1.574 . S
C372 C388 1.368 . S
H373 C381 0.950 . S
H374 C379 0.950 . S
H375 C380 0.949 . S
H376 C382 0.950 . S
H377 C383 0.950 . S
H378 C384 0.949 . S
C379 H374 0.950 . S
C379 C381 1.327 . S
C379 C385 1.429 . S
C380 C372 1.574 . S
C380 H375 0.949 . S
C380 C386 1.368 1_655 S
C381 C365 1.349 . S
C381 H373 0.950 . S
C381 C379 1.327 . S
C382 C370 1.349 . S
C382 H376 0.950 . S
C382 C383 1.327 . S
C383 H377 0.950 . S
C383 C382 1.327 . S
C383 C387 1.429 . S
C384 C367 1.574 . S
C384 H378 0.949 . S
C384 C388 1.368 1_455 S
C385 C366 1.429 1_455 S
C385 C379 1.429 . S
C385 C386 1.523 . S
C386 C367 1.368 . S
C386 C380 1.368 1_455 S
C386 C385 1.523 . S
C387 C371 1.429 1_655 S
C387 C383 1.429 . S
C387 C388 1.523 . S
C388 C372 1.368 . S
C388 C384 1.368 1_655 S
C388 C387 1.523 . S
H389 C364 0.950 . S
H390 C366 0.950 . S
H391 C367 0.949 . S
H392 C369 0.950 . S
H393 C371 0.950 . S
C394 C395 1.349 . S
C394 C396 1.327 . S
C394 H419 0.950 . S
C395 C394 1.349 . S
C395 C411 1.349 1_455 S
C396 C394 1.327 . S
C396 C415 1.429 . S
C396 H420 0.950 . S
C397 C414 1.574 . S
C397 C416 1.368 1_655 S
C397 H421 0.949 . S
H398 C402 0.949 . S
C399 C400 1.349 . S
C399 C401 1.327 . S
C399 H422 0.950 . S
C400 C399 1.349 . S
C400 C412 1.349 1_655 S
C401 C399 1.327 . S
C401 C417 1.429 . S
C401 H423 0.950 . S
C402 H398 0.949 . S
C402 C410 1.574 . S
C402 C418 1.368 1_455 S
H403 C411 0.950 . S
H404 C409 0.950 . S
H405 C410 0.949 . S
H406 C412 0.950 . S
H407 C413 0.950 . S
H408 C414 0.949 . S
C409 H404 0.950 . S
C409 C411 1.327 . S
C409 C415 1.429 1_655 S
C410 C402 1.574 . S
C410 H405 0.949 . S
C410 C416 1.368 . S
C411 C395 1.349 1_655 S
C411 H403 0.950 . S
C411 C409 1.327 . S
C412 C400 1.349 1_455 S
C412 H406 0.950 . S
C412 C413 1.327 . S
C413 H407 0.950 . S
C413 C412 1.327 . S
C413 C417 1.429 1_455 S
C414 C397 1.574 . S
C414 H408 0.949 . S
C414 C418 1.368 . S
C415 C396 1.429 . S
C415 C409 1.429 1_455 S
C415 C416 1.523 . S
C416 C397 1.368 1_455 S
C416 C410 1.368 . S
C416 C415 1.523 . S
C417 C401 1.429 . S
C417 C413 1.429 1_655 S
C417 C418 1.523 . S
C418 C402 1.368 1_655 S
C418 C414 1.368 . S
C418 C417 1.523 . S
H419 C394 0.950 . S
H420 C396 0.950 . S
H421 C397 0.949 . S
H422 C399 0.950 . S
H423 C401 0.950 . S
C424 C425 1.349 . S
C424 C426 1.327 . S
C424 H449 0.950 . S
C425 C424 1.349 . S
C425 C441 1.349 . S
C426 C424 1.327 . S
C426 C445 1.429 . S
C426 H450 0.950 . S
C427 C444 1.574 . S
C427 C446 1.368 . S
C427 H451 0.949 . S
H428 C432 0.949 . S
C429 C430 1.349 . S
C429 C431 1.327 . S
C429 H452 0.950 . S
C430 C429 1.349 . S
C430 C442 1.349 . S
C431 C429 1.327 . S
C431 C447 1.429 . S
C431 H453 0.950 . S
C432 H428 0.949 . S
C432 C440 1.574 . S
C432 C448 1.368 . S
H433 C441 0.950 . S
H434 C439 0.950 . S
H435 C440 0.949 . S
H436 C442 0.950 . S
H437 C443 0.950 . S
H438 C444 0.949 . S
C439 H434 0.950 . S
C439 C441 1.327 . S
C439 C445 1.429 . S
C440 C432 1.574 . S
C440 H435 0.949 . S
C440 C446 1.368 . S
C441 C425 1.349 . S
C441 H433 0.950 . S
C441 C439 1.327 . S
C442 C430 1.349 . S
C442 H436 0.950 . S
C442 C443 1.327 . S
C443 H437 0.950 . S
C443 C442 1.327 . S
C443 C447 1.429 . S
C444 C427 1.574 . S
C444 H438 0.949 . S
C444 C448 1.368 . S
C445 C426 1.429 . S
C445 C439 1.429 . S
C445 C446 1.523 . S
C446 C427 1.368 . S
C446 C440 1.368 . S
C446 C445 1.523 . S
C447 C431 1.429 . S
C447 C443 1.429 . S
C447 C448 1.523 . S
C448 C432 1.368 . S
C448 C444 1.368 . S
C448 C447 1.523 . S
H449 C424 0.950 . S
H450 C426 0.950 . S
H451 C427 0.949 . S
H452 C429 0.950 . S
H453 C431 0.950 . S
C454 C455 1.349 . S
C454 C456 1.327 . S
C454 H479 0.950 . S
C455 C454 1.349 . S
C455 C471 1.349 . S
C456 C454 1.327 . S
C456 C475 1.429 . S
C456 H480 0.950 . S
C457 C474 1.574 . S
C457 C476 1.368 . S
C457 H481 0.949 . S
H458 C462 0.949 . S
C459 C460 1.349 . S
C459 C461 1.327 . S
C459 H482 0.950 . S
C460 C459 1.349 . S
C460 C472 1.349 . S
C461 C459 1.327 . S
C461 C477 1.429 . S
C461 H483 0.950 . S
C462 H458 0.949 . S
C462 C470 1.574 . S
C462 C478 1.368 . S
H463 C471 0.950 . S
H464 C469 0.950 . S
H465 C470 0.949 . S
H466 C472 0.950 . S
H467 C473 0.950 . S
H468 C474 0.949 . S
C469 H464 0.950 . S
C469 C471 1.327 . S
C469 C475 1.429 . S
C470 C462 1.574 . S
C470 H465 0.949 . S
C470 C476 1.368 . S
C471 C455 1.349 . S
C471 H463 0.950 . S
C471 C469 1.327 . S
C472 C460 1.349 . S
C472 H466 0.950 . S
C472 C473 1.327 . S
C473 H467 0.950 . S
C473 C472 1.327 . S
C473 C477 1.429 . S
C474 C457 1.574 . S
C474 H468 0.949 . S
C474 C478 1.368 . S
C475 C456 1.429 . S
C475 C469 1.429 . S
C475 C476 1.523 . S
C476 C457 1.368 . S
C476 C470 1.368 . S
C476 C475 1.523 . S
C477 C461 1.429 . S
C477 C473 1.429 . S
C477 C478 1.523 . S
C478 C462 1.368 . S
C478 C474 1.368 . S
C478 C477 1.523 . S
H479 C454 0.950 . S
H480 C456 0.950 . S
H481 C457 0.949 . S
H482 C459 0.950 . S
H483 C461 0.950 . S
C484 C485 1.349 . S
C484 C486 1.327 . S
C484 H509 0.950 . S
C485 C484 1.349 . S
C485 C501 1.349 . S
C486 C484 1.327 . S
C486 C505 1.429 . S
C486 H510 0.950 . S
C487 C504 1.574 . S
C487 C506 1.368 . S
C487 H511 0.949 . S
H488 C492 0.949 . S
C489 C490 1.349 . S
C489 C491 1.327 . S
C489 H512 0.950 . S
C490 C489 1.349 . S
C490 C502 1.349 . S
C491 C489 1.327 . S
C491 C507 1.429 . S
C491 H513 0.950 . S
C492 H488 0.949 . S
C492 C500 1.574 . S
C492 C508 1.368 . S
H493 C501 0.950 . S
H494 C499 0.950 . S
H495 C500 0.949 . S
H496 C502 0.950 . S
H497 C503 0.950 . S
H498 C504 0.949 . S
C499 H494 0.950 . S
C499 C501 1.327 . S
C499 C505 1.429 . S
C500 C492 1.574 . S
C500 H495 0.949 . S
C500 C506 1.368 . S
C501 C485 1.349 . S
C501 H493 0.950 . S
C501 C499 1.327 . S
C502 C490 1.349 . S
C502 H496 0.950 . S
C502 C503 1.327 . S
C503 H497 0.950 . S
C503 C502 1.327 . S
C503 C507 1.429 . S
C504 C487 1.574 . S
C504 H498 0.949 . S
C504 C508 1.368 . S
C505 C486 1.429 . S
C505 C499 1.429 . S
C505 C506 1.523 . S
C506 C487 1.368 . S
C506 C500 1.368 . S
C506 C505 1.523 . S
C507 C491 1.429 . S
C507 C503 1.429 . S
C507 C508 1.523 . S
C508 C492 1.368 . S
C508 C504 1.368 . S
C508 C507 1.523 . S
H509 C484 0.950 . S
H510 C486 0.950 . S
H511 C487 0.949 . S
H512 C489 0.950 . S
H513 C491 0.950 . S
C514 C515 1.349 . S
C514 C516 1.327 . S
C514 H539 0.950 . S
C515 C514 1.349 . S
C515 C531 1.349 . S
C516 C514 1.327 . S
C516 C535 1.429 . S
C516 H540 0.950 . S
C517 C534 1.574 . S
C517 C536 1.368 . S
C517 H541 0.949 . S
H518 C522 0.949 . S
C519 C520 1.349 . S
C519 C521 1.327 . S
C519 H542 0.950 . S
C520 C519 1.349 . S
C520 C532 1.349 . S
C521 C519 1.327 . S
C521 C537 1.429 . S
C521 H543 0.950 . S
C522 H518 0.949 . S
C522 C530 1.574 . S
C522 C538 1.368 . S
H523 C531 0.950 . S
H524 C529 0.950 . S
H525 C530 0.949 . S
H526 C532 0.950 . S
H527 C533 0.950 . S
H528 C534 0.949 . S
C529 H524 0.950 . S
C529 C531 1.327 . S
C529 C535 1.429 . S
C530 C522 1.574 . S
C530 H525 0.949 . S
C530 C536 1.368 . S
C531 C515 1.349 . S
C531 H523 0.950 . S
C531 C529 1.327 . S
C532 C520 1.349 . S
C532 H526 0.950 . S
C532 C533 1.327 . S
C533 H527 0.950 . S
C533 C532 1.327 . S
C533 C537 1.429 . S
C534 C517 1.574 . S
C534 H528 0.949 . S
C534 C538 1.368 . S
C535 C516 1.429 . S
C535 C529 1.429 . S
C535 C536 1.523 . S
C536 C517 1.368 . S
C536 C530 1.368 . S
C536 C535 1.523 . S
C537 C521 1.429 . S
C537 C533 1.429 . S
C537 C538 1.523 . S
C538 C522 1.368 . S
C538 C534 1.368 . S
C538 C537 1.523 . S
H539 C514 0.950 . S
H540 C516 0.950 . S
H541 C517 0.949 . S
H542 C519 0.950 . S
H543 C521 0.950 . S
C544 C545 1.349 . S
C544 C546 1.327 . S
C544 H569 0.950 . S
C545 C544 1.349 . S
C545 C561 1.349 1_554 S
C546 C544 1.327 . S
C546 C565 1.429 . S
C546 H570 0.950 . S
C547 C564 1.574 . S
C547 C566 1.368 1_556 S
C547 H571 0.949 . S
H548 C552 0.949 . S
C549 C550 1.349 1_556 S
C549 C551 1.327 . S
C549 H572 0.950 . S
C550 C549 1.349 1_554 S
C550 C562 1.349 . S
C551 C549 1.327 . S
C551 C567 1.429 1_556 S
C551 H573 0.950 . S
C552 H548 0.949 . S
C552 C560 1.574 . S
C552 C568 1.368 . S
H553 C561 0.950 . S
H554 C559 0.950 . S
H555 C560 0.949 . S
H556 C562 0.950 . S
H557 C563 0.950 . S
H558 C564 0.949 . S
C559 H554 0.950 . S
C559 C561 1.327 . S
C559 C565 1.429 1_556 S
C560 C552 1.574 . S
C560 H555 0.949 . S
C560 C566 1.368 . S
C561 C545 1.349 1_556 S
C561 H553 0.950 . S
C561 C559 1.327 . S
C562 C550 1.349 . S
C562 H556 0.950 . S
C562 C563 1.327 . S
C563 H557 0.950 . S
C563 C562 1.327 . S
C563 C567 1.429 . S
C564 C547 1.574 . S
C564 H558 0.949 . S
C564 C568 1.368 1_556 S
C565 C546 1.429 . S
C565 C559 1.429 1_554 S
C565 C566 1.523 . S
C566 C547 1.368 1_554 S
C566 C560 1.368 . S
C566 C565 1.523 . S
C567 C551 1.429 1_554 S
C567 C563 1.429 . S
C567 C568 1.523 . S
C568 C552 1.368 . S
C568 C564 1.368 1_554 S
C568 C567 1.523 . S
H569 C544 0.950 . S
H570 C546 0.950 . S
H571 C547 0.949 . S
H572 C549 0.950 . S
H573 C551 0.950 . S
C574 C575 1.349 1_556 S
C574 C576 1.327 . S
C574 H599 0.950 . S
C575 C574 1.349 1_554 S
C575 C591 1.349 . S
C576 C574 1.327 . S
C576 C595 1.429 1_556 S
C576 H600 0.950 . S
C577 C594 1.574 . S
C577 C596 1.368 . S
C577 H601 0.949 . S
H578 C582 0.949 . S
C579 C580 1.349 . S
C579 C581 1.327 . S
C579 H602 0.950 . S
C580 C579 1.349 . S
C580 C592 1.349 1_554 S
C581 C579 1.327 . S
C581 C597 1.429 . S
C581 H603 0.950 . S
C582 H578 0.949 . S
C582 C590 1.574 . S
C582 C598 1.368 1_556 S
H583 C591 0.950 . S
H584 C589 0.950 . S
H585 C590 0.949 . S
H586 C592 0.950 . S
H587 C593 0.950 . S
H588 C594 0.949 . S
C589 H584 0.950 . S
C589 C591 1.327 . S
C589 C595 1.429 . S
C590 C582 1.574 . S
C590 H585 0.949 . S
C590 C596 1.368 1_556 S
C591 C575 1.349 . S
C591 H583 0.950 . S
C591 C589 1.327 . S
C592 C580 1.349 1_556 S
C592 H586 0.950 . S
C592 C593 1.327 . S
C593 H587 0.950 . S
C593 C592 1.327 . S
C593 C597 1.429 1_556 S
C594 C577 1.574 . S
C594 H588 0.949 . S
C594 C598 1.368 . S
C595 C576 1.429 1_554 S
C595 C589 1.429 . S
C595 C596 1.523 . S
C596 C577 1.368 . S
C596 C590 1.368 1_554 S
C596 C595 1.523 . S
C597 C581 1.429 . S
C597 C593 1.429 1_554 S
C597 C598 1.523 . S
C598 C582 1.368 1_554 S
C598 C594 1.368 . S
C598 C597 1.523 . S
H599 C574 0.950 . S
H600 C576 0.950 . S
H601 C577 0.949 . S
H602 C579 0.950 . S
H603 C581 0.950 . S
C604 C605 1.349 . S
C604 C606 1.327 . S
C604 H629 0.950 . S
C605 C604 1.349 . S
C605 C621 1.349 . S
C606 C604 1.327 . S
C606 C625 1.429 . S
C606 H630 0.950 . S
C607 C624 1.574 . S
C607 C626 1.368 . S
C607 H631 0.949 . S
H608 C612 0.949 . S
C609 C610 1.349 . S
C609 C611 1.327 . S
C609 H632 0.950 . S
C610 C609 1.349 . S
C610 C622 1.349 . S
C611 C609 1.327 . S
C611 C627 1.429 . S
C611 H633 0.950 . S
C612 H608 0.949 . S
C612 C620 1.574 . S
C612 C628 1.368 . S
H613 C621 0.950 . S
H614 C619 0.950 . S
H615 C620 0.949 . S
H616 C622 0.950 . S
H617 C623 0.950 . S
H618 C624 0.949 . S
C619 H614 0.950 . S
C619 C621 1.327 . S
C619 C625 1.429 . S
C620 C612 1.574 . S
C620 H615 0.949 . S
C620 C626 1.368 . S
C621 C605 1.349 . S
C621 H613 0.950 . S
C621 C619 1.327 . S
C622 C610 1.349 . S
C622 H616 0.950 . S
C622 C623 1.327 . S
C623 H617 0.950 . S
C623 C622 1.327 . S
C623 C627 1.429 . S
C624 C607 1.574 . S
C624 H618 0.949 . S
C624 C628 1.368 . S
C625 C606 1.429 . S
C625 C619 1.429 . S
C625 C626 1.523 . S
C626 C607 1.368 . S
C626 C620 1.368 . S
C626 C625 1.523 . S
C627 C611 1.429 . S
C627 C623 1.429 . S
C627 C628 1.523 . S
C628 C612 1.368 . S
C628 C624 1.368 . S
C628 C627 1.523 . S
H629 C604 0.950 . S
H630 C606 0.950 . S
H631 C607 0.949 . S
H632 C609 0.950 . S
H633 C611 0.950 . S
C634 C635 1.349 . S
C634 C636 1.327 . S
C634 H659 0.950 . S
C635 C634 1.349 . S
C635 C651 1.349 . S
C636 C634 1.327 . S
C636 C655 1.429 . S
C636 H660 0.950 . S
C637 C654 1.574 . S
C637 C656 1.368 . S
C637 H661 0.949 . S
H638 C642 0.949 . S
C639 C640 1.349 . S
C639 C641 1.327 . S
C639 H662 0.950 . S
C640 C639 1.349 . S
C640 C652 1.349 . S
C641 C639 1.327 . S
C641 C657 1.429 . S
C641 H663 0.950 . S
C642 H638 0.949 . S
C642 C650 1.574 . S
C642 C658 1.368 . S
H643 C651 0.950 . S
H644 C649 0.950 . S
H645 C650 0.949 . S
H646 C652 0.950 . S
H647 C653 0.950 . S
H648 C654 0.949 . S
C649 H644 0.950 . S
C649 C651 1.327 . S
C649 C655 1.429 . S
C650 C642 1.574 . S
C650 H645 0.949 . S
C650 C656 1.368 . S
C651 C635 1.349 . S
C651 H643 0.950 . S
C651 C649 1.327 . S
C652 C640 1.349 . S
C652 H646 0.950 . S
C652 C653 1.327 . S
C653 H647 0.950 . S
C653 C652 1.327 . S
C653 C657 1.429 . S
C654 C637 1.574 . S
C654 H648 0.949 . S
C654 C658 1.368 . S
C655 C636 1.429 . S
C655 C649 1.429 . S
C655 C656 1.523 . S
C656 C637 1.368 . S
C656 C650 1.368 . S
C656 C655 1.523 . S
C657 C641 1.429 . S
C657 C653 1.429 . S
C657 C658 1.523 . S
C658 C642 1.368 . S
C658 C654 1.368 . S
C658 C657 1.523 . S
H659 C634 0.950 . S
H660 C636 0.950 . S
H661 C637 0.949 . S
H662 C639 0.950 . S
H663 C641 0.950 . S
C185 N25 1.466 . S
C190 N2 1.466 . S
C215 N48 1.466 . S
C220 N71 1.466 . S
C245 N94 1.466 . S
C250 N117 1.466 . S
C275 N140 1.466 . S
C280 N163 1.466 . S
C305 C16 1.493 . S
C310 C85 1.493 . S
C335 C62 1.493 . S
C340 C39 1.493 . S
C365 C53 1.503 . S
C370 C30 1.503 . S
C395 C7 1.503 . S
C400 C76 1.503 . S
C425 C108 1.494 . S
C430 C177 1.494 . S
C455 C154 1.494 . S
C460 C131 1.494 . S
C485 C122 1.504 . S
C490 C145 1.504 . S
C515 C99 1.504 . S
C520 C168 1.504 . S
C545 N127 1.487 . S
C550 N12 1.487 . S
C575 N104 1.487 . S
C580 N35 1.487 . S
C605 N58 1.488 . S
C610 N173 1.488 . S
C635 N150 1.488 . S
C640 N81 1.488 . S
