# Generated by pormake.
# Topology uoc, (4)-cn, num edge types: 1
# Building blocks:
#     Node 0, Type 0, BuildingBlock: ESEHIV_clean_sbu_0, # of connection points: 4
#     Node 1, Type 0, BuildingBlock: ESEHIV_clean_sbu_0, # of connection points: 4
#     Node 2, Type 0, BuildingBlock: ESEHIV_clean_sbu_0, # of connection points: 4
#     Node 3, Type 0, BuildingBlock: ESEHIV_clean_sbu_0, # of connection points: 4
#     Node 4, Type 0, BuildingBlock: ESEHIV_clean_sbu_0, # of connection points: 4
#     Node 5, Type 0, BuildingBlock: ESEHIV_clean_sbu_0, # of connection points: 4
#     Node 6, Type 0, BuildingBlock: ESEHIV_clean_sbu_0, # of connection points: 4
#     Node 7, Type 0, BuildingBlock: ESEHIV_clean_sbu_0, # of connection points: 4
#     Edge 8, Type (0, 0), BuildingBlock: UVAHIK_clean_linker_0, # of connection points: 2
#     Edge 9, Type (0, 0), BuildingBlock: UVAHIK_clean_linker_0, # of connection points: 2
#     Edge 10, Type (0, 0), BuildingBlock: UVAHIK_clean_linker_0, # of connection points: 2
#     Edge 11, Type (0, 0), BuildingBlock: UVAHIK_clean_linker_0, # of connection points: 2
#     Edge 12, Type (0, 0), BuildingBlock: UVAHIK_clean_linker_0, # of connection points: 2
#     Edge 13, Type (0, 0), BuildingBlock: UVAHIK_clean_linker_0, # of connection points: 2
#     Edge 14, Type (0, 0), BuildingBlock: UVAHIK_clean_linker_0, # of connection points: 2
#     Edge 15, Type (0, 0), BuildingBlock: UVAHIK_clean_linker_0, # of connection points: 2
#     Edge 16, Type (0, 0), BuildingBlock: UVAHIK_clean_linker_0, # of connection points: 2
#     Edge 17, Type (0, 0), BuildingBlock: UVAHIK_clean_linker_0, # of connection points: 2
#     Edge 18, Type (0, 0), BuildingBlock: UVAHIK_clean_linker_0, # of connection points: 2
#     Edge 19, Type (0, 0), BuildingBlock: UVAHIK_clean_linker_0, # of connection points: 2
#     Edge 20, Type (0, 0), BuildingBlock: UVAHIK_clean_linker_0, # of connection points: 2
#     Edge 21, Type (0, 0), BuildingBlock: UVAHIK_clean_linker_0, # of connection points: 2
#     Edge 22, Type (0, 0), BuildingBlock: UVAHIK_clean_linker_0, # of connection points: 2
#     Edge 23, Type (0, 0), BuildingBlock: UVAHIK_clean_linker_0, # of connection points: 2
# Relax obj value: 0.049
# Max RMSD: 0.256
# Mean RMSD: 0.256
data_MOF--net-uoc--node1-ESEHIV_clean_sbu_0--edge1-UVAHIK_clean_linker_0
_symmetry_space_group_name_H-M    P1
_symmetry_Int_Tables_number       1
_symmetry_cell_setting            triclinic
loop_
_symmetry_equiv_pos_as_xyz
'x, y, z'
_cell_length_a     41.288851
_cell_length_b     41.259824
_cell_length_c     68.148812
_cell_angle_alpha  90.070772
_cell_angle_beta   89.941156
_cell_angle_gamma 91.112327
loop_
_atom_site_label
_atom_site_type_symbol
_atom_site_fract_x
_atom_site_fract_y
_atom_site_fract_z
_atom_type_partial_charge
Cu0 Cu 0.10398 0.26319 0.14532 0.0
N1 N 0.07723 0.23051 0.1555 0.0
N2 N 0.05335 0.18247 0.16128 0.0
C3 C 0.07428 0.19935 0.14974 0.0
C4 C 0.04273 0.20393 0.17468 0.0
C5 C 0.05747 0.23351 0.17105 0.0
O6 O 0.12924 0.24626 0.12369 0.0
C7 C 0.14364 0.26113 0.1788 0.0
O8 O 0.14017 0.22969 0.17625 0.0
H9 H 0.0878 0.18913 0.13769 0.0
H10 H 0.05432 0.25567 0.17928 0.0
N11 N 0.07759 0.29578 0.13596 0.0
N12 N 0.05463 0.34377 0.13145 0.0
C13 C 0.07754 0.32725 0.14121 0.0
C14 C 0.05408 0.29218 0.12247 0.0
C15 C 0.03985 0.32171 0.11965 0.0
C16 C 0.14261 0.26527 0.11127 0.0
O17 O 0.14073 0.29673 0.11392 0.0
H18 H 0.09369 0.33764 0.15212 0.0
H19 H 0.04782 0.26961 0.1152 0.0
O20 O 0.13101 0.28019 0.16643 0.0
H21 H 0.02544 0.19866 0.18625 0.0
H22 H 0.02047 0.32661 0.10946 0.0
Cu23 Cu 0.7659 0.5986 0.39594 0.0
N24 N 0.72915 0.57797 0.38563 0.0
N25 N 0.67845 0.56048 0.38023 0.0
C26 C 0.69877 0.57593 0.39283 0.0
C27 C 0.69684 0.55231 0.36468 0.0
C28 C 0.72806 0.56306 0.36809 0.0
O29 O 0.75623 0.62114 0.42029 0.0
C30 C 0.76658 0.64324 0.36447 0.0
O31 O 0.73529 0.64402 0.36786 0.0
H32 H 0.69152 0.58636 0.4067 0.0
H33 H 0.74855 0.56072 0.35832 0.0
N34 N 0.79562 0.56688 0.40206 0.0
N35 N 0.84183 0.54046 0.40589 0.0
C36 C 0.8275 0.56645 0.39787 0.0
C37 C 0.78954 0.5403 0.41294 0.0
C38 C 0.81801 0.52396 0.41536 0.0
C39 C 0.73446 0.64217 0.42274 0.0
O40 O 0.71697 0.65123 0.4077 0.0
H41 H 0.84007 0.58533 0.38969 0.0
H42 H 0.76609 0.53364 0.41896 0.0
O43 O 0.7844 0.62643 0.37562 0.0
H44 H 0.68832 0.53954 0.35174 0.0
H45 H 0.82096 0.50171 0.42351 0.0
Cu46 Cu 0.42616 0.26238 0.6442 0.0
N47 N 0.45727 0.29229 0.65286 0.0
N48 N 0.48466 0.33877 0.65773 0.0
C49 C 0.46055 0.32366 0.64768 0.0
C50 C 0.49701 0.31593 0.66959 0.0
C51 C 0.48008 0.28728 0.66653 0.0
O52 O 0.4006 0.28193 0.62371 0.0
C53 C 0.39083 0.26797 0.67938 0.0
O54 O 0.3972 0.29903 0.67691 0.0
H55 H 0.4449 0.33536 0.63723 0.0
H56 H 0.48374 0.26447 0.67394 0.0
N57 N 0.447 0.2272 0.63316 0.0
N58 N 0.46535 0.17748 0.62777 0.0
C59 C 0.45103 0.19743 0.64075 0.0
C60 C 0.45931 0.22614 0.61491 0.0
C61 C 0.4706 0.19547 0.61151 0.0
C62 C 0.379 0.26561 0.61452 0.0
O63 O 0.37204 0.23588 0.62024 0.0
H64 H 0.44265 0.19026 0.65519 0.0
H65 H 0.45942 0.24615 0.60467 0.0
O66 O 0.40017 0.24797 0.66642 0.0
H67 H 0.51684 0.31965 0.67978 0.0
H68 H 0.48165 0.187 0.59809 0.0
Cu69 Cu 0.7616 0.92526 0.89936 0.0
N70 N 0.79427 0.95458 0.892 0.0
N71 N 0.84274 0.97788 0.88688 0.0
C72 C 0.82652 0.95187 0.89424 0.0
C73 C 0.81986 0.99769 0.87989 0.0
C74 C 0.79001 0.98334 0.88319 0.0
O75 O 0.77796 0.89778 0.9201 0.0
C76 C 0.73565 0.9154 0.86188 0.0
O77 O 0.73104 0.9467 0.86339 0.0
H78 H 0.83784 0.93116 0.9009 0.0
H79 H 0.76675 0.99333 0.87955 0.0
N80 N 0.72744 0.94914 0.90935 0.0
N81 N 0.67852 0.96957 0.91479 0.0
C82 C 0.69578 0.94764 0.90462 0.0
C83 C 0.73033 0.97262 0.92296 0.0
C84 C 0.70026 0.98527 0.92635 0.0
C85 C 0.75894 0.88333 0.93209 0.0
O86 O 0.72751 0.88525 0.9295 0.0
H87 H 0.68566 0.93075 0.89402 0.0
H88 H 0.75291 0.98024 0.92973 0.0
O89 O 0.74815 0.90051 0.87629 0.0
H90 H 0.8244 0.02112 0.8732 0.0
H91 H 0.69501 1.00505 0.93622 0.0
Cu92 Cu 0.6003 0.76554 0.64621 0.0
N93 N 0.58028 0.72865 0.65677 0.0
N94 N 0.5632 0.6778 0.6622 0.0
C95 C 0.57845 0.69823 0.64958 0.0
C96 C 0.55496 0.69615 0.67776 0.0
C97 C 0.56543 0.72748 0.67432 0.0
O98 O 0.62216 0.75585 0.6217 0.0
C99 C 0.64421 0.76752 0.67813 0.0
O100 O 0.64365 0.73585 0.67605 0.0
H101 H 0.58882 0.69106 0.63568 0.0
H102 H 0.56289 0.74799 0.68407 0.0
N103 N 0.56813 0.79488 0.64031 0.0
N104 N 0.5412 0.84084 0.63662 0.0
C105 C 0.56757 0.82682 0.64436 0.0
C106 C 0.54124 0.78843 0.62979 0.0
C107 C 0.52458 0.81675 0.62745 0.0
C108 C 0.64399 0.73491 0.6192 0.0
O109 O 0.65441 0.71839 0.63432 0.0
H110 H 0.58662 0.83966 0.65225 0.0
H111 H 0.53457 0.76484 0.62396 0.0
O112 O 0.62862 0.78477 0.66602 0.0
H113 H 0.54224 0.68755 0.69069 0.0
H114 H 0.50204 0.81942 0.61957 0.0
Cu115 Cu 0.26461 0.10156 0.89458 0.0
N116 N 0.23048 0.07804 0.88337 0.0
N117 N 0.18152 0.05634 0.87764 0.0
C118 C 0.20048 0.0727 0.89058 0.0
C119 C 0.20037 0.05112 0.86181 0.0
C120 C 0.2306 0.06444 0.86543 0.0
O121 O 0.24891 0.12625 0.9168 0.0
C122 C 0.26537 0.14576 0.86331 0.0
O123 O 0.23409 0.14601 0.86687 0.0
H124 H 0.19241 0.08158 0.90468 0.0
H125 H 0.25111 0.06484 0.85554 0.0
N126 N 0.29522 0.07236 0.90322 0.0
N127 N 0.34186 0.04684 0.90759 0.0
C128 C 0.32688 0.07159 0.89859 0.0
C129 C 0.28987 0.04741 0.91553 0.0
C130 C 0.31858 0.03159 0.91826 0.0
C131 C 0.26835 0.13762 0.92968 0.0
O132 O 0.29963 0.13394 0.92724 0.0
H133 H 0.33853 0.08867 0.88869 0.0
H134 H 0.2667 0.0413 0.92212 0.0
O135 O 0.2835 0.12913 0.87435 0.0
H136 H 0.19278 0.03873 0.84854 0.0
H137 H 0.3221 1.01086 0.92768 0.0
Cu138 Cu 0.92786 0.7595 0.1459 0.0
N139 N 0.95182 0.79404 0.15629 0.0
N140 N 0.97224 0.8436 0.16206 0.0
C141 C 0.95377 0.82495 0.15 0.0
C142 C 0.98232 0.82357 0.17636 0.0
C143 C 0.96972 0.79304 0.17274 0.0
O144 O 0.90098 0.77471 0.12457 0.0
C145 C 0.88111 0.75584 0.17613 0.0
O146 O 0.8731 0.7846 0.1697 0.0
H147 H 0.94113 0.83374 0.13722 0.0
H148 H 0.97293 0.77161 0.1816 0.0
N149 N 0.95648 0.72895 0.13636 0.0
N150 N 0.98116 0.682 0.13119 0.0
C151 C 0.95725 0.69723 0.14087 0.0
C152 C 0.98065 0.73412 0.12346 0.0
C153 C 0.99593 0.7052 0.12021 0.0
C154 C 0.88913 0.7552 0.11188 0.0
O155 O 0.89361 0.72395 0.11399 0.0
H156 H 0.94025 0.68556 0.15082 0.0
H157 H 0.98672 0.75733 0.11692 0.0
O158 O 0.90302 0.74036 0.16721 0.0
H159 H 0.9977 0.8305 0.18858 0.0
H160 H 0.01656 0.7017 0.11069 0.0
Cu161 Cu 0.26282 0.42429 0.39685 0.0
N162 N 0.2929 0.45525 0.38819 0.0
N163 N 0.33949 0.4825 0.38349 0.0
C164 C 0.32417 0.45852 0.39354 0.0
C165 C 0.31688 0.49479 0.37144 0.0
C166 C 0.28815 0.47795 0.37441 0.0
O167 O 0.28229 0.39871 0.41736 0.0
C168 C 0.26796 0.38958 0.36137 0.0
O169 O 0.29891 0.39675 0.36344 0.0
H170 H 0.33566 0.44295 0.40412 0.0
H171 H 0.26548 0.4816 0.36686 0.0
N172 N 0.22785 0.44541 0.40792 0.0
N173 N 0.17832 0.46409 0.41347 0.0
C174 C 0.19797 0.4494 0.40048 0.0
C175 C 0.22714 0.45815 0.42608 0.0
C176 C 0.19661 0.46964 0.42957 0.0
C177 C 0.26588 0.37742 0.42675 0.0
O178 O 0.23602 0.3707 0.42122 0.0
H179 H 0.19053 0.44072 0.38615 0.0
H180 H 0.24733 0.45844 0.43618 0.0
O181 O 0.24822 0.39822 0.37466 0.0
H182 H 0.3208 0.51451 0.36121 0.0
H183 H 0.18844 0.48106 0.44295 0.0
C184 C 0.17048 0.27347 0.07889 0.0
C185 C 0.15793 0.25228 0.09327 0.0
C186 C 0.18324 0.26143 0.06138 0.0
C187 C 0.18075 0.18888 0.02938 0.0
H188 H 0.25641 0.22952 1.0054 0.0
C189 C 0.22239 0.15587 0.95095 0.0
C190 C 0.25587 0.15283 0.94785 0.0
C191 C 0.21068 0.1687 0.96855 0.0
C192 C 0.23539 0.21773 1.01195 0.0
H193 H 0.14959 0.20167 0.10064 0.0
H194 H 0.1723 0.18064 0.07022 0.0
H195 H 0.23675 0.24945 0.03683 0.0
H196 H 0.30328 0.16129 0.96078 0.0
H197 H 0.28289 0.18329 0.99147 0.0
H198 H 0.17979 0.15672 1.00471 0.0
C199 C 0.17178 0.20664 0.07235 0.0
C200 C 0.22389 0.22939 0.02989 0.0
C201 C 0.15897 0.2187 0.08986 0.0
C202 C 0.27735 0.16337 0.96264 0.0
C203 C 0.26565 0.17616 0.98023 0.0
C204 C 0.19225 0.17721 1.01144 0.0
C205 C 0.18383 0.22786 0.0578 0.0
C206 C 0.19641 0.21513 0.03884 0.0
C207 C 0.23215 0.17878 0.98348 0.0
C208 C 0.21971 0.19148 1.00249 0.0
H209 H 0.16997 0.29949 0.08098 0.0
H210 H 0.19193 0.27851 0.05043 0.0
H211 H 0.15929 0.17755 0.0357 0.0
H212 H 0.20515 0.14808 0.93986 0.0
H213 H 0.18476 0.17082 0.97043 0.0
C214 C 0.81038 0.6493 0.3391 0.0
C215 C 0.78004 0.65835 0.34643 0.0
C216 C 0.82141 0.66089 0.32094 0.0
C217 C 0.79083 0.69709 0.27463 0.0
H218 H 0.88218 0.71285 0.26448 0.0
C219 C 0.84067 0.75787 0.20362 0.0
C220 C 0.86748 0.74319 0.19481 0.0
C221 C 0.82936 0.74741 0.22197 0.0
C222 C 0.85661 0.70831 0.26707 0.0
H223 H 0.73816 0.68785 0.34087 0.0
H224 H 0.75783 0.70899 0.30963 0.0
H225 H 0.8645 0.69671 0.29725 0.0
H226 H 0.90315 0.70567 0.19827 0.0
H227 H 0.88358 0.68773 0.23035 0.0
H228 H 0.78307 0.70942 0.24447 0.0
C229 C 0.77273 0.6921 0.31753 0.0
C230 C 0.84643 0.69896 0.28585 0.0
C231 C 0.76155 0.68021 0.33556 0.0
C232 C 0.88239 0.71747 0.20461 0.0
C233 C 0.87136 0.70734 0.22306 0.0
C234 C 0.801 0.70683 0.25592 0.0
C235 C 0.80253 0.68213 0.30977 0.0
C236 C 0.8134 0.69305 0.28989 0.0
C237 C 0.8449 0.72236 0.23201 0.0
C238 C 0.834 0.71234 0.25191 0.0
H239 H 0.82513 0.6323 0.34704 0.0
H240 H 0.84428 0.65229 0.3154 0.0
H241 H 0.76528 0.69215 0.277 0.0
H242 H 0.82864 0.77773 0.19646 0.0
H243 H 0.80899 0.75952 0.22855 0.0
C244 C 0.37788 0.30656 0.58738 0.0
C245 C 0.36474 0.2785 0.59623 0.0
C246 C 0.36645 0.31709 0.56921 0.0
C247 C 0.32135 0.2874 0.5253 0.0
H248 H 0.31836 0.37899 0.51293 0.0
C249 C 0.26181 0.33836 0.45489 0.0
C250 C 0.27882 0.36338 0.44509 0.0
C251 C 0.27254 0.32706 0.47307 0.0
C252 C 0.31934 0.35331 0.51612 0.0
H253 H 0.32845 0.24013 0.59323 0.0
H254 H 0.30779 0.25903 0.56185 0.0
H255 H 0.33485 0.36205 0.54561 0.0
H256 H 0.3209 0.39565 0.44655 0.0
H257 H 0.33944 0.37603 0.4783 0.0
H258 H 0.3052 0.27886 0.49582 0.0
C259 C 0.32757 0.27246 0.56866 0.0
C260 C 0.32885 0.34356 0.53486 0.0
C261 C 0.33923 0.26175 0.58676 0.0
C262 C 0.30721 0.37633 0.45368 0.0
C263 C 0.31772 0.36528 0.47194 0.0
C264 C 0.31152 0.29719 0.50662 0.0
C265 C 0.34134 0.3 0.55949 0.0
C266 C 0.33018 0.31045 0.53969 0.0
C267 C 0.30031 0.34078 0.48194 0.0
C268 C 0.3106 0.33025 0.50179 0.0
H269 H 0.39772 0.31992 0.5942 0.0
H270 H 0.37802 0.33812 0.56254 0.0
H271 H 0.32262 0.2617 0.52831 0.0
H272 H 0.23986 0.32785 0.44868 0.0
H273 H 0.25853 0.30826 0.48047 0.0
C274 C 0.7143 0.91582 0.82756 0.0
C275 C 0.72764 0.89845 0.84324 0.0
C276 C 0.70782 0.90068 0.80962 0.0
C277 C 0.69361 0.82084 0.78647 0.0
H278 H 0.71281 0.86816 0.73856 0.0
C279 C 0.67431 0.76309 0.70994 0.0
C280 C 0.65927 0.78249 0.69579 0.0
C281 C 0.68559 0.77658 0.72755 0.0
C282 C 0.70706 0.8547 0.75179 0.0
H283 H 0.74425 0.85128 0.85238 0.0
H284 H 0.73294 0.82474 0.82091 0.0
H285 H 0.72635 0.8924 0.77021 0.0
H286 H 0.64519 0.83154 0.68887 0.0
H287 H 0.66469 0.85501 0.71959 0.0
H288 H 0.67395 0.7833 0.76804 0.0
C289 C 0.72736 0.85013 0.8226 0.0
C290 C 0.71482 0.8686 0.76994 0.0
C291 C 0.73393 0.86535 0.84061 0.0
C292 C 0.65673 0.8159 0.6994 0.0
C293 C 0.66803 0.82939 0.71702 0.0
C294 C 0.68582 0.80693 0.76829 0.0
C295 C 0.71448 0.86772 0.80684 0.0
C296 C 0.70784 0.85202 0.78752 0.0
C297 C 0.68216 0.80981 0.73144 0.0
C298 C 0.69214 0.82384 0.75072 0.0
H299 H 0.70897 0.94131 0.82905 0.0
H300 H 0.69732 0.91482 0.79794 0.0
H301 H 0.68758 0.80755 0.79971 0.0
H302 H 0.67678 0.73728 0.70762 0.0
H303 H 0.69682 0.7609 0.7382 0.0
C304 C 0.27739 0.36843 0.32738 0.0
C305 C 0.25601 0.374 0.34305 0.0
C306 C 0.26597 0.35561 0.30963 0.0
C307 C 0.1981 0.30922 0.28741 0.0
H308 H 0.22891 0.34796 0.23885 0.0
C309 C 0.16921 0.25275 0.2117 0.0
C310 C 0.15933 0.27402 0.19685 0.0
C311 C 0.18185 0.26475 0.22936 0.0
C312 C 0.21998 0.33697 0.25228 0.0
H313 H 0.20588 0.36985 0.35243 0.0
H314 H 0.186 0.3473 0.32144 0.0
H315 H 0.24873 0.36898 0.27023 0.0
H316 H 0.15571 0.32467 0.18879 0.0
H317 H 0.17798 0.3456 0.2196 0.0
H318 H 0.16911 0.27741 0.26947 0.0
C319 C 0.21163 0.35279 0.32294 0.0
C320 C 0.23156 0.3488 0.27025 0.0
C321 C 0.22302 0.36582 0.34068 0.0
C322 C 0.16313 0.3076 0.1999 0.0
C323 C 0.17598 0.3196 0.21754 0.0
C324 C 0.1867 0.29723 0.26944 0.0
C325 C 0.23294 0.34785 0.30714 0.0
C326 C 0.22073 0.33509 0.28803 0.0
C327 C 0.18512 0.29831 0.23256 0.0
C328 C 0.19748 0.31098 0.25165 0.0
H329 H 0.30295 0.3744 0.32869 0.0
H330 H 0.28308 0.35168 0.29784 0.0
H331 H 0.18945 0.29798 0.30083 0.0
H332 H 0.16668 0.22675 0.20987 0.0
H333 H 0.1891 0.2477 0.24052 0.0
C334 C 0.64282 0.74402 0.58283 0.0
C335 C 0.65597 0.72799 0.59911 0.0
C336 C 0.65276 0.73648 0.56378 0.0
C337 C 0.71827 0.69872 0.53524 0.0
H338 H 0.65175 0.68828 0.49548 0.0
C339 C 0.74381 0.64228 0.45913 0.0
C340 C 0.72761 0.65471 0.44271 0.0
C341 C 0.73624 0.6528 0.47808 0.0
C342 C 0.67073 0.69158 0.50629 0.0
H343 H 0.69043 0.69187 0.60805 0.0
H344 H 0.70777 0.6787 0.57474 0.0
H345 H 0.63667 0.70365 0.52871 0.0
H346 H 0.69125 0.68864 0.43338 0.0
H347 H 0.67845 0.70742 0.46637 0.0
H348 H 0.75235 0.68668 0.51281 0.0
C349 C 0.68986 0.69724 0.57677 0.0
C350 C 0.66205 0.70034 0.52539 0.0
C351 C 0.67981 0.70469 0.59586 0.0
C352 C 0.70409 0.67841 0.44568 0.0
C353 C 0.6966 0.68903 0.46464 0.0
C354 C 0.72698 0.69008 0.5161 0.0
C355 C 0.67619 0.71281 0.56049 0.0
C356 C 0.68568 0.70393 0.54012 0.0
C357 C 0.71234 0.67613 0.48111 0.0
C358 C 0.7033 0.68628 0.50138 0.0
H359 H 0.62449 0.76218 0.58475 0.0
H360 H 0.64208 0.74927 0.55159 0.0
H361 H 0.73711 0.7017 0.54618 0.0
H362 H 0.76199 0.62391 0.45741 0.0
H363 H 0.74858 0.64199 0.49038 0.0
C364 C 0.36827 0.27819 0.71296 0.0
C365 C 0.37548 0.25628 0.69782 0.0
C366 C 0.35576 0.26709 0.73086 0.0
C367 C 0.34989 0.1934 0.76175 0.0
H368 H 0.28542 0.24237 0.78987 0.0
C369 C 0.31186 0.16043 0.84098 0.0
C370 C 0.27865 0.16168 0.84545 0.0
C371 C 0.32382 0.17323 0.82333 0.0
C372 C 0.30327 0.22826 0.78217 0.0
H373 H 0.37442 0.2055 0.68952 0.0
H374 H 0.35204 0.1862 0.72061 0.0
H375 H 0.30433 0.26113 0.7579 0.0
H376 H 0.23211 0.17799 0.83498 0.0
H377 H 0.25285 0.19988 0.80421 0.0
H378 H 0.3482 0.16007 0.78577 0.0
C379 C 0.35665 0.21195 0.71878 0.0
C380 C 0.31439 0.23923 0.7639 0.0
C381 C 0.36924 0.22304 0.70088 0.0
C382 C 0.25785 0.1767 0.83207 0.0
C383 C 0.26979 0.18941 0.81442 0.0
C384 C 0.33872 0.1824 0.77999 0.0
C385 C 0.35004 0.2338 0.73408 0.0
C386 C 0.33784 0.22193 0.75344 0.0
C387 C 0.30287 0.18753 0.80971 0.0
C388 C 0.31525 0.19968 0.79045 0.0
H389 H 0.37287 0.30394 0.71115 0.0
H390 H 0.35135 0.28461 0.74236 0.0
H391 H 0.36826 0.17966 0.75425 0.0
H392 H 0.32858 0.14912 0.85098 0.0
H393 H 0.34953 0.17184 0.82035 0.0
C394 C 0.86226 0.74621 0.07927 0.0
C395 C 0.87288 0.76765 0.09408 0.0
C396 C 0.8489 0.75798 0.06188 0.0
C397 C 0.84686 0.83182 0.03119 0.0
H398 H 0.77524 0.78683 1.00556 0.0
C399 C 0.80548 0.86613 0.95313 0.0
C400 C 0.77193 0.8671 0.94975 0.0
C401 C 0.81755 0.85287 0.97048 0.0
C402 C 0.79511 0.79982 1.01257 0.0
H403 H 0.87698 0.81833 0.1024 0.0
H404 H 0.85323 0.83883 0.07221 0.0
H405 H 0.7953 0.76696 0.03686 0.0
H406 H 0.72478 0.85428 0.96186 0.0
H407 H 0.74577 0.83151 0.99213 0.0
H408 H 0.84623 0.8651 1.00715 0.0
C409 C 0.85576 0.8129 0.07389 0.0
C410 C 0.80685 0.78822 0.03044 0.0
C411 C 0.86916 0.80113 0.09127 0.0
C412 C 0.75077 0.85386 0.96394 0.0
C413 C 0.76283 0.84064 0.98129 0.0
C414 C 0.83512 0.84342 1.01334 0.0
C415 C 0.84578 0.7915 0.05887 0.0
C416 C 0.83288 0.80407 0.03999 0.0
C417 C 0.79636 0.84029 0.98489 0.0
C418 C 0.80911 0.82758 1.00378 0.0
H419 H 0.86483 0.72028 0.0809 0.0
H420 H 0.84182 0.7408 0.05058 0.0
H421 H 0.8672 0.84443 0.03798 0.0
H422 H 0.82249 0.87602 0.94249 0.0
H423 H 0.84353 0.85251 0.9726 0.0
C424 C 0.04437 0.13226 0.14192 0.0
C425 C 0.04472 0.14851 0.16006 0.0
C426 C 0.03522 0.09945 0.14082 0.0
C427 C 0.99159 0.03514 0.16915 0.0
H428 H 0.03675 0.97646 0.13459 0.0
C429 C 0.98318 0.89668 0.17765 0.0
C430 C 0.97879 0.87794 0.1606 0.0
C431 C 0.9897 0.92993 0.17638 0.0
C432 C 0.02368 0.99266 0.14414 0.0
H433 H 0.03688 0.14279 0.19132 0.0
H434 H 0.02154 0.08571 0.18951 0.0
H435 H 0.05152 0.0341 0.13468 0.0
H436 H 0.97803 0.87932 0.12883 0.0
H437 H 0.9897 0.93769 0.12658 0.0
H438 H 0.96438 0.99355 0.17897 0.0
C439 C 0.02734 0.09839 0.17601 0.0
C440 C 0.03209 0.02569 0.14418 0.0
C441 C 0.03623 0.13115 0.17708 0.0
C442 C 0.98108 0.89321 0.14221 0.0
C443 C 0.988 0.92651 0.14092 0.0
C444 C 0.98342 1.00216 0.16922 0.0
C445 C 0.02643 0.08214 0.15786 0.0
C446 C 0.01642 0.04729 0.15689 0.0
C447 C 0.99226 0.9452 0.15802 0.0
C448 C 0.99962 0.9805 0.1569 0.0
H449 H 0.05051 0.14508 0.12854 0.0
H450 H 0.03448 0.08782 0.12657 0.0
H451 H 0.97844 0.05113 0.17878 0.0
H452 H 0.98122 0.88569 0.19202 0.0
H453 H 0.99316 0.94364 0.1898 0.0
C454 C 0.12353 0.4691 0.42744 0.0
C455 C 0.14445 0.47088 0.4112 0.0
C456 C 0.09068 0.47569 0.42539 0.0
C457 C 0.03315 0.52024 0.39579 0.0
H458 H 0.9695 0.46166 0.41913 0.0
C459 C 0.89487 0.54047 0.38893 0.0
C460 C 0.87568 0.53265 0.40536 0.0
C461 C 0.92762 0.53228 0.38838 0.0
C462 C 0.98691 0.47854 0.41274 0.0
H463 H 0.14748 0.48126 0.3801 0.0
H464 H 0.0898 0.49328 0.37652 0.0
H465 H 0.02671 0.44866 0.42053 0.0
H466 H 0.87601 0.51118 0.43433 0.0
H467 H 0.93302 0.49765 0.43366 0.0
H468 H 0.99353 0.55071 0.38855 0.0
C469 C 0.09896 0.48659 0.39082 0.0
C470 C 0.01969 0.47096 0.41346 0.0
C471 C 0.13183 0.47951 0.39282 0.0
C472 C 0.89 0.51694 0.42132 0.0
C473 C 0.92273 0.50909 0.42088 0.0
C474 C 1.00031 0.52807 0.39526 0.0
C475 C 0.07806 0.4846 0.40709 0.0
C476 C 0.04317 0.49187 0.40518 0.0
C477 C 0.94196 0.51638 0.40434 0.0
C478 C 0.97678 0.50748 0.40394 0.0
H479 H 0.1325 0.4622 0.44173 0.0
H480 H 0.07518 0.47421 0.43821 0.0
H481 H 0.0508 0.53691 0.38942 0.0
H482 H 0.88438 0.55233 0.37635 0.0
H483 H 0.94152 0.53795 0.3753 0.0
C484 C 0.50711 0.38844 0.67324 0.0
C485 C 0.49427 0.3725 0.65668 0.0
C486 C 0.51617 0.42119 0.67236 0.0
C487 C 0.50393 0.4961 0.6435 0.0
H488 H 0.57862 0.52661 0.67318 0.0
C489 C 0.55207 0.62948 0.64152 0.0
C490 C 0.55781 0.64338 0.66007 0.0
C491 C 0.54583 0.59613 0.63969 0.0
C492 C 0.55765 0.51844 0.66486 0.0
H493 H 0.4813 0.37836 0.62612 0.0
H494 H 0.49761 0.4355 0.62444 0.0
H495 H 0.56506 0.4689 0.67243 0.0
H496 H 0.56248 0.63316 0.69111 0.0
H497 H 0.55177 0.57511 0.68793 0.0
H498 H 0.49677 0.54588 0.63591 0.0
C499 C 0.50009 0.42284 0.63824 0.0
C500 C 0.54976 0.48538 0.66449 0.0
C501 C 0.49078 0.39008 0.63918 0.0
C502 C 0.55777 0.62322 0.67666 0.0
C503 C 0.55196 0.58993 0.67481 0.0
C504 C 0.51202 0.52919 0.64374 0.0
C505 C 0.5129 0.43882 0.65484 0.0
C506 C 0.52247 0.47381 0.65409 0.0
C507 C 0.54575 0.57603 0.65634 0.0
C508 C 0.53865 0.54074 0.65469 0.0
H509 H 0.50956 0.37576 0.68703 0.0
H510 H 0.52523 0.4328 0.68557 0.0
H511 H 0.48254 0.48816 0.63552 0.0
H512 H 0.55177 0.6445 0.62851 0.0
H513 H 0.54125 0.58602 0.62526 0.0
C514 C 0.62722 0.96882 0.89592 0.0
C515 C 0.64437 0.97588 0.91328 0.0
C516 C 0.59439 0.97617 0.89429 0.0
C517 C 0.53234 0.02893 0.91579 0.0
H518 H 0.4714 0.96895 0.89114 0.0
C519 C 0.39931 0.06252 0.9019 0.0
C520 C 0.37566 0.03872 0.90645 0.0
C521 C 0.43214 0.05484 0.90146 0.0
C522 C 0.48811 0.9859 0.89814 0.0
H523 H 0.64 0.99516 0.94276 0.0
H524 H 0.58294 1.00795 0.93993 0.0
H525 H 0.5285 0.95505 0.89334 0.0
H526 H 0.36808 0.98788 0.91351 0.0
H527 H 0.42527 0.97465 0.91313 0.0
H528 H 0.49194 0.05944 0.92102 0.0
C529 C 0.59501 0.99733 0.92742 0.0
C530 C 0.52087 0.97808 0.89922 0.0
C531 C 0.62776 0.98998 0.92905 0.0
C532 C 0.38562 1.00692 0.91022 0.0
C533 C 0.41843 0.99923 0.90975 0.0
C534 C 0.49964 0.03677 0.91468 0.0
C535 C 0.57799 0.99077 0.90998 0.0
C536 C 0.54332 0.99939 0.90821 0.0
C537 C 0.4421 0.02315 0.90553 0.0
C538 C 0.47708 0.01527 0.90596 0.0
H539 H 0.63932 0.95834 0.8834 0.0
H540 H 0.58205 0.9711 0.88058 0.0
H541 H 0.54907 0.04609 0.92258 0.0
H542 H 0.39259 0.08729 0.89906 0.0
H543 H 0.44973 0.07376 0.89794 0.0
C544 C 0.98098 0.62956 0.14887 0.0
C545 C 0.98914 0.64813 0.13223 0.0
C546 C 0.98864 0.59673 0.14982 0.0
C547 C 0.04244 0.53569 0.12799 0.0
H548 H 0.97922 0.474 0.14875 0.0
C549 C 0.07148 0.40037 0.139 0.0
C550 C 0.0475 0.37777 0.13307 0.0
C551 C 0.06474 0.43343 0.13999 0.0
C552 C 0.99709 0.4909 0.14284 0.0
H553 H 1.01138 0.64638 0.1034 0.0
H554 H 0.02472 0.58927 0.10506 0.0
H555 H 0.96671 0.53152 0.14797 0.0
H556 H 0.99733 0.37228 0.12404 0.0
H557 H 0.98575 0.42984 0.12545 0.0
H558 H 0.07249 0.495 0.12242 0.0
C559 C 0.01287 0.60023 0.11753 0.0
C560 C 0.99006 0.52391 0.14259 0.0
C561 C 1.0052 0.63303 0.11658 0.0
C562 C 0.01649 0.389 0.12843 0.0
C563 C 1.00973 0.42201 0.12946 0.0
C564 C 0.0495 0.50269 0.12829 0.0
C565 C 1.00467 0.58167 0.13416 0.0
C566 C 0.01256 0.54668 0.13503 0.0
C567 C 0.03381 0.44465 0.13515 0.0
C568 C 0.02681 0.47987 0.13558 0.0
H569 H 0.96907 0.64045 0.16132 0.0
H570 H 0.98238 0.58323 0.16296 0.0
H571 H 0.06046 0.55262 0.12228 0.0
H572 H 0.09567 0.39263 0.14253 0.0
H573 H 0.08374 0.45021 0.14461 0.0
C574 C 0.39049 0.4887 0.40231 0.0
C575 C 0.3732 0.49205 0.38469 0.0
C576 C 0.42323 0.49796 0.4034 0.0
C577 C 0.4862 0.54729 0.37732 0.0
H578 H 0.54619 0.49447 0.4064 0.0
C579 C 0.624 0.5549 0.36563 0.0
C580 C 0.64404 0.55508 0.38228 0.0
C581 C 0.59072 0.54914 0.3674 0.0
C582 C 0.52964 0.50967 0.39843 0.0
H583 H 0.37696 0.50699 0.3543 0.0
H584 H 0.43397 0.52257 0.35603 0.0
H585 H 0.48847 0.48035 0.40658 0.0
H586 H 0.64491 0.54935 0.41386 0.0
H587 H 0.58642 0.53894 0.41698 0.0
H588 H 0.52756 0.57599 0.36871 0.0
C589 C 0.42214 0.51368 0.36921 0.0
C590 C 0.49655 0.50164 0.39854 0.0
C591 C 0.38941 0.50467 0.36818 0.0
C592 C 0.63 0.54953 0.40081 0.0
C593 C 0.59664 0.54335 0.40257 0.0
C594 C 0.51926 0.55512 0.37707 0.0
C595 C 0.43949 0.51057 0.38684 0.0
C596 C 0.47445 0.52011 0.38776 0.0
C597 C 0.57668 0.54314 0.38586 0.0
C598 C 0.54137 0.53617 0.38742 0.0
H599 H 0.37856 0.47939 0.41534 0.0
H600 H 0.43567 0.49561 0.41729 0.0
H601 H 0.46986 0.56254 0.36923 0.0
H602 H 0.63404 0.55946 0.3512 0.0
H603 H 0.57601 0.54884 0.35425 0.0
C604 C 0.48106 0.13128 0.64858 0.0
C605 C 0.47201 0.1436 0.63021 0.0
C606 C 0.488 0.09839 0.65075 0.0
C607 C 0.47134 0.01869 0.62886 0.0
H608 H 0.55177 0.99273 0.65298 0.0
C609 C 0.51684 0.88867 0.62127 0.0
C610 C 0.53318 0.87465 0.6371 0.0
C611 C 0.50893 0.92141 0.62163 0.0
C612 C 0.52894 0.99946 0.6465 0.0
H613 H 0.46243 0.1311 0.59985 0.0
H614 H 0.47418 0.07373 0.60365 0.0
H615 H 0.53816 0.05005 0.65189 0.0
H616 H 0.55383 0.88387 0.6658 0.0
H617 H 0.53937 0.94101 0.66672 0.0
H618 H 0.46169 0.96839 0.62365 0.0
C619 C 0.4761 0.08949 0.61635 0.0
C620 C 0.52122 0.03232 0.64584 0.0
C621 C 0.46966 0.12236 0.61413 0.0
C622 C 0.5415 0.89413 0.65332 0.0
C623 C 0.53326 0.92688 0.6538 0.0
C624 C 0.47883 0.98588 0.62972 0.0
C625 C 0.48543 0.07717 0.63465 0.0
C626 C 0.4926 0.04227 0.63672 0.0
C627 C 0.5168 0.94094 0.63795 0.0
C628 C 0.508 0.97582 0.63824 0.0
H629 H 0.48324 0.14718 0.66117 0.0
H630 H 0.49503 0.08946 0.66503 0.0
H631 H 0.44886 0.02567 0.62201 0.0
H632 H 0.51066 0.87444 0.60841 0.0
H633 H 0.49703 0.93147 0.60894 0.0
C634 C 0.89674 0.97419 0.90225 0.0
C635 C 0.87718 0.98379 0.88654 0.0
C636 C 0.92995 0.98172 0.90231 0.0
C637 C 0.99031 0.03714 0.87831 0.0
H638 H 0.05289 0.97831 0.90012 0.0
C639 C 0.12712 0.04887 0.8633 0.0
C640 C 0.14769 0.048 0.87968 0.0
C641 C 0.09421 0.04118 0.86519 0.0
C642 C 0.03559 0.99504 0.89414 0.0
H643 H 0.87708 1.00736 0.8582 0.0
H644 H 0.93496 0.01949 0.85785 0.0
H645 H 0.99523 0.96376 0.90104 0.0
H646 H 0.15014 0.03792 0.91081 0.0
H647 H 0.09233 0.02382 0.91409 0.0
H648 H 0.03087 0.06783 0.87083 0.0
C649 C 0.92471 1.0073 0.87054 0.0
C650 C 1.00255 0.98681 0.89471 0.0
C651 C 0.89154 1.0002 0.87065 0.0
C652 C 0.13473 0.03898 0.898 0.0
C653 C 0.10181 0.03072 0.89984 0.0
C654 C 0.02328 0.04509 0.87749 0.0
C655 C 0.94433 0.99864 0.88651 0.0
C656 C 0.97948 1.00764 0.88662 0.0
C657 C 0.08124 0.032 0.88346 0.0
C658 C 0.04624 0.02404 0.88526 0.0
H659 H 0.88616 0.96174 0.91475 0.0
H660 H 0.94414 0.97496 0.91496 0.0
H661 H 0.97331 0.05424 0.87242 0.0
H662 H 0.13641 0.05604 0.84906 0.0
H663 H 0.07889 0.04216 0.85232 0.0
loop_
_geom_bond_atom_site_label_1
_geom_bond_atom_site_label_2
_geom_bond_distance
_geom_bond_site_symmetry_2
_ccdc_geom_bond_type
Cu0 N1 1.999 . S
Cu0 O6 1.974 . S
Cu0 N11 1.985 . S
Cu0 O20 1.959 . S
N1 Cu0 1.999 . S
N1 C3 1.263 . S
N1 C5 1.389 . S
N2 C3 1.358 . S
N2 C4 1.400 . S
C3 N1 1.263 . S
C3 N2 1.358 . S
C3 H9 0.930 . S
C4 N2 1.400 . S
C4 C5 1.351 . S
C4 H21 0.930 . S
C5 N1 1.389 . S
C5 C4 1.351 . S
C5 H10 0.930 . S
O6 Cu0 1.974 . S
O6 C16 1.282 . S
C7 O8 1.261 . S
C7 O20 1.251 . S
O8 C7 1.261 . S
H9 C3 0.930 . S
H10 C5 0.930 . S
N11 Cu0 1.985 . S
N11 C13 1.335 . S
N11 C14 1.390 . S
N12 C13 1.345 . S
N12 C15 1.336 . S
C13 N11 1.335 . S
C13 N12 1.345 . S
C13 H18 0.930 . S
C14 N11 1.390 . S
C14 C15 1.346 . S
C14 H19 0.930 . S
C15 N12 1.336 . S
C15 C14 1.346 . S
C15 H22 0.929 . S
C16 O6 1.282 . S
C16 O17 1.216 . S
O17 C16 1.216 . S
H18 C13 0.930 . S
H19 C14 0.930 . S
O20 Cu0 1.959 . S
O20 C7 1.251 . S
H21 C4 0.930 . S
H22 C15 0.929 . S
Cu23 N24 1.999 . S
Cu23 O29 1.974 . S
Cu23 N34 1.985 . S
Cu23 O43 1.959 . S
N24 Cu23 1.999 . S
N24 C26 1.263 . S
N24 C28 1.389 . S
N25 C26 1.358 . S
N25 C27 1.400 . S
C26 N24 1.263 . S
C26 N25 1.358 . S
C26 H32 0.930 . S
C27 N25 1.400 . S
C27 C28 1.351 . S
C27 H44 0.930 . S
C28 N24 1.389 . S
C28 C27 1.351 . S
C28 H33 0.930 . S
O29 Cu23 1.974 . S
O29 C39 1.282 . S
C30 O31 1.261 . S
C30 O43 1.251 . S
O31 C30 1.261 . S
H32 C26 0.930 . S
H33 C28 0.930 . S
N34 Cu23 1.985 . S
N34 C36 1.335 . S
N34 C37 1.390 . S
N35 C36 1.345 . S
N35 C38 1.336 . S
C36 N34 1.335 . S
C36 N35 1.345 . S
C36 H41 0.930 . S
C37 N34 1.390 . S
C37 C38 1.346 . S
C37 H42 0.930 . S
C38 N35 1.336 . S
C38 C37 1.346 . S
C38 H45 0.929 . S
C39 O29 1.282 . S
C39 O40 1.216 . S
O40 C39 1.216 . S
H41 C36 0.930 . S
H42 C37 0.930 . S
O43 Cu23 1.959 . S
O43 C30 1.251 . S
H44 C27 0.930 . S
H45 C38 0.929 . S
Cu46 N47 1.999 . S
Cu46 O52 1.974 . S
Cu46 N57 1.985 . S
Cu46 O66 1.959 . S
N47 Cu46 1.999 . S
N47 C49 1.263 . S
N47 C51 1.389 . S
N48 C49 1.358 . S
N48 C50 1.400 . S
C49 N47 1.263 . S
C49 N48 1.358 . S
C49 H55 0.930 . S
C50 N48 1.400 . S
C50 C51 1.351 . S
C50 H67 0.930 . S
C51 N47 1.389 . S
C51 C50 1.351 . S
C51 H56 0.930 . S
O52 Cu46 1.974 . S
O52 C62 1.282 . S
C53 O54 1.261 . S
C53 O66 1.251 . S
O54 C53 1.261 . S
H55 C49 0.930 . S
H56 C51 0.930 . S
N57 Cu46 1.985 . S
N57 C59 1.335 . S
N57 C60 1.390 . S
N58 C59 1.345 . S
N58 C61 1.336 . S
C59 N57 1.335 . S
C59 N58 1.345 . S
C59 H64 0.930 . S
C60 N57 1.390 . S
C60 C61 1.346 . S
C60 H65 0.930 . S
C61 N58 1.336 . S
C61 C60 1.346 . S
C61 H68 0.929 . S
C62 O52 1.282 . S
C62 O63 1.216 . S
O63 C62 1.216 . S
H64 C59 0.930 . S
H65 C60 0.930 . S
O66 Cu46 1.959 . S
O66 C53 1.251 . S
H67 C50 0.930 . S
H68 C61 0.929 . S
Cu69 N70 1.999 . S
Cu69 O75 1.974 . S
Cu69 N80 1.985 . S
Cu69 O89 1.959 . S
N70 Cu69 1.999 . S
N70 C72 1.263 . S
N70 C74 1.389 . S
N71 C72 1.358 . S
N71 C73 1.400 . S
C72 N70 1.263 . S
C72 N71 1.358 . S
C72 H78 0.930 . S
C73 N71 1.400 . S
C73 C74 1.351 . S
C73 H90 0.930 . S
C74 N70 1.389 . S
C74 C73 1.351 . S
C74 H79 0.930 . S
O75 Cu69 1.974 . S
O75 C85 1.282 . S
C76 O77 1.261 . S
C76 O89 1.251 . S
O77 C76 1.261 . S
H78 C72 0.930 . S
H79 C74 0.930 . S
N80 Cu69 1.985 . S
N80 C82 1.335 . S
N80 C83 1.390 . S
N81 C82 1.345 . S
N81 C84 1.336 . S
C82 N80 1.335 . S
C82 N81 1.345 . S
C82 H87 0.930 . S
C83 N80 1.390 . S
C83 C84 1.346 . S
C83 H88 0.930 . S
C84 N81 1.336 . S
C84 C83 1.346 . S
C84 H91 0.929 . S
C85 O75 1.282 . S
C85 O86 1.216 . S
O86 C85 1.216 . S
H87 C82 0.930 . S
H88 C83 0.930 . S
O89 Cu69 1.959 . S
O89 C76 1.251 . S
H90 C73 0.930 . S
H91 C84 0.929 . S
Cu92 N93 1.999 . S
Cu92 O98 1.974 . S
Cu92 N103 1.985 . S
Cu92 O112 1.959 . S
N93 Cu92 1.999 . S
N93 C95 1.263 . S
N93 C97 1.389 . S
N94 C95 1.358 . S
N94 C96 1.400 . S
C95 N93 1.263 . S
C95 N94 1.358 . S
C95 H101 0.930 . S
C96 N94 1.400 . S
C96 C97 1.351 . S
C96 H113 0.930 . S
C97 N93 1.389 . S
C97 C96 1.351 . S
C97 H102 0.930 . S
O98 Cu92 1.974 . S
O98 C108 1.282 . S
C99 O100 1.261 . S
C99 O112 1.251 . S
O100 C99 1.261 . S
H101 C95 0.930 . S
H102 C97 0.930 . S
N103 Cu92 1.985 . S
N103 C105 1.335 . S
N103 C106 1.390 . S
N104 C105 1.345 . S
N104 C107 1.336 . S
C105 N103 1.335 . S
C105 N104 1.345 . S
C105 H110 0.930 . S
C106 N103 1.390 . S
C106 C107 1.346 . S
C106 H111 0.930 . S
C107 N104 1.336 . S
C107 C106 1.346 . S
C107 H114 0.929 . S
C108 O98 1.282 . S
C108 O109 1.216 . S
O109 C108 1.216 . S
H110 C105 0.930 . S
H111 C106 0.930 . S
O112 Cu92 1.959 . S
O112 C99 1.251 . S
H113 C96 0.930 . S
H114 C107 0.929 . S
Cu115 N116 1.999 . S
Cu115 O121 1.974 . S
Cu115 N126 1.985 . S
Cu115 O135 1.959 . S
N116 Cu115 1.999 . S
N116 C118 1.263 . S
N116 C120 1.389 . S
N117 C118 1.358 . S
N117 C119 1.400 . S
C118 N116 1.263 . S
C118 N117 1.358 . S
C118 H124 0.930 . S
C119 N117 1.400 . S
C119 C120 1.351 . S
C119 H136 0.930 . S
C120 N116 1.389 . S
C120 C119 1.351 . S
C120 H125 0.930 . S
O121 Cu115 1.974 . S
O121 C131 1.282 . S
C122 O123 1.261 . S
C122 O135 1.251 . S
O123 C122 1.261 . S
H124 C118 0.930 . S
H125 C120 0.930 . S
N126 Cu115 1.985 . S
N126 C128 1.335 . S
N126 C129 1.390 . S
N127 C128 1.345 . S
N127 C130 1.336 . S
C128 N126 1.335 . S
C128 N127 1.345 . S
C128 H133 0.930 . S
C129 N126 1.390 . S
C129 C130 1.346 . S
C129 H134 0.930 . S
C130 N127 1.336 . S
C130 C129 1.346 . S
C130 H137 0.929 . S
C131 O121 1.282 . S
C131 O132 1.216 . S
O132 C131 1.216 . S
H133 C128 0.930 . S
H134 C129 0.930 . S
O135 Cu115 1.959 . S
O135 C122 1.251 . S
H136 C119 0.930 . S
H137 C130 0.929 . S
Cu138 N139 1.999 . S
Cu138 O144 1.974 . S
Cu138 N149 1.985 . S
Cu138 O158 1.959 . S
N139 Cu138 1.999 . S
N139 C141 1.263 . S
N139 C143 1.389 . S
N140 C141 1.358 . S
N140 C142 1.400 . S
C141 N139 1.263 . S
C141 N140 1.358 . S
C141 H147 0.930 . S
C142 N140 1.400 . S
C142 C143 1.351 . S
C142 H159 0.930 . S
C143 N139 1.389 . S
C143 C142 1.351 . S
C143 H148 0.930 . S
O144 Cu138 1.974 . S
O144 C154 1.282 . S
C145 O146 1.261 . S
C145 O158 1.251 . S
O146 C145 1.261 . S
H147 C141 0.930 . S
H148 C143 0.930 . S
N149 Cu138 1.985 . S
N149 C151 1.335 . S
N149 C152 1.390 . S
N150 C151 1.345 . S
N150 C153 1.336 . S
C151 N149 1.335 . S
C151 N150 1.345 . S
C151 H156 0.930 . S
C152 N149 1.390 . S
C152 C153 1.346 . S
C152 H157 0.930 . S
C153 N150 1.336 . S
C153 C152 1.346 . S
C153 H160 0.929 . S
C154 O144 1.282 . S
C154 O155 1.216 . S
O155 C154 1.216 . S
H156 C151 0.930 . S
H157 C152 0.930 . S
O158 Cu138 1.959 . S
O158 C145 1.251 . S
H159 C142 0.930 . S
H160 C153 0.929 . S
Cu161 N162 1.999 . S
Cu161 O167 1.974 . S
Cu161 N172 1.985 . S
Cu161 O181 1.959 . S
N162 Cu161 1.999 . S
N162 C164 1.263 . S
N162 C166 1.389 . S
N163 C164 1.358 . S
N163 C165 1.400 . S
C164 N162 1.263 . S
C164 N163 1.358 . S
C164 H170 0.930 . S
C165 N163 1.400 . S
C165 C166 1.351 . S
C165 H182 0.930 . S
C166 N162 1.389 . S
C166 C165 1.351 . S
C166 H171 0.930 . S
O167 Cu161 1.974 . S
O167 C177 1.282 . S
C168 O169 1.261 . S
C168 O181 1.251 . S
O169 C168 1.261 . S
H170 C164 0.930 . S
H171 C166 0.930 . S
N172 Cu161 1.985 . S
N172 C174 1.335 . S
N172 C175 1.390 . S
N173 C174 1.345 . S
N173 C176 1.336 . S
C174 N172 1.335 . S
C174 N173 1.345 . S
C174 H179 0.930 . S
C175 N172 1.390 . S
C175 C176 1.346 . S
C175 H180 0.930 . S
C176 N173 1.336 . S
C176 C175 1.346 . S
C176 H183 0.929 . S
C177 O167 1.282 . S
C177 O178 1.216 . S
O178 C177 1.216 . S
H179 C174 0.930 . S
H180 C175 0.930 . S
O181 Cu161 1.959 . S
O181 C168 1.251 . S
H182 C165 0.930 . S
H183 C176 0.929 . S
C184 C185 1.349 . S
C184 C186 1.327 . S
C184 H209 0.950 . S
C185 C184 1.349 . S
C185 C201 1.349 . S
C186 C184 1.327 . S
C186 C205 1.429 . S
C186 H210 0.950 . S
C187 C204 1.574 1_554 S
C187 C206 1.368 . S
C187 H211 0.949 . S
H188 C192 0.949 . S
C189 C190 1.349 . S
C189 C191 1.327 . S
C189 H212 0.950 . S
C190 C189 1.349 . S
C190 C202 1.349 . S
C191 C189 1.327 . S
C191 C207 1.429 . S
C191 H213 0.950 . S
C192 H188 0.949 . S
C192 C200 1.574 1_556 S
C192 C208 1.368 . S
H193 C201 0.950 . S
H194 C199 0.950 . S
H195 C200 0.949 . S
H196 C202 0.950 . S
H197 C203 0.950 . S
H198 C204 0.949 . S
C199 H194 0.950 . S
C199 C201 1.327 . S
C199 C205 1.429 . S
C200 C192 1.574 1_554 S
C200 H195 0.949 . S
C200 C206 1.368 . S
C201 C185 1.349 . S
C201 H193 0.950 . S
C201 C199 1.327 . S
C202 C190 1.349 . S
C202 H196 0.950 . S
C202 C203 1.327 . S
C203 H197 0.950 . S
C203 C202 1.327 . S
C203 C207 1.429 . S
C204 C187 1.574 1_556 S
C204 H198 0.949 . S
C204 C208 1.368 . S
C205 C186 1.429 . S
C205 C199 1.429 . S
C205 C206 1.523 . S
C206 C187 1.368 . S
C206 C200 1.368 . S
C206 C205 1.523 . S
C207 C191 1.429 . S
C207 C203 1.429 . S
C207 C208 1.523 . S
C208 C192 1.368 . S
C208 C204 1.368 . S
C208 C207 1.523 . S
H209 C184 0.950 . S
H210 C186 0.950 . S
H211 C187 0.949 . S
H212 C189 0.950 . S
H213 C191 0.950 . S
C214 C215 1.349 . S
C214 C216 1.327 . S
C214 H239 0.950 . S
C215 C214 1.349 . S
C215 C231 1.349 . S
C216 C214 1.327 . S
C216 C235 1.429 . S
C216 H240 0.950 . S
C217 C234 1.574 . S
C217 C236 1.368 . S
C217 H241 0.949 . S
H218 C222 0.949 . S
C219 C220 1.349 . S
C219 C221 1.327 . S
C219 H242 0.950 . S
C220 C219 1.349 . S
C220 C232 1.349 . S
C221 C219 1.327 . S
C221 C237 1.429 . S
C221 H243 0.950 . S
C222 H218 0.949 . S
C222 C230 1.574 . S
C222 C238 1.368 . S
H223 C231 0.950 . S
H224 C229 0.950 . S
H225 C230 0.949 . S
H226 C232 0.950 . S
H227 C233 0.950 . S
H228 C234 0.949 . S
C229 H224 0.950 . S
C229 C231 1.327 . S
C229 C235 1.429 . S
C230 C222 1.574 . S
C230 H225 0.949 . S
C230 C236 1.368 . S
C231 C215 1.349 . S
C231 H223 0.950 . S
C231 C229 1.327 . S
C232 C220 1.349 . S
C232 H226 0.950 . S
C232 C233 1.327 . S
C233 H227 0.950 . S
C233 C232 1.327 . S
C233 C237 1.429 . S
C234 C217 1.574 . S
C234 H228 0.949 . S
C234 C238 1.368 . S
C235 C216 1.429 . S
C235 C229 1.429 . S
C235 C236 1.523 . S
C236 C217 1.368 . S
C236 C230 1.368 . S
C236 C235 1.523 . S
C237 C221 1.429 . S
C237 C233 1.429 . S
C237 C238 1.523 . S
C238 C222 1.368 . S
C238 C234 1.368 . S
C238 C237 1.523 . S
H239 C214 0.950 . S
H240 C216 0.950 . S
H241 C217 0.949 . S
H242 C219 0.950 . S
H243 C221 0.950 . S
C244 C245 1.349 . S
C244 C246 1.327 . S
C244 H269 0.950 . S
C245 C244 1.349 . S
C245 C261 1.349 . S
C246 C244 1.327 . S
C246 C265 1.429 . S
C246 H270 0.950 . S
C247 C264 1.574 . S
C247 C266 1.368 . S
C247 H271 0.949 . S
H248 C252 0.949 . S
C249 C250 1.349 . S
C249 C251 1.327 . S
C249 H272 0.950 . S
C250 C249 1.349 . S
C250 C262 1.349 . S
C251 C249 1.327 . S
C251 C267 1.429 . S
C251 H273 0.950 . S
C252 H248 0.949 . S
C252 C260 1.574 . S
C252 C268 1.368 . S
H253 C261 0.950 . S
H254 C259 0.950 . S
H255 C260 0.949 . S
H256 C262 0.950 . S
H257 C263 0.950 . S
H258 C264 0.949 . S
C259 H254 0.950 . S
C259 C261 1.327 . S
C259 C265 1.429 . S
C260 C252 1.574 . S
C260 H255 0.949 . S
C260 C266 1.368 . S
C261 C245 1.349 . S
C261 H253 0.950 . S
C261 C259 1.327 . S
C262 C250 1.349 . S
C262 H256 0.950 . S
C262 C263 1.327 . S
C263 H257 0.950 . S
C263 C262 1.327 . S
C263 C267 1.429 . S
C264 C247 1.574 . S
C264 H258 0.949 . S
C264 C268 1.368 . S
C265 C246 1.429 . S
C265 C259 1.429 . S
C265 C266 1.523 . S
C266 C247 1.368 . S
C266 C260 1.368 . S
C266 C265 1.523 . S
C267 C251 1.429 . S
C267 C263 1.429 . S
C267 C268 1.523 . S
C268 C252 1.368 . S
C268 C264 1.368 . S
C268 C267 1.523 . S
H269 C244 0.950 . S
H270 C246 0.950 . S
H271 C247 0.949 . S
H272 C249 0.950 . S
H273 C251 0.950 . S
C274 C275 1.349 . S
C274 C276 1.327 . S
C274 H299 0.950 . S
C275 C274 1.349 . S
C275 C291 1.349 . S
C276 C274 1.327 . S
C276 C295 1.429 . S
C276 H300 0.950 . S
C277 C294 1.574 . S
C277 C296 1.368 . S
C277 H301 0.949 . S
H278 C282 0.949 . S
C279 C280 1.349 . S
C279 C281 1.327 . S
C279 H302 0.950 . S
C280 C279 1.349 . S
C280 C292 1.349 . S
C281 C279 1.327 . S
C281 C297 1.429 . S
C281 H303 0.950 . S
C282 H278 0.949 . S
C282 C290 1.574 . S
C282 C298 1.368 . S
H283 C291 0.950 . S
H284 C289 0.950 . S
H285 C290 0.949 . S
H286 C292 0.950 . S
H287 C293 0.950 . S
H288 C294 0.949 . S
C289 H284 0.950 . S
C289 C291 1.327 . S
C289 C295 1.429 . S
C290 C282 1.574 . S
C290 H285 0.949 . S
C290 C296 1.368 . S
C291 C275 1.349 . S
C291 H283 0.950 . S
C291 C289 1.327 . S
C292 C280 1.349 . S
C292 H286 0.950 . S
C292 C293 1.327 . S
C293 H287 0.950 . S
C293 C292 1.327 . S
C293 C297 1.429 . S
C294 C277 1.574 . S
C294 H288 0.949 . S
C294 C298 1.368 . S
C295 C276 1.429 . S
C295 C289 1.429 . S
C295 C296 1.523 . S
C296 C277 1.368 . S
C296 C290 1.368 . S
C296 C295 1.523 . S
C297 C281 1.429 . S
C297 C293 1.429 . S
C297 C298 1.523 . S
C298 C282 1.368 . S
C298 C294 1.368 . S
C298 C297 1.523 . S
H299 C274 0.950 . S
H300 C276 0.950 . S
H301 C277 0.949 . S
H302 C279 0.950 . S
H303 C281 0.950 . S
C304 C305 1.349 . S
C304 C306 1.327 . S
C304 H329 0.950 . S
C305 C304 1.349 . S
C305 C321 1.349 . S
C306 C304 1.327 . S
C306 C325 1.429 . S
C306 H330 0.950 . S
C307 C324 1.574 . S
C307 C326 1.368 . S
C307 H331 0.949 . S
H308 C312 0.949 . S
C309 C310 1.349 . S
C309 C311 1.327 . S
C309 H332 0.950 . S
C310 C309 1.349 . S
C310 C322 1.349 . S
C311 C309 1.327 . S
C311 C327 1.429 . S
C311 H333 0.950 . S
C312 H308 0.949 . S
C312 C320 1.574 . S
C312 C328 1.368 . S
H313 C321 0.950 . S
H314 C319 0.950 . S
H315 C320 0.949 . S
H316 C322 0.950 . S
H317 C323 0.950 . S
H318 C324 0.949 . S
C319 H314 0.950 . S
C319 C321 1.327 . S
C319 C325 1.429 . S
C320 C312 1.574 . S
C320 H315 0.949 . S
C320 C326 1.368 . S
C321 C305 1.349 . S
C321 H313 0.950 . S
C321 C319 1.327 . S
C322 C310 1.349 . S
C322 H316 0.950 . S
C322 C323 1.327 . S
C323 H317 0.950 . S
C323 C322 1.327 . S
C323 C327 1.429 . S
C324 C307 1.574 . S
C324 H318 0.949 . S
C324 C328 1.368 . S
C325 C306 1.429 . S
C325 C319 1.429 . S
C325 C326 1.523 . S
C326 C307 1.368 . S
C326 C320 1.368 . S
C326 C325 1.523 . S
C327 C311 1.429 . S
C327 C323 1.429 . S
C327 C328 1.523 . S
C328 C312 1.368 . S
C328 C324 1.368 . S
C328 C327 1.523 . S
H329 C304 0.950 . S
H330 C306 0.950 . S
H331 C307 0.949 . S
H332 C309 0.950 . S
H333 C311 0.950 . S
C334 C335 1.349 . S
C334 C336 1.327 . S
C334 H359 0.950 . S
C335 C334 1.349 . S
C335 C351 1.349 . S
C336 C334 1.327 . S
C336 C355 1.429 . S
C336 H360 0.950 . S
C337 C354 1.574 . S
C337 C356 1.368 . S
C337 H361 0.949 . S
H338 C342 0.949 . S
C339 C340 1.349 . S
C339 C341 1.327 . S
C339 H362 0.950 . S
C340 C339 1.349 . S
C340 C352 1.349 . S
C341 C339 1.327 . S
C341 C357 1.429 . S
C341 H363 0.950 . S
C342 H338 0.949 . S
C342 C350 1.574 . S
C342 C358 1.368 . S
H343 C351 0.950 . S
H344 C349 0.950 . S
H345 C350 0.949 . S
H346 C352 0.950 . S
H347 C353 0.950 . S
H348 C354 0.949 . S
C349 H344 0.950 . S
C349 C351 1.327 . S
C349 C355 1.429 . S
C350 C342 1.574 . S
C350 H345 0.949 . S
C350 C356 1.368 . S
C351 C335 1.349 . S
C351 H343 0.950 . S
C351 C349 1.327 . S
C352 C340 1.349 . S
C352 H346 0.950 . S
C352 C353 1.327 . S
C353 H347 0.950 . S
C353 C352 1.327 . S
C353 C357 1.429 . S
C354 C337 1.574 . S
C354 H348 0.949 . S
C354 C358 1.368 . S
C355 C336 1.429 . S
C355 C349 1.429 . S
C355 C356 1.523 . S
C356 C337 1.368 . S
C356 C350 1.368 . S
C356 C355 1.523 . S
C357 C341 1.429 . S
C357 C353 1.429 . S
C357 C358 1.523 . S
C358 C342 1.368 . S
C358 C354 1.368 . S
C358 C357 1.523 . S
H359 C334 0.950 . S
H360 C336 0.950 . S
H361 C337 0.949 . S
H362 C339 0.950 . S
H363 C341 0.950 . S
C364 C365 1.349 . S
C364 C366 1.327 . S
C364 H389 0.950 . S
C365 C364 1.349 . S
C365 C381 1.349 . S
C366 C364 1.327 . S
C366 C385 1.429 . S
C366 H390 0.950 . S
C367 C384 1.574 . S
C367 C386 1.368 . S
C367 H391 0.949 . S
H368 C372 0.949 . S
C369 C370 1.349 . S
C369 C371 1.327 . S
C369 H392 0.950 . S
C370 C369 1.349 . S
C370 C382 1.349 . S
C371 C369 1.327 . S
C371 C387 1.429 . S
C371 H393 0.950 . S
C372 H368 0.949 . S
C372 C380 1.574 . S
C372 C388 1.368 . S
H373 C381 0.950 . S
H374 C379 0.950 . S
H375 C380 0.949 . S
H376 C382 0.950 . S
H377 C383 0.950 . S
H378 C384 0.949 . S
C379 H374 0.950 . S
C379 C381 1.327 . S
C379 C385 1.429 . S
C380 C372 1.574 . S
C380 H375 0.949 . S
C380 C386 1.368 . S
C381 C365 1.349 . S
C381 H373 0.950 . S
C381 C379 1.327 . S
C382 C370 1.349 . S
C382 H376 0.950 . S
C382 C383 1.327 . S
C383 H377 0.950 . S
C383 C382 1.327 . S
C383 C387 1.429 . S
C384 C367 1.574 . S
C384 H378 0.949 . S
C384 C388 1.368 . S
C385 C366 1.429 . S
C385 C379 1.429 . S
C385 C386 1.523 . S
C386 C367 1.368 . S
C386 C380 1.368 . S
C386 C385 1.523 . S
C387 C371 1.429 . S
C387 C383 1.429 . S
C387 C388 1.523 . S
C388 C372 1.368 . S
C388 C384 1.368 . S
C388 C387 1.523 . S
H389 C364 0.950 . S
H390 C366 0.950 . S
H391 C367 0.949 . S
H392 C369 0.950 . S
H393 C371 0.950 . S
C394 C395 1.349 . S
C394 C396 1.327 . S
C394 H419 0.950 . S
C395 C394 1.349 . S
C395 C411 1.349 . S
C396 C394 1.327 . S
C396 C415 1.429 . S
C396 H420 0.950 . S
C397 C414 1.574 1_554 S
C397 C416 1.368 . S
C397 H421 0.949 . S
H398 C402 0.949 . S
C399 C400 1.349 . S
C399 C401 1.327 . S
C399 H422 0.950 . S
C400 C399 1.349 . S
C400 C412 1.349 . S
C401 C399 1.327 . S
C401 C417 1.429 . S
C401 H423 0.950 . S
C402 H398 0.949 . S
C402 C410 1.574 1_556 S
C402 C418 1.368 . S
H403 C411 0.950 . S
H404 C409 0.950 . S
H405 C410 0.949 . S
H406 C412 0.950 . S
H407 C413 0.950 . S
H408 C414 0.949 . S
C409 H404 0.950 . S
C409 C411 1.327 . S
C409 C415 1.429 . S
C410 C402 1.574 1_554 S
C410 H405 0.949 . S
C410 C416 1.368 . S
C411 C395 1.349 . S
C411 H403 0.950 . S
C411 C409 1.327 . S
C412 C400 1.349 . S
C412 H406 0.950 . S
C412 C413 1.327 . S
C413 H407 0.950 . S
C413 C412 1.327 . S
C413 C417 1.429 . S
C414 C397 1.574 1_556 S
C414 H408 0.949 . S
C414 C418 1.368 . S
C415 C396 1.429 . S
C415 C409 1.429 . S
C415 C416 1.523 . S
C416 C397 1.368 . S
C416 C410 1.368 . S
C416 C415 1.523 . S
C417 C401 1.429 . S
C417 C413 1.429 . S
C417 C418 1.523 . S
C418 C402 1.368 . S
C418 C414 1.368 . S
C418 C417 1.523 . S
H419 C394 0.950 . S
H420 C396 0.950 . S
H421 C397 0.949 . S
H422 C399 0.950 . S
H423 C401 0.950 . S
C424 C425 1.349 . S
C424 C426 1.327 . S
C424 H449 0.950 . S
C425 C424 1.349 . S
C425 C441 1.349 . S
C426 C424 1.327 . S
C426 C445 1.429 . S
C426 H450 0.950 . S
C427 C444 1.574 1_545 S
C427 C446 1.368 1_655 S
C427 H451 0.949 . S
H428 C432 0.949 . S
C429 C430 1.349 . S
C429 C431 1.327 . S
C429 H452 0.950 . S
C430 C429 1.349 . S
C430 C442 1.349 . S
C431 C429 1.327 . S
C431 C447 1.429 . S
C431 H453 0.950 . S
C432 H428 0.949 . S
C432 C440 1.574 1_565 S
C432 C448 1.368 1_455 S
H433 C441 0.950 . S
H434 C439 0.950 . S
H435 C440 0.949 . S
H436 C442 0.950 . S
H437 C443 0.950 . S
H438 C444 0.949 . S
C439 H434 0.950 . S
C439 C441 1.327 . S
C439 C445 1.429 . S
C440 C432 1.574 1_545 S
C440 H435 0.949 . S
C440 C446 1.368 . S
C441 C425 1.349 . S
C441 H433 0.950 . S
C441 C439 1.327 . S
C442 C430 1.349 . S
C442 H436 0.950 . S
C442 C443 1.327 . S
C443 H437 0.950 . S
C443 C442 1.327 . S
C443 C447 1.429 . S
C444 C427 1.574 1_565 S
C444 H438 0.949 . S
C444 C448 1.368 . S
C445 C426 1.429 . S
C445 C439 1.429 . S
C445 C446 1.523 . S
C446 C427 1.368 1_455 S
C446 C440 1.368 . S
C446 C445 1.523 . S
C447 C431 1.429 . S
C447 C443 1.429 . S
C447 C448 1.523 . S
C448 C432 1.368 1_655 S
C448 C444 1.368 . S
C448 C447 1.523 . S
H449 C424 0.950 . S
H450 C426 0.950 . S
H451 C427 0.949 . S
H452 C429 0.950 . S
H453 C431 0.950 . S
C454 C455 1.349 . S
C454 C456 1.327 . S
C454 H479 0.950 . S
C455 C454 1.349 . S
C455 C471 1.349 . S
C456 C454 1.327 . S
C456 C475 1.429 . S
C456 H480 0.950 . S
C457 C474 1.574 1_455 S
C457 C476 1.368 . S
C457 H481 0.949 . S
H458 C462 0.949 . S
C459 C460 1.349 . S
C459 C461 1.327 . S
C459 H482 0.950 . S
C460 C459 1.349 . S
C460 C472 1.349 . S
C461 C459 1.327 . S
C461 C477 1.429 . S
C461 H483 0.950 . S
C462 H458 0.949 . S
C462 C470 1.574 1_655 S
C462 C478 1.368 . S
H463 C471 0.950 . S
H464 C469 0.950 . S
H465 C470 0.949 . S
H466 C472 0.950 . S
H467 C473 0.950 . S
H468 C474 0.949 . S
C469 H464 0.950 . S
C469 C471 1.327 . S
C469 C475 1.429 . S
C470 C462 1.574 1_455 S
C470 H465 0.949 . S
C470 C476 1.368 . S
C471 C455 1.349 . S
C471 H463 0.950 . S
C471 C469 1.327 . S
C472 C460 1.349 . S
C472 H466 0.950 . S
C472 C473 1.327 . S
C473 H467 0.950 . S
C473 C472 1.327 . S
C473 C477 1.429 . S
C474 C457 1.574 1_655 S
C474 H468 0.949 . S
C474 C478 1.368 . S
C475 C456 1.429 . S
C475 C469 1.429 . S
C475 C476 1.523 . S
C476 C457 1.368 . S
C476 C470 1.368 . S
C476 C475 1.523 . S
C477 C461 1.429 . S
C477 C473 1.429 . S
C477 C478 1.523 . S
C478 C462 1.368 . S
C478 C474 1.368 . S
C478 C477 1.523 . S
H479 C454 0.950 . S
H480 C456 0.950 . S
H481 C457 0.949 . S
H482 C459 0.950 . S
H483 C461 0.950 . S
C484 C485 1.349 . S
C484 C486 1.327 . S
C484 H509 0.950 . S
C485 C484 1.349 . S
C485 C501 1.349 . S
C486 C484 1.327 . S
C486 C505 1.429 . S
C486 H510 0.950 . S
C487 C504 1.574 . S
C487 C506 1.368 . S
C487 H511 0.949 . S
H488 C492 0.949 . S
C489 C490 1.349 . S
C489 C491 1.327 . S
C489 H512 0.950 . S
C490 C489 1.349 . S
C490 C502 1.349 . S
C491 C489 1.327 . S
C491 C507 1.429 . S
C491 H513 0.950 . S
C492 H488 0.949 . S
C492 C500 1.574 . S
C492 C508 1.368 . S
H493 C501 0.950 . S
H494 C499 0.950 . S
H495 C500 0.949 . S
H496 C502 0.950 . S
H497 C503 0.950 . S
H498 C504 0.949 . S
C499 H494 0.950 . S
C499 C501 1.327 . S
C499 C505 1.429 . S
C500 C492 1.574 . S
C500 H495 0.949 . S
C500 C506 1.368 . S
C501 C485 1.349 . S
C501 H493 0.950 . S
C501 C499 1.327 . S
C502 C490 1.349 . S
C502 H496 0.950 . S
C502 C503 1.327 . S
C503 H497 0.950 . S
C503 C502 1.327 . S
C503 C507 1.429 . S
C504 C487 1.574 . S
C504 H498 0.949 . S
C504 C508 1.368 . S
C505 C486 1.429 . S
C505 C499 1.429 . S
C505 C506 1.523 . S
C506 C487 1.368 . S
C506 C500 1.368 . S
C506 C505 1.523 . S
C507 C491 1.429 . S
C507 C503 1.429 . S
C507 C508 1.523 . S
C508 C492 1.368 . S
C508 C504 1.368 . S
C508 C507 1.523 . S
H509 C484 0.950 . S
H510 C486 0.950 . S
H511 C487 0.949 . S
H512 C489 0.950 . S
H513 C491 0.950 . S
C514 C515 1.349 . S
C514 C516 1.327 . S
C514 H539 0.950 . S
C515 C514 1.349 . S
C515 C531 1.349 . S
C516 C514 1.327 . S
C516 C535 1.429 . S
C516 H540 0.950 . S
C517 C534 1.574 . S
C517 C536 1.368 1_545 S
C517 H541 0.949 . S
H518 C522 0.949 . S
C519 C520 1.349 . S
C519 C521 1.327 . S
C519 H542 0.950 . S
C520 C519 1.349 . S
C520 C532 1.349 . S
C521 C519 1.327 . S
C521 C537 1.429 . S
C521 H543 0.950 . S
C522 H518 0.949 . S
C522 C530 1.574 . S
C522 C538 1.368 1_565 S
H523 C531 0.950 . S
H524 C529 0.950 . S
H525 C530 0.949 . S
H526 C532 0.950 . S
H527 C533 0.950 . S
H528 C534 0.949 . S
C529 H524 0.950 . S
C529 C531 1.327 . S
C529 C535 1.429 . S
C530 C522 1.574 . S
C530 H525 0.949 . S
C530 C536 1.368 . S
C531 C515 1.349 . S
C531 H523 0.950 . S
C531 C529 1.327 . S
C532 C520 1.349 . S
C532 H526 0.950 . S
C532 C533 1.327 . S
C533 H527 0.950 . S
C533 C532 1.327 . S
C533 C537 1.429 . S
C534 C517 1.574 . S
C534 H528 0.949 . S
C534 C538 1.368 . S
C535 C516 1.429 . S
C535 C529 1.429 . S
C535 C536 1.523 . S
C536 C517 1.368 1_565 S
C536 C530 1.368 . S
C536 C535 1.523 . S
C537 C521 1.429 . S
C537 C533 1.429 . S
C537 C538 1.523 . S
C538 C522 1.368 1_545 S
C538 C534 1.368 . S
C538 C537 1.523 . S
H539 C514 0.950 . S
H540 C516 0.950 . S
H541 C517 0.949 . S
H542 C519 0.950 . S
H543 C521 0.950 . S
C544 C545 1.349 . S
C544 C546 1.327 . S
C544 H569 0.950 . S
C545 C544 1.349 . S
C545 C561 1.349 . S
C546 C544 1.327 . S
C546 C565 1.429 . S
C546 H570 0.950 . S
C547 C564 1.574 . S
C547 C566 1.368 1_455 S
C547 H571 0.949 . S
H548 C552 0.949 . S
C549 C550 1.349 . S
C549 C551 1.327 . S
C549 H572 0.950 . S
C550 C549 1.349 . S
C550 C562 1.349 . S
C551 C549 1.327 . S
C551 C567 1.429 . S
C551 H573 0.950 . S
C552 H548 0.949 . S
C552 C560 1.574 . S
C552 C568 1.368 1_655 S
H553 C561 0.950 . S
H554 C559 0.950 . S
H555 C560 0.949 . S
H556 C562 0.950 . S
H557 C563 0.950 . S
H558 C564 0.949 . S
C559 H554 0.950 . S
C559 C561 1.327 . S
C559 C565 1.429 . S
C560 C552 1.574 . S
C560 H555 0.949 . S
C560 C566 1.368 . S
C561 C545 1.349 . S
C561 H553 0.950 . S
C561 C559 1.327 . S
C562 C550 1.349 . S
C562 H556 0.950 . S
C562 C563 1.327 . S
C563 H557 0.950 . S
C563 C562 1.327 . S
C563 C567 1.429 . S
C564 C547 1.574 . S
C564 H558 0.949 . S
C564 C568 1.368 . S
C565 C546 1.429 . S
C565 C559 1.429 . S
C565 C566 1.523 . S
C566 C547 1.368 1_655 S
C566 C560 1.368 . S
C566 C565 1.523 . S
C567 C551 1.429 . S
C567 C563 1.429 . S
C567 C568 1.523 . S
C568 C552 1.368 1_455 S
C568 C564 1.368 . S
C568 C567 1.523 . S
H569 C544 0.950 . S
H570 C546 0.950 . S
H571 C547 0.949 . S
H572 C549 0.950 . S
H573 C551 0.950 . S
C574 C575 1.349 . S
C574 C576 1.327 . S
C574 H599 0.950 . S
C575 C574 1.349 . S
C575 C591 1.349 . S
C576 C574 1.327 . S
C576 C595 1.429 . S
C576 H600 0.950 . S
C577 C594 1.574 . S
C577 C596 1.368 . S
C577 H601 0.949 . S
H578 C582 0.949 . S
C579 C580 1.349 . S
C579 C581 1.327 . S
C579 H602 0.950 . S
C580 C579 1.349 . S
C580 C592 1.349 . S
C581 C579 1.327 . S
C581 C597 1.429 . S
C581 H603 0.950 . S
C582 H578 0.949 . S
C582 C590 1.574 . S
C582 C598 1.368 . S
H583 C591 0.950 . S
H584 C589 0.950 . S
H585 C590 0.949 . S
H586 C592 0.950 . S
H587 C593 0.950 . S
H588 C594 0.949 . S
C589 H584 0.950 . S
C589 C591 1.327 . S
C589 C595 1.429 . S
C590 C582 1.574 . S
C590 H585 0.949 . S
C590 C596 1.368 . S
C591 C575 1.349 . S
C591 H583 0.950 . S
C591 C589 1.327 . S
C592 C580 1.349 . S
C592 H586 0.950 . S
C592 C593 1.327 . S
C593 H587 0.950 . S
C593 C592 1.327 . S
C593 C597 1.429 . S
C594 C577 1.574 . S
C594 H588 0.949 . S
C594 C598 1.368 . S
C595 C576 1.429 . S
C595 C589 1.429 . S
C595 C596 1.523 . S
C596 C577 1.368 . S
C596 C590 1.368 . S
C596 C595 1.523 . S
C597 C581 1.429 . S
C597 C593 1.429 . S
C597 C598 1.523 . S
C598 C582 1.368 . S
C598 C594 1.368 . S
C598 C597 1.523 . S
H599 C574 0.950 . S
H600 C576 0.950 . S
H601 C577 0.949 . S
H602 C579 0.950 . S
H603 C581 0.950 . S
C604 C605 1.349 . S
C604 C606 1.327 . S
C604 H629 0.950 . S
C605 C604 1.349 . S
C605 C621 1.349 . S
C606 C604 1.327 . S
C606 C625 1.429 . S
C606 H630 0.950 . S
C607 C624 1.574 1_545 S
C607 C626 1.368 . S
C607 H631 0.949 . S
H608 C612 0.949 . S
C609 C610 1.349 . S
C609 C611 1.327 . S
C609 H632 0.950 . S
C610 C609 1.349 . S
C610 C622 1.349 . S
C611 C609 1.327 . S
C611 C627 1.429 . S
C611 H633 0.950 . S
C612 H608 0.949 . S
C612 C620 1.574 1_565 S
C612 C628 1.368 . S
H613 C621 0.950 . S
H614 C619 0.950 . S
H615 C620 0.949 . S
H616 C622 0.950 . S
H617 C623 0.950 . S
H618 C624 0.949 . S
C619 H614 0.950 . S
C619 C621 1.327 . S
C619 C625 1.429 . S
C620 C612 1.574 1_545 S
C620 H615 0.949 . S
C620 C626 1.368 . S
C621 C605 1.349 . S
C621 H613 0.950 . S
C621 C619 1.327 . S
C622 C610 1.349 . S
C622 H616 0.950 . S
C622 C623 1.327 . S
C623 H617 0.950 . S
C623 C622 1.327 . S
C623 C627 1.429 . S
C624 C607 1.574 1_565 S
C624 H618 0.949 . S
C624 C628 1.368 . S
C625 C606 1.429 . S
C625 C619 1.429 . S
C625 C626 1.523 . S
C626 C607 1.368 . S
C626 C620 1.368 . S
C626 C625 1.523 . S
C627 C611 1.429 . S
C627 C623 1.429 . S
C627 C628 1.523 . S
C628 C612 1.368 . S
C628 C624 1.368 . S
C628 C627 1.523 . S
H629 C604 0.950 . S
H630 C606 0.950 . S
H631 C607 0.949 . S
H632 C609 0.950 . S
H633 C611 0.950 . S
C634 C635 1.349 . S
C634 C636 1.327 . S
C634 H659 0.950 . S
C635 C634 1.349 . S
C635 C651 1.349 . S
C636 C634 1.327 . S
C636 C655 1.429 . S
C636 H660 0.950 . S
C637 C654 1.574 1_655 S
C637 C656 1.368 1_545 S
C637 H661 0.949 . S
H638 C642 0.949 . S
C639 C640 1.349 . S
C639 C641 1.327 . S
C639 H662 0.950 . S
C640 C639 1.349 . S
C640 C652 1.349 . S
C641 C639 1.327 . S
C641 C657 1.429 . S
C641 H663 0.950 . S
C642 H638 0.949 . S
C642 C650 1.574 1_455 S
C642 C658 1.368 1_565 S
H643 C651 0.950 . S
H644 C649 0.950 . S
H645 C650 0.949 . S
H646 C652 0.950 . S
H647 C653 0.950 . S
H648 C654 0.949 . S
C649 H644 0.950 . S
C649 C651 1.327 . S
C649 C655 1.429 . S
C650 C642 1.574 1_655 S
C650 H645 0.949 . S
C650 C656 1.368 . S
C651 C635 1.349 . S
C651 H643 0.950 . S
C651 C649 1.327 . S
C652 C640 1.349 . S
C652 H646 0.950 . S
C652 C653 1.327 . S
C653 H647 0.950 . S
C653 C652 1.327 . S
C653 C657 1.429 . S
C654 C637 1.574 1_455 S
C654 H648 0.949 . S
C654 C658 1.368 . S
C655 C636 1.429 . S
C655 C649 1.429 . S
C655 C656 1.523 . S
C656 C637 1.368 1_565 S
C656 C650 1.368 . S
C656 C655 1.523 . S
C657 C641 1.429 . S
C657 C653 1.429 . S
C657 C658 1.523 . S
C658 C642 1.368 1_545 S
C658 C654 1.368 . S
C658 C657 1.523 . S
H659 C634 0.950 . S
H660 C636 0.950 . S
H661 C637 0.949 . S
H662 C639 0.950 . S
H663 C641 0.950 . S
C185 C16 1.903 . S
C190 C131 1.903 . S
C215 C30 1.949 . S
C220 C145 1.949 . S
C245 C62 1.903 . S
C250 C177 1.903 . S
C275 C76 1.949 . S
C280 C99 1.949 . S
C305 C168 1.949 . S
C310 C7 1.949 . S
C335 C108 1.903 . S
C340 C39 1.903 . S
C365 C53 1.949 . S
C370 C122 1.949 . S
C395 C154 1.903 . S
C400 C85 1.903 . S
C425 N2 1.664 . S
C430 N140 1.664 . S
C455 N173 1.790 . S
C460 N35 1.790 . S
C485 N48 1.664 . S
C490 N94 1.664 . S
C515 N81 1.790 . S
C520 N127 1.790 . S
C545 N150 1.790 . S
C550 N12 1.790 . S
C575 N163 1.664 . S
C580 N25 1.664 . S
C605 N58 1.790 . S
C610 N104 1.790 . S
C635 N71 1.664 . S
C640 N117 1.664 . S
