# Generated by pormake.
# Topology wjy, (5)-cn, num edge types: 1
# Building blocks:
#     Node 0, Type 0, BuildingBlock: XOMCOT_clean_sbu_0, # of connection points: 5
#     Node 1, Type 0, BuildingBlock: XOMCOT_clean_sbu_0, # of connection points: 5
#     Node 2, Type 0, BuildingBlock: XOMCOT_clean_sbu_0, # of connection points: 5
#     Node 3, Type 0, BuildingBlock: XOMCOT_clean_sbu_0, # of connection points: 5
#     Node 4, Type 0, BuildingBlock: XOMCOT_clean_sbu_0, # of connection points: 5
#     Node 5, Type 0, BuildingBlock: XOMCOT_clean_sbu_0, # of connection points: 5
#     Node 6, Type 0, BuildingBlock: XOMCOT_clean_sbu_0, # of connection points: 5
#     Node 7, Type 0, BuildingBlock: XOMCOT_clean_sbu_0, # of connection points: 5
#     Node 8, Type 0, BuildingBlock: XOMCOT_clean_sbu_0, # of connection points: 5
#     Node 9, Type 0, BuildingBlock: XOMCOT_clean_sbu_0, # of connection points: 5
#     Node 10, Type 0, BuildingBlock: XOMCOT_clean_sbu_0, # of connection points: 5
#     Node 11, Type 0, BuildingBlock: XOMCOT_clean_sbu_0, # of connection points: 5
#     Edge 12, Type (0, 0), BuildingBlock: TEMPAE_clean_linker_10, # of connection points: 2
#     Edge 13, Type (0, 0), BuildingBlock: TEMPAE_clean_linker_10, # of connection points: 2
#     Edge 14, Type (0, 0), BuildingBlock: TEMPAE_clean_linker_10, # of connection points: 2
#     Edge 15, Type (0, 0), BuildingBlock: TEMPAE_clean_linker_10, # of connection points: 2
#     Edge 16, Type (0, 0), BuildingBlock: TEMPAE_clean_linker_10, # of connection points: 2
#     Edge 17, Type (0, 0), BuildingBlock: TEMPAE_clean_linker_10, # of connection points: 2
#     Edge 18, Type (0, 0), BuildingBlock: TEMPAE_clean_linker_10, # of connection points: 2
#     Edge 19, Type (0, 0), BuildingBlock: TEMPAE_clean_linker_10, # of connection points: 2
#     Edge 20, Type (0, 0), BuildingBlock: TEMPAE_clean_linker_10, # of connection points: 2
#     Edge 21, Type (0, 0), BuildingBlock: TEMPAE_clean_linker_10, # of connection points: 2
#     Edge 22, Type (0, 0), BuildingBlock: TEMPAE_clean_linker_10, # of connection points: 2
#     Edge 23, Type (0, 0), BuildingBlock: TEMPAE_clean_linker_10, # of connection points: 2
#     Edge 24, Type (0, 0), BuildingBlock: TEMPAE_clean_linker_10, # of connection points: 2
#     Edge 25, Type (0, 0), BuildingBlock: TEMPAE_clean_linker_10, # of connection points: 2
#     Edge 26, Type (0, 0), BuildingBlock: TEMPAE_clean_linker_10, # of connection points: 2
#     Edge 27, Type (0, 0), BuildingBlock: TEMPAE_clean_linker_10, # of connection points: 2
#     Edge 28, Type (0, 0), BuildingBlock: TEMPAE_clean_linker_10, # of connection points: 2
#     Edge 29, Type (0, 0), BuildingBlock: TEMPAE_clean_linker_10, # of connection points: 2
#     Edge 30, Type (0, 0), BuildingBlock: TEMPAE_clean_linker_10, # of connection points: 2
#     Edge 31, Type (0, 0), BuildingBlock: TEMPAE_clean_linker_10, # of connection points: 2
#     Edge 32, Type (0, 0), BuildingBlock: TEMPAE_clean_linker_10, # of connection points: 2
#     Edge 33, Type (0, 0), BuildingBlock: TEMPAE_clean_linker_10, # of connection points: 2
#     Edge 34, Type (0, 0), BuildingBlock: TEMPAE_clean_linker_10, # of connection points: 2
#     Edge 35, Type (0, 0), BuildingBlock: TEMPAE_clean_linker_10, # of connection points: 2
#     Edge 36, Type (0, 0), BuildingBlock: TEMPAE_clean_linker_10, # of connection points: 2
#     Edge 37, Type (0, 0), BuildingBlock: TEMPAE_clean_linker_10, # of connection points: 2
#     Edge 38, Type (0, 0), BuildingBlock: TEMPAE_clean_linker_10, # of connection points: 2
#     Edge 39, Type (0, 0), BuildingBlock: TEMPAE_clean_linker_10, # of connection points: 2
#     Edge 40, Type (0, 0), BuildingBlock: TEMPAE_clean_linker_10, # of connection points: 2
#     Edge 41, Type (0, 0), BuildingBlock: TEMPAE_clean_linker_10, # of connection points: 2
# Relax obj value: 0.079
# Max RMSD: 0.164
# Mean RMSD: 0.164
data_MOF--net-wjy--node1-XOMCOT_clean_sbu_0--edge1-TEMPAE_clean_linker_10
_symmetry_space_group_name_H-M    P1
_symmetry_Int_Tables_number       1
_symmetry_cell_setting            triclinic
loop_
_symmetry_equiv_pos_as_xyz
'x, y, z'
_cell_length_a     76.516608
_cell_length_b     76.496423
_cell_length_c     17.852121
_cell_angle_alpha  90.005142
_cell_angle_beta   90.040817
_cell_angle_gamma 120.03662
loop_
_atom_site_label
_atom_site_type_symbol
_atom_site_fract_x
_atom_site_fract_y
_atom_site_fract_z
_atom_type_partial_charge
Co0 Co 0.45951 0.10096 0.11296 0.0
C1 C 0.46341 0.10395 0.94483 0.0
C2 C 0.48379 0.09621 0.99731 0.0
C3 C 0.48553 0.09523 0.92104 0.0
N4 N 0.47019 0.10204 0.01275 0.0
N5 N 0.47271 0.1001 0.88813 0.0
H6 H 0.45098 0.10655 0.9361 0.0
H7 H 0.49134 0.09206 0.03895 0.0
C8 C 0.50385 0.12806 0.12587 0.0
O9 O 0.50279 0.13725 0.06529 0.0
N10 N 0.44879 0.09904 0.21255 0.0
C11 C 0.43132 0.09834 0.22982 0.0
C12 C 0.42919 0.09742 0.30653 0.0
C13 C 0.45712 0.09862 0.27874 0.0
N14 N 0.44543 0.09766 0.33718 0.0
C15 C 0.44945 0.13014 0.05372 0.0
C16 C 0.47263 0.16024 0.15516 0.0
C17 C 0.46165 0.1641 0.10124 0.0
C18 C 0.44981 0.14861 0.05025 0.0
C19 C 0.47211 0.14178 0.15566 0.0
N20 N 0.46133 0.12724 0.10337 0.0
H21 H 0.43894 0.11794 0.01862 0.0
H22 H 0.47987 0.13898 0.20042 0.0
H23 H 0.421 0.09877 0.18943 0.0
H24 H 0.47136 0.09894 0.28411 0.0
O25 O 0.43243 0.08345 0.07478 0.0
O26 O 0.45291 0.07322 0.11907 0.0
O27 O 0.48781 0.11364 0.15479 0.0
C28 C 0.43559 0.06856 0.08933 0.0
H29 H 0.4951 0.09077 0.89204 0.0
H30 H 0.41687 0.09711 0.33746 0.0
H31 H 0.48109 0.17112 0.19856 0.0
H32 H 0.44065 0.15056 1.00854 0.0
Co33 Co 0.35843 0.46361 0.27265 0.0
C34 C 0.35993 0.46608 0.10501 0.0
C35 C 0.38341 0.49306 0.15507 0.0
C36 C 0.38547 0.49498 0.0785 0.0
N37 N 0.36686 0.47526 0.17228 0.0
N38 N 0.37072 0.47799 0.04712 0.0
H39 H 0.34776 0.45072 0.09806 0.0
H40 H 0.39412 0.50362 0.19484 0.0
C41 C 0.37372 0.50746 0.30537 0.0
O42 O 0.36089 0.50747 0.25641 0.0
N43 N 0.35056 0.45179 0.37174 0.0
C44 C 0.33309 0.43494 0.3886 0.0
C45 C 0.33163 0.43267 0.46522 0.0
C46 C 0.3597 0.45941 0.43827 0.0
N47 N 0.34832 0.44807 0.49638 0.0
C48 C 0.32055 0.45722 0.21057 0.0
C49 C 0.31102 0.47368 0.33092 0.0
C50 C 0.29778 0.46631 0.27003 0.0
C51 C 0.30266 0.45799 0.20921 0.0
C52 C 0.32888 0.473 0.32933 0.0
N53 N 0.3338 0.46531 0.26886 0.0
H54 H 0.32333 0.44959 0.16572 0.0
H55 H 0.3388 0.47867 0.37727 0.0
H56 H 0.32178 0.42545 0.34806 0.0
H57 H 0.37381 0.47346 0.44437 0.0
O58 O 0.3486 0.43686 0.23085 0.0
O59 O 0.37975 0.45735 0.27198 0.0
O60 O 0.37424 0.49131 0.31876 0.0
C61 C 0.36683 0.44011 0.24234 0.0
H62 H 0.3975 0.50748 0.04827 0.0
H63 H 0.31906 0.42085 0.49583 0.0
H64 H 0.30764 0.48002 0.3793 0.0
H65 H 0.29243 0.45159 0.16214 0.0
Co66 Co 0.89566 0.35653 0.46529 0.0
C67 C 0.8961 0.35904 0.29951 0.0
C68 C 0.89449 0.38367 0.35008 0.0
C69 C 0.89434 0.38555 0.27332 0.0
N70 N 0.89544 0.36696 0.36645 0.0
N71 N 0.89544 0.37012 0.2417 0.0
H72 H 0.89678 0.34532 0.2932 0.0
H73 H 0.89401 0.39387 0.39084 0.0
C74 C 0.86891 0.36748 0.55444 0.0
O75 O 0.85817 0.34897 0.58021 0.0
N76 N 0.89626 0.34637 0.56533 0.0
C77 C 0.89521 0.32875 0.58374 0.0
C78 C 0.89571 0.32736 0.66046 0.0
C79 C 0.89854 0.35592 0.63172 0.0
N80 N 0.8977 0.34439 0.69061 0.0
C81 C 0.86808 0.31458 0.43468 0.0
C82 C 0.83383 0.31774 0.42018 0.0
C83 C 0.83176 0.29845 0.42198 0.0
C84 C 0.84936 0.2971 0.42585 0.0
C85 C 0.85295 0.33483 0.4283 0.0
N86 N 0.8695 0.33297 0.44263 0.0
H87 H 0.88145 0.31327 0.43475 0.0
H88 H 0.85429 0.34953 0.42458 0.0
H89 H 0.89464 0.3177 0.54504 0.0
H90 H 0.90044 0.37085 0.63717 0.0
O91 O 0.9134 0.34724 0.42787 0.0
O92 O 0.92328 0.3773 0.47812 0.0
O93 O 0.88332 0.37219 0.50823 0.0
C94 C 0.92815 0.36501 0.44671 0.0
H95 H 0.89381 0.39753 0.24302 0.0
H96 H 0.89495 0.31488 0.69175 0.0
H97 H 0.82083 0.31969 0.41459 0.0
H98 H 0.84872 0.28266 0.42218 0.0
Co99 Co 0.53933 0.89839 0.63297 0.0
C100 C 0.53575 0.89623 0.46734 0.0
C101 C 0.51437 0.90294 0.51848 0.0
C102 C 0.51276 0.90366 0.44184 0.0
N103 N 0.52876 0.89828 0.53435 0.0
N104 N 0.52622 0.89949 0.40972 0.0
H105 H 0.54812 0.8933 0.46101 0.0
H106 H 0.50609 0.90625 0.55977 0.0
C107 C 0.50041 0.87134 0.71605 0.0
O108 O 0.50713 0.85946 0.73907 0.0
N109 N 0.55014 0.89919 0.73322 0.0
C110 C 0.56891 0.90302 0.75081 0.0
C111 C 0.57122 0.9042 0.82744 0.0
C112 C 0.5417 0.89905 0.80014 0.0
N113 N 0.55404 0.90159 0.85846 0.0
C114 C 0.55261 0.86958 0.61522 0.0
C115 C 0.51529 0.83684 0.58084 0.0
C116 C 0.53181 0.8339 0.59027 0.0
C117 C 0.55078 0.85066 0.60513 0.0
C118 C 0.51791 0.85617 0.58991 0.0
N119 N 0.53609 0.87193 0.61243 0.0
H120 H 0.56738 0.88233 0.62483 0.0
H121 H 0.50518 0.85835 0.58067 0.0
H122 H 0.58066 0.90577 0.71119 0.0
H123 H 0.52727 0.89821 0.80654 0.0
O124 O 0.56635 0.91526 0.59429 0.0
O125 O 0.54705 0.92631 0.64391 0.0
O126 O 0.51125 0.88668 0.67493 0.0
C127 C 0.56398 0.93048 0.61196 0.0
H128 H 0.50262 0.90725 0.41204 0.0
H129 H 0.58461 0.90698 0.85786 0.0
H130 H 0.50052 0.82433 0.56671 0.0
H131 H 0.56402 0.84908 0.61078 0.0
Co132 Co 0.63638 0.53664 0.78436 0.0
C133 C 0.63599 0.53465 0.61849 0.0
C134 C 0.61216 0.50733 0.66641 0.0
C135 C 0.6112 0.50533 0.58969 0.0
N136 N 0.62784 0.52563 0.68452 0.0
N137 N 0.6261 0.52253 0.55989 0.0
H138 H 0.64892 0.54969 0.61331 0.0
H139 H 0.60193 0.49619 0.70578 0.0
C140 C 0.62473 0.49724 0.86676 0.0
O141 O 0.64285 0.50415 0.89529 0.0
N142 N 0.64458 0.54789 0.88527 0.0
C143 C 0.65834 0.56718 0.90295 0.0
C144 C 0.65984 0.56929 0.97947 0.0
C145 C 0.63699 0.53894 0.9522 0.0
N146 N 0.64644 0.55153 1.01021 0.0
C147 C 0.6792 0.55213 0.78161 0.0
C148 C 0.67759 0.51631 0.7442 0.0
C149 C 0.69624 0.53314 0.76262 0.0
C150 C 0.69699 0.55134 0.77958 0.0
C151 C 0.66005 0.51768 0.74834 0.0
N152 N 0.66089 0.53514 0.7714 0.0
H153 H 0.68026 0.56649 0.79094 0.0
H154 H 0.64574 0.50455 0.73469 0.0
H155 H 0.66647 0.57927 0.86342 0.0
H156 H 0.6247 0.52368 0.95916 0.0
O157 O 0.64556 0.56344 0.74473 0.0
O158 O 0.61483 0.54259 0.78847 0.0
O159 O 0.62074 0.50843 0.82554 0.0
C160 C 0.62735 0.55991 0.75844 0.0
H161 H 0.60011 0.49245 0.55803 0.0
H162 H 0.66966 0.58295 1.01028 0.0
H163 H 0.67653 0.5021 0.72889 0.0
H164 H 0.71127 0.5649 0.79076 0.0
Co165 Co 0.09925 0.6388 0.92712 0.0
C166 C 0.1026 0.63848 0.76136 0.0
C167 C 0.09725 0.61076 0.81193 0.0
C168 C 0.09706 0.60866 0.73548 0.0
N169 N 0.10081 0.62945 0.82816 0.0
N170 N 0.10031 0.62603 0.70363 0.0
H171 H 0.10451 0.65342 0.75524 0.0
H172 H 0.09406 0.59912 0.85278 0.0
C173 C 0.1279 0.62829 1.00834 0.0
O174 O 0.13834 0.64644 0.03758 0.0
N175 N 0.09686 0.64754 0.02785 0.0
C176 C 0.0903 0.66049 0.04534 0.0
C177 C 0.08905 0.66151 0.12179 0.0
C178 C 0.0985 0.64015 0.09483 0.0
N179 N 0.09429 0.64878 0.15295 0.0
C180 C 0.12643 0.68162 0.92291 0.0
C181 C 0.16058 0.6802 0.8829 0.0
C182 C 0.16244 0.69877 0.90299 0.0
C183 C 0.14502 0.69944 0.92105 0.0
C184 C 0.14164 0.66261 0.88687 0.0
N185 N 0.12508 0.66337 0.91121 0.0
H186 H 0.11316 0.68259 0.93413 0.0
H187 H 0.1404 0.6483 0.8725 0.0
H188 H 0.08593 0.66826 1.00562 0.0
H189 H 0.10161 0.62795 0.10151 0.0
O190 O 0.0812 0.64751 0.88807 0.0
O191 O 0.07178 0.61715 0.93458 0.0
O192 O 0.11253 0.62365 0.96714 0.0
C193 C 0.06665 0.62936 0.90395 0.0
H194 H 0.09429 0.59519 0.70563 0.0
H195 H 0.08449 0.67084 0.152 0.0
H196 H 0.1737 0.6792 0.86684 0.0
H197 H 0.14578 0.71366 0.93379 0.0
Co198 Co 0.88936 0.53323 0.73564 0.0
C199 C 0.88748 0.52962 0.90378 0.0
C200 C 0.89959 0.51281 0.85104 0.0
C201 C 0.90076 0.51121 0.92731 0.0
N202 N 0.89109 0.5242 0.83592 0.0
N203 N 0.89316 0.52179 0.96039 0.0
H204 H 0.88178 0.53979 0.91246 0.0
H205 H 0.905 0.50645 0.80911 0.0
C206 C 0.86392 0.48848 0.73451 0.0
O207 O 0.85653 0.48981 0.79933 0.0
N208 N 0.88835 0.54237 0.63588 0.0
C209 C 0.88706 0.55882 0.61847 0.0
C210 C 0.88734 0.56064 0.54173 0.0
C211 C 0.88934 0.53434 0.56982 0.0
N212 N 0.88876 0.54525 0.51123 0.0
C213 C 0.86246 0.54544 0.79878 0.0
C214 C 0.82835 0.51748 0.72253 0.0
C215 C 0.82705 0.53141 0.76934 0.0
C216 C 0.84441 0.5457 0.80719 0.0
C217 C 0.84673 0.51803 0.71449 0.0
N218 N 0.86333 0.53123 0.7551 0.0
H219 H 0.87592 0.55718 0.82528 0.0
H220 H 0.84766 0.50836 0.67272 0.0
H221 H 0.88606 0.56882 0.65884 0.0
H222 H 0.89085 0.52106 0.56475 0.0
O223 O 0.90746 0.56088 0.76681 0.0
O224 O 0.91692 0.54013 0.71926 0.0
O225 O 0.87635 0.50444 0.69901 0.0
C226 C 0.92207 0.55776 0.74717 0.0
H227 H 0.90693 0.50306 0.95622 0.0
H228 H 0.88636 0.57228 0.51073 0.0
H229 H 0.81548 0.50683 0.68967 0.0
H230 H 0.8441 0.55712 0.84211 0.0
Co231 Co 0.35532 0.89297 0.89784 0.0
C232 C 0.3567 0.89167 0.06587 0.0
C233 C 0.38506 0.89971 0.01454 0.0
C234 C 0.38743 0.90005 0.09099 0.0
N235 N 0.36563 0.89382 0.99843 0.0
N236 N 0.36963 0.89508 0.12298 0.0
H237 H 0.34134 0.8882 0.07391 0.0
H238 H 0.39684 0.90382 0.97333 0.0
C239 C 0.37421 0.86712 0.8917 0.0
O240 O 0.36477 0.85867 0.95443 0.0
N241 N 0.34555 0.89277 0.79792 0.0
C242 C 0.32678 0.88871 0.77987 0.0
C243 C 0.32504 0.8882 0.70307 0.0
C244 C 0.35513 0.89504 0.73211 0.0
N245 N 0.34285 0.8922 0.67331 0.0
C246 C 0.31615 0.86499 0.95938 0.0
C247 C 0.31019 0.83203 0.87563 0.0
C248 C 0.2949 0.82995 0.92387 0.0
C249 C 0.29787 0.84675 0.96551 0.0
C250 C 0.32795 0.8506 0.86991 0.0
N251 N 0.33128 0.8666 0.91411 0.0
H252 H 0.31767 0.87806 0.98823 0.0
H253 H 0.33857 0.8522 0.82708 0.0
H254 H 0.31502 0.88582 0.81984 0.0
H255 H 0.37049 0.89801 0.72729 0.0
O256 O 0.34543 0.91062 0.93109 0.0
O257 O 0.37596 0.92073 0.88532 0.0
O258 O 0.37135 0.88039 0.85928 0.0
C259 C 0.36327 0.9255 0.91374 0.0
H260 H 0.40132 0.90432 0.12088 0.0
H261 H 0.3117 0.88503 0.6714 0.0
H262 H 0.30805 0.81965 0.83994 0.0
H263 H 0.28607 0.84587 1.0015 0.0
Co264 Co 0.45975 0.35592 0.07847 0.0
C265 C 0.46134 0.35812 0.24454 0.0
C266 C 0.48425 0.3855 0.19364 0.0
C267 C 0.48611 0.38771 0.27025 0.0
N268 N 0.46891 0.36689 0.17761 0.0
N269 N 0.47169 0.37052 0.30209 0.0
H270 H 0.44867 0.34297 0.25098 0.0
H271 H 0.49326 0.39683 0.15254 0.0
C272 C 0.49887 0.36855 0.99362 0.0
O273 O 0.49088 0.35152 0.95588 0.0
N274 N 0.45046 0.34521 0.9781 0.0
C275 C 0.43624 0.32627 0.95884 0.0
C276 C 0.43469 0.32489 0.88213 0.0
C277 C 0.45663 0.35533 0.91234 0.0
N278 N 0.44757 0.34311 0.85294 0.0
C279 C 0.4444 0.31461 0.12238 0.0
C280 C 0.4808 0.31526 0.11971 0.0
C281 C 0.46291 0.29673 0.12644 0.0
C282 C 0.44461 0.29658 0.13152 0.0
C283 C 0.4799 0.33298 0.11257 0.0
N284 N 0.46172 0.33225 0.10658 0.0
H285 H 0.43008 0.31415 0.12462 0.0
H286 H 0.49389 0.34712 0.11118 0.0
H287 H 0.42725 0.31414 0.99689 0.0
H288 H 0.46805 0.37112 0.90793 0.0
O289 O 0.43216 0.34692 0.1086 0.0
O290 O 0.45323 0.37672 0.05872 0.0
O291 O 0.48862 0.37158 0.0431 0.0
C292 C 0.43552 0.36458 0.08669 0.0
H293 H 0.49695 0.40108 0.30031 0.0
H294 H 0.42474 0.31151 0.85013 0.0
H295 H 0.49531 0.31599 0.11921 0.0
H296 H 0.43052 0.28254 0.139 0.0
Co297 Co 0.10338 0.46442 0.2516 0.0
C298 C 0.10326 0.46613 0.41756 0.0
C299 C 0.10567 0.49286 0.36831 0.0
C300 C 0.10588 0.49473 0.44504 0.0
N301 N 0.10419 0.475 0.35103 0.0
N302 N 0.10428 0.47791 0.47582 0.0
H303 H 0.10205 0.45148 0.42328 0.0
H304 H 0.10637 0.50378 0.32831 0.0
C305 C 0.12891 0.50285 0.16084 0.0
O306 O 0.13877 0.49517 0.12677 0.0
N307 N 0.10225 0.45363 0.15145 0.0
C308 C 0.10338 0.43706 0.13371 0.0
C309 C 0.10251 0.4348 0.05723 0.0
C310 C 0.09963 0.46057 0.08498 0.0
N311 N 0.10031 0.44967 0.02651 0.0
C312 C 0.13011 0.44933 0.28341 0.0
C313 C 0.16567 0.48592 0.28239 0.0
C314 C 0.16664 0.46808 0.28543 0.0
C315 C 0.14843 0.44967 0.2896 0.0
C316 C 0.14689 0.48484 0.27765 0.0
N317 N 0.12952 0.46663 0.27124 0.0
H318 H 0.11637 0.43498 0.28778 0.0
H319 H 0.1465 0.49873 0.27847 0.0
H320 H 0.10439 0.42692 0.17292 0.0
H321 H 0.09773 0.4736 0.07917 0.0
O322 O 0.08573 0.43733 0.28856 0.0
O323 O 0.07561 0.45758 0.24145 0.0
O324 O 0.1156 0.49268 0.21033 0.0
C325 C 0.07088 0.44029 0.27157 0.0
H326 H 0.10674 0.50732 0.47593 0.0
H327 H 0.10328 0.42301 0.02649 0.0
H328 H 0.17923 0.5006 0.28179 0.0
H329 H 0.14827 0.43554 0.29709 0.0
Co330 Co 0.64096 0.10232 0.38531 0.0
C331 C 0.64014 0.10521 0.55092 0.0
C332 C 0.61246 0.09994 0.5001 0.0
C333 C 0.61027 0.09945 0.57671 0.0
N334 N 0.63117 0.10356 0.48399 0.0
N335 N 0.62763 0.10268 0.60864 0.0
H336 H 0.65512 0.10723 0.55711 0.0
H337 H 0.60093 0.09707 0.45904 0.0
C338 C 0.62862 0.12921 0.3021 0.0
O339 O 0.6471 0.14149 0.27886 0.0
N340 N 0.65025 0.10036 0.28499 0.0
C341 C 0.66416 0.09504 0.26784 0.0
C342 C 0.66526 0.09376 0.1913 0.0
C343 C 0.6425 0.10133 0.21781 0.0
N344 N 0.65169 0.09782 0.15983 0.0
C345 C 0.68325 0.1308 0.39451 0.0
C346 C 0.67996 0.16418 0.43019 0.0
C347 C 0.69916 0.16681 0.41542 0.0
C348 C 0.70066 0.14963 0.40028 0.0
C349 C 0.66289 0.14491 0.42459 0.0
N350 N 0.66461 0.12879 0.40161 0.0
H351 H 0.68486 0.11781 0.38477 0.0
H352 H 0.64821 0.14307 0.43634 0.0
H353 H 0.67256 0.09153 0.30782 0.0
H354 H 0.62969 0.10345 0.21081 0.0
O355 O 0.65103 0.08558 0.42597 0.0
O356 O 0.62041 0.07439 0.37848 0.0
O357 O 0.62451 0.11384 0.34241 0.0
C358 C 0.63325 0.07034 0.41054 0.0
H359 H 0.59678 0.09656 0.60662 0.0
H360 H 0.67521 0.08999 0.16123 0.0
H361 H 0.67804 0.1769 0.4439 0.0
H362 H 0.71521 0.15067 0.39292 0.0
Co363 Co 0.53372 0.64229 0.56844 0.0
C364 C 0.53064 0.64105 0.73422 0.0
C365 C 0.50791 0.61356 0.68315 0.0
C366 C 0.50644 0.61117 0.75974 0.0
N367 N 0.52307 0.63226 0.66725 0.0
N368 N 0.52075 0.62842 0.7918 0.0
H369 H 0.54367 0.656 0.74051 0.0
H370 H 0.49902 0.60218 0.64186 0.0
C371 C 0.49611 0.63261 0.48099 0.0
O372 O 0.50529 0.6505 0.44918 0.0
N373 N 0.54463 0.65182 0.46806 0.0
C374 C 0.56313 0.66725 0.4502 0.0
C375 C 0.56564 0.66783 0.37372 0.0
C376 C 0.53664 0.64266 0.4017 0.0
N377 N 0.54889 0.65247 0.34325 0.0
C378 C 0.54935 0.68484 0.59087 0.0
C379 C 0.51243 0.68236 0.61319 0.0
C380 C 0.52975 0.70141 0.60705 0.0
C381 C 0.54849 0.70256 0.59872 0.0
C382 C 0.51405 0.66504 0.60634 0.0
N383 N 0.53212 0.66645 0.58921 0.0
H384 H 0.56389 0.68597 0.58635 0.0
H385 H 0.50064 0.65049 0.61366 0.0
H386 H 0.57459 0.67697 0.48952 0.0
H387 H 0.52245 0.62871 0.39604 0.0
O388 O 0.56061 0.65089 0.60566 0.0
O389 O 0.53966 0.62084 0.55671 0.0
O390 O 0.50531 0.62748 0.52802 0.0
C391 C 0.55705 0.63291 0.58735 0.0
H392 H 0.49583 0.59765 0.78957 0.0
H393 H 0.57881 0.67872 0.34294 0.0
H394 H 0.49777 0.68088 0.62299 0.0
H395 H 0.56232 0.71702 0.59622 0.0
C396 C 0.46967 0.27243 0.05811 0.0
C397 C 0.46321 0.27759 0.1235 0.0
C398 C 0.46916 0.25389 0.05215 0.0
C399 C 0.46252 0.24047 0.11389 0.0
C400 C 0.45625 0.24581 0.18057 0.0
C401 C 0.45639 0.26423 0.18417 0.0
C402 C 0.47547 0.24856 0.97948 0.0
C403 C 0.44956 0.23214 0.24822 0.0
C404 C 0.44463 0.18479 0.0831 0.0
C405 C 0.46199 0.1838 0.10122 0.0
C406 C 0.44468 0.20318 0.08578 0.0
C407 C 0.46234 0.22095 0.10889 0.0
C408 C 0.4799 0.22012 0.1271 0.0
C409 C 0.4796 0.20167 0.12195 0.0
C410 C 0.42578 0.20356 0.06434 0.0
C411 C 0.49897 0.23868 0.15291 0.0
H412 H 0.47471 0.28276 0.01098 0.0
H413 H 0.45138 0.26832 0.2346 0.0
H414 H 0.48854 0.24632 0.9892 0.0
H415 H 0.46297 0.23412 0.95744 0.0
H416 H 0.4797 0.26043 0.93612 0.0
H417 H 0.44565 0.23874 0.29634 0.0
H418 H 0.43619 0.21738 0.23391 0.0
H419 H 0.46174 0.22916 0.26578 0.0
H420 H 0.43083 0.17114 0.06816 0.0
H421 H 0.49327 0.20128 0.13442 0.0
H422 H 0.42924 0.21494 0.01973 0.0
H423 H 0.42004 0.20809 0.11329 0.0
H424 H 0.41363 0.18865 0.04406 0.0
H425 H 0.50458 0.25037 0.10847 0.0
H426 H 0.51114 0.23536 0.16722 0.0
H427 H 0.49574 0.24521 0.20293 0.0
C428 C 0.18781 0.4532 0.24462 0.0
C429 C 0.18631 0.46843 0.28307 0.0
C430 C 0.20602 0.453 0.24205 0.0
C431 C 0.22337 0.46865 0.27734 0.0
C432 C 0.22214 0.48429 0.31504 0.0
C433 C 0.2036 0.4839 0.31803 0.0
C434 C 0.20665 0.43593 0.20196 0.0
C435 C 0.24041 0.50138 0.35251 0.0
C436 C 0.26536 0.45833 0.33164 0.0
C437 C 0.27872 0.46683 0.27134 0.0
C438 C 0.24727 0.45878 0.33421 0.0
C439 C 0.24268 0.46838 0.27584 0.0
C440 C 0.25628 0.47721 0.21522 0.0
C441 C 0.27405 0.47611 0.21326 0.0
C442 C 0.23296 0.44877 0.39886 0.0
C443 C 0.25209 0.48791 0.1527 0.0
H444 H 0.17474 0.44143 0.21578 0.0
H445 H 0.20262 0.49562 0.34861 0.0
H446 H 0.21778 0.44198 0.15562 0.0
H447 H 0.21164 0.42803 0.24117 0.0
H448 H 0.19173 0.42472 0.17842 0.0
H449 H 0.23718 0.51287 0.37651 0.0
H450 H 0.24576 0.49538 0.39815 0.0
H451 H 0.25293 0.5089 0.31159 0.0
H452 H 0.26896 0.45103 0.37628 0.0
H453 H 0.28452 0.48284 0.16703 0.0
H454 H 0.21812 0.4368 0.37748 0.0
H455 H 0.23033 0.45995 0.42879 0.0
H456 H 0.23875 0.4419 0.43956 0.0
H457 H 0.23796 0.47717 0.12325 0.0
H458 H 0.26454 0.49463 0.11113 0.0
H459 H 0.24984 0.50008 0.17608 0.0
C460 C 0.72034 0.20194 0.46765 0.0
C461 C 0.7176 0.18718 0.41483 0.0
C462 C 0.73813 0.22087 0.46867 0.0
C463 C 0.7536 0.22505 0.4161 0.0
C464 C 0.75074 0.2104 0.36171 0.0
C465 C 0.73275 0.19175 0.36139 0.0
C466 C 0.74058 0.23621 0.52704 0.0
C467 C 0.76689 0.21421 0.30488 0.0
C468 C 0.79567 0.27873 0.37745 0.0
C469 C 0.8115 0.27984 0.42097 0.0
C470 C 0.77656 0.26118 0.37683 0.0
C471 C 0.77325 0.24428 0.42004 0.0
C472 C 0.78907 0.24536 0.46455 0.0
C473 C 0.80791 0.26314 0.46486 0.0
C474 C 0.75999 0.26063 0.3291 0.0
C475 C 0.7862 0.22761 0.51104 0.0
H476 H 0.7088 0.19854 0.50943 0.0
H477 H 0.73059 0.18066 0.31917 0.0
H478 H 0.753 0.2389 0.56594 0.0
H479 H 0.74478 0.25086 0.49999 0.0
H480 H 0.72659 0.23123 0.56023 0.0
H481 H 0.76206 0.20146 0.26498 0.0
H482 H 0.77096 0.22812 0.27258 0.0
H483 H 0.78074 0.21664 0.33408 0.0
H484 H 0.79829 0.29144 0.34278 0.0
H485 H 0.81986 0.26397 0.50004 0.0
H486 H 0.74632 0.25615 0.36355 0.0
H487 H 0.75572 0.24913 0.28434 0.0
H488 H 0.7646 0.27545 0.30253 0.0
H489 H 0.77345 0.22302 0.55054 0.0
H490 H 0.79992 0.23103 0.54367 0.0
H491 H 0.78231 0.2145 0.47407 0.0
C492 C 0.54087 0.73634 0.65297 0.0
C493 C 0.52826 0.71996 0.60703 0.0
C494 C 0.54027 0.75437 0.65034 0.0
C495 C 0.52703 0.75615 0.59945 0.0
C496 C 0.51413 0.73957 0.55341 0.0
C497 C 0.51478 0.7216 0.55825 0.0
C498 C 0.55399 0.77159 0.70132 0.0
C499 C 0.50007 0.74101 0.49758 0.0
C500 C 0.51505 0.79808 0.63316 0.0
C501 C 0.52933 0.81346 0.58728 0.0
C502 C 0.51394 0.77922 0.63704 0.0
C503 C 0.52718 0.7756 0.59291 0.0
C504 C 0.54111 0.79087 0.54436 0.0
C505 C 0.54216 0.80971 0.54272 0.0
C506 C 0.49911 0.76344 0.69032 0.0
C507 C 0.55518 0.78744 0.49528 0.0
H508 H 0.55119 0.735 0.69105 0.0
H509 H 0.50519 0.70899 0.5221 0.0
H510 H 0.5649 0.78469 0.6674 0.0
H511 H 0.54502 0.77658 0.73458 0.0
H512 H 0.56258 0.76739 0.74044 0.0
H513 H 0.49066 0.72658 0.46723 0.0
H514 H 0.48995 0.74533 0.52636 0.0
H515 H 0.50898 0.753 0.45599 0.0
H516 H 0.50529 0.8011 0.66822 0.0
H517 H 0.55312 0.8216 0.50695 0.0
H518 H 0.50742 0.76009 0.73365 0.0
H519 H 0.48931 0.74916 0.6599 0.0
H520 H 0.48938 0.76837 0.7187 0.0
H521 H 0.56574 0.78508 0.53072 0.0
H522 H 0.56417 0.80037 0.45716 0.0
H523 H 0.54646 0.77361 0.46105 0.0
C524 C 0.72657 0.53754 0.83083 0.0
C525 C 0.71489 0.5319 0.76538 0.0
C526 C 0.74463 0.53705 0.83439 0.0
C527 C 0.75138 0.53124 0.77031 0.0
C528 C 0.73958 0.52549 0.70401 0.0
C529 C 0.72131 0.52566 0.70264 0.0
C530 C 0.75652 0.54283 0.90661 0.0
C531 C 0.74647 0.51956 0.63415 0.0
C532 C 0.80746 0.54934 0.75673 0.0
C533 C 0.8079 0.53171 0.77405 0.0
C534 C 0.78913 0.54937 0.75493 0.0
C535 C 0.77092 0.53145 0.77242 0.0
C536 C 0.77139 0.51373 0.79178 0.0
C537 C 0.78987 0.51402 0.7915 0.0
C538 C 0.78921 0.56846 0.73276 0.0
C539 C 0.75237 0.49447 0.81246 0.0
H540 H 0.72146 0.54221 0.8795 0.0
H541 H 0.71228 0.52143 0.65195 0.0
H542 H 0.75908 0.53044 0.9251 0.0
H543 H 0.77156 0.55637 0.89762 0.0
H544 H 0.74874 0.54613 0.95226 0.0
H545 H 0.73559 0.51558 0.58716 0.0
H546 H 0.76134 0.5322 0.61613 0.0
H547 H 0.7485 0.50645 0.64591 0.0
H548 H 0.8214 0.56293 0.74229 0.0
H549 H 0.79028 0.50041 0.80504 0.0
H550 H 0.78273 0.57329 0.77842 0.0
H551 H 0.77957 0.56557 0.68256 0.0
H552 H 0.80463 0.58105 0.72012 0.0
H553 H 0.74468 0.49731 0.85965 0.0
H554 H 0.75543 0.48225 0.82886 0.0
H555 H 0.74174 0.48914 0.76441 0.0
C556 C 0.25739 0.81023 0.90964 0.0
C557 C 0.27549 0.81065 0.92609 0.0
C558 C 0.23909 0.79184 0.90547 0.0
C559 C 0.23888 0.77351 0.91976 0.0
C560 C 0.2571 0.77394 0.93816 0.0
C561 C 0.27524 0.79251 0.94017 0.0
C562 C 0.22006 0.79199 0.88434 0.0
C563 C 0.25743 0.75479 0.95557 0.0
C564 C 0.18839 0.72847 0.97424 0.0
C565 C 0.1824 0.71739 0.90737 0.0
C566 C 0.20693 0.74652 0.9795 0.0
C567 C 0.21957 0.75391 0.91576 0.0
C568 C 0.21359 0.74271 0.84804 0.0
C569 C 0.19514 0.72441 0.84493 0.0
C570 C 0.21295 0.75773 0.05318 0.0
C571 C 0.22648 0.75028 0.77851 0.0
H572 H 0.25767 0.82427 0.89775 0.0
H573 H 0.28928 0.79289 0.95299 0.0
H574 H 0.21338 0.78277 0.83317 0.0
H575 H 0.20871 0.78508 0.92968 0.0
H576 H 0.22284 0.80749 0.87379 0.0
H577 H 0.27274 0.7578 0.97136 0.0
H578 H 0.24689 0.74661 1.00221 0.0
H579 H 0.25221 0.74463 0.90617 0.0
H580 H 0.17854 0.7229 0.02268 0.0
H581 H 0.1904 0.71586 0.79316 0.0
H582 H 0.21436 0.7728 0.04656 0.0
H583 H 0.22793 0.76023 0.071 0.0
H584 H 0.20185 0.74946 0.09831 0.0
H585 H 0.22864 0.76526 0.76261 0.0
H586 H 0.21967 0.73981 0.73033 0.0
H587 H 0.24165 0.75231 0.78967 0.0
C588 C 0.46929 0.08514 0.76269 0.0
C589 C 0.46865 0.09962 0.80902 0.0
C590 C 0.46557 0.08456 0.68543 0.0
C591 C 0.4614 0.09901 0.65337 0.0
C592 C 0.46081 0.11373 0.69986 0.0
C593 C 0.46426 0.11373 0.77726 0.0
C594 C 0.46594 0.06836 0.63821 0.0
C595 C 0.45667 0.12956 0.66776 0.0
C596 C 0.46941 0.10837 0.44324 0.0
C597 C 0.44957 0.0976 0.41602 0.0
C598 C 0.47349 0.10907 0.52035 0.0
C599 C 0.45736 0.09852 0.57138 0.0
C600 C 0.43733 0.08737 0.54401 0.0
C601 C 0.43368 0.08716 0.46682 0.0
C602 C 0.49504 0.12131 0.54728 0.0
C603 C 0.41974 0.0756 0.59627 0.0
H604 H 0.47239 0.07402 0.78722 0.0
H605 H 0.46394 0.12503 0.81289 0.0
H606 H 0.45115 0.05919 0.60999 0.0
H607 H 0.47753 0.07538 0.5937 0.0
H608 H 0.46925 0.05814 0.67184 0.0
H609 H 0.45715 0.1402 0.71116 0.0
H610 H 0.46797 0.13832 0.62385 0.0
H611 H 0.44159 0.12221 0.64068 0.0
H612 H 0.4817 0.11665 0.40432 0.0
H613 H 0.41835 0.07862 0.44594 0.0
H614 H 0.49937 0.1115 0.57838 0.0
H615 H 0.49646 0.13318 0.58668 0.0
H616 H 0.50585 0.12865 0.50045 0.0
H617 H 0.42203 0.06448 0.62837 0.0
H618 H 0.40513 0.06742 0.56594 0.0
H619 H 0.41881 0.08596 0.63747 0.0
C620 C 0.37147 0.46028 0.60515 0.0
C621 C 0.35201 0.4524 0.57536 0.0
C622 C 0.37505 0.4641 0.68246 0.0
C623 C 0.35884 0.46039 0.73081 0.0
C624 C 0.33921 0.45268 0.70064 0.0
C625 C 0.33602 0.4486 0.62357 0.0
C626 C 0.39612 0.47196 0.7125 0.0
C627 C 0.3216 0.44898 0.74962 0.0
C628 C 0.36213 0.45408 0.94157 0.0
C629 C 0.36778 0.47345 0.96812 0.0
C630 C 0.35964 0.44972 0.86437 0.0
C631 C 0.3624 0.46498 0.81266 0.0
C632 C 0.36796 0.48452 0.83946 0.0
C633 C 0.37079 0.48855 0.91667 0.0
C634 C 0.35411 0.42882 0.83813 0.0
C635 C 0.3706 0.5011 0.78669 0.0
H636 H 0.38381 0.46308 0.56805 0.0
H637 H 0.32101 0.44279 0.60055 0.0
H638 H 0.40167 0.48698 0.73872 0.0
H639 H 0.39598 0.46169 0.75672 0.0
H640 H 0.40692 0.47339 0.66806 0.0
H641 H 0.30733 0.44315 0.71734 0.0
H642 H 0.31934 0.43793 0.79415 0.0
H643 H 0.32482 0.46322 0.7778 0.0
H644 H 0.36005 0.44246 0.98117 0.0
H645 H 0.37498 0.50348 0.93723 0.0
H646 H 0.3653 0.42977 0.79641 0.0
H647 H 0.33919 0.42161 0.80994 0.0
H648 H 0.35347 0.41896 0.88501 0.0
H649 H 0.38239 0.50397 0.74456 0.0
H650 H 0.37492 0.51545 0.81648 0.0
H651 H 0.35633 0.49634 0.75573 0.0
C652 C 0.91011 0.36806 0.79806 0.0
C653 C 0.89765 0.34859 0.76945 0.0
C654 C 0.91043 0.37204 0.87528 0.0
C655 C 0.89761 0.35629 0.92477 0.0
C656 C 0.88474 0.33669 0.89573 0.0
C657 C 0.88509 0.33306 0.81874 0.0
C658 C 0.92465 0.39304 0.90405 0.0
C659 C 0.87044 0.31958 0.94588 0.0
C660 C 0.90858 0.35968 0.13459 0.0
C661 C 0.89594 0.36651 0.16258 0.0
C662 C 0.90964 0.35675 0.05722 0.0
C663 C 0.89739 0.36024 1.00677 0.0
C664 C 0.88443 0.36694 0.03503 0.0
C665 C 0.88405 0.37021 0.11238 0.0
C666 C 0.92396 0.35001 0.02944 0.0
C667 C 0.87074 0.37036 0.98369 0.0
H668 H 0.91992 0.38005 0.76016 0.0
H669 H 0.87522 0.31807 0.79664 0.0
H670 H 0.91596 0.39934 0.9312 0.0
H671 H 0.93478 0.39247 0.94726 0.0
H672 H 0.93403 0.40347 0.85873 0.0
H673 H 0.8611 0.30534 0.9143 0.0
H674 H 0.87906 0.31675 0.98951 0.0
H675 H 0.86024 0.32372 0.97515 0.0
H676 H 0.91796 0.35706 0.17322 0.0
H677 H 0.87415 0.37532 0.13402 0.0
H678 H 0.9343 0.36079 0.98685 0.0
H679 H 0.91536 0.33506 1.00186 0.0
H680 H 0.93314 0.34888 0.0754 0.0
H681 H 0.8798 0.38187 0.94087 0.0
H682 H 0.86148 0.37546 0.01453 0.0
H683 H 0.86046 0.35619 0.95345 0.0
C684 C 0.53021 0.88959 0.96509 0.0
C685 C 0.54986 0.90164 0.9374 0.0
C686 C 0.52608 0.88887 0.0422 0.0
C687 C 0.54195 0.90066 0.09292 0.0
C688 C 0.56177 0.91306 0.06512 0.0
C689 C 0.56549 0.91331 0.98791 0.0
C690 C 0.50477 0.87532 0.06946 0.0
C691 C 0.57905 0.92615 0.11695 0.0
C692 C 0.52835 0.91328 0.28277 0.0
C693 C 0.53033 0.89981 0.3306 0.0
C694 C 0.53214 0.91375 0.20556 0.0
C695 C 0.53782 0.90025 0.17495 0.0
C696 C 0.53979 0.88656 0.22292 0.0
C697 C 0.53619 0.88662 0.30022 0.0
C698 C 0.53019 0.92883 0.15683 0.0
C699 C 0.5456 0.87175 0.19248 0.0
H700 H 0.51811 0.88036 0.92653 0.0
H701 H 0.58065 0.92285 0.96688 0.0
H702 H 0.50446 0.86416 0.10997 0.0
H703 H 0.49931 0.88437 0.09938 0.0
H704 H 0.49416 0.86704 0.02293 0.0
H705 H 0.59353 0.9351 0.08644 0.0
H706 H 0.57567 0.93669 0.14786 0.0
H707 H 0.58099 0.91662 0.15919 0.0
H708 H 0.52415 0.92374 0.30603 0.0
H709 H 0.53756 0.87608 0.33683 0.0
H710 H 0.51875 0.92083 0.11247 0.0
H711 H 0.54476 0.93881 0.12842 0.0
H712 H 0.52576 0.93838 0.18934 0.0
H713 H 0.5346 0.86212 0.14902 0.0
H714 H 0.54615 0.86186 0.23686 0.0
H715 H 0.56061 0.88001 0.16522 0.0
C716 C 0.66015 0.55381 0.13663 0.0
C717 C 0.64344 0.54703 0.08895 0.0
C718 C 0.65766 0.54976 0.21375 0.0
C719 C 0.63795 0.53915 0.24423 0.0
C720 C 0.621 0.53241 0.19626 0.0
C721 C 0.62396 0.53617 0.11887 0.0
C722 C 0.67612 0.55666 0.26244 0.0
C723 C 0.59976 0.52147 0.22681 0.0
C724 C 0.6296 0.51272 0.43211 0.0
C725 C 0.62985 0.52707 0.48146 0.0
C726 C 0.63253 0.51657 0.35492 0.0
C727 C 0.63513 0.53499 0.32622 0.0
C728 C 0.63525 0.5495 0.376 0.0
C729 C 0.63291 0.54547 0.45328 0.0
C730 C 0.63293 0.50099 0.30417 0.0
C731 C 0.63748 0.56909 0.34752 0.0
H732 H 0.6752 0.56201 0.11307 0.0
H733 H 0.61108 0.5311 0.08186 0.0
H734 H 0.67671 0.56739 0.30553 0.0
H735 H 0.67528 0.54355 0.2924 0.0
H736 H 0.69035 0.56416 0.22958 0.0
H737 H 0.58825 0.51778 0.1824 0.0
H738 H 0.59675 0.50724 0.25442 0.0
H739 H 0.59799 0.53091 0.27 0.0
H740 H 0.62733 0.49855 0.45436 0.0
H741 H 0.63282 0.55641 0.49165 0.0
H742 H 0.64731 0.50787 0.27233 0.0
H743 H 0.62049 0.49558 0.26269 0.0
H744 H 0.63139 0.48777 0.33573 0.0
H745 H 0.65215 0.57796 0.31837 0.0
H746 H 0.63664 0.57848 0.39332 0.0
H747 H 0.62543 0.56593 0.30607 0.0
C748 C 0.08244 0.64755 0.28258 0.0
C749 C 0.09513 0.64519 0.23192 0.0
C750 C 0.0835 0.64478 0.35983 0.0
C751 C 0.09767 0.63959 0.38737 0.0
C752 C 0.1105 0.63713 0.33657 0.0
C753 C 0.10903 0.63989 0.25945 0.0
C754 C 0.06935 0.64726 0.41194 0.0
C755 C 0.12585 0.63167 0.36373 0.0
C756 C 0.1115 0.64899 0.59439 0.0
C757 C 0.09967 0.62961 0.62459 0.0
C758 C 0.11121 0.65246 0.51712 0.0
C759 C 0.09861 0.63618 0.46914 0.0
C760 C 0.08652 0.61663 0.4995 0.0
C761 C 0.08724 0.61359 0.57667 0.0
C762 C 0.12441 0.6735 0.48676 0.0
C763 C 0.07268 0.59893 0.45056 0.0
H764 H 0.07147 0.65135 0.2617 0.0
H765 H 0.11904 0.6383 0.22076 0.0
H766 H 0.05982 0.63296 0.44265 0.0
H767 H 0.07813 0.65906 0.45433 0.0
H768 H 0.05933 0.65151 0.38167 0.0
H769 H 0.13484 0.63052 0.31713 0.0
H770 H 0.13631 0.64319 0.40415 0.0
H771 H 0.11814 0.61701 0.39372 0.0
H772 H 0.12124 0.66137 0.63109 0.0
H773 H 0.07777 0.59866 0.59975 0.0
H774 H 0.11493 0.67887 0.45943 0.0
H775 H 0.13471 0.67336 0.44337 0.0
H776 H 0.1336 0.68443 0.53122 0.0
H777 H 0.06154 0.60198 0.42247 0.0
H778 H 0.06436 0.58466 0.48286 0.0
H779 H 0.08151 0.59677 0.40597 0.0
C780 C 0.87653 0.5268 0.07024 0.0
C781 C 0.8924 0.52496 0.03969 0.0
C782 C 0.8755 0.52958 0.14764 0.0
C783 C 0.89089 0.53085 0.19545 0.0
C784 C 0.90703 0.52914 0.16475 0.0
C785 C 0.90752 0.5261 0.0874 0.0
C786 C 0.85794 0.53112 0.17827 0.0
C787 C 0.92392 0.53077 0.2135 0.0
C788 C 0.89884 0.55775 0.38213 0.0
C789 C 0.88961 0.54154 0.43247 0.0
C790 C 0.89945 0.55447 0.30505 0.0
C791 C 0.89041 0.53447 0.27731 0.0
C792 C 0.88109 0.51802 0.32785 0.0
C793 C 0.88092 0.52176 0.40491 0.0
C794 C 0.90985 0.57244 0.25332 0.0
C795 C 0.87113 0.49647 0.30043 0.0
H796 H 0.86473 0.52572 0.03364 0.0
H797 H 0.91998 0.52499 0.06391 0.0
H798 H 0.84998 0.51939 0.22172 0.0
H799 H 0.86351 0.54601 0.20556 0.0
H800 H 0.84694 0.52929 0.13397 0.0
H801 H 0.93532 0.52901 0.18097 0.0
H802 H 0.93161 0.54566 0.24195 0.0
H803 H 0.91773 0.51904 0.25782 0.0
H804 H 0.90583 0.57306 0.40327 0.0
H805 H 0.8736 0.5092 0.4435 0.0
H806 H 0.89899 0.57197 0.21106 0.0
H807 H 0.92215 0.5719 0.22244 0.0
H808 H 0.91636 0.58702 0.28391 0.0
H809 H 0.85899 0.49366 0.25991 0.0
H810 H 0.8645 0.48538 0.34689 0.0
H811 H 0.88228 0.49381 0.27047 0.0
C812 C 0.33306 0.8775 0.54718 0.0
C813 C 0.34726 0.89239 0.59489 0.0
C814 C 0.33681 0.87765 0.47016 0.0
C815 C 0.35499 0.89341 0.43975 0.0
C816 C 0.36938 0.90855 0.4878 0.0
C817 C 0.36546 0.90768 0.56509 0.0
C818 C 0.32134 0.8609 0.42139 0.0
C819 C 0.38873 0.92585 0.45738 0.0
C820 C 0.37314 0.88548 0.25121 0.0
C821 C 0.36569 0.89447 0.20199 0.0
C822 C 0.36964 0.88488 0.32863 0.0
C823 C 0.3589 0.894 0.35769 0.0
C824 C 0.35157 0.90336 0.30811 0.0
C825 C 0.35481 0.90322 0.23066 0.0
C826 C 0.37721 0.87426 0.37918 0.0
C827 C 0.34048 0.91368 0.33694 0.0
H828 H 0.31909 0.86557 0.57057 0.0
H829 H 0.37632 0.91926 0.6021 0.0
H830 H 0.31554 0.86724 0.37859 0.0
H831 H 0.32844 0.85339 0.39108 0.0
H832 H 0.30836 0.84934 0.45425 0.0
H833 H 0.39817 0.93659 0.50194 0.0
H834 H 0.39768 0.92001 0.42915 0.0
H835 H 0.38522 0.9342 0.41471 0.0
H836 H 0.38144 0.87862 0.22869 0.0
H837 H 0.34929 0.91038 0.19249 0.0
H838 H 0.36439 0.86204 0.41052 0.0
H839 H 0.38788 0.885 0.42111 0.0
H840 H 0.38496 0.86759 0.34753 0.0
H841 H 0.32641 0.90256 0.36566 0.0
H842 H 0.3365 0.92096 0.29138 0.0
H843 H 0.34993 0.92535 0.37882 0.0
C844 C 0.48456 0.37374 0.43092 0.0
C845 C 0.4682 0.36662 0.38124 0.0
C846 C 0.48152 0.37038 0.50839 0.0
C847 C 0.46161 0.36002 0.53719 0.0
C848 C 0.44502 0.353 0.48727 0.0
C849 C 0.44851 0.35618 0.40977 0.0
C850 C 0.49963 0.37765 0.55927 0.0
C851 C 0.42357 0.34223 0.51577 0.0
C852 C 0.45215 0.33366 0.72572 0.0
C853 C 0.4516 0.34776 0.77442 0.0
C854 C 0.45561 0.33757 0.64873 0.0
C855 C 0.45818 0.35589 0.61921 0.0
C856 C 0.45763 0.37022 0.66817 0.0
C857 C 0.4546 0.36608 0.74545 0.0
C858 C 0.4566 0.32211 0.59906 0.0
C859 C 0.45996 0.38977 0.63875 0.0
H860 H 0.49978 0.38166 0.40879 0.0
H861 H 0.43587 0.35091 0.37147 0.0
H862 H 0.4996 0.38821 0.60179 0.0
H863 H 0.49887 0.36467 0.5899 0.0
H864 H 0.51411 0.38544 0.528 0.0
H865 H 0.41239 0.33854 0.47008 0.0
H866 H 0.42029 0.328 0.5441 0.0
H867 H 0.42155 0.35174 0.5579 0.0
H868 H 0.45012 0.31962 0.74827 0.0
H869 H 0.45404 0.37691 0.78304 0.0
H870 H 0.47128 0.32909 0.5692 0.0
H871 H 0.44457 0.3167 0.5559 0.0
H872 H 0.45483 0.30887 0.63112 0.0
H873 H 0.4748 0.39866 0.61071 0.0
H874 H 0.45881 0.39914 0.68386 0.0
H875 H 0.44816 0.38654 0.59613 0.0
C876 C 0.11586 0.48886 0.60513 0.0
C877 C 0.10351 0.47356 0.55469 0.0
C878 C 0.1151 0.48507 0.6824 0.0
C879 C 0.10129 0.4656 0.71022 0.0
C880 C 0.08858 0.45014 0.65949 0.0
C881 C 0.09003 0.45425 0.58219 0.0
C882 C 0.12929 0.50184 0.73412 0.0
C883 C 0.07338 0.4293 0.68691 0.0
C884 C 0.11243 0.44994 0.89838 0.0
C885 C 0.10039 0.45372 0.9475 0.0
C886 C 0.11286 0.45376 0.82131 0.0
C887 C 0.1007 0.46127 0.79207 0.0
C888 C 0.08839 0.46502 0.84129 0.0
C889 C 0.08855 0.4614 0.91859 0.0
C890 C 0.12655 0.44998 0.77131 0.0
C891 C 0.07499 0.47275 0.81219 0.0
H892 H 0.12639 0.50374 0.58373 0.0
H893 H 0.0803 0.4425 0.54325 0.0
H894 H 0.12056 0.50485 0.77664 0.0
H895 H 0.13894 0.4972 0.7647 0.0
H896 H 0.13919 0.51608 0.70354 0.0
H897 H 0.06399 0.41925 0.64068 0.0
H898 H 0.08127 0.42226 0.71497 0.0
H899 H 0.06328 0.43034 0.72903 0.0
H900 H 0.12186 0.44432 0.92063 0.0
H901 H 0.07914 0.46421 0.9563 0.0
H902 H 0.13741 0.46417 0.74242 0.0
H903 H 0.11755 0.43881 0.72737 0.0
H904 H 0.13519 0.44428 0.80294 0.0
H905 H 0.08429 0.48769 0.78532 0.0
H906 H 0.06584 0.47427 0.85729 0.0
H907 H 0.06464 0.46234 0.76869 0.0
C908 C 0.65055 0.1142 0.71818 0.0
C909 C 0.63127 0.10196 0.68767 0.0
C910 C 0.65409 0.11388 0.79543 0.0
C911 C 0.63802 0.10077 0.84318 0.0
C912 C 0.61859 0.0882 0.81243 0.0
C913 C 0.61544 0.08903 0.73529 0.0
C914 C 0.67498 0.12766 0.82608 0.0
C915 C 0.60111 0.07377 0.86096 0.0
C916 C 0.65084 0.08594 0.03024 0.0
C917 C 0.64783 0.09825 0.08078 0.0
C918 C 0.64768 0.08659 0.95296 0.0
C919 C 0.64152 0.10001 0.92517 0.0
C920 C 0.63842 0.11246 0.97589 0.0
C921 C 0.64151 0.11135 0.05302 0.0
C922 C 0.65083 0.07282 0.90107 0.0
C923 C 0.63199 0.12707 0.9486 0.0
H924 H 0.66278 0.12431 0.68173 0.0
H925 H 0.60058 0.07928 0.71192 0.0
H926 H 0.67437 0.13771 0.86953 0.0
H927 H 0.68085 0.1186 0.85339 0.0
H928 H 0.68577 0.13714 0.78179 0.0
H929 H 0.58698 0.06492 0.82831 0.0
H930 H 0.60481 0.06312 0.88926 0.0
H931 H 0.59835 0.08224 0.9054 0.0
H932 H 0.65545 0.07559 0.05129 0.0
H933 H 0.63939 0.12107 0.09157 0.0
H934 H 0.66254 0.08189 0.85889 0.0
H935 H 0.63667 0.0629 0.87009 0.0
H936 H 0.65553 0.06318 0.93155 0.0
H937 H 0.64323 0.13781 0.90811 0.0
H938 H 0.63036 0.1358 0.99512 0.0
H939 H 0.61735 0.11877 0.91866 0.0
C940 C 0.52522 0.64086 0.23628 0.0
C941 C 0.54475 0.64805 0.26447 0.0
C942 C 0.52122 0.63778 0.15902 0.0
C943 C 0.53707 0.64159 0.10873 0.0
C944 C 0.55675 0.64845 0.13714 0.0
C945 C 0.56038 0.65177 0.21449 0.0
C946 C 0.50008 0.63068 0.13117 0.0
C947 C 0.57399 0.6523 0.0858 0.0
C948 C 0.52271 0.61608 0.91759 0.0
C949 C 0.52523 0.63192 0.8708 0.0
C950 C 0.52668 0.61906 0.9948 0.0
C951 C 0.53307 0.63831 0.02649 0.0
C952 C 0.53564 0.65438 0.97951 0.0
C953 C 0.53187 0.65103 0.90214 0.0
C954 C 0.52414 0.60162 0.04241 0.0
C955 C 0.54213 0.67504 0.01118 0.0
H956 H 0.51317 0.63822 0.27458 0.0
H957 H 0.57545 0.65713 0.23612 0.0
H958 H 0.5003 0.64117 0.08778 0.0
H959 H 0.49386 0.6156 0.10466 0.0
H960 H 0.48977 0.62961 0.17695 0.0
H961 H 0.58828 0.65713 0.11689 0.0
H962 H 0.57016 0.63841 0.05367 0.0
H963 H 0.57654 0.6642 0.04458 0.0
H964 H 0.51789 0.60136 0.89349 0.0
H965 H 0.53366 0.66325 0.86627 0.0
H966 H 0.5126 0.59821 0.08626 0.0
H967 H 0.53852 0.60575 0.07147 0.0
H968 H 0.51949 0.58773 1.00893 0.0
H969 H 0.5312 0.67391 0.05444 0.0
H970 H 0.54321 0.68586 0.9674 0.0
H971 H 0.55704 0.68121 0.03896 0.0
C972 C 0.52645 0.12998 0.23036 0.0
C973 C 0.52373 0.13246 0.15434 0.0
C974 C 0.54475 0.13214 0.2564 0.0
C975 C 0.56035 0.13614 0.20461 0.0
C976 C 0.55784 0.13922 0.12807 0.0
C977 C 0.53965 0.13765 0.10408 0.0
C978 C 0.54707 0.12933 0.33879 0.0
C979 C 0.5738 0.14284 0.07067 0.0
C980 C 0.61318 0.15046 0.27144 0.0
C981 C 0.61171 0.13149 0.27488 0.0
C982 C 0.59647 0.15227 0.2498 0.0
C983 C 0.57823 0.13476 0.22878 0.0
C984 C 0.57698 0.11566 0.23022 0.0
C985 C 0.59362 0.11424 0.25445 0.0
C986 C 0.59815 0.17279 0.25092 0.0
C987 C 0.55806 0.0967 0.206 0.0
H988 H 0.51416 0.1261 0.26929 0.0
H989 H 0.53747 0.13937 0.04508 0.0
H990 H 0.54679 0.11484 0.3476 0.0
H991 H 0.56182 0.14159 0.35966 0.0
H992 H 0.53481 0.12914 0.37278 0.0
H993 H 0.57017 0.14644 0.01451 0.0
H994 H 0.58872 0.1554 0.08852 0.0
H995 H 0.57521 0.12913 0.06573 0.0
H996 H 0.62716 0.16376 0.28794 0.0
H997 H 0.59258 0.09958 0.25654 0.0
H998 H 0.58663 0.17254 0.28931 0.0
H999 H 0.59508 0.17663 0.19437 0.0
H1000 H 0.61331 0.18487 0.26938 0.0
H1001 H 0.54536 0.09383 0.24353 0.0
H1002 H 0.55995 0.08321 0.20689 0.0
H1003 H 0.55378 0.09859 0.14844 0.0
C1004 C 0.38679 0.54315 0.34686 0.0
C1005 C 0.38991 0.52679 0.33547 0.0
C1006 C 0.40254 0.56179 0.37269 0.0
C1007 C 0.42192 0.56421 0.3848 0.0
C1008 C 0.42513 0.54773 0.37263 0.0
C1009 C 0.409 0.52915 0.34932 0.0
C1010 C 0.39848 0.57888 0.38702 0.0
C1011 C 0.44568 0.54981 0.38303 0.0
C1012 C 0.4699 0.61528 0.38243 0.0
C1013 C 0.47559 0.61732 0.45786 0.0
C1014 C 0.45183 0.5985 0.35795 0.0
C1015 C 0.43902 0.58381 0.41074 0.0
C1016 C 0.444 0.58675 0.48783 0.0
C1017 C 0.46242 0.60331 0.51032 0.0
C1018 C 0.44739 0.59573 0.27504 0.0
C1019 C 0.43044 0.57181 0.54614 0.0
H1020 H 0.37201 0.5413 0.33626 0.0
H1021 H 0.41153 0.51659 0.33957 0.0
H1022 H 0.40251 0.58424 0.44566 0.0
H1023 H 0.40807 0.59183 0.34996 0.0
H1024 H 0.38241 0.57435 0.3773 0.0
H1025 H 0.44581 0.53578 0.36799 0.0
H1026 H 0.45698 0.56235 0.34788 0.0
H1027 H 0.45058 0.55358 0.44219 0.0
H1028 H 0.48017 0.62607 0.34185 0.0
H1029 H 0.46678 0.60504 0.56887 0.0
H1030 H 0.43114 0.58984 0.26371 0.0
H1031 H 0.45128 0.58453 0.25306 0.0
H1032 H 0.45632 0.61007 0.24374 0.0
H1033 H 0.4145 0.56771 0.53663 0.0
H1034 H 0.43488 0.57785 0.60391 0.0
H1035 H 0.43124 0.55776 0.54177 0.0
C1036 C 0.88226 0.40263 0.5975 0.0
C1037 C 0.86555 0.38363 0.5825 0.0
C1038 C 0.87977 0.41855 0.62294 0.0
C1039 C 0.86005 0.41556 0.63115 0.0
C1040 C 0.84307 0.39638 0.61552 0.0
C1041 C 0.84603 0.38046 0.59253 0.0
C1042 C 0.89828 0.43856 0.64125 0.0
C1043 C 0.82187 0.39284 0.62161 0.0
C1044 C 0.85692 0.45354 0.75815 0.0
C1045 C 0.8598 0.46863 0.70692 0.0
C1046 C 0.85606 0.43569 0.73395 0.0
C1047 C 0.85752 0.43266 0.65649 0.0
C1048 C 0.85901 0.44727 0.60416 0.0
C1049 C 0.86049 0.46528 0.63014 0.0
C1050 C 0.85509 0.42079 0.79169 0.0
C1051 C 0.86004 0.44433 0.52098 0.0
H1052 H 0.89735 0.40497 0.59029 0.0
H1053 H 0.83315 0.36575 0.58023 0.0
H1054 H 0.89914 0.45046 0.60344 0.0
H1055 H 0.8973 0.44309 0.69945 0.0
H1056 H 0.91246 0.43802 0.63552 0.0
H1057 H 0.81031 0.3771 0.60689 0.0
H1058 H 0.81897 0.39605 0.67941 0.0
H1059 H 0.82008 0.40335 0.58375 0.0
H1060 H 0.85657 0.45621 0.81764 0.0
H1061 H 0.86257 0.47691 0.59049 0.0
H1062 H 0.86962 0.42085 0.79225 0.0
H1063 H 0.84308 0.40526 0.77732 0.0
H1064 H 0.85221 0.42447 0.84894 0.0
H1065 H 0.87484 0.44584 0.50684 0.0
H1066 H 0.85823 0.4556 0.48764 0.0
H1067 H 0.84816 0.42895 0.50406 0.0
C1068 C 0.40173 0.85945 0.91502 0.0
C1069 C 0.39016 0.86333 0.86398 0.0
C1070 C 0.41879 0.85866 0.89132 0.0
C1071 C 0.42401 0.86121 0.81443 0.0
C1072 C 0.41159 0.86384 0.76204 0.0
C1073 C 0.39498 0.86523 0.78767 0.0
C1074 C 0.43197 0.85646 0.94923 0.0
C1075 C 0.41633 0.86606 0.67935 0.0
C1076 C 0.47918 0.88519 0.76128 0.0
C1077 C 0.48093 0.86832 0.74309 0.0
C1078 C 0.46082 0.88298 0.78593 0.0
C1079 C 0.4436 0.86344 0.7901 0.0
C1080 C 0.44524 0.84632 0.77129 0.0
C1081 C 0.46405 0.84895 0.74915 0.0
C1082 C 0.4599 0.90159 0.80769 0.0
C1083 C 0.42707 0.82532 0.77308 0.0
H1084 H 0.39813 0.85819 0.97421 0.0
H1085 H 0.38594 0.8681 0.74815 0.0
H1086 H 0.43508 0.84429 0.93306 0.0
H1087 H 0.44671 0.87069 0.95243 0.0
H1088 H 0.42499 0.85306 1.00579 0.0
H1089 H 0.40376 0.86519 0.64528 0.0
H1090 H 0.43005 0.88086 0.66863 0.0
H1091 H 0.41953 0.85414 0.6602 0.0
H1092 H 0.49233 0.90017 0.75723 0.0
H1093 H 0.46544 0.83594 0.73445 0.0
H1094 H 0.45398 0.89996 0.86554 0.0
H1095 H 0.44941 0.90342 0.76995 0.0
H1096 H 0.47491 0.91555 0.80487 0.0
H1097 H 0.42051 0.82176 0.83019 0.0
H1098 H 0.43084 0.81362 0.75619 0.0
H1099 H 0.41525 0.82451 0.73482 0.0
C1100 C 0.52929 0.40114 0.02906 0.0
C1101 C 0.51992 0.38477 0.97936 0.0
C1102 C 0.54807 0.418 0.01263 0.0
C1103 C 0.55789 0.41851 0.94488 0.0
C1104 C 0.54921 0.40147 0.89678 0.0
C1105 C 0.53027 0.38477 0.91454 0.0
C1106 C 0.55671 0.43582 0.0655 0.0
C1107 C 0.55934 0.40137 0.82441 0.0
C1108 C 0.58831 0.47085 0.86216 0.0
C1109 C 0.60808 0.47661 0.88453 0.0
C1110 C 0.57205 0.45176 0.87944 0.0
C1111 C 0.57552 0.43791 0.92003 0.0
C1112 C 0.59546 0.44334 0.94129 0.0
C1113 C 0.61154 0.46271 0.92357 0.0
C1114 C 0.55102 0.4467 0.85623 0.0
C1115 C 0.59972 0.42886 0.98403 0.0
H1116 H 0.52164 0.40113 0.08006 0.0
H1117 H 0.52321 0.37213 0.87608 0.0
H1118 H 0.5728 0.44103 0.07766 0.0
H1119 H 0.55605 0.44858 0.03877 0.0
H1120 H 0.54833 0.43222 0.11931 0.0
H1121 H 0.55244 0.38602 0.79952 0.0
H1122 H 0.55796 0.41153 0.78345 0.0
H1123 H 0.57567 0.40715 0.83353 0.0
H1124 H 0.58538 0.48143 0.83215 0.0
H1125 H 0.62676 0.46698 0.94063 0.0
H1126 H 0.54164 0.44427 0.90676 0.0
H1127 H 0.54371 0.43249 0.82336 0.0
H1128 H 0.55102 0.45883 0.82202 0.0
H1129 H 0.59293 0.4263 0.04068 0.0
H1130 H 0.61616 0.43461 0.99021 0.0
H1131 H 0.5927 0.41401 0.95527 0.0
C1132 C 0.1482 0.53604 0.09282 0.0
C1133 C 0.13256 0.52327 0.14136 0.0
C1134 C 0.15082 0.55495 0.0718 0.0
C1135 C 0.13735 0.56108 0.09941 0.0
C1136 C 0.12194 0.5485 0.1501 0.0
C1137 C 0.11976 0.52983 0.17043 0.0
C1138 C 0.16755 0.56806 0.01823 0.0
C1139 C 0.1071 0.55431 0.18038 0.0
C1140 C 0.1454 0.6143 0.08703 0.0
C1141 C 0.13266 0.61223 0.02698 0.0
C1142 C 0.14808 0.5981 0.10894 0.0
C1143 C 0.13776 0.57949 0.0699 0.0
C1144 C 0.12576 0.57773 1.00694 0.0
C1145 C 0.1234 0.59409 0.9863 0.0
C1146 C 0.16114 0.6006 0.17602 0.0
C1147 C 0.11443 0.55818 0.96372 0.0
H1148 H 0.15823 0.53116 0.07043 0.0
H1149 H 0.10755 0.52011 0.20767 0.0
H1150 H 0.16099 0.56862 0.96345 0.0
H1151 H 0.17618 0.58376 0.0397 0.0
H1152 H 0.17814 0.56232 1.00893 0.0
H1153 H 0.09686 0.54349 0.22315 0.0
H1154 H 0.11524 0.56958 0.20584 0.0
H1155 H 0.09777 0.55487 0.13383 0.0
H1156 H 0.15268 0.62827 0.11862 0.0
H1157 H 0.11379 0.5924 0.93913 0.0
H1158 H 0.17137 0.5946 0.16375 0.0
H1159 H 0.15143 0.59182 0.22377 0.0
H1160 H 0.17035 0.61665 0.19346 0.0
H1161 H 0.12477 0.55264 0.94706 0.0
H1162 H 0.1071 0.55981 0.91252 0.0
H1163 H 0.10257 0.54645 0.99991 0.0
C1164 C 0.40588 0.04298 0.01523 0.0
C1165 C 0.42101 0.04743 0.06855 0.0
C1166 C 0.39369 0.02315 0.98851 0.0
C1167 C 0.39663 0.00747 0.01641 0.0
C1168 C 0.41118 0.01178 0.07316 0.0
C1169 C 0.42326 0.0317 0.09815 0.0
C1170 C 0.3784 0.01919 0.92782 0.0
C1171 C 0.41466 0.99549 0.10517 0.0
C1172 C 0.3597 0.9515 0.98684 0.0
C1173 C 0.36974 0.94675 0.93186 0.0
C1174 C 0.36771 0.97146 0.01259 0.0
C1175 C 0.38604 0.98696 0.982 0.0
C1176 C 0.3955 0.98238 0.92316 0.0
C1177 C 0.38731 0.96233 0.89919 0.0
C1178 C 0.35721 0.9757 0.07557 0.0
C1179 C 0.41492 0.99848 0.88825 0.0
H1180 H 0.40413 0.05511 0.99202 0.0
H1181 H 0.43482 0.03503 0.13987 0.0
H1182 H 0.38352 0.01574 0.87455 0.0
H1183 H 0.36362 0.00585 0.94209 0.0
H1184 H 0.37627 0.03236 0.91849 0.0
H1185 H 0.42526 0.00096 0.15344 0.0
H1186 H 0.40017 0.98241 0.12372 0.0
H1187 H 0.421 0.99 0.06121 0.0
H1188 H 0.34616 0.93949 0.01248 0.0
H1189 H 0.39504 0.95875 0.85622 0.0
H1190 H 0.35596 0.98923 0.06286 0.0
H1191 H 0.36626 0.97894 0.12761 0.0
H1192 H 0.34186 0.96273 0.08633 0.0
H1193 H 0.41352 0.0117 0.87168 0.0
H1194 H 0.41921 0.99286 0.83814 0.0
H1195 H 0.42733 0.0038 0.92986 0.0
C1196 C 0.42355 0.38894 0.06302 0.0
C1197 C 0.42083 0.37147 0.09902 0.0
C1198 C 0.4118 0.39762 0.08217 0.0
C1199 C 0.39712 0.38874 0.13941 0.0
C1200 C 0.39345 0.37039 0.17271 0.0
C1201 C 0.40532 0.3619 0.15182 0.0
C1202 C 0.41603 0.41704 0.04455 0.0
C1203 C 0.37797 0.36048 0.23396 0.0
C1204 C 0.39075 0.42717 0.25157 0.0
C1205 C 0.37311 0.42543 0.22071 0.0
C1206 C 0.39815 0.41465 0.22779 0.0
C1207 C 0.3878 0.40018 0.17093 0.0
C1208 C 0.36959 0.39788 0.14115 0.0
C1209 C 0.36238 0.41051 0.16676 0.0
C1210 C 0.4175 0.41747 0.2617 0.0
C1211 C 0.35823 0.38272 0.08013 0.0
H1212 H 0.43539 0.39627 0.02154 0.0
H1213 H 0.40317 0.34839 0.17982 0.0
H1214 H 0.40175 0.41615 0.02628 0.0
H1215 H 0.42342 0.4297 0.08505 0.0
H1216 H 0.42607 0.42061 0.99512 0.0
H1217 H 0.37486 0.34495 0.24627 0.0
H1218 H 0.38356 0.36961 0.28593 0.0
H1219 H 0.3636 0.35981 0.21843 0.0
H1220 H 0.39899 0.43856 0.29382 0.0
H1221 H 0.34877 0.4092 0.14258 0.0
H1222 H 0.42948 0.42307 0.21833 0.0
H1223 H 0.41531 0.40282 0.28225 0.0
H1224 H 0.42289 0.42837 0.30901 0.0
H1225 H 0.36718 0.38751 0.02763 0.0
H1226 H 0.34325 0.38122 0.06894 0.0
H1227 H 0.35603 0.36769 0.09532 0.0
C1228 C 0.034 0.42791 0.26268 0.0
C1229 C 0.04975 0.42547 0.29073 0.0
C1230 C 0.01407 0.41541 0.28669 0.0
C1231 C 0.00982 0.40023 0.34066 0.0
C1232 C 0.02552 0.39709 0.36668 0.0
C1233 C 0.04533 0.40973 0.34115 0.0
C1234 C 0.99772 0.41912 0.25693 0.0
C1235 C 0.02159 0.38111 0.42434 0.0
C1236 C 0.96486 0.38918 0.46154 0.0
C1237 C 0.94935 0.3719 0.42709 0.0
C1238 C 0.98483 0.39787 0.43651 0.0
C1239 C 0.98938 0.38918 0.37488 0.0
C1240 C 0.97395 0.37113 0.34226 0.0
C1241 C 0.95407 0.36261 0.36907 0.0
C1242 C 0.00088 0.41698 0.47353 0.0
C1243 C 0.9782 0.36146 0.27637 0.0
H1244 H 0.03732 0.43995 0.22321 0.0
H1245 H 0.05747 0.4078 0.36308 0.0
H1246 H 0.9847 0.4048 0.23666 0.0
H1247 H 0.99216 0.42491 0.30265 0.0
H1248 H 0.00316 0.43025 0.21038 0.0
H1249 H 0.0348 0.37894 0.43192 0.0
H1250 H 0.01809 0.38555 0.479 0.0
H1251 H 0.00831 0.36646 0.40815 0.0
H1252 H 0.96127 0.39631 0.50684 0.0
H1253 H 0.94209 0.3493 0.34206 0.0
H1254 H 0.00612 0.42979 0.43382 0.0
H1255 H 0.01415 0.4155 0.48853 0.0
H1256 H 0.99526 0.42072 0.52498 0.0
H1257 H 0.9813 0.3711 0.22609 0.0
H1258 H 0.96529 0.3462 0.26374 0.0
H1259 H 0.99181 0.36019 0.28702 0.0
C1260 C 0.59321 0.95519 0.53476 0.0
C1261 C 0.57875 0.95138 0.59016 0.0
C1262 C 0.6051 0.97469 0.50512 0.0
C1263 C 0.60249 0.99064 0.53208 0.0
C1264 C 0.58885 0.98707 0.59146 0.0
C1265 C 0.57707 0.96745 0.61952 0.0
C1266 C 0.61949 0.97791 0.4419 0.0
C1267 C 0.5858 0.00373 0.62245 0.0
C1268 C 0.63822 0.04597 0.48825 0.0
C1269 C 0.62713 0.04955 0.43395 0.0
C1270 C 0.6309 0.02658 0.51851 0.0
C1271 C 0.61217 0.01049 0.4933 0.0
C1272 C 0.60156 0.01384 0.4353 0.0
C1273 C 0.60913 0.03336 0.4066 0.0
C1274 C 0.64263 0.02358 0.58026 0.0
C1275 C 0.58164 0.99703 0.40621 0.0
H1276 H 0.59453 0.94278 0.51182 0.0
H1277 H 0.56603 0.96459 0.66286 0.0
H1278 H 0.61333 0.98019 0.38884 0.0
H1279 H 0.63432 0.99168 0.45177 0.0
H1280 H 0.62187 0.96482 0.43463 0.0
H1281 H 0.57617 -0.00106 0.67338 0.0
H1282 H 0.60054 0.01717 0.63652 0.0
H1283 H 0.5785 0.00843 0.57939 0.0
H1284 H 0.65215 0.05848 0.50964 0.0
H1285 H 0.6006 0.03604 0.36412 0.0
H1286 H 0.64385 0.00995 0.56944 0.0
H1287 H 0.63451 0.02117 0.63413 0.0
H1288 H 0.65806 0.03682 0.58651 0.0
H1289 H 0.583 0.98371 0.39081 0.0
H1290 H 0.57624 0.00172 0.35651 0.0
H1291 H 0.57004 0.9922 0.45083 0.0
C1292 C 0.58662 0.63594 0.65849 0.0
C1293 C 0.5713 0.62581 0.60528 0.0
C1294 C 0.59845 0.62773 0.68308 0.0
C1295 C 0.59494 0.6091 0.65309 0.0
C1296 C 0.58029 0.59947 0.59613 0.0
C1297 C 0.56857 0.60789 0.57326 0.0
C1298 C 0.61388 0.63839 0.74406 0.0
C1299 C 0.57626 0.57972 0.56201 0.0
C1300 C 0.6309 0.58897 0.68237 0.0
C1301 C 0.62063 0.57427 0.7374 0.0
C1302 C 0.62316 0.60107 0.65603 0.0
C1303 C 0.6049 0.59848 0.68624 0.0
C1304 C 0.59508 0.58434 0.74452 0.0
C1305 C 0.60299 0.57231 0.76899 0.0
C1306 C 0.63397 0.61587 0.59345 0.0
C1307 C 0.57571 0.58129 0.77894 0.0
H1308 H 0.58876 0.64979 0.68345 0.0
H1309 H 0.55688 0.60012 0.53155 0.0
H1310 H 0.60858 0.62953 0.79666 0.0
H1311 H 0.62846 0.63949 0.72901 0.0
H1312 H 0.61649 0.65381 0.75499 0.0
H1313 H 0.56584 0.57526 0.51333 0.0
H1314 H 0.59059 0.58076 0.5435 0.0
H1315 H 0.56944 0.56759 0.60474 0.0
H1316 H 0.64451 0.59045 0.65763 0.0
H1317 H 0.59512 0.56107 0.81205 0.0
H1318 H 0.6358 0.63084 0.60711 0.0
H1319 H 0.6248 0.61047 0.5415 0.0
H1320 H 0.64907 0.61772 0.58202 0.0
H1321 H 0.57752 0.59597 0.79718 0.0
H1322 H 0.57092 0.57095 0.8279 0.0
H1323 H 0.56347 0.57485 0.73651 0.0
C1324 C 0.02998 0.60446 0.91596 0.0
C1325 C 0.04537 0.62241 0.88486 0.0
C1326 C 0.00985 0.59646 0.89347 0.0
C1327 C 0.005 0.60652 0.83774 0.0
C1328 C 0.02036 0.62507 0.80812 0.0
C1329 C 0.0404 0.63288 0.83239 0.0
C1330 C 0.99389 0.57677 0.92723 0.0
C1331 C 0.0158 0.63616 0.74833 0.0
C1332 C 0.95863 0.57035 0.72688 0.0
C1333 C 0.94349 0.57256 0.76212 0.0
C1334 C 0.97892 0.58226 0.7479 0.0
C1335 C 0.98417 0.59654 0.80637 0.0
C1336 C 0.96908 0.59958 0.83952 0.0
C1337 C 0.94888 0.5876 0.81664 0.0
C1338 C 0.99457 0.57873 0.71031 0.0
C1339 C 0.97407 0.61459 0.90223 0.0
H1340 H 0.03372 0.59642 0.95707 0.0
H1341 H 0.05228 0.64675 0.80809 0.0
H1342 H 0.98104 0.57827 0.94802 0.0
H1343 H 0.98791 0.56481 0.88368 0.0
H1344 H -0.00016 0.57177 0.97431 0.0
H1345 H 0.02891 0.65139 0.73703 0.0
H1346 H 0.01166 0.62731 0.69556 0.0
H1347 H 0.00272 0.6378 0.7649 0.0
H1348 H 0.95455 0.55885 0.68421 0.0
H1349 H 0.93719 0.5893 0.84422 0.0
H1350 H 0.00025 0.5717 0.75074 0.0
H1351 H 0.00767 0.59328 0.69226 0.0
H1352 H 0.98841 0.56867 0.66072 0.0
H1353 H 0.97787 0.60896 0.95347 0.0
H1354 H 0.96126 0.61703 0.91529 0.0
H1355 H 0.98746 0.62931 0.88776 0.0
loop_
_geom_bond_atom_site_label_1
_geom_bond_atom_site_label_2
_geom_bond_distance
_geom_bond_site_symmetry_2
_ccdc_geom_bond_type
Co0 N4 2.148 . S
Co0 N10 2.128 . S
Co0 N20 2.194 . S
Co0 O25 2.351 . S
Co0 O26 2.155 . S
Co0 O27 2.096 . S
C1 N4 1.301 1_556 S
C1 N5 1.328 . S
C1 H6 0.930 . S
C2 C3 1.333 . S
C2 N4 1.317 1_556 S
C2 H7 0.930 1_556 S
C3 C2 1.333 . S
C3 N5 1.350 . S
C3 H29 0.931 . S
N4 Co0 2.148 . S
N4 C1 1.301 1_554 S
N4 C2 1.317 1_554 S
N5 C1 1.328 . S
N5 C3 1.350 . S
H6 C1 0.930 . S
H7 C2 0.930 1_554 S
C8 O9 1.224 . S
C8 O27 1.247 . S
O9 C8 1.224 . S
N10 Co0 2.128 . S
N10 C11 1.355 . S
N10 C13 1.311 . S
C11 N10 1.355 . S
C11 C12 1.363 . S
C11 H23 0.929 . S
C12 C11 1.363 . S
C12 N14 1.375 . S
C12 H30 0.931 . S
C13 N10 1.311 . S
C13 N14 1.347 . S
C13 H24 0.929 . S
N14 C12 1.375 . S
N14 C13 1.347 . S
C15 C18 1.365 . S
C15 N20 1.328 . S
C15 H21 0.929 . S
C16 C17 1.362 . S
C16 C19 1.378 . S
C16 H31 0.929 . S
C17 C16 1.362 . S
C17 C18 1.366 . S
C18 C15 1.365 . S
C18 C17 1.366 . S
C18 H32 0.930 . S
C19 C16 1.378 . S
C19 N20 1.315 . S
C19 H22 0.930 . S
N20 Co0 2.194 . S
N20 C15 1.328 . S
N20 C19 1.315 . S
H21 C15 0.929 . S
H22 C19 0.930 . S
H23 C11 0.929 . S
H24 C13 0.929 . S
O25 Co0 2.351 . S
O25 C28 1.244 . S
O26 Co0 2.155 . S
O26 C28 1.240 . S
O27 Co0 2.096 . S
O27 C8 1.247 . S
C28 O25 1.244 . S
C28 O26 1.240 . S
H29 C3 0.931 . S
H30 C12 0.931 . S
H31 C16 0.929 . S
H32 C18 0.930 . S
Co33 N37 2.148 . S
Co33 N43 2.128 . S
Co33 N53 2.194 . S
Co33 O58 2.351 . S
Co33 O59 2.155 . S
Co33 O60 2.096 . S
C34 N37 1.301 . S
C34 N38 1.328 . S
C34 H39 0.930 . S
C35 C36 1.333 . S
C35 N37 1.317 . S
C35 H40 0.930 . S
C36 C35 1.333 . S
C36 N38 1.350 . S
C36 H62 0.931 . S
N37 Co33 2.148 . S
N37 C34 1.301 . S
N37 C35 1.317 . S
N38 C34 1.328 . S
N38 C36 1.350 . S
H39 C34 0.930 . S
H40 C35 0.930 . S
C41 O42 1.224 . S
C41 O60 1.247 . S
O42 C41 1.224 . S
N43 Co33 2.128 . S
N43 C44 1.355 . S
N43 C46 1.311 . S
C44 N43 1.355 . S
C44 C45 1.363 . S
C44 H56 0.929 . S
C45 C44 1.363 . S
C45 N47 1.375 . S
C45 H63 0.931 . S
C46 N43 1.311 . S
C46 N47 1.347 . S
C46 H57 0.929 . S
N47 C45 1.375 . S
N47 C46 1.347 . S
C48 C51 1.365 . S
C48 N53 1.328 . S
C48 H54 0.929 . S
C49 C50 1.362 . S
C49 C52 1.378 . S
C49 H64 0.929 . S
C50 C49 1.362 . S
C50 C51 1.366 . S
C51 C48 1.365 . S
C51 C50 1.366 . S
C51 H65 0.930 . S
C52 C49 1.378 . S
C52 N53 1.315 . S
C52 H55 0.930 . S
N53 Co33 2.194 . S
N53 C48 1.328 . S
N53 C52 1.315 . S
H54 C48 0.929 . S
H55 C52 0.930 . S
H56 C44 0.929 . S
H57 C46 0.929 . S
O58 Co33 2.351 . S
O58 C61 1.244 . S
O59 Co33 2.155 . S
O59 C61 1.240 . S
O60 Co33 2.096 . S
O60 C41 1.247 . S
C61 O58 1.244 . S
C61 O59 1.240 . S
H62 C36 0.931 . S
H63 C45 0.931 . S
H64 C49 0.929 . S
H65 C51 0.930 . S
Co66 N70 2.148 . S
Co66 N76 2.128 . S
Co66 N86 2.194 . S
Co66 O91 2.351 . S
Co66 O92 2.155 . S
Co66 O93 2.096 . S
C67 N70 1.301 . S
C67 N71 1.328 . S
C67 H72 0.930 . S
C68 C69 1.333 . S
C68 N70 1.317 . S
C68 H73 0.930 . S
C69 C68 1.333 . S
C69 N71 1.350 . S
C69 H95 0.931 . S
N70 Co66 2.148 . S
N70 C67 1.301 . S
N70 C68 1.317 . S
N71 C67 1.328 . S
N71 C69 1.350 . S
H72 C67 0.930 . S
H73 C68 0.930 . S
C74 O75 1.224 . S
C74 O93 1.247 . S
O75 C74 1.224 . S
N76 Co66 2.128 . S
N76 C77 1.355 . S
N76 C79 1.311 . S
C77 N76 1.355 . S
C77 C78 1.363 . S
C77 H89 0.929 . S
C78 C77 1.363 . S
C78 N80 1.375 . S
C78 H96 0.931 . S
C79 N76 1.311 . S
C79 N80 1.347 . S
C79 H90 0.929 . S
N80 C78 1.375 . S
N80 C79 1.347 . S
C81 C84 1.365 . S
C81 N86 1.328 . S
C81 H87 0.929 . S
C82 C83 1.362 . S
C82 C85 1.378 . S
C82 H97 0.929 . S
C83 C82 1.362 . S
C83 C84 1.366 . S
C84 C81 1.365 . S
C84 C83 1.366 . S
C84 H98 0.930 . S
C85 C82 1.378 . S
C85 N86 1.315 . S
C85 H88 0.930 . S
N86 Co66 2.194 . S
N86 C81 1.328 . S
N86 C85 1.315 . S
H87 C81 0.929 . S
H88 C85 0.930 . S
H89 C77 0.929 . S
H90 C79 0.929 . S
O91 Co66 2.351 . S
O91 C94 1.244 . S
O92 Co66 2.155 . S
O92 C94 1.240 . S
O93 Co66 2.096 . S
O93 C74 1.247 . S
C94 O91 1.244 . S
C94 O92 1.240 . S
H95 C69 0.931 . S
H96 C78 0.931 . S
H97 C82 0.929 . S
H98 C84 0.930 . S
Co99 N103 2.148 . S
Co99 N109 2.128 . S
Co99 N119 2.194 . S
Co99 O124 2.351 . S
Co99 O125 2.155 . S
Co99 O126 2.096 . S
C100 N103 1.301 . S
C100 N104 1.328 . S
C100 H105 0.930 . S
C101 C102 1.333 . S
C101 N103 1.317 . S
C101 H106 0.930 . S
C102 C101 1.333 . S
C102 N104 1.350 . S
C102 H128 0.931 . S
N103 Co99 2.148 . S
N103 C100 1.301 . S
N103 C101 1.317 . S
N104 C100 1.328 . S
N104 C102 1.350 . S
H105 C100 0.930 . S
H106 C101 0.930 . S
C107 O108 1.224 . S
C107 O126 1.247 . S
O108 C107 1.224 . S
N109 Co99 2.128 . S
N109 C110 1.355 . S
N109 C112 1.311 . S
C110 N109 1.355 . S
C110 C111 1.363 . S
C110 H122 0.929 . S
C111 C110 1.363 . S
C111 N113 1.375 . S
C111 H129 0.931 . S
C112 N109 1.311 . S
C112 N113 1.347 . S
C112 H123 0.929 . S
N113 C111 1.375 . S
N113 C112 1.347 . S
C114 C117 1.365 . S
C114 N119 1.328 . S
C114 H120 0.929 . S
C115 C116 1.362 . S
C115 C118 1.378 . S
C115 H130 0.929 . S
C116 C115 1.362 . S
C116 C117 1.366 . S
C117 C114 1.365 . S
C117 C116 1.366 . S
C117 H131 0.930 . S
C118 C115 1.378 . S
C118 N119 1.315 . S
C118 H121 0.930 . S
N119 Co99 2.194 . S
N119 C114 1.328 . S
N119 C118 1.315 . S
H120 C114 0.929 . S
H121 C118 0.930 . S
H122 C110 0.929 . S
H123 C112 0.929 . S
O124 Co99 2.351 . S
O124 C127 1.244 . S
O125 Co99 2.155 . S
O125 C127 1.240 . S
O126 Co99 2.096 . S
O126 C107 1.247 . S
C127 O124 1.244 . S
C127 O125 1.240 . S
H128 C102 0.931 . S
H129 C111 0.931 . S
H130 C115 0.929 . S
H131 C117 0.930 . S
Co132 N136 2.148 . S
Co132 N142 2.128 . S
Co132 N152 2.194 . S
Co132 O157 2.351 . S
Co132 O158 2.155 . S
Co132 O159 2.096 . S
C133 N136 1.301 . S
C133 N137 1.328 . S
C133 H138 0.930 . S
C134 C135 1.333 . S
C134 N136 1.317 . S
C134 H139 0.930 . S
C135 C134 1.333 . S
C135 N137 1.350 . S
C135 H161 0.931 . S
N136 Co132 2.148 . S
N136 C133 1.301 . S
N136 C134 1.317 . S
N137 C133 1.328 . S
N137 C135 1.350 . S
H138 C133 0.930 . S
H139 C134 0.930 . S
C140 O141 1.224 . S
C140 O159 1.247 . S
O141 C140 1.224 . S
N142 Co132 2.128 . S
N142 C143 1.355 . S
N142 C145 1.311 . S
C143 N142 1.355 . S
C143 C144 1.363 . S
C143 H155 0.929 . S
C144 C143 1.363 . S
C144 N146 1.375 1_556 S
C144 H162 0.931 1_556 S
C145 N142 1.311 . S
C145 N146 1.347 1_556 S
C145 H156 0.929 . S
N146 C144 1.375 1_554 S
N146 C145 1.347 1_554 S
C147 C150 1.365 . S
C147 N152 1.328 . S
C147 H153 0.929 . S
C148 C149 1.362 . S
C148 C151 1.378 . S
C148 H163 0.929 . S
C149 C148 1.362 . S
C149 C150 1.366 . S
C150 C147 1.365 . S
C150 C149 1.366 . S
C150 H164 0.930 . S
C151 C148 1.378 . S
C151 N152 1.315 . S
C151 H154 0.930 . S
N152 Co132 2.194 . S
N152 C147 1.328 . S
N152 C151 1.315 . S
H153 C147 0.929 . S
H154 C151 0.930 . S
H155 C143 0.929 . S
H156 C145 0.929 . S
O157 Co132 2.351 . S
O157 C160 1.244 . S
O158 Co132 2.155 . S
O158 C160 1.240 . S
O159 Co132 2.096 . S
O159 C140 1.247 . S
C160 O157 1.244 . S
C160 O158 1.240 . S
H161 C135 0.931 . S
H162 C144 0.931 1_554 S
H163 C148 0.929 . S
H164 C150 0.930 . S
Co165 N169 2.148 . S
Co165 N175 2.128 1_556 S
Co165 N185 2.194 . S
Co165 O190 2.351 . S
Co165 O191 2.155 . S
Co165 O192 2.096 . S
C166 N169 1.301 . S
C166 N170 1.328 . S
C166 H171 0.930 . S
C167 C168 1.333 . S
C167 N169 1.317 . S
C167 H172 0.930 . S
C168 C167 1.333 . S
C168 N170 1.350 . S
C168 H194 0.931 . S
N169 Co165 2.148 . S
N169 C166 1.301 . S
N169 C167 1.317 . S
N170 C166 1.328 . S
N170 C168 1.350 . S
H171 C166 0.930 . S
H172 C167 0.930 . S
C173 O174 1.225 . S
C173 O192 1.249 . S
O174 C173 1.225 . S
N175 Co165 2.128 1_554 S
N175 C176 1.355 . S
N175 C178 1.311 . S
C176 N175 1.355 . S
C176 C177 1.363 . S
C176 H188 0.929 . S
C177 C176 1.363 . S
C177 N179 1.375 . S
C177 H195 0.931 . S
C178 N175 1.311 . S
C178 N179 1.347 . S
C178 H189 0.929 . S
N179 C177 1.375 . S
N179 C178 1.347 . S
C180 C183 1.365 . S
C180 N185 1.328 . S
C180 H186 0.929 . S
C181 C182 1.362 . S
C181 C184 1.378 . S
C181 H196 0.929 . S
C182 C181 1.362 . S
C182 C183 1.366 . S
C183 C180 1.365 . S
C183 C182 1.366 . S
C183 H197 0.930 . S
C184 C181 1.378 . S
C184 N185 1.315 . S
C184 H187 0.930 . S
N185 Co165 2.194 . S
N185 C180 1.328 . S
N185 C184 1.315 . S
H186 C180 0.929 . S
H187 C184 0.930 . S
H188 C176 0.929 . S
H189 C178 0.929 . S
O190 Co165 2.351 . S
O190 C193 1.244 . S
O191 Co165 2.155 . S
O191 C193 1.240 . S
O192 Co165 2.096 . S
O192 C173 1.249 . S
C193 O190 1.244 . S
C193 O191 1.240 . S
H194 C168 0.931 . S
H195 C177 0.931 . S
H196 C181 0.929 . S
H197 C183 0.930 . S
Co198 N202 2.148 . S
Co198 N208 2.128 . S
Co198 N218 2.194 . S
Co198 O223 2.351 . S
Co198 O224 2.155 . S
Co198 O225 2.096 . S
C199 N202 1.301 . S
C199 N203 1.328 . S
C199 H204 0.930 . S
C200 C201 1.333 . S
C200 N202 1.317 . S
C200 H205 0.930 . S
C201 C200 1.333 . S
C201 N203 1.350 . S
C201 H227 0.931 . S
N202 Co198 2.148 . S
N202 C199 1.301 . S
N202 C200 1.317 . S
N203 C199 1.328 . S
N203 C201 1.350 . S
H204 C199 0.930 . S
H205 C200 0.930 . S
C206 O207 1.224 . S
C206 O225 1.247 . S
O207 C206 1.224 . S
N208 Co198 2.128 . S
N208 C209 1.355 . S
N208 C211 1.311 . S
C209 N208 1.355 . S
C209 C210 1.363 . S
C209 H221 0.929 . S
C210 C209 1.363 . S
C210 N212 1.375 . S
C210 H228 0.931 . S
C211 N208 1.311 . S
C211 N212 1.347 . S
C211 H222 0.929 . S
N212 C210 1.375 . S
N212 C211 1.347 . S
C213 C216 1.365 . S
C213 N218 1.328 . S
C213 H219 0.929 . S
C214 C215 1.362 . S
C214 C217 1.378 . S
C214 H229 0.929 . S
C215 C214 1.362 . S
C215 C216 1.366 . S
C216 C213 1.365 . S
C216 C215 1.366 . S
C216 H230 0.930 . S
C217 C214 1.378 . S
C217 N218 1.315 . S
C217 H220 0.930 . S
N218 Co198 2.194 . S
N218 C213 1.328 . S
N218 C217 1.315 . S
H219 C213 0.929 . S
H220 C217 0.930 . S
H221 C209 0.929 . S
H222 C211 0.929 . S
O223 Co198 2.351 . S
O223 C226 1.244 . S
O224 Co198 2.155 . S
O224 C226 1.240 . S
O225 Co198 2.096 . S
O225 C206 1.247 . S
C226 O223 1.244 . S
C226 O224 1.240 . S
H227 C201 0.931 . S
H228 C210 0.931 . S
H229 C214 0.929 . S
H230 C216 0.930 . S
Co231 N235 2.148 . S
Co231 N241 2.128 . S
Co231 N251 2.194 . S
Co231 O256 2.351 . S
Co231 O257 2.155 . S
Co231 O258 2.096 . S
C232 N235 1.301 1_554 S
C232 N236 1.328 . S
C232 H237 0.930 . S
C233 C234 1.333 . S
C233 N235 1.317 1_554 S
C233 H238 0.930 1_554 S
C234 C233 1.333 . S
C234 N236 1.350 . S
C234 H260 0.931 . S
N235 Co231 2.148 . S
N235 C232 1.301 1_556 S
N235 C233 1.317 1_556 S
N236 C232 1.328 . S
N236 C234 1.350 . S
H237 C232 0.930 . S
H238 C233 0.930 1_556 S
C239 O240 1.224 . S
C239 O258 1.247 . S
O240 C239 1.224 . S
N241 Co231 2.128 . S
N241 C242 1.355 . S
N241 C244 1.311 . S
C242 N241 1.355 . S
C242 C243 1.363 . S
C242 H254 0.929 . S
C243 C242 1.363 . S
C243 N245 1.375 . S
C243 H261 0.931 . S
C244 N241 1.311 . S
C244 N245 1.347 . S
C244 H255 0.929 . S
N245 C243 1.375 . S
N245 C244 1.347 . S
C246 C249 1.365 . S
C246 N251 1.328 . S
C246 H252 0.929 . S
C247 C248 1.362 . S
C247 C250 1.378 . S
C247 H262 0.929 . S
C248 C247 1.362 . S
C248 C249 1.366 . S
C249 C246 1.365 . S
C249 C248 1.366 . S
C249 H263 0.930 . S
C250 C247 1.378 . S
C250 N251 1.315 . S
C250 H253 0.930 . S
N251 Co231 2.194 . S
N251 C246 1.328 . S
N251 C250 1.315 . S
H252 C246 0.929 . S
H253 C250 0.930 . S
H254 C242 0.929 . S
H255 C244 0.929 . S
O256 Co231 2.351 . S
O256 C259 1.244 . S
O257 Co231 2.155 . S
O257 C259 1.240 . S
O258 Co231 2.096 . S
O258 C239 1.247 . S
C259 O256 1.244 . S
C259 O257 1.240 . S
H260 C234 0.931 . S
H261 C243 0.931 . S
H262 C247 0.929 . S
H263 C249 0.930 . S
Co264 N268 2.148 . S
Co264 N274 2.128 1_554 S
Co264 N284 2.194 . S
Co264 O289 2.351 . S
Co264 O290 2.155 . S
Co264 O291 2.096 . S
C265 N268 1.301 . S
C265 N269 1.328 . S
C265 H270 0.930 . S
C266 C267 1.333 . S
C266 N268 1.317 . S
C266 H271 0.930 . S
C267 C266 1.333 . S
C267 N269 1.350 . S
C267 H293 0.931 . S
N268 Co264 2.148 . S
N268 C265 1.301 . S
N268 C266 1.317 . S
N269 C265 1.328 . S
N269 C267 1.350 . S
H270 C265 0.930 . S
H271 C266 0.930 . S
C272 O273 1.225 . S
C272 O291 1.249 . S
O273 C272 1.225 . S
N274 Co264 2.128 1_556 S
N274 C275 1.355 . S
N274 C277 1.311 . S
C275 N274 1.355 . S
C275 C276 1.363 . S
C275 H287 0.929 . S
C276 C275 1.363 . S
C276 N278 1.375 . S
C276 H294 0.931 . S
C277 N274 1.311 . S
C277 N278 1.347 . S
C277 H288 0.929 . S
N278 C276 1.375 . S
N278 C277 1.347 . S
C279 C282 1.365 . S
C279 N284 1.328 . S
C279 H285 0.929 . S
C280 C281 1.362 . S
C280 C283 1.378 . S
C280 H295 0.929 . S
C281 C280 1.362 . S
C281 C282 1.366 . S
C282 C279 1.365 . S
C282 C281 1.366 . S
C282 H296 0.930 . S
C283 C280 1.378 . S
C283 N284 1.315 . S
C283 H286 0.930 . S
N284 Co264 2.194 . S
N284 C279 1.328 . S
N284 C283 1.315 . S
H285 C279 0.929 . S
H286 C283 0.930 . S
H287 C275 0.929 . S
H288 C277 0.929 . S
O289 Co264 2.351 . S
O289 C292 1.244 . S
O290 Co264 2.155 . S
O290 C292 1.240 . S
O291 Co264 2.096 . S
O291 C272 1.249 . S
C292 O289 1.244 . S
C292 O290 1.240 . S
H293 C267 0.931 . S
H294 C276 0.931 . S
H295 C280 0.929 . S
H296 C282 0.930 . S
Co297 N301 2.148 . S
Co297 N307 2.128 . S
Co297 N317 2.194 . S
Co297 O322 2.351 . S
Co297 O323 2.155 . S
Co297 O324 2.096 . S
C298 N301 1.301 . S
C298 N302 1.328 . S
C298 H303 0.930 . S
C299 C300 1.333 . S
C299 N301 1.317 . S
C299 H304 0.930 . S
C300 C299 1.333 . S
C300 N302 1.350 . S
C300 H326 0.931 . S
N301 Co297 2.148 . S
N301 C298 1.301 . S
N301 C299 1.317 . S
N302 C298 1.328 . S
N302 C300 1.350 . S
H303 C298 0.930 . S
H304 C299 0.930 . S
C305 O306 1.224 . S
C305 O324 1.247 . S
O306 C305 1.224 . S
N307 Co297 2.128 . S
N307 C308 1.355 . S
N307 C310 1.311 . S
C308 N307 1.355 . S
C308 C309 1.363 . S
C308 H320 0.929 . S
C309 C308 1.363 . S
C309 N311 1.375 1_554 S
C309 H327 0.931 1_554 S
C310 N307 1.311 . S
C310 N311 1.347 1_554 S
C310 H321 0.929 . S
N311 C309 1.375 1_556 S
N311 C310 1.347 1_556 S
C312 C315 1.365 . S
C312 N317 1.328 . S
C312 H318 0.929 . S
C313 C314 1.362 . S
C313 C316 1.378 . S
C313 H328 0.929 . S
C314 C313 1.362 . S
C314 C315 1.366 . S
C315 C312 1.365 . S
C315 C314 1.366 . S
C315 H329 0.930 . S
C316 C313 1.378 . S
C316 N317 1.315 . S
C316 H319 0.930 . S
N317 Co297 2.194 . S
N317 C312 1.328 . S
N317 C316 1.315 . S
H318 C312 0.929 . S
H319 C316 0.930 . S
H320 C308 0.929 . S
H321 C310 0.929 . S
O322 Co297 2.351 . S
O322 C325 1.244 . S
O323 Co297 2.155 . S
O323 C325 1.240 . S
O324 Co297 2.096 . S
O324 C305 1.247 . S
C325 O322 1.244 . S
C325 O323 1.240 . S
H326 C300 0.931 . S
H327 C309 0.931 1_556 S
H328 C313 0.929 . S
H329 C315 0.930 . S
Co330 N334 2.148 . S
Co330 N340 2.128 . S
Co330 N350 2.194 . S
Co330 O355 2.351 . S
Co330 O356 2.155 . S
Co330 O357 2.096 . S
C331 N334 1.301 . S
C331 N335 1.328 . S
C331 H336 0.930 . S
C332 C333 1.333 . S
C332 N334 1.317 . S
C332 H337 0.930 . S
C333 C332 1.333 . S
C333 N335 1.350 . S
C333 H359 0.931 . S
N334 Co330 2.148 . S
N334 C331 1.301 . S
N334 C332 1.317 . S
N335 C331 1.328 . S
N335 C333 1.350 . S
H336 C331 0.930 . S
H337 C332 0.930 . S
C338 O339 1.224 . S
C338 O357 1.247 . S
O339 C338 1.224 . S
N340 Co330 2.128 . S
N340 C341 1.355 . S
N340 C343 1.311 . S
C341 N340 1.355 . S
C341 C342 1.363 . S
C341 H353 0.929 . S
C342 C341 1.363 . S
C342 N344 1.375 . S
C342 H360 0.931 . S
C343 N340 1.311 . S
C343 N344 1.347 . S
C343 H354 0.929 . S
N344 C342 1.375 . S
N344 C343 1.347 . S
C345 C348 1.365 . S
C345 N350 1.328 . S
C345 H351 0.929 . S
C346 C347 1.362 . S
C346 C349 1.378 . S
C346 H361 0.929 . S
C347 C346 1.362 . S
C347 C348 1.366 . S
C348 C345 1.365 . S
C348 C347 1.366 . S
C348 H362 0.930 . S
C349 C346 1.378 . S
C349 N350 1.315 . S
C349 H352 0.930 . S
N350 Co330 2.194 . S
N350 C345 1.328 . S
N350 C349 1.315 . S
H351 C345 0.929 . S
H352 C349 0.930 . S
H353 C341 0.929 . S
H354 C343 0.929 . S
O355 Co330 2.351 . S
O355 C358 1.244 . S
O356 Co330 2.155 . S
O356 C358 1.240 . S
O357 Co330 2.096 . S
O357 C338 1.247 . S
C358 O355 1.244 . S
C358 O356 1.240 . S
H359 C333 0.931 . S
H360 C342 0.931 . S
H361 C346 0.929 . S
H362 C348 0.930 . S
Co363 N367 2.148 . S
Co363 N373 2.128 . S
Co363 N383 2.194 . S
Co363 O388 2.351 . S
Co363 O389 2.155 . S
Co363 O390 2.096 . S
C364 N367 1.301 . S
C364 N368 1.328 . S
C364 H369 0.930 . S
C365 C366 1.333 . S
C365 N367 1.317 . S
C365 H370 0.930 . S
C366 C365 1.333 . S
C366 N368 1.350 . S
C366 H392 0.931 . S
N367 Co363 2.148 . S
N367 C364 1.301 . S
N367 C365 1.317 . S
N368 C364 1.328 . S
N368 C366 1.350 . S
H369 C364 0.930 . S
H370 C365 0.930 . S
C371 O372 1.224 . S
C371 O390 1.247 . S
O372 C371 1.224 . S
N373 Co363 2.128 . S
N373 C374 1.355 . S
N373 C376 1.311 . S
C374 N373 1.355 . S
C374 C375 1.363 . S
C374 H386 0.929 . S
C375 C374 1.363 . S
C375 N377 1.375 . S
C375 H393 0.931 . S
C376 N373 1.311 . S
C376 N377 1.347 . S
C376 H387 0.929 . S
N377 C375 1.375 . S
N377 C376 1.347 . S
C378 C381 1.365 . S
C378 N383 1.328 . S
C378 H384 0.929 . S
C379 C380 1.362 . S
C379 C382 1.378 . S
C379 H394 0.929 . S
C380 C379 1.362 . S
C380 C381 1.366 . S
C381 C378 1.365 . S
C381 C380 1.366 . S
C381 H395 0.930 . S
C382 C379 1.378 . S
C382 N383 1.315 . S
C382 H385 0.930 . S
N383 Co363 2.194 . S
N383 C378 1.328 . S
N383 C382 1.315 . S
H384 C378 0.929 . S
H385 C382 0.930 . S
H386 C374 0.929 . S
H387 C376 0.929 . S
O388 Co363 2.351 . S
O388 C391 1.244 . S
O389 Co363 2.155 . S
O389 C391 1.240 . S
O390 Co363 2.096 . S
O390 C371 1.247 . S
C391 O388 1.244 . S
C391 O389 1.240 . S
H392 C366 0.931 . S
H393 C375 0.931 . S
H394 C379 0.929 . S
H395 C381 0.930 . S
C396 C397 1.384 1_556 S
C396 C398 1.393 1_556 S
C396 H412 0.938 . S
C397 C396 1.384 1_554 S
C397 C401 1.376 . S
C398 C396 1.393 1_554 S
C398 C399 1.369 . S
C398 C402 1.531 1_554 S
C399 C398 1.369 . S
C399 C400 1.410 . S
C399 C407 1.503 . S
C400 C399 1.410 . S
C400 C401 1.392 . S
C400 C403 1.511 . S
C401 C397 1.376 . S
C401 C400 1.392 . S
C401 H413 0.929 . S
C402 C398 1.531 1_556 S
C402 H414 0.960 . S
C402 H415 0.962 . S
C402 H416 0.960 . S
C403 C400 1.511 . S
C403 H417 0.961 . S
C403 H418 0.961 . S
C403 H419 0.961 . S
C404 C405 1.370 . S
C404 C406 1.363 . S
C404 H420 0.931 . S
C405 C404 1.370 . S
C405 C409 1.408 . S
C406 C404 1.363 . S
C406 C407 1.370 . S
C406 C410 1.524 . S
C407 C399 1.503 . S
C407 C406 1.370 . S
C407 C408 1.403 . S
C408 C407 1.403 . S
C408 C409 1.404 . S
C408 C411 1.539 . S
C409 C405 1.408 . S
C409 C408 1.404 . S
C409 H421 0.930 . S
C410 C406 1.524 . S
C410 H422 0.956 . S
C410 H423 0.961 . S
C410 H424 0.961 . S
C411 C408 1.539 . S
C411 H425 0.958 . S
C411 H426 0.961 . S
C411 H427 0.960 . S
H412 C396 0.938 . S
H413 C401 0.929 . S
H414 C402 0.960 . S
H415 C402 0.962 . S
H416 C402 0.960 . S
H417 C403 0.961 . S
H418 C403 0.961 . S
H419 C403 0.961 . S
H420 C404 0.931 . S
H421 C409 0.930 . S
H422 C410 0.956 . S
H423 C410 0.961 . S
H424 C410 0.961 . S
H425 C411 0.958 . S
H426 C411 0.961 . S
H427 C411 0.960 . S
C428 C429 1.391 . S
C428 C430 1.394 . S
C428 H444 0.931 . S
C429 C428 1.391 . S
C429 C433 1.376 . S
C430 C428 1.394 . S
C430 C431 1.369 . S
C430 C434 1.531 . S
C431 C430 1.369 . S
C431 C432 1.410 . S
C431 C439 1.503 . S
C432 C431 1.410 . S
C432 C433 1.392 . S
C432 C435 1.511 . S
C433 C429 1.376 . S
C433 C432 1.392 . S
C433 H445 0.929 . S
C434 C430 1.531 . S
C434 H446 0.960 . S
C434 H447 0.962 . S
C434 H448 0.960 . S
C435 C432 1.511 . S
C435 H449 0.961 . S
C435 H450 0.961 . S
C435 H451 0.961 . S
C436 C437 1.370 . S
C436 C438 1.363 . S
C436 H452 0.931 . S
C437 C436 1.370 . S
C437 C441 1.408 . S
C438 C436 1.363 . S
C438 C439 1.370 . S
C438 C442 1.524 . S
C439 C431 1.503 . S
C439 C438 1.370 . S
C439 C440 1.403 . S
C440 C439 1.403 . S
C440 C441 1.404 . S
C440 C443 1.539 . S
C441 C437 1.408 . S
C441 C440 1.404 . S
C441 H453 0.930 . S
C442 C438 1.524 . S
C442 H454 0.956 . S
C442 H455 0.961 . S
C442 H456 0.961 . S
C443 C440 1.539 . S
C443 H457 0.958 . S
C443 H458 0.961 . S
C443 H459 0.960 . S
H444 C428 0.931 . S
H445 C433 0.929 . S
H446 C434 0.960 . S
H447 C434 0.962 . S
H448 C434 0.960 . S
H449 C435 0.961 . S
H450 C435 0.961 . S
H451 C435 0.961 . S
H452 C436 0.931 . S
H453 C441 0.930 . S
H454 C442 0.956 . S
H455 C442 0.961 . S
H456 C442 0.961 . S
H457 C443 0.958 . S
H458 C443 0.961 . S
H459 C443 0.960 . S
C460 C461 1.391 . S
C460 C462 1.394 . S
C460 H476 0.931 . S
C461 C460 1.391 . S
C461 C465 1.376 . S
C462 C460 1.394 . S
C462 C463 1.369 . S
C462 C466 1.531 . S
C463 C462 1.369 . S
C463 C464 1.410 . S
C463 C471 1.503 . S
C464 C463 1.410 . S
C464 C465 1.392 . S
C464 C467 1.511 . S
C465 C461 1.376 . S
C465 C464 1.392 . S
C465 H477 0.929 . S
C466 C462 1.531 . S
C466 H478 0.960 . S
C466 H479 0.962 . S
C466 H480 0.960 . S
C467 C464 1.511 . S
C467 H481 0.961 . S
C467 H482 0.961 . S
C467 H483 0.961 . S
C468 C469 1.370 . S
C468 C470 1.363 . S
C468 H484 0.931 . S
C469 C468 1.370 . S
C469 C473 1.408 . S
C470 C468 1.363 . S
C470 C471 1.370 . S
C470 C474 1.524 . S
C471 C463 1.503 . S
C471 C470 1.370 . S
C471 C472 1.403 . S
C472 C471 1.403 . S
C472 C473 1.404 . S
C472 C475 1.539 . S
C473 C469 1.408 . S
C473 C472 1.404 . S
C473 H485 0.930 . S
C474 C470 1.524 . S
C474 H486 0.956 . S
C474 H487 0.961 . S
C474 H488 0.961 . S
C475 C472 1.539 . S
C475 H489 0.958 . S
C475 H490 0.961 . S
C475 H491 0.960 . S
H476 C460 0.931 . S
H477 C465 0.929 . S
H478 C466 0.960 . S
H479 C466 0.962 . S
H480 C466 0.960 . S
H481 C467 0.961 . S
H482 C467 0.961 . S
H483 C467 0.961 . S
H484 C468 0.931 . S
H485 C473 0.930 . S
H486 C474 0.956 . S
H487 C474 0.961 . S
H488 C474 0.961 . S
H489 C475 0.958 . S
H490 C475 0.961 . S
H491 C475 0.960 . S
C492 C493 1.391 . S
C492 C494 1.394 . S
C492 H508 0.931 . S
C493 C492 1.391 . S
C493 C497 1.376 . S
C494 C492 1.394 . S
C494 C495 1.369 . S
C494 C498 1.531 . S
C495 C494 1.369 . S
C495 C496 1.410 . S
C495 C503 1.503 . S
C496 C495 1.410 . S
C496 C497 1.392 . S
C496 C499 1.511 . S
C497 C493 1.376 . S
C497 C496 1.392 . S
C497 H509 0.929 . S
C498 C494 1.531 . S
C498 H510 0.960 . S
C498 H511 0.962 . S
C498 H512 0.960 . S
C499 C496 1.511 . S
C499 H513 0.961 . S
C499 H514 0.961 . S
C499 H515 0.961 . S
C500 C501 1.370 . S
C500 C502 1.363 . S
C500 H516 0.931 . S
C501 C500 1.370 . S
C501 C505 1.408 . S
C502 C500 1.363 . S
C502 C503 1.370 . S
C502 C506 1.524 . S
C503 C495 1.503 . S
C503 C502 1.370 . S
C503 C504 1.403 . S
C504 C503 1.403 . S
C504 C505 1.404 . S
C504 C507 1.539 . S
C505 C501 1.408 . S
C505 C504 1.404 . S
C505 H517 0.930 . S
C506 C502 1.524 . S
C506 H518 0.956 . S
C506 H519 0.961 . S
C506 H520 0.961 . S
C507 C504 1.539 . S
C507 H521 0.958 . S
C507 H522 0.961 . S
C507 H523 0.960 . S
H508 C492 0.931 . S
H509 C497 0.929 . S
H510 C498 0.960 . S
H511 C498 0.962 . S
H512 C498 0.960 . S
H513 C499 0.961 . S
H514 C499 0.961 . S
H515 C499 0.961 . S
H516 C500 0.931 . S
H517 C505 0.930 . S
H518 C506 0.956 . S
H519 C506 0.961 . S
H520 C506 0.961 . S
H521 C507 0.958 . S
H522 C507 0.961 . S
H523 C507 0.960 . S
C524 C525 1.391 . S
C524 C526 1.394 . S
C524 H540 0.931 . S
C525 C524 1.391 . S
C525 C529 1.376 . S
C526 C524 1.394 . S
C526 C527 1.369 . S
C526 C530 1.531 . S
C527 C526 1.369 . S
C527 C528 1.410 . S
C527 C535 1.503 . S
C528 C527 1.410 . S
C528 C529 1.392 . S
C528 C531 1.511 . S
C529 C525 1.376 . S
C529 C528 1.392 . S
C529 H541 0.929 . S
C530 C526 1.531 . S
C530 H542 0.960 . S
C530 H543 0.962 . S
C530 H544 0.960 . S
C531 C528 1.511 . S
C531 H545 0.961 . S
C531 H546 0.961 . S
C531 H547 0.961 . S
C532 C533 1.370 . S
C532 C534 1.363 . S
C532 H548 0.931 . S
C533 C532 1.370 . S
C533 C537 1.408 . S
C534 C532 1.363 . S
C534 C535 1.370 . S
C534 C538 1.524 . S
C535 C527 1.503 . S
C535 C534 1.370 . S
C535 C536 1.403 . S
C536 C535 1.403 . S
C536 C537 1.404 . S
C536 C539 1.539 . S
C537 C533 1.408 . S
C537 C536 1.404 . S
C537 H549 0.930 . S
C538 C534 1.524 . S
C538 H550 0.956 . S
C538 H551 0.961 . S
C538 H552 0.961 . S
C539 C536 1.539 . S
C539 H553 0.958 . S
C539 H554 0.961 . S
C539 H555 0.960 . S
H540 C524 0.931 . S
H541 C529 0.929 . S
H542 C530 0.960 . S
H543 C530 0.962 . S
H544 C530 0.960 . S
H545 C531 0.961 . S
H546 C531 0.961 . S
H547 C531 0.961 . S
H548 C532 0.931 . S
H549 C537 0.930 . S
H550 C538 0.956 . S
H551 C538 0.961 . S
H552 C538 0.961 . S
H553 C539 0.958 . S
H554 C539 0.961 . S
H555 C539 0.960 . S
C556 C557 1.391 . S
C556 C558 1.394 . S
C556 H572 0.931 . S
C557 C556 1.391 . S
C557 C561 1.376 . S
C558 C556 1.394 . S
C558 C559 1.369 . S
C558 C562 1.531 . S
C559 C558 1.369 . S
C559 C560 1.410 . S
C559 C567 1.503 . S
C560 C559 1.410 . S
C560 C561 1.392 . S
C560 C563 1.511 . S
C561 C557 1.376 . S
C561 C560 1.392 . S
C561 H573 0.929 . S
C562 C558 1.531 . S
C562 H574 0.960 . S
C562 H575 0.962 . S
C562 H576 0.960 . S
C563 C560 1.511 . S
C563 H577 0.961 1_556 S
C563 H578 0.961 1_556 S
C563 H579 0.961 . S
C564 C565 1.370 . S
C564 C566 1.363 . S
C564 H580 0.931 1_556 S
C565 C564 1.370 . S
C565 C569 1.408 . S
C566 C564 1.363 . S
C566 C567 1.370 . S
C566 C570 1.524 1_556 S
C567 C559 1.503 . S
C567 C566 1.370 . S
C567 C568 1.403 . S
C568 C567 1.403 . S
C568 C569 1.404 . S
C568 C571 1.539 . S
C569 C565 1.408 . S
C569 C568 1.404 . S
C569 H581 0.930 . S
C570 C566 1.524 1_554 S
C570 H582 0.956 1_554 S
C570 H583 0.961 . S
C570 H584 0.961 . S
C571 C568 1.539 . S
C571 H585 0.958 . S
C571 H586 0.961 . S
C571 H587 0.960 . S
H572 C556 0.931 . S
H573 C561 0.929 . S
H574 C562 0.960 . S
H575 C562 0.962 . S
H576 C562 0.960 . S
H577 C563 0.961 1_554 S
H578 C563 0.961 1_554 S
H579 C563 0.961 . S
H580 C564 0.931 1_554 S
H581 C569 0.930 . S
H582 C570 0.956 1_556 S
H583 C570 0.961 . S
H584 C570 0.961 . S
H585 C571 0.958 . S
H586 C571 0.961 . S
H587 C571 0.960 . S
C588 C589 1.391 . S
C588 C590 1.394 . S
C588 H604 0.931 . S
C589 C588 1.391 . S
C589 C593 1.376 . S
C590 C588 1.394 . S
C590 C591 1.369 . S
C590 C594 1.531 . S
C591 C590 1.369 . S
C591 C592 1.410 . S
C591 C599 1.503 . S
C592 C591 1.410 . S
C592 C593 1.392 . S
C592 C595 1.511 . S
C593 C589 1.376 . S
C593 C592 1.392 . S
C593 H605 0.929 . S
C594 C590 1.531 . S
C594 H606 0.960 . S
C594 H607 0.962 . S
C594 H608 0.960 . S
C595 C592 1.511 . S
C595 H609 0.961 . S
C595 H610 0.961 . S
C595 H611 0.961 . S
C596 C597 1.370 . S
C596 C598 1.363 . S
C596 H612 0.931 . S
C597 C596 1.370 . S
C597 C601 1.408 . S
C598 C596 1.363 . S
C598 C599 1.370 . S
C598 C602 1.524 . S
C599 C591 1.503 . S
C599 C598 1.370 . S
C599 C600 1.403 . S
C600 C599 1.403 . S
C600 C601 1.404 . S
C600 C603 1.539 . S
C601 C597 1.408 . S
C601 C600 1.404 . S
C601 H613 0.930 . S
C602 C598 1.524 . S
C602 H614 0.956 . S
C602 H615 0.961 . S
C602 H616 0.961 . S
C603 C600 1.539 . S
C603 H617 0.958 . S
C603 H618 0.961 . S
C603 H619 0.960 . S
H604 C588 0.931 . S
H605 C593 0.929 . S
H606 C594 0.960 . S
H607 C594 0.962 . S
H608 C594 0.960 . S
H609 C595 0.961 . S
H610 C595 0.961 . S
H611 C595 0.961 . S
H612 C596 0.931 . S
H613 C601 0.930 . S
H614 C602 0.956 . S
H615 C602 0.961 . S
H616 C602 0.961 . S
H617 C603 0.958 . S
H618 C603 0.961 . S
H619 C603 0.960 . S
C620 C621 1.391 . S
C620 C622 1.394 . S
C620 H636 0.931 . S
C621 C620 1.391 . S
C621 C625 1.376 . S
C622 C620 1.394 . S
C622 C623 1.369 . S
C622 C626 1.531 . S
C623 C622 1.369 . S
C623 C624 1.410 . S
C623 C631 1.503 . S
C624 C623 1.410 . S
C624 C625 1.392 . S
C624 C627 1.511 . S
C625 C621 1.376 . S
C625 C624 1.392 . S
C625 H637 0.929 . S
C626 C622 1.531 . S
C626 H638 0.960 . S
C626 H639 0.962 . S
C626 H640 0.960 . S
C627 C624 1.511 . S
C627 H641 0.961 . S
C627 H642 0.961 . S
C627 H643 0.961 . S
C628 C629 1.370 . S
C628 C630 1.363 . S
C628 H644 0.931 . S
C629 C628 1.370 . S
C629 C633 1.408 . S
C630 C628 1.363 . S
C630 C631 1.370 . S
C630 C634 1.524 . S
C631 C623 1.503 . S
C631 C630 1.370 . S
C631 C632 1.403 . S
C632 C631 1.403 . S
C632 C633 1.404 . S
C632 C635 1.539 . S
C633 C629 1.408 . S
C633 C632 1.404 . S
C633 H645 0.930 . S
C634 C630 1.524 . S
C634 H646 0.956 . S
C634 H647 0.961 . S
C634 H648 0.961 . S
C635 C632 1.539 . S
C635 H649 0.958 . S
C635 H650 0.961 . S
C635 H651 0.960 . S
H636 C620 0.931 . S
H637 C625 0.929 . S
H638 C626 0.960 . S
H639 C626 0.962 . S
H640 C626 0.960 . S
H641 C627 0.961 . S
H642 C627 0.961 . S
H643 C627 0.961 . S
H644 C628 0.931 . S
H645 C633 0.930 . S
H646 C634 0.956 . S
H647 C634 0.961 . S
H648 C634 0.961 . S
H649 C635 0.958 . S
H650 C635 0.961 . S
H651 C635 0.960 . S
C652 C653 1.391 . S
C652 C654 1.394 . S
C652 H668 0.931 . S
C653 C652 1.391 . S
C653 C657 1.376 . S
C654 C652 1.394 . S
C654 C655 1.369 . S
C654 C658 1.531 . S
C655 C654 1.369 . S
C655 C656 1.410 . S
C655 C663 1.503 . S
C656 C655 1.410 . S
C656 C657 1.392 . S
C656 C659 1.511 . S
C657 C653 1.376 . S
C657 C656 1.392 . S
C657 H669 0.929 . S
C658 C654 1.531 . S
C658 H670 0.960 . S
C658 H671 0.962 . S
C658 H672 0.960 . S
C659 C656 1.511 . S
C659 H673 0.961 . S
C659 H674 0.961 . S
C659 H675 0.961 . S
C660 C661 1.370 . S
C660 C662 1.363 . S
C660 H676 0.931 . S
C661 C660 1.370 . S
C661 C665 1.408 . S
C662 C660 1.363 . S
C662 C663 1.370 1_554 S
C662 C666 1.524 1_554 S
C663 C655 1.503 . S
C663 C662 1.370 1_556 S
C663 C664 1.403 1_556 S
C664 C663 1.403 1_554 S
C664 C665 1.404 . S
C664 C667 1.539 1_554 S
C665 C661 1.408 . S
C665 C664 1.404 . S
C665 H677 0.930 . S
C666 C662 1.524 1_556 S
C666 H678 0.956 . S
C666 H679 0.961 . S
C666 H680 0.961 1_556 S
C667 C664 1.539 1_556 S
C667 H681 0.958 . S
C667 H682 0.961 1_556 S
C667 H683 0.960 . S
H668 C652 0.931 . S
H669 C657 0.929 . S
H670 C658 0.960 . S
H671 C658 0.962 . S
H672 C658 0.960 . S
H673 C659 0.961 . S
H674 C659 0.961 . S
H675 C659 0.961 . S
H676 C660 0.931 . S
H677 C665 0.930 . S
H678 C666 0.956 . S
H679 C666 0.961 . S
H680 C666 0.961 1_554 S
H681 C667 0.958 . S
H682 C667 0.961 1_554 S
H683 C667 0.960 . S
C684 C685 1.391 . S
C684 C686 1.394 1_556 S
C684 H700 0.931 . S
C685 C684 1.391 . S
C685 C689 1.376 . S
C686 C684 1.394 1_554 S
C686 C687 1.369 . S
C686 C690 1.531 . S
C687 C686 1.369 . S
C687 C688 1.410 . S
C687 C695 1.503 . S
C688 C687 1.410 . S
C688 C689 1.392 1_554 S
C688 C691 1.511 . S
C689 C685 1.376 . S
C689 C688 1.392 1_556 S
C689 H701 0.929 . S
C690 C686 1.531 . S
C690 H702 0.960 . S
C690 H703 0.962 . S
C690 H704 0.960 . S
C691 C688 1.511 . S
C691 H705 0.961 . S
C691 H706 0.961 . S
C691 H707 0.961 . S
C692 C693 1.370 . S
C692 C694 1.363 . S
C692 H708 0.931 . S
C693 C692 1.370 . S
C693 C697 1.408 . S
C694 C692 1.363 . S
C694 C695 1.370 . S
C694 C698 1.524 . S
C695 C687 1.503 . S
C695 C694 1.370 . S
C695 C696 1.403 . S
C696 C695 1.403 . S
C696 C697 1.404 . S
C696 C699 1.539 . S
C697 C693 1.408 . S
C697 C696 1.404 . S
C697 H709 0.930 . S
C698 C694 1.524 . S
C698 H710 0.956 . S
C698 H711 0.961 . S
C698 H712 0.961 . S
C699 C696 1.539 . S
C699 H713 0.958 . S
C699 H714 0.961 . S
C699 H715 0.960 . S
H700 C684 0.931 . S
H701 C689 0.929 . S
H702 C690 0.960 . S
H703 C690 0.962 . S
H704 C690 0.960 . S
H705 C691 0.961 . S
H706 C691 0.961 . S
H707 C691 0.961 . S
H708 C692 0.931 . S
H709 C697 0.930 . S
H710 C698 0.956 . S
H711 C698 0.961 . S
H712 C698 0.961 . S
H713 C699 0.958 . S
H714 C699 0.961 . S
H715 C699 0.960 . S
C716 C717 1.391 . S
C716 C718 1.394 . S
C716 H732 0.931 . S
C717 C716 1.391 . S
C717 C721 1.376 . S
C718 C716 1.394 . S
C718 C719 1.369 . S
C718 C722 1.531 . S
C719 C718 1.369 . S
C719 C720 1.410 . S
C719 C727 1.503 . S
C720 C719 1.410 . S
C720 C721 1.392 . S
C720 C723 1.511 . S
C721 C717 1.376 . S
C721 C720 1.392 . S
C721 H733 0.929 . S
C722 C718 1.531 . S
C722 H734 0.960 . S
C722 H735 0.962 . S
C722 H736 0.960 . S
C723 C720 1.511 . S
C723 H737 0.961 . S
C723 H738 0.961 . S
C723 H739 0.961 . S
C724 C725 1.370 . S
C724 C726 1.363 . S
C724 H740 0.931 . S
C725 C724 1.370 . S
C725 C729 1.408 . S
C726 C724 1.363 . S
C726 C727 1.370 . S
C726 C730 1.524 . S
C727 C719 1.503 . S
C727 C726 1.370 . S
C727 C728 1.403 . S
C728 C727 1.403 . S
C728 C729 1.404 . S
C728 C731 1.539 . S
C729 C725 1.408 . S
C729 C728 1.404 . S
C729 H741 0.930 . S
C730 C726 1.524 . S
C730 H742 0.956 . S
C730 H743 0.961 . S
C730 H744 0.961 . S
C731 C728 1.539 . S
C731 H745 0.958 . S
C731 H746 0.961 . S
C731 H747 0.960 . S
H732 C716 0.931 . S
H733 C721 0.929 . S
H734 C722 0.960 . S
H735 C722 0.962 . S
H736 C722 0.960 . S
H737 C723 0.961 . S
H738 C723 0.961 . S
H739 C723 0.961 . S
H740 C724 0.931 . S
H741 C729 0.930 . S
H742 C730 0.956 . S
H743 C730 0.961 . S
H744 C730 0.961 . S
H745 C731 0.958 . S
H746 C731 0.961 . S
H747 C731 0.960 . S
C748 C749 1.391 . S
C748 C750 1.394 . S
C748 H764 0.931 . S
C749 C748 1.391 . S
C749 C753 1.376 . S
C750 C748 1.394 . S
C750 C751 1.369 . S
C750 C754 1.531 . S
C751 C750 1.369 . S
C751 C752 1.410 . S
C751 C759 1.503 . S
C752 C751 1.410 . S
C752 C753 1.392 . S
C752 C755 1.511 . S
C753 C749 1.376 . S
C753 C752 1.392 . S
C753 H765 0.929 . S
C754 C750 1.531 . S
C754 H766 0.960 . S
C754 H767 0.962 . S
C754 H768 0.960 . S
C755 C752 1.511 . S
C755 H769 0.961 . S
C755 H770 0.961 . S
C755 H771 0.961 . S
C756 C757 1.370 . S
C756 C758 1.363 . S
C756 H772 0.931 . S
C757 C756 1.370 . S
C757 C761 1.408 . S
C758 C756 1.363 . S
C758 C759 1.370 . S
C758 C762 1.524 . S
C759 C751 1.503 . S
C759 C758 1.370 . S
C759 C760 1.403 . S
C760 C759 1.403 . S
C760 C761 1.404 . S
C760 C763 1.539 . S
C761 C757 1.408 . S
C761 C760 1.404 . S
C761 H773 0.930 . S
C762 C758 1.524 . S
C762 H774 0.956 . S
C762 H775 0.961 . S
C762 H776 0.961 . S
C763 C760 1.539 . S
C763 H777 0.958 . S
C763 H778 0.961 . S
C763 H779 0.960 . S
H764 C748 0.931 . S
H765 C753 0.929 . S
H766 C754 0.960 . S
H767 C754 0.962 . S
H768 C754 0.960 . S
H769 C755 0.961 . S
H770 C755 0.961 . S
H771 C755 0.961 . S
H772 C756 0.931 . S
H773 C761 0.930 . S
H774 C762 0.956 . S
H775 C762 0.961 . S
H776 C762 0.961 . S
H777 C763 0.958 . S
H778 C763 0.961 . S
H779 C763 0.960 . S
C780 C781 1.391 . S
C780 C782 1.394 . S
C780 H796 0.931 . S
C781 C780 1.391 . S
C781 C785 1.376 . S
C782 C780 1.394 . S
C782 C783 1.369 . S
C782 C786 1.531 . S
C783 C782 1.369 . S
C783 C784 1.410 . S
C783 C791 1.503 . S
C784 C783 1.410 . S
C784 C785 1.392 . S
C784 C787 1.511 . S
C785 C781 1.376 . S
C785 C784 1.392 . S
C785 H797 0.929 . S
C786 C782 1.531 . S
C786 H798 0.960 . S
C786 H799 0.962 . S
C786 H800 0.960 . S
C787 C784 1.511 . S
C787 H801 0.961 . S
C787 H802 0.961 . S
C787 H803 0.961 . S
C788 C789 1.370 . S
C788 C790 1.363 . S
C788 H804 0.931 . S
C789 C788 1.370 . S
C789 C793 1.408 . S
C790 C788 1.363 . S
C790 C791 1.370 . S
C790 C794 1.524 . S
C791 C783 1.503 . S
C791 C790 1.370 . S
C791 C792 1.403 . S
C792 C791 1.403 . S
C792 C793 1.404 . S
C792 C795 1.539 . S
C793 C789 1.408 . S
C793 C792 1.404 . S
C793 H805 0.930 . S
C794 C790 1.524 . S
C794 H806 0.956 . S
C794 H807 0.961 . S
C794 H808 0.961 . S
C795 C792 1.539 . S
C795 H809 0.958 . S
C795 H810 0.961 . S
C795 H811 0.960 . S
H796 C780 0.931 . S
H797 C785 0.929 . S
H798 C786 0.960 . S
H799 C786 0.962 . S
H800 C786 0.960 . S
H801 C787 0.961 . S
H802 C787 0.961 . S
H803 C787 0.961 . S
H804 C788 0.931 . S
H805 C793 0.930 . S
H806 C794 0.956 . S
H807 C794 0.961 . S
H808 C794 0.961 . S
H809 C795 0.958 . S
H810 C795 0.961 . S
H811 C795 0.960 . S
C812 C813 1.391 . S
C812 C814 1.394 . S
C812 H828 0.931 . S
C813 C812 1.391 . S
C813 C817 1.376 . S
C814 C812 1.394 . S
C814 C815 1.369 . S
C814 C818 1.531 . S
C815 C814 1.369 . S
C815 C816 1.410 . S
C815 C823 1.503 . S
C816 C815 1.410 . S
C816 C817 1.392 . S
C816 C819 1.511 . S
C817 C813 1.376 . S
C817 C816 1.392 . S
C817 H829 0.929 . S
C818 C814 1.531 . S
C818 H830 0.960 . S
C818 H831 0.962 . S
C818 H832 0.960 . S
C819 C816 1.511 . S
C819 H833 0.961 . S
C819 H834 0.961 . S
C819 H835 0.961 . S
C820 C821 1.370 . S
C820 C822 1.363 . S
C820 H836 0.931 . S
C821 C820 1.370 . S
C821 C825 1.408 . S
C822 C820 1.363 . S
C822 C823 1.370 . S
C822 C826 1.524 . S
C823 C815 1.503 . S
C823 C822 1.370 . S
C823 C824 1.403 . S
C824 C823 1.403 . S
C824 C825 1.404 . S
C824 C827 1.539 . S
C825 C821 1.408 . S
C825 C824 1.404 . S
C825 H837 0.930 . S
C826 C822 1.524 . S
C826 H838 0.956 . S
C826 H839 0.961 . S
C826 H840 0.961 . S
C827 C824 1.539 . S
C827 H841 0.958 . S
C827 H842 0.961 . S
C827 H843 0.960 . S
H828 C812 0.931 . S
H829 C817 0.929 . S
H830 C818 0.960 . S
H831 C818 0.962 . S
H832 C818 0.960 . S
H833 C819 0.961 . S
H834 C819 0.961 . S
H835 C819 0.961 . S
H836 C820 0.931 . S
H837 C825 0.930 . S
H838 C826 0.956 . S
H839 C826 0.961 . S
H840 C826 0.961 . S
H841 C827 0.958 . S
H842 C827 0.961 . S
H843 C827 0.960 . S
C844 C845 1.391 . S
C844 C846 1.394 . S
C844 H860 0.931 . S
C845 C844 1.391 . S
C845 C849 1.376 . S
C846 C844 1.394 . S
C846 C847 1.369 . S
C846 C850 1.531 . S
C847 C846 1.369 . S
C847 C848 1.410 . S
C847 C855 1.503 . S
C848 C847 1.410 . S
C848 C849 1.392 . S
C848 C851 1.511 . S
C849 C845 1.376 . S
C849 C848 1.392 . S
C849 H861 0.929 . S
C850 C846 1.531 . S
C850 H862 0.960 . S
C850 H863 0.962 . S
C850 H864 0.960 . S
C851 C848 1.511 . S
C851 H865 0.961 . S
C851 H866 0.961 . S
C851 H867 0.961 . S
C852 C853 1.370 . S
C852 C854 1.363 . S
C852 H868 0.931 . S
C853 C852 1.370 . S
C853 C857 1.408 . S
C854 C852 1.363 . S
C854 C855 1.370 . S
C854 C858 1.524 . S
C855 C847 1.503 . S
C855 C854 1.370 . S
C855 C856 1.403 . S
C856 C855 1.403 . S
C856 C857 1.404 . S
C856 C859 1.539 . S
C857 C853 1.408 . S
C857 C856 1.404 . S
C857 H869 0.930 . S
C858 C854 1.524 . S
C858 H870 0.956 . S
C858 H871 0.961 . S
C858 H872 0.961 . S
C859 C856 1.539 . S
C859 H873 0.958 . S
C859 H874 0.961 . S
C859 H875 0.960 . S
H860 C844 0.931 . S
H861 C849 0.929 . S
H862 C850 0.960 . S
H863 C850 0.962 . S
H864 C850 0.960 . S
H865 C851 0.961 . S
H866 C851 0.961 . S
H867 C851 0.961 . S
H868 C852 0.931 . S
H869 C857 0.930 . S
H870 C858 0.956 . S
H871 C858 0.961 . S
H872 C858 0.961 . S
H873 C859 0.958 . S
H874 C859 0.961 . S
H875 C859 0.960 . S
C876 C877 1.391 . S
C876 C878 1.394 . S
C876 H892 0.931 . S
C877 C876 1.391 . S
C877 C881 1.376 . S
C878 C876 1.394 . S
C878 C879 1.369 . S
C878 C882 1.531 . S
C879 C878 1.369 . S
C879 C880 1.410 . S
C879 C887 1.503 . S
C880 C879 1.410 . S
C880 C881 1.392 . S
C880 C883 1.511 . S
C881 C877 1.376 . S
C881 C880 1.392 . S
C881 H893 0.929 . S
C882 C878 1.531 . S
C882 H894 0.960 . S
C882 H895 0.962 . S
C882 H896 0.960 . S
C883 C880 1.511 . S
C883 H897 0.961 . S
C883 H898 0.961 . S
C883 H899 0.961 . S
C884 C885 1.370 . S
C884 C886 1.363 . S
C884 H900 0.931 . S
C885 C884 1.370 . S
C885 C889 1.408 . S
C886 C884 1.363 . S
C886 C887 1.370 . S
C886 C890 1.524 . S
C887 C879 1.503 . S
C887 C886 1.370 . S
C887 C888 1.403 . S
C888 C887 1.403 . S
C888 C889 1.404 . S
C888 C891 1.539 . S
C889 C885 1.408 . S
C889 C888 1.404 . S
C889 H901 0.930 . S
C890 C886 1.524 . S
C890 H902 0.956 . S
C890 H903 0.961 . S
C890 H904 0.961 . S
C891 C888 1.539 . S
C891 H905 0.958 . S
C891 H906 0.961 . S
C891 H907 0.960 . S
H892 C876 0.931 . S
H893 C881 0.929 . S
H894 C882 0.960 . S
H895 C882 0.962 . S
H896 C882 0.960 . S
H897 C883 0.961 . S
H898 C883 0.961 . S
H899 C883 0.961 . S
H900 C884 0.931 . S
H901 C889 0.930 . S
H902 C890 0.956 . S
H903 C890 0.961 . S
H904 C890 0.961 . S
H905 C891 0.958 . S
H906 C891 0.961 . S
H907 C891 0.960 . S
C908 C909 1.391 . S
C908 C910 1.394 . S
C908 H924 0.931 . S
C909 C908 1.391 . S
C909 C913 1.376 . S
C910 C908 1.394 . S
C910 C911 1.369 . S
C910 C914 1.531 . S
C911 C910 1.369 . S
C911 C912 1.410 . S
C911 C919 1.503 . S
C912 C911 1.410 . S
C912 C913 1.392 . S
C912 C915 1.511 . S
C913 C909 1.376 . S
C913 C912 1.392 . S
C913 H925 0.929 . S
C914 C910 1.531 . S
C914 H926 0.960 . S
C914 H927 0.962 . S
C914 H928 0.960 . S
C915 C912 1.511 . S
C915 H929 0.961 . S
C915 H930 0.961 . S
C915 H931 0.961 . S
C916 C917 1.370 . S
C916 C918 1.363 1_554 S
C916 H932 0.931 . S
C917 C916 1.370 . S
C917 C921 1.408 . S
C918 C916 1.363 1_556 S
C918 C919 1.370 . S
C918 C922 1.524 . S
C919 C911 1.503 . S
C919 C918 1.370 . S
C919 C920 1.403 . S
C920 C919 1.403 . S
C920 C921 1.404 1_556 S
C920 C923 1.539 . S
C921 C917 1.408 . S
C921 C920 1.404 1_554 S
C921 H933 0.930 . S
C922 C918 1.524 . S
C922 H934 0.956 . S
C922 H935 0.961 . S
C922 H936 0.961 . S
C923 C920 1.539 . S
C923 H937 0.958 . S
C923 H938 0.961 . S
C923 H939 0.960 . S
H924 C908 0.931 . S
H925 C913 0.929 . S
H926 C914 0.960 . S
H927 C914 0.962 . S
H928 C914 0.960 . S
H929 C915 0.961 . S
H930 C915 0.961 . S
H931 C915 0.961 . S
H932 C916 0.931 . S
H933 C921 0.930 . S
H934 C922 0.956 . S
H935 C922 0.961 . S
H936 C922 0.961 . S
H937 C923 0.958 . S
H938 C923 0.961 . S
H939 C923 0.960 . S
C940 C941 1.391 . S
C940 C942 1.394 . S
C940 H956 0.931 . S
C941 C940 1.391 . S
C941 C945 1.376 . S
C942 C940 1.394 . S
C942 C943 1.369 . S
C942 C946 1.531 . S
C943 C942 1.369 . S
C943 C944 1.410 . S
C943 C951 1.503 . S
C944 C943 1.410 . S
C944 C945 1.392 . S
C944 C947 1.511 . S
C945 C941 1.376 . S
C945 C944 1.392 . S
C945 H957 0.929 . S
C946 C942 1.531 . S
C946 H958 0.960 . S
C946 H959 0.962 . S
C946 H960 0.960 . S
C947 C944 1.511 . S
C947 H961 0.961 . S
C947 H962 0.961 . S
C947 H963 0.961 . S
C948 C949 1.370 . S
C948 C950 1.363 . S
C948 H964 0.931 . S
C949 C948 1.370 . S
C949 C953 1.408 . S
C950 C948 1.363 . S
C950 C951 1.370 1_556 S
C950 C954 1.524 1_556 S
C951 C943 1.503 . S
C951 C950 1.370 1_554 S
C951 C952 1.403 1_554 S
C952 C951 1.403 1_556 S
C952 C953 1.404 . S
C952 C955 1.539 . S
C953 C949 1.408 . S
C953 C952 1.404 . S
C953 H965 0.930 . S
C954 C950 1.524 1_554 S
C954 H966 0.956 . S
C954 H967 0.961 . S
C954 H968 0.955 1_554 S
C955 C952 1.539 . S
C955 H969 0.958 . S
C955 H970 0.961 . S
C955 H971 0.960 1_556 S
H956 C940 0.931 . S
H957 C945 0.929 . S
H958 C946 0.960 . S
H959 C946 0.962 . S
H960 C946 0.960 . S
H961 C947 0.961 . S
H962 C947 0.961 . S
H963 C947 0.961 . S
H964 C948 0.931 . S
H965 C953 0.930 . S
H966 C954 0.956 . S
H967 C954 0.961 . S
H968 C954 0.955 1_556 S
H969 C955 0.958 . S
H970 C955 0.961 . S
H971 C955 0.960 1_554 S
C972 C973 1.391 . S
C972 C974 1.394 . S
C972 H988 0.931 . S
C973 C972 1.391 . S
C973 C977 1.376 . S
C974 C972 1.394 . S
C974 C975 1.369 . S
C974 C978 1.531 . S
C975 C974 1.369 . S
C975 C976 1.410 . S
C975 C983 1.503 . S
C976 C975 1.410 . S
C976 C977 1.392 . S
C976 C979 1.511 . S
C977 C973 1.376 . S
C977 C976 1.392 . S
C977 H989 0.929 . S
C978 C974 1.531 . S
C978 H990 0.960 . S
C978 H991 0.962 . S
C978 H992 0.960 . S
C979 C976 1.511 . S
C979 H993 0.961 . S
C979 H994 0.961 . S
C979 H995 0.961 . S
C980 C981 1.370 . S
C980 C982 1.363 . S
C980 H996 0.931 . S
C981 C980 1.370 . S
C981 C985 1.408 . S
C982 C980 1.363 . S
C982 C983 1.370 . S
C982 C986 1.524 . S
C983 C975 1.503 . S
C983 C982 1.370 . S
C983 C984 1.403 . S
C984 C983 1.403 . S
C984 C985 1.404 . S
C984 C987 1.539 . S
C985 C981 1.408 . S
C985 C984 1.404 . S
C985 H997 0.930 . S
C986 C982 1.524 . S
C986 H998 0.956 . S
C986 H999 0.961 . S
C986 H1000 0.961 . S
C987 C984 1.539 . S
C987 H1001 0.958 . S
C987 H1002 0.961 . S
C987 H1003 0.960 . S
H988 C972 0.931 . S
H989 C977 0.929 . S
H990 C978 0.960 . S
H991 C978 0.962 . S
H992 C978 0.960 . S
H993 C979 0.961 . S
H994 C979 0.961 . S
H995 C979 0.961 . S
H996 C980 0.931 . S
H997 C985 0.930 . S
H998 C986 0.956 . S
H999 C986 0.961 . S
H1000 C986 0.961 . S
H1001 C987 0.958 . S
H1002 C987 0.961 . S
H1003 C987 0.960 . S
C1004 C1005 1.391 . S
C1004 C1006 1.394 . S
C1004 H1020 0.931 . S
C1005 C1004 1.391 . S
C1005 C1009 1.376 . S
C1006 C1004 1.394 . S
C1006 C1007 1.369 . S
C1006 C1010 1.531 . S
C1007 C1006 1.369 . S
C1007 C1008 1.410 . S
C1007 C1015 1.503 . S
C1008 C1007 1.410 . S
C1008 C1009 1.392 . S
C1008 C1011 1.511 . S
C1009 C1005 1.376 . S
C1009 C1008 1.392 . S
C1009 H1021 0.929 . S
C1010 C1006 1.531 . S
C1010 H1022 0.960 . S
C1010 H1023 0.962 . S
C1010 H1024 0.960 . S
C1011 C1008 1.511 . S
C1011 H1025 0.961 . S
C1011 H1026 0.961 . S
C1011 H1027 0.961 . S
C1012 C1013 1.370 . S
C1012 C1014 1.363 . S
C1012 H1028 0.931 . S
C1013 C1012 1.370 . S
C1013 C1017 1.408 . S
C1014 C1012 1.363 . S
C1014 C1015 1.370 . S
C1014 C1018 1.524 . S
C1015 C1007 1.503 . S
C1015 C1014 1.370 . S
C1015 C1016 1.403 . S
C1016 C1015 1.403 . S
C1016 C1017 1.404 . S
C1016 C1019 1.539 . S
C1017 C1013 1.408 . S
C1017 C1016 1.404 . S
C1017 H1029 0.930 . S
C1018 C1014 1.524 . S
C1018 H1030 0.956 . S
C1018 H1031 0.961 . S
C1018 H1032 0.961 . S
C1019 C1016 1.539 . S
C1019 H1033 0.958 . S
C1019 H1034 0.961 . S
C1019 H1035 0.960 . S
H1020 C1004 0.931 . S
H1021 C1009 0.929 . S
H1022 C1010 0.960 . S
H1023 C1010 0.962 . S
H1024 C1010 0.960 . S
H1025 C1011 0.961 . S
H1026 C1011 0.961 . S
H1027 C1011 0.961 . S
H1028 C1012 0.931 . S
H1029 C1017 0.930 . S
H1030 C1018 0.956 . S
H1031 C1018 0.961 . S
H1032 C1018 0.961 . S
H1033 C1019 0.958 . S
H1034 C1019 0.961 . S
H1035 C1019 0.960 . S
C1036 C1037 1.391 . S
C1036 C1038 1.394 . S
C1036 H1052 0.931 . S
C1037 C1036 1.391 . S
C1037 C1041 1.376 . S
C1038 C1036 1.394 . S
C1038 C1039 1.369 . S
C1038 C1042 1.531 . S
C1039 C1038 1.369 . S
C1039 C1040 1.410 . S
C1039 C1047 1.503 . S
C1040 C1039 1.410 . S
C1040 C1041 1.392 . S
C1040 C1043 1.511 . S
C1041 C1037 1.376 . S
C1041 C1040 1.392 . S
C1041 H1053 0.929 . S
C1042 C1038 1.531 . S
C1042 H1054 0.960 . S
C1042 H1055 0.962 . S
C1042 H1056 0.960 . S
C1043 C1040 1.511 . S
C1043 H1057 0.961 . S
C1043 H1058 0.961 . S
C1043 H1059 0.961 . S
C1044 C1045 1.370 . S
C1044 C1046 1.363 . S
C1044 H1060 0.931 . S
C1045 C1044 1.370 . S
C1045 C1049 1.408 . S
C1046 C1044 1.363 . S
C1046 C1047 1.370 . S
C1046 C1050 1.524 . S
C1047 C1039 1.503 . S
C1047 C1046 1.370 . S
C1047 C1048 1.403 . S
C1048 C1047 1.403 . S
C1048 C1049 1.404 . S
C1048 C1051 1.539 . S
C1049 C1045 1.408 . S
C1049 C1048 1.404 . S
C1049 H1061 0.930 . S
C1050 C1046 1.524 . S
C1050 H1062 0.956 . S
C1050 H1063 0.961 . S
C1050 H1064 0.961 . S
C1051 C1048 1.539 . S
C1051 H1065 0.958 . S
C1051 H1066 0.961 . S
C1051 H1067 0.960 . S
H1052 C1036 0.931 . S
H1053 C1041 0.929 . S
H1054 C1042 0.960 . S
H1055 C1042 0.962 . S
H1056 C1042 0.960 . S
H1057 C1043 0.961 . S
H1058 C1043 0.961 . S
H1059 C1043 0.961 . S
H1060 C1044 0.931 . S
H1061 C1049 0.930 . S
H1062 C1050 0.956 . S
H1063 C1050 0.961 . S
H1064 C1050 0.961 . S
H1065 C1051 0.958 . S
H1066 C1051 0.961 . S
H1067 C1051 0.960 . S
C1068 C1069 1.391 . S
C1068 C1070 1.394 . S
C1068 H1084 0.931 . S
C1069 C1068 1.391 . S
C1069 C1073 1.376 . S
C1070 C1068 1.394 . S
C1070 C1071 1.369 . S
C1070 C1074 1.531 . S
C1071 C1070 1.369 . S
C1071 C1072 1.410 . S
C1071 C1079 1.503 . S
C1072 C1071 1.410 . S
C1072 C1073 1.392 . S
C1072 C1075 1.511 . S
C1073 C1069 1.376 . S
C1073 C1072 1.392 . S
C1073 H1085 0.929 . S
C1074 C1070 1.531 . S
C1074 H1086 0.960 . S
C1074 H1087 0.962 . S
C1074 H1088 0.960 . S
C1075 C1072 1.511 . S
C1075 H1089 0.961 . S
C1075 H1090 0.961 . S
C1075 H1091 0.961 . S
C1076 C1077 1.370 . S
C1076 C1078 1.363 . S
C1076 H1092 0.931 . S
C1077 C1076 1.370 . S
C1077 C1081 1.408 . S
C1078 C1076 1.363 . S
C1078 C1079 1.370 . S
C1078 C1082 1.524 . S
C1079 C1071 1.503 . S
C1079 C1078 1.370 . S
C1079 C1080 1.403 . S
C1080 C1079 1.403 . S
C1080 C1081 1.404 . S
C1080 C1083 1.539 . S
C1081 C1077 1.408 . S
C1081 C1080 1.404 . S
C1081 H1093 0.930 . S
C1082 C1078 1.524 . S
C1082 H1094 0.956 . S
C1082 H1095 0.961 . S
C1082 H1096 0.961 . S
C1083 C1080 1.539 . S
C1083 H1097 0.958 . S
C1083 H1098 0.961 . S
C1083 H1099 0.960 . S
H1084 C1068 0.931 . S
H1085 C1073 0.929 . S
H1086 C1074 0.960 . S
H1087 C1074 0.962 . S
H1088 C1074 0.960 . S
H1089 C1075 0.961 . S
H1090 C1075 0.961 . S
H1091 C1075 0.961 . S
H1092 C1076 0.931 . S
H1093 C1081 0.930 . S
H1094 C1082 0.956 . S
H1095 C1082 0.961 . S
H1096 C1082 0.961 . S
H1097 C1083 0.958 . S
H1098 C1083 0.961 . S
H1099 C1083 0.960 . S
C1100 C1101 1.391 1_554 S
C1100 C1102 1.394 . S
C1100 H1116 0.931 . S
C1101 C1100 1.391 1_556 S
C1101 C1105 1.376 . S
C1102 C1100 1.394 . S
C1102 C1103 1.369 1_554 S
C1102 C1106 1.531 . S
C1103 C1102 1.369 1_556 S
C1103 C1104 1.410 . S
C1103 C1111 1.503 . S
C1104 C1103 1.410 . S
C1104 C1105 1.392 . S
C1104 C1107 1.511 . S
C1105 C1101 1.376 . S
C1105 C1104 1.392 . S
C1105 H1117 0.929 . S
C1106 C1102 1.531 . S
C1106 H1118 0.960 . S
C1106 H1119 0.962 . S
C1106 H1120 0.960 . S
C1107 C1104 1.511 . S
C1107 H1121 0.961 . S
C1107 H1122 0.961 . S
C1107 H1123 0.961 . S
C1108 C1109 1.370 . S
C1108 C1110 1.363 . S
C1108 H1124 0.931 . S
C1109 C1108 1.370 . S
C1109 C1113 1.408 . S
C1110 C1108 1.363 . S
C1110 C1111 1.370 . S
C1110 C1114 1.524 . S
C1111 C1103 1.503 . S
C1111 C1110 1.370 . S
C1111 C1112 1.403 . S
C1112 C1111 1.403 . S
C1112 C1113 1.404 . S
C1112 C1115 1.539 . S
C1113 C1109 1.408 . S
C1113 C1112 1.404 . S
C1113 H1125 0.930 . S
C1114 C1110 1.524 . S
C1114 H1126 0.956 . S
C1114 H1127 0.961 . S
C1114 H1128 0.961 . S
C1115 C1112 1.539 . S
C1115 H1129 0.958 . S
C1115 H1130 0.961 . S
C1115 H1131 0.960 . S
H1116 C1100 0.931 . S
H1117 C1105 0.929 . S
H1118 C1106 0.960 . S
H1119 C1106 0.962 . S
H1120 C1106 0.960 . S
H1121 C1107 0.961 . S
H1122 C1107 0.961 . S
H1123 C1107 0.961 . S
H1124 C1108 0.931 . S
H1125 C1113 0.930 . S
H1126 C1114 0.956 . S
H1127 C1114 0.961 . S
H1128 C1114 0.961 . S
H1129 C1115 0.958 . S
H1130 C1115 0.961 . S
H1131 C1115 0.960 . S
C1132 C1133 1.391 . S
C1132 C1134 1.394 . S
C1132 H1148 0.931 . S
C1133 C1132 1.391 . S
C1133 C1137 1.376 . S
C1134 C1132 1.394 . S
C1134 C1135 1.369 . S
C1134 C1138 1.531 . S
C1135 C1134 1.369 . S
C1135 C1136 1.410 . S
C1135 C1143 1.503 . S
C1136 C1135 1.410 . S
C1136 C1137 1.392 . S
C1136 C1139 1.511 . S
C1137 C1133 1.376 . S
C1137 C1136 1.392 . S
C1137 H1149 0.929 . S
C1138 C1134 1.531 . S
C1138 H1150 0.960 . S
C1138 H1151 0.962 . S
C1138 H1152 0.960 . S
C1139 C1136 1.511 . S
C1139 H1153 0.961 . S
C1139 H1154 0.961 . S
C1139 H1155 0.961 1_554 S
C1140 C1141 1.370 . S
C1140 C1142 1.363 . S
C1140 H1156 0.931 . S
C1141 C1140 1.370 . S
C1141 C1145 1.408 1_554 S
C1142 C1140 1.363 . S
C1142 C1143 1.370 . S
C1142 C1146 1.524 . S
C1143 C1135 1.503 . S
C1143 C1142 1.370 . S
C1143 C1144 1.403 1_554 S
C1144 C1143 1.403 1_556 S
C1144 C1145 1.404 . S
C1144 C1147 1.539 . S
C1145 C1141 1.408 1_556 S
C1145 C1144 1.404 . S
C1145 H1157 0.930 . S
C1146 C1142 1.524 . S
C1146 H1158 0.956 . S
C1146 H1159 0.961 . S
C1146 H1160 0.961 . S
C1147 C1144 1.539 . S
C1147 H1161 0.958 . S
C1147 H1162 0.961 . S
C1147 H1163 0.960 . S
H1148 C1132 0.931 . S
H1149 C1137 0.929 . S
H1150 C1138 0.960 . S
H1151 C1138 0.962 . S
H1152 C1138 0.960 . S
H1153 C1139 0.961 . S
H1154 C1139 0.961 . S
H1155 C1139 0.961 1_556 S
H1156 C1140 0.931 . S
H1157 C1145 0.930 . S
H1158 C1146 0.956 . S
H1159 C1146 0.961 . S
H1160 C1146 0.961 . S
H1161 C1147 0.958 . S
H1162 C1147 0.961 . S
H1163 C1147 0.960 . S
C1164 C1165 1.391 . S
C1164 C1166 1.394 . S
C1164 H1180 0.931 . S
C1165 C1164 1.391 . S
C1165 C1169 1.376 . S
C1166 C1164 1.394 . S
C1166 C1167 1.369 1_554 S
C1166 C1170 1.531 1_554 S
C1167 C1166 1.369 1_556 S
C1167 C1168 1.410 1_556 S
C1167 C1175 1.503 1_545 S
C1168 C1167 1.410 1_554 S
C1168 C1169 1.392 . S
C1168 C1171 1.511 . S
C1169 C1165 1.376 . S
C1169 C1168 1.392 . S
C1169 H1181 0.929 . S
C1170 C1166 1.531 1_556 S
C1170 H1182 0.960 . S
C1170 H1183 0.962 1_556 S
C1170 H1184 0.960 . S
C1171 C1168 1.511 . S
C1171 H1185 0.961 . S
C1171 H1186 0.961 1_545 S
C1171 H1187 0.961 1_554 S
C1172 C1173 1.370 1_554 S
C1172 C1174 1.363 . S
C1172 H1188 0.931 . S
C1173 C1172 1.370 1_556 S
C1173 C1177 1.408 . S
C1174 C1172 1.363 . S
C1174 C1175 1.370 1_554 S
C1174 C1178 1.524 . S
C1175 C1167 1.503 1_565 S
C1175 C1174 1.370 1_556 S
C1175 C1176 1.403 . S
C1176 C1175 1.403 . S
C1176 C1177 1.404 . S
C1176 C1179 1.539 1_565 S
C1177 C1173 1.408 . S
C1177 C1176 1.404 . S
C1177 H1189 0.930 . S
C1178 C1174 1.524 . S
C1178 H1190 0.956 . S
C1178 H1191 0.961 . S
C1178 H1192 0.961 . S
C1179 C1176 1.539 1_545 S
C1179 H1193 0.958 . S
C1179 H1194 0.961 1_545 S
C1179 H1195 0.960 . S
H1180 C1164 0.931 . S
H1181 C1169 0.929 . S
H1182 C1170 0.960 . S
H1183 C1170 0.962 1_554 S
H1184 C1170 0.960 . S
H1185 C1171 0.961 . S
H1186 C1171 0.961 1_565 S
H1187 C1171 0.961 1_556 S
H1188 C1172 0.931 . S
H1189 C1177 0.930 . S
H1190 C1178 0.956 . S
H1191 C1178 0.961 . S
H1192 C1178 0.961 . S
H1193 C1179 0.958 . S
H1194 C1179 0.961 1_565 S
H1195 C1179 0.960 . S
C1196 C1197 1.391 . S
C1196 C1198 1.394 . S
C1196 H1212 0.931 . S
C1197 C1196 1.391 . S
C1197 C1201 1.376 . S
C1198 C1196 1.394 . S
C1198 C1199 1.369 . S
C1198 C1202 1.531 . S
C1199 C1198 1.369 . S
C1199 C1200 1.410 . S
C1199 C1207 1.503 . S
C1200 C1199 1.410 . S
C1200 C1201 1.392 . S
C1200 C1203 1.511 . S
C1201 C1197 1.376 . S
C1201 C1200 1.392 . S
C1201 H1213 0.929 . S
C1202 C1198 1.531 . S
C1202 H1214 0.960 . S
C1202 H1215 0.962 . S
C1202 H1216 0.950 1_554 S
C1203 C1200 1.511 . S
C1203 H1217 0.961 . S
C1203 H1218 0.961 . S
C1203 H1219 0.961 . S
C1204 C1205 1.370 . S
C1204 C1206 1.363 . S
C1204 H1220 0.931 . S
C1205 C1204 1.370 . S
C1205 C1209 1.408 . S
C1206 C1204 1.363 . S
C1206 C1207 1.370 . S
C1206 C1210 1.524 . S
C1207 C1199 1.503 . S
C1207 C1206 1.370 . S
C1207 C1208 1.403 . S
C1208 C1207 1.403 . S
C1208 C1209 1.404 . S
C1208 C1211 1.539 . S
C1209 C1205 1.408 . S
C1209 C1208 1.404 . S
C1209 H1221 0.930 . S
C1210 C1206 1.524 . S
C1210 H1222 0.956 . S
C1210 H1223 0.961 . S
C1210 H1224 0.961 . S
C1211 C1208 1.539 . S
C1211 H1225 0.958 . S
C1211 H1226 0.961 . S
C1211 H1227 0.960 . S
H1212 C1196 0.931 . S
H1213 C1201 0.929 . S
H1214 C1202 0.960 . S
H1215 C1202 0.962 . S
H1216 C1202 0.950 1_556 S
H1217 C1203 0.961 . S
H1218 C1203 0.961 . S
H1219 C1203 0.961 . S
H1220 C1204 0.931 . S
H1221 C1209 0.930 . S
H1222 C1210 0.956 . S
H1223 C1210 0.961 . S
H1224 C1210 0.961 . S
H1225 C1211 0.958 . S
H1226 C1211 0.961 . S
H1227 C1211 0.960 . S
C1228 C1229 1.391 . S
C1228 C1230 1.394 . S
C1228 H1244 0.931 . S
C1229 C1228 1.391 . S
C1229 C1233 1.376 . S
C1230 C1228 1.394 . S
C1230 C1231 1.369 . S
C1230 C1234 1.531 1_455 S
C1231 C1230 1.369 . S
C1231 C1232 1.410 . S
C1231 C1239 1.503 1_455 S
C1232 C1231 1.410 . S
C1232 C1233 1.392 . S
C1232 C1235 1.511 . S
C1233 C1229 1.376 . S
C1233 C1232 1.392 . S
C1233 H1245 0.929 . S
C1234 C1230 1.531 1_655 S
C1234 H1246 0.960 . S
C1234 H1247 0.962 . S
C1234 H1248 0.960 1_655 S
C1235 C1232 1.511 . S
C1235 H1249 0.961 . S
C1235 H1250 0.961 . S
C1235 H1251 0.961 . S
C1236 C1237 1.370 . S
C1236 C1238 1.363 . S
C1236 H1252 0.931 . S
C1237 C1236 1.370 . S
C1237 C1241 1.408 . S
C1238 C1236 1.363 . S
C1238 C1239 1.370 . S
C1238 C1242 1.524 . S
C1239 C1231 1.503 1_655 S
C1239 C1238 1.370 . S
C1239 C1240 1.403 . S
C1240 C1239 1.403 . S
C1240 C1241 1.404 . S
C1240 C1243 1.539 . S
C1241 C1237 1.408 . S
C1241 C1240 1.404 . S
C1241 H1253 0.930 . S
C1242 C1238 1.524 . S
C1242 H1254 0.956 . S
C1242 H1255 0.961 1_655 S
C1242 H1256 0.961 . S
C1243 C1240 1.539 . S
C1243 H1257 0.958 . S
C1243 H1258 0.961 . S
C1243 H1259 0.960 1_655 S
H1244 C1228 0.931 . S
H1245 C1233 0.929 . S
H1246 C1234 0.960 . S
H1247 C1234 0.962 . S
H1248 C1234 0.960 1_455 S
H1249 C1235 0.961 . S
H1250 C1235 0.961 . S
H1251 C1235 0.961 . S
H1252 C1236 0.931 . S
H1253 C1241 0.930 . S
H1254 C1242 0.956 . S
H1255 C1242 0.961 1_455 S
H1256 C1242 0.961 . S
H1257 C1243 0.958 . S
H1258 C1243 0.961 . S
H1259 C1243 0.960 1_455 S
C1260 C1261 1.391 . S
C1260 C1262 1.394 . S
C1260 H1276 0.931 . S
C1261 C1260 1.391 . S
C1261 C1265 1.376 . S
C1262 C1260 1.394 . S
C1262 C1263 1.369 . S
C1262 C1266 1.531 . S
C1263 C1262 1.369 . S
C1263 C1264 1.410 . S
C1263 C1271 1.503 1_565 S
C1264 C1263 1.410 . S
C1264 C1265 1.392 . S
C1264 C1267 1.511 1_565 S
C1265 C1261 1.376 . S
C1265 C1264 1.392 . S
C1265 H1277 0.929 . S
C1266 C1262 1.531 . S
C1266 H1278 0.960 . S
C1266 H1279 0.962 . S
C1266 H1280 0.960 . S
C1267 C1264 1.511 1_545 S
C1267 H1281 0.961 1_545 S
C1267 H1282 0.961 . S
C1267 H1283 0.961 . S
C1268 C1269 1.370 . S
C1268 C1270 1.363 . S
C1268 H1284 0.931 . S
C1269 C1268 1.370 . S
C1269 C1273 1.408 . S
C1270 C1268 1.363 . S
C1270 C1271 1.370 . S
C1270 C1274 1.524 . S
C1271 C1263 1.503 1_545 S
C1271 C1270 1.370 . S
C1271 C1272 1.403 . S
C1272 C1271 1.403 . S
C1272 C1273 1.404 . S
C1272 C1275 1.539 . S
C1273 C1269 1.408 . S
C1273 C1272 1.404 . S
C1273 H1285 0.930 . S
C1274 C1270 1.524 . S
C1274 H1286 0.969 . S
C1274 H1287 0.961 . S
C1274 H1288 0.961 . S
C1275 C1272 1.539 . S
C1275 H1289 0.958 . S
C1275 H1290 0.961 . S
C1275 H1291 0.960 1_545 S
H1276 C1260 0.931 . S
H1277 C1265 0.929 . S
H1278 C1266 0.960 . S
H1279 C1266 0.962 . S
H1280 C1266 0.960 . S
H1281 C1267 0.961 1_565 S
H1282 C1267 0.961 . S
H1283 C1267 0.961 . S
H1284 C1268 0.931 . S
H1285 C1273 0.930 . S
H1286 C1274 0.969 . S
H1287 C1274 0.961 . S
H1288 C1274 0.961 . S
H1289 C1275 0.958 . S
H1290 C1275 0.961 . S
H1291 C1275 0.960 1_565 S
C1292 C1293 1.391 . S
C1292 C1294 1.394 . S
C1292 H1308 0.931 . S
C1293 C1292 1.391 . S
C1293 C1297 1.376 . S
C1294 C1292 1.394 . S
C1294 C1295 1.369 . S
C1294 C1298 1.531 . S
C1295 C1294 1.369 . S
C1295 C1296 1.410 . S
C1295 C1303 1.503 . S
C1296 C1295 1.410 . S
C1296 C1297 1.392 . S
C1296 C1299 1.511 . S
C1297 C1293 1.376 . S
C1297 C1296 1.392 . S
C1297 H1309 0.929 . S
C1298 C1294 1.531 . S
C1298 H1310 0.960 . S
C1298 H1311 0.962 . S
C1298 H1312 0.960 . S
C1299 C1296 1.511 . S
C1299 H1313 0.961 . S
C1299 H1314 0.961 . S
C1299 H1315 0.961 . S
C1300 C1301 1.370 . S
C1300 C1302 1.363 . S
C1300 H1316 0.931 . S
C1301 C1300 1.370 . S
C1301 C1305 1.408 . S
C1302 C1300 1.363 . S
C1302 C1303 1.370 . S
C1302 C1306 1.524 . S
C1303 C1295 1.503 . S
C1303 C1302 1.370 . S
C1303 C1304 1.403 . S
C1304 C1303 1.403 . S
C1304 C1305 1.404 . S
C1304 C1307 1.539 . S
C1305 C1301 1.408 . S
C1305 C1304 1.404 . S
C1305 H1317 0.930 . S
C1306 C1302 1.524 . S
C1306 H1318 0.956 . S
C1306 H1319 0.961 . S
C1306 H1320 0.961 . S
C1307 C1304 1.539 . S
C1307 H1321 0.958 . S
C1307 H1322 0.961 . S
C1307 H1323 0.960 . S
H1308 C1292 0.931 . S
H1309 C1297 0.929 . S
H1310 C1298 0.960 . S
H1311 C1298 0.962 . S
H1312 C1298 0.960 . S
H1313 C1299 0.961 . S
H1314 C1299 0.961 . S
H1315 C1299 0.961 . S
H1316 C1300 0.931 . S
H1317 C1305 0.930 . S
H1318 C1306 0.956 . S
H1319 C1306 0.961 . S
H1320 C1306 0.961 . S
H1321 C1307 0.958 . S
H1322 C1307 0.961 . S
H1323 C1307 0.960 . S
C1324 C1325 1.391 . S
C1324 C1326 1.394 . S
C1324 H1340 0.931 . S
C1325 C1324 1.391 . S
C1325 C1329 1.376 . S
C1326 C1324 1.394 . S
C1326 C1327 1.369 . S
C1326 C1330 1.531 1_455 S
C1327 C1326 1.369 . S
C1327 C1328 1.410 . S
C1327 C1335 1.503 1_455 S
C1328 C1327 1.410 . S
C1328 C1329 1.392 . S
C1328 C1331 1.511 . S
C1329 C1325 1.376 . S
C1329 C1328 1.392 . S
C1329 H1341 0.929 . S
C1330 C1326 1.531 1_655 S
C1330 H1342 0.960 . S
C1330 H1343 0.962 . S
C1330 H1344 0.957 1_656 S
C1331 C1328 1.511 . S
C1331 H1345 0.961 . S
C1331 H1346 0.961 . S
C1331 H1347 0.961 . S
C1332 C1333 1.370 . S
C1332 C1334 1.363 . S
C1332 H1348 0.931 . S
C1333 C1332 1.370 . S
C1333 C1337 1.408 . S
C1334 C1332 1.363 . S
C1334 C1335 1.370 . S
C1334 C1338 1.524 . S
C1335 C1327 1.503 1_655 S
C1335 C1334 1.370 . S
C1335 C1336 1.403 . S
C1336 C1335 1.403 . S
C1336 C1337 1.404 . S
C1336 C1339 1.539 . S
C1337 C1333 1.408 . S
C1337 C1336 1.404 . S
C1337 H1349 0.930 . S
C1338 C1334 1.524 . S
C1338 H1350 0.956 . S
C1338 H1351 0.961 1_655 S
C1338 H1352 0.961 . S
C1339 C1336 1.539 . S
C1339 H1353 0.958 . S
C1339 H1354 0.961 . S
C1339 H1355 0.996 . S
H1340 C1324 0.931 . S
H1341 C1329 0.929 . S
H1342 C1330 0.960 . S
H1343 C1330 0.962 . S
H1344 C1330 0.957 1_454 S
H1345 C1331 0.961 . S
H1346 C1331 0.961 . S
H1347 C1331 0.961 . S
H1348 C1332 0.931 . S
H1349 C1337 0.930 . S
H1350 C1338 0.956 . S
H1351 C1338 0.961 1_455 S
H1352 C1338 0.961 . S
H1353 C1339 0.958 . S
H1354 C1339 0.961 . S
H1355 C1339 0.996 . S
C397 C281 1.285 . S
C405 C17 1.292 . S
C429 C314 1.292 . S
C437 C50 1.290 . S
C461 C347 1.282 . S
C469 C83 1.302 . S
C493 C380 1.308 . S
C501 C116 1.293 . S
C525 C149 1.283 . S
C533 C215 1.293 . S
C557 C248 1.295 . S
C565 C182 1.290 . S
C589 N5 1.430 . S
C597 N14 1.410 . S
C621 N47 1.421 . S
C629 N38 1.418 1_556 S
C653 N80 1.430 . S
C661 N71 1.415 . S
C685 N113 1.408 . S
C693 N104 1.423 . S
C717 N146 1.405 . S
C725 N137 1.423 . S
C749 N179 1.427 . S
C757 N170 1.416 . S
C781 N203 1.403 1_554 S
C789 N212 1.424 . S
C813 N245 1.398 . S
C821 N236 1.426 . S
C845 N269 1.412 . S
C853 N278 1.419 . S
C877 N302 1.403 . S
C885 N311 1.424 . S
C909 N335 1.403 . S
C917 N344 1.424 . S
C941 N377 1.396 . S
C949 N368 1.427 . S
C973 C8 1.548 . S
C981 C338 1.555 . S
C1005 C41 1.547 . S
C1013 C371 1.556 . S
C1037 C74 1.557 . S
C1045 C206 1.556 . S
C1069 C239 1.557 . S
C1077 C107 1.560 . S
C1101 C272 1.557 1_556 S
C1109 C140 1.560 . S
C1133 C305 1.552 . S
C1141 C173 1.557 1_554 S
C1165 C28 1.138 . S
C1173 C259 1.146 . S
C1197 C292 1.173 . S
C1205 C61 1.160 . S
C1229 C325 1.173 . S
C1237 C94 1.160 . S
C1261 C127 1.118 . S
C1269 C358 1.137 . S
C1293 C391 1.161 . S
C1301 C160 1.155 . S
C1325 C193 1.175 . S
C1333 C226 1.161 . S
