# Generated by pormake.
# Topology uoq, (4)-cn, num edge types: 1
# Building blocks:
#     Node 0, Type 0, BuildingBlock: QUQFOY_clean_sbu_1, # of connection points: 4
#     Node 1, Type 0, BuildingBlock: QUQFOY_clean_sbu_1, # of connection points: 4
#     Node 2, Type 0, BuildingBlock: QUQFOY_clean_sbu_1, # of connection points: 4
#     Node 3, Type 0, BuildingBlock: QUQFOY_clean_sbu_1, # of connection points: 4
#     Node 4, Type 0, BuildingBlock: QUQFOY_clean_sbu_1, # of connection points: 4
#     Node 5, Type 0, BuildingBlock: QUQFOY_clean_sbu_1, # of connection points: 4
#     Node 6, Type 0, BuildingBlock: QUQFOY_clean_sbu_1, # of connection points: 4
#     Node 7, Type 0, BuildingBlock: QUQFOY_clean_sbu_1, # of connection points: 4
#     Node 8, Type 0, BuildingBlock: QUQFOY_clean_sbu_1, # of connection points: 4
#     Node 9, Type 0, BuildingBlock: QUQFOY_clean_sbu_1, # of connection points: 4
#     Node 10, Type 0, BuildingBlock: QUQFOY_clean_sbu_1, # of connection points: 4
#     Node 11, Type 0, BuildingBlock: QUQFOY_clean_sbu_1, # of connection points: 4
#     Edge 12, Type (0, 0), BuildingBlock: TEMPAE_clean_linker_10, # of connection points: 2
#     Edge 13, Type (0, 0), BuildingBlock: TEMPAE_clean_linker_10, # of connection points: 2
#     Edge 14, Type (0, 0), BuildingBlock: TEMPAE_clean_linker_10, # of connection points: 2
#     Edge 15, Type (0, 0), BuildingBlock: TEMPAE_clean_linker_10, # of connection points: 2
#     Edge 16, Type (0, 0), BuildingBlock: TEMPAE_clean_linker_10, # of connection points: 2
#     Edge 17, Type (0, 0), BuildingBlock: TEMPAE_clean_linker_10, # of connection points: 2
#     Edge 18, Type (0, 0), BuildingBlock: TEMPAE_clean_linker_10, # of connection points: 2
#     Edge 19, Type (0, 0), BuildingBlock: TEMPAE_clean_linker_10, # of connection points: 2
#     Edge 20, Type (0, 0), BuildingBlock: TEMPAE_clean_linker_10, # of connection points: 2
#     Edge 21, Type (0, 0), BuildingBlock: TEMPAE_clean_linker_10, # of connection points: 2
#     Edge 22, Type (0, 0), BuildingBlock: TEMPAE_clean_linker_10, # of connection points: 2
#     Edge 23, Type (0, 0), BuildingBlock: TEMPAE_clean_linker_10, # of connection points: 2
#     Edge 24, Type (0, 0), BuildingBlock: TEMPAE_clean_linker_10, # of connection points: 2
#     Edge 25, Type (0, 0), BuildingBlock: TEMPAE_clean_linker_10, # of connection points: 2
#     Edge 26, Type (0, 0), BuildingBlock: TEMPAE_clean_linker_10, # of connection points: 2
#     Edge 27, Type (0, 0), BuildingBlock: TEMPAE_clean_linker_10, # of connection points: 2
#     Edge 28, Type (0, 0), BuildingBlock: TEMPAE_clean_linker_10, # of connection points: 2
#     Edge 29, Type (0, 0), BuildingBlock: TEMPAE_clean_linker_10, # of connection points: 2
#     Edge 30, Type (0, 0), BuildingBlock: TEMPAE_clean_linker_10, # of connection points: 2
#     Edge 31, Type (0, 0), BuildingBlock: TEMPAE_clean_linker_10, # of connection points: 2
#     Edge 32, Type (0, 0), BuildingBlock: TEMPAE_clean_linker_10, # of connection points: 2
#     Edge 33, Type (0, 0), BuildingBlock: TEMPAE_clean_linker_10, # of connection points: 2
#     Edge 34, Type (0, 0), BuildingBlock: TEMPAE_clean_linker_10, # of connection points: 2
#     Edge 35, Type (0, 0), BuildingBlock: TEMPAE_clean_linker_10, # of connection points: 2
# Relax obj value: 0.145
# Max RMSD: 0.205
# Mean RMSD: 0.205
data_MOF--net-uoq--node1-QUQFOY_clean_sbu_1--edge1-TEMPAE_clean_linker_10
_symmetry_space_group_name_H-M    P1
_symmetry_Int_Tables_number       1
_symmetry_cell_setting            triclinic
loop_
_symmetry_equiv_pos_as_xyz
'x, y, z'
_cell_length_a     65.002736
_cell_length_b     65.017535
_cell_length_c     23.675684
_cell_angle_alpha  89.988406
_cell_angle_beta   90.031692
_cell_angle_gamma 120.01635
loop_
_atom_site_label
_atom_site_type_symbol
_atom_site_fract_x
_atom_site_fract_y
_atom_site_fract_z
_atom_type_partial_charge
O0 O 0.28176 0.47177 0.30089 0.0
Cd1 Cd 0.30213 0.47255 0.23364 0.0
Cd2 Cd 0.31104 0.44501 0.30218 0.0
O3 O 0.28108 0.44088 0.34084 0.0
O4 O 0.29133 0.48397 0.1685 0.0
O5 O 0.2851 0.44724 0.17487 0.0
C6 C 0.282 0.4628 0.14809 0.0
C7 C 0.31653 0.41233 0.2997 0.0
C8 C 0.2737 0.45559 0.33824 0.0
C9 C 0.35047 0.4948 0.28126 0.0
O10 O 0.34195 0.47687 0.31379 0.0
O11 O 0.33819 0.49547 0.2403 0.0
O12 O 0.3168 0.42246 0.34653 0.0
O13 O 0.31254 0.42036 0.25359 0.0
O14 O 0.81946 0.27546 0.62671 0.0
Cd15 Cd 0.83363 0.29895 0.56098 0.0
Cd16 Cd 0.87585 0.31076 0.62763 0.0
O17 O 0.85185 0.28058 0.66918 0.0
O18 O 0.80413 0.28868 0.51659 0.0
O19 O 0.83443 0.28585 0.48408 0.0
C20 C 0.81299 0.28178 0.47741 0.0
C21 C 0.91432 0.31709 0.62566 0.0
C22 C 0.82943 0.26963 0.66445 0.0
C23 C 0.86112 0.34801 0.61109 0.0
O24 O 0.8739 0.34131 0.63695 0.0
O25 O 0.84525 0.33428 0.57635 0.0
O26 O 0.90464 0.31822 0.67195 0.0
O27 O 0.90221 0.31229 0.57951 0.0
O28 O 0.53197 0.81494 0.97402 0.0
Cd29 Cd 0.52055 0.83023 0.91536 0.0
Cd30 Cd 0.55117 0.87031 0.98345 0.0
O31 O 0.56181 0.8472 0.01067 0.0
O32 O 0.50199 0.80253 0.86504 0.0
O33 O 0.53433 0.83493 0.83686 0.0
C34 C 0.51762 0.8135 0.82635 0.0
C35 C 0.58051 0.91015 0.9814 0.0
C36 C 0.55011 0.8248 0.00571 0.0
C37 C 0.49841 0.853 0.98255 0.0
O38 O 0.51829 0.86483 0.00749 0.0
O39 O 0.49619 0.83981 0.94066 0.0
O40 O 0.57308 0.89878 0.02821 0.0
O41 O 0.57151 0.89883 0.93486 0.0
O42 O 0.71509 0.52893 0.32291 0.0
Cd43 Cd 0.69606 0.52257 0.24964 0.0
Cd44 Cd 0.67883 0.54946 0.31941 0.0
O45 O 0.70527 0.55184 0.37083 0.0
O46 O 0.71035 0.50673 0.20619 0.0
O47 O 0.71333 0.54065 0.1794 0.0
C48 C 0.71882 0.52432 0.17157 0.0
C49 C 0.67035 0.58009 0.33217 0.0
C50 C 0.71736 0.54153 0.36588 0.0
C51 C 0.64412 0.4987 0.27785 0.0
O52 O 0.64868 0.51699 0.30666 0.0
O53 O 0.66037 0.49773 0.25025 0.0
O54 O 0.66507 0.56387 0.36954 0.0
O55 O 0.68102 0.5793 0.28696 0.0
O56 O 0.17929 0.70566 0.64314 0.0
Cd57 Cd 0.15825 0.68521 0.57764 0.0
Cd58 Cd 0.12346 0.67961 0.64567 0.0
O59 O 0.15064 0.70937 0.68219 0.0
O60 O 0.17933 0.69435 0.51062 0.0
O61 O 0.15022 0.70259 0.51946 0.0
C62 C 0.16808 0.70448 0.49113 0.0
C63 C 0.0863 0.67632 0.63981 0.0
C64 C 0.1724 0.71529 0.6794 0.0
C65 C 0.13 0.63769 0.62815 0.0
O66 O 0.12197 0.64765 0.66037 0.0
O67 O 0.14307 0.64898 0.5864 0.0
O68 O 0.09564 0.67639 0.68775 0.0
O69 O 0.09843 0.67897 0.59449 0.0
O70 O 0.4499 0.17502 0.96278 0.0
Cd71 Cd 0.46036 0.16375 0.89344 0.0
Cd72 Cd 0.43392 0.1192 0.96291 0.0
O73 O 0.42741 0.14183 0.00965 0.0
O74 O 0.47673 0.1943 0.8516 0.0
O75 O 0.44499 0.16261 0.81834 0.0
C76 C 0.46082 0.18476 0.81289 0.0
C77 C 0.40496 0.07925 0.97329 0.0
C78 C 0.43624 0.16405 0.00381 0.0
C79 C 0.48664 0.13925 0.93292 0.0
O80 O 0.46797 0.12452 0.95919 0.0
O81 O 0.48687 0.15546 0.90254 0.0
O82 O 0.41963 0.09101 0.01304 0.0
O83 O 0.40641 0.09025 0.92679 0.0
O84 O 0.53631 0.71842 0.34899 0.0
Cd85 Cd 0.52439 0.69696 0.41883 0.0
Cd86 Cd 0.55372 0.67964 0.35889 0.0
O87 O 0.56017 0.70781 0.30849 0.0
O88 O 0.50725 0.71108 0.45778 0.0
O89 O 0.53836 0.71102 0.495 0.0
C90 C 0.52243 0.71729 0.49825 0.0
C91 C 0.58331 0.66928 0.35403 0.0
C92 C 0.55086 0.7209 0.31027 0.0
C93 C 0.50041 0.64598 0.38134 0.0
O94 O 0.52013 0.65031 0.3602 0.0
O95 O 0.49856 0.66193 0.40805 0.0
O96 O 0.56921 0.66586 0.31258 0.0
O97 O 0.58101 0.67913 0.39906 0.0
O98 O 0.81915 0.52709 0.70104 0.0
Cd99 Cd 0.8365 0.52122 0.76573 0.0
Cd100 Cd 0.87552 0.55018 0.69343 0.0
O101 O 0.84999 0.55528 0.65602 0.0
O102 O 0.80937 0.50392 0.81811 0.0
O103 O 0.84037 0.53881 0.83888 0.0
C104 C 0.81949 0.52168 0.85211 0.0
C105 C 0.91359 0.58304 0.69216 0.0
C106 C 0.82772 0.54279 0.66275 0.0
C107 C 0.86281 0.49909 0.71391 0.0
O108 O 0.87399 0.51782 0.6843 0.0
O109 O 0.84841 0.49768 0.75207 0.0
O110 O 0.90328 0.57195 0.64654 0.0
O111 O 0.90233 0.57556 0.73936 0.0
O112 O 0.28037 0.80778 0.03679 0.0
Cd113 Cd 0.29718 0.8242 0.1106 0.0
Cd114 Cd 0.31334 0.86588 0.04093 0.0
O115 O 0.28894 0.84016 0.98862 0.0
O116 O 0.28255 0.79893 0.16888 0.0
O117 O 0.27794 0.83049 0.16758 0.0
C118 C 0.27315 0.81051 0.19022 0.0
C119 C 0.32011 0.90408 0.0211 0.0
C120 C 0.27842 0.81771 0.99253 0.0
C121 C 0.34925 0.85295 0.08823 0.0
O122 O 0.34441 0.86583 0.05699 0.0
O123 O 0.333 0.83588 0.11618 0.0
O124 O 0.3264 0.89285 0.9871 0.0
O125 O 0.30933 0.89342 0.06695 0.0
O126 O 0.45065 0.2773 0.33853 0.0
Cd127 Cd 0.46121 0.30226 0.40122 0.0
Cd128 Cd 0.43472 0.31614 0.32889 0.0
O129 O 0.42534 0.28413 0.29207 0.0
O130 O 0.47857 0.29092 0.44917 0.0
O131 O 0.44643 0.29108 0.47838 0.0
C132 C 0.46269 0.2856 0.48751 0.0
C133 C 0.40481 0.32564 0.33471 0.0
C134 C 0.43513 0.27173 0.3002 0.0
C135 C 0.48722 0.35016 0.34469 0.0
O136 O 0.46855 0.34445 0.3161 0.0
O137 O 0.48717 0.33656 0.38332 0.0
O138 O 0.41386 0.32498 0.28693 0.0
O139 O 0.4127 0.32089 0.38002 0.0
O140 O 0.17916 0.46954 0.69428 0.0
Cd141 Cd 0.16104 0.46897 0.76585 0.0
Cd142 Cd 0.12175 0.44011 0.70086 0.0
O143 O 0.14791 0.44045 0.65225 0.0
O144 O 0.18505 0.48102 0.82735 0.0
O145 O 0.15539 0.44376 0.823 0.0
C146 C 0.17441 0.4598 0.84774 0.0
C147 C 0.08523 0.40511 0.69624 0.0
C148 C 0.17007 0.45494 0.65371 0.0
C149 C 0.13005 0.48861 0.73304 0.0
O150 O 0.1191 0.47036 0.70192 0.0
O151 O 0.14638 0.49068 0.76617 0.0
O152 O 0.09424 0.41863 0.65302 0.0
O153 O 0.09699 0.41123 0.74301 0.0
O154 O 0.71313 0.18086 0.00173 0.0
Cd155 Cd 0.68967 0.16825 0.06785 0.0
Cd156 Cd 0.67535 0.12533 0.00671 0.0
O157 O 0.70677 0.14689 0.96623 0.0
O158 O 0.70253 0.19736 0.11489 0.0
O159 O 0.70206 0.16476 0.14328 0.0
C160 C 0.70825 0.18671 0.15223 0.0
C161 C 0.66582 0.0859 0.01439 0.0
C162 C 0.71857 0.16937 0.96745 0.0
C163 C 0.64087 0.14372 0.01764 0.0
O164 O 0.64661 0.13 0.99274 0.0
O165 O 0.65489 0.15907 0.05297 0.0
O166 O 0.66615 0.09523 0.96633 0.0
O167 O 0.67095 0.09893 0.05907 0.0
C168 C 0.31588 0.37732 0.34363 0.0
C169 C 0.32315 0.3938 0.29938 0.0
C170 C 0.32552 0.36239 0.34992 0.0
C171 C 0.3436 0.36487 0.31253 0.0
C172 C 0.35022 0.38079 0.26629 0.0
C173 C 0.33954 0.39479 0.25969 0.0
C174 C 0.31723 0.34486 0.39815 0.0
C175 C 0.36983 0.38437 0.22628 0.0
C176 C 0.39168 0.35336 0.36745 0.0
C177 C 0.38701 0.33314 0.3367 0.0
C178 C 0.37726 0.36357 0.36104 0.0
C179 C 0.35725 0.35267 0.32466 0.0
C180 C 0.35155 0.33122 0.29678 0.0
C181 C 0.3669 0.32201 0.30203 0.0
C182 C 0.3843 0.38681 0.39034 0.0
C183 C 0.32981 0.3185 0.25977 0.0
H184 H 0.3031 0.37657 0.37419 0.0
H185 H 0.34532 0.40778 0.22591 0.0
H186 H 0.31443 0.32742 0.38362 0.0
H187 H 0.33102 0.3514 0.43161 0.0
H188 H 0.30045 0.34226 0.41706 0.0
H189 H 0.37214 0.39669 0.19118 0.0
H190 H 0.38685 0.39174 0.24981 0.0
H191 H 0.36613 0.36716 0.208 0.0
H192 H 0.40749 0.36204 0.39357 0.0
H193 H 0.36343 0.30632 0.27832 0.0
H194 H 0.36941 0.38517 0.41646 0.0
H195 H 0.38836 0.40081 0.35833 0.0
H196 H 0.40012 0.39271 0.4179 0.0
H197 H 0.31408 0.31731 0.28126 0.0
H198 H 0.3259 0.3003 0.24862 0.0
H199 H 0.33257 0.32864 0.22012 0.0
C200 C 0.9561 0.34467 0.60076 0.0
C201 C 0.93931 0.32344 0.62604 0.0
C202 C 0.98034 0.35437 0.61248 0.0
C203 C 0.98781 0.342 0.64879 0.0
C204 C 0.97094 0.31949 0.67047 0.0
C205 C 0.94672 0.31074 0.66 0.0
C206 C -0.00231 0.37868 0.58952 0.0
C207 C 0.9783 0.30527 0.70709 0.0
C208 C 0.05453 0.36968 0.64548 0.0
C209 C 0.06107 0.38476 0.69243 0.0
C210 C 0.03055 0.35376 0.63369 0.0
C211 C 0.01287 0.35391 0.6682 0.0
C212 C 0.01952 0.36812 0.71767 0.0
C213 C 0.04368 0.38312 0.72974 0.0
C214 C 0.02418 0.33802 0.58226 0.0
C215 C 0.00122 0.36918 0.75494 0.0
H216 H 0.95012 0.35456 0.57532 0.0
H217 H 0.93352 0.29434 0.67973 0.0
H218 H 0.00599 0.39136 0.62503 0.0
H219 H 0.01215 0.37812 0.56607 0.0
H220 H 0.98903 0.38562 0.56085 0.0
H221 H 0.96398 0.28641 0.71047 0.0
H222 H 0.99451 0.3059 0.69004 0.0
H223 H 0.98252 0.31295 0.7502 0.0
H224 H 0.06815 0.37104 0.61676 0.0
H225 H 0.04888 0.39507 0.76561 0.0
H226 H 0.0186 0.34563 0.54757 0.0
H227 H 0.00908 0.32002 0.5915 0.0
H228 H 0.03947 0.33637 0.56717 0.0
H229 H 0.99224 0.37714 0.73098 0.0
H230 H 0.00924 0.37994 0.79362 0.0
H231 H 0.98739 0.35107 0.76775 0.0
C232 C 0.61525 0.94529 0.02381 0.0
C233 C 0.59752 0.93578 0.9823 0.0
C234 C 0.62961 0.96993 0.03036 0.0
C235 C 0.62538 0.98525 -0.00392 0.0
C236 C 0.60788 0.97567 0.95303 0.0
C237 C 0.59442 0.95097 0.946 0.0
C238 C 0.64875 0.9795 0.07507 0.0
C239 C 0.60248 0.99143 0.91647 0.0
C240 C 0.63947 0.0455 0.05223 0.0
C241 C 0.65836 0.06061 0.01729 0.0
C242 C 0.62892 0.02077 0.04691 0.0
C243 C 0.63815 0.01119 0.00713 0.0
C244 C 0.65842 0.02654 0.97486 0.0
C245 C 0.66797 0.05115 0.9794 0.0
C246 C 0.60695 0.00498 0.08105 0.0
C247 C 0.66939 0.017 0.93385 0.0
H248 H 0.61766 0.93342 0.05169 0.0
H249 H 0.58049 0.94352 0.91436 0.0
H250 H 0.66571 0.9938 0.05729 0.0
H251 H 0.64363 0.98739 0.11001 0.0
H252 H 0.65179 0.96544 0.0929 0.0
H253 H 0.58852 0.98118 0.88452 0.0
H254 H 0.59642 0.00136 0.94337 0.0
H255 H 0.61875 0.00472 0.8942 0.0
H256 H 0.63194 0.05298 0.08091 0.0
H257 H 0.68265 0.06302 0.95248 0.0
H258 H 0.6093 0.99156 0.10463 0.0
H259 H 0.59158 0.99519 0.0522 0.0
H260 H 0.6026 0.0152 0.11162 0.0
H261 H 0.67149 0.00272 0.95388 0.0
H262 H 0.68703 0.03111 0.91858 0.0
H263 H 0.65754 0.00913 0.8968 0.0
C264 C 0.6454 0.59367 0.38054 0.0
C265 C 0.6628 0.59785 0.34004 0.0
C266 C 0.63571 0.60855 0.38493 0.0
C267 C 0.64402 0.62846 0.34877 0.0
C268 C 0.66276 0.63376 0.31047 0.0
C269 C 0.67174 0.61815 0.30595 0.0
C270 C 0.6154 0.60196 0.42551 0.0
C271 C 0.67254 0.65525 0.2725 0.0
C272 C 0.59662 0.6433 0.31029 0.0
C273 C 0.60045 0.66077 0.35024 0.0
C274 C 0.61129 0.63332 0.30807 0.0
C275 C 0.63068 0.64143 0.34587 0.0
C276 C 0.63546 0.65999 0.38434 0.0
C277 C 0.62001 0.66924 0.38671 0.0
C278 C 0.60522 0.61319 0.26727 0.0
C279 C 0.65641 0.66953 0.42405 0.0
H280 H 0.63844 0.57802 0.40713 0.0
H281 H 0.68542 0.6216 0.2751 0.0
H282 H 0.61896 0.61735 0.45238 0.0
H283 H 0.5989 0.59687 0.40134 0.0
H284 H 0.61219 0.58688 0.45338 0.0
H285 H 0.68964 0.65919 0.25279 0.0
H286 H 0.65961 0.6521 0.23832 0.0
H287 H 0.67528 0.67109 0.29652 0.0
H288 H 0.58149 0.63667 0.28205 0.0
H289 H 0.62315 0.68294 0.41719 0.0
H290 H 0.60058 0.59674 0.29115 0.0
H291 H 0.62076 0.61728 0.24039 0.0
H292 H 0.59003 0.6096 0.23937 0.0
H293 H 0.65303 0.6562 0.45733 0.0
H294 H 0.65979 0.68626 0.44484 0.0
H295 H 0.67266 0.67287 0.40103 0.0
C296 C 0.95549 0.60165 0.72311 0.0
C297 C 0.93824 0.60257 0.68977 0.0
C298 C 0.9797 0.61723 0.713 0.0
C299 C 0.98659 0.63468 0.67005 0.0
C300 C 0.96907 0.63686 0.63951 0.0
C301 C 0.94502 0.62032 0.64876 0.0
C302 C -0.00218 0.61391 0.74553 0.0
C303 C 0.97569 0.65593 0.59541 0.0
C304 C 0.05228 0.67929 0.6776 0.0
C305 C 0.06126 0.66994 0.63766 0.0
C306 C 0.0277 0.66933 0.68503 0.0
C307 C 0.01199 0.64886 0.65376 0.0
C308 C 0.02103 0.64023 0.61112 0.0
C309 C 0.04564 0.65124 0.60283 0.0
C310 C 0.01868 0.67979 0.72873 0.0
C311 C 0.00494 0.61809 0.5778 0.0
H312 H 0.95008 0.58766 0.7543 0.0
H313 H 0.9315 0.62094 0.62313 0.0
H314 H 0.00797 0.60907 0.71596 0.0
H315 H 0.01074 0.63072 0.76653 0.0
H316 H 0.98951 0.59981 0.77817 0.0
H317 H 0.96032 0.65808 0.58364 0.0
H318 H 0.99032 0.67322 0.61082 0.0
H319 H 0.98208 0.65121 0.5568 0.0
H320 H 0.06449 0.69382 0.70445 0.0
H321 H 0.05272 0.64388 0.57253 0.0
H322 H 0.01339 0.66866 0.76736 0.0
H323 H 0.00277 0.68013 0.71292 0.0
H324 H 0.03247 0.69813 0.74058 0.0
H325 H -0.00331 0.60258 0.60673 0.0
H326 H 0.01466 0.61447 0.54424 0.0
H327 H 0.99035 0.61965 0.55789 0.0
C328 C 0.34332 0.94121 0.96603 0.0
C329 C 0.32681 0.92895 0.00899 0.0
C330 C 0.35258 0.96558 0.95796 0.0
C331 C 0.34475 0.97793 0.99294 0.0
C332 C 0.32674 0.96534 0.03357 0.0
C333 C 0.31817 0.94096 0.04168 0.0
C334 C 0.37206 0.97836 0.91482 0.0
C335 C 0.31745 0.97783 0.07039 0.0
C336 C 0.39262 0.04108 0.02205 0.0
C337 C 0.38802 0.05368 0.98071 0.0
C338 C 0.37805 0.01651 0.02783 0.0
C339 C 0.35801 0.00428 0.99226 0.0
C340 C 0.35249 0.01707 0.95241 0.0
C341 C 0.36783 0.04167 0.94645 0.0
C342 C 0.3849 0.00351 0.07001 0.0
C343 C 0.33085 0.00467 0.915 0.0
H344 H 0.35002 0.93203 0.94035 0.0
H345 H 0.30517 0.93148 0.07444 0.0
H346 H 0.36789 0.98947 0.88688 0.0
H347 H 0.38898 0.9904 0.9368 0.0
H348 H 0.37482 0.96589 0.88815 0.0
H349 H 0.30067 0.96508 0.09198 0.0
H350 H 0.33085 0.98838 0.10309 0.0
H351 H 0.31429 0.99034 0.04499 0.0
H352 H 0.40823 0.05029 0.04861 0.0
H353 H 0.36409 0.05145 0.91491 0.0
H354 H 0.38917 0.99115 0.0474 0.0
H355 H 0.36985 0.99271 0.09882 0.0
H356 H 0.40055 0.0158 0.09586 0.0
H357 H 0.33374 0.99407 0.88257 0.0
H358 H 0.32697 0.01747 0.89311 0.0
H359 H 0.31507 0.9922 0.94011 0.0
C360 C 0.19144 0.46757 0.94431 0.0
C361 C 0.18526 0.45398 0.89495 0.0
C362 C 0.20542 0.46507 0.98589 0.0
C363 C 0.21431 0.44941 0.97643 0.0
C364 C 0.20745 0.43508 0.92724 0.0
C365 C 0.19263 0.43729 0.88738 0.0
C366 C 0.21159 0.48006 0.03867 0.0
C367 C 0.21712 0.41876 0.91468 0.0
C368 C 0.273 0.47123 0.05181 0.0
C369 C 0.2661 0.45631 0.09898 0.0
C370 C 0.2566 0.46791 0.00923 0.0
C371 C 0.23252 0.44993 0.01549 0.0
C372 C 0.22569 0.43421 0.06213 0.0
C373 C 0.24274 0.43737 0.10297 0.0
C374 C 0.26483 0.48448 0.95909 0.0
C375 C 0.20011 0.41531 0.07132 0.0
H376 H 0.18577 0.48055 0.94976 0.0
H377 H 0.18814 0.42713 0.84849 0.0
H378 H 0.20892 0.46901 0.07669 0.0
H379 H 0.2306 0.49405 0.0375 0.0
H380 H 0.20073 0.4888 0.04306 0.0
H381 H 0.20798 0.40688 0.87825 0.0
H382 H 0.23634 0.42958 0.90475 0.0
H383 H 0.21539 0.40771 0.95201 0.0
H384 H 0.2911 0.48591 0.04901 0.0
H385 H 0.23738 0.42611 0.14014 0.0
H386 H 0.25785 0.4969 0.96243 0.0
H387 H 0.25786 0.47431 0.91927 0.0
H388 H 0.28451 0.49511 0.95642 0.0
H389 H 0.18965 0.4239 0.08295 0.0
H390 H 0.19821 0.40277 0.10552 0.0
H391 H 0.19227 0.40507 0.03201 0.0
C392 C 0.80804 0.26266 0.38248 0.0
C393 C 0.7982 0.26823 0.42859 0.0
C394 C 0.79366 0.24894 0.33734 0.0
C395 C 0.76888 0.24037 0.33892 0.0
C396 C 0.75888 0.24584 0.38553 0.0
C397 C 0.77367 0.25982 0.42953 0.0
C398 C 0.80497 0.24374 0.28784 0.0
C399 C 0.73252 0.23687 0.38901 0.0
C400 C 0.73362 0.22485 0.20268 0.0
C401 C 0.72296 0.20002 0.20137 0.0
C402 C 0.74891 0.23818 0.2467 0.0
C403 C 0.75341 0.22638 0.29102 0.0
C404 C 0.74253 0.20129 0.2904 0.0
C405 C 0.72753 0.18838 0.24528 0.0
C406 C 0.76033 0.26492 0.2456 0.0
C407 C 0.74665 0.1881 0.33747 0.0
H408 H 0.82697 0.26907 0.3816 0.0
H409 H 0.76586 0.26385 0.46526 0.0
H410 H 0.79687 0.22426 0.28226 0.0
H411 H 0.80162 0.25086 0.24847 0.0
H412 H 0.82446 0.25161 0.29319 0.0
H413 H 0.72746 0.24205 0.4291 0.0
H414 H 0.72696 0.244 0.35324 0.0
H415 H 0.72245 0.21722 0.38551 0.0
H416 H 0.73037 0.23402 0.16865 0.0
H417 H 0.71939 0.16921 0.24441 0.0
H418 H 0.77994 0.27321 0.24749 0.0
H419 H 0.75475 0.27109 0.2832 0.0
H420 H 0.75556 0.2714 0.20711 0.0
H421 H 0.76589 0.19427 0.34122 0.0
H422 H 0.73691 0.16858 0.33065 0.0
H423 H 0.74089 0.19194 0.3783 0.0
C424 C 0.50095 0.77653 0.76868 0.0
C425 C 0.51739 0.80086 0.77414 0.0
C426 C 0.50193 0.76338 0.72296 0.0
C427 C 0.51962 0.77486 0.68118 0.0
C428 C 0.53581 0.79958 0.68533 0.0
C429 C 0.53458 0.81229 0.732 0.0
C430 C 0.48439 0.73704 0.72016 0.0
C431 C 0.55466 0.81248 0.64102 0.0
C432 C 0.53578 0.73591 0.59383 0.0
C433 C 0.52194 0.73201 0.54531 0.0
C434 C 0.53543 0.75009 0.6382 0.0
C435 C 0.52115 0.76082 0.63347 0.0
C436 C 0.50745 0.75723 0.58418 0.0
C437 C 0.50789 0.74274 0.54091 0.0
C438 C 0.55003 0.75328 0.69051 0.0
C439 C 0.4922 0.76855 0.57731 0.0
H440 H 0.48763 0.76751 0.80109 0.0
H441 H 0.54735 0.83107 0.73597 0.0
H442 H 0.47428 0.73263 0.67998 0.0
H443 H 0.49404 0.72698 0.72087 0.0
H444 H 0.47157 0.73085 0.75582 0.0
H445 H 0.56519 0.83189 0.64908 0.0
H446 H 0.56694 0.80528 0.6399 0.0
H447 H 0.54636 0.80954 0.59863 0.0
H448 H 0.54669 0.7277 0.5974 0.0
H449 H 0.49732 0.74001 0.50328 0.0
H450 H 0.53818 0.74616 0.72781 0.0
H451 H 0.56237 0.77245 0.69834 0.0
H452 H 0.56056 0.74414 0.68712 0.0
H453 H 0.47819 0.76177 0.61024 0.0
H454 H 0.48351 0.76492 0.53521 0.0
H455 H 0.50312 0.78806 0.58308 0.0
C456 C 0.74668 0.51264 0.13047 0.0
C457 C 0.73514 0.52593 0.12618 0.0
C458 C 0.76219 0.51358 0.08822 0.0
C459 C 0.76591 0.5278 0.03987 0.0
C460 C 0.75462 0.54158 0.03561 0.0
C461 C 0.73951 0.54066 0.07922 0.0
C462 C 0.77416 0.4989 0.09475 0.0
C463 C 0.75788 0.55665 0.98421 0.0
C464 C 0.81769 0.54081 0.94271 0.0
C465 C 0.80645 0.52296 0.90189 0.0
C466 C 0.80475 0.54269 0.98806 0.0
C467 C 0.78 0.52658 0.99191 0.0
C468 C 0.76862 0.5086 0.95071 0.0
C469 C 0.782 0.5069 0.90657 0.0
C470 C 0.81753 0.56181 0.03188 0.0
C471 C 0.74222 0.49121 0.95301 0.0
H472 H 0.74366 0.50149 0.16714 0.0
H473 H 0.73067 0.55101 0.07589 0.0
H474 H 0.76739 0.48474 0.0622 0.0
H475 H 0.7936 0.51015 0.0882 0.0
H476 H 0.77101 0.49044 0.13703 0.0
H477 H 0.74895 0.56732 0.98878 0.0
H478 H 0.77706 0.56886 0.97614 0.0
H479 H 0.7505 0.54507 0.94652 0.0
H480 H 0.83656 0.55331 0.93921 0.0
H481 H 0.7731 0.49318 0.87492 0.0
H482 H 0.81524 0.55362 0.07423 0.0
H483 H 0.8097 0.57353 0.03378 0.0
H484 H 0.83683 0.57287 0.02291 0.0
H485 H 0.73778 0.4806 0.99242 0.0
H486 H 0.73596 0.47882 0.91649 0.0
H487 H 0.73225 0.50094 0.9537 0.0
C488 C 0.18088 0.74302 0.44306 0.0
C489 C 0.1774 0.71996 0.44126 0.0
C490 C 0.19465 0.75984 0.40175 0.0
C491 C 0.20444 0.75309 0.35688 0.0
C492 C 0.19927 0.72923 0.35265 0.0
C493 C 0.18623 0.71307 0.3956 0.0
C494 C 0.20025 0.7852 0.40864 0.0
C495 C 0.20864 0.72106 0.30443 0.0
C496 C 0.23195 0.79158 0.22697 0.0
C497 C 0.2561 0.79996 0.23672 0.0
C498 C 0.21477 0.77697 0.26676 0.0
C499 C 0.22215 0.77124 0.31781 0.0
C500 C 0.24672 0.78113 0.3292 0.0
C501 C 0.2634 0.79497 0.2879 0.0
C502 C 0.18879 0.76631 0.25231 0.0
C503 C 0.25538 0.77607 0.38381 0.0
H504 H 0.17433 0.7484 0.47898 0.0
H505 H 0.1835 0.6952 0.39437 0.0
H506 H 0.21912 0.79639 0.42139 0.0
H507 H 0.19792 0.79236 0.36813 0.0
H508 H 0.18891 0.78692 0.44124 0.0
H509 H 0.20031 0.70141 0.3031 0.0
H510 H 0.2054 0.72726 0.26349 0.0
H511 H 0.22812 0.72883 0.30905 0.0
H512 H 0.22641 0.79516 0.1867 0.0
H513 H 0.28213 0.80139 0.29493 0.0
H514 H 0.17884 0.76801 0.2883 0.0
H515 H 0.18109 0.74706 0.24368 0.0
H516 H 0.18603 0.77477 0.21452 0.0
H517 H 0.24635 0.7788 0.42039 0.0
H518 H 0.27489 0.78755 0.38919 0.0
H519 H 0.25102 0.75725 0.38452 0.0
C520 C 0.47468 0.22417 0.76787 0.0
C521 C 0.46034 0.19936 0.76556 0.0
C522 C 0.47426 0.2386 0.7245 0.0
C523 C 0.45936 0.22797 0.6772 0.0
C524 C 0.44475 0.20293 0.67459 0.0
C525 C 0.4453 0.1889 0.71907 0.0
C526 C 0.48997 0.26523 0.72904 0.0
C527 C 0.42887 0.19099 0.62438 0.0
C528 C 0.44572 0.26656 0.58116 0.0
C529 C 0.46239 0.272 0.53791 0.0
C530 C 0.44451 0.25225 0.62702 0.0
C531 C 0.46017 0.24304 0.62913 0.0
C532 C 0.47709 0.24861 0.58574 0.0
C533 C 0.47809 0.26312 0.54092 0.0
C534 C 0.42648 0.24694 0.67307 0.0
C535 C 0.49403 0.23904 0.58633 0.0
H536 H 0.48618 0.23242 0.80396 0.0
H537 H 0.43414 0.16975 0.71716 0.0
H538 H 0.50326 0.27181 0.69447 0.0
H539 H 0.47918 0.27401 0.72423 0.0
H540 H 0.49955 0.27075 0.77003 0.0
H541 H 0.41807 0.17141 0.62958 0.0
H542 H 0.41671 0.19811 0.61771 0.0
H543 H 0.43982 0.1949 0.58566 0.0
H544 H 0.43351 0.27333 0.57901 0.0
H545 H 0.49095 0.26711 0.50752 0.0
H546 H 0.4356 0.25299 0.71443 0.0
H547 H 0.41427 0.22749 0.67622 0.0
H548 H 0.41578 0.25568 0.6655 0.0
H549 H 0.50525 0.2452 0.62482 0.0
H550 H 0.50584 0.24471 0.54876 0.0
H551 H 0.48389 0.21934 0.58765 0.0
C552 C 0.17439 0.44146 0.55822 0.0
C553 C 0.18505 0.45515 0.60666 0.0
C554 C 0.18815 0.44162 0.51264 0.0
C555 C 0.21315 0.45569 0.51579 0.0
C556 C 0.22407 0.46962 0.56437 0.0
C557 C 0.20985 0.46924 0.60929 0.0
C558 C 0.17594 0.42664 0.46128 0.0
C559 C 0.25075 0.48471 0.5691 0.0
C560 C 0.24972 0.43808 0.42536 0.0
C561 C 0.25694 0.45476 0.38143 0.0
C562 C 0.23534 0.43814 0.46921 0.0
C563 C 0.22792 0.4552 0.46893 0.0
C564 C 0.23466 0.47174 0.42415 0.0
C565 C 0.24915 0.47135 0.38085 0.0
C566 C 0.22843 0.4202 0.51635 0.0
C567 C 0.22684 0.49004 0.42246 0.0
H568 H 0.15521 0.43064 0.55567 0.0
H569 H 0.21817 0.47987 0.64657 0.0
H570 H 0.18128 0.43794 0.42289 0.0
H571 H 0.18152 0.41322 0.45515 0.0
H572 H 0.15627 0.41727 0.46487 0.0
H573 H 0.25641 0.49487 0.60931 0.0
H574 H 0.25891 0.47329 0.56649 0.0
H575 H 0.25785 0.49743 0.53337 0.0
H576 H 0.25565 0.42519 0.42615 0.0
H577 H 0.25464 0.48427 0.34701 0.0
H578 H 0.2088 0.4095 0.51978 0.0
H579 H 0.23522 0.42951 0.55724 0.0
H580 H 0.23548 0.40794 0.50986 0.0
H581 H 0.20717 0.48116 0.42411 0.0
H582 H 0.23311 0.50123 0.38385 0.0
H583 H 0.23379 0.50178 0.45999 0.0
C584 C 0.78981 0.23975 0.70218 0.0
C585 C 0.81464 0.25108 0.70581 0.0
C586 C 0.77545 0.22441 0.74483 0.0
C587 C 0.78622 0.22024 0.79204 0.0
C588 C 0.81118 0.23044 0.79438 0.0
C589 C 0.82515 0.24583 0.75116 0.0
C590 C 0.74883 0.21375 0.74086 0.0
C591 C 0.82318 0.22611 0.84388 0.0
C592 C 0.75 0.20725 0.92523 0.0
C593 C 0.73793 0.18237 0.92644 0.0
C594 C 0.76664 0.21985 0.883 0.0
C595 C 0.77137 0.20722 0.84119 0.0
C596 C 0.76025 0.18219 0.84383 0.0
C597 C 0.74356 0.17001 0.88647 0.0
C598 C 0.77824 0.2466 0.88151 0.0
C599 C 0.76512 0.16823 0.80019 0.0
H600 H 0.78153 0.24351 0.667 0.0
H601 H 0.84433 0.25436 0.75401 0.0
H602 H 0.73973 0.19428 0.74772 0.0
H603 H 0.74272 0.22137 0.77444 0.0
H604 H 0.7432 0.21721 0.69931 0.0
H605 H 0.8423 0.23268 0.83571 0.0
H606 H 0.82171 0.23536 0.88172 0.0
H607 H 0.8143 0.20689 0.85403 0.0
H608 H 0.74591 0.21695 0.95625 0.0
H609 H 0.73446 0.15077 0.88744 0.0
H610 H 0.7722 0.25208 0.84344 0.0
H611 H 0.79782 0.25482 0.87859 0.0
H612 H 0.77391 0.25379 0.9194 0.0
H613 H 0.75742 0.16912 0.75905 0.0
H614 H 0.75735 0.14926 0.81221 0.0
H615 H 0.78452 0.17601 0.79392 0.0
C616 C 0.57508 0.82057 0.07993 0.0
C617 C 0.55612 0.80998 0.04154 0.0
C618 C 0.57835 0.8069 0.12086 0.0
C619 C 0.5622 0.7822 0.12339 0.0
C620 C 0.54425 0.77117 0.08193 0.0
C621 C 0.54147 0.78522 0.04131 0.0
C622 C 0.59794 0.81916 0.1639 0.0
C623 C 0.52672 0.74481 0.08321 0.0
C624 C 0.5708 0.74057 0.2196 0.0
C625 C 0.55591 0.73838 0.26493 0.0
C626 C 0.57387 0.75557 0.1739 0.0
C627 C 0.56167 0.76847 0.17368 0.0
C628 C 0.5474 0.76704 0.2203 0.0
C629 C 0.54476 0.75207 0.26543 0.0
C630 C 0.58941 0.75692 0.12504 0.0
C631 C 0.5341 0.78059 0.22153 0.0
H632 H 0.5867 0.83967 0.07985 0.0
H633 H 0.52698 0.77685 0.01129 0.0
H634 H 0.59019 0.82032 0.2047 0.0
H635 H 0.6071 0.80888 0.1714 0.0
H636 H 0.61129 0.83744 0.15051 0.0
H637 H 0.51577 0.73862 0.04421 0.0
H638 H 0.53609 0.73461 0.08845 0.0
H639 H 0.51465 0.74066 0.1199 0.0
H640 H 0.5796 0.73015 0.21907 0.0
H641 H 0.53336 0.75061 0.30044 0.0
H642 H 0.60185 0.7757 0.11354 0.0
H643 H 0.57818 0.74819 0.08749 0.0
H644 H 0.59986 0.74807 0.13471 0.0
H645 H 0.54655 0.79981 0.2147 0.0
H646 H 0.52465 0.77836 0.26214 0.0
H647 H 0.52086 0.77435 0.1868 0.0
C648 C 0.73787 0.5586 0.45778 0.0
C649 C 0.73413 0.54392 0.4109 0.0
C650 C 0.75341 0.56051 0.50118 0.0
C651 C 0.76532 0.54737 0.49751 0.0
C652 C 0.76182 0.53274 0.45009 0.0
C653 C 0.7463 0.53124 0.40729 0.0
C654 C 0.7569 0.57636 0.55117 0.0
C655 C 0.7742 0.5184 0.44492 0.0
C656 C 0.82072 0.56305 0.58149 0.0
C657 C 0.81157 0.54568 0.62395 0.0
C658 C 0.80568 0.56455 0.54137 0.0
C659 C 0.781 0.54823 0.54381 0.0
C660 C 0.77154 0.53134 0.58792 0.0
C661 C 0.78695 0.5303 0.6276 0.0
C662 C 0.81631 0.5829 0.49503 0.0
C663 C 0.74527 0.51363 0.59169 0.0
H664 H 0.72859 0.56852 0.46075 0.0
H665 H 0.74353 0.51988 0.37121 0.0
H666 H 0.7509 0.56558 0.59035 0.0
H667 H 0.77604 0.58951 0.55656 0.0
H668 H 0.74695 0.58605 0.5466 0.0
H669 H 0.76983 0.50821 0.40478 0.0
H670 H 0.79374 0.53029 0.44714 0.0
H671 H 0.76904 0.50572 0.48067 0.0
H672 H 0.83971 0.57513 0.57868 0.0
H673 H 0.77973 0.51692 0.66049 0.0
H674 H 0.80665 0.5929 0.49148 0.0
H675 H 0.81445 0.57393 0.45394 0.0
H676 H 0.83544 0.59572 0.50232 0.0
H677 H 0.73485 0.52288 0.5899 0.0
H678 H 0.74057 0.50293 0.63108 0.0
H679 H 0.7398 0.50135 0.55506 0.0
C680 C 0.18123 0.74194 0.76252 0.0
C681 C 0.18926 0.73218 0.72111 0.0
C682 C 0.19639 0.7564 0.80536 0.0
C683 C 0.22016 0.76127 0.80667 0.0
C684 C 0.22862 0.75206 0.76421 0.0
C685 C 0.21303 0.73758 0.72182 0.0
C686 C 0.18682 0.76601 0.84997 0.0
C687 C 0.25395 0.75707 0.7643 0.0
C688 C 0.2632 0.81408 0.89414 0.0
C689 C 0.26394 0.80312 0.94458 0.0
C690 C 0.24939 0.80062 0.84839 0.0
C691 C 0.23596 0.77563 0.85335 0.0
C692 C 0.23683 0.76439 0.90377 0.0
C693 C 0.25086 0.7783 0.94886 0.0
C694 C 0.2489 0.81315 0.79509 0.0
C695 C 0.22263 0.73773 0.91041 0.0
H696 H 0.16291 0.7379 0.76222 0.0
H697 H 0.21936 0.73013 0.68991 0.0
H698 H 0.18788 0.75909 0.89207 0.0
H699 H 0.19777 0.78566 0.85182 0.0
H700 H 0.16806 0.76108 0.84193 0.0
H701 H 0.25798 0.74937 0.72691 0.0
H702 H 0.26645 0.77651 0.76493 0.0
H703 H 0.25729 0.74958 0.80303 0.0
H704 H 0.27336 0.83326 0.89033 0.0
H705 H 0.25138 0.7697 0.98764 0.0
H706 H 0.23063 0.80981 0.78751 0.0
H707 H 0.25384 0.80602 0.75818 0.0
H708 H 0.26117 0.83264 0.79724 0.0
H709 H 0.20338 0.73156 0.90687 0.0
H710 H 0.22591 0.73173 0.95167 0.0
H711 H 0.22711 0.72903 0.87608 0.0
C712 C 0.44437 0.20254 0.04546 0.0
C713 C 0.43148 0.17765 0.04657 0.0
C714 C 0.44163 0.21586 0.08804 0.0
C715 C 0.42541 0.20398 0.13247 0.0
C716 C 0.41153 0.17892 0.13263 0.0
C717 C 0.41484 0.16599 0.08972 0.0
C718 C 0.45686 0.24262 0.08669 0.0
C719 C 0.39382 0.16577 0.17902 0.0
C720 C 0.44299 0.24004 0.26644 0.0
C721 C 0.42984 0.25171 0.26214 0.0
C722 C 0.44065 0.22331 0.22609 0.0
C723 C 0.42459 0.21798 0.18072 0.0
C724 C 0.41002 0.22839 0.17831 0.0
C725 C 0.41289 0.24527 0.21903 0.0
C726 C 0.45655 0.21258 0.22994 0.0
C727 C 0.39243 0.22278 0.13094 0.0
H728 H 0.45721 0.2117 0.01219 0.0
H729 H 0.40466 0.14675 0.09052 0.0
H730 H 0.44556 0.2509 0.08938 0.0
H731 H 0.46893 0.24879 0.12378 0.0
H732 H 0.46781 0.2491 0.04775 0.0
H733 H 0.38257 0.14653 0.16957 0.0
H734 H 0.40338 0.16771 0.21926 0.0
H735 H 0.38214 0.17346 0.18568 0.0
H736 H 0.45596 0.24474 0.29995 0.0
H737 H 0.40244 0.254 0.21586 0.0
H738 H 0.46968 0.2195 0.19498 0.0
H739 H 0.446 0.19301 0.22524 0.0
H740 H 0.46637 0.21681 0.27061 0.0
H741 H 0.40214 0.23116 0.09134 0.0
H742 H 0.38001 0.22944 0.13984 0.0
H743 H 0.38196 0.20334 0.12348 0.0
C744 C 0.38634 0.51593 0.34304 0.0
C745 C 0.37395 0.51568 0.2942 0.0
C746 C 0.40746 0.53635 0.35897 0.0
C747 C 0.41646 0.55699 0.32512 0.0
C748 C 0.40449 0.55666 0.27487 0.0
C749 C 0.38335 0.53601 0.26003 0.0
C750 C 0.41978 0.53604 0.41279 0.0
C751 C 0.41371 0.57831 0.23744 0.0
C752 C 0.45668 0.6175 0.39038 0.0
C753 C 0.4791 0.62245 0.3711 0.0
C754 C 0.43617 0.59602 0.37666 0.0
C755 C 0.43815 0.57914 0.34282 0.0
C756 C 0.46076 0.58372 0.32455 0.0
C757 C 0.48096 0.60529 0.33898 0.0
C758 C 0.41232 0.59163 0.39725 0.0
C759 C 0.46356 0.5661 0.28851 0.0
H760 H 0.37925 0.50031 0.36974 0.0
H761 H 0.37394 0.53598 0.22218 0.0
H762 H 0.43857 0.54138 0.404 0.0
H763 H 0.41993 0.54911 0.44315 0.0
H764 H 0.411 0.51826 0.43316 0.0
H765 H 0.4028 0.57486 0.19871 0.0
H766 H 0.41382 0.59309 0.26112 0.0
H767 H 0.43231 0.58434 0.22473 0.0
H768 H 0.45506 0.63061 0.41529 0.0
H769 H 0.49819 0.60888 0.32395 0.0
H770 H 0.40307 0.57461 0.42076 0.0
H771 H 0.40097 0.59008 0.36062 0.0
H772 H 0.41392 0.6061 0.42517 0.0
H773 H 0.45524 0.54852 0.3096 0.0
H774 H 0.48249 0.57191 0.27985 0.0
H775 H 0.45428 0.56368 0.24761 0.0
C776 C 0.85208 0.45689 0.73129 0.0
C777 C 0.86553 0.47822 0.70157 0.0
C778 C 0.85295 0.43642 0.71697 0.0
C779 C 0.86766 0.43728 0.67191 0.0
C780 C 0.88189 0.4589 0.64294 0.0
C781 C 0.88064 0.47912 0.65809 0.0
C782 C 0.83758 0.41367 0.74898 0.0
C783 C 0.89789 0.46051 0.59488 0.0
C784 C 0.88103 0.38681 0.66303 0.0
C785 C 0.864 0.37165 0.62368 0.0
C786 C 0.88283 0.40852 0.6782 0.0
C787 C 0.86722 0.41521 0.65349 0.0
C788 C 0.85044 0.40032 0.61267 0.0
C789 C 0.84904 0.37874 0.59822 0.0
C790 C 0.90102 0.42401 0.72169 0.0
C791 C 0.83352 0.4069 0.58529 0.0
H792 H 0.84041 0.45601 0.76505 0.0
H793 H 0.89118 0.49552 0.63499 0.0
H794 H 0.82428 0.40015 0.71997 0.0
H795 H 0.84858 0.40642 0.76583 0.0
H796 H 0.82801 0.41626 0.78467 0.0
H797 H 0.90895 0.47897 0.5791 0.0
H798 H 0.9098 0.4538 0.60849 0.0
H799 H 0.88698 0.44913 0.55938 0.0
H800 H 0.89273 0.38155 0.68282 0.0
H801 H 0.83588 0.36721 0.56769 0.0
H802 H 0.89189 0.42541 0.75984 0.0
H803 H 0.91224 0.44225 0.70493 0.0
H804 H 0.91273 0.41692 0.73449 0.0
H805 H 0.82182 0.40795 0.61789 0.0
H806 H 0.82219 0.39385 0.55265 0.0
H807 H 0.84358 0.42467 0.56533 0.0
C808 C 0.45588 0.84252 0.97427 0.0
C809 C 0.47758 0.8543 0.00326 0.0
C810 C 0.43597 0.84341 0.99364 0.0
C811 C 0.43774 0.85631 0.04336 0.0
C812 C 0.45953 0.86816 0.07301 0.0
C813 C 0.47922 0.86707 0.05254 0.0
C814 C 0.41303 0.83065 0.96063 0.0
C815 C 0.46204 0.88203 0.12624 0.0
C816 C 0.39116 0.87478 0.05379 0.0
C817 C 0.37347 0.85617 0.08587 0.0
C818 C 0.41275 0.87573 0.04208 0.0
C819 C 0.4168 0.85771 0.06318 0.0
C820 C 0.39976 0.83983 0.09887 0.0
C821 C 0.37825 0.83926 0.10982 0.0
C822 C 0.43055 0.89518 0.00413 0.0
C823 C 0.4036 0.82047 0.12267 0.0
H824 H 0.45443 0.83263 0.93619 0.0
H825 H 0.49589 0.87617 0.07537 0.0
H826 H 0.39861 0.8175 0.98809 0.0
H827 H 0.40767 0.84354 0.94627 0.0
H828 H 0.41455 0.82125 0.92308 0.0
H829 H 0.4801 0.88989 0.1449 0.0
H830 H 0.45826 0.89654 0.11705 0.0
H831 H 0.44888 0.8703 0.15811 0.0
H832 H 0.38776 0.88808 0.03553 0.0
H833 H 0.36476 0.82489 0.13488 0.0
H834 H 0.43135 0.88745 0.96298 0.0
H835 H 0.44858 0.90358 0.02298 0.0
H836 H 0.42586 0.90918 -0.00386 0.0
H837 H 0.4027 0.80856 0.08801 0.0
H838 H 0.39006 0.80962 0.1549 0.0
H839 H 0.4215 0.82818 0.14205 0.0
C840 C 0.6145 0.4566 0.25224 0.0
C841 C 0.61982 0.47778 0.27988 0.0
C842 C 0.59221 0.43604 0.25872 0.0
C843 C 0.5749 0.4367 0.29372 0.0
C844 C 0.57981 0.45825 0.31984 0.0
C845 C 0.60217 0.47853 0.31253 0.0
C846 C 0.58752 0.41339 0.22986 0.0
C847 C 0.56179 0.45967 0.35745 0.0
C848 C 0.51068 0.38678 0.28603 0.0
C849 C 0.50947 0.37256 0.33198 0.0
C850 C 0.5319 0.40767 0.27276 0.0
C851 C 0.55232 0.41452 0.30639 0.0
C852 C 0.55119 0.40034 0.35297 0.0
C853 C 0.5298 0.37953 0.36513 0.0
C854 C 0.5325 0.42237 0.22273 0.0
C855 C 0.57258 0.40716 0.39005 0.0
H856 H 0.62795 0.45586 0.22673 0.0
H857 H 0.60601 0.49482 0.33383 0.0
H858 H 0.58566 0.40016 0.26208 0.0
H859 H 0.57059 0.40558 0.20593 0.0
H860 H 0.60204 0.41629 0.20042 0.0
H861 H 0.56771 0.47813 0.37128 0.0
H862 H 0.54455 0.4526 0.33514 0.0
H863 H 0.55863 0.44852 0.39553 0.0
H864 H 0.49509 0.38152 0.26006 0.0
H865 H 0.52907 0.36871 0.40074 0.0
H866 H 0.54621 0.42409 0.19218 0.0
H867 H 0.5375 0.44056 0.23675 0.0
H868 H 0.51511 0.41451 0.20061 0.0
H869 H 0.58743 0.40846 0.36429 0.0
H870 H 0.56874 0.39417 0.42461 0.0
H871 H 0.57872 0.42489 0.40908 0.0
C872 C 0.13751 0.60398 0.61233 0.0
C873 C 0.12573 0.61366 0.64219 0.0
C874 C 0.13574 0.58247 0.6291 0.0
C875 C 0.12172 0.57027 0.67668 0.0
C876 C 0.10897 0.5794 0.70556 0.0
C877 C 0.11117 0.60103 0.68805 0.0
C878 C 0.14957 0.57325 0.59712 0.0
C879 C 0.09365 0.56674 0.75606 0.0
C880 C 0.10734 0.50633 0.68971 0.0
C881 C 0.12553 0.50864 0.72578 0.0
C882 C 0.10511 0.52608 0.67547 0.0
C883 C 0.12154 0.54864 0.69762 0.0
C884 C 0.13909 0.55085 0.73649 0.0
C885 C 0.14083 0.53079 0.75027 0.0
C886 C 0.08596 0.52298 0.6345 0.0
C887 C 0.15689 0.57464 0.76116 0.0
H888 H 0.14876 0.61357 0.57681 0.0
H889 H 0.10188 0.60831 0.71122 0.0
H890 H 0.16306 0.57296 0.62537 0.0
H891 H 0.13753 0.55474 0.58297 0.0
H892 H 0.15878 0.58429 0.55958 0.0
H893 H 0.08328 0.57506 0.77077 0.0
H894 H 0.08113 0.54784 0.74574 0.0
H895 H 0.10501 0.567 0.79136 0.0
H896 H 0.0953 0.48924 0.67093 0.0
H897 H 0.15489 0.53275 0.7783 0.0
H898 H 0.09418 0.53158 0.59375 0.0
H899 H 0.07626 0.53175 0.65078 0.0
H900 H 0.07296 0.50396 0.62633 0.0
H901 H 0.16857 0.58641 0.72709 0.0
H902 H 0.1682 0.57305 0.79408 0.0
H903 H 0.14764 0.58343 0.77999 0.0
C904 C 0.60331 0.12697 0.96116 0.0
C905 C 0.61783 0.14211 0.00427 0.0
C906 C 0.58173 0.1257 0.94705 0.0
C907 C 0.57445 0.1398 0.97695 0.0
C908 C 0.58891 0.15498 0.02076 0.0
C909 C 0.61045 0.156 0.03381 0.0
C910 C 0.56679 0.10936 0.89998 0.0
C911 C 0.58162 0.17016 0.05385 0.0
C912 C 0.52967 0.1542 0.91229 0.0
C913 C 0.50876 0.13825 0.94078 0.0
C914 C 0.5511 0.15454 0.92271 0.0
C915 C 0.55163 0.13863 0.96274 0.0
C916 C 0.53049 0.12212 0.99062 0.0
C917 C 0.50931 0.12208 0.9792 0.0
C918 C 0.57328 0.17227 0.89183 0.0
C919 C 0.53038 0.1049 0.03364 0.0
H920 H 0.60887 0.11621 0.93798 0.0
H921 H 0.62151 0.16771 0.06723 0.0
H922 H 0.54896 0.09624 0.91623 0.0
H923 H 0.56415 0.11974 0.86645 0.0
H924 H 0.57501 0.0996 0.88077 0.0
H925 H 0.5948 0.18091 0.08688 0.0
H926 H 0.57944 0.18236 0.0249 0.0
H927 H 0.56419 0.15876 0.07445 0.0
H928 H 0.52942 0.16671 0.88241 0.0
H929 H 0.49326 0.10967 0.00145 0.0
H930 H 0.58148 0.16301 0.87018 0.0
H931 H 0.58651 0.18484 0.9225 0.0
H932 H 0.56965 0.18262 0.86001 0.0
H933 H 0.53767 0.09426 0.01477 0.0
H934 H 0.51227 0.09257 0.04997 0.0
H935 H 0.54198 0.11485 0.06978 0.0
loop_
_geom_bond_atom_site_label_1
_geom_bond_atom_site_label_2
_geom_bond_distance
_geom_bond_site_symmetry_2
_ccdc_geom_bond_type
O0 Cd1 2.223 . S
O0 C8 1.315 . S
Cd1 O0 2.223 . S
Cd1 O4 2.297 . S
Cd1 O5 2.439 . S
Cd1 O11 2.240 . S
Cd2 O3 2.240 . S
Cd2 O10 2.223 . S
Cd2 O12 2.297 . S
Cd2 O13 2.439 . S
O3 Cd2 2.240 . S
O3 C8 1.279 . S
O4 Cd1 2.297 . S
O4 C6 1.247 . S
O5 Cd1 2.439 . S
O5 C6 1.208 . S
C6 O4 1.247 . S
C6 O5 1.208 . S
C7 O12 1.247 . S
C7 O13 1.208 . S
C8 O0 1.315 . S
C8 O3 1.279 . S
C9 O10 1.315 . S
C9 O11 1.279 . S
O10 Cd2 2.223 . S
O10 C9 1.315 . S
O11 Cd1 2.240 . S
O11 C9 1.279 . S
O12 Cd2 2.297 . S
O12 C7 1.247 . S
O13 Cd2 2.439 . S
O13 C7 1.208 . S
O14 Cd15 2.223 . S
O14 C22 1.315 . S
Cd15 O14 2.223 . S
Cd15 O18 2.297 . S
Cd15 O19 2.439 . S
Cd15 O25 2.240 . S
Cd16 O17 2.240 . S
Cd16 O24 2.223 . S
Cd16 O26 2.297 . S
Cd16 O27 2.439 . S
O17 Cd16 2.240 . S
O17 C22 1.279 . S
O18 Cd15 2.297 . S
O18 C20 1.247 . S
O19 Cd15 2.439 . S
O19 C20 1.208 . S
C20 O18 1.247 . S
C20 O19 1.208 . S
C21 O26 1.247 . S
C21 O27 1.208 . S
C22 O14 1.315 . S
C22 O17 1.279 . S
C23 O24 1.315 . S
C23 O25 1.279 . S
O24 Cd16 2.223 . S
O24 C23 1.315 . S
O25 Cd15 2.240 . S
O25 C23 1.279 . S
O26 Cd16 2.297 . S
O26 C21 1.247 . S
O27 Cd16 2.439 . S
O27 C21 1.208 . S
O28 Cd29 2.223 . S
O28 C36 1.315 1_556 S
Cd29 O28 2.223 . S
Cd29 O32 2.297 . S
Cd29 O33 2.439 . S
Cd29 O39 2.240 . S
Cd30 O31 2.240 1_554 S
Cd30 O38 2.223 . S
Cd30 O40 2.297 . S
Cd30 O41 2.439 1_554 S
O31 Cd30 2.240 1_556 S
O31 C36 1.279 1_556 S
O32 Cd29 2.297 . S
O32 C34 1.247 . S
O33 Cd29 2.439 . S
O33 C34 1.208 . S
C34 O32 1.247 . S
C34 O33 1.208 . S
C35 O40 1.247 1_556 S
C35 O41 1.208 . S
C36 O28 1.315 1_554 S
C36 O31 1.279 1_554 S
C37 O38 1.315 1_556 S
C37 O39 1.279 . S
O38 Cd30 2.223 . S
O38 C37 1.315 1_554 S
O39 Cd29 2.240 . S
O39 C37 1.279 . S
O40 Cd30 2.297 . S
O40 C35 1.247 1_554 S
O41 Cd30 2.439 1_556 S
O41 C35 1.208 . S
O42 Cd43 2.223 . S
O42 C50 1.315 . S
Cd43 O42 2.223 . S
Cd43 O46 2.297 . S
Cd43 O47 2.439 . S
Cd43 O53 2.240 . S
Cd44 O45 2.240 . S
Cd44 O52 2.223 . S
Cd44 O54 2.297 . S
Cd44 O55 2.439 . S
O45 Cd44 2.240 . S
O45 C50 1.279 . S
O46 Cd43 2.297 . S
O46 C48 1.247 . S
O47 Cd43 2.439 . S
O47 C48 1.208 . S
C48 O46 1.247 . S
C48 O47 1.208 . S
C49 O54 1.247 . S
C49 O55 1.208 . S
C50 O42 1.315 . S
C50 O45 1.279 . S
C51 O52 1.315 . S
C51 O53 1.279 . S
O52 Cd44 2.223 . S
O52 C51 1.315 . S
O53 Cd43 2.240 . S
O53 C51 1.279 . S
O54 Cd44 2.297 . S
O54 C49 1.247 . S
O55 Cd44 2.439 . S
O55 C49 1.208 . S
O56 Cd57 2.223 . S
O56 C64 1.315 . S
Cd57 O56 2.223 . S
Cd57 O60 2.297 . S
Cd57 O61 2.439 . S
Cd57 O67 2.240 . S
Cd58 O59 2.240 . S
Cd58 O66 2.223 . S
Cd58 O68 2.297 . S
Cd58 O69 2.439 . S
O59 Cd58 2.240 . S
O59 C64 1.279 . S
O60 Cd57 2.297 . S
O60 C62 1.247 . S
O61 Cd57 2.439 . S
O61 C62 1.208 . S
C62 O60 1.247 . S
C62 O61 1.208 . S
C63 O68 1.247 . S
C63 O69 1.208 . S
C64 O56 1.315 . S
C64 O59 1.279 . S
C65 O66 1.315 . S
C65 O67 1.279 . S
O66 Cd58 2.223 . S
O66 C65 1.315 . S
O67 Cd57 2.240 . S
O67 C65 1.279 . S
O68 Cd58 2.297 . S
O68 C63 1.247 . S
O69 Cd58 2.439 . S
O69 C63 1.208 . S
O70 Cd71 2.223 . S
O70 C78 1.315 1_556 S
Cd71 O70 2.223 . S
Cd71 O74 2.297 . S
Cd71 O75 2.439 . S
Cd71 O81 2.240 . S
Cd72 O73 2.240 1_554 S
Cd72 O80 2.223 . S
Cd72 O82 2.297 . S
Cd72 O83 2.439 1_554 S
O73 Cd72 2.240 1_556 S
O73 C78 1.279 1_556 S
O74 Cd71 2.297 . S
O74 C76 1.247 . S
O75 Cd71 2.439 . S
O75 C76 1.208 . S
C76 O74 1.247 . S
C76 O75 1.208 . S
C77 O82 1.247 1_556 S
C77 O83 1.208 . S
C78 O70 1.315 1_554 S
C78 O73 1.279 1_554 S
C79 O80 1.315 1_556 S
C79 O81 1.279 . S
O80 Cd72 2.223 . S
O80 C79 1.315 1_554 S
O81 Cd71 2.240 . S
O81 C79 1.279 . S
O82 Cd72 2.297 . S
O82 C77 1.247 1_554 S
O83 Cd72 2.439 1_556 S
O83 C77 1.208 . S
O84 Cd85 2.223 . S
O84 C92 1.315 . S
Cd85 O84 2.223 . S
Cd85 O88 2.297 . S
Cd85 O89 2.439 . S
Cd85 O95 2.240 . S
Cd86 O87 2.240 . S
Cd86 O94 2.223 . S
Cd86 O96 2.297 . S
Cd86 O97 2.439 . S
O87 Cd86 2.240 . S
O87 C92 1.279 . S
O88 Cd85 2.297 . S
O88 C90 1.247 . S
O89 Cd85 2.439 . S
O89 C90 1.208 . S
C90 O88 1.247 . S
C90 O89 1.208 . S
C91 O96 1.247 . S
C91 O97 1.208 . S
C92 O84 1.315 . S
C92 O87 1.279 . S
C93 O94 1.315 . S
C93 O95 1.279 . S
O94 Cd86 2.223 . S
O94 C93 1.315 . S
O95 Cd85 2.240 . S
O95 C93 1.279 . S
O96 Cd86 2.297 . S
O96 C91 1.247 . S
O97 Cd86 2.439 . S
O97 C91 1.208 . S
O98 Cd99 2.223 . S
O98 C106 1.315 . S
Cd99 O98 2.223 . S
Cd99 O102 2.297 . S
Cd99 O103 2.439 . S
Cd99 O109 2.240 . S
Cd100 O101 2.240 . S
Cd100 O108 2.223 . S
Cd100 O110 2.297 . S
Cd100 O111 2.439 . S
O101 Cd100 2.240 . S
O101 C106 1.279 . S
O102 Cd99 2.297 . S
O102 C104 1.247 . S
O103 Cd99 2.439 . S
O103 C104 1.208 . S
C104 O102 1.247 . S
C104 O103 1.208 . S
C105 O110 1.247 . S
C105 O111 1.208 . S
C106 O98 1.315 . S
C106 O101 1.279 . S
C107 O108 1.315 . S
C107 O109 1.279 . S
O108 Cd100 2.223 . S
O108 C107 1.315 . S
O109 Cd99 2.240 . S
O109 C107 1.279 . S
O110 Cd100 2.297 . S
O110 C105 1.247 . S
O111 Cd100 2.439 . S
O111 C105 1.208 . S
O112 Cd113 2.223 . S
O112 C120 1.315 1_554 S
Cd113 O112 2.223 . S
Cd113 O116 2.297 . S
Cd113 O117 2.439 . S
Cd113 O123 2.240 . S
Cd114 O115 2.240 1_556 S
Cd114 O122 2.223 . S
Cd114 O124 2.297 . S
Cd114 O125 2.439 1_556 S
O115 Cd114 2.240 1_554 S
O115 C120 1.279 1_554 S
O116 Cd113 2.297 . S
O116 C118 1.247 . S
O117 Cd113 2.439 . S
O117 C118 1.208 . S
C118 O116 1.247 . S
C118 O117 1.208 . S
C119 O124 1.247 1_554 S
C119 O125 1.208 . S
C120 O112 1.315 1_556 S
C120 O115 1.279 1_556 S
C121 O122 1.315 1_554 S
C121 O123 1.279 . S
O122 Cd114 2.223 . S
O122 C121 1.315 1_556 S
O123 Cd113 2.240 . S
O123 C121 1.279 . S
O124 Cd114 2.297 . S
O124 C119 1.247 1_556 S
O125 Cd114 2.439 1_554 S
O125 C119 1.208 . S
O126 Cd127 2.223 . S
O126 C134 1.315 . S
Cd127 O126 2.223 . S
Cd127 O130 2.297 . S
Cd127 O131 2.439 . S
Cd127 O137 2.240 . S
Cd128 O129 2.240 . S
Cd128 O136 2.223 . S
Cd128 O138 2.297 . S
Cd128 O139 2.439 . S
O129 Cd128 2.240 . S
O129 C134 1.279 . S
O130 Cd127 2.297 . S
O130 C132 1.247 . S
O131 Cd127 2.439 . S
O131 C132 1.208 . S
C132 O130 1.247 . S
C132 O131 1.208 . S
C133 O138 1.247 . S
C133 O139 1.208 . S
C134 O126 1.315 . S
C134 O129 1.279 . S
C135 O136 1.315 . S
C135 O137 1.279 . S
O136 Cd128 2.223 . S
O136 C135 1.315 . S
O137 Cd127 2.240 . S
O137 C135 1.279 . S
O138 Cd128 2.297 . S
O138 C133 1.247 . S
O139 Cd128 2.439 . S
O139 C133 1.208 . S
O140 Cd141 2.223 . S
O140 C148 1.315 . S
Cd141 O140 2.223 . S
Cd141 O144 2.297 . S
Cd141 O145 2.439 . S
Cd141 O151 2.240 . S
Cd142 O143 2.240 . S
Cd142 O150 2.223 . S
Cd142 O152 2.297 . S
Cd142 O153 2.439 . S
O143 Cd142 2.240 . S
O143 C148 1.279 . S
O144 Cd141 2.297 . S
O144 C146 1.247 . S
O145 Cd141 2.439 . S
O145 C146 1.208 . S
C146 O144 1.247 . S
C146 O145 1.208 . S
C147 O152 1.247 . S
C147 O153 1.208 . S
C148 O140 1.315 . S
C148 O143 1.279 . S
C149 O150 1.315 . S
C149 O151 1.279 . S
O150 Cd142 2.223 . S
O150 C149 1.315 . S
O151 Cd141 2.240 . S
O151 C149 1.279 . S
O152 Cd142 2.297 . S
O152 C147 1.247 . S
O153 Cd142 2.439 . S
O153 C147 1.208 . S
O154 Cd155 2.223 . S
O154 C162 1.315 1_554 S
Cd155 O154 2.223 . S
Cd155 O158 2.297 . S
Cd155 O159 2.439 . S
Cd155 O165 2.240 . S
Cd156 O157 2.240 1_556 S
Cd156 O164 2.223 . S
Cd156 O166 2.297 . S
Cd156 O167 2.439 1_556 S
O157 Cd156 2.240 1_554 S
O157 C162 1.279 1_554 S
O158 Cd155 2.297 . S
O158 C160 1.247 . S
O159 Cd155 2.439 . S
O159 C160 1.208 . S
C160 O158 1.247 . S
C160 O159 1.208 . S
C161 O166 1.247 1_554 S
C161 O167 1.208 . S
C162 O154 1.315 1_556 S
C162 O157 1.279 1_556 S
C163 O164 1.315 1_554 S
C163 O165 1.279 . S
O164 Cd156 2.223 . S
O164 C163 1.315 1_556 S
O165 Cd155 2.240 . S
O165 C163 1.279 . S
O166 Cd156 2.297 . S
O166 C161 1.247 1_556 S
O167 Cd156 2.439 1_554 S
O167 C161 1.208 . S
C168 C169 1.391 . S
C168 C170 1.394 . S
C168 H184 0.931 . S
C169 C168 1.391 . S
C169 C173 1.376 . S
C170 C168 1.394 . S
C170 C171 1.369 . S
C170 C174 1.531 . S
C171 C170 1.369 . S
C171 C172 1.410 . S
C171 C179 1.503 . S
C172 C171 1.410 . S
C172 C173 1.392 . S
C172 C175 1.511 . S
C173 C169 1.376 . S
C173 C172 1.392 . S
C173 H185 0.929 . S
C174 C170 1.531 . S
C174 H186 0.960 . S
C174 H187 0.962 . S
C174 H188 0.960 . S
C175 C172 1.511 . S
C175 H189 0.961 . S
C175 H190 0.961 . S
C175 H191 0.961 . S
C176 C177 1.370 . S
C176 C178 1.363 . S
C176 H192 0.931 . S
C177 C176 1.370 . S
C177 C181 1.408 . S
C178 C176 1.363 . S
C178 C179 1.370 . S
C178 C182 1.524 . S
C179 C171 1.503 . S
C179 C178 1.370 . S
C179 C180 1.403 . S
C180 C179 1.403 . S
C180 C181 1.404 . S
C180 C183 1.539 . S
C181 C177 1.408 . S
C181 C180 1.404 . S
C181 H193 0.930 . S
C182 C178 1.524 . S
C182 H194 0.956 . S
C182 H195 0.961 . S
C182 H196 0.961 . S
C183 C180 1.539 . S
C183 H197 0.958 . S
C183 H198 0.961 . S
C183 H199 0.960 . S
H184 C168 0.931 . S
H185 C173 0.929 . S
H186 C174 0.960 . S
H187 C174 0.962 . S
H188 C174 0.960 . S
H189 C175 0.961 . S
H190 C175 0.961 . S
H191 C175 0.961 . S
H192 C176 0.931 . S
H193 C181 0.930 . S
H194 C182 0.956 . S
H195 C182 0.961 . S
H196 C182 0.961 . S
H197 C183 0.958 . S
H198 C183 0.961 . S
H199 C183 0.960 . S
C200 C201 1.391 . S
C200 C202 1.394 . S
C200 H216 0.931 . S
C201 C200 1.391 . S
C201 C205 1.376 . S
C202 C200 1.394 . S
C202 C203 1.369 . S
C202 C206 1.531 . S
C203 C202 1.369 . S
C203 C204 1.410 . S
C203 C211 1.503 1_655 S
C204 C203 1.410 . S
C204 C205 1.392 . S
C204 C207 1.511 . S
C205 C201 1.376 . S
C205 C204 1.392 . S
C205 H217 0.929 . S
C206 C202 1.531 . S
C206 H218 0.943 1_655 S
C206 H219 0.962 . S
C206 H220 0.960 . S
C207 C204 1.511 . S
C207 H221 0.961 . S
C207 H222 0.993 . S
C207 H223 0.961 . S
C208 C209 1.370 . S
C208 C210 1.363 . S
C208 H224 0.931 . S
C209 C208 1.370 . S
C209 C213 1.408 . S
C210 C208 1.363 . S
C210 C211 1.370 . S
C210 C214 1.524 . S
C211 C203 1.503 1_455 S
C211 C210 1.370 . S
C211 C212 1.403 . S
C212 C211 1.403 . S
C212 C213 1.404 . S
C212 C215 1.539 1_455 S
C213 C209 1.408 . S
C213 C212 1.404 . S
C213 H225 0.930 . S
C214 C210 1.524 . S
C214 H226 0.956 . S
C214 H227 0.961 . S
C214 H228 0.961 . S
C215 C212 1.539 1_655 S
C215 H229 0.958 . S
C215 H230 0.961 1_655 S
C215 H231 0.960 . S
H216 C200 0.931 . S
H217 C205 0.929 . S
H218 C206 0.943 1_455 S
H219 C206 0.962 . S
H220 C206 0.960 . S
H221 C207 0.961 . S
H222 C207 0.993 . S
H223 C207 0.961 . S
H224 C208 0.931 . S
H225 C213 0.930 . S
H226 C214 0.956 . S
H227 C214 0.961 . S
H228 C214 0.961 . S
H229 C215 0.958 . S
H230 C215 0.961 1_455 S
H231 C215 0.960 . S
C232 C233 1.391 1_554 S
C232 C234 1.394 . S
C232 H248 0.931 . S
C233 C232 1.391 1_556 S
C233 C237 1.376 . S
C234 C232 1.394 . S
C234 C235 1.369 1_554 S
C234 C238 1.531 . S
C235 C234 1.369 1_556 S
C235 C236 1.410 . S
C235 C243 1.503 1_566 S
C236 C235 1.410 . S
C236 C237 1.392 . S
C236 C239 1.511 1_565 S
C237 C233 1.376 . S
C237 C236 1.392 . S
C237 H249 0.929 . S
C238 C234 1.531 . S
C238 H250 0.960 . S
C238 H251 0.962 . S
C238 H252 0.960 . S
C239 C236 1.511 1_545 S
C239 H253 0.961 1_545 S
C239 H254 0.961 . S
C239 H255 0.961 . S
C240 C241 1.370 . S
C240 C242 1.363 . S
C240 H256 0.931 . S
C241 C240 1.370 . S
C241 C245 1.408 . S
C242 C240 1.363 . S
C242 C243 1.370 . S
C242 C246 1.524 . S
C243 C235 1.503 1_544 S
C243 C242 1.370 . S
C243 C244 1.403 . S
C244 C243 1.403 . S
C244 C245 1.404 . S
C244 C247 1.539 1_554 S
C245 C241 1.408 . S
C245 C244 1.404 . S
C245 H257 0.930 . S
C246 C242 1.524 . S
C246 H258 0.956 1_545 S
C246 H259 0.950 1_544 S
C246 H260 0.961 . S
C247 C244 1.539 1_556 S
C247 H261 0.958 1_556 S
C247 H262 0.961 . S
C247 H263 0.960 . S
H248 C232 0.931 . S
H249 C237 0.929 . S
H250 C238 0.960 . S
H251 C238 0.962 . S
H252 C238 0.960 . S
H253 C239 0.961 1_565 S
H254 C239 0.961 . S
H255 C239 0.961 . S
H256 C240 0.931 . S
H257 C245 0.930 . S
H258 C246 0.956 1_565 S
H259 C246 0.950 1_566 S
H260 C246 0.961 . S
H261 C247 0.958 1_554 S
H262 C247 0.961 . S
H263 C247 0.960 . S
C264 C265 1.391 . S
C264 C266 1.394 . S
C264 H280 0.931 . S
C265 C264 1.391 . S
C265 C269 1.376 . S
C266 C264 1.394 . S
C266 C267 1.369 . S
C266 C270 1.531 . S
C267 C266 1.369 . S
C267 C268 1.410 . S
C267 C275 1.503 . S
C268 C267 1.410 . S
C268 C269 1.392 . S
C268 C271 1.511 . S
C269 C265 1.376 . S
C269 C268 1.392 . S
C269 H281 0.929 . S
C270 C266 1.531 . S
C270 H282 0.960 . S
C270 H283 0.962 . S
C270 H284 0.960 . S
C271 C268 1.511 . S
C271 H285 0.961 . S
C271 H286 0.961 . S
C271 H287 0.961 . S
C272 C273 1.370 . S
C272 C274 1.363 . S
C272 H288 0.931 . S
C273 C272 1.370 . S
C273 C277 1.408 . S
C274 C272 1.363 . S
C274 C275 1.370 . S
C274 C278 1.524 . S
C275 C267 1.503 . S
C275 C274 1.370 . S
C275 C276 1.403 . S
C276 C275 1.403 . S
C276 C277 1.404 . S
C276 C279 1.539 . S
C277 C273 1.408 . S
C277 C276 1.404 . S
C277 H289 0.930 . S
C278 C274 1.524 . S
C278 H290 0.956 . S
C278 H291 0.961 . S
C278 H292 0.961 . S
C279 C276 1.539 . S
C279 H293 0.958 . S
C279 H294 0.961 . S
C279 H295 0.960 . S
H280 C264 0.931 . S
H281 C269 0.929 . S
H282 C270 0.960 . S
H283 C270 0.962 . S
H284 C270 0.960 . S
H285 C271 0.961 . S
H286 C271 0.961 . S
H287 C271 0.961 . S
H288 C272 0.931 . S
H289 C277 0.930 . S
H290 C278 0.956 . S
H291 C278 0.961 . S
H292 C278 0.961 . S
H293 C279 0.958 . S
H294 C279 0.961 . S
H295 C279 0.960 . S
C296 C297 1.391 . S
C296 C298 1.394 . S
C296 H312 0.931 . S
C297 C296 1.391 . S
C297 C301 1.376 . S
C298 C296 1.394 . S
C298 C299 1.369 . S
C298 C302 1.531 1_655 S
C299 C298 1.369 . S
C299 C300 1.410 . S
C299 C307 1.503 1_655 S
C300 C299 1.410 . S
C300 C301 1.392 . S
C300 C303 1.511 . S
C301 C297 1.376 . S
C301 C300 1.392 . S
C301 H313 0.929 . S
C302 C298 1.531 1_455 S
C302 H314 0.960 . S
C302 H315 0.962 . S
C302 H316 0.960 1_455 S
C303 C300 1.511 . S
C303 H317 0.961 . S
C303 H318 0.961 . S
C303 H319 0.961 . S
C304 C305 1.370 . S
C304 C306 1.363 . S
C304 H320 0.931 . S
C305 C304 1.370 . S
C305 C309 1.408 . S
C306 C304 1.363 . S
C306 C307 1.370 . S
C306 C310 1.524 . S
C307 C299 1.503 1_455 S
C307 C306 1.370 . S
C307 C308 1.403 . S
C308 C307 1.403 . S
C308 C309 1.404 . S
C308 C311 1.539 . S
C309 C305 1.408 . S
C309 C308 1.404 . S
C309 H321 0.930 . S
C310 C306 1.524 . S
C310 H322 0.956 . S
C310 H323 0.961 1_455 S
C310 H324 0.961 . S
C311 C308 1.539 . S
C311 H325 0.958 . S
C311 H326 0.961 . S
C311 H327 0.960 1_455 S
H312 C296 0.931 . S
H313 C301 0.929 . S
H314 C302 0.960 . S
H315 C302 0.962 . S
H316 C302 0.960 1_655 S
H317 C303 0.961 . S
H318 C303 0.961 . S
H319 C303 0.961 . S
H320 C304 0.931 . S
H321 C309 0.930 . S
H322 C310 0.956 . S
H323 C310 0.961 1_655 S
H324 C310 0.961 . S
H325 C311 0.958 . S
H326 C311 0.961 . S
H327 C311 0.960 1_655 S
C328 C329 1.391 1_556 S
C328 C330 1.394 . S
C328 H344 0.931 . S
C329 C328 1.391 1_554 S
C329 C333 1.376 . S
C330 C328 1.394 . S
C330 C331 1.369 1_556 S
C330 C334 1.531 . S
C331 C330 1.369 1_554 S
C331 C332 1.410 . S
C331 C339 1.503 1_564 S
C332 C331 1.410 . S
C332 C333 1.392 . S
C332 C335 1.511 . S
C333 C329 1.376 . S
C333 C332 1.392 . S
C333 H345 0.929 . S
C334 C330 1.531 . S
C334 H346 0.960 . S
C334 H347 0.962 . S
C334 H348 0.960 . S
C335 C332 1.511 . S
C335 H349 0.961 . S
C335 H350 0.961 1_565 S
C335 H351 0.983 . S
C336 C337 1.370 . S
C336 C338 1.363 1_556 S
C336 H352 0.931 . S
C337 C336 1.370 . S
C337 C341 1.408 . S
C338 C336 1.363 1_554 S
C338 C339 1.370 1_554 S
C338 C342 1.524 . S
C339 C331 1.503 1_546 S
C339 C338 1.370 1_556 S
C339 C340 1.403 . S
C340 C339 1.403 . S
C340 C341 1.404 . S
C340 C343 1.539 . S
C341 C337 1.408 . S
C341 C340 1.404 . S
C341 H353 0.930 . S
C342 C338 1.524 . S
C342 H354 0.956 . S
C342 H355 0.961 . S
C342 H356 0.961 . S
C343 C340 1.539 . S
C343 H357 0.958 1_545 S
C343 H358 0.961 . S
C343 H359 0.960 1_545 S
H344 C328 0.931 . S
H345 C333 0.929 . S
H346 C334 0.960 . S
H347 C334 0.962 . S
H348 C334 0.960 . S
H349 C335 0.961 . S
H350 C335 0.961 1_545 S
H351 C335 0.983 . S
H352 C336 0.931 . S
H353 C341 0.930 . S
H354 C342 0.956 . S
H355 C342 0.961 . S
H356 C342 0.961 . S
H357 C343 0.958 1_565 S
H358 C343 0.961 . S
H359 C343 0.960 1_565 S
C360 C361 1.391 . S
C360 C362 1.394 . S
C360 H376 0.931 . S
C361 C360 1.391 . S
C361 C365 1.376 . S
C362 C360 1.394 . S
C362 C363 1.369 . S
C362 C366 1.531 1_556 S
C363 C362 1.369 . S
C363 C364 1.410 . S
C363 C371 1.503 1_556 S
C364 C363 1.410 . S
C364 C365 1.392 . S
C364 C367 1.511 . S
C365 C361 1.376 . S
C365 C364 1.392 . S
C365 H377 0.929 . S
C366 C362 1.531 1_554 S
C366 H378 0.960 . S
C366 H379 0.962 . S
C366 H380 0.960 . S
C367 C364 1.511 . S
C367 H381 0.961 . S
C367 H382 0.961 . S
C367 H383 0.961 . S
C368 C369 1.370 . S
C368 C370 1.363 . S
C368 H384 0.931 . S
C369 C368 1.370 . S
C369 C373 1.408 . S
C370 C368 1.363 . S
C370 C371 1.370 . S
C370 C374 1.524 1_554 S
C371 C363 1.503 1_554 S
C371 C370 1.370 . S
C371 C372 1.403 . S
C372 C371 1.403 . S
C372 C373 1.404 . S
C372 C375 1.539 . S
C373 C369 1.408 . S
C373 C372 1.404 . S
C373 H385 0.930 . S
C374 C370 1.524 1_556 S
C374 H386 0.956 . S
C374 H387 0.961 . S
C374 H388 0.961 . S
C375 C372 1.539 . S
C375 H389 0.958 . S
C375 H390 0.961 . S
C375 H391 0.960 . S
H376 C360 0.931 . S
H377 C365 0.929 . S
H378 C366 0.960 . S
H379 C366 0.962 . S
H380 C366 0.960 . S
H381 C367 0.961 . S
H382 C367 0.961 . S
H383 C367 0.961 . S
H384 C368 0.931 . S
H385 C373 0.930 . S
H386 C374 0.956 . S
H387 C374 0.961 . S
H388 C374 0.961 . S
H389 C375 0.958 . S
H390 C375 0.961 . S
H391 C375 0.960 . S
C392 C393 1.391 . S
C392 C394 1.394 . S
C392 H408 0.931 . S
C393 C392 1.391 . S
C393 C397 1.376 . S
C394 C392 1.394 . S
C394 C395 1.369 . S
C394 C398 1.531 . S
C395 C394 1.369 . S
C395 C396 1.410 . S
C395 C403 1.503 . S
C396 C395 1.410 . S
C396 C397 1.392 . S
C396 C399 1.511 . S
C397 C393 1.376 . S
C397 C396 1.392 . S
C397 H409 0.929 . S
C398 C394 1.531 . S
C398 H410 0.960 . S
C398 H411 0.962 . S
C398 H412 0.960 . S
C399 C396 1.511 . S
C399 H413 0.961 . S
C399 H414 0.961 . S
C399 H415 0.961 . S
C400 C401 1.370 . S
C400 C402 1.363 . S
C400 H416 0.931 . S
C401 C400 1.370 . S
C401 C405 1.408 . S
C402 C400 1.363 . S
C402 C403 1.370 . S
C402 C406 1.524 . S
C403 C395 1.503 . S
C403 C402 1.370 . S
C403 C404 1.403 . S
C404 C403 1.403 . S
C404 C405 1.404 . S
C404 C407 1.539 . S
C405 C401 1.408 . S
C405 C404 1.404 . S
C405 H417 0.930 . S
C406 C402 1.524 . S
C406 H418 0.956 . S
C406 H419 0.961 . S
C406 H420 0.961 . S
C407 C404 1.539 . S
C407 H421 0.958 . S
C407 H422 0.961 . S
C407 H423 0.960 . S
H408 C392 0.931 . S
H409 C397 0.929 . S
H410 C398 0.960 . S
H411 C398 0.962 . S
H412 C398 0.960 . S
H413 C399 0.961 . S
H414 C399 0.961 . S
H415 C399 0.961 . S
H416 C400 0.931 . S
H417 C405 0.930 . S
H418 C406 0.956 . S
H419 C406 0.961 . S
H420 C406 0.961 . S
H421 C407 0.958 . S
H422 C407 0.961 . S
H423 C407 0.960 . S
C424 C425 1.391 . S
C424 C426 1.394 . S
C424 H440 0.931 . S
C425 C424 1.391 . S
C425 C429 1.376 . S
C426 C424 1.394 . S
C426 C427 1.369 . S
C426 C430 1.531 . S
C427 C426 1.369 . S
C427 C428 1.410 . S
C427 C435 1.503 . S
C428 C427 1.410 . S
C428 C429 1.392 . S
C428 C431 1.511 . S
C429 C425 1.376 . S
C429 C428 1.392 . S
C429 H441 0.929 . S
C430 C426 1.531 . S
C430 H442 0.960 . S
C430 H443 0.962 . S
C430 H444 0.960 . S
C431 C428 1.511 . S
C431 H445 0.961 . S
C431 H446 0.961 . S
C431 H447 0.961 . S
C432 C433 1.370 . S
C432 C434 1.363 . S
C432 H448 0.931 . S
C433 C432 1.370 . S
C433 C437 1.408 . S
C434 C432 1.363 . S
C434 C435 1.370 . S
C434 C438 1.524 . S
C435 C427 1.503 . S
C435 C434 1.370 . S
C435 C436 1.403 . S
C436 C435 1.403 . S
C436 C437 1.404 . S
C436 C439 1.539 . S
C437 C433 1.408 . S
C437 C436 1.404 . S
C437 H449 0.930 . S
C438 C434 1.524 . S
C438 H450 0.956 . S
C438 H451 0.961 . S
C438 H452 0.961 . S
C439 C436 1.539 . S
C439 H453 0.958 . S
C439 H454 0.961 . S
C439 H455 0.960 . S
H440 C424 0.931 . S
H441 C429 0.929 . S
H442 C430 0.960 . S
H443 C430 0.962 . S
H444 C430 0.960 . S
H445 C431 0.961 . S
H446 C431 0.961 . S
H447 C431 0.961 . S
H448 C432 0.931 . S
H449 C437 0.930 . S
H450 C438 0.956 . S
H451 C438 0.961 . S
H452 C438 0.961 . S
H453 C439 0.958 . S
H454 C439 0.961 . S
H455 C439 0.960 . S
C456 C457 1.391 . S
C456 C458 1.394 . S
C456 H472 0.931 . S
C457 C456 1.391 . S
C457 C461 1.376 . S
C458 C456 1.394 . S
C458 C459 1.369 . S
C458 C462 1.531 . S
C459 C458 1.369 . S
C459 C460 1.410 . S
C459 C467 1.503 1_554 S
C460 C459 1.410 . S
C460 C461 1.392 . S
C460 C463 1.511 1_554 S
C461 C457 1.376 . S
C461 C460 1.392 . S
C461 H473 0.929 . S
C462 C458 1.531 . S
C462 H474 0.960 . S
C462 H475 0.962 . S
C462 H476 0.960 . S
C463 C460 1.511 1_556 S
C463 H477 0.961 . S
C463 H478 0.961 . S
C463 H479 0.961 . S
C464 C465 1.370 . S
C464 C466 1.363 . S
C464 H480 0.931 . S
C465 C464 1.370 . S
C465 C469 1.408 . S
C466 C464 1.363 . S
C466 C467 1.370 . S
C466 C470 1.524 . S
C467 C459 1.503 1_556 S
C467 C466 1.370 . S
C467 C468 1.403 . S
C468 C467 1.403 . S
C468 C469 1.404 . S
C468 C471 1.539 . S
C469 C465 1.408 . S
C469 C468 1.404 . S
C469 H481 0.930 . S
C470 C466 1.524 . S
C470 H482 0.953 1_556 S
C470 H483 0.961 . S
C470 H484 0.961 . S
C471 C468 1.539 . S
C471 H485 0.958 1_556 S
C471 H486 0.961 . S
C471 H487 0.960 1_556 S
H472 C456 0.931 . S
H473 C461 0.929 . S
H474 C462 0.960 . S
H475 C462 0.962 . S
H476 C462 0.960 . S
H477 C463 0.961 . S
H478 C463 0.961 . S
H479 C463 0.961 . S
H480 C464 0.931 . S
H481 C469 0.930 . S
H482 C470 0.953 1_554 S
H483 C470 0.961 . S
H484 C470 0.961 . S
H485 C471 0.958 1_554 S
H486 C471 0.961 . S
H487 C471 0.960 1_554 S
C488 C489 1.391 . S
C488 C490 1.394 . S
C488 H504 0.931 . S
C489 C488 1.391 . S
C489 C493 1.376 . S
C490 C488 1.394 . S
C490 C491 1.369 . S
C490 C494 1.531 . S
C491 C490 1.369 . S
C491 C492 1.410 . S
C491 C499 1.503 . S
C492 C491 1.410 . S
C492 C493 1.392 . S
C492 C495 1.511 . S
C493 C489 1.376 . S
C493 C492 1.392 . S
C493 H505 0.929 . S
C494 C490 1.531 . S
C494 H506 0.960 . S
C494 H507 0.962 . S
C494 H508 0.960 . S
C495 C492 1.511 . S
C495 H509 0.961 . S
C495 H510 0.961 . S
C495 H511 0.961 . S
C496 C497 1.370 . S
C496 C498 1.363 . S
C496 H512 0.931 . S
C497 C496 1.370 . S
C497 C501 1.408 . S
C498 C496 1.363 . S
C498 C499 1.370 . S
C498 C502 1.524 . S
C499 C491 1.503 . S
C499 C498 1.370 . S
C499 C500 1.403 . S
C500 C499 1.403 . S
C500 C501 1.404 . S
C500 C503 1.539 . S
C501 C497 1.408 . S
C501 C500 1.404 . S
C501 H513 0.930 . S
C502 C498 1.524 . S
C502 H514 0.956 . S
C502 H515 0.961 . S
C502 H516 0.961 . S
C503 C500 1.539 . S
C503 H517 0.958 . S
C503 H518 0.961 . S
C503 H519 0.960 . S
H504 C488 0.931 . S
H505 C493 0.929 . S
H506 C494 0.960 . S
H507 C494 0.962 . S
H508 C494 0.960 . S
H509 C495 0.961 . S
H510 C495 0.961 . S
H511 C495 0.961 . S
H512 C496 0.931 . S
H513 C501 0.930 . S
H514 C502 0.956 . S
H515 C502 0.961 . S
H516 C502 0.961 . S
H517 C503 0.958 . S
H518 C503 0.961 . S
H519 C503 0.960 . S
C520 C521 1.391 . S
C520 C522 1.394 . S
C520 H536 0.931 . S
C521 C520 1.391 . S
C521 C525 1.376 . S
C522 C520 1.394 . S
C522 C523 1.369 . S
C522 C526 1.531 . S
C523 C522 1.369 . S
C523 C524 1.410 . S
C523 C531 1.503 . S
C524 C523 1.410 . S
C524 C525 1.392 . S
C524 C527 1.511 . S
C525 C521 1.376 . S
C525 C524 1.392 . S
C525 H537 0.929 . S
C526 C522 1.531 . S
C526 H538 0.960 . S
C526 H539 0.962 . S
C526 H540 0.960 . S
C527 C524 1.511 . S
C527 H541 0.961 . S
C527 H542 0.961 . S
C527 H543 0.961 . S
C528 C529 1.370 . S
C528 C530 1.363 . S
C528 H544 0.931 . S
C529 C528 1.370 . S
C529 C533 1.408 . S
C530 C528 1.363 . S
C530 C531 1.370 . S
C530 C534 1.524 . S
C531 C523 1.503 . S
C531 C530 1.370 . S
C531 C532 1.403 . S
C532 C531 1.403 . S
C532 C533 1.404 . S
C532 C535 1.539 . S
C533 C529 1.408 . S
C533 C532 1.404 . S
C533 H545 0.930 . S
C534 C530 1.524 . S
C534 H546 0.956 . S
C534 H547 0.961 . S
C534 H548 0.961 . S
C535 C532 1.539 . S
C535 H549 0.958 . S
C535 H550 0.961 . S
C535 H551 0.960 . S
H536 C520 0.931 . S
H537 C525 0.929 . S
H538 C526 0.960 . S
H539 C526 0.962 . S
H540 C526 0.960 . S
H541 C527 0.961 . S
H542 C527 0.961 . S
H543 C527 0.961 . S
H544 C528 0.931 . S
H545 C533 0.930 . S
H546 C534 0.956 . S
H547 C534 0.961 . S
H548 C534 0.961 . S
H549 C535 0.958 . S
H550 C535 0.961 . S
H551 C535 0.960 . S
C552 C553 1.391 . S
C552 C554 1.394 . S
C552 H568 0.931 . S
C553 C552 1.391 . S
C553 C557 1.376 . S
C554 C552 1.394 . S
C554 C555 1.369 . S
C554 C558 1.531 . S
C555 C554 1.369 . S
C555 C556 1.410 . S
C555 C563 1.503 . S
C556 C555 1.410 . S
C556 C557 1.392 . S
C556 C559 1.511 . S
C557 C553 1.376 . S
C557 C556 1.392 . S
C557 H569 0.929 . S
C558 C554 1.531 . S
C558 H570 0.960 . S
C558 H571 0.962 . S
C558 H572 0.960 . S
C559 C556 1.511 . S
C559 H573 0.961 . S
C559 H574 0.961 . S
C559 H575 0.961 . S
C560 C561 1.370 . S
C560 C562 1.363 . S
C560 H576 0.931 . S
C561 C560 1.370 . S
C561 C565 1.408 . S
C562 C560 1.363 . S
C562 C563 1.370 . S
C562 C566 1.524 . S
C563 C555 1.503 . S
C563 C562 1.370 . S
C563 C564 1.403 . S
C564 C563 1.403 . S
C564 C565 1.404 . S
C564 C567 1.539 . S
C565 C561 1.408 . S
C565 C564 1.404 . S
C565 H577 0.930 . S
C566 C562 1.524 . S
C566 H578 0.956 . S
C566 H579 0.961 . S
C566 H580 0.961 . S
C567 C564 1.539 . S
C567 H581 0.958 . S
C567 H582 0.961 . S
C567 H583 0.960 . S
H568 C552 0.931 . S
H569 C557 0.929 . S
H570 C558 0.960 . S
H571 C558 0.962 . S
H572 C558 0.960 . S
H573 C559 0.961 . S
H574 C559 0.961 . S
H575 C559 0.961 . S
H576 C560 0.931 . S
H577 C565 0.930 . S
H578 C566 0.956 . S
H579 C566 0.961 . S
H580 C566 0.961 . S
H581 C567 0.958 . S
H582 C567 0.961 . S
H583 C567 0.960 . S
C584 C585 1.391 . S
C584 C586 1.394 . S
C584 H600 0.931 . S
C585 C584 1.391 . S
C585 C589 1.376 . S
C586 C584 1.394 . S
C586 C587 1.369 . S
C586 C590 1.531 . S
C587 C586 1.369 . S
C587 C588 1.410 . S
C587 C595 1.503 . S
C588 C587 1.410 . S
C588 C589 1.392 . S
C588 C591 1.511 . S
C589 C585 1.376 . S
C589 C588 1.392 . S
C589 H601 0.929 . S
C590 C586 1.531 . S
C590 H602 0.960 . S
C590 H603 0.962 . S
C590 H604 0.960 . S
C591 C588 1.511 . S
C591 H605 0.961 . S
C591 H606 0.961 . S
C591 H607 0.961 . S
C592 C593 1.370 . S
C592 C594 1.363 . S
C592 H608 0.931 . S
C593 C592 1.370 . S
C593 C597 1.408 . S
C594 C592 1.363 . S
C594 C595 1.370 . S
C594 C598 1.524 . S
C595 C587 1.503 . S
C595 C594 1.370 . S
C595 C596 1.403 . S
C596 C595 1.403 . S
C596 C597 1.404 . S
C596 C599 1.539 . S
C597 C593 1.408 . S
C597 C596 1.404 . S
C597 H609 0.930 . S
C598 C594 1.524 . S
C598 H610 0.956 . S
C598 H611 0.961 . S
C598 H612 0.961 . S
C599 C596 1.539 . S
C599 H613 0.958 . S
C599 H614 0.961 . S
C599 H615 0.960 . S
H600 C584 0.931 . S
H601 C589 0.929 . S
H602 C590 0.960 . S
H603 C590 0.962 . S
H604 C590 0.960 . S
H605 C591 0.961 . S
H606 C591 0.961 . S
H607 C591 0.961 . S
H608 C592 0.931 . S
H609 C597 0.930 . S
H610 C598 0.956 . S
H611 C598 0.961 . S
H612 C598 0.961 . S
H613 C599 0.958 . S
H614 C599 0.961 . S
H615 C599 0.960 . S
C616 C617 1.391 . S
C616 C618 1.394 . S
C616 H632 0.931 . S
C617 C616 1.391 . S
C617 C621 1.376 . S
C618 C616 1.394 . S
C618 C619 1.369 . S
C618 C622 1.531 . S
C619 C618 1.369 . S
C619 C620 1.410 . S
C619 C627 1.503 . S
C620 C619 1.410 . S
C620 C621 1.392 . S
C620 C623 1.511 . S
C621 C617 1.376 . S
C621 C620 1.392 . S
C621 H633 0.929 . S
C622 C618 1.531 . S
C622 H634 0.960 . S
C622 H635 0.962 . S
C622 H636 0.960 . S
C623 C620 1.511 . S
C623 H637 0.961 . S
C623 H638 0.961 . S
C623 H639 0.961 . S
C624 C625 1.370 . S
C624 C626 1.363 . S
C624 H640 0.931 . S
C625 C624 1.370 . S
C625 C629 1.408 . S
C626 C624 1.363 . S
C626 C627 1.370 . S
C626 C630 1.524 . S
C627 C619 1.503 . S
C627 C626 1.370 . S
C627 C628 1.403 . S
C628 C627 1.403 . S
C628 C629 1.404 . S
C628 C631 1.539 . S
C629 C625 1.408 . S
C629 C628 1.404 . S
C629 H641 0.930 . S
C630 C626 1.524 . S
C630 H642 0.956 . S
C630 H643 0.961 . S
C630 H644 0.961 . S
C631 C628 1.539 . S
C631 H645 0.958 . S
C631 H646 0.961 . S
C631 H647 0.960 . S
H632 C616 0.931 . S
H633 C621 0.929 . S
H634 C622 0.960 . S
H635 C622 0.962 . S
H636 C622 0.960 . S
H637 C623 0.961 . S
H638 C623 0.961 . S
H639 C623 0.961 . S
H640 C624 0.931 . S
H641 C629 0.930 . S
H642 C630 0.956 . S
H643 C630 0.961 . S
H644 C630 0.961 . S
H645 C631 0.958 . S
H646 C631 0.961 . S
H647 C631 0.960 . S
C648 C649 1.391 . S
C648 C650 1.394 . S
C648 H664 0.931 . S
C649 C648 1.391 . S
C649 C653 1.376 . S
C650 C648 1.394 . S
C650 C651 1.369 . S
C650 C654 1.531 . S
C651 C650 1.369 . S
C651 C652 1.410 . S
C651 C659 1.503 . S
C652 C651 1.410 . S
C652 C653 1.392 . S
C652 C655 1.511 . S
C653 C649 1.376 . S
C653 C652 1.392 . S
C653 H665 0.929 . S
C654 C650 1.531 . S
C654 H666 0.960 . S
C654 H667 0.962 . S
C654 H668 0.960 . S
C655 C652 1.511 . S
C655 H669 0.961 . S
C655 H670 0.961 . S
C655 H671 0.961 . S
C656 C657 1.370 . S
C656 C658 1.363 . S
C656 H672 0.931 . S
C657 C656 1.370 . S
C657 C661 1.408 . S
C658 C656 1.363 . S
C658 C659 1.370 . S
C658 C662 1.524 . S
C659 C651 1.503 . S
C659 C658 1.370 . S
C659 C660 1.403 . S
C660 C659 1.403 . S
C660 C661 1.404 . S
C660 C663 1.539 . S
C661 C657 1.408 . S
C661 C660 1.404 . S
C661 H673 0.930 . S
C662 C658 1.524 . S
C662 H674 0.956 . S
C662 H675 0.961 . S
C662 H676 0.961 . S
C663 C660 1.539 . S
C663 H677 0.958 . S
C663 H678 0.961 . S
C663 H679 0.960 . S
H664 C648 0.931 . S
H665 C653 0.929 . S
H666 C654 0.960 . S
H667 C654 0.962 . S
H668 C654 0.960 . S
H669 C655 0.961 . S
H670 C655 0.961 . S
H671 C655 0.961 . S
H672 C656 0.931 . S
H673 C661 0.930 . S
H674 C662 0.956 . S
H675 C662 0.961 . S
H676 C662 0.961 . S
H677 C663 0.958 . S
H678 C663 0.961 . S
H679 C663 0.960 . S
C680 C681 1.391 . S
C680 C682 1.394 . S
C680 H696 0.931 . S
C681 C680 1.391 . S
C681 C685 1.376 . S
C682 C680 1.394 . S
C682 C683 1.369 . S
C682 C686 1.531 . S
C683 C682 1.369 . S
C683 C684 1.410 . S
C683 C691 1.503 . S
C684 C683 1.410 . S
C684 C685 1.392 . S
C684 C687 1.511 . S
C685 C681 1.376 . S
C685 C684 1.392 . S
C685 H697 0.929 . S
C686 C682 1.531 . S
C686 H698 0.960 . S
C686 H699 0.962 . S
C686 H700 0.960 . S
C687 C684 1.511 . S
C687 H701 0.961 . S
C687 H702 0.961 . S
C687 H703 0.961 . S
C688 C689 1.370 . S
C688 C690 1.363 . S
C688 H704 0.931 . S
C689 C688 1.370 . S
C689 C693 1.408 . S
C690 C688 1.363 . S
C690 C691 1.370 . S
C690 C694 1.524 . S
C691 C683 1.503 . S
C691 C690 1.370 . S
C691 C692 1.403 . S
C692 C691 1.403 . S
C692 C693 1.404 . S
C692 C695 1.539 . S
C693 C689 1.408 . S
C693 C692 1.404 . S
C693 H705 0.930 . S
C694 C690 1.524 . S
C694 H706 0.956 . S
C694 H707 0.961 . S
C694 H708 0.961 . S
C695 C692 1.539 . S
C695 H709 0.958 . S
C695 H710 0.961 . S
C695 H711 0.960 . S
H696 C680 0.931 . S
H697 C685 0.929 . S
H698 C686 0.960 . S
H699 C686 0.962 . S
H700 C686 0.960 . S
H701 C687 0.961 . S
H702 C687 0.961 . S
H703 C687 0.961 . S
H704 C688 0.931 . S
H705 C693 0.930 . S
H706 C694 0.956 . S
H707 C694 0.961 . S
H708 C694 0.961 . S
H709 C695 0.958 . S
H710 C695 0.961 . S
H711 C695 0.960 . S
C712 C713 1.391 . S
C712 C714 1.394 . S
C712 H728 0.931 . S
C713 C712 1.391 . S
C713 C717 1.376 . S
C714 C712 1.394 . S
C714 C715 1.369 . S
C714 C718 1.531 . S
C715 C714 1.369 . S
C715 C716 1.410 . S
C715 C723 1.503 . S
C716 C715 1.410 . S
C716 C717 1.392 . S
C716 C719 1.511 . S
C717 C713 1.376 . S
C717 C716 1.392 . S
C717 H729 0.929 . S
C718 C714 1.531 . S
C718 H730 0.960 . S
C718 H731 0.962 . S
C718 H732 0.960 . S
C719 C716 1.511 . S
C719 H733 0.961 . S
C719 H734 0.961 . S
C719 H735 0.961 . S
C720 C721 1.370 . S
C720 C722 1.363 . S
C720 H736 0.931 . S
C721 C720 1.370 . S
C721 C725 1.408 . S
C722 C720 1.363 . S
C722 C723 1.370 . S
C722 C726 1.524 . S
C723 C715 1.503 . S
C723 C722 1.370 . S
C723 C724 1.403 . S
C724 C723 1.403 . S
C724 C725 1.404 . S
C724 C727 1.539 . S
C725 C721 1.408 . S
C725 C724 1.404 . S
C725 H737 0.930 . S
C726 C722 1.524 . S
C726 H738 0.956 . S
C726 H739 0.961 . S
C726 H740 0.961 . S
C727 C724 1.539 . S
C727 H741 0.958 . S
C727 H742 0.961 . S
C727 H743 0.960 . S
H728 C712 0.931 . S
H729 C717 0.929 . S
H730 C718 0.960 . S
H731 C718 0.962 . S
H732 C718 0.960 . S
H733 C719 0.961 . S
H734 C719 0.961 . S
H735 C719 0.961 . S
H736 C720 0.931 . S
H737 C725 0.930 . S
H738 C726 0.956 . S
H739 C726 0.961 . S
H740 C726 0.961 . S
H741 C727 0.958 . S
H742 C727 0.961 . S
H743 C727 0.960 . S
C744 C745 1.391 . S
C744 C746 1.394 . S
C744 H760 0.931 . S
C745 C744 1.391 . S
C745 C749 1.376 . S
C746 C744 1.394 . S
C746 C747 1.369 . S
C746 C750 1.531 . S
C747 C746 1.369 . S
C747 C748 1.410 . S
C747 C755 1.503 . S
C748 C747 1.410 . S
C748 C749 1.392 . S
C748 C751 1.511 . S
C749 C745 1.376 . S
C749 C748 1.392 . S
C749 H761 0.929 . S
C750 C746 1.531 . S
C750 H762 0.960 . S
C750 H763 0.962 . S
C750 H764 0.960 . S
C751 C748 1.511 . S
C751 H765 0.961 . S
C751 H766 0.961 . S
C751 H767 0.961 . S
C752 C753 1.370 . S
C752 C754 1.363 . S
C752 H768 0.931 . S
C753 C752 1.370 . S
C753 C757 1.408 . S
C754 C752 1.363 . S
C754 C755 1.370 . S
C754 C758 1.524 . S
C755 C747 1.503 . S
C755 C754 1.370 . S
C755 C756 1.403 . S
C756 C755 1.403 . S
C756 C757 1.404 . S
C756 C759 1.539 . S
C757 C753 1.408 . S
C757 C756 1.404 . S
C757 H769 0.930 . S
C758 C754 1.524 . S
C758 H770 0.956 . S
C758 H771 0.961 . S
C758 H772 0.961 . S
C759 C756 1.539 . S
C759 H773 0.958 . S
C759 H774 0.961 . S
C759 H775 0.960 . S
H760 C744 0.931 . S
H761 C749 0.929 . S
H762 C750 0.960 . S
H763 C750 0.962 . S
H764 C750 0.960 . S
H765 C751 0.961 . S
H766 C751 0.961 . S
H767 C751 0.961 . S
H768 C752 0.931 . S
H769 C757 0.930 . S
H770 C758 0.956 . S
H771 C758 0.961 . S
H772 C758 0.961 . S
H773 C759 0.958 . S
H774 C759 0.961 . S
H775 C759 0.960 . S
C776 C777 1.391 . S
C776 C778 1.394 . S
C776 H792 0.931 . S
C777 C776 1.391 . S
C777 C781 1.376 . S
C778 C776 1.394 . S
C778 C779 1.369 . S
C778 C782 1.531 . S
C779 C778 1.369 . S
C779 C780 1.410 . S
C779 C787 1.503 . S
C780 C779 1.410 . S
C780 C781 1.392 . S
C780 C783 1.511 . S
C781 C777 1.376 . S
C781 C780 1.392 . S
C781 H793 0.929 . S
C782 C778 1.531 . S
C782 H794 0.960 . S
C782 H795 0.962 . S
C782 H796 0.960 . S
C783 C780 1.511 . S
C783 H797 0.961 . S
C783 H798 0.961 . S
C783 H799 0.961 . S
C784 C785 1.370 . S
C784 C786 1.363 . S
C784 H800 0.931 . S
C785 C784 1.370 . S
C785 C789 1.408 . S
C786 C784 1.363 . S
C786 C787 1.370 . S
C786 C790 1.524 . S
C787 C779 1.503 . S
C787 C786 1.370 . S
C787 C788 1.403 . S
C788 C787 1.403 . S
C788 C789 1.404 . S
C788 C791 1.539 . S
C789 C785 1.408 . S
C789 C788 1.404 . S
C789 H801 0.930 . S
C790 C786 1.524 . S
C790 H802 0.956 . S
C790 H803 0.961 . S
C790 H804 0.961 . S
C791 C788 1.539 . S
C791 H805 0.958 . S
C791 H806 0.961 . S
C791 H807 0.960 . S
H792 C776 0.931 . S
H793 C781 0.929 . S
H794 C782 0.960 . S
H795 C782 0.962 . S
H796 C782 0.960 . S
H797 C783 0.961 . S
H798 C783 0.961 . S
H799 C783 0.961 . S
H800 C784 0.931 . S
H801 C789 0.930 . S
H802 C790 0.956 . S
H803 C790 0.961 . S
H804 C790 0.961 . S
H805 C791 0.958 . S
H806 C791 0.961 . S
H807 C791 0.960 . S
C808 C809 1.391 . S
C808 C810 1.394 . S
C808 H824 0.931 . S
C809 C808 1.391 . S
C809 C813 1.376 1_556 S
C810 C808 1.394 . S
C810 C811 1.371 . S
C810 C814 1.531 . S
C811 C810 1.371 . S
C811 C812 1.407 1_556 S
C811 C819 1.503 1_556 S
C812 C811 1.407 1_554 S
C812 C813 1.392 . S
C812 C815 1.511 . S
C813 C809 1.376 1_554 S
C813 C812 1.392 . S
C813 H825 0.929 . S
C814 C810 1.531 . S
C814 H826 0.960 . S
C814 H827 0.962 . S
C814 H828 0.960 . S
C815 C812 1.511 . S
C815 H829 0.961 . S
C815 H830 0.961 . S
C815 H831 0.961 . S
C816 C817 1.370 1_556 S
C816 C818 1.363 . S
C816 H832 0.931 . S
C817 C816 1.370 1_554 S
C817 C821 1.408 . S
C818 C816 1.363 . S
C818 C819 1.370 1_556 S
C818 C822 1.524 . S
C819 C811 1.503 1_554 S
C819 C818 1.370 1_554 S
C819 C820 1.403 . S
C820 C819 1.403 . S
C820 C821 1.404 . S
C820 C823 1.539 . S
C821 C817 1.408 . S
C821 C820 1.404 . S
C821 H833 0.930 . S
C822 C818 1.524 . S
C822 H834 0.956 . S
C822 H835 0.961 1_556 S
C822 H836 0.961 . S
C823 C820 1.539 . S
C823 H837 0.958 1_554 S
C823 H838 0.961 . S
C823 H839 0.960 . S
H824 C808 0.931 . S
H825 C813 0.929 . S
H826 C814 0.960 . S
H827 C814 0.962 . S
H828 C814 0.960 . S
H829 C815 0.961 . S
H830 C815 0.961 . S
H831 C815 0.961 . S
H832 C816 0.931 . S
H833 C821 0.930 . S
H834 C822 0.956 . S
H835 C822 0.961 1_554 S
H836 C822 0.961 . S
H837 C823 0.958 1_556 S
H838 C823 0.961 . S
H839 C823 0.960 . S
C840 C841 1.391 . S
C840 C842 1.394 . S
C840 H856 0.931 . S
C841 C840 1.391 . S
C841 C845 1.376 . S
C842 C840 1.394 . S
C842 C843 1.369 . S
C842 C846 1.531 . S
C843 C842 1.369 . S
C843 C844 1.410 . S
C843 C851 1.503 . S
C844 C843 1.410 . S
C844 C845 1.392 . S
C844 C847 1.511 . S
C845 C841 1.376 . S
C845 C844 1.392 . S
C845 H857 0.929 . S
C846 C842 1.531 . S
C846 H858 0.960 . S
C846 H859 0.962 . S
C846 H860 0.960 . S
C847 C844 1.511 . S
C847 H861 0.961 . S
C847 H862 0.961 . S
C847 H863 0.961 . S
C848 C849 1.370 . S
C848 C850 1.363 . S
C848 H864 0.931 . S
C849 C848 1.370 . S
C849 C853 1.408 . S
C850 C848 1.363 . S
C850 C851 1.370 . S
C850 C854 1.524 . S
C851 C843 1.503 . S
C851 C850 1.370 . S
C851 C852 1.403 . S
C852 C851 1.403 . S
C852 C853 1.404 . S
C852 C855 1.539 . S
C853 C849 1.408 . S
C853 C852 1.404 . S
C853 H865 0.930 . S
C854 C850 1.524 . S
C854 H866 0.956 . S
C854 H867 0.961 . S
C854 H868 0.961 . S
C855 C852 1.539 . S
C855 H869 0.958 . S
C855 H870 0.961 . S
C855 H871 0.960 . S
H856 C840 0.931 . S
H857 C845 0.929 . S
H858 C846 0.960 . S
H859 C846 0.962 . S
H860 C846 0.960 . S
H861 C847 0.961 . S
H862 C847 0.961 . S
H863 C847 0.961 . S
H864 C848 0.931 . S
H865 C853 0.930 . S
H866 C854 0.956 . S
H867 C854 0.961 . S
H868 C854 0.961 . S
H869 C855 0.958 . S
H870 C855 0.961 . S
H871 C855 0.960 . S
C872 C873 1.391 . S
C872 C874 1.394 . S
C872 H888 0.931 . S
C873 C872 1.391 . S
C873 C877 1.376 . S
C874 C872 1.394 . S
C874 C875 1.369 . S
C874 C878 1.531 . S
C875 C874 1.369 . S
C875 C876 1.410 . S
C875 C883 1.503 . S
C876 C875 1.410 . S
C876 C877 1.392 . S
C876 C879 1.511 . S
C877 C873 1.376 . S
C877 C876 1.392 . S
C877 H889 0.929 . S
C878 C874 1.531 . S
C878 H890 0.960 . S
C878 H891 0.962 . S
C878 H892 0.960 . S
C879 C876 1.511 . S
C879 H893 0.961 . S
C879 H894 0.961 . S
C879 H895 0.961 . S
C880 C881 1.370 . S
C880 C882 1.363 . S
C880 H896 0.931 . S
C881 C880 1.370 . S
C881 C885 1.408 . S
C882 C880 1.363 . S
C882 C883 1.370 . S
C882 C886 1.524 . S
C883 C875 1.503 . S
C883 C882 1.370 . S
C883 C884 1.403 . S
C884 C883 1.403 . S
C884 C885 1.404 . S
C884 C887 1.539 . S
C885 C881 1.408 . S
C885 C884 1.404 . S
C885 H897 0.930 . S
C886 C882 1.524 . S
C886 H898 0.956 . S
C886 H899 0.961 . S
C886 H900 0.961 . S
C887 C884 1.539 . S
C887 H901 0.958 . S
C887 H902 0.961 . S
C887 H903 0.960 . S
H888 C872 0.931 . S
H889 C877 0.929 . S
H890 C878 0.960 . S
H891 C878 0.962 . S
H892 C878 0.960 . S
H893 C879 0.961 . S
H894 C879 0.961 . S
H895 C879 0.961 . S
H896 C880 0.931 . S
H897 C885 0.930 . S
H898 C886 0.956 . S
H899 C886 0.961 . S
H900 C886 0.961 . S
H901 C887 0.958 . S
H902 C887 0.961 . S
H903 C887 0.960 . S
C904 C905 1.391 1_556 S
C904 C906 1.394 . S
C904 H920 0.931 . S
C905 C904 1.391 1_554 S
C905 C909 1.376 . S
C906 C904 1.394 . S
C906 C907 1.369 1_556 S
C906 C910 1.531 . S
C907 C906 1.369 1_554 S
C907 C908 1.410 . S
C907 C915 1.503 . S
C908 C907 1.410 . S
C908 C909 1.392 . S
C908 C911 1.511 . S
C909 C905 1.376 . S
C909 C908 1.392 . S
C909 H921 0.929 . S
C910 C906 1.531 . S
C910 H922 0.960 . S
C910 H923 0.962 . S
C910 H924 0.960 . S
C911 C908 1.511 . S
C911 H925 0.961 . S
C911 H926 0.961 . S
C911 H927 0.961 . S
C912 C913 1.366 1_556 S
C912 C914 1.363 . S
C912 H928 0.931 . S
C913 C912 1.366 1_554 S
C913 C917 1.413 . S
C914 C912 1.363 . S
C914 C915 1.370 1_556 S
C914 C918 1.524 . S
C915 C907 1.503 . S
C915 C914 1.370 1_554 S
C915 C916 1.403 . S
C916 C915 1.403 . S
C916 C917 1.404 . S
C916 C919 1.539 . S
C917 C913 1.413 . S
C917 C916 1.404 . S
C917 H929 0.930 . S
C918 C914 1.524 . S
C918 H930 0.956 . S
C918 H931 0.961 . S
C918 H932 0.961 . S
C919 C916 1.539 . S
C919 H933 0.958 . S
C919 H934 0.961 . S
C919 H935 0.960 . S
H920 C904 0.931 . S
H921 C909 0.929 . S
H922 C910 0.960 . S
H923 C910 0.962 . S
H924 C910 0.960 . S
H925 C911 0.961 . S
H926 C911 0.961 . S
H927 C911 0.961 . S
H928 C912 0.931 . S
H929 C917 0.930 . S
H930 C918 0.956 . S
H931 C918 0.961 . S
H932 C918 0.961 . S
H933 C919 0.958 . S
H934 C919 0.961 . S
H935 C919 0.960 . S
C169 C7 1.475 . S
C177 C133 1.455 . S
C201 C21 1.419 . S
C209 C147 1.480 . S
C233 C35 1.473 . S
C241 C161 1.456 . S
C265 C49 1.423 . S
C273 C91 1.477 . S
C297 C105 1.447 . S
C305 C63 1.471 . S
C329 C119 1.438 . S
C337 C77 1.471 . S
C361 C146 1.540 . S
C369 C6 1.527 . S
C393 C20 1.524 . S
C401 C160 1.520 . S
C425 C34 1.478 . S
C433 C90 1.501 . S
C457 C48 1.478 . S
C465 C104 1.501 . S
C489 C62 1.485 . S
C497 C118 1.504 . S
C521 C76 1.478 . S
C529 C132 1.501 . S
C553 C148 1.463 . S
C561 C8 1.470 . S
C585 C22 1.459 . S
C593 C162 1.474 . S
C617 C36 1.479 . S
C625 C92 1.465 . S
C649 C50 1.460 . S
C657 C106 1.471 . S
C681 C64 1.476 . S
C689 C120 1.465 . S
C713 C78 1.452 . S
C721 C134 1.476 . S
C745 C9 1.624 . S
C753 C93 1.628 . S
C777 C107 1.631 . S
C785 C23 1.630 . S
C809 C37 1.647 . S
C817 C121 1.641 . S
C841 C51 1.647 . S
C849 C135 1.638 . S
C873 C65 1.634 . S
C881 C149 1.631 . S
C905 C163 1.617 . S
C913 C79 1.634 1_554 S
