# Generated by pormake.
# Topology neb, (4)-cn, num edge types: 1
# Building blocks:
#     Node 0, Type 0, BuildingBlock: CEKHIL_clean_sbu_0, # of connection points: 4
#     Node 1, Type 0, BuildingBlock: CEKHIL_clean_sbu_0, # of connection points: 4
#     Node 2, Type 0, BuildingBlock: CEKHIL_clean_sbu_0, # of connection points: 4
#     Node 3, Type 0, BuildingBlock: CEKHIL_clean_sbu_0, # of connection points: 4
#     Node 4, Type 0, BuildingBlock: CEKHIL_clean_sbu_0, # of connection points: 4
#     Node 5, Type 0, BuildingBlock: CEKHIL_clean_sbu_0, # of connection points: 4
#     Node 6, Type 0, BuildingBlock: CEKHIL_clean_sbu_0, # of connection points: 4
#     Node 7, Type 0, BuildingBlock: CEKHIL_clean_sbu_0, # of connection points: 4
#     Node 8, Type 0, BuildingBlock: CEKHIL_clean_sbu_0, # of connection points: 4
#     Node 9, Type 0, BuildingBlock: CEKHIL_clean_sbu_0, # of connection points: 4
#     Node 10, Type 0, BuildingBlock: CEKHIL_clean_sbu_0, # of connection points: 4
#     Node 11, Type 0, BuildingBlock: CEKHIL_clean_sbu_0, # of connection points: 4
#     Node 12, Type 0, BuildingBlock: CEKHIL_clean_sbu_0, # of connection points: 4
#     Node 13, Type 0, BuildingBlock: CEKHIL_clean_sbu_0, # of connection points: 4
#     Node 14, Type 0, BuildingBlock: CEKHIL_clean_sbu_0, # of connection points: 4
#     Node 15, Type 0, BuildingBlock: CEKHIL_clean_sbu_0, # of connection points: 4
#     Edge 16, Type (0, 0), BuildingBlock: AJUNOK_clean_linker_0, # of connection points: 2
#     Edge 17, Type (0, 0), BuildingBlock: AJUNOK_clean_linker_0, # of connection points: 2
#     Edge 18, Type (0, 0), BuildingBlock: AJUNOK_clean_linker_0, # of connection points: 2
#     Edge 19, Type (0, 0), BuildingBlock: AJUNOK_clean_linker_0, # of connection points: 2
#     Edge 20, Type (0, 0), BuildingBlock: AJUNOK_clean_linker_0, # of connection points: 2
#     Edge 21, Type (0, 0), BuildingBlock: AJUNOK_clean_linker_0, # of connection points: 2
#     Edge 22, Type (0, 0), BuildingBlock: AJUNOK_clean_linker_0, # of connection points: 2
#     Edge 23, Type (0, 0), BuildingBlock: AJUNOK_clean_linker_0, # of connection points: 2
#     Edge 24, Type (0, 0), BuildingBlock: AJUNOK_clean_linker_0, # of connection points: 2
#     Edge 25, Type (0, 0), BuildingBlock: AJUNOK_clean_linker_0, # of connection points: 2
#     Edge 26, Type (0, 0), BuildingBlock: AJUNOK_clean_linker_0, # of connection points: 2
#     Edge 27, Type (0, 0), BuildingBlock: AJUNOK_clean_linker_0, # of connection points: 2
#     Edge 28, Type (0, 0), BuildingBlock: AJUNOK_clean_linker_0, # of connection points: 2
#     Edge 29, Type (0, 0), BuildingBlock: AJUNOK_clean_linker_0, # of connection points: 2
#     Edge 30, Type (0, 0), BuildingBlock: AJUNOK_clean_linker_0, # of connection points: 2
#     Edge 31, Type (0, 0), BuildingBlock: AJUNOK_clean_linker_0, # of connection points: 2
#     Edge 32, Type (0, 0), BuildingBlock: AJUNOK_clean_linker_0, # of connection points: 2
#     Edge 33, Type (0, 0), BuildingBlock: AJUNOK_clean_linker_0, # of connection points: 2
#     Edge 34, Type (0, 0), BuildingBlock: AJUNOK_clean_linker_0, # of connection points: 2
#     Edge 35, Type (0, 0), BuildingBlock: AJUNOK_clean_linker_0, # of connection points: 2
#     Edge 36, Type (0, 0), BuildingBlock: AJUNOK_clean_linker_0, # of connection points: 2
#     Edge 37, Type (0, 0), BuildingBlock: AJUNOK_clean_linker_0, # of connection points: 2
#     Edge 38, Type (0, 0), BuildingBlock: AJUNOK_clean_linker_0, # of connection points: 2
#     Edge 39, Type (0, 0), BuildingBlock: AJUNOK_clean_linker_0, # of connection points: 2
#     Edge 40, Type (0, 0), BuildingBlock: AJUNOK_clean_linker_0, # of connection points: 2
#     Edge 41, Type (0, 0), BuildingBlock: AJUNOK_clean_linker_0, # of connection points: 2
#     Edge 42, Type (0, 0), BuildingBlock: AJUNOK_clean_linker_0, # of connection points: 2
#     Edge 43, Type (0, 0), BuildingBlock: AJUNOK_clean_linker_0, # of connection points: 2
#     Edge 44, Type (0, 0), BuildingBlock: AJUNOK_clean_linker_0, # of connection points: 2
#     Edge 45, Type (0, 0), BuildingBlock: AJUNOK_clean_linker_0, # of connection points: 2
#     Edge 46, Type (0, 0), BuildingBlock: AJUNOK_clean_linker_0, # of connection points: 2
#     Edge 47, Type (0, 0), BuildingBlock: AJUNOK_clean_linker_0, # of connection points: 2
# Relax obj value: 0.002
# Max RMSD: 0.026
# Mean RMSD: 0.026
data_MOF--net-neb--node1-CEKHIL_clean_sbu_0--edge1-AJUNOK_clean_linker_0
_symmetry_space_group_name_H-M    P1
_symmetry_Int_Tables_number       1
_symmetry_cell_setting            triclinic
loop_
_symmetry_equiv_pos_as_xyz
'x, y, z'
_cell_length_a     30.522626
_cell_length_b     16.688318
_cell_length_c     54.737769
_cell_angle_alpha  90.005628
_cell_angle_beta   93.491673
_cell_angle_gamma 89.97222
loop_
_atom_site_label
_atom_site_type_symbol
_atom_site_fract_x
_atom_site_fract_y
_atom_site_fract_z
_atom_type_partial_charge
Co0 Co 0.12567 0.10923 0.46766 0.0
O1 O 0.11019 0.03619 0.49329 0.0
O2 O 0.06264 0.10642 0.47013 0.0
C3 C 0.18014 0.17225 0.49022 0.0
O4 O 0.12776 0.19341 0.44058 0.0
Co5 Co 0.21561 0.10883 0.44547 0.0
O6 O 0.19595 0.2085 0.42835 0.0
C7 C 0.15063 0.98615 0.42923 0.0
C8 C 0.0696 0.05678 0.48826 0.0
C9 C 0.15573 0.22918 0.42764 0.0
O10 O 0.1225 0.01992 0.44255 0.0
O11 O 0.19061 0.00939 0.42916 0.0
O12 O 0.13929 0.19176 0.49198 0.0
O13 O 0.18683 0.11139 0.47621 0.0
Co14 Co 0.13213 0.10828 0.82186 0.0
O15 O 0.14473 0.03517 0.79585 0.0
O16 O 0.19499 0.1019 0.81818 0.0
C17 C 0.07775 0.17454 0.80015 0.0
O18 O 0.1321 0.19173 0.84934 0.0
Co19 Co 0.04323 0.10889 0.84507 0.0
O20 O 0.06403 0.20848 0.86172 0.0
C21 C 0.1079 0.98445 0.86026 0.0
C22 C 0.18586 0.05282 0.8001 0.0
C23 C 0.10441 0.22802 0.8624 0.0
O24 O 0.13551 0.01805 0.84661 0.0
O25 O 0.06821 0.00879 0.86107 0.0
O26 O 0.11872 0.19218 0.79801 0.0
O27 O 0.07077 0.11334 0.81398 0.0
Co28 Co 0.87791 0.89333 0.57235 0.0
O29 O 0.8911 0.96795 0.54681 0.0
O30 O 0.94082 0.89875 0.56876 0.0
C31 C 0.8229 0.83039 0.55004 0.0
O32 O 0.8775 0.80805 0.59929 0.0
Co33 Co 0.78802 0.88919 0.59515 0.0
O34 O 0.80945 0.78952 0.61152 0.0
C35 C 0.85205 0.01498 0.61084 0.0
C36 C 0.93209 0.9489 0.55092 0.0
C37 C 0.84994 0.77071 0.61217 0.0
O38 O 0.88102 0.98214 0.59779 0.0
O39 O 0.81243 0.98984 0.61079 0.0
O40 O 0.86366 0.81124 0.54768 0.0
O41 O 0.81681 0.88994 0.56456 0.0
Co42 Co 0.87883 0.89044 0.21689 0.0
O43 O 0.86239 0.96347 0.24224 0.0
O44 O 0.81565 0.89071 0.21936 0.0
C45 C 0.9342 0.83104 0.23981 0.0
O46 O 0.88284 0.80579 0.18994 0.0
Co47 Co 0.97004 0.89662 0.19564 0.0
O48 O 0.95228 0.79506 0.17911 0.0
C49 C 0.90312 0.0154 0.17887 0.0
C50 C 0.82208 0.9413 0.23731 0.0
C51 C 0.91251 0.77166 0.1777 0.0
O52 O 0.87478 0.97933 0.19156 0.0
O53 O 0.94362 0.99495 0.17951 0.0
O54 O 0.89375 0.80892 0.2416 0.0
O55 O 0.93959 0.89187 0.22566 0.0
Co56 Co 0.13324 0.60938 0.96814 0.0
O57 O 0.11726 0.53633 0.99361 0.0
O58 O 0.07011 0.60706 0.97034 0.0
C59 C 0.18781 0.67076 0.99124 0.0
O60 O 0.13645 0.69356 0.94097 0.0
Co61 Co 0.22496 0.60761 0.94735 0.0
O62 O 0.20564 0.70675 0.92996 0.0
C63 C 0.16011 0.48431 0.93088 0.0
C64 C 0.07678 0.55712 0.98843 0.0
C65 C 0.1655 0.72801 0.92839 0.0
O66 O 0.13062 0.51954 0.94301 0.0
O67 O 0.20019 0.50723 0.93179 0.0
O68 O 0.14713 0.692 0.9928 0.0
O69 O 0.19383 0.61022 0.97711 0.0
Co70 Co 0.12892 0.60856 0.32142 0.0
O71 O 0.14317 0.53414 0.29613 0.0
O72 O 0.19223 0.60174 0.319 0.0
C73 C 0.07601 0.67356 0.29811 0.0
O74 O 0.1264 0.69356 0.34849 0.0
Co75 Co 0.0366 0.60946 0.34148 0.0
O76 O 0.05642 0.70981 0.35794 0.0
C77 C 0.1004 0.48584 0.35906 0.0
C78 C 0.18408 0.55198 0.30096 0.0
C79 C 0.09667 0.73011 0.36013 0.0
O80 O 0.13006 0.51919 0.34665 0.0
O81 O 0.06048 0.50979 0.35797 0.0
O82 O 0.11713 0.69154 0.2968 0.0
O83 O 0.06838 0.61306 0.312 0.0
Co84 Co 0.88315 0.3911 0.0707 0.0
O85 O 0.89755 0.46472 0.04527 0.0
O86 O 0.94644 0.39576 0.06787 0.0
C87 C 0.82924 0.32731 0.04793 0.0
O88 O 0.88024 0.30668 0.09785 0.0
Co89 Co 0.79197 0.39605 0.09172 0.0
O90 O 0.81042 0.29458 0.10804 0.0
C91 C 0.85792 0.51571 0.10875 0.0
C92 C 0.93838 0.44587 0.0499 0.0
C93 C 0.85032 0.27188 0.10978 0.0
O94 O 0.88609 0.48044 0.09581 0.0
O95 O 0.81757 0.49444 0.10833 0.0
O96 O 0.87016 0.30827 0.04634 0.0
O97 O 0.82233 0.38867 0.06169 0.0
Co98 Co 0.8808 0.39352 0.71905 0.0
O99 O 0.86736 0.46872 0.74441 0.0
O100 O 0.81787 0.39903 0.72244 0.0
C101 C 0.93577 0.33125 0.7416 0.0
O102 O 0.88145 0.3078 0.69224 0.0
Co103 Co 0.97084 0.38898 0.69643 0.0
O104 O 0.94951 0.2894 0.67998 0.0
C105 C 0.90686 0.51467 0.68051 0.0
C106 C 0.82639 0.44974 0.74016 0.0
C107 C 0.90903 0.27054 0.67933 0.0
O108 O 0.8778 0.48186 0.69348 0.0
O109 O 0.94652 0.4896 0.68069 0.0
O110 O 0.89503 0.3119 0.74392 0.0
O111 O 0.9418 0.39043 0.72694 0.0
Co112 Co 0.63067 0.11008 0.96802 0.0
O113 O 0.61707 0.03662 0.99367 0.0
O114 O 0.56767 0.1073 0.97198 0.0
C115 C 0.68661 0.17121 0.98998 0.0
O116 O 0.63278 0.19458 0.94079 0.0
Co117 Co 0.72073 0.10331 0.94544 0.0
O118 O 0.7018 0.20443 0.92909 0.0
C119 C 0.65318 0.98466 0.92967 0.0
C120 C 0.57626 0.05669 0.98975 0.0
C121 C 0.66204 0.22799 0.92805 0.0
O122 O 0.62562 0.0209 0.94281 0.0
O123 O 0.69363 0.005 0.92965 0.0
O124 O 0.64617 0.1923 0.9924 0.0
O125 O 0.69169 0.11018 0.97586 0.0
Co126 Co 0.6308 0.10626 0.32149 0.0
O127 O 0.64371 0.03162 0.29587 0.0
O128 O 0.69365 0.10047 0.31776 0.0
C129 C 0.57566 0.1695 0.29929 0.0
O130 O 0.63058 0.19148 0.3485 0.0
Co131 Co 0.54083 0.11033 0.34431 0.0
O132 O 0.56244 0.20979 0.36068 0.0
C133 C 0.60478 0.98391 0.3597 0.0
C134 C 0.68475 0.05031 0.29994 0.0
C135 C 0.60293 0.22868 0.36138 0.0
O136 O 0.63392 0.01716 0.34687 0.0
O137 O 0.56514 0.00909 0.35959 0.0
O138 O 0.61638 0.18864 0.29683 0.0
O139 O 0.56976 0.10991 0.3138 0.0
Co140 Co 0.38336 0.89171 0.07265 0.0
O141 O 0.399 0.96431 0.04704 0.0
O142 O 0.44655 0.89483 0.07042 0.0
C143 C 0.32946 0.828 0.04983 0.0
O144 O 0.38003 0.80802 0.09998 0.0
Co145 Co 0.29227 0.89702 0.09353 0.0
O146 O 0.31041 0.7962 0.11038 0.0
C147 C 0.35805 0.01725 0.11037 0.0
C148 C 0.43957 0.9444 0.05224 0.0
C149 C 0.35032 0.77358 0.11211 0.0
O150 O 0.38627 0.98172 0.09753 0.0
O151 O 0.31772 0.99583 0.10998 0.0
O152 O 0.37037 0.80843 0.04849 0.0
O153 O 0.3225 0.8898 0.06341 0.0
Co154 Co 0.37848 0.88752 0.71707 0.0
O155 O 0.3633 0.96035 0.74278 0.0
O156 O 0.31545 0.89118 0.71951 0.0
C157 C 0.43259 0.82343 0.73962 0.0
O158 O 0.38057 0.80396 0.68981 0.0
Co159 Co 0.46836 0.88828 0.69501 0.0
O160 O 0.44894 0.78862 0.67782 0.0
C161 C 0.40336 0.01082 0.67867 0.0
C162 C 0.32263 0.94062 0.73768 0.0
C163 C 0.40867 0.76838 0.67688 0.0
O164 O 0.37545 0.97721 0.69214 0.0
O165 O 0.44331 0.98746 0.67846 0.0
O166 O 0.39166 0.80437 0.74123 0.0
O167 O 0.4396 0.88459 0.72577 0.0
Co168 Co 0.62934 0.60619 0.46798 0.0
O169 O 0.6137 0.53248 0.49342 0.0
O170 O 0.56619 0.60068 0.46965 0.0
C171 C 0.68208 0.67123 0.49134 0.0
O172 O 0.63166 0.69047 0.44088 0.0
Co173 Co 0.72073 0.6108 0.44733 0.0
O174 O 0.70046 0.70969 0.43003 0.0
C175 C 0.6582 0.48446 0.43023 0.0
C176 C 0.57303 0.55147 0.4879 0.0
C177 C 0.65987 0.72786 0.42847 0.0
O178 O 0.62852 0.51662 0.4429 0.0
O179 O 0.69775 0.51024 0.43087 0.0
O180 O 0.6409 0.6893 0.49249 0.0
O181 O 0.69006 0.61092 0.47739 0.0
Co182 Co 0.63043 0.61091 0.82168 0.0
O183 O 0.64722 0.53824 0.79631 0.0
O184 O 0.6936 0.61128 0.81934 0.0
C185 C 0.57491 0.66996 0.79876 0.0
O186 O 0.62619 0.69521 0.84868 0.0
Co187 Co 0.53954 0.60396 0.84308 0.0
O188 O 0.55696 0.7053 0.85985 0.0
C189 C 0.60669 0.48544 0.8597 0.0
C190 C 0.68747 0.56059 0.8014 0.0
C191 C 0.59668 0.72892 0.86112 0.0
O192 O 0.63476 0.5218 0.84692 0.0
O193 O 0.56621 0.5059 0.85931 0.0
O194 O 0.61531 0.69251 0.79702 0.0
O195 O 0.56965 0.609 0.8129 0.0
Co196 Co 0.37924 0.38754 0.57065 0.0
O197 O 0.3936 0.46157 0.54524 0.0
O198 O 0.44241 0.39092 0.56735 0.0
C199 C 0.32386 0.32676 0.54793 0.0
O200 O 0.37689 0.30229 0.59765 0.0
Co201 Co 0.28791 0.38941 0.59221 0.0
O202 O 0.30753 0.28858 0.60846 0.0
C203 C 0.35339 0.51226 0.60825 0.0
C204 C 0.43436 0.44149 0.54952 0.0
C205 C 0.3476 0.26685 0.60988 0.0
O206 O 0.38268 0.47676 0.59603 0.0
O207 O 0.31327 0.48962 0.6075 0.0
O208 O 0.36441 0.30567 0.54583 0.0
O209 O 0.31846 0.3868 0.56233 0.0
Co210 Co 0.37909 0.39131 0.21875 0.0
O211 O 0.36287 0.46344 0.24439 0.0
O212 O 0.31589 0.39345 0.22082 0.0
C213 C 0.43314 0.32806 0.24165 0.0
O214 O 0.38278 0.30789 0.19142 0.0
Co215 Co 0.47027 0.39691 0.19798 0.0
O216 O 0.45239 0.29615 0.18102 0.0
C217 C 0.40436 0.51707 0.18109 0.0
C218 C 0.32243 0.44275 0.23909 0.0
C219 C 0.41249 0.27353 0.17927 0.0
O220 O 0.37608 0.48152 0.1939 0.0
O221 O 0.4447 0.49566 0.18153 0.0
O222 O 0.39228 0.30802 0.24291 0.0
O223 O 0.43994 0.38991 0.22807 0.0
C224 C 0.29447 0.22405 0.51763 0.0
C225 C 0.28662 0.28763 0.53373 0.0
C226 C 0.26002 0.18767 0.50346 0.0
C227 C 0.21629 0.21336 0.50479 0.0
H228 H 0.32754 0.20218 0.51586 0.0
H229 H 0.26781 0.13882 0.49143 0.0
S230 S 0.178 0.37796 0.54399 0.0
N231 N 0.23159 0.37487 0.55004 0.0
N232 N 0.16715 0.30691 0.52355 0.0
C233 C 0.208 0.27703 0.52079 0.0
C234 C 0.24303 0.31396 0.53522 0.0
C235 C 0.01055 0.954 0.5392 0.0
C236 C 0.96662 0.97875 0.53499 0.0
C237 C 0.04332 0.97856 0.52384 0.0
C238 C 0.03367 0.02888 0.50353 0.0
H239 H 0.0198 0.91498 0.55446 0.0
H240 H 0.0766 0.95804 0.52805 0.0
S241 S 0.92374 0.11063 0.48424 0.0
N242 N 0.9153 0.05673 0.50879 0.0
N243 N 0.97664 0.10245 0.48005 0.0
C244 C 0.98986 0.05399 0.49906 0.0
C245 C 0.95648 0.02914 0.51473 0.0
C246 C 0.29693 0.01927 0.77329 0.0
C247 C 0.28688 0.96957 0.75288 0.0
C248 C 0.26431 0.04497 0.78858 0.0
C249 C 0.22015 0.02209 0.78417 0.0
H250 H 0.3304 0.03838 0.77763 0.0
H251 H 0.27387 0.08337 0.80394 0.0
S252 S 0.1762 0.89259 0.7331 0.0
N253 N 0.22925 0.89864 0.7291 0.0
N254 N 0.16814 0.94654 0.7577 0.0
C255 C 0.2096 0.97236 0.76381 0.0
C256 C 0.24283 0.94631 0.74822 0.0
C257 C 0.99808 0.19142 0.78655 0.0
C258 C 0.04194 0.21662 0.78557 0.0
C259 C 0.96409 0.22825 0.77212 0.0
C260 C 0.97255 0.29174 0.7561 0.0
H261 H 0.98986 0.14251 0.79844 0.0
H262 H 0.93089 0.20669 0.77359 0.0
S263 S 0.08169 0.38133 0.74691 0.0
N264 N 0.09182 0.31005 0.76736 0.0
N265 N 0.02823 0.37865 0.74036 0.0
C266 C 0.01625 0.3177 0.75501 0.0
C267 C 0.05081 0.28041 0.76972 0.0
C268 C 0.79514 0.72746 0.51946 0.0
C269 C 0.78623 0.79005 0.5357 0.0
C270 C 0.76141 0.69001 0.50506 0.0
C271 C 0.71731 0.71356 0.50627 0.0
H272 H 0.82853 0.70721 0.51774 0.0
H273 H 0.77008 0.64204 0.49292 0.0
S274 S 0.67622 0.87457 0.54584 0.0
N275 N 0.72979 0.87391 0.5521 0.0
N276 N 0.66659 0.80385 0.52513 0.0
C277 C 0.7079 0.77613 0.52243 0.0
C278 C 0.74225 0.81419 0.53712 0.0
C279 C 0.7629 0.04602 0.28782 0.0
C280 C 0.71917 0.01995 0.28401 0.0
C281 C 0.79558 0.02114 0.27246 0.0
C282 C 0.78606 0.96904 0.25255 0.0
H283 H 0.77208 0.08645 0.30275 0.0
H284 H 0.8287 0.04289 0.27634 0.0
S285 S 0.67669 0.88289 0.23452 0.0
N286 N 0.66814 0.93856 0.2587 0.0
N287 N 0.72941 0.8921 0.22995 0.0
C288 C 0.74246 0.94244 0.24851 0.0
C289 C 0.70914 0.96772 0.26418 0.0
C290 C 0.96269 0.72818 0.27015 0.0
C291 C 0.97116 0.79172 0.25417 0.0
C292 C 0.99664 0.69109 0.28447 0.0
C293 C 0.04054 0.7159 0.2834 0.0
H294 H 0.92948 0.70681 0.27172 0.0
H295 H 0.98832 0.6423 0.29638 0.0
S296 S 0.08047 0.8799 0.24459 0.0
N297 N 0.02693 0.87802 0.23823 0.0
N298 N 0.09061 0.8085 0.26502 0.0
C299 C 0.04951 0.77951 0.26753 0.0
C300 C 0.01491 0.81728 0.25295 0.0
C301 C 0.24995 0.81207 0.03578 0.0
C302 C 0.29376 0.78616 0.03512 0.0
C303 C 0.21602 0.77497 0.02138 0.0
C304 C 0.2245 0.71047 1.00574 0.0
H305 H 0.24172 0.86166 0.04742 0.0
H306 H 0.18286 0.79708 0.0226 0.0
S307 S 0.33356 0.61906 0.99738 0.0
N308 N 0.34364 0.69125 1.01754 0.0
N309 N 0.28017 0.62204 0.99063 0.0
C310 C 0.26816 0.68387 1.00495 0.0
C311 C 0.30266 0.72148 0.01961 0.0
C312 C 0.05001 0.47634 0.02337 0.0
C313 C 0.0407 0.52865 1.00348 0.0
C314 C 0.01704 0.4508 0.03847 0.0
C315 C 0.97329 0.47652 0.03438 0.0
H316 H 0.08316 0.45489 0.02742 0.0
H317 H 0.02598 0.4102 0.05339 0.0
S318 S 0.93141 0.61433 0.98489 0.0
N319 N 0.98426 0.60556 0.98067 0.0
N320 N 0.92255 0.55811 1.00889 0.0
C321 C 0.96353 0.5291 1.01459 0.0
C322 C 0.99709 0.55492 0.9992 0.0
C323 C 0.29557 0.52273 0.27416 0.0
C324 C 0.28632 0.47051 0.25424 0.0
C325 C 0.26265 0.54763 0.28939 0.0
C326 C 0.21899 0.52135 0.28541 0.0
H327 H 0.32863 0.54466 0.27812 0.0
H328 H 0.27154 0.58833 0.30429 0.0
S329 S 0.17734 0.38325 0.23596 0.0
N330 N 0.23008 0.39289 0.23156 0.0
N331 N 0.16843 0.43915 0.26003 0.0
C332 C 0.2093 0.46877 0.26561 0.0
C333 C 0.24283 0.44359 0.25008 0.0
C334 C 0.71554 0.27426 0.02016 0.0
C335 C 0.72375 0.21065 1.00413 0.0
C336 C 0.74967 0.311 0.03443 0.0
C337 C 0.79346 0.28568 0.03327 0.0
H338 H 0.68239 0.29588 0.02182 0.0
H339 H 0.74158 0.35982 0.0464 0.0
S340 S 0.8327 0.12141 0.99424 0.0
N341 N 0.77914 0.12393 0.98799 0.0
N342 N 0.84313 0.19257 1.01471 0.0
C343 C 0.80215 0.22204 1.01732 0.0
C344 C 0.76739 0.18472 1.00277 0.0
C345 C 0.71471 0.48049 0.76651 0.0
C346 C 0.72382 0.53256 0.78646 0.0
C347 C 0.74781 0.45507 0.7515 0.0
C348 C 0.79158 0.48057 0.75573 0.0
H349 H 0.6816 0.45915 0.76231 0.0
H350 H 0.73894 0.4147 0.73652 0.0
S351 S 0.83309 0.61719 0.80557 0.0
N352 N 0.78014 0.60878 0.80959 0.0
N353 N 0.84218 0.56132 0.78151 0.0
C354 C 0.8012 0.53277 0.77562 0.0
C355 C 0.76745 0.55859 0.79093 0.0
C356 C 0.49792 0.05054 1.00166 0.0
C357 C 0.54193 0.02636 1.00572 0.0
C358 C 0.46536 0.02464 1.01697 0.0
C359 C 0.47534 0.9735 0.03707 0.0
H360 H 0.48842 0.08998 0.98654 0.0
H361 H 0.43198 0.04475 1.01287 0.0
S362 S 0.58566 0.89296 0.05593 0.0
N363 N 0.59374 0.94812 0.0316 0.0
N364 N 0.53274 0.89998 0.06021 0.0
C365 C 0.51924 0.94906 0.04141 0.0
C366 C 0.5524 0.97525 0.0258 0.0
C367 C 0.51292 0.31063 0.25492 0.0
C368 C 0.46899 0.28626 0.25628 0.0
C369 C 0.54707 0.2732 0.26906 0.0
C370 C 0.53872 0.20995 0.28518 0.0
H371 H 0.52109 0.35911 0.24285 0.0
H372 H 0.58033 0.29398 0.26724 0.0
S373 S 0.42936 0.12333 0.29564 0.0
N374 N 0.41908 0.1945 0.27517 0.0
N375 N 0.48299 0.12472 0.30163 0.0
C376 C 0.49492 0.1851 0.28675 0.0
C377 C 0.46018 0.22301 0.27233 0.0
C378 C 0.5121 0.80813 0.7536 0.0
C379 C 0.46835 0.78225 0.75449 0.0
C380 C 0.54614 0.77202 0.76814 0.0
C381 C 0.5379 0.70847 0.78418 0.0
H382 H 0.5202 0.85699 0.74165 0.0
H383 H 0.57923 0.79415 0.7667 0.0
S384 S 0.42908 0.61773 0.79338 0.0
N385 N 0.41873 0.68854 0.77279 0.0
N386 N 0.48252 0.62109 0.79998 0.0
C387 C 0.49431 0.6819 0.78523 0.0
C388 C 0.45965 0.71858 0.77042 0.0
C389 C 0.51311 0.44622 0.53812 0.0
C390 C 0.46926 0.47132 0.53382 0.0
C391 C 0.54616 0.47139 0.523 0.0
C392 C 0.53685 0.52261 0.50285 0.0
H393 H 0.52208 0.40659 0.55328 0.0
H394 H 0.57938 0.45067 0.52728 0.0
S395 S 0.42728 0.60561 0.48344 0.0
N396 N 0.41842 0.55064 0.50771 0.0
N397 N 0.48024 0.59736 0.47945 0.0
C398 C 0.49312 0.54796 0.49829 0.0
C399 C 0.45949 0.52257 0.51371 0.0
C400 C 0.15401 0.81668 0.38233 0.0
C401 C 0.10954 0.79619 0.37765 0.0
C402 C 0.1669 0.87703 0.39919 0.0
C403 C 0.13597 0.91977 0.41226 0.0
H404 H 0.17931 0.78575 0.37297 0.0
H405 H 0.20159 0.89021 0.40193 0.0
S406 S 0.01504 0.89072 0.40665 0.0
N407 N 0.03425 0.82493 0.38752 0.0
N408 N 0.05851 0.93736 0.41906 0.0
C409 C 0.09134 0.89991 0.4078 0.0
C410 C 0.07816 0.83865 0.39057 0.0
C411 C 0.17016 0.33025 0.39487 0.0
C412 C 0.14057 0.29473 0.41048 0.0
C413 C 0.15683 0.39079 0.37819 0.0
C414 C 0.11323 0.41889 0.37627 0.0
H415 H 0.20412 0.31117 0.39542 0.0
H416 H 0.18116 0.41589 0.36679 0.0
S417 S 0.02245 0.34633 0.41301 0.0
N418 N 0.06536 0.29274 0.42288 0.0
N419 N 0.04027 0.40583 0.3917 0.0
C420 C 0.08317 0.38375 0.39175 0.0
C421 C 0.09681 0.32209 0.40877 0.0
C422 C 0.0891 0.33803 0.89221 0.0
C423 C 0.11982 0.29295 0.87968 0.0
C424 C 0.10236 0.39835 0.90897 0.0
C425 C 0.14702 0.41664 0.91404 0.0
H426 H 0.05425 0.32709 0.88902 0.0
H427 H 0.07719 0.4315 0.91777 0.0
S428 S 0.24108 0.31417 0.88701 0.0
N429 N 0.19727 0.2697 0.87415 0.0
N430 N 0.22226 0.38233 0.90553 0.0
C431 C 0.17821 0.37133 0.90186 0.0
C432 C 0.16464 0.30994 0.88474 0.0
C433 C 0.10891 0.82495 0.91044 0.0
C434 C 0.15165 0.79301 0.91072 0.0
C435 C 0.09499 0.88554 0.8939 0.0
C436 C 0.12308 0.9171 0.87676 0.0
H437 H 0.08589 0.80346 0.92324 0.0
H438 H 0.06189 0.90827 0.89482 0.0
S439 S 0.23787 0.85186 0.86891 0.0
N440 N 0.22172 0.7963 0.89161 0.0
N441 N 0.19559 0.90944 0.86068 0.0
C442 C 0.16578 0.88492 0.87657 0.0
C443 C 0.18001 0.82331 0.89347 0.0
C444 C 0.92369 0.16126 0.64914 0.0
C445 C 0.89328 0.20551 0.66214 0.0
C446 C 0.9101 0.10125 0.63235 0.0
C447 C 0.86541 0.08236 0.62773 0.0
H448 H 0.95856 0.17272 0.65193 0.0
H449 H 0.93506 0.06878 0.62316 0.0
S450 S 0.77202 0.18232 0.65614 0.0
N451 N 0.81602 0.22717 0.66864 0.0
N452 N 0.79045 0.11505 0.6372 0.0
C453 C 0.83451 0.12671 0.64041 0.0
C454 C 0.84841 0.18785 0.65755 0.0
C455 C 0.84892 0.60172 0.65922 0.0
C456 C 0.89356 0.58203 0.66359 0.0
C457 C 0.83533 0.6619 0.64249 0.0
C458 C 0.8657 0.70556 0.62931 0.0
H459 H 0.82397 0.5698 0.66857 0.0
H460 H 0.8005 0.674 0.6399 0.0
S461 S 0.98686 0.67994 0.63455 0.0
N462 N 0.96846 0.61315 0.65364 0.0
N463 N 0.94289 0.72564 0.62232 0.0
C464 C 0.91054 0.68705 0.63363 0.0
C465 C 0.92443 0.62571 0.65071 0.0
C466 C 0.8421 0.62498 0.13877 0.0
C467 C 0.87291 0.58168 0.1258 0.0
C468 C 0.85516 0.6852 0.15561 0.0
C469 C 0.89971 0.70516 0.16035 0.0
H470 H 0.80735 0.61242 0.13596 0.0
H471 H 0.82991 0.71667 0.16485 0.0
S472 S 0.994 0.60872 0.1318 0.0
N473 N 0.95041 0.56267 0.11927 0.0
N474 N 0.97494 0.67509 0.15081 0.0
C475 C 0.93099 0.66207 0.1476 0.0
C476 C 0.91765 0.60079 0.13039 0.0
C477 C 0.91972 0.12601 0.14953 0.0
C478 C 0.88845 0.08155 0.16183 0.0
C479 C 0.90716 0.18634 0.13263 0.0
C480 C 0.86271 0.20528 0.12716 0.0
H481 H 0.95446 0.1143 0.15292 0.0
H482 H 0.93273 0.21871 0.12393 0.0
S483 S 0.7674 0.1056 0.15377 0.0
N484 N 0.81069 0.06033 0.16695 0.0
N485 N 0.78703 0.17298 0.13529 0.0
C486 C 0.83096 0.16105 0.13925 0.0
C487 C 0.84381 0.09964 0.15652 0.0
C488 C 0.65431 0.81604 0.88254 0.0
C489 C 0.60977 0.79514 0.8785 0.0
C490 C 0.66783 0.87615 0.89928 0.0
C491 C 0.63753 0.91855 0.91285 0.0
H492 H 0.67925 0.78548 0.87279 0.0
H493 H 0.70258 0.88942 0.90148 0.0
S494 S 0.51666 0.88822 0.90904 0.0
N495 N 0.53506 0.82281 0.88951 0.0
N496 N 0.56049 0.93529 0.92087 0.0
C497 C 0.5928 0.89836 0.90904 0.0
C498 C 0.57896 0.83706 0.89193 0.0
C499 C 0.60554 0.32286 0.90888 0.0
C500 C 0.64901 0.29427 0.91063 0.0
C501 C 0.59226 0.38362 0.89227 0.0
C502 C 0.62177 0.41891 0.87654 0.0
H503 H 0.58133 0.29818 0.92044 0.0
H504 H 0.55841 0.40326 0.89194 0.0
S505 S 0.73945 0.36524 0.87332 0.0
N506 N 0.72172 0.30608 0.89474 0.0
N507 N 0.69667 0.41954 0.86368 0.0
C508 C 0.66535 0.39073 0.87798 0.0
C509 C 0.67895 0.32885 0.89493 0.0
C510 C 0.58791 0.33566 0.39219 0.0
C511 C 0.61844 0.29383 0.3786 0.0
C512 C 0.60112 0.3957 0.40902 0.0
C513 C 0.64556 0.41721 0.41312 0.0
H514 H 0.5532 0.32217 0.38987 0.0
H515 H 0.576 0.42601 0.41869 0.0
S516 S 0.7392 0.32505 0.38281 0.0
N517 N 0.69558 0.2777 0.37083 0.0
N518 N 0.72047 0.39015 0.40234 0.0
C519 C 0.67662 0.37553 0.39979 0.0
C520 C 0.66309 0.31421 0.3826 0.0
C521 C 0.67557 0.83744 0.39852 0.0
C522 C 0.64471 0.79245 0.41097 0.0
C523 C 0.66244 0.89767 0.38168 0.0
C524 C 0.61782 0.91599 0.37646 0.0
H525 H 0.71039 0.82651 0.40186 0.0
H526 H 0.68768 0.93091 0.37298 0.0
S527 S 0.52344 0.81344 0.40306 0.0
N528 N 0.56713 0.76914 0.41614 0.0
N529 N 0.54248 0.88151 0.38461 0.0
C530 C 0.58651 0.87063 0.3885 0.0
C531 C 0.5999 0.80933 0.40568 0.0
C532 C 0.35519 0.18693 0.15718 0.0
C533 C 0.3997 0.20741 0.16177 0.0
C534 C 0.34216 0.12656 0.14038 0.0
C535 C 0.37297 0.08362 0.1273 0.0
H536 H 0.32995 0.21796 0.16655 0.0
H537 H 0.30745 0.1135 0.13772 0.0
S538 S 0.49395 0.11256 0.13272 0.0
N539 N 0.47488 0.17856 0.15184 0.0
N540 N 0.45041 0.06587 0.12039 0.0
C541 C 0.41765 0.10344 0.13168 0.0
C542 C 0.43097 0.16486 0.14885 0.0
C543 C 0.42043 0.62635 0.15111 0.0
C544 C 0.38954 0.5835 0.16414 0.0
C545 C 0.40752 0.68676 0.13428 0.0
C546 C 0.36305 0.70735 0.12961 0.0
H547 H 0.45514 0.61321 0.15383 0.0
H548 H 0.43283 0.71773 0.12495 0.0
S549 S 0.26859 0.6127 0.15849 0.0
N550 N 0.31205 0.56593 0.1709 0.0
N551 N 0.28778 0.67863 0.1394 0.0
C552 C 0.33168 0.66486 0.14248 0.0
C553 C 0.34488 0.60341 0.15967 0.0
C554 C 0.42446 0.6576 0.64734 0.0
C555 C 0.39359 0.70363 0.65945 0.0
C556 C 0.41129 0.59724 0.63054 0.0
C557 C 0.36662 0.58003 0.62502 0.0
H558 H 0.4593 0.66775 0.65093 0.0
H559 H 0.43651 0.56315 0.62209 0.0
S560 S 0.27228 0.68597 0.65065 0.0
N561 N 0.31603 0.72931 0.66396 0.0
N562 N 0.29127 0.61688 0.63251 0.0
C563 C 0.33532 0.62655 0.63672 0.0
C564 C 0.34877 0.68783 0.65387 0.0
C565 C 0.40544 0.17947 0.6314 0.0
C566 C 0.36092 0.20055 0.62724 0.0
C567 C 0.4188 0.11917 0.64819 0.0
C568 C 0.3883 0.07707 0.66172 0.0
H569 H 0.43043 0.20998 0.62169 0.0
H570 H 0.4535 0.10556 0.65053 0.0
S571 S 0.26741 0.10765 0.65752 0.0
N572 N 0.28606 0.17291 0.63805 0.0
N573 N 0.31115 0.06063 0.66947 0.0
C574 C 0.34362 0.09746 0.65775 0.0
C575 C 0.32997 0.15865 0.64059 0.0
loop_
_geom_bond_atom_site_label_1
_geom_bond_atom_site_label_2
_geom_bond_distance
_geom_bond_site_symmetry_2
_ccdc_geom_bond_type
Co0 O1 2.216 . S
Co0 O2 2.091 . S
Co0 O4 2.004 . S
Co0 O10 2.021 . S
Co0 O12 2.137 . S
Co0 O13 2.244 . S
O1 Co0 2.216 . S
O1 C8 1.247 . S
O2 Co0 2.091 . S
O2 C8 1.261 . S
C3 O12 1.247 . S
C3 O13 1.272 . S
O4 Co0 2.004 . S
O4 C9 1.259 . S
Co5 O6 2.061 . S
Co5 O11 2.052 . S
Co5 O13 2.135 . S
O6 Co5 2.061 . S
O6 C9 1.235 . S
C7 O10 1.238 . S
C7 O11 1.241 . S
C8 O1 1.247 . S
C8 O2 1.261 . S
C9 O4 1.259 . S
C9 O6 1.235 . S
O10 Co0 2.021 . S
O10 C7 1.238 . S
O11 Co5 2.052 . S
O11 C7 1.241 . S
O12 Co0 2.137 . S
O12 C3 1.247 . S
O13 Co0 2.244 . S
O13 C3 1.272 . S
O13 Co5 2.135 . S
Co14 O15 2.216 . S
Co14 O16 2.091 . S
Co14 O18 2.004 . S
Co14 O24 2.021 . S
Co14 O26 2.137 . S
Co14 O27 2.244 . S
O15 Co14 2.216 . S
O15 C22 1.247 . S
O16 Co14 2.091 . S
O16 C22 1.261 . S
C17 O26 1.247 . S
C17 O27 1.272 . S
O18 Co14 2.004 . S
O18 C23 1.259 . S
Co19 O20 2.061 . S
Co19 O25 2.052 . S
Co19 O27 2.135 . S
O20 Co19 2.061 . S
O20 C23 1.235 . S
C21 O24 1.238 . S
C21 O25 1.241 . S
C22 O15 1.247 . S
C22 O16 1.261 . S
C23 O18 1.259 . S
C23 O20 1.235 . S
O24 Co14 2.021 . S
O24 C21 1.238 . S
O25 Co19 2.052 . S
O25 C21 1.241 . S
O26 Co14 2.137 . S
O26 C17 1.247 . S
O27 Co14 2.244 . S
O27 C17 1.272 . S
O27 Co19 2.135 . S
Co28 O29 2.216 . S
Co28 O30 2.091 . S
Co28 O32 2.004 . S
Co28 O38 2.021 . S
Co28 O40 2.137 . S
Co28 O41 2.244 . S
O29 Co28 2.216 . S
O29 C36 1.247 . S
O30 Co28 2.091 . S
O30 C36 1.261 . S
C31 O40 1.247 . S
C31 O41 1.272 . S
O32 Co28 2.004 . S
O32 C37 1.259 . S
Co33 O34 2.061 . S
Co33 O39 2.052 . S
Co33 O41 2.135 . S
O34 Co33 2.061 . S
O34 C37 1.235 . S
C35 O38 1.238 . S
C35 O39 1.241 . S
C36 O29 1.247 . S
C36 O30 1.261 . S
C37 O32 1.259 . S
C37 O34 1.235 . S
O38 Co28 2.021 . S
O38 C35 1.238 . S
O39 Co33 2.052 . S
O39 C35 1.241 . S
O40 Co28 2.137 . S
O40 C31 1.247 . S
O41 Co28 2.244 . S
O41 C31 1.272 . S
O41 Co33 2.135 . S
Co42 O43 2.216 . S
Co42 O44 2.091 . S
Co42 O46 2.004 . S
Co42 O52 2.021 . S
Co42 O54 2.137 . S
Co42 O55 2.244 . S
O43 Co42 2.216 . S
O43 C50 1.247 . S
O44 Co42 2.091 . S
O44 C50 1.261 . S
C45 O54 1.247 . S
C45 O55 1.272 . S
O46 Co42 2.004 . S
O46 C51 1.259 . S
Co47 O48 2.061 . S
Co47 O53 2.052 . S
Co47 O55 2.135 . S
O48 Co47 2.061 . S
O48 C51 1.235 . S
C49 O52 1.238 . S
C49 O53 1.241 . S
C50 O43 1.247 . S
C50 O44 1.261 . S
C51 O46 1.259 . S
C51 O48 1.235 . S
O52 Co42 2.021 . S
O52 C49 1.238 . S
O53 Co47 2.052 . S
O53 C49 1.241 . S
O54 Co42 2.137 . S
O54 C45 1.247 . S
O55 Co42 2.244 . S
O55 C45 1.272 . S
O55 Co47 2.135 . S
Co56 O57 2.216 . S
Co56 O58 2.091 . S
Co56 O60 2.004 . S
Co56 O66 2.021 . S
Co56 O68 2.137 . S
Co56 O69 2.244 . S
O57 Co56 2.216 . S
O57 C64 1.247 . S
O58 Co56 2.091 . S
O58 C64 1.261 . S
C59 O68 1.247 . S
C59 O69 1.272 . S
O60 Co56 2.004 . S
O60 C65 1.259 . S
Co61 O62 2.061 . S
Co61 O67 2.052 . S
Co61 O69 2.135 . S
O62 Co61 2.061 . S
O62 C65 1.235 . S
C63 O66 1.238 . S
C63 O67 1.241 . S
C64 O57 1.247 . S
C64 O58 1.261 . S
C65 O60 1.259 . S
C65 O62 1.235 . S
O66 Co56 2.021 . S
O66 C63 1.238 . S
O67 Co61 2.052 . S
O67 C63 1.241 . S
O68 Co56 2.137 . S
O68 C59 1.247 . S
O69 Co56 2.244 . S
O69 C59 1.272 . S
O69 Co61 2.135 . S
Co70 O71 2.216 . S
Co70 O72 2.091 . S
Co70 O74 2.004 . S
Co70 O80 2.021 . S
Co70 O82 2.137 . S
Co70 O83 2.244 . S
O71 Co70 2.216 . S
O71 C78 1.247 . S
O72 Co70 2.091 . S
O72 C78 1.261 . S
C73 O82 1.247 . S
C73 O83 1.272 . S
O74 Co70 2.004 . S
O74 C79 1.259 . S
Co75 O76 2.061 . S
Co75 O81 2.052 . S
Co75 O83 2.135 . S
O76 Co75 2.061 . S
O76 C79 1.235 . S
C77 O80 1.238 . S
C77 O81 1.241 . S
C78 O71 1.247 . S
C78 O72 1.261 . S
C79 O74 1.259 . S
C79 O76 1.235 . S
O80 Co70 2.021 . S
O80 C77 1.238 . S
O81 Co75 2.052 . S
O81 C77 1.241 . S
O82 Co70 2.137 . S
O82 C73 1.247 . S
O83 Co70 2.244 . S
O83 C73 1.272 . S
O83 Co75 2.135 . S
Co84 O85 2.216 . S
Co84 O86 2.091 . S
Co84 O88 2.004 . S
Co84 O94 2.021 . S
Co84 O96 2.137 . S
Co84 O97 2.244 . S
O85 Co84 2.216 . S
O85 C92 1.247 . S
O86 Co84 2.091 . S
O86 C92 1.261 . S
C87 O96 1.247 . S
C87 O97 1.272 . S
O88 Co84 2.004 . S
O88 C93 1.259 . S
Co89 O90 2.061 . S
Co89 O95 2.052 . S
Co89 O97 2.135 . S
O90 Co89 2.061 . S
O90 C93 1.235 . S
C91 O94 1.238 . S
C91 O95 1.241 . S
C92 O85 1.247 . S
C92 O86 1.261 . S
C93 O88 1.259 . S
C93 O90 1.235 . S
O94 Co84 2.021 . S
O94 C91 1.238 . S
O95 Co89 2.052 . S
O95 C91 1.241 . S
O96 Co84 2.137 . S
O96 C87 1.247 . S
O97 Co84 2.244 . S
O97 C87 1.272 . S
O97 Co89 2.135 . S
Co98 O99 2.216 . S
Co98 O100 2.091 . S
Co98 O102 2.004 . S
Co98 O108 2.021 . S
Co98 O110 2.137 . S
Co98 O111 2.244 . S
O99 Co98 2.216 . S
O99 C106 1.247 . S
O100 Co98 2.091 . S
O100 C106 1.261 . S
C101 O110 1.247 . S
C101 O111 1.272 . S
O102 Co98 2.004 . S
O102 C107 1.259 . S
Co103 O104 2.061 . S
Co103 O109 2.052 . S
Co103 O111 2.135 . S
O104 Co103 2.061 . S
O104 C107 1.235 . S
C105 O108 1.238 . S
C105 O109 1.241 . S
C106 O99 1.247 . S
C106 O100 1.261 . S
C107 O102 1.259 . S
C107 O104 1.235 . S
O108 Co98 2.021 . S
O108 C105 1.238 . S
O109 Co103 2.052 . S
O109 C105 1.241 . S
O110 Co98 2.137 . S
O110 C101 1.247 . S
O111 Co98 2.244 . S
O111 C101 1.272 . S
O111 Co103 2.135 . S
Co112 O113 2.216 . S
Co112 O114 2.091 . S
Co112 O116 2.004 . S
Co112 O122 2.021 . S
Co112 O124 2.137 . S
Co112 O125 2.244 . S
O113 Co112 2.216 . S
O113 C120 1.247 . S
O114 Co112 2.091 . S
O114 C120 1.261 . S
C115 O124 1.247 . S
C115 O125 1.272 . S
O116 Co112 2.004 . S
O116 C121 1.259 . S
Co117 O118 2.061 . S
Co117 O123 2.052 . S
Co117 O125 2.135 . S
O118 Co117 2.061 . S
O118 C121 1.235 . S
C119 O122 1.238 . S
C119 O123 1.241 . S
C120 O113 1.247 . S
C120 O114 1.261 . S
C121 O116 1.259 . S
C121 O118 1.235 . S
O122 Co112 2.021 . S
O122 C119 1.238 . S
O123 Co117 2.052 . S
O123 C119 1.241 . S
O124 Co112 2.137 . S
O124 C115 1.247 . S
O125 Co112 2.244 . S
O125 C115 1.272 . S
O125 Co117 2.135 . S
Co126 O127 2.216 . S
Co126 O128 2.091 . S
Co126 O130 2.004 . S
Co126 O136 2.021 . S
Co126 O138 2.137 . S
Co126 O139 2.244 . S
O127 Co126 2.216 . S
O127 C134 1.247 . S
O128 Co126 2.091 . S
O128 C134 1.261 . S
C129 O138 1.247 . S
C129 O139 1.272 . S
O130 Co126 2.004 . S
O130 C135 1.259 . S
Co131 O132 2.061 . S
Co131 O137 2.052 . S
Co131 O139 2.135 . S
O132 Co131 2.061 . S
O132 C135 1.235 . S
C133 O136 1.238 . S
C133 O137 1.241 . S
C134 O127 1.247 . S
C134 O128 1.261 . S
C135 O130 1.259 . S
C135 O132 1.235 . S
O136 Co126 2.021 . S
O136 C133 1.238 . S
O137 Co131 2.052 . S
O137 C133 1.241 . S
O138 Co126 2.137 . S
O138 C129 1.247 . S
O139 Co126 2.244 . S
O139 C129 1.272 . S
O139 Co131 2.135 . S
Co140 O141 2.216 . S
Co140 O142 2.091 . S
Co140 O144 2.004 . S
Co140 O150 2.021 . S
Co140 O152 2.137 . S
Co140 O153 2.244 . S
O141 Co140 2.216 . S
O141 C148 1.247 . S
O142 Co140 2.091 . S
O142 C148 1.261 . S
C143 O152 1.247 . S
C143 O153 1.272 . S
O144 Co140 2.004 . S
O144 C149 1.259 . S
Co145 O146 2.061 . S
Co145 O151 2.052 . S
Co145 O153 2.135 . S
O146 Co145 2.061 . S
O146 C149 1.235 . S
C147 O150 1.238 . S
C147 O151 1.241 . S
C148 O141 1.247 . S
C148 O142 1.261 . S
C149 O144 1.259 . S
C149 O146 1.235 . S
O150 Co140 2.021 . S
O150 C147 1.238 . S
O151 Co145 2.052 . S
O151 C147 1.241 . S
O152 Co140 2.137 . S
O152 C143 1.247 . S
O153 Co140 2.244 . S
O153 C143 1.272 . S
O153 Co145 2.135 . S
Co154 O155 2.216 . S
Co154 O156 2.091 . S
Co154 O158 2.004 . S
Co154 O164 2.021 . S
Co154 O166 2.137 . S
Co154 O167 2.244 . S
O155 Co154 2.216 . S
O155 C162 1.247 . S
O156 Co154 2.091 . S
O156 C162 1.261 . S
C157 O166 1.247 . S
C157 O167 1.272 . S
O158 Co154 2.004 . S
O158 C163 1.259 . S
Co159 O160 2.061 . S
Co159 O165 2.052 . S
Co159 O167 2.135 . S
O160 Co159 2.061 . S
O160 C163 1.235 . S
C161 O164 1.238 . S
C161 O165 1.241 . S
C162 O155 1.247 . S
C162 O156 1.261 . S
C163 O158 1.259 . S
C163 O160 1.235 . S
O164 Co154 2.021 . S
O164 C161 1.238 . S
O165 Co159 2.052 . S
O165 C161 1.241 . S
O166 Co154 2.137 . S
O166 C157 1.247 . S
O167 Co154 2.244 . S
O167 C157 1.272 . S
O167 Co159 2.135 . S
Co168 O169 2.216 . S
Co168 O170 2.091 . S
Co168 O172 2.004 . S
Co168 O178 2.021 . S
Co168 O180 2.137 . S
Co168 O181 2.244 . S
O169 Co168 2.216 . S
O169 C176 1.247 . S
O170 Co168 2.091 . S
O170 C176 1.261 . S
C171 O180 1.247 . S
C171 O181 1.272 . S
O172 Co168 2.004 . S
O172 C177 1.259 . S
Co173 O174 2.061 . S
Co173 O179 2.052 . S
Co173 O181 2.135 . S
O174 Co173 2.061 . S
O174 C177 1.235 . S
C175 O178 1.238 . S
C175 O179 1.241 . S
C176 O169 1.247 . S
C176 O170 1.261 . S
C177 O172 1.259 . S
C177 O174 1.235 . S
O178 Co168 2.021 . S
O178 C175 1.238 . S
O179 Co173 2.052 . S
O179 C175 1.241 . S
O180 Co168 2.137 . S
O180 C171 1.247 . S
O181 Co168 2.244 . S
O181 C171 1.272 . S
O181 Co173 2.135 . S
Co182 O183 2.216 . S
Co182 O184 2.091 . S
Co182 O186 2.004 . S
Co182 O192 2.021 . S
Co182 O194 2.137 . S
Co182 O195 2.244 . S
O183 Co182 2.216 . S
O183 C190 1.247 . S
O184 Co182 2.091 . S
O184 C190 1.261 . S
C185 O194 1.247 . S
C185 O195 1.272 . S
O186 Co182 2.004 . S
O186 C191 1.259 . S
Co187 O188 2.061 . S
Co187 O193 2.052 . S
Co187 O195 2.135 . S
O188 Co187 2.061 . S
O188 C191 1.235 . S
C189 O192 1.238 . S
C189 O193 1.241 . S
C190 O183 1.247 . S
C190 O184 1.261 . S
C191 O186 1.259 . S
C191 O188 1.235 . S
O192 Co182 2.021 . S
O192 C189 1.238 . S
O193 Co187 2.052 . S
O193 C189 1.241 . S
O194 Co182 2.137 . S
O194 C185 1.247 . S
O195 Co182 2.244 . S
O195 C185 1.272 . S
O195 Co187 2.135 . S
Co196 O197 2.216 . S
Co196 O198 2.091 . S
Co196 O200 2.004 . S
Co196 O206 2.021 . S
Co196 O208 2.137 . S
Co196 O209 2.244 . S
O197 Co196 2.216 . S
O197 C204 1.247 . S
O198 Co196 2.091 . S
O198 C204 1.261 . S
C199 O208 1.247 . S
C199 O209 1.272 . S
O200 Co196 2.004 . S
O200 C205 1.259 . S
Co201 O202 2.061 . S
Co201 O207 2.052 . S
Co201 O209 2.135 . S
O202 Co201 2.061 . S
O202 C205 1.235 . S
C203 O206 1.238 . S
C203 O207 1.241 . S
C204 O197 1.247 . S
C204 O198 1.261 . S
C205 O200 1.259 . S
C205 O202 1.235 . S
O206 Co196 2.021 . S
O206 C203 1.238 . S
O207 Co201 2.052 . S
O207 C203 1.241 . S
O208 Co196 2.137 . S
O208 C199 1.247 . S
O209 Co196 2.244 . S
O209 C199 1.272 . S
O209 Co201 2.135 . S
Co210 O211 2.216 . S
Co210 O212 2.091 . S
Co210 O214 2.004 . S
Co210 O220 2.021 . S
Co210 O222 2.137 . S
Co210 O223 2.244 . S
O211 Co210 2.216 . S
O211 C218 1.247 . S
O212 Co210 2.091 . S
O212 C218 1.261 . S
C213 O222 1.247 . S
C213 O223 1.272 . S
O214 Co210 2.004 . S
O214 C219 1.259 . S
Co215 O216 2.061 . S
Co215 O221 2.052 . S
Co215 O223 2.135 . S
O216 Co215 2.061 . S
O216 C219 1.235 . S
C217 O220 1.238 . S
C217 O221 1.241 . S
C218 O211 1.247 . S
C218 O212 1.261 . S
C219 O214 1.259 . S
C219 O216 1.235 . S
O220 Co210 2.021 . S
O220 C217 1.238 . S
O221 Co215 2.052 . S
O221 C217 1.241 . S
O222 Co210 2.137 . S
O222 C213 1.247 . S
O223 Co210 2.244 . S
O223 C213 1.272 . S
O223 Co215 2.135 . S
C224 C225 1.369 . S
C224 C226 1.419 . S
C224 H228 0.930 . S
C225 C224 1.369 . S
C225 C234 1.429 . S
C226 C224 1.419 . S
C226 C227 1.363 . S
C226 H229 0.929 . S
C227 C226 1.363 . S
C227 C233 1.428 . S
H228 C224 0.930 . S
H229 C226 0.929 . S
S230 N231 1.613 . S
S230 N232 1.610 . S
N231 S230 1.613 . S
N231 C234 1.350 . S
N232 S230 1.610 . S
N232 C233 1.351 . S
C233 C227 1.428 . S
C233 N232 1.351 . S
C233 C234 1.434 . S
C234 C225 1.429 . S
C234 N231 1.350 . S
C234 C233 1.434 . S
C235 C236 1.369 1_455 S
C235 C237 1.419 1_565 S
C235 H239 0.930 . S
C236 C235 1.369 1_655 S
C236 C245 1.429 . S
C237 C235 1.419 1_545 S
C237 C238 1.363 . S
C237 H240 0.929 . S
C238 C237 1.363 . S
C238 C244 1.428 1_455 S
H239 C235 0.930 . S
H240 C237 0.929 . S
S241 N242 1.613 . S
S241 N243 1.610 1_565 S
N242 S241 1.613 . S
N242 C245 1.350 . S
N243 S241 1.610 1_545 S
N243 C244 1.351 . S
C244 C238 1.428 1_655 S
C244 N243 1.351 . S
C244 C245 1.434 1_545 S
C245 C236 1.429 . S
C245 N242 1.350 . S
C245 C244 1.434 1_565 S
C246 C247 1.369 1_545 S
C246 C248 1.419 . S
C246 H250 0.930 . S
C247 C246 1.369 1_565 S
C247 C256 1.429 . S
C248 C246 1.419 . S
C248 C249 1.363 . S
C248 H251 0.929 . S
C249 C248 1.363 . S
C249 C255 1.428 1_545 S
H250 C246 0.930 . S
H251 C248 0.929 . S
S252 N253 1.613 . S
S252 N254 1.610 . S
N253 S252 1.613 . S
N253 C256 1.350 . S
N254 S252 1.610 . S
N254 C255 1.351 . S
C255 C249 1.428 1_565 S
C255 N254 1.351 . S
C255 C256 1.434 . S
C256 C247 1.429 . S
C256 N253 1.350 . S
C256 C255 1.434 . S
C257 C258 1.369 . S
C257 C259 1.419 1_455 S
C257 H261 0.930 . S
C258 C257 1.369 . S
C258 C267 1.429 . S
C259 C257 1.419 1_655 S
C259 C260 1.363 . S
C259 H262 0.929 . S
C260 C259 1.363 . S
C260 C266 1.428 . S
H261 C257 0.930 . S
H262 C259 0.929 . S
S263 N264 1.613 1_655 S
S263 N265 1.610 . S
N264 S263 1.613 1_455 S
N264 C267 1.350 . S
N265 S263 1.610 . S
N265 C266 1.351 . S
C266 C260 1.428 . S
C266 N265 1.351 . S
C266 C267 1.434 1_655 S
C267 C258 1.429 . S
C267 N264 1.350 . S
C267 C266 1.434 1_455 S
C268 C269 1.369 . S
C268 C270 1.419 . S
C268 H272 0.930 . S
C269 C268 1.369 . S
C269 C278 1.429 . S
C270 C268 1.419 . S
C270 C271 1.363 . S
C270 H273 0.929 . S
C271 C270 1.363 . S
C271 C277 1.428 . S
H272 C268 0.930 . S
H273 C270 0.929 . S
S274 N275 1.613 . S
S274 N276 1.610 . S
N275 S274 1.613 . S
N275 C278 1.350 . S
N276 S274 1.610 . S
N276 C277 1.351 . S
C277 C271 1.428 . S
C277 N276 1.351 . S
C277 C278 1.434 . S
C278 C269 1.429 . S
C278 N275 1.350 . S
C278 C277 1.434 . S
C279 C280 1.369 . S
C279 C281 1.419 . S
C279 H283 0.930 . S
C280 C279 1.369 . S
C280 C289 1.429 1_545 S
C281 C279 1.419 . S
C281 C282 1.363 1_545 S
C281 H284 0.929 . S
C282 C281 1.363 1_565 S
C282 C288 1.428 . S
H283 C279 0.930 . S
H284 C281 0.929 . S
S285 N286 1.613 . S
S285 N287 1.610 . S
N286 S285 1.613 . S
N286 C289 1.350 . S
N287 S285 1.610 . S
N287 C288 1.351 . S
C288 C282 1.428 . S
C288 N287 1.351 . S
C288 C289 1.434 . S
C289 C280 1.429 1_565 S
C289 N286 1.350 . S
C289 C288 1.434 . S
C290 C291 1.369 . S
C290 C292 1.419 1_655 S
C290 H294 0.930 . S
C291 C290 1.369 . S
C291 C300 1.444 . S
C292 C290 1.419 1_455 S
C292 C293 1.363 . S
C292 H295 0.929 . S
C293 C292 1.363 . S
C293 C299 1.428 . S
H294 C290 0.930 . S
H295 C292 0.929 . S
S296 N297 1.613 . S
S296 N298 1.610 . S
N297 S296 1.613 . S
N297 C300 1.348 1_455 S
N298 S296 1.610 . S
N298 C299 1.351 . S
C299 C293 1.428 . S
C299 N298 1.351 . S
C299 C300 1.419 1_455 S
C300 C291 1.444 . S
C300 N297 1.348 1_655 S
C300 C299 1.419 1_655 S
C301 C302 1.369 . S
C301 C303 1.419 1_554 S
C301 H305 0.930 . S
C302 C301 1.369 . S
C302 C311 1.429 . S
C303 C301 1.419 1_556 S
C303 C304 1.363 . S
C303 H306 0.929 . S
C304 C303 1.363 . S
C304 C310 1.428 . S
H305 C301 0.930 . S
H306 C303 0.929 . S
S307 N308 1.613 . S
S307 N309 1.610 1_554 S
N308 S307 1.613 . S
N308 C311 1.350 . S
N309 S307 1.610 1_556 S
N309 C310 1.351 . S
C310 C304 1.428 . S
C310 N309 1.351 . S
C310 C311 1.434 1_556 S
C311 C302 1.429 . S
C311 N308 1.350 . S
C311 C310 1.434 1_554 S
C312 C313 1.369 . S
C312 C314 1.419 1_556 S
C312 H316 0.930 . S
C313 C312 1.369 . S
C313 C322 1.429 1_455 S
C314 C312 1.419 1_554 S
C314 C315 1.363 1_455 S
C314 H317 0.929 . S
C315 C314 1.363 1_655 S
C315 C321 1.428 . S
H316 C312 0.930 . S
H317 C314 0.929 . S
S318 N319 1.613 . S
S318 N320 1.610 1_556 S
N319 S318 1.613 . S
N319 C322 1.350 . S
N320 S318 1.610 1_554 S
N320 C321 1.351 . S
C321 C315 1.428 . S
C321 N320 1.351 . S
C321 C322 1.434 1_554 S
C322 C313 1.429 1_655 S
C322 N319 1.350 . S
C322 C321 1.434 1_556 S
C323 C324 1.369 . S
C323 C325 1.419 . S
C323 H327 0.930 . S
C324 C323 1.369 . S
C324 C333 1.429 . S
C325 C323 1.419 . S
C325 C326 1.363 . S
C325 H328 0.929 . S
C326 C325 1.363 . S
C326 C332 1.428 . S
H327 C323 0.930 . S
H328 C325 0.929 . S
S329 N330 1.613 . S
S329 N331 1.610 . S
N330 S329 1.613 . S
N330 C333 1.350 . S
N331 S329 1.610 . S
N331 C332 1.351 . S
C332 C326 1.428 . S
C332 N331 1.351 . S
C332 C333 1.434 . S
C333 C324 1.429 . S
C333 N330 1.350 . S
C333 C332 1.434 . S
C334 C335 1.369 1_554 S
C334 C336 1.419 . S
C334 H338 0.930 . S
C335 C334 1.369 1_556 S
C335 C344 1.429 . S
C336 C334 1.419 . S
C336 C337 1.363 . S
C336 H339 0.929 . S
C337 C336 1.363 . S
C337 C343 1.428 1_554 S
H338 C334 0.930 . S
H339 C336 0.929 . S
S340 N341 1.613 . S
S340 N342 1.610 . S
N341 S340 1.613 . S
N341 C344 1.350 . S
N342 S340 1.610 . S
N342 C343 1.351 . S
C343 C337 1.428 1_556 S
C343 N342 1.351 . S
C343 C344 1.434 . S
C344 C335 1.429 . S
C344 N341 1.350 . S
C344 C343 1.434 . S
C345 C346 1.369 . S
C345 C347 1.419 . S
C345 H349 0.930 . S
C346 C345 1.369 . S
C346 C355 1.429 . S
C347 C345 1.419 . S
C347 C348 1.363 . S
C347 H350 0.929 . S
C348 C347 1.363 . S
C348 C354 1.428 . S
H349 C345 0.930 . S
H350 C347 0.929 . S
S351 N352 1.613 . S
S351 N353 1.610 . S
N352 S351 1.613 . S
N352 C355 1.350 . S
N353 S351 1.610 . S
N353 C354 1.351 . S
C354 C348 1.428 . S
C354 N353 1.351 . S
C354 C355 1.434 . S
C355 C346 1.429 . S
C355 N352 1.350 . S
C355 C354 1.434 . S
C356 C357 1.369 . S
C356 C358 1.419 1_545 S
C356 H360 0.930 . S
C357 C356 1.369 . S
C357 C366 1.429 1_556 S
C358 C356 1.419 1_565 S
C358 C359 1.363 1_556 S
C358 H361 0.929 . S
C359 C358 1.363 1_554 S
C359 C365 1.428 . S
H360 C356 0.930 . S
H361 C358 0.929 . S
S362 N363 1.613 1_565 S
S362 N364 1.610 . S
N363 S362 1.613 1_545 S
N363 C366 1.350 . S
N364 S362 1.610 . S
N364 C365 1.351 . S
C365 C359 1.428 . S
C365 N364 1.351 . S
C365 C366 1.434 1_565 S
C366 C357 1.429 1_554 S
C366 N363 1.350 . S
C366 C365 1.434 1_545 S
C367 C368 1.369 . S
C367 C369 1.419 . S
C367 H371 0.930 . S
C368 C367 1.369 . S
C368 C377 1.429 . S
C369 C367 1.419 . S
C369 C370 1.363 . S
C369 H372 0.929 . S
C370 C369 1.363 . S
C370 C376 1.428 . S
H371 C367 0.930 . S
H372 C369 0.929 . S
S373 N374 1.613 . S
S373 N375 1.610 . S
N374 S373 1.613 . S
N374 C377 1.350 . S
N375 S373 1.610 . S
N375 C376 1.351 . S
C376 C370 1.428 . S
C376 N375 1.351 . S
C376 C377 1.434 . S
C377 C368 1.429 . S
C377 N374 1.350 . S
C377 C376 1.434 . S
C378 C379 1.369 . S
C378 C380 1.419 . S
C378 H382 0.930 . S
C379 C378 1.369 . S
C379 C388 1.429 . S
C380 C378 1.419 . S
C380 C381 1.363 . S
C380 H383 0.929 . S
C381 C380 1.363 . S
C381 C387 1.428 . S
H382 C378 0.930 . S
H383 C380 0.929 . S
S384 N385 1.613 . S
S384 N386 1.610 . S
N385 S384 1.613 . S
N385 C388 1.350 . S
N386 S384 1.610 . S
N386 C387 1.351 . S
C387 C381 1.428 . S
C387 N386 1.351 . S
C387 C388 1.434 . S
C388 C379 1.429 . S
C388 N385 1.350 . S
C388 C387 1.434 . S
C389 C390 1.369 . S
C389 C391 1.419 . S
C389 H393 0.930 . S
C390 C389 1.369 . S
C390 C399 1.429 . S
C391 C389 1.419 . S
C391 C392 1.363 . S
C391 H394 0.929 . S
C392 C391 1.363 . S
C392 C398 1.428 . S
H393 C389 0.930 . S
H394 C391 0.929 . S
S395 N396 1.613 . S
S395 N397 1.610 . S
N396 S395 1.613 . S
N396 C399 1.350 . S
N397 S395 1.610 . S
N397 C398 1.351 . S
C398 C392 1.428 . S
C398 N397 1.351 . S
C398 C399 1.434 . S
C399 C390 1.429 . S
C399 N396 1.350 . S
C399 C398 1.434 . S
C400 C401 1.369 . S
C400 C402 1.419 . S
C400 H404 0.930 . S
C401 C400 1.369 . S
C401 C410 1.429 . S
C402 C400 1.419 . S
C402 C403 1.363 . S
C402 H405 0.929 . S
C403 C402 1.363 . S
C403 C409 1.428 . S
H404 C400 0.930 . S
H405 C402 0.929 . S
S406 N407 1.613 . S
S406 N408 1.610 . S
N407 S406 1.613 . S
N407 C410 1.350 . S
N408 S406 1.610 . S
N408 C409 1.351 . S
C409 C403 1.428 . S
C409 N408 1.351 . S
C409 C410 1.434 . S
C410 C401 1.429 . S
C410 N407 1.350 . S
C410 C409 1.434 . S
C411 C412 1.369 . S
C411 C413 1.419 . S
C411 H415 0.930 . S
C412 C411 1.369 . S
C412 C421 1.429 . S
C413 C411 1.419 . S
C413 C414 1.363 . S
C413 H416 0.929 . S
C414 C413 1.363 . S
C414 C420 1.428 . S
H415 C411 0.930 . S
H416 C413 0.929 . S
S417 N418 1.613 . S
S417 N419 1.610 . S
N418 S417 1.613 . S
N418 C421 1.350 . S
N419 S417 1.610 . S
N419 C420 1.351 . S
C420 C414 1.428 . S
C420 N419 1.351 . S
C420 C421 1.434 . S
C421 C412 1.429 . S
C421 N418 1.350 . S
C421 C420 1.434 . S
C422 C423 1.369 . S
C422 C424 1.419 . S
C422 H426 0.930 . S
C423 C422 1.369 . S
C423 C432 1.429 . S
C424 C422 1.419 . S
C424 C425 1.363 . S
C424 H427 0.929 . S
C425 C424 1.363 . S
C425 C431 1.428 . S
H426 C422 0.930 . S
H427 C424 0.929 . S
S428 N429 1.613 . S
S428 N430 1.610 . S
N429 S428 1.613 . S
N429 C432 1.350 . S
N430 S428 1.610 . S
N430 C431 1.351 . S
C431 C425 1.428 . S
C431 N430 1.351 . S
C431 C432 1.434 . S
C432 C423 1.429 . S
C432 N429 1.350 . S
C432 C431 1.434 . S
C433 C434 1.369 . S
C433 C435 1.419 . S
C433 H437 0.930 . S
C434 C433 1.369 . S
C434 C443 1.429 . S
C435 C433 1.419 . S
C435 C436 1.363 . S
C435 H438 0.929 1_565 S
C436 C435 1.363 . S
C436 C442 1.428 . S
H437 C433 0.930 . S
H438 C435 0.929 1_545 S
S439 N440 1.613 . S
S439 N441 1.610 . S
N440 S439 1.613 . S
N440 C443 1.350 . S
N441 S439 1.610 . S
N441 C442 1.351 . S
C442 C436 1.428 . S
C442 N441 1.351 . S
C442 C443 1.434 . S
C443 C434 1.429 . S
C443 N440 1.350 . S
C443 C442 1.434 . S
C444 C445 1.369 . S
C444 C446 1.419 . S
C444 H448 0.930 . S
C445 C444 1.369 . S
C445 C454 1.429 . S
C446 C444 1.419 . S
C446 C447 1.363 . S
C446 H449 0.929 . S
C447 C446 1.363 . S
C447 C453 1.428 . S
H448 C444 0.930 . S
H449 C446 0.929 . S
S450 N451 1.613 . S
S450 N452 1.610 . S
N451 S450 1.613 . S
N451 C454 1.350 . S
N452 S450 1.610 . S
N452 C453 1.351 . S
C453 C447 1.428 . S
C453 N452 1.351 . S
C453 C454 1.434 . S
C454 C445 1.429 . S
C454 N451 1.350 . S
C454 C453 1.434 . S
C455 C456 1.369 . S
C455 C457 1.419 . S
C455 H459 0.930 . S
C456 C455 1.369 . S
C456 C465 1.429 . S
C457 C455 1.419 . S
C457 C458 1.363 . S
C457 H460 0.929 . S
C458 C457 1.363 . S
C458 C464 1.428 . S
H459 C455 0.930 . S
H460 C457 0.929 . S
S461 N462 1.613 . S
S461 N463 1.610 . S
N462 S461 1.613 . S
N462 C465 1.350 . S
N463 S461 1.610 . S
N463 C464 1.351 . S
C464 C458 1.428 . S
C464 N463 1.351 . S
C464 C465 1.434 . S
C465 C456 1.429 . S
C465 N462 1.350 . S
C465 C464 1.434 . S
C466 C467 1.369 . S
C466 C468 1.419 . S
C466 H470 0.930 . S
C467 C466 1.369 . S
C467 C476 1.429 . S
C468 C466 1.419 . S
C468 C469 1.363 . S
C468 H471 0.929 . S
C469 C468 1.363 . S
C469 C475 1.428 . S
H470 C466 0.930 . S
H471 C468 0.929 . S
S472 N473 1.613 . S
S472 N474 1.610 . S
N473 S472 1.613 . S
N473 C476 1.350 . S
N474 S472 1.610 . S
N474 C475 1.351 . S
C475 C469 1.428 . S
C475 N474 1.351 . S
C475 C476 1.434 . S
C476 C467 1.429 . S
C476 N473 1.350 . S
C476 C475 1.434 . S
C477 C478 1.369 . S
C477 C479 1.419 . S
C477 H481 0.930 . S
C478 C477 1.369 . S
C478 C487 1.429 . S
C479 C477 1.419 . S
C479 C480 1.363 . S
C479 H482 0.929 . S
C480 C479 1.363 . S
C480 C486 1.428 . S
H481 C477 0.930 . S
H482 C479 0.929 . S
S483 N484 1.613 . S
S483 N485 1.610 1_565 S
N484 S483 1.613 . S
N484 C487 1.350 1_565 S
N485 S483 1.610 1_545 S
N485 C486 1.351 . S
C486 C480 1.428 . S
C486 N485 1.351 . S
C486 C487 1.434 . S
C487 C478 1.429 . S
C487 N484 1.350 1_545 S
C487 C486 1.434 . S
C488 C489 1.369 . S
C488 C490 1.419 . S
C488 H492 0.930 . S
C489 C488 1.369 . S
C489 C498 1.429 . S
C490 C488 1.419 . S
C490 C491 1.363 . S
C490 H493 0.929 . S
C491 C490 1.363 . S
C491 C497 1.428 . S
H492 C488 0.930 . S
H493 C490 0.929 . S
S494 N495 1.613 . S
S494 N496 1.610 1_565 S
N495 S494 1.613 . S
N495 C498 1.350 . S
N496 S494 1.610 1_545 S
N496 C497 1.351 1_545 S
C497 C491 1.428 . S
C497 N496 1.351 1_565 S
C497 C498 1.434 . S
C498 C489 1.429 . S
C498 N495 1.350 . S
C498 C497 1.434 . S
C499 C500 1.369 . S
C499 C501 1.419 . S
C499 H503 0.930 . S
C500 C499 1.369 . S
C500 C509 1.429 . S
C501 C499 1.419 . S
C501 C502 1.363 . S
C501 H504 0.929 . S
C502 C501 1.363 . S
C502 C508 1.428 . S
H503 C499 0.930 . S
H504 C501 0.929 . S
S505 N506 1.613 . S
S505 N507 1.610 . S
N506 S505 1.613 . S
N506 C509 1.350 . S
N507 S505 1.610 . S
N507 C508 1.351 . S
C508 C502 1.428 . S
C508 N507 1.351 . S
C508 C509 1.434 . S
C509 C500 1.429 . S
C509 N506 1.350 . S
C509 C508 1.434 . S
C510 C511 1.369 . S
C510 C512 1.419 . S
C510 H514 0.930 . S
C511 C510 1.369 . S
C511 C520 1.429 . S
C512 C510 1.419 . S
C512 C513 1.363 . S
C512 H515 0.929 . S
C513 C512 1.363 . S
C513 C519 1.428 . S
H514 C510 0.930 . S
H515 C512 0.929 . S
S516 N517 1.613 . S
S516 N518 1.610 . S
N517 S516 1.613 . S
N517 C520 1.350 . S
N518 S516 1.610 . S
N518 C519 1.351 . S
C519 C513 1.428 . S
C519 N518 1.351 . S
C519 C520 1.434 . S
C520 C511 1.429 . S
C520 N517 1.350 . S
C520 C519 1.434 . S
C521 C522 1.369 . S
C521 C523 1.419 . S
C521 H525 0.930 . S
C522 C521 1.369 . S
C522 C531 1.429 . S
C523 C521 1.419 . S
C523 C524 1.363 . S
C523 H526 0.929 1_565 S
C524 C523 1.363 . S
C524 C530 1.428 . S
H525 C521 0.930 . S
H526 C523 0.929 1_545 S
S527 N528 1.613 . S
S527 N529 1.610 . S
N528 S527 1.613 . S
N528 C531 1.350 . S
N529 S527 1.610 . S
N529 C530 1.351 . S
C530 C524 1.428 . S
C530 N529 1.351 . S
C530 C531 1.434 . S
C531 C522 1.429 . S
C531 N528 1.350 . S
C531 C530 1.434 . S
C532 C533 1.369 . S
C532 C534 1.419 . S
C532 H536 0.930 . S
C533 C532 1.369 . S
C533 C542 1.429 . S
C534 C532 1.419 . S
C534 C535 1.363 . S
C534 H537 0.929 . S
C535 C534 1.363 . S
C535 C541 1.428 . S
H536 C532 0.930 . S
H537 C534 0.929 . S
S538 N539 1.613 1_565 S
S538 N540 1.610 . S
N539 S538 1.613 1_545 S
N539 C542 1.350 . S
N540 S538 1.610 . S
N540 C541 1.351 1_565 S
C541 C535 1.428 . S
C541 N540 1.351 1_545 S
C541 C542 1.434 . S
C542 C533 1.429 . S
C542 N539 1.350 . S
C542 C541 1.434 . S
C543 C544 1.369 . S
C543 C545 1.419 . S
C543 H547 0.930 . S
C544 C543 1.369 . S
C544 C553 1.429 . S
C545 C543 1.419 . S
C545 C546 1.363 . S
C545 H548 0.929 . S
C546 C545 1.363 . S
C546 C552 1.428 . S
H547 C543 0.930 . S
H548 C545 0.929 . S
S549 N550 1.613 . S
S549 N551 1.610 . S
N550 S549 1.613 . S
N550 C553 1.350 . S
N551 S549 1.610 . S
N551 C552 1.351 . S
C552 C546 1.428 . S
C552 N551 1.351 . S
C552 C553 1.434 . S
C553 C544 1.429 . S
C553 N550 1.350 . S
C553 C552 1.434 . S
C554 C555 1.369 . S
C554 C556 1.419 . S
C554 H558 0.930 . S
C555 C554 1.369 . S
C555 C564 1.429 . S
C556 C554 1.419 . S
C556 C557 1.363 . S
C556 H559 0.929 . S
C557 C556 1.363 . S
C557 C563 1.428 . S
H558 C554 0.930 . S
H559 C556 0.929 . S
S560 N561 1.613 . S
S560 N562 1.610 . S
N561 S560 1.613 . S
N561 C564 1.350 . S
N562 S560 1.610 . S
N562 C563 1.351 . S
C563 C557 1.428 . S
C563 N562 1.351 . S
C563 C564 1.434 . S
C564 C555 1.429 . S
C564 N561 1.350 . S
C564 C563 1.434 . S
C565 C566 1.369 . S
C565 C567 1.419 . S
C565 H569 0.930 . S
C566 C565 1.369 . S
C566 C575 1.429 . S
C567 C565 1.419 . S
C567 C568 1.363 . S
C567 H570 0.929 . S
C568 C567 1.363 . S
C568 C574 1.428 . S
H569 C565 0.930 . S
H570 C567 0.929 . S
S571 N572 1.613 . S
S571 N573 1.610 . S
N572 S571 1.613 . S
N572 C575 1.350 . S
N573 S571 1.610 . S
N573 C574 1.351 . S
C574 C568 1.428 . S
C574 N573 1.351 . S
C574 C575 1.434 . S
C575 C566 1.429 . S
C575 N572 1.350 . S
C575 C574 1.434 . S
C225 C199 1.494 . S
C227 C3 1.495 . S
C236 C36 1.499 . S
C238 C8 1.500 . S
C247 C162 1.499 . S
C249 C22 1.499 . S
C258 C17 1.495 . S
C260 C101 1.494 . S
C269 C31 1.494 . S
C271 C171 1.494 . S
C280 C134 1.499 . S
C282 C50 1.499 . S
C291 C45 1.496 . S
C293 C73 1.493 . S
C302 C143 1.493 . S
C304 C59 1.495 . S
C313 C64 1.499 . S
C315 C92 1.499 . S
C324 C218 1.499 . S
C326 C78 1.499 . S
C335 C115 1.495 . S
C337 C87 1.494 . S
C346 C190 1.499 . S
C348 C106 1.500 . S
C357 C120 1.499 . S
C359 C148 1.500 . S
C368 C213 1.495 . S
C370 C129 1.494 . S
C379 C157 1.495 . S
C381 C185 1.494 . S
C390 C204 1.499 . S
C392 C176 1.500 . S
C401 C79 1.441 . S
C403 C7 1.436 1_565 S
C412 C9 1.445 . S
C414 C77 1.432 . S
C423 C23 1.442 . S
C425 C63 1.435 . S
C434 C65 1.440 . S
C436 C21 1.437 1_565 S
C445 C107 1.445 . S
C447 C35 1.433 1_545 S
C456 C105 1.435 . S
C458 C37 1.443 . S
C467 C91 1.433 . S
C469 C51 1.443 . S
C478 C49 1.433 1_545 S
C480 C93 1.443 . S
C489 C191 1.442 . S
C491 C119 1.434 1_565 S
C500 C121 1.440 . S
C502 C189 1.437 . S
C511 C135 1.443 . S
C513 C175 1.435 . S
C522 C177 1.442 . S
C524 C133 1.436 1_565 S
C533 C219 1.441 . S
C535 C147 1.435 1_545 S
C544 C217 1.433 . S
C546 C149 1.443 . S
C555 C163 1.445 . S
C557 C203 1.433 . S
C566 C205 1.440 . S
C568 C161 1.437 1_545 S
