# Generated by pormake.
# Topology vbm, (6)-cn, num edge types: 1
# Building blocks:
#     Node 0, Type 0, BuildingBlock: BETDAH_clean_sbu_0, # of connection points: 6
#     Node 1, Type 0, BuildingBlock: BETDAH_clean_sbu_0, # of connection points: 6
#     Node 2, Type 0, BuildingBlock: BETDAH_clean_sbu_0, # of connection points: 6
#     Node 3, Type 0, BuildingBlock: BETDAH_clean_sbu_0, # of connection points: 6
#     Node 4, Type 0, BuildingBlock: BETDAH_clean_sbu_0, # of connection points: 6
#     Node 5, Type 0, BuildingBlock: BETDAH_clean_sbu_0, # of connection points: 6
#     Node 6, Type 0, BuildingBlock: BETDAH_clean_sbu_0, # of connection points: 6
#     Node 7, Type 0, BuildingBlock: BETDAH_clean_sbu_0, # of connection points: 6
#     Node 8, Type 0, BuildingBlock: BETDAH_clean_sbu_0, # of connection points: 6
#     Node 9, Type 0, BuildingBlock: BETDAH_clean_sbu_0, # of connection points: 6
#     Node 10, Type 0, BuildingBlock: BETDAH_clean_sbu_0, # of connection points: 6
#     Node 11, Type 0, BuildingBlock: BETDAH_clean_sbu_0, # of connection points: 6
#     Node 12, Type 0, BuildingBlock: BETDAH_clean_sbu_0, # of connection points: 6
#     Node 13, Type 0, BuildingBlock: BETDAH_clean_sbu_0, # of connection points: 6
#     Node 14, Type 0, BuildingBlock: BETDAH_clean_sbu_0, # of connection points: 6
#     Node 15, Type 0, BuildingBlock: BETDAH_clean_sbu_0, # of connection points: 6
#     Edge 16, Type (0, 0), BuildingBlock: KIFKEQ_clean_linker_1, # of connection points: 2
#     Edge 17, Type (0, 0), BuildingBlock: KIFKEQ_clean_linker_1, # of connection points: 2
#     Edge 18, Type (0, 0), BuildingBlock: KIFKEQ_clean_linker_1, # of connection points: 2
#     Edge 19, Type (0, 0), BuildingBlock: KIFKEQ_clean_linker_1, # of connection points: 2
#     Edge 20, Type (0, 0), BuildingBlock: KIFKEQ_clean_linker_1, # of connection points: 2
#     Edge 21, Type (0, 0), BuildingBlock: KIFKEQ_clean_linker_1, # of connection points: 2
#     Edge 22, Type (0, 0), BuildingBlock: KIFKEQ_clean_linker_1, # of connection points: 2
#     Edge 23, Type (0, 0), BuildingBlock: KIFKEQ_clean_linker_1, # of connection points: 2
#     Edge 24, Type (0, 0), BuildingBlock: KIFKEQ_clean_linker_1, # of connection points: 2
#     Edge 25, Type (0, 0), BuildingBlock: KIFKEQ_clean_linker_1, # of connection points: 2
#     Edge 26, Type (0, 0), BuildingBlock: KIFKEQ_clean_linker_1, # of connection points: 2
#     Edge 27, Type (0, 0), BuildingBlock: KIFKEQ_clean_linker_1, # of connection points: 2
#     Edge 28, Type (0, 0), BuildingBlock: KIFKEQ_clean_linker_1, # of connection points: 2
#     Edge 29, Type (0, 0), BuildingBlock: KIFKEQ_clean_linker_1, # of connection points: 2
#     Edge 30, Type (0, 0), BuildingBlock: KIFKEQ_clean_linker_1, # of connection points: 2
#     Edge 31, Type (0, 0), BuildingBlock: KIFKEQ_clean_linker_1, # of connection points: 2
#     Edge 32, Type (0, 0), BuildingBlock: KIFKEQ_clean_linker_1, # of connection points: 2
#     Edge 33, Type (0, 0), BuildingBlock: KIFKEQ_clean_linker_1, # of connection points: 2
#     Edge 34, Type (0, 0), BuildingBlock: KIFKEQ_clean_linker_1, # of connection points: 2
#     Edge 35, Type (0, 0), BuildingBlock: KIFKEQ_clean_linker_1, # of connection points: 2
#     Edge 36, Type (0, 0), BuildingBlock: KIFKEQ_clean_linker_1, # of connection points: 2
#     Edge 37, Type (0, 0), BuildingBlock: KIFKEQ_clean_linker_1, # of connection points: 2
#     Edge 38, Type (0, 0), BuildingBlock: KIFKEQ_clean_linker_1, # of connection points: 2
#     Edge 39, Type (0, 0), BuildingBlock: KIFKEQ_clean_linker_1, # of connection points: 2
#     Edge 40, Type (0, 0), BuildingBlock: KIFKEQ_clean_linker_1, # of connection points: 2
#     Edge 41, Type (0, 0), BuildingBlock: KIFKEQ_clean_linker_1, # of connection points: 2
#     Edge 42, Type (0, 0), BuildingBlock: KIFKEQ_clean_linker_1, # of connection points: 2
#     Edge 43, Type (0, 0), BuildingBlock: KIFKEQ_clean_linker_1, # of connection points: 2
#     Edge 44, Type (0, 0), BuildingBlock: KIFKEQ_clean_linker_1, # of connection points: 2
#     Edge 45, Type (0, 0), BuildingBlock: KIFKEQ_clean_linker_1, # of connection points: 2
#     Edge 46, Type (0, 0), BuildingBlock: KIFKEQ_clean_linker_1, # of connection points: 2
#     Edge 47, Type (0, 0), BuildingBlock: KIFKEQ_clean_linker_1, # of connection points: 2
#     Edge 48, Type (0, 0), BuildingBlock: KIFKEQ_clean_linker_1, # of connection points: 2
#     Edge 49, Type (0, 0), BuildingBlock: KIFKEQ_clean_linker_1, # of connection points: 2
#     Edge 50, Type (0, 0), BuildingBlock: KIFKEQ_clean_linker_1, # of connection points: 2
#     Edge 51, Type (0, 0), BuildingBlock: KIFKEQ_clean_linker_1, # of connection points: 2
#     Edge 52, Type (0, 0), BuildingBlock: KIFKEQ_clean_linker_1, # of connection points: 2
#     Edge 53, Type (0, 0), BuildingBlock: KIFKEQ_clean_linker_1, # of connection points: 2
#     Edge 54, Type (0, 0), BuildingBlock: KIFKEQ_clean_linker_1, # of connection points: 2
#     Edge 55, Type (0, 0), BuildingBlock: KIFKEQ_clean_linker_1, # of connection points: 2
#     Edge 56, Type (0, 0), BuildingBlock: KIFKEQ_clean_linker_1, # of connection points: 2
#     Edge 57, Type (0, 0), BuildingBlock: KIFKEQ_clean_linker_1, # of connection points: 2
#     Edge 58, Type (0, 0), BuildingBlock: KIFKEQ_clean_linker_1, # of connection points: 2
#     Edge 59, Type (0, 0), BuildingBlock: KIFKEQ_clean_linker_1, # of connection points: 2
#     Edge 60, Type (0, 0), BuildingBlock: KIFKEQ_clean_linker_1, # of connection points: 2
#     Edge 61, Type (0, 0), BuildingBlock: KIFKEQ_clean_linker_1, # of connection points: 2
#     Edge 62, Type (0, 0), BuildingBlock: KIFKEQ_clean_linker_1, # of connection points: 2
#     Edge 63, Type (0, 0), BuildingBlock: KIFKEQ_clean_linker_1, # of connection points: 2
# Relax obj value: 0.066
# Max RMSD: 0.142
# Mean RMSD: 0.142
data_MOF--net-vbm--node1-BETDAH_clean_sbu_0--edge1-KIFKEQ_clean_linker_1
_symmetry_space_group_name_H-M    P1
_symmetry_Int_Tables_number       1
_symmetry_cell_setting            triclinic
loop_
_symmetry_equiv_pos_as_xyz
'x, y, z'
_cell_length_a     56.36491
_cell_length_b     25.985269
_cell_length_c     56.013448
_cell_angle_alpha  90.213824
_cell_angle_beta   89.941897
_cell_angle_gamma 89.723629
loop_
_atom_site_label
_atom_site_type_symbol
_atom_site_fract_x
_atom_site_fract_y
_atom_site_fract_z
_atom_type_partial_charge
Ho0 Ho 0.12946 0.09048 0.15805 0.0
Ho1 Ho 0.10492 0.19399 0.16013 0.0
C2 C 0.07203 0.09944 0.15069 0.0
C3 C 0.14404 0.99675 0.16485 0.0
C4 C 0.1371 0.94211 0.16231 0.0
C5 C 0.13664 0.91102 0.18274 0.0
C6 C 0.13249 0.85817 0.18088 0.0
C7 C 0.12878 0.83496 0.15847 0.0
C8 C 0.12877 0.86632 0.13802 0.0
C9 C 0.13289 0.91936 0.1399 0.0
C10 C 0.12943 0.14204 0.11609 0.0
C11 C 0.16141 0.18824 0.16661 0.0
C12 C 0.09003 0.288 0.15542 0.0
C13 C 0.09836 0.34154 0.1532 0.0
C14 C 0.08599 0.37507 0.13806 0.0
C15 C 0.09176 0.42728 0.13718 0.0
C16 C 0.11002 0.44722 0.15154 0.0
C17 C 0.1229 0.41317 0.16621 0.0
C18 C 0.11716 0.36075 0.167 0.0
C19 C 0.10482 0.13924 0.20141 0.0
O20 O 0.09045 0.06929 0.15555 0.0
O21 O 0.07389 0.14956 0.1485 0.0
O22 O 0.14845 1.02298 0.14549 0.0
O23 O 0.13286 1.02398 0.18101 0.0
O24 O 0.14711 0.11514 0.12412 0.0
O25 O 0.11219 0.13927 0.13051 0.0
O26 O 0.14332 0.21514 0.15838 0.0
O27 O 0.15941 0.1388 0.17161 0.0
O28 O 0.093 0.26543 0.17603 0.0
O29 O 0.09394 0.25712 0.13734 0.0
O30 O 0.08703 0.16665 0.19402 0.0
O31 O 0.12193 0.14412 0.18712 0.0
H32 H 0.14011 0.92746 0.2002 0.0
H33 H 0.13296 0.83524 0.19698 0.0
H34 H 0.12569 0.84985 0.12051 0.0
H35 H 0.13319 0.94225 0.12379 0.0
H36 H 0.07136 0.36109 0.12735 0.0
H37 H 0.08129 0.45236 0.1259 0.0
H38 H 0.13728 0.42713 0.17725 0.0
H39 H 0.12708 0.33555 0.17874 0.0
Ho40 Ho 0.84978 0.96679 0.15583 0.0
Ho41 Ho 0.87504 0.86463 0.1588 0.0
C42 C 0.90686 0.95896 0.14746 0.0
C43 C 0.83478 0.06101 0.16041 0.0
C44 C 0.84279 0.11532 0.15943 0.0
C45 C 0.84941 0.14136 0.18043 0.0
C46 C 0.85419 0.19416 0.18009 0.0
C47 C 0.85229 0.22234 0.15877 0.0
C48 C 0.84617 0.19605 0.13767 0.0
C49 C 0.84142 0.14324 0.13801 0.0
C50 C 0.84952 0.91172 0.11466 0.0
C51 C 0.81831 0.86892 0.16645 0.0
C52 C 0.8907 0.77095 0.15483 0.0
C53 C 0.88375 0.71653 0.15779 0.0
C54 C 0.86414 0.69534 0.14585 0.0
C55 C 0.8597 0.64236 0.147 0.0
C56 C 0.87478 0.60955 0.16008 0.0
C57 C 0.89387 0.63137 0.17266 0.0
C58 C 0.89832 0.68415 0.17145 0.0
C59 C 0.87531 0.92208 0.19947 0.0
O60 O 0.88881 0.98834 0.1544 0.0
O61 O 0.90449 0.90934 0.14374 0.0
O62 O 0.83395 0.03507 0.1404 0.0
O63 O 0.8422 0.03291 0.17823 0.0
O64 O 0.83158 0.93762 0.12293 0.0
O65 O 0.86701 0.91668 0.12861 0.0
O66 O 0.83689 0.84122 0.15988 0.0
O67 O 0.81957 0.91934 0.16933 0.0
O68 O 0.89295 0.79861 0.17421 0.0
O69 O 0.88122 0.79674 0.13721 0.0
O70 O 0.89318 0.89478 0.19207 0.0
O71 O 0.85803 0.91573 0.18555 0.0
H72 H 0.85023 0.12127 0.19732 0.0
H73 H 0.85856 0.21323 0.19673 0.0
H74 H 0.84484 0.21639 0.12089 0.0
H75 H 0.8361 0.12461 0.12155 0.0
H76 H 0.85258 0.71939 0.13516 0.0
H77 H 0.84493 0.62692 0.13697 0.0
H78 H 0.90557 0.60756 0.1833 0.0
H79 H 0.91356 0.69955 0.18079 0.0
Ho80 Ho 0.13084 0.98248 0.3919 0.0
Ho81 Ho 0.10666 0.87166 0.39494 0.0
C82 C 0.0745 0.96867 0.4044 0.0
C83 C 0.14393 0.0704 0.37494 0.0
C84 C 0.14201 0.12581 0.3804 0.0
C85 C 0.14594 0.16138 0.3621 0.0
C86 C 0.14399 0.21423 0.36653 0.0
C87 C 0.13806 0.23277 0.38943 0.0
C88 C 0.13409 0.1968 0.40778 0.0
C89 C 0.13603 0.14378 0.40329 0.0
C90 C 0.12776 0.9525 0.43833 0.0
C91 C 0.16342 0.88018 0.38852 0.0
C92 C 0.093 0.77783 0.40193 0.0
C93 C 0.10171 0.72456 0.40505 0.0
C94 C 0.08841 0.69079 0.41913 0.0
C95 C 0.09412 0.63839 0.41994 0.0
C96 C 0.11326 0.61847 0.40659 0.0
C97 C 0.12726 0.6529 0.39331 0.0
C98 C 0.12151 0.70548 0.39252 0.0
C99 C 0.10537 0.92281 0.35256 0.0
O100 O 0.09122 0.99797 0.39471 0.0
O101 O 0.07797 0.9199 0.40981 0.0
O102 O 0.15716 0.04248 0.38921 0.0
O103 O 0.12419 0.04745 0.36881 0.0
O104 O 0.13693 0.9956 0.43129 0.0
O105 O 0.12083 0.92847 0.42001 0.0
O106 O 0.14517 0.85242 0.39561 0.0
O107 O 0.16172 0.92993 0.38337 0.0
O108 O 0.09576 0.79826 0.3808 0.0
O109 O 0.09655 0.81067 0.41935 0.0
O110 O 0.08797 0.89526 0.36062 0.0
O111 O 0.12235 0.92048 0.36704 0.0
H112 H 0.15039 0.14822 0.34426 0.0
H113 H 0.14672 0.24053 0.35184 0.0
H114 H 0.12971 0.20959 0.42568 0.0
H115 H 0.13284 0.11686 0.41766 0.0
H116 H 0.07308 0.70468 0.42895 0.0
H117 H 0.08324 0.61329 0.43074 0.0
H118 H 0.14205 0.63895 0.38273 0.0
H119 H 0.13205 0.73082 0.3815 0.0
Ho120 Ho 0.85015 0.08233 0.38848 0.0
Ho121 Ho 0.87557 0.19286 0.3927 0.0
C122 C 0.9061 0.09376 0.4026 0.0
C123 C 0.83779 0.99444 0.37084 0.0
C124 C 0.84109 0.9387 0.3751 0.0
C125 C 0.85078 0.90808 0.35681 0.0
C126 C 0.8539 0.85517 0.35996 0.0
C127 C 0.84725 0.83147 0.38146 0.0
C128 C 0.83738 0.8621 0.39976 0.0
C129 C 0.8344 0.91526 0.39666 0.0
C130 C 0.85379 0.11292 0.43492 0.0
C131 C 0.81868 0.18668 0.38342 0.0
C132 C 0.88901 0.28519 0.40337 0.0
C133 C 0.88244 0.33975 0.39963 0.0
C134 C 0.86008 0.35954 0.40617 0.0
C135 C 0.85526 0.41235 0.40422 0.0
C136 C 0.87269 0.44639 0.39573 0.0
C137 C 0.89478 0.42602 0.3886 0.0
C138 C 0.8996 0.37344 0.39062 0.0
C139 C 0.87581 0.14428 0.34951 0.0
O140 O 0.88964 0.06566 0.39169 0.0
O141 O 0.9025 0.14207 0.40899 0.0
O142 O 0.82458 1.02071 0.38593 0.0
O143 O 0.8567 1.01956 0.36395 0.0
O144 O 0.84315 0.0711 0.42812 0.0
O145 O 0.86151 0.13449 0.41644 0.0
O146 O 0.83747 0.21484 0.38877 0.0
O147 O 0.81951 0.13585 0.38048 0.0
O148 O 0.89691 0.25972 0.38476 0.0
O149 O 0.87527 0.25746 0.41709 0.0
O150 O 0.89307 0.17294 0.35714 0.0
O151 O 0.85926 0.14549 0.36454 0.0
H152 H 0.85589 0.92516 0.33995 0.0
H153 H 0.86123 0.83265 0.34538 0.0
H154 H 0.83227 0.84507 0.41661 0.0
H155 H 0.82689 0.93787 0.41111 0.0
H156 H 0.84649 0.33449 0.41322 0.0
H157 H 0.83811 0.42665 0.41001 0.0
H158 H 0.90847 0.45078 0.38151 0.0
H159 H 0.91697 0.35914 0.38547 0.0
Ho160 Ho 0.87304 0.86485 0.89337 0.0
Ho161 Ho 0.84838 0.96801 0.89169 0.0
C162 C 0.81656 0.86892 0.88398 0.0
C163 C 0.8876 0.77174 0.9015 0.0
C164 C 0.88143 0.71714 0.89738 0.0
C165 C 0.86009 0.69591 0.90575 0.0
C166 C 0.856 0.64289 0.90382 0.0
C167 C 0.87315 0.61003 0.8935 0.0
C168 C 0.8941 0.63183 0.88445 0.0
C169 C 0.8982 0.68467 0.88646 0.0
C170 C 0.8732 0.91265 0.8502 0.0
C171 C 0.90514 0.96036 0.90251 0.0
C172 C 0.83483 0.06134 0.88214 0.0
C173 C 0.84198 0.11588 0.88515 0.0
C174 C 0.8517 0.14279 0.86576 0.0
C175 C 0.8562 0.19558 0.86747 0.0
C176 C 0.8509 0.22291 0.88854 0.0
C177 C 0.84156 0.19581 0.90809 0.0
C178 C 0.83712 0.14295 0.90641 0.0
C179 C 0.84749 0.92283 0.93526 0.0
O180 O 0.83477 0.84225 0.89215 0.0
O181 O 0.81836 0.91845 0.87891 0.0
O182 O 0.89417 0.79851 0.88294 0.0
O183 O 0.87442 0.79831 0.91637 0.0
O184 O 0.89098 0.88656 0.85854 0.0
O185 O 0.85611 0.91005 0.86459 0.0
O186 O 0.88757 0.98853 0.89365 0.0
O187 O 0.90207 0.91181 0.90819 0.0
O188 O 0.82814 0.03612 0.90112 0.0
O189 O 0.84743 0.03288 0.86755 0.0
O190 O 0.83027 0.94956 0.92619 0.0
O191 O 0.865 0.92329 0.92112 0.0
H192 H 0.84682 0.71995 0.91432 0.0
H193 H 0.83974 0.62746 0.91113 0.0
H194 H 0.9075 0.60798 0.87596 0.0
H195 H 0.91481 0.70006 0.8799 0.0
H196 H 0.85525 0.12329 0.84899 0.0
H197 H 0.86309 0.2153 0.85196 0.0
H198 H 0.83754 0.21553 0.92468 0.0
H199 H 0.82941 0.12361 0.92163 0.0
Ho200 Ho 0.1045 0.18901 0.89514 0.0
Ho201 Ho 0.12884 0.08516 0.89253 0.0
C202 C 0.16088 0.18407 0.88561 0.0
C203 C 0.09045 0.28223 0.90432 0.0
C204 C 0.09809 0.33639 0.90271 0.0
C205 C 0.0926 0.36993 0.9216 0.0
C206 C 0.09794 0.42229 0.9201 0.0
C207 C 0.10885 0.44241 0.89959 0.0
C208 C 0.11479 0.40847 0.88081 0.0
C209 C 0.10952 0.3559 0.88238 0.0
C210 C 0.10411 0.14169 0.8517 0.0
C211 C 0.0719 0.09373 0.9033 0.0
C212 C 0.142 0.99197 0.88183 0.0
C213 C 0.13552 0.93722 0.88533 0.0
C214 C 0.12703 0.90841 0.86588 0.0
C215 C 0.12321 0.85545 0.86797 0.0
C216 C 0.12796 0.82985 0.88954 0.0
C217 C 0.13601 0.85891 0.90916 0.0
C218 C 0.13977 0.91195 0.90708 0.0
C219 C 0.12984 0.12909 0.93652 0.0
O220 O 0.14288 0.21055 0.89447 0.0
O221 O 0.15881 0.13488 0.87979 0.0
O222 O 0.08586 0.25801 0.88437 0.0
O223 O 0.10146 0.25321 0.91983 0.0
O224 O 0.08637 0.16781 0.86028 0.0
O225 O 0.12122 0.14392 0.86605 0.0
O226 O 0.08961 0.0651 0.89488 0.0
O227 O 0.0748 0.14255 0.90874 0.0
O228 O 0.15009 1.01764 0.90019 0.0
O229 O 0.12802 1.01981 0.86842 0.0
O230 O 0.14682 0.10168 0.92732 0.0
O231 O 0.11238 0.12961 0.92233 0.0
H232 H 0.08369 0.35575 0.9374 0.0
H233 H 0.09284 0.44728 0.93477 0.0
H234 H 0.12347 0.42258 0.86488 0.0
H235 H 0.11406 0.33073 0.86759 0.0
H236 H 0.12393 0.92662 0.84878 0.0
H237 H 0.1173 0.83428 0.8524 0.0
H238 H 0.13956 0.84059 0.92613 0.0
H239 H 0.14648 0.93285 0.9224 0.0
Ho240 Ho 0.87163 0.17563 0.65536 0.0
Ho241 Ho 0.84805 0.06462 0.65816 0.0
C242 C 0.81497 0.16577 0.6598 0.0
C243 C 0.88446 0.27039 0.64961 0.0
C244 C 0.87543 0.32294 0.64499 0.0
C245 C 0.88893 0.35586 0.63067 0.0
C246 C 0.88313 0.4081 0.62893 0.0
C247 C 0.8637 0.42878 0.6416 0.0
C248 C 0.84941 0.39508 0.65497 0.0
C249 C 0.85522 0.34267 0.65666 0.0
C250 C 0.87299 0.12451 0.69772 0.0
C251 C 0.90432 0.0798 0.64573 0.0
C252 C 0.83499 0.97654 0.67496 0.0
C253 C 0.83679 0.92124 0.6692 0.0
C254 C 0.83288 0.88521 0.6873 0.0
C255 C 0.83458 0.83245 0.68251 0.0
C256 C 0.84022 0.81449 0.65944 0.0
C257 C 0.84419 0.85094 0.64129 0.0
C258 C 0.84251 0.90385 0.64614 0.0
C259 C 0.85134 0.09402 0.61172 0.0
O260 O 0.83315 0.19309 0.65226 0.0
O261 O 0.81691 0.11674 0.66613 0.0
O262 O 0.87927 0.25018 0.67032 0.0
O263 O 0.88396 0.23685 0.6321 0.0
O264 O 0.89036 0.15204 0.68963 0.0
O265 O 0.856 0.12651 0.68324 0.0
O266 O 0.88776 0.05007 0.65543 0.0
O267 O 0.90067 0.12859 0.64051 0.0
O268 O 0.82168 1.00479 0.66091 0.0
O269 O 0.8548 0.9993 0.68103 0.0
O270 O 0.84247 0.0507 0.61884 0.0
O271 O 0.85789 0.1188 0.62998 0.0
H272 H 0.90457 0.34152 0.62149 0.0
H273 H 0.89423 0.43257 0.61805 0.0
H274 H 0.83438 0.40957 0.66504 0.0
H275 H 0.84447 0.31807 0.66783 0.0
H276 H 0.82862 0.89791 0.70526 0.0
H277 H 0.83185 0.80575 0.69704 0.0
H278 H 0.84837 0.8386 0.62328 0.0
H279 H 0.84565 0.93113 0.63191 0.0
Ho280 Ho 0.10501 0.86444 0.66016 0.0
Ho281 Ho 0.12945 0.97563 0.66003 0.0
C282 C 0.16175 0.87396 0.66535 0.0
C283 C 0.09147 0.76991 0.65561 0.0
C284 C 0.10017 0.71717 0.65077 0.0
C285 C 0.08637 0.68456 0.63649 0.0
C286 C 0.09219 0.63243 0.63415 0.0
C287 C 0.11191 0.61159 0.64617 0.0
C288 C 0.12637 0.64494 0.65962 0.0
C289 C 0.12056 0.69725 0.6619 0.0
C290 C 0.10338 0.92163 0.70095 0.0
C291 C 0.07324 0.96066 0.64751 0.0
C292 C 0.14295 0.06502 0.67506 0.0
C293 C 0.14116 0.1201 0.66922 0.0
C294 C 0.14506 0.15629 0.68737 0.0
C295 C 0.14322 0.20893 0.6827 0.0
C296 C 0.13745 0.22662 0.6597 0.0
C297 C 0.13349 0.19004 0.64149 0.0
C298 C 0.13532 0.13719 0.64622 0.0
C299 C 0.12646 0.93764 0.6148 0.0
O300 O 0.14361 0.84577 0.65824 0.0
O301 O 0.1599 0.92386 0.6702 0.0
O302 O 0.09755 0.79085 0.676 0.0
O303 O 0.09144 0.80267 0.63788 0.0
O304 O 0.08617 0.89242 0.69374 0.0
O305 O 0.12049 0.91753 0.68664 0.0
O306 O 0.09 0.99146 0.65613 0.0
O307 O 0.07641 0.91086 0.64412 0.0
O308 O 0.15576 0.0359 0.66078 0.0
O309 O 0.12327 0.0429 0.68198 0.0
O310 O 0.1361 0.98149 0.62014 0.0
O311 O 0.11945 0.91742 0.63392 0.0
H312 H 0.07059 0.69911 0.62772 0.0
H313 H 0.08093 0.6082 0.62326 0.0
H314 H 0.14162 0.63026 0.66922 0.0
H315 H 0.13154 0.72163 0.67302 0.0
H316 H 0.14939 0.14377 0.70529 0.0
H317 H 0.14591 0.23576 0.69728 0.0
H318 H 0.12919 0.20225 0.62354 0.0
H319 H 0.13216 0.10974 0.63198 0.0
Ho320 Ho 0.63008 0.58847 0.1578 0.0
Ho321 Ho 0.60526 0.69104 0.15983 0.0
C322 C 0.57293 0.59672 0.14997 0.0
C323 C 0.64488 0.49464 0.16366 0.0
C324 C 0.63684 0.44052 0.16335 0.0
C325 C 0.64025 0.41032 0.18379 0.0
C326 C 0.6351 0.35776 0.18346 0.0
C327 C 0.62653 0.33406 0.16259 0.0
C328 C 0.62258 0.36462 0.14226 0.0
C329 C 0.62766 0.41734 0.14263 0.0
C330 C 0.63019 0.64044 0.11593 0.0
C331 C 0.66203 0.68634 0.16704 0.0
C332 C 0.59029 0.78499 0.15488 0.0
C333 C 0.59786 0.83933 0.15752 0.0
C334 C 0.6098 0.8647 0.13893 0.0
C335 C 0.61422 0.91759 0.14032 0.0
C336 C 0.60669 0.94648 0.16026 0.0
C337 C 0.59536 0.92075 0.17912 0.0
C338 C 0.59091 0.86792 0.17772 0.0
C339 C 0.60525 0.63673 0.20127 0.0
O340 O 0.59095 0.56745 0.15695 0.0
O341 O 0.57545 0.64602 0.14568 0.0
O342 O 0.64596 0.51909 0.14335 0.0
O343 O 0.63714 0.52377 0.18109 0.0
O344 O 0.64809 0.61477 0.12432 0.0
O345 O 0.61279 0.63684 0.13011 0.0
O346 O 0.6435 0.71388 0.16033 0.0
O347 O 0.66058 0.63619 0.1705 0.0
O348 O 0.58747 0.7582 0.17438 0.0
O349 O 0.59967 0.75782 0.13754 0.0
O350 O 0.5874 0.66373 0.19373 0.0
O351 O 0.6224 0.64175 0.18703 0.0
H352 H 0.64751 0.42716 0.19992 0.0
H353 H 0.63861 0.33535 0.19934 0.0
H354 H 0.61571 0.34769 0.12599 0.0
H355 H 0.62483 0.4396 0.12657 0.0
H356 H 0.61512 0.84407 0.12295 0.0
H357 H 0.62275 0.93617 0.12534 0.0
H358 H 0.58963 0.94158 0.1949 0.0
H359 H 0.58145 0.84973 0.19224 0.0
Ho360 Ho 0.34972 0.46756 0.16232 0.0
Ho361 Ho 0.37452 0.36517 0.16522 0.0
C362 C 0.40714 0.45926 0.15505 0.0
C363 C 0.33479 0.56158 0.16757 0.0
C364 C 0.34198 0.61593 0.1644 0.0
C365 C 0.3572 0.64037 0.18073 0.0
C366 C 0.36143 0.6933 0.17917 0.0
C367 C 0.35047 0.72306 0.16133 0.0
C368 C 0.3358 0.69821 0.14462 0.0
C369 C 0.33153 0.64537 0.14621 0.0
C370 C 0.35005 0.41397 0.12073 0.0
C371 C 0.31783 0.37014 0.17154 0.0
C372 C 0.38939 0.2709 0.16123 0.0
C373 C 0.3809 0.21698 0.16124 0.0
C374 C 0.38087 0.1886 0.13983 0.0
C375 C 0.37561 0.13605 0.13984 0.0
C376 C 0.37048 0.1105 0.1613 0.0
C377 C 0.36992 0.13917 0.18265 0.0
C378 C 0.37509 0.1918 0.18263 0.0
C379 C 0.37423 0.42162 0.20619 0.0
O380 O 0.38873 0.48925 0.16029 0.0
O381 O 0.40519 0.40921 0.15254 0.0
O382 O 0.33119 0.53418 0.14832 0.0
O383 O 0.34509 0.53514 0.18449 0.0
O384 O 0.33214 0.44026 0.12878 0.0
O385 O 0.3673 0.418 0.13505 0.0
O386 O 0.33624 0.34286 0.16421 0.0
O387 O 0.31949 0.42003 0.17575 0.0
O388 O 0.38879 0.29631 0.1814 0.0
O389 O 0.3836 0.29958 0.14297 0.0
O390 O 0.39218 0.3944 0.1989 0.0
O391 O 0.35715 0.41579 0.19196 0.0
H392 H 0.36533 0.61901 0.19517 0.0
H393 H 0.37262 0.71119 0.19251 0.0
H394 H 0.32735 0.71972 0.13042 0.0
H395 H 0.31954 0.62776 0.13351 0.0
H396 H 0.38561 0.20673 0.12312 0.0
H397 H 0.37647 0.11504 0.12312 0.0
H398 H 0.36574 0.12079 0.19945 0.0
H399 H 0.37508 0.21236 0.19949 0.0
Ho400 Ho 0.63102 0.48006 0.393 0.0
Ho401 Ho 0.60683 0.36915 0.39501 0.0
C402 C 0.57465 0.46588 0.40535 0.0
C403 C 0.64431 0.56843 0.37676 0.0
C404 C 0.6425 0.62372 0.38248 0.0
C405 C 0.64693 0.65963 0.36445 0.0
C406 C 0.64505 0.7124 0.36909 0.0
C407 C 0.63871 0.73051 0.39196 0.0
C408 C 0.63425 0.69419 0.41005 0.0
C409 C 0.63611 0.64125 0.40534 0.0
C410 C 0.62797 0.44787 0.43914 0.0
C411 C 0.66352 0.37807 0.38931 0.0
C412 C 0.59337 0.27485 0.40083 0.0
C413 C 0.60213 0.22198 0.40506 0.0
C414 C 0.58834 0.18877 0.41895 0.0
C415 C 0.59408 0.13648 0.42054 0.0
C416 C 0.61376 0.11609 0.40816 0.0
C417 C 0.62826 0.15002 0.39515 0.0
C418 C 0.62249 0.20249 0.3936 0.0
C419 C 0.60549 0.42206 0.35308 0.0
O420 O 0.59144 0.49566 0.3961 0.0
O421 O 0.57797 0.4167 0.41004 0.0
O422 O 0.65741 0.54001 0.39094 0.0
O423 O 0.62455 0.54586 0.37038 0.0
O424 O 0.63721 0.49125 0.43255 0.0
O425 O 0.62106 0.42477 0.42057 0.0
O426 O 0.64538 0.35051 0.39683 0.0
O427 O 0.66167 0.42757 0.38377 0.0
O428 O 0.59814 0.29515 0.38003 0.0
O429 O 0.59472 0.30808 0.41843 0.0
O430 O 0.58814 0.39404 0.36088 0.0
O431 O 0.62248 0.41919 0.36753 0.0
H432 H 0.65169 0.6468 0.34664 0.0
H433 H 0.64816 0.73898 0.3546 0.0
H434 H 0.62953 0.70666 0.4279 0.0
H435 H 0.63255 0.61405 0.4195 0.0
H436 H 0.57257 0.20297 0.42796 0.0
H437 H 0.5828 0.1118 0.43111 0.0
H438 H 0.64348 0.13572 0.38531 0.0
H439 H 0.63346 0.22736 0.38277 0.0
Ho440 Ho 0.35022 0.58909 0.39841 0.0
Ho441 Ho 0.37506 0.6916 0.39978 0.0
C442 C 0.40699 0.59558 0.40916 0.0
C443 C 0.33653 0.49595 0.38887 0.0
C444 C 0.34368 0.44124 0.39163 0.0
C445 C 0.35275 0.41386 0.37191 0.0
C446 C 0.35725 0.36097 0.37341 0.0
C447 C 0.35261 0.33399 0.39462 0.0
C448 C 0.34391 0.36155 0.41448 0.0
C449 C 0.33946 0.41452 0.413 0.0
C450 C 0.34949 0.63503 0.44192 0.0
C451 C 0.31859 0.68911 0.39083 0.0
C452 C 0.38978 0.78464 0.40738 0.0
C453 C 0.38348 0.83922 0.40315 0.0
C454 C 0.36239 0.86122 0.41204 0.0
C455 C 0.35823 0.91425 0.41001 0.0
C456 C 0.37507 0.9464 0.39906 0.0
C457 C 0.39576 0.92382 0.38949 0.0
C458 C 0.39993 0.87097 0.3916 0.0
C459 C 0.3747 0.64252 0.35669 0.0
O460 O 0.38942 0.56767 0.40028 0.0
O461 O 0.40396 0.64431 0.41478 0.0
O462 O 0.33009 0.52144 0.40799 0.0
O463 O 0.34897 0.52402 0.3742 0.0
O464 O 0.33224 0.60852 0.43292 0.0
O465 O 0.36698 0.63415 0.42773 0.0
O466 O 0.33687 0.71529 0.39897 0.0
O467 O 0.32026 0.63944 0.38574 0.0
O468 O 0.39609 0.75711 0.38884 0.0
O469 O 0.37684 0.7588 0.42254 0.0
O470 O 0.39268 0.668 0.36486 0.0
O471 O 0.3578 0.64633 0.37124 0.0
H472 H 0.35579 0.43309 0.35506 0.0
H473 H 0.36363 0.34091 0.35766 0.0
H474 H 0.3404 0.34211 0.43117 0.0
H475 H 0.33227 0.43423 0.42848 0.0
H476 H 0.34937 0.83778 0.4211 0.0
H477 H 0.34219 0.93026 0.41774 0.0
H478 H 0.4089 0.9471 0.38053 0.0
H479 H 0.41634 0.855 0.38464 0.0
Ho480 Ho 0.37248 0.36498 0.8999 0.0
Ho481 Ho 0.34855 0.46929 0.89712 0.0
C482 C 0.31617 0.37048 0.8907 0.0
C483 C 0.38662 0.2723 0.90963 0.0
C484 C 0.37929 0.21791 0.90866 0.0
C485 C 0.38612 0.18528 0.92732 0.0
C486 C 0.38136 0.13261 0.92622 0.0
C487 C 0.36971 0.11127 0.90634 0.0
C488 C 0.36218 0.14441 0.88795 0.0
C489 C 0.36694 0.19729 0.88909 0.0
C490 C 0.37242 0.41055 0.85619 0.0
C491 C 0.40561 0.46003 0.90692 0.0
C492 C 0.33544 0.56208 0.88606 0.0
C493 C 0.34166 0.61693 0.8896 0.0
C494 C 0.34855 0.64631 0.8698 0.0
C495 C 0.35225 0.69929 0.87203 0.0
C496 C 0.34899 0.72432 0.89411 0.0
C497 C 0.34258 0.69465 0.91407 0.0
C498 C 0.33891 0.64156 0.91184 0.0
C499 C 0.34807 0.42709 0.94134 0.0
O500 O 0.334 0.34407 0.89983 0.0
O501 O 0.31856 0.4193 0.88448 0.0
O502 O 0.3909 0.29535 0.88938 0.0
O503 O 0.37566 0.30202 0.92501 0.0
O504 O 0.39014 0.38426 0.86456 0.0
O505 O 0.35556 0.40931 0.87087 0.0
O506 O 0.3879 0.48878 0.89871 0.0
O507 O 0.40254 0.41152 0.91267 0.0
O508 O 0.32696 0.5367 0.90426 0.0
O509 O 0.34987 0.53423 0.87302 0.0
O510 O 0.33108 0.45467 0.93238 0.0
O511 O 0.36527 0.42569 0.92683 0.0
H512 H 0.39558 0.20043 0.94262 0.0
H513 H 0.38698 0.10853 0.94093 0.0
H514 H 0.35328 0.12928 0.87233 0.0
H515 H 0.36143 0.22179 0.87449 0.0
H516 H 0.35063 0.62843 0.85241 0.0
H517 H 0.35755 0.72069 0.85637 0.0
H518 H 0.33969 0.71268 0.93129 0.0
H519 H 0.33341 0.62015 0.92743 0.0
Ho520 Ho 0.60482 0.68508 0.89411 0.0
Ho521 Ho 0.62966 0.58289 0.89256 0.0
C522 C 0.66124 0.68177 0.88448 0.0
C523 C 0.58995 0.77868 0.90095 0.0
C524 C 0.59661 0.83322 0.89729 0.0
C525 C 0.61592 0.85569 0.90927 0.0
C526 C 0.6201 0.9087 0.90755 0.0
C527 C 0.60506 0.94043 0.89387 0.0
C528 C 0.58624 0.91741 0.88133 0.0
C529 C 0.58203 0.86458 0.88311 0.0
C530 C 0.60401 0.63486 0.85139 0.0
C531 C 0.57298 0.59021 0.90428 0.0
C532 C 0.64326 0.4894 0.88303 0.0
C533 C 0.63588 0.43494 0.88556 0.0
C534 C 0.63013 0.40626 0.86508 0.0
C535 C 0.62551 0.35351 0.86663 0.0
C536 C 0.62671 0.32798 0.8887 0.0
C537 C 0.63203 0.35692 0.90929 0.0
C538 C 0.63657 0.40976 0.90775 0.0
C539 C 0.63112 0.62933 0.93604 0.0
O540 O 0.64302 0.70824 0.89287 0.0
O541 O 0.65953 0.63217 0.87945 0.0
O542 O 0.58483 0.75152 0.88198 0.0
O543 O 0.60172 0.75219 0.91688 0.0
O544 O 0.58588 0.65871 0.86049 0.0
O545 O 0.62151 0.63945 0.86511 0.0
O546 O 0.59049 0.56199 0.89517 0.0
O547 O 0.57605 0.63893 0.90975 0.0
O548 O 0.64935 0.51449 0.90232 0.0
O549 O 0.63126 0.51804 0.86812 0.0
O550 O 0.64833 0.60294 0.92661 0.0
O551 O 0.61337 0.6282 0.92222 0.0
H552 H 0.62745 0.83265 0.92045 0.0
H553 H 0.63464 0.92503 0.91762 0.0
H554 H 0.57457 0.94032 0.87025 0.0
H555 H 0.56697 0.84837 0.87377 0.0
H556 H 0.6298 0.4244 0.84769 0.0
H557 H 0.62177 0.33239 0.85036 0.0
H558 H 0.63281 0.33864 0.92662 0.0
H559 H 0.64107 0.43057 0.9239 0.0
Ho560 Ho 0.3749 0.69028 0.66652 0.0
Ho561 Ho 0.34966 0.58889 0.66173 0.0
C562 C 0.31805 0.68736 0.67128 0.0
C563 C 0.39009 0.78424 0.66426 0.0
C564 C 0.38163 0.83833 0.66321 0.0
C565 C 0.38561 0.86724 0.64245 0.0
C566 C 0.3803 0.91988 0.6419 0.0
C567 C 0.37107 0.945 0.66219 0.0
C568 C 0.36652 0.91577 0.68278 0.0
C569 C 0.37173 0.86304 0.68329 0.0
C570 C 0.37424 0.63148 0.70651 0.0
C571 C 0.40722 0.59524 0.65548 0.0
C572 C 0.33427 0.49516 0.66523 0.0
C573 C 0.34186 0.44056 0.66311 0.0
C574 C 0.35358 0.41549 0.68197 0.0
C575 C 0.35801 0.36245 0.68096 0.0
C576 C 0.35072 0.33311 0.66112 0.0
C577 C 0.33956 0.35853 0.64202 0.0
C578 C 0.33511 0.4115 0.64305 0.0
C579 C 0.35046 0.64543 0.62116 0.0
O580 O 0.33676 0.71403 0.66473 0.0
O581 O 0.31928 0.63719 0.67486 0.0
O582 O 0.38712 0.75924 0.68424 0.0
O583 O 0.38653 0.7553 0.64545 0.0
O584 O 0.39226 0.65867 0.69981 0.0
O585 O 0.35723 0.63847 0.69227 0.0
O586 O 0.3886 0.5658 0.66 0.0
O587 O 0.40564 0.64554 0.6539 0.0
O588 O 0.33306 0.52218 0.64563 0.0
O589 O 0.34231 0.52191 0.68327 0.0
O590 O 0.33236 0.61943 0.62863 0.0
O591 O 0.36758 0.63949 0.6355 0.0
H592 H 0.3935 0.84943 0.62681 0.0
H593 H 0.38427 0.94127 0.62584 0.0
H594 H 0.35914 0.9338 0.69861 0.0
H595 H 0.36851 0.84202 0.69963 0.0
H596 H 0.35875 0.43649 0.69787 0.0
H597 H 0.36638 0.34416 0.69613 0.0
H598 H 0.33402 0.33739 0.6263 0.0
H599 H 0.32581 0.42951 0.62834 0.0
Ho600 Ho 0.60313 0.35358 0.66078 0.0
Ho601 Ho 0.62895 0.46308 0.66085 0.0
C602 C 0.66028 0.35977 0.66416 0.0
C603 C 0.58901 0.25919 0.65684 0.0
C604 C 0.59799 0.20618 0.65317 0.0
C605 C 0.58351 0.17036 0.64148 0.0
C606 C 0.59006 0.11838 0.64029 0.0
C607 C 0.61127 0.10096 0.65085 0.0
C608 C 0.62621 0.13744 0.66179 0.0
C609 C 0.61964 0.18952 0.66296 0.0
C610 C 0.60281 0.4101 0.70171 0.0
C611 C 0.57219 0.45123 0.64933 0.0
C612 C 0.64318 0.55153 0.67652 0.0
C613 C 0.64038 0.60715 0.67207 0.0
C614 C 0.64616 0.64182 0.69034 0.0
C615 C 0.64339 0.69482 0.68705 0.0
C616 C 0.6347 0.71447 0.66535 0.0
C617 C 0.62904 0.67948 0.64693 0.0
C618 C 0.63179 0.62624 0.65029 0.0
C619 C 0.62459 0.4271 0.61541 0.0
O620 O 0.6414 0.33281 0.6581 0.0
O621 O 0.65944 0.40979 0.66899 0.0
O622 O 0.59431 0.28128 0.67718 0.0
O623 O 0.58995 0.2909 0.63873 0.0
O624 O 0.58484 0.38352 0.69422 0.0
O625 O 0.61987 0.40468 0.68739 0.0
O626 O 0.58964 0.48111 0.65726 0.0
O627 O 0.57458 0.40133 0.64562 0.0
O628 O 0.65481 0.52436 0.66051 0.0
O629 O 0.62448 0.52775 0.68485 0.0
O630 O 0.63488 0.47014 0.62095 0.0
O631 O 0.61761 0.40644 0.63447 0.0
H632 H 0.56667 0.18229 0.63395 0.0
H633 H 0.57795 0.09152 0.63197 0.0
H634 H 0.64284 0.12562 0.66979 0.0
H635 H 0.63113 0.21644 0.67208 0.0
H636 H 0.65282 0.62785 0.70728 0.0
H637 H 0.64828 0.72045 0.70149 0.0
H638 H 0.62209 0.69317 0.63008 0.0
H639 H 0.62708 0.60003 0.63599 0.0
H640 H 0.20241 0.14958 0.18596 0.0
H641 H 0.17173 0.2878 0.15594 0.0
H642 H 0.24007 0.19428 0.19113 0.0
H643 H 0.20932 0.33164 0.16046 0.0
H644 H 0.27524 0.41078 0.18636 0.0
H645 H 0.2372 0.36646 0.18885 0.0
H646 H 0.27087 0.2254 0.16519 0.0
H647 H 0.30872 0.26885 0.16336 0.0
C648 C 0.20369 0.18938 0.18046 0.0
C649 C 0.18415 0.21496 0.17038 0.0
C650 C 0.22525 0.21497 0.18337 0.0
C651 C 0.22768 0.2665 0.17617 0.0
C652 C 0.20796 0.29224 0.16655 0.0
C653 C 0.18645 0.26683 0.16374 0.0
C654 C 0.27452 0.37021 0.18192 0.0
C655 C 0.29496 0.3435 0.17449 0.0
C656 C 0.25274 0.34487 0.18326 0.0
C657 C 0.25101 0.29245 0.17713 0.0
C658 C 0.27161 0.26556 0.17036 0.0
C659 C 0.29332 0.29073 0.16911 0.0
H660 H 0.80893 0.7678 0.15803 0.0
H661 H 0.77638 0.90888 0.18335 0.0
H662 H 0.77126 0.724 0.16146 0.0
H663 H 0.7386 0.86424 0.1875 0.0
H664 H 0.67169 0.78668 0.15747 0.0
H665 H 0.70939 0.83042 0.16067 0.0
H666 H 0.74167 0.69164 0.18825 0.0
H667 H 0.70384 0.647 0.18435 0.0
C668 C 0.7938 0.78939 0.16465 0.0
C669 C 0.79561 0.84205 0.17021 0.0
C670 C 0.7722 0.76403 0.16682 0.0
C671 C 0.7519 0.79059 0.17472 0.0
C672 C 0.75386 0.84289 0.18102 0.0
C673 C 0.7755 0.86843 0.17872 0.0
C674 C 0.68675 0.76539 0.16437 0.0
C675 C 0.68481 0.71313 0.17046 0.0
C676 C 0.70836 0.79074 0.1664 0.0
C677 C 0.72855 0.76458 0.17472 0.0
C678 C 0.72649 0.71267 0.18148 0.0
C679 C 0.70482 0.68713 0.17931 0.0
H680 H 0.27654 0.65229 0.37307 0.0
H681 H 0.30988 0.79042 0.39995 0.0
H682 H 0.23924 0.69958 0.3687 0.0
H683 H 0.27273 0.83679 0.39621 0.0
H684 H 0.20595 0.91823 0.37227 0.0
H685 H 0.24366 0.87178 0.36891 0.0
H686 H 0.21023 0.73451 0.39601 0.0
H687 H 0.17282 0.77985 0.39881 0.0
C688 C 0.27595 0.69262 0.37799 0.0
C689 C 0.29612 0.71737 0.38705 0.0
C690 C 0.25459 0.7197 0.37555 0.0
C691 C 0.25302 0.77193 0.38219 0.0
C692 C 0.27339 0.79687 0.39061 0.0
C693 C 0.29468 0.76997 0.39297 0.0
C694 C 0.20668 0.87809 0.37737 0.0
C695 C 0.18639 0.85298 0.38592 0.0
C696 C 0.22826 0.8515 0.37548 0.0
C697 C 0.22991 0.7994 0.38214 0.0
C698 C 0.20951 0.77428 0.39031 0.0
C699 C 0.18805 0.80064 0.39214 0.0
H700 H 0.77483 0.14705 0.37255 0.0
H701 H 0.81099 0.28986 0.38799 0.0
H702 H 0.73719 0.19385 0.37071 0.0
H703 H 0.77362 0.33573 0.38689 0.0
H704 H 0.70418 0.41256 0.36764 0.0
H705 H 0.74143 0.3653 0.36236 0.0
H706 H 0.71159 0.23511 0.39943 0.0
H707 H 0.67451 0.28126 0.40413 0.0
C708 C 0.7748 0.18829 0.37545 0.0
C709 C 0.79591 0.21449 0.38062 0.0
C710 C 0.75325 0.21508 0.3745 0.0
C711 C 0.75241 0.2685 0.37879 0.0
C712 C 0.77363 0.29478 0.38319 0.0
C713 C 0.7951 0.26818 0.38404 0.0
C714 C 0.70562 0.37386 0.37462 0.0
C715 C 0.68641 0.35085 0.38636 0.0
C716 C 0.72693 0.34677 0.3716 0.0
C717 C 0.72942 0.29631 0.38038 0.0
C718 C 0.71014 0.27343 0.39201 0.0
C719 C 0.6889 0.30027 0.39491 0.0
H720 H 0.67034 0.78263 0.89393 0.0
H721 H 0.70319 0.64369 0.86653 0.0
H722 H 0.7077 0.82757 0.89036 0.0
H723 H 0.74071 0.68952 0.86234 0.0
H724 H 0.80753 0.76786 0.89266 0.0
H725 H 0.7701 0.72313 0.88936 0.0
H726 H 0.73675 0.86194 0.86316 0.0
H727 H 0.77437 0.90758 0.86708 0.0
C728 C 0.68548 0.76172 0.88686 0.0
C729 C 0.68382 0.7093 0.88072 0.0
C730 C 0.7069 0.78778 0.8846 0.0
C731 C 0.7272 0.7622 0.87607 0.0
C732 C 0.72542 0.71014 0.86925 0.0
C733 C 0.70393 0.68391 0.87158 0.0
C734 C 0.7923 0.789 0.88605 0.0
C735 C 0.79391 0.84156 0.88034 0.0
C736 C 0.77084 0.76305 0.88394 0.0
C737 C 0.75042 0.78889 0.876 0.0
C738 C 0.75213 0.84111 0.86961 0.0
C739 C 0.77367 0.86722 0.87178 0.0
H740 H 0.27527 0.40779 0.87035 0.0
H741 H 0.30603 0.27101 0.90165 0.0
H742 H 0.2379 0.36197 0.86473 0.0
H743 H 0.26882 0.22612 0.8966 0.0
H744 H 0.20371 0.14432 0.87073 0.0
H745 H 0.24148 0.18979 0.86793 0.0
H746 H 0.20688 0.33056 0.89052 0.0
H747 H 0.16935 0.28599 0.8927 0.0
C748 C 0.27408 0.36807 0.87601 0.0
C749 C 0.29357 0.34326 0.88661 0.0
C750 C 0.2527 0.34184 0.87283 0.0
C751 C 0.2504 0.29037 0.88022 0.0
C752 C 0.27007 0.2654 0.89034 0.0
C753 C 0.29138 0.29147 0.89347 0.0
C754 C 0.20417 0.18507 0.87483 0.0
C755 C 0.18357 0.21131 0.88218 0.0
C756 C 0.22579 0.21108 0.87331 0.0
C757 C 0.22719 0.26376 0.87912 0.0
C758 C 0.20641 0.29021 0.88564 0.0
C759 C 0.18488 0.26436 0.88712 0.0
H760 H 0.66806 0.25864 0.65374 0.0
H761 H 0.70395 0.39634 0.67765 0.0
H762 H 0.70514 0.2115 0.65476 0.0
H763 H 0.74132 0.34827 0.67898 0.0
H764 H 0.77289 0.12994 0.67812 0.0
H765 H 0.73546 0.17745 0.6818 0.0
H766 H 0.76798 0.3102 0.64931 0.0
H767 H 0.8051 0.26379 0.646 0.0
C768 C 0.68382 0.27888 0.65946 0.0
C769 C 0.68302 0.33149 0.66555 0.0
C770 C 0.70508 0.25155 0.6602 0.0
C771 C 0.7261 0.27608 0.66701 0.0
C772 C 0.72536 0.32849 0.67345 0.0
C773 C 0.70399 0.35599 0.67273 0.0
C774 C 0.772 0.16923 0.6718 0.0
C775 C 0.79198 0.19292 0.66177 0.0
C776 C 0.75061 0.19642 0.67389 0.0
C777 C 0.74889 0.24768 0.666 0.0
C778 C 0.76887 0.27118 0.65601 0.0
C779 C 0.79013 0.24419 0.65392 0.0
H780 H 0.20291 0.91214 0.68453 0.0
H781 H 0.17255 0.77499 0.65325 0.0
H782 H 0.24058 0.86664 0.68956 0.0
H783 H 0.21008 0.73046 0.65767 0.0
H784 H 0.2749 0.64852 0.68481 0.0
H785 H 0.23704 0.69449 0.68653 0.0
H786 H 0.27194 0.83419 0.66439 0.0
H787 H 0.30962 0.7891 0.66338 0.0
C788 C 0.20427 0.87248 0.67866 0.0
C789 C 0.18475 0.84736 0.66842 0.0
C790 C 0.22583 0.84642 0.68151 0.0
C791 C 0.22829 0.79487 0.67407 0.0
C792 C 0.20869 0.76979 0.66401 0.0
C793 C 0.18719 0.79564 0.66127 0.0
C794 C 0.27449 0.68914 0.68054 0.0
C795 C 0.29523 0.71498 0.67378 0.0
C796 C 0.25281 0.71543 0.68142 0.0
C797 C 0.25148 0.76795 0.67547 0.0
C798 C 0.27237 0.79398 0.66939 0.0
C799 C 0.29398 0.76786 0.66861 0.0
H800 H 0.14165 0.97883 0.33369 0.0
H801 H 0.06883 0.9368 0.32097 0.0
H802 H 0.14143 0.0316 0.29782 0.0
H803 H 0.06877 0.98767 0.28436 0.0
H804 H 0.06837 0.12343 0.23265 0.0
H805 H 0.06845 0.07189 0.26898 0.0
H806 H 0.14168 0.03017 0.25595 0.0
H807 H 0.14174 0.0838 0.22028 0.0
C808 C 0.12558 0.98072 0.32312 0.0
C809 C 0.10519 0.95397 0.33032 0.0
C810 C 0.1255 1.01066 0.30234 0.0
C811 C 0.10509 1.01423 0.28791 0.0
C812 C 0.08474 0.98684 0.29507 0.0
C813 C 0.08478 0.95723 0.31601 0.0
C814 C 0.0845 0.10335 0.23763 0.0
C815 C 0.10501 0.10756 0.2235 0.0
C816 C 0.08452 0.07331 0.2584 0.0
C817 C 0.10505 0.04635 0.26561 0.0
C818 C 0.12558 0.05073 0.25135 0.0
C819 C 0.12559 0.08113 0.23068 0.0
H820 H 0.83918 0.08909 0.33074 0.0
H821 H 0.91205 0.12994 0.31747 0.0
H822 H 0.83915 0.03514 0.2951 0.0
H823 H 0.91181 0.07817 0.28095 0.0
H824 H 0.91204 0.94041 0.23003 0.0
H825 H 0.91215 0.99388 0.26591 0.0
H826 H 0.83862 0.03361 0.25349 0.0
H827 H 0.83835 0.97773 0.2184 0.0
C828 C 0.8552 0.08673 0.32008 0.0
C829 C 0.87572 0.11329 0.32712 0.0
C830 C 0.85513 0.05613 0.29941 0.0
C831 C 0.87549 0.05186 0.28488 0.0
C832 C 0.8959 0.07943 0.29177 0.0
C833 C 0.89601 0.1096 0.31264 0.0
C834 C 0.89589 0.96047 0.23505 0.0
C835 C 0.87523 0.95504 0.22126 0.0
C836 C 0.89598 0.99165 0.25556 0.0
C837 C 0.87543 1.01866 0.26281 0.0
C838 C 0.85475 1.0131 0.24886 0.0
C839 C 0.85462 0.98146 0.2285 0.0
H840 H 0.83697 0.06747 0.71639 0.0
H841 H 0.90946 0.11157 0.7295 0.0
H842 H 0.83724 1.01513 0.75239 0.0
H843 H 0.90956 0.06102 0.76624 0.0
H844 H 0.90994 0.92673 0.81894 0.0
H845 H 0.91004 0.97682 0.78211 0.0
H846 H 0.83666 1.01848 0.79425 0.0
H847 H 0.83643 0.96651 0.83039 0.0
C848 C 0.85298 0.06611 0.72706 0.0
C849 C 0.87325 0.09339 0.71997 0.0
C850 C 0.85309 0.0364 0.74791 0.0
C851 C 0.87341 0.03359 0.7625 0.0
C852 C 0.89367 0.06133 0.7554 0.0
C853 C 0.8936 0.09074 0.7344 0.0
C854 C 0.89382 0.94643 0.81363 0.0
C855 C 0.87321 0.94276 0.82765 0.0
C856 C 0.8939 0.97562 0.79258 0.0
C857 C 0.87338 1.00215 0.78499 0.0
C858 C 0.85275 0.99819 0.79912 0.0
C859 C 0.85264 0.9687 0.82005 0.0
H860 H 0.06719 0.12712 0.82066 0.0
H861 H 0.14064 0.08685 0.83183 0.0
H862 H 0.06681 0.07559 0.78406 0.0
H863 H 0.14012 0.0335 0.79598 0.0
H864 H 0.13956 0.97971 0.7188 0.0
H865 H 0.13944 0.03456 0.75418 0.0
H866 H 0.06697 0.99077 0.76868 0.0
H867 H 0.0669 0.93776 0.73253 0.0
C868 C 0.08324 0.10705 0.81533 0.0
C869 C 0.10391 0.11097 0.82921 0.0
C870 C 0.083 0.07703 0.79441 0.0
C871 C 0.10342 0.04992 0.78684 0.0
C872 C 0.12412 0.05422 0.80082 0.0
C873 C 0.12438 0.08453 0.82159 0.0
C874 C 0.12353 0.98215 0.72945 0.0
C875 C 0.10318 0.95467 0.72272 0.0
C876 C 0.12352 1.01328 0.74996 0.0
C877 C 0.10321 1.01734 0.76458 0.0
C878 C 0.08285 0.98952 0.75781 0.0
C879 C 0.08283 0.9587 0.73714 0.0
H880 H 0.64171 0.47899 0.33455 0.0
H881 H 0.56921 0.43536 0.32116 0.0
H882 H 0.64162 0.53149 0.29857 0.0
H883 H 0.56929 0.48594 0.28447 0.0
H884 H 0.56867 0.62061 0.23231 0.0
H885 H 0.56872 0.56982 0.26885 0.0
H886 H 0.64229 0.52981 0.25668 0.0
H887 H 0.64237 0.58277 0.22077 0.0
C888 C 0.62573 0.48051 0.32383 0.0
C889 C 0.60539 0.45335 0.33086 0.0
C890 C 0.62573 0.51028 0.30298 0.0
C891 C 0.60545 0.51329 0.28833 0.0
C892 C 0.58515 0.48556 0.29535 0.0
C893 C 0.58512 0.45612 0.31634 0.0
C894 C 0.58487 0.60107 0.23751 0.0
C895 C 0.60548 0.60554 0.22353 0.0
C896 C 0.58487 0.57145 0.25842 0.0
C897 C 0.60548 0.54515 0.26593 0.0
C898 C 0.62612 0.54984 0.25184 0.0
C899 C 0.62614 0.57982 0.23102 0.0
H900 H 0.33752 0.58935 0.33743 0.0
H901 H 0.41095 0.62656 0.32497 0.0
H902 H 0.33732 0.5356 0.30166 0.0
H903 H 0.41059 0.57503 0.28845 0.0
H904 H 0.41042 0.43777 0.2376 0.0
H905 H 0.41031 0.49074 0.27361 0.0
H906 H 0.33743 0.53391 0.25988 0.0
H907 H 0.33735 0.47863 0.22454 0.0
C908 C 0.35362 0.58624 0.32694 0.0
C909 C 0.37433 0.61179 0.33421 0.0
C910 C 0.35347 0.55575 0.3062 0.0
C911 C 0.37396 0.55047 0.29192 0.0
C912 C 0.39456 0.57702 0.29907 0.0
C913 C 0.39475 0.60708 0.31995 0.0
C914 C 0.39435 0.45847 0.24234 0.0
C915 C 0.37394 0.45417 0.22811 0.0
C916 C 0.39433 0.48936 0.26294 0.0
C917 C 0.37391 0.51726 0.26985 0.0
C918 C 0.35345 0.51273 0.2555 0.0
C919 C 0.35343 0.48138 0.23502 0.0
H920 H 0.40882 0.42284 0.82432 0.0
H921 H 0.33596 0.46642 0.83702 0.0
H922 H 0.40904 0.47404 0.78784 0.0
H923 H 0.33635 0.51957 0.80125 0.0
H924 H 0.33692 0.57611 0.72435 0.0
H925 H 0.33648 0.52039 0.75935 0.0
H926 H 0.4097 0.55879 0.77339 0.0
H927 H 0.4103 0.6123 0.73774 0.0
C928 C 0.39286 0.44356 0.81935 0.0
C929 C 0.37243 0.44076 0.83365 0.0
C930 C 0.39301 0.4734 0.79849 0.0
C931 C 0.37275 0.50155 0.79142 0.0
C932 C 0.35224 0.49813 0.80574 0.0
C933 C 0.35205 0.46794 0.82645 0.0
C934 C 0.35297 0.57217 0.7348 0.0
C935 C 0.37369 0.5983 0.72811 0.0
C936 C 0.35269 0.54059 0.75509 0.0
C937 C 0.37308 0.53468 0.76944 0.0
C938 C 0.39375 0.5613 0.76271 0.0
C939 C 0.39406 0.5925 0.74232 0.0
H940 H 0.64083 0.61426 0.82117 0.0
H941 H 0.56665 0.583 0.83199 0.0
H942 H 0.64048 0.56355 0.78462 0.0
H943 H 0.56642 0.52806 0.79676 0.0
H944 H 0.5653 0.45973 0.72259 0.0
H945 H 0.56553 0.51591 0.75742 0.0
H946 H 0.64101 0.48874 0.76537 0.0
H947 H 0.6407 0.43675 0.72923 0.0
C948 C 0.62447 0.59583 0.81579 0.0
C949 C 0.60373 0.60295 0.82931 0.0
C950 C 0.62424 0.56598 0.79485 0.0
C951 C 0.60342 0.54069 0.78718 0.0
C952 C 0.58276 0.54746 0.80122 0.0
C953 C 0.58285 0.57877 0.82172 0.0
C954 C 0.58191 0.46619 0.73181 0.0
C955 C 0.60296 0.44385 0.72319 0.0
C956 C 0.58211 0.49817 0.75209 0.0
C957 C 0.60328 0.50746 0.7649 0.0
C958 C 0.62432 0.48429 0.75612 0.0
C959 C 0.62419 0.45374 0.73539 0.0
H960 H 0.09304 0.17169 0.96287 0.0
H961 H 0.16431 0.11194 0.96909 0.0
H962 H 0.09171 0.18505 1.00632 0.0
H963 H 0.16276 0.12278 1.01191 0.0
H964 H 0.16458 0.17273 0.08667 0.0
H965 H 0.16369 0.17998 0.04339 0.0
H966 H 0.08912 0.14164 0.04362 0.0
H967 H 0.08993 0.13759 0.08731 0.0
C968 C 0.10842 0.16163 0.97349 0.0
C969 C 0.12878 0.14079 0.96251 0.0
C970 C 0.10763 0.16889 0.99843 0.0
C971 C 0.12718 0.15534 1.01291 0.0
C972 C 0.14752 0.13505 1.00162 0.0
C973 C 0.14835 0.12828 0.97689 0.0
C974 C 0.14789 0.16695 0.07747 0.0
C975 C 0.12739 0.15434 0.09034 0.0
C976 C 0.14739 0.17046 0.05256 0.0
C977 C 0.12647 0.16001 0.03967 0.0
C978 C 0.10557 0.15014 0.05274 0.0
C979 C 0.106 0.14769 0.07783 0.0
H980 H 0.88464 0.88142 0.96117 0.0
H981 H 0.81297 0.93862 0.9681 0.0
H982 H 0.88634 0.86825 1.00454 0.0
H983 H 0.81486 0.92795 1.01091 0.0
H984 H 0.81425 0.87904 0.08575 0.0
H985 H 0.8147 0.87121 0.04245 0.0
H986 H 0.88894 0.91237 0.04169 0.0
H987 H 0.8886 0.91708 0.08536 0.0
C988 C 0.86924 0.89095 0.97193 0.0
C989 C 0.84867 0.91106 0.96118 0.0
C990 C 0.87024 0.8838 0.99683 0.0
C991 C 0.85071 0.89675 1.01151 0.0
C992 C 0.83012 0.9162 1.00044 0.0
C993 C 0.82908 0.92286 0.97574 0.0
C994 C 0.83078 0.8853 0.07632 0.0
C995 C 0.85132 0.89893 0.0889 0.0
C996 C 0.83103 0.88144 0.0514 0.0
C997 C 0.85171 0.89249 0.03824 0.0
C998 C 0.87267 0.90337 0.05103 0.0
C999 C 0.87251 0.90619 0.07611 0.0
H1000 H 0.15342 0.99381 0.47361 0.0
H1001 H 0.10096 0.87655 0.46076 0.0
H1002 H 0.1525 0.97576 0.51584 0.0
H1003 H 0.10003 0.85782 0.50405 0.0
H1004 H 0.0878 0.91263 0.58731 0.0
H1005 H 0.08776 0.90409 0.54349 0.0
H1006 H 0.16433 0.90843 0.54354 0.0
H1007 H 0.16416 0.91886 0.58678 0.0
C1008 C 0.14179 0.96357 0.47982 0.0
C1009 C 0.12736 0.93645 0.46376 0.0
C1010 C 0.1414 0.95291 0.50416 0.0
C1011 C 0.12644 0.9148 0.51346 0.0
C1012 C 0.11183 0.8873 0.49746 0.0
C1013 C 0.11245 0.89773 0.47271 0.0
C1014 C 0.10457 0.90974 0.57791 0.0
C1015 C 0.12601 0.91621 0.59033 0.0
C1016 C 0.10457 0.905 0.55282 0.0
C1017 C 0.12604 0.90659 0.53991 0.0
C1018 C 0.14745 0.90813 0.5528 0.0
C1019 C 0.14741 0.9136 0.57762 0.0
H1020 H 0.87379 0.17741 0.58999 0.0
H1021 H 0.83146 0.0429 0.57543 0.0
H1022 H 0.87476 0.19638 0.54669 0.0
H1023 H 0.8325 0.0612 0.53328 0.0
H1024 H 0.81576 0.11861 0.46354 0.0
H1025 H 0.81535 0.12713 0.50681 0.0
H1026 H 0.89087 0.15411 0.50649 0.0
H1027 H 0.89099 0.1474 0.46254 0.0
C1028 C 0.86463 0.15224 0.57766 0.0
C1029 C 0.85239 0.10889 0.58616 0.0
C1030 C 0.86527 0.16289 0.55293 0.0
C1031 C 0.85337 0.13076 0.53652 0.0
C1032 C 0.84139 0.08753 0.54532 0.0
C1033 C 0.84092 0.07683 0.56962 0.0
C1034 C 0.83214 0.1282 0.47262 0.0
C1035 C 0.85338 0.13229 0.45976 0.0
C1036 C 0.83196 0.13274 0.49744 0.0
C1037 C 0.85317 0.14012 0.5102 0.0
C1038 C 0.87423 0.14851 0.49721 0.0
C1039 C 0.87431 0.14476 0.47208 0.0
H1040 H 0.66556 0.67087 0.08664 0.0
H1041 H 0.59094 0.63546 0.08683 0.0
H1042 H 0.66493 0.67816 0.04336 0.0
H1043 H 0.59038 0.63955 0.04316 0.0
H1044 H 0.59424 0.67048 0.96266 0.0
H1045 H 0.59288 0.68297 1.00612 0.0
H1046 H 0.66429 0.62253 1.01139 0.0
H1047 H 0.66586 0.61265 0.9685 0.0
C1048 C 0.64894 0.66497 0.07734 0.0
C1049 C 0.62837 0.65235 0.0901 0.0
C1050 C 0.64858 0.66851 0.05242 0.0
C1051 C 0.62774 0.65812 0.03939 0.0
C1052 C 0.60679 0.64806 0.05236 0.0
C1053 C 0.60707 0.64558 0.07745 0.0
C1054 C 0.6097 0.66064 0.97321 0.0
C1055 C 0.63016 0.64062 0.96209 0.0
C1056 C 0.60889 0.66738 0.99817 0.0
C1057 C 0.62851 0.65404 1.01259 0.0
C1058 C 0.64897 0.63459 1.00117 0.0
C1059 C 0.64983 0.6284 0.9764 0.0
H1060 H 0.31399 0.44427 0.97445 0.0
H1061 H 0.3852 0.38471 0.96702 0.0
H1062 H 0.31603 0.43314 1.01723 0.0
H1063 H 0.38707 0.37131 1.0104 0.0
H1064 H 0.38937 0.4196 0.09164 0.0
H1065 H 0.38987 0.41557 0.04791 0.0
H1066 H 0.31562 0.37453 0.04826 0.0
H1067 H 0.31503 0.3815 0.09158 0.0
C1068 C 0.33004 0.42796 0.98198 0.0
C1069 C 0.34944 0.41551 0.96728 0.0
C1070 C 0.33116 0.42105 1.00666 0.0
C1071 C 0.35165 0.40077 1.01757 0.0
C1072 C 0.37104 0.3874 1.00278 0.0
C1073 C 0.36995 0.39471 0.97789 0.0
C1074 C 0.37332 0.40883 0.08228 0.0
C1075 C 0.35208 0.40135 0.09496 0.0
C1076 C 0.37357 0.40643 0.05718 0.0
C1077 C 0.35264 0.39586 0.04428 0.0
C1078 C 0.33193 0.38453 0.05732 0.0
C1079 C 0.3316 0.38791 0.08224 0.0
H1080 H 0.65424 0.48552 0.47489 0.0
H1081 H 0.59992 0.37308 0.46073 0.0
H1082 H 0.65267 0.466 0.517 0.0
H1083 H 0.59825 0.35298 0.50385 0.0
H1084 H 0.58586 0.40663 0.58723 0.0
H1085 H 0.58628 0.39954 0.54336 0.0
H1086 H 0.66286 0.39664 0.54449 0.0
H1087 H 0.66227 0.4054 0.58781 0.0
C1088 C 0.64207 0.45601 0.48079 0.0
C1089 C 0.6273 0.43069 0.4644 0.0
C1090 C 0.64128 0.44451 0.50505 0.0
C1091 C 0.62554 0.40742 0.51393 0.0
C1092 C 0.61064 0.38166 0.49759 0.0
C1093 C 0.61168 0.39285 0.47293 0.0
C1094 C 0.60268 0.40239 0.57805 0.0
C1095 C 0.62405 0.40626 0.59083 0.0
C1096 C 0.60295 0.3985 0.55293 0.0
C1097 C 0.62462 0.39848 0.54032 0.0
C1098 C 0.64586 0.39756 0.55352 0.0
C1099 C 0.64556 0.40205 0.57839 0.0
H1100 H 0.38978 0.63688 0.59222 0.0
H1101 H 0.31619 0.68271 0.59227 0.0
H1102 H 0.39055 0.6421 0.54856 0.0
H1103 H 0.31711 0.69098 0.54901 0.0
H1104 H 0.31464 0.62276 0.47459 0.0
H1105 H 0.31651 0.63361 0.51742 0.0
H1106 H 0.38883 0.68687 0.51145 0.0
H1107 H 0.38709 0.67363 0.46803 0.0
C1108 C 0.37398 0.64965 0.58291 0.0
C1109 C 0.35284 0.65895 0.59558 0.0
C1110 C 0.37439 0.65274 0.55784 0.0
C1111 C 0.35373 0.66587 0.54496 0.0
C1112 C 0.33318 0.67901 0.55804 0.0
C1113 C 0.33267 0.67492 0.58292 0.0
C1114 C 0.33093 0.63717 0.48231 0.0
C1115 C 0.35073 0.64715 0.46785 0.0
C1116 C 0.33197 0.64394 0.50703 0.0
C1117 C 0.35278 0.66161 0.51821 0.0
C1118 C 0.37254 0.67275 0.50364 0.0
C1119 C 0.37153 0.66557 0.47872 0.0
H1120 H 0.94809 0.90705 0.15241 0.0
H1121 H 0.91964 0.05842 0.13792 0.0
H1122 H 0.98795 0.94068 0.1514 0.0
H1123 H 0.95998 0.09211 0.13539 0.0
H1124 H 0.03118 0.14562 0.16362 0.0
H1125 H -0.00872 0.11227 0.16067 0.0
H1126 H 0.01888 0.9725 0.12849 0.0
H1127 H 0.05924 1.0053 0.13295 0.0
C1128 C 0.95044 0.94752 0.1485 0.0
C1129 C 0.93082 0.98029 0.14527 0.0
C1130 C 0.97337 0.96674 0.14772 0.0
C1131 C 0.97729 1.0191 0.14325 0.0
C1132 C 0.95761 0.05171 0.13933 0.0
C1133 C 0.93452 0.03254 0.14063 0.0
C1134 C 0.02868 0.10776 0.15587 0.0
C1135 C 0.04817 0.07785 0.14851 0.0
C1136 C 0.00576 0.08882 0.15394 0.0
C1137 C 0.00174 0.03985 0.14415 0.0
C1138 C 0.02134 1.01011 0.13647 0.0
C1139 C 0.04443 0.02874 0.13893 0.0
H1140 H 0.92348 0.99889 0.38945 0.0
H1141 H 0.94339 0.14154 0.42401 0.0
H1142 H 0.96467 0.96931 0.39199 0.0
H1143 H 0.98421 0.11195 0.42634 0.0
H1144 H 0.05752 0.06506 0.39359 0.0
H1145 H 0.01621 0.09414 0.39527 0.0
H1146 H -0.00467 0.94685 0.42362 0.0
H1147 H 0.03625 0.9177 0.42213 0.0
C1148 C 0.9365 1.02361 0.39781 0.0
C1149 C 0.93016 0.07265 0.40635 0.0
C1150 C 0.96003 1.00672 0.39927 0.0
C1151 C 0.97756 0.03874 0.40913 0.0
C1152 C 0.97108 0.08696 0.41831 0.0
C1153 C 0.94763 0.10364 0.41706 0.0
C1154 C 0.04417 0.03914 0.40045 0.0
C1155 C 0.0502 0.98903 0.40757 0.0
C1156 C 0.02057 0.05576 0.40142 0.0
C1157 C 0.00266 1.02241 0.40936 0.0
C1158 C 0.00877 0.97295 0.4171 0.0
C1159 C 0.03229 0.95651 0.41634 0.0
H1160 H 0.05649 0.99702 0.89127 0.0
H1161 H 0.0328 0.1423 0.9211 0.0
H1162 H 0.01567 0.9656 0.89252 0.0
H1163 H -0.00762 0.1108 0.92235 0.0
H1164 H 0.92074 0.05665 0.89032 0.0
H1165 H 0.96154 0.08809 0.89197 0.0
H1166 H 0.98438 0.94386 0.92259 0.0
H1167 H 0.94397 0.91233 0.92094 0.0
C1168 C 0.0427 1.02197 0.89832 0.0
C1169 C 0.0479 0.07215 0.90597 0.0
C1170 C 0.01937 1.00403 0.89905 0.0
C1171 C 0.0009 0.03607 0.90735 0.0
C1172 C 0.00622 0.08567 0.91552 0.0
C1173 C 0.02945 0.10347 0.91492 0.0
C1174 C 0.93443 0.03193 0.89763 0.0
C1175 C 0.92911 0.98201 0.90539 0.0
C1176 C 0.95774 0.04988 0.89858 0.0
C1177 C 0.97608 1.01811 0.90722 0.0
C1178 C 0.97065 0.96877 0.9155 0.0
C1179 C 0.94742 0.95096 0.91467 0.0
H1180 H 0.92221 0.98485 0.65766 0.0
H1181 H 0.94167 0.13048 0.62606 0.0
H1182 H 0.96369 0.95712 0.65551 0.0
H1183 H 0.98275 0.10269 0.62409 0.0
H1184 H 0.05544 0.05643 0.65837 0.0
H1185 H 0.01405 0.08437 0.65551 0.0
H1186 H -0.0047 0.93794 0.6243 0.0
H1187 H 0.03634 0.90996 0.62694 0.0
C1188 C 0.93519 1.01062 0.65002 0.0
C1189 C 0.92863 0.05993 0.64223 0.0
C1190 C 0.95889 0.99478 0.64877 0.0
C1191 C 0.97634 0.02813 0.63984 0.0
C1192 C 0.96966 0.07666 0.63138 0.0
C1193 C 0.94606 0.09232 0.63244 0.0
C1194 C 0.04256 0.03055 0.65057 0.0
C1195 C 0.04915 0.98087 0.64313 0.0
C1196 C 0.01891 0.04649 0.64895 0.0
C1197 C 0.00156 1.01291 0.63996 0.0
C1198 C 0.00831 0.96412 0.63168 0.0
C1199 C 0.03187 0.94834 0.63313 0.0
H1200 H 0.44787 0.41252 0.16759 0.0
H1201 H 0.42013 0.55364 0.13795 0.0
H1202 H 0.48786 0.44523 0.16456 0.0
H1203 H 0.4606 0.58582 0.13342 0.0
H1204 H 0.53209 0.64948 0.15616 0.0
H1205 H 0.49204 0.61678 0.15593 0.0
H1206 H 0.51895 0.46465 0.13896 0.0
H1207 H 0.5595 0.49742 0.14071 0.0
C1208 C 0.45045 0.45044 0.16006 0.0
C1209 C 0.43103 0.48071 0.15297 0.0
C1210 C 0.47343 0.46902 0.15809 0.0
C1211 C 0.47759 0.51798 0.14852 0.0
C1212 C 0.45805 0.54818 0.1412 0.0
C1213 C 0.4349 0.5299 0.1437 0.0
C1214 C 0.52946 0.60905 0.15221 0.0
C1215 C 0.54884 0.57582 0.14845 0.0
C1216 C 0.50641 0.59036 0.15189 0.0
C1217 C 0.50214 0.5381 0.14735 0.0
C1218 C 0.5216 0.505 0.14297 0.0
C1219 C 0.5448 0.52362 0.14382 0.0
H1220 H 0.42307 0.49998 0.39558 0.0
H1221 H 0.44535 0.64224 0.42891 0.0
H1222 H 0.46413 0.46898 0.39653 0.0
H1223 H 0.486 0.61123 0.42979 0.0
H1224 H 0.55783 0.56273 0.39533 0.0
H1225 H 0.51674 0.59269 0.3982 0.0
H1226 H 0.49585 0.44519 0.42634 0.0
H1227 H 0.53656 0.4151 0.42355 0.0
C1228 C 0.4366 0.52427 0.40336 0.0
C1229 C 0.43098 0.57361 0.412 0.0
C1230 C 0.46005 0.50659 0.40391 0.0
C1231 C 0.47819 0.53809 0.413 0.0
C1232 C 0.47241 0.58662 0.42232 0.0
C1233 C 0.44906 0.60413 0.42191 0.0
C1234 C 0.54452 0.53693 0.40236 0.0
C1235 C 0.55048 0.48651 0.40906 0.0
C1236 C 0.52104 0.55405 0.40402 0.0
C1237 C 0.50317 0.52096 0.4123 0.0
C1238 C 0.50923 0.47113 0.41955 0.0
C1239 C 0.53264 0.45414 0.41806 0.0
H1240 H 0.44485 0.41031 0.9234 0.0
H1241 H 0.42131 0.55648 0.89495 0.0
H1242 H 0.48543 0.44085 0.92401 0.0
H1243 H 0.46232 0.58697 0.89559 0.0
H1244 H 0.53458 0.63813 0.92384 0.0
H1245 H 0.49405 0.60736 0.9256 0.0
H1246 H 0.51601 0.46369 0.89326 0.0
H1247 H 0.55694 0.49444 0.89144 0.0
C1248 C 0.44826 0.44914 0.91738 0.0
C1249 C 0.4298 0.48101 0.90905 0.0
C1250 C 0.47159 0.46638 0.9176 0.0
C1251 C 0.477 0.51597 0.90967 0.0
C1252 C 0.45855 0.54852 0.90192 0.0
C1253 C 0.43511 0.53113 0.90155 0.0
C1254 C 0.53092 0.59978 0.91721 0.0
C1255 C 0.54901 0.56871 0.9074 0.0
C1256 C 0.50762 0.58242 0.9181 0.0
C1257 C 0.5019 0.53348 0.90936 0.0
C1258 C 0.52003 0.50162 0.90021 0.0
C1259 C 0.54342 0.51914 0.89918 0.0
H1260 H 0.4195 0.50194 0.63613 0.0
H1261 H 0.44828 0.63834 0.6692 0.0
H1262 H 0.45972 0.46815 0.63055 0.0
H1263 H 0.48804 0.60392 0.6651 0.0
H1264 H 0.5592 0.55115 0.64065 0.0
H1265 H 0.51884 0.58556 0.63874 0.0
H1266 H 0.49107 0.43335 0.65215 0.0
H1267 H 0.53095 0.39908 0.65256 0.0
C1268 C 0.43444 0.52426 0.64241 0.0
C1269 C 0.43095 0.57263 0.65296 0.0
C1270 C 0.45745 0.50507 0.63929 0.0
C1271 C 0.47722 0.5335 0.64723 0.0
C1272 C 0.47343 0.58159 0.65811 0.0
C1273 C 0.45059 0.6011 0.66071 0.0
C1274 C 0.54437 0.52522 0.64285 0.0
C1275 C 0.54817 0.47261 0.64671 0.0
C1276 C 0.52126 0.54481 0.64192 0.0
C1277 C 0.50163 0.51226 0.64546 0.0
C1278 C 0.50561 0.45947 0.64886 0.0
C1279 C 0.52858 0.43984 0.64927 0.0
H1280 H 0.10326 0.77161 0.18783 0.0
H1281 H 0.14755 0.76926 0.12485 0.0
H1282 H 0.09987 0.67824 0.18586 0.0
H1283 H 0.14409 0.67576 0.12285 0.0
H1284 H 0.11123 0.51416 0.11377 0.0
H1285 H 0.11553 0.60754 0.11499 0.0
H1286 H 0.12406 0.60142 0.19156 0.0
H1287 H 0.11898 0.50831 0.19041 0.0
C1288 C 0.11238 0.75118 0.17362 0.0
C1289 C 0.12573 0.77808 0.15654 0.0
C1290 C 0.11047 0.69756 0.17252 0.0
C1291 C 0.12183 0.66935 0.15429 0.0
C1292 C 0.1349 0.69627 0.13699 0.0
C1293 C 0.13683 0.74995 0.1381 0.0
C1294 C 0.11398 0.53276 0.13087 0.0
C1295 C 0.11467 0.50367 0.152 0.0
C1296 C 0.11666 0.58628 0.13155 0.0
C1297 C 0.12 0.61212 0.15339 0.0
C1298 C 0.12117 0.5829 0.17446 0.0
C1299 C 0.11858 0.52938 0.17377 0.0
H1300 H 0.88608 0.27825 0.18257 0.0
H1301 H 0.82625 0.29534 0.13507 0.0
H1302 H 0.89099 0.37147 0.18336 0.0
H1303 H 0.83168 0.38838 0.13521 0.0
H1304 H 0.83286 0.55595 0.16208 0.0
H1305 H 0.82742 0.46277 0.1617 0.0
H1306 H 0.90333 0.44121 0.15733 0.0
H1307 H 0.90876 0.53405 0.15756 0.0
C1308 C 0.87398 0.30186 0.17228 0.0
C1309 C 0.8558 0.27919 0.15872 0.0
C1310 C 0.87694 0.35531 0.17254 0.0
C1311 C 0.86174 0.3875 0.15933 0.0
C1312 C 0.84355 0.36483 0.14579 0.0
C1313 C 0.84064 0.31138 0.14546 0.0
C1314 C 0.84838 0.53135 0.16087 0.0
C1315 C 0.87125 0.55267 0.15998 0.0
C1316 C 0.84526 0.47789 0.16065 0.0
C1317 C 0.86495 0.44442 0.15956 0.0
C1318 C 0.88779 0.46577 0.15861 0.0
C1319 C 0.8909 0.51911 0.15878 0.0
H1320 H 0.10499 0.28321 0.41711 0.0
H1321 H 0.16564 0.31082 0.3718 0.0
H1322 H 0.10014 0.37561 0.42303 0.0
H1323 H 0.16011 0.40324 0.37682 0.0
H1324 H 0.15604 0.56682 0.40705 0.0
H1325 H 0.16288 0.47401 0.40453 0.0
H1326 H 0.08724 0.44921 0.40082 0.0
H1327 H 0.08046 0.54149 0.40346 0.0
C1328 C 0.1174 0.3089 0.40852 0.0
C1329 C 0.13565 0.28932 0.39388 0.0
C1330 C 0.11443 0.36204 0.41167 0.0
C1331 C 0.12962 0.39715 0.40027 0.0
C1332 C 0.14818 0.37753 0.38605 0.0
C1333 C 0.15116 0.3244 0.38292 0.0
C1334 C 0.14089 0.54153 0.40564 0.0
C1335 C 0.1177 0.56178 0.40559 0.0
C1336 C 0.1448 0.48826 0.40418 0.0
C1337 C 0.12562 0.45388 0.40255 0.0
C1338 C 0.10245 0.47424 0.40255 0.0
C1339 C 0.09856 0.52735 0.40406 0.0
H1340 H 0.90347 0.52397 0.40693 0.0
H1341 H 0.8318 0.49738 0.38268 0.0
H1342 H 0.89698 0.61639 0.40426 0.0
H1343 H 0.82524 0.59027 0.3803 0.0
H1344 H 0.81646 0.76187 0.4011 0.0
H1345 H 0.8221 0.66894 0.40554 0.0
H1346 H 0.89127 0.68071 0.37284 0.0
H1347 H 0.88587 0.77339 0.36892 0.0
C1348 C 0.88637 0.53776 0.40084 0.0
C1349 C 0.86825 0.50301 0.39478 0.0
C1350 C 0.88264 0.59086 0.39937 0.0
C1351 C 0.86065 0.61077 0.39192 0.0
C1352 C 0.84233 0.57619 0.38632 0.0
C1353 C 0.84609 0.52293 0.3877 0.0
C1354 C 0.83295 0.74462 0.39508 0.0
C1355 C 0.85071 0.77505 0.38464 0.0
C1356 C 0.83608 0.69133 0.3974 0.0
C1357 C 0.85713 0.66738 0.38954 0.0
C1358 C 0.87493 0.69795 0.37929 0.0
C1359 C 0.87175 0.75104 0.37683 0.0
H1360 H 0.82134 0.29536 0.90844 0.0
H1361 H 0.88818 0.27919 0.87131 0.0
H1362 H 0.82667 0.38845 0.90998 0.0
H1363 H 0.89313 0.37238 0.87218 0.0
H1364 H 0.90624 0.53455 0.90157 0.0
H1365 H 0.90089 0.4417 0.90052 0.0
H1366 H 0.82682 0.46317 0.88341 0.0
H1367 H 0.83219 0.55636 0.88427 0.0
C1368 C 0.83724 0.31162 0.90071 0.0
C1369 C 0.85437 0.2797 0.88982 0.0
C1370 C 0.84014 0.36507 0.90133 0.0
C1371 C 0.8603 0.38797 0.89116 0.0
C1372 C 0.8775 0.35603 0.88038 0.0
C1373 C 0.87455 0.3026 0.87968 0.0
C1374 C 0.88885 0.5196 0.89728 0.0
C1375 C 0.86968 0.55314 0.89285 0.0
C1376 C 0.88579 0.46625 0.89672 0.0
C1377 C 0.86345 0.44489 0.89182 0.0
C1378 C 0.84421 0.47833 0.88754 0.0
C1379 C 0.84729 0.53179 0.88803 0.0
H1380 H 0.12533 0.50824 0.9341 0.0
H1381 H 0.10199 0.50452 0.8607 0.0
H1382 H 0.12979 0.60134 0.93176 0.0
H1383 H 0.10726 0.59749 0.85809 0.0
H1384 H 0.09259 0.76943 0.87102 0.0
H1385 H 0.0889 0.67605 0.87303 0.0
H1386 H 0.15383 0.66769 0.91374 0.0
H1387 H 0.15751 0.761 0.91176 0.0
C1388 C 0.12124 0.52726 0.91742 0.0
C1389 C 0.11321 0.49882 0.89762 0.0
C1390 C 0.12402 0.58065 0.91601 0.0
C1391 C 0.11881 0.60708 0.89476 0.0
C1392 C 0.11114 0.57853 0.87484 0.0
C1393 C 0.10841 0.52509 0.87623 0.0
C1394 C 0.10616 0.74766 0.88028 0.0
C1395 C 0.12532 0.77287 0.89127 0.0
C1396 C 0.10407 0.69405 0.88139 0.0
C1397 C 0.12109 0.66421 0.89351 0.0
C1398 C 0.14021 0.68944 0.90456 0.0
C1399 C 0.14229 0.74304 0.90346 0.0
H1400 H 0.87289 0.76422 0.63123 0.0
H1401 H 0.81236 0.73652 0.67668 0.0
H1402 H 0.87733 0.67189 0.62473 0.0
H1403 H 0.81746 0.64413 0.67104 0.0
H1404 H 0.82103 0.48101 0.64041 0.0
H1405 H 0.81442 0.57392 0.64284 0.0
H1406 H 0.8901 0.59781 0.64686 0.0
H1407 H 0.89667 0.50549 0.64439 0.0
C1408 C 0.86041 0.73854 0.63972 0.0
C1409 C 0.84233 0.75804 0.65459 0.0
C1410 C 0.86314 0.68543 0.63622 0.0
C1411 C 0.84787 0.65031 0.6475 0.0
C1412 C 0.82945 0.66988 0.66191 0.0
C1413 C 0.82671 0.72297 0.6654 0.0
C1414 C 0.83625 0.50612 0.64183 0.0
C1415 C 0.85939 0.48557 0.64208 0.0
C1416 C 0.83246 0.55944 0.64325 0.0
C1417 C 0.85172 0.59358 0.645 0.0
C1418 C 0.87484 0.57296 0.64505 0.0
C1419 C 0.87861 0.5198 0.64362 0.0
H1420 H 0.10429 0.27641 0.63216 0.0
H1421 H 0.16533 0.30471 0.67681 0.0
H1422 H 0.09927 0.36882 0.62648 0.0
H1423 H 0.15969 0.39704 0.672 0.0
H1424 H 0.15475 0.56059 0.64319 0.0
H1425 H 0.16187 0.46781 0.64426 0.0
H1426 H 0.08644 0.44182 0.64984 0.0
H1427 H 0.07935 0.53409 0.64875 0.0
C1428 C 0.11676 0.30225 0.64062 0.0
C1429 C 0.13514 0.28296 0.65507 0.0
C1430 C 0.11371 0.35535 0.6376 0.0
C1431 C 0.12896 0.39056 0.64893 0.0
C1432 C 0.14771 0.37119 0.66284 0.0
C1433 C 0.15077 0.31814 0.66585 0.0
C1434 C 0.1397 0.53505 0.64467 0.0
C1435 C 0.11647 0.55496 0.6458 0.0
C1436 C 0.14378 0.48182 0.64529 0.0
C1437 C 0.12473 0.44717 0.6471 0.0
C1438 C 0.10152 0.46715 0.64798 0.0
C1439 C 0.09745 0.52024 0.64735 0.0
H1440 H 0.64492 1.00317 0.14529 0.0
H1441 H 0.57512 1.01907 0.17649 0.0
H1442 H 0.64922 0.09659 0.14557 0.0
H1443 H 0.57949 0.11226 0.17688 0.0
H1444 H 0.60642 0.27326 0.19693 0.0
H1445 H 0.60205 0.17991 0.19662 0.0
H1446 H 0.63305 0.17328 0.12611 0.0
H1447 H 0.6381 0.26648 0.12673 0.0
C1448 C 0.63044 1.02654 0.1521 0.0
C1449 C 0.6097 1.00346 0.16094 0.0
C1450 C 0.6329 0.08013 0.15224 0.0
C1451 C 0.61469 0.11198 0.16124 0.0
C1452 C 0.59401 0.08889 0.17015 0.0
C1453 C 0.59153 0.03537 0.16997 0.0
C1454 C 0.61239 0.25187 0.1814 0.0
C1455 C 0.62263 0.27741 0.16187 0.0
C1456 C 0.6097 0.19838 0.18113 0.0
C1457 C 0.61724 0.16903 0.16136 0.0
C1458 C 0.62729 0.19461 0.14174 0.0
C1459 C 0.62991 0.24814 0.14197 0.0
H1460 H 0.39096 0.77878 0.16957 0.0
H1461 H 0.31676 0.79657 0.152 0.0
H1462 H 0.39546 0.87214 0.16963 0.0
H1463 H 0.32133 0.88973 0.15188 0.0
H1464 H 0.34489 0.05197 0.12975 0.0
H1465 H 0.34043 0.95854 0.12923 0.0
H1466 H 0.38302 0.94741 0.19308 0.0
H1467 H 0.38804 0.04057 0.19321 0.0
C1468 C 0.37558 0.80254 0.16583 0.0
C1469 C 0.35351 0.78002 0.16073 0.0
C1470 C 0.37816 0.85609 0.16587 0.0
C1471 C 0.35875 0.88845 0.16078 0.0
C1472 C 0.33673 0.86594 0.15553 0.0
C1473 C 0.33413 0.81245 0.15555 0.0
C1474 C 0.35338 0.02954 0.14361 0.0
C1475 C 0.3668 0.05379 0.16153 0.0
C1476 C 0.35066 0.97603 0.14343 0.0
C1477 C 0.36141 0.94545 0.16109 0.0
C1478 C 0.37472 0.96974 0.17906 0.0
C1479 C 0.37735 1.02323 0.17931 0.0
H1480 H 0.58105 0.03903 0.40447 0.0
H1481 H 0.65649 0.06443 0.41039 0.0
H1482 H 0.5879 0.94673 0.40237 0.0
H1483 H 0.66339 0.97159 0.40836 0.0
H1484 H 0.66689 0.80853 0.37534 0.0
H1485 H 0.66135 0.90093 0.38044 0.0
H1486 H 0.60022 0.87316 0.42505 0.0
H1487 H 0.60511 0.78077 0.41905 0.0
C1488 C 0.59912 1.02491 0.40573 0.0
C1489 C 0.61821 0.05937 0.40772 0.0
C1490 C 0.60305 0.97179 0.40452 0.0
C1491 C 0.62621 0.95145 0.40527 0.0
C1492 C 0.64533 0.98584 0.40743 0.0
C1493 C 0.64138 0.03912 0.40861 0.0
C1494 C 0.65217 0.82207 0.38613 0.0
C1495 C 0.63633 0.78698 0.3966 0.0
C1496 C 0.64917 0.87518 0.38932 0.0
C1497 C 0.63027 0.89474 0.40309 0.0
C1498 C 0.61478 0.85961 0.41405 0.0
C1499 C 0.61777 0.80648 0.41084 0.0
H1500 H 0.33384 1.00073 0.39101 0.0
H1501 H 0.40841 1.02143 0.4058 0.0
H1502 H 0.32841 0.094 0.39021 0.0
H1503 H 0.403 0.11436 0.40479 0.0
H1504 H 0.38929 0.27669 0.3761 0.0
H1505 H 0.39428 0.1834 0.37675 0.0
H1506 H 0.32909 0.1692 0.41672 0.0
H1507 H 0.32371 0.26237 0.41543 0.0
C1508 C 0.34905 1.02507 0.39423 0.0
C1509 C 0.37159 1.00336 0.39834 0.0
C1510 C 0.34594 0.07859 0.39376 0.0
C1511 C 0.36529 0.11174 0.39737 0.0
C1512 C 0.38779 0.09003 0.40153 0.0
C1513 C 0.39089 0.03662 0.40206 0.0
C1514 C 0.37594 0.25366 0.38491 0.0
C1515 C 0.35611 0.27713 0.39573 0.0
C1516 C 0.37892 0.20018 0.38548 0.0
C1517 C 0.36209 0.16872 0.3968 0.0
C1518 C 0.34227 0.19218 0.40764 0.0
C1519 C 0.33934 0.24569 0.40716 0.0
H1520 H 0.36935 0.77971 0.9305 0.0
H1521 H 0.33459 0.79814 0.86234 0.0
H1522 H 0.37338 0.87285 0.93384 0.0
H1523 H 0.33949 0.89105 0.86523 0.0
H1524 H 0.33071 0.05886 0.88984 0.0
H1525 H 0.3253 0.96581 0.88717 0.0
H1526 H 0.39555 0.94229 0.91601 0.0
H1527 H 0.40094 0.03496 0.91866 0.0
C1528 C 0.36254 0.80358 0.91623 0.0
C1529 C 0.35171 0.78126 0.89612 0.0
C1530 C 0.36508 0.85702 0.91802 0.0
C1531 C 0.35683 0.88957 0.89977 0.0
C1532 C 0.34585 0.86727 0.87974 0.0
C1533 C 0.34333 0.81386 0.87794 0.0
C1534 C 0.34505 0.03382 0.89547 0.0
C1535 C 0.36621 0.05452 0.90459 0.0
C1536 C 0.34195 0.98044 0.89394 0.0
C1537 C 0.35995 0.94644 0.90147 0.0
C1538 C 0.38113 0.96721 0.91048 0.0
C1539 C 0.38422 1.02047 0.912 0.0
H1540 H 0.65199 0.25773 0.91493 0.0
H1541 H 0.59358 0.26944 0.86538 0.0
H1542 H 0.64674 0.16464 0.91657 0.0
H1543 H 0.58879 0.17623 0.86645 0.0
H1544 H 0.57078 1.01563 0.8945 0.0
H1545 H 0.57592 0.10852 0.89348 0.0
H1546 H 0.65196 0.08798 0.89141 0.0
H1547 H 0.64685 0.99475 0.8922 0.0
C1548 C 0.63794 0.24051 0.90448 0.0
C1549 C 0.62317 0.2712 0.89007 0.0
C1550 C 0.63512 0.18702 0.90519 0.0
C1551 C 0.61738 0.16283 0.8916 0.0
C1552 C 0.6025 0.19356 0.87732 0.0
C1553 C 0.60539 0.24701 0.87653 0.0
C1554 C 0.58862 0.03075 0.89351 0.0
C1555 C 0.60839 0.99743 0.89328 0.0
C1556 C 0.59156 0.08416 0.89298 0.0
C1557 C 0.61435 0.10584 0.89231 0.0
C1558 C 0.63415 0.07263 0.89223 0.0
C1559 C 0.63121 1.01912 0.89269 0.0
H1560 H 0.38189 1.01408 0.6975 0.0
H1561 H 0.35186 1.00462 0.62672 0.0
H1562 H 0.37677 0.10733 0.69713 0.0
H1563 H 0.34735 0.09811 0.62608 0.0
H1564 H 0.31959 0.26032 0.64476 0.0
H1565 H 0.3242 0.16707 0.64492 0.0
H1566 H 0.39332 0.18289 0.67724 0.0
H1567 H 0.38882 0.27633 0.67692 0.0
C1568 C 0.37405 0.03185 0.68191 0.0
C1569 C 0.36723 1.00179 0.66216 0.0
C1570 C 0.37139 0.08542 0.68158 0.0
C1571 C 0.36175 0.1103 0.66153 0.0
C1572 C 0.35468 0.0802 0.64188 0.0
C1573 C 0.35745 1.02663 0.64216 0.0
C1574 C 0.33593 0.24405 0.65161 0.0
C1575 C 0.35386 0.27604 0.66077 0.0
C1576 C 0.33854 0.19048 0.65174 0.0
C1577 C 0.35911 0.16741 0.66113 0.0
C1578 C 0.37708 0.19934 0.67022 0.0
C1579 C 0.3745 0.25295 0.67002 0.0
H1580 H 0.64451 0.77344 0.62583 0.0
H1581 H 0.61739 0.78421 0.69782 0.0
H1582 H 0.64025 0.86663 0.62153 0.0
H1583 H 0.61315 0.87692 0.69354 0.0
H1584 H 0.63019 0.04614 0.68802 0.0
H1585 H 0.63687 0.95369 0.69059 0.0
H1586 H 0.61067 0.93498 0.61866 0.0
H1587 H 0.60484 0.0279 0.61575 0.0
C1588 C 0.63744 0.79555 0.64067 0.0
C1589 C 0.63145 0.77118 0.66224 0.0
C1590 C 0.63503 0.84905 0.63821 0.0
C1591 C 0.62655 0.87953 0.65726 0.0
C1592 C 0.62026 0.85498 0.67867 0.0
C1593 C 0.62266 0.80165 0.68112 0.0
C1594 C 0.62626 1.02254 0.67256 0.0
C1595 C 0.61691 0.04471 0.65169 0.0
C1596 C 0.62978 0.9693 0.67416 0.0
C1597 C 0.62407 0.93661 0.65493 0.0
C1598 C 0.61537 0.95888 0.6338 0.0
C1599 C 0.6118 1.01219 0.63221 0.0
loop_
_geom_bond_atom_site_label_1
_geom_bond_atom_site_label_2
_geom_bond_distance
_geom_bond_site_symmetry_2
_ccdc_geom_bond_type
Ho0 C3 2.811 1_545 S
Ho0 O20 2.322 . S
Ho0 O22 2.378 1_545 S
Ho0 O23 2.524 1_545 S
Ho0 O24 2.381 . S
Ho0 O25 2.669 . S
Ho0 O27 2.346 . S
Ho0 O31 2.305 . S
Ho1 C12 2.811 . S
Ho1 O21 2.346 . S
Ho1 O25 2.305 . S
Ho1 O26 2.322 . S
Ho1 O28 2.378 . S
Ho1 O29 2.524 . S
Ho1 O30 2.381 . S
Ho1 O31 2.669 . S
C2 O20 1.259 . S
C2 O21 1.268 . S
C3 Ho0 2.811 1_565 S
C3 C4 1.488 . S
C3 O22 1.215 . S
C3 O23 1.289 . S
C4 C3 1.488 . S
C4 C5 1.348 . S
C4 C9 1.413 . S
C5 C4 1.348 . S
C5 C6 1.442 . S
C5 H32 0.930 . S
C6 C5 1.442 . S
C6 C7 1.381 . S
C6 H33 0.931 . S
C7 C6 1.381 . S
C7 C8 1.321 . S
C8 C7 1.321 . S
C8 C9 1.403 . S
C8 H34 0.934 . S
C9 C4 1.413 . S
C9 C8 1.403 . S
C9 H35 0.930 . S
C10 O24 1.275 . S
C10 O25 1.256 . S
C11 O26 1.259 . S
C11 O27 1.268 . S
C12 Ho1 2.811 . S
C12 C13 1.488 . S
C12 O28 1.215 . S
C12 O29 1.289 . S
C13 C12 1.488 . S
C13 C14 1.348 . S
C13 C18 1.413 . S
C14 C13 1.348 . S
C14 C15 1.442 . S
C14 H36 0.930 . S
C15 C14 1.442 . S
C15 C16 1.381 . S
C15 H37 0.931 . S
C16 C15 1.381 . S
C16 C17 1.321 . S
C17 C16 1.321 . S
C17 C18 1.403 . S
C17 H38 0.934 . S
C18 C13 1.413 . S
C18 C17 1.403 . S
C18 H39 0.930 . S
C19 O30 1.275 . S
C19 O31 1.256 . S
O20 Ho0 2.322 . S
O20 C2 1.259 . S
O21 Ho1 2.346 . S
O21 C2 1.268 . S
O22 Ho0 2.378 1_565 S
O22 C3 1.215 . S
O23 Ho0 2.524 1_565 S
O23 C3 1.289 . S
O24 Ho0 2.381 . S
O24 C10 1.275 . S
O25 Ho0 2.669 . S
O25 Ho1 2.305 . S
O25 C10 1.256 . S
O26 Ho1 2.322 . S
O26 C11 1.259 . S
O27 Ho0 2.346 . S
O27 C11 1.268 . S
O28 Ho1 2.378 . S
O28 C12 1.215 . S
O29 Ho1 2.524 . S
O29 C12 1.289 . S
O30 Ho1 2.381 . S
O30 C19 1.275 . S
O31 Ho0 2.305 . S
O31 Ho1 2.669 . S
O31 C19 1.256 . S
H32 C5 0.930 . S
H33 C6 0.931 . S
H34 C8 0.934 . S
H35 C9 0.930 . S
H36 C14 0.930 . S
H37 C15 0.931 . S
H38 C17 0.934 . S
H39 C18 0.930 . S
Ho40 C43 2.811 1_565 S
Ho40 O60 2.322 . S
Ho40 O62 2.378 1_565 S
Ho40 O63 2.524 1_565 S
Ho40 O64 2.381 . S
Ho40 O65 2.669 . S
Ho40 O67 2.346 . S
Ho40 O71 2.305 . S
Ho41 C52 2.811 . S
Ho41 O61 2.346 . S
Ho41 O65 2.305 . S
Ho41 O66 2.322 . S
Ho41 O68 2.378 . S
Ho41 O69 2.524 . S
Ho41 O70 2.381 . S
Ho41 O71 2.669 . S
C42 O60 1.259 . S
C42 O61 1.268 . S
C43 Ho40 2.811 1_545 S
C43 C44 1.488 . S
C43 O62 1.215 . S
C43 O63 1.289 . S
C44 C43 1.488 . S
C44 C45 1.348 . S
C44 C49 1.413 . S
C45 C44 1.348 . S
C45 C46 1.442 . S
C45 H72 0.930 . S
C46 C45 1.442 . S
C46 C47 1.381 . S
C46 H73 0.931 . S
C47 C46 1.381 . S
C47 C48 1.321 . S
C48 C47 1.321 . S
C48 C49 1.403 . S
C48 H74 0.934 . S
C49 C44 1.413 . S
C49 C48 1.403 . S
C49 H75 0.930 . S
C50 O64 1.275 . S
C50 O65 1.256 . S
C51 O66 1.259 . S
C51 O67 1.268 . S
C52 Ho41 2.811 . S
C52 C53 1.488 . S
C52 O68 1.215 . S
C52 O69 1.289 . S
C53 C52 1.488 . S
C53 C54 1.348 . S
C53 C58 1.413 . S
C54 C53 1.348 . S
C54 C55 1.442 . S
C54 H76 0.930 . S
C55 C54 1.442 . S
C55 C56 1.381 . S
C55 H77 0.931 . S
C56 C55 1.381 . S
C56 C57 1.321 . S
C57 C56 1.321 . S
C57 C58 1.403 . S
C57 H78 0.934 . S
C58 C53 1.413 . S
C58 C57 1.403 . S
C58 H79 0.930 . S
C59 O70 1.275 . S
C59 O71 1.256 . S
O60 Ho40 2.322 . S
O60 C42 1.259 . S
O61 Ho41 2.346 . S
O61 C42 1.268 . S
O62 Ho40 2.378 1_545 S
O62 C43 1.215 . S
O63 Ho40 2.524 1_545 S
O63 C43 1.289 . S
O64 Ho40 2.381 . S
O64 C50 1.275 . S
O65 Ho40 2.669 . S
O65 Ho41 2.305 . S
O65 C50 1.256 . S
O66 Ho41 2.322 . S
O66 C51 1.259 . S
O67 Ho40 2.346 . S
O67 C51 1.268 . S
O68 Ho41 2.378 . S
O68 C52 1.215 . S
O69 Ho41 2.524 . S
O69 C52 1.289 . S
O70 Ho41 2.381 . S
O70 C59 1.275 . S
O71 Ho40 2.305 . S
O71 Ho41 2.669 . S
O71 C59 1.256 . S
H72 C45 0.930 . S
H73 C46 0.931 . S
H74 C48 0.934 . S
H75 C49 0.930 . S
H76 C54 0.930 . S
H77 C55 0.931 . S
H78 C57 0.934 . S
H79 C58 0.930 . S
Ho80 C83 2.811 1_565 S
Ho80 O100 2.322 . S
Ho80 O102 2.378 1_565 S
Ho80 O103 2.524 1_565 S
Ho80 O104 2.381 . S
Ho80 O105 2.669 . S
Ho80 O107 2.346 . S
Ho80 O111 2.305 . S
Ho81 C92 2.811 . S
Ho81 O101 2.346 . S
Ho81 O105 2.305 . S
Ho81 O106 2.322 . S
Ho81 O108 2.378 . S
Ho81 O109 2.524 . S
Ho81 O110 2.381 . S
Ho81 O111 2.669 . S
C82 O100 1.259 . S
C82 O101 1.268 . S
C83 Ho80 2.811 1_545 S
C83 C84 1.488 . S
C83 O102 1.215 . S
C83 O103 1.289 . S
C84 C83 1.488 . S
C84 C85 1.348 . S
C84 C89 1.413 . S
C85 C84 1.348 . S
C85 C86 1.442 . S
C85 H112 0.930 . S
C86 C85 1.442 . S
C86 C87 1.381 . S
C86 H113 0.931 . S
C87 C86 1.381 . S
C87 C88 1.321 . S
C88 C87 1.321 . S
C88 C89 1.403 . S
C88 H114 0.934 . S
C89 C84 1.413 . S
C89 C88 1.403 . S
C89 H115 0.930 . S
C90 O104 1.275 . S
C90 O105 1.256 . S
C91 O106 1.259 . S
C91 O107 1.268 . S
C92 Ho81 2.811 . S
C92 C93 1.488 . S
C92 O108 1.215 . S
C92 O109 1.289 . S
C93 C92 1.488 . S
C93 C94 1.348 . S
C93 C98 1.413 . S
C94 C93 1.348 . S
C94 C95 1.442 . S
C94 H116 0.930 . S
C95 C94 1.442 . S
C95 C96 1.381 . S
C95 H117 0.931 . S
C96 C95 1.381 . S
C96 C97 1.321 . S
C97 C96 1.321 . S
C97 C98 1.403 . S
C97 H118 0.934 . S
C98 C93 1.413 . S
C98 C97 1.403 . S
C98 H119 0.930 . S
C99 O110 1.275 . S
C99 O111 1.256 . S
O100 Ho80 2.322 . S
O100 C82 1.259 . S
O101 Ho81 2.346 . S
O101 C82 1.268 . S
O102 Ho80 2.378 1_545 S
O102 C83 1.215 . S
O103 Ho80 2.524 1_545 S
O103 C83 1.289 . S
O104 Ho80 2.381 . S
O104 C90 1.275 . S
O105 Ho80 2.669 . S
O105 Ho81 2.305 . S
O105 C90 1.256 . S
O106 Ho81 2.322 . S
O106 C91 1.259 . S
O107 Ho80 2.346 . S
O107 C91 1.268 . S
O108 Ho81 2.378 . S
O108 C92 1.215 . S
O109 Ho81 2.524 . S
O109 C92 1.289 . S
O110 Ho81 2.381 . S
O110 C99 1.275 . S
O111 Ho80 2.305 . S
O111 Ho81 2.669 . S
O111 C99 1.256 . S
H112 C85 0.930 . S
H113 C86 0.931 . S
H114 C88 0.934 . S
H115 C89 0.930 . S
H116 C94 0.930 . S
H117 C95 0.931 . S
H118 C97 0.934 . S
H119 C98 0.930 . S
Ho120 C123 2.811 1_545 S
Ho120 O140 2.322 . S
Ho120 O142 2.378 1_545 S
Ho120 O143 2.524 1_545 S
Ho120 O144 2.381 . S
Ho120 O145 2.669 . S
Ho120 O147 2.346 . S
Ho120 O151 2.305 . S
Ho121 C132 2.811 . S
Ho121 O141 2.346 . S
Ho121 O145 2.305 . S
Ho121 O146 2.322 . S
Ho121 O148 2.378 . S
Ho121 O149 2.524 . S
Ho121 O150 2.381 . S
Ho121 O151 2.669 . S
C122 O140 1.259 . S
C122 O141 1.268 . S
C123 Ho120 2.811 1_565 S
C123 C124 1.488 . S
C123 O142 1.215 . S
C123 O143 1.289 . S
C124 C123 1.488 . S
C124 C125 1.348 . S
C124 C129 1.413 . S
C125 C124 1.348 . S
C125 C126 1.442 . S
C125 H152 0.930 . S
C126 C125 1.442 . S
C126 C127 1.381 . S
C126 H153 0.931 . S
C127 C126 1.381 . S
C127 C128 1.321 . S
C128 C127 1.321 . S
C128 C129 1.403 . S
C128 H154 0.934 . S
C129 C124 1.413 . S
C129 C128 1.403 . S
C129 H155 0.930 . S
C130 O144 1.275 . S
C130 O145 1.256 . S
C131 O146 1.259 . S
C131 O147 1.268 . S
C132 Ho121 2.811 . S
C132 C133 1.488 . S
C132 O148 1.215 . S
C132 O149 1.289 . S
C133 C132 1.488 . S
C133 C134 1.348 . S
C133 C138 1.413 . S
C134 C133 1.348 . S
C134 C135 1.442 . S
C134 H156 0.930 . S
C135 C134 1.442 . S
C135 C136 1.381 . S
C135 H157 0.931 . S
C136 C135 1.381 . S
C136 C137 1.321 . S
C137 C136 1.321 . S
C137 C138 1.403 . S
C137 H158 0.934 . S
C138 C133 1.413 . S
C138 C137 1.403 . S
C138 H159 0.930 . S
C139 O150 1.275 . S
C139 O151 1.256 . S
O140 Ho120 2.322 . S
O140 C122 1.259 . S
O141 Ho121 2.346 . S
O141 C122 1.268 . S
O142 Ho120 2.378 1_565 S
O142 C123 1.215 . S
O143 Ho120 2.524 1_565 S
O143 C123 1.289 . S
O144 Ho120 2.381 . S
O144 C130 1.275 . S
O145 Ho120 2.669 . S
O145 Ho121 2.305 . S
O145 C130 1.256 . S
O146 Ho121 2.322 . S
O146 C131 1.259 . S
O147 Ho120 2.346 . S
O147 C131 1.268 . S
O148 Ho121 2.378 . S
O148 C132 1.215 . S
O149 Ho121 2.524 . S
O149 C132 1.289 . S
O150 Ho121 2.381 . S
O150 C139 1.275 . S
O151 Ho120 2.305 . S
O151 Ho121 2.669 . S
O151 C139 1.256 . S
H152 C125 0.930 . S
H153 C126 0.931 . S
H154 C128 0.934 . S
H155 C129 0.930 . S
H156 C134 0.930 . S
H157 C135 0.931 . S
H158 C137 0.934 . S
H159 C138 0.930 . S
Ho160 C163 2.811 . S
Ho160 O180 2.322 . S
Ho160 O182 2.378 . S
Ho160 O183 2.524 . S
Ho160 O184 2.381 . S
Ho160 O185 2.669 . S
Ho160 O187 2.346 . S
Ho160 O191 2.305 . S
Ho161 C172 2.811 1_565 S
Ho161 O181 2.346 . S
Ho161 O185 2.305 . S
Ho161 O186 2.322 . S
Ho161 O188 2.378 1_565 S
Ho161 O189 2.524 1_565 S
Ho161 O190 2.381 . S
Ho161 O191 2.669 . S
C162 O180 1.259 . S
C162 O181 1.268 . S
C163 Ho160 2.811 . S
C163 C164 1.488 . S
C163 O182 1.215 . S
C163 O183 1.289 . S
C164 C163 1.488 . S
C164 C165 1.348 . S
C164 C169 1.413 . S
C165 C164 1.348 . S
C165 C166 1.442 . S
C165 H192 0.930 . S
C166 C165 1.442 . S
C166 C167 1.381 . S
C166 H193 0.931 . S
C167 C166 1.381 . S
C167 C168 1.321 . S
C168 C167 1.321 . S
C168 C169 1.403 . S
C168 H194 0.934 . S
C169 C164 1.413 . S
C169 C168 1.403 . S
C169 H195 0.930 . S
C170 O184 1.275 . S
C170 O185 1.256 . S
C171 O186 1.259 . S
C171 O187 1.268 . S
C172 Ho161 2.811 1_545 S
C172 C173 1.488 . S
C172 O188 1.215 . S
C172 O189 1.289 . S
C173 C172 1.488 . S
C173 C174 1.348 . S
C173 C178 1.413 . S
C174 C173 1.348 . S
C174 C175 1.442 . S
C174 H196 0.930 . S
C175 C174 1.442 . S
C175 C176 1.381 . S
C175 H197 0.931 . S
C176 C175 1.381 . S
C176 C177 1.321 . S
C177 C176 1.321 . S
C177 C178 1.403 . S
C177 H198 0.934 . S
C178 C173 1.413 . S
C178 C177 1.403 . S
C178 H199 0.930 . S
C179 O190 1.275 . S
C179 O191 1.256 . S
O180 Ho160 2.322 . S
O180 C162 1.259 . S
O181 Ho161 2.346 . S
O181 C162 1.268 . S
O182 Ho160 2.378 . S
O182 C163 1.215 . S
O183 Ho160 2.524 . S
O183 C163 1.289 . S
O184 Ho160 2.381 . S
O184 C170 1.275 . S
O185 Ho160 2.669 . S
O185 Ho161 2.305 . S
O185 C170 1.256 . S
O186 Ho161 2.322 . S
O186 C171 1.259 . S
O187 Ho160 2.346 . S
O187 C171 1.268 . S
O188 Ho161 2.378 1_545 S
O188 C172 1.215 . S
O189 Ho161 2.524 1_545 S
O189 C172 1.289 . S
O190 Ho161 2.381 . S
O190 C179 1.275 . S
O191 Ho160 2.305 . S
O191 Ho161 2.669 . S
O191 C179 1.256 . S
H192 C165 0.930 . S
H193 C166 0.931 . S
H194 C168 0.934 . S
H195 C169 0.930 . S
H196 C174 0.930 . S
H197 C175 0.931 . S
H198 C177 0.934 . S
H199 C178 0.930 . S
Ho200 C203 2.811 . S
Ho200 O220 2.322 . S
Ho200 O222 2.378 . S
Ho200 O223 2.524 . S
Ho200 O224 2.381 . S
Ho200 O225 2.669 . S
Ho200 O227 2.346 . S
Ho200 O231 2.305 . S
Ho201 C212 2.811 1_545 S
Ho201 O221 2.346 . S
Ho201 O225 2.305 . S
Ho201 O226 2.322 . S
Ho201 O228 2.378 1_545 S
Ho201 O229 2.524 1_545 S
Ho201 O230 2.381 . S
Ho201 O231 2.669 . S
C202 O220 1.259 . S
C202 O221 1.268 . S
C203 Ho200 2.811 . S
C203 C204 1.488 . S
C203 O222 1.215 . S
C203 O223 1.289 . S
C204 C203 1.488 . S
C204 C205 1.348 . S
C204 C209 1.413 . S
C205 C204 1.348 . S
C205 C206 1.442 . S
C205 H232 0.930 . S
C206 C205 1.442 . S
C206 C207 1.381 . S
C206 H233 0.931 . S
C207 C206 1.381 . S
C207 C208 1.321 . S
C208 C207 1.321 . S
C208 C209 1.403 . S
C208 H234 0.934 . S
C209 C204 1.413 . S
C209 C208 1.403 . S
C209 H235 0.930 . S
C210 O224 1.275 . S
C210 O225 1.256 . S
C211 O226 1.259 . S
C211 O227 1.268 . S
C212 Ho201 2.811 1_565 S
C212 C213 1.488 . S
C212 O228 1.215 . S
C212 O229 1.289 . S
C213 C212 1.488 . S
C213 C214 1.348 . S
C213 C218 1.413 . S
C214 C213 1.348 . S
C214 C215 1.442 . S
C214 H236 0.930 . S
C215 C214 1.442 . S
C215 C216 1.381 . S
C215 H237 0.931 . S
C216 C215 1.381 . S
C216 C217 1.321 . S
C217 C216 1.321 . S
C217 C218 1.403 . S
C217 H238 0.934 . S
C218 C213 1.413 . S
C218 C217 1.403 . S
C218 H239 0.930 . S
C219 O230 1.275 . S
C219 O231 1.256 . S
O220 Ho200 2.322 . S
O220 C202 1.259 . S
O221 Ho201 2.346 . S
O221 C202 1.268 . S
O222 Ho200 2.378 . S
O222 C203 1.215 . S
O223 Ho200 2.524 . S
O223 C203 1.289 . S
O224 Ho200 2.381 . S
O224 C210 1.275 . S
O225 Ho200 2.669 . S
O225 Ho201 2.305 . S
O225 C210 1.256 . S
O226 Ho201 2.322 . S
O226 C211 1.259 . S
O227 Ho200 2.346 . S
O227 C211 1.268 . S
O228 Ho201 2.378 1_565 S
O228 C212 1.215 . S
O229 Ho201 2.524 1_565 S
O229 C212 1.289 . S
O230 Ho201 2.381 . S
O230 C219 1.275 . S
O231 Ho200 2.305 . S
O231 Ho201 2.669 . S
O231 C219 1.256 . S
H232 C205 0.930 . S
H233 C206 0.931 . S
H234 C208 0.934 . S
H235 C209 0.930 . S
H236 C214 0.930 . S
H237 C215 0.931 . S
H238 C217 0.934 . S
H239 C218 0.930 . S
Ho240 C243 2.811 . S
Ho240 O260 2.322 . S
Ho240 O262 2.378 . S
Ho240 O263 2.524 . S
Ho240 O264 2.381 . S
Ho240 O265 2.669 . S
Ho240 O267 2.346 . S
Ho240 O271 2.305 . S
Ho241 C252 2.811 1_545 S
Ho241 O261 2.346 . S
Ho241 O265 2.305 . S
Ho241 O266 2.322 . S
Ho241 O268 2.378 1_545 S
Ho241 O269 2.524 1_545 S
Ho241 O270 2.381 . S
Ho241 O271 2.669 . S
C242 O260 1.259 . S
C242 O261 1.268 . S
C243 Ho240 2.811 . S
C243 C244 1.488 . S
C243 O262 1.215 . S
C243 O263 1.289 . S
C244 C243 1.488 . S
C244 C245 1.348 . S
C244 C249 1.413 . S
C245 C244 1.348 . S
C245 C246 1.442 . S
C245 H272 0.930 . S
C246 C245 1.442 . S
C246 C247 1.381 . S
C246 H273 0.931 . S
C247 C246 1.381 . S
C247 C248 1.321 . S
C248 C247 1.321 . S
C248 C249 1.403 . S
C248 H274 0.934 . S
C249 C244 1.413 . S
C249 C248 1.403 . S
C249 H275 0.930 . S
C250 O264 1.275 . S
C250 O265 1.256 . S
C251 O266 1.259 . S
C251 O267 1.268 . S
C252 Ho241 2.811 1_565 S
C252 C253 1.488 . S
C252 O268 1.215 . S
C252 O269 1.289 . S
C253 C252 1.488 . S
C253 C254 1.348 . S
C253 C258 1.413 . S
C254 C253 1.348 . S
C254 C255 1.442 . S
C254 H276 0.930 . S
C255 C254 1.442 . S
C255 C256 1.381 . S
C255 H277 0.931 . S
C256 C255 1.381 . S
C256 C257 1.321 . S
C257 C256 1.321 . S
C257 C258 1.403 . S
C257 H278 0.934 . S
C258 C253 1.413 . S
C258 C257 1.403 . S
C258 H279 0.930 . S
C259 O270 1.275 . S
C259 O271 1.256 . S
O260 Ho240 2.322 . S
O260 C242 1.259 . S
O261 Ho241 2.346 . S
O261 C242 1.268 . S
O262 Ho240 2.378 . S
O262 C243 1.215 . S
O263 Ho240 2.524 . S
O263 C243 1.289 . S
O264 Ho240 2.381 . S
O264 C250 1.275 . S
O265 Ho240 2.669 . S
O265 Ho241 2.305 . S
O265 C250 1.256 . S
O266 Ho241 2.322 . S
O266 C251 1.259 . S
O267 Ho240 2.346 . S
O267 C251 1.268 . S
O268 Ho241 2.378 1_565 S
O268 C252 1.215 . S
O269 Ho241 2.524 1_565 S
O269 C252 1.289 . S
O270 Ho241 2.381 . S
O270 C259 1.275 . S
O271 Ho240 2.305 . S
O271 Ho241 2.669 . S
O271 C259 1.256 . S
H272 C245 0.930 . S
H273 C246 0.931 . S
H274 C248 0.934 . S
H275 C249 0.930 . S
H276 C254 0.930 . S
H277 C255 0.931 . S
H278 C257 0.934 . S
H279 C258 0.930 . S
Ho280 C283 2.811 . S
Ho280 O300 2.322 . S
Ho280 O302 2.378 . S
Ho280 O303 2.524 . S
Ho280 O304 2.381 . S
Ho280 O305 2.669 . S
Ho280 O307 2.346 . S
Ho280 O311 2.305 . S
Ho281 C292 2.811 1_565 S
Ho281 O301 2.346 . S
Ho281 O305 2.305 . S
Ho281 O306 2.322 . S
Ho281 O308 2.378 1_565 S
Ho281 O309 2.524 1_565 S
Ho281 O310 2.381 . S
Ho281 O311 2.669 . S
C282 O300 1.259 . S
C282 O301 1.268 . S
C283 Ho280 2.811 . S
C283 C284 1.488 . S
C283 O302 1.215 . S
C283 O303 1.289 . S
C284 C283 1.488 . S
C284 C285 1.348 . S
C284 C289 1.413 . S
C285 C284 1.348 . S
C285 C286 1.442 . S
C285 H312 0.930 . S
C286 C285 1.442 . S
C286 C287 1.381 . S
C286 H313 0.931 . S
C287 C286 1.381 . S
C287 C288 1.321 . S
C288 C287 1.321 . S
C288 C289 1.403 . S
C288 H314 0.934 . S
C289 C284 1.413 . S
C289 C288 1.403 . S
C289 H315 0.930 . S
C290 O304 1.275 . S
C290 O305 1.256 . S
C291 O306 1.259 . S
C291 O307 1.268 . S
C292 Ho281 2.811 1_545 S
C292 C293 1.488 . S
C292 O308 1.215 . S
C292 O309 1.289 . S
C293 C292 1.488 . S
C293 C294 1.348 . S
C293 C298 1.413 . S
C294 C293 1.348 . S
C294 C295 1.442 . S
C294 H316 0.930 . S
C295 C294 1.442 . S
C295 C296 1.381 . S
C295 H317 0.931 . S
C296 C295 1.381 . S
C296 C297 1.321 . S
C297 C296 1.321 . S
C297 C298 1.403 . S
C297 H318 0.934 . S
C298 C293 1.413 . S
C298 C297 1.403 . S
C298 H319 0.930 . S
C299 O310 1.275 . S
C299 O311 1.256 . S
O300 Ho280 2.322 . S
O300 C282 1.259 . S
O301 Ho281 2.346 . S
O301 C282 1.268 . S
O302 Ho280 2.378 . S
O302 C283 1.215 . S
O303 Ho280 2.524 . S
O303 C283 1.289 . S
O304 Ho280 2.381 . S
O304 C290 1.275 . S
O305 Ho280 2.669 . S
O305 Ho281 2.305 . S
O305 C290 1.256 . S
O306 Ho281 2.322 . S
O306 C291 1.259 . S
O307 Ho280 2.346 . S
O307 C291 1.268 . S
O308 Ho281 2.378 1_545 S
O308 C292 1.215 . S
O309 Ho281 2.524 1_545 S
O309 C292 1.289 . S
O310 Ho281 2.381 . S
O310 C299 1.275 . S
O311 Ho280 2.305 . S
O311 Ho281 2.669 . S
O311 C299 1.256 . S
H312 C285 0.930 . S
H313 C286 0.931 . S
H314 C288 0.934 . S
H315 C289 0.930 . S
H316 C294 0.930 . S
H317 C295 0.931 . S
H318 C297 0.934 . S
H319 C298 0.930 . S
Ho320 C323 2.811 . S
Ho320 O340 2.322 . S
Ho320 O342 2.378 . S
Ho320 O343 2.524 . S
Ho320 O344 2.381 . S
Ho320 O345 2.669 . S
Ho320 O347 2.346 . S
Ho320 O351 2.305 . S
Ho321 C332 2.811 . S
Ho321 O341 2.346 . S
Ho321 O345 2.305 . S
Ho321 O346 2.322 . S
Ho321 O348 2.378 . S
Ho321 O349 2.524 . S
Ho321 O350 2.381 . S
Ho321 O351 2.669 . S
C322 O340 1.259 . S
C322 O341 1.268 . S
C323 Ho320 2.811 . S
C323 C324 1.488 . S
C323 O342 1.215 . S
C323 O343 1.289 . S
C324 C323 1.488 . S
C324 C325 1.348 . S
C324 C329 1.413 . S
C325 C324 1.348 . S
C325 C326 1.442 . S
C325 H352 0.930 . S
C326 C325 1.442 . S
C326 C327 1.381 . S
C326 H353 0.931 . S
C327 C326 1.381 . S
C327 C328 1.321 . S
C328 C327 1.321 . S
C328 C329 1.403 . S
C328 H354 0.934 . S
C329 C324 1.413 . S
C329 C328 1.403 . S
C329 H355 0.930 . S
C330 O344 1.275 . S
C330 O345 1.256 . S
C331 O346 1.259 . S
C331 O347 1.268 . S
C332 Ho321 2.811 . S
C332 C333 1.488 . S
C332 O348 1.215 . S
C332 O349 1.289 . S
C333 C332 1.488 . S
C333 C334 1.348 . S
C333 C338 1.413 . S
C334 C333 1.348 . S
C334 C335 1.442 . S
C334 H356 0.930 . S
C335 C334 1.442 . S
C335 C336 1.381 . S
C335 H357 0.931 . S
C336 C335 1.381 . S
C336 C337 1.321 . S
C337 C336 1.321 . S
C337 C338 1.403 . S
C337 H358 0.934 . S
C338 C333 1.413 . S
C338 C337 1.403 . S
C338 H359 0.930 . S
C339 O350 1.275 . S
C339 O351 1.256 . S
O340 Ho320 2.322 . S
O340 C322 1.259 . S
O341 Ho321 2.346 . S
O341 C322 1.268 . S
O342 Ho320 2.378 . S
O342 C323 1.215 . S
O343 Ho320 2.524 . S
O343 C323 1.289 . S
O344 Ho320 2.381 . S
O344 C330 1.275 . S
O345 Ho320 2.669 . S
O345 Ho321 2.305 . S
O345 C330 1.256 . S
O346 Ho321 2.322 . S
O346 C331 1.259 . S
O347 Ho320 2.346 . S
O347 C331 1.268 . S
O348 Ho321 2.378 . S
O348 C332 1.215 . S
O349 Ho321 2.524 . S
O349 C332 1.289 . S
O350 Ho321 2.381 . S
O350 C339 1.275 . S
O351 Ho320 2.305 . S
O351 Ho321 2.669 . S
O351 C339 1.256 . S
H352 C325 0.930 . S
H353 C326 0.931 . S
H354 C328 0.934 . S
H355 C329 0.930 . S
H356 C334 0.930 . S
H357 C335 0.931 . S
H358 C337 0.934 . S
H359 C338 0.930 . S
Ho360 C363 2.811 . S
Ho360 O380 2.322 . S
Ho360 O382 2.378 . S
Ho360 O383 2.524 . S
Ho360 O384 2.381 . S
Ho360 O385 2.669 . S
Ho360 O387 2.346 . S
Ho360 O391 2.305 . S
Ho361 C372 2.811 . S
Ho361 O381 2.346 . S
Ho361 O385 2.305 . S
Ho361 O386 2.322 . S
Ho361 O388 2.378 . S
Ho361 O389 2.524 . S
Ho361 O390 2.381 . S
Ho361 O391 2.669 . S
C362 O380 1.259 . S
C362 O381 1.268 . S
C363 Ho360 2.811 . S
C363 C364 1.488 . S
C363 O382 1.215 . S
C363 O383 1.289 . S
C364 C363 1.488 . S
C364 C365 1.348 . S
C364 C369 1.413 . S
C365 C364 1.348 . S
C365 C366 1.442 . S
C365 H392 0.930 . S
C366 C365 1.442 . S
C366 C367 1.381 . S
C366 H393 0.931 . S
C367 C366 1.381 . S
C367 C368 1.321 . S
C368 C367 1.321 . S
C368 C369 1.403 . S
C368 H394 0.934 . S
C369 C364 1.413 . S
C369 C368 1.403 . S
C369 H395 0.930 . S
C370 O384 1.275 . S
C370 O385 1.256 . S
C371 O386 1.259 . S
C371 O387 1.268 . S
C372 Ho361 2.811 . S
C372 C373 1.488 . S
C372 O388 1.215 . S
C372 O389 1.289 . S
C373 C372 1.488 . S
C373 C374 1.348 . S
C373 C378 1.413 . S
C374 C373 1.348 . S
C374 C375 1.442 . S
C374 H396 0.930 . S
C375 C374 1.442 . S
C375 C376 1.381 . S
C375 H397 0.931 . S
C376 C375 1.381 . S
C376 C377 1.321 . S
C377 C376 1.321 . S
C377 C378 1.403 . S
C377 H398 0.934 . S
C378 C373 1.413 . S
C378 C377 1.403 . S
C378 H399 0.930 . S
C379 O390 1.275 . S
C379 O391 1.256 . S
O380 Ho360 2.322 . S
O380 C362 1.259 . S
O381 Ho361 2.346 . S
O381 C362 1.268 . S
O382 Ho360 2.378 . S
O382 C363 1.215 . S
O383 Ho360 2.524 . S
O383 C363 1.289 . S
O384 Ho360 2.381 . S
O384 C370 1.275 . S
O385 Ho360 2.669 . S
O385 Ho361 2.305 . S
O385 C370 1.256 . S
O386 Ho361 2.322 . S
O386 C371 1.259 . S
O387 Ho360 2.346 . S
O387 C371 1.268 . S
O388 Ho361 2.378 . S
O388 C372 1.215 . S
O389 Ho361 2.524 . S
O389 C372 1.289 . S
O390 Ho361 2.381 . S
O390 C379 1.275 . S
O391 Ho360 2.305 . S
O391 Ho361 2.669 . S
O391 C379 1.256 . S
H392 C365 0.930 . S
H393 C366 0.931 . S
H394 C368 0.934 . S
H395 C369 0.930 . S
H396 C374 0.930 . S
H397 C375 0.931 . S
H398 C377 0.934 . S
H399 C378 0.930 . S
Ho400 C403 2.811 . S
Ho400 O420 2.322 . S
Ho400 O422 2.378 . S
Ho400 O423 2.524 . S
Ho400 O424 2.381 . S
Ho400 O425 2.669 . S
Ho400 O427 2.346 . S
Ho400 O431 2.305 . S
Ho401 C412 2.811 . S
Ho401 O421 2.346 . S
Ho401 O425 2.305 . S
Ho401 O426 2.322 . S
Ho401 O428 2.378 . S
Ho401 O429 2.524 . S
Ho401 O430 2.381 . S
Ho401 O431 2.669 . S
C402 O420 1.259 . S
C402 O421 1.268 . S
C403 Ho400 2.811 . S
C403 C404 1.488 . S
C403 O422 1.215 . S
C403 O423 1.289 . S
C404 C403 1.488 . S
C404 C405 1.348 . S
C404 C409 1.413 . S
C405 C404 1.348 . S
C405 C406 1.442 . S
C405 H432 0.930 . S
C406 C405 1.442 . S
C406 C407 1.381 . S
C406 H433 0.931 . S
C407 C406 1.381 . S
C407 C408 1.321 . S
C408 C407 1.321 . S
C408 C409 1.403 . S
C408 H434 0.934 . S
C409 C404 1.413 . S
C409 C408 1.403 . S
C409 H435 0.930 . S
C410 O424 1.275 . S
C410 O425 1.256 . S
C411 O426 1.259 . S
C411 O427 1.268 . S
C412 Ho401 2.811 . S
C412 C413 1.488 . S
C412 O428 1.215 . S
C412 O429 1.289 . S
C413 C412 1.488 . S
C413 C414 1.348 . S
C413 C418 1.413 . S
C414 C413 1.348 . S
C414 C415 1.442 . S
C414 H436 0.930 . S
C415 C414 1.442 . S
C415 C416 1.381 . S
C415 H437 0.931 . S
C416 C415 1.381 . S
C416 C417 1.321 . S
C417 C416 1.321 . S
C417 C418 1.403 . S
C417 H438 0.934 . S
C418 C413 1.413 . S
C418 C417 1.403 . S
C418 H439 0.930 . S
C419 O430 1.275 . S
C419 O431 1.256 . S
O420 Ho400 2.322 . S
O420 C402 1.259 . S
O421 Ho401 2.346 . S
O421 C402 1.268 . S
O422 Ho400 2.378 . S
O422 C403 1.215 . S
O423 Ho400 2.524 . S
O423 C403 1.289 . S
O424 Ho400 2.381 . S
O424 C410 1.275 . S
O425 Ho400 2.669 . S
O425 Ho401 2.305 . S
O425 C410 1.256 . S
O426 Ho401 2.322 . S
O426 C411 1.259 . S
O427 Ho400 2.346 . S
O427 C411 1.268 . S
O428 Ho401 2.378 . S
O428 C412 1.215 . S
O429 Ho401 2.524 . S
O429 C412 1.289 . S
O430 Ho401 2.381 . S
O430 C419 1.275 . S
O431 Ho400 2.305 . S
O431 Ho401 2.669 . S
O431 C419 1.256 . S
H432 C405 0.930 . S
H433 C406 0.931 . S
H434 C408 0.934 . S
H435 C409 0.930 . S
H436 C414 0.930 . S
H437 C415 0.931 . S
H438 C417 0.934 . S
H439 C418 0.930 . S
Ho440 C443 2.811 . S
Ho440 O460 2.322 . S
Ho440 O462 2.378 . S
Ho440 O463 2.524 . S
Ho440 O464 2.381 . S
Ho440 O465 2.669 . S
Ho440 O467 2.346 . S
Ho440 O471 2.305 . S
Ho441 C452 2.811 . S
Ho441 O461 2.346 . S
Ho441 O465 2.305 . S
Ho441 O466 2.322 . S
Ho441 O468 2.378 . S
Ho441 O469 2.524 . S
Ho441 O470 2.381 . S
Ho441 O471 2.669 . S
C442 O460 1.259 . S
C442 O461 1.268 . S
C443 Ho440 2.811 . S
C443 C444 1.488 . S
C443 O462 1.215 . S
C443 O463 1.289 . S
C444 C443 1.488 . S
C444 C445 1.348 . S
C444 C449 1.413 . S
C445 C444 1.348 . S
C445 C446 1.442 . S
C445 H472 0.930 . S
C446 C445 1.442 . S
C446 C447 1.381 . S
C446 H473 0.931 . S
C447 C446 1.381 . S
C447 C448 1.321 . S
C448 C447 1.321 . S
C448 C449 1.403 . S
C448 H474 0.934 . S
C449 C444 1.413 . S
C449 C448 1.403 . S
C449 H475 0.930 . S
C450 O464 1.275 . S
C450 O465 1.256 . S
C451 O466 1.259 . S
C451 O467 1.268 . S
C452 Ho441 2.811 . S
C452 C453 1.488 . S
C452 O468 1.215 . S
C452 O469 1.289 . S
C453 C452 1.488 . S
C453 C454 1.348 . S
C453 C458 1.413 . S
C454 C453 1.348 . S
C454 C455 1.442 . S
C454 H476 0.930 . S
C455 C454 1.442 . S
C455 C456 1.381 . S
C455 H477 0.931 . S
C456 C455 1.381 . S
C456 C457 1.321 . S
C457 C456 1.321 . S
C457 C458 1.403 . S
C457 H478 0.934 . S
C458 C453 1.413 . S
C458 C457 1.403 . S
C458 H479 0.930 . S
C459 O470 1.275 . S
C459 O471 1.256 . S
O460 Ho440 2.322 . S
O460 C442 1.259 . S
O461 Ho441 2.346 . S
O461 C442 1.268 . S
O462 Ho440 2.378 . S
O462 C443 1.215 . S
O463 Ho440 2.524 . S
O463 C443 1.289 . S
O464 Ho440 2.381 . S
O464 C450 1.275 . S
O465 Ho440 2.669 . S
O465 Ho441 2.305 . S
O465 C450 1.256 . S
O466 Ho441 2.322 . S
O466 C451 1.259 . S
O467 Ho440 2.346 . S
O467 C451 1.268 . S
O468 Ho441 2.378 . S
O468 C452 1.215 . S
O469 Ho441 2.524 . S
O469 C452 1.289 . S
O470 Ho441 2.381 . S
O470 C459 1.275 . S
O471 Ho440 2.305 . S
O471 Ho441 2.669 . S
O471 C459 1.256 . S
H472 C445 0.930 . S
H473 C446 0.931 . S
H474 C448 0.934 . S
H475 C449 0.930 . S
H476 C454 0.930 . S
H477 C455 0.931 . S
H478 C457 0.934 . S
H479 C458 0.930 . S
Ho480 C483 2.811 . S
Ho480 O500 2.322 . S
Ho480 O502 2.378 . S
Ho480 O503 2.524 . S
Ho480 O504 2.381 . S
Ho480 O505 2.669 . S
Ho480 O507 2.346 . S
Ho480 O511 2.305 . S
Ho481 C492 2.811 . S
Ho481 O501 2.346 . S
Ho481 O505 2.305 . S
Ho481 O506 2.322 . S
Ho481 O508 2.378 . S
Ho481 O509 2.524 . S
Ho481 O510 2.381 . S
Ho481 O511 2.669 . S
C482 O500 1.259 . S
C482 O501 1.268 . S
C483 Ho480 2.811 . S
C483 C484 1.488 . S
C483 O502 1.215 . S
C483 O503 1.289 . S
C484 C483 1.488 . S
C484 C485 1.348 . S
C484 C489 1.413 . S
C485 C484 1.348 . S
C485 C486 1.442 . S
C485 H512 0.930 . S
C486 C485 1.442 . S
C486 C487 1.381 . S
C486 H513 0.931 . S
C487 C486 1.381 . S
C487 C488 1.321 . S
C488 C487 1.321 . S
C488 C489 1.403 . S
C488 H514 0.934 . S
C489 C484 1.413 . S
C489 C488 1.403 . S
C489 H515 0.930 . S
C490 O504 1.275 . S
C490 O505 1.256 . S
C491 O506 1.259 . S
C491 O507 1.268 . S
C492 Ho481 2.811 . S
C492 C493 1.488 . S
C492 O508 1.215 . S
C492 O509 1.289 . S
C493 C492 1.488 . S
C493 C494 1.348 . S
C493 C498 1.413 . S
C494 C493 1.348 . S
C494 C495 1.442 . S
C494 H516 0.930 . S
C495 C494 1.442 . S
C495 C496 1.381 . S
C495 H517 0.931 . S
C496 C495 1.381 . S
C496 C497 1.321 . S
C497 C496 1.321 . S
C497 C498 1.403 . S
C497 H518 0.934 . S
C498 C493 1.413 . S
C498 C497 1.403 . S
C498 H519 0.930 . S
C499 O510 1.275 . S
C499 O511 1.256 . S
O500 Ho480 2.322 . S
O500 C482 1.259 . S
O501 Ho481 2.346 . S
O501 C482 1.268 . S
O502 Ho480 2.378 . S
O502 C483 1.215 . S
O503 Ho480 2.524 . S
O503 C483 1.289 . S
O504 Ho480 2.381 . S
O504 C490 1.275 . S
O505 Ho480 2.669 . S
O505 Ho481 2.305 . S
O505 C490 1.256 . S
O506 Ho481 2.322 . S
O506 C491 1.259 . S
O507 Ho480 2.346 . S
O507 C491 1.268 . S
O508 Ho481 2.378 . S
O508 C492 1.215 . S
O509 Ho481 2.524 . S
O509 C492 1.289 . S
O510 Ho481 2.381 . S
O510 C499 1.275 . S
O511 Ho480 2.305 . S
O511 Ho481 2.669 . S
O511 C499 1.256 . S
H512 C485 0.930 . S
H513 C486 0.931 . S
H514 C488 0.934 . S
H515 C489 0.930 . S
H516 C494 0.930 . S
H517 C495 0.931 . S
H518 C497 0.934 . S
H519 C498 0.930 . S
Ho520 C523 2.811 . S
Ho520 O540 2.322 . S
Ho520 O542 2.378 . S
Ho520 O543 2.524 . S
Ho520 O544 2.381 . S
Ho520 O545 2.669 . S
Ho520 O547 2.346 . S
Ho520 O551 2.305 . S
Ho521 C532 2.811 . S
Ho521 O541 2.346 . S
Ho521 O545 2.305 . S
Ho521 O546 2.322 . S
Ho521 O548 2.378 . S
Ho521 O549 2.524 . S
Ho521 O550 2.381 . S
Ho521 O551 2.669 . S
C522 O540 1.259 . S
C522 O541 1.268 . S
C523 Ho520 2.811 . S
C523 C524 1.488 . S
C523 O542 1.215 . S
C523 O543 1.289 . S
C524 C523 1.488 . S
C524 C525 1.348 . S
C524 C529 1.413 . S
C525 C524 1.348 . S
C525 C526 1.442 . S
C525 H552 0.930 . S
C526 C525 1.442 . S
C526 C527 1.381 . S
C526 H553 0.931 . S
C527 C526 1.381 . S
C527 C528 1.321 . S
C528 C527 1.321 . S
C528 C529 1.403 . S
C528 H554 0.934 . S
C529 C524 1.413 . S
C529 C528 1.403 . S
C529 H555 0.930 . S
C530 O544 1.275 . S
C530 O545 1.256 . S
C531 O546 1.259 . S
C531 O547 1.268 . S
C532 Ho521 2.811 . S
C532 C533 1.488 . S
C532 O548 1.215 . S
C532 O549 1.289 . S
C533 C532 1.488 . S
C533 C534 1.348 . S
C533 C538 1.413 . S
C534 C533 1.348 . S
C534 C535 1.442 . S
C534 H556 0.930 . S
C535 C534 1.442 . S
C535 C536 1.381 . S
C535 H557 0.931 . S
C536 C535 1.381 . S
C536 C537 1.321 . S
C537 C536 1.321 . S
C537 C538 1.403 . S
C537 H558 0.934 . S
C538 C533 1.413 . S
C538 C537 1.403 . S
C538 H559 0.930 . S
C539 O550 1.275 . S
C539 O551 1.256 . S
O540 Ho520 2.322 . S
O540 C522 1.259 . S
O541 Ho521 2.346 . S
O541 C522 1.268 . S
O542 Ho520 2.378 . S
O542 C523 1.215 . S
O543 Ho520 2.524 . S
O543 C523 1.289 . S
O544 Ho520 2.381 . S
O544 C530 1.275 . S
O545 Ho520 2.669 . S
O545 Ho521 2.305 . S
O545 C530 1.256 . S
O546 Ho521 2.322 . S
O546 C531 1.259 . S
O547 Ho520 2.346 . S
O547 C531 1.268 . S
O548 Ho521 2.378 . S
O548 C532 1.215 . S
O549 Ho521 2.524 . S
O549 C532 1.289 . S
O550 Ho521 2.381 . S
O550 C539 1.275 . S
O551 Ho520 2.305 . S
O551 Ho521 2.669 . S
O551 C539 1.256 . S
H552 C525 0.930 . S
H553 C526 0.931 . S
H554 C528 0.934 . S
H555 C529 0.930 . S
H556 C534 0.930 . S
H557 C535 0.931 . S
H558 C537 0.934 . S
H559 C538 0.930 . S
Ho560 C563 2.811 . S
Ho560 O580 2.322 . S
Ho560 O582 2.378 . S
Ho560 O583 2.524 . S
Ho560 O584 2.381 . S
Ho560 O585 2.669 . S
Ho560 O587 2.346 . S
Ho560 O591 2.305 . S
Ho561 C572 2.811 . S
Ho561 O581 2.346 . S
Ho561 O585 2.305 . S
Ho561 O586 2.322 . S
Ho561 O588 2.378 . S
Ho561 O589 2.524 . S
Ho561 O590 2.381 . S
Ho561 O591 2.669 . S
C562 O580 1.259 . S
C562 O581 1.268 . S
C563 Ho560 2.811 . S
C563 C564 1.488 . S
C563 O582 1.215 . S
C563 O583 1.289 . S
C564 C563 1.488 . S
C564 C565 1.348 . S
C564 C569 1.413 . S
C565 C564 1.348 . S
C565 C566 1.442 . S
C565 H592 0.930 . S
C566 C565 1.442 . S
C566 C567 1.381 . S
C566 H593 0.931 . S
C567 C566 1.381 . S
C567 C568 1.321 . S
C568 C567 1.321 . S
C568 C569 1.403 . S
C568 H594 0.934 . S
C569 C564 1.413 . S
C569 C568 1.403 . S
C569 H595 0.930 . S
C570 O584 1.275 . S
C570 O585 1.256 . S
C571 O586 1.259 . S
C571 O587 1.268 . S
C572 Ho561 2.811 . S
C572 C573 1.488 . S
C572 O588 1.215 . S
C572 O589 1.289 . S
C573 C572 1.488 . S
C573 C574 1.348 . S
C573 C578 1.413 . S
C574 C573 1.348 . S
C574 C575 1.442 . S
C574 H596 0.930 . S
C575 C574 1.442 . S
C575 C576 1.381 . S
C575 H597 0.931 . S
C576 C575 1.381 . S
C576 C577 1.321 . S
C577 C576 1.321 . S
C577 C578 1.403 . S
C577 H598 0.934 . S
C578 C573 1.413 . S
C578 C577 1.403 . S
C578 H599 0.930 . S
C579 O590 1.275 . S
C579 O591 1.256 . S
O580 Ho560 2.322 . S
O580 C562 1.259 . S
O581 Ho561 2.346 . S
O581 C562 1.268 . S
O582 Ho560 2.378 . S
O582 C563 1.215 . S
O583 Ho560 2.524 . S
O583 C563 1.289 . S
O584 Ho560 2.381 . S
O584 C570 1.275 . S
O585 Ho560 2.669 . S
O585 Ho561 2.305 . S
O585 C570 1.256 . S
O586 Ho561 2.322 . S
O586 C571 1.259 . S
O587 Ho560 2.346 . S
O587 C571 1.268 . S
O588 Ho561 2.378 . S
O588 C572 1.215 . S
O589 Ho561 2.524 . S
O589 C572 1.289 . S
O590 Ho561 2.381 . S
O590 C579 1.275 . S
O591 Ho560 2.305 . S
O591 Ho561 2.669 . S
O591 C579 1.256 . S
H592 C565 0.930 . S
H593 C566 0.931 . S
H594 C568 0.934 . S
H595 C569 0.930 . S
H596 C574 0.930 . S
H597 C575 0.931 . S
H598 C577 0.934 . S
H599 C578 0.930 . S
Ho600 C603 2.811 . S
Ho600 O620 2.322 . S
Ho600 O622 2.378 . S
Ho600 O623 2.524 . S
Ho600 O624 2.381 . S
Ho600 O625 2.669 . S
Ho600 O627 2.346 . S
Ho600 O631 2.305 . S
Ho601 C612 2.811 . S
Ho601 O621 2.346 . S
Ho601 O625 2.305 . S
Ho601 O626 2.322 . S
Ho601 O628 2.378 . S
Ho601 O629 2.524 . S
Ho601 O630 2.381 . S
Ho601 O631 2.669 . S
C602 O620 1.259 . S
C602 O621 1.268 . S
C603 Ho600 2.811 . S
C603 C604 1.488 . S
C603 O622 1.215 . S
C603 O623 1.289 . S
C604 C603 1.488 . S
C604 C605 1.348 . S
C604 C609 1.413 . S
C605 C604 1.348 . S
C605 C606 1.442 . S
C605 H632 0.930 . S
C606 C605 1.442 . S
C606 C607 1.381 . S
C606 H633 0.931 . S
C607 C606 1.381 . S
C607 C608 1.321 . S
C608 C607 1.321 . S
C608 C609 1.403 . S
C608 H634 0.934 . S
C609 C604 1.413 . S
C609 C608 1.403 . S
C609 H635 0.930 . S
C610 O624 1.275 . S
C610 O625 1.256 . S
C611 O626 1.259 . S
C611 O627 1.268 . S
C612 Ho601 2.811 . S
C612 C613 1.488 . S
C612 O628 1.215 . S
C612 O629 1.289 . S
C613 C612 1.488 . S
C613 C614 1.348 . S
C613 C618 1.413 . S
C614 C613 1.348 . S
C614 C615 1.442 . S
C614 H636 0.930 . S
C615 C614 1.442 . S
C615 C616 1.381 . S
C615 H637 0.931 . S
C616 C615 1.381 . S
C616 C617 1.321 . S
C617 C616 1.321 . S
C617 C618 1.403 . S
C617 H638 0.934 . S
C618 C613 1.413 . S
C618 C617 1.403 . S
C618 H639 0.930 . S
C619 O630 1.275 . S
C619 O631 1.256 . S
O620 Ho600 2.322 . S
O620 C602 1.259 . S
O621 Ho601 2.346 . S
O621 C602 1.268 . S
O622 Ho600 2.378 . S
O622 C603 1.215 . S
O623 Ho600 2.524 . S
O623 C603 1.289 . S
O624 Ho600 2.381 . S
O624 C610 1.275 . S
O625 Ho600 2.669 . S
O625 Ho601 2.305 . S
O625 C610 1.256 . S
O626 Ho601 2.322 . S
O626 C611 1.259 . S
O627 Ho600 2.346 . S
O627 C611 1.268 . S
O628 Ho601 2.378 . S
O628 C612 1.215 . S
O629 Ho601 2.524 . S
O629 C612 1.289 . S
O630 Ho601 2.381 . S
O630 C619 1.275 . S
O631 Ho600 2.305 . S
O631 Ho601 2.669 . S
O631 C619 1.256 . S
H632 C605 0.930 . S
H633 C606 0.931 . S
H634 C608 0.934 . S
H635 C609 0.930 . S
H636 C614 0.930 . S
H637 C615 0.931 . S
H638 C617 0.934 . S
H639 C618 0.930 . S
H640 C648 0.950 . S
H641 C653 0.950 . S
H642 C650 0.950 . S
H643 C652 0.950 . S
H644 C654 0.950 . S
H645 C656 0.950 . S
H646 C658 0.950 . S
H647 C659 0.950 . S
C648 H640 0.950 . S
C648 C649 1.386 . S
C648 C650 1.391 . S
C649 C648 1.386 . S
C649 C653 1.393 . S
C650 H642 0.950 . S
C650 C648 1.391 . S
C650 C651 1.400 . S
C651 C650 1.400 . S
C651 C652 1.398 . S
C651 C657 1.491 . S
C652 H643 0.950 . S
C652 C651 1.398 . S
C652 C653 1.391 . S
C653 H641 0.950 . S
C653 C649 1.393 . S
C653 C652 1.391 . S
C654 H644 0.950 . S
C654 C655 1.386 . S
C654 C656 1.391 . S
C655 C654 1.386 . S
C655 C659 1.393 . S
C656 H645 0.950 . S
C656 C654 1.391 . S
C656 C657 1.400 . S
C657 C651 1.491 . S
C657 C656 1.400 . S
C657 C658 1.398 . S
C658 H646 0.950 . S
C658 C657 1.398 . S
C658 C659 1.391 . S
C659 H647 0.950 . S
C659 C655 1.393 . S
C659 C658 1.391 . S
H660 C668 0.950 . S
H661 C673 0.950 . S
H662 C670 0.950 . S
H663 C672 0.950 . S
H664 C674 0.950 . S
H665 C676 0.950 . S
H666 C678 0.950 . S
H667 C679 0.950 . S
C668 H660 0.950 . S
C668 C669 1.386 . S
C668 C670 1.391 . S
C669 C668 1.386 . S
C669 C673 1.393 . S
C670 H662 0.950 . S
C670 C668 1.391 . S
C670 C671 1.400 . S
C671 C670 1.400 . S
C671 C672 1.398 . S
C671 C677 1.491 . S
C672 H663 0.950 . S
C672 C671 1.398 . S
C672 C673 1.391 . S
C673 H661 0.950 . S
C673 C669 1.393 . S
C673 C672 1.391 . S
C674 H664 0.950 . S
C674 C675 1.386 . S
C674 C676 1.391 . S
C675 C674 1.386 . S
C675 C679 1.393 . S
C676 H665 0.950 . S
C676 C674 1.391 . S
C676 C677 1.400 . S
C677 C671 1.491 . S
C677 C676 1.400 . S
C677 C678 1.398 . S
C678 H666 0.950 . S
C678 C677 1.398 . S
C678 C679 1.391 . S
C679 H667 0.950 . S
C679 C675 1.393 . S
C679 C678 1.391 . S
H680 C688 0.950 . S
H681 C693 0.950 . S
H682 C690 0.950 . S
H683 C692 0.950 . S
H684 C694 0.950 . S
H685 C696 0.950 . S
H686 C698 0.950 . S
H687 C699 0.950 . S
C688 H680 0.950 . S
C688 C689 1.386 . S
C688 C690 1.391 . S
C689 C688 1.386 . S
C689 C693 1.393 . S
C690 H682 0.950 . S
C690 C688 1.391 . S
C690 C691 1.400 . S
C691 C690 1.400 . S
C691 C692 1.398 . S
C691 C697 1.491 . S
C692 H683 0.950 . S
C692 C691 1.398 . S
C692 C693 1.391 . S
C693 H681 0.950 . S
C693 C689 1.393 . S
C693 C692 1.391 . S
C694 H684 0.950 . S
C694 C695 1.386 . S
C694 C696 1.391 . S
C695 C694 1.386 . S
C695 C699 1.393 . S
C696 H685 0.950 . S
C696 C694 1.391 . S
C696 C697 1.400 . S
C697 C691 1.491 . S
C697 C696 1.400 . S
C697 C698 1.398 . S
C698 H686 0.950 . S
C698 C697 1.398 . S
C698 C699 1.391 . S
C699 H687 0.950 . S
C699 C695 1.393 . S
C699 C698 1.391 . S
H700 C708 0.950 . S
H701 C713 0.950 . S
H702 C710 0.950 . S
H703 C712 0.950 . S
H704 C714 0.950 . S
H705 C716 0.950 . S
H706 C718 0.950 . S
H707 C719 0.950 . S
C708 H700 0.950 . S
C708 C709 1.386 . S
C708 C710 1.391 . S
C709 C708 1.386 . S
C709 C713 1.393 . S
C710 H702 0.950 . S
C710 C708 1.391 . S
C710 C711 1.400 . S
C711 C710 1.400 . S
C711 C712 1.398 . S
C711 C717 1.491 . S
C712 H703 0.950 . S
C712 C711 1.398 . S
C712 C713 1.391 . S
C713 H701 0.950 . S
C713 C709 1.393 . S
C713 C712 1.391 . S
C714 H704 0.950 . S
C714 C715 1.386 . S
C714 C716 1.391 . S
C715 C714 1.386 . S
C715 C719 1.393 . S
C716 H705 0.950 . S
C716 C714 1.391 . S
C716 C717 1.400 . S
C717 C711 1.491 . S
C717 C716 1.400 . S
C717 C718 1.398 . S
C718 H706 0.950 . S
C718 C717 1.398 . S
C718 C719 1.391 . S
C719 H707 0.950 . S
C719 C715 1.393 . S
C719 C718 1.391 . S
H720 C728 0.950 . S
H721 C733 0.950 . S
H722 C730 0.950 . S
H723 C732 0.950 . S
H724 C734 0.950 . S
H725 C736 0.950 . S
H726 C738 0.950 . S
H727 C739 0.950 . S
C728 H720 0.950 . S
C728 C729 1.386 . S
C728 C730 1.391 . S
C729 C728 1.386 . S
C729 C733 1.393 . S
C730 H722 0.950 . S
C730 C728 1.391 . S
C730 C731 1.400 . S
C731 C730 1.400 . S
C731 C732 1.398 . S
C731 C737 1.491 . S
C732 H723 0.950 . S
C732 C731 1.398 . S
C732 C733 1.391 . S
C733 H721 0.950 . S
C733 C729 1.393 . S
C733 C732 1.391 . S
C734 H724 0.950 . S
C734 C735 1.386 . S
C734 C736 1.391 . S
C735 C734 1.386 . S
C735 C739 1.393 . S
C736 H725 0.950 . S
C736 C734 1.391 . S
C736 C737 1.400 . S
C737 C731 1.491 . S
C737 C736 1.400 . S
C737 C738 1.398 . S
C738 H726 0.950 . S
C738 C737 1.398 . S
C738 C739 1.391 . S
C739 H727 0.950 . S
C739 C735 1.393 . S
C739 C738 1.391 . S
H740 C748 0.950 . S
H741 C753 0.950 . S
H742 C750 0.950 . S
H743 C752 0.950 . S
H744 C754 0.950 . S
H745 C756 0.950 . S
H746 C758 0.950 . S
H747 C759 0.950 . S
C748 H740 0.950 . S
C748 C749 1.386 . S
C748 C750 1.391 . S
C749 C748 1.386 . S
C749 C753 1.393 . S
C750 H742 0.950 . S
C750 C748 1.391 . S
C750 C751 1.400 . S
C751 C750 1.400 . S
C751 C752 1.398 . S
C751 C757 1.491 . S
C752 H743 0.950 . S
C752 C751 1.398 . S
C752 C753 1.391 . S
C753 H741 0.950 . S
C753 C749 1.393 . S
C753 C752 1.391 . S
C754 H744 0.950 . S
C754 C755 1.386 . S
C754 C756 1.391 . S
C755 C754 1.386 . S
C755 C759 1.393 . S
C756 H745 0.950 . S
C756 C754 1.391 . S
C756 C757 1.400 . S
C757 C751 1.491 . S
C757 C756 1.400 . S
C757 C758 1.398 . S
C758 H746 0.950 . S
C758 C757 1.398 . S
C758 C759 1.391 . S
C759 H747 0.950 . S
C759 C755 1.393 . S
C759 C758 1.391 . S
H760 C768 0.950 . S
H761 C773 0.950 . S
H762 C770 0.950 . S
H763 C772 0.950 . S
H764 C774 0.950 . S
H765 C776 0.950 . S
H766 C778 0.950 . S
H767 C779 0.950 . S
C768 H760 0.950 . S
C768 C769 1.386 . S
C768 C770 1.391 . S
C769 C768 1.386 . S
C769 C773 1.393 . S
C770 H762 0.950 . S
C770 C768 1.391 . S
C770 C771 1.400 . S
C771 C770 1.400 . S
C771 C772 1.398 . S
C771 C777 1.491 . S
C772 H763 0.950 . S
C772 C771 1.398 . S
C772 C773 1.391 . S
C773 H761 0.950 . S
C773 C769 1.393 . S
C773 C772 1.391 . S
C774 H764 0.950 . S
C774 C775 1.386 . S
C774 C776 1.391 . S
C775 C774 1.386 . S
C775 C779 1.393 . S
C776 H765 0.950 . S
C776 C774 1.391 . S
C776 C777 1.400 . S
C777 C771 1.491 . S
C777 C776 1.400 . S
C777 C778 1.398 . S
C778 H766 0.950 . S
C778 C777 1.398 . S
C778 C779 1.391 . S
C779 H767 0.950 . S
C779 C775 1.393 . S
C779 C778 1.391 . S
H780 C788 0.950 . S
H781 C793 0.950 . S
H782 C790 0.950 . S
H783 C792 0.950 . S
H784 C794 0.950 . S
H785 C796 0.950 . S
H786 C798 0.950 . S
H787 C799 0.950 . S
C788 H780 0.950 . S
C788 C789 1.386 . S
C788 C790 1.391 . S
C789 C788 1.386 . S
C789 C793 1.393 . S
C790 H782 0.950 . S
C790 C788 1.391 . S
C790 C791 1.400 . S
C791 C790 1.400 . S
C791 C792 1.398 . S
C791 C797 1.491 . S
C792 H783 0.950 . S
C792 C791 1.398 . S
C792 C793 1.391 . S
C793 H781 0.950 . S
C793 C789 1.393 . S
C793 C792 1.391 . S
C794 H784 0.950 . S
C794 C795 1.386 . S
C794 C796 1.391 . S
C795 C794 1.386 . S
C795 C799 1.393 . S
C796 H785 0.950 . S
C796 C794 1.391 . S
C796 C797 1.400 . S
C797 C791 1.491 . S
C797 C796 1.400 . S
C797 C798 1.398 . S
C798 H786 0.950 . S
C798 C797 1.398 . S
C798 C799 1.391 . S
C799 H787 0.950 . S
C799 C795 1.393 . S
C799 C798 1.391 . S
H800 C808 0.950 . S
H801 C813 0.950 . S
H802 C810 0.950 . S
H803 C812 0.950 . S
H804 C814 0.950 . S
H805 C816 0.950 . S
H806 C818 0.950 . S
H807 C819 0.950 . S
C808 H800 0.950 . S
C808 C809 1.386 . S
C808 C810 1.391 1_565 S
C809 C808 1.386 . S
C809 C813 1.393 . S
C810 H802 0.950 . S
C810 C808 1.391 1_545 S
C810 C811 1.400 1_545 S
C811 C810 1.400 1_565 S
C811 C812 1.398 . S
C811 C817 1.491 1_565 S
C812 H803 0.950 . S
C812 C811 1.398 . S
C812 C813 1.391 . S
C813 H801 0.950 . S
C813 C809 1.393 . S
C813 C812 1.391 . S
C814 H804 0.950 . S
C814 C815 1.386 . S
C814 C816 1.391 1_545 S
C815 C814 1.386 . S
C815 C819 1.393 . S
C816 H805 0.950 . S
C816 C814 1.391 1_565 S
C816 C817 1.400 1_565 S
C817 C811 1.491 1_545 S
C817 C816 1.400 1_545 S
C817 C818 1.398 . S
C818 H806 0.950 . S
C818 C817 1.398 . S
C818 C819 1.391 . S
C819 H807 0.950 . S
C819 C815 1.393 . S
C819 C818 1.391 . S
H820 C828 0.950 . S
H821 C833 0.950 . S
H822 C830 0.950 . S
H823 C832 0.950 1_565 S
H824 C834 0.950 . S
H825 C836 0.950 . S
H826 C838 0.950 1_545 S
H827 C839 0.950 . S
C828 H820 0.950 . S
C828 C829 1.386 . S
C828 C830 1.391 . S
C829 C828 1.386 . S
C829 C833 1.393 . S
C830 H822 0.950 . S
C830 C828 1.391 . S
C830 C831 1.400 . S
C831 C830 1.400 . S
C831 C832 1.398 . S
C831 C837 1.491 1_545 S
C832 H823 0.950 1_545 S
C832 C831 1.398 . S
C832 C833 1.391 . S
C833 H821 0.950 . S
C833 C829 1.393 . S
C833 C832 1.391 . S
C834 H824 0.950 . S
C834 C835 1.386 . S
C834 C836 1.391 . S
C835 C834 1.386 . S
C835 C839 1.393 . S
C836 H825 0.950 . S
C836 C834 1.391 . S
C836 C837 1.400 . S
C837 C831 1.491 1_565 S
C837 C836 1.400 . S
C837 C838 1.398 . S
C838 H826 0.950 1_565 S
C838 C837 1.398 . S
C838 C839 1.391 . S
C839 H827 0.950 . S
C839 C835 1.393 . S
C839 C838 1.391 . S
H840 C848 0.950 . S
H841 C853 0.950 . S
H842 C850 0.950 . S
H843 C852 0.950 . S
H844 C854 0.950 . S
H845 C856 0.950 . S
H846 C858 0.950 . S
H847 C859 0.950 . S
C848 H840 0.950 . S
C848 C849 1.386 . S
C848 C850 1.391 . S
C849 C848 1.386 . S
C849 C853 1.393 . S
C850 H842 0.950 . S
C850 C848 1.391 . S
C850 C851 1.400 . S
C851 C850 1.400 . S
C851 C852 1.398 . S
C851 C857 1.491 1_545 S
C852 H843 0.950 . S
C852 C851 1.398 . S
C852 C853 1.391 . S
C853 H841 0.950 . S
C853 C849 1.393 . S
C853 C852 1.391 . S
C854 H844 0.950 . S
C854 C855 1.386 . S
C854 C856 1.391 . S
C855 C854 1.386 . S
C855 C859 1.393 . S
C856 H845 0.950 . S
C856 C854 1.391 . S
C856 C857 1.400 . S
C857 C851 1.491 1_565 S
C857 C856 1.400 . S
C857 C858 1.398 . S
C858 H846 0.950 . S
C858 C857 1.398 . S
C858 C859 1.391 . S
C859 H847 0.950 . S
C859 C855 1.393 . S
C859 C858 1.391 . S
H860 C868 0.950 . S
H861 C873 0.950 . S
H862 C870 0.950 1_565 S
H863 C872 0.950 . S
H864 C874 0.950 . S
H865 C876 0.950 1_545 S
H866 C878 0.950 . S
H867 C879 0.950 . S
C868 H860 0.950 . S
C868 C869 1.386 . S
C868 C870 1.391 . S
C869 C868 1.386 . S
C869 C873 1.393 . S
C870 H862 0.950 1_545 S
C870 C868 1.391 . S
C870 C871 1.400 . S
C871 C870 1.400 . S
C871 C872 1.398 . S
C871 C877 1.491 1_545 S
C872 H863 0.950 . S
C872 C871 1.398 . S
C872 C873 1.391 . S
C873 H861 0.950 . S
C873 C869 1.393 . S
C873 C872 1.391 . S
C874 H864 0.950 . S
C874 C875 1.386 . S
C874 C876 1.391 . S
C875 C874 1.386 . S
C875 C879 1.393 . S
C876 H865 0.950 1_565 S
C876 C874 1.391 . S
C876 C877 1.400 . S
C877 C871 1.491 1_565 S
C877 C876 1.400 . S
C877 C878 1.398 . S
C878 H866 0.950 . S
C878 C877 1.398 . S
C878 C879 1.391 . S
C879 H867 0.950 . S
C879 C875 1.393 . S
C879 C878 1.391 . S
H880 C888 0.950 . S
H881 C893 0.950 . S
H882 C890 0.950 . S
H883 C892 0.950 . S
H884 C894 0.950 . S
H885 C896 0.950 . S
H886 C898 0.950 . S
H887 C899 0.950 . S
C888 H880 0.950 . S
C888 C889 1.386 . S
C888 C890 1.391 . S
C889 C888 1.386 . S
C889 C893 1.393 . S
C890 H882 0.950 . S
C890 C888 1.391 . S
C890 C891 1.400 . S
C891 C890 1.400 . S
C891 C892 1.398 . S
C891 C897 1.491 . S
C892 H883 0.950 . S
C892 C891 1.398 . S
C892 C893 1.391 . S
C893 H881 0.950 . S
C893 C889 1.393 . S
C893 C892 1.391 . S
C894 H884 0.950 . S
C894 C895 1.386 . S
C894 C896 1.391 . S
C895 C894 1.386 . S
C895 C899 1.393 . S
C896 H885 0.950 . S
C896 C894 1.391 . S
C896 C897 1.400 . S
C897 C891 1.491 . S
C897 C896 1.400 . S
C897 C898 1.398 . S
C898 H886 0.950 . S
C898 C897 1.398 . S
C898 C899 1.391 . S
C899 H887 0.950 . S
C899 C895 1.393 . S
C899 C898 1.391 . S
H900 C908 0.950 . S
H901 C913 0.950 . S
H902 C910 0.950 . S
H903 C912 0.950 . S
H904 C914 0.950 . S
H905 C916 0.950 . S
H906 C918 0.950 . S
H907 C919 0.950 . S
C908 H900 0.950 . S
C908 C909 1.386 . S
C908 C910 1.391 . S
C909 C908 1.386 . S
C909 C913 1.393 . S
C910 H902 0.950 . S
C910 C908 1.391 . S
C910 C911 1.400 . S
C911 C910 1.400 . S
C911 C912 1.398 . S
C911 C917 1.491 . S
C912 H903 0.950 . S
C912 C911 1.398 . S
C912 C913 1.391 . S
C913 H901 0.950 . S
C913 C909 1.393 . S
C913 C912 1.391 . S
C914 H904 0.950 . S
C914 C915 1.386 . S
C914 C916 1.391 . S
C915 C914 1.386 . S
C915 C919 1.393 . S
C916 H905 0.950 . S
C916 C914 1.391 . S
C916 C917 1.400 . S
C917 C911 1.491 . S
C917 C916 1.400 . S
C917 C918 1.398 . S
C918 H906 0.950 . S
C918 C917 1.398 . S
C918 C919 1.391 . S
C919 H907 0.950 . S
C919 C915 1.393 . S
C919 C918 1.391 . S
H920 C928 0.950 . S
H921 C933 0.950 . S
H922 C930 0.950 . S
H923 C932 0.950 . S
H924 C934 0.950 . S
H925 C936 0.950 . S
H926 C938 0.950 . S
H927 C939 0.950 . S
C928 H920 0.950 . S
C928 C929 1.386 . S
C928 C930 1.391 . S
C929 C928 1.386 . S
C929 C933 1.393 . S
C930 H922 0.950 . S
C930 C928 1.391 . S
C930 C931 1.400 . S
C931 C930 1.400 . S
C931 C932 1.398 . S
C931 C937 1.491 . S
C932 H923 0.950 . S
C932 C931 1.398 . S
C932 C933 1.391 . S
C933 H921 0.950 . S
C933 C929 1.393 . S
C933 C932 1.391 . S
C934 H924 0.950 . S
C934 C935 1.386 . S
C934 C936 1.391 . S
C935 C934 1.386 . S
C935 C939 1.393 . S
C936 H925 0.950 . S
C936 C934 1.391 . S
C936 C937 1.400 . S
C937 C931 1.491 . S
C937 C936 1.400 . S
C937 C938 1.398 . S
C938 H926 0.950 . S
C938 C937 1.398 . S
C938 C939 1.391 . S
C939 H927 0.950 . S
C939 C935 1.393 . S
C939 C938 1.391 . S
H940 C948 0.950 . S
H941 C953 0.950 . S
H942 C950 0.950 . S
H943 C952 0.950 . S
H944 C954 0.950 . S
H945 C956 0.950 . S
H946 C958 0.950 . S
H947 C959 0.950 . S
C948 H940 0.950 . S
C948 C949 1.386 . S
C948 C950 1.391 . S
C949 C948 1.386 . S
C949 C953 1.393 . S
C950 H942 0.950 . S
C950 C948 1.391 . S
C950 C951 1.400 . S
C951 C950 1.400 . S
C951 C952 1.398 . S
C951 C957 1.491 . S
C952 H943 0.950 . S
C952 C951 1.398 . S
C952 C953 1.391 . S
C953 H941 0.950 . S
C953 C949 1.393 . S
C953 C952 1.391 . S
C954 H944 0.950 . S
C954 C955 1.386 . S
C954 C956 1.391 . S
C955 C954 1.386 . S
C955 C959 1.393 . S
C956 H945 0.950 . S
C956 C954 1.391 . S
C956 C957 1.400 . S
C957 C951 1.491 . S
C957 C956 1.400 . S
C957 C958 1.398 . S
C958 H946 0.950 . S
C958 C957 1.398 . S
C958 C959 1.391 . S
C959 H947 0.950 . S
C959 C955 1.393 . S
C959 C958 1.391 . S
H960 C968 0.950 . S
H961 C973 0.950 . S
H962 C970 0.950 . S
H963 C972 0.950 . S
H964 C974 0.950 . S
H965 C976 0.950 . S
H966 C978 0.950 . S
H967 C979 0.950 . S
C968 H960 0.950 . S
C968 C969 1.386 . S
C968 C970 1.391 . S
C969 C968 1.386 . S
C969 C973 1.393 . S
C970 H962 0.950 . S
C970 C968 1.391 . S
C970 C971 1.400 . S
C971 C970 1.400 . S
C971 C972 1.398 . S
C971 C977 1.491 1_556 S
C972 H963 0.950 . S
C972 C971 1.398 . S
C972 C973 1.391 . S
C973 H961 0.950 . S
C973 C969 1.393 . S
C973 C972 1.391 . S
C974 H964 0.950 . S
C974 C975 1.386 . S
C974 C976 1.391 . S
C975 C974 1.386 . S
C975 C979 1.393 . S
C976 H965 0.950 . S
C976 C974 1.391 . S
C976 C977 1.400 . S
C977 C971 1.491 1_554 S
C977 C976 1.400 . S
C977 C978 1.398 . S
C978 H966 0.950 . S
C978 C977 1.398 . S
C978 C979 1.391 . S
C979 H967 0.950 . S
C979 C975 1.393 . S
C979 C978 1.391 . S
H980 C988 0.950 . S
H981 C993 0.950 . S
H982 C990 0.950 . S
H983 C992 0.950 . S
H984 C994 0.950 . S
H985 C996 0.950 . S
H986 C998 0.950 . S
H987 C999 0.950 . S
C988 H980 0.950 . S
C988 C989 1.386 . S
C988 C990 1.391 . S
C989 C988 1.386 . S
C989 C993 1.393 . S
C990 H982 0.950 . S
C990 C988 1.391 . S
C990 C991 1.400 . S
C991 C990 1.400 . S
C991 C992 1.398 . S
C991 C997 1.491 1_556 S
C992 H983 0.950 . S
C992 C991 1.398 . S
C992 C993 1.391 . S
C993 H981 0.950 . S
C993 C989 1.393 . S
C993 C992 1.391 . S
C994 H984 0.950 . S
C994 C995 1.386 . S
C994 C996 1.391 . S
C995 C994 1.386 . S
C995 C999 1.393 . S
C996 H985 0.950 . S
C996 C994 1.391 . S
C996 C997 1.400 . S
C997 C991 1.491 1_554 S
C997 C996 1.400 . S
C997 C998 1.398 . S
C998 H986 0.950 . S
C998 C997 1.398 . S
C998 C999 1.391 . S
C999 H987 0.950 . S
C999 C995 1.393 . S
C999 C998 1.391 . S
H1000 C1008 0.950 . S
H1001 C1013 0.950 . S
H1002 C1010 0.950 . S
H1003 C1012 0.950 . S
H1004 C1014 0.950 . S
H1005 C1016 0.950 . S
H1006 C1018 0.950 . S
H1007 C1019 0.950 . S
C1008 H1000 0.950 . S
C1008 C1009 1.386 . S
C1008 C1010 1.391 . S
C1009 C1008 1.386 . S
C1009 C1013 1.393 . S
C1010 H1002 0.950 . S
C1010 C1008 1.391 . S
C1010 C1011 1.400 . S
C1011 C1010 1.400 . S
C1011 C1012 1.398 . S
C1011 C1017 1.491 . S
C1012 H1003 0.950 . S
C1012 C1011 1.398 . S
C1012 C1013 1.391 . S
C1013 H1001 0.950 . S
C1013 C1009 1.393 . S
C1013 C1012 1.391 . S
C1014 H1004 0.950 . S
C1014 C1015 1.386 . S
C1014 C1016 1.391 . S
C1015 C1014 1.386 . S
C1015 C1019 1.393 . S
C1016 H1005 0.950 . S
C1016 C1014 1.391 . S
C1016 C1017 1.400 . S
C1017 C1011 1.491 . S
C1017 C1016 1.400 . S
C1017 C1018 1.398 . S
C1018 H1006 0.950 . S
C1018 C1017 1.398 . S
C1018 C1019 1.391 . S
C1019 H1007 0.950 . S
C1019 C1015 1.393 . S
C1019 C1018 1.391 . S
H1020 C1028 0.950 . S
H1021 C1033 0.950 . S
H1022 C1030 0.950 . S
H1023 C1032 0.950 . S
H1024 C1034 0.950 . S
H1025 C1036 0.950 . S
H1026 C1038 0.950 . S
H1027 C1039 0.950 . S
C1028 H1020 0.950 . S
C1028 C1029 1.386 . S
C1028 C1030 1.391 . S
C1029 C1028 1.386 . S
C1029 C1033 1.393 . S
C1030 H1022 0.950 . S
C1030 C1028 1.391 . S
C1030 C1031 1.400 . S
C1031 C1030 1.400 . S
C1031 C1032 1.398 . S
C1031 C1037 1.491 . S
C1032 H1023 0.950 . S
C1032 C1031 1.398 . S
C1032 C1033 1.391 . S
C1033 H1021 0.950 . S
C1033 C1029 1.393 . S
C1033 C1032 1.391 . S
C1034 H1024 0.950 . S
C1034 C1035 1.386 . S
C1034 C1036 1.391 . S
C1035 C1034 1.386 . S
C1035 C1039 1.393 . S
C1036 H1025 0.950 . S
C1036 C1034 1.391 . S
C1036 C1037 1.400 . S
C1037 C1031 1.491 . S
C1037 C1036 1.400 . S
C1037 C1038 1.398 . S
C1038 H1026 0.950 . S
C1038 C1037 1.398 . S
C1038 C1039 1.391 . S
C1039 H1027 0.950 . S
C1039 C1035 1.393 . S
C1039 C1038 1.391 . S
H1040 C1048 0.950 . S
H1041 C1053 0.950 . S
H1042 C1050 0.950 . S
H1043 C1052 0.950 . S
H1044 C1054 0.950 . S
H1045 C1056 0.950 . S
H1046 C1058 0.950 . S
H1047 C1059 0.950 . S
C1048 H1040 0.950 . S
C1048 C1049 1.386 . S
C1048 C1050 1.391 . S
C1049 C1048 1.386 . S
C1049 C1053 1.393 . S
C1050 H1042 0.950 . S
C1050 C1048 1.391 . S
C1050 C1051 1.400 . S
C1051 C1050 1.400 . S
C1051 C1052 1.398 . S
C1051 C1057 1.491 1_554 S
C1052 H1043 0.950 . S
C1052 C1051 1.398 . S
C1052 C1053 1.391 . S
C1053 H1041 0.950 . S
C1053 C1049 1.393 . S
C1053 C1052 1.391 . S
C1054 H1044 0.950 . S
C1054 C1055 1.386 . S
C1054 C1056 1.391 . S
C1055 C1054 1.386 . S
C1055 C1059 1.393 . S
C1056 H1045 0.950 . S
C1056 C1054 1.391 . S
C1056 C1057 1.400 . S
C1057 C1051 1.491 1_556 S
C1057 C1056 1.400 . S
C1057 C1058 1.398 . S
C1058 H1046 0.950 . S
C1058 C1057 1.398 . S
C1058 C1059 1.391 . S
C1059 H1047 0.950 . S
C1059 C1055 1.393 . S
C1059 C1058 1.391 . S
H1060 C1068 0.950 . S
H1061 C1073 0.950 . S
H1062 C1070 0.950 . S
H1063 C1072 0.950 . S
H1064 C1074 0.950 . S
H1065 C1076 0.950 . S
H1066 C1078 0.950 . S
H1067 C1079 0.950 . S
C1068 H1060 0.950 . S
C1068 C1069 1.386 . S
C1068 C1070 1.391 . S
C1069 C1068 1.386 . S
C1069 C1073 1.393 . S
C1070 H1062 0.950 . S
C1070 C1068 1.391 . S
C1070 C1071 1.400 . S
C1071 C1070 1.400 . S
C1071 C1072 1.398 . S
C1071 C1077 1.491 1_556 S
C1072 H1063 0.950 . S
C1072 C1071 1.398 . S
C1072 C1073 1.391 . S
C1073 H1061 0.950 . S
C1073 C1069 1.393 . S
C1073 C1072 1.391 . S
C1074 H1064 0.950 . S
C1074 C1075 1.386 . S
C1074 C1076 1.391 . S
C1075 C1074 1.386 . S
C1075 C1079 1.393 . S
C1076 H1065 0.950 . S
C1076 C1074 1.391 . S
C1076 C1077 1.400 . S
C1077 C1071 1.491 1_554 S
C1077 C1076 1.400 . S
C1077 C1078 1.398 . S
C1078 H1066 0.950 . S
C1078 C1077 1.398 . S
C1078 C1079 1.391 . S
C1079 H1067 0.950 . S
C1079 C1075 1.393 . S
C1079 C1078 1.391 . S
H1080 C1088 0.950 . S
H1081 C1093 0.950 . S
H1082 C1090 0.950 . S
H1083 C1092 0.950 . S
H1084 C1094 0.950 . S
H1085 C1096 0.950 . S
H1086 C1098 0.950 . S
H1087 C1099 0.950 . S
C1088 H1080 0.950 . S
C1088 C1089 1.386 . S
C1088 C1090 1.391 . S
C1089 C1088 1.386 . S
C1089 C1093 1.393 . S
C1090 H1082 0.950 . S
C1090 C1088 1.391 . S
C1090 C1091 1.400 . S
C1091 C1090 1.400 . S
C1091 C1092 1.398 . S
C1091 C1097 1.491 . S
C1092 H1083 0.950 . S
C1092 C1091 1.398 . S
C1092 C1093 1.391 . S
C1093 H1081 0.950 . S
C1093 C1089 1.393 . S
C1093 C1092 1.391 . S
C1094 H1084 0.950 . S
C1094 C1095 1.386 . S
C1094 C1096 1.391 . S
C1095 C1094 1.386 . S
C1095 C1099 1.393 . S
C1096 H1085 0.950 . S
C1096 C1094 1.391 . S
C1096 C1097 1.400 . S
C1097 C1091 1.491 . S
C1097 C1096 1.400 . S
C1097 C1098 1.398 . S
C1098 H1086 0.950 . S
C1098 C1097 1.398 . S
C1098 C1099 1.391 . S
C1099 H1087 0.950 . S
C1099 C1095 1.393 . S
C1099 C1098 1.391 . S
H1100 C1108 0.950 . S
H1101 C1113 0.950 . S
H1102 C1110 0.950 . S
H1103 C1112 0.950 . S
H1104 C1114 0.950 . S
H1105 C1116 0.950 . S
H1106 C1118 0.950 . S
H1107 C1119 0.950 . S
C1108 H1100 0.950 . S
C1108 C1109 1.386 . S
C1108 C1110 1.391 . S
C1109 C1108 1.386 . S
C1109 C1113 1.393 . S
C1110 H1102 0.950 . S
C1110 C1108 1.391 . S
C1110 C1111 1.400 . S
C1111 C1110 1.400 . S
C1111 C1112 1.398 . S
C1111 C1117 1.491 . S
C1112 H1103 0.950 . S
C1112 C1111 1.398 . S
C1112 C1113 1.391 . S
C1113 H1101 0.950 . S
C1113 C1109 1.393 . S
C1113 C1112 1.391 . S
C1114 H1104 0.950 . S
C1114 C1115 1.386 . S
C1114 C1116 1.391 . S
C1115 C1114 1.386 . S
C1115 C1119 1.393 . S
C1116 H1105 0.950 . S
C1116 C1114 1.391 . S
C1116 C1117 1.400 . S
C1117 C1111 1.491 . S
C1117 C1116 1.400 . S
C1117 C1118 1.398 . S
C1118 H1106 0.950 . S
C1118 C1117 1.398 . S
C1118 C1119 1.391 . S
C1119 H1107 0.950 . S
C1119 C1115 1.393 . S
C1119 C1118 1.391 . S
H1120 C1128 0.950 . S
H1121 C1133 0.950 . S
H1122 C1130 0.950 . S
H1123 C1132 0.950 . S
H1124 C1134 0.950 . S
H1125 C1136 0.950 . S
H1126 C1138 0.950 . S
H1127 C1139 0.950 . S
C1128 H1120 0.950 . S
C1128 C1129 1.386 . S
C1128 C1130 1.391 . S
C1129 C1128 1.386 . S
C1129 C1133 1.393 1_565 S
C1130 H1122 0.950 . S
C1130 C1128 1.391 . S
C1130 C1131 1.400 . S
C1131 C1130 1.400 . S
C1131 C1132 1.398 1_565 S
C1131 C1137 1.491 1_665 S
C1132 H1123 0.950 . S
C1132 C1131 1.398 1_545 S
C1132 C1133 1.391 . S
C1133 H1121 0.950 . S
C1133 C1129 1.393 1_545 S
C1133 C1132 1.391 . S
C1134 H1124 0.950 . S
C1134 C1135 1.386 . S
C1134 C1136 1.391 . S
C1135 C1134 1.386 . S
C1135 C1139 1.393 1_545 S
C1136 H1125 0.950 . S
C1136 C1134 1.391 . S
C1136 C1137 1.400 . S
C1137 C1131 1.491 1_445 S
C1137 C1136 1.400 . S
C1137 C1138 1.398 1_545 S
C1138 H1126 0.950 . S
C1138 C1137 1.398 1_565 S
C1138 C1139 1.391 . S
C1139 H1127 0.950 . S
C1139 C1135 1.393 1_565 S
C1139 C1138 1.391 . S
H1140 C1148 0.950 . S
H1141 C1153 0.950 . S
H1142 C1150 0.950 . S
H1143 C1152 0.950 . S
H1144 C1154 0.950 . S
H1145 C1156 0.950 . S
H1146 C1158 0.950 . S
H1147 C1159 0.950 . S
C1148 H1140 0.950 . S
C1148 C1149 1.386 1_565 S
C1148 C1150 1.391 . S
C1149 C1148 1.386 1_545 S
C1149 C1153 1.393 . S
C1150 H1142 0.950 . S
C1150 C1148 1.391 . S
C1150 C1151 1.400 1_565 S
C1151 C1150 1.400 1_545 S
C1151 C1152 1.398 . S
C1151 C1157 1.491 1_645 S
C1152 H1143 0.950 . S
C1152 C1151 1.398 . S
C1152 C1153 1.391 . S
C1153 H1141 0.950 . S
C1153 C1149 1.393 . S
C1153 C1152 1.391 . S
C1154 H1144 0.950 . S
C1154 C1155 1.386 1_545 S
C1154 C1156 1.391 . S
C1155 C1154 1.386 1_565 S
C1155 C1159 1.393 . S
C1156 H1145 0.950 . S
C1156 C1154 1.391 . S
C1156 C1157 1.400 1_545 S
C1157 C1151 1.491 1_465 S
C1157 C1156 1.400 1_565 S
C1157 C1158 1.398 . S
C1158 H1146 0.950 . S
C1158 C1157 1.398 . S
C1158 C1159 1.391 . S
C1159 H1147 0.950 . S
C1159 C1155 1.393 . S
C1159 C1158 1.391 . S
H1160 C1168 0.950 1_565 S
H1161 C1173 0.950 . S
H1162 C1170 0.950 . S
H1163 C1172 0.950 . S
H1164 C1174 0.950 1_545 S
H1165 C1176 0.950 . S
H1166 C1178 0.950 . S
H1167 C1179 0.950 . S
C1168 H1160 0.950 1_545 S
C1168 C1169 1.386 . S
C1168 C1170 1.391 1_545 S
C1169 C1168 1.386 . S
C1169 C1173 1.393 . S
C1170 H1162 0.950 . S
C1170 C1168 1.391 1_565 S
C1170 C1171 1.400 1_565 S
C1171 C1170 1.400 1_545 S
C1171 C1172 1.398 . S
C1171 C1177 1.491 1_445 S
C1172 H1163 0.950 . S
C1172 C1171 1.398 . S
C1172 C1173 1.391 . S
C1173 H1161 0.950 . S
C1173 C1169 1.393 . S
C1173 C1172 1.391 . S
C1174 H1164 0.950 1_565 S
C1174 C1175 1.386 . S
C1174 C1176 1.391 1_565 S
C1175 C1174 1.386 . S
C1175 C1179 1.393 . S
C1176 H1165 0.950 . S
C1176 C1174 1.391 1_545 S
C1176 C1177 1.400 1_545 S
C1177 C1171 1.491 1_665 S
C1177 C1176 1.400 1_565 S
C1177 C1178 1.398 . S
C1178 H1166 0.950 . S
C1178 C1177 1.398 . S
C1178 C1179 1.391 . S
C1179 H1167 0.950 . S
C1179 C1175 1.393 . S
C1179 C1178 1.391 . S
H1180 C1188 0.950 . S
H1181 C1193 0.950 . S
H1182 C1190 0.950 . S
H1183 C1192 0.950 . S
H1184 C1194 0.950 . S
H1185 C1196 0.950 . S
H1186 C1198 0.950 . S
H1187 C1199 0.950 . S
C1188 H1180 0.950 . S
C1188 C1189 1.386 1_565 S
C1188 C1190 1.391 . S
C1189 C1188 1.386 1_545 S
C1189 C1193 1.393 . S
C1190 H1182 0.950 . S
C1190 C1188 1.391 . S
C1190 C1191 1.400 1_565 S
C1191 C1190 1.400 1_545 S
C1191 C1192 1.398 . S
C1191 C1197 1.491 1_645 S
C1192 H1183 0.950 . S
C1192 C1191 1.398 . S
C1192 C1193 1.391 . S
C1193 H1181 0.950 . S
C1193 C1189 1.393 . S
C1193 C1192 1.391 . S
C1194 H1184 0.950 . S
C1194 C1195 1.386 1_545 S
C1194 C1196 1.391 . S
C1195 C1194 1.386 1_565 S
C1195 C1199 1.393 . S
C1196 H1185 0.950 . S
C1196 C1194 1.391 . S
C1196 C1197 1.400 1_545 S
C1197 C1191 1.491 1_465 S
C1197 C1196 1.400 1_565 S
C1197 C1198 1.398 . S
C1198 H1186 0.950 . S
C1198 C1197 1.398 . S
C1198 C1199 1.391 . S
C1199 H1187 0.950 . S
C1199 C1195 1.393 . S
C1199 C1198 1.391 . S
H1200 C1208 0.950 . S
H1201 C1213 0.950 . S
H1202 C1210 0.950 . S
H1203 C1212 0.950 . S
H1204 C1214 0.950 . S
H1205 C1216 0.950 . S
H1206 C1218 0.950 . S
H1207 C1219 0.950 . S
C1208 H1200 0.950 . S
C1208 C1209 1.386 . S
C1208 C1210 1.391 . S
C1209 C1208 1.386 . S
C1209 C1213 1.393 . S
C1210 H1202 0.950 . S
C1210 C1208 1.391 . S
C1210 C1211 1.400 . S
C1211 C1210 1.400 . S
C1211 C1212 1.398 . S
C1211 C1217 1.491 . S
C1212 H1203 0.950 . S
C1212 C1211 1.398 . S
C1212 C1213 1.391 . S
C1213 H1201 0.950 . S
C1213 C1209 1.393 . S
C1213 C1212 1.391 . S
C1214 H1204 0.950 . S
C1214 C1215 1.386 . S
C1214 C1216 1.391 . S
C1215 C1214 1.386 . S
C1215 C1219 1.393 . S
C1216 H1205 0.950 . S
C1216 C1214 1.391 . S
C1216 C1217 1.400 . S
C1217 C1211 1.491 . S
C1217 C1216 1.400 . S
C1217 C1218 1.398 . S
C1218 H1206 0.950 . S
C1218 C1217 1.398 . S
C1218 C1219 1.391 . S
C1219 H1207 0.950 . S
C1219 C1215 1.393 . S
C1219 C1218 1.391 . S
H1220 C1228 0.950 . S
H1221 C1233 0.950 . S
H1222 C1230 0.950 . S
H1223 C1232 0.950 . S
H1224 C1234 0.950 . S
H1225 C1236 0.950 . S
H1226 C1238 0.950 . S
H1227 C1239 0.950 . S
C1228 H1220 0.950 . S
C1228 C1229 1.386 . S
C1228 C1230 1.391 . S
C1229 C1228 1.386 . S
C1229 C1233 1.393 . S
C1230 H1222 0.950 . S
C1230 C1228 1.391 . S
C1230 C1231 1.400 . S
C1231 C1230 1.400 . S
C1231 C1232 1.398 . S
C1231 C1237 1.491 . S
C1232 H1223 0.950 . S
C1232 C1231 1.398 . S
C1232 C1233 1.391 . S
C1233 H1221 0.950 . S
C1233 C1229 1.393 . S
C1233 C1232 1.391 . S
C1234 H1224 0.950 . S
C1234 C1235 1.386 . S
C1234 C1236 1.391 . S
C1235 C1234 1.386 . S
C1235 C1239 1.393 . S
C1236 H1225 0.950 . S
C1236 C1234 1.391 . S
C1236 C1237 1.400 . S
C1237 C1231 1.491 . S
C1237 C1236 1.400 . S
C1237 C1238 1.398 . S
C1238 H1226 0.950 . S
C1238 C1237 1.398 . S
C1238 C1239 1.391 . S
C1239 H1227 0.950 . S
C1239 C1235 1.393 . S
C1239 C1238 1.391 . S
H1240 C1248 0.950 . S
H1241 C1253 0.950 . S
H1242 C1250 0.950 . S
H1243 C1252 0.950 . S
H1244 C1254 0.950 . S
H1245 C1256 0.950 . S
H1246 C1258 0.950 . S
H1247 C1259 0.950 . S
C1248 H1240 0.950 . S
C1248 C1249 1.386 . S
C1248 C1250 1.391 . S
C1249 C1248 1.386 . S
C1249 C1253 1.393 . S
C1250 H1242 0.950 . S
C1250 C1248 1.391 . S
C1250 C1251 1.400 . S
C1251 C1250 1.400 . S
C1251 C1252 1.398 . S
C1251 C1257 1.491 . S
C1252 H1243 0.950 . S
C1252 C1251 1.398 . S
C1252 C1253 1.391 . S
C1253 H1241 0.950 . S
C1253 C1249 1.393 . S
C1253 C1252 1.391 . S
C1254 H1244 0.950 . S
C1254 C1255 1.386 . S
C1254 C1256 1.391 . S
C1255 C1254 1.386 . S
C1255 C1259 1.393 . S
C1256 H1245 0.950 . S
C1256 C1254 1.391 . S
C1256 C1257 1.400 . S
C1257 C1251 1.491 . S
C1257 C1256 1.400 . S
C1257 C1258 1.398 . S
C1258 H1246 0.950 . S
C1258 C1257 1.398 . S
C1258 C1259 1.391 . S
C1259 H1247 0.950 . S
C1259 C1255 1.393 . S
C1259 C1258 1.391 . S
H1260 C1268 0.950 . S
H1261 C1273 0.950 . S
H1262 C1270 0.950 . S
H1263 C1272 0.950 . S
H1264 C1274 0.950 . S
H1265 C1276 0.950 . S
H1266 C1278 0.950 . S
H1267 C1279 0.950 . S
C1268 H1260 0.950 . S
C1268 C1269 1.386 . S
C1268 C1270 1.391 . S
C1269 C1268 1.386 . S
C1269 C1273 1.393 . S
C1270 H1262 0.950 . S
C1270 C1268 1.391 . S
C1270 C1271 1.400 . S
C1271 C1270 1.400 . S
C1271 C1272 1.398 . S
C1271 C1277 1.491 . S
C1272 H1263 0.950 . S
C1272 C1271 1.398 . S
C1272 C1273 1.391 . S
C1273 H1261 0.950 . S
C1273 C1269 1.393 . S
C1273 C1272 1.391 . S
C1274 H1264 0.950 . S
C1274 C1275 1.386 . S
C1274 C1276 1.391 . S
C1275 C1274 1.386 . S
C1275 C1279 1.393 . S
C1276 H1265 0.950 . S
C1276 C1274 1.391 . S
C1276 C1277 1.400 . S
C1277 C1271 1.491 . S
C1277 C1276 1.400 . S
C1277 C1278 1.398 . S
C1278 H1266 0.950 . S
C1278 C1277 1.398 . S
C1278 C1279 1.391 . S
C1279 H1267 0.950 . S
C1279 C1275 1.393 . S
C1279 C1278 1.391 . S
H1280 C1288 0.950 . S
H1281 C1293 0.950 . S
H1282 C1290 0.950 . S
H1283 C1292 0.950 . S
H1284 C1294 0.950 . S
H1285 C1296 0.950 . S
H1286 C1298 0.950 . S
H1287 C1299 0.950 . S
C1288 H1280 0.950 . S
C1288 C1289 1.386 . S
C1288 C1290 1.391 . S
C1289 C1288 1.386 . S
C1289 C1293 1.393 . S
C1290 H1282 0.950 . S
C1290 C1288 1.391 . S
C1290 C1291 1.400 . S
C1291 C1290 1.400 . S
C1291 C1292 1.398 . S
C1291 C1297 1.491 . S
C1292 H1283 0.950 . S
C1292 C1291 1.398 . S
C1292 C1293 1.391 . S
C1293 H1281 0.950 . S
C1293 C1289 1.393 . S
C1293 C1292 1.391 . S
C1294 H1284 0.950 . S
C1294 C1295 1.386 . S
C1294 C1296 1.391 . S
C1295 C1294 1.386 . S
C1295 C1299 1.393 . S
C1296 H1285 0.950 . S
C1296 C1294 1.391 . S
C1296 C1297 1.400 . S
C1297 C1291 1.491 . S
C1297 C1296 1.400 . S
C1297 C1298 1.398 . S
C1298 H1286 0.950 . S
C1298 C1297 1.398 . S
C1298 C1299 1.391 . S
C1299 H1287 0.950 . S
C1299 C1295 1.393 . S
C1299 C1298 1.391 . S
H1300 C1308 0.950 . S
H1301 C1313 0.950 . S
H1302 C1310 0.950 . S
H1303 C1312 0.950 . S
H1304 C1314 0.950 . S
H1305 C1316 0.950 . S
H1306 C1318 0.950 . S
H1307 C1319 0.950 . S
C1308 H1300 0.950 . S
C1308 C1309 1.386 . S
C1308 C1310 1.391 . S
C1309 C1308 1.386 . S
C1309 C1313 1.393 . S
C1310 H1302 0.950 . S
C1310 C1308 1.391 . S
C1310 C1311 1.400 . S
C1311 C1310 1.400 . S
C1311 C1312 1.398 . S
C1311 C1317 1.491 . S
C1312 H1303 0.950 . S
C1312 C1311 1.398 . S
C1312 C1313 1.391 . S
C1313 H1301 0.950 . S
C1313 C1309 1.393 . S
C1313 C1312 1.391 . S
C1314 H1304 0.950 . S
C1314 C1315 1.386 . S
C1314 C1316 1.391 . S
C1315 C1314 1.386 . S
C1315 C1319 1.393 . S
C1316 H1305 0.950 . S
C1316 C1314 1.391 . S
C1316 C1317 1.400 . S
C1317 C1311 1.491 . S
C1317 C1316 1.400 . S
C1317 C1318 1.398 . S
C1318 H1306 0.950 . S
C1318 C1317 1.398 . S
C1318 C1319 1.391 . S
C1319 H1307 0.950 . S
C1319 C1315 1.393 . S
C1319 C1318 1.391 . S
H1320 C1328 0.950 . S
H1321 C1333 0.950 . S
H1322 C1330 0.950 . S
H1323 C1332 0.950 . S
H1324 C1334 0.950 . S
H1325 C1336 0.950 . S
H1326 C1338 0.950 . S
H1327 C1339 0.950 . S
C1328 H1320 0.950 . S
C1328 C1329 1.386 . S
C1328 C1330 1.391 . S
C1329 C1328 1.386 . S
C1329 C1333 1.393 . S
C1330 H1322 0.950 . S
C1330 C1328 1.391 . S
C1330 C1331 1.400 . S
C1331 C1330 1.400 . S
C1331 C1332 1.398 . S
C1331 C1337 1.491 . S
C1332 H1323 0.950 . S
C1332 C1331 1.398 . S
C1332 C1333 1.391 . S
C1333 H1321 0.950 . S
C1333 C1329 1.393 . S
C1333 C1332 1.391 . S
C1334 H1324 0.950 . S
C1334 C1335 1.386 . S
C1334 C1336 1.391 . S
C1335 C1334 1.386 . S
C1335 C1339 1.393 . S
C1336 H1325 0.950 . S
C1336 C1334 1.391 . S
C1336 C1337 1.400 . S
C1337 C1331 1.491 . S
C1337 C1336 1.400 . S
C1337 C1338 1.398 . S
C1338 H1326 0.950 . S
C1338 C1337 1.398 . S
C1338 C1339 1.391 . S
C1339 H1327 0.950 . S
C1339 C1335 1.393 . S
C1339 C1338 1.391 . S
H1340 C1348 0.950 . S
H1341 C1353 0.950 . S
H1342 C1350 0.950 . S
H1343 C1352 0.950 . S
H1344 C1354 0.950 . S
H1345 C1356 0.950 . S
H1346 C1358 0.950 . S
H1347 C1359 0.950 . S
C1348 H1340 0.950 . S
C1348 C1349 1.386 . S
C1348 C1350 1.391 . S
C1349 C1348 1.386 . S
C1349 C1353 1.393 . S
C1350 H1342 0.950 . S
C1350 C1348 1.391 . S
C1350 C1351 1.400 . S
C1351 C1350 1.400 . S
C1351 C1352 1.398 . S
C1351 C1357 1.491 . S
C1352 H1343 0.950 . S
C1352 C1351 1.398 . S
C1352 C1353 1.391 . S
C1353 H1341 0.950 . S
C1353 C1349 1.393 . S
C1353 C1352 1.391 . S
C1354 H1344 0.950 . S
C1354 C1355 1.386 . S
C1354 C1356 1.391 . S
C1355 C1354 1.386 . S
C1355 C1359 1.393 . S
C1356 H1345 0.950 . S
C1356 C1354 1.391 . S
C1356 C1357 1.400 . S
C1357 C1351 1.491 . S
C1357 C1356 1.400 . S
C1357 C1358 1.398 . S
C1358 H1346 0.950 . S
C1358 C1357 1.398 . S
C1358 C1359 1.391 . S
C1359 H1347 0.950 . S
C1359 C1355 1.393 . S
C1359 C1358 1.391 . S
H1360 C1368 0.950 . S
H1361 C1373 0.950 . S
H1362 C1370 0.950 . S
H1363 C1372 0.950 . S
H1364 C1374 0.950 . S
H1365 C1376 0.950 . S
H1366 C1378 0.950 . S
H1367 C1379 0.950 . S
C1368 H1360 0.950 . S
C1368 C1369 1.386 . S
C1368 C1370 1.391 . S
C1369 C1368 1.386 . S
C1369 C1373 1.393 . S
C1370 H1362 0.950 . S
C1370 C1368 1.391 . S
C1370 C1371 1.400 . S
C1371 C1370 1.400 . S
C1371 C1372 1.398 . S
C1371 C1377 1.491 . S
C1372 H1363 0.950 . S
C1372 C1371 1.398 . S
C1372 C1373 1.391 . S
C1373 H1361 0.950 . S
C1373 C1369 1.393 . S
C1373 C1372 1.391 . S
C1374 H1364 0.950 . S
C1374 C1375 1.386 . S
C1374 C1376 1.391 . S
C1375 C1374 1.386 . S
C1375 C1379 1.393 . S
C1376 H1365 0.950 . S
C1376 C1374 1.391 . S
C1376 C1377 1.400 . S
C1377 C1371 1.491 . S
C1377 C1376 1.400 . S
C1377 C1378 1.398 . S
C1378 H1366 0.950 . S
C1378 C1377 1.398 . S
C1378 C1379 1.391 . S
C1379 H1367 0.950 . S
C1379 C1375 1.393 . S
C1379 C1378 1.391 . S
H1380 C1388 0.950 . S
H1381 C1393 0.950 . S
H1382 C1390 0.950 . S
H1383 C1392 0.950 . S
H1384 C1394 0.950 . S
H1385 C1396 0.950 . S
H1386 C1398 0.950 . S
H1387 C1399 0.950 . S
C1388 H1380 0.950 . S
C1388 C1389 1.386 . S
C1388 C1390 1.391 . S
C1389 C1388 1.386 . S
C1389 C1393 1.393 . S
C1390 H1382 0.950 . S
C1390 C1388 1.391 . S
C1390 C1391 1.400 . S
C1391 C1390 1.400 . S
C1391 C1392 1.398 . S
C1391 C1397 1.491 . S
C1392 H1383 0.950 . S
C1392 C1391 1.398 . S
C1392 C1393 1.391 . S
C1393 H1381 0.950 . S
C1393 C1389 1.393 . S
C1393 C1392 1.391 . S
C1394 H1384 0.950 . S
C1394 C1395 1.386 . S
C1394 C1396 1.391 . S
C1395 C1394 1.386 . S
C1395 C1399 1.393 . S
C1396 H1385 0.950 . S
C1396 C1394 1.391 . S
C1396 C1397 1.400 . S
C1397 C1391 1.491 . S
C1397 C1396 1.400 . S
C1397 C1398 1.398 . S
C1398 H1386 0.950 . S
C1398 C1397 1.398 . S
C1398 C1399 1.391 . S
C1399 H1387 0.950 . S
C1399 C1395 1.393 . S
C1399 C1398 1.391 . S
H1400 C1408 0.950 . S
H1401 C1413 0.950 . S
H1402 C1410 0.950 . S
H1403 C1412 0.950 . S
H1404 C1414 0.950 . S
H1405 C1416 0.950 . S
H1406 C1418 0.950 . S
H1407 C1419 0.950 . S
C1408 H1400 0.950 . S
C1408 C1409 1.386 . S
C1408 C1410 1.391 . S
C1409 C1408 1.386 . S
C1409 C1413 1.393 . S
C1410 H1402 0.950 . S
C1410 C1408 1.391 . S
C1410 C1411 1.400 . S
C1411 C1410 1.400 . S
C1411 C1412 1.398 . S
C1411 C1417 1.491 . S
C1412 H1403 0.950 . S
C1412 C1411 1.398 . S
C1412 C1413 1.391 . S
C1413 H1401 0.950 . S
C1413 C1409 1.393 . S
C1413 C1412 1.391 . S
C1414 H1404 0.950 . S
C1414 C1415 1.386 . S
C1414 C1416 1.391 . S
C1415 C1414 1.386 . S
C1415 C1419 1.393 . S
C1416 H1405 0.950 . S
C1416 C1414 1.391 . S
C1416 C1417 1.400 . S
C1417 C1411 1.491 . S
C1417 C1416 1.400 . S
C1417 C1418 1.398 . S
C1418 H1406 0.950 . S
C1418 C1417 1.398 . S
C1418 C1419 1.391 . S
C1419 H1407 0.950 . S
C1419 C1415 1.393 . S
C1419 C1418 1.391 . S
H1420 C1428 0.950 . S
H1421 C1433 0.950 . S
H1422 C1430 0.950 . S
H1423 C1432 0.950 . S
H1424 C1434 0.950 . S
H1425 C1436 0.950 . S
H1426 C1438 0.950 . S
H1427 C1439 0.950 . S
C1428 H1420 0.950 . S
C1428 C1429 1.386 . S
C1428 C1430 1.391 . S
C1429 C1428 1.386 . S
C1429 C1433 1.393 . S
C1430 H1422 0.950 . S
C1430 C1428 1.391 . S
C1430 C1431 1.400 . S
C1431 C1430 1.400 . S
C1431 C1432 1.398 . S
C1431 C1437 1.491 . S
C1432 H1423 0.950 . S
C1432 C1431 1.398 . S
C1432 C1433 1.391 . S
C1433 H1421 0.950 . S
C1433 C1429 1.393 . S
C1433 C1432 1.391 . S
C1434 H1424 0.950 . S
C1434 C1435 1.386 . S
C1434 C1436 1.391 . S
C1435 C1434 1.386 . S
C1435 C1439 1.393 . S
C1436 H1425 0.950 . S
C1436 C1434 1.391 . S
C1436 C1437 1.400 . S
C1437 C1431 1.491 . S
C1437 C1436 1.400 . S
C1437 C1438 1.398 . S
C1438 H1426 0.950 . S
C1438 C1437 1.398 . S
C1438 C1439 1.391 . S
C1439 H1427 0.950 . S
C1439 C1435 1.393 . S
C1439 C1438 1.391 . S
H1440 C1448 0.950 . S
H1441 C1453 0.950 . S
H1442 C1450 0.950 . S
H1443 C1452 0.950 . S
H1444 C1454 0.950 . S
H1445 C1456 0.950 . S
H1446 C1458 0.950 . S
H1447 C1459 0.950 . S
C1448 H1440 0.950 . S
C1448 C1449 1.386 . S
C1448 C1450 1.391 1_565 S
C1449 C1448 1.386 . S
C1449 C1453 1.393 . S
C1450 H1442 0.950 . S
C1450 C1448 1.391 1_545 S
C1450 C1451 1.400 . S
C1451 C1450 1.400 . S
C1451 C1452 1.398 . S
C1451 C1457 1.491 . S
C1452 H1443 0.950 . S
C1452 C1451 1.398 . S
C1452 C1453 1.391 1_545 S
C1453 H1441 0.950 . S
C1453 C1449 1.393 . S
C1453 C1452 1.391 1_565 S
C1454 H1444 0.950 . S
C1454 C1455 1.386 . S
C1454 C1456 1.391 . S
C1455 C1454 1.386 . S
C1455 C1459 1.393 . S
C1456 H1445 0.950 . S
C1456 C1454 1.391 . S
C1456 C1457 1.400 . S
C1457 C1451 1.491 . S
C1457 C1456 1.400 . S
C1457 C1458 1.398 . S
C1458 H1446 0.950 . S
C1458 C1457 1.398 . S
C1458 C1459 1.391 . S
C1459 H1447 0.950 . S
C1459 C1455 1.393 . S
C1459 C1458 1.391 . S
H1460 C1468 0.950 . S
H1461 C1473 0.950 . S
H1462 C1470 0.950 . S
H1463 C1472 0.950 . S
H1464 C1474 0.950 . S
H1465 C1476 0.950 . S
H1466 C1478 0.950 . S
H1467 C1479 0.950 . S
C1468 H1460 0.950 . S
C1468 C1469 1.386 . S
C1468 C1470 1.391 . S
C1469 C1468 1.386 . S
C1469 C1473 1.393 . S
C1470 H1462 0.950 . S
C1470 C1468 1.391 . S
C1470 C1471 1.400 . S
C1471 C1470 1.400 . S
C1471 C1472 1.398 . S
C1471 C1477 1.491 . S
C1472 H1463 0.950 . S
C1472 C1471 1.398 . S
C1472 C1473 1.391 . S
C1473 H1461 0.950 . S
C1473 C1469 1.393 . S
C1473 C1472 1.391 . S
C1474 H1464 0.950 . S
C1474 C1475 1.386 . S
C1474 C1476 1.391 1_545 S
C1475 C1474 1.386 . S
C1475 C1479 1.393 . S
C1476 H1465 0.950 . S
C1476 C1474 1.391 1_565 S
C1476 C1477 1.400 . S
C1477 C1471 1.491 . S
C1477 C1476 1.400 . S
C1477 C1478 1.398 . S
C1478 H1466 0.950 . S
C1478 C1477 1.398 . S
C1478 C1479 1.391 1_565 S
C1479 H1467 0.950 . S
C1479 C1475 1.393 . S
C1479 C1478 1.391 1_545 S
H1480 C1488 0.950 . S
H1481 C1493 0.950 . S
H1482 C1490 0.950 . S
H1483 C1492 0.950 . S
H1484 C1494 0.950 . S
H1485 C1496 0.950 . S
H1486 C1498 0.950 . S
H1487 C1499 0.950 . S
C1488 H1480 0.950 . S
C1488 C1489 1.386 . S
C1488 C1490 1.391 1_545 S
C1489 C1488 1.386 . S
C1489 C1493 1.393 . S
C1490 H1482 0.950 . S
C1490 C1488 1.391 1_565 S
C1490 C1491 1.400 . S
C1491 C1490 1.400 . S
C1491 C1492 1.398 . S
C1491 C1497 1.491 . S
C1492 H1483 0.950 . S
C1492 C1491 1.398 . S
C1492 C1493 1.391 1_565 S
C1493 H1481 0.950 . S
C1493 C1489 1.393 . S
C1493 C1492 1.391 1_545 S
C1494 H1484 0.950 . S
C1494 C1495 1.386 . S
C1494 C1496 1.391 . S
C1495 C1494 1.386 . S
C1495 C1499 1.393 . S
C1496 H1485 0.950 . S
C1496 C1494 1.391 . S
C1496 C1497 1.400 . S
C1497 C1491 1.491 . S
C1497 C1496 1.400 . S
C1497 C1498 1.398 . S
C1498 H1486 0.950 . S
C1498 C1497 1.398 . S
C1498 C1499 1.391 . S
C1499 H1487 0.950 . S
C1499 C1495 1.393 . S
C1499 C1498 1.391 . S
H1500 C1508 0.950 . S
H1501 C1513 0.950 . S
H1502 C1510 0.950 . S
H1503 C1512 0.950 . S
H1504 C1514 0.950 . S
H1505 C1516 0.950 . S
H1506 C1518 0.950 . S
H1507 C1519 0.950 . S
C1508 H1500 0.950 . S
C1508 C1509 1.386 . S
C1508 C1510 1.391 1_565 S
C1509 C1508 1.386 . S
C1509 C1513 1.393 . S
C1510 H1502 0.950 . S
C1510 C1508 1.391 1_545 S
C1510 C1511 1.400 . S
C1511 C1510 1.400 . S
C1511 C1512 1.398 . S
C1511 C1517 1.491 . S
C1512 H1503 0.950 . S
C1512 C1511 1.398 . S
C1512 C1513 1.391 1_545 S
C1513 H1501 0.950 . S
C1513 C1509 1.393 . S
C1513 C1512 1.391 1_565 S
C1514 H1504 0.950 . S
C1514 C1515 1.386 . S
C1514 C1516 1.391 . S
C1515 C1514 1.386 . S
C1515 C1519 1.393 . S
C1516 H1505 0.950 . S
C1516 C1514 1.391 . S
C1516 C1517 1.400 . S
C1517 C1511 1.491 . S
C1517 C1516 1.400 . S
C1517 C1518 1.398 . S
C1518 H1506 0.950 . S
C1518 C1517 1.398 . S
C1518 C1519 1.391 . S
C1519 H1507 0.950 . S
C1519 C1515 1.393 . S
C1519 C1518 1.391 . S
H1520 C1528 0.950 . S
H1521 C1533 0.950 . S
H1522 C1530 0.950 . S
H1523 C1532 0.950 . S
H1524 C1534 0.950 . S
H1525 C1536 0.950 . S
H1526 C1538 0.950 . S
H1527 C1539 0.950 . S
C1528 H1520 0.950 . S
C1528 C1529 1.386 . S
C1528 C1530 1.391 . S
C1529 C1528 1.386 . S
C1529 C1533 1.393 . S
C1530 H1522 0.950 . S
C1530 C1528 1.391 . S
C1530 C1531 1.400 . S
C1531 C1530 1.400 . S
C1531 C1532 1.398 . S
C1531 C1537 1.491 . S
C1532 H1523 0.950 . S
C1532 C1531 1.398 . S
C1532 C1533 1.391 . S
C1533 H1521 0.950 . S
C1533 C1529 1.393 . S
C1533 C1532 1.391 . S
C1534 H1524 0.950 . S
C1534 C1535 1.386 . S
C1534 C1536 1.391 1_545 S
C1535 C1534 1.386 . S
C1535 C1539 1.393 . S
C1536 H1525 0.950 . S
C1536 C1534 1.391 1_565 S
C1536 C1537 1.400 . S
C1537 C1531 1.491 . S
C1537 C1536 1.400 . S
C1537 C1538 1.398 . S
C1538 H1526 0.950 . S
C1538 C1537 1.398 . S
C1538 C1539 1.391 1_565 S
C1539 H1527 0.950 . S
C1539 C1535 1.393 . S
C1539 C1538 1.391 1_545 S
H1540 C1548 0.950 . S
H1541 C1553 0.950 . S
H1542 C1550 0.950 . S
H1543 C1552 0.950 . S
H1544 C1554 0.950 . S
H1545 C1556 0.950 . S
H1546 C1558 0.950 . S
H1547 C1559 0.950 . S
C1548 H1540 0.950 . S
C1548 C1549 1.386 . S
C1548 C1550 1.391 . S
C1549 C1548 1.386 . S
C1549 C1553 1.393 . S
C1550 H1542 0.950 . S
C1550 C1548 1.391 . S
C1550 C1551 1.400 . S
C1551 C1550 1.400 . S
C1551 C1552 1.398 . S
C1551 C1557 1.491 . S
C1552 H1543 0.950 . S
C1552 C1551 1.398 . S
C1552 C1553 1.391 . S
C1553 H1541 0.950 . S
C1553 C1549 1.393 . S
C1553 C1552 1.391 . S
C1554 H1544 0.950 . S
C1554 C1555 1.386 . S
C1554 C1556 1.391 1_565 S
C1555 C1554 1.386 . S
C1555 C1559 1.393 . S
C1556 H1545 0.950 . S
C1556 C1554 1.391 1_545 S
C1556 C1557 1.400 . S
C1557 C1551 1.491 . S
C1557 C1556 1.400 . S
C1557 C1558 1.398 . S
C1558 H1546 0.950 . S
C1558 C1557 1.398 . S
C1558 C1559 1.391 1_545 S
C1559 H1547 0.950 . S
C1559 C1555 1.393 . S
C1559 C1558 1.391 1_565 S
H1560 C1568 0.950 . S
H1561 C1573 0.950 . S
H1562 C1570 0.950 . S
H1563 C1572 0.950 . S
H1564 C1574 0.950 . S
H1565 C1576 0.950 . S
H1566 C1578 0.950 . S
H1567 C1579 0.950 . S
C1568 H1560 0.950 . S
C1568 C1569 1.386 . S
C1568 C1570 1.391 1_565 S
C1569 C1568 1.386 . S
C1569 C1573 1.393 . S
C1570 H1562 0.950 . S
C1570 C1568 1.391 1_545 S
C1570 C1571 1.400 . S
C1571 C1570 1.400 . S
C1571 C1572 1.398 . S
C1571 C1577 1.491 . S
C1572 H1563 0.950 . S
C1572 C1571 1.398 . S
C1572 C1573 1.391 1_545 S
C1573 H1561 0.950 . S
C1573 C1569 1.393 . S
C1573 C1572 1.391 1_565 S
C1574 H1564 0.950 . S
C1574 C1575 1.386 . S
C1574 C1576 1.391 . S
C1575 C1574 1.386 . S
C1575 C1579 1.393 . S
C1576 H1565 0.950 . S
C1576 C1574 1.391 . S
C1576 C1577 1.400 . S
C1577 C1571 1.491 . S
C1577 C1576 1.400 . S
C1577 C1578 1.398 . S
C1578 H1566 0.950 . S
C1578 C1577 1.398 . S
C1578 C1579 1.391 . S
C1579 H1567 0.950 . S
C1579 C1575 1.393 . S
C1579 C1578 1.391 . S
H1580 C1588 0.950 . S
H1581 C1593 0.950 . S
H1582 C1590 0.950 . S
H1583 C1592 0.950 . S
H1584 C1594 0.950 . S
H1585 C1596 0.950 . S
H1586 C1598 0.950 . S
H1587 C1599 0.950 . S
C1588 H1580 0.950 . S
C1588 C1589 1.386 . S
C1588 C1590 1.391 . S
C1589 C1588 1.386 . S
C1589 C1593 1.393 . S
C1590 H1582 0.950 . S
C1590 C1588 1.391 . S
C1590 C1591 1.400 . S
C1591 C1590 1.400 . S
C1591 C1592 1.398 . S
C1591 C1597 1.491 . S
C1592 H1583 0.950 . S
C1592 C1591 1.398 . S
C1592 C1593 1.391 . S
C1593 H1581 0.950 . S
C1593 C1589 1.393 . S
C1593 C1592 1.391 . S
C1594 H1584 0.950 . S
C1594 C1595 1.386 . S
C1594 C1596 1.391 1_545 S
C1595 C1594 1.386 . S
C1595 C1599 1.393 . S
C1596 H1585 0.950 . S
C1596 C1594 1.391 1_565 S
C1596 C1597 1.400 . S
C1597 C1591 1.491 . S
C1597 C1596 1.400 . S
C1597 C1598 1.398 . S
C1598 H1586 0.950 . S
C1598 C1597 1.398 . S
C1598 C1599 1.391 1_565 S
C1599 H1587 0.950 . S
C1599 C1595 1.393 . S
C1599 C1598 1.391 1_545 S
C649 C11 1.551 . S
C655 C371 1.542 . S
C669 C51 1.542 . S
C675 C331 1.551 . S
C689 C451 1.549 . S
C695 C91 1.546 . S
C709 C131 1.551 . S
C715 C411 1.543 . S
C729 C522 1.549 . S
C735 C162 1.543 . S
C749 C482 1.544 . S
C755 C202 1.551 . S
C769 C602 1.542 . S
C775 C242 1.550 . S
C789 C282 1.546 . S
C795 C562 1.549 . S
C809 C99 1.679 . S
C815 C19 1.673 . S
C829 C139 1.674 . S
C835 C59 1.679 . S
C849 C250 1.679 . S
C855 C170 1.679 . S
C869 C210 1.674 . S
C875 C290 1.678 . S
C889 C419 1.677 . S
C895 C339 1.675 . S
C909 C459 1.673 . S
C915 C379 1.680 . S
C929 C490 1.676 . S
C935 C570 1.676 . S
C949 C530 1.674 . S
C955 C610 1.682 . S
C969 C219 1.530 . S
C975 C10 1.530 . S
C989 C179 1.517 . S
C995 C50 1.543 . S
C1009 C90 1.527 . S
C1015 C299 1.533 . S
C1029 C259 1.528 . S
C1035 C130 1.532 . S
C1049 C330 1.520 . S
C1055 C539 1.540 . S
C1069 C499 1.534 . S
C1075 C370 1.525 . S
C1089 C410 1.530 . S
C1095 C619 1.529 . S
C1109 C579 1.525 . S
C1115 C450 1.535 . S
C1129 C42 1.624 . S
C1135 C2 1.631 . S
C1149 C122 1.618 . S
C1155 C82 1.611 . S
C1169 C211 1.629 . S
C1175 C171 1.633 . S
C1189 C251 1.612 . S
C1195 C291 1.619 . S
C1209 C362 1.624 . S
C1215 C322 1.631 . S
C1229 C442 1.617 . S
C1235 C402 1.611 . S
C1249 C491 1.632 . S
C1255 C531 1.626 . S
C1269 C571 1.619 . S
C1275 C611 1.628 . S
C1289 C7 1.650 . S
C1295 C16 1.650 . S
C1309 C47 1.647 . S
C1315 C56 1.647 . S
C1329 C87 1.638 . S
C1335 C96 1.638 . S
C1349 C136 1.646 . S
C1355 C127 1.646 . S
C1369 C176 1.646 . S
C1375 C167 1.646 . S
C1389 C207 1.651 . S
C1395 C216 1.651 . S
C1409 C256 1.652 . S
C1415 C247 1.652 . S
C1429 C296 1.651 . S
C1435 C287 1.651 . S
C1449 C336 1.638 . S
C1455 C327 1.638 . S
C1469 C367 1.644 . S
C1475 C376 1.644 . S
C1489 C416 1.639 . S
C1495 C407 1.639 . S
C1509 C456 1.641 . S
C1515 C447 1.641 . S
C1529 C496 1.648 . S
C1535 C487 1.648 . S
C1549 C536 1.649 . S
C1555 C527 1.649 . S
C1569 C567 1.644 . S
C1575 C576 1.644 . S
C1589 C616 1.649 . S
C1595 C607 1.649 . S
