# Generated by pormake.
# Topology ttw, (5)-cn, num edge types: 1
# Building blocks:
#     Node 0, Type 0, BuildingBlock: XOMCOT_clean_sbu_1, # of connection points: 5
#     Node 1, Type 0, BuildingBlock: XOMCOT_clean_sbu_1, # of connection points: 5
#     Node 2, Type 0, BuildingBlock: XOMCOT_clean_sbu_1, # of connection points: 5
#     Node 3, Type 0, BuildingBlock: XOMCOT_clean_sbu_1, # of connection points: 5
#     Node 4, Type 0, BuildingBlock: XOMCOT_clean_sbu_1, # of connection points: 5
#     Node 5, Type 0, BuildingBlock: XOMCOT_clean_sbu_1, # of connection points: 5
#     Edge 6, Type (0, 0), BuildingBlock: MIFKUJ_clean_linker_0, # of connection points: 2
#     Edge 7, Type (0, 0), BuildingBlock: MIFKUJ_clean_linker_0, # of connection points: 2
#     Edge 8, Type (0, 0), BuildingBlock: MIFKUJ_clean_linker_0, # of connection points: 2
#     Edge 9, Type (0, 0), BuildingBlock: MIFKUJ_clean_linker_0, # of connection points: 2
#     Edge 10, Type (0, 0), BuildingBlock: MIFKUJ_clean_linker_0, # of connection points: 2
#     Edge 11, Type (0, 0), BuildingBlock: MIFKUJ_clean_linker_0, # of connection points: 2
#     Edge 12, Type (0, 0), BuildingBlock: MIFKUJ_clean_linker_0, # of connection points: 2
#     Edge 13, Type (0, 0), BuildingBlock: MIFKUJ_clean_linker_0, # of connection points: 2
#     Edge 14, Type (0, 0), BuildingBlock: MIFKUJ_clean_linker_0, # of connection points: 2
#     Edge 15, Type (0, 0), BuildingBlock: MIFKUJ_clean_linker_0, # of connection points: 2
#     Edge 16, Type (0, 0), BuildingBlock: MIFKUJ_clean_linker_0, # of connection points: 2
#     Edge 17, Type (0, 0), BuildingBlock: MIFKUJ_clean_linker_0, # of connection points: 2
#     Edge 18, Type (0, 0), BuildingBlock: MIFKUJ_clean_linker_0, # of connection points: 2
#     Edge 19, Type (0, 0), BuildingBlock: MIFKUJ_clean_linker_0, # of connection points: 2
#     Edge 20, Type (0, 0), BuildingBlock: MIFKUJ_clean_linker_0, # of connection points: 2
# Relax obj value: 0.327
# Max RMSD: 0.294
# Mean RMSD: 0.267
data_MOF--net-ttw--node1-XOMCOT_clean_sbu_1--edge1-MIFKUJ_clean_linker_0
_symmetry_space_group_name_H-M    P1
_symmetry_Int_Tables_number       1
_symmetry_cell_setting            triclinic
loop_
_symmetry_equiv_pos_as_xyz
'x, y, z'
_cell_length_a     70.237094
_cell_length_b     70.746179
_cell_length_c     22.011603
_cell_angle_alpha  94.341602
_cell_angle_beta   94.300901
_cell_angle_gamma 120.83672
loop_
_atom_site_label
_atom_site_type_symbol
_atom_site_fract_x
_atom_site_fract_y
_atom_site_fract_z
_atom_type_partial_charge
C0 C 0.12828 0.56451 0.84695 0.0
C1 C 0.12538 0.56448 0.78461 0.0
N2 N 0.14099 0.58444 0.77108 0.0
N3 N 0.14555 0.58448 0.87367 0.0
C4 C 0.15305 0.59621 0.82584 0.0
H5 H 0.11899 0.55028 0.87006 0.0
Co6 Co 0.15827 0.59319 0.95754 0.0
C7 C 0.17685 0.63635 0.94965 0.0
O8 O 0.19244 0.63242 0.93524 0.0
N9 N 0.17133 0.60236 0.03974 0.0
C10 C 0.19694 0.61372 0.12134 0.0
C11 C 0.193 0.60982 0.05819 0.0
C12 C 0.16244 0.60214 0.09234 0.0
N13 N 0.17766 0.60879 0.14299 0.0
O14 O 0.12832 0.57921 0.98235 0.0
H15 H 0.20499 0.61159 0.02752 0.0
H16 H 0.14506 0.59686 0.0935 0.0
O17 O 0.15804 0.62001 0.95792 0.0
C18 C 0.11141 0.56015 0.98672 0.0
O19 O 0.11179 0.54202 0.972 0.0
N20 N 0.1607 0.56784 0.95854 0.0
C21 C 0.17976 0.5419 0.97518 0.0
C22 C 0.18287 0.55331 0.92381 0.0
C23 C 0.17336 0.56628 0.9167 0.0
C24 C 0.15659 0.55603 1.00733 0.0
C25 C 0.16556 0.54263 1.01572 0.0
H26 H 0.17788 0.57671 0.88048 0.0
H27 H 0.14786 0.55827 0.0429 0.0
H28 H 0.16737 0.61291 0.8308 0.0
H29 H 0.11339 0.55038 0.75154 0.0
H30 H 0.21264 0.61899 0.14904 0.0
H31 H 0.19414 0.55387 0.89205 0.0
H32 H 0.16256 0.53408 0.05594 0.0
C33 C 0.58222 0.10112 0.86024 0.0
C34 C 0.58336 0.09965 0.79822 0.0
N35 N 0.56627 0.10041 0.76944 0.0
N36 N 0.56479 0.10346 0.87132 0.0
C37 C 0.55494 0.10215 0.81435 0.0
H38 H 0.59375 0.10064 0.89413 0.0
Co39 Co 0.55562 0.10794 0.94761 0.0
C40 C 0.56253 0.14662 0.8857 0.0
O41 O 0.58002 0.14818 0.86313 0.0
N42 N 0.54602 0.11167 0.02201 0.0
C43 C 0.52942 0.1198 0.09274 0.0
C44 C 0.53174 0.11869 0.03134 0.0
C45 C 0.55173 0.10808 0.07813 0.0
N46 N 0.54198 0.11309 0.12216 0.0
O47 O 0.52548 0.08682 0.91566 0.0
H48 H 0.52336 0.12259 0.99578 0.0
H49 H 0.56315 0.1023 0.08668 0.0
O50 O 0.5517 0.13132 0.91869 0.0
C51 C 0.51914 0.06649 0.91558 0.0
O52 O 0.53432 0.06127 0.92841 0.0
N53 N 0.5854 0.1285 0.98373 0.0
C54 C 0.62861 0.15641 0.04567 0.0
C55 C 0.61477 0.1647 0.03112 0.0
C56 C 0.59305 0.1504 1.00197 0.0
C57 C 0.59798 0.11983 1.00224 0.0
C58 C 0.61991 0.13357 0.03167 0.0
H59 H 0.58232 0.15702 0.99649 0.0
H60 H 0.59083 0.10205 0.99482 0.0
H61 H 0.54045 0.10372 0.80617 0.0
H62 H 0.59596 0.09838 0.77591 0.0
H63 H 0.51899 0.1248 0.11393 0.0
H64 H 0.62065 0.18216 0.04232 0.0
H65 H 0.62976 0.12637 0.04454 0.0
C66 C 0.45446 0.572 0.09395 0.0
C67 C 0.45893 0.57353 0.03414 0.0
N68 N 0.43954 0.56072 0.99672 0.0
N69 N 0.43218 0.5591 0.095 0.0
C70 C 0.42381 0.55153 0.03472 0.0
H71 H 0.467 0.57886 0.13389 0.0
Co72 Co 0.41797 0.54964 0.16646 0.0
C73 C 0.38146 0.54734 0.08363 0.0
O74 O 0.396 0.56714 0.07038 0.0
N75 N 0.40457 0.53957 0.23714 0.0
C76 C 0.38137 0.51931 0.30077 0.0
C77 C 0.38417 0.52185 0.24015 0.0
C78 C 0.41393 0.54746 0.2964 0.0
N79 N 0.40017 0.53536 0.33645 0.0
O80 O 0.41682 0.52247 0.1464 0.0
H81 H 0.37226 0.51107 0.20084 0.0
H82 H 0.43083 0.56139 0.3095 0.0
O83 O 0.38808 0.53781 0.11958 0.0
C84 C 0.43267 0.52289 0.17966 0.0
O85 O 0.44551 0.5401 0.22153 0.0
N86 N 0.42049 0.57726 0.18959 0.0
C87 C 0.4252 0.6187 0.21574 0.0
C88 C 0.40434 0.59922 0.21429 0.0
C89 C 0.40245 0.57863 0.20263 0.0
C90 C 0.44127 0.59598 0.19885 0.0
C91 C 0.44397 0.61692 0.21043 0.0
H92 H 0.38627 0.56378 0.20199 0.0
H93 H 0.45592 0.59487 0.19772 0.0
H94 H 0.40655 0.53908 0.01865 0.0
H95 H 0.47532 0.58263 0.01946 0.0
H96 H 0.36657 0.50646 0.31694 0.0
H97 H 0.38947 0.59982 0.21973 0.0
H98 H 0.46058 0.63158 0.21474 0.0
C99 C 0.89629 0.43341 0.2925 0.0
C100 C 0.9014 0.43743 0.35535 0.0
N101 N 0.89146 0.44791 0.37816 0.0
N102 N 0.88318 0.44132 0.27509 0.0
C103 C 0.88063 0.45023 0.32832 0.0
H104 H 0.90098 0.42436 0.26147 0.0
Co105 Co 0.87063 0.43716 0.19302 0.0
C106 C 0.82867 0.43554 0.22703 0.0
O107 O 0.81638 0.41381 0.21917 0.0
N108 N 0.85859 0.43353 0.10994 0.0
C109 C 0.8352 0.42447 0.02407 0.0
C110 C 0.83683 0.42303 0.08584 0.0
C111 C 0.86985 0.44108 0.06122 0.0
N112 N 0.85599 0.43592 1.00839 0.0
O113 O 0.89167 0.46768 0.18714 0.0
H114 H 0.82284 0.41425 0.11073 0.0
H115 H 0.88789 0.45035 0.0645 0.0
O116 O 0.84925 0.44561 0.21831 0.0
C117 C 0.91089 0.47061 0.18167 0.0
O118 O 0.9134 0.45343 0.18001 0.0
N119 N 0.85144 0.40626 0.19795 0.0
C120 C 0.82568 0.36035 0.20014 0.0
C121 C 0.82927 0.37528 0.2516 0.0
C122 C 0.84251 0.39811 0.24999 0.0
C123 C 0.84983 0.3919 0.14985 0.0
C124 C 0.83662 0.36896 0.14932 0.0
H125 H 0.84472 0.40918 0.29002 0.0
H126 H 0.85871 0.39814 0.11107 0.0
H127 H 0.87038 0.45754 0.33065 0.0
H128 H 0.91069 0.43188 0.38228 0.0
H129 H 0.81979 0.41712 0.99288 0.0
H130 H 0.8218 0.36941 0.29274 0.0
H131 H 0.83467 0.35813 0.10877 0.0
C132 C 0.42122 0.88623 0.25527 0.0
C133 C 0.42548 0.88997 0.31834 0.0
N134 N 0.4058 0.87963 0.3411 0.0
N135 N 0.39899 0.87355 0.23809 0.0
C136 C 0.38996 0.86999 0.29123 0.0
H137 H 0.43354 0.89174 0.2237 0.0
Co138 Co 0.38683 0.86318 0.1564 0.0
C139 C 0.34254 0.82386 0.15947 0.0
O140 O 0.34819 0.81328 0.12005 0.0
N141 N 0.37518 0.85394 0.07144 0.0
C142 C 0.35262 0.84502 0.9836 0.0
C143 C 0.35429 0.84778 0.04632 0.0
C144 C 0.38619 0.85605 0.02186 0.0
N145 N 0.37266 0.8501 0.968 0.0
O146 O 0.38305 0.88795 0.15233 0.0
H147 H 0.34113 0.84643 0.07139 0.0
H148 H 0.40401 0.86306 0.02473 0.0
O149 O 0.35621 0.84452 0.17891 0.0
C150 C 0.36796 0.89287 0.1514 0.0
O151 O 0.34702 0.87759 0.15337 0.0
N152 N 0.39285 0.83999 0.16185 0.0
C153 C 0.40367 0.80738 0.17041 0.0
C154 C 0.38983 0.80929 0.20965 0.0
C155 C 0.38523 0.82614 0.20603 0.0
C156 C 0.40801 0.83958 0.12734 0.0
C157 C 0.41342 0.82317 0.13015 0.0
H158 H 0.37513 0.8277 0.23829 0.0
H159 H 0.41654 0.85233 0.09881 0.0
H160 H 0.37218 0.86004 0.29326 0.0
H161 H 0.44189 0.8988 0.34513 0.0
H162 H 0.33816 0.8411 0.95188 0.0
H163 H 0.38281 0.79799 0.24338 0.0
H164 H 0.42497 0.82275 0.10089 0.0
C165 C 0.5628 0.40411 0.08126 0.0
C166 C 0.5597 0.40496 0.01938 0.0
N167 N 0.57981 0.41832 1.00124 0.0
N168 N 0.58474 0.41689 0.10249 0.0
C169 C 0.59471 0.42538 0.05287 0.0
H170 H 0.54993 0.3943 0.10879 0.0
Co171 Co 0.59654 0.41931 0.18311 0.0
C172 C 0.64206 0.45792 0.19359 0.0
O173 O 0.63749 0.46775 0.23828 0.0
N174 N 0.60822 0.42132 0.26482 0.0
C175 C 0.63006 0.42194 0.34455 0.0
C176 C 0.6265 0.42028 0.28168 0.0
C177 C 0.60082 0.4234 0.31852 0.0
N178 N 0.61387 0.42391 0.36784 0.0
O179 O 0.59267 0.44359 0.20337 0.0
H180 H 0.63664 0.41841 0.25003 0.0
H181 H 0.58627 0.4247 0.32178 0.0
O182 O 0.6267 0.43903 0.16561 0.0
C183 C 0.57339 0.43719 0.21878 0.0
O184 O 0.56014 0.41613 0.2246 0.0
N185 N 0.59821 0.39434 0.16171 0.0
C186 C 0.59165 0.35318 0.11899 0.0
C187 C 0.61011 0.37274 0.1055 0.0
C188 C 0.613 0.39327 0.1268 0.0
C189 C 0.5807 0.37556 0.1772 0.0
C190 C 0.57704 0.35474 0.15614 0.0
H191 H 0.62653 0.40804 0.11292 0.0
H192 H 0.56898 0.37679 0.20397 0.0
H193 H 0.61257 0.43626 0.0545 0.0
H194 H 0.54385 0.39569 0.98988 0.0
H195 H 0.64332 0.4213 0.37084 0.0
H196 H 0.62159 0.37212 0.07634 0.0
H197 H 0.56264 0.33997 0.16764 0.0
H198 H 0.0722 0.52232 0.99708 0.0
H199 H 0.0378 0.51895 0.02475 0.0
H200 H 0.0689 0.59021 0.04514 0.0
H201 H 0.10378 0.59382 0.01818 0.0
H202 H 0.04557 0.57336 0.13817 0.0
H203 H 0.02961 0.5593 0.92186 0.0
H204 H 0.02853 0.54317 0.81744 0.0
H205 H 0.98421 0.47765 0.86118 0.0
H206 H 0.98524 0.49334 0.9661 0.0
H207 H 0.91192 0.49856 0.10078 0.0
H208 H 0.94587 0.52786 0.06503 0.0
H209 H 0.98652 0.51863 0.20245 0.0
H210 H 0.95296 0.48968 0.23746 0.0
H211 H 0.97294 0.51835 1.01356 0.0
H212 H 0.03656 0.5609 0.24058 0.0
H213 H 0.03752 0.57762 0.344 0.0
H214 H 0.98615 0.58931 0.27529 0.0
H215 H 0.98492 0.5728 0.1713 0.0
C216 C 0.07181 0.53733 1.00732 0.0
C217 C 0.09074 0.55833 1.00508 0.0
C218 C 0.05203 0.53536 0.02268 0.0
C219 C 0.05061 0.5543 0.03565 0.0
C220 C 0.06957 0.57536 0.03464 0.0
C221 C 0.08947 0.57738 0.01926 0.0
C222 C 0.02942 0.55171 0.05269 0.0
C223 C 0.02966 0.56159 0.11071 0.0
C224 C 0.0087 0.53711 1.01561 0.0
C225 C 0.00756 0.52754 0.952 0.0
C226 C 0.0197 0.54145 0.90931 0.0
C227 C 0.01911 0.53237 0.85002 0.0
C228 C 0.00637 0.50939 0.83275 0.0
C229 C 0.99411 0.49545 0.87466 0.0
C230 C 0.99463 0.50443 0.934 0.0
C231 C 0.92816 0.50361 0.12489 0.0
C232 C 0.93 0.49206 0.17189 0.0
C233 C 0.94751 0.52021 0.1043 0.0
C234 C 0.9688 0.52561 0.13131 0.0
C235 C 0.97041 0.5152 0.18162 0.0
C236 C 0.95121 0.49854 0.20148 0.0
C237 C 0.98907 0.53862 0.10118 0.0
C238 C 0.98876 0.53074 0.04041 0.0
C239 C 0.00968 0.55528 0.13546 0.0
C240 C 0.01064 0.56557 0.19794 0.0
C241 C 0.02559 0.5672 0.24729 0.0
C242 C 0.02615 0.5766 0.30611 0.0
C243 C 0.01195 0.58456 0.31617 0.0
C244 C -0.00287 0.58312 0.26745 0.0
C245 C -0.00355 0.57368 0.20858 0.0
H246 H 0.01241 0.59183 0.36174 0.0
H247 H 0.00593 0.5024 0.78683 0.0
H248 H 0.343 0.9048 0.08069 0.0
H249 H 0.35782 0.93944 0.03465 0.0
H250 H 0.422 0.96532 0.14304 0.0
H251 H 0.40733 0.93106 0.18881 0.0
H252 H 0.41587 -0.00131 0.1204 0.0
H253 H 0.40839 0.93273 1.01104 0.0
H254 H 0.38647 0.89385 0.96376 0.0
H255 H 0.34922 0.90951 0.83497 0.0
H256 H 0.3704 0.94861 0.88395 0.0
H257 H 0.49977 0.02167 0.90791 0.0
H258 H 0.46322 0.99548 0.9356 0.0
H259 H 0.44789 0.04723 0.9545 0.0
H260 H 0.48473 0.07374 0.92744 0.0
H261 H 0.4196 0.97852 0.90254 0.0
H262 H 0.42421 0.04193 0.09029 0.0
H263 H 0.45177 0.07845 0.14952 0.0
H264 H 0.50418 0.06495 0.12964 0.0
H265 H 0.47693 0.02831 0.07137 0.0
C266 C 0.35997 0.91828 0.09644 0.0
C267 C 0.37418 0.91521 0.13744 0.0
C268 C 0.36843 0.93803 0.07006 0.0
C269 C 0.39112 0.95481 0.08467 0.0
C270 C 0.40446 0.95264 0.13098 0.0
C271 C 0.39611 0.93297 0.15682 0.0
C272 C 0.40242 0.97233 0.04469 0.0
C273 C 0.41616 0.99445 0.0722 0.0
C274 C 0.4032 0.96672 0.98209 0.0
C275 C 0.39068 0.94344 0.95177 0.0
C276 C 0.39538 0.92785 0.973 0.0
C277 C 0.38308 0.90575 0.94584 0.0
C278 C 0.36646 0.8991 0.89608 0.0
C279 C 0.36206 0.91464 0.87362 0.0
C280 C 0.37412 0.93677 0.90133 0.0
C281 C 0.48842 0.02738 0.91632 0.0
C282 C 0.49528 0.04984 0.91653 0.0
C283 C 0.46744 0.01234 0.93184 0.0
C284 C 0.45297 0.01949 0.94808 0.0
C285 C 0.45891 0.04144 0.94274 0.0
C286 C 0.47995 0.05654 0.92706 0.0
C287 C 0.43353 0.00472 0.97884 0.0
C288 C 0.41832 0.98311 0.94956 0.0
C289 C 0.43209 0.0106 0.04058 0.0
C290 C 0.4486 0.03258 0.07571 0.0
C291 C 0.44163 0.0468 0.09864 0.0
C292 C 0.45719 0.0675 0.13213 0.0
C293 C 0.47973 0.07406 0.14323 0.0
C294 C 0.48676 0.05992 0.12097 0.0
C295 C 0.47126 0.03919 0.0877 0.0
H296 H 0.49173 0.09005 0.16931 0.0
H297 H 0.35702 0.88195 0.87494 0.0
H298 H 0.54518 0.43777 0.29462 0.0
H299 H 0.52271 0.45487 0.28106 0.0
H300 H 0.55672 0.48466 0.12808 0.0
H301 H 0.5797 0.46793 0.14249 0.0
H302 H 0.53294 0.50015 0.27188 0.0
H303 H 0.51127 0.47168 1.01482 0.0
H304 H 0.51353 0.44581 0.93806 0.0
H305 H 0.50329 0.40172 0.07263 0.0
H306 H 0.50052 0.42709 0.1497 0.0
H307 H 0.4493 0.51683 0.07792 0.0
H308 H 0.47408 0.50192 0.07487 0.0
H309 H 0.4574 0.47931 0.2508 0.0
H310 H 0.43352 0.49503 0.2549 0.0
H311 H 0.47614 0.4644 0.08598 0.0
H312 H 0.50428 0.49834 0.34655 0.0
H313 H 0.50463 0.52658 0.42043 0.0
H314 H 0.50525 0.5635 0.27368 0.0
H315 H 0.50535 0.53574 0.19916 0.0
C316 C 0.54834 0.44856 0.25942 0.0
C317 C 0.56411 0.45163 0.21966 0.0
C318 C 0.53553 0.45829 0.25171 0.0
C319 C 0.53795 0.47077 0.20321 0.0
C320 C 0.55465 0.47501 0.16567 0.0
C321 C 0.56783 0.46561 0.1742 0.0
C322 C 0.52135 0.47719 0.1887 0.0
C323 C 0.52048 0.49233 0.23141 0.0
C324 C 0.50557 0.46741 0.13486 0.0
C325 C 0.50597 0.45142 0.08813 0.0
C326 C 0.50934 0.45638 0.02784 0.0
C327 C 0.51073 0.44181 0.98431 0.0
C328 C 0.50866 0.42218 1.00053 0.0
C329 C 0.50497 0.41696 0.06016 0.0
C330 C 0.50348 0.43143 0.10377 0.0
C331 C 0.45018 0.50773 0.11439 0.0
C332 C 0.43956 0.50687 0.16652 0.0
C333 C 0.46441 0.49935 0.11283 0.0
C334 C 0.468 0.49006 0.16337 0.0
C335 C 0.45518 0.48682 0.21189 0.0
C336 C 0.44137 0.49556 0.21399 0.0
C337 C 0.48727 0.48686 0.17035 0.0
C338 C 0.48871 0.47243 0.12615 0.0
C339 C 0.50392 0.49765 0.22233 0.0
C340 C 0.50461 0.51483 0.26722 0.0
C341 C 0.50465 0.51257 0.33013 0.0
C342 C 0.50475 0.52849 0.3721 0.0
C343 C 0.5049 0.54679 0.35174 0.0
C344 C 0.50508 0.54929 0.28939 0.0
C345 C 0.50506 0.53347 0.24727 0.0
H346 H 0.50491 0.55906 0.38429 0.0
H347 H 0.50987 0.411 0.96688 0.0
H348 H 0.13828 0.58489 0.18902 0.0
H349 H 0.13258 0.584 0.29698 0.0
H350 H 0.20279 0.63201 0.35065 0.0
H351 H 0.20869 0.63283 0.24294 0.0
H352 H 0.18939 0.59923 0.41812 0.0
H353 H 0.16168 0.6458 0.35882 0.0
H354 H 0.13821 0.65504 0.29376 0.0
H355 H 0.07892 0.59828 0.33718 0.0
H356 H 0.10198 0.58852 0.40198 0.0
H357 H 0.1803 0.6149 0.73407 0.0
H358 H 0.18707 0.62275 0.62884 0.0
H359 H 0.11749 0.57538 0.56374 0.0
H360 H 0.11046 0.56812 0.66878 0.0
H361 H 0.13175 0.6101 0.50328 0.0
H362 H 0.15802 0.5618 0.55481 0.0
H363 H 0.18021 0.55025 0.61619 0.0
H364 H 0.24094 0.6081 0.58404 0.0
H365 H 0.21907 0.62015 0.52312 0.0
C366 C 0.15248 0.59553 0.22356 0.0
C367 C 0.17396 0.609 0.2068 0.0
C368 C 0.14919 0.595 0.28552 0.0
C369 C 0.16721 0.60813 0.33219 0.0
C370 C 0.18861 0.62168 0.31562 0.0
C371 C 0.19196 0.62209 0.25379 0.0
C372 C 0.16396 0.60715 0.39831 0.0
C373 C 0.17706 0.60203 0.43694 0.0
C374 C 0.14747 0.61019 0.42272 0.0
C375 C 0.13357 0.61635 0.38497 0.0
C376 C 0.14364 0.63524 0.35433 0.0
C377 C 0.13041 0.64057 0.31752 0.0
C378 C 0.1071 0.62725 0.31132 0.0
C379 C 0.09697 0.6086 0.34209 0.0
C380 C 0.11011 0.60318 0.37895 0.0
C381 C 0.16635 0.60645 0.6976 0.0
C382 C 0.14487 0.59065 0.71003 0.0
C383 C 0.17029 0.6108 0.63724 0.0
C384 C 0.15287 0.59936 0.58801 0.0
C385 C 0.13125 0.58434 0.60071 0.0
C386 C 0.1273 0.58003 0.6609 0.0
C387 C 0.15721 0.60222 0.52304 0.0
C388 C 0.14426 0.60759 0.48459 0.0
C389 C 0.17373 0.59923 0.49855 0.0
C390 C 0.18691 0.592 0.53503 0.0
C391 C 0.1761 0.57214 0.56125 0.0
C392 C 0.18862 0.56549 0.59588 0.0
C393 C 0.21197 0.57846 0.60418 0.0
C394 C 0.22285 0.59809 0.57769 0.0
C395 C 0.21041 0.60483 0.54308 0.0
H396 H 0.22164 0.57328 0.63099 0.0
H397 H 0.09689 0.63139 0.28271 0.0
H398 H 0.54132 0.14001 0.21482 0.0
H399 H 0.54524 0.13785 0.32482 0.0
H400 H 0.55057 0.08009 0.28669 0.0
H401 H 0.54773 0.08296 0.17663 0.0
H402 H 0.52264 0.11104 0.39575 0.0
H403 H 0.58112 0.07541 0.40151 0.0
H404 H 0.61123 0.07715 0.34652 0.0
H405 H 0.62656 0.14009 0.29309 0.0
H406 H 0.59672 0.13884 0.34831 0.0
H407 H 0.52718 0.07868 0.69291 0.0
H408 H 0.52214 0.08004 0.58194 0.0
H409 H 0.59278 0.12813 0.59162 0.0
H410 H 0.59781 0.12563 0.70107 0.0
H411 H 0.58273 0.10235 0.49658 0.0
H412 H 0.54897 0.14089 0.57745 0.0
H413 H 0.52346 0.14668 0.63636 0.0
H414 H 0.46678 0.09124 0.52346 0.0
H415 H 0.49198 0.08494 0.46437 0.0
C416 C 0.54343 0.12692 0.22996 0.0
C417 C 0.54442 0.11177 0.1871 0.0
C418 C 0.54558 0.12563 0.29294 0.0
C419 C 0.54847 0.10896 0.31462 0.0
C420 C 0.54896 0.09349 0.27162 0.0
C421 C 0.5473 0.09509 0.20864 0.0
C422 C 0.55102 0.1079 0.38208 0.0
C423 C 0.5358 0.10914 0.41773 0.0
C424 C 0.56846 0.10594 0.41153 0.0
C425 C 0.58652 0.10689 0.37848 0.0
C426 C 0.59096 0.08964 0.37815 0.0
C427 C 0.60797 0.09053 0.34692 0.0
C428 C 0.62074 0.10868 0.31615 0.0
C429 C 0.61659 0.126 0.31672 0.0
C430 C 0.59961 0.12519 0.3479 0.0
C431 C 0.5415 0.08953 0.67096 0.0
C432 C 0.56287 0.10196 0.70515 0.0
C433 C 0.53866 0.09043 0.60768 0.0
C434 C 0.55704 0.10438 0.57793 0.0
C435 C 0.57831 0.11706 0.61281 0.0
C436 C 0.58121 0.11571 0.67546 0.0
C437 C 0.55443 0.10562 0.51054 0.0
C438 C 0.56956 0.10426 0.47473 0.0
C439 C 0.53758 0.10857 0.48157 0.0
C440 C 0.52236 0.1123 0.51693 0.0
C441 C 0.53107 0.12983 0.56549 0.0
C442 C 0.51666 0.13322 0.59886 0.0
C443 C 0.49351 0.1193 0.58377 0.0
C444 C 0.48472 0.10199 0.53516 0.0
C445 C 0.49905 0.09851 0.50169 0.0
H446 H 0.48239 0.12195 0.60966 0.0
H447 H 0.63389 0.10934 0.29199 0.0
H448 H 0.40664 0.52481 0.91953 0.0
H449 H 0.40068 0.52076 0.80719 0.0
H450 H 0.45912 0.58583 0.81011 0.0
H451 H 0.46492 0.59018 0.9224 0.0
H452 H 0.42394 0.57987 0.73187 0.0
H453 H 0.46103 0.53981 0.7702 0.0
H454 H 0.46645 0.51179 0.8154 0.0
H455 H 0.40236 0.45985 0.72302 0.0
H456 H 0.39642 0.48761 0.67792 0.0
H457 H 0.43237 0.57242 0.41208 0.0
H458 H 0.44008 0.57681 0.52389 0.0
H459 H 0.38579 0.50958 0.52478 0.0
H460 H 0.37869 0.50466 0.41326 0.0
H461 H 0.41956 0.51703 0.60174 0.0
H462 H 0.38143 0.55599 0.56553 0.0
H463 H 0.37466 0.58335 0.52124 0.0
H464 H 0.43876 0.63643 0.61024 0.0
H465 H 0.44604 0.60935 0.65442 0.0
C466 C 0.41819 0.5383 0.89639 0.0
C467 C 0.43632 0.55781 0.93022 0.0
C468 C 0.41485 0.53589 0.83203 0.0
C469 C 0.42955 0.55292 0.80006 0.0
C470 C 0.44759 0.57244 0.83367 0.0
C471 C 0.451 0.57481 0.89794 0.0
C472 C 0.42601 0.55054 0.73164 0.0
C473 C 0.42329 0.5663 0.70337 0.0
C474 C 0.42459 0.53254 0.69438 0.0
C475 C 0.42819 0.51581 0.72116 0.0
C476 C 0.44802 0.52243 0.7599 0.0
C477 C 0.45119 0.50659 0.78544 0.0
C478 C 0.43473 0.48406 0.77222 0.0
C479 C 0.41508 0.47732 0.73328 0.0
C480 C 0.41181 0.49309 0.70768 0.0
C481 C 0.42217 0.55846 0.43577 0.0
C482 C 0.40478 0.5382 0.40292 0.0
C483 C 0.42646 0.56109 0.50004 0.0
C484 C 0.41331 0.54363 0.53318 0.0
C485 C 0.39615 0.52335 0.50053 0.0
C486 C 0.39194 0.52065 0.43639 0.0
C487 C 0.41741 0.54635 0.60172 0.0
C488 C 0.42024 0.53064 0.6301 0.0
C489 C 0.41873 0.5643 0.63911 0.0
C490 C 0.41438 0.58062 0.61274 0.0
C491 C 0.39416 0.57348 0.57527 0.0
C492 C 0.39021 0.58894 0.55025 0.0
C493 C 0.4063 0.6116 0.56277 0.0
C494 C 0.42633 0.61886 0.60049 0.0
C495 C 0.43037 0.60347 0.62557 0.0
H496 H 0.40321 0.62355 0.54336 0.0
H497 H 0.43722 0.47182 0.79204 0.0
H498 H 0.89393 0.44377 0.96183 0.0
H499 H 0.90209 0.45012 0.85638 0.0
H500 H 0.83916 0.44605 0.81121 0.0
H501 H 0.83103 0.43991 0.91598 0.0
H502 H 0.84436 0.42061 0.72695 0.0
H503 H 0.88904 0.49493 0.83069 0.0
H504 H 0.9178 0.5248 0.90909 0.0
H505 H 0.96835 0.51609 0.83755 0.0
H506 H 0.93981 0.48554 0.76015 0.0
H507 H 0.85824 0.45013 0.42836 0.0
H508 H 0.85436 0.45304 0.53763 0.0
H509 H 0.91766 0.45799 0.58382 0.0
H510 H 0.92205 0.45598 0.47497 0.0
H511 H 0.91271 0.48406 0.66799 0.0
H512 H 0.86832 0.40814 0.57204 0.0
H513 H 0.8399 0.37746 0.49468 0.0
H514 H 0.78949 0.3894 0.55234 0.0
H515 H 0.81769 0.42038 0.62949 0.0
C516 C 0.88198 0.44452 0.92971 0.0
C517 C 0.8617 0.44108 0.94749 0.0
C518 C 0.88665 0.44814 0.86933 0.0
C519 C 0.87123 0.44857 0.82567 0.0
C520 C 0.85125 0.44562 0.84377 0.0
C521 C 0.84658 0.442 0.90384 0.0
C522 C 0.8753 0.45116 0.76044 0.0
C523 C 0.85917 0.43468 0.71417 0.0
C524 C 0.89489 0.46923 0.74359 0.0
C525 C 0.91217 0.48768 0.79003 0.0
C526 C 0.90624 0.49914 0.83215 0.0
C527 C 0.92252 0.51618 0.87651 0.0
C528 C 0.94488 0.52218 0.87867 0.0
C529 C 0.951 0.51122 0.83626 0.0
C530 C 0.93477 0.49402 0.79217 0.0
C531 C 0.87159 0.45236 0.46171 0.0
C532 C 0.89032 0.45248 0.44258 0.0
C533 C 0.86926 0.45383 0.52431 0.0
C534 C 0.8855 0.45527 0.56909 0.0
C535 C 0.90482 0.45673 0.55032 0.0
C536 C 0.90719 0.45535 0.48787 0.0
C537 C 0.88167 0.45358 0.63477 0.0
C538 C 0.89786 0.4701 0.681 0.0
C539 C 0.86219 0.4355 0.65189 0.0
C540 C 0.84515 0.41671 0.60609 0.0
C541 C 0.8512 0.4043 0.56795 0.0
C542 C 0.83513 0.38686 0.52417 0.0
C543 C 0.81291 0.38152 0.51849 0.0
C544 C 0.80671 0.39358 0.55673 0.0
C545 C 0.82272 0.41107 0.60051 0.0
H546 H 0.8005 0.36802 0.48454 0.0
H547 H 0.95748 0.5354 0.91298 0.0
H548 H 0.37019 0.84712 0.38718 0.0
H549 H 0.36605 0.84292 0.49526 0.0
H550 H 0.4305 0.9027 0.54889 0.0
H551 H 0.43463 0.90734 0.44095 0.0
H552 H 0.42533 0.86826 0.61147 0.0
H553 H 0.38475 0.90419 0.56491 0.0
H554 H 0.35676 0.90924 0.50602 0.0
H555 H 0.30419 0.84587 0.54315 0.0
H556 H 0.33191 0.8403 0.60157 0.0
H557 H 0.41243 0.87921 0.93086 0.0
H558 H 0.41978 0.88461 0.8246 0.0
H559 H 0.35314 0.82947 0.75912 0.0
H560 H 0.34565 0.82433 0.86491 0.0
H561 H 0.36089 0.86351 0.70334 0.0
H562 H 0.40096 0.82671 0.74732 0.0
H563 H 0.42864 0.82098 0.80513 0.0
H564 H 0.48166 0.8848 0.77229 0.0
H565 H 0.45424 0.89105 0.71495 0.0
C566 C 0.38336 0.85961 0.42175 0.0
C567 C 0.40275 0.8776 0.405 0.0
C568 C 0.381 0.8571 0.48364 0.0
C569 C 0.39795 0.87253 0.53011 0.0
C570 C 0.41728 0.89053 0.51373 0.0
C571 C 0.41961 0.89312 0.45189 0.0
C572 C 0.39553 0.86979 0.59579 0.0
C573 C 0.41141 0.86751 0.63191 0.0
C574 C 0.37715 0.86839 0.62199 0.0
C575 C 0.36043 0.87174 0.58713 0.0
C576 C 0.36724 0.89126 0.56011 0.0
C577 C 0.35142 0.89422 0.52689 0.0
C578 C 0.32871 0.87786 0.52071 0.0
C579 C 0.32178 0.85852 0.5479 0.0
C580 C 0.33754 0.85546 0.58113 0.0
C581 C 0.39953 0.86798 0.8938 0.0
C582 C 0.37837 0.85148 0.90626 0.0
C583 C 0.40372 0.8711 0.83302 0.0
C584 C 0.38699 0.85745 0.78372 0.0
C585 C 0.36624 0.84035 0.79628 0.0
C586 C 0.36198 0.83741 0.85677 0.0
C587 C 0.39047 0.86156 0.71908 0.0
C588 C 0.37483 0.86423 0.68311 0.0
C589 C 0.409 0.86318 0.69304 0.0
C590 C 0.42552 0.85944 0.72741 0.0
C591 C 0.4185 0.8396 0.75286 0.0
C592 C 0.43415 0.83624 0.78545 0.0
C593 C 0.45689 0.85254 0.79253 0.0
C594 C 0.46403 0.87221 0.76686 0.0
C595 C 0.44845 0.87566 0.73427 0.0
H596 H 0.46898 0.84991 0.81778 0.0
H597 H 0.31649 0.88019 0.49497 0.0
H598 H 0.57521 0.41205 0.41552 0.0
H599 H 0.57044 0.41408 0.5242 0.0
H600 H 0.64111 0.44168 0.57474 0.0
H601 H 0.64606 0.43989 0.46634 0.0
H602 H 0.61702 0.40883 0.64015 0.0
H603 H 0.61831 0.47408 0.58806 0.0
H604 H 0.60657 0.49527 0.52799 0.0
H605 H 0.53991 0.45648 0.57396 0.0
H606 H 0.55118 0.43483 0.63364 0.0
H607 H 0.61995 0.43474 0.95701 0.0
H608 H 0.62684 0.43928 0.85092 0.0
H609 H 0.55707 0.41503 0.7961 0.0
H610 H 0.55021 0.41174 0.9026 0.0
H611 H 0.58151 0.44717 0.73301 0.0
H612 H 0.58005 0.38138 0.78341 0.0
H613 H 0.59204 0.36079 0.84531 0.0
H614 H 0.65889 0.4002 0.80118 0.0
H615 H 0.64743 0.42145 0.74034 0.0
C616 C 0.5898 0.41884 0.44963 0.0
C617 C 0.61103 0.42575 0.43194 0.0
C618 C 0.58704 0.41996 0.51185 0.0
C619 C 0.60545 0.42816 0.5577 0.0
C620 C 0.62665 0.43521 0.54021 0.0
C621 C 0.62943 0.43409 0.4781 0.0
C622 C 0.60255 0.42876 0.62392 0.0
C623 C 0.60954 0.41748 0.66064 0.0
C624 C 0.59234 0.43962 0.6504 0.0
C625 C 0.58554 0.45269 0.61484 0.0
C626 C 0.60111 0.46995 0.58498 0.0
C627 C 0.59454 0.48206 0.55106 0.0
C628 C 0.57249 0.47718 0.54702 0.0
C629 C 0.55697 0.46022 0.57706 0.0
C630 C 0.56345 0.44804 0.61099 0.0
C631 C 0.60606 0.43071 0.92295 0.0
C632 C 0.58438 0.42249 0.93897 0.0
C633 C 0.61003 0.43313 0.86187 0.0
C634 C 0.59237 0.42697 0.81511 0.0
C635 C 0.57095 0.41969 0.83117 0.0
C636 C 0.56701 0.41755 0.89231 0.0
C637 C 0.59598 0.42723 0.74929 0.0
C638 C 0.58905 0.43858 0.71257 0.0
C639 C 0.6062 0.41637 0.72267 0.0
C640 C 0.61293 0.40316 0.75781 0.0
C641 C 0.59733 0.38573 0.78715 0.0
C642 C 0.60403 0.37394 0.82206 0.0
C643 C 0.62622 0.37918 0.82718 0.0
C644 C 0.64172 0.39618 0.79723 0.0
C645 C 0.63514 0.40812 0.76259 0.0
H646 H 0.63142 0.3701 0.85438 0.0
H647 H 0.56744 0.48658 0.52073 0.0
H648 H 0.19374 0.52048 0.89709 0.0
H649 H 0.22349 0.51296 0.92172 0.0
H650 H 0.22745 0.53386 0.11389 0.0
H651 H 0.19885 0.54272 0.08941 0.0
H652 H 0.26635 0.55548 0.08177 0.0
H653 H 0.21039 0.47907 0.05686 0.0
H654 H 0.17736 0.44377 1.0073 0.0
H655 H 0.21199 0.44456 0.85395 0.0
H656 H 0.24513 0.48004 0.90215 0.0
H657 H 0.34539 0.51186 0.12275 0.0
H658 H 0.30637 0.50248 0.10767 0.0
H659 H 0.32415 0.55363 0.99041 0.0
H660 H 0.36287 0.56304 1.00482 0.0
H661 H 0.27262 0.49164 1.00216 0.0
H662 H 0.3044 0.58574 0.05072 0.0
H663 H 0.33677 0.61989 0.10824 0.0
H664 H 0.34847 0.58118 0.22991 0.0
H665 H 0.31585 0.54689 0.17422 0.0
C666 C 0.20075 0.52325 0.94472 0.0
C667 C 0.19399 0.5325 0.99102 0.0
C668 C 0.2176 0.51865 0.95887 0.0
C669 C 0.22779 0.52285 0.01975 0.0
C670 C 0.21992 0.53053 0.06654 0.0
C671 C 0.20329 0.53537 0.0524 0.0
C672 C 0.24847 0.52214 0.03351 0.0
C673 C 0.26755 0.54138 0.0648 0.0
C674 C 0.25011 0.50367 1.01228 0.0
C675 C 0.23021 0.48232 0.98299 0.0
C676 C 0.21091 0.47182 1.01234 0.0
C677 C 0.19217 0.45175 0.98453 0.0
C678 C 0.19256 0.44195 0.92747 0.0
C679 C 0.21171 0.45217 0.89815 0.0
C680 C 0.23049 0.47225 0.92575 0.0
C681 C 0.34088 0.52074 0.09261 0.0
C682 C 0.35732 0.53844 0.0658 0.0
C683 C 0.31857 0.51532 0.08395 0.0
C684 C 0.31252 0.5276 0.04868 0.0
C685 C 0.32857 0.54412 0.01832 0.0
C686 C 0.35073 0.54948 0.02674 0.0
C687 C 0.29027 0.52514 0.04851 0.0
C688 C 0.2711 0.50548 0.01972 0.0
C689 C 0.28833 0.54303 0.0732 0.0
C690 C 0.30782 0.56369 0.10769 0.0
C691 C 0.31382 0.58452 0.08989 0.0
C692 C 0.33224 0.60391 0.1222 0.0
C693 C 0.34484 0.6027 0.17231 0.0
C694 C 0.33886 0.5821 0.19071 0.0
C695 C 0.32039 0.56268 0.15882 0.0
H696 H 0.35916 0.61773 0.19703 0.0
H697 H 0.17803 0.42641 0.90601 0.0
H698 H 0.66671 0.15834 0.01672 0.0
H699 H 0.70544 0.18734 0.05628 0.0
H700 H 0.68142 0.21848 0.17931 0.0
H701 H 0.64298 0.18936 0.14144 0.0
H702 H 0.72314 0.22972 0.04315 0.0
H703 H 0.71806 0.24813 0.30289 0.0
H704 H 0.70057 0.22706 0.38741 0.0
H705 H 0.6985 0.16988 0.29772 0.0
H706 H 0.71632 0.19068 0.21314 0.0
H707 H 0.78556 0.33991 0.24497 0.0
H708 H 0.75743 0.30038 0.23149 0.0
H709 H 0.801 0.2862 0.13583 0.0
H710 H 0.82956 0.32584 0.15014 0.0
H711 H 0.75514 0.26184 0.26054 0.0
H712 H 0.76725 0.2466 1.0114 0.0
H713 H 0.78328 0.26749 0.92513 0.0
H714 H 0.7694 0.31714 0.9928 0.0
H715 H 0.75302 0.29638 0.07886 0.0
C716 C 0.66978 0.17104 0.05345 0.0
C717 C 0.65187 0.17175 0.0756 0.0
C718 C 0.69187 0.18764 0.07577 0.0
C719 C 0.69636 0.20502 0.121 0.0
C720 C 0.67845 0.20507 0.1452 0.0
C721 C 0.65645 0.18856 0.12298 0.0
C722 C 0.71934 0.22457 0.13786 0.0
C723 C 0.73046 0.23637 0.09069 0.0
C724 C 0.72873 0.23347 0.1999 0.0
C725 C 0.71846 0.22098 0.25142 0.0
C726 C 0.71405 0.23112 0.30138 0.0
C727 C 0.70403 0.2192 0.34928 0.0
C728 C 0.69839 0.19713 0.34788 0.0
C729 C 0.70283 0.18695 0.29868 0.0
C730 C 0.71287 0.1988 0.2507 0.0
C731 C 0.78948 0.3284 0.22249 0.0
C732 C 0.80977 0.33611 0.19813 0.0
C733 C 0.77333 0.30577 0.21478 0.0
C734 C 0.77706 0.29041 0.18221 0.0
C735 C 0.79772 0.29785 0.16058 0.0
C736 C 0.81394 0.32051 0.16841 0.0
C737 C 0.75839 0.26708 0.16589 0.0
C738 C 0.74811 0.25471 0.21309 0.0
C739 C 0.7497 0.25761 0.10389 0.0
C740 C 0.75923 0.2701 0.05196 0.0
C741 C 0.7676 0.26196 1.00774 0.0
C742 C 0.77673 0.27377 0.95889 0.0
C743 C 0.77745 0.29368 0.95365 0.0
C744 C 0.76893 0.30177 0.99706 0.0
C745 C 0.75974 0.29 0.0459 0.0
H746 H 0.78454 0.30281 0.91585 0.0
H747 H 0.6906 0.18793 0.38495 0.0
H748 H 0.40504 0.63451 0.2886 0.0
H749 H 0.40468 0.66881 0.28345 0.0
H750 H 0.44905 0.68641 0.1448 0.0
H751 H 0.44927 0.65211 0.14896 0.0
H752 H 0.43922 0.71507 0.29683 0.0
H753 H 0.42619 0.70488 0.03314 0.0
H754 H 0.41331 0.67549 0.94523 0.0
H755 H 0.37089 0.62654 0.05451 0.0
H756 H 0.38293 0.65571 0.14256 0.0
H757 H 0.444 0.80998 0.18283 0.0
H758 H 0.45051 0.77925 0.19197 0.0
H759 H 0.37927 0.73292 0.17107 0.0
H760 H 0.37271 0.7635 0.16271 0.0
H761 H 0.4037 0.71931 0.09874 0.0
H762 H 0.40449 0.74779 0.30717 0.0
H763 H 0.41803 0.77726 0.39515 0.0
H764 H 0.48443 0.78899 0.39719 0.0
H765 H 0.47133 0.75979 0.30857 0.0
C766 C 0.41489 0.64581 0.25749 0.0
C767 C 0.42709 0.64059 0.21896 0.0
C768 C 0.41481 0.66544 0.25498 0.0
C769 C 0.42672 0.67997 0.21347 0.0
C770 C 0.43971 0.67531 0.17698 0.0
C771 C 0.4399 0.65578 0.17968 0.0
C772 C 0.42403 0.69897 0.20457 0.0
C773 C 0.43156 0.71608 0.25349 0.0
C774 C 0.41395 0.70013 0.14797 0.0
C775 C 0.4057 0.68248 0.09467 0.0
C776 C 0.41396 0.68787 0.03827 0.0
C777 C 0.40677 0.67126 0.98841 0.0
C778 C 0.3913 0.64917 0.99437 0.0
C779 C 0.38284 0.64367 0.05006 0.0
C780 C 0.38983 0.66024 0.09993 0.0
C781 C 0.42979 0.79319 0.17967 0.0
C782 C 0.40787 0.78901 0.17234 0.0
C783 C 0.43351 0.77574 0.18508 0.0
C784 C 0.41534 0.75392 0.18237 0.0
C785 C 0.39346 0.74967 0.17322 0.0
C786 C 0.38975 0.76711 0.16878 0.0
C787 C 0.41897 0.73546 0.1909 0.0
C788 C 0.41157 0.71841 0.14187 0.0
C789 C 0.42915 0.73435 0.24734 0.0
C790 C 0.43698 0.75179 0.30084 0.0
C791 C 0.42201 0.75679 0.32604 0.0
C792 C 0.4296 0.77342 0.37608 0.0
C793 C 0.45209 0.78504 0.40164 0.0
C794 C 0.46703 0.78 0.37729 0.0
C795 C 0.45953 0.76341 0.32718 0.0
H796 H 0.45793 0.7979 0.44039 0.0
H797 H 0.38585 0.63631 0.95582 0.0
H798 H 0.83037 0.46783 0.16304 0.0
H799 H 0.80291 0.47951 0.15834 0.0
H800 H 0.7729 0.44154 0.30522 0.0
H801 H 0.79962 0.42918 0.30784 0.0
H802 H 0.7427 0.42924 0.21385 0.0
H803 H 0.80079 0.50015 0.31925 0.0
H804 H 0.83787 0.53466 0.33671 0.0
H805 H 0.82387 0.55267 0.16436 0.0
H806 H 0.78681 0.5181 0.14547 0.0
H807 H 0.67938 0.48682 0.27469 0.0
H808 H 0.71616 0.49087 0.27771 0.0
H809 H 0.69491 0.44923 0.10312 0.0
H810 H 0.65804 0.44497 0.09987 0.0
H811 H 0.75142 0.5032 0.20752 0.0
H812 H 0.7057 0.41092 0.11518 0.0
H813 H 0.66864 0.37676 0.11154 0.0
H814 H 0.65936 0.4025 0.28237 0.0
H815 H 0.69606 0.43698 0.28617 0.0
C816 C 0.81838 0.46269 0.19569 0.0
C817 C 0.81703 0.44767 0.23589 0.0
C818 C 0.80265 0.4693 0.19291 0.0
C819 C 0.78568 0.46128 0.23116 0.0
C820 C 0.78564 0.44777 0.27478 0.0
C821 C 0.801 0.44084 0.27666 0.0
C822 C 0.76638 0.46451 0.22119 0.0
C823 C 0.74478 0.44549 0.21252 0.0
C824 C 0.76885 0.48563 0.21939 0.0
C825 C 0.79111 0.50642 0.23067 0.0
C826 C 0.80569 0.51137 0.28483 0.0
C827 C 0.82669 0.53097 0.29503 0.0
C828 C 0.83324 0.54582 0.25159 0.0
C829 C 0.81878 0.54114 0.19793 0.0
C830 C 0.79777 0.52155 0.18748 0.0
C831 C 0.68272 0.47908 0.23598 0.0
C832 C 0.66562 0.46516 0.18764 0.0
C833 C 0.7038 0.48144 0.2378 0.0
C834 C 0.7081 0.46999 0.19127 0.0
C835 C 0.69179 0.45792 0.14001 0.0
C836 C 0.67071 0.45547 0.13827 0.0
C837 C 0.7281 0.46798 0.20047 0.0
C838 C 0.74963 0.48707 0.20859 0.0
C839 C 0.72572 0.447 0.20339 0.0
C840 C 0.7035 0.42649 0.20074 0.0
C841 C 0.69568 0.40928 0.15178 0.0
C842 C 0.67471 0.38993 0.14955 0.0
C843 C 0.66161 0.38753 0.19653 0.0
C844 C 0.66941 0.40449 0.24569 0.0
C845 C 0.69022 0.42397 0.24775 0.0
H846 H 0.64546 0.3725 0.19504 0.0
H847 H 0.84951 0.56098 0.25958 0.0
H848 H 0.21276 0.6734 0.92185 0.0
H849 H 0.22865 0.71109 0.97119 0.0
H850 H 0.17103 0.69015 0.06717 0.0
H851 H 0.15527 0.65176 0.01893 0.0
H852 H 0.22165 0.74335 0.98485 0.0
H853 H 0.1915 0.72037 0.21435 0.0
H854 H 0.17331 0.68786 0.27036 0.0
H855 H 0.20439 0.65814 0.17359 0.0
H856 H 0.22307 0.69064 0.1182 0.0
H857 H 0.31181 0.83683 0.15738 0.0
H858 H 0.27111 0.81118 0.14473 0.0
H859 H 0.28115 0.75739 0.17851 0.0
H860 H 0.3214 0.78288 0.19189 0.0
H861 H 0.24155 0.74799 0.20876 0.0
H862 H 0.28335 0.77301 0.02984 0.0
H863 H 0.30725 0.80263 0.97009 0.0
H864 H 0.26003 0.8241 0.96019 0.0
H865 H 0.23583 0.79446 0.01994 0.0
C866 C 0.20318 0.67682 0.9524 0.0
C867 C 0.183 0.65954 0.96744 0.0
C868 C 0.21222 0.6985 0.98038 0.0
C869 C 0.20127 0.7035 0.02391 0.0
C870 C 0.17997 0.68666 0.03448 0.0
C871 C 0.17092 0.66475 1.00661 0.0
C872 C 0.21407 0.72543 0.06321 0.0
C873 C 0.22544 0.74453 0.03421 0.0
C874 C 0.21912 0.72715 0.12773 0.0
C875 C 0.20832 0.70771 0.16149 0.0
C876 C 0.19443 0.70687 0.2052 0.0
C877 C 0.18405 0.68845 0.23688 0.0
C878 C 0.18752 0.67081 0.22527 0.0
C879 C 0.20159 0.6717 0.18246 0.0
C880 C 0.21212 0.69014 0.151 0.0
C881 C 0.30523 0.81979 0.16533 0.0
C882 C 0.31959 0.81167 0.17487 0.0
C883 C 0.28198 0.80509 0.15769 0.0
C884 C 0.27305 0.78223 0.15921 0.0
C885 C 0.28753 0.77488 0.17694 0.0
C886 C 0.31059 0.78946 0.18435 0.0
C887 C 0.25008 0.7653 0.12943 0.0
C888 C 0.23671 0.74723 0.16023 0.0
C889 C 0.24374 0.76418 0.06603 0.0
C890 C 0.25796 0.78174 0.02956 0.0
C891 C 0.27812 0.78408 1.01487 0.0
C892 C 0.29172 0.80088 0.98112 0.0
C893 C 0.28523 0.81533 0.96158 0.0
C894 C 0.26506 0.81293 0.97549 0.0
C895 C 0.25138 0.79612 1.00921 0.0
H896 H 0.29578 0.82835 0.93549 0.0
H897 H 0.17936 0.65653 0.24961 0.0
H898 H 0.5894 0.18693 0.84772 0.0
H899 H 0.58984 0.22113 0.87693 0.0
H900 H 0.5297 0.18442 0.9603 0.0
H901 H 0.52904 0.15007 0.93112 0.0
H902 H 0.56101 0.23781 0.86474 0.0
H903 H 0.53914 0.21256 0.10025 0.0
H904 H 0.53828 0.18557 0.16663 0.0
H905 H 0.59456 0.18912 0.09202 0.0
H906 H 0.59572 0.21604 0.02498 0.0
H907 H 0.55232 0.31961 0.05619 0.0
H908 H 0.54421 0.28348 1.00747 0.0
H909 H 0.61165 0.30113 0.07015 0.0
H910 H 0.62 0.33751 0.11816 0.0
H911 H 0.57503 0.25677 0.09196 0.0
H912 H 0.60333 0.30428 0.93223 0.0
H913 H 0.60396 0.33045 0.86349 0.0
H914 H 0.53595 0.28302 0.78664 0.0
H915 H 0.53486 0.2566 0.85548 0.0
C916 C 0.57589 0.18597 0.87076 0.0
C917 C 0.55952 0.16586 0.88867 0.0
C918 C 0.57617 0.20556 0.88732 0.0
C919 C 0.56009 0.2053 0.92192 0.0
C920 C 0.54247 0.18495 0.93447 0.0
C921 C 0.54216 0.16536 0.91789 0.0
C922 C 0.5635 0.22647 0.95139 0.0
C923 C 0.56389 0.2419 0.91437 0.0
C924 C 0.56745 0.23182 0.01616 0.0
C925 C 0.56741 0.21619 0.05745 0.0
C926 C 0.55138 0.20763 0.09821 0.0
C927 C 0.55079 0.19228 0.13571 0.0
C928 C 0.56629 0.18554 0.1332 0.0
C929 C 0.58247 0.19422 0.09343 0.0
C930 C 0.58309 0.20949 0.05564 0.0
C931 C 0.56535 0.3157 0.05987 0.0
C932 C 0.58675 0.33123 0.09111 0.0
C933 C 0.56073 0.29516 0.03187 0.0
C934 C 0.57735 0.28975 0.03536 0.0
C935 C 0.59864 0.30508 0.0672 0.0
C936 C 0.6034 0.3258 0.09432 0.0
C937 C 0.57255 0.26812 1.00528 0.0
C938 C 0.57189 0.25259 0.04233 0.0
C939 C 0.56833 0.2627 0.9406 0.0
C940 C 0.56894 0.27858 0.89943 0.0
C941 C 0.58844 0.29952 0.9011 0.0
C942 C 0.5889 0.31437 0.86201 0.0
C943 C 0.56998 0.30845 0.82083 0.0
C944 C 0.55058 0.28761 0.81861 0.0
C945 C 0.55004 0.27267 0.85759 0.0
H946 H 0.57038 0.31995 0.79049 0.0
H947 H 0.56582 0.17367 0.16221 0.0
loop_
_geom_bond_atom_site_label_1
_geom_bond_atom_site_label_2
_geom_bond_distance
_geom_bond_site_symmetry_2
_ccdc_geom_bond_type
C0 C1 1.351 . S
C0 N3 1.368 . S
C0 H5 0.931 . S
C1 C0 1.351 . S
C1 N2 1.373 . S
C1 H29 0.930 . S
N2 C1 1.373 . S
N2 C4 1.340 . S
N3 C0 1.368 . S
N3 C4 1.321 . S
N3 Co6 2.135 1_556 S
C4 N2 1.340 . S
C4 N3 1.321 . S
C4 H28 0.930 . S
H5 C0 0.931 . S
Co6 N3 2.135 1_554 S
Co6 N9 2.121 . S
Co6 O14 2.055 . S
Co6 O17 2.039 . S
Co6 N20 2.140 . S
C7 O8 1.227 . S
C7 O17 1.265 . S
O8 C7 1.227 . S
N9 Co6 2.121 . S
N9 C11 1.375 . S
N9 C12 1.313 . S
C10 C11 1.338 . S
C10 N13 1.377 . S
C10 H30 0.930 . S
C11 N9 1.375 . S
C11 C10 1.338 . S
C11 H15 0.931 . S
C12 N9 1.313 . S
C12 N13 1.344 . S
C12 H16 0.930 . S
N13 C10 1.377 . S
N13 C12 1.344 . S
O14 Co6 2.055 . S
O14 C18 1.253 . S
H15 C11 0.931 . S
H16 C12 0.930 . S
O17 Co6 2.039 . S
O17 C7 1.265 . S
C18 O14 1.253 . S
C18 O19 1.227 . S
O19 C18 1.227 . S
N20 Co6 2.140 . S
N20 C23 1.346 . S
N20 C24 1.345 . S
C21 C22 1.387 . S
C21 C25 1.391 . S
C22 C21 1.387 . S
C22 C23 1.369 . S
C22 H31 0.929 1_554 S
C23 N20 1.346 . S
C23 C22 1.369 . S
C23 H26 0.928 1_554 S
C24 N20 1.345 . S
C24 C25 1.371 . S
C24 H27 0.931 . S
C25 C21 1.391 . S
C25 C24 1.371 . S
C25 H32 0.930 . S
H26 C23 0.928 1_556 S
H27 C24 0.931 . S
H28 C4 0.930 . S
H29 C1 0.930 . S
H30 C10 0.930 . S
H31 C22 0.929 1_556 S
H32 C25 0.930 . S
C33 C34 1.351 . S
C33 N36 1.368 . S
C33 H38 0.931 . S
C34 C33 1.351 . S
C34 N35 1.373 . S
C34 H62 0.930 . S
N35 C34 1.373 . S
N35 C37 1.340 . S
N36 C33 1.368 . S
N36 C37 1.321 . S
N36 Co39 2.135 1_556 S
C37 N35 1.340 . S
C37 N36 1.321 . S
C37 H61 0.930 . S
H38 C33 0.931 . S
Co39 N36 2.135 1_554 S
Co39 N42 2.121 . S
Co39 O47 2.055 . S
Co39 O50 2.039 . S
Co39 N53 2.140 . S
C40 O41 1.227 . S
C40 O50 1.265 . S
O41 C40 1.227 . S
N42 Co39 2.121 . S
N42 C44 1.375 . S
N42 C45 1.313 . S
C43 C44 1.338 . S
C43 N46 1.377 . S
C43 H63 0.930 . S
C44 N42 1.375 . S
C44 C43 1.338 . S
C44 H48 0.931 . S
C45 N42 1.313 . S
C45 N46 1.344 . S
C45 H49 0.930 . S
N46 C43 1.377 . S
N46 C45 1.344 . S
O47 Co39 2.055 . S
O47 C51 1.253 . S
H48 C44 0.931 . S
H49 C45 0.930 . S
O50 Co39 2.039 . S
O50 C40 1.265 . S
C51 O47 1.253 . S
C51 O52 1.227 . S
O52 C51 1.227 . S
N53 Co39 2.140 . S
N53 C56 1.346 . S
N53 C57 1.345 . S
C54 C55 1.387 . S
C54 C58 1.391 . S
C55 C54 1.387 . S
C55 C56 1.369 . S
C55 H64 0.929 1_554 S
C56 N53 1.346 . S
C56 C55 1.369 . S
C56 H59 0.928 1_554 S
C57 N53 1.345 . S
C57 C58 1.371 . S
C57 H60 0.931 . S
C58 C54 1.391 . S
C58 C57 1.371 . S
C58 H65 0.930 . S
H59 C56 0.928 1_556 S
H60 C57 0.931 . S
H61 C37 0.930 . S
H62 C34 0.930 . S
H63 C43 0.930 . S
H64 C55 0.929 1_556 S
H65 C58 0.930 . S
C66 C67 1.351 . S
C66 N69 1.368 1_556 S
C66 H71 0.931 1_556 S
C67 C66 1.351 . S
C67 N68 1.373 . S
C67 H95 0.930 . S
N68 C67 1.373 . S
N68 C70 1.340 . S
N69 C66 1.368 1_554 S
N69 C70 1.321 1_554 S
N69 Co72 2.135 . S
C70 N68 1.340 . S
C70 N69 1.321 1_556 S
C70 H94 0.930 . S
H71 C66 0.931 1_554 S
Co72 N69 2.135 . S
Co72 N75 2.121 . S
Co72 O80 2.055 . S
Co72 O83 2.039 . S
Co72 N86 2.140 . S
C73 O74 1.227 . S
C73 O83 1.265 . S
O74 C73 1.227 . S
N75 Co72 2.121 . S
N75 C77 1.375 . S
N75 C78 1.313 . S
C76 C77 1.338 . S
C76 N79 1.377 . S
C76 H96 0.930 . S
C77 N75 1.375 . S
C77 C76 1.338 . S
C77 H81 0.931 . S
C78 N75 1.313 . S
C78 N79 1.344 . S
C78 H82 0.930 . S
N79 C76 1.377 . S
N79 C78 1.344 . S
O80 Co72 2.055 . S
O80 C84 1.253 . S
H81 C77 0.931 . S
H82 C78 0.930 . S
O83 Co72 2.039 . S
O83 C73 1.265 . S
C84 O80 1.253 . S
C84 O85 1.227 . S
O85 C84 1.227 . S
N86 Co72 2.140 . S
N86 C89 1.346 . S
N86 C90 1.345 . S
C87 C88 1.387 . S
C87 C91 1.391 . S
C88 C87 1.387 . S
C88 C89 1.369 . S
C88 H97 0.929 . S
C89 N86 1.346 . S
C89 C88 1.369 . S
C89 H92 0.928 . S
C90 N86 1.345 . S
C90 C91 1.371 . S
C90 H93 0.931 . S
C91 C87 1.391 . S
C91 C90 1.371 . S
C91 H98 0.930 . S
H92 C89 0.928 . S
H93 C90 0.931 . S
H94 C70 0.930 . S
H95 C67 0.930 . S
H96 C76 0.930 . S
H97 C88 0.929 . S
H98 C91 0.930 . S
C99 C100 1.351 . S
C99 N102 1.368 . S
C99 H104 0.931 . S
C100 C99 1.351 . S
C100 N101 1.373 . S
C100 H128 0.930 . S
N101 C100 1.373 . S
N101 C103 1.340 . S
N102 C99 1.368 . S
N102 C103 1.321 . S
N102 Co105 2.135 . S
C103 N101 1.340 . S
C103 N102 1.321 . S
C103 H127 0.930 . S
H104 C99 0.931 . S
Co105 N102 2.135 . S
Co105 N108 2.121 . S
Co105 O113 2.055 . S
Co105 O116 2.039 . S
Co105 N119 2.140 . S
C106 O107 1.227 . S
C106 O116 1.265 . S
O107 C106 1.227 . S
N108 Co105 2.121 . S
N108 C110 1.375 1_554 S
N108 C111 1.313 1_554 S
C109 C110 1.338 . S
C109 N112 1.377 . S
C109 H129 0.930 . S
C110 N108 1.375 1_556 S
C110 C109 1.338 . S
C110 H114 0.931 1_556 S
C111 N108 1.313 1_556 S
C111 N112 1.344 . S
C111 H115 0.930 . S
N112 C109 1.377 . S
N112 C111 1.344 . S
O113 Co105 2.055 . S
O113 C117 1.253 . S
H114 C110 0.931 1_554 S
H115 C111 0.930 . S
O116 Co105 2.039 . S
O116 C106 1.265 . S
C117 O113 1.253 . S
C117 O118 1.227 . S
O118 C117 1.227 . S
N119 Co105 2.140 . S
N119 C122 1.346 . S
N119 C123 1.345 . S
C120 C121 1.387 . S
C120 C124 1.391 . S
C121 C120 1.387 . S
C121 C122 1.369 . S
C121 H130 0.929 . S
C122 N119 1.346 . S
C122 C121 1.369 . S
C122 H125 0.928 . S
C123 N119 1.345 . S
C123 C124 1.371 . S
C123 H126 0.931 . S
C124 C120 1.391 . S
C124 C123 1.371 . S
C124 H131 0.930 . S
H125 C122 0.928 . S
H126 C123 0.931 . S
H127 C103 0.930 . S
H128 C100 0.930 . S
H129 C109 0.930 . S
H130 C121 0.929 . S
H131 C124 0.930 . S
C132 C133 1.351 . S
C132 N135 1.368 . S
C132 H137 0.931 . S
C133 C132 1.351 . S
C133 N134 1.373 . S
C133 H161 0.930 . S
N134 C133 1.373 . S
N134 C136 1.340 . S
N135 C132 1.368 . S
N135 C136 1.321 . S
N135 Co138 2.135 . S
C136 N134 1.340 . S
C136 N135 1.321 . S
C136 H160 0.930 . S
H137 C132 0.931 . S
Co138 N135 2.135 . S
Co138 N141 2.121 . S
Co138 O146 2.055 . S
Co138 O149 2.039 . S
Co138 N152 2.140 . S
C139 O140 1.227 . S
C139 O149 1.265 . S
O140 C139 1.227 . S
N141 Co138 2.121 . S
N141 C143 1.375 1_554 S
N141 C144 1.313 1_554 S
C142 C143 1.338 . S
C142 N145 1.377 . S
C142 H162 0.930 . S
C143 N141 1.375 1_556 S
C143 C142 1.338 . S
C143 H147 0.931 . S
C144 N141 1.313 1_556 S
C144 N145 1.344 . S
C144 H148 0.930 . S
N145 C142 1.377 . S
N145 C144 1.344 . S
O146 Co138 2.055 . S
O146 C150 1.253 . S
H147 C143 0.931 . S
H148 C144 0.930 . S
O149 Co138 2.039 . S
O149 C139 1.265 . S
C150 O146 1.253 . S
C150 O151 1.227 . S
O151 C150 1.227 . S
N152 Co138 2.140 . S
N152 C155 1.346 . S
N152 C156 1.345 . S
C153 C154 1.387 . S
C153 C157 1.391 . S
C154 C153 1.387 . S
C154 C155 1.369 . S
C154 H163 0.929 . S
C155 N152 1.346 . S
C155 C154 1.369 . S
C155 H158 0.928 . S
C156 N152 1.345 . S
C156 C157 1.371 . S
C156 H159 0.931 . S
C157 C153 1.391 . S
C157 C156 1.371 . S
C157 H164 0.930 . S
H158 C155 0.928 . S
H159 C156 0.931 . S
H160 C136 0.930 . S
H161 C133 0.930 . S
H162 C142 0.930 . S
H163 C154 0.929 . S
H164 C157 0.930 . S
C165 C166 1.351 . S
C165 N168 1.368 1_556 S
C165 H170 0.931 1_556 S
C166 C165 1.351 . S
C166 N167 1.373 . S
C166 H194 0.930 . S
N167 C166 1.373 . S
N167 C169 1.340 . S
N168 C165 1.368 1_554 S
N168 C169 1.321 1_554 S
N168 Co171 2.135 . S
C169 N167 1.340 . S
C169 N168 1.321 1_556 S
C169 H193 0.930 . S
H170 C165 0.931 1_554 S
Co171 N168 2.135 . S
Co171 N174 2.121 . S
Co171 O179 2.055 . S
Co171 O182 2.039 . S
Co171 N185 2.140 . S
C172 O173 1.227 . S
C172 O182 1.265 . S
O173 C172 1.227 . S
N174 Co171 2.121 . S
N174 C176 1.375 . S
N174 C177 1.313 . S
C175 C176 1.338 . S
C175 N178 1.377 . S
C175 H195 0.930 . S
C176 N174 1.375 . S
C176 C175 1.338 . S
C176 H180 0.931 . S
C177 N174 1.313 . S
C177 N178 1.344 . S
C177 H181 0.930 . S
N178 C175 1.377 . S
N178 C177 1.344 . S
O179 Co171 2.055 . S
O179 C183 1.253 . S
H180 C176 0.931 . S
H181 C177 0.930 . S
O182 Co171 2.039 . S
O182 C172 1.265 . S
C183 O179 1.253 . S
C183 O184 1.227 . S
O184 C183 1.227 . S
N185 Co171 2.140 . S
N185 C188 1.346 . S
N185 C189 1.345 . S
C186 C187 1.387 . S
C186 C190 1.391 . S
C187 C186 1.387 . S
C187 C188 1.369 . S
C187 H196 0.929 . S
C188 N185 1.346 . S
C188 C187 1.369 . S
C188 H191 0.928 . S
C189 N185 1.345 . S
C189 C190 1.371 . S
C189 H192 0.931 . S
C190 C186 1.391 . S
C190 C189 1.371 . S
C190 H197 0.930 . S
H191 C188 0.928 . S
H192 C189 0.931 . S
H193 C169 0.930 . S
H194 C166 0.930 . S
H195 C175 0.930 . S
H196 C187 0.929 . S
H197 C190 0.930 . S
H198 C216 0.951 . S
H199 C218 0.951 . S
H200 C220 0.950 . S
H201 C221 0.950 . S
H202 C223 0.950 . S
H203 C226 0.950 . S
H204 C227 0.950 . S
H205 C229 0.950 . S
H206 C230 0.950 . S
H207 C231 0.951 . S
H208 C233 0.951 . S
H209 C235 0.950 . S
H210 C236 0.950 . S
H211 C238 0.950 . S
H212 C241 0.950 . S
H213 C242 0.950 . S
H214 C244 0.950 . S
H215 C245 0.950 1_455 S
C216 H198 0.951 . S
C216 C217 1.366 . S
C216 C218 1.388 . S
C217 C216 1.366 . S
C217 C221 1.385 . S
C218 H199 0.951 . S
C218 C216 1.388 . S
C218 C219 1.366 . S
C219 C218 1.366 . S
C219 C220 1.414 . S
C219 C222 1.499 . S
C220 H200 0.950 . S
C220 C219 1.414 . S
C220 C221 1.374 . S
C221 H201 0.950 . S
C221 C217 1.385 . S
C221 C220 1.374 . S
C222 C219 1.499 . S
C222 C223 1.373 . S
C222 C224 1.389 . S
C223 H202 0.950 . S
C223 C222 1.373 . S
C223 C239 1.377 1_455 S
C224 C222 1.389 . S
C224 C225 1.524 . S
C224 C238 1.377 1_455 S
C225 C224 1.524 . S
C225 C226 1.397 1_554 S
C225 C230 1.363 . S
C226 H203 0.950 . S
C226 C225 1.397 1_556 S
C226 C227 1.334 . S
C227 H204 0.950 . S
C227 C226 1.334 . S
C227 C228 1.287 . S
C228 C227 1.287 . S
C228 C229 1.524 . S
C228 H247 0.913 . S
C229 H205 0.950 . S
C229 C228 1.524 . S
C229 C230 1.415 1_556 S
C230 H206 0.950 . S
C230 C225 1.363 . S
C230 C229 1.415 1_554 S
C231 H207 0.951 . S
C231 C232 1.366 . S
C231 C233 1.388 . S
C232 C231 1.366 . S
C232 C236 1.385 . S
C233 H208 0.951 . S
C233 C231 1.388 . S
C233 C234 1.366 . S
C234 C233 1.366 . S
C234 C235 1.414 . S
C234 C237 1.499 . S
C235 H209 0.950 . S
C235 C234 1.414 . S
C235 C236 1.374 . S
C236 H210 0.950 . S
C236 C232 1.385 . S
C236 C235 1.374 . S
C237 C234 1.499 . S
C237 C238 1.373 . S
C237 C239 1.389 . S
C238 H211 0.950 . S
C238 C224 1.377 1_655 S
C238 C237 1.373 . S
C239 C223 1.377 1_655 S
C239 C237 1.389 . S
C239 C240 1.524 . S
C240 C239 1.524 . S
C240 C241 1.397 . S
C240 C245 1.363 . S
C241 H212 0.950 . S
C241 C240 1.397 . S
C241 C242 1.334 . S
C242 H213 0.950 . S
C242 C241 1.334 . S
C242 C243 1.287 . S
C243 C242 1.287 . S
C243 C244 1.524 . S
C243 H246 0.999 . S
C244 H214 0.950 . S
C244 C243 1.524 . S
C244 C245 1.415 . S
C245 H215 0.950 1_655 S
C245 C240 1.363 . S
C245 C244 1.415 . S
H246 C243 0.999 . S
H247 C228 0.913 . S
H248 C266 0.951 . S
H249 C268 0.951 . S
H250 C270 0.950 . S
H251 C271 0.950 . S
H252 C273 0.950 . S
H253 C276 0.950 1_554 S
H254 C277 0.950 . S
H255 C279 0.950 . S
H256 C280 0.950 . S
H257 C281 0.951 . S
H258 C283 0.951 . S
H259 C285 0.950 1_556 S
H260 C286 0.950 1_556 S
H261 C288 0.950 1_556 S
H262 C291 0.950 . S
H263 C292 0.950 . S
H264 C294 0.950 . S
H265 C295 0.950 . S
C266 H248 0.951 . S
C266 C267 1.366 . S
C266 C268 1.388 . S
C267 C266 1.366 . S
C267 C271 1.385 . S
C268 H249 0.951 . S
C268 C266 1.388 . S
C268 C269 1.366 . S
C269 C268 1.366 . S
C269 C270 1.414 . S
C269 C272 1.499 . S
C270 H250 0.950 . S
C270 C269 1.414 . S
C270 C271 1.374 . S
C271 H251 0.950 . S
C271 C267 1.385 . S
C271 C270 1.374 . S
C272 C269 1.499 . S
C272 C273 1.373 . S
C272 C274 1.389 . S
C273 H252 0.950 . S
C273 C272 1.373 . S
C273 C289 1.377 1_565 S
C274 C272 1.389 . S
C274 C275 1.524 1_554 S
C274 C288 1.377 1_565 S
C275 C274 1.524 1_556 S
C275 C276 1.397 . S
C275 C280 1.363 . S
C276 H253 0.950 1_556 S
C276 C275 1.397 . S
C276 C277 1.334 . S
C277 H254 0.950 . S
C277 C276 1.334 . S
C277 C278 1.287 . S
C278 C277 1.287 . S
C278 C279 1.524 . S
C278 H297 0.913 . S
C279 H255 0.950 . S
C279 C278 1.524 . S
C279 C280 1.415 . S
C280 H256 0.950 . S
C280 C275 1.363 . S
C280 C279 1.415 . S
C281 H257 0.951 . S
C281 C282 1.366 . S
C281 C283 1.388 . S
C282 C281 1.366 . S
C282 C286 1.385 . S
C283 H258 0.951 . S
C283 C281 1.388 . S
C283 C284 1.366 . S
C284 C283 1.366 . S
C284 C285 1.414 . S
C284 C287 1.499 . S
C285 H259 0.950 1_554 S
C285 C284 1.414 . S
C285 C286 1.374 . S
C286 H260 0.950 1_554 S
C286 C282 1.385 . S
C286 C285 1.374 . S
C287 C284 1.499 . S
C287 C288 1.373 . S
C287 C289 1.389 . S
C288 H261 0.950 1_554 S
C288 C274 1.377 1_545 S
C288 C287 1.373 . S
C289 C273 1.377 1_545 S
C289 C287 1.389 . S
C289 C290 1.524 . S
C290 C289 1.524 . S
C290 C291 1.397 . S
C290 C295 1.363 . S
C291 H262 0.950 . S
C291 C290 1.397 . S
C291 C292 1.334 . S
C292 H263 0.950 . S
C292 C291 1.334 . S
C292 C293 1.287 . S
C293 C292 1.287 . S
C293 C294 1.524 . S
C293 H296 0.999 . S
C294 H264 0.950 . S
C294 C293 1.524 . S
C294 C295 1.415 . S
C295 H265 0.950 . S
C295 C290 1.363 . S
C295 C294 1.415 . S
H296 C293 0.999 . S
H297 C278 0.913 . S
H298 C316 0.951 . S
H299 C318 0.951 . S
H300 C320 0.950 . S
H301 C321 0.950 . S
H302 C323 0.950 . S
H303 C326 0.950 . S
H304 C327 0.950 . S
H305 C329 0.950 . S
H306 C330 0.950 . S
H307 C331 0.951 . S
H308 C333 0.951 . S
H309 C335 0.950 . S
H310 C336 0.950 . S
H311 C338 0.950 . S
H312 C341 0.950 . S
H313 C342 0.950 . S
H314 C344 0.950 . S
H315 C345 0.950 . S
C316 H298 0.951 . S
C316 C317 1.366 . S
C316 C318 1.388 . S
C317 C316 1.366 . S
C317 C321 1.385 . S
C318 H299 0.951 . S
C318 C316 1.388 . S
C318 C319 1.366 . S
C319 C318 1.366 . S
C319 C320 1.414 . S
C319 C322 1.499 . S
C320 H300 0.950 . S
C320 C319 1.414 . S
C320 C321 1.374 . S
C321 H301 0.950 . S
C321 C317 1.385 . S
C321 C320 1.374 . S
C322 C319 1.499 . S
C322 C323 1.373 . S
C322 C324 1.389 . S
C323 H302 0.950 . S
C323 C322 1.373 . S
C323 C339 1.377 . S
C324 C322 1.389 . S
C324 C325 1.524 . S
C324 C338 1.377 . S
C325 C324 1.524 . S
C325 C326 1.397 . S
C325 C330 1.363 . S
C326 H303 0.950 . S
C326 C325 1.397 . S
C326 C327 1.334 1_554 S
C327 H304 0.950 . S
C327 C326 1.334 1_556 S
C327 C328 1.287 . S
C328 C327 1.287 . S
C328 C329 1.524 1_556 S
C328 H347 0.913 . S
C329 H305 0.950 . S
C329 C328 1.524 1_554 S
C329 C330 1.415 . S
C330 H306 0.950 . S
C330 C325 1.363 . S
C330 C329 1.415 . S
C331 H307 0.951 . S
C331 C332 1.366 . S
C331 C333 1.388 . S
C332 C331 1.366 . S
C332 C336 1.385 . S
C333 H308 0.951 . S
C333 C331 1.388 . S
C333 C334 1.366 . S
C334 C333 1.366 . S
C334 C335 1.414 . S
C334 C337 1.499 . S
C335 H309 0.950 . S
C335 C334 1.414 . S
C335 C336 1.374 . S
C336 H310 0.950 . S
C336 C332 1.385 . S
C336 C335 1.374 . S
C337 C334 1.499 . S
C337 C338 1.373 . S
C337 C339 1.389 . S
C338 H311 0.950 . S
C338 C324 1.377 . S
C338 C337 1.373 . S
C339 C323 1.377 . S
C339 C337 1.389 . S
C339 C340 1.524 . S
C340 C339 1.524 . S
C340 C341 1.397 . S
C340 C345 1.363 . S
C341 H312 0.950 . S
C341 C340 1.397 . S
C341 C342 1.334 . S
C342 H313 0.950 . S
C342 C341 1.334 . S
C342 C343 1.287 . S
C343 C342 1.287 . S
C343 C344 1.524 . S
C343 H346 0.999 . S
C344 H314 0.950 . S
C344 C343 1.524 . S
C344 C345 1.415 . S
C345 H315 0.950 . S
C345 C340 1.363 . S
C345 C344 1.415 . S
H346 C343 0.999 . S
H347 C328 0.913 . S
H348 C366 0.951 . S
H349 C368 0.951 . S
H350 C370 0.950 . S
H351 C371 0.950 . S
H352 C373 0.950 . S
H353 C376 0.950 . S
H354 C377 0.950 . S
H355 C379 0.950 . S
H356 C380 0.950 . S
H357 C381 0.951 . S
H358 C383 0.951 . S
H359 C385 0.950 . S
H360 C386 0.950 . S
H361 C388 0.950 . S
H362 C391 0.950 . S
H363 C392 0.950 . S
H364 C394 0.950 . S
H365 C395 0.950 . S
C366 H348 0.951 . S
C366 C367 1.366 . S
C366 C368 1.388 . S
C367 C366 1.366 . S
C367 C371 1.385 . S
C368 H349 0.951 . S
C368 C366 1.388 . S
C368 C369 1.366 . S
C369 C368 1.366 . S
C369 C370 1.414 . S
C369 C372 1.499 . S
C370 H350 0.950 . S
C370 C369 1.414 . S
C370 C371 1.374 . S
C371 H351 0.950 . S
C371 C367 1.385 . S
C371 C370 1.374 . S
C372 C369 1.499 . S
C372 C373 1.373 . S
C372 C374 1.389 . S
C373 H352 0.950 . S
C373 C372 1.373 . S
C373 C389 1.377 . S
C374 C372 1.389 . S
C374 C375 1.524 . S
C374 C388 1.377 . S
C375 C374 1.524 . S
C375 C376 1.397 . S
C375 C380 1.363 . S
C376 H353 0.950 . S
C376 C375 1.397 . S
C376 C377 1.334 . S
C377 H354 0.950 . S
C377 C376 1.334 . S
C377 C378 1.287 . S
C378 C377 1.287 . S
C378 C379 1.524 . S
C378 H397 0.913 . S
C379 H355 0.950 . S
C379 C378 1.524 . S
C379 C380 1.415 . S
C380 H356 0.950 . S
C380 C375 1.363 . S
C380 C379 1.415 . S
C381 H357 0.951 . S
C381 C382 1.366 . S
C381 C383 1.388 . S
C382 C381 1.366 . S
C382 C386 1.385 . S
C383 H358 0.951 . S
C383 C381 1.388 . S
C383 C384 1.366 . S
C384 C383 1.366 . S
C384 C385 1.414 . S
C384 C387 1.499 . S
C385 H359 0.950 . S
C385 C384 1.414 . S
C385 C386 1.374 . S
C386 H360 0.950 . S
C386 C382 1.385 . S
C386 C385 1.374 . S
C387 C384 1.499 . S
C387 C388 1.373 . S
C387 C389 1.389 . S
C388 H361 0.950 . S
C388 C374 1.377 . S
C388 C387 1.373 . S
C389 C373 1.377 . S
C389 C387 1.389 . S
C389 C390 1.524 . S
C390 C389 1.524 . S
C390 C391 1.397 . S
C390 C395 1.363 . S
C391 H362 0.950 . S
C391 C390 1.397 . S
C391 C392 1.334 . S
C392 H363 0.950 . S
C392 C391 1.334 . S
C392 C393 1.287 . S
C393 C392 1.287 . S
C393 C394 1.524 . S
C393 H396 0.999 . S
C394 H364 0.950 . S
C394 C393 1.524 . S
C394 C395 1.415 . S
C395 H365 0.950 . S
C395 C390 1.363 . S
C395 C394 1.415 . S
H396 C393 0.999 . S
H397 C378 0.913 . S
H398 C416 0.951 . S
H399 C418 0.951 . S
H400 C420 0.950 . S
H401 C421 0.950 . S
H402 C423 0.950 . S
H403 C426 0.950 . S
H404 C427 0.950 . S
H405 C429 0.950 . S
H406 C430 0.950 . S
H407 C431 0.951 . S
H408 C433 0.951 . S
H409 C435 0.950 . S
H410 C436 0.950 . S
H411 C438 0.950 . S
H412 C441 0.950 . S
H413 C442 0.950 . S
H414 C444 0.950 . S
H415 C445 0.950 . S
C416 H398 0.951 . S
C416 C417 1.366 . S
C416 C418 1.388 . S
C417 C416 1.366 . S
C417 C421 1.385 . S
C418 H399 0.951 . S
C418 C416 1.388 . S
C418 C419 1.366 . S
C419 C418 1.366 . S
C419 C420 1.414 . S
C419 C422 1.499 . S
C420 H400 0.950 . S
C420 C419 1.414 . S
C420 C421 1.374 . S
C421 H401 0.950 . S
C421 C417 1.385 . S
C421 C420 1.374 . S
C422 C419 1.499 . S
C422 C423 1.373 . S
C422 C424 1.389 . S
C423 H402 0.950 . S
C423 C422 1.373 . S
C423 C439 1.377 . S
C424 C422 1.389 . S
C424 C425 1.524 . S
C424 C438 1.377 . S
C425 C424 1.524 . S
C425 C426 1.397 . S
C425 C430 1.363 . S
C426 H403 0.950 . S
C426 C425 1.397 . S
C426 C427 1.334 . S
C427 H404 0.950 . S
C427 C426 1.334 . S
C427 C428 1.287 . S
C428 C427 1.287 . S
C428 C429 1.524 . S
C428 H447 0.913 . S
C429 H405 0.950 . S
C429 C428 1.524 . S
C429 C430 1.415 . S
C430 H406 0.950 . S
C430 C425 1.363 . S
C430 C429 1.415 . S
C431 H407 0.951 . S
C431 C432 1.366 . S
C431 C433 1.388 . S
C432 C431 1.366 . S
C432 C436 1.385 . S
C433 H408 0.951 . S
C433 C431 1.388 . S
C433 C434 1.366 . S
C434 C433 1.366 . S
C434 C435 1.414 . S
C434 C437 1.499 . S
C435 H409 0.950 . S
C435 C434 1.414 . S
C435 C436 1.374 . S
C436 H410 0.950 . S
C436 C432 1.385 . S
C436 C435 1.374 . S
C437 C434 1.499 . S
C437 C438 1.373 . S
C437 C439 1.389 . S
C438 H411 0.950 . S
C438 C424 1.377 . S
C438 C437 1.373 . S
C439 C423 1.377 . S
C439 C437 1.389 . S
C439 C440 1.524 . S
C440 C439 1.524 . S
C440 C441 1.397 . S
C440 C445 1.363 . S
C441 H412 0.950 . S
C441 C440 1.397 . S
C441 C442 1.334 . S
C442 H413 0.950 . S
C442 C441 1.334 . S
C442 C443 1.287 . S
C443 C442 1.287 . S
C443 C444 1.524 . S
C443 H446 0.999 . S
C444 H414 0.950 . S
C444 C443 1.524 . S
C444 C445 1.415 . S
C445 H415 0.950 . S
C445 C440 1.363 . S
C445 C444 1.415 . S
H446 C443 0.999 . S
H447 C428 0.913 . S
H448 C466 0.951 . S
H449 C468 0.951 . S
H450 C470 0.950 . S
H451 C471 0.950 . S
H452 C473 0.950 . S
H453 C476 0.950 . S
H454 C477 0.950 . S
H455 C479 0.950 . S
H456 C480 0.950 . S
H457 C481 0.951 . S
H458 C483 0.951 . S
H459 C485 0.950 . S
H460 C486 0.950 . S
H461 C488 0.950 . S
H462 C491 0.950 . S
H463 C492 0.950 . S
H464 C494 0.950 . S
H465 C495 0.950 . S
C466 H448 0.951 . S
C466 C467 1.366 . S
C466 C468 1.388 . S
C467 C466 1.366 . S
C467 C471 1.385 . S
C468 H449 0.951 . S
C468 C466 1.388 . S
C468 C469 1.366 . S
C469 C468 1.366 . S
C469 C470 1.414 . S
C469 C472 1.499 . S
C470 H450 0.950 . S
C470 C469 1.414 . S
C470 C471 1.374 . S
C471 H451 0.950 . S
C471 C467 1.385 . S
C471 C470 1.374 . S
C472 C469 1.499 . S
C472 C473 1.373 . S
C472 C474 1.389 . S
C473 H452 0.950 . S
C473 C472 1.373 . S
C473 C489 1.377 . S
C474 C472 1.389 . S
C474 C475 1.524 . S
C474 C488 1.377 . S
C475 C474 1.524 . S
C475 C476 1.397 . S
C475 C480 1.363 . S
C476 H453 0.950 . S
C476 C475 1.397 . S
C476 C477 1.334 . S
C477 H454 0.950 . S
C477 C476 1.334 . S
C477 C478 1.287 . S
C478 C477 1.287 . S
C478 C479 1.524 . S
C478 H497 0.913 . S
C479 H455 0.950 . S
C479 C478 1.524 . S
C479 C480 1.415 . S
C480 H456 0.950 . S
C480 C475 1.363 . S
C480 C479 1.415 . S
C481 H457 0.951 . S
C481 C482 1.366 . S
C481 C483 1.388 . S
C482 C481 1.366 . S
C482 C486 1.385 . S
C483 H458 0.951 . S
C483 C481 1.388 . S
C483 C484 1.366 . S
C484 C483 1.366 . S
C484 C485 1.414 . S
C484 C487 1.499 . S
C485 H459 0.950 . S
C485 C484 1.414 . S
C485 C486 1.374 . S
C486 H460 0.950 . S
C486 C482 1.385 . S
C486 C485 1.374 . S
C487 C484 1.499 . S
C487 C488 1.373 . S
C487 C489 1.389 . S
C488 H461 0.950 . S
C488 C474 1.377 . S
C488 C487 1.373 . S
C489 C473 1.377 . S
C489 C487 1.389 . S
C489 C490 1.524 . S
C490 C489 1.524 . S
C490 C491 1.397 . S
C490 C495 1.363 . S
C491 H462 0.950 . S
C491 C490 1.397 . S
C491 C492 1.334 . S
C492 H463 0.950 . S
C492 C491 1.334 . S
C492 C493 1.287 . S
C493 C492 1.287 . S
C493 C494 1.524 . S
C493 H496 0.999 . S
C494 H464 0.950 . S
C494 C493 1.524 . S
C494 C495 1.415 . S
C495 H465 0.950 . S
C495 C490 1.363 . S
C495 C494 1.415 . S
H496 C493 0.999 . S
H497 C478 0.913 . S
H498 C516 0.951 . S
H499 C518 0.951 . S
H500 C520 0.950 . S
H501 C521 0.950 . S
H502 C523 0.950 . S
H503 C526 0.950 . S
H504 C527 0.950 . S
H505 C529 0.950 . S
H506 C530 0.950 . S
H507 C531 0.951 . S
H508 C533 0.951 . S
H509 C535 0.950 . S
H510 C536 0.950 . S
H511 C538 0.950 . S
H512 C541 0.950 . S
H513 C542 0.950 . S
H514 C544 0.950 . S
H515 C545 0.950 . S
C516 H498 0.951 . S
C516 C517 1.366 . S
C516 C518 1.388 . S
C517 C516 1.366 . S
C517 C521 1.385 . S
C518 H499 0.951 . S
C518 C516 1.388 . S
C518 C519 1.366 . S
C519 C518 1.366 . S
C519 C520 1.414 . S
C519 C522 1.499 . S
C520 H500 0.950 . S
C520 C519 1.414 . S
C520 C521 1.374 . S
C521 H501 0.950 . S
C521 C517 1.385 . S
C521 C520 1.374 . S
C522 C519 1.499 . S
C522 C523 1.373 . S
C522 C524 1.389 . S
C523 H502 0.950 . S
C523 C522 1.373 . S
C523 C539 1.377 . S
C524 C522 1.389 . S
C524 C525 1.524 . S
C524 C538 1.377 . S
C525 C524 1.524 . S
C525 C526 1.397 . S
C525 C530 1.363 . S
C526 H503 0.950 . S
C526 C525 1.397 . S
C526 C527 1.334 . S
C527 H504 0.950 . S
C527 C526 1.334 . S
C527 C528 1.287 . S
C528 C527 1.287 . S
C528 C529 1.524 . S
C528 H547 0.913 . S
C529 H505 0.950 . S
C529 C528 1.524 . S
C529 C530 1.415 . S
C530 H506 0.950 . S
C530 C525 1.363 . S
C530 C529 1.415 . S
C531 H507 0.951 . S
C531 C532 1.366 . S
C531 C533 1.388 . S
C532 C531 1.366 . S
C532 C536 1.385 . S
C533 H508 0.951 . S
C533 C531 1.388 . S
C533 C534 1.366 . S
C534 C533 1.366 . S
C534 C535 1.414 . S
C534 C537 1.499 . S
C535 H509 0.950 . S
C535 C534 1.414 . S
C535 C536 1.374 . S
C536 H510 0.950 . S
C536 C532 1.385 . S
C536 C535 1.374 . S
C537 C534 1.499 . S
C537 C538 1.373 . S
C537 C539 1.389 . S
C538 H511 0.950 . S
C538 C524 1.377 . S
C538 C537 1.373 . S
C539 C523 1.377 . S
C539 C537 1.389 . S
C539 C540 1.524 . S
C540 C539 1.524 . S
C540 C541 1.397 . S
C540 C545 1.363 . S
C541 H512 0.950 . S
C541 C540 1.397 . S
C541 C542 1.334 . S
C542 H513 0.950 . S
C542 C541 1.334 . S
C542 C543 1.287 . S
C543 C542 1.287 . S
C543 C544 1.524 . S
C543 H546 0.999 . S
C544 H514 0.950 . S
C544 C543 1.524 . S
C544 C545 1.415 . S
C545 H515 0.950 . S
C545 C540 1.363 . S
C545 C544 1.415 . S
H546 C543 0.999 . S
H547 C528 0.913 . S
H548 C566 0.951 . S
H549 C568 0.951 . S
H550 C570 0.950 . S
H551 C571 0.950 . S
H552 C573 0.950 . S
H553 C576 0.950 . S
H554 C577 0.950 . S
H555 C579 0.950 . S
H556 C580 0.950 . S
H557 C581 0.951 . S
H558 C583 0.951 . S
H559 C585 0.950 . S
H560 C586 0.950 . S
H561 C588 0.950 . S
H562 C591 0.950 . S
H563 C592 0.950 . S
H564 C594 0.950 . S
H565 C595 0.950 . S
C566 H548 0.951 . S
C566 C567 1.366 . S
C566 C568 1.388 . S
C567 C566 1.366 . S
C567 C571 1.385 . S
C568 H549 0.951 . S
C568 C566 1.388 . S
C568 C569 1.366 . S
C569 C568 1.366 . S
C569 C570 1.414 . S
C569 C572 1.499 . S
C570 H550 0.950 . S
C570 C569 1.414 . S
C570 C571 1.374 . S
C571 H551 0.950 . S
C571 C567 1.385 . S
C571 C570 1.374 . S
C572 C569 1.499 . S
C572 C573 1.373 . S
C572 C574 1.389 . S
C573 H552 0.950 . S
C573 C572 1.373 . S
C573 C589 1.377 . S
C574 C572 1.389 . S
C574 C575 1.524 . S
C574 C588 1.377 . S
C575 C574 1.524 . S
C575 C576 1.397 . S
C575 C580 1.363 . S
C576 H553 0.950 . S
C576 C575 1.397 . S
C576 C577 1.334 . S
C577 H554 0.950 . S
C577 C576 1.334 . S
C577 C578 1.287 . S
C578 C577 1.287 . S
C578 C579 1.524 . S
C578 H597 0.913 . S
C579 H555 0.950 . S
C579 C578 1.524 . S
C579 C580 1.415 . S
C580 H556 0.950 . S
C580 C575 1.363 . S
C580 C579 1.415 . S
C581 H557 0.951 . S
C581 C582 1.366 . S
C581 C583 1.388 . S
C582 C581 1.366 . S
C582 C586 1.385 . S
C583 H558 0.951 . S
C583 C581 1.388 . S
C583 C584 1.366 . S
C584 C583 1.366 . S
C584 C585 1.414 . S
C584 C587 1.499 . S
C585 H559 0.950 . S
C585 C584 1.414 . S
C585 C586 1.374 . S
C586 H560 0.950 . S
C586 C582 1.385 . S
C586 C585 1.374 . S
C587 C584 1.499 . S
C587 C588 1.373 . S
C587 C589 1.389 . S
C588 H561 0.950 . S
C588 C574 1.377 . S
C588 C587 1.373 . S
C589 C573 1.377 . S
C589 C587 1.389 . S
C589 C590 1.524 . S
C590 C589 1.524 . S
C590 C591 1.397 . S
C590 C595 1.363 . S
C591 H562 0.950 . S
C591 C590 1.397 . S
C591 C592 1.334 . S
C592 H563 0.950 . S
C592 C591 1.334 . S
C592 C593 1.287 . S
C593 C592 1.287 . S
C593 C594 1.524 . S
C593 H596 0.999 . S
C594 H564 0.950 . S
C594 C593 1.524 . S
C594 C595 1.415 . S
C595 H565 0.950 . S
C595 C590 1.363 . S
C595 C594 1.415 . S
H596 C593 0.999 . S
H597 C578 0.913 . S
H598 C616 0.951 . S
H599 C618 0.951 . S
H600 C620 0.950 . S
H601 C621 0.950 . S
H602 C623 0.950 . S
H603 C626 0.950 . S
H604 C627 0.950 . S
H605 C629 0.950 . S
H606 C630 0.950 . S
H607 C631 0.951 . S
H608 C633 0.951 . S
H609 C635 0.950 . S
H610 C636 0.950 . S
H611 C638 0.950 . S
H612 C641 0.950 . S
H613 C642 0.950 . S
H614 C644 0.950 . S
H615 C645 0.950 . S
C616 H598 0.951 . S
C616 C617 1.366 . S
C616 C618 1.388 . S
C617 C616 1.366 . S
C617 C621 1.385 . S
C618 H599 0.951 . S
C618 C616 1.388 . S
C618 C619 1.366 . S
C619 C618 1.366 . S
C619 C620 1.414 . S
C619 C622 1.499 . S
C620 H600 0.950 . S
C620 C619 1.414 . S
C620 C621 1.374 . S
C621 H601 0.950 . S
C621 C617 1.385 . S
C621 C620 1.374 . S
C622 C619 1.499 . S
C622 C623 1.373 . S
C622 C624 1.389 . S
C623 H602 0.950 . S
C623 C622 1.373 . S
C623 C639 1.377 . S
C624 C622 1.389 . S
C624 C625 1.524 . S
C624 C638 1.377 . S
C625 C624 1.524 . S
C625 C626 1.397 . S
C625 C630 1.363 . S
C626 H603 0.950 . S
C626 C625 1.397 . S
C626 C627 1.334 . S
C627 H604 0.950 . S
C627 C626 1.334 . S
C627 C628 1.287 . S
C628 C627 1.287 . S
C628 C629 1.524 . S
C628 H647 0.913 . S
C629 H605 0.950 . S
C629 C628 1.524 . S
C629 C630 1.415 . S
C630 H606 0.950 . S
C630 C625 1.363 . S
C630 C629 1.415 . S
C631 H607 0.951 . S
C631 C632 1.366 . S
C631 C633 1.388 . S
C632 C631 1.366 . S
C632 C636 1.385 . S
C633 H608 0.951 . S
C633 C631 1.388 . S
C633 C634 1.366 . S
C634 C633 1.366 . S
C634 C635 1.414 . S
C634 C637 1.499 . S
C635 H609 0.950 . S
C635 C634 1.414 . S
C635 C636 1.374 . S
C636 H610 0.950 . S
C636 C632 1.385 . S
C636 C635 1.374 . S
C637 C634 1.499 . S
C637 C638 1.373 . S
C637 C639 1.389 . S
C638 H611 0.950 . S
C638 C624 1.377 . S
C638 C637 1.373 . S
C639 C623 1.377 . S
C639 C637 1.389 . S
C639 C640 1.524 . S
C640 C639 1.524 . S
C640 C641 1.397 . S
C640 C645 1.363 . S
C641 H612 0.950 . S
C641 C640 1.397 . S
C641 C642 1.334 . S
C642 H613 0.950 . S
C642 C641 1.334 . S
C642 C643 1.287 . S
C643 C642 1.287 . S
C643 C644 1.524 . S
C643 H646 0.999 . S
C644 H614 0.950 . S
C644 C643 1.524 . S
C644 C645 1.415 . S
C645 H615 0.950 . S
C645 C640 1.363 . S
C645 C644 1.415 . S
H646 C643 0.999 . S
H647 C628 0.913 . S
H648 C666 0.951 1_556 S
H649 C668 0.951 . S
H650 C670 0.950 . S
H651 C671 0.950 . S
H652 C673 0.950 . S
H653 C676 0.950 . S
H654 C677 0.950 . S
H655 C679 0.950 . S
H656 C680 0.950 . S
H657 C681 0.951 . S
H658 C683 0.951 . S
H659 C685 0.950 . S
H660 C686 0.950 . S
H661 C688 0.950 . S
H662 C691 0.950 . S
H663 C692 0.950 . S
H664 C694 0.950 . S
H665 C695 0.950 . S
C666 H648 0.951 1_554 S
C666 C667 1.366 . S
C666 C668 1.388 . S
C667 C666 1.366 . S
C667 C671 1.385 . S
C668 H649 0.951 . S
C668 C666 1.388 . S
C668 C669 1.366 . S
C669 C668 1.366 . S
C669 C670 1.414 . S
C669 C672 1.499 . S
C670 H650 0.950 . S
C670 C669 1.414 . S
C670 C671 1.374 . S
C671 H651 0.950 . S
C671 C667 1.385 . S
C671 C670 1.374 . S
C672 C669 1.499 . S
C672 C673 1.373 . S
C672 C674 1.389 . S
C673 H652 0.950 . S
C673 C672 1.373 . S
C673 C689 1.377 . S
C674 C672 1.389 . S
C674 C675 1.524 . S
C674 C688 1.377 . S
C675 C674 1.524 . S
C675 C676 1.397 . S
C675 C680 1.363 . S
C676 H653 0.950 . S
C676 C675 1.397 . S
C676 C677 1.334 . S
C677 H654 0.950 . S
C677 C676 1.334 . S
C677 C678 1.287 . S
C678 C677 1.287 . S
C678 C679 1.524 . S
C678 H697 0.913 . S
C679 H655 0.950 . S
C679 C678 1.524 . S
C679 C680 1.415 . S
C680 H656 0.950 . S
C680 C675 1.363 . S
C680 C679 1.415 . S
C681 H657 0.951 . S
C681 C682 1.366 . S
C681 C683 1.388 . S
C682 C681 1.366 . S
C682 C686 1.385 . S
C683 H658 0.951 . S
C683 C681 1.388 . S
C683 C684 1.366 . S
C684 C683 1.366 . S
C684 C685 1.414 . S
C684 C687 1.499 . S
C685 H659 0.950 . S
C685 C684 1.414 . S
C685 C686 1.374 . S
C686 H660 0.950 . S
C686 C682 1.385 . S
C686 C685 1.374 . S
C687 C684 1.499 . S
C687 C688 1.373 . S
C687 C689 1.389 . S
C688 H661 0.950 . S
C688 C674 1.377 . S
C688 C687 1.373 . S
C689 C673 1.377 . S
C689 C687 1.389 . S
C689 C690 1.524 . S
C690 C689 1.524 . S
C690 C691 1.397 1_554 S
C690 C695 1.363 . S
C691 H662 0.950 . S
C691 C690 1.397 1_556 S
C691 C692 1.334 . S
C692 H663 0.950 . S
C692 C691 1.334 . S
C692 C693 1.287 . S
C693 C692 1.287 . S
C693 C694 1.524 1_556 S
C693 H696 0.999 . S
C694 H664 0.950 . S
C694 C693 1.524 1_554 S
C694 C695 1.415 . S
C695 H665 0.950 . S
C695 C690 1.363 . S
C695 C694 1.415 . S
H696 C693 0.999 . S
H697 C678 0.913 . S
H698 C716 0.951 . S
H699 C718 0.951 . S
H700 C720 0.950 . S
H701 C721 0.950 . S
H702 C723 0.950 . S
H703 C726 0.950 . S
H704 C727 0.950 . S
H705 C729 0.950 . S
H706 C730 0.950 . S
H707 C731 0.951 . S
H708 C733 0.951 . S
H709 C735 0.950 . S
H710 C736 0.950 . S
H711 C738 0.950 . S
H712 C741 0.950 . S
H713 C742 0.950 . S
H714 C744 0.950 . S
H715 C745 0.950 . S
C716 H698 0.951 . S
C716 C717 1.366 . S
C716 C718 1.388 . S
C717 C716 1.366 . S
C717 C721 1.385 . S
C718 H699 0.951 . S
C718 C716 1.388 . S
C718 C719 1.366 . S
C719 C718 1.366 . S
C719 C720 1.414 . S
C719 C722 1.499 . S
C720 H700 0.950 . S
C720 C719 1.414 . S
C720 C721 1.374 . S
C721 H701 0.950 . S
C721 C717 1.385 . S
C721 C720 1.374 . S
C722 C719 1.499 . S
C722 C723 1.373 . S
C722 C724 1.389 . S
C723 H702 0.950 . S
C723 C722 1.373 . S
C723 C739 1.377 . S
C724 C722 1.389 . S
C724 C725 1.524 . S
C724 C738 1.377 . S
C725 C724 1.524 . S
C725 C726 1.397 . S
C725 C730 1.363 . S
C726 H703 0.950 . S
C726 C725 1.397 . S
C726 C727 1.334 . S
C727 H704 0.950 . S
C727 C726 1.334 . S
C727 C728 1.287 . S
C728 C727 1.287 . S
C728 C729 1.524 . S
C728 H747 0.913 . S
C729 H705 0.950 . S
C729 C728 1.524 . S
C729 C730 1.415 . S
C730 H706 0.950 . S
C730 C725 1.363 . S
C730 C729 1.415 . S
C731 H707 0.951 . S
C731 C732 1.366 . S
C731 C733 1.388 . S
C732 C731 1.366 . S
C732 C736 1.385 . S
C733 H708 0.951 . S
C733 C731 1.388 . S
C733 C734 1.366 . S
C734 C733 1.366 . S
C734 C735 1.414 . S
C734 C737 1.499 . S
C735 H709 0.950 . S
C735 C734 1.414 . S
C735 C736 1.374 . S
C736 H710 0.950 . S
C736 C732 1.385 . S
C736 C735 1.374 . S
C737 C734 1.499 . S
C737 C738 1.373 . S
C737 C739 1.389 . S
C738 H711 0.950 . S
C738 C724 1.377 . S
C738 C737 1.373 . S
C739 C723 1.377 . S
C739 C737 1.389 . S
C739 C740 1.524 . S
C740 C739 1.524 . S
C740 C741 1.397 1_554 S
C740 C745 1.363 . S
C741 H712 0.950 . S
C741 C740 1.397 1_556 S
C741 C742 1.334 . S
C742 H713 0.950 . S
C742 C741 1.334 . S
C742 C743 1.287 . S
C743 C742 1.287 . S
C743 C744 1.524 . S
C743 H746 0.999 . S
C744 H714 0.950 . S
C744 C743 1.524 . S
C744 C745 1.415 1_556 S
C745 H715 0.950 . S
C745 C740 1.363 . S
C745 C744 1.415 1_554 S
H746 C743 0.999 . S
H747 C728 0.913 . S
H748 C766 0.951 . S
H749 C768 0.951 . S
H750 C770 0.950 . S
H751 C771 0.950 . S
H752 C773 0.950 . S
H753 C776 0.950 . S
H754 C777 0.950 . S
H755 C779 0.950 . S
H756 C780 0.950 . S
H757 C781 0.951 . S
H758 C783 0.951 . S
H759 C785 0.950 . S
H760 C786 0.950 . S
H761 C788 0.950 . S
H762 C791 0.950 . S
H763 C792 0.950 . S
H764 C794 0.950 . S
H765 C795 0.950 . S
C766 H748 0.951 . S
C766 C767 1.366 . S
C766 C768 1.388 . S
C767 C766 1.366 . S
C767 C771 1.385 . S
C768 H749 0.951 . S
C768 C766 1.388 . S
C768 C769 1.366 . S
C769 C768 1.366 . S
C769 C770 1.414 . S
C769 C772 1.499 . S
C770 H750 0.950 . S
C770 C769 1.414 . S
C770 C771 1.374 . S
C771 H751 0.950 . S
C771 C767 1.385 . S
C771 C770 1.374 . S
C772 C769 1.499 . S
C772 C773 1.373 . S
C772 C774 1.389 . S
C773 H752 0.950 . S
C773 C772 1.373 . S
C773 C789 1.377 . S
C774 C772 1.389 . S
C774 C775 1.524 . S
C774 C788 1.377 . S
C775 C774 1.524 . S
C775 C776 1.397 . S
C775 C780 1.363 . S
C776 H753 0.950 . S
C776 C775 1.397 . S
C776 C777 1.334 1_554 S
C777 H754 0.950 . S
C777 C776 1.334 1_556 S
C777 C778 1.287 . S
C778 C777 1.287 . S
C778 C779 1.524 1_556 S
C778 H797 0.913 . S
C779 H755 0.950 . S
C779 C778 1.524 1_554 S
C779 C780 1.415 . S
C780 H756 0.950 . S
C780 C775 1.363 . S
C780 C779 1.415 . S
C781 H757 0.951 . S
C781 C782 1.366 . S
C781 C783 1.388 . S
C782 C781 1.366 . S
C782 C786 1.385 . S
C783 H758 0.951 . S
C783 C781 1.388 . S
C783 C784 1.366 . S
C784 C783 1.366 . S
C784 C785 1.414 . S
C784 C787 1.499 . S
C785 H759 0.950 . S
C785 C784 1.414 . S
C785 C786 1.374 . S
C786 H760 0.950 . S
C786 C782 1.385 . S
C786 C785 1.374 . S
C787 C784 1.499 . S
C787 C788 1.373 . S
C787 C789 1.389 . S
C788 H761 0.950 . S
C788 C774 1.377 . S
C788 C787 1.373 . S
C789 C773 1.377 . S
C789 C787 1.389 . S
C789 C790 1.524 . S
C790 C789 1.524 . S
C790 C791 1.397 . S
C790 C795 1.363 . S
C791 H762 0.950 . S
C791 C790 1.397 . S
C791 C792 1.334 . S
C792 H763 0.950 . S
C792 C791 1.334 . S
C792 C793 1.287 . S
C793 C792 1.287 . S
C793 C794 1.524 . S
C793 H796 0.999 . S
C794 H764 0.950 . S
C794 C793 1.524 . S
C794 C795 1.415 . S
C795 H765 0.950 . S
C795 C790 1.363 . S
C795 C794 1.415 . S
H796 C793 0.999 . S
H797 C778 0.913 . S
H798 C816 0.951 . S
H799 C818 0.951 . S
H800 C820 0.950 . S
H801 C821 0.950 . S
H802 C823 0.950 . S
H803 C826 0.950 . S
H804 C827 0.950 . S
H805 C829 0.950 . S
H806 C830 0.950 . S
H807 C831 0.951 . S
H808 C833 0.951 . S
H809 C835 0.950 . S
H810 C836 0.950 . S
H811 C838 0.950 . S
H812 C841 0.950 . S
H813 C842 0.950 . S
H814 C844 0.950 . S
H815 C845 0.950 . S
C816 H798 0.951 . S
C816 C817 1.366 . S
C816 C818 1.388 . S
C817 C816 1.366 . S
C817 C821 1.385 . S
C818 H799 0.951 . S
C818 C816 1.388 . S
C818 C819 1.366 . S
C819 C818 1.366 . S
C819 C820 1.414 . S
C819 C822 1.499 . S
C820 H800 0.950 . S
C820 C819 1.414 . S
C820 C821 1.374 . S
C821 H801 0.950 . S
C821 C817 1.385 . S
C821 C820 1.374 . S
C822 C819 1.499 . S
C822 C823 1.373 . S
C822 C824 1.389 . S
C823 H802 0.950 . S
C823 C822 1.373 . S
C823 C839 1.377 . S
C824 C822 1.389 . S
C824 C825 1.524 . S
C824 C838 1.377 . S
C825 C824 1.524 . S
C825 C826 1.397 . S
C825 C830 1.363 . S
C826 H803 0.950 . S
C826 C825 1.397 . S
C826 C827 1.334 . S
C827 H804 0.950 . S
C827 C826 1.334 . S
C827 C828 1.287 . S
C828 C827 1.287 . S
C828 C829 1.524 . S
C828 H847 0.913 . S
C829 H805 0.950 . S
C829 C828 1.524 . S
C829 C830 1.415 . S
C830 H806 0.950 . S
C830 C825 1.363 . S
C830 C829 1.415 . S
C831 H807 0.951 . S
C831 C832 1.366 . S
C831 C833 1.388 . S
C832 C831 1.366 . S
C832 C836 1.385 . S
C833 H808 0.951 . S
C833 C831 1.388 . S
C833 C834 1.366 . S
C834 C833 1.366 . S
C834 C835 1.414 . S
C834 C837 1.499 . S
C835 H809 0.950 . S
C835 C834 1.414 . S
C835 C836 1.374 . S
C836 H810 0.950 . S
C836 C832 1.385 . S
C836 C835 1.374 . S
C837 C834 1.499 . S
C837 C838 1.373 . S
C837 C839 1.389 . S
C838 H811 0.950 . S
C838 C824 1.377 . S
C838 C837 1.373 . S
C839 C823 1.377 . S
C839 C837 1.389 . S
C839 C840 1.524 . S
C840 C839 1.524 . S
C840 C841 1.397 . S
C840 C845 1.363 . S
C841 H812 0.950 . S
C841 C840 1.397 . S
C841 C842 1.334 1_554 S
C842 H813 0.950 . S
C842 C841 1.334 1_556 S
C842 C843 1.287 1_556 S
C843 C842 1.287 1_554 S
C843 C844 1.524 . S
C843 H846 0.999 1_554 S
C844 H814 0.950 . S
C844 C843 1.524 . S
C844 C845 1.415 . S
C845 H815 0.950 . S
C845 C840 1.363 . S
C845 C844 1.415 . S
H846 C843 0.999 1_556 S
H847 C828 0.913 . S
H848 C866 0.951 . S
H849 C868 0.951 . S
H850 C870 0.950 . S
H851 C871 0.950 . S
H852 C873 0.950 . S
H853 C876 0.950 . S
H854 C877 0.950 . S
H855 C879 0.950 . S
H856 C880 0.950 . S
H857 C881 0.951 . S
H858 C883 0.951 . S
H859 C885 0.950 . S
H860 C886 0.950 . S
H861 C888 0.950 . S
H862 C891 0.950 . S
H863 C892 0.950 . S
H864 C894 0.950 . S
H865 C895 0.950 . S
C866 H848 0.951 . S
C866 C867 1.366 . S
C866 C868 1.388 . S
C867 C866 1.366 . S
C867 C871 1.385 . S
C868 H849 0.951 . S
C868 C866 1.388 . S
C868 C869 1.366 . S
C869 C868 1.366 . S
C869 C870 1.414 . S
C869 C872 1.499 . S
C870 H850 0.950 . S
C870 C869 1.414 . S
C870 C871 1.374 . S
C871 H851 0.950 . S
C871 C867 1.385 . S
C871 C870 1.374 . S
C872 C869 1.499 . S
C872 C873 1.373 . S
C872 C874 1.389 . S
C873 H852 0.950 . S
C873 C872 1.373 . S
C873 C889 1.377 . S
C874 C872 1.389 . S
C874 C875 1.524 . S
C874 C888 1.377 . S
C875 C874 1.524 . S
C875 C876 1.397 . S
C875 C880 1.363 . S
C876 H853 0.950 . S
C876 C875 1.397 . S
C876 C877 1.334 . S
C877 H854 0.950 . S
C877 C876 1.334 . S
C877 C878 1.287 . S
C878 C877 1.287 . S
C878 C879 1.524 . S
C878 H897 0.913 . S
C879 H855 0.950 . S
C879 C878 1.524 . S
C879 C880 1.415 . S
C880 H856 0.950 . S
C880 C875 1.363 . S
C880 C879 1.415 . S
C881 H857 0.951 . S
C881 C882 1.366 . S
C881 C883 1.388 . S
C882 C881 1.366 . S
C882 C886 1.385 . S
C883 H858 0.951 . S
C883 C881 1.388 . S
C883 C884 1.366 . S
C884 C883 1.366 . S
C884 C885 1.414 . S
C884 C887 1.499 . S
C885 H859 0.950 . S
C885 C884 1.414 . S
C885 C886 1.374 . S
C886 H860 0.950 . S
C886 C882 1.385 . S
C886 C885 1.374 . S
C887 C884 1.499 . S
C887 C888 1.373 . S
C887 C889 1.389 . S
C888 H861 0.950 . S
C888 C874 1.377 . S
C888 C887 1.373 . S
C889 C873 1.377 . S
C889 C887 1.389 . S
C889 C890 1.524 . S
C890 C889 1.524 . S
C890 C891 1.397 1_554 S
C890 C895 1.363 . S
C891 H862 0.950 . S
C891 C890 1.397 1_556 S
C891 C892 1.334 . S
C892 H863 0.950 . S
C892 C891 1.334 . S
C892 C893 1.287 . S
C893 C892 1.287 . S
C893 C894 1.524 . S
C893 H896 0.999 . S
C894 H864 0.950 . S
C894 C893 1.524 . S
C894 C895 1.415 1_556 S
C895 H865 0.950 . S
C895 C890 1.363 . S
C895 C894 1.415 1_554 S
H896 C893 0.999 . S
H897 C878 0.913 . S
H898 C916 0.951 . S
H899 C918 0.951 . S
H900 C920 0.950 . S
H901 C921 0.950 . S
H902 C923 0.950 1_556 S
H903 C926 0.950 . S
H904 C927 0.950 . S
H905 C929 0.950 . S
H906 C930 0.950 . S
H907 C931 0.951 . S
H908 C933 0.951 . S
H909 C935 0.950 . S
H910 C936 0.950 . S
H911 C938 0.950 . S
H912 C941 0.950 . S
H913 C942 0.950 . S
H914 C944 0.950 . S
H915 C945 0.949 1_554 S
C916 H898 0.951 . S
C916 C917 1.366 . S
C916 C918 1.388 . S
C917 C916 1.366 . S
C917 C921 1.385 . S
C918 H899 0.951 . S
C918 C916 1.388 . S
C918 C919 1.366 . S
C919 C918 1.366 . S
C919 C920 1.414 . S
C919 C922 1.499 . S
C920 H900 0.950 . S
C920 C919 1.414 . S
C920 C921 1.374 . S
C921 H901 0.950 . S
C921 C917 1.385 . S
C921 C920 1.374 . S
C922 C919 1.499 . S
C922 C923 1.373 . S
C922 C924 1.389 . S
C923 H902 0.950 1_554 S
C923 C922 1.373 . S
C923 C939 1.377 . S
C924 C922 1.389 . S
C924 C925 1.524 . S
C924 C938 1.377 . S
C925 C924 1.524 . S
C925 C926 1.397 . S
C925 C930 1.363 . S
C926 H903 0.950 . S
C926 C925 1.397 . S
C926 C927 1.334 . S
C927 H904 0.950 . S
C927 C926 1.334 . S
C927 C928 1.287 . S
C928 C927 1.287 . S
C928 C929 1.524 . S
C928 H947 0.913 . S
C929 H905 0.950 . S
C929 C928 1.524 . S
C929 C930 1.415 . S
C930 H906 0.950 . S
C930 C925 1.363 . S
C930 C929 1.415 . S
C931 H907 0.951 . S
C931 C932 1.366 . S
C931 C933 1.388 . S
C932 C931 1.366 . S
C932 C936 1.385 . S
C933 H908 0.951 . S
C933 C931 1.388 . S
C933 C934 1.366 . S
C934 C933 1.366 . S
C934 C935 1.414 . S
C934 C937 1.499 . S
C935 H909 0.950 . S
C935 C934 1.414 . S
C935 C936 1.374 . S
C936 H910 0.950 . S
C936 C932 1.385 . S
C936 C935 1.374 . S
C937 C934 1.499 . S
C937 C938 1.373 . S
C937 C939 1.389 . S
C938 H911 0.950 . S
C938 C924 1.377 . S
C938 C937 1.373 . S
C939 C923 1.377 . S
C939 C937 1.389 . S
C939 C940 1.524 1_554 S
C940 C939 1.524 1_556 S
C940 C941 1.397 . S
C940 C945 1.363 . S
C941 H912 0.950 . S
C941 C940 1.397 . S
C941 C942 1.334 . S
C942 H913 0.950 . S
C942 C941 1.334 . S
C942 C943 1.287 . S
C943 C942 1.287 . S
C943 C944 1.524 . S
C943 H946 0.999 . S
C944 H914 0.950 . S
C944 C943 1.524 . S
C944 C945 1.415 . S
C945 H915 0.949 1_556 S
C945 C940 1.363 . S
C945 C944 1.415 . S
H946 C943 0.999 . S
H947 C928 0.913 . S
C217 C18 0.839 . S
C232 C117 0.839 . S
C267 C150 0.717 . S
C282 C51 0.717 . S
C317 C183 0.820 . S
C332 C84 0.820 . S
C367 N13 1.441 . S
C382 N2 1.439 . S
C417 N46 1.442 . S
C432 N35 1.440 . S
C467 N68 1.443 . S
C482 N79 1.446 . S
C517 N112 1.441 . S
C532 N101 1.438 . S
C567 N134 1.438 . S
C582 N145 1.441 . S
C617 N178 1.443 . S
C632 N167 1.440 . S
C667 C21 0.510 . S
C682 C73 0.548 . S
C717 C54 0.468 . S
C732 C120 0.436 . S
C767 C87 0.455 . S
C782 C153 0.451 . S
C817 C106 0.617 . S
C832 C172 0.613 . S
C867 C7 0.634 . S
C882 C139 0.641 . S
C917 C40 0.562 . S
C932 C186 0.520 . S
