# Generated by pormake.
# Topology smq, (6)-cn, num edge types: 1
# Building blocks:
#     Node 0, Type 0, BuildingBlock: OJICUG_clean_sbu_0, # of connection points: 6
#     Node 1, Type 0, BuildingBlock: OJICUG_clean_sbu_0, # of connection points: 6
#     Node 2, Type 0, BuildingBlock: OJICUG_clean_sbu_0, # of connection points: 6
#     Node 3, Type 0, BuildingBlock: OJICUG_clean_sbu_0, # of connection points: 6
#     Node 4, Type 0, BuildingBlock: OJICUG_clean_sbu_0, # of connection points: 6
#     Node 5, Type 0, BuildingBlock: OJICUG_clean_sbu_0, # of connection points: 6
#     Node 6, Type 0, BuildingBlock: OJICUG_clean_sbu_0, # of connection points: 6
#     Node 7, Type 0, BuildingBlock: OJICUG_clean_sbu_0, # of connection points: 6
#     Node 8, Type 0, BuildingBlock: OJICUG_clean_sbu_0, # of connection points: 6
#     Node 9, Type 0, BuildingBlock: OJICUG_clean_sbu_0, # of connection points: 6
#     Node 10, Type 0, BuildingBlock: OJICUG_clean_sbu_0, # of connection points: 6
#     Node 11, Type 0, BuildingBlock: OJICUG_clean_sbu_0, # of connection points: 6
#     Node 12, Type 0, BuildingBlock: OJICUG_clean_sbu_0, # of connection points: 6
#     Node 13, Type 0, BuildingBlock: OJICUG_clean_sbu_0, # of connection points: 6
#     Node 14, Type 0, BuildingBlock: OJICUG_clean_sbu_0, # of connection points: 6
#     Node 15, Type 0, BuildingBlock: OJICUG_clean_sbu_0, # of connection points: 6
#     Node 16, Type 0, BuildingBlock: OJICUG_clean_sbu_0, # of connection points: 6
#     Node 17, Type 0, BuildingBlock: OJICUG_clean_sbu_0, # of connection points: 6
#     Node 18, Type 0, BuildingBlock: OJICUG_clean_sbu_0, # of connection points: 6
#     Node 19, Type 0, BuildingBlock: OJICUG_clean_sbu_0, # of connection points: 6
#     Node 20, Type 0, BuildingBlock: OJICUG_clean_sbu_0, # of connection points: 6
#     Node 21, Type 0, BuildingBlock: OJICUG_clean_sbu_0, # of connection points: 6
#     Node 22, Type 0, BuildingBlock: OJICUG_clean_sbu_0, # of connection points: 6
#     Node 23, Type 0, BuildingBlock: OJICUG_clean_sbu_0, # of connection points: 6
#     Edge 24, Type (0, 0), BuildingBlock: CIFDUS_clean_linker_0, # of connection points: 2
#     Edge 25, Type (0, 0), BuildingBlock: CIFDUS_clean_linker_0, # of connection points: 2
#     Edge 26, Type (0, 0), BuildingBlock: CIFDUS_clean_linker_0, # of connection points: 2
#     Edge 27, Type (0, 0), BuildingBlock: CIFDUS_clean_linker_0, # of connection points: 2
#     Edge 28, Type (0, 0), BuildingBlock: CIFDUS_clean_linker_0, # of connection points: 2
#     Edge 29, Type (0, 0), BuildingBlock: CIFDUS_clean_linker_0, # of connection points: 2
#     Edge 30, Type (0, 0), BuildingBlock: CIFDUS_clean_linker_0, # of connection points: 2
#     Edge 31, Type (0, 0), BuildingBlock: CIFDUS_clean_linker_0, # of connection points: 2
#     Edge 32, Type (0, 0), BuildingBlock: CIFDUS_clean_linker_0, # of connection points: 2
#     Edge 33, Type (0, 0), BuildingBlock: CIFDUS_clean_linker_0, # of connection points: 2
#     Edge 34, Type (0, 0), BuildingBlock: CIFDUS_clean_linker_0, # of connection points: 2
#     Edge 35, Type (0, 0), BuildingBlock: CIFDUS_clean_linker_0, # of connection points: 2
#     Edge 36, Type (0, 0), BuildingBlock: CIFDUS_clean_linker_0, # of connection points: 2
#     Edge 37, Type (0, 0), BuildingBlock: CIFDUS_clean_linker_0, # of connection points: 2
#     Edge 38, Type (0, 0), BuildingBlock: CIFDUS_clean_linker_0, # of connection points: 2
#     Edge 39, Type (0, 0), BuildingBlock: CIFDUS_clean_linker_0, # of connection points: 2
#     Edge 40, Type (0, 0), BuildingBlock: CIFDUS_clean_linker_0, # of connection points: 2
#     Edge 41, Type (0, 0), BuildingBlock: CIFDUS_clean_linker_0, # of connection points: 2
#     Edge 42, Type (0, 0), BuildingBlock: CIFDUS_clean_linker_0, # of connection points: 2
#     Edge 43, Type (0, 0), BuildingBlock: CIFDUS_clean_linker_0, # of connection points: 2
#     Edge 44, Type (0, 0), BuildingBlock: CIFDUS_clean_linker_0, # of connection points: 2
#     Edge 45, Type (0, 0), BuildingBlock: CIFDUS_clean_linker_0, # of connection points: 2
#     Edge 46, Type (0, 0), BuildingBlock: CIFDUS_clean_linker_0, # of connection points: 2
#     Edge 47, Type (0, 0), BuildingBlock: CIFDUS_clean_linker_0, # of connection points: 2
#     Edge 48, Type (0, 0), BuildingBlock: CIFDUS_clean_linker_0, # of connection points: 2
#     Edge 49, Type (0, 0), BuildingBlock: CIFDUS_clean_linker_0, # of connection points: 2
#     Edge 50, Type (0, 0), BuildingBlock: CIFDUS_clean_linker_0, # of connection points: 2
#     Edge 51, Type (0, 0), BuildingBlock: CIFDUS_clean_linker_0, # of connection points: 2
#     Edge 52, Type (0, 0), BuildingBlock: CIFDUS_clean_linker_0, # of connection points: 2
#     Edge 53, Type (0, 0), BuildingBlock: CIFDUS_clean_linker_0, # of connection points: 2
#     Edge 54, Type (0, 0), BuildingBlock: CIFDUS_clean_linker_0, # of connection points: 2
#     Edge 55, Type (0, 0), BuildingBlock: CIFDUS_clean_linker_0, # of connection points: 2
#     Edge 56, Type (0, 0), BuildingBlock: CIFDUS_clean_linker_0, # of connection points: 2
#     Edge 57, Type (0, 0), BuildingBlock: CIFDUS_clean_linker_0, # of connection points: 2
#     Edge 58, Type (0, 0), BuildingBlock: CIFDUS_clean_linker_0, # of connection points: 2
#     Edge 59, Type (0, 0), BuildingBlock: CIFDUS_clean_linker_0, # of connection points: 2
#     Edge 60, Type (0, 0), BuildingBlock: CIFDUS_clean_linker_0, # of connection points: 2
#     Edge 61, Type (0, 0), BuildingBlock: CIFDUS_clean_linker_0, # of connection points: 2
#     Edge 62, Type (0, 0), BuildingBlock: CIFDUS_clean_linker_0, # of connection points: 2
#     Edge 63, Type (0, 0), BuildingBlock: CIFDUS_clean_linker_0, # of connection points: 2
#     Edge 64, Type (0, 0), BuildingBlock: CIFDUS_clean_linker_0, # of connection points: 2
#     Edge 65, Type (0, 0), BuildingBlock: CIFDUS_clean_linker_0, # of connection points: 2
#     Edge 66, Type (0, 0), BuildingBlock: CIFDUS_clean_linker_0, # of connection points: 2
#     Edge 67, Type (0, 0), BuildingBlock: CIFDUS_clean_linker_0, # of connection points: 2
#     Edge 68, Type (0, 0), BuildingBlock: CIFDUS_clean_linker_0, # of connection points: 2
#     Edge 69, Type (0, 0), BuildingBlock: CIFDUS_clean_linker_0, # of connection points: 2
#     Edge 70, Type (0, 0), BuildingBlock: CIFDUS_clean_linker_0, # of connection points: 2
#     Edge 71, Type (0, 0), BuildingBlock: CIFDUS_clean_linker_0, # of connection points: 2
#     Edge 72, Type (0, 0), BuildingBlock: CIFDUS_clean_linker_0, # of connection points: 2
#     Edge 73, Type (0, 0), BuildingBlock: CIFDUS_clean_linker_0, # of connection points: 2
#     Edge 74, Type (0, 0), BuildingBlock: CIFDUS_clean_linker_0, # of connection points: 2
#     Edge 75, Type (0, 0), BuildingBlock: CIFDUS_clean_linker_0, # of connection points: 2
#     Edge 76, Type (0, 0), BuildingBlock: CIFDUS_clean_linker_0, # of connection points: 2
#     Edge 77, Type (0, 0), BuildingBlock: CIFDUS_clean_linker_0, # of connection points: 2
#     Edge 78, Type (0, 0), BuildingBlock: CIFDUS_clean_linker_0, # of connection points: 2
#     Edge 79, Type (0, 0), BuildingBlock: CIFDUS_clean_linker_0, # of connection points: 2
#     Edge 80, Type (0, 0), BuildingBlock: CIFDUS_clean_linker_0, # of connection points: 2
#     Edge 81, Type (0, 0), BuildingBlock: CIFDUS_clean_linker_0, # of connection points: 2
#     Edge 82, Type (0, 0), BuildingBlock: CIFDUS_clean_linker_0, # of connection points: 2
#     Edge 83, Type (0, 0), BuildingBlock: CIFDUS_clean_linker_0, # of connection points: 2
#     Edge 84, Type (0, 0), BuildingBlock: CIFDUS_clean_linker_0, # of connection points: 2
#     Edge 85, Type (0, 0), BuildingBlock: CIFDUS_clean_linker_0, # of connection points: 2
#     Edge 86, Type (0, 0), BuildingBlock: CIFDUS_clean_linker_0, # of connection points: 2
#     Edge 87, Type (0, 0), BuildingBlock: CIFDUS_clean_linker_0, # of connection points: 2
#     Edge 88, Type (0, 0), BuildingBlock: CIFDUS_clean_linker_0, # of connection points: 2
#     Edge 89, Type (0, 0), BuildingBlock: CIFDUS_clean_linker_0, # of connection points: 2
#     Edge 90, Type (0, 0), BuildingBlock: CIFDUS_clean_linker_0, # of connection points: 2
#     Edge 91, Type (0, 0), BuildingBlock: CIFDUS_clean_linker_0, # of connection points: 2
#     Edge 92, Type (0, 0), BuildingBlock: CIFDUS_clean_linker_0, # of connection points: 2
#     Edge 93, Type (0, 0), BuildingBlock: CIFDUS_clean_linker_0, # of connection points: 2
#     Edge 94, Type (0, 0), BuildingBlock: CIFDUS_clean_linker_0, # of connection points: 2
#     Edge 95, Type (0, 0), BuildingBlock: CIFDUS_clean_linker_0, # of connection points: 2
# Relax obj value: 0.157
# Max RMSD: 0.181
# Mean RMSD: 0.181
data_MOF--net-smq--node1-OJICUG_clean_sbu_0--edge1-CIFDUS_clean_linker_0
_symmetry_space_group_name_H-M    P1
_symmetry_Int_Tables_number       1
_symmetry_cell_setting            triclinic
loop_
_symmetry_equiv_pos_as_xyz
'x, y, z'
_cell_length_a     41.334454
_cell_length_b     41.403542
_cell_length_c     0.15543376
_cell_angle_alpha  90.020926
_cell_angle_beta   89.816452
_cell_angle_gamma 41.410124
loop_
_atom_site_label
_atom_site_type_symbol
_atom_site_fract_x
_atom_site_fract_y
_atom_site_fract_z
_atom_type_partial_charge
Sc0 Sc 0.77876 0.27969 66.57541 0.0
Sc1 Sc 0.69301 0.39888 74.55783 0.0
Sc2 Sc 0.77003 0.29745 88.53751 0.0
O3 O 0.74713 0.32575 76.55017 0.0
C4 C 0.76724 0.23134 80.06668 0.0
C5 C 0.67075 0.36153 60.39586 0.0
C6 C 0.65457 0.38975 90.83837 0.0
C7 C -0.2442 0.3655 58.48492 0.0
C8 C -0.13176 0.22551 78.00385 0.0
C9 C -0.24392 0.38204 89.35688 0.0
O10 O 0.78465 0.2296 73.09861 0.0
O11 O 0.66081 0.39519 64.29992 0.0
O12 O 0.69734 0.35331 93.75837 0.0
O13 O -0.22757 0.32445 58.45669 0.0
O14 O -0.15516 0.23659 84.88935 0.0
O15 O -0.28038 0.40969 84.28538 0.0
O16 O -0.15208 0.2422 70.68428 0.0
O17 O -0.26839 0.39516 64.80331 0.0
O18 O -0.21973 0.33855 91.129 0.0
O19 O 0.7093 0.31628 61.78505 0.0
O20 O 0.7568 0.25672 86.49589 0.0
O21 O 0.64618 0.40954 83.65606 0.0
Sc22 Sc -0.20976 0.73368 200.11926 0.0
Sc23 Sc -0.3059 0.75368 205.54858 0.0
Sc24 Sc -0.24515 0.7524 221.6298 0.0
O25 O -0.25366 0.74671 209.11353 0.0
C26 C -0.13509 0.66613 215.54081 0.0
C27 C -0.21962 0.67268 192.13797 0.0
C28 C -0.25947 0.68622 221.76047 0.0
C29 C -0.3151 0.81068 190.86708 0.0
C30 C -0.23328 0.81122 212.15436 0.0
C31 C -0.35939 0.83164 220.78967 0.0
O32 O -0.14482 0.6804 207.78694 0.0
O33 O -0.26276 0.70113 195.07434 0.0
O34 O -0.25047 0.70644 225.38959 0.0
O35 O -0.26965 0.78352 191.16926 0.0
O36 O -0.23966 0.79927 218.92186 0.0
O37 O -0.35854 0.80893 215.11156 0.0
O38 O -0.22371 0.79193 204.8242 0.0
O39 O -0.33673 0.81019 196.60464 0.0
O40 O -0.32143 0.81784 223.29793 0.0
O41 O -0.19178 0.67436 194.6743 0.0
O42 O -0.16742 0.68708 221.33739 0.0
O43 O -0.27719 0.69688 214.24028 0.0
Sc44 Sc 0.08005 1.20397 68.38241 0.0
Sc45 Sc -0.81737 1.08532 75.39302 0.0
Sc46 Sc -0.89319 1.18497 90.11869 0.0
O47 O 0.12454 1.15805 77.9931 0.0
C48 C -0.9113 1.26144 79.05326 0.0
C49 C -0.81488 1.12886 59.65102 0.0
C50 C -0.77765 1.10177 90.19214 0.0
C51 C 0.10795 1.11578 61.5308 0.0
C52 C 0.00186 1.25092 83.34588 0.0
C53 C 0.13569 1.08989 91.69425 0.0
O54 O -0.91654 1.24989 72.04468 0.0
O55 O -0.78994 1.09749 65.67303 0.0
O56 O -0.81939 1.14376 92.28861 0.0
O57 O 0.07349 1.16026 63.84306 0.0
O58 O 0.03185 1.23076 89.50416 0.0
O59 O 0.15857 1.06981 84.58118 0.0
O60 O 0.01391 1.24594 75.54242 0.0
O61 O 0.1499 1.08508 64.9992 0.0
O62 O 0.12038 1.12812 94.72418 0.0
O63 O -0.86116 1.16594 59.98271 0.0
O64 O -0.90605 1.24388 86.31345 0.0
O65 O -0.7716 1.07437 84.84669 0.0
Sc66 Sc 0.10938 0.74932 221.19643 0.0
Sc67 Sc 0.169 0.74985 204.85047 0.0
Sc68 Sc 0.07986 0.75848 199.63301 0.0
O69 O 0.11976 0.75232 208.54529 0.0
C70 C 0.10179 0.68546 213.05118 0.0
C71 C 0.22497 0.67237 220.03757 0.0
C72 C 0.18357 0.68384 190.51718 0.0
C73 C 0.11991 0.81823 221.48373 0.0
C74 C 0.00063 0.83297 214.06067 0.0
C75 C 0.08642 0.82347 191.0093 0.0
O76 O 0.115 0.69378 219.16824 0.0
O77 O 0.22502 0.6893 213.22794 0.0
O78 O 0.14358 0.69896 192.04999 0.0
O79 O 0.10413 0.80345 224.49629 0.0
O80 O 0.01327 0.82056 206.22609 0.0
O81 O 0.12028 0.80918 195.75613 0.0
O82 O 0.03042 0.80859 220.28086 0.0
O83 O 0.14501 0.80154 214.59114 0.0
O84 O 0.06955 0.80781 191.85533 0.0
O85 O 0.18624 0.69086 223.58868 0.0
O86 O 0.08541 0.7084 205.98154 0.0
O87 O 0.197 0.69892 194.607 0.0
Sc88 Sc -0.90054 1.19453 172.85117 0.0
Sc89 Sc -0.82509 1.09637 187.58008 0.0
Sc90 Sc -0.91901 1.21747 194.64769 0.0
O91 O -0.88111 1.16895 185.00193 0.0
C92 C -0.91981 1.27568 181.09726 0.0
C93 C -0.78387 1.10676 171.91245 0.0
C94 C -0.81364 1.14494 201.49798 0.0
C95 C 0.12167 1.10383 171.99085 0.0
C96 C -0.00062 1.25792 182.39449 0.0
C97 C 0.11229 1.12791 203.39552 0.0
O98 O -0.89912 1.24462 175.10127 0.0
O99 O -0.7774 1.08574 178.75978 0.0
O100 O -0.85339 1.18923 199.65406 0.0
O101 O 0.09919 1.14606 169.70919 0.0
O102 O 0.01739 1.24452 189.92743 0.0
O103 O 0.13675 1.09833 197.09664 0.0
O104 O 0.02329 1.24903 175.73979 0.0
O105 O 0.15408 1.079 177.84614 0.0
O106 O 0.09342 1.16996 203.23945 0.0
O107 O -0.82581 1.14396 168.78889 0.0
O108 O -0.93514 1.2738 187.93593 0.0
O109 O -0.79998 1.1085 197.8804 0.0
Sc110 Sc 0.07807 0.74766 62.60728 0.0
Sc111 Sc 0.15527 0.75566 57.77941 0.0
Sc112 Sc 0.10536 0.7445 41.11731 0.0
O113 O 0.11309 0.7493 53.86101 0.0
C114 C 0.12061 0.66413 49.25442 0.0
C115 C 0.18083 0.68259 71.67399 0.0
C116 C 0.2178 0.67998 42.23281 0.0
C117 C 0.06724 0.82476 71.34265 0.0
C118 C -0.00265 0.8157 48.09094 0.0
C119 C 0.09686 0.82755 41.68806 0.0
O120 O 0.10216 0.68611 56.44294 0.0
O121 O 0.19153 0.70034 67.59761 0.0
O122 O 0.1816 0.69332 38.7392 0.0
O123 O 0.05298 0.80669 70.06844 0.0
O124 O 0.02745 0.79637 41.93066 0.0
O125 O 0.12151 0.81309 48.54254 0.0
O126 O 0.01033 0.80168 55.82055 0.0
O127 O 0.10305 0.81067 67.3356 0.0
O128 O 0.08904 0.80597 38.30688 0.0
O129 O 0.14191 0.6957 70.41956 0.0
O130 O 0.12278 0.68126 42.8276 0.0
O131 O 0.21435 0.69957 49.01634 0.0
Sc132 Sc 0.75982 0.30637 176.10772 0.0
Sc133 Sc -0.3204 0.41572 188.46481 0.0
Sc134 Sc -0.21902 0.30381 197.7429 0.0
O135 O -0.26086 0.34184 187.39109 0.0
C136 C 0.77361 0.23976 189.90386 0.0
C137 C 0.64414 0.39131 174.95381 0.0
C138 C 0.6737 0.38543 205.76593 0.0
C139 C -0.2659 0.39822 171.49114 0.0
C140 C -0.13669 0.24415 183.22375 0.0
C141 C -0.24552 0.3942 201.25909 0.0
O142 O 0.76875 0.25272 182.12809 0.0
O143 O 0.63766 0.42112 179.55893 0.0
O144 O 0.72013 0.34894 206.11304 0.0
O145 O -0.24946 0.35787 169.61795 0.0
O146 O -0.15139 0.25584 190.94447 0.0
O147 O -0.28802 0.42262 198.11958 0.0
O148 O -0.16476 0.25929 176.95505 0.0
O149 O -0.29128 0.42338 178.21475 0.0
O150 O -0.21136 0.34881 199.70721 0.0
O151 O 0.68595 0.34779 173.58787 0.0
O152 O 0.77821 0.25589 196.17884 0.0
O153 O 0.65101 0.41077 198.97966 0.0
Sc154 Sc -0.24031 0.74184 41.06879 0.0
Sc155 Sc -0.31863 0.76477 56.3108 0.0
Sc156 Sc -0.23527 0.76147 62.44156 0.0
O157 O -0.26483 0.75593 53.25408 0.0
C158 C -0.14326 0.66763 52.16737 0.0
C159 C -0.25653 0.67925 42.34567 0.0
C160 C -0.25251 0.70707 72.36191 0.0
C161 C -0.35641 0.82414 39.07729 0.0
C162 C -0.24166 0.81535 46.81711 0.0
C163 C -0.34136 0.8421 68.74508 0.0
O164 O -0.16372 0.68602 44.86327 0.0
O165 O -0.29333 0.7093 47.34836 0.0
O166 O -0.24044 0.72768 71.96672 0.0
O167 O -0.3133 0.79448 36.0274 0.0
O168 O -0.22695 0.79724 54.32185 0.0
O169 O -0.34886 0.81913 66.02028 0.0
O170 O -0.25113 0.80124 41.20084 0.0
O171 O -0.36545 0.82093 46.6799 0.0
O172 O -0.30533 0.83209 66.23074 0.0
O173 O -0.23059 0.68373 40.04893 0.0
O174 O -0.16496 0.69025 59.20746 0.0
O175 O -0.27545 0.71012 66.31222 0.0
Sc176 Sc -0.93823 1.50139 50.31288 0.0
Sc177 Sc -0.87393 1.49074 67.14851 0.0
Sc178 Sc -0.85042 1.49395 45.37394 0.0
O179 O -0.88742 1.49538 54.31577 0.0
C180 C -0.85719 1.4323 35.65741 0.0
C181 C -0.88393 1.42172 64.80561 0.0
C182 C -0.7667 1.41411 58.85096 0.0
C183 C 0.14197 0.05729 67.38007 0.0
C184 C 0.17045 0.06829 38.42796 0.0
C185 C 0.26115 0.05088 60.16728 0.0
O186 O -0.89647 1.45387 39.47426 0.0
O187 O -0.87325 1.43827 69.38238 0.0
O188 O -0.78157 1.43442 51.5222 0.0
O189 O 0.14254 0.04068 60.47342 0.0
O190 O 0.2146 0.04496 38.27775 0.0
O191 O 0.25744 0.03327 66.27632 0.0
O192 O 0.15637 0.05461 42.7826 0.0
O193 O 0.17976 0.04218 70.56086 0.0
O194 O 0.26845 0.03722 52.39204 0.0
O195 O -0.90518 1.4393 57.58936 0.0
O196 O -0.83372 1.44029 37.40144 0.0
O197 O -0.79558 1.42975 65.11363 0.0
Sc198 Sc -0.41941 1.21134 188.3889 0.0
Sc199 Sc -0.37793 1.16459 209.46501 0.0
Sc200 Sc -0.30591 1.09159 191.78233 0.0
O201 O -0.36842 1.15601 196.51163 0.0
C202 C -0.38473 1.11964 179.50132 0.0
C203 C -0.48691 1.23329 202.89624 0.0
C204 C -0.33033 1.06193 207.55811 0.0
C205 C -0.40866 1.25711 202.98658 0.0
C206 C -0.32478 1.16305 178.57083 0.0
C207 C -0.26329 1.09259 207.6164 0.0
O208 O -0.41404 1.16541 180.18291 0.0
O209 O -0.45669 1.21609 208.92561 0.0
O210 O -0.3037 1.05293 201.476 0.0
O211 O -0.42711 1.26016 196.03223 0.0
O212 O -0.29917 1.12139 181.73571 0.0
O213 O -0.30009 1.1123 212.20579 0.0
O214 O -0.36922 1.20067 180.54401 0.0
O215 O -0.38728 1.22328 208.52941 0.0
O216 O -0.26459 1.09314 199.48879 0.0
O217 O -0.47624 1.22948 195.05042 0.0
O218 O -0.34463 1.08781 183.60028 0.0
O219 O -0.36689 1.10478 210.59634 0.0
Sc220 Sc -0.39542 1.49659 49.38112 0.0
Sc221 Sc -0.38335 1.49499 71.95879 0.0
Sc222 Sc -0.31841 1.49812 58.04838 0.0
O223 O -0.3657 1.49641 59.8079 0.0
C224 C -0.28442 1.42447 43.36599 0.0
C225 C -0.38012 1.42518 61.64962 0.0
C226 C -0.27003 1.42319 73.67976 0.0
C227 C 0.64438 0.0598 62.45524 0.0
C228 C 0.7336 0.06206 43.50088 0.0
C229 C 0.75265 0.05833 74.1673 0.0
O230 O -0.32592 1.44185 42.68284 0.0
O231 O -0.38166 1.4432 68.49578 0.0
O232 O -0.26995 1.44447 67.8158 0.0
O233 O 0.66317 0.04105 55.04865 0.0
O234 O 0.76936 0.04338 48.19869 0.0
O235 O 0.74285 0.03782 77.17837 0.0
O236 O 0.71637 0.04649 43.37587 0.0
O237 O 0.66996 0.04552 69.17398 0.0
O238 O 0.77447 0.0465 67.06528 0.0
O239 O -0.38156 1.43863 54.18968 0.0
O240 O -0.27591 1.4404 48.7536 0.0
O241 O -0.30734 1.43432 75.67688 0.0
Sc242 Sc 0.16807 0.41003 191.54536 0.0
Sc243 Sc 0.24227 0.33414 208.85577 0.0
Sc244 Sc 0.27752 0.28787 187.5382 0.0
O245 O 0.22979 0.34384 195.96338 0.0
C246 C 0.17819 0.34285 178.66568 0.0
C247 C 0.12661 0.40957 208.04163 0.0
C248 C 0.26742 0.2439 202.74487 0.0
C249 C 0.19795 0.43589 206.92231 0.0
C250 C 0.24778 0.3762 178.39718 0.0
C251 C 0.35033 0.26279 201.19882 0.0
O252 O 0.15557 0.38353 181.93117 0.0
O253 O 0.16541 0.38622 212.26141 0.0
O254 O 0.28261 0.24157 195.36707 0.0
O255 O 0.17081 0.4463 200.84564 0.0
O256 O 0.275 0.33101 179.11389 0.0
O257 O 0.32043 0.28295 207.46821 0.0
O258 O 0.20849 0.40951 182.71208 0.0
O259 O 0.23298 0.3929 209.94592 0.0
O260 O 0.33879 0.26426 193.55533 0.0
O261 O 0.12443 0.41376 199.93558 0.0
O262 O 0.22271 0.30364 180.24911 0.0
O263 O 0.25029 0.27611 208.4014 0.0
Sc264 Sc 0.26704 -0.00387 216.0269 0.0
Sc265 Sc -0.87994 1.50328 193.75374 0.0
Sc266 Sc -0.94223 1.50334 209.24186 0.0
O267 O -0.89525 1.50416 206.2806 0.0
C268 C -0.85756 1.42779 222.49919 0.0
C269 C -0.77533 1.42838 202.85319 0.0
C270 C -0.89364 1.438 192.18729 0.0
C271 C 0.25036 0.06453 202.36219 0.0
C272 C 0.16156 0.06578 223.77157 0.0
C273 C 0.13458 0.07115 194.1405 0.0
O274 O -0.8491 1.4515 223.31374 0.0
O275 O -0.80225 1.4454 196.22682 0.0
O276 O -0.9197 1.45622 198.92136 0.0
O277 O 0.25781 0.04877 209.9275 0.0
O278 O 0.15638 0.04277 219.98692 0.0
O279 O 0.17355 0.0518 190.41902 0.0
O280 O 0.19845 0.05621 222.54064 0.0
O281 O 0.2462 0.04888 195.92341 0.0
O282 O 0.13382 0.05608 201.19045 0.0
O283 O -0.79241 1.4463 210.35799 0.0
O284 O -0.88882 1.44005 217.24263 0.0
O285 O -0.87269 1.44797 189.65327 0.0
Sc286 Sc -0.29987 1.09074 71.77342 0.0
Sc287 Sc -0.36964 1.15508 53.44612 0.0
Sc288 Sc -0.41619 1.21011 74.07828 0.0
O289 O -0.3626 1.15202 66.46372 0.0
C290 C -0.38057 1.12077 84.11396 0.0
C291 C -0.31536 1.05028 56.54765 0.0
C292 C -0.47938 1.22354 59.76861 0.0
C293 C -0.25591 1.08603 55.40012 0.0
C294 C -0.32464 1.16869 84.01496 0.0
C295 C -0.4041 1.25155 58.69669 0.0
O296 O -0.33886 1.08834 80.41066 0.0
O297 O -0.35308 1.09117 53.06089 0.0
O298 O -0.471 1.22461 67.51827 0.0
O299 O -0.25857 1.09097 63.49866 0.0
O300 O -0.36922 1.20436 81.94764 0.0
O301 O -0.38204 1.21617 53.44066 0.0
O302 O -0.29682 1.12595 81.13108 0.0
O303 O -0.29234 1.10443 50.94954 0.0
O304 O -0.42334 1.25651 65.75212 0.0
O305 O -0.29317 1.04683 62.80247 0.0
O306 O -0.41131 1.16637 82.83014 0.0
O307 O -0.44781 1.20367 53.80659 0.0
Sc308 Sc -0.31601 1.48486 210.63965 0.0
Sc309 Sc -0.38472 1.5029 193.67103 0.0
Sc310 Sc 0.71781 -0.00348 215.51689 0.0
O311 O -0.37133 1.4979 206.56188 0.0
C312 C -0.30708 1.41934 223.63376 0.0
C313 C -0.26779 1.41625 194.22447 0.0
C314 C -0.39697 1.44033 201.06261 0.0
C315 C 0.76879 0.05165 195.371 0.0
C316 C 0.73008 0.05652 223.94162 0.0
C317 C 0.63753 0.07534 201.63681 0.0
O318 O -0.28997 1.43074 219.65388 0.0
O319 O -0.30758 1.44129 190.20177 0.0
O320 O -0.40731 1.4576 208.61361 0.0
O321 O 0.79504 0.02759 201.96808 0.0
O322 O 0.70757 0.04677 223.11711 0.0
O323 O 0.66728 0.05556 195.34168 0.0
O324 O 0.76972 0.03316 220.00646 0.0
O325 O 0.74702 0.04496 191.48258 0.0
O326 O 0.65119 0.05846 209.21098 0.0
O327 O -0.26583 1.42678 201.70448 0.0
O328 O -0.35133 1.44363 223.00407 0.0
O329 O -0.38743 1.45243 194.84639 0.0
Sc330 Sc 0.27555 0.28966 74.80023 0.0
Sc331 Sc 0.24794 0.32383 52.60666 0.0
Sc332 Sc 0.18688 0.41209 69.01667 0.0
O333 O 0.23681 0.34165 65.43086 0.0
C334 C 0.17158 0.37112 83.84019 0.0
C335 C 0.25609 0.24758 61.30708 0.0
C336 C 0.13164 0.41644 54.05412 0.0
C337 C 0.35633 0.24414 60.37263 0.0
C338 C 0.27397 0.36388 81.53351 0.0
C339 C 0.22893 0.41325 51.9163 0.0
O340 O 0.21223 0.32635 82.74162 0.0
O341 O 0.24932 0.27145 54.94402 0.0
O342 O 0.13316 0.43073 61.10132 0.0
O343 O 0.34248 0.24785 67.98121 0.0
O344 O 0.23712 0.39911 77.06519 0.0
O345 O 0.24707 0.37453 48.48933 0.0
O346 O 0.29087 0.32257 81.79116 0.0
O347 O 0.32689 0.26843 54.05553 0.0
O348 O 0.20705 0.42949 59.1035 0.0
O349 O 0.26563 0.25061 68.83385 0.0
O350 O 0.15927 0.40484 79.48699 0.0
O351 O 0.1697 0.37902 49.89607 0.0
Sc352 Sc -0.13818 0.34264 263.44018 0.0
Sc353 Sc -0.08477 0.38109 -0.94549 0.0
Sc354 Sc -0.21143 0.46176 -1.44204 0.0
O355 O -0.14958 0.39882 264.58805 0.0
C356 C -0.21957 0.41611 249.91188 0.0
C357 C -0.04793 0.30332 252.54898 0.0
C358 C -0.16741 0.48 253.19023 0.0
C359 C -0.05436 0.29848 11.00619 0.0
C360 C -0.21945 0.40651 10.04005 0.0
C361 C -0.1585 0.46746 12.25875 0.0
O362 O -0.17805 0.37318 251.70802 0.0
O363 O -0.05526 0.33825 254.44546 0.0
O364 O -0.20405 0.48947 254.82145 0.0
O365 O -0.08844 0.30515 8.59678 0.0
O366 O -0.22792 0.4427 9.11062 0.0
O367 O -0.11509 0.42729 10.16491 0.0
O368 O -0.19416 0.37164 4.62227 0.0
O369 O -0.04621 0.31988 7.58311 0.0
O370 O -0.19582 0.48574 8.16484 0.0
O371 O -0.07259 0.29902 255.9041 0.0
O372 O -0.2437 0.45193 255.10574 0.0
O373 O -0.12635 0.44661 256.9811 0.0
Sc374 Sc -0.67077 1.0476 263.99517 0.0
Sc375 Sc -0.64597 1.11154 262.0398 0.0
Sc376 Sc -0.76502 1.17284 262.24994 0.0
O377 O -0.69323 1.11032 262.96889 0.0
C378 C -0.75559 1.10567 251.12755 0.0
C379 C -0.59312 1.01909 250.82404 0.0
C380 C -0.72783 1.18874 247.79668 0.0
C381 C -0.59145 1.02419 9.98559 0.0
C382 C -0.75238 1.11592 10.83092 0.0
C383 C -0.71989 1.20156 5.95531 0.0
O384 O -0.71109 1.06621 252.58609 0.0
O385 O -0.60609 1.05799 251.94531 0.0
O386 O -0.75541 1.18581 249.77278 0.0
O387 O -0.61933 1.02113 8.50233 0.0
O388 O -0.76622 1.15384 8.22343 0.0
O389 O -0.67493 1.16026 5.67913 0.0
O390 O -0.72182 1.07526 6.7586 0.0
O391 O -0.59102 1.04955 5.40751 0.0
O392 O -0.75203 1.21069 1.61565 0.0
O393 O -0.60966 1.00826 255.3407 0.0
O394 O -0.78153 1.13895 256.7671 0.0
O395 O -0.69053 1.16893 252.26199 0.0
Sc396 Sc 0.02667 0.9841 131.66006 0.0
Sc397 Sc -0.09157 1.10725 131.59609 0.0
Sc398 Sc -0.07664 1.01167 130.51577 0.0
O399 O -0.04726 1.03454 131.24474 0.0
C400 C 0.01285 0.93903 117.58228 0.0
C401 C -0.00443 1.06401 119.15956 0.0
C402 C -0.14666 1.10423 118.14803 0.0
C403 C -0.00785 1.06494 144.68657 0.0
C404 C 0.00896 0.93814 144.14683 0.0
C405 C -0.14634 1.09904 143.95819 0.0
O406 O 0.03877 0.94014 121.57939 0.0
O407 O -0.04756 1.09898 122.19349 0.0
O408 O -0.12848 1.06452 120.94745 0.0
O409 O 0.02421 1.02221 141.50214 0.0
O410 O -0.02877 0.95658 140.18777 0.0
O411 O -0.13929 1.12224 141.19043 0.0
O412 O 0.03304 0.94482 141.8398 0.0
O413 O -0.05144 1.09895 141.92019 0.0
O414 O -0.12602 1.05889 140.82424 0.0
O415 O 0.02619 1.02035 121.81451 0.0
O416 O -0.02989 0.96317 120.0167 0.0
O417 O -0.13665 1.12436 121.18611 0.0
Sc418 Sc 0.50736 0.45018 -0.72304 0.0
Sc419 Sc 0.49643 0.37314 -0.66801 0.0
Sc420 Sc 0.61253 0.32291 -1.19297 0.0
O421 O 0.53864 0.38212 -0.86943 0.0
C422 C 0.58775 0.39996 252.45699 0.0
C423 C 0.43111 0.46782 252.83035 0.0
C424 C 0.57407 0.29418 252.74281 0.0
C425 C 0.43819 0.46318 12.18952 0.0
C426 C 0.59665 0.3921 12.07473 0.0
C427 C 0.58336 0.28799 11.77595 0.0
O428 O 0.54643 0.43885 255.54216 0.0
O429 O 0.44141 0.43243 255.86871 0.0
O430 O 0.60366 0.29332 255.40588 0.0
O431 O 0.45619 0.4756 9.16998 0.0
O432 O 0.62172 0.35106 8.62508 0.0
O433 O 0.53957 0.31792 9.16759 0.0
O434 O 0.55425 0.43183 9.51817 0.0
O435 O 0.44917 0.42715 9.30069 0.0
O436 O 0.61318 0.28611 8.64558 0.0
O437 O 0.44933 0.48031 255.68181 0.0
O438 O 0.61299 0.35776 255.30639 0.0
O439 O 0.53115 0.32294 255.80265 0.0
Sc440 Sc -0.1765 0.52189 130.07921 0.0
Sc441 Sc -0.05245 0.40366 130.81933 0.0
Sc442 Sc -0.08313 0.50915 132.21028 0.0
O443 O -0.10394 0.47801 131.01709 0.0
C444 C -0.16812 0.57832 118.28972 0.0
C445 C -0.12835 0.43646 116.72646 0.0
C446 C -0.00103 0.42019 119.54405 0.0
C447 C -0.13864 0.43618 141.96036 0.0
C448 C -0.17554 0.57503 144.70808 0.0
C449 C -0.01128 0.41966 145.22447 0.0
O450 O -0.18911 0.56791 120.47058 0.0
O451 O -0.08574 0.40533 119.96286 0.0
O452 O -0.02732 0.46242 122.62408 0.0
O453 O -0.17169 0.47982 139.23545 0.0
O454 O -0.13553 0.55736 142.16096 0.0
O455 O -0.01369 0.39367 141.79646 0.0
O456 O -0.19664 0.56785 140.77215 0.0
O457 O -0.09416 0.40463 139.51992 0.0
O458 O -0.03365 0.46097 142.37328 0.0
O459 O -0.16406 0.47951 119.68686 0.0
O460 O -0.13066 0.56114 122.12823 0.0
O461 O -0.00499 0.39388 121.94795 0.0
Sc462 Sc -0.00607 1.16502 -1.36036 0.0
Sc463 Sc -0.04061 1.10911 -0.14033 0.0
Sc464 Sc 0.08449 1.0373 -1.00649 0.0
O465 O 0.01252 1.10374 -0.83423 0.0
C466 C 0.0762 1.10046 251.84565 0.0
C467 C -0.08989 1.19518 252.3573 0.0
C468 C 0.02973 1.02298 253.67555 0.0
C469 C -0.08809 1.19923 11.50716 0.0
C470 C 0.08115 1.10014 11.90892 0.0
C471 C 0.03994 1.02249 12.93585 0.0
O472 O 0.04022 1.14142 255.42306 0.0
O473 O -0.09049 1.16818 256.05105 0.0
O474 O 0.06599 1.01273 256.09749 0.0
O475 O -0.0635 1.20343 8.06058 0.0
O476 O 0.10254 1.05955 8.69646 0.0
O477 O -0.00368 1.05619 10.10748 0.0
O478 O 0.04174 1.1412 8.93777 0.0
O479 O -0.08274 1.1658 9.43683 0.0
O480 O 0.07511 1.01172 9.55348 0.0
O481 O -0.06311 1.19852 254.73283 0.0
O482 O 0.09344 1.06094 254.50118 0.0
O483 O -0.01308 1.05848 256.74718 0.0
Sc484 Sc 0.30824 0.49746 129.69741 0.0
Sc485 Sc 0.43585 0.39412 132.07383 0.0
Sc486 Sc 0.37948 0.51356 132.17293 0.0
O487 O 0.37482 0.46812 131.30867 0.0
C488 C 0.30097 0.56335 117.26326 0.0
C489 C 0.37488 0.40327 117.66987 0.0
C490 C 0.47112 0.42713 120.37728 0.0
C491 C 0.3582 0.41298 143.2632 0.0
C492 C 0.28549 0.56884 143.62371 0.0
C493 C 0.45979 0.43133 145.77617 0.0
O494 O 0.28934 0.54369 119.52835 0.0
O495 O 0.41503 0.37881 121.46465 0.0
O496 O 0.43816 0.47117 122.99895 0.0
O497 O 0.32161 0.45295 139.55663 0.0
O498 O 0.32248 0.55841 141.76634 0.0
O499 O 0.46522 0.399 142.72305 0.0
O500 O 0.27414 0.55211 139.45013 0.0
O501 O 0.40229 0.38668 141.27179 0.0
O502 O 0.43018 0.47389 142.63502 0.0
O503 O 0.33454 0.44602 119.93249 0.0
O504 O 0.33066 0.55849 121.49284 0.0
O505 O 0.47509 0.39516 123.06628 0.0
Sc506 Sc -0.42846 0.98344 130.77804 0.0
Sc507 Sc -0.55605 1.09033 131.32273 0.0
Sc508 Sc -0.50513 0.97358 131.569 0.0
O509 O -0.49689 1.0161 131.25713 0.0
C510 C -0.42245 0.92213 117.33469 0.0
C511 C -0.48527 1.07479 118.55646 0.0
C512 C -0.58974 1.05857 118.80507 0.0
C513 C -0.48137 1.06878 144.23957 0.0
C514 C -0.4136 0.91382 143.65705 0.0
C515 C -0.59019 1.0602 144.26144 0.0
O516 O -0.41041 0.94106 119.89571 0.0
O517 O -0.52829 1.09998 121.05141 0.0
O518 O -0.55922 1.01526 121.66332 0.0
O519 O -0.44375 1.0259 141.41347 0.0
O520 O -0.45317 0.92915 141.80117 0.0
O521 O -0.59225 1.09056 141.43219 0.0
O522 O -0.39839 0.92716 139.68243 0.0
O523 O -0.52392 1.09717 141.03896 0.0
O524 O -0.5605 1.01707 141.33395 0.0
O525 O -0.4475 1.03413 121.84895 0.0
O526 O -0.452 0.92615 121.44142 0.0
O527 O -0.5933 1.08993 121.70185 0.0
H528 H -0.23114 0.32902 42.90867 0.0
H529 H -0.25521 0.43916 55.25257 0.0
H530 H -0.25504 0.46551 41.08479 0.0
H531 H -0.24438 0.45411 25.25378 0.0
H532 H -0.22159 0.3437 13.42095 0.0
H533 H -0.22549 0.32093 27.45575 0.0
C534 C -0.23591 0.35857 42.58315 0.0
C535 C -0.24205 0.38137 50.1732 0.0
C536 C -0.23679 0.37391 34.50699 0.0
C537 C -0.24966 0.42052 49.52604 0.0
C538 C -0.24986 0.43572 41.43097 0.0
C539 C -0.24153 0.42591 25.72412 0.0
C540 C -0.23258 0.40055 18.2691 0.0
C541 C -0.24328 0.41248 33.87503 0.0
C542 C -0.22846 0.36378 19.02257 0.0
C543 C -0.23051 0.35059 27.05752 0.0
H544 H -0.27599 0.79842 175.50672 0.0
H545 H -0.4139 0.88176 188.11628 0.0
H546 H -0.45601 0.91719 174.33071 0.0
H547 H -0.45343 0.92424 158.69945 0.0
H548 H -0.31563 0.84216 146.28132 0.0
H549 H -0.27329 0.80517 160.01769 0.0
C550 C -0.31538 0.82489 175.29118 0.0
C551 C -0.34178 0.83768 182.85061 0.0
C552 C -0.33913 0.84433 167.35718 0.0
C553 C -0.39272 0.87149 182.399 0.0
C554 C -0.41677 0.89144 174.51418 0.0
C555 C -0.41399 0.89742 158.99355 0.0
C556 C -0.38743 0.88528 151.52063 0.0
C557 C -0.39024 0.87768 166.94439 0.0
C558 C -0.33658 0.85155 151.97526 0.0
C559 C -0.31251 0.83082 159.82002 0.0
H560 H 0.1157 1.03994 25.46785 0.0
H561 H 0.07844 1.16433 17.30161 0.0
H562 H 0.0819 1.1806 32.15945 0.0
H563 H 0.08794 1.16426 47.45827 0.0
H564 H 0.12745 1.03929 56.00874 0.0
H565 H 0.12961 1.0188 40.97444 0.0
C566 C 0.1099 1.06963 26.93071 0.0
C567 C 0.09694 1.1009 20.31537 0.0
C568 C 0.11053 1.07964 35.54049 0.0
C569 C 0.08861 1.13978 22.29478 0.0
C570 C 0.09004 1.14939 30.7853 0.0
C571 C 0.09629 1.13293 46.02591 0.0
C572 C 0.10552 1.10436 52.77162 0.0
C573 C 0.09919 1.12066 37.45719 0.0
C574 C 0.1187 1.06253 50.87743 0.0
C575 C 0.12046 1.05063 42.30682 0.0
H576 H 0.15109 0.67512 176.60018 0.0
H577 H 0.27874 0.62729 186.77221 0.0
H578 H 0.32033 0.59023 172.91879 0.0
H579 H 0.31934 0.574 157.80838 0.0
H580 H 0.19184 0.62158 147.65391 0.0
H581 H 0.15081 0.6572 161.59912 0.0
C582 C 0.18837 0.65575 175.85351 0.0
C583 C 0.21184 0.65378 182.73501 0.0
C584 C 0.2116 0.63561 167.81948 0.0
C585 C 0.25989 0.6292 181.59059 0.0
C586 C 0.28355 0.60837 173.65182 0.0
C587 C 0.28226 0.59287 158.60398 0.0
C588 C 0.25838 0.59579 151.67353 0.0
C589 C 0.25939 0.6122 166.68119 0.0
C590 C 0.21081 0.61927 152.87153 0.0
C591 C 0.1875 0.63929 160.85545 0.0
H592 H -0.8606 1.20019 215.64896 0.0
H593 H -0.71776 1.06638 206.15437 0.0
H594 H -0.68714 1.04097 220.93957 0.0
H595 H -0.70326 1.05459 236.51626 0.0
H596 H -0.84868 1.18623 245.72974 0.0
H597 H -0.87644 1.21408 231.00494 0.0
C598 C -0.82232 1.16615 216.78107 0.0
C599 C -0.79117 1.13553 209.83577 0.0
C600 C -0.80601 1.15064 225.2342 0.0
C601 C -0.74211 1.09083 211.42136 0.0
C602 C -0.7249 1.07602 219.85818 0.0
C603 C -0.74123 1.08901 235.30672 0.0
C604 C -0.77391 1.1181 242.22737 0.0
C605 C -0.75701 1.10501 226.8131 0.0
C606 C -0.8228 1.16293 240.53222 0.0
C607 C -0.83862 1.17919 232.1191 0.0
H608 H 0.11659 0.82493 82.56537 0.0
H609 H -0.02659 0.89335 77.31735 0.0
H610 H -0.05587 0.93414 91.35819 0.0
H611 H -0.03926 0.94636 105.36018 0.0
H612 H 0.10519 0.87498 110.82604 0.0
H613 H 0.13279 0.83839 96.48608 0.0
C614 C 0.07865 0.84976 84.4158 0.0
C615 C 0.04693 0.85677 78.90164 0.0
C616 C 0.06274 0.87138 92.60518 0.0
C617 C -0.00175 0.88789 81.45215 0.0
C618 C -0.0183 0.91076 89.49531 0.0
C619 C -0.00157 0.9224 103.46963 0.0
C620 C 0.03094 0.91309 109.21728 0.0
C621 C 0.01397 0.90184 95.19511 0.0
C622 C 0.07944 0.88253 106.57174 0.0
C623 C 0.09519 0.86185 98.34801 0.0
H624 H 0.71078 0.36023 221.7029 0.0
H625 H 0.57603 0.44365 208.11808 0.0
H626 H 0.53502 0.46159 221.80653 0.0
H627 H 0.54043 0.44645 237.48525 0.0
H628 H 0.67791 0.3576 250.43043 0.0
H629 H 0.71505 0.34941 237.09481 0.0
C630 C 0.67242 0.38222 221.67962 0.0
C631 C 0.64674 0.39958 213.87617 0.0
C632 C 0.64967 0.39162 229.46972 0.0
C633 C 0.59672 0.42934 214.03274 0.0
C634 C 0.57335 0.43956 221.84829 0.0
C635 C 0.57817 0.42628 237.37218 0.0
C636 C 0.60662 0.40277 244.86133 0.0
C637 C 0.59979 0.42003 229.58714 0.0
C638 C 0.65562 0.37596 244.7016 0.0
C639 C 0.67681 0.37108 237.09217 0.0
H640 H -0.20714 0.6971 86.43549 0.0
H641 H -0.27262 0.65876 76.58044 0.0
H642 H -0.25528 0.61834 90.19117 0.0
H643 H -0.21983 0.59255 104.79788 0.0
H644 H -0.15333 0.63043 114.22869 0.0
H645 H -0.17358 0.67311 100.8564 0.0
C646 C -0.21769 0.6799 87.20054 0.0
C647 C -0.24101 0.68086 80.43271 0.0
C648 C -0.20779 0.65699 95.00511 0.0
C649 C -0.25441 0.65841 81.63922 0.0
C650 C -0.24466 0.63545 89.43779 0.0
C651 C -0.21041 0.61075 103.96977 0.0
C652 C -0.18523 0.60843 110.52929 0.0
C653 C -0.22132 0.6345 96.16705 0.0
C654 C -0.17265 0.63159 109.29651 0.0
C655 C -0.18408 0.65589 101.63959 0.0
H656 H 0.09804 0.05262 79.32127 0.0
H657 H 0.07716 0.15196 63.32668 0.0
H658 H -0.01127 0.21535 65.66727 0.0
H659 H -0.08277 0.23768 70.48219 0.0
H660 H -0.0629 0.13957 86.71471 0.0
H661 H 0.02612 0.08029 86.12124 0.0
C662 C 0.0741 0.08891 76.68234 0.0
C663 C 0.09368 0.09825 71.29519 0.0
C664 C 0.02322 0.1247 77.90603 0.0
C665 C 0.06263 0.14467 67.65881 0.0
C666 C 0.01211 0.18056 68.88716 0.0
C667 C -0.05882 0.20349 73.95952 0.0
C668 C -0.07885 0.19227 78.48145 0.0
C669 C -0.00804 0.17022 73.69402 0.0
C670 C -0.04794 0.14854 83.13172 0.0
C671 C 0.00283 0.11476 82.78912 0.0
H672 H -0.24385 0.96723 205.56845 0.0
H673 H -0.3865 1.06156 217.132 0.0
H674 H -0.3657 0.98993 220.76678 0.0
H675 H -0.31016 0.90128 218.98814 0.0
H676 H -0.17173 0.81054 206.01666 0.0
H677 H -0.18752 0.88019 204.61693 0.0
C678 C -0.27057 0.97241 208.9118 0.0
C679 C -0.3171 1.01977 210.9121 0.0
C680 C -0.25899 0.93162 210.69628 0.0
C681 C -0.3506 1.0255 215.45667 0.0
C682 C -0.33876 0.9846 217.49625 0.0
C683 C -0.28319 0.89686 216.03241 0.0
C684 C -0.23982 0.85121 212.61719 0.0
C685 C -0.29356 0.9376 214.91753 0.0
C686 C -0.20528 0.84555 208.66832 0.0
C687 C -0.21438 0.88528 207.85043 0.0
H688 H -0.04829 1.2359 78.45903 0.0
H689 H -0.06293 1.33738 91.87744 0.0
H690 H -0.15229 1.39955 91.44127 0.0
H691 H -0.22469 1.42867 84.78452 0.0
H692 H -0.20991 1.32707 71.38498 0.0
H693 H -0.12206 1.26053 74.4238 0.0
C694 C -0.07128 1.27118 81.51943 0.0
C695 C -0.04974 1.28262 85.14252 0.0
C696 C -0.12234 1.30653 81.1866 0.0
C697 C -0.0792 1.32812 89.09786 0.0
C698 C -0.13013 1.36364 88.7854 0.0
C699 C -0.20236 1.39149 82.85877 0.0
C700 C -0.22316 1.38228 77.91971 0.0
C701 C -0.15198 1.35386 84.51492 0.0
C702 C -0.19437 1.33446 75.30314 0.0
C703 C -0.14418 1.29668 76.94966 0.0
H704 H 0.18277 0.59298 218.49762 0.0
H705 H 0.03692 0.68777 208.7825 0.0
H706 H 0.0527 0.61824 207.1493 0.0
H707 H 0.11046 0.53062 206.72155 0.0
H708 H 0.25896 0.43314 215.2301 0.0
H709 H 0.23967 0.50361 219.2315 0.0
C710 C 0.15424 0.59829 216.23441 0.0
C711 C 0.10874 0.64516 213.75991 0.0
C712 C 0.16434 0.55773 214.96831 0.0
C713 C 0.07213 0.65189 210.7055 0.0
C714 C 0.08123 0.61219 209.73684 0.0
C715 C 0.13873 0.52461 209.48226 0.0
C716 C 0.18639 0.47679 210.49227 0.0
C717 C 0.12768 0.56491 211.54384 0.0
C718 C 0.22211 0.46965 214.31775 0.0
C719 C 0.2111 0.50992 216.56879 0.0
H720 H -0.96848 1.45549 188.64828 0.0
H721 H -0.81344 1.34977 184.41377 0.0
H722 H -0.80938 1.29102 178.90685 0.0
H723 H -0.84847 1.26616 177.76615 0.0
H724 H -1.0023 1.37165 183.45942 0.0
H725 H -1.00882 1.43466 185.80986 0.0
C726 C -0.93392 1.41982 186.3655 0.0
C727 C -0.89117 1.40635 187.04914 0.0
C728 C -0.93183 1.38631 183.53306 0.0
C729 C -0.84673 1.36063 183.95095 0.0
C730 C -0.84444 1.32707 180.88116 0.0
C731 C -0.88354 1.30338 179.26741 0.0
C732 C -0.92494 1.31467 180.4692 0.0
C733 C -0.88647 1.33888 180.98849 0.0
C734 C -0.97015 1.36253 182.53235 0.0
C735 C -0.97379 1.39836 183.909 0.0
H736 H -0.22596 1.01473 45.29912 0.0
H737 H -0.17564 1.06331 58.06311 0.0
H738 H -0.09068 0.98295 55.81508 0.0
H739 H -0.03246 0.89636 52.38872 0.0
H740 H -0.08233 0.8448 41.03071 0.0
H741 H -0.16645 0.92903 40.61203 0.0
C742 C -0.19629 1.00818 47.29151 0.0
C743 C -0.20669 1.0448 51.75752 0.0
C744 C -0.14789 0.96114 46.4565 0.0
C745 C -0.16819 1.03569 54.52948 0.0
C746 C -0.11982 0.98969 53.33986 0.0
C747 C -0.06185 0.90392 49.71646 0.0
C748 C -0.05211 0.86518 46.8217 0.0
C749 C -0.10951 0.95174 49.6734 0.0
C750 C -0.08965 0.87453 43.31682 0.0
C751 C -0.13743 0.92248 43.08476 0.0
H752 H 0.77914 0.09586 205.38997 0.0
H753 H 0.74483 0.09435 179.3157 0.0
H754 H 0.74299 0.15319 175.19355 0.0
H755 H 0.75469 0.20245 179.10271 0.0
H756 H 0.7908 0.19936 205.42459 0.0
H757 H 0.78903 0.14416 209.27094 0.0
C758 C 0.77144 0.10803 198.76207 0.0
C759 C 0.76289 0.09013 192.63457 0.0
C760 C 0.77117 0.14078 196.47329 0.0
C761 C 0.75167 0.10749 184.15263 0.0
C762 C 0.75093 0.14086 181.79968 0.0
C763 C 0.76235 0.18952 185.66392 0.0
C764 C 0.77314 0.20509 191.93456 0.0
C765 C 0.76131 0.15728 187.90539 0.0
C766 C 0.78251 0.1882 200.42853 0.0
C767 C 0.78145 0.15655 202.6687 0.0
H768 H 0.05342 0.45386 62.49997 0.0
H769 H 0.09971 0.4561 37.89866 0.0
H770 H 0.01507 0.53496 34.6014 0.0
H771 H -0.06915 0.60993 40.03309 0.0
H772 H -0.10926 0.60782 65.56963 0.0
H773 H -0.03023 0.52317 67.25464 0.0
C774 C 0.04454 0.47084 56.2778 0.0
C775 C 0.08235 0.44954 50.45689 0.0
C776 C -0.00292 0.51734 54.75662 0.0
C777 C 0.07088 0.47164 42.42922 0.0
C778 C 0.02269 0.51724 40.64079 0.0
C779 C -0.06047 0.59073 45.93089 0.0
C780 C -0.09463 0.61572 52.75191 0.0
C781 C -0.01401 0.54166 46.96913 0.0
C782 C -0.0832 0.59013 60.31399 0.0
C783 C -0.03816 0.54141 61.26477 0.0
H784 H 0.03845 0.24928 13.64061 0.0
H785 H -0.07009 0.26295 22.88426 0.0
H786 H -0.01007 0.19406 32.53457 0.0
H787 H 0.07374 0.12728 37.54611 0.0
H788 H 0.18364 0.11105 27.9524 0.0
H789 H 0.12203 0.18418 19.19712 0.0
C790 C 0.02772 0.23766 17.86022 0.0
C791 C -0.02004 0.26092 17.53277 0.0
C792 C 0.06261 0.19743 23.23123 0.0
C793 C -0.03337 0.2453 22.98243 0.0
C794 C 0.00088 0.20594 28.48384 0.0
C795 C 0.08444 0.13961 33.56381 0.0
C796 C 0.1334 0.11334 33.33377 0.0
C797 C 0.04914 0.18118 28.51321 0.0
C798 C 0.14629 0.13032 28.19442 0.0
C799 C 0.1111 0.17216 23.19942 0.0
H800 H -0.71853 1.2466 247.341 0.0
H801 H -0.78018 1.21216 233.54565 0.0
H802 H -0.82549 1.28317 224.29577 0.0
H803 H -0.85289 1.35875 221.00847 0.0
H804 H -0.79368 1.3947 235.35969 0.0
H805 H -0.7426 1.31967 243.56744 0.0
C806 C -0.74085 1.25393 242.1592 0.0
C807 C -0.74592 1.22425 241.08705 0.0
C808 C -0.76819 1.29574 237.1059 0.0
C809 C -0.77571 1.2346 234.46144 0.0
C810 C -0.80191 1.27536 229.22884 0.0
C811 C -0.82895 1.35029 225.94529 0.0
C812 C -0.82766 1.38272 227.61153 0.0
C813 C -0.79955 1.30699 230.66773 0.0
C814 C -0.79583 1.37071 233.96558 0.0
C815 C -0.76634 1.32764 238.65059 0.0
H816 H -0.23447 1.1261 83.44766 0.0
H817 H -0.36716 1.22561 98.53374 0.0
H818 H -0.3243 1.22045 110.37728 0.0
H819 H -0.2454 1.17609 117.17583 0.0
H820 H -0.11308 1.07423 102.02008 0.0
H821 H -0.15933 1.09202 89.3769 0.0
C822 C -0.25418 1.14743 89.27269 0.0
C823 C -0.30341 1.17544 90.24054 0.0
C824 C -0.22919 1.14346 96.03075 0.0
C825 C -0.32908 1.20367 97.70488 0.0
C826 C -0.3045 1.20039 104.48136 0.0
C827 C -0.22731 1.15918 111.01104 0.0
C828 C -0.17634 1.12418 110.40467 0.0
C829 C -0.25407 1.16878 103.83901 0.0
C830 C -0.15251 1.10158 102.50833 0.0
C831 C -0.17883 1.11151 95.3278 0.0
H832 H 0.66259 0.22871 244.92436 0.0
H833 H 0.52873 0.2737 246.55439 0.0
H834 H 0.56574 0.20339 237.78101 0.0
H835 H 0.63746 0.12717 230.36038 0.0
H836 H 0.77139 0.08226 229.13432 0.0
H837 H 0.73278 0.15465 237.24114 0.0
C838 C 0.64115 0.22355 243.3353 0.0
C839 C 0.59304 0.25627 246.46337 0.0
C840 C 0.66289 0.18272 238.49806 0.0
C841 C 0.56585 0.24907 244.24158 0.0
C842 C 0.5871 0.20871 239.28262 0.0
C843 C 0.65837 0.13297 231.91971 0.0
C844 C 0.70742 0.09904 229.2246 0.0
C845 C 0.63591 0.17482 236.53245 0.0
C846 C 0.7337 0.10758 231.17701 0.0
C847 C 0.71162 0.14905 235.77916 0.0
H848 H 0.00457 0.47243 110.95953 0.0
H849 H 0.07517 0.32667 113.03338 0.0
H850 H 0.13589 0.29773 102.22419 0.0
H851 H 0.16901 0.31449 92.2212 0.0
H852 H 0.09518 0.46188 90.46515 0.0
H853 H 0.03594 0.48916 101.16037 0.0
C854 C 0.03324 0.4342 109.10125 0.0
C855 C 0.03541 0.40176 112.8563 0.0
C856 C 0.06764 0.41801 102.93243 0.0
C857 C 0.0726 0.3525 110.24688 0.0
C858 C 0.1074 0.33591 104.08412 0.0
C859 C 0.14006 0.35247 94.2153 0.0
C860 C 0.13672 0.38596 90.51457 0.0
C861 C 0.10538 0.36839 100.3969 0.0
C862 C 0.09869 0.4352 93.1355 0.0
C863 C 0.06467 0.45099 99.2788 0.0
H864 H -0.09823 1.26354 20.07282 0.0
H865 H -0.16455 1.21922 17.10493 0.0
H866 H -0.23162 1.28544 26.62458 0.0
H867 H -0.27276 1.3576 35.44754 0.0
H868 H -0.20469 1.39993 38.64979 0.0
H869 H -0.13716 1.33294 29.33208 0.0
C870 C -0.12725 1.26821 21.52208 0.0
C871 C -0.12648 1.23664 17.83434 0.0
C872 C -0.16561 1.30624 26.99428 0.0
C873 C -0.16413 1.24292 19.86956 0.0
C874 C -0.20267 1.28095 25.27734 0.0
C875 C -0.24323 1.35223 34.06865 0.0
C876 C -0.24392 1.38388 37.67526 0.0
C877 C -0.20406 1.31316 28.7989 0.0
C878 C -0.20502 1.37604 35.9523 0.0
C879 C -0.16638 1.33778 30.62292 0.0
H880 H 0.33605 0.31738 170.40565 0.0
H881 H 0.19242 0.46788 172.66939 0.0
H882 H 0.21537 0.4921 162.30317 0.0
H883 H 0.27447 0.47069 152.32823 0.0
H884 H 0.41845 0.32095 149.86067 0.0
H885 H 0.3971 0.29631 160.72264 0.0
C886 C 0.30972 0.35547 168.62204 0.0
C887 C 0.26241 0.39068 172.25406 0.0
C888 C 0.32317 0.36927 162.66396 0.0
C889 C 0.22901 0.43998 169.96558 0.0
C890 C 0.24205 0.45391 164.03264 0.0
C891 C 0.30131 0.43255 154.13743 0.0
C892 C 0.34776 0.39754 150.21644 0.0
C893 C 0.28878 0.41882 160.30091 0.0
C894 C 0.38239 0.34853 152.77773 0.0
C895 C 0.37013 0.33446 158.94981 0.0
H896 H -0.40232 1.01424 154.50591 0.0
H897 H -0.54394 1.163 149.9332 0.0
H898 H -0.52714 1.19185 160.74643 0.0
H899 H -0.47008 1.17488 170.80578 0.0
H900 H -0.32815 1.02556 175.0542 0.0
H901 H -0.34747 0.99701 164.97699 0.0
C902 C -0.4297 1.05304 155.86893 0.0
C903 C -0.47407 1.08647 151.33924 0.0
C904 C -0.41964 1.0693 161.97777 0.0
C905 C -0.50942 1.13648 153.31294 0.0
C906 C -0.49974 1.15302 159.46069 0.0
C907 C -0.44335 1.13608 169.54124 0.0
C908 C -0.39751 1.10252 173.62129 0.0
C909 C -0.45459 1.11977 163.71397 0.0
C910 C -0.36361 1.05231 171.97942 0.0
C911 C -0.37458 1.03586 166.21564 0.0
H912 H 0.10154 1.04984 237.08175 0.0
H913 H 0.08857 1.15449 248.34119 0.0
H914 H 0.1004 1.17027 234.26298 0.0
H915 H 0.10737 1.15993 218.83357 0.0
H916 H 0.11822 1.0579 206.93693 0.0
H917 H 0.11471 1.035 221.24087 0.0
C918 C 0.10277 1.07499 236.45012 0.0
C919 C 0.09435 1.10094 243.72441 0.0
C920 C 0.10832 1.08492 228.24771 0.0
C921 C 0.09508 1.13411 242.83388 0.0
C922 C 0.10163 1.14328 234.78779 0.0
C923 C 0.10863 1.13285 219.31162 0.0
C924 C 0.11163 1.11162 211.81199 0.0
C925 C 0.10678 1.12004 227.45233 0.0
C926 C 0.11511 1.07531 212.60864 0.0
C927 C 0.11322 1.06221 220.77871 0.0
H928 H 0.26824 0.55112 104.21678 0.0
H929 H 0.2949 0.63038 111.32668 0.0
H930 H 0.26559 0.67017 97.2174 0.0
H931 H 0.22758 0.68579 83.20489 0.0
H932 H 0.2001 0.60681 76.58009 0.0
H933 H 0.23589 0.56241 90.12384 0.0
C934 C 0.26739 0.57737 102.73413 0.0
C935 C 0.28274 0.58859 108.87923 0.0
C936 C 0.25108 0.5995 94.65062 0.0
C937 C 0.28267 0.62161 106.73868 0.0
C938 C 0.26614 0.64417 98.6689 0.0
C939 C 0.23066 0.65795 84.65613 0.0
C940 C 0.2115 0.64932 78.91762 0.0
C941 C 0.24986 0.63366 92.59901 0.0
C942 C 0.21476 0.61388 80.90712 0.0
C943 C 0.23482 0.58881 88.66924 0.0
H944 H -0.31164 0.45454 213.88113 0.0
H945 H -0.16382 0.36567 205.94752 0.0
H946 H -0.1441 0.36802 220.5652 0.0
H947 H -0.16516 0.38405 235.84718 0.0
H948 H -0.31166 0.47047 244.11096 0.0
H949 H -0.33586 0.47995 229.06532 0.0
C950 C -0.27573 0.43743 215.28217 0.0
C951 C -0.23915 0.41006 208.86903 0.0
C952 C -0.2641 0.43705 223.78258 0.0
C953 C -0.19248 0.38715 210.7902 0.0
C954 C -0.18107 0.38793 219.15748 0.0
C955 C -0.20248 0.40517 234.32866 0.0
C956 C -0.23641 0.4255 240.99889 0.0
C957 C -0.2159 0.41071 225.75051 0.0
C958 C -0.28495 0.454 239.02552 0.0
C959 C -0.29869 0.45949 230.45171 0.0
H960 H -0.38128 0.83274 80.70968 0.0
H961 H -0.3533 0.91222 75.02124 0.0
H962 H -0.37447 0.94258 89.83305 0.0
H963 H -0.39462 0.94123 104.50385 0.0
H964 H -0.42071 0.86018 110.30212 0.0
H965 H -0.40499 0.83433 95.25158 0.0
C966 C -0.38108 0.85779 82.62385 0.0
C967 C -0.36601 0.87048 76.76569 0.0
C968 C -0.39125 0.87332 91.19667 0.0
C969 C -0.36509 0.90222 79.40791 0.0
C970 C -0.37657 0.91904 87.88722 0.0
C971 C -0.39623 0.91733 102.52311 0.0
C972 C -0.4079 0.90183 108.54325 0.0
C973 C -0.38819 0.90355 93.87754 0.0
C974 C -0.41115 0.87202 105.80764 0.0
C975 C -0.40263 0.85764 97.20356 0.0
H976 H 0.54547 0.44563 26.5724 0.0
H977 H 0.69117 0.33293 15.7582 0.0
H978 H 0.7262 0.31126 30.05958 0.0
H979 H 0.71596 0.32006 45.49984 0.0
H980 H 0.57219 0.43477 56.80736 0.0
H981 H 0.53534 0.45987 42.38401 0.0
C982 C 0.58482 0.4176 27.35077 0.0
C983 C 0.61583 0.39073 20.16316 0.0
C984 C 0.60486 0.40482 35.63597 0.0
C985 C 0.66674 0.35402 21.22333 0.0
C986 C 0.68679 0.34133 29.38462 0.0
C987 C 0.67646 0.35007 44.81635 0.0
C988 C 0.64652 0.3744 52.13673 0.0
C989 C 0.65622 0.36539 36.61525 0.0
C990 C 0.59562 0.41469 51.20635 0.0
C991 C 0.57478 0.42931 42.98882 0.0
H992 H -0.27731 0.68746 180.03686 0.0
H993 H -0.12645 0.592 186.72071 0.0
H994 H -0.10034 0.55444 172.49853 0.0
H995 H -0.12051 0.55366 157.89837 0.0
H996 H -0.27007 0.64592 150.96936 0.0
H997 H -0.29687 0.68075 165.57145 0.0
C998 C -0.23865 0.65757 178.45686 0.0
C999 C -0.20386 0.64269 184.42388 0.0
C1000 C -0.22387 0.63669 170.17728 0.0
C1001 C -0.15394 0.60424 182.24041 0.0
C1002 C -0.139 0.58303 174.08794 0.0
C1003 C -0.15906 0.58154 159.55212 0.0
C1004 C -0.19343 0.59804 153.3216 0.0
C1005 C -0.17375 0.60006 167.94365 0.0
C1006 C -0.24306 0.63323 155.63298 0.0
C1007 C -0.25827 0.65285 163.98022 0.0
H1008 H -0.70066 1.05376 24.28171 0.0
H1009 H -0.8459 1.18846 16.03422 0.0
H1010 H -0.87644 1.2057 30.7005 0.0
H1011 H -0.86148 1.18528 45.63155 0.0
H1012 H -0.7181 1.04991 54.53131 0.0
H1013 H -0.68634 1.03095 39.76473 0.0
C1014 C -0.73917 1.08611 25.71995 0.0
C1015 C -0.77135 1.11973 19.16802 0.0
C1016 C -0.75622 1.09639 34.23076 0.0
C1017 C -0.82088 1.16214 21.02839 0.0
C1018 C -0.83814 1.17219 29.39467 0.0
C1019 C -0.82307 1.15151 44.45194 0.0
C1020 C -0.79216 1.11914 51.22608 0.0
C1021 C -0.80592 1.14014 36.03348 0.0
C1022 C -0.7426 1.07574 49.45612 0.0
C1023 C -0.72463 1.06463 41.00929 0.0
H1024 H 0.02382 0.84995 178.75021 0.0
H1025 H 0.11651 0.86111 185.51563 0.0
H1026 H 0.10227 0.8958 171.35399 0.0
H1027 H 0.0666 0.91904 156.8657 0.0
H1028 H -0.02324 0.90419 150.21615 0.0
H1029 H -0.01162 0.8731 164.54635 0.0
C1030 C 0.04068 0.86035 177.22375 0.0
C1031 C 0.07136 0.85274 183.22353 0.0
C1032 C 0.03388 0.8784 169.02106 0.0
C1033 C 0.0926 0.86669 181.05569 0.0
C1034 C 0.08489 0.88602 172.92519 0.0
C1035 C 0.05012 0.90834 158.49968 0.0
C1036 C 0.02119 0.91353 152.42886 0.0
C1037 C 0.05645 0.89101 166.79961 0.0
C1038 C -0.00057 0.9003 154.72663 0.0
C1039 C 0.00574 0.88287 162.94117 0.0
H1040 H -0.22876 1.41742 180.41334 0.0
H1041 H -0.20002 1.32316 199.53635 0.0
H1042 H -0.11237 1.26127 196.6297 0.0
H1043 H -0.04426 1.24166 190.75901 0.0
H1044 H -0.0713 1.33629 171.99852 0.0
H1045 H -0.15924 1.39038 172.56572 0.0
C1046 C -0.2033 1.38234 183.62301 0.0
C1047 C -0.22041 1.37436 190.11536 0.0
C1048 C -0.15271 1.3478 182.16961 0.0
C1049 C -0.18736 1.3295 194.43452 0.0
C1050 C -0.13729 1.29449 192.86164 0.0
C1051 C -0.06942 1.27374 186.69257 0.0
C1052 C -0.05185 1.2858 181.50043 0.0
C1053 C -0.11955 1.30446 187.09331 0.0
C1054 C -0.08432 1.32669 176.10419 0.0
C1055 C -0.13452 1.35761 176.44899 0.0
H1056 H 0.26026 0.44566 58.03832 0.0
H1057 H 0.19022 0.4552 36.12035 0.0
H1058 H 0.15268 0.53541 32.50149 0.0
H1059 H 0.12614 0.60986 37.59435 0.0
H1060 H 0.18908 0.60079 60.88584 0.0
H1061 H 0.24226 0.51424 62.07084 0.0
C1062 C 0.23855 0.46447 52.24308 0.0
C1063 C 0.22783 0.44504 47.35679 0.0
C1064 C 0.21397 0.51181 50.70266 0.0
C1065 C 0.19942 0.46943 39.90238 0.0
C1066 C 0.177 0.5158 37.97107 0.0
C1067 C 0.15177 0.58857 42.86448 0.0
C1068 C 0.15268 0.61167 49.3168 0.0
C1069 C 0.18156 0.53863 43.65492 0.0
C1070 C 0.18661 0.5839 56.03858 0.0
C1071 C 0.21747 0.53433 56.66361 0.0
H1072 H 0.09118 0.06923 181.6007 0.0
H1073 H 0.07142 0.16541 198.53328 0.0
H1074 H -0.01604 0.23195 195.32543 0.0
H1075 H -0.0877 0.25716 189.87041 0.0
H1076 H -0.07004 0.16082 173.47534 0.0
H1077 H 0.01932 0.09985 174.12269 0.0
C1078 C 0.06778 0.1054 184.29032 0.0
C1079 C 0.08711 0.11308 190.21239 0.0
C1080 C 0.01732 0.14287 182.62645 0.0
C1081 C 0.05692 0.15936 193.87178 0.0
C1082 C 0.00701 0.1971 192.10274 0.0
C1083 C -0.06415 0.22322 186.27129 0.0
C1084 C -0.08482 0.21281 181.7398 0.0
C1085 C -0.01338 0.18849 186.82016 0.0
C1086 C -0.05453 0.16928 177.00596 0.0
C1087 C -0.0036 0.13442 177.43741 0.0
H1088 H -0.19271 0.83237 51.36971 0.0
H1089 H -0.3249 0.89896 39.15124 0.0
H1090 H -0.35975 0.97944 40.28992 0.0
H1091 H -0.35653 1.03203 46.81953 0.0
H1092 H -0.22141 0.96186 58.55647 0.0
H1093 H -0.18402 0.88235 55.42724 0.0
C1094 C -0.22857 0.86437 48.73864 0.0
C1095 C -0.25632 0.86003 45.25716 0.0
C1096 C -0.24839 0.91027 49.47406 0.0
C1097 C -0.30271 0.90155 41.82082 0.0
C1098 C -0.32289 0.94765 42.56279 0.0
C1099 C -0.31879 0.99932 48.56465 0.0
C1100 C -0.29272 1.00322 53.22647 0.0
C1101 C -0.29678 0.95276 46.70452 0.0
C1102 C -0.24329 0.96029 55.2665 0.0
C1103 C -0.22146 0.91448 53.43661 0.0
H1104 H 0.69632 0.14842 68.79575 0.0
H1105 H 0.78707 0.05085 89.88754 0.0
H1106 H 0.79476 0.10149 94.61212 0.0
H1107 H 0.789 0.16426 90.78295 0.0
H1108 H 0.70433 0.25516 68.62993 0.0
H1109 H 0.68058 0.21703 66.27056 0.0
C1110 C 0.71598 0.13959 74.64493 0.0
C1111 C 0.74089 0.09649 79.02368 0.0
C1112 C 0.72247 0.16704 76.96052 0.0
C1113 C 0.76694 0.08453 86.51834 0.0
C1114 C 0.77208 0.11296 89.10722 0.0
C1115 C 0.76467 0.17605 85.56674 0.0
C1116 C 0.74916 0.21152 79.76462 0.0
C1117 C 0.75223 0.15279 84.08333 0.0
C1118 C 0.71743 0.22706 73.04327 0.0
C1119 C 0.70365 0.2055 71.71332 0.0
H1120 H 0.09115 0.48228 218.31747 0.0
H1121 H 0.05582 0.41696 206.86018 0.0
H1122 H -0.03122 0.49142 209.66399 0.0
H1123 H -0.09688 0.57949 212.60576 0.0
H1124 H -0.06203 0.64787 222.39476 0.0
H1125 H 0.025 0.56812 223.01431 0.0
C1126 C 0.06441 0.48376 216.82479 0.0
C1127 C 0.07942 0.44434 212.52517 0.0
C1128 C 0.01444 0.52777 217.91353 0.0
C1129 C 0.04475 0.44682 210.31058 0.0
C1130 C -0.00491 0.48956 211.79459 0.0
C1131 C -0.07012 0.57643 215.07545 0.0
C1132 C -0.08499 0.61873 217.4397 0.0
C1133 C -0.0205 0.53097 215.15597 0.0
C1134 C -0.05077 0.61528 220.57389 0.0
C1135 C -0.00124 0.56986 220.90403 0.0
H1136 H -0.91272 1.4148 79.73236 0.0
H1137 H -0.8324 1.33864 56.17175 0.0
H1138 H -0.83204 1.28032 58.80218 0.0
H1139 H -0.86333 1.25762 66.75955 0.0
H1140 H -0.94419 1.33234 90.33183 0.0
H1141 H -0.93601 1.38506 88.76507 0.0
C1142 C -0.8938 1.38437 75.36899 0.0
C1143 C -0.87244 1.38052 67.80156 0.0
C1144 C -0.89512 1.35184 76.79383 0.0
C1145 C -0.84876 1.34177 62.05741 0.0
C1146 C -0.849 1.30884 63.50898 0.0
C1147 C -0.87921 1.28552 71.55057 0.0
C1148 C -0.90548 1.29229 78.50799 0.0
C1149 C -0.87374 1.31478 70.65989 0.0
C1150 C -0.92448 1.32725 84.84398 0.0
C1151 C -0.91966 1.35716 83.95926 0.0
H1152 H -0.2251 1.02125 218.81732 0.0
H1153 H -0.19104 1.0812 204.12859 0.0
H1154 H -0.10366 1.00536 205.77971 0.0
H1155 H -0.03858 0.9179 208.978 0.0
H1156 H -0.07138 0.85555 223.06714 0.0
H1157 H -0.15792 0.93627 224.05375 0.0
C1158 C -0.19843 1.01836 216.33643 0.0
C1159 C -0.21417 1.05663 211.40042 0.0
C1160 C -0.14829 0.97372 216.94866 0.0
C1161 C -0.1795 1.05223 208.01215 0.0
C1162 C -0.12965 1.00868 208.84849 0.0
C1163 C -0.06473 0.92238 212.38728 0.0
C1164 C -0.04949 0.88136 215.82172 0.0
C1165 C -0.11386 0.96849 212.89379 0.0
C1166 C -0.08289 0.88699 220.33427 0.0
C1167 C -0.13216 0.933 220.8883 0.0
H1168 H -0.20883 1.34627 222.66903 0.0
H1169 H -0.32894 1.39261 236.55912 0.0
H1170 H -0.27095 1.32181 246.07018 0.0
H1171 H -0.18608 1.25167 251.31325 0.0
H1172 H -0.06796 1.20983 237.63286 0.0
H1173 H -0.12527 1.27362 227.0284 0.0
C1174 C -0.2225 1.341 227.76859 0.0
C1175 C -0.27309 1.37518 229.03619 0.0
C1176 C -0.18925 1.30086 233.20642 0.0
C1177 C -0.2901 1.36704 235.52173 0.0
C1178 C -0.25699 1.32661 240.95254 0.0
C1179 C -0.17303 1.25593 245.873 0.0
C1180 C -0.1232 1.2265 245.20431 0.0
C1181 C -0.20648 1.29389 239.97084 0.0
C1182 C -0.10636 1.23241 238.23652 0.0
C1183 C -0.13905 1.26893 232.21713 0.0
H1184 H 0.66855 0.22828 20.57491 0.0
H1185 H 0.54006 0.26486 17.64615 0.0
H1186 H 0.57512 0.19831 27.2854 0.0
H1187 H 0.644 0.1273 35.96304 0.0
H1188 H 0.77195 0.09165 38.88099 0.0
H1189 H 0.73523 0.1603 29.76332 0.0
C1190 C 0.64799 0.22196 22.06436 0.0
C1191 C 0.60191 0.25131 18.32214 0.0
C1192 C 0.66843 0.18352 27.54487 0.0
C1193 C 0.57562 0.24286 20.42769 0.0
C1194 C 0.59575 0.20463 25.90345 0.0
C1195 C 0.66391 0.13446 34.58477 0.0
C1196 C 0.71086 0.10404 38.02834 0.0
C1197 C 0.64247 0.17425 29.38337 0.0
C1198 C 0.73582 0.11435 36.29572 0.0
C1199 C 0.71488 0.15361 31.08245 0.0
H1200 H 0.08097 0.40651 178.43564 0.0
H1201 H 0.21413 0.27805 165.55226 0.0
H1202 H 0.16632 0.28605 154.47955 0.0
H1203 H 0.08601 0.33675 147.49526 0.0
H1204 H -0.04555 0.46707 160.32014 0.0
H1205 H 0.00211 0.45101 172.47006 0.0
C1206 C 0.09962 0.37996 173.24432 0.0
C1207 C 0.15086 0.34242 172.68642 0.0
C1208 C 0.07207 0.38528 166.89708 0.0
C1209 C 0.17461 0.30755 166.06198 0.0
C1210 C 0.14729 0.31223 159.72321 0.0
C1211 C 0.06803 0.36063 153.07977 0.0
C1212 C 0.0171 0.40306 153.08408 0.0
C1213 C 0.09594 0.35189 159.932 0.0
C1214 C -0.00624 0.43438 160.23886 0.0
C1215 C 0.02095 0.42531 167.14818 0.0
H1216 H -0.81316 1.28976 8.97322 0.0
H1217 H -0.66402 1.20223 15.36187 0.0
H1218 H -0.69325 1.26788 24.671 0.0
H1219 H -0.76191 1.3491 31.45711 0.0
H1220 H -0.91019 1.43321 25.28595 0.0
H1221 H -0.88033 1.36988 15.32343 0.0
C1222 C -0.78678 1.28484 12.351 0.0
C1223 C -0.73644 1.241 11.47718 0.0
C1224 C -0.80374 1.32223 17.71802 0.0
C1225 C -0.70302 1.23553 15.94297 0.0
C1226 C -0.7197 1.27308 21.25398 0.0
C1227 C -0.78751 1.35368 27.83013 0.0
C1228 C -0.83812 1.39564 29.08881 0.0
C1229 C -0.77006 1.31647 22.24196 0.0
C1230 C -0.87106 1.40105 24.44979 0.0
C1231 C -0.85405 1.36489 18.76186 0.0
H1232 H -0.24465 1.1759 146.05141 0.0
H1233 H -0.10925 1.05631 159.26684 0.0
H1234 H -0.15402 1.07045 171.87509 0.0
H1235 H -0.23023 1.10875 178.18312 0.0
H1236 H -0.3666 1.22592 164.96433 0.0
H1237 H -0.32324 1.22167 153.32617 0.0
C1238 C -0.22542 1.15409 151.81083 0.0
C1239 C -0.17419 1.11531 151.86187 0.0
C1240 C -0.25144 1.16155 158.92798 0.0
C1241 C -0.1489 1.08646 159.21619 0.0
C1242 C -0.17438 1.09434 166.36992 0.0
C1243 C -0.25052 1.13371 172.79135 0.0
C1244 C -0.30113 1.16677 172.28084 0.0
C1245 C -0.22544 1.13047 166.14911 0.0
C1246 C -0.32739 1.19985 165.41406 0.0
C1247 C -0.30263 1.19727 158.76193 0.0
H1248 H -0.02432 0.22576 246.98683 0.0
H1249 H 0.02044 0.29198 244.93189 0.0
H1250 H 0.09064 0.22328 236.07325 0.0
H1251 H 0.13975 0.14359 229.04241 0.0
H1252 H 0.09291 0.07935 231.3735 0.0
H1253 H 0.02339 0.14801 240.10588 0.0
C1254 C 0.00056 0.22551 244.60172 0.0
C1255 C -0.00731 0.26408 246.64918 0.0
C1256 C 0.04083 0.18594 239.62157 0.0
C1257 C 0.02545 0.26289 243.44375 0.0
C1258 C 0.06576 0.22348 238.41296 0.0
C1259 C 0.11455 0.14448 231.53761 0.0
C1260 C 0.12165 0.10629 229.56604 0.0
C1261 C 0.07402 0.18457 236.515 0.0
C1262 C 0.08833 0.10825 232.76275 0.0
C1263 C 0.04845 0.14756 237.75247 0.0
H1264 H -0.4042 1.01961 108.83942 0.0
H1265 H -0.54754 1.16858 112.55612 0.0
H1266 H -0.52798 1.19602 101.95979 0.0
H1267 H -0.46806 1.1775 92.34836 0.0
H1268 H -0.32434 1.02772 89.15496 0.0
H1269 H -0.34632 1.00087 98.99862 0.0
C1270 C -0.43136 1.05821 107.36131 0.0
C1271 C -0.47702 1.09217 111.57359 0.0
C1272 C -0.41962 1.07354 101.43871 0.0
C1273 C -0.51208 1.14179 109.41471 0.0
C1274 C -0.50078 1.15744 103.40712 0.0
C1275 C -0.44147 1.13897 93.80782 0.0
C1276 C -0.39438 1.10476 90.06703 0.0
C1277 C -0.45428 1.12364 99.50405 0.0
C1278 C -0.36068 1.05494 91.96753 0.0
C1279 C -0.37321 1.03948 97.58691 0.0
H1280 H 0.34669 0.30445 93.63841 0.0
H1281 H 0.25266 0.44384 80.94602 0.0
H1282 H 0.28147 0.4648 90.31916 0.0
H1283 H 0.32533 0.4485 103.11386 0.0
H1284 H 0.41933 0.31089 116.19863 0.0
H1285 H 0.39958 0.28376 105.56229 0.0
C1286 C 0.33296 0.33913 92.87126 0.0
C1287 C 0.29658 0.37291 86.72721 0.0
C1288 C 0.34965 0.35134 98.34282 0.0
C1289 C 0.27979 0.41743 85.73255 0.0
C1290 C 0.29636 0.42955 91.07202 0.0
C1291 C 0.34223 0.41217 103.52429 0.0
C1292 C 0.37318 0.38185 110.41476 0.0
C1293 C 0.33006 0.39748 97.54335 0.0
C1294 C 0.39544 0.33468 110.88736 0.0
C1295 C 0.38374 0.31947 104.87066 0.0
H1296 H -0.21313 0.4919 107.94814 0.0
H1297 H -0.06704 0.34382 110.44077 0.0
H1298 H -0.08976 0.31436 101.71841 0.0
H1299 H -0.15331 0.32952 94.83277 0.0
H1300 H -0.29954 0.4772 92.46982 0.0
H1301 H -0.27443 0.50793 99.77258 0.0
C1302 C -0.18597 0.45323 106.49367 0.0
C1303 C -0.13874 0.42006 109.99543 0.0
C1304 C -0.19949 0.43637 101.63735 0.0
C1305 C -0.10382 0.37019 107.90163 0.0
C1306 C -0.11684 0.35321 102.96333 0.0
C1307 C -0.17967 0.36845 95.91612 0.0
C1308 C -0.2284 0.40101 93.29904 0.0
C1309 C -0.165 0.38578 100.07145 0.0
C1310 C -0.2619 0.45143 94.5139 0.0
C1311 C -0.24758 0.46899 98.67673 0.0
H1312 H -0.53044 1.01445 243.37618 0.0
H1313 H -0.57193 0.9449 243.43472 0.0
H1314 H -0.50621 0.88349 233.22881 0.0
H1315 H -0.4328 0.84584 225.22124 0.0
H1316 H -0.38855 0.91265 226.11952 0.0
H1317 H -0.46003 0.97938 234.9178 0.0
C1318 C -0.52551 0.9862 241.08993 0.0
C1319 C -0.55574 0.98401 244.20734 0.0
C1320 C -0.48712 0.95052 235.39513 0.0
C1321 C -0.54873 0.94704 241.20288 0.0
C1322 C -0.51127 0.912 235.3535 0.0
C1323 C -0.43946 0.87555 227.22709 0.0
C1324 C -0.40573 0.87456 225.07145 0.0
C1325 C -0.47966 0.91285 232.53455 0.0
C1326 C -0.41411 0.91274 227.77195 0.0
C1327 C -0.45482 0.95076 232.80309 0.0
H1328 H 0.04495 1.14912 97.21288 0.0
H1329 H 0.18482 0.99683 95.23103 0.0
H1330 H 0.15168 0.97464 102.99995 0.0
H1331 H 0.08437 1.00011 111.19288 0.0
H1332 H -0.0554 1.15347 112.84362 0.0
H1333 H -0.02367 1.17377 104.12254 0.0
C1334 C 0.06824 1.11103 98.52705 0.0
C1335 C 0.11741 1.07455 95.94792 0.0
C1336 C 0.04893 1.09894 102.83985 0.0
C1337 C 0.14698 1.0253 97.33375 0.0
C1338 C 0.12804 1.01279 101.73864 0.0
C1339 C 0.06065 1.03795 109.58211 0.0
C1340 C 0.01245 1.07531 112.81054 0.0
C1341 C 0.07925 1.0495 104.64898 0.0
C1342 C -0.01802 1.12404 110.53209 0.0
C1343 C 9e-05 1.13576 105.57643 0.0
H1344 H 0.24694 0.60233 228.98682 0.0
H1345 H 0.3069 0.64871 220.70731 0.0
H1346 H 0.37877 0.58624 229.77229 0.0
H1347 H 0.41986 0.52436 241.13389 0.0
H1348 H 0.35957 0.47787 249.16791 0.0
H1349 H 0.29249 0.5344 239.03057 0.0
C1350 C 0.27604 0.59838 229.10854 0.0
C1351 C 0.27152 0.63037 224.33085 0.0
C1352 C 0.31683 0.56274 234.3193 0.0
C1353 C 0.30971 0.62443 224.36906 0.0
C1354 C 0.35055 0.589 229.5831 0.0
C1355 C 0.3922 0.52639 240.61305 0.0
C1356 C 0.39415 0.49765 245.98715 0.0
C1357 C 0.35376 0.55891 234.76431 0.0
C1358 C 0.35873 0.4998 245.12801 0.0
C1359 C 0.32028 0.53221 239.35986 0.0
H1360 H -0.58774 1.00416 154.10729 0.0
H1361 H -0.67725 1.15423 148.27164 0.0
H1362 H -0.74492 1.1816 156.4604 0.0
H1363 H -0.78074 1.16259 164.22348 0.0
H1364 H -0.69125 1.01315 170.44706 0.0
H1365 H -0.62133 0.98565 163.05788 0.0
C1366 C -0.62186 1.04291 154.70654 0.0
C1367 C -0.6276 1.07706 150.48806 0.0
C1368 C -0.66077 1.05838 159.35479 0.0
C1369 C -0.67179 1.12715 151.4444 0.0
C1370 C -0.71068 1.14283 156.06303 0.0
C1371 C -0.74592 1.12397 163.92858 0.0
C1372 C -0.7412 1.08973 167.68129 0.0
C1373 C -0.70595 1.1087 159.83543 0.0
C1374 C -0.69569 1.04 167.50677 0.0
C1375 C -0.65582 1.02436 163.30515 0.0
H1376 H 0.13443 0.86007 40.4525 0.0
H1377 H 0.0109 0.89393 33.19338 0.0
H1378 H -0.02132 0.96205 24.48274 0.0
H1379 H -0.00977 1.00602 17.68581 0.0
H1380 H 0.11644 0.96914 24.08818 0.0
H1381 H 0.14265 0.90874 34.44096 0.0
C1382 C 0.10012 0.88293 37.06304 0.0
C1383 C 0.07539 0.87178 37.34761 0.0
C1384 C 0.08245 0.92126 31.86362 0.0
C1385 C 0.03097 0.90145 32.93101 0.0
C1386 C 0.01246 0.94044 27.96926 0.0
C1387 C 0.02297 0.98542 21.46257 0.0
C1388 C 0.05159 0.99162 20.06719 0.0
C1389 C 0.0386 0.94979 27.19304 0.0
C1390 C 0.09409 0.96451 24.97793 0.0
C1391 C 0.10913 0.92997 30.8932 0.0
H1392 H 0.45613 0.49076 154.62574 0.0
H1393 H 0.53898 0.34021 152.33442 0.0
H1394 H 0.60183 0.31519 161.71301 0.0
H1395 H 0.63725 0.33487 169.26142 0.0
H1396 H 0.5552 0.48503 171.47406 0.0
H1397 H 0.48788 0.51134 163.4165 0.0
C1398 C 0.48761 0.45251 156.25119 0.0
C1399 C 0.49315 0.41737 152.64488 0.0
C1400 C 0.52403 0.43821 161.54133 0.0
C1401 C 0.53384 0.36807 154.95241 0.0
C1402 C 0.57 0.35363 160.28216 0.0
C1403 C 0.60455 0.3734 168.01289 0.0
C1404 C 0.60155 0.40788 170.81573 0.0
C1405 C 0.56616 0.38821 163.38164 0.0
C1406 C 0.55852 0.45775 169.32879 0.0
C1407 C 0.52008 0.4728 164.71161 0.0
H1408 H -0.16745 0.59246 37.21663 0.0
H1409 H -0.31812 0.67488 39.08175 0.0
H1410 H -0.29928 0.61244 30.62261 0.0
H1411 H -0.24227 0.54028 21.24737 0.0
H1412 H -0.0919 0.45898 19.24042 0.0
H1413 H -0.10829 0.51506 29.34829 0.0
C1414 C -0.19605 0.59647 35.84259 0.0
C1415 C -0.24425 0.6385 38.58237 0.0
C1416 C -0.18509 0.56093 30.92758 0.0
C1417 C -0.28079 0.64287 36.97348 0.0
C1418 C -0.27009 0.60738 32.10736 0.0
C1419 C -0.21296 0.53456 23.08908 0.0
C1420 C -0.16624 0.49624 19.36649 0.0
C1421 C -0.22274 0.56717 28.81457 0.0
C1422 C -0.1283 0.48847 21.96345 0.0
C1423 C -0.13767 0.52061 27.70926 0.0
H1424 H 0.25029 0.10749 48.65061 0.0
H1425 H 0.26377 0.07936 75.89888 0.0
H1426 H 0.26224 0.1387 78.6853 0.0
H1427 H 0.25997 0.19634 73.28256 0.0
H1428 H 0.24642 0.22344 45.95543 0.0
H1429 H 0.24516 0.16646 43.34254 0.0
C1430 C 0.25293 0.11418 55.2202 0.0
C1431 C 0.25761 0.08858 62.04851 0.0
C1432 C 0.25216 0.14806 56.76384 0.0
C1433 C 0.26023 0.09843 70.51491 0.0
C1434 C 0.2595 0.13226 72.10947 0.0
C1435 C 0.25668 0.18988 66.7514 0.0
C1436 C 0.25362 0.21407 59.82791 0.0
C1437 C 0.25596 0.15693 65.26713 0.0
C1438 C 0.24895 0.20542 51.41956 0.0
C1439 C 0.24827 0.17275 49.90446 0.0
H1440 H -0.70579 1.38575 215.12685 0.0
H1441 H -0.72369 1.37616 188.18648 0.0
H1442 H -0.63532 1.31072 186.18983 0.0
H1443 H -0.55419 1.26115 191.73879 0.0
H1444 H -0.53516 1.27234 218.46284 0.0
H1445 H -0.62314 1.33164 220.93234 0.0
C1446 C -0.69046 1.36921 208.82031 0.0
C1447 C -0.72156 1.38645 201.78922 0.0
C1448 C -0.63954 1.33188 207.68128 0.0
C1449 C -0.70083 1.36415 193.69334 0.0
C1450 C -0.65025 1.32661 192.54222 0.0
C1451 C -0.56904 1.2762 198.14118 0.0
C1452 C -0.53818 1.26286 204.88255 0.0
C1453 C -0.61945 1.31097 199.44572 0.0
C1454 C -0.55807 1.28209 213.15457 0.0
C1455 C -0.6084 1.31623 214.55106 0.0
H1456 H -0.37761 1.37862 48.66212 0.0
H1457 H -0.3856 1.39354 76.35977 0.0
H1458 H -0.39595 1.3432 77.66948 0.0
H1459 H -0.40457 1.29694 71.10398 0.0
H1460 H -0.39357 1.27776 43.54766 0.0
H1461 H -0.38308 1.32859 42.03088 0.0
C1462 C -0.38127 1.37063 54.99421 0.0
C1463 C -0.38108 1.39022 62.40131 0.0
C1464 C -0.38737 1.3416 55.72311 0.0
C1465 C -0.38562 1.37914 70.54443 0.0
C1466 C -0.39182 1.35053 71.30828 0.0
C1467 C -0.40062 1.30435 64.72614 0.0
C1468 C -0.40094 1.2845 57.42061 0.0
C1469 C -0.39339 1.3322 63.94919 0.0
C1470 C -0.3941 1.29319 49.25301 0.0
C1471 C -0.38788 1.322 48.4009 0.0
H1472 H 0.56486 0.12977 213.61945 0.0
H1473 H 0.58991 0.11463 186.1627 0.0
H1474 H 0.50219 0.17467 183.68588 0.0
H1475 H 0.42007 0.22488 189.26883 0.0
H1476 H 0.39563 0.23766 216.72 0.0
H1477 H 0.48189 0.1849 219.22094 0.0
C1478 C 0.55127 0.13982 207.07597 0.0
C1479 C 0.58418 0.11706 200.08105 0.0
C1480 C 0.50103 0.17351 205.69561 0.0
C1481 C 0.56559 0.13127 191.66813 0.0
C1482 C 0.51542 0.16543 190.24473 0.0
C1483 C 0.43341 0.21641 195.81584 0.0
C1484 C 0.40144 0.23465 202.79804 0.0
C1485 C 0.48307 0.18567 197.20657 0.0
C1486 C 0.41939 0.22388 211.22439 0.0
C1487 C 0.46874 0.19365 212.66064 0.0
H1488 H 0.0829 1.00433 151.6688 0.0
H1489 H -0.06424 1.15277 152.62826 0.0
H1490 H -0.03672 1.1763 161.71328 0.0
H1491 H 0.02979 1.15712 168.07849 0.0
H1492 H 0.17714 1.00977 167.31845 0.0
H1493 H 0.14869 0.98316 159.45107 0.0
C1494 C 0.05667 1.0417 153.94766 0.0
C1495 C 0.00747 1.07692 151.31653 0.0
C1496 C 0.07282 1.05525 159.10111 0.0
C1497 C -0.02607 1.125 154.44688 0.0
C1498 C -0.01039 1.13859 159.6271 0.0
C1499 C 0.05568 1.1191 166.20118 0.0
C1500 C 0.10554 1.08552 168.04898 0.0
C1501 C 0.03912 1.1044 161.75007 0.0
C1502 C 0.13862 1.03618 165.85478 0.0
C1503 C 0.12236 1.02112 161.35973 0.0
H1504 H 0.41825 0.5301 22.3414 0.0
H1505 H 0.37212 0.46679 17.10504 0.0
H1506 H 0.30171 0.52654 26.59616 0.0
H1507 H 0.24908 0.60137 35.12001 0.0
H1508 H 0.29415 0.66528 40.56814 0.0
H1509 H 0.36974 0.60018 32.26722 0.0
C1510 C 0.39304 0.52909 23.33728 0.0
C1511 C 0.39996 0.49457 18.8973 0.0
C1512 C 0.35242 0.56375 28.76528 0.0
C1513 C 0.36753 0.4931 20.39439 0.0
C1514 C 0.32712 0.52739 25.78897 0.0
C1515 C 0.27567 0.60083 34.52702 0.0
C1516 C 0.26597 0.63832 38.26303 0.0
C1517 C 0.31855 0.56362 29.79256 0.0
C1518 C 0.30097 0.63678 37.67556 0.0
C1519 C 0.34393 0.59977 32.91411 0.0
H1520 H -0.18082 0.34003 162.74826 0.0
H1521 H -0.31526 0.49128 168.33417 0.0
H1522 H -0.28677 0.51627 159.89747 0.0
H1523 H -0.22381 0.49491 150.94944 0.0
H1524 H -0.08792 0.34324 145.88947 0.0
H1525 H -0.11662 0.31856 154.27661 0.0
C1526 C -0.20414 0.37851 162.02824 0.0
C1527 C -0.2504 0.41388 166.02106 0.0
C1528 C -0.18701 0.39243 157.38029 0.0
C1529 C -0.27967 0.46349 165.24947 0.0
C1530 C -0.26333 0.47773 160.46024 0.0
C1531 C -0.20032 0.45641 151.69926 0.0
C1532 C -0.15385 0.42099 147.74952 0.0
C1533 C -0.21703 0.44247 156.5192 0.0
C1534 C -0.12375 0.37128 148.87812 0.0
C1535 C -0.14026 0.35713 153.62271 0.0
H1536 H -0.45194 0.87689 39.97745 0.0
H1537 H -0.35215 0.86285 25.66832 0.0
H1538 H -0.41756 0.92737 15.94852 0.0
H1539 H -0.50157 0.98394 10.89197 0.0
H1540 H -0.60058 0.99504 24.57714 0.0
H1541 H -0.53739 0.93619 35.2074 0.0
C1542 C -0.44469 0.88825 34.76835 0.0
C1543 C -0.39719 0.86473 33.49359 0.0
C1544 C -0.48235 0.92491 29.08417 0.0
C1545 C -0.38826 0.87981 26.71001 0.0
C1546 C -0.42568 0.91689 21.16367 0.0
C1547 C -0.50952 0.97408 16.28437 0.0
C1548 C -0.55549 0.99365 16.95255 0.0
C1549 C -0.47265 0.93916 22.20614 0.0
C1550 C -0.56522 0.98014 23.9093 0.0
C1551 C -0.52913 0.94646 29.97718 0.0
H1552 H 0.46444 0.48553 110.26797 0.0
H1553 H 0.56197 0.33462 117.11217 0.0
H1554 H 0.62709 0.31042 108.56281 0.0
H1555 H 0.65743 0.33235 99.79552 0.0
H1556 H 0.5602 0.48218 92.37576 0.0
H1557 H 0.4935 0.50683 100.59233 0.0
C1558 C 0.49987 0.44729 109.85127 0.0
C1559 C 0.50849 0.41197 114.39275 0.0
C1560 C 0.53717 0.43361 104.92577 0.0
C1561 C 0.55433 0.36253 113.6804 0.0
C1562 C 0.59169 0.34868 108.84099 0.0
C1563 C 0.6217 0.3705 100.02948 0.0
C1564 C 0.61378 0.40568 95.6708 0.0
C1565 C 0.58371 0.384 104.57643 0.0
C1566 C 0.56707 0.45467 95.7765 0.0
C1567 C 0.52908 0.46865 100.45065 0.0
H1568 H -0.23602 0.53569 240.73081 0.0
H1569 H -0.11398 0.49534 251.88619 0.0
H1570 H -0.13135 0.55519 242.89381 0.0
H1571 H -0.18435 0.62244 232.6363 0.0
H1572 H -0.30515 0.66188 221.16014 0.0
H1573 H -0.28513 0.59865 229.55911 0.0
C1574 C -0.21307 0.53982 241.15524 0.0
C1575 C -0.1742 0.51167 247.03395 0.0
C1576 C -0.22329 0.57428 235.99252 0.0
C1577 C -0.14416 0.51667 247.41262 0.0
C1578 C -0.15422 0.55104 242.31758 0.0
C1579 C -0.20633 0.6172 231.99796 0.0
C1580 C -0.24664 0.6471 226.45088 0.0
C1581 C -0.19427 0.58067 236.73205 0.0
C1582 C -0.27413 0.63932 225.464 0.0
C1583 C -0.26273 0.60332 230.25517 0.0
H1584 H -0.58662 1.00049 109.56164 0.0
H1585 H -0.67297 1.15139 113.50453 0.0
H1586 H -0.73737 1.17749 104.45971 0.0
H1587 H -0.77214 1.15799 96.61123 0.0
H1588 H -0.68679 1.00758 92.68057 0.0
H1589 H -0.61862 0.98068 100.56051 0.0
C1590 C -0.61932 1.0391 108.38949 0.0
C1591 C -0.62527 1.07396 112.32744 0.0
C1592 C -0.65646 1.05393 103.26842 0.0
C1593 C -0.6675 1.12377 110.60427 0.0
C1594 C -0.70448 1.13877 105.46664 0.0
C1595 C -0.73856 1.11927 97.45922 0.0
C1596 C -0.73473 1.08478 94.22672 0.0
C1597 C -0.69985 1.10423 101.97472 0.0
C1598 C -0.69065 1.03478 95.17253 0.0
C1599 C -0.65179 1.01944 99.68625 0.0
H1600 H 0.0403 0.88867 231.33192 0.0
H1601 H 0.17357 0.83374 222.39591 0.0
H1602 H 0.15674 0.89371 231.39804 0.0
H1603 H 0.10597 0.95887 242.41192 0.0
H1604 H -0.0285 1.01447 250.84724 0.0
H1605 H -0.01305 0.9572 241.38433 0.0
C1606 C 0.06564 0.88988 231.34567 0.0
C1607 C 0.10839 0.85654 226.32242 0.0
C1608 C 0.05556 0.92448 236.44978 0.0
C1609 C 0.14042 0.85909 226.24161 0.0
C1610 C 0.13091 0.89319 231.40403 0.0
C1611 C 0.08 0.95853 242.14621 0.0
C1612 C 0.03791 0.99059 247.39311 0.0
C1613 C 0.0889 0.92561 236.63224 0.0
C1614 C 0.00421 0.99023 246.88484 0.0
C1615 C 0.01305 0.95736 241.49691 0.0
H1616 H -0.41397 1.30649 190.49644 0.0
H1617 H -0.39927 1.28395 217.98341 0.0
H1618 H -0.39254 1.33746 219.64326 0.0
H1619 H -0.39055 1.38969 213.32802 0.0
H1620 H -0.40358 1.41162 185.83458 0.0
H1621 H -0.4103 1.35795 184.10842 0.0
C1622 C -0.40993 1.31376 196.87262 0.0
C1623 C -0.40781 1.29184 204.13876 0.0
C1624 C -0.40514 1.3437 197.74899 0.0
C1625 C -0.40133 1.30064 212.3155 0.0
C1626 C -0.39733 1.33105 213.25613 0.0
C1627 C -0.39496 1.38294 206.93125 0.0
C1628 C -0.39704 1.40503 199.71118 0.0
C1629 C -0.39905 1.35255 206.01673 0.0
C1630 C -0.40182 1.39505 191.4831 0.0
C1631 C -0.40598 1.36466 190.51008 0.0
H1632 H 0.42263 0.20895 72.638 0.0
H1633 H 0.40871 0.2062 45.2003 0.0
H1634 H 0.49649 0.15058 43.39101 0.0
H1635 H 0.57729 0.10075 49.71219 0.0
H1636 H 0.58967 0.10479 77.20411 0.0
H1637 H 0.50188 0.16245 78.83736 0.0
C1638 C 0.43865 0.19612 66.24115 0.0
C1639 C 0.40914 0.21126 59.0691 0.0
C1640 C 0.48878 0.16455 65.25751 0.0
C1641 C 0.43056 0.19496 50.83175 0.0
C1642 C 0.48073 0.16316 49.8001 0.0
C1643 C 0.56086 0.11438 56.06764 0.0
C1644 C 0.59039 0.098 63.3334 0.0
C1645 C 0.51023 0.14744 56.98349 0.0
C1646 C 0.56813 0.11648 71.49546 0.0
C1647 C 0.51787 0.1494 72.44667 0.0
H1648 H 0.24961 0.11209 214.61101 0.0
H1649 H 0.2506 0.09702 187.06011 0.0
H1650 H 0.25739 0.15009 184.88068 0.0
H1651 H 0.26508 0.19867 190.732 0.0
H1652 H 0.26229 0.21588 218.21978 0.0
H1653 H 0.25466 0.16323 220.48695 0.0
C1654 C 0.25112 0.12049 208.11595 0.0
C1655 C 0.24988 0.10027 201.00533 0.0
C1656 C 0.25526 0.15083 206.90371 0.0
C1657 C 0.25143 0.11202 192.64909 0.0
C1658 C 0.25559 0.14216 191.39455 0.0
C1659 C 0.26337 0.19055 197.24134 0.0
C1660 C 0.26506 0.21052 204.3136 0.0
C1661 C 0.25811 0.16121 198.47229 0.0
C1662 C 0.26148 0.20061 212.68002 0.0
C1663 C 0.25697 0.17068 213.96909 0.0
H1664 H -0.54786 1.25299 70.97167 0.0
H1665 H -0.52426 1.25527 43.99745 0.0
H1666 H -0.61127 1.31154 41.23651 0.0
H1667 H -0.69473 1.36653 46.7766 0.0
H1668 H -0.71794 1.36607 73.89186 0.0
H1669 H -0.62992 1.3023 76.28197 0.0
C1670 C -0.56153 1.26538 64.45675 0.0
C1671 C -0.52968 1.25056 57.7177 0.0
C1672 C -0.61152 1.29841 62.96289 0.0
C1673 C -0.54794 1.26623 49.30474 0.0
C1674 C -0.59775 1.29866 47.73711 0.0
C1675 C -0.68066 1.35233 53.21332 0.0
C1676 C -0.71315 1.37179 60.17291 0.0
C1677 C -0.63003 1.31609 54.5667 0.0
C1678 C -0.69398 1.35222 68.42867 0.0
C1679 C -0.64361 1.31576 69.80629 0.0
loop_
_geom_bond_atom_site_label_1
_geom_bond_atom_site_label_2
_geom_bond_distance
_geom_bond_site_symmetry_2
_ccdc_geom_bond_type
Sc0 O3 2.025 . S
Sc0 O10 2.105 1_455 S
Sc0 O13 2.105 . S
Sc0 O16 2.105 . S
Sc0 O19 2.105 1_455 S
Sc1 O3 2.025 . S
Sc1 O11 2.105 1_455 S
Sc1 O15 2.105 . S
Sc1 O17 2.105 . S
Sc1 O21 2.105 1_455 S
Sc2 O3 2.025 . S
Sc2 O12 2.105 1_455 S
Sc2 O14 2.105 . S
Sc2 O18 2.105 . S
Sc2 O20 2.105 1_455 S
O3 Sc0 2.025 . S
O3 Sc1 2.025 . S
O3 Sc2 2.025 . S
C4 O10 1.268 . S
C4 O20 1.268 . S
C5 O11 1.268 . S
C5 O19 1.268 . S
C6 O12 1.268 . S
C6 O21 1.268 . S
C7 O13 1.268 . S
C7 O17 1.268 . S
C8 O14 1.268 . S
C8 O16 1.268 . S
C9 O15 1.268 . S
C9 O18 1.268 . S
O10 Sc0 2.105 1_655 S
O10 C4 1.268 . S
O11 Sc1 2.105 1_655 S
O11 C5 1.268 . S
O12 Sc2 2.105 1_655 S
O12 C6 1.268 . S
O13 Sc0 2.105 . S
O13 C7 1.268 . S
O14 Sc2 2.105 . S
O14 C8 1.268 . S
O15 Sc1 2.105 . S
O15 C9 1.268 . S
O16 Sc0 2.105 . S
O16 C8 1.268 . S
O17 Sc1 2.105 . S
O17 C7 1.268 . S
O18 Sc2 2.105 . S
O18 C9 1.268 . S
O19 Sc0 2.105 1_655 S
O19 C5 1.268 . S
O20 Sc2 2.105 1_655 S
O20 C4 1.268 . S
O21 Sc1 2.105 1_655 S
O21 C6 1.268 . S
Sc22 O25 2.025 . S
Sc22 O32 2.105 . S
Sc22 O35 2.105 . S
Sc22 O38 2.105 . S
Sc22 O41 2.105 . S
Sc23 O25 2.025 . S
Sc23 O33 2.105 . S
Sc23 O37 2.105 . S
Sc23 O39 2.105 . S
Sc23 O43 2.105 . S
Sc24 O25 2.025 . S
Sc24 O34 2.105 . S
Sc24 O36 2.105 . S
Sc24 O40 2.105 . S
Sc24 O42 2.105 . S
O25 Sc22 2.025 . S
O25 Sc23 2.025 . S
O25 Sc24 2.025 . S
C26 O32 1.268 . S
C26 O42 1.268 . S
C27 O33 1.268 . S
C27 O41 1.268 . S
C28 O34 1.268 . S
C28 O43 1.268 . S
C29 O35 1.268 . S
C29 O39 1.268 . S
C30 O36 1.268 . S
C30 O38 1.268 . S
C31 O37 1.268 . S
C31 O40 1.268 . S
O32 Sc22 2.105 . S
O32 C26 1.268 . S
O33 Sc23 2.105 . S
O33 C27 1.268 . S
O34 Sc24 2.105 . S
O34 C28 1.268 . S
O35 Sc22 2.105 . S
O35 C29 1.268 . S
O36 Sc24 2.105 . S
O36 C30 1.268 . S
O37 Sc23 2.105 . S
O37 C31 1.268 . S
O38 Sc22 2.105 . S
O38 C30 1.268 . S
O39 Sc23 2.105 . S
O39 C29 1.268 . S
O40 Sc24 2.105 . S
O40 C31 1.268 . S
O41 Sc22 2.105 . S
O41 C27 1.268 . S
O42 Sc24 2.105 . S
O42 C26 1.268 . S
O43 Sc23 2.105 . S
O43 C28 1.268 . S
Sc44 O47 2.025 . S
Sc44 O54 2.105 . S
Sc44 O57 2.105 1_455 S
Sc44 O60 2.105 1_455 S
Sc44 O63 2.105 . S
Sc45 O47 2.025 . S
Sc45 O55 2.105 . S
Sc45 O59 2.105 1_455 S
Sc45 O61 2.105 1_455 S
Sc45 O65 2.105 . S
Sc46 O47 2.025 . S
Sc46 O56 2.105 . S
Sc46 O58 2.105 1_455 S
Sc46 O62 2.105 1_455 S
Sc46 O64 2.105 . S
O47 Sc44 2.025 . S
O47 Sc45 2.025 . S
O47 Sc46 2.025 . S
C48 O54 1.268 . S
C48 O64 1.268 . S
C49 O55 1.268 . S
C49 O63 1.268 . S
C50 O56 1.268 . S
C50 O65 1.268 . S
C51 O57 1.268 . S
C51 O61 1.268 . S
C52 O58 1.268 . S
C52 O60 1.268 . S
C53 O59 1.268 . S
C53 O62 1.268 . S
O54 Sc44 2.105 . S
O54 C48 1.268 . S
O55 Sc45 2.105 . S
O55 C49 1.268 . S
O56 Sc46 2.105 . S
O56 C50 1.268 . S
O57 Sc44 2.105 1_655 S
O57 C51 1.268 . S
O58 Sc46 2.105 1_655 S
O58 C52 1.268 . S
O59 Sc45 2.105 1_655 S
O59 C53 1.268 . S
O60 Sc44 2.105 1_655 S
O60 C52 1.268 . S
O61 Sc45 2.105 1_655 S
O61 C51 1.268 . S
O62 Sc46 2.105 1_655 S
O62 C53 1.268 . S
O63 Sc44 2.105 . S
O63 C49 1.268 . S
O64 Sc46 2.105 . S
O64 C48 1.268 . S
O65 Sc45 2.105 . S
O65 C50 1.268 . S
Sc66 O69 2.025 . S
Sc66 O76 2.105 . S
Sc66 O79 2.105 . S
Sc66 O82 2.105 . S
Sc66 O85 2.105 . S
Sc67 O69 2.025 . S
Sc67 O77 2.105 . S
Sc67 O81 2.105 . S
Sc67 O83 2.105 . S
Sc67 O87 2.105 . S
Sc68 O69 2.025 . S
Sc68 O78 2.105 . S
Sc68 O80 2.105 . S
Sc68 O84 2.105 . S
Sc68 O86 2.105 . S
O69 Sc66 2.025 . S
O69 Sc67 2.025 . S
O69 Sc68 2.025 . S
C70 O76 1.268 . S
C70 O86 1.268 . S
C71 O77 1.268 . S
C71 O85 1.268 . S
C72 O78 1.268 . S
C72 O87 1.268 . S
C73 O79 1.268 . S
C73 O83 1.268 . S
C74 O80 1.268 . S
C74 O82 1.268 . S
C75 O81 1.268 . S
C75 O84 1.268 . S
O76 Sc66 2.105 . S
O76 C70 1.268 . S
O77 Sc67 2.105 . S
O77 C71 1.268 . S
O78 Sc68 2.105 . S
O78 C72 1.268 . S
O79 Sc66 2.105 . S
O79 C73 1.268 . S
O80 Sc68 2.105 . S
O80 C74 1.268 . S
O81 Sc67 2.105 . S
O81 C75 1.268 . S
O82 Sc66 2.105 . S
O82 C74 1.268 . S
O83 Sc67 2.105 . S
O83 C73 1.268 . S
O84 Sc68 2.105 . S
O84 C75 1.268 . S
O85 Sc66 2.105 . S
O85 C71 1.268 . S
O86 Sc68 2.105 . S
O86 C70 1.268 . S
O87 Sc67 2.105 . S
O87 C72 1.268 . S
Sc88 O91 2.025 . S
Sc88 O98 2.105 . S
Sc88 O101 2.105 1_455 S
Sc88 O104 2.105 1_455 S
Sc88 O107 2.105 . S
Sc89 O91 2.025 . S
Sc89 O99 2.105 . S
Sc89 O103 2.105 1_455 S
Sc89 O105 2.105 1_455 S
Sc89 O109 2.105 . S
Sc90 O91 2.025 . S
Sc90 O100 2.105 . S
Sc90 O102 2.105 1_455 S
Sc90 O106 2.105 1_455 S
Sc90 O108 2.105 . S
O91 Sc88 2.025 . S
O91 Sc89 2.025 . S
O91 Sc90 2.025 . S
C92 O98 1.268 . S
C92 O108 1.268 . S
C93 O99 1.268 . S
C93 O107 1.268 . S
C94 O100 1.268 . S
C94 O109 1.268 . S
C95 O101 1.268 . S
C95 O105 1.268 . S
C96 O102 1.268 . S
C96 O104 1.268 . S
C97 O103 1.268 . S
C97 O106 1.268 . S
O98 Sc88 2.105 . S
O98 C92 1.268 . S
O99 Sc89 2.105 . S
O99 C93 1.268 . S
O100 Sc90 2.105 . S
O100 C94 1.268 . S
O101 Sc88 2.105 1_655 S
O101 C95 1.268 . S
O102 Sc90 2.105 1_655 S
O102 C96 1.268 . S
O103 Sc89 2.105 1_655 S
O103 C97 1.268 . S
O104 Sc88 2.105 1_655 S
O104 C96 1.268 . S
O105 Sc89 2.105 1_655 S
O105 C95 1.268 . S
O106 Sc90 2.105 1_655 S
O106 C97 1.268 . S
O107 Sc88 2.105 . S
O107 C93 1.268 . S
O108 Sc90 2.105 . S
O108 C92 1.268 . S
O109 Sc89 2.105 . S
O109 C94 1.268 . S
Sc110 O113 2.025 . S
Sc110 O120 2.105 . S
Sc110 O123 2.105 . S
Sc110 O126 2.105 . S
Sc110 O129 2.105 . S
Sc111 O113 2.025 . S
Sc111 O121 2.105 . S
Sc111 O125 2.105 . S
Sc111 O127 2.105 . S
Sc111 O131 2.105 . S
Sc112 O113 2.025 . S
Sc112 O122 2.105 . S
Sc112 O124 2.105 . S
Sc112 O128 2.105 . S
Sc112 O130 2.105 . S
O113 Sc110 2.025 . S
O113 Sc111 2.025 . S
O113 Sc112 2.025 . S
C114 O120 1.268 . S
C114 O130 1.268 . S
C115 O121 1.268 . S
C115 O129 1.268 . S
C116 O122 1.268 . S
C116 O131 1.268 . S
C117 O123 1.268 . S
C117 O127 1.268 . S
C118 O124 1.268 . S
C118 O126 1.268 . S
C119 O125 1.268 . S
C119 O128 1.268 . S
O120 Sc110 2.105 . S
O120 C114 1.268 . S
O121 Sc111 2.105 . S
O121 C115 1.268 . S
O122 Sc112 2.105 . S
O122 C116 1.268 . S
O123 Sc110 2.105 . S
O123 C117 1.268 . S
O124 Sc112 2.105 . S
O124 C118 1.268 . S
O125 Sc111 2.105 . S
O125 C119 1.268 . S
O126 Sc110 2.105 . S
O126 C118 1.268 . S
O127 Sc111 2.105 . S
O127 C117 1.268 . S
O128 Sc112 2.105 . S
O128 C119 1.268 . S
O129 Sc110 2.105 . S
O129 C115 1.268 . S
O130 Sc112 2.105 . S
O130 C114 1.268 . S
O131 Sc111 2.105 . S
O131 C116 1.268 . S
Sc132 O135 2.025 . S
Sc132 O142 2.105 1_455 S
Sc132 O145 2.105 . S
Sc132 O148 2.105 . S
Sc132 O151 2.105 1_455 S
Sc133 O135 2.025 . S
Sc133 O143 2.105 1_455 S
Sc133 O147 2.105 . S
Sc133 O149 2.105 . S
Sc133 O153 2.105 1_455 S
Sc134 O135 2.025 . S
Sc134 O144 2.105 1_455 S
Sc134 O146 2.105 . S
Sc134 O150 2.105 . S
Sc134 O152 2.105 1_455 S
O135 Sc132 2.025 . S
O135 Sc133 2.025 . S
O135 Sc134 2.025 . S
C136 O142 1.268 . S
C136 O152 1.268 . S
C137 O143 1.268 . S
C137 O151 1.268 . S
C138 O144 1.268 . S
C138 O153 1.268 . S
C139 O145 1.268 . S
C139 O149 1.268 . S
C140 O146 1.268 . S
C140 O148 1.268 . S
C141 O147 1.268 . S
C141 O150 1.268 . S
O142 Sc132 2.105 1_655 S
O142 C136 1.268 . S
O143 Sc133 2.105 1_655 S
O143 C137 1.268 . S
O144 Sc134 2.105 1_655 S
O144 C138 1.268 . S
O145 Sc132 2.105 . S
O145 C139 1.268 . S
O146 Sc134 2.105 . S
O146 C140 1.268 . S
O147 Sc133 2.105 . S
O147 C141 1.268 . S
O148 Sc132 2.105 . S
O148 C140 1.268 . S
O149 Sc133 2.105 . S
O149 C139 1.268 . S
O150 Sc134 2.105 . S
O150 C141 1.268 . S
O151 Sc132 2.105 1_655 S
O151 C137 1.268 . S
O152 Sc134 2.105 1_655 S
O152 C136 1.268 . S
O153 Sc133 2.105 1_655 S
O153 C138 1.268 . S
Sc154 O157 2.025 . S
Sc154 O164 2.105 . S
Sc154 O167 2.105 . S
Sc154 O170 2.105 . S
Sc154 O173 2.105 . S
Sc155 O157 2.025 . S
Sc155 O165 2.105 . S
Sc155 O169 2.105 . S
Sc155 O171 2.105 . S
Sc155 O175 2.105 . S
Sc156 O157 2.025 . S
Sc156 O166 2.105 . S
Sc156 O168 2.105 . S
Sc156 O172 2.105 . S
Sc156 O174 2.105 . S
O157 Sc154 2.025 . S
O157 Sc155 2.025 . S
O157 Sc156 2.025 . S
C158 O164 1.268 . S
C158 O174 1.268 . S
C159 O165 1.268 . S
C159 O173 1.268 . S
C160 O166 1.268 . S
C160 O175 1.268 . S
C161 O167 1.268 . S
C161 O171 1.268 . S
C162 O168 1.268 . S
C162 O170 1.268 . S
C163 O169 1.268 . S
C163 O172 1.268 . S
O164 Sc154 2.105 . S
O164 C158 1.268 . S
O165 Sc155 2.105 . S
O165 C159 1.268 . S
O166 Sc156 2.105 . S
O166 C160 1.268 . S
O167 Sc154 2.105 . S
O167 C161 1.268 . S
O168 Sc156 2.105 . S
O168 C162 1.268 . S
O169 Sc155 2.105 . S
O169 C163 1.268 . S
O170 Sc154 2.105 . S
O170 C162 1.268 . S
O171 Sc155 2.105 . S
O171 C161 1.268 . S
O172 Sc156 2.105 . S
O172 C163 1.268 . S
O173 Sc154 2.105 . S
O173 C159 1.268 . S
O174 Sc156 2.105 . S
O174 C158 1.268 . S
O175 Sc155 2.105 . S
O175 C160 1.268 . S
Sc176 O179 2.025 . S
Sc176 O186 2.105 1_545 S
Sc176 O189 2.105 . S
Sc176 O192 2.105 . S
Sc176 O195 2.105 1_545 S
Sc177 O179 2.025 . S
Sc177 O187 2.105 1_545 S
Sc177 O191 2.105 . S
Sc177 O193 2.105 . S
Sc177 O197 2.105 1_545 S
Sc178 O179 2.025 . S
Sc178 O188 2.105 1_545 S
Sc178 O190 2.105 . S
Sc178 O194 2.105 . S
Sc178 O196 2.105 1_545 S
O179 Sc176 2.025 . S
O179 Sc177 2.025 . S
O179 Sc178 2.025 . S
C180 O186 1.268 . S
C180 O196 1.268 . S
C181 O187 1.268 . S
C181 O195 1.268 . S
C182 O188 1.268 . S
C182 O197 1.268 . S
C183 O189 1.268 . S
C183 O193 1.268 . S
C184 O190 1.268 . S
C184 O192 1.268 . S
C185 O191 1.268 . S
C185 O194 1.268 . S
O186 Sc176 2.105 1_565 S
O186 C180 1.268 . S
O187 Sc177 2.105 1_565 S
O187 C181 1.268 . S
O188 Sc178 2.105 1_565 S
O188 C182 1.268 . S
O189 Sc176 2.105 . S
O189 C183 1.268 . S
O190 Sc178 2.105 . S
O190 C184 1.268 . S
O191 Sc177 2.105 . S
O191 C185 1.268 . S
O192 Sc176 2.105 . S
O192 C184 1.268 . S
O193 Sc177 2.105 . S
O193 C183 1.268 . S
O194 Sc178 2.105 . S
O194 C185 1.268 . S
O195 Sc176 2.105 1_565 S
O195 C181 1.268 . S
O196 Sc178 2.105 1_565 S
O196 C180 1.268 . S
O197 Sc177 2.105 1_565 S
O197 C182 1.268 . S
Sc198 O201 2.025 . S
Sc198 O208 2.105 . S
Sc198 O211 2.105 . S
Sc198 O214 2.105 . S
Sc198 O217 2.105 . S
Sc199 O201 2.025 . S
Sc199 O209 2.105 . S
Sc199 O213 2.105 . S
Sc199 O215 2.105 . S
Sc199 O219 2.105 . S
Sc200 O201 2.025 . S
Sc200 O210 2.105 . S
Sc200 O212 2.105 . S
Sc200 O216 2.105 . S
Sc200 O218 2.105 . S
O201 Sc198 2.025 . S
O201 Sc199 2.025 . S
O201 Sc200 2.025 . S
C202 O208 1.268 . S
C202 O218 1.268 . S
C203 O209 1.268 . S
C203 O217 1.268 . S
C204 O210 1.268 . S
C204 O219 1.268 . S
C205 O211 1.268 . S
C205 O215 1.268 . S
C206 O212 1.268 . S
C206 O214 1.268 . S
C207 O213 1.268 . S
C207 O216 1.268 . S
O208 Sc198 2.105 . S
O208 C202 1.268 . S
O209 Sc199 2.105 . S
O209 C203 1.268 . S
O210 Sc200 2.105 . S
O210 C204 1.268 . S
O211 Sc198 2.105 . S
O211 C205 1.268 . S
O212 Sc200 2.105 . S
O212 C206 1.268 . S
O213 Sc199 2.105 . S
O213 C207 1.268 . S
O214 Sc198 2.105 . S
O214 C206 1.268 . S
O215 Sc199 2.105 . S
O215 C205 1.268 . S
O216 Sc200 2.105 . S
O216 C207 1.268 . S
O217 Sc198 2.105 . S
O217 C203 1.268 . S
O218 Sc200 2.105 . S
O218 C202 1.268 . S
O219 Sc199 2.105 . S
O219 C204 1.268 . S
Sc220 O223 2.025 . S
Sc220 O230 2.105 1_545 S
Sc220 O233 2.105 . S
Sc220 O236 2.105 . S
Sc220 O239 2.105 1_545 S
Sc221 O223 2.025 . S
Sc221 O231 2.105 1_545 S
Sc221 O235 2.105 . S
Sc221 O237 2.105 . S
Sc221 O241 2.105 1_545 S
Sc222 O223 2.025 . S
Sc222 O232 2.105 1_545 S
Sc222 O234 2.105 . S
Sc222 O238 2.105 . S
Sc222 O240 2.105 1_545 S
O223 Sc220 2.025 . S
O223 Sc221 2.025 . S
O223 Sc222 2.025 . S
C224 O230 1.268 . S
C224 O240 1.268 . S
C225 O231 1.268 . S
C225 O239 1.268 . S
C226 O232 1.268 . S
C226 O241 1.268 . S
C227 O233 1.268 . S
C227 O237 1.268 . S
C228 O234 1.268 . S
C228 O236 1.268 . S
C229 O235 1.268 . S
C229 O238 1.268 . S
O230 Sc220 2.105 1_565 S
O230 C224 1.268 . S
O231 Sc221 2.105 1_565 S
O231 C225 1.268 . S
O232 Sc222 2.105 1_565 S
O232 C226 1.268 . S
O233 Sc220 2.105 . S
O233 C227 1.268 . S
O234 Sc222 2.105 . S
O234 C228 1.268 . S
O235 Sc221 2.105 . S
O235 C229 1.268 . S
O236 Sc220 2.105 . S
O236 C228 1.268 . S
O237 Sc221 2.105 . S
O237 C227 1.268 . S
O238 Sc222 2.105 . S
O238 C229 1.268 . S
O239 Sc220 2.105 1_565 S
O239 C225 1.268 . S
O240 Sc222 2.105 1_565 S
O240 C224 1.268 . S
O241 Sc221 2.105 1_565 S
O241 C226 1.268 . S
Sc242 O245 2.025 . S
Sc242 O252 2.105 . S
Sc242 O255 2.105 . S
Sc242 O258 2.105 . S
Sc242 O261 2.105 . S
Sc243 O245 2.025 . S
Sc243 O253 2.105 . S
Sc243 O257 2.105 . S
Sc243 O259 2.105 . S
Sc243 O263 2.105 . S
Sc244 O245 2.025 . S
Sc244 O254 2.105 . S
Sc244 O256 2.105 . S
Sc244 O260 2.105 . S
Sc244 O262 2.105 . S
O245 Sc242 2.025 . S
O245 Sc243 2.025 . S
O245 Sc244 2.025 . S
C246 O252 1.268 . S
C246 O262 1.268 . S
C247 O253 1.268 . S
C247 O261 1.268 . S
C248 O254 1.268 . S
C248 O263 1.268 . S
C249 O255 1.268 . S
C249 O259 1.268 . S
C250 O256 1.268 . S
C250 O258 1.268 . S
C251 O257 1.268 . S
C251 O260 1.268 . S
O252 Sc242 2.105 . S
O252 C246 1.268 . S
O253 Sc243 2.105 . S
O253 C247 1.268 . S
O254 Sc244 2.105 . S
O254 C248 1.268 . S
O255 Sc242 2.105 . S
O255 C249 1.268 . S
O256 Sc244 2.105 . S
O256 C250 1.268 . S
O257 Sc243 2.105 . S
O257 C251 1.268 . S
O258 Sc242 2.105 . S
O258 C250 1.268 . S
O259 Sc243 2.105 . S
O259 C249 1.268 . S
O260 Sc244 2.105 . S
O260 C251 1.268 . S
O261 Sc242 2.105 . S
O261 C247 1.268 . S
O262 Sc244 2.105 . S
O262 C246 1.268 . S
O263 Sc243 2.105 . S
O263 C248 1.268 . S
Sc264 O267 2.025 . S
Sc264 O274 2.105 1_545 S
Sc264 O277 2.105 . S
Sc264 O280 2.105 . S
Sc264 O283 2.105 1_545 S
Sc265 O267 2.025 . S
Sc265 O275 2.105 1_545 S
Sc265 O279 2.105 . S
Sc265 O281 2.105 . S
Sc265 O285 2.105 1_545 S
Sc266 O267 2.025 . S
Sc266 O276 2.105 1_545 S
Sc266 O278 2.105 . S
Sc266 O282 2.105 . S
Sc266 O284 2.105 1_545 S
O267 Sc264 2.025 . S
O267 Sc265 2.025 . S
O267 Sc266 2.025 . S
C268 O274 1.268 . S
C268 O284 1.268 . S
C269 O275 1.268 . S
C269 O283 1.268 . S
C270 O276 1.268 . S
C270 O285 1.268 . S
C271 O277 1.268 . S
C271 O281 1.268 . S
C272 O278 1.268 . S
C272 O280 1.268 . S
C273 O279 1.268 . S
C273 O282 1.268 . S
O274 Sc264 2.105 1_565 S
O274 C268 1.268 . S
O275 Sc265 2.105 1_565 S
O275 C269 1.268 . S
O276 Sc266 2.105 1_565 S
O276 C270 1.268 . S
O277 Sc264 2.105 . S
O277 C271 1.268 . S
O278 Sc266 2.105 . S
O278 C272 1.268 . S
O279 Sc265 2.105 . S
O279 C273 1.268 . S
O280 Sc264 2.105 . S
O280 C272 1.268 . S
O281 Sc265 2.105 . S
O281 C271 1.268 . S
O282 Sc266 2.105 . S
O282 C273 1.268 . S
O283 Sc264 2.105 1_565 S
O283 C269 1.268 . S
O284 Sc266 2.105 1_565 S
O284 C268 1.268 . S
O285 Sc265 2.105 1_565 S
O285 C270 1.268 . S
Sc286 O289 2.025 . S
Sc286 O296 2.105 . S
Sc286 O299 2.105 . S
Sc286 O302 2.105 . S
Sc286 O305 2.105 . S
Sc287 O289 2.025 . S
Sc287 O297 2.105 . S
Sc287 O301 2.105 . S
Sc287 O303 2.105 . S
Sc287 O307 2.105 . S
Sc288 O289 2.025 . S
Sc288 O298 2.105 . S
Sc288 O300 2.105 . S
Sc288 O304 2.105 . S
Sc288 O306 2.105 . S
O289 Sc286 2.025 . S
O289 Sc287 2.025 . S
O289 Sc288 2.025 . S
C290 O296 1.268 . S
C290 O306 1.268 . S
C291 O297 1.268 . S
C291 O305 1.268 . S
C292 O298 1.268 . S
C292 O307 1.268 . S
C293 O299 1.268 . S
C293 O303 1.268 . S
C294 O300 1.268 . S
C294 O302 1.268 . S
C295 O301 1.268 . S
C295 O304 1.268 . S
O296 Sc286 2.105 . S
O296 C290 1.268 . S
O297 Sc287 2.105 . S
O297 C291 1.268 . S
O298 Sc288 2.105 . S
O298 C292 1.268 . S
O299 Sc286 2.105 . S
O299 C293 1.268 . S
O300 Sc288 2.105 . S
O300 C294 1.268 . S
O301 Sc287 2.105 . S
O301 C295 1.268 . S
O302 Sc286 2.105 . S
O302 C294 1.268 . S
O303 Sc287 2.105 . S
O303 C293 1.268 . S
O304 Sc288 2.105 . S
O304 C295 1.268 . S
O305 Sc286 2.105 . S
O305 C291 1.268 . S
O306 Sc288 2.105 . S
O306 C290 1.268 . S
O307 Sc287 2.105 . S
O307 C292 1.268 . S
Sc308 O311 2.025 . S
Sc308 O318 2.105 1_545 S
Sc308 O321 2.105 . S
Sc308 O324 2.105 . S
Sc308 O327 2.105 1_545 S
Sc309 O311 2.025 . S
Sc309 O319 2.105 1_545 S
Sc309 O323 2.105 . S
Sc309 O325 2.105 . S
Sc309 O329 2.105 1_545 S
Sc310 O311 2.025 . S
Sc310 O320 2.105 1_545 S
Sc310 O322 2.105 . S
Sc310 O326 2.105 . S
Sc310 O328 2.105 1_545 S
O311 Sc308 2.025 . S
O311 Sc309 2.025 . S
O311 Sc310 2.025 . S
C312 O318 1.268 . S
C312 O328 1.268 . S
C313 O319 1.268 . S
C313 O327 1.268 . S
C314 O320 1.268 . S
C314 O329 1.268 . S
C315 O321 1.268 . S
C315 O325 1.268 . S
C316 O322 1.268 . S
C316 O324 1.268 . S
C317 O323 1.268 . S
C317 O326 1.268 . S
O318 Sc308 2.105 1_565 S
O318 C312 1.268 . S
O319 Sc309 2.105 1_565 S
O319 C313 1.268 . S
O320 Sc310 2.105 1_565 S
O320 C314 1.268 . S
O321 Sc308 2.105 . S
O321 C315 1.268 . S
O322 Sc310 2.105 . S
O322 C316 1.268 . S
O323 Sc309 2.105 . S
O323 C317 1.268 . S
O324 Sc308 2.105 . S
O324 C316 1.268 . S
O325 Sc309 2.105 . S
O325 C315 1.268 . S
O326 Sc310 2.105 . S
O326 C317 1.268 . S
O327 Sc308 2.105 1_565 S
O327 C313 1.268 . S
O328 Sc310 2.105 1_565 S
O328 C312 1.268 . S
O329 Sc309 2.105 1_565 S
O329 C314 1.268 . S
Sc330 O333 2.025 . S
Sc330 O340 2.105 . S
Sc330 O343 2.105 . S
Sc330 O346 2.105 . S
Sc330 O349 2.105 . S
Sc331 O333 2.025 . S
Sc331 O341 2.105 . S
Sc331 O345 2.105 . S
Sc331 O347 2.105 . S
Sc331 O351 2.105 . S
Sc332 O333 2.025 . S
Sc332 O342 2.105 . S
Sc332 O344 2.105 . S
Sc332 O348 2.105 . S
Sc332 O350 2.105 . S
O333 Sc330 2.025 . S
O333 Sc331 2.025 . S
O333 Sc332 2.025 . S
C334 O340 1.268 . S
C334 O350 1.268 . S
C335 O341 1.268 . S
C335 O349 1.268 . S
C336 O342 1.268 . S
C336 O351 1.268 . S
C337 O343 1.268 . S
C337 O347 1.268 . S
C338 O344 1.268 . S
C338 O346 1.268 . S
C339 O345 1.268 . S
C339 O348 1.268 . S
O340 Sc330 2.105 . S
O340 C334 1.268 . S
O341 Sc331 2.105 . S
O341 C335 1.268 . S
O342 Sc332 2.105 . S
O342 C336 1.268 . S
O343 Sc330 2.105 . S
O343 C337 1.268 . S
O344 Sc332 2.105 . S
O344 C338 1.268 . S
O345 Sc331 2.105 . S
O345 C339 1.268 . S
O346 Sc330 2.105 . S
O346 C338 1.268 . S
O347 Sc331 2.105 . S
O347 C337 1.268 . S
O348 Sc332 2.105 . S
O348 C339 1.268 . S
O349 Sc330 2.105 . S
O349 C335 1.268 . S
O350 Sc332 2.105 . S
O350 C334 1.268 . S
O351 Sc331 2.105 . S
O351 C336 1.268 . S
Sc352 O355 2.025 . S
Sc352 O362 2.105 1_554 S
Sc352 O365 2.105 . S
Sc352 O368 2.105 . S
Sc352 O371 2.105 1_554 S
Sc353 O355 2.025 . S
Sc353 O363 2.105 1_554 S
Sc353 O367 2.105 . S
Sc353 O369 2.105 . S
Sc353 O373 2.105 1_554 S
Sc354 O355 2.025 . S
Sc354 O364 2.105 1_554 S
Sc354 O366 2.105 . S
Sc354 O370 2.105 . S
Sc354 O372 2.105 1_554 S
O355 Sc352 2.025 . S
O355 Sc353 2.025 . S
O355 Sc354 2.025 . S
C356 O362 1.268 . S
C356 O372 1.268 . S
C357 O363 1.268 . S
C357 O371 1.268 . S
C358 O364 1.268 . S
C358 O373 1.268 . S
C359 O365 1.268 . S
C359 O369 1.268 . S
C360 O366 1.268 . S
C360 O368 1.268 . S
C361 O367 1.268 . S
C361 O370 1.268 . S
O362 Sc352 2.105 1_556 S
O362 C356 1.268 . S
O363 Sc353 2.105 1_556 S
O363 C357 1.268 . S
O364 Sc354 2.105 1_556 S
O364 C358 1.268 . S
O365 Sc352 2.105 . S
O365 C359 1.268 . S
O366 Sc354 2.105 . S
O366 C360 1.268 . S
O367 Sc353 2.105 . S
O367 C361 1.268 . S
O368 Sc352 2.105 . S
O368 C360 1.268 . S
O369 Sc353 2.105 . S
O369 C359 1.268 . S
O370 Sc354 2.105 . S
O370 C361 1.268 . S
O371 Sc352 2.105 1_556 S
O371 C357 1.268 . S
O372 Sc354 2.105 1_556 S
O372 C356 1.268 . S
O373 Sc353 2.105 1_556 S
O373 C358 1.268 . S
Sc374 O377 2.025 . S
Sc374 O384 2.105 1_554 S
Sc374 O387 2.105 . S
Sc374 O390 2.105 . S
Sc374 O393 2.105 1_554 S
Sc375 O377 2.025 . S
Sc375 O385 2.105 1_554 S
Sc375 O389 2.105 . S
Sc375 O391 2.105 . S
Sc375 O395 2.105 1_554 S
Sc376 O377 2.025 . S
Sc376 O386 2.105 1_554 S
Sc376 O388 2.105 . S
Sc376 O392 2.105 . S
Sc376 O394 2.105 1_554 S
O377 Sc374 2.025 . S
O377 Sc375 2.025 . S
O377 Sc376 2.025 . S
C378 O384 1.268 . S
C378 O394 1.268 . S
C379 O385 1.268 . S
C379 O393 1.268 . S
C380 O386 1.268 . S
C380 O395 1.268 . S
C381 O387 1.268 . S
C381 O391 1.268 . S
C382 O388 1.268 . S
C382 O390 1.268 . S
C383 O389 1.268 . S
C383 O392 1.268 . S
O384 Sc374 2.105 1_556 S
O384 C378 1.268 . S
O385 Sc375 2.105 1_556 S
O385 C379 1.268 . S
O386 Sc376 2.105 1_556 S
O386 C380 1.268 . S
O387 Sc374 2.105 . S
O387 C381 1.268 . S
O388 Sc376 2.105 . S
O388 C382 1.268 . S
O389 Sc375 2.105 . S
O389 C383 1.268 . S
O390 Sc374 2.105 . S
O390 C382 1.268 . S
O391 Sc375 2.105 . S
O391 C381 1.268 . S
O392 Sc376 2.105 . S
O392 C383 1.268 . S
O393 Sc374 2.105 1_556 S
O393 C379 1.268 . S
O394 Sc376 2.105 1_556 S
O394 C378 1.268 . S
O395 Sc375 2.105 1_556 S
O395 C380 1.268 . S
Sc396 O399 2.025 . S
Sc396 O406 2.105 . S
Sc396 O409 2.105 . S
Sc396 O412 2.105 . S
Sc396 O415 2.105 . S
Sc397 O399 2.025 . S
Sc397 O407 2.105 . S
Sc397 O411 2.105 . S
Sc397 O413 2.105 . S
Sc397 O417 2.105 . S
Sc398 O399 2.025 . S
Sc398 O408 2.105 . S
Sc398 O410 2.105 . S
Sc398 O414 2.105 . S
Sc398 O416 2.105 . S
O399 Sc396 2.025 . S
O399 Sc397 2.025 . S
O399 Sc398 2.025 . S
C400 O406 1.268 . S
C400 O416 1.268 . S
C401 O407 1.268 . S
C401 O415 1.268 . S
C402 O408 1.268 . S
C402 O417 1.268 . S
C403 O409 1.268 . S
C403 O413 1.268 . S
C404 O410 1.268 . S
C404 O412 1.268 . S
C405 O411 1.268 . S
C405 O414 1.268 . S
O406 Sc396 2.105 . S
O406 C400 1.268 . S
O407 Sc397 2.105 . S
O407 C401 1.268 . S
O408 Sc398 2.105 . S
O408 C402 1.268 . S
O409 Sc396 2.105 . S
O409 C403 1.268 . S
O410 Sc398 2.105 . S
O410 C404 1.268 . S
O411 Sc397 2.105 . S
O411 C405 1.268 . S
O412 Sc396 2.105 . S
O412 C404 1.268 . S
O413 Sc397 2.105 . S
O413 C403 1.268 . S
O414 Sc398 2.105 . S
O414 C405 1.268 . S
O415 Sc396 2.105 . S
O415 C401 1.268 . S
O416 Sc398 2.105 . S
O416 C400 1.268 . S
O417 Sc397 2.105 . S
O417 C402 1.268 . S
Sc418 O421 2.025 . S
Sc418 O428 2.105 1_554 S
Sc418 O431 2.105 . S
Sc418 O434 2.105 . S
Sc418 O437 2.105 1_554 S
Sc419 O421 2.025 . S
Sc419 O429 2.105 1_554 S
Sc419 O433 2.105 . S
Sc419 O435 2.105 . S
Sc419 O439 2.105 1_554 S
Sc420 O421 2.025 . S
Sc420 O430 2.105 1_554 S
Sc420 O432 2.105 . S
Sc420 O436 2.105 . S
Sc420 O438 2.105 1_554 S
O421 Sc418 2.025 . S
O421 Sc419 2.025 . S
O421 Sc420 2.025 . S
C422 O428 1.268 . S
C422 O438 1.268 . S
C423 O429 1.268 . S
C423 O437 1.268 . S
C424 O430 1.268 . S
C424 O439 1.268 . S
C425 O431 1.268 . S
C425 O435 1.268 . S
C426 O432 1.268 . S
C426 O434 1.268 . S
C427 O433 1.268 . S
C427 O436 1.268 . S
O428 Sc418 2.105 1_556 S
O428 C422 1.268 . S
O429 Sc419 2.105 1_556 S
O429 C423 1.268 . S
O430 Sc420 2.105 1_556 S
O430 C424 1.268 . S
O431 Sc418 2.105 . S
O431 C425 1.268 . S
O432 Sc420 2.105 . S
O432 C426 1.268 . S
O433 Sc419 2.105 . S
O433 C427 1.268 . S
O434 Sc418 2.105 . S
O434 C426 1.268 . S
O435 Sc419 2.105 . S
O435 C425 1.268 . S
O436 Sc420 2.105 . S
O436 C427 1.268 . S
O437 Sc418 2.105 1_556 S
O437 C423 1.268 . S
O438 Sc420 2.105 1_556 S
O438 C422 1.268 . S
O439 Sc419 2.105 1_556 S
O439 C424 1.268 . S
Sc440 O443 2.025 . S
Sc440 O450 2.105 . S
Sc440 O453 2.105 . S
Sc440 O456 2.105 . S
Sc440 O459 2.105 . S
Sc441 O443 2.025 . S
Sc441 O451 2.105 . S
Sc441 O455 2.105 . S
Sc441 O457 2.105 . S
Sc441 O461 2.105 . S
Sc442 O443 2.025 . S
Sc442 O452 2.105 . S
Sc442 O454 2.105 . S
Sc442 O458 2.105 . S
Sc442 O460 2.105 . S
O443 Sc440 2.025 . S
O443 Sc441 2.025 . S
O443 Sc442 2.025 . S
C444 O450 1.268 . S
C444 O460 1.268 . S
C445 O451 1.268 . S
C445 O459 1.268 . S
C446 O452 1.268 . S
C446 O461 1.268 . S
C447 O453 1.268 . S
C447 O457 1.268 . S
C448 O454 1.268 . S
C448 O456 1.268 . S
C449 O455 1.268 . S
C449 O458 1.268 . S
O450 Sc440 2.105 . S
O450 C444 1.268 . S
O451 Sc441 2.105 . S
O451 C445 1.268 . S
O452 Sc442 2.105 . S
O452 C446 1.268 . S
O453 Sc440 2.105 . S
O453 C447 1.268 . S
O454 Sc442 2.105 . S
O454 C448 1.268 . S
O455 Sc441 2.105 . S
O455 C449 1.268 . S
O456 Sc440 2.105 . S
O456 C448 1.268 . S
O457 Sc441 2.105 . S
O457 C447 1.268 . S
O458 Sc442 2.105 . S
O458 C449 1.268 . S
O459 Sc440 2.105 . S
O459 C445 1.268 . S
O460 Sc442 2.105 . S
O460 C444 1.268 . S
O461 Sc441 2.105 . S
O461 C446 1.268 . S
Sc462 O465 2.025 . S
Sc462 O472 2.105 1_554 S
Sc462 O475 2.105 . S
Sc462 O478 2.105 . S
Sc462 O481 2.105 1_554 S
Sc463 O465 2.025 . S
Sc463 O473 2.105 1_554 S
Sc463 O477 2.105 . S
Sc463 O479 2.105 . S
Sc463 O483 2.105 1_554 S
Sc464 O465 2.025 . S
Sc464 O474 2.105 1_554 S
Sc464 O476 2.105 . S
Sc464 O480 2.105 . S
Sc464 O482 2.105 1_554 S
O465 Sc462 2.025 . S
O465 Sc463 2.025 . S
O465 Sc464 2.025 . S
C466 O472 1.268 . S
C466 O482 1.268 . S
C467 O473 1.268 . S
C467 O481 1.268 . S
C468 O474 1.268 . S
C468 O483 1.268 . S
C469 O475 1.268 . S
C469 O479 1.268 . S
C470 O476 1.268 . S
C470 O478 1.268 . S
C471 O477 1.268 . S
C471 O480 1.268 . S
O472 Sc462 2.105 1_556 S
O472 C466 1.268 . S
O473 Sc463 2.105 1_556 S
O473 C467 1.268 . S
O474 Sc464 2.105 1_556 S
O474 C468 1.268 . S
O475 Sc462 2.105 . S
O475 C469 1.268 . S
O476 Sc464 2.105 . S
O476 C470 1.268 . S
O477 Sc463 2.105 . S
O477 C471 1.268 . S
O478 Sc462 2.105 . S
O478 C470 1.268 . S
O479 Sc463 2.105 . S
O479 C469 1.268 . S
O480 Sc464 2.105 . S
O480 C471 1.268 . S
O481 Sc462 2.105 1_556 S
O481 C467 1.268 . S
O482 Sc464 2.105 1_556 S
O482 C466 1.268 . S
O483 Sc463 2.105 1_556 S
O483 C468 1.268 . S
Sc484 O487 2.025 . S
Sc484 O494 2.105 . S
Sc484 O497 2.105 . S
Sc484 O500 2.105 . S
Sc484 O503 2.105 . S
Sc485 O487 2.025 . S
Sc485 O495 2.105 . S
Sc485 O499 2.105 . S
Sc485 O501 2.105 . S
Sc485 O505 2.105 . S
Sc486 O487 2.025 . S
Sc486 O496 2.105 . S
Sc486 O498 2.105 . S
Sc486 O502 2.105 . S
Sc486 O504 2.105 . S
O487 Sc484 2.025 . S
O487 Sc485 2.025 . S
O487 Sc486 2.025 . S
C488 O494 1.268 . S
C488 O504 1.268 . S
C489 O495 1.268 . S
C489 O503 1.268 . S
C490 O496 1.268 . S
C490 O505 1.268 . S
C491 O497 1.268 . S
C491 O501 1.268 . S
C492 O498 1.268 . S
C492 O500 1.268 . S
C493 O499 1.268 . S
C493 O502 1.268 . S
O494 Sc484 2.105 . S
O494 C488 1.268 . S
O495 Sc485 2.105 . S
O495 C489 1.268 . S
O496 Sc486 2.105 . S
O496 C490 1.268 . S
O497 Sc484 2.105 . S
O497 C491 1.268 . S
O498 Sc486 2.105 . S
O498 C492 1.268 . S
O499 Sc485 2.105 . S
O499 C493 1.268 . S
O500 Sc484 2.105 . S
O500 C492 1.268 . S
O501 Sc485 2.105 . S
O501 C491 1.268 . S
O502 Sc486 2.105 . S
O502 C493 1.268 . S
O503 Sc484 2.105 . S
O503 C489 1.268 . S
O504 Sc486 2.105 . S
O504 C488 1.268 . S
O505 Sc485 2.105 . S
O505 C490 1.268 . S
Sc506 O509 2.025 . S
Sc506 O516 2.105 . S
Sc506 O519 2.105 . S
Sc506 O522 2.105 . S
Sc506 O525 2.105 . S
Sc507 O509 2.025 . S
Sc507 O517 2.105 . S
Sc507 O521 2.105 . S
Sc507 O523 2.105 . S
Sc507 O527 2.105 . S
Sc508 O509 2.025 . S
Sc508 O518 2.105 . S
Sc508 O520 2.105 . S
Sc508 O524 2.105 . S
Sc508 O526 2.105 . S
O509 Sc506 2.025 . S
O509 Sc507 2.025 . S
O509 Sc508 2.025 . S
C510 O516 1.268 . S
C510 O526 1.268 . S
C511 O517 1.268 . S
C511 O525 1.268 . S
C512 O518 1.268 . S
C512 O527 1.268 . S
C513 O519 1.268 . S
C513 O523 1.268 . S
C514 O520 1.268 . S
C514 O522 1.268 . S
C515 O521 1.268 . S
C515 O524 1.268 . S
O516 Sc506 2.105 . S
O516 C510 1.268 . S
O517 Sc507 2.105 . S
O517 C511 1.268 . S
O518 Sc508 2.105 . S
O518 C512 1.268 . S
O519 Sc506 2.105 . S
O519 C513 1.268 . S
O520 Sc508 2.105 . S
O520 C514 1.268 . S
O521 Sc507 2.105 . S
O521 C515 1.268 . S
O522 Sc506 2.105 . S
O522 C514 1.268 . S
O523 Sc507 2.105 . S
O523 C513 1.268 . S
O524 Sc508 2.105 . S
O524 C515 1.268 . S
O525 Sc506 2.105 . S
O525 C511 1.268 . S
O526 Sc508 2.105 . S
O526 C510 1.268 . S
O527 Sc507 2.105 . S
O527 C512 1.268 . S
H528 C534 0.930 . S
H529 C537 0.930 . S
H530 C538 0.930 . S
H531 C539 0.930 . S
H532 C542 0.930 . S
H533 C543 0.930 . S
C534 H528 0.930 . S
C534 C535 1.355 . S
C534 C536 1.415 . S
C535 C534 1.355 . S
C535 C537 1.419 . S
C536 C534 1.415 . S
C536 C541 1.425 . S
C536 C543 1.409 . S
C537 H529 0.930 . S
C537 C535 1.419 . S
C537 C538 1.362 . S
C538 H530 0.930 . S
C538 C537 1.362 . S
C538 C541 1.409 . S
C539 H531 0.930 . S
C539 C540 1.355 . S
C539 C541 1.415 . S
C540 C539 1.355 . S
C540 C542 1.419 . S
C541 C536 1.425 . S
C541 C538 1.409 . S
C541 C539 1.415 . S
C542 H532 0.930 . S
C542 C540 1.419 . S
C542 C543 1.362 . S
C543 H533 0.930 . S
C543 C536 1.409 . S
C543 C542 1.362 . S
H544 C550 0.930 . S
H545 C553 0.930 . S
H546 C554 0.930 . S
H547 C555 0.930 . S
H548 C558 0.930 . S
H549 C559 0.930 . S
C550 H544 0.930 . S
C550 C551 1.355 . S
C550 C552 1.415 . S
C551 C550 1.355 . S
C551 C553 1.419 . S
C552 C550 1.415 . S
C552 C557 1.425 . S
C552 C559 1.409 . S
C553 H545 0.930 . S
C553 C551 1.419 . S
C553 C554 1.362 . S
C554 H546 0.930 . S
C554 C553 1.362 . S
C554 C557 1.409 . S
C555 H547 0.930 . S
C555 C556 1.355 . S
C555 C557 1.415 . S
C556 C555 1.355 . S
C556 C558 1.419 . S
C557 C552 1.425 . S
C557 C554 1.409 . S
C557 C555 1.415 . S
C558 H548 0.930 . S
C558 C556 1.419 . S
C558 C559 1.362 . S
C559 H549 0.930 . S
C559 C552 1.409 . S
C559 C558 1.362 . S
H560 C566 0.930 . S
H561 C569 0.930 . S
H562 C570 0.930 . S
H563 C571 0.930 . S
H564 C574 0.930 . S
H565 C575 0.930 . S
C566 H560 0.930 . S
C566 C567 1.355 . S
C566 C568 1.415 . S
C567 C566 1.355 . S
C567 C569 1.419 . S
C568 C566 1.415 . S
C568 C573 1.425 . S
C568 C575 1.409 . S
C569 H561 0.930 . S
C569 C567 1.419 . S
C569 C570 1.362 . S
C570 H562 0.930 . S
C570 C569 1.362 . S
C570 C573 1.409 . S
C571 H563 0.930 . S
C571 C572 1.355 . S
C571 C573 1.415 . S
C572 C571 1.355 . S
C572 C574 1.419 . S
C573 C568 1.425 . S
C573 C570 1.409 . S
C573 C571 1.415 . S
C574 H564 0.930 . S
C574 C572 1.419 . S
C574 C575 1.362 . S
C575 H565 0.930 . S
C575 C568 1.409 . S
C575 C574 1.362 . S
H576 C582 0.930 . S
H577 C585 0.930 . S
H578 C586 0.930 . S
H579 C587 0.930 . S
H580 C590 0.930 . S
H581 C591 0.930 . S
C582 H576 0.930 . S
C582 C583 1.355 . S
C582 C584 1.415 . S
C583 C582 1.355 . S
C583 C585 1.419 . S
C584 C582 1.415 . S
C584 C589 1.425 . S
C584 C591 1.409 . S
C585 H577 0.930 . S
C585 C583 1.419 . S
C585 C586 1.362 . S
C586 H578 0.930 . S
C586 C585 1.362 . S
C586 C589 1.409 . S
C587 H579 0.930 . S
C587 C588 1.355 . S
C587 C589 1.415 . S
C588 C587 1.355 . S
C588 C590 1.419 . S
C589 C584 1.425 . S
C589 C586 1.409 . S
C589 C587 1.415 . S
C590 H580 0.930 . S
C590 C588 1.419 . S
C590 C591 1.362 . S
C591 H581 0.930 . S
C591 C584 1.409 . S
C591 C590 1.362 . S
H592 C598 0.930 . S
H593 C601 0.930 . S
H594 C602 0.930 . S
H595 C603 0.930 . S
H596 C606 0.930 . S
H597 C607 0.930 . S
C598 H592 0.930 . S
C598 C599 1.355 . S
C598 C600 1.415 . S
C599 C598 1.355 . S
C599 C601 1.419 . S
C600 C598 1.415 . S
C600 C605 1.425 . S
C600 C607 1.409 . S
C601 H593 0.930 . S
C601 C599 1.419 . S
C601 C602 1.362 . S
C602 H594 0.930 . S
C602 C601 1.362 . S
C602 C605 1.409 . S
C603 H595 0.930 . S
C603 C604 1.355 . S
C603 C605 1.415 . S
C604 C603 1.355 . S
C604 C606 1.419 . S
C605 C600 1.425 . S
C605 C602 1.409 . S
C605 C603 1.415 . S
C606 H596 0.930 . S
C606 C604 1.419 . S
C606 C607 1.362 . S
C607 H597 0.930 . S
C607 C600 1.409 . S
C607 C606 1.362 . S
H608 C614 0.930 . S
H609 C617 0.930 . S
H610 C618 0.930 . S
H611 C619 0.930 . S
H612 C622 0.930 . S
H613 C623 0.930 . S
C614 H608 0.930 . S
C614 C615 1.355 . S
C614 C616 1.415 . S
C615 C614 1.355 . S
C615 C617 1.419 . S
C616 C614 1.415 . S
C616 C621 1.425 . S
C616 C623 1.409 . S
C617 H609 0.930 . S
C617 C615 1.419 . S
C617 C618 1.362 . S
C618 H610 0.930 . S
C618 C617 1.362 . S
C618 C621 1.409 . S
C619 H611 0.930 . S
C619 C620 1.355 . S
C619 C621 1.415 . S
C620 C619 1.355 . S
C620 C622 1.419 . S
C621 C616 1.425 . S
C621 C618 1.409 . S
C621 C619 1.415 . S
C622 H612 0.930 . S
C622 C620 1.419 . S
C622 C623 1.362 . S
C623 H613 0.930 . S
C623 C616 1.409 . S
C623 C622 1.362 . S
H624 C630 0.930 . S
H625 C633 0.930 . S
H626 C634 0.930 . S
H627 C635 0.930 . S
H628 C638 0.930 . S
H629 C639 0.930 . S
C630 H624 0.930 . S
C630 C631 1.355 . S
C630 C632 1.415 . S
C631 C630 1.355 . S
C631 C633 1.419 . S
C632 C630 1.415 . S
C632 C637 1.425 . S
C632 C639 1.409 . S
C633 H625 0.930 . S
C633 C631 1.419 . S
C633 C634 1.362 . S
C634 H626 0.930 . S
C634 C633 1.362 . S
C634 C637 1.409 . S
C635 H627 0.930 . S
C635 C636 1.355 . S
C635 C637 1.415 . S
C636 C635 1.355 . S
C636 C638 1.419 . S
C637 C632 1.425 . S
C637 C634 1.409 . S
C637 C635 1.415 . S
C638 H628 0.930 . S
C638 C636 1.419 . S
C638 C639 1.362 . S
C639 H629 0.930 . S
C639 C632 1.409 . S
C639 C638 1.362 . S
H640 C646 0.930 . S
H641 C649 0.930 . S
H642 C650 0.930 . S
H643 C651 0.930 . S
H644 C654 0.930 . S
H645 C655 0.930 . S
C646 H640 0.930 . S
C646 C647 1.355 . S
C646 C648 1.415 . S
C647 C646 1.355 . S
C647 C649 1.419 . S
C648 C646 1.415 . S
C648 C653 1.425 . S
C648 C655 1.409 . S
C649 H641 0.930 . S
C649 C647 1.419 . S
C649 C650 1.362 . S
C650 H642 0.930 . S
C650 C649 1.362 . S
C650 C653 1.409 . S
C651 H643 0.930 . S
C651 C652 1.355 . S
C651 C653 1.415 . S
C652 C651 1.355 . S
C652 C654 1.419 . S
C653 C648 1.425 . S
C653 C650 1.409 . S
C653 C651 1.415 . S
C654 H644 0.930 . S
C654 C652 1.419 . S
C654 C655 1.362 . S
C655 H645 0.930 . S
C655 C648 1.409 . S
C655 C654 1.362 . S
H656 C662 0.930 . S
H657 C665 0.930 . S
H658 C666 0.930 . S
H659 C667 0.930 . S
H660 C670 0.930 . S
H661 C671 0.930 . S
C662 H656 0.930 . S
C662 C663 1.355 . S
C662 C664 1.415 . S
C663 C662 1.355 . S
C663 C665 1.419 . S
C664 C662 1.415 . S
C664 C669 1.425 . S
C664 C671 1.409 . S
C665 H657 0.930 . S
C665 C663 1.419 . S
C665 C666 1.362 . S
C666 H658 0.930 . S
C666 C665 1.362 . S
C666 C669 1.409 . S
C667 H659 0.930 . S
C667 C668 1.355 . S
C667 C669 1.415 . S
C668 C667 1.355 . S
C668 C670 1.419 . S
C669 C664 1.425 . S
C669 C666 1.409 . S
C669 C667 1.415 . S
C670 H660 0.930 . S
C670 C668 1.419 . S
C670 C671 1.362 . S
C671 H661 0.930 . S
C671 C664 1.409 . S
C671 C670 1.362 . S
H672 C678 0.930 . S
H673 C681 0.930 . S
H674 C682 0.930 . S
H675 C683 0.930 . S
H676 C686 0.930 . S
H677 C687 0.930 . S
C678 H672 0.930 . S
C678 C679 1.355 . S
C678 C680 1.415 . S
C679 C678 1.355 . S
C679 C681 1.419 . S
C680 C678 1.415 . S
C680 C685 1.425 . S
C680 C687 1.409 . S
C681 H673 0.930 . S
C681 C679 1.419 . S
C681 C682 1.362 . S
C682 H674 0.930 . S
C682 C681 1.362 . S
C682 C685 1.409 . S
C683 H675 0.930 . S
C683 C684 1.355 . S
C683 C685 1.415 . S
C684 C683 1.355 . S
C684 C686 1.419 . S
C685 C680 1.425 . S
C685 C682 1.409 . S
C685 C683 1.415 . S
C686 H676 0.930 . S
C686 C684 1.419 . S
C686 C687 1.362 . S
C687 H677 0.930 . S
C687 C680 1.409 . S
C687 C686 1.362 . S
H688 C694 0.930 . S
H689 C697 0.930 . S
H690 C698 0.930 . S
H691 C699 0.930 . S
H692 C702 0.930 . S
H693 C703 0.930 . S
C694 H688 0.930 . S
C694 C695 1.355 . S
C694 C696 1.415 . S
C695 C694 1.355 . S
C695 C697 1.419 . S
C696 C694 1.415 . S
C696 C701 1.425 . S
C696 C703 1.409 . S
C697 H689 0.930 . S
C697 C695 1.419 . S
C697 C698 1.362 . S
C698 H690 0.930 . S
C698 C697 1.362 . S
C698 C701 1.409 . S
C699 H691 0.930 . S
C699 C700 1.355 . S
C699 C701 1.415 . S
C700 C699 1.355 . S
C700 C702 1.419 . S
C701 C696 1.425 . S
C701 C698 1.409 . S
C701 C699 1.415 . S
C702 H692 0.930 . S
C702 C700 1.419 . S
C702 C703 1.362 . S
C703 H693 0.930 . S
C703 C696 1.409 . S
C703 C702 1.362 . S
H704 C710 0.930 . S
H705 C713 0.930 . S
H706 C714 0.930 . S
H707 C715 0.930 . S
H708 C718 0.930 . S
H709 C719 0.930 . S
C710 H704 0.930 . S
C710 C711 1.355 . S
C710 C712 1.415 . S
C711 C710 1.355 . S
C711 C713 1.419 . S
C712 C710 1.415 . S
C712 C717 1.425 . S
C712 C719 1.409 . S
C713 H705 0.930 . S
C713 C711 1.419 . S
C713 C714 1.362 . S
C714 H706 0.930 . S
C714 C713 1.362 . S
C714 C717 1.409 . S
C715 H707 0.930 . S
C715 C716 1.355 . S
C715 C717 1.415 . S
C716 C715 1.355 . S
C716 C718 1.419 . S
C717 C712 1.425 . S
C717 C714 1.409 . S
C717 C715 1.415 . S
C718 H708 0.930 . S
C718 C716 1.419 . S
C718 C719 1.362 . S
C719 H709 0.930 . S
C719 C712 1.409 . S
C719 C718 1.362 . S
H720 C726 0.930 . S
H721 C729 0.930 . S
H722 C730 0.930 . S
H723 C731 0.930 . S
H724 C734 0.930 . S
H725 C735 0.930 . S
C726 H720 0.930 . S
C726 C727 1.355 . S
C726 C728 1.415 . S
C727 C726 1.355 . S
C727 C729 1.419 . S
C728 C726 1.415 . S
C728 C733 1.425 . S
C728 C735 1.409 . S
C729 H721 0.930 . S
C729 C727 1.419 . S
C729 C730 1.362 . S
C730 H722 0.930 . S
C730 C729 1.362 . S
C730 C733 1.409 . S
C731 H723 0.930 . S
C731 C732 1.355 . S
C731 C733 1.415 . S
C732 C731 1.355 . S
C732 C734 1.419 . S
C733 C728 1.425 . S
C733 C730 1.409 . S
C733 C731 1.415 . S
C734 H724 0.930 . S
C734 C732 1.419 . S
C734 C735 1.362 . S
C735 H725 0.930 . S
C735 C728 1.409 . S
C735 C734 1.362 . S
H736 C742 0.930 . S
H737 C745 0.930 . S
H738 C746 0.930 . S
H739 C747 0.930 . S
H740 C750 0.930 . S
H741 C751 0.930 . S
C742 H736 0.930 . S
C742 C743 1.355 . S
C742 C744 1.415 . S
C743 C742 1.355 . S
C743 C745 1.419 . S
C744 C742 1.415 . S
C744 C749 1.425 . S
C744 C751 1.409 . S
C745 H737 0.930 . S
C745 C743 1.419 . S
C745 C746 1.362 . S
C746 H738 0.930 . S
C746 C745 1.362 . S
C746 C749 1.409 . S
C747 H739 0.930 . S
C747 C748 1.355 . S
C747 C749 1.415 . S
C748 C747 1.355 . S
C748 C750 1.419 . S
C749 C744 1.425 . S
C749 C746 1.409 . S
C749 C747 1.415 . S
C750 H740 0.930 . S
C750 C748 1.419 . S
C750 C751 1.362 . S
C751 H741 0.930 . S
C751 C744 1.409 . S
C751 C750 1.362 . S
H752 C758 0.930 . S
H753 C761 0.930 . S
H754 C762 0.930 . S
H755 C763 0.930 . S
H756 C766 0.930 . S
H757 C767 0.930 . S
C758 H752 0.930 . S
C758 C759 1.355 . S
C758 C760 1.415 . S
C759 C758 1.355 . S
C759 C761 1.419 . S
C760 C758 1.415 . S
C760 C765 1.425 . S
C760 C767 1.409 . S
C761 H753 0.930 . S
C761 C759 1.419 . S
C761 C762 1.362 . S
C762 H754 0.930 . S
C762 C761 1.362 . S
C762 C765 1.409 . S
C763 H755 0.930 . S
C763 C764 1.355 . S
C763 C765 1.415 . S
C764 C763 1.355 . S
C764 C766 1.419 . S
C765 C760 1.425 . S
C765 C762 1.409 . S
C765 C763 1.415 . S
C766 H756 0.930 . S
C766 C764 1.419 . S
C766 C767 1.362 . S
C767 H757 0.930 . S
C767 C760 1.409 . S
C767 C766 1.362 . S
H768 C774 0.930 . S
H769 C777 0.930 . S
H770 C778 0.930 . S
H771 C779 0.930 . S
H772 C782 0.930 . S
H773 C783 0.930 . S
C774 H768 0.930 . S
C774 C775 1.355 . S
C774 C776 1.415 . S
C775 C774 1.355 . S
C775 C777 1.419 . S
C776 C774 1.415 . S
C776 C781 1.425 . S
C776 C783 1.409 . S
C777 H769 0.930 . S
C777 C775 1.419 . S
C777 C778 1.362 . S
C778 H770 0.930 . S
C778 C777 1.362 . S
C778 C781 1.409 . S
C779 H771 0.930 . S
C779 C780 1.355 . S
C779 C781 1.415 . S
C780 C779 1.355 . S
C780 C782 1.419 . S
C781 C776 1.425 . S
C781 C778 1.409 . S
C781 C779 1.415 . S
C782 H772 0.930 . S
C782 C780 1.419 . S
C782 C783 1.362 . S
C783 H773 0.930 . S
C783 C776 1.409 . S
C783 C782 1.362 . S
H784 C790 0.930 . S
H785 C793 0.930 . S
H786 C794 0.930 . S
H787 C795 0.930 . S
H788 C798 0.930 . S
H789 C799 0.930 . S
C790 H784 0.930 . S
C790 C791 1.355 . S
C790 C792 1.415 . S
C791 C790 1.355 . S
C791 C793 1.419 . S
C792 C790 1.415 . S
C792 C797 1.425 . S
C792 C799 1.409 . S
C793 H785 0.930 . S
C793 C791 1.419 . S
C793 C794 1.362 . S
C794 H786 0.930 . S
C794 C793 1.362 . S
C794 C797 1.409 . S
C795 H787 0.930 . S
C795 C796 1.355 . S
C795 C797 1.415 . S
C796 C795 1.355 . S
C796 C798 1.419 . S
C797 C792 1.425 . S
C797 C794 1.409 . S
C797 C795 1.415 . S
C798 H788 0.930 . S
C798 C796 1.419 . S
C798 C799 1.362 . S
C799 H789 0.930 . S
C799 C792 1.409 . S
C799 C798 1.362 . S
H800 C806 0.930 . S
H801 C809 0.930 . S
H802 C810 0.930 . S
H803 C811 0.930 . S
H804 C814 0.930 . S
H805 C815 0.930 . S
C806 H800 0.930 . S
C806 C807 1.355 . S
C806 C808 1.415 . S
C807 C806 1.355 . S
C807 C809 1.419 . S
C808 C806 1.415 . S
C808 C813 1.425 . S
C808 C815 1.409 . S
C809 H801 0.930 . S
C809 C807 1.419 . S
C809 C810 1.362 . S
C810 H802 0.930 . S
C810 C809 1.362 . S
C810 C813 1.409 . S
C811 H803 0.930 . S
C811 C812 1.355 . S
C811 C813 1.415 . S
C812 C811 1.355 . S
C812 C814 1.419 . S
C813 C808 1.425 . S
C813 C810 1.409 . S
C813 C811 1.415 . S
C814 H804 0.930 . S
C814 C812 1.419 . S
C814 C815 1.362 . S
C815 H805 0.930 . S
C815 C808 1.409 . S
C815 C814 1.362 . S
H816 C822 0.930 . S
H817 C825 0.930 . S
H818 C826 0.930 . S
H819 C827 0.930 . S
H820 C830 0.930 . S
H821 C831 0.930 . S
C822 H816 0.930 . S
C822 C823 1.355 . S
C822 C824 1.415 . S
C823 C822 1.355 . S
C823 C825 1.419 . S
C824 C822 1.415 . S
C824 C829 1.425 . S
C824 C831 1.409 . S
C825 H817 0.930 . S
C825 C823 1.419 . S
C825 C826 1.362 . S
C826 H818 0.930 . S
C826 C825 1.362 . S
C826 C829 1.409 . S
C827 H819 0.930 . S
C827 C828 1.355 . S
C827 C829 1.415 . S
C828 C827 1.355 . S
C828 C830 1.419 . S
C829 C824 1.425 . S
C829 C826 1.409 . S
C829 C827 1.415 . S
C830 H820 0.930 . S
C830 C828 1.419 . S
C830 C831 1.362 . S
C831 H821 0.930 . S
C831 C824 1.409 . S
C831 C830 1.362 . S
H832 C838 0.930 . S
H833 C841 0.930 . S
H834 C842 0.930 . S
H835 C843 0.930 . S
H836 C846 0.930 . S
H837 C847 0.930 . S
C838 H832 0.930 . S
C838 C839 1.355 . S
C838 C840 1.415 . S
C839 C838 1.355 . S
C839 C841 1.419 . S
C840 C838 1.415 . S
C840 C845 1.425 . S
C840 C847 1.409 . S
C841 H833 0.930 . S
C841 C839 1.419 . S
C841 C842 1.362 . S
C842 H834 0.930 . S
C842 C841 1.362 . S
C842 C845 1.409 . S
C843 H835 0.930 . S
C843 C844 1.355 . S
C843 C845 1.415 . S
C844 C843 1.355 . S
C844 C846 1.419 . S
C845 C840 1.425 . S
C845 C842 1.409 . S
C845 C843 1.415 . S
C846 H836 0.930 . S
C846 C844 1.419 . S
C846 C847 1.362 . S
C847 H837 0.930 . S
C847 C840 1.409 . S
C847 C846 1.362 . S
H848 C854 0.930 . S
H849 C857 0.930 . S
H850 C858 0.930 . S
H851 C859 0.930 . S
H852 C862 0.930 . S
H853 C863 0.930 . S
C854 H848 0.930 . S
C854 C855 1.355 . S
C854 C856 1.415 . S
C855 C854 1.355 . S
C855 C857 1.419 . S
C856 C854 1.415 . S
C856 C861 1.425 . S
C856 C863 1.409 . S
C857 H849 0.930 . S
C857 C855 1.419 . S
C857 C858 1.362 . S
C858 H850 0.930 . S
C858 C857 1.362 . S
C858 C861 1.409 . S
C859 H851 0.930 . S
C859 C860 1.355 . S
C859 C861 1.415 . S
C860 C859 1.355 . S
C860 C862 1.419 . S
C861 C856 1.425 . S
C861 C858 1.409 . S
C861 C859 1.415 . S
C862 H852 0.930 . S
C862 C860 1.419 . S
C862 C863 1.362 . S
C863 H853 0.930 . S
C863 C856 1.409 . S
C863 C862 1.362 . S
H864 C870 0.930 . S
H865 C873 0.930 . S
H866 C874 0.930 . S
H867 C875 0.930 . S
H868 C878 0.930 . S
H869 C879 0.930 . S
C870 H864 0.930 . S
C870 C871 1.355 . S
C870 C872 1.415 . S
C871 C870 1.355 . S
C871 C873 1.419 . S
C872 C870 1.415 . S
C872 C877 1.425 . S
C872 C879 1.409 . S
C873 H865 0.930 . S
C873 C871 1.419 . S
C873 C874 1.362 . S
C874 H866 0.930 . S
C874 C873 1.362 . S
C874 C877 1.409 . S
C875 H867 0.930 . S
C875 C876 1.355 . S
C875 C877 1.415 . S
C876 C875 1.355 . S
C876 C878 1.419 . S
C877 C872 1.425 . S
C877 C874 1.409 . S
C877 C875 1.415 . S
C878 H868 0.930 . S
C878 C876 1.419 . S
C878 C879 1.362 . S
C879 H869 0.930 . S
C879 C872 1.409 . S
C879 C878 1.362 . S
H880 C886 0.930 . S
H881 C889 0.930 . S
H882 C890 0.930 . S
H883 C891 0.930 . S
H884 C894 0.930 . S
H885 C895 0.930 . S
C886 H880 0.930 . S
C886 C887 1.355 . S
C886 C888 1.415 . S
C887 C886 1.355 . S
C887 C889 1.419 . S
C888 C886 1.415 . S
C888 C893 1.425 . S
C888 C895 1.409 . S
C889 H881 0.930 . S
C889 C887 1.419 . S
C889 C890 1.362 . S
C890 H882 0.930 . S
C890 C889 1.362 . S
C890 C893 1.409 . S
C891 H883 0.930 . S
C891 C892 1.355 . S
C891 C893 1.415 . S
C892 C891 1.355 . S
C892 C894 1.419 . S
C893 C888 1.425 . S
C893 C890 1.409 . S
C893 C891 1.415 . S
C894 H884 0.930 . S
C894 C892 1.419 . S
C894 C895 1.362 . S
C895 H885 0.930 . S
C895 C888 1.409 . S
C895 C894 1.362 . S
H896 C902 0.930 . S
H897 C905 0.930 . S
H898 C906 0.930 . S
H899 C907 0.930 . S
H900 C910 0.930 . S
H901 C911 0.930 . S
C902 H896 0.930 . S
C902 C903 1.355 . S
C902 C904 1.415 . S
C903 C902 1.355 . S
C903 C905 1.419 . S
C904 C902 1.415 . S
C904 C909 1.425 . S
C904 C911 1.409 . S
C905 H897 0.930 . S
C905 C903 1.419 . S
C905 C906 1.362 . S
C906 H898 0.930 . S
C906 C905 1.362 . S
C906 C909 1.409 . S
C907 H899 0.930 . S
C907 C908 1.355 . S
C907 C909 1.415 . S
C908 C907 1.355 . S
C908 C910 1.419 . S
C909 C904 1.425 . S
C909 C906 1.409 . S
C909 C907 1.415 . S
C910 H900 0.930 . S
C910 C908 1.419 . S
C910 C911 1.362 . S
C911 H901 0.930 . S
C911 C904 1.409 . S
C911 C910 1.362 . S
H912 C918 0.930 . S
H913 C921 0.930 . S
H914 C922 0.930 . S
H915 C923 0.930 . S
H916 C926 0.930 . S
H917 C927 0.930 . S
C918 H912 0.930 . S
C918 C919 1.355 . S
C918 C920 1.415 . S
C919 C918 1.355 . S
C919 C921 1.419 . S
C920 C918 1.415 . S
C920 C925 1.425 . S
C920 C927 1.409 . S
C921 H913 0.930 . S
C921 C919 1.419 . S
C921 C922 1.362 . S
C922 H914 0.930 . S
C922 C921 1.362 . S
C922 C925 1.409 . S
C923 H915 0.930 . S
C923 C924 1.355 . S
C923 C925 1.415 . S
C924 C923 1.355 . S
C924 C926 1.419 . S
C925 C920 1.425 . S
C925 C922 1.409 . S
C925 C923 1.415 . S
C926 H916 0.930 . S
C926 C924 1.419 . S
C926 C927 1.362 . S
C927 H917 0.930 . S
C927 C920 1.409 . S
C927 C926 1.362 . S
H928 C934 0.930 . S
H929 C937 0.930 . S
H930 C938 0.930 . S
H931 C939 0.930 . S
H932 C942 0.930 . S
H933 C943 0.930 . S
C934 H928 0.930 . S
C934 C935 1.355 . S
C934 C936 1.415 . S
C935 C934 1.355 . S
C935 C937 1.419 . S
C936 C934 1.415 . S
C936 C941 1.425 . S
C936 C943 1.409 . S
C937 H929 0.930 . S
C937 C935 1.419 . S
C937 C938 1.362 . S
C938 H930 0.930 . S
C938 C937 1.362 . S
C938 C941 1.409 . S
C939 H931 0.930 . S
C939 C940 1.355 . S
C939 C941 1.415 . S
C940 C939 1.355 . S
C940 C942 1.419 . S
C941 C936 1.425 . S
C941 C938 1.409 . S
C941 C939 1.415 . S
C942 H932 0.930 . S
C942 C940 1.419 . S
C942 C943 1.362 . S
C943 H933 0.930 . S
C943 C936 1.409 . S
C943 C942 1.362 . S
H944 C950 0.930 . S
H945 C953 0.930 . S
H946 C954 0.930 . S
H947 C955 0.930 . S
H948 C958 0.930 . S
H949 C959 0.930 . S
C950 H944 0.930 . S
C950 C951 1.355 . S
C950 C952 1.415 . S
C951 C950 1.355 . S
C951 C953 1.419 . S
C952 C950 1.415 . S
C952 C957 1.425 . S
C952 C959 1.409 . S
C953 H945 0.930 . S
C953 C951 1.419 . S
C953 C954 1.362 . S
C954 H946 0.930 . S
C954 C953 1.362 . S
C954 C957 1.409 . S
C955 H947 0.930 . S
C955 C956 1.355 . S
C955 C957 1.415 . S
C956 C955 1.355 . S
C956 C958 1.419 . S
C957 C952 1.425 . S
C957 C954 1.409 . S
C957 C955 1.415 . S
C958 H948 0.930 . S
C958 C956 1.419 . S
C958 C959 1.362 . S
C959 H949 0.930 . S
C959 C952 1.409 . S
C959 C958 1.362 . S
H960 C966 0.930 . S
H961 C969 0.930 . S
H962 C970 0.930 . S
H963 C971 0.930 . S
H964 C974 0.930 . S
H965 C975 0.930 . S
C966 H960 0.930 . S
C966 C967 1.355 . S
C966 C968 1.415 . S
C967 C966 1.355 . S
C967 C969 1.419 . S
C968 C966 1.415 . S
C968 C973 1.425 . S
C968 C975 1.409 . S
C969 H961 0.930 . S
C969 C967 1.419 . S
C969 C970 1.362 . S
C970 H962 0.930 . S
C970 C969 1.362 . S
C970 C973 1.409 . S
C971 H963 0.930 . S
C971 C972 1.355 . S
C971 C973 1.415 . S
C972 C971 1.355 . S
C972 C974 1.419 . S
C973 C968 1.425 . S
C973 C970 1.409 . S
C973 C971 1.415 . S
C974 H964 0.930 . S
C974 C972 1.419 . S
C974 C975 1.362 . S
C975 H965 0.930 . S
C975 C968 1.409 . S
C975 C974 1.362 . S
H976 C982 0.930 . S
H977 C985 0.930 . S
H978 C986 0.930 . S
H979 C987 0.930 . S
H980 C990 0.930 . S
H981 C991 0.930 . S
C982 H976 0.930 . S
C982 C983 1.355 . S
C982 C984 1.415 . S
C983 C982 1.355 . S
C983 C985 1.419 . S
C984 C982 1.415 . S
C984 C989 1.425 . S
C984 C991 1.409 . S
C985 H977 0.930 . S
C985 C983 1.419 . S
C985 C986 1.362 . S
C986 H978 0.930 . S
C986 C985 1.362 . S
C986 C989 1.409 . S
C987 H979 0.930 . S
C987 C988 1.355 . S
C987 C989 1.415 . S
C988 C987 1.355 . S
C988 C990 1.419 . S
C989 C984 1.425 . S
C989 C986 1.409 . S
C989 C987 1.415 . S
C990 H980 0.930 . S
C990 C988 1.419 . S
C990 C991 1.362 . S
C991 H981 0.930 . S
C991 C984 1.409 . S
C991 C990 1.362 . S
H992 C998 0.930 . S
H993 C1001 0.930 . S
H994 C1002 0.930 . S
H995 C1003 0.930 . S
H996 C1006 0.930 . S
H997 C1007 0.930 . S
C998 H992 0.930 . S
C998 C999 1.355 . S
C998 C1000 1.415 . S
C999 C998 1.355 . S
C999 C1001 1.419 . S
C1000 C998 1.415 . S
C1000 C1005 1.425 . S
C1000 C1007 1.409 . S
C1001 H993 0.930 . S
C1001 C999 1.419 . S
C1001 C1002 1.362 . S
C1002 H994 0.930 . S
C1002 C1001 1.362 . S
C1002 C1005 1.409 . S
C1003 H995 0.930 . S
C1003 C1004 1.355 . S
C1003 C1005 1.415 . S
C1004 C1003 1.355 . S
C1004 C1006 1.419 . S
C1005 C1000 1.425 . S
C1005 C1002 1.409 . S
C1005 C1003 1.415 . S
C1006 H996 0.930 . S
C1006 C1004 1.419 . S
C1006 C1007 1.362 . S
C1007 H997 0.930 . S
C1007 C1000 1.409 . S
C1007 C1006 1.362 . S
H1008 C1014 0.930 . S
H1009 C1017 0.930 . S
H1010 C1018 0.930 . S
H1011 C1019 0.930 . S
H1012 C1022 0.930 . S
H1013 C1023 0.930 . S
C1014 H1008 0.930 . S
C1014 C1015 1.355 . S
C1014 C1016 1.415 . S
C1015 C1014 1.355 . S
C1015 C1017 1.419 . S
C1016 C1014 1.415 . S
C1016 C1021 1.425 . S
C1016 C1023 1.409 . S
C1017 H1009 0.930 . S
C1017 C1015 1.419 . S
C1017 C1018 1.362 . S
C1018 H1010 0.930 . S
C1018 C1017 1.362 . S
C1018 C1021 1.409 . S
C1019 H1011 0.930 . S
C1019 C1020 1.355 . S
C1019 C1021 1.415 . S
C1020 C1019 1.355 . S
C1020 C1022 1.419 . S
C1021 C1016 1.425 . S
C1021 C1018 1.409 . S
C1021 C1019 1.415 . S
C1022 H1012 0.930 . S
C1022 C1020 1.419 . S
C1022 C1023 1.362 . S
C1023 H1013 0.930 . S
C1023 C1016 1.409 . S
C1023 C1022 1.362 . S
H1024 C1030 0.930 . S
H1025 C1033 0.930 . S
H1026 C1034 0.930 . S
H1027 C1035 0.930 . S
H1028 C1038 0.930 . S
H1029 C1039 0.930 . S
C1030 H1024 0.930 . S
C1030 C1031 1.355 . S
C1030 C1032 1.415 . S
C1031 C1030 1.355 . S
C1031 C1033 1.419 . S
C1032 C1030 1.415 . S
C1032 C1037 1.425 . S
C1032 C1039 1.409 . S
C1033 H1025 0.930 . S
C1033 C1031 1.419 . S
C1033 C1034 1.362 . S
C1034 H1026 0.930 . S
C1034 C1033 1.362 . S
C1034 C1037 1.409 . S
C1035 H1027 0.930 . S
C1035 C1036 1.355 . S
C1035 C1037 1.415 . S
C1036 C1035 1.355 . S
C1036 C1038 1.419 . S
C1037 C1032 1.425 . S
C1037 C1034 1.409 . S
C1037 C1035 1.415 . S
C1038 H1028 0.930 . S
C1038 C1036 1.419 . S
C1038 C1039 1.362 . S
C1039 H1029 0.930 . S
C1039 C1032 1.409 . S
C1039 C1038 1.362 . S
H1040 C1046 0.930 . S
H1041 C1049 0.930 . S
H1042 C1050 0.930 . S
H1043 C1051 0.930 . S
H1044 C1054 0.930 . S
H1045 C1055 0.930 . S
C1046 H1040 0.930 . S
C1046 C1047 1.355 . S
C1046 C1048 1.415 . S
C1047 C1046 1.355 . S
C1047 C1049 1.419 . S
C1048 C1046 1.415 . S
C1048 C1053 1.425 . S
C1048 C1055 1.409 . S
C1049 H1041 0.930 . S
C1049 C1047 1.419 . S
C1049 C1050 1.362 . S
C1050 H1042 0.930 . S
C1050 C1049 1.362 . S
C1050 C1053 1.409 . S
C1051 H1043 0.930 . S
C1051 C1052 1.355 . S
C1051 C1053 1.415 . S
C1052 C1051 1.355 . S
C1052 C1054 1.419 . S
C1053 C1048 1.425 . S
C1053 C1050 1.409 . S
C1053 C1051 1.415 . S
C1054 H1044 0.930 . S
C1054 C1052 1.419 . S
C1054 C1055 1.362 . S
C1055 H1045 0.930 . S
C1055 C1048 1.409 . S
C1055 C1054 1.362 . S
H1056 C1062 0.930 . S
H1057 C1065 0.930 . S
H1058 C1066 0.930 . S
H1059 C1067 0.930 . S
H1060 C1070 0.930 . S
H1061 C1071 0.930 . S
C1062 H1056 0.930 . S
C1062 C1063 1.355 . S
C1062 C1064 1.415 . S
C1063 C1062 1.355 . S
C1063 C1065 1.419 . S
C1064 C1062 1.415 . S
C1064 C1069 1.425 . S
C1064 C1071 1.409 . S
C1065 H1057 0.930 . S
C1065 C1063 1.419 . S
C1065 C1066 1.362 . S
C1066 H1058 0.930 . S
C1066 C1065 1.362 . S
C1066 C1069 1.409 . S
C1067 H1059 0.930 . S
C1067 C1068 1.355 . S
C1067 C1069 1.415 . S
C1068 C1067 1.355 . S
C1068 C1070 1.419 . S
C1069 C1064 1.425 . S
C1069 C1066 1.409 . S
C1069 C1067 1.415 . S
C1070 H1060 0.930 . S
C1070 C1068 1.419 . S
C1070 C1071 1.362 . S
C1071 H1061 0.930 . S
C1071 C1064 1.409 . S
C1071 C1070 1.362 . S
H1072 C1078 0.930 . S
H1073 C1081 0.930 . S
H1074 C1082 0.930 . S
H1075 C1083 0.930 . S
H1076 C1086 0.930 . S
H1077 C1087 0.930 . S
C1078 H1072 0.930 . S
C1078 C1079 1.355 . S
C1078 C1080 1.415 . S
C1079 C1078 1.355 . S
C1079 C1081 1.419 . S
C1080 C1078 1.415 . S
C1080 C1085 1.425 . S
C1080 C1087 1.409 . S
C1081 H1073 0.930 . S
C1081 C1079 1.419 . S
C1081 C1082 1.362 . S
C1082 H1074 0.930 . S
C1082 C1081 1.362 . S
C1082 C1085 1.409 . S
C1083 H1075 0.930 . S
C1083 C1084 1.355 . S
C1083 C1085 1.415 . S
C1084 C1083 1.355 . S
C1084 C1086 1.419 . S
C1085 C1080 1.425 . S
C1085 C1082 1.409 . S
C1085 C1083 1.415 . S
C1086 H1076 0.930 . S
C1086 C1084 1.419 . S
C1086 C1087 1.362 . S
C1087 H1077 0.930 . S
C1087 C1080 1.409 . S
C1087 C1086 1.362 . S
H1088 C1094 0.930 . S
H1089 C1097 0.930 . S
H1090 C1098 0.930 . S
H1091 C1099 0.930 . S
H1092 C1102 0.930 . S
H1093 C1103 0.930 . S
C1094 H1088 0.930 . S
C1094 C1095 1.355 . S
C1094 C1096 1.415 . S
C1095 C1094 1.355 . S
C1095 C1097 1.419 . S
C1096 C1094 1.415 . S
C1096 C1101 1.425 . S
C1096 C1103 1.409 . S
C1097 H1089 0.930 . S
C1097 C1095 1.419 . S
C1097 C1098 1.362 . S
C1098 H1090 0.930 . S
C1098 C1097 1.362 . S
C1098 C1101 1.409 . S
C1099 H1091 0.930 . S
C1099 C1100 1.355 . S
C1099 C1101 1.415 . S
C1100 C1099 1.355 . S
C1100 C1102 1.419 . S
C1101 C1096 1.425 . S
C1101 C1098 1.409 . S
C1101 C1099 1.415 . S
C1102 H1092 0.930 . S
C1102 C1100 1.419 . S
C1102 C1103 1.362 . S
C1103 H1093 0.930 . S
C1103 C1096 1.409 . S
C1103 C1102 1.362 . S
H1104 C1110 0.930 . S
H1105 C1113 0.930 . S
H1106 C1114 0.930 . S
H1107 C1115 0.930 . S
H1108 C1118 0.930 . S
H1109 C1119 0.930 . S
C1110 H1104 0.930 . S
C1110 C1111 1.355 . S
C1110 C1112 1.415 . S
C1111 C1110 1.355 . S
C1111 C1113 1.419 . S
C1112 C1110 1.415 . S
C1112 C1117 1.425 . S
C1112 C1119 1.409 . S
C1113 H1105 0.930 . S
C1113 C1111 1.419 . S
C1113 C1114 1.362 . S
C1114 H1106 0.930 . S
C1114 C1113 1.362 . S
C1114 C1117 1.409 . S
C1115 H1107 0.930 . S
C1115 C1116 1.355 . S
C1115 C1117 1.415 . S
C1116 C1115 1.355 . S
C1116 C1118 1.419 . S
C1117 C1112 1.425 . S
C1117 C1114 1.409 . S
C1117 C1115 1.415 . S
C1118 H1108 0.930 . S
C1118 C1116 1.419 . S
C1118 C1119 1.362 . S
C1119 H1109 0.930 . S
C1119 C1112 1.409 . S
C1119 C1118 1.362 . S
H1120 C1126 0.930 . S
H1121 C1129 0.930 . S
H1122 C1130 0.930 . S
H1123 C1131 0.930 . S
H1124 C1134 0.930 . S
H1125 C1135 0.930 . S
C1126 H1120 0.930 . S
C1126 C1127 1.355 . S
C1126 C1128 1.415 . S
C1127 C1126 1.355 . S
C1127 C1129 1.419 . S
C1128 C1126 1.415 . S
C1128 C1133 1.425 . S
C1128 C1135 1.409 . S
C1129 H1121 0.930 . S
C1129 C1127 1.419 . S
C1129 C1130 1.362 . S
C1130 H1122 0.930 . S
C1130 C1129 1.362 . S
C1130 C1133 1.409 . S
C1131 H1123 0.930 . S
C1131 C1132 1.355 . S
C1131 C1133 1.415 . S
C1132 C1131 1.355 . S
C1132 C1134 1.419 . S
C1133 C1128 1.425 . S
C1133 C1130 1.409 . S
C1133 C1131 1.415 . S
C1134 H1124 0.930 . S
C1134 C1132 1.419 . S
C1134 C1135 1.362 . S
C1135 H1125 0.930 . S
C1135 C1128 1.409 . S
C1135 C1134 1.362 . S
H1136 C1142 0.930 . S
H1137 C1145 0.930 . S
H1138 C1146 0.930 . S
H1139 C1147 0.930 . S
H1140 C1150 0.930 . S
H1141 C1151 0.930 . S
C1142 H1136 0.930 . S
C1142 C1143 1.355 . S
C1142 C1144 1.415 . S
C1143 C1142 1.355 . S
C1143 C1145 1.419 . S
C1144 C1142 1.415 . S
C1144 C1149 1.425 . S
C1144 C1151 1.409 . S
C1145 H1137 0.930 . S
C1145 C1143 1.419 . S
C1145 C1146 1.362 . S
C1146 H1138 0.930 . S
C1146 C1145 1.362 . S
C1146 C1149 1.409 . S
C1147 H1139 0.930 . S
C1147 C1148 1.355 . S
C1147 C1149 1.415 . S
C1148 C1147 1.355 . S
C1148 C1150 1.419 . S
C1149 C1144 1.425 . S
C1149 C1146 1.409 . S
C1149 C1147 1.415 . S
C1150 H1140 0.930 . S
C1150 C1148 1.419 . S
C1150 C1151 1.362 . S
C1151 H1141 0.930 . S
C1151 C1144 1.409 . S
C1151 C1150 1.362 . S
H1152 C1158 0.930 . S
H1153 C1161 0.930 . S
H1154 C1162 0.930 . S
H1155 C1163 0.930 . S
H1156 C1166 0.930 . S
H1157 C1167 0.930 . S
C1158 H1152 0.930 . S
C1158 C1159 1.355 . S
C1158 C1160 1.415 . S
C1159 C1158 1.355 . S
C1159 C1161 1.419 . S
C1160 C1158 1.415 . S
C1160 C1165 1.425 . S
C1160 C1167 1.409 . S
C1161 H1153 0.930 . S
C1161 C1159 1.419 . S
C1161 C1162 1.362 . S
C1162 H1154 0.930 . S
C1162 C1161 1.362 . S
C1162 C1165 1.409 . S
C1163 H1155 0.930 . S
C1163 C1164 1.355 . S
C1163 C1165 1.415 . S
C1164 C1163 1.355 . S
C1164 C1166 1.419 . S
C1165 C1160 1.425 . S
C1165 C1162 1.409 . S
C1165 C1163 1.415 . S
C1166 H1156 0.930 . S
C1166 C1164 1.419 . S
C1166 C1167 1.362 . S
C1167 H1157 0.930 . S
C1167 C1160 1.409 . S
C1167 C1166 1.362 . S
H1168 C1174 0.930 . S
H1169 C1177 0.930 . S
H1170 C1178 0.930 . S
H1171 C1179 0.930 . S
H1172 C1182 0.930 . S
H1173 C1183 0.930 . S
C1174 H1168 0.930 . S
C1174 C1175 1.355 . S
C1174 C1176 1.415 . S
C1175 C1174 1.355 . S
C1175 C1177 1.419 . S
C1176 C1174 1.415 . S
C1176 C1181 1.425 . S
C1176 C1183 1.409 . S
C1177 H1169 0.930 . S
C1177 C1175 1.419 . S
C1177 C1178 1.362 . S
C1178 H1170 0.930 . S
C1178 C1177 1.362 . S
C1178 C1181 1.409 . S
C1179 H1171 0.930 . S
C1179 C1180 1.355 . S
C1179 C1181 1.415 . S
C1180 C1179 1.355 . S
C1180 C1182 1.419 . S
C1181 C1176 1.425 . S
C1181 C1178 1.409 . S
C1181 C1179 1.415 . S
C1182 H1172 0.930 . S
C1182 C1180 1.419 . S
C1182 C1183 1.362 . S
C1183 H1173 0.930 . S
C1183 C1176 1.409 . S
C1183 C1182 1.362 . S
H1184 C1190 0.930 . S
H1185 C1193 0.930 . S
H1186 C1194 0.930 . S
H1187 C1195 0.930 . S
H1188 C1198 0.930 . S
H1189 C1199 0.930 . S
C1190 H1184 0.930 . S
C1190 C1191 1.355 . S
C1190 C1192 1.415 . S
C1191 C1190 1.355 . S
C1191 C1193 1.419 . S
C1192 C1190 1.415 . S
C1192 C1197 1.425 . S
C1192 C1199 1.409 . S
C1193 H1185 0.930 . S
C1193 C1191 1.419 . S
C1193 C1194 1.362 . S
C1194 H1186 0.930 . S
C1194 C1193 1.362 . S
C1194 C1197 1.409 . S
C1195 H1187 0.930 . S
C1195 C1196 1.355 . S
C1195 C1197 1.415 . S
C1196 C1195 1.355 . S
C1196 C1198 1.419 . S
C1197 C1192 1.425 . S
C1197 C1194 1.409 . S
C1197 C1195 1.415 . S
C1198 H1188 0.930 . S
C1198 C1196 1.419 . S
C1198 C1199 1.362 . S
C1199 H1189 0.930 . S
C1199 C1192 1.409 . S
C1199 C1198 1.362 . S
H1200 C1206 0.930 . S
H1201 C1209 0.930 . S
H1202 C1210 0.930 . S
H1203 C1211 0.930 . S
H1204 C1214 0.930 . S
H1205 C1215 0.930 . S
C1206 H1200 0.930 . S
C1206 C1207 1.355 . S
C1206 C1208 1.415 . S
C1207 C1206 1.355 . S
C1207 C1209 1.419 . S
C1208 C1206 1.415 . S
C1208 C1213 1.425 . S
C1208 C1215 1.409 . S
C1209 H1201 0.930 . S
C1209 C1207 1.419 . S
C1209 C1210 1.362 . S
C1210 H1202 0.930 . S
C1210 C1209 1.362 . S
C1210 C1213 1.409 . S
C1211 H1203 0.930 . S
C1211 C1212 1.355 . S
C1211 C1213 1.415 . S
C1212 C1211 1.355 . S
C1212 C1214 1.419 . S
C1213 C1208 1.425 . S
C1213 C1210 1.409 . S
C1213 C1211 1.415 . S
C1214 H1204 0.930 . S
C1214 C1212 1.419 . S
C1214 C1215 1.362 . S
C1215 H1205 0.930 . S
C1215 C1208 1.409 . S
C1215 C1214 1.362 . S
H1216 C1222 0.930 . S
H1217 C1225 0.930 . S
H1218 C1226 0.930 . S
H1219 C1227 0.930 . S
H1220 C1230 0.930 . S
H1221 C1231 0.930 . S
C1222 H1216 0.930 . S
C1222 C1223 1.355 . S
C1222 C1224 1.415 . S
C1223 C1222 1.355 . S
C1223 C1225 1.419 . S
C1224 C1222 1.415 . S
C1224 C1229 1.425 . S
C1224 C1231 1.409 . S
C1225 H1217 0.930 . S
C1225 C1223 1.419 . S
C1225 C1226 1.362 . S
C1226 H1218 0.930 . S
C1226 C1225 1.362 . S
C1226 C1229 1.409 . S
C1227 H1219 0.930 . S
C1227 C1228 1.355 . S
C1227 C1229 1.415 . S
C1228 C1227 1.355 . S
C1228 C1230 1.419 . S
C1229 C1224 1.425 . S
C1229 C1226 1.409 . S
C1229 C1227 1.415 . S
C1230 H1220 0.930 . S
C1230 C1228 1.419 . S
C1230 C1231 1.362 . S
C1231 H1221 0.930 . S
C1231 C1224 1.409 . S
C1231 C1230 1.362 . S
H1232 C1238 0.930 . S
H1233 C1241 0.930 . S
H1234 C1242 0.930 . S
H1235 C1243 0.930 . S
H1236 C1246 0.930 . S
H1237 C1247 0.930 . S
C1238 H1232 0.930 . S
C1238 C1239 1.355 . S
C1238 C1240 1.415 . S
C1239 C1238 1.355 . S
C1239 C1241 1.419 . S
C1240 C1238 1.415 . S
C1240 C1245 1.425 . S
C1240 C1247 1.409 . S
C1241 H1233 0.930 . S
C1241 C1239 1.419 . S
C1241 C1242 1.362 . S
C1242 H1234 0.930 . S
C1242 C1241 1.362 . S
C1242 C1245 1.409 . S
C1243 H1235 0.930 . S
C1243 C1244 1.355 . S
C1243 C1245 1.415 . S
C1244 C1243 1.355 . S
C1244 C1246 1.419 . S
C1245 C1240 1.425 . S
C1245 C1242 1.409 . S
C1245 C1243 1.415 . S
C1246 H1236 0.930 . S
C1246 C1244 1.419 . S
C1246 C1247 1.362 . S
C1247 H1237 0.930 . S
C1247 C1240 1.409 . S
C1247 C1246 1.362 . S
H1248 C1254 0.930 . S
H1249 C1257 0.930 . S
H1250 C1258 0.930 . S
H1251 C1259 0.930 . S
H1252 C1262 0.930 . S
H1253 C1263 0.930 . S
C1254 H1248 0.930 . S
C1254 C1255 1.355 . S
C1254 C1256 1.415 . S
C1255 C1254 1.355 . S
C1255 C1257 1.419 . S
C1256 C1254 1.415 . S
C1256 C1261 1.425 . S
C1256 C1263 1.409 . S
C1257 H1249 0.930 . S
C1257 C1255 1.419 . S
C1257 C1258 1.362 . S
C1258 H1250 0.930 . S
C1258 C1257 1.362 . S
C1258 C1261 1.409 . S
C1259 H1251 0.930 . S
C1259 C1260 1.355 . S
C1259 C1261 1.415 . S
C1260 C1259 1.355 . S
C1260 C1262 1.419 . S
C1261 C1256 1.425 . S
C1261 C1258 1.409 . S
C1261 C1259 1.415 . S
C1262 H1252 0.930 . S
C1262 C1260 1.419 . S
C1262 C1263 1.362 . S
C1263 H1253 0.930 . S
C1263 C1256 1.409 . S
C1263 C1262 1.362 . S
H1264 C1270 0.930 . S
H1265 C1273 0.930 . S
H1266 C1274 0.930 . S
H1267 C1275 0.930 . S
H1268 C1278 0.930 . S
H1269 C1279 0.930 . S
C1270 H1264 0.930 . S
C1270 C1271 1.355 . S
C1270 C1272 1.415 . S
C1271 C1270 1.355 . S
C1271 C1273 1.419 . S
C1272 C1270 1.415 . S
C1272 C1277 1.425 . S
C1272 C1279 1.409 . S
C1273 H1265 0.930 . S
C1273 C1271 1.419 . S
C1273 C1274 1.362 . S
C1274 H1266 0.930 . S
C1274 C1273 1.362 . S
C1274 C1277 1.409 . S
C1275 H1267 0.930 . S
C1275 C1276 1.355 . S
C1275 C1277 1.415 . S
C1276 C1275 1.355 . S
C1276 C1278 1.419 . S
C1277 C1272 1.425 . S
C1277 C1274 1.409 . S
C1277 C1275 1.415 . S
C1278 H1268 0.930 . S
C1278 C1276 1.419 . S
C1278 C1279 1.362 . S
C1279 H1269 0.930 . S
C1279 C1272 1.409 . S
C1279 C1278 1.362 . S
H1280 C1286 0.930 . S
H1281 C1289 0.930 . S
H1282 C1290 0.930 . S
H1283 C1291 0.930 . S
H1284 C1294 0.930 . S
H1285 C1295 0.930 . S
C1286 H1280 0.930 . S
C1286 C1287 1.355 . S
C1286 C1288 1.415 . S
C1287 C1286 1.355 . S
C1287 C1289 1.419 . S
C1288 C1286 1.415 . S
C1288 C1293 1.425 . S
C1288 C1295 1.409 . S
C1289 H1281 0.930 . S
C1289 C1287 1.419 . S
C1289 C1290 1.362 . S
C1290 H1282 0.930 . S
C1290 C1289 1.362 . S
C1290 C1293 1.409 . S
C1291 H1283 0.930 . S
C1291 C1292 1.355 . S
C1291 C1293 1.415 . S
C1292 C1291 1.355 . S
C1292 C1294 1.419 . S
C1293 C1288 1.425 . S
C1293 C1290 1.409 . S
C1293 C1291 1.415 . S
C1294 H1284 0.930 . S
C1294 C1292 1.419 . S
C1294 C1295 1.362 . S
C1295 H1285 0.930 . S
C1295 C1288 1.409 . S
C1295 C1294 1.362 . S
H1296 C1302 0.930 . S
H1297 C1305 0.930 . S
H1298 C1306 0.930 . S
H1299 C1307 0.930 . S
H1300 C1310 0.930 . S
H1301 C1311 0.930 . S
C1302 H1296 0.930 . S
C1302 C1303 1.355 . S
C1302 C1304 1.415 . S
C1303 C1302 1.355 . S
C1303 C1305 1.419 . S
C1304 C1302 1.415 . S
C1304 C1309 1.425 . S
C1304 C1311 1.409 . S
C1305 H1297 0.930 . S
C1305 C1303 1.419 . S
C1305 C1306 1.362 . S
C1306 H1298 0.930 . S
C1306 C1305 1.362 . S
C1306 C1309 1.409 . S
C1307 H1299 0.930 . S
C1307 C1308 1.355 . S
C1307 C1309 1.415 . S
C1308 C1307 1.355 . S
C1308 C1310 1.419 . S
C1309 C1304 1.425 . S
C1309 C1306 1.409 . S
C1309 C1307 1.415 . S
C1310 H1300 0.930 . S
C1310 C1308 1.419 . S
C1310 C1311 1.362 . S
C1311 H1301 0.930 . S
C1311 C1304 1.409 . S
C1311 C1310 1.362 . S
H1312 C1318 0.930 . S
H1313 C1321 0.930 . S
H1314 C1322 0.930 . S
H1315 C1323 0.930 . S
H1316 C1326 0.930 . S
H1317 C1327 0.930 . S
C1318 H1312 0.930 . S
C1318 C1319 1.355 . S
C1318 C1320 1.415 . S
C1319 C1318 1.355 . S
C1319 C1321 1.419 . S
C1320 C1318 1.415 . S
C1320 C1325 1.425 . S
C1320 C1327 1.409 . S
C1321 H1313 0.930 . S
C1321 C1319 1.419 . S
C1321 C1322 1.362 . S
C1322 H1314 0.930 . S
C1322 C1321 1.362 . S
C1322 C1325 1.409 . S
C1323 H1315 0.930 . S
C1323 C1324 1.355 . S
C1323 C1325 1.415 . S
C1324 C1323 1.355 . S
C1324 C1326 1.419 . S
C1325 C1320 1.425 . S
C1325 C1322 1.409 . S
C1325 C1323 1.415 . S
C1326 H1316 0.930 . S
C1326 C1324 1.419 . S
C1326 C1327 1.362 . S
C1327 H1317 0.930 . S
C1327 C1320 1.409 . S
C1327 C1326 1.362 . S
H1328 C1334 0.930 . S
H1329 C1337 0.930 . S
H1330 C1338 0.930 . S
H1331 C1339 0.930 . S
H1332 C1342 0.930 . S
H1333 C1343 0.930 . S
C1334 H1328 0.930 . S
C1334 C1335 1.355 . S
C1334 C1336 1.415 . S
C1335 C1334 1.355 . S
C1335 C1337 1.419 . S
C1336 C1334 1.415 . S
C1336 C1341 1.425 . S
C1336 C1343 1.409 . S
C1337 H1329 0.930 . S
C1337 C1335 1.419 . S
C1337 C1338 1.362 . S
C1338 H1330 0.930 . S
C1338 C1337 1.362 . S
C1338 C1341 1.409 . S
C1339 H1331 0.930 . S
C1339 C1340 1.355 . S
C1339 C1341 1.415 . S
C1340 C1339 1.355 . S
C1340 C1342 1.419 . S
C1341 C1336 1.425 . S
C1341 C1338 1.409 . S
C1341 C1339 1.415 . S
C1342 H1332 0.930 . S
C1342 C1340 1.419 . S
C1342 C1343 1.362 . S
C1343 H1333 0.930 . S
C1343 C1336 1.409 . S
C1343 C1342 1.362 . S
H1344 C1350 0.930 . S
H1345 C1353 0.930 . S
H1346 C1354 0.930 . S
H1347 C1355 0.930 . S
H1348 C1358 0.930 . S
H1349 C1359 0.930 . S
C1350 H1344 0.930 . S
C1350 C1351 1.355 . S
C1350 C1352 1.415 . S
C1351 C1350 1.355 . S
C1351 C1353 1.419 . S
C1352 C1350 1.415 . S
C1352 C1357 1.425 . S
C1352 C1359 1.409 . S
C1353 H1345 0.930 . S
C1353 C1351 1.419 . S
C1353 C1354 1.362 . S
C1354 H1346 0.930 . S
C1354 C1353 1.362 . S
C1354 C1357 1.409 . S
C1355 H1347 0.930 . S
C1355 C1356 1.355 . S
C1355 C1357 1.415 . S
C1356 C1355 1.355 . S
C1356 C1358 1.419 . S
C1357 C1352 1.425 . S
C1357 C1354 1.409 . S
C1357 C1355 1.415 . S
C1358 H1348 0.930 . S
C1358 C1356 1.419 . S
C1358 C1359 1.362 . S
C1359 H1349 0.930 . S
C1359 C1352 1.409 . S
C1359 C1358 1.362 . S
H1360 C1366 0.930 . S
H1361 C1369 0.930 . S
H1362 C1370 0.930 . S
H1363 C1371 0.930 . S
H1364 C1374 0.930 . S
H1365 C1375 0.930 . S
C1366 H1360 0.930 . S
C1366 C1367 1.355 . S
C1366 C1368 1.415 . S
C1367 C1366 1.355 . S
C1367 C1369 1.419 . S
C1368 C1366 1.415 . S
C1368 C1373 1.425 . S
C1368 C1375 1.409 . S
C1369 H1361 0.930 . S
C1369 C1367 1.419 . S
C1369 C1370 1.362 . S
C1370 H1362 0.930 . S
C1370 C1369 1.362 . S
C1370 C1373 1.409 . S
C1371 H1363 0.930 . S
C1371 C1372 1.355 . S
C1371 C1373 1.415 . S
C1372 C1371 1.355 . S
C1372 C1374 1.419 . S
C1373 C1368 1.425 . S
C1373 C1370 1.409 . S
C1373 C1371 1.415 . S
C1374 H1364 0.930 . S
C1374 C1372 1.419 . S
C1374 C1375 1.362 . S
C1375 H1365 0.930 . S
C1375 C1368 1.409 . S
C1375 C1374 1.362 . S
H1376 C1382 0.930 . S
H1377 C1385 0.930 . S
H1378 C1386 0.930 . S
H1379 C1387 0.930 . S
H1380 C1390 0.930 . S
H1381 C1391 0.930 . S
C1382 H1376 0.930 . S
C1382 C1383 1.355 . S
C1382 C1384 1.415 . S
C1383 C1382 1.355 . S
C1383 C1385 1.419 . S
C1384 C1382 1.415 . S
C1384 C1389 1.425 . S
C1384 C1391 1.409 . S
C1385 H1377 0.930 . S
C1385 C1383 1.419 . S
C1385 C1386 1.362 . S
C1386 H1378 0.930 . S
C1386 C1385 1.362 . S
C1386 C1389 1.409 . S
C1387 H1379 0.930 . S
C1387 C1388 1.355 . S
C1387 C1389 1.415 . S
C1388 C1387 1.355 . S
C1388 C1390 1.419 . S
C1389 C1384 1.425 . S
C1389 C1386 1.409 . S
C1389 C1387 1.415 . S
C1390 H1380 0.930 . S
C1390 C1388 1.419 . S
C1390 C1391 1.362 . S
C1391 H1381 0.930 . S
C1391 C1384 1.409 . S
C1391 C1390 1.362 . S
H1392 C1398 0.930 . S
H1393 C1401 0.930 . S
H1394 C1402 0.930 . S
H1395 C1403 0.930 . S
H1396 C1406 0.930 . S
H1397 C1407 0.930 . S
C1398 H1392 0.930 . S
C1398 C1399 1.355 . S
C1398 C1400 1.415 . S
C1399 C1398 1.355 . S
C1399 C1401 1.419 . S
C1400 C1398 1.415 . S
C1400 C1405 1.425 . S
C1400 C1407 1.409 . S
C1401 H1393 0.930 . S
C1401 C1399 1.419 . S
C1401 C1402 1.362 . S
C1402 H1394 0.930 . S
C1402 C1401 1.362 . S
C1402 C1405 1.409 . S
C1403 H1395 0.930 . S
C1403 C1404 1.355 . S
C1403 C1405 1.415 . S
C1404 C1403 1.355 . S
C1404 C1406 1.419 . S
C1405 C1400 1.425 . S
C1405 C1402 1.409 . S
C1405 C1403 1.415 . S
C1406 H1396 0.930 . S
C1406 C1404 1.419 . S
C1406 C1407 1.362 . S
C1407 H1397 0.930 . S
C1407 C1400 1.409 . S
C1407 C1406 1.362 . S
H1408 C1414 0.930 . S
H1409 C1417 0.930 . S
H1410 C1418 0.930 . S
H1411 C1419 0.930 . S
H1412 C1422 0.930 . S
H1413 C1423 0.930 . S
C1414 H1408 0.930 . S
C1414 C1415 1.355 . S
C1414 C1416 1.415 . S
C1415 C1414 1.355 . S
C1415 C1417 1.419 . S
C1416 C1414 1.415 . S
C1416 C1421 1.425 . S
C1416 C1423 1.409 . S
C1417 H1409 0.930 . S
C1417 C1415 1.419 . S
C1417 C1418 1.362 . S
C1418 H1410 0.930 . S
C1418 C1417 1.362 . S
C1418 C1421 1.409 . S
C1419 H1411 0.930 . S
C1419 C1420 1.355 . S
C1419 C1421 1.415 . S
C1420 C1419 1.355 . S
C1420 C1422 1.419 . S
C1421 C1416 1.425 . S
C1421 C1418 1.409 . S
C1421 C1419 1.415 . S
C1422 H1412 0.930 . S
C1422 C1420 1.419 . S
C1422 C1423 1.362 . S
C1423 H1413 0.930 . S
C1423 C1416 1.409 . S
C1423 C1422 1.362 . S
H1424 C1430 0.930 . S
H1425 C1433 0.930 . S
H1426 C1434 0.930 . S
H1427 C1435 0.930 . S
H1428 C1438 0.930 . S
H1429 C1439 0.930 . S
C1430 H1424 0.930 . S
C1430 C1431 1.355 . S
C1430 C1432 1.415 . S
C1431 C1430 1.355 . S
C1431 C1433 1.419 . S
C1432 C1430 1.415 . S
C1432 C1437 1.425 . S
C1432 C1439 1.409 . S
C1433 H1425 0.930 . S
C1433 C1431 1.419 . S
C1433 C1434 1.362 . S
C1434 H1426 0.930 . S
C1434 C1433 1.362 . S
C1434 C1437 1.409 . S
C1435 H1427 0.930 . S
C1435 C1436 1.355 . S
C1435 C1437 1.415 . S
C1436 C1435 1.355 . S
C1436 C1438 1.419 . S
C1437 C1432 1.425 . S
C1437 C1434 1.409 . S
C1437 C1435 1.415 . S
C1438 H1428 0.930 . S
C1438 C1436 1.419 . S
C1438 C1439 1.362 . S
C1439 H1429 0.930 . S
C1439 C1432 1.409 . S
C1439 C1438 1.362 . S
H1440 C1446 0.930 . S
H1441 C1449 0.930 . S
H1442 C1450 0.930 . S
H1443 C1451 0.930 . S
H1444 C1454 0.930 . S
H1445 C1455 0.930 . S
C1446 H1440 0.930 . S
C1446 C1447 1.355 . S
C1446 C1448 1.415 . S
C1447 C1446 1.355 . S
C1447 C1449 1.419 . S
C1448 C1446 1.415 . S
C1448 C1453 1.425 . S
C1448 C1455 1.409 . S
C1449 H1441 0.930 . S
C1449 C1447 1.419 . S
C1449 C1450 1.362 . S
C1450 H1442 0.930 . S
C1450 C1449 1.362 . S
C1450 C1453 1.409 . S
C1451 H1443 0.930 . S
C1451 C1452 1.355 . S
C1451 C1453 1.415 . S
C1452 C1451 1.355 . S
C1452 C1454 1.419 . S
C1453 C1448 1.425 . S
C1453 C1450 1.409 . S
C1453 C1451 1.415 . S
C1454 H1444 0.930 . S
C1454 C1452 1.419 . S
C1454 C1455 1.362 . S
C1455 H1445 0.930 . S
C1455 C1448 1.409 . S
C1455 C1454 1.362 . S
H1456 C1462 0.930 . S
H1457 C1465 0.930 . S
H1458 C1466 0.930 . S
H1459 C1467 0.930 . S
H1460 C1470 0.930 . S
H1461 C1471 0.930 . S
C1462 H1456 0.930 . S
C1462 C1463 1.355 . S
C1462 C1464 1.415 . S
C1463 C1462 1.355 . S
C1463 C1465 1.419 . S
C1464 C1462 1.415 . S
C1464 C1469 1.425 . S
C1464 C1471 1.409 . S
C1465 H1457 0.930 . S
C1465 C1463 1.419 . S
C1465 C1466 1.362 . S
C1466 H1458 0.930 . S
C1466 C1465 1.362 . S
C1466 C1469 1.409 . S
C1467 H1459 0.930 . S
C1467 C1468 1.355 . S
C1467 C1469 1.415 . S
C1468 C1467 1.355 . S
C1468 C1470 1.419 . S
C1469 C1464 1.425 . S
C1469 C1466 1.409 . S
C1469 C1467 1.415 . S
C1470 H1460 0.930 . S
C1470 C1468 1.419 . S
C1470 C1471 1.362 . S
C1471 H1461 0.930 . S
C1471 C1464 1.409 . S
C1471 C1470 1.362 . S
H1472 C1478 0.930 . S
H1473 C1481 0.930 . S
H1474 C1482 0.930 . S
H1475 C1483 0.930 . S
H1476 C1486 0.930 . S
H1477 C1487 0.930 . S
C1478 H1472 0.930 . S
C1478 C1479 1.355 . S
C1478 C1480 1.415 . S
C1479 C1478 1.355 . S
C1479 C1481 1.419 . S
C1480 C1478 1.415 . S
C1480 C1485 1.425 . S
C1480 C1487 1.409 . S
C1481 H1473 0.930 . S
C1481 C1479 1.419 . S
C1481 C1482 1.362 . S
C1482 H1474 0.930 . S
C1482 C1481 1.362 . S
C1482 C1485 1.409 . S
C1483 H1475 0.930 . S
C1483 C1484 1.355 . S
C1483 C1485 1.415 . S
C1484 C1483 1.355 . S
C1484 C1486 1.419 . S
C1485 C1480 1.425 . S
C1485 C1482 1.409 . S
C1485 C1483 1.415 . S
C1486 H1476 0.930 . S
C1486 C1484 1.419 . S
C1486 C1487 1.362 . S
C1487 H1477 0.930 . S
C1487 C1480 1.409 . S
C1487 C1486 1.362 . S
H1488 C1494 0.930 . S
H1489 C1497 0.930 . S
H1490 C1498 0.930 . S
H1491 C1499 0.930 . S
H1492 C1502 0.930 . S
H1493 C1503 0.930 . S
C1494 H1488 0.930 . S
C1494 C1495 1.355 . S
C1494 C1496 1.415 . S
C1495 C1494 1.355 . S
C1495 C1497 1.419 . S
C1496 C1494 1.415 . S
C1496 C1501 1.425 . S
C1496 C1503 1.409 . S
C1497 H1489 0.930 . S
C1497 C1495 1.419 . S
C1497 C1498 1.362 . S
C1498 H1490 0.930 . S
C1498 C1497 1.362 . S
C1498 C1501 1.409 . S
C1499 H1491 0.930 . S
C1499 C1500 1.355 . S
C1499 C1501 1.415 . S
C1500 C1499 1.355 . S
C1500 C1502 1.419 . S
C1501 C1496 1.425 . S
C1501 C1498 1.409 . S
C1501 C1499 1.415 . S
C1502 H1492 0.930 . S
C1502 C1500 1.419 . S
C1502 C1503 1.362 . S
C1503 H1493 0.930 . S
C1503 C1496 1.409 . S
C1503 C1502 1.362 . S
H1504 C1510 0.930 . S
H1505 C1513 0.930 . S
H1506 C1514 0.930 . S
H1507 C1515 0.930 . S
H1508 C1518 0.930 . S
H1509 C1519 0.930 . S
C1510 H1504 0.930 . S
C1510 C1511 1.355 . S
C1510 C1512 1.415 . S
C1511 C1510 1.355 . S
C1511 C1513 1.419 . S
C1512 C1510 1.415 . S
C1512 C1517 1.425 . S
C1512 C1519 1.409 . S
C1513 H1505 0.930 . S
C1513 C1511 1.419 . S
C1513 C1514 1.362 . S
C1514 H1506 0.930 . S
C1514 C1513 1.362 . S
C1514 C1517 1.409 . S
C1515 H1507 0.930 . S
C1515 C1516 1.355 . S
C1515 C1517 1.415 . S
C1516 C1515 1.355 . S
C1516 C1518 1.419 . S
C1517 C1512 1.425 . S
C1517 C1514 1.409 . S
C1517 C1515 1.415 . S
C1518 H1508 0.930 . S
C1518 C1516 1.419 . S
C1518 C1519 1.362 . S
C1519 H1509 0.930 . S
C1519 C1512 1.409 . S
C1519 C1518 1.362 . S
H1520 C1526 0.930 . S
H1521 C1529 0.930 . S
H1522 C1530 0.930 . S
H1523 C1531 0.930 . S
H1524 C1534 0.930 . S
H1525 C1535 0.930 . S
C1526 H1520 0.930 . S
C1526 C1527 1.355 . S
C1526 C1528 1.415 . S
C1527 C1526 1.355 . S
C1527 C1529 1.419 . S
C1528 C1526 1.415 . S
C1528 C1533 1.425 . S
C1528 C1535 1.409 . S
C1529 H1521 0.930 . S
C1529 C1527 1.419 . S
C1529 C1530 1.362 . S
C1530 H1522 0.930 . S
C1530 C1529 1.362 . S
C1530 C1533 1.409 . S
C1531 H1523 0.930 . S
C1531 C1532 1.355 . S
C1531 C1533 1.415 . S
C1532 C1531 1.355 . S
C1532 C1534 1.419 . S
C1533 C1528 1.425 . S
C1533 C1530 1.409 . S
C1533 C1531 1.415 . S
C1534 H1524 0.930 . S
C1534 C1532 1.419 . S
C1534 C1535 1.362 . S
C1535 H1525 0.930 . S
C1535 C1528 1.409 . S
C1535 C1534 1.362 . S
H1536 C1542 0.930 . S
H1537 C1545 0.930 . S
H1538 C1546 0.930 . S
H1539 C1547 0.930 . S
H1540 C1550 0.930 . S
H1541 C1551 0.930 . S
C1542 H1536 0.930 . S
C1542 C1543 1.355 . S
C1542 C1544 1.415 . S
C1543 C1542 1.355 . S
C1543 C1545 1.419 . S
C1544 C1542 1.415 . S
C1544 C1549 1.425 . S
C1544 C1551 1.409 . S
C1545 H1537 0.930 . S
C1545 C1543 1.419 . S
C1545 C1546 1.362 . S
C1546 H1538 0.930 . S
C1546 C1545 1.362 . S
C1546 C1549 1.409 . S
C1547 H1539 0.930 . S
C1547 C1548 1.355 . S
C1547 C1549 1.415 . S
C1548 C1547 1.355 . S
C1548 C1550 1.419 . S
C1549 C1544 1.425 . S
C1549 C1546 1.409 . S
C1549 C1547 1.415 . S
C1550 H1540 0.930 . S
C1550 C1548 1.419 . S
C1550 C1551 1.362 . S
C1551 H1541 0.930 . S
C1551 C1544 1.409 . S
C1551 C1550 1.362 . S
H1552 C1558 0.930 . S
H1553 C1561 0.930 . S
H1554 C1562 0.930 . S
H1555 C1563 0.930 . S
H1556 C1566 0.930 . S
H1557 C1567 0.930 . S
C1558 H1552 0.930 . S
C1558 C1559 1.355 . S
C1558 C1560 1.415 . S
C1559 C1558 1.355 . S
C1559 C1561 1.419 . S
C1560 C1558 1.415 . S
C1560 C1565 1.425 . S
C1560 C1567 1.409 . S
C1561 H1553 0.930 . S
C1561 C1559 1.419 . S
C1561 C1562 1.362 . S
C1562 H1554 0.930 . S
C1562 C1561 1.362 . S
C1562 C1565 1.409 . S
C1563 H1555 0.930 . S
C1563 C1564 1.355 . S
C1563 C1565 1.415 . S
C1564 C1563 1.355 . S
C1564 C1566 1.419 . S
C1565 C1560 1.425 . S
C1565 C1562 1.409 . S
C1565 C1563 1.415 . S
C1566 H1556 0.930 . S
C1566 C1564 1.419 . S
C1566 C1567 1.362 . S
C1567 H1557 0.930 . S
C1567 C1560 1.409 . S
C1567 C1566 1.362 . S
H1568 C1574 0.930 . S
H1569 C1577 0.930 . S
H1570 C1578 0.930 . S
H1571 C1579 0.930 . S
H1572 C1582 0.930 . S
H1573 C1583 0.930 . S
C1574 H1568 0.930 . S
C1574 C1575 1.355 . S
C1574 C1576 1.415 . S
C1575 C1574 1.355 . S
C1575 C1577 1.419 . S
C1576 C1574 1.415 . S
C1576 C1581 1.425 . S
C1576 C1583 1.409 . S
C1577 H1569 0.930 . S
C1577 C1575 1.419 . S
C1577 C1578 1.362 . S
C1578 H1570 0.930 . S
C1578 C1577 1.362 . S
C1578 C1581 1.409 . S
C1579 H1571 0.930 . S
C1579 C1580 1.355 . S
C1579 C1581 1.415 . S
C1580 C1579 1.355 . S
C1580 C1582 1.419 . S
C1581 C1576 1.425 . S
C1581 C1578 1.409 . S
C1581 C1579 1.415 . S
C1582 H1572 0.930 . S
C1582 C1580 1.419 . S
C1582 C1583 1.362 . S
C1583 H1573 0.930 . S
C1583 C1576 1.409 . S
C1583 C1582 1.362 . S
H1584 C1590 0.930 . S
H1585 C1593 0.930 . S
H1586 C1594 0.930 . S
H1587 C1595 0.930 . S
H1588 C1598 0.930 . S
H1589 C1599 0.930 . S
C1590 H1584 0.930 . S
C1590 C1591 1.355 . S
C1590 C1592 1.415 . S
C1591 C1590 1.355 . S
C1591 C1593 1.419 . S
C1592 C1590 1.415 . S
C1592 C1597 1.425 . S
C1592 C1599 1.409 . S
C1593 H1585 0.930 . S
C1593 C1591 1.419 . S
C1593 C1594 1.362 . S
C1594 H1586 0.930 . S
C1594 C1593 1.362 . S
C1594 C1597 1.409 . S
C1595 H1587 0.930 . S
C1595 C1596 1.355 . S
C1595 C1597 1.415 . S
C1596 C1595 1.355 . S
C1596 C1598 1.419 . S
C1597 C1592 1.425 . S
C1597 C1594 1.409 . S
C1597 C1595 1.415 . S
C1598 H1588 0.930 . S
C1598 C1596 1.419 . S
C1598 C1599 1.362 . S
C1599 H1589 0.930 . S
C1599 C1592 1.409 . S
C1599 C1598 1.362 . S
H1600 C1606 0.930 . S
H1601 C1609 0.930 . S
H1602 C1610 0.930 . S
H1603 C1611 0.930 . S
H1604 C1614 0.930 . S
H1605 C1615 0.930 . S
C1606 H1600 0.930 . S
C1606 C1607 1.355 . S
C1606 C1608 1.415 . S
C1607 C1606 1.355 . S
C1607 C1609 1.419 . S
C1608 C1606 1.415 . S
C1608 C1613 1.425 . S
C1608 C1615 1.409 . S
C1609 H1601 0.930 . S
C1609 C1607 1.419 . S
C1609 C1610 1.362 . S
C1610 H1602 0.930 . S
C1610 C1609 1.362 . S
C1610 C1613 1.409 . S
C1611 H1603 0.930 . S
C1611 C1612 1.355 . S
C1611 C1613 1.415 . S
C1612 C1611 1.355 . S
C1612 C1614 1.419 . S
C1613 C1608 1.425 . S
C1613 C1610 1.409 . S
C1613 C1611 1.415 . S
C1614 H1604 0.930 . S
C1614 C1612 1.419 . S
C1614 C1615 1.362 . S
C1615 H1605 0.930 . S
C1615 C1608 1.409 . S
C1615 C1614 1.362 . S
H1616 C1622 0.930 . S
H1617 C1625 0.930 . S
H1618 C1626 0.930 . S
H1619 C1627 0.930 . S
H1620 C1630 0.930 . S
H1621 C1631 0.930 . S
C1622 H1616 0.930 . S
C1622 C1623 1.355 . S
C1622 C1624 1.415 . S
C1623 C1622 1.355 . S
C1623 C1625 1.419 . S
C1624 C1622 1.415 . S
C1624 C1629 1.425 . S
C1624 C1631 1.409 . S
C1625 H1617 0.930 . S
C1625 C1623 1.419 . S
C1625 C1626 1.362 . S
C1626 H1618 0.930 . S
C1626 C1625 1.362 . S
C1626 C1629 1.409 . S
C1627 H1619 0.930 . S
C1627 C1628 1.355 . S
C1627 C1629 1.415 . S
C1628 C1627 1.355 . S
C1628 C1630 1.419 . S
C1629 C1624 1.425 . S
C1629 C1626 1.409 . S
C1629 C1627 1.415 . S
C1630 H1620 0.930 . S
C1630 C1628 1.419 . S
C1630 C1631 1.362 . S
C1631 H1621 0.930 . S
C1631 C1624 1.409 . S
C1631 C1630 1.362 . S
H1632 C1638 0.930 . S
H1633 C1641 0.930 . S
H1634 C1642 0.930 . S
H1635 C1643 0.930 . S
H1636 C1646 0.930 . S
H1637 C1647 0.930 . S
C1638 H1632 0.930 . S
C1638 C1639 1.355 . S
C1638 C1640 1.415 . S
C1639 C1638 1.355 . S
C1639 C1641 1.419 . S
C1640 C1638 1.415 . S
C1640 C1645 1.425 . S
C1640 C1647 1.409 . S
C1641 H1633 0.930 . S
C1641 C1639 1.419 . S
C1641 C1642 1.362 . S
C1642 H1634 0.930 . S
C1642 C1641 1.362 . S
C1642 C1645 1.409 . S
C1643 H1635 0.930 . S
C1643 C1644 1.355 . S
C1643 C1645 1.415 . S
C1644 C1643 1.355 . S
C1644 C1646 1.419 . S
C1645 C1640 1.425 . S
C1645 C1642 1.409 . S
C1645 C1643 1.415 . S
C1646 H1636 0.930 . S
C1646 C1644 1.419 . S
C1646 C1647 1.362 . S
C1647 H1637 0.930 . S
C1647 C1640 1.409 . S
C1647 C1646 1.362 . S
H1648 C1654 0.930 . S
H1649 C1657 0.930 . S
H1650 C1658 0.930 . S
H1651 C1659 0.930 . S
H1652 C1662 0.930 . S
H1653 C1663 0.930 . S
C1654 H1648 0.930 . S
C1654 C1655 1.355 . S
C1654 C1656 1.415 . S
C1655 C1654 1.355 . S
C1655 C1657 1.419 . S
C1656 C1654 1.415 . S
C1656 C1661 1.425 . S
C1656 C1663 1.409 . S
C1657 H1649 0.930 . S
C1657 C1655 1.419 . S
C1657 C1658 1.362 . S
C1658 H1650 0.930 . S
C1658 C1657 1.362 . S
C1658 C1661 1.409 . S
C1659 H1651 0.930 . S
C1659 C1660 1.355 . S
C1659 C1661 1.415 . S
C1660 C1659 1.355 . S
C1660 C1662 1.419 . S
C1661 C1656 1.425 . S
C1661 C1658 1.409 . S
C1661 C1659 1.415 . S
C1662 H1652 0.930 . S
C1662 C1660 1.419 . S
C1662 C1663 1.362 . S
C1663 H1653 0.930 . S
C1663 C1656 1.409 . S
C1663 C1662 1.362 . S
H1664 C1670 0.930 . S
H1665 C1673 0.930 . S
H1666 C1674 0.930 . S
H1667 C1675 0.930 . S
H1668 C1678 0.930 . S
H1669 C1679 0.930 . S
C1670 H1664 0.930 . S
C1670 C1671 1.355 . S
C1670 C1672 1.415 . S
C1671 C1670 1.355 . S
C1671 C1673 1.419 . S
C1672 C1670 1.415 . S
C1672 C1677 1.425 . S
C1672 C1679 1.409 . S
C1673 H1665 0.930 . S
C1673 C1671 1.419 . S
C1673 C1674 1.362 . S
C1674 H1666 0.930 . S
C1674 C1673 1.362 . S
C1674 C1677 1.409 . S
C1675 H1667 0.930 . S
C1675 C1676 1.355 . S
C1675 C1677 1.415 . S
C1676 C1675 1.355 . S
C1676 C1678 1.419 . S
C1677 C1672 1.425 . S
C1677 C1674 1.409 . S
C1677 C1675 1.415 . S
C1678 H1668 0.930 . S
C1678 C1676 1.419 . S
C1678 C1679 1.362 . S
C1679 H1669 0.930 . S
C1679 C1672 1.409 . S
C1679 C1678 1.362 . S
C535 C7 1.307 . S
C540 C360 1.321 . S
C551 C29 1.302 . S
C556 C514 1.327 . S
C567 C470 1.328 . S
C572 C51 1.252 . S
C583 C72 1.307 . S
C588 C492 1.327 . S
C599 C94 1.313 . S
C604 C378 1.327 . S
C615 C117 1.277 . S
C620 C400 1.329 . S
C631 C138 1.256 . S
C636 C422 1.334 . S
C647 C160 1.269 . S
C652 C444 1.328 . S
C663 C183 1.296 . S
C668 C8 1.322 . S
C679 C204 1.313 . S
C684 C30 1.327 . S
C695 C52 1.328 . S
C700 C226 1.304 . S
C711 C70 1.327 . S
C716 C249 1.313 . S
C727 C270 1.224 . S
C732 C92 1.328 . S
C743 C293 1.300 . S
C748 C118 1.328 . S
C759 C315 1.231 . S
C764 C136 1.331 . S
C775 C336 1.235 . S
C780 C158 1.329 . S
C791 C359 1.228 . S
C796 C184 1.325 . S
C807 C380 1.294 . S
C812 C268 1.334 . S
C823 C294 1.330 . S
C828 C402 1.254 . S
C839 C424 1.284 . S
C844 C316 1.326 . S
C855 C446 1.311 . S
C860 C334 1.326 . S
C871 C469 1.242 . S
C876 C224 1.331 . S
C887 C250 1.327 . S
C892 C491 1.304 . S
C903 C513 1.303 . S
C908 C202 1.327 . S
C919 C466 1.327 . S
C924 C97 1.319 . S
C935 C488 1.329 . S
C940 C115 1.232 . S
C951 C141 1.255 . S
C956 C356 1.331 . S
C967 C163 1.223 . S
C972 C510 1.330 . S
C983 C426 1.327 . S
C988 C5 1.314 . S
C999 C27 1.313 . S
C1004 C448 1.327 . S
C1015 C382 1.326 . S
C1020 C49 1.306 . S
C1031 C75 1.237 . S
C1036 C404 1.329 . S
C1047 C313 1.301 . S
C1052 C96 1.333 . S
C1063 C339 1.223 . S
C1068 C114 1.330 . S
C1079 C273 1.313 . S
C1084 C140 1.321 . S
C1095 C162 1.330 . S
C1100 C291 1.222 . S
C1111 C229 1.221 . S
C1116 C4 1.332 . S
C1127 C247 1.223 . S
C1132 C26 1.330 . S
C1143 C181 1.309 . S
C1148 C48 1.326 . S
C1159 C207 1.313 . S
C1164 C74 1.326 . S
C1175 C312 1.329 . S
C1180 C467 1.269 . S
C1191 C427 1.229 . S
C1196 C228 1.324 . S
C1207 C246 1.330 . S
C1212 C449 1.224 . S
C1223 C383 1.270 . S
C1228 C180 1.329 . S
C1239 C405 1.313 . S
C1244 C206 1.327 . S
C1255 C357 1.221 . S
C1260 C272 1.328 . S
C1271 C511 1.307 . S
C1276 C290 1.326 . S
C1287 C338 1.329 . S
C1292 C489 1.232 . S
C1303 C445 1.475 . S
C1308 C9 1.445 . S
C1319 C379 1.420 . S
C1324 C31 1.443 . S
C1335 C53 1.475 . S
C1340 C401 1.440 . S
C1351 C71 1.463 . S
C1356 C423 1.471 . S
C1367 C515 1.419 . S
C1372 C93 1.440 . S
C1383 C119 1.430 . S
C1388 C471 1.422 . S
C1399 C493 1.475 . S
C1404 C137 1.444 . S
C1415 C159 1.473 . S
C1420 C361 1.429 . S
C1431 C185 1.475 . S
C1436 C335 1.436 . S
C1447 C269 1.472 . S
C1452 C203 1.432 . S
C1463 C225 1.475 . S
C1468 C295 1.443 . S
C1479 C317 1.472 . S
C1484 C251 1.455 . S
C1495 C403 1.465 . S
C1500 C95 1.425 . S
C1511 C425 1.472 . S
C1516 C116 1.428 . S
C1527 C139 1.435 . S
C1532 C447 1.420 . S
C1543 C161 1.429 . S
C1548 C381 1.468 . S
C1559 C490 1.459 . S
C1564 C6 1.422 . S
C1575 C358 1.445 . S
C1580 C28 1.477 . S
C1591 C512 1.473 . S
C1596 C50 1.428 . S
C1607 C73 1.456 . S
C1612 C468 1.476 . S
C1623 C205 1.452 . S
C1628 C314 1.421 . S
C1639 C337 1.465 . S
C1644 C227 1.419 . S
C1655 C271 1.444 . S
C1660 C248 1.473 . S
C1671 C292 1.469 . S
C1676 C182 1.465 . S
