# Generated by pormake.
# Topology lta, (4)-cn, num edge types: 1
# Building blocks:
#     Node 0, Type 0, BuildingBlock: AZAVOO_clean_sbu_0, # of connection points: 4
#     Node 1, Type 0, BuildingBlock: AZAVOO_clean_sbu_0, # of connection points: 4
#     Node 2, Type 0, BuildingBlock: AZAVOO_clean_sbu_0, # of connection points: 4
#     Node 3, Type 0, BuildingBlock: AZAVOO_clean_sbu_0, # of connection points: 4
#     Node 4, Type 0, BuildingBlock: AZAVOO_clean_sbu_0, # of connection points: 4
#     Node 5, Type 0, BuildingBlock: AZAVOO_clean_sbu_0, # of connection points: 4
#     Node 6, Type 0, BuildingBlock: AZAVOO_clean_sbu_0, # of connection points: 4
#     Node 7, Type 0, BuildingBlock: AZAVOO_clean_sbu_0, # of connection points: 4
#     Node 8, Type 0, BuildingBlock: AZAVOO_clean_sbu_0, # of connection points: 4
#     Node 9, Type 0, BuildingBlock: AZAVOO_clean_sbu_0, # of connection points: 4
#     Node 10, Type 0, BuildingBlock: AZAVOO_clean_sbu_0, # of connection points: 4
#     Node 11, Type 0, BuildingBlock: AZAVOO_clean_sbu_0, # of connection points: 4
#     Node 12, Type 0, BuildingBlock: AZAVOO_clean_sbu_0, # of connection points: 4
#     Node 13, Type 0, BuildingBlock: AZAVOO_clean_sbu_0, # of connection points: 4
#     Node 14, Type 0, BuildingBlock: AZAVOO_clean_sbu_0, # of connection points: 4
#     Node 15, Type 0, BuildingBlock: AZAVOO_clean_sbu_0, # of connection points: 4
#     Node 16, Type 0, BuildingBlock: AZAVOO_clean_sbu_0, # of connection points: 4
#     Node 17, Type 0, BuildingBlock: AZAVOO_clean_sbu_0, # of connection points: 4
#     Node 18, Type 0, BuildingBlock: AZAVOO_clean_sbu_0, # of connection points: 4
#     Node 19, Type 0, BuildingBlock: AZAVOO_clean_sbu_0, # of connection points: 4
#     Node 20, Type 0, BuildingBlock: AZAVOO_clean_sbu_0, # of connection points: 4
#     Node 21, Type 0, BuildingBlock: AZAVOO_clean_sbu_0, # of connection points: 4
#     Node 22, Type 0, BuildingBlock: AZAVOO_clean_sbu_0, # of connection points: 4
#     Node 23, Type 0, BuildingBlock: AZAVOO_clean_sbu_0, # of connection points: 4
#     Edge 24, Type (0, 0), BuildingBlock: EZIPEK_clean_linker_0, # of connection points: 2
#     Edge 25, Type (0, 0), BuildingBlock: EZIPEK_clean_linker_0, # of connection points: 2
#     Edge 26, Type (0, 0), BuildingBlock: EZIPEK_clean_linker_0, # of connection points: 2
#     Edge 27, Type (0, 0), BuildingBlock: EZIPEK_clean_linker_0, # of connection points: 2
#     Edge 28, Type (0, 0), BuildingBlock: EZIPEK_clean_linker_0, # of connection points: 2
#     Edge 29, Type (0, 0), BuildingBlock: EZIPEK_clean_linker_0, # of connection points: 2
#     Edge 30, Type (0, 0), BuildingBlock: EZIPEK_clean_linker_0, # of connection points: 2
#     Edge 31, Type (0, 0), BuildingBlock: EZIPEK_clean_linker_0, # of connection points: 2
#     Edge 32, Type (0, 0), BuildingBlock: EZIPEK_clean_linker_0, # of connection points: 2
#     Edge 33, Type (0, 0), BuildingBlock: EZIPEK_clean_linker_0, # of connection points: 2
#     Edge 34, Type (0, 0), BuildingBlock: EZIPEK_clean_linker_0, # of connection points: 2
#     Edge 35, Type (0, 0), BuildingBlock: EZIPEK_clean_linker_0, # of connection points: 2
#     Edge 36, Type (0, 0), BuildingBlock: EZIPEK_clean_linker_0, # of connection points: 2
#     Edge 37, Type (0, 0), BuildingBlock: EZIPEK_clean_linker_0, # of connection points: 2
#     Edge 38, Type (0, 0), BuildingBlock: EZIPEK_clean_linker_0, # of connection points: 2
#     Edge 39, Type (0, 0), BuildingBlock: EZIPEK_clean_linker_0, # of connection points: 2
#     Edge 40, Type (0, 0), BuildingBlock: EZIPEK_clean_linker_0, # of connection points: 2
#     Edge 41, Type (0, 0), BuildingBlock: EZIPEK_clean_linker_0, # of connection points: 2
#     Edge 42, Type (0, 0), BuildingBlock: EZIPEK_clean_linker_0, # of connection points: 2
#     Edge 43, Type (0, 0), BuildingBlock: EZIPEK_clean_linker_0, # of connection points: 2
#     Edge 44, Type (0, 0), BuildingBlock: EZIPEK_clean_linker_0, # of connection points: 2
#     Edge 45, Type (0, 0), BuildingBlock: EZIPEK_clean_linker_0, # of connection points: 2
#     Edge 46, Type (0, 0), BuildingBlock: EZIPEK_clean_linker_0, # of connection points: 2
#     Edge 47, Type (0, 0), BuildingBlock: EZIPEK_clean_linker_0, # of connection points: 2
#     Edge 48, Type (0, 0), BuildingBlock: EZIPEK_clean_linker_0, # of connection points: 2
#     Edge 49, Type (0, 0), BuildingBlock: EZIPEK_clean_linker_0, # of connection points: 2
#     Edge 50, Type (0, 0), BuildingBlock: EZIPEK_clean_linker_0, # of connection points: 2
#     Edge 51, Type (0, 0), BuildingBlock: EZIPEK_clean_linker_0, # of connection points: 2
#     Edge 52, Type (0, 0), BuildingBlock: EZIPEK_clean_linker_0, # of connection points: 2
#     Edge 53, Type (0, 0), BuildingBlock: EZIPEK_clean_linker_0, # of connection points: 2
#     Edge 54, Type (0, 0), BuildingBlock: EZIPEK_clean_linker_0, # of connection points: 2
#     Edge 55, Type (0, 0), BuildingBlock: EZIPEK_clean_linker_0, # of connection points: 2
#     Edge 56, Type (0, 0), BuildingBlock: EZIPEK_clean_linker_0, # of connection points: 2
#     Edge 57, Type (0, 0), BuildingBlock: EZIPEK_clean_linker_0, # of connection points: 2
#     Edge 58, Type (0, 0), BuildingBlock: EZIPEK_clean_linker_0, # of connection points: 2
#     Edge 59, Type (0, 0), BuildingBlock: EZIPEK_clean_linker_0, # of connection points: 2
#     Edge 60, Type (0, 0), BuildingBlock: EZIPEK_clean_linker_0, # of connection points: 2
#     Edge 61, Type (0, 0), BuildingBlock: EZIPEK_clean_linker_0, # of connection points: 2
#     Edge 62, Type (0, 0), BuildingBlock: EZIPEK_clean_linker_0, # of connection points: 2
#     Edge 63, Type (0, 0), BuildingBlock: EZIPEK_clean_linker_0, # of connection points: 2
#     Edge 64, Type (0, 0), BuildingBlock: EZIPEK_clean_linker_0, # of connection points: 2
#     Edge 65, Type (0, 0), BuildingBlock: EZIPEK_clean_linker_0, # of connection points: 2
#     Edge 66, Type (0, 0), BuildingBlock: EZIPEK_clean_linker_0, # of connection points: 2
#     Edge 67, Type (0, 0), BuildingBlock: EZIPEK_clean_linker_0, # of connection points: 2
#     Edge 68, Type (0, 0), BuildingBlock: EZIPEK_clean_linker_0, # of connection points: 2
#     Edge 69, Type (0, 0), BuildingBlock: EZIPEK_clean_linker_0, # of connection points: 2
#     Edge 70, Type (0, 0), BuildingBlock: EZIPEK_clean_linker_0, # of connection points: 2
#     Edge 71, Type (0, 0), BuildingBlock: EZIPEK_clean_linker_0, # of connection points: 2
# Relax obj value: 0.170
# Max RMSD: 0.071
# Mean RMSD: 0.071
data_MOF--net-lta--node1-AZAVOO_clean_sbu_0--edge1-EZIPEK_clean_linker_0
_symmetry_space_group_name_H-M    P1
_symmetry_Int_Tables_number       1
_symmetry_cell_setting            triclinic
loop_
_symmetry_equiv_pos_as_xyz
'x, y, z'
_cell_length_a     42.846831
_cell_length_b     42.821984
_cell_length_c     42.801817
_cell_angle_alpha  90.237936
_cell_angle_beta   90.038877
_cell_angle_gamma 89.238387
loop_
_atom_site_label
_atom_site_type_symbol
_atom_site_fract_x
_atom_site_fract_y
_atom_site_fract_z
_atom_type_partial_charge
Mg0 Mg 0.10105 0.29452 0.5216 0.0
O1 O 0.11146 0.31941 0.47439 0.0
O2 O 0.06733 0.34008 0.45506 0.0
Mg3 Mg 0.03755 0.34527 0.49832 0.0
C4 C 0.09619 0.33299 0.45253 0.0
C5 C 0.15977 0.25948 0.4997 0.0
O6 O 0.13939 0.25464 0.47732 0.0
O7 O 0.10658 0.3394 0.55128 0.0
O8 O 0.08127 0.36955 0.51766 0.0
O9 O 0.07418 0.2562 0.49728 0.0
O10 O 0.05313 0.29967 0.51602 0.0
C11 C 0.09482 0.36597 0.54389 0.0
C12 C 0.04964 0.2735 0.502 0.0
O13 O 0.15216 0.27721 0.52252 0.0
Mg14 Mg 0.67703 0.10415 0.51216 0.0
O15 O 0.64304 0.10954 0.47051 0.0
O16 O 0.61258 0.06747 0.47037 0.0
Mg17 Mg 0.62564 0.03588 0.51149 0.0
C18 C 0.62101 0.09345 0.45875 0.0
C19 C 0.72384 0.15556 0.50058 0.0
O20 O 0.74054 0.12965 0.50133 0.0
O21 O 0.63719 0.11883 0.54578 0.0
O22 O 0.6093 0.07478 0.54464 0.0
O23 O 0.71007 0.07405 0.48329 0.0
O24 O 0.67214 0.0556 0.51232 0.0
C25 C 0.61414 0.10236 0.5548 0.0
C26 C 0.69451 0.05036 0.49308 0.0
O27 O 0.69446 0.15418 0.50465 0.0
Mg28 Mg 0.86627 0.68188 0.52085 0.0
O29 O 0.86125 0.64997 0.47766 0.0
O30 O 0.90284 0.61778 0.47722 0.0
Mg31 Mg 0.93481 0.62883 0.51854 0.0
C32 C 0.87716 0.62764 0.46547 0.0
C33 C 0.81245 0.72086 0.49226 0.0
O34 O 0.83654 0.7281 0.47494 0.0
O35 O 0.85199 0.64094 0.5529 0.0
O36 O 0.89646 0.61256 0.55146 0.0
O37 O 0.89659 0.71575 0.49427 0.0
O38 O 0.91484 0.67572 0.52096 0.0
C39 C 0.86881 0.61755 0.56159 0.0
C40 C 0.92021 0.69882 0.50292 0.0
O41 O 0.81594 0.70022 0.51338 0.0
Mg42 Mg 0.28601 0.86391 0.52427 0.0
O43 O 0.31287 0.85861 0.47786 0.0
O44 O 0.3461 0.89834 0.47495 0.0
Mg45 Mg 0.34034 0.92963 0.51814 0.0
C46 C 0.3342 0.87353 0.46375 0.0
C47 C 0.24629 0.81248 0.49456 0.0
O48 O 0.24078 0.83675 0.47665 0.0
O49 O 0.32949 0.84661 0.55165 0.0
O50 O 0.35874 0.88963 0.54843 0.0
O51 O 0.25025 0.8967 0.50251 0.0
O52 O 0.29338 0.91216 0.52547 0.0
C53 C 0.35405 0.86203 0.55838 0.0
C54 C 0.26846 0.91924 0.51041 0.0
O55 O 0.266 0.81487 0.5167 0.0
Mg56 Mg 0.10244 0.67837 0.44705 0.0
O57 O 0.1054 0.64931 0.49207 0.0
O58 O 0.06293 0.6196 0.49421 0.0
Mg59 Mg 0.03389 0.62744 0.45002 0.0
C60 C 0.08852 0.62927 0.50582 0.0
C61 C 0.15456 0.72507 0.4578 0.0
O62 O 0.12989 0.7426 0.45197 0.0
O63 O 0.11827 0.63504 0.41849 0.0
O64 O 0.0742 0.60732 0.42087 0.0
O65 O 0.07156 0.71435 0.47103 0.0
O66 O 0.0539 0.67363 0.44519 0.0
C67 C 0.10216 0.61102 0.41142 0.0
C68 C 0.04816 0.69763 0.46234 0.0
O69 O 0.1521 0.69551 0.45673 0.0
Mg70 Mg 0.27818 0.10398 0.45898 0.0
O71 O 0.30952 0.11203 0.50205 0.0
O72 O 0.3449 0.07313 0.50287 0.0
Mg73 Mg 0.33591 0.03941 0.46235 0.0
C74 C 0.33309 0.09821 0.51425 0.0
C75 C 0.26423 0.1759 0.48091 0.0
O76 O 0.29225 0.17571 0.49334 0.0
O77 O 0.31759 0.12053 0.42605 0.0
O78 O 0.34851 0.07778 0.42802 0.0
O79 O 0.24655 0.07192 0.48608 0.0
O80 O 0.28779 0.05602 0.45944 0.0
C81 C 0.34173 0.10479 0.41726 0.0
C82 C 0.26481 0.04929 0.47718 0.0
O83 O 0.25474 0.15231 0.46562 0.0
Mg84 Mg 0.86672 0.28899 0.45229 0.0
O85 O 0.85982 0.31828 0.49746 0.0
O86 O 0.89992 0.35118 0.49997 0.0
Mg87 Mg 0.93323 0.34226 0.45898 0.0
C88 C 0.87456 0.34036 0.51085 0.0
C89 C 0.8121 0.25212 0.48032 0.0
O90 O 0.83358 0.24943 0.50207 0.0
O91 O 0.85183 0.33109 0.42179 0.0
O92 O 0.89567 0.35913 0.42497 0.0
O93 O 0.89772 0.25339 0.47682 0.0
O94 O 0.91489 0.29539 0.45328 0.0
C95 C 0.8684 0.35451 0.414 0.0
C96 C 0.92093 0.27079 0.46917 0.0
O97 O 0.81725 0.26943 0.45681 0.0
Mg98 Mg 0.67647 0.86628 0.44325 0.0
O99 O 0.65259 0.86075 0.49116 0.0
O100 O 0.61887 0.90077 0.49662 0.0
Mg101 Mg 0.62257 0.93335 0.45451 0.0
C102 C 0.63138 0.87542 0.50639 0.0
C103 C 0.71851 0.81372 0.46871 0.0
O104 O 0.72602 0.8383 0.48541 0.0
O105 O 0.63117 0.85095 0.41819 0.0
O106 O 0.60241 0.89489 0.42389 0.0
O107 O 0.71378 0.89808 0.46303 0.0
O108 O 0.66895 0.91468 0.44403 0.0
C109 C 0.60648 0.86738 0.4129 0.0
C110 C 0.69487 0.92112 0.45733 0.0
O111 O 0.69676 0.81642 0.44855 0.0
Mg112 Mg 0.50363 0.10179 0.29039 0.0
O113 O 0.45737 0.10849 0.31748 0.0
O114 O 0.4546 0.06937 0.35182 0.0
Mg115 Mg 0.49673 0.03642 0.34544 0.0
C116 C 0.44372 0.09446 0.33978 0.0
C117 C 0.51487 0.17177 0.26425 0.0
O118 O 0.54284 0.16999 0.27674 0.0
O119 O 0.53178 0.11847 0.33351 0.0
O120 O 0.52857 0.07515 0.36274 0.0
O121 O 0.48159 0.06994 0.2547 0.0
O122 O 0.5038 0.05367 0.29816 0.0
C123 C 0.53909 0.10243 0.35776 0.0
C124 C 0.48889 0.04707 0.27305 0.0
O125 O 0.49571 0.14977 0.26824 0.0
Mg126 Mg 0.86883 0.51905 0.29067 0.0
O127 O 0.86333 0.47205 0.3161 0.0
O128 O 0.90358 0.46753 0.34926 0.0
Mg129 Mg 0.93633 0.50898 0.34343 0.0
C130 C 0.87814 0.45755 0.33761 0.0
C131 C 0.81606 0.49532 0.24873 0.0
O132 O 0.8406 0.4789 0.23983 0.0
O133 O 0.85378 0.54529 0.33568 0.0
O134 O 0.89807 0.54062 0.36348 0.0
O135 O 0.90014 0.49764 0.25317 0.0
O136 O 0.9172 0.51771 0.29717 0.0
C137 C 0.87046 0.55155 0.35974 0.0
C138 C 0.92332 0.50346 0.2715 0.0
O139 O 0.81886 0.5144 0.27143 0.0
Mg140 Mg 0.44094 0.86359 0.28895 0.0
O141 O 0.48513 0.85884 0.31944 0.0
O142 O 0.48644 0.90082 0.3507 0.0
Mg143 Mg 0.44354 0.93185 0.34149 0.0
C144 C 0.49812 0.87504 0.34079 0.0
C145 C 0.47298 0.81029 0.25261 0.0
O146 O 0.49278 0.83329 0.25014 0.0
O147 O 0.41083 0.84845 0.33089 0.0
O148 O 0.41268 0.89265 0.35928 0.0
O149 O 0.46584 0.89416 0.25417 0.0
O150 O 0.43954 0.91203 0.29486 0.0
C151 C 0.40292 0.86496 0.35471 0.0
C152 C 0.45673 0.9176 0.27112 0.0
O153 O 0.44907 0.8139 0.26998 0.0
Mg154 Mg 0.10678 0.44692 0.28559 0.0
O155 O 0.11273 0.48992 0.31737 0.0
O156 O 0.07212 0.49169 0.35011 0.0
Mg157 Mg 0.04046 0.45006 0.34016 0.0
C158 C 0.09751 0.50284 0.33963 0.0
C159 C 0.15808 0.46399 0.23918 0.0
O160 O 0.13218 0.46818 0.22327 0.0
O161 O 0.12269 0.41436 0.32562 0.0
O162 O 0.07959 0.41663 0.35541 0.0
O163 O 0.07551 0.47468 0.25295 0.0
O164 O 0.05825 0.44699 0.29245 0.0
C165 C 0.10694 0.40598 0.34952 0.0
C166 C 0.05232 0.46552 0.26972 0.0
O167 O 0.15652 0.45443 0.26723 0.0
Mg168 Mg 0.52106 0.86468 0.67801 0.0
O169 O 0.47623 0.85698 0.64963 0.0
O170 O 0.47168 0.89639 0.61575 0.0
Mg171 Mg 0.51212 0.93018 0.6229 0.0
C172 C 0.46187 0.87105 0.62759 0.0
C173 C 0.49873 0.81219 0.72115 0.0
O174 O 0.4843 0.83713 0.73212 0.0
O175 O 0.55153 0.84946 0.63589 0.0
O176 O 0.54658 0.89259 0.6065 0.0
O177 O 0.49557 0.89642 0.71252 0.0
O178 O 0.51929 0.91296 0.67027 0.0
C179 C 0.55839 0.8656 0.61176 0.0
C180 C 0.50292 0.91931 0.69451 0.0
O181 O 0.51626 0.81486 0.69734 0.0
Mg182 Mg 0.10237 0.52405 0.68235 0.0
O183 O 0.10062 0.48366 0.64642 0.0
O184 O 0.0524 0.48451 0.62664 0.0
Mg185 Mg 0.02672 0.52889 0.64204 0.0
C186 C 0.07968 0.47221 0.62864 0.0
C187 C 0.1578 0.4893 0.71188 0.0
O188 O 0.15615 0.51331 0.69306 0.0
O189 O 0.1129 0.55622 0.64095 0.0
O190 O 0.06545 0.55648 0.61855 0.0
O191 O 0.07643 0.49562 0.71818 0.0
O192 O 0.05398 0.5273 0.68421 0.0
C193 C 0.09394 0.56482 0.61941 0.0
C194 C 0.05121 0.50664 0.70551 0.0
O195 O 0.15489 0.51255 0.69354 0.0
Mg196 Mg 0.45099 0.10477 0.68078 0.0
O197 O 0.49547 0.11049 0.65116 0.0
O198 O 0.49693 0.07119 0.61657 0.0
Mg199 Mg 0.45478 0.03972 0.62414 0.0
C200 C 0.50847 0.09584 0.62853 0.0
C201 C 0.47377 0.15509 0.72682 0.0
O202 O 0.4839 0.12893 0.73934 0.0
O203 O 0.42014 0.12222 0.63983 0.0
O204 O 0.42219 0.07957 0.60913 0.0
O205 O 0.47589 0.07158 0.71394 0.0
O206 O 0.45023 0.05648 0.67213 0.0
C207 C 0.41191 0.107 0.61539 0.0
C208 C 0.46713 0.0492 0.69575 0.0
O209 O 0.45882 0.15398 0.70113 0.0
Mg210 Mg 0.86939 0.45156 0.68382 0.0
O211 O 0.86314 0.49749 0.65607 0.0
O212 O 0.90257 0.49948 0.62189 0.0
Mg213 Mg 0.93476 0.45686 0.62851 0.0
C214 C 0.8777 0.51095 0.63396 0.0
C215 C 0.7962 0.44448 0.70497 0.0
O216 O 0.79401 0.41991 0.68667 0.0
O217 O 0.85242 0.42277 0.64116 0.0
O218 O 0.89555 0.42513 0.6115 0.0
O219 O 0.90088 0.47433 0.71915 0.0
O220 O 0.91767 0.45132 0.67616 0.0
C221 C 0.86811 0.4151 0.61673 0.0
C222 C 0.92395 0.46694 0.701 0.0
O223 O 0.82137 0.45977 0.70608 0.0
Mg224 Mg 0.29066 0.52012 0.09924 0.0
O225 O 0.32227 0.47675 0.10602 0.0
O226 O 0.35397 0.47374 0.06459 0.0
Mg227 Mg 0.34299 0.51407 0.03125 0.0
C228 C 0.34427 0.46339 0.09072 0.0
C229 C 0.25572 0.49073 0.15363 0.0
O230 O 0.25392 0.46963 0.13139 0.0
O231 O 0.33164 0.55186 0.11291 0.0
O232 O 0.35957 0.5483 0.0686 0.0
O233 O 0.25628 0.4931 0.06988 0.0
O234 O 0.29626 0.51864 0.05079 0.0
C235 C 0.35492 0.55949 0.09592 0.0
C236 C 0.27274 0.50111 0.046 0.0
O237 O 0.27223 0.5148 0.14918 0.0
Mg238 Mg 0.29014 0.44794 0.86288 0.0
O239 O 0.31893 0.49295 0.85781 0.0
O240 O 0.35181 0.49462 0.89846 0.0
Mg241 Mg 0.34311 0.45301 0.93063 0.0
C242 C 0.34098 0.50583 0.87303 0.0
C243 C 0.24294 0.46067 0.81066 0.0
O244 O 0.22613 0.46218 0.83625 0.0
O245 O 0.3326 0.41748 0.84827 0.0
O246 O 0.3606 0.41962 0.8926 0.0
O247 O 0.25424 0.47233 0.89376 0.0
O248 O 0.2963 0.44837 0.91133 0.0
C249 C 0.35607 0.40922 0.86501 0.0
C250 C 0.2717 0.46467 0.91721 0.0
O251 O 0.27197 0.45441 0.81269 0.0
Mg252 Mg 0.52169 0.28626 0.87321 0.0
O253 O 0.47467 0.31119 0.8638 0.0
O254 O 0.46589 0.34371 0.90391 0.0
Mg255 Mg 0.50519 0.33813 0.94005 0.0
C256 C 0.4582 0.33207 0.87755 0.0
C257 C 0.49733 0.24921 0.81774 0.0
O258 O 0.47659 0.24506 0.83986 0.0
O259 O 0.54814 0.33152 0.86117 0.0
O260 O 0.53912 0.35918 0.90506 0.0
O261 O 0.49889 0.24847 0.90196 0.0
O262 O 0.51762 0.292 0.92161 0.0
C263 C 0.55234 0.35561 0.87853 0.0
C264 C 0.50376 0.26608 0.92602 0.0
O265 O 0.51999 0.26746 0.82291 0.0
Mg266 Mg 0.68364 0.51428 0.86255 0.0
O267 O 0.65083 0.4721 0.86386 0.0
O268 O 0.62312 0.47514 0.90808 0.0
Mg269 Mg 0.63599 0.51986 0.93425 0.0
C270 C 0.63045 0.46134 0.88256 0.0
C271 C 0.72402 0.48795 0.80879 0.0
O272 O 0.74178 0.48383 0.83346 0.0
O273 O 0.64181 0.54538 0.8476 0.0
O274 O 0.61624 0.54804 0.89337 0.0
O275 O 0.71909 0.48932 0.89327 0.0
O276 O 0.68115 0.51947 0.9112 0.0
C277 C 0.61922 0.5554 0.86467 0.0
C278 C 0.70402 0.50081 0.91689 0.0
O279 O 0.6972 0.50069 0.81212 0.0
Mg280 Mg 0.45188 0.67743 0.86363 0.0
O281 O 0.49682 0.64813 0.85675 0.0
O282 O 0.50077 0.61595 0.89763 0.0
Mg283 Mg 0.45974 0.62471 0.93094 0.0
C284 C 0.51097 0.62654 0.8718 0.0
C285 C 0.47873 0.71545 0.80979 0.0
O286 O 0.49809 0.72058 0.83299 0.0
O287 O 0.42196 0.63506 0.84951 0.0
O288 O 0.42626 0.60684 0.89346 0.0
O289 O 0.47713 0.71283 0.89343 0.0
O290 O 0.45332 0.67167 0.91223 0.0
C291 C 0.41507 0.61132 0.86616 0.0
C292 C 0.46981 0.69594 0.9172 0.0
O293 O 0.45684 0.69601 0.81362 0.0
Mg294 Mg 0.68523 0.44976 0.10033 0.0
O295 O 0.65407 0.49369 0.10605 0.0
O296 O 0.62176 0.49483 0.06493 0.0
Mg297 Mg 0.63299 0.45413 0.03189 0.0
C298 C 0.63168 0.50618 0.09064 0.0
C299 C 0.72365 0.47664 0.15473 0.0
O300 O 0.73116 0.49453 0.13114 0.0
O301 O 0.64383 0.41856 0.11417 0.0
O302 O 0.61639 0.42073 0.06946 0.0
O303 O 0.72011 0.47528 0.07 0.0
O304 O 0.67951 0.45005 0.05191 0.0
C305 C 0.62078 0.41033 0.09704 0.0
C306 C 0.70329 0.46692 0.04641 0.0
O307 O 0.70298 0.45591 0.1507 0.0
Mg308 Mg 0.52074 0.68008 0.10065 0.0
O309 O 0.47416 0.65403 0.10457 0.0
O310 O 0.47147 0.62135 0.0637 0.0
Mg311 Mg 0.51423 0.62752 0.03235 0.0
C312 C 0.46043 0.6327 0.08907 0.0
C313 C 0.50111 0.72548 0.15326 0.0
O314 O 0.49382 0.74071 0.12768 0.0
O315 O 0.54769 0.63542 0.11578 0.0
O316 O 0.54479 0.60765 0.07125 0.0
O317 O 0.49924 0.71721 0.06909 0.0
O318 O 0.52124 0.67383 0.05209 0.0
C319 C 0.5548 0.61144 0.09908 0.0
C320 C 0.50625 0.69911 0.04587 0.0
O321 O 0.51346 0.69836 0.15097 0.0
Mg322 Mg 0.45537 0.2896 0.1078 0.0
O323 O 0.50138 0.31668 0.10887 0.0
O324 O 0.50301 0.3463 0.06597 0.0
Mg325 Mg 0.45954 0.33713 0.0363 0.0
C326 C 0.51459 0.33699 0.09184 0.0
C327 C 0.46917 0.24587 0.16246 0.0
O328 O 0.46519 0.22698 0.1386 0.0
O329 O 0.42773 0.33469 0.12071 0.0
O330 O 0.42964 0.35948 0.07459 0.0
O331 O 0.47738 0.25077 0.0787 0.0
O332 O 0.45368 0.29206 0.05902 0.0
C333 C 0.42023 0.35751 0.10278 0.0
C334 C 0.4694 0.26679 0.05439 0.0
O335 O 0.46516 0.27509 0.15857 0.0
C336 C 0.13298 0.39177 0.39928 0.0
C337 C 0.119 0.38182 0.37113 0.0
C338 C 0.10589 0.33193 0.39522 0.0
C339 C 0.11268 0.34508 0.42475 0.0
N340 N 0.1365 0.38553 0.45556 0.0
N341 N 0.09637 0.34124 0.33998 0.0
C342 C 0.12828 0.37407 0.42692 0.0
C343 C 0.10749 0.35109 0.36821 0.0
N344 N 0.1498 0.41862 0.3994 0.0
N345 N 0.09752 0.30133 0.39344 0.0
H346 H 0.09864 0.35462 0.31979 0.0
H347 H 0.08447 0.32047 0.33664 0.0
H348 H 0.09729 0.28713 0.4132 0.0
H349 H 0.09368 0.28943 0.37258 0.0
H350 H 0.16229 0.4267 0.41859 0.0
H351 H 0.15334 0.43139 0.379 0.0
H352 H 0.1446 0.40803 0.45931 0.0
H353 H 0.13443 0.37255 0.47599 0.0
C354 C 0.61474 0.10781 0.40197 0.0
C355 C 0.60208 0.10634 0.43257 0.0
C356 C 0.55022 0.11959 0.41176 0.0
C357 C 0.56158 0.11408 0.38124 0.0
N358 N 0.60456 0.10542 0.34609 0.0
N359 N 0.55833 0.11335 0.46746 0.0
C360 C 0.59402 0.10978 0.37593 0.0
C361 C 0.57002 0.11357 0.43775 0.0
N362 N 0.64635 0.10661 0.39784 0.0
N363 N 0.52021 0.13003 0.41554 0.0
H364 H 0.57245 0.11022 0.48706 0.0
H365 H 0.53466 0.11494 0.47274 0.0
H366 H 0.5058 0.13466 0.39641 0.0
H367 H 0.51063 0.13679 0.43689 0.0
H368 H 0.65722 0.11007 0.37643 0.0
H369 H 0.66199 0.10474 0.41641 0.0
H370 H 0.62718 0.0982 0.34055 0.0
H371 H 0.59006 0.10809 0.32667 0.0
C372 C 0.86266 0.62397 0.40835 0.0
C373 C 0.86443 0.61012 0.43841 0.0
C374 C 0.85631 0.55832 0.4156 0.0
C375 C 0.8584 0.57161 0.38543 0.0
N376 N 0.85438 0.61675 0.35247 0.0
N377 N 0.85341 0.56653 0.4717 0.0
C378 C 0.85814 0.60447 0.38165 0.0
C379 C 0.8579 0.578 0.44232 0.0
N380 N 0.86716 0.65534 0.40527 0.0
N381 N 0.8546 0.52661 0.41846 0.0
H382 H 0.85468 0.58062 0.49156 0.0
H383 H 0.84608 0.54397 0.47639 0.0
H384 H 0.85187 0.51201 0.39912 0.0
H385 H 0.85677 0.51468 0.43949 0.0
H386 H 0.86991 0.66657 0.38398 0.0
H387 H 0.86897 0.67031 0.4244 0.0
H388 H 0.85182 0.6405 0.34796 0.0
H389 H 0.85121 0.60278 0.33274 0.0
C390 C 0.33207 0.86443 0.40576 0.0
C391 C 0.34793 0.86052 0.43459 0.0
C392 C 0.39432 0.84161 0.40652 0.0
C393 C 0.38123 0.853 0.37851 0.0
N394 N 0.33698 0.87229 0.34973 0.0
N395 N 0.39348 0.84324 0.4631 0.0
C396 C 0.34955 0.86281 0.3775 0.0
C397 C 0.37873 0.84785 0.43518 0.0
N398 N 0.30066 0.87016 0.40554 0.0
N399 N 0.42192 0.82538 0.40543 0.0
H400 H 0.38228 0.84688 0.48443 0.0
H401 H 0.41704 0.83733 0.46515 0.0
H402 H 0.43299 0.82036 0.38422 0.0
H403 H 0.43207 0.81451 0.4247 0.0
H404 H 0.28729 0.87118 0.38525 0.0
H405 H 0.28746 0.87098 0.42598 0.0
H406 H 0.31526 0.88328 0.34766 0.0
H407 H 0.34909 0.86988 0.32868 0.0
C408 C 0.11016 0.56604 0.56413 0.0
C409 C 0.10495 0.58268 0.59226 0.0
C410 C 0.1015 0.63182 0.56326 0.0
C411 C 0.09988 0.61433 0.53502 0.0
N412 N 0.10531 0.56515 0.5077 0.0
N413 N 0.09752 0.63107 0.61994 0.0
C414 C 0.10553 0.58154 0.53518 0.0
C415 C 0.10187 0.61562 0.59226 0.0
N416 N 0.11897 0.53527 0.5654 0.0
N417 N 0.10227 0.66368 0.56237 0.0
H418 H 0.09918 0.61976 0.64146 0.0
H419 H 0.09118 0.65456 0.62164 0.0
H420 H 0.10211 0.67622 0.54159 0.0
H421 H 0.10592 0.67764 0.58196 0.0
H422 H 0.1254 0.52199 0.54598 0.0
H423 H 0.12244 0.52368 0.58657 0.0
H424 H 0.10562 0.54089 0.50626 0.0
H425 H 0.10355 0.57598 0.486 0.0
C426 C 0.3362 0.10828 0.57193 0.0
C427 C 0.34887 0.11225 0.54165 0.0
C428 C 0.39757 0.13084 0.56479 0.0
C429 C 0.38771 0.11941 0.59397 0.0
N430 N 0.34697 0.10072 0.62721 0.0
N431 N 0.39012 0.13068 0.50857 0.0
C432 C 0.35645 0.10997 0.59827 0.0
C433 C 0.37898 0.12516 0.5379 0.0
N434 N 0.30516 0.10231 0.57529 0.0
N435 N 0.42492 0.14667 0.56316 0.0
H436 H 0.3764 0.12791 0.48864 0.0
H437 H 0.41303 0.13691 0.50387 0.0
H438 H 0.43775 0.15173 0.58327 0.0
H439 H 0.43312 0.15729 0.54299 0.0
H440 H 0.29393 0.10119 0.59679 0.0
H441 H 0.28999 0.10131 0.55627 0.0
H442 H 0.32578 0.08997 0.63158 0.0
H443 H 0.36111 0.10315 0.64693 0.0
C444 C 0.86695 0.3605 0.59634 0.0
C445 C 0.85623 0.39187 0.59404 0.0
C446 C 0.84801 0.38552 0.53786 0.0
C447 C 0.8617 0.35521 0.53959 0.0
N448 N 0.87463 0.3102 0.57065 0.0
N449 N 0.82627 0.43017 0.56621 0.0
C450 C 0.86773 0.34137 0.56903 0.0
C451 C 0.84313 0.40293 0.56586 0.0
N452 N 0.87802 0.3498 0.6243 0.0
N453 N 0.84093 0.39801 0.50937 0.0
H454 H 0.8216 0.44198 0.5871 0.0
H455 H 0.81443 0.4391 0.54691 0.0
H456 H 0.8431 0.38519 0.48869 0.0
H457 H 0.83409 0.42118 0.50609 0.0
H458 H 0.88967 0.32852 0.62709 0.0
H459 H 0.87623 0.36303 0.64479 0.0
H460 H 0.8773 0.29807 0.59152 0.0
H461 H 0.87481 0.29586 0.55091 0.0
C462 C 0.57624 0.83831 0.56312 0.0
C463 C 0.58363 0.85556 0.5903 0.0
C464 C 0.62963 0.87705 0.56483 0.0
C465 C 0.62015 0.86281 0.53651 0.0
N466 N 0.5917 0.82209 0.51077 0.0
N467 N 0.62179 0.88245 0.6209 0.0
C468 C 0.59592 0.84057 0.53644 0.0
C469 C 0.61216 0.87168 0.59245 0.0
N470 N 0.54953 0.8213 0.56248 0.0
N471 N 0.65441 0.89677 0.56479 0.0
H472 H 0.60903 0.87845 0.64125 0.0
H473 H 0.64328 0.89279 0.62484 0.0
H474 H 0.66837 0.89966 0.54512 0.0
H475 H 0.66064 0.91076 0.58366 0.0
H476 H 0.5405 0.81104 0.54238 0.0
H477 H 0.53601 0.81813 0.58246 0.0
H478 H 0.57565 0.80409 0.50967 0.0
H479 H 0.60643 0.82308 0.49141 0.0
C480 C 0.38896 0.13224 0.39798 0.0
C481 C 0.36159 0.11539 0.39123 0.0
C482 C 0.3854 0.09382 0.34377 0.0
C483 C 0.41407 0.10737 0.35266 0.0
N484 N 0.4411 0.14698 0.38151 0.0
N485 N 0.32969 0.08922 0.35362 0.0
C486 C 0.41507 0.12936 0.37751 0.0
C487 C 0.35845 0.09951 0.3624 0.0
N488 N 0.39024 0.14953 0.4248 0.0
N489 N 0.38449 0.07437 0.31844 0.0
H490 H 0.30989 0.09349 0.36728 0.0
H491 H 0.32493 0.07902 0.33207 0.0
H492 H 0.40364 0.07121 0.30373 0.0
H493 H 0.36538 0.06087 0.31243 0.0
H494 H 0.41044 0.1597 0.43338 0.0
H495 H 0.37053 0.15322 0.43873 0.0
H496 H 0.44302 0.16466 0.39813 0.0
H497 H 0.46 0.14552 0.3662 0.0
C498 C 0.87416 0.37229 0.35959 0.0
C499 C 0.85847 0.3756 0.3885 0.0
C500 C 0.84386 0.42937 0.37521 0.0
C501 C 0.86561 0.42808 0.35025 0.0
N502 N 0.89871 0.39811 0.31578 0.0
N503 N 0.82482 0.405 0.42271 0.0
C504 C 0.87944 0.39923 0.34115 0.0
C505 C 0.84157 0.40331 0.39563 0.0
N506 N 0.88455 0.34337 0.35044 0.0
N507 N 0.82587 0.45561 0.37939 0.0
H508 H 0.82151 0.38542 0.43671 0.0
H509 H 0.81483 0.42549 0.43152 0.0
H510 H 0.82697 0.47463 0.36429 0.0
H511 H 0.8082 0.4576 0.39597 0.0
H512 H 0.89452 0.33858 0.32876 0.0
H513 H 0.88059 0.3235 0.36387 0.0
H514 H 0.91246 0.37883 0.30967 0.0
H515 H 0.9015 0.41725 0.30114 0.0
C516 C 0.55549 0.86112 0.34162 0.0
C517 C 0.5262 0.86253 0.35711 0.0
C518 C 0.55199 0.85015 0.40679 0.0
C519 C 0.58115 0.8557 0.39263 0.0
N520 N 0.61192 0.86411 0.34659 0.0
N521 N 0.49565 0.85543 0.40379 0.0
C522 C 0.58334 0.85963 0.35984 0.0
C523 C 0.52417 0.85558 0.38948 0.0
N524 N 0.55666 0.86184 0.30974 0.0
N525 N 0.55128 0.8402 0.43705 0.0
H526 H 0.47478 0.85791 0.39147 0.0
H527 H 0.49254 0.85402 0.42784 0.0
H528 H 0.57174 0.83601 0.44964 0.0
H529 H 0.53112 0.83347 0.44861 0.0
H530 H 0.57705 0.85831 0.29693 0.0
H531 H 0.53675 0.86334 0.29584 0.0
H532 H 0.61515 0.87111 0.32358 0.0
H533 H 0.63265 0.86181 0.35924 0.0
C534 C 0.10837 0.5883 0.35799 0.0
C535 C 0.11473 0.58641 0.3904 0.0
C536 C 0.1194 0.52956 0.38688 0.0
C537 C 0.10997 0.53117 0.35511 0.0
N538 N 0.10631 0.56154 0.3079 0.0
N539 N 0.13708 0.55779 0.43296 0.0
C540 C 0.10831 0.56044 0.33972 0.0
C541 C 0.12406 0.55773 0.40386 0.0
N542 N 0.10055 0.61653 0.34524 0.0
N543 N 0.12283 0.50114 0.40095 0.0
H544 H 0.14135 0.57862 0.44491 0.0
H545 H 0.14627 0.53798 0.4438 0.0
H546 H 0.12112 0.48016 0.38863 0.0
H547 H 0.12627 0.49826 0.42485 0.0
H548 H 0.09176 0.61922 0.32272 0.0
H549 H 0.10188 0.63735 0.35791 0.0
H550 H 0.1073 0.58215 0.29515 0.0
H551 H 0.10679 0.54154 0.29398 0.0
C552 C 0.40602 0.83811 0.56759 0.0
C553 C 0.37775 0.84957 0.58032 0.0
C554 C 0.40438 0.86094 0.62965 0.0
C555 C 0.43336 0.85719 0.61402 0.0
N556 N 0.46262 0.83892 0.56934 0.0
N557 N 0.34829 0.86853 0.62431 0.0
C558 C 0.43445 0.84421 0.58347 0.0
C559 C 0.3763 0.8592 0.61198 0.0
N560 N 0.40529 0.82174 0.54022 0.0
N561 N 0.40385 0.86662 0.66106 0.0
H562 H 0.32738 0.86604 0.61206 0.0
H563 H 0.34584 0.87945 0.64595 0.0
H564 H 0.42416 0.86741 0.67444 0.0
H565 H 0.38349 0.86754 0.67429 0.0
H566 H 0.42479 0.81104 0.53011 0.0
H567 H 0.38414 0.8163 0.52948 0.0
H568 H 0.46509 0.83267 0.54594 0.0
H569 H 0.48375 0.84196 0.58101 0.0
C570 C 0.10837 0.42071 0.61453 0.0
C571 C 0.08732 0.44568 0.60696 0.0
C572 C 0.06861 0.41532 0.5631 0.0
C573 C 0.09308 0.39279 0.56662 0.0
N574 N 0.1418 0.37998 0.59288 0.0
N575 N 0.05881 0.47044 0.56451 0.0
C576 C 0.11479 0.39714 0.59149 0.0
C577 C 0.07126 0.44431 0.57811 0.0
N578 N 0.12118 0.41832 0.64363 0.0
N579 N 0.04156 0.40873 0.54771 0.0
H580 H 0.06309 0.49291 0.57286 0.0
H581 H 0.04801 0.46967 0.54265 0.0
H582 H 0.03543 0.38611 0.54137 0.0
H583 H 0.02318 0.42491 0.54615 0.0
H584 H 0.13458 0.39903 0.65049 0.0
H585 H 0.11567 0.43351 0.66191 0.0
H586 H 0.15908 0.38426 0.60945 0.0
H587 H 0.14867 0.36436 0.57541 0.0
C588 C 0.53521 0.1219 0.58374 0.0
C589 C 0.53704 0.10851 0.61398 0.0
C590 C 0.59383 0.10386 0.60932 0.0
C591 C 0.59149 0.11442 0.57809 0.0
N592 N 0.56327 0.14416 0.53993 0.0
N593 N 0.5682 0.09713 0.65944 0.0
C594 C 0.56317 0.12729 0.56689 0.0
C595 C 0.56651 0.10317 0.62819 0.0
N596 N 0.50672 0.12812 0.5707 0.0
N597 N 0.62188 0.09292 0.62014 0.0
H598 H 0.54849 0.09741 0.67369 0.0
H599 H 0.5891 0.09498 0.67169 0.0
H600 H 0.64235 0.09466 0.60706 0.0
H601 H 0.62469 0.08136 0.64133 0.0
H602 H 0.50358 0.13462 0.54748 0.0
H603 H 0.48596 0.12534 0.583 0.0
H604 H 0.54379 0.15606 0.53125 0.0
H605 H 0.58395 0.14856 0.52792 0.0
C606 C 0.84993 0.53893 0.59045 0.0
C607 C 0.8647 0.5401 0.62013 0.0
C608 C 0.86948 0.59682 0.61583 0.0
C609 C 0.8575 0.59506 0.58502 0.0
N610 N 0.82617 0.56802 0.54767 0.0
N611 N 0.87915 0.57043 0.66515 0.0
C612 C 0.84406 0.56721 0.57403 0.0
C613 C 0.87111 0.56928 0.63432 0.0
N614 N 0.84293 0.51071 0.57745 0.0
N615 N 0.88085 0.62453 0.62652 0.0
H616 H 0.87987 0.5505 0.67904 0.0
H617 H 0.88222 0.5911 0.67759 0.0
H618 H 0.87841 0.64518 0.61379 0.0
H619 H 0.89333 0.62693 0.64724 0.0
H620 H 0.83532 0.5079 0.55452 0.0
H621 H 0.84617 0.4898 0.58946 0.0
H622 H 0.8139 0.54896 0.53915 0.0
H623 H 0.8213 0.58897 0.53614 0.0
C624 C 0.39329 0.43974 0.11259 0.0
C625 C 0.36133 0.4364 0.10455 0.0
C626 C 0.36635 0.37949 0.10884 0.0
C627 C 0.3989 0.38282 0.11346 0.0
N628 N 0.44184 0.41452 0.12903 0.0
N629 N 0.31533 0.40459 0.10409 0.0
C630 C 0.41175 0.4126 0.11871 0.0
C631 C 0.34706 0.40671 0.10603 0.0
N632 N 0.40608 0.46882 0.11322 0.0
N633 N 0.35443 0.35028 0.10507 0.0
H634 H 0.30073 0.42407 0.10161 0.0
H635 H 0.30321 0.38399 0.10746 0.0
H636 H 0.36791 0.33009 0.10842 0.0
H637 H 0.33172 0.34592 0.09777 0.0
H638 H 0.42982 0.47297 0.11563 0.0
H639 H 0.39273 0.48917 0.11045 0.0
H640 H 0.45263 0.43524 0.13528 0.0
H641 H 0.45521 0.39457 0.13383 0.0
C642 C 0.40015 0.56141 0.83994 0.0
C643 C 0.39098 0.58906 0.85585 0.0
C644 C 0.34331 0.56424 0.87424 0.0
C645 C 0.35434 0.53548 0.86164 0.0
N646 N 0.38786 0.50781 0.82573 0.0
N647 N 0.35055 0.62031 0.87953 0.0
C648 C 0.38098 0.53453 0.84198 0.0
C649 C 0.36119 0.59162 0.86992 0.0
N650 N 0.42779 0.56081 0.82409 0.0
N651 N 0.31654 0.56485 0.89154 0.0
H652 H 0.3635 0.64051 0.8762 0.0
H653 H 0.32826 0.62462 0.88829 0.0
H654 H 0.30238 0.54538 0.89357 0.0
H655 H 0.3087 0.58405 0.90442 0.0
H656 H 0.43798 0.54078 0.81451 0.0
H657 H 0.44068 0.58102 0.82068 0.0
H658 H 0.40607 0.50555 0.80979 0.0
H659 H 0.37363 0.48826 0.82666 0.0
C660 C 0.40027 0.3338 0.87024 0.0
C661 C 0.42997 0.34501 0.86196 0.0
C662 C 0.40631 0.39256 0.84042 0.0
C663 C 0.37774 0.3842 0.85447 0.0
N664 N 0.34496 0.34545 0.87745 0.0
N665 N 0.46016 0.37784 0.82872 0.0
C666 C 0.37377 0.35391 0.86704 0.0
C667 C 0.4326 0.37212 0.84343 0.0
N668 N 0.39781 0.30392 0.88081 0.0
N669 N 0.40844 0.42079 0.82594 0.0
H670 H 0.47891 0.36207 0.82974 0.0
H671 H 0.46372 0.39642 0.81361 0.0
H672 H 0.38882 0.43497 0.82222 0.0
H673 H 0.42919 0.43024 0.81795 0.0
H674 H 0.37693 0.29339 0.88677 0.0
H675 H 0.41698 0.28868 0.88089 0.0
H676 H 0.34047 0.32495 0.88947 0.0
H677 H 0.32518 0.35953 0.87401 0.0
C678 C 0.62563 0.40374 0.87078 0.0
C679 C 0.61169 0.43395 0.873 0.0
C680 C 0.56001 0.41126 0.86484 0.0
C681 C 0.57328 0.38108 0.86874 0.0
N682 N 0.61853 0.34772 0.87494 0.0
N683 N 0.56594 0.46728 0.86975 0.0
C684 C 0.60615 0.37699 0.87079 0.0
C685 C 0.57896 0.43795 0.86886 0.0
N686 N 0.65736 0.40061 0.86913 0.0
N687 N 0.52909 0.41413 0.85742 0.0
H688 H 0.57921 0.48748 0.87068 0.0
H689 H 0.54204 0.47179 0.87076 0.0
H690 H 0.51493 0.39473 0.85469 0.0
H691 H 0.51811 0.43507 0.85142 0.0
H692 H 0.66884 0.37952 0.86451 0.0
H693 H 0.6723 0.41958 0.8697 0.0
H694 H 0.64177 0.34334 0.88073 0.0
H695 H 0.60509 0.32761 0.87406 0.0
C696 C 0.59642 0.60884 0.85891 0.0
C697 C 0.59488 0.57654 0.85197 0.0
C698 C 0.5381 0.57993 0.84823 0.0
C699 C 0.53934 0.61151 0.85835 0.0
N700 N 0.56897 0.65875 0.86278 0.0
N701 N 0.56676 0.53432 0.82903 0.0
C702 C 0.56836 0.627 0.85989 0.0
C703 C 0.56642 0.56319 0.84264 0.0
N704 N 0.62456 0.62152 0.86634 0.0
N705 N 0.50991 0.56567 0.84536 0.0
H706 H 0.58764 0.52224 0.82461 0.0
H707 H 0.54708 0.52375 0.81969 0.0
H708 H 0.4888 0.57774 0.84821 0.0
H709 H 0.50739 0.54182 0.84148 0.0
H710 H 0.62715 0.64394 0.87536 0.0
H711 H 0.64544 0.60882 0.8643 0.0
H712 H 0.58936 0.67167 0.86194 0.0
H713 H 0.54872 0.67248 0.86302 0.0
C714 C 0.58283 0.5295 0.11266 0.0
C715 C 0.61444 0.5334 0.10392 0.0
C716 C 0.60825 0.5902 0.10918 0.0
C717 C 0.57553 0.58629 0.11109 0.0
N718 N 0.53133 0.55324 0.11836 0.0
N719 N 0.65875 0.56663 0.09686 0.0
C720 C 0.56284 0.55615 0.11474 0.0
C721 C 0.62784 0.56353 0.10388 0.0
N722 N 0.57213 0.50022 0.11871 0.0
N723 N 0.62022 0.61952 0.11156 0.0
H724 H 0.67379 0.5475 0.09403 0.0
H725 H 0.66942 0.58792 0.09287 0.0
H726 H 0.60607 0.63919 0.11531 0.0
H727 H 0.64396 0.62418 0.11247 0.0
H728 H 0.55003 0.49566 0.12751 0.0
H729 H 0.5865 0.48041 0.11724 0.0
H730 H 0.51967 0.5321 0.11747 0.0
H731 H 0.51664 0.57262 0.12144 0.0
C732 C 0.37464 0.61296 0.08973 0.0
C733 C 0.37647 0.58427 0.10591 0.0
C734 C 0.42985 0.59595 0.1222 0.0
C735 C 0.43016 0.62064 0.10021 0.0
N736 N 0.40268 0.65523 0.06532 0.0
N737 N 0.40358 0.54948 0.14069 0.0
C738 C 0.40225 0.63033 0.08512 0.0
C739 C 0.40323 0.57643 0.12375 0.0
N740 N 0.34646 0.62296 0.07832 0.0
N741 N 0.45511 0.59116 0.14112 0.0
H742 H 0.38366 0.53598 0.14336 0.0
H743 H 0.42343 0.54015 0.15134 0.0
H744 H 0.47452 0.6056 0.14055 0.0
H745 H 0.45586 0.5748 0.15903 0.0
H746 H 0.34271 0.64465 0.06802 0.0
H747 H 0.32607 0.61034 0.0818 0.0
H748 H 0.38425 0.66157 0.05073 0.0
H749 H 0.4223 0.6691 0.06287 0.0
C750 C 0.57323 0.39305 0.1259 0.0
C751 C 0.59935 0.3855 0.10701 0.0
C752 C 0.57243 0.34051 0.08502 0.0
C753 C 0.54513 0.34973 0.10153 0.0
N754 N 0.5217 0.37844 0.14417 0.0
N755 N 0.62815 0.34724 0.07738 0.0
C756 C 0.54635 0.37381 0.1244 0.0
C757 C 0.60037 0.35731 0.08972 0.0
N758 N 0.57369 0.41945 0.14386 0.0
N759 N 0.57115 0.31663 0.06383 0.0
H760 H 0.6488 0.35945 0.08092 0.0
H761 H 0.63134 0.32573 0.06634 0.0
H762 H 0.55126 0.30324 0.06083 0.0
H763 H 0.5891 0.31094 0.04836 0.0
H764 H 0.55427 0.42872 0.15537 0.0
H765 H 0.59389 0.43254 0.14661 0.0
H766 H 0.52175 0.39421 0.16272 0.0
H767 H 0.50194 0.36451 0.14354 0.0
C768 C 0.00855 0.26387 0.46121 0.0
C769 C 0.01779 0.26398 0.49295 0.0
C770 C 0.96304 0.26275 0.50967 0.0
C771 C 0.9537 0.26339 0.4779 0.0
N772 N 0.96699 0.25555 0.42369 0.0
N773 N 0.00512 0.25454 0.54683 0.0
C774 C 0.97636 0.26099 0.45374 0.0
C775 C -0.00465 0.26037 0.51699 0.0
N776 N 0.03025 0.26823 0.43834 0.0
N777 N 0.94134 0.26642 0.53281 0.0
H778 H 0.02869 0.25237 0.55273 0.0
H779 H -0.00993 0.24883 0.56496 0.0
H780 H 0.91745 0.2677 0.52846 0.0
H781 H 0.94705 0.2702 0.55616 0.0
H782 H 0.02458 0.27243 0.41506 0.0
H783 H 0.05408 0.26934 0.44303 0.0
H784 H 0.9824 0.25081 0.40543 0.0
H785 H 0.94359 0.25273 0.41762 0.0
C786 C 0.69432 0.00914 0.45105 0.0
C787 C 0.70102 0.01804 0.48221 0.0
C788 C 0.70868 0.96304 0.49679 0.0
C789 C 0.70181 0.95409 0.46557 0.0
N790 N 0.69772 0.96874 0.41136 0.0
N791 N 0.7224 0.00483 0.53256 0.0
C792 C 0.69769 0.97725 0.44218 0.0
C793 C 0.71076 -0.00465 0.50437 0.0
N794 N 0.68315 0.03077 0.43034 0.0
N795 N 0.71148 0.94096 0.5196 0.0
H796 H 0.72439 0.02834 0.53869 0.0
H797 H 0.73281 -0.0103 0.54857 0.0
H798 H 0.711 0.91707 0.51513 0.0
H799 H 0.71232 0.94628 0.54334 0.0
H800 H 0.67416 0.02498 0.4085 0.0
H801 H 0.6808 0.05441 0.43584 0.0
H802 H 0.69769 -0.01523 0.39312 0.0
H803 H 0.70115 0.94569 0.40401 0.0
C804 C 0.97655 0.70742 0.51463 0.0
C805 C 0.95251 0.70448 0.49201 0.0
C806 C -0.00834 0.70653 0.45038 0.0
C807 C 0.01574 0.70399 0.47307 0.0
N808 N 0.03096 0.69845 0.52713 0.0
N809 N 0.9373 0.69801 0.43806 0.0
C810 C 0.00823 0.70388 0.50535 0.0
C811 C 0.96 0.70357 0.45973 0.0
N812 N 0.96906 0.71413 0.54499 0.0
N813 N -0.00092 0.71225 0.4199 0.0
H814 H 0.91386 0.69565 0.44385 0.0
H815 H 0.94202 0.69328 0.41464 0.0
H816 H 0.02202 0.7151 0.41236 0.0
H817 H 0.98246 0.71732 0.40282 0.0
H818 H -0.01437 0.71953 0.56193 0.0
H819 H 0.94609 0.71751 0.5525 0.0
H820 H 0.02623 0.69426 0.5506 0.0
H821 H 0.05442 0.69556 0.52144 0.0
C822 C 0.25616 -0.00647 0.4628 0.0
C823 C 0.26007 0.0164 0.48656 0.0
C824 C 0.26082 0.97515 0.52604 0.0
C825 C 0.262 0.95227 0.50192 0.0
N826 N 0.26402 0.93969 0.44694 0.0
N827 N 0.26901 0.02914 0.54072 0.0
C828 C 0.26014 0.96139 0.47016 0.0
C829 C 0.26281 0.00732 0.51826 0.0
N830 N 0.2481 0.0026 0.43326 0.0
N831 N 0.25717 0.9661 0.5564 0.0
H832 H 0.2704 0.05291 0.53597 0.0
H833 H 0.27506 0.02348 0.5636 0.0
H834 H 0.25506 0.94276 0.56288 0.0
H835 H 0.25313 0.98174 0.5747 0.0
H836 H 0.24191 -0.01304 0.41569 0.0
H837 H 0.24452 0.02595 0.42717 0.0
H838 H 0.26677 0.94547 0.4235 0.0
H839 H 0.26699 0.91594 0.45129 0.0
C840 C 0.4976 0.95909 0.27031 0.0
C841 C 0.46642 0.95 0.26487 0.0
C842 C 0.44992 0.0049 0.26027 0.0
C843 C 0.48118 0.01406 0.2659 0.0
N844 N 0.53589 -1e-05 0.26651 0.0
N845 N 0.41469 0.96301 0.24675 0.0
C846 C 0.50539 -0.00887 0.26785 0.0
C847 C 0.44317 0.97258 0.25725 0.0
N848 N 0.51946 0.93744 0.2794 0.0
N849 N 0.42642 0.02675 0.25953 0.0
H850 H 0.40916 0.93947 0.24413 0.0
H851 H 0.39772 0.97815 0.23783 0.0
H852 H 0.43026 0.05066 0.26069 0.0
H853 H 0.40284 0.02117 0.25973 0.0
H854 H 0.54154 0.94326 0.28755 0.0
H855 H 0.51479 0.91367 0.28082 0.0
H856 H 0.55452 -0.01581 0.26491 0.0
H857 H 0.54244 0.02318 0.26359 0.0
C858 C 0.97948 0.5174 0.26702 0.0
C859 C 0.95612 0.49433 0.26415 0.0
C860 C -0.00308 0.45444 0.25573 0.0
C861 C 0.01986 0.47653 0.26416 0.0
N862 N 0.03312 0.52874 0.28012 0.0
N863 N 0.94239 0.44029 0.2565 0.0
C864 C 0.01126 0.50806 0.27004 0.0
C865 C 0.96471 0.46272 0.25818 0.0
N866 N 0.97125 0.54834 0.26612 0.0
N867 N 0.00603 0.42565 0.24489 0.0
H868 H 0.91857 0.44528 0.25719 0.0
H869 H 0.94744 0.41644 0.25638 0.0
H870 H 0.02944 0.41896 0.24268 0.0
H871 H -0.00932 0.40955 0.23536 0.0
H872 H -0.01257 0.56625 0.26518 0.0
H873 H 0.94825 0.55599 0.26291 0.0
H874 H 0.0276 0.551 0.28852 0.0
H875 H 0.05666 0.52283 0.28229 0.0
C876 C 0.51664 0.97495 0.70389 0.0
C877 C 0.49317 0.95207 0.70077 0.0
C878 C 0.45297 -0.00678 0.70297 0.0
C879 C 0.47655 0.01614 0.70088 0.0
N880 N 0.53106 0.02881 0.69621 0.0
N881 N 0.43889 0.93922 0.69463 0.0
C882 C 0.50851 0.00708 0.7009 0.0
C883 C 0.46124 0.96108 0.69996 0.0
N884 N 0.5467 0.96592 0.71022 0.0
N885 N 0.42274 0.0022 0.70851 0.0
H886 H 0.44401 0.91546 0.69268 0.0
H887 H 0.41564 0.94483 0.68992 0.0
H888 H 0.41595 0.02551 0.71147 0.0
H889 H 0.40501 -0.01349 0.71327 0.0
H890 H 0.56428 0.98157 0.71579 0.0
H891 H 0.55338 0.94257 0.71301 0.0
H892 H 0.55441 0.02307 0.69214 0.0
H893 H 0.52612 0.05254 0.6939 0.0
C894 C 0.96404 0.50777 0.71462 0.0
C895 C 0.9566 0.47621 0.70791 0.0
C896 C 0.01243 0.46285 0.70446 0.0
C897 C 0.01976 0.49421 0.71197 0.0
N898 N 0.00316 0.54402 0.73269 0.0
N899 N 0.97369 0.42226 0.70607 0.0
C900 C -0.00433 0.51578 0.71995 0.0
C901 C 0.98082 0.45328 0.70588 0.0
N902 N 0.9414 0.53051 0.71387 0.0
N903 N 0.03516 0.44263 0.69417 0.0
H904 H 0.95089 0.4143 0.70821 0.0
H905 H -0.00947 0.40456 0.70758 0.0
H906 H 0.05867 0.44839 0.69301 0.0
H907 H 0.03035 0.42082 0.68456 0.0
H908 H 0.9462 0.55428 0.71487 0.0
H909 H 0.91802 0.52598 0.7095 0.0
H910 H -0.01339 0.55964 0.74173 0.0
H911 H 0.02619 0.55035 0.73719 0.0
C912 C 0.25892 0.50522 0.9589 0.0
C913 C 0.2644 0.47359 0.95007 0.0
C914 C 0.27055 0.45889 0.00516 0.0
C915 C 0.26562 0.49047 0.01389 0.0
N916 N 0.2468 0.54195 0.00067 0.0
N917 N 0.26485 0.41933 0.96505 0.0
C918 C 0.25708 0.51307 -0.0088 0.0
C919 C 0.26685 0.4501 0.97336 0.0
N920 N 0.25712 0.52805 0.93676 0.0
N921 N 0.28034 0.43759 0.02687 0.0
H922 H 0.26086 0.41214 0.94208 0.0
H923 H 0.26368 0.40127 0.98121 0.0
H924 H 0.28283 0.44306 0.05048 0.0
H925 H 0.28806 0.41512 0.02114 0.0
H926 H 0.2576 0.55181 0.942 0.0
H927 H 0.25692 0.52351 0.91289 0.0
H928 H 0.23721 0.55849 -0.01443 0.0
H929 H 0.24504 0.54829 0.02418 0.0
C930 C 0.51681 0.24997 0.98045 0.0
C931 C 0.49369 0.25755 0.95793 0.0
C932 C 0.45391 0.25854 -0.00113 0.0
C933 C 0.47781 0.25751 0.02188 0.0
N934 N 0.53241 0.25056 0.03486 0.0
N935 N 0.44008 0.26844 0.94487 0.0
C936 C 0.50936 0.25203 0.01284 0.0
C937 C 0.46207 0.26114 0.96684 0.0
N938 N 0.54586 0.24065 0.97065 0.0
N939 N 0.42339 0.25635 0.00778 0.0
H940 H 0.44523 0.26898 0.92112 0.0
H941 H 0.41733 0.27543 0.95025 0.0
H942 H 0.4168 0.25328 0.03103 0.0
H943 H 0.40496 0.25427 -0.00793 0.0
H944 H 0.56307 0.23188 -0.0145 0.0
H945 H 0.55178 0.23893 0.94705 0.0
H946 H 0.55611 0.25054 0.02956 0.0
H947 H 0.52818 0.25118 0.05878 0.0
C948 C 0.71431 0.51518 0.97256 0.0
C949 C 0.71054 0.49144 0.94963 0.0
C950 C 0.71251 0.45197 -0.00918 0.0
C951 C 0.71035 0.47593 0.01376 0.0
N952 N 0.70656 0.53082 0.02646 0.0
N953 N 0.70238 0.43699 0.93733 0.0
C954 C 0.71099 0.50773 0.00473 0.0
C955 C 0.7091 0.45967 0.95876 0.0
N956 N 0.7215 0.54481 0.96354 0.0
N957 N 0.71819 0.42181 -0.00027 0.0
H958 H 0.69927 0.44144 0.91365 0.0
H959 H 0.69727 0.4141 0.94345 0.0
H960 H 0.72148 0.41546 0.02303 0.0
H961 H 0.72293 0.40381 0.98392 0.0
H962 H 0.72738 0.56243 0.97924 0.0
H963 H 0.72473 0.55087 0.94018 0.0
H964 H 0.70297 0.55419 0.02065 0.0
H965 H 0.70409 0.52643 0.05023 0.0
C966 C 0.51193 0.69792 0.95795 0.0
C967 C 0.48046 0.70335 0.94925 0.0
C968 C 0.46604 0.71224 0.00411 0.0
C969 C 0.49753 0.70607 0.01293 0.0
N970 N 0.55168 0.70346 -0.00223 0.0
N971 N 0.42943 0.72365 0.96217 0.0
C972 C 0.52087 0.70222 -0.01039 0.0
C973 C 0.45813 0.71314 0.9718 0.0
N974 N 0.53295 0.68719 0.93632 0.0
N975 N 0.44338 0.71556 0.02635 0.0
H976 H 0.42301 0.72456 0.93866 0.0
H977 H 0.41312 0.73414 0.97701 0.0
H978 H 0.44799 0.71617 0.0502 0.0
H979 H 0.41961 0.71589 0.02133 0.0
H980 H 0.55525 0.67907 0.94202 0.0
H981 H 0.52733 0.68442 0.91281 0.0
H982 H 0.56979 0.70361 0.98155 0.0
H983 H 0.559 0.70778 0.02063 0.0
C984 C 0.19864 0.22043 0.52155 0.0
C985 C 0.19041 0.24272 0.49834 0.0
C986 C 0.23335 0.22357 0.46502 0.0
C987 C 0.24163 0.20147 0.48826 0.0
N988 N 0.23701 0.18326 0.54129 0.0
N989 N 0.20416 0.27071 0.45177 0.0
C990 C 0.226 0.20158 0.5175 0.0
C991 C 0.20917 0.2459 0.47122 0.0
N992 N 0.17914 0.21549 0.54628 0.0
N993 N 0.24811 0.22268 0.43671 0.0
H994 H 0.18705 0.28776 0.4561 0.0
H995 H 0.21867 0.27609 0.43311 0.0
H996 H 0.26695 0.2077 0.432 0.0
H997 H 0.24074 0.23555 0.41742 0.0
H998 H 0.1818 0.19694 0.56174 0.0
H999 H 0.15875 0.22843 0.55019 0.0
H1000 H 0.22883 0.18491 0.56415 0.0
H1001 H 0.25615 0.16815 0.53888 0.0
C1002 C 0.75443 0.18713 0.46307 0.0
C1003 C 0.73957 0.18512 0.49252 0.0
C1004 C 0.76489 0.23353 0.509 0.0
C1005 C 0.78408 0.23205 0.48197 0.0
N1006 N 0.79894 0.20546 0.43411 0.0
N1007 N 0.7304 0.20596 0.54409 0.0
C1008 C 0.77898 0.2087 0.45886 0.0
C1009 C 0.74427 0.20853 0.5155 0.0
N1010 N 0.74497 0.16827 0.43912 0.0
N1011 N 0.76629 0.25902 0.52824 0.0
H1012 H 0.71456 0.18845 0.54931 0.0
H1013 H 0.73582 0.22008 0.56314 0.0
H1014 H 0.78092 0.27779 0.52378 0.0
H1015 H 0.75103 0.26296 0.5468 0.0
H1016 H 0.75275 0.17063 0.41621 0.0
H1017 H 0.72686 0.1524 0.44158 0.0
H1018 H 0.79852 0.18652 0.41877 0.0
H1019 H 0.81766 0.22016 0.43014 0.0
C1020 C 0.77167 0.74227 0.45615 0.0
C1021 C 0.78238 0.73804 0.48726 0.0
C1022 C 0.74131 0.77424 0.50526 0.0
C1023 C 0.73594 0.78384 0.474 0.0
N1024 N 0.74809 0.77783 0.41903 0.0
N1025 N 0.77846 0.75253 0.54193 0.0
C1026 C 0.75118 0.76771 0.44912 0.0
C1027 C 0.76713 0.75421 0.51212 0.0
N1028 N 0.7811 0.72184 0.43332 0.0
N1029 N 0.72162 0.7843 0.52841 0.0
H1030 H 0.79767 0.73888 0.54832 0.0
H1031 H 0.7703 0.76684 0.55998 0.0
H1032 H 0.70203 0.79833 0.52391 0.0
H1033 H 0.72274 0.7759 0.55121 0.0
H1034 H 0.77193 0.72207 0.41077 0.0
H1035 H 0.79552 0.70257 0.43798 0.0
H1036 H 0.76167 0.76909 0.40072 0.0
H1037 H 0.73388 0.7966 0.41254 0.0
C1038 C 0.20844 0.74588 0.45025 0.0
C1039 C 0.18296 0.74009 0.47035 0.0
C1040 C 0.20589 0.77362 0.51083 0.0
C1041 C 0.22856 0.78337 0.48882 0.0
N1042 N 0.25408 0.77717 0.43904 0.0
N1043 N 0.15792 0.74537 0.5204 0.0
C1044 C 0.23086 0.76862 0.45907 0.0
C1045 C 0.18219 0.75264 0.50109 0.0
N1046 N 0.21087 0.72973 0.42272 0.0
N1047 N 0.20666 0.78489 0.54077 0.0
H1048 H 0.1414 0.72859 0.51462 0.0
H1049 H 0.15338 0.75628 0.54169 0.0
H1050 H 0.22273 0.80124 0.54846 0.0
H1051 H 0.19274 0.77676 0.55879 0.0
H1052 H 0.2298 0.73097 0.40762 0.0
H1053 H 0.19459 0.71314 0.41586 0.0
H1054 H 0.25549 0.77022 0.41578 0.0
H1055 H 0.27203 0.79203 0.44572 0.0
C1056 C 0.52372 0.19774 0.2124 0.0
C1057 C 0.50686 0.19623 0.24094 0.0
C1058 C 0.46674 0.23185 0.21965 0.0
C1059 C 0.48374 0.23325 0.1913 0.0
N1060 N 0.53246 0.22568 0.16414 0.0
N1061 N 0.46656 0.21717 0.27447 0.0
C1062 C 0.51362 0.21889 0.18891 0.0
C1063 C 0.4797 0.21511 0.24544 0.0
N1064 N 0.54795 0.17742 0.20662 0.0
N1065 N 0.43763 0.24516 0.22141 0.0
H1066 H 0.47576 0.20534 0.29373 0.0
H1067 H 0.44843 0.2326 0.2801 0.0
H1068 H 0.42787 0.25817 0.20323 0.0
H1069 H 0.42249 0.24191 0.24009 0.0
H1070 H 0.55844 0.17499 0.18478 0.0
H1071 H 0.55598 0.16097 0.22268 0.0
H1072 H 0.55569 0.21834 0.16263 0.0
H1073 H 0.52584 0.24141 0.1467 0.0
C1074 C 0.77006 0.51677 0.21767 0.0
C1075 C 0.78614 0.49111 0.23158 0.0
C1076 C 0.75679 0.45466 0.1988 0.0
C1077 C 0.74073 0.48029 0.18482 0.0
N1078 N 0.72449 0.53423 0.18863 0.0
N1079 N 0.78659 0.43616 0.24333 0.0
C1080 C 0.74483 0.51086 0.19694 0.0
C1081 C 0.77661 0.46022 0.22481 0.0
N1082 N 0.78006 0.54661 0.22224 0.0
N1083 N 0.75524 0.4254 0.18605 0.0
H1084 H 0.80054 0.43971 0.26301 0.0
H1085 H 0.77825 0.4135 0.2412 0.0
H1086 H 0.74182 0.41998 0.16655 0.0
H1087 H 0.7695 0.4069 0.19329 0.0
H1088 H 0.77142 0.56558 0.20961 0.0
H1089 H 0.79862 0.55232 0.23678 0.0
H1090 H 0.72459 0.55635 0.19885 0.0
H1091 H 0.70539 0.53037 0.17402 0.0
C1092 C 0.46113 0.7498 0.18811 0.0
C1093 C 0.49244 0.73964 0.18385 0.0
C1094 C 0.50698 0.76683 0.23214 0.0
C1095 C 0.47741 0.78223 0.23238 0.0
N1096 N 0.4268 0.79027 0.20815 0.0
N1097 N 0.54593 0.7388 0.20151 0.0
C1098 C 0.4543 0.77382 0.21013 0.0
C1099 C 0.51554 0.7477 0.20612 0.0
N1100 N 0.43792 0.73644 0.17094 0.0
N1101 N 0.52675 0.77047 0.25691 0.0
H1102 H 0.55307 0.72452 0.18301 0.0
H1103 H 0.56435 0.74716 0.21489 0.0
H1104 H 0.52082 0.78396 0.27644 0.0
H1105 H 0.54748 0.75775 0.2595 0.0
H1106 H 0.41428 0.7408 0.175 0.0
H1107 H 0.44227 0.71842 0.15495 0.0
H1108 H 0.41099 0.78742 0.18989 0.0
H1109 H 0.42074 0.80866 0.223 0.0
C1110 C 0.21131 0.45016 0.21756 0.0
C1111 C 0.18805 0.47296 0.22465 0.0
C1112 C 0.2127 0.51018 0.18941 0.0
C1113 C 0.23587 0.48727 0.18185 0.0
N1114 N 0.26244 0.43927 0.19529 0.0
N1115 N 0.17253 0.52713 0.22582 0.0
C1116 C 0.23689 0.4585 0.19822 0.0
C1117 C 0.19087 0.50385 0.21344 0.0
N1118 N 0.20806 0.42016 0.22768 0.0
N1119 N 0.20975 0.53686 0.17217 0.0
H1120 H 0.15656 0.52313 0.24374 0.0
H1121 H 0.1755 0.55068 0.22074 0.0
H1122 H 0.22452 0.54252 0.15382 0.0
H1123 H 0.1909 0.55233 0.17438 0.0
H1124 H 0.2222 0.40168 0.22009 0.0
H1125 H 0.18994 0.4133 0.24226 0.0
H1126 H 0.2659 0.41925 0.20865 0.0
H1127 H 0.28168 0.4451 0.18165 0.0
C1128 C 0.5123 0.73726 0.76771 0.0
C1129 C 0.48204 0.73403 0.78069 0.0
C1130 C 0.46241 0.77348 0.74404 0.0
C1131 C 0.4935 0.7817 0.73672 0.0
N1132 N 0.54889 0.77203 0.74325 0.0
N1133 N 0.42805 0.75167 0.78264 0.0
C1134 C 0.51876 0.7634 0.74847 0.0
C1135 C 0.4568 0.75236 0.76886 0.0
N1136 N 0.53484 0.71525 0.77381 0.0
N1137 N 0.43821 0.78594 0.72719 0.0
H1138 H 0.42264 0.73737 0.8014 0.0
H1139 H 0.41014 0.76739 0.77711 0.0
H1140 H 0.44172 0.80093 0.70836 0.0
H1141 H 0.41522 0.77871 0.72963 0.0
H1142 H 0.55654 0.71484 0.76283 0.0
H1143 H 0.53051 0.6955 0.78728 0.0
H1144 H 0.56792 0.76159 0.75445 0.0
H1145 H 0.55494 0.79112 0.72968 0.0
C1146 C 0.2169 0.50079 0.77756 0.0
C1147 C 0.22816 0.46976 0.78067 0.0
C1148 C 0.2006 0.45513 0.73264 0.0
C1149 C 0.18513 0.48467 0.73278 0.0
N1150 N 0.17537 0.53432 0.75869 0.0
N1151 N 0.23107 0.4168 0.76176 0.0
C1152 C 0.19278 0.50747 0.75575 0.0
C1153 C 0.22055 0.44682 0.75805 0.0
N1154 N 0.22922 0.52388 0.79575 0.0
N1155 N 0.19624 0.43513 0.70808 0.0
H1156 H 0.24646 0.41027 0.77954 0.0
H1157 H 0.22339 0.3981 0.74831 0.0
H1158 H 0.18173 0.44059 0.68922 0.0
H1159 H 0.20891 0.41444 0.70502 0.0
H1160 H 0.22415 0.54751 0.7925 0.0
H1161 H 0.24701 0.51959 0.81191 0.0
H1162 H 0.17777 0.54982 0.77732 0.0
H1163 H 0.15644 0.53991 0.74443 0.0
C1164 C 0.45692 0.20574 0.75296 0.0
C1165 C 0.48102 0.18503 0.7428 0.0
C1166 C 0.51833 0.21082 0.77752 0.0
C1167 C 0.49415 0.2313 0.78807 0.0
N1168 N 0.44376 0.2549 0.77843 0.0
N1169 N 0.53614 0.17505 0.73704 0.0
C1170 C 0.46454 0.23097 0.77318 0.0
C1171 C 0.51227 0.19011 0.75227 0.0
N1172 N 0.42654 0.20024 0.74521 0.0
N1173 N 0.54627 0.20922 0.7929 0.0
H1174 H 0.53234 0.16021 0.71804 0.0
H1175 H 0.55958 0.1799 0.741 0.0
H1176 H 0.5519 0.2234 0.81183 0.0
H1177 H 0.56308 0.19198 0.78842 0.0
H1178 H 0.40778 0.21241 0.75513 0.0
H1179 H 0.41976 0.18209 0.73055 0.0
H1180 H 0.42287 0.25745 0.76618 0.0
H1181 H 0.44904 0.27397 0.79266 0.0
C1182 C 0.74282 0.44325 0.77613 0.0
C1183 C 0.73497 0.47544 0.77824 0.0
C1184 C 0.75799 0.48371 0.72651 0.0
C1185 C 0.77097 0.45305 0.72736 0.0
N1186 N 0.7776 0.40391 0.75435 0.0
N1187 N 0.7353 0.527 0.75582 0.0
C1188 C 0.76343 0.43262 0.75223 0.0
C1189 C 0.74206 0.49582 0.75325 0.0
N1190 N 0.73037 0.42283 0.79704 0.0
N1191 N 0.76086 0.50111 0.69999 0.0
H1192 H 0.72324 0.53662 0.77477 0.0
H1193 H 0.74323 0.54363 0.74013 0.0
H1194 H 0.7722 0.49263 0.68005 0.0
H1195 H 0.74958 0.52253 0.69669 0.0
H1196 H 0.73281 0.39867 0.79505 0.0
H1197 H 0.71486 0.42996 0.81455 0.0
H1198 H 0.77596 0.38974 0.77399 0.0
H1199 H 0.79297 0.39507 0.73758 0.0
loop_
_geom_bond_atom_site_label_1
_geom_bond_atom_site_label_2
_geom_bond_distance
_geom_bond_site_symmetry_2
_ccdc_geom_bond_type
Mg0 O1 2.028 . S
Mg0 O7 1.986 . S
Mg0 O9 2.114 . S
Mg0 O10 2.251 . S
Mg0 O13 2.010 . S
O1 Mg0 2.028 . S
O1 C4 1.250 . S
O2 Mg3 2.028 . S
O2 C4 1.248 . S
Mg3 O2 2.028 . S
Mg3 O8 2.032 . S
Mg3 O10 2.079 . S
C4 O1 1.250 . S
C4 O2 1.248 . S
C5 O6 1.264 . S
C5 O13 1.249 . S
O6 C5 1.264 . S
O7 Mg0 1.986 . S
O7 C11 1.246 . S
O8 Mg3 2.032 . S
O8 C11 1.259 . S
O9 Mg0 2.114 . S
O9 C12 1.252 . S
O10 Mg0 2.251 . S
O10 Mg3 2.079 . S
O10 C12 1.273 . S
C11 O7 1.246 . S
C11 O8 1.259 . S
C12 O9 1.252 . S
C12 O10 1.273 . S
O13 Mg0 2.010 . S
O13 C5 1.249 . S
Mg14 O15 2.028 . S
Mg14 O21 1.986 . S
Mg14 O23 2.114 . S
Mg14 O24 2.251 . S
Mg14 O27 2.010 . S
O15 Mg14 2.028 . S
O15 C18 1.250 . S
O16 Mg17 2.028 . S
O16 C18 1.248 . S
Mg17 O16 2.028 . S
Mg17 O22 2.032 . S
Mg17 O24 2.079 . S
C18 O15 1.250 . S
C18 O16 1.248 . S
C19 O20 1.264 . S
C19 O27 1.249 . S
O20 C19 1.264 . S
O21 Mg14 1.986 . S
O21 C25 1.246 . S
O22 Mg17 2.032 . S
O22 C25 1.259 . S
O23 Mg14 2.114 . S
O23 C26 1.252 . S
O24 Mg14 2.251 . S
O24 Mg17 2.079 . S
O24 C26 1.273 . S
C25 O21 1.246 . S
C25 O22 1.259 . S
C26 O23 1.252 . S
C26 O24 1.273 . S
O27 Mg14 2.010 . S
O27 C19 1.249 . S
Mg28 O29 2.028 . S
Mg28 O35 1.986 . S
Mg28 O37 2.114 . S
Mg28 O38 2.251 . S
Mg28 O41 2.010 . S
O29 Mg28 2.028 . S
O29 C32 1.250 . S
O30 Mg31 2.028 . S
O30 C32 1.248 . S
Mg31 O30 2.028 . S
Mg31 O36 2.032 . S
Mg31 O38 2.079 . S
C32 O29 1.250 . S
C32 O30 1.248 . S
C33 O34 1.264 . S
C33 O41 1.249 . S
O34 C33 1.264 . S
O35 Mg28 1.986 . S
O35 C39 1.246 . S
O36 Mg31 2.032 . S
O36 C39 1.259 . S
O37 Mg28 2.114 . S
O37 C40 1.252 . S
O38 Mg28 2.251 . S
O38 Mg31 2.079 . S
O38 C40 1.273 . S
C39 O35 1.246 . S
C39 O36 1.259 . S
C40 O37 1.252 . S
C40 O38 1.273 . S
O41 Mg28 2.010 . S
O41 C33 1.249 . S
Mg42 O43 2.028 . S
Mg42 O49 1.986 . S
Mg42 O51 2.114 . S
Mg42 O52 2.251 . S
Mg42 O55 2.010 . S
O43 Mg42 2.028 . S
O43 C46 1.250 . S
O44 Mg45 2.028 . S
O44 C46 1.248 . S
Mg45 O44 2.028 . S
Mg45 O50 2.032 . S
Mg45 O52 2.079 . S
C46 O43 1.250 . S
C46 O44 1.248 . S
C47 O48 1.264 . S
C47 O55 1.249 . S
O48 C47 1.264 . S
O49 Mg42 1.986 . S
O49 C53 1.246 . S
O50 Mg45 2.032 . S
O50 C53 1.259 . S
O51 Mg42 2.114 . S
O51 C54 1.252 . S
O52 Mg42 2.251 . S
O52 Mg45 2.079 . S
O52 C54 1.273 . S
C53 O49 1.246 . S
C53 O50 1.259 . S
C54 O51 1.252 . S
C54 O52 1.273 . S
O55 Mg42 2.010 . S
O55 C47 1.249 . S
Mg56 O57 2.028 . S
Mg56 O63 1.986 . S
Mg56 O65 2.114 . S
Mg56 O66 2.251 . S
Mg56 O69 2.010 . S
O57 Mg56 2.028 . S
O57 C60 1.250 . S
O58 Mg59 2.028 . S
O58 C60 1.248 . S
Mg59 O58 2.028 . S
Mg59 O64 2.032 . S
Mg59 O66 2.079 . S
C60 O57 1.250 . S
C60 O58 1.248 . S
C61 O62 1.264 . S
C61 O69 1.249 . S
O62 C61 1.264 . S
O63 Mg56 1.986 . S
O63 C67 1.246 . S
O64 Mg59 2.032 . S
O64 C67 1.259 . S
O65 Mg56 2.114 . S
O65 C68 1.252 . S
O66 Mg56 2.251 . S
O66 Mg59 2.079 . S
O66 C68 1.273 . S
C67 O63 1.246 . S
C67 O64 1.259 . S
C68 O65 1.252 . S
C68 O66 1.273 . S
O69 Mg56 2.010 . S
O69 C61 1.249 . S
Mg70 O71 2.028 . S
Mg70 O77 1.986 . S
Mg70 O79 2.114 . S
Mg70 O80 2.251 . S
Mg70 O83 2.010 . S
O71 Mg70 2.028 . S
O71 C74 1.250 . S
O72 Mg73 2.028 . S
O72 C74 1.248 . S
Mg73 O72 2.028 . S
Mg73 O78 2.032 . S
Mg73 O80 2.079 . S
C74 O71 1.250 . S
C74 O72 1.248 . S
C75 O76 1.264 . S
C75 O83 1.249 . S
O76 C75 1.264 . S
O77 Mg70 1.986 . S
O77 C81 1.246 . S
O78 Mg73 2.032 . S
O78 C81 1.259 . S
O79 Mg70 2.114 . S
O79 C82 1.252 . S
O80 Mg70 2.251 . S
O80 Mg73 2.079 . S
O80 C82 1.273 . S
C81 O77 1.246 . S
C81 O78 1.259 . S
C82 O79 1.252 . S
C82 O80 1.273 . S
O83 Mg70 2.010 . S
O83 C75 1.249 . S
Mg84 O85 2.028 . S
Mg84 O91 1.986 . S
Mg84 O93 2.114 . S
Mg84 O94 2.251 . S
Mg84 O97 2.010 . S
O85 Mg84 2.028 . S
O85 C88 1.250 . S
O86 Mg87 2.028 . S
O86 C88 1.248 . S
Mg87 O86 2.028 . S
Mg87 O92 2.032 . S
Mg87 O94 2.079 . S
C88 O85 1.250 . S
C88 O86 1.248 . S
C89 O90 1.264 . S
C89 O97 1.249 . S
O90 C89 1.264 . S
O91 Mg84 1.986 . S
O91 C95 1.246 . S
O92 Mg87 2.032 . S
O92 C95 1.259 . S
O93 Mg84 2.114 . S
O93 C96 1.252 . S
O94 Mg84 2.251 . S
O94 Mg87 2.079 . S
O94 C96 1.273 . S
C95 O91 1.246 . S
C95 O92 1.259 . S
C96 O93 1.252 . S
C96 O94 1.273 . S
O97 Mg84 2.010 . S
O97 C89 1.249 . S
Mg98 O99 2.028 . S
Mg98 O105 1.986 . S
Mg98 O107 2.114 . S
Mg98 O108 2.251 . S
Mg98 O111 2.010 . S
O99 Mg98 2.028 . S
O99 C102 1.250 . S
O100 Mg101 2.028 . S
O100 C102 1.248 . S
Mg101 O100 2.028 . S
Mg101 O106 2.032 . S
Mg101 O108 2.079 . S
C102 O99 1.250 . S
C102 O100 1.248 . S
C103 O104 1.264 . S
C103 O111 1.249 . S
O104 C103 1.264 . S
O105 Mg98 1.986 . S
O105 C109 1.246 . S
O106 Mg101 2.032 . S
O106 C109 1.259 . S
O107 Mg98 2.114 . S
O107 C110 1.252 . S
O108 Mg98 2.251 . S
O108 Mg101 2.079 . S
O108 C110 1.273 . S
C109 O105 1.246 . S
C109 O106 1.259 . S
C110 O107 1.252 . S
C110 O108 1.273 . S
O111 Mg98 2.010 . S
O111 C103 1.249 . S
Mg112 O113 2.028 . S
Mg112 O119 1.986 . S
Mg112 O121 2.114 . S
Mg112 O122 2.251 . S
Mg112 O125 2.010 . S
O113 Mg112 2.028 . S
O113 C116 1.250 . S
O114 Mg115 2.028 . S
O114 C116 1.248 . S
Mg115 O114 2.028 . S
Mg115 O120 2.032 . S
Mg115 O122 2.079 . S
C116 O113 1.250 . S
C116 O114 1.248 . S
C117 O118 1.264 . S
C117 O125 1.249 . S
O118 C117 1.264 . S
O119 Mg112 1.986 . S
O119 C123 1.246 . S
O120 Mg115 2.032 . S
O120 C123 1.259 . S
O121 Mg112 2.114 . S
O121 C124 1.252 . S
O122 Mg112 2.251 . S
O122 Mg115 2.079 . S
O122 C124 1.273 . S
C123 O119 1.246 . S
C123 O120 1.259 . S
C124 O121 1.252 . S
C124 O122 1.273 . S
O125 Mg112 2.010 . S
O125 C117 1.249 . S
Mg126 O127 2.028 . S
Mg126 O133 1.986 . S
Mg126 O135 2.114 . S
Mg126 O136 2.251 . S
Mg126 O139 2.010 . S
O127 Mg126 2.028 . S
O127 C130 1.250 . S
O128 Mg129 2.028 . S
O128 C130 1.248 . S
Mg129 O128 2.028 . S
Mg129 O134 2.032 . S
Mg129 O136 2.079 . S
C130 O127 1.250 . S
C130 O128 1.248 . S
C131 O132 1.264 . S
C131 O139 1.249 . S
O132 C131 1.264 . S
O133 Mg126 1.986 . S
O133 C137 1.246 . S
O134 Mg129 2.032 . S
O134 C137 1.259 . S
O135 Mg126 2.114 . S
O135 C138 1.252 . S
O136 Mg126 2.251 . S
O136 Mg129 2.079 . S
O136 C138 1.273 . S
C137 O133 1.246 . S
C137 O134 1.259 . S
C138 O135 1.252 . S
C138 O136 1.273 . S
O139 Mg126 2.010 . S
O139 C131 1.249 . S
Mg140 O141 2.028 . S
Mg140 O147 1.986 . S
Mg140 O149 2.114 . S
Mg140 O150 2.251 . S
Mg140 O153 2.010 . S
O141 Mg140 2.028 . S
O141 C144 1.250 . S
O142 Mg143 2.028 . S
O142 C144 1.248 . S
Mg143 O142 2.028 . S
Mg143 O148 2.032 . S
Mg143 O150 2.079 . S
C144 O141 1.250 . S
C144 O142 1.248 . S
C145 O146 1.264 . S
C145 O153 1.249 . S
O146 C145 1.264 . S
O147 Mg140 1.986 . S
O147 C151 1.246 . S
O148 Mg143 2.032 . S
O148 C151 1.259 . S
O149 Mg140 2.114 . S
O149 C152 1.252 . S
O150 Mg140 2.251 . S
O150 Mg143 2.079 . S
O150 C152 1.273 . S
C151 O147 1.246 . S
C151 O148 1.259 . S
C152 O149 1.252 . S
C152 O150 1.273 . S
O153 Mg140 2.010 . S
O153 C145 1.249 . S
Mg154 O155 2.028 . S
Mg154 O161 1.986 . S
Mg154 O163 2.114 . S
Mg154 O164 2.251 . S
Mg154 O167 2.010 . S
O155 Mg154 2.028 . S
O155 C158 1.250 . S
O156 Mg157 2.028 . S
O156 C158 1.248 . S
Mg157 O156 2.028 . S
Mg157 O162 2.032 . S
Mg157 O164 2.079 . S
C158 O155 1.250 . S
C158 O156 1.248 . S
C159 O160 1.264 . S
C159 O167 1.249 . S
O160 C159 1.264 . S
O161 Mg154 1.986 . S
O161 C165 1.246 . S
O162 Mg157 2.032 . S
O162 C165 1.259 . S
O163 Mg154 2.114 . S
O163 C166 1.252 . S
O164 Mg154 2.251 . S
O164 Mg157 2.079 . S
O164 C166 1.273 . S
C165 O161 1.246 . S
C165 O162 1.259 . S
C166 O163 1.252 . S
C166 O164 1.273 . S
O167 Mg154 2.010 . S
O167 C159 1.249 . S
Mg168 O169 2.028 . S
Mg168 O175 1.986 . S
Mg168 O177 2.114 . S
Mg168 O178 2.251 . S
Mg168 O181 2.010 . S
O169 Mg168 2.028 . S
O169 C172 1.250 . S
O170 Mg171 2.028 . S
O170 C172 1.248 . S
Mg171 O170 2.028 . S
Mg171 O176 2.032 . S
Mg171 O178 2.079 . S
C172 O169 1.250 . S
C172 O170 1.248 . S
C173 O174 1.264 . S
C173 O181 1.249 . S
O174 C173 1.264 . S
O175 Mg168 1.986 . S
O175 C179 1.246 . S
O176 Mg171 2.032 . S
O176 C179 1.259 . S
O177 Mg168 2.114 . S
O177 C180 1.252 . S
O178 Mg168 2.251 . S
O178 Mg171 2.079 . S
O178 C180 1.273 . S
C179 O175 1.246 . S
C179 O176 1.259 . S
C180 O177 1.252 . S
C180 O178 1.273 . S
O181 Mg168 2.010 . S
O181 C173 1.249 . S
Mg182 O183 2.028 . S
Mg182 O189 1.986 . S
Mg182 O191 2.114 . S
Mg182 O192 2.251 . S
Mg182 O195 2.010 . S
O183 Mg182 2.028 . S
O183 C186 1.250 . S
O184 Mg185 2.028 . S
O184 C186 1.248 . S
Mg185 O184 2.028 . S
Mg185 O190 2.032 . S
Mg185 O192 2.079 . S
C186 O183 1.250 . S
C186 O184 1.248 . S
C187 O188 1.264 . S
C187 O195 1.249 . S
O188 C187 1.264 . S
O189 Mg182 1.986 . S
O189 C193 1.246 . S
O190 Mg185 2.032 . S
O190 C193 1.259 . S
O191 Mg182 2.114 . S
O191 C194 1.252 . S
O192 Mg182 2.251 . S
O192 Mg185 2.079 . S
O192 C194 1.273 . S
C193 O189 1.246 . S
C193 O190 1.259 . S
C194 O191 1.252 . S
C194 O192 1.273 . S
O195 Mg182 2.010 . S
O195 C187 1.249 . S
Mg196 O197 2.028 . S
Mg196 O203 1.986 . S
Mg196 O205 2.114 . S
Mg196 O206 2.251 . S
Mg196 O209 2.010 . S
O197 Mg196 2.028 . S
O197 C200 1.250 . S
O198 Mg199 2.028 . S
O198 C200 1.248 . S
Mg199 O198 2.028 . S
Mg199 O204 2.032 . S
Mg199 O206 2.079 . S
C200 O197 1.250 . S
C200 O198 1.248 . S
C201 O202 1.264 . S
C201 O209 1.249 . S
O202 C201 1.264 . S
O203 Mg196 1.986 . S
O203 C207 1.246 . S
O204 Mg199 2.032 . S
O204 C207 1.259 . S
O205 Mg196 2.114 . S
O205 C208 1.252 . S
O206 Mg196 2.251 . S
O206 Mg199 2.079 . S
O206 C208 1.273 . S
C207 O203 1.246 . S
C207 O204 1.259 . S
C208 O205 1.252 . S
C208 O206 1.273 . S
O209 Mg196 2.010 . S
O209 C201 1.249 . S
Mg210 O211 2.028 . S
Mg210 O217 1.986 . S
Mg210 O219 2.114 . S
Mg210 O220 2.251 . S
Mg210 O223 2.010 . S
O211 Mg210 2.028 . S
O211 C214 1.250 . S
O212 Mg213 2.028 . S
O212 C214 1.248 . S
Mg213 O212 2.028 . S
Mg213 O218 2.032 . S
Mg213 O220 2.079 . S
C214 O211 1.250 . S
C214 O212 1.248 . S
C215 O216 1.264 . S
C215 O223 1.249 . S
O216 C215 1.264 . S
O217 Mg210 1.986 . S
O217 C221 1.246 . S
O218 Mg213 2.032 . S
O218 C221 1.259 . S
O219 Mg210 2.114 . S
O219 C222 1.252 . S
O220 Mg210 2.251 . S
O220 Mg213 2.079 . S
O220 C222 1.273 . S
C221 O217 1.246 . S
C221 O218 1.259 . S
C222 O219 1.252 . S
C222 O220 1.273 . S
O223 Mg210 2.010 . S
O223 C215 1.249 . S
Mg224 O225 2.028 . S
Mg224 O231 1.986 . S
Mg224 O233 2.114 . S
Mg224 O234 2.251 . S
Mg224 O237 2.010 . S
O225 Mg224 2.028 . S
O225 C228 1.250 . S
O226 Mg227 2.028 . S
O226 C228 1.248 . S
Mg227 O226 2.028 . S
Mg227 O232 2.032 . S
Mg227 O234 2.079 . S
C228 O225 1.250 . S
C228 O226 1.248 . S
C229 O230 1.264 . S
C229 O237 1.249 . S
O230 C229 1.264 . S
O231 Mg224 1.986 . S
O231 C235 1.246 . S
O232 Mg227 2.032 . S
O232 C235 1.259 . S
O233 Mg224 2.114 . S
O233 C236 1.252 . S
O234 Mg224 2.251 . S
O234 Mg227 2.079 . S
O234 C236 1.273 . S
C235 O231 1.246 . S
C235 O232 1.259 . S
C236 O233 1.252 . S
C236 O234 1.273 . S
O237 Mg224 2.010 . S
O237 C229 1.249 . S
Mg238 O239 2.028 . S
Mg238 O245 1.986 . S
Mg238 O247 2.114 . S
Mg238 O248 2.251 . S
Mg238 O251 2.010 . S
O239 Mg238 2.028 . S
O239 C242 1.250 . S
O240 Mg241 2.028 . S
O240 C242 1.248 . S
Mg241 O240 2.028 . S
Mg241 O246 2.032 . S
Mg241 O248 2.079 . S
C242 O239 1.250 . S
C242 O240 1.248 . S
C243 O244 1.264 . S
C243 O251 1.249 . S
O244 C243 1.264 . S
O245 Mg238 1.986 . S
O245 C249 1.246 . S
O246 Mg241 2.032 . S
O246 C249 1.259 . S
O247 Mg238 2.114 . S
O247 C250 1.252 . S
O248 Mg238 2.251 . S
O248 Mg241 2.079 . S
O248 C250 1.273 . S
C249 O245 1.246 . S
C249 O246 1.259 . S
C250 O247 1.252 . S
C250 O248 1.273 . S
O251 Mg238 2.010 . S
O251 C243 1.249 . S
Mg252 O253 2.028 . S
Mg252 O259 1.986 . S
Mg252 O261 2.114 . S
Mg252 O262 2.251 . S
Mg252 O265 2.010 . S
O253 Mg252 2.028 . S
O253 C256 1.250 . S
O254 Mg255 2.028 . S
O254 C256 1.248 . S
Mg255 O254 2.028 . S
Mg255 O260 2.032 . S
Mg255 O262 2.079 . S
C256 O253 1.250 . S
C256 O254 1.248 . S
C257 O258 1.264 . S
C257 O265 1.249 . S
O258 C257 1.264 . S
O259 Mg252 1.986 . S
O259 C263 1.246 . S
O260 Mg255 2.032 . S
O260 C263 1.259 . S
O261 Mg252 2.114 . S
O261 C264 1.252 . S
O262 Mg252 2.251 . S
O262 Mg255 2.079 . S
O262 C264 1.273 . S
C263 O259 1.246 . S
C263 O260 1.259 . S
C264 O261 1.252 . S
C264 O262 1.273 . S
O265 Mg252 2.010 . S
O265 C257 1.249 . S
Mg266 O267 2.028 . S
Mg266 O273 1.986 . S
Mg266 O275 2.114 . S
Mg266 O276 2.251 . S
Mg266 O279 2.010 . S
O267 Mg266 2.028 . S
O267 C270 1.250 . S
O268 Mg269 2.028 . S
O268 C270 1.248 . S
Mg269 O268 2.028 . S
Mg269 O274 2.032 . S
Mg269 O276 2.079 . S
C270 O267 1.250 . S
C270 O268 1.248 . S
C271 O272 1.264 . S
C271 O279 1.249 . S
O272 C271 1.264 . S
O273 Mg266 1.986 . S
O273 C277 1.246 . S
O274 Mg269 2.032 . S
O274 C277 1.259 . S
O275 Mg266 2.114 . S
O275 C278 1.252 . S
O276 Mg266 2.251 . S
O276 Mg269 2.079 . S
O276 C278 1.273 . S
C277 O273 1.246 . S
C277 O274 1.259 . S
C278 O275 1.252 . S
C278 O276 1.273 . S
O279 Mg266 2.010 . S
O279 C271 1.249 . S
Mg280 O281 2.028 . S
Mg280 O287 1.986 . S
Mg280 O289 2.114 . S
Mg280 O290 2.251 . S
Mg280 O293 2.010 . S
O281 Mg280 2.028 . S
O281 C284 1.250 . S
O282 Mg283 2.028 . S
O282 C284 1.248 . S
Mg283 O282 2.028 . S
Mg283 O288 2.032 . S
Mg283 O290 2.079 . S
C284 O281 1.250 . S
C284 O282 1.248 . S
C285 O286 1.264 . S
C285 O293 1.249 . S
O286 C285 1.264 . S
O287 Mg280 1.986 . S
O287 C291 1.246 . S
O288 Mg283 2.032 . S
O288 C291 1.259 . S
O289 Mg280 2.114 . S
O289 C292 1.252 . S
O290 Mg280 2.251 . S
O290 Mg283 2.079 . S
O290 C292 1.273 . S
C291 O287 1.246 . S
C291 O288 1.259 . S
C292 O289 1.252 . S
C292 O290 1.273 . S
O293 Mg280 2.010 . S
O293 C285 1.249 . S
Mg294 O295 2.028 . S
Mg294 O301 1.986 . S
Mg294 O303 2.114 . S
Mg294 O304 2.251 . S
Mg294 O307 2.010 . S
O295 Mg294 2.028 . S
O295 C298 1.250 . S
O296 Mg297 2.028 . S
O296 C298 1.248 . S
Mg297 O296 2.028 . S
Mg297 O302 2.032 . S
Mg297 O304 2.079 . S
C298 O295 1.250 . S
C298 O296 1.248 . S
C299 O300 1.264 . S
C299 O307 1.249 . S
O300 C299 1.264 . S
O301 Mg294 1.986 . S
O301 C305 1.246 . S
O302 Mg297 2.032 . S
O302 C305 1.259 . S
O303 Mg294 2.114 . S
O303 C306 1.252 . S
O304 Mg294 2.251 . S
O304 Mg297 2.079 . S
O304 C306 1.273 . S
C305 O301 1.246 . S
C305 O302 1.259 . S
C306 O303 1.252 . S
C306 O304 1.273 . S
O307 Mg294 2.010 . S
O307 C299 1.249 . S
Mg308 O309 2.028 . S
Mg308 O315 1.986 . S
Mg308 O317 2.114 . S
Mg308 O318 2.251 . S
Mg308 O321 2.010 . S
O309 Mg308 2.028 . S
O309 C312 1.250 . S
O310 Mg311 2.028 . S
O310 C312 1.248 . S
Mg311 O310 2.028 . S
Mg311 O316 2.032 . S
Mg311 O318 2.079 . S
C312 O309 1.250 . S
C312 O310 1.248 . S
C313 O314 1.264 . S
C313 O321 1.249 . S
O314 C313 1.264 . S
O315 Mg308 1.986 . S
O315 C319 1.246 . S
O316 Mg311 2.032 . S
O316 C319 1.259 . S
O317 Mg308 2.114 . S
O317 C320 1.252 . S
O318 Mg308 2.251 . S
O318 Mg311 2.079 . S
O318 C320 1.273 . S
C319 O315 1.246 . S
C319 O316 1.259 . S
C320 O317 1.252 . S
C320 O318 1.273 . S
O321 Mg308 2.010 . S
O321 C313 1.249 . S
Mg322 O323 2.028 . S
Mg322 O329 1.986 . S
Mg322 O331 2.114 . S
Mg322 O332 2.251 . S
Mg322 O335 2.010 . S
O323 Mg322 2.028 . S
O323 C326 1.250 . S
O324 Mg325 2.028 . S
O324 C326 1.248 . S
Mg325 O324 2.028 . S
Mg325 O330 2.032 . S
Mg325 O332 2.079 . S
C326 O323 1.250 . S
C326 O324 1.248 . S
C327 O328 1.264 . S
C327 O335 1.249 . S
O328 C327 1.264 . S
O329 Mg322 1.986 . S
O329 C333 1.246 . S
O330 Mg325 2.032 . S
O330 C333 1.259 . S
O331 Mg322 2.114 . S
O331 C334 1.252 . S
O332 Mg322 2.251 . S
O332 Mg325 2.079 . S
O332 C334 1.273 . S
C333 O329 1.246 . S
C333 O330 1.259 . S
C334 O331 1.252 . S
C334 O332 1.273 . S
O335 Mg322 2.010 . S
O335 C327 1.249 . S
C336 C337 1.363 . S
C336 C342 1.379 . S
C336 N344 1.356 . S
C337 C336 1.363 . S
C337 C343 1.363 . S
C338 C339 1.363 . S
C338 C343 1.379 . S
C338 N345 1.356 . S
C339 C338 1.363 . S
C339 C342 1.363 . S
N340 C342 1.356 . S
N340 H352 0.984 . S
N340 H353 0.985 . S
N341 C343 1.356 . S
N341 H346 0.984 . S
N341 H347 0.985 . S
C342 C336 1.379 . S
C342 C339 1.363 . S
C342 N340 1.356 . S
C343 C337 1.363 . S
C343 C338 1.379 . S
C343 N341 1.356 . S
N344 C336 1.356 . S
N344 H350 0.984 . S
N344 H351 0.984 . S
N345 C338 1.356 . S
N345 H348 0.984 . S
N345 H349 0.985 . S
H346 N341 0.984 . S
H347 N341 0.985 . S
H348 N345 0.984 . S
H349 N345 0.985 . S
H350 N344 0.984 . S
H351 N344 0.984 . S
H352 N340 0.984 . S
H353 N340 0.985 . S
C354 C355 1.363 . S
C354 C360 1.379 . S
C354 N362 1.356 . S
C355 C354 1.363 . S
C355 C361 1.363 . S
C356 C357 1.363 . S
C356 C361 1.379 . S
C356 N363 1.356 . S
C357 C356 1.363 . S
C357 C360 1.363 . S
N358 C360 1.356 . S
N358 H370 0.984 . S
N358 H371 0.985 . S
N359 C361 1.356 . S
N359 H364 0.984 . S
N359 H365 0.985 . S
C360 C354 1.379 . S
C360 C357 1.363 . S
C360 N358 1.356 . S
C361 C355 1.363 . S
C361 C356 1.379 . S
C361 N359 1.356 . S
N362 C354 1.356 . S
N362 H368 0.984 . S
N362 H369 0.984 . S
N363 C356 1.356 . S
N363 H366 0.984 . S
N363 H367 0.985 . S
H364 N359 0.984 . S
H365 N359 0.985 . S
H366 N363 0.984 . S
H367 N363 0.985 . S
H368 N362 0.984 . S
H369 N362 0.984 . S
H370 N358 0.984 . S
H371 N358 0.985 . S
C372 C373 1.363 . S
C372 C378 1.379 . S
C372 N380 1.356 . S
C373 C372 1.363 . S
C373 C379 1.363 . S
C374 C375 1.363 . S
C374 C379 1.379 . S
C374 N381 1.356 . S
C375 C374 1.363 . S
C375 C378 1.363 . S
N376 C378 1.356 . S
N376 H388 0.984 . S
N376 H389 0.985 . S
N377 C379 1.356 . S
N377 H382 0.984 . S
N377 H383 0.985 . S
C378 C372 1.379 . S
C378 C375 1.363 . S
C378 N376 1.356 . S
C379 C373 1.363 . S
C379 C374 1.379 . S
C379 N377 1.356 . S
N380 C372 1.356 . S
N380 H386 0.984 . S
N380 H387 0.984 . S
N381 C374 1.356 . S
N381 H384 0.984 . S
N381 H385 0.985 . S
H382 N377 0.984 . S
H383 N377 0.985 . S
H384 N381 0.984 . S
H385 N381 0.985 . S
H386 N380 0.984 . S
H387 N380 0.984 . S
H388 N376 0.984 . S
H389 N376 0.985 . S
C390 C391 1.363 . S
C390 C396 1.379 . S
C390 N398 1.356 . S
C391 C390 1.363 . S
C391 C397 1.363 . S
C392 C393 1.363 . S
C392 C397 1.379 . S
C392 N399 1.356 . S
C393 C392 1.363 . S
C393 C396 1.363 . S
N394 C396 1.356 . S
N394 H406 0.984 . S
N394 H407 0.985 . S
N395 C397 1.356 . S
N395 H400 0.984 . S
N395 H401 0.985 . S
C396 C390 1.379 . S
C396 C393 1.363 . S
C396 N394 1.356 . S
C397 C391 1.363 . S
C397 C392 1.379 . S
C397 N395 1.356 . S
N398 C390 1.356 . S
N398 H404 0.984 . S
N398 H405 0.984 . S
N399 C392 1.356 . S
N399 H402 0.984 . S
N399 H403 0.985 . S
H400 N395 0.984 . S
H401 N395 0.985 . S
H402 N399 0.984 . S
H403 N399 0.985 . S
H404 N398 0.984 . S
H405 N398 0.984 . S
H406 N394 0.984 . S
H407 N394 0.985 . S
C408 C409 1.363 . S
C408 C414 1.379 . S
C408 N416 1.356 . S
C409 C408 1.363 . S
C409 C415 1.363 . S
C410 C411 1.363 . S
C410 C415 1.379 . S
C410 N417 1.356 . S
C411 C410 1.363 . S
C411 C414 1.363 . S
N412 C414 1.356 . S
N412 H424 0.984 . S
N412 H425 0.985 . S
N413 C415 1.356 . S
N413 H418 0.984 . S
N413 H419 0.985 . S
C414 C408 1.379 . S
C414 C411 1.363 . S
C414 N412 1.356 . S
C415 C409 1.363 . S
C415 C410 1.379 . S
C415 N413 1.356 . S
N416 C408 1.356 . S
N416 H422 0.984 . S
N416 H423 0.984 . S
N417 C410 1.356 . S
N417 H420 0.984 . S
N417 H421 0.985 . S
H418 N413 0.984 . S
H419 N413 0.985 . S
H420 N417 0.984 . S
H421 N417 0.985 . S
H422 N416 0.984 . S
H423 N416 0.984 . S
H424 N412 0.984 . S
H425 N412 0.985 . S
C426 C427 1.363 . S
C426 C432 1.379 . S
C426 N434 1.356 . S
C427 C426 1.363 . S
C427 C433 1.363 . S
C428 C429 1.363 . S
C428 C433 1.379 . S
C428 N435 1.356 . S
C429 C428 1.363 . S
C429 C432 1.363 . S
N430 C432 1.356 . S
N430 H442 0.984 . S
N430 H443 0.985 . S
N431 C433 1.356 . S
N431 H436 0.984 . S
N431 H437 0.985 . S
C432 C426 1.379 . S
C432 C429 1.363 . S
C432 N430 1.356 . S
C433 C427 1.363 . S
C433 C428 1.379 . S
C433 N431 1.356 . S
N434 C426 1.356 . S
N434 H440 0.984 . S
N434 H441 0.984 . S
N435 C428 1.356 . S
N435 H438 0.984 . S
N435 H439 0.985 . S
H436 N431 0.984 . S
H437 N431 0.985 . S
H438 N435 0.984 . S
H439 N435 0.985 . S
H440 N434 0.984 . S
H441 N434 0.984 . S
H442 N430 0.984 . S
H443 N430 0.985 . S
C444 C445 1.363 . S
C444 C450 1.379 . S
C444 N452 1.356 . S
C445 C444 1.363 . S
C445 C451 1.363 . S
C446 C447 1.363 . S
C446 C451 1.379 . S
C446 N453 1.356 . S
C447 C446 1.363 . S
C447 C450 1.363 . S
N448 C450 1.356 . S
N448 H460 0.984 . S
N448 H461 0.985 . S
N449 C451 1.356 . S
N449 H454 0.984 . S
N449 H455 0.985 . S
C450 C444 1.379 . S
C450 C447 1.363 . S
C450 N448 1.356 . S
C451 C445 1.363 . S
C451 C446 1.379 . S
C451 N449 1.356 . S
N452 C444 1.356 . S
N452 H458 0.984 . S
N452 H459 0.984 . S
N453 C446 1.356 . S
N453 H456 0.984 . S
N453 H457 0.985 . S
H454 N449 0.984 . S
H455 N449 0.985 . S
H456 N453 0.984 . S
H457 N453 0.985 . S
H458 N452 0.984 . S
H459 N452 0.984 . S
H460 N448 0.984 . S
H461 N448 0.985 . S
C462 C463 1.363 . S
C462 C468 1.379 . S
C462 N470 1.356 . S
C463 C462 1.363 . S
C463 C469 1.363 . S
C464 C465 1.363 . S
C464 C469 1.379 . S
C464 N471 1.356 . S
C465 C464 1.363 . S
C465 C468 1.363 . S
N466 C468 1.356 . S
N466 H478 0.984 . S
N466 H479 0.985 . S
N467 C469 1.356 . S
N467 H472 0.984 . S
N467 H473 0.985 . S
C468 C462 1.379 . S
C468 C465 1.363 . S
C468 N466 1.356 . S
C469 C463 1.363 . S
C469 C464 1.379 . S
C469 N467 1.356 . S
N470 C462 1.356 . S
N470 H476 0.984 . S
N470 H477 0.984 . S
N471 C464 1.356 . S
N471 H474 0.984 . S
N471 H475 0.985 . S
H472 N467 0.984 . S
H473 N467 0.985 . S
H474 N471 0.984 . S
H475 N471 0.985 . S
H476 N470 0.984 . S
H477 N470 0.984 . S
H478 N466 0.984 . S
H479 N466 0.985 . S
C480 C481 1.363 . S
C480 C486 1.379 . S
C480 N488 1.356 . S
C481 C480 1.363 . S
C481 C487 1.363 . S
C482 C483 1.363 . S
C482 C487 1.379 . S
C482 N489 1.356 . S
C483 C482 1.363 . S
C483 C486 1.363 . S
N484 C486 1.356 . S
N484 H496 0.984 . S
N484 H497 0.985 . S
N485 C487 1.356 . S
N485 H490 0.984 . S
N485 H491 0.985 . S
C486 C480 1.379 . S
C486 C483 1.363 . S
C486 N484 1.356 . S
C487 C481 1.363 . S
C487 C482 1.379 . S
C487 N485 1.356 . S
N488 C480 1.356 . S
N488 H494 0.984 . S
N488 H495 0.984 . S
N489 C482 1.356 . S
N489 H492 0.984 . S
N489 H493 0.985 . S
H490 N485 0.984 . S
H491 N485 0.985 . S
H492 N489 0.984 . S
H493 N489 0.985 . S
H494 N488 0.984 . S
H495 N488 0.984 . S
H496 N484 0.984 . S
H497 N484 0.985 . S
C498 C499 1.363 . S
C498 C504 1.379 . S
C498 N506 1.356 . S
C499 C498 1.363 . S
C499 C505 1.363 . S
C500 C501 1.363 . S
C500 C505 1.379 . S
C500 N507 1.356 . S
C501 C500 1.363 . S
C501 C504 1.363 . S
N502 C504 1.356 . S
N502 H514 0.984 . S
N502 H515 0.985 . S
N503 C505 1.356 . S
N503 H508 0.984 . S
N503 H509 0.985 . S
C504 C498 1.379 . S
C504 C501 1.363 . S
C504 N502 1.356 . S
C505 C499 1.363 . S
C505 C500 1.379 . S
C505 N503 1.356 . S
N506 C498 1.356 . S
N506 H512 0.984 . S
N506 H513 0.984 . S
N507 C500 1.356 . S
N507 H510 0.984 . S
N507 H511 0.985 . S
H508 N503 0.984 . S
H509 N503 0.985 . S
H510 N507 0.984 . S
H511 N507 0.985 . S
H512 N506 0.984 . S
H513 N506 0.984 . S
H514 N502 0.984 . S
H515 N502 0.985 . S
C516 C517 1.363 . S
C516 C522 1.379 . S
C516 N524 1.356 . S
C517 C516 1.363 . S
C517 C523 1.363 . S
C518 C519 1.363 . S
C518 C523 1.379 . S
C518 N525 1.356 . S
C519 C518 1.363 . S
C519 C522 1.363 . S
N520 C522 1.356 . S
N520 H532 0.984 . S
N520 H533 0.985 . S
N521 C523 1.356 . S
N521 H526 0.984 . S
N521 H527 0.985 . S
C522 C516 1.379 . S
C522 C519 1.363 . S
C522 N520 1.356 . S
C523 C517 1.363 . S
C523 C518 1.379 . S
C523 N521 1.356 . S
N524 C516 1.356 . S
N524 H530 0.984 . S
N524 H531 0.984 . S
N525 C518 1.356 . S
N525 H528 0.984 . S
N525 H529 0.985 . S
H526 N521 0.984 . S
H527 N521 0.985 . S
H528 N525 0.984 . S
H529 N525 0.985 . S
H530 N524 0.984 . S
H531 N524 0.984 . S
H532 N520 0.984 . S
H533 N520 0.985 . S
C534 C535 1.363 . S
C534 C540 1.379 . S
C534 N542 1.356 . S
C535 C534 1.363 . S
C535 C541 1.363 . S
C536 C537 1.363 . S
C536 C541 1.379 . S
C536 N543 1.356 . S
C537 C536 1.363 . S
C537 C540 1.363 . S
N538 C540 1.356 . S
N538 H550 0.984 . S
N538 H551 0.985 . S
N539 C541 1.356 . S
N539 H544 0.984 . S
N539 H545 0.985 . S
C540 C534 1.379 . S
C540 C537 1.363 . S
C540 N538 1.356 . S
C541 C535 1.363 . S
C541 C536 1.379 . S
C541 N539 1.356 . S
N542 C534 1.356 . S
N542 H548 0.984 . S
N542 H549 0.984 . S
N543 C536 1.356 . S
N543 H546 0.984 . S
N543 H547 0.985 . S
H544 N539 0.984 . S
H545 N539 0.985 . S
H546 N543 0.984 . S
H547 N543 0.985 . S
H548 N542 0.984 . S
H549 N542 0.984 . S
H550 N538 0.984 . S
H551 N538 0.985 . S
C552 C553 1.363 . S
C552 C558 1.379 . S
C552 N560 1.356 . S
C553 C552 1.363 . S
C553 C559 1.363 . S
C554 C555 1.363 . S
C554 C559 1.379 . S
C554 N561 1.356 . S
C555 C554 1.363 . S
C555 C558 1.363 . S
N556 C558 1.356 . S
N556 H568 0.984 . S
N556 H569 0.985 . S
N557 C559 1.356 . S
N557 H562 0.984 . S
N557 H563 0.985 . S
C558 C552 1.379 . S
C558 C555 1.363 . S
C558 N556 1.356 . S
C559 C553 1.363 . S
C559 C554 1.379 . S
C559 N557 1.356 . S
N560 C552 1.356 . S
N560 H566 0.984 . S
N560 H567 0.984 . S
N561 C554 1.356 . S
N561 H564 0.984 . S
N561 H565 0.985 . S
H562 N557 0.984 . S
H563 N557 0.985 . S
H564 N561 0.984 . S
H565 N561 0.985 . S
H566 N560 0.984 . S
H567 N560 0.984 . S
H568 N556 0.984 . S
H569 N556 0.985 . S
C570 C571 1.363 . S
C570 C576 1.379 . S
C570 N578 1.356 . S
C571 C570 1.363 . S
C571 C577 1.363 . S
C572 C573 1.363 . S
C572 C577 1.379 . S
C572 N579 1.356 . S
C573 C572 1.363 . S
C573 C576 1.363 . S
N574 C576 1.356 . S
N574 H586 0.984 . S
N574 H587 0.985 . S
N575 C577 1.356 . S
N575 H580 0.984 . S
N575 H581 0.985 . S
C576 C570 1.379 . S
C576 C573 1.363 . S
C576 N574 1.356 . S
C577 C571 1.363 . S
C577 C572 1.379 . S
C577 N575 1.356 . S
N578 C570 1.356 . S
N578 H584 0.984 . S
N578 H585 0.984 . S
N579 C572 1.356 . S
N579 H582 0.984 . S
N579 H583 0.985 . S
H580 N575 0.984 . S
H581 N575 0.985 . S
H582 N579 0.984 . S
H583 N579 0.985 . S
H584 N578 0.984 . S
H585 N578 0.984 . S
H586 N574 0.984 . S
H587 N574 0.985 . S
C588 C589 1.363 . S
C588 C594 1.379 . S
C588 N596 1.356 . S
C589 C588 1.363 . S
C589 C595 1.363 . S
C590 C591 1.363 . S
C590 C595 1.379 . S
C590 N597 1.356 . S
C591 C590 1.363 . S
C591 C594 1.363 . S
N592 C594 1.356 . S
N592 H604 0.984 . S
N592 H605 0.985 . S
N593 C595 1.356 . S
N593 H598 0.984 . S
N593 H599 0.985 . S
C594 C588 1.379 . S
C594 C591 1.363 . S
C594 N592 1.356 . S
C595 C589 1.363 . S
C595 C590 1.379 . S
C595 N593 1.356 . S
N596 C588 1.356 . S
N596 H602 0.984 . S
N596 H603 0.984 . S
N597 C590 1.356 . S
N597 H600 0.984 . S
N597 H601 0.985 . S
H598 N593 0.984 . S
H599 N593 0.985 . S
H600 N597 0.984 . S
H601 N597 0.985 . S
H602 N596 0.984 . S
H603 N596 0.984 . S
H604 N592 0.984 . S
H605 N592 0.985 . S
C606 C607 1.363 . S
C606 C612 1.379 . S
C606 N614 1.356 . S
C607 C606 1.363 . S
C607 C613 1.363 . S
C608 C609 1.363 . S
C608 C613 1.379 . S
C608 N615 1.356 . S
C609 C608 1.363 . S
C609 C612 1.363 . S
N610 C612 1.356 . S
N610 H622 0.984 . S
N610 H623 0.985 . S
N611 C613 1.356 . S
N611 H616 0.984 . S
N611 H617 0.985 . S
C612 C606 1.379 . S
C612 C609 1.363 . S
C612 N610 1.356 . S
C613 C607 1.363 . S
C613 C608 1.379 . S
C613 N611 1.356 . S
N614 C606 1.356 . S
N614 H620 0.984 . S
N614 H621 0.984 . S
N615 C608 1.356 . S
N615 H618 0.984 . S
N615 H619 0.985 . S
H616 N611 0.984 . S
H617 N611 0.985 . S
H618 N615 0.984 . S
H619 N615 0.985 . S
H620 N614 0.984 . S
H621 N614 0.984 . S
H622 N610 0.984 . S
H623 N610 0.985 . S
C624 C625 1.363 . S
C624 C630 1.379 . S
C624 N632 1.356 . S
C625 C624 1.363 . S
C625 C631 1.363 . S
C626 C627 1.363 . S
C626 C631 1.379 . S
C626 N633 1.356 . S
C627 C626 1.363 . S
C627 C630 1.363 . S
N628 C630 1.356 . S
N628 H640 0.984 . S
N628 H641 0.985 . S
N629 C631 1.356 . S
N629 H634 0.984 . S
N629 H635 0.985 . S
C630 C624 1.379 . S
C630 C627 1.363 . S
C630 N628 1.356 . S
C631 C625 1.363 . S
C631 C626 1.379 . S
C631 N629 1.356 . S
N632 C624 1.356 . S
N632 H638 0.984 . S
N632 H639 0.984 . S
N633 C626 1.356 . S
N633 H636 0.984 . S
N633 H637 0.985 . S
H634 N629 0.984 . S
H635 N629 0.985 . S
H636 N633 0.984 . S
H637 N633 0.985 . S
H638 N632 0.984 . S
H639 N632 0.984 . S
H640 N628 0.984 . S
H641 N628 0.985 . S
C642 C643 1.363 . S
C642 C648 1.379 . S
C642 N650 1.356 . S
C643 C642 1.363 . S
C643 C649 1.363 . S
C644 C645 1.363 . S
C644 C649 1.379 . S
C644 N651 1.356 . S
C645 C644 1.363 . S
C645 C648 1.363 . S
N646 C648 1.356 . S
N646 H658 0.984 . S
N646 H659 0.985 . S
N647 C649 1.356 . S
N647 H652 0.984 . S
N647 H653 0.985 . S
C648 C642 1.379 . S
C648 C645 1.363 . S
C648 N646 1.356 . S
C649 C643 1.363 . S
C649 C644 1.379 . S
C649 N647 1.356 . S
N650 C642 1.356 . S
N650 H656 0.984 . S
N650 H657 0.984 . S
N651 C644 1.356 . S
N651 H654 0.984 . S
N651 H655 0.985 . S
H652 N647 0.984 . S
H653 N647 0.985 . S
H654 N651 0.984 . S
H655 N651 0.985 . S
H656 N650 0.984 . S
H657 N650 0.984 . S
H658 N646 0.984 . S
H659 N646 0.985 . S
C660 C661 1.363 . S
C660 C666 1.379 . S
C660 N668 1.356 . S
C661 C660 1.363 . S
C661 C667 1.363 . S
C662 C663 1.363 . S
C662 C667 1.379 . S
C662 N669 1.356 . S
C663 C662 1.363 . S
C663 C666 1.363 . S
N664 C666 1.356 . S
N664 H676 0.984 . S
N664 H677 0.985 . S
N665 C667 1.356 . S
N665 H670 0.984 . S
N665 H671 0.985 . S
C666 C660 1.379 . S
C666 C663 1.363 . S
C666 N664 1.356 . S
C667 C661 1.363 . S
C667 C662 1.379 . S
C667 N665 1.356 . S
N668 C660 1.356 . S
N668 H674 0.984 . S
N668 H675 0.984 . S
N669 C662 1.356 . S
N669 H672 0.984 . S
N669 H673 0.985 . S
H670 N665 0.984 . S
H671 N665 0.985 . S
H672 N669 0.984 . S
H673 N669 0.985 . S
H674 N668 0.984 . S
H675 N668 0.984 . S
H676 N664 0.984 . S
H677 N664 0.985 . S
C678 C679 1.363 . S
C678 C684 1.379 . S
C678 N686 1.356 . S
C679 C678 1.363 . S
C679 C685 1.363 . S
C680 C681 1.363 . S
C680 C685 1.379 . S
C680 N687 1.356 . S
C681 C680 1.363 . S
C681 C684 1.363 . S
N682 C684 1.356 . S
N682 H694 0.984 . S
N682 H695 0.985 . S
N683 C685 1.356 . S
N683 H688 0.984 . S
N683 H689 0.985 . S
C684 C678 1.379 . S
C684 C681 1.363 . S
C684 N682 1.356 . S
C685 C679 1.363 . S
C685 C680 1.379 . S
C685 N683 1.356 . S
N686 C678 1.356 . S
N686 H692 0.984 . S
N686 H693 0.984 . S
N687 C680 1.356 . S
N687 H690 0.984 . S
N687 H691 0.985 . S
H688 N683 0.984 . S
H689 N683 0.985 . S
H690 N687 0.984 . S
H691 N687 0.985 . S
H692 N686 0.984 . S
H693 N686 0.984 . S
H694 N682 0.984 . S
H695 N682 0.985 . S
C696 C697 1.363 . S
C696 C702 1.379 . S
C696 N704 1.356 . S
C697 C696 1.363 . S
C697 C703 1.363 . S
C698 C699 1.363 . S
C698 C703 1.379 . S
C698 N705 1.356 . S
C699 C698 1.363 . S
C699 C702 1.363 . S
N700 C702 1.356 . S
N700 H712 0.984 . S
N700 H713 0.985 . S
N701 C703 1.356 . S
N701 H706 0.984 . S
N701 H707 0.985 . S
C702 C696 1.379 . S
C702 C699 1.363 . S
C702 N700 1.356 . S
C703 C697 1.363 . S
C703 C698 1.379 . S
C703 N701 1.356 . S
N704 C696 1.356 . S
N704 H710 0.984 . S
N704 H711 0.984 . S
N705 C698 1.356 . S
N705 H708 0.984 . S
N705 H709 0.985 . S
H706 N701 0.984 . S
H707 N701 0.985 . S
H708 N705 0.984 . S
H709 N705 0.985 . S
H710 N704 0.984 . S
H711 N704 0.984 . S
H712 N700 0.984 . S
H713 N700 0.985 . S
C714 C715 1.363 . S
C714 C720 1.379 . S
C714 N722 1.356 . S
C715 C714 1.363 . S
C715 C721 1.363 . S
C716 C717 1.363 . S
C716 C721 1.379 . S
C716 N723 1.356 . S
C717 C716 1.363 . S
C717 C720 1.363 . S
N718 C720 1.356 . S
N718 H730 0.984 . S
N718 H731 0.985 . S
N719 C721 1.356 . S
N719 H724 0.984 . S
N719 H725 0.985 . S
C720 C714 1.379 . S
C720 C717 1.363 . S
C720 N718 1.356 . S
C721 C715 1.363 . S
C721 C716 1.379 . S
C721 N719 1.356 . S
N722 C714 1.356 . S
N722 H728 0.984 . S
N722 H729 0.984 . S
N723 C716 1.356 . S
N723 H726 0.984 . S
N723 H727 0.985 . S
H724 N719 0.984 . S
H725 N719 0.985 . S
H726 N723 0.984 . S
H727 N723 0.985 . S
H728 N722 0.984 . S
H729 N722 0.984 . S
H730 N718 0.984 . S
H731 N718 0.985 . S
C732 C733 1.363 . S
C732 C738 1.379 . S
C732 N740 1.356 . S
C733 C732 1.363 . S
C733 C739 1.363 . S
C734 C735 1.363 . S
C734 C739 1.379 . S
C734 N741 1.356 . S
C735 C734 1.363 . S
C735 C738 1.363 . S
N736 C738 1.356 . S
N736 H748 0.984 . S
N736 H749 0.985 . S
N737 C739 1.356 . S
N737 H742 0.984 . S
N737 H743 0.985 . S
C738 C732 1.379 . S
C738 C735 1.363 . S
C738 N736 1.356 . S
C739 C733 1.363 . S
C739 C734 1.379 . S
C739 N737 1.356 . S
N740 C732 1.356 . S
N740 H746 0.984 . S
N740 H747 0.984 . S
N741 C734 1.356 . S
N741 H744 0.984 . S
N741 H745 0.985 . S
H742 N737 0.984 . S
H743 N737 0.985 . S
H744 N741 0.984 . S
H745 N741 0.985 . S
H746 N740 0.984 . S
H747 N740 0.984 . S
H748 N736 0.984 . S
H749 N736 0.985 . S
C750 C751 1.363 . S
C750 C756 1.379 . S
C750 N758 1.356 . S
C751 C750 1.363 . S
C751 C757 1.363 . S
C752 C753 1.363 . S
C752 C757 1.379 . S
C752 N759 1.356 . S
C753 C752 1.363 . S
C753 C756 1.363 . S
N754 C756 1.356 . S
N754 H766 0.984 . S
N754 H767 0.985 . S
N755 C757 1.356 . S
N755 H760 0.984 . S
N755 H761 0.985 . S
C756 C750 1.379 . S
C756 C753 1.363 . S
C756 N754 1.356 . S
C757 C751 1.363 . S
C757 C752 1.379 . S
C757 N755 1.356 . S
N758 C750 1.356 . S
N758 H764 0.984 . S
N758 H765 0.984 . S
N759 C752 1.356 . S
N759 H762 0.984 . S
N759 H763 0.985 . S
H760 N755 0.984 . S
H761 N755 0.985 . S
H762 N759 0.984 . S
H763 N759 0.985 . S
H764 N758 0.984 . S
H765 N758 0.984 . S
H766 N754 0.984 . S
H767 N754 0.985 . S
C768 C769 1.363 . S
C768 C774 1.379 1_455 S
C768 N776 1.356 . S
C769 C768 1.363 . S
C769 C775 1.363 . S
C770 C771 1.363 . S
C770 C775 1.379 1_655 S
C770 N777 1.356 . S
C771 C770 1.363 . S
C771 C774 1.363 . S
N772 C774 1.356 . S
N772 H784 0.984 . S
N772 H785 0.985 . S
N773 C775 1.356 . S
N773 H778 0.984 . S
N773 H779 0.985 . S
C774 C768 1.379 1_655 S
C774 C771 1.363 . S
C774 N772 1.356 . S
C775 C769 1.363 . S
C775 C770 1.379 1_455 S
C775 N773 1.356 . S
N776 C768 1.356 . S
N776 H782 0.984 . S
N776 H783 0.984 . S
N777 C770 1.356 . S
N777 H780 0.984 . S
N777 H781 0.985 . S
H778 N773 0.984 . S
H779 N773 0.985 . S
H780 N777 0.984 . S
H781 N777 0.985 . S
H782 N776 0.984 . S
H783 N776 0.984 . S
H784 N772 0.984 . S
H785 N772 0.985 . S
C786 C787 1.363 . S
C786 C792 1.379 1_545 S
C786 N794 1.356 . S
C787 C786 1.363 . S
C787 C793 1.363 . S
C788 C789 1.363 . S
C788 C793 1.379 1_565 S
C788 N795 1.356 . S
C789 C788 1.363 . S
C789 C792 1.363 . S
N790 C792 1.356 . S
N790 H802 0.984 . S
N790 H803 0.985 . S
N791 C793 1.356 . S
N791 H796 0.984 . S
N791 H797 0.985 . S
C792 C786 1.379 1_565 S
C792 C789 1.363 . S
C792 N790 1.356 . S
C793 C787 1.363 . S
C793 C788 1.379 1_545 S
C793 N791 1.356 . S
N794 C786 1.356 . S
N794 H800 0.984 . S
N794 H801 0.984 . S
N795 C788 1.356 . S
N795 H798 0.984 . S
N795 H799 0.985 . S
H796 N791 0.984 . S
H797 N791 0.985 . S
H798 N795 0.984 . S
H799 N795 0.985 . S
H800 N794 0.984 . S
H801 N794 0.984 . S
H802 N790 0.984 . S
H803 N790 0.985 . S
C804 C805 1.363 . S
C804 C810 1.379 1_655 S
C804 N812 1.356 . S
C805 C804 1.363 . S
C805 C811 1.363 . S
C806 C807 1.363 . S
C806 C811 1.379 1_455 S
C806 N813 1.356 . S
C807 C806 1.363 . S
C807 C810 1.363 . S
N808 C810 1.356 . S
N808 H820 0.984 . S
N808 H821 0.985 . S
N809 C811 1.356 . S
N809 H814 0.984 . S
N809 H815 0.985 . S
C810 C804 1.379 1_455 S
C810 C807 1.363 . S
C810 N808 1.356 . S
C811 C805 1.363 . S
C811 C806 1.379 1_655 S
C811 N809 1.356 . S
N812 C804 1.356 . S
N812 H818 0.984 . S
N812 H819 0.984 . S
N813 C806 1.356 . S
N813 H816 0.984 . S
N813 H817 0.985 . S
H814 N809 0.984 . S
H815 N809 0.985 . S
H816 N813 0.984 . S
H817 N813 0.985 . S
H818 N812 0.984 . S
H819 N812 0.984 . S
H820 N808 0.984 . S
H821 N808 0.985 . S
C822 C823 1.363 . S
C822 C828 1.379 1_545 S
C822 N830 1.356 . S
C823 C822 1.363 . S
C823 C829 1.363 . S
C824 C825 1.363 . S
C824 C829 1.379 1_565 S
C824 N831 1.356 . S
C825 C824 1.363 . S
C825 C828 1.363 . S
N826 C828 1.356 . S
N826 H838 0.984 . S
N826 H839 0.985 . S
N827 C829 1.356 . S
N827 H832 0.984 . S
N827 H833 0.985 . S
C828 C822 1.379 1_565 S
C828 C825 1.363 . S
C828 N826 1.356 . S
C829 C823 1.363 . S
C829 C824 1.379 1_545 S
C829 N827 1.356 . S
N830 C822 1.356 . S
N830 H836 0.984 . S
N830 H837 0.984 . S
N831 C824 1.356 . S
N831 H834 0.984 . S
N831 H835 0.985 . S
H832 N827 0.984 . S
H833 N827 0.985 . S
H834 N831 0.984 . S
H835 N831 0.985 . S
H836 N830 0.984 . S
H837 N830 0.984 . S
H838 N826 0.984 . S
H839 N826 0.985 . S
C840 C841 1.363 . S
C840 C846 1.379 1_565 S
C840 N848 1.356 . S
C841 C840 1.363 . S
C841 C847 1.363 . S
C842 C843 1.363 . S
C842 C847 1.379 1_545 S
C842 N849 1.356 . S
C843 C842 1.363 . S
C843 C846 1.363 . S
N844 C846 1.356 . S
N844 H856 0.984 . S
N844 H857 0.985 . S
N845 C847 1.356 . S
N845 H850 0.984 . S
N845 H851 0.985 . S
C846 C840 1.379 1_545 S
C846 C843 1.363 . S
C846 N844 1.356 . S
C847 C841 1.363 . S
C847 C842 1.379 1_565 S
C847 N845 1.356 . S
N848 C840 1.356 . S
N848 H854 0.984 . S
N848 H855 0.984 . S
N849 C842 1.356 . S
N849 H852 0.984 . S
N849 H853 0.985 . S
H850 N845 0.984 . S
H851 N845 0.985 . S
H852 N849 0.984 . S
H853 N849 0.985 . S
H854 N848 0.984 . S
H855 N848 0.984 . S
H856 N844 0.984 . S
H857 N844 0.985 . S
C858 C859 1.363 . S
C858 C864 1.379 1_655 S
C858 N866 1.356 . S
C859 C858 1.363 . S
C859 C865 1.363 . S
C860 C861 1.363 . S
C860 C865 1.379 1_455 S
C860 N867 1.356 . S
C861 C860 1.363 . S
C861 C864 1.363 . S
N862 C864 1.356 . S
N862 H874 0.984 . S
N862 H875 0.985 . S
N863 C865 1.356 . S
N863 H868 0.984 . S
N863 H869 0.985 . S
C864 C858 1.379 1_455 S
C864 C861 1.363 . S
C864 N862 1.356 . S
C865 C859 1.363 . S
C865 C860 1.379 1_655 S
C865 N863 1.356 . S
N866 C858 1.356 . S
N866 H872 0.984 . S
N866 H873 0.984 . S
N867 C860 1.356 . S
N867 H870 0.984 . S
N867 H871 0.985 . S
H868 N863 0.984 . S
H869 N863 0.985 . S
H870 N867 0.984 . S
H871 N867 0.985 . S
H872 N866 0.984 . S
H873 N866 0.984 . S
H874 N862 0.984 . S
H875 N862 0.985 . S
C876 C877 1.363 . S
C876 C882 1.379 1_565 S
C876 N884 1.356 . S
C877 C876 1.363 . S
C877 C883 1.363 . S
C878 C879 1.363 . S
C878 C883 1.379 1_545 S
C878 N885 1.356 . S
C879 C878 1.363 . S
C879 C882 1.363 . S
N880 C882 1.356 . S
N880 H892 0.984 . S
N880 H893 0.985 . S
N881 C883 1.356 . S
N881 H886 0.984 . S
N881 H887 0.985 . S
C882 C876 1.379 1_545 S
C882 C879 1.363 . S
C882 N880 1.356 . S
C883 C877 1.363 . S
C883 C878 1.379 1_565 S
C883 N881 1.356 . S
N884 C876 1.356 . S
N884 H890 0.984 . S
N884 H891 0.984 . S
N885 C878 1.356 . S
N885 H888 0.984 . S
N885 H889 0.985 . S
H886 N881 0.984 . S
H887 N881 0.985 . S
H888 N885 0.984 . S
H889 N885 0.985 . S
H890 N884 0.984 . S
H891 N884 0.984 . S
H892 N880 0.984 . S
H893 N880 0.985 . S
C894 C895 1.363 . S
C894 C900 1.379 1_655 S
C894 N902 1.356 . S
C895 C894 1.363 . S
C895 C901 1.363 . S
C896 C897 1.363 . S
C896 C901 1.379 1_455 S
C896 N903 1.356 . S
C897 C896 1.363 . S
C897 C900 1.363 . S
N898 C900 1.356 . S
N898 H910 0.984 . S
N898 H911 0.985 . S
N899 C901 1.356 . S
N899 H904 0.984 . S
N899 H905 0.985 . S
C900 C894 1.379 1_455 S
C900 C897 1.363 . S
C900 N898 1.356 . S
C901 C895 1.363 . S
C901 C896 1.379 1_655 S
C901 N899 1.356 . S
N902 C894 1.356 . S
N902 H908 0.984 . S
N902 H909 0.984 . S
N903 C896 1.356 . S
N903 H906 0.984 . S
N903 H907 0.985 . S
H904 N899 0.984 . S
H905 N899 0.985 . S
H906 N903 0.984 . S
H907 N903 0.985 . S
H908 N902 0.984 . S
H909 N902 0.984 . S
H910 N898 0.984 . S
H911 N898 0.985 . S
C912 C913 1.363 . S
C912 C918 1.379 1_556 S
C912 N920 1.356 . S
C913 C912 1.363 . S
C913 C919 1.363 . S
C914 C915 1.363 . S
C914 C919 1.379 1_554 S
C914 N921 1.356 . S
C915 C914 1.363 . S
C915 C918 1.363 . S
N916 C918 1.356 . S
N916 H928 0.984 . S
N916 H929 0.985 . S
N917 C919 1.356 . S
N917 H922 0.984 . S
N917 H923 0.985 . S
C918 C912 1.379 1_554 S
C918 C915 1.363 . S
C918 N916 1.356 . S
C919 C913 1.363 . S
C919 C914 1.379 1_556 S
C919 N917 1.356 . S
N920 C912 1.356 . S
N920 H926 0.984 . S
N920 H927 0.984 . S
N921 C914 1.356 . S
N921 H924 0.984 . S
N921 H925 0.985 . S
H922 N917 0.984 . S
H923 N917 0.985 . S
H924 N921 0.984 . S
H925 N921 0.985 . S
H926 N920 0.984 . S
H927 N920 0.984 . S
H928 N916 0.984 . S
H929 N916 0.985 . S
C930 C931 1.363 . S
C930 C936 1.379 1_556 S
C930 N938 1.356 . S
C931 C930 1.363 . S
C931 C937 1.363 . S
C932 C933 1.363 . S
C932 C937 1.379 1_554 S
C932 N939 1.356 . S
C933 C932 1.363 . S
C933 C936 1.363 . S
N934 C936 1.356 . S
N934 H946 0.984 . S
N934 H947 0.985 . S
N935 C937 1.356 . S
N935 H940 0.984 . S
N935 H941 0.985 . S
C936 C930 1.379 1_554 S
C936 C933 1.363 . S
C936 N934 1.356 . S
C937 C931 1.363 . S
C937 C932 1.379 1_556 S
C937 N935 1.356 . S
N938 C930 1.356 . S
N938 H944 0.984 . S
N938 H945 0.984 . S
N939 C932 1.356 . S
N939 H942 0.984 . S
N939 H943 0.985 . S
H940 N935 0.984 . S
H941 N935 0.985 . S
H942 N939 0.984 . S
H943 N939 0.985 . S
H944 N938 0.984 . S
H945 N938 0.984 . S
H946 N934 0.984 . S
H947 N934 0.985 . S
C948 C949 1.363 . S
C948 C954 1.379 1_556 S
C948 N956 1.356 . S
C949 C948 1.363 . S
C949 C955 1.363 . S
C950 C951 1.363 . S
C950 C955 1.379 1_554 S
C950 N957 1.356 . S
C951 C950 1.363 . S
C951 C954 1.363 . S
N952 C954 1.356 . S
N952 H964 0.984 . S
N952 H965 0.985 . S
N953 C955 1.356 . S
N953 H958 0.984 . S
N953 H959 0.985 . S
C954 C948 1.379 1_554 S
C954 C951 1.363 . S
C954 N952 1.356 . S
C955 C949 1.363 . S
C955 C950 1.379 1_556 S
C955 N953 1.356 . S
N956 C948 1.356 . S
N956 H962 0.984 . S
N956 H963 0.984 . S
N957 C950 1.356 . S
N957 H960 0.984 . S
N957 H961 0.985 . S
H958 N953 0.984 . S
H959 N953 0.985 . S
H960 N957 0.984 . S
H961 N957 0.985 . S
H962 N956 0.984 . S
H963 N956 0.984 . S
H964 N952 0.984 . S
H965 N952 0.985 . S
C966 C967 1.363 . S
C966 C972 1.379 1_556 S
C966 N974 1.356 . S
C967 C966 1.363 . S
C967 C973 1.363 . S
C968 C969 1.363 . S
C968 C973 1.379 1_554 S
C968 N975 1.356 . S
C969 C968 1.363 . S
C969 C972 1.363 . S
N970 C972 1.356 . S
N970 H982 0.984 . S
N970 H983 0.985 . S
N971 C973 1.356 . S
N971 H976 0.984 . S
N971 H977 0.985 . S
C972 C966 1.379 1_554 S
C972 C969 1.363 . S
C972 N970 1.356 . S
C973 C967 1.363 . S
C973 C968 1.379 1_556 S
C973 N971 1.356 . S
N974 C966 1.356 . S
N974 H980 0.984 . S
N974 H981 0.984 . S
N975 C968 1.356 . S
N975 H978 0.984 . S
N975 H979 0.985 . S
H976 N971 0.984 . S
H977 N971 0.985 . S
H978 N975 0.984 . S
H979 N975 0.985 . S
H980 N974 0.984 . S
H981 N974 0.984 . S
H982 N970 0.984 . S
H983 N970 0.985 . S
C984 C985 1.363 . S
C984 C990 1.379 . S
C984 N992 1.356 . S
C985 C984 1.363 . S
C985 C991 1.363 . S
C986 C987 1.363 . S
C986 C991 1.379 . S
C986 N993 1.356 . S
C987 C986 1.363 . S
C987 C990 1.363 . S
N988 C990 1.356 . S
N988 H1000 0.984 . S
N988 H1001 0.985 . S
N989 C991 1.356 . S
N989 H994 0.984 . S
N989 H995 0.985 . S
C990 C984 1.379 . S
C990 C987 1.363 . S
C990 N988 1.356 . S
C991 C985 1.363 . S
C991 C986 1.379 . S
C991 N989 1.356 . S
N992 C984 1.356 . S
N992 H998 0.984 . S
N992 H999 0.984 . S
N993 C986 1.356 . S
N993 H996 0.984 . S
N993 H997 0.985 . S
H994 N989 0.984 . S
H995 N989 0.985 . S
H996 N993 0.984 . S
H997 N993 0.985 . S
H998 N992 0.984 . S
H999 N992 0.984 . S
H1000 N988 0.984 . S
H1001 N988 0.985 . S
C1002 C1003 1.363 . S
C1002 C1008 1.379 . S
C1002 N1010 1.356 . S
C1003 C1002 1.363 . S
C1003 C1009 1.363 . S
C1004 C1005 1.363 . S
C1004 C1009 1.379 . S
C1004 N1011 1.356 . S
C1005 C1004 1.363 . S
C1005 C1008 1.363 . S
N1006 C1008 1.356 . S
N1006 H1018 0.984 . S
N1006 H1019 0.985 . S
N1007 C1009 1.356 . S
N1007 H1012 0.984 . S
N1007 H1013 0.985 . S
C1008 C1002 1.379 . S
C1008 C1005 1.363 . S
C1008 N1006 1.356 . S
C1009 C1003 1.363 . S
C1009 C1004 1.379 . S
C1009 N1007 1.356 . S
N1010 C1002 1.356 . S
N1010 H1016 0.984 . S
N1010 H1017 0.984 . S
N1011 C1004 1.356 . S
N1011 H1014 0.984 . S
N1011 H1015 0.985 . S
H1012 N1007 0.984 . S
H1013 N1007 0.985 . S
H1014 N1011 0.984 . S
H1015 N1011 0.985 . S
H1016 N1010 0.984 . S
H1017 N1010 0.984 . S
H1018 N1006 0.984 . S
H1019 N1006 0.985 . S
C1020 C1021 1.363 . S
C1020 C1026 1.379 . S
C1020 N1028 1.356 . S
C1021 C1020 1.363 . S
C1021 C1027 1.363 . S
C1022 C1023 1.363 . S
C1022 C1027 1.379 . S
C1022 N1029 1.356 . S
C1023 C1022 1.363 . S
C1023 C1026 1.363 . S
N1024 C1026 1.356 . S
N1024 H1036 0.984 . S
N1024 H1037 0.985 . S
N1025 C1027 1.356 . S
N1025 H1030 0.984 . S
N1025 H1031 0.985 . S
C1026 C1020 1.379 . S
C1026 C1023 1.363 . S
C1026 N1024 1.356 . S
C1027 C1021 1.363 . S
C1027 C1022 1.379 . S
C1027 N1025 1.356 . S
N1028 C1020 1.356 . S
N1028 H1034 0.984 . S
N1028 H1035 0.984 . S
N1029 C1022 1.356 . S
N1029 H1032 0.984 . S
N1029 H1033 0.985 . S
H1030 N1025 0.984 . S
H1031 N1025 0.985 . S
H1032 N1029 0.984 . S
H1033 N1029 0.985 . S
H1034 N1028 0.984 . S
H1035 N1028 0.984 . S
H1036 N1024 0.984 . S
H1037 N1024 0.985 . S
C1038 C1039 1.363 . S
C1038 C1044 1.379 . S
C1038 N1046 1.356 . S
C1039 C1038 1.363 . S
C1039 C1045 1.363 . S
C1040 C1041 1.363 . S
C1040 C1045 1.379 . S
C1040 N1047 1.356 . S
C1041 C1040 1.363 . S
C1041 C1044 1.363 . S
N1042 C1044 1.356 . S
N1042 H1054 0.984 . S
N1042 H1055 0.985 . S
N1043 C1045 1.356 . S
N1043 H1048 0.984 . S
N1043 H1049 0.985 . S
C1044 C1038 1.379 . S
C1044 C1041 1.363 . S
C1044 N1042 1.356 . S
C1045 C1039 1.363 . S
C1045 C1040 1.379 . S
C1045 N1043 1.356 . S
N1046 C1038 1.356 . S
N1046 H1052 0.984 . S
N1046 H1053 0.984 . S
N1047 C1040 1.356 . S
N1047 H1050 0.984 . S
N1047 H1051 0.985 . S
H1048 N1043 0.984 . S
H1049 N1043 0.985 . S
H1050 N1047 0.984 . S
H1051 N1047 0.985 . S
H1052 N1046 0.984 . S
H1053 N1046 0.984 . S
H1054 N1042 0.984 . S
H1055 N1042 0.985 . S
C1056 C1057 1.363 . S
C1056 C1062 1.379 . S
C1056 N1064 1.356 . S
C1057 C1056 1.363 . S
C1057 C1063 1.363 . S
C1058 C1059 1.363 . S
C1058 C1063 1.379 . S
C1058 N1065 1.356 . S
C1059 C1058 1.363 . S
C1059 C1062 1.363 . S
N1060 C1062 1.356 . S
N1060 H1072 0.984 . S
N1060 H1073 0.985 . S
N1061 C1063 1.356 . S
N1061 H1066 0.984 . S
N1061 H1067 0.985 . S
C1062 C1056 1.379 . S
C1062 C1059 1.363 . S
C1062 N1060 1.356 . S
C1063 C1057 1.363 . S
C1063 C1058 1.379 . S
C1063 N1061 1.356 . S
N1064 C1056 1.356 . S
N1064 H1070 0.984 . S
N1064 H1071 0.984 . S
N1065 C1058 1.356 . S
N1065 H1068 0.984 . S
N1065 H1069 0.985 . S
H1066 N1061 0.984 . S
H1067 N1061 0.985 . S
H1068 N1065 0.984 . S
H1069 N1065 0.985 . S
H1070 N1064 0.984 . S
H1071 N1064 0.984 . S
H1072 N1060 0.984 . S
H1073 N1060 0.985 . S
C1074 C1075 1.363 . S
C1074 C1080 1.379 . S
C1074 N1082 1.356 . S
C1075 C1074 1.363 . S
C1075 C1081 1.363 . S
C1076 C1077 1.363 . S
C1076 C1081 1.379 . S
C1076 N1083 1.356 . S
C1077 C1076 1.363 . S
C1077 C1080 1.363 . S
N1078 C1080 1.356 . S
N1078 H1090 0.984 . S
N1078 H1091 0.985 . S
N1079 C1081 1.356 . S
N1079 H1084 0.984 . S
N1079 H1085 0.985 . S
C1080 C1074 1.379 . S
C1080 C1077 1.363 . S
C1080 N1078 1.356 . S
C1081 C1075 1.363 . S
C1081 C1076 1.379 . S
C1081 N1079 1.356 . S
N1082 C1074 1.356 . S
N1082 H1088 0.984 . S
N1082 H1089 0.984 . S
N1083 C1076 1.356 . S
N1083 H1086 0.984 . S
N1083 H1087 0.985 . S
H1084 N1079 0.984 . S
H1085 N1079 0.985 . S
H1086 N1083 0.984 . S
H1087 N1083 0.985 . S
H1088 N1082 0.984 . S
H1089 N1082 0.984 . S
H1090 N1078 0.984 . S
H1091 N1078 0.985 . S
C1092 C1093 1.363 . S
C1092 C1098 1.379 . S
C1092 N1100 1.356 . S
C1093 C1092 1.363 . S
C1093 C1099 1.363 . S
C1094 C1095 1.363 . S
C1094 C1099 1.379 . S
C1094 N1101 1.356 . S
C1095 C1094 1.363 . S
C1095 C1098 1.363 . S
N1096 C1098 1.356 . S
N1096 H1108 0.984 . S
N1096 H1109 0.985 . S
N1097 C1099 1.356 . S
N1097 H1102 0.984 . S
N1097 H1103 0.985 . S
C1098 C1092 1.379 . S
C1098 C1095 1.363 . S
C1098 N1096 1.356 . S
C1099 C1093 1.363 . S
C1099 C1094 1.379 . S
C1099 N1097 1.356 . S
N1100 C1092 1.356 . S
N1100 H1106 0.984 . S
N1100 H1107 0.984 . S
N1101 C1094 1.356 . S
N1101 H1104 0.984 . S
N1101 H1105 0.985 . S
H1102 N1097 0.984 . S
H1103 N1097 0.985 . S
H1104 N1101 0.984 . S
H1105 N1101 0.985 . S
H1106 N1100 0.984 . S
H1107 N1100 0.984 . S
H1108 N1096 0.984 . S
H1109 N1096 0.985 . S
C1110 C1111 1.363 . S
C1110 C1116 1.379 . S
C1110 N1118 1.356 . S
C1111 C1110 1.363 . S
C1111 C1117 1.363 . S
C1112 C1113 1.363 . S
C1112 C1117 1.379 . S
C1112 N1119 1.356 . S
C1113 C1112 1.363 . S
C1113 C1116 1.363 . S
N1114 C1116 1.356 . S
N1114 H1126 0.984 . S
N1114 H1127 0.985 . S
N1115 C1117 1.356 . S
N1115 H1120 0.984 . S
N1115 H1121 0.985 . S
C1116 C1110 1.379 . S
C1116 C1113 1.363 . S
C1116 N1114 1.356 . S
C1117 C1111 1.363 . S
C1117 C1112 1.379 . S
C1117 N1115 1.356 . S
N1118 C1110 1.356 . S
N1118 H1124 0.984 . S
N1118 H1125 0.984 . S
N1119 C1112 1.356 . S
N1119 H1122 0.984 . S
N1119 H1123 0.985 . S
H1120 N1115 0.984 . S
H1121 N1115 0.985 . S
H1122 N1119 0.984 . S
H1123 N1119 0.985 . S
H1124 N1118 0.984 . S
H1125 N1118 0.984 . S
H1126 N1114 0.984 . S
H1127 N1114 0.985 . S
C1128 C1129 1.363 . S
C1128 C1134 1.379 . S
C1128 N1136 1.356 . S
C1129 C1128 1.363 . S
C1129 C1135 1.363 . S
C1130 C1131 1.363 . S
C1130 C1135 1.379 . S
C1130 N1137 1.356 . S
C1131 C1130 1.363 . S
C1131 C1134 1.363 . S
N1132 C1134 1.356 . S
N1132 H1144 0.984 . S
N1132 H1145 0.985 . S
N1133 C1135 1.356 . S
N1133 H1138 0.984 . S
N1133 H1139 0.985 . S
C1134 C1128 1.379 . S
C1134 C1131 1.363 . S
C1134 N1132 1.356 . S
C1135 C1129 1.363 . S
C1135 C1130 1.379 . S
C1135 N1133 1.356 . S
N1136 C1128 1.356 . S
N1136 H1142 0.984 . S
N1136 H1143 0.984 . S
N1137 C1130 1.356 . S
N1137 H1140 0.984 . S
N1137 H1141 0.985 . S
H1138 N1133 0.984 . S
H1139 N1133 0.985 . S
H1140 N1137 0.984 . S
H1141 N1137 0.985 . S
H1142 N1136 0.984 . S
H1143 N1136 0.984 . S
H1144 N1132 0.984 . S
H1145 N1132 0.985 . S
C1146 C1147 1.363 . S
C1146 C1152 1.379 . S
C1146 N1154 1.356 . S
C1147 C1146 1.363 . S
C1147 C1153 1.363 . S
C1148 C1149 1.363 . S
C1148 C1153 1.379 . S
C1148 N1155 1.356 . S
C1149 C1148 1.363 . S
C1149 C1152 1.363 . S
N1150 C1152 1.356 . S
N1150 H1162 0.984 . S
N1150 H1163 0.985 . S
N1151 C1153 1.356 . S
N1151 H1156 0.984 . S
N1151 H1157 0.985 . S
C1152 C1146 1.379 . S
C1152 C1149 1.363 . S
C1152 N1150 1.356 . S
C1153 C1147 1.363 . S
C1153 C1148 1.379 . S
C1153 N1151 1.356 . S
N1154 C1146 1.356 . S
N1154 H1160 0.984 . S
N1154 H1161 0.984 . S
N1155 C1148 1.356 . S
N1155 H1158 0.984 . S
N1155 H1159 0.985 . S
H1156 N1151 0.984 . S
H1157 N1151 0.985 . S
H1158 N1155 0.984 . S
H1159 N1155 0.985 . S
H1160 N1154 0.984 . S
H1161 N1154 0.984 . S
H1162 N1150 0.984 . S
H1163 N1150 0.985 . S
C1164 C1165 1.363 . S
C1164 C1170 1.379 . S
C1164 N1172 1.356 . S
C1165 C1164 1.363 . S
C1165 C1171 1.363 . S
C1166 C1167 1.363 . S
C1166 C1171 1.379 . S
C1166 N1173 1.356 . S
C1167 C1166 1.363 . S
C1167 C1170 1.363 . S
N1168 C1170 1.356 . S
N1168 H1180 0.984 . S
N1168 H1181 0.985 . S
N1169 C1171 1.356 . S
N1169 H1174 0.984 . S
N1169 H1175 0.985 . S
C1170 C1164 1.379 . S
C1170 C1167 1.363 . S
C1170 N1168 1.356 . S
C1171 C1165 1.363 . S
C1171 C1166 1.379 . S
C1171 N1169 1.356 . S
N1172 C1164 1.356 . S
N1172 H1178 0.984 . S
N1172 H1179 0.984 . S
N1173 C1166 1.356 . S
N1173 H1176 0.984 . S
N1173 H1177 0.985 . S
H1174 N1169 0.984 . S
H1175 N1169 0.985 . S
H1176 N1173 0.984 . S
H1177 N1173 0.985 . S
H1178 N1172 0.984 . S
H1179 N1172 0.984 . S
H1180 N1168 0.984 . S
H1181 N1168 0.985 . S
C1182 C1183 1.363 . S
C1182 C1188 1.379 . S
C1182 N1190 1.356 . S
C1183 C1182 1.363 . S
C1183 C1189 1.363 . S
C1184 C1185 1.363 . S
C1184 C1189 1.379 . S
C1184 N1191 1.356 . S
C1185 C1184 1.363 . S
C1185 C1188 1.363 . S
N1186 C1188 1.356 . S
N1186 H1198 0.984 . S
N1186 H1199 0.985 . S
N1187 C1189 1.356 . S
N1187 H1192 0.984 . S
N1187 H1193 0.985 . S
C1188 C1182 1.379 . S
C1188 C1185 1.363 . S
C1188 N1186 1.356 . S
C1189 C1183 1.363 . S
C1189 C1184 1.379 . S
C1189 N1187 1.356 . S
N1190 C1182 1.356 . S
N1190 H1196 0.984 . S
N1190 H1197 0.984 . S
N1191 C1184 1.356 . S
N1191 H1194 0.984 . S
N1191 H1195 0.985 . S
H1192 N1187 0.984 . S
H1193 N1187 0.985 . S
H1194 N1191 0.984 . S
H1195 N1191 0.985 . S
H1196 N1190 0.984 . S
H1197 N1190 0.984 . S
H1198 N1186 0.984 . S
H1199 N1186 0.985 . S
C337 C165 1.416 . S
C339 C4 1.422 . S
C355 C18 1.422 . S
C357 C123 1.416 . S
C373 C32 1.422 . S
C375 C137 1.416 . S
C391 C46 1.422 . S
C393 C151 1.416 . S
C409 C193 1.416 . S
C411 C60 1.422 . S
C427 C74 1.422 . S
C429 C207 1.416 . S
C445 C221 1.416 . S
C447 C88 1.422 . S
C463 C179 1.416 . S
C465 C102 1.422 . S
C481 C81 1.416 . S
C483 C116 1.422 . S
C499 C95 1.416 . S
C501 C130 1.422 . S
C517 C144 1.422 . S
C519 C109 1.416 . S
C535 C67 1.416 . S
C537 C158 1.422 . S
C553 C53 1.416 . S
C555 C172 1.422 . S
C571 C186 1.422 . S
C573 C11 1.416 . S
C589 C200 1.422 . S
C591 C25 1.416 . S
C607 C214 1.422 . S
C609 C39 1.416 . S
C625 C228 1.422 . S
C627 C333 1.416 . S
C643 C291 1.416 . S
C645 C242 1.422 . S
C661 C256 1.422 . S
C663 C249 1.416 . S
C679 C270 1.422 . S
C681 C263 1.416 . S
C697 C277 1.416 . S
C699 C284 1.422 . S
C715 C298 1.422 . S
C717 C319 1.416 . S
C733 C235 1.416 . S
C735 C312 1.422 . S
C751 C305 1.416 . S
C753 C326 1.422 . S
C769 C12 1.395 . S
C771 C96 1.395 . S
C787 C26 1.395 . S
C789 C110 1.395 . S
C805 C40 1.395 . S
C807 C68 1.395 . S
C823 C82 1.395 . S
C825 C54 1.395 . S
C841 C152 1.395 . S
C843 C124 1.395 . S
C859 C138 1.395 . S
C861 C166 1.395 . S
C877 C180 1.395 . S
C879 C208 1.395 . S
C895 C222 1.395 . S
C897 C194 1.395 . S
C913 C250 1.395 . S
C915 C236 1.395 . S
C931 C264 1.395 . S
C933 C334 1.395 . S
C949 C278 1.395 . S
C951 C306 1.395 . S
C967 C292 1.395 . S
C969 C320 1.395 . S
C985 C5 1.028 . S
C987 C75 1.028 . S
C1003 C19 1.028 . S
C1005 C89 1.028 . S
C1021 C33 1.028 . S
C1023 C103 1.028 . S
C1039 C61 1.028 . S
C1041 C47 1.028 . S
C1057 C117 1.028 . S
C1059 C327 1.028 . S
C1075 C131 1.028 . S
C1077 C299 1.028 . S
C1093 C313 1.028 . S
C1095 C145 1.028 . S
C1111 C159 1.028 . S
C1113 C229 1.028 . S
C1129 C285 1.028 . S
C1131 C173 1.028 . S
C1147 C243 1.028 . S
C1149 C187 1.028 . S
C1165 C201 1.028 . S
C1167 C257 1.028 . S
C1183 C271 1.028 . S
C1185 C215 1.028 . S
