# Generated by pormake.
# Topology wme, (6)-cn, num edge types: 1
# Building blocks:
#     Node 0, Type 0, BuildingBlock: BETFEN_clean_sbu_0, # of connection points: 6
#     Node 1, Type 0, BuildingBlock: BETFEN_clean_sbu_0, # of connection points: 6
#     Node 2, Type 0, BuildingBlock: BETFEN_clean_sbu_0, # of connection points: 6
#     Node 3, Type 0, BuildingBlock: BETFEN_clean_sbu_0, # of connection points: 6
#     Node 4, Type 0, BuildingBlock: BETFEN_clean_sbu_0, # of connection points: 6
#     Node 5, Type 0, BuildingBlock: BETFEN_clean_sbu_0, # of connection points: 6
#     Node 6, Type 0, BuildingBlock: BETFEN_clean_sbu_0, # of connection points: 6
#     Node 7, Type 0, BuildingBlock: BETFEN_clean_sbu_0, # of connection points: 6
#     Node 8, Type 0, BuildingBlock: BETFEN_clean_sbu_0, # of connection points: 6
#     Node 9, Type 0, BuildingBlock: BETFEN_clean_sbu_0, # of connection points: 6
#     Node 10, Type 0, BuildingBlock: BETFEN_clean_sbu_0, # of connection points: 6
#     Node 11, Type 0, BuildingBlock: BETFEN_clean_sbu_0, # of connection points: 6
#     Edge 12, Type (0, 0), BuildingBlock: EZIPEK_clean_linker_0, # of connection points: 2
#     Edge 13, Type (0, 0), BuildingBlock: EZIPEK_clean_linker_0, # of connection points: 2
#     Edge 14, Type (0, 0), BuildingBlock: EZIPEK_clean_linker_0, # of connection points: 2
#     Edge 15, Type (0, 0), BuildingBlock: EZIPEK_clean_linker_0, # of connection points: 2
#     Edge 16, Type (0, 0), BuildingBlock: EZIPEK_clean_linker_0, # of connection points: 2
#     Edge 17, Type (0, 0), BuildingBlock: EZIPEK_clean_linker_0, # of connection points: 2
#     Edge 18, Type (0, 0), BuildingBlock: EZIPEK_clean_linker_0, # of connection points: 2
#     Edge 19, Type (0, 0), BuildingBlock: EZIPEK_clean_linker_0, # of connection points: 2
#     Edge 20, Type (0, 0), BuildingBlock: EZIPEK_clean_linker_0, # of connection points: 2
#     Edge 21, Type (0, 0), BuildingBlock: EZIPEK_clean_linker_0, # of connection points: 2
#     Edge 22, Type (0, 0), BuildingBlock: EZIPEK_clean_linker_0, # of connection points: 2
#     Edge 23, Type (0, 0), BuildingBlock: EZIPEK_clean_linker_0, # of connection points: 2
#     Edge 24, Type (0, 0), BuildingBlock: EZIPEK_clean_linker_0, # of connection points: 2
#     Edge 25, Type (0, 0), BuildingBlock: EZIPEK_clean_linker_0, # of connection points: 2
#     Edge 26, Type (0, 0), BuildingBlock: EZIPEK_clean_linker_0, # of connection points: 2
#     Edge 27, Type (0, 0), BuildingBlock: EZIPEK_clean_linker_0, # of connection points: 2
#     Edge 28, Type (0, 0), BuildingBlock: EZIPEK_clean_linker_0, # of connection points: 2
#     Edge 29, Type (0, 0), BuildingBlock: EZIPEK_clean_linker_0, # of connection points: 2
#     Edge 30, Type (0, 0), BuildingBlock: EZIPEK_clean_linker_0, # of connection points: 2
#     Edge 31, Type (0, 0), BuildingBlock: EZIPEK_clean_linker_0, # of connection points: 2
#     Edge 32, Type (0, 0), BuildingBlock: EZIPEK_clean_linker_0, # of connection points: 2
#     Edge 33, Type (0, 0), BuildingBlock: EZIPEK_clean_linker_0, # of connection points: 2
#     Edge 34, Type (0, 0), BuildingBlock: EZIPEK_clean_linker_0, # of connection points: 2
#     Edge 35, Type (0, 0), BuildingBlock: EZIPEK_clean_linker_0, # of connection points: 2
#     Edge 36, Type (0, 0), BuildingBlock: EZIPEK_clean_linker_0, # of connection points: 2
#     Edge 37, Type (0, 0), BuildingBlock: EZIPEK_clean_linker_0, # of connection points: 2
#     Edge 38, Type (0, 0), BuildingBlock: EZIPEK_clean_linker_0, # of connection points: 2
#     Edge 39, Type (0, 0), BuildingBlock: EZIPEK_clean_linker_0, # of connection points: 2
#     Edge 40, Type (0, 0), BuildingBlock: EZIPEK_clean_linker_0, # of connection points: 2
#     Edge 41, Type (0, 0), BuildingBlock: EZIPEK_clean_linker_0, # of connection points: 2
#     Edge 42, Type (0, 0), BuildingBlock: EZIPEK_clean_linker_0, # of connection points: 2
#     Edge 43, Type (0, 0), BuildingBlock: EZIPEK_clean_linker_0, # of connection points: 2
#     Edge 44, Type (0, 0), BuildingBlock: EZIPEK_clean_linker_0, # of connection points: 2
#     Edge 45, Type (0, 0), BuildingBlock: EZIPEK_clean_linker_0, # of connection points: 2
#     Edge 46, Type (0, 0), BuildingBlock: EZIPEK_clean_linker_0, # of connection points: 2
#     Edge 47, Type (0, 0), BuildingBlock: EZIPEK_clean_linker_0, # of connection points: 2
# Relax obj value: 0.116
# Max RMSD: 0.231
# Mean RMSD: 0.231
data_MOF--net-wme--node1-BETFEN_clean_sbu_0--edge1-EZIPEK_clean_linker_0
_symmetry_space_group_name_H-M    P1
_symmetry_Int_Tables_number       1
_symmetry_cell_setting            triclinic
loop_
_symmetry_equiv_pos_as_xyz
'x, y, z'
_cell_length_a     32.481783
_cell_length_b     32.570809
_cell_length_c     37.631832
_cell_angle_alpha  89.844486
_cell_angle_beta   90.469293
_cell_angle_gamma 119.64797
loop_
_atom_site_label
_atom_site_type_symbol
_atom_site_fract_x
_atom_site_fract_y
_atom_site_fract_z
_atom_type_partial_charge
Pr0 Pr 0.22882 0.37512 0.09619 0.0
Pr1 Pr 0.27333 0.31823 0.12585 0.0
C2 C 0.19913 0.4384 0.08094 0.0
C3 C 0.18833 0.47508 0.09501 0.0
C4 C 0.20613 0.51855 0.07717 0.0
C5 C 0.19348 0.55225 0.08755 0.0
C6 C 0.16265 0.54359 0.11617 0.0
C7 C 0.14526 0.50043 0.13449 0.0
C8 C 0.15792 0.46655 0.12404 0.0
C9 C 0.25653 0.32869 0.04499 0.0
C10 C 0.34261 0.43314 0.11818 0.0
C11 C 0.29651 0.24921 0.13079 0.0
C12 C 0.27194 0.1967 0.12898 0.0
C13 C 0.28415 0.17141 0.15312 0.0
C14 C 0.2631 0.12207 0.15065 0.0
C15 C 0.22954 0.09702 0.12389 0.0
C16 C 0.21671 0.12211 0.10001 0.0
C17 C 0.2376 0.17144 0.10255 0.0
C18 C 0.25141 0.36229 0.18007 0.0
C19 C 0.15372 0.2669 0.11819 0.0
O20 O 0.17062 0.39405 0.08865 0.0
O21 O 0.24331 0.4485 0.07892 0.0
O22 O 0.27877 0.35132 0.07206 0.0
O23 O 0.21865 0.33243 0.04146 0.0
O24 O 0.34278 0.39244 0.11718 0.0
O25 O 0.30231 0.43384 0.11863 0.0
O26 O 0.29851 0.27141 0.10128 0.0
O27 O 0.28921 0.26858 0.15872 0.0
O28 O 0.2259 0.34357 0.15255 0.0
O29 O 0.28918 0.35778 0.17995 0.0
O30 O 0.15884 0.30917 0.11323 0.0
O31 O 0.19112 0.2607 0.11988 0.0
H32 H 0.22924 0.52612 0.05457 0.0
H33 H 0.20735 0.58504 0.07288 0.0
H34 H 0.12136 0.49269 0.15657 0.0
H35 H 0.14332 0.43344 0.13835 0.0
H36 H 0.31047 0.18992 0.17366 0.0
H37 H 0.27347 0.10344 0.16936 0.0
H38 H 0.19083 0.10352 0.07922 0.0
H39 H 0.22726 0.18983 0.08358 0.0
Pr40 Pr 0.88258 0.23087 0.60666 0.0
Pr41 Pr 0.97387 0.25521 0.64141 0.0
C42 C 0.79016 0.19285 0.58558 0.0
C43 C 0.74094 0.18074 0.59553 0.0
C44 C 0.70218 0.14237 0.57911 0.0
C45 C 0.65554 0.13261 0.58535 0.0
C46 C 0.64558 0.16272 0.60644 0.0
C47 C 0.68468 0.19644 0.62712 0.0
C48 C 0.73152 0.20645 0.62084 0.0
C49 C 0.96022 0.26668 0.55787 0.0
C50 C 0.94124 0.33791 0.63352 0.0
C51 C 0.06242 0.27946 0.66415 0.0
C52 C 0.09411 0.26055 0.65584 0.0
C53 C 0.13366 0.27174 0.67745 0.0
C54 C 0.16273 0.2523 0.67027 0.0
C55 C 0.15254 0.22136 0.64141 0.0
C56 C 0.11296 0.2102 0.61976 0.0
C57 C 0.08397 0.22968 0.62691 0.0
C58 C 0.89961 0.21951 0.69037 0.0
C59 C 0.90694 0.14563 0.62 0.0
O60 O 0.80793 0.16804 0.59921 0.0
O61 O 0.82196 0.2373 0.5816 0.0
O62 O 0.95299 0.23763 0.58271 0.0
O63 O 0.92469 0.27427 0.55567 0.0
O64 O 0.97763 0.33024 0.63593 0.0
O65 O 0.89784 0.3027 0.62985 0.0
O66 O 0.05379 0.30083 0.63836 0.0
O67 O 1.02432 0.25127 0.68168 0.0
O68 O 0.905 0.24906 0.66623 0.0
O69 O 0.93262 0.20845 0.68909 0.0
O70 O 0.87309 0.15658 0.62052 0.0
O71 O 0.95167 0.17918 0.62037 0.0
H72 H 0.70792 0.1198 0.56111 0.0
H73 H 0.62759 0.1008 0.57345 0.0
H74 H 0.68016 0.21519 0.64889 0.0
H75 H 0.76036 0.23425 0.6359 0.0
H76 H 0.14184 0.29522 0.69999 0.0
H77 H 0.19307 0.26119 0.68728 0.0
H78 H 0.10449 0.18631 0.59746 0.0
H79 H 0.05341 0.22041 0.61003 0.0
Pr80 Pr 0.67621 0.85802 0.09989 0.0
Pr81 Pr 0.73112 0.95478 0.13071 0.0
C82 C 0.61205 0.76793 0.08005 0.0
C83 C 0.57913 0.71814 0.09139 0.0
C84 C 0.57676 0.68053 0.07144 0.0
C85 C 0.54174 0.63356 0.07813 0.0
C86 C 0.50815 0.62286 0.10505 0.0
C87 C 0.5115 0.66019 0.12598 0.0
C88 C 0.54653 0.70729 0.11922 0.0
C89 C 0.72142 0.93386 0.04981 0.0
C90 C 0.6164 0.91118 0.12265 0.0
C91 C 0.80066 0.04567 0.13838 0.0
C92 C 0.85347 0.07336 0.13672 0.0
C93 C 0.88216 0.07478 0.16552 0.0
C94 C 0.93173 0.10245 0.16385 0.0
C95 C 0.95366 0.12943 0.13344 0.0
C96 C 0.92522 0.1275 0.10449 0.0
C97 C 0.87576 0.0999 0.10612 0.0
C98 C 0.68752 0.88903 0.18463 0.0
C99 C 0.78206 0.88665 0.12266 0.0
O100 O 0.65776 0.78406 0.08055 0.0
O101 O 0.60104 0.80029 0.08798 0.0
O102 O 0.69763 0.93174 0.0764 0.0
O103 O 0.7215 0.89418 0.0469 0.0
O104 O 0.65706 0.9517 0.12211 0.0
O105 O 0.61618 0.87062 0.12233 0.0
O106 O 0.77816 0.02798 0.10845 0.0
O107 O 0.78095 1.01732 0.16535 0.0
O108 O 0.70665 0.88196 0.15759 0.0
O109 O 0.68961 0.93004 0.18335 0.0
O110 O 0.73927 0.85005 0.12028 0.0
O111 O 0.78867 0.9302 0.12181 0.0
H112 H 0.60098 0.68765 0.04965 0.0
H113 H 0.53979 0.60562 0.06141 0.0
H114 H 0.48587 0.65304 0.14669 0.0
H115 H 0.54707 0.7353 0.13501 0.0
H116 H 0.86637 0.05494 0.18953 0.0
H117 H 0.95298 0.10351 0.18653 0.0
H118 H 0.94132 0.14808 0.08083 0.0
H119 H 0.85487 0.09979 0.08349 0.0
Pr120 Pr 0.84408 0.66797 0.59992 0.0
Pr121 Pr 0.79814 0.72491 0.6226 0.0
C122 C 0.87414 0.60447 0.59908 0.0
C123 C 0.88795 0.56736 0.59956 0.0
C124 C 0.93444 0.5782 0.5915 0.0
C125 C 0.94914 0.54474 0.59726 0.0
C126 C 0.91733 0.4996 0.61056 0.0
C127 C 0.87055 0.48844 0.61762 0.0
C128 C 0.85612 0.52203 0.61243 0.0
C129 C 0.81004 0.70288 0.54395 0.0
C130 C 0.72772 0.60902 0.61522 0.0
C131 C 0.77282 0.79225 0.62415 0.0
C132 C 0.7967 0.84449 0.62322 0.0
C133 C 0.83479 0.87266 0.64616 0.0
C134 C 0.85644 0.92204 0.64481 0.0
C135 C 0.84055 0.94398 0.62042 0.0
C136 C 0.80328 0.91595 0.59701 0.0
C137 C 0.78156 0.86664 0.59841 0.0
C138 C 0.82592 0.69032 0.68033 0.0
C139 C 0.91731 0.77833 0.61088 0.0
O140 O 0.84273 0.60282 0.62138 0.0
O141 O 0.88921 0.63876 0.57565 0.0
O142 O 0.78976 0.68392 0.57245 0.0
O143 O 0.84919 0.70114 0.54172 0.0
O144 O 0.72812 0.65006 0.61522 0.0
O145 O 0.76766 0.6078 0.6146 0.0
O146 O 0.77459 0.77168 0.59489 0.0
O147 O 0.77764 0.77215 0.65286 0.0
O148 O 0.85019 0.70783 0.65242 0.0
O149 O 0.78646 0.69154 0.67917 0.0
O150 O 0.91332 0.7364 0.61425 0.0
O151 O 0.87873 0.7826 0.60817 0.0
H152 H 0.95989 0.61309 0.5821 0.0
H153 H 0.98541 0.55413 0.59165 0.0
H154 H 0.84537 0.45388 0.62777 0.0
H155 H 0.82017 0.51277 0.61912 0.0
H156 H 0.84755 0.8566 0.66531 0.0
H157 H 0.88502 0.94314 0.66319 0.0
H158 H 0.79039 0.93227 0.57817 0.0
H159 H 0.75255 0.84571 0.58028 0.0
Pr160 Pr 0.18788 0.81001 0.10908 0.0
Pr161 Pr 0.09674 0.7849 0.1428 0.0
C162 C 0.27947 0.84824 0.08737 0.0
C163 C 0.32902 0.86133 0.0975 0.0
C164 C 0.36695 0.90068 0.08129 0.0
C165 C 0.41404 0.91186 0.0877 0.0
C166 C 0.42447 0.88408 0.11067 0.0
C167 C 0.38669 0.84544 0.12777 0.0
C168 C 0.33941 0.83413 0.12124 0.0
C169 C 0.10908 0.77013 0.06046 0.0
C170 C 0.13361 0.70413 0.13823 0.0
C171 C 1.00805 0.76172 0.16415 0.0
C172 C 0.97825 0.7841 0.15902 0.0
C173 C 0.93449 0.76604 0.17622 0.0
C174 C 0.90556 0.78629 0.17044 0.0
C175 C 0.91993 0.82496 0.14735 0.0
C176 C 0.96407 0.84348 0.13058 0.0
C177 C 0.99291 0.82321 0.13633 0.0
C178 C 0.1723 0.82507 0.19175 0.0
C179 C 0.16182 0.89459 0.11983 0.0
O180 O 0.26166 0.8732 0.1003 0.0
O181 O 0.24801 0.80353 0.08419 0.0
O182 O 0.11658 0.80059 0.08412 0.0
O183 O 0.14467 0.76262 0.05946 0.0
O184 O 0.0959 0.71021 0.13908 0.0
O185 O 0.17624 0.74076 0.13518 0.0
O186 O 1.01677 0.74476 0.13574 0.0
O187 O 0.04562 0.78437 0.18418 0.0
O188 O 0.16681 0.79428 0.16874 0.0
O189 O 0.13905 0.83574 0.18911 0.0
O190 O 0.19641 0.88466 0.12089 0.0
O191 O 0.11752 0.86012 0.12022 0.0
H192 H 0.36005 0.92217 0.06281 0.0
H193 H 0.44237 0.94152 0.07395 0.0
H194 H 0.39372 0.8232 0.14534 0.0
H195 H 0.31099 0.80358 0.13412 0.0
H196 H 0.92245 0.73596 0.19383 0.0
H197 H 0.87166 0.77141 0.18363 0.0
H198 H 0.97585 0.87322 0.11267 0.0
H199 H 1.02645 0.83774 0.12272 0.0
Pr200 Pr 0.39557 0.18492 0.60093 0.0
Pr201 Pr 0.33298 0.08612 0.63225 0.0
C202 C 0.44606 0.27794 0.58253 0.0
C203 C 0.4842 0.32652 0.59231 0.0
C204 C 0.48436 0.36563 0.57621 0.0
C205 C 0.52155 0.4118 0.58243 0.0
C206 C 0.55948 0.42015 0.60513 0.0
C207 C 0.55878 0.38117 0.62212 0.0
C208 C 0.52155 0.33479 0.61574 0.0
C209 C 0.3487 0.10889 0.55093 0.0
C210 C 0.45112 0.1286 0.62432 0.0
C211 C 0.27001 0.99333 0.63996 0.0
C212 C 0.21803 0.96493 0.63332 0.0
C213 C 0.18971 0.92531 0.65443 0.0
C214 C 0.14046 0.89904 0.6489 0.0
C215 C 0.1185 0.91184 0.62213 0.0
C216 C 0.14673 0.95155 0.60105 0.0
C217 C 0.19594 0.97796 0.6067 0.0
C218 C 0.36746 0.15605 0.68487 0.0
C219 C 0.28551 0.15386 0.62114 0.0
O220 O 0.40606 0.25964 0.5997 0.0
O221 O 0.45815 0.24651 0.57391 0.0
O222 O 0.33199 0.11631 0.57852 0.0
O223 O 0.39103 0.1444 0.54648 0.0
O224 O 0.40863 0.08969 0.62559 0.0
O225 O 0.45471 0.17058 0.6215 0.0
O226 O 0.29707 1.01061 0.61202 0.0
O227 O 0.28349 0.02341 0.66635 0.0
O228 O 0.39213 0.15619 0.6586 0.0
O229 O 0.32658 0.11775 0.68548 0.0
O230 O 0.32908 0.18934 0.6187 0.0
O231 O 0.27646 0.10966 0.62025 0.0
H232 H 0.45615 0.36035 0.55799 0.0
H233 H 0.52135 0.44101 0.56876 0.0
H234 H 0.58781 0.38654 0.63946 0.0
H235 H 0.52246 0.30538 0.62848 0.0
H236 H 0.20571 0.9147 0.67526 0.0
H237 H 0.11946 0.86846 0.66538 0.0
H238 H 0.13066 0.96205 0.5802 0.0
H239 H 0.21675 1.00867 0.59032 0.0
Pr240 Pr 0.6838 0.82853 0.40677 0.0
Pr241 Pr 0.73304 0.78045 0.37251 0.0
C242 C 0.62561 0.86137 0.42841 0.0
C243 C 0.58805 0.8724 0.41706 0.0
C244 C 0.58819 0.91232 0.43135 0.0
C245 C 0.55098 0.9214 0.42411 0.0
C246 C 0.51278 0.89089 0.40222 0.0
C247 C 0.51327 0.85177 0.38686 0.0
C248 C 0.55054 0.84257 0.39421 0.0
C249 C 0.72967 0.79511 0.4542 0.0
C250 C 0.61805 0.71752 0.38114 0.0
C251 C 0.79979 0.75483 0.36429 0.0
C252 C 0.85246 0.77908 0.36777 0.0
C253 C 0.88235 0.81611 0.34492 0.0
C254 C 0.93182 0.83842 0.34888 0.0
C255 C 0.95248 0.82431 0.37578 0.0
C256 C 0.92276 0.78792 0.39892 0.0
C257 C 0.87335 0.76554 0.39494 0.0
C258 C 0.68705 0.80676 0.32169 0.0
C259 C 0.79094 0.89941 0.3829 0.0
O260 O 0.66872 0.8888 0.41728 0.0
O261 O 0.61477 0.81709 0.4304 0.0
O262 O 0.70391 0.77405 0.42797 0.0
O263 O 0.73118 0.83541 0.45834 0.0
O264 O 0.65682 0.71354 0.38096 0.0
O265 O 0.62122 0.75949 0.38238 0.0
O266 O 0.78133 0.76613 0.3375 0.0
O267 O 0.77641 0.7485 0.39379 0.0
O268 O 0.70962 0.83128 0.34875 0.0
O269 O 0.69071 0.76861 0.31977 0.0
O270 O 0.75034 0.89719 0.38945 0.0
O271 O 0.79436 0.86067 0.38008 0.0
H272 H 0.61649 0.93579 0.44912 0.0
H273 H 0.55117 0.95142 0.4366 0.0
H274 H 0.48394 0.8274 0.37026 0.0
H275 H 0.54936 0.81149 0.38282 0.0
H276 H 0.86761 0.82781 0.3239 0.0
H277 H 0.95407 0.86633 0.33067 0.0
H278 H 0.93786 0.77635 0.41978 0.0
H279 H 0.85138 0.73739 0.4131 0.0
Pr280 Pr 0.88049 0.66423 0.89888 0.0
Pr281 Pr 0.97791 0.72253 0.87085 0.0
C282 C 0.78806 0.59815 0.90293 0.0
C283 C 0.73738 0.56016 0.90239 0.0
C284 C 0.70497 0.55834 0.92777 0.0
C285 C 0.65676 0.52378 0.92539 0.0
C286 C 0.64011 0.49025 0.89769 0.0
C287 C 0.67245 0.49211 0.87239 0.0
C288 C 0.72037 0.52665 0.87462 0.0
C289 C 0.95414 0.69777 0.95226 0.0
C290 C 0.93881 0.60751 0.87815 0.0
C291 C 0.06857 0.79364 0.86741 0.0
C292 C 0.09707 0.84494 0.86152 0.0
C293 C 0.07825 0.87052 0.84443 0.0
C294 C 0.10397 0.92013 0.84402 0.0
C295 C 0.14829 0.94454 0.86123 0.0
C296 C 0.1672 0.91879 0.87771 0.0
C297 C 0.14183 0.86945 0.87783 0.0
C298 C 0.91279 0.68609 0.81541 0.0
C299 C 0.90923 0.7731 0.88664 0.0
O300 O 0.81573 0.60168 0.87677 0.0
O301 O 0.8091 0.62861 0.92883 0.0
O302 O 0.95367 0.68059 0.9223 0.0
O303 O 0.91383 0.69699 0.95608 0.0
O304 O 0.9777 0.64921 0.87438 0.0
O305 O 0.89759 0.6045 0.88421 0.0
O306 O 0.04301 0.78188 0.8961 0.0
O307 O 0.04674 0.76572 0.84039 0.0
O308 O 0.90639 0.70272 0.8442 0.0
O309 O 0.95419 0.68891 0.81491 0.0
O310 O 0.8732 0.73092 0.89227 0.0
O311 O 0.95202 0.77917 0.88036 0.0
H312 H 0.71674 0.58383 0.94924 0.0
H313 H 0.63249 0.52284 0.94536 0.0
H314 H 0.66063 0.4665 0.85098 0.0
H315 H 0.74412 0.52706 0.85441 0.0
H316 H 0.04332 0.85225 0.83232 0.0
H317 H 0.08893 0.93948 0.83106 0.0
H318 H 0.20139 0.93699 0.89095 0.0
H319 H 0.15654 0.85037 0.89169 0.0
Pr320 Pr 0.22875 0.85685 0.41597 0.0
Pr321 Pr 0.27119 0.95609 0.3864 0.0
C322 C 0.19492 0.76481 0.43421 0.0
C323 C 0.18746 0.7178 0.42251 0.0
C324 C 0.19548 0.68944 0.44667 0.0
C325 C 0.18486 0.64341 0.43745 0.0
C326 C 0.16587 0.62454 0.40381 0.0
C327 C 0.1581 0.65293 0.37946 0.0
C328 C 0.16876 0.69901 0.3887 0.0
C329 C 0.25561 0.93184 0.46701 0.0
C330 C 0.34206 0.90885 0.39332 0.0
C331 C 0.30439 0.05001 0.38324 0.0
C332 C 0.2825 0.08086 0.38091 0.0
C333 C 0.26097 0.08503 0.3495 0.0
C334 C 0.2393 0.11323 0.34871 0.0
C335 C 0.23854 0.13755 0.3793 0.0
C336 C 0.25982 0.1333 0.41062 0.0
C337 C 0.28166 0.10546 0.41139 0.0
C338 C 0.23159 0.88881 0.33191 0.0
C339 C 0.15435 0.89057 0.39253 0.0
O340 O 0.16968 0.7809 0.41857 0.0
O341 O 0.23772 0.79829 0.4425 0.0
O342 O 0.27785 0.93019 0.44066 0.0
O343 O 0.21645 0.89169 0.46897 0.0
O344 O 0.34091 0.94881 0.38819 0.0
O345 O 0.30306 0.86845 0.39961 0.0
O346 O 0.29679 0.02657 0.41298 0.0
O347 O 0.30315 0.02527 0.35532 0.0
O348 O 0.25406 0.88518 0.35845 0.0
O349 O 0.23131 0.92854 0.3327 0.0
O350 O 0.16151 0.85436 0.39165 0.0
O351 O 0.19054 0.93364 0.39786 0.0
H352 H 0.20936 0.70267 0.47301 0.0
H353 H 0.19139 0.62241 0.45664 0.0
H354 H 0.14371 0.63935 0.35331 0.0
H355 H 0.16181 0.71968 0.36952 0.0
H356 H 0.26077 0.06654 0.32557 0.0
H357 H 0.22343 0.11639 0.32417 0.0
H358 H 0.26005 0.15206 0.43442 0.0
H359 H 0.29784 0.10306 0.43603 0.0
Pr360 Pr 0.38738 0.2126 0.90587 0.0
Pr361 Pr 0.33262 0.25989 0.87604 0.0
C362 C 0.44529 0.17727 0.92355 0.0
C363 C 0.48667 0.17163 0.91325 0.0
C364 C 0.523 0.18182 0.9382 0.0
C365 C 0.55973 0.17217 0.93073 0.0
C366 C 0.56115 0.152 0.89808 0.0
C367 C 0.52528 0.14238 0.87282 0.0
C368 C 0.48847 0.15205 0.8803 0.0
C369 C 0.33633 0.23634 0.95624 0.0
C370 C 0.44926 0.32771 0.88682 0.0
C371 C 0.27135 0.29315 0.87347 0.0
C372 C 0.21864 0.26847 0.87494 0.0
C373 C 0.19289 0.28606 0.85646 0.0
C374 C 0.14333 0.26397 0.85958 0.0
C375 C 0.11867 0.22397 0.88132 0.0
C376 C 0.14429 0.20594 0.89936 0.0
C377 C 0.19365 0.22779 0.89611 0.0
C378 C 0.36275 0.22215 0.82164 0.0
C379 C 0.2796 0.14331 0.87971 0.0
O380 O 0.40591 0.15405 0.90533 0.0
O381 O 0.45255 0.21842 0.93464 0.0
O382 O 0.36145 0.26013 0.93089 0.0
O383 O 0.33822 0.19743 0.95792 0.0
O384 O 0.40903 0.32802 0.88028 0.0
O385 O 0.44999 0.28801 0.89275 0.0
O386 O 0.29241 0.29116 0.90263 0.0
O387 O 0.29089 0.28779 0.84479 0.0
O388 O 0.3871 0.24228 0.84931 0.0
O389 O 0.32391 0.22436 0.8209 0.0
O390 O 0.32226 0.14833 0.87982 0.0
O391 O 0.27376 0.18011 0.88555 0.0
H392 H 0.52242 0.19635 0.96393 0.0
H393 H 0.58685 0.17992 0.95068 0.0
H394 H 0.52546 0.12684 0.84746 0.0
H395 H 0.46099 0.14336 0.86051 0.0
H396 H 0.21116 0.31728 0.84005 0.0
H397 H 0.12426 0.27855 0.84553 0.0
H398 H 0.1261 0.17527 0.91632 0.0
H399 H 0.21238 0.21325 0.91069 0.0
Pr400 Pr 0.19363 0.37907 0.40262 0.0
Pr401 Pr 0.09996 0.32075 0.37076 0.0
C402 C 0.28437 0.44243 0.42204 0.0
C403 C 0.33046 0.48385 0.41139 0.0
C404 C 0.35537 0.52033 0.43584 0.0
C405 C 0.40035 0.5582 0.42786 0.0
C406 C 0.42168 0.56314 0.39411 0.0
C407 C 0.39809 0.52324 0.37131 0.0
C408 C 0.3529 0.48514 0.37932 0.0
C409 C 0.11671 0.33877 0.45265 0.0
C410 C 0.14029 0.43608 0.37671 0.0
C411 C 1.0105 0.24689 0.36688 0.0
C412 C 0.98246 0.1958 0.3589 0.0
C413 C 1.00427 0.16787 0.35591 0.0
C414 C 0.97692 0.11834 0.35636 0.0
C415 C 0.92746 0.09611 0.36006 0.0
C416 C 0.90564 0.12403 0.36145 0.0
C417 C 0.9329 0.17342 0.36087 0.0
C418 C 0.16376 0.36011 0.31554 0.0
C419 C 0.17063 0.27266 0.3873 0.0
O420 O 0.27163 0.40186 0.40694 0.0
O421 O 0.24837 0.44856 0.42882 0.0
O422 O 0.11891 0.35918 0.42389 0.0
O423 O 0.15613 0.33792 0.45648 0.0
O424 O 0.1007 0.39433 0.37674 0.0
O425 O 0.18159 0.43777 0.37765 0.0
O426 O 0.03805 0.25745 0.39478 0.0
O427 O 1.02958 0.27736 0.34088 0.0
O428 O 0.17324 0.34607 0.34484 0.0
O429 O 0.12065 0.35314 0.31489 0.0
O430 O 0.20311 0.31371 0.39932 0.0
O431 O 0.12901 0.26625 0.3764 0.0
H432 H 0.34059 0.51891 0.46183 0.0
H433 H 0.41852 0.58286 0.44919 0.0
H434 H 0.41431 0.51928 0.34774 0.0
H435 H 0.33614 0.45598 0.36072 0.0
H436 H 0.04251 0.18433 0.355 0.0
H437 H 0.99445 0.09743 0.35543 0.0
H438 H 0.8676 0.10759 0.36443 0.0
H439 H 0.9154 0.19417 0.36388 0.0
Pr440 Pr 0.83777 0.1829 0.91329 0.0
Pr441 Pr 0.80183 0.08519 0.88076 0.0
C442 C 0.86849 0.27454 0.93123 0.0
C443 C 0.87757 0.32172 0.91822 0.0
C444 C 0.86314 0.34829 0.93878 0.0
C445 C 0.87583 0.39484 0.92929 0.0
C446 C 0.90331 0.41607 0.89897 0.0
C447 C 0.91715 0.38935 0.87799 0.0
C448 C 0.90445 0.34275 0.88749 0.0
C449 C 0.81189 0.10655 0.96228 0.0
C450 C 0.72528 0.126 0.88616 0.0
C451 C 0.7725 0.99221 0.87307 0.0
C452 C 0.79713 0.96409 0.87144 0.0
C453 C 0.77216 0.91613 0.86188 0.0
C454 C 0.79409 0.88826 0.86386 0.0
C455 C 0.84131 0.90779 0.87564 0.0
C456 C 0.86659 0.95598 0.88454 0.0
C457 C 0.84473 0.98385 0.88244 0.0
C458 C 0.84364 0.15712 0.82966 0.0
C459 C 0.91624 0.15311 0.895 0.0
O460 O 0.89588 0.25884 0.91949 0.0
O461 O 0.82486 0.24076 0.93617 0.0
O462 O 0.79048 0.10757 0.93489 0.0
O463 O 0.84878 0.14803 0.96694 0.0
O464 O 0.7301 0.0887 0.87821 0.0
O465 O 0.76142 0.16634 0.8972 0.0
O466 O 0.777 1.01958 0.84603 0.0
O467 O 0.77569 1.01247 0.90368 0.0
O468 O 0.81755 0.1568 0.85471 0.0
O469 O 0.8471 0.11909 0.83028 0.0
O470 O 0.90768 0.18837 0.89273 0.0
O471 O 0.88086 0.1095 0.89897 0.0
H472 H 0.84296 0.33342 0.96279 0.0
H473 H 0.86477 0.41464 0.94596 0.0
H474 H 0.93841 0.40484 0.85454 0.0
H475 H 0.91661 0.32361 0.87119 0.0
H476 H 0.73539 0.89997 0.85362 0.0
H477 H 0.77395 0.8512 0.85681 0.0
H478 H 0.90303 0.97182 0.89361 0.0
H479 H 0.86472 1.02064 0.89021 0.0
C480 C 0.20584 0.97538 0.09201 0.0
C481 C 0.17389 0.94536 0.11833 0.0
C482 C 0.17173 1.01399 0.1438 0.0
C483 C 0.20856 0.04455 0.12066 0.0
N484 N 0.26416 0.05502 0.07468 0.0
N485 N 0.12971 0.93713 0.17183 0.0
C486 C 0.22642 0.02539 0.09517 0.0
C487 C 0.15725 0.96483 0.1447 0.0
N488 N 0.21518 0.95593 0.06318 0.0
N489 N 0.15002 0.03191 0.1646 0.0
H490 H 0.11778 0.9011 0.17362 0.0
H491 H 0.1215 0.95047 0.19413 0.0
H492 H 0.16011 0.06771 0.16494 0.0
H493 H 0.11949 1.01092 0.17909 0.0
H494 H 0.23438 0.9755 0.04132 0.0
H495 H 0.19957 0.91952 0.05936 0.0
H496 H 0.2824 0.04347 0.05865 0.0
H497 H 0.27964 0.09172 0.0757 0.0
C498 C 0.21548 0.14967 0.65348 0.0
C499 C 0.24637 0.16503 0.62381 0.0
C500 C 0.21517 0.21683 0.60527 0.0
C501 C 0.18319 0.20025 0.63416 0.0
N502 N 0.14504 0.14314 0.68074 0.0
N503 N 0.26657 0.20319 0.56661 0.0
C504 C 0.18089 0.16418 0.65669 0.0
C505 C 0.24342 0.1956 0.59821 0.0
N506 N 0.22067 0.12338 0.67965 0.0
N507 N 0.21994 0.2541 0.58538 0.0
H508 H 0.28638 0.18703 0.56012 0.0
H509 H 0.26215 0.22139 0.54548 0.0
H510 H 0.1998 0.27053 0.58959 0.0
H511 H 0.24646 0.2712 0.5666 0.0
H512 H 0.20334 0.11636 0.70394 0.0
H513 H 0.24488 0.11133 0.67834 0.0
H514 H 0.13838 0.11321 0.69523 0.0
H515 H 0.11919 0.15295 0.68389 0.0
C516 C 1.02712 0.20462 0.1519 0.0
C517 C 1.00624 0.16169 0.13239 0.0
C518 C 0.08383 0.18444 0.10583 0.0
C519 C 0.10477 0.22716 0.12585 0.0
N520 N 0.09897 0.26972 0.17617 0.0
N521 N 1.0161 0.10588 0.09682 0.0
C522 C 0.07712 0.23469 0.15139 0.0
C523 C 1.03511 0.15011 0.11121 0.0
N524 N 0.99906 0.21783 0.1698 0.0
N525 N 0.10972 0.17735 0.08066 0.0
H526 H 0.98068 0.08017 0.10014 0.0
H527 H 0.03608 0.09329 0.08424 0.0
H528 H 0.14573 0.20018 0.07711 0.0
H529 H 0.09509 0.15014 0.06204 0.0
H530 H 1.01184 0.25123 0.18096 0.0
H531 H 0.9623 0.19699 0.17097 0.0
H532 H 0.0814 0.27392 0.19768 0.0
H533 H 0.13563 0.29124 0.17758 0.0
C534 C 0.89409 0.02549 0.59574 0.0
C535 C 0.86022 0.99614 0.62124 0.0
C536 C 0.86385 0.06583 0.64906 0.0
C537 C 0.89364 0.09475 0.62129 0.0
N538 N 0.93228 0.10114 0.56541 0.0
N539 N 0.80744 0.9871 0.66907 0.0
C540 C 0.90784 0.07442 0.59398 0.0
C541 C 0.84367 1.01599 0.64708 0.0
N542 N 0.91351 1.00665 0.57353 0.0
N543 N 0.85621 0.0861 0.67817 0.0
H544 H 0.79211 0.9504 0.66899 0.0
H545 H 0.78987 0.99913 0.68539 0.0
H546 H 0.87089 0.1224 0.68108 0.0
H547 H 0.83927 0.06742 0.701 0.0
H548 H 0.94194 0.0269 0.5569 0.0
H549 H 0.90363 0.9709 0.57379 0.0
H550 H 0.93906 0.08718 0.54279 0.0
H551 H 0.94257 0.13682 0.56292 0.0
C552 C 0.86242 0.83445 0.10718 0.0
C553 C 0.88795 0.84497 0.13984 0.0
C554 C 0.84681 0.88682 0.16054 0.0
C555 C 0.8226 0.87768 0.12737 0.0
N556 N 0.81467 0.85197 0.06655 0.0
N557 N 0.91162 0.88887 0.19473 0.0
C558 C 0.83274 0.8543 0.0999 0.0
C559 C 0.88234 0.8736 0.16564 0.0
N560 N 0.8649 0.80379 0.0837 0.0
N561 N 0.83423 0.90598 0.18779 0.0
H562 H 0.93771 0.87964 0.19937 0.0
H563 H 0.91281 0.91374 0.21265 0.0
H564 H 0.809 0.91673 0.18499 0.0
H565 H 0.84633 0.9083 0.21381 0.0
H566 H 0.84312 0.79045 0.06137 0.0
H567 H 0.88624 0.78859 0.08792 0.0
H568 H 0.82454 0.83987 0.0444 0.0
H569 H 0.79308 0.86638 0.06034 0.0
C570 C 0.99884 0.81663 0.58477 0.0
C571 C 0.96673 0.81982 0.60857 0.0
C572 C 1.03383 0.89092 0.63525 0.0
C573 C 0.0661 0.8825 0.61554 0.0
N574 N 0.07977 0.83658 0.57199 0.0
N575 N 0.95334 0.86148 0.65594 0.0
C576 C 0.04867 0.84541 0.59016 0.0
C577 C 0.98404 0.85791 0.63328 0.0
N578 N 0.98141 0.78679 0.55624 0.0
N579 N 0.0509 0.93087 0.65555 0.0
H580 H 0.91678 0.84039 0.65377 0.0
H581 H 0.96397 0.88414 0.67772 0.0
H582 H 0.08699 0.95508 0.65801 0.0
H583 H 1.0295 0.94205 0.66774 0.0
H584 H 1.00246 0.78593 0.53587 0.0
H585 H 0.94521 0.76627 0.55099 0.0
H586 H 0.0694 0.80661 0.55644 0.0
H587 H 0.11646 0.85773 0.57426 0.0
C588 C 0.08032 0.89363 0.41123 0.0
C589 C 0.10469 0.88137 0.38582 0.0
C590 C 1.02931 0.83232 0.35392 0.0
C591 C 1.00523 0.84569 0.37853 0.0
N592 N 1.00888 0.89604 0.42659 0.0
N593 N 0.10403 0.85067 0.32749 0.0
C594 C 1.03115 0.87858 0.40595 0.0
C595 C 0.07956 0.85413 0.35555 0.0
N596 N 0.10341 0.91775 0.44123 0.0
N597 N 1.00407 0.7974 0.32965 0.0
H598 H 0.14081 0.86846 0.32696 0.0
H599 H 0.08837 0.83512 0.30329 0.0
H600 H 0.96726 0.78061 0.32733 0.0
H601 H 1.01921 0.78222 0.31388 0.0
H602 H 0.08647 0.9225 0.46289 0.0
H603 H 0.13945 0.93084 0.44532 0.0
H604 H 1.02657 0.9237 0.44455 0.0
H605 H 0.973 0.88541 0.42366 0.0
C606 C 0.16728 0.02222 0.88934 0.0
C607 C 0.17575 0.99719 0.86217 0.0
C608 C 0.24158 0.07157 0.84041 0.0
C609 C 0.23861 0.09542 0.87105 0.0
N610 N 0.19677 0.09414 0.92407 0.0
N611 N 0.22116 0.99717 0.81189 0.0
C612 C 0.20034 0.07114 0.89502 0.0
C613 C 0.21276 0.02172 0.83755 0.0
N614 N 0.12758 0.99908 0.90971 0.0
N615 N 0.27067 0.0971 0.81326 0.0
H616 H 0.19923 0.96102 0.80767 0.0
H617 H 0.25131 1.01202 0.79613 0.0
H618 H 0.28975 0.13379 0.81371 0.0
H619 H 0.27172 0.08275 0.78882 0.0
H620 H 0.11637 1.01589 0.92748 0.0
H621 H 0.10358 0.96309 0.90699 0.0
H622 H 0.1742 0.07736 0.94525 0.0
H623 H 0.21763 0.13036 0.92758 0.0
C624 C 0.15732 0.18952 0.39693 0.0
C625 C 0.18426 0.23537 0.382 0.0
C626 C 0.24604 0.21646 0.36472 0.0
C627 C 0.21835 0.1701 0.37827 0.0
N628 N 0.14405 0.1093 0.4013 0.0
N629 N 0.24842 0.28781 0.34369 0.0
C630 C 0.17275 0.15563 0.39246 0.0
C631 C 0.22689 0.24741 0.36353 0.0
N632 N 0.11845 0.1791 0.41697 0.0
N633 N 0.29153 0.23172 0.35413 0.0
H634 H 0.23549 0.31128 0.34139 0.0
H635 H 0.27628 0.29566 0.32645 0.0
H636 H 0.30673 0.21004 0.35383 0.0
H637 H 0.3155 0.26688 0.34833 0.0
H638 H 0.10028 0.14824 0.43175 0.0
H639 H 0.1063 0.20292 0.42112 0.0
H640 H 0.10865 0.09523 0.40829 0.0
H641 H 0.15457 0.08393 0.39879 0.0
C642 C 0.04875 0.21827 0.91449 0.0
C643 C 0.06625 0.20214 0.8865 0.0
C644 C 0.98435 0.14832 0.8663 0.0
C645 C 0.96689 0.16432 0.8945 0.0
N646 N 0.9815 0.20525 0.95033 0.0
N647 N 0.05126 0.1459 0.83985 0.0
C648 C 0.99893 0.1966 0.92004 0.0
C649 C 1.03412 0.1652 0.86372 0.0
N650 N 0.07982 0.25523 0.9353 0.0
N651 N 0.9537 0.11871 0.84101 0.0
H652 H 0.08739 0.15831 0.83656 0.0
H653 H 1.02988 0.11555 0.82515 0.0
H654 H 0.91712 0.10392 0.84276 0.0
H655 H 0.96445 0.11057 0.81735 0.0
H656 H 0.0694 0.27247 0.95331 0.0
H657 H 0.11651 0.27094 0.93292 0.0
H658 H 1.0026 0.22463 0.97175 0.0
H659 H 0.94533 0.18901 0.95561 0.0
C660 C 0.88934 0.02568 0.40068 0.0
C661 C 0.89842 0.04389 0.36552 0.0
C662 C 0.84641 0.96388 0.34192 0.0
C663 C 0.8328 0.94703 0.37714 0.0
N664 N 0.83916 0.96138 0.44021 0.0
N665 N 0.88524 0.03165 0.30246 0.0
C666 C 0.85404 0.97774 0.40659 0.0
C667 C 0.87724 1.0132 0.33601 0.0
N668 N 0.9148 0.0543 0.42842 0.0
N669 N 0.82952 0.93268 0.31415 0.0
H670 H 0.90878 0.06718 0.29721 0.0
H671 H 0.86696 1.01265 0.27997 0.0
H672 H 0.80607 0.89669 0.31751 0.0
H673 H 0.8411 0.94149 0.2881 0.0
H674 H 0.91365 0.04227 0.45424 0.0
H675 H 0.94015 0.08979 0.4252 0.0
H676 H 0.8486 0.98297 0.46259 0.0
H677 H 0.81507 0.92607 0.44563 0.0
C678 C 0.89681 0.83198 0.85084 0.0
C679 C 0.89957 0.81347 0.88449 0.0
C680 C 0.86545 0.85799 0.91271 0.0
C681 C 0.86388 0.8774 0.87915 0.0
N682 N 0.88661 0.89048 0.81764 0.0
N683 N 0.89509 0.81534 0.94815 0.0
C684 C 0.88236 0.86679 0.84866 0.0
C685 C 0.88652 0.82858 0.91566 0.0
N686 N 0.90548 0.81435 0.8207 0.0
N687 N 0.84522 0.86629 0.94153 0.0
H688 H 0.91058 0.79406 0.95105 0.0
H689 H 0.89079 0.82855 0.97215 0.0
H690 H 0.83037 0.88828 0.94057 0.0
H691 H 0.84026 0.84912 0.96579 0.0
H692 H 0.89854 0.82179 0.79514 0.0
H693 H 0.91655 0.78937 0.8214 0.0
H694 H 0.90437 0.8882 0.79549 0.0
H695 H 0.87573 0.91559 0.81496 0.0
C696 C 0.1556 0.64539 0.16297 0.0
C697 C 0.13 0.65617 0.13728 0.0
C698 C 0.11598 0.58557 0.10315 0.0
C699 C 0.14781 0.57945 0.12576 0.0
N700 N 0.20016 0.60529 0.1766 0.0
N701 N 0.08962 0.63856 0.08054 0.0
C702 C 0.16777 0.60951 0.15581 0.0
C703 C 0.11052 0.62633 0.107 0.0
N704 N 0.16797 0.66949 0.19447 0.0
N705 N 0.09057 0.55207 0.07802 0.0
H706 H 0.0848 0.66777 0.08214 0.0
H707 H 0.08022 0.62184 0.05589 0.0
H708 H 0.09379 0.52203 0.07442 0.0
H709 H 0.06323 0.55173 0.06314 0.0
H710 H 0.18281 0.66087 0.21582 0.0
H711 H 0.15911 0.69544 0.20041 0.0
H712 H 0.2202 0.62938 0.19639 0.0
H713 H 0.20948 0.57929 0.1725 0.0
C714 C 0.55643 0.12284 0.5871 0.0
C715 C 0.59474 0.15579 0.60906 0.0
C716 C 0.53576 0.16464 0.64436 0.0
C717 C 0.49759 0.12832 0.62484 0.0
N718 N 0.47299 0.06527 0.58214 0.0
N719 N 0.61463 0.22943 0.63798 0.0
C720 C 0.50835 0.10476 0.59791 0.0
C721 C 0.58329 0.18268 0.63278 0.0
N722 N 0.56502 0.11624 0.55276 0.0
N723 N 0.52661 0.18298 0.67386 0.0
H724 H 0.64436 0.24756 0.62194 0.0
H725 H 0.60668 0.25154 0.65286 0.0
H726 H 0.4923 0.16994 0.6835 0.0
H727 H 0.55348 0.20729 0.69045 0.0
H728 H 0.5382 0.09608 0.53454 0.0
H729 H 0.59789 0.13751 0.54102 0.0
H730 H 0.4797 0.04483 0.56434 0.0
H731 H 0.43776 0.05008 0.58985 0.0
C732 C 0.42823 0.55752 0.08417 0.0
C733 C 0.46668 0.57346 0.10859 0.0
C734 C 0.4244 0.4968 0.14002 0.0
C735 C 0.38746 0.47992 0.11412 0.0
N736 N 0.35965 0.49128 0.05723 0.0
N737 N 0.50473 0.55624 0.15691 0.0
C738 C 0.39102 0.50954 0.085 0.0
C739 C 0.46573 0.54241 0.1357 0.0
N740 N 0.42631 0.58877 0.06079 0.0
N741 N 0.4191 0.47021 0.16956 0.0
H742 H 0.5349 0.58946 0.15488 0.0
H743 H 0.50861 0.53381 0.17467 0.0
H744 H 0.38969 0.43688 0.1734 0.0
H745 H 0.44199 0.4824 0.19136 0.0
H746 H 0.39657 0.58094 0.04534 0.0
H747 H 0.45284 0.62404 0.05899 0.0
H748 H 0.36353 0.50921 0.03345 0.0
H749 H 0.33213 0.4564 0.05643 0.0
C750 C 0.94287 0.44227 0.58864 0.0
C751 C 0.93245 0.46364 0.61745 0.0
C752 C 0.93717 0.40731 0.6588 0.0
C753 C 0.94807 0.38645 0.63003 0.0
N754 N 0.97333 0.39148 0.56942 0.0
N755 N 0.9314 0.47436 0.68073 0.0
C756 C 0.9552 0.4067 0.59561 0.0
C757 C 0.93336 0.44861 0.65284 0.0
N758 N 0.93795 0.45362 0.55445 0.0
N759 N 0.929 0.38672 0.69158 0.0
H760 H 0.92934 0.50509 0.67724 0.0
H761 H 0.93615 0.46785 0.70712 0.0
H762 H 0.93389 0.35797 0.69703 0.0
H763 H 0.91528 0.39656 0.71274 0.0
H764 H 0.93957 0.43528 0.53237 0.0
H765 H 0.9282 0.4788 0.54802 0.0
H766 H 0.98375 0.40784 0.54475 0.0
H767 H 0.98238 0.36535 0.57366 0.0
C768 C 0.53991 0.88455 0.08906 0.0
C769 C 0.56927 0.90915 0.11873 0.0
C770 C 0.50515 0.92161 0.14164 0.0
C771 C 0.47446 0.89286 0.11388 0.0
N772 N 0.46077 0.84185 0.06364 0.0
N773 N 0.57828 0.94713 0.17528 0.0
C774 C 0.49143 0.873 0.08828 0.0
C775 C 0.55159 0.92698 0.14547 0.0
N776 N 0.55892 0.8736 0.06079 0.0
N777 N 0.49008 0.9443 0.16406 0.0
H778 H 0.61231 0.95202 0.17869 0.0
H779 H 0.5657 0.95612 0.1976 0.0
H780 H 0.45611 0.94009 0.16256 0.0
H781 H 0.51204 0.96968 0.18246 0.0
H782 H 0.54122 0.86075 0.03669 0.0
H783 H 0.59415 0.88151 0.06005 0.0
H784 H 0.46928 0.82157 0.04714 0.0
H785 H 0.42537 0.83327 0.0615 0.0
C786 C 0.64551 0.54744 0.63719 0.0
C787 C 0.68242 0.56225 0.6118 0.0
C788 C 0.64022 0.48278 0.58427 0.0
C789 C 0.60194 0.46906 0.60805 0.0
N790 N 0.56487 0.49012 0.65418 0.0
N791 N 0.71001 0.54607 0.55689 0.0
C792 C 0.6036 0.50206 0.63356 0.0
C793 C 0.67835 0.53039 0.58422 0.0
N794 N 0.65152 0.57555 0.66587 0.0
N795 N 0.64072 0.44989 0.56201 0.0
H796 H 0.73868 0.58021 0.55545 0.0
H797 H 0.7056 0.52666 0.53384 0.0
H798 H 0.61283 0.41525 0.56003 0.0
H799 H 0.67028 0.45575 0.54747 0.0
H800 H 0.62858 0.56482 0.68738 0.0
H801 H 0.68161 0.60849 0.6696 0.0
H802 H 0.56142 0.51401 0.67047 0.0
H803 H 0.53456 0.45686 0.65312 0.0
C804 C 0.39688 0.88743 0.42616 0.0
C805 C 0.38811 0.90825 0.3957 0.0
C806 C 0.46386 0.92175 0.37047 0.0
C807 C 0.46975 0.89672 0.3993 0.0
N808 N 0.43797 0.84929 0.45186 0.0
N809 N 0.41047 0.93952 0.33652 0.0
C810 C 0.43512 0.87778 0.42632 0.0
C811 C 0.42108 0.92424 0.36728 0.0
N812 N 0.36969 0.87847 0.4558 0.0
N813 N 0.49946 0.94365 0.34638 0.0
H814 H 0.37957 0.9414 0.33314 0.0
H815 H 0.43031 0.94681 0.31343 0.0
H816 H 0.53038 0.94137 0.34745 0.0
H817 H 0.4999 0.96669 0.32695 0.0
H818 H 0.37788 0.869 0.4802 0.0
H819 H 0.34133 0.88475 0.45715 0.0
H820 H 0.41072 0.82949 0.46955 0.0
H821 H 0.46585 0.8421 0.4536 0.0
C822 C 0.57294 0.41449 0.92172 0.0
C823 C 0.58953 0.45115 0.89616 0.0
C824 C 0.51348 0.40771 0.86363 0.0
C825 C 0.49574 0.37275 0.89072 0.0
N826 N 0.50549 0.35018 0.95015 0.0
N827 N 0.57257 0.48733 0.84645 0.0
C828 C 0.52459 0.37846 0.92113 0.0
C829 C 0.55877 0.4492 0.86824 0.0
N830 N 0.60383 0.41255 0.94568 0.0
N831 N 0.48853 0.40024 0.83265 0.0
H832 H 0.60527 0.51811 0.84915 0.0
H833 H 0.55007 0.49009 0.82792 0.0
H834 H 0.45591 0.37013 0.82797 0.0
H835 H 0.50199 0.42189 0.81045 0.0
H836 H 0.59485 0.38355 0.96208 0.0
H837 H 0.63971 0.43775 0.94694 0.0
H838 H 0.52324 0.3562 0.97443 0.0
H839 H 0.47027 0.32362 0.95122 0.0
C840 C 0.18545 0.56922 0.3701 0.0
C841 C 0.15546 0.57552 0.39393 0.0
C842 C 0.11291 0.48974 0.40575 0.0
C843 C 0.14063 0.48265 0.37975 0.0
N844 N 0.19721 0.51635 0.3321 0.0
N845 N 0.08391 0.54054 0.42827 0.0
C846 C 0.17492 0.52267 0.36038 0.0
C847 C 0.11696 0.53531 0.40965 0.0
N848 N 0.22556 0.60774 0.35794 0.0
N849 N 0.08554 0.45441 0.42889 0.0
H850 H 0.08592 0.57324 0.43186 0.0
H851 H 0.05236 0.51204 0.43713 0.0
H852 H 0.08306 0.42137 0.42887 0.0
H853 H 0.06905 0.4595 0.45072 0.0
H854 H 0.25194 0.60533 0.34413 0.0
H855 H 0.2347 0.64239 0.36429 0.0
H856 H 0.21809 0.54317 0.31439 0.0
H857 H 0.19135 0.48334 0.3244 0.0
C858 C 0.67487 0.15852 0.86182 0.0
C859 C 0.67832 0.1244 0.88333 0.0
C860 C 0.59977 0.10152 0.90826 0.0
C861 C 0.59994 0.14045 0.89085 0.0
N862 N 0.63966 0.20846 0.85279 0.0
N863 N 0.64507 0.06492 0.92897 0.0
C864 C 0.63782 0.16932 0.86777 0.0
C865 C 0.64069 0.0958 0.90673 0.0
N866 N 0.70687 0.18011 0.83519 0.0
N867 N 0.56007 0.06952 0.92584 0.0
H868 H 0.67356 0.05868 0.92803 0.0
H869 H 0.622 0.04759 0.94981 0.0
H870 H 0.52971 0.07267 0.92755 0.0
H871 H 0.55562 0.03782 0.93599 0.0
H872 H 0.70406 0.20202 0.8163 0.0
H873 H 0.73372 0.17226 0.82987 0.0
H874 H 0.66892 0.23399 0.83911 0.0
H875 H 0.61325 0.21742 0.85628 0.0
C876 C 0.49776 0.61117 0.3551 0.0
C877 C 0.46996 0.60715 0.38555 0.0
C878 C 0.53937 0.67619 0.41126 0.0
C879 C 0.56896 0.67568 0.3839 0.0
N880 N 0.57598 0.64059 0.32965 0.0
N881 N 0.46085 0.66168 0.42333 0.0
C882 C 0.54815 0.64217 0.35595 0.0
C883 C 0.48956 0.64695 0.40856 0.0
N884 N 0.47565 0.59425 0.3232 0.0
N885 N 0.55868 0.70423 0.44048 0.0
H886 H 0.42494 0.646 0.41669 0.0
H887 H 0.47391 0.69311 0.43766 0.0
H888 H 0.59516 0.72483 0.44445 0.0
H889 H 0.53836 0.70286 0.46226 0.0
H890 H 0.49365 0.59883 0.29945 0.0
H891 H 0.43998 0.58406 0.31957 0.0
H892 H 0.56339 0.6138 0.31063 0.0
H893 H 0.61235 0.66388 0.32855 0.0
C894 C 0.91041 0.52586 0.85414 0.0
C895 C 0.9397 0.56186 0.87866 0.0
C896 C 0.9535 0.50383 0.91118 0.0
C897 C 0.91848 0.46669 0.89 0.0
N898 N 0.86084 0.44188 0.8425 0.0
N899 N 0.98574 0.58403 0.93294 0.0
C900 C 0.89656 0.47765 0.8615 0.0
C901 C 0.96094 0.55073 0.90757 0.0
N902 N 0.89614 0.53807 0.82357 0.0
N903 N 0.98013 0.49433 0.93455 0.0
H904 H 0.99231 0.61866 0.93129 0.0
H905 H 0.99693 0.57654 0.95688 0.0
H906 H 0.97561 0.46054 0.93791 0.0
H907 H 1.00945 0.52047 0.94812 0.0
H908 H 0.87836 0.5145 0.80292 0.0
H909 H 0.90627 0.57306 0.81739 0.0
H910 H 0.8397 0.44709 0.82417 0.0
H911 H 0.84989 0.40632 0.84692 0.0
C912 C 0.1879 0.31953 0.26912 0.0
C913 C 0.18617 0.3603 0.28066 0.0
C914 C 0.22733 0.40214 0.22611 0.0
C915 C 0.2292 0.36176 0.2147 0.0
N916 N 0.20494 0.27927 0.22196 0.0
N917 N 0.18847 0.43278 0.26339 0.0
C918 C 0.20805 0.31975 0.23544 0.0
C919 C 0.20148 0.39952 0.25725 0.0
N920 N 0.1679 0.27961 0.28947 0.0
N921 N 0.25061 0.44328 0.20732 0.0
H922 H 0.16572 0.42953 0.28381 0.0
H923 H 0.19488 0.45996 0.24575 0.0
H924 H 0.2688 0.44609 0.18391 0.0
H925 H 0.25508 0.47542 0.21643 0.0
H926 H 0.17384 0.25129 0.28604 0.0
H927 H 0.14515 0.27467 0.31034 0.0
H928 H 0.18595 0.24611 0.23355 0.0
H929 H 0.21891 0.27776 0.19749 0.0
C930 C 0.83125 0.17459 0.73087 0.0
C931 C 0.87596 0.21493 0.72505 0.0
C932 C 0.88834 0.22716 0.78965 0.0
C933 C 0.84867 0.18184 0.79513 0.0
N934 N 0.77765 0.11504 0.7725 0.0
N935 N 0.94535 0.2832 0.74782 0.0
C936 C 0.81817 0.15672 0.76615 0.0
C937 C 0.90348 0.24292 0.75424 0.0
N938 N 0.80206 0.15329 0.70238 0.0
N939 N 0.91157 0.25459 0.81842 0.0
H940 H 0.95592 0.29649 0.72222 0.0
H941 H 0.97011 0.30282 0.76739 0.0
H942 H 0.90022 0.24366 0.84433 0.0
H943 H 0.93916 0.28927 0.81677 0.0
H944 H 0.76781 0.12488 0.70416 0.0
H945 H 0.81141 0.16668 0.67666 0.0
H946 H 0.75584 0.09219 0.75275 0.0
H947 H 0.76595 0.10286 0.79817 0.0
C948 C 0.65312 0.81747 0.22531 0.0
C949 C 0.68483 0.86638 0.21983 0.0
C950 C 0.70048 0.87664 0.28392 0.0
C951 C 0.677 0.82709 0.2888 0.0
N952 N 0.62316 0.74984 0.26517 0.0
N953 N 0.74833 0.93961 0.2437 0.0
C954 C 0.65094 0.79726 0.25967 0.0
C955 C 0.71122 0.89517 0.24907 0.0
N956 N 0.62425 0.79084 0.19803 0.0
N957 N 0.71029 0.90624 0.3122 0.0
H958 H 0.76051 0.95328 0.21847 0.0
H959 H 0.77067 0.96021 0.26427 0.0
H960 H 0.69575 0.89377 0.33715 0.0
H961 H 0.72554 0.94274 0.30943 0.0
H962 H 0.59723 0.75605 0.20071 0.0
H963 H 0.62564 0.80452 0.17269 0.0
H964 H 0.60825 0.72502 0.24486 0.0
H965 H 0.61471 0.73532 0.29061 0.0
C966 C 0.82905 0.6459 0.73455 0.0
C967 C 0.8476 0.68879 0.71509 0.0
C968 C 0.91023 0.72848 0.7601 0.0
C969 C 0.88967 0.68683 0.78115 0.0
N970 N 0.82855 0.60618 0.78962 0.0
N971 N 0.89778 0.77345 0.71432 0.0
C972 C 0.8486 0.64562 0.76875 0.0
C973 C 0.8861 0.73074 0.72915 0.0
N974 N 0.79378 0.60521 0.71976 0.0
N975 N 0.9534 0.76588 0.76916 0.0
H976 H 0.8791 0.77698 0.69301 0.0
H977 H 0.92223 0.80566 0.72564 0.0
H978 H 0.97154 0.76728 0.79251 0.0
H979 H 0.97266 0.79443 0.75231 0.0
H980 H 0.78151 0.5718 0.73065 0.0
H981 H 0.77847 0.60442 0.6951 0.0
H982 H 0.79576 0.57663 0.78444 0.0
H983 H 0.84407 0.60385 0.81333 0.0
C984 C 0.24024 0.87436 0.23261 0.0
C985 C 0.19698 0.83196 0.22668 0.0
C986 C 0.18696 0.81854 0.29133 0.0
C987 C 0.22588 0.86441 0.29707 0.0
N988 N 0.29766 0.92996 0.27518 0.0
N989 N 0.13118 0.76067 0.24918 0.0
C990 C 0.25524 0.89034 0.26819 0.0
C991 C 0.17154 0.80257 0.25578 0.0
N992 N 0.26547 0.90022 0.20398 0.0
N993 N 0.16481 0.79075 0.32001 0.0
H994 H 0.1204 0.7474 0.22353 0.0
H995 H 0.10783 0.73924 0.26863 0.0
H996 H 0.17659 0.80174 0.34594 0.0
H997 H 0.1373 0.75604 0.31844 0.0
H998 H 0.29495 0.93382 0.20554 0.0
H999 H 0.25623 0.88771 0.17798 0.0
H1000 H 0.32247 0.94983 0.256 0.0
H1001 H 0.30969 0.94127 0.30104 0.0
C1002 C 0.38641 0.24363 0.75789 0.0
C1003 C 0.38263 0.21526 0.78776 0.0
C1004 C 0.39302 0.16081 0.74848 0.0
C1005 C 0.38666 0.18366 0.71849 0.0
N1006 N 0.38409 0.25012 0.69351 0.0
N1007 N 0.3903 0.15153 0.81284 0.0
C1008 C 0.38642 0.22672 0.7229 0.0
C1009 C 0.38945 0.17577 0.78348 0.0
N1010 N 0.39043 0.28694 0.7633 0.0
N1011 N 0.40211 0.12459 0.7431 0.0
H1012 H 0.39122 0.16407 0.83841 0.0
H1013 H 0.38966 0.11931 0.81214 0.0
H1014 H 0.4055 0.11398 0.71765 0.0
H1015 H 0.40979 0.10749 0.76328 0.0
H1016 H 0.39645 0.3112 0.74319 0.0
H1017 H 0.39181 0.3003 0.78874 0.0
H1018 H 0.37794 0.27856 0.69416 0.0
H1019 H 0.38789 0.24012 0.66801 0.0
C1020 C 0.26725 0.23125 0.99316 0.0
C1021 C 0.31569 0.25619 0.98299 0.0
C1022 C 0.32317 0.32856 0.01045 0.0
C1023 C 0.27465 0.30423 0.02037 0.0
N1024 N 0.19839 0.23368 0.01588 0.0
N1025 N 0.39233 0.32349 0.99367 0.0
C1026 C 0.24607 0.25585 0.01022 0.0
C1027 C 0.34422 0.30353 0.99482 0.0
N1028 N 0.24224 0.18349 0.98846 0.0
N1029 N 0.34878 0.37658 0.01391 0.0
H1030 H 0.40849 0.30413 0.98615 0.0
H1031 H 0.41575 0.35622 0.00478 0.0
H1032 H 0.334 0.39658 0.02298 0.0
H1033 H 0.38274 0.3971 0.00381 0.0
H1034 H 0.20813 0.16185 0.99787 0.0
H1035 H 0.25774 0.16463 0.97849 0.0
H1036 H 0.17453 0.20041 0.00592 0.0
H1037 H 0.18181 0.2501 0.0282 0.0
C1038 C 0.08626 0.32805 0.51711 0.0
C1039 C 0.07663 0.32292 0.47981 0.0
C1040 C 0.99089 0.27712 0.49427 0.0
C1041 C 1.00049 0.28492 0.53114 0.0
N1042 N 0.05753 0.33748 0.5736 0.0
N1043 N 1.01558 0.3112 0.43634 0.0
C1044 C 0.04832 0.31534 0.54162 0.0
C1045 C 1.02781 0.30292 0.4692 0.0
N1046 N 0.13163 0.34806 0.52976 0.0
N1047 N 0.94648 0.24505 0.4827 0.0
H1048 H 0.03982 0.33276 0.41758 0.0
H1049 H 0.98068 0.30086 0.42922 0.0
H1050 H 0.91872 0.22516 0.50005 0.0
H1051 H 0.93889 0.23508 0.45607 0.0
H1052 H 0.13921 0.34661 0.55658 0.0
H1053 H 0.16148 0.36535 0.51392 0.0
H1054 H 0.09108 0.36414 0.58138 0.0
H1055 H 1.03033 0.33349 0.59004 0.0
C1056 C 0.71961 0.99877 0.01354 0.0
C1057 C 0.74575 0.97713 0.02612 0.0
C1058 C 0.81736 0.04175 0.9976 0.0
C1059 C 0.79167 0.06501 0.98766 0.0
N1060 N 0.721 0.07067 0.99468 0.0
N1061 N 0.82219 0.98316 0.03501 0.0
C1062 C 0.74357 0.04487 0.99814 0.0
C1063 C 0.79541 0.99999 0.01939 0.0
N1064 N 0.67126 0.9743 0.0147 0.0
N1065 N 0.86226 0.05847 0.98523 0.0
H1066 H 0.80773 0.9529 0.05071 0.0
H1067 H 0.85907 1.00121 0.03473 0.0
H1068 H 0.87988 0.0894 0.97037 0.0
H1069 H 0.8808 0.0401 0.98768 0.0
H1070 H 0.64999 0.98611 1.00271 0.0
H1071 H 0.65229 0.93973 0.02399 0.0
H1072 H 0.68762 0.06001 0.00516 0.0
H1073 H 0.73768 0.10511 0.98484 0.0
C1074 C 0.7422 0.70328 0.51025 0.0
C1075 C 0.79152 0.72647 0.51857 0.0
C1076 C 0.80132 0.79493 0.48297 0.0
C1077 C 0.75135 0.77356 0.47831 0.0
N1078 N 0.67383 0.71086 0.49415 0.0
N1079 N 0.86686 0.79883 0.51718 0.0
C1080 C 0.72177 0.72871 0.49386 0.0
C1081 C 0.82086 0.77348 0.50595 0.0
N1082 N 0.71486 0.656 0.5165 0.0
N1083 N 0.83045 0.83493 0.46446 0.0
H1084 H 0.88258 0.78515 0.53407 0.0
H1085 H 0.88827 0.83479 0.51222 0.0
H1086 H 0.81764 0.85186 0.44794 0.0
H1087 H 0.86701 0.84895 0.46319 0.0
H1088 H 0.67983 0.63607 0.5079 0.0
H1089 H 0.72883 0.63561 0.52645 0.0
H1090 H 0.65072 0.68076 0.50833 0.0
H1091 H 0.65763 0.72893 0.48346 0.0
C1092 C 0.98346 0.7063 0.01754 0.0
C1093 C 0.99365 0.71232 0.9804 0.0
C1094 C 0.07902 0.75903 0.99651 0.0
C1095 C 0.06903 0.75109 0.03317 0.0
N1096 N 1.01211 0.6984 0.07519 0.0
N1097 N 0.05567 0.72379 0.93882 0.0
C1098 C 1.02125 0.71988 0.04292 0.0
C1099 C 0.04266 0.73269 0.97091 0.0
N1100 N 0.9378 0.68482 0.02914 0.0
N1101 N 0.12335 0.79159 0.9856 0.0
H1102 H 1.03186 0.70171 0.91988 0.0
H1103 H 0.09078 0.7343 0.9327 0.0
H1104 H 0.15084 0.8119 1.00334 0.0
H1105 H 0.13105 0.80139 0.95901 0.0
H1106 H 0.92942 0.68565 0.05573 0.0
H1107 H 0.90846 0.66659 0.0126 0.0
H1108 H 0.97878 0.67128 0.08256 0.0
H1109 H 0.03921 0.70392 0.09275 0.0
C1110 C 0.32521 0.99356 0.50311 0.0
C1111 C 0.27654 0.97296 0.49337 0.0
C1112 C 0.27514 0.04104 0.5215 0.0
C1113 C 0.32459 0.06286 0.52978 0.0
N1114 N 0.39767 0.06058 0.5248 0.0
N1115 N 0.20239 0.9703 0.50393 0.0
C1116 C 0.34984 0.03936 0.51941 0.0
C1117 C 0.25066 0.99469 0.50575 0.0
N1118 N 0.3467 0.96676 0.50013 0.0
N1119 N 0.25203 0.06609 0.5262 0.0
H1120 H 0.18356 0.93585 0.49444 0.0
H1121 H 0.18088 0.9817 0.51567 0.0
H1122 H 0.26868 0.10065 0.53577 0.0
H1123 H 0.2177 0.05478 0.51715 0.0
H1124 H 0.38055 0.97679 0.50965 0.0
H1125 H 0.32796 0.93143 0.49252 0.0
H1126 H 0.41908 0.04946 0.51251 0.0
H1127 H 0.41692 0.09071 0.54015 0.0
loop_
_geom_bond_atom_site_label_1
_geom_bond_atom_site_label_2
_geom_bond_distance
_geom_bond_site_symmetry_2
_ccdc_geom_bond_type
Pr0 C2 2.880 . S
Pr0 O20 2.562 . S
Pr0 O21 2.490 . S
Pr0 O22 2.695 . S
Pr0 O23 2.512 . S
Pr0 O25 2.437 . S
Pr0 O28 2.436 . S
Pr0 O30 2.438 . S
Pr1 C11 2.880 . S
Pr1 O22 2.436 . S
Pr1 O24 2.438 . S
Pr1 O26 2.562 . S
Pr1 O27 2.490 . S
Pr1 O28 2.695 . S
Pr1 O29 2.512 . S
Pr1 O31 2.437 . S
C2 Pr0 2.880 . S
C2 C3 1.491 . S
C2 O20 1.254 . S
C2 O21 1.225 . S
C3 C2 1.491 . S
C3 C4 1.392 . S
C3 C8 1.356 . S
C4 C3 1.392 . S
C4 C5 1.368 . S
C4 H32 0.929 . S
C5 C4 1.368 . S
C5 C6 1.386 . S
C5 H33 0.929 . S
C6 C5 1.386 . S
C6 C7 1.373 . S
C7 C6 1.373 . S
C7 C8 1.409 . S
C7 H34 0.931 . S
C8 C3 1.356 . S
C8 C7 1.409 . S
C8 H35 0.930 . S
C9 O22 1.270 . S
C9 O23 1.248 . S
C10 O24 1.267 . S
C10 O25 1.278 . S
C11 Pr1 2.880 . S
C11 C12 1.491 . S
C11 O26 1.254 . S
C11 O27 1.225 . S
C12 C11 1.491 . S
C12 C13 1.392 . S
C12 C17 1.356 . S
C13 C12 1.392 . S
C13 C14 1.368 . S
C13 H36 0.929 . S
C14 C13 1.368 . S
C14 C15 1.386 . S
C14 H37 0.929 . S
C15 C14 1.386 . S
C15 C16 1.373 . S
C16 C15 1.373 . S
C16 C17 1.409 . S
C16 H38 0.931 . S
C17 C12 1.356 . S
C17 C16 1.409 . S
C17 H39 0.930 . S
C18 O28 1.270 . S
C18 O29 1.248 . S
C19 O30 1.267 . S
C19 O31 1.278 . S
O20 Pr0 2.562 . S
O20 C2 1.254 . S
O21 Pr0 2.490 . S
O21 C2 1.225 . S
O22 Pr0 2.695 . S
O22 Pr1 2.436 . S
O22 C9 1.270 . S
O23 Pr0 2.512 . S
O23 C9 1.248 . S
O24 Pr1 2.438 . S
O24 C10 1.267 . S
O25 Pr0 2.437 . S
O25 C10 1.278 . S
O26 Pr1 2.562 . S
O26 C11 1.254 . S
O27 Pr1 2.490 . S
O27 C11 1.225 . S
O28 Pr0 2.436 . S
O28 Pr1 2.695 . S
O28 C18 1.270 . S
O29 Pr1 2.512 . S
O29 C18 1.248 . S
O30 Pr0 2.438 . S
O30 C19 1.267 . S
O31 Pr1 2.437 . S
O31 C19 1.278 . S
H32 C4 0.929 . S
H33 C5 0.929 . S
H34 C7 0.931 . S
H35 C8 0.930 . S
H36 C13 0.929 . S
H37 C14 0.929 . S
H38 C16 0.931 . S
H39 C17 0.930 . S
Pr40 C42 2.880 . S
Pr40 O60 2.562 . S
Pr40 O61 2.490 . S
Pr40 O62 2.695 . S
Pr40 O63 2.512 . S
Pr40 O65 2.437 . S
Pr40 O68 2.436 . S
Pr40 O70 2.438 . S
Pr41 C51 2.880 . S
Pr41 O62 2.436 . S
Pr41 O64 2.438 . S
Pr41 O66 2.562 . S
Pr41 O67 2.490 . S
Pr41 O68 2.695 . S
Pr41 O69 2.512 . S
Pr41 O71 2.437 . S
C42 Pr40 2.880 . S
C42 C43 1.491 . S
C42 O60 1.254 . S
C42 O61 1.225 . S
C43 C42 1.491 . S
C43 C44 1.392 . S
C43 C48 1.356 . S
C44 C43 1.392 . S
C44 C45 1.368 . S
C44 H72 0.929 . S
C45 C44 1.368 . S
C45 C46 1.386 . S
C45 H73 0.929 . S
C46 C45 1.386 . S
C46 C47 1.373 . S
C47 C46 1.373 . S
C47 C48 1.409 . S
C47 H74 0.931 . S
C48 C43 1.356 . S
C48 C47 1.409 . S
C48 H75 0.930 . S
C49 O62 1.270 . S
C49 O63 1.248 . S
C50 O64 1.267 . S
C50 O65 1.278 . S
C51 Pr41 2.880 . S
C51 C52 1.491 1_655 S
C51 O66 1.254 . S
C51 O67 1.225 . S
C52 C51 1.491 1_455 S
C52 C53 1.392 . S
C52 C57 1.356 . S
C53 C52 1.392 . S
C53 C54 1.368 . S
C53 H76 0.929 . S
C54 C53 1.368 . S
C54 C55 1.386 . S
C54 H77 0.929 . S
C55 C54 1.386 . S
C55 C56 1.373 . S
C56 C55 1.373 . S
C56 C57 1.409 . S
C56 H78 0.931 . S
C57 C52 1.356 . S
C57 C56 1.409 . S
C57 H79 0.930 . S
C58 O68 1.270 . S
C58 O69 1.248 . S
C59 O70 1.267 . S
C59 O71 1.278 . S
O60 Pr40 2.562 . S
O60 C42 1.254 . S
O61 Pr40 2.490 . S
O61 C42 1.225 . S
O62 Pr40 2.695 . S
O62 Pr41 2.436 . S
O62 C49 1.270 . S
O63 Pr40 2.512 . S
O63 C49 1.248 . S
O64 Pr41 2.438 . S
O64 C50 1.267 . S
O65 Pr40 2.437 . S
O65 C50 1.278 . S
O66 Pr41 2.562 . S
O66 C51 1.254 . S
O67 Pr41 2.490 . S
O67 C51 1.225 . S
O68 Pr40 2.436 . S
O68 Pr41 2.695 . S
O68 C58 1.270 . S
O69 Pr41 2.512 . S
O69 C58 1.248 . S
O70 Pr40 2.438 . S
O70 C59 1.267 . S
O71 Pr41 2.437 . S
O71 C59 1.278 . S
H72 C44 0.929 . S
H73 C45 0.929 . S
H74 C47 0.931 . S
H75 C48 0.930 . S
H76 C53 0.929 . S
H77 C54 0.929 . S
H78 C56 0.931 . S
H79 C57 0.930 . S
Pr80 C82 2.880 . S
Pr80 O100 2.562 . S
Pr80 O101 2.490 . S
Pr80 O102 2.695 . S
Pr80 O103 2.512 . S
Pr80 O105 2.437 . S
Pr80 O108 2.436 . S
Pr80 O110 2.438 . S
Pr81 C91 2.880 . S
Pr81 O102 2.436 . S
Pr81 O104 2.438 . S
Pr81 O106 2.562 . S
Pr81 O107 2.490 . S
Pr81 O108 2.695 . S
Pr81 O109 2.512 . S
Pr81 O111 2.437 . S
C82 Pr80 2.880 . S
C82 C83 1.491 . S
C82 O100 1.254 . S
C82 O101 1.225 . S
C83 C82 1.491 . S
C83 C84 1.392 . S
C83 C88 1.356 . S
C84 C83 1.392 . S
C84 C85 1.368 . S
C84 H112 0.929 . S
C85 C84 1.368 . S
C85 C86 1.386 . S
C85 H113 0.929 . S
C86 C85 1.386 . S
C86 C87 1.373 . S
C87 C86 1.373 . S
C87 C88 1.409 . S
C87 H114 0.931 . S
C88 C83 1.356 . S
C88 C87 1.409 . S
C88 H115 0.930 . S
C89 O102 1.270 . S
C89 O103 1.248 . S
C90 O104 1.267 . S
C90 O105 1.278 . S
C91 Pr81 2.880 . S
C91 C92 1.491 1_565 S
C91 O106 1.254 . S
C91 O107 1.225 . S
C92 C91 1.491 1_545 S
C92 C93 1.392 . S
C92 C97 1.356 . S
C93 C92 1.392 . S
C93 C94 1.368 . S
C93 H116 0.929 . S
C94 C93 1.368 . S
C94 C95 1.386 . S
C94 H117 0.929 . S
C95 C94 1.386 . S
C95 C96 1.373 . S
C96 C95 1.373 . S
C96 C97 1.409 . S
C96 H118 0.931 . S
C97 C92 1.356 . S
C97 C96 1.409 . S
C97 H119 0.930 . S
C98 O108 1.270 . S
C98 O109 1.248 . S
C99 O110 1.267 . S
C99 O111 1.278 . S
O100 Pr80 2.562 . S
O100 C82 1.254 . S
O101 Pr80 2.490 . S
O101 C82 1.225 . S
O102 Pr80 2.695 . S
O102 Pr81 2.436 . S
O102 C89 1.270 . S
O103 Pr80 2.512 . S
O103 C89 1.248 . S
O104 Pr81 2.438 . S
O104 C90 1.267 . S
O105 Pr80 2.437 . S
O105 C90 1.278 . S
O106 Pr81 2.562 . S
O106 C91 1.254 . S
O107 Pr81 2.490 . S
O107 C91 1.225 . S
O108 Pr80 2.436 . S
O108 Pr81 2.695 . S
O108 C98 1.270 . S
O109 Pr81 2.512 . S
O109 C98 1.248 . S
O110 Pr80 2.438 . S
O110 C99 1.267 . S
O111 Pr81 2.437 . S
O111 C99 1.278 . S
H112 C84 0.929 . S
H113 C85 0.929 . S
H114 C87 0.931 . S
H115 C88 0.930 . S
H116 C93 0.929 . S
H117 C94 0.929 . S
H118 C96 0.931 . S
H119 C97 0.930 . S
Pr120 C122 2.880 . S
Pr120 O140 2.562 . S
Pr120 O141 2.490 . S
Pr120 O142 2.695 . S
Pr120 O143 2.512 . S
Pr120 O145 2.437 . S
Pr120 O148 2.436 . S
Pr120 O150 2.438 . S
Pr121 C131 2.880 . S
Pr121 O142 2.436 . S
Pr121 O144 2.438 . S
Pr121 O146 2.562 . S
Pr121 O147 2.490 . S
Pr121 O148 2.695 . S
Pr121 O149 2.512 . S
Pr121 O151 2.437 . S
C122 Pr120 2.880 . S
C122 C123 1.491 . S
C122 O140 1.254 . S
C122 O141 1.225 . S
C123 C122 1.491 . S
C123 C124 1.392 . S
C123 C128 1.356 . S
C124 C123 1.392 . S
C124 C125 1.368 . S
C124 H152 0.929 . S
C125 C124 1.368 . S
C125 C126 1.386 . S
C125 H153 0.929 . S
C126 C125 1.386 . S
C126 C127 1.373 . S
C127 C126 1.373 . S
C127 C128 1.409 . S
C127 H154 0.931 . S
C128 C123 1.356 . S
C128 C127 1.409 . S
C128 H155 0.930 . S
C129 O142 1.270 . S
C129 O143 1.248 . S
C130 O144 1.267 . S
C130 O145 1.278 . S
C131 Pr121 2.880 . S
C131 C132 1.491 . S
C131 O146 1.254 . S
C131 O147 1.225 . S
C132 C131 1.491 . S
C132 C133 1.392 . S
C132 C137 1.356 . S
C133 C132 1.392 . S
C133 C134 1.368 . S
C133 H156 0.929 . S
C134 C133 1.368 . S
C134 C135 1.386 . S
C134 H157 0.929 . S
C135 C134 1.386 . S
C135 C136 1.373 . S
C136 C135 1.373 . S
C136 C137 1.409 . S
C136 H158 0.931 . S
C137 C132 1.356 . S
C137 C136 1.409 . S
C137 H159 0.930 . S
C138 O148 1.270 . S
C138 O149 1.248 . S
C139 O150 1.267 . S
C139 O151 1.278 . S
O140 Pr120 2.562 . S
O140 C122 1.254 . S
O141 Pr120 2.490 . S
O141 C122 1.225 . S
O142 Pr120 2.695 . S
O142 Pr121 2.436 . S
O142 C129 1.270 . S
O143 Pr120 2.512 . S
O143 C129 1.248 . S
O144 Pr121 2.438 . S
O144 C130 1.267 . S
O145 Pr120 2.437 . S
O145 C130 1.278 . S
O146 Pr121 2.562 . S
O146 C131 1.254 . S
O147 Pr121 2.490 . S
O147 C131 1.225 . S
O148 Pr120 2.436 . S
O148 Pr121 2.695 . S
O148 C138 1.270 . S
O149 Pr121 2.512 . S
O149 C138 1.248 . S
O150 Pr120 2.438 . S
O150 C139 1.267 . S
O151 Pr121 2.437 . S
O151 C139 1.278 . S
H152 C124 0.929 . S
H153 C125 0.929 . S
H154 C127 0.931 . S
H155 C128 0.930 . S
H156 C133 0.929 . S
H157 C134 0.929 . S
H158 C136 0.931 . S
H159 C137 0.930 . S
Pr160 C162 2.880 . S
Pr160 O180 2.562 . S
Pr160 O181 2.490 . S
Pr160 O182 2.695 . S
Pr160 O183 2.512 . S
Pr160 O185 2.437 . S
Pr160 O188 2.436 . S
Pr160 O190 2.438 . S
Pr161 C171 2.880 . S
Pr161 O182 2.436 . S
Pr161 O184 2.438 . S
Pr161 O186 2.562 . S
Pr161 O187 2.490 . S
Pr161 O188 2.695 . S
Pr161 O189 2.512 . S
Pr161 O191 2.437 . S
C162 Pr160 2.880 . S
C162 C163 1.491 . S
C162 O180 1.254 . S
C162 O181 1.225 . S
C163 C162 1.491 . S
C163 C164 1.392 . S
C163 C168 1.356 . S
C164 C163 1.392 . S
C164 C165 1.368 . S
C164 H192 0.929 . S
C165 C164 1.368 . S
C165 C166 1.386 . S
C165 H193 0.929 . S
C166 C165 1.386 . S
C166 C167 1.373 . S
C167 C166 1.373 . S
C167 C168 1.409 . S
C167 H194 0.931 . S
C168 C163 1.356 . S
C168 C167 1.409 . S
C168 H195 0.930 . S
C169 O182 1.270 . S
C169 O183 1.248 . S
C170 O184 1.267 . S
C170 O185 1.278 . S
C171 Pr161 2.880 . S
C171 C172 1.491 1_455 S
C171 O186 1.254 . S
C171 O187 1.225 . S
C172 C171 1.491 1_655 S
C172 C173 1.392 . S
C172 C177 1.356 . S
C173 C172 1.392 . S
C173 C174 1.368 . S
C173 H196 0.929 . S
C174 C173 1.368 . S
C174 C175 1.386 . S
C174 H197 0.929 . S
C175 C174 1.386 . S
C175 C176 1.373 . S
C176 C175 1.373 . S
C176 C177 1.409 . S
C176 H198 0.931 . S
C177 C172 1.356 . S
C177 C176 1.409 . S
C177 H199 0.930 . S
C178 O188 1.270 . S
C178 O189 1.248 . S
C179 O190 1.267 . S
C179 O191 1.278 . S
O180 Pr160 2.562 . S
O180 C162 1.254 . S
O181 Pr160 2.490 . S
O181 C162 1.225 . S
O182 Pr160 2.695 . S
O182 Pr161 2.436 . S
O182 C169 1.270 . S
O183 Pr160 2.512 . S
O183 C169 1.248 . S
O184 Pr161 2.438 . S
O184 C170 1.267 . S
O185 Pr160 2.437 . S
O185 C170 1.278 . S
O186 Pr161 2.562 . S
O186 C171 1.254 . S
O187 Pr161 2.490 . S
O187 C171 1.225 . S
O188 Pr160 2.436 . S
O188 Pr161 2.695 . S
O188 C178 1.270 . S
O189 Pr161 2.512 . S
O189 C178 1.248 . S
O190 Pr160 2.438 . S
O190 C179 1.267 . S
O191 Pr161 2.437 . S
O191 C179 1.278 . S
H192 C164 0.929 . S
H193 C165 0.929 . S
H194 C167 0.931 . S
H195 C168 0.930 . S
H196 C173 0.929 . S
H197 C174 0.929 . S
H198 C176 0.931 . S
H199 C177 0.930 . S
Pr200 C202 2.880 . S
Pr200 O220 2.562 . S
Pr200 O221 2.490 . S
Pr200 O222 2.695 . S
Pr200 O223 2.512 . S
Pr200 O225 2.437 . S
Pr200 O228 2.436 . S
Pr200 O230 2.438 . S
Pr201 C211 2.880 . S
Pr201 O222 2.436 . S
Pr201 O224 2.438 . S
Pr201 O226 2.562 . S
Pr201 O227 2.490 . S
Pr201 O228 2.695 . S
Pr201 O229 2.512 . S
Pr201 O231 2.437 . S
C202 Pr200 2.880 . S
C202 C203 1.491 . S
C202 O220 1.254 . S
C202 O221 1.225 . S
C203 C202 1.491 . S
C203 C204 1.392 . S
C203 C208 1.356 . S
C204 C203 1.392 . S
C204 C205 1.368 . S
C204 H232 0.929 . S
C205 C204 1.368 . S
C205 C206 1.386 . S
C205 H233 0.929 . S
C206 C205 1.386 . S
C206 C207 1.373 . S
C207 C206 1.373 . S
C207 C208 1.409 . S
C207 H234 0.931 . S
C208 C203 1.356 . S
C208 C207 1.409 . S
C208 H235 0.930 . S
C209 O222 1.270 . S
C209 O223 1.248 . S
C210 O224 1.267 . S
C210 O225 1.278 . S
C211 Pr201 2.880 . S
C211 C212 1.491 1_545 S
C211 O226 1.254 . S
C211 O227 1.225 . S
C212 C211 1.491 1_565 S
C212 C213 1.392 . S
C212 C217 1.356 . S
C213 C212 1.392 . S
C213 C214 1.368 . S
C213 H236 0.929 . S
C214 C213 1.368 . S
C214 C215 1.386 . S
C214 H237 0.929 . S
C215 C214 1.386 . S
C215 C216 1.373 . S
C216 C215 1.373 . S
C216 C217 1.409 . S
C216 H238 0.931 . S
C217 C212 1.356 . S
C217 C216 1.409 . S
C217 H239 0.930 . S
C218 O228 1.270 . S
C218 O229 1.248 . S
C219 O230 1.267 . S
C219 O231 1.278 . S
O220 Pr200 2.562 . S
O220 C202 1.254 . S
O221 Pr200 2.490 . S
O221 C202 1.225 . S
O222 Pr200 2.695 . S
O222 Pr201 2.436 . S
O222 C209 1.270 . S
O223 Pr200 2.512 . S
O223 C209 1.248 . S
O224 Pr201 2.438 . S
O224 C210 1.267 . S
O225 Pr200 2.437 . S
O225 C210 1.278 . S
O226 Pr201 2.562 . S
O226 C211 1.254 . S
O227 Pr201 2.490 . S
O227 C211 1.225 . S
O228 Pr200 2.436 . S
O228 Pr201 2.695 . S
O228 C218 1.270 . S
O229 Pr201 2.512 . S
O229 C218 1.248 . S
O230 Pr200 2.438 . S
O230 C219 1.267 . S
O231 Pr201 2.437 . S
O231 C219 1.278 . S
H232 C204 0.929 . S
H233 C205 0.929 . S
H234 C207 0.931 . S
H235 C208 0.930 . S
H236 C213 0.929 . S
H237 C214 0.929 . S
H238 C216 0.931 . S
H239 C217 0.930 . S
Pr240 C242 2.880 . S
Pr240 O260 2.562 . S
Pr240 O261 2.490 . S
Pr240 O262 2.695 . S
Pr240 O263 2.512 . S
Pr240 O265 2.437 . S
Pr240 O268 2.436 . S
Pr240 O270 2.438 . S
Pr241 C251 2.880 . S
Pr241 O262 2.436 . S
Pr241 O264 2.438 . S
Pr241 O266 2.562 . S
Pr241 O267 2.490 . S
Pr241 O268 2.695 . S
Pr241 O269 2.512 . S
Pr241 O271 2.437 . S
C242 Pr240 2.880 . S
C242 C243 1.491 . S
C242 O260 1.254 . S
C242 O261 1.225 . S
C243 C242 1.491 . S
C243 C244 1.392 . S
C243 C248 1.356 . S
C244 C243 1.392 . S
C244 C245 1.368 . S
C244 H272 0.929 . S
C245 C244 1.368 . S
C245 C246 1.386 . S
C245 H273 0.929 . S
C246 C245 1.386 . S
C246 C247 1.373 . S
C247 C246 1.373 . S
C247 C248 1.409 . S
C247 H274 0.931 . S
C248 C243 1.356 . S
C248 C247 1.409 . S
C248 H275 0.930 . S
C249 O262 1.270 . S
C249 O263 1.248 . S
C250 O264 1.267 . S
C250 O265 1.278 . S
C251 Pr241 2.880 . S
C251 C252 1.491 . S
C251 O266 1.254 . S
C251 O267 1.225 . S
C252 C251 1.491 . S
C252 C253 1.392 . S
C252 C257 1.356 . S
C253 C252 1.392 . S
C253 C254 1.368 . S
C253 H276 0.929 . S
C254 C253 1.368 . S
C254 C255 1.386 . S
C254 H277 0.929 . S
C255 C254 1.386 . S
C255 C256 1.373 . S
C256 C255 1.373 . S
C256 C257 1.409 . S
C256 H278 0.931 . S
C257 C252 1.356 . S
C257 C256 1.409 . S
C257 H279 0.930 . S
C258 O268 1.270 . S
C258 O269 1.248 . S
C259 O270 1.267 . S
C259 O271 1.278 . S
O260 Pr240 2.562 . S
O260 C242 1.254 . S
O261 Pr240 2.490 . S
O261 C242 1.225 . S
O262 Pr240 2.695 . S
O262 Pr241 2.436 . S
O262 C249 1.270 . S
O263 Pr240 2.512 . S
O263 C249 1.248 . S
O264 Pr241 2.438 . S
O264 C250 1.267 . S
O265 Pr240 2.437 . S
O265 C250 1.278 . S
O266 Pr241 2.562 . S
O266 C251 1.254 . S
O267 Pr241 2.490 . S
O267 C251 1.225 . S
O268 Pr240 2.436 . S
O268 Pr241 2.695 . S
O268 C258 1.270 . S
O269 Pr241 2.512 . S
O269 C258 1.248 . S
O270 Pr240 2.438 . S
O270 C259 1.267 . S
O271 Pr241 2.437 . S
O271 C259 1.278 . S
H272 C244 0.929 . S
H273 C245 0.929 . S
H274 C247 0.931 . S
H275 C248 0.930 . S
H276 C253 0.929 . S
H277 C254 0.929 . S
H278 C256 0.931 . S
H279 C257 0.930 . S
Pr280 C282 2.880 . S
Pr280 O300 2.562 . S
Pr280 O301 2.490 . S
Pr280 O302 2.695 . S
Pr280 O303 2.512 . S
Pr280 O305 2.437 . S
Pr280 O308 2.436 . S
Pr280 O310 2.438 . S
Pr281 C291 2.880 . S
Pr281 O302 2.436 . S
Pr281 O304 2.438 . S
Pr281 O306 2.562 . S
Pr281 O307 2.490 . S
Pr281 O308 2.695 . S
Pr281 O309 2.512 . S
Pr281 O311 2.437 . S
C282 Pr280 2.880 . S
C282 C283 1.491 . S
C282 O300 1.254 . S
C282 O301 1.225 . S
C283 C282 1.491 . S
C283 C284 1.392 . S
C283 C288 1.356 . S
C284 C283 1.392 . S
C284 C285 1.368 . S
C284 H312 0.929 . S
C285 C284 1.368 . S
C285 C286 1.386 . S
C285 H313 0.929 . S
C286 C285 1.386 . S
C286 C287 1.373 . S
C287 C286 1.373 . S
C287 C288 1.409 . S
C287 H314 0.931 . S
C288 C283 1.356 . S
C288 C287 1.409 . S
C288 H315 0.930 . S
C289 O302 1.270 . S
C289 O303 1.248 . S
C290 O304 1.267 . S
C290 O305 1.278 . S
C291 Pr281 2.880 . S
C291 C292 1.491 1_655 S
C291 O306 1.254 . S
C291 O307 1.225 . S
C292 C291 1.491 1_455 S
C292 C293 1.392 . S
C292 C297 1.356 . S
C293 C292 1.392 . S
C293 C294 1.368 . S
C293 H316 0.929 . S
C294 C293 1.368 . S
C294 C295 1.386 . S
C294 H317 0.929 . S
C295 C294 1.386 . S
C295 C296 1.373 . S
C296 C295 1.373 . S
C296 C297 1.409 . S
C296 H318 0.931 . S
C297 C292 1.356 . S
C297 C296 1.409 . S
C297 H319 0.930 . S
C298 O308 1.270 . S
C298 O309 1.248 . S
C299 O310 1.267 . S
C299 O311 1.278 . S
O300 Pr280 2.562 . S
O300 C282 1.254 . S
O301 Pr280 2.490 . S
O301 C282 1.225 . S
O302 Pr280 2.695 . S
O302 Pr281 2.436 . S
O302 C289 1.270 . S
O303 Pr280 2.512 . S
O303 C289 1.248 . S
O304 Pr281 2.438 . S
O304 C290 1.267 . S
O305 Pr280 2.437 . S
O305 C290 1.278 . S
O306 Pr281 2.562 . S
O306 C291 1.254 . S
O307 Pr281 2.490 . S
O307 C291 1.225 . S
O308 Pr280 2.436 . S
O308 Pr281 2.695 . S
O308 C298 1.270 . S
O309 Pr281 2.512 . S
O309 C298 1.248 . S
O310 Pr280 2.438 . S
O310 C299 1.267 . S
O311 Pr281 2.437 . S
O311 C299 1.278 . S
H312 C284 0.929 . S
H313 C285 0.929 . S
H314 C287 0.931 . S
H315 C288 0.930 . S
H316 C293 0.929 . S
H317 C294 0.929 . S
H318 C296 0.931 . S
H319 C297 0.930 . S
Pr320 C322 2.880 . S
Pr320 O340 2.562 . S
Pr320 O341 2.490 . S
Pr320 O342 2.695 . S
Pr320 O343 2.512 . S
Pr320 O345 2.437 . S
Pr320 O348 2.436 . S
Pr320 O350 2.438 . S
Pr321 C331 2.880 . S
Pr321 O342 2.436 . S
Pr321 O344 2.438 . S
Pr321 O346 2.562 . S
Pr321 O347 2.490 . S
Pr321 O348 2.695 . S
Pr321 O349 2.512 . S
Pr321 O351 2.437 . S
C322 Pr320 2.880 . S
C322 C323 1.491 . S
C322 O340 1.254 . S
C322 O341 1.225 . S
C323 C322 1.491 . S
C323 C324 1.392 . S
C323 C328 1.356 . S
C324 C323 1.392 . S
C324 C325 1.368 . S
C324 H352 0.929 . S
C325 C324 1.368 . S
C325 C326 1.386 . S
C325 H353 0.929 . S
C326 C325 1.386 . S
C326 C327 1.373 . S
C327 C326 1.373 . S
C327 C328 1.409 . S
C327 H354 0.931 . S
C328 C323 1.356 . S
C328 C327 1.409 . S
C328 H355 0.930 . S
C329 O342 1.270 . S
C329 O343 1.248 . S
C330 O344 1.267 . S
C330 O345 1.278 . S
C331 Pr321 2.880 . S
C331 C332 1.491 1_565 S
C331 O346 1.254 . S
C331 O347 1.225 . S
C332 C331 1.491 1_545 S
C332 C333 1.392 . S
C332 C337 1.356 . S
C333 C332 1.392 . S
C333 C334 1.368 . S
C333 H356 0.929 . S
C334 C333 1.368 . S
C334 C335 1.386 . S
C334 H357 0.929 . S
C335 C334 1.386 . S
C335 C336 1.373 . S
C336 C335 1.373 . S
C336 C337 1.409 . S
C336 H358 0.931 . S
C337 C332 1.356 . S
C337 C336 1.409 . S
C337 H359 0.930 . S
C338 O348 1.270 . S
C338 O349 1.248 . S
C339 O350 1.267 . S
C339 O351 1.278 . S
O340 Pr320 2.562 . S
O340 C322 1.254 . S
O341 Pr320 2.490 . S
O341 C322 1.225 . S
O342 Pr320 2.695 . S
O342 Pr321 2.436 . S
O342 C329 1.270 . S
O343 Pr320 2.512 . S
O343 C329 1.248 . S
O344 Pr321 2.438 . S
O344 C330 1.267 . S
O345 Pr320 2.437 . S
O345 C330 1.278 . S
O346 Pr321 2.562 . S
O346 C331 1.254 . S
O347 Pr321 2.490 . S
O347 C331 1.225 . S
O348 Pr320 2.436 . S
O348 Pr321 2.695 . S
O348 C338 1.270 . S
O349 Pr321 2.512 . S
O349 C338 1.248 . S
O350 Pr320 2.438 . S
O350 C339 1.267 . S
O351 Pr321 2.437 . S
O351 C339 1.278 . S
H352 C324 0.929 . S
H353 C325 0.929 . S
H354 C327 0.931 . S
H355 C328 0.930 . S
H356 C333 0.929 . S
H357 C334 0.929 . S
H358 C336 0.931 . S
H359 C337 0.930 . S
Pr360 C362 2.880 . S
Pr360 O380 2.562 . S
Pr360 O381 2.490 . S
Pr360 O382 2.695 . S
Pr360 O383 2.512 . S
Pr360 O385 2.437 . S
Pr360 O388 2.436 . S
Pr360 O390 2.438 . S
Pr361 C371 2.880 . S
Pr361 O382 2.436 . S
Pr361 O384 2.438 . S
Pr361 O386 2.562 . S
Pr361 O387 2.490 . S
Pr361 O388 2.695 . S
Pr361 O389 2.512 . S
Pr361 O391 2.437 . S
C362 Pr360 2.880 . S
C362 C363 1.491 . S
C362 O380 1.254 . S
C362 O381 1.225 . S
C363 C362 1.491 . S
C363 C364 1.392 . S
C363 C368 1.356 . S
C364 C363 1.392 . S
C364 C365 1.368 . S
C364 H392 0.929 . S
C365 C364 1.368 . S
C365 C366 1.386 . S
C365 H393 0.929 . S
C366 C365 1.386 . S
C366 C367 1.373 . S
C367 C366 1.373 . S
C367 C368 1.409 . S
C367 H394 0.931 . S
C368 C363 1.356 . S
C368 C367 1.409 . S
C368 H395 0.930 . S
C369 O382 1.270 . S
C369 O383 1.248 . S
C370 O384 1.267 . S
C370 O385 1.278 . S
C371 Pr361 2.880 . S
C371 C372 1.491 . S
C371 O386 1.254 . S
C371 O387 1.225 . S
C372 C371 1.491 . S
C372 C373 1.392 . S
C372 C377 1.356 . S
C373 C372 1.392 . S
C373 C374 1.368 . S
C373 H396 0.929 . S
C374 C373 1.368 . S
C374 C375 1.386 . S
C374 H397 0.929 . S
C375 C374 1.386 . S
C375 C376 1.373 . S
C376 C375 1.373 . S
C376 C377 1.409 . S
C376 H398 0.931 . S
C377 C372 1.356 . S
C377 C376 1.409 . S
C377 H399 0.930 . S
C378 O388 1.270 . S
C378 O389 1.248 . S
C379 O390 1.267 . S
C379 O391 1.278 . S
O380 Pr360 2.562 . S
O380 C362 1.254 . S
O381 Pr360 2.490 . S
O381 C362 1.225 . S
O382 Pr360 2.695 . S
O382 Pr361 2.436 . S
O382 C369 1.270 . S
O383 Pr360 2.512 . S
O383 C369 1.248 . S
O384 Pr361 2.438 . S
O384 C370 1.267 . S
O385 Pr360 2.437 . S
O385 C370 1.278 . S
O386 Pr361 2.562 . S
O386 C371 1.254 . S
O387 Pr361 2.490 . S
O387 C371 1.225 . S
O388 Pr360 2.436 . S
O388 Pr361 2.695 . S
O388 C378 1.270 . S
O389 Pr361 2.512 . S
O389 C378 1.248 . S
O390 Pr360 2.438 . S
O390 C379 1.267 . S
O391 Pr361 2.437 . S
O391 C379 1.278 . S
H392 C364 0.929 . S
H393 C365 0.929 . S
H394 C367 0.931 . S
H395 C368 0.930 . S
H396 C373 0.929 . S
H397 C374 0.929 . S
H398 C376 0.931 . S
H399 C377 0.930 . S
Pr400 C402 2.880 . S
Pr400 O420 2.562 . S
Pr400 O421 2.490 . S
Pr400 O422 2.695 . S
Pr400 O423 2.512 . S
Pr400 O425 2.437 . S
Pr400 O428 2.436 . S
Pr400 O430 2.438 . S
Pr401 C411 2.880 . S
Pr401 O422 2.436 . S
Pr401 O424 2.438 . S
Pr401 O426 2.562 . S
Pr401 O427 2.490 . S
Pr401 O428 2.695 . S
Pr401 O429 2.512 . S
Pr401 O431 2.437 . S
C402 Pr400 2.880 . S
C402 C403 1.491 . S
C402 O420 1.254 . S
C402 O421 1.225 . S
C403 C402 1.491 . S
C403 C404 1.392 . S
C403 C408 1.356 . S
C404 C403 1.392 . S
C404 C405 1.368 . S
C404 H432 0.929 . S
C405 C404 1.368 . S
C405 C406 1.386 . S
C405 H433 0.929 . S
C406 C405 1.386 . S
C406 C407 1.373 . S
C407 C406 1.373 . S
C407 C408 1.409 . S
C407 H434 0.931 . S
C408 C403 1.356 . S
C408 C407 1.409 . S
C408 H435 0.930 . S
C409 O422 1.270 . S
C409 O423 1.248 . S
C410 O424 1.267 . S
C410 O425 1.278 . S
C411 Pr401 2.880 . S
C411 C412 1.491 1_455 S
C411 O426 1.254 . S
C411 O427 1.225 . S
C412 C411 1.491 1_655 S
C412 C413 1.392 . S
C412 C417 1.356 . S
C413 C412 1.392 . S
C413 C414 1.368 . S
C413 H436 0.929 . S
C414 C413 1.368 . S
C414 C415 1.386 . S
C414 H437 0.929 . S
C415 C414 1.386 . S
C415 C416 1.373 . S
C416 C415 1.373 . S
C416 C417 1.409 . S
C416 H438 0.931 . S
C417 C412 1.356 . S
C417 C416 1.409 . S
C417 H439 0.930 . S
C418 O428 1.270 . S
C418 O429 1.248 . S
C419 O430 1.267 . S
C419 O431 1.278 . S
O420 Pr400 2.562 . S
O420 C402 1.254 . S
O421 Pr400 2.490 . S
O421 C402 1.225 . S
O422 Pr400 2.695 . S
O422 Pr401 2.436 . S
O422 C409 1.270 . S
O423 Pr400 2.512 . S
O423 C409 1.248 . S
O424 Pr401 2.438 . S
O424 C410 1.267 . S
O425 Pr400 2.437 . S
O425 C410 1.278 . S
O426 Pr401 2.562 . S
O426 C411 1.254 . S
O427 Pr401 2.490 . S
O427 C411 1.225 . S
O428 Pr400 2.436 . S
O428 Pr401 2.695 . S
O428 C418 1.270 . S
O429 Pr401 2.512 . S
O429 C418 1.248 . S
O430 Pr400 2.438 . S
O430 C419 1.267 . S
O431 Pr401 2.437 . S
O431 C419 1.278 . S
H432 C404 0.929 . S
H433 C405 0.929 . S
H434 C407 0.931 . S
H435 C408 0.930 . S
H436 C413 0.929 . S
H437 C414 0.929 . S
H438 C416 0.931 . S
H439 C417 0.930 . S
Pr440 C442 2.880 . S
Pr440 O460 2.562 . S
Pr440 O461 2.490 . S
Pr440 O462 2.695 . S
Pr440 O463 2.512 . S
Pr440 O465 2.437 . S
Pr440 O468 2.436 . S
Pr440 O470 2.438 . S
Pr441 C451 2.880 . S
Pr441 O462 2.436 . S
Pr441 O464 2.438 . S
Pr441 O466 2.562 . S
Pr441 O467 2.490 . S
Pr441 O468 2.695 . S
Pr441 O469 2.512 . S
Pr441 O471 2.437 . S
C442 Pr440 2.880 . S
C442 C443 1.491 . S
C442 O460 1.254 . S
C442 O461 1.225 . S
C443 C442 1.491 . S
C443 C444 1.392 . S
C443 C448 1.356 . S
C444 C443 1.392 . S
C444 C445 1.368 . S
C444 H472 0.929 . S
C445 C444 1.368 . S
C445 C446 1.386 . S
C445 H473 0.929 . S
C446 C445 1.386 . S
C446 C447 1.373 . S
C447 C446 1.373 . S
C447 C448 1.409 . S
C447 H474 0.931 . S
C448 C443 1.356 . S
C448 C447 1.409 . S
C448 H475 0.930 . S
C449 O462 1.270 . S
C449 O463 1.248 . S
C450 O464 1.267 . S
C450 O465 1.278 . S
C451 Pr441 2.880 . S
C451 C452 1.491 1_545 S
C451 O466 1.254 . S
C451 O467 1.225 . S
C452 C451 1.491 1_565 S
C452 C453 1.392 . S
C452 C457 1.356 . S
C453 C452 1.392 . S
C453 C454 1.368 . S
C453 H476 0.929 . S
C454 C453 1.368 . S
C454 C455 1.386 . S
C454 H477 0.929 . S
C455 C454 1.386 . S
C455 C456 1.373 . S
C456 C455 1.373 . S
C456 C457 1.409 . S
C456 H478 0.931 . S
C457 C452 1.356 . S
C457 C456 1.409 . S
C457 H479 0.930 . S
C458 O468 1.270 . S
C458 O469 1.248 . S
C459 O470 1.267 . S
C459 O471 1.278 . S
O460 Pr440 2.562 . S
O460 C442 1.254 . S
O461 Pr440 2.490 . S
O461 C442 1.225 . S
O462 Pr440 2.695 . S
O462 Pr441 2.436 . S
O462 C449 1.270 . S
O463 Pr440 2.512 . S
O463 C449 1.248 . S
O464 Pr441 2.438 . S
O464 C450 1.267 . S
O465 Pr440 2.437 . S
O465 C450 1.278 . S
O466 Pr441 2.562 . S
O466 C451 1.254 . S
O467 Pr441 2.490 . S
O467 C451 1.225 . S
O468 Pr440 2.436 . S
O468 Pr441 2.695 . S
O468 C458 1.270 . S
O469 Pr441 2.512 . S
O469 C458 1.248 . S
O470 Pr440 2.438 . S
O470 C459 1.267 . S
O471 Pr441 2.437 . S
O471 C459 1.278 . S
H472 C444 0.929 . S
H473 C445 0.929 . S
H474 C447 0.931 . S
H475 C448 0.930 . S
H476 C453 0.929 . S
H477 C454 0.929 . S
H478 C456 0.931 . S
H479 C457 0.930 . S
C480 C481 1.363 . S
C480 C486 1.379 1_565 S
C480 N488 1.356 . S
C481 C480 1.363 . S
C481 C487 1.363 . S
C482 C483 1.363 1_565 S
C482 C487 1.379 . S
C482 N489 1.356 . S
C483 C482 1.363 1_545 S
C483 C486 1.363 . S
N484 C486 1.356 . S
N484 H496 0.984 . S
N484 H497 0.985 . S
N485 C487 1.356 . S
N485 H490 0.984 . S
N485 H491 0.985 . S
C486 C480 1.379 1_545 S
C486 C483 1.363 . S
C486 N484 1.356 . S
C487 C481 1.363 . S
C487 C482 1.379 . S
C487 N485 1.356 . S
N488 C480 1.356 . S
N488 H494 0.984 . S
N488 H495 0.984 . S
N489 C482 1.356 . S
N489 H492 0.984 1_565 S
N489 H493 0.985 . S
H490 N485 0.984 . S
H491 N485 0.985 . S
H492 N489 0.984 1_545 S
H493 N489 0.985 . S
H494 N488 0.984 . S
H495 N488 0.984 . S
H496 N484 0.984 . S
H497 N484 0.985 . S
C498 C499 1.363 . S
C498 C504 1.379 . S
C498 N506 1.356 . S
C499 C498 1.363 . S
C499 C505 1.363 . S
C500 C501 1.363 . S
C500 C505 1.379 . S
C500 N507 1.356 . S
C501 C500 1.363 . S
C501 C504 1.363 . S
N502 C504 1.356 . S
N502 H514 0.984 . S
N502 H515 0.985 . S
N503 C505 1.356 . S
N503 H508 0.984 . S
N503 H509 0.985 . S
C504 C498 1.379 . S
C504 C501 1.363 . S
C504 N502 1.356 . S
C505 C499 1.363 . S
C505 C500 1.379 . S
C505 N503 1.356 . S
N506 C498 1.356 . S
N506 H512 0.984 . S
N506 H513 0.984 . S
N507 C500 1.356 . S
N507 H510 0.984 . S
N507 H511 0.985 . S
H508 N503 0.984 . S
H509 N503 0.985 . S
H510 N507 0.984 . S
H511 N507 0.985 . S
H512 N506 0.984 . S
H513 N506 0.984 . S
H514 N502 0.984 . S
H515 N502 0.985 . S
C516 C517 1.363 1_455 S
C516 C522 1.379 . S
C516 N524 1.356 1_455 S
C517 C516 1.363 1_655 S
C517 C523 1.363 1_655 S
C518 C519 1.363 . S
C518 C523 1.379 . S
C518 N525 1.356 . S
C519 C518 1.363 . S
C519 C522 1.363 . S
N520 C522 1.356 . S
N520 H532 0.984 . S
N520 H533 0.985 . S
N521 C523 1.356 1_655 S
N521 H526 0.984 . S
N521 H527 0.985 . S
C522 C516 1.379 . S
C522 C519 1.363 . S
C522 N520 1.356 . S
C523 C517 1.363 1_455 S
C523 C518 1.379 . S
C523 N521 1.356 1_455 S
N524 C516 1.356 1_655 S
N524 H530 0.984 . S
N524 H531 0.984 . S
N525 C518 1.356 . S
N525 H528 0.984 . S
N525 H529 0.985 . S
H526 N521 0.984 . S
H527 N521 0.985 . S
H528 N525 0.984 . S
H529 N525 0.985 . S
H530 N524 0.984 . S
H531 N524 0.984 . S
H532 N520 0.984 . S
H533 N520 0.985 . S
C534 C535 1.363 . S
C534 C540 1.379 1_565 S
C534 N542 1.356 . S
C535 C534 1.363 . S
C535 C541 1.363 1_565 S
C536 C537 1.363 . S
C536 C541 1.379 . S
C536 N543 1.356 . S
C537 C536 1.363 . S
C537 C540 1.363 . S
N538 C540 1.356 . S
N538 H550 0.984 . S
N538 H551 0.985 . S
N539 C541 1.356 1_565 S
N539 H544 0.984 . S
N539 H545 0.970 1_565 S
C540 C534 1.379 1_545 S
C540 C537 1.363 . S
C540 N538 1.356 . S
C541 C535 1.363 1_545 S
C541 C536 1.379 . S
C541 N539 1.356 1_545 S
N542 C534 1.356 . S
N542 H548 0.984 . S
N542 H549 0.984 . S
N543 C536 1.356 . S
N543 H546 0.984 . S
N543 H547 0.985 . S
H544 N539 0.984 . S
H545 N539 0.970 1_545 S
H546 N543 0.984 . S
H547 N543 0.985 . S
H548 N542 0.984 . S
H549 N542 0.984 . S
H550 N538 0.984 . S
H551 N538 0.985 . S
C552 C553 1.363 . S
C552 C558 1.379 . S
C552 N560 1.356 . S
C553 C552 1.363 . S
C553 C559 1.363 . S
C554 C555 1.363 . S
C554 C559 1.379 . S
C554 N561 1.356 . S
C555 C554 1.363 . S
C555 C558 1.363 . S
N556 C558 1.356 . S
N556 H568 0.984 . S
N556 H569 0.985 . S
N557 C559 1.356 . S
N557 H562 0.984 . S
N557 H563 0.985 . S
C558 C552 1.379 . S
C558 C555 1.363 . S
C558 N556 1.356 . S
C559 C553 1.363 . S
C559 C554 1.379 . S
C559 N557 1.356 . S
N560 C552 1.356 . S
N560 H566 0.984 . S
N560 H567 0.984 . S
N561 C554 1.356 . S
N561 H564 0.984 . S
N561 H565 0.985 . S
H562 N557 0.984 . S
H563 N557 0.985 . S
H564 N561 0.984 . S
H565 N561 0.985 . S
H566 N560 0.984 . S
H567 N560 0.984 . S
H568 N556 0.984 . S
H569 N556 0.985 . S
C570 C571 1.363 . S
C570 C576 1.379 1_655 S
C570 N578 1.356 . S
C571 C570 1.363 . S
C571 C577 1.363 . S
C572 C573 1.363 1_655 S
C572 C577 1.379 . S
C572 N579 1.356 . S
C573 C572 1.363 1_455 S
C573 C576 1.363 . S
N574 C576 1.356 . S
N574 H586 0.984 . S
N574 H587 0.985 . S
N575 C577 1.356 . S
N575 H580 0.984 . S
N575 H581 0.985 . S
C576 C570 1.379 1_455 S
C576 C573 1.363 . S
C576 N574 1.356 . S
C577 C571 1.363 . S
C577 C572 1.379 . S
C577 N575 1.356 . S
N578 C570 1.356 . S
N578 H584 0.984 . S
N578 H585 0.984 . S
N579 C572 1.356 . S
N579 H582 0.984 1_655 S
N579 H583 0.985 . S
H580 N575 0.984 . S
H581 N575 0.985 . S
H582 N579 0.984 1_455 S
H583 N579 0.985 . S
H584 N578 0.984 . S
H585 N578 0.984 . S
H586 N574 0.984 . S
H587 N574 0.985 . S
C588 C589 1.363 . S
C588 C594 1.379 . S
C588 N596 1.356 . S
C589 C588 1.363 . S
C589 C595 1.363 . S
C590 C591 1.363 . S
C590 C595 1.379 1_655 S
C590 N597 1.356 . S
C591 C590 1.363 . S
C591 C594 1.363 1_655 S
N592 C594 1.356 1_655 S
N592 H604 0.984 . S
N592 H605 0.985 . S
N593 C595 1.356 . S
N593 H598 0.984 . S
N593 H599 0.985 . S
C594 C588 1.379 . S
C594 C591 1.363 1_455 S
C594 N592 1.356 1_455 S
C595 C589 1.363 . S
C595 C590 1.379 1_455 S
C595 N593 1.356 . S
N596 C588 1.356 . S
N596 H602 0.984 . S
N596 H603 0.984 . S
N597 C590 1.356 . S
N597 H600 0.984 . S
N597 H601 0.985 . S
H598 N593 0.984 . S
H599 N593 0.985 . S
H600 N597 0.984 . S
H601 N597 0.985 . S
H602 N596 0.984 . S
H603 N596 0.984 . S
H604 N592 0.984 . S
H605 N592 0.985 . S
C606 C607 1.363 . S
C606 C612 1.379 1_565 S
C606 N614 1.356 . S
C607 C606 1.363 . S
C607 C613 1.363 1_565 S
C608 C609 1.363 . S
C608 C613 1.379 . S
C608 N615 1.356 . S
C609 C608 1.363 . S
C609 C612 1.363 . S
N610 C612 1.356 . S
N610 H622 0.984 . S
N610 H623 0.985 . S
N611 C613 1.356 1_565 S
N611 H616 0.984 . S
N611 H617 0.985 . S
C612 C606 1.379 1_545 S
C612 C609 1.363 . S
C612 N610 1.356 . S
C613 C607 1.363 1_545 S
C613 C608 1.379 . S
C613 N611 1.356 1_545 S
N614 C606 1.356 . S
N614 H620 0.984 . S
N614 H621 0.984 . S
N615 C608 1.356 . S
N615 H618 0.984 . S
N615 H619 0.985 . S
H616 N611 0.984 . S
H617 N611 0.985 . S
H618 N615 0.984 . S
H619 N615 0.985 . S
H620 N614 0.984 . S
H621 N614 0.984 . S
H622 N610 0.984 . S
H623 N610 0.985 . S
C624 C625 1.363 . S
C624 C630 1.379 . S
C624 N632 1.356 . S
C625 C624 1.363 . S
C625 C631 1.363 . S
C626 C627 1.363 . S
C626 C631 1.379 . S
C626 N633 1.356 . S
C627 C626 1.363 . S
C627 C630 1.363 . S
N628 C630 1.356 . S
N628 H640 0.984 . S
N628 H641 0.985 . S
N629 C631 1.356 . S
N629 H634 0.984 . S
N629 H635 0.985 . S
C630 C624 1.379 . S
C630 C627 1.363 . S
C630 N628 1.356 . S
C631 C625 1.363 . S
C631 C626 1.379 . S
C631 N629 1.356 . S
N632 C624 1.356 . S
N632 H638 0.984 . S
N632 H639 0.984 . S
N633 C626 1.356 . S
N633 H636 0.984 . S
N633 H637 0.985 . S
H634 N629 0.984 . S
H635 N629 0.985 . S
H636 N633 0.984 . S
H637 N633 0.985 . S
H638 N632 0.984 . S
H639 N632 0.984 . S
H640 N628 0.984 . S
H641 N628 0.985 . S
C642 C643 1.363 . S
C642 C648 1.379 1_455 S
C642 N650 1.356 . S
C643 C642 1.363 . S
C643 C649 1.363 1_455 S
C644 C645 1.363 . S
C644 C649 1.379 . S
C644 N651 1.356 . S
C645 C644 1.363 . S
C645 C648 1.363 . S
N646 C648 1.356 . S
N646 H658 0.984 . S
N646 H659 0.985 . S
N647 C649 1.356 . S
N647 H652 0.984 1_655 S
N647 H653 0.985 . S
C648 C642 1.379 1_655 S
C648 C645 1.363 . S
C648 N646 1.356 . S
C649 C643 1.363 1_655 S
C649 C644 1.379 . S
C649 N647 1.356 . S
N650 C642 1.356 . S
N650 H656 0.984 . S
N650 H657 0.984 . S
N651 C644 1.356 . S
N651 H654 0.984 . S
N651 H655 0.985 . S
H652 N647 0.984 1_455 S
H653 N647 0.985 . S
H654 N651 0.984 . S
H655 N651 0.985 . S
H656 N650 0.984 . S
H657 N650 0.984 . S
H658 N646 0.984 . S
H659 N646 0.985 . S
C660 C661 1.363 . S
C660 C666 1.379 1_545 S
C660 N668 1.356 . S
C661 C660 1.363 . S
C661 C667 1.363 1_545 S
C662 C663 1.363 . S
C662 C667 1.379 . S
C662 N669 1.356 . S
C663 C662 1.363 . S
C663 C666 1.363 . S
N664 C666 1.356 . S
N664 H676 0.984 . S
N664 H677 0.985 . S
N665 C667 1.356 1_545 S
N665 H670 0.984 . S
N665 H671 0.985 1_545 S
C666 C660 1.379 1_565 S
C666 C663 1.363 . S
C666 N664 1.356 . S
C667 C661 1.363 1_565 S
C667 C662 1.379 . S
C667 N665 1.356 1_565 S
N668 C660 1.356 . S
N668 H674 0.984 . S
N668 H675 0.984 . S
N669 C662 1.356 . S
N669 H672 0.984 . S
N669 H673 0.985 . S
H670 N665 0.984 . S
H671 N665 0.985 1_565 S
H672 N669 0.984 . S
H673 N669 0.985 . S
H674 N668 0.984 . S
H675 N668 0.984 . S
H676 N664 0.984 . S
H677 N664 0.985 . S
C678 C679 1.363 . S
C678 C684 1.379 . S
C678 N686 1.356 . S
C679 C678 1.363 . S
C679 C685 1.363 . S
C680 C681 1.363 . S
C680 C685 1.379 . S
C680 N687 1.356 . S
C681 C680 1.363 . S
C681 C684 1.363 . S
N682 C684 1.356 . S
N682 H694 0.984 . S
N682 H695 0.985 . S
N683 C685 1.356 . S
N683 H688 0.984 . S
N683 H689 0.985 . S
C684 C678 1.379 . S
C684 C681 1.363 . S
C684 N682 1.356 . S
C685 C679 1.363 . S
C685 C680 1.379 . S
C685 N683 1.356 . S
N686 C678 1.356 . S
N686 H692 0.984 . S
N686 H693 0.984 . S
N687 C680 1.356 . S
N687 H690 0.984 . S
N687 H691 0.985 . S
H688 N683 0.984 . S
H689 N683 0.985 . S
H690 N687 0.984 . S
H691 N687 0.985 . S
H692 N686 0.984 . S
H693 N686 0.984 . S
H694 N682 0.984 . S
H695 N682 0.985 . S
C696 C697 1.363 . S
C696 C702 1.379 . S
C696 N704 1.356 . S
C697 C696 1.363 . S
C697 C703 1.363 . S
C698 C699 1.363 . S
C698 C703 1.379 . S
C698 N705 1.356 . S
C699 C698 1.363 . S
C699 C702 1.363 . S
N700 C702 1.356 . S
N700 H712 0.984 . S
N700 H713 0.985 . S
N701 C703 1.356 . S
N701 H706 0.984 . S
N701 H707 0.985 . S
C702 C696 1.379 . S
C702 C699 1.363 . S
C702 N700 1.356 . S
C703 C697 1.363 . S
C703 C698 1.379 . S
C703 N701 1.356 . S
N704 C696 1.356 . S
N704 H710 0.984 . S
N704 H711 0.984 . S
N705 C698 1.356 . S
N705 H708 0.984 . S
N705 H709 0.985 . S
H706 N701 0.984 . S
H707 N701 0.985 . S
H708 N705 0.984 . S
H709 N705 0.985 . S
H710 N704 0.984 . S
H711 N704 0.984 . S
H712 N700 0.984 . S
H713 N700 0.985 . S
C714 C715 1.363 . S
C714 C720 1.379 . S
C714 N722 1.356 . S
C715 C714 1.363 . S
C715 C721 1.363 . S
C716 C717 1.363 . S
C716 C721 1.379 . S
C716 N723 1.356 . S
C717 C716 1.363 . S
C717 C720 1.363 . S
N718 C720 1.356 . S
N718 H730 0.984 . S
N718 H731 0.985 . S
N719 C721 1.356 . S
N719 H724 0.984 . S
N719 H725 0.985 . S
C720 C714 1.379 . S
C720 C717 1.363 . S
C720 N718 1.356 . S
C721 C715 1.363 . S
C721 C716 1.379 . S
C721 N719 1.356 . S
N722 C714 1.356 . S
N722 H728 0.984 . S
N722 H729 0.984 . S
N723 C716 1.356 . S
N723 H726 0.984 . S
N723 H727 0.985 . S
H724 N719 0.984 . S
H725 N719 0.985 . S
H726 N723 0.984 . S
H727 N723 0.985 . S
H728 N722 0.984 . S
H729 N722 0.984 . S
H730 N718 0.984 . S
H731 N718 0.985 . S
C732 C733 1.363 . S
C732 C738 1.379 . S
C732 N740 1.356 . S
C733 C732 1.363 . S
C733 C739 1.363 . S
C734 C735 1.363 . S
C734 C739 1.379 . S
C734 N741 1.356 . S
C735 C734 1.363 . S
C735 C738 1.363 . S
N736 C738 1.356 . S
N736 H748 0.984 . S
N736 H749 0.985 . S
N737 C739 1.356 . S
N737 H742 0.984 . S
N737 H743 0.985 . S
C738 C732 1.379 . S
C738 C735 1.363 . S
C738 N736 1.356 . S
C739 C733 1.363 . S
C739 C734 1.379 . S
C739 N737 1.356 . S
N740 C732 1.356 . S
N740 H746 0.984 . S
N740 H747 0.984 . S
N741 C734 1.356 . S
N741 H744 0.984 . S
N741 H745 0.985 . S
H742 N737 0.984 . S
H743 N737 0.985 . S
H744 N741 0.984 . S
H745 N741 0.985 . S
H746 N740 0.984 . S
H747 N740 0.984 . S
H748 N736 0.984 . S
H749 N736 0.985 . S
C750 C751 1.363 . S
C750 C756 1.379 . S
C750 N758 1.356 . S
C751 C750 1.363 . S
C751 C757 1.363 . S
C752 C753 1.363 . S
C752 C757 1.379 . S
C752 N759 1.356 . S
C753 C752 1.363 . S
C753 C756 1.363 . S
N754 C756 1.356 . S
N754 H766 0.984 . S
N754 H767 0.985 . S
N755 C757 1.356 . S
N755 H760 0.984 . S
N755 H761 0.985 . S
C756 C750 1.379 . S
C756 C753 1.363 . S
C756 N754 1.356 . S
C757 C751 1.363 . S
C757 C752 1.379 . S
C757 N755 1.356 . S
N758 C750 1.356 . S
N758 H764 0.984 . S
N758 H765 0.984 . S
N759 C752 1.356 . S
N759 H762 0.984 . S
N759 H763 0.985 . S
H760 N755 0.984 . S
H761 N755 0.985 . S
H762 N759 0.984 . S
H763 N759 0.985 . S
H764 N758 0.984 . S
H765 N758 0.984 . S
H766 N754 0.984 . S
H767 N754 0.985 . S
C768 C769 1.363 . S
C768 C774 1.379 . S
C768 N776 1.356 . S
C769 C768 1.363 . S
C769 C775 1.363 . S
C770 C771 1.363 . S
C770 C775 1.379 . S
C770 N777 1.356 . S
C771 C770 1.363 . S
C771 C774 1.363 . S
N772 C774 1.356 . S
N772 H784 0.984 . S
N772 H785 0.985 . S
N773 C775 1.356 . S
N773 H778 0.984 . S
N773 H779 0.985 . S
C774 C768 1.379 . S
C774 C771 1.363 . S
C774 N772 1.356 . S
C775 C769 1.363 . S
C775 C770 1.379 . S
C775 N773 1.356 . S
N776 C768 1.356 . S
N776 H782 0.984 . S
N776 H783 0.984 . S
N777 C770 1.356 . S
N777 H780 0.984 . S
N777 H781 0.985 . S
H778 N773 0.984 . S
H779 N773 0.985 . S
H780 N777 0.984 . S
H781 N777 0.985 . S
H782 N776 0.984 . S
H783 N776 0.984 . S
H784 N772 0.984 . S
H785 N772 0.985 . S
C786 C787 1.363 . S
C786 C792 1.379 . S
C786 N794 1.356 . S
C787 C786 1.363 . S
C787 C793 1.363 . S
C788 C789 1.363 . S
C788 C793 1.379 . S
C788 N795 1.356 . S
C789 C788 1.363 . S
C789 C792 1.363 . S
N790 C792 1.356 . S
N790 H802 0.984 . S
N790 H803 0.985 . S
N791 C793 1.356 . S
N791 H796 0.984 . S
N791 H797 0.985 . S
C792 C786 1.379 . S
C792 C789 1.363 . S
C792 N790 1.356 . S
C793 C787 1.363 . S
C793 C788 1.379 . S
C793 N791 1.356 . S
N794 C786 1.356 . S
N794 H800 0.984 . S
N794 H801 0.984 . S
N795 C788 1.356 . S
N795 H798 0.984 . S
N795 H799 0.985 . S
H796 N791 0.984 . S
H797 N791 0.985 . S
H798 N795 0.984 . S
H799 N795 0.985 . S
H800 N794 0.984 . S
H801 N794 0.984 . S
H802 N790 0.984 . S
H803 N790 0.985 . S
C804 C805 1.363 . S
C804 C810 1.379 . S
C804 N812 1.356 . S
C805 C804 1.363 . S
C805 C811 1.363 . S
C806 C807 1.363 . S
C806 C811 1.379 . S
C806 N813 1.356 . S
C807 C806 1.363 . S
C807 C810 1.363 . S
N808 C810 1.356 . S
N808 H820 0.984 . S
N808 H821 0.985 . S
N809 C811 1.356 . S
N809 H814 0.984 . S
N809 H815 0.985 . S
C810 C804 1.379 . S
C810 C807 1.363 . S
C810 N808 1.356 . S
C811 C805 1.363 . S
C811 C806 1.379 . S
C811 N809 1.356 . S
N812 C804 1.356 . S
N812 H818 0.984 . S
N812 H819 0.984 . S
N813 C806 1.356 . S
N813 H816 0.984 . S
N813 H817 0.985 . S
H814 N809 0.984 . S
H815 N809 0.985 . S
H816 N813 0.984 . S
H817 N813 0.985 . S
H818 N812 0.984 . S
H819 N812 0.984 . S
H820 N808 0.984 . S
H821 N808 0.985 . S
C822 C823 1.363 . S
C822 C828 1.379 . S
C822 N830 1.356 . S
C823 C822 1.363 . S
C823 C829 1.363 . S
C824 C825 1.363 . S
C824 C829 1.379 . S
C824 N831 1.356 . S
C825 C824 1.363 . S
C825 C828 1.363 . S
N826 C828 1.356 . S
N826 H838 0.984 . S
N826 H839 0.985 . S
N827 C829 1.356 . S
N827 H832 0.984 . S
N827 H833 0.985 . S
C828 C822 1.379 . S
C828 C825 1.363 . S
C828 N826 1.356 . S
C829 C823 1.363 . S
C829 C824 1.379 . S
C829 N827 1.356 . S
N830 C822 1.356 . S
N830 H836 0.984 . S
N830 H837 0.984 . S
N831 C824 1.356 . S
N831 H834 0.984 . S
N831 H835 0.985 . S
H832 N827 0.984 . S
H833 N827 0.985 . S
H834 N831 0.984 . S
H835 N831 0.985 . S
H836 N830 0.984 . S
H837 N830 0.984 . S
H838 N826 0.984 . S
H839 N826 0.985 . S
C840 C841 1.363 . S
C840 C846 1.379 . S
C840 N848 1.356 . S
C841 C840 1.363 . S
C841 C847 1.363 . S
C842 C843 1.363 . S
C842 C847 1.379 . S
C842 N849 1.356 . S
C843 C842 1.363 . S
C843 C846 1.363 . S
N844 C846 1.356 . S
N844 H856 0.984 . S
N844 H857 0.985 . S
N845 C847 1.356 . S
N845 H850 0.984 . S
N845 H851 0.985 . S
C846 C840 1.379 . S
C846 C843 1.363 . S
C846 N844 1.356 . S
C847 C841 1.363 . S
C847 C842 1.379 . S
C847 N845 1.356 . S
N848 C840 1.356 . S
N848 H854 0.984 . S
N848 H855 0.984 . S
N849 C842 1.356 . S
N849 H852 0.984 . S
N849 H853 0.985 . S
H850 N845 0.984 . S
H851 N845 0.985 . S
H852 N849 0.984 . S
H853 N849 0.985 . S
H854 N848 0.984 . S
H855 N848 0.984 . S
H856 N844 0.984 . S
H857 N844 0.985 . S
C858 C859 1.363 . S
C858 C864 1.379 . S
C858 N866 1.356 . S
C859 C858 1.363 . S
C859 C865 1.363 . S
C860 C861 1.363 . S
C860 C865 1.379 . S
C860 N867 1.356 . S
C861 C860 1.363 . S
C861 C864 1.363 . S
N862 C864 1.356 . S
N862 H874 0.984 . S
N862 H875 0.985 . S
N863 C865 1.356 . S
N863 H868 0.984 . S
N863 H869 0.985 . S
C864 C858 1.379 . S
C864 C861 1.363 . S
C864 N862 1.356 . S
C865 C859 1.363 . S
C865 C860 1.379 . S
C865 N863 1.356 . S
N866 C858 1.356 . S
N866 H872 0.984 . S
N866 H873 0.984 . S
N867 C860 1.356 . S
N867 H870 0.984 . S
N867 H871 0.985 . S
H868 N863 0.984 . S
H869 N863 0.985 . S
H870 N867 0.984 . S
H871 N867 0.985 . S
H872 N866 0.984 . S
H873 N866 0.984 . S
H874 N862 0.984 . S
H875 N862 0.985 . S
C876 C877 1.363 . S
C876 C882 1.379 . S
C876 N884 1.356 . S
C877 C876 1.363 . S
C877 C883 1.363 . S
C878 C879 1.363 . S
C878 C883 1.379 . S
C878 N885 1.356 . S
C879 C878 1.363 . S
C879 C882 1.363 . S
N880 C882 1.356 . S
N880 H892 0.984 . S
N880 H893 0.985 . S
N881 C883 1.356 . S
N881 H886 0.984 . S
N881 H887 0.985 . S
C882 C876 1.379 . S
C882 C879 1.363 . S
C882 N880 1.356 . S
C883 C877 1.363 . S
C883 C878 1.379 . S
C883 N881 1.356 . S
N884 C876 1.356 . S
N884 H890 0.984 . S
N884 H891 0.984 . S
N885 C878 1.356 . S
N885 H888 0.984 . S
N885 H889 0.985 . S
H886 N881 0.984 . S
H887 N881 0.985 . S
H888 N885 0.984 . S
H889 N885 0.985 . S
H890 N884 0.984 . S
H891 N884 0.984 . S
H892 N880 0.984 . S
H893 N880 0.985 . S
C894 C895 1.363 . S
C894 C900 1.379 . S
C894 N902 1.356 . S
C895 C894 1.363 . S
C895 C901 1.363 . S
C896 C897 1.363 . S
C896 C901 1.379 . S
C896 N903 1.356 . S
C897 C896 1.363 . S
C897 C900 1.363 . S
N898 C900 1.356 . S
N898 H910 0.984 . S
N898 H911 0.985 . S
N899 C901 1.356 . S
N899 H904 0.984 . S
N899 H905 0.985 . S
C900 C894 1.379 . S
C900 C897 1.363 . S
C900 N898 1.356 . S
C901 C895 1.363 . S
C901 C896 1.379 . S
C901 N899 1.356 . S
N902 C894 1.356 . S
N902 H908 0.984 . S
N902 H909 0.984 . S
N903 C896 1.356 . S
N903 H906 0.984 . S
N903 H907 0.985 . S
H904 N899 0.984 . S
H905 N899 0.985 . S
H906 N903 0.984 . S
H907 N903 0.985 . S
H908 N902 0.984 . S
H909 N902 0.984 . S
H910 N898 0.984 . S
H911 N898 0.985 . S
C912 C913 1.363 . S
C912 C918 1.379 . S
C912 N920 1.356 . S
C913 C912 1.363 . S
C913 C919 1.363 . S
C914 C915 1.363 . S
C914 C919 1.379 . S
C914 N921 1.356 . S
C915 C914 1.363 . S
C915 C918 1.363 . S
N916 C918 1.356 . S
N916 H928 0.984 . S
N916 H929 0.985 . S
N917 C919 1.356 . S
N917 H922 0.984 . S
N917 H923 0.985 . S
C918 C912 1.379 . S
C918 C915 1.363 . S
C918 N916 1.356 . S
C919 C913 1.363 . S
C919 C914 1.379 . S
C919 N917 1.356 . S
N920 C912 1.356 . S
N920 H926 0.984 . S
N920 H927 0.984 . S
N921 C914 1.356 . S
N921 H924 0.984 . S
N921 H925 0.985 . S
H922 N917 0.984 . S
H923 N917 0.985 . S
H924 N921 0.984 . S
H925 N921 0.985 . S
H926 N920 0.984 . S
H927 N920 0.984 . S
H928 N916 0.984 . S
H929 N916 0.985 . S
C930 C931 1.363 . S
C930 C936 1.379 . S
C930 N938 1.356 . S
C931 C930 1.363 . S
C931 C937 1.363 . S
C932 C933 1.363 . S
C932 C937 1.379 . S
C932 N939 1.356 . S
C933 C932 1.363 . S
C933 C936 1.363 . S
N934 C936 1.356 . S
N934 H946 0.984 . S
N934 H947 0.985 . S
N935 C937 1.356 . S
N935 H940 0.984 . S
N935 H941 0.985 . S
C936 C930 1.379 . S
C936 C933 1.363 . S
C936 N934 1.356 . S
C937 C931 1.363 . S
C937 C932 1.379 . S
C937 N935 1.356 . S
N938 C930 1.356 . S
N938 H944 0.984 . S
N938 H945 0.984 . S
N939 C932 1.356 . S
N939 H942 0.984 . S
N939 H943 0.985 . S
H940 N935 0.984 . S
H941 N935 0.985 . S
H942 N939 0.984 . S
H943 N939 0.985 . S
H944 N938 0.984 . S
H945 N938 0.984 . S
H946 N934 0.984 . S
H947 N934 0.985 . S
C948 C949 1.363 . S
C948 C954 1.379 . S
C948 N956 1.356 . S
C949 C948 1.363 . S
C949 C955 1.363 . S
C950 C951 1.363 . S
C950 C955 1.379 . S
C950 N957 1.356 . S
C951 C950 1.363 . S
C951 C954 1.363 . S
N952 C954 1.356 . S
N952 H964 0.984 . S
N952 H965 0.985 . S
N953 C955 1.356 . S
N953 H958 0.984 . S
N953 H959 0.985 . S
C954 C948 1.379 . S
C954 C951 1.363 . S
C954 N952 1.356 . S
C955 C949 1.363 . S
C955 C950 1.379 . S
C955 N953 1.356 . S
N956 C948 1.356 . S
N956 H962 0.984 . S
N956 H963 0.984 . S
N957 C950 1.356 . S
N957 H960 0.984 . S
N957 H961 0.985 . S
H958 N953 0.984 . S
H959 N953 0.985 . S
H960 N957 0.984 . S
H961 N957 0.985 . S
H962 N956 0.984 . S
H963 N956 0.984 . S
H964 N952 0.984 . S
H965 N952 0.985 . S
C966 C967 1.363 . S
C966 C972 1.379 . S
C966 N974 1.356 . S
C967 C966 1.363 . S
C967 C973 1.363 . S
C968 C969 1.363 . S
C968 C973 1.379 . S
C968 N975 1.356 . S
C969 C968 1.363 . S
C969 C972 1.363 . S
N970 C972 1.356 . S
N970 H982 0.984 . S
N970 H983 0.985 . S
N971 C973 1.356 . S
N971 H976 0.984 . S
N971 H977 0.985 . S
C972 C966 1.379 . S
C972 C969 1.363 . S
C972 N970 1.356 . S
C973 C967 1.363 . S
C973 C968 1.379 . S
C973 N971 1.356 . S
N974 C966 1.356 . S
N974 H980 0.984 . S
N974 H981 0.984 . S
N975 C968 1.356 . S
N975 H978 0.984 . S
N975 H979 0.985 . S
H976 N971 0.984 . S
H977 N971 0.985 . S
H978 N975 0.984 . S
H979 N975 0.985 . S
H980 N974 0.984 . S
H981 N974 0.984 . S
H982 N970 0.984 . S
H983 N970 0.985 . S
C984 C985 1.363 . S
C984 C990 1.379 . S
C984 N992 1.356 . S
C985 C984 1.363 . S
C985 C991 1.363 . S
C986 C987 1.363 . S
C986 C991 1.379 . S
C986 N993 1.356 . S
C987 C986 1.363 . S
C987 C990 1.363 . S
N988 C990 1.356 . S
N988 H1000 0.984 . S
N988 H1001 0.985 . S
N989 C991 1.356 . S
N989 H994 0.984 . S
N989 H995 0.985 . S
C990 C984 1.379 . S
C990 C987 1.363 . S
C990 N988 1.356 . S
C991 C985 1.363 . S
C991 C986 1.379 . S
C991 N989 1.356 . S
N992 C984 1.356 . S
N992 H998 0.984 . S
N992 H999 0.984 . S
N993 C986 1.356 . S
N993 H996 0.984 . S
N993 H997 0.985 . S
H994 N989 0.984 . S
H995 N989 0.985 . S
H996 N993 0.984 . S
H997 N993 0.985 . S
H998 N992 0.984 . S
H999 N992 0.984 . S
H1000 N988 0.984 . S
H1001 N988 0.985 . S
C1002 C1003 1.363 . S
C1002 C1008 1.379 . S
C1002 N1010 1.356 . S
C1003 C1002 1.363 . S
C1003 C1009 1.363 . S
C1004 C1005 1.363 . S
C1004 C1009 1.379 . S
C1004 N1011 1.356 . S
C1005 C1004 1.363 . S
C1005 C1008 1.363 . S
N1006 C1008 1.356 . S
N1006 H1018 0.984 . S
N1006 H1019 0.985 . S
N1007 C1009 1.356 . S
N1007 H1012 0.984 . S
N1007 H1013 0.985 . S
C1008 C1002 1.379 . S
C1008 C1005 1.363 . S
C1008 N1006 1.356 . S
C1009 C1003 1.363 . S
C1009 C1004 1.379 . S
C1009 N1007 1.356 . S
N1010 C1002 1.356 . S
N1010 H1016 0.984 . S
N1010 H1017 0.984 . S
N1011 C1004 1.356 . S
N1011 H1014 0.984 . S
N1011 H1015 0.985 . S
H1012 N1007 0.984 . S
H1013 N1007 0.985 . S
H1014 N1011 0.984 . S
H1015 N1011 0.985 . S
H1016 N1010 0.984 . S
H1017 N1010 0.984 . S
H1018 N1006 0.984 . S
H1019 N1006 0.985 . S
C1020 C1021 1.363 1_554 S
C1020 C1026 1.379 . S
C1020 N1028 1.356 . S
C1021 C1020 1.363 1_556 S
C1021 C1027 1.363 . S
C1022 C1023 1.363 1_556 S
C1022 C1027 1.379 . S
C1022 N1029 1.356 . S
C1023 C1022 1.363 1_554 S
C1023 C1026 1.363 . S
N1024 C1026 1.356 . S
N1024 H1036 0.984 . S
N1024 H1037 0.985 . S
N1025 C1027 1.356 . S
N1025 H1030 0.984 . S
N1025 H1031 0.985 . S
C1026 C1020 1.379 . S
C1026 C1023 1.363 . S
C1026 N1024 1.356 . S
C1027 C1021 1.363 . S
C1027 C1022 1.379 . S
C1027 N1025 1.356 . S
N1028 C1020 1.356 . S
N1028 H1034 0.984 . S
N1028 H1035 0.984 . S
N1029 C1022 1.356 . S
N1029 H1032 0.984 . S
N1029 H1033 0.985 . S
H1030 N1025 0.984 . S
H1031 N1025 0.985 . S
H1032 N1029 0.984 . S
H1033 N1029 0.985 . S
H1034 N1028 0.984 . S
H1035 N1028 0.984 . S
H1036 N1024 0.984 . S
H1037 N1024 0.985 . S
C1038 C1039 1.363 . S
C1038 C1044 1.379 1_455 S
C1038 N1046 1.356 . S
C1039 C1038 1.363 . S
C1039 C1045 1.363 . S
C1040 C1041 1.363 . S
C1040 C1045 1.379 1_655 S
C1040 N1047 1.356 . S
C1041 C1040 1.363 . S
C1041 C1044 1.363 . S
N1042 C1044 1.356 . S
N1042 H1054 0.984 . S
N1042 H1055 0.985 . S
N1043 C1045 1.356 . S
N1043 H1048 0.984 . S
N1043 H1049 0.985 . S
C1044 C1038 1.379 1_655 S
C1044 C1041 1.363 . S
C1044 N1042 1.356 . S
C1045 C1039 1.363 . S
C1045 C1040 1.379 1_455 S
C1045 N1043 1.356 . S
N1046 C1038 1.356 . S
N1046 H1052 0.984 . S
N1046 H1053 0.984 . S
N1047 C1040 1.356 . S
N1047 H1050 0.984 . S
N1047 H1051 0.985 . S
H1048 N1043 0.984 . S
H1049 N1043 0.985 . S
H1050 N1047 0.984 . S
H1051 N1047 0.985 . S
H1052 N1046 0.984 . S
H1053 N1046 0.984 . S
H1054 N1042 0.984 . S
H1055 N1042 0.985 . S
C1056 C1057 1.363 . S
C1056 C1062 1.379 1_565 S
C1056 N1064 1.356 . S
C1057 C1056 1.363 . S
C1057 C1063 1.363 1_554 S
C1058 C1059 1.363 . S
C1058 C1063 1.379 1_545 S
C1058 N1065 1.356 . S
C1059 C1058 1.363 . S
C1059 C1062 1.363 1_556 S
N1060 C1062 1.356 . S
N1060 H1072 0.984 . S
N1060 H1073 0.985 . S
N1061 C1063 1.356 . S
N1061 H1066 0.984 . S
N1061 H1067 0.985 . S
C1062 C1056 1.379 1_545 S
C1062 C1059 1.363 1_554 S
C1062 N1060 1.356 . S
C1063 C1057 1.363 1_556 S
C1063 C1058 1.379 1_565 S
C1063 N1061 1.356 . S
N1064 C1056 1.356 . S
N1064 H1070 0.984 . S
N1064 H1071 0.984 . S
N1065 C1058 1.356 . S
N1065 H1068 0.984 . S
N1065 H1069 0.985 . S
H1066 N1061 0.984 . S
H1067 N1061 0.985 . S
H1068 N1065 0.984 . S
H1069 N1065 0.985 . S
H1070 N1064 0.984 . S
H1071 N1064 0.984 . S
H1072 N1060 0.984 . S
H1073 N1060 0.985 . S
C1074 C1075 1.363 . S
C1074 C1080 1.379 . S
C1074 N1082 1.356 . S
C1075 C1074 1.363 . S
C1075 C1081 1.363 . S
C1076 C1077 1.363 . S
C1076 C1081 1.379 . S
C1076 N1083 1.356 . S
C1077 C1076 1.363 . S
C1077 C1080 1.363 . S
N1078 C1080 1.356 . S
N1078 H1090 0.984 . S
N1078 H1091 0.985 . S
N1079 C1081 1.356 . S
N1079 H1084 0.984 . S
N1079 H1085 0.985 . S
C1080 C1074 1.379 . S
C1080 C1077 1.363 . S
C1080 N1078 1.356 . S
C1081 C1075 1.363 . S
C1081 C1076 1.379 . S
C1081 N1079 1.356 . S
N1082 C1074 1.356 . S
N1082 H1088 0.984 . S
N1082 H1089 0.984 . S
N1083 C1076 1.356 . S
N1083 H1086 0.984 . S
N1083 H1087 0.985 . S
H1084 N1079 0.984 . S
H1085 N1079 0.985 . S
H1086 N1083 0.984 . S
H1087 N1083 0.985 . S
H1088 N1082 0.984 . S
H1089 N1082 0.984 . S
H1090 N1078 0.984 . S
H1091 N1078 0.985 . S
C1092 C1093 1.363 1_554 S
C1092 C1098 1.379 1_655 S
C1092 N1100 1.356 . S
C1093 C1092 1.363 1_556 S
C1093 C1099 1.363 . S
C1094 C1095 1.363 1_556 S
C1094 C1099 1.379 1_455 S
C1094 N1101 1.356 . S
C1095 C1094 1.363 1_554 S
C1095 C1098 1.363 . S
N1096 C1098 1.356 . S
N1096 H1108 0.984 . S
N1096 H1109 0.985 . S
N1097 C1099 1.356 . S
N1097 H1102 0.984 . S
N1097 H1103 0.985 . S
C1098 C1092 1.379 1_455 S
C1098 C1095 1.363 . S
C1098 N1096 1.356 . S
C1099 C1093 1.363 . S
C1099 C1094 1.379 1_655 S
C1099 N1097 1.356 . S
N1100 C1092 1.356 . S
N1100 H1106 0.984 . S
N1100 H1107 0.984 . S
N1101 C1094 1.356 . S
N1101 H1104 0.984 . S
N1101 H1105 0.985 . S
H1102 N1097 0.984 . S
H1103 N1097 0.985 . S
H1104 N1101 0.984 . S
H1105 N1101 0.985 . S
H1106 N1100 0.984 . S
H1107 N1100 0.984 . S
H1108 N1096 0.984 . S
H1109 N1096 0.985 . S
C1110 C1111 1.363 . S
C1110 C1116 1.379 1_565 S
C1110 N1118 1.356 . S
C1111 C1110 1.363 . S
C1111 C1117 1.363 . S
C1112 C1113 1.363 . S
C1112 C1117 1.379 1_545 S
C1112 N1119 1.356 . S
C1113 C1112 1.363 . S
C1113 C1116 1.363 . S
N1114 C1116 1.356 . S
N1114 H1126 0.984 . S
N1114 H1127 0.985 . S
N1115 C1117 1.356 . S
N1115 H1120 0.984 . S
N1115 H1121 0.985 . S
C1116 C1110 1.379 1_545 S
C1116 C1113 1.363 . S
C1116 N1114 1.356 . S
C1117 C1111 1.363 . S
C1117 C1112 1.379 1_565 S
C1117 N1115 1.356 . S
N1118 C1110 1.356 . S
N1118 H1124 0.984 . S
N1118 H1125 0.984 . S
N1119 C1112 1.356 . S
N1119 H1122 0.984 . S
N1119 H1123 0.985 . S
H1120 N1115 0.984 . S
H1121 N1115 0.985 . S
H1122 N1119 0.984 . S
H1123 N1119 0.985 . S
H1124 N1118 0.984 . S
H1125 N1118 0.984 . S
H1126 N1114 0.984 . S
H1127 N1114 0.985 . S
C481 C179 1.408 . S
C483 C15 1.474 . S
C499 C219 1.408 . S
C501 C55 1.474 . S
C517 C95 1.474 . S
C519 C19 1.408 . S
C535 C135 1.474 . S
C537 C59 1.408 . S
C553 C175 1.474 . S
C555 C99 1.408 . S
C571 C139 1.408 . S
C573 C215 1.474 . S
C589 C339 1.408 . S
C591 C255 1.474 . S
C607 C295 1.474 . S
C609 C379 1.408 . S
C625 C419 1.408 . S
C627 C335 1.474 . S
C643 C375 1.474 . S
C645 C459 1.408 . S
C661 C415 1.474 . S
C663 C259 1.408 . S
C679 C299 1.408 . S
C681 C455 1.474 . S
C697 C170 1.883 . S
C699 C6 1.859 . S
C715 C46 1.859 . S
C717 C210 1.883 . S
C733 C86 1.859 . S
C735 C10 1.883 . S
C751 C126 1.859 . S
C753 C50 1.883 . S
C769 C90 1.883 . S
C771 C166 1.859 . S
C787 C130 1.883 . S
C789 C206 1.859 . S
C805 C330 1.883 . S
C807 C246 1.859 . S
C823 C286 1.859 . S
C825 C370 1.883 . S
C841 C326 1.859 . S
C843 C410 1.883 . S
C859 C450 1.883 . S
C861 C366 1.859 . S
C877 C406 1.859 . S
C879 C250 1.883 . S
C895 C290 1.883 . S
C897 C446 1.859 . S
C913 C418 1.589 . S
C915 C18 1.589 . S
C931 C58 1.589 . S
C933 C458 1.589 . S
C949 C98 1.589 . S
C951 C258 1.589 . S
C967 C138 1.589 . S
C969 C298 1.589 . S
C985 C178 1.589 . S
C987 C338 1.589 . S
C1003 C378 1.589 . S
C1005 C218 1.589 . S
C1021 C369 2.463 . S
C1023 C9 2.463 . S
C1039 C409 2.463 . S
C1041 C49 2.463 . S
C1057 C89 2.463 . S
C1059 C449 2.463 . S
C1075 C129 2.463 . S
C1077 C249 2.463 . S
C1093 C289 2.463 . S
C1095 C169 2.463 . S
C1111 C329 2.463 . S
C1113 C209 2.463 . S
