# Generated by pormake.
# Topology uov, (4)-cn, num edge types: 1
# Building blocks:
#     Node 0, Type 0, BuildingBlock: ICAMEG_clean_sbu_1, # of connection points: 4
#     Node 1, Type 0, BuildingBlock: ICAMEG_clean_sbu_1, # of connection points: 4
#     Node 2, Type 0, BuildingBlock: ICAMEG_clean_sbu_1, # of connection points: 4
#     Node 3, Type 0, BuildingBlock: ICAMEG_clean_sbu_1, # of connection points: 4
#     Node 4, Type 0, BuildingBlock: ICAMEG_clean_sbu_1, # of connection points: 4
#     Node 5, Type 0, BuildingBlock: ICAMEG_clean_sbu_1, # of connection points: 4
#     Node 6, Type 0, BuildingBlock: ICAMEG_clean_sbu_1, # of connection points: 4
#     Node 7, Type 0, BuildingBlock: ICAMEG_clean_sbu_1, # of connection points: 4
#     Edge 8, Type (0, 0), BuildingBlock: MIFKUJ_clean_linker_0, # of connection points: 2
#     Edge 9, Type (0, 0), BuildingBlock: MIFKUJ_clean_linker_0, # of connection points: 2
#     Edge 10, Type (0, 0), BuildingBlock: MIFKUJ_clean_linker_0, # of connection points: 2
#     Edge 11, Type (0, 0), BuildingBlock: MIFKUJ_clean_linker_0, # of connection points: 2
#     Edge 12, Type (0, 0), BuildingBlock: MIFKUJ_clean_linker_0, # of connection points: 2
#     Edge 13, Type (0, 0), BuildingBlock: MIFKUJ_clean_linker_0, # of connection points: 2
#     Edge 14, Type (0, 0), BuildingBlock: MIFKUJ_clean_linker_0, # of connection points: 2
#     Edge 15, Type (0, 0), BuildingBlock: MIFKUJ_clean_linker_0, # of connection points: 2
#     Edge 16, Type (0, 0), BuildingBlock: MIFKUJ_clean_linker_0, # of connection points: 2
#     Edge 17, Type (0, 0), BuildingBlock: MIFKUJ_clean_linker_0, # of connection points: 2
#     Edge 18, Type (0, 0), BuildingBlock: MIFKUJ_clean_linker_0, # of connection points: 2
#     Edge 19, Type (0, 0), BuildingBlock: MIFKUJ_clean_linker_0, # of connection points: 2
#     Edge 20, Type (0, 0), BuildingBlock: MIFKUJ_clean_linker_0, # of connection points: 2
#     Edge 21, Type (0, 0), BuildingBlock: MIFKUJ_clean_linker_0, # of connection points: 2
#     Edge 22, Type (0, 0), BuildingBlock: MIFKUJ_clean_linker_0, # of connection points: 2
#     Edge 23, Type (0, 0), BuildingBlock: MIFKUJ_clean_linker_0, # of connection points: 2
# Relax obj value: 0.052
# Max RMSD: 0.043
# Mean RMSD: 0.043
data_MOF--net-uov--node1-ICAMEG_clean_sbu_1--edge1-MIFKUJ_clean_linker_0
_symmetry_space_group_name_H-M    P1
_symmetry_Int_Tables_number       1
_symmetry_cell_setting            triclinic
loop_
_symmetry_equiv_pos_as_xyz
'x, y, z'
_cell_length_a     40.743283
_cell_length_b     40.750948
_cell_length_c     60.380605
_cell_angle_alpha  89.994932
_cell_angle_beta   90.004153
_cell_angle_gamma 90.01012
loop_
_atom_site_label
_atom_site_type_symbol
_atom_site_fract_x
_atom_site_fract_y
_atom_site_fract_z
_atom_type_partial_charge
Co0 Co 0.06952 0.22235 0.60783 0.0
Co1 Co 0.10293 0.28359 0.57572 0.0
O2 O 0.08679 0.26668 0.60397 0.0
C3 C 0.12046 0.22772 0.64247 0.0
O4 O 0.13985 0.24 0.62721 0.0
C5 C 0.05393 0.33315 0.58911 0.0
O6 O 0.0333 0.30877 0.59205 0.0
O7 O 0.0617 0.27029 0.56041 0.0
O8 O 0.04783 0.22375 0.57818 0.0
H9 H 0.12531 0.28005 0.49391 0.0
H10 H 0.05795 0.27218 0.64271 0.0
O11 O 0.09113 0.21959 0.6376 0.0
H12 H 0.94785 0.2386 0.61745 0.0
H13 H 0.01777 0.13036 0.6512 0.0
H14 H 0.06325 0.16377 0.57895 0.0
H15 H 0.99746 0.21345 0.60134 0.0
H16 H 0.03965 0.18625 0.64578 0.0
O17 O 0.08319 0.32743 0.58275 0.0
H18 H 0.10544 0.25845 0.52964 0.0
H19 H 0.13389 0.34661 0.56188 0.0
H20 H 0.0414 0.10783 0.58362 0.0
H21 H 0.00898 0.29776 0.65942 0.0
H22 H 0.01837 0.09077 0.6199 0.0
H23 H 0.95344 0.28104 0.64674 0.0
O24 O 0.10915 0.203 0.59393 0.0
H25 H 0.16905 0.33515 0.63674 0.0
H26 H 0.17419 0.2744 0.56619 0.0
H27 H 0.22555 0.28918 0.58538 0.0
H28 H 0.22317 0.31981 0.6209 0.0
H29 H 0.11827 0.31962 0.61711 0.0
H30 H 0.1538 0.3693 0.52646 0.0
H31 H 0.1497 0.33586 0.49217 0.0
O32 O 0.12287 0.24008 0.56801 0.0
C33 C 0.04492 0.24405 0.56225 0.0
C34 C 0.12734 0.29481 0.50875 0.0
C35 C 0.14329 0.34492 0.52702 0.0
N36 N 0.11879 0.30112 0.54785 0.0
C37 C 0.11622 0.28267 0.52904 0.0
C38 C 0.13192 0.33197 0.54701 0.0
C39 C 0.14099 0.32614 0.50779 0.0
C40 C 0.03386 0.26455 0.63728 0.0
N41 N 0.03056 0.24123 0.62118 0.0
C42 C 0.00622 0.27921 0.64673 0.0
C43 C 0.97507 0.26986 0.63958 0.0
C44 C 0.97192 0.24606 0.62314 0.0
C45 C 1.0001 0.23195 0.61404 0.0
C46 C 0.02766 0.13751 0.63528 0.0
C47 C 0.05315 0.15663 0.59479 0.0
C48 C 0.04016 0.16909 0.63213 0.0
N49 N 0.05248 0.17835 0.61203 0.0
C50 C 0.04089 0.12486 0.59734 0.0
C51 C 0.028 0.11531 0.61772 0.0
C52 C 0.12523 0.21165 0.57679 0.0
C53 C 0.17041 0.32189 0.62124 0.0
C54 C 0.17295 0.28764 0.58168 0.0
C55 C 0.20212 0.29601 0.59244 0.0
C56 C 0.20076 0.31323 0.61236 0.0
N57 N 0.14327 0.29625 0.59049 0.0
C58 C 0.14174 0.31316 0.61 0.0
Co59 Co 0.22147 0.93232 0.38908 0.0
Co60 Co 0.28051 0.89717 0.42289 0.0
O61 O 0.2646 0.91267 0.39415 0.0
C62 C 0.22436 0.87626 0.35753 0.0
O63 O 0.23988 0.859 0.37259 0.0
C64 C 0.32941 0.94736 0.41025 0.0
O65 O 0.30461 0.96682 0.40577 0.0
O66 O 0.26535 0.93787 0.4381 0.0
O67 O 0.22599 0.95949 0.41641 0.0
H68 H 0.27315 0.87426 0.50452 0.0
H69 H 0.27176 0.93287 0.35364 0.0
O70 O 0.21568 0.90571 0.36148 0.0
H71 H 0.24564 0.04922 0.36746 0.0
H72 H 0.13184 0.98133 0.34213 0.0
H73 H 0.16464 0.94877 0.41763 0.0
H74 H 0.21731 0.00542 0.38819 0.0
H75 H 0.1864 0.95721 0.34906 0.0
O76 O 0.3242 0.9182 0.41704 0.0
H77 H 0.25292 0.89358 0.4683 0.0
H78 H 0.34362 0.868 0.43825 0.0
H79 H 0.10993 0.97307 0.41147 0.0
H80 H 0.30043 0.97583 0.33232 0.0
H81 H 0.09323 0.98952 0.37349 0.0
H82 H 0.2875 0.0345 0.33925 0.0
O83 O 0.19921 0.89707 0.4064 0.0
H84 H 0.33763 0.83272 0.36333 0.0
H85 H 0.27254 0.82569 0.43203 0.0
H86 H 0.28993 0.77482 0.41327 0.0
H87 H 0.32276 0.77815 0.37868 0.0
H88 H 0.31945 0.88298 0.38251 0.0
H89 H 0.36495 0.84863 0.47419 0.0
H90 H 0.32956 0.85158 0.50763 0.0
O91 O 0.23731 0.87623 0.42937 0.0
C92 C 0.24346 0.9594 0.43394 0.0
C93 C 0.28877 0.87274 0.49006 0.0
C94 C 0.3403 0.8584 0.47304 0.0
N95 N 0.29696 0.88166 0.45115 0.0
C96 C 0.27741 0.88356 0.46949 0.0
C97 C 0.32812 0.86946 0.45274 0.0
C98 C 0.32043 0.86005 0.49179 0.0
C99 C 0.26584 0.95833 0.35663 0.0
N100 N 0.24291 0.96664 0.37215 0.0
C101 C 0.28222 0.98256 0.34456 0.0
C102 C 0.27498 0.01547 0.34847 0.0
C103 C 0.25153 0.02375 0.36431 0.0
C104 C 0.23566 0.99886 0.37607 0.0
C105 C 0.13885 0.97432 0.35876 0.0
C106 C 0.15762 0.95608 0.40108 0.0
C107 C 0.16969 0.96059 0.36278 0.0
N108 N 0.17877 0.95183 0.38376 0.0
C109 C 0.12658 0.96973 0.39768 0.0
C110 C 0.11721 0.97892 0.37637 0.0
C111 C 0.208 0.87789 0.42202 0.0
C112 C 0.32342 0.83095 0.37843 0.0
C113 C 0.28673 0.82734 0.41695 0.0
C114 C 0.29658 0.79845 0.40643 0.0
C115 C 0.31502 0.80034 0.38703 0.0
N116 N 0.2951 0.85727 0.40841 0.0
C117 C 0.31319 0.85932 0.38941 0.0
Co118 Co 0.93923 0.77827 0.61202 0.0
Co119 Co 0.89954 0.72017 0.57984 0.0
O120 O 0.91698 0.73623 0.608 0.0
C121 C 0.88335 0.78046 0.6434 0.0
O122 O 0.86504 0.76754 0.62778 0.0
C123 C 0.94716 0.66925 0.59305 0.0
O124 O 0.96788 0.69325 0.59691 0.0
O125 O 0.94051 0.73237 0.56372 0.0
O126 O 0.96525 0.77111 0.58442 0.0
H127 H 0.8739 0.72566 0.49851 0.0
H128 H 0.93802 0.72951 0.64844 0.0
O129 O 0.91362 0.78632 0.63985 0.0
H130 H 0.05522 0.74823 0.63244 0.0
H131 H 0.99465 0.86678 0.65662 0.0
H132 H 0.95832 0.83275 0.58217 0.0
H133 H 0.01244 0.77816 0.61177 0.0
H134 H 0.96705 0.81352 0.65106 0.0
O135 O 0.91824 0.6756 0.58625 0.0
H136 H 0.89565 0.7462 0.53402 0.0
H137 H 0.8664 0.65821 0.56614 0.0
H138 H 0.98612 0.88605 0.58694 0.0
H139 H 0.97997 0.69932 0.66971 0.0
H140 H 0.00448 0.90338 0.6244 0.0
H141 H 0.03906 0.70851 0.66169 0.0
O142 O 0.90487 0.80188 0.59474 0.0
H143 H 0.83403 0.67019 0.64177 0.0
H144 H 0.82833 0.73174 0.57154 0.0
H145 H 0.77723 0.71856 0.59155 0.0
H146 H 0.77989 0.68755 0.62692 0.0
H147 H 0.88456 0.68412 0.62131 0.0
H148 H 0.84456 0.63658 0.53094 0.0
H149 H 0.84813 0.67046 0.49682 0.0
O150 O 0.88089 0.76424 0.57286 0.0
C151 C 0.96346 0.75305 0.5672 0.0
C152 C 0.87211 0.7107 0.51327 0.0
C153 C 0.85568 0.66069 0.53147 0.0
N154 N 0.88208 0.70353 0.55215 0.0
C155 C 0.88431 0.72224 0.53344 0.0
C156 C 0.86815 0.67303 0.55134 0.0
C157 C 0.85768 0.67972 0.51233 0.0
C158 C 0.96369 0.73382 0.64497 0.0
N159 N 0.97279 0.75557 0.62888 0.0
C160 C 0.98733 0.71658 0.65702 0.0
C161 C 0.02047 0.72172 0.6525 0.0
C162 C 0.02956 0.74398 0.63607 0.0
C163 C 0.00524 0.76076 0.62436 0.0
C164 C 0.98682 0.85948 0.64022 0.0
C165 C 0.96644 0.84003 0.5985 0.0
C166 C 0.9711 0.82939 0.63698 0.0
N167 N 0.96131 0.81995 0.61629 0.0
C168 C 0.98207 0.87028 0.60111 0.0
C169 C 0.99233 0.88 0.62213 0.0
C170 C 0.88461 0.79367 0.57961 0.0
C171 C 0.83255 0.68362 0.62633 0.0
C172 C 0.8297 0.71828 0.58694 0.0
C173 C 0.80067 0.71083 0.59817 0.0
C174 C 0.80218 0.69341 0.61801 0.0
N175 N 0.85938 0.70856 0.5952 0.0
C176 C 0.86106 0.69145 0.61463 0.0
Co177 Co 0.77282 0.05789 0.39217 0.0
Co178 Co 0.71843 0.10167 0.42484 0.0
O179 O 0.73232 0.08249 0.39671 0.0
C180 C 0.77732 0.11351 0.36076 0.0
O181 O 0.76621 0.13245 0.37666 0.0
C182 C 0.66568 0.05485 0.41372 0.0
O183 O 0.68901 0.03345 0.40974 0.0
O184 O 0.73053 0.06121 0.44167 0.0
O185 O 0.76509 0.03261 0.4199 0.0
H186 H 0.72953 0.13169 0.50523 0.0
H187 H 0.72313 0.0617 0.35639 0.0
O188 O 0.78144 0.08292 0.36417 0.0
H189 H 0.73515 0.94377 0.37283 0.0
H190 H 0.85665 0.99748 0.34643 0.0
H191 H 0.82695 0.03551 0.42133 0.0
H192 H 0.76829 0.98487 0.39283 0.0
H193 H 0.80522 0.02807 0.3527 0.0
O194 O 0.67301 0.08384 0.41995 0.0
H195 H 0.74749 0.10773 0.46974 0.0
H196 H 0.65797 0.13667 0.43943 0.0
H197 H 0.8784 0.00474 0.41585 0.0
H198 H 0.6897 0.02144 0.33584 0.0
H199 H 0.89357 0.98552 0.37816 0.0
H200 H 0.69554 0.962 0.34407 0.0
O201 O 0.7989 0.09071 0.40919 0.0
H202 H 0.66685 0.16537 0.36265 0.0
H203 H 0.73204 0.1729 0.43127 0.0
H204 H 0.71907 0.22333 0.41044 0.0
H205 H 0.68622 0.21974 0.37587 0.0
H206 H 0.68062 0.11553 0.3839 0.0
H207 H 0.63891 0.16069 0.47466 0.0
H208 H 0.67487 0.1584 0.50785 0.0
O209 O 0.76343 0.11937 0.4302 0.0
C210 C 0.74905 0.0366 0.43783 0.0
C211 C 0.71368 0.13292 0.49087 0.0
C212 C 0.6628 0.14916 0.47372 0.0
N213 N 0.70387 0.12094 0.45251 0.0
C214 C 0.72375 0.11946 0.47071 0.0
C215 C 0.67369 0.13544 0.45384 0.0
C216 C 0.68299 0.14787 0.49233 0.0
C217 C 0.726 0.03586 0.35993 0.0
N218 N 0.7477 0.02563 0.37573 0.0
C219 C 0.70692 0.01319 0.3483 0.0
C220 C 0.71018 0.97984 0.35295 0.0
C221 C 0.73239 0.9696 0.36909 0.0
C222 C 0.75102 0.99298 0.3804 0.0
C223 C 0.85029 0.00569 0.36293 0.0
C224 C 0.83326 0.02705 0.40491 0.0
C225 C 0.82126 0.0231 0.36657 0.0
N226 N 0.81301 0.0334 0.38738 0.0
C227 C 0.86248 0.00972 0.40189 0.0
C228 C 0.87099 0.99897 0.38075 0.0
C229 C 0.79244 0.11271 0.4236 0.0
C230 C 0.6811 0.16726 0.37772 0.0
C231 C 0.71779 0.17114 0.41622 0.0
C232 C 0.71047 0.19978 0.40452 0.0
C233 C 0.69202 0.19775 0.38513 0.0
N234 N 0.70698 0.14133 0.40885 0.0
C235 C 0.68886 0.13914 0.38987 0.0
Co236 Co 0.93574 0.22067 0.11319 0.0
Co237 Co 0.89969 0.28142 0.08124 0.0
O238 O 0.9162 0.26411 0.10935 0.0
C239 C 0.88077 0.22216 0.1456 0.0
O240 O 0.86311 0.23842 0.13111 0.0
C241 C 0.95058 0.32996 0.0938 0.0
O242 O 0.97086 0.30534 0.09688 0.0
O243 O 0.93975 0.26659 0.06491 0.0
O244 O 0.96191 0.22639 0.08561 0.0
H245 H 0.87336 0.27786 0.99996 0.0
H246 H 0.93782 0.26948 0.14952 0.0
O247 O 0.91008 0.21364 0.14106 0.0
H248 H 0.05352 0.24305 0.13354 0.0
H249 H 0.98577 0.12843 0.15727 0.0
H250 H 0.95102 0.16529 0.08309 0.0
H251 H 0.00883 0.21584 0.11299 0.0
H252 H 0.96175 0.18343 0.15198 0.0
O253 O 0.92114 0.32465 0.08767 0.0
H254 H 0.89346 0.25568 0.03546 0.0
H255 H 0.87104 0.34564 0.0676 0.0
H256 H 0.97519 0.1102 0.0876 0.0
H257 H 0.98169 0.29705 0.17066 0.0
H258 H 0.99274 0.09144 0.12491 0.0
H259 H 0.04004 0.28396 0.16265 0.0
O260 O 0.89984 0.19944 0.09589 0.0
H261 H 0.83819 0.33584 0.14332 0.0
H262 H 0.82777 0.27509 0.07305 0.0
H263 H 0.77783 0.29199 0.09311 0.0
H264 H 0.78287 0.32263 0.12851 0.0
H265 H 0.88749 0.31819 0.12283 0.0
H266 H 0.85104 0.36893 0.03239 0.0
H267 H 0.85201 0.3349 0.99826 0.0
O268 O 0.87799 0.23876 0.07433 0.0
C269 C 0.96132 0.24445 0.06837 0.0
C270 C 0.87272 0.2929 0.01473 0.0
C271 C 0.86023 0.34402 0.03292 0.0
N272 N 0.88323 0.29926 0.05361 0.0
C273 C 0.88397 0.28043 0.03489 0.0
C274 C 0.87166 0.33073 0.0528 0.0
C275 C 0.86077 0.32492 0.01378 0.0
C276 C 0.96314 0.2635 0.14605 0.0
N277 N 0.97077 0.2411 0.13002 0.0
C278 C 0.98788 0.27926 0.15802 0.0
C279 C 0.02061 0.27193 0.1535 0.0
C280 C 0.02819 0.249 0.13716 0.0
C281 C 0.0028 0.23377 0.12551 0.0
C282 C 0.97828 0.13634 0.14092 0.0
C283 C 0.95881 0.15738 0.09935 0.0
C284 C 0.96459 0.16743 0.13783 0.0
N285 N 0.95521 0.17764 0.11722 0.0
C286 C 0.97239 0.12613 0.10181 0.0
C287 C 0.98219 0.11561 0.12276 0.0
C288 C 0.87986 0.2091 0.08096 0.0
C289 C 0.83568 0.32257 0.12789 0.0
C290 C 0.83017 0.28829 0.08848 0.0
C291 C 0.8018 0.29788 0.09974 0.0
C292 C 0.80465 0.3151 0.11959 0.0
N293 N 0.86051 0.2957 0.09674 0.0
C294 C 0.8635 0.31263 0.11617 0.0
Co295 Co 0.22228 0.07016 0.88927 0.0
Co296 Co 0.28097 0.10517 0.92349 0.0
O297 O 0.26533 0.09001 0.89454 0.0
C298 C 0.22411 0.12664 0.85822 0.0
O299 O 0.23857 0.14396 0.87374 0.0
C300 C 0.33077 0.05693 0.9089 0.0
O301 O 0.30652 0.03851 0.90181 0.0
O302 O 0.26613 0.06408 0.93835 0.0
O303 O 0.22649 0.04307 0.91667 0.0
H304 H 0.27251 0.12655 0.00526 0.0
H305 H 0.27244 0.0697 0.85378 0.0
O306 O 0.21662 0.09673 0.86164 0.0
H307 H 0.2474 0.95324 0.86819 0.0
H308 H 0.13306 0.02055 0.84222 0.0
H309 H 0.1652 0.05399 0.91767 0.0
H310 H 0.21864 0.99699 0.88869 0.0
H311 H 0.18757 0.04478 0.84924 0.0
O312 O 0.32493 0.08459 0.91791 0.0
H313 H 0.25285 0.10773 0.96877 0.0
H314 H 0.34363 0.13475 0.9394 0.0
H315 H 0.11056 0.02965 0.91143 0.0
H316 H 0.30155 0.02677 0.83271 0.0
H317 H 0.09418 0.01274 0.87347 0.0
H318 H 0.28918 0.96806 0.83995 0.0
O319 O 0.19986 0.10538 0.90641 0.0
H320 H 0.33779 0.17086 0.86443 0.0
H321 H 0.27258 0.17647 0.93314 0.0
H322 H 0.28973 0.22773 0.91473 0.0
H323 H 0.32262 0.2251 0.88014 0.0
H324 H 0.31988 0.12021 0.88327 0.0
H325 H 0.36439 0.15362 0.9756 0.0
H326 H 0.32867 0.14969 0.00884 0.0
O327 O 0.23755 0.12574 0.92988 0.0
C328 C 0.244 0.04282 0.93418 0.0
C329 C 0.28827 0.1285 0.99089 0.0
C330 C 0.33985 0.14365 0.97425 0.0
N331 N 0.29696 0.1204 0.95195 0.0
C332 C 0.27723 0.11797 0.97017 0.0
C333 C 0.32798 0.13287 0.9538 0.0
C334 C 0.31979 0.14145 0.99289 0.0
C335 C 0.26672 0.04421 0.85687 0.0
N336 N 0.2439 0.03584 0.87246 0.0
C337 C 0.28337 0.02001 0.84495 0.0
C338 C 0.27645 0.98707 0.84905 0.0
C339 C 0.25304 0.97874 0.86491 0.0
C340 C 0.23693 0.0036 0.87653 0.0
C341 C 0.13994 0.02775 0.85884 0.0
C342 C 0.15834 0.04649 0.90113 0.0
C343 C 0.17075 0.04153 0.86291 0.0
N344 N 0.17965 0.05053 0.88387 0.0
C345 C 0.12732 0.03281 0.89769 0.0
C346 C 0.11814 0.02336 0.87638 0.0
C347 C 0.20841 0.12436 0.9222 0.0
C348 C 0.32355 0.17232 0.87953 0.0
C349 C 0.28682 0.17513 0.91805 0.0
C350 C 0.29651 0.20423 0.90773 0.0
C351 C 0.31499 0.20275 0.88833 0.0
N352 N 0.29537 0.14539 0.90933 0.0
C353 C 0.31347 0.14373 0.89032 0.0
Co354 Co 0.0683 0.77623 0.10929 0.0
Co355 Co 0.10348 0.71727 0.07553 0.0
O356 O 0.08862 0.73342 0.1044 0.0
C357 C 0.12493 0.77641 0.14028 0.0
O358 O 0.14305 0.76393 0.1244 0.0
C359 C 0.05629 0.66665 0.09012 0.0
O360 O 0.03591 0.69074 0.0945 0.0
O361 O 0.06134 0.73004 0.06104 0.0
O362 O 0.04115 0.77103 0.08199 0.0
H363 H 0.12163 0.72228 0.99328 0.0
H364 H 0.06817 0.7257 0.14455 0.0
O365 O 0.09465 0.7824 0.13696 0.0
H366 H 0.95161 0.75158 0.13122 0.0
H367 H 0.01836 0.86644 0.15534 0.0
H368 H 0.05221 0.83261 0.08034 0.0
H369 H 0.99521 0.78041 0.1106 0.0
H370 H 0.04228 0.81163 0.14892 0.0
O371 O 0.08484 0.6729 0.08259 0.0
H372 H 0.10322 0.74304 0.02958 0.0
H373 H 0.13501 0.6551 0.06061 0.0
H374 H 0.02878 0.88773 0.08606 0.0
H375 H 0.02543 0.69649 0.16576 0.0
H376 H 0.0114 0.90488 0.12374 0.0
H377 H 0.96665 0.70928 0.15906 0.0
O378 O 0.10337 0.79864 0.09198 0.0
H379 H 0.17334 0.66619 0.13482 0.0
H380 H 0.17406 0.72794 0.06457 0.0
H381 H 0.22657 0.71392 0.08258 0.0
H382 H 0.22641 0.6828 0.11795 0.0
H383 H 0.1214 0.68094 0.11634 0.0
H384 H 0.15355 0.63325 0.02462 0.0
H385 H 0.14701 0.66699 0.99064 0.0
O386 O 0.12215 0.76114 0.06779 0.0
C387 C 0.04016 0.75232 0.06506 0.0
C388 C 0.12473 0.70739 0.00797 0.0
C389 C 0.1426 0.65741 0.02556 0.0
N390 N 0.11833 0.70045 0.04721 0.0
C391 C 0.11445 0.71906 0.02858 0.0
C392 C 0.13201 0.66989 0.04589 0.0
C393 C 0.13894 0.67636 0.0065 0.0
C394 C 0.04265 0.73152 0.14164 0.0
N395 N 0.03416 0.7546 0.12627 0.0
C396 C 0.01856 0.71485 0.15366 0.0
C397 C 0.98559 0.72201 0.14988 0.0
C398 C 0.97712 0.74571 0.13424 0.0
C399 C 0.00189 0.76183 0.12252 0.0
C400 C 0.02567 0.85919 0.13882 0.0
C401 C 0.04463 0.83985 0.09678 0.0
C402 C 0.03925 0.82821 0.13509 0.0
N403 N 0.04837 0.81884 0.11425 0.0
C404 C 0.03137 0.8711 0.09991 0.0
C405 C 0.02175 0.88074 0.12108 0.0
C406 C 0.12116 0.79024 0.07555 0.0
C407 C 0.17373 0.67967 0.11938 0.0
C408 C 0.17379 0.71445 0.07998 0.0
C409 C 0.2036 0.70653 0.09008 0.0
C410 C 0.20349 0.68904 0.10992 0.0
N411 N 0.14471 0.70513 0.08935 0.0
C412 C 0.1444 0.68798 0.10879 0.0
Co413 Co 0.77788 0.93354 0.89202 0.0
Co414 Co 0.71647 0.90224 0.92511 0.0
O415 O 0.73354 0.91615 0.89626 0.0
C416 C 0.7737 0.8803 0.85864 0.0
O417 O 0.75972 0.86182 0.87375 0.0
C418 C 0.6666 0.94915 0.90884 0.0
O419 O 0.6909 0.96839 0.9029 0.0
O420 O 0.72951 0.94465 0.93892 0.0
O421 O 0.7757 0.9578 0.92074 0.0
H422 H 0.71998 0.88686 0.00765 0.0
H423 H 0.7289 0.94185 0.85617 0.0
O424 O 0.7817 0.90977 0.86312 0.0
H425 H 0.76063 0.05412 0.87793 0.0
H426 H 0.87019 0.9824 0.84743 0.0
H427 H 0.83616 0.94192 0.9209 0.0
H428 H 0.78591 0.00613 0.89601 0.0
H429 H 0.81417 0.96118 0.85337 0.0
O430 O 0.67249 0.9214 0.9177 0.0
H431 H 0.74153 0.90377 0.97122 0.0
H432 H 0.65365 0.87193 0.94007 0.0
H433 H 0.89232 0.96317 0.91573 0.0
H434 H 0.70327 0.98918 0.83744 0.0
H435 H 0.90966 0.98361 0.87878 0.0
H436 H 0.71903 0.04579 0.84837 0.0
O437 O 0.79736 0.8951 0.90742 0.0
H438 H 0.66468 0.8316 0.86656 0.0
H439 H 0.72579 0.83179 0.93708 0.0
H440 H 0.71092 0.77905 0.91972 0.0
H441 H 0.68009 0.77875 0.88422 0.0
H442 H 0.68035 0.88379 0.88438 0.0
H443 H 0.63102 0.85493 0.97619 0.0
H444 H 0.66434 0.86224 0.01029 0.0
O445 O 0.75995 0.88289 0.93347 0.0
C446 C 0.75539 0.9619 0.93656 0.0
C447 C 0.70528 0.88343 0.9929 0.0
C448 C 0.65534 0.86554 0.97524 0.0
N449 N 0.69901 0.88852 0.95352 0.0
C450 C 0.7174 0.89286 0.97222 0.0
C451 C 0.66826 0.87526 0.95485 0.0
C452 C 0.67404 0.86965 0.99437 0.0
C453 C 0.73614 0.96641 0.86082 0.0
N454 N 0.75895 0.97121 0.87709 0.0
C455 C 0.72144 0.99311 0.85024 0.0
C456 C 0.73025 0.02488 0.85641 0.0
C457 C 0.75358 0.02957 0.873 0.0
C458 C 0.76774 0.00229 0.88323 0.0
C459 C 0.86291 0.97364 0.86362 0.0
C460 C 0.84345 0.95096 0.9048 0.0
C461 C 0.83124 0.96155 0.86708 0.0
N462 N 0.82182 0.95059 0.88751 0.0
C463 C 0.87532 0.96288 0.90196 0.0
C464 C 0.88504 0.97432 0.88122 0.0
C465 C 0.78844 0.87993 0.92489 0.0
C466 C 0.67803 0.83141 0.88206 0.0
C467 C 0.71248 0.83186 0.92159 0.0
C468 C 0.70405 0.80192 0.91187 0.0
C469 C 0.68673 0.80177 0.89196 0.0
N470 N 0.70383 0.86083 0.91178 0.0
C471 C 0.68684 0.86088 0.89227 0.0
H472 H 0.0095 0.64623 0.59941 0.0
H473 H 0.02736 0.58896 0.60117 0.0
H474 H 0.92702 0.55687 0.5943 0.0
H475 H 0.9089 0.61408 0.59234 0.0
H476 H 0.96363 0.52174 0.62699 0.0
H477 H 0.97213 0.55519 0.55058 0.0
H478 H 0.99027 0.59115 0.5201 0.0
H479 H 0.09097 0.57281 0.53705 0.0
H480 H 0.0734 0.53711 0.56787 0.0
H481 H 0.99135 0.35569 0.59565 0.0
H482 H 0.97334 0.41273 0.5987 0.0
H483 H 0.07382 0.44527 0.59323 0.0
H484 H 0.09187 0.38842 0.5895 0.0
H485 H 0.03718 0.48084 0.5676 0.0
H486 H 0.03033 0.44673 0.64322 0.0
H487 H 0.01354 0.41156 0.67447 0.0
H488 H 0.91219 0.43169 0.66048 0.0
H489 H 0.92836 0.46662 0.62893 0.0
C490 C 0.99118 0.62702 0.59843 0.0
C491 C 0.9578 0.63471 0.59557 0.0
C492 C 0.00144 0.59432 0.59941 0.0
C493 C 0.97852 0.56873 0.5977 0.0
C494 C 0.94508 0.57629 0.59564 0.0
C495 C 0.93481 0.60899 0.59442 0.0
C496 C 0.98961 0.53409 0.5971 0.0
C497 C 0.97943 0.51261 0.61391 0.0
C498 C 0.01083 0.52251 0.5803 0.0
C499 C 0.02144 0.54376 0.56167 0.0
C500 C 0.99814 0.55904 0.54793 0.0
C501 C 0.00832 0.57934 0.53057 0.0
C502 C 0.04175 0.58434 0.52668 0.0
C503 C 0.06508 0.56896 0.54011 0.0
C504 C 0.05502 0.54868 0.55751 0.0
C505 C 0.00963 0.37498 0.59524 0.0
C506 C 0.04303 0.3675 0.59229 0.0
C507 C 0.99932 0.40761 0.5971 0.0
C508 C 0.02224 0.43337 0.59642 0.0
C509 C 0.05565 0.42587 0.59376 0.0
C510 C 0.06594 0.39331 0.59169 0.0
C511 C 0.01139 0.4682 0.5976 0.0
C512 C 0.02152 0.48981 0.58081 0.0
C513 C 0.99038 0.47991 0.61455 0.0
C514 C 0.98056 0.45904 0.63358 0.0
C515 C 0.00445 0.44346 0.6467 0.0
C516 C 0.99504 0.4236 0.66448 0.0
C517 C 0.96181 0.41933 0.66942 0.0
C518 C 0.93792 0.43499 0.65661 0.0
C519 C 0.94719 0.45484 0.63879 0.0
H520 H 0.95458 0.40394 0.68319 0.0
H521 H 0.04959 0.60006 0.51323 0.0
H522 H 0.61166 0.09472 0.41293 0.0
H523 H 0.55412 0.07832 0.40999 0.0
H524 H 0.5833 0.97659 0.40718 0.0
H525 H 0.6409 0.99292 0.40925 0.0
H526 H 0.53624 0.9861 0.3791 0.0
H527 H 0.55254 0.01413 0.45554 0.0
H528 H 0.56888 0.04949 0.4868 0.0
H529 H 0.49738 0.12129 0.46729 0.0
H530 H 0.48092 0.08654 0.43571 0.0
H531 H 0.3861 0.91168 0.41236 0.0
H532 H 0.44248 0.93205 0.41064 0.0
H533 H 0.40657 0.03085 0.40244 0.0
H534 H 0.34996 0.01067 0.40403 0.0
H535 H 0.45565 0.02506 0.4348 0.0
H536 H 0.43767 0.99337 0.35918 0.0
H537 H 0.42139 0.95572 0.32916 0.0
H538 H 0.49641 0.88778 0.34895 0.0
H539 H 0.51284 0.92482 0.37931 0.0
C540 C 0.60581 0.06885 0.41164 0.0
C541 C 0.63084 0.0451 0.41148 0.0
C542 C 0.57288 0.05949 0.41006 0.0
C543 C 0.56424 0.02614 0.40877 0.0
C544 C 0.58927 0.00245 0.40819 0.0
C545 C 0.62222 0.01183 0.40945 0.0
C546 C 0.52919 0.01583 0.40824 0.0
C547 C 0.51875 0.99437 0.39144 0.0
C548 C 0.50607 0.02706 0.42406 0.0
C549 C 0.51575 0.04789 0.44313 0.0
C550 C 0.54046 0.03756 0.45783 0.0
C551 C 0.54972 0.05748 0.47561 0.0
C552 C 0.53424 0.08766 0.47899 0.0
C553 C 0.50939 0.09793 0.46463 0.0
C554 C 0.50007 0.07813 0.44679 0.0
C555 C 0.39015 0.93774 0.41008 0.0
C556 C 0.36353 0.95956 0.40832 0.0
C557 C 0.42239 0.94931 0.40903 0.0
C558 C 0.42868 0.98293 0.4063 0.0
C559 C 0.40221 0.00481 0.40453 0.0
C560 C 0.3699 0.99321 0.40536 0.0
C561 C 0.46295 0.99523 0.4058 0.0
C562 C 0.47319 0.017 0.42242 0.0
C563 C 0.48596 0.98396 0.39 0.0
C564 C 0.4763 0.96176 0.37164 0.0
C565 C 0.45054 0.97029 0.35724 0.0
C566 C 0.4413 0.94908 0.34014 0.0
C567 C 0.4578 0.91935 0.33718 0.0
C568 C 0.48363 0.91081 0.35127 0.0
C569 C 0.49293 0.93192 0.36842 0.0
H570 H 0.45062 0.90295 0.32394 0.0
H571 H 0.54145 0.10305 0.49277 0.0
H572 H 0.91303 0.38489 0.09837 0.0
H573 H 0.93145 0.44177 0.10043 0.0
H574 H 0.03223 0.40972 0.09648 0.0
H575 H 0.01391 0.35249 0.09526 0.0
H576 H 0.02783 0.4587 0.1245 0.0
H577 H 0.9898 0.43986 0.05059 0.0
H578 H 0.95045 0.42209 0.02196 0.0
H579 H 0.88136 0.4945 0.04421 0.0
H580 H 0.92013 0.51238 0.0732 0.0
H581 H 0.09401 0.61134 0.08685 0.0
H582 H 0.07615 0.55424 0.08999 0.0
H583 H 0.97714 0.58645 0.10279 0.0
H584 H 0.99477 0.64371 0.09975 0.0
H585 H 0.98091 0.53777 0.0706 0.0
H586 H 0.02174 0.55712 0.14422 0.0
H587 H 0.06287 0.57434 0.17183 0.0
H588 H 0.12943 0.50053 0.14821 0.0
H589 H 0.08885 0.48317 0.12023 0.0
C590 C 0.93914 0.38991 0.09807 0.0
C591 C 0.96202 0.36421 0.09643 0.0
C592 C 0.94965 0.42249 0.09915 0.0
C593 C 0.98322 0.43016 0.09808 0.0
C594 C 0.00619 0.40446 0.09722 0.0
C595 C 0.99569 0.37176 0.09648 0.0
C596 C 0.99423 0.46497 0.09726 0.0
C597 C 0.01786 0.47586 0.11253 0.0
C598 C 0.98092 0.48759 0.08185 0.0
C599 C 0.95775 0.47725 0.0642 0.0
C600 C 0.96614 0.45187 0.04946 0.0
C601 C 0.94394 0.44178 0.03316 0.0
C602 C 0.91339 0.4571 0.03131 0.0
C603 C 0.90502 0.48262 0.04569 0.0
C604 C 0.9271 0.49277 0.06204 0.0
C605 C 0.06845 0.60632 0.09046 0.0
C606 C 0.04579 0.63211 0.09302 0.0
C607 C 0.05832 0.57366 0.09232 0.0
C608 C 0.02535 0.56611 0.09673 0.0
C609 C 0.0027 0.59176 0.09939 0.0
C610 C 0.01285 0.62446 0.09771 0.0
C611 C 0.01433 0.53143 0.09788 0.0
C612 C 0.99078 0.52057 0.0826 0.0
C613 C 0.02803 0.5088 0.11307 0.0
C614 C 0.05237 0.51905 0.12999 0.0
C615 C 0.04525 0.54473 0.14479 0.0
C616 C 0.06844 0.55449 0.16053 0.0
C617 C 0.09878 0.5386 0.16174 0.0
C618 C 0.10594 0.51285 0.14724 0.0
C619 C 0.08284 0.50302 0.13145 0.0
H620 H 0.1167 0.54619 0.17394 0.0
H621 H 0.89622 0.44923 0.0187 0.0
H622 H 0.38316 0.07422 0.9343 0.0
H623 H 0.43979 0.05552 0.93087 0.0
H624 H 0.41297 0.99682 0.87414 0.0
H625 H 0.35571 0.01405 0.87842 0.0
H626 H 0.45267 0.96364 0.89638 0.0
H627 H 0.45664 0.07326 0.87042 0.0
H628 H 0.44709 0.13301 0.87085 0.0
H629 H 0.50665 0.14218 0.92919 0.0
H630 H 0.51618 0.08241 0.92931 0.0
H631 H 0.6429 0.99678 0.88112 0.0
H632 H 0.58576 0.01434 0.87671 0.0
H633 H 0.55601 0.94483 0.92681 0.0
H634 H 0.61258 0.92621 0.93044 0.0
H635 H 0.54486 0.04281 0.90143 0.0
H636 H 0.47997 0.91797 0.92017 0.0
H637 H 0.48956 0.85895 0.91387 0.0
H638 H 0.55216 0.88147 0.85872 0.0
H639 H 0.54257 0.9406 0.86447 0.0
C640 C 0.38936 0.05735 0.92108 0.0
C641 C 0.36508 0.04568 0.90656 0.0
C642 C 0.42184 0.04683 0.91901 0.0
C643 C 0.43103 0.0253 0.90191 0.0
C644 C 0.40666 0.01348 0.88745 0.0
C645 C 0.37394 0.02338 0.88987 0.0
C646 C 0.46588 0.01465 0.89948 0.0
C647 C 0.47278 0.98102 0.89738 0.0
C648 C 0.49234 0.03726 0.90005 0.0
C649 C 0.48694 0.0733 0.89995 0.0
C650 C 0.46755 0.08799 0.88342 0.0
C651 C 0.46215 0.12187 0.88356 0.0
C652 C 0.47621 0.14137 0.90006 0.0
C653 C 0.49577 0.12704 0.91642 0.0
C654 C 0.50121 0.09316 0.91638 0.0
C655 C 0.62407 0.98511 0.89105 0.0
C656 C 0.63218 0.95995 0.906 0.0
C657 C 0.59142 0.99521 0.88856 0.0
C658 C 0.56631 0.98059 0.90115 0.0
C659 C 0.57462 0.95588 0.91639 0.0
C660 C 0.60708 0.94536 0.91857 0.0
C661 C 0.53161 0.99176 0.89895 0.0
C662 C 0.52474 0.02548 0.9002 0.0
C663 C 0.50521 0.96934 0.89665 0.0
C664 C 0.51075 0.93376 0.89289 0.0
C665 C 0.49564 0.91033 0.90663 0.0
C666 C 0.50111 0.87685 0.90316 0.0
C667 C 0.52153 0.86647 0.88594 0.0
C668 C 0.53643 0.88955 0.8721 0.0
C669 C 0.53102 0.92305 0.87547 0.0
H670 H 0.52575 0.84054 0.8833 0.0
H671 H 0.47199 0.16759 0.90014 0.0
H672 H 0.22052 0.02127 0.42643 0.0
H673 H 0.20728 0.06335 0.45387 0.0
H674 H 0.23786 0.99838 0.50628 0.0
H675 H 0.25217 0.9563 0.47882 0.0
H676 H 0.16684 0.03333 0.50583 0.0
H677 H 0.28516 0.04938 0.50378 0.0
H678 H 0.33754 0.05791 0.48415 0.0
H679 H 0.29992 0.14651 0.45522 0.0
H680 H 0.24709 0.13819 0.4744 0.0
H681 H 0.13891 0.14887 0.59036 0.0
H682 H 0.16545 0.10554 0.56895 0.0
H683 H 0.18194 0.17352 0.5153 0.0
H684 H 0.15644 0.21721 0.5368 0.0
H685 H 0.23223 0.13441 0.51833 0.0
H686 H 0.11599 0.12088 0.51604 0.0
H687 H 0.05973 0.11393 0.53041 0.0
H688 H 0.08789 0.02362 0.56171 0.0
H689 H 0.14449 0.03032 0.54788 0.0
C690 C 0.22471 0.01598 0.44375 0.0
C691 C 0.23738 0.98546 0.45046 0.0
C692 C 0.21718 0.04006 0.45939 0.0
C693 C 0.22164 0.03384 0.482 0.0
C694 C 0.23438 0.00353 0.48884 0.0
C695 C 0.24264 0.97964 0.47315 0.0
C696 C 0.21172 0.05882 0.49841 0.0
C697 C 0.18139 0.05513 0.50904 0.0
C698 C 0.23019 0.08773 0.50167 0.0
C699 C 0.26207 0.09298 0.49036 0.0
C700 C 0.28794 0.0705 0.49307 0.0
C701 C 0.31774 0.07534 0.48206 0.0
C702 C 0.32203 0.10269 0.4684 0.0
C703 C 0.29655 0.12531 0.46578 0.0
C704 C 0.26669 0.12057 0.47674 0.0
C705 C 0.14864 0.15479 0.57415 0.0
C706 C 0.14518 0.18651 0.56523 0.0
C707 C 0.16366 0.12991 0.56188 0.0
C708 C 0.17506 0.13609 0.54032 0.0
C709 C 0.17322 0.16811 0.53186 0.0
C710 C 0.15851 0.19309 0.54419 0.0
C711 C 0.18726 0.10895 0.52612 0.0
C712 C 0.21785 0.11237 0.51562 0.0
C713 C 0.16854 0.08011 0.52248 0.0
C714 C 0.13461 0.07629 0.53113 0.0
C715 C 0.11029 0.09971 0.52618 0.0
C716 C 0.07832 0.09579 0.53419 0.0
C717 C 0.07027 0.06834 0.54695 0.0
C718 C 0.09419 0.04486 0.55182 0.0
C719 C 0.12622 0.04871 0.54392 0.0
H720 H 0.04548 0.0652 0.55302 0.0
H721 H 0.34511 0.10638 0.45988 0.0
H722 H 0.21395 0.8436 0.46072 0.0
H723 H 0.1711 0.81572 0.48135 0.0
H724 H 0.10134 0.83805 0.42971 0.0
H725 H 0.14403 0.86754 0.40929 0.0
H726 H 0.07449 0.85045 0.46707 0.0
H727 H 0.13174 0.75762 0.43965 0.0
H728 H 0.17935 0.72251 0.43107 0.0
H729 H 0.20048 0.71295 0.50044 0.0
H730 H 0.15329 0.7484 0.50944 0.0
H731 H 0.95656 0.74727 0.52237 0.0
H732 H 0.99726 0.76126 0.49392 0.0
H733 H 0.06847 0.7821 0.54482 0.0
H734 H 0.02774 0.76917 0.57331 0.0
H735 H 0.0904 0.74261 0.50375 0.0
H736 H 0.03626 0.84307 0.52901 0.0
H737 H 0.98666 0.87585 0.53659 0.0
H738 H 0.95764 0.86748 0.46845 0.0
H739 H 0.00683 0.83405 0.46058 0.0
C740 C 0.18962 0.84238 0.45354 0.0
C741 C 0.18251 0.85792 0.4333 0.0
C742 C 0.16508 0.82612 0.46535 0.0
C743 C 0.13297 0.82422 0.45699 0.0
C744 C 0.12591 0.83908 0.43653 0.0
C745 C 0.15039 0.85585 0.42482 0.0
C746 C 0.10655 0.80855 0.47036 0.0
C747 C 0.0778 0.82654 0.47464 0.0
C748 C 0.11073 0.77742 0.48051 0.0
C749 C 0.13905 0.75587 0.47521 0.0
C750 C 0.14665 0.74821 0.45308 0.0
C751 C 0.17356 0.72822 0.44814 0.0
C752 C 0.19296 0.71556 0.4652 0.0
C753 C 0.18544 0.72279 0.48724 0.0
C754 C 0.15858 0.74279 0.49227 0.0
C755 C 0.98104 0.75435 0.52748 0.0
C756 C 0.98895 0.75737 0.55005 0.0
C757 C 0.00419 0.76233 0.51123 0.0
C758 C 0.03575 0.77269 0.51735 0.0
C759 C 0.04423 0.77404 0.53983 0.0
C760 C 0.0209 0.76684 0.55606 0.0
C761 C 0.05915 0.78482 0.50053 0.0
C762 C 0.08715 0.76621 0.49573 0.0
C763 C 0.05414 0.81509 0.48964 0.0
C764 C 0.02497 0.83573 0.49427 0.0
C765 C 0.01915 0.84796 0.51569 0.0
C766 C 0.99114 0.8667 0.52004 0.0
C767 C 0.96895 0.87366 0.50303 0.0
C768 C 0.97481 0.862 0.48162 0.0
C769 C 0.00274 0.84316 0.47721 0.0
H770 H 0.94727 0.88817 0.50642 0.0
H771 H 0.21379 0.7001 0.46134 0.0
H772 H 0.75044 0.04658 0.48252 0.0
H773 H 0.76712 0.00695 0.51102 0.0
H774 H 0.77512 0.93155 0.46122 0.0
H775 H 0.75934 0.9711 0.43265 0.0
H776 H 0.74378 0.91269 0.50427 0.0
H777 H 0.83985 0.96592 0.47205 0.0
H778 H 0.87207 0.01492 0.46198 0.0
H779 H 0.87606 0.04375 0.53033 0.0
H780 H 0.84317 0.99523 0.54074 0.0
H781 H 0.84797 0.78845 0.54187 0.0
H782 H 0.81943 0.83181 0.5221 0.0
H783 H 0.84803 0.90154 0.57231 0.0
H784 H 0.87802 0.8583 0.59186 0.0
H785 H 0.85649 0.9279 0.53375 0.0
H786 H 0.76711 0.87218 0.56738 0.0
H787 H 0.7331 0.8249 0.57845 0.0
H788 H 0.7141 0.80272 0.51012 0.0
H789 H 0.74841 0.84959 0.49862 0.0
C790 C 0.75512 0.0214 0.47775 0.0
C791 C 0.75379 0.0119 0.45539 0.0
C792 C 0.76472 0.99888 0.494 0.0
C793 C 0.77243 0.96646 0.48813 0.0
C794 C 0.76919 0.95647 0.46603 0.0
C795 C 0.76032 0.9791 0.44974 0.0
C796 C 0.78657 0.94354 0.50452 0.0
C797 C 0.76842 0.91584 0.51073 0.0
C798 C 0.81834 0.94839 0.51336 0.0
C799 C 0.83867 0.97719 0.50714 0.0
C800 C 0.84731 0.98287 0.48491 0.0
C801 C 0.86573 0.01054 0.47914 0.0
C802 C 0.87602 0.0325 0.4955 0.0
C803 C 0.868 0.02676 0.51767 0.0
C804 C 0.84945 0.99919 0.52351 0.0
C805 C 0.84806 0.81291 0.54889 0.0
C806 C 0.86528 0.81979 0.56854 0.0
C807 C 0.83149 0.83773 0.53758 0.0
C808 C 0.83099 0.86992 0.54588 0.0
C809 C 0.84793 0.87689 0.5656 0.0
C810 C 0.86497 0.85209 0.5768 0.0
C811 C 0.81395 0.89634 0.53336 0.0
C812 C 0.83159 0.92481 0.52775 0.0
C813 C 0.78148 0.89238 0.52531 0.0
C814 C 0.76052 0.86432 0.53214 0.0
C815 C 0.75584 0.85712 0.55471 0.0
C816 C 0.73649 0.83039 0.56106 0.0
C817 C 0.72149 0.81079 0.545 0.0
C818 C 0.72574 0.81793 0.52255 0.0
C819 C 0.7451 0.8446 0.5161 0.0
H820 H 0.70654 0.7901 0.54995 0.0
H821 H 0.89027 0.05392 0.49101 0.0
H822 H 0.79032 0.16814 0.44927 0.0
H823 H 0.83545 0.19324 0.46989 0.0
H824 H 0.90229 0.12093 0.44378 0.0
H825 H 0.85746 0.09577 0.42292 0.0
H826 H 0.90528 0.12784 0.49 0.0
H827 H 0.90731 0.19615 0.42503 0.0
H828 H 0.8832 0.23261 0.39679 0.0
H829 H 0.85655 0.3018 0.44731 0.0
H830 H 0.88009 0.26551 0.47591 0.0
H831 H 0.04979 0.19217 0.53491 0.0
H832 H 0.00933 0.17318 0.50785 0.0
H833 H 0.94696 0.25544 0.52413 0.0
H834 H 0.98869 0.27549 0.55028 0.0
H835 H 0.94169 0.24348 0.48213 0.0
H836 H 0.93761 0.17627 0.54728 0.0
H837 H 0.96067 0.14056 0.57636 0.0
H838 H 0.98821 0.06956 0.52723 0.0
H839 H 0.96589 0.10512 0.49779 0.0
C840 C 0.81468 0.15779 0.44766 0.0
C841 C 0.82023 0.12995 0.43437 0.0
C842 C 0.84045 0.17221 0.45945 0.0
C843 C 0.8722 0.15897 0.45831 0.0
C844 C 0.87795 0.13151 0.44485 0.0
C845 C 0.8523 0.11729 0.43285 0.0
C846 C 0.89909 0.17293 0.4719 0.0
C847 C 0.91363 0.15297 0.48809 0.0
C848 C 0.90915 0.206 0.46982 0.0
C849 C 0.89519 0.22796 0.45263 0.0
C850 C 0.89607 0.21901 0.43014 0.0
C851 C 0.88255 0.23967 0.41407 0.0
C852 C 0.86828 0.26947 0.42026 0.0
C853 C 0.86758 0.2787 0.44254 0.0
C854 C 0.88104 0.25811 0.45869 0.0
C855 C 0.02765 0.20641 0.53233 0.0
C856 C 0.02207 0.23516 0.54451 0.0
C857 C 0.00443 0.19546 0.51705 0.0
C858 C 0.97461 0.21235 0.51437 0.0
C859 C 0.96967 0.24189 0.52597 0.0
C860 C 0.99339 0.25334 0.54088 0.0
C861 C 0.94811 0.19838 0.50027 0.0
C862 C 0.93349 0.21831 0.48406 0.0
C863 C 0.93761 0.16534 0.50253 0.0
C864 C 0.9503 0.14351 0.52029 0.0
C865 C 0.94871 0.15311 0.54266 0.0
C866 C 0.96166 0.1329 0.55921 0.0
C867 C 0.97589 0.10282 0.55364 0.0
C868 C 0.97717 0.09287 0.53151 0.0
C869 C 0.96437 0.11304 0.51489 0.0
H870 H 0.98584 0.08718 0.56648 0.0
H871 H 0.85782 0.28543 0.40779 0.0
H872 H 0.71548 0.98646 0.96942 0.0
H873 H 0.72849 0.03025 0.99589 0.0
H874 H 0.82568 0.03828 0.96807 0.0
H875 H 0.81273 0.99568 0.94135 0.0
H876 H 0.77261 0.03739 0.02804 0.0
H877 H 0.85138 0.11523 0.9671 0.0
H878 H 0.85363 0.12671 0.92702 0.0
H879 H 0.75098 0.10454 0.92109 0.0
H880 H 0.74796 0.09352 0.9612 0.0
H881 H 0.88438 0.14203 0.0833 0.0
H882 H 0.85465 0.10179 0.06111 0.0
H883 H 0.79855 0.17953 0.03076 0.0
H884 H 0.8288 0.22001 0.05239 0.0
H885 H 0.82026 0.14162 1.00025 0.0
H886 H 0.76327 0.12361 0.06751 0.0
H887 H 0.75628 0.11342 0.10748 0.0
H888 H 0.8053 0.02065 0.101 0.0
H889 H 0.81303 0.03049 0.06104 0.0
C890 C 0.73958 0.99766 0.96892 0.0
C891 C 0.76289 0.98779 0.95306 0.0
C892 C 0.74701 0.02258 0.98411 0.0
C893 C 0.77787 0.03796 0.98372 0.0
C894 C 0.80144 0.02737 0.96837 0.0
C895 C 0.79397 0.00286 0.95309 0.0
C896 C 0.78574 0.06533 0.99909 0.0
C897 C 0.78286 0.06028 0.02201 0.0
C898 C 0.79819 0.09559 0.9912 0.0
C899 C 0.79952 0.10334 0.96716 0.0
C900 C 0.82922 0.11308 0.95729 0.0
C901 C 0.83065 0.11946 0.93455 0.0
C902 C 0.80249 0.11628 0.92151 0.0
C903 C 0.77279 0.10692 0.93121 0.0
C904 C 0.77121 0.10061 0.95394 0.0
C905 C 0.86538 0.15059 0.07217 0.0
C906 C 0.85912 0.18433 0.06961 0.0
C907 C 0.84825 0.12748 0.05953 0.0
C908 C 0.82414 0.13755 0.04432 0.0
C909 C 0.81707 0.17113 0.04232 0.0
C910 C 0.83437 0.19427 0.05478 0.0
C911 C 0.80823 0.11334 0.02932 0.0
C912 C 0.80963 0.11897 0.00639 0.0
C913 C 0.79362 0.08405 0.03725 0.0
C914 C 0.78893 0.07791 0.06128 0.0
C915 C 0.77277 0.10114 0.07463 0.0
C916 C 0.76864 0.09541 0.09728 0.0
C917 C 0.78038 0.06643 0.10678 0.0
C918 C 0.79622 0.04309 0.09362 0.0
C919 C 0.80045 0.04871 0.07096 0.0
H920 H 0.77717 0.06204 0.12432 0.0
H921 H 0.80367 0.12111 0.9039 0.0
H922 H 0.21305 0.1568 0.96169 0.0
H923 H 0.16879 0.18252 0.98259 0.0
H924 H 0.10135 0.16317 0.9292 0.0
H925 H 0.14537 0.1364 0.90819 0.0
H926 H 0.10243 0.23345 0.95689 0.0
H927 H 0.08839 0.11385 0.95959 0.0
H928 H 0.11131 0.05822 0.964 0.0
H929 H 0.14682 0.08358 0.02874 0.0
H930 H 0.12469 0.13963 0.02448 0.0
H931 H 0.95785 0.25575 0.02363 0.0
H932 H 0.99813 0.23982 0.99547 0.0
H933 H 0.06281 0.2044 0.04681 0.0
H934 H 0.0223 0.2189 0.0747 0.0
H935 H 0.06032 0.16114 0.01662 0.0
H936 H 0.07594 0.27794 0.01638 0.0
H937 H 0.05929 0.33594 0.01332 0.0
H938 H 0.02646 0.31939 0.94667 0.0
H939 H 0.04252 0.26114 0.94944 0.0
C940 C 0.18899 0.15836 0.95415 0.0
C941 C 0.18271 0.14413 0.93333 0.0
C942 C 0.16377 0.17321 0.96612 0.0
C943 C 0.13195 0.17464 0.9574 0.0
C944 C 0.12588 0.16236 0.9361 0.0
C945 C 0.15101 0.14694 0.92421 0.0
C946 C 0.10464 0.18551 0.9717 0.0
C947 C 0.09263 0.2176 0.96973 0.0
C948 C 0.0928 0.16498 0.98875 0.0
C949 C 0.10518 0.131 0.99162 0.0
C950 C 0.10133 0.10764 0.97468 0.0
C951 C 0.11415 0.07602 0.97716 0.0
C952 C 0.13059 0.06738 0.99662 0.0
C953 C 0.13412 0.09032 0.01366 0.0
C954 C 0.12143 0.12201 0.01123 0.0
C955 C 0.98084 0.24491 0.02888 0.0
C956 C 0.98683 0.23846 0.05139 0.0
C957 C 0.0039 0.23587 0.01277 0.0
C958 C 0.03366 0.22095 0.01897 0.0
C959 C 0.03998 0.21556 0.04153 0.0
C960 C 0.01679 0.22401 0.05752 0.0
C961 C 0.05781 0.20955 0.00215 0.0
C962 C 0.06949 0.17715 0.00367 0.0
C963 C 0.06965 0.23009 0.98494 0.0
C964 C 0.06008 0.2651 0.98321 0.0
C965 C 0.06493 0.28661 0.00113 0.0
C966 C 0.05564 0.31954 0.99944 0.0
C967 C 0.04173 0.33132 0.97984 0.0
C968 C 0.03718 0.31021 0.96186 0.0
C969 C 0.04639 0.27724 0.96348 0.0
H970 H 0.03455 0.35682 0.97857 0.0
H971 H 0.14054 0.04291 0.9985 0.0
H972 H 0.14159 0.8497 0.0918 0.0
H973 H 0.16967 0.89351 0.07155 0.0
H974 H 0.16983 0.8335 0.01262 0.0
H975 H 0.1437 0.78919 0.03304 0.0
H976 H 0.22348 0.86432 0.01346 0.0
H977 H 0.11097 0.89703 0.02463 0.0
H978 H 0.06181 0.90965 0.04686 0.0
H979 H 0.11382 0.98703 0.07996 0.0
H980 H 0.16353 0.9745 0.05819 0.0
H981 H 0.21529 0.98312 0.92741 0.0
H982 H 0.2013 0.94173 0.95508 0.0
H983 H 0.24166 0.00298 0.00651 0.0
H984 H 0.25661 0.04441 0.97877 0.0
H985 H 0.1733 0.97526 0.0131 0.0
H986 H 0.28462 0.94376 0.99656 0.0
H987 H 0.33047 0.93032 0.97151 0.0
H988 H 0.27545 0.84963 0.94479 0.0
H989 H 0.22904 0.86291 0.96945 0.0
C990 C 0.14796 0.84578 0.07458 0.0
C991 C 0.1402 0.81603 0.06399 0.0
C992 C 0.16383 0.87092 0.06297 0.0
C993 C 0.17127 0.86721 0.04035 0.0
C994 C 0.1644 0.83711 0.03001 0.0
C995 C 0.1493 0.81174 0.04173 0.0
C996 C 0.18517 0.89476 0.0271 0.0
C997 C 0.21232 0.88849 0.01337 0.0
C998 C 0.17112 0.92663 0.02715 0.0
C999 C 0.14109 0.93455 0.03998 0.0
C1000 C 0.11199 0.9166 0.03675 0.0
C1001 C 0.08402 0.92373 0.04926 0.0
C1002 C 0.08471 0.94903 0.06487 0.0
C1003 C 0.11334 0.96737 0.06791 0.0
C1004 C 0.14143 0.96026 0.0555 0.0
C1005 C 0.2215 0.98775 0.94455 0.0
C1006 C 0.23722 0.01702 0.95085 0.0
C1007 C 0.21347 0.96406 0.96033 0.0
C1008 C 0.22051 0.96935 0.98277 0.0
C1009 C 0.2361 0.99851 0.98923 0.0
C1010 C 0.24477 0.02202 0.97335 0.0
C1011 C 0.21095 0.94438 0.99935 0.0
C1012 C 0.18463 0.95117 0.01358 0.0
C1013 C 0.22522 0.91279 0.9994 0.0
C1014 C 0.25326 0.9045 0.98475 0.0
C1015 C 0.28219 0.92331 0.98523 0.0
C1016 C 0.3083 0.91569 0.97112 0.0
C1017 C 0.30585 0.88917 0.95654 0.0
C1018 C 0.27731 0.87017 0.95609 0.0
C1019 C 0.25111 0.87771 0.97015 0.0
H1020 H 0.32609 0.88332 0.94562 0.0
H1021 H 0.06303 0.95447 0.07455 0.0
H1022 H 0.84918 0.85991 0.91038 0.0
H1023 H 0.89172 0.83181 0.93196 0.0
H1024 H 0.82663 0.82763 0.98815 0.0
H1025 H 0.78384 0.85493 0.96677 0.0
H1026 H 0.89073 0.85787 0.99542 0.0
H1027 H 0.8403 0.76058 0.96473 0.0
H1028 H 0.82088 0.72524 0.9343 0.0
H1029 H 0.91867 0.72036 0.90799 0.0
H1030 H 0.93859 0.75614 0.9381 0.0
H1031 H 0.97743 0.77028 0.07426 0.0
H1032 H 0.93454 0.78562 0.04816 0.0
H1033 H 0.99913 0.76316 0.99359 0.0
H1034 H 0.0419 0.74634 0.01988 0.0
H1035 H 0.93799 0.74714 0.98299 0.0
H1036 H 0.98986 0.84196 0.01299 0.0
H1037 H 0.01102 0.87831 0.04229 0.0
H1038 H 0.91348 0.89116 0.06771 0.0
H1039 H 0.89176 0.85418 0.03888 0.0
C1040 C 0.84372 0.85257 0.92722 0.0
C1041 C 0.8131 0.85987 0.93685 0.0
C1042 C 0.86804 0.83648 0.93949 0.0
C1043 C 0.86225 0.82777 0.96162 0.0
C1044 C 0.83151 0.83421 0.97108 0.0
C1045 C 0.80706 0.84978 0.95878 0.0
C1046 C 0.88886 0.81412 0.97553 0.0
C1047 C 0.90085 0.83352 0.99289 0.0
C1048 C 0.9028 0.7829 0.97159 0.0
C1049 C 0.89086 0.76137 0.95352 0.0
C1050 C 0.8576 0.75227 0.95233 0.0
C1051 C 0.84652 0.73209 0.93516 0.0
C1052 C 0.8685 0.72065 0.91917 0.0
C1053 C 0.90165 0.72929 0.92036 0.0
C1054 C 0.91285 0.7495 0.93748 0.0
C1055 C 0.98243 0.7683 0.05673 0.0
C1056 C 0.01319 0.75766 0.04912 0.0
C1057 C 0.9579 0.77714 0.04179 0.0
C1058 C 0.96392 0.77651 0.0189 0.0
C1059 C 0.99401 0.76412 0.01118 0.0
C1060 C 0.01843 0.75457 0.0262 0.0
C1061 C 0.93943 0.79061 0.00332 0.0
C1062 C 0.928 0.77152 0.98554 0.0
C1063 C 0.92628 0.82246 0.00662 0.0
C1064 C 0.93921 0.84507 0.02385 0.0
C1065 C 0.97293 0.85235 0.02491 0.0
C1066 C 0.98503 0.87308 0.04144 0.0
C1067 C 0.96362 0.88707 0.05685 0.0
C1068 C 0.93004 0.8803 0.05577 0.0
C1069 C 0.91782 0.85944 0.03934 0.0
H1070 H 0.97301 0.9032 0.0696 0.0
H1071 H 0.85988 0.70501 0.90591 0.0
H1072 H 0.09168 0.19173 0.67519 0.0
H1073 H 0.11212 0.1815 0.71244 0.0
H1074 H 0.19707 0.24157 0.69903 0.0
H1075 H 0.17716 0.25109 0.66125 0.0
H1076 H 0.21553 0.189 0.72023 0.0
H1077 H 0.1333 0.26894 0.73281 0.0
H1078 H 0.07905 0.29534 0.72982 0.0
H1079 H 0.03424 0.21255 0.76178 0.0
H1080 H 0.08816 0.1854 0.76467 0.0
H1081 H 0.25146 0.18076 0.83843 0.0
H1082 H 0.23669 0.20465 0.80234 0.0
H1083 H 0.16163 0.13107 0.79411 0.0
H1084 H 0.17661 0.10672 0.82965 0.0
H1085 H 0.1421 0.19971 0.7854 0.0
H1086 H 0.22616 0.11852 0.76789 0.0
H1087 H 0.28153 0.09464 0.77135 0.0
H1088 H 0.32426 0.18542 0.74959 0.0
H1089 H 0.26909 0.21 0.74634 0.0
C1090 C 0.11464 0.20295 0.68015 0.0
C1091 C 0.13273 0.22235 0.66527 0.0
C1092 C 0.12624 0.19721 0.70155 0.0
C1093 C 0.15585 0.21128 0.70876 0.0
C1094 C 0.17409 0.23056 0.6939 0.0
C1095 C 0.16266 0.23603 0.67233 0.0
C1096 C 0.16793 0.20488 0.73163 0.0
C1097 C 0.19966 0.19204 0.73451 0.0
C1098 C 0.14732 0.20872 0.75037 0.0
C1099 C 0.1148 0.22503 0.74883 0.0
C1100 C 0.11186 0.25626 0.73908 0.0
C1101 C 0.08116 0.27137 0.73742 0.0
C1102 C 0.05321 0.25561 0.74558 0.0
C1103 C 0.05591 0.22473 0.75547 0.0
C1104 C 0.08655 0.20948 0.75715 0.0
C1105 C 0.23179 0.16978 0.8289 0.0
C1106 C 0.21527 0.14182 0.8368 0.0
C1107 C 0.22343 0.18339 0.80834 0.0
C1108 C 0.19807 0.16958 0.79564 0.0
C1109 C 0.18121 0.14209 0.80371 0.0
C1110 C 0.18994 0.12813 0.82396 0.0
C1111 C 0.18912 0.18316 0.77371 0.0
C1112 C 0.15803 0.19733 0.77109 0.0
C1113 C 0.21047 0.18106 0.75532 0.0
C1114 C 0.24356 0.16622 0.75716 0.0
C1115 C 0.24738 0.13349 0.76407 0.0
C1116 C 0.27872 0.11981 0.76594 0.0
C1117 C 0.30641 0.13854 0.76077 0.0
C1118 C 0.3028 0.17097 0.75364 0.0
C1119 C 0.27151 0.18478 0.75177 0.0
H1120 H 0.33065 0.1279 0.76222 0.0
H1121 H 0.02946 0.26735 0.74427 0.0
H1122 H 0.18541 0.75879 0.15672 0.0
H1123 H 0.20862 0.77293 0.19307 0.0
H1124 H 0.12048 0.82638 0.20923 0.0
H1125 H 0.09719 0.81241 0.17331 0.0
H1126 H 0.17812 0.86121 0.21815 0.0
H1127 H 0.1324 0.75193 0.23011 0.0
H1128 H 0.12812 0.69267 0.2223 0.0
H1129 H 0.23047 0.68046 0.23713 0.0
H1130 H 0.23544 0.73977 0.24473 0.0
H1131 H 0.17341 0.8918 0.33069 0.0
H1132 H 0.16218 0.87138 0.29356 0.0
H1133 H 0.24805 0.80955 0.29698 0.0
H1134 H 0.2584 0.8288 0.33494 0.0
H1135 H 0.20188 0.7781 0.27605 0.0
H1136 H 0.24788 0.8845 0.26811 0.0
H1137 H 0.25459 0.94359 0.27565 0.0
H1138 H 0.15697 0.96189 0.25187 0.0
H1139 H 0.14946 0.90283 0.24451 0.0
C1140 C 0.17102 0.77355 0.16805 0.0
C1141 C 0.13945 0.78445 0.16212 0.0
C1142 C 0.18427 0.78152 0.1888 0.0
C1143 C 0.16622 0.80066 0.20383 0.0
C1144 C 0.13484 0.81165 0.19786 0.0
C1145 C 0.12152 0.8035 0.17732 0.0
C1146 C 0.17961 0.80969 0.22585 0.0
C1147 C 0.18321 0.84308 0.23086 0.0
C1148 C 0.1875 0.78596 0.24211 0.0
C1149 C 0.18437 0.75031 0.23774 0.0
C1150 C 0.15404 0.73664 0.23153 0.0
C1151 C 0.15148 0.70304 0.22717 0.0
C1152 C 0.17903 0.68283 0.22915 0.0
C1153 C 0.20917 0.69616 0.23556 0.0
C1154 C 0.21187 0.72975 0.23991 0.0
C1155 C 0.18983 0.87372 0.32359 0.0
C1156 C 0.21697 0.86212 0.33558 0.0
C1157 C 0.18351 0.86219 0.30228 0.0
C1158 C 0.20484 0.83967 0.29212 0.0
C1159 C 0.23141 0.82715 0.30436 0.0
C1160 C 0.23732 0.83815 0.32601 0.0
C1161 C 0.19928 0.82982 0.26867 0.0
C1162 C 0.19732 0.79631 0.26331 0.0
C1163 C 0.19342 0.85348 0.25191 0.0
C1164 C 0.19807 0.88917 0.25586 0.0
C1165 C 0.22779 0.9011 0.26456 0.0
C1166 C 0.23173 0.9346 0.26881 0.0
C1167 C 0.20621 0.95647 0.26426 0.0
C1168 C 0.17672 0.94491 0.25538 0.0
C1169 C 0.17263 0.91143 0.25114 0.0
H1170 H 0.20929 0.98239 0.26759 0.0
H1171 H 0.177 0.65682 0.22577 0.0
H1172 H 0.90777 0.82214 0.67449 0.0
H1173 H 0.8856 0.83404 0.71107 0.0
H1174 H 0.80544 0.76708 0.69914 0.0
H1175 H 0.82694 0.75606 0.66192 0.0
H1176 H 0.78296 0.81839 0.71972 0.0
H1177 H 0.87204 0.74623 0.73295 0.0
H1178 H 0.9284 0.7247 0.72982 0.0
H1179 H 0.96617 0.81224 0.7601 0.0
H1180 H 0.91008 0.83454 0.7631 0.0
H1181 H 0.74847 0.82549 0.83832 0.0
H1182 H 0.76357 0.80334 0.80181 0.0
H1183 H 0.83338 0.88184 0.79324 0.0
H1184 H 0.81816 0.90436 0.82923 0.0
H1185 H 0.85786 0.8159 0.78451 0.0
H1186 H 0.7663 0.88852 0.76718 0.0
H1187 H 0.70895 0.90712 0.77075 0.0
H1188 H 0.67479 0.81258 0.7494 0.0
H1189 H 0.73199 0.79327 0.74602 0.0
C1190 C 0.88541 0.80992 0.67962 0.0
C1191 C 0.86923 0.78798 0.66539 0.0
C1192 C 0.87283 0.81661 0.70063 0.0
C1193 C 0.84425 0.80086 0.70816 0.0
C1194 C 0.82762 0.7794 0.69379 0.0
C1195 C 0.83995 0.77309 0.67254 0.0
C1196 C 0.83193 0.80714 0.73098 0.0
C1197 C 0.79922 0.8172 0.73392 0.0
C1198 C 0.85302 0.80561 0.74964 0.0
C1199 C 0.88683 0.79215 0.74812 0.0
C1200 C 0.89237 0.76098 0.73883 0.0
C1201 C 0.92428 0.74863 0.73708 0.0
C1202 C 0.95085 0.76711 0.74472 0.0
C1203 C 0.94556 0.79795 0.75418 0.0
C1204 C 0.91371 0.81045 0.75594 0.0
C1205 C 0.76697 0.83801 0.8286 0.0
C1206 C 0.78206 0.8667 0.83662 0.0
C1207 C 0.77552 0.82538 0.80778 0.0
C1208 C 0.7996 0.84099 0.7949 0.0
C1209 C 0.81479 0.86943 0.80297 0.0
C1210 C 0.80592 0.88234 0.8235 0.0
C1211 C 0.80939 0.82794 0.77298 0.0
C1212 C 0.8416 0.81654 0.77029 0.0
C1213 C 0.78771 0.82765 0.7547 0.0
C1214 C 0.75339 0.83933 0.75662 0.0
C1215 C 0.74655 0.8716 0.76346 0.0
C1216 C 0.71408 0.88229 0.7654 0.0
C1217 C 0.68824 0.86101 0.76038 0.0
C1218 C 0.69483 0.82902 0.75333 0.0
C1219 C 0.72726 0.81819 0.75139 0.0
H1220 H 0.66311 0.86933 0.76188 0.0
H1221 H 0.97553 0.75752 0.74334 0.0
H1222 H 0.81061 0.08386 0.32707 0.0
H1223 H 0.82538 0.10707 0.29117 0.0
H1224 H 0.77734 0.19777 0.30851 0.0
H1225 H 0.76249 0.17474 0.34473 0.0
H1226 H 0.7635 0.1739 0.26423 0.0
H1227 H 0.85559 0.19789 0.31135 0.0
H1228 H 0.89876 0.18425 0.33845 0.0
H1229 H 0.94046 0.11496 0.29287 0.0
H1230 H 0.89723 0.12783 0.26561 0.0
H1231 H 0.83311 0.25413 0.16928 0.0
H1232 H 0.81325 0.2405 0.20652 0.0
H1233 H 0.87675 0.15566 0.20766 0.0
H1234 H 0.89782 0.17026 0.17122 0.0
H1235 H 0.88139 0.18334 0.24473 0.0
H1236 H 0.78842 0.15369 0.19918 0.0
H1237 H 0.74445 0.1635 0.17188 0.0
H1238 H 0.70382 0.23871 0.21346 0.0
H1239 H 0.7478 0.2296 0.24089 0.0
C1240 C 0.80306 0.10872 0.32329 0.0
C1241 C 0.78553 0.12753 0.33882 0.0
C1242 C 0.81158 0.12195 0.30276 0.0
C1243 C 0.80264 0.15419 0.29727 0.0
C1244 C 0.78448 0.17284 0.31248 0.0
C1245 C 0.77618 0.15971 0.33318 0.0
C1246 C 0.81314 0.16835 0.2758 0.0
C1247 C 0.78925 0.17652 0.26 0.0
C1248 C 0.84672 0.17112 0.27024 0.0
C1249 C 0.87303 0.16367 0.2865 0.0
C1250 C 0.87384 0.17959 0.30716 0.0
C1251 C 0.89834 0.17201 0.32254 0.0
C1252 C 0.92231 0.14871 0.3174 0.0
C1253 C 0.92188 0.133 0.29683 0.0
C1254 C 0.8974 0.14046 0.2814 0.0
C1255 C 0.84262 0.23251 0.17752 0.0
C1256 C 0.86701 0.21328 0.16742 0.0
C1257 C 0.83117 0.22462 0.19875 0.0
C1258 C 0.8432 0.19679 0.20993 0.0
C1259 C 0.86717 0.17736 0.19956 0.0
C1260 C 0.87915 0.18566 0.17866 0.0
C1261 C 0.83178 0.18801 0.23263 0.0
C1262 C 0.85557 0.181 0.24882 0.0
C1263 C 0.79809 0.18584 0.23838 0.0
C1264 C 0.77159 0.19121 0.22196 0.0
C1265 C 0.77023 0.17247 0.20242 0.0
C1266 C 0.74529 0.17788 0.18694 0.0
C1267 C 0.72141 0.20178 0.1909 0.0
C1268 C 0.72236 0.22025 0.21039 0.0
C1269 C 0.74727 0.21496 0.22592 0.0
H1270 H 0.70213 0.20594 0.1789 0.0
H1271 H 0.94125 0.14286 0.32934 0.0
loop_
_geom_bond_atom_site_label_1
_geom_bond_atom_site_label_2
_geom_bond_distance
_geom_bond_site_symmetry_2
_ccdc_geom_bond_type
Co0 O2 2.143 . S
Co0 O8 2.074 . S
Co0 O11 2.093 . S
Co0 O24 2.097 . S
Co0 N41 2.151 . S
Co0 N49 2.214 . S
Co1 O2 2.160 . S
Co1 O7 2.058 . S
Co1 O17 2.057 . S
Co1 O32 2.037 . S
Co1 N36 2.145 . S
Co1 N57 2.257 . S
O2 Co0 2.143 . S
O2 Co1 2.160 . S
C3 O4 1.278 . S
C3 O11 1.224 . S
O4 C3 1.278 . S
C5 O6 1.245 . S
C5 O17 1.232 . S
O6 C5 1.245 . S
O7 Co1 2.058 . S
O7 C33 1.269 . S
O8 Co0 2.074 . S
O8 C33 1.257 . S
H9 C34 0.930 . S
H10 C40 0.930 . S
O11 Co0 2.093 . S
O11 C3 1.224 . S
H12 C44 0.929 . S
H13 C46 0.930 . S
H14 C47 0.930 . S
H15 C45 0.929 . S
H16 C48 0.928 . S
O17 Co1 2.057 . S
O17 C5 1.232 . S
H18 C37 0.929 . S
H19 C38 0.929 . S
H20 C50 0.931 . S
H21 C42 0.929 . S
H22 C51 0.930 . S
H23 C43 0.931 . S
O24 Co0 2.097 . S
O24 C52 1.214 . S
H25 C53 0.929 . S
H26 C54 0.929 . S
H27 C55 0.930 . S
H28 C56 0.929 . S
H29 C58 0.930 . S
H30 C35 0.930 . S
H31 C39 0.930 . S
O32 Co1 2.037 . S
O32 C52 1.234 . S
C33 O7 1.269 . S
C33 O8 1.257 . S
C34 H9 0.930 . S
C34 C37 1.388 . S
C34 C39 1.418 . S
C35 H30 0.930 . S
C35 C38 1.404 . S
C35 C39 1.353 . S
N36 Co1 2.145 . S
N36 C37 1.397 . S
N36 C38 1.334 . S
C37 H18 0.929 . S
C37 C34 1.388 . S
C37 N36 1.397 . S
C38 H19 0.929 . S
C38 C35 1.404 . S
C38 N36 1.334 . S
C39 H31 0.930 . S
C39 C34 1.418 . S
C39 C35 1.353 . S
C40 H10 0.930 . S
C40 N41 1.330 . S
C40 C42 1.446 . S
N41 Co0 2.151 . S
N41 C40 1.330 . S
N41 C45 1.418 . S
C42 H21 0.929 . S
C42 C40 1.446 . S
C42 C43 1.332 1_455 S
C43 H23 0.931 . S
C43 C42 1.332 1_655 S
C43 C44 1.267 . S
C44 H12 0.929 . S
C44 C43 1.267 . S
C44 C45 1.251 1_655 S
C45 H15 0.929 . S
C45 N41 1.418 . S
C45 C44 1.251 1_455 S
C46 H13 0.930 . S
C46 C48 1.406 . S
C46 C51 1.261 . S
C47 H14 0.930 . S
C47 N49 1.325 . S
C47 C50 1.357 . S
C48 H16 0.928 . S
C48 C46 1.406 . S
C48 N49 1.261 . S
N49 Co0 2.214 . S
N49 C47 1.325 . S
N49 C48 1.261 . S
C50 H20 0.931 . S
C50 C47 1.357 . S
C50 C51 1.312 . S
C51 H22 0.930 . S
C51 C46 1.261 . S
C51 C50 1.312 . S
C52 O24 1.214 . S
C52 O32 1.234 . S
C53 H25 0.929 . S
C53 C56 1.391 . S
C53 C58 1.391 . S
C54 H26 0.929 . S
C54 C55 1.390 . S
C54 N57 1.391 . S
C55 H27 0.930 . S
C55 C54 1.390 . S
C55 C56 1.392 . S
C56 H28 0.929 . S
C56 C53 1.391 . S
C56 C55 1.392 . S
N57 Co1 2.257 . S
N57 C54 1.391 . S
N57 C58 1.388 . S
C58 H29 0.930 . S
C58 C53 1.391 . S
C58 N57 1.388 . S
Co59 O61 2.143 . S
Co59 O67 2.074 . S
Co59 O70 2.093 . S
Co59 O83 2.097 . S
Co59 N100 2.151 . S
Co59 N108 2.214 . S
Co60 O61 2.160 . S
Co60 O66 2.058 . S
Co60 O76 2.057 . S
Co60 O91 2.037 . S
Co60 N95 2.145 . S
Co60 N116 2.257 . S
O61 Co59 2.143 . S
O61 Co60 2.160 . S
C62 O63 1.278 . S
C62 O70 1.224 . S
O63 C62 1.278 . S
C64 O65 1.245 . S
C64 O76 1.232 . S
O65 C64 1.245 . S
O66 Co60 2.058 . S
O66 C92 1.269 . S
O67 Co59 2.074 . S
O67 C92 1.257 . S
H68 C93 0.930 . S
H69 C99 0.930 . S
O70 Co59 2.093 . S
O70 C62 1.224 . S
H71 C103 0.929 . S
H72 C105 0.930 . S
H73 C106 0.930 . S
H74 C104 0.929 . S
H75 C107 0.928 . S
O76 Co60 2.057 . S
O76 C64 1.232 . S
H77 C96 0.929 . S
H78 C97 0.929 . S
H79 C109 0.931 . S
H80 C101 0.929 . S
H81 C110 0.930 . S
H82 C102 0.931 . S
O83 Co59 2.097 . S
O83 C111 1.214 . S
H84 C112 0.929 . S
H85 C113 0.929 . S
H86 C114 0.930 . S
H87 C115 0.929 . S
H88 C117 0.930 . S
H89 C94 0.930 . S
H90 C98 0.930 . S
O91 Co60 2.037 . S
O91 C111 1.234 . S
C92 O66 1.269 . S
C92 O67 1.257 . S
C93 H68 0.930 . S
C93 C96 1.388 . S
C93 C98 1.418 . S
C94 H89 0.930 . S
C94 C97 1.404 . S
C94 C98 1.353 . S
N95 Co60 2.145 . S
N95 C96 1.397 . S
N95 C97 1.334 . S
C96 H77 0.929 . S
C96 C93 1.388 . S
C96 N95 1.397 . S
C97 H78 0.929 . S
C97 C94 1.404 . S
C97 N95 1.334 . S
C98 H90 0.930 . S
C98 C93 1.418 . S
C98 C94 1.353 . S
C99 H69 0.930 . S
C99 N100 1.330 . S
C99 C101 1.446 . S
N100 Co59 2.151 . S
N100 C99 1.330 . S
N100 C104 1.418 . S
C101 H80 0.929 . S
C101 C99 1.446 . S
C101 C102 1.332 1_565 S
C102 H82 0.931 . S
C102 C101 1.332 1_545 S
C102 C103 1.267 . S
C103 H71 0.929 . S
C103 C102 1.267 . S
C103 C104 1.251 1_545 S
C104 H74 0.929 . S
C104 N100 1.418 . S
C104 C103 1.251 1_565 S
C105 H72 0.930 . S
C105 C107 1.406 . S
C105 C110 1.261 . S
C106 H73 0.930 . S
C106 N108 1.325 . S
C106 C109 1.357 . S
C107 H75 0.928 . S
C107 C105 1.406 . S
C107 N108 1.261 . S
N108 Co59 2.214 . S
N108 C106 1.325 . S
N108 C107 1.261 . S
C109 H79 0.931 . S
C109 C106 1.357 . S
C109 C110 1.312 . S
C110 H81 0.930 . S
C110 C105 1.261 . S
C110 C109 1.312 . S
C111 O83 1.214 . S
C111 O91 1.234 . S
C112 H84 0.929 . S
C112 C115 1.391 . S
C112 C117 1.391 . S
C113 H85 0.929 . S
C113 C114 1.390 . S
C113 N116 1.391 . S
C114 H86 0.930 . S
C114 C113 1.390 . S
C114 C115 1.392 . S
C115 H87 0.929 . S
C115 C112 1.391 . S
C115 C114 1.392 . S
N116 Co60 2.257 . S
N116 C113 1.391 . S
N116 C117 1.388 . S
C117 H88 0.930 . S
C117 C112 1.391 . S
C117 N116 1.388 . S
Co118 O120 2.143 . S
Co118 O126 2.074 . S
Co118 O129 2.093 . S
Co118 O142 2.097 . S
Co118 N159 2.151 . S
Co118 N167 2.214 . S
Co119 O120 2.160 . S
Co119 O125 2.058 . S
Co119 O135 2.057 . S
Co119 O150 2.037 . S
Co119 N154 2.145 . S
Co119 N175 2.257 . S
O120 Co118 2.143 . S
O120 Co119 2.160 . S
C121 O122 1.278 . S
C121 O129 1.224 . S
O122 C121 1.278 . S
C123 O124 1.245 . S
C123 O135 1.232 . S
O124 C123 1.245 . S
O125 Co119 2.058 . S
O125 C151 1.269 . S
O126 Co118 2.074 . S
O126 C151 1.257 . S
H127 C152 0.930 . S
H128 C158 0.930 . S
O129 Co118 2.093 . S
O129 C121 1.224 . S
H130 C162 0.929 . S
H131 C164 0.930 . S
H132 C165 0.930 . S
H133 C163 0.929 . S
H134 C166 0.928 . S
O135 Co119 2.057 . S
O135 C123 1.232 . S
H136 C155 0.929 . S
H137 C156 0.929 . S
H138 C168 0.931 . S
H139 C160 0.929 . S
H140 C169 0.930 . S
H141 C161 0.931 . S
O142 Co118 2.097 . S
O142 C170 1.214 . S
H143 C171 0.929 . S
H144 C172 0.929 . S
H145 C173 0.930 . S
H146 C174 0.929 . S
H147 C176 0.930 . S
H148 C153 0.930 . S
H149 C157 0.930 . S
O150 Co119 2.037 . S
O150 C170 1.234 . S
C151 O125 1.269 . S
C151 O126 1.257 . S
C152 H127 0.930 . S
C152 C155 1.388 . S
C152 C157 1.418 . S
C153 H148 0.930 . S
C153 C156 1.404 . S
C153 C157 1.353 . S
N154 Co119 2.145 . S
N154 C155 1.397 . S
N154 C156 1.334 . S
C155 H136 0.929 . S
C155 C152 1.388 . S
C155 N154 1.397 . S
C156 H137 0.929 . S
C156 C153 1.404 . S
C156 N154 1.334 . S
C157 H149 0.930 . S
C157 C152 1.418 . S
C157 C153 1.353 . S
C158 H128 0.930 . S
C158 N159 1.330 . S
C158 C160 1.446 . S
N159 Co118 2.151 . S
N159 C158 1.330 . S
N159 C163 1.418 . S
C160 H139 0.929 . S
C160 C158 1.446 . S
C160 C161 1.332 1_655 S
C161 H141 0.931 . S
C161 C160 1.332 1_455 S
C161 C162 1.267 . S
C162 H130 0.929 . S
C162 C161 1.267 . S
C162 C163 1.251 1_455 S
C163 H133 0.929 . S
C163 N159 1.418 . S
C163 C162 1.251 1_655 S
C164 H131 0.930 . S
C164 C166 1.406 . S
C164 C169 1.261 . S
C165 H132 0.930 . S
C165 N167 1.325 . S
C165 C168 1.357 . S
C166 H134 0.928 . S
C166 C164 1.406 . S
C166 N167 1.261 . S
N167 Co118 2.214 . S
N167 C165 1.325 . S
N167 C166 1.261 . S
C168 H138 0.931 . S
C168 C165 1.357 . S
C168 C169 1.312 . S
C169 H140 0.930 . S
C169 C164 1.261 . S
C169 C168 1.312 . S
C170 O142 1.214 . S
C170 O150 1.234 . S
C171 H143 0.929 . S
C171 C174 1.391 . S
C171 C176 1.391 . S
C172 H144 0.929 . S
C172 C173 1.390 . S
C172 N175 1.391 . S
C173 H145 0.930 . S
C173 C172 1.390 . S
C173 C174 1.392 . S
C174 H146 0.929 . S
C174 C171 1.391 . S
C174 C173 1.392 . S
N175 Co119 2.257 . S
N175 C172 1.391 . S
N175 C176 1.388 . S
C176 H147 0.930 . S
C176 C171 1.391 . S
C176 N175 1.388 . S
Co177 O179 2.143 . S
Co177 O185 2.074 . S
Co177 O188 2.093 . S
Co177 O201 2.097 . S
Co177 N218 2.151 . S
Co177 N226 2.214 . S
Co178 O179 2.160 . S
Co178 O184 2.058 . S
Co178 O194 2.057 . S
Co178 O209 2.037 . S
Co178 N213 2.145 . S
Co178 N234 2.257 . S
O179 Co177 2.143 . S
O179 Co178 2.160 . S
C180 O181 1.278 . S
C180 O188 1.224 . S
O181 C180 1.278 . S
C182 O183 1.245 . S
C182 O194 1.232 . S
O183 C182 1.245 . S
O184 Co178 2.058 . S
O184 C210 1.269 . S
O185 Co177 2.074 . S
O185 C210 1.257 . S
H186 C211 0.930 . S
H187 C217 0.930 . S
O188 Co177 2.093 . S
O188 C180 1.224 . S
H189 C221 0.929 . S
H190 C223 0.930 . S
H191 C224 0.930 . S
H192 C222 0.929 . S
H193 C225 0.928 . S
O194 Co178 2.057 . S
O194 C182 1.232 . S
H195 C214 0.929 . S
H196 C215 0.929 . S
H197 C227 0.931 . S
H198 C219 0.929 . S
H199 C228 0.930 . S
H200 C220 0.931 . S
O201 Co177 2.097 . S
O201 C229 1.214 . S
H202 C230 0.929 . S
H203 C231 0.929 . S
H204 C232 0.930 . S
H205 C233 0.929 . S
H206 C235 0.930 . S
H207 C212 0.930 . S
H208 C216 0.930 . S
O209 Co178 2.037 . S
O209 C229 1.234 . S
C210 O184 1.269 . S
C210 O185 1.257 . S
C211 H186 0.930 . S
C211 C214 1.388 . S
C211 C216 1.418 . S
C212 H207 0.930 . S
C212 C215 1.404 . S
C212 C216 1.353 . S
N213 Co178 2.145 . S
N213 C214 1.397 . S
N213 C215 1.334 . S
C214 H195 0.929 . S
C214 C211 1.388 . S
C214 N213 1.397 . S
C215 H196 0.929 . S
C215 C212 1.404 . S
C215 N213 1.334 . S
C216 H208 0.930 . S
C216 C211 1.418 . S
C216 C212 1.353 . S
C217 H187 0.930 . S
C217 N218 1.330 . S
C217 C219 1.446 . S
N218 Co177 2.151 . S
N218 C217 1.330 . S
N218 C222 1.418 . S
C219 H198 0.929 . S
C219 C217 1.446 . S
C219 C220 1.332 1_545 S
C220 H200 0.931 . S
C220 C219 1.332 1_565 S
C220 C221 1.267 . S
C221 H189 0.929 . S
C221 C220 1.267 . S
C221 C222 1.251 1_565 S
C222 H192 0.929 . S
C222 N218 1.418 . S
C222 C221 1.251 1_545 S
C223 H190 0.930 . S
C223 C225 1.406 . S
C223 C228 1.261 . S
C224 H191 0.930 . S
C224 N226 1.325 . S
C224 C227 1.357 . S
C225 H193 0.928 . S
C225 C223 1.406 . S
C225 N226 1.261 . S
N226 Co177 2.214 . S
N226 C224 1.325 . S
N226 C225 1.261 . S
C227 H197 0.931 . S
C227 C224 1.357 . S
C227 C228 1.312 . S
C228 H199 0.930 . S
C228 C223 1.261 . S
C228 C227 1.312 . S
C229 O201 1.214 . S
C229 O209 1.234 . S
C230 H202 0.929 . S
C230 C233 1.391 . S
C230 C235 1.391 . S
C231 H203 0.929 . S
C231 C232 1.390 . S
C231 N234 1.391 . S
C232 H204 0.930 . S
C232 C231 1.390 . S
C232 C233 1.392 . S
C233 H205 0.929 . S
C233 C230 1.391 . S
C233 C232 1.392 . S
N234 Co178 2.257 . S
N234 C231 1.391 . S
N234 C235 1.388 . S
C235 H206 0.930 . S
C235 C230 1.391 . S
C235 N234 1.388 . S
Co236 O238 2.143 . S
Co236 O244 2.074 . S
Co236 O247 2.093 . S
Co236 O260 2.097 . S
Co236 N277 2.151 . S
Co236 N285 2.214 . S
Co237 O238 2.160 . S
Co237 O243 2.058 . S
Co237 O253 2.057 . S
Co237 O268 2.037 . S
Co237 N272 2.145 . S
Co237 N293 2.257 . S
O238 Co236 2.143 . S
O238 Co237 2.160 . S
C239 O240 1.278 . S
C239 O247 1.224 . S
O240 C239 1.278 . S
C241 O242 1.245 . S
C241 O253 1.232 . S
O242 C241 1.245 . S
O243 Co237 2.058 . S
O243 C269 1.269 . S
O244 Co236 2.074 . S
O244 C269 1.257 . S
H245 C270 0.930 . S
H246 C276 0.930 . S
O247 Co236 2.093 . S
O247 C239 1.224 . S
H248 C280 0.929 . S
H249 C282 0.930 . S
H250 C283 0.930 . S
H251 C281 0.929 . S
H252 C284 0.928 . S
O253 Co237 2.057 . S
O253 C241 1.232 . S
H254 C273 0.929 . S
H255 C274 0.929 . S
H256 C286 0.931 . S
H257 C278 0.929 . S
H258 C287 0.930 . S
H259 C279 0.931 . S
O260 Co236 2.097 . S
O260 C288 1.214 . S
H261 C289 0.929 . S
H262 C290 0.929 . S
H263 C291 0.930 . S
H264 C292 0.929 . S
H265 C294 0.930 . S
H266 C271 0.930 . S
H267 C275 0.930 . S
O268 Co237 2.037 . S
O268 C288 1.234 . S
C269 O243 1.269 . S
C269 O244 1.257 . S
C270 H245 0.930 . S
C270 C273 1.388 1_556 S
C270 C275 1.418 . S
C271 H266 0.930 . S
C271 C274 1.404 . S
C271 C275 1.353 1_554 S
N272 Co237 2.145 . S
N272 C273 1.397 . S
N272 C274 1.334 . S
C273 H254 0.929 . S
C273 C270 1.388 1_554 S
C273 N272 1.397 . S
C274 H255 0.929 . S
C274 C271 1.404 . S
C274 N272 1.334 . S
C275 H267 0.930 . S
C275 C270 1.418 . S
C275 C271 1.353 1_556 S
C276 H246 0.930 . S
C276 N277 1.330 . S
C276 C278 1.446 . S
N277 Co236 2.151 . S
N277 C276 1.330 . S
N277 C281 1.418 . S
C278 H257 0.929 . S
C278 C276 1.446 . S
C278 C279 1.332 1_655 S
C279 H259 0.931 . S
C279 C278 1.332 1_455 S
C279 C280 1.267 . S
C280 H248 0.929 . S
C280 C279 1.267 . S
C280 C281 1.251 1_455 S
C281 H251 0.929 . S
C281 N277 1.418 . S
C281 C280 1.251 1_655 S
C282 H249 0.930 . S
C282 C284 1.406 . S
C282 C287 1.261 . S
C283 H250 0.930 . S
C283 N285 1.325 . S
C283 C286 1.357 . S
C284 H252 0.928 . S
C284 C282 1.406 . S
C284 N285 1.261 . S
N285 Co236 2.214 . S
N285 C283 1.325 . S
N285 C284 1.261 . S
C286 H256 0.931 . S
C286 C283 1.357 . S
C286 C287 1.312 . S
C287 H258 0.930 . S
C287 C282 1.261 . S
C287 C286 1.312 . S
C288 O260 1.214 . S
C288 O268 1.234 . S
C289 H261 0.929 . S
C289 C292 1.391 . S
C289 C294 1.391 . S
C290 H262 0.929 . S
C290 C291 1.390 . S
C290 N293 1.391 . S
C291 H263 0.930 . S
C291 C290 1.390 . S
C291 C292 1.392 . S
C292 H264 0.929 . S
C292 C289 1.391 . S
C292 C291 1.392 . S
N293 Co237 2.257 . S
N293 C290 1.391 . S
N293 C294 1.388 . S
C294 H265 0.930 . S
C294 C289 1.391 . S
C294 N293 1.388 . S
Co295 O297 2.143 . S
Co295 O303 2.074 . S
Co295 O306 2.093 . S
Co295 O319 2.097 . S
Co295 N336 2.151 . S
Co295 N344 2.214 . S
Co296 O297 2.160 . S
Co296 O302 2.058 . S
Co296 O312 2.057 . S
Co296 O327 2.037 . S
Co296 N331 2.145 . S
Co296 N352 2.257 . S
O297 Co295 2.143 . S
O297 Co296 2.160 . S
C298 O299 1.278 . S
C298 O306 1.224 . S
O299 C298 1.278 . S
C300 O301 1.245 . S
C300 O312 1.232 . S
O301 C300 1.245 . S
O302 Co296 2.058 . S
O302 C328 1.269 . S
O303 Co295 2.074 . S
O303 C328 1.257 . S
H304 C329 0.930 . S
H305 C335 0.930 . S
O306 Co295 2.093 . S
O306 C298 1.224 . S
H307 C339 0.929 . S
H308 C341 0.930 . S
H309 C342 0.930 . S
H310 C340 0.929 . S
H311 C343 0.928 . S
O312 Co296 2.057 . S
O312 C300 1.232 . S
H313 C332 0.929 . S
H314 C333 0.929 . S
H315 C345 0.931 . S
H316 C337 0.929 . S
H317 C346 0.930 . S
H318 C338 0.931 . S
O319 Co295 2.097 . S
O319 C347 1.214 . S
H320 C348 0.929 . S
H321 C349 0.929 . S
H322 C350 0.930 . S
H323 C351 0.929 . S
H324 C353 0.930 . S
H325 C330 0.930 . S
H326 C334 0.930 . S
O327 Co296 2.037 . S
O327 C347 1.234 . S
C328 O302 1.269 . S
C328 O303 1.257 . S
C329 H304 0.930 . S
C329 C332 1.388 1_554 S
C329 C334 1.418 . S
C330 H325 0.930 . S
C330 C333 1.404 . S
C330 C334 1.353 1_556 S
N331 Co296 2.145 . S
N331 C332 1.397 . S
N331 C333 1.334 . S
C332 H313 0.929 . S
C332 C329 1.388 1_556 S
C332 N331 1.397 . S
C333 H314 0.929 . S
C333 C330 1.404 . S
C333 N331 1.334 . S
C334 H326 0.930 . S
C334 C329 1.418 . S
C334 C330 1.353 1_554 S
C335 H305 0.930 . S
C335 N336 1.330 . S
C335 C337 1.446 . S
N336 Co295 2.151 . S
N336 C335 1.330 . S
N336 C340 1.418 . S
C337 H316 0.929 . S
C337 C335 1.446 . S
C337 C338 1.332 1_545 S
C338 H318 0.931 . S
C338 C337 1.332 1_565 S
C338 C339 1.267 . S
C339 H307 0.929 . S
C339 C338 1.267 . S
C339 C340 1.251 1_565 S
C340 H310 0.929 . S
C340 N336 1.418 . S
C340 C339 1.251 1_545 S
C341 H308 0.930 . S
C341 C343 1.406 . S
C341 C346 1.261 . S
C342 H309 0.930 . S
C342 N344 1.325 . S
C342 C345 1.357 . S
C343 H311 0.928 . S
C343 C341 1.406 . S
C343 N344 1.261 . S
N344 Co295 2.214 . S
N344 C342 1.325 . S
N344 C343 1.261 . S
C345 H315 0.931 . S
C345 C342 1.357 . S
C345 C346 1.312 . S
C346 H317 0.930 . S
C346 C341 1.261 . S
C346 C345 1.312 . S
C347 O319 1.214 . S
C347 O327 1.234 . S
C348 H320 0.929 . S
C348 C351 1.391 . S
C348 C353 1.391 . S
C349 H321 0.929 . S
C349 C350 1.390 . S
C349 N352 1.391 . S
C350 H322 0.930 . S
C350 C349 1.390 . S
C350 C351 1.392 . S
C351 H323 0.929 . S
C351 C348 1.391 . S
C351 C350 1.392 . S
N352 Co296 2.257 . S
N352 C349 1.391 . S
N352 C353 1.388 . S
C353 H324 0.930 . S
C353 C348 1.391 . S
C353 N352 1.388 . S
Co354 O356 2.143 . S
Co354 O362 2.074 . S
Co354 O365 2.093 . S
Co354 O378 2.097 . S
Co354 N395 2.151 . S
Co354 N403 2.214 . S
Co355 O356 2.160 . S
Co355 O361 2.058 . S
Co355 O371 2.057 . S
Co355 O386 2.037 . S
Co355 N390 2.145 . S
Co355 N411 2.257 . S
O356 Co354 2.143 . S
O356 Co355 2.160 . S
C357 O358 1.278 . S
C357 O365 1.224 . S
O358 C357 1.278 . S
C359 O360 1.245 . S
C359 O371 1.232 . S
O360 C359 1.245 . S
O361 Co355 2.058 . S
O361 C387 1.269 . S
O362 Co354 2.074 . S
O362 C387 1.257 . S
H363 C388 0.930 . S
H364 C394 0.930 . S
O365 Co354 2.093 . S
O365 C357 1.224 . S
H366 C398 0.929 . S
H367 C400 0.930 . S
H368 C401 0.930 . S
H369 C399 0.929 . S
H370 C402 0.928 . S
O371 Co355 2.057 . S
O371 C359 1.232 . S
H372 C391 0.929 . S
H373 C392 0.929 . S
H374 C404 0.931 . S
H375 C396 0.929 . S
H376 C405 0.930 . S
H377 C397 0.931 . S
O378 Co354 2.097 . S
O378 C406 1.214 . S
H379 C407 0.929 . S
H380 C408 0.929 . S
H381 C409 0.930 . S
H382 C410 0.929 . S
H383 C412 0.930 . S
H384 C389 0.930 . S
H385 C393 0.930 . S
O386 Co355 2.037 . S
O386 C406 1.234 . S
C387 O361 1.269 . S
C387 O362 1.257 . S
C388 H363 0.930 . S
C388 C391 1.388 1_556 S
C388 C393 1.418 . S
C389 H384 0.930 . S
C389 C392 1.404 . S
C389 C393 1.353 1_554 S
N390 Co355 2.145 . S
N390 C391 1.397 . S
N390 C392 1.334 . S
C391 H372 0.929 . S
C391 C388 1.388 1_554 S
C391 N390 1.397 . S
C392 H373 0.929 . S
C392 C389 1.404 . S
C392 N390 1.334 . S
C393 H385 0.930 . S
C393 C388 1.418 . S
C393 C389 1.353 1_556 S
C394 H364 0.930 . S
C394 N395 1.330 . S
C394 C396 1.446 . S
N395 Co354 2.151 . S
N395 C394 1.330 . S
N395 C399 1.418 . S
C396 H375 0.929 . S
C396 C394 1.446 . S
C396 C397 1.332 1_455 S
C397 H377 0.931 . S
C397 C396 1.332 1_655 S
C397 C398 1.267 . S
C398 H366 0.929 . S
C398 C397 1.267 . S
C398 C399 1.251 1_655 S
C399 H369 0.929 . S
C399 N395 1.418 . S
C399 C398 1.251 1_455 S
C400 H367 0.930 . S
C400 C402 1.406 . S
C400 C405 1.261 . S
C401 H368 0.930 . S
C401 N403 1.325 . S
C401 C404 1.357 . S
C402 H370 0.928 . S
C402 C400 1.406 . S
C402 N403 1.261 . S
N403 Co354 2.214 . S
N403 C401 1.325 . S
N403 C402 1.261 . S
C404 H374 0.931 . S
C404 C401 1.357 . S
C404 C405 1.312 . S
C405 H376 0.930 . S
C405 C400 1.261 . S
C405 C404 1.312 . S
C406 O378 1.214 . S
C406 O386 1.234 . S
C407 H379 0.929 . S
C407 C410 1.391 . S
C407 C412 1.391 . S
C408 H380 0.929 . S
C408 C409 1.390 . S
C408 N411 1.391 . S
C409 H381 0.930 . S
C409 C408 1.390 . S
C409 C410 1.392 . S
C410 H382 0.929 . S
C410 C407 1.391 . S
C410 C409 1.392 . S
N411 Co355 2.257 . S
N411 C408 1.391 . S
N411 C412 1.388 . S
C412 H383 0.930 . S
C412 C407 1.391 . S
C412 N411 1.388 . S
Co413 O415 2.143 . S
Co413 O421 2.074 . S
Co413 O424 2.093 . S
Co413 O437 2.097 . S
Co413 N454 2.151 . S
Co413 N462 2.214 . S
Co414 O415 2.160 . S
Co414 O420 2.058 . S
Co414 O430 2.057 . S
Co414 O445 2.037 . S
Co414 N449 2.145 . S
Co414 N470 2.257 . S
O415 Co413 2.143 . S
O415 Co414 2.160 . S
C416 O417 1.278 . S
C416 O424 1.224 . S
O417 C416 1.278 . S
C418 O419 1.245 . S
C418 O430 1.232 . S
O419 C418 1.245 . S
O420 Co414 2.058 . S
O420 C446 1.269 . S
O421 Co413 2.074 . S
O421 C446 1.257 . S
H422 C447 0.930 . S
H423 C453 0.930 . S
O424 Co413 2.093 . S
O424 C416 1.224 . S
H425 C457 0.929 . S
H426 C459 0.930 . S
H427 C460 0.930 . S
H428 C458 0.929 . S
H429 C461 0.928 . S
O430 Co414 2.057 . S
O430 C418 1.232 . S
H431 C450 0.929 . S
H432 C451 0.929 . S
H433 C463 0.931 . S
H434 C455 0.929 . S
H435 C464 0.930 . S
H436 C456 0.931 . S
O437 Co413 2.097 . S
O437 C465 1.214 . S
H438 C466 0.929 . S
H439 C467 0.929 . S
H440 C468 0.930 . S
H441 C469 0.929 . S
H442 C471 0.930 . S
H443 C448 0.930 . S
H444 C452 0.930 . S
O445 Co414 2.037 . S
O445 C465 1.234 . S
C446 O420 1.269 . S
C446 O421 1.257 . S
C447 H422 0.930 . S
C447 C450 1.388 1_554 S
C447 C452 1.418 . S
C448 H443 0.930 . S
C448 C451 1.404 . S
C448 C452 1.353 1_556 S
N449 Co414 2.145 . S
N449 C450 1.397 . S
N449 C451 1.334 . S
C450 H431 0.929 . S
C450 C447 1.388 1_556 S
C450 N449 1.397 . S
C451 H432 0.929 . S
C451 C448 1.404 . S
C451 N449 1.334 . S
C452 H444 0.930 . S
C452 C447 1.418 . S
C452 C448 1.353 1_554 S
C453 H423 0.930 . S
C453 N454 1.330 . S
C453 C455 1.446 . S
N454 Co413 2.151 . S
N454 C453 1.330 . S
N454 C458 1.418 . S
C455 H434 0.929 . S
C455 C453 1.446 . S
C455 C456 1.332 1_565 S
C456 H436 0.931 . S
C456 C455 1.332 1_545 S
C456 C457 1.267 . S
C457 H425 0.929 . S
C457 C456 1.267 . S
C457 C458 1.251 1_545 S
C458 H428 0.929 . S
C458 N454 1.418 . S
C458 C457 1.251 1_565 S
C459 H426 0.930 . S
C459 C461 1.406 . S
C459 C464 1.261 . S
C460 H427 0.930 . S
C460 N462 1.325 . S
C460 C463 1.357 . S
C461 H429 0.928 . S
C461 C459 1.406 . S
C461 N462 1.261 . S
N462 Co413 2.214 . S
N462 C460 1.325 . S
N462 C461 1.261 . S
C463 H433 0.931 . S
C463 C460 1.357 . S
C463 C464 1.312 . S
C464 H435 0.930 . S
C464 C459 1.261 . S
C464 C463 1.312 . S
C465 O437 1.214 . S
C465 O445 1.234 . S
C466 H438 0.929 . S
C466 C469 1.391 . S
C466 C471 1.391 . S
C467 H439 0.929 . S
C467 C468 1.390 . S
C467 N470 1.391 . S
C468 H440 0.930 . S
C468 C467 1.390 . S
C468 C469 1.392 . S
C469 H441 0.929 . S
C469 C466 1.391 . S
C469 C468 1.392 . S
N470 Co414 2.257 . S
N470 C467 1.391 . S
N470 C471 1.388 . S
C471 H442 0.930 . S
C471 C466 1.391 . S
C471 N470 1.388 . S
H472 C490 0.951 . S
H473 C492 0.951 1_455 S
H474 C494 0.950 . S
H475 C495 0.950 . S
H476 C497 0.950 . S
H477 C500 0.950 . S
H478 C501 0.950 . S
H479 C503 0.950 . S
H480 C504 0.950 . S
H481 C505 0.951 . S
H482 C507 0.951 1_655 S
H483 C509 0.950 . S
H484 C510 0.950 . S
H485 C512 0.950 . S
H486 C515 0.950 . S
H487 C516 0.950 . S
H488 C518 0.950 . S
H489 C519 0.950 . S
C490 H472 0.951 . S
C490 C491 1.366 . S
C490 C492 1.388 . S
C491 C490 1.366 . S
C491 C495 1.385 . S
C492 H473 0.951 1_655 S
C492 C490 1.388 . S
C492 C493 1.366 . S
C493 C492 1.366 . S
C493 C494 1.414 . S
C493 C496 1.499 . S
C494 H474 0.950 . S
C494 C493 1.414 . S
C494 C495 1.374 . S
C495 H475 0.950 . S
C495 C491 1.385 . S
C495 C494 1.374 . S
C496 C493 1.499 . S
C496 C497 1.373 . S
C496 C498 1.389 1_655 S
C497 H476 0.950 . S
C497 C496 1.373 . S
C497 C513 1.377 . S
C498 C496 1.389 1_455 S
C498 C499 1.524 . S
C498 C512 1.377 . S
C499 C498 1.524 . S
C499 C500 1.397 1_455 S
C499 C504 1.363 . S
C500 H477 0.950 . S
C500 C499 1.397 1_655 S
C500 C501 1.334 . S
C501 H478 0.950 . S
C501 C500 1.334 . S
C501 C502 1.287 1_655 S
C502 C501 1.287 1_455 S
C502 C503 1.524 . S
C502 H521 0.913 . S
C503 H479 0.950 . S
C503 C502 1.524 . S
C503 C504 1.415 . S
C504 H480 0.950 . S
C504 C499 1.363 . S
C504 C503 1.415 . S
C505 H481 0.951 . S
C505 C506 1.366 . S
C505 C507 1.388 . S
C506 C505 1.366 . S
C506 C510 1.385 . S
C507 H482 0.951 1_455 S
C507 C505 1.388 . S
C507 C508 1.366 . S
C508 C507 1.366 . S
C508 C509 1.414 . S
C508 C511 1.499 . S
C509 H483 0.950 . S
C509 C508 1.414 . S
C509 C510 1.374 . S
C510 H484 0.950 . S
C510 C506 1.385 . S
C510 C509 1.374 . S
C511 C508 1.499 . S
C511 C512 1.373 . S
C511 C513 1.389 1_455 S
C512 H485 0.950 . S
C512 C498 1.377 . S
C512 C511 1.373 . S
C513 C497 1.377 . S
C513 C511 1.389 1_655 S
C513 C514 1.524 . S
C514 C513 1.524 . S
C514 C515 1.397 1_655 S
C514 C519 1.363 . S
C515 H486 0.950 . S
C515 C514 1.397 1_455 S
C515 C516 1.334 . S
C516 H487 0.950 . S
C516 C515 1.334 . S
C516 C517 1.287 1_455 S
C517 C516 1.287 1_655 S
C517 C518 1.524 . S
C517 H520 0.999 . S
C518 H488 0.950 . S
C518 C517 1.524 . S
C518 C519 1.415 . S
C519 H489 0.950 . S
C519 C514 1.363 . S
C519 C518 1.415 . S
H520 C517 0.999 . S
H521 C502 0.913 . S
H522 C540 0.951 . S
H523 C542 0.951 . S
H524 C544 0.950 1_565 S
H525 C545 0.950 . S
H526 C547 0.950 . S
H527 C550 0.950 . S
H528 C551 0.950 . S
H529 C553 0.950 . S
H530 C554 0.950 . S
H531 C555 0.951 . S
H532 C557 0.951 . S
H533 C559 0.950 1_545 S
H534 C560 0.950 . S
H535 C562 0.950 . S
H536 C565 0.950 . S
H537 C566 0.950 . S
H538 C568 0.950 . S
H539 C569 0.950 . S
C540 H522 0.951 . S
C540 C541 1.366 . S
C540 C542 1.388 . S
C541 C540 1.366 . S
C541 C545 1.385 . S
C542 H523 0.951 . S
C542 C540 1.388 . S
C542 C543 1.366 . S
C543 C542 1.366 . S
C543 C544 1.414 . S
C543 C546 1.499 . S
C544 H524 0.950 1_545 S
C544 C543 1.414 . S
C544 C545 1.374 . S
C545 H525 0.950 . S
C545 C541 1.385 . S
C545 C544 1.374 . S
C546 C543 1.499 . S
C546 C547 1.373 1_545 S
C546 C548 1.389 . S
C547 H526 0.950 . S
C547 C546 1.373 1_565 S
C547 C563 1.377 . S
C548 C546 1.389 . S
C548 C549 1.524 . S
C548 C562 1.377 . S
C549 C548 1.524 . S
C549 C550 1.397 . S
C549 C554 1.363 . S
C550 H527 0.950 . S
C550 C549 1.397 . S
C550 C551 1.334 . S
C551 H528 0.950 . S
C551 C550 1.334 . S
C551 C552 1.287 . S
C552 C551 1.287 . S
C552 C553 1.524 . S
C552 H571 0.913 . S
C553 H529 0.950 . S
C553 C552 1.524 . S
C553 C554 1.415 . S
C554 H530 0.950 . S
C554 C549 1.363 . S
C554 C553 1.415 . S
C555 H531 0.951 . S
C555 C556 1.366 . S
C555 C557 1.388 . S
C556 C555 1.366 . S
C556 C560 1.385 . S
C557 H532 0.951 . S
C557 C555 1.388 . S
C557 C558 1.366 . S
C558 C557 1.366 . S
C558 C559 1.414 . S
C558 C561 1.499 . S
C559 H533 0.950 1_565 S
C559 C558 1.414 . S
C559 C560 1.374 . S
C560 H534 0.950 . S
C560 C556 1.385 . S
C560 C559 1.374 . S
C561 C558 1.499 . S
C561 C562 1.373 1_565 S
C561 C563 1.389 . S
C562 H535 0.950 . S
C562 C548 1.377 . S
C562 C561 1.373 1_545 S
C563 C547 1.377 . S
C563 C561 1.389 . S
C563 C564 1.524 . S
C564 C563 1.524 . S
C564 C565 1.397 . S
C564 C569 1.363 . S
C565 H536 0.950 . S
C565 C564 1.397 . S
C565 C566 1.334 . S
C566 H537 0.950 . S
C566 C565 1.334 . S
C566 C567 1.287 . S
C567 C566 1.287 . S
C567 C568 1.524 . S
C567 H570 0.999 . S
C568 H538 0.950 . S
C568 C567 1.524 . S
C568 C569 1.415 . S
C569 H539 0.950 . S
C569 C564 1.363 . S
C569 C568 1.415 . S
H570 C567 0.999 . S
H571 C552 0.913 . S
H572 C590 0.951 . S
H573 C592 0.951 . S
H574 C594 0.950 1_455 S
H575 C595 0.950 . S
H576 C597 0.950 . S
H577 C600 0.950 . S
H578 C601 0.950 . S
H579 C603 0.950 . S
H580 C604 0.950 . S
H581 C605 0.951 . S
H582 C607 0.951 . S
H583 C609 0.950 1_655 S
H584 C610 0.950 . S
H585 C612 0.950 . S
H586 C615 0.950 . S
H587 C616 0.950 . S
H588 C618 0.950 . S
H589 C619 0.950 . S
C590 H572 0.951 . S
C590 C591 1.366 . S
C590 C592 1.388 . S
C591 C590 1.366 . S
C591 C595 1.385 . S
C592 H573 0.951 . S
C592 C590 1.388 . S
C592 C593 1.366 . S
C593 C592 1.366 . S
C593 C594 1.414 . S
C593 C596 1.499 . S
C594 H574 0.950 1_655 S
C594 C593 1.414 . S
C594 C595 1.374 . S
C595 H575 0.950 . S
C595 C591 1.385 . S
C595 C594 1.374 . S
C596 C593 1.499 . S
C596 C597 1.373 1_655 S
C596 C598 1.389 . S
C597 H576 0.950 . S
C597 C596 1.373 1_455 S
C597 C613 1.377 . S
C598 C596 1.389 . S
C598 C599 1.524 . S
C598 C612 1.377 . S
C599 C598 1.524 . S
C599 C600 1.397 . S
C599 C604 1.363 . S
C600 H577 0.950 . S
C600 C599 1.397 . S
C600 C601 1.334 . S
C601 H578 0.950 . S
C601 C600 1.334 . S
C601 C602 1.287 . S
C602 C601 1.287 . S
C602 C603 1.524 . S
C602 H621 0.913 . S
C603 H579 0.950 . S
C603 C602 1.524 . S
C603 C604 1.415 . S
C604 H580 0.950 . S
C604 C599 1.363 . S
C604 C603 1.415 . S
C605 H581 0.951 . S
C605 C606 1.366 . S
C605 C607 1.388 . S
C606 C605 1.366 . S
C606 C610 1.385 . S
C607 H582 0.951 . S
C607 C605 1.388 . S
C607 C608 1.366 . S
C608 C607 1.366 . S
C608 C609 1.414 . S
C608 C611 1.499 . S
C609 H583 0.950 1_455 S
C609 C608 1.414 . S
C609 C610 1.374 . S
C610 H584 0.950 . S
C610 C606 1.385 . S
C610 C609 1.374 . S
C611 C608 1.499 . S
C611 C612 1.373 1_455 S
C611 C613 1.389 . S
C612 H585 0.950 . S
C612 C598 1.377 . S
C612 C611 1.373 1_655 S
C613 C597 1.377 . S
C613 C611 1.389 . S
C613 C614 1.524 . S
C614 C613 1.524 . S
C614 C615 1.397 . S
C614 C619 1.363 . S
C615 H586 0.950 . S
C615 C614 1.397 . S
C615 C616 1.334 . S
C616 H587 0.950 . S
C616 C615 1.334 . S
C616 C617 1.287 . S
C617 C616 1.287 . S
C617 C618 1.524 . S
C617 H620 0.999 . S
C618 H588 0.950 . S
C618 C617 1.524 . S
C618 C619 1.415 . S
C619 H589 0.950 . S
C619 C614 1.363 . S
C619 C618 1.415 . S
H620 C617 0.999 . S
H621 C602 0.913 . S
H622 C640 0.951 . S
H623 C642 0.951 . S
H624 C644 0.950 . S
H625 C645 0.950 . S
H626 C647 0.950 . S
H627 C650 0.950 . S
H628 C651 0.950 . S
H629 C653 0.950 . S
H630 C654 0.950 . S
H631 C655 0.951 . S
H632 C657 0.951 . S
H633 C659 0.950 . S
H634 C660 0.950 . S
H635 C662 0.950 . S
H636 C665 0.950 . S
H637 C666 0.950 . S
H638 C668 0.950 . S
H639 C669 0.950 . S
C640 H622 0.951 . S
C640 C641 1.366 . S
C640 C642 1.388 . S
C641 C640 1.366 . S
C641 C645 1.385 . S
C642 H623 0.951 . S
C642 C640 1.388 . S
C642 C643 1.366 . S
C643 C642 1.366 . S
C643 C644 1.414 . S
C643 C646 1.499 . S
C644 H624 0.950 . S
C644 C643 1.414 . S
C644 C645 1.374 . S
C645 H625 0.950 . S
C645 C641 1.385 . S
C645 C644 1.374 . S
C646 C643 1.499 . S
C646 C647 1.373 1_545 S
C646 C648 1.389 . S
C647 H626 0.950 . S
C647 C646 1.373 1_565 S
C647 C663 1.377 . S
C648 C646 1.389 . S
C648 C649 1.524 . S
C648 C662 1.377 . S
C649 C648 1.524 . S
C649 C650 1.397 . S
C649 C654 1.363 . S
C650 H627 0.950 . S
C650 C649 1.397 . S
C650 C651 1.334 . S
C651 H628 0.950 . S
C651 C650 1.334 . S
C651 C652 1.287 . S
C652 C651 1.287 . S
C652 C653 1.524 . S
C652 H671 0.913 . S
C653 H629 0.950 . S
C653 C652 1.524 . S
C653 C654 1.415 . S
C654 H630 0.950 . S
C654 C649 1.363 . S
C654 C653 1.415 . S
C655 H631 0.951 . S
C655 C656 1.366 . S
C655 C657 1.388 . S
C656 C655 1.366 . S
C656 C660 1.385 . S
C657 H632 0.951 . S
C657 C655 1.388 . S
C657 C658 1.366 . S
C658 C657 1.366 . S
C658 C659 1.414 . S
C658 C661 1.499 . S
C659 H633 0.950 . S
C659 C658 1.414 . S
C659 C660 1.374 . S
C660 H634 0.950 . S
C660 C656 1.385 . S
C660 C659 1.374 . S
C661 C658 1.499 . S
C661 C662 1.373 1_565 S
C661 C663 1.389 . S
C662 H635 0.950 . S
C662 C648 1.377 . S
C662 C661 1.373 1_545 S
C663 C647 1.377 . S
C663 C661 1.389 . S
C663 C664 1.524 . S
C664 C663 1.524 . S
C664 C665 1.397 . S
C664 C669 1.363 . S
C665 H636 0.950 . S
C665 C664 1.397 . S
C665 C666 1.334 . S
C666 H637 0.950 . S
C666 C665 1.334 . S
C666 C667 1.287 . S
C667 C666 1.287 . S
C667 C668 1.524 . S
C667 H670 0.999 . S
C668 H638 0.950 . S
C668 C667 1.524 . S
C668 C669 1.415 . S
C669 H639 0.950 . S
C669 C664 1.363 . S
C669 C668 1.415 . S
H670 C667 0.999 . S
H671 C652 0.913 . S
H672 C690 0.951 . S
H673 C692 0.951 . S
H674 C694 0.949 1_565 S
H675 C695 0.950 . S
H676 C697 0.950 . S
H677 C700 0.950 . S
H678 C701 0.950 . S
H679 C703 0.950 . S
H680 C704 0.950 . S
H681 C705 0.951 . S
H682 C707 0.951 . S
H683 C709 0.950 . S
H684 C710 0.950 . S
H685 C712 0.950 . S
H686 C715 0.950 . S
H687 C716 0.950 . S
H688 C718 0.950 . S
H689 C719 0.950 . S
C690 H672 0.951 . S
C690 C691 1.366 1_545 S
C690 C692 1.388 . S
C691 C690 1.366 1_565 S
C691 C695 1.385 . S
C692 H673 0.951 . S
C692 C690 1.388 . S
C692 C693 1.366 . S
C693 C692 1.366 . S
C693 C694 1.414 . S
C693 C696 1.499 . S
C694 H674 0.949 1_545 S
C694 C693 1.414 . S
C694 C695 1.374 1_545 S
C695 H675 0.950 . S
C695 C691 1.385 . S
C695 C694 1.374 1_565 S
C696 C693 1.499 . S
C696 C697 1.373 . S
C696 C698 1.389 . S
C697 H676 0.950 . S
C697 C696 1.373 . S
C697 C713 1.377 . S
C698 C696 1.389 . S
C698 C699 1.524 . S
C698 C712 1.377 . S
C699 C698 1.524 . S
C699 C700 1.397 . S
C699 C704 1.363 . S
C700 H677 0.950 . S
C700 C699 1.397 . S
C700 C701 1.334 . S
C701 H678 0.950 . S
C701 C700 1.334 . S
C701 C702 1.287 . S
C702 C701 1.287 . S
C702 C703 1.524 . S
C702 H721 0.913 . S
C703 H679 0.950 . S
C703 C702 1.524 . S
C703 C704 1.415 . S
C704 H680 0.950 . S
C704 C699 1.363 . S
C704 C703 1.415 . S
C705 H681 0.951 . S
C705 C706 1.366 . S
C705 C707 1.388 . S
C706 C705 1.366 . S
C706 C710 1.385 . S
C707 H682 0.951 . S
C707 C705 1.388 . S
C707 C708 1.366 . S
C708 C707 1.366 . S
C708 C709 1.414 . S
C708 C711 1.499 . S
C709 H683 0.950 . S
C709 C708 1.414 . S
C709 C710 1.374 . S
C710 H684 0.950 . S
C710 C706 1.385 . S
C710 C709 1.374 . S
C711 C708 1.499 . S
C711 C712 1.373 . S
C711 C713 1.389 . S
C712 H685 0.950 . S
C712 C698 1.377 . S
C712 C711 1.373 . S
C713 C697 1.377 . S
C713 C711 1.389 . S
C713 C714 1.524 . S
C714 C713 1.524 . S
C714 C715 1.397 . S
C714 C719 1.363 . S
C715 H686 0.950 . S
C715 C714 1.397 . S
C715 C716 1.334 . S
C716 H687 0.950 . S
C716 C715 1.334 . S
C716 C717 1.287 . S
C717 C716 1.287 . S
C717 C718 1.524 . S
C717 H720 0.999 . S
C718 H688 0.950 . S
C718 C717 1.524 . S
C718 C719 1.415 . S
C719 H689 0.950 . S
C719 C714 1.363 . S
C719 C718 1.415 . S
H720 C717 0.999 . S
H721 C702 0.913 . S
H722 C740 0.951 . S
H723 C742 0.951 . S
H724 C744 0.950 . S
H725 C745 0.950 . S
H726 C747 0.950 . S
H727 C750 0.950 . S
H728 C751 0.950 . S
H729 C753 0.950 . S
H730 C754 0.950 . S
H731 C755 0.951 . S
H732 C757 0.951 1_655 S
H733 C759 0.950 . S
H734 C760 0.950 . S
H735 C762 0.950 . S
H736 C765 0.950 . S
H737 C766 0.950 . S
H738 C768 0.950 1_655 S
H739 C769 0.950 . S
C740 H722 0.951 . S
C740 C741 1.366 . S
C740 C742 1.388 . S
C741 C740 1.366 . S
C741 C745 1.385 . S
C742 H723 0.951 . S
C742 C740 1.388 . S
C742 C743 1.366 . S
C743 C742 1.366 . S
C743 C744 1.414 . S
C743 C746 1.499 . S
C744 H724 0.950 . S
C744 C743 1.414 . S
C744 C745 1.374 . S
C745 H725 0.950 . S
C745 C741 1.385 . S
C745 C744 1.374 . S
C746 C743 1.499 . S
C746 C747 1.373 . S
C746 C748 1.389 . S
C747 H726 0.950 . S
C747 C746 1.373 . S
C747 C763 1.377 . S
C748 C746 1.389 . S
C748 C749 1.524 . S
C748 C762 1.377 . S
C749 C748 1.524 . S
C749 C750 1.397 . S
C749 C754 1.363 . S
C750 H727 0.950 . S
C750 C749 1.397 . S
C750 C751 1.334 . S
C751 H728 0.950 . S
C751 C750 1.334 . S
C751 C752 1.287 . S
C752 C751 1.287 . S
C752 C753 1.524 . S
C752 H771 0.913 . S
C753 H729 0.950 . S
C753 C752 1.524 . S
C753 C754 1.415 . S
C754 H730 0.950 . S
C754 C749 1.363 . S
C754 C753 1.415 . S
C755 H731 0.951 . S
C755 C756 1.366 . S
C755 C757 1.388 1_655 S
C756 C755 1.366 . S
C756 C760 1.385 1_655 S
C757 H732 0.951 1_455 S
C757 C755 1.388 1_455 S
C757 C758 1.366 . S
C758 C757 1.366 . S
C758 C759 1.414 . S
C758 C761 1.499 . S
C759 H733 0.950 . S
C759 C758 1.414 . S
C759 C760 1.374 . S
C760 H734 0.950 . S
C760 C756 1.385 1_455 S
C760 C759 1.374 . S
C761 C758 1.499 . S
C761 C762 1.373 . S
C761 C763 1.389 . S
C762 H735 0.950 . S
C762 C748 1.377 . S
C762 C761 1.373 . S
C763 C747 1.377 . S
C763 C761 1.389 . S
C763 C764 1.524 . S
C764 C763 1.524 . S
C764 C765 1.397 . S
C764 C769 1.363 . S
C765 H736 0.950 . S
C765 C764 1.397 . S
C765 C766 1.334 . S
C766 H737 0.950 . S
C766 C765 1.334 . S
C766 C767 1.287 . S
C767 C766 1.287 . S
C767 C768 1.524 . S
C767 H770 0.999 1_455 S
C768 H738 0.950 1_455 S
C768 C767 1.524 . S
C768 C769 1.415 . S
C769 H739 0.950 . S
C769 C764 1.363 . S
C769 C768 1.415 . S
H770 C767 0.999 1_655 S
H771 C752 0.913 . S
H772 C790 0.951 . S
H773 C792 0.951 1_545 S
H774 C794 0.950 . S
H775 C795 0.950 . S
H776 C797 0.950 . S
H777 C800 0.950 . S
H778 C801 0.950 . S
H779 C803 0.940 1_545 S
H780 C804 0.950 . S
H781 C805 0.951 . S
H782 C807 0.951 . S
H783 C809 0.950 . S
H784 C810 0.950 . S
H785 C812 0.950 . S
H786 C815 0.950 . S
H787 C816 0.950 . S
H788 C818 0.950 . S
H789 C819 0.950 . S
C790 H772 0.951 . S
C790 C791 1.366 . S
C790 C792 1.388 1_545 S
C791 C790 1.366 . S
C791 C795 1.385 1_545 S
C792 H773 0.951 1_565 S
C792 C790 1.388 1_565 S
C792 C793 1.366 . S
C793 C792 1.366 . S
C793 C794 1.414 . S
C793 C796 1.499 . S
C794 H774 0.950 . S
C794 C793 1.414 . S
C794 C795 1.374 . S
C795 H775 0.950 . S
C795 C791 1.385 1_565 S
C795 C794 1.374 . S
C796 C793 1.499 . S
C796 C797 1.373 . S
C796 C798 1.389 . S
C797 H776 0.950 . S
C797 C796 1.373 . S
C797 C813 1.377 . S
C798 C796 1.389 . S
C798 C799 1.524 . S
C798 C812 1.377 . S
C799 C798 1.524 . S
C799 C800 1.397 . S
C799 C804 1.363 . S
C800 H777 0.950 . S
C800 C799 1.397 . S
C800 C801 1.334 . S
C801 H778 0.950 . S
C801 C800 1.334 . S
C801 C802 1.287 . S
C802 C801 1.287 . S
C802 C803 1.524 . S
C802 H821 0.913 1_565 S
C803 H779 0.940 1_565 S
C803 C802 1.524 . S
C803 C804 1.415 . S
C804 H780 0.950 . S
C804 C799 1.363 . S
C804 C803 1.415 . S
C805 H781 0.951 . S
C805 C806 1.366 . S
C805 C807 1.388 . S
C806 C805 1.366 . S
C806 C810 1.385 . S
C807 H782 0.951 . S
C807 C805 1.388 . S
C807 C808 1.366 . S
C808 C807 1.366 . S
C808 C809 1.414 . S
C808 C811 1.499 . S
C809 H783 0.950 . S
C809 C808 1.414 . S
C809 C810 1.374 . S
C810 H784 0.950 . S
C810 C806 1.385 . S
C810 C809 1.374 . S
C811 C808 1.499 . S
C811 C812 1.373 . S
C811 C813 1.389 . S
C812 H785 0.950 . S
C812 C798 1.377 . S
C812 C811 1.373 . S
C813 C797 1.377 . S
C813 C811 1.389 . S
C813 C814 1.524 . S
C814 C813 1.524 . S
C814 C815 1.397 . S
C814 C819 1.363 . S
C815 H786 0.950 . S
C815 C814 1.397 . S
C815 C816 1.334 . S
C816 H787 0.950 . S
C816 C815 1.334 . S
C816 C817 1.287 . S
C817 C816 1.287 . S
C817 C818 1.524 . S
C817 H820 0.999 . S
C818 H788 0.950 . S
C818 C817 1.524 . S
C818 C819 1.415 . S
C819 H789 0.950 . S
C819 C814 1.363 . S
C819 C818 1.415 . S
H820 C817 0.999 . S
H821 C802 0.913 1_545 S
H822 C840 0.951 . S
H823 C842 0.951 . S
H824 C844 0.950 . S
H825 C845 0.950 . S
H826 C847 0.950 . S
H827 C850 0.950 . S
H828 C851 0.950 . S
H829 C853 0.950 . S
H830 C854 0.950 . S
H831 C855 0.951 . S
H832 C857 0.951 . S
H833 C859 0.950 . S
H834 C860 0.950 . S
H835 C862 0.950 . S
H836 C865 0.950 . S
H837 C866 0.950 . S
H838 C868 0.950 . S
H839 C869 0.950 . S
C840 H822 0.951 . S
C840 C841 1.366 . S
C840 C842 1.388 . S
C841 C840 1.366 . S
C841 C845 1.385 . S
C842 H823 0.951 . S
C842 C840 1.388 . S
C842 C843 1.366 . S
C843 C842 1.366 . S
C843 C844 1.414 . S
C843 C846 1.499 . S
C844 H824 0.950 . S
C844 C843 1.414 . S
C844 C845 1.374 . S
C845 H825 0.950 . S
C845 C841 1.385 . S
C845 C844 1.374 . S
C846 C843 1.499 . S
C846 C847 1.373 . S
C846 C848 1.389 . S
C847 H826 0.950 . S
C847 C846 1.373 . S
C847 C863 1.377 . S
C848 C846 1.389 . S
C848 C849 1.524 . S
C848 C862 1.377 . S
C849 C848 1.524 . S
C849 C850 1.397 . S
C849 C854 1.363 . S
C850 H827 0.950 . S
C850 C849 1.397 . S
C850 C851 1.334 . S
C851 H828 0.950 . S
C851 C850 1.334 . S
C851 C852 1.287 . S
C852 C851 1.287 . S
C852 C853 1.524 . S
C852 H871 0.913 . S
C853 H829 0.950 . S
C853 C852 1.524 . S
C853 C854 1.415 . S
C854 H830 0.950 . S
C854 C849 1.363 . S
C854 C853 1.415 . S
C855 H831 0.951 . S
C855 C856 1.366 . S
C855 C857 1.388 1_455 S
C856 C855 1.366 . S
C856 C860 1.385 1_455 S
C857 H832 0.951 . S
C857 C855 1.388 1_655 S
C857 C858 1.366 . S
C858 C857 1.366 . S
C858 C859 1.414 . S
C858 C861 1.499 . S
C859 H833 0.950 . S
C859 C858 1.414 . S
C859 C860 1.374 . S
C860 H834 0.950 . S
C860 C856 1.385 1_655 S
C860 C859 1.374 . S
C861 C858 1.499 . S
C861 C862 1.373 . S
C861 C863 1.389 . S
C862 H835 0.950 . S
C862 C848 1.377 . S
C862 C861 1.373 . S
C863 C847 1.377 . S
C863 C861 1.389 . S
C863 C864 1.524 . S
C864 C863 1.524 . S
C864 C865 1.397 . S
C864 C869 1.363 . S
C865 H836 0.950 . S
C865 C864 1.397 . S
C865 C866 1.334 . S
C866 H837 0.950 . S
C866 C865 1.334 . S
C866 C867 1.287 . S
C867 C866 1.287 . S
C867 C868 1.524 . S
C867 H870 0.999 . S
C868 H838 0.950 . S
C868 C867 1.524 . S
C868 C869 1.415 . S
C869 H839 0.950 . S
C869 C864 1.363 . S
C869 C868 1.415 . S
H870 C867 0.999 . S
H871 C852 0.913 . S
H872 C890 0.951 . S
H873 C892 0.951 . S
H874 C894 0.950 1_565 S
H875 C895 0.950 . S
H876 C897 0.950 . S
H877 C900 0.950 . S
H878 C901 0.950 . S
H879 C903 0.950 . S
H880 C904 0.950 . S
H881 C905 0.951 . S
H882 C907 0.951 . S
H883 C909 0.950 . S
H884 C910 0.950 . S
H885 C912 0.950 . S
H886 C915 0.950 . S
H887 C916 0.950 . S
H888 C918 0.950 . S
H889 C919 0.950 . S
C890 H872 0.951 . S
C890 C891 1.366 1_545 S
C890 C892 1.388 . S
C891 C890 1.366 1_565 S
C891 C895 1.385 . S
C892 H873 0.951 . S
C892 C890 1.388 . S
C892 C893 1.366 . S
C893 C892 1.366 . S
C893 C894 1.414 . S
C893 C896 1.499 . S
C894 H874 0.950 1_545 S
C894 C893 1.414 . S
C894 C895 1.374 1_545 S
C895 H875 0.950 . S
C895 C891 1.385 . S
C895 C894 1.374 1_565 S
C896 C893 1.499 . S
C896 C897 1.373 1_556 S
C896 C898 1.389 . S
C897 H876 0.950 . S
C897 C896 1.373 1_554 S
C897 C913 1.377 . S
C898 C896 1.389 . S
C898 C899 1.524 . S
C898 C912 1.377 . S
C899 C898 1.524 . S
C899 C900 1.397 . S
C899 C904 1.363 . S
C900 H877 0.950 . S
C900 C899 1.397 . S
C900 C901 1.334 . S
C901 H878 0.950 . S
C901 C900 1.334 . S
C901 C902 1.287 . S
C902 C901 1.287 . S
C902 C903 1.524 . S
C902 H921 0.913 . S
C903 H879 0.950 . S
C903 C902 1.524 . S
C903 C904 1.415 . S
C904 H880 0.950 . S
C904 C899 1.363 . S
C904 C903 1.415 . S
C905 H881 0.951 . S
C905 C906 1.366 . S
C905 C907 1.388 . S
C906 C905 1.366 . S
C906 C910 1.385 . S
C907 H882 0.951 . S
C907 C905 1.388 . S
C907 C908 1.366 . S
C908 C907 1.366 . S
C908 C909 1.414 . S
C908 C911 1.499 . S
C909 H883 0.950 . S
C909 C908 1.414 . S
C909 C910 1.374 . S
C910 H884 0.950 . S
C910 C906 1.385 . S
C910 C909 1.374 . S
C911 C908 1.499 . S
C911 C912 1.373 1_554 S
C911 C913 1.389 . S
C912 H885 0.950 . S
C912 C898 1.377 . S
C912 C911 1.373 1_556 S
C913 C897 1.377 . S
C913 C911 1.389 . S
C913 C914 1.524 . S
C914 C913 1.524 . S
C914 C915 1.397 . S
C914 C919 1.363 . S
C915 H886 0.950 . S
C915 C914 1.397 . S
C915 C916 1.334 . S
C916 H887 0.950 . S
C916 C915 1.334 . S
C916 C917 1.287 . S
C917 C916 1.287 . S
C917 C918 1.524 . S
C917 H920 0.999 . S
C918 H888 0.950 . S
C918 C917 1.524 . S
C918 C919 1.415 . S
C919 H889 0.950 . S
C919 C914 1.363 . S
C919 C918 1.415 . S
H920 C917 0.999 . S
H921 C902 0.913 . S
H922 C940 0.951 . S
H923 C942 0.951 . S
H924 C944 0.950 . S
H925 C945 0.950 . S
H926 C947 0.950 . S
H927 C950 0.950 . S
H928 C951 0.950 . S
H929 C953 0.950 . S
H930 C954 0.950 . S
H931 C955 0.951 . S
H932 C957 0.967 . S
H933 C959 0.950 . S
H934 C960 0.950 . S
H935 C962 0.950 . S
H936 C965 0.950 . S
H937 C966 0.950 . S
H938 C968 0.950 . S
H939 C969 0.950 . S
C940 H922 0.951 . S
C940 C941 1.366 . S
C940 C942 1.388 . S
C941 C940 1.366 . S
C941 C945 1.385 . S
C942 H923 0.951 . S
C942 C940 1.388 . S
C942 C943 1.366 . S
C943 C942 1.366 . S
C943 C944 1.414 . S
C943 C946 1.499 . S
C944 H924 0.950 . S
C944 C943 1.414 . S
C944 C945 1.374 . S
C945 H925 0.950 . S
C945 C941 1.385 . S
C945 C944 1.374 . S
C946 C943 1.499 . S
C946 C947 1.373 . S
C946 C948 1.389 1_556 S
C947 H926 0.950 . S
C947 C946 1.373 . S
C947 C963 1.377 . S
C948 C946 1.389 1_554 S
C948 C949 1.524 . S
C948 C962 1.377 . S
C949 C948 1.524 . S
C949 C950 1.397 1_554 S
C949 C954 1.363 . S
C950 H927 0.950 . S
C950 C949 1.397 1_556 S
C950 C951 1.334 . S
C951 H928 0.950 . S
C951 C950 1.334 . S
C951 C952 1.287 1_556 S
C952 C951 1.287 1_554 S
C952 C953 1.524 . S
C952 H971 0.913 . S
C953 H929 0.950 . S
C953 C952 1.524 . S
C953 C954 1.415 . S
C954 H930 0.950 . S
C954 C949 1.363 . S
C954 C953 1.415 . S
C955 H931 0.951 . S
C955 C956 1.366 . S
C955 C957 1.388 1_655 S
C956 C955 1.366 . S
C956 C960 1.385 1_655 S
C957 H932 0.967 . S
C957 C955 1.388 1_455 S
C957 C958 1.366 . S
C958 C957 1.366 . S
C958 C959 1.414 . S
C958 C961 1.499 . S
C959 H933 0.950 . S
C959 C958 1.414 . S
C959 C960 1.374 . S
C960 H934 0.950 . S
C960 C956 1.385 1_455 S
C960 C959 1.374 . S
C961 C958 1.499 . S
C961 C962 1.373 . S
C961 C963 1.389 1_554 S
C962 H935 0.950 . S
C962 C948 1.377 . S
C962 C961 1.373 . S
C963 C947 1.377 . S
C963 C961 1.389 1_556 S
C963 C964 1.524 . S
C964 C963 1.524 . S
C964 C965 1.397 1_556 S
C964 C969 1.363 . S
C965 H936 0.950 . S
C965 C964 1.397 1_554 S
C965 C966 1.334 . S
C966 H937 0.950 . S
C966 C965 1.334 . S
C966 C967 1.287 1_554 S
C967 C966 1.287 1_556 S
C967 C968 1.524 . S
C967 H970 0.999 . S
C968 H938 0.950 . S
C968 C967 1.524 . S
C968 C969 1.415 . S
C969 H939 0.950 . S
C969 C964 1.363 . S
C969 C968 1.415 . S
H970 C967 0.999 . S
H971 C952 0.913 . S
H972 C990 0.951 . S
H973 C992 0.951 . S
H974 C994 0.950 . S
H975 C995 0.950 . S
H976 C997 0.950 . S
H977 C1000 0.950 . S
H978 C1001 0.950 . S
H979 C1003 0.950 . S
H980 C1004 0.950 . S
H981 C1005 0.951 . S
H982 C1007 0.951 . S
H983 C1009 0.950 . S
H984 C1010 0.950 . S
H985 C1012 0.950 . S
H986 C1015 0.950 . S
H987 C1016 0.950 . S
H988 C1018 0.950 . S
H989 C1019 0.950 . S
C990 H972 0.951 . S
C990 C991 1.366 . S
C990 C992 1.388 . S
C991 C990 1.366 . S
C991 C995 1.385 . S
C992 H973 0.951 . S
C992 C990 1.388 . S
C992 C993 1.366 . S
C993 C992 1.366 . S
C993 C994 1.414 . S
C993 C996 1.499 . S
C994 H974 0.950 . S
C994 C993 1.414 . S
C994 C995 1.374 . S
C995 H975 0.950 . S
C995 C991 1.385 . S
C995 C994 1.374 . S
C996 C993 1.499 . S
C996 C997 1.373 1_554 S
C996 C998 1.389 . S
C997 H976 0.950 . S
C997 C996 1.373 1_556 S
C997 C1013 1.377 . S
C998 C996 1.389 . S
C998 C999 1.524 . S
C998 C1012 1.377 . S
C999 C998 1.524 . S
C999 C1000 1.397 . S
C999 C1004 1.363 . S
C1000 H977 0.950 . S
C1000 C999 1.397 . S
C1000 C1001 1.334 . S
C1001 H978 0.950 . S
C1001 C1000 1.334 . S
C1001 C1002 1.287 . S
C1002 C1001 1.287 . S
C1002 C1003 1.524 . S
C1002 H1021 0.913 . S
C1003 H979 0.950 . S
C1003 C1002 1.524 . S
C1003 C1004 1.415 . S
C1004 H980 0.950 . S
C1004 C999 1.363 . S
C1004 C1003 1.415 . S
C1005 H981 0.951 . S
C1005 C1006 1.366 1_565 S
C1005 C1007 1.388 . S
C1006 C1005 1.366 1_545 S
C1006 C1010 1.385 . S
C1007 H982 0.951 . S
C1007 C1005 1.388 . S
C1007 C1008 1.366 . S
C1008 C1007 1.366 . S
C1008 C1009 1.414 . S
C1008 C1011 1.499 . S
C1009 H983 0.950 . S
C1009 C1008 1.414 . S
C1009 C1010 1.374 1_565 S
C1010 H984 0.950 . S
C1010 C1006 1.385 . S
C1010 C1009 1.374 1_545 S
C1011 C1008 1.499 . S
C1011 C1012 1.373 1_556 S
C1011 C1013 1.389 . S
C1012 H985 0.950 . S
C1012 C998 1.377 . S
C1012 C1011 1.373 1_554 S
C1013 C997 1.377 . S
C1013 C1011 1.389 . S
C1013 C1014 1.524 . S
C1014 C1013 1.524 . S
C1014 C1015 1.397 . S
C1014 C1019 1.363 . S
C1015 H986 0.950 . S
C1015 C1014 1.397 . S
C1015 C1016 1.334 . S
C1016 H987 0.950 . S
C1016 C1015 1.334 . S
C1016 C1017 1.287 . S
C1017 C1016 1.287 . S
C1017 C1018 1.524 . S
C1017 H1020 0.999 . S
C1018 H988 0.950 . S
C1018 C1017 1.524 . S
C1018 C1019 1.415 . S
C1019 H989 0.950 . S
C1019 C1014 1.363 . S
C1019 C1018 1.415 . S
H1020 C1017 0.999 . S
H1021 C1002 0.913 . S
H1022 C1040 0.951 . S
H1023 C1042 0.951 . S
H1024 C1044 0.950 . S
H1025 C1045 0.950 . S
H1026 C1047 0.950 . S
H1027 C1050 0.950 . S
H1028 C1051 0.950 . S
H1029 C1053 0.950 . S
H1030 C1054 0.950 . S
H1031 C1055 0.951 . S
H1032 C1057 0.951 . S
H1033 C1059 0.958 . S
H1034 C1060 0.950 . S
H1035 C1062 0.950 . S
H1036 C1065 0.950 . S
H1037 C1066 0.950 . S
H1038 C1068 0.950 . S
H1039 C1069 0.950 . S
C1040 H1022 0.951 . S
C1040 C1041 1.366 . S
C1040 C1042 1.388 . S
C1041 C1040 1.366 . S
C1041 C1045 1.385 . S
C1042 H1023 0.951 . S
C1042 C1040 1.388 . S
C1042 C1043 1.366 . S
C1043 C1042 1.366 . S
C1043 C1044 1.414 . S
C1043 C1046 1.499 . S
C1044 H1024 0.950 . S
C1044 C1043 1.414 . S
C1044 C1045 1.374 . S
C1045 H1025 0.950 . S
C1045 C1041 1.385 . S
C1045 C1044 1.374 . S
C1046 C1043 1.499 . S
C1046 C1047 1.373 1_556 S
C1046 C1048 1.389 . S
C1047 H1026 0.950 . S
C1047 C1046 1.373 1_554 S
C1047 C1063 1.377 . S
C1048 C1046 1.389 . S
C1048 C1049 1.524 . S
C1048 C1062 1.377 . S
C1049 C1048 1.524 . S
C1049 C1050 1.397 . S
C1049 C1054 1.363 . S
C1050 H1027 0.950 . S
C1050 C1049 1.397 . S
C1050 C1051 1.334 . S
C1051 H1028 0.950 . S
C1051 C1050 1.334 . S
C1051 C1052 1.287 . S
C1052 C1051 1.287 . S
C1052 C1053 1.524 . S
C1052 H1071 0.913 . S
C1053 H1029 0.950 . S
C1053 C1052 1.524 . S
C1053 C1054 1.415 . S
C1054 H1030 0.950 . S
C1054 C1049 1.363 . S
C1054 C1053 1.415 . S
C1055 H1031 0.951 . S
C1055 C1056 1.366 1_655 S
C1055 C1057 1.388 . S
C1056 C1055 1.366 1_455 S
C1056 C1060 1.385 . S
C1057 H1032 0.951 . S
C1057 C1055 1.388 . S
C1057 C1058 1.366 . S
C1058 C1057 1.366 . S
C1058 C1059 1.414 . S
C1058 C1061 1.499 . S
C1059 H1033 0.958 . S
C1059 C1058 1.414 . S
C1059 C1060 1.374 1_655 S
C1060 H1034 0.950 . S
C1060 C1056 1.385 . S
C1060 C1059 1.374 1_455 S
C1061 C1058 1.499 . S
C1061 C1062 1.373 1_554 S
C1061 C1063 1.389 . S
C1062 H1035 0.950 . S
C1062 C1048 1.377 . S
C1062 C1061 1.373 1_556 S
C1063 C1047 1.377 . S
C1063 C1061 1.389 . S
C1063 C1064 1.524 . S
C1064 C1063 1.524 . S
C1064 C1065 1.397 . S
C1064 C1069 1.363 . S
C1065 H1036 0.950 . S
C1065 C1064 1.397 . S
C1065 C1066 1.334 . S
C1066 H1037 0.950 . S
C1066 C1065 1.334 . S
C1066 C1067 1.287 . S
C1067 C1066 1.287 . S
C1067 C1068 1.524 . S
C1067 H1070 0.999 . S
C1068 H1038 0.950 . S
C1068 C1067 1.524 . S
C1068 C1069 1.415 . S
C1069 H1039 0.950 . S
C1069 C1064 1.363 . S
C1069 C1068 1.415 . S
H1070 C1067 0.999 . S
H1071 C1052 0.913 . S
H1072 C1090 0.951 . S
H1073 C1092 0.951 . S
H1074 C1094 0.950 . S
H1075 C1095 0.950 . S
H1076 C1097 0.950 . S
H1077 C1100 0.950 . S
H1078 C1101 0.950 . S
H1079 C1103 0.950 . S
H1080 C1104 0.950 . S
H1081 C1105 0.951 . S
H1082 C1107 0.951 . S
H1083 C1109 0.950 . S
H1084 C1110 0.950 . S
H1085 C1112 0.950 . S
H1086 C1115 0.950 . S
H1087 C1116 0.950 . S
H1088 C1118 0.950 . S
H1089 C1119 0.950 . S
C1090 H1072 0.951 . S
C1090 C1091 1.366 . S
C1090 C1092 1.388 . S
C1091 C1090 1.366 . S
C1091 C1095 1.385 . S
C1092 H1073 0.951 . S
C1092 C1090 1.388 . S
C1092 C1093 1.366 . S
C1093 C1092 1.366 . S
C1093 C1094 1.414 . S
C1093 C1096 1.499 . S
C1094 H1074 0.950 . S
C1094 C1093 1.414 . S
C1094 C1095 1.374 . S
C1095 H1075 0.950 . S
C1095 C1091 1.385 . S
C1095 C1094 1.374 . S
C1096 C1093 1.499 . S
C1096 C1097 1.373 . S
C1096 C1098 1.389 . S
C1097 H1076 0.950 . S
C1097 C1096 1.373 . S
C1097 C1113 1.377 . S
C1098 C1096 1.389 . S
C1098 C1099 1.524 . S
C1098 C1112 1.377 . S
C1099 C1098 1.524 . S
C1099 C1100 1.397 . S
C1099 C1104 1.363 . S
C1100 H1077 0.950 . S
C1100 C1099 1.397 . S
C1100 C1101 1.334 . S
C1101 H1078 0.950 . S
C1101 C1100 1.334 . S
C1101 C1102 1.287 . S
C1102 C1101 1.287 . S
C1102 C1103 1.524 . S
C1102 H1121 0.913 . S
C1103 H1079 0.950 . S
C1103 C1102 1.524 . S
C1103 C1104 1.415 . S
C1104 H1080 0.950 . S
C1104 C1099 1.363 . S
C1104 C1103 1.415 . S
C1105 H1081 0.951 . S
C1105 C1106 1.366 . S
C1105 C1107 1.388 . S
C1106 C1105 1.366 . S
C1106 C1110 1.385 . S
C1107 H1082 0.951 . S
C1107 C1105 1.388 . S
C1107 C1108 1.366 . S
C1108 C1107 1.366 . S
C1108 C1109 1.414 . S
C1108 C1111 1.499 . S
C1109 H1083 0.950 . S
C1109 C1108 1.414 . S
C1109 C1110 1.374 . S
C1110 H1084 0.950 . S
C1110 C1106 1.385 . S
C1110 C1109 1.374 . S
C1111 C1108 1.499 . S
C1111 C1112 1.373 . S
C1111 C1113 1.389 . S
C1112 H1085 0.950 . S
C1112 C1098 1.377 . S
C1112 C1111 1.373 . S
C1113 C1097 1.377 . S
C1113 C1111 1.389 . S
C1113 C1114 1.524 . S
C1114 C1113 1.524 . S
C1114 C1115 1.397 . S
C1114 C1119 1.363 . S
C1115 H1086 0.950 . S
C1115 C1114 1.397 . S
C1115 C1116 1.334 . S
C1116 H1087 0.950 . S
C1116 C1115 1.334 . S
C1116 C1117 1.287 . S
C1117 C1116 1.287 . S
C1117 C1118 1.524 . S
C1117 H1120 0.999 . S
C1118 H1088 0.950 . S
C1118 C1117 1.524 . S
C1118 C1119 1.415 . S
C1119 H1089 0.950 . S
C1119 C1114 1.363 . S
C1119 C1118 1.415 . S
H1120 C1117 0.999 . S
H1121 C1102 0.913 . S
H1122 C1140 0.951 . S
H1123 C1142 0.951 . S
H1124 C1144 0.950 . S
H1125 C1145 0.950 . S
H1126 C1147 0.950 . S
H1127 C1150 0.950 . S
H1128 C1151 0.950 . S
H1129 C1153 0.950 . S
H1130 C1154 0.950 . S
H1131 C1155 0.951 . S
H1132 C1157 0.951 . S
H1133 C1159 0.950 . S
H1134 C1160 0.950 . S
H1135 C1162 0.950 . S
H1136 C1165 0.950 . S
H1137 C1166 0.950 . S
H1138 C1168 0.950 . S
H1139 C1169 0.950 . S
C1140 H1122 0.951 . S
C1140 C1141 1.366 . S
C1140 C1142 1.388 . S
C1141 C1140 1.366 . S
C1141 C1145 1.385 . S
C1142 H1123 0.951 . S
C1142 C1140 1.388 . S
C1142 C1143 1.366 . S
C1143 C1142 1.366 . S
C1143 C1144 1.414 . S
C1143 C1146 1.499 . S
C1144 H1124 0.950 . S
C1144 C1143 1.414 . S
C1144 C1145 1.374 . S
C1145 H1125 0.950 . S
C1145 C1141 1.385 . S
C1145 C1144 1.374 . S
C1146 C1143 1.499 . S
C1146 C1147 1.373 . S
C1146 C1148 1.389 . S
C1147 H1126 0.950 . S
C1147 C1146 1.373 . S
C1147 C1163 1.377 . S
C1148 C1146 1.389 . S
C1148 C1149 1.524 . S
C1148 C1162 1.377 . S
C1149 C1148 1.524 . S
C1149 C1150 1.397 . S
C1149 C1154 1.363 . S
C1150 H1127 0.950 . S
C1150 C1149 1.397 . S
C1150 C1151 1.334 . S
C1151 H1128 0.950 . S
C1151 C1150 1.334 . S
C1151 C1152 1.287 . S
C1152 C1151 1.287 . S
C1152 C1153 1.524 . S
C1152 H1171 0.913 . S
C1153 H1129 0.950 . S
C1153 C1152 1.524 . S
C1153 C1154 1.415 . S
C1154 H1130 0.950 . S
C1154 C1149 1.363 . S
C1154 C1153 1.415 . S
C1155 H1131 0.951 . S
C1155 C1156 1.366 . S
C1155 C1157 1.388 . S
C1156 C1155 1.366 . S
C1156 C1160 1.385 . S
C1157 H1132 0.951 . S
C1157 C1155 1.388 . S
C1157 C1158 1.366 . S
C1158 C1157 1.366 . S
C1158 C1159 1.414 . S
C1158 C1161 1.499 . S
C1159 H1133 0.950 . S
C1159 C1158 1.414 . S
C1159 C1160 1.374 . S
C1160 H1134 0.950 . S
C1160 C1156 1.385 . S
C1160 C1159 1.374 . S
C1161 C1158 1.499 . S
C1161 C1162 1.373 . S
C1161 C1163 1.389 . S
C1162 H1135 0.950 . S
C1162 C1148 1.377 . S
C1162 C1161 1.373 . S
C1163 C1147 1.377 . S
C1163 C1161 1.389 . S
C1163 C1164 1.524 . S
C1164 C1163 1.524 . S
C1164 C1165 1.397 . S
C1164 C1169 1.363 . S
C1165 H1136 0.950 . S
C1165 C1164 1.397 . S
C1165 C1166 1.334 . S
C1166 H1137 0.950 . S
C1166 C1165 1.334 . S
C1166 C1167 1.287 . S
C1167 C1166 1.287 . S
C1167 C1168 1.524 . S
C1167 H1170 0.999 . S
C1168 H1138 0.950 . S
C1168 C1167 1.524 . S
C1168 C1169 1.415 . S
C1169 H1139 0.950 . S
C1169 C1164 1.363 . S
C1169 C1168 1.415 . S
H1170 C1167 0.999 . S
H1171 C1152 0.913 . S
H1172 C1190 0.951 . S
H1173 C1192 0.951 . S
H1174 C1194 0.950 . S
H1175 C1195 0.950 . S
H1176 C1197 0.950 . S
H1177 C1200 0.950 . S
H1178 C1201 0.950 . S
H1179 C1203 0.950 . S
H1180 C1204 0.950 . S
H1181 C1205 0.951 . S
H1182 C1207 0.951 . S
H1183 C1209 0.950 . S
H1184 C1210 0.950 . S
H1185 C1212 0.950 . S
H1186 C1215 0.950 . S
H1187 C1216 0.950 . S
H1188 C1218 0.950 . S
H1189 C1219 0.950 . S
C1190 H1172 0.951 . S
C1190 C1191 1.366 . S
C1190 C1192 1.388 . S
C1191 C1190 1.366 . S
C1191 C1195 1.385 . S
C1192 H1173 0.951 . S
C1192 C1190 1.388 . S
C1192 C1193 1.366 . S
C1193 C1192 1.366 . S
C1193 C1194 1.414 . S
C1193 C1196 1.499 . S
C1194 H1174 0.950 . S
C1194 C1193 1.414 . S
C1194 C1195 1.374 . S
C1195 H1175 0.950 . S
C1195 C1191 1.385 . S
C1195 C1194 1.374 . S
C1196 C1193 1.499 . S
C1196 C1197 1.373 . S
C1196 C1198 1.389 . S
C1197 H1176 0.950 . S
C1197 C1196 1.373 . S
C1197 C1213 1.377 . S
C1198 C1196 1.389 . S
C1198 C1199 1.524 . S
C1198 C1212 1.377 . S
C1199 C1198 1.524 . S
C1199 C1200 1.397 . S
C1199 C1204 1.363 . S
C1200 H1177 0.950 . S
C1200 C1199 1.397 . S
C1200 C1201 1.334 . S
C1201 H1178 0.950 . S
C1201 C1200 1.334 . S
C1201 C1202 1.287 . S
C1202 C1201 1.287 . S
C1202 C1203 1.524 . S
C1202 H1221 0.913 . S
C1203 H1179 0.950 . S
C1203 C1202 1.524 . S
C1203 C1204 1.415 . S
C1204 H1180 0.950 . S
C1204 C1199 1.363 . S
C1204 C1203 1.415 . S
C1205 H1181 0.951 . S
C1205 C1206 1.366 . S
C1205 C1207 1.388 . S
C1206 C1205 1.366 . S
C1206 C1210 1.385 . S
C1207 H1182 0.951 . S
C1207 C1205 1.388 . S
C1207 C1208 1.366 . S
C1208 C1207 1.366 . S
C1208 C1209 1.414 . S
C1208 C1211 1.499 . S
C1209 H1183 0.950 . S
C1209 C1208 1.414 . S
C1209 C1210 1.374 . S
C1210 H1184 0.950 . S
C1210 C1206 1.385 . S
C1210 C1209 1.374 . S
C1211 C1208 1.499 . S
C1211 C1212 1.373 . S
C1211 C1213 1.389 . S
C1212 H1185 0.950 . S
C1212 C1198 1.377 . S
C1212 C1211 1.373 . S
C1213 C1197 1.377 . S
C1213 C1211 1.389 . S
C1213 C1214 1.524 . S
C1214 C1213 1.524 . S
C1214 C1215 1.397 . S
C1214 C1219 1.363 . S
C1215 H1186 0.950 . S
C1215 C1214 1.397 . S
C1215 C1216 1.334 . S
C1216 H1187 0.950 . S
C1216 C1215 1.334 . S
C1216 C1217 1.287 . S
C1217 C1216 1.287 . S
C1217 C1218 1.524 . S
C1217 H1220 0.999 . S
C1218 H1188 0.950 . S
C1218 C1217 1.524 . S
C1218 C1219 1.415 . S
C1219 H1189 0.950 . S
C1219 C1214 1.363 . S
C1219 C1218 1.415 . S
H1220 C1217 0.999 . S
H1221 C1202 0.913 . S
H1222 C1240 0.951 . S
H1223 C1242 0.951 . S
H1224 C1244 0.950 . S
H1225 C1245 0.950 . S
H1226 C1247 0.950 . S
H1227 C1250 0.950 . S
H1228 C1251 0.950 . S
H1229 C1253 0.950 . S
H1230 C1254 0.950 . S
H1231 C1255 0.951 . S
H1232 C1257 0.951 . S
H1233 C1259 0.950 . S
H1234 C1260 0.950 . S
H1235 C1262 0.950 . S
H1236 C1265 0.950 . S
H1237 C1266 0.950 . S
H1238 C1268 0.950 . S
H1239 C1269 0.950 . S
C1240 H1222 0.951 . S
C1240 C1241 1.366 . S
C1240 C1242 1.388 . S
C1241 C1240 1.366 . S
C1241 C1245 1.385 . S
C1242 H1223 0.951 . S
C1242 C1240 1.388 . S
C1242 C1243 1.366 . S
C1243 C1242 1.366 . S
C1243 C1244 1.414 . S
C1243 C1246 1.499 . S
C1244 H1224 0.950 . S
C1244 C1243 1.414 . S
C1244 C1245 1.374 . S
C1245 H1225 0.950 . S
C1245 C1241 1.385 . S
C1245 C1244 1.374 . S
C1246 C1243 1.499 . S
C1246 C1247 1.373 . S
C1246 C1248 1.389 . S
C1247 H1226 0.950 . S
C1247 C1246 1.373 . S
C1247 C1263 1.377 . S
C1248 C1246 1.389 . S
C1248 C1249 1.524 . S
C1248 C1262 1.377 . S
C1249 C1248 1.524 . S
C1249 C1250 1.397 . S
C1249 C1254 1.363 . S
C1250 H1227 0.950 . S
C1250 C1249 1.397 . S
C1250 C1251 1.334 . S
C1251 H1228 0.950 . S
C1251 C1250 1.334 . S
C1251 C1252 1.287 . S
C1252 C1251 1.287 . S
C1252 C1253 1.524 . S
C1252 H1271 0.913 . S
C1253 H1229 0.950 . S
C1253 C1252 1.524 . S
C1253 C1254 1.415 . S
C1254 H1230 0.950 . S
C1254 C1249 1.363 . S
C1254 C1253 1.415 . S
C1255 H1231 0.951 . S
C1255 C1256 1.366 . S
C1255 C1257 1.388 . S
C1256 C1255 1.366 . S
C1256 C1260 1.385 . S
C1257 H1232 0.951 . S
C1257 C1255 1.388 . S
C1257 C1258 1.366 . S
C1258 C1257 1.366 . S
C1258 C1259 1.414 . S
C1258 C1261 1.499 . S
C1259 H1233 0.950 . S
C1259 C1258 1.414 . S
C1259 C1260 1.374 . S
C1260 H1234 0.950 . S
C1260 C1256 1.385 . S
C1260 C1259 1.374 . S
C1261 C1258 1.499 . S
C1261 C1262 1.373 . S
C1261 C1263 1.389 . S
C1262 H1235 0.950 . S
C1262 C1248 1.377 . S
C1262 C1261 1.373 . S
C1263 C1247 1.377 . S
C1263 C1261 1.389 . S
C1263 C1264 1.524 . S
C1264 C1263 1.524 . S
C1264 C1265 1.397 . S
C1264 C1269 1.363 . S
C1265 H1236 0.950 . S
C1265 C1264 1.397 . S
C1265 C1266 1.334 . S
C1266 H1237 0.950 . S
C1266 C1265 1.334 . S
C1266 C1267 1.287 . S
C1267 C1266 1.287 . S
C1267 C1268 1.524 . S
C1267 H1270 0.999 . S
C1268 H1238 0.950 . S
C1268 C1267 1.524 . S
C1268 C1269 1.415 . S
C1269 H1239 0.950 . S
C1269 C1264 1.363 . S
C1269 C1268 1.415 . S
H1270 C1267 0.999 . S
H1271 C1252 0.913 . S
C491 C123 1.455 . S
C506 C5 1.454 . S
C541 C182 1.455 . S
C556 C64 1.454 . S
C591 C241 1.454 . S
C606 C359 1.454 . S
C641 C300 1.454 . S
C656 C418 1.454 . S
C691 C92 1.306 . S
C706 C52 1.298 . S
C741 C111 1.297 . S
C756 C151 1.306 . S
C791 C210 1.306 . S
C806 C170 1.297 . S
C841 C229 1.298 . S
C856 C33 1.306 . S
C891 C446 1.306 . S
C906 C288 1.298 . S
C941 C347 1.298 . S
C956 C269 1.306 . S
C991 C406 1.298 . S
C1006 C328 1.306 . S
C1041 C465 1.297 . S
C1056 C387 1.306 . S
C1091 C3 1.692 . S
C1106 C298 1.693 . S
C1141 C357 1.692 . S
C1156 C62 1.693 . S
C1191 C121 1.693 . S
C1206 C416 1.692 . S
C1241 C180 1.693 . S
C1256 C239 1.693 . S
