# Generated by pormake.
# Topology umg, (4)-cn, num edge types: 1
# Building blocks:
#     Node 0, Type 0, BuildingBlock: ESEHIV_clean_sbu_0, # of connection points: 4
#     Node 1, Type 0, BuildingBlock: ESEHIV_clean_sbu_0, # of connection points: 4
#     Node 2, Type 0, BuildingBlock: ESEHIV_clean_sbu_0, # of connection points: 4
#     Node 3, Type 0, BuildingBlock: ESEHIV_clean_sbu_0, # of connection points: 4
#     Node 4, Type 0, BuildingBlock: ESEHIV_clean_sbu_0, # of connection points: 4
#     Node 5, Type 0, BuildingBlock: ESEHIV_clean_sbu_0, # of connection points: 4
#     Node 6, Type 0, BuildingBlock: ESEHIV_clean_sbu_0, # of connection points: 4
#     Node 7, Type 0, BuildingBlock: ESEHIV_clean_sbu_0, # of connection points: 4
#     Node 8, Type 0, BuildingBlock: ESEHIV_clean_sbu_0, # of connection points: 4
#     Node 9, Type 0, BuildingBlock: ESEHIV_clean_sbu_0, # of connection points: 4
#     Node 10, Type 0, BuildingBlock: ESEHIV_clean_sbu_0, # of connection points: 4
#     Node 11, Type 0, BuildingBlock: ESEHIV_clean_sbu_0, # of connection points: 4
#     Edge 12, Type (0, 0), BuildingBlock: TEMPAE_clean_linker_10, # of connection points: 2
#     Edge 13, Type (0, 0), BuildingBlock: TEMPAE_clean_linker_10, # of connection points: 2
#     Edge 14, Type (0, 0), BuildingBlock: TEMPAE_clean_linker_10, # of connection points: 2
#     Edge 15, Type (0, 0), BuildingBlock: TEMPAE_clean_linker_10, # of connection points: 2
#     Edge 16, Type (0, 0), BuildingBlock: TEMPAE_clean_linker_10, # of connection points: 2
#     Edge 17, Type (0, 0), BuildingBlock: TEMPAE_clean_linker_10, # of connection points: 2
#     Edge 18, Type (0, 0), BuildingBlock: TEMPAE_clean_linker_10, # of connection points: 2
#     Edge 19, Type (0, 0), BuildingBlock: TEMPAE_clean_linker_10, # of connection points: 2
#     Edge 20, Type (0, 0), BuildingBlock: TEMPAE_clean_linker_10, # of connection points: 2
#     Edge 21, Type (0, 0), BuildingBlock: TEMPAE_clean_linker_10, # of connection points: 2
#     Edge 22, Type (0, 0), BuildingBlock: TEMPAE_clean_linker_10, # of connection points: 2
#     Edge 23, Type (0, 0), BuildingBlock: TEMPAE_clean_linker_10, # of connection points: 2
#     Edge 24, Type (0, 0), BuildingBlock: TEMPAE_clean_linker_10, # of connection points: 2
#     Edge 25, Type (0, 0), BuildingBlock: TEMPAE_clean_linker_10, # of connection points: 2
#     Edge 26, Type (0, 0), BuildingBlock: TEMPAE_clean_linker_10, # of connection points: 2
#     Edge 27, Type (0, 0), BuildingBlock: TEMPAE_clean_linker_10, # of connection points: 2
#     Edge 28, Type (0, 0), BuildingBlock: TEMPAE_clean_linker_10, # of connection points: 2
#     Edge 29, Type (0, 0), BuildingBlock: TEMPAE_clean_linker_10, # of connection points: 2
#     Edge 30, Type (0, 0), BuildingBlock: TEMPAE_clean_linker_10, # of connection points: 2
#     Edge 31, Type (0, 0), BuildingBlock: TEMPAE_clean_linker_10, # of connection points: 2
#     Edge 32, Type (0, 0), BuildingBlock: TEMPAE_clean_linker_10, # of connection points: 2
#     Edge 33, Type (0, 0), BuildingBlock: TEMPAE_clean_linker_10, # of connection points: 2
#     Edge 34, Type (0, 0), BuildingBlock: TEMPAE_clean_linker_10, # of connection points: 2
#     Edge 35, Type (0, 0), BuildingBlock: TEMPAE_clean_linker_10, # of connection points: 2
# Relax obj value: 0.031
# Max RMSD: 0.108
# Mean RMSD: 0.083
data_MOF--net-umg--node1-ESEHIV_clean_sbu_0--edge1-TEMPAE_clean_linker_10
_symmetry_space_group_name_H-M    P1
_symmetry_Int_Tables_number       1
_symmetry_cell_setting            triclinic
loop_
_symmetry_equiv_pos_as_xyz
'x, y, z'
_cell_length_a     29.682753
_cell_length_b     34.713481
_cell_length_c     90.15205
_cell_angle_alpha  89.922295
_cell_angle_beta   89.854791
_cell_angle_gamma 115.48616
loop_
_atom_site_label
_atom_site_type_symbol
_atom_site_fract_x
_atom_site_fract_y
_atom_site_fract_z
_atom_type_partial_charge
Cu0 Cu 0.30693 0.57408 0.11663 0.0
N1 N 0.28991 0.53943 0.09967 0.0
N2 N 0.28196 0.52593 0.07528 0.0
C3 C 0.29576 0.5561 0.08592 0.0
C4 C 0.26681 0.48852 0.08267 0.0
C5 C 0.2715 0.49692 0.09774 0.0
O6 O 0.38032 0.60403 0.11644 0.0
C7 C 0.21937 0.57906 0.11492 0.0
O8 O 0.20788 0.53809 0.11578 0.0
H9 H 0.31087 0.59007 0.0838 0.0
H10 H 0.26224 0.47372 0.10659 0.0
N11 N 0.29054 0.54611 0.13507 0.0
N12 N 0.28638 0.54355 0.15988 0.0
C13 C 0.28981 0.56692 0.14761 0.0
C14 C 0.28683 0.50781 0.13956 0.0
C15 C 0.28454 0.50626 0.1549 0.0
C16 C 0.39926 0.57719 0.11689 0.0
O17 O 0.36873 0.53639 0.11669 0.0
H18 H 0.29519 0.59981 0.14775 0.0
H19 H 0.28853 0.48366 0.13234 0.0
O20 O 0.26552 0.60542 0.11537 0.0
H21 H 0.25291 0.45733 0.07757 0.0
H22 H 0.28325 0.48035 0.16185 0.0
Cu23 Cu 0.74931 0.29361 0.43567 0.0
N24 N 0.72965 0.23551 0.43903 0.0
N25 N 0.67937 0.16597 0.44105 0.0
C26 C 0.683 0.20478 0.43726 0.0
C27 C 0.72559 0.17236 0.4453 0.0
C28 C 0.75653 0.21545 0.44414 0.0
O29 O 0.73286 0.317 0.45333 0.0
C30 C 0.73079 0.33228 0.40983 0.0
O31 O 0.76544 0.36789 0.41513 0.0
H32 H 0.65223 0.2108 0.43328 0.0
H33 H 0.79556 0.23108 0.4471 0.0
N34 N 0.81832 0.32248 0.43296 0.0
N35 N 0.89445 0.37655 0.43194 0.0
C36 C 0.84589 0.36448 0.43521 0.0
C37 C 0.85059 0.30742 0.42808 0.0
C38 C 0.89779 0.34075 0.42755 0.0
C39 C 0.68968 0.3016 0.45923 0.0
O40 O 0.65225 0.27169 0.45221 0.0
H41 H 0.83055 0.38586 0.43912 0.0
H42 H 0.84044 0.27472 0.42489 0.0
O43 O 0.71643 0.29831 0.41754 0.0
H44 H 0.73586 0.14787 0.44935 0.0
H45 H 0.9316 0.33909 0.42381 0.0
Cu46 Cu 0.48304 0.74141 0.75521 0.0
N47 N 0.52471 0.71367 0.75624 0.0
N48 N 0.54696 0.65972 0.75699 0.0
C49 C 0.50979 0.67184 0.75904 0.0
C50 C 0.58688 0.69553 0.75275 0.0
C51 C 0.57294 0.72858 0.75218 0.0
O52 O 0.44195 0.72726 0.773 0.0
C53 C 0.4152 0.73233 0.73042 0.0
O54 O 0.39316 0.75099 0.73837 0.0
H55 H 0.4716 0.65024 0.76162 0.0
H56 H 0.59576 0.76065 0.74833 0.0
N57 N 0.52059 0.80061 0.7557 0.0
N58 N 0.53821 0.87014 0.75587 0.0
C59 C 0.50437 0.83034 0.75233 0.0
C60 C 0.56608 0.82228 0.76167 0.0
C61 C 0.57723 0.86509 0.76168 0.0
C62 C 0.40647 0.69194 0.77683 0.0
O63 O 0.38942 0.66017 0.76736 0.0
H64 H 0.46735 0.82262 0.74818 0.0
H65 H 0.58862 0.8079 0.76641 0.0
O66 O 0.44979 0.72486 0.73613 0.0
H67 H 0.62323 0.69762 0.74983 0.0
H68 H 0.61099 0.89033 0.76599 0.0
Cu69 Cu 0.78676 0.53093 0.11448 0.0
N70 N 0.78654 0.49984 0.09753 0.0
N71 N 0.77984 0.475 0.0743 0.0
C72 C 0.7764 0.50499 0.08327 0.0
C73 C 0.79247 0.45027 0.08341 0.0
C74 C 0.79675 0.46573 0.0976 0.0
O75 O 0.74847 0.56371 0.11074 0.0
C76 C 0.88854 0.58693 0.11022 0.0
O77 O 0.87252 0.59228 0.09716 0.0
H78 H 0.76712 0.53038 0.07961 0.0
H79 H 0.8061 0.4527 0.1074 0.0
N80 N 0.7538 0.49061 0.1293 0.0
N81 N 0.73273 0.4536 0.15048 0.0
C82 C 0.76337 0.49083 0.14396 0.0
C83 C 0.7158 0.45224 0.12665 0.0
C84 C 0.703 0.42924 0.13965 0.0
C85 C 0.73735 0.58319 0.12106 0.0
O86 O 0.75682 0.58513 0.13427 0.0
H87 H 0.79305 0.51693 0.14959 0.0
H88 H 0.69941 0.44137 0.11586 0.0
O89 O 0.85665 0.56422 0.11987 0.0
H90 H 0.79735 0.4223 0.08019 0.0
H91 H 0.67454 0.39691 0.14106 0.0
Cu92 Cu 0.3055 0.76357 0.43769 0.0
N93 N 0.32096 0.82173 0.43816 0.0
N94 N 0.36777 0.89224 0.43836 0.0
C95 C 0.36428 0.85371 0.44253 0.0
C96 C 0.32491 0.88432 0.43116 0.0
C97 C 0.29614 0.84081 0.43106 0.0
O98 O 0.32774 0.74755 0.456 0.0
C99 C 0.33438 0.72288 0.4132 0.0
O100 O 0.31676 0.68683 0.42066 0.0
H101 H 0.39435 0.84885 0.4476 0.0
H102 H 0.26106 0.82408 0.42534 0.0
N103 N 0.23621 0.73213 0.43748 0.0
N104 N 0.16141 0.67616 0.43741 0.0
C105 C 0.21004 0.69091 0.43362 0.0
C106 C 0.20292 0.74375 0.44387 0.0
C107 C 0.15674 0.70932 0.44383 0.0
C108 C 0.37206 0.76056 0.46085 0.0
O109 O 0.40981 0.78396 0.45227 0.0
H110 H 0.22671 0.67129 0.42906 0.0
H111 H 0.21212 0.77446 0.44891 0.0
O112 O 0.33435 0.75614 0.4191 0.0
H113 H 0.31604 0.9081 0.42579 0.0
H114 H 0.12271 0.70831 0.44858 0.0
Cu115 Cu 0.56519 0.27189 0.75323 0.0
N116 N 0.52806 0.30337 0.75113 0.0
N117 N 0.5079 0.35849 0.75141 0.0
C118 C 0.54161 0.34393 0.75547 0.0
C119 C 0.47164 0.32552 0.74428 0.0
C120 C 0.48428 0.29169 0.74409 0.0
O121 O 0.59984 0.28596 0.7721 0.0
C122 C 0.62791 0.31498 0.72855 0.0
O123 O 0.62976 0.35024 0.73441 0.0
H124 H 0.57652 0.36286 0.76097 0.0
H125 H 0.46353 0.26101 0.73891 0.0
N126 N 0.52299 0.21377 0.75417 0.0
N127 N 0.49948 0.1433 0.75421 0.0
C128 C 0.53703 0.18229 0.75168 0.0
C129 C 0.47492 0.19424 0.75846 0.0
C130 C 0.46026 0.15074 0.75847 0.0
C131 C 0.63761 0.31983 0.77577 0.0
O132 O 0.66052 0.34938 0.76575 0.0
H133 H 0.57473 0.18815 0.74864 0.0
H134 H 0.45248 0.21049 0.76169 0.0
O135 O 0.60613 0.27993 0.73559 0.0
H136 H 0.43848 0.32577 0.73943 0.0
H137 H 0.42368 0.12658 0.76149 0.0
Cu138 Cu 0.49056 0.76579 0.59522 0.0
N139 N 0.53313 0.82431 0.595 0.0
N140 N 0.55601 0.89485 0.59453 0.0
C141 C 0.52123 0.85585 0.59054 0.0
C142 C 0.59133 0.88743 0.60174 0.0
C143 C 0.57687 0.84406 0.60216 0.0
O144 O 0.45389 0.75014 0.57662 0.0
C145 C 0.41948 0.72325 0.61922 0.0
O146 O 0.4031 0.68746 0.6117 0.0
H147 H 0.48602 0.85014 0.58547 0.0
H148 H 0.59533 0.82806 0.60819 0.0
N149 N 0.52726 0.7334 0.59601 0.0
N150 N 0.54359 0.6761 0.59567 0.0
C151 C 0.50807 0.69051 0.59693 0.0
C152 C 0.57659 0.74656 0.59391 0.0
C153 C 0.58682 0.71145 0.59382 0.0
C154 C 0.42204 0.76224 0.57161 0.0
O155 O 0.40626 0.7847 0.58009 0.0
H156 H 0.46852 0.67018 0.5977 0.0
H157 H 0.60316 0.77915 0.5919 0.0
O158 O 0.4521 0.75738 0.61345 0.0
H159 H 0.62426 0.91137 0.60694 0.0
H160 H 0.62324 0.71202 0.59223 0.0
Cu161 Cu 0.73405 0.44195 0.9218 0.0
N162 N 0.71424 0.41872 0.94077 0.0
N163 N 0.70998 0.41411 0.9656 0.0
C164 C 0.73269 0.43867 0.95369 0.0
C165 C 0.676 0.37711 0.95978 0.0
C166 C 0.67862 0.38015 0.94452 0.0
O167 O 0.80704 0.47386 0.92168 0.0
C168 C 0.68244 0.49488 0.92572 0.0
O169 O 0.70562 0.50529 0.93851 0.0
H170 H 0.76166 0.47095 0.95422 0.0
H171 H 0.65598 0.35601 0.9367 0.0
N172 N 0.71892 0.39926 0.90753 0.0
N173 N 0.7065 0.36925 0.88507 0.0
C174 C 0.71197 0.40395 0.893 0.0
C175 C 0.71761 0.36018 0.90888 0.0
C176 C 0.71 0.34159 0.89503 0.0
C177 C 0.83027 0.45279 0.92652 0.0
O178 O 0.80385 0.41379 0.93141 0.0
H179 H 0.7128 0.43293 0.88828 0.0
H180 H 0.72297 0.34654 0.91914 0.0
O181 O 0.69385 0.4723 0.91667 0.0
H182 H 0.65104 0.34948 0.966 0.0
H183 H 0.70743 0.31025 0.89248 0.0
Cu184 Cu 0.30745 0.74188 0.2748 0.0
N185 N 0.2378 0.7162 0.27298 0.0
N186 N 0.16002 0.66471 0.27072 0.0
C187 C 0.20906 0.67611 0.26839 0.0
C188 C 0.15775 0.6993 0.27686 0.0
C189 C 0.20573 0.73093 0.27825 0.0
O190 O 0.333 0.71486 0.2602 0.0
C191 C 0.36032 0.73828 0.30174 0.0
O192 O 0.40147 0.75046 0.29386 0.0
H193 H 0.22377 0.65469 0.26424 0.0
H194 H 0.21666 0.76179 0.28339 0.0
N195 N 0.33184 0.80029 0.27043 0.0
N196 N 0.37988 0.87076 0.26866 0.0
C197 C 0.37525 0.83311 0.27443 0.0
C198 C 0.30852 0.81767 0.26183 0.0
C199 C 0.33781 0.86087 0.26072 0.0
C200 C 0.32401 0.67559 0.26089 0.0
O201 O 0.30421 0.65401 0.27307 0.0
H202 H 0.40273 0.82937 0.28139 0.0
H203 H 0.27289 0.79993 0.25652 0.0
O204 O 0.31983 0.73311 0.29543 0.0
H205 H 0.12404 0.70122 0.28054 0.0
H206 H 0.32925 0.88301 0.25418 0.0
Cu207 Cu 0.57074 0.29541 0.59238 0.0
N208 N 0.53313 0.23652 0.59374 0.0
N209 N 0.51418 0.16677 0.59374 0.0
C210 C 0.55013 0.20674 0.59152 0.0
C211 C 0.47295 0.17185 0.59749 0.0
C212 C 0.48479 0.21487 0.59749 0.0
O213 O 0.61468 0.30618 0.57523 0.0
C214 C 0.63275 0.30258 0.6177 0.0
O215 O 0.64786 0.27724 0.61059 0.0
H216 H 0.58852 0.21449 0.58868 0.0
H217 H 0.46003 0.22938 0.60016 0.0
N218 N 0.52903 0.32242 0.58943 0.0
N219 N 0.504 0.37469 0.58916 0.0
C220 C 0.53802 0.36173 0.59425 0.0
C221 C 0.48765 0.30969 0.5811 0.0
C222 C 0.47205 0.34185 0.58092 0.0
C223 C 0.62704 0.33909 0.56702 0.0
O224 O 0.61622 0.37022 0.57136 0.0
H225 H 0.57063 0.3813 0.60067 0.0
H226 H 0.47093 0.27971 0.5752 0.0
O227 O 0.60352 0.31538 0.61129 0.0
H228 H 0.43669 0.14638 0.6 0.0
H229 H 0.44019 0.34128 0.57495 0.0
Cu230 Cu 0.30365 0.5724 0.92284 0.0
N231 N 0.32328 0.59484 0.94189 0.0
N232 N 0.32914 0.5979 0.96667 0.0
C233 C 0.30389 0.57499 0.95483 0.0
C234 C 0.36565 0.6337 0.9609 0.0
C235 C 0.36194 0.63169 0.94563 0.0
O236 O 0.23077 0.54007 0.9226 0.0
C237 C 0.35642 0.52045 0.92657 0.0
O238 O 0.33393 0.51031 0.93952 0.0
H239 H 0.27306 0.54356 0.95548 0.0
H240 H 0.38639 0.65496 0.9378 0.0
N241 N 0.31877 0.61544 0.90862 0.0
N242 N 0.33154 0.64558 0.88612 0.0
C243 C 0.32805 0.61162 0.8942 0.0
C244 C 0.31656 0.65323 0.90977 0.0
C245 C 0.32433 0.67189 0.89588 0.0
C246 C 0.2065 0.55946 0.92809 0.0
O247 O 0.23168 0.59748 0.93386 0.0
H248 H 0.32999 0.58357 0.8896 0.0
H249 H 0.30841 0.66575 0.91988 0.0
O250 O 0.34419 0.54249 0.91751 0.0
H251 H 0.39333 0.65945 0.96723 0.0
H252 H 0.32424 0.70224 0.89314 0.0
Cu253 Cu 0.74447 0.28835 0.27243 0.0
N254 N 0.81386 0.31312 0.27104 0.0
N255 N 0.89129 0.36512 0.26904 0.0
C256 C 0.84203 0.35479 0.26827 0.0
C257 C 0.89417 0.32833 0.27245 0.0
C258 C 0.84624 0.29623 0.27365 0.0
O259 O 0.72574 0.32372 0.25936 0.0
C260 C 0.69908 0.30359 0.29902 0.0
O261 O 0.67191 0.31566 0.29037 0.0
H262 H 0.82651 0.37744 0.26635 0.0
H263 H 0.83573 0.26323 0.27657 0.0
N264 N 0.7178 0.23151 0.26601 0.0
N265 N 0.66796 0.16178 0.26336 0.0
C266 C 0.67675 0.19785 0.27103 0.0
C267 C 0.73568 0.21624 0.2549 0.0
C268 C 0.70513 0.17339 0.25323 0.0
C269 C 0.69427 0.31002 0.24886 0.0
O270 O 0.66494 0.26902 0.24795 0.0
H271 H 0.65321 0.20006 0.27986 0.0
H272 H 0.76853 0.23513 0.2484 0.0
O273 O 0.72942 0.29081 0.29327 0.0
H274 H 0.92837 0.32491 0.27411 0.0
H275 H 0.71013 0.15238 0.24521 0.0
C276 C 0.36017 0.60068 0.9923 0.0
C277 C 0.32059 0.58562 0.98214 0.0
C278 C 0.3525 0.58902 1.00735 0.0
C279 C 0.30397 0.56169 1.01247 0.0
C280 C 0.26387 0.54613 1.00227 0.0
C281 C 0.27266 0.5582 0.98725 0.0
C282 C 0.39637 0.60616 0.01782 0.0
C283 C 0.21152 0.51718 1.00728 0.0
C284 C 0.2937 0.50586 0.04968 0.0
C285 C 0.28435 0.53306 0.05944 0.0
C286 C 0.29931 0.5143 0.03433 0.0
C287 C 0.29513 0.55064 0.02858 0.0
C288 C 0.28427 0.57749 0.03833 0.0
C289 C 0.27912 0.56842 0.0536 0.0
C290 C 0.31101 0.48494 0.02432 0.0
C291 C 0.27897 0.61631 0.03268 0.0
H292 H 0.39744 0.62125 0.98844 0.0
H293 H 0.24176 0.54675 0.97954 0.0
H294 H 0.38984 0.62565 0.02657 0.0
H295 H 0.40043 0.57938 0.02344 0.0
H296 H 0.43194 0.62618 1.01204 0.0
H297 H 0.18468 0.50686 0.99791 0.0
H298 H 0.211 0.48841 1.0128 0.0
H299 H 0.1986 0.5339 1.01555 0.0
H300 H 0.29815 0.47869 0.0541 0.0
H301 H 0.27096 0.58915 0.06101 0.0
H302 H 0.34831 0.50274 0.01917 0.0
H303 H 0.28346 0.47326 1.01519 0.0
H304 H 0.31082 0.457 0.0304 0.0
H305 H 0.31476 0.63916 0.02769 0.0
H306 H 0.26836 0.63289 0.0416 0.0
H307 H 0.25031 0.607 0.02384 0.0
C308 C 0.73864 0.36536 0.38465 0.0
C309 C 0.71532 0.32995 0.39405 0.0
C310 C 0.73073 0.3618 0.36925 0.0
C311 C 0.69846 0.32194 0.36307 0.0
C312 C 0.67228 0.28681 0.3726 0.0
C313 C 0.68109 0.29119 0.38796 0.0
C314 C 0.75942 0.40007 0.35951 0.0
C315 C 0.63714 0.24388 0.3665 0.0
C316 C 0.66254 0.31895 0.3223 0.0
C317 C 0.69695 0.30681 0.31543 0.0
C318 C 0.66188 0.32337 0.33782 0.0
C319 C 0.6967 0.31582 0.34666 0.0
C320 C 0.73113 0.30318 0.33978 0.0
C321 C 0.73069 0.29868 0.32432 0.0
C322 C 0.62432 0.33652 0.34476 0.0
C323 C 0.76909 0.29499 0.34875 0.0
H324 H 0.76498 0.3955 0.38921 0.0
H325 H 0.66258 0.26369 0.39512 0.0
H326 H 0.7878 0.39442 0.35301 0.0
H327 H 0.7341 0.40497 0.35148 0.0
H328 H 0.77876 0.42976 0.36606 0.0
H329 H 0.61491 0.22151 0.37538 0.0
H330 H 0.61121 0.24745 0.35836 0.0
H331 H 0.65891 0.22945 0.36057 0.0
H332 H 0.63623 0.32519 0.31555 0.0
H333 H 0.75751 0.28935 0.31917 0.0
H334 H 0.64399 0.36759 0.35047 0.0
H335 H 0.60205 0.31282 0.35328 0.0
H336 H 0.59849 0.33955 0.33644 0.0
H337 H 0.79349 0.32432 0.35484 0.0
H338 H 0.79296 0.28497 0.34173 0.0
H339 H 0.74991 0.26973 0.35714 0.0
C340 C 0.43487 0.71129 0.70554 0.0
C341 C 0.40501 0.72475 0.71425 0.0
C342 C 0.43033 0.70864 0.69005 0.0
C343 C 0.39451 0.7191 0.68297 0.0
C344 C 0.36244 0.7306 0.69171 0.0
C345 C 0.3683 0.73359 0.70724 0.0
C346 C 0.46564 0.69659 0.68121 0.0
C347 C 0.32316 0.7412 0.68461 0.0
C348 C 0.43094 0.76043 0.64367 0.0
C349 C 0.40657 0.72327 0.63519 0.0
C350 C 0.42536 0.75991 0.65915 0.0
C351 C 0.39406 0.72141 0.66642 0.0
C352 C 0.36682 0.68442 0.65786 0.0
C353 C 0.37363 0.6857 0.64236 0.0
C354 C 0.45544 0.80006 0.66779 0.0
C355 C 0.33233 0.64296 0.66515 0.0
H356 H 0.46329 0.70422 0.71078 0.0
H357 H 0.34484 0.74379 0.71384 0.0
H358 H 0.4444 0.66959 0.6737 0.0
H359 H 0.48998 0.72395 0.67417 0.0
H360 H 0.48974 0.68737 0.68841 0.0
H361 H 0.29732 0.74436 0.69294 0.0
H362 H 0.3414 0.77172 0.67843 0.0
H363 H 0.3011 0.71619 0.67651 0.0
H364 H 0.4563 0.78976 0.6383 0.0
H365 H 0.35434 0.65686 0.63594 0.0
H366 H 0.48366 0.79523 0.67462 0.0
H367 H 0.43095 0.80735 0.67548 0.0
H368 H 0.4751 0.8281 0.66044 0.0
H369 H 0.35468 0.62939 0.67121 0.0
H370 H 0.3086 0.61905 0.65693 0.0
H371 H 0.30785 0.64844 0.67337 0.0
C372 C 0.78908 0.44441 0.05029 0.0
C373 C 0.77118 0.46945 0.05846 0.0
C374 C 0.77899 0.43671 0.03511 0.0
C375 C 0.75108 0.45514 0.0277 0.0
C376 C 0.73401 0.48143 0.03569 0.0
C377 C 0.74395 0.48804 0.05097 0.0
C378 C 0.79768 0.40826 0.02704 0.0
C379 C 0.70476 0.50219 0.02812 0.0
C380 C 0.76316 0.46064 0.98561 0.0
C381 C 0.71959 0.42524 0.98116 0.0
C382 C 0.77308 0.47154 1.00065 0.0
C383 C 0.73916 0.44608 1.01164 0.0
C384 C 0.69503 0.41056 1.0073 0.0
C385 C 0.68561 0.40081 0.99217 0.0
C386 C 0.82036 0.50995 1.0048 0.0
C387 C 0.65813 0.38229 0.01868 0.0
H388 H 0.81116 0.43062 0.05572 0.0
H389 H 0.72956 0.5072 0.05706 0.0
H390 H 0.76573 0.38053 0.02223 0.0
H391 H 0.82236 0.42595 0.01771 0.0
H392 H 0.81871 0.39619 0.03442 0.0
H393 H 0.69622 0.52339 0.03571 0.0
H394 H 0.72601 0.52123 0.01846 0.0
H395 H 0.66911 0.47731 0.02385 0.0
H396 H 0.7902 0.47971 0.9774 0.0
H397 H 0.65144 0.37388 0.98904 0.0
H398 H 0.84521 0.49957 1.01114 0.0
H399 H 0.81151 0.53152 1.01209 0.0
H400 H 0.84106 0.52828 0.99493 0.0
H401 H 0.67651 0.36758 0.02597 0.0
H402 H 0.62501 0.35643 1.0135 0.0
H403 H 0.64527 0.40155 0.02585 0.0
C404 C 0.40469 0.739 0.32565 0.0
C405 C 0.36065 0.73243 0.3181 0.0
C406 C 0.40526 0.73557 0.34122 0.0
C407 C 0.36085 0.72557 0.34945 0.0
C408 C 0.31612 0.71793 0.34185 0.0
C409 C 0.31654 0.72132 0.32633 0.0
C410 C 0.45361 0.74362 0.3489 0.0
C411 C 0.26792 0.70737 0.35015 0.0
C412 C 0.34184 0.68704 0.38962 0.0
C413 C 0.34793 0.72423 0.39722 0.0
C414 C 0.34849 0.68738 0.37413 0.0
C415 C 0.36122 0.72572 0.36604 0.0
C416 C 0.36975 0.76372 0.37375 0.0
C417 C 0.36322 0.76255 0.3892 0.0
C418 C 0.33962 0.64627 0.36635 0.0
C419 C 0.38321 0.8053 0.3656 0.0
H420 H 0.43892 0.74742 0.31942 0.0
H421 H 0.2822 0.71599 0.32067 0.0
H422 H 0.46577 0.77287 0.35576 0.0
H423 H 0.44818 0.71679 0.3565 0.0
H424 H 0.48389 0.7477 0.34091 0.0
H425 H 0.23595 0.7006 0.34257 0.0
H426 H 0.259 0.67916 0.3574 0.0
H427 H 0.27207 0.73447 0.35741 0.0
H428 H 0.33025 0.6573 0.39568 0.0
H429 H 0.36837 0.79159 0.39492 0.0
H430 H 0.37061 0.65137 0.35853 0.0
H431 H 0.30484 0.63532 0.35974 0.0
H432 H 0.33597 0.62057 0.37429 0.0
H433 H 0.41556 0.81225 0.35814 0.0
H434 H 0.39245 0.83263 0.37329 0.0
H435 H 0.35139 0.80271 0.35857 0.0
C436 C 0.6724 0.35234 0.70536 0.0
C437 C 0.64161 0.31444 0.71273 0.0
C438 C 0.6794 0.35307 0.68989 0.0
C439 C 0.65384 0.31528 0.68158 0.0
C440 C 0.62455 0.27656 0.68907 0.0
C441 C 0.61934 0.27652 0.70455 0.0
C442 C 0.71221 0.39471 0.68239 0.0
C443 C 0.59587 0.23567 0.68065 0.0
C444 C 0.61202 0.32342 0.64241 0.0
C445 C 0.64273 0.31071 0.63381 0.0
C446 C 0.61623 0.32607 0.65791 0.0
C447 C 0.65292 0.31684 0.66504 0.0
C448 C 0.68588 0.30625 0.65638 0.0
C449 C 0.67997 0.30274 0.64087 0.0
C450 C 0.5797 0.33676 0.66669 0.0
C451 C 0.72641 0.29742 0.66353 0.0
H452 H 0.69003 0.3817 0.71162 0.0
H453 H 0.5953 0.24709 0.71013 0.0
H454 H 0.73715 0.38989 0.67416 0.0
H455 H 0.68864 0.40701 0.67632 0.0
H456 H 0.73542 0.41932 0.69049 0.0
H457 H 0.57748 0.20778 0.68815 0.0
H458 H 0.56673 0.23901 0.6738 0.0
H459 H 0.621 0.22911 0.673 0.0
H460 H 0.58299 0.32949 0.63709 0.0
H461 H 0.70405 0.29317 0.6343 0.0
H462 H 0.59999 0.36457 0.67398 0.0
H463 H 0.55683 0.30943 0.67396 0.0
H464 H 0.55422 0.34418 0.65945 0.0
H465 H 0.74779 0.32305 0.67152 0.0
H466 H 0.75271 0.2949 0.65521 0.0
H467 H 0.70943 0.26705 0.66985 0.0
C468 C 0.35539 0.67396 0.23516 0.0
C469 C 0.32373 0.65262 0.247 0.0
C470 C 0.35092 0.65408 0.2213 0.0
C471 C 0.31291 0.61228 0.21909 0.0
C472 C 0.28145 0.59031 0.2311 0.0
C473 C 0.28768 0.61053 0.24495 0.0
C474 C 0.3859 0.67834 0.20888 0.0
C475 C 0.2396 0.54625 0.22916 0.0
C476 C 0.26728 0.58406 0.17937 0.0
C477 C 0.29047 0.55823 0.17499 0.0
C478 C 0.27328 0.60093 0.19378 0.0
C479 C 0.30426 0.59262 0.204 0.0
C480 C 0.32752 0.56627 0.19966 0.0
C481 C 0.3199 0.54901 0.18526 0.0
C482 C 0.24683 0.62801 0.19801 0.0
C483 C 0.36154 0.55728 0.2101 0.0
H484 H 0.3832 0.70652 0.23668 0.0
H485 H 0.26246 0.59409 0.25397 0.0
H486 H 0.40294 0.65859 0.20383 0.0
H487 H 0.36472 0.68558 0.20005 0.0
H488 H 0.4162 0.70884 0.21275 0.0
H489 H 0.21986 0.53272 0.23975 0.0
H490 H 0.21211 0.54761 0.2211 0.0
H491 H 0.25424 0.52424 0.22456 0.0
H492 H 0.24428 0.59096 0.17146 0.0
H493 H 0.33842 0.52954 0.18184 0.0
H494 H 0.27462 0.66094 0.20055 0.0
H495 H 0.22413 0.61505 0.20818 0.0
H496 H 0.22202 0.62955 0.18905 0.0
H497 H 0.3935 0.58768 0.21319 0.0
H498 H 0.37628 0.53572 0.20513 0.0
H499 H 0.34132 0.54253 0.22049 0.0
C500 C 0.72498 0.33768 0.48339 0.0
C501 C 0.68324 0.31294 0.47472 0.0
C502 C 0.71991 0.34486 0.49851 0.0
C503 C 0.67193 0.32722 0.50513 0.0
C504 C 0.62952 0.30337 0.49634 0.0
C505 C 0.6357 0.2964 0.48128 0.0
C506 C 0.76605 0.3703 0.50751 0.0
C507 C 0.57762 0.2844 0.50293 0.0
C508 C 0.6549 0.30505 0.54661 0.0
C509 C 0.64509 0.33893 0.55164 0.0
C510 C 0.66547 0.30168 0.53159 0.0
C511 C 0.6659 0.33276 0.52131 0.0
C512 C 0.65798 0.3679 0.52641 0.0
C513 C 0.6479 0.37067 0.54151 0.0
C514 C 0.67438 0.264 0.52663 0.0
C515 C 0.65797 0.40164 0.51582 0.0
H516 H 0.76193 0.35048 0.47847 0.0
H517 H 0.60322 0.27732 0.47469 0.0
H518 H 0.76234 0.39721 0.51312 0.0
H519 H 0.77039 0.34976 0.5163 0.0
H520 H 0.80045 0.38329 0.50059 0.0
H521 H 0.54839 0.26821 0.49448 0.0
H522 H 0.57473 0.26084 0.51165 0.0
H523 H 0.56997 0.30971 0.5083 0.0
H524 H 0.65297 0.28043 0.55434 0.0
H525 H 0.64035 0.39698 0.54525 0.0
H526 H 0.70962 0.27504 0.52018 0.0
H527 H 0.64369 0.24342 0.51922 0.0
H528 H 0.67643 0.24437 0.53612 0.0
H529 H 0.69279 0.41472 0.50913 0.0
H530 H 0.65449 0.42839 0.52167 0.0
H531 H 0.62636 0.38717 0.50798 0.0
C532 C 0.41627 0.71649 0.80322 0.0
C533 C 0.38964 0.68556 0.79258 0.0
C534 C 0.40451 0.70966 0.81837 0.0
C535 C 0.36455 0.6712 0.82308 0.0
C536 C 0.33631 0.64044 0.81238 0.0
C537 C 0.34942 0.64784 0.79726 0.0
C538 C 0.43599 0.74311 0.8294 0.0
C539 C 0.29289 0.59935 0.81693 0.0
C540 C 0.36951 0.63609 0.86284 0.0
C541 C 0.33891 0.65129 0.87029 0.0
C542 C 0.37763 0.64185 0.84746 0.0
C543 C 0.35389 0.66272 0.83926 0.0
C544 C 0.32208 0.67734 0.84669 0.0
C545 C 0.31534 0.6718 0.86213 0.0
C546 C 0.41255 0.62645 0.84005 0.0
C547 C 0.29542 0.69909 0.83833 0.0
H548 H 0.44754 0.74573 0.79978 0.0
H549 H 0.32853 0.6238 0.78915 0.0
H550 H 0.41206 0.75331 0.83628 0.0
H551 H 0.45464 0.72941 0.83701 0.0
H552 H 0.46504 0.77172 0.82391 0.0
H553 H 0.27251 0.58013 0.80722 0.0
H554 H 0.3065 0.5799 0.82374 0.0
H555 H 0.26637 0.60624 0.8239 0.0
H556 H 0.38809 0.62055 0.86913 0.0
H557 H 0.29105 0.68301 0.8678 0.0
H558 H 0.44454 0.65392 0.83506 0.0
H559 H 0.39305 0.60414 0.83093 0.0
H560 H 0.42723 0.61003 0.84793 0.0
H561 H 0.32307 0.72933 0.83338 0.0
H562 H 0.26979 0.70641 0.84558 0.0
H563 H 0.27358 0.67856 0.82908 0.0
C564 C 0.74294 0.40492 0.16842 0.0
C565 C 0.73319 0.4402 0.16553 0.0
C566 C 0.73816 0.38803 0.1828 0.0
C567 C 0.72171 0.40612 0.19451 0.0
C568 C 0.71263 0.44236 0.19166 0.0
C569 C 0.71903 0.45928 0.17718 0.0
C570 C 0.74947 0.35009 0.18537 0.0
C571 C 0.69408 0.46204 0.20373 0.0
C572 C 0.65949 0.32707 0.22575 0.0
C573 C 0.69813 0.33856 0.23615 0.0
C574 C 0.66566 0.35047 0.21255 0.0
C575 C 0.71202 0.38561 0.20949 0.0
C576 C 0.75046 0.39839 0.22022 0.0
C577 C 0.74286 0.37502 0.23348 0.0
C578 C 0.62327 0.33636 0.20158 0.0
C579 C 0.80077 0.43508 0.21732 0.0
H580 H 0.7537 0.39029 0.15931 0.0
H581 H 0.71085 0.48621 0.17478 0.0
H582 H 0.77607 0.35657 0.19469 0.0
H583 H 0.71474 0.32186 0.18848 0.0
H584 H 0.76561 0.342 0.17537 0.0
H585 H 0.69153 0.49149 0.19993 0.0
H586 H 0.65656 0.43871 0.20747 0.0
H587 H 0.71911 0.46988 0.21348 0.0
H588 H 0.62479 0.29908 0.22777 0.0
H589 H 0.77313 0.38399 0.24138 0.0
H590 H 0.63304 0.32267 0.19164 0.0
H591 H 0.61689 0.36406 0.19783 0.0
H592 H 0.58796 0.3119 0.20634 0.0
H593 H 0.81993 0.42637 0.20823 0.0
H594 H 0.82508 0.44345 0.22728 0.0
H595 H 0.79633 0.46374 0.21364 0.0
C596 C 0.42074 0.72788 0.54706 0.0
C597 C 0.40878 0.75601 0.55562 0.0
C598 C 0.4136 0.725 0.53162 0.0
C599 C 0.39458 0.75123 0.52448 0.0
C600 C 0.38115 0.77884 0.5331 0.0
C601 C 0.38811 0.78069 0.54856 0.0
C602 C 0.42764 0.69466 0.52289 0.0
C603 C 0.36097 0.8075 0.52593 0.0
C604 C 0.42522 0.78034 0.48373 0.0
C605 C 0.37984 0.75467 0.47683 0.0
C606 C 0.43079 0.77898 0.49919 0.0
C607 C 0.39021 0.75091 0.50797 0.0
C608 C 0.34501 0.72366 0.50099 0.0
C609 C 0.34028 0.72603 0.48554 0.0
C610 C 0.47956 0.80873 0.50618 0.0
C611 C 0.30112 0.6928 0.50989 0.0
H612 H 0.43653 0.70852 0.5524 0.0
H613 H 0.37903 0.80269 0.55504 0.0
H614 H 0.39583 0.67357 0.51593 0.0
H615 H 0.45912 0.71299 0.5153 0.0
H616 H 0.43885 0.67447 0.53018 0.0
H617 H 0.35089 0.82619 0.53421 0.0
H618 H 0.3893 0.83006 0.51823 0.0
H619 H 0.32742 0.78826 0.51927 0.0
H620 H 0.4559 0.80274 0.47712 0.0
H621 H 0.30511 0.70592 0.48032 0.0
H622 H 0.49464 0.79033 0.51298 0.0
H623 H 0.47324 0.83116 0.51373 0.0
H624 H 0.50805 0.82756 0.4978 0.0
H625 H 0.31275 0.67255 0.51699 0.0
H626 H 0.26985 0.67176 0.50272 0.0
H627 H 0.28729 0.71074 0.51736 0.0
C628 C 0.67376 0.3824 0.86139 0.0
C629 C 0.70002 0.36368 0.86923 0.0
C630 C 0.66623 0.37655 0.84603 0.0
C631 C 0.68594 0.35175 0.83825 0.0
C632 C 0.71345 0.33355 0.84605 0.0
C633 C 0.71987 0.3395 0.86146 0.0
C634 C 0.6361 0.39602 0.83817 0.0
C635 C 0.73563 0.30739 0.83815 0.0
C636 C 0.62147 0.29893 0.80252 0.0
C637 C 0.65214 0.32712 0.79165 0.0
C638 C 0.63232 0.30647 0.81767 0.0
C639 C 0.67528 0.34286 0.82214 0.0
C640 C 0.70711 0.37098 0.81124 0.0
C641 C 0.695 0.36292 0.79613 0.0
C642 C 0.59713 0.27589 0.82891 0.0
C643 C 0.75358 0.40985 0.81558 0.0
H644 H 0.65798 0.40078 0.86737 0.0
H645 H 0.74088 0.32555 0.86742 0.0
H646 H 0.65791 0.41636 0.82883 0.0
H647 H 0.60193 0.37038 0.83341 0.0
H648 H 0.62485 0.41567 0.84571 0.0
H649 H 0.75842 0.2975 0.84565 0.0
H650 H 0.70537 0.27832 0.83341 0.0
H651 H 0.75944 0.3259 0.82878 0.0
H652 H 0.58814 0.27124 0.79923 0.0
H653 H 0.71896 0.38484 0.78783 0.0
H654 H 0.5817 0.29305 0.8362 0.0
H655 H 0.61757 0.26285 0.8361 0.0
H656 H 0.56558 0.24882 0.82361 0.0
H657 H 0.74325 0.43184 0.82216 0.0
H658 H 0.77565 0.42744 0.80577 0.0
H659 H 0.77756 0.40036 0.8227 0.0
C660 C 0.97753 0.62258 0.10142 0.0
C661 C 0.94292 0.60016 0.11256 0.0
C662 C 0.02742 0.62838 0.10211 0.0
C663 C 0.04325 0.61123 0.11421 0.0
C664 C 1.00955 0.59165 0.12606 0.0
C665 C 0.9599 0.58639 0.12511 0.0
C666 C 0.062 0.64984 0.08929 0.0
C667 C 1.02474 0.57306 0.13922 0.0
C668 C 0.13342 0.56248 0.10671 0.0
C669 C 0.17785 0.59178 0.11323 0.0
C670 C 0.09026 0.56932 0.10659 0.0
C671 C 0.09101 0.60653 0.11321 0.0
C672 C 0.13636 0.63738 0.11924 0.0
C673 C 0.17947 0.62969 0.11915 0.0
C674 C 0.04323 0.53571 0.09983 0.0
C675 C 0.13879 0.67756 0.12631 0.0
H676 H 0.96513 0.63384 0.09174 0.0
H677 H 0.93372 0.56933 0.13385 0.0
H678 H 0.09958 0.67185 0.09334 0.0
H679 H 0.06638 0.62527 0.08236 0.0
H680 H 0.0474 0.66803 0.08217 0.0
H681 H 0.99713 0.56464 0.14842 0.0
H682 H 0.02808 0.54372 0.13576 0.0
H683 H 0.06172 0.59587 0.14343 0.0
H684 H 0.132 0.53333 0.10194 0.0
H685 H 0.21359 0.65234 0.12427 0.0
H686 H 0.02849 0.55024 0.09129 0.0
H687 H 1.01406 0.52181 0.10852 0.0
H688 H 0.04945 0.50942 0.09461 0.0
H689 H 0.12163 0.6932 0.11897 0.0
H690 H 0.17775 0.70065 0.1288 0.0
H691 H 0.11716 0.66938 0.13683 0.0
C692 C 0.58915 0.12581 0.44561 0.0
C693 C 0.63477 0.12645 0.44119 0.0
C694 C 0.54519 0.08764 0.44573 0.0
C695 C 0.54672 0.04935 0.441 0.0
C696 C 0.59275 0.04984 0.4365 0.0
C697 C 0.63637 0.08836 0.43682 0.0
C698 C 0.49712 0.08832 0.45091 0.0
C699 C 0.59576 1.00987 0.43109 0.0
C700 C 0.44177 0.94236 0.4519 0.0
C701 C 0.41152 0.93228 0.43926 0.0
C702 C 0.48556 0.98063 0.45272 0.0
C703 C 0.49995 1.00898 0.44045 0.0
C704 C 0.46959 0.9988 0.42763 0.0
C705 C 0.42548 0.96077 0.42725 0.0
C706 C 0.51636 0.99074 0.4667 0.0
C707 C 0.48411 0.02773 0.4142 0.0
H708 H 0.58808 0.15518 0.4492 0.0
H709 H 0.6716 0.08899 0.43329 0.0
H710 H 0.46966 0.07854 0.44173 0.0
H711 H 0.48059 0.06506 0.46008 0.0
H712 H 0.50267 0.12039 0.45482 0.0
H713 H 0.63438 1.01565 0.42796 0.0
H714 H 0.58214 0.98489 0.43982 0.0
H715 H 0.57126 0.99708 0.4213 0.0
H716 H 0.4308 0.92037 0.4612 0.0
H717 H 0.40258 0.95266 0.41737 0.0
H718 H 0.52074 0.02188 0.47122 0.0
H719 H 0.55429 0.99368 0.46418 0.0
H720 H 0.4993 0.96588 0.47539 0.0
H721 H 0.48708 0.05968 0.41725 0.0
H722 H 0.4568 1.01487 0.40502 0.0
H723 H 0.52133 0.03221 0.4101 0.0
C724 C 0.48689 0.41723 0.74367 0.0
C725 C 0.51185 0.40118 0.75331 0.0
C726 C 0.49204 0.45922 0.745 0.0
C727 C 0.52318 0.48606 0.75617 0.0
C728 C 0.54791 0.46999 0.76608 0.0
C729 C 0.54182 0.42775 0.76457 0.0
C730 C 0.46488 0.47512 0.73423 0.0
C731 C 0.58147 0.49764 0.77814 0.0
C732 C 0.57502 0.60533 0.74902 0.0
C733 C 0.54289 0.61671 0.75751 0.0
C734 C 0.56969 0.56315 0.74876 0.0
C735 C 0.53109 0.53136 0.75712 0.0
C736 C 0.49912 0.54266 0.76593 0.0
C737 C 0.50551 0.58517 0.76606 0.0
C738 C 0.60468 0.55242 0.73925 0.0
C739 C 0.45753 0.50966 0.775 0.0
H740 H 0.46418 0.39737 0.73482 0.0
H741 H 0.5606 0.41557 0.77223 0.0
H742 H 0.44174 0.48781 0.74037 0.0
H743 H 0.49228 0.50172 0.72751 0.0
H744 H 0.44036 0.44969 0.72659 0.0
H745 H 0.59695 0.48 0.7852 0.0
H746 H 0.61296 0.52544 0.7731 0.0
H747 H 0.56058 0.51035 0.7853 0.0
H748 H 0.6036 0.62912 0.74222 0.0
H749 H 0.48102 0.59367 0.77284 0.0
H750 H 0.58329 0.52986 0.73039 0.0
H751 H 0.62275 0.53635 0.74603 0.0
H752 H 0.63424 0.58116 0.73398 0.0
H753 H 0.43069 0.48512 0.76756 0.0
H754 H 0.43696 0.52387 0.78166 0.0
H755 H 0.47275 0.49309 0.78262 0.0
C756 C 0.55727 0.12461 0.58415 0.0
C757 C 0.51941 0.12729 0.59285 0.0
C758 C 0.56394 0.08694 0.58362 0.0
C759 C 0.53183 0.05089 0.59194 0.0
C760 C 0.49297 0.05304 0.60052 0.0
C761 C 0.48732 0.09118 0.6009 0.0
C762 C 0.60583 0.08592 0.57434 0.0
C763 C 0.45787 1.01527 0.60952 0.0
C764 C 0.52219 0.94081 0.58236 0.0
C765 C 0.55216 0.9349 0.59333 0.0
C766 C 0.51564 0.97854 0.58165 0.0
C767 C 0.5399 1.01137 0.5921 0.0
C768 C 0.57104 1.00605 0.60299 0.0
C769 C 0.57668 0.96794 0.6035 0.0
C770 C 0.48212 0.98299 0.56987 0.0
C771 C 0.59768 0.04033 0.61432 0.0
H772 H 0.58173 0.15195 0.57769 0.0
H773 H 0.45835 0.09291 0.6078 0.0
H774 H 0.63235 0.07987 0.58156 0.0
H775 H 0.59081 0.05941 0.56623 0.0
H776 H 0.6267 0.11627 0.56821 0.0
H777 H 0.42827 0.02151 0.61511 0.0
H778 H 0.43986 0.98692 0.60229 0.0
H779 H 0.47914 1.00717 0.6181 0.0
H780 H 0.50366 0.91585 0.57432 0.0
H781 H 0.59932 0.96371 0.61216 0.0
H782 H 0.50297 1.01207 0.56313 0.0
H783 H 0.45047 0.98674 0.57517 0.0
H784 H 0.46688 0.95497 0.56235 0.0
H785 H 0.62084 0.07096 0.60866 0.0
H786 H 0.62209 0.03198 0.6217 0.0
H787 H 0.56996 0.0456 0.62128 0.0
C788 C 0.43744 0.53787 0.91322 0.0
C789 C 0.40165 0.51317 0.92376 0.0
C790 C 0.48373 0.53588 0.912 0.0
C791 C 0.49433 0.50802 0.92137 0.0
C792 C 0.45735 0.4815 0.93151 0.0
C793 C 0.41177 0.48466 0.93266 0.0
C794 C 0.52215 0.56506 0.90116 0.0
C795 C 0.46657 0.45072 0.94151 0.0
C796 C 0.60125 0.47806 0.91271 0.0
C797 C 0.63736 0.50251 0.92313 0.0
C798 C 0.55506 0.48028 0.91172 0.0
C799 C 0.54486 0.50809 0.92121 0.0
C800 C 0.58217 0.53441 0.93121 0.0
C801 C 0.62767 0.53105 0.93213 0.0
C802 C 0.5163 0.45135 0.90101 0.0
C803 C 0.57337 0.56514 0.94133 0.0
H804 H 0.43026 0.56027 0.90635 0.0
H805 H 0.38437 0.46535 0.9408 0.0
H806 H 0.55451 0.58865 0.90735 0.0
H807 H 0.53627 0.54657 0.89405 0.0
H808 H 0.50698 0.5826 0.89393 0.0
H809 H 0.43275 0.42998 0.94792 0.0
H810 H 0.47905 0.43018 0.93487 0.0
H811 H 0.49684 0.46875 0.94944 0.0
H812 H 0.60811 0.45567 0.90576 0.0
H813 H 0.65531 0.55019 0.94017 0.0
H814 H 0.50204 0.47001 0.89404 0.0
H815 H 0.48409 0.42767 0.90731 0.0
H816 H 0.53121 0.4339 0.89364 0.0
H817 H 0.56064 0.58574 0.93482 0.0
H818 H 0.60745 0.58583 0.94757 0.0
H819 H 0.54343 0.54707 0.94942 0.0
C820 C 0.12339 0.59435 0.25834 0.0
C821 C 0.11997 0.62247 0.26899 0.0
C822 C 0.08664 0.55207 0.2573 0.0
C823 C 0.04541 0.53743 0.26716 0.0
C824 C 0.04117 0.56588 0.27772 0.0
C825 C 0.07838 0.608 0.27849 0.0
C826 C 0.09242 0.5229 0.2458 0.0
C827 C 0.99792 0.55151 0.2885 0.0
C828 C 0.9264 0.43819 0.25868 0.0
C829 C 0.93158 0.4074 0.26772 0.0
C830 C 0.96371 0.48031 0.25806 0.0
C831 C 1.00725 0.4921 0.26676 0.0
C832 C 1.0133 0.46092 0.27563 0.0
C833 C 0.97549 0.41894 0.27596 0.0
C834 C 0.95602 0.51241 0.24834 0.0
C835 C 0.05905 0.47222 0.28513 0.0
H836 H 0.15504 0.60537 0.25084 0.0
H837 H 0.07567 0.62918 0.28688 0.0
H838 H 0.09646 0.49604 0.25137 0.0
H839 H 0.05855 0.50892 0.23879 0.0
H840 H 0.12543 0.53974 0.23853 0.0
H841 H 0.99935 0.57784 0.29576 0.0
H842 H 0.96208 0.53856 0.28238 0.0
H843 H 0.99805 0.52544 0.29561 0.0
H844 H 0.89294 0.42933 0.2521 0.0
H845 H 0.97958 0.39551 0.28308 0.0
H846 H 0.98831 0.52805 0.24073 0.0
H847 H 0.9537 0.5378 0.25532 0.0
H848 H 0.92143 0.49761 0.24162 0.0
H849 H 0.0933 0.48709 0.27824 0.0
H850 H 0.05914 0.44392 0.29088 0.0
H851 H 0.06086 0.49598 0.29361 0.0
C852 C 0.66769 0.58625 0.106 0.0
C853 C 0.69662 0.59696 0.11896 0.0
C854 C 0.62363 0.59196 0.10501 0.0
C855 C 0.60806 0.60897 0.11723 0.0
C856 C 0.63938 0.62325 0.12982 0.0
C857 C 0.68311 0.61695 0.13055 0.0
C858 C 0.5916 0.57635 0.09135 0.0
C859 C 0.62472 0.64201 0.14304 0.0
C860 C 0.49051 0.62805 0.1129 0.0
C861 C 0.45363 0.58912 0.11811 0.0
C862 C 0.54138 0.63573 0.11278 0.0
C863 C 0.55535 0.60381 0.11804 0.0
C864 C 0.51823 0.56527 0.1238 0.0
C865 C 0.46825 0.55853 0.12377 0.0
C866 C 0.57987 0.67732 0.10662 0.0
C867 C 0.53101 0.53036 0.12968 0.0
H868 H 0.67787 0.57112 0.09692 0.0
H869 H 0.70542 0.6259 0.14055 0.0
H870 H 0.55853 0.54615 0.094 0.0
H871 H 0.5778 0.59986 0.08771 0.0
H872 H 0.61214 0.57026 0.08201 0.0
H873 H 0.65665 0.65857 0.15064 0.0
H874 H 0.60991 0.6649 0.13944 0.0
H875 H 0.59467 0.61608 0.14932 0.0
H876 H 0.47952 0.65177 0.10847 0.0
H877 H 0.4402 0.52855 0.12803 0.0
H878 H 0.59484 0.6713 0.09603 0.0
H879 H 0.61174 0.69175 0.11438 0.0
H880 H 0.56409 0.70059 0.10451 0.0
H881 H 0.54768 0.51881 0.12069 0.0
H882 H 0.49784 0.50271 0.13411 0.0
H883 H 0.55907 0.54296 0.13865 0.0
C884 C 0.98139 0.42673 0.43745 0.0
C885 C 0.9338 0.41922 0.43234 0.0
C886 C 1.01965 0.46842 0.43826 0.0
C887 C 1.01032 0.50323 0.43349 0.0
C888 C 0.96255 0.49561 0.42801 0.0
C889 C 0.92473 0.45374 0.42767 0.0
C890 C 0.06969 0.47531 0.4445 0.0
C891 C 0.95137 0.53168 0.42252 0.0
C892 C 0.08955 0.61486 0.44801 0.0
C893 C 0.12376 0.63284 0.4364 0.0
C894 C 0.05308 0.57248 0.44732 0.0
C895 C 0.05005 0.54775 0.43456 0.0
C896 C 0.0844 0.56586 0.42275 0.0
C897 C 0.12124 0.60807 0.4239 0.0
C898 C 1.01791 0.55411 0.46029 0.0
C899 C 0.08174 0.54086 0.40883 0.0
H900 H 0.98819 0.40001 0.44116 0.0
H901 H 0.88809 0.44781 0.42352 0.0
H902 H 0.09955 0.49179 0.43621 0.0
H903 H 0.07824 0.49621 0.4544 0.0
H904 H 0.0709 0.44487 0.44773 0.0
H905 H 0.91303 0.52015 0.41796 0.0
H906 H 0.95546 0.55412 0.43172 0.0
H907 H 0.9785 0.54995 0.41375 0.0
H908 H 0.09199 0.63378 0.45778 0.0
H909 H 0.14756 0.62212 0.4149 0.0
H910 H 1.02005 0.52478 0.46438 0.0
H911 H 0.97891 0.54487 0.45671 0.0
H912 H 0.02644 0.57703 0.46962 0.0
H913 H 0.086 0.51147 0.41162 0.0
H914 H 0.11101 0.55965 0.40064 0.0
H915 H 0.04462 0.53074 0.40358 0.0
C916 C 0.53747 0.09769 0.74428 0.0
C917 C 0.50219 0.10276 0.75349 0.0
C918 C 0.54249 0.05928 0.74406 0.0
C919 C 0.51132 0.02491 0.7532 0.0
C920 C 0.47481 0.02938 0.76225 0.0
C921 C 0.47073 0.06823 0.7623 0.0
C922 C 0.58185 0.05578 0.73424 0.0
C923 C 0.44084 0.99346 0.77216 0.0
C924 C 0.49901 0.91342 0.74469 0.0
C925 C 0.53195 0.90914 0.75501 0.0
C926 C 0.49183 0.95084 0.74398 0.0
C927 C 0.51834 0.98494 0.75377 0.0
C928 C 0.55178 0.98096 0.76415 0.0
C929 C 0.55808 0.94316 0.76466 0.0
C930 C 0.45583 0.95389 0.73275 0.0
C931 C 0.58076 1.01658 0.7748 0.0
H932 H 0.56133 0.12384 0.73724 0.0
H933 H 0.44374 0.07187 0.76957 0.0
H934 H 0.60951 0.05043 0.74116 0.0
H935 H 0.56459 0.02794 0.72674 0.0
H936 H 0.60191 0.08488 0.72739 0.0
H937 H 0.41272 1.00123 0.77796 0.0
H938 H 0.42101 0.96401 0.76556 0.0
H939 H 0.4633 0.98632 0.78062 0.0
H940 H 0.47909 0.8876 0.73707 0.0
H941 H 0.58292 0.94007 0.77285 0.0
H942 H 0.47564 0.98135 0.72521 0.0
H943 H 0.42622 0.95971 0.73849 0.0
H944 H 0.4379 0.92448 0.72598 0.0
H945 H 0.60379 0.04613 0.76854 0.0
H946 H 0.60569 1.00863 0.7821 0.0
H947 H 0.55462 0.02364 0.78187 0.0
C948 C 0.5707 0.62096 0.58791 0.0
C949 C 0.53632 0.63216 0.59527 0.0
C950 C 0.56386 0.57839 0.58727 0.0
C951 C 0.52143 0.54599 0.59409 0.0
C952 C 0.48655 0.55694 0.60155 0.0
C953 C 0.49447 0.59986 0.60208 0.0
C954 C 0.60198 0.56805 0.57922 0.0
C955 C 0.44084 0.5233 0.60894 0.0
C956 C 0.48391 0.43294 0.5802 0.0
C957 C 0.50515 0.41649 0.59093 0.0
C958 C 0.48781 0.47464 0.58129 0.0
C959 C 0.51376 0.50068 0.59337 0.0
C960 C 0.53422 0.48399 0.60443 0.0
C961 C 0.52952 0.44212 0.6031 0.0
C962 C 0.46533 0.49122 0.56928 0.0
C963 C 0.56212 0.51071 0.6175 0.0
H964 H 0.6027 0.64538 0.58241 0.0
H965 H 0.46803 0.60813 0.60796 0.0
H966 H 0.61755 0.55181 0.58686 0.0
H967 H 0.5839 0.54576 0.56996 0.0
H968 H 0.63325 0.59698 0.57466 0.0
H969 H 0.41713 0.537 0.61422 0.0
H970 H 0.4181 0.49916 0.60067 0.0
H971 H 0.45212 0.50635 0.61756 0.0
H972 H 0.46548 0.41374 0.57067 0.0
H973 H 0.54528 0.42954 0.61159 0.0
H974 H 0.49536 0.51803 0.56333 0.0
H975 H 0.44015 0.50383 0.57425 0.0
H976 H 0.44388 0.4662 0.56108 0.0
H977 H 0.59571 0.53873 0.61353 0.0
H978 H 0.5741 0.49247 0.62544 0.0
H979 H 0.53837 0.52306 0.62347 0.0
C980 C 0.12296 0.51139 0.91707 0.0
C981 C 0.15112 0.54161 0.92768 0.0
C982 C 0.07086 0.49762 0.91607 0.0
C983 C 0.04631 0.51389 0.92608 0.0
C984 C 0.07461 0.54383 0.93695 0.0
C985 C 0.12648 0.55748 0.93754 0.0
C986 C 0.0421 0.46592 0.90424 0.0
C987 C 0.05006 0.56132 0.94807 0.0
C988 C 0.91597 0.50605 0.91811 0.0
C989 C 0.8857 0.46998 0.92646 0.0
C990 C 0.96825 0.52028 0.9176 0.0
C991 C 0.99078 0.49821 0.92576 0.0
C992 C 0.96031 0.46205 0.93428 0.0
C993 C 0.90841 0.44837 0.93447 0.0
C994 C 0.99942 0.55885 0.90832 0.0
C995 C 0.98257 0.43795 0.94337 0.0
H996 H 0.14177 0.49934 0.90932 0.0
H997 H 0.14788 0.58072 0.94583 0.0
H998 H 1.01393 0.43638 0.90946 0.0
H999 H 1.02159 0.4793 0.89722 0.0
H1000 H 0.06676 0.45734 0.89702 0.0
H1001 H 0.07739 0.58457 0.95578 0.0
H1002 H 0.02991 0.5773 0.94222 0.0
H1003 H 1.02207 0.53482 0.95469 0.0
H1004 H 0.89879 0.52276 0.9118 0.0
H1005 H 0.88553 0.42054 0.94102 0.0
H1006 H 1.02202 0.55054 0.90021 0.0
H1007 H 1.02586 0.58447 0.91551 0.0
H1008 H 0.97626 0.57154 0.90219 0.0
H1009 H 1.00442 0.42643 0.93611 0.0
H1010 H 0.95368 0.41011 0.94925 0.0
H1011 H 1.00867 0.45953 0.9517 0.0
C1012 C 0.47 0.91719 0.27271 0.0
C1013 C 0.42142 0.91262 0.2699 0.0
C1014 C 0.51098 0.95772 0.2728 0.0
C1015 C 0.50341 0.99468 0.26995 0.0
C1016 C 0.45434 0.9904 0.2676 0.0
C1017 C 0.41411 0.94962 0.26767 0.0
C1018 C 0.56263 0.96087 0.27546 0.0
C1019 C 0.44441 0.02884 0.26454 0.0
C1020 C 0.60412 0.10597 0.27904 0.0
C1021 C 0.62695 0.11991 0.26516 0.0
C1022 C 0.56449 0.06508 0.28086 0.0
C1023 C 0.54686 0.03754 0.26847 0.0
C1024 C 0.56974 0.05149 0.25445 0.0
C1025 C 0.60942 0.0923 0.25298 0.0
C1026 C 0.54141 0.05138 0.29602 0.0
C1027 C 0.55184 0.02348 0.2409 0.0
H1028 H 0.47632 0.88902 0.27438 0.0
H1029 H 0.37679 0.94676 0.26584 0.0
H1030 H 0.5854 0.97226 0.26522 0.0
H1031 H 0.58158 0.98449 0.2843 0.0
H1032 H 0.56191 0.92973 0.27871 0.0
H1033 H 0.40392 1.02037 0.26363 0.0
H1034 H 0.4604 0.05277 0.27349 0.0
H1035 H 0.46295 0.04426 0.25402 0.0
H1036 H 0.61773 0.12683 0.28854 0.0
H1037 H 0.62618 0.10292 0.24217 0.0
H1038 H 0.54339 0.02138 0.29938 0.0
H1039 H 0.50136 0.04468 0.29571 0.0
H1040 H 0.56021 0.07602 0.3046 0.0
H1041 H 0.55371 0.99265 0.24286 0.0
H1042 H 0.5742 0.03868 0.23085 0.0
H1043 H 0.51223 1.01621 0.2387 0.0
loop_
_geom_bond_atom_site_label_1
_geom_bond_atom_site_label_2
_geom_bond_distance
_geom_bond_site_symmetry_2
_ccdc_geom_bond_type
Cu0 N1 1.999 . S
Cu0 O6 1.974 . S
Cu0 N11 1.985 . S
Cu0 O20 1.959 . S
N1 Cu0 1.999 . S
N1 C3 1.263 . S
N1 C5 1.389 . S
N2 C3 1.358 . S
N2 C4 1.400 . S
C3 N1 1.263 . S
C3 N2 1.358 . S
C3 H9 0.930 . S
C4 N2 1.400 . S
C4 C5 1.351 . S
C4 H21 0.930 . S
C5 N1 1.389 . S
C5 C4 1.351 . S
C5 H10 0.930 . S
O6 Cu0 1.974 . S
O6 C16 1.282 . S
C7 O8 1.261 . S
C7 O20 1.251 . S
O8 C7 1.261 . S
H9 C3 0.930 . S
H10 C5 0.930 . S
N11 Cu0 1.985 . S
N11 C13 1.335 . S
N11 C14 1.390 . S
N12 C13 1.345 . S
N12 C15 1.336 . S
C13 N11 1.335 . S
C13 N12 1.345 . S
C13 H18 0.930 . S
C14 N11 1.390 . S
C14 C15 1.346 . S
C14 H19 0.930 . S
C15 N12 1.336 . S
C15 C14 1.346 . S
C15 H22 0.929 . S
C16 O6 1.282 . S
C16 O17 1.216 . S
O17 C16 1.216 . S
H18 C13 0.930 . S
H19 C14 0.930 . S
O20 Cu0 1.959 . S
O20 C7 1.251 . S
H21 C4 0.930 . S
H22 C15 0.929 . S
Cu23 N24 1.999 . S
Cu23 O29 1.974 . S
Cu23 N34 1.985 . S
Cu23 O43 1.959 . S
N24 Cu23 1.999 . S
N24 C26 1.263 . S
N24 C28 1.389 . S
N25 C26 1.358 . S
N25 C27 1.400 . S
C26 N24 1.263 . S
C26 N25 1.358 . S
C26 H32 0.930 . S
C27 N25 1.400 . S
C27 C28 1.351 . S
C27 H44 0.930 . S
C28 N24 1.389 . S
C28 C27 1.351 . S
C28 H33 0.930 . S
O29 Cu23 1.974 . S
O29 C39 1.282 . S
C30 O31 1.261 . S
C30 O43 1.251 . S
O31 C30 1.261 . S
H32 C26 0.930 . S
H33 C28 0.930 . S
N34 Cu23 1.985 . S
N34 C36 1.335 . S
N34 C37 1.390 . S
N35 C36 1.345 . S
N35 C38 1.336 . S
C36 N34 1.335 . S
C36 N35 1.345 . S
C36 H41 0.930 . S
C37 N34 1.390 . S
C37 C38 1.346 . S
C37 H42 0.930 . S
C38 N35 1.336 . S
C38 C37 1.346 . S
C38 H45 0.929 . S
C39 O29 1.282 . S
C39 O40 1.216 . S
O40 C39 1.216 . S
H41 C36 0.930 . S
H42 C37 0.930 . S
O43 Cu23 1.959 . S
O43 C30 1.251 . S
H44 C27 0.930 . S
H45 C38 0.929 . S
Cu46 N47 1.999 . S
Cu46 O52 1.974 . S
Cu46 N57 1.985 . S
Cu46 O66 1.959 . S
N47 Cu46 1.999 . S
N47 C49 1.263 . S
N47 C51 1.389 . S
N48 C49 1.358 . S
N48 C50 1.400 . S
C49 N47 1.263 . S
C49 N48 1.358 . S
C49 H55 0.930 . S
C50 N48 1.400 . S
C50 C51 1.351 . S
C50 H67 0.930 . S
C51 N47 1.389 . S
C51 C50 1.351 . S
C51 H56 0.930 . S
O52 Cu46 1.974 . S
O52 C62 1.282 . S
C53 O54 1.261 . S
C53 O66 1.251 . S
O54 C53 1.261 . S
H55 C49 0.930 . S
H56 C51 0.930 . S
N57 Cu46 1.985 . S
N57 C59 1.335 . S
N57 C60 1.390 . S
N58 C59 1.345 . S
N58 C61 1.336 . S
C59 N57 1.335 . S
C59 N58 1.345 . S
C59 H64 0.930 . S
C60 N57 1.390 . S
C60 C61 1.346 . S
C60 H65 0.930 . S
C61 N58 1.336 . S
C61 C60 1.346 . S
C61 H68 0.929 . S
C62 O52 1.282 . S
C62 O63 1.216 . S
O63 C62 1.216 . S
H64 C59 0.930 . S
H65 C60 0.930 . S
O66 Cu46 1.959 . S
O66 C53 1.251 . S
H67 C50 0.930 . S
H68 C61 0.929 . S
Cu69 N70 1.999 . S
Cu69 O75 1.974 . S
Cu69 N80 1.985 . S
Cu69 O89 1.959 . S
N70 Cu69 1.999 . S
N70 C72 1.263 . S
N70 C74 1.389 . S
N71 C72 1.358 . S
N71 C73 1.400 . S
C72 N70 1.263 . S
C72 N71 1.358 . S
C72 H78 0.930 . S
C73 N71 1.400 . S
C73 C74 1.351 . S
C73 H90 0.930 . S
C74 N70 1.389 . S
C74 C73 1.351 . S
C74 H79 0.930 . S
O75 Cu69 1.974 . S
O75 C85 1.282 . S
C76 O77 1.261 . S
C76 O89 1.251 . S
O77 C76 1.261 . S
H78 C72 0.930 . S
H79 C74 0.930 . S
N80 Cu69 1.985 . S
N80 C82 1.335 . S
N80 C83 1.390 . S
N81 C82 1.345 . S
N81 C84 1.336 . S
C82 N80 1.335 . S
C82 N81 1.345 . S
C82 H87 0.930 . S
C83 N80 1.390 . S
C83 C84 1.346 . S
C83 H88 0.930 . S
C84 N81 1.336 . S
C84 C83 1.346 . S
C84 H91 0.929 . S
C85 O75 1.282 . S
C85 O86 1.216 . S
O86 C85 1.216 . S
H87 C82 0.930 . S
H88 C83 0.930 . S
O89 Cu69 1.959 . S
O89 C76 1.251 . S
H90 C73 0.930 . S
H91 C84 0.929 . S
Cu92 N93 1.999 . S
Cu92 O98 1.974 . S
Cu92 N103 1.985 . S
Cu92 O112 1.959 . S
N93 Cu92 1.999 . S
N93 C95 1.263 . S
N93 C97 1.389 . S
N94 C95 1.358 . S
N94 C96 1.400 . S
C95 N93 1.263 . S
C95 N94 1.358 . S
C95 H101 0.930 . S
C96 N94 1.400 . S
C96 C97 1.351 . S
C96 H113 0.930 . S
C97 N93 1.389 . S
C97 C96 1.351 . S
C97 H102 0.930 . S
O98 Cu92 1.974 . S
O98 C108 1.282 . S
C99 O100 1.261 . S
C99 O112 1.251 . S
O100 C99 1.261 . S
H101 C95 0.930 . S
H102 C97 0.930 . S
N103 Cu92 1.985 . S
N103 C105 1.335 . S
N103 C106 1.390 . S
N104 C105 1.345 . S
N104 C107 1.336 . S
C105 N103 1.335 . S
C105 N104 1.345 . S
C105 H110 0.930 . S
C106 N103 1.390 . S
C106 C107 1.346 . S
C106 H111 0.930 . S
C107 N104 1.336 . S
C107 C106 1.346 . S
C107 H114 0.929 . S
C108 O98 1.282 . S
C108 O109 1.216 . S
O109 C108 1.216 . S
H110 C105 0.930 . S
H111 C106 0.930 . S
O112 Cu92 1.959 . S
O112 C99 1.251 . S
H113 C96 0.930 . S
H114 C107 0.929 . S
Cu115 N116 1.999 . S
Cu115 O121 1.974 . S
Cu115 N126 1.985 . S
Cu115 O135 1.959 . S
N116 Cu115 1.999 . S
N116 C118 1.263 . S
N116 C120 1.389 . S
N117 C118 1.358 . S
N117 C119 1.400 . S
C118 N116 1.263 . S
C118 N117 1.358 . S
C118 H124 0.930 . S
C119 N117 1.400 . S
C119 C120 1.351 . S
C119 H136 0.930 . S
C120 N116 1.389 . S
C120 C119 1.351 . S
C120 H125 0.930 . S
O121 Cu115 1.974 . S
O121 C131 1.282 . S
C122 O123 1.261 . S
C122 O135 1.251 . S
O123 C122 1.261 . S
H124 C118 0.930 . S
H125 C120 0.930 . S
N126 Cu115 1.985 . S
N126 C128 1.335 . S
N126 C129 1.390 . S
N127 C128 1.345 . S
N127 C130 1.336 . S
C128 N126 1.335 . S
C128 N127 1.345 . S
C128 H133 0.930 . S
C129 N126 1.390 . S
C129 C130 1.346 . S
C129 H134 0.930 . S
C130 N127 1.336 . S
C130 C129 1.346 . S
C130 H137 0.929 . S
C131 O121 1.282 . S
C131 O132 1.216 . S
O132 C131 1.216 . S
H133 C128 0.930 . S
H134 C129 0.930 . S
O135 Cu115 1.959 . S
O135 C122 1.251 . S
H136 C119 0.930 . S
H137 C130 0.929 . S
Cu138 N139 1.999 . S
Cu138 O144 1.974 . S
Cu138 N149 1.985 . S
Cu138 O158 1.959 . S
N139 Cu138 1.999 . S
N139 C141 1.263 . S
N139 C143 1.389 . S
N140 C141 1.358 . S
N140 C142 1.400 . S
C141 N139 1.263 . S
C141 N140 1.358 . S
C141 H147 0.930 . S
C142 N140 1.400 . S
C142 C143 1.351 . S
C142 H159 0.930 . S
C143 N139 1.389 . S
C143 C142 1.351 . S
C143 H148 0.930 . S
O144 Cu138 1.974 . S
O144 C154 1.282 . S
C145 O146 1.261 . S
C145 O158 1.251 . S
O146 C145 1.261 . S
H147 C141 0.930 . S
H148 C143 0.930 . S
N149 Cu138 1.985 . S
N149 C151 1.335 . S
N149 C152 1.390 . S
N150 C151 1.345 . S
N150 C153 1.336 . S
C151 N149 1.335 . S
C151 N150 1.345 . S
C151 H156 0.930 . S
C152 N149 1.390 . S
C152 C153 1.346 . S
C152 H157 0.930 . S
C153 N150 1.336 . S
C153 C152 1.346 . S
C153 H160 0.929 . S
C154 O144 1.282 . S
C154 O155 1.216 . S
O155 C154 1.216 . S
H156 C151 0.930 . S
H157 C152 0.930 . S
O158 Cu138 1.959 . S
O158 C145 1.251 . S
H159 C142 0.930 . S
H160 C153 0.929 . S
Cu161 N162 1.999 . S
Cu161 O167 1.974 . S
Cu161 N172 1.985 . S
Cu161 O181 1.959 . S
N162 Cu161 1.999 . S
N162 C164 1.263 . S
N162 C166 1.389 . S
N163 C164 1.358 . S
N163 C165 1.400 . S
C164 N162 1.263 . S
C164 N163 1.358 . S
C164 H170 0.930 . S
C165 N163 1.400 . S
C165 C166 1.351 . S
C165 H182 0.930 . S
C166 N162 1.389 . S
C166 C165 1.351 . S
C166 H171 0.930 . S
O167 Cu161 1.974 . S
O167 C177 1.282 . S
C168 O169 1.261 . S
C168 O181 1.251 . S
O169 C168 1.261 . S
H170 C164 0.930 . S
H171 C166 0.930 . S
N172 Cu161 1.985 . S
N172 C174 1.335 . S
N172 C175 1.390 . S
N173 C174 1.345 . S
N173 C176 1.336 . S
C174 N172 1.335 . S
C174 N173 1.345 . S
C174 H179 0.930 . S
C175 N172 1.390 . S
C175 C176 1.346 . S
C175 H180 0.930 . S
C176 N173 1.336 . S
C176 C175 1.346 . S
C176 H183 0.929 . S
C177 O167 1.282 . S
C177 O178 1.216 . S
O178 C177 1.216 . S
H179 C174 0.930 . S
H180 C175 0.930 . S
O181 Cu161 1.959 . S
O181 C168 1.251 . S
H182 C165 0.930 . S
H183 C176 0.929 . S
Cu184 N185 1.999 . S
Cu184 O190 1.974 . S
Cu184 N195 1.985 . S
Cu184 O204 1.959 . S
N185 Cu184 1.999 . S
N185 C187 1.263 . S
N185 C189 1.389 . S
N186 C187 1.358 . S
N186 C188 1.400 . S
C187 N185 1.263 . S
C187 N186 1.358 . S
C187 H193 0.930 . S
C188 N186 1.400 . S
C188 C189 1.351 . S
C188 H205 0.930 . S
C189 N185 1.389 . S
C189 C188 1.351 . S
C189 H194 0.930 . S
O190 Cu184 1.974 . S
O190 C200 1.282 . S
C191 O192 1.261 . S
C191 O204 1.251 . S
O192 C191 1.261 . S
H193 C187 0.930 . S
H194 C189 0.930 . S
N195 Cu184 1.985 . S
N195 C197 1.335 . S
N195 C198 1.390 . S
N196 C197 1.345 . S
N196 C199 1.336 . S
C197 N195 1.335 . S
C197 N196 1.345 . S
C197 H202 0.930 . S
C198 N195 1.390 . S
C198 C199 1.346 . S
C198 H203 0.930 . S
C199 N196 1.336 . S
C199 C198 1.346 . S
C199 H206 0.929 . S
C200 O190 1.282 . S
C200 O201 1.216 . S
O201 C200 1.216 . S
H202 C197 0.930 . S
H203 C198 0.930 . S
O204 Cu184 1.959 . S
O204 C191 1.251 . S
H205 C188 0.930 . S
H206 C199 0.929 . S
Cu207 N208 1.999 . S
Cu207 O213 1.974 . S
Cu207 N218 1.985 . S
Cu207 O227 1.959 . S
N208 Cu207 1.999 . S
N208 C210 1.263 . S
N208 C212 1.389 . S
N209 C210 1.358 . S
N209 C211 1.400 . S
C210 N208 1.263 . S
C210 N209 1.358 . S
C210 H216 0.930 . S
C211 N209 1.400 . S
C211 C212 1.351 . S
C211 H228 0.930 . S
C212 N208 1.389 . S
C212 C211 1.351 . S
C212 H217 0.930 . S
O213 Cu207 1.974 . S
O213 C223 1.282 . S
C214 O215 1.261 . S
C214 O227 1.251 . S
O215 C214 1.261 . S
H216 C210 0.930 . S
H217 C212 0.930 . S
N218 Cu207 1.985 . S
N218 C220 1.335 . S
N218 C221 1.390 . S
N219 C220 1.345 . S
N219 C222 1.336 . S
C220 N218 1.335 . S
C220 N219 1.345 . S
C220 H225 0.930 . S
C221 N218 1.390 . S
C221 C222 1.346 . S
C221 H226 0.930 . S
C222 N219 1.336 . S
C222 C221 1.346 . S
C222 H229 0.929 . S
C223 O213 1.282 . S
C223 O224 1.216 . S
O224 C223 1.216 . S
H225 C220 0.930 . S
H226 C221 0.930 . S
O227 Cu207 1.959 . S
O227 C214 1.251 . S
H228 C211 0.930 . S
H229 C222 0.929 . S
Cu230 N231 1.999 . S
Cu230 O236 1.974 . S
Cu230 N241 1.985 . S
Cu230 O250 1.959 . S
N231 Cu230 1.999 . S
N231 C233 1.263 . S
N231 C235 1.389 . S
N232 C233 1.358 . S
N232 C234 1.400 . S
C233 N231 1.263 . S
C233 N232 1.358 . S
C233 H239 0.930 . S
C234 N232 1.400 . S
C234 C235 1.351 . S
C234 H251 0.930 . S
C235 N231 1.389 . S
C235 C234 1.351 . S
C235 H240 0.930 . S
O236 Cu230 1.974 . S
O236 C246 1.282 . S
C237 O238 1.261 . S
C237 O250 1.251 . S
O238 C237 1.261 . S
H239 C233 0.930 . S
H240 C235 0.930 . S
N241 Cu230 1.985 . S
N241 C243 1.335 . S
N241 C244 1.390 . S
N242 C243 1.345 . S
N242 C245 1.336 . S
C243 N241 1.335 . S
C243 N242 1.345 . S
C243 H248 0.930 . S
C244 N241 1.390 . S
C244 C245 1.346 . S
C244 H249 0.930 . S
C245 N242 1.336 . S
C245 C244 1.346 . S
C245 H252 0.929 . S
C246 O236 1.282 . S
C246 O247 1.216 . S
O247 C246 1.216 . S
H248 C243 0.930 . S
H249 C244 0.930 . S
O250 Cu230 1.959 . S
O250 C237 1.251 . S
H251 C234 0.930 . S
H252 C245 0.929 . S
Cu253 N254 1.999 . S
Cu253 O259 1.974 . S
Cu253 N264 1.985 . S
Cu253 O273 1.959 . S
N254 Cu253 1.999 . S
N254 C256 1.263 . S
N254 C258 1.389 . S
N255 C256 1.358 . S
N255 C257 1.400 . S
C256 N254 1.263 . S
C256 N255 1.358 . S
C256 H262 0.930 . S
C257 N255 1.400 . S
C257 C258 1.351 . S
C257 H274 0.930 . S
C258 N254 1.389 . S
C258 C257 1.351 . S
C258 H263 0.930 . S
O259 Cu253 1.974 . S
O259 C269 1.282 . S
C260 O261 1.261 . S
C260 O273 1.251 . S
O261 C260 1.261 . S
H262 C256 0.930 . S
H263 C258 0.930 . S
N264 Cu253 1.985 . S
N264 C266 1.335 . S
N264 C267 1.390 . S
N265 C266 1.345 . S
N265 C268 1.336 . S
C266 N264 1.335 . S
C266 N265 1.345 . S
C266 H271 0.930 . S
C267 N264 1.390 . S
C267 C268 1.346 . S
C267 H272 0.930 . S
C268 N265 1.336 . S
C268 C267 1.346 . S
C268 H275 0.929 . S
C269 O259 1.282 . S
C269 O270 1.216 . S
O270 C269 1.216 . S
H271 C266 0.930 . S
H272 C267 0.930 . S
O273 Cu253 1.959 . S
O273 C260 1.251 . S
H274 C257 0.930 . S
H275 C268 0.929 . S
C276 C277 1.391 . S
C276 C278 1.394 . S
C276 H292 0.931 . S
C277 C276 1.391 . S
C277 C281 1.376 . S
C278 C276 1.394 . S
C278 C279 1.369 . S
C278 C282 1.531 . S
C279 C278 1.369 . S
C279 C280 1.410 . S
C279 C287 1.503 1_556 S
C280 C279 1.410 . S
C280 C281 1.392 . S
C280 C283 1.511 . S
C281 C277 1.376 . S
C281 C280 1.392 . S
C281 H293 0.929 . S
C282 C278 1.531 . S
C282 H294 1.025 . S
C282 H295 0.962 . S
C282 H296 0.960 . S
C283 C280 1.511 . S
C283 H297 0.961 . S
C283 H298 0.961 1_556 S
C283 H299 0.961 . S
C284 C285 1.370 . S
C284 C286 1.363 . S
C284 H300 0.931 . S
C285 C284 1.370 . S
C285 C289 1.408 . S
C286 C284 1.363 . S
C286 C287 1.370 . S
C286 C290 1.524 . S
C287 C279 1.503 1_554 S
C287 C286 1.370 . S
C287 C288 1.403 . S
C288 C287 1.403 . S
C288 C289 1.404 . S
C288 C291 1.539 . S
C289 C285 1.408 . S
C289 C288 1.404 . S
C289 H301 0.930 . S
C290 C286 1.524 . S
C290 H302 0.921 1_554 S
C290 H303 0.931 1_554 S
C290 H304 0.961 . S
C291 C288 1.539 . S
C291 H305 0.958 . S
C291 H306 0.961 . S
C291 H307 0.960 . S
H292 C276 0.931 . S
H293 C281 0.929 . S
H294 C282 1.025 . S
H295 C282 0.962 . S
H296 C282 0.960 . S
H297 C283 0.961 . S
H298 C283 0.961 1_554 S
H299 C283 0.961 . S
H300 C284 0.931 . S
H301 C289 0.930 . S
H302 C290 0.921 1_556 S
H303 C290 0.931 1_556 S
H304 C290 0.961 . S
H305 C291 0.958 . S
H306 C291 0.961 . S
H307 C291 0.960 . S
C308 C309 1.391 . S
C308 C310 1.394 . S
C308 H324 0.931 . S
C309 C308 1.391 . S
C309 C313 1.376 . S
C310 C308 1.394 . S
C310 C311 1.369 . S
C310 C314 1.531 . S
C311 C310 1.369 . S
C311 C312 1.410 . S
C311 C319 1.503 . S
C312 C311 1.410 . S
C312 C313 1.392 . S
C312 C315 1.511 . S
C313 C309 1.376 . S
C313 C312 1.392 . S
C313 H325 0.929 . S
C314 C310 1.531 . S
C314 H326 0.960 . S
C314 H327 0.962 . S
C314 H328 0.960 . S
C315 C312 1.511 . S
C315 H329 0.961 . S
C315 H330 0.961 . S
C315 H331 0.961 . S
C316 C317 1.370 . S
C316 C318 1.363 . S
C316 H332 0.931 . S
C317 C316 1.370 . S
C317 C321 1.408 . S
C318 C316 1.363 . S
C318 C319 1.370 . S
C318 C322 1.524 . S
C319 C311 1.503 . S
C319 C318 1.370 . S
C319 C320 1.403 . S
C320 C319 1.403 . S
C320 C321 1.404 . S
C320 C323 1.539 . S
C321 C317 1.408 . S
C321 C320 1.404 . S
C321 H333 0.930 . S
C322 C318 1.524 . S
C322 H334 0.956 . S
C322 H335 0.961 . S
C322 H336 0.961 . S
C323 C320 1.539 . S
C323 H337 0.958 . S
C323 H338 0.961 . S
C323 H339 0.960 . S
H324 C308 0.931 . S
H325 C313 0.929 . S
H326 C314 0.960 . S
H327 C314 0.962 . S
H328 C314 0.960 . S
H329 C315 0.961 . S
H330 C315 0.961 . S
H331 C315 0.961 . S
H332 C316 0.931 . S
H333 C321 0.930 . S
H334 C322 0.956 . S
H335 C322 0.961 . S
H336 C322 0.961 . S
H337 C323 0.958 . S
H338 C323 0.961 . S
H339 C323 0.960 . S
C340 C341 1.391 . S
C340 C342 1.394 . S
C340 H356 0.931 . S
C341 C340 1.391 . S
C341 C345 1.376 . S
C342 C340 1.394 . S
C342 C343 1.369 . S
C342 C346 1.531 . S
C343 C342 1.369 . S
C343 C344 1.410 . S
C343 C351 1.503 . S
C344 C343 1.410 . S
C344 C345 1.392 . S
C344 C347 1.511 . S
C345 C341 1.376 . S
C345 C344 1.392 . S
C345 H357 0.929 . S
C346 C342 1.531 . S
C346 H358 0.960 . S
C346 H359 0.962 . S
C346 H360 0.960 . S
C347 C344 1.511 . S
C347 H361 0.961 . S
C347 H362 0.961 . S
C347 H363 0.961 . S
C348 C349 1.370 . S
C348 C350 1.363 . S
C348 H364 0.931 . S
C349 C348 1.370 . S
C349 C353 1.408 . S
C350 C348 1.363 . S
C350 C351 1.370 . S
C350 C354 1.524 . S
C351 C343 1.503 . S
C351 C350 1.370 . S
C351 C352 1.403 . S
C352 C351 1.403 . S
C352 C353 1.404 . S
C352 C355 1.539 . S
C353 C349 1.408 . S
C353 C352 1.404 . S
C353 H365 0.930 . S
C354 C350 1.524 . S
C354 H366 0.956 . S
C354 H367 0.961 . S
C354 H368 0.961 . S
C355 C352 1.539 . S
C355 H369 0.958 . S
C355 H370 0.961 . S
C355 H371 0.960 . S
H356 C340 0.931 . S
H357 C345 0.929 . S
H358 C346 0.960 . S
H359 C346 0.962 . S
H360 C346 0.960 . S
H361 C347 0.961 . S
H362 C347 0.961 . S
H363 C347 0.961 . S
H364 C348 0.931 . S
H365 C353 0.930 . S
H366 C354 0.956 . S
H367 C354 0.961 . S
H368 C354 0.961 . S
H369 C355 0.958 . S
H370 C355 0.961 . S
H371 C355 0.960 . S
C372 C373 1.391 . S
C372 C374 1.394 . S
C372 H388 0.931 . S
C373 C372 1.391 . S
C373 C377 1.376 . S
C374 C372 1.394 . S
C374 C375 1.369 . S
C374 C378 1.531 . S
C375 C374 1.369 . S
C375 C376 1.410 . S
C375 C383 1.503 1_554 S
C376 C375 1.410 . S
C376 C377 1.392 . S
C376 C379 1.511 . S
C377 C373 1.376 . S
C377 C376 1.392 . S
C377 H389 0.929 . S
C378 C374 1.531 . S
C378 H390 0.949 1_554 S
C378 H391 0.962 . S
C378 H392 0.960 . S
C379 C376 1.511 . S
C379 H393 0.961 . S
C379 H394 0.961 1_554 S
C379 H395 0.961 . S
C380 C381 1.370 . S
C380 C382 1.363 . S
C380 H396 0.931 . S
C381 C380 1.370 . S
C381 C385 1.408 . S
C382 C380 1.363 . S
C382 C383 1.370 . S
C382 C386 1.524 . S
C383 C375 1.503 1_556 S
C383 C382 1.370 . S
C383 C384 1.403 . S
C384 C383 1.403 . S
C384 C385 1.404 . S
C384 C387 1.539 . S
C385 C381 1.408 . S
C385 C384 1.404 . S
C385 H397 0.930 . S
C386 C382 1.524 . S
C386 H398 0.956 1_556 S
C386 H399 0.961 1_556 S
C386 H400 0.961 . S
C387 C384 1.539 . S
C387 H401 0.958 . S
C387 H402 0.961 . S
C387 H403 0.960 . S
H388 C372 0.931 . S
H389 C377 0.929 . S
H390 C378 0.949 1_556 S
H391 C378 0.962 . S
H392 C378 0.960 . S
H393 C379 0.961 . S
H394 C379 0.961 1_556 S
H395 C379 0.961 . S
H396 C380 0.931 . S
H397 C385 0.930 . S
H398 C386 0.956 1_554 S
H399 C386 0.961 1_554 S
H400 C386 0.961 . S
H401 C387 0.958 . S
H402 C387 0.961 . S
H403 C387 0.960 . S
C404 C405 1.391 . S
C404 C406 1.394 . S
C404 H420 0.931 . S
C405 C404 1.391 . S
C405 C409 1.376 . S
C406 C404 1.394 . S
C406 C407 1.369 . S
C406 C410 1.531 . S
C407 C406 1.369 . S
C407 C408 1.410 . S
C407 C415 1.503 . S
C408 C407 1.410 . S
C408 C409 1.392 . S
C408 C411 1.511 . S
C409 C405 1.376 . S
C409 C408 1.392 . S
C409 H421 0.929 . S
C410 C406 1.531 . S
C410 H422 0.960 . S
C410 H423 0.962 . S
C410 H424 0.960 . S
C411 C408 1.511 . S
C411 H425 0.961 . S
C411 H426 0.961 . S
C411 H427 0.961 . S
C412 C413 1.370 . S
C412 C414 1.363 . S
C412 H428 0.931 . S
C413 C412 1.370 . S
C413 C417 1.408 . S
C414 C412 1.363 . S
C414 C415 1.370 . S
C414 C418 1.524 . S
C415 C407 1.503 . S
C415 C414 1.370 . S
C415 C416 1.403 . S
C416 C415 1.403 . S
C416 C417 1.404 . S
C416 C419 1.539 . S
C417 C413 1.408 . S
C417 C416 1.404 . S
C417 H429 0.930 . S
C418 C414 1.524 . S
C418 H430 0.956 . S
C418 H431 0.961 . S
C418 H432 0.961 . S
C419 C416 1.539 . S
C419 H433 0.958 . S
C419 H434 0.961 . S
C419 H435 0.960 . S
H420 C404 0.931 . S
H421 C409 0.929 . S
H422 C410 0.960 . S
H423 C410 0.962 . S
H424 C410 0.960 . S
H425 C411 0.961 . S
H426 C411 0.961 . S
H427 C411 0.961 . S
H428 C412 0.931 . S
H429 C417 0.930 . S
H430 C418 0.956 . S
H431 C418 0.961 . S
H432 C418 0.961 . S
H433 C419 0.958 . S
H434 C419 0.961 . S
H435 C419 0.960 . S
C436 C437 1.391 . S
C436 C438 1.394 . S
C436 H452 0.931 . S
C437 C436 1.391 . S
C437 C441 1.376 . S
C438 C436 1.394 . S
C438 C439 1.369 . S
C438 C442 1.531 . S
C439 C438 1.369 . S
C439 C440 1.410 . S
C439 C447 1.503 . S
C440 C439 1.410 . S
C440 C441 1.392 . S
C440 C443 1.511 . S
C441 C437 1.376 . S
C441 C440 1.392 . S
C441 H453 0.929 . S
C442 C438 1.531 . S
C442 H454 0.960 . S
C442 H455 0.962 . S
C442 H456 0.960 . S
C443 C440 1.511 . S
C443 H457 0.961 . S
C443 H458 0.961 . S
C443 H459 0.961 . S
C444 C445 1.370 . S
C444 C446 1.363 . S
C444 H460 0.931 . S
C445 C444 1.370 . S
C445 C449 1.408 . S
C446 C444 1.363 . S
C446 C447 1.370 . S
C446 C450 1.524 . S
C447 C439 1.503 . S
C447 C446 1.370 . S
C447 C448 1.403 . S
C448 C447 1.403 . S
C448 C449 1.404 . S
C448 C451 1.539 . S
C449 C445 1.408 . S
C449 C448 1.404 . S
C449 H461 0.930 . S
C450 C446 1.524 . S
C450 H462 0.956 . S
C450 H463 0.961 . S
C450 H464 0.961 . S
C451 C448 1.539 . S
C451 H465 0.958 . S
C451 H466 0.961 . S
C451 H467 0.960 . S
H452 C436 0.931 . S
H453 C441 0.929 . S
H454 C442 0.960 . S
H455 C442 0.962 . S
H456 C442 0.960 . S
H457 C443 0.961 . S
H458 C443 0.961 . S
H459 C443 0.961 . S
H460 C444 0.931 . S
H461 C449 0.930 . S
H462 C450 0.956 . S
H463 C450 0.961 . S
H464 C450 0.961 . S
H465 C451 0.958 . S
H466 C451 0.961 . S
H467 C451 0.960 . S
C468 C469 1.391 . S
C468 C470 1.394 . S
C468 H484 0.931 . S
C469 C468 1.391 . S
C469 C473 1.376 . S
C470 C468 1.394 . S
C470 C471 1.369 . S
C470 C474 1.531 . S
C471 C470 1.369 . S
C471 C472 1.410 . S
C471 C479 1.503 . S
C472 C471 1.410 . S
C472 C473 1.392 . S
C472 C475 1.511 . S
C473 C469 1.376 . S
C473 C472 1.392 . S
C473 H485 0.929 . S
C474 C470 1.531 . S
C474 H486 0.960 . S
C474 H487 0.962 . S
C474 H488 0.960 . S
C475 C472 1.511 . S
C475 H489 0.961 . S
C475 H490 0.961 . S
C475 H491 0.961 . S
C476 C477 1.370 . S
C476 C478 1.363 . S
C476 H492 0.931 . S
C477 C476 1.370 . S
C477 C481 1.408 . S
C478 C476 1.363 . S
C478 C479 1.370 . S
C478 C482 1.524 . S
C479 C471 1.503 . S
C479 C478 1.370 . S
C479 C480 1.403 . S
C480 C479 1.403 . S
C480 C481 1.404 . S
C480 C483 1.539 . S
C481 C477 1.408 . S
C481 C480 1.404 . S
C481 H493 0.930 . S
C482 C478 1.524 . S
C482 H494 0.956 . S
C482 H495 0.961 . S
C482 H496 0.961 . S
C483 C480 1.539 . S
C483 H497 0.958 . S
C483 H498 0.961 . S
C483 H499 0.960 . S
H484 C468 0.931 . S
H485 C473 0.929 . S
H486 C474 0.960 . S
H487 C474 0.962 . S
H488 C474 0.960 . S
H489 C475 0.961 . S
H490 C475 0.961 . S
H491 C475 0.961 . S
H492 C476 0.931 . S
H493 C481 0.930 . S
H494 C482 0.956 . S
H495 C482 0.961 . S
H496 C482 0.961 . S
H497 C483 0.958 . S
H498 C483 0.961 . S
H499 C483 0.960 . S
C500 C501 1.391 . S
C500 C502 1.394 . S
C500 H516 0.931 . S
C501 C500 1.391 . S
C501 C505 1.376 . S
C502 C500 1.394 . S
C502 C503 1.369 . S
C502 C506 1.531 . S
C503 C502 1.369 . S
C503 C504 1.410 . S
C503 C511 1.503 . S
C504 C503 1.410 . S
C504 C505 1.392 . S
C504 C507 1.511 . S
C505 C501 1.376 . S
C505 C504 1.392 . S
C505 H517 0.929 . S
C506 C502 1.531 . S
C506 H518 0.960 . S
C506 H519 0.962 . S
C506 H520 0.960 . S
C507 C504 1.511 . S
C507 H521 0.961 . S
C507 H522 0.961 . S
C507 H523 0.961 . S
C508 C509 1.370 . S
C508 C510 1.363 . S
C508 H524 0.931 . S
C509 C508 1.370 . S
C509 C513 1.408 . S
C510 C508 1.363 . S
C510 C511 1.370 . S
C510 C514 1.524 . S
C511 C503 1.503 . S
C511 C510 1.370 . S
C511 C512 1.403 . S
C512 C511 1.403 . S
C512 C513 1.404 . S
C512 C515 1.539 . S
C513 C509 1.408 . S
C513 C512 1.404 . S
C513 H525 0.930 . S
C514 C510 1.524 . S
C514 H526 0.956 . S
C514 H527 0.961 . S
C514 H528 0.961 . S
C515 C512 1.539 . S
C515 H529 0.958 . S
C515 H530 0.961 . S
C515 H531 0.960 . S
H516 C500 0.931 . S
H517 C505 0.929 . S
H518 C506 0.960 . S
H519 C506 0.962 . S
H520 C506 0.960 . S
H521 C507 0.961 . S
H522 C507 0.961 . S
H523 C507 0.961 . S
H524 C508 0.931 . S
H525 C513 0.930 . S
H526 C514 0.956 . S
H527 C514 0.961 . S
H528 C514 0.961 . S
H529 C515 0.958 . S
H530 C515 0.961 . S
H531 C515 0.960 . S
C532 C533 1.391 . S
C532 C534 1.394 . S
C532 H548 0.931 . S
C533 C532 1.391 . S
C533 C537 1.376 . S
C534 C532 1.394 . S
C534 C535 1.369 . S
C534 C538 1.531 . S
C535 C534 1.369 . S
C535 C536 1.410 . S
C535 C543 1.503 . S
C536 C535 1.410 . S
C536 C537 1.392 . S
C536 C539 1.511 . S
C537 C533 1.376 . S
C537 C536 1.392 . S
C537 H549 0.929 . S
C538 C534 1.531 . S
C538 H550 0.960 . S
C538 H551 0.962 . S
C538 H552 0.960 . S
C539 C536 1.511 . S
C539 H553 0.961 . S
C539 H554 0.961 . S
C539 H555 0.961 . S
C540 C541 1.370 . S
C540 C542 1.363 . S
C540 H556 0.931 . S
C541 C540 1.370 . S
C541 C545 1.408 . S
C542 C540 1.363 . S
C542 C543 1.370 . S
C542 C546 1.524 . S
C543 C535 1.503 . S
C543 C542 1.370 . S
C543 C544 1.403 . S
C544 C543 1.403 . S
C544 C545 1.404 . S
C544 C547 1.539 . S
C545 C541 1.408 . S
C545 C544 1.404 . S
C545 H557 0.930 . S
C546 C542 1.524 . S
C546 H558 0.956 . S
C546 H559 0.961 . S
C546 H560 0.961 . S
C547 C544 1.539 . S
C547 H561 0.958 . S
C547 H562 0.961 . S
C547 H563 0.960 . S
H548 C532 0.931 . S
H549 C537 0.929 . S
H550 C538 0.960 . S
H551 C538 0.962 . S
H552 C538 0.960 . S
H553 C539 0.961 . S
H554 C539 0.961 . S
H555 C539 0.961 . S
H556 C540 0.931 . S
H557 C545 0.930 . S
H558 C546 0.956 . S
H559 C546 0.961 . S
H560 C546 0.961 . S
H561 C547 0.958 . S
H562 C547 0.961 . S
H563 C547 0.960 . S
C564 C565 1.391 . S
C564 C566 1.394 . S
C564 H580 0.931 . S
C565 C564 1.391 . S
C565 C569 1.376 . S
C566 C564 1.394 . S
C566 C567 1.369 . S
C566 C570 1.531 . S
C567 C566 1.369 . S
C567 C568 1.410 . S
C567 C575 1.503 . S
C568 C567 1.410 . S
C568 C569 1.392 . S
C568 C571 1.511 . S
C569 C565 1.376 . S
C569 C568 1.392 . S
C569 H581 0.929 . S
C570 C566 1.531 . S
C570 H582 0.960 . S
C570 H583 0.962 . S
C570 H584 0.960 . S
C571 C568 1.511 . S
C571 H585 0.961 . S
C571 H586 0.961 . S
C571 H587 0.961 . S
C572 C573 1.370 . S
C572 C574 1.363 . S
C572 H588 0.931 . S
C573 C572 1.370 . S
C573 C577 1.408 . S
C574 C572 1.363 . S
C574 C575 1.370 . S
C574 C578 1.524 . S
C575 C567 1.503 . S
C575 C574 1.370 . S
C575 C576 1.403 . S
C576 C575 1.403 . S
C576 C577 1.404 . S
C576 C579 1.539 . S
C577 C573 1.408 . S
C577 C576 1.404 . S
C577 H589 0.930 . S
C578 C574 1.524 . S
C578 H590 0.956 . S
C578 H591 0.961 . S
C578 H592 0.961 . S
C579 C576 1.539 . S
C579 H593 0.958 . S
C579 H594 0.961 . S
C579 H595 0.960 . S
H580 C564 0.931 . S
H581 C569 0.929 . S
H582 C570 0.960 . S
H583 C570 0.962 . S
H584 C570 0.960 . S
H585 C571 0.961 . S
H586 C571 0.961 . S
H587 C571 0.961 . S
H588 C572 0.931 . S
H589 C577 0.930 . S
H590 C578 0.956 . S
H591 C578 0.961 . S
H592 C578 0.961 . S
H593 C579 0.958 . S
H594 C579 0.961 . S
H595 C579 0.960 . S
C596 C597 1.391 . S
C596 C598 1.394 . S
C596 H612 0.931 . S
C597 C596 1.391 . S
C597 C601 1.376 . S
C598 C596 1.394 . S
C598 C599 1.369 . S
C598 C602 1.531 . S
C599 C598 1.369 . S
C599 C600 1.410 . S
C599 C607 1.503 . S
C600 C599 1.410 . S
C600 C601 1.392 . S
C600 C603 1.511 . S
C601 C597 1.376 . S
C601 C600 1.392 . S
C601 H613 0.929 . S
C602 C598 1.531 . S
C602 H614 0.960 . S
C602 H615 0.962 . S
C602 H616 0.960 . S
C603 C600 1.511 . S
C603 H617 0.961 . S
C603 H618 0.961 . S
C603 H619 0.961 . S
C604 C605 1.370 . S
C604 C606 1.363 . S
C604 H620 0.931 . S
C605 C604 1.370 . S
C605 C609 1.408 . S
C606 C604 1.363 . S
C606 C607 1.370 . S
C606 C610 1.524 . S
C607 C599 1.503 . S
C607 C606 1.370 . S
C607 C608 1.403 . S
C608 C607 1.403 . S
C608 C609 1.404 . S
C608 C611 1.539 . S
C609 C605 1.408 . S
C609 C608 1.404 . S
C609 H621 0.930 . S
C610 C606 1.524 . S
C610 H622 0.956 . S
C610 H623 0.961 . S
C610 H624 0.961 . S
C611 C608 1.539 . S
C611 H625 0.958 . S
C611 H626 0.961 . S
C611 H627 0.960 . S
H612 C596 0.931 . S
H613 C601 0.929 . S
H614 C602 0.960 . S
H615 C602 0.962 . S
H616 C602 0.960 . S
H617 C603 0.961 . S
H618 C603 0.961 . S
H619 C603 0.961 . S
H620 C604 0.931 . S
H621 C609 0.930 . S
H622 C610 0.956 . S
H623 C610 0.961 . S
H624 C610 0.961 . S
H625 C611 0.958 . S
H626 C611 0.961 . S
H627 C611 0.960 . S
C628 C629 1.391 . S
C628 C630 1.394 . S
C628 H644 0.931 . S
C629 C628 1.391 . S
C629 C633 1.376 . S
C630 C628 1.394 . S
C630 C631 1.369 . S
C630 C634 1.531 . S
C631 C630 1.369 . S
C631 C632 1.410 . S
C631 C639 1.503 . S
C632 C631 1.410 . S
C632 C633 1.392 . S
C632 C635 1.511 . S
C633 C629 1.376 . S
C633 C632 1.392 . S
C633 H645 0.929 . S
C634 C630 1.531 . S
C634 H646 0.960 . S
C634 H647 0.962 . S
C634 H648 0.960 . S
C635 C632 1.511 . S
C635 H649 0.961 . S
C635 H650 0.961 . S
C635 H651 0.961 . S
C636 C637 1.370 . S
C636 C638 1.363 . S
C636 H652 0.931 . S
C637 C636 1.370 . S
C637 C641 1.408 . S
C638 C636 1.363 . S
C638 C639 1.370 . S
C638 C642 1.524 . S
C639 C631 1.503 . S
C639 C638 1.370 . S
C639 C640 1.403 . S
C640 C639 1.403 . S
C640 C641 1.404 . S
C640 C643 1.539 . S
C641 C637 1.408 . S
C641 C640 1.404 . S
C641 H653 0.930 . S
C642 C638 1.524 . S
C642 H654 0.956 . S
C642 H655 0.961 . S
C642 H656 0.961 . S
C643 C640 1.539 . S
C643 H657 0.958 . S
C643 H658 0.961 . S
C643 H659 0.960 . S
H644 C628 0.931 . S
H645 C633 0.929 . S
H646 C634 0.960 . S
H647 C634 0.962 . S
H648 C634 0.960 . S
H649 C635 0.961 . S
H650 C635 0.961 . S
H651 C635 0.961 . S
H652 C636 0.931 . S
H653 C641 0.930 . S
H654 C642 0.956 . S
H655 C642 0.961 . S
H656 C642 0.961 . S
H657 C643 0.958 . S
H658 C643 0.961 . S
H659 C643 0.960 . S
C660 C661 1.391 . S
C660 C662 1.394 . S
C660 H676 0.931 . S
C661 C660 1.391 . S
C661 C665 1.376 . S
C662 C660 1.394 . S
C662 C663 1.369 . S
C662 C666 1.531 . S
C663 C662 1.369 . S
C663 C664 1.410 . S
C663 C671 1.503 1_655 S
C664 C663 1.410 . S
C664 C665 1.392 . S
C664 C667 1.511 . S
C665 C661 1.376 . S
C665 C664 1.392 . S
C665 H677 0.929 . S
C666 C662 1.531 . S
C666 H678 0.960 1_655 S
C666 H679 0.962 . S
C666 H680 0.960 . S
C667 C664 1.511 . S
C667 H681 0.961 . S
C667 H682 0.952 1_655 S
C667 H683 0.961 . S
C668 C669 1.370 . S
C668 C670 1.363 . S
C668 H684 0.931 . S
C669 C668 1.370 . S
C669 C673 1.408 . S
C670 C668 1.363 . S
C670 C671 1.370 . S
C670 C674 1.524 1_455 S
C671 C663 1.503 1_455 S
C671 C670 1.370 . S
C671 C672 1.403 . S
C672 C671 1.403 . S
C672 C673 1.404 . S
C672 C675 1.539 . S
C673 C669 1.408 . S
C673 C672 1.404 . S
C673 H685 0.930 . S
C674 C670 1.524 1_655 S
C674 H686 0.956 . S
C674 H687 0.961 . S
C674 H688 0.961 1_655 S
C675 C672 1.539 . S
C675 H689 0.958 . S
C675 H690 0.961 . S
C675 H691 0.960 . S
H676 C660 0.931 . S
H677 C665 0.929 . S
H678 C666 0.960 1_455 S
H679 C666 0.962 . S
H680 C666 0.960 . S
H681 C667 0.961 . S
H682 C667 0.952 1_455 S
H683 C667 0.961 . S
H684 C668 0.931 . S
H685 C673 0.930 . S
H686 C674 0.956 . S
H687 C674 0.961 . S
H688 C674 0.961 1_455 S
H689 C675 0.958 . S
H690 C675 0.961 . S
H691 C675 0.960 . S
C692 C693 1.391 . S
C692 C694 1.394 . S
C692 H708 0.931 . S
C693 C692 1.391 . S
C693 C697 1.376 . S
C694 C692 1.394 . S
C694 C695 1.369 . S
C694 C698 1.531 . S
C695 C694 1.369 . S
C695 C696 1.410 . S
C695 C703 1.503 1_545 S
C696 C695 1.410 . S
C696 C697 1.392 . S
C696 C699 1.511 1_545 S
C697 C693 1.376 . S
C697 C696 1.392 . S
C697 H709 0.929 . S
C698 C694 1.531 . S
C698 H710 0.960 . S
C698 H711 0.962 . S
C698 H712 0.960 . S
C699 C696 1.511 1_565 S
C699 H713 0.961 . S
C699 H714 0.961 . S
C699 H715 0.961 . S
C700 C701 1.370 . S
C700 C702 1.363 . S
C700 H716 0.931 . S
C701 C700 1.370 . S
C701 C705 1.408 . S
C702 C700 1.363 . S
C702 C703 1.370 . S
C702 C706 1.524 1_565 S
C703 C695 1.503 1_565 S
C703 C702 1.370 . S
C703 C704 1.403 . S
C704 C703 1.403 . S
C704 C705 1.404 . S
C704 C707 1.539 . S
C705 C701 1.408 . S
C705 C704 1.404 . S
C705 H717 0.930 . S
C706 C702 1.524 1_545 S
C706 H718 0.956 . S
C706 H719 0.961 . S
C706 H720 0.961 1_545 S
C707 C704 1.539 . S
C707 H721 0.958 . S
C707 H722 0.961 . S
C707 H723 0.960 . S
H708 C692 0.931 . S
H709 C697 0.929 . S
H710 C698 0.960 . S
H711 C698 0.962 . S
H712 C698 0.960 . S
H713 C699 0.961 . S
H714 C699 0.961 . S
H715 C699 0.961 . S
H716 C700 0.931 . S
H717 C705 0.930 . S
H718 C706 0.956 . S
H719 C706 0.961 . S
H720 C706 0.961 1_565 S
H721 C707 0.958 . S
H722 C707 0.961 . S
H723 C707 0.960 . S
C724 C725 1.391 . S
C724 C726 1.394 . S
C724 H740 0.931 . S
C725 C724 1.391 . S
C725 C729 1.376 . S
C726 C724 1.394 . S
C726 C727 1.369 . S
C726 C730 1.531 . S
C727 C726 1.369 . S
C727 C728 1.410 . S
C727 C735 1.503 . S
C728 C727 1.410 . S
C728 C729 1.392 . S
C728 C731 1.511 . S
C729 C725 1.376 . S
C729 C728 1.392 . S
C729 H741 0.929 . S
C730 C726 1.531 . S
C730 H742 0.960 . S
C730 H743 0.962 . S
C730 H744 0.960 . S
C731 C728 1.511 . S
C731 H745 0.961 . S
C731 H746 0.961 . S
C731 H747 0.961 . S
C732 C733 1.370 . S
C732 C734 1.363 . S
C732 H748 0.931 . S
C733 C732 1.370 . S
C733 C737 1.408 . S
C734 C732 1.363 . S
C734 C735 1.370 . S
C734 C738 1.524 . S
C735 C727 1.503 . S
C735 C734 1.370 . S
C735 C736 1.403 . S
C736 C735 1.403 . S
C736 C737 1.404 . S
C736 C739 1.539 . S
C737 C733 1.408 . S
C737 C736 1.404 . S
C737 H749 0.930 . S
C738 C734 1.524 . S
C738 H750 0.956 . S
C738 H751 0.961 . S
C738 H752 0.961 . S
C739 C736 1.539 . S
C739 H753 0.958 . S
C739 H754 0.961 . S
C739 H755 0.960 . S
H740 C724 0.931 . S
H741 C729 0.929 . S
H742 C730 0.960 . S
H743 C730 0.962 . S
H744 C730 0.960 . S
H745 C731 0.961 . S
H746 C731 0.961 . S
H747 C731 0.961 . S
H748 C732 0.931 . S
H749 C737 0.930 . S
H750 C738 0.956 . S
H751 C738 0.961 . S
H752 C738 0.961 . S
H753 C739 0.958 . S
H754 C739 0.961 . S
H755 C739 0.960 . S
C756 C757 1.391 . S
C756 C758 1.394 . S
C756 H772 0.931 . S
C757 C756 1.391 . S
C757 C761 1.376 . S
C758 C756 1.394 . S
C758 C759 1.369 . S
C758 C762 1.531 . S
C759 C758 1.369 . S
C759 C760 1.410 . S
C759 C767 1.503 1_545 S
C760 C759 1.410 . S
C760 C761 1.392 . S
C760 C763 1.511 1_545 S
C761 C757 1.376 . S
C761 C760 1.392 . S
C761 H773 0.929 . S
C762 C758 1.531 . S
C762 H774 0.960 . S
C762 H775 0.962 . S
C762 H776 0.960 . S
C763 C760 1.511 1_565 S
C763 H777 0.961 . S
C763 H778 0.961 . S
C763 H779 0.961 . S
C764 C765 1.370 . S
C764 C766 1.363 . S
C764 H780 0.931 . S
C765 C764 1.370 . S
C765 C769 1.408 . S
C766 C764 1.363 . S
C766 C767 1.370 . S
C766 C770 1.524 . S
C767 C759 1.503 1_565 S
C767 C766 1.370 . S
C767 C768 1.403 . S
C768 C767 1.403 . S
C768 C769 1.404 . S
C768 C771 1.539 . S
C769 C765 1.408 . S
C769 C768 1.404 . S
C769 H781 0.930 . S
C770 C766 1.524 . S
C770 H782 0.956 1_565 S
C770 H783 0.961 . S
C770 H784 0.961 . S
C771 C768 1.539 . S
C771 H785 0.958 . S
C771 H786 0.961 . S
C771 H787 0.960 . S
H772 C756 0.931 . S
H773 C761 0.929 . S
H774 C762 0.960 . S
H775 C762 0.962 . S
H776 C762 0.960 . S
H777 C763 0.961 . S
H778 C763 0.961 . S
H779 C763 0.961 . S
H780 C764 0.931 . S
H781 C769 0.930 . S
H782 C770 0.956 1_545 S
H783 C770 0.961 . S
H784 C770 0.961 . S
H785 C771 0.958 . S
H786 C771 0.961 . S
H787 C771 0.960 . S
C788 C789 1.391 . S
C788 C790 1.394 . S
C788 H804 0.931 . S
C789 C788 1.391 . S
C789 C793 1.376 . S
C790 C788 1.394 . S
C790 C791 1.369 . S
C790 C794 1.531 . S
C791 C790 1.369 . S
C791 C792 1.410 . S
C791 C799 1.503 . S
C792 C791 1.410 . S
C792 C793 1.392 . S
C792 C795 1.511 . S
C793 C789 1.376 . S
C793 C792 1.392 . S
C793 H805 0.929 . S
C794 C790 1.531 . S
C794 H806 0.960 . S
C794 H807 0.962 . S
C794 H808 0.960 . S
C795 C792 1.511 . S
C795 H809 0.961 . S
C795 H810 0.961 . S
C795 H811 0.961 . S
C796 C797 1.370 . S
C796 C798 1.363 . S
C796 H812 0.931 . S
C797 C796 1.370 . S
C797 C801 1.408 . S
C798 C796 1.363 . S
C798 C799 1.370 . S
C798 C802 1.524 . S
C799 C791 1.503 . S
C799 C798 1.370 . S
C799 C800 1.403 . S
C800 C799 1.403 . S
C800 C801 1.404 . S
C800 C803 1.539 . S
C801 C797 1.408 . S
C801 C800 1.404 . S
C801 H813 0.930 . S
C802 C798 1.524 . S
C802 H814 0.956 . S
C802 H815 0.961 . S
C802 H816 0.961 . S
C803 C800 1.539 . S
C803 H817 0.958 . S
C803 H818 0.961 . S
C803 H819 0.960 . S
H804 C788 0.931 . S
H805 C793 0.929 . S
H806 C794 0.960 . S
H807 C794 0.962 . S
H808 C794 0.960 . S
H809 C795 0.961 . S
H810 C795 0.961 . S
H811 C795 0.961 . S
H812 C796 0.931 . S
H813 C801 0.930 . S
H814 C802 0.956 . S
H815 C802 0.961 . S
H816 C802 0.961 . S
H817 C803 0.958 . S
H818 C803 0.961 . S
H819 C803 0.960 . S
C820 C821 1.391 . S
C820 C822 1.394 . S
C820 H836 0.931 . S
C821 C820 1.391 . S
C821 C825 1.376 . S
C822 C820 1.394 . S
C822 C823 1.369 . S
C822 C826 1.531 1_455 S
C823 C822 1.369 . S
C823 C824 1.410 . S
C823 C831 1.503 1_455 S
C824 C823 1.410 . S
C824 C825 1.392 . S
C824 C827 1.511 . S
C825 C821 1.376 . S
C825 C824 1.392 . S
C825 H837 0.929 . S
C826 C822 1.531 1_655 S
C826 H838 0.960 . S
C826 H839 0.962 . S
C826 H840 0.960 . S
C827 C824 1.511 . S
C827 H841 0.961 . S
C827 H842 0.961 . S
C827 H843 0.961 . S
C828 C829 1.370 . S
C828 C830 1.363 . S
C828 H844 0.931 . S
C829 C828 1.370 . S
C829 C833 1.408 . S
C830 C828 1.363 . S
C830 C831 1.370 . S
C830 C834 1.524 . S
C831 C823 1.503 1_655 S
C831 C830 1.370 . S
C831 C832 1.403 . S
C832 C831 1.403 . S
C832 C833 1.404 . S
C832 C835 1.539 1_655 S
C833 C829 1.408 . S
C833 C832 1.404 . S
C833 H845 0.930 . S
C834 C830 1.524 . S
C834 H846 0.956 . S
C834 H847 0.961 . S
C834 H848 0.961 . S
C835 C832 1.539 1_455 S
C835 H849 0.958 . S
C835 H850 0.961 . S
C835 H851 0.960 . S
H836 C820 0.931 . S
H837 C825 0.929 . S
H838 C826 0.960 . S
H839 C826 0.962 . S
H840 C826 0.960 . S
H841 C827 0.961 . S
H842 C827 0.961 . S
H843 C827 0.961 . S
H844 C828 0.931 . S
H845 C833 0.930 . S
H846 C834 0.956 . S
H847 C834 0.961 . S
H848 C834 0.961 . S
H849 C835 0.958 . S
H850 C835 0.961 . S
H851 C835 0.960 . S
C852 C853 1.391 . S
C852 C854 1.394 . S
C852 H868 0.931 . S
C853 C852 1.391 . S
C853 C857 1.376 . S
C854 C852 1.394 . S
C854 C855 1.369 . S
C854 C858 1.531 . S
C855 C854 1.369 . S
C855 C856 1.410 . S
C855 C863 1.503 . S
C856 C855 1.410 . S
C856 C857 1.392 . S
C856 C859 1.511 . S
C857 C853 1.376 . S
C857 C856 1.392 . S
C857 H869 0.929 . S
C858 C854 1.531 . S
C858 H870 0.960 . S
C858 H871 0.962 . S
C858 H872 0.960 . S
C859 C856 1.511 . S
C859 H873 0.961 . S
C859 H874 0.961 . S
C859 H875 0.961 . S
C860 C861 1.370 . S
C860 C862 1.363 . S
C860 H876 0.931 . S
C861 C860 1.370 . S
C861 C865 1.408 . S
C862 C860 1.363 . S
C862 C863 1.370 . S
C862 C866 1.524 . S
C863 C855 1.503 . S
C863 C862 1.370 . S
C863 C864 1.403 . S
C864 C863 1.403 . S
C864 C865 1.404 . S
C864 C867 1.539 . S
C865 C861 1.408 . S
C865 C864 1.404 . S
C865 H877 0.930 . S
C866 C862 1.524 . S
C866 H878 0.956 . S
C866 H879 0.961 . S
C866 H880 0.961 . S
C867 C864 1.539 . S
C867 H881 0.958 . S
C867 H882 0.961 . S
C867 H883 0.960 . S
H868 C852 0.931 . S
H869 C857 0.929 . S
H870 C858 0.960 . S
H871 C858 0.962 . S
H872 C858 0.960 . S
H873 C859 0.961 . S
H874 C859 0.961 . S
H875 C859 0.961 . S
H876 C860 0.931 . S
H877 C865 0.930 . S
H878 C866 0.956 . S
H879 C866 0.961 . S
H880 C866 0.961 . S
H881 C867 0.958 . S
H882 C867 0.961 . S
H883 C867 0.960 . S
C884 C885 1.391 . S
C884 C886 1.394 . S
C884 H900 0.931 . S
C885 C884 1.391 . S
C885 C889 1.376 . S
C886 C884 1.394 . S
C886 C887 1.369 . S
C886 C890 1.531 1_655 S
C887 C886 1.369 . S
C887 C888 1.410 . S
C887 C895 1.503 1_655 S
C888 C887 1.410 . S
C888 C889 1.392 . S
C888 C891 1.511 . S
C889 C885 1.376 . S
C889 C888 1.392 . S
C889 H901 0.929 . S
C890 C886 1.531 1_455 S
C890 H902 0.960 . S
C890 H903 0.962 . S
C890 H904 0.960 . S
C891 C888 1.511 . S
C891 H905 0.961 . S
C891 H906 0.961 . S
C891 H907 0.961 . S
C892 C893 1.370 . S
C892 C894 1.363 . S
C892 H908 0.931 . S
C893 C892 1.370 . S
C893 C897 1.408 . S
C894 C892 1.363 . S
C894 C895 1.370 . S
C894 C898 1.524 . S
C895 C887 1.503 1_455 S
C895 C894 1.370 . S
C895 C896 1.403 . S
C896 C895 1.403 . S
C896 C897 1.404 . S
C896 C899 1.539 1_455 S
C897 C893 1.408 . S
C897 C896 1.404 . S
C897 H909 0.930 . S
C898 C894 1.524 . S
C898 H910 0.956 . S
C898 H911 0.961 . S
C898 H912 0.961 . S
C899 C896 1.539 1_655 S
C899 H913 0.958 . S
C899 H914 0.961 . S
C899 H915 0.960 . S
H900 C884 0.931 . S
H901 C889 0.929 . S
H902 C890 0.960 . S
H903 C890 0.962 . S
H904 C890 0.960 . S
H905 C891 0.961 . S
H906 C891 0.961 . S
H907 C891 0.961 . S
H908 C892 0.931 . S
H909 C897 0.930 . S
H910 C898 0.956 . S
H911 C898 0.961 . S
H912 C898 0.961 . S
H913 C899 0.958 . S
H914 C899 0.961 . S
H915 C899 0.960 . S
C916 C917 1.391 . S
C916 C918 1.394 . S
C916 H932 0.931 . S
C917 C916 1.391 . S
C917 C921 1.376 . S
C918 C916 1.394 . S
C918 C919 1.369 . S
C918 C922 1.531 . S
C919 C918 1.369 . S
C919 C920 1.410 . S
C919 C927 1.503 1_545 S
C920 C919 1.410 . S
C920 C921 1.392 . S
C920 C923 1.511 1_545 S
C921 C917 1.376 . S
C921 C920 1.392 . S
C921 H933 0.929 . S
C922 C918 1.531 . S
C922 H934 0.960 . S
C922 H935 0.962 . S
C922 H936 0.960 . S
C923 C920 1.511 1_565 S
C923 H937 0.961 . S
C923 H938 0.961 . S
C923 H939 0.961 . S
C924 C925 1.370 . S
C924 C926 1.363 . S
C924 H940 0.931 . S
C925 C924 1.370 . S
C925 C929 1.408 . S
C926 C924 1.363 . S
C926 C927 1.370 . S
C926 C930 1.524 . S
C927 C919 1.503 1_565 S
C927 C926 1.370 . S
C927 C928 1.403 . S
C928 C927 1.403 . S
C928 C929 1.404 . S
C928 C931 1.539 . S
C929 C925 1.408 . S
C929 C928 1.404 . S
C929 H941 0.930 . S
C930 C926 1.524 . S
C930 H942 0.956 1_565 S
C930 H943 0.947 1_565 S
C930 H944 0.961 . S
C931 C928 1.539 . S
C931 H945 0.958 . S
C931 H946 0.961 . S
C931 H947 0.960 . S
H932 C916 0.931 . S
H933 C921 0.929 . S
H934 C922 0.960 . S
H935 C922 0.962 . S
H936 C922 0.960 . S
H937 C923 0.961 . S
H938 C923 0.961 . S
H939 C923 0.961 . S
H940 C924 0.931 . S
H941 C929 0.930 . S
H942 C930 0.956 1_545 S
H943 C930 0.947 1_545 S
H944 C930 0.961 . S
H945 C931 0.958 . S
H946 C931 0.961 . S
H947 C931 0.960 . S
C948 C949 1.391 . S
C948 C950 1.394 . S
C948 H964 0.931 . S
C949 C948 1.391 . S
C949 C953 1.376 . S
C950 C948 1.394 . S
C950 C951 1.369 . S
C950 C954 1.531 . S
C951 C950 1.369 . S
C951 C952 1.410 . S
C951 C959 1.503 . S
C952 C951 1.410 . S
C952 C953 1.392 . S
C952 C955 1.511 . S
C953 C949 1.376 . S
C953 C952 1.392 . S
C953 H965 0.929 . S
C954 C950 1.531 . S
C954 H966 0.960 . S
C954 H967 0.962 . S
C954 H968 0.960 . S
C955 C952 1.511 . S
C955 H969 0.961 . S
C955 H970 0.961 . S
C955 H971 0.961 . S
C956 C957 1.370 . S
C956 C958 1.363 . S
C956 H972 0.931 . S
C957 C956 1.370 . S
C957 C961 1.408 . S
C958 C956 1.363 . S
C958 C959 1.370 . S
C958 C962 1.524 . S
C959 C951 1.503 . S
C959 C958 1.370 . S
C959 C960 1.403 . S
C960 C959 1.403 . S
C960 C961 1.404 . S
C960 C963 1.539 . S
C961 C957 1.408 . S
C961 C960 1.404 . S
C961 H973 0.930 . S
C962 C958 1.524 . S
C962 H974 0.956 . S
C962 H975 0.961 . S
C962 H976 0.961 . S
C963 C960 1.539 . S
C963 H977 0.958 . S
C963 H978 0.961 . S
C963 H979 0.960 . S
H964 C948 0.931 . S
H965 C953 0.929 . S
H966 C954 0.960 . S
H967 C954 0.962 . S
H968 C954 0.960 . S
H969 C955 0.961 . S
H970 C955 0.961 . S
H971 C955 0.961 . S
H972 C956 0.931 . S
H973 C961 0.930 . S
H974 C962 0.956 . S
H975 C962 0.961 . S
H976 C962 0.961 . S
H977 C963 0.958 . S
H978 C963 0.961 . S
H979 C963 0.960 . S
C980 C981 1.391 . S
C980 C982 1.394 . S
C980 H996 0.931 . S
C981 C980 1.391 . S
C981 C985 1.376 . S
C982 C980 1.394 . S
C982 C983 1.369 . S
C982 C986 1.531 . S
C983 C982 1.369 . S
C983 C984 1.410 . S
C983 C991 1.503 1_455 S
C984 C983 1.410 . S
C984 C985 1.392 . S
C984 C987 1.511 1_455 S
C985 C981 1.376 . S
C985 C984 1.392 . S
C985 H997 0.929 . S
C986 C982 1.531 . S
C986 H998 0.960 . S
C986 H999 0.962 . S
C986 H1000 0.960 . S
C987 C984 1.511 1_655 S
C987 H1001 0.961 1_655 S
C987 H1002 0.961 . S
C987 H1003 0.961 . S
C988 C989 1.370 . S
C988 C990 1.363 . S
C988 H1004 0.931 . S
C989 C988 1.370 . S
C989 C993 1.408 . S
C990 C988 1.363 . S
C990 C991 1.370 . S
C990 C994 1.524 . S
C991 C983 1.503 1_655 S
C991 C990 1.370 . S
C991 C992 1.403 . S
C992 C991 1.403 . S
C992 C993 1.404 . S
C992 C995 1.539 . S
C993 C989 1.408 . S
C993 C992 1.404 . S
C993 H1005 0.930 . S
C994 C990 1.524 . S
C994 H1006 0.956 1_655 S
C994 H1007 0.974 . S
C994 H1008 0.961 . S
C995 C992 1.539 . S
C995 H1009 0.958 . S
C995 H1010 0.961 . S
C995 H1011 0.960 . S
H996 C980 0.931 . S
H997 C985 0.929 . S
H998 C986 0.960 . S
H999 C986 0.962 . S
H1000 C986 0.960 . S
H1001 C987 0.961 1_455 S
H1002 C987 0.961 . S
H1003 C987 0.961 . S
H1004 C988 0.931 . S
H1005 C993 0.930 . S
H1006 C994 0.956 1_455 S
H1007 C994 0.974 . S
H1008 C994 0.961 . S
H1009 C995 0.958 . S
H1010 C995 0.961 . S
H1011 C995 0.960 . S
C1012 C1013 1.391 . S
C1012 C1014 1.394 . S
C1012 H1028 0.931 . S
C1013 C1012 1.391 . S
C1013 C1017 1.376 . S
C1014 C1012 1.394 . S
C1014 C1015 1.369 . S
C1014 C1018 1.531 . S
C1015 C1014 1.369 . S
C1015 C1016 1.410 . S
C1015 C1023 1.503 1_565 S
C1016 C1015 1.410 . S
C1016 C1017 1.392 . S
C1016 C1019 1.511 1_565 S
C1017 C1013 1.376 . S
C1017 C1016 1.392 . S
C1017 H1029 0.929 . S
C1018 C1014 1.531 . S
C1018 H1030 0.960 . S
C1018 H1031 0.962 . S
C1018 H1032 0.960 . S
C1019 C1016 1.511 1_545 S
C1019 H1033 0.961 . S
C1019 H1034 0.961 . S
C1019 H1035 0.961 . S
C1020 C1021 1.370 . S
C1020 C1022 1.363 . S
C1020 H1036 0.931 . S
C1021 C1020 1.370 . S
C1021 C1025 1.408 . S
C1022 C1020 1.363 . S
C1022 C1023 1.370 . S
C1022 C1026 1.524 1_545 S
C1023 C1015 1.503 1_545 S
C1023 C1022 1.370 . S
C1023 C1024 1.403 . S
C1024 C1023 1.403 . S
C1024 C1025 1.404 . S
C1024 C1027 1.539 . S
C1025 C1021 1.408 . S
C1025 C1024 1.404 . S
C1025 H1037 0.930 . S
C1026 C1022 1.524 1_565 S
C1026 H1038 0.956 . S
C1026 H1039 0.961 . S
C1026 H1040 0.961 1_565 S
C1027 C1024 1.539 . S
C1027 H1041 0.958 . S
C1027 H1042 0.961 . S
C1027 H1043 0.960 . S
H1028 C1012 0.931 . S
H1029 C1017 0.929 . S
H1030 C1018 0.960 . S
H1031 C1018 0.962 . S
H1032 C1018 0.960 . S
H1033 C1019 0.961 . S
H1034 C1019 0.961 . S
H1035 C1019 0.961 . S
H1036 C1020 0.931 . S
H1037 C1025 0.930 . S
H1038 C1026 0.956 . S
H1039 C1026 0.961 . S
H1040 C1026 0.961 1_545 S
H1041 C1027 0.958 . S
H1042 C1027 0.961 . S
H1043 C1027 0.960 . S
C277 N232 1.581 . S
C285 N2 1.587 . S
C309 C30 1.661 . S
C317 C260 1.643 . S
C341 C53 1.628 . S
C349 C145 1.641 . S
C373 N71 1.603 . S
C381 N163 1.585 . S
C405 C191 1.663 . S
C413 C99 1.640 . S
C437 C122 1.652 . S
C445 C214 1.636 . S
C469 C200 1.619 . S
C477 N12 1.644 . S
C501 C39 1.626 . S
C509 C223 1.620 . S
C533 C62 1.642 . S
C541 N242 1.643 . S
C565 N81 1.667 . S
C573 C269 1.650 . S
C597 C154 1.604 . S
C605 C108 1.630 . S
C629 N173 1.649 . S
C637 C131 1.636 . S
C661 C76 1.180 . S
C669 C7 1.199 . S
C693 N25 1.104 . S
C701 N94 1.132 . S
C725 N117 1.111 . S
C733 N48 1.087 . S
C757 N209 1.108 . S
C765 N140 1.127 . S
C789 C237 1.180 . S
C797 C168 1.189 . S
C821 N186 1.112 . S
C829 N255 1.082 . S
C853 C85 1.922 . S
C861 C16 1.931 . S
C885 N35 1.815 . S
C893 N104 1.820 . S
C917 N127 1.833 . S
C925 N58 1.842 . S
C949 N150 1.819 . S
C957 N219 1.819 . S
C981 C246 1.918 . S
C989 C177 1.933 . S
C1013 N196 1.843 . S
C1021 N265 1.843 . S
