# Generated by pormake.
# Topology cha, (4)-cn, num edge types: 1
# Building blocks:
#     Node 0, Type 0, BuildingBlock: NAHDIM_clean_sbu_0, # of connection points: 4
#     Node 1, Type 0, BuildingBlock: NAHDIM_clean_sbu_0, # of connection points: 4
#     Node 2, Type 0, BuildingBlock: NAHDIM_clean_sbu_0, # of connection points: 4
#     Node 3, Type 0, BuildingBlock: NAHDIM_clean_sbu_0, # of connection points: 4
#     Node 4, Type 0, BuildingBlock: NAHDIM_clean_sbu_0, # of connection points: 4
#     Node 5, Type 0, BuildingBlock: NAHDIM_clean_sbu_0, # of connection points: 4
#     Node 6, Type 0, BuildingBlock: NAHDIM_clean_sbu_0, # of connection points: 4
#     Node 7, Type 0, BuildingBlock: NAHDIM_clean_sbu_0, # of connection points: 4
#     Node 8, Type 0, BuildingBlock: NAHDIM_clean_sbu_0, # of connection points: 4
#     Node 9, Type 0, BuildingBlock: NAHDIM_clean_sbu_0, # of connection points: 4
#     Node 10, Type 0, BuildingBlock: NAHDIM_clean_sbu_0, # of connection points: 4
#     Node 11, Type 0, BuildingBlock: NAHDIM_clean_sbu_0, # of connection points: 4
#     Node 12, Type 0, BuildingBlock: NAHDIM_clean_sbu_0, # of connection points: 4
#     Node 13, Type 0, BuildingBlock: NAHDIM_clean_sbu_0, # of connection points: 4
#     Node 14, Type 0, BuildingBlock: NAHDIM_clean_sbu_0, # of connection points: 4
#     Node 15, Type 0, BuildingBlock: NAHDIM_clean_sbu_0, # of connection points: 4
#     Node 16, Type 0, BuildingBlock: NAHDIM_clean_sbu_0, # of connection points: 4
#     Node 17, Type 0, BuildingBlock: NAHDIM_clean_sbu_0, # of connection points: 4
#     Node 18, Type 0, BuildingBlock: NAHDIM_clean_sbu_0, # of connection points: 4
#     Node 19, Type 0, BuildingBlock: NAHDIM_clean_sbu_0, # of connection points: 4
#     Node 20, Type 0, BuildingBlock: NAHDIM_clean_sbu_0, # of connection points: 4
#     Node 21, Type 0, BuildingBlock: NAHDIM_clean_sbu_0, # of connection points: 4
#     Node 22, Type 0, BuildingBlock: NAHDIM_clean_sbu_0, # of connection points: 4
#     Node 23, Type 0, BuildingBlock: NAHDIM_clean_sbu_0, # of connection points: 4
#     Node 24, Type 0, BuildingBlock: NAHDIM_clean_sbu_0, # of connection points: 4
#     Node 25, Type 0, BuildingBlock: NAHDIM_clean_sbu_0, # of connection points: 4
#     Node 26, Type 0, BuildingBlock: NAHDIM_clean_sbu_0, # of connection points: 4
#     Node 27, Type 0, BuildingBlock: NAHDIM_clean_sbu_0, # of connection points: 4
#     Node 28, Type 0, BuildingBlock: NAHDIM_clean_sbu_0, # of connection points: 4
#     Node 29, Type 0, BuildingBlock: NAHDIM_clean_sbu_0, # of connection points: 4
#     Node 30, Type 0, BuildingBlock: NAHDIM_clean_sbu_0, # of connection points: 4
#     Node 31, Type 0, BuildingBlock: NAHDIM_clean_sbu_0, # of connection points: 4
#     Node 32, Type 0, BuildingBlock: NAHDIM_clean_sbu_0, # of connection points: 4
#     Node 33, Type 0, BuildingBlock: NAHDIM_clean_sbu_0, # of connection points: 4
#     Node 34, Type 0, BuildingBlock: NAHDIM_clean_sbu_0, # of connection points: 4
#     Node 35, Type 0, BuildingBlock: NAHDIM_clean_sbu_0, # of connection points: 4
#     Edge 36, Type (0, 0), BuildingBlock: KIFKEQ_clean_linker_1, # of connection points: 2
#     Edge 37, Type (0, 0), BuildingBlock: KIFKEQ_clean_linker_1, # of connection points: 2
#     Edge 38, Type (0, 0), BuildingBlock: KIFKEQ_clean_linker_1, # of connection points: 2
#     Edge 39, Type (0, 0), BuildingBlock: KIFKEQ_clean_linker_1, # of connection points: 2
#     Edge 40, Type (0, 0), BuildingBlock: KIFKEQ_clean_linker_1, # of connection points: 2
#     Edge 41, Type (0, 0), BuildingBlock: KIFKEQ_clean_linker_1, # of connection points: 2
#     Edge 42, Type (0, 0), BuildingBlock: KIFKEQ_clean_linker_1, # of connection points: 2
#     Edge 43, Type (0, 0), BuildingBlock: KIFKEQ_clean_linker_1, # of connection points: 2
#     Edge 44, Type (0, 0), BuildingBlock: KIFKEQ_clean_linker_1, # of connection points: 2
#     Edge 45, Type (0, 0), BuildingBlock: KIFKEQ_clean_linker_1, # of connection points: 2
#     Edge 46, Type (0, 0), BuildingBlock: KIFKEQ_clean_linker_1, # of connection points: 2
#     Edge 47, Type (0, 0), BuildingBlock: KIFKEQ_clean_linker_1, # of connection points: 2
#     Edge 48, Type (0, 0), BuildingBlock: KIFKEQ_clean_linker_1, # of connection points: 2
#     Edge 49, Type (0, 0), BuildingBlock: KIFKEQ_clean_linker_1, # of connection points: 2
#     Edge 50, Type (0, 0), BuildingBlock: KIFKEQ_clean_linker_1, # of connection points: 2
#     Edge 51, Type (0, 0), BuildingBlock: KIFKEQ_clean_linker_1, # of connection points: 2
#     Edge 52, Type (0, 0), BuildingBlock: KIFKEQ_clean_linker_1, # of connection points: 2
#     Edge 53, Type (0, 0), BuildingBlock: KIFKEQ_clean_linker_1, # of connection points: 2
#     Edge 54, Type (0, 0), BuildingBlock: KIFKEQ_clean_linker_1, # of connection points: 2
#     Edge 55, Type (0, 0), BuildingBlock: KIFKEQ_clean_linker_1, # of connection points: 2
#     Edge 56, Type (0, 0), BuildingBlock: KIFKEQ_clean_linker_1, # of connection points: 2
#     Edge 57, Type (0, 0), BuildingBlock: KIFKEQ_clean_linker_1, # of connection points: 2
#     Edge 58, Type (0, 0), BuildingBlock: KIFKEQ_clean_linker_1, # of connection points: 2
#     Edge 59, Type (0, 0), BuildingBlock: KIFKEQ_clean_linker_1, # of connection points: 2
#     Edge 60, Type (0, 0), BuildingBlock: KIFKEQ_clean_linker_1, # of connection points: 2
#     Edge 61, Type (0, 0), BuildingBlock: KIFKEQ_clean_linker_1, # of connection points: 2
#     Edge 62, Type (0, 0), BuildingBlock: KIFKEQ_clean_linker_1, # of connection points: 2
#     Edge 63, Type (0, 0), BuildingBlock: KIFKEQ_clean_linker_1, # of connection points: 2
#     Edge 64, Type (0, 0), BuildingBlock: KIFKEQ_clean_linker_1, # of connection points: 2
#     Edge 65, Type (0, 0), BuildingBlock: KIFKEQ_clean_linker_1, # of connection points: 2
#     Edge 66, Type (0, 0), BuildingBlock: KIFKEQ_clean_linker_1, # of connection points: 2
#     Edge 67, Type (0, 0), BuildingBlock: KIFKEQ_clean_linker_1, # of connection points: 2
#     Edge 68, Type (0, 0), BuildingBlock: KIFKEQ_clean_linker_1, # of connection points: 2
#     Edge 69, Type (0, 0), BuildingBlock: KIFKEQ_clean_linker_1, # of connection points: 2
#     Edge 70, Type (0, 0), BuildingBlock: KIFKEQ_clean_linker_1, # of connection points: 2
#     Edge 71, Type (0, 0), BuildingBlock: KIFKEQ_clean_linker_1, # of connection points: 2
#     Edge 72, Type (0, 0), BuildingBlock: KIFKEQ_clean_linker_1, # of connection points: 2
#     Edge 73, Type (0, 0), BuildingBlock: KIFKEQ_clean_linker_1, # of connection points: 2
#     Edge 74, Type (0, 0), BuildingBlock: KIFKEQ_clean_linker_1, # of connection points: 2
#     Edge 75, Type (0, 0), BuildingBlock: KIFKEQ_clean_linker_1, # of connection points: 2
#     Edge 76, Type (0, 0), BuildingBlock: KIFKEQ_clean_linker_1, # of connection points: 2
#     Edge 77, Type (0, 0), BuildingBlock: KIFKEQ_clean_linker_1, # of connection points: 2
#     Edge 78, Type (0, 0), BuildingBlock: KIFKEQ_clean_linker_1, # of connection points: 2
#     Edge 79, Type (0, 0), BuildingBlock: KIFKEQ_clean_linker_1, # of connection points: 2
#     Edge 80, Type (0, 0), BuildingBlock: KIFKEQ_clean_linker_1, # of connection points: 2
#     Edge 81, Type (0, 0), BuildingBlock: KIFKEQ_clean_linker_1, # of connection points: 2
#     Edge 82, Type (0, 0), BuildingBlock: KIFKEQ_clean_linker_1, # of connection points: 2
#     Edge 83, Type (0, 0), BuildingBlock: KIFKEQ_clean_linker_1, # of connection points: 2
#     Edge 84, Type (0, 0), BuildingBlock: KIFKEQ_clean_linker_1, # of connection points: 2
#     Edge 85, Type (0, 0), BuildingBlock: KIFKEQ_clean_linker_1, # of connection points: 2
#     Edge 86, Type (0, 0), BuildingBlock: KIFKEQ_clean_linker_1, # of connection points: 2
#     Edge 87, Type (0, 0), BuildingBlock: KIFKEQ_clean_linker_1, # of connection points: 2
#     Edge 88, Type (0, 0), BuildingBlock: KIFKEQ_clean_linker_1, # of connection points: 2
#     Edge 89, Type (0, 0), BuildingBlock: KIFKEQ_clean_linker_1, # of connection points: 2
#     Edge 90, Type (0, 0), BuildingBlock: KIFKEQ_clean_linker_1, # of connection points: 2
#     Edge 91, Type (0, 0), BuildingBlock: KIFKEQ_clean_linker_1, # of connection points: 2
#     Edge 92, Type (0, 0), BuildingBlock: KIFKEQ_clean_linker_1, # of connection points: 2
#     Edge 93, Type (0, 0), BuildingBlock: KIFKEQ_clean_linker_1, # of connection points: 2
#     Edge 94, Type (0, 0), BuildingBlock: KIFKEQ_clean_linker_1, # of connection points: 2
#     Edge 95, Type (0, 0), BuildingBlock: KIFKEQ_clean_linker_1, # of connection points: 2
#     Edge 96, Type (0, 0), BuildingBlock: KIFKEQ_clean_linker_1, # of connection points: 2
#     Edge 97, Type (0, 0), BuildingBlock: KIFKEQ_clean_linker_1, # of connection points: 2
#     Edge 98, Type (0, 0), BuildingBlock: KIFKEQ_clean_linker_1, # of connection points: 2
#     Edge 99, Type (0, 0), BuildingBlock: KIFKEQ_clean_linker_1, # of connection points: 2
#     Edge 100, Type (0, 0), BuildingBlock: KIFKEQ_clean_linker_1, # of connection points: 2
#     Edge 101, Type (0, 0), BuildingBlock: KIFKEQ_clean_linker_1, # of connection points: 2
#     Edge 102, Type (0, 0), BuildingBlock: KIFKEQ_clean_linker_1, # of connection points: 2
#     Edge 103, Type (0, 0), BuildingBlock: KIFKEQ_clean_linker_1, # of connection points: 2
#     Edge 104, Type (0, 0), BuildingBlock: KIFKEQ_clean_linker_1, # of connection points: 2
#     Edge 105, Type (0, 0), BuildingBlock: KIFKEQ_clean_linker_1, # of connection points: 2
#     Edge 106, Type (0, 0), BuildingBlock: KIFKEQ_clean_linker_1, # of connection points: 2
#     Edge 107, Type (0, 0), BuildingBlock: KIFKEQ_clean_linker_1, # of connection points: 2
# Relax obj value: 0.157
# Max RMSD: 0.151
# Mean RMSD: 0.151
data_MOF--net-cha--node1-NAHDIM_clean_sbu_0--edge1-KIFKEQ_clean_linker_1
_symmetry_space_group_name_H-M    P1
_symmetry_Int_Tables_number       1
_symmetry_cell_setting            triclinic
loop_
_symmetry_equiv_pos_as_xyz
'x, y, z'
_cell_length_a     63.451607
_cell_length_b     63.496512
_cell_length_c     78.760373
_cell_angle_alpha  89.967812
_cell_angle_beta   90.034609
_cell_angle_gamma 120.00582
loop_
_atom_site_label
_atom_site_type_symbol
_atom_site_fract_x
_atom_site_fract_y
_atom_site_fract_z
_atom_type_partial_charge
C0 C 0.02529 0.28797 0.11964 0.0
O1 O 0.02694 0.26957 0.12573 0.0
O2 O 0.05388 0.26178 0.0932 0.0
Zn3 Zn 0.02398 0.26424 0.08911 0.0
O4 O -0.00618 0.23269 0.09446 0.0
C5 C 0.02572 0.25881 0.05378 0.0
O6 O 0.03053 0.24205 0.05914 0.0
O7 O 0.02446 0.29016 0.10368 0.0
C8 C 0.97358 0.23219 0.09384 0.0
O9 O 0.97335 0.2522 0.08994 0.0
C10 C 0.05347 0.2445 0.1016 0.0
O11 O 0.03287 0.22767 0.10822 0.0
O12 O 0.02238 0.27164 0.06462 0.0
C13 C 0.76577 0.76826 0.11923 0.0
O14 O 0.78412 0.78883 0.1247 0.0
O15 O 0.78568 0.82079 0.0902 0.0
Zn16 Zn 0.78565 0.78943 0.08713 0.0
O17 O 0.81914 0.79459 0.0911 0.0
C18 C 0.76673 0.78576 0.05314 0.0
O19 O 0.76316 0.80344 0.05822 0.0
O20 O 0.76253 0.76456 0.10337 0.0
C21 C 0.83522 0.8049 0.07966 0.0
O22 O 0.82956 0.8122 0.06566 0.0
C23 C 0.80229 0.83878 0.09825 0.0
O24 O 0.82013 0.83695 0.1052 0.0
O25 O 0.77567 0.7769 0.06342 0.0
C26 C 0.28733 0.01402 0.12065 0.0
O27 O 0.26575 0.00926 0.12594 0.0
O28 O 0.23469 0.98303 0.09392 0.0
Zn29 Zn 0.26607 0.01384 0.08902 0.0
O30 O 0.26201 0.04304 0.09196 0.0
C31 C 0.26238 -0.00119 0.05403 0.0
O32 O 0.24109 0.98104 0.05897 0.0
O33 O 0.29191 0.01657 0.10486 0.0
C34 C 0.24733 0.04554 0.08233 0.0
O35 O 0.23464 0.02855 0.07109 0.0
C36 C 0.2171 0.98257 0.10196 0.0
O37 O 0.21926 0.00295 0.10776 0.0
O38 O 0.2764 0.01435 0.06485 0.0
C39 C 0.27624 0.02002 0.86373 0.0
O40 O 0.25564 0.0182 0.8587 0.0
O41 O 0.25866 0.05467 0.89405 0.0
Zn42 Zn 0.25819 0.02299 0.89621 0.0
O43 O 0.22444 -0.00499 0.89222 0.0
C44 C 0.27878 0.03636 0.93013 0.0
O45 O 0.28512 0.05859 0.92538 0.0
O46 O 0.28131 0.02221 0.87945 0.0
C47 C 0.20884 0.98983 0.90394 0.0
O48 O 0.21527 0.00318 0.91777 0.0
C49 C 0.24183 0.05636 0.88656 0.0
O50 O 0.22337 0.03681 0.88 0.0
O51 O 0.2679 0.01898 0.91967 0.0
C52 C 0.0148 0.29389 0.86684 0.0
O53 O 0.00056 0.27225 0.86036 0.0
O54 O 0.99004 0.23651 0.88831 0.0
Zn55 Zn 0.02177 0.26661 0.89334 0.0
O56 O 0.04954 0.26153 0.88715 0.0
C57 C 0.00757 0.27034 0.92789 0.0
O58 O 0.98643 0.26473 0.92119 0.0
O59 O 0.02517 0.2957 0.88099 0.0
C60 C 0.04972 0.24303 0.8931 0.0
O61 O 0.03117 0.22731 0.90226 0.0
C62 C 0.98754 0.22229 0.87616 0.0
O63 O 0.00605 0.22777 0.86606 0.0
O64 O 0.02465 0.27253 0.91834 0.0
C65 C 0.75742 0.74422 0.86782 0.0
O66 O 0.77937 0.74729 0.86618 0.0
O67 O 0.81043 0.78072 0.89222 0.0
Zn68 Zn 0.7787 0.77998 0.89495 0.0
O69 O 0.78388 0.81343 0.89093 0.0
C70 C 0.77511 0.76112 0.92887 0.0
O71 O 0.791 0.75529 0.92321 0.0
O72 O 0.75336 0.75611 0.87905 0.0
C73 C 0.80123 0.83106 0.89878 0.0
O74 O 0.81539 0.82678 0.90862 0.0
C75 C 0.82529 0.79216 0.8803 0.0
O76 O 0.81965 0.80368 0.86893 0.0
O77 O 0.76702 0.77114 0.91889 0.0
C78 C 0.02332 0.763 0.86404 0.0
O79 O 0.02028 0.78089 0.85868 0.0
O80 O 0.98746 0.7805 0.89034 0.0
Zn81 Zn 0.01887 0.78143 0.89558 0.0
O82 O 0.04739 0.81508 0.89275 0.0
C83 C 0.00419 0.77074 0.93059 0.0
O84 O 0.98748 0.77597 0.92585 0.0
O85 O 0.02304 0.75919 0.87988 0.0
C86 C 0.04905 0.8328 0.90131 0.0
O87 O 0.03137 0.82908 0.91175 0.0
C88 C 0.98596 0.79658 0.88166 0.0
O89 O 0.00581 0.81497 0.87536 0.0
O90 O 0.01918 0.77131 0.91967 0.0
C91 C 0.28478 0.28754 0.86779 0.0
O92 O 0.26987 0.26598 0.86144 0.0
O93 O 0.26 0.23367 0.89555 0.0
Zn94 Zn 0.25912 0.26462 0.89821 0.0
O95 O 0.226 0.25875 0.89196 0.0
C96 C 0.27757 0.26966 0.93228 0.0
O97 O 0.28819 0.25815 0.92599 0.0
O98 O 0.28397 0.29111 0.88357 0.0
C99 C 0.20825 0.24508 0.90153 0.0
O100 O 0.21222 0.23511 0.91487 0.0
C101 C 0.24624 0.21713 0.88519 0.0
O102 O 0.23134 0.22049 0.87548 0.0
O103 O 0.26485 0.27489 0.92259 0.0
C104 C 0.76365 0.01569 0.86376 0.0
O105 O 0.7844 0.01875 0.85793 0.0
O106 O 0.81854 0.05651 0.8862 0.0
Zn107 Zn 0.78995 0.0253 0.89414 0.0
O108 O 0.79636 -0.0025 0.89189 0.0
C109 C 0.79687 0.04606 0.92765 0.0
O110 O 0.81747 0.06298 0.92109 0.0
O111 O 0.76146 0.01797 0.87956 0.0
C112 C 0.80622 0.99172 0.90365 0.0
O113 O 0.81301 0.00459 0.9177 0.0
C114 C 0.83754 0.05809 0.87963 0.0
O115 O 0.83897 0.03832 0.8775 0.0
O116 O 0.78218 0.02831 0.91845 0.0
C117 C 0.75185 0.02262 0.11547 0.0
O118 O 0.76643 0.01589 0.12238 0.0
O119 O 0.78184 -0.00331 0.09303 0.0
Zn120 Zn 0.78031 0.02644 0.08675 0.0
O121 O 0.81248 0.05644 0.09176 0.0
C122 C 0.77764 0.0446 0.05406 0.0
O123 O 0.78411 0.06454 0.0628 0.0
O124 O 0.75379 0.02749 0.09972 0.0
C125 C 0.81419 0.07508 0.09905 0.0
O126 O 0.79432 0.07484 0.10402 0.0
C127 C 0.80151 -0.00369 0.09109 0.0
O128 O 0.8208 0.01573 0.08518 0.0
O129 O 0.77423 0.02558 0.06178 0.0
C130 C 0.02159 0.75665 0.1206 0.0
O131 O 0.03011 0.7787 0.12667 0.0
O132 O 0.05273 0.80997 0.09283 0.0
Zn133 Zn 0.02043 0.77965 0.08954 0.0
O134 O -0.00679 0.78633 0.0939 0.0
C135 C 0.03478 0.77535 0.05533 0.0
O136 O 0.05701 0.78932 0.06102 0.0
O137 O 0.0167 0.75288 0.10488 0.0
C138 C -0.00745 0.80322 0.0857 0.0
O139 O 0.01039 0.81666 0.0752 0.0
C140 C 0.05605 0.82668 0.1032 0.0
O141 O 0.03783 0.82417 0.1126 0.0
O142 O 0.01691 0.7687 0.06537 0.0
C143 C 0.28022 0.27084 0.12311 0.0
O144 O 0.25991 0.253 0.12937 0.0
O145 O 0.22512 0.25025 0.09828 0.0
Zn146 Zn 0.25595 0.25071 0.09178 0.0
O147 O 0.25217 0.21733 0.09373 0.0
C148 C 0.25101 0.26474 0.05764 0.0
O149 O 0.22935 0.25963 0.06296 0.0
O150 O 0.28266 0.27349 0.10713 0.0
C151 C 0.24564 0.20336 0.08087 0.0
O152 O 0.24089 0.21077 0.06655 0.0
C153 C 0.20447 0.23095 0.09869 0.0
O154 O 0.20287 0.21001 0.09508 0.0
O155 O 0.26539 0.26264 0.06782 0.0
C156 C 0.68445 0.62293 0.45504 0.0
O157 O 0.68604 0.60419 0.4604 0.0
O158 O 0.71526 0.6009 0.42643 0.0
Zn159 Zn 0.68498 0.60289 0.42285 0.0
O160 O 0.65526 0.57002 0.42573 0.0
C161 C 0.70206 0.62208 0.38913 0.0
O162 O 0.72293 0.62507 0.39463 0.0
O163 O 0.68395 0.62631 0.4392 0.0
C164 C 0.65289 0.55278 0.41625 0.0
O165 O 0.67023 0.55689 0.40537 0.0
C166 C 0.71563 0.58403 0.43487 0.0
O167 O 0.69555 0.56717 0.44205 0.0
O168 O 0.68394 0.61359 0.39911 0.0
C169 C 0.44161 0.10155 0.45856 0.0
O170 O 0.46291 0.11899 0.46379 0.0
O171 O 0.45796 0.15676 0.42946 0.0
Zn172 Zn 0.45835 0.12568 0.42646 0.0
O173 O 0.49231 0.13158 0.42948 0.0
C174 C 0.43723 0.12125 0.39317 0.0
O175 O 0.43352 0.13863 0.39873 0.0
O176 O 0.43577 0.10089 0.44308 0.0
C177 C 0.50775 0.14264 0.41778 0.0
O178 O 0.50113 0.15032 0.40441 0.0
C179 C 0.47112 0.17321 0.44005 0.0
O180 O 0.48601 0.1701 0.44996 0.0
O181 O 0.4472 0.11278 0.40289 0.0
C182 C 0.95162 0.3551 0.45323 0.0
O183 O 0.93033 0.35102 0.45869 0.0
O184 O 0.89752 0.32099 0.42733 0.0
Zn185 Zn 0.92869 0.35128 0.42171 0.0
O186 O 0.92359 0.37979 0.42443 0.0
C187 C 0.92259 0.33836 0.38642 0.0
O188 O 0.89982 0.32451 0.39107 0.0
O189 O 0.95524 0.3555 0.43736 0.0
C190 C 0.90363 0.37824 0.41993 0.0
O191 O 0.88624 0.35761 0.41373 0.0
C192 C 0.89577 0.30037 0.42951 0.0
O193 O 0.91536 0.29838 0.42835 0.0
O194 O 0.93842 0.35098 0.39754 0.0
C195 C 0.95308 0.35875 0.19628 0.0
O196 O 0.9353 0.36157 0.19031 0.0
O197 O 0.93023 0.38909 0.22492 0.0
Zn198 Zn 0.93028 0.35767 0.22753 0.0
O199 O 0.89728 0.32914 0.22252 0.0
C200 C 0.94927 0.37095 0.26187 0.0
O201 O 0.95844 0.39344 0.25649 0.0
O202 O 0.95491 0.35699 0.21219 0.0
C203 C 0.87988 0.3259 0.23217 0.0
O204 O 0.88405 0.34185 0.24421 0.0
C205 C 0.91423 0.39083 0.21631 0.0
O206 O 0.89716 0.37157 0.20847 0.0
O207 O 0.93752 0.3535 0.25161 0.0
C208 C 0.69146 0.62717 0.1986 0.0
O209 O 0.68914 0.6066 0.19309 0.0
O210 O 0.65616 0.57346 0.2268 0.0
Zn211 Zn 0.68761 0.60462 0.23056 0.0
O212 O 0.71587 0.59912 0.22751 0.0
C213 C 0.67134 0.60722 0.26445 0.0
O214 O 0.65009 0.58998 0.25897 0.0
O215 O 0.69087 0.63036 0.21446 0.0
C216 C 0.71677 0.58274 0.23623 0.0
O217 O 0.69878 0.56934 0.24663 0.0
C218 C 0.65449 0.55648 0.21735 0.0
O219 O 0.67382 0.5594 0.20919 0.0
O220 O 0.68941 0.61629 0.25441 0.0
C221 C 0.42291 0.08956 0.20332 0.0
O222 O 0.44248 0.10931 0.19813 0.0
O223 O 0.47463 0.1168 0.2339 0.0
Zn224 Zn 0.44124 0.11278 0.2348 0.0
O225 O 0.4424 0.14379 0.22808 0.0
C226 C 0.43622 0.09371 0.26839 0.0
O227 O 0.45031 0.08594 0.26216 0.0
O228 O 0.41853 0.08637 0.21912 0.0
C229 C 0.45653 0.16353 0.23571 0.0
O230 O 0.47077 0.16346 0.24781 0.0
C231 C 0.49168 0.13119 0.2241 0.0
O232 O 0.48785 0.14459 0.2132 0.0
O233 O 0.4292 0.10507 0.25877 0.0
C234 C 0.68756 0.10073 0.19269 0.0
O235 O 0.68905 0.12128 0.18796 0.0
O236 O 0.65542 0.12119 0.22259 0.0
Zn237 Zn 0.68519 0.11823 0.22556 0.0
O238 O 0.71492 0.15139 0.22271 0.0
C239 C 0.66776 0.09282 0.25806 0.0
O240 O 0.64583 0.08557 0.25213 0.0
O241 O 0.68551 0.09538 0.20836 0.0
C242 C 0.72483 0.16437 0.23578 0.0
O243 O 0.71553 0.1558 0.25081 0.0
C244 C 0.65035 0.13267 0.23353 0.0
O245 O 0.66461 0.14219 0.24678 0.0
O246 O 0.68618 0.10585 0.24882 0.0
C247 C 0.93839 0.61769 0.20092 0.0
O248 O 0.91634 0.6007 0.19663 0.0
O249 O 0.9229 0.56333 0.23131 0.0
Zn250 Zn 0.92251 0.59461 0.23305 0.0
O251 O 0.88871 0.58855 0.22901 0.0
C252 C 0.95009 0.60864 0.2643 0.0
O253 O 0.96327 0.60086 0.25659 0.0
O254 O 0.94542 0.6187 0.21614 0.0
C255 C 0.87284 0.57827 0.24057 0.0
O256 O 0.87887 0.57135 0.2546 0.0
C257 C 0.9108 0.54773 0.21993 0.0
O258 O 0.89774 0.55215 0.2091 0.0
O259 O 0.93228 0.60804 0.2565 0.0
C260 C 0.42582 0.35554 0.19849 0.0
O261 O 0.44657 0.35869 0.19258 0.0
O262 O 0.48059 0.39193 0.22446 0.0
Zn263 Zn 0.45055 0.35997 0.22904 0.0
O264 O 0.45633 0.33228 0.2238 0.0
C265 C 0.45067 0.34913 0.26392 0.0
O266 O 0.46636 0.3431 0.25817 0.0
O267 O 0.42322 0.35626 0.21442 0.0
C268 C 0.43817 0.31085 0.22351 0.0
O269 O 0.41626 0.30768 0.22581 0.0
C270 C 0.50145 0.39372 0.22461 0.0
O271 O 0.50317 0.37433 0.22779 0.0
O272 O 0.44132 0.35762 0.25365 0.0
C273 C 0.42438 0.35994 0.45296 0.0
O274 O 0.44145 0.35599 0.45892 0.0
O275 O 0.44755 0.32824 0.42875 0.0
Zn276 Zn 0.44607 0.35805 0.42217 0.0
O277 O 0.479 0.3879 0.42476 0.0
C278 C 0.4261 0.33568 0.38972 0.0
O279 O 0.4205 0.31549 0.39787 0.0
O280 O 0.42239 0.36128 0.43701 0.0
C281 C 0.49446 0.39384 0.41285 0.0
O282 O 0.48863 0.38013 0.39922 0.0
C283 C 0.46623 0.32892 0.43522 0.0
O284 O 0.48573 0.35003 0.4382 0.0
O285 O 0.43617 0.35571 0.39774 0.0
C286 C 0.68111 0.08617 0.44925 0.0
O287 O 0.68418 0.10729 0.45414 0.0
O288 O 0.72225 0.13783 0.42188 0.0
Zn289 Zn 0.68871 0.10956 0.4177 0.0
O290 O 0.66295 0.11851 0.42181 0.0
C291 C 0.70094 0.1113 0.38239 0.0
O292 O 0.71977 0.13212 0.38697 0.0
O293 O 0.6826 0.08253 0.43356 0.0
C294 C 0.6627 0.13612 0.41434 0.0
O295 O 0.68046 0.14982 0.40386 0.0
C296 C 0.7269 0.15551 0.43168 0.0
O297 O 0.70904 0.15589 0.43983 0.0
O298 O 0.68541 0.09816 0.39353 0.0
C299 C 0.93821 0.60072 0.45192 0.0
O300 O 0.92071 0.57928 0.45684 0.0
O301 O 0.88412 0.58416 0.42121 0.0
Zn302 Zn 0.9151 0.58314 0.41996 0.0
O303 O 0.90886 0.54961 0.42507 0.0
C304 C 0.93515 0.61203 0.38961 0.0
O305 O 0.93302 0.62862 0.39817 0.0
O306 O 0.93943 0.60671 0.43642 0.0
C307 C 0.89621 0.53243 0.41481 0.0
O308 O 0.88683 0.53695 0.40136 0.0
C309 C 0.86823 0.57245 0.43252 0.0
O310 O 0.87211 0.55925 0.44357 0.0
O311 O 0.92868 0.5916 0.39648 0.0
C312 C 0.36569 0.9677 0.78659 0.0
O313 O 0.3755 0.95579 0.79347 0.0
O314 O 0.3959 0.94133 0.76283 0.0
Zn315 Zn 0.36471 0.94075 0.7571 0.0
O316 O 0.33591 0.90748 0.7613 0.0
C317 C 0.3735 0.9395 0.72174 0.0
O318 O 0.38513 0.9287 0.72748 0.0
O319 O 0.36034 0.96482 0.7709 0.0
C320 C 0.33564 0.88818 0.75665 0.0
O321 O 0.35513 0.88978 0.74957 0.0
C322 C 0.39744 0.92798 0.77423 0.0
O323 O 0.3782 0.91375 0.78341 0.0
O324 O 0.36405 0.94755 0.73225 0.0
C325 C 0.10123 0.43404 0.78894 0.0
O326 O 0.12444 0.44862 0.79214 0.0
O327 O 0.11815 0.48914 0.75797 0.0
Zn328 Zn 0.11598 0.45663 0.7566 0.0
O329 O 0.14907 0.46047 0.75998 0.0
C330 C 0.09359 0.44975 0.72365 0.0
O331 O 0.0884 0.46616 0.72916 0.0
O332 O 0.09304 0.43425 0.77427 0.0
C333 C 0.16798 0.47858 0.75387 0.0
O334 O 0.16582 0.49529 0.74547 0.0
C335 C 0.12825 0.50379 0.77022 0.0
O336 O 0.13767 0.49761 0.78279 0.0
O337 O 0.10462 0.4425 0.7334 0.0
C338 C 0.62388 0.67267 0.78331 0.0
O339 O 0.602 0.65422 0.78619 0.0
O340 O 0.5683 0.65399 0.76294 0.0
Zn341 Zn 0.59949 0.68432 0.75709 0.0
O342 O 0.59549 0.71349 0.76024 0.0
C343 C 0.59702 0.66352 0.72413 0.0
O344 O 0.58317 0.64292 0.73208 0.0
O345 O 0.62699 0.68753 0.77145 0.0
C346 C 0.57875 0.71438 0.75197 0.0
O347 O 0.56446 0.69604 0.7421 0.0
C348 C 0.55209 0.65333 0.77274 0.0
O349 O 0.55556 0.67341 0.78005 0.0
O350 O 0.60669 0.68329 0.73246 0.0
C351 C 0.61496 0.69436 0.53352 0.0
O352 O 0.59727 0.69716 0.52738 0.0
O353 O 0.58864 0.72202 0.56153 0.0
Zn354 Zn 0.59083 0.6919 0.56448 0.0
O355 O 0.55882 0.66207 0.55926 0.0
C356 C 0.5814 0.6814 0.59935 0.0
O357 O 0.55961 0.67594 0.59406 0.0
O358 O 0.61641 0.69236 0.54946 0.0
C359 C 0.55747 0.64178 0.5623 0.0
O360 O 0.57703 0.64162 0.5676 0.0
C361 C 0.5738 0.72337 0.55138 0.0
O362 O 0.5592 0.70439 0.54212 0.0
O363 O 0.59881 0.6895 0.58876 0.0
C364 C 0.34902 0.95587 0.53278 0.0
O365 O 0.34212 0.93461 0.52581 0.0
O366 O 0.31076 0.89966 0.55664 0.0
Zn367 Zn 0.34296 0.92857 0.56286 0.0
O368 O 0.36979 0.921 0.55889 0.0
C369 C 0.32968 0.92011 0.59811 0.0
O370 O 0.31382 0.89841 0.59242 0.0
O371 O 0.35002 0.95768 0.54885 0.0
C372 C 0.37231 0.90649 0.56867 0.0
O373 O 0.35677 0.89591 0.58112 0.0
C374 C 0.30896 0.88367 0.54612 0.0
O375 O 0.3286 0.8864 0.53852 0.0
O376 O 0.34351 0.93643 0.58764 0.0
C377 C 0.09199 0.43448 0.53336 0.0
O378 O 0.11223 0.45338 0.528 0.0
O379 O 0.14474 0.45426 0.56265 0.0
Zn380 Zn 0.11316 0.45392 0.56557 0.0
O381 O 0.1181 0.48736 0.56174 0.0
C382 C 0.10904 0.43398 0.59923 0.0
O383 O 0.1259 0.42944 0.59372 0.0
O384 O 0.08846 0.43075 0.5492 0.0
C385 C 0.12808 0.50326 0.57333 0.0
O386 O 0.13521 0.49746 0.58736 0.0
C387 C 0.16304 0.47117 0.55505 0.0
O388 O 0.16147 0.48928 0.54832 0.0
O389 O 0.10067 0.44379 0.5893 0.0
C390 C 0.35217 0.42795 0.53305 0.0
O391 O 0.35101 0.44713 0.52815 0.0
O392 O 0.32045 0.44954 0.55974 0.0
Zn393 Zn 0.34981 0.44665 0.56499 0.0
O394 O 0.38049 0.47912 0.56201 0.0
C395 C 0.33176 0.4314 0.59935 0.0
O396 O 0.31359 0.4342 0.59428 0.0
O397 O 0.35138 0.42337 0.5488 0.0
C398 C 0.39448 0.48987 0.5745 0.0
O399 O 0.38846 0.47999 0.58966 0.0
C400 C 0.3204 0.46934 0.56187 0.0
O401 O 0.34015 0.48853 0.56751 0.0
O402 O 0.34839 0.43481 0.58887 0.0
C403 C 0.60183 0.9485 0.53155 0.0
O404 O 0.58381 0.92766 0.52614 0.0
O405 O 0.58202 0.89569 0.55877 0.0
Zn406 Zn 0.58138 0.92653 0.56299 0.0
O407 O 0.54801 0.92167 0.55913 0.0
C408 C 0.60203 0.92996 0.59634 0.0
O409 O 0.61002 0.91634 0.58961 0.0
O410 O 0.6048 0.95242 0.54741 0.0
C411 C 0.52996 0.90528 0.56726 0.0
O412 O 0.53333 0.8911 0.57773 0.0
C413 C 0.56629 0.87796 0.55003 0.0
O414 O 0.54821 0.87928 0.543 0.0
O415 O 0.5901 0.93684 0.5872 0.0
C416 C 0.08076 0.68631 0.52937 0.0
O417 O 0.10236 0.6931 0.52299 0.0
O418 O 0.13568 0.72237 0.5525 0.0
Zn419 Zn 0.1064 0.6911 0.55983 0.0
O420 O 0.11212 0.66281 0.55777 0.0
C421 C 0.11507 0.70858 0.59416 0.0
O422 O 0.13672 0.72376 0.58802 0.0
O423 O 0.07794 0.68449 0.54536 0.0
C424 C 0.12836 0.6617 0.56654 0.0
O425 O 0.14233 0.67991 0.5766 0.0
C426 C 0.15352 0.7236 0.54434 0.0
O427 O 0.1531 0.70349 0.53982 0.0
O428 O 0.09878 0.69328 0.58428 0.0
C429 C 0.10177 0.70078 0.7848 0.0
O430 O 0.1192 0.69733 0.79066 0.0
O431 O 0.12302 0.66947 0.75668 0.0
Zn432 Zn 0.12429 0.70142 0.75365 0.0
O433 O 0.15762 0.72898 0.75907 0.0
C434 C 0.10295 0.68731 0.72026 0.0
O435 O 0.09227 0.66529 0.72673 0.0
O436 O 0.10007 0.70292 0.76892 0.0
C437 C 0.17492 0.73329 0.74898 0.0
O438 O 0.17047 0.7193 0.73561 0.0
C439 C 0.13852 0.66717 0.7655 0.0
O440 O 0.15622 0.68631 0.77303 0.0
O441 O 0.11694 0.70528 0.72954 0.0
C442 C 0.34692 0.42915 0.78966 0.0
O443 O 0.34375 0.44714 0.79457 0.0
O444 O 0.38592 0.48347 0.76015 0.0
Zn445 Zn 0.35371 0.45288 0.75785 0.0
O446 O 0.32689 0.46008 0.7624 0.0
C447 C 0.36654 0.44646 0.72367 0.0
O448 O 0.3889 0.4615 0.7287 0.0
O449 O 0.3516 0.42776 0.77417 0.0
C450 C 0.3235 0.47313 0.75175 0.0
O451 O 0.33799 0.4818 0.73853 0.0
C452 C 0.38962 0.49932 0.77139 0.0
O453 O 0.37195 0.49567 0.78179 0.0
O454 O 0.3491 0.44001 0.73408 0.0
C455 C 0.6177 0.93889 0.78756 0.0
O456 O 0.59688 0.92165 0.79365 0.0
O457 O 0.56337 0.92416 0.76391 0.0
Zn458 Zn 0.59187 0.92066 0.75699 0.0
O459 O 0.58496 0.88635 0.76001 0.0
C460 C 0.58574 0.93202 0.72256 0.0
O461 O 0.56469 0.92807 0.72843 0.0
O462 O 0.62007 0.94227 0.77163 0.0
C463 C 0.57453 0.87057 0.74842 0.0
O464 O 0.56741 0.87664 0.7345 0.0
C465 C 0.54378 0.90704 0.77009 0.0
O466 O 0.54153 0.88552 0.77237 0.0
O467 O 0.60051 0.93031 0.73257 0.0
H468 H 0.0986 0.27616 0.08923 0.0
H469 H 0.05887 0.20914 0.11752 0.0
H470 H 0.13494 0.27257 0.09049 0.0
H471 H 0.09554 0.20581 0.11904 0.0
H472 H 0.15709 0.19426 0.09692 0.0
H473 H 0.12063 0.1977 0.09941 0.0
H474 H 0.16528 0.2744 0.11022 0.0
H475 H 0.20173 0.27111 0.10739 0.0
C476 C 0.09768 0.26077 0.09587 0.0
C477 C 0.07582 0.24288 0.10322 0.0
C478 C 0.11857 0.2588 0.09669 0.0
C479 C 0.11812 0.23892 0.10489 0.0
C480 C 0.09637 0.22121 0.11248 0.0
C481 C 0.07542 0.22319 0.11168 0.0
C482 C 0.15912 0.21181 0.09999 0.0
C483 C 0.1823 0.23246 0.10179 0.0
C484 C 0.13822 0.21375 0.1015 0.0
C485 C 0.1401 0.23637 0.10488 0.0
C486 C 0.16327 0.25681 0.10732 0.0
C487 C 0.18414 0.25489 0.10577 0.0
H488 H 0.76441 0.95279 0.10234 0.0
H489 H 0.84011 0.98884 0.08743 0.0
H490 H 0.76472 0.91484 0.10601 0.0
H491 H 0.84025 0.95074 0.09088 0.0
H492 H 0.83669 0.88203 0.11202 0.0
H493 H 0.83668 0.9205 0.11227 0.0
H494 H 0.7673 0.88606 0.08644 0.0
H495 H 0.7671 0.84766 0.08637 0.0
C496 C 0.78115 0.95266 0.09992 0.0
C497 C 0.80219 0.97377 0.09446 0.0
C498 C 0.78128 0.93089 0.10196 0.0
C499 C 0.80246 0.9298 0.09862 0.0
C500 C 0.82372 0.95109 0.09369 0.0
C501 C 0.82359 0.97287 0.09162 0.0
C502 C 0.82136 0.88265 0.10651 0.0
C503 C 0.80193 0.86183 0.09914 0.0
C504 C 0.82142 0.90469 0.10659 0.0
C505 C 0.802 0.90627 0.09938 0.0
C506 C 0.78238 0.88533 0.09229 0.0
C507 C 0.78235 0.86336 0.09216 0.0
H508 H 0.07164 0.86317 0.12669 0.0
H509 H 0.09466 0.84074 0.08193 0.0
H510 H 0.11117 0.90036 0.12796 0.0
H511 H 0.13369 0.87814 0.08283 0.0
H512 H 0.2091 0.93676 0.09649 0.0
H513 H 0.17068 0.89865 0.09834 0.0
H514 H 0.13437 0.93804 0.11317 0.0
H515 H 0.17303 0.97608 0.11193 0.0
C516 C 0.08511 0.86622 0.1171 0.0
C517 C 0.08005 0.84903 0.10423 0.0
C518 C 0.10771 0.88757 0.11778 0.0
C519 C 0.12563 0.89224 0.10551 0.0
C520 C 0.12051 0.87495 0.09268 0.0
C521 C 0.09804 0.85355 0.09209 0.0
C522 C 0.19293 0.93725 0.10026 0.0
C523 C 0.19404 0.95941 0.10397 0.0
C524 C 0.17088 0.91542 0.10122 0.0
C525 C 0.14937 0.91528 0.10574 0.0
C526 C 0.15061 0.93743 0.10984 0.0
C527 C 0.17275 0.95927 0.10904 0.0
H528 H 0.20571 0.06529 0.87685 0.0
H529 H 0.28054 0.10105 0.89372 0.0
H530 H 0.20721 0.10437 0.87604 0.0
H531 H 0.28235 0.14019 0.89231 0.0
H532 H 0.26822 0.20119 0.90736 0.0
H533 H 0.26721 0.16243 0.90714 0.0
H534 H 0.22421 0.1422 0.86116 0.0
H535 H 0.2245 0.18073 0.86175 0.0
C536 C 0.22255 0.08153 0.88022 0.0
C537 C 0.24296 0.08009 0.88544 0.0
C538 C 0.22347 0.10396 0.87965 0.0
C539 C 0.24489 0.12543 0.88415 0.0
C540 C 0.26542 0.12397 0.88907 0.0
C541 C 0.26443 0.10154 0.88979 0.0
C542 C 0.25862 0.18851 0.89717 0.0
C543 C 0.24641 0.19399 0.88459 0.0
C544 C 0.25816 0.16632 0.89698 0.0
C545 C 0.24567 0.14919 0.88411 0.0
C546 C 0.23369 0.15483 0.8714 0.0
C547 C 0.23397 0.17696 0.87168 0.0
H548 H 0.94644 0.20569 0.89521 0.0
H549 H 0.97653 0.18642 0.85271 0.0
H550 H 0.90957 0.16632 0.89354 0.0
H551 H 0.93919 0.147 0.85082 0.0
H552 H 0.88372 0.06928 0.87088 0.0
H553 H 0.91926 0.10973 0.86778 0.0
H554 H 0.87412 0.1419 0.87618 0.0
H555 H 0.83876 0.10159 0.8797 0.0
C556 C 0.94506 0.19316 0.88536 0.0
C557 C 0.96446 0.19912 0.87415 0.0
C558 C 0.92383 0.17063 0.88432 0.0
C559 C 0.92146 0.15355 0.87203 0.0
C560 C 0.94061 0.15971 0.86053 0.0
C561 C 0.96192 0.18232 0.86157 0.0
C562 C 0.88135 0.08498 0.87187 0.0
C563 C 0.85852 0.08227 0.87577 0.0
C564 C 0.90168 0.10815 0.87 0.0
C565 C 0.89952 0.12901 0.87191 0.0
C566 C 0.87644 0.12619 0.87496 0.0
C567 C 0.85618 0.10309 0.87692 0.0
H568 H 0.84378 0.77402 0.90356 0.0
H569 H 0.85965 0.81096 0.85514 0.0
H570 H 0.88238 0.77481 0.90259 0.0
H571 H 0.89821 0.81113 0.85395 0.0
H572 H 0.97685 0.83141 0.8691 0.0
H573 H 0.93772 0.82995 0.86778 0.0
H574 H 0.90218 0.75667 0.88764 0.0
H575 H 0.94127 0.7584 0.88943 0.0
C576 C 0.85543 0.78214 0.89262 0.0
C577 C 0.84865 0.79242 0.87942 0.0
C578 C 0.87752 0.78244 0.89201 0.0
C579 C 0.8933 0.79287 0.87813 0.0
C580 C 0.88653 0.80315 0.86489 0.0
C581 C 0.86441 0.80295 0.86554 0.0
C582 C 0.96064 0.81495 0.87307 0.0
C583 C 0.96216 0.79512 0.87953 0.0
C584 C 0.93821 0.81406 0.87223 0.0
C585 C 0.91687 0.79327 0.87775 0.0
C586 C 0.91835 0.77315 0.88363 0.0
C587 C 0.94074 0.77409 0.88457 0.0
H588 H 0.7612 0.61877 0.42521 0.0
H589 H 0.72106 0.54645 0.44648 0.0
H590 H 0.79816 0.61617 0.42546 0.0
H591 H 0.75792 0.54351 0.4462 0.0
H592 H 0.83384 0.55556 0.45758 0.0
H593 H 0.79726 0.55894 0.45909 0.0
H594 H 0.81503 0.5954 0.41045 0.0
H595 H 0.8519 0.59273 0.40922 0.0
C596 C 0.76027 0.60229 0.42991 0.0
C597 C 0.73821 0.58278 0.43577 0.0
C598 C 0.78142 0.60073 0.42995 0.0
C599 C 0.78097 0.57955 0.43571 0.0
C600 C 0.75897 0.56019 0.44185 0.0
C601 C 0.73782 0.56183 0.44194 0.0
C602 C 0.82991 0.56429 0.44722 0.0
C603 C 0.84578 0.57395 0.43331 0.0
C604 C 0.8089 0.56613 0.44805 0.0
C605 C 0.80326 0.57752 0.43493 0.0
C606 C 0.81906 0.58694 0.42094 0.0
C607 C 0.84013 0.58527 0.42018 0.0
H608 H 0.42772 0.28267 0.43371 0.0
H609 H 0.50505 0.32347 0.44368 0.0
H610 H 0.42832 0.24485 0.43673 0.0
H611 H 0.50577 0.28555 0.44621 0.0
H612 H 0.49459 0.21138 0.46215 0.0
H613 H 0.49264 0.24885 0.46292 0.0
H614 H 0.4435 0.22365 0.42006 0.0
H615 H 0.44493 0.18619 0.41957 0.0
C616 C 0.44485 0.28357 0.43658 0.0
C617 C 0.46638 0.30606 0.43831 0.0
C618 C 0.44522 0.26189 0.43822 0.0
C619 C 0.46714 0.26219 0.44151 0.0
C620 C 0.48854 0.28468 0.44382 0.0
C621 C 0.48815 0.30641 0.44227 0.0
C622 C 0.4833 0.21384 0.45296 0.0
C623 C 0.4699 0.19582 0.44082 0.0
C624 C 0.48227 0.23533 0.45336 0.0
C625 C 0.46784 0.23918 0.4416 0.0
C626 C 0.45442 0.22108 0.42951 0.0
C627 C 0.45539 0.19964 0.42915 0.0
H628 H 0.85225 0.29892 0.43217 0.0
H629 H 0.88446 0.2529 0.43283 0.0
H630 H 0.81198 0.26327 0.43443 0.0
H631 H 0.84398 0.21711 0.43545 0.0
H632 H 0.76738 0.16095 0.41553 0.0
H633 H 0.80858 0.19543 0.41698 0.0
H634 H 0.785 0.2304 0.45326 0.0
H635 H 0.74356 0.19606 0.45157 0.0
C636 C 0.85077 0.2812 0.433 0.0
C637 C 0.87156 0.27873 0.43221 0.0
C638 C 0.82766 0.26076 0.43442 0.0
C639 C 0.82478 0.23736 0.43509 0.0
C640 C 0.84561 0.2349 0.43475 0.0
C641 C 0.86879 0.25539 0.43333 0.0
C642 C 0.77098 0.17591 0.42391 0.0
C643 C 0.75216 0.17585 0.43335 0.0
C644 C 0.79466 0.1956 0.42483 0.0
C645 C 0.80005 0.21565 0.43522 0.0
C646 C 0.78134 0.21533 0.44498 0.0
C647 C 0.75763 0.19563 0.44405 0.0
H648 H 0.87829 0.39886 0.20468 0.0
H649 H 0.95026 0.43533 0.22682 0.0
H650 H 0.87753 0.43683 0.2053 0.0
H651 H 0.94989 0.47346 0.22687 0.0
H652 H 0.92993 0.52992 0.24306 0.0
H653 H 0.93075 0.49209 0.24162 0.0
H654 H 0.89478 0.47636 0.19282 0.0
H655 H 0.89319 0.51386 0.19456 0.0
C656 C 0.89406 0.41505 0.20949 0.0
C657 C 0.91428 0.41409 0.21578 0.0
C658 C 0.89368 0.43686 0.20977 0.0
C659 C 0.91361 0.4582 0.21621 0.0
C660 C 0.93404 0.45728 0.22214 0.0
C661 C 0.93432 0.43545 0.22201 0.0
C662 C 0.9222 0.51839 0.23202 0.0
C663 C 0.91147 0.52486 0.21893 0.0
C664 C 0.92281 0.49676 0.23113 0.0
C665 C 0.91293 0.48121 0.21706 0.0
C666 C 0.90226 0.48775 0.20394 0.0
C667 C 0.90146 0.5093 0.2049 0.0
H668 H 0.61144 0.54467 0.23275 0.0
H669 H 0.64535 0.51532 0.2002 0.0
H670 H 0.57421 0.50533 0.23304 0.0
H671 H 0.60786 0.47599 0.20031 0.0
H672 H 0.54868 0.40393 0.22447 0.0
H673 H 0.58523 0.44354 0.22118 0.0
H674 H 0.54079 0.4769 0.21475 0.0
H675 H 0.50421 0.43736 0.21831 0.0
C676 C 0.61088 0.5299 0.22551 0.0
C677 C 0.63139 0.53309 0.21652 0.0
C678 C 0.58948 0.50739 0.2256 0.0
C679 C 0.58813 0.48756 0.21673 0.0
C680 C 0.60847 0.49087 0.20743 0.0
C681 C 0.62989 0.51343 0.2073 0.0
C682 C 0.54669 0.41968 0.22227 0.0
C683 C 0.52356 0.41753 0.22177 0.0
C684 C 0.56763 0.44235 0.22028 0.0
C685 C 0.56587 0.46333 0.21775 0.0
C686 C 0.54272 0.46109 0.2169 0.0
C687 C 0.52178 0.43843 0.21887 0.0
H688 H 0.50823 0.11407 0.24943 0.0
H689 H 0.52935 0.15218 0.20144 0.0
H690 H 0.54758 0.11626 0.25139 0.0
H691 H 0.56886 0.15425 0.20343 0.0
H692 H 0.62101 0.12159 0.20567 0.0
H693 H 0.58336 0.123 0.20314 0.0
H694 H 0.59194 0.14917 0.25469 0.0
H695 H 0.62959 0.14785 0.25728 0.0
C696 C 0.52128 0.12293 0.2393 0.0
C697 C 0.5157 0.13291 0.22525 0.0
C698 C 0.54386 0.12432 0.24049 0.0
C699 C 0.56122 0.13547 0.22758 0.0
C700 C 0.55569 0.14545 0.21351 0.0
C701 C 0.53317 0.14435 0.21241 0.0
C702 C 0.61492 0.12776 0.21644 0.0
C703 C 0.62817 0.13448 0.23171 0.0
C704 C 0.59348 0.12871 0.21494 0.0
C705 C 0.58478 0.13613 0.22874 0.0
C706 C 0.59819 0.14319 0.24391 0.0
C707 C 0.61977 0.14251 0.24536 0.0
H708 H 0.43898 0.95236 0.75555 0.0
H709 H 0.40702 0.90114 0.79689 0.0
H710 H 0.47489 0.9481 0.75673 0.0
H711 H 0.4434 0.89732 0.79834 0.0
H712 H 0.49685 0.8731 0.778 0.0
H713 H 0.46228 0.87958 0.78106 0.0
H714 H 0.50991 0.95676 0.77362 0.0
H715 H 0.54429 0.95022 0.77009 0.0
C716 C 0.43976 0.94045 0.76507 0.0
C717 C 0.42009 0.92699 0.77607 0.0
C718 C 0.46045 0.93812 0.76582 0.0
C719 C 0.462 0.92235 0.77763 0.0
C720 C 0.44261 0.90938 0.78896 0.0
C721 C 0.42184 0.91168 0.78819 0.0
C722 C 0.49996 0.89147 0.77718 0.0
C723 C 0.52323 0.9111 0.7736 0.0
C724 C 0.48018 0.89521 0.77904 0.0
C725 C 0.48332 0.91867 0.77745 0.0
C726 C 0.50681 0.93841 0.77459 0.0
C727 C 0.52653 0.93466 0.77264 0.0
H728 H 0.11518 0.5237 0.74455 0.0
H729 H 0.14473 0.53801 0.79543 0.0
H730 H 0.11785 0.56321 0.74396 0.0
H731 H 0.14676 0.57743 0.79501 0.0
H732 H 0.17128 0.65655 0.77999 0.0
H733 H 0.1688 0.61701 0.78152 0.0
H734 H 0.09882 0.58397 0.75648 0.0
H735 H 0.10161 0.62349 0.75451 0.0
C736 C 0.12209 0.53522 0.75567 0.0
C737 C 0.12972 0.52772 0.77006 0.0
C738 C 0.12349 0.55783 0.75536 0.0
C739 C 0.13239 0.57341 0.76947 0.0
C740 C 0.14006 0.56594 0.78387 0.0
C741 C 0.13878 0.54332 0.78414 0.0
C742 C 0.15536 0.64082 0.77485 0.0
C743 C 0.13672 0.64316 0.76704 0.0
C744 C 0.15387 0.61815 0.77581 0.0
C745 C 0.13367 0.59737 0.76905 0.0
C746 C 0.11484 0.59969 0.76153 0.0
C747 C 0.11638 0.62234 0.76048 0.0
H748 H 0.40613 0.5336 0.79652 0.0
H749 H 0.42726 0.51551 0.74899 0.0
H750 H 0.44595 0.57033 0.79853 0.0
H751 H 0.46659 0.55248 0.75068 0.0
H752 H 0.54272 0.60772 0.76496 0.0
H753 H 0.5038 0.57011 0.76609 0.0
H754 H 0.46979 0.60956 0.78555 0.0
H755 H 0.50905 0.64712 0.785 0.0
C756 C 0.41923 0.53753 0.78647 0.0
C757 C 0.4136 0.52165 0.77262 0.0
C758 C 0.442 0.55862 0.78758 0.0
C759 C 0.45951 0.5643 0.77481 0.0
C760 C 0.45375 0.54842 0.76093 0.0
C761 C 0.43111 0.52729 0.75989 0.0
C762 C 0.52697 0.60832 0.76962 0.0
C763 C 0.52887 0.63037 0.77478 0.0
C764 C 0.50463 0.5868 0.77017 0.0
C765 C 0.4836 0.58687 0.77569 0.0
C766 C 0.48566 0.60882 0.78137 0.0
C767 C 0.50813 0.63037 0.78099 0.0
H768 H 0.59464 0.76207 0.57286 0.0
H769 H 0.55086 0.73598 0.5274 0.0
H770 H 0.59284 0.79931 0.57147 0.0
H771 H 0.54981 0.77383 0.52561 0.0
H772 H 0.5308 0.83289 0.53977 0.0
H773 H 0.53277 0.79551 0.53933 0.0
H774 H 0.60784 0.83573 0.5557 0.0
H775 H 0.60551 0.87277 0.55679 0.0
C776 C 0.58483 0.76441 0.56245 0.0
C777 C 0.5729 0.7461 0.55023 0.0
C778 C 0.58393 0.78586 0.56158 0.0
C779 C 0.57133 0.78967 0.54835 0.0
C780 C 0.55944 0.77137 0.53607 0.0
C781 C 0.56013 0.74974 0.53705 0.0
C782 C 0.54774 0.83372 0.54318 0.0
C783 C 0.56792 0.85568 0.54847 0.0
C784 C 0.54892 0.81233 0.54284 0.0
C785 C 0.5704 0.81256 0.54763 0.0
C786 C 0.59083 0.83477 0.55233 0.0
C787 C 0.58955 0.85604 0.55286 0.0
H788 H 0.1573 0.76818 0.54645 0.0
H789 H 0.19906 0.73299 0.5356 0.0
H790 H 0.19404 0.80776 0.54424 0.0
H791 H 0.23602 0.77255 0.53405 0.0
H792 H 0.29733 0.84814 0.52234 0.0
H793 H 0.25881 0.81018 0.51919 0.0
H794 H 0.22907 0.8306 0.56129 0.0
H795 H 0.26711 0.86872 0.56402 0.0
C796 C 0.17434 0.76892 0.54353 0.0
C797 C 0.17536 0.7475 0.54135 0.0
C798 C 0.19543 0.7916 0.54236 0.0
C799 C 0.21805 0.79336 0.53919 0.0
C800 C 0.21888 0.77191 0.53633 0.0
C801 C 0.19771 0.74921 0.53731 0.0
C802 C 0.28245 0.84459 0.5308 0.0
C803 C 0.28527 0.86139 0.54345 0.0
C804 C 0.26043 0.82278 0.52905 0.0
C805 C 0.24084 0.81728 0.54001 0.0
C806 C 0.24358 0.83438 0.55243 0.0
C807 C 0.26549 0.85622 0.55407 0.0
H808 H 0.27647 0.43258 0.55097 0.0
H809 H 0.31333 0.50811 0.56621 0.0
H810 H 0.23867 0.43329 0.5477 0.0
H811 H 0.27533 0.50865 0.56317 0.0
H812 H 0.20673 0.50581 0.5419 0.0
H813 H 0.24517 0.50567 0.54195 0.0
H814 H 0.20999 0.43591 0.5672 0.0
H815 H 0.17163 0.43583 0.56695 0.0
C816 C 0.27654 0.44937 0.55357 0.0
C817 C 0.29787 0.47025 0.55896 0.0
C818 C 0.25485 0.44973 0.55177 0.0
C819 C 0.25401 0.47097 0.55529 0.0
C820 C 0.27547 0.49207 0.56022 0.0
C821 C 0.2972 0.49171 0.56206 0.0
C822 C 0.20718 0.49038 0.54736 0.0
C823 C 0.18614 0.47084 0.55443 0.0
C824 C 0.22921 0.49038 0.54747 0.0
C825 C 0.23057 0.47078 0.55457 0.0
C826 C 0.20945 0.45112 0.56142 0.0
C827 C 0.18749 0.45115 0.56137 0.0
H828 H 0.01966 0.28416 0.15402 0.0
H829 H 0.0214 0.32766 0.11123 0.0
H830 H 0.0068 0.30639 0.17234 0.0
H831 H 0.00916 0.35045 0.12972 0.0
H832 H -0.00661 0.35583 0.20438 0.0
H833 H 0.01649 0.34418 0.18575 0.0
H834 H 0.9713 0.34036 0.14343 0.0
H835 H 0.94872 0.35269 0.16191 0.0
C836 C 0.01781 0.29882 0.14859 0.0
C837 C 0.02119 0.30391 0.13114 0.0
C838 C 0.01059 0.31172 0.15913 0.0
C839 C 0.00676 0.33008 0.15245 0.0
C840 C 0.01155 0.33612 0.13518 0.0
C841 C 0.01866 0.32314 0.12461 0.0
C842 C 0.98865 0.35287 0.19103 0.0
C843 C 0.96902 0.35484 0.18464 0.0
C844 C 0.00183 0.34611 0.18039 0.0
C845 C -0.00444 0.34106 0.16316 0.0
C846 C 0.97679 0.34435 0.1566 0.0
C847 C 0.9637 0.35126 0.16722 0.0
H848 H 0.77176 0.76743 0.15351 0.0
H849 H 0.72539 0.72466 0.11207 0.0
H850 H 0.74972 0.73313 0.17264 0.0
H851 H 0.70297 0.69054 0.13132 0.0
H852 H 0.69856 0.62795 0.16441 0.0
H853 H 0.71286 0.66263 0.14541 0.0
H854 H 0.71134 0.70655 0.18677 0.0
H855 H 0.69754 0.67195 0.20592 0.0
C856 C 0.75659 0.75086 0.14855 0.0
C857 C 0.75053 0.74864 0.13124 0.0
C858 C 0.74384 0.73124 0.15954 0.0
C859 C 0.72471 0.70906 0.15345 0.0
C860 C 0.71789 0.70727 0.13631 0.0
C861 C 0.73068 0.72685 0.12531 0.0
C862 C 0.70098 0.6449 0.16941 0.0
C863 C 0.69721 0.64729 0.1867 0.0
C864 C 0.70902 0.66476 0.15849 0.0
C865 C 0.71337 0.68738 0.16462 0.0
C866 C 0.70851 0.68945 0.18174 0.0
C867 C 0.70051 0.6696 0.19268 0.0
H868 H 0.33289 0.02159 0.11406 0.0
H869 H 0.28574 0.01751 0.15507 0.0
H870 H 0.36644 0.03441 0.13407 0.0
H871 H 0.31937 0.03104 0.17492 0.0
H872 H 0.38063 0.04705 0.20961 0.0
H873 H 0.34801 0.02319 0.1895 0.0
H874 H 0.3911 0.07171 0.14906 0.0
H875 H 0.42384 0.09499 0.16897 0.0
C876 C 0.32963 0.02323 0.12737 0.0
C877 C 0.30677 0.01888 0.13297 0.0
C878 C 0.34887 0.03065 0.13881 0.0
C879 C 0.34566 0.034 0.15606 0.0
C880 C 0.32243 0.02838 0.16177 0.0
C881 C 0.30317 0.02081 0.15035 0.0
C882 C 0.38328 0.05233 0.19636 0.0
C883 C 0.40466 0.0731 0.19091 0.0
C884 C 0.36456 0.03873 0.18487 0.0
C885 C 0.36683 0.04571 0.16772 0.0
C886 C 0.38881 0.06565 0.16213 0.0
C887 C 0.40755 0.07914 0.17359 0.0
H888 H 0.26666 0.00516 0.83072 0.0
H889 H 0.32283 0.03002 0.86905 0.0
H890 H 0.292 -0.00269 0.81154 0.0
H891 H 0.34857 0.023 0.84966 0.0
H892 H 0.3669 0.97056 0.82113 0.0
H893 H 0.34813 0.98767 0.83904 0.0
H894 H 0.32805 0.0135 0.79451 0.0
H895 H 0.34618 -0.00442 0.77649 0.0
C896 C 0.28461 0.00938 0.83493 0.0
C897 C 0.29262 0.01786 0.85146 0.0
C898 C 0.29924 0.00506 0.82389 0.0
C899 C 0.32227 0.00937 0.82911 0.0
C900 C 0.33074 0.01905 0.84536 0.0
C901 C 0.31602 0.02314 0.85645 0.0
C902 C 0.35881 0.98019 0.81514 0.0
C903 C 0.35773 0.98142 0.79739 0.0
C904 C 0.34815 0.99017 0.82544 0.0
C905 C 0.33637 0.00178 0.8182 0.0
C906 C 0.33656 0.00425 0.80046 0.0
C907 C 0.34708 0.99411 0.79015 0.0
H908 H 0.05217 0.40246 0.787 0.0
H909 H 0.11441 0.42547 0.81995 0.0
H910 H 0.02691 0.3706 0.80722 0.0
H911 H 0.08948 0.39333 0.83981 0.0
H912 H 0.03956 0.34109 0.8775 0.0
H913 H 0.05676 0.37744 0.85983 0.0
H914 H 0.02375 0.33271 0.8155 0.0
H915 H 0.00592 0.29653 0.83323 0.0
C916 C 0.06042 0.40083 0.79861 0.0
C917 C 0.08534 0.41629 0.80181 0.0
C918 C 0.04596 0.38254 0.81015 0.0
C919 C 0.05619 0.37932 0.82508 0.0
C920 C 0.08089 0.39549 0.82857 0.0
C921 C 0.09528 0.41382 0.81709 0.0
C922 C 0.03561 0.33909 0.86402 0.0
C923 C 0.02174 0.31595 0.8567 0.0
C924 C 0.04555 0.35989 0.85389 0.0
C925 C 0.04199 0.35795 0.83622 0.0
C926 C 0.02673 0.33491 0.82908 0.0
C927 C 0.01661 0.31411 0.83924 0.0
H928 H 0.62156 0.6518 0.8141 0.0
H929 H 0.67207 0.70512 0.77862 0.0
H930 H 0.6544 0.66432 0.83478 0.0
H931 H 0.70477 0.71756 0.79929 0.0
H932 H 0.76189 0.72628 0.83732 0.0
H933 H 0.72976 0.70387 0.81642 0.0
H934 H 0.67688 0.70424 0.85073 0.0
H935 H 0.7088 0.72659 0.87154 0.0
C936 C 0.63973 0.66587 0.8106 0.0
C937 C 0.64419 0.67773 0.79484 0.0
C938 C 0.65847 0.67305 0.82245 0.0
C939 C 0.68203 0.69198 0.81864 0.0
C940 C 0.6868 0.70278 0.8025 0.0
C941 C 0.66804 0.69579 0.79073 0.0
C942 C 0.74334 0.72123 0.84048 0.0
C943 C 0.73786 0.7284 0.85597 0.0
C944 C 0.72501 0.70848 0.82852 0.0
C945 C 0.7009 0.70239 0.83198 0.0
C946 C 0.69527 0.70849 0.84781 0.0
C947 C 0.71359 0.72147 0.85965 0.0
H948 H 0.02901 0.72391 0.87079 0.0
H949 H 0.03168 0.77086 0.83006 0.0
H950 H 0.04351 0.70396 0.85144 0.0
H951 H 0.04679 0.75144 0.81091 0.0
H952 H 0.062 0.70471 0.77684 0.0
H953 H 0.03825 0.71499 0.79589 0.0
H954 H 0.08221 0.7161 0.83821 0.0
H955 H 0.10545 0.70513 0.81928 0.0
C956 C 0.03251 0.72984 0.85768 0.0
C957 C 0.02947 0.74914 0.85198 0.0
C958 C 0.04091 0.71848 0.84663 0.0
C959 C 0.0465 0.72625 0.82969 0.0
C960 C 0.04239 0.74481 0.82382 0.0
C961 C 0.03388 0.75608 0.83485 0.0
C962 C 0.06637 0.70684 0.79025 0.0
C963 C 0.08578 0.70441 0.79654 0.0
C964 C 0.05282 0.71281 0.80114 0.0
C965 C 0.0585 0.7166 0.81852 0.0
C966 C 0.07718 0.71305 0.82492 0.0
C967 C 0.09064 0.70693 0.81404 0.0
H968 H 0.33348 0.42506 0.82289 0.0
H969 H 0.35207 0.38952 0.78369 0.0
H970 H 0.32338 0.39124 0.84196 0.0
H971 H 0.34249 0.35584 0.80299 0.0
H972 H 0.28521 0.28783 0.83315 0.0
H973 H 0.305 0.32313 0.81463 0.0
H974 H 0.33858 0.36932 0.85822 0.0
H975 H 0.31825 0.33404 0.87683 0.0
C976 C 0.33579 0.41021 0.81843 0.0
C977 C 0.34328 0.40982 0.80172 0.0
C978 C 0.33019 0.39089 0.82942 0.0
C979 C 0.33206 0.37081 0.82397 0.0
C980 C 0.34056 0.37091 0.80748 0.0
C981 C 0.34611 0.39023 0.79646 0.0
C982 C 0.29712 0.30545 0.83877 0.0
C983 C 0.29985 0.30821 0.85647 0.0
C984 C 0.3086 0.32569 0.82814 0.0
C985 C 0.32313 0.34907 0.83499 0.0
C986 C 0.3271 0.35159 0.85261 0.0
C987 C 0.31554 0.33137 0.86325 0.0
H988 H 0.71864 0.00861 0.87168 0.0
H989 H 0.76115 0.00518 0.83 0.0
H990 H 0.68313 0.99301 0.8532 0.0
H991 H 0.72555 0.98907 0.81169 0.0
H992 H 0.66223 0.97711 0.77917 0.0
H993 H 0.69754 -0.00116 0.79759 0.0
H994 H 0.65577 0.95419 0.83995 0.0
H995 H 0.6203 0.93286 0.82165 0.0
C996 C 0.72044 0.00463 0.85856 0.0
C997 C 0.74265 0.00796 0.85231 0.0
C998 C 0.70007 -0.00441 0.84801 0.0
C999 C 0.70151 0.98969 0.83102 0.0
C1000 C 0.72392 0.99372 0.82466 0.0
C1001 C 0.74429 0.00281 0.83519 0.0
C1002 C 0.66053 0.97207 0.79245 0.0
C1003 C 0.63855 0.95315 0.79894 0.0
C1004 C 0.68078 0.98446 0.80297 0.0
C1005 C 0.67948 0.97812 0.82019 0.0
C1006 C 0.65727 0.95969 0.82679 0.0
C1007 C 0.63699 0.94736 0.81627 0.0
H1008 H 0.71985 0.0371 0.10531 0.0
H1009 H 0.74878 0.02099 0.15002 0.0
H1010 H 0.69861 0.05179 0.12326 0.0
H1011 H 0.7282 0.03627 0.16788 0.0
H1012 H 0.68078 0.05523 0.19776 0.0
H1013 H 0.69056 0.03155 0.1783 0.0
H1014 H 0.71204 0.08776 0.14029 0.0
H1015 H 0.70156 0.11106 0.15955 0.0
C1016 C 0.72145 0.03643 0.11897 0.0
C1017 C 0.73622 0.02816 0.12626 0.0
C1018 C 0.70939 0.04497 0.12924 0.0
C1019 C 0.71192 0.04546 0.14698 0.0
C1020 C 0.72563 0.03593 0.15426 0.0
C1021 C 0.73758 0.02729 0.14401 0.0
C1022 C 0.68726 0.06236 0.18515 0.0
C1023 C 0.69071 0.08516 0.18025 0.0
C1024 C 0.69294 0.04882 0.17403 0.0
C1025 C 0.70233 0.05787 0.15782 0.0
C1026 C 0.7046 0.08012 0.15262 0.0
C1027 C 0.69875 0.09358 0.16371 0.0
H1028 H 0.0229 0.7573 0.15525 0.0
H1029 H 0.00472 0.70916 0.11212 0.0
H1030 H 0.00602 0.72243 0.17426 0.0
H1031 H 0.98837 0.67429 0.13121 0.0
H1032 H 0.92773 0.62197 0.16802 0.0
H1033 H 0.95183 0.65488 0.14839 0.0
H1034 H 0.00897 0.68853 0.18589 0.0
H1035 H 0.98454 0.65577 0.20576 0.0
C1036 C 0.01576 0.73931 0.14984 0.0
C1037 C 0.01479 0.73595 0.13218 0.0
C1038 C 0.00621 0.71932 0.16076 0.0
C1039 C -0.00437 0.69558 0.15422 0.0
C1040 C -0.004 0.69234 0.1366 0.0
C1041 C 0.00546 0.71232 0.12568 0.0
C1042 C 0.94553 0.63624 0.17204 0.0
C1043 C 0.95411 0.63641 0.1885 0.0
C1044 C 0.95945 0.65502 0.16072 0.0
C1045 C 0.9823 0.67435 0.1656 0.0
C1046 C 0.9913 0.67404 0.18185 0.0
C1047 C 0.97734 0.65524 0.19319 0.0
H1048 H 0.28376 0.26636 0.15734 0.0
H1049 H 0.3228 0.31139 0.11435 0.0
H1050 H 0.31893 0.2905 0.17539 0.0
H1051 H 0.35774 0.33592 0.13251 0.0
H1052 H 0.42384 0.34706 0.16444 0.0
H1053 H 0.38802 0.32955 0.14633 0.0
H1054 H 0.34448 0.32984 0.18841 0.0
H1055 H 0.38028 0.34682 0.2067 0.0
C1056 C 0.29971 0.28164 0.1518 0.0
C1057 C 0.30062 0.28679 0.13439 0.0
C1058 C 0.31982 0.29559 0.16217 0.0
C1059 C 0.34118 0.31506 0.15536 0.0
C1060 C 0.34169 0.32079 0.13808 0.0
C1061 C 0.32164 0.30678 0.1277 0.0
C1062 C 0.40671 0.34369 0.16979 0.0
C1063 C 0.40484 0.34807 0.18704 0.0
C1064 C 0.38618 0.33378 0.15937 0.0
C1065 C 0.36336 0.32814 0.16597 0.0
C1066 C 0.36173 0.33361 0.18304 0.0
C1067 C 0.38227 0.34346 0.19348 0.0
H1068 H 0.61281 0.69153 0.49897 0.0
H1069 H 0.65305 0.68776 0.54205 0.0
H1070 H 0.63477 0.67866 0.48039 0.0
H1071 H 0.67557 0.67549 0.52332 0.0
H1072 H 0.68406 0.66492 0.44833 0.0
H1073 H 0.67286 0.68769 0.46763 0.0
H1074 H 0.66432 0.63822 0.50826 0.0
H1075 H 0.67618 0.61592 0.48912 0.0
C1076 C 0.62671 0.68846 0.50443 0.0
C1077 C 0.63092 0.6903 0.52201 0.0
C1078 C 0.63946 0.68124 0.49375 0.0
C1079 C 0.65679 0.67584 0.50041 0.0
C1080 C 0.66203 0.67911 0.51786 0.0
C1081 C 0.6492 0.68624 0.52857 0.0
C1082 C 0.68014 0.65914 0.46145 0.0
C1083 C 0.68066 0.63843 0.46716 0.0
C1084 C 0.67365 0.67214 0.47249 0.0
C1085 C 0.66744 0.66462 0.48942 0.0
C1086 C 0.66924 0.64467 0.49534 0.0
C1087 C 0.67587 0.63176 0.48433 0.0
H1088 H 0.45032 0.09456 0.49148 0.0
H1089 H 0.39582 0.06412 0.45196 0.0
H1090 H 0.42477 0.06011 0.50973 0.0
H1091 H 0.37006 0.02996 0.47037 0.0
H1092 H 0.3672 0.00293 0.54318 0.0
H1093 H 0.38674 0.03949 0.52567 0.0
H1094 H 0.37204 -0.00498 0.48085 0.0
H1095 H 0.3521 0.95855 0.49824 0.0
C1096 C 0.43275 0.08071 0.48678 0.0
C1097 C 0.42522 0.08192 0.47021 0.0
C1098 C 0.41802 0.06104 0.49728 0.0
C1099 C 0.39545 0.04225 0.49145 0.0
C1100 C 0.38752 0.04397 0.47512 0.0
C1101 C 0.40226 0.06359 0.46461 0.0
C1102 C 0.36783 0.00096 0.52956 0.0
C1103 C 0.3583 0.97785 0.5221 0.0
C1104 C 0.37915 0.02191 0.51955 0.0
C1105 C 0.38111 0.02015 0.5019 0.0
C1106 C 0.37062 -0.003 0.49439 0.0
C1107 C 0.35931 0.97607 0.50438 0.0
H1108 H 0.95151 0.3613 0.4875 0.0
H1109 H -0.00239 0.3643 0.44607 0.0
H1110 H 0.98615 0.37723 0.50668 0.0
H1111 H 0.03219 0.37971 0.4654 0.0
H1112 H 0.09084 0.44101 0.49918 0.0
H1113 H 0.05694 0.41806 0.47988 0.0
H1114 H 0.01553 0.36961 0.52082 0.0
H1115 H 0.04922 0.39294 0.54024 0.0
C1116 C 0.96894 0.36495 0.48255 0.0
C1117 C 0.97188 0.36181 0.46523 0.0
C1118 C 0.98879 0.37394 0.49358 0.0
C1119 C 0.01197 0.37989 0.48754 0.0
C1120 C 0.01465 0.37567 0.47037 0.0
C1121 C -0.00519 0.36674 0.45933 0.0
C1122 C 0.07462 0.4253 0.50402 0.0
C1123 C 0.07259 0.41897 0.52127 0.0
C1124 C 0.05523 0.41203 0.49293 0.0
C1125 C 0.03347 0.3921 0.49885 0.0
C1126 C 0.0319 0.38512 0.51594 0.0
C1127 C 0.05124 0.39844 0.52704 0.0
H1128 H 0.36157 0.4369 0.49921 0.0
H1129 H 0.35417 0.38656 0.53888 0.0
H1130 H 0.37509 0.41645 0.47966 0.0
H1131 H 0.36709 0.36567 0.51915 0.0
H1132 H 0.42756 0.3635 0.48747 0.0
H1133 H 0.40574 0.3762 0.50639 0.0
H1134 H 0.36464 0.37988 0.46385 0.0
H1135 H 0.38697 0.36776 0.4448 0.0
C1136 C 0.36237 0.42118 0.50367 0.0
C1137 C 0.35713 0.41355 0.52065 0.0
C1138 C 0.36998 0.40934 0.49242 0.0
C1139 C 0.37236 0.38955 0.4979 0.0
C1140 C 0.36585 0.38114 0.51464 0.0
C1141 C 0.35835 0.39304 0.52592 0.0
C1142 C 0.41368 0.36674 0.48216 0.0
C1143 C 0.4092 0.36492 0.46462 0.0
C1144 C 0.40103 0.37385 0.49304 0.0
C1145 C 0.38354 0.37917 0.4866 0.0
C1146 C 0.37828 0.37627 0.46914 0.0
C1147 C 0.39101 0.36924 0.45825 0.0
H1148 H 0.59664 0.94802 0.49715 0.0
H1149 H 0.6418 0.99257 0.53846 0.0
H1150 H 0.61941 0.98133 0.47744 0.0
H1151 H 0.66503 0.02572 0.51862 0.0
H1152 H 0.67246 0.08707 0.48304 0.0
H1153 H 0.65655 0.05329 0.5029 0.0
H1154 H 0.65812 0.00664 0.46357 0.0
H1155 H 0.67348 0.04039 0.44349 0.0
C1156 C 0.61168 0.96479 0.50198 0.0
C1157 C 0.61723 0.96778 0.51938 0.0
C1158 C 0.62486 0.98384 0.49065 0.0
C1159 C 0.64394 0.00622 0.49649 0.0
C1160 C 0.65017 0.00882 0.51379 0.0
C1161 C 0.63692 0.98981 0.52514 0.0
C1162 C 0.66965 0.06968 0.47865 0.0
C1163 C 0.67397 0.06632 0.46165 0.0
C1164 C 0.6607 0.05034 0.49008 0.0
C1165 C 0.65597 0.02725 0.48479 0.0
C1166 C 0.66123 0.02414 0.46795 0.0
C1167 C 0.67013 0.04349 0.45649 0.0
H1168 H 0.97718 0.64585 0.44574 0.0
H1169 H 0.94276 0.59185 0.48521 0.0
H1170 H 0.01091 0.67054 0.46485 0.0
H1171 H 0.97666 0.61624 0.50412 0.0
H1172 H 0.03374 0.67105 0.53849 0.0
H1173 H -0.00191 0.65399 0.52007 0.0
H1174 H 0.04416 0.66629 0.47646 0.0
H1175 H 0.0798 0.68383 0.49478 0.0
C1176 C 0.97672 0.63933 0.45853 0.0
C1177 C 0.95744 0.61678 0.46392 0.0
C1178 C -0.00393 0.65344 0.46944 0.0
C1179 C -0.00348 0.64526 0.48594 0.0
C1180 C 0.97673 0.62319 0.49154 0.0
C1181 C 0.95737 0.60911 0.48065 0.0
C1182 C 0.03629 0.67041 0.52495 0.0
C1183 C 0.05955 0.67852 0.5181 0.0
C1184 C 0.01586 0.66055 0.51442 0.0
C1185 C 0.0183 0.6586 0.49685 0.0
C1186 C 0.04169 0.66776 0.48993 0.0
C1187 C 0.06212 0.67766 0.50045 0.0
H1188 H 0.03781 0.23889 0.02761 0.0
H1189 H 0.00889 0.28629 0.0385 0.0
H1190 H 0.03382 0.24374 -0.00269 0.0
H1191 H 0.00498 0.29117 0.00805 0.0
H1192 H 0.97507 0.26573 0.9526 0.0
H1193 H 0.98003 0.2646 0.98334 0.0
H1194 H 0.05284 0.27718 0.97584 0.0
H1195 H 0.04799 0.27821 0.94529 0.0
C1196 C 0.03067 0.2504 0.02354 0.0
C1197 C 0.02371 0.26223 0.03544 0.0
C1198 C 0.02851 0.25328 0.00619 0.0
C1199 C 0.01917 0.26791 0.00036 0.0
C1200 C 0.0121 0.27969 0.01223 0.0
C1201 C 0.01448 0.27699 0.02962 0.0
C1202 C 0.9922 0.26849 0.95753 0.0
C1203 C 0.01104 0.27185 0.9465 0.0
C1204 C -0.00494 0.26793 0.97511 0.0
C1205 C 0.01674 0.27057 0.98192 0.0
C1206 C 0.03581 0.27473 0.97091 0.0
C1207 C 0.03304 0.27543 0.9534 0.0
H1208 H 0.73965 0.76686 0.94406 0.0
H1209 H 0.79693 0.75081 0.9549 0.0
H1210 H 0.73296 0.7684 0.97437 0.0
H1211 H 0.79084 0.75317 0.98516 0.0
H1212 H 0.7678 0.74687 0.03933 0.0
H1213 H 0.76514 0.73617 0.00939 0.0
H1214 H 0.75482 0.79662 -0.00344 0.0
H1215 H 0.75666 0.80678 0.02648 0.0
C1216 C 0.75069 0.76347 0.95292 0.0
C1217 C 0.769 0.75897 0.9471 0.0
C1218 C 0.74694 0.76449 0.97029 0.0
C1219 C 0.76155 0.76122 0.98221 0.0
C1220 C 0.77907 0.75553 0.97636 0.0
C1221 C 0.78267 0.75431 0.95898 0.0
C1222 C 0.76465 0.75767 0.03012 0.0
C1223 C 0.76266 0.77781 0.03524 0.0
C1224 C 0.76323 0.7516 0.01296 0.0
C1225 C 0.75998 0.76565 0.00055 0.0
C1226 C 0.75703 0.7852 0.00577 0.0
C1227 C 0.75824 0.79115 0.02294 0.0
H1228 H 0.26866 0.99268 0.94363 0.0
H1229 H 0.29499 0.0678 0.95703 0.0
H1230 H 0.26856 0.98268 0.97349 0.0
H1231 H 0.29437 0.05766 0.98693 0.0
H1232 H 0.30358 0.03534 0.03934 0.0
H1233 H 0.31161 0.04396 0.00911 0.0
H1234 H 0.24304 0.97972 -0.00266 0.0
H1235 H 0.23524 0.97083 0.02746 0.0
C1236 C 0.27464 0.00712 0.95293 0.0
C1237 C 0.28159 0.031 0.94798 0.0
C1238 C 0.27448 0.00134 0.97004 0.0
C1239 C 0.2812 0.01931 0.98259 0.0
C1240 C 0.28928 0.04343 0.97757 0.0
C1241 C 0.28951 0.04922 0.96043 0.0
C1242 C 0.29039 0.02286 0.03029 0.0
C1243 C 0.26866 0.0025 0.0358 0.0
C1244 C 0.29494 0.02788 0.01298 0.0
C1245 C 0.2779 0.01263 0.00084 0.0
C1246 C 0.25669 0.9917 0.00635 0.0
C1247 C 0.25213 0.98668 0.02364 0.0
H1248 H 0.97629 0.76985 0.95722 0.0
H1249 H 0.0386 0.76233 0.9449 0.0
H1250 H 0.98335 0.7671 0.98728 0.0
H1251 H 0.04538 0.75912 0.97505 0.0
H1252 H 0.0679 0.79237 0.02942 0.0
H1253 H 0.05943 0.78732 -0.00095 0.0
H1254 H 0.98291 0.7403 0.00953 0.0
H1255 H 0.99127 0.74573 0.03987 0.0
C1256 C 0.99128 0.76725 0.96091 0.0
C1257 C 0.00699 0.76652 0.94868 0.0
C1258 C -0.00476 0.76551 0.97815 0.0
C1259 C 0.01498 0.76297 0.98354 0.0
C1260 C 0.0302 0.76138 0.97129 0.0
C1261 C 0.02623 0.7631 0.95402 0.0
C1262 C 0.04932 0.78068 0.02525 0.0
C1263 C 0.03022 0.76971 0.03704 0.0
C1264 C 0.04447 0.77769 0.00784 0.0
C1265 C 0.02046 0.7636 0.0019 0.0
C1266 C 0.00154 0.75162 0.01372 0.0
C1267 C 0.00637 0.75466 0.0311 0.0
H1268 H 0.2226 0.26516 0.03176 0.0
H1269 H 0.29453 0.27706 0.04264 0.0
H1270 H 0.2321 0.27026 0.00161 0.0
H1271 H 0.30427 0.28281 0.01246 0.0
H1272 H 0.2963 0.254 0.9573 0.0
H1273 H 0.29231 0.25673 0.98783 0.0
H1274 H 0.2562 0.29829 0.97955 0.0
H1275 H 0.2596 0.29498 0.94899 0.0
C1276 C 0.24058 0.26927 0.02775 0.0
C1277 C 0.25772 0.27047 0.03958 0.0
C1278 C 0.2461 0.27236 0.01045 0.0
C1279 C 0.26893 0.27683 0.00462 0.0
C1280 C 0.2864 0.279 0.01653 0.0
C1281 C 0.28085 0.27582 0.03383 0.0
C1282 C 0.28779 0.26399 0.96199 0.0
C1283 C 0.27802 0.27402 0.95073 0.0
C1284 C 0.28562 0.26568 0.97951 0.0
C1285 C 0.27375 0.27756 0.98613 0.0
C1286 C 0.26504 0.28863 0.97485 0.0
C1287 C 0.26711 0.28683 0.95734 0.0
H1288 H 0.75675 0.01329 0.94544 0.0
H1289 H 0.82487 0.08072 0.95094 0.0
H1290 H 0.74913 0.01349 0.97576 0.0
H1291 H 0.81741 0.08066 0.98127 0.0
H1292 H 0.78885 0.08333 0.03328 0.0
H1293 H 0.7909 0.08434 0.00233 0.0
H1294 H 0.76695 0.00756 0.00162 0.0
H1295 H 0.76451 0.00643 0.03246 0.0
C1296 C 0.77004 0.02821 0.95309 0.0
C1297 C 0.79149 0.04691 0.9458 0.0
C1298 C 0.76571 0.02827 0.97046 0.0
C1299 C 0.78271 0.04704 0.9809 0.0
C1300 C 0.80382 0.06609 0.97353 0.0
C1301 C 0.80817 0.06603 0.95616 0.0
C1302 C 0.78373 0.06661 0.02651 0.0
C1303 C 0.77667 0.04483 0.03532 0.0
C1304 C 0.78504 0.06723 0.00879 0.0
C1305 C 0.77922 0.04607 -0.00045 0.0
C1306 C 0.77131 0.02412 0.00836 0.0
C1307 C 0.77006 0.02351 0.02605 0.0
H1308 H 0.63919 0.58581 0.29052 0.0
H1309 H 0.71189 0.64414 0.27934 0.0
H1310 H 0.64717 0.59374 0.32073 0.0
H1311 H 0.71964 0.65254 0.30958 0.0
H1312 H 0.73406 0.63176 0.36311 0.0
H1313 H 0.72631 0.63205 0.33289 0.0
H1314 H 0.65486 0.62129 0.34394 0.0
H1315 H 0.66236 0.6203 0.37418 0.0
C1316 C 0.65671 0.60064 0.2945 0.0
C1317 C 0.675 0.61414 0.28256 0.0
C1318 C 0.66125 0.6053 0.31183 0.0
C1319 C 0.68413 0.62367 0.31758 0.0
C1320 C 0.70199 0.63798 0.30557 0.0
C1321 C 0.69749 0.63323 0.28825 0.0
C1322 C 0.71684 0.6298 0.35911 0.0
C1323 C 0.69872 0.62569 0.37102 0.0
C1324 C 0.71243 0.63011 0.34177 0.0
C1325 C 0.68987 0.62648 0.33599 0.0
C1326 C 0.67225 0.62368 0.34797 0.0
C1327 C 0.6766 0.62323 0.3653 0.0
H1328 H 0.42648 0.14268 0.36717 0.0
H1329 H 0.43607 0.0815 0.37886 0.0
H1330 H 0.4223 0.13205 0.33726 0.0
H1331 H 0.43086 0.07018 0.34896 0.0
H1332 H 0.45808 0.08194 0.29351 0.0
H1333 H 0.45434 0.08523 0.32395 0.0
H1334 H 0.39889 0.1047 0.31542 0.0
H1335 H 0.40343 0.10238 0.28487 0.0
C1336 C 0.42721 0.12666 0.36339 0.0
C1337 C 0.43189 0.1131 0.37534 0.0
C1338 C 0.42463 0.12043 0.34622 0.0
C1339 C 0.42638 0.10031 0.34064 0.0
C1340 C 0.42989 0.08607 0.35275 0.0
C1341 C 0.43276 0.09248 0.3699 0.0
C1342 C 0.44484 0.08659 0.29813 0.0
C1343 C 0.43127 0.09219 0.2868 0.0
C1344 C 0.44257 0.08834 0.31563 0.0
C1345 C 0.42645 0.09546 0.32218 0.0
C1346 C 0.41186 0.0997 0.31081 0.0
C1347 C 0.41435 0.09822 0.29331 0.0
H1348 H 0.8935 0.3135 0.35963 0.0
H1349 H 0.96674 0.36958 0.37213 0.0
H1350 H 0.90321 0.32075 0.32956 0.0
H1351 H 0.97652 0.3766 0.34195 0.0
H1352 H 0.96819 0.40339 0.28815 0.0
H1353 H 0.9643 0.39413 0.31844 0.0
H1354 H 0.92807 0.31734 0.30703 0.0
H1355 H 0.93159 0.32649 0.27681 0.0
C1356 C 0.91177 0.32715 0.35597 0.0
C1357 C 0.92928 0.34107 0.36826 0.0
C1358 C 0.91739 0.3312 0.33873 0.0
C1359 C 0.94063 0.34929 0.3334 0.0
C1360 C 0.95839 0.36272 0.34569 0.0
C1361 C 0.9528 0.35859 0.36296 0.0
C1362 C 0.9597 0.38455 0.2921 0.0
C1363 C 0.94993 0.36568 0.28008 0.0
C1364 C 0.95759 0.37925 0.30945 0.0
C1365 C 0.94566 0.35499 0.31509 0.0
C1366 C 0.93698 0.33619 0.30305 0.0
C1367 C 0.93911 0.34147 0.28574 0.0
H1368 H 0.66235 0.07109 0.36822 0.0
H1369 H 0.73005 0.13586 0.35559 0.0
H1370 H 0.65404 0.0617 0.33805 0.0
H1371 H 0.7215 0.12682 0.3256 0.0
H1372 H 0.70947 0.09952 0.27287 0.0
H1373 H 0.7176 0.0995 0.30307 0.0
H1374 H 0.64298 0.07867 0.31424 0.0
H1375 H 0.63467 0.07801 0.28396 0.0
C1376 C 0.67554 0.08321 0.35902 0.0
C1377 C 0.69679 0.10432 0.36429 0.0
C1378 C 0.67071 0.07789 0.34175 0.0
C1379 C 0.68706 0.09353 0.32942 0.0
C1380 C 0.70868 0.11417 0.33475 0.0
C1381 C 0.7135 0.11948 0.35197 0.0
C1382 C 0.69469 0.09453 0.28176 0.0
C1383 C 0.6715 0.08907 0.27606 0.0
C1384 C 0.69938 0.09464 0.29906 0.0
C1385 C 0.68106 0.08948 0.31107 0.0
C1386 C 0.65747 0.08258 0.30532 0.0
C1387 C 0.65272 0.0823 0.28796 0.0
H1388 H 0.94381 0.65046 0.36916 0.0
H1389 H 0.94481 0.58288 0.36962 0.0
H1390 H 0.95312 0.65482 0.33881 0.0
H1391 H 0.95374 0.58709 0.33942 0.0
H1392 H 0.98148 0.60513 0.28643 0.0
H1393 H 0.9834 0.6108 0.31718 0.0
H1394 H 0.9288 0.63231 0.31391 0.0
H1395 H 0.92712 0.62703 0.28329 0.0
C1396 C 0.9463 0.63671 0.36285 0.0
C1397 C 0.94329 0.61619 0.37173 0.0
C1398 C 0.95156 0.63918 0.34548 0.0
C1399 C 0.95406 0.62125 0.33673 0.0
C1400 C 0.95221 0.60136 0.34582 0.0
C1401 C 0.94685 0.59884 0.36312 0.0
C1402 C 0.97022 0.61149 0.29225 0.0
C1403 C 0.9539 0.6153 0.28247 0.0
C1404 C 0.97126 0.61465 0.30985 0.0
C1405 C 0.95609 0.62179 0.31797 0.0
C1406 C 0.94087 0.627 0.30804 0.0
C1407 C 0.93977 0.62377 0.29048 0.0
H1408 H 0.4135 0.29774 0.36791 0.0
H1409 H 0.43447 0.37383 0.36925 0.0
H1410 H 0.41591 0.29943 0.33698 0.0
H1411 H 0.43701 0.37547 0.33836 0.0
H1412 H 0.42364 0.36495 0.28109 0.0
H1413 H 0.41326 0.35975 0.3113 0.0
H1414 H 0.45188 0.32034 0.31773 0.0
H1415 H 0.46215 0.32538 0.28769 0.0
C1416 C 0.41825 0.31472 0.36162 0.0
C1417 C 0.42406 0.33572 0.37104 0.0
C1418 C 0.41975 0.3157 0.34392 0.0
C1419 C 0.42689 0.33764 0.33531 0.0
C1420 C 0.43133 0.35828 0.34466 0.0
C1421 C 0.42999 0.35735 0.36236 0.0
C1422 C 0.42979 0.35507 0.28896 0.0
C1423 C 0.44382 0.34568 0.28204 0.0
C1424 C 0.42388 0.35214 0.30622 0.0
C1425 C 0.43167 0.33955 0.31682 0.0
C1426 C 0.44532 0.32982 0.30982 0.0
C1427 C 0.45139 0.33291 0.29263 0.0
H1428 H 0.35629 0.96554 0.70482 0.0
H1429 H 0.37937 0.91266 0.69726 0.0
H1430 H 0.34482 0.96206 0.67479 0.0
H1431 H 0.3676 0.90904 0.66747 0.0
H1432 H 0.3136 0.88609 0.62323 0.0
H1433 H 0.32479 0.8925 0.65319 0.0
H1434 H 0.36688 0.96995 0.64472 0.0
H1435 H 0.35597 0.96363 0.61457 0.0
C1436 C 0.35908 0.95335 0.69674 0.0
C1437 C 0.36866 0.93932 0.70339 0.0
C1438 C 0.35255 0.9514 0.6796 0.0
C1439 C 0.35511 0.93509 0.66897 0.0
C1440 C 0.36519 0.92152 0.67552 0.0
C1441 C 0.37208 0.92374 0.69253 0.0
C1442 C 0.32498 0.90453 0.62776 0.0
C1443 C 0.33403 0.92436 0.61653 0.0
C1444 C 0.33149 0.90815 0.64487 0.0
C1445 C 0.34685 0.93168 0.65114 0.0
C1446 C 0.355 0.95164 0.64014 0.0
C1447 C 0.34879 0.948 0.62292 0.0
H1448 H 0.09721 0.41268 0.70905 0.0
H1449 H 0.0814 0.46992 0.69758 0.0
H1450 H 0.09599 0.40368 0.67887 0.0
H1451 H 0.08109 0.4616 0.66745 0.0
H1452 H 0.07128 0.4363 0.61392 0.0
H1453 H 0.06231 0.43498 0.6441 0.0
H1454 H 0.12235 0.42328 0.65552 0.0
H1455 H 0.13067 0.42368 0.62538 0.0
C1456 C 0.09328 0.42321 0.70008 0.0
C1457 C 0.08966 0.44219 0.70566 0.0
C1458 C 0.09271 0.41815 0.68279 0.0
C1459 C 0.08875 0.4321 0.6707 0.0
C1460 C 0.08392 0.45028 0.67638 0.0
C1461 C 0.08425 0.45517 0.69368 0.0
C1462 C 0.08231 0.43308 0.62288 0.0
C1463 C 0.10184 0.43035 0.61729 0.0
C1464 C 0.07726 0.43245 0.64019 0.0
C1465 C 0.09176 0.42929 0.65227 0.0
C1466 C 0.11059 0.42545 0.64659 0.0
C1467 C 0.11549 0.42584 0.62928 0.0
H1468 H 0.62629 0.70232 0.70401 0.0
H1469 H 0.57058 0.62646 0.70193 0.0
H1470 H 0.62416 0.70514 0.67325 0.0
H1471 H 0.5686 0.62935 0.67114 0.0
H1472 H 0.54691 0.6577 0.6236 0.0
H1473 H 0.55314 0.6516 0.65329 0.0
H1474 H 0.63091 0.68986 0.64539 0.0
H1475 H 0.62474 0.69609 0.61556 0.0
C1476 C 0.61389 0.68615 0.69697 0.0
C1477 C 0.59841 0.66423 0.70541 0.0
C1478 C 0.61277 0.68775 0.67935 0.0
C1479 C 0.59604 0.66752 0.66987 0.0
C1480 C 0.58143 0.6453 0.6782 0.0
C1481 C 0.58268 0.64363 0.69581 0.0
C1482 C 0.56535 0.66477 0.62815 0.0
C1483 C 0.58534 0.67749 0.61727 0.0
C1484 C 0.56889 0.66107 0.64512 0.0
C1485 C 0.5925 0.67015 0.65159 0.0
C1486 C 0.61253 0.68275 0.64071 0.0
C1487 C 0.60898 0.68627 0.62366 0.0
H1488 H 0.32276 0.4141 0.70958 0.0
H1489 H 0.39834 0.46246 0.69701 0.0
H1490 H 0.31317 0.40551 0.67954 0.0
H1491 H 0.38865 0.45435 0.66697 0.0
H1492 H 0.36768 0.42577 0.61407 0.0
H1493 H 0.37534 0.42474 0.64429 0.0
H1494 H 0.31074 0.42847 0.65593 0.0
H1495 H 0.30274 0.42889 0.62577 0.0
C1496 C 0.33737 0.42276 0.70042 0.0
C1497 C 0.36128 0.43916 0.70566 0.0
C1498 C 0.33184 0.41791 0.6832 0.0
C1499 C 0.35008 0.42941 0.67085 0.0
C1500 C 0.37419 0.44497 0.67616 0.0
C1501 C 0.37974 0.44975 0.69339 0.0
C1502 C 0.35489 0.42598 0.62308 0.0
C1503 C 0.3347 0.42764 0.61752 0.0
C1504 C 0.35938 0.42553 0.6404 0.0
C1505 C 0.34379 0.42676 0.65252 0.0
C1506 C 0.32298 0.42725 0.64694 0.0
C1507 C 0.31846 0.42764 0.62963 0.0
H1508 H 0.62689 0.93947 0.70611 0.0
H1509 H 0.55695 0.93386 0.69755 0.0
H1510 H 0.63443 0.94311 0.67558 0.0
H1511 H 0.56425 0.93694 0.66712 0.0
H1512 H 0.58945 0.95916 0.61381 0.0
H1513 H 0.58881 0.96372 0.64446 0.0
H1514 H 0.61841 0.91602 0.65126 0.0
H1515 H 0.61961 0.91191 0.62058 0.0
C1516 C 0.61319 0.93917 0.69773 0.0
C1517 C 0.59125 0.93623 0.70424 0.0
C1518 C 0.61748 0.94114 0.68025 0.0
C1519 C 0.59991 0.94022 0.66892 0.0
C1520 C 0.57831 0.93804 0.6755 0.0
C1521 C 0.57404 0.9361 0.69296 0.0
C1522 C 0.59613 0.94989 0.62183 0.0
C1523 C 0.60435 0.93496 0.61477 0.0
C1524 C 0.59564 0.95242 0.6394 0.0
C1525 C 0.60328 0.94001 0.6503 0.0
C1526 C 0.61258 0.92599 0.64321 0.0
C1527 C 0.61315 0.92353 0.62562 0.0
H1528 H 0.08079 0.65277 0.6956 0.0
H1529 H 0.12009 0.73053 0.70364 0.0
H1530 H 0.08128 0.65933 0.66508 0.0
H1531 H 0.12002 0.73706 0.67319 0.0
H1532 H 0.14699 0.73644 0.61886 0.0
H1533 H 0.1411 0.73201 0.64941 0.0
H1534 H 0.06695 0.67426 0.6419 0.0
H1535 H 0.07302 0.67831 0.61122 0.0
C1536 C 0.08916 0.67125 0.69088 0.0
C1537 C 0.10066 0.69112 0.70201 0.0
C1538 C 0.08931 0.67502 0.67339 0.0
C1539 C 0.10088 0.69873 0.66671 0.0
C1540 C 0.11136 0.71858 0.67793 0.0
C1541 C 0.11129 0.71482 0.69538 0.0
C1542 C 0.12934 0.72297 0.6237 0.0
C1543 C 0.11055 0.7076 0.61262 0.0
C1544 C 0.12591 0.72053 0.64123 0.0
C1545 C 0.10357 0.70272 0.64809 0.0
C1546 C 0.08447 0.68793 0.637 0.0
C1547 C 0.08792 0.69034 0.61943 0.0
H1548 H 0.82437 0.1179 0.11414 0.0
H1549 H 0.85815 0.08297 0.08749 0.0
H1550 H 0.86332 0.15572 0.11495 0.0
H1551 H 0.8969 0.12089 0.08794 0.0
H1552 H 0.96766 0.18785 0.10263 0.0
H1553 H 0.92952 0.14961 0.10607 0.0
H1554 H 0.88934 0.18629 0.09458 0.0
H1555 H 0.92736 0.22455 0.09153 0.0
C1556 C 0.84011 0.11826 0.10852 0.0
C1557 C 0.83813 0.09748 0.10066 0.0
C1558 C 0.8624 0.13996 0.1089 0.0
C1559 C 0.88318 0.14136 0.10141 0.0
C1560 C 0.88132 0.12036 0.094 0.0
C1561 C 0.85905 0.09865 0.09365 0.0
C1562 C 0.95067 0.18778 0.10095 0.0
C1563 C 0.95053 0.20921 0.09672 0.0
C1564 C 0.92883 0.16584 0.10285 0.0
C1565 C 0.90639 0.16488 0.10055 0.0
C1566 C 0.90629 0.18645 0.09667 0.0
C1567 C 0.92811 0.20837 0.0948 0.0
H1568 H 0.94986 0.77415 0.1023 0.0
H1569 H 0.98636 0.83904 0.07149 0.0
H1570 H 0.91294 0.77679 0.10179 0.0
H1571 H 0.94958 0.84214 0.07144 0.0
H1572 H 0.87106 0.81934 0.05586 0.0
H1573 H 0.91007 0.82105 0.05867 0.0
H1574 H 0.89387 0.79899 0.1112 0.0
H1575 H 0.85446 0.79651 0.1082 0.0
C1576 C 0.95013 0.78922 0.09564 0.0
C1577 C 0.97098 0.80628 0.08681 0.0
C1578 C 0.92897 0.79082 0.09544 0.0
C1579 C 0.92823 0.80962 0.0865 0.0
C1580 C 0.94939 0.82719 0.07819 0.0
C1581 C 0.97052 0.82549 0.0783 0.0
C1582 C 0.87589 0.81501 0.06804 0.0
C1583 C 0.8596 0.8076 0.08176 0.0
C1584 C 0.89835 0.81616 0.0697 0.0
C1585 C 0.90511 0.8101 0.08516 0.0
C1586 C 0.88907 0.80338 0.09903 0.0
C1587 C 0.86653 0.80207 0.09733 0.0
H1588 H 0.21515 0.05478 0.06555 0.0
H1589 H 0.27479 0.08635 0.10131 0.0
H1590 H 0.21287 0.09194 0.06615 0.0
H1591 H 0.273 0.12377 0.10153 0.0
H1592 H 0.25067 0.18081 0.10895 0.0
H1593 H 0.24911 0.14168 0.11022 0.0
H1594 H 0.23622 0.13296 0.05611 0.0
H1595 H 0.23707 0.17164 0.05493 0.0
C1596 C 0.22778 0.06965 0.07354 0.0
C1597 C 0.24522 0.06766 0.08332 0.0
C1598 C 0.22656 0.09101 0.07381 0.0
C1599 C 0.24285 0.11091 0.0838 0.0
C1600 C 0.25998 0.10871 0.09385 0.0
C1601 C 0.2611 0.08729 0.09364 0.0
C1602 C 0.24737 0.17046 0.09735 0.0
C1603 C 0.24403 0.17935 0.08183 0.0
C1604 C 0.24661 0.14809 0.09806 0.0
C1605 C 0.24259 0.13418 0.08327 0.0
C1606 C 0.23898 0.143 0.0678 0.0
C1607 C 0.23962 0.16528 0.0671 0.0
H1608 H 0.17399 0.9699 0.9285 0.0
H1609 H 0.18799 0.96127 0.87601 0.0
H1610 H 0.13453 0.933 0.92674 0.0
H1611 H 0.14809 0.92471 0.87406 0.0
H1612 H 0.09114 0.84481 0.88443 0.0
H1613 H 0.12868 0.8838 0.88419 0.0
H1614 H 0.09453 0.91479 0.91489 0.0
H1615 H 0.05713 0.87545 0.91559 0.0
C1616 C 0.1685 0.9603 0.9165 0.0
C1617 C 0.18419 0.9684 0.90243 0.0
C1618 C 0.14577 0.93921 0.91546 0.0
C1619 C 0.13813 0.92581 0.90027 0.0
C1620 C 0.15357 0.93435 0.88604 0.0
C1621 C 0.17639 0.95537 0.88713 0.0
C1622 C 0.09157 0.85997 0.89104 0.0
C1623 C 0.07121 0.85699 0.90014 0.0
C1624 C 0.11307 0.88241 0.89081 0.0
C1625 C 0.11468 0.90245 0.89956 0.0
C1626 C 0.09405 0.89963 0.90825 0.0
C1627 C 0.07257 0.87711 0.90858 0.0
H1628 H 0.19284 0.25936 0.87367 0.0
H1629 H 0.16839 0.22306 0.92207 0.0
H1630 H 0.15322 0.25595 0.86922 0.0
H1631 H 0.12915 0.22035 0.91791 0.0
H1632 H 0.09401 0.27628 0.88019 0.0
H1633 H 0.13131 0.27433 0.88054 0.0
H1634 H 0.09211 0.20203 0.90198 0.0
H1635 H 0.0549 0.20434 0.90215 0.0
C1636 C 0.17899 0.2506 0.88334 0.0
C1637 C 0.18379 0.24163 0.89828 0.0
C1638 C 0.15632 0.24874 0.88082 0.0
C1639 C 0.13803 0.238 0.89324 0.0
C1640 C 0.14267 0.22842 0.90796 0.0
C1641 C 0.16526 0.23013 0.91041 0.0
C1642 C 0.09327 0.25985 0.8848 0.0
C1643 C 0.07157 0.24057 0.89132 0.0
C1644 C 0.11466 0.25867 0.88491 0.0
C1645 C 0.11477 0.23809 0.89142 0.0
C1646 C 0.09276 0.21834 0.89719 0.0
C1647 C 0.07141 0.2196 0.8972 0.0
H1648 H 0.83761 0.87292 0.91272 0.0
H1649 H 0.77194 0.84497 0.88276 0.0
H1650 H 0.84139 0.91306 0.9127 0.0
H1651 H 0.77534 0.88487 0.88313 0.0
H1652 H 0.79741 0.96351 0.87544 0.0
H1653 H 0.79875 0.92597 0.87298 0.0
H1654 H 0.82096 0.93244 0.9255 0.0
H1655 H 0.82027 0.97033 0.92783 0.0
C1656 C 0.82401 0.87535 0.90609 0.0
C1657 C 0.80441 0.85573 0.89781 0.0
C1658 C 0.82611 0.89833 0.90616 0.0
C1659 C 0.80861 0.90217 0.898 0.0
C1660 C 0.78933 0.88265 0.88936 0.0
C1661 C 0.78729 0.85971 0.88923 0.0
C1662 C 0.80277 0.95702 0.88643 0.0
C1663 C 0.80859 0.96982 0.90187 0.0
C1664 C 0.80341 0.93543 0.88504 0.0
C1665 C 0.80978 0.92609 0.89907 0.0
C1666 C 0.81624 0.93926 0.91438 0.0
C1667 C 0.81571 0.96092 0.91575 0.0
H1668 H 0.51472 0.42282 0.44067 0.0
H1669 H 0.52841 0.41544 0.38788 0.0
H1670 H 0.55391 0.46025 0.44248 0.0
H1671 H 0.56714 0.45322 0.38951 0.0
H1672 H 0.64455 0.51076 0.40092 0.0
H1673 H 0.60715 0.47149 0.4011 0.0
H1674 H 0.57305 0.5014 0.43291 0.0
H1675 H 0.61071 0.54039 0.4332 0.0
C1676 C 0.52607 0.42923 0.42944 0.0
C1677 C 0.51845 0.41621 0.41412 0.0
C1678 C 0.54848 0.45075 0.43045 0.0
C1679 C 0.56368 0.45982 0.41613 0.0
C1680 C 0.55611 0.4466 0.40087 0.0
C1681 C 0.5338 0.425 0.39989 0.0
C1682 C 0.62911 0.50889 0.40803 0.0
C1683 C 0.63055 0.5287 0.41699 0.0
C1684 C 0.60761 0.48642 0.40806 0.0
C1685 C 0.58701 0.48329 0.41693 0.0
C1686 C 0.58864 0.50303 0.42613 0.0
C1687 C 0.6102 0.52545 0.42622 0.0
H1688 H 0.62092 0.10769 0.432 0.0
H1689 H 0.65692 0.17311 0.40169 0.0
H1690 H 0.58499 0.11187 0.43383 0.0
H1691 H 0.62112 0.17778 0.40401 0.0
H1692 H 0.54184 0.1578 0.39263 0.0
H1693 H 0.58054 0.15856 0.39308 0.0
H1694 H 0.5681 0.1348 0.4454 0.0
H1695 H 0.52894 0.13324 0.44475 0.0
C1696 C 0.62131 0.12319 0.42593 0.0
C1697 C 0.64173 0.13997 0.41659 0.0
C1698 C 0.60072 0.12569 0.42708 0.0
C1699 C 0.6001 0.14514 0.41904 0.0
C1700 C 0.62083 0.16236 0.41013 0.0
C1701 C 0.64141 0.15977 0.40888 0.0
C1702 C 0.54744 0.15293 0.40428 0.0
C1703 C 0.53221 0.14523 0.4186 0.0
C1704 C 0.56975 0.15352 0.40457 0.0
C1705 C 0.57742 0.14661 0.41925 0.0
C1706 C 0.56256 0.1398 0.43378 0.0
C1707 C 0.54016 0.13902 0.43344 0.0
H1708 H 0.93676 0.4239 0.4307 0.0
H1709 H 0.86348 0.38129 0.41131 0.0
H1710 H 0.93261 0.45995 0.4307 0.0
H1711 H 0.85914 0.41736 0.41169 0.0
H1712 H 0.87527 0.49345 0.39334 0.0
H1713 H 0.87528 0.45523 0.39594 0.0
H1714 H 0.91173 0.47846 0.4444 0.0
H1715 H 0.91225 0.51693 0.44162 0.0
C1716 C 0.91966 0.42216 0.42661 0.0
C1717 C 0.9005 0.39976 0.42091 0.0
C1718 C 0.91721 0.44281 0.42673 0.0
C1719 C 0.89553 0.44152 0.42119 0.0
C1720 C 0.87617 0.419 0.41583 0.0
C1721 C 0.87863 0.39832 0.41569 0.0
C1722 C 0.88308 0.49032 0.40462 0.0
C1723 C 0.89398 0.50832 0.41719 0.0
C1724 C 0.88296 0.46834 0.40616 0.0
C1725 C 0.89366 0.46388 0.42032 0.0
C1726 C 0.90372 0.48153 0.43319 0.0
C1727 C 0.9039 0.50352 0.43164 0.0
H1728 H 0.75044 0.19558 0.26139 0.0
H1729 H 0.74861 0.18834 0.20676 0.0
H1730 H 0.78681 0.23531 0.25922 0.0
H1731 H 0.7849 0.22855 0.20457 0.0
H1732 H 0.86667 0.28681 0.21129 0.0
H1733 H 0.82825 0.24839 0.21126 0.0
H1734 H 0.80018 0.27633 0.24973 0.0
H1735 H 0.83873 0.31449 0.25006 0.0
C1736 C 0.7577 0.20254 0.24889 0.0
C1737 C 0.74665 0.18876 0.23424 0.0
C1738 C 0.77847 0.22544 0.24764 0.0
C1739 C 0.78868 0.23517 0.23171 0.0
C1740 C 0.77758 0.22146 0.21703 0.0
C1741 C 0.75675 0.19848 0.21828 0.0
C1742 C 0.85221 0.28483 0.21963 0.0
C1743 C 0.85583 0.3036 0.23081 0.0
C1744 C 0.83015 0.26285 0.21954 0.0
C1745 C 0.81125 0.25923 0.23061 0.0
C1746 C 0.81456 0.27838 0.24129 0.0
C1747 C 0.83661 0.30031 0.24141 0.0
H1748 H 0.83765 0.56434 0.26483 0.0
H1749 H 0.85308 0.5867 0.21234 0.0
H1750 H 0.79901 0.56353 0.26266 0.0
H1751 H 0.81402 0.58512 0.20999 0.0
H1752 H 0.75954 0.61153 0.21964 0.0
H1753 H 0.79609 0.6082 0.21982 0.0
H1754 H 0.75913 0.5432 0.2505 0.0
H1755 H 0.72277 0.547 0.25077 0.0
C1756 C 0.83263 0.56873 0.25275 0.0
C1757 C 0.84851 0.57577 0.2388 0.0
C1758 C 0.81038 0.56812 0.25147 0.0
C1759 C 0.80343 0.57436 0.23616 0.0
C1760 C 0.819 0.58063 0.22205 0.0
C1761 C 0.84133 0.58141 0.22337 0.0
C1762 C 0.75915 0.59643 0.22633 0.0
C1763 C 0.73832 0.57963 0.2353 0.0
C1764 C 0.78008 0.59442 0.22634 0.0
C1765 C 0.7806 0.57546 0.23522 0.0
C1766 C 0.75949 0.55825 0.24377 0.0
C1767 C 0.7386 0.56036 0.24386 0.0
H1768 H 0.4813 0.31091 0.22257 0.0
H1769 H 0.40333 0.26286 0.22225 0.0
H1770 H 0.48718 0.27577 0.22343 0.0
H1771 H 0.40924 0.22784 0.22336 0.0
H1772 H 0.42775 0.16912 0.21243 0.0
H1773 H 0.42462 0.20529 0.20717 0.0
H1774 H 0.48027 0.2446 0.2448 0.0
H1775 H 0.48369 0.20856 0.24991 0.0
C1776 C 0.46542 0.29287 0.22253 0.0
C1777 C 0.44183 0.28966 0.22244 0.0
C1778 C 0.4688 0.27276 0.22313 0.0
C1779 C 0.44868 0.24906 0.22356 0.0
C1780 C 0.42512 0.24587 0.22287 0.0
C1781 C 0.42173 0.26595 0.22233 0.0
C1782 C 0.43947 0.18553 0.21948 0.0
C1783 C 0.45585 0.18592 0.23168 0.0
C1784 C 0.43759 0.20621 0.21651 0.0
C1785 C 0.4521 0.22774 0.22563 0.0
C1786 C 0.46901 0.22836 0.23744 0.0
C1787 C 0.47086 0.20765 0.24045 0.0
H1788 H 0.32912 0.84345 0.74859 0.0
H1789 H 0.29101 0.87909 0.76759 0.0
H1790 H 0.29111 0.80466 0.74858 0.0
H1791 H 0.25298 0.84048 0.76716 0.0
H1792 H 0.19068 0.76444 0.77603 0.0
H1793 H 0.2305 0.8006 0.77987 0.0
H1794 H 0.25414 0.78633 0.73195 0.0
H1795 H 0.21461 0.74991 0.72833 0.0
C1796 C 0.31266 0.843 0.75284 0.0
C1797 C 0.31305 0.86437 0.75798 0.0
C1798 C 0.29086 0.82079 0.75275 0.0
C1799 C 0.26898 0.8195 0.75774 0.0
C1800 C 0.26954 0.84077 0.76341 0.0
C1801 C 0.29134 0.86295 0.76356 0.0
C1802 C 0.20445 0.76893 0.76638 0.0
C1803 C 0.19945 0.7544 0.75182 0.0
C1804 C 0.22723 0.7897 0.76855 0.0
C1805 C 0.24546 0.79642 0.75618 0.0
C1806 C 0.24062 0.78152 0.74183 0.0
C1807 C 0.21789 0.76071 0.73969 0.0
H1808 H 0.30716 0.49404 0.72891 0.0
H1809 H 0.29231 0.46086 0.77864 0.0
H1810 H 0.27057 0.4972 0.73077 0.0
H1811 H 0.25606 0.4647 0.78073 0.0
H1812 H 0.17765 0.44474 0.76741 0.0
H1813 H 0.2164 0.44567 0.76804 0.0
H1814 H 0.25137 0.51686 0.74475 0.0
H1815 H 0.21235 0.51561 0.74366 0.0
C1816 C 0.29628 0.48775 0.74035 0.0
C1817 C 0.30251 0.477 0.75356 0.0
C1818 C 0.27536 0.4897 0.74147 0.0
C1819 C 0.26029 0.48109 0.75587 0.0
C1820 C 0.26703 0.47111 0.76934 0.0
C1821 C 0.28787 0.46903 0.76817 0.0
C1822 C 0.19362 0.46068 0.76252 0.0
C1823 C 0.19189 0.48003 0.75537 0.0
C1824 C 0.21591 0.46129 0.76299 0.0
C1825 C 0.23701 0.48133 0.75642 0.0
C1826 C 0.23539 0.50099 0.74969 0.0
C1827 C 0.21305 0.50033 0.74914 0.0
H1828 H 0.54258 0.72039 0.73822 0.0
H1829 H 0.60864 0.75751 0.76783 0.0
H1830 H 0.539 0.75685 0.73864 0.0
H1831 H 0.60547 0.79415 0.76781 0.0
H1832 H 0.58396 0.85102 0.77632 0.0
H1833 H 0.58259 0.81206 0.77841 0.0
H1834 H 0.55903 0.79662 0.72613 0.0
H1835 H 0.55969 0.8352 0.72421 0.0
C1836 C 0.55634 0.73633 0.74482 0.0
C1837 C 0.57595 0.7361 0.75292 0.0
C1838 C 0.55435 0.75727 0.74499 0.0
C1839 C 0.572 0.77848 0.75319 0.0
C1840 C 0.59136 0.77805 0.76158 0.0
C1841 C 0.59327 0.75708 0.76149 0.0
C1842 C 0.57828 0.8392 0.76532 0.0
C1843 C 0.57206 0.84625 0.75007 0.0
C1844 C 0.57763 0.81693 0.76649 0.0
C1845 C 0.57087 0.80128 0.7524 0.0
C1846 C 0.56403 0.80808 0.73729 0.0
C1847 C 0.56454 0.83028 0.73616 0.0
H1848 H 0.51391 0.63502 0.55044 0.0
H1849 H 0.54729 0.59711 0.57359 0.0
H1850 H 0.47406 0.5981 0.55252 0.0
H1851 H 0.50758 0.56042 0.57563 0.0
H1852 H 0.43097 0.51329 0.59753 0.0
H1853 H 0.4703 0.54975 0.59319 0.0
H1854 H 0.45059 0.55438 0.54142 0.0
H1855 H 0.41101 0.51772 0.5457 0.0
C1856 C 0.51279 0.61877 0.5558 0.0
C1857 C 0.53372 0.61901 0.56195 0.0
C1858 C 0.49001 0.59766 0.55693 0.0
C1859 C 0.48776 0.57653 0.56438 0.0
C1860 C 0.50878 0.57658 0.57004 0.0
C1861 C 0.53153 0.59756 0.56877 0.0
C1862 C 0.43493 0.52207 0.58522 0.0
C1863 C 0.4179 0.51256 0.57194 0.0
C1864 C 0.45753 0.54286 0.58272 0.0
C1865 C 0.46354 0.55473 0.56693 0.0
C1866 C 0.44636 0.54558 0.55372 0.0
C1867 C 0.42378 0.52459 0.55617 0.0
H1868 H 0.40346 0.91905 0.54175 0.0
H1869 H 0.38925 0.88633 0.5916 0.0
H1870 H 0.44012 0.91594 0.5397 0.0
H1871 H 0.42635 0.88415 0.5899 0.0
H1872 H 0.48632 0.86824 0.57846 0.0
H1873 H 0.44673 0.86567 0.57702 0.0
H1874 H 0.47966 0.93529 0.5515 0.0
H1875 H 0.5189 0.9373 0.55233 0.0
C1876 C 0.40817 0.91117 0.55226 0.0
C1877 C 0.39357 0.90307 0.56688 0.0
C1878 C 0.42926 0.90951 0.55114 0.0
C1879 C 0.43636 0.89998 0.56469 0.0
C1880 C 0.42132 0.89127 0.57911 0.0
C1881 C 0.40009 0.89267 0.58014 0.0
C1882 C 0.48502 0.88287 0.57242 0.0
C1883 C 0.50573 0.90302 0.56558 0.0
C1884 C 0.46235 0.88148 0.57166 0.0
C1885 C 0.45997 0.90034 0.56423 0.0
C1886 C 0.48067 0.92023 0.55708 0.0
C1887 C 0.50325 0.92148 0.55766 0.0
H1888 H 0.09852 0.61881 0.55044 0.0
H1889 H 0.16309 0.65457 0.58165 0.0
H1890 H 0.10032 0.58147 0.55137 0.0
H1891 H 0.16536 0.61736 0.58214 0.0
H1892 H 0.14209 0.53874 0.59736 0.0
H1893 H 0.14385 0.57776 0.59471 0.0
H1894 H 0.12237 0.56219 0.54205 0.0
H1895 H 0.11985 0.52278 0.54487 0.0
C1896 C 0.11331 0.6188 0.55731 0.0
C1897 C 0.13058 0.63962 0.56607 0.0
C1898 C 0.11443 0.59741 0.55776 0.0
C1899 C 0.13295 0.59636 0.56687 0.0
C1900 C 0.15062 0.61741 0.57524 0.0
C1901 C 0.1494 0.63878 0.57488 0.0
C1902 C 0.13788 0.5437 0.58519 0.0
C1903 C 0.13066 0.52759 0.57137 0.0
C1904 C 0.13904 0.56617 0.58363 0.0
C1905 C 0.13318 0.57312 0.56818 0.0
C1906 C 0.12659 0.55724 0.55422 0.0
C1907 C 0.12527 0.5347 0.55581 0.0
loop_
_geom_bond_atom_site_label_1
_geom_bond_atom_site_label_2
_geom_bond_distance
_geom_bond_site_symmetry_2
_ccdc_geom_bond_type
C0 O1 1.160 . S
C0 O7 1.185 . S
O1 C0 1.160 . S
O2 Zn3 1.899 . S
O2 C10 1.284 . S
Zn3 O2 1.899 . S
Zn3 O4 2.032 . S
Zn3 O7 2.086 . S
Zn3 O12 1.977 . S
O4 Zn3 2.032 . S
O4 C8 1.278 1_455 S
C5 O6 1.203 . S
C5 O12 1.267 . S
O6 C5 1.203 . S
O7 C0 1.185 . S
O7 Zn3 2.086 . S
C8 O4 1.278 1_655 S
C8 O9 1.211 . S
O9 C8 1.211 . S
C10 O2 1.284 . S
C10 O11 1.273 . S
O11 C10 1.273 . S
O12 Zn3 1.977 . S
O12 C5 1.267 . S
C13 O14 1.160 . S
C13 O20 1.185 . S
O14 C13 1.160 . S
O15 Zn16 1.899 . S
O15 C23 1.284 . S
Zn16 O15 1.899 . S
Zn16 O17 2.032 . S
Zn16 O20 2.086 . S
Zn16 O25 1.977 . S
O17 Zn16 2.032 . S
O17 C21 1.278 . S
C18 O19 1.203 . S
C18 O25 1.267 . S
O19 C18 1.203 . S
O20 C13 1.185 . S
O20 Zn16 2.086 . S
C21 O17 1.278 . S
C21 O22 1.211 . S
O22 C21 1.211 . S
C23 O15 1.284 . S
C23 O24 1.273 . S
O24 C23 1.273 . S
O25 Zn16 1.977 . S
O25 C18 1.267 . S
C26 O27 1.160 . S
C26 O33 1.185 . S
O27 C26 1.160 . S
O28 Zn29 1.899 1_565 S
O28 C36 1.284 . S
Zn29 O28 1.899 1_545 S
Zn29 O30 2.032 . S
Zn29 O33 2.086 . S
Zn29 O38 1.977 . S
O30 Zn29 2.032 . S
O30 C34 1.278 . S
C31 O32 1.203 . S
C31 O38 1.267 . S
O32 C31 1.203 . S
O33 C26 1.185 . S
O33 Zn29 2.086 . S
C34 O30 1.278 . S
C34 O35 1.211 . S
O35 C34 1.211 . S
C36 O28 1.284 . S
C36 O37 1.273 1_565 S
O37 C36 1.273 1_545 S
O38 Zn29 1.977 . S
O38 C31 1.267 . S
C39 O40 1.160 . S
C39 O46 1.185 . S
O40 C39 1.160 . S
O41 Zn42 1.899 . S
O41 C49 1.284 . S
Zn42 O41 1.899 . S
Zn42 O43 2.032 . S
Zn42 O46 2.086 . S
Zn42 O51 1.977 . S
O43 Zn42 2.032 . S
O43 C47 1.278 1_545 S
C44 O45 1.203 . S
C44 O51 1.267 . S
O45 C44 1.203 . S
O46 C39 1.185 . S
O46 Zn42 2.086 . S
C47 O43 1.278 1_565 S
C47 O48 1.211 . S
O48 C47 1.211 . S
C49 O41 1.284 . S
C49 O50 1.273 . S
O50 C49 1.273 . S
O51 Zn42 1.977 . S
O51 C44 1.267 . S
C52 O53 1.160 . S
C52 O59 1.185 . S
O53 C52 1.160 . S
O54 Zn55 1.899 1_655 S
O54 C62 1.284 . S
Zn55 O54 1.899 1_455 S
Zn55 O56 2.032 . S
Zn55 O59 2.086 . S
Zn55 O64 1.977 . S
O56 Zn55 2.032 . S
O56 C60 1.278 . S
C57 O58 1.203 . S
C57 O64 1.267 . S
O58 C57 1.203 . S
O59 C52 1.185 . S
O59 Zn55 2.086 . S
C60 O56 1.278 . S
C60 O61 1.211 . S
O61 C60 1.211 . S
C62 O54 1.284 . S
C62 O63 1.273 1_655 S
O63 C62 1.273 1_455 S
O64 Zn55 1.977 . S
O64 C57 1.267 . S
C65 O66 1.160 . S
C65 O72 1.185 . S
O66 C65 1.160 . S
O67 Zn68 1.899 . S
O67 C75 1.284 . S
Zn68 O67 1.899 . S
Zn68 O69 2.032 . S
Zn68 O72 2.086 . S
Zn68 O77 1.977 . S
O69 Zn68 2.032 . S
O69 C73 1.278 . S
C70 O71 1.203 . S
C70 O77 1.267 . S
O71 C70 1.203 . S
O72 C65 1.185 . S
O72 Zn68 2.086 . S
C73 O69 1.278 . S
C73 O74 1.211 . S
O74 C73 1.211 . S
C75 O67 1.284 . S
C75 O76 1.273 . S
O76 C75 1.273 . S
O77 Zn68 1.977 . S
O77 C70 1.267 . S
C78 O79 1.160 . S
C78 O85 1.185 . S
O79 C78 1.160 . S
O80 Zn81 1.899 1_655 S
O80 C88 1.284 . S
Zn81 O80 1.899 1_455 S
Zn81 O82 2.032 . S
Zn81 O85 2.086 . S
Zn81 O90 1.977 . S
O82 Zn81 2.032 . S
O82 C86 1.278 . S
C83 O84 1.203 . S
C83 O90 1.267 . S
O84 C83 1.203 . S
O85 C78 1.185 . S
O85 Zn81 2.086 . S
C86 O82 1.278 . S
C86 O87 1.211 . S
O87 C86 1.211 . S
C88 O80 1.284 . S
C88 O89 1.273 1_655 S
O89 C88 1.273 1_455 S
O90 Zn81 1.977 . S
O90 C83 1.267 . S
C91 O92 1.160 . S
C91 O98 1.185 . S
O92 C91 1.160 . S
O93 Zn94 1.899 . S
O93 C101 1.284 . S
Zn94 O93 1.899 . S
Zn94 O95 2.032 . S
Zn94 O98 2.086 . S
Zn94 O103 1.977 . S
O95 Zn94 2.032 . S
O95 C99 1.278 . S
C96 O97 1.203 . S
C96 O103 1.267 . S
O97 C96 1.203 . S
O98 C91 1.185 . S
O98 Zn94 2.086 . S
C99 O95 1.278 . S
C99 O100 1.211 . S
O100 C99 1.211 . S
C101 O93 1.284 . S
C101 O102 1.273 . S
O102 C101 1.273 . S
O103 Zn94 1.977 . S
O103 C96 1.267 . S
C104 O105 1.160 . S
C104 O111 1.185 . S
O105 C104 1.160 . S
O106 Zn107 1.899 . S
O106 C114 1.284 . S
Zn107 O106 1.899 . S
Zn107 O108 2.032 . S
Zn107 O111 2.086 . S
Zn107 O116 1.977 . S
O108 Zn107 2.032 . S
O108 C112 1.278 1_545 S
C109 O110 1.203 . S
C109 O116 1.267 . S
O110 C109 1.203 . S
O111 C104 1.185 . S
O111 Zn107 2.086 . S
C112 O108 1.278 1_565 S
C112 O113 1.211 . S
O113 C112 1.211 . S
C114 O106 1.284 . S
C114 O115 1.273 . S
O115 C114 1.273 . S
O116 Zn107 1.977 . S
O116 C109 1.267 . S
C117 O118 1.160 . S
C117 O124 1.185 . S
O118 C117 1.160 . S
O119 Zn120 1.899 1_565 S
O119 C127 1.284 . S
Zn120 O119 1.899 1_545 S
Zn120 O121 2.032 . S
Zn120 O124 2.086 . S
Zn120 O129 1.977 . S
O121 Zn120 2.032 . S
O121 C125 1.278 . S
C122 O123 1.203 . S
C122 O129 1.267 . S
O123 C122 1.203 . S
O124 C117 1.185 . S
O124 Zn120 2.086 . S
C125 O121 1.278 . S
C125 O126 1.211 . S
O126 C125 1.211 . S
C127 O119 1.284 . S
C127 O128 1.273 1_565 S
O128 C127 1.273 1_545 S
O129 Zn120 1.977 . S
O129 C122 1.267 . S
C130 O131 1.160 . S
C130 O137 1.185 . S
O131 C130 1.160 . S
O132 Zn133 1.899 . S
O132 C140 1.284 . S
Zn133 O132 1.899 . S
Zn133 O134 2.032 . S
Zn133 O137 2.086 . S
Zn133 O142 1.977 . S
O134 Zn133 2.032 . S
O134 C138 1.278 1_455 S
C135 O136 1.203 . S
C135 O142 1.267 . S
O136 C135 1.203 . S
O137 C130 1.185 . S
O137 Zn133 2.086 . S
C138 O134 1.278 1_655 S
C138 O139 1.211 . S
O139 C138 1.211 . S
C140 O132 1.284 . S
C140 O141 1.273 . S
O141 C140 1.273 . S
O142 Zn133 1.977 . S
O142 C135 1.267 . S
C143 O144 1.160 . S
C143 O150 1.185 . S
O144 C143 1.160 . S
O145 Zn146 1.899 . S
O145 C153 1.284 . S
Zn146 O145 1.899 . S
Zn146 O147 2.032 . S
Zn146 O150 2.086 . S
Zn146 O155 1.977 . S
O147 Zn146 2.032 . S
O147 C151 1.278 . S
C148 O149 1.203 . S
C148 O155 1.267 . S
O149 C148 1.203 . S
O150 C143 1.185 . S
O150 Zn146 2.086 . S
C151 O147 1.278 . S
C151 O152 1.211 . S
O152 C151 1.211 . S
C153 O145 1.284 . S
C153 O154 1.273 . S
O154 C153 1.273 . S
O155 Zn146 1.977 . S
O155 C148 1.267 . S
C156 O157 1.160 . S
C156 O163 1.185 . S
O157 C156 1.160 . S
O158 Zn159 1.899 . S
O158 C166 1.284 . S
Zn159 O158 1.899 . S
Zn159 O160 2.032 . S
Zn159 O163 2.086 . S
Zn159 O168 1.977 . S
O160 Zn159 2.032 . S
O160 C164 1.278 . S
C161 O162 1.203 . S
C161 O168 1.267 . S
O162 C161 1.203 . S
O163 C156 1.185 . S
O163 Zn159 2.086 . S
C164 O160 1.278 . S
C164 O165 1.211 . S
O165 C164 1.211 . S
C166 O158 1.284 . S
C166 O167 1.273 . S
O167 C166 1.273 . S
O168 Zn159 1.977 . S
O168 C161 1.267 . S
C169 O170 1.160 . S
C169 O176 1.185 . S
O170 C169 1.160 . S
O171 Zn172 1.899 . S
O171 C179 1.284 . S
Zn172 O171 1.899 . S
Zn172 O173 2.032 . S
Zn172 O176 2.086 . S
Zn172 O181 1.977 . S
O173 Zn172 2.032 . S
O173 C177 1.278 . S
C174 O175 1.203 . S
C174 O181 1.267 . S
O175 C174 1.203 . S
O176 C169 1.185 . S
O176 Zn172 2.086 . S
C177 O173 1.278 . S
C177 O178 1.211 . S
O178 C177 1.211 . S
C179 O171 1.284 . S
C179 O180 1.273 . S
O180 C179 1.273 . S
O181 Zn172 1.977 . S
O181 C174 1.267 . S
C182 O183 1.160 . S
C182 O189 1.185 . S
O183 C182 1.160 . S
O184 Zn185 1.899 . S
O184 C192 1.284 . S
Zn185 O184 1.899 . S
Zn185 O186 2.032 . S
Zn185 O189 2.086 . S
Zn185 O194 1.977 . S
O186 Zn185 2.032 . S
O186 C190 1.278 . S
C187 O188 1.203 . S
C187 O194 1.267 . S
O188 C187 1.203 . S
O189 C182 1.185 . S
O189 Zn185 2.086 . S
C190 O186 1.278 . S
C190 O191 1.211 . S
O191 C190 1.211 . S
C192 O184 1.284 . S
C192 O193 1.273 . S
O193 C192 1.273 . S
O194 Zn185 1.977 . S
O194 C187 1.267 . S
C195 O196 1.160 . S
C195 O202 1.185 . S
O196 C195 1.160 . S
O197 Zn198 1.899 . S
O197 C205 1.284 . S
Zn198 O197 1.899 . S
Zn198 O199 2.032 . S
Zn198 O202 2.086 . S
Zn198 O207 1.977 . S
O199 Zn198 2.032 . S
O199 C203 1.278 . S
C200 O201 1.203 . S
C200 O207 1.267 . S
O201 C200 1.203 . S
O202 C195 1.185 . S
O202 Zn198 2.086 . S
C203 O199 1.278 . S
C203 O204 1.211 . S
O204 C203 1.211 . S
C205 O197 1.284 . S
C205 O206 1.273 . S
O206 C205 1.273 . S
O207 Zn198 1.977 . S
O207 C200 1.267 . S
C208 O209 1.160 . S
C208 O215 1.185 . S
O209 C208 1.160 . S
O210 Zn211 1.899 . S
O210 C218 1.284 . S
Zn211 O210 1.899 . S
Zn211 O212 2.032 . S
Zn211 O215 2.086 . S
Zn211 O220 1.977 . S
O212 Zn211 2.032 . S
O212 C216 1.278 . S
C213 O214 1.203 . S
C213 O220 1.267 . S
O214 C213 1.203 . S
O215 C208 1.185 . S
O215 Zn211 2.086 . S
C216 O212 1.278 . S
C216 O217 1.211 . S
O217 C216 1.211 . S
C218 O210 1.284 . S
C218 O219 1.273 . S
O219 C218 1.273 . S
O220 Zn211 1.977 . S
O220 C213 1.267 . S
C221 O222 1.160 . S
C221 O228 1.185 . S
O222 C221 1.160 . S
O223 Zn224 1.899 . S
O223 C231 1.284 . S
Zn224 O223 1.899 . S
Zn224 O225 2.032 . S
Zn224 O228 2.086 . S
Zn224 O233 1.977 . S
O225 Zn224 2.032 . S
O225 C229 1.278 . S
C226 O227 1.203 . S
C226 O233 1.267 . S
O227 C226 1.203 . S
O228 C221 1.185 . S
O228 Zn224 2.086 . S
C229 O225 1.278 . S
C229 O230 1.211 . S
O230 C229 1.211 . S
C231 O223 1.284 . S
C231 O232 1.273 . S
O232 C231 1.273 . S
O233 Zn224 1.977 . S
O233 C226 1.267 . S
C234 O235 1.160 . S
C234 O241 1.185 . S
O235 C234 1.160 . S
O236 Zn237 1.899 . S
O236 C244 1.284 . S
Zn237 O236 1.899 . S
Zn237 O238 2.032 . S
Zn237 O241 2.086 . S
Zn237 O246 1.977 . S
O238 Zn237 2.032 . S
O238 C242 1.278 . S
C239 O240 1.203 . S
C239 O246 1.267 . S
O240 C239 1.203 . S
O241 C234 1.185 . S
O241 Zn237 2.086 . S
C242 O238 1.278 . S
C242 O243 1.211 . S
O243 C242 1.211 . S
C244 O236 1.284 . S
C244 O245 1.273 . S
O245 C244 1.273 . S
O246 Zn237 1.977 . S
O246 C239 1.267 . S
C247 O248 1.160 . S
C247 O254 1.185 . S
O248 C247 1.160 . S
O249 Zn250 1.899 . S
O249 C257 1.284 . S
Zn250 O249 1.899 . S
Zn250 O251 2.032 . S
Zn250 O254 2.086 . S
Zn250 O259 1.977 . S
O251 Zn250 2.032 . S
O251 C255 1.278 . S
C252 O253 1.203 . S
C252 O259 1.267 . S
O253 C252 1.203 . S
O254 C247 1.185 . S
O254 Zn250 2.086 . S
C255 O251 1.278 . S
C255 O256 1.211 . S
O256 C255 1.211 . S
C257 O249 1.284 . S
C257 O258 1.273 . S
O258 C257 1.273 . S
O259 Zn250 1.977 . S
O259 C252 1.267 . S
C260 O261 1.160 . S
C260 O267 1.185 . S
O261 C260 1.160 . S
O262 Zn263 1.899 . S
O262 C270 1.284 . S
Zn263 O262 1.899 . S
Zn263 O264 2.032 . S
Zn263 O267 2.086 . S
Zn263 O272 1.977 . S
O264 Zn263 2.032 . S
O264 C268 1.278 . S
C265 O266 1.203 . S
C265 O272 1.267 . S
O266 C265 1.203 . S
O267 C260 1.185 . S
O267 Zn263 2.086 . S
C268 O264 1.278 . S
C268 O269 1.211 . S
O269 C268 1.211 . S
C270 O262 1.284 . S
C270 O271 1.273 . S
O271 C270 1.273 . S
O272 Zn263 1.977 . S
O272 C265 1.267 . S
C273 O274 1.160 . S
C273 O280 1.185 . S
O274 C273 1.160 . S
O275 Zn276 1.899 . S
O275 C283 1.284 . S
Zn276 O275 1.899 . S
Zn276 O277 2.032 . S
Zn276 O280 2.086 . S
Zn276 O285 1.977 . S
O277 Zn276 2.032 . S
O277 C281 1.278 . S
C278 O279 1.203 . S
C278 O285 1.267 . S
O279 C278 1.203 . S
O280 C273 1.185 . S
O280 Zn276 2.086 . S
C281 O277 1.278 . S
C281 O282 1.211 . S
O282 C281 1.211 . S
C283 O275 1.284 . S
C283 O284 1.273 . S
O284 C283 1.273 . S
O285 Zn276 1.977 . S
O285 C278 1.267 . S
C286 O287 1.160 . S
C286 O293 1.185 . S
O287 C286 1.160 . S
O288 Zn289 1.899 . S
O288 C296 1.284 . S
Zn289 O288 1.899 . S
Zn289 O290 2.032 . S
Zn289 O293 2.086 . S
Zn289 O298 1.977 . S
O290 Zn289 2.032 . S
O290 C294 1.278 . S
C291 O292 1.203 . S
C291 O298 1.267 . S
O292 C291 1.203 . S
O293 C286 1.185 . S
O293 Zn289 2.086 . S
C294 O290 1.278 . S
C294 O295 1.211 . S
O295 C294 1.211 . S
C296 O288 1.284 . S
C296 O297 1.273 . S
O297 C296 1.273 . S
O298 Zn289 1.977 . S
O298 C291 1.267 . S
C299 O300 1.160 . S
C299 O306 1.185 . S
O300 C299 1.160 . S
O301 Zn302 1.899 . S
O301 C309 1.284 . S
Zn302 O301 1.899 . S
Zn302 O303 2.032 . S
Zn302 O306 2.086 . S
Zn302 O311 1.977 . S
O303 Zn302 2.032 . S
O303 C307 1.278 . S
C304 O305 1.203 . S
C304 O311 1.267 . S
O305 C304 1.203 . S
O306 C299 1.185 . S
O306 Zn302 2.086 . S
C307 O303 1.278 . S
C307 O308 1.211 . S
O308 C307 1.211 . S
C309 O301 1.284 . S
C309 O310 1.273 . S
O310 C309 1.273 . S
O311 Zn302 1.977 . S
O311 C304 1.267 . S
C312 O313 1.160 . S
C312 O319 1.185 . S
O313 C312 1.160 . S
O314 Zn315 1.899 . S
O314 C322 1.284 . S
Zn315 O314 1.899 . S
Zn315 O316 2.032 . S
Zn315 O319 2.086 . S
Zn315 O324 1.977 . S
O316 Zn315 2.032 . S
O316 C320 1.278 . S
C317 O318 1.203 . S
C317 O324 1.267 . S
O318 C317 1.203 . S
O319 C312 1.185 . S
O319 Zn315 2.086 . S
C320 O316 1.278 . S
C320 O321 1.211 . S
O321 C320 1.211 . S
C322 O314 1.284 . S
C322 O323 1.273 . S
O323 C322 1.273 . S
O324 Zn315 1.977 . S
O324 C317 1.267 . S
C325 O326 1.160 . S
C325 O332 1.185 . S
O326 C325 1.160 . S
O327 Zn328 1.899 . S
O327 C335 1.284 . S
Zn328 O327 1.899 . S
Zn328 O329 2.032 . S
Zn328 O332 2.086 . S
Zn328 O337 1.977 . S
O329 Zn328 2.032 . S
O329 C333 1.278 . S
C330 O331 1.203 . S
C330 O337 1.267 . S
O331 C330 1.203 . S
O332 C325 1.185 . S
O332 Zn328 2.086 . S
C333 O329 1.278 . S
C333 O334 1.211 . S
O334 C333 1.211 . S
C335 O327 1.284 . S
C335 O336 1.273 . S
O336 C335 1.273 . S
O337 Zn328 1.977 . S
O337 C330 1.267 . S
C338 O339 1.160 . S
C338 O345 1.185 . S
O339 C338 1.160 . S
O340 Zn341 1.899 . S
O340 C348 1.284 . S
Zn341 O340 1.899 . S
Zn341 O342 2.032 . S
Zn341 O345 2.086 . S
Zn341 O350 1.977 . S
O342 Zn341 2.032 . S
O342 C346 1.278 . S
C343 O344 1.203 . S
C343 O350 1.267 . S
O344 C343 1.203 . S
O345 C338 1.185 . S
O345 Zn341 2.086 . S
C346 O342 1.278 . S
C346 O347 1.211 . S
O347 C346 1.211 . S
C348 O340 1.284 . S
C348 O349 1.273 . S
O349 C348 1.273 . S
O350 Zn341 1.977 . S
O350 C343 1.267 . S
C351 O352 1.160 . S
C351 O358 1.185 . S
O352 C351 1.160 . S
O353 Zn354 1.899 . S
O353 C361 1.284 . S
Zn354 O353 1.899 . S
Zn354 O355 2.032 . S
Zn354 O358 2.086 . S
Zn354 O363 1.977 . S
O355 Zn354 2.032 . S
O355 C359 1.278 . S
C356 O357 1.203 . S
C356 O363 1.267 . S
O357 C356 1.203 . S
O358 C351 1.185 . S
O358 Zn354 2.086 . S
C359 O355 1.278 . S
C359 O360 1.211 . S
O360 C359 1.211 . S
C361 O353 1.284 . S
C361 O362 1.273 . S
O362 C361 1.273 . S
O363 Zn354 1.977 . S
O363 C356 1.267 . S
C364 O365 1.160 . S
C364 O371 1.185 . S
O365 C364 1.160 . S
O366 Zn367 1.899 . S
O366 C374 1.284 . S
Zn367 O366 1.899 . S
Zn367 O368 2.032 . S
Zn367 O371 2.086 . S
Zn367 O376 1.977 . S
O368 Zn367 2.032 . S
O368 C372 1.278 . S
C369 O370 1.203 . S
C369 O376 1.267 . S
O370 C369 1.203 . S
O371 C364 1.185 . S
O371 Zn367 2.086 . S
C372 O368 1.278 . S
C372 O373 1.211 . S
O373 C372 1.211 . S
C374 O366 1.284 . S
C374 O375 1.273 . S
O375 C374 1.273 . S
O376 Zn367 1.977 . S
O376 C369 1.267 . S
C377 O378 1.160 . S
C377 O384 1.185 . S
O378 C377 1.160 . S
O379 Zn380 1.899 . S
O379 C387 1.284 . S
Zn380 O379 1.899 . S
Zn380 O381 2.032 . S
Zn380 O384 2.086 . S
Zn380 O389 1.977 . S
O381 Zn380 2.032 . S
O381 C385 1.278 . S
C382 O383 1.203 . S
C382 O389 1.267 . S
O383 C382 1.203 . S
O384 C377 1.185 . S
O384 Zn380 2.086 . S
C385 O381 1.278 . S
C385 O386 1.211 . S
O386 C385 1.211 . S
C387 O379 1.284 . S
C387 O388 1.273 . S
O388 C387 1.273 . S
O389 Zn380 1.977 . S
O389 C382 1.267 . S
C390 O391 1.160 . S
C390 O397 1.185 . S
O391 C390 1.160 . S
O392 Zn393 1.899 . S
O392 C400 1.284 . S
Zn393 O392 1.899 . S
Zn393 O394 2.032 . S
Zn393 O397 2.086 . S
Zn393 O402 1.977 . S
O394 Zn393 2.032 . S
O394 C398 1.278 . S
C395 O396 1.203 . S
C395 O402 1.267 . S
O396 C395 1.203 . S
O397 C390 1.185 . S
O397 Zn393 2.086 . S
C398 O394 1.278 . S
C398 O399 1.211 . S
O399 C398 1.211 . S
C400 O392 1.284 . S
C400 O401 1.273 . S
O401 C400 1.273 . S
O402 Zn393 1.977 . S
O402 C395 1.267 . S
C403 O404 1.160 . S
C403 O410 1.185 . S
O404 C403 1.160 . S
O405 Zn406 1.899 . S
O405 C413 1.284 . S
Zn406 O405 1.899 . S
Zn406 O407 2.032 . S
Zn406 O410 2.086 . S
Zn406 O415 1.977 . S
O407 Zn406 2.032 . S
O407 C411 1.278 . S
C408 O409 1.203 . S
C408 O415 1.267 . S
O409 C408 1.203 . S
O410 C403 1.185 . S
O410 Zn406 2.086 . S
C411 O407 1.278 . S
C411 O412 1.211 . S
O412 C411 1.211 . S
C413 O405 1.284 . S
C413 O414 1.273 . S
O414 C413 1.273 . S
O415 Zn406 1.977 . S
O415 C408 1.267 . S
C416 O417 1.160 . S
C416 O423 1.185 . S
O417 C416 1.160 . S
O418 Zn419 1.899 . S
O418 C426 1.284 . S
Zn419 O418 1.899 . S
Zn419 O420 2.032 . S
Zn419 O423 2.086 . S
Zn419 O428 1.977 . S
O420 Zn419 2.032 . S
O420 C424 1.278 . S
C421 O422 1.203 . S
C421 O428 1.267 . S
O422 C421 1.203 . S
O423 C416 1.185 . S
O423 Zn419 2.086 . S
C424 O420 1.278 . S
C424 O425 1.211 . S
O425 C424 1.211 . S
C426 O418 1.284 . S
C426 O427 1.273 . S
O427 C426 1.273 . S
O428 Zn419 1.977 . S
O428 C421 1.267 . S
C429 O430 1.160 . S
C429 O436 1.185 . S
O430 C429 1.160 . S
O431 Zn432 1.899 . S
O431 C439 1.284 . S
Zn432 O431 1.899 . S
Zn432 O433 2.032 . S
Zn432 O436 2.086 . S
Zn432 O441 1.977 . S
O433 Zn432 2.032 . S
O433 C437 1.278 . S
C434 O435 1.203 . S
C434 O441 1.267 . S
O435 C434 1.203 . S
O436 C429 1.185 . S
O436 Zn432 2.086 . S
C437 O433 1.278 . S
C437 O438 1.211 . S
O438 C437 1.211 . S
C439 O431 1.284 . S
C439 O440 1.273 . S
O440 C439 1.273 . S
O441 Zn432 1.977 . S
O441 C434 1.267 . S
C442 O443 1.160 . S
C442 O449 1.185 . S
O443 C442 1.160 . S
O444 Zn445 1.899 . S
O444 C452 1.284 . S
Zn445 O444 1.899 . S
Zn445 O446 2.032 . S
Zn445 O449 2.086 . S
Zn445 O454 1.977 . S
O446 Zn445 2.032 . S
O446 C450 1.278 . S
C447 O448 1.203 . S
C447 O454 1.267 . S
O448 C447 1.203 . S
O449 C442 1.185 . S
O449 Zn445 2.086 . S
C450 O446 1.278 . S
C450 O451 1.211 . S
O451 C450 1.211 . S
C452 O444 1.284 . S
C452 O453 1.273 . S
O453 C452 1.273 . S
O454 Zn445 1.977 . S
O454 C447 1.267 . S
C455 O456 1.160 . S
C455 O462 1.185 . S
O456 C455 1.160 . S
O457 Zn458 1.899 . S
O457 C465 1.284 . S
Zn458 O457 1.899 . S
Zn458 O459 2.032 . S
Zn458 O462 2.086 . S
Zn458 O467 1.977 . S
O459 Zn458 2.032 . S
O459 C463 1.278 . S
C460 O461 1.203 . S
C460 O467 1.267 . S
O461 C460 1.203 . S
O462 C455 1.185 . S
O462 Zn458 2.086 . S
C463 O459 1.278 . S
C463 O464 1.211 . S
O464 C463 1.211 . S
C465 O457 1.284 . S
C465 O466 1.273 . S
O466 C465 1.273 . S
O467 Zn458 1.977 . S
O467 C460 1.267 . S
H468 C476 0.950 . S
H469 C481 0.950 . S
H470 C478 0.950 . S
H471 C480 0.950 . S
H472 C482 0.950 . S
H473 C484 0.950 . S
H474 C486 0.950 . S
H475 C487 0.950 . S
C476 H468 0.950 . S
C476 C477 1.386 . S
C476 C478 1.391 . S
C477 C476 1.386 . S
C477 C481 1.393 . S
C478 H470 0.950 . S
C478 C476 1.391 . S
C478 C479 1.400 . S
C479 C478 1.400 . S
C479 C480 1.398 . S
C479 C485 1.491 . S
C480 H471 0.950 . S
C480 C479 1.398 . S
C480 C481 1.391 . S
C481 H469 0.950 . S
C481 C477 1.393 . S
C481 C480 1.391 . S
C482 H472 0.950 . S
C482 C483 1.386 . S
C482 C484 1.391 . S
C483 C482 1.386 . S
C483 C487 1.393 . S
C484 H473 0.950 . S
C484 C482 1.391 . S
C484 C485 1.400 . S
C485 C479 1.491 . S
C485 C484 1.400 . S
C485 C486 1.398 . S
C486 H474 0.950 . S
C486 C485 1.398 . S
C486 C487 1.391 . S
C487 H475 0.950 . S
C487 C483 1.393 . S
C487 C486 1.391 . S
H488 C496 0.950 . S
H489 C501 0.950 . S
H490 C498 0.950 . S
H491 C500 0.950 . S
H492 C502 0.950 . S
H493 C504 0.950 . S
H494 C506 0.950 . S
H495 C507 0.950 . S
C496 H488 0.950 . S
C496 C497 1.386 . S
C496 C498 1.391 . S
C497 C496 1.386 . S
C497 C501 1.393 . S
C498 H490 0.950 . S
C498 C496 1.391 . S
C498 C499 1.400 . S
C499 C498 1.400 . S
C499 C500 1.398 . S
C499 C505 1.491 . S
C500 H491 0.950 . S
C500 C499 1.398 . S
C500 C501 1.391 . S
C501 H489 0.950 . S
C501 C497 1.393 . S
C501 C500 1.391 . S
C502 H492 0.950 . S
C502 C503 1.386 . S
C502 C504 1.391 . S
C503 C502 1.386 . S
C503 C507 1.393 . S
C504 H493 0.950 . S
C504 C502 1.391 . S
C504 C505 1.400 . S
C505 C499 1.491 . S
C505 C504 1.400 . S
C505 C506 1.398 . S
C506 H494 0.950 . S
C506 C505 1.398 . S
C506 C507 1.391 . S
C507 H495 0.950 . S
C507 C503 1.393 . S
C507 C506 1.391 . S
H508 C516 0.950 . S
H509 C521 0.950 . S
H510 C518 0.950 . S
H511 C520 0.950 . S
H512 C522 0.950 . S
H513 C524 0.950 . S
H514 C526 0.950 . S
H515 C527 0.950 . S
C516 H508 0.950 . S
C516 C517 1.386 . S
C516 C518 1.391 . S
C517 C516 1.386 . S
C517 C521 1.393 . S
C518 H510 0.950 . S
C518 C516 1.391 . S
C518 C519 1.400 . S
C519 C518 1.400 . S
C519 C520 1.398 . S
C519 C525 1.491 . S
C520 H511 0.950 . S
C520 C519 1.398 . S
C520 C521 1.391 . S
C521 H509 0.950 . S
C521 C517 1.393 . S
C521 C520 1.391 . S
C522 H512 0.950 . S
C522 C523 1.386 . S
C522 C524 1.391 . S
C523 C522 1.386 . S
C523 C527 1.393 . S
C524 H513 0.950 . S
C524 C522 1.391 . S
C524 C525 1.400 . S
C525 C519 1.491 . S
C525 C524 1.400 . S
C525 C526 1.398 . S
C526 H514 0.950 . S
C526 C525 1.398 . S
C526 C527 1.391 . S
C527 H515 0.950 . S
C527 C523 1.393 . S
C527 C526 1.391 . S
H528 C536 0.950 . S
H529 C541 0.950 . S
H530 C538 0.950 . S
H531 C540 0.950 . S
H532 C542 0.950 . S
H533 C544 0.950 . S
H534 C546 0.950 . S
H535 C547 0.950 . S
C536 H528 0.950 . S
C536 C537 1.386 . S
C536 C538 1.391 . S
C537 C536 1.386 . S
C537 C541 1.393 . S
C538 H530 0.950 . S
C538 C536 1.391 . S
C538 C539 1.400 . S
C539 C538 1.400 . S
C539 C540 1.398 . S
C539 C545 1.491 . S
C540 H531 0.950 . S
C540 C539 1.398 . S
C540 C541 1.391 . S
C541 H529 0.950 . S
C541 C537 1.393 . S
C541 C540 1.391 . S
C542 H532 0.950 . S
C542 C543 1.386 . S
C542 C544 1.391 . S
C543 C542 1.386 . S
C543 C547 1.393 . S
C544 H533 0.950 . S
C544 C542 1.391 . S
C544 C545 1.400 . S
C545 C539 1.491 . S
C545 C544 1.400 . S
C545 C546 1.398 . S
C546 H534 0.950 . S
C546 C545 1.398 . S
C546 C547 1.391 . S
C547 H535 0.950 . S
C547 C543 1.393 . S
C547 C546 1.391 . S
H548 C556 0.950 . S
H549 C561 0.950 . S
H550 C558 0.950 . S
H551 C560 0.950 . S
H552 C562 0.950 . S
H553 C564 0.950 . S
H554 C566 0.950 . S
H555 C567 0.950 . S
C556 H548 0.950 . S
C556 C557 1.386 . S
C556 C558 1.391 . S
C557 C556 1.386 . S
C557 C561 1.393 . S
C558 H550 0.950 . S
C558 C556 1.391 . S
C558 C559 1.400 . S
C559 C558 1.400 . S
C559 C560 1.398 . S
C559 C565 1.491 . S
C560 H551 0.950 . S
C560 C559 1.398 . S
C560 C561 1.391 . S
C561 H549 0.950 . S
C561 C557 1.393 . S
C561 C560 1.391 . S
C562 H552 0.950 . S
C562 C563 1.386 . S
C562 C564 1.391 . S
C563 C562 1.386 . S
C563 C567 1.393 . S
C564 H553 0.950 . S
C564 C562 1.391 . S
C564 C565 1.400 . S
C565 C559 1.491 . S
C565 C564 1.400 . S
C565 C566 1.398 . S
C566 H554 0.950 . S
C566 C565 1.398 . S
C566 C567 1.391 . S
C567 H555 0.950 . S
C567 C563 1.393 . S
C567 C566 1.391 . S
H568 C576 0.950 . S
H569 C581 0.950 . S
H570 C578 0.950 . S
H571 C580 0.950 . S
H572 C582 0.950 . S
H573 C584 0.950 . S
H574 C586 0.950 . S
H575 C587 0.950 . S
C576 H568 0.950 . S
C576 C577 1.386 . S
C576 C578 1.391 . S
C577 C576 1.386 . S
C577 C581 1.393 . S
C578 H570 0.950 . S
C578 C576 1.391 . S
C578 C579 1.400 . S
C579 C578 1.400 . S
C579 C580 1.398 . S
C579 C585 1.491 . S
C580 H571 0.950 . S
C580 C579 1.398 . S
C580 C581 1.391 . S
C581 H569 0.950 . S
C581 C577 1.393 . S
C581 C580 1.391 . S
C582 H572 0.950 . S
C582 C583 1.386 . S
C582 C584 1.391 . S
C583 C582 1.386 . S
C583 C587 1.393 . S
C584 H573 0.950 . S
C584 C582 1.391 . S
C584 C585 1.400 . S
C585 C579 1.491 . S
C585 C584 1.400 . S
C585 C586 1.398 . S
C586 H574 0.950 . S
C586 C585 1.398 . S
C586 C587 1.391 . S
C587 H575 0.950 . S
C587 C583 1.393 . S
C587 C586 1.391 . S
H588 C596 0.950 . S
H589 C601 0.950 . S
H590 C598 0.950 . S
H591 C600 0.950 . S
H592 C602 0.950 . S
H593 C604 0.950 . S
H594 C606 0.950 . S
H595 C607 0.950 . S
C596 H588 0.950 . S
C596 C597 1.386 . S
C596 C598 1.391 . S
C597 C596 1.386 . S
C597 C601 1.393 . S
C598 H590 0.950 . S
C598 C596 1.391 . S
C598 C599 1.400 . S
C599 C598 1.400 . S
C599 C600 1.398 . S
C599 C605 1.491 . S
C600 H591 0.950 . S
C600 C599 1.398 . S
C600 C601 1.391 . S
C601 H589 0.950 . S
C601 C597 1.393 . S
C601 C600 1.391 . S
C602 H592 0.950 . S
C602 C603 1.386 . S
C602 C604 1.391 . S
C603 C602 1.386 . S
C603 C607 1.393 . S
C604 H593 0.950 . S
C604 C602 1.391 . S
C604 C605 1.400 . S
C605 C599 1.491 . S
C605 C604 1.400 . S
C605 C606 1.398 . S
C606 H594 0.950 . S
C606 C605 1.398 . S
C606 C607 1.391 . S
C607 H595 0.950 . S
C607 C603 1.393 . S
C607 C606 1.391 . S
H608 C616 0.950 . S
H609 C621 0.950 . S
H610 C618 0.950 . S
H611 C620 0.950 . S
H612 C622 0.950 . S
H613 C624 0.950 . S
H614 C626 0.950 . S
H615 C627 0.950 . S
C616 H608 0.950 . S
C616 C617 1.386 . S
C616 C618 1.391 . S
C617 C616 1.386 . S
C617 C621 1.393 . S
C618 H610 0.950 . S
C618 C616 1.391 . S
C618 C619 1.400 . S
C619 C618 1.400 . S
C619 C620 1.398 . S
C619 C625 1.491 . S
C620 H611 0.950 . S
C620 C619 1.398 . S
C620 C621 1.391 . S
C621 H609 0.950 . S
C621 C617 1.393 . S
C621 C620 1.391 . S
C622 H612 0.950 . S
C622 C623 1.386 . S
C622 C624 1.391 . S
C623 C622 1.386 . S
C623 C627 1.393 . S
C624 H613 0.950 . S
C624 C622 1.391 . S
C624 C625 1.400 . S
C625 C619 1.491 . S
C625 C624 1.400 . S
C625 C626 1.398 . S
C626 H614 0.950 . S
C626 C625 1.398 . S
C626 C627 1.391 . S
C627 H615 0.950 . S
C627 C623 1.393 . S
C627 C626 1.391 . S
H628 C636 0.950 . S
H629 C641 0.950 . S
H630 C638 0.950 . S
H631 C640 0.950 . S
H632 C642 0.950 . S
H633 C644 0.950 . S
H634 C646 0.950 . S
H635 C647 0.950 . S
C636 H628 0.950 . S
C636 C637 1.386 . S
C636 C638 1.391 . S
C637 C636 1.386 . S
C637 C641 1.393 . S
C638 H630 0.950 . S
C638 C636 1.391 . S
C638 C639 1.400 . S
C639 C638 1.400 . S
C639 C640 1.398 . S
C639 C645 1.491 . S
C640 H631 0.950 . S
C640 C639 1.398 . S
C640 C641 1.391 . S
C641 H629 0.950 . S
C641 C637 1.393 . S
C641 C640 1.391 . S
C642 H632 0.950 . S
C642 C643 1.386 . S
C642 C644 1.391 . S
C643 C642 1.386 . S
C643 C647 1.393 . S
C644 H633 0.950 . S
C644 C642 1.391 . S
C644 C645 1.400 . S
C645 C639 1.491 . S
C645 C644 1.400 . S
C645 C646 1.398 . S
C646 H634 0.950 . S
C646 C645 1.398 . S
C646 C647 1.391 . S
C647 H635 0.950 . S
C647 C643 1.393 . S
C647 C646 1.391 . S
H648 C656 0.950 . S
H649 C661 0.950 . S
H650 C658 0.950 . S
H651 C660 0.950 . S
H652 C662 0.950 . S
H653 C664 0.950 . S
H654 C666 0.950 . S
H655 C667 0.950 . S
C656 H648 0.950 . S
C656 C657 1.386 . S
C656 C658 1.391 . S
C657 C656 1.386 . S
C657 C661 1.393 . S
C658 H650 0.950 . S
C658 C656 1.391 . S
C658 C659 1.400 . S
C659 C658 1.400 . S
C659 C660 1.398 . S
C659 C665 1.491 . S
C660 H651 0.950 . S
C660 C659 1.398 . S
C660 C661 1.391 . S
C661 H649 0.950 . S
C661 C657 1.393 . S
C661 C660 1.391 . S
C662 H652 0.950 . S
C662 C663 1.386 . S
C662 C664 1.391 . S
C663 C662 1.386 . S
C663 C667 1.393 . S
C664 H653 0.950 . S
C664 C662 1.391 . S
C664 C665 1.400 . S
C665 C659 1.491 . S
C665 C664 1.400 . S
C665 C666 1.398 . S
C666 H654 0.950 . S
C666 C665 1.398 . S
C666 C667 1.391 . S
C667 H655 0.950 . S
C667 C663 1.393 . S
C667 C666 1.391 . S
H668 C676 0.950 . S
H669 C681 0.950 . S
H670 C678 0.950 . S
H671 C680 0.950 . S
H672 C682 0.950 . S
H673 C684 0.950 . S
H674 C686 0.950 . S
H675 C687 0.950 . S
C676 H668 0.950 . S
C676 C677 1.386 . S
C676 C678 1.391 . S
C677 C676 1.386 . S
C677 C681 1.393 . S
C678 H670 0.950 . S
C678 C676 1.391 . S
C678 C679 1.400 . S
C679 C678 1.400 . S
C679 C680 1.398 . S
C679 C685 1.491 . S
C680 H671 0.950 . S
C680 C679 1.398 . S
C680 C681 1.391 . S
C681 H669 0.950 . S
C681 C677 1.393 . S
C681 C680 1.391 . S
C682 H672 0.950 . S
C682 C683 1.386 . S
C682 C684 1.391 . S
C683 C682 1.386 . S
C683 C687 1.393 . S
C684 H673 0.950 . S
C684 C682 1.391 . S
C684 C685 1.400 . S
C685 C679 1.491 . S
C685 C684 1.400 . S
C685 C686 1.398 . S
C686 H674 0.950 . S
C686 C685 1.398 . S
C686 C687 1.391 . S
C687 H675 0.950 . S
C687 C683 1.393 . S
C687 C686 1.391 . S
H688 C696 0.950 . S
H689 C701 0.950 . S
H690 C698 0.950 . S
H691 C700 0.950 . S
H692 C702 0.950 . S
H693 C704 0.950 . S
H694 C706 0.950 . S
H695 C707 0.950 . S
C696 H688 0.950 . S
C696 C697 1.386 . S
C696 C698 1.391 . S
C697 C696 1.386 . S
C697 C701 1.393 . S
C698 H690 0.950 . S
C698 C696 1.391 . S
C698 C699 1.400 . S
C699 C698 1.400 . S
C699 C700 1.398 . S
C699 C705 1.491 . S
C700 H691 0.950 . S
C700 C699 1.398 . S
C700 C701 1.391 . S
C701 H689 0.950 . S
C701 C697 1.393 . S
C701 C700 1.391 . S
C702 H692 0.950 . S
C702 C703 1.386 . S
C702 C704 1.391 . S
C703 C702 1.386 . S
C703 C707 1.393 . S
C704 H693 0.950 . S
C704 C702 1.391 . S
C704 C705 1.400 . S
C705 C699 1.491 . S
C705 C704 1.400 . S
C705 C706 1.398 . S
C706 H694 0.950 . S
C706 C705 1.398 . S
C706 C707 1.391 . S
C707 H695 0.950 . S
C707 C703 1.393 . S
C707 C706 1.391 . S
H708 C716 0.950 . S
H709 C721 0.950 . S
H710 C718 0.950 . S
H711 C720 0.950 . S
H712 C722 0.950 . S
H713 C724 0.950 . S
H714 C726 0.950 . S
H715 C727 0.950 . S
C716 H708 0.950 . S
C716 C717 1.386 . S
C716 C718 1.391 . S
C717 C716 1.386 . S
C717 C721 1.393 . S
C718 H710 0.950 . S
C718 C716 1.391 . S
C718 C719 1.400 . S
C719 C718 1.400 . S
C719 C720 1.398 . S
C719 C725 1.491 . S
C720 H711 0.950 . S
C720 C719 1.398 . S
C720 C721 1.391 . S
C721 H709 0.950 . S
C721 C717 1.393 . S
C721 C720 1.391 . S
C722 H712 0.950 . S
C722 C723 1.386 . S
C722 C724 1.391 . S
C723 C722 1.386 . S
C723 C727 1.393 . S
C724 H713 0.950 . S
C724 C722 1.391 . S
C724 C725 1.400 . S
C725 C719 1.491 . S
C725 C724 1.400 . S
C725 C726 1.398 . S
C726 H714 0.950 . S
C726 C725 1.398 . S
C726 C727 1.391 . S
C727 H715 0.950 . S
C727 C723 1.393 . S
C727 C726 1.391 . S
H728 C736 0.950 . S
H729 C741 0.950 . S
H730 C738 0.950 . S
H731 C740 0.950 . S
H732 C742 0.950 . S
H733 C744 0.950 . S
H734 C746 0.950 . S
H735 C747 0.950 . S
C736 H728 0.950 . S
C736 C737 1.386 . S
C736 C738 1.391 . S
C737 C736 1.386 . S
C737 C741 1.393 . S
C738 H730 0.950 . S
C738 C736 1.391 . S
C738 C739 1.400 . S
C739 C738 1.400 . S
C739 C740 1.398 . S
C739 C745 1.491 . S
C740 H731 0.950 . S
C740 C739 1.398 . S
C740 C741 1.391 . S
C741 H729 0.950 . S
C741 C737 1.393 . S
C741 C740 1.391 . S
C742 H732 0.950 . S
C742 C743 1.386 . S
C742 C744 1.391 . S
C743 C742 1.386 . S
C743 C747 1.393 . S
C744 H733 0.950 . S
C744 C742 1.391 . S
C744 C745 1.400 . S
C745 C739 1.491 . S
C745 C744 1.400 . S
C745 C746 1.398 . S
C746 H734 0.950 . S
C746 C745 1.398 . S
C746 C747 1.391 . S
C747 H735 0.950 . S
C747 C743 1.393 . S
C747 C746 1.391 . S
H748 C756 0.950 . S
H749 C761 0.950 . S
H750 C758 0.950 . S
H751 C760 0.950 . S
H752 C762 0.950 . S
H753 C764 0.950 . S
H754 C766 0.950 . S
H755 C767 0.950 . S
C756 H748 0.950 . S
C756 C757 1.386 . S
C756 C758 1.391 . S
C757 C756 1.386 . S
C757 C761 1.393 . S
C758 H750 0.950 . S
C758 C756 1.391 . S
C758 C759 1.400 . S
C759 C758 1.400 . S
C759 C760 1.398 . S
C759 C765 1.491 . S
C760 H751 0.950 . S
C760 C759 1.398 . S
C760 C761 1.391 . S
C761 H749 0.950 . S
C761 C757 1.393 . S
C761 C760 1.391 . S
C762 H752 0.950 . S
C762 C763 1.386 . S
C762 C764 1.391 . S
C763 C762 1.386 . S
C763 C767 1.393 . S
C764 H753 0.950 . S
C764 C762 1.391 . S
C764 C765 1.400 . S
C765 C759 1.491 . S
C765 C764 1.400 . S
C765 C766 1.398 . S
C766 H754 0.950 . S
C766 C765 1.398 . S
C766 C767 1.391 . S
C767 H755 0.950 . S
C767 C763 1.393 . S
C767 C766 1.391 . S
H768 C776 0.950 . S
H769 C781 0.950 . S
H770 C778 0.950 . S
H771 C780 0.950 . S
H772 C782 0.950 . S
H773 C784 0.950 . S
H774 C786 0.950 . S
H775 C787 0.950 . S
C776 H768 0.950 . S
C776 C777 1.386 . S
C776 C778 1.391 . S
C777 C776 1.386 . S
C777 C781 1.393 . S
C778 H770 0.950 . S
C778 C776 1.391 . S
C778 C779 1.400 . S
C779 C778 1.400 . S
C779 C780 1.398 . S
C779 C785 1.491 . S
C780 H771 0.950 . S
C780 C779 1.398 . S
C780 C781 1.391 . S
C781 H769 0.950 . S
C781 C777 1.393 . S
C781 C780 1.391 . S
C782 H772 0.950 . S
C782 C783 1.386 . S
C782 C784 1.391 . S
C783 C782 1.386 . S
C783 C787 1.393 . S
C784 H773 0.950 . S
C784 C782 1.391 . S
C784 C785 1.400 . S
C785 C779 1.491 . S
C785 C784 1.400 . S
C785 C786 1.398 . S
C786 H774 0.950 . S
C786 C785 1.398 . S
C786 C787 1.391 . S
C787 H775 0.950 . S
C787 C783 1.393 . S
C787 C786 1.391 . S
H788 C796 0.950 . S
H789 C801 0.950 . S
H790 C798 0.950 . S
H791 C800 0.950 . S
H792 C802 0.950 . S
H793 C804 0.950 . S
H794 C806 0.950 . S
H795 C807 0.950 . S
C796 H788 0.950 . S
C796 C797 1.386 . S
C796 C798 1.391 . S
C797 C796 1.386 . S
C797 C801 1.393 . S
C798 H790 0.950 . S
C798 C796 1.391 . S
C798 C799 1.400 . S
C799 C798 1.400 . S
C799 C800 1.398 . S
C799 C805 1.491 . S
C800 H791 0.950 . S
C800 C799 1.398 . S
C800 C801 1.391 . S
C801 H789 0.950 . S
C801 C797 1.393 . S
C801 C800 1.391 . S
C802 H792 0.950 . S
C802 C803 1.386 . S
C802 C804 1.391 . S
C803 C802 1.386 . S
C803 C807 1.393 . S
C804 H793 0.950 . S
C804 C802 1.391 . S
C804 C805 1.400 . S
C805 C799 1.491 . S
C805 C804 1.400 . S
C805 C806 1.398 . S
C806 H794 0.950 . S
C806 C805 1.398 . S
C806 C807 1.391 . S
C807 H795 0.950 . S
C807 C803 1.393 . S
C807 C806 1.391 . S
H808 C816 0.950 . S
H809 C821 0.950 . S
H810 C818 0.950 . S
H811 C820 0.950 . S
H812 C822 0.950 . S
H813 C824 0.950 . S
H814 C826 0.950 . S
H815 C827 0.950 . S
C816 H808 0.950 . S
C816 C817 1.386 . S
C816 C818 1.391 . S
C817 C816 1.386 . S
C817 C821 1.393 . S
C818 H810 0.950 . S
C818 C816 1.391 . S
C818 C819 1.400 . S
C819 C818 1.400 . S
C819 C820 1.398 . S
C819 C825 1.491 . S
C820 H811 0.950 . S
C820 C819 1.398 . S
C820 C821 1.391 . S
C821 H809 0.950 . S
C821 C817 1.393 . S
C821 C820 1.391 . S
C822 H812 0.950 . S
C822 C823 1.386 . S
C822 C824 1.391 . S
C823 C822 1.386 . S
C823 C827 1.393 . S
C824 H813 0.950 . S
C824 C822 1.391 . S
C824 C825 1.400 . S
C825 C819 1.491 . S
C825 C824 1.400 . S
C825 C826 1.398 . S
C826 H814 0.950 . S
C826 C825 1.398 . S
C826 C827 1.391 . S
C827 H815 0.950 . S
C827 C823 1.393 . S
C827 C826 1.391 . S
H828 C836 0.950 . S
H829 C841 0.950 . S
H830 C838 0.950 . S
H831 C840 0.950 . S
H832 C842 0.950 1_455 S
H833 C844 0.950 . S
H834 C846 0.950 . S
H835 C847 0.950 . S
C836 H828 0.950 . S
C836 C837 1.386 1_655 S
C836 C838 1.391 . S
C837 C836 1.386 1_455 S
C837 C841 1.393 . S
C838 H830 0.950 . S
C838 C836 1.391 . S
C838 C839 1.400 . S
C839 C838 1.400 . S
C839 C840 1.398 1_655 S
C839 C845 1.491 . S
C840 H831 0.950 . S
C840 C839 1.398 1_455 S
C840 C841 1.391 . S
C841 H829 0.950 . S
C841 C837 1.393 . S
C841 C840 1.391 . S
C842 H832 0.950 1_655 S
C842 C843 1.386 . S
C842 C844 1.391 1_655 S
C843 C842 1.386 . S
C843 C847 1.393 . S
C844 H833 0.950 . S
C844 C842 1.391 1_455 S
C844 C845 1.400 1_455 S
C845 C839 1.491 . S
C845 C844 1.400 1_655 S
C845 C846 1.398 . S
C846 H834 0.950 . S
C846 C845 1.398 . S
C846 C847 1.391 . S
C847 H835 0.950 . S
C847 C843 1.393 . S
C847 C846 1.391 . S
H848 C856 0.950 . S
H849 C861 0.950 . S
H850 C858 0.950 . S
H851 C860 0.950 . S
H852 C862 0.950 . S
H853 C864 0.950 . S
H854 C866 0.950 . S
H855 C867 0.950 . S
C856 H848 0.950 . S
C856 C857 1.386 . S
C856 C858 1.391 . S
C857 C856 1.386 . S
C857 C861 1.393 . S
C858 H850 0.950 . S
C858 C856 1.391 . S
C858 C859 1.400 . S
C859 C858 1.400 . S
C859 C860 1.398 . S
C859 C865 1.491 . S
C860 H851 0.950 . S
C860 C859 1.398 . S
C860 C861 1.391 . S
C861 H849 0.950 . S
C861 C857 1.393 . S
C861 C860 1.391 . S
C862 H852 0.950 . S
C862 C863 1.386 . S
C862 C864 1.391 . S
C863 C862 1.386 . S
C863 C867 1.393 . S
C864 H853 0.950 . S
C864 C862 1.391 . S
C864 C865 1.400 . S
C865 C859 1.491 . S
C865 C864 1.400 . S
C865 C866 1.398 . S
C866 H854 0.950 . S
C866 C865 1.398 . S
C866 C867 1.391 . S
C867 H855 0.950 . S
C867 C863 1.393 . S
C867 C866 1.391 . S
H868 C876 0.950 . S
H869 C881 0.950 . S
H870 C878 0.950 . S
H871 C880 0.950 . S
H872 C882 0.950 . S
H873 C884 0.950 . S
H874 C886 0.950 . S
H875 C887 0.950 . S
C876 H868 0.950 . S
C876 C877 1.386 . S
C876 C878 1.391 . S
C877 C876 1.386 . S
C877 C881 1.393 . S
C878 H870 0.950 . S
C878 C876 1.391 . S
C878 C879 1.400 . S
C879 C878 1.400 . S
C879 C880 1.398 . S
C879 C885 1.491 . S
C880 H871 0.950 . S
C880 C879 1.398 . S
C880 C881 1.391 . S
C881 H869 0.950 . S
C881 C877 1.393 . S
C881 C880 1.391 . S
C882 H872 0.950 . S
C882 C883 1.386 . S
C882 C884 1.391 . S
C883 C882 1.386 . S
C883 C887 1.393 . S
C884 H873 0.950 . S
C884 C882 1.391 . S
C884 C885 1.400 . S
C885 C879 1.491 . S
C885 C884 1.400 . S
C885 C886 1.398 . S
C886 H874 0.950 . S
C886 C885 1.398 . S
C886 C887 1.391 . S
C887 H875 0.950 . S
C887 C883 1.393 . S
C887 C886 1.391 . S
H888 C896 0.950 . S
H889 C901 0.950 . S
H890 C898 0.950 . S
H891 C900 0.990 . S
H892 C902 0.950 . S
H893 C904 0.950 . S
H894 C906 0.950 . S
H895 C907 0.950 . S
C896 H888 0.950 . S
C896 C897 1.386 . S
C896 C898 1.391 . S
C897 C896 1.386 . S
C897 C901 1.393 . S
C898 H890 0.950 . S
C898 C896 1.391 . S
C898 C899 1.400 1_545 S
C899 C898 1.400 1_565 S
C899 C900 1.392 . S
C899 C905 1.491 . S
C900 H891 0.990 . S
C900 C899 1.392 . S
C900 C901 1.360 1_565 S
C901 H889 0.950 . S
C901 C897 1.393 . S
C901 C900 1.360 1_545 S
C902 H892 0.950 . S
C902 C903 1.386 . S
C902 C904 1.391 . S
C903 C902 1.386 . S
C903 C907 1.393 . S
C904 H893 0.950 . S
C904 C902 1.391 . S
C904 C905 1.400 . S
C905 C899 1.491 . S
C905 C904 1.400 . S
C905 C906 1.398 . S
C906 H894 0.950 . S
C906 C905 1.398 . S
C906 C907 1.391 . S
C907 H895 0.950 . S
C907 C903 1.393 . S
C907 C906 1.391 . S
H908 C916 0.950 . S
H909 C921 0.950 . S
H910 C918 0.950 . S
H911 C920 0.950 . S
H912 C922 0.950 . S
H913 C924 0.950 . S
H914 C926 0.950 . S
H915 C927 0.950 . S
C916 H908 0.950 . S
C916 C917 1.386 . S
C916 C918 1.391 . S
C917 C916 1.386 . S
C917 C921 1.393 . S
C918 H910 0.950 . S
C918 C916 1.391 . S
C918 C919 1.400 . S
C919 C918 1.400 . S
C919 C920 1.398 . S
C919 C925 1.491 . S
C920 H911 0.950 . S
C920 C919 1.398 . S
C920 C921 1.391 . S
C921 H909 0.950 . S
C921 C917 1.393 . S
C921 C920 1.391 . S
C922 H912 0.950 . S
C922 C923 1.386 . S
C922 C924 1.391 . S
C923 C922 1.386 . S
C923 C927 1.393 . S
C924 H913 0.950 . S
C924 C922 1.391 . S
C924 C925 1.400 . S
C925 C919 1.491 . S
C925 C924 1.400 . S
C925 C926 1.398 . S
C926 H914 0.950 . S
C926 C925 1.398 . S
C926 C927 1.391 . S
C927 H915 0.950 . S
C927 C923 1.393 . S
C927 C926 1.391 . S
H928 C936 0.950 . S
H929 C941 0.950 . S
H930 C938 0.950 . S
H931 C940 0.950 . S
H932 C942 0.950 . S
H933 C944 0.950 . S
H934 C946 0.950 . S
H935 C947 0.950 . S
C936 H928 0.950 . S
C936 C937 1.386 . S
C936 C938 1.391 . S
C937 C936 1.386 . S
C937 C941 1.393 . S
C938 H930 0.950 . S
C938 C936 1.391 . S
C938 C939 1.400 . S
C939 C938 1.400 . S
C939 C940 1.398 . S
C939 C945 1.491 . S
C940 H931 0.950 . S
C940 C939 1.398 . S
C940 C941 1.391 . S
C941 H929 0.950 . S
C941 C937 1.393 . S
C941 C940 1.391 . S
C942 H932 0.950 . S
C942 C943 1.386 . S
C942 C944 1.391 . S
C943 C942 1.386 . S
C943 C947 1.393 . S
C944 H933 0.950 . S
C944 C942 1.391 . S
C944 C945 1.400 . S
C945 C939 1.491 . S
C945 C944 1.400 . S
C945 C946 1.398 . S
C946 H934 0.950 . S
C946 C945 1.398 . S
C946 C947 1.391 . S
C947 H935 0.950 . S
C947 C943 1.393 . S
C947 C946 1.391 . S
H948 C956 0.950 . S
H949 C961 0.950 . S
H950 C958 0.950 . S
H951 C960 0.950 . S
H952 C962 0.950 . S
H953 C964 0.950 . S
H954 C966 0.950 . S
H955 C967 0.950 . S
C956 H948 0.950 . S
C956 C957 1.386 . S
C956 C958 1.391 . S
C957 C956 1.386 . S
C957 C961 1.393 . S
C958 H950 0.950 . S
C958 C956 1.391 . S
C958 C959 1.400 . S
C959 C958 1.400 . S
C959 C960 1.398 . S
C959 C965 1.491 . S
C960 H951 0.950 . S
C960 C959 1.398 . S
C960 C961 1.391 . S
C961 H949 0.950 . S
C961 C957 1.393 . S
C961 C960 1.391 . S
C962 H952 0.950 . S
C962 C963 1.386 . S
C962 C964 1.391 . S
C963 C962 1.386 . S
C963 C967 1.393 . S
C964 H953 0.950 . S
C964 C962 1.391 . S
C964 C965 1.400 . S
C965 C959 1.491 . S
C965 C964 1.400 . S
C965 C966 1.398 . S
C966 H954 0.950 . S
C966 C965 1.398 . S
C966 C967 1.391 . S
C967 H955 0.950 . S
C967 C963 1.393 . S
C967 C966 1.391 . S
H968 C976 0.950 . S
H969 C981 0.950 . S
H970 C978 0.950 . S
H971 C980 0.950 . S
H972 C982 0.950 . S
H973 C984 0.950 . S
H974 C986 0.950 . S
H975 C987 0.950 . S
C976 H968 0.950 . S
C976 C977 1.386 . S
C976 C978 1.391 . S
C977 C976 1.386 . S
C977 C981 1.393 . S
C978 H970 0.950 . S
C978 C976 1.391 . S
C978 C979 1.400 . S
C979 C978 1.400 . S
C979 C980 1.398 . S
C979 C985 1.491 . S
C980 H971 0.950 . S
C980 C979 1.398 . S
C980 C981 1.391 . S
C981 H969 0.950 . S
C981 C977 1.393 . S
C981 C980 1.391 . S
C982 H972 0.950 . S
C982 C983 1.386 . S
C982 C984 1.391 . S
C983 C982 1.386 . S
C983 C987 1.393 . S
C984 H973 0.950 . S
C984 C982 1.391 . S
C984 C985 1.400 . S
C985 C979 1.491 . S
C985 C984 1.400 . S
C985 C986 1.398 . S
C986 H974 0.950 . S
C986 C985 1.398 . S
C986 C987 1.391 . S
C987 H975 0.950 . S
C987 C983 1.393 . S
C987 C986 1.391 . S
H988 C996 0.950 . S
H989 C1001 0.950 . S
H990 C998 0.950 . S
H991 C1000 0.950 . S
H992 C1002 0.950 . S
H993 C1004 0.950 1_545 S
H994 C1006 0.950 . S
H995 C1007 0.950 . S
C996 H988 0.950 . S
C996 C997 1.386 . S
C996 C998 1.391 1_545 S
C997 C996 1.386 . S
C997 C1001 1.393 . S
C998 H990 0.950 . S
C998 C996 1.391 1_565 S
C998 C999 1.400 . S
C999 C998 1.400 . S
C999 C1000 1.398 1_565 S
C999 C1005 1.491 . S
C1000 H991 0.950 . S
C1000 C999 1.398 1_545 S
C1000 C1001 1.391 . S
C1001 H989 0.950 . S
C1001 C997 1.393 . S
C1001 C1000 1.391 . S
C1002 H992 0.950 . S
C1002 C1003 1.386 . S
C1002 C1004 1.391 . S
C1003 C1002 1.386 . S
C1003 C1007 1.393 . S
C1004 H993 0.950 1_565 S
C1004 C1002 1.391 . S
C1004 C1005 1.400 . S
C1005 C999 1.491 . S
C1005 C1004 1.400 . S
C1005 C1006 1.398 . S
C1006 H994 0.950 . S
C1006 C1005 1.398 . S
C1006 C1007 1.391 . S
C1007 H995 0.950 . S
C1007 C1003 1.393 . S
C1007 C1006 1.391 . S
H1008 C1016 0.950 . S
H1009 C1021 0.950 . S
H1010 C1018 0.950 . S
H1011 C1020 0.950 . S
H1012 C1022 0.950 . S
H1013 C1024 0.950 . S
H1014 C1026 0.950 . S
H1015 C1027 0.950 . S
C1016 H1008 0.950 . S
C1016 C1017 1.386 . S
C1016 C1018 1.391 . S
C1017 C1016 1.386 . S
C1017 C1021 1.393 . S
C1018 H1010 0.950 . S
C1018 C1016 1.391 . S
C1018 C1019 1.400 . S
C1019 C1018 1.400 . S
C1019 C1020 1.398 . S
C1019 C1025 1.491 . S
C1020 H1011 0.950 . S
C1020 C1019 1.398 . S
C1020 C1021 1.391 . S
C1021 H1009 0.950 . S
C1021 C1017 1.393 . S
C1021 C1020 1.391 . S
C1022 H1012 0.950 . S
C1022 C1023 1.386 . S
C1022 C1024 1.391 . S
C1023 C1022 1.386 . S
C1023 C1027 1.393 . S
C1024 H1013 0.950 . S
C1024 C1022 1.391 . S
C1024 C1025 1.400 . S
C1025 C1019 1.491 . S
C1025 C1024 1.400 . S
C1025 C1026 1.398 . S
C1026 H1014 0.950 . S
C1026 C1025 1.398 . S
C1026 C1027 1.391 . S
C1027 H1015 0.950 . S
C1027 C1023 1.393 . S
C1027 C1026 1.391 . S
H1028 C1036 0.950 . S
H1029 C1041 0.950 . S
H1030 C1038 0.950 . S
H1031 C1040 0.950 . S
H1032 C1042 0.950 . S
H1033 C1044 0.950 . S
H1034 C1046 0.950 1_455 S
H1035 C1047 0.950 . S
C1036 H1028 0.950 . S
C1036 C1037 1.386 . S
C1036 C1038 1.391 . S
C1037 C1036 1.386 . S
C1037 C1041 1.393 1_455 S
C1038 H1030 0.950 . S
C1038 C1036 1.391 . S
C1038 C1039 1.400 1_455 S
C1039 C1038 1.400 1_655 S
C1039 C1040 1.398 . S
C1039 C1045 1.491 . S
C1040 H1031 0.950 . S
C1040 C1039 1.398 . S
C1040 C1041 1.391 . S
C1041 H1029 0.950 . S
C1041 C1037 1.393 1_655 S
C1041 C1040 1.391 . S
C1042 H1032 0.950 . S
C1042 C1043 1.386 . S
C1042 C1044 1.391 . S
C1043 C1042 1.386 . S
C1043 C1047 1.393 . S
C1044 H1033 0.950 . S
C1044 C1042 1.391 . S
C1044 C1045 1.400 . S
C1045 C1039 1.491 . S
C1045 C1044 1.400 . S
C1045 C1046 1.398 . S
C1046 H1034 0.950 1_655 S
C1046 C1045 1.398 . S
C1046 C1047 1.391 . S
C1047 H1035 0.950 . S
C1047 C1043 1.393 . S
C1047 C1046 1.391 . S
H1048 C1056 0.950 . S
H1049 C1061 0.950 . S
H1050 C1058 0.950 . S
H1051 C1060 0.950 . S
H1052 C1062 0.950 . S
H1053 C1064 0.950 . S
H1054 C1066 0.950 . S
H1055 C1067 0.950 . S
C1056 H1048 0.950 . S
C1056 C1057 1.386 . S
C1056 C1058 1.391 . S
C1057 C1056 1.386 . S
C1057 C1061 1.393 . S
C1058 H1050 0.950 . S
C1058 C1056 1.391 . S
C1058 C1059 1.400 . S
C1059 C1058 1.400 . S
C1059 C1060 1.398 . S
C1059 C1065 1.491 . S
C1060 H1051 0.950 . S
C1060 C1059 1.398 . S
C1060 C1061 1.391 . S
C1061 H1049 0.950 . S
C1061 C1057 1.393 . S
C1061 C1060 1.391 . S
C1062 H1052 0.950 . S
C1062 C1063 1.386 . S
C1062 C1064 1.391 . S
C1063 C1062 1.386 . S
C1063 C1067 1.393 . S
C1064 H1053 0.950 . S
C1064 C1062 1.391 . S
C1064 C1065 1.400 . S
C1065 C1059 1.491 . S
C1065 C1064 1.400 . S
C1065 C1066 1.398 . S
C1066 H1054 0.950 . S
C1066 C1065 1.398 . S
C1066 C1067 1.391 . S
C1067 H1055 0.950 . S
C1067 C1063 1.393 . S
C1067 C1066 1.391 . S
H1068 C1076 0.950 . S
H1069 C1081 0.950 . S
H1070 C1078 0.950 . S
H1071 C1080 0.950 . S
H1072 C1082 0.950 . S
H1073 C1084 0.950 . S
H1074 C1086 0.950 . S
H1075 C1087 0.950 . S
C1076 H1068 0.950 . S
C1076 C1077 1.386 . S
C1076 C1078 1.391 . S
C1077 C1076 1.386 . S
C1077 C1081 1.393 . S
C1078 H1070 0.950 . S
C1078 C1076 1.391 . S
C1078 C1079 1.400 . S
C1079 C1078 1.400 . S
C1079 C1080 1.398 . S
C1079 C1085 1.491 . S
C1080 H1071 0.950 . S
C1080 C1079 1.398 . S
C1080 C1081 1.391 . S
C1081 H1069 0.950 . S
C1081 C1077 1.393 . S
C1081 C1080 1.391 . S
C1082 H1072 0.950 . S
C1082 C1083 1.386 . S
C1082 C1084 1.391 . S
C1083 C1082 1.386 . S
C1083 C1087 1.393 . S
C1084 H1073 0.950 . S
C1084 C1082 1.391 . S
C1084 C1085 1.400 . S
C1085 C1079 1.491 . S
C1085 C1084 1.400 . S
C1085 C1086 1.398 . S
C1086 H1074 0.950 . S
C1086 C1085 1.398 . S
C1086 C1087 1.391 . S
C1087 H1075 0.950 . S
C1087 C1083 1.393 . S
C1087 C1086 1.391 . S
H1088 C1096 0.950 . S
H1089 C1101 0.950 . S
H1090 C1098 0.950 . S
H1091 C1100 0.950 . S
H1092 C1102 0.950 . S
H1093 C1104 0.950 . S
H1094 C1106 0.950 . S
H1095 C1107 0.950 . S
C1096 H1088 0.950 . S
C1096 C1097 1.386 . S
C1096 C1098 1.391 . S
C1097 C1096 1.386 . S
C1097 C1101 1.393 . S
C1098 H1090 0.950 . S
C1098 C1096 1.391 . S
C1098 C1099 1.400 . S
C1099 C1098 1.400 . S
C1099 C1100 1.398 . S
C1099 C1105 1.491 . S
C1100 H1091 0.950 . S
C1100 C1099 1.398 . S
C1100 C1101 1.391 . S
C1101 H1089 0.950 . S
C1101 C1097 1.393 . S
C1101 C1100 1.391 . S
C1102 H1092 0.950 . S
C1102 C1103 1.386 . S
C1102 C1104 1.391 1_565 S
C1103 C1102 1.386 . S
C1103 C1107 1.393 . S
C1104 H1093 0.950 . S
C1104 C1102 1.391 1_545 S
C1104 C1105 1.400 . S
C1105 C1099 1.491 . S
C1105 C1104 1.400 . S
C1105 C1106 1.398 . S
C1106 H1094 0.950 . S
C1106 C1105 1.398 . S
C1106 C1107 1.391 1_545 S
C1107 H1095 0.950 . S
C1107 C1103 1.393 . S
C1107 C1106 1.391 1_565 S
H1108 C1116 0.950 . S
H1109 C1121 0.950 . S
H1110 C1118 0.950 . S
H1111 C1120 0.950 . S
H1112 C1122 0.950 . S
H1113 C1124 0.950 . S
H1114 C1126 0.950 . S
H1115 C1127 0.950 . S
C1116 H1108 0.950 . S
C1116 C1117 1.386 . S
C1116 C1118 1.391 . S
C1117 C1116 1.386 . S
C1117 C1121 1.393 1_655 S
C1118 H1110 0.950 . S
C1118 C1116 1.391 . S
C1118 C1119 1.400 1_655 S
C1119 C1118 1.400 1_455 S
C1119 C1120 1.398 . S
C1119 C1125 1.491 . S
C1120 H1111 0.950 . S
C1120 C1119 1.398 . S
C1120 C1121 1.391 . S
C1121 H1109 0.950 . S
C1121 C1117 1.393 1_455 S
C1121 C1120 1.391 . S
C1122 H1112 0.950 . S
C1122 C1123 1.386 . S
C1122 C1124 1.391 . S
C1123 C1122 1.386 . S
C1123 C1127 1.393 . S
C1124 H1113 0.950 . S
C1124 C1122 1.391 . S
C1124 C1125 1.400 . S
C1125 C1119 1.491 . S
C1125 C1124 1.400 . S
C1125 C1126 1.398 . S
C1126 H1114 0.950 . S
C1126 C1125 1.398 . S
C1126 C1127 1.391 . S
C1127 H1115 0.950 . S
C1127 C1123 1.393 . S
C1127 C1126 1.391 . S
H1128 C1136 0.950 . S
H1129 C1141 0.950 . S
H1130 C1138 0.950 . S
H1131 C1140 0.950 . S
H1132 C1142 0.950 . S
H1133 C1144 0.950 . S
H1134 C1146 0.950 . S
H1135 C1147 0.950 . S
C1136 H1128 0.950 . S
C1136 C1137 1.386 . S
C1136 C1138 1.391 . S
C1137 C1136 1.386 . S
C1137 C1141 1.393 . S
C1138 H1130 0.950 . S
C1138 C1136 1.391 . S
C1138 C1139 1.400 . S
C1139 C1138 1.400 . S
C1139 C1140 1.398 . S
C1139 C1145 1.491 . S
C1140 H1131 0.950 . S
C1140 C1139 1.398 . S
C1140 C1141 1.391 . S
C1141 H1129 0.950 . S
C1141 C1137 1.393 . S
C1141 C1140 1.391 . S
C1142 H1132 0.950 . S
C1142 C1143 1.386 . S
C1142 C1144 1.391 . S
C1143 C1142 1.386 . S
C1143 C1147 1.393 . S
C1144 H1133 0.950 . S
C1144 C1142 1.391 . S
C1144 C1145 1.400 . S
C1145 C1139 1.491 . S
C1145 C1144 1.400 . S
C1145 C1146 1.398 . S
C1146 H1134 0.950 . S
C1146 C1145 1.398 . S
C1146 C1147 1.391 . S
C1147 H1135 0.950 . S
C1147 C1143 1.393 . S
C1147 C1146 1.391 . S
H1148 C1156 0.950 . S
H1149 C1161 0.950 . S
H1150 C1158 0.945 . S
H1151 C1160 0.950 . S
H1152 C1162 0.950 . S
H1153 C1164 0.950 . S
H1154 C1166 0.950 . S
H1155 C1167 0.950 . S
C1156 H1148 0.950 . S
C1156 C1157 1.386 . S
C1156 C1158 1.401 . S
C1157 C1156 1.386 . S
C1157 C1161 1.393 1_565 S
C1158 H1150 0.945 . S
C1158 C1156 1.401 . S
C1158 C1159 1.395 1_565 S
C1159 C1158 1.395 1_545 S
C1159 C1160 1.398 . S
C1159 C1165 1.491 . S
C1160 H1151 0.950 . S
C1160 C1159 1.398 . S
C1160 C1161 1.391 . S
C1161 H1149 0.950 . S
C1161 C1157 1.393 1_545 S
C1161 C1160 1.391 . S
C1162 H1152 0.950 . S
C1162 C1163 1.386 . S
C1162 C1164 1.391 . S
C1163 C1162 1.386 . S
C1163 C1167 1.393 . S
C1164 H1153 0.950 . S
C1164 C1162 1.391 . S
C1164 C1165 1.400 . S
C1165 C1159 1.491 . S
C1165 C1164 1.400 . S
C1165 C1166 1.398 . S
C1166 H1154 0.950 . S
C1166 C1165 1.398 . S
C1166 C1167 1.391 . S
C1167 H1155 0.950 . S
C1167 C1163 1.393 . S
C1167 C1166 1.391 . S
H1168 C1176 0.950 . S
H1169 C1181 0.950 . S
H1170 C1178 0.950 . S
H1171 C1180 0.950 . S
H1172 C1182 0.950 . S
H1173 C1184 0.950 . S
H1174 C1186 0.950 . S
H1175 C1187 0.950 . S
C1176 H1168 0.950 . S
C1176 C1177 1.386 1_455 S
C1176 C1178 1.391 . S
C1177 C1176 1.386 1_655 S
C1177 C1181 1.393 . S
C1178 H1170 0.950 . S
C1178 C1176 1.391 . S
C1178 C1179 1.400 . S
C1179 C1178 1.400 . S
C1179 C1180 1.398 1_455 S
C1179 C1185 1.491 . S
C1180 H1171 0.950 . S
C1180 C1179 1.398 1_655 S
C1180 C1181 1.391 . S
C1181 H1169 0.950 . S
C1181 C1177 1.393 . S
C1181 C1180 1.391 . S
C1182 H1172 0.950 . S
C1182 C1183 1.386 . S
C1182 C1184 1.391 . S
C1183 C1182 1.386 . S
C1183 C1187 1.393 . S
C1184 H1173 0.950 . S
C1184 C1182 1.391 . S
C1184 C1185 1.400 . S
C1185 C1179 1.491 . S
C1185 C1184 1.400 . S
C1185 C1186 1.398 . S
C1186 H1174 0.950 . S
C1186 C1185 1.398 . S
C1186 C1187 1.391 . S
C1187 H1175 0.950 . S
C1187 C1183 1.393 . S
C1187 C1186 1.391 . S
H1188 C1196 0.950 . S
H1189 C1201 0.950 . S
H1190 C1198 0.950 . S
H1191 C1200 0.950 . S
H1192 C1202 0.950 1_655 S
H1193 C1204 0.954 . S
H1194 C1206 0.950 . S
H1195 C1207 0.950 . S
C1196 H1188 0.950 . S
C1196 C1197 1.386 . S
C1196 C1198 1.391 . S
C1197 C1196 1.386 . S
C1197 C1201 1.393 . S
C1198 H1190 0.950 . S
C1198 C1196 1.391 . S
C1198 C1199 1.400 . S
C1199 C1198 1.400 . S
C1199 C1200 1.398 . S
C1199 C1205 1.491 1_554 S
C1200 H1191 0.950 . S
C1200 C1199 1.398 . S
C1200 C1201 1.391 . S
C1201 H1189 0.950 . S
C1201 C1197 1.393 . S
C1201 C1200 1.391 . S
C1202 H1192 0.950 1_455 S
C1202 C1203 1.386 . S
C1202 C1204 1.391 . S
C1203 C1202 1.386 . S
C1203 C1207 1.393 . S
C1204 H1193 0.954 . S
C1204 C1202 1.391 . S
C1204 C1205 1.400 . S
C1205 C1199 1.491 1_556 S
C1205 C1204 1.400 . S
C1205 C1206 1.398 . S
C1206 H1194 0.950 . S
C1206 C1205 1.398 . S
C1206 C1207 1.391 . S
C1207 H1195 0.950 . S
C1207 C1203 1.393 . S
C1207 C1206 1.391 . S
H1208 C1216 0.950 . S
H1209 C1221 0.950 . S
H1210 C1218 0.950 . S
H1211 C1220 0.950 . S
H1212 C1222 0.950 . S
H1213 C1224 0.950 . S
H1214 C1226 0.950 . S
H1215 C1227 0.950 . S
C1216 H1208 0.950 . S
C1216 C1217 1.386 . S
C1216 C1218 1.391 . S
C1217 C1216 1.386 . S
C1217 C1221 1.393 . S
C1218 H1210 0.950 . S
C1218 C1216 1.391 . S
C1218 C1219 1.400 . S
C1219 C1218 1.400 . S
C1219 C1220 1.398 . S
C1219 C1225 1.491 1_556 S
C1220 H1211 0.950 . S
C1220 C1219 1.398 . S
C1220 C1221 1.391 . S
C1221 H1209 0.950 . S
C1221 C1217 1.393 . S
C1221 C1220 1.391 . S
C1222 H1212 0.950 . S
C1222 C1223 1.386 . S
C1222 C1224 1.391 . S
C1223 C1222 1.386 . S
C1223 C1227 1.393 . S
C1224 H1213 0.950 . S
C1224 C1222 1.391 . S
C1224 C1225 1.400 . S
C1225 C1219 1.491 1_554 S
C1225 C1224 1.400 . S
C1225 C1226 1.398 . S
C1226 H1214 0.950 . S
C1226 C1225 1.398 . S
C1226 C1227 1.391 . S
C1227 H1215 0.950 . S
C1227 C1223 1.393 . S
C1227 C1226 1.391 . S
H1228 C1236 0.950 1_565 S
H1229 C1241 0.950 . S
H1230 C1238 0.950 1_565 S
H1231 C1240 0.950 . S
H1232 C1242 0.950 . S
H1233 C1244 0.950 . S
H1234 C1246 0.950 1_565 S
H1235 C1247 0.950 1_565 S
C1236 H1228 0.950 1_545 S
C1236 C1237 1.386 . S
C1236 C1238 1.391 . S
C1237 C1236 1.386 . S
C1237 C1241 1.393 . S
C1238 H1230 0.950 1_545 S
C1238 C1236 1.391 . S
C1238 C1239 1.400 . S
C1239 C1238 1.400 . S
C1239 C1240 1.398 . S
C1239 C1245 1.491 1_556 S
C1240 H1231 0.950 . S
C1240 C1239 1.398 . S
C1240 C1241 1.391 . S
C1241 H1229 0.950 . S
C1241 C1237 1.393 . S
C1241 C1240 1.391 . S
C1242 H1232 0.950 . S
C1242 C1243 1.386 . S
C1242 C1244 1.391 . S
C1243 C1242 1.386 . S
C1243 C1247 1.393 . S
C1244 H1233 0.950 . S
C1244 C1242 1.391 . S
C1244 C1245 1.400 . S
C1245 C1239 1.491 1_554 S
C1245 C1244 1.400 . S
C1245 C1246 1.398 . S
C1246 H1234 0.950 1_545 S
C1246 C1245 1.398 . S
C1246 C1247 1.391 . S
C1247 H1235 0.950 1_545 S
C1247 C1243 1.393 . S
C1247 C1246 1.391 . S
H1248 C1256 0.950 1_655 S
H1249 C1261 0.950 . S
H1250 C1258 0.950 1_655 S
H1251 C1260 0.950 . S
H1252 C1262 0.950 . S
H1253 C1264 0.950 . S
H1254 C1266 0.950 1_655 S
H1255 C1267 0.950 1_655 S
C1256 H1248 0.950 1_455 S
C1256 C1257 1.386 . S
C1256 C1258 1.391 . S
C1257 C1256 1.386 . S
C1257 C1261 1.393 . S
C1258 H1250 0.950 1_455 S
C1258 C1256 1.391 . S
C1258 C1259 1.400 . S
C1259 C1258 1.400 . S
C1259 C1260 1.398 . S
C1259 C1265 1.491 1_556 S
C1260 H1251 0.950 . S
C1260 C1259 1.398 . S
C1260 C1261 1.391 . S
C1261 H1249 0.950 . S
C1261 C1257 1.393 . S
C1261 C1260 1.391 . S
C1262 H1252 0.950 . S
C1262 C1263 1.386 . S
C1262 C1264 1.391 . S
C1263 C1262 1.386 . S
C1263 C1267 1.393 . S
C1264 H1253 0.950 . S
C1264 C1262 1.391 . S
C1264 C1265 1.400 . S
C1265 C1259 1.491 1_554 S
C1265 C1264 1.400 . S
C1265 C1266 1.398 . S
C1266 H1254 0.950 1_455 S
C1266 C1265 1.398 . S
C1266 C1267 1.391 . S
C1267 H1255 0.950 1_455 S
C1267 C1263 1.393 . S
C1267 C1266 1.391 . S
H1268 C1276 0.950 . S
H1269 C1281 0.950 . S
H1270 C1278 0.950 . S
H1271 C1280 0.950 . S
H1272 C1282 0.950 . S
H1273 C1284 0.950 . S
H1274 C1286 0.950 . S
H1275 C1287 0.950 . S
C1276 H1268 0.950 . S
C1276 C1277 1.386 . S
C1276 C1278 1.391 . S
C1277 C1276 1.386 . S
C1277 C1281 1.393 . S
C1278 H1270 0.950 . S
C1278 C1276 1.391 . S
C1278 C1279 1.400 . S
C1279 C1278 1.400 . S
C1279 C1280 1.398 . S
C1279 C1285 1.491 1_554 S
C1280 H1271 0.950 . S
C1280 C1279 1.398 . S
C1280 C1281 1.391 . S
C1281 H1269 0.950 . S
C1281 C1277 1.393 . S
C1281 C1280 1.391 . S
C1282 H1272 0.950 . S
C1282 C1283 1.386 . S
C1282 C1284 1.391 . S
C1283 C1282 1.386 . S
C1283 C1287 1.393 . S
C1284 H1273 0.950 . S
C1284 C1282 1.391 . S
C1284 C1285 1.400 . S
C1285 C1279 1.491 1_556 S
C1285 C1284 1.400 . S
C1285 C1286 1.398 . S
C1286 H1274 0.950 . S
C1286 C1285 1.398 . S
C1286 C1287 1.391 . S
C1287 H1275 0.950 . S
C1287 C1283 1.393 . S
C1287 C1286 1.391 . S
H1288 C1296 0.950 . S
H1289 C1301 0.950 . S
H1290 C1298 0.950 . S
H1291 C1300 0.950 . S
H1292 C1302 0.950 . S
H1293 C1304 0.950 . S
H1294 C1306 0.950 . S
H1295 C1307 0.950 . S
C1296 H1288 0.950 . S
C1296 C1297 1.386 . S
C1296 C1298 1.391 . S
C1297 C1296 1.386 . S
C1297 C1301 1.393 . S
C1298 H1290 0.950 . S
C1298 C1296 1.391 . S
C1298 C1299 1.400 . S
C1299 C1298 1.400 . S
C1299 C1300 1.398 . S
C1299 C1305 1.491 1_556 S
C1300 H1291 0.950 . S
C1300 C1299 1.398 . S
C1300 C1301 1.391 . S
C1301 H1289 0.950 . S
C1301 C1297 1.393 . S
C1301 C1300 1.391 . S
C1302 H1292 0.950 . S
C1302 C1303 1.386 . S
C1302 C1304 1.391 . S
C1303 C1302 1.386 . S
C1303 C1307 1.393 . S
C1304 H1293 0.950 . S
C1304 C1302 1.391 . S
C1304 C1305 1.400 . S
C1305 C1299 1.491 1_554 S
C1305 C1304 1.400 . S
C1305 C1306 1.398 . S
C1306 H1294 0.950 . S
C1306 C1305 1.398 . S
C1306 C1307 1.391 . S
C1307 H1295 0.950 . S
C1307 C1303 1.393 . S
C1307 C1306 1.391 . S
H1308 C1316 0.950 . S
H1309 C1321 0.950 . S
H1310 C1318 0.950 . S
H1311 C1320 0.950 . S
H1312 C1322 0.950 . S
H1313 C1324 0.950 . S
H1314 C1326 0.950 . S
H1315 C1327 0.950 . S
C1316 H1308 0.950 . S
C1316 C1317 1.386 . S
C1316 C1318 1.391 . S
C1317 C1316 1.386 . S
C1317 C1321 1.393 . S
C1318 H1310 0.950 . S
C1318 C1316 1.391 . S
C1318 C1319 1.400 . S
C1319 C1318 1.400 . S
C1319 C1320 1.398 . S
C1319 C1325 1.491 . S
C1320 H1311 0.950 . S
C1320 C1319 1.398 . S
C1320 C1321 1.391 . S
C1321 H1309 0.950 . S
C1321 C1317 1.393 . S
C1321 C1320 1.391 . S
C1322 H1312 0.950 . S
C1322 C1323 1.386 . S
C1322 C1324 1.391 . S
C1323 C1322 1.386 . S
C1323 C1327 1.393 . S
C1324 H1313 0.950 . S
C1324 C1322 1.391 . S
C1324 C1325 1.400 . S
C1325 C1319 1.491 . S
C1325 C1324 1.400 . S
C1325 C1326 1.398 . S
C1326 H1314 0.950 . S
C1326 C1325 1.398 . S
C1326 C1327 1.391 . S
C1327 H1315 0.950 . S
C1327 C1323 1.393 . S
C1327 C1326 1.391 . S
H1328 C1336 0.950 . S
H1329 C1341 0.950 . S
H1330 C1338 0.950 . S
H1331 C1340 0.950 . S
H1332 C1342 0.950 . S
H1333 C1344 0.950 . S
H1334 C1346 0.950 . S
H1335 C1347 0.950 . S
C1336 H1328 0.950 . S
C1336 C1337 1.386 . S
C1336 C1338 1.391 . S
C1337 C1336 1.386 . S
C1337 C1341 1.393 . S
C1338 H1330 0.950 . S
C1338 C1336 1.391 . S
C1338 C1339 1.400 . S
C1339 C1338 1.400 . S
C1339 C1340 1.398 . S
C1339 C1345 1.491 . S
C1340 H1331 0.950 . S
C1340 C1339 1.398 . S
C1340 C1341 1.391 . S
C1341 H1329 0.950 . S
C1341 C1337 1.393 . S
C1341 C1340 1.391 . S
C1342 H1332 0.950 . S
C1342 C1343 1.386 . S
C1342 C1344 1.391 . S
C1343 C1342 1.386 . S
C1343 C1347 1.393 . S
C1344 H1333 0.950 . S
C1344 C1342 1.391 . S
C1344 C1345 1.400 . S
C1345 C1339 1.491 . S
C1345 C1344 1.400 . S
C1345 C1346 1.398 . S
C1346 H1334 0.950 . S
C1346 C1345 1.398 . S
C1346 C1347 1.391 . S
C1347 H1335 0.950 . S
C1347 C1343 1.393 . S
C1347 C1346 1.391 . S
H1348 C1356 0.950 . S
H1349 C1361 0.950 . S
H1350 C1358 0.950 . S
H1351 C1360 0.950 . S
H1352 C1362 0.950 . S
H1353 C1364 0.950 . S
H1354 C1366 0.950 . S
H1355 C1367 0.950 . S
C1356 H1348 0.950 . S
C1356 C1357 1.386 . S
C1356 C1358 1.391 . S
C1357 C1356 1.386 . S
C1357 C1361 1.393 . S
C1358 H1350 0.950 . S
C1358 C1356 1.391 . S
C1358 C1359 1.400 . S
C1359 C1358 1.400 . S
C1359 C1360 1.398 . S
C1359 C1365 1.491 . S
C1360 H1351 0.950 . S
C1360 C1359 1.398 . S
C1360 C1361 1.391 . S
C1361 H1349 0.950 . S
C1361 C1357 1.393 . S
C1361 C1360 1.391 . S
C1362 H1352 0.950 . S
C1362 C1363 1.386 . S
C1362 C1364 1.391 . S
C1363 C1362 1.386 . S
C1363 C1367 1.393 . S
C1364 H1353 0.950 . S
C1364 C1362 1.391 . S
C1364 C1365 1.400 . S
C1365 C1359 1.491 . S
C1365 C1364 1.400 . S
C1365 C1366 1.398 . S
C1366 H1354 0.950 . S
C1366 C1365 1.398 . S
C1366 C1367 1.391 . S
C1367 H1355 0.950 . S
C1367 C1363 1.393 . S
C1367 C1366 1.391 . S
H1368 C1376 0.950 . S
H1369 C1381 0.950 . S
H1370 C1378 0.950 . S
H1371 C1380 0.950 . S
H1372 C1382 0.950 . S
H1373 C1384 0.950 . S
H1374 C1386 0.950 . S
H1375 C1387 0.950 . S
C1376 H1368 0.950 . S
C1376 C1377 1.386 . S
C1376 C1378 1.391 . S
C1377 C1376 1.386 . S
C1377 C1381 1.393 . S
C1378 H1370 0.950 . S
C1378 C1376 1.391 . S
C1378 C1379 1.400 . S
C1379 C1378 1.400 . S
C1379 C1380 1.398 . S
C1379 C1385 1.491 . S
C1380 H1371 0.950 . S
C1380 C1379 1.398 . S
C1380 C1381 1.391 . S
C1381 H1369 0.950 . S
C1381 C1377 1.393 . S
C1381 C1380 1.391 . S
C1382 H1372 0.950 . S
C1382 C1383 1.386 . S
C1382 C1384 1.391 . S
C1383 C1382 1.386 . S
C1383 C1387 1.393 . S
C1384 H1373 0.950 . S
C1384 C1382 1.391 . S
C1384 C1385 1.400 . S
C1385 C1379 1.491 . S
C1385 C1384 1.400 . S
C1385 C1386 1.398 . S
C1386 H1374 0.950 . S
C1386 C1385 1.398 . S
C1386 C1387 1.391 . S
C1387 H1375 0.950 . S
C1387 C1383 1.393 . S
C1387 C1386 1.391 . S
H1388 C1396 0.950 . S
H1389 C1401 0.950 . S
H1390 C1398 0.950 . S
H1391 C1400 0.950 . S
H1392 C1402 0.950 . S
H1393 C1404 0.950 . S
H1394 C1406 0.950 . S
H1395 C1407 0.950 . S
C1396 H1388 0.950 . S
C1396 C1397 1.386 . S
C1396 C1398 1.391 . S
C1397 C1396 1.386 . S
C1397 C1401 1.393 . S
C1398 H1390 0.950 . S
C1398 C1396 1.391 . S
C1398 C1399 1.400 . S
C1399 C1398 1.400 . S
C1399 C1400 1.398 . S
C1399 C1405 1.491 . S
C1400 H1391 0.950 . S
C1400 C1399 1.398 . S
C1400 C1401 1.391 . S
C1401 H1389 0.950 . S
C1401 C1397 1.393 . S
C1401 C1400 1.391 . S
C1402 H1392 0.950 . S
C1402 C1403 1.386 . S
C1402 C1404 1.391 . S
C1403 C1402 1.386 . S
C1403 C1407 1.393 . S
C1404 H1393 0.950 . S
C1404 C1402 1.391 . S
C1404 C1405 1.400 . S
C1405 C1399 1.491 . S
C1405 C1404 1.400 . S
C1405 C1406 1.398 . S
C1406 H1394 0.950 . S
C1406 C1405 1.398 . S
C1406 C1407 1.391 . S
C1407 H1395 0.950 . S
C1407 C1403 1.393 . S
C1407 C1406 1.391 . S
H1408 C1416 0.950 . S
H1409 C1421 0.950 . S
H1410 C1418 0.950 . S
H1411 C1420 0.950 . S
H1412 C1422 0.950 . S
H1413 C1424 0.950 . S
H1414 C1426 0.950 . S
H1415 C1427 0.950 . S
C1416 H1408 0.950 . S
C1416 C1417 1.386 . S
C1416 C1418 1.391 . S
C1417 C1416 1.386 . S
C1417 C1421 1.393 . S
C1418 H1410 0.950 . S
C1418 C1416 1.391 . S
C1418 C1419 1.400 . S
C1419 C1418 1.400 . S
C1419 C1420 1.398 . S
C1419 C1425 1.491 . S
C1420 H1411 0.950 . S
C1420 C1419 1.398 . S
C1420 C1421 1.391 . S
C1421 H1409 0.950 . S
C1421 C1417 1.393 . S
C1421 C1420 1.391 . S
C1422 H1412 0.950 . S
C1422 C1423 1.386 . S
C1422 C1424 1.391 . S
C1423 C1422 1.386 . S
C1423 C1427 1.393 . S
C1424 H1413 0.950 . S
C1424 C1422 1.391 . S
C1424 C1425 1.400 . S
C1425 C1419 1.491 . S
C1425 C1424 1.400 . S
C1425 C1426 1.398 . S
C1426 H1414 0.950 . S
C1426 C1425 1.398 . S
C1426 C1427 1.391 . S
C1427 H1415 0.950 . S
C1427 C1423 1.393 . S
C1427 C1426 1.391 . S
H1428 C1436 0.950 . S
H1429 C1441 0.950 . S
H1430 C1438 0.950 . S
H1431 C1440 0.950 . S
H1432 C1442 0.950 . S
H1433 C1444 0.950 . S
H1434 C1446 0.950 . S
H1435 C1447 0.950 . S
C1436 H1428 0.950 . S
C1436 C1437 1.386 . S
C1436 C1438 1.391 . S
C1437 C1436 1.386 . S
C1437 C1441 1.393 . S
C1438 H1430 0.950 . S
C1438 C1436 1.391 . S
C1438 C1439 1.400 . S
C1439 C1438 1.400 . S
C1439 C1440 1.398 . S
C1439 C1445 1.491 . S
C1440 H1431 0.950 . S
C1440 C1439 1.398 . S
C1440 C1441 1.391 . S
C1441 H1429 0.950 . S
C1441 C1437 1.393 . S
C1441 C1440 1.391 . S
C1442 H1432 0.950 . S
C1442 C1443 1.386 . S
C1442 C1444 1.391 . S
C1443 C1442 1.386 . S
C1443 C1447 1.393 . S
C1444 H1433 0.950 . S
C1444 C1442 1.391 . S
C1444 C1445 1.400 . S
C1445 C1439 1.491 . S
C1445 C1444 1.400 . S
C1445 C1446 1.398 . S
C1446 H1434 0.950 . S
C1446 C1445 1.398 . S
C1446 C1447 1.391 . S
C1447 H1435 0.950 . S
C1447 C1443 1.393 . S
C1447 C1446 1.391 . S
H1448 C1456 0.950 . S
H1449 C1461 0.950 . S
H1450 C1458 0.950 . S
H1451 C1460 0.950 . S
H1452 C1462 0.950 . S
H1453 C1464 0.950 . S
H1454 C1466 0.950 . S
H1455 C1467 0.950 . S
C1456 H1448 0.950 . S
C1456 C1457 1.386 . S
C1456 C1458 1.391 . S
C1457 C1456 1.386 . S
C1457 C1461 1.393 . S
C1458 H1450 0.950 . S
C1458 C1456 1.391 . S
C1458 C1459 1.400 . S
C1459 C1458 1.400 . S
C1459 C1460 1.398 . S
C1459 C1465 1.491 . S
C1460 H1451 0.950 . S
C1460 C1459 1.398 . S
C1460 C1461 1.391 . S
C1461 H1449 0.950 . S
C1461 C1457 1.393 . S
C1461 C1460 1.391 . S
C1462 H1452 0.950 . S
C1462 C1463 1.386 . S
C1462 C1464 1.391 . S
C1463 C1462 1.386 . S
C1463 C1467 1.393 . S
C1464 H1453 0.950 . S
C1464 C1462 1.391 . S
C1464 C1465 1.400 . S
C1465 C1459 1.491 . S
C1465 C1464 1.400 . S
C1465 C1466 1.398 . S
C1466 H1454 0.950 . S
C1466 C1465 1.398 . S
C1466 C1467 1.391 . S
C1467 H1455 0.950 . S
C1467 C1463 1.393 . S
C1467 C1466 1.391 . S
H1468 C1476 0.950 . S
H1469 C1481 0.950 . S
H1470 C1478 0.950 . S
H1471 C1480 0.950 . S
H1472 C1482 0.950 . S
H1473 C1484 0.950 . S
H1474 C1486 0.950 . S
H1475 C1487 0.950 . S
C1476 H1468 0.950 . S
C1476 C1477 1.386 . S
C1476 C1478 1.391 . S
C1477 C1476 1.386 . S
C1477 C1481 1.393 . S
C1478 H1470 0.950 . S
C1478 C1476 1.391 . S
C1478 C1479 1.400 . S
C1479 C1478 1.400 . S
C1479 C1480 1.398 . S
C1479 C1485 1.491 . S
C1480 H1471 0.950 . S
C1480 C1479 1.398 . S
C1480 C1481 1.391 . S
C1481 H1469 0.950 . S
C1481 C1477 1.393 . S
C1481 C1480 1.391 . S
C1482 H1472 0.950 . S
C1482 C1483 1.386 . S
C1482 C1484 1.391 . S
C1483 C1482 1.386 . S
C1483 C1487 1.393 . S
C1484 H1473 0.950 . S
C1484 C1482 1.391 . S
C1484 C1485 1.400 . S
C1485 C1479 1.491 . S
C1485 C1484 1.400 . S
C1485 C1486 1.398 . S
C1486 H1474 0.950 . S
C1486 C1485 1.398 . S
C1486 C1487 1.391 . S
C1487 H1475 0.950 . S
C1487 C1483 1.393 . S
C1487 C1486 1.391 . S
H1488 C1496 0.950 . S
H1489 C1501 0.950 . S
H1490 C1498 0.950 . S
H1491 C1500 0.950 . S
H1492 C1502 0.950 . S
H1493 C1504 0.950 . S
H1494 C1506 0.950 . S
H1495 C1507 0.950 . S
C1496 H1488 0.950 . S
C1496 C1497 1.386 . S
C1496 C1498 1.391 . S
C1497 C1496 1.386 . S
C1497 C1501 1.393 . S
C1498 H1490 0.950 . S
C1498 C1496 1.391 . S
C1498 C1499 1.400 . S
C1499 C1498 1.400 . S
C1499 C1500 1.398 . S
C1499 C1505 1.491 . S
C1500 H1491 0.950 . S
C1500 C1499 1.398 . S
C1500 C1501 1.391 . S
C1501 H1489 0.950 . S
C1501 C1497 1.393 . S
C1501 C1500 1.391 . S
C1502 H1492 0.950 . S
C1502 C1503 1.386 . S
C1502 C1504 1.391 . S
C1503 C1502 1.386 . S
C1503 C1507 1.393 . S
C1504 H1493 0.950 . S
C1504 C1502 1.391 . S
C1504 C1505 1.400 . S
C1505 C1499 1.491 . S
C1505 C1504 1.400 . S
C1505 C1506 1.398 . S
C1506 H1494 0.950 . S
C1506 C1505 1.398 . S
C1506 C1507 1.391 . S
C1507 H1495 0.950 . S
C1507 C1503 1.393 . S
C1507 C1506 1.391 . S
H1508 C1516 0.950 . S
H1509 C1521 0.950 . S
H1510 C1518 0.950 . S
H1511 C1520 0.950 . S
H1512 C1522 0.950 . S
H1513 C1524 0.950 . S
H1514 C1526 0.950 . S
H1515 C1527 0.950 . S
C1516 H1508 0.950 . S
C1516 C1517 1.386 . S
C1516 C1518 1.391 . S
C1517 C1516 1.386 . S
C1517 C1521 1.393 . S
C1518 H1510 0.950 . S
C1518 C1516 1.391 . S
C1518 C1519 1.400 . S
C1519 C1518 1.400 . S
C1519 C1520 1.398 . S
C1519 C1525 1.491 . S
C1520 H1511 0.950 . S
C1520 C1519 1.398 . S
C1520 C1521 1.391 . S
C1521 H1509 0.950 . S
C1521 C1517 1.393 . S
C1521 C1520 1.391 . S
C1522 H1512 0.950 . S
C1522 C1523 1.386 . S
C1522 C1524 1.391 . S
C1523 C1522 1.386 . S
C1523 C1527 1.393 . S
C1524 H1513 0.950 . S
C1524 C1522 1.391 . S
C1524 C1525 1.400 . S
C1525 C1519 1.491 . S
C1525 C1524 1.400 . S
C1525 C1526 1.398 . S
C1526 H1514 0.950 . S
C1526 C1525 1.398 . S
C1526 C1527 1.391 . S
C1527 H1515 0.950 . S
C1527 C1523 1.393 . S
C1527 C1526 1.391 . S
H1528 C1536 0.950 . S
H1529 C1541 0.950 . S
H1530 C1538 0.950 . S
H1531 C1540 0.950 . S
H1532 C1542 0.950 . S
H1533 C1544 0.950 . S
H1534 C1546 0.950 . S
H1535 C1547 0.950 . S
C1536 H1528 0.950 . S
C1536 C1537 1.386 . S
C1536 C1538 1.391 . S
C1537 C1536 1.386 . S
C1537 C1541 1.393 . S
C1538 H1530 0.950 . S
C1538 C1536 1.391 . S
C1538 C1539 1.400 . S
C1539 C1538 1.400 . S
C1539 C1540 1.398 . S
C1539 C1545 1.491 . S
C1540 H1531 0.950 . S
C1540 C1539 1.398 . S
C1540 C1541 1.391 . S
C1541 H1529 0.950 . S
C1541 C1537 1.393 . S
C1541 C1540 1.391 . S
C1542 H1532 0.950 . S
C1542 C1543 1.386 . S
C1542 C1544 1.391 . S
C1543 C1542 1.386 . S
C1543 C1547 1.393 . S
C1544 H1533 0.950 . S
C1544 C1542 1.391 . S
C1544 C1545 1.400 . S
C1545 C1539 1.491 . S
C1545 C1544 1.400 . S
C1545 C1546 1.398 . S
C1546 H1534 0.950 . S
C1546 C1545 1.398 . S
C1546 C1547 1.391 . S
C1547 H1535 0.950 . S
C1547 C1543 1.393 . S
C1547 C1546 1.391 . S
H1548 C1556 0.950 . S
H1549 C1561 0.950 . S
H1550 C1558 0.950 . S
H1551 C1560 0.950 . S
H1552 C1562 0.950 . S
H1553 C1564 0.950 . S
H1554 C1566 0.950 . S
H1555 C1567 0.950 . S
C1556 H1548 0.950 . S
C1556 C1557 1.386 . S
C1556 C1558 1.391 . S
C1557 C1556 1.386 . S
C1557 C1561 1.393 . S
C1558 H1550 0.950 . S
C1558 C1556 1.391 . S
C1558 C1559 1.400 . S
C1559 C1558 1.400 . S
C1559 C1560 1.398 . S
C1559 C1565 1.491 . S
C1560 H1551 0.950 . S
C1560 C1559 1.398 . S
C1560 C1561 1.391 . S
C1561 H1549 0.950 . S
C1561 C1557 1.393 . S
C1561 C1560 1.391 . S
C1562 H1552 0.950 . S
C1562 C1563 1.386 . S
C1562 C1564 1.391 . S
C1563 C1562 1.386 . S
C1563 C1567 1.393 . S
C1564 H1553 0.950 . S
C1564 C1562 1.391 . S
C1564 C1565 1.400 . S
C1565 C1559 1.491 . S
C1565 C1564 1.400 . S
C1565 C1566 1.398 . S
C1566 H1554 0.950 . S
C1566 C1565 1.398 . S
C1566 C1567 1.391 . S
C1567 H1555 0.950 . S
C1567 C1563 1.393 . S
C1567 C1566 1.391 . S
H1568 C1576 0.950 . S
H1569 C1581 0.950 . S
H1570 C1578 0.950 . S
H1571 C1580 0.950 . S
H1572 C1582 0.950 . S
H1573 C1584 0.950 . S
H1574 C1586 0.950 . S
H1575 C1587 0.950 . S
C1576 H1568 0.950 . S
C1576 C1577 1.386 . S
C1576 C1578 1.391 . S
C1577 C1576 1.386 . S
C1577 C1581 1.393 . S
C1578 H1570 0.950 . S
C1578 C1576 1.391 . S
C1578 C1579 1.400 . S
C1579 C1578 1.400 . S
C1579 C1580 1.398 . S
C1579 C1585 1.491 . S
C1580 H1571 0.950 . S
C1580 C1579 1.398 . S
C1580 C1581 1.391 . S
C1581 H1569 0.950 . S
C1581 C1577 1.393 . S
C1581 C1580 1.391 . S
C1582 H1572 0.950 . S
C1582 C1583 1.386 . S
C1582 C1584 1.391 . S
C1583 C1582 1.386 . S
C1583 C1587 1.393 . S
C1584 H1573 0.950 . S
C1584 C1582 1.391 . S
C1584 C1585 1.400 . S
C1585 C1579 1.491 . S
C1585 C1584 1.400 . S
C1585 C1586 1.398 . S
C1586 H1574 0.950 . S
C1586 C1585 1.398 . S
C1586 C1587 1.391 . S
C1587 H1575 0.950 . S
C1587 C1583 1.393 . S
C1587 C1586 1.391 . S
H1588 C1596 0.950 . S
H1589 C1601 0.950 . S
H1590 C1598 0.950 . S
H1591 C1600 0.950 . S
H1592 C1602 0.950 . S
H1593 C1604 0.950 . S
H1594 C1606 0.950 . S
H1595 C1607 0.950 . S
C1596 H1588 0.950 . S
C1596 C1597 1.386 . S
C1596 C1598 1.391 . S
C1597 C1596 1.386 . S
C1597 C1601 1.393 . S
C1598 H1590 0.950 . S
C1598 C1596 1.391 . S
C1598 C1599 1.400 . S
C1599 C1598 1.400 . S
C1599 C1600 1.398 . S
C1599 C1605 1.491 . S
C1600 H1591 0.950 . S
C1600 C1599 1.398 . S
C1600 C1601 1.391 . S
C1601 H1589 0.950 . S
C1601 C1597 1.393 . S
C1601 C1600 1.391 . S
C1602 H1592 0.950 . S
C1602 C1603 1.386 . S
C1602 C1604 1.391 . S
C1603 C1602 1.386 . S
C1603 C1607 1.393 . S
C1604 H1593 0.950 . S
C1604 C1602 1.391 . S
C1604 C1605 1.400 . S
C1605 C1599 1.491 . S
C1605 C1604 1.400 . S
C1605 C1606 1.398 . S
C1606 H1594 0.950 . S
C1606 C1605 1.398 . S
C1606 C1607 1.391 . S
C1607 H1595 0.950 . S
C1607 C1603 1.393 . S
C1607 C1606 1.391 . S
H1608 C1616 0.950 . S
H1609 C1621 0.950 . S
H1610 C1618 0.950 . S
H1611 C1620 0.950 . S
H1612 C1622 0.950 . S
H1613 C1624 0.950 . S
H1614 C1626 0.950 . S
H1615 C1627 0.950 . S
C1616 H1608 0.950 . S
C1616 C1617 1.386 . S
C1616 C1618 1.391 . S
C1617 C1616 1.386 . S
C1617 C1621 1.393 . S
C1618 H1610 0.950 . S
C1618 C1616 1.391 . S
C1618 C1619 1.400 . S
C1619 C1618 1.400 . S
C1619 C1620 1.398 . S
C1619 C1625 1.491 . S
C1620 H1611 0.950 . S
C1620 C1619 1.398 . S
C1620 C1621 1.391 . S
C1621 H1609 0.950 . S
C1621 C1617 1.393 . S
C1621 C1620 1.391 . S
C1622 H1612 0.950 . S
C1622 C1623 1.386 . S
C1622 C1624 1.391 . S
C1623 C1622 1.386 . S
C1623 C1627 1.393 . S
C1624 H1613 0.950 . S
C1624 C1622 1.391 . S
C1624 C1625 1.400 . S
C1625 C1619 1.491 . S
C1625 C1624 1.400 . S
C1625 C1626 1.398 . S
C1626 H1614 0.950 . S
C1626 C1625 1.398 . S
C1626 C1627 1.391 . S
C1627 H1615 0.950 . S
C1627 C1623 1.393 . S
C1627 C1626 1.391 . S
H1628 C1636 0.950 . S
H1629 C1641 0.950 . S
H1630 C1638 0.950 . S
H1631 C1640 0.950 . S
H1632 C1642 0.950 . S
H1633 C1644 0.950 . S
H1634 C1646 0.950 . S
H1635 C1647 0.950 . S
C1636 H1628 0.950 . S
C1636 C1637 1.386 . S
C1636 C1638 1.391 . S
C1637 C1636 1.386 . S
C1637 C1641 1.393 . S
C1638 H1630 0.950 . S
C1638 C1636 1.391 . S
C1638 C1639 1.400 . S
C1639 C1638 1.400 . S
C1639 C1640 1.398 . S
C1639 C1645 1.491 . S
C1640 H1631 0.950 . S
C1640 C1639 1.398 . S
C1640 C1641 1.391 . S
C1641 H1629 0.950 . S
C1641 C1637 1.393 . S
C1641 C1640 1.391 . S
C1642 H1632 0.950 . S
C1642 C1643 1.386 . S
C1642 C1644 1.391 . S
C1643 C1642 1.386 . S
C1643 C1647 1.393 . S
C1644 H1633 0.950 . S
C1644 C1642 1.391 . S
C1644 C1645 1.400 . S
C1645 C1639 1.491 . S
C1645 C1644 1.400 . S
C1645 C1646 1.398 . S
C1646 H1634 0.950 . S
C1646 C1645 1.398 . S
C1646 C1647 1.391 . S
C1647 H1635 0.950 . S
C1647 C1643 1.393 . S
C1647 C1646 1.391 . S
H1648 C1656 0.950 . S
H1649 C1661 0.950 . S
H1650 C1658 0.950 . S
H1651 C1660 0.950 . S
H1652 C1662 0.950 . S
H1653 C1664 0.950 . S
H1654 C1666 0.950 . S
H1655 C1667 0.950 . S
C1656 H1648 0.950 . S
C1656 C1657 1.386 . S
C1656 C1658 1.391 . S
C1657 C1656 1.386 . S
C1657 C1661 1.393 . S
C1658 H1650 0.950 . S
C1658 C1656 1.391 . S
C1658 C1659 1.400 . S
C1659 C1658 1.400 . S
C1659 C1660 1.398 . S
C1659 C1665 1.491 . S
C1660 H1651 0.950 . S
C1660 C1659 1.398 . S
C1660 C1661 1.391 . S
C1661 H1649 0.950 . S
C1661 C1657 1.393 . S
C1661 C1660 1.391 . S
C1662 H1652 0.950 . S
C1662 C1663 1.386 . S
C1662 C1664 1.391 . S
C1663 C1662 1.386 . S
C1663 C1667 1.393 . S
C1664 H1653 0.950 . S
C1664 C1662 1.391 . S
C1664 C1665 1.400 . S
C1665 C1659 1.491 . S
C1665 C1664 1.400 . S
C1665 C1666 1.398 . S
C1666 H1654 0.950 . S
C1666 C1665 1.398 . S
C1666 C1667 1.391 . S
C1667 H1655 0.950 . S
C1667 C1663 1.393 . S
C1667 C1666 1.391 . S
H1668 C1676 0.950 . S
H1669 C1681 0.950 . S
H1670 C1678 0.950 . S
H1671 C1680 0.950 . S
H1672 C1682 0.950 . S
H1673 C1684 0.950 . S
H1674 C1686 0.950 . S
H1675 C1687 0.950 . S
C1676 H1668 0.950 . S
C1676 C1677 1.386 . S
C1676 C1678 1.391 . S
C1677 C1676 1.386 . S
C1677 C1681 1.393 . S
C1678 H1670 0.950 . S
C1678 C1676 1.391 . S
C1678 C1679 1.400 . S
C1679 C1678 1.400 . S
C1679 C1680 1.398 . S
C1679 C1685 1.491 . S
C1680 H1671 0.950 . S
C1680 C1679 1.398 . S
C1680 C1681 1.391 . S
C1681 H1669 0.950 . S
C1681 C1677 1.393 . S
C1681 C1680 1.391 . S
C1682 H1672 0.950 . S
C1682 C1683 1.386 . S
C1682 C1684 1.391 . S
C1683 C1682 1.386 . S
C1683 C1687 1.393 . S
C1684 H1673 0.950 . S
C1684 C1682 1.391 . S
C1684 C1685 1.400 . S
C1685 C1679 1.491 . S
C1685 C1684 1.400 . S
C1685 C1686 1.398 . S
C1686 H1674 0.950 . S
C1686 C1685 1.398 . S
C1686 C1687 1.391 . S
C1687 H1675 0.950 . S
C1687 C1683 1.393 . S
C1687 C1686 1.391 . S
H1688 C1696 0.950 . S
H1689 C1701 0.950 . S
H1690 C1698 0.950 . S
H1691 C1700 0.950 . S
H1692 C1702 0.950 . S
H1693 C1704 0.950 . S
H1694 C1706 0.950 . S
H1695 C1707 0.950 . S
C1696 H1688 0.950 . S
C1696 C1697 1.386 . S
C1696 C1698 1.391 . S
C1697 C1696 1.386 . S
C1697 C1701 1.393 . S
C1698 H1690 0.950 . S
C1698 C1696 1.391 . S
C1698 C1699 1.400 . S
C1699 C1698 1.400 . S
C1699 C1700 1.398 . S
C1699 C1705 1.491 . S
C1700 H1691 0.950 . S
C1700 C1699 1.398 . S
C1700 C1701 1.391 . S
C1701 H1689 0.950 . S
C1701 C1697 1.393 . S
C1701 C1700 1.391 . S
C1702 H1692 0.950 . S
C1702 C1703 1.386 . S
C1702 C1704 1.391 . S
C1703 C1702 1.386 . S
C1703 C1707 1.393 . S
C1704 H1693 0.950 . S
C1704 C1702 1.391 . S
C1704 C1705 1.400 . S
C1705 C1699 1.491 . S
C1705 C1704 1.400 . S
C1705 C1706 1.398 . S
C1706 H1694 0.950 . S
C1706 C1705 1.398 . S
C1706 C1707 1.391 . S
C1707 H1695 0.950 . S
C1707 C1703 1.393 . S
C1707 C1706 1.391 . S
H1708 C1716 0.950 . S
H1709 C1721 0.950 . S
H1710 C1718 0.950 . S
H1711 C1720 0.950 . S
H1712 C1722 0.950 . S
H1713 C1724 0.950 . S
H1714 C1726 0.950 . S
H1715 C1727 0.950 . S
C1716 H1708 0.950 . S
C1716 C1717 1.386 . S
C1716 C1718 1.391 . S
C1717 C1716 1.386 . S
C1717 C1721 1.393 . S
C1718 H1710 0.950 . S
C1718 C1716 1.391 . S
C1718 C1719 1.400 . S
C1719 C1718 1.400 . S
C1719 C1720 1.398 . S
C1719 C1725 1.491 . S
C1720 H1711 0.950 . S
C1720 C1719 1.398 . S
C1720 C1721 1.391 . S
C1721 H1709 0.950 . S
C1721 C1717 1.393 . S
C1721 C1720 1.391 . S
C1722 H1712 0.950 . S
C1722 C1723 1.386 . S
C1722 C1724 1.391 . S
C1723 C1722 1.386 . S
C1723 C1727 1.393 . S
C1724 H1713 0.950 . S
C1724 C1722 1.391 . S
C1724 C1725 1.400 . S
C1725 C1719 1.491 . S
C1725 C1724 1.400 . S
C1725 C1726 1.398 . S
C1726 H1714 0.950 . S
C1726 C1725 1.398 . S
C1726 C1727 1.391 . S
C1727 H1715 0.950 . S
C1727 C1723 1.393 . S
C1727 C1726 1.391 . S
H1728 C1736 0.950 . S
H1729 C1741 0.950 . S
H1730 C1738 0.950 . S
H1731 C1740 0.950 . S
H1732 C1742 0.950 . S
H1733 C1744 0.950 . S
H1734 C1746 0.950 . S
H1735 C1747 0.950 . S
C1736 H1728 0.950 . S
C1736 C1737 1.386 . S
C1736 C1738 1.391 . S
C1737 C1736 1.386 . S
C1737 C1741 1.393 . S
C1738 H1730 0.950 . S
C1738 C1736 1.391 . S
C1738 C1739 1.400 . S
C1739 C1738 1.400 . S
C1739 C1740 1.398 . S
C1739 C1745 1.491 . S
C1740 H1731 0.950 . S
C1740 C1739 1.398 . S
C1740 C1741 1.391 . S
C1741 H1729 0.950 . S
C1741 C1737 1.393 . S
C1741 C1740 1.391 . S
C1742 H1732 0.950 . S
C1742 C1743 1.386 . S
C1742 C1744 1.391 . S
C1743 C1742 1.386 . S
C1743 C1747 1.393 . S
C1744 H1733 0.950 . S
C1744 C1742 1.391 . S
C1744 C1745 1.400 . S
C1745 C1739 1.491 . S
C1745 C1744 1.400 . S
C1745 C1746 1.398 . S
C1746 H1734 0.950 . S
C1746 C1745 1.398 . S
C1746 C1747 1.391 . S
C1747 H1735 0.950 . S
C1747 C1743 1.393 . S
C1747 C1746 1.391 . S
H1748 C1756 0.950 . S
H1749 C1761 0.950 . S
H1750 C1758 0.950 . S
H1751 C1760 0.950 . S
H1752 C1762 0.950 . S
H1753 C1764 0.950 . S
H1754 C1766 0.950 . S
H1755 C1767 0.950 . S
C1756 H1748 0.950 . S
C1756 C1757 1.386 . S
C1756 C1758 1.391 . S
C1757 C1756 1.386 . S
C1757 C1761 1.393 . S
C1758 H1750 0.950 . S
C1758 C1756 1.391 . S
C1758 C1759 1.400 . S
C1759 C1758 1.400 . S
C1759 C1760 1.398 . S
C1759 C1765 1.491 . S
C1760 H1751 0.950 . S
C1760 C1759 1.398 . S
C1760 C1761 1.391 . S
C1761 H1749 0.950 . S
C1761 C1757 1.393 . S
C1761 C1760 1.391 . S
C1762 H1752 0.950 . S
C1762 C1763 1.386 . S
C1762 C1764 1.391 . S
C1763 C1762 1.386 . S
C1763 C1767 1.393 . S
C1764 H1753 0.950 . S
C1764 C1762 1.391 . S
C1764 C1765 1.400 . S
C1765 C1759 1.491 . S
C1765 C1764 1.400 . S
C1765 C1766 1.398 . S
C1766 H1754 0.950 . S
C1766 C1765 1.398 . S
C1766 C1767 1.391 . S
C1767 H1755 0.950 . S
C1767 C1763 1.393 . S
C1767 C1766 1.391 . S
H1768 C1776 0.950 . S
H1769 C1781 0.950 . S
H1770 C1778 0.950 . S
H1771 C1780 0.950 . S
H1772 C1782 0.950 . S
H1773 C1784 0.950 . S
H1774 C1786 0.950 . S
H1775 C1787 0.950 . S
C1776 H1768 0.950 . S
C1776 C1777 1.386 . S
C1776 C1778 1.391 . S
C1777 C1776 1.386 . S
C1777 C1781 1.393 . S
C1778 H1770 0.950 . S
C1778 C1776 1.391 . S
C1778 C1779 1.400 . S
C1779 C1778 1.400 . S
C1779 C1780 1.398 . S
C1779 C1785 1.491 . S
C1780 H1771 0.950 . S
C1780 C1779 1.398 . S
C1780 C1781 1.391 . S
C1781 H1769 0.950 . S
C1781 C1777 1.393 . S
C1781 C1780 1.391 . S
C1782 H1772 0.950 . S
C1782 C1783 1.386 . S
C1782 C1784 1.391 . S
C1783 C1782 1.386 . S
C1783 C1787 1.393 . S
C1784 H1773 0.950 . S
C1784 C1782 1.391 . S
C1784 C1785 1.400 . S
C1785 C1779 1.491 . S
C1785 C1784 1.400 . S
C1785 C1786 1.398 . S
C1786 H1774 0.950 . S
C1786 C1785 1.398 . S
C1786 C1787 1.391 . S
C1787 H1775 0.950 . S
C1787 C1783 1.393 . S
C1787 C1786 1.391 . S
H1788 C1796 0.950 . S
H1789 C1801 0.950 . S
H1790 C1798 0.950 . S
H1791 C1800 0.950 . S
H1792 C1802 0.950 . S
H1793 C1804 0.950 . S
H1794 C1806 0.950 . S
H1795 C1807 0.950 . S
C1796 H1788 0.950 . S
C1796 C1797 1.386 . S
C1796 C1798 1.391 . S
C1797 C1796 1.386 . S
C1797 C1801 1.393 . S
C1798 H1790 0.950 . S
C1798 C1796 1.391 . S
C1798 C1799 1.400 . S
C1799 C1798 1.400 . S
C1799 C1800 1.398 . S
C1799 C1805 1.491 . S
C1800 H1791 0.950 . S
C1800 C1799 1.398 . S
C1800 C1801 1.391 . S
C1801 H1789 0.950 . S
C1801 C1797 1.393 . S
C1801 C1800 1.391 . S
C1802 H1792 0.950 . S
C1802 C1803 1.386 . S
C1802 C1804 1.391 . S
C1803 C1802 1.386 . S
C1803 C1807 1.393 . S
C1804 H1793 0.950 . S
C1804 C1802 1.391 . S
C1804 C1805 1.400 . S
C1805 C1799 1.491 . S
C1805 C1804 1.400 . S
C1805 C1806 1.398 . S
C1806 H1794 0.950 . S
C1806 C1805 1.398 . S
C1806 C1807 1.391 . S
C1807 H1795 0.950 . S
C1807 C1803 1.393 . S
C1807 C1806 1.391 . S
H1808 C1816 0.950 . S
H1809 C1821 0.950 . S
H1810 C1818 0.950 . S
H1811 C1820 0.950 . S
H1812 C1822 0.950 . S
H1813 C1824 0.950 . S
H1814 C1826 0.950 . S
H1815 C1827 0.950 . S
C1816 H1808 0.950 . S
C1816 C1817 1.386 . S
C1816 C1818 1.391 . S
C1817 C1816 1.386 . S
C1817 C1821 1.393 . S
C1818 H1810 0.950 . S
C1818 C1816 1.391 . S
C1818 C1819 1.400 . S
C1819 C1818 1.400 . S
C1819 C1820 1.398 . S
C1819 C1825 1.491 . S
C1820 H1811 0.950 . S
C1820 C1819 1.398 . S
C1820 C1821 1.391 . S
C1821 H1809 0.950 . S
C1821 C1817 1.393 . S
C1821 C1820 1.391 . S
C1822 H1812 0.950 . S
C1822 C1823 1.386 . S
C1822 C1824 1.391 . S
C1823 C1822 1.386 . S
C1823 C1827 1.393 . S
C1824 H1813 0.950 . S
C1824 C1822 1.391 . S
C1824 C1825 1.400 . S
C1825 C1819 1.491 . S
C1825 C1824 1.400 . S
C1825 C1826 1.398 . S
C1826 H1814 0.950 . S
C1826 C1825 1.398 . S
C1826 C1827 1.391 . S
C1827 H1815 0.950 . S
C1827 C1823 1.393 . S
C1827 C1826 1.391 . S
H1828 C1836 0.950 . S
H1829 C1841 0.950 . S
H1830 C1838 0.950 . S
H1831 C1840 0.950 . S
H1832 C1842 0.950 . S
H1833 C1844 0.950 . S
H1834 C1846 0.950 . S
H1835 C1847 0.950 . S
C1836 H1828 0.950 . S
C1836 C1837 1.386 . S
C1836 C1838 1.391 . S
C1837 C1836 1.386 . S
C1837 C1841 1.393 . S
C1838 H1830 0.950 . S
C1838 C1836 1.391 . S
C1838 C1839 1.400 . S
C1839 C1838 1.400 . S
C1839 C1840 1.398 . S
C1839 C1845 1.491 . S
C1840 H1831 0.950 . S
C1840 C1839 1.398 . S
C1840 C1841 1.391 . S
C1841 H1829 0.950 . S
C1841 C1837 1.393 . S
C1841 C1840 1.391 . S
C1842 H1832 0.950 . S
C1842 C1843 1.386 . S
C1842 C1844 1.391 . S
C1843 C1842 1.386 . S
C1843 C1847 1.393 . S
C1844 H1833 0.950 . S
C1844 C1842 1.391 . S
C1844 C1845 1.400 . S
C1845 C1839 1.491 . S
C1845 C1844 1.400 . S
C1845 C1846 1.398 . S
C1846 H1834 0.950 . S
C1846 C1845 1.398 . S
C1846 C1847 1.391 . S
C1847 H1835 0.950 . S
C1847 C1843 1.393 . S
C1847 C1846 1.391 . S
H1848 C1856 0.950 . S
H1849 C1861 0.950 . S
H1850 C1858 0.950 . S
H1851 C1860 0.950 . S
H1852 C1862 0.950 . S
H1853 C1864 0.950 . S
H1854 C1866 0.950 . S
H1855 C1867 0.950 . S
C1856 H1848 0.950 . S
C1856 C1857 1.386 . S
C1856 C1858 1.391 . S
C1857 C1856 1.386 . S
C1857 C1861 1.393 . S
C1858 H1850 0.950 . S
C1858 C1856 1.391 . S
C1858 C1859 1.400 . S
C1859 C1858 1.400 . S
C1859 C1860 1.398 . S
C1859 C1865 1.491 . S
C1860 H1851 0.950 . S
C1860 C1859 1.398 . S
C1860 C1861 1.391 . S
C1861 H1849 0.950 . S
C1861 C1857 1.393 . S
C1861 C1860 1.391 . S
C1862 H1852 0.950 . S
C1862 C1863 1.386 . S
C1862 C1864 1.391 . S
C1863 C1862 1.386 . S
C1863 C1867 1.393 . S
C1864 H1853 0.950 . S
C1864 C1862 1.391 . S
C1864 C1865 1.400 . S
C1865 C1859 1.491 . S
C1865 C1864 1.400 . S
C1865 C1866 1.398 . S
C1866 H1854 0.950 . S
C1866 C1865 1.398 . S
C1866 C1867 1.391 . S
C1867 H1855 0.950 . S
C1867 C1863 1.393 . S
C1867 C1866 1.391 . S
H1868 C1876 0.950 . S
H1869 C1881 0.950 . S
H1870 C1878 0.950 . S
H1871 C1880 0.950 . S
H1872 C1882 0.950 . S
H1873 C1884 0.950 . S
H1874 C1886 0.950 . S
H1875 C1887 0.950 . S
C1876 H1868 0.950 . S
C1876 C1877 1.386 . S
C1876 C1878 1.391 . S
C1877 C1876 1.386 . S
C1877 C1881 1.393 . S
C1878 H1870 0.950 . S
C1878 C1876 1.391 . S
C1878 C1879 1.400 . S
C1879 C1878 1.400 . S
C1879 C1880 1.398 . S
C1879 C1885 1.491 . S
C1880 H1871 0.950 . S
C1880 C1879 1.398 . S
C1880 C1881 1.391 . S
C1881 H1869 0.950 . S
C1881 C1877 1.393 . S
C1881 C1880 1.391 . S
C1882 H1872 0.950 . S
C1882 C1883 1.386 . S
C1882 C1884 1.391 . S
C1883 C1882 1.386 . S
C1883 C1887 1.393 . S
C1884 H1873 0.950 . S
C1884 C1882 1.391 . S
C1884 C1885 1.400 . S
C1885 C1879 1.491 . S
C1885 C1884 1.400 . S
C1885 C1886 1.398 . S
C1886 H1874 0.950 . S
C1886 C1885 1.398 . S
C1886 C1887 1.391 . S
C1887 H1875 0.950 . S
C1887 C1883 1.393 . S
C1887 C1886 1.391 . S
H1888 C1896 0.950 . S
H1889 C1901 0.950 . S
H1890 C1898 0.950 . S
H1891 C1900 0.950 . S
H1892 C1902 0.950 . S
H1893 C1904 0.950 . S
H1894 C1906 0.950 . S
H1895 C1907 0.950 . S
C1896 H1888 0.950 . S
C1896 C1897 1.386 . S
C1896 C1898 1.391 . S
C1897 C1896 1.386 . S
C1897 C1901 1.393 . S
C1898 H1890 0.950 . S
C1898 C1896 1.391 . S
C1898 C1899 1.400 . S
C1899 C1898 1.400 . S
C1899 C1900 1.398 . S
C1899 C1905 1.491 . S
C1900 H1891 0.950 . S
C1900 C1899 1.398 . S
C1900 C1901 1.391 . S
C1901 H1889 0.950 . S
C1901 C1897 1.393 . S
C1901 C1900 1.391 . S
C1902 H1892 0.950 . S
C1902 C1903 1.386 . S
C1902 C1904 1.391 . S
C1903 C1902 1.386 . S
C1903 C1907 1.393 . S
C1904 H1893 0.950 . S
C1904 C1902 1.391 . S
C1904 C1905 1.400 . S
C1905 C1899 1.491 . S
C1905 C1904 1.400 . S
C1905 C1906 1.398 . S
C1906 H1894 0.950 . S
C1906 C1905 1.398 . S
C1906 C1907 1.391 . S
C1907 H1895 0.950 . S
C1907 C1903 1.393 . S
C1907 C1906 1.391 . S
C477 C10 1.202 . S
C483 C153 1.201 . S
C497 C127 1.199 . S
C503 C23 1.203 . S
C517 C140 1.203 . S
C523 C36 1.199 . S
C537 C49 1.194 . S
C543 C101 1.208 . S
C557 C62 1.208 . S
C563 C114 1.194 . S
C577 C75 1.209 . S
C583 C88 1.193 . S
C597 C166 1.209 . S
C603 C309 1.193 . S
C617 C283 1.194 . S
C623 C179 1.208 . S
C637 C192 1.209 . S
C643 C296 1.193 . S
C657 C205 1.196 . S
C663 C257 1.206 . S
C677 C218 1.197 . S
C683 C270 1.205 . S
C697 C231 1.206 . S
C703 C244 1.196 . S
C717 C322 1.207 . S
C723 C465 1.195 . S
C737 C335 1.200 . S
C743 C439 1.203 . S
C757 C452 1.211 . S
C763 C348 1.192 . S
C777 C361 1.198 . S
C783 C413 1.205 . S
C797 C426 1.192 . S
C803 C374 1.211 . S
C817 C400 1.200 . S
C823 C387 1.202 . S
C837 C0 1.135 . S
C843 C195 1.135 . S
C857 C13 1.154 . S
C863 C208 1.155 . S
C877 C26 1.136 . S
C883 C221 1.135 . S
C897 C39 1.145 . S
C903 C312 1.146 . S
C917 C325 1.149 . S
C923 C52 1.148 . S
C937 C338 1.156 . S
C943 C65 1.156 . S
C957 C78 1.152 . S
C963 C429 1.153 . S
C977 C442 1.155 . S
C983 C91 1.155 . S
C997 C104 1.145 . S
C1003 C455 1.146 . S
C1017 C117 1.136 . S
C1023 C234 1.136 . S
C1037 C130 1.145 . S
C1043 C247 1.143 . S
C1057 C143 1.149 . S
C1063 C260 1.148 . S
C1077 C351 1.135 . S
C1083 C156 1.135 . S
C1097 C169 1.135 . S
C1103 C364 1.135 . S
C1117 C182 1.139 . S
C1123 C377 1.140 . S
C1137 C390 1.152 . S
C1143 C273 1.151 . S
C1157 C403 1.155 . S
C1163 C286 1.155 . S
C1177 C299 1.137 . S
C1183 C416 1.138 . S
C1197 C5 1.336 . S
C1203 C57 1.353 . S
C1217 C70 1.353 . S
C1223 C18 1.336 . S
C1237 C44 1.356 . S
C1243 C31 1.329 . S
C1257 C83 1.357 . S
C1263 C135 1.330 . S
C1277 C148 1.355 . S
C1283 C96 1.329 . S
C1297 C109 1.341 . S
C1303 C122 1.349 . S
C1317 C213 1.336 . S
C1323 C161 1.353 . S
C1337 C174 1.329 . S
C1343 C226 1.356 . S
C1357 C187 1.337 . S
C1363 C200 1.352 . S
C1377 C291 1.329 . S
C1383 C239 1.357 . S
C1397 C304 1.352 . S
C1403 C252 1.331 . S
C1417 C278 1.348 . S
C1423 C265 1.334 . S
C1437 C317 1.338 . S
C1443 C369 1.344 . S
C1457 C330 1.356 . S
C1463 C382 1.329 . S
C1477 C343 1.347 . S
C1483 C356 1.336 . S
C1497 C447 1.334 . S
C1503 C395 1.355 . S
C1517 C460 1.339 . S
C1523 C408 1.351 . S
C1537 C434 1.350 . S
C1543 C421 1.341 . S
C1557 C125 1.370 . S
C1563 C8 1.367 . S
C1577 C138 1.373 . S
C1583 C21 1.364 . S
C1597 C34 1.370 . S
C1603 C151 1.368 . S
C1617 C47 1.378 . S
C1623 C86 1.359 . S
C1637 C99 1.362 . S
C1643 C60 1.375 . S
C1657 C73 1.379 . S
C1663 C112 1.358 . S
C1677 C281 1.381 . S
C1683 C164 1.356 . S
C1697 C294 1.362 . S
C1703 C177 1.375 . S
C1717 C190 1.359 . S
C1723 C307 1.378 . S
C1737 C242 1.374 . S
C1743 C203 1.363 . S
C1757 C255 1.372 . S
C1763 C216 1.365 . S
C1777 C268 1.358 . S
C1783 C229 1.379 . S
C1797 C320 1.377 . S
C1803 C437 1.361 . S
C1817 C450 1.372 . S
C1823 C333 1.365 . S
C1837 C346 1.378 . S
C1843 C463 1.359 . S
C1857 C359 1.369 . S
C1863 C398 1.369 . S
C1877 C372 1.355 . S
C1883 C411 1.382 . S
C1897 C424 1.378 . S
C1903 C385 1.359 . S
