# Generated by pormake.
# Topology sml, (6)-cn, num edge types: 1
# Building blocks:
#     Node 0, Type 0, BuildingBlock: INOVEN_clean_sbu_0, # of connection points: 6
#     Node 1, Type 0, BuildingBlock: INOVEN_clean_sbu_0, # of connection points: 6
#     Node 2, Type 0, BuildingBlock: INOVEN_clean_sbu_0, # of connection points: 6
#     Node 3, Type 0, BuildingBlock: INOVEN_clean_sbu_0, # of connection points: 6
#     Node 4, Type 0, BuildingBlock: INOVEN_clean_sbu_0, # of connection points: 6
#     Node 5, Type 0, BuildingBlock: INOVEN_clean_sbu_0, # of connection points: 6
#     Edge 6, Type (0, 0), BuildingBlock: MIFKUJ_clean_linker_0, # of connection points: 2
#     Edge 7, Type (0, 0), BuildingBlock: MIFKUJ_clean_linker_0, # of connection points: 2
#     Edge 8, Type (0, 0), BuildingBlock: MIFKUJ_clean_linker_0, # of connection points: 2
#     Edge 9, Type (0, 0), BuildingBlock: MIFKUJ_clean_linker_0, # of connection points: 2
#     Edge 10, Type (0, 0), BuildingBlock: MIFKUJ_clean_linker_0, # of connection points: 2
#     Edge 11, Type (0, 0), BuildingBlock: MIFKUJ_clean_linker_0, # of connection points: 2
#     Edge 12, Type (0, 0), BuildingBlock: MIFKUJ_clean_linker_0, # of connection points: 2
#     Edge 13, Type (0, 0), BuildingBlock: MIFKUJ_clean_linker_0, # of connection points: 2
#     Edge 14, Type (0, 0), BuildingBlock: MIFKUJ_clean_linker_0, # of connection points: 2
#     Edge 15, Type (0, 0), BuildingBlock: MIFKUJ_clean_linker_0, # of connection points: 2
#     Edge 16, Type (0, 0), BuildingBlock: MIFKUJ_clean_linker_0, # of connection points: 2
#     Edge 17, Type (0, 0), BuildingBlock: MIFKUJ_clean_linker_0, # of connection points: 2
#     Edge 18, Type (0, 0), BuildingBlock: MIFKUJ_clean_linker_0, # of connection points: 2
#     Edge 19, Type (0, 0), BuildingBlock: MIFKUJ_clean_linker_0, # of connection points: 2
#     Edge 20, Type (0, 0), BuildingBlock: MIFKUJ_clean_linker_0, # of connection points: 2
#     Edge 21, Type (0, 0), BuildingBlock: MIFKUJ_clean_linker_0, # of connection points: 2
#     Edge 22, Type (0, 0), BuildingBlock: MIFKUJ_clean_linker_0, # of connection points: 2
#     Edge 23, Type (0, 0), BuildingBlock: MIFKUJ_clean_linker_0, # of connection points: 2
# Relax obj value: 0.180
# Max RMSD: 0.223
# Mean RMSD: 0.223
data_MOF--net-sml--node1-INOVEN_clean_sbu_0--edge1-MIFKUJ_clean_linker_0
_symmetry_space_group_name_H-M    P1
_symmetry_Int_Tables_number       1
_symmetry_cell_setting            triclinic
loop_
_symmetry_equiv_pos_as_xyz
'x, y, z'
_cell_length_a     44.411706
_cell_length_b     44.413068
_cell_length_c     29.929972
_cell_angle_alpha  89.948757
_cell_angle_beta   90.070187
_cell_angle_gamma 119.97595
loop_
_atom_site_label
_atom_site_type_symbol
_atom_site_fract_x
_atom_site_fract_y
_atom_site_fract_z
_atom_type_partial_charge
Gd0 Gd 0.19314 0.42768 0.96401 0.0
Gd1 Gd 0.21593 0.40544 0.04938 0.0
C2 C 0.21914 0.3709 0.95884 0.0
C3 C 0.18511 0.44725 0.88546 0.0
C4 C 0.18828 0.44139 0.83769 0.0
C5 C 0.16454 0.44223 0.8076 0.0
C6 C 0.21463 0.43559 0.8215 0.0
C7 C 0.19387 0.43263 0.74516 0.0
C8 C 0.2174 0.43125 0.77558 0.0
C9 C 0.16723 0.43785 0.76187 0.0
C10 C 0.14158 0.38002 0.01486 0.0
C11 C 0.19487 0.46625 0.05386 0.0
C12 C 0.22075 0.38308 0.12748 0.0
C13 C 0.2189 0.38938 0.17549 0.0
C14 C 0.24273 0.38767 0.20461 0.0
C15 C 0.19335 0.39586 0.19297 0.0
C16 C 0.2148 0.39745 0.26855 0.0
C17 C 0.19128 0.3998 0.23911 0.0
C18 C 0.2408 0.39174 0.25059 0.0
C19 C 0.26771 0.4544 0.9994 0.0
O20 O 0.21602 0.39559 0.93824 0.0
O21 O 0.21459 0.36577 1.00235 0.0
O22 O 0.16002 0.42142 0.90733 0.0
O23 O 0.21387 0.46375 0.90862 0.0
O24 O 0.13973 0.40461 0.99402 0.0
O25 O 0.16976 0.3808 0.00664 0.0
O26 O 0.19787 0.44178 0.07546 0.0
O27 O 0.19685 0.46904 0.00984 0.0
O28 O 0.24755 0.40697 0.10559 0.0
O29 O 0.19179 0.36977 0.10449 0.0
O30 O 0.27037 0.43048 0.02104 0.0
O31 O 0.23895 0.45234 0.00736 0.0
H32 H 0.14392 0.44648 0.81949 0.0
H33 H 0.2332 0.43473 0.84422 0.0
H34 H 0.23837 0.42752 0.76385 0.0
H35 H 0.14825 0.43836 0.73962 0.0
H36 H 0.26274 0.38284 0.19177 0.0
H37 H 0.17472 0.39743 0.17115 0.0
H38 H 0.17078 0.40391 0.25176 0.0
H39 H 0.25977 0.39048 0.27207 0.0
Gd40 Gd 0.76595 0.19757 0.30351 0.0
Gd41 Gd 0.81151 0.22454 0.38732 0.0
C42 C 0.84848 0.22055 0.29962 0.0
C43 C 0.73984 0.19073 0.22424 0.0
C44 C 0.75043 0.19577 0.17667 0.0
C45 C 0.73662 0.16681 0.14818 0.0
C46 C 0.77255 0.22895 0.15864 0.0
C47 C 0.76631 0.2039 0.08432 0.0
C48 C 0.78035 0.23295 0.1129 0.0
C49 C 0.74453 0.17078 0.10263 0.0
C50 C 0.75945 0.14701 0.3584 0.0
C51 C 0.72886 0.19809 0.3935 0.0
C52 C 0.8393 0.23859 0.46621 0.0
C53 C 0.82915 0.23371 0.51383 0.0
C54 C 0.84458 0.2626 0.54237 0.0
C55 C 0.80507 0.20107 0.53154 0.0
C56 C 0.81278 0.22641 0.60591 0.0
C57 C 0.79709 0.19744 0.57724 0.0
C58 C 0.83643 0.25905 0.58783 0.0
C59 C 0.81438 0.27303 0.33028 0.0
O60 O 0.82014 0.21498 0.2779 0.0
O61 O 0.85045 0.22151 0.34362 0.0
O62 O 0.74096 0.16553 0.24544 0.0
O63 O 0.74991 0.21848 0.24895 0.0
O64 O 0.7346 0.14494 0.33343 0.0
O65 O 0.78789 0.17466 0.35064 0.0
O66 O 0.7572 0.2029 0.41433 0.0
O67 O 0.72705 0.19913 0.34948 0.0
O68 O 0.83258 0.25975 0.44359 0.0
O69 O 0.83382 0.21124 0.44318 0.0
O70 O 0.84142 0.27595 0.35081 0.0
O71 O 0.78758 0.24559 0.34198 0.0
H72 H 0.71919 0.14102 0.16108 0.0
H73 H 0.78358 0.25185 0.17969 0.0
H74 H 0.79744 0.25879 0.09993 0.0
H75 H 0.73282 0.14792 0.08152 0.0
H76 H 0.86329 0.288 0.5295 0.0
H77 H 0.79256 0.17836 0.51025 0.0
H78 H 0.77851 0.17201 0.59012 0.0
H79 H 0.84931 0.28179 0.60906 0.0
Gd80 Gd 0.55988 0.76088 0.63283 0.0
Gd81 Gd 0.58532 0.80519 0.71769 0.0
C82 C 0.62145 0.84237 0.62721 0.0
C83 C 0.53624 0.73446 0.5546 0.0
C84 C 0.54372 0.74216 0.50661 0.0
C85 C 0.53776 0.71502 0.47752 0.0
C86 C 0.55575 0.77562 0.48914 0.0
C87 C 0.55458 0.75421 0.41363 0.0
C88 C 0.56114 0.78159 0.44306 0.0
C89 C 0.54317 0.72094 0.4316 0.0
C90 C 0.60567 0.75174 0.68167 0.0
C91 C 0.52355 0.72487 0.72324 0.0
C92 C 0.60625 0.83246 0.79622 0.0
C93 C 0.60251 0.82344 0.844 0.0
C94 C 0.60945 0.84952 0.87532 0.0
C95 C 0.59196 0.78961 0.85892 0.0
C96 C 0.59592 0.80847 0.93645 0.0
C97 C 0.58868 0.78218 0.90483 0.0
C98 C 0.60617 0.84217 0.92099 0.0
C99 C 0.53793 0.81173 0.66831 0.0
O100 O 0.59662 0.81472 0.60653 0.0
O101 O 0.62558 0.84332 0.671 0.0
O102 O 0.55784 0.72845 0.57733 0.0
O103 O 0.52576 0.7529 0.57683 0.0
O104 O 0.58003 0.72723 0.65956 0.0
O105 O 0.6074 0.7807 0.67491 0.0
O106 O 0.55087 0.75046 0.74346 0.0
O107 O 0.51794 0.72572 0.68004 0.0
O108 O 0.57889 0.83 0.77636 0.0
O109 O 0.62312 0.82162 0.77134 0.0
O110 O 0.56393 0.83766 0.68807 0.0
O111 O 0.53771 0.78393 0.67692 0.0
H112 H 0.52863 0.68904 0.49035 0.0
H113 H 0.56058 0.79698 0.51102 0.0
H114 H 0.56974 0.80747 0.43039 0.0
H115 H 0.53853 0.69939 0.41019 0.0
H116 H 0.61736 0.87571 0.86439 0.0
H117 H 0.58636 0.76907 0.83516 0.0
H118 H 0.58094 0.75601 0.91555 0.0
H119 H 0.61125 0.86288 0.9442 0.0
Gd120 Gd 0.80831 0.56748 0.95475 0.0
Gd121 Gd 0.78818 0.59312 0.03929 0.0
C122 C 0.78864 0.62919 0.94851 0.0
C123 C 0.81417 0.54621 0.87628 0.0
C124 C 0.80953 0.55081 0.82846 0.0
C125 C 0.82745 0.54243 0.79693 0.0
C126 C 0.78795 0.56351 0.81372 0.0
C127 C 0.80277 0.55975 0.73606 0.0
C128 C 0.78457 0.56794 0.76789 0.0
C129 C 0.82409 0.54675 0.7513 0.0
C130 C 0.86135 0.61092 0.00754 0.0
C131 C 0.80264 0.52746 0.04506 0.0
C132 C 0.78544 0.61616 0.1179 0.0
C133 C 0.78432 0.60729 0.16561 0.0
C134 C 0.76881 0.61943 0.19597 0.0
C135 C 0.79877 0.58749 0.18147 0.0
C136 C 0.78287 0.59294 0.2579 0.0
C137 C 0.79809 0.58041 0.22728 0.0
C138 C 0.76804 0.61232 0.2416 0.0
C139 C 0.73487 0.54675 0.98855 0.0
O140 O 0.78942 0.60297 0.92861 0.0
O141 O 0.79355 0.63453 0.99199 0.0
O142 O 0.83969 0.57278 0.89664 0.0
O143 O 0.78607 0.53015 0.90077 0.0
O144 O 0.86026 0.58499 0.98626 0.0
O145 O 0.83525 0.61393 0.9981 0.0
O146 O 0.80048 0.55263 0.06606 0.0
O147 O 0.80206 0.52514 1.00097 0.0
O148 O 0.75785 0.59601 0.09418 0.0
O149 O 0.81453 0.62563 0.09648 0.0
O150 O 0.73427 0.57193 0.00979 0.0
O151 O 0.76229 0.54629 0.99743 0.0
H152 H 0.84411 0.53243 0.80765 0.0
H153 H 0.77384 0.57008 0.83759 0.0
H154 H 0.76815 0.57825 0.75747 0.0
H155 H 0.83795 0.53951 0.7279 0.0
H156 H 0.75758 0.6348 0.18439 0.0
H157 H 0.81097 0.57797 0.1586 0.0
H158 H 0.80957 0.56525 0.23876 0.0
H159 H 0.7565 0.62269 0.26428 0.0
Gd160 Gd 0.23801 0.81086 0.29547 0.0
Gd161 Gd 0.19348 0.77953 0.3788 0.0
C162 C 0.15515 0.78485 0.29327 0.0
C163 C 0.26622 0.82694 0.21678 0.0
C164 C 0.2584 0.82058 0.16869 0.0
C165 C 0.28118 0.84552 0.13826 0.0
C166 C 0.2291 0.79053 0.15252 0.0
C167 C 0.24634 0.81021 0.07557 0.0
C168 C 0.2232 0.78533 0.10634 0.0
C169 C 0.2752 0.84052 0.09233 0.0
C170 C 0.24398 0.8582 0.35619 0.0
C171 C 0.27614 0.80775 0.3831 0.0
C172 C 0.16609 0.76186 0.45762 0.0
C173 C 0.17537 0.76841 0.50525 0.0
C174 C 0.15561 0.74217 0.53613 0.0
C175 C 0.20336 0.7999 0.52045 0.0
C176 C 0.1906 0.77914 0.59753 0.0
C177 C 0.21085 0.80521 0.56624 0.0
C178 C 0.16316 0.74739 0.58171 0.0
C179 C 0.18787 0.73265 0.317 0.0
O180 O 0.18304 0.79025 0.27067 0.0
O181 O 0.15414 0.78398 0.33734 0.0
O182 O 0.25414 0.84461 0.23742 0.0
O183 O 0.26442 0.80151 0.2409 0.0
O184 O 0.26905 0.86175 0.33065 0.0
O185 O 0.21598 0.83088 0.34646 0.0
O186 O 0.24825 0.8032 0.40468 0.0
O187 O 0.27701 0.80661 0.339 0.0
O188 O 0.17851 0.74496 0.43582 0.0
O189 O 0.16662 0.78708 0.43429 0.0
O190 O 0.16264 0.72865 0.34249 0.0
O191 O 0.2156 0.75977 0.3278 0.0
H192 H 0.30374 0.86905 0.15009 0.0
H193 H 0.2109 0.77111 0.17545 0.0
H194 H 0.20082 0.76163 0.09478 0.0
H195 H 0.29312 0.86072 0.06998 0.0
H196 H 0.13418 0.71753 0.52495 0.0
H197 H 0.21919 0.8204 0.49706 0.0
H198 H 0.23203 0.82993 0.57719 0.0
H199 H 0.14753 0.72637 0.60454 0.0
Gd200 Gd 0.435 0.23704 0.62974 0.0
Gd201 Gd 0.41214 0.19401 0.71615 0.0
C202 C 0.37257 0.15536 0.62796 0.0
C203 C 0.45624 0.26147 0.55022 0.0
C204 C 0.44455 0.25364 0.50342 0.0
C205 C 0.45265 0.28119 0.47393 0.0
C206 C 0.42636 0.21935 0.4874 0.0
C207 C 0.42655 0.24056 0.41225 0.0
C208 C 0.4175 0.21287 0.44212 0.0
C209 C 0.44365 0.27474 0.42878 0.0
C210 C 0.38916 0.24518 0.67918 0.0
C211 C 0.47275 0.275 0.71907 0.0
C212 C 0.39298 0.16848 0.79567 0.0
C213 C 0.39801 0.17877 0.84302 0.0
C214 C 0.39637 0.15485 0.8748 0.0
C215 C 0.40392 0.21145 0.85717 0.0
C216 C 0.40627 0.19578 0.93479 0.0
C217 C 0.40793 0.21985 0.90277 0.0
C218 C 0.40042 0.1632 0.92016 0.0
C219 C 0.45898 0.18783 0.66539 0.0
O220 O 0.39633 0.18277 0.60562 0.0
O221 O 0.37058 0.15497 0.67197 0.0
O222 O 0.43924 0.27167 0.57586 0.0
O223 O 0.46419 0.24017 0.57034 0.0
O224 O 0.41352 0.26974 0.6556 0.0
O225 O 0.38854 0.21675 0.67309 0.0
O226 O 0.44631 0.24909 0.74014 0.0
O227 O 0.47751 0.27379 0.67562 0.0
O228 O 0.41967 0.17007 0.77506 0.0
O229 O 0.37558 0.17882 0.7709 0.0
O230 O 0.43383 0.16195 0.68641 0.0
O231 O 0.45884 0.2155 0.67362 0.0
H232 H 0.46662 0.30782 0.48568 0.0
H233 H 0.41983 0.19769 0.50958 0.0
H234 H 0.40418 0.18627 0.43027 0.0
H235 H 0.45124 0.29658 0.40647 0.0
H236 H 0.39167 0.12947 0.86452 0.0
H237 H 0.40536 0.23036 0.83308 0.0
H238 H 0.41262 0.24523 0.91292 0.0
H239 H 0.39835 0.14381 0.94385 0.0
H240 H 0.39381 0.30673 0.69794 0.0
H241 H 0.36125 0.319 0.75296 0.0
H242 H 0.3047 0.2106 0.79013 0.0
H243 H 0.33601 0.19779 0.7323 0.0
H244 H 0.26222 0.23536 0.78841 0.0
H245 H 0.37047 0.27223 0.85928 0.0
H246 H 0.43421 0.30112 0.86674 0.0
H247 H 0.44246 0.40028 0.84289 0.0
H248 H 0.37879 0.37206 0.83504 0.0
H249 H 0.21478 0.30897 0.98149 0.0
H250 H 0.23939 0.27835 0.94047 0.0
H251 H 0.27624 0.35708 0.83805 0.0
H252 H 0.25121 0.38733 0.87788 0.0
H253 H 0.32709 0.33734 0.88787 0.0
H254 H 0.21722 0.29413 0.80411 0.0
H255 H 0.15318 0.26315 0.8004 0.0
H256 H 0.14885 0.17202 0.85645 0.0
H257 H 0.21292 0.2027 0.86104 0.0
C258 C 0.37439 0.28542 0.71768 0.0
C259 C 0.36798 0.2514 0.71164 0.0
C260 C 0.35602 0.29253 0.74952 0.0
C261 C 0.33138 0.26594 0.77684 0.0
C262 C 0.32406 0.23163 0.76998 0.0
C263 C 0.34214 0.22438 0.73733 0.0
C264 C 0.31295 0.27453 0.81141 0.0
C265 C 0.27645 0.25714 0.81088 0.0
C266 C 0.3314 0.30276 0.84115 0.0
C267 C 0.36977 0.31997 0.84646 0.0
C268 C 0.38586 0.30019 0.85545 0.0
C269 C 0.422 0.31645 0.85976 0.0
C270 C 0.44236 0.35249 0.85518 0.0
C271 C 0.42663 0.37237 0.84646 0.0
C272 C 0.39051 0.35627 0.84224 0.0
C273 C 0.22776 0.31949 0.94995 0.0
C274 C 0.23105 0.35054 0.93288 0.0
C275 C 0.24174 0.30199 0.92667 0.0
C276 C 0.25958 0.31563 0.88647 0.0
C277 C 0.26248 0.34626 0.86909 0.0
C278 C 0.24802 0.36338 0.89181 0.0
C279 C 0.27683 0.29916 0.8631 0.0
C280 C 0.31306 0.31504 0.86609 0.0
C281 C 0.25816 0.26919 0.83647 0.0
C282 C 0.21976 0.25083 0.8335 0.0
C283 C 0.20259 0.26762 0.8161 0.0
C284 C 0.1663 0.25009 0.81372 0.0
C285 C 0.14695 0.21568 0.82834 0.0
C286 C 0.16386 0.1987 0.84523 0.0
C287 C 0.20015 0.21613 0.84771 0.0
H288 H 0.11886 0.20214 0.82646 0.0
H289 H 0.47032 0.36508 0.85851 0.0
H290 H 0.08407 0.31874 0.99615 0.0
H291 H 0.03554 0.2836 0.04699 0.0
H292 H 0.09103 0.35456 0.15467 0.0
H293 H 0.13921 0.38968 0.10373 0.0
H294 H 0.05481 0.28469 0.18228 0.0
H295 H 0.03486 0.3661 0.09914 0.0
H296 H 0.02957 0.39422 0.03084 0.0
H297 H 0.94619 0.29626 0.98475 0.0
H298 H 0.95137 0.26745 0.05252 0.0
H299 H 0.91622 0.25947 0.32532 0.0
H300 H 0.9677 0.2793 0.27855 0.0
H301 H 0.90281 0.21912 0.16821 0.0
H302 H 0.85113 0.20072 0.2143 0.0
H303 H 0.94437 0.28001 0.14076 0.0
H304 H 0.96139 0.199 0.22845 0.0
H305 H 0.96717 0.17211 0.29765 0.0
H306 H 0.05561 0.26916 0.33654 0.0
H307 H 0.05012 0.29675 0.26783 0.0
C308 C 0.08605 0.32622 0.03094 0.0
C309 C 0.11525 0.35645 0.0465 0.0
C310 C 0.05843 0.3063 0.05984 0.0
C311 C 0.05969 0.31663 0.10449 0.0
C312 C 0.08967 0.34605 0.12044 0.0
C313 C 0.11716 0.36604 0.09145 0.0
C314 C 0.02857 0.29885 0.1333 0.0
C315 C 0.03062 0.28368 0.17346 0.0
C316 C 0.99701 0.29726 0.12131 0.0
C317 C 0.99379 0.31455 0.08062 0.0
C318 C 0.01561 0.3505 0.07424 0.0
C319 C 0.0126 0.36657 0.03567 0.0
C320 C 0.98763 0.34702 1.00341 0.0
C321 C 0.96557 0.31136 0.00972 0.0
C322 C 0.96853 0.29515 0.04821 0.0
C323 C 0.91301 0.24999 0.29132 0.0
C324 C 0.87971 0.2286 0.27338 0.0
C325 C 0.94251 0.26119 0.26463 0.0
C326 C 0.93929 0.25041 0.21988 0.0
C327 C 0.90602 0.22786 0.20258 0.0
C328 C 0.8765 0.21729 0.22894 0.0
C329 C 0.97009 0.26513 0.18993 0.0
C330 C 0.96818 0.28021 0.14953 0.0
C331 C 0.00171 0.26659 0.20186 0.0
C332 C 0.00517 0.24999 0.24311 0.0
C333 C 0.98193 0.21466 0.25189 0.0
C334 C 0.98518 0.19929 0.29101 0.0
C335 C 0.01169 0.21893 0.32151 0.0
C336 C 0.03508 0.25398 0.31289 0.0
C337 C 0.03194 0.26948 0.27383 0.0
H338 H 0.01415 0.20698 0.35178 0.0
H339 H 0.98532 0.35951 0.97357 0.0
H340 H 0.71849 0.0793 0.33864 0.0
H341 H 0.703 0.02953 0.38708 0.0
H342 H 0.77322 0.09782 0.48822 0.0
H343 H 0.78998 0.14774 0.4384 0.0
H344 H 0.77167 0.03589 0.48779 0.0
H345 H 0.68888 0.07387 0.48975 0.0
H346 H 0.64921 0.09161 0.45695 0.0
H347 H 0.58593 0.98923 0.40282 0.0
H348 H 0.626 0.97123 0.43365 0.0
H349 H 0.6749 0.90522 0.65608 0.0
H350 H 0.70533 0.95928 0.61317 0.0
H351 H 0.64658 0.90574 0.49575 0.0
H352 H 0.6161 0.85187 0.53805 0.0
H353 H 0.64445 0.96489 0.51298 0.0
H354 H 0.73194 0.93005 0.50567 0.0
H355 H 0.77273 0.9136 0.53826 0.0
H356 H 0.82592 0.0113 0.6073 0.0
H357 H 0.78514 0.02814 0.57556 0.0
C358 C 0.73119 0.08363 0.37084 0.0
C359 C 0.75522 0.11735 0.38513 0.0
C360 C 0.72223 0.0552 0.39855 0.0
C361 C 0.7362 0.06007 0.44175 0.0
C362 C 0.76194 0.09351 0.4551 0.0
C363 C 0.77154 0.12202 0.42673 0.0
C364 C 0.72166 0.03053 0.4736 0.0
C365 C 0.74392 0.02065 0.49388 0.0
C366 C 0.68538 0.01069 0.48156 0.0
C367 C 0.66068 0.02124 0.46382 0.0
C368 C 0.6667 0.05518 0.47052 0.0
C369 C 0.64415 0.06532 0.45219 0.0
C370 C 0.61504 0.04155 0.4279 0.0
C371 C 0.60849 0.00762 0.42169 0.0
C372 C 0.63117 0.99746 0.43948 0.0
C373 C 0.66882 0.90482 0.62097 0.0
C374 C 0.64298 0.87416 0.60059 0.0
C375 C 0.68628 0.93575 0.5965 0.0
C376 C 0.67822 0.93649 0.55129 0.0
C377 C 0.65315 0.90574 0.53063 0.0
C378 C 0.63584 0.87488 0.55491 0.0
C379 C 0.6943 0.9695 0.52576 0.0
C380 C 0.67223 0.98025 0.50708 0.0
C381 C 0.73066 0.99025 0.51979 0.0
C382 C 0.75526 0.98019 0.53863 0.0
C383 C 0.75216 0.9479 0.52809 0.0
C384 C 0.77531 0.93854 0.54635 0.0
C385 C 0.80184 0.96135 0.57493 0.0
C386 C 0.80533 0.99363 0.58521 0.0
C387 C 0.78222 0.00311 0.56707 0.0
H388 H 0.81973 0.95405 0.58904 0.0
H389 H 0.59754 0.04942 0.41389 0.0
H390 H 0.6587 0.79772 0.73654 0.0
H391 H 0.69342 0.78433 0.78803 0.0
H392 H 0.64264 0.67892 0.73842 0.0
H393 H 0.60609 0.69146 0.69047 0.0
H394 H 0.64605 0.67502 0.82076 0.0
H395 H 0.73082 0.7479 0.71031 0.0
H396 H 0.76496 0.8013 0.66603 0.0
H397 H 0.8073 0.86001 0.78653 0.0
H398 H 0.77309 0.80699 0.83154 0.0
H399 H 0.76402 0.61749 0.86306 0.0
H400 H 0.73858 0.64698 0.82267 0.0
H401 H 0.76283 0.71836 0.93226 0.0
H402 H 0.78812 0.68854 0.97374 0.0
H403 H 0.77461 0.74529 0.83069 0.0
H404 H 0.68992 0.66633 0.939 0.0
H405 H 0.65821 0.60963 0.97719 0.0
H406 H 0.61782 0.55891 0.85137 0.0
H407 H 0.64971 0.6153 0.81236 0.0
C408 C 0.65465 0.77162 0.73734 0.0
C409 C 0.62918 0.74549 0.71024 0.0
C410 C 0.67489 0.76406 0.76624 0.0
C411 C 0.67092 0.73055 0.76717 0.0
C412 C 0.64609 0.70486 0.73895 0.0
C413 C 0.62531 0.71213 0.71121 0.0
C414 C 0.69176 0.72143 0.7977 0.0
C415 C 0.67417 0.69049 0.82256 0.0
C416 C 0.72849 0.74177 0.80127 0.0
C417 C 0.74911 0.77359 0.77427 0.0
C418 C 0.74724 0.77225 0.72735 0.0
C419 C 0.76662 0.80244 0.70213 0.0
C420 C 0.7882 0.83405 0.72346 0.0
C421 C 0.79052 0.83552 0.77006 0.0
C422 C 0.77116 0.80541 0.79543 0.0
C423 C 0.76464 0.63982 0.87848 0.0
C424 C 0.77797 0.65048 0.92186 0.0
C425 C 0.75005 0.65665 0.85523 0.0
C426 C 0.74879 0.68471 0.87459 0.0
C427 C 0.76374 0.69678 0.91679 0.0
C428 C 0.77803 0.67963 0.94044 0.0
C429 C 0.72876 0.69878 0.85212 0.0
C430 C 0.74645 0.73042 0.82906 0.0
C431 C 0.69218 0.6788 0.84928 0.0
C432 C 0.67235 0.645 0.87277 0.0
C433 C 0.67445 0.64306 0.91947 0.0
C434 C 0.65641 0.61099 0.94126 0.0
C435 C 0.636 0.5807 0.91672 0.0
C436 C 0.63359 0.58241 0.87033 0.0
C437 C 0.65159 0.61442 0.84838 0.0
H438 H 0.62201 0.55593 0.93367 0.0
H439 H 0.80318 0.85739 0.70388 0.0
H440 H 0.08803 0.74738 0.32228 0.0
H441 H 0.03547 0.72393 0.27649 0.0
H442 H 0.09738 0.77977 0.16212 0.0
H443 H 0.15014 0.80207 0.20726 0.0
H444 H -0.00049 0.74334 0.22484 0.0
H445 H 0.07018 0.72638 0.07205 0.0
H446 H 0.12344 0.72363 0.05722 0.0
H447 H 0.12028 0.68605 0.19033 0.0
H448 H 0.06629 0.68712 0.2053 0.0
H449 H 0.881 0.67607 0.03956 0.0
H450 H 0.92872 0.71046 0.09189 0.0
H451 H 0.94719 0.62422 0.10606 0.0
H452 H 0.90102 0.59084 0.0525 0.0
H453 H 0.00494 0.67753 0.09421 0.0
H454 H 0.91023 0.65152 0.19398 0.0
H455 H 0.85631 0.64869 0.22042 0.0
H456 H 0.90309 0.75922 0.20634 0.0
H457 H 0.95759 0.76287 0.18044 0.0
C458 C 0.09036 0.75519 0.28758 0.0
C459 C 0.1232 0.77603 0.26809 0.0
C460 C 0.06027 0.74189 0.26149 0.0
C461 C 0.06256 0.74952 0.21567 0.0
C462 C 0.09508 0.77296 0.1972 0.0
C463 C 0.12521 0.78566 0.223 0.0
C464 C 0.03187 0.7297 0.18632 0.0
C465 C 0.00067 0.7291 0.19608 0.0
C466 C 0.0331 0.71019 0.14966 0.0
C467 C 0.06437 0.70726 0.13993 0.0
C468 C 0.08061 0.71711 0.09795 0.0
C469 C 0.1109 0.71577 0.08949 0.0
C470 C 0.12518 0.70459 0.12278 0.0
C471 C 0.10909 0.69451 0.16448 0.0
C472 C 0.07857 0.69535 0.1729 0.0
C473 C 0.89523 0.66457 0.05419 0.0
C474 C 0.88773 0.63106 0.04172 0.0
C475 C 0.92232 0.68408 0.08429 0.0
C476 C 0.94168 0.66999 0.1031 0.0
C477 C 0.93306 0.63593 0.09173 0.0
C478 C 0.9066 0.61682 0.06113 0.0
C479 C 0.97221 0.691 0.13252 0.0
C480 C 0.00361 0.6919 0.12269 0.0
C481 C 0.97067 0.70955 0.17012 0.0
C482 C 0.9378 0.70741 0.18477 0.0
C483 C 0.90891 0.67519 0.19616 0.0
C484 C 0.87827 0.67343 0.21114 0.0
C485 C 0.87611 0.70364 0.21461 0.0
C486 C 0.90474 0.73579 0.20347 0.0
C487 C 0.93557 0.73776 0.18884 0.0
H488 H 0.85231 0.70215 0.22616 0.0
H489 H 0.14868 0.70369 0.11628 0.0
H490 H 0.37076 0.14461 0.53789 0.0
H491 H 0.33642 0.09035 0.49768 0.0
H492 H 0.28618 0.03901 0.62052 0.0
H493 H 0.32118 0.09329 0.66143 0.0
H494 H 0.30764 0.00164 0.57665 0.0
H495 H 0.24047 0.05374 0.5388 0.0
H496 H 0.22908 0.10005 0.51394 0.0
H497 H 0.2734 0.10228 0.38571 0.0
H498 H 0.28551 0.0563 0.40998 0.0
H499 H 0.20572 0.85224 0.43096 0.0
H500 H 0.2158 0.89885 0.48375 0.0
H501 H 0.29925 0.97305 0.40057 0.0
H502 H 0.29028 0.92663 0.34918 0.0
H503 H 0.24729 0.99229 0.43332 0.0
H504 H 0.32214 0.94632 0.47828 0.0
H505 H 0.3336 0.9004 0.50444 0.0
H506 H 0.27321 0.88672 0.62247 0.0
H507 H 0.26041 0.93185 0.59623 0.0
C508 C 0.35214 0.12199 0.55641 0.0
C509 C 0.34886 0.12338 0.60294 0.0
C510 C 0.33231 0.09093 0.53326 0.0
C511 C 0.3084 0.06065 0.55599 0.0
C512 C 0.3044 0.06208 0.6023 0.0
C513 C 0.32438 0.09318 0.62557 0.0
C514 C 0.28963 0.0272 0.53153 0.0
C515 C 0.29361 0.99926 0.54594 0.0
C516 C 0.2715 0.02413 0.49132 0.0
C517 C 0.26403 0.05163 0.47632 0.0
C518 C 0.24798 0.06423 0.50538 0.0
C519 C 0.24136 0.09041 0.49138 0.0
C520 C 0.25054 0.10412 0.44829 0.0
C521 C 0.26628 0.09162 0.41908 0.0
C522 C 0.27297 0.06544 0.43291 0.0
C523 C 0.22598 0.8785 0.42399 0.0
C524 C 0.2473 0.88587 0.38627 0.0
C525 C 0.23171 0.90502 0.45403 0.0
C526 C 0.25823 0.93926 0.44582 0.0
C527 C 0.27861 0.94676 0.40728 0.0
C528 C 0.27353 0.92023 0.37811 0.0
C529 C 0.26628 0.96749 0.4779 0.0
C530 C 0.26036 0.9944 0.46479 0.0
C531 C 0.28237 0.96948 0.51943 0.0
C532 C 0.28968 0.94197 0.5348 0.0
C533 C 0.31072 0.93307 0.50938 0.0
C534 C 0.31754 0.90723 0.52428 0.0
C535 C 0.30393 0.89045 0.56494 0.0
C536 C 0.2836 0.89962 0.59087 0.0
C537 C 0.27642 0.92522 0.57589 0.0
H538 H 0.30924 0.87044 0.57644 0.0
H539 H 0.24541 0.1244 0.43752 0.0
H540 H 0.20987 0.38797 0.7016 0.0
H541 H 0.21374 0.38153 0.62092 0.0
H542 H 0.1885 0.46218 0.59718 0.0
H543 H 0.18502 0.46909 0.67759 0.0
H544 H 0.15117 0.40675 0.54334 0.0
H545 H 0.271 0.47836 0.58565 0.0
H546 H 0.32407 0.49376 0.62876 0.0
H547 H 0.32296 0.4021 0.58106 0.0
H548 H 0.2695 0.38583 0.53809 0.0
H549 H 0.19961 0.44174 0.3145 0.0
H550 H 0.1955 0.44638 0.39545 0.0
H551 H 0.22025 0.36496 0.41511 0.0
H552 H 0.22382 0.3597 0.33433 0.0
H553 H 0.25735 0.41932 0.47109 0.0
H554 H 0.13839 0.34786 0.42803 0.0
H555 H 0.08533 0.332 0.38453 0.0
H556 H 0.08458 0.42245 0.43359 0.0
H557 H 0.13797 0.43915 0.47689 0.0
C558 C 0.20554 0.40462 0.67924 0.0
C559 C 0.19705 0.429 0.69616 0.0
C560 C 0.20765 0.40083 0.63311 0.0
C561 C 0.20154 0.42148 0.60298 0.0
C562 C 0.19312 0.44583 0.61976 0.0
C563 C 0.19104 0.44966 0.66579 0.0
C564 C 0.20367 0.41765 0.55393 0.0
C565 C 0.17454 0.40992 0.52748 0.0
C566 C 0.23385 0.42092 0.53334 0.0
C567 C 0.26604 0.43069 0.55903 0.0
C568 C 0.2819 0.46133 0.58463 0.0
C569 C 0.31208 0.47025 0.609 0.0
C570 C 0.32684 0.4489 0.60777 0.0
C571 C 0.31147 0.4186 0.58205 0.0
C572 C 0.28124 0.40952 0.55765 0.0
C573 C 0.20379 0.42453 0.33599 0.0
C574 C 0.21208 0.40036 0.3178 0.0
C575 C 0.20155 0.4273 0.38228 0.0
C576 C 0.20739 0.40587 0.41133 0.0
C577 C 0.2158 0.38186 0.39334 0.0
C578 C 0.21796 0.379 0.34711 0.0
C579 C 0.20493 0.40862 0.46051 0.0
C580 C 0.23397 0.4161 0.48698 0.0
C581 C 0.17464 0.40501 0.48113 0.0
C582 C 0.14239 0.39494 0.45537 0.0
C583 C 0.12707 0.36453 0.42927 0.0
C584 C 0.09691 0.35535 0.40469 0.0
C585 C 0.08164 0.37625 0.40621 0.0
C586 C 0.09646 0.40631 0.43241 0.0
C587 C 0.12666 0.41563 0.457 0.0
H588 H 0.05829 0.36911 0.38716 0.0
H589 H 0.35023 0.45589 0.62666 0.0
H590 H 0.7679 0.25357 0.02825 0.0
H591 H 0.77629 0.25802 0.94721 0.0
H592 H 0.78804 0.16732 0.9484 0.0
H593 H 0.78062 0.16326 0.02954 0.0
H594 H 0.83499 0.21659 0.89374 0.0
H595 H 0.71167 0.16135 0.91683 0.0
H596 H 0.65765 0.1556 0.94791 0.0
H597 H 0.67855 0.25041 0.88312 0.0
H598 H 0.73298 0.25698 0.8521 0.0
H599 H 0.80896 0.17609 0.66245 0.0
H600 H 0.80078 0.17251 0.7436 0.0
H601 H 0.79251 0.2652 0.74101 0.0
H602 H 0.80019 0.26866 0.65982 0.0
H603 H 0.74398 0.21549 0.79623 0.0
H604 H 0.86699 0.27044 0.77262 0.0
H605 H 0.92113 0.27635 0.74174 0.0
H606 H 0.90087 0.18215 0.8077 0.0
H607 H 0.8463 0.1754 0.83846 0.0
C608 C 0.77276 0.23486 0.01137 0.0
C609 C 0.77338 0.20792 0.03539 0.0
C610 C 0.77721 0.23723 0.96495 0.0
C611 C 0.78228 0.21269 0.94158 0.0
C612 C 0.78398 0.18643 0.96564 0.0
C613 C 0.77947 0.184 0.012 0.0
C614 C 0.78525 0.21397 0.89201 0.0
C615 C 0.81488 0.21591 0.87243 0.0
C616 C 0.75937 0.21381 0.86413 0.0
C617 C 0.72657 0.20983 0.88252 0.0
C618 C 0.70488 0.18111 0.90948 0.0
C619 C 0.67417 0.17768 0.92704 0.0
C620 C 0.66472 0.20267 0.9176 0.0
C621 C 0.68593 0.2311 0.89046 0.0
C622 C 0.7167 0.23468 0.87285 0.0
C623 C 0.80494 0.19544 0.67909 0.0
C624 C 0.80542 0.22277 0.65473 0.0
C625 C 0.80055 0.19353 0.72551 0.0
C626 C 0.79648 0.21885 0.74847 0.0
C627 C 0.79577 0.24548 0.72405 0.0
C628 C 0.80038 0.24754 0.6777 0.0
C629 C 0.79365 0.218 0.79801 0.0
C630 C 0.76408 0.21617 0.81757 0.0
C631 C 0.81957 0.21824 0.82587 0.0
C632 C 0.85237 0.22222 0.80745 0.0
C633 C 0.87392 0.25082 0.78022 0.0
C634 C 0.90471 0.25435 0.76279 0.0
C635 C 0.91438 0.22959 0.77264 0.0
C636 C 0.89331 0.20128 0.80003 0.0
C637 C 0.86246 0.1976 0.8175 0.0
H638 H 0.93824 0.23238 0.75914 0.0
H639 H 0.64093 0.19997 0.93122 0.0
H640 H 0.51318 0.71124 0.34681 0.0
H641 H 0.5212 0.71984 0.26621 0.0
H642 H 0.61359 0.81904 0.28772 0.0
H643 H 0.60604 0.81043 0.36863 0.0
H644 H 0.57266 0.82297 0.22334 0.0
H645 H 0.61981 0.74913 0.25608 0.0
H646 H 0.61994 0.69776 0.28716 0.0
H647 H 0.53309 0.6309 0.20397 0.0
H648 H 0.53212 0.68186 0.17284 0.0
H649 H 0.63907 0.84936 1.00337 0.0
H650 H 0.63189 0.83939 0.08383 0.0
H651 H 0.53883 0.74092 0.0614 0.0
H652 H 0.54557 0.75091 0.98058 0.0
H653 H 0.57995 0.73637 0.1261 0.0
H654 H 0.53273 0.81017 0.09352 0.0
H655 H 0.53269 0.86153 0.06226 0.0
H656 H 0.61968 0.92845 0.14519 0.0
H657 H 0.62058 0.87749 0.1765 0.0
C658 C 0.53548 0.73474 0.33452 0.0
C659 C 0.55914 0.76 0.36438 0.0
C660 C 0.53996 0.73965 0.28833 0.0
C661 C 0.56825 0.76988 0.27084 0.0
C662 C 0.59158 0.79548 0.30044 0.0
C663 C 0.58715 0.79056 0.34672 0.0
C664 C 0.57329 0.77482 0.22166 0.0
C665 C 0.57477 0.80428 0.20218 0.0
C666 C 0.57515 0.75001 0.19383 0.0
C667 C 0.57567 0.7193 0.21247 0.0
C668 C 0.60055 0.72345 0.24469 0.0
C669 C 0.60081 0.69441 0.26226 0.0
C670 C 0.57648 0.66108 0.24764 0.0
C671 C 0.55189 0.65673 0.21532 0.0
C672 C 0.55149 0.68569 0.19767 0.0
C673 C 0.61691 0.82565 0.01545 0.0
C674 C 0.59267 0.80112 0.98539 0.0
C675 C 0.61291 0.81996 0.06153 0.0
C676 C 0.58453 0.78966 0.07873 0.0
C677 C 0.56089 0.76454 0.04889 0.0
C678 C 0.56485 0.77024 1.00267 0.0
C679 C 0.5794 0.78455 0.12785 0.0
C680 C 0.57786 0.75505 0.1473 0.0
C681 C 0.57747 0.80932 0.15568 0.0
C682 C 0.57694 0.84002 0.13703 0.0
C683 C 0.55204 0.83585 0.10483 0.0
C684 C 0.55183 0.86489 0.08714 0.0
C685 C 0.57622 0.89824 0.10164 0.0
C686 C 0.60083 0.90261 0.13394 0.0
C687 C 0.60119 0.87365 0.1517 0.0
H688 H 0.57601 0.92068 0.08792 0.0
H689 H 0.57674 0.63863 0.26127 0.0
H690 H 0.74446 0.5467 0.68822 0.0
H691 H 0.7396 0.5527 0.60764 0.0
H692 H 0.84892 0.58844 0.59233 0.0
H693 H 0.85428 0.58396 0.67286 0.0
H694 H 0.83171 0.62588 0.54161 0.0
H695 H 0.78487 0.50353 0.56727 0.0
H696 H 0.74598 0.44677 0.60223 0.0
H697 H 0.65699 0.44922 0.55055 0.0
H698 H 0.69538 0.50624 0.51573 0.0
H699 H 0.83714 0.59953 0.30878 0.0
H700 H 0.83876 0.5932 0.38994 0.0
H701 H 0.73151 0.56714 0.39897 0.0
H702 H 0.72961 0.57306 0.31776 0.0
H703 H 0.74578 0.52507 0.45265 0.0
H704 H 0.7932 0.64683 0.4251 0.0
H705 H 0.83244 0.7032 0.38951 0.0
H706 H 0.92087 0.70145 0.44462 0.0
H707 H 0.88214 0.64477 0.48 0.0
C708 C 0.76758 0.55628 0.66782 0.0
C709 C 0.79972 0.56454 0.68717 0.0
C710 C 0.76468 0.55934 0.6216 0.0
C711 C 0.79377 0.57046 0.59364 0.0
C712 C 0.82602 0.57959 0.61303 0.0
C713 C 0.82897 0.57668 0.65915 0.0
C714 C 0.79077 0.57237 0.54418 0.0
C715 C 0.81318 0.60368 0.52218 0.0
C716 C 0.76609 0.54369 0.51868 0.0
C717 C 0.74298 0.5093 0.53928 0.0
C718 C 0.757 0.49207 0.56362 0.0
C719 C 0.73505 0.45984 0.58337 0.0
C720 C 0.69903 0.44444 0.57872 0.0
C721 C 0.6849 0.4612 0.55418 0.0
C722 C 0.70674 0.49346 0.53439 0.0
C723 C 0.81377 0.59199 0.32797 0.0
C724 C 0.78327 0.58691 0.30683 0.0
C725 C 0.8148 0.58864 0.3744 0.0
C726 C 0.78535 0.58006 0.40064 0.0
C727 C 0.75456 0.57389 0.37946 0.0
C728 C 0.75359 0.5775 0.33309 0.0
C729 C 0.78696 0.57842 0.45023 0.0
C730 C 0.76426 0.54723 0.47219 0.0
C731 C 0.81144 0.60715 0.47571 0.0
C732 C 0.83478 0.64139 0.45483 0.0
C733 C 0.82103 0.65833 0.42934 0.0
C734 C 0.84317 0.69036 0.40925 0.0
C735 C 0.87913 0.70585 0.4147 0.0
C736 C 0.89301 0.68939 0.44038 0.0
C737 C 0.87097 0.65732 0.46048 0.0
H738 H 0.89624 0.73065 0.39912 0.0
H739 H 0.68208 0.41949 0.59405 0.0
H740 H 0.25377 0.81349 0.64075 0.0
H741 H 0.26445 0.82044 0.72135 0.0
H742 H 0.15397 0.76408 0.7457 0.0
H743 H 0.14308 0.75819 0.66546 0.0
H744 H 0.18544 0.81877 0.80025 0.0
H745 H 0.20441 0.72505 0.75455 0.0
H746 H 0.23222 0.70009 0.70783 0.0
H747 H 0.33251 0.7761 0.75774 0.0
H748 H 0.30533 0.80186 0.80427 0.0
H749 H 0.18434 0.78016 0.02929 0.0
H750 H 0.1757 0.77427 0.94848 0.0
H751 H 0.28659 0.82415 0.9289 0.0
H752 H 0.29533 0.82819 0.00955 0.0
H753 H 0.25657 0.77428 0.87126 0.0
H754 H 0.23966 0.86829 0.91649 0.0
H755 H 0.21407 0.89704 0.96009 0.0
H756 H 0.11276 0.82443 0.9094 0.0
H757 H 0.1377 0.79495 0.86592 0.0
C758 C 0.23174 0.80289 0.66322 0.0
C759 C 0.19755 0.78481 0.64648 0.0
C760 C 0.23789 0.80665 0.70936 0.0
C761 C 0.21001 0.79226 0.73971 0.0
C762 C 0.17592 0.7752 0.72304 0.0
C763 C 0.16975 0.77152 0.67705 0.0
C764 C 0.21605 0.79423 0.78886 0.0
C765 C 0.20066 0.80868 0.81583 0.0
C766 C 0.23665 0.78189 0.80917 0.0
C767 C 0.25286 0.76554 0.78263 0.0
C768 C 0.2324 0.73649 0.75547 0.0
C769 C 0.24805 0.72222 0.729 0.0
C770 C 0.28412 0.73655 0.72975 0.0
C771 C 0.30458 0.76505 0.75717 0.0
C772 C 0.28907 0.77948 0.78364 0.0
C773 C 0.2069 0.78937 0.00792 0.0
C774 C 0.2406 0.80506 0.02624 0.0
C775 C 0.20194 0.78638 0.96154 0.0
C776 C 0.23054 0.79947 0.93233 0.0
C777 C 0.26408 0.81409 0.95055 0.0
C778 C 0.26904 0.81676 0.99685 0.0
C779 C 0.22568 0.79859 0.88288 0.0
C780 C 0.24132 0.78438 0.85579 0.0
C781 C 0.20556 0.81146 0.86236 0.0
C782 C 0.1905 0.82922 0.8883 0.0
C783 C 0.21189 0.85831 0.91488 0.0
C784 C 0.19751 0.87475 0.93954 0.0
C785 C 0.1618 0.86251 0.93761 0.0
C786 C 0.14041 0.83385 0.91091 0.0
C787 C 0.15466 0.81728 0.88622 0.0
H788 H 0.15071 0.87528 0.95672 0.0
H789 H 0.2962 0.72555 0.70911 0.0
H790 H 0.44242 0.20019 0.36001 0.0
H791 H 0.43777 0.19399 0.27856 0.0
H792 H 0.3933 0.26082 0.27293 0.0
H793 H 0.39809 0.2673 0.35451 0.0
H794 H 0.35942 0.19963 0.21675 0.0
H795 H 0.47337 0.29583 0.24897 0.0
H796 H 0.53037 0.32445 0.28669 0.0
H797 H 0.55451 0.25061 0.22879 0.0
H798 H 0.49737 0.22118 0.19129 0.0
H799 H 0.37919 0.22951 0.98263 0.0
H800 H 0.38239 0.23933 0.06341 0.0
H801 H 0.44387 0.18937 0.07781 0.0
H802 H 0.44192 0.1807 0.99713 0.0
H803 H 0.46875 0.24423 0.13012 0.0
H804 H 0.35619 0.14631 0.10074 0.0
H805 H 0.29863 0.11429 0.06476 0.0
H806 H 0.2712 0.18706 0.11821 0.0
H807 H 0.32884 0.21983 0.15403 0.0
C808 C 0.43114 0.21311 0.34147 0.0
C809 C 0.42061 0.23424 0.36352 0.0
C810 C 0.4287 0.20972 0.29498 0.0
C811 C 0.41542 0.22716 0.26977 0.0
C812 C 0.40365 0.2472 0.29182 0.0
C813 C 0.40653 0.25099 0.3383 0.0
C814 C 0.41523 0.22559 0.22027 0.0
C815 C 0.38329 0.20983 0.19767 0.0
C816 C 0.4464 0.23819 0.19562 0.0
C817 C 0.48095 0.2561 0.21767 0.0
C818 C 0.49072 0.28552 0.24457 0.0
C819 C 0.52307 0.30192 0.26587 0.0
C820 C 0.54602 0.2893 0.26024 0.0
C821 C 0.53669 0.26032 0.23317 0.0
C822 C 0.50433 0.24379 0.21186 0.0
C823 C 0.39386 0.22111 1.00291 0.0
C824 C 0.41002 0.20401 0.98341 0.0
C825 C 0.39536 0.22641 0.04916 0.0
C826 C 0.41286 0.21453 0.07685 0.0
C827 C 0.43002 0.19857 0.05725 0.0
C828 C 0.42862 0.19336 0.01111 0.0
C829 C 0.41284 0.21804 0.12629 0.0
C830 C 0.4448 0.23418 0.149 0.0
C831 C 0.38164 0.20538 0.15107 0.0
C832 C 0.34697 0.18574 0.12963 0.0
C833 C 0.33799 0.15565 0.10451 0.0
C834 C 0.30534 0.13734 0.0842 0.0
C835 C 0.28132 0.1487 0.08908 0.0
C836 C 0.28987 0.17834 0.11439 0.0
C837 C 0.32252 0.19678 0.13472 0.0
H838 H 0.25604 0.13447 0.07334 0.0
H839 H 0.57105 0.30203 0.27676 0.0
H840 H 0.20698 0.52978 0.0257 0.0
H841 H 0.2031 0.57411 0.0696 0.0
H842 H 0.16994 0.50632 0.18436 0.0
H843 H 0.17415 0.46181 0.14083 0.0
H844 H 0.13025 0.54166 0.16483 0.0
H845 H 0.24839 0.56529 0.18458 0.0
H846 H 0.30571 0.57666 0.15813 0.0
H847 H 0.32005 0.66711 0.08757 0.0
H848 H 0.26254 0.65597 0.11307 0.0
H849 H 0.15186 0.66323 0.33249 0.0
H850 H 0.15024 0.61711 0.2863 0.0
H851 H 0.21561 0.69355 0.18852 0.0
H852 H 0.21899 0.7396 0.23656 0.0
H853 H 0.23807 0.65269 0.19762 0.0
H854 H 0.12222 0.63115 0.1728 0.0
H855 H 0.06374 0.62048 0.19288 0.0
H856 H 0.04345 0.52849 0.26459 0.0
H857 H 0.10182 0.53871 0.2452 0.0
C858 C 0.19864 0.52416 0.0602 0.0
C859 C 0.19099 0.49236 0.07989 0.0
C860 C 0.19653 0.54955 0.0852 0.0
C861 C 0.1864 0.54345 0.13016 0.0
C862 C 0.17782 0.51141 0.14965 0.0
C863 C 0.18039 0.48614 0.12482 0.0
C864 C 0.18578 0.57101 0.15709 0.0
C865 C 0.15378 0.56585 0.17255 0.0
C866 C 0.21642 0.60287 0.16567 0.0
C867 C 0.25102 0.6096 0.1504 0.0
C868 C 0.26362 0.58742 0.16309 0.0
C869 C 0.29617 0.59386 0.14833 0.0
C870 C 0.31648 0.62256 0.12113 0.0
C871 C 0.30428 0.64488 0.10862 0.0
C872 C 0.27172 0.63853 0.12324 0.0
C873 C 0.16583 0.67005 0.30107 0.0
C874 C 0.18596 0.70496 0.28812 0.0
C875 C 0.16459 0.64365 0.27439 0.0
C876 C 0.18234 0.65159 0.23335 0.0
C877 C 0.20182 0.68659 0.22007 0.0
C878 C 0.20389 0.713 0.24749 0.0
C879 C 0.1823 0.62377 0.20556 0.0
C880 C 0.21431 0.62874 0.1899 0.0
C881 C 0.15151 0.59202 0.19599 0.0
C882 C 0.11651 0.58594 0.20799 0.0
C883 C 0.10538 0.60885 0.19321 0.0
C884 C 0.07226 0.60285 0.20437 0.0
C885 C 0.05 0.57396 0.23017 0.0
C886 C 0.06075 0.55091 0.2447 0.0
C887 C 0.09381 0.55675 0.23355 0.0
H888 H 0.02438 0.56937 0.23877 0.0
H889 H 0.34173 0.62758 0.10991 0.0
H890 H 0.72841 0.21315 0.48159 0.0
H891 H 0.67912 0.20518 0.52619 0.0
H892 H 0.6112 0.15914 0.41271 0.0
H893 H 0.66091 0.16855 0.36722 0.0
H894 H 0.59811 0.20349 0.44869 0.0
H895 H 0.60968 0.10879 0.51022 0.0
H896 H 0.64092 0.08179 0.54504 0.0
H897 H 0.67046 0.15276 0.6552 0.0
H898 H 0.63907 0.1799 0.62148 0.0
H899 H 0.4594 0.12917 0.63968 0.0
H900 H 0.5014 0.1252 0.59045 0.0
H901 H 0.55706 0.23673 0.57535 0.0
H902 H 0.51537 0.24084 0.62467 0.0
H903 H 0.57106 0.15253 0.60092 0.0
H904 H 0.58992 0.25742 0.47233 0.0
H905 H 0.55641 0.28024 0.43353 0.0
H906 H 0.46263 0.18239 0.45174 0.0
H907 H 0.49549 0.15919 0.491 0.0
C908 C 0.70293 0.2011 0.46617 0.0
C909 C 0.69853 0.19163 0.42081 0.0
C910 C 0.67466 0.19625 0.49188 0.0
C911 C 0.64124 0.181 0.47312 0.0
C912 C 0.63672 0.17093 0.42798 0.0
C913 C 0.66513 0.17636 0.40198 0.0
C914 C 0.61156 0.17789 0.49963 0.0
C915 C 0.59212 0.19211 0.48185 0.0
C916 C 0.60347 0.16291 0.54287 0.0
C917 C 0.62222 0.14649 0.56319 0.0
C918 C 0.62296 0.11871 0.54177 0.0
C919 C 0.64065 0.10337 0.56131 0.0
C920 C 0.65785 0.11571 0.60205 0.0
C921 C 0.65716 0.14325 0.6236 0.0
C922 C 0.63927 0.15849 0.60444 0.0
C923 C 0.48059 0.1528 0.62576 0.0
C924 C 0.48408 0.18529 0.6357 0.0
C925 C 0.50451 0.1505 0.59768 0.0
C926 C 0.5321 0.18062 0.57886 0.0
C927 C 0.53562 0.2131 0.5889 0.0
C928 C 0.51186 0.21542 0.61714 0.0
C929 C 0.55798 0.17836 0.54998 0.0
C930 C 0.57686 0.16345 0.5675 0.0
C931 C 0.56536 0.19237 0.50632 0.0
C932 C 0.54512 0.20669 0.48485 0.0
C933 C 0.5621 0.24088 0.46826 0.0
C934 C 0.54322 0.2539 0.44627 0.0
C935 C 0.5074 0.23285 0.44031 0.0
C936 C 0.49031 0.19883 0.4567 0.0
C937 C 0.50903 0.18577 0.47903 0.0
H938 H 0.49301 0.2429 0.42274 0.0
H939 H 0.67162 0.10386 0.617 0.0
H940 H 0.33083 0.46179 0.97853 0.0
H941 H 0.37607 0.50672 0.93096 0.0
H942 H 0.3107 0.55131 0.9076 0.0
H943 H 0.26629 0.50781 0.95688 0.0
H944 H 0.35128 0.52945 0.82756 0.0
H945 H 0.3573 0.60023 0.95942 0.0
H946 H 0.36237 0.6104 0.04074 0.0
H947 H 0.45687 0.60613 0.04251 0.0
H948 H 0.45192 0.59528 0.96117 0.0
H949 H 0.45376 0.68597 0.71032 0.0
H950 H 0.41153 0.63835 0.75676 0.0
H951 H 0.49468 0.64779 0.84144 0.0
H952 H 0.53664 0.69711 0.79669 0.0
H953 H 0.44628 0.63898 0.8916 0.0
H954 H 0.44736 0.57763 0.76049 0.0
H955 H 0.44377 0.56431 0.68 0.0
H956 H 0.33955 0.54681 0.6759 0.0
H957 H 0.34257 0.56011 0.75628 0.0
C958 C 0.32623 0.48128 0.96337 0.0
C959 C 0.29494 0.48114 0.97087 0.0
C960 C 0.35196 0.50677 0.93622 0.0
C961 C 0.34649 0.53208 0.91591 0.0
C962 C 0.3152 0.53182 0.92302 0.0
C963 C 0.28983 0.50686 0.95087 0.0
C964 C 0.37353 0.55909 0.88741 0.0
C965 C 0.372 0.55358 0.84123 0.0
C966 C 0.40094 0.58983 0.90577 0.0
C967 C 0.40395 0.59642 0.95447 0.0
C968 C 0.3789 0.60101 0.97727 0.0
C969 C 0.38181 0.60701 0.02333 0.0
C970 C 0.40986 0.60878 0.04684 0.0
C971 C 0.4351 0.60465 0.02429 0.0
C972 C 0.43225 0.59856 0.97823 0.0
C973 C 0.46295 0.67768 0.73873 0.0
C974 C 0.49836 0.69504 0.74996 0.0
C975 C 0.43885 0.65026 0.76509 0.0
C976 C 0.44987 0.63879 0.80218 0.0
C977 C 0.48543 0.65603 0.81305 0.0
C978 C 0.50941 0.68414 0.78745 0.0
C979 C 0.42421 0.60995 0.83079 0.0
C980 C 0.42591 0.61491 0.87733 0.0
C981 C 0.39725 0.5784 0.81264 0.0
C982 C 0.39529 0.5701 0.76434 0.0
C983 C 0.42373 0.57107 0.74236 0.0
C984 C 0.42177 0.56345 0.69677 0.0
C985 C 0.39146 0.55472 0.67283 0.0
C986 C 0.363 0.55348 0.69447 0.0
C987 C 0.36478 0.56097 0.74007 0.0
H988 H 0.39001 0.54887 0.63753 0.0
H989 H 0.41209 0.61347 0.0825 0.0
H990 H 0.87041 0.32499 0.28729 0.0
H991 H 0.87064 0.36709 0.23402 0.0
H992 H 0.75937 0.3199 0.24784 0.0
H993 H 0.759 0.27728 0.29987 0.0
H994 H 0.77586 0.33542 0.16443 0.0
H995 H 0.81869 0.39634 0.30445 0.0
H996 H 0.85808 0.4184 0.36943 0.0
H997 H 0.94509 0.47598 0.2821 0.0
H998 H 0.90624 0.45389 0.21657 0.0
H999 H 0.79602 0.51842 0.13559 0.0
H1000 H 0.79978 0.47446 0.18012 0.0
H1001 H 0.81933 0.43249 0.06082 0.0
H1002 H 0.81504 0.47617 0.01576 0.0
H1003 H 0.85066 0.4615 0.19446 0.0
H1004 H 0.78371 0.34337 0.0753 0.0
H1005 H 0.7402 0.3214 0.01467 0.0
H1006 H 0.69387 0.37852 0.06788 0.0
H1007 H 0.73658 0.40021 0.12928 0.0
C1008 C 0.84605 0.32366 0.27879 0.0
C1009 C 0.81471 0.29811 0.29777 0.0
C1010 C 0.84619 0.34771 0.24845 0.0
C1011 C 0.81507 0.347 0.23737 0.0
C1012 C 0.7837 0.32098 0.25578 0.0
C1013 C 0.78352 0.29672 0.28563 0.0
C1014 C 0.81503 0.37383 0.20768 0.0
C1015 C 0.79235 0.363 0.17088 0.0
C1016 C 0.83628 0.40984 0.21625 0.0
C1017 C 0.85962 0.42318 0.25563 0.0
C1018 C 0.84625 0.41351 0.29912 0.0
C1019 C 0.86848 0.42605 0.33604 0.0
C1020 C 0.90408 0.4485 0.3299 0.0
C1021 C 0.91752 0.45854 0.28681 0.0
C1022 C 0.89541 0.44604 0.24978 0.0
C1023 C 0.80118 0.49993 0.11871 0.0
C1024 C 0.80515 0.50082 0.07204 0.0
C1025 C 0.8034 0.47482 0.14429 0.0
C1026 C 0.80961 0.45001 0.12383 0.0
C1027 C 0.81403 0.45105 0.07729 0.0
C1028 C 0.81163 0.4761 0.05159 0.0
C1029 C 0.81127 0.4231 0.15147 0.0
C1030 C 0.83439 0.43393 0.18776 0.0
C1031 C 0.78987 0.3871 0.14297 0.0
C1032 C 0.76369 0.37381 0.10653 0.0
C1033 C 0.76416 0.35114 0.07413 0.0
C1034 C 0.7396 0.3387 0.03965 0.0
C1035 C 0.71435 0.34866 0.03731 0.0
C1036 C 0.71348 0.3709 0.06961 0.0
C1037 C 0.73788 0.38329 0.10425 0.0
H1038 H 0.69542 0.33907 0.01055 0.0
H1039 H 0.92124 0.45818 0.35852 0.0
H1040 H 0.32901 0.79577 0.36035 0.0
H1041 H 0.37611 0.8014 0.40885 0.0
H1042 H 0.34058 0.84254 0.51394 0.0
H1043 H 0.29283 0.83562 0.46648 0.0
H1044 H 0.4302 0.85211 0.45178 0.0
H1045 H 0.35273 0.81475 0.61558 0.0
H1046 H 0.29198 0.78467 0.6418 0.0
H1047 H 0.26011 0.72172 0.52336 0.0
H1048 H 0.32084 0.7508 0.49698 0.0
H1049 H 0.5394 0.87062 0.63885 0.0
H1050 H 0.49701 0.87453 0.59015 0.0
H1051 H 0.43701 0.76257 0.58356 0.0
H1052 H 0.47875 0.75859 0.63303 0.0
H1053 H 0.39605 0.79026 0.5972 0.0
H1054 H 0.49214 0.81244 0.49869 0.0
H1055 H 0.55396 0.84508 0.47689 0.0
H1056 H 0.54892 0.93881 0.46652 0.0
H1057 H 0.48726 0.90698 0.48905 0.0
C1058 C 0.33147 0.80626 0.39367 0.0
C1059 C 0.30694 0.81468 0.40988 0.0
C1060 C 0.35842 0.80955 0.42134 0.0
C1061 C 0.36145 0.82166 0.46544 0.0
C1062 C 0.33826 0.83225 0.48052 0.0
C1063 C 0.31101 0.82834 0.45328 0.0
C1064 C 0.38755 0.82133 0.49631 0.0
C1065 C 0.42272 0.83859 0.48357 0.0
C1066 C 0.37789 0.8039 0.53806 0.0
C1067 C 0.34132 0.78528 0.55406 0.0
C1068 C 0.3328 0.79434 0.59525 0.0
C1069 C 0.29835 0.77749 0.61013 0.0
C1070 C 0.27215 0.75148 0.58411 0.0
C1071 C 0.28041 0.74199 0.54339 0.0
C1072 C 0.31486 0.75861 0.52848 0.0
C1073 C 0.51709 0.84689 0.62706 0.0
C1074 C 0.51242 0.8143 0.63937 0.0
C1075 C 0.49301 0.84915 0.5991 0.0
C1076 C 0.46404 0.81883 0.5828 0.0
C1077 C 0.4592 0.78629 0.59565 0.0
C1078 C 0.48315 0.78405 0.62368 0.0
C1079 C 0.43855 0.82071 0.55248 0.0
C1080 C 0.40351 0.80382 0.56542 0.0
C1081 C 0.44837 0.83859 0.51114 0.0
C1082 C 0.48511 0.85736 0.4959 0.0
C1083 C 0.50422 0.84003 0.4919 0.0
C1084 C 0.53924 0.85838 0.47943 0.0
C1085 C 0.55535 0.89395 0.47038 0.0
C1086 C 0.53642 0.91125 0.47354 0.0
C1087 C 0.50143 0.89307 0.48614 0.0
H1088 H 0.58249 0.90808 0.46091 0.0
H1089 H 0.24547 0.73862 0.59557 0.0
H1090 H 0.67663 0.54711 0.9598 0.0
H1091 H 0.62944 0.50296 0.91359 0.0
H1092 H 0.6837 0.44521 0.90568 0.0
H1093 H 0.7301 0.48846 0.95263 0.0
H1094 H 0.62586 0.47882 0.83058 0.0
H1095 H 0.62731 0.35989 0.90959 0.0
H1096 H 0.63952 0.34204 0.98237 0.0
H1097 H 0.61612 0.41325 0.04964 0.0
H1098 H 0.60336 0.4312 0.97738 0.0
H1099 H 0.53546 0.32954 0.69214 0.0
H1100 H 0.57762 0.37814 0.73769 0.0
H1101 H 0.50854 0.33808 0.85093 0.0
H1102 H 0.46679 0.28921 0.80608 0.0
H1103 H 0.56961 0.35511 0.87681 0.0
H1104 H 0.52207 0.41197 0.7908 0.0
H1105 H 0.50427 0.42993 0.72235 0.0
H1106 H 0.61008 0.48363 0.67676 0.0
H1107 H 0.62846 0.46562 0.74468 0.0
C1108 C 0.67833 0.52492 0.94817 0.0
C1109 C 0.70686 0.52106 0.95981 0.0
C1110 C 0.65154 0.49988 0.92165 0.0
C1111 C 0.65286 0.47059 0.90668 0.0
C1112 C 0.68185 0.46729 0.91744 0.0
C1113 C 0.70846 0.49215 0.94401 0.0
C1114 C 0.62373 0.44295 0.88065 0.0
C1115 C 0.61347 0.45176 0.84066 0.0
C1116 C 0.60704 0.40775 0.89435 0.0
C1117 C 0.61466 0.39708 0.938 0.0
C1118 C 0.62468 0.37166 0.93993 0.0
C1119 C 0.63172 0.36155 0.98109 0.0
C1120 C 0.62865 0.37655 0.02058 0.0
C1121 C 0.61858 0.40172 0.01901 0.0
C1122 C 0.6115 0.41191 0.97796 0.0
C1123 C 0.52914 0.33125 0.72665 0.0
C1124 C 0.49777 0.30548 0.74548 0.0
C1125 C 0.5532 0.35916 0.75261 0.0
C1126 C 0.54609 0.36207 0.79765 0.0
C1127 C 0.5146 0.33652 0.81626 0.0
C1128 C 0.49071 0.30856 0.7905 0.0
C1129 C 0.57203 0.39076 0.82611 0.0
C1130 C 0.58182 0.38213 0.86663 0.0
C1131 C 0.58752 0.42615 0.81343 0.0
C1132 C 0.57659 0.4372 0.77266 0.0
C1133 C 0.54151 0.42741 0.76604 0.0
C1134 C 0.53132 0.43764 0.72735 0.0
C1135 C 0.55601 0.45785 0.69518 0.0
C1136 C 0.59097 0.46796 0.70169 0.0
C1137 C 0.6013 0.45778 0.7403 0.0
H1138 H 0.54807 0.46572 0.66525 0.0
H1139 H 0.63392 0.36857 0.05243 0.0
loop_
_geom_bond_atom_site_label_1
_geom_bond_atom_site_label_2
_geom_bond_distance
_geom_bond_site_symmetry_2
_ccdc_geom_bond_type
Gd0 C3 2.818 . S
Gd0 O20 2.377 . S
Gd0 O22 2.448 . S
Gd0 O23 2.506 . S
Gd0 O24 2.435 . S
Gd0 O25 2.717 1_556 S
Gd0 O27 2.395 1_556 S
Gd0 O31 2.327 . S
Gd1 C12 2.818 . S
Gd1 O21 2.395 1_554 S
Gd1 O25 2.327 . S
Gd1 O26 2.377 . S
Gd1 O28 2.448 . S
Gd1 O29 2.506 . S
Gd1 O30 2.435 . S
Gd1 O31 2.717 1_554 S
C2 O20 1.240 . S
C2 O21 1.240 . S
C3 Gd0 2.818 . S
C3 C4 1.510 . S
C3 O22 1.249 . S
C3 O23 1.252 . S
C4 C3 1.510 . S
C4 C5 1.404 . S
C4 C6 1.352 . S
C5 C4 1.404 . S
C5 C9 1.389 . S
C5 H32 0.930 . S
C6 C4 1.352 . S
C6 C8 1.374 . S
C6 H33 0.931 . S
C7 C8 1.359 . S
C7 C9 1.364 . S
C8 C6 1.374 . S
C8 C7 1.359 . S
C8 H34 0.931 . S
C9 C5 1.389 . S
C9 C7 1.364 . S
C9 H35 0.931 . S
C10 O24 1.256 1_554 S
C10 O25 1.257 . S
C11 O26 1.240 . S
C11 O27 1.240 . S
C12 Gd1 2.818 . S
C12 C13 1.510 . S
C12 O28 1.249 . S
C12 O29 1.252 . S
C13 C12 1.510 . S
C13 C14 1.404 . S
C13 C15 1.352 . S
C14 C13 1.404 . S
C14 C18 1.389 . S
C14 H36 0.930 . S
C15 C13 1.352 . S
C15 C17 1.374 . S
C15 H37 0.931 . S
C16 C17 1.359 . S
C16 C18 1.364 . S
C17 C15 1.374 . S
C17 C16 1.359 . S
C17 H38 0.931 . S
C18 C14 1.389 . S
C18 C16 1.364 . S
C18 H39 0.931 . S
C19 O30 1.256 1_556 S
C19 O31 1.257 . S
O20 Gd0 2.377 . S
O20 C2 1.240 . S
O21 Gd1 2.395 1_556 S
O21 C2 1.240 . S
O22 Gd0 2.448 . S
O22 C3 1.249 . S
O23 Gd0 2.506 . S
O23 C3 1.252 . S
O24 Gd0 2.435 . S
O24 C10 1.256 1_556 S
O25 Gd0 2.717 1_554 S
O25 Gd1 2.327 . S
O25 C10 1.257 . S
O26 Gd1 2.377 . S
O26 C11 1.240 . S
O27 Gd0 2.395 1_554 S
O27 C11 1.240 . S
O28 Gd1 2.448 . S
O28 C12 1.249 . S
O29 Gd1 2.506 . S
O29 C12 1.252 . S
O30 Gd1 2.435 . S
O30 C19 1.256 1_554 S
O31 Gd0 2.327 . S
O31 Gd1 2.717 1_556 S
O31 C19 1.257 . S
H32 C5 0.930 . S
H33 C6 0.931 . S
H34 C8 0.931 . S
H35 C9 0.931 . S
H36 C14 0.930 . S
H37 C15 0.931 . S
H38 C17 0.931 . S
H39 C18 0.931 . S
Gd40 C43 2.818 . S
Gd40 O60 2.377 . S
Gd40 O62 2.448 . S
Gd40 O63 2.506 . S
Gd40 O64 2.435 . S
Gd40 O65 2.717 . S
Gd40 O67 2.395 . S
Gd40 O71 2.327 . S
Gd41 C52 2.818 . S
Gd41 O61 2.395 . S
Gd41 O65 2.327 . S
Gd41 O66 2.377 . S
Gd41 O68 2.448 . S
Gd41 O69 2.506 . S
Gd41 O70 2.435 . S
Gd41 O71 2.717 . S
C42 O60 1.240 . S
C42 O61 1.240 . S
C43 Gd40 2.818 . S
C43 C44 1.510 . S
C43 O62 1.249 . S
C43 O63 1.252 . S
C44 C43 1.510 . S
C44 C45 1.404 . S
C44 C46 1.352 . S
C45 C44 1.404 . S
C45 C49 1.389 . S
C45 H72 0.930 . S
C46 C44 1.352 . S
C46 C48 1.374 . S
C46 H73 0.931 . S
C47 C48 1.359 . S
C47 C49 1.364 . S
C48 C46 1.374 . S
C48 C47 1.359 . S
C48 H74 0.931 . S
C49 C45 1.389 . S
C49 C47 1.364 . S
C49 H75 0.931 . S
C50 O64 1.256 . S
C50 O65 1.257 . S
C51 O66 1.240 . S
C51 O67 1.240 . S
C52 Gd41 2.818 . S
C52 C53 1.510 . S
C52 O68 1.249 . S
C52 O69 1.252 . S
C53 C52 1.510 . S
C53 C54 1.404 . S
C53 C55 1.352 . S
C54 C53 1.404 . S
C54 C58 1.389 . S
C54 H76 0.930 . S
C55 C53 1.352 . S
C55 C57 1.374 . S
C55 H77 0.931 . S
C56 C57 1.359 . S
C56 C58 1.364 . S
C57 C55 1.374 . S
C57 C56 1.359 . S
C57 H78 0.931 . S
C58 C54 1.389 . S
C58 C56 1.364 . S
C58 H79 0.931 . S
C59 O70 1.256 . S
C59 O71 1.257 . S
O60 Gd40 2.377 . S
O60 C42 1.240 . S
O61 Gd41 2.395 . S
O61 C42 1.240 . S
O62 Gd40 2.448 . S
O62 C43 1.249 . S
O63 Gd40 2.506 . S
O63 C43 1.252 . S
O64 Gd40 2.435 . S
O64 C50 1.256 . S
O65 Gd40 2.717 . S
O65 Gd41 2.327 . S
O65 C50 1.257 . S
O66 Gd41 2.377 . S
O66 C51 1.240 . S
O67 Gd40 2.395 . S
O67 C51 1.240 . S
O68 Gd41 2.448 . S
O68 C52 1.249 . S
O69 Gd41 2.506 . S
O69 C52 1.252 . S
O70 Gd41 2.435 . S
O70 C59 1.256 . S
O71 Gd40 2.327 . S
O71 Gd41 2.717 . S
O71 C59 1.257 . S
H72 C45 0.930 . S
H73 C46 0.931 . S
H74 C48 0.931 . S
H75 C49 0.931 . S
H76 C54 0.930 . S
H77 C55 0.931 . S
H78 C57 0.931 . S
H79 C58 0.931 . S
Gd80 C83 2.818 . S
Gd80 O100 2.377 . S
Gd80 O102 2.448 . S
Gd80 O103 2.506 . S
Gd80 O104 2.435 . S
Gd80 O105 2.717 . S
Gd80 O107 2.395 . S
Gd80 O111 2.327 . S
Gd81 C92 2.818 . S
Gd81 O101 2.395 . S
Gd81 O105 2.327 . S
Gd81 O106 2.377 . S
Gd81 O108 2.448 . S
Gd81 O109 2.506 . S
Gd81 O110 2.435 . S
Gd81 O111 2.717 . S
C82 O100 1.240 . S
C82 O101 1.240 . S
C83 Gd80 2.818 . S
C83 C84 1.510 . S
C83 O102 1.249 . S
C83 O103 1.252 . S
C84 C83 1.510 . S
C84 C85 1.404 . S
C84 C86 1.352 . S
C85 C84 1.404 . S
C85 C89 1.389 . S
C85 H112 0.930 . S
C86 C84 1.352 . S
C86 C88 1.374 . S
C86 H113 0.931 . S
C87 C88 1.359 . S
C87 C89 1.364 . S
C88 C86 1.374 . S
C88 C87 1.359 . S
C88 H114 0.931 . S
C89 C85 1.389 . S
C89 C87 1.364 . S
C89 H115 0.931 . S
C90 O104 1.256 . S
C90 O105 1.257 . S
C91 O106 1.240 . S
C91 O107 1.240 . S
C92 Gd81 2.818 . S
C92 C93 1.510 . S
C92 O108 1.249 . S
C92 O109 1.252 . S
C93 C92 1.510 . S
C93 C94 1.404 . S
C93 C95 1.352 . S
C94 C93 1.404 . S
C94 C98 1.389 . S
C94 H116 0.930 . S
C95 C93 1.352 . S
C95 C97 1.374 . S
C95 H117 0.931 . S
C96 C97 1.359 . S
C96 C98 1.364 . S
C97 C95 1.374 . S
C97 C96 1.359 . S
C97 H118 0.931 . S
C98 C94 1.389 . S
C98 C96 1.364 . S
C98 H119 0.931 . S
C99 O110 1.256 . S
C99 O111 1.257 . S
O100 Gd80 2.377 . S
O100 C82 1.240 . S
O101 Gd81 2.395 . S
O101 C82 1.240 . S
O102 Gd80 2.448 . S
O102 C83 1.249 . S
O103 Gd80 2.506 . S
O103 C83 1.252 . S
O104 Gd80 2.435 . S
O104 C90 1.256 . S
O105 Gd80 2.717 . S
O105 Gd81 2.327 . S
O105 C90 1.257 . S
O106 Gd81 2.377 . S
O106 C91 1.240 . S
O107 Gd80 2.395 . S
O107 C91 1.240 . S
O108 Gd81 2.448 . S
O108 C92 1.249 . S
O109 Gd81 2.506 . S
O109 C92 1.252 . S
O110 Gd81 2.435 . S
O110 C99 1.256 . S
O111 Gd80 2.327 . S
O111 Gd81 2.717 . S
O111 C99 1.257 . S
H112 C85 0.930 . S
H113 C86 0.931 . S
H114 C88 0.931 . S
H115 C89 0.931 . S
H116 C94 0.930 . S
H117 C95 0.931 . S
H118 C97 0.931 . S
H119 C98 0.931 . S
Gd120 C123 2.818 . S
Gd120 O140 2.377 . S
Gd120 O142 2.448 . S
Gd120 O143 2.506 . S
Gd120 O144 2.435 . S
Gd120 O145 2.717 1_556 S
Gd120 O147 2.395 1_556 S
Gd120 O151 2.327 . S
Gd121 C132 2.818 . S
Gd121 O141 2.395 1_554 S
Gd121 O145 2.327 . S
Gd121 O146 2.377 . S
Gd121 O148 2.448 . S
Gd121 O149 2.506 . S
Gd121 O150 2.435 . S
Gd121 O151 2.717 1_554 S
C122 O140 1.240 . S
C122 O141 1.240 . S
C123 Gd120 2.818 . S
C123 C124 1.510 . S
C123 O142 1.249 . S
C123 O143 1.252 . S
C124 C123 1.510 . S
C124 C125 1.404 . S
C124 C126 1.352 . S
C125 C124 1.404 . S
C125 C129 1.389 . S
C125 H152 0.930 . S
C126 C124 1.352 . S
C126 C128 1.374 . S
C126 H153 0.931 . S
C127 C128 1.359 . S
C127 C129 1.364 . S
C128 C126 1.374 . S
C128 C127 1.359 . S
C128 H154 0.931 . S
C129 C125 1.389 . S
C129 C127 1.364 . S
C129 H155 0.931 . S
C130 O144 1.256 1_554 S
C130 O145 1.257 . S
C131 O146 1.240 . S
C131 O147 1.240 . S
C132 Gd121 2.818 . S
C132 C133 1.510 . S
C132 O148 1.249 . S
C132 O149 1.252 . S
C133 C132 1.510 . S
C133 C134 1.404 . S
C133 C135 1.352 . S
C134 C133 1.404 . S
C134 C138 1.389 . S
C134 H156 0.930 . S
C135 C133 1.352 . S
C135 C137 1.374 . S
C135 H157 0.931 . S
C136 C137 1.359 . S
C136 C138 1.364 . S
C137 C135 1.374 . S
C137 C136 1.359 . S
C137 H158 0.931 . S
C138 C134 1.389 . S
C138 C136 1.364 . S
C138 H159 0.931 . S
C139 O150 1.256 1_556 S
C139 O151 1.257 . S
O140 Gd120 2.377 . S
O140 C122 1.240 . S
O141 Gd121 2.395 1_556 S
O141 C122 1.240 . S
O142 Gd120 2.448 . S
O142 C123 1.249 . S
O143 Gd120 2.506 . S
O143 C123 1.252 . S
O144 Gd120 2.435 . S
O144 C130 1.256 1_556 S
O145 Gd120 2.717 1_554 S
O145 Gd121 2.327 . S
O145 C130 1.257 . S
O146 Gd121 2.377 . S
O146 C131 1.240 . S
O147 Gd120 2.395 1_554 S
O147 C131 1.240 . S
O148 Gd121 2.448 . S
O148 C132 1.249 . S
O149 Gd121 2.506 . S
O149 C132 1.252 . S
O150 Gd121 2.435 . S
O150 C139 1.256 1_554 S
O151 Gd120 2.327 . S
O151 Gd121 2.717 1_556 S
O151 C139 1.257 . S
H152 C125 0.930 . S
H153 C126 0.931 . S
H154 C128 0.931 . S
H155 C129 0.931 . S
H156 C134 0.930 . S
H157 C135 0.931 . S
H158 C137 0.931 . S
H159 C138 0.931 . S
Gd160 C163 2.818 . S
Gd160 O180 2.377 . S
Gd160 O182 2.448 . S
Gd160 O183 2.506 . S
Gd160 O184 2.435 . S
Gd160 O185 2.717 . S
Gd160 O187 2.395 . S
Gd160 O191 2.327 . S
Gd161 C172 2.818 . S
Gd161 O181 2.395 . S
Gd161 O185 2.327 . S
Gd161 O186 2.377 . S
Gd161 O188 2.448 . S
Gd161 O189 2.506 . S
Gd161 O190 2.435 . S
Gd161 O191 2.717 . S
C162 O180 1.240 . S
C162 O181 1.240 . S
C163 Gd160 2.818 . S
C163 C164 1.510 . S
C163 O182 1.249 . S
C163 O183 1.252 . S
C164 C163 1.510 . S
C164 C165 1.404 . S
C164 C166 1.352 . S
C165 C164 1.404 . S
C165 C169 1.389 . S
C165 H192 0.930 . S
C166 C164 1.352 . S
C166 C168 1.374 . S
C166 H193 0.931 . S
C167 C168 1.359 . S
C167 C169 1.364 . S
C168 C166 1.374 . S
C168 C167 1.359 . S
C168 H194 0.931 . S
C169 C165 1.389 . S
C169 C167 1.364 . S
C169 H195 0.931 . S
C170 O184 1.256 . S
C170 O185 1.257 . S
C171 O186 1.240 . S
C171 O187 1.240 . S
C172 Gd161 2.818 . S
C172 C173 1.510 . S
C172 O188 1.249 . S
C172 O189 1.252 . S
C173 C172 1.510 . S
C173 C174 1.404 . S
C173 C175 1.352 . S
C174 C173 1.404 . S
C174 C178 1.389 . S
C174 H196 0.930 . S
C175 C173 1.352 . S
C175 C177 1.374 . S
C175 H197 0.931 . S
C176 C177 1.359 . S
C176 C178 1.364 . S
C177 C175 1.374 . S
C177 C176 1.359 . S
C177 H198 0.931 . S
C178 C174 1.389 . S
C178 C176 1.364 . S
C178 H199 0.931 . S
C179 O190 1.256 . S
C179 O191 1.257 . S
O180 Gd160 2.377 . S
O180 C162 1.240 . S
O181 Gd161 2.395 . S
O181 C162 1.240 . S
O182 Gd160 2.448 . S
O182 C163 1.249 . S
O183 Gd160 2.506 . S
O183 C163 1.252 . S
O184 Gd160 2.435 . S
O184 C170 1.256 . S
O185 Gd160 2.717 . S
O185 Gd161 2.327 . S
O185 C170 1.257 . S
O186 Gd161 2.377 . S
O186 C171 1.240 . S
O187 Gd160 2.395 . S
O187 C171 1.240 . S
O188 Gd161 2.448 . S
O188 C172 1.249 . S
O189 Gd161 2.506 . S
O189 C172 1.252 . S
O190 Gd161 2.435 . S
O190 C179 1.256 . S
O191 Gd160 2.327 . S
O191 Gd161 2.717 . S
O191 C179 1.257 . S
H192 C165 0.930 . S
H193 C166 0.931 . S
H194 C168 0.931 . S
H195 C169 0.931 . S
H196 C174 0.930 . S
H197 C175 0.931 . S
H198 C177 0.931 . S
H199 C178 0.931 . S
Gd200 C203 2.818 . S
Gd200 O220 2.377 . S
Gd200 O222 2.448 . S
Gd200 O223 2.506 . S
Gd200 O224 2.435 . S
Gd200 O225 2.717 . S
Gd200 O227 2.395 . S
Gd200 O231 2.327 . S
Gd201 C212 2.818 . S
Gd201 O221 2.395 . S
Gd201 O225 2.327 . S
Gd201 O226 2.377 . S
Gd201 O228 2.448 . S
Gd201 O229 2.506 . S
Gd201 O230 2.435 . S
Gd201 O231 2.717 . S
C202 O220 1.240 . S
C202 O221 1.240 . S
C203 Gd200 2.818 . S
C203 C204 1.510 . S
C203 O222 1.249 . S
C203 O223 1.252 . S
C204 C203 1.510 . S
C204 C205 1.404 . S
C204 C206 1.352 . S
C205 C204 1.404 . S
C205 C209 1.389 . S
C205 H232 0.930 . S
C206 C204 1.352 . S
C206 C208 1.374 . S
C206 H233 0.931 . S
C207 C208 1.359 . S
C207 C209 1.364 . S
C208 C206 1.374 . S
C208 C207 1.359 . S
C208 H234 0.931 . S
C209 C205 1.389 . S
C209 C207 1.364 . S
C209 H235 0.931 . S
C210 O224 1.256 . S
C210 O225 1.257 . S
C211 O226 1.240 . S
C211 O227 1.240 . S
C212 Gd201 2.818 . S
C212 C213 1.510 . S
C212 O228 1.249 . S
C212 O229 1.252 . S
C213 C212 1.510 . S
C213 C214 1.404 . S
C213 C215 1.352 . S
C214 C213 1.404 . S
C214 C218 1.389 . S
C214 H236 0.930 . S
C215 C213 1.352 . S
C215 C217 1.374 . S
C215 H237 0.931 . S
C216 C217 1.359 . S
C216 C218 1.364 . S
C217 C215 1.374 . S
C217 C216 1.359 . S
C217 H238 0.931 . S
C218 C214 1.389 . S
C218 C216 1.364 . S
C218 H239 0.931 . S
C219 O230 1.256 . S
C219 O231 1.257 . S
O220 Gd200 2.377 . S
O220 C202 1.240 . S
O221 Gd201 2.395 . S
O221 C202 1.240 . S
O222 Gd200 2.448 . S
O222 C203 1.249 . S
O223 Gd200 2.506 . S
O223 C203 1.252 . S
O224 Gd200 2.435 . S
O224 C210 1.256 . S
O225 Gd200 2.717 . S
O225 Gd201 2.327 . S
O225 C210 1.257 . S
O226 Gd201 2.377 . S
O226 C211 1.240 . S
O227 Gd200 2.395 . S
O227 C211 1.240 . S
O228 Gd201 2.448 . S
O228 C212 1.249 . S
O229 Gd201 2.506 . S
O229 C212 1.252 . S
O230 Gd201 2.435 . S
O230 C219 1.256 . S
O231 Gd200 2.327 . S
O231 Gd201 2.717 . S
O231 C219 1.257 . S
H232 C205 0.930 . S
H233 C206 0.931 . S
H234 C208 0.931 . S
H235 C209 0.931 . S
H236 C214 0.930 . S
H237 C215 0.931 . S
H238 C217 0.931 . S
H239 C218 0.931 . S
H240 C258 0.951 . S
H241 C260 0.951 . S
H242 C262 0.950 . S
H243 C263 0.950 . S
H244 C265 0.950 . S
H245 C268 0.950 . S
H246 C269 0.950 . S
H247 C271 0.950 . S
H248 C272 0.950 . S
H249 C273 0.951 . S
H250 C275 0.951 . S
H251 C277 0.950 . S
H252 C278 0.950 . S
H253 C280 0.950 . S
H254 C283 0.950 . S
H255 C284 0.950 . S
H256 C286 0.950 . S
H257 C287 0.950 . S
C258 H240 0.951 . S
C258 C259 1.366 . S
C258 C260 1.388 . S
C259 C258 1.366 . S
C259 C263 1.385 . S
C260 H241 0.951 . S
C260 C258 1.388 . S
C260 C261 1.366 . S
C261 C260 1.366 . S
C261 C262 1.414 . S
C261 C264 1.499 . S
C262 H242 0.950 . S
C262 C261 1.414 . S
C262 C263 1.374 . S
C263 H243 0.950 . S
C263 C259 1.385 . S
C263 C262 1.374 . S
C264 C261 1.499 . S
C264 C265 1.373 . S
C264 C266 1.389 . S
C265 H244 0.950 . S
C265 C264 1.373 . S
C265 C281 1.377 . S
C266 C264 1.389 . S
C266 C267 1.524 . S
C266 C280 1.377 . S
C267 C266 1.524 . S
C267 C268 1.397 . S
C267 C272 1.363 . S
C268 H245 0.950 . S
C268 C267 1.397 . S
C268 C269 1.334 . S
C269 H246 0.950 . S
C269 C268 1.334 . S
C269 C270 1.287 . S
C270 C269 1.287 . S
C270 C271 1.524 . S
C270 H289 0.913 . S
C271 H247 0.950 . S
C271 C270 1.524 . S
C271 C272 1.415 . S
C272 H248 0.950 . S
C272 C267 1.363 . S
C272 C271 1.415 . S
C273 H249 0.951 . S
C273 C274 1.366 . S
C273 C275 1.388 . S
C274 C273 1.366 . S
C274 C278 1.385 . S
C275 H250 0.951 . S
C275 C273 1.388 . S
C275 C276 1.366 . S
C276 C275 1.366 . S
C276 C277 1.414 . S
C276 C279 1.499 . S
C277 H251 0.950 . S
C277 C276 1.414 . S
C277 C278 1.374 . S
C278 H252 0.950 . S
C278 C274 1.385 . S
C278 C277 1.374 . S
C279 C276 1.499 . S
C279 C280 1.373 . S
C279 C281 1.389 . S
C280 H253 0.950 . S
C280 C266 1.377 . S
C280 C279 1.373 . S
C281 C265 1.377 . S
C281 C279 1.389 . S
C281 C282 1.524 . S
C282 C281 1.524 . S
C282 C283 1.397 . S
C282 C287 1.363 . S
C283 H254 0.950 . S
C283 C282 1.397 . S
C283 C284 1.334 . S
C284 H255 0.950 . S
C284 C283 1.334 . S
C284 C285 1.287 . S
C285 C284 1.287 . S
C285 C286 1.524 . S
C285 H288 0.999 . S
C286 H256 0.950 . S
C286 C285 1.524 . S
C286 C287 1.415 . S
C287 H257 0.950 . S
C287 C282 1.363 . S
C287 C286 1.415 . S
H288 C285 0.999 . S
H289 C270 0.913 . S
H290 C308 0.951 . S
H291 C310 0.951 . S
H292 C312 0.950 . S
H293 C313 0.950 . S
H294 C315 0.950 . S
H295 C318 0.950 . S
H296 C319 0.950 . S
H297 C321 0.951 1_556 S
H298 C322 0.950 . S
H299 C323 0.951 . S
H300 C325 0.951 . S
H301 C327 0.950 . S
H302 C328 0.950 . S
H303 C330 0.950 . S
H304 C333 0.950 . S
H305 C334 0.950 . S
H306 C336 0.950 . S
H307 C337 0.950 . S
C308 H290 0.951 . S
C308 C309 1.366 . S
C308 C310 1.388 . S
C309 C308 1.366 . S
C309 C313 1.385 . S
C310 H291 0.951 . S
C310 C308 1.388 . S
C310 C311 1.366 . S
C311 C310 1.366 . S
C311 C312 1.414 . S
C311 C314 1.499 . S
C312 H292 0.950 . S
C312 C311 1.414 . S
C312 C313 1.374 . S
C313 H293 0.950 . S
C313 C309 1.385 . S
C313 C312 1.374 . S
C314 C311 1.499 . S
C314 C315 1.373 . S
C314 C316 1.389 1_455 S
C315 H294 0.950 . S
C315 C314 1.373 . S
C315 C331 1.379 1_455 S
C316 C314 1.389 1_655 S
C316 C317 1.524 . S
C316 C330 1.377 . S
C317 C316 1.524 . S
C317 C318 1.397 1_655 S
C317 C322 1.363 . S
C318 H295 0.950 . S
C318 C317 1.397 1_455 S
C318 C319 1.334 . S
C319 H296 0.950 . S
C319 C318 1.334 . S
C319 C320 1.287 1_454 S
C320 C319 1.287 1_656 S
C320 C321 1.524 1_556 S
C320 H339 0.913 . S
C321 H297 0.951 1_554 S
C321 C320 1.524 1_554 S
C321 C322 1.413 . S
C322 H298 0.950 . S
C322 C317 1.363 . S
C322 C321 1.413 . S
C323 H299 0.951 . S
C323 C324 1.366 . S
C323 C325 1.388 . S
C324 C323 1.366 . S
C324 C328 1.385 . S
C325 H300 0.951 . S
C325 C323 1.388 . S
C325 C326 1.366 . S
C326 C325 1.366 . S
C326 C327 1.414 . S
C326 C329 1.499 . S
C327 H301 0.950 . S
C327 C326 1.414 . S
C327 C328 1.374 . S
C328 H302 0.950 . S
C328 C324 1.385 . S
C328 C327 1.374 . S
C329 C326 1.499 . S
C329 C330 1.373 . S
C329 C331 1.386 . S
C330 H303 0.950 . S
C330 C316 1.377 . S
C330 C329 1.373 . S
C331 C315 1.379 1_655 S
C331 C329 1.386 . S
C331 C332 1.526 1_655 S
C332 C331 1.526 1_455 S
C332 C333 1.397 1_455 S
C332 C337 1.363 . S
C333 H304 0.950 . S
C333 C332 1.397 1_655 S
C333 C334 1.334 . S
C334 H305 0.950 . S
C334 C333 1.334 . S
C334 C335 1.287 1_655 S
C335 C334 1.287 1_455 S
C335 C336 1.524 . S
C335 H338 0.999 . S
C336 H306 0.950 . S
C336 C335 1.524 . S
C336 C337 1.415 . S
C337 H307 0.950 . S
C337 C332 1.363 . S
C337 C336 1.415 . S
H338 C335 0.999 . S
H339 C320 0.913 . S
H340 C358 0.951 . S
H341 C360 0.951 . S
H342 C362 0.950 . S
H343 C363 0.950 . S
H344 C365 0.950 . S
H345 C368 0.950 . S
H346 C369 0.950 . S
H347 C371 0.950 . S
H348 C372 0.950 . S
H349 C373 0.951 . S
H350 C375 0.951 . S
H351 C377 0.950 . S
H352 C378 0.950 . S
H353 C380 0.950 . S
H354 C383 0.950 . S
H355 C384 0.950 . S
H356 C386 0.950 . S
H357 C387 0.950 . S
C358 H340 0.951 . S
C358 C359 1.366 . S
C358 C360 1.388 . S
C359 C358 1.366 . S
C359 C363 1.385 . S
C360 H341 0.951 . S
C360 C358 1.388 . S
C360 C361 1.366 . S
C361 C360 1.366 . S
C361 C362 1.414 . S
C361 C364 1.499 . S
C362 H342 0.950 . S
C362 C361 1.414 . S
C362 C363 1.374 . S
C363 H343 0.950 . S
C363 C359 1.385 . S
C363 C362 1.374 . S
C364 C361 1.499 . S
C364 C365 1.373 . S
C364 C366 1.389 . S
C365 H344 0.950 . S
C365 C364 1.373 . S
C365 C381 1.377 1_545 S
C366 C364 1.389 . S
C366 C367 1.524 . S
C366 C380 1.377 1_545 S
C367 C366 1.524 . S
C367 C368 1.397 . S
C367 C372 1.363 1_545 S
C368 H345 0.950 . S
C368 C367 1.397 . S
C368 C369 1.334 . S
C369 H346 0.950 . S
C369 C368 1.334 . S
C369 C370 1.287 . S
C370 C369 1.287 . S
C370 C371 1.524 1_545 S
C370 H389 0.913 . S
C371 H347 0.950 . S
C371 C370 1.524 1_565 S
C371 C372 1.415 . S
C372 H348 0.950 . S
C372 C367 1.363 1_565 S
C372 C371 1.415 . S
C373 H349 0.951 . S
C373 C374 1.366 . S
C373 C375 1.388 . S
C374 C373 1.366 . S
C374 C378 1.385 . S
C375 H350 0.951 . S
C375 C373 1.388 . S
C375 C376 1.366 . S
C376 C375 1.366 . S
C376 C377 1.414 . S
C376 C379 1.499 . S
C377 H351 0.950 . S
C377 C376 1.414 . S
C377 C378 1.374 . S
C378 H352 0.950 . S
C378 C374 1.385 . S
C378 C377 1.374 . S
C379 C376 1.499 . S
C379 C380 1.373 . S
C379 C381 1.389 . S
C380 H353 0.950 . S
C380 C366 1.377 1_565 S
C380 C379 1.373 . S
C381 C365 1.377 1_565 S
C381 C379 1.389 . S
C381 C382 1.524 . S
C382 C381 1.524 . S
C382 C383 1.397 . S
C382 C387 1.363 1_565 S
C383 H354 0.950 . S
C383 C382 1.397 . S
C383 C384 1.334 . S
C384 H355 0.950 . S
C384 C383 1.334 . S
C384 C385 1.287 . S
C385 C384 1.287 . S
C385 C386 1.524 1_565 S
C385 H388 0.999 . S
C386 H356 0.950 . S
C386 C385 1.524 1_545 S
C386 C387 1.415 . S
C387 H357 0.950 . S
C387 C382 1.363 1_545 S
C387 C386 1.415 . S
H388 C385 0.999 . S
H389 C370 0.913 . S
H390 C408 0.951 . S
H391 C410 0.951 . S
H392 C412 0.950 . S
H393 C413 0.950 . S
H394 C415 0.950 . S
H395 C418 0.950 . S
H396 C419 0.950 . S
H397 C421 0.950 . S
H398 C422 0.950 . S
H399 C423 0.951 . S
H400 C425 0.951 . S
H401 C427 0.950 . S
H402 C428 0.950 . S
H403 C430 0.950 . S
H404 C433 0.950 . S
H405 C434 0.950 . S
H406 C436 0.950 . S
H407 C437 0.950 . S
C408 H390 0.951 . S
C408 C409 1.366 . S
C408 C410 1.388 . S
C409 C408 1.366 . S
C409 C413 1.385 . S
C410 H391 0.951 . S
C410 C408 1.388 . S
C410 C411 1.366 . S
C411 C410 1.366 . S
C411 C412 1.414 . S
C411 C414 1.499 . S
C412 H392 0.950 . S
C412 C411 1.414 . S
C412 C413 1.374 . S
C413 H393 0.950 . S
C413 C409 1.385 . S
C413 C412 1.374 . S
C414 C411 1.499 . S
C414 C415 1.373 . S
C414 C416 1.389 . S
C415 H394 0.950 . S
C415 C414 1.373 . S
C415 C431 1.377 . S
C416 C414 1.389 . S
C416 C417 1.524 . S
C416 C430 1.377 . S
C417 C416 1.524 . S
C417 C418 1.397 . S
C417 C422 1.363 . S
C418 H395 0.950 . S
C418 C417 1.397 . S
C418 C419 1.334 . S
C419 H396 0.950 . S
C419 C418 1.334 . S
C419 C420 1.287 . S
C420 C419 1.287 . S
C420 C421 1.524 . S
C420 H439 0.913 . S
C421 H397 0.950 . S
C421 C420 1.524 . S
C421 C422 1.415 . S
C422 H398 0.950 . S
C422 C417 1.363 . S
C422 C421 1.415 . S
C423 H399 0.951 . S
C423 C424 1.366 . S
C423 C425 1.388 . S
C424 C423 1.366 . S
C424 C428 1.385 . S
C425 H400 0.951 . S
C425 C423 1.388 . S
C425 C426 1.366 . S
C426 C425 1.366 . S
C426 C427 1.414 . S
C426 C429 1.499 . S
C427 H401 0.950 . S
C427 C426 1.414 . S
C427 C428 1.374 . S
C428 H402 0.950 . S
C428 C424 1.385 . S
C428 C427 1.374 . S
C429 C426 1.499 . S
C429 C430 1.373 . S
C429 C431 1.389 . S
C430 H403 0.950 . S
C430 C416 1.377 . S
C430 C429 1.373 . S
C431 C415 1.377 . S
C431 C429 1.389 . S
C431 C432 1.524 . S
C432 C431 1.524 . S
C432 C433 1.397 . S
C432 C437 1.363 . S
C433 H404 0.950 . S
C433 C432 1.397 . S
C433 C434 1.334 . S
C434 H405 0.950 . S
C434 C433 1.334 . S
C434 C435 1.287 . S
C435 C434 1.287 . S
C435 C436 1.524 . S
C435 H438 0.999 . S
C436 H406 0.950 . S
C436 C435 1.524 . S
C436 C437 1.415 . S
C437 H407 0.950 . S
C437 C432 1.363 . S
C437 C436 1.415 . S
H438 C435 0.999 . S
H439 C420 0.913 . S
H440 C458 0.951 . S
H441 C460 0.951 . S
H442 C462 0.950 . S
H443 C463 0.950 . S
H444 C465 0.950 . S
H445 C468 0.950 . S
H446 C469 0.950 . S
H447 C471 0.950 . S
H448 C472 0.950 . S
H449 C473 0.951 . S
H450 C475 0.951 . S
H451 C477 0.950 . S
H452 C478 0.950 . S
H453 C480 0.950 . S
H454 C483 0.950 . S
H455 C484 0.950 . S
H456 C486 0.950 . S
H457 C487 0.950 . S
C458 H440 0.951 . S
C458 C459 1.366 . S
C458 C460 1.388 . S
C459 C458 1.366 . S
C459 C463 1.385 . S
C460 H441 0.951 . S
C460 C458 1.388 . S
C460 C461 1.366 . S
C461 C460 1.366 . S
C461 C462 1.414 . S
C461 C464 1.499 . S
C462 H442 0.950 . S
C462 C461 1.414 . S
C462 C463 1.374 . S
C463 H443 0.950 . S
C463 C459 1.385 . S
C463 C462 1.374 . S
C464 C461 1.499 . S
C464 C465 1.373 . S
C464 C466 1.389 . S
C465 H444 0.950 . S
C465 C464 1.373 . S
C465 C481 1.377 1_455 S
C466 C464 1.389 . S
C466 C467 1.524 . S
C466 C480 1.377 1_455 S
C467 C466 1.524 . S
C467 C468 1.397 . S
C467 C472 1.363 . S
C468 H445 0.950 . S
C468 C467 1.397 . S
C468 C469 1.334 . S
C469 H446 0.950 . S
C469 C468 1.334 . S
C469 C470 1.287 . S
C470 C469 1.287 . S
C470 C471 1.524 . S
C470 H489 0.913 . S
C471 H447 0.950 . S
C471 C470 1.524 . S
C471 C472 1.415 . S
C472 H448 0.950 . S
C472 C467 1.363 . S
C472 C471 1.415 . S
C473 H449 0.951 . S
C473 C474 1.366 . S
C473 C475 1.388 . S
C474 C473 1.366 . S
C474 C478 1.385 . S
C475 H450 0.951 . S
C475 C473 1.388 . S
C475 C476 1.366 . S
C476 C475 1.366 . S
C476 C477 1.414 . S
C476 C479 1.499 . S
C477 H451 0.950 . S
C477 C476 1.414 . S
C477 C478 1.374 . S
C478 H452 0.950 . S
C478 C474 1.385 . S
C478 C477 1.374 . S
C479 C476 1.499 . S
C479 C480 1.373 . S
C479 C481 1.389 . S
C480 H453 0.950 . S
C480 C466 1.377 1_655 S
C480 C479 1.373 . S
C481 C465 1.377 1_655 S
C481 C479 1.389 . S
C481 C482 1.524 . S
C482 C481 1.524 . S
C482 C483 1.397 . S
C482 C487 1.363 . S
C483 H454 0.950 . S
C483 C482 1.397 . S
C483 C484 1.334 . S
C484 H455 0.950 . S
C484 C483 1.334 . S
C484 C485 1.287 . S
C485 C484 1.287 . S
C485 C486 1.524 . S
C485 H488 0.999 . S
C486 H456 0.950 . S
C486 C485 1.524 . S
C486 C487 1.415 . S
C487 H457 0.950 . S
C487 C482 1.363 . S
C487 C486 1.415 . S
H488 C485 0.999 . S
H489 C470 0.913 . S
H490 C508 0.951 . S
H491 C510 0.951 . S
H492 C512 0.950 . S
H493 C513 0.950 . S
H494 C515 0.950 . S
H495 C518 0.950 . S
H496 C519 0.950 . S
H497 C521 0.950 . S
H498 C522 0.950 . S
H499 C523 0.951 . S
H500 C525 0.951 . S
H501 C527 0.950 . S
H502 C528 0.950 . S
H503 C530 0.944 . S
H504 C533 0.950 . S
H505 C534 0.950 . S
H506 C536 0.950 . S
H507 C537 0.950 . S
C508 H490 0.951 . S
C508 C509 1.366 . S
C508 C510 1.388 . S
C509 C508 1.366 . S
C509 C513 1.385 . S
C510 H491 0.951 . S
C510 C508 1.388 . S
C510 C511 1.366 . S
C511 C510 1.366 . S
C511 C512 1.414 . S
C511 C514 1.499 . S
C512 H492 0.950 . S
C512 C511 1.414 . S
C512 C513 1.374 . S
C513 H493 0.950 . S
C513 C509 1.385 . S
C513 C512 1.374 . S
C514 C511 1.499 . S
C514 C515 1.373 . S
C514 C516 1.389 . S
C515 H494 0.950 . S
C515 C514 1.373 . S
C515 C531 1.377 1_545 S
C516 C514 1.389 . S
C516 C517 1.524 . S
C516 C530 1.357 1_545 S
C517 C516 1.524 . S
C517 C518 1.397 . S
C517 C522 1.363 . S
C518 H495 0.950 . S
C518 C517 1.397 . S
C518 C519 1.334 . S
C519 H496 0.950 . S
C519 C518 1.334 . S
C519 C520 1.287 . S
C520 C519 1.287 . S
C520 C521 1.524 . S
C520 H539 0.913 . S
C521 H497 0.950 . S
C521 C520 1.524 . S
C521 C522 1.415 . S
C522 H498 0.950 . S
C522 C517 1.363 . S
C522 C521 1.415 . S
C523 H499 0.951 . S
C523 C524 1.366 . S
C523 C525 1.388 . S
C524 C523 1.366 . S
C524 C528 1.385 . S
C525 H500 0.951 . S
C525 C523 1.388 . S
C525 C526 1.366 . S
C526 C525 1.366 . S
C526 C527 1.414 . S
C526 C529 1.499 . S
C527 H501 0.950 . S
C527 C526 1.414 . S
C527 C528 1.374 . S
C528 H502 0.950 . S
C528 C524 1.385 . S
C528 C527 1.374 . S
C529 C526 1.499 . S
C529 C530 1.399 . S
C529 C531 1.389 . S
C530 H503 0.944 . S
C530 C516 1.357 1_565 S
C530 C529 1.399 . S
C531 C515 1.377 1_565 S
C531 C529 1.389 . S
C531 C532 1.524 . S
C532 C531 1.524 . S
C532 C533 1.397 . S
C532 C537 1.363 . S
C533 H504 0.950 . S
C533 C532 1.397 . S
C533 C534 1.334 . S
C534 H505 0.950 . S
C534 C533 1.334 . S
C534 C535 1.287 . S
C535 C534 1.287 . S
C535 C536 1.524 . S
C535 H538 0.999 . S
C536 H506 0.950 . S
C536 C535 1.524 . S
C536 C537 1.415 . S
C537 H507 0.950 . S
C537 C532 1.363 . S
C537 C536 1.415 . S
H538 C535 0.999 . S
H539 C520 0.913 . S
H540 C558 0.951 . S
H541 C560 0.951 . S
H542 C562 0.950 . S
H543 C563 0.950 . S
H544 C565 0.950 . S
H545 C568 0.950 . S
H546 C569 0.950 . S
H547 C571 0.950 . S
H548 C572 0.950 . S
H549 C573 0.951 . S
H550 C575 0.951 . S
H551 C577 0.950 . S
H552 C578 0.950 . S
H553 C580 0.950 . S
H554 C583 0.950 . S
H555 C584 0.950 . S
H556 C586 0.950 . S
H557 C587 0.950 . S
C558 H540 0.951 . S
C558 C559 1.366 . S
C558 C560 1.388 . S
C559 C558 1.366 . S
C559 C563 1.385 . S
C560 H541 0.951 . S
C560 C558 1.388 . S
C560 C561 1.366 . S
C561 C560 1.366 . S
C561 C562 1.414 . S
C561 C564 1.499 . S
C562 H542 0.950 . S
C562 C561 1.414 . S
C562 C563 1.374 . S
C563 H543 0.950 . S
C563 C559 1.385 . S
C563 C562 1.374 . S
C564 C561 1.499 . S
C564 C565 1.373 . S
C564 C566 1.389 . S
C565 H544 0.950 . S
C565 C564 1.373 . S
C565 C581 1.377 . S
C566 C564 1.389 . S
C566 C567 1.524 . S
C566 C580 1.377 . S
C567 C566 1.524 . S
C567 C568 1.397 . S
C567 C572 1.363 . S
C568 H545 0.950 . S
C568 C567 1.397 . S
C568 C569 1.334 . S
C569 H546 0.950 . S
C569 C568 1.334 . S
C569 C570 1.287 . S
C570 C569 1.287 . S
C570 C571 1.524 . S
C570 H589 0.913 . S
C571 H547 0.950 . S
C571 C570 1.524 . S
C571 C572 1.415 . S
C572 H548 0.950 . S
C572 C567 1.363 . S
C572 C571 1.415 . S
C573 H549 0.951 . S
C573 C574 1.366 . S
C573 C575 1.388 . S
C574 C573 1.366 . S
C574 C578 1.385 . S
C575 H550 0.951 . S
C575 C573 1.388 . S
C575 C576 1.366 . S
C576 C575 1.366 . S
C576 C577 1.414 . S
C576 C579 1.499 . S
C577 H551 0.950 . S
C577 C576 1.414 . S
C577 C578 1.374 . S
C578 H552 0.950 . S
C578 C574 1.385 . S
C578 C577 1.374 . S
C579 C576 1.499 . S
C579 C580 1.373 . S
C579 C581 1.389 . S
C580 H553 0.950 . S
C580 C566 1.377 . S
C580 C579 1.373 . S
C581 C565 1.377 . S
C581 C579 1.389 . S
C581 C582 1.524 . S
C582 C581 1.524 . S
C582 C583 1.397 . S
C582 C587 1.363 . S
C583 H554 0.950 . S
C583 C582 1.397 . S
C583 C584 1.334 . S
C584 H555 0.950 . S
C584 C583 1.334 . S
C584 C585 1.287 . S
C585 C584 1.287 . S
C585 C586 1.524 . S
C585 H588 0.999 . S
C586 H556 0.950 . S
C586 C585 1.524 . S
C586 C587 1.415 . S
C587 H557 0.950 . S
C587 C582 1.363 . S
C587 C586 1.415 . S
H588 C585 0.999 . S
H589 C570 0.913 . S
H590 C608 0.951 . S
H591 C610 0.951 . S
H592 C612 0.950 . S
H593 C613 0.950 . S
H594 C615 0.950 . S
H595 C618 0.950 . S
H596 C619 0.950 . S
H597 C621 0.950 . S
H598 C622 0.950 . S
H599 C623 0.951 . S
H600 C625 0.951 . S
H601 C627 0.950 . S
H602 C628 0.950 . S
H603 C630 0.950 . S
H604 C633 0.950 . S
H605 C634 0.950 . S
H606 C636 0.950 . S
H607 C637 0.950 . S
C608 H590 0.951 . S
C608 C609 1.366 . S
C608 C610 1.388 1_554 S
C609 C608 1.366 . S
C609 C613 1.385 1_554 S
C610 H591 0.951 . S
C610 C608 1.388 1_556 S
C610 C611 1.366 . S
C611 C610 1.366 . S
C611 C612 1.414 . S
C611 C614 1.499 . S
C612 H592 0.950 . S
C612 C611 1.414 . S
C612 C613 1.374 . S
C613 H593 0.950 . S
C613 C609 1.385 1_556 S
C613 C612 1.374 . S
C614 C611 1.499 . S
C614 C615 1.373 . S
C614 C616 1.389 . S
C615 H594 0.950 . S
C615 C614 1.373 . S
C615 C631 1.377 . S
C616 C614 1.389 . S
C616 C617 1.524 . S
C616 C630 1.377 . S
C617 C616 1.524 . S
C617 C618 1.397 . S
C617 C622 1.363 . S
C618 H595 0.950 . S
C618 C617 1.397 . S
C618 C619 1.334 . S
C619 H596 0.950 . S
C619 C618 1.334 . S
C619 C620 1.287 . S
C620 C619 1.287 . S
C620 C621 1.524 . S
C620 H639 0.913 . S
C621 H597 0.950 . S
C621 C620 1.524 . S
C621 C622 1.415 . S
C622 H598 0.950 . S
C622 C617 1.363 . S
C622 C621 1.415 . S
C623 H599 0.951 . S
C623 C624 1.366 . S
C623 C625 1.388 . S
C624 C623 1.366 . S
C624 C628 1.385 . S
C625 H600 0.951 . S
C625 C623 1.388 . S
C625 C626 1.366 . S
C626 C625 1.366 . S
C626 C627 1.414 . S
C626 C629 1.499 . S
C627 H601 0.950 . S
C627 C626 1.414 . S
C627 C628 1.374 . S
C628 H602 0.950 . S
C628 C624 1.385 . S
C628 C627 1.374 . S
C629 C626 1.499 . S
C629 C630 1.373 . S
C629 C631 1.389 . S
C630 H603 0.950 . S
C630 C616 1.377 . S
C630 C629 1.373 . S
C631 C615 1.377 . S
C631 C629 1.389 . S
C631 C632 1.524 . S
C632 C631 1.524 . S
C632 C633 1.397 . S
C632 C637 1.363 . S
C633 H604 0.950 . S
C633 C632 1.397 . S
C633 C634 1.334 . S
C634 H605 0.950 . S
C634 C633 1.334 . S
C634 C635 1.287 . S
C635 C634 1.287 . S
C635 C636 1.524 . S
C635 H638 0.999 . S
C636 H606 0.950 . S
C636 C635 1.524 . S
C636 C637 1.415 . S
C637 H607 0.950 . S
C637 C632 1.363 . S
C637 C636 1.415 . S
H638 C635 0.999 . S
H639 C620 0.913 . S
H640 C658 0.951 . S
H641 C660 0.951 . S
H642 C662 0.950 . S
H643 C663 0.950 . S
H644 C665 0.950 . S
H645 C668 0.950 . S
H646 C669 0.950 . S
H647 C671 0.950 . S
H648 C672 0.950 . S
H649 C673 0.951 1_556 S
H650 C675 0.951 . S
H651 C677 0.950 . S
H652 C678 0.950 . S
H653 C680 0.950 . S
H654 C683 0.950 . S
H655 C684 0.950 . S
H656 C686 0.950 . S
H657 C687 0.950 . S
C658 H640 0.951 . S
C658 C659 1.366 . S
C658 C660 1.388 . S
C659 C658 1.366 . S
C659 C663 1.385 . S
C660 H641 0.951 . S
C660 C658 1.388 . S
C660 C661 1.366 . S
C661 C660 1.366 . S
C661 C662 1.414 . S
C661 C664 1.499 . S
C662 H642 0.950 . S
C662 C661 1.414 . S
C662 C663 1.374 . S
C663 H643 0.950 . S
C663 C659 1.385 . S
C663 C662 1.374 . S
C664 C661 1.499 . S
C664 C665 1.373 . S
C664 C666 1.389 . S
C665 H644 0.950 . S
C665 C664 1.373 . S
C665 C681 1.377 . S
C666 C664 1.389 . S
C666 C667 1.524 . S
C666 C680 1.377 . S
C667 C666 1.524 . S
C667 C668 1.397 . S
C667 C672 1.363 . S
C668 H645 0.950 . S
C668 C667 1.397 . S
C668 C669 1.334 . S
C669 H646 0.950 . S
C669 C668 1.334 . S
C669 C670 1.287 . S
C670 C669 1.287 . S
C670 C671 1.524 . S
C670 H689 0.913 . S
C671 H647 0.950 . S
C671 C670 1.524 . S
C671 C672 1.415 . S
C672 H648 0.950 . S
C672 C667 1.363 . S
C672 C671 1.415 . S
C673 H649 0.951 1_554 S
C673 C674 1.366 1_554 S
C673 C675 1.388 . S
C674 C673 1.366 1_556 S
C674 C678 1.385 1_556 S
C675 H650 0.951 . S
C675 C673 1.388 . S
C675 C676 1.366 . S
C676 C675 1.366 . S
C676 C677 1.414 . S
C676 C679 1.499 . S
C677 H651 0.950 . S
C677 C676 1.414 . S
C677 C678 1.374 . S
C678 H652 0.950 . S
C678 C674 1.385 1_554 S
C678 C677 1.374 . S
C679 C676 1.499 . S
C679 C680 1.373 . S
C679 C681 1.389 . S
C680 H653 0.950 . S
C680 C666 1.377 . S
C680 C679 1.373 . S
C681 C665 1.377 . S
C681 C679 1.389 . S
C681 C682 1.524 . S
C682 C681 1.524 . S
C682 C683 1.397 . S
C682 C687 1.363 . S
C683 H654 0.950 . S
C683 C682 1.397 . S
C683 C684 1.334 . S
C684 H655 0.950 . S
C684 C683 1.334 . S
C684 C685 1.287 . S
C685 C684 1.287 . S
C685 C686 1.524 . S
C685 H688 0.999 . S
C686 H656 0.950 . S
C686 C685 1.524 . S
C686 C687 1.415 . S
C687 H657 0.950 . S
C687 C682 1.363 . S
C687 C686 1.415 . S
H688 C685 0.999 . S
H689 C670 0.913 . S
H690 C708 0.951 . S
H691 C710 0.951 . S
H692 C712 0.950 . S
H693 C713 0.950 . S
H694 C715 0.950 . S
H695 C718 0.950 . S
H696 C719 0.950 . S
H697 C721 0.950 . S
H698 C722 0.950 . S
H699 C723 0.951 . S
H700 C725 0.951 . S
H701 C727 0.950 . S
H702 C728 0.950 . S
H703 C730 0.950 . S
H704 C733 0.950 . S
H705 C734 0.950 . S
H706 C736 0.950 . S
H707 C737 0.950 . S
C708 H690 0.951 . S
C708 C709 1.366 . S
C708 C710 1.388 . S
C709 C708 1.366 . S
C709 C713 1.385 . S
C710 H691 0.951 . S
C710 C708 1.388 . S
C710 C711 1.366 . S
C711 C710 1.366 . S
C711 C712 1.414 . S
C711 C714 1.499 . S
C712 H692 0.950 . S
C712 C711 1.414 . S
C712 C713 1.374 . S
C713 H693 0.950 . S
C713 C709 1.385 . S
C713 C712 1.374 . S
C714 C711 1.499 . S
C714 C715 1.373 . S
C714 C716 1.389 . S
C715 H694 0.950 . S
C715 C714 1.373 . S
C715 C731 1.377 . S
C716 C714 1.389 . S
C716 C717 1.524 . S
C716 C730 1.377 . S
C717 C716 1.524 . S
C717 C718 1.397 . S
C717 C722 1.363 . S
C718 H695 0.950 . S
C718 C717 1.397 . S
C718 C719 1.334 . S
C719 H696 0.950 . S
C719 C718 1.334 . S
C719 C720 1.287 . S
C720 C719 1.287 . S
C720 C721 1.524 . S
C720 H739 0.913 . S
C721 H697 0.950 . S
C721 C720 1.524 . S
C721 C722 1.415 . S
C722 H698 0.950 . S
C722 C717 1.363 . S
C722 C721 1.415 . S
C723 H699 0.951 . S
C723 C724 1.366 . S
C723 C725 1.388 . S
C724 C723 1.366 . S
C724 C728 1.385 . S
C725 H700 0.951 . S
C725 C723 1.388 . S
C725 C726 1.366 . S
C726 C725 1.366 . S
C726 C727 1.414 . S
C726 C729 1.499 . S
C727 H701 0.950 . S
C727 C726 1.414 . S
C727 C728 1.374 . S
C728 H702 0.950 . S
C728 C724 1.385 . S
C728 C727 1.374 . S
C729 C726 1.499 . S
C729 C730 1.373 . S
C729 C731 1.389 . S
C730 H703 0.950 . S
C730 C716 1.377 . S
C730 C729 1.373 . S
C731 C715 1.377 . S
C731 C729 1.389 . S
C731 C732 1.524 . S
C732 C731 1.524 . S
C732 C733 1.397 . S
C732 C737 1.363 . S
C733 H704 0.950 . S
C733 C732 1.397 . S
C733 C734 1.334 . S
C734 H705 0.950 . S
C734 C733 1.334 . S
C734 C735 1.287 . S
C735 C734 1.287 . S
C735 C736 1.524 . S
C735 H738 0.999 . S
C736 H706 0.950 . S
C736 C735 1.524 . S
C736 C737 1.415 . S
C737 H707 0.950 . S
C737 C732 1.363 . S
C737 C736 1.415 . S
H738 C735 0.999 . S
H739 C720 0.913 . S
H740 C758 0.951 . S
H741 C760 0.951 . S
H742 C762 0.950 . S
H743 C763 0.950 . S
H744 C765 0.950 . S
H745 C768 0.950 . S
H746 C769 0.950 . S
H747 C771 0.950 . S
H748 C772 0.950 . S
H749 C773 0.951 1_554 S
H750 C775 0.951 . S
H751 C777 0.950 . S
H752 C778 0.950 1_554 S
H753 C780 0.950 . S
H754 C783 0.950 . S
H755 C784 0.950 . S
H756 C786 0.950 . S
H757 C787 0.950 . S
C758 H740 0.951 . S
C758 C759 1.366 . S
C758 C760 1.388 . S
C759 C758 1.366 . S
C759 C763 1.385 . S
C760 H741 0.951 . S
C760 C758 1.388 . S
C760 C761 1.366 . S
C761 C760 1.366 . S
C761 C762 1.414 . S
C761 C764 1.499 . S
C762 H742 0.950 . S
C762 C761 1.414 . S
C762 C763 1.374 . S
C763 H743 0.950 . S
C763 C759 1.385 . S
C763 C762 1.374 . S
C764 C761 1.499 . S
C764 C765 1.373 . S
C764 C766 1.389 . S
C765 H744 0.950 . S
C765 C764 1.373 . S
C765 C781 1.377 . S
C766 C764 1.389 . S
C766 C767 1.524 . S
C766 C780 1.377 . S
C767 C766 1.524 . S
C767 C768 1.397 . S
C767 C772 1.363 . S
C768 H745 0.950 . S
C768 C767 1.397 . S
C768 C769 1.334 . S
C769 H746 0.950 . S
C769 C768 1.334 . S
C769 C770 1.287 . S
C770 C769 1.287 . S
C770 C771 1.524 . S
C770 H789 0.913 . S
C771 H747 0.950 . S
C771 C770 1.524 . S
C771 C772 1.415 . S
C772 H748 0.950 . S
C772 C767 1.363 . S
C772 C771 1.415 . S
C773 H749 0.951 1_556 S
C773 C774 1.366 1_556 S
C773 C775 1.388 . S
C774 C773 1.366 1_554 S
C774 C778 1.385 1_554 S
C775 H750 0.951 . S
C775 C773 1.388 . S
C775 C776 1.366 . S
C776 C775 1.366 . S
C776 C777 1.414 . S
C776 C779 1.499 . S
C777 H751 0.950 . S
C777 C776 1.414 . S
C777 C778 1.374 . S
C778 H752 0.950 1_556 S
C778 C774 1.385 1_556 S
C778 C777 1.374 . S
C779 C776 1.499 . S
C779 C780 1.373 . S
C779 C781 1.389 . S
C780 H753 0.950 . S
C780 C766 1.377 . S
C780 C779 1.373 . S
C781 C765 1.377 . S
C781 C779 1.389 . S
C781 C782 1.524 . S
C782 C781 1.524 . S
C782 C783 1.397 . S
C782 C787 1.363 . S
C783 H754 0.950 . S
C783 C782 1.397 . S
C783 C784 1.334 . S
C784 H755 0.950 . S
C784 C783 1.334 . S
C784 C785 1.287 . S
C785 C784 1.287 . S
C785 C786 1.524 . S
C785 H788 0.999 . S
C786 H756 0.950 . S
C786 C785 1.524 . S
C786 C787 1.415 . S
C787 H757 0.950 . S
C787 C782 1.363 . S
C787 C786 1.415 . S
H788 C785 0.999 . S
H789 C770 0.913 . S
H790 C808 0.951 . S
H791 C810 0.951 . S
H792 C812 0.950 . S
H793 C813 0.950 . S
H794 C815 0.950 . S
H795 C818 0.950 . S
H796 C819 0.950 . S
H797 C821 0.950 . S
H798 C822 0.950 . S
H799 C823 0.953 . S
H800 C825 0.951 . S
H801 C827 0.950 . S
H802 C828 0.950 . S
H803 C830 0.950 . S
H804 C833 0.950 . S
H805 C834 0.950 . S
H806 C836 0.950 . S
H807 C837 0.950 . S
C808 H790 0.951 . S
C808 C809 1.366 . S
C808 C810 1.388 . S
C809 C808 1.366 . S
C809 C813 1.385 . S
C810 H791 0.951 . S
C810 C808 1.388 . S
C810 C811 1.366 . S
C811 C810 1.366 . S
C811 C812 1.414 . S
C811 C814 1.499 . S
C812 H792 0.950 . S
C812 C811 1.414 . S
C812 C813 1.374 . S
C813 H793 0.950 . S
C813 C809 1.385 . S
C813 C812 1.374 . S
C814 C811 1.499 . S
C814 C815 1.373 . S
C814 C816 1.389 . S
C815 H794 0.950 . S
C815 C814 1.373 . S
C815 C831 1.377 . S
C816 C814 1.389 . S
C816 C817 1.524 . S
C816 C830 1.377 . S
C817 C816 1.524 . S
C817 C818 1.397 . S
C817 C822 1.363 . S
C818 H795 0.950 . S
C818 C817 1.397 . S
C818 C819 1.334 . S
C819 H796 0.950 . S
C819 C818 1.334 . S
C819 C820 1.287 . S
C820 C819 1.287 . S
C820 C821 1.524 . S
C820 H839 0.913 . S
C821 H797 0.950 . S
C821 C820 1.524 . S
C821 C822 1.415 . S
C822 H798 0.950 . S
C822 C817 1.363 . S
C822 C821 1.415 . S
C823 H799 0.953 . S
C823 C824 1.366 . S
C823 C825 1.385 1_556 S
C824 C823 1.366 . S
C824 C828 1.385 1_556 S
C825 H800 0.951 . S
C825 C823 1.385 1_554 S
C825 C826 1.366 . S
C826 C825 1.366 . S
C826 C827 1.414 . S
C826 C829 1.499 . S
C827 H801 0.950 . S
C827 C826 1.414 . S
C827 C828 1.374 . S
C828 H802 0.950 . S
C828 C824 1.385 1_554 S
C828 C827 1.374 . S
C829 C826 1.499 . S
C829 C830 1.373 . S
C829 C831 1.389 . S
C830 H803 0.950 . S
C830 C816 1.377 . S
C830 C829 1.373 . S
C831 C815 1.377 . S
C831 C829 1.389 . S
C831 C832 1.524 . S
C832 C831 1.524 . S
C832 C833 1.397 . S
C832 C837 1.363 . S
C833 H804 0.950 . S
C833 C832 1.397 . S
C833 C834 1.334 . S
C834 H805 0.950 . S
C834 C833 1.334 . S
C834 C835 1.287 . S
C835 C834 1.287 . S
C835 C836 1.524 . S
C835 H838 0.999 . S
C836 H806 0.950 . S
C836 C835 1.524 . S
C836 C837 1.415 . S
C837 H807 0.950 . S
C837 C832 1.363 . S
C837 C836 1.415 . S
H838 C835 0.999 . S
H839 C820 0.913 . S
H840 C858 0.951 . S
H841 C860 0.951 . S
H842 C862 0.950 . S
H843 C863 0.950 . S
H844 C865 0.950 . S
H845 C868 0.950 . S
H846 C869 0.950 . S
H847 C871 0.950 . S
H848 C872 0.950 . S
H849 C873 0.951 . S
H850 C875 0.951 . S
H851 C877 0.950 . S
H852 C878 0.950 . S
H853 C880 0.950 . S
H854 C883 0.950 . S
H855 C884 0.950 . S
H856 C886 0.950 . S
H857 C887 0.950 . S
C858 H840 0.951 . S
C858 C859 1.366 . S
C858 C860 1.388 . S
C859 C858 1.366 . S
C859 C863 1.385 . S
C860 H841 0.951 . S
C860 C858 1.388 . S
C860 C861 1.366 . S
C861 C860 1.366 . S
C861 C862 1.414 . S
C861 C864 1.499 . S
C862 H842 0.950 . S
C862 C861 1.414 . S
C862 C863 1.374 . S
C863 H843 0.950 . S
C863 C859 1.385 . S
C863 C862 1.374 . S
C864 C861 1.499 . S
C864 C865 1.373 . S
C864 C866 1.389 . S
C865 H844 0.950 . S
C865 C864 1.373 . S
C865 C881 1.377 . S
C866 C864 1.389 . S
C866 C867 1.524 . S
C866 C880 1.377 . S
C867 C866 1.524 . S
C867 C868 1.397 . S
C867 C872 1.363 . S
C868 H845 0.950 . S
C868 C867 1.397 . S
C868 C869 1.334 . S
C869 H846 0.950 . S
C869 C868 1.334 . S
C869 C870 1.287 . S
C870 C869 1.287 . S
C870 C871 1.524 . S
C870 H889 0.913 . S
C871 H847 0.950 . S
C871 C870 1.524 . S
C871 C872 1.415 . S
C872 H848 0.950 . S
C872 C867 1.363 . S
C872 C871 1.415 . S
C873 H849 0.951 . S
C873 C874 1.366 . S
C873 C875 1.388 . S
C874 C873 1.366 . S
C874 C878 1.385 . S
C875 H850 0.951 . S
C875 C873 1.388 . S
C875 C876 1.366 . S
C876 C875 1.366 . S
C876 C877 1.414 . S
C876 C879 1.499 . S
C877 H851 0.950 . S
C877 C876 1.414 . S
C877 C878 1.374 . S
C878 H852 0.950 . S
C878 C874 1.385 . S
C878 C877 1.374 . S
C879 C876 1.499 . S
C879 C880 1.373 . S
C879 C881 1.389 . S
C880 H853 0.950 . S
C880 C866 1.377 . S
C880 C879 1.373 . S
C881 C865 1.377 . S
C881 C879 1.389 . S
C881 C882 1.524 . S
C882 C881 1.524 . S
C882 C883 1.397 . S
C882 C887 1.363 . S
C883 H854 0.950 . S
C883 C882 1.397 . S
C883 C884 1.334 . S
C884 H855 0.950 . S
C884 C883 1.334 . S
C884 C885 1.287 . S
C885 C884 1.287 . S
C885 C886 1.524 . S
C885 H888 0.999 . S
C886 H856 0.950 . S
C886 C885 1.524 . S
C886 C887 1.415 . S
C887 H857 0.950 . S
C887 C882 1.363 . S
C887 C886 1.415 . S
H888 C885 0.999 . S
H889 C870 0.913 . S
H890 C908 0.951 . S
H891 C910 0.951 . S
H892 C912 0.950 . S
H893 C913 0.950 . S
H894 C915 0.950 . S
H895 C918 0.950 . S
H896 C919 0.950 . S
H897 C921 0.950 . S
H898 C922 0.950 . S
H899 C923 0.951 . S
H900 C925 0.951 . S
H901 C927 0.950 . S
H902 C928 0.950 . S
H903 C930 0.950 . S
H904 C933 0.950 . S
H905 C934 0.950 . S
H906 C936 0.950 . S
H907 C937 0.950 . S
C908 H890 0.951 . S
C908 C909 1.366 . S
C908 C910 1.388 . S
C909 C908 1.366 . S
C909 C913 1.385 . S
C910 H891 0.951 . S
C910 C908 1.388 . S
C910 C911 1.366 . S
C911 C910 1.366 . S
C911 C912 1.414 . S
C911 C914 1.499 . S
C912 H892 0.950 . S
C912 C911 1.414 . S
C912 C913 1.374 . S
C913 H893 0.950 . S
C913 C909 1.385 . S
C913 C912 1.374 . S
C914 C911 1.499 . S
C914 C915 1.373 . S
C914 C916 1.389 . S
C915 H894 0.950 . S
C915 C914 1.373 . S
C915 C931 1.377 . S
C916 C914 1.389 . S
C916 C917 1.524 . S
C916 C930 1.377 . S
C917 C916 1.524 . S
C917 C918 1.397 . S
C917 C922 1.363 . S
C918 H895 0.950 . S
C918 C917 1.397 . S
C918 C919 1.334 . S
C919 H896 0.950 . S
C919 C918 1.334 . S
C919 C920 1.287 . S
C920 C919 1.287 . S
C920 C921 1.524 . S
C920 H939 0.913 . S
C921 H897 0.950 . S
C921 C920 1.524 . S
C921 C922 1.415 . S
C922 H898 0.950 . S
C922 C917 1.363 . S
C922 C921 1.415 . S
C923 H899 0.951 . S
C923 C924 1.366 . S
C923 C925 1.388 . S
C924 C923 1.366 . S
C924 C928 1.385 . S
C925 H900 0.951 . S
C925 C923 1.388 . S
C925 C926 1.366 . S
C926 C925 1.366 . S
C926 C927 1.414 . S
C926 C929 1.499 . S
C927 H901 0.950 . S
C927 C926 1.414 . S
C927 C928 1.374 . S
C928 H902 0.950 . S
C928 C924 1.385 . S
C928 C927 1.374 . S
C929 C926 1.499 . S
C929 C930 1.373 . S
C929 C931 1.389 . S
C930 H903 0.950 . S
C930 C916 1.377 . S
C930 C929 1.373 . S
C931 C915 1.377 . S
C931 C929 1.389 . S
C931 C932 1.524 . S
C932 C931 1.524 . S
C932 C933 1.397 . S
C932 C937 1.363 . S
C933 H904 0.950 . S
C933 C932 1.397 . S
C933 C934 1.334 . S
C934 H905 0.950 . S
C934 C933 1.334 . S
C934 C935 1.287 . S
C935 C934 1.287 . S
C935 C936 1.524 . S
C935 H938 0.999 . S
C936 H906 0.950 . S
C936 C935 1.524 . S
C936 C937 1.415 . S
C937 H907 0.950 . S
C937 C932 1.363 . S
C937 C936 1.415 . S
H938 C935 0.999 . S
H939 C920 0.913 . S
H940 C958 0.951 . S
H941 C960 0.951 . S
H942 C962 0.950 . S
H943 C963 0.950 . S
H944 C965 0.950 . S
H945 C968 0.950 . S
H946 C969 0.950 . S
H947 C971 0.950 1_554 S
H948 C972 0.950 . S
H949 C973 0.951 . S
H950 C975 0.951 . S
H951 C977 0.950 . S
H952 C978 0.950 . S
H953 C980 0.950 . S
H954 C983 0.950 . S
H955 C984 0.950 . S
H956 C986 0.950 . S
H957 C987 0.950 . S
C958 H940 0.951 . S
C958 C959 1.366 . S
C958 C960 1.388 . S
C959 C958 1.366 . S
C959 C963 1.385 . S
C960 H941 0.951 . S
C960 C958 1.388 . S
C960 C961 1.366 . S
C961 C960 1.366 . S
C961 C962 1.414 . S
C961 C964 1.499 . S
C962 H942 0.950 . S
C962 C961 1.414 . S
C962 C963 1.374 . S
C963 H943 0.950 . S
C963 C959 1.385 . S
C963 C962 1.374 . S
C964 C961 1.499 . S
C964 C965 1.373 . S
C964 C966 1.389 . S
C965 H944 0.950 . S
C965 C964 1.373 . S
C965 C981 1.377 . S
C966 C964 1.389 . S
C966 C967 1.524 . S
C966 C980 1.377 . S
C967 C966 1.524 . S
C967 C968 1.397 . S
C967 C972 1.363 . S
C968 H945 0.950 . S
C968 C967 1.397 . S
C968 C969 1.334 1_556 S
C969 H946 0.950 . S
C969 C968 1.334 1_554 S
C969 C970 1.287 . S
C970 C969 1.287 . S
C970 C971 1.524 1_554 S
C970 H989 0.913 . S
C971 H947 0.950 1_556 S
C971 C970 1.524 1_556 S
C971 C972 1.415 . S
C972 H948 0.950 . S
C972 C967 1.363 . S
C972 C971 1.415 . S
C973 H949 0.951 . S
C973 C974 1.366 . S
C973 C975 1.388 . S
C974 C973 1.366 . S
C974 C978 1.385 . S
C975 H950 0.951 . S
C975 C973 1.388 . S
C975 C976 1.366 . S
C976 C975 1.366 . S
C976 C977 1.414 . S
C976 C979 1.499 . S
C977 H951 0.950 . S
C977 C976 1.414 . S
C977 C978 1.374 . S
C978 H952 0.950 . S
C978 C974 1.385 . S
C978 C977 1.374 . S
C979 C976 1.499 . S
C979 C980 1.373 . S
C979 C981 1.389 . S
C980 H953 0.950 . S
C980 C966 1.377 . S
C980 C979 1.373 . S
C981 C965 1.377 . S
C981 C979 1.389 . S
C981 C982 1.524 . S
C982 C981 1.524 . S
C982 C983 1.397 . S
C982 C987 1.363 . S
C983 H954 0.950 . S
C983 C982 1.397 . S
C983 C984 1.334 . S
C984 H955 0.950 . S
C984 C983 1.334 . S
C984 C985 1.287 . S
C985 C984 1.287 . S
C985 C986 1.524 . S
C985 H988 0.999 . S
C986 H956 0.950 . S
C986 C985 1.524 . S
C986 C987 1.415 . S
C987 H957 0.950 . S
C987 C982 1.363 . S
C987 C986 1.415 . S
H988 C985 0.999 . S
H989 C970 0.913 . S
H990 C1008 0.951 . S
H991 C1010 0.951 . S
H992 C1012 0.950 . S
H993 C1013 0.950 . S
H994 C1015 0.950 . S
H995 C1018 0.950 . S
H996 C1019 0.950 . S
H997 C1021 0.950 . S
H998 C1022 0.950 . S
H999 C1023 0.951 . S
H1000 C1025 0.951 . S
H1001 C1027 0.950 . S
H1002 C1028 0.950 . S
H1003 C1030 0.950 . S
H1004 C1033 0.950 . S
H1005 C1034 0.950 . S
H1006 C1036 0.950 . S
H1007 C1037 0.950 . S
C1008 H990 0.951 . S
C1008 C1009 1.366 . S
C1008 C1010 1.388 . S
C1009 C1008 1.366 . S
C1009 C1013 1.385 . S
C1010 H991 0.951 . S
C1010 C1008 1.388 . S
C1010 C1011 1.366 . S
C1011 C1010 1.366 . S
C1011 C1012 1.414 . S
C1011 C1014 1.499 . S
C1012 H992 0.950 . S
C1012 C1011 1.414 . S
C1012 C1013 1.374 . S
C1013 H993 0.950 . S
C1013 C1009 1.385 . S
C1013 C1012 1.374 . S
C1014 C1011 1.499 . S
C1014 C1015 1.373 . S
C1014 C1016 1.389 . S
C1015 H994 0.950 . S
C1015 C1014 1.373 . S
C1015 C1031 1.377 . S
C1016 C1014 1.389 . S
C1016 C1017 1.524 . S
C1016 C1030 1.377 . S
C1017 C1016 1.524 . S
C1017 C1018 1.397 . S
C1017 C1022 1.363 . S
C1018 H995 0.950 . S
C1018 C1017 1.397 . S
C1018 C1019 1.334 . S
C1019 H996 0.950 . S
C1019 C1018 1.334 . S
C1019 C1020 1.287 . S
C1020 C1019 1.287 . S
C1020 C1021 1.524 . S
C1020 H1039 0.913 . S
C1021 H997 0.950 . S
C1021 C1020 1.524 . S
C1021 C1022 1.415 . S
C1022 H998 0.950 . S
C1022 C1017 1.363 . S
C1022 C1021 1.415 . S
C1023 H999 0.951 . S
C1023 C1024 1.366 . S
C1023 C1025 1.388 . S
C1024 C1023 1.366 . S
C1024 C1028 1.385 . S
C1025 H1000 0.951 . S
C1025 C1023 1.388 . S
C1025 C1026 1.366 . S
C1026 C1025 1.366 . S
C1026 C1027 1.414 . S
C1026 C1029 1.499 . S
C1027 H1001 0.950 . S
C1027 C1026 1.414 . S
C1027 C1028 1.374 . S
C1028 H1002 0.950 . S
C1028 C1024 1.385 . S
C1028 C1027 1.374 . S
C1029 C1026 1.499 . S
C1029 C1030 1.373 . S
C1029 C1031 1.389 . S
C1030 H1003 0.950 . S
C1030 C1016 1.377 . S
C1030 C1029 1.373 . S
C1031 C1015 1.377 . S
C1031 C1029 1.389 . S
C1031 C1032 1.524 . S
C1032 C1031 1.524 . S
C1032 C1033 1.397 . S
C1032 C1037 1.363 . S
C1033 H1004 0.950 . S
C1033 C1032 1.397 . S
C1033 C1034 1.334 . S
C1034 H1005 0.950 . S
C1034 C1033 1.334 . S
C1034 C1035 1.287 . S
C1035 C1034 1.287 . S
C1035 C1036 1.524 . S
C1035 H1038 0.999 . S
C1036 H1006 0.950 . S
C1036 C1035 1.524 . S
C1036 C1037 1.415 . S
C1037 H1007 0.950 . S
C1037 C1032 1.363 . S
C1037 C1036 1.415 . S
H1038 C1035 0.999 . S
H1039 C1020 0.913 . S
H1040 C1058 0.951 . S
H1041 C1060 0.951 . S
H1042 C1062 0.950 . S
H1043 C1063 0.950 . S
H1044 C1065 0.950 . S
H1045 C1068 0.950 . S
H1046 C1069 0.950 . S
H1047 C1071 0.950 . S
H1048 C1072 0.950 . S
H1049 C1073 0.951 . S
H1050 C1075 0.951 . S
H1051 C1077 0.950 . S
H1052 C1078 0.950 . S
H1053 C1080 0.950 . S
H1054 C1083 0.950 . S
H1055 C1084 0.950 . S
H1056 C1086 0.950 . S
H1057 C1087 0.950 . S
C1058 H1040 0.951 . S
C1058 C1059 1.366 . S
C1058 C1060 1.388 . S
C1059 C1058 1.366 . S
C1059 C1063 1.385 . S
C1060 H1041 0.951 . S
C1060 C1058 1.388 . S
C1060 C1061 1.366 . S
C1061 C1060 1.366 . S
C1061 C1062 1.414 . S
C1061 C1064 1.499 . S
C1062 H1042 0.950 . S
C1062 C1061 1.414 . S
C1062 C1063 1.374 . S
C1063 H1043 0.950 . S
C1063 C1059 1.385 . S
C1063 C1062 1.374 . S
C1064 C1061 1.499 . S
C1064 C1065 1.373 . S
C1064 C1066 1.389 . S
C1065 H1044 0.950 . S
C1065 C1064 1.373 . S
C1065 C1081 1.377 . S
C1066 C1064 1.389 . S
C1066 C1067 1.524 . S
C1066 C1080 1.377 . S
C1067 C1066 1.524 . S
C1067 C1068 1.397 . S
C1067 C1072 1.363 . S
C1068 H1045 0.950 . S
C1068 C1067 1.397 . S
C1068 C1069 1.334 . S
C1069 H1046 0.950 . S
C1069 C1068 1.334 . S
C1069 C1070 1.287 . S
C1070 C1069 1.287 . S
C1070 C1071 1.524 . S
C1070 H1089 0.913 . S
C1071 H1047 0.950 . S
C1071 C1070 1.524 . S
C1071 C1072 1.415 . S
C1072 H1048 0.950 . S
C1072 C1067 1.363 . S
C1072 C1071 1.415 . S
C1073 H1049 0.951 . S
C1073 C1074 1.366 . S
C1073 C1075 1.388 . S
C1074 C1073 1.366 . S
C1074 C1078 1.385 . S
C1075 H1050 0.951 . S
C1075 C1073 1.388 . S
C1075 C1076 1.366 . S
C1076 C1075 1.366 . S
C1076 C1077 1.414 . S
C1076 C1079 1.499 . S
C1077 H1051 0.950 . S
C1077 C1076 1.414 . S
C1077 C1078 1.374 . S
C1078 H1052 0.950 . S
C1078 C1074 1.385 . S
C1078 C1077 1.374 . S
C1079 C1076 1.499 . S
C1079 C1080 1.373 . S
C1079 C1081 1.389 . S
C1080 H1053 0.950 . S
C1080 C1066 1.377 . S
C1080 C1079 1.373 . S
C1081 C1065 1.377 . S
C1081 C1079 1.389 . S
C1081 C1082 1.524 . S
C1082 C1081 1.524 . S
C1082 C1083 1.397 . S
C1082 C1087 1.363 . S
C1083 H1054 0.950 . S
C1083 C1082 1.397 . S
C1083 C1084 1.334 . S
C1084 H1055 0.950 . S
C1084 C1083 1.334 . S
C1084 C1085 1.287 . S
C1085 C1084 1.287 . S
C1085 C1086 1.524 . S
C1085 H1088 0.999 . S
C1086 H1056 0.950 . S
C1086 C1085 1.524 . S
C1086 C1087 1.415 . S
C1087 H1057 0.950 . S
C1087 C1082 1.363 . S
C1087 C1086 1.415 . S
H1088 C1085 0.999 . S
H1089 C1070 0.913 . S
H1090 C1108 0.951 . S
H1091 C1110 0.951 . S
H1092 C1112 0.950 . S
H1093 C1113 0.950 . S
H1094 C1115 0.950 . S
H1095 C1118 0.950 . S
H1096 C1119 0.950 1_554 S
H1097 C1121 0.950 . S
H1098 C1122 0.950 . S
H1099 C1123 0.951 . S
H1100 C1125 0.951 . S
H1101 C1127 0.950 . S
H1102 C1128 0.950 . S
H1103 C1130 0.950 . S
H1104 C1133 0.950 . S
H1105 C1134 0.950 . S
H1106 C1136 0.950 . S
H1107 C1137 0.950 . S
C1108 H1090 0.951 . S
C1108 C1109 1.366 . S
C1108 C1110 1.388 . S
C1109 C1108 1.366 . S
C1109 C1113 1.385 . S
C1110 H1091 0.951 . S
C1110 C1108 1.388 . S
C1110 C1111 1.366 . S
C1111 C1110 1.366 . S
C1111 C1112 1.414 . S
C1111 C1114 1.499 . S
C1112 H1092 0.950 . S
C1112 C1111 1.414 . S
C1112 C1113 1.374 . S
C1113 H1093 0.950 . S
C1113 C1109 1.385 . S
C1113 C1112 1.374 . S
C1114 C1111 1.499 . S
C1114 C1115 1.373 . S
C1114 C1116 1.389 . S
C1115 H1094 0.950 . S
C1115 C1114 1.373 . S
C1115 C1131 1.377 . S
C1116 C1114 1.389 . S
C1116 C1117 1.524 . S
C1116 C1130 1.377 . S
C1117 C1116 1.524 . S
C1117 C1118 1.397 . S
C1117 C1122 1.363 . S
C1118 H1095 0.950 . S
C1118 C1117 1.397 . S
C1118 C1119 1.334 . S
C1119 H1096 0.950 1_556 S
C1119 C1118 1.334 . S
C1119 C1120 1.287 1_556 S
C1120 C1119 1.287 1_554 S
C1120 C1121 1.524 . S
C1120 H1139 0.913 . S
C1121 H1097 0.950 . S
C1121 C1120 1.524 . S
C1121 C1122 1.415 1_554 S
C1122 H1098 0.950 . S
C1122 C1117 1.363 . S
C1122 C1121 1.415 1_556 S
C1123 H1099 0.951 . S
C1123 C1124 1.366 . S
C1123 C1125 1.388 . S
C1124 C1123 1.366 . S
C1124 C1128 1.385 . S
C1125 H1100 0.951 . S
C1125 C1123 1.388 . S
C1125 C1126 1.366 . S
C1126 C1125 1.366 . S
C1126 C1127 1.414 . S
C1126 C1129 1.499 . S
C1127 H1101 0.950 . S
C1127 C1126 1.414 . S
C1127 C1128 1.374 . S
C1128 H1102 0.950 . S
C1128 C1124 1.385 . S
C1128 C1127 1.374 . S
C1129 C1126 1.499 . S
C1129 C1130 1.373 . S
C1129 C1131 1.389 . S
C1130 H1103 0.950 . S
C1130 C1116 1.377 . S
C1130 C1129 1.373 . S
C1131 C1115 1.377 . S
C1131 C1129 1.389 . S
C1131 C1132 1.524 . S
C1132 C1131 1.524 . S
C1132 C1133 1.397 . S
C1132 C1137 1.363 . S
C1133 H1104 0.950 . S
C1133 C1132 1.397 . S
C1133 C1134 1.334 . S
C1134 H1105 0.950 . S
C1134 C1133 1.334 . S
C1134 C1135 1.287 . S
C1135 C1134 1.287 . S
C1135 C1136 1.524 . S
C1135 H1138 0.999 . S
C1136 H1106 0.950 . S
C1136 C1135 1.524 . S
C1136 C1137 1.415 . S
C1137 H1107 0.950 . S
C1137 C1132 1.363 . S
C1137 C1136 1.415 . S
H1138 C1135 0.999 . S
H1139 C1120 0.913 . S
C259 C210 1.291 . S
C274 C2 1.324 . S
C309 C10 1.291 . S
C324 C42 1.324 . S
C359 C50 1.291 . S
C374 C82 1.324 . S
C409 C90 1.290 . S
C424 C122 1.325 . S
C459 C162 1.324 . S
C474 C130 1.290 . S
C509 C202 1.324 . S
C524 C170 1.291 . S
C559 C7 1.331 . S
C574 C16 1.331 . S
C609 C47 1.331 . S
C624 C56 1.331 . S
C659 C87 1.330 . S
C674 C96 1.330 . S
C709 C127 1.331 . S
C724 C136 1.331 . S
C759 C176 1.330 . S
C774 C167 1.330 . S
C809 C207 1.331 . S
C824 C216 1.331 . S
C859 C11 1.595 . S
C874 C179 1.606 . S
C909 C51 1.595 . S
C924 C219 1.606 . S
C959 C19 1.606 . S
C974 C91 1.595 . S
C1009 C59 1.606 . S
C1024 C131 1.595 . S
C1059 C171 1.595 . S
C1074 C99 1.606 . S
C1109 C139 1.606 . S
C1124 C211 1.595 . S
