# Generated by pormake.
# Topology whz, (6)-cn, num edge types: 1
# Building blocks:
#     Node 0, Type 0, BuildingBlock: IZENUY_clean_sbu_0, # of connection points: 6
#     Node 1, Type 0, BuildingBlock: IZENUY_clean_sbu_0, # of connection points: 6
#     Node 2, Type 0, BuildingBlock: IZENUY_clean_sbu_0, # of connection points: 6
#     Node 3, Type 0, BuildingBlock: IZENUY_clean_sbu_0, # of connection points: 6
#     Node 4, Type 0, BuildingBlock: IZENUY_clean_sbu_0, # of connection points: 6
#     Node 5, Type 0, BuildingBlock: IZENUY_clean_sbu_0, # of connection points: 6
#     Node 6, Type 0, BuildingBlock: IZENUY_clean_sbu_0, # of connection points: 6
#     Node 7, Type 0, BuildingBlock: IZENUY_clean_sbu_0, # of connection points: 6
#     Node 8, Type 0, BuildingBlock: IZENUY_clean_sbu_0, # of connection points: 6
#     Node 9, Type 0, BuildingBlock: IZENUY_clean_sbu_0, # of connection points: 6
#     Node 10, Type 0, BuildingBlock: IZENUY_clean_sbu_0, # of connection points: 6
#     Node 11, Type 0, BuildingBlock: IZENUY_clean_sbu_0, # of connection points: 6
#     Node 12, Type 0, BuildingBlock: IZENUY_clean_sbu_0, # of connection points: 6
#     Node 13, Type 0, BuildingBlock: IZENUY_clean_sbu_0, # of connection points: 6
#     Node 14, Type 0, BuildingBlock: IZENUY_clean_sbu_0, # of connection points: 6
#     Node 15, Type 0, BuildingBlock: IZENUY_clean_sbu_0, # of connection points: 6
#     Edge 16, Type (0, 0), BuildingBlock: EZIPEK_clean_linker_0, # of connection points: 2
#     Edge 17, Type (0, 0), BuildingBlock: EZIPEK_clean_linker_0, # of connection points: 2
#     Edge 18, Type (0, 0), BuildingBlock: EZIPEK_clean_linker_0, # of connection points: 2
#     Edge 19, Type (0, 0), BuildingBlock: EZIPEK_clean_linker_0, # of connection points: 2
#     Edge 20, Type (0, 0), BuildingBlock: EZIPEK_clean_linker_0, # of connection points: 2
#     Edge 21, Type (0, 0), BuildingBlock: EZIPEK_clean_linker_0, # of connection points: 2
#     Edge 22, Type (0, 0), BuildingBlock: EZIPEK_clean_linker_0, # of connection points: 2
#     Edge 23, Type (0, 0), BuildingBlock: EZIPEK_clean_linker_0, # of connection points: 2
#     Edge 24, Type (0, 0), BuildingBlock: EZIPEK_clean_linker_0, # of connection points: 2
#     Edge 25, Type (0, 0), BuildingBlock: EZIPEK_clean_linker_0, # of connection points: 2
#     Edge 26, Type (0, 0), BuildingBlock: EZIPEK_clean_linker_0, # of connection points: 2
#     Edge 27, Type (0, 0), BuildingBlock: EZIPEK_clean_linker_0, # of connection points: 2
#     Edge 28, Type (0, 0), BuildingBlock: EZIPEK_clean_linker_0, # of connection points: 2
#     Edge 29, Type (0, 0), BuildingBlock: EZIPEK_clean_linker_0, # of connection points: 2
#     Edge 30, Type (0, 0), BuildingBlock: EZIPEK_clean_linker_0, # of connection points: 2
#     Edge 31, Type (0, 0), BuildingBlock: EZIPEK_clean_linker_0, # of connection points: 2
#     Edge 32, Type (0, 0), BuildingBlock: EZIPEK_clean_linker_0, # of connection points: 2
#     Edge 33, Type (0, 0), BuildingBlock: EZIPEK_clean_linker_0, # of connection points: 2
#     Edge 34, Type (0, 0), BuildingBlock: EZIPEK_clean_linker_0, # of connection points: 2
#     Edge 35, Type (0, 0), BuildingBlock: EZIPEK_clean_linker_0, # of connection points: 2
#     Edge 36, Type (0, 0), BuildingBlock: EZIPEK_clean_linker_0, # of connection points: 2
#     Edge 37, Type (0, 0), BuildingBlock: EZIPEK_clean_linker_0, # of connection points: 2
#     Edge 38, Type (0, 0), BuildingBlock: EZIPEK_clean_linker_0, # of connection points: 2
#     Edge 39, Type (0, 0), BuildingBlock: EZIPEK_clean_linker_0, # of connection points: 2
#     Edge 40, Type (0, 0), BuildingBlock: EZIPEK_clean_linker_0, # of connection points: 2
#     Edge 41, Type (0, 0), BuildingBlock: EZIPEK_clean_linker_0, # of connection points: 2
#     Edge 42, Type (0, 0), BuildingBlock: EZIPEK_clean_linker_0, # of connection points: 2
#     Edge 43, Type (0, 0), BuildingBlock: EZIPEK_clean_linker_0, # of connection points: 2
#     Edge 44, Type (0, 0), BuildingBlock: EZIPEK_clean_linker_0, # of connection points: 2
#     Edge 45, Type (0, 0), BuildingBlock: EZIPEK_clean_linker_0, # of connection points: 2
#     Edge 46, Type (0, 0), BuildingBlock: EZIPEK_clean_linker_0, # of connection points: 2
#     Edge 47, Type (0, 0), BuildingBlock: EZIPEK_clean_linker_0, # of connection points: 2
#     Edge 48, Type (0, 0), BuildingBlock: EZIPEK_clean_linker_0, # of connection points: 2
#     Edge 49, Type (0, 0), BuildingBlock: EZIPEK_clean_linker_0, # of connection points: 2
#     Edge 50, Type (0, 0), BuildingBlock: EZIPEK_clean_linker_0, # of connection points: 2
#     Edge 51, Type (0, 0), BuildingBlock: EZIPEK_clean_linker_0, # of connection points: 2
#     Edge 52, Type (0, 0), BuildingBlock: EZIPEK_clean_linker_0, # of connection points: 2
#     Edge 53, Type (0, 0), BuildingBlock: EZIPEK_clean_linker_0, # of connection points: 2
#     Edge 54, Type (0, 0), BuildingBlock: EZIPEK_clean_linker_0, # of connection points: 2
#     Edge 55, Type (0, 0), BuildingBlock: EZIPEK_clean_linker_0, # of connection points: 2
#     Edge 56, Type (0, 0), BuildingBlock: EZIPEK_clean_linker_0, # of connection points: 2
#     Edge 57, Type (0, 0), BuildingBlock: EZIPEK_clean_linker_0, # of connection points: 2
#     Edge 58, Type (0, 0), BuildingBlock: EZIPEK_clean_linker_0, # of connection points: 2
#     Edge 59, Type (0, 0), BuildingBlock: EZIPEK_clean_linker_0, # of connection points: 2
#     Edge 60, Type (0, 0), BuildingBlock: EZIPEK_clean_linker_0, # of connection points: 2
#     Edge 61, Type (0, 0), BuildingBlock: EZIPEK_clean_linker_0, # of connection points: 2
#     Edge 62, Type (0, 0), BuildingBlock: EZIPEK_clean_linker_0, # of connection points: 2
#     Edge 63, Type (0, 0), BuildingBlock: EZIPEK_clean_linker_0, # of connection points: 2
# Relax obj value: 0.408
# Max RMSD: 0.253
# Mean RMSD: 0.253
data_MOF--net-whz--node1-IZENUY_clean_sbu_0--edge1-EZIPEK_clean_linker_0
_symmetry_space_group_name_H-M    P1
_symmetry_Int_Tables_number       1
_symmetry_cell_setting            triclinic
loop_
_symmetry_equiv_pos_as_xyz
'x, y, z'
_cell_length_a     25.515582
_cell_length_b     25.423939
_cell_length_c     37.626998
_cell_angle_alpha  90.154735
_cell_angle_beta   89.774304
_cell_angle_gamma 90.152925
loop_
_atom_site_label
_atom_site_type_symbol
_atom_site_fract_x
_atom_site_fract_y
_atom_site_fract_z
_atom_type_partial_charge
Fe0 Fe 0.35907 0.20378 0.16435 0.0
Fe1 Fe 0.2496 0.18993 0.13654 0.0
O2 O 0.31636 0.17232 0.13539 0.0
Fe3 Fe 0.34129 0.12289 0.10709 0.0
O4 O 0.36411 0.08418 0.14495 0.0
O5 O 0.40538 0.14855 0.16932 0.0
O6 O 0.32541 0.17556 0.20153 0.0
C7 C 0.28144 0.19294 0.20968 0.0
C8 C 0.42025 0.2051 0.10742 0.0
O9 O 0.24975 0.20678 0.18517 0.0
C10 C 0.26886 0.16646 0.06212 0.0
O11 O 0.32263 0.26592 0.166 0.0
O12 O 0.26375 0.25803 0.12453 0.0
O13 O 0.40748 0.15704 0.1008 0.0
O14 O 0.3913 0.23184 0.12707 0.0
C15 C 0.24411 0.0826 0.13364 0.0
O16 O 0.23832 0.17472 0.08855 0.0
O17 O 0.31711 0.15676 0.06733 0.0
C18 C 0.29051 0.28695 0.14501 0.0
O19 O 0.23171 0.12463 0.14923 0.0
O20 O 0.28078 0.08192 0.11044 0.0
C21 C 0.39403 0.10019 0.16914 0.0
Fe22 Fe 0.55508 0.59391 0.41277 0.0
Fe23 Fe 0.57436 0.48627 0.38239 0.0
O24 O 0.59151 0.55305 0.3845 0.0
Fe25 Fe 0.6437 0.58039 0.35907 0.0
O26 O 0.67652 0.60259 0.39927 0.0
O27 O 0.60926 0.64078 0.42244 0.0
O28 O 0.57633 0.5596 0.45115 0.0
C29 C 0.56415 0.51244 0.45635 0.0
C30 C 0.56049 0.65794 0.35737 0.0
O31 O 0.55441 0.48251 0.42996 0.0
C32 C 0.60542 0.50885 0.30982 0.0
O33 O 0.49374 0.55607 0.41059 0.0
O34 O 0.50824 0.50079 0.36783 0.0
O35 O 0.60906 0.64623 0.35257 0.0
O36 O 0.53218 0.62697 0.37435 0.0
C37 C 0.68177 0.48129 0.38337 0.0
O38 O 0.59175 0.47907 0.33525 0.0
O39 O 0.61767 0.55652 0.31636 0.0
C40 C 0.47617 0.52669 0.38635 0.0
O41 O 0.63849 0.46721 0.39647 0.0
O42 O 0.68544 0.52116 0.36307 0.0
C43 C 0.65796 0.63111 0.42341 0.0
Fe44 Fe 0.2714 0.832 0.63709 0.0
Fe45 Fe 0.18245 0.90181 0.60849 0.0
O46 O 0.20417 0.84726 0.63344 0.0
Fe47 Fe 0.15704 0.80965 0.65649 0.0
O48 O 0.18417 0.82913 0.69821 0.0
O49 O 0.26584 0.8108 0.68456 0.0
O50 O 0.28741 0.8969 0.65375 0.0
C51 C 0.27828 0.9396 0.63819 0.0
C52 C 0.23409 0.73145 0.63761 0.0
O53 O 0.24202 0.94245 0.61528 0.0
C54 C 0.10313 0.82227 0.59653 0.0
O55 O 0.28634 0.85134 0.59002 0.0
O56 O 0.20941 0.87395 0.56755 0.0
O57 O 0.19453 0.74696 0.65533 0.0
O58 O 0.26209 0.76474 0.62141 0.0
C59 C 0.12374 0.91217 0.66982 0.0
O60 O 0.11782 0.87049 0.59694 0.0
O61 O 0.12737 0.78956 0.61522 0.0
C62 C 0.25733 0.86183 0.56318 0.0
O63 O 0.15675 0.93327 0.64913 0.0
O64 O 0.11106 0.86499 0.66333 0.0
C65 C 0.22942 0.81752 0.70761 0.0
Fe66 Fe 0.9725 0.43425 0.91263 0.0
Fe67 Fe 0.94941 0.54407 0.88696 0.0
O68 O 0.93424 0.47651 0.88698 0.0
Fe69 Fe 0.88358 0.44941 0.86068 0.0
O70 O 0.84998 0.42337 0.8996 0.0
O71 O 0.9195 0.38509 0.92026 0.0
O72 O 0.95014 0.46334 0.95278 0.0
C73 C 0.95686 0.51089 0.96019 0.0
C74 C 0.96852 0.37412 0.85553 0.0
O75 O 0.96752 0.54343 0.93521 0.0
C76 C 0.92209 0.52349 0.81402 0.0
O77 O 0.03241 0.47466 0.91226 0.0
O78 O 0.01617 0.53278 0.87158 0.0
O79 O 0.91933 0.38423 0.85237 0.0
O80 O 0.99604 0.40633 0.87202 0.0
C81 C 0.84287 0.54803 0.88832 0.0
O82 O 0.93102 0.5549 0.83977 0.0
O83 O 0.91285 0.47519 0.81983 0.0
C84 C 0.04868 0.50713 0.88943 0.0
O85 O 0.88577 0.56122 0.90164 0.0
O86 O 0.8406 0.5091 0.86651 0.0
C87 C 0.87082 0.39475 0.92284 0.0
Fe88 Fe 0.67075 0.82349 0.87897 0.0
Fe89 Fe 0.78221 0.8377 0.90631 0.0
O90 O 0.71539 0.85616 0.9073 0.0
Fe91 Fe 0.69359 0.9078 0.93512 0.0
O92 O 0.66799 0.94484 0.89726 0.0
O93 O 0.62761 0.88028 0.87119 0.0
O94 O 0.70682 0.8446 0.84041 0.0
C95 C 0.75172 0.82708 0.83366 0.0
C96 C 0.61441 0.82878 0.94068 0.0
O97 O 0.78157 0.81618 0.85943 0.0
C98 C 0.76642 0.86366 0.97987 0.0
O99 O 0.70479 0.76005 0.88063 0.0
O100 O 0.76574 0.77086 0.9208 0.0
O101 O 0.62976 0.87608 0.94481 0.0
O102 O 0.63289 0.80056 0.91622 0.0
C103 C 0.78826 0.94606 0.90518 0.0
O104 O 0.79608 0.85569 0.95322 0.0
O105 O 0.71886 0.87588 0.97515 0.0
C106 C 0.73542 0.74061 0.90331 0.0
O107 O 0.80126 0.90275 0.89101 0.0
O108 O 0.75365 0.94724 0.92944 0.0
C109 C 0.63829 0.92884 0.87279 0.0
Fe110 Fe 0.38279 0.44634 0.68801 0.0
Fe111 Fe 0.47356 0.41815 0.63765 0.0
O112 O 0.43924 0.46601 0.66344 0.0
Fe113 Fe 0.46109 0.53243 0.66391 0.0
O114 O 0.39534 0.56072 0.66524 0.0
O115 O 0.34112 0.49314 0.66464 0.0
O116 O 0.3607 0.3967 0.6542 0.0
C117 C 0.37119 0.39435 0.62097 0.0
C118 C 0.42943 0.52472 0.73421 0.0
O119 O 0.41634 0.40674 0.61001 0.0
C120 C 0.55646 0.47251 0.6648 0.0
O121 O 0.42223 0.39833 0.71352 0.0
O122 O 0.45716 0.36311 0.66609 0.0
O123 O 0.46646 0.53429 0.71258 0.0
O124 O 0.39238 0.4939 0.7252 0.0
C125 C 0.47905 0.50602 0.59419 0.0
O126 O 0.53388 0.42812 0.66266 0.0
O127 O 0.53089 0.51503 0.66179 0.0
C128 C 0.45097 0.36353 0.69916 0.0
O129 O 0.49658 0.4628 0.60429 0.0
O130 O 0.45703 0.53737 0.61549 0.0
C131 C 0.35067 0.54126 0.65912 0.0
Fe132 Fe 0.83449 0.12824 0.43386 0.0
Fe133 Fe 0.84552 0.21248 0.37711 0.0
O134 O 0.80663 0.17922 0.40837 0.0
Fe135 Fe 0.74036 0.19832 0.4128 0.0
O136 O 0.71849 0.13416 0.39981 0.0
O137 O 0.77428 0.08667 0.43144 0.0
O138 O 0.85563 0.09218 0.39384 0.0
C139 C 0.88246 0.10942 0.3682 0.0
C140 C 0.76639 0.16916 0.48459 0.0
O141 O 0.89114 0.15828 0.36713 0.0
C142 C 0.78654 0.29496 0.40587 0.0
O143 O 0.89986 0.16351 0.43895 0.0
O144 O 0.88399 0.23808 0.41219 0.0
O145 O 0.73402 0.18076 0.46033 0.0
O146 O 0.81349 0.15802 0.47642 0.0
C147 C 0.7598 0.20375 0.33804 0.0
O148 O 0.80953 0.27438 0.37966 0.0
O149 O 0.75927 0.26549 0.42593 0.0
C150 C 0.91212 0.21166 0.43242 0.0
O151 O 0.80604 0.18798 0.34163 0.0
O152 O 0.73372 0.21721 0.36546 0.0
C153 C 0.73299 0.09077 0.41246 0.0
Fe154 Fe 0.07185 0.49689 0.16574 0.0
Fe155 Fe 0.14987 0.58144 0.19119 0.0
O156 O 0.09438 0.56249 0.16621 0.0
Fe157 Fe 0.06184 0.61032 0.14059 0.0
O158 O 0.07744 0.57655 0.10066 0.0
O159 O 0.0503 0.49956 0.1184 0.0
O160 O 0.13455 0.47264 0.14966 0.0
C161 C 0.17792 0.47977 0.16489 0.0
C162 C 0.97695 0.54545 0.16382 0.0
O163 O 0.1842 0.51755 0.18662 0.0
C164 C 0.07652 0.66514 0.20118 0.0
O165 O 0.08998 0.4841 0.21305 0.0
O166 O 0.11927 0.56034 0.23309 0.0
O167 O 0.99701 0.57884 0.14302 0.0
O168 O 1.00682 0.51571 0.18138 0.0
C169 C 0.1673 0.63324 0.12722 0.0
O170 O 0.12401 0.64907 0.20046 0.0
O171 O 0.0439 0.64561 0.18009 0.0
C172 C 0.10395 0.51356 0.23901 0.0
O173 O 0.18452 0.60129 0.15012 0.0
O174 O 0.12112 0.65089 0.13137 0.0
C175 C 0.06142 0.53139 0.09322 0.0
Fe176 Fe 0.83667 0.72029 0.6655 0.0
Fe177 Fe 0.73158 0.69102 0.63433 0.0
O178 O 0.7996 0.68061 0.63671 0.0
Fe179 Fe 0.831 0.63135 0.61135 0.0
O180 O 0.85518 0.59965 0.65138 0.0
O181 O 0.88718 0.67017 0.6753 0.0
O182 O 0.80239 0.69444 0.70317 0.0
C183 C 0.75465 0.70336 0.70837 0.0
C184 C 0.90291 0.72017 0.61019 0.0
O185 O 0.72533 0.71215 0.68172 0.0
C186 C 0.75836 0.66493 0.56219 0.0
O187 O 0.79346 0.77849 0.66289 0.0
O188 O 0.74191 0.75807 0.61891 0.0
O189 O 0.89361 0.67096 0.60531 0.0
O190 O 0.87129 0.747 0.62816 0.0
C191 C 0.73565 0.58365 0.63619 0.0
O192 O 0.72527 0.67074 0.58722 0.0
O193 O 0.80663 0.65837 0.56922 0.0
C194 C 0.76081 0.7923 0.63945 0.0
O195 O 0.71815 0.6256 0.64949 0.0
O196 O 0.77482 0.58429 0.61489 0.0
C197 C 0.882 0.62057 0.67555 0.0
Fe198 Fe 0.05765 1.00379 0.87291 0.0
Fe199 Fe 0.13898 0.09086 0.85917 0.0
O200 O 0.08115 0.06802 0.88091 0.0
Fe201 Fe 0.04621 0.10991 0.91038 0.0
O202 O 0.02293 0.0578 0.93882 0.0
O203 O 0.06251 0.98632 0.91979 0.0
O204 O 0.12259 0.97541 0.86702 0.0
C205 C 0.16841 0.98991 0.87532 0.0
C206 C 0.96357 0.06317 0.87774 0.0
O207 O 0.17887 0.03833 0.87809 0.0
C208 C 0.0721 0.17626 0.85465 0.0
O209 O 0.05078 0.01685 0.82556 0.0
O210 O 0.12877 0.05111 0.81755 0.0
O211 O 0.9867 0.10634 0.88363 0.0
O212 O 0.98852 0.02036 0.87791 0.0
C213 C 0.14786 0.12986 0.93103 0.0
O214 O 0.10227 0.14508 0.83805 0.0
O215 O 0.06357 0.16963 0.88729 0.0
C216 C 0.08949 0.0255 0.80546 0.0
O217 O 0.16093 0.13226 0.8981 0.0
O218 O 0.10232 0.11536 0.93976 0.0
C219 C 0.04019 0.01231 0.94411 0.0
Fe220 Fe 0.67535 0.29744 0.1588 0.0
Fe221 Fe 0.786 0.31158 0.1298 0.0
O222 O 0.72006 0.33249 0.13215 0.0
Fe223 Fe 0.69781 0.38786 0.10858 0.0
O224 O 0.67656 0.42084 0.14999 0.0
O225 O 0.63258 0.35378 0.16896 0.0
O226 O 0.71158 0.31416 0.19793 0.0
C227 C 0.75802 0.29915 0.20266 0.0
C228 C 0.61631 0.31115 0.10015 0.0
O229 O 0.78708 0.2882 0.1762 0.0
C230 C 0.76543 0.34654 0.05868 0.0
O231 O 0.70861 0.23424 0.15491 0.0
O232 O 0.76684 0.24632 0.11331 0.0
O233 O 0.63164 0.35904 0.09982 0.0
O234 O 0.63819 0.27868 0.12029 0.0
C235 C 0.799 0.41862 0.13384 0.0
O236 O 0.79658 0.33303 0.08327 0.0
O237 O 0.71868 0.35909 0.06616 0.0
C238 C 0.73729 0.21544 0.13074 0.0
O239 O 0.80947 0.374 0.14647 0.0
O240 O 0.75981 0.4253 0.11355 0.0
C241 C 0.64402 0.40197 0.17196 0.0
Fe242 Fe 0.46495 0.9142 0.4123 0.0
Fe243 Fe 0.45532 0.02439 0.38138 0.0
O244 O 0.43292 0.95863 0.38361 0.0
Fe245 Fe 0.37833 0.93662 0.359 0.0
O246 O 0.34415 0.91641 0.39972 0.0
O247 O 0.40787 0.87175 0.42145 0.0
O248 O 0.4455 0.95202 0.45032 0.0
C249 C 0.45834 0.99932 0.45497 0.0
C250 C 0.4552 0.85464 0.35286 0.0
O251 O 0.47466 0.02626 0.42868 0.0
C252 C 0.42283 1.00326 0.30926 0.0
O253 O 0.52862 0.94698 0.41022 0.0
O254 O 0.52105 1.00363 0.36733 0.0
O255 O 0.40769 0.87037 0.35062 0.0
O256 O 0.48586 0.87523 0.37501 0.0
C257 C 0.34807 0.03775 0.38453 0.0
O258 O 0.43777 0.03415 0.33393 0.0
O259 O 0.40703 0.95725 0.31661 0.0
C260 C 0.54988 0.97495 0.38663 0.0
O261 O 0.39286 0.04952 0.39605 0.0
O262 O 0.34119 0.99864 0.36391 0.0
C263 C 0.36038 0.88534 0.42318 0.0
Fe264 Fe 0.16165 0.29267 0.39115 0.0
Fe265 Fe 0.2714 0.29739 0.42259 0.0
O266 O 0.20788 0.32516 0.41829 0.0
Fe267 Fe 0.19047 0.38446 0.43975 0.0
O268 O 0.17162 0.41601 0.39778 0.0
O269 O 0.12476 0.35164 0.37693 0.0
O270 O 0.20275 0.30349 0.35287 0.0
C271 C 0.24504 0.27894 0.34985 0.0
C272 C 0.10275 0.31493 0.44961 0.0
O273 O 0.27137 0.26776 0.37743 0.0
C274 C 0.25491 0.34326 0.49169 0.0
O275 O 0.18839 0.22642 0.39907 0.0
O276 O 0.24465 0.23716 0.44171 0.0
O277 O 0.12238 0.36136 0.45 0.0
O278 O 0.11986 0.28067 0.4285 0.0
C279 C 0.29464 0.40194 0.41283 0.0
O280 O 0.28374 0.32274 0.46791 0.0
O281 O 0.20963 0.35971 0.48369 0.0
C282 C 0.21648 0.20662 0.42323 0.0
O283 O 0.30221 0.35469 0.40388 0.0
O284 O 0.25531 0.41514 0.43191 0.0
C285 C 0.1414 0.39837 0.37408 0.0
Fe286 Fe 0.957 0.02669 0.15741 0.0
Fe287 Fe 0.88768 0.93386 0.18273 0.0
O288 O 0.93855 0.95991 0.15599 0.0
Fe289 Fe 0.97227 0.91777 0.12701 0.0
O290 O 0.94906 0.95203 0.08924 0.0
O291 O 0.97522 0.0287 0.10912 0.0
O292 O 0.89273 0.04665 0.14407 0.0
C293 C 0.84947 0.033 0.15753 0.0
C294 C 0.05398 0.98108 0.15216 0.0
O295 O 0.84647 0.99406 0.17884 0.0
C296 C 0.97016 0.85582 0.18417 0.0
O297 O 0.93958 0.0364 0.20527 0.0
O298 O 0.91786 0.95724 0.22408 0.0
O299 O 0.03386 0.95458 0.12742 0.0
O300 O 0.02422 1.01015 0.1708 0.0
C301 C 0.86903 0.88261 0.11914 0.0
O302 O 0.92183 0.86792 0.18953 0.0
O303 O 0.99719 0.88443 0.16455 0.0
C304 C 0.92804 1.00521 0.23068 0.0
O305 O 0.8521 0.91157 0.14361 0.0
O306 O 0.91734 0.87145 0.1195 0.0
C307 C 0.96309 0.99837 0.0832 0.0
Fe308 Fe 0.34377 0.63972 0.93624 0.0
Fe309 Fe 0.35187 0.73782 0.89162 0.0
O310 O 0.31344 0.69446 0.91604 0.0
Fe311 Fe 0.24624 0.70671 0.92007 0.0
O312 O 0.23205 0.64441 0.89927 0.0
O313 O 0.28479 0.59714 0.93238 0.0
O314 O 0.36333 0.61377 0.89227 0.0
C315 C 0.39016 0.63917 0.86968 0.0
C316 C 0.27535 0.67061 0.98975 0.0
O317 O 0.40013 0.68701 0.87677 0.0
C318 C 0.27763 0.80741 0.92364 0.0
O319 O 0.40929 0.67445 0.94271 0.0
O320 O 0.38408 0.75402 0.93216 0.0
O321 O 0.24122 0.67925 0.96574 0.0
O322 O 0.32302 0.66174 0.98109 0.0
C323 C 0.27068 0.7359 0.84794 0.0
O324 O 0.31144 0.7965 0.90021 0.0
O325 O 0.25672 0.77056 0.94087 0.0
C326 C 0.4183 0.72409 0.94375 0.0
O327 O 0.31754 0.72264 0.85136 0.0
O328 O 0.24062 0.7369 0.87505 0.0
C329 C 0.24658 0.6004 0.91082 0.0
Fe330 Fe 0.54559 0.12057 0.63286 0.0
Fe331 Fe 0.54721 0.01326 0.66797 0.0
O332 O 0.57484 0.07659 0.66324 0.0
Fe333 Fe 0.63181 0.09531 0.68708 0.0
O334 O 0.66774 0.1105 0.64593 0.0
O335 O 0.60627 0.15601 0.62067 0.0
O336 O 0.55978 0.07726 0.59652 0.0
C337 C 0.54114 0.03169 0.59375 0.0
C338 C 0.56134 0.18372 0.69058 0.0
O339 O 0.52385 1.00896 0.62144 0.0
C340 C 0.58597 0.03501 0.73881 0.0
O341 O 0.47859 0.09355 0.63844 0.0
O342 O 0.4851 0.04006 0.68335 0.0
O343 O 0.60751 0.16443 0.69432 0.0
O344 O 0.53028 0.16549 0.66777 0.0
C345 C 0.65112 0.98818 0.66551 0.0
O346 O 0.56698 1.00483 0.71515 0.0
O347 O 0.60255 0.08008 0.73023 0.0
C348 C 0.45668 0.06741 0.66311 0.0
O349 O 0.60631 0.98318 0.65215 0.0
O350 O 0.6628 0.0286 0.68414 0.0
C351 C 0.65254 0.13821 0.6202 0.0
C352 C 0.22483 0.20225 0.26348 0.0
C353 C 0.2739 0.21052 0.24693 0.0
C354 C 0.30749 0.2517 0.3017 0.0
C355 C 0.25592 0.25169 0.31575 0.0
N356 N 0.16472 0.22383 0.31052 0.0
N357 N 0.36231 0.24841 0.24986 0.0
C358 C 0.2144 0.22612 0.29681 0.0
C359 C 0.31577 0.23551 0.26608 0.0
N360 N 0.18908 0.16886 0.24832 0.0
N361 N 0.34896 0.26849 0.32178 0.0
H362 H 0.37142 0.24239 0.22331 0.0
H363 H 0.39058 0.27248 0.26146 0.0
H364 H 0.34556 0.28845 0.3458 0.0
H365 H 0.38777 0.25962 0.31551 0.0
H366 H 0.15548 0.15546 0.26127 0.0
H367 H 0.19524 0.15011 0.22403 0.0
H368 H 0.13186 0.21532 0.29518 0.0
H369 H 0.15542 0.23081 0.33699 0.0
C370 C 0.54218 0.54235 0.55208 0.0
C371 C 0.49231 0.51964 0.55751 0.0
C372 C 0.49559 0.47753 0.49876 0.0
C373 C 0.54574 0.50086 0.49309 0.0
N374 N 0.62221 0.5435 0.51722 0.0
N375 N 0.41927 0.46834 0.53744 0.0
C376 C 0.57068 0.52952 0.52089 0.0
C377 C 0.46798 0.48881 0.5308 0.0
N378 N 0.56218 0.57558 0.57728 0.0
N379 N 0.47507 0.44379 0.4741 0.0
H380 H 0.3976 0.47913 0.55985 0.0
H381 H 0.39977 0.44143 0.52139 0.0
H382 H 0.49786 0.42513 0.45491 0.0
H383 H 0.43663 0.43026 0.47407 0.0
H384 H 0.59711 0.59638 0.57457 0.0
H385 H 0.54117 0.5858 0.60011 0.0
H386 H 0.64401 0.56314 0.53642 0.0
H387 H 0.64465 0.53151 0.49548 0.0
C388 C 0.27976 0.82088 0.76436 0.0
C389 C 0.23624 0.80166 0.74532 0.0
C390 C 0.20761 0.75084 0.79778 0.0
C391 C 0.25588 0.76287 0.81442 0.0
N392 N 0.3372 0.81355 0.81445 0.0
N393 N 0.15903 0.7446 0.74333 0.0
C394 C 0.2916 0.79923 0.79804 0.0
C395 C 0.19935 0.76689 0.76214 0.0
N396 N 0.30829 0.86209 0.75106 0.0
N397 N 0.16983 0.72268 0.81537 0.0
H398 H 0.15128 0.7514 0.71671 0.0
H399 H 0.13595 0.71385 0.75284 0.0
H400 H 0.17584 0.7029 0.83914 0.0
H401 H 0.13083 0.72147 0.8073 0.0
H402 H 0.33628 0.88281 0.76554 0.0
H403 H 0.30064 0.87919 0.72653 0.0
H404 H 0.36879 0.83052 0.80109 0.0
H405 H 0.34461 0.80796 0.84123 0.0
C406 C 0.9715 0.47962 1.02253 0.0
C407 C 0.97049 0.52212 0.99808 0.0
C408 C 0.03578 0.56832 0.03323 0.0
C409 C 0.03953 0.52403 0.05663 0.0
N410 N 0.02409 0.43112 0.06411 0.0
N411 N 0.98115 0.61511 0.9913 0.0
C412 C 0.01092 0.4778 0.04873 0.0
C413 C 0.99623 0.56923 1.00692 0.0
N414 N 0.93301 0.44232 1.02174 0.0
N415 N 0.07251 0.6075 0.034 0.0
H416 H 0.94915 0.61669 0.97414 0.0
H417 H 0.99546 0.65185 0.9989 0.0
H418 H 0.1082 0.60334 0.04698 0.0
H419 H 0.07181 0.64019 1.01742 0.0
H420 H 0.92947 0.41264 0.04067 0.0
H421 H 0.90049 0.44625 1.00534 0.0
H422 H 1.00674 0.39543 0.0571 0.0
H423 H 0.05749 0.42699 0.07976 0.0
C424 C 0.72034 0.80829 0.77197 0.0
C425 C 0.75827 0.7993 0.79882 0.0
C426 C 0.77805 0.7138 0.77193 0.0
C427 C 0.74181 0.72416 0.74444 0.0
N428 N 0.66162 0.76779 0.72974 0.0
N429 N 0.83691 0.7521 0.81481 0.0
C430 C 0.70785 0.76753 0.74769 0.0
C431 C 0.79092 0.75418 0.79643 0.0
N432 N 0.69837 0.8569 0.76848 0.0
N433 N 0.80008 0.66504 0.77424 0.0
H434 H 0.85237 0.78476 0.82793 0.0
H435 H 0.86359 0.72136 0.81227 0.0
H436 H 0.78952 0.63469 0.75688 0.0
H437 H 0.82367 0.6534 0.79533 0.0
H438 H 0.67321 0.86653 0.74779 0.0
H439 H 0.71059 0.88906 0.7837 0.0
H440 H 0.6327 0.79577 0.73454 0.0
H441 H 0.64921 0.73563 0.71465 0.0
C442 C 0.78823 0.2276 0.24307 0.0
C443 C 0.77006 0.27976 0.23884 0.0
C444 C 0.73302 0.27884 0.29913 0.0
C445 C 0.74794 0.2252 0.30229 0.0
N446 N 0.77884 0.14553 0.27492 0.0
N447 N 0.73645 0.35929 0.26434 0.0
C448 C 0.77153 0.19865 0.27313 0.0
C449 C 0.74656 0.3068 0.26777 0.0
N450 N 0.82373 0.20679 0.21967 0.0
N451 N 0.70537 0.30268 0.32579 0.0
H452 H 0.74908 0.38063 0.24233 0.0
H453 H 0.71789 0.38248 0.28322 0.0
H454 H 0.68248 0.28163 0.34378 0.0
H455 H 0.70153 0.34304 0.32885 0.0
H456 H 0.84043 0.16974 0.22237 0.0
H457 H 0.84305 0.22931 0.20063 0.0
H458 H 0.79489 0.12291 0.2546 0.0
H459 H 0.76472 0.12344 0.29618 0.0
C460 C 0.94996 0.98538 1.01794 0.0
C461 C 0.98122 1.00711 0.04603 0.0
C462 C 0.05797 1.0033 1.00687 0.0
C463 C 0.02567 0.98933 0.97832 0.0
N464 N 0.94268 0.96265 0.95526 0.0
N465 N 0.06426 0.0468 0.06362 0.0
C466 C 0.97218 0.9783 0.98366 0.0
C467 C 0.03508 0.01916 0.03953 0.0
N468 N 0.89922 0.97079 0.02428 0.0
N469 N 0.11088 1.00157 1.00213 0.0
H470 H 0.049 0.06396 0.08645 0.0
H471 H 0.10257 0.05906 0.05871 0.0
H472 H 0.12695 0.98692 0.97856 0.0
H473 H 0.13781 1.00858 1.02226 0.0
H474 H 0.87633 0.94919 1.00667 0.0
H475 H 0.88016 0.97865 0.04806 0.0
H476 H 0.90209 0.95903 0.95554 0.0
H477 H 0.9597 0.95389 0.93067 0.0
C478 C 0.45274 0.98286 0.52057 0.0
C479 C 0.47071 0.01518 0.49216 0.0
C480 C 0.54354 0.04517 0.52817 0.0
C481 C 0.52512 0.01483 0.55729 0.0
N482 N 0.47478 0.93902 0.57556 0.0
N483 N 0.51789 0.09438 0.47671 0.0
C484 C 0.48296 0.97916 0.55211 0.0
C485 C 0.51156 0.05161 0.49816 0.0
N486 N 0.40569 0.95745 0.51768 0.0
N487 N 0.59291 0.06582 0.52856 0.0
H488 H 0.4901 0.10493 0.45779 0.0
H489 H 0.54568 0.12363 0.48163 0.0
H490 H 0.61922 0.05663 0.54866 0.0
H491 H 0.60952 0.08537 0.50693 0.0
H492 H 0.3887 0.93536 0.53794 0.0
H493 H 0.38064 0.96376 0.49629 0.0
H494 H 0.44658 0.90982 0.5721 0.0
H495 H 0.50144 0.93001 0.59553 0.0
C496 C 0.18776 0.1933 0.97662 0.0
C497 C 0.18609 0.14237 0.96083 0.0
C498 C 0.24809 0.11113 1.00681 0.0
C499 C 0.24517 0.16031 0.02515 0.0
N500 N 0.21184 0.24878 0.02712 0.0
N501 N 0.20793 0.05071 0.96516 0.0
C502 C 0.21492 0.20158 1.00977 0.0
C503 C 0.21494 0.10104 0.97692 0.0
N504 N 0.16329 0.23385 0.95974 0.0
N505 N 0.28212 0.07315 1.01789 0.0
H506 H 0.18374 0.04127 0.9439 0.0
H507 H 0.22197 0.01774 0.97841 0.0
H508 H 0.30454 0.0758 0.04079 0.0
H509 H 0.29132 0.0401 1.0027 0.0
H510 H 0.16632 0.27307 0.9674 0.0
H511 H 0.14231 0.22847 0.93628 0.0
H512 H 0.18612 0.2787 1.02023 0.0
H513 H 0.23423 0.25758 0.0495 0.0
C514 C 0.6094 0.42831 0.26812 0.0
C515 C 0.61073 0.48433 0.27253 0.0
C516 C 0.62799 0.48946 0.20731 0.0
C517 C 0.62281 0.4336 0.20375 0.0
N518 N 0.57545 0.36042 0.23016 0.0
N519 N 0.60249 0.56706 0.24099 0.0
C520 C 0.60269 0.40636 0.23378 0.0
C521 C 0.6149 0.51484 0.24061 0.0
N522 N 0.61756 0.39472 0.29579 0.0
N523 N 0.64252 0.51912 0.17877 0.0
H524 H 0.58637 0.58601 0.26296 0.0
H525 H 0.60101 0.58992 0.21807 0.0
H526 H 0.64222 0.50489 0.15281 0.0
H527 H 0.65464 0.55815 0.18118 0.0
H528 H 0.61737 0.35397 0.2924 0.0
H529 H 0.63453 0.40621 0.31967 0.0
H530 H 0.55859 0.34121 0.25187 0.0
H531 H 0.5617 0.34701 0.20574 0.0
C532 C 0.31495 0.82391 0.51321 0.0
C533 C 0.281 0.86424 0.52601 0.0
C534 C 0.28358 0.90335 0.46595 0.0
C535 C 0.32651 0.87079 0.45559 0.0
N536 N 0.37868 0.79426 0.46973 0.0
N537 N 0.24221 0.94949 0.51452 0.0
C538 C 0.34109 0.82958 0.47948 0.0
C539 C 0.26796 0.90592 0.50237 0.0
N540 N 0.31974 0.77835 0.5321 0.0
N541 N 0.25502 0.92973 0.44112 0.0
H542 H 0.23135 0.95503 0.54095 0.0
H543 H 0.23709 0.98294 0.49894 0.0
H544 H 0.25813 0.9223 0.414 0.0
H545 H 0.22181 0.95162 0.4476 0.0
H546 H 0.33915 0.74514 0.52264 0.0
H547 H 0.29961 0.77146 0.55574 0.0
H548 H 0.39766 0.76985 0.48774 0.0
H549 H 0.3906 0.78903 0.44353 0.0
C550 C 0.94369 0.60631 0.72882 0.0
C551 C 0.90177 0.58818 0.70685 0.0
C552 C 0.87411 0.52863 0.75485 0.0
C553 C 0.91654 0.54499 0.77671 0.0
N554 N 0.99976 0.58998 0.77984 0.0
N555 N 0.84751 0.51148 0.69472 0.0
C556 C 0.95363 0.58138 0.7624 0.0
C557 C 0.8733 0.54298 0.71838 0.0
N558 N 0.97541 0.64604 0.71714 0.0
N559 N 0.83279 0.5013 0.76886 0.0
H560 H 0.85248 0.51423 0.66735 0.0
H561 H 0.82862 0.47683 0.70232 0.0
H562 H 0.82923 0.4924 0.79572 0.0
H563 H 0.79899 0.49311 0.75433 0.0
H564 H 1.00102 0.6666 0.73363 0.0
H565 H 0.97601 0.65847 0.69075 0.0
H566 H 0.03055 0.61211 0.76943 0.0
H567 H 1.0096 0.57056 0.80322 0.0
C568 C 0.79265 0.90281 0.07716 0.0
C569 C 0.83465 0.86894 0.08713 0.0
C570 C 0.82272 0.82315 0.0292 0.0
C571 C 0.78949 0.8644 1.01702 0.0
N572 N 0.75423 0.951 0.02875 0.0
N573 N 0.8844 0.79093 0.07316 0.0
C574 C 0.77759 0.90623 0.04084 0.0
C575 C 0.84828 0.82748 0.06314 0.0
N576 N 0.76466 0.92997 0.10216 0.0
N577 N 0.82785 0.77849 1.00924 0.0
H578 H 0.89611 0.78628 0.09947 0.0
H579 H 0.90256 0.76519 0.05544 0.0
H580 H 0.80904 0.77326 0.985 0.0
H581 H 0.84676 0.7447 1.01794 0.0
H582 H 0.73232 0.95302 0.09574 0.0
H583 H 0.76708 0.92238 0.12924 0.0
H584 H 0.74962 0.98439 0.04461 0.0
H585 H 0.7455 0.95734 1.0021 0.0
C586 C 0.41143 0.63927 0.80181 0.0
C587 C 0.4098 0.61238 0.83533 0.0
C588 C 0.42413 0.52825 0.80244 0.0
C589 C 0.42558 0.55501 0.76924 0.0
N590 N 0.42928 0.63818 0.73842 0.0
N591 N 0.43333 0.53345 0.86666 0.0
C592 C 0.42202 0.61102 0.76939 0.0
C593 C 0.42128 0.55739 0.83527 0.0
N594 N 0.40085 0.69183 0.79999 0.0
N595 N 0.42582 0.47455 0.80284 0.0
H596 H 0.43662 0.55414 0.89052 0.0
H597 H 0.44668 0.49489 0.86845 0.0
H598 H 0.43226 0.452 0.78006 0.0
H599 H 0.41786 0.45228 0.82542 0.0
H600 H 0.38848 0.7103 0.77681 0.0
H601 H 0.40448 0.71776 0.82111 0.0
H602 H 0.43574 0.67862 0.73741 0.0
H603 H 0.43223 0.62051 0.71358 0.0
C604 C 0.71613 0.20574 0.53853 0.0
C605 C 0.74572 0.16411 0.52263 0.0
C606 C 0.71594 0.10584 0.57158 0.0
C607 C 0.68821 0.14807 0.58823 0.0
N608 N 0.6744 0.24154 0.59159 0.0
N609 N 0.78283 0.0772 0.53 0.0
C610 C 0.69195 0.19896 0.57279 0.0
C611 C 0.74907 0.11542 0.54132 0.0
N612 N 0.71074 0.25216 0.52082 0.0
N613 N 0.70723 0.05526 0.58244 0.0
H614 H 0.80499 0.07959 0.50684 0.0
H615 H 0.792 0.04439 0.54528 0.0
H616 H 0.68031 0.04519 0.6021 0.0
H617 H 0.72133 0.02243 0.56887 0.0
H618 H 0.68422 0.28127 0.5283 0.0
H619 H 0.73098 0.26045 0.49745 0.0
H620 H 0.68049 0.28028 0.58362 0.0
H621 H 0.65875 0.23848 0.61715 0.0
C622 C 0.17204 0.4551 0.32178 0.0
C623 C 0.13001 0.43084 0.34072 0.0
C624 C 0.06992 0.46137 0.29302 0.0
C625 C 0.11156 0.48906 0.27573 0.0
N626 N 0.20202 0.51869 0.27863 0.0
N627 N 0.03688 0.41875 0.34654 0.0
C628 C 0.16212 0.48857 0.29199 0.0
C629 C 0.07838 0.43603 0.32677 0.0
N630 N 0.22249 0.44248 0.33008 0.0
N631 N 0.02185 0.45929 0.27723 0.0
H632 H 0.04169 0.40123 0.37123 0.0
H633 H 0.99788 0.42589 0.34018 0.0
H634 H 0.01279 0.48073 0.25452 0.0
H635 H 0.99175 0.43444 0.28557 0.0
H636 H 0.25466 0.45319 0.31455 0.0
H637 H 0.23193 0.41588 0.34991 0.0
H638 H 0.23646 0.526 0.29262 0.0
H639 H 0.20036 0.53919 0.25485 0.0
C640 C 0.75235 0.61826 0.50198 0.0
C641 C 0.73834 0.6612 0.52431 0.0
C642 C 0.67719 0.69134 0.47732 0.0
C643 C 0.69194 0.6483 0.45495 0.0
N644 N 0.76439 0.5892 0.4416 0.0
N645 N 0.6973 0.74619 0.5287 0.0
C646 C 0.73578 0.61731 0.4658 0.0
C647 C 0.70335 0.69984 0.51068 0.0
N648 N 0.77987 0.57679 0.51529 0.0
N649 N 0.63949 0.72551 0.46623 0.0
H650 H 0.71773 0.75485 0.5519 0.0
H651 H 0.67645 0.77816 0.51898 0.0
H652 H 0.62717 0.72755 0.43989 0.0
H653 H 0.62065 0.75199 0.4831 0.0
H654 H 0.78528 0.54192 0.5011 0.0
H655 H 0.79258 0.57473 0.54149 0.0
H656 H 0.79808 0.56849 0.44843 0.0
H657 H 0.76102 0.59395 0.41428 0.0
C658 C 0.10537 0.02447 0.73798 0.0
C659 C 0.09262 0.99698 0.76983 0.0
C660 C 0.08926 0.91382 0.73478 0.0
C661 C 0.10367 0.94124 0.70297 0.0
N662 N 0.10416 0.02506 0.67339 0.0
N663 N 0.06241 0.91514 0.79632 0.0
C664 C 0.10582 0.9973 0.70441 0.0
C665 C 0.08145 0.94184 0.76746 0.0
N666 N 0.11635 0.07705 0.73949 0.0
N667 N 0.08469 0.86025 0.73495 0.0
H668 H 0.06346 0.92887 0.82228 0.0
H669 H 0.04385 0.87868 0.79443 0.0
H670 H 0.07359 0.83789 0.71313 0.0
H671 H 0.08966 0.83778 0.75783 0.0
H672 H 0.13289 0.09777 0.71838 0.0
H673 H 0.11146 0.09961 0.76242 0.0
H674 H 0.10102 0.06584 0.67227 0.0
H675 H 0.09862 1.00695 0.64878 0.0
C676 C 0.81989 0.31741 1.00467 0.0
C677 C 0.78699 0.35558 1.02159 0.0
C678 C 0.80838 0.41778 0.97347 0.0
C679 C 0.83985 0.37943 0.95579 0.0
N680 N 0.86597 0.2889 0.95109 0.0
N681 N 0.743 0.44006 1.0172 0.0
C682 C 0.84303 0.32814 0.97052 0.0
C683 C 0.77823 0.4044 1.00407 0.0
N684 N 0.82887 0.27047 1.0211 0.0
N685 N 0.81189 0.46931 0.96375 0.0
H686 H 0.72778 0.4399 0.04281 0.0
H687 H 0.72736 0.47003 1.00167 0.0
H688 H 0.83831 0.48262 0.94485 0.0
H689 H 0.79434 0.49991 0.9778 0.0
H690 H 0.8577 0.24406 1.01304 0.0
H691 H 0.8087 0.25863 0.0438 0.0
H692 H 0.86525 0.24944 0.95838 0.0
H693 H 0.8815 0.29498 0.92575 0.0
C694 C 0.45432 0.07724 0.22154 0.0
C695 C 0.40928 0.06541 0.20052 0.0
C696 C 0.37436 0.01254 0.25016 0.0
C697 C 0.41948 0.02319 0.27125 0.0
N698 N 0.50861 0.05492 0.27235 0.0
N699 N 0.34191 0.99935 0.19073 0.0
C700 C 0.46125 0.05265 0.2556 0.0
C701 C 0.37415 0.02607 0.2134 0.0
N702 N 0.49149 0.1109 0.20856 0.0
N703 N 0.33006 0.99193 0.26523 0.0
H704 H 0.34507 1.00161 0.16323 0.0
H705 H 0.31808 0.96831 0.19902 0.0
H706 H 0.32635 0.9839 0.29222 0.0
H707 H 0.29477 0.98873 0.2515 0.0
H708 H 0.5207 0.12774 0.22419 0.0
H709 H 0.49284 0.12226 0.18196 0.0
H710 H 0.54222 0.07117 0.26104 0.0
H711 H 0.51581 0.03583 0.29626 0.0
C712 C 0.34349 0.32736 0.57394 0.0
C713 C 0.33239 0.37358 0.59389 0.0
C714 C 0.26885 0.39963 0.54801 0.0
C715 C 0.27755 0.35197 0.52865 0.0
N716 N 0.3121 0.26363 0.53077 0.0
N717 N 0.26891 0.44112 0.60595 0.0
C718 C 0.31165 0.31375 0.54391 0.0
C719 C 0.28997 0.40554 0.58291 0.0
N720 N 0.3845 0.29623 0.58363 0.0
N721 N 0.24372 0.44115 0.53272 0.0
H722 H 0.27932 0.4417 0.6326 0.0
H723 H 0.23584 0.46342 0.60008 0.0
H724 H 0.23058 0.44136 0.50661 0.0
H725 H 0.24163 0.47808 0.54476 0.0
H726 H 0.39862 0.26564 0.56782 0.0
H727 H 0.40591 0.30273 0.60682 0.0
H728 H 0.33274 0.23302 0.54256 0.0
H729 H 0.28691 0.25118 0.51068 0.0
C730 C 0.95825 0.06107 0.28411 0.0
C731 C 0.92034 0.02704 0.26827 0.0
C732 C 0.86922 0.03193 0.32445 0.0
C733 C 0.90109 0.074 0.33746 0.0
N734 N 0.98142 0.12334 0.3308 0.0
N735 N 0.83342 0.98891 0.2727 0.0
C736 C 0.94714 0.08703 0.31744 0.0
C737 C 0.87432 0.01476 0.28835 0.0
N738 N 1.00613 0.0667 0.26815 0.0
N739 N 0.83529 1.006 0.34651 0.0
H740 H 0.8338 0.9759 0.24652 0.0
H741 H 0.79669 0.98542 0.28473 0.0
H742 H 0.83335 1.01194 0.37378 0.0
H743 H 0.81461 0.97255 0.33865 0.0
H744 H 0.03772 0.08626 0.27962 0.0
H745 H 0.01597 0.04772 0.24452 0.0
H746 H 0.01076 0.14124 0.31577 0.0
H747 H 0.98035 0.13576 0.35723 0.0
C748 C 0.20976 0.69701 0.08173 0.0
C749 C 0.19868 0.64474 0.09328 0.0
C750 C 0.25101 0.61201 0.04218 0.0
C751 C 0.25598 0.66332 0.02782 0.0
N752 N 0.23652 0.75553 0.03364 0.0
N753 N 0.19483 0.55373 0.07524 0.0
C754 C 0.23409 0.70606 0.04755 0.0
C755 C 0.21592 0.6026 0.07115 0.0
N756 N 0.19852 0.73805 0.10384 0.0
N757 N 0.27923 0.5714 0.02813 0.0
H758 H 0.16967 0.544 0.09603 0.0
H759 H 0.19971 0.52396 0.05639 0.0
H760 H 0.30503 0.57593 1.00682 0.0
H761 H 0.27981 0.53414 0.03961 0.0
H762 H 0.2097 0.77675 0.09886 0.0
H763 H 0.18185 0.73237 0.1288 0.0
H764 H 0.21605 0.78742 0.04412 0.0
H765 H 0.25748 0.76407 1.01051 0.0
C766 C 0.64553 0.02087 0.79269 0.0
C767 C 0.59591 0.01384 0.77593 0.0
C768 C 0.56969 0.95677 0.82639 0.0
C769 C 0.6189 0.96564 0.84355 0.0
N770 N 0.69181 0.02717 0.84819 0.0
N771 N 0.50628 0.98537 0.78224 0.0
C772 C 0.65296 1.00435 0.82852 0.0
C773 C 0.55669 0.98463 0.79438 0.0
N774 N 0.68733 0.04038 0.77408 0.0
N775 N 0.53457 0.92244 0.84101 0.0
H776 H 0.49502 1.00688 0.76 0.0
H777 H 0.4747 0.96927 0.79607 0.0
H778 H 0.53868 0.9076 0.86659 0.0
H779 H 0.50193 0.90806 0.82754 0.0
H780 H 0.72539 0.04017 0.7841 0.0
H781 H 0.68584 0.05099 0.74748 0.0
H782 H 0.71468 0.05814 0.83863 0.0
H783 H 0.69633 0.02184 0.87533 0.0
C784 C 0.48953 0.26834 0.12697 0.0
C785 C 0.47341 0.2297 0.10153 0.0
C786 C 0.55228 0.25319 0.06711 0.0
C787 C 0.56191 0.29626 0.09055 0.0
N788 N 0.52459 0.35559 0.13358 0.0
N789 N 0.48758 0.19201 0.04324 0.0
C790 C 0.52444 0.30813 0.11663 0.0
C791 C 0.50411 0.22397 0.0701 0.0
N792 N 0.47473 0.26522 0.16183 0.0
N793 N 0.58956 0.23969 0.04273 0.0
H794 H 0.45283 0.17049 0.04465 0.0
H795 H 0.50659 0.19002 1.01871 0.0
H796 H 0.62365 0.262 0.03933 0.0
H797 H 0.58738 0.20563 0.02733 0.0
H798 H 0.48826 0.29154 0.18106 0.0
H799 H 0.45549 0.23255 0.17228 0.0
H800 H 0.49606 0.3657 0.15233 0.0
H801 H 0.54906 0.38635 0.12568 0.0
C802 C 0.49275 0.72437 0.37494 0.0
C803 C 0.53566 0.71121 0.35195 0.0
C804 C 0.51791 0.79415 0.3206 0.0
C805 C 0.4713 0.80122 0.34111 0.0
N806 N 0.40508 0.75854 0.37641 0.0
N807 N 0.58239 0.73198 0.29771 0.0
C808 C 0.45502 0.76049 0.36353 0.0
C809 C 0.5464 0.74551 0.32295 0.0
N810 N 0.49 0.70623 0.40905 0.0
N811 N 0.53537 0.83427 0.29969 0.0
H812 H 0.60319 0.69681 0.2985 0.0
H813 H 0.58835 0.7539 0.27467 0.0
H814 H 0.51385 0.86886 0.29662 0.0
H815 H 0.5717 0.83379 0.28693 0.0
H816 H 0.4603 0.71754 0.4266 0.0
H817 H 0.52097 0.68677 0.42122 0.0
H818 H 0.39184 0.72727 0.39201 0.0
H819 H 0.37613 0.78457 0.36809 0.0
C820 C 0.97116 0.78882 0.62496 0.0
C821 C 0.95497 0.74657 0.60233 0.0
C822 C 0.03644 0.76128 0.56809 0.0
C823 C 0.04762 0.80708 0.58865 0.0
N824 N 0.01036 0.87491 0.62584 0.0
N825 N 0.96941 0.70086 0.54665 0.0
C826 C 1.00931 0.82481 0.61287 0.0
C827 C 0.98668 0.73512 0.572 0.0
N828 N 0.95416 0.79245 0.65936 0.0
N829 N 0.07365 0.74239 0.54534 0.0
H830 H 0.93288 0.68258 0.54793 0.0
H831 H 0.98934 0.69458 0.52279 0.0
H832 H 0.10885 0.7624 0.54082 0.0
H833 H 0.07031 0.7062 0.53246 0.0
H834 H 0.96801 0.82127 0.67678 0.0
H835 H 0.93332 0.76251 0.67198 0.0
H836 H 0.9813 0.88925 0.64287 0.0
H837 H 0.03584 0.90348 0.61596 0.0
C838 C 0.03996 0.30978 0.87098 0.0
C839 C 0.99448 0.32101 0.85003 0.0
C840 C 1.00757 0.23403 0.82198 0.0
C841 C 0.05591 0.22824 0.84035 0.0
N842 N 0.1263 0.27161 0.87047 0.0
N843 N 0.94174 0.29477 0.79965 0.0
C844 C 0.0755 0.27123 0.85942 0.0
C845 C 0.98022 0.28355 0.82344 0.0
N846 N 0.04638 0.33061 0.90422 0.0
N847 N 0.98697 0.19186 0.80445 0.0
H848 H 0.92193 0.33054 0.79958 0.0
H849 H 0.93285 0.27024 0.77826 0.0
H850 H 1.00728 0.15637 0.80222 0.0
H851 H 0.94935 0.1917 0.79377 0.0
H852 H 0.07793 0.32071 0.92044 0.0
H853 H 0.01649 0.3501 0.91778 0.0
H854 H 0.14256 0.30365 0.88394 0.0
H855 H 0.15244 0.24193 0.86308 0.0
C856 C 0.51921 0.8321 0.94029 0.0
C857 C 0.56394 0.81018 0.95561 0.0
C858 C 0.51127 0.73157 0.97057 0.0
C859 C 0.47149 0.74922 0.94708 0.0
N860 N 0.45482 0.80897 0.89749 0.0
N861 N 0.60398 0.73711 0.98548 0.0
C862 C 0.48005 0.79765 0.92852 0.0
C863 C 0.56033 0.75924 0.97112 0.0
N864 N 0.51568 0.88477 0.93414 0.0
N865 N 0.50252 0.68979 0.99245 0.0
H866 H 0.63923 0.75787 0.98755 0.0
H867 H 0.60544 0.69806 0.99375 0.0
H868 H 0.467 0.66952 0.99317 0.0
H869 H 0.52906 0.67828 1.0119 0.0
H870 H 0.4818 0.90169 0.92376 0.0
H871 H 0.54361 0.91147 0.94332 0.0
H872 H 0.46257 0.84308 0.88301 0.0
H873 H 0.43301 0.78122 0.88348 0.0
C874 C 0.53403 0.32467 0.72021 0.0
C875 C 0.47864 0.32122 0.719 0.0
C876 C 0.48636 0.2255 0.72239 0.0
C877 C 0.53996 0.22917 0.71176 0.0
N878 N 0.61679 0.28373 0.70441 0.0
N879 N 0.40117 0.26824 0.72321 0.0
C880 C 0.56495 0.27909 0.71282 0.0
C881 C 0.45453 0.2715 0.72246 0.0
N882 N 0.5565 0.37212 0.72754 0.0
N883 N 0.46594 0.17752 0.73108 0.0
H884 H 0.37771 0.30181 0.72442 0.0
H885 H 0.38061 0.23289 0.72135 0.0
H886 H 0.48911 0.14371 0.73154 0.0
H887 H 0.4281 0.17229 0.74095 0.0
H888 H 0.59664 0.37742 0.73106 0.0
H889 H 0.53348 0.40499 0.73341 0.0
H890 H 0.63532 0.31983 0.70053 0.0
H891 H 0.6409 0.25134 0.70012 0.0
C892 C 0.04032 0.25415 0.48051 0.0
C893 C 0.04934 0.3031 0.46318 0.0
C894 C 0.97565 0.28715 0.42571 0.0
C895 C 0.96163 0.23968 0.44409 0.0
N896 N 0.97658 0.18712 0.4969 0.0
N897 N 1.00782 0.37541 0.43413 0.0
C898 C 0.99242 0.22581 0.47424 0.0
C899 C 1.00936 0.32333 0.44218 0.0
N900 N 0.0786 0.23395 0.50156 0.0
N901 N 0.96285 0.29522 0.39092 0.0
H902 H 0.03363 0.40231 0.44572 0.0
H903 H 0.97749 0.3913 0.41904 0.0
H904 H 0.94902 0.2652 0.37445 0.0
H905 H 0.97435 0.32899 0.37721 0.0
H906 H 0.07717 0.19595 0.51187 0.0
H907 H 0.11272 0.25521 0.50711 0.0
H908 H 0.9964 0.17871 0.52037 0.0
H909 H 0.94118 0.16717 0.49424 0.0
C910 C 0.01175 0.72564 0.23069 0.0
C911 C 0.06161 0.71838 0.21415 0.0
C912 C 0.04552 0.79277 0.1772 0.0
C913 C 0.99755 0.80566 0.19527 0.0
N914 N 0.94269 0.78735 0.24663 0.0
N915 N 0.13377 0.76324 0.18664 0.0
C916 C 0.98284 0.77329 0.22462 0.0
C917 C 0.08163 0.75955 0.19377 0.0
N918 N 0.99144 0.68611 0.25093 0.0
N919 N 0.05441 0.80629 0.14257 0.0
H920 H 0.16099 0.73855 0.19872 0.0
H921 H 0.14918 0.7946 0.17203 0.0
H922 H 0.02487 0.82023 0.12601 0.0
H923 H 0.08853 0.79527 0.12909 0.0
H924 H 0.95311 0.6863 0.26061 0.0
H925 H 0.01304 0.65226 0.25646 0.0
H926 H 0.9335 0.76654 0.26967 0.0
H927 H 0.92185 0.82217 0.24375 0.0
C928 C 0.26698 0.37806 0.12312 0.0
C929 C 0.27397 0.34248 0.1516 0.0
C930 C 0.22407 0.40087 0.1907 0.0
C931 C 0.21748 0.43684 0.16247 0.0
N932 N 0.25661 0.47014 0.10921 0.0
N933 N 0.28307 0.33848 0.21587 0.0
C934 C 0.24559 0.42851 0.1305 0.0
C935 C 0.25986 0.35912 0.18655 0.0
N936 N 0.28224 0.3648 0.08949 0.0
N937 N 0.19647 0.40592 0.22152 0.0
H938 H 0.31787 0.3179 0.21419 0.0
H939 H 0.2748 0.35115 0.24167 0.0
H940 H 0.17182 0.43731 0.22625 0.0
H941 H 0.19576 0.377 0.24115 0.0
H942 H 0.27339 0.38795 0.06748 0.0
H943 H 0.3018 0.32981 0.08366 0.0
H944 H 0.27998 0.46723 0.08652 0.0
H945 H 0.24984 0.50827 0.11834 0.0
C946 C 0.35127 0.48097 0.42764 0.0
C947 C 0.33514 0.44195 0.40262 0.0
C948 C 0.40037 0.47666 0.35995 0.0
C949 C 0.41975 0.51017 0.38684 0.0
N950 N 0.39261 0.56585 0.43539 0.0
N951 N 0.34411 0.40426 0.34326 0.0
C952 C 0.38843 0.51947 0.41725 0.0
C953 C 0.35908 0.44073 0.36803 0.0
N954 N 0.33563 0.47864 0.46239 0.0
N955 N 0.41916 0.48231 0.3261 0.0
H956 H 0.3112 0.38043 0.34567 0.0
H957 H 0.36544 0.39601 0.3203 0.0
H958 H 0.44601 0.5118 0.31947 0.0
H959 H 0.40412 0.4628 0.30403 0.0
H960 H 0.3497 0.50428 0.4818 0.0
H961 H 0.31482 0.44719 0.47308 0.0
H962 H 0.36785 0.57596 0.45641 0.0
H963 H 0.41493 0.59724 0.42582 0.0
C964 C 0.27455 0.64856 0.61114 0.0
C965 C 0.25385 0.67551 0.64124 0.0
C966 C 0.27703 0.59866 0.67808 0.0
C967 C 0.30779 0.57847 0.65017 0.0
N968 N 0.33518 0.58225 0.58906 0.0
N969 N 0.2464 0.67746 0.70551 0.0
C970 C 0.306 0.60267 0.61622 0.0
C971 C 0.25671 0.65029 0.67519 0.0
N972 N 0.2632 0.66607 0.57778 0.0
N973 N 0.26952 0.56981 0.70827 0.0
H974 H 0.23919 0.7171 0.70508 0.0
H975 H 0.25297 0.6629 0.73097 0.0
H976 H 0.28511 0.53228 0.71155 0.0
H977 H 0.24329 0.58084 0.72824 0.0
H978 H 0.27381 0.64599 0.5547 0.0
H979 H 0.2384 0.69794 0.57334 0.0
H980 H 0.34077 0.60119 0.56482 0.0
H981 H 0.35546 0.54693 0.59162 0.0
C982 C 0.11371 0.55939 0.92286 0.0
C983 C 0.10272 0.5276 0.8931 0.0
C984 C 0.19574 0.5323 0.87668 0.0
C985 C 0.20596 0.559 0.90913 0.0
N986 N 0.17639 0.57751 0.96844 0.0
N987 N 0.1349 0.4771 0.84333 0.0
C988 C 0.16553 0.56431 0.93428 0.0
C989 C 0.14439 0.51137 0.87051 0.0
N990 N 0.07599 0.5902 0.93768 0.0
N991 N 0.23438 0.52863 0.85168 0.0
H992 H 0.09735 0.46291 0.83786 0.0
H993 H 0.16458 0.46077 0.82777 0.0
H994 H 0.27241 0.54203 0.85661 0.0
H995 H 0.22806 0.51431 0.82608 0.0
H996 H 0.08428 0.61716 0.9578 0.0
H997 H 0.04048 0.59638 0.92495 0.0
H998 H 0.14748 0.57978 0.988 0.0
H999 H 0.2148 0.57898 0.97731 0.0
C1000 C 0.76756 0.65953 0.93389 0.0
C1001 C 0.74396 0.68199 0.90398 0.0
C1002 C 0.76202 0.60108 0.86975 0.0
C1003 C 0.79799 0.58503 0.8966 0.0
N1004 N 0.83046 0.5992 0.95717 0.0
N1005 N 0.69165 0.65975 0.85262 0.0
C1006 C 0.79829 0.61348 0.92987 0.0
C1007 C 0.73299 0.64874 0.87435 0.0
N1008 N 0.75795 0.68088 0.96664 0.0
N1009 N 0.75662 0.57236 0.83927 0.0
H1010 H 0.66365 0.68802 0.85882 0.0
H1011 H 0.67974 0.63577 0.8317 0.0
H1012 H 0.76745 0.53316 0.83712 0.0
H1013 H 0.74027 0.58722 0.81607 0.0
H1014 H 0.76926 0.66337 0.99039 0.0
H1015 H 0.73263 0.71271 0.9701 0.0
H1016 H 0.83851 0.62359 0.97878 0.0
H1017 H 0.85171 0.56459 0.95799 0.0
C1018 C 0.68971 0.52985 0.68183 0.0
C1019 C 0.70622 0.5346 0.64585 0.0
C1020 C 0.63943 0.46934 0.6291 0.0
C1021 C 0.61458 0.47715 0.66256 0.0
N1022 N 0.61849 0.50914 0.72252 0.0
N1023 N 0.70224 0.5018 0.58564 0.0
C1024 C 0.64127 0.50462 0.68976 0.0
C1025 C 0.68364 0.50113 0.61969 0.0
N1026 N 0.72004 0.551 0.70812 0.0
N1027 N 0.61998 0.43242 0.60621 0.0
H1028 H 0.73613 0.52172 0.57825 0.0
H1029 H 0.68394 0.48309 0.56442 0.0
H1030 H 0.58864 0.40801 0.61288 0.0
H1031 H 0.63788 0.422 0.58233 0.0
H1032 H 0.71249 0.54604 0.73511 0.0
H1033 H 0.7557 0.56959 0.70265 0.0
H1034 H 0.63245 0.53384 0.74248 0.0
H1035 H 0.58403 0.48916 0.72913 0.0
C1036 C 0.75498 0.37986 0.43475 0.0
C1037 C 0.78035 0.35378 0.40634 0.0
C1038 C 0.76262 0.42766 0.36666 0.0
C1039 C 0.72766 0.44806 0.39265 0.0
N1040 N 0.71057 0.45911 0.4551 0.0
N1041 N 0.83813 0.37188 0.3568 0.0
C1042 C 0.73058 0.42913 0.42814 0.0
C1043 C 0.794 0.38372 0.37579 0.0
N1044 N 0.75578 0.35818 0.46782 0.0
N1045 N 0.76461 0.44792 0.33312 0.0
H1046 H 0.8653 0.3444 0.36576 0.0
H1047 H 0.85172 0.39458 0.33566 0.0
H1048 H 0.74339 0.48055 0.32504 0.0
H1049 H 0.78626 0.43075 0.31266 0.0
H1050 H 0.73337 0.37154 0.48916 0.0
H1051 H 0.78099 0.32722 0.47381 0.0
H1052 H 0.71273 0.44938 0.48188 0.0
H1053 H 0.69561 0.4966 0.45037 0.0
C1054 C 0.84856 0.47205 0.17888 0.0
C1055 C 0.83508 0.46308 0.14273 0.0
C1056 C 0.89573 0.53357 0.12578 0.0
C1057 C 0.92017 0.53025 0.15967 0.0
N1058 N 0.91215 0.50588 0.22114 0.0
N1059 N 0.84802 0.48549 0.08081 0.0
C1060 C 0.89393 0.50251 0.18716 0.0
C1061 C 0.85866 0.49441 0.11586 0.0
N1062 N 0.81667 0.453 0.2051 0.0
N1063 N 0.90595 0.57486 0.10366 0.0
H1064 H 0.82332 0.45563 0.07196 0.0
H1065 H 0.86741 0.50498 0.06028 0.0
H1066 H 0.92628 0.60824 0.11196 0.0
H1067 H 0.88688 0.58014 0.07949 0.0
H1068 H 0.82188 0.46085 0.23202 0.0
H1069 H 0.78148 0.43393 0.19933 0.0
H1070 H 0.89947 0.48154 0.24169 0.0
H1071 H 0.94068 0.53329 0.2285 0.0
C1072 C 0.76308 0.8917 0.6441 0.0
C1073 C 0.73376 0.84381 0.64411 0.0
C1074 C 0.65875 0.89103 0.66886 0.0
C1075 C 0.68463 0.93995 0.6639 0.0
N1076 N 0.76143 0.98743 0.64461 0.0
N1077 N 0.64832 0.80143 0.65011 0.0
C1078 C 0.7371 0.94057 0.65121 0.0
C1079 C 0.67994 0.84458 0.65413 0.0
N1080 N 0.81564 0.89055 0.63705 0.0
N1081 N 0.61443 0.88857 0.68927 0.0
H1082 H 0.66058 0.76455 0.64181 0.0
H1083 H 0.60765 0.80341 0.6524 0.0
H1084 H 0.6017 0.92034 0.70434 0.0
H1085 H 0.59456 0.85389 0.69526 0.0
H1086 H 0.84035 0.92276 0.64074 0.0
H1087 H 0.83514 0.85648 0.62905 0.0
H1088 H 0.79708 0.99064 0.63122 0.0
H1089 H 0.74455 0.02356 0.65085 0.0
C1090 C 0.83393 0.03328 0.9199 0.0
C1091 C 0.8179 0.99477 0.89463 0.0
C1092 C 0.88081 0.03079 0.85149 0.0
C1093 C 0.90567 0.05823 0.87956 0.0
N1094 N 0.90305 0.09204 0.93947 0.0
N1095 N 0.80884 0.9744 0.83249 0.0
C1096 C 0.88044 0.06277 0.91315 0.0
C1097 C 0.83583 0.99936 0.85897 0.0
N1098 N 0.80438 0.04319 0.94952 0.0
N1099 N 0.90287 0.03237 0.81836 0.0
H1100 H 0.77414 0.95377 0.83739 0.0
H1101 H 0.81767 0.97765 0.80558 0.0
H1102 H 0.93444 0.0572 0.81255 0.0
H1103 H 0.89086 1.00931 0.79701 0.0
H1104 H 0.81282 0.07303 0.96762 0.0
H1105 H 0.76727 0.02743 0.95361 0.0
H1106 H 0.89231 0.08946 0.96614 0.0
H1107 H 0.93392 0.118 0.93479 0.0
C1108 C 0.80253 0.08455 0.11126 0.0
C1109 C 0.8029 0.06507 0.14666 0.0
C1110 C 0.73138 0.12578 0.16026 0.0
C1111 C 0.74686 0.15702 0.1306 0.0
N1112 N 0.78117 0.15588 0.07107 0.0
N1113 N 0.75673 0.05949 0.2029 0.0
C1114 C 0.77737 0.13302 0.10372 0.0
C1115 C 0.76352 0.08273 0.1706 0.0
N1116 N 0.8247 0.05504 0.08497 0.0
N1117 N 0.68454 0.13496 0.17678 0.0
H1118 H 0.7761 0.02555 0.21052 0.0
H1119 H 0.73185 0.07437 0.22246 0.0
H1120 H 0.65696 0.16086 0.16638 0.0
H1121 H 0.66961 0.11148 0.19709 0.0
H1122 H 0.82376 0.0646 0.0581 0.0
H1123 H 0.83882 0.01753 0.09044 0.0
H1124 H 0.80792 0.14426 0.05163 0.0
H1125 H 0.75631 0.18636 0.06351 0.0
C1126 C 0.63526 1.01022 0.36097 0.0
C1127 C 0.60786 0.98555 0.38917 0.0
C1128 C 0.67466 0.01484 0.43149 0.0
C1129 C 0.69863 0.04497 0.40429 0.0
N1130 N 0.71463 0.05507 0.34164 0.0
N1131 N 0.62262 0.93761 0.44386 0.0
C1132 C 0.68305 0.03717 0.36838 0.0
C1133 C 0.63415 0.97908 0.42221 0.0
N1134 N 0.61579 1.00732 0.32731 0.0
N1135 N 0.68807 0.02194 0.46625 0.0
H1136 H 0.59943 0.90614 0.43552 0.0
H1137 H 0.64294 0.93015 0.46729 0.0
H1138 H 0.71704 0.0481 0.47443 0.0
H1139 H 0.66757 1.00441 0.48712 0.0
H1140 H 0.62971 0.02978 0.30618 0.0
H1141 H 0.58531 0.98165 0.32074 0.0
H1142 H 0.70805 0.04756 0.31483 0.0
H1143 H 0.75047 0.07333 0.34683 0.0
C1144 C 0.22607 0.12479 0.38573 0.0
C1145 C 0.23266 0.14992 0.41919 0.0
C1146 C 0.29799 0.08272 0.43366 0.0
C1147 C 0.30308 0.07066 0.39676 0.0
N1148 N 0.27201 0.08446 0.33674 0.0
N1149 N 0.26575 0.14347 0.47873 0.0
C1150 C 0.2666 0.0921 0.37249 0.0
C1151 C 0.26567 0.12565 0.4445 0.0
N1152 N 0.18066 0.13059 0.3672 0.0
N1153 N 0.32268 0.05203 0.45816 0.0
H1154 H 0.23759 0.1699 0.48806 0.0
H1155 H 0.29349 0.13243 0.4975 0.0
H1156 H 0.34378 0.01858 0.45091 0.0
H1157 H 0.31781 0.05621 0.4855 0.0
H1158 H 0.17336 0.11065 0.34345 0.0
H1159 H 0.1479 0.14896 0.37829 0.0
H1160 H 0.24866 0.1038 0.31823 0.0
H1161 H 0.3028 0.06333 0.32549 0.0
C1162 C 0.14396 0.97244 0.12319 0.0
C1163 C 0.11274 0.98707 0.15312 0.0
C1164 C 0.18898 0.0333 0.17698 0.0
C1165 C 0.21015 0.03619 0.14199 0.0
N1166 N 0.21496 0.99649 0.08352 0.0
N1167 N 0.11389 0.01341 0.21453 0.0
C1168 C 0.19036 1.0016 0.11559 0.0
C1169 C 0.13807 1.01165 0.18216 0.0
N1170 N 0.13169 0.92859 0.10386 0.0
N1171 N 0.21839 0.0506 0.20494 0.0
H1172 H 0.08103 0.99036 0.22019 0.0
H1173 H 0.12672 0.03664 0.23561 0.0
H1174 H 0.25637 0.06512 0.20143 0.0
H1175 H 0.20736 0.04652 0.23145 0.0
H1176 H 0.15478 0.91439 0.08309 0.0
H1177 H 0.10344 0.90165 0.11228 0.0
H1178 H 0.19857 0.97655 0.06207 0.0
H1179 H 0.25217 1.01123 0.07833 0.0
C1180 C 0.19072 0.89538 0.8744 0.0
C1181 C 0.20708 0.94682 0.88326 0.0
C1182 C 0.27504 0.90648 0.92084 0.0
C1183 C 0.24853 0.85724 0.91805 0.0
N1184 N 0.1692 0.81192 0.89954 0.0
N1185 N 0.2745 1.00088 0.91014 0.0
C1186 C 0.20235 0.854 0.89749 0.0
C1187 C 0.25221 0.95261 0.90526 0.0
N1188 N 0.16581 0.88567 0.84306 0.0
N1189 N 0.32238 0.90858 0.93762 0.0
H1190 H 0.26519 0.03333 0.89465 0.0
H1191 H 0.30278 1.00866 0.92932 0.0
H1192 H 0.33809 0.87612 0.95073 0.0
H1193 H 0.34684 0.94141 0.93748 0.0
H1194 H 0.15569 0.84775 0.83484 0.0
H1195 H 0.16229 0.91481 0.82372 0.0
H1196 H 0.13421 0.81036 0.88528 0.0
H1197 H 0.17301 0.7823 0.91837 0.0
C1198 C 0.3269 0.9976 0.68151 0.0
C1199 C 0.31386 0.98536 0.64568 0.0
C1200 C 0.37429 0.05505 0.62669 0.0
C1201 C 0.39919 0.05374 0.66034 0.0
N1202 N 0.39101 0.0337 0.72259 0.0
N1203 N 0.32901 1.00269 0.58308 0.0
C1204 C 0.37264 0.02828 0.68877 0.0
C1205 C 0.33784 0.0148 0.61789 0.0
N1206 N 0.29443 0.98152 0.70832 0.0
N1207 N 0.38407 0.09518 0.60357 0.0
H1208 H 0.30671 0.97061 0.57501 0.0
H1209 H 0.3486 0.02133 0.56227 0.0
H1210 H 0.40516 0.1286 0.61104 0.0
H1211 H 0.36439 0.09917 0.5795 0.0
H1212 H 0.2994 0.99231 0.73481 0.0
H1213 H 0.25934 0.96158 0.70344 0.0
H1214 H 0.37804 1.01084 0.74382 0.0
H1215 H 0.41993 0.06117 0.72908 0.0
loop_
_geom_bond_atom_site_label_1
_geom_bond_atom_site_label_2
_geom_bond_distance
_geom_bond_site_symmetry_2
_ccdc_geom_bond_type
Fe0 O2 1.918 . S
Fe0 O5 1.997 . S
Fe0 O6 2.002 . S
Fe0 O11 1.976 . S
Fe0 O14 1.996 . S
Fe1 O2 1.918 . S
Fe1 O9 1.997 . S
Fe1 O12 1.996 . S
Fe1 O16 1.976 . S
Fe1 O19 2.002 . S
O2 Fe0 1.918 . S
O2 Fe1 1.918 . S
O2 Fe3 1.918 . S
Fe3 O2 1.918 . S
Fe3 O4 2.002 . S
Fe3 O13 1.976 . S
Fe3 O17 1.996 . S
Fe3 O20 1.997 . S
O4 Fe3 2.002 . S
O4 C21 1.295 . S
O5 Fe0 1.997 . S
O5 C21 1.235 . S
O6 Fe0 2.002 . S
O6 C7 1.295 . S
C7 O6 1.295 . S
C7 O9 1.235 . S
C8 O13 1.287 . S
C8 O14 1.255 . S
O9 Fe1 1.997 . S
O9 C7 1.235 . S
C10 O16 1.287 . S
C10 O17 1.255 . S
O11 Fe0 1.976 . S
O11 C18 1.287 . S
O12 Fe1 1.996 . S
O12 C18 1.255 . S
O13 Fe3 1.976 . S
O13 C8 1.287 . S
O14 Fe0 1.996 . S
O14 C8 1.255 . S
C15 O19 1.295 . S
C15 O20 1.235 . S
O16 Fe1 1.976 . S
O16 C10 1.287 . S
O17 Fe3 1.996 . S
O17 C10 1.255 . S
C18 O11 1.287 . S
C18 O12 1.255 . S
O19 Fe1 2.002 . S
O19 C15 1.295 . S
O20 Fe3 1.997 . S
O20 C15 1.235 . S
C21 O4 1.295 . S
C21 O5 1.235 . S
Fe22 O24 1.918 . S
Fe22 O27 1.997 . S
Fe22 O28 2.002 . S
Fe22 O33 1.976 . S
Fe22 O36 1.996 . S
Fe23 O24 1.918 . S
Fe23 O31 1.997 . S
Fe23 O34 1.996 . S
Fe23 O38 1.976 . S
Fe23 O41 2.002 . S
O24 Fe22 1.918 . S
O24 Fe23 1.918 . S
O24 Fe25 1.918 . S
Fe25 O24 1.918 . S
Fe25 O26 2.002 . S
Fe25 O35 1.976 . S
Fe25 O39 1.996 . S
Fe25 O42 1.997 . S
O26 Fe25 2.002 . S
O26 C43 1.295 . S
O27 Fe22 1.997 . S
O27 C43 1.235 . S
O28 Fe22 2.002 . S
O28 C29 1.295 . S
C29 O28 1.295 . S
C29 O31 1.235 . S
C30 O35 1.287 . S
C30 O36 1.255 . S
O31 Fe23 1.997 . S
O31 C29 1.235 . S
C32 O38 1.287 . S
C32 O39 1.255 . S
O33 Fe22 1.976 . S
O33 C40 1.287 . S
O34 Fe23 1.996 . S
O34 C40 1.255 . S
O35 Fe25 1.976 . S
O35 C30 1.287 . S
O36 Fe22 1.996 . S
O36 C30 1.255 . S
C37 O41 1.295 . S
C37 O42 1.235 . S
O38 Fe23 1.976 . S
O38 C32 1.287 . S
O39 Fe25 1.996 . S
O39 C32 1.255 . S
C40 O33 1.287 . S
C40 O34 1.255 . S
O41 Fe23 2.002 . S
O41 C37 1.295 . S
O42 Fe25 1.997 . S
O42 C37 1.235 . S
C43 O26 1.295 . S
C43 O27 1.235 . S
Fe44 O46 1.918 . S
Fe44 O49 1.997 . S
Fe44 O50 2.002 . S
Fe44 O55 1.976 . S
Fe44 O58 1.996 . S
Fe45 O46 1.918 . S
Fe45 O53 1.997 . S
Fe45 O56 1.996 . S
Fe45 O60 1.976 . S
Fe45 O63 2.002 . S
O46 Fe44 1.918 . S
O46 Fe45 1.918 . S
O46 Fe47 1.918 . S
Fe47 O46 1.918 . S
Fe47 O48 2.002 . S
Fe47 O57 1.976 . S
Fe47 O61 1.996 . S
Fe47 O64 1.997 . S
O48 Fe47 2.002 . S
O48 C65 1.295 . S
O49 Fe44 1.997 . S
O49 C65 1.235 . S
O50 Fe44 2.002 . S
O50 C51 1.295 . S
C51 O50 1.295 . S
C51 O53 1.235 . S
C52 O57 1.287 . S
C52 O58 1.255 . S
O53 Fe45 1.997 . S
O53 C51 1.235 . S
C54 O60 1.287 . S
C54 O61 1.255 . S
O55 Fe44 1.976 . S
O55 C62 1.287 . S
O56 Fe45 1.996 . S
O56 C62 1.255 . S
O57 Fe47 1.976 . S
O57 C52 1.287 . S
O58 Fe44 1.996 . S
O58 C52 1.255 . S
C59 O63 1.295 . S
C59 O64 1.235 . S
O60 Fe45 1.976 . S
O60 C54 1.287 . S
O61 Fe47 1.996 . S
O61 C54 1.255 . S
C62 O55 1.287 . S
C62 O56 1.255 . S
O63 Fe45 2.002 . S
O63 C59 1.295 . S
O64 Fe47 1.997 . S
O64 C59 1.235 . S
C65 O48 1.295 . S
C65 O49 1.235 . S
Fe66 O68 1.918 . S
Fe66 O71 1.997 . S
Fe66 O72 2.002 . S
Fe66 O77 1.976 1_655 S
Fe66 O80 1.996 . S
Fe67 O68 1.918 . S
Fe67 O75 1.997 . S
Fe67 O78 1.996 1_655 S
Fe67 O82 1.976 . S
Fe67 O85 2.002 . S
O68 Fe66 1.918 . S
O68 Fe67 1.918 . S
O68 Fe69 1.918 . S
Fe69 O68 1.918 . S
Fe69 O70 2.002 . S
Fe69 O79 1.976 . S
Fe69 O83 1.996 . S
Fe69 O86 1.997 . S
O70 Fe69 2.002 . S
O70 C87 1.295 . S
O71 Fe66 1.997 . S
O71 C87 1.235 . S
O72 Fe66 2.002 . S
O72 C73 1.295 . S
C73 O72 1.295 . S
C73 O75 1.235 . S
C74 O79 1.287 . S
C74 O80 1.255 . S
O75 Fe67 1.997 . S
O75 C73 1.235 . S
C76 O82 1.287 . S
C76 O83 1.255 . S
O77 Fe66 1.976 1_455 S
O77 C84 1.287 . S
O78 Fe67 1.996 1_455 S
O78 C84 1.255 . S
O79 Fe69 1.976 . S
O79 C74 1.287 . S
O80 Fe66 1.996 . S
O80 C74 1.255 . S
C81 O85 1.295 . S
C81 O86 1.235 . S
O82 Fe67 1.976 . S
O82 C76 1.287 . S
O83 Fe69 1.996 . S
O83 C76 1.255 . S
C84 O77 1.287 . S
C84 O78 1.255 . S
O85 Fe67 2.002 . S
O85 C81 1.295 . S
O86 Fe69 1.997 . S
O86 C81 1.235 . S
C87 O70 1.295 . S
C87 O71 1.235 . S
Fe88 O90 1.918 . S
Fe88 O93 1.997 . S
Fe88 O94 2.002 . S
Fe88 O99 1.976 . S
Fe88 O102 1.996 . S
Fe89 O90 1.918 . S
Fe89 O97 1.997 . S
Fe89 O100 1.996 . S
Fe89 O104 1.976 . S
Fe89 O107 2.002 . S
O90 Fe88 1.918 . S
O90 Fe89 1.918 . S
O90 Fe91 1.918 . S
Fe91 O90 1.918 . S
Fe91 O92 2.002 . S
Fe91 O101 1.976 . S
Fe91 O105 1.996 . S
Fe91 O108 1.997 . S
O92 Fe91 2.002 . S
O92 C109 1.295 . S
O93 Fe88 1.997 . S
O93 C109 1.235 . S
O94 Fe88 2.002 . S
O94 C95 1.295 . S
C95 O94 1.295 . S
C95 O97 1.235 . S
C96 O101 1.287 . S
C96 O102 1.255 . S
O97 Fe89 1.997 . S
O97 C95 1.235 . S
C98 O104 1.287 . S
C98 O105 1.255 . S
O99 Fe88 1.976 . S
O99 C106 1.287 . S
O100 Fe89 1.996 . S
O100 C106 1.255 . S
O101 Fe91 1.976 . S
O101 C96 1.287 . S
O102 Fe88 1.996 . S
O102 C96 1.255 . S
C103 O107 1.295 . S
C103 O108 1.235 . S
O104 Fe89 1.976 . S
O104 C98 1.287 . S
O105 Fe91 1.996 . S
O105 C98 1.255 . S
C106 O99 1.287 . S
C106 O100 1.255 . S
O107 Fe89 2.002 . S
O107 C103 1.295 . S
O108 Fe91 1.997 . S
O108 C103 1.235 . S
C109 O92 1.295 . S
C109 O93 1.235 . S
Fe110 O112 1.918 . S
Fe110 O115 1.997 . S
Fe110 O116 2.002 . S
Fe110 O121 1.976 . S
Fe110 O124 1.996 . S
Fe111 O112 1.918 . S
Fe111 O119 1.997 . S
Fe111 O122 1.996 . S
Fe111 O126 1.976 . S
Fe111 O129 2.002 . S
O112 Fe110 1.918 . S
O112 Fe111 1.918 . S
O112 Fe113 1.918 . S
Fe113 O112 1.918 . S
Fe113 O114 2.002 . S
Fe113 O123 1.976 . S
Fe113 O127 1.996 . S
Fe113 O130 1.997 . S
O114 Fe113 2.002 . S
O114 C131 1.295 . S
O115 Fe110 1.997 . S
O115 C131 1.235 . S
O116 Fe110 2.002 . S
O116 C117 1.295 . S
C117 O116 1.295 . S
C117 O119 1.235 . S
C118 O123 1.287 . S
C118 O124 1.255 . S
O119 Fe111 1.997 . S
O119 C117 1.235 . S
C120 O126 1.287 . S
C120 O127 1.255 . S
O121 Fe110 1.976 . S
O121 C128 1.287 . S
O122 Fe111 1.996 . S
O122 C128 1.255 . S
O123 Fe113 1.976 . S
O123 C118 1.287 . S
O124 Fe110 1.996 . S
O124 C118 1.255 . S
C125 O129 1.295 . S
C125 O130 1.235 . S
O126 Fe111 1.976 . S
O126 C120 1.287 . S
O127 Fe113 1.996 . S
O127 C120 1.255 . S
C128 O121 1.287 . S
C128 O122 1.255 . S
O129 Fe111 2.002 . S
O129 C125 1.295 . S
O130 Fe113 1.997 . S
O130 C125 1.235 . S
C131 O114 1.295 . S
C131 O115 1.235 . S
Fe132 O134 1.918 . S
Fe132 O137 1.997 . S
Fe132 O138 2.002 . S
Fe132 O143 1.976 . S
Fe132 O146 1.996 . S
Fe133 O134 1.918 . S
Fe133 O141 1.997 . S
Fe133 O144 1.996 . S
Fe133 O148 1.976 . S
Fe133 O151 2.002 . S
O134 Fe132 1.918 . S
O134 Fe133 1.918 . S
O134 Fe135 1.918 . S
Fe135 O134 1.918 . S
Fe135 O136 2.002 . S
Fe135 O145 1.976 . S
Fe135 O149 1.996 . S
Fe135 O152 1.997 . S
O136 Fe135 2.002 . S
O136 C153 1.295 . S
O137 Fe132 1.997 . S
O137 C153 1.235 . S
O138 Fe132 2.002 . S
O138 C139 1.295 . S
C139 O138 1.295 . S
C139 O141 1.235 . S
C140 O145 1.287 . S
C140 O146 1.255 . S
O141 Fe133 1.997 . S
O141 C139 1.235 . S
C142 O148 1.287 . S
C142 O149 1.255 . S
O143 Fe132 1.976 . S
O143 C150 1.287 . S
O144 Fe133 1.996 . S
O144 C150 1.255 . S
O145 Fe135 1.976 . S
O145 C140 1.287 . S
O146 Fe132 1.996 . S
O146 C140 1.255 . S
C147 O151 1.295 . S
C147 O152 1.235 . S
O148 Fe133 1.976 . S
O148 C142 1.287 . S
O149 Fe135 1.996 . S
O149 C142 1.255 . S
C150 O143 1.287 . S
C150 O144 1.255 . S
O151 Fe133 2.002 . S
O151 C147 1.295 . S
O152 Fe135 1.997 . S
O152 C147 1.235 . S
C153 O136 1.295 . S
C153 O137 1.235 . S
Fe154 O156 1.918 . S
Fe154 O159 1.997 . S
Fe154 O160 2.002 . S
Fe154 O165 1.976 . S
Fe154 O168 1.996 1_455 S
Fe155 O156 1.918 . S
Fe155 O163 1.997 . S
Fe155 O166 1.996 . S
Fe155 O170 1.976 . S
Fe155 O173 2.002 . S
O156 Fe154 1.918 . S
O156 Fe155 1.918 . S
O156 Fe157 1.918 . S
Fe157 O156 1.918 . S
Fe157 O158 2.002 . S
Fe157 O167 1.976 1_455 S
Fe157 O171 1.996 . S
Fe157 O174 1.997 . S
O158 Fe157 2.002 . S
O158 C175 1.295 . S
O159 Fe154 1.997 . S
O159 C175 1.235 . S
O160 Fe154 2.002 . S
O160 C161 1.295 . S
C161 O160 1.295 . S
C161 O163 1.235 . S
C162 O167 1.287 . S
C162 O168 1.255 . S
O163 Fe155 1.997 . S
O163 C161 1.235 . S
C164 O170 1.287 . S
C164 O171 1.255 . S
O165 Fe154 1.976 . S
O165 C172 1.287 . S
O166 Fe155 1.996 . S
O166 C172 1.255 . S
O167 Fe157 1.976 1_655 S
O167 C162 1.287 . S
O168 Fe154 1.996 1_655 S
O168 C162 1.255 . S
C169 O173 1.295 . S
C169 O174 1.235 . S
O170 Fe155 1.976 . S
O170 C164 1.287 . S
O171 Fe157 1.996 . S
O171 C164 1.255 . S
C172 O165 1.287 . S
C172 O166 1.255 . S
O173 Fe155 2.002 . S
O173 C169 1.295 . S
O174 Fe157 1.997 . S
O174 C169 1.235 . S
C175 O158 1.295 . S
C175 O159 1.235 . S
Fe176 O178 1.918 . S
Fe176 O181 1.997 . S
Fe176 O182 2.002 . S
Fe176 O187 1.976 . S
Fe176 O190 1.996 . S
Fe177 O178 1.918 . S
Fe177 O185 1.997 . S
Fe177 O188 1.996 . S
Fe177 O192 1.976 . S
Fe177 O195 2.002 . S
O178 Fe176 1.918 . S
O178 Fe177 1.918 . S
O178 Fe179 1.918 . S
Fe179 O178 1.918 . S
Fe179 O180 2.002 . S
Fe179 O189 1.976 . S
Fe179 O193 1.996 . S
Fe179 O196 1.997 . S
O180 Fe179 2.002 . S
O180 C197 1.295 . S
O181 Fe176 1.997 . S
O181 C197 1.235 . S
O182 Fe176 2.002 . S
O182 C183 1.295 . S
C183 O182 1.295 . S
C183 O185 1.235 . S
C184 O189 1.287 . S
C184 O190 1.255 . S
O185 Fe177 1.997 . S
O185 C183 1.235 . S
C186 O192 1.287 . S
C186 O193 1.255 . S
O187 Fe176 1.976 . S
O187 C194 1.287 . S
O188 Fe177 1.996 . S
O188 C194 1.255 . S
O189 Fe179 1.976 . S
O189 C184 1.287 . S
O190 Fe176 1.996 . S
O190 C184 1.255 . S
C191 O195 1.295 . S
C191 O196 1.235 . S
O192 Fe177 1.976 . S
O192 C186 1.287 . S
O193 Fe179 1.996 . S
O193 C186 1.255 . S
C194 O187 1.287 . S
C194 O188 1.255 . S
O195 Fe177 2.002 . S
O195 C191 1.295 . S
O196 Fe179 1.997 . S
O196 C191 1.235 . S
C197 O180 1.295 . S
C197 O181 1.235 . S
Fe198 O200 1.918 1_565 S
Fe198 O203 1.997 . S
Fe198 O204 2.002 . S
Fe198 O209 1.977 . S
Fe198 O212 1.996 1_465 S
Fe199 O200 1.918 . S
Fe199 O207 1.997 . S
Fe199 O210 1.996 . S
Fe199 O214 1.976 . S
Fe199 O217 2.002 . S
O200 Fe198 1.918 1_545 S
O200 Fe199 1.918 . S
O200 Fe201 1.918 . S
Fe201 O200 1.918 . S
Fe201 O202 2.002 . S
Fe201 O211 1.976 1_455 S
Fe201 O215 1.996 . S
Fe201 O218 1.997 . S
O202 Fe201 2.002 . S
O202 C219 1.295 . S
O203 Fe198 1.997 . S
O203 C219 1.235 1_565 S
O204 Fe198 2.002 . S
O204 C205 1.295 . S
C205 O204 1.295 . S
C205 O207 1.235 1_565 S
C206 O211 1.287 . S
C206 O212 1.255 . S
O207 Fe199 1.997 . S
O207 C205 1.235 1_545 S
C208 O214 1.287 . S
C208 O215 1.255 . S
O209 Fe198 1.977 . S
O209 C216 1.276 1_565 S
O210 Fe199 1.996 . S
O210 C216 1.255 . S
O211 Fe201 1.976 1_655 S
O211 C206 1.287 . S
O212 Fe198 1.996 1_645 S
O212 C206 1.255 . S
C213 O217 1.295 . S
C213 O218 1.235 . S
O214 Fe199 1.976 . S
O214 C208 1.287 . S
O215 Fe201 1.996 . S
O215 C208 1.255 . S
C216 O209 1.276 1_545 S
C216 O210 1.255 . S
O217 Fe199 2.002 . S
O217 C213 1.295 . S
O218 Fe201 1.997 . S
O218 C213 1.235 . S
C219 O202 1.295 . S
C219 O203 1.235 1_545 S
Fe220 O222 1.918 . S
Fe220 O225 1.997 . S
Fe220 O226 2.002 . S
Fe220 O231 1.976 . S
Fe220 O234 1.996 . S
Fe221 O222 1.918 . S
Fe221 O229 1.997 . S
Fe221 O232 1.996 . S
Fe221 O236 1.976 . S
Fe221 O239 2.002 . S
O222 Fe220 1.918 . S
O222 Fe221 1.918 . S
O222 Fe223 1.918 . S
Fe223 O222 1.918 . S
Fe223 O224 2.002 . S
Fe223 O233 1.976 . S
Fe223 O237 1.996 . S
Fe223 O240 1.997 . S
O224 Fe223 2.002 . S
O224 C241 1.295 . S
O225 Fe220 1.997 . S
O225 C241 1.235 . S
O226 Fe220 2.002 . S
O226 C227 1.295 . S
C227 O226 1.295 . S
C227 O229 1.235 . S
C228 O233 1.287 . S
C228 O234 1.255 . S
O229 Fe221 1.997 . S
O229 C227 1.235 . S
C230 O236 1.287 . S
C230 O237 1.255 . S
O231 Fe220 1.976 . S
O231 C238 1.287 . S
O232 Fe221 1.996 . S
O232 C238 1.255 . S
O233 Fe223 1.976 . S
O233 C228 1.287 . S
O234 Fe220 1.996 . S
O234 C228 1.255 . S
C235 O239 1.295 . S
C235 O240 1.235 . S
O236 Fe221 1.976 . S
O236 C230 1.287 . S
O237 Fe223 1.996 . S
O237 C230 1.255 . S
C238 O231 1.287 . S
C238 O232 1.255 . S
O239 Fe221 2.002 . S
O239 C235 1.295 . S
O240 Fe223 1.997 . S
O240 C235 1.235 . S
C241 O224 1.295 . S
C241 O225 1.235 . S
Fe242 O244 1.918 . S
Fe242 O247 1.997 . S
Fe242 O248 2.002 . S
Fe242 O253 1.976 . S
Fe242 O256 1.996 . S
Fe243 O244 1.918 1_545 S
Fe243 O251 1.997 . S
Fe243 O254 1.996 1_545 S
Fe243 O258 1.977 . S
Fe243 O261 2.002 . S
O244 Fe242 1.918 . S
O244 Fe243 1.918 1_565 S
O244 Fe245 1.918 . S
Fe245 O244 1.918 . S
Fe245 O246 2.002 . S
Fe245 O255 1.976 . S
Fe245 O259 1.996 . S
Fe245 O262 1.997 . S
O246 Fe245 2.002 . S
O246 C263 1.295 . S
O247 Fe242 1.997 . S
O247 C263 1.235 . S
O248 Fe242 2.002 . S
O248 C249 1.295 . S
C249 O248 1.295 . S
C249 O251 1.235 1_565 S
C250 O255 1.287 . S
C250 O256 1.255 . S
O251 Fe243 1.997 . S
O251 C249 1.235 1_545 S
C252 O258 1.276 1_565 S
C252 O259 1.255 . S
O253 Fe242 1.976 . S
O253 C260 1.287 . S
O254 Fe243 1.996 1_565 S
O254 C260 1.255 . S
O255 Fe245 1.976 . S
O255 C250 1.287 . S
O256 Fe242 1.996 . S
O256 C250 1.255 . S
C257 O261 1.295 . S
C257 O262 1.235 1_545 S
O258 Fe243 1.977 . S
O258 C252 1.276 1_545 S
O259 Fe245 1.996 . S
O259 C252 1.255 . S
C260 O253 1.287 . S
C260 O254 1.255 . S
O261 Fe243 2.002 . S
O261 C257 1.295 . S
O262 Fe245 1.997 . S
O262 C257 1.235 1_565 S
C263 O246 1.295 . S
C263 O247 1.235 . S
Fe264 O266 1.918 . S
Fe264 O269 1.997 . S
Fe264 O270 2.002 . S
Fe264 O275 1.976 . S
Fe264 O278 1.996 . S
Fe265 O266 1.918 . S
Fe265 O273 1.997 . S
Fe265 O276 1.996 . S
Fe265 O280 1.976 . S
Fe265 O283 2.002 . S
O266 Fe264 1.918 . S
O266 Fe265 1.918 . S
O266 Fe267 1.918 . S
Fe267 O266 1.918 . S
Fe267 O268 2.002 . S
Fe267 O277 1.976 . S
Fe267 O281 1.996 . S
Fe267 O284 1.997 . S
O268 Fe267 2.002 . S
O268 C285 1.295 . S
O269 Fe264 1.997 . S
O269 C285 1.235 . S
O270 Fe264 2.002 . S
O270 C271 1.295 . S
C271 O270 1.295 . S
C271 O273 1.235 . S
C272 O277 1.287 . S
C272 O278 1.255 . S
O273 Fe265 1.997 . S
O273 C271 1.235 . S
C274 O280 1.287 . S
C274 O281 1.255 . S
O275 Fe264 1.976 . S
O275 C282 1.287 . S
O276 Fe265 1.996 . S
O276 C282 1.255 . S
O277 Fe267 1.976 . S
O277 C272 1.287 . S
O278 Fe264 1.996 . S
O278 C272 1.255 . S
C279 O283 1.295 . S
C279 O284 1.235 . S
O280 Fe265 1.976 . S
O280 C274 1.287 . S
O281 Fe267 1.996 . S
O281 C274 1.255 . S
C282 O275 1.287 . S
C282 O276 1.255 . S
O283 Fe265 2.002 . S
O283 C279 1.295 . S
O284 Fe267 1.997 . S
O284 C279 1.235 . S
C285 O268 1.295 . S
C285 O269 1.235 . S
Fe286 O288 1.918 1_545 S
Fe286 O291 1.997 . S
Fe286 O292 2.002 . S
Fe286 O297 1.977 . S
Fe286 O300 1.996 1_645 S
Fe287 O288 1.918 . S
Fe287 O295 1.997 . S
Fe287 O298 1.996 . S
Fe287 O302 1.976 . S
Fe287 O305 2.002 . S
O288 Fe286 1.918 1_565 S
O288 Fe287 1.918 . S
O288 Fe289 1.918 . S
Fe289 O288 1.918 . S
Fe289 O290 2.002 . S
Fe289 O299 1.976 1_655 S
Fe289 O303 1.996 . S
Fe289 O306 1.997 . S
O290 Fe289 2.002 . S
O290 C307 1.295 . S
O291 Fe286 1.997 . S
O291 C307 1.235 1_545 S
O292 Fe286 2.002 . S
O292 C293 1.295 . S
C293 O292 1.295 . S
C293 O295 1.235 1_545 S
C294 O299 1.287 . S
C294 O300 1.255 . S
O295 Fe287 1.997 . S
O295 C293 1.235 1_565 S
C296 O302 1.287 . S
C296 O303 1.255 . S
O297 Fe286 1.977 . S
O297 C304 1.276 1_545 S
O298 Fe287 1.996 . S
O298 C304 1.255 . S
O299 Fe289 1.976 1_455 S
O299 C294 1.287 . S
O300 Fe286 1.996 1_465 S
O300 C294 1.255 . S
C301 O305 1.295 . S
C301 O306 1.235 . S
O302 Fe287 1.976 . S
O302 C296 1.287 . S
O303 Fe289 1.996 . S
O303 C296 1.255 . S
C304 O297 1.276 1_565 S
C304 O298 1.255 . S
O305 Fe287 2.002 . S
O305 C301 1.295 . S
O306 Fe289 1.997 . S
O306 C301 1.235 . S
C307 O290 1.295 . S
C307 O291 1.235 1_565 S
Fe308 O310 1.918 . S
Fe308 O313 1.997 . S
Fe308 O314 2.002 . S
Fe308 O319 1.976 . S
Fe308 O322 1.996 . S
Fe309 O310 1.918 . S
Fe309 O317 1.997 . S
Fe309 O320 1.996 . S
Fe309 O324 1.976 . S
Fe309 O327 2.002 . S
O310 Fe308 1.918 . S
O310 Fe309 1.918 . S
O310 Fe311 1.918 . S
Fe311 O310 1.918 . S
Fe311 O312 2.002 . S
Fe311 O321 1.976 . S
Fe311 O325 1.996 . S
Fe311 O328 1.997 . S
O312 Fe311 2.002 . S
O312 C329 1.295 . S
O313 Fe308 1.997 . S
O313 C329 1.235 . S
O314 Fe308 2.002 . S
O314 C315 1.295 . S
C315 O314 1.295 . S
C315 O317 1.235 . S
C316 O321 1.287 . S
C316 O322 1.255 . S
O317 Fe309 1.997 . S
O317 C315 1.235 . S
C318 O324 1.287 . S
C318 O325 1.255 . S
O319 Fe308 1.976 . S
O319 C326 1.287 . S
O320 Fe309 1.996 . S
O320 C326 1.255 . S
O321 Fe311 1.976 . S
O321 C316 1.287 . S
O322 Fe308 1.996 . S
O322 C316 1.255 . S
C323 O327 1.295 . S
C323 O328 1.235 . S
O324 Fe309 1.976 . S
O324 C318 1.287 . S
O325 Fe311 1.996 . S
O325 C318 1.255 . S
C326 O319 1.287 . S
C326 O320 1.255 . S
O327 Fe309 2.002 . S
O327 C323 1.295 . S
O328 Fe311 1.997 . S
O328 C323 1.235 . S
C329 O312 1.295 . S
C329 O313 1.235 . S
Fe330 O332 1.918 . S
Fe330 O335 1.997 . S
Fe330 O336 2.002 . S
Fe330 O341 1.976 . S
Fe330 O344 1.996 . S
Fe331 O332 1.918 1_565 S
Fe331 O339 1.997 . S
Fe331 O342 1.996 1_565 S
Fe331 O346 1.977 . S
Fe331 O349 2.002 . S
O332 Fe330 1.918 . S
O332 Fe331 1.918 1_545 S
O332 Fe333 1.918 . S
Fe333 O332 1.918 . S
Fe333 O334 2.002 . S
Fe333 O343 1.976 . S
Fe333 O347 1.996 . S
Fe333 O350 1.997 . S
O334 Fe333 2.002 . S
O334 C351 1.295 . S
O335 Fe330 1.997 . S
O335 C351 1.235 . S
O336 Fe330 2.002 . S
O336 C337 1.295 . S
C337 O336 1.295 . S
C337 O339 1.235 1_545 S
C338 O343 1.287 . S
C338 O344 1.255 . S
O339 Fe331 1.997 . S
O339 C337 1.235 1_565 S
C340 O346 1.276 1_545 S
C340 O347 1.255 . S
O341 Fe330 1.976 . S
O341 C348 1.287 . S
O342 Fe331 1.996 1_545 S
O342 C348 1.255 . S
O343 Fe333 1.976 . S
O343 C338 1.287 . S
O344 Fe330 1.996 . S
O344 C338 1.255 . S
C345 O349 1.295 . S
C345 O350 1.235 1_565 S
O346 Fe331 1.977 . S
O346 C340 1.276 1_565 S
O347 Fe333 1.996 . S
O347 C340 1.255 . S
C348 O341 1.287 . S
C348 O342 1.255 . S
O349 Fe331 2.002 . S
O349 C345 1.295 . S
O350 Fe333 1.997 . S
O350 C345 1.235 1_545 S
C351 O334 1.295 . S
C351 O335 1.235 . S
C352 C353 1.363 . S
C352 C358 1.379 . S
C352 N360 1.356 . S
C353 C352 1.363 . S
C353 C359 1.363 . S
C354 C355 1.363 . S
C354 C359 1.379 . S
C354 N361 1.356 . S
C355 C354 1.363 . S
C355 C358 1.363 . S
N356 C358 1.356 . S
N356 H368 0.984 . S
N356 H369 0.985 . S
N357 C359 1.356 . S
N357 H362 0.984 . S
N357 H363 0.985 . S
C358 C352 1.379 . S
C358 C355 1.363 . S
C358 N356 1.356 . S
C359 C353 1.363 . S
C359 C354 1.379 . S
C359 N357 1.356 . S
N360 C352 1.356 . S
N360 H366 0.984 . S
N360 H367 0.984 . S
N361 C354 1.356 . S
N361 H364 0.984 . S
N361 H365 0.985 . S
H362 N357 0.984 . S
H363 N357 0.985 . S
H364 N361 0.984 . S
H365 N361 0.985 . S
H366 N360 0.984 . S
H367 N360 0.984 . S
H368 N356 0.984 . S
H369 N356 0.985 . S
C370 C371 1.363 . S
C370 C376 1.379 . S
C370 N378 1.356 . S
C371 C370 1.363 . S
C371 C377 1.363 . S
C372 C373 1.363 . S
C372 C377 1.379 . S
C372 N379 1.356 . S
C373 C372 1.363 . S
C373 C376 1.363 . S
N374 C376 1.356 . S
N374 H386 0.984 . S
N374 H387 0.985 . S
N375 C377 1.356 . S
N375 H380 0.984 . S
N375 H381 0.985 . S
C376 C370 1.379 . S
C376 C373 1.363 . S
C376 N374 1.356 . S
C377 C371 1.363 . S
C377 C372 1.379 . S
C377 N375 1.356 . S
N378 C370 1.356 . S
N378 H384 0.984 . S
N378 H385 0.984 . S
N379 C372 1.356 . S
N379 H382 0.984 . S
N379 H383 0.985 . S
H380 N375 0.984 . S
H381 N375 0.985 . S
H382 N379 0.984 . S
H383 N379 0.985 . S
H384 N378 0.984 . S
H385 N378 0.984 . S
H386 N374 0.984 . S
H387 N374 0.985 . S
C388 C389 1.363 . S
C388 C394 1.379 . S
C388 N396 1.356 . S
C389 C388 1.363 . S
C389 C395 1.363 . S
C390 C391 1.363 . S
C390 C395 1.379 . S
C390 N397 1.356 . S
C391 C390 1.363 . S
C391 C394 1.363 . S
N392 C394 1.356 . S
N392 H404 0.984 . S
N392 H405 0.985 . S
N393 C395 1.356 . S
N393 H398 0.984 . S
N393 H399 0.985 . S
C394 C388 1.379 . S
C394 C391 1.363 . S
C394 N392 1.356 . S
C395 C389 1.363 . S
C395 C390 1.379 . S
C395 N393 1.356 . S
N396 C388 1.356 . S
N396 H402 0.984 . S
N396 H403 0.984 . S
N397 C390 1.356 . S
N397 H400 0.984 . S
N397 H401 0.985 . S
H398 N393 0.984 . S
H399 N393 0.985 . S
H400 N397 0.984 . S
H401 N397 0.985 . S
H402 N396 0.984 . S
H403 N396 0.984 . S
H404 N392 0.984 . S
H405 N392 0.985 . S
C406 C407 1.363 . S
C406 C412 1.379 1_556 S
C406 N414 1.356 . S
C407 C406 1.363 . S
C407 C413 1.363 1_655 S
C408 C409 1.363 . S
C408 C413 1.379 1_554 S
C408 N415 1.356 . S
C409 C408 1.363 . S
C409 C412 1.363 1_455 S
N410 C412 1.356 . S
N410 H422 0.984 . S
N410 H423 0.972 1_655 S
N411 C413 1.356 . S
N411 H416 0.972 1_455 S
N411 H417 0.985 . S
C412 C406 1.379 1_554 S
C412 C409 1.363 1_655 S
C412 N410 1.356 . S
C413 C407 1.363 1_455 S
C413 C408 1.379 1_556 S
C413 N411 1.356 . S
N414 C406 1.356 . S
N414 H420 0.984 . S
N414 H421 0.984 . S
N415 C408 1.356 . S
N415 H418 0.984 . S
N415 H419 0.985 . S
H416 N411 0.972 1_655 S
H417 N411 0.985 . S
H418 N415 0.984 . S
H419 N415 0.985 . S
H420 N414 0.984 . S
H421 N414 0.984 . S
H422 N410 0.984 . S
H423 N410 0.972 1_455 S
C424 C425 1.363 . S
C424 C430 1.379 . S
C424 N432 1.356 . S
C425 C424 1.363 . S
C425 C431 1.363 . S
C426 C427 1.363 . S
C426 C431 1.379 . S
C426 N433 1.356 . S
C427 C426 1.363 . S
C427 C430 1.363 . S
N428 C430 1.356 . S
N428 H440 0.984 . S
N428 H441 0.985 . S
N429 C431 1.356 . S
N429 H434 0.984 . S
N429 H435 0.985 . S
C430 C424 1.379 . S
C430 C427 1.363 . S
C430 N428 1.356 . S
C431 C425 1.363 . S
C431 C426 1.379 . S
C431 N429 1.356 . S
N432 C424 1.356 . S
N432 H438 0.984 . S
N432 H439 0.984 . S
N433 C426 1.356 . S
N433 H436 0.984 . S
N433 H437 0.985 . S
H434 N429 0.984 . S
H435 N429 0.985 . S
H436 N433 0.984 . S
H437 N433 0.985 . S
H438 N432 0.984 . S
H439 N432 0.984 . S
H440 N428 0.984 . S
H441 N428 0.985 . S
C442 C443 1.363 . S
C442 C448 1.379 . S
C442 N450 1.356 . S
C443 C442 1.363 . S
C443 C449 1.363 . S
C444 C445 1.363 . S
C444 C449 1.379 . S
C444 N451 1.356 . S
C445 C444 1.363 . S
C445 C448 1.363 . S
N446 C448 1.356 . S
N446 H458 0.984 . S
N446 H459 0.985 . S
N447 C449 1.356 . S
N447 H452 0.984 . S
N447 H453 0.985 . S
C448 C442 1.379 . S
C448 C445 1.363 . S
C448 N446 1.356 . S
C449 C443 1.363 . S
C449 C444 1.379 . S
C449 N447 1.356 . S
N450 C442 1.356 . S
N450 H456 0.984 . S
N450 H457 0.984 . S
N451 C444 1.356 . S
N451 H454 0.984 . S
N451 H455 0.985 . S
H452 N447 0.984 . S
H453 N447 0.985 . S
H454 N451 0.984 . S
H455 N451 0.985 . S
H456 N450 0.984 . S
H457 N450 0.984 . S
H458 N446 0.984 . S
H459 N446 0.985 . S
C460 C461 1.363 . S
C460 C466 1.379 1_554 S
C460 N468 1.356 . S
C461 C460 1.363 . S
C461 C467 1.363 1_645 S
C462 C463 1.363 . S
C462 C467 1.379 1_556 S
C462 N469 1.356 . S
C463 C462 1.363 . S
C463 C466 1.363 1_465 S
N464 C466 1.356 . S
N464 H476 0.984 . S
N464 H477 0.985 . S
N465 C467 1.356 . S
N465 H470 0.984 . S
N465 H471 0.985 . S
C466 C460 1.379 1_556 S
C466 C463 1.363 1_645 S
C466 N464 1.356 . S
C467 C461 1.363 1_465 S
C467 C462 1.379 1_554 S
C467 N465 1.356 . S
N468 C460 1.356 . S
N468 H474 0.984 . S
N468 H475 0.984 . S
N469 C462 1.356 . S
N469 H472 0.984 . S
N469 H473 0.985 . S
H470 N465 0.984 . S
H471 N465 0.985 . S
H472 N469 0.984 . S
H473 N469 0.985 . S
H474 N468 0.984 . S
H475 N468 0.984 . S
H476 N464 0.984 . S
H477 N464 0.985 . S
C478 C479 1.363 1_565 S
C478 C484 1.379 . S
C478 N486 1.356 . S
C479 C478 1.363 1_545 S
C479 C485 1.363 . S
C480 C481 1.363 1_545 S
C480 C485 1.379 . S
C480 N487 1.356 . S
C481 C480 1.363 1_565 S
C481 C484 1.363 . S
N482 C484 1.356 . S
N482 H494 0.984 . S
N482 H495 0.985 . S
N483 C485 1.356 . S
N483 H488 0.984 . S
N483 H489 0.985 . S
C484 C478 1.379 . S
C484 C481 1.363 . S
C484 N482 1.356 . S
C485 C479 1.363 . S
C485 C480 1.379 . S
C485 N483 1.356 . S
N486 C478 1.356 . S
N486 H492 0.984 . S
N486 H493 0.984 . S
N487 C480 1.356 . S
N487 H490 0.984 . S
N487 H491 0.985 . S
H488 N483 0.984 . S
H489 N483 0.985 . S
H490 N487 0.984 . S
H491 N487 0.985 . S
H492 N486 0.984 . S
H493 N486 0.984 . S
H494 N482 0.984 . S
H495 N482 0.985 . S
C496 C497 1.363 . S
C496 C502 1.379 . S
C496 N504 1.356 . S
C497 C496 1.363 . S
C497 C503 1.363 . S
C498 C499 1.363 . S
C498 C503 1.379 1_554 S
C498 N505 1.356 . S
C499 C498 1.363 . S
C499 C502 1.363 1_554 S
N500 C502 1.356 . S
N500 H512 0.984 . S
N500 H513 0.985 1_556 S
N501 C503 1.356 . S
N501 H506 0.984 . S
N501 H507 0.985 . S
C502 C496 1.379 . S
C502 C499 1.363 1_556 S
C502 N500 1.356 . S
C503 C497 1.363 . S
C503 C498 1.379 1_556 S
C503 N501 1.356 . S
N504 C496 1.356 . S
N504 H510 0.984 . S
N504 H511 0.984 . S
N505 C498 1.356 . S
N505 H508 0.984 . S
N505 H509 0.985 . S
H506 N501 0.984 . S
H507 N501 0.985 . S
H508 N505 0.984 . S
H509 N505 0.985 . S
H510 N504 0.984 . S
H511 N504 0.984 . S
H512 N500 0.984 . S
H513 N500 0.985 1_554 S
C514 C515 1.363 . S
C514 C520 1.379 . S
C514 N522 1.356 . S
C515 C514 1.363 . S
C515 C521 1.363 . S
C516 C517 1.363 . S
C516 C521 1.379 . S
C516 N523 1.356 . S
C517 C516 1.363 . S
C517 C520 1.363 . S
N518 C520 1.356 . S
N518 H530 0.984 . S
N518 H531 0.985 . S
N519 C521 1.356 . S
N519 H524 0.984 . S
N519 H525 0.985 . S
C520 C514 1.379 . S
C520 C517 1.363 . S
C520 N518 1.356 . S
C521 C515 1.363 . S
C521 C516 1.379 . S
C521 N519 1.356 . S
N522 C514 1.356 . S
N522 H528 0.984 . S
N522 H529 0.984 . S
N523 C516 1.356 . S
N523 H526 0.984 . S
N523 H527 0.985 . S
H524 N519 0.984 . S
H525 N519 0.985 . S
H526 N523 0.984 . S
H527 N523 0.985 . S
H528 N522 0.984 . S
H529 N522 0.984 . S
H530 N518 0.984 . S
H531 N518 0.985 . S
C532 C533 1.363 . S
C532 C538 1.379 . S
C532 N540 1.356 . S
C533 C532 1.363 . S
C533 C539 1.363 . S
C534 C535 1.363 . S
C534 C539 1.379 . S
C534 N541 1.356 . S
C535 C534 1.363 . S
C535 C538 1.363 . S
N536 C538 1.356 . S
N536 H548 0.984 . S
N536 H549 0.985 . S
N537 C539 1.356 . S
N537 H542 0.984 . S
N537 H543 0.985 . S
C538 C532 1.379 . S
C538 C535 1.363 . S
C538 N536 1.356 . S
C539 C533 1.363 . S
C539 C534 1.379 . S
C539 N537 1.356 . S
N540 C532 1.356 . S
N540 H546 0.984 . S
N540 H547 0.984 . S
N541 C534 1.356 . S
N541 H544 0.984 . S
N541 H545 0.985 . S
H542 N537 0.984 . S
H543 N537 0.985 . S
H544 N541 0.984 . S
H545 N541 0.985 . S
H546 N540 0.984 . S
H547 N540 0.984 . S
H548 N536 0.984 . S
H549 N536 0.985 . S
C550 C551 1.363 . S
C550 C556 1.379 . S
C550 N558 1.356 . S
C551 C550 1.363 . S
C551 C557 1.363 . S
C552 C553 1.363 . S
C552 C557 1.379 . S
C552 N559 1.356 . S
C553 C552 1.363 . S
C553 C556 1.363 . S
N554 C556 1.356 . S
N554 H566 0.984 1_655 S
N554 H567 0.985 . S
N555 C557 1.356 . S
N555 H560 0.984 . S
N555 H561 0.985 . S
C556 C550 1.379 . S
C556 C553 1.363 . S
C556 N554 1.356 . S
C557 C551 1.363 . S
C557 C552 1.379 . S
C557 N555 1.356 . S
N558 C550 1.356 . S
N558 H564 0.984 1_655 S
N558 H565 0.984 . S
N559 C552 1.356 . S
N559 H562 0.984 . S
N559 H563 0.985 . S
H560 N555 0.984 . S
H561 N555 0.985 . S
H562 N559 0.984 . S
H563 N559 0.985 . S
H564 N558 0.984 1_455 S
H565 N558 0.984 . S
H566 N554 0.984 1_455 S
H567 N554 0.985 . S
C568 C569 1.363 . S
C568 C574 1.379 . S
C568 N576 1.356 . S
C569 C568 1.363 . S
C569 C575 1.363 . S
C570 C571 1.363 . S
C570 C575 1.379 1_556 S
C570 N577 1.356 . S
C571 C570 1.363 . S
C571 C574 1.363 1_556 S
N572 C574 1.356 . S
N572 H584 0.984 . S
N572 H585 0.985 1_554 S
N573 C575 1.356 . S
N573 H578 0.984 . S
N573 H579 0.985 . S
C574 C568 1.379 . S
C574 C571 1.363 1_554 S
C574 N572 1.356 . S
C575 C569 1.363 . S
C575 C570 1.379 1_554 S
C575 N573 1.356 . S
N576 C568 1.356 . S
N576 H582 0.984 . S
N576 H583 0.984 . S
N577 C570 1.356 . S
N577 H580 0.984 . S
N577 H581 0.985 . S
H578 N573 0.984 . S
H579 N573 0.985 . S
H580 N577 0.984 . S
H581 N577 0.985 . S
H582 N576 0.984 . S
H583 N576 0.984 . S
H584 N572 0.984 . S
H585 N572 0.985 1_556 S
C586 C587 1.363 . S
C586 C592 1.379 . S
C586 N594 1.356 . S
C587 C586 1.363 . S
C587 C593 1.363 . S
C588 C589 1.363 . S
C588 C593 1.379 . S
C588 N595 1.356 . S
C589 C588 1.363 . S
C589 C592 1.363 . S
N590 C592 1.356 . S
N590 H602 0.984 . S
N590 H603 0.985 . S
N591 C593 1.356 . S
N591 H596 0.984 . S
N591 H597 0.985 . S
C592 C586 1.379 . S
C592 C589 1.363 . S
C592 N590 1.356 . S
C593 C587 1.363 . S
C593 C588 1.379 . S
C593 N591 1.356 . S
N594 C586 1.356 . S
N594 H600 0.984 . S
N594 H601 0.984 . S
N595 C588 1.356 . S
N595 H598 0.984 . S
N595 H599 0.985 . S
H596 N591 0.984 . S
H597 N591 0.985 . S
H598 N595 0.984 . S
H599 N595 0.985 . S
H600 N594 0.984 . S
H601 N594 0.984 . S
H602 N590 0.984 . S
H603 N590 0.985 . S
C604 C605 1.363 . S
C604 C610 1.379 . S
C604 N612 1.356 . S
C605 C604 1.363 . S
C605 C611 1.363 . S
C606 C607 1.363 . S
C606 C611 1.379 . S
C606 N613 1.356 . S
C607 C606 1.363 . S
C607 C610 1.363 . S
N608 C610 1.356 . S
N608 H620 0.984 . S
N608 H621 0.985 . S
N609 C611 1.356 . S
N609 H614 0.984 . S
N609 H615 0.985 . S
C610 C604 1.379 . S
C610 C607 1.363 . S
C610 N608 1.356 . S
C611 C605 1.363 . S
C611 C606 1.379 . S
C611 N609 1.356 . S
N612 C604 1.356 . S
N612 H618 0.984 . S
N612 H619 0.984 . S
N613 C606 1.356 . S
N613 H616 0.984 . S
N613 H617 0.985 . S
H614 N609 0.984 . S
H615 N609 0.985 . S
H616 N613 0.984 . S
H617 N613 0.985 . S
H618 N612 0.984 . S
H619 N612 0.984 . S
H620 N608 0.984 . S
H621 N608 0.985 . S
C622 C623 1.363 . S
C622 C628 1.379 . S
C622 N630 1.356 . S
C623 C622 1.363 . S
C623 C629 1.363 . S
C624 C625 1.363 . S
C624 C629 1.379 . S
C624 N631 1.356 . S
C625 C624 1.363 . S
C625 C628 1.363 . S
N626 C628 1.356 . S
N626 H638 0.984 . S
N626 H639 0.985 . S
N627 C629 1.356 . S
N627 H632 0.984 . S
N627 H633 0.985 1_455 S
C628 C622 1.379 . S
C628 C625 1.363 . S
C628 N626 1.356 . S
C629 C623 1.363 . S
C629 C624 1.379 . S
C629 N627 1.356 . S
N630 C622 1.356 . S
N630 H636 0.984 . S
N630 H637 0.984 . S
N631 C624 1.356 . S
N631 H634 0.984 . S
N631 H635 0.985 1_455 S
H632 N627 0.984 . S
H633 N627 0.985 1_655 S
H634 N631 0.984 . S
H635 N631 0.985 1_655 S
H636 N630 0.984 . S
H637 N630 0.984 . S
H638 N626 0.984 . S
H639 N626 0.985 . S
C640 C641 1.363 . S
C640 C646 1.379 . S
C640 N648 1.356 . S
C641 C640 1.363 . S
C641 C647 1.363 . S
C642 C643 1.363 . S
C642 C647 1.379 . S
C642 N649 1.356 . S
C643 C642 1.363 . S
C643 C646 1.363 . S
N644 C646 1.356 . S
N644 H656 0.984 . S
N644 H657 0.985 . S
N645 C647 1.356 . S
N645 H650 0.984 . S
N645 H651 0.985 . S
C646 C640 1.379 . S
C646 C643 1.363 . S
C646 N644 1.356 . S
C647 C641 1.363 . S
C647 C642 1.379 . S
C647 N645 1.356 . S
N648 C640 1.356 . S
N648 H654 0.984 . S
N648 H655 0.984 . S
N649 C642 1.356 . S
N649 H652 0.984 . S
N649 H653 0.985 . S
H650 N645 0.984 . S
H651 N645 0.985 . S
H652 N649 0.984 . S
H653 N649 0.985 . S
H654 N648 0.984 . S
H655 N648 0.984 . S
H656 N644 0.984 . S
H657 N644 0.985 . S
C658 C659 1.363 1_545 S
C658 C664 1.379 1_545 S
C658 N666 1.356 . S
C659 C658 1.363 1_565 S
C659 C665 1.363 . S
C660 C661 1.363 . S
C660 C665 1.379 . S
C660 N667 1.356 . S
C661 C660 1.363 . S
C661 C664 1.363 . S
N662 C664 1.356 . S
N662 H674 0.984 1_565 S
N662 H675 0.985 . S
N663 C665 1.356 . S
N663 H668 0.984 . S
N663 H669 0.985 . S
C664 C658 1.379 1_565 S
C664 C661 1.363 . S
C664 N662 1.356 . S
C665 C659 1.363 . S
C665 C660 1.379 . S
C665 N663 1.356 . S
N666 C658 1.356 . S
N666 H672 0.984 . S
N666 H673 0.984 . S
N667 C660 1.356 . S
N667 H670 0.984 . S
N667 H671 0.985 . S
H668 N663 0.984 . S
H669 N663 0.985 . S
H670 N667 0.984 . S
H671 N667 0.985 . S
H672 N666 0.984 . S
H673 N666 0.984 . S
H674 N662 0.984 1_545 S
H675 N662 0.985 . S
C676 C677 1.363 . S
C676 C682 1.379 1_554 S
C676 N684 1.356 . S
C677 C676 1.363 . S
C677 C683 1.363 1_554 S
C678 C679 1.363 . S
C678 C683 1.379 . S
C678 N685 1.356 . S
C679 C678 1.363 . S
C679 C682 1.363 . S
N680 C682 1.356 . S
N680 H692 0.984 . S
N680 H693 0.985 . S
N681 C683 1.356 . S
N681 H686 0.984 1_556 S
N681 H687 0.985 . S
C682 C676 1.379 1_556 S
C682 C679 1.363 . S
C682 N680 1.356 . S
C683 C677 1.363 1_556 S
C683 C678 1.379 . S
C683 N681 1.356 . S
N684 C676 1.356 . S
N684 H690 0.984 . S
N684 H691 0.984 . S
N685 C678 1.356 . S
N685 H688 0.984 . S
N685 H689 0.985 . S
H686 N681 0.984 1_554 S
H687 N681 0.985 . S
H688 N685 0.984 . S
H689 N685 0.985 . S
H690 N684 0.984 . S
H691 N684 0.984 . S
H692 N680 0.984 . S
H693 N680 0.985 . S
C694 C695 1.363 . S
C694 C700 1.379 . S
C694 N702 1.356 . S
C695 C694 1.363 . S
C695 C701 1.363 . S
C696 C697 1.363 1_565 S
C696 C701 1.379 1_565 S
C696 N703 1.356 . S
C697 C696 1.363 1_545 S
C697 C700 1.363 . S
N698 C700 1.356 . S
N698 H710 0.984 . S
N698 H711 0.985 . S
N699 C701 1.356 . S
N699 H704 0.984 . S
N699 H705 0.985 . S
C700 C694 1.379 . S
C700 C697 1.363 . S
C700 N698 1.356 . S
C701 C695 1.363 . S
C701 C696 1.379 1_545 S
C701 N699 1.356 . S
N702 C694 1.356 . S
N702 H708 0.984 . S
N702 H709 0.984 . S
N703 C696 1.356 . S
N703 H706 0.984 . S
N703 H707 0.985 . S
H704 N699 0.984 . S
H705 N699 0.985 . S
H706 N703 0.984 . S
H707 N703 0.985 . S
H708 N702 0.984 . S
H709 N702 0.984 . S
H710 N698 0.984 . S
H711 N698 0.985 . S
C712 C713 1.363 . S
C712 C718 1.379 . S
C712 N720 1.356 . S
C713 C712 1.363 . S
C713 C719 1.363 . S
C714 C715 1.363 . S
C714 C719 1.379 . S
C714 N721 1.356 . S
C715 C714 1.363 . S
C715 C718 1.363 . S
N716 C718 1.356 . S
N716 H728 0.984 . S
N716 H729 0.985 . S
N717 C719 1.356 . S
N717 H722 0.984 . S
N717 H723 0.985 . S
C718 C712 1.379 . S
C718 C715 1.363 . S
C718 N716 1.356 . S
C719 C713 1.363 . S
C719 C714 1.379 . S
C719 N717 1.356 . S
N720 C712 1.356 . S
N720 H726 0.984 . S
N720 H727 0.984 . S
N721 C714 1.356 . S
N721 H724 0.984 . S
N721 H725 0.985 . S
H722 N717 0.984 . S
H723 N717 0.985 . S
H724 N721 0.984 . S
H725 N721 0.985 . S
H726 N720 0.984 . S
H727 N720 0.984 . S
H728 N716 0.984 . S
H729 N716 0.985 . S
C730 C731 1.363 . S
C730 C736 1.379 . S
C730 N738 1.356 . S
C731 C730 1.363 . S
C731 C737 1.363 1_545 S
C732 C733 1.363 . S
C732 C737 1.379 1_545 S
C732 N739 1.356 . S
C733 C732 1.363 . S
C733 C736 1.363 . S
N734 C736 1.356 . S
N734 H746 0.984 . S
N734 H747 0.985 . S
N735 C737 1.356 . S
N735 H740 0.984 . S
N735 H741 0.985 . S
C736 C730 1.379 . S
C736 C733 1.363 . S
C736 N734 1.356 . S
C737 C731 1.363 1_565 S
C737 C732 1.379 1_565 S
C737 N735 1.356 . S
N738 C730 1.356 . S
N738 H744 0.984 . S
N738 H745 0.984 . S
N739 C732 1.356 . S
N739 H742 0.984 . S
N739 H743 0.985 . S
H740 N735 0.984 . S
H741 N735 0.985 . S
H742 N739 0.984 . S
H743 N739 0.985 . S
H744 N738 0.984 . S
H745 N738 0.984 . S
H746 N734 0.984 . S
H747 N734 0.985 . S
C748 C749 1.363 . S
C748 C754 1.379 . S
C748 N756 1.356 . S
C749 C748 1.363 . S
C749 C755 1.363 . S
C750 C751 1.363 . S
C750 C755 1.379 1_556 S
C750 N757 1.356 . S
C751 C750 1.363 . S
C751 C754 1.363 1_556 S
N752 C754 1.356 . S
N752 H764 0.984 . S
N752 H765 0.985 1_554 S
N753 C755 1.356 . S
N753 H758 0.984 . S
N753 H759 0.985 . S
C754 C748 1.379 . S
C754 C751 1.363 1_554 S
C754 N752 1.356 . S
C755 C749 1.363 . S
C755 C750 1.379 1_554 S
C755 N753 1.356 . S
N756 C748 1.356 . S
N756 H762 0.984 . S
N756 H763 0.984 . S
N757 C750 1.356 . S
N757 H760 0.984 . S
N757 H761 0.985 . S
H758 N753 0.984 . S
H759 N753 0.985 . S
H760 N757 0.984 . S
H761 N757 0.985 . S
H762 N756 0.984 . S
H763 N756 0.984 . S
H764 N752 0.984 . S
H765 N752 0.985 1_556 S
C766 C767 1.363 1_545 S
C766 C772 1.379 1_545 S
C766 N774 1.356 . S
C767 C766 1.363 1_565 S
C767 C773 1.363 . S
C768 C769 1.363 . S
C768 C773 1.379 . S
C768 N775 1.356 . S
C769 C768 1.363 . S
C769 C772 1.363 . S
N770 C772 1.356 . S
N770 H782 0.984 1_565 S
N770 H783 0.985 . S
N771 C773 1.356 . S
N771 H776 0.984 . S
N771 H777 0.985 . S
C772 C766 1.379 1_565 S
C772 C769 1.363 . S
C772 N770 1.356 . S
C773 C767 1.363 . S
C773 C768 1.379 . S
C773 N771 1.356 . S
N774 C766 1.356 . S
N774 H780 0.984 . S
N774 H781 0.984 . S
N775 C768 1.356 . S
N775 H778 0.984 . S
N775 H779 0.985 . S
H776 N771 0.984 . S
H777 N771 0.985 . S
H778 N775 0.984 . S
H779 N775 0.985 . S
H780 N774 0.984 . S
H781 N774 0.984 . S
H782 N770 0.984 1_545 S
H783 N770 0.985 . S
C784 C785 1.363 . S
C784 C790 1.379 . S
C784 N792 1.356 . S
C785 C784 1.363 . S
C785 C791 1.363 . S
C786 C787 1.363 . S
C786 C791 1.379 . S
C786 N793 1.356 . S
C787 C786 1.363 . S
C787 C790 1.363 . S
N788 C790 1.356 . S
N788 H800 0.984 . S
N788 H801 0.985 . S
N789 C791 1.356 . S
N789 H794 0.984 . S
N789 H795 0.985 . S
C790 C784 1.379 . S
C790 C787 1.363 . S
C790 N788 1.356 . S
C791 C785 1.363 . S
C791 C786 1.379 . S
C791 N789 1.356 . S
N792 C784 1.356 . S
N792 H798 0.984 . S
N792 H799 0.984 . S
N793 C786 1.356 . S
N793 H796 0.984 . S
N793 H797 0.985 . S
H794 N789 0.984 . S
H795 N789 0.985 . S
H796 N793 0.984 . S
H797 N793 0.985 . S
H798 N792 0.984 . S
H799 N792 0.984 . S
H800 N788 0.984 . S
H801 N788 0.985 . S
C802 C803 1.363 . S
C802 C808 1.379 . S
C802 N810 1.356 . S
C803 C802 1.363 . S
C803 C809 1.363 . S
C804 C805 1.363 . S
C804 C809 1.379 . S
C804 N811 1.356 . S
C805 C804 1.363 . S
C805 C808 1.363 . S
N806 C808 1.356 . S
N806 H818 0.984 . S
N806 H819 0.985 . S
N807 C809 1.356 . S
N807 H812 0.984 . S
N807 H813 0.985 . S
C808 C802 1.379 . S
C808 C805 1.363 . S
C808 N806 1.356 . S
C809 C803 1.363 . S
C809 C804 1.379 . S
C809 N807 1.356 . S
N810 C802 1.356 . S
N810 H816 0.984 . S
N810 H817 0.984 . S
N811 C804 1.356 . S
N811 H814 0.984 . S
N811 H815 0.985 . S
H812 N807 0.984 . S
H813 N807 0.985 . S
H814 N811 0.984 . S
H815 N811 0.985 . S
H816 N810 0.984 . S
H817 N810 0.984 . S
H818 N806 0.984 . S
H819 N806 0.985 . S
C820 C821 1.363 . S
C820 C826 1.379 . S
C820 N828 1.356 . S
C821 C820 1.363 . S
C821 C827 1.363 1_655 S
C822 C823 1.363 . S
C822 C827 1.379 . S
C822 N829 1.356 . S
C823 C822 1.363 . S
C823 C826 1.363 1_455 S
N824 C826 1.355 1_455 S
N824 H836 0.976 1_455 S
N824 H837 0.994 . S
N825 C827 1.355 1_655 S
N825 H830 0.994 . S
N825 H831 0.976 1_655 S
C826 C820 1.379 . S
C826 C823 1.363 1_655 S
C826 N824 1.355 1_655 S
C827 C821 1.363 1_455 S
C827 C822 1.379 . S
C827 N825 1.355 1_455 S
N828 C820 1.356 . S
N828 H834 0.984 . S
N828 H835 0.984 . S
N829 C822 1.356 . S
N829 H832 0.984 . S
N829 H833 0.985 . S
H830 N825 0.994 . S
H831 N825 0.976 1_455 S
H832 N829 0.984 . S
H833 N829 0.985 . S
H834 N828 0.984 . S
H835 N828 0.984 . S
H836 N824 0.976 1_655 S
H837 N824 0.994 . S
C838 C839 1.363 . S
C838 C844 1.379 1_655 S
C838 N846 1.356 . S
C839 C838 1.363 . S
C839 C845 1.363 . S
C840 C841 1.363 . S
C840 C845 1.379 1_455 S
C840 N847 1.356 . S
C841 C840 1.363 . S
C841 C844 1.363 . S
N842 C844 1.356 . S
N842 H854 0.984 . S
N842 H855 0.985 . S
N843 C845 1.356 . S
N843 H848 0.984 . S
N843 H849 0.985 . S
C844 C838 1.379 1_455 S
C844 C841 1.363 . S
C844 N842 1.356 . S
C845 C839 1.363 . S
C845 C840 1.379 1_655 S
C845 N843 1.356 . S
N846 C838 1.356 . S
N846 H852 0.984 . S
N846 H853 0.984 . S
N847 C840 1.356 . S
N847 H850 0.984 . S
N847 H851 0.985 . S
H848 N843 0.984 . S
H849 N843 0.985 . S
H850 N847 0.984 . S
H851 N847 0.985 . S
H852 N846 0.984 . S
H853 N846 0.984 . S
H854 N842 0.984 . S
H855 N842 0.985 . S
C856 C857 1.363 . S
C856 C862 1.379 . S
C856 N864 1.356 . S
C857 C856 1.363 . S
C857 C863 1.363 . S
C858 C859 1.363 . S
C858 C863 1.379 . S
C858 N865 1.356 . S
C859 C858 1.363 . S
C859 C862 1.363 . S
N860 C862 1.356 . S
N860 H872 0.984 . S
N860 H873 0.985 . S
N861 C863 1.356 . S
N861 H866 0.984 . S
N861 H867 0.985 . S
C862 C856 1.379 . S
C862 C859 1.363 . S
C862 N860 1.356 . S
C863 C857 1.363 . S
C863 C858 1.379 . S
C863 N861 1.356 . S
N864 C856 1.356 . S
N864 H870 0.984 . S
N864 H871 0.984 . S
N865 C858 1.356 . S
N865 H868 0.984 . S
N865 H869 0.985 . S
H866 N861 0.984 . S
H867 N861 0.985 . S
H868 N865 0.984 . S
H869 N865 0.985 . S
H870 N864 0.984 . S
H871 N864 0.984 . S
H872 N860 0.984 . S
H873 N860 0.985 . S
C874 C875 1.363 . S
C874 C880 1.379 . S
C874 N882 1.356 . S
C875 C874 1.363 . S
C875 C881 1.363 . S
C876 C877 1.363 . S
C876 C881 1.379 . S
C876 N883 1.356 . S
C877 C876 1.363 . S
C877 C880 1.363 . S
N878 C880 1.356 . S
N878 H890 0.984 . S
N878 H891 0.985 . S
N879 C881 1.356 . S
N879 H884 0.984 . S
N879 H885 0.985 . S
C880 C874 1.379 . S
C880 C877 1.363 . S
C880 N878 1.356 . S
C881 C875 1.363 . S
C881 C876 1.379 . S
C881 N879 1.356 . S
N882 C874 1.356 . S
N882 H888 0.984 . S
N882 H889 0.984 . S
N883 C876 1.356 . S
N883 H886 0.984 . S
N883 H887 0.985 . S
H884 N879 0.984 . S
H885 N879 0.985 . S
H886 N883 0.984 . S
H887 N883 0.985 . S
H888 N882 0.984 . S
H889 N882 0.984 . S
H890 N878 0.984 . S
H891 N878 0.985 . S
C892 C893 1.363 . S
C892 C898 1.379 . S
C892 N900 1.356 . S
C893 C892 1.363 . S
C893 C899 1.363 1_455 S
C894 C895 1.363 . S
C894 C899 1.379 . S
C894 N901 1.356 . S
C895 C894 1.363 . S
C895 C898 1.363 1_655 S
N896 C898 1.355 1_655 S
N896 H908 0.976 1_655 S
N896 H909 0.994 . S
N897 C899 1.355 1_455 S
N897 H902 0.994 . S
N897 H903 0.976 1_455 S
C898 C892 1.379 . S
C898 C895 1.363 1_455 S
C898 N896 1.355 1_455 S
C899 C893 1.363 1_655 S
C899 C894 1.379 . S
C899 N897 1.355 1_655 S
N900 C892 1.356 . S
N900 H906 0.984 . S
N900 H907 0.984 . S
N901 C894 1.356 . S
N901 H904 0.984 . S
N901 H905 0.985 . S
H902 N897 0.994 . S
H903 N897 0.976 1_655 S
H904 N901 0.984 . S
H905 N901 0.985 . S
H906 N900 0.984 . S
H907 N900 0.984 . S
H908 N896 0.976 1_455 S
H909 N896 0.994 . S
C910 C911 1.363 . S
C910 C916 1.379 1_455 S
C910 N918 1.356 . S
C911 C910 1.363 . S
C911 C917 1.363 . S
C912 C913 1.363 . S
C912 C917 1.379 1_655 S
C912 N919 1.356 . S
C913 C912 1.363 . S
C913 C916 1.363 . S
N914 C916 1.356 . S
N914 H926 0.984 . S
N914 H927 0.985 . S
N915 C917 1.356 . S
N915 H920 0.984 . S
N915 H921 0.985 . S
C916 C910 1.379 1_655 S
C916 C913 1.363 . S
C916 N914 1.356 . S
C917 C911 1.363 . S
C917 C912 1.379 1_455 S
C917 N915 1.356 . S
N918 C910 1.356 . S
N918 H924 0.984 . S
N918 H925 0.984 . S
N919 C912 1.356 . S
N919 H922 0.984 . S
N919 H923 0.985 . S
H920 N915 0.984 . S
H921 N915 0.985 . S
H922 N919 0.984 . S
H923 N919 0.985 . S
H924 N918 0.984 . S
H925 N918 0.984 . S
H926 N914 0.984 . S
H927 N914 0.985 . S
C928 C929 1.363 . S
C928 C934 1.379 . S
C928 N936 1.356 . S
C929 C928 1.363 . S
C929 C935 1.363 . S
C930 C931 1.363 . S
C930 C935 1.379 . S
C930 N937 1.356 . S
C931 C930 1.363 . S
C931 C934 1.363 . S
N932 C934 1.356 . S
N932 H944 0.984 . S
N932 H945 0.985 . S
N933 C935 1.356 . S
N933 H938 0.984 . S
N933 H939 0.985 . S
C934 C928 1.379 . S
C934 C931 1.363 . S
C934 N932 1.356 . S
C935 C929 1.363 . S
C935 C930 1.379 . S
C935 N933 1.356 . S
N936 C928 1.356 . S
N936 H942 0.984 . S
N936 H943 0.984 . S
N937 C930 1.356 . S
N937 H940 0.984 . S
N937 H941 0.985 . S
H938 N933 0.984 . S
H939 N933 0.985 . S
H940 N937 0.984 . S
H941 N937 0.985 . S
H942 N936 0.984 . S
H943 N936 0.984 . S
H944 N932 0.984 . S
H945 N932 0.985 . S
C946 C947 1.363 . S
C946 C952 1.379 . S
C946 N954 1.356 . S
C947 C946 1.363 . S
C947 C953 1.363 . S
C948 C949 1.363 . S
C948 C953 1.379 . S
C948 N955 1.356 . S
C949 C948 1.363 . S
C949 C952 1.363 . S
N950 C952 1.356 . S
N950 H962 0.984 . S
N950 H963 0.985 . S
N951 C953 1.356 . S
N951 H956 0.984 . S
N951 H957 0.985 . S
C952 C946 1.379 . S
C952 C949 1.363 . S
C952 N950 1.356 . S
C953 C947 1.363 . S
C953 C948 1.379 . S
C953 N951 1.356 . S
N954 C946 1.356 . S
N954 H960 0.984 . S
N954 H961 0.984 . S
N955 C948 1.356 . S
N955 H958 0.984 . S
N955 H959 0.985 . S
H956 N951 0.984 . S
H957 N951 0.985 . S
H958 N955 0.984 . S
H959 N955 0.985 . S
H960 N954 0.984 . S
H961 N954 0.984 . S
H962 N950 0.984 . S
H963 N950 0.985 . S
C964 C965 1.363 . S
C964 C970 1.379 . S
C964 N972 1.356 . S
C965 C964 1.363 . S
C965 C971 1.363 . S
C966 C967 1.363 . S
C966 C971 1.379 . S
C966 N973 1.356 . S
C967 C966 1.363 . S
C967 C970 1.363 . S
N968 C970 1.356 . S
N968 H980 0.984 . S
N968 H981 0.985 . S
N969 C971 1.356 . S
N969 H974 0.984 . S
N969 H975 0.985 . S
C970 C964 1.379 . S
C970 C967 1.363 . S
C970 N968 1.356 . S
C971 C965 1.363 . S
C971 C966 1.379 . S
C971 N969 1.356 . S
N972 C964 1.356 . S
N972 H978 0.984 . S
N972 H979 0.984 . S
N973 C966 1.356 . S
N973 H976 0.984 . S
N973 H977 0.985 . S
H974 N969 0.984 . S
H975 N969 0.985 . S
H976 N973 0.984 . S
H977 N973 0.985 . S
H978 N972 0.984 . S
H979 N972 0.984 . S
H980 N968 0.984 . S
H981 N968 0.985 . S
C982 C983 1.363 . S
C982 C988 1.379 . S
C982 N990 1.356 . S
C983 C982 1.363 . S
C983 C989 1.363 . S
C984 C985 1.363 . S
C984 C989 1.379 . S
C984 N991 1.356 . S
C985 C984 1.363 . S
C985 C988 1.363 . S
N986 C988 1.356 . S
N986 H998 0.984 . S
N986 H999 0.985 . S
N987 C989 1.356 . S
N987 H992 0.984 . S
N987 H993 0.985 . S
C988 C982 1.379 . S
C988 C985 1.363 . S
C988 N986 1.356 . S
C989 C983 1.363 . S
C989 C984 1.379 . S
C989 N987 1.356 . S
N990 C982 1.356 . S
N990 H996 0.984 . S
N990 H997 0.984 . S
N991 C984 1.356 . S
N991 H994 0.984 . S
N991 H995 0.985 . S
H992 N987 0.984 . S
H993 N987 0.985 . S
H994 N991 0.984 . S
H995 N991 0.985 . S
H996 N990 0.984 . S
H997 N990 0.984 . S
H998 N986 0.984 . S
H999 N986 0.985 . S
C1000 C1001 1.363 . S
C1000 C1006 1.379 . S
C1000 N1008 1.356 . S
C1001 C1000 1.363 . S
C1001 C1007 1.363 . S
C1002 C1003 1.363 . S
C1002 C1007 1.379 . S
C1002 N1009 1.356 . S
C1003 C1002 1.363 . S
C1003 C1006 1.363 . S
N1004 C1006 1.356 . S
N1004 H1016 0.984 . S
N1004 H1017 0.985 . S
N1005 C1007 1.356 . S
N1005 H1010 0.984 . S
N1005 H1011 0.985 . S
C1006 C1000 1.379 . S
C1006 C1003 1.363 . S
C1006 N1004 1.356 . S
C1007 C1001 1.363 . S
C1007 C1002 1.379 . S
C1007 N1005 1.356 . S
N1008 C1000 1.356 . S
N1008 H1014 0.984 . S
N1008 H1015 0.984 . S
N1009 C1002 1.356 . S
N1009 H1012 0.984 . S
N1009 H1013 0.985 . S
H1010 N1005 0.984 . S
H1011 N1005 0.985 . S
H1012 N1009 0.984 . S
H1013 N1009 0.985 . S
H1014 N1008 0.984 . S
H1015 N1008 0.984 . S
H1016 N1004 0.984 . S
H1017 N1004 0.985 . S
C1018 C1019 1.363 . S
C1018 C1024 1.379 . S
C1018 N1026 1.356 . S
C1019 C1018 1.363 . S
C1019 C1025 1.363 . S
C1020 C1021 1.363 . S
C1020 C1025 1.379 . S
C1020 N1027 1.356 . S
C1021 C1020 1.363 . S
C1021 C1024 1.363 . S
N1022 C1024 1.356 . S
N1022 H1034 0.984 . S
N1022 H1035 0.985 . S
N1023 C1025 1.356 . S
N1023 H1028 0.984 . S
N1023 H1029 0.985 . S
C1024 C1018 1.379 . S
C1024 C1021 1.363 . S
C1024 N1022 1.356 . S
C1025 C1019 1.363 . S
C1025 C1020 1.379 . S
C1025 N1023 1.356 . S
N1026 C1018 1.356 . S
N1026 H1032 0.984 . S
N1026 H1033 0.984 . S
N1027 C1020 1.356 . S
N1027 H1030 0.984 . S
N1027 H1031 0.985 . S
H1028 N1023 0.984 . S
H1029 N1023 0.985 . S
H1030 N1027 0.984 . S
H1031 N1027 0.985 . S
H1032 N1026 0.984 . S
H1033 N1026 0.984 . S
H1034 N1022 0.984 . S
H1035 N1022 0.985 . S
C1036 C1037 1.363 . S
C1036 C1042 1.379 . S
C1036 N1044 1.356 . S
C1037 C1036 1.363 . S
C1037 C1043 1.363 . S
C1038 C1039 1.363 . S
C1038 C1043 1.379 . S
C1038 N1045 1.356 . S
C1039 C1038 1.363 . S
C1039 C1042 1.363 . S
N1040 C1042 1.356 . S
N1040 H1052 0.984 . S
N1040 H1053 0.985 . S
N1041 C1043 1.356 . S
N1041 H1046 0.984 . S
N1041 H1047 0.985 . S
C1042 C1036 1.379 . S
C1042 C1039 1.363 . S
C1042 N1040 1.356 . S
C1043 C1037 1.363 . S
C1043 C1038 1.379 . S
C1043 N1041 1.356 . S
N1044 C1036 1.356 . S
N1044 H1050 0.984 . S
N1044 H1051 0.984 . S
N1045 C1038 1.356 . S
N1045 H1048 0.984 . S
N1045 H1049 0.985 . S
H1046 N1041 0.984 . S
H1047 N1041 0.985 . S
H1048 N1045 0.984 . S
H1049 N1045 0.985 . S
H1050 N1044 0.984 . S
H1051 N1044 0.984 . S
H1052 N1040 0.984 . S
H1053 N1040 0.985 . S
C1054 C1055 1.363 . S
C1054 C1060 1.379 . S
C1054 N1062 1.356 . S
C1055 C1054 1.363 . S
C1055 C1061 1.363 . S
C1056 C1057 1.363 . S
C1056 C1061 1.379 . S
C1056 N1063 1.356 . S
C1057 C1056 1.363 . S
C1057 C1060 1.363 . S
N1058 C1060 1.356 . S
N1058 H1070 0.984 . S
N1058 H1071 0.985 . S
N1059 C1061 1.356 . S
N1059 H1064 0.984 . S
N1059 H1065 0.985 . S
C1060 C1054 1.379 . S
C1060 C1057 1.363 . S
C1060 N1058 1.356 . S
C1061 C1055 1.363 . S
C1061 C1056 1.379 . S
C1061 N1059 1.356 . S
N1062 C1054 1.356 . S
N1062 H1068 0.984 . S
N1062 H1069 0.984 . S
N1063 C1056 1.356 . S
N1063 H1066 0.984 . S
N1063 H1067 0.985 . S
H1064 N1059 0.984 . S
H1065 N1059 0.985 . S
H1066 N1063 0.984 . S
H1067 N1063 0.985 . S
H1068 N1062 0.984 . S
H1069 N1062 0.984 . S
H1070 N1058 0.984 . S
H1071 N1058 0.985 . S
C1072 C1073 1.363 . S
C1072 C1078 1.379 . S
C1072 N1080 1.356 . S
C1073 C1072 1.363 . S
C1073 C1079 1.363 . S
C1074 C1075 1.363 . S
C1074 C1079 1.379 . S
C1074 N1081 1.356 . S
C1075 C1074 1.363 . S
C1075 C1078 1.363 . S
N1076 C1078 1.356 . S
N1076 H1088 0.984 1_565 S
N1076 H1089 0.985 1_565 S
N1077 C1079 1.356 . S
N1077 H1082 0.984 . S
N1077 H1083 0.985 . S
C1078 C1072 1.379 . S
C1078 C1075 1.363 . S
C1078 N1076 1.356 . S
C1079 C1073 1.363 . S
C1079 C1074 1.379 . S
C1079 N1077 1.356 . S
N1080 C1072 1.356 . S
N1080 H1086 0.984 . S
N1080 H1087 0.984 . S
N1081 C1074 1.356 . S
N1081 H1084 0.984 . S
N1081 H1085 0.985 . S
H1082 N1077 0.984 . S
H1083 N1077 0.985 . S
H1084 N1081 0.984 . S
H1085 N1081 0.985 . S
H1086 N1080 0.984 . S
H1087 N1080 0.984 . S
H1088 N1076 0.984 1_545 S
H1089 N1076 0.985 1_545 S
C1090 C1091 1.363 1_545 S
C1090 C1096 1.379 . S
C1090 N1098 1.356 . S
C1091 C1090 1.363 1_565 S
C1091 C1097 1.363 . S
C1092 C1093 1.363 1_565 S
C1092 C1097 1.379 . S
C1092 N1099 1.356 . S
C1093 C1092 1.363 1_545 S
C1093 C1096 1.363 . S
N1094 C1096 1.356 . S
N1094 H1106 0.984 . S
N1094 H1107 0.985 . S
N1095 C1097 1.356 . S
N1095 H1100 0.984 . S
N1095 H1101 0.985 . S
C1096 C1090 1.379 . S
C1096 C1093 1.363 . S
C1096 N1094 1.356 . S
C1097 C1091 1.363 . S
C1097 C1092 1.379 . S
C1097 N1095 1.356 . S
N1098 C1090 1.356 . S
N1098 H1104 0.984 . S
N1098 H1105 0.984 1_545 S
N1099 C1092 1.356 . S
N1099 H1102 0.984 1_565 S
N1099 H1103 0.985 . S
H1100 N1095 0.984 . S
H1101 N1095 0.985 . S
H1102 N1099 0.984 1_545 S
H1103 N1099 0.985 . S
H1104 N1098 0.984 . S
H1105 N1098 0.984 1_565 S
H1106 N1094 0.984 . S
H1107 N1094 0.985 . S
C1108 C1109 1.363 . S
C1108 C1114 1.379 . S
C1108 N1116 1.356 . S
C1109 C1108 1.363 . S
C1109 C1115 1.363 . S
C1110 C1111 1.363 . S
C1110 C1115 1.379 . S
C1110 N1117 1.356 . S
C1111 C1110 1.363 . S
C1111 C1114 1.363 . S
N1112 C1114 1.356 . S
N1112 H1124 0.984 . S
N1112 H1125 0.985 . S
N1113 C1115 1.356 . S
N1113 H1118 0.984 . S
N1113 H1119 0.985 . S
C1114 C1108 1.379 . S
C1114 C1111 1.363 . S
C1114 N1112 1.356 . S
C1115 C1109 1.363 . S
C1115 C1110 1.379 . S
C1115 N1113 1.356 . S
N1116 C1108 1.356 . S
N1116 H1122 0.984 . S
N1116 H1123 0.984 . S
N1117 C1110 1.356 . S
N1117 H1120 0.984 . S
N1117 H1121 0.985 . S
H1118 N1113 0.984 . S
H1119 N1113 0.985 . S
H1120 N1117 0.984 . S
H1121 N1117 0.985 . S
H1122 N1116 0.984 . S
H1123 N1116 0.984 . S
H1124 N1112 0.984 . S
H1125 N1112 0.985 . S
C1126 C1127 1.363 . S
C1126 C1132 1.379 . S
C1126 N1134 1.356 . S
C1127 C1126 1.363 . S
C1127 C1133 1.363 1_565 S
C1128 C1129 1.363 . S
C1128 C1133 1.379 . S
C1128 N1135 1.356 . S
C1129 C1128 1.363 . S
C1129 C1132 1.363 1_545 S
N1130 C1132 1.356 . S
N1130 H1142 0.984 . S
N1130 H1143 0.985 1_565 S
N1131 C1133 1.356 . S
N1131 H1136 0.984 1_545 S
N1131 H1137 0.985 . S
C1132 C1126 1.379 . S
C1132 C1129 1.363 1_565 S
C1132 N1130 1.356 . S
C1133 C1127 1.363 1_545 S
C1133 C1128 1.379 . S
C1133 N1131 1.356 . S
N1134 C1126 1.356 . S
N1134 H1140 0.984 . S
N1134 H1141 0.984 . S
N1135 C1128 1.356 . S
N1135 H1138 0.984 . S
N1135 H1139 0.985 . S
H1136 N1131 0.984 1_565 S
H1137 N1131 0.985 . S
H1138 N1135 0.984 . S
H1139 N1135 0.985 . S
H1140 N1134 0.984 . S
H1141 N1134 0.984 . S
H1142 N1130 0.984 . S
H1143 N1130 0.985 1_545 S
C1144 C1145 1.363 . S
C1144 C1150 1.379 . S
C1144 N1152 1.356 . S
C1145 C1144 1.363 . S
C1145 C1151 1.363 . S
C1146 C1147 1.363 . S
C1146 C1151 1.379 . S
C1146 N1153 1.356 . S
C1147 C1146 1.363 . S
C1147 C1150 1.363 . S
N1148 C1150 1.356 . S
N1148 H1160 0.984 . S
N1148 H1161 0.985 . S
N1149 C1151 1.356 . S
N1149 H1154 0.984 . S
N1149 H1155 0.985 . S
C1150 C1144 1.379 . S
C1150 C1147 1.363 . S
C1150 N1148 1.356 . S
C1151 C1145 1.363 . S
C1151 C1146 1.379 . S
C1151 N1149 1.356 . S
N1152 C1144 1.356 . S
N1152 H1158 0.984 . S
N1152 H1159 0.984 . S
N1153 C1146 1.356 . S
N1153 H1156 0.984 . S
N1153 H1157 0.985 . S
H1154 N1149 0.984 . S
H1155 N1149 0.985 . S
H1156 N1153 0.984 . S
H1157 N1153 0.985 . S
H1158 N1152 0.984 . S
H1159 N1152 0.984 . S
H1160 N1148 0.984 . S
H1161 N1148 0.985 . S
C1162 C1163 1.363 . S
C1162 C1168 1.379 1_565 S
C1162 N1170 1.356 . S
C1163 C1162 1.363 . S
C1163 C1169 1.363 1_565 S
C1164 C1165 1.363 . S
C1164 C1169 1.379 . S
C1164 N1171 1.356 . S
C1165 C1164 1.363 . S
C1165 C1168 1.363 . S
N1166 C1168 1.356 . S
N1166 H1178 0.984 1_545 S
N1166 H1179 0.985 . S
N1167 C1169 1.356 . S
N1167 H1172 0.984 1_545 S
N1167 H1173 0.985 . S
C1168 C1162 1.379 1_545 S
C1168 C1165 1.363 . S
C1168 N1166 1.356 . S
C1169 C1163 1.363 1_545 S
C1169 C1164 1.379 . S
C1169 N1167 1.356 . S
N1170 C1162 1.356 . S
N1170 H1176 0.984 . S
N1170 H1177 0.984 . S
N1171 C1164 1.356 . S
N1171 H1174 0.984 . S
N1171 H1175 0.985 . S
H1172 N1167 0.984 1_565 S
H1173 N1167 0.985 . S
H1174 N1171 0.984 . S
H1175 N1171 0.985 . S
H1176 N1170 0.984 . S
H1177 N1170 0.984 . S
H1178 N1166 0.984 1_565 S
H1179 N1166 0.985 . S
C1180 C1181 1.363 . S
C1180 C1186 1.379 . S
C1180 N1188 1.356 . S
C1181 C1180 1.363 . S
C1181 C1187 1.363 . S
C1182 C1183 1.363 . S
C1182 C1187 1.379 . S
C1182 N1189 1.356 . S
C1183 C1182 1.363 . S
C1183 C1186 1.363 . S
N1184 C1186 1.356 . S
N1184 H1196 0.984 . S
N1184 H1197 0.985 . S
N1185 C1187 1.356 . S
N1185 H1190 0.984 1_565 S
N1185 H1191 0.985 . S
C1186 C1180 1.379 . S
C1186 C1183 1.363 . S
C1186 N1184 1.356 . S
C1187 C1181 1.363 . S
C1187 C1182 1.379 . S
C1187 N1185 1.356 . S
N1188 C1180 1.356 . S
N1188 H1194 0.984 . S
N1188 H1195 0.984 . S
N1189 C1182 1.356 . S
N1189 H1192 0.984 . S
N1189 H1193 0.985 . S
H1190 N1185 0.984 1_545 S
H1191 N1185 0.985 . S
H1192 N1189 0.984 . S
H1193 N1189 0.985 . S
H1194 N1188 0.984 . S
H1195 N1188 0.984 . S
H1196 N1184 0.984 . S
H1197 N1184 0.985 . S
C1198 C1199 1.363 . S
C1198 C1204 1.379 1_565 S
C1198 N1206 1.356 . S
C1199 C1198 1.363 . S
C1199 C1205 1.363 . S
C1200 C1201 1.363 . S
C1200 C1205 1.379 1_545 S
C1200 N1207 1.356 . S
C1201 C1200 1.363 . S
C1201 C1204 1.363 . S
N1202 C1204 1.356 . S
N1202 H1214 0.984 . S
N1202 H1215 0.985 . S
N1203 C1205 1.356 . S
N1203 H1208 0.984 . S
N1203 H1209 0.985 . S
C1204 C1198 1.379 1_545 S
C1204 C1201 1.363 . S
C1204 N1202 1.356 . S
C1205 C1199 1.363 . S
C1205 C1200 1.379 1_565 S
C1205 N1203 1.356 . S
N1206 C1198 1.356 . S
N1206 H1212 0.984 . S
N1206 H1213 0.984 . S
N1207 C1200 1.356 . S
N1207 H1210 0.984 . S
N1207 H1211 0.985 . S
H1208 N1203 0.984 . S
H1209 N1203 0.985 . S
H1210 N1207 0.984 . S
H1211 N1207 0.985 . S
H1212 N1206 0.984 . S
H1213 N1206 0.984 . S
H1214 N1202 0.984 . S
H1215 N1202 0.985 . S
C353 C7 1.219 . S
C355 C271 1.219 . S
C371 C125 1.219 . S
C373 C29 1.219 . S
C389 C65 1.219 . S
C391 C323 1.219 . S
C407 C73 1.219 . S
C409 C175 1.219 . S
C425 C95 1.219 . S
C427 C183 1.219 . S
C443 C227 1.219 . S
C445 C147 1.219 . S
C461 C307 1.219 1_545 S
C463 C219 1.219 1_565 S
C479 C249 1.219 1_545 S
C481 C337 1.219 1_565 S
C497 C213 1.634 . S
C499 C10 1.616 . S
C515 C32 1.616 . S
C517 C241 1.634 . S
C533 C62 1.616 . S
C535 C263 1.634 . S
C551 C197 1.634 . S
C553 C76 1.616 . S
C569 C301 1.634 . S
C571 C98 1.616 . S
C587 C315 1.634 . S
C589 C118 1.616 . S
C605 C140 1.616 . S
C607 C351 1.634 . S
C623 C285 1.634 . S
C625 C172 1.616 . S
C641 C186 1.616 . S
C643 C43 1.634 . S
C659 C216 1.616 1_565 S
C661 C59 1.634 . S
C677 C230 1.616 . S
C679 C87 1.634 . S
C695 C21 1.634 . S
C697 C252 1.616 1_545 S
C713 C117 1.634 . S
C715 C274 1.616 . S
C731 C304 1.616 1_545 S
C733 C139 1.634 . S
C749 C169 1.634 . S
C751 C316 1.616 . S
C767 C340 1.616 1_565 S
C769 C109 1.634 . S
C785 C8 1.137 . S
C787 C228 1.137 . S
C803 C30 1.137 . S
C805 C250 1.137 . S
C821 C184 1.137 . S
C823 C54 1.137 . S
C839 C74 1.137 . S
C841 C208 1.137 . S
C857 C96 1.137 . S
C859 C326 1.137 . S
C875 C128 1.137 . S
C877 C338 1.137 . S
C893 C272 1.137 . S
C895 C150 1.137 . S
C911 C164 1.137 . S
C913 C296 1.137 . S
C929 C18 1.562 . S
C931 C161 1.617 . S
C947 C279 1.617 . S
C949 C40 1.562 . S
C965 C52 1.562 . S
C967 C131 1.617 . S
C983 C84 1.562 . S
C985 C329 1.617 . S
C1001 C106 1.562 . S
C1003 C81 1.617 . S
C1019 C191 1.617 . S
C1021 C120 1.562 . S
C1037 C142 1.562 . S
C1039 C37 1.617 . S
C1055 C235 1.617 . S
C1057 C162 1.562 . S
C1073 C194 1.562 . S
C1075 C345 1.617 . S
C1091 C103 1.617 . S
C1093 C206 1.562 . S
C1109 C293 1.617 . S
C1111 C238 1.562 . S
C1127 C260 1.562 . S
C1129 C153 1.617 . S
C1145 C282 1.562 . S
C1147 C257 1.617 . S
C1163 C294 1.562 . S
C1165 C15 1.617 . S
C1181 C205 1.617 . S
C1183 C318 1.562 . S
C1199 C51 1.617 . S
C1201 C348 1.562 . S
