# Generated by pormake.
# Topology wme, (6)-cn, num edge types: 1
# Building blocks:
#     Node 0, Type 0, BuildingBlock: FUNLAD_clean_sbu_0, # of connection points: 6
#     Node 1, Type 0, BuildingBlock: FUNLAD_clean_sbu_0, # of connection points: 6
#     Node 2, Type 0, BuildingBlock: FUNLAD_clean_sbu_0, # of connection points: 6
#     Node 3, Type 0, BuildingBlock: FUNLAD_clean_sbu_0, # of connection points: 6
#     Node 4, Type 0, BuildingBlock: FUNLAD_clean_sbu_0, # of connection points: 6
#     Node 5, Type 0, BuildingBlock: FUNLAD_clean_sbu_0, # of connection points: 6
#     Node 6, Type 0, BuildingBlock: FUNLAD_clean_sbu_0, # of connection points: 6
#     Node 7, Type 0, BuildingBlock: FUNLAD_clean_sbu_0, # of connection points: 6
#     Node 8, Type 0, BuildingBlock: FUNLAD_clean_sbu_0, # of connection points: 6
#     Node 9, Type 0, BuildingBlock: FUNLAD_clean_sbu_0, # of connection points: 6
#     Node 10, Type 0, BuildingBlock: FUNLAD_clean_sbu_0, # of connection points: 6
#     Node 11, Type 0, BuildingBlock: FUNLAD_clean_sbu_0, # of connection points: 6
#     Edge 12, Type (0, 0), BuildingBlock: CIFDUS_clean_linker_0, # of connection points: 2
#     Edge 13, Type (0, 0), BuildingBlock: CIFDUS_clean_linker_0, # of connection points: 2
#     Edge 14, Type (0, 0), BuildingBlock: CIFDUS_clean_linker_0, # of connection points: 2
#     Edge 15, Type (0, 0), BuildingBlock: CIFDUS_clean_linker_0, # of connection points: 2
#     Edge 16, Type (0, 0), BuildingBlock: CIFDUS_clean_linker_0, # of connection points: 2
#     Edge 17, Type (0, 0), BuildingBlock: CIFDUS_clean_linker_0, # of connection points: 2
#     Edge 18, Type (0, 0), BuildingBlock: CIFDUS_clean_linker_0, # of connection points: 2
#     Edge 19, Type (0, 0), BuildingBlock: CIFDUS_clean_linker_0, # of connection points: 2
#     Edge 20, Type (0, 0), BuildingBlock: CIFDUS_clean_linker_0, # of connection points: 2
#     Edge 21, Type (0, 0), BuildingBlock: CIFDUS_clean_linker_0, # of connection points: 2
#     Edge 22, Type (0, 0), BuildingBlock: CIFDUS_clean_linker_0, # of connection points: 2
#     Edge 23, Type (0, 0), BuildingBlock: CIFDUS_clean_linker_0, # of connection points: 2
#     Edge 24, Type (0, 0), BuildingBlock: CIFDUS_clean_linker_0, # of connection points: 2
#     Edge 25, Type (0, 0), BuildingBlock: CIFDUS_clean_linker_0, # of connection points: 2
#     Edge 26, Type (0, 0), BuildingBlock: CIFDUS_clean_linker_0, # of connection points: 2
#     Edge 27, Type (0, 0), BuildingBlock: CIFDUS_clean_linker_0, # of connection points: 2
#     Edge 28, Type (0, 0), BuildingBlock: CIFDUS_clean_linker_0, # of connection points: 2
#     Edge 29, Type (0, 0), BuildingBlock: CIFDUS_clean_linker_0, # of connection points: 2
#     Edge 30, Type (0, 0), BuildingBlock: CIFDUS_clean_linker_0, # of connection points: 2
#     Edge 31, Type (0, 0), BuildingBlock: CIFDUS_clean_linker_0, # of connection points: 2
#     Edge 32, Type (0, 0), BuildingBlock: CIFDUS_clean_linker_0, # of connection points: 2
#     Edge 33, Type (0, 0), BuildingBlock: CIFDUS_clean_linker_0, # of connection points: 2
#     Edge 34, Type (0, 0), BuildingBlock: CIFDUS_clean_linker_0, # of connection points: 2
#     Edge 35, Type (0, 0), BuildingBlock: CIFDUS_clean_linker_0, # of connection points: 2
#     Edge 36, Type (0, 0), BuildingBlock: CIFDUS_clean_linker_0, # of connection points: 2
#     Edge 37, Type (0, 0), BuildingBlock: CIFDUS_clean_linker_0, # of connection points: 2
#     Edge 38, Type (0, 0), BuildingBlock: CIFDUS_clean_linker_0, # of connection points: 2
#     Edge 39, Type (0, 0), BuildingBlock: CIFDUS_clean_linker_0, # of connection points: 2
#     Edge 40, Type (0, 0), BuildingBlock: CIFDUS_clean_linker_0, # of connection points: 2
#     Edge 41, Type (0, 0), BuildingBlock: CIFDUS_clean_linker_0, # of connection points: 2
#     Edge 42, Type (0, 0), BuildingBlock: CIFDUS_clean_linker_0, # of connection points: 2
#     Edge 43, Type (0, 0), BuildingBlock: CIFDUS_clean_linker_0, # of connection points: 2
#     Edge 44, Type (0, 0), BuildingBlock: CIFDUS_clean_linker_0, # of connection points: 2
#     Edge 45, Type (0, 0), BuildingBlock: CIFDUS_clean_linker_0, # of connection points: 2
#     Edge 46, Type (0, 0), BuildingBlock: CIFDUS_clean_linker_0, # of connection points: 2
#     Edge 47, Type (0, 0), BuildingBlock: CIFDUS_clean_linker_0, # of connection points: 2
# Relax obj value: 0.142
# Max RMSD: 0.203
# Mean RMSD: 0.203
data_MOF--net-wme--node1-FUNLAD_clean_sbu_0--edge1-CIFDUS_clean_linker_0
_symmetry_space_group_name_H-M    P1
_symmetry_Int_Tables_number       1
_symmetry_cell_setting            triclinic
loop_
_symmetry_equiv_pos_as_xyz
'x, y, z'
_cell_length_a     24.737731
_cell_length_b     24.93336
_cell_length_c     77.603944
_cell_angle_alpha  90.201372
_cell_angle_beta   89.798325
_cell_angle_gamma 120.00225
loop_
_atom_site_label
_atom_site_type_symbol
_atom_site_fract_x
_atom_site_fract_y
_atom_site_fract_z
_atom_type_partial_charge
C0 C 0.2476 0.22122 0.14657 0.0
N1 N 0.2334 0.31353 0.10359 0.0
C2 C 0.28514 0.31394 0.09735 0.0
C3 C 0.29041 0.30426 0.07983 0.0
C4 C 0.24165 0.29317 0.06855 0.0
C5 C 0.18933 0.29432 0.07524 0.0
C6 C 0.18627 0.30495 0.09286 0.0
Zn7 Zn 0.22472 0.31646 0.13001 0.0
C8 C 0.0984 0.23153 0.14206 0.0
N9 N 0.21078 0.31521 0.18528 0.0
C10 C 0.25287 0.31367 0.19621 0.0
C11 C 0.15942 0.31569 0.19144 0.0
C12 C 0.14835 0.31384 0.20913 0.0
C13 C 0.19064 0.31185 0.22078 0.0
C14 C 0.24372 0.31205 0.21408 0.0
Zn15 Zn 0.22112 0.31498 0.15891 0.0
O16 O 0.24566 0.24507 0.1323 0.0
C17 C 0.34551 0.40504 0.14639 0.0
O18 O 0.24073 0.24352 0.16057 0.0
H19 H 0.12635 0.31687 0.18259 0.0
H20 H 0.32167 0.31968 0.10607 0.0
H21 H 0.29345 0.31341 0.19108 0.0
O22 O 0.31874 0.38389 0.13204 0.0
O23 O 0.31601 0.38186 0.16037 0.0
H24 H 0.1454 0.30453 0.09802 0.0
O25 O 0.20125 0.38554 0.15699 0.0
O26 O 0.20068 0.38717 0.12862 0.0
O27 O 0.12487 0.2497 0.15661 0.0
O28 O 0.13053 0.25076 0.12838 0.0
C29 C 0.19384 0.40745 0.14308 0.0
H30 H 0.33125 0.30307 0.07529 0.0
H31 H 0.15093 0.28655 0.06695 0.0
H32 H 0.10627 0.31272 0.21359 0.0
H33 H 0.27806 0.31132 0.22253 0.0
C34 C 0.01172 0.25049 0.65222 0.0
N35 N 0.91367 0.21542 0.60606 0.0
C36 C 0.96196 0.26969 0.60011 0.0
C37 C 0.97792 0.27703 0.58266 0.0
C38 C 0.94455 0.22783 0.57116 0.0
C39 C 0.89535 0.17202 0.57762 0.0
C40 C 0.88035 0.1669 0.5952 0.0
Zn41 Zn 0.89375 0.20933 0.63204 0.0
C42 C 0.86759 0.0921 0.64765 0.0
N43 N 0.86312 0.2019 0.68691 0.0
C44 C 0.90033 0.24613 0.6985 0.0
C45 C 0.81116 0.1493 0.69221 0.0
C46 C 0.79471 0.13963 0.70962 0.0
C47 C 0.83212 0.1842 0.7219 0.0
C48 C 0.88575 0.23806 0.71614 0.0
Zn49 Zn 0.88322 0.20952 0.6608 0.0
O50 O -0.01298 0.24129 0.6374 0.0
C51 C 0.90482 0.32525 0.64548 0.0
O52 O 0.97883 0.24409 0.66552 0.0
H53 H 0.78245 0.11412 0.68293 0.0
H54 H -0.01149 0.30752 0.60893 0.0
H55 H 0.94149 0.28757 0.69408 0.0
O56 O 0.90886 0.29939 0.63182 0.0
O57 O 0.89564 0.298 0.65991 0.0
H58 H 0.84211 0.12417 0.60014 0.0
O59 O 0.7868 0.17215 0.65518 0.0
O60 O 0.79926 0.17538 0.62707 0.0
O61 O 0.87036 0.12169 0.66121 0.0
O62 O 0.8759 0.11755 0.63297 0.0
C63 C 0.76358 0.16156 0.6401 0.0
H64 H 0.01668 0.32055 0.57825 0.0
H65 H 0.86824 0.13307 0.56915 0.0
H66 H 0.75358 0.09695 0.71344 0.0
H67 H 0.91575 0.27385 0.72515 0.0
C68 C 0.73672 0.0053 0.15205 0.0
N69 N 0.65229 0.89641 0.10803 0.0
C70 C 0.66716 0.95337 0.10201 0.0
C71 C 0.67555 0.96632 0.08445 0.0
C72 C 0.66635 0.91972 0.07261 0.0
C73 C 0.64999 0.8608 0.07917 0.0
C74 C 0.64377 0.8503 0.09699 0.0
Zn75 Zn 0.64232 0.88442 0.13434 0.0
C76 C 0.72216 0.8449 0.15031 0.0
N77 N 0.62553 0.87676 0.18885 0.0
C78 C 0.62615 0.91953 0.19991 0.0
C79 C 0.6173 0.82168 0.19463 0.0
C80 C 0.60858 0.80739 0.21205 0.0
C81 C 0.60903 0.85036 0.22377 0.0
C82 C 0.61835 0.90733 0.21762 0.0
Zn83 Zn 0.63619 0.88971 0.1629 0.0
O84 O 0.71667 0.97619 0.13791 0.0
C85 C 0.55101 0.92244 0.14722 0.0
O86 O 0.70886 0.97999 0.16599 0.0
H87 H 0.61772 0.78847 0.18573 0.0
H88 H 0.67264 -0.01067 0.11085 0.0
H89 H 0.63281 0.963 0.19502 0.0
O90 O 0.57511 0.91309 0.13387 0.0
O91 O 0.57079 0.91902 0.16203 0.0
H92 H 0.63164 0.80518 0.10198 0.0
O93 O 0.56401 0.79894 0.15976 0.0
O94 O 0.57049 0.79174 0.13173 0.0
O95 O 0.70111 0.85878 0.16347 0.0
O96 O 0.70647 0.85251 0.13533 0.0
C97 C 0.54585 0.76711 0.14607 0.0
H98 H 0.68974 0.01294 0.08033 0.0
H99 H 0.64128 0.8228 0.07068 0.0
H100 H 0.60285 0.76353 0.21634 0.0
H101 H 0.61913 0.94165 0.22637 0.0
C102 C 0.71628 0.73095 0.64536 0.0
N103 N 0.71133 0.62407 0.60352 0.0
C104 C 0.65739 0.62109 0.59833 0.0
C105 C 0.6445 0.62051 0.58086 0.0
C106 C 0.68816 0.62436 0.56868 0.0
C107 C 0.74319 0.62688 0.57429 0.0
C108 C 0.75366 0.62604 0.59192 0.0
Zn109 Zn 0.72905 0.62924 0.6292 0.0
C110 C 0.85763 0.70891 0.63825 0.0
N111 N 0.75566 0.63684 0.68329 0.0
C112 C 0.7241 0.64817 0.69584 0.0
C113 C 0.80354 0.62686 0.68721 0.0
C114 C 0.82079 0.62697 0.70422 0.0
C115 C 0.78907 0.63813 0.71744 0.0
C116 C 0.74045 0.6494 0.71316 0.0
Zn117 Zn 0.73559 0.63324 0.65767 0.0
O118 O 0.71201 0.70325 0.63124 0.0
C119 C 0.60909 0.54839 0.64858 0.0
O120 O 0.72596 0.71057 0.65929 0.0
H121 H 0.82875 0.61869 0.67711 0.0
H122 H 0.62478 0.62046 0.60775 0.0
H123 H 0.68631 0.65608 0.69242 0.0
O124 O 0.63545 0.56514 0.63396 0.0
O125 O 0.64014 0.57431 0.66211 0.0
H126 H 0.79607 0.62811 0.59633 0.0
O127 O 0.74454 0.55602 0.65566 0.0
O128 O 0.74804 0.55601 0.6274 0.0
O129 O 0.83235 0.6911 0.65295 0.0
O130 O 0.82365 0.69197 0.6249 0.0
C131 C 0.75049 0.53306 0.64174 0.0
H132 H 0.60194 0.61933 0.57691 0.0
H133 H 0.77777 0.62988 0.56514 0.0
H134 H 0.8592 0.61915 0.70699 0.0
H135 H 0.71492 0.65814 0.72308 0.0
C136 C 0.94351 0.70538 0.14498 0.0
N137 N 0.0443 0.7282 0.10016 0.0
C138 C -0.00688 0.67612 0.09431 0.0
C139 C 0.97564 0.67102 0.07708 0.0
C140 C 0.01092 0.72014 0.06575 0.0
C141 C 0.06435 0.77283 0.07201 0.0
C142 C 0.08042 0.77584 0.08937 0.0
Zn143 Zn 0.06075 0.73643 0.12601 0.0
C144 C 0.09544 0.86097 0.13867 0.0
N145 N 0.08805 0.75436 0.18078 0.0
C146 C 0.04804 0.7097 0.19182 0.0
C147 C 0.13911 0.80636 0.18677 0.0
C148 C 0.15153 0.81499 0.20443 0.0
C149 C 0.11107 0.76978 0.21616 0.0
C150 C 0.0587 0.71649 0.20961 0.0
Zn151 Zn 0.07234 0.74484 0.15458 0.0
O152 O 0.96662 0.70783 0.13019 0.0
C153 C 0.04511 0.6222 0.14134 0.0
O154 O 0.9774 0.71652 0.15827 0.0
H155 H 0.17054 0.84138 0.17784 0.0
H156 H 0.96463 0.6391 0.10315 0.0
H157 H 0.00764 0.66879 0.18683 0.0
O158 O 0.04267 0.64565 0.1271 0.0
O159 O 0.05443 0.65293 0.15522 0.0
H160 H 0.12087 0.81684 0.09429 0.0
O161 O 0.167 0.77593 0.15027 0.0
O162 O 0.15644 0.76773 0.12211 0.0
O163 O 0.0929 0.83662 0.15319 0.0
O164 O 0.0812 0.82821 0.12511 0.0
C165 C 0.19112 0.78338 0.13537 0.0
H166 H 0.93377 0.62986 0.07279 0.0
H167 H 0.09316 0.81138 0.06361 0.0
H168 H 0.19296 0.85637 0.2088 0.0
H169 H 0.02578 0.68069 0.21815 0.0
C170 C 0.21631 0.94922 0.6477 0.0
N171 N 0.30617 0.04986 0.60296 0.0
C172 C 0.29083 -0.0072 0.59679 0.0
C173 C 0.28247 0.98016 0.57912 0.0
C174 C 0.2915 0.02704 0.56744 0.0
C175 C 0.3094 0.08614 0.57421 0.0
C176 C 0.31561 0.09629 0.59201 0.0
Zn177 Zn 0.31128 0.06444 0.6293 0.0
C178 C 0.22811 0.10919 0.64136 0.0
N179 N 0.31636 0.08912 0.68406 0.0
C180 C 0.2627 0.07253 0.69292 0.0
C181 C 0.37311 0.12319 0.69169 0.0
C182 C 0.37745 0.14374 0.70868 0.0
C183 C 0.32291 0.1293 0.71793 0.0
C184 C 0.2649 0.0922 0.70991 0.0
Zn185 Zn 0.31219 0.07269 0.65804 0.0
O186 O 0.23835 0.97307 0.63308 0.0
C187 C 0.40267 0.0368 0.64606 0.0
O188 O 0.24089 0.98045 0.66129 0.0
H189 H 0.41525 0.13629 0.68441 0.0
H190 H 0.28388 0.9564 0.6056 0.0
H191 H 0.21807 0.04599 0.68658 0.0
O192 O 0.37974 0.03798 0.6315 0.0
O193 O 0.38072 0.04706 0.65971 0.0
H194 H 0.32745 0.14132 0.59706 0.0
O195 O 0.38075 0.16516 0.6544 0.0
O196 O 0.38164 0.15667 0.62626 0.0
O197 O 0.24628 0.10088 0.65585 0.0
O198 O 0.24589 0.09467 0.62762 0.0
C199 C 0.40031 0.18989 0.63975 0.0
H200 H 0.26764 0.93352 0.57481 0.0
H201 H 0.31857 0.12454 0.5659 0.0
H202 H 0.42314 0.17129 0.71442 0.0
H203 H 0.22162 0.08037 0.71646 0.0
C204 C 0.7378 0.71606 0.39109 0.0
N205 N 0.65734 0.73149 0.43698 0.0
C206 C 0.65342 0.67737 0.44195 0.0
C207 C 0.66115 0.66744 0.4592 0.0
C208 C 0.67408 0.71409 0.47132 0.0
C209 C 0.67716 0.76916 0.46593 0.0
C210 C 0.66806 0.77676 0.44859 0.0
Zn211 Zn 0.6523 0.74611 0.41146 0.0
C212 C 0.74363 0.87008 0.40094 0.0
N213 N 0.64572 0.77354 0.35774 0.0
C214 C 0.63925 0.73284 0.3451 0.0
C215 C 0.65107 0.82929 0.35396 0.0
C216 C 0.65105 0.8465 0.33696 0.0
C217 C 0.64497 0.80585 0.32365 0.0
C218 C 0.63846 0.74809 0.32781 0.0
Zn219 Zn 0.64918 0.75552 0.38315 0.0
O220 O 0.71887 0.71874 0.40617 0.0
C221 C 0.55352 0.63299 0.39435 0.0
O222 O 0.71342 0.72674 0.37816 0.0
H223 H 0.65558 0.86089 0.36415 0.0
H224 H 0.64556 0.64231 0.43248 0.0
H225 H 0.6351 0.68884 0.34842 0.0
O226 O 0.57933 0.65566 0.40869 0.0
O227 O 0.57433 0.66493 0.38068 0.0
H228 H 0.67075 0.8193 0.44435 0.0
O229 O 0.58678 0.78608 0.38811 0.0
O230 O 0.58732 0.77724 0.41617 0.0
O231 O 0.72243 0.84657 0.38628 0.0
O232 O 0.72385 0.83665 0.41427 0.0
C233 C 0.56933 0.79345 0.40283 0.0
H234 H 0.65893 0.62456 0.46294 0.0
H235 H 0.6866 0.80587 0.47503 0.0
H236 H 0.65519 0.89101 0.33426 0.0
H237 H 0.6339 0.71565 0.31782 0.0
C238 C 0.02335 0.75167 0.89271 0.0
N239 N 0.89582 0.65815 0.93205 0.0
C240 C 0.93988 0.64622 0.93846 0.0
C241 C 0.94641 0.64281 0.95614 0.0
C242 C 0.90829 0.6532 0.9674 0.0
C243 C 0.86347 0.66601 0.96059 0.0
C244 C 0.85752 0.66765 0.94269 0.0
Zn245 Zn 0.89345 0.66424 0.90587 0.0
C246 C 0.8753 0.76151 0.89332 0.0
N247 N 0.90099 0.67512 0.85124 0.0
C248 C 0.94059 0.6699 0.84003 0.0
C249 C 0.85487 0.68523 0.8455 0.0
C250 C 0.84768 0.69153 0.82805 0.0
C251 C 0.88754 0.6864 0.81619 0.0
C252 C 0.93428 0.67491 0.82226 0.0
Zn253 Zn 0.90451 0.66812 0.87739 0.0
O254 O -0.00999 0.72898 0.90612 0.0
C255 C 0.91653 0.56671 0.88966 0.0
O256 O -0.00019 0.73103 0.87796 0.0
H257 H 0.82289 0.68805 0.85447 0.0
H258 H 0.97096 0.64029 0.92987 0.0
H259 H 0.97671 0.66159 0.84487 0.0
O260 O 0.90895 0.5894 0.90349 0.0
O261 O 0.91948 0.59282 0.87538 0.0
H262 H 0.82299 0.6773 0.93733 0.0
O263 O 0.80834 0.60639 0.87713 0.0
O264 O 0.79655 0.60207 0.90522 0.0
O265 O 0.88844 0.74252 0.87967 0.0
O266 O 0.87472 0.73702 0.90767 0.0
C267 C 0.77309 0.58649 0.89024 0.0
H268 H -0.0178 0.63389 0.96099 0.0
H269 H 0.83349 0.67448 0.96901 0.0
H270 H 0.81024 0.69898 0.82383 0.0
H271 H 0.96562 0.67033 0.81338 0.0
C272 C 0.24152 0.01069 0.39005 0.0
N273 N 0.23646 0.90414 0.43273 0.0
C274 C 0.27908 0.96069 0.4391 0.0
C275 C 0.28673 0.97083 0.45685 0.0
C276 C 0.25135 0.92201 0.46822 0.0
C277 C 0.20873 0.86369 0.4614 0.0
C278 C 0.20147 0.85588 0.4435 0.0
Zn279 Zn 0.22619 0.89473 0.4063 0.0
C280 C 0.09849 0.8467 0.39521 0.0
N281 N 0.21181 0.88295 0.35105 0.0
C282 C 0.25304 0.92795 0.34029 0.0
C283 C 0.16211 0.8306 0.34468 0.0
C284 C 0.15211 0.8221 0.32694 0.0
C285 C 0.19365 0.86778 0.31548 0.0
C286 C 0.24481 0.92129 0.3224 0.0
Zn287 Zn 0.22231 0.89225 0.37743 0.0
O288 O 0.24065 -0.01431 0.40438 0.0
C289 C 0.34865 0.93157 0.38969 0.0
O290 O 0.237 0.98198 0.37612 0.0
H291 H 0.12973 0.79528 0.35339 0.0
H292 H 0.3073 -0.0017 0.43041 0.0
H293 H 0.29233 0.96915 0.34559 0.0
O294 O 0.3208 0.92582 0.40391 0.0
O295 O 0.31935 0.9242 0.37562 0.0
H296 H 0.16767 0.81134 0.43824 0.0
O297 O 0.20698 0.8035 0.37877 0.0
O298 O 0.20765 0.80173 0.40711 0.0
O299 O 0.12407 0.85657 0.38041 0.0
O300 O 0.132 0.86141 0.40863 0.0
C301 C 0.2012 0.77476 0.39268 0.0
H302 H 0.32053 0.01626 0.46167 0.0
H303 H 0.18058 0.825 0.46983 0.0
H304 H 0.1115 0.78055 0.32227 0.0
H305 H 0.27849 0.95747 0.31409 0.0
C306 C 0.22597 0.26615 0.89227 0.0
N307 N 0.31539 0.23989 0.93427 0.0
C308 C 0.32263 0.29442 0.94038 0.0
C309 C 0.32132 0.30432 0.95802 0.0
C310 C 0.31077 0.25721 0.96962 0.0
C311 C 0.30206 0.20076 0.96313 0.0
C312 C 0.30518 0.19321 0.94527 0.0
Zn313 Zn 0.31722 0.23228 0.90774 0.0
C314 C 0.2298 0.11398 0.89348 0.0
N315 N 0.31908 0.23142 0.85256 0.0
C316 C 0.31708 0.27146 0.84102 0.0
C317 C 0.31764 0.17869 0.84714 0.0
C318 C 0.31183 0.16327 0.82977 0.0
C319 C 0.308 0.20254 0.81761 0.0
C320 C 0.312 0.25802 0.8233 0.0
Zn321 Zn 0.3193 0.24126 0.87896 0.0
O322 O 0.2473 0.25642 0.90606 0.0
C323 C 0.41133 0.35784 0.89271 0.0
O324 O 0.24994 0.26506 0.87787 0.0
H325 H 0.31961 0.14733 0.85635 0.0
H326 H 0.32887 0.33048 0.93155 0.0
H327 H 0.31819 0.31307 0.84556 0.0
O328 O 0.38855 0.32612 0.90632 0.0
O329 O 0.38902 0.33384 0.87811 0.0
H330 H 0.29903 0.15002 0.94022 0.0
O331 O 0.38784 0.21644 0.88048 0.0
O332 O 0.38532 0.20528 0.90862 0.0
O333 O 0.2505 0.14799 0.88024 0.0
O334 O 0.24834 0.1376 0.90833 0.0
C335 C 0.40647 0.20195 0.89394 0.0
H336 H 0.32743 0.34817 0.96256 0.0
H337 H 0.29374 0.16336 0.97177 0.0
H338 H 0.30991 0.12057 0.82587 0.0
H339 H 0.30927 0.28948 0.81422 0.0
C340 C 0.94928 0.2298 0.39434 0.0
N341 N 0.05913 0.32572 0.4368 0.0
C342 C 0.01048 0.331 0.44305 0.0
C343 C -0.00152 0.32735 0.46073 0.0
C344 C 0.03596 0.31674 0.47213 0.0
C345 C 0.08587 0.31141 0.46543 0.0
C346 C 0.09708 0.31667 0.44763 0.0
Zn347 Zn 0.06898 0.32523 0.41037 0.0
C348 C 0.1084 0.23864 0.39887 0.0
N349 N 0.07974 0.3203 0.35513 0.0
C350 C 0.03645 0.31937 0.34417 0.0
C351 C 0.13219 0.32193 0.34899 0.0
C352 C 0.14301 0.32321 0.3313 0.0
C353 C 0.09954 0.32283 0.31964 0.0
C354 C 0.04548 0.32065 0.3263 0.0
Zn355 Zn 0.06985 0.3217 0.38148 0.0
O356 O 0.97571 0.25444 0.40853 0.0
C357 C 0.03744 0.41302 0.39347 0.0
O358 O 0.97841 0.2506 0.38025 0.0
H359 H 0.16637 0.32307 0.35786 0.0
H360 H 0.97989 0.33679 0.4343 0.0
H361 H -0.00495 0.31803 0.34927 0.0
O362 O 0.04381 0.39307 0.40788 0.0
O363 O 0.04243 0.38853 0.37959 0.0
H364 H 0.13543 0.31243 0.44247 0.0
O365 O 0.16025 0.39231 0.38298 0.0
O366 O 0.16435 0.39559 0.41133 0.0
O367 O 0.10048 0.2563 0.38421 0.0
O368 O 0.09601 0.25889 0.41244 0.0
C369 C 0.19038 0.41534 0.39674 0.0
H370 H 0.95913 0.33102 0.46539 0.0
H371 H 0.11595 0.30348 0.47387 0.0
H372 H 0.18581 0.3259 0.32683 0.0
H373 H 0.01035 0.31965 0.31781 0.0
C374 C 0.72034 0.96956 0.89629 0.0
N375 N 0.72282 0.06727 0.94035 0.0
C376 C 0.67734 0.01014 0.94557 0.0
C377 C 0.66798 -0.00477 0.96305 0.0
C378 C 0.70461 0.03998 0.97531 0.0
C379 C 0.75003 0.09911 0.96971 0.0
C380 C 0.75891 0.11167 0.95204 0.0
Zn381 Zn 0.73709 0.08303 0.91429 0.0
C382 C 0.86617 0.12901 0.90379 0.0
N383 N 0.76275 0.10766 0.85932 0.0
C384 C 0.72425 0.06646 0.84729 0.0
C385 C 0.81462 0.16116 0.85447 0.0
C386 C 0.82996 0.17457 0.83709 0.0
C387 C 0.79174 0.13269 0.82436 0.0
C388 C 0.73784 0.07819 0.82966 0.0
Zn389 Zn 0.74675 0.09158 0.88552 0.0
O390 O 0.71967 -0.00749 0.91084 0.0
C391 C 0.61908 0.05252 0.8964 0.0
O392 O 0.72868 0.00096 0.88268 0.0
H393 H 0.84472 0.19366 0.86413 0.0
H394 H 0.64843 0.97565 0.93616 0.0
H395 H 0.6833 0.02415 0.85136 0.0
O396 O 0.6428 0.05448 0.91103 0.0
O397 O 0.65216 0.0638 0.88285 0.0
H398 H 0.79497 0.15666 0.94766 0.0
O399 O 0.76699 0.18221 0.88888 0.0
O400 O 0.75773 0.17564 0.91707 0.0
O401 O 0.84125 0.12152 0.88906 0.0
O402 O 0.83239 0.11395 0.91724 0.0
C403 C 0.77103 0.20763 0.90336 0.0
H404 H 0.63207 0.94936 0.96697 0.0
H405 H 0.77906 0.13469 0.9789 0.0
H406 H 0.87137 0.21763 0.83366 0.0
H407 H 0.70722 0.0443 0.82032 0.0
H408 H 0.1588 0.94617 0.16333 0.0
H409 H 0.09722 0.92636 0.11046 0.0
H410 H 0.15139 0.03866 0.10734 0.0
H411 H 0.20975 0.14105 0.12009 0.0
H412 H 0.26565 0.16158 0.17347 0.0
H413 H 0.22266 0.04966 0.17567 0.0
C414 C 0.15674 0.96642 0.15117 0.0
C415 C 0.12325 0.92825 0.13724 0.0
C416 C 0.18824 0.03078 0.14943 0.0
C417 C 0.12206 0.95497 0.12145 0.0
C418 C 0.15346 0.01904 0.1196 0.0
C419 C 0.21412 0.12137 0.1321 0.0
C420 C 0.24043 0.15922 0.14664 0.0
C421 C 0.18629 0.05723 0.13353 0.0
C422 C 0.24549 0.13308 0.16212 0.0
C423 C 0.22019 0.06918 0.16344 0.0
H424 H 0.1897 0.15117 0.66832 0.0
H425 H 0.19139 0.14518 0.61266 0.0
H426 H 0.13839 0.20532 0.61146 0.0
H427 H 0.08323 0.2499 0.62604 0.0
H428 H 0.07086 0.24596 0.6816 0.0
H429 H 0.14086 0.20342 0.68302 0.0
C430 C 0.17834 0.16284 0.65591 0.0
C431 C 0.19326 0.14264 0.64059 0.0
C432 C 0.14765 0.19708 0.65531 0.0
C433 C 0.17925 0.15909 0.62463 0.0
C434 C 0.14963 0.19406 0.62393 0.0
C435 C 0.09683 0.2411 0.63853 0.0
C436 C 0.07059 0.24956 0.65369 0.0
C437 C 0.13273 0.21228 0.63918 0.0
C438 C 0.08996 0.23934 0.66973 0.0
C439 C 0.12904 0.21396 0.67053 0.0
H440 H 0.81518 0.0573 0.12519 0.0
H441 H 0.79881 0.0771 0.17997 0.0
H442 H 0.91063 0.15132 0.1816 0.0
H443 H 0.01418 0.20079 0.16798 0.0
H444 H 0.02979 0.17557 0.11344 0.0
H445 H 0.91672 0.1118 0.11131 0.0
C446 C 0.83567 0.07867 0.13746 0.0
C447 C 0.79895 0.06116 0.15247 0.0
C448 C 0.90001 0.1189 0.13842 0.0
C449 C 0.82621 0.08967 0.16823 0.0
C450 C 0.8902 0.13154 0.1692 0.0
C451 C -0.00718 0.18116 0.15565 0.0
C452 C 0.03025 0.19198 0.14095 0.0
C453 C 0.92781 0.14457 0.15449 0.0
C454 C 0.00197 0.16729 0.12499 0.0
C455 C 0.93735 0.13114 0.12372 0.0
H456 H 0.77385 0.81912 0.66932 0.0
H457 H 0.68388 0.78402 0.61969 0.0
H458 H 0.72643 0.8952 0.61551 0.0
H459 H 0.79604 0.00221 0.62511 0.0
H460 H 0.88836 0.03566 0.67432 0.0
H461 H 0.83977 0.92447 0.67926 0.0
C462 C 0.7622 0.83556 0.65777 0.0
C463 C 0.726 0.7938 0.64482 0.0
C464 C 0.78912 0.89904 0.65511 0.0
C465 C 0.71168 0.81568 0.62985 0.0
C466 C 0.73665 0.87908 0.62735 0.0
C467 C 0.80622 -0.01512 0.63674 0.0
C468 C 0.8462 0.02631 0.64923 0.0
C469 C 0.77713 0.92115 0.63965 0.0
C470 C 0.85808 0.00401 0.66449 0.0
C471 C 0.82988 0.94073 0.66739 0.0
H472 H 0.90538 0.75083 0.171 0.0
H473 H 0.85212 0.66625 0.12069 0.0
H474 H 0.77641 0.70136 0.11802 0.0
H475 H 0.73672 0.76863 0.12826 0.0
H476 H 0.7927 0.85557 0.17821 0.0
H477 H 0.85707 0.808 0.1826 0.0
C478 C 0.87578 0.73827 0.15969 0.0
C479 C 0.88475 0.70664 0.14599 0.0
C480 C 0.83452 0.76096 0.15792 0.0
C481 C 0.84617 0.69087 0.13139 0.0
C482 C 0.80351 0.71163 0.12975 0.0
C483 C 0.76323 0.77723 0.14006 0.0
C484 C 0.76131 0.81657 0.15271 0.0
C485 C 0.79955 0.74921 0.14258 0.0
C486 C 0.7943 0.82607 0.16818 0.0
C487 C 0.83075 0.79861 0.17075 0.0
H488 H 0.94174 0.74671 0.66425 0.0
H489 H 0.92698 0.75708 0.60904 0.0
H490 H 0.03988 0.82454 0.60694 0.0
H491 H 0.14031 0.88782 0.62099 0.0
H492 H 0.15445 0.88295 0.67636 0.0
H493 H 0.04408 0.80403 0.6781 0.0
C494 C 0.96319 0.76353 0.65173 0.0
C495 C 0.92597 0.74778 0.63685 0.0
C496 C 0.02791 0.80265 0.65064 0.0
C497 C 0.95455 0.7692 0.62072 0.0
C498 C 0.01907 0.80754 0.6195 0.0
C499 C 0.11974 0.86864 0.63344 0.0
C500 C 0.15538 0.89166 0.64855 0.0
C501 C 0.05594 0.82547 0.6344 0.0
C502 C 0.12794 0.86614 0.66454 0.0
C503 C 0.06474 0.82148 0.66556 0.0
H504 H 0.01087 0.79859 0.36983 0.0
H505 H 0.0327 0.82091 0.42508 0.0
H506 H 0.92018 0.76834 0.42873 0.0
H507 H 0.81717 0.7267 0.41632 0.0
H508 H 0.79386 0.71104 0.36108 0.0
H509 H 0.90509 0.74748 0.35743 0.0
C510 C -0.00907 0.79191 0.38265 0.0
C511 C 0.03014 0.81475 0.39711 0.0
C512 C 0.92592 0.76192 0.38471 0.0
C513 C 0.00365 0.80472 0.41368 0.0
C514 C 0.93924 0.77424 0.41583 0.0
C515 C 0.83592 0.72966 0.40347 0.0
C516 C 0.79758 0.71723 0.38899 0.0
C517 C 0.90009 0.75386 0.40143 0.0
C518 C 0.82261 0.72082 0.37245 0.0
C519 C 0.88633 0.74242 0.37034 0.0
H520 H 0.06909 0.83955 0.86839 0.0
H521 H 0.09946 0.80289 0.92069 0.0
H522 H 0.16712 0.91406 0.92581 0.0
H523 H 0.20716 0.02194 0.91625 0.0
H524 H 0.16745 0.05554 0.8645 0.0
H525 H 0.11194 0.94507 0.85856 0.0
C526 C 0.09205 0.85557 0.88076 0.0
C527 C 0.07946 0.81318 0.89413 0.0
C528 C 0.12709 0.91915 0.88392 0.0
C529 C 0.1089 0.83482 0.91016 0.0
C530 C 0.14663 0.89834 0.91317 0.0
C531 C 0.1857 0.00488 0.90377 0.0
C532 C 0.19067 0.04674 0.89093 0.0
C533 C 0.15382 0.94099 0.90036 0.0
C534 C 0.16377 0.02421 0.87468 0.0
C535 C 0.13251 0.96108 0.87118 0.0
H536 H 0.16349 0.20773 0.37347 0.0
H537 H 0.11608 0.18044 0.42758 0.0
H538 H 0.16285 0.11491 0.43015 0.0
H539 H 0.2102 0.05983 0.41668 0.0
H540 H 0.25406 0.08332 0.36235 0.0
H541 H 0.21751 0.15776 0.36037 0.0
C542 C 0.16322 0.18727 0.38581 0.0
C543 C 0.13556 0.1981 0.40025 0.0
C544 C 0.19035 0.14982 0.38723 0.0
C545 C 0.13656 0.17226 0.41623 0.0
C546 C 0.16355 0.13506 0.41774 0.0
C547 C 0.21317 0.08227 0.40447 0.0
C548 C 0.23446 0.06589 0.38967 0.0
C549 C 0.18995 0.12304 0.40329 0.0
C550 C 0.2377 0.09515 0.37394 0.0
C551 C 0.21628 0.13722 0.37276 0.0
H552 H 0.15028 0.23945 0.91991 0.0
H553 H 0.1641 0.28371 0.86572 0.0
H554 H 0.05237 0.2474 0.8649 0.0
H555 H 0.94983 0.18975 0.87853 0.0
H556 H 0.93536 0.13955 0.93227 0.0
H557 H 0.04901 0.19063 0.9342 0.0
C558 C 0.12929 0.24261 0.90798 0.0
C559 C 0.16513 0.26322 0.89282 0.0
C560 C 0.06485 0.21883 0.90741 0.0
C561 C 0.13732 0.26755 0.87753 0.0
C562 C 0.07339 0.24615 0.87701 0.0
C563 C 0.97148 0.18985 0.89068 0.0
C564 C 0.93441 0.15976 0.90515 0.0
C565 C 0.03646 0.21908 0.89167 0.0
C566 C 0.96305 0.1616 0.92089 0.0
C567 C 0.0279 0.19107 0.92203 0.0
H568 H 0.90919 0.14949 0.42065 0.0
H569 H 0.86796 0.17128 0.36798 0.0
H570 H 0.79919 0.0593 0.36545 0.0
H571 H 0.76238 0.95585 0.37707 0.0
H572 H 0.80936 0.93432 0.42918 0.0
H573 H 0.86681 0.04661 0.43289 0.0
C574 C 0.88373 0.13001 0.40877 0.0
C575 C 0.89371 0.16817 0.39447 0.0
C576 C 0.84764 0.06588 0.40711 0.0
C577 C 0.86079 0.14243 0.37913 0.0
C578 C 0.82236 0.07855 0.37761 0.0
C579 C 0.78568 0.97571 0.38919 0.0
C580 C 0.78286 0.93723 0.40273 0.0
C581 C 0.81785 0.03987 0.39127 0.0
C582 C 0.81188 0.96335 0.4185 0.0
C583 C 0.84407 0.02733 0.42068 0.0
H584 H 0.79478 0.77238 0.91465 0.0
H585 H 0.90144 0.84482 0.86784 0.0
H586 H 0.8526 0.90751 0.86291 0.0
H587 H 0.78346 0.94464 0.87248 0.0
H588 H 0.68012 0.8768 0.91995 0.0
H589 H 0.72159 0.80672 0.92365 0.0
C590 C 0.80792 0.80266 0.90353 0.0
C591 C 0.8522 0.80501 0.89177 0.0
C592 C 0.77893 0.83769 0.90063 0.0
C593 C 0.86786 0.84304 0.87716 0.0
C594 C 0.83956 0.87831 0.87424 0.0
C595 C 0.7685 0.91319 0.88337 0.0
C596 C 0.72875 0.91548 0.8959 0.0
C597 C 0.795 0.87584 0.88586 0.0
C598 C 0.71049 0.87531 0.9101 0.0
C599 C 0.73487 0.83606 0.91234 0.0
H600 H 0.10829 0.59531 0.16441 0.0
H601 H 0.00588 0.53163 0.11677 0.0
H602 H 0.04567 0.4602 0.11247 0.0
H603 H 0.11611 0.42181 0.12138 0.0
H604 H 0.22186 0.49132 0.16837 0.0
H605 H 0.17581 0.55635 0.17351 0.0
C606 C 0.09325 0.56462 0.15332 0.0
C607 C 0.05397 0.56825 0.14099 0.0
C608 C 0.11871 0.52645 0.15051 0.0
C609 C 0.0358 0.52909 0.12651 0.0
C610 C 0.0592 0.489 0.12392 0.0
C611 C 0.12963 0.45205 0.13255 0.0
C612 C 0.17257 0.45252 0.14439 0.0
C613 C 0.10226 0.48875 0.13558 0.0
C614 C 0.18901 0.49068 0.15905 0.0
C615 C 0.16236 0.52738 0.16208 0.0
H616 H 0.67469 0.10624 0.6647 0.0
H617 H 0.69952 0.14782 0.6103 0.0
H618 H 0.5868 0.10122 0.60681 0.0
H619 H 0.48318 0.05895 0.61974 0.0
H620 H 0.45899 0.02192 0.67437 0.0
H621 H 0.5695 0.05448 0.67712 0.0
C622 C 0.65546 0.105 0.65207 0.0
C623 C 0.69542 0.13149 0.63784 0.0
C624 C 0.59076 0.0783 0.65016 0.0
C625 C 0.66975 0.12841 0.6215 0.0
C626 C 0.60532 0.10158 0.61948 0.0
C627 C 0.50161 0.0563 0.63217 0.0
C628 C 0.46307 0.03855 0.64686 0.0
C629 C 0.56556 0.07753 0.63378 0.0
C630 C 0.48779 0.03563 0.66288 0.0
C631 C 0.55108 0.05485 0.66449 0.0
H632 H 0.53902 0.67538 0.12563 0.0
H633 H 0.46017 0.71018 0.17112 0.0
H634 H 0.40109 0.59975 0.17726 0.0
H635 H 0.36898 0.49405 0.16926 0.0
H636 H 0.43987 0.45623 0.12273 0.0
H637 H 0.50788 0.56756 0.1179 0.0
C638 C 0.50798 0.65846 0.13668 0.0
C639 C 0.50308 0.70041 0.14777 0.0
C640 C 0.47472 0.59486 0.14029 0.0
C641 C 0.46401 0.67841 0.16231 0.0
C642 C 0.43086 0.61548 0.16595 0.0
C643 C 0.40091 0.51006 0.15838 0.0
C644 C 0.40025 0.46736 0.14648 0.0
C645 C 0.43616 0.57345 0.1551 0.0
C646 C 0.44054 0.48864 0.13218 0.0
C647 C 0.47839 0.55211 0.12925 0.0
H648 H 0.83188 0.51972 0.62145 0.0
H649 H 0.71035 0.44338 0.66556 0.0
H650 H 0.75569 0.37877 0.67212 0.0
H651 H 0.83004 0.34571 0.6657 0.0
H652 H 0.94813 0.41519 0.62075 0.0
H653 H 0.90597 0.4836 0.6145 0.0
C654 C 0.81452 0.48771 0.63221 0.0
C655 C 0.76786 0.48549 0.64296 0.0
C656 C 0.84169 0.45169 0.63611 0.0
C657 C 0.74617 0.44513 0.6571 0.0
C658 C 0.7725 0.40892 0.66098 0.0
C659 C 0.84781 0.37697 0.65477 0.0
C660 C 0.89271 0.37657 0.64385 0.0
C661 C 0.82097 0.4128 0.65076 0.0
C662 C 0.91412 0.41583 0.62946 0.0
C663 C 0.88939 0.45401 0.62575 0.0
H664 H 0.47518 0.88729 0.11941 0.0
H665 H 0.49016 0.94997 0.17205 0.0
H666 H 0.37867 0.91484 0.17249 0.0
H667 H 0.27578 0.85305 0.15945 0.0
H668 H 0.25952 0.7856 0.10732 0.0
H669 H 0.37328 0.83529 0.10524 0.0
C670 C 0.45453 0.89496 0.13083 0.0
C671 C 0.49069 0.92047 0.14576 0.0
C672 C 0.39006 0.87205 0.13126 0.0
C673 C 0.46319 0.93012 0.16043 0.0
C674 C 0.39937 0.9094 0.16076 0.0
C675 C 0.29707 0.84915 0.14761 0.0
C676 C 0.25946 0.81446 0.13369 0.0
C677 C 0.36207 0.87774 0.14653 0.0
C678 C 0.28765 0.81128 0.11829 0.0
C679 C 0.35256 0.83988 0.11708 0.0
H680 H 0.54643 0.47264 0.6221 0.0
H681 H 0.54431 0.4867 0.67758 0.0
H682 H 0.47694 0.37444 0.67959 0.0
H683 H 0.43335 0.27255 0.66589 0.0
H684 H 0.44492 0.25931 0.61058 0.0
H685 H 0.49718 0.37183 0.60831 0.0
C686 C 0.53021 0.45152 0.63466 0.0
C687 C 0.55151 0.48781 0.6497 0.0
C688 C 0.49574 0.3871 0.63578 0.0
C689 C 0.52895 0.45973 0.6658 0.0
C690 C 0.4914 0.39549 0.66698 0.0
C691 C 0.44761 0.29421 0.65333 0.0
C692 C 0.43641 0.25775 0.63844 0.0
C693 C 0.47744 0.35872 0.65211 0.0
C694 C 0.4541 0.28645 0.62226 0.0
C695 C 0.48326 0.35066 0.62093 0.0
H696 H 0.40307 0.91362 0.41756 0.0
H697 H 0.42266 0.93915 0.36238 0.0
H698 H 0.49651 0.90108 0.36203 0.0
H699 H 0.5425 0.8472 0.37667 0.0
H700 H 0.51669 0.81403 0.43149 0.0
H701 H 0.45622 0.86736 0.43262 0.0
C702 C 0.42453 0.91237 0.40547 0.0
C703 C 0.40672 0.92851 0.38995 0.0
C704 C 0.46391 0.88715 0.40524 0.0
C705 C 0.43539 0.92687 0.37447 0.0
C706 C 0.47692 0.90433 0.37425 0.0
C707 C 0.5237 0.85146 0.38892 0.0
C708 C 0.53293 0.8255 0.40395 0.0
C709 C 0.48909 0.88176 0.38943 0.0
C710 C 0.50934 0.83271 0.41972 0.0
C711 C 0.4752 0.86351 0.42037 0.0
H712 H 0.68114 0.55621 0.91397 0.0
H713 H 0.71321 0.5324 0.86045 0.0
H714 H 0.60143 0.46886 0.85572 0.0
H715 H 0.49598 0.41206 0.8673 0.0
H716 H 0.46297 0.43079 0.92104 0.0
H717 H 0.5735 0.50636 0.92499 0.0
C718 C 0.66357 0.53703 0.9013 0.0
C719 C 0.70533 0.54802 0.88768 0.0
C720 C 0.59909 0.50047 0.89862 0.0
C721 C 0.68199 0.52397 0.87122 0.0
C722 C 0.61806 0.48791 0.86845 0.0
C723 C 0.51256 0.434 0.87976 0.0
C724 C 0.47168 0.41558 0.89388 0.0
C725 C 0.57631 0.47503 0.88211 0.0
C726 C 0.49385 0.44417 0.90998 0.0
C727 C 0.55708 0.48679 0.9123 0.0
H728 H 0.11696 0.68446 0.41341 0.0
H729 H 0.2319 0.71751 0.36832 0.0
H730 H 0.18062 0.60655 0.36258 0.0
H731 H 0.10558 0.50106 0.37067 0.0
H732 H -0.00568 0.46545 0.41662 0.0
H733 H 0.03912 0.57701 0.42126 0.0
C734 C 0.13146 0.66698 0.40257 0.0
C735 C 0.17863 0.70841 0.39146 0.0
C736 C 0.10079 0.60324 0.39913 0.0
C737 C 0.19613 0.68592 0.37715 0.0
C738 C 0.16633 0.62277 0.37373 0.0
C739 C 0.08945 0.51765 0.38136 0.0
C740 C 0.04612 0.47551 0.39314 0.0
C741 C 0.11827 0.58118 0.38453 0.0
C742 C 0.02693 0.49746 0.40724 0.0
C743 C 0.05341 0.56104 0.41006 0.0
H744 H 0.58562 0.10498 0.87164 0.0
H745 H 0.52665 0.01188 0.92065 0.0
H746 H 0.45421 0.05093 0.92441 0.0
H747 H 0.41813 0.12249 0.91535 0.0
H748 H 0.48364 0.2201 0.86711 0.0
H749 H 0.54482 0.16986 0.86174 0.0
C750 C 0.5555 0.09151 0.88289 0.0
C751 C 0.56159 0.05598 0.89589 0.0
C752 C 0.51712 0.11705 0.88544 0.0
C753 C 0.5226 0.03926 0.91046 0.0
C754 C 0.48201 0.06238 0.91274 0.0
C755 C 0.44639 0.13313 0.90379 0.0
C756 C 0.44743 0.17563 0.8918 0.0
C757 C 0.4811 0.10363 0.90068 0.0
C758 C 0.48282 0.18799 0.87662 0.0
C759 C 0.51732 0.15891 0.87345 0.0
H760 H 0.28659 0.42616 0.41586 0.0
H761 H 0.24021 0.50533 0.373 0.0
H762 H 0.35054 0.57256 0.36647 0.0
H763 H 0.45927 0.61034 0.3733 0.0
H764 H 0.50803 0.53662 0.41695 0.0
H765 H 0.39745 0.46327 0.42238 0.0
C766 C 0.30107 0.45906 0.40533 0.0
C767 C 0.25616 0.46183 0.39505 0.0
C768 C 0.36455 0.49675 0.40145 0.0
C769 C 0.27463 0.50322 0.38114 0.0
C770 C 0.33743 0.54105 0.37729 0.0
C771 C 0.4458 0.57694 0.38368 0.0
C772 C 0.49124 0.57816 0.39461 0.0
C773 C 0.38266 0.53781 0.38726 0.0
C774 C 0.47337 0.53574 0.40827 0.0
C775 C 0.41033 0.49464 0.41153 0.0
H776 H 0.88531 0.49193 0.91741 0.0
H777 H 0.92408 0.49908 0.86285 0.0
H778 H 0.88213 0.38714 0.86255 0.0
H779 H 0.82511 0.28748 0.87706 0.0
H780 H 0.78184 0.27961 0.93131 0.0
H781 H 0.83367 0.39271 0.9323 0.0
C782 C 0.88577 0.46936 0.90547 0.0
C783 C 0.9072 0.50365 0.89011 0.0
C784 C 0.85912 0.40504 0.90524 0.0
C785 C 0.90773 0.47366 0.87482 0.0
C786 C 0.8831 0.40967 0.87461 0.0
C787 C 0.82656 0.31031 0.88912 0.0
C788 C 0.79872 0.27526 0.90405 0.0
C789 C 0.8567 0.37486 0.8896 0.0
C790 C 0.80217 0.30564 0.91961 0.0
C791 C 0.83218 0.37017 0.9202 0.0
H792 H 0.14859 0.2638 0.30111 0.0
H793 H 0.07802 0.38994 0.29555 0.0
H794 H 0.10036 0.39802 0.2647 0.0
H795 H 0.14197 0.37118 0.2394 0.0
H796 H 0.21155 0.24415 0.24489 0.0
H797 H 0.18959 0.23639 0.27574 0.0
C798 C 0.13847 0.29343 0.29319 0.0
C799 C 0.11157 0.32616 0.30072 0.0
C800 C 0.15194 0.29832 0.27545 0.0
C801 C 0.09788 0.36351 0.29013 0.0
C802 C 0.11111 0.36856 0.27248 0.0
C803 C 0.15184 0.34129 0.24728 0.0
C804 C 0.17852 0.30837 0.23972 0.0
C805 C 0.13825 0.33628 0.26501 0.0
C806 C 0.19197 0.27083 0.25031 0.0
C807 C 0.17891 0.26591 0.26797 0.0
H808 H 0.90905 0.20549 0.74941 0.0
H809 H 0.71632 0.13845 0.73631 0.0
H810 H 0.6866 0.11568 0.76659 0.0
H811 H 0.71508 0.1144 0.79691 0.0
H812 H 0.90778 0.18067 0.80993 0.0
H813 H 0.9376 0.20478 0.77974 0.0
C814 C 0.86065 0.18656 0.7532 0.0
C815 C 0.81506 0.17361 0.74054 0.0
C816 C 0.84374 0.17333 0.77068 0.0
C817 C 0.75238 0.14823 0.74572 0.0
C818 C 0.7353 0.13534 0.76306 0.0
C819 C 0.76352 0.13363 0.79313 0.0
C820 C 0.80903 0.14583 0.80576 0.0
C821 C 0.78049 0.14729 0.77566 0.0
C822 C 0.87176 0.17156 0.80058 0.0
C823 C 0.88891 0.18515 0.78327 0.0
H824 H 0.68287 0.92281 0.24961 0.0
H825 H 0.52154 0.74446 0.23928 0.0
H826 H 0.51846 0.71457 0.26939 0.0
H827 H 0.56434 0.73772 0.29835 0.0
H828 H 0.7264 0.91566 0.30861 0.0
H829 H 0.72649 0.94737 0.27884 0.0
C830 C 0.64644 0.87791 0.25407 0.0
C831 C 0.60257 0.83585 0.24234 0.0
C832 C 0.64553 0.86076 0.2713 0.0
C833 C 0.55603 0.77738 0.24814 0.0
C834 C 0.55432 0.76025 0.2653 0.0
C835 C 0.59983 0.78323 0.29399 0.0
C836 C 0.64542 0.82419 0.30555 0.0
C837 C 0.59948 0.80116 0.27692 0.0
C838 C 0.69064 0.88348 0.2999 0.0
C839 C 0.69076 0.9016 0.28291 0.0
H840 H 0.81248 0.72508 0.74183 0.0
H841 H 0.80878 0.5523 0.7333 0.0
H842 H 0.84448 0.55462 0.76276 0.0
H843 H 0.87377 0.60437 0.79126 0.0
H844 H 0.87623 0.77647 0.79987 0.0
H845 H 0.84468 0.77635 0.77005 0.0
C846 C 0.81902 0.68778 0.74651 0.0
C847 C 0.80779 0.6385 0.73552 0.0
C848 C 0.83993 0.68964 0.7634 0.0
C849 C 0.81738 0.59084 0.74158 0.0
C850 C 0.83782 0.59215 0.75839 0.0
C851 C 0.8685 0.64232 0.78645 0.0
C852 C 0.87735 0.69039 0.79762 0.0
C853 C 0.84927 0.64133 0.76941 0.0
C854 C 0.86947 0.73893 0.79142 0.0
C855 C 0.85121 0.73875 0.77443 0.0
H856 H 0.15405 0.87595 0.23512 0.0
H857 H 0.09676 0.68223 0.2398 0.0
H858 H 0.11743 0.69546 0.27071 0.0
H859 H 0.15288 0.76212 0.29641 0.0
H860 H 0.20979 0.95576 0.29175 0.0
H861 H 0.19006 0.94274 0.2608 0.0
C862 C 0.14663 0.83668 0.24285 0.0
C863 C 0.12372 0.77812 0.23506 0.0
C864 C 0.15906 0.84468 0.26064 0.0
C865 C 0.11346 0.72765 0.24542 0.0
C866 C 0.12571 0.73525 0.26311 0.0
C867 C 0.16053 0.80144 0.28867 0.0
C868 C 0.18286 0.85988 0.29649 0.0
C869 C 0.14844 0.79353 0.27087 0.0
C870 C 0.19349 0.91043 0.28612 0.0
C871 C 0.18175 0.90294 0.2684 0.0
H872 H 0.37598 0.2687 0.78977 0.0
H873 H 0.21892 0.09291 0.8045 0.0
H874 H 0.20882 0.05506 0.77497 0.0
H875 H 0.24825 0.06953 0.7454 0.0
H876 H 0.40555 0.24493 0.73033 0.0
H877 H 0.41257 0.28488 0.75952 0.0
C878 C 0.33905 0.22253 0.78639 0.0
C879 C 0.29836 0.18357 0.79925 0.0
C880 C 0.33417 0.20061 0.76939 0.0
C881 C 0.25102 0.12355 0.7948 0.0
C882 C 0.24529 0.10185 0.77794 0.0
C883 C 0.28361 0.11676 0.74842 0.0
C884 C 0.32649 0.1539 0.73567 0.0
C885 C 0.28722 0.13958 0.76519 0.0
C886 C 0.37258 0.21479 0.73994 0.0
C887 C 0.37635 0.23793 0.75661 0.0
H888 H 0.21434 0.19365 0.99189 0.0
H889 H 0.40278 0.34678 0.98898 0.0
H890 H 0.39855 0.37128 1.01935 0.0
H891 H 0.34012 0.35114 0.0465 0.0
H892 H 0.14986 0.20091 0.04923 0.0
H893 H 0.15542 0.1738 1.01921 0.0
C894 C 0.25457 0.23182 0.99804 0.0
C895 C 0.30901 0.26805 0.98835 0.0
C896 C 0.25114 0.24665 1.0154 0.0
C897 C 0.36056 0.31817 0.99628 0.0
C898 C 0.35805 0.33228 1.0136 0.0
C899 C 0.29998 0.31229 0.04054 0.0
C900 C 0.24465 0.27818 0.0501 0.0
C901 C 0.30342 0.2972 0.02325 0.0
C902 C 0.19277 0.22843 0.04211 0.0
C903 C 0.19606 0.21261 0.02497 0.0
H904 H 0.01892 0.22258 0.49321 0.0
H905 H 0.02007 0.39601 0.49284 0.0
H906 H -0.00749 0.3842 0.52345 0.0
H907 H 0.96639 0.32372 0.55021 0.0
H908 H 0.96058 0.148 0.55043 0.0
H909 H -0.00897 0.16107 0.52001 0.0
C910 C 0.01364 0.25793 0.49992 0.0
C911 C 0.02189 0.31029 0.49086 0.0
C912 C -0.00354 0.25013 0.51744 0.0
C913 C 0.0139 0.35533 0.49957 0.0
C914 C -0.00185 0.34858 0.51705 0.0
C915 C 0.9721 0.28846 0.5436 0.0
C916 C 0.96143 0.23506 0.55257 0.0
C917 C -0.01098 0.29605 0.52609 0.0
C918 C 0.96805 0.18928 0.54378 0.0
C919 C -0.01421 0.1969 0.52641 0.0
H920 H 0.64407 0.00126 0.0546 0.0
H921 H 0.70655 0.86869 0.04756 0.0
H922 H 0.72084 0.89209 1.01689 0.0
H923 H 0.71898 0.95278 0.99202 0.0
H924 H 0.66834 0.09316 0.99988 0.0
H925 H 0.64831 0.06574 0.03045 0.0
C926 C 0.66207 0.9781 0.04656 0.0
C927 C 0.6742 0.93314 0.05367 0.0
C928 C 0.67291 -0.0063 0.02903 0.0
C929 C 0.6955 0.9026 0.04262 0.0
C930 C 0.70444 0.91646 0.02503 0.0
C931 C 0.70367 0.97727 1.00051 0.0
C932 C 0.69493 0.02474 0.99385 0.0
C933 C 0.69366 0.96216 1.01811 0.0
C934 C 0.67555 0.05666 1.00485 0.0
C935 C 0.66392 0.04082 0.02226 0.0
H936 H 0.76379 0.71648 0.54731 0.0
H937 H 0.58843 0.54506 0.54926 0.0
H938 H 0.56892 0.55698 0.51895 0.0
H939 H 0.60121 0.61773 0.49215 0.0
H940 H 0.77376 0.79222 0.49083 0.0
H941 H 0.79513 0.77802 0.52072 0.0
C942 C 0.72171 0.68156 0.54097 0.0
C943 C 0.67783 0.62972 0.55026 0.0
C944 C 0.71024 0.68962 0.52379 0.0
C945 C 0.62279 0.58517 0.54219 0.0
C946 C 0.61167 0.59204 0.52494 0.0
C947 C 0.6435 0.65239 0.49846 0.0
C948 C 0.68595 0.70583 0.48944 0.0
C949 C 0.65492 0.64428 0.51565 0.0
C950 C 0.74031 0.75097 0.49767 0.0
C951 C 0.75264 0.74273 0.51468 0.0
H952 H 0.93526 0.74627 0.98988 0.0
H953 H 0.90576 0.56097 0.98643 0.0
H954 H 0.93379 0.56479 1.01681 0.0
H955 H 0.97181 0.62288 0.04382 0.0
H956 H 0.00522 0.80979 0.0471 0.0
H957 H 0.97146 0.80385 1.01723 0.0
C958 C 0.93403 0.70651 0.99593 0.0
C959 C 0.91811 0.65326 0.98612 0.0
C960 C 0.95184 0.70976 1.01322 0.0
C961 C 0.91774 0.60229 0.99387 0.0
C962 C 0.93396 0.60458 1.01116 0.0
C963 C 0.97117 0.66209 0.03803 0.0
C964 C -0.00893 0.7167 0.04761 0.0
C965 C 0.95195 0.65839 0.02088 0.0
C966 C -0.00913 0.76751 0.03989 0.0
C967 C 0.97116 0.764 0.02287 0.0
H968 H 0.23724 0.00591 0.487 0.0
H969 H 0.28345 0.86135 0.49152 0.0
H970 H 0.30198 0.88214 0.52249 0.0
H971 H 0.30771 0.94342 0.54796 0.0
H972 H 0.25039 0.08077 0.54378 0.0
H973 H 0.23543 0.06197 0.51298 0.0
C974 C 0.25122 0.97896 0.49483 0.0
C975 C 0.25929 0.93241 0.48708 0.0
C976 C 0.26059 -0.00959 0.51264 0.0
C977 C 0.27678 0.89726 0.49729 0.0
C978 C 0.28759 0.90934 0.51495 0.0
C979 C 0.29089 0.9687 0.54049 0.0
C980 C 0.28112 0.01419 0.54847 0.0
C981 C 0.27983 0.95598 0.52276 0.0
C982 C 0.26036 0.04684 0.53819 0.0
C983 C 0.25094 0.03561 0.52049 0.0
loop_
_geom_bond_atom_site_label_1
_geom_bond_atom_site_label_2
_geom_bond_distance
_geom_bond_site_symmetry_2
_ccdc_geom_bond_type
C0 O16 1.251 . S
C0 O18 1.254 . S
N1 C2 1.333 . S
N1 C6 1.307 . S
N1 Zn7 2.020 . S
C2 N1 1.333 . S
C2 C3 1.379 . S
C2 H20 0.952 . S
C3 C2 1.379 . S
C3 C4 1.390 . S
C3 H30 0.949 . S
C4 C3 1.390 . S
C4 C5 1.357 . S
C5 C4 1.357 . S
C5 C6 1.370 . S
C5 H31 0.950 . S
C6 N1 1.307 . S
C6 C5 1.370 . S
C6 H24 0.948 . S
Zn7 N1 2.020 . S
Zn7 O16 2.039 . S
Zn7 O22 2.034 . S
Zn7 O26 2.025 . S
Zn7 O28 2.024 . S
C8 O27 1.246 . S
C8 O28 1.249 . S
N9 C10 1.307 . S
N9 C11 1.333 . S
N9 Zn15 2.020 . S
C10 N9 1.307 . S
C10 C14 1.370 . S
C10 H21 0.948 . S
C11 N9 1.333 . S
C11 C12 1.379 . S
C11 H19 0.952 . S
C12 C11 1.379 . S
C12 C13 1.390 . S
C12 H32 0.949 . S
C13 C12 1.390 . S
C13 C14 1.357 . S
C14 C10 1.370 . S
C14 C13 1.357 . S
C14 H33 0.950 . S
Zn15 N9 2.020 . S
Zn15 O18 2.025 . S
Zn15 O23 2.024 . S
Zn15 O25 2.039 . S
Zn15 O27 2.034 . S
O16 C0 1.251 . S
O16 Zn7 2.039 . S
C17 O22 1.246 . S
C17 O23 1.249 . S
O18 C0 1.254 . S
O18 Zn15 2.025 . S
H19 C11 0.952 . S
H20 C2 0.952 . S
H21 C10 0.948 . S
O22 Zn7 2.034 . S
O22 C17 1.246 . S
O23 Zn15 2.024 . S
O23 C17 1.249 . S
H24 C6 0.948 . S
O25 Zn15 2.039 . S
O25 C29 1.251 . S
O26 Zn7 2.025 . S
O26 C29 1.254 . S
O27 C8 1.246 . S
O27 Zn15 2.034 . S
O28 Zn7 2.024 . S
O28 C8 1.249 . S
C29 O25 1.251 . S
C29 O26 1.254 . S
H30 C3 0.949 . S
H31 C5 0.950 . S
H32 C12 0.949 . S
H33 C14 0.950 . S
C34 O50 1.251 . S
C34 O52 1.254 . S
N35 C36 1.333 . S
N35 C40 1.307 . S
N35 Zn41 2.020 . S
C36 N35 1.333 . S
C36 C37 1.379 . S
C36 H54 0.952 . S
C37 C36 1.379 . S
C37 C38 1.390 . S
C37 H64 0.949 . S
C38 C37 1.390 . S
C38 C39 1.357 . S
C39 C38 1.357 . S
C39 C40 1.370 . S
C39 H65 0.950 . S
C40 N35 1.307 . S
C40 C39 1.370 . S
C40 H58 0.948 . S
Zn41 N35 2.020 . S
Zn41 O50 2.039 . S
Zn41 O56 2.034 . S
Zn41 O60 2.025 . S
Zn41 O62 2.024 . S
C42 O61 1.246 . S
C42 O62 1.249 . S
N43 C44 1.307 . S
N43 C45 1.333 . S
N43 Zn49 2.020 . S
C44 N43 1.307 . S
C44 C48 1.370 . S
C44 H55 0.948 . S
C45 N43 1.333 . S
C45 C46 1.379 . S
C45 H53 0.952 . S
C46 C45 1.379 . S
C46 C47 1.390 . S
C46 H66 0.949 . S
C47 C46 1.390 . S
C47 C48 1.357 . S
C48 C44 1.370 . S
C48 C47 1.357 . S
C48 H67 0.950 . S
Zn49 N43 2.020 . S
Zn49 O52 2.025 . S
Zn49 O57 2.024 . S
Zn49 O59 2.039 . S
Zn49 O61 2.034 . S
O50 C34 1.251 . S
O50 Zn41 2.039 . S
C51 O56 1.246 . S
C51 O57 1.249 . S
O52 C34 1.254 . S
O52 Zn49 2.025 . S
H53 C45 0.952 . S
H54 C36 0.952 . S
H55 C44 0.948 . S
O56 Zn41 2.034 . S
O56 C51 1.246 . S
O57 Zn49 2.024 . S
O57 C51 1.249 . S
H58 C40 0.948 . S
O59 Zn49 2.039 . S
O59 C63 1.251 . S
O60 Zn41 2.025 . S
O60 C63 1.254 . S
O61 C42 1.246 . S
O61 Zn49 2.034 . S
O62 Zn41 2.024 . S
O62 C42 1.249 . S
C63 O59 1.251 . S
C63 O60 1.254 . S
H64 C37 0.949 . S
H65 C39 0.950 . S
H66 C46 0.949 . S
H67 C48 0.950 . S
C68 O84 1.251 . S
C68 O86 1.254 . S
N69 C70 1.333 . S
N69 C74 1.307 . S
N69 Zn75 2.020 . S
C70 N69 1.333 . S
C70 C71 1.379 . S
C70 H88 0.952 . S
C71 C70 1.379 . S
C71 C72 1.390 . S
C71 H98 0.949 . S
C72 C71 1.390 . S
C72 C73 1.357 . S
C73 C72 1.357 . S
C73 C74 1.370 . S
C73 H99 0.950 . S
C74 N69 1.307 . S
C74 C73 1.370 . S
C74 H92 0.948 . S
Zn75 N69 2.020 . S
Zn75 O84 2.039 . S
Zn75 O90 2.034 . S
Zn75 O94 2.025 . S
Zn75 O96 2.024 . S
C76 O95 1.246 . S
C76 O96 1.249 . S
N77 C78 1.307 . S
N77 C79 1.333 . S
N77 Zn83 2.020 . S
C78 N77 1.307 . S
C78 C82 1.370 . S
C78 H89 0.948 . S
C79 N77 1.333 . S
C79 C80 1.379 . S
C79 H87 0.952 . S
C80 C79 1.379 . S
C80 C81 1.390 . S
C80 H100 0.949 . S
C81 C80 1.390 . S
C81 C82 1.357 . S
C82 C78 1.370 . S
C82 C81 1.357 . S
C82 H101 0.950 . S
Zn83 N77 2.020 . S
Zn83 O86 2.025 . S
Zn83 O91 2.024 . S
Zn83 O93 2.039 . S
Zn83 O95 2.034 . S
O84 C68 1.251 . S
O84 Zn75 2.039 . S
C85 O90 1.246 . S
C85 O91 1.249 . S
O86 C68 1.254 . S
O86 Zn83 2.025 . S
H87 C79 0.952 . S
H88 C70 0.952 . S
H89 C78 0.948 . S
O90 Zn75 2.034 . S
O90 C85 1.246 . S
O91 Zn83 2.024 . S
O91 C85 1.249 . S
H92 C74 0.948 . S
O93 Zn83 2.039 . S
O93 C97 1.251 . S
O94 Zn75 2.025 . S
O94 C97 1.254 . S
O95 C76 1.246 . S
O95 Zn83 2.034 . S
O96 Zn75 2.024 . S
O96 C76 1.249 . S
C97 O93 1.251 . S
C97 O94 1.254 . S
H98 C71 0.949 . S
H99 C73 0.950 . S
H100 C80 0.949 . S
H101 C82 0.950 . S
C102 O118 1.251 . S
C102 O120 1.254 . S
N103 C104 1.333 . S
N103 C108 1.307 . S
N103 Zn109 2.020 . S
C104 N103 1.333 . S
C104 C105 1.379 . S
C104 H122 0.952 . S
C105 C104 1.379 . S
C105 C106 1.390 . S
C105 H132 0.949 . S
C106 C105 1.390 . S
C106 C107 1.357 . S
C107 C106 1.357 . S
C107 C108 1.370 . S
C107 H133 0.950 . S
C108 N103 1.307 . S
C108 C107 1.370 . S
C108 H126 0.948 . S
Zn109 N103 2.020 . S
Zn109 O118 2.039 . S
Zn109 O124 2.034 . S
Zn109 O128 2.025 . S
Zn109 O130 2.024 . S
C110 O129 1.246 . S
C110 O130 1.249 . S
N111 C112 1.307 . S
N111 C113 1.333 . S
N111 Zn117 2.020 . S
C112 N111 1.307 . S
C112 C116 1.370 . S
C112 H123 0.948 . S
C113 N111 1.333 . S
C113 C114 1.379 . S
C113 H121 0.952 . S
C114 C113 1.379 . S
C114 C115 1.390 . S
C114 H134 0.949 . S
C115 C114 1.390 . S
C115 C116 1.357 . S
C116 C112 1.370 . S
C116 C115 1.357 . S
C116 H135 0.950 . S
Zn117 N111 2.020 . S
Zn117 O120 2.025 . S
Zn117 O125 2.024 . S
Zn117 O127 2.039 . S
Zn117 O129 2.034 . S
O118 C102 1.251 . S
O118 Zn109 2.039 . S
C119 O124 1.246 . S
C119 O125 1.249 . S
O120 C102 1.254 . S
O120 Zn117 2.025 . S
H121 C113 0.952 . S
H122 C104 0.952 . S
H123 C112 0.948 . S
O124 Zn109 2.034 . S
O124 C119 1.246 . S
O125 Zn117 2.024 . S
O125 C119 1.249 . S
H126 C108 0.948 . S
O127 Zn117 2.039 . S
O127 C131 1.251 . S
O128 Zn109 2.025 . S
O128 C131 1.254 . S
O129 C110 1.246 . S
O129 Zn117 2.034 . S
O130 Zn109 2.024 . S
O130 C110 1.249 . S
C131 O127 1.251 . S
C131 O128 1.254 . S
H132 C105 0.949 . S
H133 C107 0.950 . S
H134 C114 0.949 . S
H135 C116 0.950 . S
C136 O152 1.251 . S
C136 O154 1.254 . S
N137 C138 1.333 . S
N137 C142 1.307 . S
N137 Zn143 2.020 . S
C138 N137 1.333 . S
C138 C139 1.379 . S
C138 H156 0.952 . S
C139 C138 1.379 . S
C139 C140 1.390 . S
C139 H166 0.949 . S
C140 C139 1.390 . S
C140 C141 1.357 . S
C141 C140 1.357 . S
C141 C142 1.370 . S
C141 H167 0.950 . S
C142 N137 1.307 . S
C142 C141 1.370 . S
C142 H160 0.948 . S
Zn143 N137 2.020 . S
Zn143 O152 2.039 . S
Zn143 O158 2.034 . S
Zn143 O162 2.025 . S
Zn143 O164 2.024 . S
C144 O163 1.246 . S
C144 O164 1.249 . S
N145 C146 1.307 . S
N145 C147 1.333 . S
N145 Zn151 2.020 . S
C146 N145 1.307 . S
C146 C150 1.370 . S
C146 H157 0.948 . S
C147 N145 1.333 . S
C147 C148 1.379 . S
C147 H155 0.952 . S
C148 C147 1.379 . S
C148 C149 1.390 . S
C148 H168 0.949 . S
C149 C148 1.390 . S
C149 C150 1.357 . S
C150 C146 1.370 . S
C150 C149 1.357 . S
C150 H169 0.950 . S
Zn151 N145 2.020 . S
Zn151 O154 2.025 . S
Zn151 O159 2.024 . S
Zn151 O161 2.039 . S
Zn151 O163 2.034 . S
O152 C136 1.251 . S
O152 Zn143 2.039 . S
C153 O158 1.246 . S
C153 O159 1.249 . S
O154 C136 1.254 . S
O154 Zn151 2.025 . S
H155 C147 0.952 . S
H156 C138 0.952 . S
H157 C146 0.948 . S
O158 Zn143 2.034 . S
O158 C153 1.246 . S
O159 Zn151 2.024 . S
O159 C153 1.249 . S
H160 C142 0.948 . S
O161 Zn151 2.039 . S
O161 C165 1.251 . S
O162 Zn143 2.025 . S
O162 C165 1.254 . S
O163 C144 1.246 . S
O163 Zn151 2.034 . S
O164 Zn143 2.024 . S
O164 C144 1.249 . S
C165 O161 1.251 . S
C165 O162 1.254 . S
H166 C139 0.949 . S
H167 C141 0.950 . S
H168 C148 0.949 . S
H169 C150 0.950 . S
C170 O186 1.251 . S
C170 O188 1.254 . S
N171 C172 1.333 . S
N171 C176 1.307 . S
N171 Zn177 2.020 . S
C172 N171 1.333 . S
C172 C173 1.379 . S
C172 H190 0.952 . S
C173 C172 1.379 . S
C173 C174 1.390 . S
C173 H200 0.949 . S
C174 C173 1.390 . S
C174 C175 1.357 . S
C175 C174 1.357 . S
C175 C176 1.370 . S
C175 H201 0.950 . S
C176 N171 1.307 . S
C176 C175 1.370 . S
C176 H194 0.948 . S
Zn177 N171 2.020 . S
Zn177 O186 2.039 . S
Zn177 O192 2.034 . S
Zn177 O196 2.025 . S
Zn177 O198 2.024 . S
C178 O197 1.246 . S
C178 O198 1.249 . S
N179 C180 1.307 . S
N179 C181 1.333 . S
N179 Zn185 2.020 . S
C180 N179 1.307 . S
C180 C184 1.370 . S
C180 H191 0.948 . S
C181 N179 1.333 . S
C181 C182 1.379 . S
C181 H189 0.952 . S
C182 C181 1.379 . S
C182 C183 1.390 . S
C182 H202 0.949 . S
C183 C182 1.390 . S
C183 C184 1.357 . S
C184 C180 1.370 . S
C184 C183 1.357 . S
C184 H203 0.950 . S
Zn185 N179 2.020 . S
Zn185 O188 2.025 . S
Zn185 O193 2.024 . S
Zn185 O195 2.039 . S
Zn185 O197 2.034 . S
O186 C170 1.251 . S
O186 Zn177 2.039 . S
C187 O192 1.246 . S
C187 O193 1.249 . S
O188 C170 1.254 . S
O188 Zn185 2.025 . S
H189 C181 0.952 . S
H190 C172 0.952 . S
H191 C180 0.948 . S
O192 Zn177 2.034 . S
O192 C187 1.246 . S
O193 Zn185 2.024 . S
O193 C187 1.249 . S
H194 C176 0.948 . S
O195 Zn185 2.039 . S
O195 C199 1.251 . S
O196 Zn177 2.025 . S
O196 C199 1.254 . S
O197 C178 1.246 . S
O197 Zn185 2.034 . S
O198 Zn177 2.024 . S
O198 C178 1.249 . S
C199 O195 1.251 . S
C199 O196 1.254 . S
H200 C173 0.949 . S
H201 C175 0.950 . S
H202 C182 0.949 . S
H203 C184 0.950 . S
C204 O220 1.251 . S
C204 O222 1.254 . S
N205 C206 1.333 . S
N205 C210 1.307 . S
N205 Zn211 2.020 . S
C206 N205 1.333 . S
C206 C207 1.379 . S
C206 H224 0.952 . S
C207 C206 1.379 . S
C207 C208 1.390 . S
C207 H234 0.949 . S
C208 C207 1.390 . S
C208 C209 1.357 . S
C209 C208 1.357 . S
C209 C210 1.370 . S
C209 H235 0.950 . S
C210 N205 1.307 . S
C210 C209 1.370 . S
C210 H228 0.948 . S
Zn211 N205 2.020 . S
Zn211 O220 2.039 . S
Zn211 O226 2.034 . S
Zn211 O230 2.025 . S
Zn211 O232 2.024 . S
C212 O231 1.246 . S
C212 O232 1.249 . S
N213 C214 1.307 . S
N213 C215 1.333 . S
N213 Zn219 2.020 . S
C214 N213 1.307 . S
C214 C218 1.370 . S
C214 H225 0.948 . S
C215 N213 1.333 . S
C215 C216 1.379 . S
C215 H223 0.952 . S
C216 C215 1.379 . S
C216 C217 1.390 . S
C216 H236 0.949 . S
C217 C216 1.390 . S
C217 C218 1.357 . S
C218 C214 1.370 . S
C218 C217 1.357 . S
C218 H237 0.950 . S
Zn219 N213 2.020 . S
Zn219 O222 2.025 . S
Zn219 O227 2.024 . S
Zn219 O229 2.039 . S
Zn219 O231 2.034 . S
O220 C204 1.251 . S
O220 Zn211 2.039 . S
C221 O226 1.246 . S
C221 O227 1.249 . S
O222 C204 1.254 . S
O222 Zn219 2.025 . S
H223 C215 0.952 . S
H224 C206 0.952 . S
H225 C214 0.948 . S
O226 Zn211 2.034 . S
O226 C221 1.246 . S
O227 Zn219 2.024 . S
O227 C221 1.249 . S
H228 C210 0.948 . S
O229 Zn219 2.039 . S
O229 C233 1.251 . S
O230 Zn211 2.025 . S
O230 C233 1.254 . S
O231 C212 1.246 . S
O231 Zn219 2.034 . S
O232 Zn211 2.024 . S
O232 C212 1.249 . S
C233 O229 1.251 . S
C233 O230 1.254 . S
H234 C207 0.949 . S
H235 C209 0.950 . S
H236 C216 0.949 . S
H237 C218 0.950 . S
C238 O254 1.251 . S
C238 O256 1.254 . S
N239 C240 1.333 . S
N239 C244 1.307 . S
N239 Zn245 2.020 . S
C240 N239 1.333 . S
C240 C241 1.379 . S
C240 H258 0.952 . S
C241 C240 1.379 . S
C241 C242 1.390 . S
C241 H268 0.949 . S
C242 C241 1.390 . S
C242 C243 1.357 . S
C243 C242 1.357 . S
C243 C244 1.370 . S
C243 H269 0.950 . S
C244 N239 1.307 . S
C244 C243 1.370 . S
C244 H262 0.948 . S
Zn245 N239 2.020 . S
Zn245 O254 2.039 . S
Zn245 O260 2.034 . S
Zn245 O264 2.025 . S
Zn245 O266 2.024 . S
C246 O265 1.246 . S
C246 O266 1.249 . S
N247 C248 1.307 . S
N247 C249 1.333 . S
N247 Zn253 2.020 . S
C248 N247 1.307 . S
C248 C252 1.370 . S
C248 H259 0.948 . S
C249 N247 1.333 . S
C249 C250 1.379 . S
C249 H257 0.952 . S
C250 C249 1.379 . S
C250 C251 1.390 . S
C250 H270 0.949 . S
C251 C250 1.390 . S
C251 C252 1.357 . S
C252 C248 1.370 . S
C252 C251 1.357 . S
C252 H271 0.950 . S
Zn253 N247 2.020 . S
Zn253 O256 2.025 . S
Zn253 O261 2.024 . S
Zn253 O263 2.039 . S
Zn253 O265 2.034 . S
O254 C238 1.251 . S
O254 Zn245 2.039 . S
C255 O260 1.246 . S
C255 O261 1.249 . S
O256 C238 1.254 . S
O256 Zn253 2.025 . S
H257 C249 0.952 . S
H258 C240 0.952 . S
H259 C248 0.948 . S
O260 Zn245 2.034 . S
O260 C255 1.246 . S
O261 Zn253 2.024 . S
O261 C255 1.249 . S
H262 C244 0.948 . S
O263 Zn253 2.039 . S
O263 C267 1.251 . S
O264 Zn245 2.025 . S
O264 C267 1.254 . S
O265 C246 1.246 . S
O265 Zn253 2.034 . S
O266 Zn245 2.024 . S
O266 C246 1.249 . S
C267 O263 1.251 . S
C267 O264 1.254 . S
H268 C241 0.949 . S
H269 C243 0.950 . S
H270 C250 0.949 . S
H271 C252 0.950 . S
C272 O288 1.251 . S
C272 O290 1.254 . S
N273 C274 1.333 . S
N273 C278 1.307 . S
N273 Zn279 2.020 . S
C274 N273 1.333 . S
C274 C275 1.379 . S
C274 H292 0.952 . S
C275 C274 1.379 . S
C275 C276 1.390 . S
C275 H302 0.949 . S
C276 C275 1.390 . S
C276 C277 1.357 . S
C277 C276 1.357 . S
C277 C278 1.370 . S
C277 H303 0.950 . S
C278 N273 1.307 . S
C278 C277 1.370 . S
C278 H296 0.948 . S
Zn279 N273 2.020 . S
Zn279 O288 2.039 . S
Zn279 O294 2.034 . S
Zn279 O298 2.025 . S
Zn279 O300 2.024 . S
C280 O299 1.246 . S
C280 O300 1.249 . S
N281 C282 1.307 . S
N281 C283 1.333 . S
N281 Zn287 2.020 . S
C282 N281 1.307 . S
C282 C286 1.370 . S
C282 H293 0.948 . S
C283 N281 1.333 . S
C283 C284 1.379 . S
C283 H291 0.952 . S
C284 C283 1.379 . S
C284 C285 1.390 . S
C284 H304 0.949 . S
C285 C284 1.390 . S
C285 C286 1.357 . S
C286 C282 1.370 . S
C286 C285 1.357 . S
C286 H305 0.950 . S
Zn287 N281 2.020 . S
Zn287 O290 2.025 . S
Zn287 O295 2.024 . S
Zn287 O297 2.039 . S
Zn287 O299 2.034 . S
O288 C272 1.251 . S
O288 Zn279 2.039 . S
C289 O294 1.246 . S
C289 O295 1.249 . S
O290 C272 1.254 . S
O290 Zn287 2.025 . S
H291 C283 0.952 . S
H292 C274 0.952 . S
H293 C282 0.948 . S
O294 Zn279 2.034 . S
O294 C289 1.246 . S
O295 Zn287 2.024 . S
O295 C289 1.249 . S
H296 C278 0.948 . S
O297 Zn287 2.039 . S
O297 C301 1.251 . S
O298 Zn279 2.025 . S
O298 C301 1.254 . S
O299 C280 1.246 . S
O299 Zn287 2.034 . S
O300 Zn279 2.024 . S
O300 C280 1.249 . S
C301 O297 1.251 . S
C301 O298 1.254 . S
H302 C275 0.949 . S
H303 C277 0.950 . S
H304 C284 0.949 . S
H305 C286 0.950 . S
C306 O322 1.251 . S
C306 O324 1.254 . S
N307 C308 1.333 . S
N307 C312 1.307 . S
N307 Zn313 2.020 . S
C308 N307 1.333 . S
C308 C309 1.379 . S
C308 H326 0.952 . S
C309 C308 1.379 . S
C309 C310 1.390 . S
C309 H336 0.949 . S
C310 C309 1.390 . S
C310 C311 1.357 . S
C311 C310 1.357 . S
C311 C312 1.370 . S
C311 H337 0.950 . S
C312 N307 1.307 . S
C312 C311 1.370 . S
C312 H330 0.948 . S
Zn313 N307 2.020 . S
Zn313 O322 2.039 . S
Zn313 O328 2.034 . S
Zn313 O332 2.025 . S
Zn313 O334 2.024 . S
C314 O333 1.246 . S
C314 O334 1.249 . S
N315 C316 1.307 . S
N315 C317 1.333 . S
N315 Zn321 2.020 . S
C316 N315 1.307 . S
C316 C320 1.370 . S
C316 H327 0.948 . S
C317 N315 1.333 . S
C317 C318 1.379 . S
C317 H325 0.952 . S
C318 C317 1.379 . S
C318 C319 1.390 . S
C318 H338 0.949 . S
C319 C318 1.390 . S
C319 C320 1.357 . S
C320 C316 1.370 . S
C320 C319 1.357 . S
C320 H339 0.950 . S
Zn321 N315 2.020 . S
Zn321 O324 2.025 . S
Zn321 O329 2.024 . S
Zn321 O331 2.039 . S
Zn321 O333 2.034 . S
O322 C306 1.251 . S
O322 Zn313 2.039 . S
C323 O328 1.246 . S
C323 O329 1.249 . S
O324 C306 1.254 . S
O324 Zn321 2.025 . S
H325 C317 0.952 . S
H326 C308 0.952 . S
H327 C316 0.948 . S
O328 Zn313 2.034 . S
O328 C323 1.246 . S
O329 Zn321 2.024 . S
O329 C323 1.249 . S
H330 C312 0.948 . S
O331 Zn321 2.039 . S
O331 C335 1.251 . S
O332 Zn313 2.025 . S
O332 C335 1.254 . S
O333 C314 1.246 . S
O333 Zn321 2.034 . S
O334 Zn313 2.024 . S
O334 C314 1.249 . S
C335 O331 1.251 . S
C335 O332 1.254 . S
H336 C309 0.949 . S
H337 C311 0.950 . S
H338 C318 0.949 . S
H339 C320 0.950 . S
C340 O356 1.251 . S
C340 O358 1.254 . S
N341 C342 1.333 . S
N341 C346 1.307 . S
N341 Zn347 2.020 . S
C342 N341 1.333 . S
C342 C343 1.379 . S
C342 H360 0.952 . S
C343 C342 1.379 . S
C343 C344 1.390 . S
C343 H370 0.949 . S
C344 C343 1.390 . S
C344 C345 1.357 . S
C345 C344 1.357 . S
C345 C346 1.370 . S
C345 H371 0.950 . S
C346 N341 1.307 . S
C346 C345 1.370 . S
C346 H364 0.948 . S
Zn347 N341 2.020 . S
Zn347 O356 2.039 . S
Zn347 O362 2.034 . S
Zn347 O366 2.025 . S
Zn347 O368 2.024 . S
C348 O367 1.246 . S
C348 O368 1.249 . S
N349 C350 1.307 . S
N349 C351 1.333 . S
N349 Zn355 2.020 . S
C350 N349 1.307 . S
C350 C354 1.370 . S
C350 H361 0.948 . S
C351 N349 1.333 . S
C351 C352 1.379 . S
C351 H359 0.952 . S
C352 C351 1.379 . S
C352 C353 1.390 . S
C352 H372 0.949 . S
C353 C352 1.390 . S
C353 C354 1.357 . S
C354 C350 1.370 . S
C354 C353 1.357 . S
C354 H373 0.950 . S
Zn355 N349 2.020 . S
Zn355 O358 2.025 . S
Zn355 O363 2.024 . S
Zn355 O365 2.039 . S
Zn355 O367 2.034 . S
O356 C340 1.251 . S
O356 Zn347 2.039 . S
C357 O362 1.246 . S
C357 O363 1.249 . S
O358 C340 1.254 . S
O358 Zn355 2.025 . S
H359 C351 0.952 . S
H360 C342 0.952 . S
H361 C350 0.948 . S
O362 Zn347 2.034 . S
O362 C357 1.246 . S
O363 Zn355 2.024 . S
O363 C357 1.249 . S
H364 C346 0.948 . S
O365 Zn355 2.039 . S
O365 C369 1.251 . S
O366 Zn347 2.025 . S
O366 C369 1.254 . S
O367 C348 1.246 . S
O367 Zn355 2.034 . S
O368 Zn347 2.024 . S
O368 C348 1.249 . S
C369 O365 1.251 . S
C369 O366 1.254 . S
H370 C343 0.949 . S
H371 C345 0.950 . S
H372 C352 0.949 . S
H373 C354 0.950 . S
C374 O390 1.251 . S
C374 O392 1.254 . S
N375 C376 1.333 . S
N375 C380 1.307 . S
N375 Zn381 2.020 . S
C376 N375 1.333 . S
C376 C377 1.379 . S
C376 H394 0.952 . S
C377 C376 1.379 . S
C377 C378 1.390 . S
C377 H404 0.949 . S
C378 C377 1.390 . S
C378 C379 1.357 . S
C379 C378 1.357 . S
C379 C380 1.370 . S
C379 H405 0.950 . S
C380 N375 1.307 . S
C380 C379 1.370 . S
C380 H398 0.948 . S
Zn381 N375 2.020 . S
Zn381 O390 2.039 . S
Zn381 O396 2.034 . S
Zn381 O400 2.025 . S
Zn381 O402 2.024 . S
C382 O401 1.246 . S
C382 O402 1.249 . S
N383 C384 1.307 . S
N383 C385 1.333 . S
N383 Zn389 2.020 . S
C384 N383 1.307 . S
C384 C388 1.370 . S
C384 H395 0.948 . S
C385 N383 1.333 . S
C385 C386 1.379 . S
C385 H393 0.952 . S
C386 C385 1.379 . S
C386 C387 1.390 . S
C386 H406 0.949 . S
C387 C386 1.390 . S
C387 C388 1.357 . S
C388 C384 1.370 . S
C388 C387 1.357 . S
C388 H407 0.950 . S
Zn389 N383 2.020 . S
Zn389 O392 2.025 . S
Zn389 O397 2.024 . S
Zn389 O399 2.039 . S
Zn389 O401 2.034 . S
O390 C374 1.251 . S
O390 Zn381 2.039 . S
C391 O396 1.246 . S
C391 O397 1.249 . S
O392 C374 1.254 . S
O392 Zn389 2.025 . S
H393 C385 0.952 . S
H394 C376 0.952 . S
H395 C384 0.948 . S
O396 Zn381 2.034 . S
O396 C391 1.246 . S
O397 Zn389 2.024 . S
O397 C391 1.249 . S
H398 C380 0.948 . S
O399 Zn389 2.039 . S
O399 C403 1.251 . S
O400 Zn381 2.025 . S
O400 C403 1.254 . S
O401 C382 1.246 . S
O401 Zn389 2.034 . S
O402 Zn381 2.024 . S
O402 C382 1.249 . S
C403 O399 1.251 . S
C403 O400 1.254 . S
H404 C377 0.949 . S
H405 C379 0.950 . S
H406 C386 0.949 . S
H407 C388 0.950 . S
H408 C414 0.930 . S
H409 C417 0.930 1_565 S
H410 C418 0.930 . S
H411 C419 0.930 . S
H412 C422 0.930 . S
H413 C423 0.930 . S
C414 H408 0.930 . S
C414 C415 1.355 . S
C414 C416 1.415 1_565 S
C415 C414 1.355 . S
C415 C417 1.419 1_565 S
C416 C414 1.415 1_545 S
C416 C421 1.425 . S
C416 C423 1.409 . S
C417 H409 0.930 1_545 S
C417 C415 1.419 1_545 S
C417 C418 1.362 . S
C418 H410 0.930 . S
C418 C417 1.362 . S
C418 C421 1.409 . S
C419 H411 0.930 . S
C419 C420 1.355 . S
C419 C421 1.415 . S
C420 C419 1.355 . S
C420 C422 1.419 . S
C421 C416 1.425 . S
C421 C418 1.409 . S
C421 C419 1.415 . S
C422 H412 0.930 . S
C422 C420 1.419 . S
C422 C423 1.362 . S
C423 H413 0.930 . S
C423 C416 1.409 . S
C423 C422 1.362 . S
H424 C430 0.930 . S
H425 C433 0.930 . S
H426 C434 0.930 . S
H427 C435 0.930 . S
H428 C438 0.930 1_655 S
H429 C439 0.930 . S
C430 H424 0.930 . S
C430 C431 1.355 . S
C430 C432 1.415 . S
C431 C430 1.355 . S
C431 C433 1.419 . S
C432 C430 1.415 . S
C432 C437 1.425 . S
C432 C439 1.409 . S
C433 H425 0.930 . S
C433 C431 1.419 . S
C433 C434 1.362 . S
C434 H426 0.930 . S
C434 C433 1.362 . S
C434 C437 1.409 . S
C435 H427 0.930 . S
C435 C436 1.355 . S
C435 C437 1.415 . S
C436 C435 1.355 . S
C436 C438 1.419 . S
C437 C432 1.425 . S
C437 C434 1.409 . S
C437 C435 1.415 . S
C438 H428 0.930 1_455 S
C438 C436 1.419 . S
C438 C439 1.362 . S
C439 H429 0.930 . S
C439 C432 1.409 . S
C439 C438 1.362 . S
H440 C446 0.930 . S
H441 C449 0.930 1_565 S
H442 C450 0.930 . S
H443 C451 0.935 . S
H444 C454 0.930 1_455 S
H445 C455 0.930 . S
C446 H440 0.930 . S
C446 C447 1.355 . S
C446 C448 1.415 . S
C447 C446 1.355 . S
C447 C449 1.419 . S
C448 C446 1.415 . S
C448 C453 1.425 . S
C448 C455 1.409 . S
C449 H441 0.930 1_545 S
C449 C447 1.419 . S
C449 C450 1.362 . S
C450 H442 0.930 . S
C450 C449 1.362 . S
C450 C453 1.409 . S
C451 H443 0.935 . S
C451 C452 1.355 . S
C451 C453 1.410 1_455 S
C452 C451 1.355 . S
C452 C454 1.419 1_455 S
C453 C448 1.425 . S
C453 C450 1.409 . S
C453 C451 1.410 1_655 S
C454 H444 0.930 1_655 S
C454 C452 1.419 1_655 S
C454 C455 1.362 . S
C455 H445 0.930 . S
C455 C448 1.409 . S
C455 C454 1.362 . S
H456 C462 0.930 . S
H457 C465 0.930 . S
H458 C466 0.930 . S
H459 C467 0.930 . S
H460 C470 0.930 1_545 S
H461 C471 0.930 . S
C462 H456 0.930 . S
C462 C463 1.355 . S
C462 C464 1.415 . S
C463 C462 1.355 . S
C463 C465 1.419 . S
C464 C462 1.415 . S
C464 C469 1.425 . S
C464 C471 1.409 . S
C465 H457 0.930 . S
C465 C463 1.419 . S
C465 C466 1.362 . S
C466 H458 0.930 . S
C466 C465 1.362 . S
C466 C469 1.409 . S
C467 H459 0.930 . S
C467 C468 1.355 . S
C467 C469 1.415 1_545 S
C468 C467 1.355 . S
C468 C470 1.419 1_545 S
C469 C464 1.425 . S
C469 C466 1.409 . S
C469 C467 1.415 1_565 S
C470 H460 0.930 1_565 S
C470 C468 1.419 1_565 S
C470 C471 1.362 . S
C471 H461 0.930 . S
C471 C464 1.409 . S
C471 C470 1.362 . S
H472 C478 0.930 . S
H473 C481 0.930 . S
H474 C482 0.930 . S
H475 C483 0.930 . S
H476 C486 0.930 . S
H477 C487 0.930 . S
C478 H472 0.930 . S
C478 C479 1.355 . S
C478 C480 1.415 . S
C479 C478 1.355 . S
C479 C481 1.419 1_655 S
C480 C478 1.415 . S
C480 C485 1.425 . S
C480 C487 1.409 . S
C481 H473 0.930 . S
C481 C479 1.419 1_455 S
C481 C482 1.362 1_455 S
C482 H474 0.930 . S
C482 C481 1.362 1_655 S
C482 C485 1.409 . S
C483 H475 0.930 . S
C483 C484 1.355 . S
C483 C485 1.415 . S
C484 C483 1.355 . S
C484 C486 1.419 . S
C485 C480 1.425 . S
C485 C482 1.409 . S
C485 C483 1.415 . S
C486 H476 0.930 . S
C486 C484 1.419 . S
C486 C487 1.362 . S
C487 H477 0.930 . S
C487 C480 1.409 . S
C487 C486 1.362 . S
H488 C494 0.936 . S
H489 C497 0.930 1_655 S
H490 C498 0.930 . S
H491 C499 0.930 . S
H492 C502 0.930 1_545 S
H493 C503 0.930 . S
C494 H488 0.936 . S
C494 C495 1.355 . S
C494 C496 1.408 1_655 S
C495 C494 1.355 . S
C495 C497 1.419 1_655 S
C496 C494 1.408 1_455 S
C496 C501 1.425 . S
C496 C503 1.409 . S
C497 H489 0.930 1_455 S
C497 C495 1.419 1_455 S
C497 C498 1.362 . S
C498 H490 0.930 . S
C498 C497 1.362 . S
C498 C501 1.409 . S
C499 H491 0.930 . S
C499 C500 1.355 . S
C499 C501 1.415 . S
C500 C499 1.355 . S
C500 C502 1.419 . S
C501 C496 1.425 . S
C501 C498 1.409 . S
C501 C499 1.415 . S
C502 H492 0.930 1_565 S
C502 C500 1.419 . S
C502 C503 1.362 . S
C503 H493 0.930 . S
C503 C496 1.409 . S
C503 C502 1.362 . S
H504 C510 0.930 . S
H505 C513 0.930 . S
H506 C514 0.930 . S
H507 C515 0.930 . S
H508 C518 0.930 . S
H509 C519 0.930 . S
C510 H504 0.930 . S
C510 C511 1.355 1_655 S
C510 C512 1.415 . S
C511 C510 1.355 1_455 S
C511 C513 1.419 . S
C512 C510 1.415 . S
C512 C517 1.425 . S
C512 C519 1.409 . S
C513 H505 0.930 . S
C513 C511 1.419 . S
C513 C514 1.362 1_455 S
C514 H506 0.930 . S
C514 C513 1.362 1_655 S
C514 C517 1.409 . S
C515 H507 0.930 . S
C515 C516 1.355 . S
C515 C517 1.415 . S
C516 C515 1.355 . S
C516 C518 1.419 . S
C517 C512 1.425 . S
C517 C514 1.409 . S
C517 C515 1.415 . S
C518 H508 0.930 . S
C518 C516 1.419 . S
C518 C519 1.362 . S
C519 H509 0.930 . S
C519 C512 1.409 . S
C519 C518 1.362 . S
H520 C526 0.930 . S
H521 C529 0.930 . S
H522 C530 0.930 . S
H523 C531 0.930 . S
H524 C534 0.930 . S
H525 C535 0.930 . S
C526 H520 0.930 . S
C526 C527 1.355 . S
C526 C528 1.415 . S
C527 C526 1.355 . S
C527 C529 1.419 . S
C528 C526 1.415 . S
C528 C533 1.425 . S
C528 C535 1.409 . S
C529 H521 0.930 . S
C529 C527 1.419 . S
C529 C530 1.362 . S
C530 H522 0.930 . S
C530 C529 1.362 . S
C530 C533 1.409 . S
C531 H523 0.930 . S
C531 C532 1.355 1_565 S
C531 C533 1.415 . S
C532 C531 1.355 1_545 S
C532 C534 1.419 . S
C533 C528 1.425 . S
C533 C530 1.409 . S
C533 C531 1.415 . S
C534 H524 0.930 . S
C534 C532 1.419 . S
C534 C535 1.362 1_545 S
C535 H525 0.930 . S
C535 C528 1.409 . S
C535 C534 1.362 1_565 S
H536 C542 0.930 . S
H537 C545 0.930 . S
H538 C546 0.930 . S
H539 C547 0.930 . S
H540 C550 0.930 . S
H541 C551 0.930 . S
C542 H536 0.930 . S
C542 C543 1.355 . S
C542 C544 1.415 . S
C543 C542 1.355 . S
C543 C545 1.419 . S
C544 C542 1.415 . S
C544 C549 1.425 . S
C544 C551 1.409 . S
C545 H537 0.930 . S
C545 C543 1.419 . S
C545 C546 1.362 . S
C546 H538 0.930 . S
C546 C545 1.362 . S
C546 C549 1.409 . S
C547 H539 0.930 . S
C547 C548 1.355 . S
C547 C549 1.415 . S
C548 C547 1.355 . S
C548 C550 1.419 . S
C549 C544 1.425 . S
C549 C546 1.409 . S
C549 C547 1.415 . S
C550 H540 0.930 . S
C550 C548 1.419 . S
C550 C551 1.362 . S
C551 H541 0.930 . S
C551 C544 1.409 . S
C551 C550 1.362 . S
H552 C558 0.930 . S
H553 C561 0.930 . S
H554 C562 0.930 . S
H555 C563 0.930 . S
H556 C566 0.930 . S
H557 C567 0.930 . S
C558 H552 0.930 . S
C558 C559 1.355 . S
C558 C560 1.415 . S
C559 C558 1.355 . S
C559 C561 1.419 . S
C560 C558 1.415 . S
C560 C565 1.425 . S
C560 C567 1.409 . S
C561 H553 0.930 . S
C561 C559 1.419 . S
C561 C562 1.362 . S
C562 H554 0.930 . S
C562 C561 1.362 . S
C562 C565 1.409 . S
C563 H555 0.930 . S
C563 C564 1.355 1_455 S
C563 C565 1.415 . S
C564 C563 1.355 1_655 S
C564 C566 1.419 . S
C565 C560 1.425 . S
C565 C562 1.409 . S
C565 C563 1.415 . S
C566 H556 0.930 . S
C566 C564 1.419 . S
C566 C567 1.362 1_655 S
C567 H557 0.930 . S
C567 C560 1.409 . S
C567 C566 1.362 1_455 S
H568 C574 0.930 . S
H569 C577 0.930 . S
H570 C578 0.930 . S
H571 C579 0.930 1_565 S
H572 C582 0.930 . S
H573 C583 0.930 . S
C574 H568 0.930 . S
C574 C575 1.355 . S
C574 C576 1.415 . S
C575 C574 1.355 . S
C575 C577 1.419 . S
C576 C574 1.415 . S
C576 C581 1.425 . S
C576 C583 1.409 . S
C577 H569 0.930 . S
C577 C575 1.419 . S
C577 C578 1.362 . S
C578 H570 0.930 . S
C578 C577 1.362 . S
C578 C581 1.409 . S
C579 H571 0.930 1_545 S
C579 C580 1.355 1_545 S
C579 C581 1.415 . S
C580 C579 1.355 1_565 S
C580 C582 1.419 . S
C581 C576 1.425 . S
C581 C578 1.409 . S
C581 C579 1.415 . S
C582 H572 0.930 . S
C582 C580 1.419 . S
C582 C583 1.362 1_565 S
C583 H573 0.930 . S
C583 C576 1.409 . S
C583 C582 1.362 1_545 S
H584 C590 0.930 . S
H585 C593 0.930 . S
H586 C594 0.930 . S
H587 C595 0.930 1_545 S
H588 C598 0.930 . S
H589 C599 0.930 . S
C590 H584 0.930 . S
C590 C591 1.355 . S
C590 C592 1.415 . S
C591 C590 1.355 . S
C591 C593 1.419 . S
C592 C590 1.415 . S
C592 C597 1.425 . S
C592 C599 1.409 . S
C593 H585 0.930 . S
C593 C591 1.419 . S
C593 C594 1.362 . S
C594 H586 0.930 . S
C594 C593 1.362 . S
C594 C597 1.409 . S
C595 H587 0.930 1_565 S
C595 C596 1.355 . S
C595 C597 1.415 . S
C596 C595 1.355 . S
C596 C598 1.419 . S
C597 C592 1.425 . S
C597 C594 1.409 . S
C597 C595 1.415 . S
C598 H588 0.930 . S
C598 C596 1.419 . S
C598 C599 1.362 . S
C599 H589 0.930 . S
C599 C592 1.409 . S
C599 C598 1.362 . S
H600 C606 0.930 . S
H601 C609 0.930 . S
H602 C610 0.930 . S
H603 C611 0.930 . S
H604 C614 0.930 . S
H605 C615 0.930 . S
C606 H600 0.930 . S
C606 C607 1.355 . S
C606 C608 1.415 . S
C607 C606 1.355 . S
C607 C609 1.419 . S
C608 C606 1.415 . S
C608 C613 1.425 . S
C608 C615 1.409 . S
C609 H601 0.930 . S
C609 C607 1.419 . S
C609 C610 1.362 . S
C610 H602 0.930 . S
C610 C609 1.362 . S
C610 C613 1.409 . S
C611 H603 0.930 . S
C611 C612 1.355 . S
C611 C613 1.415 . S
C612 C611 1.355 . S
C612 C614 1.419 . S
C613 C608 1.425 . S
C613 C610 1.409 . S
C613 C611 1.415 . S
C614 H604 0.930 . S
C614 C612 1.419 . S
C614 C615 1.362 . S
C615 H605 0.930 . S
C615 C608 1.409 . S
C615 C614 1.362 . S
H616 C622 0.930 . S
H617 C625 0.930 . S
H618 C626 0.930 . S
H619 C627 0.930 . S
H620 C630 0.930 . S
H621 C631 0.930 . S
C622 H616 0.930 . S
C622 C623 1.355 . S
C622 C624 1.415 . S
C623 C622 1.355 . S
C623 C625 1.419 . S
C624 C622 1.415 . S
C624 C629 1.425 . S
C624 C631 1.409 . S
C625 H617 0.930 . S
C625 C623 1.419 . S
C625 C626 1.362 . S
C626 H618 0.930 . S
C626 C625 1.362 . S
C626 C629 1.409 . S
C627 H619 0.930 . S
C627 C628 1.355 . S
C627 C629 1.415 . S
C628 C627 1.355 . S
C628 C630 1.419 . S
C629 C624 1.425 . S
C629 C626 1.409 . S
C629 C627 1.415 . S
C630 H620 0.930 . S
C630 C628 1.419 . S
C630 C631 1.362 . S
C631 H621 0.930 . S
C631 C624 1.409 . S
C631 C630 1.362 . S
H632 C638 0.930 . S
H633 C641 0.930 . S
H634 C642 0.930 . S
H635 C643 0.930 . S
H636 C646 0.930 . S
H637 C647 0.930 . S
C638 H632 0.930 . S
C638 C639 1.355 . S
C638 C640 1.415 . S
C639 C638 1.355 . S
C639 C641 1.419 . S
C640 C638 1.415 . S
C640 C645 1.425 . S
C640 C647 1.409 . S
C641 H633 0.930 . S
C641 C639 1.419 . S
C641 C642 1.362 . S
C642 H634 0.930 . S
C642 C641 1.362 . S
C642 C645 1.409 . S
C643 H635 0.930 . S
C643 C644 1.355 . S
C643 C645 1.415 . S
C644 C643 1.355 . S
C644 C646 1.419 . S
C645 C640 1.425 . S
C645 C642 1.409 . S
C645 C643 1.415 . S
C646 H636 0.930 . S
C646 C644 1.419 . S
C646 C647 1.362 . S
C647 H637 0.930 . S
C647 C640 1.409 . S
C647 C646 1.362 . S
H648 C654 0.930 . S
H649 C657 0.930 . S
H650 C658 0.930 . S
H651 C659 0.930 . S
H652 C662 0.930 . S
H653 C663 0.930 . S
C654 H648 0.930 . S
C654 C655 1.355 . S
C654 C656 1.415 . S
C655 C654 1.355 . S
C655 C657 1.419 . S
C656 C654 1.415 . S
C656 C661 1.425 . S
C656 C663 1.409 . S
C657 H649 0.930 . S
C657 C655 1.419 . S
C657 C658 1.362 . S
C658 H650 0.930 . S
C658 C657 1.362 . S
C658 C661 1.409 . S
C659 H651 0.930 . S
C659 C660 1.355 . S
C659 C661 1.415 . S
C660 C659 1.355 . S
C660 C662 1.419 . S
C661 C656 1.425 . S
C661 C658 1.409 . S
C661 C659 1.415 . S
C662 H652 0.930 . S
C662 C660 1.419 . S
C662 C663 1.362 . S
C663 H653 0.930 . S
C663 C656 1.409 . S
C663 C662 1.362 . S
H664 C670 0.930 . S
H665 C673 0.930 . S
H666 C674 0.930 . S
H667 C675 0.930 . S
H668 C678 0.930 . S
H669 C679 0.930 . S
C670 H664 0.930 . S
C670 C671 1.355 . S
C670 C672 1.415 . S
C671 C670 1.355 . S
C671 C673 1.419 . S
C672 C670 1.415 . S
C672 C677 1.425 . S
C672 C679 1.409 . S
C673 H665 0.930 . S
C673 C671 1.419 . S
C673 C674 1.362 . S
C674 H666 0.930 . S
C674 C673 1.362 . S
C674 C677 1.409 . S
C675 H667 0.930 . S
C675 C676 1.355 . S
C675 C677 1.415 . S
C676 C675 1.355 . S
C676 C678 1.419 . S
C677 C672 1.425 . S
C677 C674 1.409 . S
C677 C675 1.415 . S
C678 H668 0.930 . S
C678 C676 1.419 . S
C678 C679 1.362 . S
C679 H669 0.930 . S
C679 C672 1.409 . S
C679 C678 1.362 . S
H680 C686 0.930 . S
H681 C689 0.930 . S
H682 C690 0.930 . S
H683 C691 0.930 . S
H684 C694 0.930 . S
H685 C695 0.930 . S
C686 H680 0.930 . S
C686 C687 1.355 . S
C686 C688 1.415 . S
C687 C686 1.355 . S
C687 C689 1.419 . S
C688 C686 1.415 . S
C688 C693 1.425 . S
C688 C695 1.409 . S
C689 H681 0.930 . S
C689 C687 1.419 . S
C689 C690 1.362 . S
C690 H682 0.930 . S
C690 C689 1.362 . S
C690 C693 1.409 . S
C691 H683 0.930 . S
C691 C692 1.355 . S
C691 C693 1.415 . S
C692 C691 1.355 . S
C692 C694 1.419 . S
C693 C688 1.425 . S
C693 C690 1.409 . S
C693 C691 1.415 . S
C694 H684 0.930 . S
C694 C692 1.419 . S
C694 C695 1.362 . S
C695 H685 0.930 . S
C695 C688 1.409 . S
C695 C694 1.362 . S
H696 C702 0.930 . S
H697 C705 0.930 . S
H698 C706 0.930 . S
H699 C707 0.930 . S
H700 C710 0.930 . S
H701 C711 0.930 . S
C702 H696 0.930 . S
C702 C703 1.355 . S
C702 C704 1.415 . S
C703 C702 1.355 . S
C703 C705 1.419 . S
C704 C702 1.415 . S
C704 C709 1.425 . S
C704 C711 1.409 . S
C705 H697 0.930 . S
C705 C703 1.419 . S
C705 C706 1.362 . S
C706 H698 0.930 . S
C706 C705 1.362 . S
C706 C709 1.409 . S
C707 H699 0.930 . S
C707 C708 1.355 . S
C707 C709 1.415 . S
C708 C707 1.355 . S
C708 C710 1.419 . S
C709 C704 1.425 . S
C709 C706 1.409 . S
C709 C707 1.415 . S
C710 H700 0.930 . S
C710 C708 1.419 . S
C710 C711 1.362 . S
C711 H701 0.930 . S
C711 C704 1.409 . S
C711 C710 1.362 . S
H712 C718 0.930 . S
H713 C721 0.930 . S
H714 C722 0.930 . S
H715 C723 0.930 . S
H716 C726 0.930 . S
H717 C727 0.930 . S
C718 H712 0.930 . S
C718 C719 1.355 . S
C718 C720 1.415 . S
C719 C718 1.355 . S
C719 C721 1.419 . S
C720 C718 1.415 . S
C720 C725 1.425 . S
C720 C727 1.409 . S
C721 H713 0.930 . S
C721 C719 1.419 . S
C721 C722 1.362 . S
C722 H714 0.930 . S
C722 C721 1.362 . S
C722 C725 1.409 . S
C723 H715 0.930 . S
C723 C724 1.355 . S
C723 C725 1.415 . S
C724 C723 1.355 . S
C724 C726 1.419 . S
C725 C720 1.425 . S
C725 C722 1.409 . S
C725 C723 1.415 . S
C726 H716 0.930 . S
C726 C724 1.419 . S
C726 C727 1.362 . S
C727 H717 0.930 . S
C727 C720 1.409 . S
C727 C726 1.362 . S
H728 C734 0.930 . S
H729 C737 0.930 . S
H730 C738 0.930 . S
H731 C739 0.930 . S
H732 C742 0.930 . S
H733 C743 0.930 . S
C734 H728 0.930 . S
C734 C735 1.355 . S
C734 C736 1.415 . S
C735 C734 1.355 . S
C735 C737 1.419 . S
C736 C734 1.415 . S
C736 C741 1.425 . S
C736 C743 1.409 . S
C737 H729 0.930 . S
C737 C735 1.419 . S
C737 C738 1.362 . S
C738 H730 0.930 . S
C738 C737 1.362 . S
C738 C741 1.409 . S
C739 H731 0.930 . S
C739 C740 1.355 . S
C739 C741 1.415 . S
C740 C739 1.355 . S
C740 C742 1.419 . S
C741 C736 1.425 . S
C741 C738 1.409 . S
C741 C739 1.415 . S
C742 H732 0.930 . S
C742 C740 1.419 . S
C742 C743 1.362 . S
C743 H733 0.930 . S
C743 C736 1.409 . S
C743 C742 1.362 . S
H744 C750 0.930 . S
H745 C753 0.930 . S
H746 C754 0.930 . S
H747 C755 0.930 . S
H748 C758 0.930 . S
H749 C759 0.930 . S
C750 H744 0.930 . S
C750 C751 1.355 . S
C750 C752 1.415 . S
C751 C750 1.355 . S
C751 C753 1.419 . S
C752 C750 1.415 . S
C752 C757 1.425 . S
C752 C759 1.409 . S
C753 H745 0.930 . S
C753 C751 1.419 . S
C753 C754 1.362 . S
C754 H746 0.930 . S
C754 C753 1.362 . S
C754 C757 1.409 . S
C755 H747 0.930 . S
C755 C756 1.355 . S
C755 C757 1.415 . S
C756 C755 1.355 . S
C756 C758 1.419 . S
C757 C752 1.425 . S
C757 C754 1.409 . S
C757 C755 1.415 . S
C758 H748 0.930 . S
C758 C756 1.419 . S
C758 C759 1.362 . S
C759 H749 0.930 . S
C759 C752 1.409 . S
C759 C758 1.362 . S
H760 C766 0.930 . S
H761 C769 0.930 . S
H762 C770 0.930 . S
H763 C771 0.930 . S
H764 C774 0.930 . S
H765 C775 0.930 . S
C766 H760 0.930 . S
C766 C767 1.355 . S
C766 C768 1.415 . S
C767 C766 1.355 . S
C767 C769 1.419 . S
C768 C766 1.415 . S
C768 C773 1.425 . S
C768 C775 1.409 . S
C769 H761 0.930 . S
C769 C767 1.419 . S
C769 C770 1.362 . S
C770 H762 0.930 . S
C770 C769 1.362 . S
C770 C773 1.409 . S
C771 H763 0.930 . S
C771 C772 1.355 . S
C771 C773 1.415 . S
C772 C771 1.355 . S
C772 C774 1.419 . S
C773 C768 1.425 . S
C773 C770 1.409 . S
C773 C771 1.415 . S
C774 H764 0.930 . S
C774 C772 1.419 . S
C774 C775 1.362 . S
C775 H765 0.930 . S
C775 C768 1.409 . S
C775 C774 1.362 . S
H776 C782 0.930 . S
H777 C785 0.930 . S
H778 C786 0.930 . S
H779 C787 0.930 . S
H780 C790 0.930 . S
H781 C791 0.930 . S
C782 H776 0.930 . S
C782 C783 1.355 . S
C782 C784 1.415 . S
C783 C782 1.355 . S
C783 C785 1.419 . S
C784 C782 1.415 . S
C784 C789 1.425 . S
C784 C791 1.409 . S
C785 H777 0.930 . S
C785 C783 1.419 . S
C785 C786 1.362 . S
C786 H778 0.930 . S
C786 C785 1.362 . S
C786 C789 1.409 . S
C787 H779 0.930 . S
C787 C788 1.355 . S
C787 C789 1.415 . S
C788 C787 1.355 . S
C788 C790 1.419 . S
C789 C784 1.425 . S
C789 C786 1.409 . S
C789 C787 1.415 . S
C790 H780 0.930 . S
C790 C788 1.419 . S
C790 C791 1.362 . S
C791 H781 0.930 . S
C791 C784 1.409 . S
C791 C790 1.362 . S
H792 C798 0.930 . S
H793 C801 0.930 . S
H794 C802 0.930 . S
H795 C803 0.930 . S
H796 C806 0.930 . S
H797 C807 0.930 . S
C798 H792 0.930 . S
C798 C799 1.355 . S
C798 C800 1.415 . S
C799 C798 1.355 . S
C799 C801 1.419 . S
C800 C798 1.415 . S
C800 C805 1.425 . S
C800 C807 1.409 . S
C801 H793 0.930 . S
C801 C799 1.419 . S
C801 C802 1.362 . S
C802 H794 0.930 . S
C802 C801 1.362 . S
C802 C805 1.409 . S
C803 H795 0.930 . S
C803 C804 1.355 . S
C803 C805 1.415 . S
C804 C803 1.355 . S
C804 C806 1.419 . S
C805 C800 1.425 . S
C805 C802 1.409 . S
C805 C803 1.415 . S
C806 H796 0.930 . S
C806 C804 1.419 . S
C806 C807 1.362 . S
C807 H797 0.930 . S
C807 C800 1.409 . S
C807 C806 1.362 . S
H808 C814 0.930 . S
H809 C817 0.930 . S
H810 C818 0.930 . S
H811 C819 0.930 . S
H812 C822 0.930 . S
H813 C823 0.930 . S
C814 H808 0.930 . S
C814 C815 1.355 . S
C814 C816 1.415 . S
C815 C814 1.355 . S
C815 C817 1.419 . S
C816 C814 1.415 . S
C816 C821 1.425 . S
C816 C823 1.409 . S
C817 H809 0.930 . S
C817 C815 1.419 . S
C817 C818 1.362 . S
C818 H810 0.930 . S
C818 C817 1.362 . S
C818 C821 1.409 . S
C819 H811 0.930 . S
C819 C820 1.355 . S
C819 C821 1.415 . S
C820 C819 1.355 . S
C820 C822 1.419 . S
C821 C816 1.425 . S
C821 C818 1.409 . S
C821 C819 1.415 . S
C822 H812 0.930 . S
C822 C820 1.419 . S
C822 C823 1.362 . S
C823 H813 0.930 . S
C823 C816 1.409 . S
C823 C822 1.362 . S
H824 C830 0.930 . S
H825 C833 0.930 . S
H826 C834 0.930 . S
H827 C835 0.930 . S
H828 C838 0.930 . S
H829 C839 0.930 . S
C830 H824 0.930 . S
C830 C831 1.355 . S
C830 C832 1.415 . S
C831 C830 1.355 . S
C831 C833 1.419 . S
C832 C830 1.415 . S
C832 C837 1.425 . S
C832 C839 1.409 . S
C833 H825 0.930 . S
C833 C831 1.419 . S
C833 C834 1.362 . S
C834 H826 0.930 . S
C834 C833 1.362 . S
C834 C837 1.409 . S
C835 H827 0.930 . S
C835 C836 1.355 . S
C835 C837 1.415 . S
C836 C835 1.355 . S
C836 C838 1.419 . S
C837 C832 1.425 . S
C837 C834 1.409 . S
C837 C835 1.415 . S
C838 H828 0.930 . S
C838 C836 1.419 . S
C838 C839 1.362 . S
C839 H829 0.930 . S
C839 C832 1.409 . S
C839 C838 1.362 . S
H840 C846 0.930 . S
H841 C849 0.930 . S
H842 C850 0.930 . S
H843 C851 0.930 . S
H844 C854 0.930 . S
H845 C855 0.930 . S
C846 H840 0.930 . S
C846 C847 1.355 . S
C846 C848 1.415 . S
C847 C846 1.355 . S
C847 C849 1.419 . S
C848 C846 1.415 . S
C848 C853 1.425 . S
C848 C855 1.409 . S
C849 H841 0.930 . S
C849 C847 1.419 . S
C849 C850 1.362 . S
C850 H842 0.930 . S
C850 C849 1.362 . S
C850 C853 1.409 . S
C851 H843 0.930 . S
C851 C852 1.355 . S
C851 C853 1.415 . S
C852 C851 1.355 . S
C852 C854 1.419 . S
C853 C848 1.425 . S
C853 C850 1.409 . S
C853 C851 1.415 . S
C854 H844 0.930 . S
C854 C852 1.419 . S
C854 C855 1.362 . S
C855 H845 0.930 . S
C855 C848 1.409 . S
C855 C854 1.362 . S
H856 C862 0.930 . S
H857 C865 0.930 . S
H858 C866 0.930 . S
H859 C867 0.930 . S
H860 C870 0.930 . S
H861 C871 0.930 . S
C862 H856 0.930 . S
C862 C863 1.355 . S
C862 C864 1.415 . S
C863 C862 1.355 . S
C863 C865 1.419 . S
C864 C862 1.415 . S
C864 C869 1.425 . S
C864 C871 1.409 . S
C865 H857 0.930 . S
C865 C863 1.419 . S
C865 C866 1.362 . S
C866 H858 0.930 . S
C866 C865 1.362 . S
C866 C869 1.409 . S
C867 H859 0.930 . S
C867 C868 1.355 . S
C867 C869 1.415 . S
C868 C867 1.355 . S
C868 C870 1.419 . S
C869 C864 1.425 . S
C869 C866 1.409 . S
C869 C867 1.415 . S
C870 H860 0.930 . S
C870 C868 1.419 . S
C870 C871 1.362 . S
C871 H861 0.930 . S
C871 C864 1.409 . S
C871 C870 1.362 . S
H872 C878 0.930 . S
H873 C881 0.930 . S
H874 C882 0.930 . S
H875 C883 0.930 . S
H876 C886 0.930 . S
H877 C887 0.930 . S
C878 H872 0.930 . S
C878 C879 1.355 . S
C878 C880 1.415 . S
C879 C878 1.355 . S
C879 C881 1.419 . S
C880 C878 1.415 . S
C880 C885 1.425 . S
C880 C887 1.409 . S
C881 H873 0.930 . S
C881 C879 1.419 . S
C881 C882 1.362 . S
C882 H874 0.930 . S
C882 C881 1.362 . S
C882 C885 1.409 . S
C883 H875 0.930 . S
C883 C884 1.355 . S
C883 C885 1.415 . S
C884 C883 1.355 . S
C884 C886 1.419 . S
C885 C880 1.425 . S
C885 C882 1.409 . S
C885 C883 1.415 . S
C886 H876 0.930 . S
C886 C884 1.419 . S
C886 C887 1.362 . S
C887 H877 0.930 . S
C887 C880 1.409 . S
C887 C886 1.362 . S
H888 C894 0.930 . S
H889 C897 0.930 . S
H890 C898 0.930 . S
H891 C899 0.930 . S
H892 C902 0.930 . S
H893 C903 0.930 . S
C894 H888 0.930 . S
C894 C895 1.355 . S
C894 C896 1.363 1_556 S
C895 C894 1.355 . S
C895 C897 1.419 . S
C896 C894 1.363 1_554 S
C896 C901 1.417 1_554 S
C896 C903 1.469 . S
C897 H889 0.930 . S
C897 C895 1.419 . S
C897 C898 1.362 . S
C898 H890 0.930 . S
C898 C897 1.362 . S
C898 C901 1.469 . S
C899 H891 0.930 . S
C899 C900 1.355 . S
C899 C901 1.363 1_554 S
C900 C899 1.355 . S
C900 C902 1.419 . S
C901 C896 1.417 1_556 S
C901 C898 1.469 . S
C901 C899 1.363 1_556 S
C902 H892 0.930 . S
C902 C900 1.419 . S
C902 C903 1.362 . S
C903 H893 0.930 . S
C903 C896 1.469 . S
C903 C902 1.362 . S
H904 C910 0.930 . S
H905 C913 0.930 . S
H906 C914 0.930 . S
H907 C915 0.930 . S
H908 C918 0.930 . S
H909 C919 0.930 . S
C910 H904 0.930 . S
C910 C911 1.355 . S
C910 C912 1.415 . S
C911 C910 1.355 . S
C911 C913 1.419 . S
C912 C910 1.415 . S
C912 C917 1.425 1_455 S
C912 C919 1.409 1_455 S
C913 H905 0.930 . S
C913 C911 1.419 . S
C913 C914 1.362 . S
C914 H906 0.930 . S
C914 C913 1.362 . S
C914 C917 1.409 1_455 S
C915 H907 0.930 . S
C915 C916 1.355 . S
C915 C917 1.415 . S
C916 C915 1.355 . S
C916 C918 1.419 . S
C917 C912 1.425 1_655 S
C917 C914 1.409 1_655 S
C917 C915 1.415 . S
C918 H908 0.930 . S
C918 C916 1.419 . S
C918 C919 1.362 . S
C919 H909 0.930 . S
C919 C912 1.409 1_655 S
C919 C918 1.362 . S
H920 C926 0.930 . S
H921 C929 0.930 . S
H922 C930 0.930 . S
H923 C931 0.930 . S
H924 C934 0.930 . S
H925 C935 0.930 . S
C926 H920 0.930 . S
C926 C927 1.355 . S
C926 C928 1.415 . S
C927 C926 1.355 . S
C927 C929 1.419 . S
C928 C926 1.415 . S
C928 C933 1.425 1_564 S
C928 C935 1.409 1_564 S
C929 H921 0.930 . S
C929 C927 1.419 . S
C929 C930 1.362 . S
C930 H922 0.930 . S
C930 C929 1.362 . S
C930 C933 1.409 1_564 S
C931 H923 0.930 . S
C931 C932 1.355 . S
C931 C933 1.415 . S
C932 C931 1.355 . S
C932 C934 1.419 . S
C933 C928 1.425 1_546 S
C933 C930 1.409 1_546 S
C933 C931 1.415 . S
C934 H924 0.930 . S
C934 C932 1.419 . S
C934 C935 1.362 . S
C935 H925 0.930 . S
C935 C928 1.409 1_546 S
C935 C934 1.362 . S
H936 C942 0.930 . S
H937 C945 0.930 . S
H938 C946 0.930 . S
H939 C947 0.930 . S
H940 C950 0.930 . S
H941 C951 0.930 . S
C942 H936 0.930 . S
C942 C943 1.355 . S
C942 C944 1.415 . S
C943 C942 1.355 . S
C943 C945 1.419 . S
C944 C942 1.415 . S
C944 C949 1.425 . S
C944 C951 1.409 . S
C945 H937 0.930 . S
C945 C943 1.419 . S
C945 C946 1.362 . S
C946 H938 0.930 . S
C946 C945 1.362 . S
C946 C949 1.409 . S
C947 H939 0.930 . S
C947 C948 1.355 . S
C947 C949 1.415 . S
C948 C947 1.355 . S
C948 C950 1.419 . S
C949 C944 1.425 . S
C949 C946 1.409 . S
C949 C947 1.415 . S
C950 H940 0.930 . S
C950 C948 1.419 . S
C950 C951 1.362 . S
C951 H941 0.930 . S
C951 C944 1.409 . S
C951 C950 1.362 . S
H952 C958 0.930 . S
H953 C961 0.930 . S
H954 C962 0.930 . S
H955 C963 0.930 . S
H956 C966 0.930 . S
H957 C967 0.930 . S
C958 H952 0.930 . S
C958 C959 1.355 . S
C958 C960 1.407 1_556 S
C959 C958 1.355 . S
C959 C961 1.419 . S
C960 C958 1.407 1_554 S
C960 C965 1.425 1_654 S
C960 C967 1.417 . S
C961 H953 0.930 . S
C961 C959 1.419 . S
C961 C962 1.362 1_655 S
C962 H954 0.930 . S
C962 C961 1.362 1_455 S
C962 C965 1.417 . S
C963 H955 0.930 . S
C963 C964 1.355 . S
C963 C965 1.407 1_554 S
C964 C963 1.355 . S
C964 C966 1.419 . S
C965 C960 1.425 1_456 S
C965 C962 1.417 . S
C965 C963 1.407 1_556 S
C966 H956 0.930 . S
C966 C964 1.419 . S
C966 C967 1.362 1_455 S
C967 H957 0.930 . S
C967 C960 1.417 . S
C967 C966 1.362 1_655 S
H968 C974 0.930 . S
H969 C977 0.930 . S
H970 C978 0.930 . S
H971 C979 0.930 . S
H972 C982 0.930 . S
H973 C983 0.930 . S
C974 H968 0.930 . S
C974 C975 1.355 . S
C974 C976 1.415 1_565 S
C975 C974 1.355 . S
C975 C977 1.419 . S
C976 C974 1.415 1_545 S
C976 C981 1.425 1_545 S
C976 C983 1.409 . S
C977 H969 0.930 . S
C977 C975 1.419 . S
C977 C978 1.362 . S
C978 H970 0.930 . S
C978 C977 1.362 . S
C978 C981 1.409 . S
C979 H971 0.930 . S
C979 C980 1.355 . S
C979 C981 1.415 1_545 S
C980 C979 1.355 . S
C980 C982 1.419 . S
C981 C976 1.425 1_565 S
C981 C978 1.409 . S
C981 C979 1.415 1_565 S
C982 H972 0.930 . S
C982 C980 1.419 . S
C982 C983 1.362 . S
C983 H973 0.930 . S
C983 C976 1.409 . S
C983 C982 1.362 . S
C415 C144 1.002 . S
C420 C0 0.960 . S
C431 C178 1.007 . S
C436 C34 0.981 1_455 S
C447 C68 0.965 1_545 S
C452 C8 1.004 . S
C463 C102 0.964 . S
C468 C42 1.004 . S
C479 C136 0.963 1_655 S
C484 C76 1.003 . S
C495 C110 1.010 . S
C500 C170 0.991 1_565 S
C511 C280 1.020 . S
C516 C204 1.031 . S
C527 C238 1.014 1_455 S
C532 C314 1.017 . S
C543 C348 1.017 . S
C548 C272 1.017 1_545 S
C559 C306 1.026 . S
C564 C382 1.019 . S
C575 C340 1.000 1_655 S
C580 C212 1.012 . S
C591 C246 1.019 . S
C596 C374 1.025 1_565 S
C607 C153 1.166 . S
C612 C29 1.203 . S
C623 C63 1.212 . S
C628 C187 1.206 . S
C639 C97 1.210 . S
C644 C17 1.218 . S
C655 C131 1.210 . S
C660 C51 1.218 . S
C671 C85 1.217 . S
C676 C165 1.210 . S
C687 C119 1.194 . S
C692 C199 1.212 . S
C703 C289 1.209 . S
C708 C233 1.212 . S
C719 C267 1.203 . S
C724 C323 1.167 . S
C735 C301 1.209 . S
C740 C357 1.218 . S
C751 C391 1.208 . S
C756 C335 1.202 . S
C767 C369 1.209 . S
C772 C221 1.219 . S
C783 C255 1.219 . S
C788 C403 1.207 . S
C799 C353 1.560 . S
C804 C13 1.545 . S
C815 C47 1.570 . S
C820 C387 1.555 . S
C831 C81 1.571 . S
C836 C217 1.556 . S
C847 C115 1.574 . S
C852 C251 1.562 . S
C863 C149 1.564 . S
C868 C285 1.548 . S
C879 C319 1.566 . S
C884 C183 1.574 . S
C895 C310 1.737 . S
C900 C4 1.738 . S
C911 C344 1.749 . S
C916 C38 1.751 . S
C927 C72 1.766 . S
C932 C378 1.764 . S
C943 C106 1.737 . S
C948 C208 1.737 . S
C959 C242 1.740 . S
C964 C140 1.741 . S
C975 C276 1.759 . S
C980 C174 1.761 . S
