# Generated by pormake.
# Topology neb, (4)-cn, num edge types: 1
# Building blocks:
#     Node 0, Type 0, BuildingBlock: KUFVIS_clean_sbu_0, # of connection points: 4
#     Node 1, Type 0, BuildingBlock: KUFVIS_clean_sbu_0, # of connection points: 4
#     Node 2, Type 0, BuildingBlock: KUFVIS_clean_sbu_0, # of connection points: 4
#     Node 3, Type 0, BuildingBlock: KUFVIS_clean_sbu_0, # of connection points: 4
#     Node 4, Type 0, BuildingBlock: KUFVIS_clean_sbu_0, # of connection points: 4
#     Node 5, Type 0, BuildingBlock: KUFVIS_clean_sbu_0, # of connection points: 4
#     Node 6, Type 0, BuildingBlock: KUFVIS_clean_sbu_0, # of connection points: 4
#     Node 7, Type 0, BuildingBlock: KUFVIS_clean_sbu_0, # of connection points: 4
#     Node 8, Type 0, BuildingBlock: KUFVIS_clean_sbu_0, # of connection points: 4
#     Node 9, Type 0, BuildingBlock: KUFVIS_clean_sbu_0, # of connection points: 4
#     Node 10, Type 0, BuildingBlock: KUFVIS_clean_sbu_0, # of connection points: 4
#     Node 11, Type 0, BuildingBlock: KUFVIS_clean_sbu_0, # of connection points: 4
#     Node 12, Type 0, BuildingBlock: KUFVIS_clean_sbu_0, # of connection points: 4
#     Node 13, Type 0, BuildingBlock: KUFVIS_clean_sbu_0, # of connection points: 4
#     Node 14, Type 0, BuildingBlock: KUFVIS_clean_sbu_0, # of connection points: 4
#     Node 15, Type 0, BuildingBlock: KUFVIS_clean_sbu_0, # of connection points: 4
#     Edge 16, Type (0, 0), BuildingBlock: MIFKUJ_clean_linker_0, # of connection points: 2
#     Edge 17, Type (0, 0), BuildingBlock: MIFKUJ_clean_linker_0, # of connection points: 2
#     Edge 18, Type (0, 0), BuildingBlock: MIFKUJ_clean_linker_0, # of connection points: 2
#     Edge 19, Type (0, 0), BuildingBlock: MIFKUJ_clean_linker_0, # of connection points: 2
#     Edge 20, Type (0, 0), BuildingBlock: MIFKUJ_clean_linker_0, # of connection points: 2
#     Edge 21, Type (0, 0), BuildingBlock: MIFKUJ_clean_linker_0, # of connection points: 2
#     Edge 22, Type (0, 0), BuildingBlock: MIFKUJ_clean_linker_0, # of connection points: 2
#     Edge 23, Type (0, 0), BuildingBlock: MIFKUJ_clean_linker_0, # of connection points: 2
#     Edge 24, Type (0, 0), BuildingBlock: MIFKUJ_clean_linker_0, # of connection points: 2
#     Edge 25, Type (0, 0), BuildingBlock: MIFKUJ_clean_linker_0, # of connection points: 2
#     Edge 26, Type (0, 0), BuildingBlock: MIFKUJ_clean_linker_0, # of connection points: 2
#     Edge 27, Type (0, 0), BuildingBlock: MIFKUJ_clean_linker_0, # of connection points: 2
#     Edge 28, Type (0, 0), BuildingBlock: MIFKUJ_clean_linker_0, # of connection points: 2
#     Edge 29, Type (0, 0), BuildingBlock: MIFKUJ_clean_linker_0, # of connection points: 2
#     Edge 30, Type (0, 0), BuildingBlock: MIFKUJ_clean_linker_0, # of connection points: 2
#     Edge 31, Type (0, 0), BuildingBlock: MIFKUJ_clean_linker_0, # of connection points: 2
#     Edge 32, Type (0, 0), BuildingBlock: MIFKUJ_clean_linker_0, # of connection points: 2
#     Edge 33, Type (0, 0), BuildingBlock: MIFKUJ_clean_linker_0, # of connection points: 2
#     Edge 34, Type (0, 0), BuildingBlock: MIFKUJ_clean_linker_0, # of connection points: 2
#     Edge 35, Type (0, 0), BuildingBlock: MIFKUJ_clean_linker_0, # of connection points: 2
#     Edge 36, Type (0, 0), BuildingBlock: MIFKUJ_clean_linker_0, # of connection points: 2
#     Edge 37, Type (0, 0), BuildingBlock: MIFKUJ_clean_linker_0, # of connection points: 2
#     Edge 38, Type (0, 0), BuildingBlock: MIFKUJ_clean_linker_0, # of connection points: 2
#     Edge 39, Type (0, 0), BuildingBlock: MIFKUJ_clean_linker_0, # of connection points: 2
#     Edge 40, Type (0, 0), BuildingBlock: MIFKUJ_clean_linker_0, # of connection points: 2
#     Edge 41, Type (0, 0), BuildingBlock: MIFKUJ_clean_linker_0, # of connection points: 2
#     Edge 42, Type (0, 0), BuildingBlock: MIFKUJ_clean_linker_0, # of connection points: 2
#     Edge 43, Type (0, 0), BuildingBlock: MIFKUJ_clean_linker_0, # of connection points: 2
#     Edge 44, Type (0, 0), BuildingBlock: MIFKUJ_clean_linker_0, # of connection points: 2
#     Edge 45, Type (0, 0), BuildingBlock: MIFKUJ_clean_linker_0, # of connection points: 2
#     Edge 46, Type (0, 0), BuildingBlock: MIFKUJ_clean_linker_0, # of connection points: 2
#     Edge 47, Type (0, 0), BuildingBlock: MIFKUJ_clean_linker_0, # of connection points: 2
# Relax obj value: 0.013
# Max RMSD: 0.060
# Mean RMSD: 0.060
data_MOF--net-neb--node1-KUFVIS_clean_sbu_0--edge1-MIFKUJ_clean_linker_0
_symmetry_space_group_name_H-M    P1
_symmetry_Int_Tables_number       1
_symmetry_cell_setting            triclinic
loop_
_symmetry_equiv_pos_as_xyz
'x, y, z'
_cell_length_a     54.689242
_cell_length_b     29.186333
_cell_length_c     98.467521
_cell_angle_alpha  93.723813
_cell_angle_beta   89.998634
_cell_angle_gamma 89.993301
loop_
_atom_site_label
_atom_site_type_symbol
_atom_site_fract_x
_atom_site_fract_y
_atom_site_fract_z
_atom_type_partial_charge
Mn0 Mn 0.11963 0.12515 0.44353 0.0
Mn1 Mn 0.16843 0.10609 0.42287 0.0
C2 C 0.11722 0.07142 0.42534 0.0
C3 C 0.09695 0.10648 0.4626 0.0
C4 C 0.13515 0.18912 0.42157 0.0
O5 O 0.14772 0.15388 0.45479 0.0
O6 O 0.1792 0.13576 0.44065 0.0
C7 C 0.19424 0.03668 0.43817 0.0
N8 N 0.18382 0.04932 0.42643 0.0
C9 C 0.19441 0.97706 0.41473 0.0
C10 C 0.2054 0.96338 0.42668 0.0
C11 C 0.20527 0.99329 0.43846 0.0
C12 C 0.18389 0.02086 0.41503 0.0
H13 H 0.19412 0.05953 0.44725 0.0
C14 C 0.17053 0.15344 0.45191 0.0
O15 O 0.09441 0.14603 0.45739 0.0
O16 O 0.11361 0.07944 0.45726 0.0
N17 N 0.16072 0.0772 0.40538 0.0
C18 C 0.14755 0.09406 0.39507 0.0
C19 C 0.14488 0.06744 0.38275 0.0
C20 C 0.15594 0.02399 0.38113 0.0
C21 C 0.16961 0.00756 0.39183 0.0
C22 C 0.17174 0.03572 0.40385 0.0
H23 H 0.13896 0.12739 0.39627 0.0
O24 O 0.09755 0.08962 0.43068 0.0
O25 O 0.13784 0.08518 0.4308 0.0
O26 O 0.12017 0.17896 0.43089 0.0
O27 O 0.15374 0.16453 0.41815 0.0
C28 C 0.18055 0.96376 0.39121 0.0
C29 C 0.19293 0.94852 0.40265 0.0
H30 H 0.21375 0.9298 0.42698 0.0
H31 H 0.2136 0.98287 0.44774 0.0
H32 H 0.13424 0.08029 0.37455 0.0
H33 H 0.15358 0.00333 0.37167 0.0
H34 H 0.17911 0.94114 0.38207 0.0
H35 H 0.20088 0.91445 0.40213 0.0
Mn36 Mn 0.12366 0.13109 0.81229 0.0
Mn37 Mn 0.17751 0.13057 0.82899 0.0
C38 C 0.13022 0.18041 0.83144 0.0
C39 C 0.09838 0.15912 0.79547 0.0
C40 C 0.13843 0.05793 0.8317 0.0
O41 O 0.14636 0.09712 0.79835 0.0
O42 O 0.1815 0.10324 0.81024 0.0
C43 C 0.20508 0.19551 0.81292 0.0
N44 N 0.19621 0.18333 0.8251 0.0
C45 C 0.2174 0.24567 0.83711 0.0
C46 C 0.22684 0.25889 0.82471 0.0
C47 C 0.22046 0.23393 0.81255 0.0
C48 C 0.20167 0.20785 0.83681 0.0
H49 H 0.2006 0.17584 0.80358 0.0
C50 C 0.16945 0.09107 0.79946 0.0
O51 O 0.09424 0.11976 0.80047 0.0
O52 O 0.11779 0.18103 0.79978 0.0
N53 N 0.17645 0.15653 0.84731 0.0
C54 C 0.16562 0.13959 0.85841 0.0
C55 C 0.1695 0.16169 0.87132 0.0
C56 C 0.18506 0.19994 0.87276 0.0
C57 C 0.19637 0.21609 0.86122 0.0
C58 C 0.1913 0.19354 0.84857 0.0
H59 H 0.1541 0.10952 0.85741 0.0
O60 O 0.10819 0.17003 0.82746 0.0
O61 O 0.14772 0.16225 0.82402 0.0
O62 O 0.12254 0.07494 0.82396 0.0
O63 O 0.15954 0.07553 0.83388 0.0
C64 C 0.21297 0.25296 0.86183 0.0
C65 C 0.2234 0.26789 0.84978 0.0
H66 H 0.23903 0.28807 0.82442 0.0
H67 H 0.22765 0.2439 0.80293 0.0
H68 H 0.16077 0.14905 0.88019 0.0
H69 H 0.18829 0.21648 0.88276 0.0
H70 H 0.21806 0.26954 0.87156 0.0
H71 H 0.23634 0.29597 0.85036 0.0
Mn72 Mn 0.89197 0.88618 0.5645 0.0
Mn73 Mn 0.84423 0.90464 0.58599 0.0
C74 C 0.89547 0.93834 0.583 0.0
C75 C 0.91397 0.90578 0.5453 0.0
C76 C 0.87698 0.82067 0.58615 0.0
O77 O 0.86316 0.85909 0.55349 0.0
O78 O 0.83244 0.87645 0.56825 0.0
C79 C 0.8182 0.97596 0.57157 0.0
N80 N 0.82909 0.96216 0.58304 0.0
C81 C 0.81973 0.03405 0.59532 0.0
C82 C 0.80826 0.04892 0.58365 0.0
C83 C 0.80754 0.01978 0.57172 0.0
C84 C 0.82985 0.98988 0.59459 0.0
H85 H 0.81768 0.95371 0.56237 0.0
C86 C 0.84051 0.8595 0.55676 0.0
O87 O 0.91644 0.86571 0.55019 0.0
O88 O 0.89772 0.93288 0.55104 0.0
N89 N 0.853 0.93206 0.60351 0.0
C90 C 0.86649 0.91398 0.6135 0.0
C91 C 0.86997 0.93966 0.62591 0.0
C92 C 0.8594 0.98343 0.62797 0.0
C93 C 0.84539 1.00112 0.61759 0.0
C94 C 0.84243 0.97384 0.60546 0.0
H95 H 0.8747 0.88041 0.61196 0.0
O96 O 0.91483 0.92019 0.57728 0.0
O97 O 0.87456 0.92544 0.57775 0.0
O98 O 0.89166 0.83135 0.57675 0.0
O99 O 0.85871 0.84536 0.59006 0.0
C100 C 0.83488 0.04529 0.61865 0.0
C101 C 0.82207 0.06174 0.60752 0.0
H102 H 0.8002 0.08283 0.58368 0.0
H103 H 0.79884 0.03112 0.56265 0.0
H104 H 0.88086 0.92583 0.63386 0.0
H105 H 0.86236 0.00334 0.6375 0.0
H106 H 0.83697 0.06724 0.62788 0.0
H107 H 0.81446 0.09608 0.60837 0.0
Mn108 Mn 0.88378 0.87003 0.19245 0.0
Mn109 Mn 0.83151 0.85484 0.17453 0.0
C110 C 0.88256 0.81796 0.17359 0.0
C111 C 0.909 0.8488 0.21025 0.0
C112 C 0.86511 0.93708 0.17221 0.0
O113 O 0.85795 0.89976 0.20532 0.0
O114 O 0.82414 0.88065 0.19318 0.0
C115 C 0.80885 0.78235 0.19002 0.0
N116 N 0.81741 0.79693 0.17804 0.0
C117 C 0.80385 0.72762 0.16579 0.0
C118 C 0.79465 0.71205 0.17796 0.0
C119 C 0.7974 0.73934 0.19015 0.0
C120 C 0.81557 0.77032 0.16634 0.0
H121 H 0.81059 0.80353 0.19937 0.0
C122 C 0.83471 0.89804 0.20391 0.0
O123 O 0.91136 0.88844 0.20509 0.0
O124 O 0.89127 0.82294 0.20558 0.0
N125 N 0.83555 0.82978 0.15623 0.0
C126 C 0.84341 0.85147 0.14517 0.0
C127 C 0.84205 0.82867 0.13219 0.0
C128 C 0.83188 0.78448 0.13063 0.0
C129 C 0.82288 0.76372 0.14206 0.0
C130 C 0.82504 0.7878 0.15477 0.0
H131 H 0.85077 0.88583 0.14623 0.0
O132 O 0.9032 0.83395 0.17827 0.0
O133 O 0.86325 0.83224 0.18027 0.0
O134 O 0.88193 0.92449 0.18018 0.0
O135 O 0.84529 0.91454 0.17002 0.0
C136 C 0.81111 0.72072 0.14125 0.0
C137 C 0.80143 0.70289 0.15309 0.0
H138 H 0.78536 0.67932 0.17807 0.0
H139 H 0.79041 0.7275 0.19959 0.0
H140 H 0.84866 0.84521 0.12339 0.0
H141 H 0.83067 0.76718 0.12058 0.0
H142 H 0.80907 0.70139 0.13155 0.0
H143 H 0.79201 0.6702 0.15227 0.0
Mn144 Mn 0.11516 0.63013 0.943 0.0
Mn145 Mn 0.1677 0.61896 0.92501 0.0
C146 C 0.11787 0.57719 0.92454 0.0
C147 C 0.09019 0.60778 0.9608 0.0
C148 C 0.13137 0.69547 0.92135 0.0
O149 O 0.13994 0.66238 0.95593 0.0
O150 O 0.17341 0.65355 0.94269 0.0
C151 C 0.19348 0.55822 0.94324 0.0
N152 N 0.18513 0.56672 0.93062 0.0
C153 C 0.20369 0.49761 0.92077 0.0
C154 C 0.21257 0.48815 0.93365 0.0
C155 C 0.20732 0.51846 0.94495 0.0
C156 C 0.18977 0.53747 0.91972 0.0
H157 H 0.18968 0.58165 0.95192 0.0
C158 C 0.16266 0.6685 0.95363 0.0
O159 O 0.08699 0.64692 0.95546 0.0
O160 O 0.10849 0.58315 0.95627 0.0
N161 N 0.16557 0.58617 0.90759 0.0
C162 C 0.15475 0.5993 0.896 0.0
C163 C 0.15778 0.57216 0.88381 0.0
C164 C 0.17234 0.53245 0.8836 0.0
C165 C 0.18353 0.51992 0.89563 0.0
C166 C 0.17966 0.54806 0.90749 0.0
H167 H 0.14392 0.63025 0.89607 0.0
O168 O 0.09678 0.59222 0.92885 0.0
O169 O 0.13689 0.59316 0.93123 0.0
O170 O 0.11607 0.68454 0.93046 0.0
O171 O 0.15085 0.67272 0.91848 0.0
C172 C 0.19827 0.48052 0.89634 0.0
C173 C 0.2081 0.46907 0.90893 0.0
H174 H 0.22337 0.45766 0.935 0.0
H175 H 0.21404 0.51133 0.95493 0.0
H176 H 0.1491 0.58205 0.87457 0.0
H177 H 0.17473 0.51176 0.87416 0.0
H178 H 0.20195 0.45847 0.8873 0.0
H179 H 0.21901 0.43823 0.90938 0.0
Mn180 Mn 0.11408 0.62437 0.31184 0.0
Mn181 Mn 0.16359 0.64303 0.33201 0.0
C182 C 0.11234 0.67839 0.33003 0.0
C183 C 0.09139 0.64261 0.29269 0.0
C184 C 0.13039 0.55987 0.33337 0.0
O185 O 0.14196 0.59453 0.30053 0.0
O186 O 0.17404 0.61557 0.31395 0.0
C187 C 0.18845 0.71484 0.31722 0.0
N188 N 0.17844 0.70065 0.32889 0.0
C189 C 0.18896 0.77188 0.34119 0.0
C190 C 0.19953 0.78715 0.32932 0.0
C191 C 0.19922 0.75854 0.31728 0.0
C192 C 0.17866 0.72787 0.34054 0.0
H193 H 0.18819 0.69297 0.30794 0.0
C194 C 0.16496 0.59678 0.30294 0.0
O195 O 0.08853 0.60359 0.29815 0.0
O196 O 0.10822 0.66958 0.29789 0.0
N197 N 0.15609 0.6699 0.34978 0.0
C198 C 0.14338 0.65153 0.36002 0.0
C199 C 0.141 0.67666 0.37261 0.0
C200 C 0.15185 0.72019 0.37458 0.0
C201 C 0.16502 0.73822 0.36393 0.0
C202 C 0.1669 0.71149 0.35163 0.0
H203 H 0.13498 0.6181 0.35857 0.0
O204 O 0.09242 0.66102 0.32475 0.0
O205 O 0.13271 0.66399 0.32444 0.0
O206 O 0.11443 0.57121 0.3247 0.0
O207 O 0.14957 0.58344 0.33628 0.0
C208 C 0.17575 0.7822 0.36491 0.0
C209 C 0.18771 0.79902 0.35355 0.0
H210 H 0.20769 0.82096 0.3293 0.0
H211 H 0.20722 0.77019 0.30806 0.0
H212 H 0.13075 0.66256 0.38076 0.0
H213 H 0.14976 0.73966 0.38425 0.0
H214 H 0.17449 0.80374 0.37427 0.0
H215 H 0.19549 0.83322 0.35436 0.0
Mn216 Mn 0.88877 0.37077 0.06239 0.0
Mn217 Mn 0.83974 0.38748 0.08295 0.0
C218 C 0.89159 0.41903 0.08186 0.0
C219 C 0.91153 0.39363 0.04379 0.0
C220 C 0.8713 0.30169 0.0824 0.0
O221 O 0.8604 0.34598 0.05048 0.0
O222 O 0.82887 0.36431 0.06455 0.0
C223 C 0.81706 0.46454 0.06942 0.0
N224 N 0.82655 0.44721 0.0808 0.0
C225 C 0.8186 0.51775 0.0941 0.0
C226 C 0.80863 0.53629 0.08253 0.0
C227 C 0.80792 0.5096 0.07013 0.0
C228 C 0.82748 0.47269 0.09275 0.0
H229 H 0.81652 0.44413 0.05987 0.0
C230 C 0.8375 0.34797 0.05314 0.0
O231 O 0.91385 0.35266 0.0481 0.0
O232 O 0.89527 0.41994 0.04982 0.0
N233 N 0.84747 0.41004 0.10114 0.0
C234 C 0.85816 0.38738 0.11126 0.0
C235 C 0.86018 0.40921 0.12434 0.0
C236 C 0.85101 0.45386 0.12692 0.0
C237 C 0.84005 0.47648 0.11636 0.0
C238 C 0.8383 0.45281 0.10356 0.0
H239 H 0.86503 0.35286 0.10938 0.0
O240 O 0.91118 0.40213 0.07609 0.0
O241 O 0.87104 0.4078 0.07595 0.0
O242 O 0.88721 0.31394 0.07381 0.0
O243 O 0.85267 0.32593 0.08605 0.0
C244 C 0.83087 0.52162 0.11801 0.0
C245 C 0.8203 0.54235 0.10686 0.0
H246 H 0.80158 0.57105 0.08304 0.0
H247 H 0.80033 0.52373 0.06116 0.0
H248 H 0.86869 0.39164 0.13244 0.0
H249 H 0.85245 0.47036 0.13706 0.0
H250 H 0.83205 0.54086 0.12778 0.0
H251 H 0.81358 0.57726 0.10822 0.0
Mn252 Mn 0.89248 0.3859 0.69548 0.0
Mn253 Mn 0.84442 0.36458 0.67442 0.0
C254 C 0.89599 0.3322 0.67734 0.0
C255 C 0.91472 0.36818 0.71481 0.0
C256 C 0.87663 0.44922 0.67351 0.0
O257 O 0.86365 0.4138 0.70638 0.0
O258 O 0.8327 0.39261 0.69218 0.0
C259 C 0.81942 0.29272 0.68913 0.0
N260 N 0.82997 0.30662 0.67757 0.0
C261 C 0.82099 0.23426 0.66546 0.0
C262 C 0.8099 0.21928 0.67722 0.0
C263 C 0.80915 0.24861 0.68911 0.0
C264 C 0.83073 0.27872 0.66606 0.0
H265 H 0.81887 0.31513 0.6983 0.0
C266 C 0.84087 0.41129 0.70343 0.0
O267 O 0.91707 0.40775 0.7096 0.0
O268 O 0.89842 0.34062 0.70933 0.0
N269 N 0.85316 0.33705 0.65691 0.0
C270 C 0.86628 0.35531 0.6468 0.0
C271 C 0.86973 0.32951 0.63441 0.0
C272 C 0.85951 0.28543 0.63248 0.0
C273 C 0.8459 0.26752 0.64298 0.0
C274 C 0.84295 0.29492 0.65509 0.0
H275 H 0.87422 0.38915 0.64823 0.0
O276 O 0.91533 0.35095 0.6829 0.0
O277 O 0.8751 0.34527 0.68259 0.0
O278 O 0.89188 0.43928 0.68271 0.0
O279 O 0.85816 0.42429 0.6701 0.0
C280 C 0.83575 0.22305 0.64205 0.0
C281 C 0.82332 0.20643 0.65328 0.0
H282 H 0.80213 0.18515 0.67728 0.0
H283 H 0.80073 0.23719 0.69825 0.0
H284 H 0.88033 0.34352 0.62637 0.0
H285 H 0.86244 0.26545 0.62296 0.0
H286 H 0.83784 0.201 0.63284 0.0
H287 H 0.81599 0.17187 0.65253 0.0
Mn288 Mn 0.61462 0.13634 0.94246 0.0
Mn289 Mn 0.66603 0.12835 0.9234 0.0
C290 C 0.61567 0.08756 0.92291 0.0
C291 C 0.59085 0.11106 0.96036 0.0
C292 C 0.6301 0.20719 0.92241 0.0
O293 O 0.64045 0.16573 0.95535 0.0
O294 O 0.67342 0.15576 0.94184 0.0
C295 C 0.69205 0.05935 0.93877 0.0
N296 N 0.68297 0.07304 0.9268 0.0
C297 C 0.6992 0.00603 0.91444 0.0
C298 C 0.70881 0.99125 0.92662 0.0
C299 C 0.70514 0.01796 0.93884 0.0
C300 C 0.68625 0.04748 0.91501 0.0
H301 H 0.68935 0.0799 0.94817 0.0
C302 C 0.66336 0.16947 0.95311 0.0
O303 O 0.58755 0.15136 0.95577 0.0
O304 O 0.60858 0.08666 0.95498 0.0
N305 N 0.66211 0.10221 0.90523 0.0
C306 C 0.65082 0.12043 0.89448 0.0
C307 C 0.65299 0.0982 0.88146 0.0
C308 C 0.6669 0.05781 0.87964 0.0
C309 C 0.67791 0.03921 0.89088 0.0
C310 C 0.67545 0.06323 0.90356 0.0
H311 H 0.64055 0.15201 0.89581 0.0
O312 O 0.59506 0.10182 0.92812 0.0
O313 O 0.63528 0.10159 0.92945 0.0
O314 O 0.61471 0.19317 0.931 0.0
O315 O 0.64979 0.18583 0.91905 0.0
C316 C 0.69129 0.99787 0.88998 0.0
C317 C 0.70178 0.9811 0.90178 0.0
H318 H 0.71893 0.95937 0.92671 0.0
H319 H 0.71245 0.00676 0.94829 0.0
H320 H 0.64429 0.11248 0.87282 0.0
H321 H 0.66928 0.04157 0.86955 0.0
H322 H 0.69342 0.97845 0.8803 0.0
H323 H 0.71176 0.94898 0.901 0.0
Mn324 Mn 0.6161 0.1315 0.31325 0.0
Mn325 Mn 0.66829 0.15556 0.33051 0.0
C326 C 0.61639 0.18644 0.33134 0.0
C327 C 0.59025 0.14794 0.29517 0.0
C328 C 0.63741 0.07076 0.33456 0.0
O329 O 0.6424 0.10235 0.30059 0.0
O330 O 0.67594 0.12585 0.31236 0.0
C331 C 0.68737 0.22612 0.31301 0.0
N332 N 0.68028 0.21359 0.3255 0.0
C333 C 0.68995 0.28839 0.33578 0.0
C334 C 0.69751 0.30203 0.32304 0.0
C335 C 0.69611 0.2708 0.3116 0.0
C336 C 0.68115 0.2436 0.33653 0.0
H337 H 0.68633 0.20222 0.30418 0.0
C338 C 0.66562 0.10581 0.30192 0.0
O339 O 0.58877 0.109 0.30085 0.0
O340 O 0.60731 0.17574 0.29959 0.0
N341 N 0.6639 0.18498 0.34829 0.0
C342 C 0.65626 0.16621 0.35988 0.0
C343 C 0.65664 0.19292 0.37227 0.0
C344 C 0.66524 0.23835 0.37267 0.0
C345 C 0.67353 0.25656 0.36067 0.0
C346 C 0.67277 0.22829 0.34863 0.0
H347 H 0.64991 0.13115 0.35968 0.0
O348 O 0.59599 0.16793 0.32716 0.0
O349 O 0.63577 0.17282 0.32466 0.0
O350 O 0.62014 0.07953 0.32633 0.0
O351 O 0.65638 0.09611 0.33644 0.0
C352 C 0.68266 0.30157 0.3602 0.0
C353 C 0.6908 0.3175 0.34774 0.0
H354 H 0.70437 0.33641 0.32193 0.0
H355 H 0.70181 0.28111 0.30172 0.0
H356 H 0.65037 0.1785 0.38151 0.0
H357 H 0.66543 0.25888 0.38223 0.0
H358 H 0.68341 0.32428 0.36933 0.0
H359 H 0.69768 0.35219 0.34747 0.0
Mn360 Mn 0.39016 0.86776 0.06194 0.0
Mn361 Mn 0.338 0.87341 0.08041 0.0
C362 C 0.38781 0.91628 0.08147 0.0
C363 C 0.41451 0.89384 0.04439 0.0
C364 C 0.37485 0.79672 0.08208 0.0
O365 O 0.36519 0.83775 0.04866 0.0
O366 O 0.3319 0.84362 0.0621 0.0
C367 C 0.31164 0.93911 0.06399 0.0
N368 N 0.32032 0.92717 0.07624 0.0
C369 C 0.30254 0.99433 0.08775 0.0
C370 C 0.29332 0.0073 0.07527 0.0
C371 C 0.29797 0.97963 0.06334 0.0
C372 C 0.31613 0.95369 0.08776 0.0
H373 H 0.31509 0.91782 0.05481 0.0
C374 C 0.3425 0.83114 0.05089 0.0
O375 O 0.41791 0.85362 0.04901 0.0
O376 O 0.39639 0.91771 0.04953 0.0
N377 N 0.34052 0.90139 0.09843 0.0
C378 C 0.35138 0.88473 0.10955 0.0
C379 C 0.34818 0.90799 0.12236 0.0
C380 C 0.3337 0.9478 0.12359 0.0
C381 C 0.32306 0.9647 0.11199 0.0
C382 C 0.32655 0.93969 0.09954 0.0
H383 H 0.3621 0.8536 0.10867 0.0
O384 O 0.40877 0.90274 0.07655 0.0
O385 O 0.36858 0.90166 0.07466 0.0
O386 O 0.39004 0.81072 0.07337 0.0
O387 O 0.35505 0.81767 0.08544 0.0
C388 C 0.30905 0.00528 0.1123 0.0
C389 C 0.29895 0.02028 0.10016 0.0
H390 H 0.28274 0.03851 0.07473 0.0
H391 H 0.29096 0.98944 0.05366 0.0
H392 H 0.35653 0.89489 0.13129 0.0
H393 H 0.33055 0.96485 0.1335 0.0
H394 H 0.30613 0.02544 0.12179 0.0
H395 H 0.28846 0.05182 0.1005 0.0
Mn396 Mn 0.38773 0.87159 0.6906 0.0
Mn397 Mn 0.34014 0.8506 0.66918 0.0
C398 C 0.39147 0.8176 0.67255 0.0
C399 C 0.40964 0.85407 0.71005 0.0
C400 C 0.37277 0.93466 0.66829 0.0
O401 O 0.35881 0.89948 0.70135 0.0
O402 O 0.32819 0.88016 0.68673 0.0
C403 C 0.31413 0.78061 0.68415 0.0
N404 N 0.32504 0.79342 0.67256 0.0
C405 C 0.3156 0.72073 0.66078 0.0
C406 C 0.30412 0.70686 0.67257 0.0
C407 C 0.30343 0.73691 0.68431 0.0
C408 C 0.32576 0.76483 0.66119 0.0
H409 H 0.31363 0.80356 0.6932 0.0
C410 C 0.33615 0.89825 0.6981 0.0
O411 O 0.41207 0.89359 0.70482 0.0
O412 O 0.39348 0.82638 0.7045 0.0
N413 N 0.349 0.82171 0.65186 0.0
C414 C 0.36259 0.83881 0.64175 0.0
C415 C 0.36609 0.81212 0.62952 0.0
C416 C 0.35543 0.76835 0.62776 0.0
C417 C 0.34133 0.75166 0.63825 0.0
C418 C 0.33837 0.77991 0.6502 0.0
H419 H 0.37087 0.87239 0.64306 0.0
O420 O 0.41073 0.83654 0.67815 0.0
O421 O 0.37049 0.83084 0.67765 0.0
O422 O 0.38736 0.92514 0.67787 0.0
O423 O 0.35456 0.90944 0.66461 0.0
C424 C 0.33075 0.70755 0.6375 0.0
C425 C 0.3179 0.69209 0.64876 0.0
H426 H 0.29601 0.67305 0.67277 0.0
H427 H 0.29472 0.72635 0.69347 0.0
H428 H 0.37706 0.82518 0.62148 0.0
H429 H 0.35842 0.74766 0.61837 0.0
H430 H 0.33283 0.68487 0.62842 0.0
H431 H 0.31025 0.65779 0.64815 0.0
Mn432 Mn 0.62772 0.62959 0.44258 0.0
Mn433 Mn 0.68241 0.62461 0.42663 0.0
C434 C 0.63261 0.58337 0.42268 0.0
C435 C 0.60103 0.60233 0.45888 0.0
C436 C 0.6463 0.70216 0.42374 0.0
O437 O 0.65072 0.65877 0.45715 0.0
O438 O 0.68584 0.65203 0.44539 0.0
C439 C 0.70496 0.55582 0.44359 0.0
N440 N 0.69855 0.56954 0.43112 0.0
C441 C 0.71651 0.502 0.41991 0.0
C442 C 0.72344 0.48723 0.43263 0.0
C443 C 0.71754 0.51419 0.44452 0.0
C444 C 0.70385 0.54362 0.41964 0.0
H445 H 0.70051 0.5765 0.45275 0.0
C446 C 0.67379 0.66439 0.45612 0.0
O447 O 0.59835 0.64292 0.45438 0.0
O448 O 0.61964 0.57861 0.4543 0.0
N449 N 0.6826 0.59885 0.40834 0.0
C450 C 0.67431 0.6178 0.39692 0.0
C451 C 0.67913 0.59563 0.38414 0.0
C452 C 0.69264 0.55468 0.38329 0.0
C453 C 0.70081 0.53562 0.39514 0.0
C454 C 0.69576 0.55956 0.40757 0.0
H455 H 0.66432 0.64978 0.39755 0.0
O456 O 0.61105 0.59599 0.4269 0.0
O457 O 0.65081 0.59671 0.4305 0.0
O458 O 0.62979 0.68753 0.43162 0.0
O459 O 0.66659 0.68143 0.42134 0.0
C460 C 0.7139 0.49402 0.39511 0.0
C461 C 0.72157 0.47701 0.4075 0.0
H462 H 0.7332 0.4552 0.43338 0.0
H463 H 0.72275 0.50296 0.45437 0.0
H464 H 0.67279 0.61037 0.37497 0.0
H465 H 0.69707 0.53854 0.3735 0.0
H466 H 0.71802 0.47469 0.38562 0.0
H467 H 0.7314 0.44476 0.40737 0.0
Mn468 Mn 0.61753 0.63582 0.8119 0.0
Mn469 Mn 0.66929 0.64932 0.83043 0.0
C470 C 0.61801 0.68562 0.83125 0.0
C471 C 0.59265 0.65838 0.79412 0.0
C472 C 0.63517 0.56781 0.83229 0.0
O473 O 0.64355 0.60788 0.7989 0.0
O474 O 0.67675 0.62188 0.81197 0.0
C475 C 0.69282 0.71993 0.81454 0.0
N476 N 0.68472 0.70582 0.82666 0.0
C477 C 0.6998 0.77451 0.83865 0.0
C478 C 0.70843 0.78972 0.82631 0.0
C479 C 0.70483 0.76238 0.8142 0.0
C480 C 0.68786 0.73203 0.83835 0.0
H481 H 0.69017 0.69893 0.80522 0.0
C482 C 0.66663 0.60678 0.80085 0.0
O483 O 0.59042 0.61806 0.79887 0.0
O484 O 0.60998 0.68431 0.79925 0.0
N485 N 0.66546 0.67581 0.84857 0.0
C486 C 0.65519 0.65697 0.85952 0.0
C487 C 0.65753 0.67961 0.87247 0.0
C488 C 0.67051 0.72113 0.87401 0.0
C489 C 0.68046 0.74034 0.86258 0.0
C490 C 0.67795 0.71582 0.84998 0.0
H491 H 0.64565 0.62455 0.85842 0.0
O492 O 0.5976 0.66941 0.82628 0.0
O493 O 0.63771 0.67301 0.82458 0.0
O494 O 0.61933 0.5797 0.82362 0.0
O495 O 0.65447 0.59105 0.83522 0.0
C496 C 0.69287 0.78273 0.8632 0.0
C497 C 0.70236 0.8 0.85123 0.0
H498 H 0.71772 0.82241 0.82601 0.0
H499 H 0.71136 0.77395 0.80462 0.0
H500 H 0.6497 0.66474 0.88126 0.0
H501 H 0.67307 0.73774 0.88404 0.0
H502 H 0.695 0.80255 0.87282 0.0
H503 H 0.71157 0.83292 0.8518 0.0
Mn504 Mn 0.39591 0.3715 0.55917 0.0
Mn505 Mn 0.34609 0.38887 0.57917 0.0
C506 C 0.39744 0.42392 0.57774 0.0
C507 C 0.41909 0.39144 0.5404 0.0
C508 C 0.37911 0.30541 0.58019 0.0
O509 O 0.36821 0.34319 0.54743 0.0
O510 O 0.33598 0.36218 0.56095 0.0
C511 C 0.32146 0.46138 0.56455 0.0
N512 N 0.33131 0.44669 0.5762 0.0
C513 C 0.32081 0.51761 0.58869 0.0
C514 C 0.31041 0.53339 0.57684 0.0
C515 C 0.31078 0.50518 0.56472 0.0
C516 C 0.33099 0.4735 0.58794 0.0
H517 H 0.32177 0.43983 0.55521 0.0
C518 C 0.3452 0.34469 0.5498 0.0
O519 O 0.42163 0.35168 0.54548 0.0
O520 O 0.40226 0.41811 0.54574 0.0
N521 N 0.35329 0.41496 0.59707 0.0
C522 C 0.36586 0.39614 0.60728 0.0
C523 C 0.36821 0.42087 0.61994 0.0
C524 C 0.35746 0.46448 0.622 0.0
C525 C 0.34442 0.48297 0.61138 0.0
C526 C 0.34257 0.45662 0.59901 0.0
H527 H 0.37421 0.36268 0.60575 0.0
O528 O 0.4174 0.40662 0.57249 0.0
O529 O 0.37713 0.41026 0.57192 0.0
O530 O 0.39507 0.31704 0.57156 0.0
O531 O 0.36004 0.32908 0.58327 0.0
C532 C 0.33381 0.52705 0.61245 0.0
C533 C 0.32201 0.54436 0.60112 0.0
H534 H 0.30234 0.5673 0.57689 0.0
H535 H 0.30291 0.51723 0.55552 0.0
H536 H 0.37836 0.40642 0.62807 0.0
H537 H 0.35954 0.48366 0.63172 0.0
H538 H 0.33506 0.54829 0.62187 0.0
H539 H 0.31432 0.57863 0.60199 0.0
Mn540 Mn 0.38422 0.3683 0.19256 0.0
Mn541 Mn 0.33243 0.35688 0.17398 0.0
C542 C 0.38332 0.31852 0.1732 0.0
C543 C 0.40855 0.34484 0.21046 0.0
C544 C 0.36744 0.43724 0.17228 0.0
O545 O 0.35841 0.3974 0.20549 0.0
O546 O 0.32505 0.38385 0.1925 0.0
C547 C 0.30814 0.28634 0.18957 0.0
N548 N 0.31645 0.30071 0.17752 0.0
C549 C 0.30082 0.23296 0.16527 0.0
C550 C 0.29196 0.21752 0.17753 0.0
C551 C 0.29574 0.24425 0.18974 0.0
C552 C 0.31315 0.27506 0.16574 0.0
H553 H 0.31094 0.30687 0.19896 0.0
C554 C 0.33532 0.39879 0.2036 0.0
O555 O 0.41138 0.38496 0.20565 0.0
O556 O 0.39099 0.31958 0.20528 0.0
N557 N 0.3362 0.33094 0.15578 0.0
C558 C 0.34674 0.34989 0.14492 0.0
C559 C 0.34427 0.32788 0.1319 0.0
C560 C 0.3309 0.28682 0.13018 0.0
C561 C 0.32069 0.26745 0.14152 0.0
C562 C 0.32334 0.29139 0.1542 0.0
H563 H 0.35658 0.38196 0.14615 0.0
O564 O 0.40387 0.3338 0.17824 0.0
O565 O 0.36371 0.33198 0.17984 0.0
O566 O 0.38322 0.42443 0.18084 0.0
O567 O 0.34781 0.41493 0.1694 0.0
C568 C 0.30788 0.22548 0.14072 0.0
C569 C 0.29813 0.20804 0.15261 0.0
H570 H 0.28236 0.1851 0.1777 0.0
H571 H 0.28904 0.23249 0.19925 0.0
H572 H 0.35229 0.34289 0.12319 0.0
H573 H 0.32831 0.27068 0.12009 0.0
H574 H 0.30564 0.20611 0.13104 0.0
H575 H 0.28861 0.17543 0.1519 0.0
H576 H 0.29539 0.33971 0.5516 0.0
H577 H 0.26665 0.30766 0.53472 0.0
H578 H 0.32616 0.27364 0.50717 0.0
H579 H 0.35539 0.30615 0.52408 0.0
H580 H 0.28684 0.31251 0.49436 0.0
H581 H 0.29994 0.19077 0.52399 0.0
H582 H 0.30247 0.15578 0.54607 0.0
H583 H 0.22683 0.18729 0.55376 0.0
H584 H 0.22394 0.22311 0.5318 0.0
H585 H 0.22011 0.16134 0.4491 0.0
H586 H 0.24941 0.19473 0.46549 0.0
H587 H 0.19105 0.22612 0.49404 0.0
H588 H 0.16136 0.19225 0.47767 0.0
H589 H 0.23016 0.18841 0.50621 0.0
H590 H 0.2167 0.31024 0.47689 0.0
H591 H 0.21368 0.34602 0.45494 0.0
H592 H 0.28929 0.31555 0.4468 0.0
H593 H 0.29267 0.27895 0.46861 0.0
C594 C 0.30255 0.32545 0.54198 0.0
C595 C 0.32786 0.32533 0.53928 0.0
C596 C 0.286 0.30698 0.53233 0.0
C597 C 0.29425 0.28771 0.51974 0.0
C598 C 0.31941 0.28821 0.51685 0.0
C599 C 0.33609 0.30666 0.52655 0.0
C600 C 0.27645 0.26698 0.50972 0.0
C601 C 0.27471 0.28488 0.49686 0.0
C602 C 0.26015 0.23179 0.51312 0.0
C603 C 0.26179 0.21 0.5263 0.0
C604 C 0.28389 0.19056 0.53043 0.0
C605 C 0.28538 0.17052 0.54292 0.0
C606 C 0.26484 0.16941 0.55133 0.0
C607 C 0.24274 0.18822 0.54725 0.0
C608 C 0.24116 0.20836 0.53477 0.0
C609 C 0.21335 0.17539 0.45884 0.0
C610 C 0.18824 0.17418 0.462 0.0
C611 C 0.23021 0.19468 0.4682 0.0
C612 C 0.22243 0.21346 0.48094 0.0
C613 C 0.19746 0.21195 0.48424 0.0
C614 C 0.1805 0.19267 0.47485 0.0
C615 C 0.2405 0.23396 0.49085 0.0
C616 C 0.24231 0.21601 0.50369 0.0
C617 C 0.25679 0.2692 0.48744 0.0
C618 C 0.25487 0.29144 0.47434 0.0
C619 C 0.23263 0.31083 0.47037 0.0
C620 C 0.23086 0.33132 0.45796 0.0
C621 C 0.25126 0.33296 0.44947 0.0
C622 C 0.27349 0.31421 0.45338 0.0
C623 C 0.27535 0.29362 0.46577 0.0
H624 H 0.24985 0.34883 0.43986 0.0
H625 H 0.26603 0.15388 0.56099 0.0
H626 H 0.91203 0.98762 0.53349 0.0
H627 H 0.94292 0.02099 0.51927 0.0
H628 H 0.98558 0.89676 0.51964 0.0
H629 H 0.95476 0.86326 0.53414 0.0
H630 H 0.01351 0.9707 0.52558 0.0
H631 H 0.95545 0.92688 0.49071 0.0
H632 H 0.91491 0.92236 0.47975 0.0
H633 H 0.91273 0.06929 0.4792 0.0
H634 H 0.95313 0.07474 0.49033 0.0
H635 H 0.09863 0.02513 0.47466 0.0
H636 H 0.06754 0.99225 0.48883 0.0
H637 H 0.02487 0.11633 0.48788 0.0
H638 H 0.05589 0.14928 0.47337 0.0
H639 H 0.99686 0.04284 0.48229 0.0
H640 H 0.05491 0.08679 0.5171 0.0
H641 H 0.09543 0.09147 0.52808 0.0
H642 H 0.0976 0.94459 0.52883 0.0
H643 H 0.05723 0.93898 0.51767 0.0
C644 C 0.92776 0.96698 0.53037 0.0
C645 C 0.93089 0.92267 0.53495 0.0
C646 C 0.94543 0.98616 0.52219 0.0
C647 C 0.96659 0.9614 0.5183 0.0
C648 C 0.96943 0.91658 0.52252 0.0
C649 C 0.95171 0.89732 0.53072 0.0
C650 C 0.98626 0.98334 0.51049 0.0
C651 C 0.00995 0.98581 0.516 0.0
C652 C 0.98151 0.00441 0.4982 0.0
C653 C 0.95723 1.00123 0.49147 0.0
C654 C 0.94625 0.95825 0.48835 0.0
C655 C 0.9233 0.95552 0.48209 0.0
C656 C 0.91123 0.99552 0.47881 0.0
C657 C 0.9221 0.03834 0.48176 0.0
C658 C 0.94503 0.04126 0.48803 0.0
C659 C 0.08285 0.04585 0.47763 0.0
C660 C 0.07979 0.08994 0.47289 0.0
C661 C 0.06506 0.02696 0.48579 0.0
C662 C 0.04386 0.05182 0.48953 0.0
C663 C 0.04106 0.09643 0.48513 0.0
C664 C 0.05889 0.11538 0.47692 0.0
C665 C 0.02413 0.03017 0.49738 0.0
C666 C 1.00043 0.02776 0.49188 0.0
C667 C 0.02887 0.00919 0.50969 0.0
C668 C 0.05313 0.01246 0.51644 0.0
C669 C 0.06411 0.05547 0.51951 0.0
C670 C 0.08704 0.05829 0.52578 0.0
C671 C 0.09911 0.01835 0.52912 0.0
C672 C 0.08824 0.9755 0.52622 0.0
C673 C 0.06532 0.97248 0.51994 0.0
H674 H 0.11686 0.02061 0.53398 0.0
H675 H 0.89347 0.99333 0.47396 0.0
H676 H 0.28675 0.90638 0.69433 0.0
H677 H 0.25631 0.93747 0.71047 0.0
H678 H 0.31283 0.96641 0.74033 0.0
H679 H 0.3436 0.93494 0.72424 0.0
H680 H 0.2735 0.92507 0.75115 0.0
H681 H 0.28755 0.05186 0.72337 0.0
H682 H 0.29053 0.09016 0.70183 0.0
H683 H 0.21501 0.05997 0.69335 0.0
H684 H 0.21167 0.02087 0.71475 0.0
H685 H 0.21879 0.0792 0.79835 0.0
H686 H 0.24329 0.04428 0.78005 0.0
H687 H 0.17856 0.01926 0.75571 0.0
H688 H 0.15333 0.05512 0.77423 0.0
H689 H 0.21825 0.05344 0.74104 0.0
H690 H 0.20385 0.93131 0.77004 0.0
H691 H 0.2015 0.89478 0.79189 0.0
H692 H 0.27834 0.91736 0.79826 0.0
H693 H 0.2811 0.95466 0.77654 0.0
C694 C 0.29285 0.91944 0.7043 0.0
C695 C 0.31776 0.91816 0.70794 0.0
C696 C 0.27534 0.93741 0.71351 0.0
C697 C 0.28228 0.95467 0.72657 0.0
C698 C 0.30707 0.95332 0.73029 0.0
C699 C 0.32466 0.93544 0.72106 0.0
C700 C 0.26362 0.97325 0.73643 0.0
C701 C 0.26159 0.95342 0.74898 0.0
C702 C 0.24751 0.00926 0.73343 0.0
C703 C 0.24944 0.03298 0.72059 0.0
C704 C 0.27163 0.05304 0.71686 0.0
C705 C 0.27338 0.07496 0.70468 0.0
C706 C 0.25299 0.07738 0.69621 0.0
C707 C 0.2308 0.058 0.69991 0.0
C708 C 0.22896 0.03598 0.71207 0.0
C709 C 0.20948 0.06627 0.78918 0.0
C710 C 0.18387 0.06967 0.78789 0.0
C711 C 0.22366 0.04616 0.77869 0.0
C712 C 0.21277 0.02843 0.76661 0.0
C713 C 0.18731 0.0325 0.76503 0.0
C714 C 0.17293 0.05284 0.77562 0.0
C715 C 0.22845 0.00571 0.75583 0.0
C716 C 0.22995 0.02471 0.74312 0.0
C717 C 0.24416 0.96894 0.75868 0.0
C718 C 0.24264 0.94603 0.77169 0.0
C719 C 0.22022 0.92875 0.77614 0.0
C720 C 0.21882 0.90787 0.7885 0.0
C721 C 0.23975 0.90381 0.79647 0.0
C722 C 0.26214 0.92053 0.79208 0.0
C723 C 0.26364 0.94148 0.77973 0.0
H724 H 0.23862 0.88766 0.80603 0.0
H725 H 0.25438 0.09437 0.68679 0.0
H726 H 0.05541 0.1228 0.78529 0.0
H727 H 0.02468 0.16053 0.7718 0.0
H728 H 0.07035 0.28092 0.77147 0.0
H729 H 0.10104 0.24358 0.78505 0.0
H730 H 0.02399 0.30444 0.77762 0.0
H731 H 0.06383 0.20901 0.74304 0.0
H732 H 0.08023 0.13704 0.73212 0.0
H733 H 0.00833 0.07784 0.73132 0.0
H734 H 0.99154 0.14926 0.74243 0.0
H735 H 0.95578 0.41128 0.72553 0.0
H736 H 0.98707 0.37817 0.73982 0.0
H737 H 0.94395 0.25495 0.74149 0.0
H738 H 0.91283 0.28753 0.72723 0.0
H739 H 0.99012 0.23467 0.73437 0.0
H740 H 0.95047 0.33012 0.76932 0.0
H741 H 0.93424 0.40241 0.78013 0.0
H742 H 0.006 0.46206 0.77997 0.0
H743 H 0.02262 0.39029 0.76898 0.0
C744 C 0.05905 0.1571 0.78222 0.0
C745 C 0.08073 0.18008 0.78622 0.0
C746 C 0.04146 0.17866 0.77449 0.0
C747 C 0.04521 0.22358 0.77054 0.0
C748 C 0.06699 0.24634 0.7744 0.0
C749 C 0.0846 0.22479 0.7821 0.0
C750 C 0.02616 0.24719 0.76271 0.0
C751 C 0.01684 0.28949 0.76806 0.0
C752 C 0.01644 0.22738 0.75036 0.0
C753 C 0.02647 0.18435 0.74369 0.0
C754 C 0.05155 0.18051 0.74065 0.0
C755 C 0.06091 0.13984 0.7344 0.0
C756 C 0.04535 0.10285 0.73106 0.0
C757 C 0.02037 0.1065 0.73393 0.0
C758 C 0.01092 0.14708 0.74019 0.0
C759 C 0.95275 0.37752 0.72918 0.0
C760 C 0.93181 0.35207 0.72521 0.0
C761 C 0.97068 0.35858 0.73734 0.0
C762 C 0.96793 0.31393 0.74172 0.0
C763 C 0.94659 0.28929 0.73818 0.0
C764 C 0.92872 0.30814 0.73007 0.0
C765 C 0.98776 0.29169 0.74934 0.0
C766 C 0.99729 0.24966 0.74392 0.0
C767 C 0.99768 0.31181 0.7616 0.0
C768 C 0.98774 0.355 0.76819 0.0
C769 C 0.96276 0.35879 0.77148 0.0
C770 C 0.9535 0.39964 0.77766 0.0
C771 C 0.96907 0.43685 0.7807 0.0
C772 C 0.99395 0.43324 0.77759 0.0
C773 C 1.00331 0.39247 0.7714 0.0
H774 H 0.96187 0.46845 0.78549 0.0
H775 H 0.05263 0.0714 0.72622 0.0
H776 H 0.79302 0.83699 0.5618 0.0
H777 H 0.76255 0.80537 0.54572 0.0
H778 H 0.81558 0.80519 0.51332 0.0
H779 H 0.84642 0.83686 0.5294 0.0
H780 H 0.77019 0.84216 0.50647 0.0
H781 H 0.80159 0.70748 0.52606 0.0
H782 H 0.81278 0.65956 0.54483 0.0
H783 H 0.73804 0.65937 0.55817 0.0
H784 H 0.72645 0.70793 0.53959 0.0
H785 H 0.72073 0.6947 0.45537 0.0
H786 H 0.74517 0.72992 0.47369 0.0
H787 H 0.68462 0.7206 0.50141 0.0
H788 H 0.65954 0.68451 0.48287 0.0
H789 H 0.72996 0.69207 0.51206 0.0
H790 H 0.69802 0.82199 0.49117 0.0
H791 H 0.68714 0.86897 0.47215 0.0
H792 H 0.76287 0.87812 0.46116 0.0
H793 H 0.7742 0.83056 0.48 0.0
C794 C 0.79831 0.83025 0.55126 0.0
C795 C 0.82225 0.83949 0.5469 0.0
C796 C 0.78084 0.81199 0.54209 0.0
C797 C 0.78682 0.80271 0.52835 0.0
C798 C 0.81061 0.81211 0.5239 0.0
C799 C 0.82823 0.83 0.53311 0.0
C800 C 0.76816 0.78356 0.51861 0.0
C801 C 0.76156 0.80916 0.50761 0.0
C802 C 0.75631 0.74121 0.52039 0.0
C803 C 0.7632 0.7118 0.53153 0.0
C804 C 0.78757 0.69758 0.53307 0.0
C805 C 0.79399 0.67023 0.54366 0.0
C806 C 0.77615 0.65655 0.55271 0.0
C807 C 0.75185 0.67007 0.55116 0.0
C808 C 0.74534 0.69749 0.5406 0.0
C809 C 0.71238 0.69997 0.46532 0.0
C810 C 0.68802 0.68668 0.4676 0.0
C811 C 0.72646 0.72042 0.4758 0.0
C812 C 0.71667 0.72839 0.48888 0.0
C813 C 0.69247 0.7149 0.49135 0.0
C814 C 0.67816 0.69448 0.48075 0.0
C815 C 0.73226 0.75038 0.4998 0.0
C816 C 0.73833 0.72536 0.51102 0.0
C817 C 0.74363 0.79333 0.49824 0.0
C818 C 0.73694 0.8224 0.48696 0.0
C819 C 0.71235 0.83373 0.48465 0.0
C820 C 0.7061 0.86051 0.4739 0.0
C821 C 0.72429 0.87645 0.46544 0.0
C822 C 0.74879 0.86573 0.46773 0.0
C823 C 0.75514 0.83891 0.47845 0.0
H824 H 0.71942 0.89715 0.45712 0.0
H825 H 0.78115 0.63538 0.5609 0.0
H826 H 0.65484 0.04195 0.28084 0.0
H827 H 0.68354 0.00629 0.26411 0.0
H828 H 0.74219 0.08863 0.28194 0.0
H829 H 0.71393 0.12441 0.29847 0.0
H830 H 0.7445 0.08539 0.25463 0.0
H831 H 0.73563 0.97825 0.28938 0.0
H832 H 0.71289 0.92822 0.30419 0.0
H833 H 0.68553 0.84967 0.26904 0.0
H834 H 0.70785 0.89969 0.25402 0.0
H835 H 0.84598 0.95988 0.2254 0.0
H836 H 0.81754 0.99486 0.24241 0.0
H837 H 0.75846 0.91437 0.2243 0.0
H838 H 0.78645 0.87944 0.20746 0.0
H839 H 0.75652 0.91655 0.25183 0.0
H840 H 0.76525 0.02408 0.21711 0.0
H841 H 0.78797 0.07423 0.20233 0.0
H842 H 0.81565 0.15212 0.23751 0.0
H843 H 0.79336 0.10195 0.25251 0.0
C844 C 0.6738 0.05269 0.28111 0.0
C845 C 0.68206 0.08577 0.29109 0.0
C846 C 0.69021 0.03214 0.27159 0.0
C847 C 0.71509 0.04445 0.27187 0.0
C848 C 0.72313 0.07849 0.28153 0.0
C849 C 0.70688 0.09875 0.29104 0.0
C850 C 0.73307 0.02142 0.26237 0.0
C851 C 0.7473 0.04851 0.25413 0.0
C852 C 0.73654 0.97326 0.26157 0.0
C853 C 0.72319 0.94302 0.27057 0.0
C854 C 0.7246 0.95054 0.28481 0.0
C855 C 0.71182 0.92215 0.29324 0.0
C856 C 0.69772 0.88587 0.28756 0.0
C857 C 0.69643 0.87784 0.27343 0.0
C858 C 0.70915 0.90618 0.26495 0.0
C859 C 0.82699 0.94935 0.22515 0.0
C860 C 0.81851 0.91714 0.21499 0.0
C861 C 0.81074 0.9695 0.23482 0.0
C862 C 0.7858 0.95754 0.23453 0.0
C863 C 0.77757 0.9242 0.22472 0.0
C864 C 0.79365 0.90442 0.21504 0.0
C865 C 0.76794 0.98053 0.2441 0.0
C866 C 0.75374 0.95343 0.25235 0.0
C867 C 0.7645 0.02869 0.24492 0.0
C868 C 0.77787 0.05894 0.23593 0.0
C869 C 0.77636 0.05165 0.2217 0.0
C870 C 0.78912 0.08012 0.21328 0.0
C871 C 0.80331 0.11625 0.21898 0.0
C872 C 0.8047 0.12406 0.23311 0.0
C873 C 0.792 0.09563 0.24158 0.0
H874 H 0.81317 0.13827 0.21245 0.0
H875 H 0.68783 0.86392 0.2941 0.0
H876 H 0.9546 0.88283 0.21666 0.0
H877 H 0.98636 0.84674 0.2299 0.0
H878 H 0.936 0.739 0.23887 0.0
H879 H 0.90457 0.77401 0.2253 0.0
H880 H 0.99248 0.82679 0.25497 0.0
H881 H 0.96493 0.63767 0.24086 0.0
H882 H 0.94501 0.59218 0.22197 0.0
H883 H 0.96722 0.69138 0.19408 0.0
H884 H 0.98757 0.73708 0.21275 0.0
H885 H 0.04616 0.60868 0.28543 0.0
H886 H 0.01591 0.64358 0.27092 0.0
H887 H 0.06837 0.74726 0.2615 0.0
H888 H 0.09825 0.71359 0.27638 0.0
H889 H 0.01162 0.6618 0.2451 0.0
H890 H 0.04045 0.84876 0.25751 0.0
H891 H 0.06175 0.89626 0.27545 0.0
H892 H 0.03922 0.80388 0.30527 0.0
H893 H 0.01748 0.7561 0.28752 0.0
C894 C 0.95023 0.85173 0.22159 0.0
C895 C 0.9271 0.83115 0.21986 0.0
C896 C 0.96843 0.83102 0.22913 0.0
C897 C 0.96385 0.78944 0.23515 0.0
C898 C 0.94031 0.77028 0.23402 0.0
C899 C 0.92224 0.79062 0.22636 0.0
C900 C 0.9837 0.76584 0.24244 0.0
C901 C 0.99685 0.79085 0.25267 0.0
C902 C 0.98933 0.71872 0.23961 0.0
C903 C 0.97755 0.69102 0.22825 0.0
C904 C 0.96566 0.64965 0.23069 0.0
C905 C 0.95428 0.62385 0.22002 0.0
C906 C 0.95477 0.63897 0.20684 0.0
C907 C 0.96676 0.6798 0.20429 0.0
C908 C 0.97821 0.70568 0.21492 0.0
C909 C 0.05134 0.63853 0.28012 0.0
C910 C 0.07453 0.65859 0.28216 0.0
C911 C 0.034 0.65856 0.27183 0.0
C912 C 0.03955 0.69886 0.26536 0.0
C913 C 0.0633 0.71704 0.26668 0.0
C914 C 0.08048 0.69749 0.27511 0.0
C915 C 0.02029 0.72272 0.25768 0.0
C916 C 0.00724 0.69772 0.24739 0.0
C917 C 0.01495 0.77004 0.26032 0.0
C918 C 0.02755 0.79868 0.27116 0.0
C919 C 0.03996 0.8387 0.26791 0.0
C920 C 0.05211 0.86563 0.27803 0.0
C921 C 0.05188 0.85299 0.29146 0.0
C922 C 0.03942 0.8135 0.29483 0.0
C923 C 0.02719 0.78646 0.28475 0.0
H924 H 0.06135 0.8739 0.29924 0.0
H925 H 0.94591 0.61899 0.1986 0.0
H926 H 0.34582 0.83631 0.02316 0.0
H927 H 0.3155 0.80843 0.00609 0.0
H928 H 0.27339 0.74882 0.03752 0.0
H929 H 0.30328 0.77666 0.05449 0.0
H930 H 0.27538 0.69241 0.0137 0.0
H931 H 0.25774 0.84958 0.02827 0.0
H932 H 0.26768 0.93169 0.03242 0.0
H933 H 0.2817 0.9417 0.9898 0.0
H934 H 0.2723 0.85933 0.98544 0.0
H935 H 0.15958 0.66689 0.98144 0.0
H936 H 0.19017 0.69641 0.99811 0.0
H937 H 0.23166 0.75289 0.96591 0.0
H938 H 0.2015 0.72323 0.94929 0.0
H939 H 0.23033 0.81107 0.98982 0.0
H940 H 0.24812 0.65432 0.9752 0.0
H941 H 0.23833 0.57222 0.97094 0.0
H942 H 0.22413 0.56148 0.01351 0.0
H943 H 0.23345 0.64384 0.01798 0.0
C944 C 0.33034 0.81648 0.02634 0.0
C945 C 0.3268 0.80894 0.04015 0.0
C946 C 0.31298 0.80082 0.01662 0.0
C947 C 0.29207 0.77697 0.02059 0.0
C948 C 0.28934 0.76718 0.03424 0.0
C949 C 0.3064 0.7833 0.04393 0.0
C950 C 0.27211 0.76468 0.0108 0.0
C951 C 0.2654 0.71838 0.00856 0.0
C952 C 0.25926 0.79853 0.004 0.0
C953 C 0.2646 0.84818 0.00656 0.0
C954 C 0.26315 0.86919 0.0198 0.0
C955 C 0.26866 0.91579 0.02219 0.0
C956 C 0.27538 0.94187 0.01138 0.0
C957 C 0.27654 0.92142 0.99816 0.0
C958 C 0.27112 0.87478 0.99573 0.0
C959 C 0.17494 0.6865 0.978 0.0
C960 C 0.17826 0.69254 0.96408 0.0
C961 C 0.19245 0.7031 0.98749 0.0
C962 C 0.2133 0.72644 0.9832 0.0
C963 C 0.21576 0.73497 0.96943 0.0
C964 C 0.19854 0.71785 0.95996 0.0
C965 C 0.23355 0.73885 0.99277 0.0
C966 C 0.24032 0.78513 0.99495 0.0
C967 C 0.24649 0.70499 0.99952 0.0
C968 C 0.24121 0.65535 0.9969 0.0
C969 C 0.24271 0.63454 0.98364 0.0
C970 C 0.23727 0.58795 0.98118 0.0
C971 C 0.23053 0.56167 0.99194 0.0
C972 C 0.22931 0.58191 0.00518 0.0
C973 C 0.23467 0.62855 0.00768 0.0
H974 H 0.22633 0.52559 0.99002 0.0
H975 H 0.27963 0.97795 0.01324 0.0
H976 H 0.04635 0.64468 0.96981 0.0
H977 H 0.01563 0.60869 0.98382 0.0
H978 H 0.06348 0.49278 0.98769 0.0
H979 H 0.094 0.52815 0.97364 0.0
H980 H 0.01863 0.46427 0.98085 0.0
H981 H 0.05321 0.57252 0.0144 0.0
H982 H 0.06597 0.64895 0.02399 0.0
H983 H 0.99192 0.69698 0.02199 0.0
H984 H 0.97876 0.62097 0.01221 0.0
H985 H 0.95415 0.35589 0.03335 0.0
H986 H 0.98404 0.39222 0.01893 0.0
H987 H 0.93651 0.50953 0.0168 0.0
H988 H 0.90694 0.47393 0.03139 0.0
H989 H 0.98085 0.53781 0.02254 0.0
H990 H 0.94598 0.43018 0.98915 0.0
H991 H 0.93289 0.35413 0.97943 0.0
H992 H 0.00687 0.30542 0.98085 0.0
H993 H 0.02036 0.38104 0.99075 0.0
C994 C 0.05046 0.61186 0.97382 0.0
C995 C 0.07265 0.58934 0.9706 0.0
C996 C 0.03287 0.59127 0.98183 0.0
C997 C 0.03721 0.54793 0.98685 0.0
C998 C 0.05962 0.52605 0.9839 0.0
C999 C 0.07713 0.54652 0.97591 0.0
C1000 C 0.01818 0.52443 0.99474 0.0
C1001 C 0.01059 0.48015 0.99007 0.0
C1002 C 0.00717 0.54547 0.00657 0.0
C1003 C 0.01505 0.59119 0.01244 0.0
C1004 C 0.03968 0.59949 0.01589 0.0
C1005 C 0.04698 0.64271 0.02139 0.0
C1006 C 0.02978 0.67783 0.02356 0.0
C1007 C 0.00523 0.66976 0.02028 0.0
C1008 C 0.99784 0.62661 0.01477 0.0
C1009 C 0.9499 0.38905 0.02961 0.0
C1010 C 0.92815 0.41196 0.03352 0.0
C1011 C 0.96701 0.40986 0.02135 0.0
C1012 C 0.96257 0.45371 0.01671 0.0
C1013 C 0.94049 0.47587 0.02028 0.0
C1014 C 0.92351 0.45529 0.02858 0.0
C1015 C 0.98128 0.47756 0.00867 0.0
C1016 C 0.98883 0.52192 0.01331 0.0
C1017 C 0.99219 0.45665 0.99678 0.0
C1018 C 0.98413 0.41114 0.99082 0.0
C1019 C 0.95942 0.40314 0.9875 0.0
C1020 C 0.95194 0.36013 0.98193 0.0
C1021 C 0.96903 0.32493 0.97956 0.0
C1022 C 0.99365 0.3327 0.98271 0.0
C1023 C 1.00123 0.37564 0.98829 0.0
H1024 H 0.96319 0.29166 0.97525 0.0
H1025 H 0.03546 0.71127 0.02782 0.0
H1026 H 0.34757 0.45131 0.22696 0.0
H1027 H 0.31953 0.48572 0.24422 0.0
H1028 H 0.25826 0.42388 0.22236 0.0
H1029 H 0.2858 0.39044 0.2051 0.0
H1030 H 0.24833 0.50995 0.22943 0.0
H1031 H 0.28105 0.38184 0.25213 0.0
H1032 H 0.31391 0.33455 0.26117 0.0
H1033 H 0.3378 0.4493 0.28733 0.0
H1034 H 0.30526 0.49746 0.27831 0.0
H1035 H 0.1552 0.54218 0.27967 0.0
H1036 H 0.18474 0.5086 0.26317 0.0
H1037 H 0.24381 0.57326 0.28624 0.0
H1038 H 0.21468 0.60607 0.30283 0.0
H1039 H 0.25574 0.48784 0.27877 0.0
H1040 H 0.22267 0.61555 0.25636 0.0
H1041 H 0.18999 0.66307 0.24726 0.0
H1042 H 0.16696 0.54929 0.22046 0.0
H1043 H 0.19933 0.5009 0.22953 0.0
C1044 C 0.32814 0.44489 0.22588 0.0
C1045 C 0.319 0.41828 0.21458 0.0
C1046 C 0.31212 0.46449 0.23577 0.0
C1047 C 0.28673 0.45728 0.23462 0.0
C1048 C 0.27771 0.43025 0.22345 0.0
C1049 C 0.29358 0.41104 0.21357 0.0
C1050 C 0.26927 0.47831 0.24483 0.0
C1051 C 0.24982 0.50466 0.2402 0.0
C1052 C 0.27147 0.4724 0.25893 0.0
C1053 C 0.29088 0.44337 0.26445 0.0
C1054 C 0.29342 0.39707 0.25974 0.0
C1055 C 0.31197 0.3701 0.26487 0.0
C1056 C 0.32798 0.38894 0.27478 0.0
C1057 C 0.32541 0.43477 0.27963 0.0
C1058 C 0.30691 0.4619 0.27452 0.0
C1059 C 0.17446 0.54936 0.28121 0.0
C1060 C 0.18247 0.57688 0.29261 0.0
C1061 C 0.19135 0.53022 0.27175 0.0
C1062 C 0.21654 0.53869 0.27339 0.0
C1063 C 0.22453 0.56606 0.28476 0.0
C1064 C 0.20775 0.58493 0.29423 0.0
C1065 C 0.23468 0.5191 0.26334 0.0
C1066 C 0.25428 0.49315 0.26799 0.0
C1067 C 0.23264 0.52537 0.24925 0.0
C1068 C 0.21328 0.55449 0.24372 0.0
C1069 C 0.21053 0.60058 0.24859 0.0
C1070 C 0.19208 0.62768 0.24343 0.0
C1071 C 0.17637 0.60917 0.23331 0.0
C1072 C 0.17913 0.56356 0.22831 0.0
C1073 C 0.19753 0.53629 0.23345 0.0
H1074 H 0.16209 0.63021 0.22933 0.0
H1075 H 0.34234 0.36802 0.27873 0.0
H1076 H 0.71168 0.19027 0.95066 0.0
H1077 H 0.7396 0.22095 0.96808 0.0
H1078 H 0.68122 0.22632 0.99757 0.0
H1079 H 0.65261 0.19571 0.97997 0.0
H1080 H 0.71043 0.30415 0.99954 0.0
H1081 H 0.7225 0.14131 0.99752 0.0
H1082 H 0.72978 0.06489 0.98607 0.0
H1083 H 0.79892 0.11054 0.97133 0.0
H1084 H 0.79189 0.18751 0.98251 0.0
H1085 H 0.78839 0.33612 0.05648 0.0
H1086 H 0.75861 0.30654 0.03985 0.0
H1087 H 0.81535 0.28982 0.00951 0.0
H1088 H 0.8457 0.31864 0.02631 0.0
H1089 H 0.78597 0.2167 0.00848 0.0
H1090 H 0.77382 0.37954 0.00977 0.0
H1091 H 0.76661 0.45684 0.02065 0.0
H1092 H 0.69795 0.41218 0.03631 0.0
H1093 H 0.70492 0.33438 0.02568 0.0
C1094 C 0.70456 0.19788 0.96082 0.0
C1095 C 0.6798 0.19003 0.9639 0.0
C1096 C 0.72068 0.21539 0.9708 0.0
C1097 C 0.71265 0.22516 0.98419 0.0
C1098 C 0.68784 0.21872 0.9873 0.0
C1099 C 0.67153 0.20117 0.97724 0.0
C1100 C 0.73046 0.24169 0.99481 0.0
C1101 C 0.72674 0.28471 1.00169 0.0
C1102 C 0.75208 0.21684 0.99731 0.0
C1103 C 0.75658 0.17031 0.99078 0.0
C1104 C 0.7392 0.13515 0.99177 0.0
C1105 C 0.74328 0.09172 0.98533 0.0
C1106 C 0.76478 0.08289 0.97795 0.0
C1107 C 0.78227 0.11744 0.97704 0.0
C1108 C 0.77826 0.16097 0.98344 0.0
C1109 C 0.79469 0.32637 0.04627 0.0
C1110 C 0.81955 0.3301 0.04275 0.0
C1111 C 0.77751 0.30957 0.03673 0.0
C1112 C 0.7846 0.29666 0.02334 0.0
C1113 C 0.80942 0.29976 0.01977 0.0
C1114 C 0.82675 0.31634 0.02938 0.0
C1115 C 0.76605 0.27938 0.01319 0.0
C1116 C 0.76963 0.23614 0.00639 0.0
C1117 C 0.74435 0.30412 0.01073 0.0
C1118 C 0.74 0.35101 0.01703 0.0
C1119 C 0.75726 0.38611 0.01561 0.0
C1120 C 0.75321 0.43003 0.02172 0.0
C1121 C 0.73187 0.43938 0.02919 0.0
C1122 C 0.71449 0.40486 0.03053 0.0
C1123 C 0.71847 0.36086 0.02445 0.0
H1124 H 0.72877 0.4734 0.03392 0.0
H1125 H 0.76789 0.04926 0.97296 0.0
H1126 H 0.65453 0.56024 0.77641 0.0
H1127 H 0.68275 0.52748 0.75897 0.0
H1128 H 0.74414 0.5769 0.7832 0.0
H1129 H 0.71645 0.60994 0.80043 0.0
H1130 H 0.75104 0.59317 0.75718 0.0
H1131 H 0.72633 0.46448 0.78236 0.0
H1132 H 0.69672 0.41144 0.79186 0.0
H1133 H 0.67097 0.37148 0.75162 0.0
H1134 H 0.70023 0.42478 0.7419 0.0
H1135 H 0.84898 0.46078 0.72782 0.0
H1136 H 0.81829 0.49407 0.74367 0.0
H1137 H 0.76071 0.43997 0.71735 0.0
H1138 H 0.79102 0.40617 0.70161 0.0
H1139 H 0.75031 0.42672 0.74332 0.0
H1140 H 0.77632 0.55297 0.71805 0.0
H1141 H 0.80612 0.60568 0.70857 0.0
H1142 H 0.82942 0.65034 0.74892 0.0
H1143 H 0.79998 0.59738 0.75864 0.0
C1144 C 0.67403 0.56425 0.77799 0.0
C1145 C 0.68313 0.58752 0.7899 0.0
C1146 C 0.69015 0.54536 0.76804 0.0
C1147 C 0.71561 0.5494 0.76983 0.0
C1148 C 0.72462 0.57332 0.78157 0.0
C1149 C 0.70865 0.59203 0.79147 0.0
C1150 C 0.73314 0.52849 0.75966 0.0
C1151 C 0.75099 0.55669 0.75424 0.0
C1152 C 0.73282 0.48108 0.75559 0.0
C1153 C 0.71526 0.44899 0.76142 0.0
C1154 C 0.71421 0.44466 0.77555 0.0
C1155 C 0.69752 0.4145 0.78097 0.0
C1156 C 0.68192 0.38821 0.77235 0.0
C1157 C 0.68303 0.39193 0.75829 0.0
C1158 C 0.69967 0.42209 0.75281 0.0
C1159 C 0.8298 0.45585 0.72541 0.0
C1160 C 0.82257 0.43096 0.71336 0.0
C1161 C 0.81226 0.47508 0.73446 0.0
C1162 C 0.78717 0.46998 0.73162 0.0
C1163 C 0.77993 0.44446 0.71975 0.0
C1164 C 0.79738 0.4253 0.71072 0.0
C1165 C 0.76838 0.49132 0.74096 0.0
C1166 C 0.75028 0.46323 0.7462 0.0
C1167 C 0.76847 0.53885 0.74487 0.0
C1168 C 0.78611 0.57089 0.73906 0.0
C1169 C 0.78793 0.57378 0.72489 0.0
C1170 C 0.80473 0.60374 0.71948 0.0
C1171 C 0.81969 0.63126 0.72813 0.0
C1172 C 0.81784 0.62896 0.74223 0.0
C1173 C 0.80108 0.599 0.7477 0.0
H1174 H 0.83269 0.65444 0.72392 0.0
H1175 H 0.66901 0.36487 0.77657 0.0
H1176 H 0.54822 0.14817 0.97094 0.0
H1177 H 0.51847 0.11158 0.98537 0.0
H1178 H 0.56541 0.99312 0.98658 0.0
H1179 H 0.59493 0.02909 0.97201 0.0
H1180 H 0.5201 0.96659 0.98119 0.0
H1181 H 0.55804 0.07102 0.01444 0.0
H1182 H 0.57241 0.14619 0.0242 0.0
H1183 H 0.49887 0.19776 0.02431 0.0
H1184 H 0.48409 0.12304 0.01438 0.0
H1185 H 0.45745 0.85725 0.03407 0.0
H1186 H 0.48737 0.89412 0.01982 0.0
H1187 H 0.44033 0.01238 0.01848 0.0
H1188 H 0.41061 0.97611 0.03287 0.0
H1189 H 0.48571 0.03902 0.02396 0.0
H1190 H 0.44782 0.93454 0.99067 0.0
H1191 H 0.4335 0.85932 0.98092 0.0
H1192 H 0.50705 0.80783 0.9809 0.0
H1193 H 0.52178 0.88259 0.99083 0.0
C1194 C 0.55235 0.11461 0.97444 0.0
C1195 C 0.57399 0.09162 0.97033 0.0
C1196 C 0.53533 0.09369 0.98271 0.0
C1197 C 0.53968 0.04954 0.98714 0.0
C1198 C 0.56153 0.02706 0.98327 0.0
C1199 C 0.57849 0.04784 0.97499 0.0
C1200 C 0.52116 0.02597 0.99537 0.0
C1201 C 0.51285 0.98221 0.99065 0.0
C1202 C 0.51117 0.04663 0.00755 0.0
C1203 C 0.52 0.09157 0.01354 0.0
C1204 C 0.54496 0.0985 0.01644 0.0
C1205 C 0.55317 0.141 0.02202 0.0
C1206 C 0.53657 0.17676 0.02484 0.0
C1207 C 0.51171 0.17005 0.02211 0.0
C1208 C 0.5034 0.12762 0.01651 0.0
C1209 C 0.45335 0.89085 0.0306 0.0
C1210 C 0.4316 0.91365 0.0346 0.0
C1211 C 0.47047 0.91193 0.02243 0.0
C1212 C 0.46612 0.95607 0.01799 0.0
C1213 C 0.4442 0.97844 0.02179 0.0
C1214 C 0.42714 0.95749 0.02997 0.0
C1215 C 0.48467 0.97965 0.00978 0.0
C1216 C 0.49297 0.02341 0.01451 0.0
C1217 C 0.49467 0.95898 0.9976 0.0
C1218 C 0.48586 0.91402 0.99162 0.0
C1219 C 0.46091 0.90706 0.98869 0.0
C1220 C 0.45273 0.86453 0.98311 0.0
C1221 C 0.46935 0.82878 0.98033 0.0
C1222 C 0.4942 0.83553 0.98308 0.0
C1223 C 0.50247 0.87798 0.98867 0.0
H1224 H 0.46297 0.79588 0.97601 0.0
H1225 H 0.54297 0.20965 0.02916 0.0
H1226 H 0.40491 0.26434 0.22293 0.0
H1227 H 0.43515 0.22963 0.23733 0.0
H1228 H 0.48167 0.34808 0.23482 0.0
H1229 H 0.45146 0.383 0.22025 0.0
H1230 H 0.50685 0.26868 0.22972 0.0
H1231 H 0.4512 0.32888 0.26405 0.0
H1232 H 0.41098 0.341 0.27502 0.0
H1233 H 0.40408 0.196 0.2791 0.0
H1234 H 0.44412 0.18292 0.26797 0.0
H1235 H 0.59176 0.22538 0.28127 0.0
H1236 H 0.56041 0.25541 0.26674 0.0
H1237 H 0.51614 0.1353 0.27164 0.0
H1238 H 0.54755 0.10514 0.28653 0.0
H1239 H 0.48918 0.21233 0.27516 0.0
H1240 H 0.54511 0.15198 0.24133 0.0
H1241 H 0.58513 0.13945 0.23017 0.0
H1242 H 0.5913 0.28387 0.2249 0.0
H1243 H 0.55146 0.29739 0.2362 0.0
C1244 C 0.42143 0.28336 0.22557 0.0
C1245 C 0.42574 0.32653 0.22045 0.0
C1246 C 0.4387 0.26344 0.23385 0.0
C1247 C 0.46068 0.28627 0.23723 0.0
C1248 C 0.46486 0.32979 0.23234 0.0
C1249 C 0.44751 0.34985 0.22409 0.0
C1250 C 0.47969 0.26381 0.24538 0.0
C1251 C 0.50308 0.25696 0.23974 0.0
C1252 C 0.47458 0.24707 0.25827 0.0
C1253 C 0.45057 0.25488 0.26505 0.0
C1254 C 0.44103 0.29953 0.26719 0.0
C1255 C 0.41827 0.30659 0.27345 0.0
C1256 C 0.40496 0.26929 0.27772 0.0
C1257 C 0.4144 0.22486 0.27577 0.0
C1258 C 0.43714 0.2176 0.2695 0.0
C1259 C 0.57552 0.20491 0.27915 0.0
C1260 C 0.57222 0.16271 0.28505 0.0
C1261 C 0.55759 0.22216 0.27077 0.0
C1262 C 0.53594 0.19753 0.26795 0.0
C1263 C 0.5327 0.15493 0.27364 0.0
C1264 C 0.55074 0.13756 0.28207 0.0
C1265 C 0.51644 0.2175 0.25954 0.0
C1266 C 0.49294 0.22388 0.26512 0.0
C1267 C 0.52143 0.23373 0.24657 0.0
C1268 C 0.54537 0.22573 0.23972 0.0
C1269 C 0.55508 0.18112 0.23788 0.0
C1270 C 0.57772 0.17383 0.23151 0.0
C1271 C 0.59077 0.21085 0.22685 0.0
C1272 C 0.58118 0.25523 0.22852 0.0
C1273 C 0.55856 0.26272 0.2349 0.0
H1274 H 0.6083 0.20513 0.22193 0.0
H1275 H 0.38734 0.27482 0.28256 0.0
H1276 H 0.44953 0.89886 0.7216 0.0
H1277 H 0.48065 0.86662 0.73622 0.0
H1278 H 0.4393 0.74094 0.73664 0.0
H1279 H 0.40834 0.77264 0.72209 0.0
H1280 H 0.48089 0.83107 0.76155 0.0
H1281 H 0.47871 0.6506 0.73316 0.0
H1282 H 0.46989 0.61571 0.71017 0.0
H1283 H 0.48822 0.74243 0.69279 0.0
H1284 H 0.49743 0.77786 0.71562 0.0
H1285 H 0.55161 0.61612 0.78311 0.0
H1286 H 0.52023 0.65016 0.76907 0.0
H1287 H 0.56222 0.7752 0.76907 0.0
H1288 H 0.59343 0.74173 0.78312 0.0
H1289 H 0.52052 0.68611 0.74393 0.0
H1290 H 0.52323 0.86674 0.77154 0.0
H1291 H 0.5335 0.90298 0.79416 0.0
H1292 H 0.51567 0.77802 0.81266 0.0
H1293 H 0.50495 0.74127 0.79019 0.0
C1294 C 0.44687 0.86467 0.72501 0.0
C1295 C 0.42651 0.83825 0.7206 0.0
C1296 C 0.46469 0.84626 0.73334 0.0
C1297 C 0.46254 0.80103 0.73732 0.0
C1298 C 0.44159 0.77559 0.73351 0.0
C1299 C 0.42381 0.79393 0.72524 0.0
C1300 C 0.48258 0.7795 0.74493 0.0
C1301 C 0.48977 0.79971 0.75762 0.0
C1302 C 0.49393 0.73813 0.73991 0.0
C1303 C 0.48852 0.71698 0.72613 0.0
C1304 C 0.48091 0.67096 0.72443 0.0
C1305 C 0.47584 0.6511 0.71142 0.0
C1306 C 0.47846 0.67688 0.70003 0.0
C1307 C 0.48613 0.72256 0.70162 0.0
C1308 C 0.49123 0.74255 0.71459 0.0
C1309 C 0.55428 0.65066 0.77999 0.0
C1310 C 0.57497 0.67626 0.78431 0.0
C1311 C 0.53632 0.6701 0.77197 0.0
C1312 C 0.53864 0.71556 0.76821 0.0
C1313 C 0.55978 0.74041 0.77205 0.0
C1314 C 0.5777 0.72106 0.78003 0.0
C1315 C 0.51875 0.73753 0.76059 0.0
C1316 C 0.5116 0.71741 0.74788 0.0
C1317 C 0.50757 0.77915 0.76555 0.0
C1318 C 0.51354 0.80114 0.77916 0.0
C1319 C 0.5214 0.84708 0.78044 0.0
C1320 C 0.52731 0.86769 0.79324 0.0
C1321 C 0.52532 0.84277 0.80483 0.0
C1322 C 0.51729 0.79723 0.80367 0.0
C1323 C 0.51133 0.77648 0.7909 0.0
H1324 H 0.52994 0.85877 0.81472 0.0
H1325 H 0.47465 0.66143 0.68997 0.0
H1326 H 0.41606 0.47129 0.5276 0.0
H1327 H 0.44663 0.50461 0.51315 0.0
H1328 H 0.49181 0.38431 0.51564 0.0
H1329 H 0.46125 0.35082 0.53032 0.0
H1330 H 0.51804 0.46158 0.52071 0.0
H1331 H 0.4621 0.40636 0.48606 0.0
H1332 H 0.42202 0.39591 0.47482 0.0
H1333 H 0.41599 0.54157 0.47178 0.0
H1334 H 0.4559 0.55296 0.48318 0.0
H1335 H 0.60342 0.51943 0.47013 0.0
H1336 H 0.57235 0.48306 0.48359 0.0
H1337 H 0.52628 0.60243 0.48172 0.0
H1338 H 0.55733 0.639 0.46806 0.0
H1339 H 0.50061 0.52445 0.4761 0.0
H1340 H 0.55599 0.57992 0.51105 0.0
H1341 H 0.59594 0.59082 0.52241 0.0
H1342 H 0.60283 0.44509 0.52499 0.0
H1343 H 0.56305 0.43325 0.51347 0.0
C1344 C 0.43231 0.4515 0.52492 0.0
C1345 C 0.43617 0.40829 0.53011 0.0
C1346 C 0.44979 0.47063 0.5166 0.0
C1347 C 0.47153 0.44695 0.51321 0.0
C1348 C 0.47519 0.40326 0.51811 0.0
C1349 C 0.45763 0.384 0.52642 0.0
C1350 C 0.49086 0.46898 0.50517 0.0
C1351 C 0.51432 0.4746 0.51084 0.0
C1352 C 0.48589 0.48727 0.49248 0.0
C1353 C 0.46191 0.48054 0.48559 0.0
C1354 C 0.45215 0.4362 0.48309 0.0
C1355 C 0.42947 0.4301 0.47668 0.0
C1356 C 0.41644 0.46806 0.47262 0.0
C1357 C 0.42609 0.5122 0.47494 0.0
C1358 C 0.44876 0.51849 0.48137 0.0
C1359 C 0.58679 0.53823 0.47268 0.0
C1360 C 0.58291 0.58224 0.46804 0.0
C1361 C 0.56903 0.51737 0.48043 0.0
C1362 C 0.54699 0.54005 0.48378 0.0
C1363 C 0.54313 0.58422 0.47927 0.0
C1364 C 0.56096 0.6052 0.47153 0.0
C1365 C 0.52776 0.51704 0.49164 0.0
C1366 C 0.50433 0.5113 0.48595 0.0
C1367 C 0.53274 0.49867 0.50432 0.0
C1368 C 0.55665 0.50568 0.51128 0.0
C1369 C 0.56612 0.55016 0.51394 0.0
C1370 C 0.58871 0.55652 0.52043 0.0
C1371 C 0.60195 0.51867 0.52439 0.0
C1372 C 0.59258 0.47438 0.5219 0.0
C1373 C 0.57 0.46783 0.5154 0.0
H1374 H 0.61944 0.52366 0.52941 0.0
H1375 H 0.39889 0.46326 0.46765 0.0
H1376 H 0.08424 0.68873 0.35274 0.0
H1377 H 0.08134 0.75664 0.36864 0.0
H1378 H 0.13472 0.82561 0.3448 0.0
H1379 H 0.13548 0.75961 0.32832 0.0
H1380 H 0.10893 0.79399 0.38517 0.0
H1381 H 0.13442 0.93674 0.34898 0.0
H1382 H 0.12732 0.95566 0.32523 0.0
H1383 H 0.06203 0.87364 0.32378 0.0
H1384 H 0.06872 0.85444 0.34746 0.0
H1385 H 0.14084 0.99031 0.4267 0.0
H1386 H 0.13869 0.9236 0.4105 0.0
H1387 H 0.08237 0.991 0.38827 0.0
H1388 H 0.08699 0.05978 0.4036 0.0
H1389 H 0.10773 0.95389 0.37104 0.0
H1390 H 0.07411 0.89398 0.411 0.0
H1391 H 0.07234 0.87567 0.43509 0.0
H1392 H 0.13687 0.79262 0.42972 0.0
H1393 H 0.13919 0.81088 0.40563 0.0
C1394 C 0.09513 0.71874 0.35093 0.0
C1395 C 0.11093 0.71859 0.33973 0.0
C1396 C 0.0936 0.75744 0.36002 0.0
C1397 C 0.10782 0.79663 0.35802 0.0
C1398 C 0.1231 0.79656 0.34653 0.0
C1399 C 0.12406 0.75838 0.33727 0.0
C1400 C 0.10727 0.8368 0.36815 0.0
C1401 C 0.10836 0.82895 0.38206 0.0
C1402 C 0.10621 0.88261 0.36423 0.0
C1403 C 0.1022 0.89384 0.34994 0.0
C1404 C 0.11854 0.92282 0.34357 0.0
C1405 C 0.11462 0.93352 0.33011 0.0
C1406 C 0.09431 0.91573 0.32296 0.0
C1407 C 0.07786 0.88721 0.32926 0.0
C1408 C 0.08173 0.87632 0.3427 0.0
C1409 C 0.12859 0.99112 0.41808 0.0
C1410 C 0.11517 0.03078 0.41584 0.0
C1411 C 0.12678 0.95246 0.40904 0.0
C1412 C 0.11021 0.95169 0.3981 0.0
C1413 C 0.09565 0.99071 0.39642 0.0
C1414 C 0.09817 0.02995 0.4052 0.0
C1415 C 0.10863 0.9112 0.38812 0.0
C1416 C 0.10771 0.91897 0.3742 0.0
C1417 C 0.10832 0.86535 0.39209 0.0
C1418 C 0.10693 0.85412 0.40655 0.0
C1419 C 0.08799 0.87201 0.41498 0.0
C1420 C 0.08689 0.86163 0.42863 0.0
C1421 C 0.10451 0.83308 0.43393 0.0
C1422 C 0.12324 0.81476 0.42559 0.0
C1423 C 0.12445 0.82507 0.41194 0.0
H1424 H 0.10363 0.8251 0.4445 0.0
H1425 H 0.09129 0.9242 0.31255 0.0
H1426 H 0.16756 0.23004 0.40522 0.0
H1427 H 0.16095 0.29504 0.39148 0.0
H1428 H 0.0869 0.30796 0.40625 0.0
H1429 H 0.09333 0.24193 0.42019 0.0
H1430 H 0.09172 0.31306 0.37735 0.0
H1431 H 0.12612 0.38447 0.41809 0.0
H1432 H 0.15569 0.39213 0.43701 0.0
H1433 H 0.21422 0.40781 0.40862 0.0
H1434 H 0.18506 0.39956 0.38951 0.0
H1435 H 0.08724 0.52532 0.34279 0.0
H1436 H 0.08264 0.46463 0.35877 0.0
H1437 H 0.16055 0.44102 0.35732 0.0
H1438 H 0.16521 0.50241 0.34191 0.0
H1439 H 0.14727 0.44742 0.38226 0.0
H1440 H 0.11549 0.36514 0.34173 0.0
H1441 H 0.08761 0.35224 0.32217 0.0
H1442 H 0.02603 0.35355 0.34925 0.0
H1443 H 0.05356 0.36701 0.36897 0.0
C1444 C 0.14982 0.24658 0.40566 0.0
C1445 C 0.13098 0.23065 0.41389 0.0
C1446 C 0.14611 0.28395 0.39778 0.0
C1447 C 0.12351 0.30661 0.3979 0.0
C1448 C 0.10452 0.29098 0.40604 0.0
C1449 C 0.10828 0.25348 0.41406 0.0
C1450 C 0.12021 0.34642 0.38939 0.0
C1451 C 0.10346 0.343 0.37856 0.0
C1452 C 0.13585 0.38501 0.39085 0.0
C1453 C 0.15338 0.39118 0.40235 0.0
C1454 C 0.14531 0.38935 0.41587 0.0
C1455 C 0.162 0.3938 0.42663 0.0
C1456 C 0.18682 0.40037 0.42402 0.0
C1457 C 0.19498 0.40272 0.41063 0.0
C1458 C 0.17837 0.39825 0.39983 0.0
C1459 C 0.10326 0.50648 0.34571 0.0
C1460 C 0.12658 0.5186 0.34111 0.0
C1461 C 0.10064 0.47182 0.35486 0.0
C1462 C 0.12126 0.44809 0.35933 0.0
C1463 C 0.14436 0.45901 0.3542 0.0
C1464 C 0.14701 0.49397 0.34531 0.0
C1465 C 0.11942 0.41343 0.3698 0.0
C1466 C 0.13519 0.41795 0.38109 0.0
C1467 C 0.10307 0.37568 0.36865 0.0
C1468 C 0.08654 0.36765 0.35681 0.0
C1469 C 0.09599 0.36306 0.3435 0.0
C1470 C 0.08026 0.35557 0.33239 0.0
C1471 C 0.05506 0.35224 0.33446 0.0
C1472 C 0.04555 0.35624 0.34766 0.0
C1473 C 0.0612 0.36378 0.35881 0.0
H1474 H 0.04291 0.34643 0.32585 0.0
H1475 H 0.19973 0.40368 0.43236 0.0
H1476 H 0.15322 0.26045 0.82749 0.0
H1477 H 0.15219 0.33035 0.84238 0.0
H1478 H 0.11581 0.25689 0.87326 0.0
H1479 H 0.1144 0.18831 0.85762 0.0
H1480 H 0.09243 0.32872 0.87068 0.0
H1481 H 0.18951 0.34259 0.88426 0.0
H1482 H 0.23274 0.35496 0.87827 0.0
H1483 H 0.21058 0.41572 0.84169 0.0
H1484 H 0.16729 0.40622 0.84792 0.0
H1485 H 0.14355 0.499 0.92692 0.0
H1486 H 0.14529 0.43176 0.91072 0.0
H1487 H 0.09416 0.4962 0.88457 0.0
H1488 H 0.09291 0.56426 0.9007 0.0
H1489 H 0.16003 0.43547 0.88327 0.0
H1490 H 0.06032 0.39949 0.86892 0.0
H1491 H 0.019 0.41092 0.87863 0.0
H1492 H 0.0483 0.4061 0.91897 0.0
H1493 H 0.08971 0.39398 0.9095 0.0
C1494 C 0.14552 0.25921 0.8376 0.0
C1495 C 0.13415 0.21909 0.84154 0.0
C1496 C 0.1453 0.29919 0.84626 0.0
C1497 C 0.13448 0.29934 0.85922 0.0
C1498 C 0.12425 0.25814 0.86334 0.0
C1499 C 0.12354 0.2188 0.85446 0.0
C1500 C 0.13091 0.34274 0.8679 0.0
C1501 C 0.10741 0.35186 0.87341 0.0
C1502 C 0.14995 0.37441 0.87133 0.0
C1503 C 0.1752 0.37084 0.86609 0.0
C1504 C 0.19391 0.35727 0.87473 0.0
C1505 C 0.21841 0.36492 0.87148 0.0
C1506 C 0.22441 0.38556 0.85952 0.0
C1507 C 0.20593 0.39907 0.85085 0.0
C1508 C 0.18141 0.39269 0.85426 0.0
C1509 C 0.13304 0.49902 0.91759 0.0
C1510 C 0.11897 0.53728 0.91468 0.0
C1511 C 0.13376 0.46049 0.90846 0.0
C1512 C 0.11984 0.45912 0.89647 0.0
C1513 C 0.10494 0.49662 0.8938 0.0
C1514 C 0.10438 0.53542 0.90293 0.0
C1515 C 0.12242 0.41955 0.88643 0.0
C1516 C 0.14537 0.41184 0.88056 0.0
C1517 C 0.10297 0.3897 0.88266 0.0
C1518 C 0.07814 0.3964 0.88849 0.0
C1519 C 0.05792 0.40075 0.87986 0.0
C1520 C 0.03449 0.40734 0.88532 0.0
C1521 C 0.03104 0.40941 0.89941 0.0
C1522 C 0.05101 0.40471 0.90806 0.0
C1523 C 0.07447 0.39807 0.90265 0.0
H1524 H 0.01289 0.41454 0.90362 0.0
H1525 H 0.24338 0.39126 0.857 0.0
H1526 H 0.08804 0.74219 0.91756 0.0
H1527 H 0.08169 0.8071 0.90313 0.0
H1528 H 0.15836 0.80507 0.89286 0.0
H1529 H 0.16483 0.74131 0.90705 0.0
H1530 H 0.14165 0.89213 0.89952 0.0
H1531 H 0.11604 0.75577 0.87143 0.0
H1532 H 0.08962 0.68831 0.86639 0.0
H1533 H 0.0262 0.77528 0.8676 0.0
H1534 H 0.05226 0.8432 0.87283 0.0
H1535 H 0.16974 0.99503 0.84105 0.0
H1536 H 0.16096 0.93585 0.85666 0.0
H1537 H 0.08433 0.97049 0.85597 0.0
H1538 H 0.093 0.02977 0.83996 0.0
H1539 H 0.09194 0.87596 0.85729 0.0
H1540 H 0.11622 0.01245 0.88259 0.0
H1541 H 0.14116 0.08152 0.88784 0.0
H1542 H 0.20465 0.99751 0.8927 0.0
H1543 H 0.17999 0.92776 0.88748 0.0
C1544 C 0.10353 0.75592 0.9123 0.0
C1545 C 0.12691 0.73635 0.91344 0.0
C1546 C 0.09985 0.79279 0.90401 0.0
C1547 C 0.11955 0.81078 0.89686 0.0
C1548 C 0.14289 0.79187 0.89828 0.0
C1549 C 0.14652 0.75514 0.90639 0.0
C1550 C 0.11651 0.84897 0.88772 0.0
C1551 C 0.13073 0.88857 0.89031 0.0
C1552 C 0.10159 0.84521 0.87594 0.0
C1553 C 0.08604 0.80443 0.87268 0.0
C1554 C 0.09644 0.76044 0.87073 0.0
C1555 C 0.08154 0.72214 0.86782 0.0
C1556 C 0.05624 0.72748 0.86672 0.0
C1557 C 0.0458 0.77117 0.86848 0.0
C1558 C 0.06062 0.80957 0.87141 0.0
C1559 C 0.15093 0.98973 0.84403 0.0
C1560 C 0.1321 0.01747 0.83937 0.0
C1561 C 0.14594 0.95591 0.85301 0.0
C1562 C 0.12207 0.94946 0.85776 0.0
C1563 C 0.10291 0.97509 0.85251 0.0
C1564 C 0.10788 0.00886 0.84335 0.0
C1565 C 0.11793 0.91801 0.86885 0.0
C1566 C 0.10239 0.87995 0.86666 0.0
C1567 C 0.13139 0.92331 0.88113 0.0
C1568 C 0.14628 0.96494 0.88458 0.0
C1569 C 0.13552 0.00872 0.88474 0.0
C1570 C 0.14962 0.048 0.88771 0.0
C1571 C 0.17454 0.04399 0.89053 0.0
C1572 C 0.18535 1.00059 0.8905 0.0
C1573 C 0.1713 0.96114 0.88759 0.0
H1574 H 0.18544 0.07449 0.89278 0.0
H1575 H 0.04473 0.69779 0.86447 0.0
H1576 H 0.87365 0.25014 0.67888 0.0
H1577 H 0.87651 0.18339 0.66275 0.0
H1578 H 0.93122 0.25332 0.64006 0.0
H1579 H 0.92609 0.32196 0.65546 0.0
H1580 H 0.90534 0.21476 0.62304 0.0
H1581 H 0.94224 0.15725 0.66224 0.0
H1582 H 0.94623 0.13973 0.68631 0.0
H1583 H 0.88249 0.05389 0.68272 0.0
H1584 H 0.87794 0.07135 0.65867 0.0
H1585 H 0.92612 0.94858 0.60465 0.0
H1586 H 0.93132 0.017 0.62014 0.0
H1587 H 0.8754 0.08634 0.59815 0.0
H1588 H 0.87247 0.01994 0.58191 0.0
H1589 H 0.9059 0.05523 0.63749 0.0
H1590 H 0.87655 0.19829 0.60221 0.0
H1591 H 0.88006 0.21575 0.57811 0.0
H1592 H 0.94402 0.1307 0.57375 0.0
H1593 H 0.94108 0.1132 0.59787 0.0
C1594 C 0.88578 0.25141 0.67022 0.0
C1595 C 0.89862 0.29164 0.66788 0.0
C1596 C 0.88797 0.21281 0.6612 0.0
C1597 C 0.90427 0.2128 0.65015 0.0
C1598 C 0.91822 0.25246 0.64834 0.0
C1599 C 0.9154 0.29158 0.65714 0.0
C1600 C 0.90597 0.17237 0.64018 0.0
C1601 C 0.90579 0.17991 0.62624 0.0
C1602 C 0.90693 0.12668 0.64424 0.0
C1603 C 0.90966 0.11588 0.65868 0.0
C1604 C 0.929 0.13484 0.66661 0.0
C1605 C 0.93137 0.1249 0.68024 0.0
C1606 C 0.9146 0.09579 0.68605 0.0
C1607 C 0.89546 0.07646 0.67821 0.0
C1608 C 0.893 0.08631 0.66457 0.0
C1609 C 0.91518 0.97878 0.60315 0.0
C1610 C 0.89806 0.97864 0.59257 0.0
C1611 C 0.91803 0.01777 0.612 0.0
C1612 C 0.90378 0.05722 0.6104 0.0
C1613 C 0.88709 0.0571 0.59953 0.0
C1614 C 0.88487 0.01867 0.59046 0.0
C1615 C 0.9057 0.09764 0.62035 0.0
C1616 C 0.9061 0.09009 0.63429 0.0
C1617 C 0.90635 0.14334 0.61629 0.0
C1618 C 0.90847 0.15417 0.60182 0.0
C1619 C 0.89144 0.18352 0.59613 0.0
C1620 C 0.89331 0.19336 0.58246 0.0
C1621 C 0.91221 0.17425 0.5744 0.0
C1622 C 0.92934 0.14537 0.58 0.0
C1623 C 0.92757 0.13544 0.59366 0.0
H1624 H 0.91361 0.18187 0.56381 0.0
H1625 H 0.91646 0.08816 0.69661 0.0
H1626 H 0.92014 0.4907 0.6674 0.0
H1627 H 0.92618 0.55139 0.65156 0.0
H1628 H 0.84806 0.5606 0.64614 0.0
H1629 H 0.84207 0.49955 0.6615 0.0
H1630 H 0.86868 0.55612 0.62252 0.0
H1631 H 0.88343 0.64385 0.66512 0.0
H1632 H 0.90417 0.66225 0.68704 0.0
H1633 H 0.9727 0.67436 0.66629 0.0
H1634 H 0.95238 0.65547 0.64425 0.0
H1635 H 0.84306 0.77178 0.59918 0.0
H1636 H 0.84948 0.70598 0.61272 0.0
H1637 H 0.92653 0.70767 0.60349 0.0
H1638 H 0.92019 0.77417 0.5897 0.0
H1639 H 0.91438 0.70138 0.63216 0.0
H1640 H 0.89607 0.62482 0.58893 0.0
H1641 H 0.87278 0.61183 0.56759 0.0
H1642 H 0.80827 0.58243 0.59029 0.0
H1643 H 0.83107 0.59587 0.6118 0.0
C1644 C 0.90429 0.50631 0.66299 0.0
C1645 C 0.88063 0.49026 0.66567 0.0
C1646 C 0.90774 0.54094 0.65391 0.0
C1647 C 0.88757 0.56061 0.64757 0.0
C1648 C 0.86396 0.54572 0.65073 0.0
C1649 C 0.86054 0.51092 0.65959 0.0
C1650 C 0.89061 0.59546 0.63727 0.0
C1651 C 0.87862 0.58791 0.62469 0.0
C1652 C 0.90424 0.63642 0.63983 0.0
C1653 C 0.91645 0.64767 0.65306 0.0
C1654 C 0.90296 0.65005 0.66525 0.0
C1655 C 0.91463 0.66064 0.67769 0.0
C1656 C 0.93976 0.6693 0.67806 0.0
C1657 C 0.95325 0.66753 0.66598 0.0
C1658 C 0.94167 0.6569 0.65352 0.0
C1659 C 0.8614 0.7581 0.59991 0.0
C1660 C 0.88113 0.77823 0.59333 0.0
C1661 C 0.86501 0.72037 0.60765 0.0
C1662 C 0.88845 0.70185 0.60908 0.0
C1663 C 0.90828 0.72149 0.60249 0.0
C1664 C 0.90461 0.75917 0.59454 0.0
C1665 C 0.89174 0.66247 0.61773 0.0
C1666 C 0.90491 0.6691 0.62994 0.0
C1667 C 0.87894 0.62085 0.61493 0.0
C1668 C 0.86528 0.61157 0.60199 0.0
C1669 C 0.87689 0.61579 0.58938 0.0
C1670 C 0.86377 0.60833 0.57725 0.0
C1671 C 0.83905 0.59639 0.57759 0.0
C1672 C 0.82742 0.59167 0.59005 0.0
C1673 C 0.84045 0.59912 0.60222 0.0
H1674 H 0.82891 0.59076 0.56818 0.0
H1675 H 0.94876 0.67752 0.6877 0.0
H1676 H 0.87455 0.50498 0.08006 0.0
H1677 H 0.87858 0.57008 0.0969 0.0
H1678 H 0.91838 0.48452 0.1234 0.0
H1679 H 0.91457 0.41925 0.10636 0.0
H1680 H 0.8794 0.53434 0.136 0.0
H1681 H 0.94955 0.56123 0.10932 0.0
H1682 H 0.97277 0.56983 0.08818 0.0
H1683 H 0.92856 0.6858 0.07937 0.0
H1684 H 0.90481 0.67748 0.10036 0.0
H1685 H 0.88328 0.73252 0.18205 0.0
H1686 H 0.8913 0.66176 0.16851 0.0
H1687 H 0.88811 0.73635 0.13193 0.0
H1688 H 0.88663 0.80784 0.14603 0.0
H1689 H 0.91696 0.68284 0.12625 0.0
H1690 H 0.83696 0.63365 0.14752 0.0
H1691 H 0.81046 0.61679 0.16703 0.0
H1692 H 0.8688 0.54147 0.18428 0.0
H1693 H 0.89529 0.55696 0.16479 0.0
C1694 C 0.88407 0.5002 0.08951 0.0
C1695 C 0.89365 0.45719 0.09221 0.0
C1696 C 0.8866 0.53737 0.09903 0.0
C1697 C 0.89889 0.53204 0.11133 0.0
C1698 C 0.90888 0.48917 0.11393 0.0
C1699 C 0.90665 0.45209 0.10428 0.0
C1700 C 0.90001 0.57092 0.12169 0.0
C1701 C 0.88752 0.56698 0.13392 0.0
C1702 C 0.91088 0.61314 0.11896 0.0
C1703 C 0.9253 0.61853 0.10639 0.0
C1704 C 0.94466 0.58837 0.10283 0.0
C1705 C 0.95794 0.59323 0.09088 0.0
C1706 C 0.95212 0.6283 0.08242 0.0
C1707 C 0.93304 0.65865 0.08593 0.0
C1708 C 0.91969 0.65391 0.09786 0.0
C1709 C 0.88404 0.73329 0.17107 0.0
C1710 C 0.88275 0.77517 0.16493 0.0
C1711 C 0.8881 0.6924 0.16321 0.0
C1712 C 0.88914 0.69199 0.1489 0.0
C1713 C 0.88745 0.7345 0.14286 0.0
C1714 C 0.88565 0.77566 0.15086 0.0
C1715 C 0.89349 0.64861 0.14016 0.0
C1716 C 0.90788 0.65105 0.12832 0.0
C1717 C 0.88368 0.60511 0.14305 0.0
C1718 C 0.86816 0.59757 0.15496 0.0
C1719 C 0.84412 0.61422 0.15562 0.0
C1720 C 0.82912 0.60469 0.1666 0.0
C1721 C 0.83806 0.57884 0.17697 0.0
C1722 C 0.86194 0.56183 0.1763 0.0
C1723 C 0.87689 0.57072 0.16527 0.0
H1724 H 0.82642 0.57162 0.18546 0.0
H1725 H 0.96242 0.63199 0.07317 0.0
H1726 H 0.83093 0.98359 0.15835 0.0
H1727 H 0.83767 0.0432 0.14261 0.0
H1728 H 0.91487 0.04226 0.15148 0.0
H1729 H 0.90824 0.98246 0.16753 0.0
H1730 H 0.89769 0.13 0.14864 0.0
H1731 H 0.89486 0.98625 0.12303 0.0
H1732 H 0.87852 0.90986 0.11576 0.0
H1733 H 0.81266 0.97179 0.10183 0.0
H1734 H 0.82845 0.04856 0.10922 0.0
H1735 H 0.91433 0.26133 0.08968 0.0
H1736 H 0.91896 0.19627 0.10418 0.0
H1737 H 0.8406 0.18052 0.10526 0.0
H1738 H 0.83587 0.24543 0.09105 0.0
H1739 H 0.86593 0.09645 0.10181 0.0
H1740 H 0.86696 0.23813 0.13058 0.0
H1741 H 0.8831 0.31454 0.13798 0.0
H1742 H 0.95329 0.25541 0.14556 0.0
H1743 H 0.9376 0.17858 0.13804 0.0
C1744 C 0.84937 0.99625 0.15711 0.0
C1745 C 0.86909 0.97777 0.16414 0.0
C1746 C 0.85319 0.03029 0.14803 0.0
C1747 C 0.87685 0.04645 0.1456 0.0
C1748 C 0.89647 0.03002 0.15311 0.0
C1749 C 0.89264 0.99591 0.16231 0.0
C1750 C 0.88082 0.07916 0.13482 0.0
C1751 C 0.89124 0.12228 0.13832 0.0
C1752 C 0.8723 0.06928 0.12136 0.0
C1753 C 0.8628 0.02318 0.11675 0.0
C1754 C 0.87682 0.98358 0.11849 0.0
C1755 C 0.86766 0.9402 0.11434 0.0
C1756 C 0.84455 0.93597 0.10835 0.0
C1757 C 0.83057 0.97512 0.10648 0.0
C1758 C 0.83963 0.01859 0.11063 0.0
C1759 C 0.89816 0.24332 0.0928 0.0
C1760 C 0.87474 0.25845 0.08925 0.0
C1761 C 0.90081 0.20642 0.10114 0.0
C1762 C 0.88009 0.18379 0.10587 0.0
C1763 C 0.85682 0.19745 0.10174 0.0
C1764 C 0.85415 0.23461 0.09363 0.0
C1765 C 0.88218 0.14755 0.11573 0.0
C1766 C 0.87286 0.10374 0.11205 0.0
C1767 C 0.89182 0.15673 0.12898 0.0
C1768 C 0.90121 0.20276 0.13359 0.0
C1769 C 0.88589 0.24149 0.13371 0.0
C1770 C 0.89495 0.28486 0.13795 0.0
C1771 C 0.91924 0.28989 0.14218 0.0
C1772 C 0.9345 0.25148 0.14224 0.0
C1773 C 0.92553 0.20801 0.13801 0.0
H1774 H 0.92621 0.32352 0.14545 0.0
H1775 H 0.83749 0.90237 0.10513 0.0
H1776 H 0.64315 0.76577 0.83181 0.0
H1777 H 0.63972 0.83124 0.84839 0.0
H1778 H 0.58223 0.76125 0.86883 0.0
H1779 H 0.58841 0.69338 0.85341 0.0
H1780 H 0.60485 0.88592 0.85203 0.0
H1781 H 0.56815 0.79777 0.89324 0.0
H1782 H 0.56952 0.72814 0.90623 0.0
H1783 H 0.64795 0.72925 0.9047 0.0
H1784 H 0.64685 0.7988 0.89152 0.0
H1785 H 0.58545 0.0775 0.90106 0.0
H1786 H 0.58017 0.00916 0.88572 0.0
H1787 H 0.64018 0.94391 0.90547 0.0
H1788 H 0.6428 0.00965 0.92199 0.0
H1789 H 0.60707 0.88624 0.90232 0.0
H1790 H 0.64336 0.97924 0.86314 0.0
H1791 H 0.64171 0.04884 0.84998 0.0
H1792 H 0.5635 0.03839 0.84793 0.0
H1793 H 0.56488 0.9687 0.8609 0.0
C1794 C 0.631 0.76337 0.8404 0.0
C1795 C 0.61728 0.72352 0.84189 0.0
C1796 C 0.62851 0.80125 0.8497 0.0
C1797 C 0.61115 0.80118 0.86026 0.0
C1798 C 0.59673 0.76175 0.86141 0.0
C1799 C 0.59999 0.7231 0.85242 0.0
C1800 C 0.60727 0.84382 0.8692 0.0
C1801 C 0.60543 0.88581 0.86304 0.0
C1802 C 0.60674 0.84432 0.88358 0.0
C1803 C 0.60745 0.80206 0.89102 0.0
C1804 C 0.58565 0.78271 0.89555 0.0
C1805 C 0.58637 0.74337 0.90293 0.0
C1806 C 0.60882 0.72388 0.9061 0.0
C1807 C 0.63059 0.74395 0.90201 0.0
C1808 C 0.62993 0.78302 0.8945 0.0
C1809 C 0.59776 0.04874 0.90191 0.0
C1810 C 0.61549 0.04975 0.91224 0.0
C1811 C 0.59499 0.0098 0.89298 0.0
C1812 C 0.61034 0.97151 0.89398 0.0
C1813 C 0.62819 0.97294 0.90429 0.0
C1814 C 0.63022 0.01105 0.91355 0.0
C1815 C 0.60697 0.92848 0.88512 0.0
C1816 C 0.60672 0.88639 0.89131 0.0
C1817 C 0.60516 0.92787 0.87077 0.0
C1818 C 0.60422 0.97009 0.86333 0.0
C1819 C 0.62588 0.9925 0.86005 0.0
C1820 C 0.62499 0.03161 0.85256 0.0
C1821 C 0.60251 0.0484 0.84832 0.0
C1822 C 0.58089 0.02565 0.85134 0.0
C1823 C 0.58173 0.98628 0.85869 0.0
H1824 H 0.60186 0.07878 0.84258 0.0
H1825 H 0.60937 0.69351 0.91185 0.0
H1826 H 0.58631 0.23613 0.91245 0.0
H1827 H 0.57993 0.29973 0.89757 0.0
H1828 H 0.65613 0.33609 0.90155 0.0
H1829 H 0.66268 0.27228 0.91604 0.0
H1830 H 0.62263 0.41323 0.90309 0.0
H1831 H 0.64222 0.27414 0.87535 0.0
H1832 H 0.63544 0.19337 0.86737 0.0
H1833 H 0.56331 0.2268 0.85389 0.0
H1834 H 0.56961 0.30785 0.86197 0.0
H1835 H 0.66703 0.52734 0.84911 0.0
H1836 H 0.65868 0.46781 0.86458 0.0
H1837 H 0.58478 0.45584 0.84956 0.0
H1838 H 0.59296 0.51618 0.83383 0.0
H1839 H 0.60758 0.3696 0.85422 0.0
H1840 H 0.59208 0.51343 0.87815 0.0
H1841 H 0.60034 0.59394 0.88594 0.0
H1842 H 0.6647 0.55224 0.90683 0.0
H1843 H 0.65713 0.47156 0.89895 0.0
C1844 C 0.60152 0.25838 0.91036 0.0
C1845 C 0.62498 0.2494 0.91538 0.0
C1846 C 0.5979 0.29446 0.90182 0.0
C1847 C 0.61759 0.3225 0.89844 0.0
C1848 C 0.64069 0.31498 0.90407 0.0
C1849 C 0.64441 0.27848 0.91231 0.0
C1850 C 0.61493 0.35763 0.88829 0.0
C1851 C 0.61925 0.40381 0.89242 0.0
C1852 C 0.60998 0.34535 0.87442 0.0
C1853 C 0.60625 0.29686 0.86942 0.0
C1854 C 0.62484 0.26418 0.8708 0.0
C1855 C 0.6211 0.21836 0.86624 0.0
C1856 C 0.59891 0.20487 0.86019 0.0
C1857 C 0.58046 0.23727 0.85862 0.0
C1858 C 0.58411 0.28316 0.86318 0.0
C1859 C 0.649 0.51197 0.84892 0.0
C1860 C 0.63059 0.52709 0.84027 0.0
C1861 C 0.64426 0.47789 0.85784 0.0
C1862 C 0.62099 0.45802 0.85842 0.0
C1863 C 0.60283 0.47101 0.84933 0.0
C1864 C 0.60756 0.50543 0.84034 0.0
C1865 C 0.61586 0.42517 0.86898 0.0
C1866 C 0.61022 0.37938 0.86494 0.0
C1867 C 0.61956 0.43784 0.88297 0.0
C1868 C 0.62407 0.48636 0.88789 0.0
C1869 C 0.60809 0.52142 0.88433 0.0
C1870 C 0.61265 0.56711 0.88876 0.0
C1871 C 0.63302 0.57819 0.89688 0.0
C1872 C 0.64891 0.5436 0.90056 0.0
C1873 C 0.64448 0.49786 0.89612 0.0
H1874 H 0.63648 0.61355 0.90034 0.0
H1875 H 0.59605 0.16936 0.85667 0.0
H1876 H 0.60505 0.19913 0.35831 0.0
H1877 H 0.60737 0.27118 0.37241 0.0
H1878 H 0.62427 0.34333 0.33653 0.0
H1879 H 0.62551 0.2704 0.32308 0.0
H1880 H 0.64974 0.37813 0.35261 0.0
H1881 H 0.56533 0.34799 0.35741 0.0
H1882 H 0.52785 0.30485 0.36216 0.0
H1883 H 0.55072 0.29474 0.40357 0.0
H1884 H 0.58849 0.33734 0.39903 0.0
H1885 H 0.61105 0.58779 0.39801 0.0
H1886 H 0.6087 0.52648 0.37975 0.0
H1887 H 0.65533 0.44141 0.40284 0.0
H1888 H 0.65678 0.50181 0.42136 0.0
H1889 H 0.59594 0.42109 0.39179 0.0
H1890 H 0.69082 0.41374 0.3657 0.0
H1891 H 0.71914 0.4571 0.35182 0.0
H1892 H 0.66252 0.55514 0.34512 0.0
H1893 H 0.63379 0.51154 0.35863 0.0
C1894 C 0.60952 0.23059 0.3536 0.0
C1895 C 0.61597 0.22952 0.33983 0.0
C1896 C 0.61032 0.27204 0.36157 0.0
C1897 C 0.6158 0.31354 0.35565 0.0
C1898 C 0.62056 0.3122 0.34157 0.0
C1899 C 0.62113 0.27056 0.33382 0.0
C1900 C 0.61841 0.35773 0.3641 0.0
C1901 C 0.63778 0.3871 0.36114 0.0
C1902 C 0.60252 0.37114 0.37505 0.0
C1903 C 0.57984 0.34552 0.37784 0.0
C1904 C 0.56244 0.33632 0.36751 0.0
C1905 C 0.54113 0.312 0.37017 0.0
C1906 C 0.53693 0.29698 0.38315 0.0
C1907 C 0.55401 0.30636 0.39352 0.0
C1908 C 0.57536 0.33064 0.39091 0.0
C1909 C 0.62131 0.55641 0.39899 0.0
C1910 C 0.6348 0.54997 0.41086 0.0
C1911 C 0.62012 0.52166 0.38853 0.0
C1912 C 0.63243 0.48001 0.38978 0.0
C1913 C 0.64628 0.47385 0.40152 0.0
C1914 C 0.64721 0.50836 0.41206 0.0
C1915 C 0.62728 0.44005 0.38022 0.0
C1916 C 0.60767 0.41137 0.38319 0.0
C1917 C 0.64195 0.42856 0.36874 0.0
C1918 C 0.66034 0.45996 0.36344 0.0
C1919 C 0.68459 0.445 0.36145 0.0
C1920 C 0.7006 0.46919 0.35347 0.0
C1921 C 0.69259 0.50869 0.34749 0.0
C1922 C 0.6687 0.52451 0.34973 0.0
C1923 C 0.65259 0.50023 0.35764 0.0
H1924 H 0.70496 0.52729 0.34127 0.0
H1925 H 0.52043 0.27815 0.38519 0.0
H1926 H 0.68017 0.75714 0.41273 0.0
H1927 H 0.67321 0.82162 0.39872 0.0
H1928 H 0.59531 0.80654 0.40347 0.0
H1929 H 0.60214 0.74142 0.41767 0.0
H1930 H 0.61075 0.81465 0.37602 0.0
H1931 H 0.6209 0.89486 0.41953 0.0
H1932 H 0.64102 0.91276 0.44165 0.0
H1933 H 0.70623 0.95277 0.42122 0.0
H1934 H 0.68663 0.93446 0.39896 0.0
H1935 H 0.59602 0.02229 0.34068 0.0
H1936 H 0.59259 0.96154 0.35666 0.0
H1937 H 0.67048 0.96779 0.36351 0.0
H1938 H 0.67392 0.02884 0.34793 0.0
H1939 H 0.64833 0.96736 0.38681 0.0
H1940 H 0.64149 0.87832 0.34391 0.0
H1941 H 0.62365 0.8564 0.32142 0.0
H1942 H 0.55457 0.83034 0.34016 0.0
H1943 H 0.57194 0.85268 0.36276 0.0
C1944 C 0.66151 0.76767 0.41094 0.0
C1945 C 0.6417 0.74412 0.41637 0.0
C1946 C 0.65758 0.80467 0.40293 0.0
C1947 C 0.63375 0.81903 0.40009 0.0
C1948 C 0.61385 0.79601 0.40556 0.0
C1949 C 0.61779 0.75909 0.41375 0.0
C1950 C 0.63006 0.85741 0.39109 0.0
C1951 C 0.61846 0.84842 0.37848 0.0
C1952 C 0.6406 0.90109 0.39419 0.0
C1953 C 0.65232 0.91303 0.40757 0.0
C1954 C 0.63958 0.90724 0.41975 0.0
C1955 C 0.65089 0.91748 0.43231 0.0
C1956 C 0.6749 0.93382 0.43284 0.0
C1957 C 0.68763 0.94011 0.4208 0.0
C1958 C 0.67641 0.92988 0.4082 0.0
C1959 C 0.61244 0.01029 0.34547 0.0
C1960 C 0.63524 0.03059 0.34303 0.0
C1961 C 0.61046 0.97553 0.35461 0.0
C1962 C 0.63129 0.95994 0.36132 0.0
C1963 C 0.65409 0.97939 0.35859 0.0
C1964 C 0.65604 0.01427 0.3496 0.0
C1965 C 0.62962 0.92435 0.3715 0.0
C1966 C 0.64022 0.93391 0.38438 0.0
C1967 C 0.61839 0.88108 0.36857 0.0
C1968 C 0.60792 0.86772 0.355 0.0
C1969 C 0.62244 0.8683 0.34322 0.0
C1970 C 0.61242 0.85572 0.33045 0.0
C1971 C 0.58797 0.84214 0.32935 0.0
C1972 C 0.57349 0.84097 0.34102 0.0
C1973 C 0.58341 0.85357 0.35381 0.0
H1974 H 0.58025 0.8324 0.31946 0.0
H1975 H 0.68364 0.94166 0.44258 0.0
H1976 H 0.41306 0.30944 0.15113 0.0
H1977 H 0.41872 0.2412 0.13579 0.0
H1978 H 0.36004 0.1738 0.15607 0.0
H1979 H 0.35716 0.23951 0.17258 0.0
H1980 H 0.39324 0.11729 0.1527 0.0
H1981 H 0.35615 0.21087 0.11445 0.0
H1982 H 0.35703 0.2808 0.10138 0.0
H1983 H 0.43498 0.26919 0.09752 0.0
H1984 H 0.43436 0.19921 0.11037 0.0
H1985 H 0.36008 0.99348 0.08215 0.0
H1986 H 0.36171 0.05912 0.09879 0.0
H1987 H 0.42105 0.99468 0.1193 0.0
H1988 H 0.4169 0.92653 0.10376 0.0
H1989 H 0.39579 0.11674 0.1024 0.0
H1990 H 0.43323 0.03004 0.14371 0.0
H1991 H 0.43247 0.96055 0.15678 0.0
H1992 H 0.35403 0.95932 0.1552 0.0
H1993 H 0.35453 0.0286 0.14192 0.0
C1994 C 0.40113 0.2802 0.15211 0.0
C1995 C 0.38368 0.2806 0.16257 0.0
C1996 C 0.40411 0.24131 0.14318 0.0
C1997 C 0.38925 0.20242 0.14432 0.0
C1998 C 0.37166 0.20326 0.15478 0.0
C1999 C 0.36946 0.24134 0.16403 0.0
C2000 C 0.3929 0.15944 0.13548 0.0
C2001 C 0.39363 0.11741 0.14168 0.0
C2002 C 0.39475 0.15881 0.12112 0.0
C2003 C 0.39522 0.20105 0.11367 0.0
C2004 C 0.37342 0.22393 0.11096 0.0
C2005 C 0.37387 0.26323 0.10354 0.0
C2006 C 0.39606 0.27978 0.09881 0.0
C2007 C 0.41782 0.25661 0.10129 0.0
C2008 C 0.4174 0.21705 0.10857 0.0
C2009 C 0.37231 0.99223 0.09076 0.0
C2010 C 0.38723 0.95385 0.09221 0.0
C2011 C 0.37372 0.03023 0.1001 0.0
C2012 C 0.39106 0.03176 0.11068 0.0
C2013 C 0.40657 0.9938 0.11184 0.0
C2014 C 0.40446 0.95502 0.10279 0.0
C2015 C 0.39391 0.0747 0.1196 0.0
C2016 C 0.39513 0.1167 0.11342 0.0
C2017 C 0.39423 0.07531 0.13399 0.0
C2018 C 0.39391 0.03308 0.14144 0.0
C2019 C 0.41587 0.01446 0.14602 0.0
C2020 C 0.41549 0.97523 0.15344 0.0
C2021 C 0.39321 0.95513 0.15664 0.0
C2022 C 0.37127 0.97448 0.1525 0.0
C2023 C 0.37159 0.01342 0.14493 0.0
H2024 H 0.39292 0.92485 0.16243 0.0
H2025 H 0.39638 0.31032 0.09314 0.0
H2026 H 0.33622 0.47854 0.15527 0.0
H2027 H 0.34531 0.53796 0.13988 0.0
H2028 H 0.41897 0.54816 0.15536 0.0
H2029 H 0.41005 0.48789 0.17099 0.0
H2030 H 0.3964 0.63529 0.15055 0.0
H2031 H 0.41238 0.49109 0.12686 0.0
H2032 H 0.40419 0.4106 0.11901 0.0
H2033 H 0.34051 0.45254 0.09755 0.0
H2034 H 0.34801 0.53321 0.10549 0.0
H2035 H 0.41861 0.76927 0.09251 0.0
H2036 H 0.42502 0.70587 0.10748 0.0
H2037 H 0.34928 0.66706 0.10262 0.0
H2038 H 0.34272 0.73056 0.08804 0.0
H2039 H 0.38281 0.59118 0.10158 0.0
H2040 H 0.36278 0.73107 0.1288 0.0
H2041 H 0.36966 0.81194 0.13668 0.0
H2042 H 0.44088 0.77763 0.15133 0.0
H2043 H 0.43455 0.69655 0.14331 0.0
C2044 C 0.35435 0.4935 0.15558 0.0
C2045 C 0.37248 0.47788 0.16433 0.0
C2046 C 0.35951 0.52753 0.14672 0.0
C2047 C 0.38293 0.54689 0.14629 0.0
C2048 C 0.4008 0.53341 0.15548 0.0
C2049 C 0.39565 0.49901 0.1644 0.0
C2050 C 0.3885 0.57961 0.13576 0.0
C2051 C 0.39408 0.62543 0.13982 0.0
C2052 C 0.38522 0.5668 0.12175 0.0
C2053 C 0.38072 0.51828 0.11683 0.0
C2054 C 0.39652 0.48315 0.12055 0.0
C2055 C 0.39201 0.43748 0.11608 0.0
C2056 C 0.37186 0.42648 0.10778 0.0
C2057 C 0.35614 0.46113 0.10396 0.0
C2058 C 0.36053 0.50685 0.10844 0.0
C2059 C 0.40354 0.74651 0.09443 0.0
C2060 C 0.38018 0.75469 0.08914 0.0
C2061 C 0.40716 0.71055 0.10302 0.0
C2062 C 0.38758 0.68191 0.10619 0.0
C2063 C 0.36464 0.68864 0.10028 0.0
C2064 C 0.36091 0.72497 0.09198 0.0
C2065 C 0.3901 0.64693 0.11639 0.0
C2066 C 0.38589 0.60071 0.11227 0.0
C2067 C 0.39465 0.65937 0.13031 0.0
C2068 C 0.39833 0.7079 0.1353 0.0
C2069 C 0.38 0.74084 0.13359 0.0
C2070 C 0.38378 0.78671 0.1381 0.0
C2071 C 0.40573 0.79997 0.14446 0.0
C2072 C 0.42391 0.76733 0.14637 0.0
C2073 C 0.42023 0.72141 0.14185 0.0
H2074 H 0.40862 0.83551 0.14794 0.0
H2075 H 0.36845 0.39113 0.10429 0.0
H2076 H 0.36829 0.73612 0.67385 0.0
H2077 H 0.3713 0.66914 0.65784 0.0
H2078 H 0.42837 0.73659 0.63619 0.0
H2079 H 0.42288 0.80571 0.6513 0.0
H2080 H 0.40363 0.69914 0.6187 0.0
H2081 H 0.43556 0.63933 0.6592 0.0
H2082 H 0.4361 0.62119 0.68333 0.0
H2083 H 0.37167 0.53853 0.67708 0.0
H2084 H 0.37052 0.55663 0.65297 0.0
H2085 H 0.42546 0.43356 0.60049 0.0
H2086 H 0.42872 0.50141 0.61639 0.0
H2087 H 0.37542 0.57116 0.59271 0.0
H2088 H 0.37438 0.50528 0.57618 0.0
H2089 H 0.40117 0.53943 0.63293 0.0
H2090 H 0.37674 0.68321 0.59696 0.0
H2091 H 0.38293 0.70096 0.57304 0.0
H2092 H 0.44686 0.61536 0.57071 0.0
H2093 H 0.44123 0.59756 0.59466 0.0
C2094 C 0.38092 0.73686 0.6654 0.0
C2095 C 0.39427 0.77666 0.66323 0.0
C2096 C 0.38323 0.69803 0.65647 0.0
C2097 C 0.40024 0.6972 0.64575 0.0
C2098 C 0.41477 0.73633 0.64418 0.0
C2099 C 0.41176 0.77576 0.65283 0.0
C2100 C 0.40216 0.65662 0.63581 0.0
C2101 C 0.40343 0.66426 0.62188 0.0
C2102 C 0.40211 0.61081 0.63982 0.0
C2103 C 0.40287 0.59961 0.6543 0.0
C2104 C 0.42144 0.61747 0.66299 0.0
C2105 C 0.42186 0.60719 0.67666 0.0
C2106 C 0.40393 0.57881 0.68174 0.0
C2107 C 0.38555 0.56054 0.67314 0.0
C2108 C 0.38502 0.57075 0.65947 0.0
C2109 C 0.41466 0.46371 0.59872 0.0
C2110 C 0.39882 0.46385 0.58754 0.0
C2111 C 0.4164 0.50237 0.6078 0.0
C2112 C 0.40235 0.54179 0.60582 0.0
C2113 C 0.38693 0.54192 0.5944 0.0
C2114 C 0.3858 0.50381 0.58513 0.0
C2115 C 0.40328 0.58206 0.61589 0.0
C2116 C 0.40203 0.57435 0.62981 0.0
C2117 C 0.40471 0.62779 0.61193 0.0
C2118 C 0.40843 0.63877 0.59757 0.0
C2119 C 0.39219 0.66837 0.59136 0.0
C2120 C 0.39558 0.67838 0.57779 0.0
C2121 C 0.41524 0.6592 0.57035 0.0
C2122 C 0.4316 0.63008 0.57647 0.0
C2123 C 0.4283 0.61998 0.59004 0.0
H2124 H 0.41781 0.66695 0.55985 0.0
H2125 H 0.40429 0.57092 0.69232 0.0
H2126 H 0.42203 0.2716 0.59006 0.0
H2127 H 0.42627 0.21072 0.60601 0.0
H2128 H 0.34865 0.18489 0.60327 0.0
H2129 H 0.34432 0.24652 0.5879 0.0
H2130 H 0.36063 0.1919 0.62843 0.0
H2131 H 0.39509 0.11022 0.58849 0.0
H2132 H 0.42411 0.09808 0.56941 0.0
H2133 H 0.48419 0.10137 0.59753 0.0
H2134 H 0.45553 0.11409 0.61677 0.0
H2135 H 0.34084 0.97439 0.6514 0.0
H2136 H 0.34762 0.03936 0.63767 0.0
H2137 H 0.42085 0.05461 0.65353 0.0
H2138 H 0.41425 0.98863 0.66747 0.0
H2139 H 0.41739 0.05914 0.62456 0.0
H2140 H 0.38062 0.13019 0.66466 0.0
H2141 H 0.35019 0.13752 0.68315 0.0
H2142 H 0.29283 0.15114 0.65392 0.0
H2143 H 0.32286 0.1432 0.63523 0.0
C2144 C 0.40602 0.25217 0.59268 0.0
C2145 C 0.38285 0.26374 0.58775 0.0
C2146 C 0.40843 0.21742 0.60181 0.0
C2147 C 0.38776 0.19306 0.60592 0.0
C2148 C 0.36485 0.20336 0.60043 0.0
C2149 C 0.3624 0.23843 0.59155 0.0
C2150 C 0.38931 0.15854 0.61644 0.0
C2151 C 0.37297 0.16276 0.62748 0.0
C2152 C 0.406 0.12129 0.6156 0.0
C2153 C 0.42321 0.11366 0.60405 0.0
C2154 C 0.41451 0.10873 0.59059 0.0
C2155 C 0.43089 0.10167 0.57976 0.0
C2156 C 0.45598 0.09911 0.58226 0.0
C2157 C 0.46475 0.10346 0.59561 0.0
C2158 C 0.44845 0.11057 0.60648 0.0
C2159 C 0.35843 0.99145 0.65208 0.0
C2160 C 0.37699 0.97619 0.66062 0.0
C2161 C 0.36224 0.02879 0.64421 0.0
C2162 C 0.38466 0.05208 0.64464 0.0
C2163 C 0.40337 0.03712 0.65308 0.0
C2164 C 0.39951 0.99966 0.6611 0.0
C2165 C 0.38808 0.09183 0.63612 0.0
C2166 C 0.40536 0.08874 0.62555 0.0
C2167 C 0.37209 0.12998 0.63728 0.0
C2168 C 0.35402 0.13588 0.64853 0.0
C2169 C 0.36151 0.13453 0.66217 0.0
C2170 C 0.34432 0.13881 0.67269 0.0
C2171 C 0.31959 0.14471 0.66971 0.0
C2172 C 0.312 0.14656 0.65621 0.0
C2173 C 0.32911 0.14226 0.64565 0.0
H2174 H 0.3063 0.1479 0.67787 0.0
H2175 H 0.46863 0.09364 0.57385 0.0
loop_
_geom_bond_atom_site_label_1
_geom_bond_atom_site_label_2
_geom_bond_distance
_geom_bond_site_symmetry_2
_ccdc_geom_bond_type
Mn0 O5 2.095 . S
Mn0 O15 2.162 . S
Mn0 O16 2.297 . S
Mn0 O24 2.385 . S
Mn0 O25 2.209 . S
Mn0 O26 2.094 . S
Mn1 O6 2.121 . S
Mn1 N8 2.257 . S
Mn1 N17 2.282 . S
Mn1 O25 2.215 . S
Mn1 O27 2.117 . S
C2 O24 1.234 . S
C2 O25 1.283 . S
C3 O15 1.281 . S
C3 O16 1.236 . S
C4 O26 1.240 . S
C4 O27 1.264 . S
O5 Mn0 2.095 . S
O5 C14 1.250 . S
O6 Mn1 2.121 . S
O6 C14 1.258 . S
C7 N8 1.326 . S
C7 C11 1.460 . S
C7 H13 0.929 . S
N8 Mn1 2.257 . S
N8 C7 1.326 . S
N8 C12 1.362 . S
C9 C10 1.258 . S
C9 C12 1.431 . S
C9 C29 1.449 1_545 S
C10 C9 1.258 . S
C10 C11 1.477 . S
C10 H30 0.931 1_545 S
C11 C7 1.460 . S
C11 C10 1.477 . S
C11 H31 0.930 . S
C12 N8 1.362 . S
C12 C9 1.431 . S
C12 C22 1.476 . S
H13 C7 0.929 . S
C14 O5 1.250 . S
C14 O6 1.258 . S
O15 Mn0 2.162 . S
O15 C3 1.281 . S
O16 Mn0 2.297 . S
O16 C3 1.236 . S
N17 Mn1 2.282 . S
N17 C18 1.328 . S
N17 C22 1.318 . S
C18 N17 1.328 . S
C18 C19 1.457 . S
C18 H23 0.929 . S
C19 C18 1.457 . S
C19 C20 1.291 . S
C19 H32 0.931 . S
C20 C19 1.291 . S
C20 C21 1.373 . S
C20 H33 0.929 . S
C21 C20 1.373 . S
C21 C22 1.396 . S
C21 C28 1.403 . S
C22 C12 1.476 . S
C22 N17 1.318 . S
C22 C21 1.396 . S
H23 C18 0.929 . S
O24 Mn0 2.385 . S
O24 C2 1.234 . S
O25 Mn0 2.209 . S
O25 Mn1 2.215 . S
O25 C2 1.283 . S
O26 Mn0 2.094 . S
O26 C4 1.240 . S
O27 Mn1 2.117 . S
O27 C4 1.264 . S
C28 C21 1.403 . S
C28 C29 1.399 1_545 S
C28 H34 0.929 1_545 S
C29 C9 1.449 1_565 S
C29 C28 1.399 1_565 S
C29 H35 0.930 . S
H30 C10 0.931 1_565 S
H31 C11 0.930 . S
H32 C19 0.931 . S
H33 C20 0.929 . S
H34 C28 0.929 1_565 S
H35 C29 0.930 . S
Mn36 O41 2.095 . S
Mn36 O51 2.162 . S
Mn36 O52 2.297 . S
Mn36 O60 2.385 . S
Mn36 O61 2.209 . S
Mn36 O62 2.094 . S
Mn37 O42 2.121 . S
Mn37 N44 2.257 . S
Mn37 N53 2.282 . S
Mn37 O61 2.215 . S
Mn37 O63 2.117 . S
C38 O60 1.234 . S
C38 O61 1.283 . S
C39 O51 1.281 . S
C39 O52 1.236 . S
C40 O62 1.240 . S
C40 O63 1.264 . S
O41 Mn36 2.095 . S
O41 C50 1.250 . S
O42 Mn37 2.121 . S
O42 C50 1.258 . S
C43 N44 1.326 . S
C43 C47 1.460 . S
C43 H49 0.929 . S
N44 Mn37 2.257 . S
N44 C43 1.326 . S
N44 C48 1.362 . S
C45 C46 1.258 . S
C45 C48 1.431 . S
C45 C65 1.449 . S
C46 C45 1.258 . S
C46 C47 1.477 . S
C46 H66 0.931 . S
C47 C43 1.460 . S
C47 C46 1.477 . S
C47 H67 0.930 . S
C48 N44 1.362 . S
C48 C45 1.431 . S
C48 C58 1.476 . S
H49 C43 0.929 . S
C50 O41 1.250 . S
C50 O42 1.258 . S
O51 Mn36 2.162 . S
O51 C39 1.281 . S
O52 Mn36 2.297 . S
O52 C39 1.236 . S
N53 Mn37 2.282 . S
N53 C54 1.328 . S
N53 C58 1.318 . S
C54 N53 1.328 . S
C54 C55 1.457 . S
C54 H59 0.929 . S
C55 C54 1.457 . S
C55 C56 1.291 . S
C55 H68 0.931 . S
C56 C55 1.291 . S
C56 C57 1.373 . S
C56 H69 0.929 . S
C57 C56 1.373 . S
C57 C58 1.396 . S
C57 C64 1.403 . S
C58 C48 1.476 . S
C58 N53 1.318 . S
C58 C57 1.396 . S
H59 C54 0.929 . S
O60 Mn36 2.385 . S
O60 C38 1.234 . S
O61 Mn36 2.209 . S
O61 Mn37 2.215 . S
O61 C38 1.283 . S
O62 Mn36 2.094 . S
O62 C40 1.240 . S
O63 Mn37 2.117 . S
O63 C40 1.264 . S
C64 C57 1.403 . S
C64 C65 1.399 . S
C64 H70 0.929 . S
C65 C45 1.449 . S
C65 C64 1.399 . S
C65 H71 0.930 . S
H66 C46 0.931 . S
H67 C47 0.930 . S
H68 C55 0.931 . S
H69 C56 0.929 . S
H70 C64 0.929 . S
H71 C65 0.930 . S
Mn72 O77 2.095 . S
Mn72 O87 2.162 . S
Mn72 O88 2.297 . S
Mn72 O96 2.385 . S
Mn72 O97 2.209 . S
Mn72 O98 2.094 . S
Mn73 O78 2.121 . S
Mn73 N80 2.257 . S
Mn73 N89 2.282 . S
Mn73 O97 2.215 . S
Mn73 O99 2.117 . S
C74 O96 1.234 . S
C74 O97 1.283 . S
C75 O87 1.281 . S
C75 O88 1.236 . S
C76 O98 1.240 . S
C76 O99 1.264 . S
O77 Mn72 2.095 . S
O77 C86 1.250 . S
O78 Mn73 2.121 . S
O78 C86 1.258 . S
C79 N80 1.326 . S
C79 C83 1.460 . S
C79 H85 0.929 . S
N80 Mn73 2.257 . S
N80 C79 1.326 . S
N80 C84 1.362 . S
C81 C82 1.258 . S
C81 C84 1.431 . S
C81 C101 1.449 1_565 S
C82 C81 1.258 . S
C82 C83 1.477 . S
C82 H102 0.931 1_565 S
C83 C79 1.460 . S
C83 C82 1.477 . S
C83 H103 0.930 . S
C84 N80 1.362 . S
C84 C81 1.431 . S
C84 C94 1.476 . S
H85 C79 0.929 . S
C86 O77 1.250 . S
C86 O78 1.258 . S
O87 Mn72 2.162 . S
O87 C75 1.281 . S
O88 Mn72 2.297 . S
O88 C75 1.236 . S
N89 Mn73 2.282 . S
N89 C90 1.328 . S
N89 C94 1.318 . S
C90 N89 1.328 . S
C90 C91 1.457 . S
C90 H95 0.929 . S
C91 C90 1.457 . S
C91 C92 1.291 . S
C91 H104 0.931 . S
C92 C91 1.291 . S
C92 C93 1.373 . S
C92 H105 0.929 . S
C93 C92 1.373 . S
C93 C94 1.396 . S
C93 C100 1.403 . S
C94 C84 1.476 . S
C94 N89 1.318 . S
C94 C93 1.396 . S
H95 C90 0.929 . S
O96 Mn72 2.385 . S
O96 C74 1.234 . S
O97 Mn72 2.209 . S
O97 Mn73 2.215 . S
O97 C74 1.283 . S
O98 Mn72 2.094 . S
O98 C76 1.240 . S
O99 Mn73 2.117 . S
O99 C76 1.264 . S
C100 C93 1.403 . S
C100 C101 1.399 1_565 S
C100 H106 0.929 1_565 S
C101 C81 1.449 1_545 S
C101 C100 1.399 1_545 S
C101 H107 0.930 . S
H102 C82 0.931 1_545 S
H103 C83 0.930 . S
H104 C91 0.931 . S
H105 C92 0.929 . S
H106 C100 0.929 1_545 S
H107 C101 0.930 . S
Mn108 O113 2.095 . S
Mn108 O123 2.162 . S
Mn108 O124 2.297 . S
Mn108 O132 2.385 . S
Mn108 O133 2.209 . S
Mn108 O134 2.094 . S
Mn109 O114 2.121 . S
Mn109 N116 2.257 . S
Mn109 N125 2.282 . S
Mn109 O133 2.215 . S
Mn109 O135 2.117 . S
C110 O132 1.234 . S
C110 O133 1.283 . S
C111 O123 1.281 . S
C111 O124 1.236 . S
C112 O134 1.240 . S
C112 O135 1.264 . S
O113 Mn108 2.095 . S
O113 C122 1.250 . S
O114 Mn109 2.121 . S
O114 C122 1.258 . S
C115 N116 1.326 . S
C115 C119 1.460 . S
C115 H121 0.929 . S
N116 Mn109 2.257 . S
N116 C115 1.326 . S
N116 C120 1.362 . S
C117 C118 1.258 . S
C117 C120 1.431 . S
C117 C137 1.449 . S
C118 C117 1.258 . S
C118 C119 1.477 . S
C118 H138 0.931 . S
C119 C115 1.460 . S
C119 C118 1.477 . S
C119 H139 0.930 . S
C120 N116 1.362 . S
C120 C117 1.431 . S
C120 C130 1.476 . S
H121 C115 0.929 . S
C122 O113 1.250 . S
C122 O114 1.258 . S
O123 Mn108 2.162 . S
O123 C111 1.281 . S
O124 Mn108 2.297 . S
O124 C111 1.236 . S
N125 Mn109 2.282 . S
N125 C126 1.328 . S
N125 C130 1.318 . S
C126 N125 1.328 . S
C126 C127 1.457 . S
C126 H131 0.929 . S
C127 C126 1.457 . S
C127 C128 1.291 . S
C127 H140 0.931 . S
C128 C127 1.291 . S
C128 C129 1.373 . S
C128 H141 0.929 . S
C129 C128 1.373 . S
C129 C130 1.396 . S
C129 C136 1.403 . S
C130 C120 1.476 . S
C130 N125 1.318 . S
C130 C129 1.396 . S
H131 C126 0.929 . S
O132 Mn108 2.385 . S
O132 C110 1.234 . S
O133 Mn108 2.209 . S
O133 Mn109 2.215 . S
O133 C110 1.283 . S
O134 Mn108 2.094 . S
O134 C112 1.240 . S
O135 Mn109 2.117 . S
O135 C112 1.264 . S
C136 C129 1.403 . S
C136 C137 1.399 . S
C136 H142 0.929 . S
C137 C117 1.449 . S
C137 C136 1.399 . S
C137 H143 0.930 . S
H138 C118 0.931 . S
H139 C119 0.930 . S
H140 C127 0.931 . S
H141 C128 0.929 . S
H142 C136 0.929 . S
H143 C137 0.930 . S
Mn144 O149 2.095 . S
Mn144 O159 2.162 . S
Mn144 O160 2.297 . S
Mn144 O168 2.385 . S
Mn144 O169 2.209 . S
Mn144 O170 2.094 . S
Mn145 O150 2.121 . S
Mn145 N152 2.257 . S
Mn145 N161 2.282 . S
Mn145 O169 2.215 . S
Mn145 O171 2.117 . S
C146 O168 1.234 . S
C146 O169 1.283 . S
C147 O159 1.281 . S
C147 O160 1.236 . S
C148 O170 1.240 . S
C148 O171 1.264 . S
O149 Mn144 2.095 . S
O149 C158 1.250 . S
O150 Mn145 2.121 . S
O150 C158 1.258 . S
C151 N152 1.326 . S
C151 C155 1.460 . S
C151 H157 0.929 . S
N152 Mn145 2.257 . S
N152 C151 1.326 . S
N152 C156 1.362 . S
C153 C154 1.258 . S
C153 C156 1.431 . S
C153 C173 1.449 . S
C154 C153 1.258 . S
C154 C155 1.477 . S
C154 H174 0.931 . S
C155 C151 1.460 . S
C155 C154 1.477 . S
C155 H175 0.930 . S
C156 N152 1.362 . S
C156 C153 1.431 . S
C156 C166 1.476 . S
H157 C151 0.929 . S
C158 O149 1.250 . S
C158 O150 1.258 . S
O159 Mn144 2.162 . S
O159 C147 1.281 . S
O160 Mn144 2.297 . S
O160 C147 1.236 . S
N161 Mn145 2.282 . S
N161 C162 1.328 . S
N161 C166 1.318 . S
C162 N161 1.328 . S
C162 C163 1.457 . S
C162 H167 0.929 . S
C163 C162 1.457 . S
C163 C164 1.291 . S
C163 H176 0.931 . S
C164 C163 1.291 . S
C164 C165 1.373 . S
C164 H177 0.929 . S
C165 C164 1.373 . S
C165 C166 1.396 . S
C165 C172 1.403 . S
C166 C156 1.476 . S
C166 N161 1.318 . S
C166 C165 1.396 . S
H167 C162 0.929 . S
O168 Mn144 2.385 . S
O168 C146 1.234 . S
O169 Mn144 2.209 . S
O169 Mn145 2.215 . S
O169 C146 1.283 . S
O170 Mn144 2.094 . S
O170 C148 1.240 . S
O171 Mn145 2.117 . S
O171 C148 1.264 . S
C172 C165 1.403 . S
C172 C173 1.399 . S
C172 H178 0.929 . S
C173 C153 1.449 . S
C173 C172 1.399 . S
C173 H179 0.930 . S
H174 C154 0.931 . S
H175 C155 0.930 . S
H176 C163 0.931 . S
H177 C164 0.929 . S
H178 C172 0.929 . S
H179 C173 0.930 . S
Mn180 O185 2.095 . S
Mn180 O195 2.162 . S
Mn180 O196 2.297 . S
Mn180 O204 2.385 . S
Mn180 O205 2.209 . S
Mn180 O206 2.094 . S
Mn181 O186 2.121 . S
Mn181 N188 2.257 . S
Mn181 N197 2.282 . S
Mn181 O205 2.215 . S
Mn181 O207 2.117 . S
C182 O204 1.234 . S
C182 O205 1.283 . S
C183 O195 1.281 . S
C183 O196 1.236 . S
C184 O206 1.240 . S
C184 O207 1.264 . S
O185 Mn180 2.095 . S
O185 C194 1.250 . S
O186 Mn181 2.121 . S
O186 C194 1.258 . S
C187 N188 1.326 . S
C187 C191 1.460 . S
C187 H193 0.929 . S
N188 Mn181 2.257 . S
N188 C187 1.326 . S
N188 C192 1.362 . S
C189 C190 1.258 . S
C189 C192 1.431 . S
C189 C209 1.449 . S
C190 C189 1.258 . S
C190 C191 1.477 . S
C190 H210 0.931 . S
C191 C187 1.460 . S
C191 C190 1.477 . S
C191 H211 0.930 . S
C192 N188 1.362 . S
C192 C189 1.431 . S
C192 C202 1.476 . S
H193 C187 0.929 . S
C194 O185 1.250 . S
C194 O186 1.258 . S
O195 Mn180 2.162 . S
O195 C183 1.281 . S
O196 Mn180 2.297 . S
O196 C183 1.236 . S
N197 Mn181 2.282 . S
N197 C198 1.328 . S
N197 C202 1.318 . S
C198 N197 1.328 . S
C198 C199 1.457 . S
C198 H203 0.929 . S
C199 C198 1.457 . S
C199 C200 1.291 . S
C199 H212 0.931 . S
C200 C199 1.291 . S
C200 C201 1.373 . S
C200 H213 0.929 . S
C201 C200 1.373 . S
C201 C202 1.396 . S
C201 C208 1.403 . S
C202 C192 1.476 . S
C202 N197 1.318 . S
C202 C201 1.396 . S
H203 C198 0.929 . S
O204 Mn180 2.385 . S
O204 C182 1.234 . S
O205 Mn180 2.209 . S
O205 Mn181 2.215 . S
O205 C182 1.283 . S
O206 Mn180 2.094 . S
O206 C184 1.240 . S
O207 Mn181 2.117 . S
O207 C184 1.264 . S
C208 C201 1.403 . S
C208 C209 1.399 . S
C208 H214 0.929 . S
C209 C189 1.449 . S
C209 C208 1.399 . S
C209 H215 0.930 . S
H210 C190 0.931 . S
H211 C191 0.930 . S
H212 C199 0.931 . S
H213 C200 0.929 . S
H214 C208 0.929 . S
H215 C209 0.930 . S
Mn216 O221 2.095 . S
Mn216 O231 2.162 . S
Mn216 O232 2.297 . S
Mn216 O240 2.385 . S
Mn216 O241 2.209 . S
Mn216 O242 2.094 . S
Mn217 O222 2.121 . S
Mn217 N224 2.257 . S
Mn217 N233 2.282 . S
Mn217 O241 2.215 . S
Mn217 O243 2.117 . S
C218 O240 1.234 . S
C218 O241 1.283 . S
C219 O231 1.281 . S
C219 O232 1.236 . S
C220 O242 1.240 . S
C220 O243 1.264 . S
O221 Mn216 2.095 . S
O221 C230 1.250 . S
O222 Mn217 2.121 . S
O222 C230 1.258 . S
C223 N224 1.326 . S
C223 C227 1.460 . S
C223 H229 0.929 . S
N224 Mn217 2.257 . S
N224 C223 1.326 . S
N224 C228 1.362 . S
C225 C226 1.258 . S
C225 C228 1.431 . S
C225 C245 1.449 . S
C226 C225 1.258 . S
C226 C227 1.477 . S
C226 H246 0.931 . S
C227 C223 1.460 . S
C227 C226 1.477 . S
C227 H247 0.930 . S
C228 N224 1.362 . S
C228 C225 1.431 . S
C228 C238 1.476 . S
H229 C223 0.929 . S
C230 O221 1.250 . S
C230 O222 1.258 . S
O231 Mn216 2.162 . S
O231 C219 1.281 . S
O232 Mn216 2.297 . S
O232 C219 1.236 . S
N233 Mn217 2.282 . S
N233 C234 1.328 . S
N233 C238 1.318 . S
C234 N233 1.328 . S
C234 C235 1.457 . S
C234 H239 0.929 . S
C235 C234 1.457 . S
C235 C236 1.291 . S
C235 H248 0.931 . S
C236 C235 1.291 . S
C236 C237 1.373 . S
C236 H249 0.929 . S
C237 C236 1.373 . S
C237 C238 1.396 . S
C237 C244 1.403 . S
C238 C228 1.476 . S
C238 N233 1.318 . S
C238 C237 1.396 . S
H239 C234 0.929 . S
O240 Mn216 2.385 . S
O240 C218 1.234 . S
O241 Mn216 2.209 . S
O241 Mn217 2.215 . S
O241 C218 1.283 . S
O242 Mn216 2.094 . S
O242 C220 1.240 . S
O243 Mn217 2.117 . S
O243 C220 1.264 . S
C244 C237 1.403 . S
C244 C245 1.399 . S
C244 H250 0.929 . S
C245 C225 1.449 . S
C245 C244 1.399 . S
C245 H251 0.930 . S
H246 C226 0.931 . S
H247 C227 0.930 . S
H248 C235 0.931 . S
H249 C236 0.929 . S
H250 C244 0.929 . S
H251 C245 0.930 . S
Mn252 O257 2.095 . S
Mn252 O267 2.162 . S
Mn252 O268 2.297 . S
Mn252 O276 2.385 . S
Mn252 O277 2.209 . S
Mn252 O278 2.094 . S
Mn253 O258 2.121 . S
Mn253 N260 2.257 . S
Mn253 N269 2.282 . S
Mn253 O277 2.215 . S
Mn253 O279 2.117 . S
C254 O276 1.234 . S
C254 O277 1.283 . S
C255 O267 1.281 . S
C255 O268 1.236 . S
C256 O278 1.240 . S
C256 O279 1.264 . S
O257 Mn252 2.095 . S
O257 C266 1.250 . S
O258 Mn253 2.121 . S
O258 C266 1.258 . S
C259 N260 1.326 . S
C259 C263 1.460 . S
C259 H265 0.929 . S
N260 Mn253 2.257 . S
N260 C259 1.326 . S
N260 C264 1.362 . S
C261 C262 1.258 . S
C261 C264 1.431 . S
C261 C281 1.449 . S
C262 C261 1.258 . S
C262 C263 1.477 . S
C262 H282 0.931 . S
C263 C259 1.460 . S
C263 C262 1.477 . S
C263 H283 0.930 . S
C264 N260 1.362 . S
C264 C261 1.431 . S
C264 C274 1.476 . S
H265 C259 0.929 . S
C266 O257 1.250 . S
C266 O258 1.258 . S
O267 Mn252 2.162 . S
O267 C255 1.281 . S
O268 Mn252 2.297 . S
O268 C255 1.236 . S
N269 Mn253 2.282 . S
N269 C270 1.328 . S
N269 C274 1.318 . S
C270 N269 1.328 . S
C270 C271 1.457 . S
C270 H275 0.929 . S
C271 C270 1.457 . S
C271 C272 1.291 . S
C271 H284 0.931 . S
C272 C271 1.291 . S
C272 C273 1.373 . S
C272 H285 0.929 . S
C273 C272 1.373 . S
C273 C274 1.396 . S
C273 C280 1.403 . S
C274 C264 1.476 . S
C274 N269 1.318 . S
C274 C273 1.396 . S
H275 C270 0.929 . S
O276 Mn252 2.385 . S
O276 C254 1.234 . S
O277 Mn252 2.209 . S
O277 Mn253 2.215 . S
O277 C254 1.283 . S
O278 Mn252 2.094 . S
O278 C256 1.240 . S
O279 Mn253 2.117 . S
O279 C256 1.264 . S
C280 C273 1.403 . S
C280 C281 1.399 . S
C280 H286 0.929 . S
C281 C261 1.449 . S
C281 C280 1.399 . S
C281 H287 0.930 . S
H282 C262 0.931 . S
H283 C263 0.930 . S
H284 C271 0.931 . S
H285 C272 0.929 . S
H286 C280 0.929 . S
H287 C281 0.930 . S
Mn288 O293 2.095 . S
Mn288 O303 2.162 . S
Mn288 O304 2.297 . S
Mn288 O312 2.385 . S
Mn288 O313 2.209 . S
Mn288 O314 2.094 . S
Mn289 O294 2.121 . S
Mn289 N296 2.257 . S
Mn289 N305 2.282 . S
Mn289 O313 2.215 . S
Mn289 O315 2.117 . S
C290 O312 1.234 . S
C290 O313 1.283 . S
C291 O303 1.281 . S
C291 O304 1.236 . S
C292 O314 1.240 . S
C292 O315 1.264 . S
O293 Mn288 2.095 . S
O293 C302 1.250 . S
O294 Mn289 2.121 . S
O294 C302 1.258 . S
C295 N296 1.326 . S
C295 C299 1.460 . S
C295 H301 0.929 . S
N296 Mn289 2.257 . S
N296 C295 1.326 . S
N296 C300 1.362 . S
C297 C298 1.258 . S
C297 C300 1.431 . S
C297 C317 1.449 1_545 S
C298 C297 1.258 . S
C298 C299 1.477 . S
C298 H318 0.931 1_545 S
C299 C295 1.460 . S
C299 C298 1.477 . S
C299 H319 0.930 . S
C300 N296 1.362 . S
C300 C297 1.431 . S
C300 C310 1.476 . S
H301 C295 0.929 . S
C302 O293 1.250 . S
C302 O294 1.258 . S
O303 Mn288 2.162 . S
O303 C291 1.281 . S
O304 Mn288 2.297 . S
O304 C291 1.236 . S
N305 Mn289 2.282 . S
N305 C306 1.328 . S
N305 C310 1.318 . S
C306 N305 1.328 . S
C306 C307 1.457 . S
C306 H311 0.929 . S
C307 C306 1.457 . S
C307 C308 1.291 . S
C307 H320 0.931 . S
C308 C307 1.291 . S
C308 C309 1.373 . S
C308 H321 0.929 . S
C309 C308 1.373 . S
C309 C310 1.396 . S
C309 C316 1.403 . S
C310 C300 1.476 . S
C310 N305 1.318 . S
C310 C309 1.396 . S
H311 C306 0.929 . S
O312 Mn288 2.385 . S
O312 C290 1.234 . S
O313 Mn288 2.209 . S
O313 Mn289 2.215 . S
O313 C290 1.283 . S
O314 Mn288 2.094 . S
O314 C292 1.240 . S
O315 Mn289 2.117 . S
O315 C292 1.264 . S
C316 C309 1.403 . S
C316 C317 1.399 1_545 S
C316 H322 0.929 1_545 S
C317 C297 1.449 1_565 S
C317 C316 1.399 1_565 S
C317 H323 0.930 . S
H318 C298 0.931 1_565 S
H319 C299 0.930 . S
H320 C307 0.931 . S
H321 C308 0.929 . S
H322 C316 0.929 1_565 S
H323 C317 0.930 . S
Mn324 O329 2.095 . S
Mn324 O339 2.162 . S
Mn324 O340 2.297 . S
Mn324 O348 2.385 . S
Mn324 O349 2.209 . S
Mn324 O350 2.094 . S
Mn325 O330 2.121 . S
Mn325 N332 2.257 . S
Mn325 N341 2.282 . S
Mn325 O349 2.215 . S
Mn325 O351 2.117 . S
C326 O348 1.234 . S
C326 O349 1.283 . S
C327 O339 1.281 . S
C327 O340 1.236 . S
C328 O350 1.240 . S
C328 O351 1.264 . S
O329 Mn324 2.095 . S
O329 C338 1.250 . S
O330 Mn325 2.121 . S
O330 C338 1.258 . S
C331 N332 1.326 . S
C331 C335 1.460 . S
C331 H337 0.929 . S
N332 Mn325 2.257 . S
N332 C331 1.326 . S
N332 C336 1.362 . S
C333 C334 1.258 . S
C333 C336 1.431 . S
C333 C353 1.449 . S
C334 C333 1.258 . S
C334 C335 1.477 . S
C334 H354 0.931 . S
C335 C331 1.460 . S
C335 C334 1.477 . S
C335 H355 0.930 . S
C336 N332 1.362 . S
C336 C333 1.431 . S
C336 C346 1.476 . S
H337 C331 0.929 . S
C338 O329 1.250 . S
C338 O330 1.258 . S
O339 Mn324 2.162 . S
O339 C327 1.281 . S
O340 Mn324 2.297 . S
O340 C327 1.236 . S
N341 Mn325 2.282 . S
N341 C342 1.328 . S
N341 C346 1.318 . S
C342 N341 1.328 . S
C342 C343 1.457 . S
C342 H347 0.929 . S
C343 C342 1.457 . S
C343 C344 1.291 . S
C343 H356 0.931 . S
C344 C343 1.291 . S
C344 C345 1.373 . S
C344 H357 0.929 . S
C345 C344 1.373 . S
C345 C346 1.396 . S
C345 C352 1.403 . S
C346 C336 1.476 . S
C346 N341 1.318 . S
C346 C345 1.396 . S
H347 C342 0.929 . S
O348 Mn324 2.385 . S
O348 C326 1.234 . S
O349 Mn324 2.209 . S
O349 Mn325 2.215 . S
O349 C326 1.283 . S
O350 Mn324 2.094 . S
O350 C328 1.240 . S
O351 Mn325 2.117 . S
O351 C328 1.264 . S
C352 C345 1.403 . S
C352 C353 1.399 . S
C352 H358 0.929 . S
C353 C333 1.449 . S
C353 C352 1.399 . S
C353 H359 0.930 . S
H354 C334 0.931 . S
H355 C335 0.930 . S
H356 C343 0.931 . S
H357 C344 0.929 . S
H358 C352 0.929 . S
H359 C353 0.930 . S
Mn360 O365 2.095 . S
Mn360 O375 2.162 . S
Mn360 O376 2.297 . S
Mn360 O384 2.385 . S
Mn360 O385 2.209 . S
Mn360 O386 2.094 . S
Mn361 O366 2.121 . S
Mn361 N368 2.257 . S
Mn361 N377 2.282 . S
Mn361 O385 2.215 . S
Mn361 O387 2.117 . S
C362 O384 1.234 . S
C362 O385 1.283 . S
C363 O375 1.281 . S
C363 O376 1.236 . S
C364 O386 1.240 . S
C364 O387 1.264 . S
O365 Mn360 2.095 . S
O365 C374 1.250 . S
O366 Mn361 2.121 . S
O366 C374 1.258 . S
C367 N368 1.326 . S
C367 C371 1.460 . S
C367 H373 0.929 . S
N368 Mn361 2.257 . S
N368 C367 1.326 . S
N368 C372 1.362 . S
C369 C370 1.258 . S
C369 C372 1.431 . S
C369 C389 1.449 1_565 S
C370 C369 1.258 . S
C370 C371 1.477 . S
C370 H390 0.931 1_565 S
C371 C367 1.460 . S
C371 C370 1.477 . S
C371 H391 0.930 . S
C372 N368 1.362 . S
C372 C369 1.431 . S
C372 C382 1.476 . S
H373 C367 0.929 . S
C374 O365 1.250 . S
C374 O366 1.258 . S
O375 Mn360 2.162 . S
O375 C363 1.281 . S
O376 Mn360 2.297 . S
O376 C363 1.236 . S
N377 Mn361 2.282 . S
N377 C378 1.328 . S
N377 C382 1.318 . S
C378 N377 1.328 . S
C378 C379 1.457 . S
C378 H383 0.929 . S
C379 C378 1.457 . S
C379 C380 1.291 . S
C379 H392 0.931 . S
C380 C379 1.291 . S
C380 C381 1.373 . S
C380 H393 0.929 . S
C381 C380 1.373 . S
C381 C382 1.396 . S
C381 C388 1.403 . S
C382 C372 1.476 . S
C382 N377 1.318 . S
C382 C381 1.396 . S
H383 C378 0.929 . S
O384 Mn360 2.385 . S
O384 C362 1.234 . S
O385 Mn360 2.209 . S
O385 Mn361 2.215 . S
O385 C362 1.283 . S
O386 Mn360 2.094 . S
O386 C364 1.240 . S
O387 Mn361 2.117 . S
O387 C364 1.264 . S
C388 C381 1.403 . S
C388 C389 1.399 1_565 S
C388 H394 0.929 1_565 S
C389 C369 1.449 1_545 S
C389 C388 1.399 1_545 S
C389 H395 0.930 . S
H390 C370 0.931 1_545 S
H391 C371 0.930 . S
H392 C379 0.931 . S
H393 C380 0.929 . S
H394 C388 0.929 1_545 S
H395 C389 0.930 . S
Mn396 O401 2.095 . S
Mn396 O411 2.162 . S
Mn396 O412 2.297 . S
Mn396 O420 2.385 . S
Mn396 O421 2.209 . S
Mn396 O422 2.094 . S
Mn397 O402 2.121 . S
Mn397 N404 2.257 . S
Mn397 N413 2.282 . S
Mn397 O421 2.215 . S
Mn397 O423 2.117 . S
C398 O420 1.234 . S
C398 O421 1.283 . S
C399 O411 1.281 . S
C399 O412 1.236 . S
C400 O422 1.240 . S
C400 O423 1.264 . S
O401 Mn396 2.095 . S
O401 C410 1.250 . S
O402 Mn397 2.121 . S
O402 C410 1.258 . S
C403 N404 1.326 . S
C403 C407 1.460 . S
C403 H409 0.929 . S
N404 Mn397 2.257 . S
N404 C403 1.326 . S
N404 C408 1.362 . S
C405 C406 1.258 . S
C405 C408 1.431 . S
C405 C425 1.449 . S
C406 C405 1.258 . S
C406 C407 1.477 . S
C406 H426 0.931 . S
C407 C403 1.460 . S
C407 C406 1.477 . S
C407 H427 0.930 . S
C408 N404 1.362 . S
C408 C405 1.431 . S
C408 C418 1.476 . S
H409 C403 0.929 . S
C410 O401 1.250 . S
C410 O402 1.258 . S
O411 Mn396 2.162 . S
O411 C399 1.281 . S
O412 Mn396 2.297 . S
O412 C399 1.236 . S
N413 Mn397 2.282 . S
N413 C414 1.328 . S
N413 C418 1.318 . S
C414 N413 1.328 . S
C414 C415 1.457 . S
C414 H419 0.929 . S
C415 C414 1.457 . S
C415 C416 1.291 . S
C415 H428 0.931 . S
C416 C415 1.291 . S
C416 C417 1.373 . S
C416 H429 0.929 . S
C417 C416 1.373 . S
C417 C418 1.396 . S
C417 C424 1.403 . S
C418 C408 1.476 . S
C418 N413 1.318 . S
C418 C417 1.396 . S
H419 C414 0.929 . S
O420 Mn396 2.385 . S
O420 C398 1.234 . S
O421 Mn396 2.209 . S
O421 Mn397 2.215 . S
O421 C398 1.283 . S
O422 Mn396 2.094 . S
O422 C400 1.240 . S
O423 Mn397 2.117 . S
O423 C400 1.264 . S
C424 C417 1.403 . S
C424 C425 1.399 . S
C424 H430 0.929 . S
C425 C405 1.449 . S
C425 C424 1.399 . S
C425 H431 0.930 . S
H426 C406 0.931 . S
H427 C407 0.930 . S
H428 C415 0.931 . S
H429 C416 0.929 . S
H430 C424 0.929 . S
H431 C425 0.930 . S
Mn432 O437 2.095 . S
Mn432 O447 2.162 . S
Mn432 O448 2.297 . S
Mn432 O456 2.385 . S
Mn432 O457 2.209 . S
Mn432 O458 2.094 . S
Mn433 O438 2.121 . S
Mn433 N440 2.257 . S
Mn433 N449 2.282 . S
Mn433 O457 2.215 . S
Mn433 O459 2.117 . S
C434 O456 1.234 . S
C434 O457 1.283 . S
C435 O447 1.281 . S
C435 O448 1.236 . S
C436 O458 1.240 . S
C436 O459 1.264 . S
O437 Mn432 2.095 . S
O437 C446 1.250 . S
O438 Mn433 2.121 . S
O438 C446 1.258 . S
C439 N440 1.326 . S
C439 C443 1.460 . S
C439 H445 0.929 . S
N440 Mn433 2.257 . S
N440 C439 1.326 . S
N440 C444 1.362 . S
C441 C442 1.258 . S
C441 C444 1.431 . S
C441 C461 1.449 . S
C442 C441 1.258 . S
C442 C443 1.477 . S
C442 H462 0.931 . S
C443 C439 1.460 . S
C443 C442 1.477 . S
C443 H463 0.930 . S
C444 N440 1.362 . S
C444 C441 1.431 . S
C444 C454 1.476 . S
H445 C439 0.929 . S
C446 O437 1.250 . S
C446 O438 1.258 . S
O447 Mn432 2.162 . S
O447 C435 1.281 . S
O448 Mn432 2.297 . S
O448 C435 1.236 . S
N449 Mn433 2.282 . S
N449 C450 1.328 . S
N449 C454 1.318 . S
C450 N449 1.328 . S
C450 C451 1.457 . S
C450 H455 0.929 . S
C451 C450 1.457 . S
C451 C452 1.291 . S
C451 H464 0.931 . S
C452 C451 1.291 . S
C452 C453 1.373 . S
C452 H465 0.929 . S
C453 C452 1.373 . S
C453 C454 1.396 . S
C453 C460 1.403 . S
C454 C444 1.476 . S
C454 N449 1.318 . S
C454 C453 1.396 . S
H455 C450 0.929 . S
O456 Mn432 2.385 . S
O456 C434 1.234 . S
O457 Mn432 2.209 . S
O457 Mn433 2.215 . S
O457 C434 1.283 . S
O458 Mn432 2.094 . S
O458 C436 1.240 . S
O459 Mn433 2.117 . S
O459 C436 1.264 . S
C460 C453 1.403 . S
C460 C461 1.399 . S
C460 H466 0.929 . S
C461 C441 1.449 . S
C461 C460 1.399 . S
C461 H467 0.930 . S
H462 C442 0.931 . S
H463 C443 0.930 . S
H464 C451 0.931 . S
H465 C452 0.929 . S
H466 C460 0.929 . S
H467 C461 0.930 . S
Mn468 O473 2.095 . S
Mn468 O483 2.162 . S
Mn468 O484 2.297 . S
Mn468 O492 2.385 . S
Mn468 O493 2.209 . S
Mn468 O494 2.094 . S
Mn469 O474 2.121 . S
Mn469 N476 2.257 . S
Mn469 N485 2.282 . S
Mn469 O493 2.215 . S
Mn469 O495 2.117 . S
C470 O492 1.234 . S
C470 O493 1.283 . S
C471 O483 1.281 . S
C471 O484 1.236 . S
C472 O494 1.240 . S
C472 O495 1.264 . S
O473 Mn468 2.095 . S
O473 C482 1.250 . S
O474 Mn469 2.121 . S
O474 C482 1.258 . S
C475 N476 1.326 . S
C475 C479 1.460 . S
C475 H481 0.929 . S
N476 Mn469 2.257 . S
N476 C475 1.326 . S
N476 C480 1.362 . S
C477 C478 1.258 . S
C477 C480 1.431 . S
C477 C497 1.449 . S
C478 C477 1.258 . S
C478 C479 1.477 . S
C478 H498 0.931 . S
C479 C475 1.460 . S
C479 C478 1.477 . S
C479 H499 0.930 . S
C480 N476 1.362 . S
C480 C477 1.431 . S
C480 C490 1.476 . S
H481 C475 0.929 . S
C482 O473 1.250 . S
C482 O474 1.258 . S
O483 Mn468 2.162 . S
O483 C471 1.281 . S
O484 Mn468 2.297 . S
O484 C471 1.236 . S
N485 Mn469 2.282 . S
N485 C486 1.328 . S
N485 C490 1.318 . S
C486 N485 1.328 . S
C486 C487 1.457 . S
C486 H491 0.929 . S
C487 C486 1.457 . S
C487 C488 1.291 . S
C487 H500 0.931 . S
C488 C487 1.291 . S
C488 C489 1.373 . S
C488 H501 0.929 . S
C489 C488 1.373 . S
C489 C490 1.396 . S
C489 C496 1.403 . S
C490 C480 1.476 . S
C490 N485 1.318 . S
C490 C489 1.396 . S
H491 C486 0.929 . S
O492 Mn468 2.385 . S
O492 C470 1.234 . S
O493 Mn468 2.209 . S
O493 Mn469 2.215 . S
O493 C470 1.283 . S
O494 Mn468 2.094 . S
O494 C472 1.240 . S
O495 Mn469 2.117 . S
O495 C472 1.264 . S
C496 C489 1.403 . S
C496 C497 1.399 . S
C496 H502 0.929 . S
C497 C477 1.449 . S
C497 C496 1.399 . S
C497 H503 0.930 . S
H498 C478 0.931 . S
H499 C479 0.930 . S
H500 C487 0.931 . S
H501 C488 0.929 . S
H502 C496 0.929 . S
H503 C497 0.930 . S
Mn504 O509 2.095 . S
Mn504 O519 2.162 . S
Mn504 O520 2.297 . S
Mn504 O528 2.385 . S
Mn504 O529 2.209 . S
Mn504 O530 2.094 . S
Mn505 O510 2.121 . S
Mn505 N512 2.257 . S
Mn505 N521 2.282 . S
Mn505 O529 2.215 . S
Mn505 O531 2.117 . S
C506 O528 1.234 . S
C506 O529 1.283 . S
C507 O519 1.281 . S
C507 O520 1.236 . S
C508 O530 1.240 . S
C508 O531 1.264 . S
O509 Mn504 2.095 . S
O509 C518 1.250 . S
O510 Mn505 2.121 . S
O510 C518 1.258 . S
C511 N512 1.326 . S
C511 C515 1.460 . S
C511 H517 0.929 . S
N512 Mn505 2.257 . S
N512 C511 1.326 . S
N512 C516 1.362 . S
C513 C514 1.258 . S
C513 C516 1.431 . S
C513 C533 1.449 . S
C514 C513 1.258 . S
C514 C515 1.477 . S
C514 H534 0.931 . S
C515 C511 1.460 . S
C515 C514 1.477 . S
C515 H535 0.930 . S
C516 N512 1.362 . S
C516 C513 1.431 . S
C516 C526 1.476 . S
H517 C511 0.929 . S
C518 O509 1.250 . S
C518 O510 1.258 . S
O519 Mn504 2.162 . S
O519 C507 1.281 . S
O520 Mn504 2.297 . S
O520 C507 1.236 . S
N521 Mn505 2.282 . S
N521 C522 1.328 . S
N521 C526 1.318 . S
C522 N521 1.328 . S
C522 C523 1.457 . S
C522 H527 0.929 . S
C523 C522 1.457 . S
C523 C524 1.291 . S
C523 H536 0.931 . S
C524 C523 1.291 . S
C524 C525 1.373 . S
C524 H537 0.929 . S
C525 C524 1.373 . S
C525 C526 1.396 . S
C525 C532 1.403 . S
C526 C516 1.476 . S
C526 N521 1.318 . S
C526 C525 1.396 . S
H527 C522 0.929 . S
O528 Mn504 2.385 . S
O528 C506 1.234 . S
O529 Mn504 2.209 . S
O529 Mn505 2.215 . S
O529 C506 1.283 . S
O530 Mn504 2.094 . S
O530 C508 1.240 . S
O531 Mn505 2.117 . S
O531 C508 1.264 . S
C532 C525 1.403 . S
C532 C533 1.399 . S
C532 H538 0.929 . S
C533 C513 1.449 . S
C533 C532 1.399 . S
C533 H539 0.930 . S
H534 C514 0.931 . S
H535 C515 0.930 . S
H536 C523 0.931 . S
H537 C524 0.929 . S
H538 C532 0.929 . S
H539 C533 0.930 . S
Mn540 O545 2.095 . S
Mn540 O555 2.162 . S
Mn540 O556 2.297 . S
Mn540 O564 2.385 . S
Mn540 O565 2.209 . S
Mn540 O566 2.094 . S
Mn541 O546 2.121 . S
Mn541 N548 2.257 . S
Mn541 N557 2.282 . S
Mn541 O565 2.215 . S
Mn541 O567 2.117 . S
C542 O564 1.234 . S
C542 O565 1.283 . S
C543 O555 1.281 . S
C543 O556 1.236 . S
C544 O566 1.240 . S
C544 O567 1.264 . S
O545 Mn540 2.095 . S
O545 C554 1.250 . S
O546 Mn541 2.121 . S
O546 C554 1.258 . S
C547 N548 1.326 . S
C547 C551 1.460 . S
C547 H553 0.929 . S
N548 Mn541 2.257 . S
N548 C547 1.326 . S
N548 C552 1.362 . S
C549 C550 1.258 . S
C549 C552 1.431 . S
C549 C569 1.449 . S
C550 C549 1.258 . S
C550 C551 1.477 . S
C550 H570 0.931 . S
C551 C547 1.460 . S
C551 C550 1.477 . S
C551 H571 0.930 . S
C552 N548 1.362 . S
C552 C549 1.431 . S
C552 C562 1.476 . S
H553 C547 0.929 . S
C554 O545 1.250 . S
C554 O546 1.258 . S
O555 Mn540 2.162 . S
O555 C543 1.281 . S
O556 Mn540 2.297 . S
O556 C543 1.236 . S
N557 Mn541 2.282 . S
N557 C558 1.328 . S
N557 C562 1.318 . S
C558 N557 1.328 . S
C558 C559 1.457 . S
C558 H563 0.929 . S
C559 C558 1.457 . S
C559 C560 1.291 . S
C559 H572 0.931 . S
C560 C559 1.291 . S
C560 C561 1.373 . S
C560 H573 0.929 . S
C561 C560 1.373 . S
C561 C562 1.396 . S
C561 C568 1.403 . S
C562 C552 1.476 . S
C562 N557 1.318 . S
C562 C561 1.396 . S
H563 C558 0.929 . S
O564 Mn540 2.385 . S
O564 C542 1.234 . S
O565 Mn540 2.209 . S
O565 Mn541 2.215 . S
O565 C542 1.283 . S
O566 Mn540 2.094 . S
O566 C544 1.240 . S
O567 Mn541 2.117 . S
O567 C544 1.264 . S
C568 C561 1.403 . S
C568 C569 1.399 . S
C568 H574 0.929 . S
C569 C549 1.449 . S
C569 C568 1.399 . S
C569 H575 0.930 . S
H570 C550 0.931 . S
H571 C551 0.930 . S
H572 C559 0.931 . S
H573 C560 0.929 . S
H574 C568 0.929 . S
H575 C569 0.930 . S
H576 C594 0.951 . S
H577 C596 0.951 . S
H578 C598 0.950 . S
H579 C599 0.950 . S
H580 C601 0.950 . S
H581 C604 0.950 . S
H582 C605 0.950 . S
H583 C607 0.950 . S
H584 C608 0.950 . S
H585 C609 0.951 . S
H586 C611 0.951 . S
H587 C613 0.950 . S
H588 C614 0.950 . S
H589 C616 0.950 . S
H590 C619 0.950 . S
H591 C620 0.950 . S
H592 C622 0.950 . S
H593 C623 0.950 . S
C594 H576 0.951 . S
C594 C595 1.366 . S
C594 C596 1.388 . S
C595 C594 1.366 . S
C595 C599 1.385 . S
C596 H577 0.951 . S
C596 C594 1.388 . S
C596 C597 1.366 . S
C597 C596 1.366 . S
C597 C598 1.414 . S
C597 C600 1.499 . S
C598 H578 0.950 . S
C598 C597 1.414 . S
C598 C599 1.374 . S
C599 H579 0.950 . S
C599 C595 1.385 . S
C599 C598 1.374 . S
C600 C597 1.499 . S
C600 C601 1.373 . S
C600 C602 1.389 . S
C601 H580 0.950 . S
C601 C600 1.373 . S
C601 C617 1.377 . S
C602 C600 1.389 . S
C602 C603 1.524 . S
C602 C616 1.377 . S
C603 C602 1.524 . S
C603 C604 1.397 . S
C603 C608 1.363 . S
C604 H581 0.950 . S
C604 C603 1.397 . S
C604 C605 1.334 . S
C605 H582 0.950 . S
C605 C604 1.334 . S
C605 C606 1.287 . S
C606 C605 1.287 . S
C606 C607 1.524 . S
C606 H625 0.913 . S
C607 H583 0.950 . S
C607 C606 1.524 . S
C607 C608 1.415 . S
C608 H584 0.950 . S
C608 C603 1.363 . S
C608 C607 1.415 . S
C609 H585 0.951 . S
C609 C610 1.366 . S
C609 C611 1.388 . S
C610 C609 1.366 . S
C610 C614 1.385 . S
C611 H586 0.951 . S
C611 C609 1.388 . S
C611 C612 1.366 . S
C612 C611 1.366 . S
C612 C613 1.414 . S
C612 C615 1.499 . S
C613 H587 0.950 . S
C613 C612 1.414 . S
C613 C614 1.374 . S
C614 H588 0.950 . S
C614 C610 1.385 . S
C614 C613 1.374 . S
C615 C612 1.499 . S
C615 C616 1.373 . S
C615 C617 1.389 . S
C616 H589 0.950 . S
C616 C602 1.377 . S
C616 C615 1.373 . S
C617 C601 1.377 . S
C617 C615 1.389 . S
C617 C618 1.524 . S
C618 C617 1.524 . S
C618 C619 1.397 . S
C618 C623 1.363 . S
C619 H590 0.950 . S
C619 C618 1.397 . S
C619 C620 1.334 . S
C620 H591 0.950 . S
C620 C619 1.334 . S
C620 C621 1.287 . S
C621 C620 1.287 . S
C621 C622 1.524 . S
C621 H624 0.999 . S
C622 H592 0.950 . S
C622 C621 1.524 . S
C622 C623 1.415 . S
C623 H593 0.950 . S
C623 C618 1.363 . S
C623 C622 1.415 . S
H624 C621 0.999 . S
H625 C606 0.913 . S
H626 C644 0.951 . S
H627 C646 0.951 1_545 S
H628 C648 0.950 . S
H629 C649 0.950 . S
H630 C651 0.950 . S
H631 C654 0.950 . S
H632 C655 0.950 . S
H633 C657 0.950 . S
H634 C658 0.950 . S
H635 C659 0.951 . S
H636 C661 0.951 1_565 S
H637 C663 0.950 . S
H638 C664 0.950 . S
H639 C666 0.950 . S
H640 C669 0.950 . S
H641 C670 0.950 . S
H642 C672 0.950 . S
H643 C673 0.950 . S
C644 H626 0.951 . S
C644 C645 1.366 . S
C644 C646 1.388 . S
C645 C644 1.366 . S
C645 C649 1.385 . S
C646 H627 0.951 1_565 S
C646 C644 1.388 . S
C646 C647 1.366 . S
C647 C646 1.366 . S
C647 C648 1.414 . S
C647 C650 1.499 . S
C648 H628 0.950 . S
C648 C647 1.414 . S
C648 C649 1.374 . S
C649 H629 0.950 . S
C649 C645 1.385 . S
C649 C648 1.374 . S
C650 C647 1.499 . S
C650 C651 1.373 1_655 S
C650 C652 1.389 1_565 S
C651 H630 0.950 . S
C651 C650 1.373 1_455 S
C651 C667 1.377 . S
C652 C650 1.389 1_545 S
C652 C653 1.524 . S
C652 C666 1.377 . S
C653 C652 1.524 . S
C653 C654 1.397 . S
C653 C658 1.363 . S
C654 H631 0.950 . S
C654 C653 1.397 . S
C654 C655 1.334 . S
C655 H632 0.950 . S
C655 C654 1.334 . S
C655 C656 1.287 . S
C656 C655 1.287 . S
C656 C657 1.524 . S
C656 H675 0.913 . S
C657 H633 0.950 . S
C657 C656 1.524 . S
C657 C658 1.415 . S
C658 H634 0.950 . S
C658 C653 1.363 . S
C658 C657 1.415 . S
C659 H635 0.951 . S
C659 C660 1.366 . S
C659 C661 1.388 . S
C660 C659 1.366 . S
C660 C664 1.385 . S
C661 H636 0.951 1_545 S
C661 C659 1.388 . S
C661 C662 1.366 . S
C662 C661 1.366 . S
C662 C663 1.414 . S
C662 C665 1.499 . S
C663 H637 0.950 . S
C663 C662 1.414 . S
C663 C664 1.374 . S
C664 H638 0.950 . S
C664 C660 1.385 . S
C664 C663 1.374 . S
C665 C662 1.499 . S
C665 C666 1.373 1_455 S
C665 C667 1.389 1_545 S
C666 H639 0.950 . S
C666 C652 1.377 . S
C666 C665 1.373 1_655 S
C667 C651 1.377 . S
C667 C665 1.389 1_565 S
C667 C668 1.524 . S
C668 C667 1.524 . S
C668 C669 1.397 . S
C668 C673 1.363 . S
C669 H640 0.950 . S
C669 C668 1.397 . S
C669 C670 1.334 . S
C670 H641 0.950 . S
C670 C669 1.334 . S
C670 C671 1.287 . S
C671 C670 1.287 . S
C671 C672 1.524 . S
C671 H674 0.999 . S
C672 H642 0.950 . S
C672 C671 1.524 . S
C672 C673 1.415 . S
C673 H643 0.950 . S
C673 C668 1.363 . S
C673 C672 1.415 . S
H674 C671 0.999 . S
H675 C656 0.913 . S
H676 C694 0.951 . S
H677 C696 0.951 . S
H678 C698 0.950 . S
H679 C699 0.950 . S
H680 C701 0.950 . S
H681 C704 0.950 . S
H682 C705 0.950 . S
H683 C707 0.950 . S
H684 C708 0.944 1_565 S
H685 C709 0.951 . S
H686 C711 0.951 . S
H687 C713 0.950 . S
H688 C714 0.950 . S
H689 C716 0.950 . S
H690 C719 0.950 . S
H691 C720 0.950 . S
H692 C722 0.950 . S
H693 C723 0.944 1_545 S
C694 H676 0.951 . S
C694 C695 1.366 . S
C694 C696 1.388 . S
C695 C694 1.366 . S
C695 C699 1.385 . S
C696 H677 0.951 . S
C696 C694 1.388 . S
C696 C697 1.366 . S
C697 C696 1.366 . S
C697 C698 1.414 . S
C697 C700 1.499 . S
C698 H678 0.950 . S
C698 C697 1.414 . S
C698 C699 1.374 . S
C699 H679 0.950 . S
C699 C695 1.385 . S
C699 C698 1.374 . S
C700 C697 1.499 . S
C700 C701 1.373 . S
C700 C702 1.389 1_565 S
C701 H680 0.950 . S
C701 C700 1.373 . S
C701 C717 1.377 . S
C702 C700 1.389 1_545 S
C702 C703 1.524 . S
C702 C716 1.377 . S
C703 C702 1.524 . S
C703 C704 1.397 . S
C703 C708 1.366 . S
C704 H681 0.950 . S
C704 C703 1.397 . S
C704 C705 1.334 . S
C705 H682 0.950 . S
C705 C704 1.334 . S
C705 C706 1.287 . S
C706 C705 1.287 . S
C706 C707 1.524 . S
C706 H725 0.913 . S
C707 H683 0.950 . S
C707 C706 1.524 . S
C707 C708 1.418 . S
C708 H684 0.944 1_545 S
C708 C703 1.366 . S
C708 C707 1.418 . S
C709 H685 0.951 . S
C709 C710 1.366 . S
C709 C711 1.388 . S
C710 C709 1.366 . S
C710 C714 1.385 . S
C711 H686 0.951 . S
C711 C709 1.388 . S
C711 C712 1.366 . S
C712 C711 1.366 . S
C712 C713 1.414 . S
C712 C715 1.499 . S
C713 H687 0.950 . S
C713 C712 1.414 . S
C713 C714 1.374 . S
C714 H688 0.950 . S
C714 C710 1.385 . S
C714 C713 1.374 . S
C715 C712 1.499 . S
C715 C716 1.373 . S
C715 C717 1.389 1_545 S
C716 H689 0.950 . S
C716 C702 1.377 . S
C716 C715 1.373 . S
C717 C701 1.377 . S
C717 C715 1.389 1_565 S
C717 C718 1.524 . S
C718 C717 1.524 . S
C718 C719 1.397 . S
C718 C723 1.365 . S
C719 H690 0.950 . S
C719 C718 1.397 . S
C719 C720 1.334 . S
C720 H691 0.950 . S
C720 C719 1.334 . S
C720 C721 1.287 . S
C721 C720 1.287 . S
C721 C722 1.524 . S
C721 H724 0.999 . S
C722 H692 0.950 . S
C722 C721 1.524 . S
C722 C723 1.418 . S
C723 H693 0.944 1_565 S
C723 C718 1.365 . S
C723 C722 1.418 . S
H724 C721 0.999 . S
H725 C706 0.913 . S
H726 C744 0.951 . S
H727 C746 0.951 . S
H728 C748 0.950 . S
H729 C749 0.950 . S
H730 C751 0.950 . S
H731 C754 0.950 . S
H732 C755 0.950 . S
H733 C757 0.950 . S
H734 C758 0.950 . S
H735 C759 0.951 . S
H736 C761 0.951 . S
H737 C763 0.950 . S
H738 C764 0.950 . S
H739 C766 0.950 . S
H740 C769 0.950 . S
H741 C770 0.950 . S
H742 C772 0.950 . S
H743 C773 0.950 . S
C744 H726 0.951 . S
C744 C745 1.366 . S
C744 C746 1.388 . S
C745 C744 1.366 . S
C745 C749 1.385 . S
C746 H727 0.951 . S
C746 C744 1.388 . S
C746 C747 1.366 . S
C747 C746 1.366 . S
C747 C748 1.414 . S
C747 C750 1.499 . S
C748 H728 0.950 . S
C748 C747 1.414 . S
C748 C749 1.374 . S
C749 H729 0.950 . S
C749 C745 1.385 . S
C749 C748 1.374 . S
C750 C747 1.499 . S
C750 C751 1.373 1_455 S
C750 C752 1.389 . S
C751 H730 0.950 . S
C751 C750 1.373 1_655 S
C751 C767 1.377 . S
C752 C750 1.389 . S
C752 C753 1.524 . S
C752 C766 1.377 . S
C753 C752 1.524 . S
C753 C754 1.397 . S
C753 C758 1.363 . S
C754 H731 0.950 . S
C754 C753 1.397 . S
C754 C755 1.334 . S
C755 H732 0.950 . S
C755 C754 1.334 . S
C755 C756 1.287 . S
C756 C755 1.287 . S
C756 C757 1.524 . S
C756 H775 0.913 . S
C757 H733 0.950 . S
C757 C756 1.524 . S
C757 C758 1.415 . S
C758 H734 0.950 . S
C758 C753 1.363 . S
C758 C757 1.415 . S
C759 H735 0.951 . S
C759 C760 1.366 . S
C759 C761 1.388 . S
C760 C759 1.366 . S
C760 C764 1.385 . S
C761 H736 0.951 . S
C761 C759 1.388 . S
C761 C762 1.366 . S
C762 C761 1.366 . S
C762 C763 1.414 . S
C762 C765 1.499 . S
C763 H737 0.950 . S
C763 C762 1.414 . S
C763 C764 1.374 . S
C764 H738 0.950 . S
C764 C760 1.385 . S
C764 C763 1.374 . S
C765 C762 1.499 . S
C765 C766 1.373 1_655 S
C765 C767 1.389 . S
C766 H739 0.950 . S
C766 C752 1.377 . S
C766 C765 1.373 1_455 S
C767 C751 1.377 . S
C767 C765 1.389 . S
C767 C768 1.524 . S
C768 C767 1.524 . S
C768 C769 1.397 . S
C768 C773 1.363 . S
C769 H740 0.950 . S
C769 C768 1.397 . S
C769 C770 1.334 . S
C770 H741 0.950 . S
C770 C769 1.334 . S
C770 C771 1.287 . S
C771 C770 1.287 . S
C771 C772 1.524 . S
C771 H774 0.999 . S
C772 H742 0.950 . S
C772 C771 1.524 . S
C772 C773 1.415 . S
C773 H743 0.950 . S
C773 C768 1.363 . S
C773 C772 1.415 . S
H774 C771 0.999 . S
H775 C756 0.913 . S
H776 C794 0.951 . S
H777 C796 0.951 . S
H778 C798 0.950 . S
H779 C799 0.950 . S
H780 C801 0.950 . S
H781 C804 0.950 . S
H782 C805 0.950 . S
H783 C807 0.950 . S
H784 C808 0.950 . S
H785 C809 0.951 . S
H786 C811 0.951 . S
H787 C813 0.950 . S
H788 C814 0.950 . S
H789 C816 0.950 . S
H790 C819 0.950 . S
H791 C820 0.950 . S
H792 C822 0.950 . S
H793 C823 0.950 . S
C794 H776 0.951 . S
C794 C795 1.366 . S
C794 C796 1.388 . S
C795 C794 1.366 . S
C795 C799 1.385 . S
C796 H777 0.951 . S
C796 C794 1.388 . S
C796 C797 1.366 . S
C797 C796 1.366 . S
C797 C798 1.414 . S
C797 C800 1.499 . S
C798 H778 0.950 . S
C798 C797 1.414 . S
C798 C799 1.374 . S
C799 H779 0.950 . S
C799 C795 1.385 . S
C799 C798 1.374 . S
C800 C797 1.499 . S
C800 C801 1.373 . S
C800 C802 1.389 . S
C801 H780 0.950 . S
C801 C800 1.373 . S
C801 C817 1.377 . S
C802 C800 1.389 . S
C802 C803 1.524 . S
C802 C816 1.377 . S
C803 C802 1.524 . S
C803 C804 1.397 . S
C803 C808 1.363 . S
C804 H781 0.950 . S
C804 C803 1.397 . S
C804 C805 1.334 . S
C805 H782 0.950 . S
C805 C804 1.334 . S
C805 C806 1.287 . S
C806 C805 1.287 . S
C806 C807 1.524 . S
C806 H825 0.913 . S
C807 H783 0.950 . S
C807 C806 1.524 . S
C807 C808 1.415 . S
C808 H784 0.950 . S
C808 C803 1.363 . S
C808 C807 1.415 . S
C809 H785 0.951 . S
C809 C810 1.366 . S
C809 C811 1.388 . S
C810 C809 1.366 . S
C810 C814 1.385 . S
C811 H786 0.951 . S
C811 C809 1.388 . S
C811 C812 1.366 . S
C812 C811 1.366 . S
C812 C813 1.414 . S
C812 C815 1.499 . S
C813 H787 0.950 . S
C813 C812 1.414 . S
C813 C814 1.374 . S
C814 H788 0.950 . S
C814 C810 1.385 . S
C814 C813 1.374 . S
C815 C812 1.499 . S
C815 C816 1.373 . S
C815 C817 1.389 . S
C816 H789 0.950 . S
C816 C802 1.377 . S
C816 C815 1.373 . S
C817 C801 1.377 . S
C817 C815 1.389 . S
C817 C818 1.524 . S
C818 C817 1.524 . S
C818 C819 1.397 . S
C818 C823 1.363 . S
C819 H790 0.950 . S
C819 C818 1.397 . S
C819 C820 1.334 . S
C820 H791 0.950 . S
C820 C819 1.334 . S
C820 C821 1.287 . S
C821 C820 1.287 . S
C821 C822 1.524 . S
C821 H824 0.999 . S
C822 H792 0.950 . S
C822 C821 1.524 . S
C822 C823 1.415 . S
C823 H793 0.950 . S
C823 C818 1.363 . S
C823 C822 1.415 . S
H824 C821 0.999 . S
H825 C806 0.913 . S
H826 C844 0.951 . S
H827 C846 0.951 1_565 S
H828 C848 0.950 . S
H829 C849 0.950 . S
H830 C851 0.950 . S
H831 C854 0.950 . S
H832 C855 0.950 . S
H833 C857 0.950 . S
H834 C858 0.950 . S
H835 C859 0.951 . S
H836 C861 0.951 1_545 S
H837 C863 0.950 . S
H838 C864 0.950 . S
H839 C866 0.950 . S
H840 C869 0.950 . S
H841 C870 0.950 . S
H842 C872 0.950 . S
H843 C873 0.950 . S
C844 H826 0.951 . S
C844 C845 1.366 . S
C844 C846 1.388 . S
C845 C844 1.366 . S
C845 C849 1.385 . S
C846 H827 0.951 1_545 S
C846 C844 1.388 . S
C846 C847 1.366 . S
C847 C846 1.366 . S
C847 C848 1.414 . S
C847 C850 1.499 . S
C848 H828 0.950 . S
C848 C847 1.414 . S
C848 C849 1.374 . S
C849 H829 0.950 . S
C849 C845 1.385 . S
C849 C848 1.374 . S
C850 C847 1.499 . S
C850 C851 1.373 . S
C850 C852 1.389 1_545 S
C851 H830 0.950 . S
C851 C850 1.373 . S
C851 C867 1.377 . S
C852 C850 1.389 1_565 S
C852 C853 1.524 . S
C852 C866 1.377 . S
C853 C852 1.524 . S
C853 C854 1.397 1_565 S
C853 C858 1.363 . S
C854 H831 0.950 . S
C854 C853 1.397 1_545 S
C854 C855 1.334 . S
C855 H832 0.950 . S
C855 C854 1.334 . S
C855 C856 1.287 1_545 S
C856 C855 1.287 1_565 S
C856 C857 1.524 . S
C856 H875 0.913 . S
C857 H833 0.950 . S
C857 C856 1.524 . S
C857 C858 1.415 . S
C858 H834 0.950 . S
C858 C853 1.363 . S
C858 C857 1.415 . S
C859 H835 0.951 . S
C859 C860 1.366 . S
C859 C861 1.388 . S
C860 C859 1.366 . S
C860 C864 1.385 . S
C861 H836 0.951 1_565 S
C861 C859 1.388 . S
C861 C862 1.366 . S
C862 C861 1.366 . S
C862 C863 1.414 . S
C862 C865 1.499 . S
C863 H837 0.950 . S
C863 C862 1.414 . S
C863 C864 1.374 . S
C864 H838 0.950 . S
C864 C860 1.385 . S
C864 C863 1.374 . S
C865 C862 1.499 . S
C865 C866 1.373 . S
C865 C867 1.389 1_565 S
C866 H839 0.950 . S
C866 C852 1.377 . S
C866 C865 1.373 . S
C867 C851 1.377 . S
C867 C865 1.389 1_545 S
C867 C868 1.524 . S
C868 C867 1.524 . S
C868 C869 1.397 1_545 S
C868 C873 1.363 . S
C869 H840 0.950 . S
C869 C868 1.397 1_565 S
C869 C870 1.334 . S
C870 H841 0.950 . S
C870 C869 1.334 . S
C870 C871 1.287 1_565 S
C871 C870 1.287 1_545 S
C871 C872 1.524 . S
C871 H874 0.999 . S
C872 H842 0.950 . S
C872 C871 1.524 . S
C872 C873 1.415 . S
C873 H843 0.950 . S
C873 C868 1.363 . S
C873 C872 1.415 . S
H874 C871 0.999 . S
H875 C856 0.913 . S
H876 C894 0.951 . S
H877 C896 0.951 . S
H878 C898 0.950 . S
H879 C899 0.950 . S
H880 C901 0.950 . S
H881 C904 0.950 . S
H882 C905 0.950 . S
H883 C907 0.950 . S
H884 C908 0.950 . S
H885 C909 0.951 . S
H886 C911 0.951 . S
H887 C913 0.950 . S
H888 C914 0.950 . S
H889 C916 0.950 . S
H890 C919 0.950 . S
H891 C920 0.950 . S
H892 C922 0.950 . S
H893 C923 0.950 . S
C894 H876 0.951 . S
C894 C895 1.366 . S
C894 C896 1.388 . S
C895 C894 1.366 . S
C895 C899 1.385 . S
C896 H877 0.951 . S
C896 C894 1.388 . S
C896 C897 1.366 . S
C897 C896 1.366 . S
C897 C898 1.414 . S
C897 C900 1.499 . S
C898 H878 0.950 . S
C898 C897 1.414 . S
C898 C899 1.374 . S
C899 H879 0.950 . S
C899 C895 1.385 . S
C899 C898 1.374 . S
C900 C897 1.499 . S
C900 C901 1.373 . S
C900 C902 1.389 . S
C901 H880 0.950 . S
C901 C900 1.373 . S
C901 C917 1.377 1_655 S
C902 C900 1.389 . S
C902 C903 1.524 . S
C902 C916 1.377 1_655 S
C903 C902 1.524 . S
C903 C904 1.397 . S
C903 C908 1.363 1_655 S
C904 H881 0.950 . S
C904 C903 1.397 . S
C904 C905 1.334 . S
C905 H882 0.950 . S
C905 C904 1.334 . S
C905 C906 1.287 . S
C906 C905 1.287 . S
C906 C907 1.524 1_655 S
C906 H925 0.913 . S
C907 H883 0.950 . S
C907 C906 1.524 1_455 S
C907 C908 1.415 . S
C908 H884 0.950 . S
C908 C903 1.363 1_455 S
C908 C907 1.415 . S
C909 H885 0.951 . S
C909 C910 1.366 . S
C909 C911 1.388 . S
C910 C909 1.366 . S
C910 C914 1.385 . S
C911 H886 0.951 . S
C911 C909 1.388 . S
C911 C912 1.366 . S
C912 C911 1.366 . S
C912 C913 1.414 . S
C912 C915 1.499 . S
C913 H887 0.950 . S
C913 C912 1.414 . S
C913 C914 1.374 . S
C914 H888 0.950 . S
C914 C910 1.385 . S
C914 C913 1.374 . S
C915 C912 1.499 . S
C915 C916 1.373 . S
C915 C917 1.389 . S
C916 H889 0.950 . S
C916 C902 1.377 1_455 S
C916 C915 1.373 . S
C917 C901 1.377 1_455 S
C917 C915 1.389 . S
C917 C918 1.524 . S
C918 C917 1.524 . S
C918 C919 1.397 . S
C918 C923 1.363 1_455 S
C919 H890 0.950 . S
C919 C918 1.397 . S
C919 C920 1.334 . S
C920 H891 0.950 . S
C920 C919 1.334 . S
C920 C921 1.287 . S
C921 C920 1.287 . S
C921 C922 1.524 1_455 S
C921 H924 0.999 . S
C922 H892 0.950 . S
C922 C921 1.524 1_655 S
C922 C923 1.415 . S
C923 H893 0.950 . S
C923 C918 1.363 1_655 S
C923 C922 1.415 . S
H924 C921 0.999 . S
H925 C906 0.913 . S
H926 C944 0.951 . S
H927 C946 0.951 . S
H928 C948 0.950 . S
H929 C949 0.950 . S
H930 C951 0.950 . S
H931 C954 0.950 . S
H932 C955 0.950 . S
H933 C957 0.950 . S
H934 C958 0.950 . S
H935 C959 0.951 . S
H936 C961 0.951 . S
H937 C963 0.950 . S
H938 C964 0.950 . S
H939 C966 0.950 . S
H940 C969 0.950 . S
H941 C970 0.950 . S
H942 C972 0.950 . S
H943 C973 0.950 . S
C944 H926 0.951 . S
C944 C945 1.366 . S
C944 C946 1.388 . S
C945 C944 1.366 . S
C945 C949 1.385 . S
C946 H927 0.951 . S
C946 C944 1.388 . S
C946 C947 1.366 . S
C947 C946 1.366 . S
C947 C948 1.414 . S
C947 C950 1.499 . S
C948 H928 0.950 . S
C948 C947 1.414 . S
C948 C949 1.374 . S
C949 H929 0.950 . S
C949 C945 1.385 . S
C949 C948 1.374 . S
C950 C947 1.499 . S
C950 C951 1.373 . S
C950 C952 1.389 . S
C951 H930 0.950 . S
C951 C950 1.373 . S
C951 C967 1.377 1_554 S
C952 C950 1.389 . S
C952 C953 1.524 . S
C952 C966 1.377 1_554 S
C953 C952 1.524 . S
C953 C954 1.397 . S
C953 C958 1.363 . S
C954 H931 0.950 . S
C954 C953 1.397 . S
C954 C955 1.334 . S
C955 H932 0.950 . S
C955 C954 1.334 . S
C955 C956 1.287 . S
C956 C955 1.287 . S
C956 C957 1.524 . S
C956 H975 0.913 . S
C957 H933 0.950 . S
C957 C956 1.524 . S
C957 C958 1.415 . S
C958 H934 0.950 . S
C958 C953 1.363 . S
C958 C957 1.415 . S
C959 H935 0.951 . S
C959 C960 1.366 . S
C959 C961 1.388 . S
C960 C959 1.366 . S
C960 C964 1.385 . S
C961 H936 0.951 . S
C961 C959 1.388 . S
C961 C962 1.366 . S
C962 C961 1.366 . S
C962 C963 1.414 . S
C962 C965 1.499 . S
C963 H937 0.950 . S
C963 C962 1.414 . S
C963 C964 1.374 . S
C964 H938 0.950 . S
C964 C960 1.385 . S
C964 C963 1.374 . S
C965 C962 1.499 . S
C965 C966 1.373 . S
C965 C967 1.389 . S
C966 H939 0.950 . S
C966 C952 1.377 1_556 S
C966 C965 1.373 . S
C967 C951 1.377 1_556 S
C967 C965 1.389 . S
C967 C968 1.524 . S
C968 C967 1.524 . S
C968 C969 1.397 . S
C968 C973 1.363 . S
C969 H940 0.950 . S
C969 C968 1.397 . S
C969 C970 1.334 . S
C970 H941 0.950 . S
C970 C969 1.334 . S
C970 C971 1.287 . S
C971 C970 1.287 . S
C971 C972 1.524 . S
C971 H974 0.999 . S
C972 H942 0.950 . S
C972 C971 1.524 . S
C972 C973 1.415 . S
C973 H943 0.950 . S
C973 C968 1.363 . S
C973 C972 1.415 . S
H974 C971 0.999 . S
H975 C956 0.913 . S
H976 C994 0.951 . S
H977 C996 0.951 . S
H978 C998 0.950 . S
H979 C999 0.950 . S
H980 C1001 0.950 . S
H981 C1004 0.950 . S
H982 C1005 0.950 . S
H983 C1007 0.950 . S
H984 C1008 0.947 1_556 S
H985 C1009 0.951 . S
H986 C1011 0.951 . S
H987 C1013 0.950 . S
H988 C1014 0.950 . S
H989 C1016 0.950 . S
H990 C1019 0.950 . S
H991 C1020 0.950 . S
H992 C1022 0.950 . S
H993 C1023 0.947 1_554 S
C994 H976 0.951 . S
C994 C995 1.366 . S
C994 C996 1.388 . S
C995 C994 1.366 . S
C995 C999 1.385 . S
C996 H977 0.951 . S
C996 C994 1.388 . S
C996 C997 1.366 . S
C997 C996 1.366 . S
C997 C998 1.414 . S
C997 C1000 1.499 . S
C998 H978 0.950 . S
C998 C997 1.414 . S
C998 C999 1.374 . S
C999 H979 0.950 . S
C999 C995 1.385 . S
C999 C998 1.374 . S
C1000 C997 1.499 . S
C1000 C1001 1.373 . S
C1000 C1002 1.390 1_556 S
C1001 H980 0.950 . S
C1001 C1000 1.373 . S
C1001 C1017 1.375 1_455 S
C1002 C1000 1.390 1_554 S
C1002 C1003 1.524 . S
C1002 C1016 1.375 1_455 S
C1003 C1002 1.524 . S
C1003 C1004 1.397 . S
C1003 C1008 1.365 1_455 S
C1004 H981 0.950 . S
C1004 C1003 1.397 . S
C1004 C1005 1.334 . S
C1005 H982 0.950 . S
C1005 C1004 1.334 . S
C1005 C1006 1.287 . S
C1006 C1005 1.287 . S
C1006 C1007 1.524 1_455 S
C1006 H1025 0.913 . S
C1007 H983 0.950 . S
C1007 C1006 1.524 1_655 S
C1007 C1008 1.416 . S
C1008 H984 0.947 1_554 S
C1008 C1003 1.365 1_655 S
C1008 C1007 1.416 . S
C1009 H985 0.951 . S
C1009 C1010 1.366 . S
C1009 C1011 1.388 . S
C1010 C1009 1.366 . S
C1010 C1014 1.385 . S
C1011 H986 0.951 . S
C1011 C1009 1.388 . S
C1011 C1012 1.366 . S
C1012 C1011 1.366 . S
C1012 C1013 1.414 . S
C1012 C1015 1.499 . S
C1013 H987 0.950 . S
C1013 C1012 1.414 . S
C1013 C1014 1.374 . S
C1014 H988 0.950 . S
C1014 C1010 1.385 . S
C1014 C1013 1.374 . S
C1015 C1012 1.499 . S
C1015 C1016 1.373 . S
C1015 C1017 1.390 1_554 S
C1016 H989 0.950 . S
C1016 C1002 1.375 1_655 S
C1016 C1015 1.373 . S
C1017 C1001 1.375 1_655 S
C1017 C1015 1.390 1_556 S
C1017 C1018 1.524 . S
C1018 C1017 1.524 . S
C1018 C1019 1.397 . S
C1018 C1023 1.365 1_655 S
C1019 H990 0.950 . S
C1019 C1018 1.397 . S
C1019 C1020 1.334 . S
C1020 H991 0.950 . S
C1020 C1019 1.334 . S
C1020 C1021 1.287 . S
C1021 C1020 1.287 . S
C1021 C1022 1.524 1_655 S
C1021 H1024 0.999 . S
C1022 H992 0.950 . S
C1022 C1021 1.524 1_455 S
C1022 C1023 1.416 . S
C1023 H993 0.947 1_556 S
C1023 C1018 1.365 1_455 S
C1023 C1022 1.416 . S
H1024 C1021 0.999 . S
H1025 C1006 0.913 . S
H1026 C1044 0.951 . S
H1027 C1046 0.951 . S
H1028 C1048 0.950 . S
H1029 C1049 0.950 . S
H1030 C1051 0.950 . S
H1031 C1054 0.950 . S
H1032 C1055 0.950 . S
H1033 C1057 0.950 . S
H1034 C1058 0.950 . S
H1035 C1059 0.951 . S
H1036 C1061 0.951 . S
H1037 C1063 0.950 . S
H1038 C1064 0.950 . S
H1039 C1066 0.950 . S
H1040 C1069 0.950 . S
H1041 C1070 0.950 . S
H1042 C1072 0.950 . S
H1043 C1073 0.950 . S
C1044 H1026 0.951 . S
C1044 C1045 1.366 . S
C1044 C1046 1.388 . S
C1045 C1044 1.366 . S
C1045 C1049 1.385 . S
C1046 H1027 0.951 . S
C1046 C1044 1.388 . S
C1046 C1047 1.366 . S
C1047 C1046 1.366 . S
C1047 C1048 1.414 . S
C1047 C1050 1.499 . S
C1048 H1028 0.950 . S
C1048 C1047 1.414 . S
C1048 C1049 1.374 . S
C1049 H1029 0.950 . S
C1049 C1045 1.385 . S
C1049 C1048 1.374 . S
C1050 C1047 1.499 . S
C1050 C1051 1.373 . S
C1050 C1052 1.389 . S
C1051 H1030 0.950 . S
C1051 C1050 1.373 . S
C1051 C1067 1.377 . S
C1052 C1050 1.389 . S
C1052 C1053 1.524 . S
C1052 C1066 1.377 . S
C1053 C1052 1.524 . S
C1053 C1054 1.397 . S
C1053 C1058 1.363 . S
C1054 H1031 0.950 . S
C1054 C1053 1.397 . S
C1054 C1055 1.334 . S
C1055 H1032 0.950 . S
C1055 C1054 1.334 . S
C1055 C1056 1.287 . S
C1056 C1055 1.287 . S
C1056 C1057 1.524 . S
C1056 H1075 0.913 . S
C1057 H1033 0.950 . S
C1057 C1056 1.524 . S
C1057 C1058 1.415 . S
C1058 H1034 0.950 . S
C1058 C1053 1.363 . S
C1058 C1057 1.415 . S
C1059 H1035 0.951 . S
C1059 C1060 1.366 . S
C1059 C1061 1.388 . S
C1060 C1059 1.366 . S
C1060 C1064 1.385 . S
C1061 H1036 0.951 . S
C1061 C1059 1.388 . S
C1061 C1062 1.366 . S
C1062 C1061 1.366 . S
C1062 C1063 1.414 . S
C1062 C1065 1.499 . S
C1063 H1037 0.950 . S
C1063 C1062 1.414 . S
C1063 C1064 1.374 . S
C1064 H1038 0.950 . S
C1064 C1060 1.385 . S
C1064 C1063 1.374 . S
C1065 C1062 1.499 . S
C1065 C1066 1.373 . S
C1065 C1067 1.389 . S
C1066 H1039 0.950 . S
C1066 C1052 1.377 . S
C1066 C1065 1.373 . S
C1067 C1051 1.377 . S
C1067 C1065 1.389 . S
C1067 C1068 1.524 . S
C1068 C1067 1.524 . S
C1068 C1069 1.397 . S
C1068 C1073 1.363 . S
C1069 H1040 0.950 . S
C1069 C1068 1.397 . S
C1069 C1070 1.334 . S
C1070 H1041 0.950 . S
C1070 C1069 1.334 . S
C1070 C1071 1.287 . S
C1071 C1070 1.287 . S
C1071 C1072 1.524 . S
C1071 H1074 0.999 . S
C1072 H1042 0.950 . S
C1072 C1071 1.524 . S
C1072 C1073 1.415 . S
C1073 H1043 0.950 . S
C1073 C1068 1.363 . S
C1073 C1072 1.415 . S
H1074 C1071 0.999 . S
H1075 C1056 0.913 . S
H1076 C1094 0.951 . S
H1077 C1096 0.951 . S
H1078 C1098 0.950 . S
H1079 C1099 0.950 . S
H1080 C1101 0.949 . S
H1081 C1104 0.950 . S
H1082 C1105 0.950 . S
H1083 C1107 0.950 . S
H1084 C1108 0.950 . S
H1085 C1109 0.951 . S
H1086 C1111 0.951 . S
H1087 C1113 0.950 . S
H1088 C1114 0.950 . S
H1089 C1116 0.949 . S
H1090 C1119 0.950 . S
H1091 C1120 0.950 . S
H1092 C1122 0.950 . S
H1093 C1123 0.950 . S
C1094 H1076 0.951 . S
C1094 C1095 1.366 . S
C1094 C1096 1.388 . S
C1095 C1094 1.366 . S
C1095 C1099 1.385 . S
C1096 H1077 0.951 . S
C1096 C1094 1.388 . S
C1096 C1097 1.366 . S
C1097 C1096 1.366 . S
C1097 C1098 1.414 . S
C1097 C1100 1.499 . S
C1098 H1078 0.950 . S
C1098 C1097 1.414 . S
C1098 C1099 1.374 . S
C1099 H1079 0.950 . S
C1099 C1095 1.385 . S
C1099 C1098 1.374 . S
C1100 C1097 1.499 . S
C1100 C1101 1.401 . S
C1100 C1102 1.389 . S
C1101 H1080 0.949 . S
C1101 C1100 1.401 . S
C1101 C1117 1.347 1_556 S
C1102 C1100 1.389 . S
C1102 C1103 1.524 . S
C1102 C1116 1.347 1_556 S
C1103 C1102 1.524 . S
C1103 C1104 1.397 . S
C1103 C1108 1.363 . S
C1104 H1081 0.950 . S
C1104 C1103 1.397 . S
C1104 C1105 1.334 . S
C1105 H1082 0.950 . S
C1105 C1104 1.334 . S
C1105 C1106 1.287 . S
C1106 C1105 1.287 . S
C1106 C1107 1.524 . S
C1106 H1125 0.913 . S
C1107 H1083 0.950 . S
C1107 C1106 1.524 . S
C1107 C1108 1.415 . S
C1108 H1084 0.950 . S
C1108 C1103 1.363 . S
C1108 C1107 1.415 . S
C1109 H1085 0.951 . S
C1109 C1110 1.366 . S
C1109 C1111 1.388 . S
C1110 C1109 1.366 . S
C1110 C1114 1.385 . S
C1111 H1086 0.951 . S
C1111 C1109 1.388 . S
C1111 C1112 1.366 . S
C1112 C1111 1.366 . S
C1112 C1113 1.414 . S
C1112 C1115 1.499 . S
C1113 H1087 0.950 . S
C1113 C1112 1.414 . S
C1113 C1114 1.374 . S
C1114 H1088 0.950 . S
C1114 C1110 1.385 . S
C1114 C1113 1.374 . S
C1115 C1112 1.499 . S
C1115 C1116 1.401 . S
C1115 C1117 1.389 . S
C1116 H1089 0.949 . S
C1116 C1102 1.347 1_554 S
C1116 C1115 1.401 . S
C1117 C1101 1.347 1_554 S
C1117 C1115 1.389 . S
C1117 C1118 1.524 . S
C1118 C1117 1.524 . S
C1118 C1119 1.397 . S
C1118 C1123 1.363 . S
C1119 H1090 0.950 . S
C1119 C1118 1.397 . S
C1119 C1120 1.334 . S
C1120 H1091 0.950 . S
C1120 C1119 1.334 . S
C1120 C1121 1.287 . S
C1121 C1120 1.287 . S
C1121 C1122 1.524 . S
C1121 H1124 0.999 . S
C1122 H1092 0.950 . S
C1122 C1121 1.524 . S
C1122 C1123 1.415 . S
C1123 H1093 0.950 . S
C1123 C1118 1.363 . S
C1123 C1122 1.415 . S
H1124 C1121 0.999 . S
H1125 C1106 0.913 . S
H1126 C1144 0.951 . S
H1127 C1146 0.951 . S
H1128 C1148 0.950 . S
H1129 C1149 0.950 . S
H1130 C1151 0.950 . S
H1131 C1154 0.950 . S
H1132 C1155 0.950 . S
H1133 C1157 0.950 . S
H1134 C1158 0.950 . S
H1135 C1159 0.951 . S
H1136 C1161 0.951 . S
H1137 C1163 0.950 . S
H1138 C1164 0.950 . S
H1139 C1166 0.950 . S
H1140 C1169 0.950 . S
H1141 C1170 0.950 . S
H1142 C1172 0.950 . S
H1143 C1173 0.950 . S
C1144 H1126 0.951 . S
C1144 C1145 1.366 . S
C1144 C1146 1.388 . S
C1145 C1144 1.366 . S
C1145 C1149 1.385 . S
C1146 H1127 0.951 . S
C1146 C1144 1.388 . S
C1146 C1147 1.366 . S
C1147 C1146 1.366 . S
C1147 C1148 1.414 . S
C1147 C1150 1.499 . S
C1148 H1128 0.950 . S
C1148 C1147 1.414 . S
C1148 C1149 1.374 . S
C1149 H1129 0.950 . S
C1149 C1145 1.385 . S
C1149 C1148 1.374 . S
C1150 C1147 1.499 . S
C1150 C1151 1.373 . S
C1150 C1152 1.389 . S
C1151 H1130 0.950 . S
C1151 C1150 1.373 . S
C1151 C1167 1.377 . S
C1152 C1150 1.389 . S
C1152 C1153 1.524 . S
C1152 C1166 1.377 . S
C1153 C1152 1.524 . S
C1153 C1154 1.397 . S
C1153 C1158 1.363 . S
C1154 H1131 0.950 . S
C1154 C1153 1.397 . S
C1154 C1155 1.334 . S
C1155 H1132 0.950 . S
C1155 C1154 1.334 . S
C1155 C1156 1.287 . S
C1156 C1155 1.287 . S
C1156 C1157 1.524 . S
C1156 H1175 0.913 . S
C1157 H1133 0.950 . S
C1157 C1156 1.524 . S
C1157 C1158 1.415 . S
C1158 H1134 0.950 . S
C1158 C1153 1.363 . S
C1158 C1157 1.415 . S
C1159 H1135 0.951 . S
C1159 C1160 1.366 . S
C1159 C1161 1.388 . S
C1160 C1159 1.366 . S
C1160 C1164 1.385 . S
C1161 H1136 0.951 . S
C1161 C1159 1.388 . S
C1161 C1162 1.366 . S
C1162 C1161 1.366 . S
C1162 C1163 1.414 . S
C1162 C1165 1.499 . S
C1163 H1137 0.950 . S
C1163 C1162 1.414 . S
C1163 C1164 1.374 . S
C1164 H1138 0.950 . S
C1164 C1160 1.385 . S
C1164 C1163 1.374 . S
C1165 C1162 1.499 . S
C1165 C1166 1.373 . S
C1165 C1167 1.389 . S
C1166 H1139 0.950 . S
C1166 C1152 1.377 . S
C1166 C1165 1.373 . S
C1167 C1151 1.377 . S
C1167 C1165 1.389 . S
C1167 C1168 1.524 . S
C1168 C1167 1.524 . S
C1168 C1169 1.397 . S
C1168 C1173 1.363 . S
C1169 H1140 0.950 . S
C1169 C1168 1.397 . S
C1169 C1170 1.334 . S
C1170 H1141 0.950 . S
C1170 C1169 1.334 . S
C1170 C1171 1.287 . S
C1171 C1170 1.287 . S
C1171 C1172 1.524 . S
C1171 H1174 0.999 . S
C1172 H1142 0.950 . S
C1172 C1171 1.524 . S
C1172 C1173 1.415 . S
C1173 H1143 0.950 . S
C1173 C1168 1.363 . S
C1173 C1172 1.415 . S
H1174 C1171 0.999 . S
H1175 C1156 0.913 . S
H1176 C1194 0.951 . S
H1177 C1196 0.951 . S
H1178 C1198 0.950 . S
H1179 C1199 0.950 . S
H1180 C1201 0.950 . S
H1181 C1204 0.950 . S
H1182 C1205 0.950 . S
H1183 C1207 0.946 1_556 S
H1184 C1208 0.950 . S
H1185 C1209 0.951 . S
H1186 C1211 0.951 . S
H1187 C1213 0.950 . S
H1188 C1214 0.950 . S
H1189 C1216 0.950 . S
H1190 C1219 0.950 . S
H1191 C1220 0.950 . S
H1192 C1222 0.946 1_554 S
H1193 C1223 0.950 . S
C1194 H1176 0.951 . S
C1194 C1195 1.366 . S
C1194 C1196 1.388 . S
C1195 C1194 1.366 . S
C1195 C1199 1.385 . S
C1196 H1177 0.951 . S
C1196 C1194 1.388 . S
C1196 C1197 1.366 . S
C1197 C1196 1.366 . S
C1197 C1198 1.414 . S
C1197 C1200 1.499 . S
C1198 H1178 0.950 . S
C1198 C1197 1.414 . S
C1198 C1199 1.374 . S
C1199 H1179 0.950 . S
C1199 C1195 1.385 . S
C1199 C1198 1.374 . S
C1200 C1197 1.499 . S
C1200 C1201 1.373 1_545 S
C1200 C1202 1.404 . S
C1201 H1180 0.950 . S
C1201 C1200 1.373 1_565 S
C1201 C1217 1.360 1_556 S
C1202 C1200 1.404 . S
C1202 C1203 1.527 1_556 S
C1202 C1216 1.360 1_556 S
C1203 C1202 1.527 1_554 S
C1203 C1204 1.411 . S
C1203 C1208 1.354 1_554 S
C1204 H1181 0.950 . S
C1204 C1203 1.411 . S
C1204 C1205 1.334 . S
C1205 H1182 0.950 . S
C1205 C1204 1.334 . S
C1205 C1206 1.287 . S
C1206 C1205 1.287 . S
C1206 C1207 1.528 . S
C1206 H1225 0.913 . S
C1207 H1183 0.946 1_554 S
C1207 C1206 1.528 . S
C1207 C1208 1.414 1_554 S
C1208 H1184 0.950 . S
C1208 C1203 1.354 1_556 S
C1208 C1207 1.414 1_556 S
C1209 H1185 0.951 . S
C1209 C1210 1.366 . S
C1209 C1211 1.388 . S
C1210 C1209 1.366 . S
C1210 C1214 1.385 . S
C1211 H1186 0.951 . S
C1211 C1209 1.388 . S
C1211 C1212 1.366 . S
C1212 C1211 1.366 . S
C1212 C1213 1.414 . S
C1212 C1215 1.499 . S
C1213 H1187 0.950 . S
C1213 C1212 1.414 . S
C1213 C1214 1.374 . S
C1214 H1188 0.950 . S
C1214 C1210 1.385 . S
C1214 C1213 1.374 . S
C1215 C1212 1.499 . S
C1215 C1216 1.373 1_565 S
C1215 C1217 1.404 . S
C1216 H1189 0.950 . S
C1216 C1202 1.360 1_554 S
C1216 C1215 1.373 1_545 S
C1217 C1201 1.360 1_554 S
C1217 C1215 1.404 . S
C1217 C1218 1.527 1_554 S
C1218 C1217 1.527 1_556 S
C1218 C1219 1.411 . S
C1218 C1223 1.355 1_556 S
C1219 H1190 0.950 . S
C1219 C1218 1.411 . S
C1219 C1220 1.334 . S
C1220 H1191 0.950 . S
C1220 C1219 1.334 . S
C1220 C1221 1.287 . S
C1221 C1220 1.287 . S
C1221 C1222 1.528 . S
C1221 H1224 0.999 . S
C1222 H1192 0.946 1_556 S
C1222 C1221 1.528 . S
C1222 C1223 1.414 1_556 S
C1223 H1193 0.950 . S
C1223 C1218 1.355 1_554 S
C1223 C1222 1.414 1_554 S
H1224 C1221 0.999 . S
H1225 C1206 0.913 . S
H1226 C1244 0.951 . S
H1227 C1246 0.951 . S
H1228 C1248 0.950 . S
H1229 C1249 0.950 . S
H1230 C1251 0.950 . S
H1231 C1254 0.950 . S
H1232 C1255 0.950 . S
H1233 C1257 0.950 . S
H1234 C1258 0.950 . S
H1235 C1259 0.951 . S
H1236 C1261 0.951 . S
H1237 C1263 0.950 . S
H1238 C1264 0.950 . S
H1239 C1266 0.950 . S
H1240 C1269 0.950 . S
H1241 C1270 0.950 . S
H1242 C1272 0.950 . S
H1243 C1273 0.950 . S
C1244 H1226 0.951 . S
C1244 C1245 1.366 . S
C1244 C1246 1.388 . S
C1245 C1244 1.366 . S
C1245 C1249 1.385 . S
C1246 H1227 0.951 . S
C1246 C1244 1.388 . S
C1246 C1247 1.366 . S
C1247 C1246 1.366 . S
C1247 C1248 1.414 . S
C1247 C1250 1.499 . S
C1248 H1228 0.950 . S
C1248 C1247 1.414 . S
C1248 C1249 1.374 . S
C1249 H1229 0.950 . S
C1249 C1245 1.385 . S
C1249 C1248 1.374 . S
C1250 C1247 1.499 . S
C1250 C1251 1.373 . S
C1250 C1252 1.389 . S
C1251 H1230 0.950 . S
C1251 C1250 1.373 . S
C1251 C1267 1.377 . S
C1252 C1250 1.389 . S
C1252 C1253 1.524 . S
C1252 C1266 1.377 . S
C1253 C1252 1.524 . S
C1253 C1254 1.397 . S
C1253 C1258 1.363 . S
C1254 H1231 0.950 . S
C1254 C1253 1.397 . S
C1254 C1255 1.334 . S
C1255 H1232 0.950 . S
C1255 C1254 1.334 . S
C1255 C1256 1.287 . S
C1256 C1255 1.287 . S
C1256 C1257 1.524 . S
C1256 H1275 0.913 . S
C1257 H1233 0.950 . S
C1257 C1256 1.524 . S
C1257 C1258 1.415 . S
C1258 H1234 0.950 . S
C1258 C1253 1.363 . S
C1258 C1257 1.415 . S
C1259 H1235 0.951 . S
C1259 C1260 1.366 . S
C1259 C1261 1.388 . S
C1260 C1259 1.366 . S
C1260 C1264 1.385 . S
C1261 H1236 0.951 . S
C1261 C1259 1.388 . S
C1261 C1262 1.366 . S
C1262 C1261 1.366 . S
C1262 C1263 1.414 . S
C1262 C1265 1.499 . S
C1263 H1237 0.950 . S
C1263 C1262 1.414 . S
C1263 C1264 1.374 . S
C1264 H1238 0.950 . S
C1264 C1260 1.385 . S
C1264 C1263 1.374 . S
C1265 C1262 1.499 . S
C1265 C1266 1.373 . S
C1265 C1267 1.389 . S
C1266 H1239 0.950 . S
C1266 C1252 1.377 . S
C1266 C1265 1.373 . S
C1267 C1251 1.377 . S
C1267 C1265 1.389 . S
C1267 C1268 1.524 . S
C1268 C1267 1.524 . S
C1268 C1269 1.397 . S
C1268 C1273 1.363 . S
C1269 H1240 0.950 . S
C1269 C1268 1.397 . S
C1269 C1270 1.334 . S
C1270 H1241 0.950 . S
C1270 C1269 1.334 . S
C1270 C1271 1.287 . S
C1271 C1270 1.287 . S
C1271 C1272 1.524 . S
C1271 H1274 0.999 . S
C1272 H1242 0.950 . S
C1272 C1271 1.524 . S
C1272 C1273 1.415 . S
C1273 H1243 0.950 . S
C1273 C1268 1.363 . S
C1273 C1272 1.415 . S
H1274 C1271 0.999 . S
H1275 C1256 0.913 . S
H1276 C1294 0.951 . S
H1277 C1296 0.951 . S
H1278 C1298 0.950 . S
H1279 C1299 0.950 . S
H1280 C1301 0.950 . S
H1281 C1304 0.950 . S
H1282 C1305 0.950 . S
H1283 C1307 0.950 . S
H1284 C1308 0.950 . S
H1285 C1309 0.951 . S
H1286 C1311 0.951 . S
H1287 C1313 0.950 . S
H1288 C1314 0.950 . S
H1289 C1316 0.950 . S
H1290 C1319 0.950 . S
H1291 C1320 0.950 . S
H1292 C1322 0.950 . S
H1293 C1323 0.950 . S
C1294 H1276 0.951 . S
C1294 C1295 1.366 . S
C1294 C1296 1.388 . S
C1295 C1294 1.366 . S
C1295 C1299 1.385 . S
C1296 H1277 0.951 . S
C1296 C1294 1.388 . S
C1296 C1297 1.366 . S
C1297 C1296 1.366 . S
C1297 C1298 1.414 . S
C1297 C1300 1.499 . S
C1298 H1278 0.950 . S
C1298 C1297 1.414 . S
C1298 C1299 1.374 . S
C1299 H1279 0.950 . S
C1299 C1295 1.385 . S
C1299 C1298 1.374 . S
C1300 C1297 1.499 . S
C1300 C1301 1.373 . S
C1300 C1302 1.389 . S
C1301 H1280 0.950 . S
C1301 C1300 1.373 . S
C1301 C1317 1.377 . S
C1302 C1300 1.389 . S
C1302 C1303 1.524 . S
C1302 C1316 1.377 . S
C1303 C1302 1.524 . S
C1303 C1304 1.397 . S
C1303 C1308 1.363 . S
C1304 H1281 0.950 . S
C1304 C1303 1.397 . S
C1304 C1305 1.334 . S
C1305 H1282 0.950 . S
C1305 C1304 1.334 . S
C1305 C1306 1.287 . S
C1306 C1305 1.287 . S
C1306 C1307 1.524 . S
C1306 H1325 0.913 . S
C1307 H1283 0.950 . S
C1307 C1306 1.524 . S
C1307 C1308 1.415 . S
C1308 H1284 0.950 . S
C1308 C1303 1.363 . S
C1308 C1307 1.415 . S
C1309 H1285 0.951 . S
C1309 C1310 1.366 . S
C1309 C1311 1.388 . S
C1310 C1309 1.366 . S
C1310 C1314 1.385 . S
C1311 H1286 0.951 . S
C1311 C1309 1.388 . S
C1311 C1312 1.366 . S
C1312 C1311 1.366 . S
C1312 C1313 1.414 . S
C1312 C1315 1.499 . S
C1313 H1287 0.950 . S
C1313 C1312 1.414 . S
C1313 C1314 1.374 . S
C1314 H1288 0.950 . S
C1314 C1310 1.385 . S
C1314 C1313 1.374 . S
C1315 C1312 1.499 . S
C1315 C1316 1.373 . S
C1315 C1317 1.389 . S
C1316 H1289 0.950 . S
C1316 C1302 1.377 . S
C1316 C1315 1.373 . S
C1317 C1301 1.377 . S
C1317 C1315 1.389 . S
C1317 C1318 1.524 . S
C1318 C1317 1.524 . S
C1318 C1319 1.397 . S
C1318 C1323 1.363 . S
C1319 H1290 0.950 . S
C1319 C1318 1.397 . S
C1319 C1320 1.334 . S
C1320 H1291 0.950 . S
C1320 C1319 1.334 . S
C1320 C1321 1.287 . S
C1321 C1320 1.287 . S
C1321 C1322 1.524 . S
C1321 H1324 0.999 . S
C1322 H1292 0.950 . S
C1322 C1321 1.524 . S
C1322 C1323 1.415 . S
C1323 H1293 0.950 . S
C1323 C1318 1.363 . S
C1323 C1322 1.415 . S
H1324 C1321 0.999 . S
H1325 C1306 0.913 . S
H1326 C1344 0.951 . S
H1327 C1346 0.951 . S
H1328 C1348 0.950 . S
H1329 C1349 0.950 . S
H1330 C1351 0.950 . S
H1331 C1354 0.950 . S
H1332 C1355 0.950 . S
H1333 C1357 0.950 . S
H1334 C1358 0.950 . S
H1335 C1359 0.951 . S
H1336 C1361 0.951 . S
H1337 C1363 0.950 . S
H1338 C1364 0.950 . S
H1339 C1366 0.950 . S
H1340 C1369 0.950 . S
H1341 C1370 0.950 . S
H1342 C1372 0.950 . S
H1343 C1373 0.950 . S
C1344 H1326 0.951 . S
C1344 C1345 1.366 . S
C1344 C1346 1.388 . S
C1345 C1344 1.366 . S
C1345 C1349 1.385 . S
C1346 H1327 0.951 . S
C1346 C1344 1.388 . S
C1346 C1347 1.366 . S
C1347 C1346 1.366 . S
C1347 C1348 1.414 . S
C1347 C1350 1.499 . S
C1348 H1328 0.950 . S
C1348 C1347 1.414 . S
C1348 C1349 1.374 . S
C1349 H1329 0.950 . S
C1349 C1345 1.385 . S
C1349 C1348 1.374 . S
C1350 C1347 1.499 . S
C1350 C1351 1.373 . S
C1350 C1352 1.389 . S
C1351 H1330 0.950 . S
C1351 C1350 1.373 . S
C1351 C1367 1.377 . S
C1352 C1350 1.389 . S
C1352 C1353 1.524 . S
C1352 C1366 1.377 . S
C1353 C1352 1.524 . S
C1353 C1354 1.397 . S
C1353 C1358 1.363 . S
C1354 H1331 0.950 . S
C1354 C1353 1.397 . S
C1354 C1355 1.334 . S
C1355 H1332 0.950 . S
C1355 C1354 1.334 . S
C1355 C1356 1.287 . S
C1356 C1355 1.287 . S
C1356 C1357 1.524 . S
C1356 H1375 0.913 . S
C1357 H1333 0.950 . S
C1357 C1356 1.524 . S
C1357 C1358 1.415 . S
C1358 H1334 0.950 . S
C1358 C1353 1.363 . S
C1358 C1357 1.415 . S
C1359 H1335 0.951 . S
C1359 C1360 1.366 . S
C1359 C1361 1.388 . S
C1360 C1359 1.366 . S
C1360 C1364 1.385 . S
C1361 H1336 0.951 . S
C1361 C1359 1.388 . S
C1361 C1362 1.366 . S
C1362 C1361 1.366 . S
C1362 C1363 1.414 . S
C1362 C1365 1.499 . S
C1363 H1337 0.950 . S
C1363 C1362 1.414 . S
C1363 C1364 1.374 . S
C1364 H1338 0.950 . S
C1364 C1360 1.385 . S
C1364 C1363 1.374 . S
C1365 C1362 1.499 . S
C1365 C1366 1.373 . S
C1365 C1367 1.389 . S
C1366 H1339 0.950 . S
C1366 C1352 1.377 . S
C1366 C1365 1.373 . S
C1367 C1351 1.377 . S
C1367 C1365 1.389 . S
C1367 C1368 1.524 . S
C1368 C1367 1.524 . S
C1368 C1369 1.397 . S
C1368 C1373 1.363 . S
C1369 H1340 0.950 . S
C1369 C1368 1.397 . S
C1369 C1370 1.334 . S
C1370 H1341 0.950 . S
C1370 C1369 1.334 . S
C1370 C1371 1.287 . S
C1371 C1370 1.287 . S
C1371 C1372 1.524 . S
C1371 H1374 0.999 . S
C1372 H1342 0.950 . S
C1372 C1371 1.524 . S
C1372 C1373 1.415 . S
C1373 H1343 0.950 . S
C1373 C1368 1.363 . S
C1373 C1372 1.415 . S
H1374 C1371 0.999 . S
H1375 C1356 0.913 . S
H1376 C1394 0.951 . S
H1377 C1396 0.951 . S
H1378 C1398 0.950 . S
H1379 C1399 0.950 . S
H1380 C1401 0.950 . S
H1381 C1404 0.950 . S
H1382 C1405 0.950 . S
H1383 C1407 0.950 . S
H1384 C1408 0.950 . S
H1385 C1409 0.951 . S
H1386 C1411 0.951 . S
H1387 C1413 0.950 . S
H1388 C1414 0.950 . S
H1389 C1416 0.950 . S
H1390 C1419 0.950 . S
H1391 C1420 0.950 . S
H1392 C1422 0.950 . S
H1393 C1423 0.950 . S
C1394 H1376 0.951 . S
C1394 C1395 1.366 . S
C1394 C1396 1.388 . S
C1395 C1394 1.366 . S
C1395 C1399 1.385 . S
C1396 H1377 0.951 . S
C1396 C1394 1.388 . S
C1396 C1397 1.366 . S
C1397 C1396 1.366 . S
C1397 C1398 1.414 . S
C1397 C1400 1.499 . S
C1398 H1378 0.950 . S
C1398 C1397 1.414 . S
C1398 C1399 1.374 . S
C1399 H1379 0.950 . S
C1399 C1395 1.385 . S
C1399 C1398 1.374 . S
C1400 C1397 1.499 . S
C1400 C1401 1.373 . S
C1400 C1402 1.389 . S
C1401 H1380 0.950 . S
C1401 C1400 1.373 . S
C1401 C1417 1.377 . S
C1402 C1400 1.389 . S
C1402 C1403 1.524 . S
C1402 C1416 1.377 . S
C1403 C1402 1.524 . S
C1403 C1404 1.397 . S
C1403 C1408 1.363 . S
C1404 H1381 0.950 . S
C1404 C1403 1.397 . S
C1404 C1405 1.334 . S
C1405 H1382 0.950 . S
C1405 C1404 1.334 . S
C1405 C1406 1.287 . S
C1406 C1405 1.287 . S
C1406 C1407 1.524 . S
C1406 H1425 0.913 . S
C1407 H1383 0.950 . S
C1407 C1406 1.524 . S
C1407 C1408 1.415 . S
C1408 H1384 0.950 . S
C1408 C1403 1.363 . S
C1408 C1407 1.415 . S
C1409 H1385 0.951 . S
C1409 C1410 1.366 . S
C1409 C1411 1.388 1_545 S
C1410 C1409 1.366 . S
C1410 C1414 1.385 1_545 S
C1411 H1386 0.951 . S
C1411 C1409 1.388 1_565 S
C1411 C1412 1.366 . S
C1412 C1411 1.366 . S
C1412 C1413 1.414 . S
C1412 C1415 1.499 . S
C1413 H1387 0.950 . S
C1413 C1412 1.414 . S
C1413 C1414 1.374 . S
C1414 H1388 0.950 . S
C1414 C1410 1.385 1_565 S
C1414 C1413 1.374 . S
C1415 C1412 1.499 . S
C1415 C1416 1.373 . S
C1415 C1417 1.389 . S
C1416 H1389 0.950 . S
C1416 C1402 1.377 . S
C1416 C1415 1.373 . S
C1417 C1401 1.377 . S
C1417 C1415 1.389 . S
C1417 C1418 1.524 . S
C1418 C1417 1.524 . S
C1418 C1419 1.397 . S
C1418 C1423 1.363 . S
C1419 H1390 0.950 . S
C1419 C1418 1.397 . S
C1419 C1420 1.334 . S
C1420 H1391 0.950 . S
C1420 C1419 1.334 . S
C1420 C1421 1.287 . S
C1421 C1420 1.287 . S
C1421 C1422 1.524 . S
C1421 H1424 0.999 . S
C1422 H1392 0.950 . S
C1422 C1421 1.524 . S
C1422 C1423 1.415 . S
C1423 H1393 0.950 . S
C1423 C1418 1.363 . S
C1423 C1422 1.415 . S
H1424 C1421 0.999 . S
H1425 C1406 0.913 . S
H1426 C1444 0.951 . S
H1427 C1446 0.951 . S
H1428 C1448 0.950 . S
H1429 C1449 0.950 . S
H1430 C1451 0.950 . S
H1431 C1454 0.950 . S
H1432 C1455 0.950 . S
H1433 C1457 0.950 . S
H1434 C1458 0.950 . S
H1435 C1459 0.951 . S
H1436 C1461 0.951 . S
H1437 C1463 0.950 . S
H1438 C1464 0.950 . S
H1439 C1466 0.950 . S
H1440 C1469 0.950 . S
H1441 C1470 0.950 . S
H1442 C1472 0.950 . S
H1443 C1473 0.950 . S
C1444 H1426 0.951 . S
C1444 C1445 1.366 . S
C1444 C1446 1.388 . S
C1445 C1444 1.366 . S
C1445 C1449 1.385 . S
C1446 H1427 0.951 . S
C1446 C1444 1.388 . S
C1446 C1447 1.366 . S
C1447 C1446 1.366 . S
C1447 C1448 1.414 . S
C1447 C1450 1.499 . S
C1448 H1428 0.950 . S
C1448 C1447 1.414 . S
C1448 C1449 1.374 . S
C1449 H1429 0.950 . S
C1449 C1445 1.385 . S
C1449 C1448 1.374 . S
C1450 C1447 1.499 . S
C1450 C1451 1.373 . S
C1450 C1452 1.389 . S
C1451 H1430 0.950 . S
C1451 C1450 1.373 . S
C1451 C1467 1.377 . S
C1452 C1450 1.389 . S
C1452 C1453 1.524 . S
C1452 C1466 1.377 . S
C1453 C1452 1.524 . S
C1453 C1454 1.397 . S
C1453 C1458 1.363 . S
C1454 H1431 0.950 . S
C1454 C1453 1.397 . S
C1454 C1455 1.334 . S
C1455 H1432 0.950 . S
C1455 C1454 1.334 . S
C1455 C1456 1.287 . S
C1456 C1455 1.287 . S
C1456 C1457 1.524 . S
C1456 H1475 0.913 . S
C1457 H1433 0.950 . S
C1457 C1456 1.524 . S
C1457 C1458 1.415 . S
C1458 H1434 0.950 . S
C1458 C1453 1.363 . S
C1458 C1457 1.415 . S
C1459 H1435 0.951 . S
C1459 C1460 1.366 . S
C1459 C1461 1.388 . S
C1460 C1459 1.366 . S
C1460 C1464 1.385 . S
C1461 H1436 0.951 . S
C1461 C1459 1.388 . S
C1461 C1462 1.366 . S
C1462 C1461 1.366 . S
C1462 C1463 1.414 . S
C1462 C1465 1.499 . S
C1463 H1437 0.950 . S
C1463 C1462 1.414 . S
C1463 C1464 1.374 . S
C1464 H1438 0.950 . S
C1464 C1460 1.385 . S
C1464 C1463 1.374 . S
C1465 C1462 1.499 . S
C1465 C1466 1.373 . S
C1465 C1467 1.389 . S
C1466 H1439 0.950 . S
C1466 C1452 1.377 . S
C1466 C1465 1.373 . S
C1467 C1451 1.377 . S
C1467 C1465 1.389 . S
C1467 C1468 1.524 . S
C1468 C1467 1.524 . S
C1468 C1469 1.397 . S
C1468 C1473 1.363 . S
C1469 H1440 0.950 . S
C1469 C1468 1.397 . S
C1469 C1470 1.334 . S
C1470 H1441 0.950 . S
C1470 C1469 1.334 . S
C1470 C1471 1.287 . S
C1471 C1470 1.287 . S
C1471 C1472 1.524 . S
C1471 H1474 0.999 . S
C1472 H1442 0.950 . S
C1472 C1471 1.524 . S
C1472 C1473 1.415 . S
C1473 H1443 0.950 . S
C1473 C1468 1.363 . S
C1473 C1472 1.415 . S
H1474 C1471 0.999 . S
H1475 C1456 0.913 . S
H1476 C1494 0.951 . S
H1477 C1496 0.951 . S
H1478 C1498 0.950 . S
H1479 C1499 0.950 . S
H1480 C1501 0.950 . S
H1481 C1504 0.950 . S
H1482 C1505 0.950 . S
H1483 C1507 0.950 . S
H1484 C1508 0.950 . S
H1485 C1509 0.951 . S
H1486 C1511 0.951 . S
H1487 C1513 0.950 . S
H1488 C1514 0.950 . S
H1489 C1516 0.950 . S
H1490 C1519 0.950 . S
H1491 C1520 0.950 . S
H1492 C1522 0.950 . S
H1493 C1523 0.950 . S
C1494 H1476 0.951 . S
C1494 C1495 1.366 . S
C1494 C1496 1.388 . S
C1495 C1494 1.366 . S
C1495 C1499 1.385 . S
C1496 H1477 0.951 . S
C1496 C1494 1.388 . S
C1496 C1497 1.366 . S
C1497 C1496 1.366 . S
C1497 C1498 1.414 . S
C1497 C1500 1.499 . S
C1498 H1478 0.950 . S
C1498 C1497 1.414 . S
C1498 C1499 1.374 . S
C1499 H1479 0.950 . S
C1499 C1495 1.385 . S
C1499 C1498 1.374 . S
C1500 C1497 1.499 . S
C1500 C1501 1.373 . S
C1500 C1502 1.389 . S
C1501 H1480 0.950 . S
C1501 C1500 1.373 . S
C1501 C1517 1.377 . S
C1502 C1500 1.389 . S
C1502 C1503 1.524 . S
C1502 C1516 1.377 . S
C1503 C1502 1.524 . S
C1503 C1504 1.397 . S
C1503 C1508 1.363 . S
C1504 H1481 0.950 . S
C1504 C1503 1.397 . S
C1504 C1505 1.334 . S
C1505 H1482 0.950 . S
C1505 C1504 1.334 . S
C1505 C1506 1.287 . S
C1506 C1505 1.287 . S
C1506 C1507 1.524 . S
C1506 H1525 0.913 . S
C1507 H1483 0.950 . S
C1507 C1506 1.524 . S
C1507 C1508 1.415 . S
C1508 H1484 0.950 . S
C1508 C1503 1.363 . S
C1508 C1507 1.415 . S
C1509 H1485 0.951 . S
C1509 C1510 1.366 . S
C1509 C1511 1.388 . S
C1510 C1509 1.366 . S
C1510 C1514 1.385 . S
C1511 H1486 0.951 . S
C1511 C1509 1.388 . S
C1511 C1512 1.366 . S
C1512 C1511 1.366 . S
C1512 C1513 1.414 . S
C1512 C1515 1.499 . S
C1513 H1487 0.950 . S
C1513 C1512 1.414 . S
C1513 C1514 1.374 . S
C1514 H1488 0.950 . S
C1514 C1510 1.385 . S
C1514 C1513 1.374 . S
C1515 C1512 1.499 . S
C1515 C1516 1.373 . S
C1515 C1517 1.389 . S
C1516 H1489 0.950 . S
C1516 C1502 1.377 . S
C1516 C1515 1.373 . S
C1517 C1501 1.377 . S
C1517 C1515 1.389 . S
C1517 C1518 1.524 . S
C1518 C1517 1.524 . S
C1518 C1519 1.397 . S
C1518 C1523 1.363 . S
C1519 H1490 0.950 . S
C1519 C1518 1.397 . S
C1519 C1520 1.334 . S
C1520 H1491 0.950 . S
C1520 C1519 1.334 . S
C1520 C1521 1.287 . S
C1521 C1520 1.287 . S
C1521 C1522 1.524 . S
C1521 H1524 0.999 . S
C1522 H1492 0.950 . S
C1522 C1521 1.524 . S
C1522 C1523 1.415 . S
C1523 H1493 0.950 . S
C1523 C1518 1.363 . S
C1523 C1522 1.415 . S
H1524 C1521 0.999 . S
H1525 C1506 0.913 . S
H1526 C1544 0.951 . S
H1527 C1546 0.951 . S
H1528 C1548 0.950 . S
H1529 C1549 0.950 . S
H1530 C1551 0.950 . S
H1531 C1554 0.950 . S
H1532 C1555 0.950 . S
H1533 C1557 0.950 . S
H1534 C1558 0.950 . S
H1535 C1559 0.951 . S
H1536 C1561 0.951 . S
H1537 C1563 0.950 . S
H1538 C1564 0.950 . S
H1539 C1566 0.950 . S
H1540 C1569 0.950 . S
H1541 C1570 0.950 . S
H1542 C1572 0.950 . S
H1543 C1573 0.950 . S
C1544 H1526 0.951 . S
C1544 C1545 1.366 . S
C1544 C1546 1.388 . S
C1545 C1544 1.366 . S
C1545 C1549 1.385 . S
C1546 H1527 0.951 . S
C1546 C1544 1.388 . S
C1546 C1547 1.366 . S
C1547 C1546 1.366 . S
C1547 C1548 1.414 . S
C1547 C1550 1.499 . S
C1548 H1528 0.950 . S
C1548 C1547 1.414 . S
C1548 C1549 1.374 . S
C1549 H1529 0.950 . S
C1549 C1545 1.385 . S
C1549 C1548 1.374 . S
C1550 C1547 1.499 . S
C1550 C1551 1.373 . S
C1550 C1552 1.389 . S
C1551 H1530 0.950 . S
C1551 C1550 1.373 . S
C1551 C1567 1.377 . S
C1552 C1550 1.389 . S
C1552 C1553 1.524 . S
C1552 C1566 1.377 . S
C1553 C1552 1.524 . S
C1553 C1554 1.397 . S
C1553 C1558 1.363 . S
C1554 H1531 0.950 . S
C1554 C1553 1.397 . S
C1554 C1555 1.334 . S
C1555 H1532 0.950 . S
C1555 C1554 1.334 . S
C1555 C1556 1.287 . S
C1556 C1555 1.287 . S
C1556 C1557 1.524 . S
C1556 H1575 0.913 . S
C1557 H1533 0.950 . S
C1557 C1556 1.524 . S
C1557 C1558 1.415 . S
C1558 H1534 0.950 . S
C1558 C1553 1.363 . S
C1558 C1557 1.415 . S
C1559 H1535 0.951 . S
C1559 C1560 1.366 1_565 S
C1559 C1561 1.388 . S
C1560 C1559 1.366 1_545 S
C1560 C1564 1.385 . S
C1561 H1536 0.951 . S
C1561 C1559 1.388 . S
C1561 C1562 1.366 . S
C1562 C1561 1.366 . S
C1562 C1563 1.414 . S
C1562 C1565 1.499 . S
C1563 H1537 0.950 . S
C1563 C1562 1.414 . S
C1563 C1564 1.374 1_565 S
C1564 H1538 0.950 . S
C1564 C1560 1.385 . S
C1564 C1563 1.374 1_545 S
C1565 C1562 1.499 . S
C1565 C1566 1.373 . S
C1565 C1567 1.389 . S
C1566 H1539 0.950 . S
C1566 C1552 1.377 . S
C1566 C1565 1.373 . S
C1567 C1551 1.377 . S
C1567 C1565 1.389 . S
C1567 C1568 1.524 . S
C1568 C1567 1.524 . S
C1568 C1569 1.397 . S
C1568 C1573 1.363 . S
C1569 H1540 0.950 . S
C1569 C1568 1.397 . S
C1569 C1570 1.334 . S
C1570 H1541 0.950 . S
C1570 C1569 1.334 . S
C1570 C1571 1.287 . S
C1571 C1570 1.287 . S
C1571 C1572 1.524 . S
C1571 H1574 0.999 . S
C1572 H1542 0.950 . S
C1572 C1571 1.524 . S
C1572 C1573 1.415 . S
C1573 H1543 0.950 . S
C1573 C1568 1.363 . S
C1573 C1572 1.415 . S
H1574 C1571 0.999 . S
H1575 C1556 0.913 . S
H1576 C1594 0.951 . S
H1577 C1596 0.951 . S
H1578 C1598 0.950 . S
H1579 C1599 0.950 . S
H1580 C1601 0.950 . S
H1581 C1604 0.950 . S
H1582 C1605 0.950 . S
H1583 C1607 0.950 . S
H1584 C1608 0.950 . S
H1585 C1609 0.951 . S
H1586 C1611 0.951 . S
H1587 C1613 0.950 . S
H1588 C1614 0.950 . S
H1589 C1616 0.950 . S
H1590 C1619 0.950 . S
H1591 C1620 0.950 . S
H1592 C1622 0.950 . S
H1593 C1623 0.950 . S
C1594 H1576 0.951 . S
C1594 C1595 1.366 . S
C1594 C1596 1.388 . S
C1595 C1594 1.366 . S
C1595 C1599 1.385 . S
C1596 H1577 0.951 . S
C1596 C1594 1.388 . S
C1596 C1597 1.366 . S
C1597 C1596 1.366 . S
C1597 C1598 1.414 . S
C1597 C1600 1.499 . S
C1598 H1578 0.950 . S
C1598 C1597 1.414 . S
C1598 C1599 1.374 . S
C1599 H1579 0.950 . S
C1599 C1595 1.385 . S
C1599 C1598 1.374 . S
C1600 C1597 1.499 . S
C1600 C1601 1.373 . S
C1600 C1602 1.389 . S
C1601 H1580 0.950 . S
C1601 C1600 1.373 . S
C1601 C1617 1.377 . S
C1602 C1600 1.389 . S
C1602 C1603 1.524 . S
C1602 C1616 1.377 . S
C1603 C1602 1.524 . S
C1603 C1604 1.397 . S
C1603 C1608 1.363 . S
C1604 H1581 0.950 . S
C1604 C1603 1.397 . S
C1604 C1605 1.334 . S
C1605 H1582 0.950 . S
C1605 C1604 1.334 . S
C1605 C1606 1.287 . S
C1606 C1605 1.287 . S
C1606 C1607 1.524 . S
C1606 H1625 0.913 . S
C1607 H1583 0.950 . S
C1607 C1606 1.524 . S
C1607 C1608 1.415 . S
C1608 H1584 0.950 . S
C1608 C1603 1.363 . S
C1608 C1607 1.415 . S
C1609 H1585 0.951 . S
C1609 C1610 1.366 . S
C1609 C1611 1.388 1_565 S
C1610 C1609 1.366 . S
C1610 C1614 1.385 . S
C1611 H1586 0.951 . S
C1611 C1609 1.388 1_545 S
C1611 C1612 1.366 . S
C1612 C1611 1.366 . S
C1612 C1613 1.414 . S
C1612 C1615 1.499 . S
C1613 H1587 0.950 . S
C1613 C1612 1.414 . S
C1613 C1614 1.374 1_545 S
C1614 H1588 0.950 . S
C1614 C1610 1.385 . S
C1614 C1613 1.374 1_565 S
C1615 C1612 1.499 . S
C1615 C1616 1.373 . S
C1615 C1617 1.389 . S
C1616 H1589 0.950 . S
C1616 C1602 1.377 . S
C1616 C1615 1.373 . S
C1617 C1601 1.377 . S
C1617 C1615 1.389 . S
C1617 C1618 1.524 . S
C1618 C1617 1.524 . S
C1618 C1619 1.397 . S
C1618 C1623 1.363 . S
C1619 H1590 0.950 . S
C1619 C1618 1.397 . S
C1619 C1620 1.334 . S
C1620 H1591 0.950 . S
C1620 C1619 1.334 . S
C1620 C1621 1.287 . S
C1621 C1620 1.287 . S
C1621 C1622 1.524 . S
C1621 H1624 0.999 . S
C1622 H1592 0.950 . S
C1622 C1621 1.524 . S
C1622 C1623 1.415 . S
C1623 H1593 0.950 . S
C1623 C1618 1.363 . S
C1623 C1622 1.415 . S
H1624 C1621 0.999 . S
H1625 C1606 0.913 . S
H1626 C1644 0.951 . S
H1627 C1646 0.951 . S
H1628 C1648 0.950 . S
H1629 C1649 0.950 . S
H1630 C1651 0.950 . S
H1631 C1654 0.950 . S
H1632 C1655 0.950 . S
H1633 C1657 0.950 . S
H1634 C1658 0.950 . S
H1635 C1659 0.951 . S
H1636 C1661 0.951 . S
H1637 C1663 0.950 . S
H1638 C1664 0.950 . S
H1639 C1666 0.950 . S
H1640 C1669 0.950 . S
H1641 C1670 0.950 . S
H1642 C1672 0.950 . S
H1643 C1673 0.950 . S
C1644 H1626 0.951 . S
C1644 C1645 1.366 . S
C1644 C1646 1.388 . S
C1645 C1644 1.366 . S
C1645 C1649 1.385 . S
C1646 H1627 0.951 . S
C1646 C1644 1.388 . S
C1646 C1647 1.366 . S
C1647 C1646 1.366 . S
C1647 C1648 1.414 . S
C1647 C1650 1.499 . S
C1648 H1628 0.950 . S
C1648 C1647 1.414 . S
C1648 C1649 1.374 . S
C1649 H1629 0.950 . S
C1649 C1645 1.385 . S
C1649 C1648 1.374 . S
C1650 C1647 1.499 . S
C1650 C1651 1.373 . S
C1650 C1652 1.389 . S
C1651 H1630 0.950 . S
C1651 C1650 1.373 . S
C1651 C1667 1.377 . S
C1652 C1650 1.389 . S
C1652 C1653 1.524 . S
C1652 C1666 1.377 . S
C1653 C1652 1.524 . S
C1653 C1654 1.397 . S
C1653 C1658 1.363 . S
C1654 H1631 0.950 . S
C1654 C1653 1.397 . S
C1654 C1655 1.334 . S
C1655 H1632 0.950 . S
C1655 C1654 1.334 . S
C1655 C1656 1.287 . S
C1656 C1655 1.287 . S
C1656 C1657 1.524 . S
C1656 H1675 0.913 . S
C1657 H1633 0.950 . S
C1657 C1656 1.524 . S
C1657 C1658 1.415 . S
C1658 H1634 0.950 . S
C1658 C1653 1.363 . S
C1658 C1657 1.415 . S
C1659 H1635 0.951 . S
C1659 C1660 1.366 . S
C1659 C1661 1.388 . S
C1660 C1659 1.366 . S
C1660 C1664 1.385 . S
C1661 H1636 0.951 . S
C1661 C1659 1.388 . S
C1661 C1662 1.366 . S
C1662 C1661 1.366 . S
C1662 C1663 1.414 . S
C1662 C1665 1.499 . S
C1663 H1637 0.950 . S
C1663 C1662 1.414 . S
C1663 C1664 1.374 . S
C1664 H1638 0.950 . S
C1664 C1660 1.385 . S
C1664 C1663 1.374 . S
C1665 C1662 1.499 . S
C1665 C1666 1.373 . S
C1665 C1667 1.389 . S
C1666 H1639 0.950 . S
C1666 C1652 1.377 . S
C1666 C1665 1.373 . S
C1667 C1651 1.377 . S
C1667 C1665 1.389 . S
C1667 C1668 1.524 . S
C1668 C1667 1.524 . S
C1668 C1669 1.397 . S
C1668 C1673 1.363 . S
C1669 H1640 0.950 . S
C1669 C1668 1.397 . S
C1669 C1670 1.334 . S
C1670 H1641 0.950 . S
C1670 C1669 1.334 . S
C1670 C1671 1.287 . S
C1671 C1670 1.287 . S
C1671 C1672 1.524 . S
C1671 H1674 0.999 . S
C1672 H1642 0.950 . S
C1672 C1671 1.524 . S
C1672 C1673 1.415 . S
C1673 H1643 0.950 . S
C1673 C1668 1.363 . S
C1673 C1672 1.415 . S
H1674 C1671 0.999 . S
H1675 C1656 0.913 . S
H1676 C1694 0.951 . S
H1677 C1696 0.951 . S
H1678 C1698 0.950 . S
H1679 C1699 0.950 . S
H1680 C1701 0.950 . S
H1681 C1704 0.950 . S
H1682 C1705 0.950 . S
H1683 C1707 0.950 . S
H1684 C1708 0.950 . S
H1685 C1709 0.951 . S
H1686 C1711 0.951 . S
H1687 C1713 0.950 . S
H1688 C1714 0.950 . S
H1689 C1716 0.950 . S
H1690 C1719 0.950 . S
H1691 C1720 0.950 . S
H1692 C1722 0.950 . S
H1693 C1723 0.950 . S
C1694 H1676 0.951 . S
C1694 C1695 1.366 . S
C1694 C1696 1.388 . S
C1695 C1694 1.366 . S
C1695 C1699 1.385 . S
C1696 H1677 0.951 . S
C1696 C1694 1.388 . S
C1696 C1697 1.366 . S
C1697 C1696 1.366 . S
C1697 C1698 1.414 . S
C1697 C1700 1.499 . S
C1698 H1678 0.950 . S
C1698 C1697 1.414 . S
C1698 C1699 1.374 . S
C1699 H1679 0.950 . S
C1699 C1695 1.385 . S
C1699 C1698 1.374 . S
C1700 C1697 1.499 . S
C1700 C1701 1.373 . S
C1700 C1702 1.389 . S
C1701 H1680 0.950 . S
C1701 C1700 1.373 . S
C1701 C1717 1.377 . S
C1702 C1700 1.389 . S
C1702 C1703 1.524 . S
C1702 C1716 1.377 . S
C1703 C1702 1.524 . S
C1703 C1704 1.397 . S
C1703 C1708 1.363 . S
C1704 H1681 0.950 . S
C1704 C1703 1.397 . S
C1704 C1705 1.334 . S
C1705 H1682 0.950 . S
C1705 C1704 1.334 . S
C1705 C1706 1.287 . S
C1706 C1705 1.287 . S
C1706 C1707 1.524 . S
C1706 H1725 0.913 . S
C1707 H1683 0.950 . S
C1707 C1706 1.524 . S
C1707 C1708 1.415 . S
C1708 H1684 0.950 . S
C1708 C1703 1.363 . S
C1708 C1707 1.415 . S
C1709 H1685 0.951 . S
C1709 C1710 1.366 . S
C1709 C1711 1.388 . S
C1710 C1709 1.366 . S
C1710 C1714 1.385 . S
C1711 H1686 0.951 . S
C1711 C1709 1.388 . S
C1711 C1712 1.366 . S
C1712 C1711 1.366 . S
C1712 C1713 1.414 . S
C1712 C1715 1.499 . S
C1713 H1687 0.950 . S
C1713 C1712 1.414 . S
C1713 C1714 1.374 . S
C1714 H1688 0.950 . S
C1714 C1710 1.385 . S
C1714 C1713 1.374 . S
C1715 C1712 1.499 . S
C1715 C1716 1.373 . S
C1715 C1717 1.389 . S
C1716 H1689 0.950 . S
C1716 C1702 1.377 . S
C1716 C1715 1.373 . S
C1717 C1701 1.377 . S
C1717 C1715 1.389 . S
C1717 C1718 1.524 . S
C1718 C1717 1.524 . S
C1718 C1719 1.397 . S
C1718 C1723 1.363 . S
C1719 H1690 0.950 . S
C1719 C1718 1.397 . S
C1719 C1720 1.334 . S
C1720 H1691 0.950 . S
C1720 C1719 1.334 . S
C1720 C1721 1.287 . S
C1721 C1720 1.287 . S
C1721 C1722 1.524 . S
C1721 H1724 0.999 . S
C1722 H1692 0.950 . S
C1722 C1721 1.524 . S
C1722 C1723 1.415 . S
C1723 H1693 0.950 . S
C1723 C1718 1.363 . S
C1723 C1722 1.415 . S
H1724 C1721 0.999 . S
H1725 C1706 0.913 . S
H1726 C1744 0.951 . S
H1727 C1746 0.951 . S
H1728 C1748 0.950 . S
H1729 C1749 0.950 . S
H1730 C1751 0.950 . S
H1731 C1754 0.950 . S
H1732 C1755 0.950 . S
H1733 C1757 0.950 . S
H1734 C1758 0.950 . S
H1735 C1759 0.951 . S
H1736 C1761 0.951 . S
H1737 C1763 0.950 . S
H1738 C1764 0.950 . S
H1739 C1766 0.950 . S
H1740 C1769 0.950 . S
H1741 C1770 0.950 . S
H1742 C1772 0.950 . S
H1743 C1773 0.950 . S
C1744 H1726 0.951 . S
C1744 C1745 1.366 . S
C1744 C1746 1.388 1_565 S
C1745 C1744 1.366 . S
C1745 C1749 1.385 1_565 S
C1746 H1727 0.951 . S
C1746 C1744 1.388 1_545 S
C1746 C1747 1.366 . S
C1747 C1746 1.366 . S
C1747 C1748 1.414 . S
C1747 C1750 1.499 . S
C1748 H1728 0.950 . S
C1748 C1747 1.414 . S
C1748 C1749 1.374 . S
C1749 H1729 0.950 . S
C1749 C1745 1.385 1_545 S
C1749 C1748 1.374 . S
C1750 C1747 1.499 . S
C1750 C1751 1.373 . S
C1750 C1752 1.389 . S
C1751 H1730 0.950 . S
C1751 C1750 1.373 . S
C1751 C1767 1.377 . S
C1752 C1750 1.389 . S
C1752 C1753 1.524 . S
C1752 C1766 1.377 . S
C1753 C1752 1.524 . S
C1753 C1754 1.397 . S
C1753 C1758 1.363 . S
C1754 H1731 0.950 . S
C1754 C1753 1.397 . S
C1754 C1755 1.334 1_545 S
C1755 H1732 0.950 . S
C1755 C1754 1.334 1_565 S
C1755 C1756 1.287 . S
C1756 C1755 1.287 . S
C1756 C1757 1.524 . S
C1756 H1775 0.913 . S
C1757 H1733 0.950 . S
C1757 C1756 1.524 . S
C1757 C1758 1.415 1_565 S
C1758 H1734 0.950 . S
C1758 C1753 1.363 . S
C1758 C1757 1.415 1_545 S
C1759 H1735 0.951 . S
C1759 C1760 1.366 . S
C1759 C1761 1.388 . S
C1760 C1759 1.366 . S
C1760 C1764 1.385 . S
C1761 H1736 0.951 . S
C1761 C1759 1.388 . S
C1761 C1762 1.366 . S
C1762 C1761 1.366 . S
C1762 C1763 1.414 . S
C1762 C1765 1.499 . S
C1763 H1737 0.950 . S
C1763 C1762 1.414 . S
C1763 C1764 1.374 . S
C1764 H1738 0.950 . S
C1764 C1760 1.385 . S
C1764 C1763 1.374 . S
C1765 C1762 1.499 . S
C1765 C1766 1.373 . S
C1765 C1767 1.389 . S
C1766 H1739 0.950 . S
C1766 C1752 1.377 . S
C1766 C1765 1.373 . S
C1767 C1751 1.377 . S
C1767 C1765 1.389 . S
C1767 C1768 1.524 . S
C1768 C1767 1.524 . S
C1768 C1769 1.397 . S
C1768 C1773 1.363 . S
C1769 H1740 0.950 . S
C1769 C1768 1.397 . S
C1769 C1770 1.334 . S
C1770 H1741 0.950 . S
C1770 C1769 1.334 . S
C1770 C1771 1.287 . S
C1771 C1770 1.287 . S
C1771 C1772 1.524 . S
C1771 H1774 0.999 . S
C1772 H1742 0.950 . S
C1772 C1771 1.524 . S
C1772 C1773 1.415 . S
C1773 H1743 0.950 . S
C1773 C1768 1.363 . S
C1773 C1772 1.415 . S
H1774 C1771 0.999 . S
H1775 C1756 0.913 . S
H1776 C1794 0.951 . S
H1777 C1796 0.951 . S
H1778 C1798 0.950 . S
H1779 C1799 0.950 . S
H1780 C1801 0.950 . S
H1781 C1804 0.950 . S
H1782 C1805 0.950 . S
H1783 C1807 0.950 . S
H1784 C1808 0.950 . S
H1785 C1809 0.951 . S
H1786 C1811 0.951 . S
H1787 C1813 0.950 . S
H1788 C1814 0.950 . S
H1789 C1816 0.950 . S
H1790 C1819 0.950 . S
H1791 C1820 0.950 . S
H1792 C1822 0.950 . S
H1793 C1823 0.950 . S
C1794 H1776 0.951 . S
C1794 C1795 1.366 . S
C1794 C1796 1.388 . S
C1795 C1794 1.366 . S
C1795 C1799 1.385 . S
C1796 H1777 0.951 . S
C1796 C1794 1.388 . S
C1796 C1797 1.366 . S
C1797 C1796 1.366 . S
C1797 C1798 1.414 . S
C1797 C1800 1.499 . S
C1798 H1778 0.950 . S
C1798 C1797 1.414 . S
C1798 C1799 1.374 . S
C1799 H1779 0.950 . S
C1799 C1795 1.385 . S
C1799 C1798 1.374 . S
C1800 C1797 1.499 . S
C1800 C1801 1.373 . S
C1800 C1802 1.389 . S
C1801 H1780 0.950 . S
C1801 C1800 1.373 . S
C1801 C1817 1.377 . S
C1802 C1800 1.389 . S
C1802 C1803 1.524 . S
C1802 C1816 1.377 . S
C1803 C1802 1.524 . S
C1803 C1804 1.397 . S
C1803 C1808 1.363 . S
C1804 H1781 0.950 . S
C1804 C1803 1.397 . S
C1804 C1805 1.334 . S
C1805 H1782 0.950 . S
C1805 C1804 1.334 . S
C1805 C1806 1.287 . S
C1806 C1805 1.287 . S
C1806 C1807 1.524 . S
C1806 H1825 0.913 . S
C1807 H1783 0.950 . S
C1807 C1806 1.524 . S
C1807 C1808 1.415 . S
C1808 H1784 0.950 . S
C1808 C1803 1.363 . S
C1808 C1807 1.415 . S
C1809 H1785 0.951 . S
C1809 C1810 1.366 . S
C1809 C1811 1.388 1_545 S
C1810 C1809 1.366 . S
C1810 C1814 1.385 . S
C1811 H1786 0.951 . S
C1811 C1809 1.388 1_565 S
C1811 C1812 1.366 . S
C1812 C1811 1.366 . S
C1812 C1813 1.414 . S
C1812 C1815 1.499 . S
C1813 H1787 0.950 . S
C1813 C1812 1.414 . S
C1813 C1814 1.374 1_565 S
C1814 H1788 0.950 . S
C1814 C1810 1.385 . S
C1814 C1813 1.374 1_545 S
C1815 C1812 1.499 . S
C1815 C1816 1.373 . S
C1815 C1817 1.389 . S
C1816 H1789 0.950 . S
C1816 C1802 1.377 . S
C1816 C1815 1.373 . S
C1817 C1801 1.377 . S
C1817 C1815 1.389 . S
C1817 C1818 1.524 . S
C1818 C1817 1.524 . S
C1818 C1819 1.397 . S
C1818 C1823 1.363 . S
C1819 H1790 0.950 . S
C1819 C1818 1.397 . S
C1819 C1820 1.334 1_565 S
C1820 H1791 0.950 . S
C1820 C1819 1.334 1_545 S
C1820 C1821 1.287 . S
C1821 C1820 1.287 . S
C1821 C1822 1.524 . S
C1821 H1824 0.999 . S
C1822 H1792 0.950 . S
C1822 C1821 1.524 . S
C1822 C1823 1.415 1_545 S
C1823 H1793 0.950 . S
C1823 C1818 1.363 . S
C1823 C1822 1.415 1_565 S
H1824 C1821 0.999 . S
H1825 C1806 0.913 . S
H1826 C1844 0.951 . S
H1827 C1846 0.951 . S
H1828 C1848 0.950 . S
H1829 C1849 0.950 . S
H1830 C1851 0.950 . S
H1831 C1854 0.950 . S
H1832 C1855 0.950 . S
H1833 C1857 0.950 . S
H1834 C1858 0.950 . S
H1835 C1859 0.951 . S
H1836 C1861 0.951 . S
H1837 C1863 0.950 . S
H1838 C1864 0.950 . S
H1839 C1866 0.950 . S
H1840 C1869 0.950 . S
H1841 C1870 0.950 . S
H1842 C1872 0.950 . S
H1843 C1873 0.950 . S
C1844 H1826 0.951 . S
C1844 C1845 1.366 . S
C1844 C1846 1.388 . S
C1845 C1844 1.366 . S
C1845 C1849 1.385 . S
C1846 H1827 0.951 . S
C1846 C1844 1.388 . S
C1846 C1847 1.366 . S
C1847 C1846 1.366 . S
C1847 C1848 1.414 . S
C1847 C1850 1.499 . S
C1848 H1828 0.950 . S
C1848 C1847 1.414 . S
C1848 C1849 1.374 . S
C1849 H1829 0.950 . S
C1849 C1845 1.385 . S
C1849 C1848 1.374 . S
C1850 C1847 1.499 . S
C1850 C1851 1.373 . S
C1850 C1852 1.389 . S
C1851 H1830 0.950 . S
C1851 C1850 1.373 . S
C1851 C1867 1.377 . S
C1852 C1850 1.389 . S
C1852 C1853 1.524 . S
C1852 C1866 1.377 . S
C1853 C1852 1.524 . S
C1853 C1854 1.397 . S
C1853 C1858 1.363 . S
C1854 H1831 0.950 . S
C1854 C1853 1.397 . S
C1854 C1855 1.334 . S
C1855 H1832 0.950 . S
C1855 C1854 1.334 . S
C1855 C1856 1.287 . S
C1856 C1855 1.287 . S
C1856 C1857 1.524 . S
C1856 H1875 0.913 . S
C1857 H1833 0.950 . S
C1857 C1856 1.524 . S
C1857 C1858 1.415 . S
C1858 H1834 0.950 . S
C1858 C1853 1.363 . S
C1858 C1857 1.415 . S
C1859 H1835 0.951 . S
C1859 C1860 1.366 . S
C1859 C1861 1.388 . S
C1860 C1859 1.366 . S
C1860 C1864 1.385 . S
C1861 H1836 0.951 . S
C1861 C1859 1.388 . S
C1861 C1862 1.366 . S
C1862 C1861 1.366 . S
C1862 C1863 1.414 . S
C1862 C1865 1.499 . S
C1863 H1837 0.950 . S
C1863 C1862 1.414 . S
C1863 C1864 1.374 . S
C1864 H1838 0.950 . S
C1864 C1860 1.385 . S
C1864 C1863 1.374 . S
C1865 C1862 1.499 . S
C1865 C1866 1.373 . S
C1865 C1867 1.389 . S
C1866 H1839 0.950 . S
C1866 C1852 1.377 . S
C1866 C1865 1.373 . S
C1867 C1851 1.377 . S
C1867 C1865 1.389 . S
C1867 C1868 1.524 . S
C1868 C1867 1.524 . S
C1868 C1869 1.397 . S
C1868 C1873 1.363 . S
C1869 H1840 0.950 . S
C1869 C1868 1.397 . S
C1869 C1870 1.334 . S
C1870 H1841 0.950 . S
C1870 C1869 1.334 . S
C1870 C1871 1.287 . S
C1871 C1870 1.287 . S
C1871 C1872 1.524 . S
C1871 H1874 0.999 . S
C1872 H1842 0.950 . S
C1872 C1871 1.524 . S
C1872 C1873 1.415 . S
C1873 H1843 0.950 . S
C1873 C1868 1.363 . S
C1873 C1872 1.415 . S
H1874 C1871 0.999 . S
H1875 C1856 0.913 . S
H1876 C1894 0.951 . S
H1877 C1896 0.951 . S
H1878 C1898 0.950 . S
H1879 C1899 0.950 . S
H1880 C1901 0.950 . S
H1881 C1904 0.950 . S
H1882 C1905 0.950 . S
H1883 C1907 0.950 . S
H1884 C1908 0.950 . S
H1885 C1909 0.951 . S
H1886 C1911 0.951 . S
H1887 C1913 0.950 . S
H1888 C1914 0.950 . S
H1889 C1916 0.950 . S
H1890 C1919 0.950 . S
H1891 C1920 0.950 . S
H1892 C1922 0.950 . S
H1893 C1923 0.950 . S
C1894 H1876 0.951 . S
C1894 C1895 1.366 . S
C1894 C1896 1.388 . S
C1895 C1894 1.366 . S
C1895 C1899 1.385 . S
C1896 H1877 0.951 . S
C1896 C1894 1.388 . S
C1896 C1897 1.366 . S
C1897 C1896 1.366 . S
C1897 C1898 1.414 . S
C1897 C1900 1.499 . S
C1898 H1878 0.950 . S
C1898 C1897 1.414 . S
C1898 C1899 1.374 . S
C1899 H1879 0.950 . S
C1899 C1895 1.385 . S
C1899 C1898 1.374 . S
C1900 C1897 1.499 . S
C1900 C1901 1.373 . S
C1900 C1902 1.389 . S
C1901 H1880 0.950 . S
C1901 C1900 1.373 . S
C1901 C1917 1.377 . S
C1902 C1900 1.389 . S
C1902 C1903 1.524 . S
C1902 C1916 1.377 . S
C1903 C1902 1.524 . S
C1903 C1904 1.397 . S
C1903 C1908 1.363 . S
C1904 H1881 0.950 . S
C1904 C1903 1.397 . S
C1904 C1905 1.334 . S
C1905 H1882 0.950 . S
C1905 C1904 1.334 . S
C1905 C1906 1.287 . S
C1906 C1905 1.287 . S
C1906 C1907 1.524 . S
C1906 H1925 0.913 . S
C1907 H1883 0.950 . S
C1907 C1906 1.524 . S
C1907 C1908 1.415 . S
C1908 H1884 0.950 . S
C1908 C1903 1.363 . S
C1908 C1907 1.415 . S
C1909 H1885 0.951 . S
C1909 C1910 1.366 . S
C1909 C1911 1.388 . S
C1910 C1909 1.366 . S
C1910 C1914 1.385 . S
C1911 H1886 0.951 . S
C1911 C1909 1.388 . S
C1911 C1912 1.366 . S
C1912 C1911 1.366 . S
C1912 C1913 1.414 . S
C1912 C1915 1.499 . S
C1913 H1887 0.950 . S
C1913 C1912 1.414 . S
C1913 C1914 1.374 . S
C1914 H1888 0.950 . S
C1914 C1910 1.385 . S
C1914 C1913 1.374 . S
C1915 C1912 1.499 . S
C1915 C1916 1.373 . S
C1915 C1917 1.389 . S
C1916 H1889 0.950 . S
C1916 C1902 1.377 . S
C1916 C1915 1.373 . S
C1917 C1901 1.377 . S
C1917 C1915 1.389 . S
C1917 C1918 1.524 . S
C1918 C1917 1.524 . S
C1918 C1919 1.397 . S
C1918 C1923 1.363 . S
C1919 H1890 0.950 . S
C1919 C1918 1.397 . S
C1919 C1920 1.334 . S
C1920 H1891 0.950 . S
C1920 C1919 1.334 . S
C1920 C1921 1.287 . S
C1921 C1920 1.287 . S
C1921 C1922 1.524 . S
C1921 H1924 0.999 . S
C1922 H1892 0.950 . S
C1922 C1921 1.524 . S
C1922 C1923 1.415 . S
C1923 H1893 0.950 . S
C1923 C1918 1.363 . S
C1923 C1922 1.415 . S
H1924 C1921 0.999 . S
H1925 C1906 0.913 . S
H1926 C1944 0.951 . S
H1927 C1946 0.951 . S
H1928 C1948 0.950 . S
H1929 C1949 0.950 . S
H1930 C1951 0.950 . S
H1931 C1954 0.950 . S
H1932 C1955 0.950 . S
H1933 C1957 0.950 . S
H1934 C1958 0.950 . S
H1935 C1959 0.951 1_545 S
H1936 C1961 0.951 . S
H1937 C1963 0.950 . S
H1938 C1964 0.950 1_545 S
H1939 C1966 0.950 . S
H1940 C1969 0.950 . S
H1941 C1970 0.950 . S
H1942 C1972 0.950 . S
H1943 C1973 0.950 . S
C1944 H1926 0.951 . S
C1944 C1945 1.366 . S
C1944 C1946 1.388 . S
C1945 C1944 1.366 . S
C1945 C1949 1.385 . S
C1946 H1927 0.951 . S
C1946 C1944 1.388 . S
C1946 C1947 1.366 . S
C1947 C1946 1.366 . S
C1947 C1948 1.414 . S
C1947 C1950 1.499 . S
C1948 H1928 0.950 . S
C1948 C1947 1.414 . S
C1948 C1949 1.374 . S
C1949 H1929 0.950 . S
C1949 C1945 1.385 . S
C1949 C1948 1.374 . S
C1950 C1947 1.499 . S
C1950 C1951 1.373 . S
C1950 C1952 1.389 . S
C1951 H1930 0.950 . S
C1951 C1950 1.373 . S
C1951 C1967 1.377 . S
C1952 C1950 1.389 . S
C1952 C1953 1.524 . S
C1952 C1966 1.377 . S
C1953 C1952 1.524 . S
C1953 C1954 1.397 . S
C1953 C1958 1.363 . S
C1954 H1931 0.950 . S
C1954 C1953 1.397 . S
C1954 C1955 1.334 . S
C1955 H1932 0.950 . S
C1955 C1954 1.334 . S
C1955 C1956 1.287 . S
C1956 C1955 1.287 . S
C1956 C1957 1.524 . S
C1956 H1975 0.913 . S
C1957 H1933 0.950 . S
C1957 C1956 1.524 . S
C1957 C1958 1.415 . S
C1958 H1934 0.950 . S
C1958 C1953 1.363 . S
C1958 C1957 1.415 . S
C1959 H1935 0.951 1_565 S
C1959 C1960 1.366 1_565 S
C1959 C1961 1.388 . S
C1960 C1959 1.366 1_545 S
C1960 C1964 1.385 1_545 S
C1961 H1936 0.951 . S
C1961 C1959 1.388 . S
C1961 C1962 1.366 . S
C1962 C1961 1.366 . S
C1962 C1963 1.414 . S
C1962 C1965 1.499 . S
C1963 H1937 0.950 . S
C1963 C1962 1.414 . S
C1963 C1964 1.374 . S
C1964 H1938 0.950 1_565 S
C1964 C1960 1.385 1_565 S
C1964 C1963 1.374 . S
C1965 C1962 1.499 . S
C1965 C1966 1.373 . S
C1965 C1967 1.389 . S
C1966 H1939 0.950 . S
C1966 C1952 1.377 . S
C1966 C1965 1.373 . S
C1967 C1951 1.377 . S
C1967 C1965 1.389 . S
C1967 C1968 1.524 . S
C1968 C1967 1.524 . S
C1968 C1969 1.397 . S
C1968 C1973 1.363 . S
C1969 H1940 0.950 . S
C1969 C1968 1.397 . S
C1969 C1970 1.334 . S
C1970 H1941 0.950 . S
C1970 C1969 1.334 . S
C1970 C1971 1.287 . S
C1971 C1970 1.287 . S
C1971 C1972 1.524 . S
C1971 H1974 0.999 . S
C1972 H1942 0.950 . S
C1972 C1971 1.524 . S
C1972 C1973 1.415 . S
C1973 H1943 0.950 . S
C1973 C1968 1.363 . S
C1973 C1972 1.415 . S
H1974 C1971 0.999 . S
H1975 C1956 0.913 . S
H1976 C1994 0.951 . S
H1977 C1996 0.951 . S
H1978 C1998 0.950 . S
H1979 C1999 0.950 . S
H1980 C2001 0.950 . S
H1981 C2004 0.950 . S
H1982 C2005 0.950 . S
H1983 C2007 0.950 . S
H1984 C2008 0.950 . S
H1985 C2009 0.951 . S
H1986 C2011 0.951 . S
H1987 C2013 0.950 . S
H1988 C2014 0.950 . S
H1989 C2016 0.950 . S
H1990 C2019 0.950 . S
H1991 C2020 0.974 . S
H1992 C2022 0.950 . S
H1993 C2023 0.950 . S
C1994 H1976 0.951 . S
C1994 C1995 1.366 . S
C1994 C1996 1.388 . S
C1995 C1994 1.366 . S
C1995 C1999 1.385 . S
C1996 H1977 0.951 . S
C1996 C1994 1.388 . S
C1996 C1997 1.366 . S
C1997 C1996 1.366 . S
C1997 C1998 1.414 . S
C1997 C2000 1.499 . S
C1998 H1978 0.950 . S
C1998 C1997 1.414 . S
C1998 C1999 1.374 . S
C1999 H1979 0.950 . S
C1999 C1995 1.385 . S
C1999 C1998 1.374 . S
C2000 C1997 1.499 . S
C2000 C2001 1.373 . S
C2000 C2002 1.389 . S
C2001 H1980 0.950 . S
C2001 C2000 1.373 . S
C2001 C2017 1.377 . S
C2002 C2000 1.389 . S
C2002 C2003 1.524 . S
C2002 C2016 1.377 . S
C2003 C2002 1.524 . S
C2003 C2004 1.397 . S
C2003 C2008 1.363 . S
C2004 H1981 0.950 . S
C2004 C2003 1.397 . S
C2004 C2005 1.334 . S
C2005 H1982 0.950 . S
C2005 C2004 1.334 . S
C2005 C2006 1.287 . S
C2006 C2005 1.287 . S
C2006 C2007 1.524 . S
C2006 H2025 0.913 . S
C2007 H1983 0.950 . S
C2007 C2006 1.524 . S
C2007 C2008 1.415 . S
C2008 H1984 0.950 . S
C2008 C2003 1.363 . S
C2008 C2007 1.415 . S
C2009 H1985 0.951 . S
C2009 C2010 1.366 1_545 S
C2009 C2011 1.388 . S
C2010 C2009 1.366 1_565 S
C2010 C2014 1.385 . S
C2011 H1986 0.951 . S
C2011 C2009 1.388 . S
C2011 C2012 1.366 . S
C2012 C2011 1.366 . S
C2012 C2013 1.414 . S
C2012 C2015 1.499 . S
C2013 H1987 0.950 . S
C2013 C2012 1.414 . S
C2013 C2014 1.374 1_545 S
C2014 H1988 0.950 . S
C2014 C2010 1.385 . S
C2014 C2013 1.374 1_565 S
C2015 C2012 1.499 . S
C2015 C2016 1.373 . S
C2015 C2017 1.389 . S
C2016 H1989 0.950 . S
C2016 C2002 1.377 . S
C2016 C2015 1.373 . S
C2017 C2001 1.377 . S
C2017 C2015 1.389 . S
C2017 C2018 1.524 . S
C2018 C2017 1.524 . S
C2018 C2019 1.397 . S
C2018 C2023 1.363 . S
C2019 H1990 0.950 . S
C2019 C2018 1.397 . S
C2019 C2020 1.320 1_545 S
C2020 H1991 0.974 . S
C2020 C2019 1.320 1_565 S
C2020 C2021 1.277 1_565 S
C2021 C2020 1.277 1_545 S
C2021 C2022 1.524 . S
C2021 H2024 0.985 1_545 S
C2022 H1992 0.950 . S
C2022 C2021 1.524 . S
C2022 C2023 1.415 . S
C2023 H1993 0.950 . S
C2023 C2018 1.363 . S
C2023 C2022 1.415 . S
H2024 C2021 0.985 1_565 S
H2025 C2006 0.913 . S
H2026 C2044 0.951 . S
H2027 C2046 0.951 . S
H2028 C2048 0.950 . S
H2029 C2049 0.950 . S
H2030 C2051 0.950 . S
H2031 C2054 0.950 . S
H2032 C2055 0.950 . S
H2033 C2057 0.950 . S
H2034 C2058 0.950 . S
H2035 C2059 0.951 . S
H2036 C2061 0.951 . S
H2037 C2063 0.950 . S
H2038 C2064 0.950 . S
H2039 C2066 0.950 . S
H2040 C2069 0.950 . S
H2041 C2070 0.950 . S
H2042 C2072 0.950 . S
H2043 C2073 0.950 . S
C2044 H2026 0.951 . S
C2044 C2045 1.366 . S
C2044 C2046 1.388 . S
C2045 C2044 1.366 . S
C2045 C2049 1.385 . S
C2046 H2027 0.951 . S
C2046 C2044 1.388 . S
C2046 C2047 1.366 . S
C2047 C2046 1.366 . S
C2047 C2048 1.414 . S
C2047 C2050 1.499 . S
C2048 H2028 0.950 . S
C2048 C2047 1.414 . S
C2048 C2049 1.374 . S
C2049 H2029 0.950 . S
C2049 C2045 1.385 . S
C2049 C2048 1.374 . S
C2050 C2047 1.499 . S
C2050 C2051 1.373 . S
C2050 C2052 1.389 . S
C2051 H2030 0.950 . S
C2051 C2050 1.373 . S
C2051 C2067 1.377 . S
C2052 C2050 1.389 . S
C2052 C2053 1.524 . S
C2052 C2066 1.377 . S
C2053 C2052 1.524 . S
C2053 C2054 1.397 . S
C2053 C2058 1.363 . S
C2054 H2031 0.950 . S
C2054 C2053 1.397 . S
C2054 C2055 1.334 . S
C2055 H2032 0.950 . S
C2055 C2054 1.334 . S
C2055 C2056 1.287 . S
C2056 C2055 1.287 . S
C2056 C2057 1.524 . S
C2056 H2075 0.913 . S
C2057 H2033 0.950 . S
C2057 C2056 1.524 . S
C2057 C2058 1.415 . S
C2058 H2034 0.950 . S
C2058 C2053 1.363 . S
C2058 C2057 1.415 . S
C2059 H2035 0.951 . S
C2059 C2060 1.366 . S
C2059 C2061 1.388 . S
C2060 C2059 1.366 . S
C2060 C2064 1.385 . S
C2061 H2036 0.951 . S
C2061 C2059 1.388 . S
C2061 C2062 1.366 . S
C2062 C2061 1.366 . S
C2062 C2063 1.414 . S
C2062 C2065 1.499 . S
C2063 H2037 0.950 . S
C2063 C2062 1.414 . S
C2063 C2064 1.374 . S
C2064 H2038 0.950 . S
C2064 C2060 1.385 . S
C2064 C2063 1.374 . S
C2065 C2062 1.499 . S
C2065 C2066 1.373 . S
C2065 C2067 1.389 . S
C2066 H2039 0.950 . S
C2066 C2052 1.377 . S
C2066 C2065 1.373 . S
C2067 C2051 1.377 . S
C2067 C2065 1.389 . S
C2067 C2068 1.524 . S
C2068 C2067 1.524 . S
C2068 C2069 1.397 . S
C2068 C2073 1.363 . S
C2069 H2040 0.950 . S
C2069 C2068 1.397 . S
C2069 C2070 1.334 . S
C2070 H2041 0.950 . S
C2070 C2069 1.334 . S
C2070 C2071 1.287 . S
C2071 C2070 1.287 . S
C2071 C2072 1.524 . S
C2071 H2074 0.999 . S
C2072 H2042 0.950 . S
C2072 C2071 1.524 . S
C2072 C2073 1.415 . S
C2073 H2043 0.950 . S
C2073 C2068 1.363 . S
C2073 C2072 1.415 . S
H2074 C2071 0.999 . S
H2075 C2056 0.913 . S
H2076 C2094 0.951 . S
H2077 C2096 0.951 . S
H2078 C2098 0.950 . S
H2079 C2099 0.950 . S
H2080 C2101 0.950 . S
H2081 C2104 0.950 . S
H2082 C2105 0.950 . S
H2083 C2107 0.950 . S
H2084 C2108 0.950 . S
H2085 C2109 0.951 . S
H2086 C2111 0.951 . S
H2087 C2113 0.950 . S
H2088 C2114 0.950 . S
H2089 C2116 0.950 . S
H2090 C2119 0.950 . S
H2091 C2120 0.950 . S
H2092 C2122 0.950 . S
H2093 C2123 0.950 . S
C2094 H2076 0.951 . S
C2094 C2095 1.366 . S
C2094 C2096 1.388 . S
C2095 C2094 1.366 . S
C2095 C2099 1.385 . S
C2096 H2077 0.951 . S
C2096 C2094 1.388 . S
C2096 C2097 1.366 . S
C2097 C2096 1.366 . S
C2097 C2098 1.414 . S
C2097 C2100 1.499 . S
C2098 H2078 0.950 . S
C2098 C2097 1.414 . S
C2098 C2099 1.374 . S
C2099 H2079 0.950 . S
C2099 C2095 1.385 . S
C2099 C2098 1.374 . S
C2100 C2097 1.499 . S
C2100 C2101 1.373 . S
C2100 C2102 1.389 . S
C2101 H2080 0.950 . S
C2101 C2100 1.373 . S
C2101 C2117 1.377 . S
C2102 C2100 1.389 . S
C2102 C2103 1.524 . S
C2102 C2116 1.377 . S
C2103 C2102 1.524 . S
C2103 C2104 1.397 . S
C2103 C2108 1.363 . S
C2104 H2081 0.950 . S
C2104 C2103 1.397 . S
C2104 C2105 1.334 . S
C2105 H2082 0.950 . S
C2105 C2104 1.334 . S
C2105 C2106 1.287 . S
C2106 C2105 1.287 . S
C2106 C2107 1.524 . S
C2106 H2125 0.913 . S
C2107 H2083 0.950 . S
C2107 C2106 1.524 . S
C2107 C2108 1.415 . S
C2108 H2084 0.950 . S
C2108 C2103 1.363 . S
C2108 C2107 1.415 . S
C2109 H2085 0.951 . S
C2109 C2110 1.366 . S
C2109 C2111 1.388 . S
C2110 C2109 1.366 . S
C2110 C2114 1.385 . S
C2111 H2086 0.951 . S
C2111 C2109 1.388 . S
C2111 C2112 1.366 . S
C2112 C2111 1.366 . S
C2112 C2113 1.414 . S
C2112 C2115 1.499 . S
C2113 H2087 0.950 . S
C2113 C2112 1.414 . S
C2113 C2114 1.374 . S
C2114 H2088 0.950 . S
C2114 C2110 1.385 . S
C2114 C2113 1.374 . S
C2115 C2112 1.499 . S
C2115 C2116 1.373 . S
C2115 C2117 1.389 . S
C2116 H2089 0.950 . S
C2116 C2102 1.377 . S
C2116 C2115 1.373 . S
C2117 C2101 1.377 . S
C2117 C2115 1.389 . S
C2117 C2118 1.524 . S
C2118 C2117 1.524 . S
C2118 C2119 1.397 . S
C2118 C2123 1.363 . S
C2119 H2090 0.950 . S
C2119 C2118 1.397 . S
C2119 C2120 1.334 . S
C2120 H2091 0.950 . S
C2120 C2119 1.334 . S
C2120 C2121 1.287 . S
C2121 C2120 1.287 . S
C2121 C2122 1.524 . S
C2121 H2124 0.999 . S
C2122 H2092 0.950 . S
C2122 C2121 1.524 . S
C2122 C2123 1.415 . S
C2123 H2093 0.950 . S
C2123 C2118 1.363 . S
C2123 C2122 1.415 . S
H2124 C2121 0.999 . S
H2125 C2106 0.913 . S
H2126 C2144 0.951 . S
H2127 C2146 0.951 . S
H2128 C2148 0.950 . S
H2129 C2149 0.950 . S
H2130 C2151 0.950 . S
H2131 C2154 0.950 . S
H2132 C2155 0.950 . S
H2133 C2157 0.950 . S
H2134 C2158 0.950 . S
H2135 C2159 0.951 . S
H2136 C2161 0.951 . S
H2137 C2163 0.950 . S
H2138 C2164 0.950 . S
H2139 C2166 0.950 . S
H2140 C2169 0.950 . S
H2141 C2170 0.950 . S
H2142 C2172 0.950 . S
H2143 C2173 0.950 . S
C2144 H2126 0.951 . S
C2144 C2145 1.366 . S
C2144 C2146 1.388 . S
C2145 C2144 1.366 . S
C2145 C2149 1.385 . S
C2146 H2127 0.951 . S
C2146 C2144 1.388 . S
C2146 C2147 1.366 . S
C2147 C2146 1.366 . S
C2147 C2148 1.414 . S
C2147 C2150 1.499 . S
C2148 H2128 0.950 . S
C2148 C2147 1.414 . S
C2148 C2149 1.374 . S
C2149 H2129 0.950 . S
C2149 C2145 1.385 . S
C2149 C2148 1.374 . S
C2150 C2147 1.499 . S
C2150 C2151 1.373 . S
C2150 C2152 1.389 . S
C2151 H2130 0.950 . S
C2151 C2150 1.373 . S
C2151 C2167 1.377 . S
C2152 C2150 1.389 . S
C2152 C2153 1.524 . S
C2152 C2166 1.377 . S
C2153 C2152 1.524 . S
C2153 C2154 1.397 . S
C2153 C2158 1.363 . S
C2154 H2131 0.950 . S
C2154 C2153 1.397 . S
C2154 C2155 1.334 . S
C2155 H2132 0.950 . S
C2155 C2154 1.334 . S
C2155 C2156 1.287 . S
C2156 C2155 1.287 . S
C2156 C2157 1.524 . S
C2156 H2175 0.913 . S
C2157 H2133 0.950 . S
C2157 C2156 1.524 . S
C2157 C2158 1.415 . S
C2158 H2134 0.950 . S
C2158 C2153 1.363 . S
C2158 C2157 1.415 . S
C2159 H2135 0.951 . S
C2159 C2160 1.366 . S
C2159 C2161 1.388 1_565 S
C2160 C2159 1.366 . S
C2160 C2164 1.385 1_565 S
C2161 H2136 0.951 . S
C2161 C2159 1.388 1_545 S
C2161 C2162 1.366 . S
C2162 C2161 1.366 . S
C2162 C2163 1.414 . S
C2162 C2165 1.499 . S
C2163 H2137 0.950 . S
C2163 C2162 1.414 . S
C2163 C2164 1.374 . S
C2164 H2138 0.950 . S
C2164 C2160 1.385 1_545 S
C2164 C2163 1.374 . S
C2165 C2162 1.499 . S
C2165 C2166 1.373 . S
C2165 C2167 1.389 . S
C2166 H2139 0.950 . S
C2166 C2152 1.377 . S
C2166 C2165 1.373 . S
C2167 C2151 1.377 . S
C2167 C2165 1.389 . S
C2167 C2168 1.524 . S
C2168 C2167 1.524 . S
C2168 C2169 1.397 . S
C2168 C2173 1.363 . S
C2169 H2140 0.950 . S
C2169 C2168 1.397 . S
C2169 C2170 1.334 . S
C2170 H2141 0.950 . S
C2170 C2169 1.334 . S
C2170 C2171 1.287 . S
C2171 C2170 1.287 . S
C2171 C2172 1.524 . S
C2171 H2174 0.999 . S
C2172 H2142 0.950 . S
C2172 C2171 1.524 . S
C2172 C2173 1.415 . S
C2173 H2143 0.950 . S
C2173 C2168 1.363 . S
C2173 C2172 1.415 . S
H2174 C2171 0.999 . S
H2175 C2156 0.913 . S
C595 C518 1.450 . S
C610 C14 1.450 . S
C645 C75 1.496 . S
C660 C3 1.496 . S
C695 C410 1.450 . S
C710 C50 1.450 . S
C745 C39 1.496 . S
C760 C255 1.496 . S
C795 C86 1.449 . S
C810 C446 1.449 . S
C845 C338 1.450 . S
C860 C122 1.450 . S
C895 C111 1.496 . S
C910 C183 1.496 . S
C945 C374 1.450 . S
C960 C158 1.450 . S
C995 C147 1.496 . S
C1010 C219 1.496 . S
C1045 C554 1.449 . S
C1060 C194 1.449 . S
C1095 C302 1.449 . S
C1110 C230 1.449 . S
C1145 C482 1.450 . S
C1160 C266 1.450 . S
C1195 C291 1.496 . S
C1210 C363 1.496 . S
C1245 C543 1.496 . S
C1260 C327 1.496 . S
C1295 C399 1.496 . S
C1310 C471 1.496 . S
C1345 C507 1.496 . S
C1360 C435 1.496 . S
C1395 C182 1.279 . S
C1410 C2 1.278 . S
C1445 C4 1.351 . S
C1460 C184 1.350 . S
C1495 C38 1.278 . S
C1510 C146 1.279 . S
C1545 C148 1.350 . S
C1560 C40 1.351 . S
C1595 C254 1.278 . S
C1610 C74 1.279 . S
C1645 C256 1.350 . S
C1660 C76 1.351 . S
C1695 C218 1.279 . S
C1710 C110 1.278 . S
C1745 C112 1.351 . S
C1760 C220 1.351 . S
C1795 C470 1.279 . S
C1810 C290 1.279 . S
C1845 C292 1.351 . S
C1860 C472 1.350 . S
C1895 C326 1.279 . S
C1910 C434 1.278 . S
C1945 C436 1.351 . S
C1960 C328 1.350 . S
C1995 C542 1.279 . S
C2010 C362 1.278 . S
C2045 C544 1.350 . S
C2060 C364 1.351 . S
C2095 C398 1.278 . S
C2110 C506 1.279 . S
C2145 C508 1.350 . S
C2160 C400 1.351 . S
