# Generated by pormake.
# Topology smd, (6)-cn, num edge types: 1
# Building blocks:
#     Node 0, Type 0, BuildingBlock: IZENUY_clean_sbu_0, # of connection points: 6
#     Node 1, Type 0, BuildingBlock: IZENUY_clean_sbu_0, # of connection points: 6
#     Node 2, Type 0, BuildingBlock: IZENUY_clean_sbu_0, # of connection points: 6
#     Node 3, Type 0, BuildingBlock: IZENUY_clean_sbu_0, # of connection points: 6
#     Node 4, Type 0, BuildingBlock: IZENUY_clean_sbu_0, # of connection points: 6
#     Node 5, Type 0, BuildingBlock: IZENUY_clean_sbu_0, # of connection points: 6
#     Node 6, Type 0, BuildingBlock: IZENUY_clean_sbu_0, # of connection points: 6
#     Node 7, Type 0, BuildingBlock: IZENUY_clean_sbu_0, # of connection points: 6
#     Node 8, Type 0, BuildingBlock: IZENUY_clean_sbu_0, # of connection points: 6
#     Node 9, Type 0, BuildingBlock: IZENUY_clean_sbu_0, # of connection points: 6
#     Node 10, Type 0, BuildingBlock: IZENUY_clean_sbu_0, # of connection points: 6
#     Node 11, Type 0, BuildingBlock: IZENUY_clean_sbu_0, # of connection points: 6
#     Node 12, Type 0, BuildingBlock: IZENUY_clean_sbu_0, # of connection points: 6
#     Node 13, Type 0, BuildingBlock: IZENUY_clean_sbu_0, # of connection points: 6
#     Node 14, Type 0, BuildingBlock: IZENUY_clean_sbu_0, # of connection points: 6
#     Node 15, Type 0, BuildingBlock: IZENUY_clean_sbu_0, # of connection points: 6
#     Node 16, Type 0, BuildingBlock: IZENUY_clean_sbu_0, # of connection points: 6
#     Node 17, Type 0, BuildingBlock: IZENUY_clean_sbu_0, # of connection points: 6
#     Edge 18, Type (0, 0), BuildingBlock: AJUNOK_clean_linker_0, # of connection points: 2
#     Edge 19, Type (0, 0), BuildingBlock: AJUNOK_clean_linker_0, # of connection points: 2
#     Edge 20, Type (0, 0), BuildingBlock: AJUNOK_clean_linker_0, # of connection points: 2
#     Edge 21, Type (0, 0), BuildingBlock: AJUNOK_clean_linker_0, # of connection points: 2
#     Edge 22, Type (0, 0), BuildingBlock: AJUNOK_clean_linker_0, # of connection points: 2
#     Edge 23, Type (0, 0), BuildingBlock: AJUNOK_clean_linker_0, # of connection points: 2
#     Edge 24, Type (0, 0), BuildingBlock: AJUNOK_clean_linker_0, # of connection points: 2
#     Edge 25, Type (0, 0), BuildingBlock: AJUNOK_clean_linker_0, # of connection points: 2
#     Edge 26, Type (0, 0), BuildingBlock: AJUNOK_clean_linker_0, # of connection points: 2
#     Edge 27, Type (0, 0), BuildingBlock: AJUNOK_clean_linker_0, # of connection points: 2
#     Edge 28, Type (0, 0), BuildingBlock: AJUNOK_clean_linker_0, # of connection points: 2
#     Edge 29, Type (0, 0), BuildingBlock: AJUNOK_clean_linker_0, # of connection points: 2
#     Edge 30, Type (0, 0), BuildingBlock: AJUNOK_clean_linker_0, # of connection points: 2
#     Edge 31, Type (0, 0), BuildingBlock: AJUNOK_clean_linker_0, # of connection points: 2
#     Edge 32, Type (0, 0), BuildingBlock: AJUNOK_clean_linker_0, # of connection points: 2
#     Edge 33, Type (0, 0), BuildingBlock: AJUNOK_clean_linker_0, # of connection points: 2
#     Edge 34, Type (0, 0), BuildingBlock: AJUNOK_clean_linker_0, # of connection points: 2
#     Edge 35, Type (0, 0), BuildingBlock: AJUNOK_clean_linker_0, # of connection points: 2
#     Edge 36, Type (0, 0), BuildingBlock: AJUNOK_clean_linker_0, # of connection points: 2
#     Edge 37, Type (0, 0), BuildingBlock: AJUNOK_clean_linker_0, # of connection points: 2
#     Edge 38, Type (0, 0), BuildingBlock: AJUNOK_clean_linker_0, # of connection points: 2
#     Edge 39, Type (0, 0), BuildingBlock: AJUNOK_clean_linker_0, # of connection points: 2
#     Edge 40, Type (0, 0), BuildingBlock: AJUNOK_clean_linker_0, # of connection points: 2
#     Edge 41, Type (0, 0), BuildingBlock: AJUNOK_clean_linker_0, # of connection points: 2
#     Edge 42, Type (0, 0), BuildingBlock: AJUNOK_clean_linker_0, # of connection points: 2
#     Edge 43, Type (0, 0), BuildingBlock: AJUNOK_clean_linker_0, # of connection points: 2
#     Edge 44, Type (0, 0), BuildingBlock: AJUNOK_clean_linker_0, # of connection points: 2
#     Edge 45, Type (0, 0), BuildingBlock: AJUNOK_clean_linker_0, # of connection points: 2
#     Edge 46, Type (0, 0), BuildingBlock: AJUNOK_clean_linker_0, # of connection points: 2
#     Edge 47, Type (0, 0), BuildingBlock: AJUNOK_clean_linker_0, # of connection points: 2
#     Edge 48, Type (0, 0), BuildingBlock: AJUNOK_clean_linker_0, # of connection points: 2
#     Edge 49, Type (0, 0), BuildingBlock: AJUNOK_clean_linker_0, # of connection points: 2
#     Edge 50, Type (0, 0), BuildingBlock: AJUNOK_clean_linker_0, # of connection points: 2
#     Edge 51, Type (0, 0), BuildingBlock: AJUNOK_clean_linker_0, # of connection points: 2
#     Edge 52, Type (0, 0), BuildingBlock: AJUNOK_clean_linker_0, # of connection points: 2
#     Edge 53, Type (0, 0), BuildingBlock: AJUNOK_clean_linker_0, # of connection points: 2
#     Edge 54, Type (0, 0), BuildingBlock: AJUNOK_clean_linker_0, # of connection points: 2
#     Edge 55, Type (0, 0), BuildingBlock: AJUNOK_clean_linker_0, # of connection points: 2
#     Edge 56, Type (0, 0), BuildingBlock: AJUNOK_clean_linker_0, # of connection points: 2
#     Edge 57, Type (0, 0), BuildingBlock: AJUNOK_clean_linker_0, # of connection points: 2
#     Edge 58, Type (0, 0), BuildingBlock: AJUNOK_clean_linker_0, # of connection points: 2
#     Edge 59, Type (0, 0), BuildingBlock: AJUNOK_clean_linker_0, # of connection points: 2
#     Edge 60, Type (0, 0), BuildingBlock: AJUNOK_clean_linker_0, # of connection points: 2
#     Edge 61, Type (0, 0), BuildingBlock: AJUNOK_clean_linker_0, # of connection points: 2
#     Edge 62, Type (0, 0), BuildingBlock: AJUNOK_clean_linker_0, # of connection points: 2
#     Edge 63, Type (0, 0), BuildingBlock: AJUNOK_clean_linker_0, # of connection points: 2
#     Edge 64, Type (0, 0), BuildingBlock: AJUNOK_clean_linker_0, # of connection points: 2
#     Edge 65, Type (0, 0), BuildingBlock: AJUNOK_clean_linker_0, # of connection points: 2
#     Edge 66, Type (0, 0), BuildingBlock: AJUNOK_clean_linker_0, # of connection points: 2
#     Edge 67, Type (0, 0), BuildingBlock: AJUNOK_clean_linker_0, # of connection points: 2
#     Edge 68, Type (0, 0), BuildingBlock: AJUNOK_clean_linker_0, # of connection points: 2
#     Edge 69, Type (0, 0), BuildingBlock: AJUNOK_clean_linker_0, # of connection points: 2
#     Edge 70, Type (0, 0), BuildingBlock: AJUNOK_clean_linker_0, # of connection points: 2
#     Edge 71, Type (0, 0), BuildingBlock: AJUNOK_clean_linker_0, # of connection points: 2
# Relax obj value: 0.180
# Max RMSD: 0.220
# Mean RMSD: 0.218
data_MOF--net-smd--node1-IZENUY_clean_sbu_0--edge1-AJUNOK_clean_linker_0
_symmetry_space_group_name_H-M    P1
_symmetry_Int_Tables_number       1
_symmetry_cell_setting            triclinic
loop_
_symmetry_equiv_pos_as_xyz
'x, y, z'
_cell_length_a     54.616209
_cell_length_b     54.758079
_cell_length_c     11.181473
_cell_angle_alpha  89.912412
_cell_angle_beta   89.953859
_cell_angle_gamma 120.06193
loop_
_atom_site_label
_atom_site_type_symbol
_atom_site_fract_x
_atom_site_fract_y
_atom_site_fract_z
_atom_type_partial_charge
Fe0 Fe 0.06639 0.27609 0.63606 0.0
Fe1 Fe 0.04278 0.2159 0.54039 0.0
O2 O 0.04339 0.24853 0.53959 0.0
Fe3 Fe 1.02115 0.25386 0.44115 0.0
O4 O 1.00327 0.25971 0.56447 0.0
O5 O 0.04244 0.29061 0.65421 0.0
O6 O 0.04989 0.25479 0.76642 0.0
C7 C 0.04789 0.23126 0.78733 0.0
C8 C 0.07215 0.3072 0.43918 0.0
O9 O 0.04991 0.21667 0.70353 0.0
C10 C 0.03982 0.22704 0.29385 0.0
O11 O 0.09455 0.26669 0.63551 0.0
O12 O 0.07991 0.23281 0.50266 0.0
O13 O 0.04567 0.29221 0.42238 0.0
O14 O 0.08444 0.29925 0.51128 0.0
C15 C 0.98641 0.19671 0.51521 0.0
O16 O 0.03573 0.20953 0.37712 0.0
O17 O 0.03801 0.24871 0.3131 0.0
C18 C 0.09968 0.25233 0.56124 0.0
O19 O 1.00559 0.19678 0.5779 0.0
O20 O 0.99239 0.21652 0.44112 0.0
C21 C 1.0161 0.28014 0.63539 0.0
Fe22 Fe 0.86087 0.85002 0.51465 0.0
Fe23 Fe 0.82369 0.78971 0.41998 0.0
O24 O 0.82862 0.8174 0.51602 0.0
Fe25 Fe 0.80113 0.81217 0.61512 0.0
O26 O 0.82328 0.81684 0.74155 0.0
O27 O 0.86041 0.85612 0.67841 0.0
O28 O 0.88109 0.83311 0.55068 0.0
C29 C 0.88104 0.81339 0.49272 0.0
C30 C 0.82394 0.86942 0.54284 0.0
O31 O 0.86119 0.79873 0.42019 0.0
C32 C 0.76962 0.7864 0.42082 0.0
O33 O 0.86708 0.84933 0.35102 0.0
O34 O 0.82877 0.811 0.28993 0.0
O35 O 0.81025 0.84965 0.61735 0.0
O36 O 0.84288 0.8693 0.47888 0.0
C37 C 0.79784 0.75851 0.61647 0.0
O38 O 0.78522 0.77566 0.40201 0.0
O39 O 0.77738 0.80674 0.49238 0.0
C40 C 0.85058 0.83428 0.26761 0.0
O41 O 0.8182 0.76641 0.54468 0.0
O42 O 0.78664 0.77371 0.63304 0.0
C43 C 0.8471 0.83821 0.7608 0.0
Fe44 Fe 0.22611 0.03303 0.5223 0.0
Fe45 Fe 0.26451 1.0122 0.62431 0.0
O46 O 0.25893 0.03376 0.523 0.0
Fe47 Fe 0.28618 0.05601 0.42278 0.0
O48 O 0.26419 0.03873 0.29559 0.0
O49 O 0.2265 0.03962 0.35897 0.0
O50 O 0.20701 0.99577 0.48793 0.0
C51 C 0.20718 0.97696 0.55231 0.0
C52 C 0.26244 0.08965 0.495 0.0
O53 O 0.22708 0.98335 0.62656 0.0
C54 C 0.31795 0.0632 0.61958 0.0
O55 O 0.21984 0.02647 0.6859 0.0
O56 O 0.25945 0.02968 0.74981 0.0
O57 O 0.27681 0.08416 0.42174 0.0
O58 O 0.24313 0.07023 0.55651 0.0
C59 C 0.2901 1.00583 0.42921 0.0
O60 O 0.30293 0.03699 0.64143 0.0
O61 O 0.31033 0.07487 0.54297 0.0
C62 C 0.23754 0.03115 0.76888 0.0
O63 O 0.27028 0.99364 0.50386 0.0
O64 O 0.3005 0.03193 0.40655 0.0
C65 C 0.24076 0.03704 0.27514 0.0
Fe66 Fe 1.0216 0.7903 0.41873 0.0
Fe67 Fe 0.04468 0.85028 0.5172 0.0
O68 O 0.04401 0.81756 0.51808 0.0
Fe69 Fe 0.06578 0.81211 0.61891 0.0
O70 O 0.08432 0.80632 0.49794 0.0
O71 O 0.04584 0.77619 0.4016 0.0
O72 O 0.03866 0.81221 0.29071 0.0
C73 C 0.0404 0.8356 0.27018 0.0
C74 C 1.01497 0.75852 0.61494 0.0
O75 O 0.03798 0.84989 0.35405 0.0
C76 C 0.04669 0.83891 0.76381 0.0
O77 O 0.99324 0.79949 0.41881 0.0
O78 O 1.00742 0.83324 0.55252 0.0
O79 O 0.04115 0.77384 0.63698 0.0
O80 O 1.00298 0.76612 0.53964 0.0
C81 C 0.10091 0.86945 0.54686 0.0
O82 O 0.05129 0.85654 0.68059 0.0
O83 O 0.04828 0.81711 0.74492 0.0
C84 C 0.98785 0.81374 0.49288 0.0
O85 O 0.08205 0.86946 0.48206 0.0
O86 O 0.09459 0.84947 0.62051 0.0
C87 C 0.07195 0.78639 0.42427 0.0
Fe88 Fe 0.22671 0.21618 0.53455 0.0
Fe89 Fe 0.26355 0.27632 0.63071 0.0
O90 O 0.25886 0.24883 0.53371 0.0
Fe91 Fe 0.28644 0.25429 0.43465 0.0
O92 O 0.26431 0.24922 0.3071 0.0
O93 O 0.22726 0.20998 0.37112 0.0
O94 O 0.20647 0.23308 0.49826 0.0
C95 C 0.20632 0.25253 0.55758 0.0
C96 C 0.26378 0.19701 0.50669 0.0
O97 O 0.22598 0.2669 0.63126 0.0
C98 C 0.31781 0.28022 0.62961 0.0
O99 O 0.22048 0.21681 0.69792 0.0
O100 O 0.25877 0.25496 0.76065 0.0
O101 O 0.27773 0.21699 0.43345 0.0
O102 O 0.24477 0.19703 0.57046 0.0
C103 C 0.28871 0.30743 0.43304 0.0
O104 O 0.30209 0.29082 0.64816 0.0
O105 O 0.31026 0.26002 0.55754 0.0
C106 C 0.23715 0.23143 0.78162 0.0
O107 O 0.26862 0.29952 0.50628 0.0
O108 O 0.30035 0.29263 0.41655 0.0
C109 C 0.24072 0.22755 0.28797 0.0
Fe110 Fe 0.80071 1.00915 0.64186 0.0
Fe111 Fe 0.86132 0.03343 0.54599 0.0
O112 O 0.82835 0.0323 0.54517 0.0
Fe113 Fe 0.82278 0.05427 0.44611 0.0
O114 O 0.81692 0.07214 0.56902 0.0
O115 O 0.78611 0.03307 0.66033 0.0
O116 O 0.82192 0.02548 0.77212 0.0
C117 C 0.84571 0.02797 0.79288 0.0
C118 C 0.76939 1.00337 0.44569 0.0
O119 O 0.86067 0.02647 0.70913 0.0
C120 C 0.84992 0.03586 0.29943 0.0
O121 O 0.81029 0.98112 0.64076 0.0
O122 O 0.84481 0.99641 0.50947 0.0
O123 O 0.78438 0.02976 0.42853 0.0
O124 O 0.77748 0.99115 0.51747 0.0
C125 C 0.87995 0.08947 0.51841 0.0
O126 O 0.86761 0.04036 0.38243 0.0
O127 O 0.82798 0.03731 0.31882 0.0
C128 C 0.82511 0.97642 0.56694 0.0
O129 O 0.8801 0.07059 0.58235 0.0
O130 O 0.8601 0.0831 0.44425 0.0
C131 C 0.79658 0.05935 0.64096 0.0
Fe132 Fe 0.68802 0.58719 0.77467 0.0
Fe133 Fe 0.73259 0.61051 0.97131 0.0
O134 O 0.71056 0.58269 0.8744 0.0
Fe135 Fe 0.71118 0.55066 0.87589 0.0
O136 O 0.67387 0.5305 0.91128 0.0
O137 O 0.66016 0.54942 0.77278 0.0
O138 O 0.66909 0.59185 0.89663 0.0
C139 C 0.681 0.61196 0.96949 0.0
C140 C 0.70912 0.56222 0.62967 0.0
O141 O 0.7075 0.62376 0.98756 0.0
C142 C 0.76764 0.58834 0.90101 0.0
O143 O 0.7116 0.62585 0.75684 0.0
O144 O 0.75053 0.63392 0.84725 0.0
O145 O 0.70485 0.54443 0.71204 0.0
O146 O 0.70603 0.58314 0.64888 0.0
C147 C 0.71567 0.5661 0.12297 0.0
O148 O 0.76164 0.60243 0.97311 0.0
O149 O 0.74849 0.56866 0.84059 0.0
C150 C 0.73806 0.64124 0.77329 0.0
O151 O 0.71615 0.58887 0.10042 0.0
O152 O 0.718 0.55157 0.03966 0.0
C153 C 0.65448 0.52996 0.84839 0.0
Fe154 Fe 0.48848 0.12369 0.76639 0.0
Fe155 Fe 0.46747 0.14652 0.96684 0.0
O156 O 0.4943 0.15126 0.86486 0.0
Fe157 Fe 0.527 0.18347 0.86342 0.0
O158 O 0.54641 0.16573 0.89857 0.0
O159 O 0.5258 0.13175 0.76629 0.0
O160 O 0.48244 0.09962 0.88869 0.0
C161 C 0.46247 0.09211 0.96209 0.0
C162 C 0.51648 0.1684 0.61616 0.0
O163 O 0.45221 0.10795 0.98299 0.0
C164 C 0.49069 0.20352 0.89207 0.0
O165 O 0.45006 0.11085 0.74883 0.0
O166 O 0.44324 0.14172 0.8479 0.0
O167 O 0.53325 0.1828 0.69988 0.0
O168 O 0.49406 0.14566 0.63819 0.0
C169 C 0.51388 0.17174 0.10959 0.0
O170 O 0.47747 0.18428 0.96949 0.0
O171 O 0.50952 0.20321 0.82811 0.0
C172 C 0.43506 0.12205 0.77279 0.0
O173 O 0.49001 0.15048 0.09068 0.0
O174 O 0.52691 0.18975 1.02726 0.0
C175 C 0.54581 0.14589 0.83933 0.0
Fe176 Fe 0.93024 0.34392 0.9596 0.0
Fe177 Fe 0.89176 0.36539 0.86439 0.0
O178 O 0.9246 0.36631 0.86363 0.0
Fe179 Fe 0.952 0.38952 0.76589 0.0
O180 O 0.9753 0.40773 0.88984 0.0
O181 O 0.96861 0.36896 0.97796 0.0
O182 O 0.92461 0.35959 0.09006 0.0
C183 C 0.90253 0.36064 0.11153 0.0
C184 C 0.95674 0.33985 0.76368 0.0
O185 O 0.88566 0.35827 1.02795 0.0
C186 C 0.90626 0.36902 0.61822 0.0
O187 O 0.89302 0.31482 0.95967 0.0
O188 O 0.87256 0.3283 0.82754 0.0
O189 O 0.96725 0.36619 0.74707 0.0
O190 O 0.93624 0.32678 0.8343 0.0
C191 C 0.92719 0.42216 0.83937 0.0
O192 O 0.89215 0.37225 0.70105 0.0
O193 O 0.9304 0.37229 0.63763 0.0
C194 C 0.87285 0.30904 0.88801 0.0
O195 O 0.90858 0.40231 0.90112 0.0
O196 O 0.94199 0.41736 0.76569 0.0
C197 C 0.98348 0.39545 0.96124 0.0
Fe198 Fe 0.73113 0.145 0.95679 0.0
Fe199 Fe 0.7096 0.18294 0.85645 0.0
O200 O 0.70902 0.15031 0.8575 0.0
Fe201 Fe 0.68621 0.12274 0.76062 0.0
O202 O 0.66805 0.09944 0.88499 0.0
O203 O 0.70676 0.10666 0.97482 0.0
O204 O 0.7139 0.14996 0.08395 0.0
C205 C 0.71211 0.17165 0.10307 0.0
C206 C 0.7367 0.11897 0.7629 0.0
O207 O 0.71635 0.18921 1.01985 0.0
C208 C 0.70484 0.16765 0.60966 0.0
O209 O 0.75978 0.18233 0.95804 0.0
O210 O 0.74692 0.20217 0.82041 0.0
O211 O 0.71038 0.10842 0.74317 0.0
O212 O 0.74933 0.13935 0.83421 0.0
C213 C 0.65264 0.14633 0.83404 0.0
O214 O 0.70279 0.18227 0.69321 0.0
O215 O 0.70277 0.1441 0.63065 0.0
C216 C 0.76594 0.2022 0.88416 0.0
O217 O 0.67234 0.16595 0.89271 0.0
O218 O 0.6579 0.13195 0.76038 0.0
C219 C 0.68034 0.09155 0.95742 0.0
Fe220 Fe 0.93199 0.61068 0.96716 0.0
Fe221 Fe 0.89286 0.55143 0.86831 0.0
O222 O 0.92585 0.58315 0.86746 0.0
Fe223 Fe 0.95274 0.58739 0.76684 0.0
O224 O 0.97663 0.59218 0.88791 0.0
O225 O 0.97032 0.62372 0.98259 0.0
O226 O 0.92654 0.58849 0.09467 0.0
C227 C 0.90406 0.56573 0.11555 0.0
C228 C 0.95735 0.64179 0.76999 0.0
O229 O 0.88682 0.55217 0.03184 0.0
C230 C 0.90662 0.56226 0.62185 0.0
O231 O 0.8948 0.6028 0.96943 0.0
O232 O 0.87422 0.56994 0.83309 0.0
O233 O 0.96777 0.62604 0.74859 0.0
O234 O 0.93796 0.63474 0.84599 0.0
C235 C 0.92789 0.5298 0.84061 0.0
O236 O 0.89285 0.54492 0.70509 0.0
O237 O 0.93066 0.58325 0.64058 0.0
C238 C 0.87476 0.58926 0.89594 0.0
O239 O 0.90947 0.53109 0.90347 0.0
O240 O 0.94259 0.54942 0.76638 0.0
C241 C 0.98503 0.61213 0.9617 0.0
Fe242 Fe 0.4675 0.3438 0.96447 0.0
Fe243 Fe 0.52778 0.36639 0.86838 0.0
O244 O 0.49541 0.36649 0.86767 0.0
Fe245 Fe 0.4907 0.3892 0.76933 0.0
O246 O 0.48499 0.40715 0.89277 0.0
O247 O 0.45362 0.36819 0.98253 0.0
O248 O 0.48891 0.35993 0.09464 0.0
C249 C 0.51234 0.36157 0.11545 0.0
C250 C 0.43651 0.33897 0.7683 0.0
O251 O 0.52687 0.35934 0.03167 0.0
C252 C 0.51698 0.36984 0.62179 0.0
O253 O 0.4762 0.31522 0.96484 0.0
O254 O 0.51024 0.32925 0.83197 0.0
O255 O 0.45228 0.36526 0.75039 0.0
O256 O 0.44407 0.32618 0.83976 0.0
C257 C 0.54785 0.42297 0.84394 0.0
O258 O 0.53429 0.3733 0.70499 0.0
O259 O 0.49563 0.37232 0.64112 0.0
C260 C 0.49061 0.3098 0.89195 0.0
O261 O 0.54754 0.40348 0.90494 0.0
O262 O 0.52831 0.41752 0.7692 0.0
C263 C 0.46438 0.39447 0.96361 0.0
Fe264 Fe 0.37702 0.88252 0.20644 0.0
Fe265 Fe 0.3542 0.91951 0.1067 0.0
O266 O 0.377 0.91489 0.20468 0.0
Fe267 Fe 0.3998 0.9429 0.29942 0.0
O268 O 0.384 0.92173 0.43028 0.0
O269 O 0.38411 0.88348 0.36998 0.0
O270 O 0.33976 0.86286 0.24344 0.0
C271 C 0.3204 0.8625 0.18111 0.0
C272 C 0.43383 0.91953 0.22821 0.0
O273 O 0.32611 0.88197 0.10581 0.0
C274 C 0.40421 0.97372 0.10334 0.0
O275 O 0.37035 0.87623 0.04267 0.0
O276 O 0.37157 0.915 0.97964 0.0
O277 O 0.42855 0.93446 0.29848 0.0
O278 O 0.41423 0.89979 0.16976 0.0
C279 C 0.34865 0.94538 0.30087 0.0
O280 O 0.37783 0.95792 0.08744 0.0
O281 O 0.41721 0.96619 0.17373 0.0
C282 C 0.37449 0.89398 0.9602 0.0
O283 O 0.33595 0.92484 0.2303 0.0
O284 O 0.37509 0.95642 0.3183 0.0
C285 C 0.38275 0.89862 0.45314 0.0
Fe286 Fe 0.15559 0.45688 0.1016 0.0
Fe287 Fe 0.13335 0.4789 0.29953 0.0
O288 O 0.1609 0.48403 0.2017 0.0
Fe289 Fe 0.19357 0.51618 0.20231 0.0
O290 O 0.21276 0.49813 0.23792 0.0
O291 O 0.19318 0.46611 0.09784 0.0
O292 O 0.15058 0.43315 0.2233 0.0
C293 C 0.13074 0.42536 0.29794 0.0
C294 C 0.18157 0.50285 0.95644 0.0
O295 O 0.11941 0.44043 0.31714 0.0
C296 C 0.1567 0.53596 0.22519 0.0
O297 O 0.11695 0.44235 0.08589 0.0
O298 O 0.10981 0.47366 0.17651 0.0
O299 O 0.19969 0.51579 0.03836 0.0
O300 O 0.16 0.47921 0.97613 0.0
C301 C 0.17816 0.50584 0.44978 0.0
O302 O 0.14236 0.51632 0.29944 0.0
O303 O 0.17648 0.53617 0.16654 0.0
C304 C 0.10188 0.45367 0.10354 0.0
O305 O 0.155 0.48387 0.42811 0.0
O306 O 0.19294 0.52244 0.36585 0.0
C307 C 0.21269 0.4792 0.17391 0.0
Fe308 Fe 0.61881 0.72155 0.09964 0.0
Fe309 Fe 0.55866 0.69946 0.19661 0.0
O310 O 0.59104 0.69937 0.19759 0.0
Fe311 Fe 0.59582 0.6771 0.2977 0.0
O312 O 0.60076 0.65837 0.17586 0.0
O313 O 0.6323 0.69673 0.08258 0.0
O314 O 0.59716 0.7052 0.97045 0.0
C315 C 0.5738 0.7037 0.94971 0.0
C316 C 0.65021 0.72693 0.29454 0.0
O317 O 0.55942 0.70621 0.0333 0.0
C318 C 0.56991 0.697 0.44327 0.0
O319 O 0.61033 0.75025 0.09885 0.0
O320 O 0.57627 0.73666 0.23146 0.0
O321 O 0.6344 0.70073 0.31415 0.0
O322 O 0.64248 0.7395 0.22293 0.0
C323 C 0.53858 0.64315 0.22518 0.0
O324 O 0.55233 0.69288 0.36028 0.0
O325 O 0.59144 0.69484 0.42406 0.0
C326 C 0.59591 0.75594 0.17073 0.0
O327 O 0.53891 0.66227 0.16134 0.0
O328 O 0.55816 0.64908 0.30027 0.0
C329 C 0.62085 0.67037 0.10223 0.0
Fe330 Fe 0.35308 0.45643 0.08603 0.0
Fe331 Fe 0.37628 0.51651 0.18293 0.0
O332 O 0.37567 0.48388 0.18382 0.0
Fe333 Fe 0.39755 0.47846 0.28397 0.0
O334 O 0.41611 0.4731 0.16204 0.0
O335 O 0.37738 0.44229 0.0691 0.0
O336 O 0.36986 0.47798 0.95676 0.0
C337 C 0.37183 0.50149 0.93599 0.0
C338 C 0.34681 0.42498 0.28263 0.0
O339 O 0.36964 0.51599 1.01964 0.0
C340 C 0.37827 0.50496 0.42952 0.0
O341 O 0.32475 0.46559 0.08524 0.0
O342 O 0.33903 0.49946 0.21833 0.0
O343 O 0.3732 0.44007 0.30081 0.0
O344 O 0.33468 0.43291 0.20954 0.0
C345 C 0.43246 0.53578 0.21309 0.0
O346 O 0.38282 0.52264 0.34647 0.0
O347 O 0.37995 0.4832 0.41042 0.0
C348 C 0.31944 0.47985 0.15929 0.0
O349 O 0.41364 0.53574 0.14785 0.0
O350 O 0.42611 0.51582 0.28669 0.0
C351 C 0.4037 0.45301 0.08921 0.0
Fe352 Fe 0.5603 0.88275 0.19823 0.0
Fe353 Fe 0.59782 0.94218 0.29876 0.0
O354 O 0.59276 0.91505 0.1989 0.0
Fe355 Fe 0.62038 0.92041 0.10072 0.0
O356 O 0.59874 0.91545 0.97169 0.0
O357 O 0.56103 0.87673 0.03484 0.0
O358 O 0.54079 0.90043 0.16279 0.0
C359 C 0.54059 0.9193 0.22629 0.0
C360 C 0.59712 0.86307 0.1723 0.0
O361 O 0.56026 0.93289 0.30107 0.0
C362 C 0.65151 0.94541 0.29786 0.0
O363 O 0.554 0.88302 0.36188 0.0
O364 O 0.59323 0.92001 0.42544 0.0
O365 O 0.61152 0.88308 0.09977 0.0
O366 O 0.5777 0.86297 0.23353 0.0
C367 C 0.62276 0.97372 0.1023 0.0
O368 O 0.6364 0.95669 0.31538 0.0
O369 O 0.64384 0.92561 0.22399 0.0
C370 C 0.57163 0.89638 0.44474 0.0
O371 O 0.60289 0.96586 0.17673 0.0
O372 O 0.63427 0.95883 0.08374 0.0
C373 C 0.57541 0.89358 0.95097 0.0
Fe374 Fe 0.13501 0.67666 0.29417 0.0
Fe375 Fe 0.19469 0.69887 0.19393 0.0
O376 O 0.16238 0.69903 0.19479 0.0
Fe377 Fe 0.15722 0.72153 0.09735 0.0
O378 O 0.1515 0.73932 0.22125 0.0
O379 O 0.12035 0.70042 0.311 0.0
O380 O 0.15705 0.6941 0.42131 0.0
C381 C 0.18072 0.69619 0.44054 0.0
C382 C 0.10367 0.67041 0.0977 0.0
O383 O 0.19414 0.692 0.35752 0.0
C384 C 0.18433 0.70373 0.94689 0.0
O385 O 0.14432 0.64851 0.2962 0.0
O386 O 0.17688 0.66176 0.15731 0.0
O387 O 0.11878 0.69682 0.07923 0.0
O388 O 0.11144 0.65823 0.1715 0.0
C389 C 0.2144 0.75548 0.17133 0.0
O390 O 0.20104 0.70595 1.03076 0.0
O391 O 0.16253 0.70532 0.96761 0.0
C392 C 0.15766 0.64255 0.21965 0.0
O393 O 0.21455 0.73594 0.23023 0.0
O394 O 0.19467 0.75016 0.09777 0.0
C395 C 0.13109 0.72669 0.29265 0.0
C396 C 0.08716 0.3808 0.35897 0.0
C397 C 0.11661 0.39571 0.34011 0.0
C398 C 0.07281 0.35192 0.38652 0.0
C399 C 0.08741 0.33693 0.39828 0.0
H400 H 0.07495 0.39134 0.34967 0.0
H401 H 0.05017 0.34142 0.40118 0.0
S402 S 0.16462 0.36617 0.35942 0.0
N403 N 0.15988 0.39329 0.33527 0.0
N404 N 0.13295 0.33914 0.38943 0.0
C405 C 0.11687 0.35162 0.38074 0.0
C406 C 0.13144 0.38094 0.35109 0.0
C407 C 0.72455 0.78548 0.36937 0.0
C408 C 0.73955 0.77096 0.38341 0.0
C409 C 0.69555 0.77103 0.34268 0.0
C410 C 0.68027 0.74145 0.33205 0.0
H411 H 0.73534 0.80822 0.37865 0.0
H412 H 0.68499 0.78315 0.33067 0.0
S413 S 0.7095 0.69339 0.36315 0.0
N414 N 0.73686 0.72521 0.38537 0.0
N415 N 0.68239 0.6981 0.33775 0.0
C416 C 0.69496 0.72662 0.34722 0.0
C417 C 0.72458 0.74137 0.37197 0.0
C418 C 0.29062 0.96123 0.38504 0.0
C419 C 0.30506 0.99093 0.38928 0.0
C420 C 0.30487 0.94656 0.35764 0.0
C421 C 0.33423 0.96101 0.33704 0.0
H422 H 0.26811 0.9492 0.40299 0.0
H423 H 0.29287 0.92373 0.35362 0.0
S424 S 0.38191 0.03877 0.33637 0.0
N425 N 0.35034 0.03423 0.36727 0.0
N426 N 0.37723 1.00675 0.3209 0.0
C427 C 0.34894 0.9907 0.34133 0.0
C428 C 0.33432 1.00562 0.36584 0.0
C429 C 0.36961 0.08693 0.57738 0.0
C430 C 0.34749 0.07865 0.66075 0.0
C431 C 0.398 0.10075 0.61397 0.0
C432 C 0.40518 0.10789 0.73443 0.0
H433 H 0.36487 0.08239 0.48334 0.0
H434 H 0.41442 0.10625 0.54757 0.0
S435 S 0.35499 0.09209 0.98641 0.0
N436 N 0.33448 0.07855 0.86804 0.0
N437 N 0.38784 0.10631 0.93675 0.0
C438 C 0.3832 0.10043 0.81813 0.0
C439 C 0.35432 0.08536 0.78131 0.0
C440 C 0.95764 0.29599 0.7102 0.0
C441 C 0.97226 0.32549 0.72445 0.0
C442 C 0.97203 0.28145 0.68355 0.0
C443 C 1.00169 0.29575 0.67287 0.0
H444 H 0.93483 0.284 0.7197 0.0
H445 H 0.95981 0.25879 0.6717 0.0
S446 S 0.05003 0.37304 0.70313 0.0
N447 N 1.01815 0.36855 0.7257 0.0
N448 N 0.04523 0.34125 0.6779 0.0
C449 C 1.01663 0.32527 0.68769 0.0
C450 C 1.00191 0.34013 0.71255 0.0
C451 C 0.7538 0.71439 0.67902 0.0
C452 C 0.78326 0.72887 0.6596 0.0
C453 C 0.73913 0.68573 0.71106 0.0
C454 C 0.75343 0.67057 0.72693 0.0
H455 H 0.74183 0.72512 0.66737 0.0
H456 H 0.71653 0.6756 0.72634 0.0
S457 S 0.83042 0.69852 0.68657 0.0
N458 N 0.8261 0.72569 0.65725 0.0
N459 N 0.79864 0.67205 0.71972 0.0
C460 C 0.78285 0.68477 0.70788 0.0
C461 C 0.79772 0.71383 0.67366 0.0
C462 C 0.98633 0.7069 0.57333 0.0
C463 C 0.99995 0.72899 0.65664 0.0
C464 C 0.97312 0.67852 0.60961 0.0
C465 C 0.97244 0.67147 0.73069 0.0
H466 H 0.98636 0.7116 0.47914 0.0
H467 H 0.963 0.66206 0.54313 0.0
S468 S 1.00448 0.72139 0.98358 0.0
N469 N 1.01228 0.74189 0.86447 0.0
N470 N 0.98607 0.68865 0.93393 0.0
C471 C 0.98566 0.69336 0.8148 0.0
C472 C 0.99982 0.72214 0.77742 0.0
C473 C 0.36244 0.28076 0.68644 0.0
C474 C 0.34768 0.29546 0.66971 0.0
C475 C 0.39126 0.29501 0.71661 0.0
C476 C 0.40662 0.32458 0.72805 0.0
H477 H 0.35158 0.25803 0.67669 0.0
H478 H 0.40162 0.28277 0.73054 0.0
S479 S 0.37802 0.37304 0.68977 0.0
N480 N 0.35068 0.34131 0.66585 0.0
N481 N 0.40484 0.36811 0.71916 0.0
C482 C 0.39218 0.33957 0.70986 0.0
C483 C 0.36272 0.32501 0.68186 0.0
C484 C 0.78094 0.11781 0.71605 0.0
C485 C 0.75127 0.10342 0.72653 0.0
C486 C 0.79547 0.10332 0.69095 0.0
C487 C 0.78097 0.07378 0.67835 0.0
H488 H 0.79306 0.14051 0.72691 0.0
H489 H 0.81827 0.11536 0.68151 0.0
S490 S 0.70322 0.02601 0.69945 0.0
N491 N 0.70786 0.05782 0.72265 0.0
N492 N 0.73517 0.03059 0.67804 0.0
C493 C 0.75131 0.05906 0.68992 0.0
C494 C 0.73646 0.07387 0.71304 0.0
C495 C 0.69623 0.98884 0.35699 0.0
C496 C 0.68102 0.95939 0.34181 0.0
C497 C 0.72503 1.00296 0.38668 0.0
C498 C 0.73962 0.98812 0.40439 0.0
H499 H 0.68601 1.00122 0.34302 0.0
H500 H 0.73578 0.02565 0.39801 0.0
S501 S 0.70923 0.91069 0.37827 0.0
N502 N 0.68255 0.91579 0.34765 0.0
N503 N 0.73655 0.94225 0.40591 0.0
C504 C 0.72456 0.95861 0.39097 0.0
C505 C 0.69532 0.94428 0.35907 0.0
C506 C 0.11622 0.78517 0.3777 0.0
C507 C 0.08651 0.771 0.38572 0.0
C508 C 0.13054 0.77063 0.34935 0.0
C509 C 0.11575 0.74125 0.33119 0.0
H510 H 0.12852 0.80771 0.39292 0.0
H511 H 0.1534 0.78245 0.34216 0.0
S512 S 0.03779 0.69413 0.34335 0.0
N513 N 0.04276 0.72582 0.37287 0.0
N514 N 0.06967 0.6985 0.32283 0.0
C515 C 0.08605 0.72677 0.34016 0.0
C516 C 0.07144 0.74165 0.36632 0.0
C517 C 0.34643 0.38093 0.34519 0.0
C518 C 0.33148 0.39532 0.32499 0.0
C519 C 0.3323 0.35222 0.37546 0.0
C520 C 0.30271 0.3369 0.38914 0.0
H521 H 0.36923 0.39176 0.3352 0.0
H522 H 0.34477 0.34215 0.39098 0.0
S523 S 0.2537 0.36463 0.34699 0.0
N524 N 0.28537 0.39198 0.32001 0.0
N525 N 0.25888 0.33815 0.37987 0.0
C526 C 0.2875 0.35102 0.36988 0.0
C527 C 0.30185 0.38017 0.33711 0.0
C528 C 0.02807 0.39597 1.01797 0.0
C529 C 1.01336 0.41076 1.0016 0.0
C530 C 0.05697 0.41014 0.04617 0.0
C531 C 0.07221 0.43961 0.06113 0.0
H532 H 1.01732 0.37329 1.00665 0.0
H533 H 0.06726 0.39779 0.0591 0.0
S534 S 0.04373 0.48819 1.02791 0.0
N535 N 1.01637 0.45659 1.00116 0.0
N536 N 0.07054 0.48315 0.05665 0.0
C537 C 0.05779 0.45465 0.04527 0.0
C538 C 0.02844 0.44027 1.01488 0.0
C539 C 0.67964 0.65555 1.0227 0.0
C540 C 0.66529 0.62604 1.00919 0.0
C541 C 0.66493 0.6698 0.04818 0.0
C542 C 0.63536 0.65504 0.06318 0.0
H543 H 0.70237 0.66787 1.01082 0.0
H544 H 0.67696 0.69251 0.05879 0.0
S545 S 0.58792 0.5776 0.03886 0.0
N546 N 0.61985 0.58252 1.01277 0.0
N547 N 0.59226 0.60927 0.0634 0.0
C548 C 0.62078 0.62552 0.051 0.0
C549 C 0.63572 0.61104 1.02332 0.0
C550 C 0.4624 0.04837 1.02793 0.0
C551 C 0.44729 0.06231 1.00218 0.0
C552 C 0.44832 0.01963 0.05872 0.0
C553 C 0.41856 1.00353 0.06173 0.0
H554 H 0.48532 0.05983 1.02504 0.0
H555 H 0.46089 1.00995 0.08004 0.0
S556 S 0.36918 0.02989 0.99438 0.0
N557 N 0.40098 0.05779 0.97843 0.0
N558 N 0.37446 1.00377 0.03258 0.0
C559 C 0.4032 0.01717 0.03343 0.0
C560 C 0.41757 0.04655 1.00493 0.0
C561 C 0.68015 0.04722 1.01246 0.0
C562 C 0.66524 0.06184 0.99844 0.0
C563 C 0.66608 0.01842 0.04121 0.0
C564 C 0.63662 1.00325 0.05914 0.0
H565 H 0.70284 0.05794 0.99883 0.0
H566 H 0.67852 1.00816 0.05224 0.0
S567 S 0.58782 0.03173 0.03361 0.0
N568 N 0.61937 0.05897 1.00377 0.0
N569 N 0.59296 1.00496 0.06048 0.0
C570 C 0.62146 0.01763 0.0458 0.0
C571 C 0.63574 0.04687 1.01478 0.0
C572 C 0.05902 0.66981 0.04408 0.0
C573 C 0.0739 0.65515 0.05697 0.0
C574 C 0.03004 0.65553 1.01812 0.0
C575 C 1.01491 0.62611 1.00122 0.0
H576 H 0.06965 0.69244 0.05708 0.0
H577 H 1.0196 0.66779 1.00888 0.0
S578 S 0.04412 0.57796 1.02347 0.0
N579 N 0.07138 0.60956 0.05138 0.0
N580 N 1.01703 0.5828 0.99878 0.0
C581 C 0.02959 0.61122 1.01267 0.0
C582 C 0.05902 0.62571 0.04141 0.0
C583 C 0.44802 0.45267 0.03534 0.0
C584 C 0.41849 0.43784 0.05145 0.0
C585 C 0.46278 0.43848 1.00875 0.0
C586 C 0.44868 0.40886 1.00052 0.0
H587 H 0.45981 0.47545 0.04299 0.0
H588 H 0.48545 0.45081 0.99511 0.0
S589 S 0.37142 0.36009 0.03856 0.0
N590 N 0.37564 0.39184 0.05805 0.0
N591 N 0.40334 0.36514 1.01152 0.0
C592 C 0.41915 0.39374 1.01799 0.0
C593 C 0.40406 0.40824 0.04227 0.0
C594 C 0.14719 0.26631 0.65086 0.0
C595 C 0.12836 0.25562 0.55353 0.0
C596 C 0.17297 0.26635 0.64995 0.0
C597 C 0.18086 0.25571 0.55168 0.0
H598 H 0.14149 0.27365 0.73033 0.0
H599 H 0.18624 0.27372 0.72877 0.0
S600 S 0.14131 0.22982 0.26661 0.0
N601 N 0.12106 0.23726 0.35073 0.0
N602 N 0.16927 0.23736 0.34902 0.0
C603 C 0.16299 0.24656 0.45113 0.0
C604 C 0.13684 0.24651 0.45206 0.0
C605 C 0.811 0.92823 0.6504 0.0
C606 C 0.82161 0.94776 0.55528 0.0
C607 C 0.81073 0.90239 0.64426 0.0
C608 C 0.82103 0.89509 0.54271 0.0
H609 H 0.80388 0.9334 0.73199 0.0
H610 H 0.80342 0.88856 0.7215 0.0
S611 S 0.84674 0.93697 0.26248 0.0
N612 N 0.83958 0.95654 0.35161 0.0
N613 N 0.83913 0.90833 0.33998 0.0
C614 C 0.83016 0.91379 0.44467 0.0
C615 C 0.83043 0.93998 0.45097 0.0
C616 C 0.13784 0.91411 0.45002 0.0
C617 C 0.1296 0.89513 0.5469 0.0
C618 C 0.16332 0.93992 0.45145 0.0
C619 C 0.18185 0.94806 0.54984 0.0
H620 H 0.12422 0.90926 0.37276 0.0
H621 H 0.16826 0.95385 0.37516 0.0
S622 S 0.17073 0.90584 0.82567 0.0
N623 N 0.14254 0.88603 0.74334 0.0
N624 N 0.19045 0.93458 0.746 0.0
C625 C 0.1744 0.92893 0.64594 0.0
C626 C 0.14832 0.90251 0.64448 0.0
C627 C 0.25199 0.15021 0.59383 0.0
C628 C 0.26657 0.17125 0.50685 0.0
C629 C 0.25158 0.12445 0.5907 0.0
C630 C 0.26574 0.11837 0.50046 0.0
H631 H 0.24021 0.15335 0.66426 0.0
H632 H 0.23955 0.10895 0.65902 0.0
S633 S 0.30881 0.16693 0.25556 0.0
N634 N 0.29693 0.1848 0.33088 0.0
N635 N 0.29616 0.13632 0.32509 0.0
C636 C 0.2814 0.13961 0.41542 0.0
C637 C 0.28182 0.166 0.41859 0.0
C638 C 0.92503 0.12591 0.61367 0.0
C639 C 0.90534 0.11832 0.51994 0.0
C640 C 0.95055 0.15166 0.61293 0.0
C641 C 0.95768 0.17113 0.51843 0.0
H642 H 0.92101 0.11158 0.6877 0.0
H643 H 0.96508 0.15604 0.68645 0.0
S644 S 0.91295 0.16226 0.2536 0.0
N645 N 0.89424 0.13304 0.33186 0.0
N646 N 0.94226 0.18148 0.33052 0.0
C647 C 0.93774 0.16437 0.42615 0.0
C648 C 0.91161 0.13801 0.42689 0.0
C649 C 0.94031 0.79949 0.40204 0.0
C650 C 0.95907 0.81033 0.4996 0.0
C651 C 0.91447 0.79938 0.40205 0.0
C652 C 0.90645 0.81012 0.4996 0.0
H653 H 0.94611 0.7921 0.32304 0.0
H654 H 0.90128 0.79193 0.32305 0.0
S655 S 0.94577 0.83642 0.785 0.0
N656 N 0.96612 0.82889 0.70203 0.0
N657 N 0.91785 0.82871 0.70193 0.0
C658 C 0.92425 0.8194 0.60042 0.0
C659 C 0.95044 0.8195 0.60045 0.0
C660 C 0.8294 0.57987 0.80197 0.0
C661 C 0.84946 0.59282 0.89382 0.0
C662 C 0.80364 0.57956 0.80334 0.0
C663 C 0.79664 0.59223 0.89652 0.0
H664 H 0.83325 0.56917 0.72921 0.0
H665 H 0.78881 0.56867 0.73158 0.0
S666 S 0.84266 0.63117 0.15381 0.0
N667 N 0.8613 0.62036 0.07705 0.0
N668 N 0.81278 0.61985 0.0795 0.0
C669 C 0.81704 0.60656 0.98605 0.0
C670 C 0.84343 0.60684 0.98473 0.0
C671 C 0.47833 0.26336 0.98822 0.0
C672 C 0.48716 0.28112 0.88695 0.0
C673 C 0.4784 0.23766 0.98825 0.0
C674 C 0.48725 0.22881 0.88694 0.0
H675 H 0.47246 0.26988 0.06961 0.0
H676 H 0.47258 0.22526 0.0697 0.0
S677 S 0.50755 0.26542 0.59311 0.0
N678 N 0.50172 0.28644 0.67897 0.0
N679 N 0.50166 0.23835 0.67827 0.0
C680 C 0.49444 0.24563 0.78314 0.0
C681 C 0.49445 0.2717 0.78335 0.0
C682 C 0.80205 0.24769 0.78999 0.0
C683 C 0.79474 0.22774 0.88257 0.0
C684 C 0.82772 0.2733 0.79088 0.0
C685 C 0.84739 0.28026 0.88435 0.0
H686 H 0.78757 0.24381 0.71679 0.0
H687 H 0.83187 0.28802 0.71833 0.0
S688 S 0.83932 0.23489 0.14586 0.0
N689 N 0.80997 0.21627 0.06841 0.0
N690 N 0.85825 0.26444 0.06996 0.0
C691 C 0.84093 0.26009 0.97539 0.0
C692 C 0.81464 0.23388 0.97455 0.0
C693 C 0.94664 0.49839 0.76643 0.0
C694 C 0.92946 0.50326 0.84586 0.0
C695 C 0.94646 0.47249 0.76618 0.0
C696 C 0.92906 0.45039 0.84527 0.0
H697 H 0.95993 0.51445 0.70228 0.0
H698 H 0.95963 0.46961 0.70184 0.0
S699 S 0.88075 0.45265 0.07431 0.0
N700 N 0.89522 0.48374 1.00862 0.0
N701 N 0.89483 0.43577 1.00783 0.0
C702 C 0.91235 0.45536 0.92697 0.0
C703 C 0.91256 0.48153 0.92735 0.0
C704 C 0.58168 0.47042 0.75263 0.0
C705 C 0.57329 0.45169 0.85061 0.0
C706 C 0.60746 0.49624 0.75381 0.0
C707 C 0.6258 0.5043 0.853 0.0
H708 H 0.5688 0.46464 0.67266 0.0
H709 H 0.61351 0.50945 0.67467 0.0
S710 S 0.61138 0.46476 0.13892 0.0
N711 N 0.5839 0.44454 0.05419 0.0
N712 N 0.63201 0.4927 0.05665 0.0
C713 C 0.61681 0.48642 0.95379 0.0
C714 C 0.59069 0.46026 0.95252 0.0
C715 C 0.60499 0.13219 0.74439 0.0
C716 C 0.6238 0.14274 0.84193 0.0
C717 C 0.57907 0.13195 0.74578 0.0
C718 C 0.57102 0.14222 0.84484 0.0
H719 H 0.61083 0.12518 0.66435 0.0
H720 H 0.56589 0.12484 0.6667 0.0
S721 S 0.61045 0.16749 0.13067 0.0
N722 N 0.63086 0.16046 0.0457 0.0
N723 N 0.58244 0.15995 0.04852 0.0
C724 C 0.58885 0.15112 0.94567 0.0
C725 C 0.61513 0.1514 0.94416 0.0
C726 C 0.49393 0.90746 0.13711 0.0
C727 C 0.51502 0.92245 0.22321 0.0
C728 C 0.46835 0.90753 0.13751 0.0
C729 C 0.46253 0.92262 0.22389 0.0
H730 H 0.49685 0.89496 0.06968 0.0
H731 H 0.45275 0.89508 0.07041 0.0
S732 S 0.51151 0.96741 0.46348 0.0
N733 N 0.52905 0.95442 0.39307 0.0
N734 N 0.48088 0.95455 0.39381 0.0
C735 C 0.48389 0.9388 0.30749 0.0
C736 C 0.51009 0.93871 0.30715 0.0
C737 C 0.14361 0.59557 0.31429 0.0
C738 C 0.15388 0.61374 0.21448 0.0
C739 C 0.14327 0.5697 0.31561 0.0
C740 C 0.1532 0.56112 0.21717 0.0
H741 H 0.1369 0.60187 0.39393 0.0
H742 H 0.13638 0.557 0.39623 0.0
S743 S 0.17755 0.59867 0.92648 0.0
N744 N 0.17087 0.61957 1.00942 0.0
N745 N 0.17022 0.57121 1.01184 0.0
C746 C 0.16178 0.57826 0.11418 0.0
C747 C 0.16213 0.60449 0.11286 0.0
C748 C 0.49462 0.60682 0.12275 0.0
C749 C 0.51314 0.61442 0.22096 0.0
C750 C 0.46919 0.581 0.11961 0.0
C751 C 0.46103 0.56152 0.21453 0.0
H752 H 0.49955 0.62115 0.04796 0.0
H753 H 0.45556 0.57654 0.04263 0.0
S754 S 0.50226 0.57069 0.49166 0.0
N755 N 0.52187 0.5999 0.41455 0.0
N756 N 0.47405 0.55133 0.40872 0.0
C757 C 0.47975 0.56838 0.31181 0.0
C758 C 0.50577 0.59479 0.31501 0.0
C759 C 0.58537 0.79117 0.26378 0.0
C760 C 0.59945 0.78474 0.17454 0.0
C761 C 0.58572 0.8169 0.26431 0.0
C762 C 0.60015 0.83751 0.17557 0.0
H763 H 0.57339 0.77596 0.33309 0.0
H764 H 0.57398 0.82033 0.33397 0.0
S765 S 0.64242 0.83228 0.92677 0.0
N766 N 0.62981 0.80197 0.99868 0.0
N767 N 0.63055 0.85043 0.99996 0.0
C768 C 0.61548 0.83199 0.08875 0.0
C769 C 0.6151 0.80563 0.08814 0.0
C770 C 0.27395 0.82874 0.08356 0.0
C771 C 0.29175 0.83692 0.1846 0.0
C772 C 0.24828 0.80287 0.08101 0.0
C773 C 0.23952 0.78426 0.17936 0.0
H774 H 0.2804 0.84184 1.00407 0.0
H775 H 0.23584 0.79694 0.99975 0.0
S776 S 0.27595 0.79779 0.47194 0.0
N777 N 0.29695 0.82571 0.39019 0.0
N778 N 0.24905 0.77733 0.38495 0.0
C779 C 0.25632 0.79297 0.28299 0.0
C780 C 0.28232 0.81921 0.28573 0.0
C781 C 0.2723 0.46721 0.06893 0.0
C782 C 0.29061 0.47607 0.16814 0.0
C783 C 0.24645 0.46706 0.07268 0.0
C784 C 0.23803 0.47575 0.1758 0.0
H785 H 0.2785 0.46152 0.98621 0.0
H786 H 0.23361 0.46127 0.9926 0.0
S787 S 0.27615 0.49594 0.46572 0.0
N788 N 0.29687 0.49029 0.37662 0.0
N789 N 0.24856 0.49001 0.38395 0.0
C790 C 0.25539 0.48292 0.27769 0.0
C791 C 0.28158 0.48308 0.27378 0.0
C792 C 1.02257 0.20195 0.0982 0.0
C793 C 0.04491 0.22201 0.16906 0.0
C794 C 1.02449 0.20308 0.97221 0.0
C795 C 0.0488 0.22428 0.91434 0.0
H796 H 1.00274 0.18685 0.13978 0.0
H797 H 1.00612 0.18879 0.92014 0.0
S798 S 0.11403 0.27952 0.06046 0.0
N799 N 0.0927 0.26195 0.17265 0.0
N800 N 0.09646 0.26388 0.93742 0.0
C801 C 0.07193 0.24296 0.98484 0.0
C802 C 0.06993 0.24188 0.11199 0.0
C803 C 0.85619 0.81783 0.06954 0.0
C804 C 0.85865 0.84022 0.13992 0.0
C805 C 0.85555 0.81882 0.94484 0.0
C806 C 0.85744 0.84229 0.88518 0.0
H807 H 0.85276 0.79849 0.11152 0.0
H808 H 0.85147 0.8002 0.89491 0.0
S809 S 0.8687 0.90822 1.02628 0.0
N810 N 0.8666 0.88801 0.14052 0.0
N811 N 0.8653 0.88983 0.90413 0.0
C812 C 0.86271 0.86597 0.9533 0.0
C813 C 0.86335 0.86495 0.08147 0.0
C814 C 0.25419 0.06072 0.0785 0.0
C815 C 0.23397 0.03829 0.14845 0.0
C816 C 0.25334 0.05938 0.95355 0.0
C817 C 0.23215 0.03564 0.89382 0.0
H818 H 0.27197 0.0786 0.12088 0.0
H819 H 0.27055 0.07618 0.90339 0.0
S820 S 0.17321 0.97216 0.03553 0.0
N821 N 0.19118 0.99243 0.14951 0.0
N822 N 0.18947 0.98992 0.91321 0.0
C823 C 0.2106 1.01394 0.96221 0.0
C824 C 0.21154 1.01527 0.0902 0.0
C825 C 1.01819 0.82337 0.94863 0.0
C826 C 0.04219 0.8443 0.88873 0.0
C827 C 1.01674 0.82252 0.07363 0.0
C828 C 0.03929 0.84249 0.14342 0.0
H829 H 1.00126 0.80634 0.8986 0.0
H830 H 0.99866 0.8049 0.11621 0.0
S831 S 0.10605 0.90262 1.02983 0.0
N832 N 0.08825 0.88654 0.90769 0.0
N833 N 0.08554 0.88483 0.14399 0.0
C834 C 0.06257 0.86471 0.0849 0.0
C835 C 0.06402 0.86564 0.9569 0.0
C836 C 0.23284 0.20233 0.09283 0.0
C837 C 0.23064 0.22245 0.16325 0.0
C838 C 0.23213 0.20337 0.96684 0.0
C839 C 0.22915 0.22454 0.9086 0.0
H840 H 0.23748 0.18725 0.13476 0.0
H841 H 0.23616 0.18904 0.91508 0.0
S842 S 0.2193 0.27986 0.05356 0.0
N843 N 0.22292 0.26236 0.16612 0.0
N844 N 0.22124 0.26415 0.93082 0.0
C845 C 0.22474 0.24326 0.97867 0.0
C846 C 0.22558 0.24227 0.10582 0.0
C847 C 0.83424 1.0069 0.1165 0.0
C848 C 0.85517 0.03114 0.1745 0.0
C849 C 0.83312 1.00507 0.99159 0.0
C850 C 0.85284 0.02744 0.91988 0.0
H851 H 0.81741 0.99005 0.16798 0.0
H852 H 0.81551 0.98678 0.95058 0.0
S853 S 0.91295 0.09471 1.02804 0.0
N854 N 0.89716 0.07727 0.15163 0.0
N855 N 0.89502 0.07379 0.91558 0.0
C856 C 0.8751 0.05096 0.97651 0.0
C857 C 0.87626 0.05283 0.10444 0.0
C858 C 0.73762 0.58372 0.3202 0.0
C859 C 0.71845 0.56066 0.25054 0.0
C860 C 0.73628 0.5827 0.44486 0.0
C861 C 0.71575 0.55856 0.50527 0.0
H862 H 0.75261 0.60348 0.27778 0.0
H863 H 0.75008 0.60175 0.49425 0.0
S864 S 0.66408 0.49078 0.36595 0.0
N865 N 0.68098 0.51157 0.2511 0.0
N866 N 0.67834 0.50973 0.48764 0.0
C867 C 0.69837 0.53432 0.43777 0.0
C868 C 0.69975 0.53535 0.30954 0.0
C869 C 0.52148 0.151 0.41951 0.0
C870 C 0.52493 0.17393 0.48876 0.0
C871 C 0.52114 0.15188 0.29479 0.0
C872 C 0.52428 0.17574 0.23393 0.0
H873 H 0.51699 0.1314 0.4623 0.0
H874 H 0.51623 0.1329 0.24574 0.0
S875 S 0.53922 0.24321 0.37209 0.0
N876 N 0.53569 0.22269 0.48731 0.0
N877 N 0.53487 0.22427 0.25074 0.0
C878 C 0.53075 0.19991 0.30103 0.0
C879 C 0.53111 0.19902 0.42929 0.0
C880 C 0.89517 0.33841 0.31071 0.0
C881 C 0.89467 0.35927 0.23897 0.0
C882 C 0.89598 0.34036 0.43552 0.0
C883 C 0.89613 0.36316 0.49358 0.0
H884 H 0.89695 0.32143 0.2697 0.0
H885 H 0.89849 0.32494 0.48677 0.0
S886 S 0.89246 0.42198 0.34781 0.0
N887 N 0.89219 0.4023 0.23521 0.0
N888 N 0.89355 0.4059 0.47122 0.0
C889 C 0.89335 0.38299 0.42381 0.0
C890 C 0.89264 0.38105 0.29586 0.0
C891 C 0.6833 0.15592 0.28703 0.0
C892 C 0.70745 0.17689 0.22804 0.0
C893 C 0.68162 0.15486 0.41201 0.0
C894 C 0.70408 0.17466 0.4827 0.0
H895 H 0.66641 0.13904 0.23629 0.0
H896 H 0.66342 0.13724 0.45384 0.0
S897 S 0.77117 0.23486 0.37168 0.0
N898 N 0.75357 0.21898 0.24885 0.0
N899 N 0.75041 0.21693 0.48504 0.0
C900 C 0.72751 0.19693 0.42509 0.0
C901 C 0.72921 0.19805 0.29712 0.0
C902 C 0.89542 0.58051 0.31203 0.0
C903 C 0.89582 0.55935 0.24247 0.0
C904 C 0.8959 0.57963 0.43699 0.0
C905 C 0.8966 0.55746 0.49714 0.0
H906 H 0.89679 0.59895 0.2693 0.0
H907 H 0.89779 0.59747 0.48678 0.0
S908 S 0.89546 0.49568 0.35696 0.0
N909 N 0.89489 0.51457 0.24258 0.0
N910 N 0.89558 0.51279 0.47885 0.0
C911 C 0.89474 0.53502 0.4293 0.0
C912 C 0.89439 0.53599 0.30129 0.0
C913 C 0.54098 0.38447 0.29955 0.0
C914 C 0.51923 0.36052 0.24244 0.0
C915 C 0.54224 0.38642 0.42549 0.0
C916 C 0.52176 0.36448 0.49706 0.0
H917 H 0.55566 0.40258 0.24698 0.0
H918 H 0.55781 0.40604 0.46647 0.0
S919 S 0.46275 0.29628 0.39051 0.0
N920 N 0.47867 0.31353 0.26693 0.0
N921 N 0.48082 0.31737 0.50205 0.0
C922 C 0.50132 0.33976 0.4407 0.0
C923 C 0.50011 0.33773 0.31362 0.0
C924 C 0.40399 0.91577 0.652 0.0
C925 C 0.38496 0.8929 0.58108 0.0
C926 C 0.40218 0.91458 0.77659 0.0
C927 C 0.38132 0.89043 0.83584 0.0
H928 H 0.41927 0.93553 0.61055 0.0
H929 H 0.41595 0.9335 0.82676 0.0
S930 S 0.32973 0.82305 0.69346 0.0
N931 N 0.34715 0.84393 0.57959 0.0
N932 N 0.34367 0.84177 0.81598 0.0
C933 C 0.36401 0.86636 0.76729 0.0
C934 C 0.36587 0.86757 0.63908 0.0
C935 C 0.16211 0.51086 0.7717 0.0
C936 C 0.18574 0.51319 0.83189 0.0
C937 C 0.16122 0.51133 0.64699 0.0
C938 C 0.1839 0.5141 0.57712 0.0
H939 H 0.14327 0.50651 0.82129 0.0
H940 H 0.14176 0.50752 0.60469 0.0
S941 S 0.25255 0.52581 0.69193 0.0
N942 N 0.23383 0.52208 0.81379 0.0
N943 N 0.23221 0.52311 0.57729 0.0
C944 C 0.20882 0.51937 0.63593 0.0
C945 C 0.20972 0.51888 0.76415 0.0
C946 C 0.58701 0.72706 0.75218 0.0
C947 C 0.56692 0.70471 0.82289 0.0
C948 C 0.58596 0.72553 0.62721 0.0
C949 C 0.56473 0.70167 0.56829 0.0
H950 H 0.60481 0.74503 0.79396 0.0
H951 H 0.60306 0.74228 0.57641 0.0
S952 S 0.50607 0.63835 0.71219 0.0
N953 N 0.52418 0.65881 0.82547 0.0
N954 N 0.52215 0.65593 0.58928 0.0
C955 C 0.54332 0.68005 0.63747 0.0
C956 C 0.54443 0.68158 0.76542 0.0
C957 C 0.34821 0.4887 0.73924 0.0
C958 C 0.37089 0.50844 0.80918 0.0
C959 C 0.34969 0.4896 0.61422 0.0
C960 C 0.37384 0.51035 0.55453 0.0
H961 H 0.32998 0.47123 0.78169 0.0
H962 H 0.33263 0.47276 0.56401 0.0
S963 S 0.43809 0.56807 0.69612 0.0
N964 N 0.41744 0.55039 0.81013 0.0
N965 N 0.42021 0.55219 0.57385 0.0
C966 C 0.39583 0.53147 0.62289 0.0
C967 C 0.39435 0.53049 0.75087 0.0
C968 C 0.54693 0.88715 0.76556 0.0
C969 C 0.56882 0.88545 0.82418 0.0
C970 C 0.54585 0.88756 0.63951 0.0
C971 C 0.56663 0.88627 0.56952 0.0
H972 H 0.532 0.89043 0.81693 0.0
H973 H 0.53018 0.89129 0.59713 0.0
S974 S 0.62611 0.87831 0.68053 0.0
N975 N 0.60991 0.87973 0.8029 0.0
N976 N 0.60791 0.88063 0.56756 0.0
C977 C 0.58718 0.88239 0.62747 0.0
C978 C 0.58826 0.88194 0.75462 0.0
C979 C 0.18919 0.67924 0.63602 0.0
C980 C 0.19085 0.70133 0.56528 0.0
C981 C 0.18992 0.68102 0.76202 0.0
C982 C 0.1924 0.70495 0.81997 0.0
H983 H 0.18495 0.65965 0.59438 0.0
H984 H 0.18628 0.66278 0.81399 0.0
S985 S 0.20076 0.76953 0.67422 0.0
N986 N 0.19746 0.74854 0.56195 0.0
N987 N 0.19933 0.75209 0.79714 0.0
C988 C 0.19631 0.7279 0.74957 0.0
C989 C 0.19539 0.72602 0.62246 0.0
loop_
_geom_bond_atom_site_label_1
_geom_bond_atom_site_label_2
_geom_bond_distance
_geom_bond_site_symmetry_2
_ccdc_geom_bond_type
Fe0 O2 1.918 . S
Fe0 O5 1.997 . S
Fe0 O6 2.002 . S
Fe0 O11 1.976 . S
Fe0 O14 1.996 . S
Fe1 O2 1.918 . S
Fe1 O9 1.997 . S
Fe1 O12 1.996 . S
Fe1 O16 1.976 . S
Fe1 O19 2.002 1_455 S
O2 Fe0 1.918 . S
O2 Fe1 1.918 . S
O2 Fe3 1.918 1_455 S
Fe3 O2 1.918 1_655 S
Fe3 O4 2.002 . S
Fe3 O13 1.976 1_655 S
Fe3 O17 1.996 1_655 S
Fe3 O20 1.997 . S
O4 Fe3 2.002 . S
O4 C21 1.295 . S
O5 Fe0 1.997 . S
O5 C21 1.235 1_455 S
O6 Fe0 2.002 . S
O6 C7 1.295 . S
C7 O6 1.295 . S
C7 O9 1.235 . S
C8 O13 1.287 . S
C8 O14 1.255 . S
O9 Fe1 1.997 . S
O9 C7 1.235 . S
C10 O16 1.287 . S
C10 O17 1.255 . S
O11 Fe0 1.976 . S
O11 C18 1.287 . S
O12 Fe1 1.996 . S
O12 C18 1.255 . S
O13 Fe3 1.976 1_455 S
O13 C8 1.287 . S
O14 Fe0 1.996 . S
O14 C8 1.255 . S
C15 O19 1.295 . S
C15 O20 1.235 . S
O16 Fe1 1.976 . S
O16 C10 1.287 . S
O17 Fe3 1.996 1_455 S
O17 C10 1.255 . S
C18 O11 1.287 . S
C18 O12 1.255 . S
O19 Fe1 2.002 1_655 S
O19 C15 1.295 . S
O20 Fe3 1.997 . S
O20 C15 1.235 . S
C21 O4 1.295 . S
C21 O5 1.235 1_655 S
Fe22 O24 1.918 . S
Fe22 O27 1.997 . S
Fe22 O28 2.002 . S
Fe22 O33 1.976 . S
Fe22 O36 1.996 . S
Fe23 O24 1.918 . S
Fe23 O31 1.997 . S
Fe23 O34 1.996 . S
Fe23 O38 1.976 . S
Fe23 O41 2.002 . S
O24 Fe22 1.918 . S
O24 Fe23 1.918 . S
O24 Fe25 1.918 . S
Fe25 O24 1.918 . S
Fe25 O26 2.002 . S
Fe25 O35 1.976 . S
Fe25 O39 1.996 . S
Fe25 O42 1.997 . S
O26 Fe25 2.002 . S
O26 C43 1.295 . S
O27 Fe22 1.997 . S
O27 C43 1.235 . S
O28 Fe22 2.002 . S
O28 C29 1.295 . S
C29 O28 1.295 . S
C29 O31 1.235 . S
C30 O35 1.287 . S
C30 O36 1.255 . S
O31 Fe23 1.997 . S
O31 C29 1.235 . S
C32 O38 1.287 . S
C32 O39 1.255 . S
O33 Fe22 1.976 . S
O33 C40 1.287 . S
O34 Fe23 1.996 . S
O34 C40 1.255 . S
O35 Fe25 1.976 . S
O35 C30 1.287 . S
O36 Fe22 1.996 . S
O36 C30 1.255 . S
C37 O41 1.295 . S
C37 O42 1.235 . S
O38 Fe23 1.976 . S
O38 C32 1.287 . S
O39 Fe25 1.996 . S
O39 C32 1.255 . S
C40 O33 1.287 . S
C40 O34 1.255 . S
O41 Fe23 2.002 . S
O41 C37 1.295 . S
O42 Fe25 1.997 . S
O42 C37 1.235 . S
C43 O26 1.295 . S
C43 O27 1.235 . S
Fe44 O46 1.918 . S
Fe44 O49 1.997 . S
Fe44 O50 2.002 1_545 S
Fe44 O55 1.976 . S
Fe44 O58 1.996 . S
Fe45 O46 1.918 1_565 S
Fe45 O53 1.997 . S
Fe45 O56 1.990 1_565 S
Fe45 O60 1.976 1_565 S
Fe45 O63 2.002 . S
O46 Fe44 1.918 . S
O46 Fe45 1.918 1_545 S
O46 Fe47 1.918 . S
Fe47 O46 1.918 . S
Fe47 O48 2.002 . S
Fe47 O57 1.976 . S
Fe47 O61 1.996 . S
Fe47 O64 1.997 . S
O48 Fe47 2.002 . S
O48 C65 1.295 . S
O49 Fe44 1.997 . S
O49 C65 1.235 . S
O50 Fe44 2.002 1_565 S
O50 C51 1.295 . S
C51 O50 1.295 . S
C51 O53 1.235 . S
C52 O57 1.287 . S
C52 O58 1.255 . S
O53 Fe45 1.997 . S
O53 C51 1.235 . S
C54 O60 1.287 . S
C54 O61 1.255 . S
O55 Fe44 1.976 . S
O55 C62 1.287 . S
O56 Fe45 1.990 1_545 S
O56 C62 1.265 . S
O57 Fe47 1.976 . S
O57 C52 1.287 . S
O58 Fe44 1.996 . S
O58 C52 1.255 . S
C59 O63 1.295 . S
C59 O64 1.235 1_565 S
O60 Fe45 1.976 1_545 S
O60 C54 1.287 . S
O61 Fe47 1.996 . S
O61 C54 1.255 . S
C62 O55 1.287 . S
C62 O56 1.265 . S
O63 Fe45 2.002 . S
O63 C59 1.295 . S
O64 Fe47 1.997 . S
O64 C59 1.235 1_545 S
C65 O48 1.295 . S
C65 O49 1.235 . S
Fe66 O68 1.918 1_655 S
Fe66 O71 1.997 1_655 S
Fe66 O72 2.002 1_655 S
Fe66 O77 1.976 . S
Fe66 O80 1.996 . S
Fe67 O68 1.918 . S
Fe67 O75 1.997 . S
Fe67 O78 1.996 1_455 S
Fe67 O82 1.976 . S
Fe67 O85 2.002 . S
O68 Fe66 1.918 1_455 S
O68 Fe67 1.918 . S
O68 Fe69 1.918 . S
Fe69 O68 1.918 . S
Fe69 O70 2.002 . S
Fe69 O79 1.976 . S
Fe69 O83 1.996 . S
Fe69 O86 1.997 . S
O70 Fe69 2.002 . S
O70 C87 1.295 . S
O71 Fe66 1.997 1_455 S
O71 C87 1.235 . S
O72 Fe66 2.002 1_455 S
O72 C73 1.295 . S
C73 O72 1.295 . S
C73 O75 1.235 . S
C74 O79 1.287 1_655 S
C74 O80 1.255 . S
O75 Fe67 1.997 . S
O75 C73 1.235 . S
C76 O82 1.287 . S
C76 O83 1.255 . S
O77 Fe66 1.976 . S
O77 C84 1.287 . S
O78 Fe67 1.996 1_655 S
O78 C84 1.255 . S
O79 Fe69 1.976 . S
O79 C74 1.287 1_455 S
O80 Fe66 1.996 . S
O80 C74 1.255 . S
C81 O85 1.295 . S
C81 O86 1.235 . S
O82 Fe67 1.976 . S
O82 C76 1.287 . S
O83 Fe69 1.996 . S
O83 C76 1.255 . S
C84 O77 1.287 . S
C84 O78 1.255 . S
O85 Fe67 2.002 . S
O85 C81 1.295 . S
O86 Fe69 1.997 . S
O86 C81 1.235 . S
C87 O70 1.295 . S
C87 O71 1.235 . S
Fe88 O90 1.918 . S
Fe88 O93 1.997 . S
Fe88 O94 2.002 . S
Fe88 O99 1.976 . S
Fe88 O102 1.996 . S
Fe89 O90 1.918 . S
Fe89 O97 1.997 . S
Fe89 O100 1.996 . S
Fe89 O104 1.976 . S
Fe89 O107 2.002 . S
O90 Fe88 1.918 . S
O90 Fe89 1.918 . S
O90 Fe91 1.918 . S
Fe91 O90 1.918 . S
Fe91 O92 2.002 . S
Fe91 O101 1.976 . S
Fe91 O105 1.996 . S
Fe91 O108 1.997 . S
O92 Fe91 2.002 . S
O92 C109 1.295 . S
O93 Fe88 1.997 . S
O93 C109 1.235 . S
O94 Fe88 2.002 . S
O94 C95 1.295 . S
C95 O94 1.295 . S
C95 O97 1.235 . S
C96 O101 1.287 . S
C96 O102 1.255 . S
O97 Fe89 1.997 . S
O97 C95 1.235 . S
C98 O104 1.287 . S
C98 O105 1.255 . S
O99 Fe88 1.976 . S
O99 C106 1.287 . S
O100 Fe89 1.996 . S
O100 C106 1.255 . S
O101 Fe91 1.976 . S
O101 C96 1.287 . S
O102 Fe88 1.996 . S
O102 C96 1.255 . S
C103 O107 1.295 . S
C103 O108 1.235 . S
O104 Fe89 1.976 . S
O104 C98 1.287 . S
O105 Fe91 1.996 . S
O105 C98 1.255 . S
C106 O99 1.287 . S
C106 O100 1.255 . S
O107 Fe89 2.002 . S
O107 C103 1.295 . S
O108 Fe91 1.997 . S
O108 C103 1.235 . S
C109 O92 1.295 . S
C109 O93 1.235 . S
Fe110 O112 1.918 1_565 S
Fe110 O115 1.997 1_565 S
Fe110 O116 2.002 1_565 S
Fe110 O121 1.976 . S
Fe110 O124 1.996 . S
Fe111 O112 1.918 . S
Fe111 O119 1.997 . S
Fe111 O122 1.996 1_545 S
Fe111 O126 1.976 . S
Fe111 O129 2.002 . S
O112 Fe110 1.918 1_545 S
O112 Fe111 1.918 . S
O112 Fe113 1.918 . S
Fe113 O112 1.918 . S
Fe113 O114 2.002 . S
Fe113 O123 1.976 . S
Fe113 O127 1.996 . S
Fe113 O130 1.997 . S
O114 Fe113 2.002 . S
O114 C131 1.295 . S
O115 Fe110 1.997 1_545 S
O115 C131 1.235 . S
O116 Fe110 2.002 1_545 S
O116 C117 1.295 . S
C117 O116 1.295 . S
C117 O119 1.235 . S
C118 O123 1.287 1_565 S
C118 O124 1.255 . S
O119 Fe111 1.997 . S
O119 C117 1.235 . S
C120 O126 1.287 . S
C120 O127 1.255 . S
O121 Fe110 1.976 . S
O121 C128 1.287 . S
O122 Fe111 1.996 1_565 S
O122 C128 1.255 . S
O123 Fe113 1.976 . S
O123 C118 1.287 1_545 S
O124 Fe110 1.996 . S
O124 C118 1.255 . S
C125 O129 1.295 . S
C125 O130 1.235 . S
O126 Fe111 1.976 . S
O126 C120 1.287 . S
O127 Fe113 1.996 . S
O127 C120 1.255 . S
C128 O121 1.287 . S
C128 O122 1.255 . S
O129 Fe111 2.002 . S
O129 C125 1.295 . S
O130 Fe113 1.997 . S
O130 C125 1.235 . S
C131 O114 1.295 . S
C131 O115 1.235 . S
Fe132 O134 1.918 . S
Fe132 O137 1.997 . S
Fe132 O138 2.002 . S
Fe132 O143 1.976 . S
Fe132 O146 1.996 . S
Fe133 O134 1.918 . S
Fe133 O141 1.997 . S
Fe133 O144 1.996 . S
Fe133 O148 1.976 . S
Fe133 O151 2.002 1_556 S
O134 Fe132 1.918 . S
O134 Fe133 1.918 . S
O134 Fe135 1.918 . S
Fe135 O134 1.918 . S
Fe135 O136 2.002 . S
Fe135 O145 1.976 . S
Fe135 O149 1.996 . S
Fe135 O152 1.997 . S
O136 Fe135 2.002 . S
O136 C153 1.295 . S
O137 Fe132 1.997 . S
O137 C153 1.235 . S
O138 Fe132 2.002 . S
O138 C139 1.295 . S
C139 O138 1.295 . S
C139 O141 1.235 . S
C140 O145 1.287 . S
C140 O146 1.255 . S
O141 Fe133 1.997 . S
O141 C139 1.235 . S
C142 O148 1.287 . S
C142 O149 1.255 . S
O143 Fe132 1.976 . S
O143 C150 1.287 . S
O144 Fe133 1.996 . S
O144 C150 1.255 . S
O145 Fe135 1.976 . S
O145 C140 1.287 . S
O146 Fe132 1.996 . S
O146 C140 1.255 . S
C147 O151 1.295 . S
C147 O152 1.235 1_554 S
O148 Fe133 1.976 . S
O148 C142 1.287 . S
O149 Fe135 1.996 . S
O149 C142 1.255 . S
C150 O143 1.287 . S
C150 O144 1.255 . S
O151 Fe133 2.002 1_554 S
O151 C147 1.295 . S
O152 Fe135 1.997 . S
O152 C147 1.235 1_556 S
C153 O136 1.295 . S
C153 O137 1.235 . S
Fe154 O156 1.918 . S
Fe154 O159 1.997 . S
Fe154 O160 2.002 . S
Fe154 O165 1.976 . S
Fe154 O168 1.996 . S
Fe155 O156 1.918 . S
Fe155 O163 1.997 . S
Fe155 O166 1.996 . S
Fe155 O170 1.976 . S
Fe155 O173 2.002 1_556 S
O156 Fe154 1.918 . S
O156 Fe155 1.918 . S
O156 Fe157 1.918 . S
Fe157 O156 1.918 . S
Fe157 O158 2.002 . S
Fe157 O167 1.976 . S
Fe157 O171 1.996 . S
Fe157 O174 1.997 . S
O158 Fe157 2.002 . S
O158 C175 1.295 . S
O159 Fe154 1.997 . S
O159 C175 1.235 . S
O160 Fe154 2.002 . S
O160 C161 1.295 . S
C161 O160 1.295 . S
C161 O163 1.235 . S
C162 O167 1.287 . S
C162 O168 1.255 . S
O163 Fe155 1.997 . S
O163 C161 1.235 . S
C164 O170 1.287 . S
C164 O171 1.255 . S
O165 Fe154 1.976 . S
O165 C172 1.287 . S
O166 Fe155 1.996 . S
O166 C172 1.255 . S
O167 Fe157 1.976 . S
O167 C162 1.287 . S
O168 Fe154 1.996 . S
O168 C162 1.255 . S
C169 O173 1.295 . S
C169 O174 1.235 1_554 S
O170 Fe155 1.976 . S
O170 C164 1.287 . S
O171 Fe157 1.996 . S
O171 C164 1.255 . S
C172 O165 1.287 . S
C172 O166 1.255 . S
O173 Fe155 2.002 1_554 S
O173 C169 1.295 . S
O174 Fe157 1.997 . S
O174 C169 1.235 1_556 S
C175 O158 1.295 . S
C175 O159 1.235 . S
Fe176 O178 1.918 . S
Fe176 O181 1.997 . S
Fe176 O182 2.002 1_556 S
Fe176 O187 1.976 . S
Fe176 O190 1.996 . S
Fe177 O178 1.918 . S
Fe177 O185 1.997 . S
Fe177 O188 1.996 . S
Fe177 O192 1.976 . S
Fe177 O195 2.002 . S
O178 Fe176 1.918 . S
O178 Fe177 1.918 . S
O178 Fe179 1.918 . S
Fe179 O178 1.918 . S
Fe179 O180 2.002 . S
Fe179 O189 1.976 . S
Fe179 O193 1.996 . S
Fe179 O196 1.997 . S
O180 Fe179 2.002 . S
O180 C197 1.295 . S
O181 Fe176 1.997 . S
O181 C197 1.235 . S
O182 Fe176 2.002 1_554 S
O182 C183 1.295 . S
C183 O182 1.295 . S
C183 O185 1.235 1_554 S
C184 O189 1.287 . S
C184 O190 1.255 . S
O185 Fe177 1.997 . S
O185 C183 1.235 1_556 S
C186 O192 1.287 . S
C186 O193 1.255 . S
O187 Fe176 1.976 . S
O187 C194 1.287 . S
O188 Fe177 1.996 . S
O188 C194 1.255 . S
O189 Fe179 1.976 . S
O189 C184 1.287 . S
O190 Fe176 1.996 . S
O190 C184 1.255 . S
C191 O195 1.295 . S
C191 O196 1.235 . S
O192 Fe177 1.976 . S
O192 C186 1.287 . S
O193 Fe179 1.996 . S
O193 C186 1.255 . S
C194 O187 1.287 . S
C194 O188 1.255 . S
O195 Fe177 2.002 . S
O195 C191 1.295 . S
O196 Fe179 1.997 . S
O196 C191 1.235 . S
C197 O180 1.295 . S
C197 O181 1.235 . S
Fe198 O200 1.918 . S
Fe198 O203 1.997 . S
Fe198 O204 2.002 1_556 S
Fe198 O209 1.976 . S
Fe198 O212 1.996 . S
Fe199 O200 1.918 . S
Fe199 O207 1.997 . S
Fe199 O210 1.996 . S
Fe199 O214 1.976 . S
Fe199 O217 2.002 . S
O200 Fe198 1.918 . S
O200 Fe199 1.918 . S
O200 Fe201 1.918 . S
Fe201 O200 1.918 . S
Fe201 O202 2.002 . S
Fe201 O211 1.976 . S
Fe201 O215 1.996 . S
Fe201 O218 1.997 . S
O202 Fe201 2.002 . S
O202 C219 1.295 . S
O203 Fe198 1.997 . S
O203 C219 1.235 . S
O204 Fe198 2.002 1_554 S
O204 C205 1.295 . S
C205 O204 1.295 . S
C205 O207 1.235 1_554 S
C206 O211 1.287 . S
C206 O212 1.255 . S
O207 Fe199 1.997 . S
O207 C205 1.235 1_556 S
C208 O214 1.287 . S
C208 O215 1.255 . S
O209 Fe198 1.976 . S
O209 C216 1.287 . S
O210 Fe199 1.996 . S
O210 C216 1.255 . S
O211 Fe201 1.976 . S
O211 C206 1.287 . S
O212 Fe198 1.996 . S
O212 C206 1.255 . S
C213 O217 1.295 . S
C213 O218 1.235 . S
O214 Fe199 1.976 . S
O214 C208 1.287 . S
O215 Fe201 1.996 . S
O215 C208 1.255 . S
C216 O209 1.287 . S
C216 O210 1.255 . S
O217 Fe199 2.002 . S
O217 C213 1.295 . S
O218 Fe201 1.997 . S
O218 C213 1.235 . S
C219 O202 1.295 . S
C219 O203 1.235 . S
Fe220 O222 1.918 . S
Fe220 O225 1.997 . S
Fe220 O226 2.002 1_556 S
Fe220 O231 1.976 . S
Fe220 O234 1.996 . S
Fe221 O222 1.918 . S
Fe221 O229 1.997 . S
Fe221 O232 1.996 . S
Fe221 O236 1.976 . S
Fe221 O239 2.002 . S
O222 Fe220 1.918 . S
O222 Fe221 1.918 . S
O222 Fe223 1.918 . S
Fe223 O222 1.918 . S
Fe223 O224 2.002 . S
Fe223 O233 1.976 . S
Fe223 O237 1.996 . S
Fe223 O240 1.997 . S
O224 Fe223 2.002 . S
O224 C241 1.295 . S
O225 Fe220 1.997 . S
O225 C241 1.235 . S
O226 Fe220 2.002 1_554 S
O226 C227 1.295 . S
C227 O226 1.295 . S
C227 O229 1.235 1_554 S
C228 O233 1.287 . S
C228 O234 1.255 . S
O229 Fe221 1.997 . S
O229 C227 1.235 1_556 S
C230 O236 1.287 . S
C230 O237 1.255 . S
O231 Fe220 1.976 . S
O231 C238 1.287 . S
O232 Fe221 1.996 . S
O232 C238 1.255 . S
O233 Fe223 1.976 . S
O233 C228 1.287 . S
O234 Fe220 1.996 . S
O234 C228 1.255 . S
C235 O239 1.295 . S
C235 O240 1.235 . S
O236 Fe221 1.976 . S
O236 C230 1.287 . S
O237 Fe223 1.996 . S
O237 C230 1.255 . S
C238 O231 1.287 . S
C238 O232 1.255 . S
O239 Fe221 2.002 . S
O239 C235 1.295 . S
O240 Fe223 1.997 . S
O240 C235 1.235 . S
C241 O224 1.295 . S
C241 O225 1.235 . S
Fe242 O244 1.918 . S
Fe242 O247 1.997 . S
Fe242 O248 2.002 1_556 S
Fe242 O253 1.976 . S
Fe242 O256 1.996 . S
Fe243 O244 1.918 . S
Fe243 O251 1.997 . S
Fe243 O254 1.996 . S
Fe243 O258 1.976 . S
Fe243 O261 2.002 . S
O244 Fe242 1.918 . S
O244 Fe243 1.918 . S
O244 Fe245 1.918 . S
Fe245 O244 1.918 . S
Fe245 O246 2.002 . S
Fe245 O255 1.976 . S
Fe245 O259 1.996 . S
Fe245 O262 1.997 . S
O246 Fe245 2.002 . S
O246 C263 1.295 . S
O247 Fe242 1.997 . S
O247 C263 1.235 . S
O248 Fe242 2.002 1_554 S
O248 C249 1.295 . S
C249 O248 1.295 . S
C249 O251 1.235 1_554 S
C250 O255 1.287 . S
C250 O256 1.255 . S
O251 Fe243 1.997 . S
O251 C249 1.235 1_556 S
C252 O258 1.287 . S
C252 O259 1.255 . S
O253 Fe242 1.976 . S
O253 C260 1.287 . S
O254 Fe243 1.996 . S
O254 C260 1.255 . S
O255 Fe245 1.976 . S
O255 C250 1.287 . S
O256 Fe242 1.996 . S
O256 C250 1.255 . S
C257 O261 1.295 . S
C257 O262 1.235 . S
O258 Fe243 1.976 . S
O258 C252 1.287 . S
O259 Fe245 1.996 . S
O259 C252 1.255 . S
C260 O253 1.287 . S
C260 O254 1.255 . S
O261 Fe243 2.002 . S
O261 C257 1.295 . S
O262 Fe245 1.997 . S
O262 C257 1.235 . S
C263 O246 1.295 . S
C263 O247 1.235 . S
Fe264 O266 1.918 . S
Fe264 O269 1.997 . S
Fe264 O270 2.002 . S
Fe264 O275 1.976 1_554 S
Fe264 O278 1.996 . S
Fe265 O266 1.918 . S
Fe265 O273 1.997 . S
Fe265 O276 1.996 1_554 S
Fe265 O280 1.976 . S
Fe265 O283 2.002 . S
O266 Fe264 1.918 . S
O266 Fe265 1.918 . S
O266 Fe267 1.918 . S
Fe267 O266 1.918 . S
Fe267 O268 2.002 . S
Fe267 O277 1.976 . S
Fe267 O281 1.996 . S
Fe267 O284 1.997 . S
O268 Fe267 2.002 . S
O268 C285 1.295 . S
O269 Fe264 1.997 . S
O269 C285 1.235 . S
O270 Fe264 2.002 . S
O270 C271 1.295 . S
C271 O270 1.295 . S
C271 O273 1.235 . S
C272 O277 1.287 . S
C272 O278 1.255 . S
O273 Fe265 1.997 . S
O273 C271 1.235 . S
C274 O280 1.287 . S
C274 O281 1.255 . S
O275 Fe264 1.976 1_556 S
O275 C282 1.287 . S
O276 Fe265 1.996 1_556 S
O276 C282 1.255 . S
O277 Fe267 1.976 . S
O277 C272 1.287 . S
O278 Fe264 1.996 . S
O278 C272 1.255 . S
C279 O283 1.295 . S
C279 O284 1.235 . S
O280 Fe265 1.976 . S
O280 C274 1.287 . S
O281 Fe267 1.996 . S
O281 C274 1.255 . S
C282 O275 1.287 . S
C282 O276 1.255 . S
O283 Fe265 2.002 . S
O283 C279 1.295 . S
O284 Fe267 1.997 . S
O284 C279 1.235 . S
C285 O268 1.295 . S
C285 O269 1.235 . S
Fe286 O288 1.918 . S
Fe286 O291 1.997 . S
Fe286 O292 2.002 . S
Fe286 O297 1.976 . S
Fe286 O300 1.996 1_554 S
Fe287 O288 1.918 . S
Fe287 O295 1.997 . S
Fe287 O298 1.996 . S
Fe287 O302 1.976 . S
Fe287 O305 2.002 . S
O288 Fe286 1.918 . S
O288 Fe287 1.918 . S
O288 Fe289 1.918 . S
Fe289 O288 1.918 . S
Fe289 O290 2.002 . S
Fe289 O299 1.976 1_554 S
Fe289 O303 1.996 . S
Fe289 O306 1.997 . S
O290 Fe289 2.002 . S
O290 C307 1.295 . S
O291 Fe286 1.997 . S
O291 C307 1.235 . S
O292 Fe286 2.002 . S
O292 C293 1.295 . S
C293 O292 1.295 . S
C293 O295 1.235 . S
C294 O299 1.287 . S
C294 O300 1.255 . S
O295 Fe287 1.997 . S
O295 C293 1.235 . S
C296 O302 1.287 . S
C296 O303 1.255 . S
O297 Fe286 1.976 . S
O297 C304 1.287 . S
O298 Fe287 1.996 . S
O298 C304 1.255 . S
O299 Fe289 1.976 1_556 S
O299 C294 1.287 . S
O300 Fe286 1.996 1_556 S
O300 C294 1.255 . S
C301 O305 1.295 . S
C301 O306 1.235 . S
O302 Fe287 1.976 . S
O302 C296 1.287 . S
O303 Fe289 1.996 . S
O303 C296 1.255 . S
C304 O297 1.287 . S
C304 O298 1.255 . S
O305 Fe287 2.002 . S
O305 C301 1.295 . S
O306 Fe289 1.997 . S
O306 C301 1.235 . S
C307 O290 1.295 . S
C307 O291 1.235 . S
Fe308 O310 1.918 . S
Fe308 O313 1.997 . S
Fe308 O314 2.002 1_554 S
Fe308 O319 1.976 . S
Fe308 O322 1.996 . S
Fe309 O310 1.918 . S
Fe309 O317 1.997 . S
Fe309 O320 1.996 . S
Fe309 O324 1.976 . S
Fe309 O327 2.002 . S
O310 Fe308 1.918 . S
O310 Fe309 1.918 . S
O310 Fe311 1.918 . S
Fe311 O310 1.918 . S
Fe311 O312 2.002 . S
Fe311 O321 1.976 . S
Fe311 O325 1.996 . S
Fe311 O328 1.997 . S
O312 Fe311 2.002 . S
O312 C329 1.295 . S
O313 Fe308 1.997 . S
O313 C329 1.235 . S
O314 Fe308 2.002 1_556 S
O314 C315 1.295 . S
C315 O314 1.295 . S
C315 O317 1.235 1_556 S
C316 O321 1.287 . S
C316 O322 1.255 . S
O317 Fe309 1.997 . S
O317 C315 1.235 1_554 S
C318 O324 1.287 . S
C318 O325 1.255 . S
O319 Fe308 1.976 . S
O319 C326 1.287 . S
O320 Fe309 1.996 . S
O320 C326 1.255 . S
O321 Fe311 1.976 . S
O321 C316 1.287 . S
O322 Fe308 1.996 . S
O322 C316 1.255 . S
C323 O327 1.295 . S
C323 O328 1.235 . S
O324 Fe309 1.976 . S
O324 C318 1.287 . S
O325 Fe311 1.996 . S
O325 C318 1.255 . S
C326 O319 1.287 . S
C326 O320 1.255 . S
O327 Fe309 2.002 . S
O327 C323 1.295 . S
O328 Fe311 1.997 . S
O328 C323 1.235 . S
C329 O312 1.295 . S
C329 O313 1.235 . S
Fe330 O332 1.918 . S
Fe330 O335 1.997 . S
Fe330 O336 2.002 1_554 S
Fe330 O341 1.976 . S
Fe330 O344 1.996 . S
Fe331 O332 1.918 . S
Fe331 O339 1.997 . S
Fe331 O342 1.996 . S
Fe331 O346 1.976 . S
Fe331 O349 2.002 . S
O332 Fe330 1.918 . S
O332 Fe331 1.918 . S
O332 Fe333 1.918 . S
Fe333 O332 1.918 . S
Fe333 O334 2.002 . S
Fe333 O343 1.976 . S
Fe333 O347 1.996 . S
Fe333 O350 1.997 . S
O334 Fe333 2.002 . S
O334 C351 1.295 . S
O335 Fe330 1.997 . S
O335 C351 1.235 . S
O336 Fe330 2.002 1_556 S
O336 C337 1.295 . S
C337 O336 1.295 . S
C337 O339 1.235 1_556 S
C338 O343 1.287 . S
C338 O344 1.255 . S
O339 Fe331 1.997 . S
O339 C337 1.235 1_554 S
C340 O346 1.287 . S
C340 O347 1.255 . S
O341 Fe330 1.976 . S
O341 C348 1.287 . S
O342 Fe331 1.996 . S
O342 C348 1.255 . S
O343 Fe333 1.976 . S
O343 C338 1.287 . S
O344 Fe330 1.996 . S
O344 C338 1.255 . S
C345 O349 1.295 . S
C345 O350 1.235 . S
O346 Fe331 1.976 . S
O346 C340 1.287 . S
O347 Fe333 1.996 . S
O347 C340 1.255 . S
C348 O341 1.287 . S
C348 O342 1.255 . S
O349 Fe331 2.002 . S
O349 C345 1.295 . S
O350 Fe333 1.997 . S
O350 C345 1.235 . S
C351 O334 1.295 . S
C351 O335 1.235 . S
Fe352 O354 1.918 . S
Fe352 O357 1.997 . S
Fe352 O358 2.002 . S
Fe352 O363 1.976 . S
Fe352 O366 1.996 . S
Fe353 O354 1.918 . S
Fe353 O361 1.997 . S
Fe353 O364 1.996 . S
Fe353 O368 1.976 . S
Fe353 O371 2.002 . S
O354 Fe352 1.918 . S
O354 Fe353 1.918 . S
O354 Fe355 1.918 . S
Fe355 O354 1.918 . S
Fe355 O356 2.002 1_554 S
Fe355 O365 1.976 . S
Fe355 O369 1.996 . S
Fe355 O372 1.997 . S
O356 Fe355 2.002 1_556 S
O356 C373 1.295 . S
O357 Fe352 1.997 . S
O357 C373 1.235 1_554 S
O358 Fe352 2.002 . S
O358 C359 1.295 . S
C359 O358 1.295 . S
C359 O361 1.235 . S
C360 O365 1.287 . S
C360 O366 1.255 . S
O361 Fe353 1.997 . S
O361 C359 1.235 . S
C362 O368 1.287 . S
C362 O369 1.255 . S
O363 Fe352 1.976 . S
O363 C370 1.287 . S
O364 Fe353 1.996 . S
O364 C370 1.255 . S
O365 Fe355 1.976 . S
O365 C360 1.287 . S
O366 Fe352 1.996 . S
O366 C360 1.255 . S
C367 O371 1.295 . S
C367 O372 1.235 . S
O368 Fe353 1.976 . S
O368 C362 1.287 . S
O369 Fe355 1.996 . S
O369 C362 1.255 . S
C370 O363 1.287 . S
C370 O364 1.255 . S
O371 Fe353 2.002 . S
O371 C367 1.295 . S
O372 Fe355 1.997 . S
O372 C367 1.235 . S
C373 O356 1.295 . S
C373 O357 1.235 1_556 S
Fe374 O376 1.918 . S
Fe374 O379 1.997 . S
Fe374 O380 2.002 . S
Fe374 O385 1.976 . S
Fe374 O388 1.996 . S
Fe375 O376 1.918 . S
Fe375 O383 1.997 . S
Fe375 O386 1.996 . S
Fe375 O390 1.976 1_554 S
Fe375 O393 2.002 . S
O376 Fe374 1.918 . S
O376 Fe375 1.918 . S
O376 Fe377 1.918 . S
Fe377 O376 1.918 . S
Fe377 O378 2.002 . S
Fe377 O387 1.976 . S
Fe377 O391 1.996 1_554 S
Fe377 O394 1.997 . S
O378 Fe377 2.002 . S
O378 C395 1.295 . S
O379 Fe374 1.997 . S
O379 C395 1.235 . S
O380 Fe374 2.002 . S
O380 C381 1.295 . S
C381 O380 1.295 . S
C381 O383 1.235 . S
C382 O387 1.287 . S
C382 O388 1.255 . S
O383 Fe375 1.997 . S
O383 C381 1.235 . S
C384 O390 1.287 . S
C384 O391 1.255 . S
O385 Fe374 1.976 . S
O385 C392 1.287 . S
O386 Fe375 1.996 . S
O386 C392 1.255 . S
O387 Fe377 1.976 . S
O387 C382 1.287 . S
O388 Fe374 1.996 . S
O388 C382 1.255 . S
C389 O393 1.295 . S
C389 O394 1.235 . S
O390 Fe375 1.976 1_556 S
O390 C384 1.287 . S
O391 Fe377 1.996 1_556 S
O391 C384 1.255 . S
C392 O385 1.287 . S
C392 O386 1.255 . S
O393 Fe375 2.002 . S
O393 C389 1.295 . S
O394 Fe377 1.997 . S
O394 C389 1.235 . S
C395 O378 1.295 . S
C395 O379 1.235 . S
C396 C397 1.369 . S
C396 C398 1.419 . S
C396 H400 0.930 . S
C397 C396 1.369 . S
C397 C406 1.429 . S
C398 C396 1.419 . S
C398 C399 1.363 . S
C398 H401 0.929 . S
C399 C398 1.363 . S
C399 C405 1.428 . S
H400 C396 0.930 . S
H401 C398 0.929 . S
S402 N403 1.613 . S
S402 N404 1.610 . S
N403 S402 1.613 . S
N403 C406 1.350 . S
N404 S402 1.610 . S
N404 C405 1.351 . S
C405 C399 1.428 . S
C405 N404 1.351 . S
C405 C406 1.434 . S
C406 C397 1.429 . S
C406 N403 1.350 . S
C406 C405 1.434 . S
C407 C408 1.369 . S
C407 C409 1.419 . S
C407 H411 0.930 . S
C408 C407 1.369 . S
C408 C417 1.429 . S
C409 C407 1.419 . S
C409 C410 1.363 . S
C409 H412 0.929 . S
C410 C409 1.363 . S
C410 C416 1.428 . S
H411 C407 0.930 . S
H412 C409 0.929 . S
S413 N414 1.613 . S
S413 N415 1.610 . S
N414 S413 1.613 . S
N414 C417 1.350 . S
N415 S413 1.610 . S
N415 C416 1.351 . S
C416 C410 1.428 . S
C416 N415 1.351 . S
C416 C417 1.434 . S
C417 C408 1.429 . S
C417 N414 1.350 . S
C417 C416 1.434 . S
C418 C419 1.369 . S
C418 C420 1.419 . S
C418 H422 0.930 . S
C419 C418 1.369 . S
C419 C428 1.429 . S
C420 C418 1.419 . S
C420 C421 1.363 . S
C420 H423 0.929 . S
C421 C420 1.363 . S
C421 C427 1.428 . S
H422 C418 0.930 . S
H423 C420 0.929 . S
S424 N425 1.613 . S
S424 N426 1.610 . S
N425 S424 1.613 . S
N425 C428 1.350 . S
N426 S424 1.610 . S
N426 C427 1.351 . S
C427 C421 1.428 . S
C427 N426 1.351 . S
C427 C428 1.434 . S
C428 C419 1.429 . S
C428 N425 1.350 . S
C428 C427 1.434 . S
C429 C430 1.369 . S
C429 C431 1.419 . S
C429 H433 0.930 . S
C430 C429 1.369 . S
C430 C439 1.429 . S
C431 C429 1.419 . S
C431 C432 1.363 . S
C431 H434 0.929 . S
C432 C431 1.363 . S
C432 C438 1.428 . S
H433 C429 0.930 . S
H434 C431 0.929 . S
S435 N436 1.613 . S
S435 N437 1.610 . S
N436 S435 1.613 . S
N436 C439 1.350 . S
N437 S435 1.610 . S
N437 C438 1.351 . S
C438 C432 1.428 . S
C438 N437 1.351 . S
C438 C439 1.434 . S
C439 C430 1.429 . S
C439 N436 1.350 . S
C439 C438 1.434 . S
C440 C441 1.369 . S
C440 C442 1.419 . S
C440 H444 0.930 . S
C441 C440 1.369 . S
C441 C450 1.429 . S
C442 C440 1.419 . S
C442 C443 1.363 . S
C442 H445 0.929 . S
C443 C442 1.363 . S
C443 C449 1.428 . S
H444 C440 0.930 . S
H445 C442 0.929 . S
S446 N447 1.613 1_455 S
S446 N448 1.610 . S
N447 S446 1.613 1_655 S
N447 C450 1.350 . S
N448 S446 1.610 . S
N448 C449 1.351 1_455 S
C449 C443 1.428 . S
C449 N448 1.351 1_655 S
C449 C450 1.434 . S
C450 C441 1.429 . S
C450 N447 1.350 . S
C450 C449 1.434 . S
C451 C452 1.369 . S
C451 C453 1.419 . S
C451 H455 0.930 . S
C452 C451 1.369 . S
C452 C461 1.429 . S
C453 C451 1.419 . S
C453 C454 1.363 . S
C453 H456 0.929 . S
C454 C453 1.363 . S
C454 C460 1.428 . S
H455 C451 0.930 . S
H456 C453 0.929 . S
S457 N458 1.613 . S
S457 N459 1.610 . S
N458 S457 1.613 . S
N458 C461 1.350 . S
N459 S457 1.610 . S
N459 C460 1.351 . S
C460 C454 1.428 . S
C460 N459 1.351 . S
C460 C461 1.434 . S
C461 C452 1.429 . S
C461 N458 1.350 . S
C461 C460 1.434 . S
C462 C463 1.369 . S
C462 C464 1.419 . S
C462 H466 0.930 . S
C463 C462 1.369 . S
C463 C472 1.429 . S
C464 C462 1.419 . S
C464 C465 1.363 . S
C464 H467 0.929 . S
C465 C464 1.363 . S
C465 C471 1.428 . S
H466 C462 0.930 . S
H467 C464 0.929 . S
S468 N469 1.613 . S
S468 N470 1.610 . S
N469 S468 1.613 . S
N469 C472 1.350 . S
N470 S468 1.610 . S
N470 C471 1.351 . S
C471 C465 1.428 . S
C471 N470 1.351 . S
C471 C472 1.434 . S
C472 C463 1.429 . S
C472 N469 1.350 . S
C472 C471 1.434 . S
C473 C474 1.369 . S
C473 C475 1.419 . S
C473 H477 0.930 . S
C474 C473 1.369 . S
C474 C483 1.429 . S
C475 C473 1.419 . S
C475 C476 1.363 . S
C475 H478 0.929 . S
C476 C475 1.363 . S
C476 C482 1.428 . S
H477 C473 0.930 . S
H478 C475 0.929 . S
S479 N480 1.613 . S
S479 N481 1.610 . S
N480 S479 1.613 . S
N480 C483 1.350 . S
N481 S479 1.610 . S
N481 C482 1.351 . S
C482 C476 1.428 . S
C482 N481 1.351 . S
C482 C483 1.434 . S
C483 C474 1.429 . S
C483 N480 1.350 . S
C483 C482 1.434 . S
C484 C485 1.369 . S
C484 C486 1.419 . S
C484 H488 0.930 . S
C485 C484 1.369 . S
C485 C494 1.429 . S
C486 C484 1.419 . S
C486 C487 1.363 . S
C486 H489 0.929 . S
C487 C486 1.363 . S
C487 C493 1.428 . S
H488 C484 0.930 . S
H489 C486 0.929 . S
S490 N491 1.613 . S
S490 N492 1.610 . S
N491 S490 1.613 . S
N491 C494 1.350 . S
N492 S490 1.610 . S
N492 C493 1.351 . S
C493 C487 1.428 . S
C493 N492 1.351 . S
C493 C494 1.434 . S
C494 C485 1.429 . S
C494 N491 1.350 . S
C494 C493 1.434 . S
C495 C496 1.369 . S
C495 C497 1.419 . S
C495 H499 0.930 . S
C496 C495 1.369 . S
C496 C505 1.429 . S
C497 C495 1.419 . S
C497 C498 1.363 . S
C497 H500 0.929 1_565 S
C498 C497 1.363 . S
C498 C504 1.428 . S
H499 C495 0.930 . S
H500 C497 0.929 1_545 S
S501 N502 1.613 . S
S501 N503 1.610 . S
N502 S501 1.613 . S
N502 C505 1.350 . S
N503 S501 1.610 . S
N503 C504 1.351 . S
C504 C498 1.428 . S
C504 N503 1.351 . S
C504 C505 1.434 . S
C505 C496 1.429 . S
C505 N502 1.350 . S
C505 C504 1.434 . S
C506 C507 1.369 . S
C506 C508 1.419 . S
C506 H510 0.930 . S
C507 C506 1.369 . S
C507 C516 1.429 . S
C508 C506 1.419 . S
C508 C509 1.363 . S
C508 H511 0.929 . S
C509 C508 1.363 . S
C509 C515 1.428 . S
H510 C506 0.930 . S
H511 C508 0.929 . S
S512 N513 1.613 . S
S512 N514 1.610 . S
N513 S512 1.613 . S
N513 C516 1.350 . S
N514 S512 1.610 . S
N514 C515 1.351 . S
C515 C509 1.428 . S
C515 N514 1.351 . S
C515 C516 1.434 . S
C516 C507 1.429 . S
C516 N513 1.350 . S
C516 C515 1.434 . S
C517 C518 1.369 . S
C517 C519 1.419 . S
C517 H521 0.930 . S
C518 C517 1.369 . S
C518 C527 1.429 . S
C519 C517 1.419 . S
C519 C520 1.363 . S
C519 H522 0.929 . S
C520 C519 1.363 . S
C520 C526 1.428 . S
H521 C517 0.930 . S
H522 C519 0.929 . S
S523 N524 1.613 . S
S523 N525 1.610 . S
N524 S523 1.613 . S
N524 C527 1.350 . S
N525 S523 1.610 . S
N525 C526 1.351 . S
C526 C520 1.428 . S
C526 N525 1.351 . S
C526 C527 1.434 . S
C527 C518 1.429 . S
C527 N524 1.350 . S
C527 C526 1.434 . S
C528 C529 1.369 1_455 S
C528 C530 1.419 . S
C528 H532 0.930 1_455 S
C529 C528 1.369 1_655 S
C529 C538 1.429 1_556 S
C530 C528 1.419 . S
C530 C531 1.363 1_556 S
C530 H533 0.929 . S
C531 C530 1.363 1_554 S
C531 C537 1.428 . S
H532 C528 0.930 1_655 S
H533 C530 0.929 . S
S534 N535 1.613 1_455 S
S534 N536 1.610 . S
N535 S534 1.613 1_655 S
N535 C538 1.359 . S
N536 S534 1.610 . S
N536 C537 1.351 . S
C537 C531 1.428 . S
C537 N536 1.351 . S
C537 C538 1.424 1_455 S
C538 C529 1.429 1_554 S
C538 N535 1.359 . S
C538 C537 1.424 1_655 S
C539 C540 1.369 . S
C539 C541 1.419 . S
C539 H543 0.930 . S
C540 C539 1.369 . S
C540 C549 1.429 1_556 S
C541 C539 1.419 . S
C541 C542 1.363 1_556 S
C541 H544 0.929 . S
C542 C541 1.363 1_554 S
C542 C548 1.428 . S
H543 C539 0.930 . S
H544 C541 0.929 . S
S545 N546 1.613 . S
S545 N547 1.610 . S
N546 S545 1.613 . S
N546 C549 1.350 . S
N547 S545 1.610 . S
N547 C548 1.351 . S
C548 C542 1.428 . S
C548 N547 1.351 . S
C548 C549 1.434 . S
C549 C540 1.429 1_554 S
C549 N546 1.350 . S
C549 C548 1.434 . S
C550 C551 1.369 . S
C550 C552 1.419 . S
C550 H554 0.930 . S
C551 C550 1.369 . S
C551 C560 1.429 1_556 S
C552 C550 1.419 . S
C552 C553 1.363 1_546 S
C552 H555 0.929 1_545 S
C553 C552 1.363 1_564 S
C553 C559 1.428 1_565 S
H554 C550 0.930 . S
H555 C552 0.929 1_565 S
S556 N557 1.613 . S
S556 N558 1.610 1_545 S
N557 S556 1.613 . S
N557 C560 1.350 . S
N558 S556 1.610 1_565 S
N558 C559 1.351 1_565 S
C559 C553 1.428 1_545 S
C559 N558 1.351 1_545 S
C559 C560 1.434 . S
C560 C551 1.429 1_554 S
C560 N557 1.350 . S
C560 C559 1.434 . S
C561 C562 1.369 1_554 S
C561 C563 1.419 . S
C561 H565 0.930 . S
C562 C561 1.369 1_556 S
C562 C571 1.429 . S
C563 C561 1.419 . S
C563 C564 1.363 1_545 S
C563 H566 0.929 1_545 S
C564 C563 1.363 1_565 S
C564 C570 1.462 1_554 S
H565 C561 0.930 . S
H566 C563 0.929 1_565 S
S567 N568 1.613 . S
S567 N569 1.610 1_545 S
N568 S567 1.613 . S
N568 C571 1.350 . S
N569 S567 1.610 1_565 S
N569 C570 1.351 . S
C570 C564 1.462 1_556 S
C570 N569 1.351 . S
C570 C571 1.396 1_565 S
C571 C562 1.429 . S
C571 N568 1.350 . S
C571 C570 1.396 1_545 S
C572 C573 1.367 1_556 S
C572 C574 1.420 . S
C572 H576 0.930 . S
C573 C572 1.367 1_554 S
C573 C582 1.429 . S
C574 C572 1.420 . S
C574 C575 1.363 1_455 S
C574 H577 0.929 1_455 S
C575 C574 1.363 1_655 S
C575 C581 1.430 1_655 S
H576 C572 0.930 . S
H577 C574 0.929 1_655 S
S578 N579 1.613 . S
S578 N580 1.610 1_454 S
N579 S578 1.613 . S
N579 C582 1.350 . S
N580 S578 1.610 1_656 S
N580 C581 1.351 1_655 S
C581 C575 1.430 1_455 S
C581 N580 1.351 1_455 S
C581 C582 1.433 1_556 S
C582 C573 1.429 . S
C582 N579 1.350 . S
C582 C581 1.433 1_554 S
C583 C584 1.369 1_556 S
C583 C585 1.419 . S
C583 H587 0.930 . S
C584 C583 1.369 1_554 S
C584 C593 1.429 . S
C585 C583 1.419 . S
C585 C586 1.363 . S
C585 H588 0.929 . S
C586 C585 1.363 . S
C586 C592 1.428 1_556 S
H587 C583 0.930 . S
H588 C585 0.929 . S
S589 N590 1.613 . S
S589 N591 1.610 . S
N590 S589 1.613 . S
N590 C593 1.350 . S
N591 S589 1.610 . S
N591 C592 1.351 . S
C592 C586 1.428 1_554 S
C592 N591 1.351 . S
C592 C593 1.434 . S
C593 C584 1.429 . S
C593 N590 1.350 . S
C593 C592 1.434 . S
C594 C595 1.369 . S
C594 C596 1.419 . S
C594 H598 0.930 . S
C595 C594 1.369 . S
C595 C604 1.429 . S
C596 C594 1.419 . S
C596 C597 1.363 . S
C596 H599 0.929 . S
C597 C596 1.363 . S
C597 C603 1.428 . S
H598 C594 0.930 . S
H599 C596 0.929 . S
S600 N601 1.613 . S
S600 N602 1.610 . S
N601 S600 1.613 . S
N601 C604 1.350 . S
N602 S600 1.610 . S
N602 C603 1.351 . S
C603 C597 1.428 . S
C603 N602 1.351 . S
C603 C604 1.434 . S
C604 C595 1.429 . S
C604 N601 1.350 . S
C604 C603 1.434 . S
C605 C606 1.369 . S
C605 C607 1.419 . S
C605 H609 0.930 . S
C606 C605 1.369 . S
C606 C615 1.429 . S
C607 C605 1.419 . S
C607 C608 1.363 . S
C607 H610 0.929 . S
C608 C607 1.363 . S
C608 C614 1.428 . S
H609 C605 0.930 . S
H610 C607 0.929 . S
S611 N612 1.613 . S
S611 N613 1.610 . S
N612 S611 1.613 . S
N612 C615 1.350 . S
N613 S611 1.610 . S
N613 C614 1.351 . S
C614 C608 1.428 . S
C614 N613 1.351 . S
C614 C615 1.434 . S
C615 C606 1.429 . S
C615 N612 1.350 . S
C615 C614 1.434 . S
C616 C617 1.369 . S
C616 C618 1.419 . S
C616 H620 0.930 . S
C617 C616 1.369 . S
C617 C626 1.429 . S
C618 C616 1.419 . S
C618 C619 1.363 . S
C618 H621 0.929 . S
C619 C618 1.363 . S
C619 C625 1.428 . S
H620 C616 0.930 . S
H621 C618 0.929 . S
S622 N623 1.613 . S
S622 N624 1.610 . S
N623 S622 1.613 . S
N623 C626 1.350 . S
N624 S622 1.610 . S
N624 C625 1.351 . S
C625 C619 1.428 . S
C625 N624 1.351 . S
C625 C626 1.434 . S
C626 C617 1.429 . S
C626 N623 1.350 . S
C626 C625 1.434 . S
C627 C628 1.369 . S
C627 C629 1.419 . S
C627 H631 0.930 . S
C628 C627 1.369 . S
C628 C637 1.429 . S
C629 C627 1.419 . S
C629 C630 1.363 . S
C629 H632 0.929 . S
C630 C629 1.363 . S
C630 C636 1.428 . S
H631 C627 0.930 . S
H632 C629 0.929 . S
S633 N634 1.613 . S
S633 N635 1.610 . S
N634 S633 1.613 . S
N634 C637 1.350 . S
N635 S633 1.610 . S
N635 C636 1.351 . S
C636 C630 1.428 . S
C636 N635 1.351 . S
C636 C637 1.434 . S
C637 C628 1.429 . S
C637 N634 1.350 . S
C637 C636 1.434 . S
C638 C639 1.369 . S
C638 C640 1.419 . S
C638 H642 0.930 . S
C639 C638 1.369 . S
C639 C648 1.429 . S
C640 C638 1.419 . S
C640 C641 1.363 . S
C640 H643 0.929 . S
C641 C640 1.363 . S
C641 C647 1.428 . S
H642 C638 0.930 . S
H643 C640 0.929 . S
S644 N645 1.613 . S
S644 N646 1.610 . S
N645 S644 1.613 . S
N645 C648 1.350 . S
N646 S644 1.610 . S
N646 C647 1.351 . S
C647 C641 1.428 . S
C647 N646 1.351 . S
C647 C648 1.434 . S
C648 C639 1.429 . S
C648 N645 1.350 . S
C648 C647 1.434 . S
C649 C650 1.369 . S
C649 C651 1.419 . S
C649 H653 0.930 . S
C650 C649 1.369 . S
C650 C659 1.429 . S
C651 C649 1.419 . S
C651 C652 1.363 . S
C651 H654 0.929 . S
C652 C651 1.363 . S
C652 C658 1.428 . S
H653 C649 0.930 . S
H654 C651 0.929 . S
S655 N656 1.613 . S
S655 N657 1.610 . S
N656 S655 1.613 . S
N656 C659 1.350 . S
N657 S655 1.610 . S
N657 C658 1.351 . S
C658 C652 1.428 . S
C658 N657 1.351 . S
C658 C659 1.434 . S
C659 C650 1.429 . S
C659 N656 1.350 . S
C659 C658 1.434 . S
C660 C661 1.369 . S
C660 C662 1.419 . S
C660 H664 0.930 . S
C661 C660 1.369 . S
C661 C670 1.429 . S
C662 C660 1.419 . S
C662 C663 1.363 . S
C662 H665 0.929 . S
C663 C662 1.363 . S
C663 C669 1.428 . S
H664 C660 0.930 . S
H665 C662 0.929 . S
S666 N667 1.613 . S
S666 N668 1.610 . S
N667 S666 1.613 . S
N667 C670 1.350 1_554 S
N668 S666 1.610 . S
N668 C669 1.351 1_554 S
C669 C663 1.428 . S
C669 N668 1.351 1_556 S
C669 C670 1.434 . S
C670 C661 1.429 . S
C670 N667 1.350 1_556 S
C670 C669 1.434 . S
C671 C672 1.369 . S
C671 C673 1.419 . S
C671 H675 0.930 1_556 S
C672 C671 1.369 . S
C672 C681 1.429 . S
C673 C671 1.419 . S
C673 C674 1.363 . S
C673 H676 0.929 1_556 S
C674 C673 1.363 . S
C674 C680 1.428 . S
H675 C671 0.930 1_554 S
H676 C673 0.929 1_554 S
S677 N678 1.613 . S
S677 N679 1.610 . S
N678 S677 1.613 . S
N678 C681 1.350 . S
N679 S677 1.610 . S
N679 C680 1.351 . S
C680 C674 1.428 . S
C680 N679 1.351 . S
C680 C681 1.434 . S
C681 C672 1.429 . S
C681 N678 1.350 . S
C681 C680 1.434 . S
C682 C683 1.369 . S
C682 C684 1.419 . S
C682 H686 0.930 . S
C683 C682 1.369 . S
C683 C692 1.429 . S
C684 C682 1.419 . S
C684 C685 1.363 . S
C684 H687 0.929 . S
C685 C684 1.363 . S
C685 C691 1.428 . S
H686 C682 0.930 . S
H687 C684 0.929 . S
S688 N689 1.613 . S
S688 N690 1.610 . S
N689 S688 1.613 . S
N689 C692 1.350 . S
N690 S688 1.610 . S
N690 C691 1.351 . S
C691 C685 1.428 . S
C691 N690 1.351 . S
C691 C692 1.434 . S
C692 C683 1.429 . S
C692 N689 1.350 . S
C692 C691 1.434 . S
C693 C694 1.369 . S
C693 C695 1.419 . S
C693 H697 0.930 . S
C694 C693 1.369 . S
C694 C703 1.429 . S
C695 C693 1.419 . S
C695 C696 1.363 . S
C695 H698 0.929 . S
C696 C695 1.363 . S
C696 C702 1.428 . S
H697 C693 0.930 . S
H698 C695 0.929 . S
S699 N700 1.613 . S
S699 N701 1.610 . S
N700 S699 1.613 . S
N700 C703 1.350 . S
N701 S699 1.610 . S
N701 C702 1.351 . S
C702 C696 1.428 . S
C702 N701 1.351 . S
C702 C703 1.434 . S
C703 C694 1.429 . S
C703 N700 1.350 . S
C703 C702 1.434 . S
C704 C705 1.369 . S
C704 C706 1.419 . S
C704 H708 0.930 . S
C705 C704 1.369 . S
C705 C714 1.429 . S
C706 C704 1.419 . S
C706 C707 1.363 . S
C706 H709 0.929 . S
C707 C706 1.363 . S
C707 C713 1.428 . S
H708 C704 0.930 . S
H709 C706 0.929 . S
S710 N711 1.613 . S
S710 N712 1.610 . S
N711 S710 1.613 . S
N711 C714 1.350 . S
N712 S710 1.610 . S
N712 C713 1.351 . S
C713 C707 1.428 . S
C713 N712 1.351 . S
C713 C714 1.434 . S
C714 C705 1.429 . S
C714 N711 1.350 . S
C714 C713 1.434 . S
C715 C716 1.369 . S
C715 C717 1.419 . S
C715 H719 0.930 . S
C716 C715 1.369 . S
C716 C725 1.429 . S
C717 C715 1.419 . S
C717 C718 1.363 . S
C717 H720 0.929 . S
C718 C717 1.363 . S
C718 C724 1.428 . S
H719 C715 0.930 . S
H720 C717 0.929 . S
S721 N722 1.613 . S
S721 N723 1.610 . S
N722 S721 1.613 . S
N722 C725 1.350 . S
N723 S721 1.610 . S
N723 C724 1.351 . S
C724 C718 1.428 . S
C724 N723 1.351 . S
C724 C725 1.434 . S
C725 C716 1.429 . S
C725 N722 1.350 . S
C725 C724 1.434 . S
C726 C727 1.369 . S
C726 C728 1.419 . S
C726 H730 0.930 . S
C727 C726 1.369 . S
C727 C736 1.429 . S
C728 C726 1.419 . S
C728 C729 1.363 . S
C728 H731 0.929 . S
C729 C728 1.363 . S
C729 C735 1.428 . S
H730 C726 0.930 . S
H731 C728 0.929 . S
S732 N733 1.613 . S
S732 N734 1.610 . S
N733 S732 1.613 . S
N733 C736 1.350 . S
N734 S732 1.610 . S
N734 C735 1.351 . S
C735 C729 1.428 . S
C735 N734 1.351 . S
C735 C736 1.434 . S
C736 C727 1.429 . S
C736 N733 1.350 . S
C736 C735 1.434 . S
C737 C738 1.369 . S
C737 C739 1.419 . S
C737 H741 0.930 . S
C738 C737 1.369 . S
C738 C747 1.429 . S
C739 C737 1.419 . S
C739 C740 1.363 . S
C739 H742 0.929 . S
C740 C739 1.363 . S
C740 C746 1.428 . S
H741 C737 0.930 . S
H742 C739 0.929 . S
S743 N744 1.613 . S
S743 N745 1.610 . S
N744 S743 1.613 . S
N744 C747 1.350 1_556 S
N745 S743 1.610 . S
N745 C746 1.351 1_556 S
C746 C740 1.428 . S
C746 N745 1.351 1_554 S
C746 C747 1.434 . S
C747 C738 1.429 . S
C747 N744 1.350 1_554 S
C747 C746 1.434 . S
C748 C749 1.369 . S
C748 C750 1.419 . S
C748 H752 0.930 . S
C749 C748 1.369 . S
C749 C758 1.429 . S
C750 C748 1.419 . S
C750 C751 1.363 . S
C750 H753 0.929 . S
C751 C750 1.363 . S
C751 C757 1.428 . S
H752 C748 0.930 . S
H753 C750 0.929 . S
S754 N755 1.613 . S
S754 N756 1.610 . S
N755 S754 1.613 . S
N755 C758 1.350 . S
N756 S754 1.610 . S
N756 C757 1.351 . S
C757 C751 1.428 . S
C757 N756 1.351 . S
C757 C758 1.434 . S
C758 C749 1.429 . S
C758 N755 1.350 . S
C758 C757 1.434 . S
C759 C760 1.369 . S
C759 C761 1.419 . S
C759 H763 0.930 . S
C760 C759 1.369 . S
C760 C769 1.429 . S
C761 C759 1.419 . S
C761 C762 1.363 . S
C761 H764 0.929 . S
C762 C761 1.363 . S
C762 C768 1.428 . S
H763 C759 0.930 . S
H764 C761 0.929 . S
S765 N766 1.613 . S
S765 N767 1.610 . S
N766 S765 1.613 . S
N766 C769 1.350 . S
N767 S765 1.610 . S
N767 C768 1.351 . S
C768 C762 1.428 . S
C768 N767 1.351 . S
C768 C769 1.434 . S
C769 C760 1.429 . S
C769 N766 1.350 . S
C769 C768 1.434 . S
C770 C771 1.369 . S
C770 C772 1.419 . S
C770 H774 0.930 1_554 S
C771 C770 1.369 . S
C771 C780 1.429 . S
C772 C770 1.419 . S
C772 C773 1.363 . S
C772 H775 0.929 1_554 S
C773 C772 1.363 . S
C773 C779 1.428 . S
H774 C770 0.930 1_556 S
H775 C772 0.929 1_556 S
S776 N777 1.613 . S
S776 N778 1.610 . S
N777 S776 1.613 . S
N777 C780 1.350 . S
N778 S776 1.610 . S
N778 C779 1.351 . S
C779 C773 1.428 . S
C779 N778 1.351 . S
C779 C780 1.434 . S
C780 C771 1.429 . S
C780 N777 1.350 . S
C780 C779 1.434 . S
C781 C782 1.369 . S
C781 C783 1.419 . S
C781 H785 0.930 . S
C782 C781 1.369 . S
C782 C791 1.429 . S
C783 C781 1.419 . S
C783 C784 1.363 . S
C783 H786 0.929 . S
C784 C783 1.363 . S
C784 C790 1.428 . S
H785 C781 0.930 . S
H786 C783 0.929 . S
S787 N788 1.613 . S
S787 N789 1.610 . S
N788 S787 1.613 . S
N788 C791 1.350 . S
N789 S787 1.610 . S
N789 C790 1.351 . S
C790 C784 1.428 . S
C790 N789 1.351 . S
C790 C791 1.434 . S
C791 C782 1.429 . S
C791 N788 1.350 . S
C791 C790 1.434 . S
C792 C793 1.369 1_655 S
C792 C794 1.419 1_554 S
C792 H796 0.930 . S
C793 C792 1.369 1_455 S
C793 C802 1.429 . S
C794 C792 1.419 1_556 S
C794 C795 1.363 1_655 S
C794 H797 0.929 . S
C795 C794 1.363 1_455 S
C795 C801 1.428 . S
H796 C792 0.930 . S
H797 C794 0.929 . S
S798 N799 1.613 . S
S798 N800 1.610 1_554 S
N799 S798 1.613 . S
N799 C802 1.350 . S
N800 S798 1.610 1_556 S
N800 C801 1.351 . S
C801 C795 1.428 . S
C801 N800 1.351 . S
C801 C802 1.434 1_556 S
C802 C793 1.429 . S
C802 N799 1.350 . S
C802 C801 1.434 1_554 S
C803 C804 1.369 . S
C803 C805 1.419 1_554 S
C803 H807 0.930 . S
C804 C803 1.369 . S
C804 C813 1.429 . S
C805 C803 1.419 1_556 S
C805 C806 1.363 . S
C805 H808 0.929 . S
C806 C805 1.363 . S
C806 C812 1.428 . S
H807 C803 0.930 . S
H808 C805 0.929 . S
S809 N810 1.613 1_556 S
S809 N811 1.610 . S
N810 S809 1.613 1_554 S
N810 C813 1.350 . S
N811 S809 1.610 . S
N811 C812 1.351 . S
C812 C806 1.428 . S
C812 N811 1.351 . S
C812 C813 1.434 1_556 S
C813 C804 1.429 . S
C813 N810 1.350 . S
C813 C812 1.434 1_554 S
C814 C815 1.369 . S
C814 C816 1.419 1_554 S
C814 H818 0.930 . S
C815 C814 1.369 . S
C815 C824 1.429 1_545 S
C816 C814 1.419 1_556 S
C816 C817 1.363 . S
C816 H819 0.929 . S
C817 C816 1.363 . S
C817 C823 1.428 1_545 S
H818 C814 0.930 . S
H819 C816 0.929 . S
S820 N821 1.613 . S
S820 N822 1.610 1_554 S
N821 S820 1.613 . S
N821 C824 1.350 . S
N822 S820 1.610 1_556 S
N822 C823 1.351 . S
C823 C817 1.428 1_565 S
C823 N822 1.351 . S
C823 C824 1.434 1_556 S
C824 C815 1.429 1_565 S
C824 N821 1.350 . S
C824 C823 1.434 1_554 S
C825 C826 1.369 . S
C825 C827 1.419 1_556 S
C825 H829 0.930 . S
C826 C825 1.369 . S
C826 C835 1.429 . S
C827 C825 1.419 1_554 S
C827 C828 1.363 . S
C827 H830 0.929 . S
C828 C827 1.363 . S
C828 C834 1.428 . S
H829 C825 0.930 . S
H830 C827 0.929 . S
S831 N832 1.613 1_554 S
S831 N833 1.610 . S
N832 S831 1.613 1_556 S
N832 C835 1.350 . S
N833 S831 1.610 . S
N833 C834 1.351 . S
C834 C828 1.428 . S
C834 N833 1.351 . S
C834 C835 1.434 1_554 S
C835 C826 1.429 . S
C835 N832 1.350 . S
C835 C834 1.434 1_556 S
C836 C837 1.369 . S
C836 C838 1.419 1_554 S
C836 H840 0.930 . S
C837 C836 1.369 . S
C837 C846 1.429 . S
C838 C836 1.419 1_556 S
C838 C839 1.363 . S
C838 H841 0.929 . S
C839 C838 1.363 . S
C839 C845 1.428 . S
H840 C836 0.930 . S
H841 C838 0.929 . S
S842 N843 1.613 . S
S842 N844 1.610 1_554 S
N843 S842 1.613 . S
N843 C846 1.350 . S
N844 S842 1.610 1_556 S
N844 C845 1.351 . S
C845 C839 1.428 . S
C845 N844 1.351 . S
C845 C846 1.434 1_556 S
C846 C837 1.429 . S
C846 N843 1.350 . S
C846 C845 1.434 1_554 S
C847 C848 1.375 . S
C847 C849 1.418 1_544 S
C847 H851 0.925 1_545 S
C848 C847 1.375 . S
C848 C857 1.429 . S
C849 C847 1.418 1_566 S
C849 C850 1.354 1_565 S
C849 H852 0.939 . S
C850 C849 1.354 1_545 S
C850 C856 1.428 . S
H851 C847 0.925 1_565 S
H852 C849 0.939 . S
S853 N854 1.613 1_556 S
S853 N855 1.610 . S
N854 S853 1.613 1_554 S
N854 C857 1.350 . S
N855 S853 1.610 . S
N855 C856 1.351 . S
C856 C850 1.428 . S
C856 N855 1.351 . S
C856 C857 1.434 1_556 S
C857 C848 1.429 . S
C857 N854 1.350 . S
C857 C856 1.434 1_554 S
C858 C859 1.369 . S
C858 C860 1.419 . S
C858 H862 0.930 . S
C859 C858 1.369 . S
C859 C868 1.429 . S
C860 C858 1.419 . S
C860 C861 1.363 . S
C860 H863 0.929 . S
C861 C860 1.363 . S
C861 C867 1.428 . S
H862 C858 0.930 . S
H863 C860 0.929 . S
S864 N865 1.613 . S
S864 N866 1.610 . S
N865 S864 1.613 . S
N865 C868 1.350 . S
N866 S864 1.610 . S
N866 C867 1.351 . S
C867 C861 1.428 . S
C867 N866 1.351 . S
C867 C868 1.434 . S
C868 C859 1.429 . S
C868 N865 1.350 . S
C868 C867 1.434 . S
C869 C870 1.369 . S
C869 C871 1.419 . S
C869 H873 0.930 . S
C870 C869 1.369 . S
C870 C879 1.429 . S
C871 C869 1.419 . S
C871 C872 1.363 . S
C871 H874 0.929 . S
C872 C871 1.363 . S
C872 C878 1.428 . S
H873 C869 0.930 . S
H874 C871 0.929 . S
S875 N876 1.613 . S
S875 N877 1.610 . S
N876 S875 1.613 . S
N876 C879 1.350 . S
N877 S875 1.610 . S
N877 C878 1.351 . S
C878 C872 1.428 . S
C878 N877 1.351 . S
C878 C879 1.434 . S
C879 C870 1.429 . S
C879 N876 1.350 . S
C879 C878 1.434 . S
C880 C881 1.369 . S
C880 C882 1.419 . S
C880 H884 0.930 . S
C881 C880 1.369 . S
C881 C890 1.429 . S
C882 C880 1.419 . S
C882 C883 1.363 . S
C882 H885 0.929 . S
C883 C882 1.363 . S
C883 C889 1.428 . S
H884 C880 0.930 . S
H885 C882 0.929 . S
S886 N887 1.613 . S
S886 N888 1.610 . S
N887 S886 1.613 . S
N887 C890 1.350 . S
N888 S886 1.610 . S
N888 C889 1.351 . S
C889 C883 1.428 . S
C889 N888 1.351 . S
C889 C890 1.434 . S
C890 C881 1.429 . S
C890 N887 1.350 . S
C890 C889 1.434 . S
C891 C892 1.369 . S
C891 C893 1.419 . S
C891 H895 0.930 . S
C892 C891 1.369 . S
C892 C901 1.429 . S
C893 C891 1.419 . S
C893 C894 1.363 . S
C893 H896 0.929 . S
C894 C893 1.363 . S
C894 C900 1.428 . S
H895 C891 0.930 . S
H896 C893 0.929 . S
S897 N898 1.613 . S
S897 N899 1.610 . S
N898 S897 1.613 . S
N898 C901 1.350 . S
N899 S897 1.610 . S
N899 C900 1.351 . S
C900 C894 1.428 . S
C900 N899 1.351 . S
C900 C901 1.434 . S
C901 C892 1.429 . S
C901 N898 1.350 . S
C901 C900 1.434 . S
C902 C903 1.369 . S
C902 C904 1.419 . S
C902 H906 0.930 . S
C903 C902 1.369 . S
C903 C912 1.429 . S
C904 C902 1.419 . S
C904 C905 1.363 . S
C904 H907 0.929 . S
C905 C904 1.363 . S
C905 C911 1.428 . S
H906 C902 0.930 . S
H907 C904 0.929 . S
S908 N909 1.613 . S
S908 N910 1.610 . S
N909 S908 1.613 . S
N909 C912 1.350 . S
N910 S908 1.610 . S
N910 C911 1.351 . S
C911 C905 1.428 . S
C911 N910 1.351 . S
C911 C912 1.434 . S
C912 C903 1.429 . S
C912 N909 1.350 . S
C912 C911 1.434 . S
C913 C914 1.369 . S
C913 C915 1.419 . S
C913 H917 0.930 . S
C914 C913 1.369 . S
C914 C923 1.429 . S
C915 C913 1.419 . S
C915 C916 1.363 . S
C915 H918 0.929 . S
C916 C915 1.363 . S
C916 C922 1.428 . S
H917 C913 0.930 . S
H918 C915 0.929 . S
S919 N920 1.613 . S
S919 N921 1.610 . S
N920 S919 1.613 . S
N920 C923 1.350 . S
N921 S919 1.610 . S
N921 C922 1.351 . S
C922 C916 1.428 . S
C922 N921 1.351 . S
C922 C923 1.434 . S
C923 C914 1.429 . S
C923 N920 1.350 . S
C923 C922 1.434 . S
C924 C925 1.369 . S
C924 C926 1.419 . S
C924 H928 0.930 . S
C925 C924 1.369 . S
C925 C934 1.429 . S
C926 C924 1.419 . S
C926 C927 1.363 . S
C926 H929 0.929 . S
C927 C926 1.363 . S
C927 C933 1.428 . S
H928 C924 0.930 . S
H929 C926 0.929 . S
S930 N931 1.613 . S
S930 N932 1.610 . S
N931 S930 1.613 . S
N931 C934 1.350 . S
N932 S930 1.610 . S
N932 C933 1.351 . S
C933 C927 1.428 . S
C933 N932 1.351 . S
C933 C934 1.434 . S
C934 C925 1.429 . S
C934 N931 1.350 . S
C934 C933 1.434 . S
C935 C936 1.369 . S
C935 C937 1.419 . S
C935 H939 0.930 . S
C936 C935 1.369 . S
C936 C945 1.429 . S
C937 C935 1.419 . S
C937 C938 1.363 . S
C937 H940 0.929 . S
C938 C937 1.363 . S
C938 C944 1.428 . S
H939 C935 0.930 . S
H940 C937 0.929 . S
S941 N942 1.613 . S
S941 N943 1.610 . S
N942 S941 1.613 . S
N942 C945 1.350 . S
N943 S941 1.610 . S
N943 C944 1.351 . S
C944 C938 1.428 . S
C944 N943 1.351 . S
C944 C945 1.434 . S
C945 C936 1.429 . S
C945 N942 1.350 . S
C945 C944 1.434 . S
C946 C947 1.369 . S
C946 C948 1.419 . S
C946 H950 0.930 . S
C947 C946 1.369 . S
C947 C956 1.429 . S
C948 C946 1.419 . S
C948 C949 1.363 . S
C948 H951 0.929 . S
C949 C948 1.363 . S
C949 C955 1.428 . S
H950 C946 0.930 . S
H951 C948 0.929 . S
S952 N953 1.613 . S
S952 N954 1.610 . S
N953 S952 1.613 . S
N953 C956 1.350 . S
N954 S952 1.610 . S
N954 C955 1.351 . S
C955 C949 1.428 . S
C955 N954 1.351 . S
C955 C956 1.434 . S
C956 C947 1.429 . S
C956 N953 1.350 . S
C956 C955 1.434 . S
C957 C958 1.369 . S
C957 C959 1.419 . S
C957 H961 0.930 . S
C958 C957 1.369 . S
C958 C967 1.429 . S
C959 C957 1.419 . S
C959 C960 1.363 . S
C959 H962 0.929 . S
C960 C959 1.363 . S
C960 C966 1.428 . S
H961 C957 0.930 . S
H962 C959 0.929 . S
S963 N964 1.613 . S
S963 N965 1.610 . S
N964 S963 1.613 . S
N964 C967 1.350 . S
N965 S963 1.610 . S
N965 C966 1.351 . S
C966 C960 1.428 . S
C966 N965 1.351 . S
C966 C967 1.434 . S
C967 C958 1.429 . S
C967 N964 1.350 . S
C967 C966 1.434 . S
C968 C969 1.369 . S
C968 C970 1.419 . S
C968 H972 0.930 . S
C969 C968 1.369 . S
C969 C978 1.429 . S
C970 C968 1.419 . S
C970 C971 1.363 . S
C970 H973 0.929 . S
C971 C970 1.363 . S
C971 C977 1.428 . S
H972 C968 0.930 . S
H973 C970 0.929 . S
S974 N975 1.613 . S
S974 N976 1.610 . S
N975 S974 1.613 . S
N975 C978 1.350 . S
N976 S974 1.610 . S
N976 C977 1.351 . S
C977 C971 1.428 . S
C977 N976 1.351 . S
C977 C978 1.434 . S
C978 C969 1.429 . S
C978 N975 1.350 . S
C978 C977 1.434 . S
C979 C980 1.369 . S
C979 C981 1.419 . S
C979 H983 0.930 . S
C980 C979 1.369 . S
C980 C989 1.429 . S
C981 C979 1.419 . S
C981 C982 1.363 . S
C981 H984 0.929 . S
C982 C981 1.363 . S
C982 C988 1.428 . S
H983 C979 0.930 . S
H984 C981 0.929 . S
S985 N986 1.613 . S
S985 N987 1.610 . S
N986 S985 1.613 . S
N986 C989 1.350 . S
N987 S985 1.610 . S
N987 C988 1.351 . S
C988 C982 1.428 . S
C988 N987 1.351 . S
C988 C989 1.434 . S
C989 C980 1.429 . S
C989 N986 1.350 . S
C989 C988 1.434 . S
C397 C293 1.312 . S
C399 C8 1.328 . S
C408 C32 1.304 . S
C410 C316 1.305 . S
C419 C59 1.328 . S
C421 C279 1.336 . S
C430 C54 1.302 . S
C432 C172 1.296 . S
C441 C184 1.325 . S
C443 C21 1.306 . S
C452 C37 1.315 . S
C454 C150 1.340 . S
C463 C74 1.288 . S
C465 C228 1.283 . S
C474 C98 1.294 . S
C476 C250 1.300 . S
C485 C206 1.324 . S
C487 C131 1.305 . S
C496 C362 1.306 . S
C498 C118 1.304 . S
C507 C87 1.330 . S
C509 C395 1.333 . S
C518 C338 1.331 . S
C520 C103 1.309 . S
C529 C197 1.317 . S
C531 C304 1.330 . S
C540 C139 1.344 . S
C542 C329 1.338 . S
C551 C161 1.303 . S
C553 C274 1.318 . S
C562 C219 1.354 . S
C564 C367 1.354 . S
C573 C382 1.334 . S
C575 C241 1.315 . S
C584 C351 1.338 . S
C586 C263 1.340 . S
C595 C18 1.537 . S
C597 C95 1.531 . S
C606 C128 1.540 . S
C608 C30 1.540 . S
C617 C81 1.528 . S
C619 C51 1.528 . S
C628 C96 1.540 . S
C630 C52 1.540 . S
C639 C125 1.564 . S
C641 C15 1.564 . S
C650 C84 1.556 . S
C652 C29 1.548 . S
C661 C238 1.538 . S
C663 C142 1.536 . S
C672 C260 1.552 . S
C674 C164 1.552 . S
C683 C216 1.525 . S
C685 C194 1.525 . S
C694 C235 1.561 . S
C696 C191 1.561 . S
C705 C257 1.533 . S
C707 C153 1.533 . S
C716 C213 1.546 . S
C718 C175 1.550 . S
C727 C359 1.527 . S
C729 C272 1.537 . S
C738 C392 1.522 . S
C740 C296 1.522 . S
C749 C323 1.546 . S
C751 C345 1.546 . S
C760 C326 1.558 . S
C762 C360 1.558 . S
C771 C271 1.547 . S
C773 C389 1.547 . S
C782 C348 1.554 . S
C784 C307 1.548 . S
C793 C10 1.565 . S
C795 C7 1.572 . S
C804 C40 1.572 . S
C806 C43 1.576 . S
C815 C65 1.575 . S
C817 C62 1.568 . S
C826 C76 1.571 . S
C828 C73 1.576 . S
C837 C109 1.575 . S
C839 C106 1.567 . S
C848 C120 1.569 . S
C850 C117 1.576 . S
C859 C147 1.576 . S
C861 C140 1.569 . S
C870 C162 1.572 . S
C872 C169 1.576 . S
C881 C183 1.578 . S
C883 C186 1.571 . S
C892 C205 1.571 . S
C894 C208 1.568 . S
C903 C227 1.578 . S
C905 C230 1.571 . S
C914 C249 1.571 . S
C916 C252 1.567 . S
C925 C285 1.576 . S
C927 C282 1.570 . S
C936 C294 1.572 . S
C938 C301 1.578 . S
C947 C315 1.575 . S
C949 C318 1.569 . S
C958 C337 1.576 . S
C960 C340 1.569 . S
C969 C373 1.572 . S
C971 C370 1.567 . S
C980 C381 1.576 . S
C982 C384 1.569 . S
