# Generated by pormake.
# Topology vmh, (6)-cn, num edge types: 1
# Building blocks:
#     Node 0, Type 0, BuildingBlock: OJICUG_clean_sbu_0, # of connection points: 6
#     Node 1, Type 0, BuildingBlock: OJICUG_clean_sbu_0, # of connection points: 6
#     Node 2, Type 0, BuildingBlock: OJICUG_clean_sbu_0, # of connection points: 6
#     Node 3, Type 0, BuildingBlock: OJICUG_clean_sbu_0, # of connection points: 6
#     Node 4, Type 0, BuildingBlock: OJICUG_clean_sbu_0, # of connection points: 6
#     Node 5, Type 0, BuildingBlock: OJICUG_clean_sbu_0, # of connection points: 6
#     Node 6, Type 0, BuildingBlock: OJICUG_clean_sbu_0, # of connection points: 6
#     Node 7, Type 0, BuildingBlock: OJICUG_clean_sbu_0, # of connection points: 6
#     Edge 8, Type (0, 0), BuildingBlock: TEMPAE_clean_linker_10, # of connection points: 2
#     Edge 9, Type (0, 0), BuildingBlock: TEMPAE_clean_linker_10, # of connection points: 2
#     Edge 10, Type (0, 0), BuildingBlock: TEMPAE_clean_linker_10, # of connection points: 2
#     Edge 11, Type (0, 0), BuildingBlock: TEMPAE_clean_linker_10, # of connection points: 2
#     Edge 12, Type (0, 0), BuildingBlock: TEMPAE_clean_linker_10, # of connection points: 2
#     Edge 13, Type (0, 0), BuildingBlock: TEMPAE_clean_linker_10, # of connection points: 2
#     Edge 14, Type (0, 0), BuildingBlock: TEMPAE_clean_linker_10, # of connection points: 2
#     Edge 15, Type (0, 0), BuildingBlock: TEMPAE_clean_linker_10, # of connection points: 2
#     Edge 16, Type (0, 0), BuildingBlock: TEMPAE_clean_linker_10, # of connection points: 2
#     Edge 17, Type (0, 0), BuildingBlock: TEMPAE_clean_linker_10, # of connection points: 2
#     Edge 18, Type (0, 0), BuildingBlock: TEMPAE_clean_linker_10, # of connection points: 2
#     Edge 19, Type (0, 0), BuildingBlock: TEMPAE_clean_linker_10, # of connection points: 2
#     Edge 20, Type (0, 0), BuildingBlock: TEMPAE_clean_linker_10, # of connection points: 2
#     Edge 21, Type (0, 0), BuildingBlock: TEMPAE_clean_linker_10, # of connection points: 2
#     Edge 22, Type (0, 0), BuildingBlock: TEMPAE_clean_linker_10, # of connection points: 2
#     Edge 23, Type (0, 0), BuildingBlock: TEMPAE_clean_linker_10, # of connection points: 2
#     Edge 24, Type (0, 0), BuildingBlock: TEMPAE_clean_linker_10, # of connection points: 2
#     Edge 25, Type (0, 0), BuildingBlock: TEMPAE_clean_linker_10, # of connection points: 2
#     Edge 26, Type (0, 0), BuildingBlock: TEMPAE_clean_linker_10, # of connection points: 2
#     Edge 27, Type (0, 0), BuildingBlock: TEMPAE_clean_linker_10, # of connection points: 2
#     Edge 28, Type (0, 0), BuildingBlock: TEMPAE_clean_linker_10, # of connection points: 2
#     Edge 29, Type (0, 0), BuildingBlock: TEMPAE_clean_linker_10, # of connection points: 2
#     Edge 30, Type (0, 0), BuildingBlock: TEMPAE_clean_linker_10, # of connection points: 2
#     Edge 31, Type (0, 0), BuildingBlock: TEMPAE_clean_linker_10, # of connection points: 2
# Relax obj value: 0.243
# Max RMSD: 0.270
# Mean RMSD: 0.270
data_MOF--net-vmh--node1-OJICUG_clean_sbu_0--edge1-TEMPAE_clean_linker_10
_symmetry_space_group_name_H-M    P1
_symmetry_Int_Tables_number       1
_symmetry_cell_setting            triclinic
loop_
_symmetry_equiv_pos_as_xyz
'x, y, z'
_cell_length_a     28.774892
_cell_length_b     43.412333
_cell_length_c     29.962105
_cell_angle_alpha  90.057232
_cell_angle_beta   98.298265
_cell_angle_gamma 89.958375
loop_
_atom_site_label
_atom_site_type_symbol
_atom_site_fract_x
_atom_site_fract_y
_atom_site_fract_z
_atom_type_partial_charge
Sc0 Sc 0.25344 0.07831 0.12799 0.0
Sc1 Sc 0.2581 0.02181 0.0458 0.0
Sc2 Sc 0.32325 0.08853 0.04372 0.0
O3 O 0.27763 0.0633 0.07245 0.0
C4 C 0.25619 0.14024 0.06931 0.0
C5 C 0.16406 0.0427 0.08147 0.0
C6 C 0.25172 0.06098 0.95972 0.0
C7 C 0.27618 0.00655 0.14679 0.0
C8 C 0.36222 0.09763 0.14885 0.0
C9 C 0.36196 0.02629 0.02334 0.0
O10 O 0.24681 0.12617 0.10441 0.0
O11 O 0.19052 0.02257 0.06767 0.0
O12 O 0.28845 0.07604 0.9763 0.0
O13 O 0.25941 0.03255 0.15637 0.0
O14 O 0.3638 0.10291 0.10725 0.0
O15 O 0.32138 0.01447 0.01645 0.0
O16 O 0.32529 0.08685 0.16243 0.0
O17 O 0.28555 0.99932 0.10784 0.0
O18 O 0.37037 0.05056 0.04621 0.0
O19 O 0.17987 0.0685 0.0982 0.0
O20 O 0.27948 0.12819 0.04094 0.0
O21 O 0.22967 0.04356 0.98372 0.0
Sc22 Sc 0.77885 0.07569 0.38356 0.0
Sc23 Sc 0.72833 0.02618 0.45209 0.0
Sc24 Sc 0.70542 0.10458 0.45461 0.0
O25 O 0.73816 0.06876 0.43139 0.0
C26 C 0.7921 0.13888 0.43854 0.0
C27 C 0.84042 0.03105 0.44849 0.0
C28 C 0.7374 0.06422 0.54227 0.0
C29 C 0.73591 0.01133 0.35411 0.0
C30 C 0.68243 0.10782 0.34905 0.0
C31 C 0.62572 0.05556 0.44615 0.0
O32 O 0.79323 0.12432 0.40177 0.0
O33 O 0.80267 0.01627 0.45248 0.0
O34 O 0.7185 0.08843 0.52372 0.0
O35 O 0.7703 0.02976 0.35629 0.0
O36 O 0.68712 0.12289 0.38622 0.0
O37 O 0.65377 0.03279 0.45367 0.0
O38 O 0.71414 0.08891 0.3404 0.0
O39 O 0.70942 0.01033 0.38426 0.0
O40 O 0.63955 0.08295 0.44304 0.0
O41 O 0.83971 0.05759 0.42899 0.0
O42 O 0.77032 0.12833 0.46873 0.0
O43 O 0.74594 0.04018 0.52069 0.0
Sc44 Sc 0.77296 0.91422 0.89756 0.0
Sc45 Sc 0.74136 0.98445 0.94582 0.0
Sc46 Sc 0.66871 0.91939 0.94546 0.0
O47 O 0.72824 0.93924 0.93007 0.0
C48 C 0.66994 0.89463 0.84652 0.0
C49 C 0.77475 0.97977 0.84957 0.0
C50 C 0.63286 0.98561 0.91003 0.0
C51 C 0.84381 0.95477 0.96896 0.0
C52 C 0.73996 0.86358 0.96522 0.0
C53 C 0.69979 0.9599 0.03228 0.0
O54 O 0.7141 0.89853 0.84654 0.0
O55 O 0.7613 0.99499 0.88149 0.0
O56 O 0.62709 0.95769 0.92019 0.0
O57 O 0.83578 0.93102 0.94324 0.0
O58 O 0.70337 0.87853 0.97052 0.0
O59 O 0.7225 0.9795 0.01248 0.0
O60 O 0.76923 0.87327 0.94012 0.0
O61 O 0.81248 0.97471 0.97343 0.0
O62 O 0.67957 0.93671 0.01256 0.0
O63 O 0.78065 0.95077 0.85088 0.0
O64 O 0.64999 0.89991 0.88058 0.0
O65 O 0.67194 0.99939 0.91845 0.0
Sc66 Sc 0.25246 0.90821 0.61373 0.0
Sc67 Sc 0.24049 0.97454 0.54585 0.0
Sc68 Sc 0.32727 0.92131 0.53534 0.0
O69 O 0.27315 0.93477 0.5655 0.0
C70 C 0.36764 0.90739 0.6342 0.0
C71 C 0.24267 0.97505 0.65316 0.0
C72 C 0.33826 0.99435 0.53373 0.0
C73 C 0.154 0.93397 0.55818 0.0
C74 C 0.28256 0.85626 0.55192 0.0
C75 C 0.25897 0.94234 0.45309 0.0
O76 O 0.32717 0.89845 0.64297 0.0
O77 O 0.2319 0.98745 0.61444 0.0
O78 O 0.34734 0.96737 0.52131 0.0
O79 O 0.17628 0.91755 0.59013 0.0
O80 O 0.31575 0.87324 0.54304 0.0
O81 O 0.24622 0.96543 0.47502 0.0
O82 O 0.2496 0.86667 0.57198 0.0
O83 O 0.17429 0.95269 0.53513 0.0
O84 O 0.28289 0.92021 0.47222 0.0
O85 O 0.25478 0.94694 0.65844 0.0
O86 O 0.37274 0.92139 0.59795 0.0
O87 O 0.30398 1.0005 0.55414 0.0
Sc88 Sc 0.74935 0.58074 0.12206 0.0
Sc89 Sc 0.75988 0.52275 0.04502 0.0
Sc90 Sc 0.81961 0.59086 0.03848 0.0
O91 O 0.77543 0.56541 0.06811 0.0
C92 C 0.751 0.64201 0.06148 0.0
C93 C 0.66382 0.54197 0.07734 0.0
C94 C 0.74857 0.5596 0.9572 0.0
C95 C 0.77936 0.51124 0.14584 0.0
C96 C 0.8576 0.60118 0.14319 0.0
C97 C 0.8624 0.52964 0.02103 0.0
O98 O 0.74221 0.62841 0.09719 0.0
O99 O 0.69299 0.5216 0.06897 0.0
O100 O 0.78474 0.5758 0.97223 0.0
O101 O 0.75597 0.53541 0.15235 0.0
O102 O 0.85901 0.60705 0.10168 0.0
O103 O 0.82258 0.51683 0.01423 0.0
O104 O 0.82078 0.59009 0.15669 0.0
O105 O 0.79224 0.50429 0.1082 0.0
O106 O 0.86908 0.55423 0.04332 0.0
O107 O 0.67702 0.5692 0.09028 0.0
O108 O 0.77386 0.62951 0.0332 0.0
O109 O 0.7282 0.54204 0.98245 0.0
Sc110 Sc 0.27643 0.57664 0.38309 0.0
Sc111 Sc 0.25156 0.51999 0.45688 0.0
Sc112 Sc 0.19876 0.59074 0.45907 0.0
O113 O 0.24339 0.56311 0.4336 0.0
C114 C 0.27725 0.63751 0.44505 0.0
C115 C 0.35367 0.53349 0.43289 0.0
C116 C 0.26028 0.55733 0.54404 0.0
C117 C 0.23924 0.50901 0.35602 0.0
C118 C 0.1713 0.60198 0.3536 0.0
C119 C 0.14717 0.53275 0.47227 0.0
O120 O 0.28791 0.62382 0.41001 0.0
O121 O 0.32084 0.51501 0.43859 0.0
O122 O 0.22611 0.57448 0.52678 0.0
O123 O 0.26685 0.53156 0.35204 0.0
O124 O 0.16711 0.60875 0.39422 0.0
O125 O 0.18503 0.51787 0.48232 0.0
O126 O 0.20847 0.58918 0.3433 0.0
O127 O 0.22184 0.50327 0.39183 0.0
O128 O 0.14556 0.55671 0.44861 0.0
O129 O 0.34499 0.56131 0.4197 0.0
O130 O 0.24877 0.62653 0.46933 0.0
O131 O 0.28066 0.53824 0.52094 0.0
Sc132 Sc 0.27016 0.40882 0.90052 0.0
Sc133 Sc 0.24235 0.48039 0.94751 0.0
Sc134 Sc 0.16722 0.41694 0.94984 0.0
O135 O 0.22704 0.43528 0.93288 0.0
C136 C 0.16594 0.38788 0.85326 0.0
C137 C 0.27379 0.47305 0.85032 0.0
C138 C 0.13402 0.48324 0.91212 0.0
C139 C 0.34358 0.45018 0.96952 0.0
C140 C 0.23821 0.36084 0.97176 0.0
C141 C 0.20011 0.45829 0.035 0.0
O142 O 0.21028 0.39022 0.8525 0.0
O143 O 0.26405 0.48915 0.88311 0.0
O144 O 0.12683 0.45582 0.92396 0.0
O145 O 0.33467 0.42702 0.94277 0.0
O146 O 0.20107 0.37573 0.97559 0.0
O147 O 0.22273 0.47747 0.01437 0.0
O148 O 0.26793 0.37 0.9468 0.0
O149 O 0.31253 0.46973 0.97622 0.0
O150 O 0.1797 0.43496 0.01611 0.0
O151 O 0.27566 0.44382 0.85107 0.0
O152 O 0.14671 0.39653 0.88634 0.0
O153 O 0.1739 0.49613 0.919 0.0
Sc154 Sc 0.75681 0.40463 0.60631 0.0
Sc155 Sc 0.76989 0.47717 0.55554 0.0
Sc156 Sc 0.85408 0.4195 0.55134 0.0
O157 O 0.79328 0.43363 0.57101 0.0
C158 C 0.86566 0.38967 0.6478 0.0
C159 C 0.74556 0.46816 0.65554 0.0
C160 C 0.87724 0.48809 0.58604 0.0
C161 C 0.67444 0.44109 0.53946 0.0
C162 C 0.79106 0.3589 0.53389 0.0
C163 C 0.81076 0.45739 0.46608 0.0
O164 O 0.82147 0.38763 0.64976 0.0
O165 O 0.74764 0.48418 0.62041 0.0
O166 O 0.88834 0.46169 0.57271 0.0
O167 O 0.68766 0.42006 0.56888 0.0
O168 O 0.82643 0.37554 0.52983 0.0
O169 O 0.78835 0.47598 0.48798 0.0
O170 O 0.76019 0.36673 0.55851 0.0
O171 O 0.70232 0.4611 0.52779 0.0
O172 O 0.83409 0.43496 0.48439 0.0
O173 O 0.75173 0.43914 0.65699 0.0
O174 O 0.88162 0.40189 0.61503 0.0
O175 O 0.83538 0.49778 0.5826 0.0
C176 C 0.26764 0.07335 0.88145 0.0
C177 C 0.23934 0.05906 0.90987 0.0
C178 C 0.26386 0.06534 0.83562 0.0
C179 C 0.23117 0.04252 0.81795 0.0
C180 C 0.19915 0.03061 0.84519 0.0
C181 C 0.20349 0.03909 0.89077 0.0
C182 C 0.29744 0.07935 0.80704 0.0
C183 C 0.16314 0.00665 0.82743 0.0
C184 C 0.21319 0.02032 0.69349 0.0
C185 C 0.24135 0.99385 0.69427 0.0
C186 C 0.21011 0.03702 0.73326 0.0
C187 C 0.23608 0.02707 0.77451 0.0
C188 C 0.26582 1.00102 0.77506 0.0
C189 C 0.26783 0.98467 0.73509 0.0
C190 C 0.17778 0.06452 0.73129 0.0
C191 C 0.29477 0.98986 0.81818 0.0
H192 H 0.29487 0.08927 0.89553 0.0
H193 H 0.18074 0.02834 0.91205 0.0
H194 H 0.32314 0.06167 0.79963 0.0
H195 H 0.27823 0.08719 0.77425 0.0
H196 H 0.31697 0.09919 0.82402 0.0
H197 H 0.13638 0.00332 0.85026 0.0
H198 H 0.14506 0.01319 0.79355 0.0
H199 H 0.18105 0.9843 0.82398 0.0
H200 H 0.19253 0.02749 0.66208 0.0
H201 H 0.2902 0.96451 0.73589 0.0
H202 H 0.19451 0.0838 0.752 0.0
H203 H 0.1455 0.05806 0.74528 0.0
H204 H 0.16735 0.07275 0.69617 0.0
H205 H 0.31645 0.00893 0.83471 0.0
H206 H 0.31844 0.97051 0.81228 0.0
H207 H 0.27114 0.98202 0.84206 0.0
C208 C 0.78573 0.02814 0.80722 0.0
C209 C 0.77883 0.99614 0.80728 0.0
C210 C 0.78381 0.04438 0.76657 0.0
C211 C 0.77368 0.02825 0.72531 0.0
C212 C 0.76808 0.99584 0.72524 0.0
C213 C 0.77125 0.98014 0.76628 0.0
C214 C 0.79122 0.07881 0.76774 0.0
C215 C 0.75673 0.97785 0.68181 0.0
C216 C 0.71262 0.06387 0.61785 0.0
C217 C 0.74869 0.06287 0.5913 0.0
C218 C 0.72102 0.05463 0.6631 0.0
C219 C 0.76675 0.04497 0.68186 0.0
C220 C 0.80414 0.0469 0.65611 0.0
C221 C 0.79443 0.05532 0.61067 0.0
C222 C 0.6801 0.05234 0.68931 0.0
C223 C 0.85357 0.03765 0.67534 0.0
H224 H 0.79189 0.04054 0.83894 0.0
H225 H 0.76548 0.95546 0.76616 0.0
H226 H 0.81698 0.08542 0.74524 0.0
H227 H 0.7577 0.09061 0.75511 0.0
H228 H 0.80388 0.08733 0.80233 0.0
H229 H 0.75376 0.95271 0.68774 0.0
H230 H 0.72304 0.9861 0.66285 0.0
H231 H 0.78434 0.98158 0.66011 0.0
H232 H 0.67721 0.06943 0.60231 0.0
H233 H 0.82214 0.05464 0.58968 0.0
H234 H 0.68924 0.06251 0.7234 0.0
H235 H 0.67152 0.02771 0.69377 0.0
H236 H 0.64826 0.06408 0.67183 0.0
H237 H 0.8631 0.0468 0.71004 0.0
H238 H 0.87963 0.04597 0.65414 0.0
H239 H 0.85596 0.01217 0.67728 0.0
C240 C 0.67822 0.99098 0.29161 0.0
C241 C 0.72472 0.9931 0.31291 0.0
C242 C 0.66845 0.98107 0.24671 0.0
C243 C 0.70614 0.97271 0.2236 0.0
C244 C 0.75259 0.9718 0.2467 0.0
C245 C 0.76138 0.98234 0.29113 0.0
C246 C 0.61844 0.98174 0.22306 0.0
C247 C 0.79358 0.96246 0.22333 0.0
C248 C 0.68957 0.93787 0.10691 0.0
C249 C 0.69763 0.96358 0.08071 0.0
C250 C 0.69022 0.94058 0.15354 0.0
C251 C 0.69863 0.96972 0.17403 0.0
C252 C 0.70454 0.99601 0.14744 0.0
C253 C 0.7044 0.99256 0.10104 0.0
C254 C 0.68444 0.91204 0.18098 0.0
C255 C 0.7127 0.02763 0.16825 0.0
H256 H 0.64998 0.99941 0.30871 0.0
H257 H 0.79728 0.98377 0.30806 0.0
H258 H 0.6156 0.99715 0.19327 0.0
H259 H 0.60784 0.95838 0.21049 0.0
H260 H 0.59337 0.98974 0.24554 0.0
H261 H 0.82608 0.95872 0.24763 0.0
H262 H 0.78544 0.94105 0.20352 0.0
H263 H 0.80055 0.98084 0.19945 0.0
H264 H 0.68439 0.91537 0.09125 0.0
H265 H 0.70991 0.01251 0.08071 0.0
H266 H 0.66009 0.9164 0.20579 0.0
H267 H 0.71891 0.90556 0.20025 0.0
H268 H 0.67107 0.89221 0.1594 0.0
H269 H 0.68539 0.03297 0.18975 0.0
H270 H 0.71232 0.04599 0.14239 0.0
H271 H 0.74722 0.02816 0.19019 0.0
C272 C 0.315 0.98689 0.21942 0.0
C273 C 0.27995 0.98348 0.18237 0.0
C274 C 0.31003 0.97336 0.26082 0.0
C275 C 0.26854 0.9567 0.26501 0.0
C276 C 0.23514 0.95088 0.22645 0.0
C277 C 0.24132 0.96444 0.18529 0.0
C278 C 0.3468 0.97961 0.30109 0.0
C279 C 0.19058 0.9332 0.22954 0.0
C280 C 0.26991 0.91925 0.37886 0.0
C281 C 0.25221 0.9432 0.40322 0.0
C282 C 0.27272 0.92237 0.33281 0.0
C283 C 0.2572 0.94998 0.31066 0.0
C284 C 0.2356 0.97311 0.33406 0.0
C285 C 0.23341 0.96945 0.38014 0.0
C286 C 0.29546 0.8971 0.30886 0.0
C287 C 0.21793 0.00276 0.31127 0.0
H288 H 0.34435 0.00216 0.21695 0.0
H289 H 0.21382 0.96253 0.15656 0.0
H290 H 0.33186 0.99497 0.32499 0.0
H291 H 0.3573 0.95786 0.31919 0.0
H292 H 0.37863 0.99077 0.29144 0.0
H293 H 0.17333 0.92547 0.19581 0.0
H294 H 0.19767 0.91281 0.25176 0.0
H295 H 0.16566 0.94826 0.24441 0.0
H296 H 0.28397 0.89862 0.3962 0.0
H297 H 0.21923 0.98791 0.39849 0.0
H298 H 0.33167 0.90415 0.3048 0.0
H299 H 0.27595 0.89304 0.27466 0.0
H300 H 0.29751 0.87512 0.32801 0.0
H301 H 0.24821 0.01666 0.30373 0.0
H302 H 0.19751 0.0168 0.33265 0.0
H303 H 0.19542 0.99788 0.27878 0.0
C304 C 0.75859 0.4733 0.7391 0.0
C305 C 0.73789 0.48442 0.69706 0.0
C306 C 0.75477 0.48969 0.77868 0.0
C307 C 0.72856 0.51745 0.77618 0.0
C308 C 0.70638 0.52832 0.73393 0.0
C309 C 0.71184 0.51185 0.6947 0.0
C310 C 0.77976 0.47765 0.82309 0.0
C311 C 0.67748 0.55749 0.73014 0.0
C312 C 0.69717 0.53758 0.89046 0.0
C313 C 0.73546 0.5562 0.90778 0.0
C314 C 0.69185 0.52695 0.84584 0.0
C315 C 0.72571 0.53509 0.81811 0.0
C316 C 0.76126 0.55662 0.83374 0.0
C317 C 0.76552 0.56713 0.8784 0.0
C318 C 0.65259 0.50474 0.82991 0.0
C319 C 0.79769 0.56618 0.80492 0.0
H320 H 0.77916 0.45228 0.74091 0.0
H321 H 0.69561 0.52037 0.66215 0.0
H322 H 0.80551 0.49497 0.83867 0.0
H323 H 0.75414 0.47374 0.84684 0.0
H324 H 0.79869 0.45573 0.81914 0.0
H325 H 0.65956 0.56149 0.69524 0.0
H326 H 0.6506 0.5565 0.75319 0.0
H327 H 0.70038 0.57754 0.74055 0.0
H328 H 0.67303 0.52956 0.91256 0.0
H329 H 0.79463 0.58206 0.89108 0.0
H330 H 0.66695 0.481 0.83016 0.0
H331 H 0.63662 0.51002 0.79481 0.0
H332 H 0.62467 0.50525 0.85193 0.0
H333 H 0.82302 0.54704 0.80357 0.0
H334 H 0.8174 0.58694 0.81858 0.0
H335 H 0.78129 0.57103 0.76984 0.0
C336 C 0.23637 0.56189 0.62023 0.0
C337 C 0.27135 0.55547 0.59351 0.0
C338 C 0.24168 0.55277 0.66546 0.0
C339 C 0.28346 0.53762 0.68441 0.0
C340 C 0.32097 0.53433 0.65903 0.0
C341 C 0.31426 0.543 0.61356 0.0
C342 C 0.20053 0.55642 0.69115 0.0
C343 C 0.36661 0.51919 0.67864 0.0
C344 C 0.29602 0.51957 0.80929 0.0
C345 C 0.28015 0.489 0.80833 0.0
C346 C 0.299 0.53554 0.76914 0.0
C347 C 0.28463 0.52072 0.72739 0.0
C348 C 0.26921 0.48972 0.72633 0.0
C349 C 0.26771 0.47412 0.76688 0.0
C350 C 0.31643 0.56837 0.77132 0.0
C351 C 0.25277 0.4733 0.68237 0.0
H352 H 0.20324 0.57172 0.60503 0.0
H353 H 0.34173 0.53854 0.59313 0.0
H354 H 0.18174 0.53409 0.69114 0.0
H355 H 0.2123 0.56294 0.72676 0.0
H356 H 0.17526 0.57403 0.67555 0.0
H357 H 0.39491 0.52372 0.65789 0.0
H358 H 0.37828 0.52741 0.71353 0.0
H359 H 0.36141 0.49391 0.68019 0.0
H360 H 0.30593 0.53103 0.84142 0.0
H361 H 0.255 0.45059 0.7661 0.0
H362 H 0.28739 0.58409 0.75779 0.0
H363 H 0.34464 0.57117 0.75002 0.0
H364 H 0.33014 0.5756 0.80633 0.0
H365 H 0.2225 0.4858 0.66344 0.0
H366 H 0.24192 0.44917 0.68755 0.0
H367 H 0.2812 0.47302 0.661 0.0
C368 C 0.18002 0.48971 0.29473 0.0
C369 C 0.22652 0.49003 0.31611 0.0
C370 C 0.16965 0.48047 0.24957 0.0
C371 C 0.20678 0.47105 0.22638 0.0
C372 C 0.25302 0.46835 0.24961 0.0
C373 C 0.26242 0.47826 0.29429 0.0
C374 C 0.11985 0.48305 0.22577 0.0
C375 C 0.29338 0.45791 0.22614 0.0
C376 C 0.1883 0.43689 0.10948 0.0
C377 C 0.19836 0.46229 0.08348 0.0
C378 C 0.18881 0.43959 0.15603 0.0
C379 C 0.19924 0.46843 0.17679 0.0
C380 C 0.2073 0.49449 0.15051 0.0
C381 C 0.20718 0.49103 0.10406 0.0
C382 C 0.18063 0.4113 0.18314 0.0
C383 C 0.2176 0.5258 0.17169 0.0
H384 H 0.15258 0.49921 0.31195 0.0
H385 H 0.29837 0.47875 0.3113 0.0
H386 H 0.11851 0.49838 0.19601 0.0
H387 H 0.10717 0.4601 0.21315 0.0
H388 H 0.09549 0.49216 0.2482 0.0
H389 H 0.32548 0.45298 0.25043 0.0
H390 H 0.28373 0.43692 0.20577 0.0
H391 H 0.30182 0.47622 0.20277 0.0
H392 H 0.18151 0.41454 0.09371 0.0
H393 H 0.21427 0.51076 0.08393 0.0
H394 H 0.15587 0.4164 0.20731 0.0
H395 H 0.2143 0.40398 0.20314 0.0
H396 H 0.16655 0.39177 0.16131 0.0
H397 H 0.19028 0.53207 0.19273 0.0
H398 H 0.21914 0.54412 0.14607 0.0
H399 H 0.2518 0.52518 0.19417 0.0
C400 C 0.75524 0.47588 0.20179 0.0
C401 C 0.79143 0.49124 0.18463 0.0
C402 C 0.76149 0.46551 0.24639 0.0
C403 C 0.80466 0.47136 0.27418 0.0
C404 C 0.84265 0.4845 0.25565 0.0
C405 C 0.83551 0.49433 0.21068 0.0
C406 C 0.72042 0.45117 0.26486 0.0
C407 C 0.88918 0.49091 0.28437 0.0
C408 C 0.79427 0.489 0.39594 0.0
C409 C 0.80957 0.46133 0.41707 0.0
C410 C 0.79335 0.49268 0.34939 0.0
C411 C 0.80759 0.46796 0.32354 0.0
C412 C 0.82311 0.44001 0.3446 0.0
C413 C 0.82407 0.43705 0.39119 0.0
C414 C 0.77689 0.52297 0.32784 0.0
C415 C 0.83793 0.41311 0.31788 0.0
H416 H 0.72099 0.47409 0.18137 0.0
H417 H 0.86298 0.50686 0.19721 0.0
H418 H 0.73191 0.43093 0.28621 0.0
H419 H 0.70529 0.4682 0.28638 0.0
H420 H 0.69233 0.44381 0.23753 0.0
H421 H 0.91636 0.49842 0.26386 0.0
H422 H 0.88461 0.50931 0.30911 0.0
H423 H 0.90203 0.47012 0.30381 0.0
H424 H 0.7833 0.50784 0.41578 0.0
H425 H 0.83565 0.41546 0.40724 0.0
H426 H 0.74513 0.51922 0.30268 0.0
H427 H 0.80442 0.53275 0.30962 0.0
H428 H 0.76837 0.54015 0.35294 0.0
H429 H 0.80784 0.40532 0.29306 0.0
H430 H 0.85068 0.3933 0.33973 0.0
H431 H 0.86619 0.42023 0.29853 0.0
C432 C 0.3846 0.03364 0.94844 0.0
C433 C 0.39364 0.01975 0.99099 0.0
C434 C 0.4188 0.03409 0.91978 0.0
C435 C 0.46188 0.019 0.93352 0.0
C436 C 0.46983 0.00319 0.97551 0.0
C437 C 0.43576 0.00441 0.00433 0.0
C438 C 0.4091 0.05135 0.87569 0.0
C439 C 0.51506 0.98607 0.99098 0.0
C440 C 0.55169 0.98732 0.87097 0.0
C441 C 0.59021 0.0031 0.89436 0.0
C442 C 0.50613 0.99577 0.87668 0.0
C443 C 0.5002 0.02053 0.90588 0.0
C444 C 0.53803 0.04081 0.91974 0.0
C445 C 0.58341 0.03164 0.91406 0.0
C446 C 0.46623 0.97493 0.85767 0.0
C447 C 0.53189 0.06906 0.94761 0.0
H448 H 0.35175 0.04565 0.93863 0.0
H449 H 0.44241 0.99409 0.0376 0.0
H450 H 0.44085 0.06355 0.86794 0.0
H451 H 0.3982 0.03479 0.84795 0.0
H452 H 0.3805 0.06846 0.87615 0.0
H453 H 0.51348 0.97266 0.02229 0.0
H454 H 0.52312 0.96999 0.96433 0.0
H455 H 0.54453 0.00269 -0.0023 0.0
H456 H 0.55723 0.96594 0.85366 0.0
H457 H 0.61332 0.04447 0.93072 0.0
H458 H 0.4673 0.97121 0.82117 0.0
H459 H 0.43124 0.98421 0.86178 0.0
H460 H 0.47072 0.95213 0.87454 0.0
H461 H 0.49733 0.0801 0.93661 0.0
H462 H 0.56022 0.08611 0.9453 0.0
H463 H 0.53339 0.0623 0.98351 0.0
C464 C 0.39927 0.03445 0.54365 0.0
C465 C 0.36367 0.01917 0.51578 0.0
C466 C 0.43578 0.04832 0.52487 0.0
C467 C 0.43621 0.04593 0.47773 0.0
C468 C 0.39646 0.03477 0.44923 0.0
C469 C 0.36034 0.02135 0.46883 0.0
C470 C 0.47691 0.06149 0.55594 0.0
C471 C 0.39479 0.03258 0.39875 0.0
C472 C 0.54453 0.0766 0.43662 0.0
C473 C 0.57495 0.05121 0.44527 0.0
C474 C 0.498 0.07493 0.44454 0.0
C475 C 0.48164 0.04713 0.46077 0.0
C476 C 0.5106 0.02053 0.46491 0.0
C477 C 0.55722 0.02296 0.45733 0.0
C478 C 0.46784 0.10353 0.43872 0.0
C479 C 0.4933 0.98995 0.48013 0.0
H480 H 0.40124 0.03269 0.57999 0.0
H481 H 0.33209 0.00957 0.44756 0.0
H482 H 0.50571 0.04425 0.56083 0.0
H483 H 0.49051 0.08245 0.54109 0.0
H484 H 0.46726 0.06735 0.58953 0.0
H485 H 0.40758 0.00951 0.39009 0.0
H486 H 0.35815 0.03517 0.38151 0.0
H487 H 0.41703 0.05023 0.38549 0.0
H488 H 0.55761 0.0984 0.42592 0.0
H489 H 0.58027 0.00315 0.46308 0.0
H490 H 0.46884 0.11505 0.47192 0.0
H491 H 0.43067 0.09791 0.4261 0.0
H492 H 0.4808 0.12012 0.41511 0.0
H493 H 0.48737 0.99166 0.51584 0.0
H494 H 0.51873 0.97101 0.47739 0.0
H495 H 0.45933 0.98379 0.45964 0.0
C496 C 0.88858 0.53932 0.94817 0.0
C497 C 0.89486 0.52353 0.98931 0.0
C498 C 0.92317 0.5387 0.91995 0.0
C499 C 0.96416 0.52123 0.93316 0.0
C500 C 0.96937 0.50388 0.97385 0.0
C501 C 0.93463 0.50563 0.00189 0.0
C502 C 0.91611 0.55706 0.87673 0.0
C503 C 0.01236 0.48437 0.98871 0.0
C504 C 0.05321 0.48696 0.87244 0.0
C505 C 0.09241 0.50167 0.8964 0.0
C506 C 0.00806 0.49701 0.87701 0.0
C507 C 1.00326 0.52182 0.90645 0.0
C508 C 0.04235 0.54076 0.92165 0.0
C509 C 0.08721 0.53032 0.9164 0.0
C510 C 0.96685 0.4777 0.85671 0.0
C511 C 0.03784 0.56873 0.95061 0.0
H512 H 0.85749 0.55326 0.93902 0.0
H513 H 0.93905 0.49375 0.03406 0.0
H514 H 0.94881 0.56914 0.87136 0.0
H515 H 0.90652 0.5412 0.84783 0.0
H516 H 0.88765 0.57437 0.8765 0.0
H517 H 0.00946 0.47116 0.01992 0.0
H518 H 0.01787 0.46781 0.96172 0.0
H519 H 0.04394 0.49926 0.99519 0.0
H520 H 0.0576 0.46538 0.85519 0.0
H521 H 0.11777 0.54219 0.93374 0.0
H522 H 0.93253 0.48865 0.85922 0.0
H523 H 0.9683 0.45504 0.87402 0.0
H524 H 0.96915 0.47342 0.82057 0.0
H525 H 1.0045 0.58117 0.93941 0.0
H526 H 0.06775 0.58481 0.94987 0.0
H527 H 0.03772 0.56131 0.98605 0.0
C528 C 0.07786 0.50772 0.49647 0.0
C529 C 0.1123 0.53037 0.50259 0.0
C530 C 0.04239 0.50736 0.52382 0.0
C531 C 0.0426 0.5299 0.55839 0.0
C532 C 0.07885 0.55191 0.56585 0.0
C533 C 0.11301 0.55216 0.5372 0.0
C534 C 1.00399 0.48346 0.51472 0.0
C535 C 0.08128 0.57525 0.60354 0.0
C536 C 0.91786 0.53577 0.57238 0.0
C537 C 0.91578 0.50948 0.59881 0.0
C538 C 0.96141 0.54679 0.56412 0.0
C539 C 1.00259 0.53125 0.58389 0.0
C540 C 1.00036 0.50956 0.61862 0.0
C541 C 0.95638 0.49849 0.62536 0.0
C542 C 0.96243 0.57063 0.52763 0.0
C543 C 0.04371 0.49388 0.64253 0.0
H544 H 0.0779 0.49104 0.46952 0.0
H545 H 0.13997 0.56972 0.54138 0.0
H546 H 1.00297 0.46914 0.54519 0.0
H547 H 0.96932 0.49492 0.50655 0.0
H548 H 0.00903 0.46796 0.48627 0.0
H549 H 0.11095 0.5916 0.60342 0.0
H550 H 0.04811 0.58857 0.601 0.0
H551 H 0.08562 0.56318 0.63648 0.0
H552 H 0.88606 0.54446 0.55249 0.0
H553 H 0.95423 0.47852 0.64674 0.0
H554 H 0.96407 0.55875 0.49505 0.0
H555 H 0.9937 0.58568 0.53474 0.0
H556 H 0.93036 0.58521 0.5237 0.0
H557 H 0.05066 0.47271 0.62374 0.0
H558 H 0.03851 0.4869 0.67713 0.0
H559 H 0.07505 0.50895 0.64465 0.0
C560 C 0.10228 0.00486 0.09308 0.0
C561 C 0.11358 0.03386 0.07683 0.0
C562 C 0.0586 0.99075 0.07882 0.0
C563 C 0.025 0.00573 0.04688 0.0
C564 C 0.03533 0.03572 0.03189 0.0
C565 C 0.07947 0.04942 0.047 0.0
C566 C 0.04941 0.95907 0.09635 0.0
C567 C 1.00062 0.05271 -0.00189 0.0
C568 C 0.93229 0.95726 0.97214 0.0
C569 C 0.89199 0.96236 0.9925 0.0
C570 C 0.97588 0.97083 0.98975 0.0
C571 C 0.97951 0.98982 0.02884 0.0
C572 C 0.93942 0.9937 0.05065 0.0
C573 C 0.89648 0.98008 0.03229 0.0
C574 C 0.01769 0.96582 0.96549 0.0
C575 C 0.94136 0.01322 0.09263 0.0
H576 H 0.12885 0.99241 0.11542 0.0
H577 H 0.08839 0.07136 0.03322 0.0
H578 H 0.01544 0.9587 0.10977 0.0
H579 H 0.0468 0.94215 0.06832 0.0
H580 H 0.07761 0.95146 0.12339 0.0
H581 H 0.01257 0.07641 0.99167 0.0
H582 H 0.99535 0.03986 0.96574 0.0
H583 H 0.96602 0.05411 0.01023 0.0
H584 H 0.92922 0.94411 0.94109 0.0
H585 H 0.86566 0.98424 0.04841 0.0
H586 H 0.04771 0.95669 0.9892 0.0
H587 H 0.02892 0.98814 0.95254 0.0
H588 H 0.0099 0.94956 0.93673 0.0
H589 H 0.97004 0.00516 0.11878 0.0
H590 H 0.90784 0.01271 0.10693 0.0
H591 H 0.94923 0.03745 0.08467 0.0
C592 C 0.93 0.02881 0.4661 0.0
C593 C 0.8858 0.01536 0.46723 0.0
C594 C 0.97196 0.01321 0.48375 0.0
C595 C 0.96997 0.98335 0.50294 0.0
C596 C 0.92554 0.96985 0.50445 0.0
C597 C 0.88444 0.98587 0.48683 0.0
C598 C 0.01855 0.02861 0.4816 0.0
C599 C 0.9213 0.93815 0.52421 0.0
C600 C 0.07922 0.93259 0.50544 0.0
C601 C 0.10198 0.93647 0.5498 0.0
C602 C 0.03563 0.94669 0.49034 0.0
C603 C 0.01418 0.96571 0.52004 0.0
C604 C 0.03555 0.96815 0.5657 0.0
C605 C 0.07908 0.9535 0.58 0.0
C606 C 0.01407 0.94278 0.44167 0.0
C607 C 0.01415 0.98801 0.59874 0.0
H608 H 0.93189 0.05148 0.45135 0.0
H609 H 0.85089 0.97489 0.4883 0.0
H610 H 0.03895 0.03011 0.51592 0.0
H611 H 0.03944 0.01458 0.46073 0.0
H612 H 0.0144 0.05216 0.46709 0.0
H613 H 0.88417 0.93106 0.52387 0.0
H614 H 0.93884 0.92096 0.50485 0.0
H615 H 0.93934 0.93752 0.55951 0.0
H616 H 0.09735 0.92034 0.48149 0.0
H617 H 0.09717 0.95767 0.61379 0.0
H618 H 0.01491 0.9651 0.42377 0.0
H619 H 0.97673 0.93581 0.43944 0.0
H620 H 0.03293 0.92532 0.42391 0.0
H621 H 0.01586 0.01255 0.58875 0.0
H622 H 0.03259 0.98543 0.63375 0.0
H623 H 0.97655 0.98217 0.59823 0.0
C624 C 0.43135 0.45441 0.96842 0.0
C625 C 0.39241 0.4579 0.99131 0.0
C626 C 0.47494 0.46855 0.98459 0.0
C627 C 0.47996 0.48658 0.0247 0.0
C628 C 0.44132 0.4889 0.0489 0.0
C629 C 0.39839 0.47467 0.03201 0.0
C630 C 0.5152 0.46515 0.95782 0.0
C631 C 0.44475 0.50735 0.092 0.0
C632 C 0.60396 0.50184 0.08586 0.0
C633 C 0.61377 0.53164 0.07135 0.0
C634 C 0.56061 0.48731 0.07173 0.0
C635 C 0.52559 0.50269 0.04181 0.0
C636 C 0.53441 0.53336 0.0285 0.0
C637 C 0.57834 0.54749 0.04343 0.0
C638 C 0.55308 0.4549 0.0875 0.0
C639 C 0.4981 0.55079 0.99691 0.0
H640 H 0.42708 0.44208 0.93663 0.0
H641 H 0.36861 0.47766 0.05003 0.0
H642 H 0.52485 0.48808 0.94562 0.0
H643 H 0.54656 0.45594 0.97963 0.0
H644 H 0.50647 0.44963 0.92831 0.0
H645 H 0.41217 0.506 0.10778 0.0
H646 H 0.47461 0.49903 0.11664 0.0
H647 H 0.45166 0.53188 0.08496 0.0
H648 H 0.6313 0.48926 0.10708 0.0
H649 H 0.58588 0.57016 0.03114 0.0
H650 H 0.54888 0.43898 0.05821 0.0
H651 H 0.52035 0.45365 0.10296 0.0
H652 H 0.58278 0.44667 0.11249 0.0
H653 H 0.49165 0.53877 0.9639 0.0
H654 H 0.50919 0.57481 0.99128 0.0
H655 H 0.46429 0.55138 0.0106 0.0
C656 C 0.61332 0.45683 0.47588 0.0
C657 C 0.62409 0.44633 0.52059 0.0
C658 C 0.56994 0.47083 0.45984 0.0
C659 C 0.53592 0.47481 0.48915 0.0
C660 C 0.5456 0.46293 0.53377 0.0
C661 C 0.58947 0.44883 0.54894 0.0
C662 C 0.56136 0.48252 0.41191 0.0
C663 C 0.51037 0.46637 0.56616 0.0
C664 C 0.44138 0.53773 0.4613 0.0
C665 C 0.40237 0.52037 0.44226 0.0
C666 C 0.48507 0.52333 0.47661 0.0
C667 C 0.49006 0.49083 0.47264 0.0
C668 C 0.45116 0.47353 0.452 0.0
C669 C 0.40825 0.48838 0.43721 0.0
C670 C 0.52564 0.54277 0.49811 0.0
C671 C 0.45448 0.43905 0.44631 0.0
H672 H 0.64004 0.45543 0.45386 0.0
H673 H 0.59777 0.44163 0.58381 0.0
H674 H 0.5282 0.47282 0.3939 0.0
H675 H 0.55741 0.50794 0.41195 0.0
H676 H 0.59044 0.47651 0.39278 0.0
H677 H 0.52213 0.4549 0.59898 0.0
H678 H 0.50454 0.49118 0.57241 0.0
H679 H 0.47608 0.45646 0.55127 0.0
H680 H 0.43729 0.5623 0.46591 0.0
H681 H 0.37858 0.47461 0.42231 0.0
H682 H 0.55632 0.53951 0.48002 0.0
H683 H 0.53645 0.53529 0.53349 0.0
H684 H 0.51671 0.56767 0.49799 0.0
H685 H 0.48323 0.43336 0.42669 0.0
H686 H 0.42131 0.42893 0.42885 0.0
H687 H 0.46309 0.42793 0.47981 0.0
C688 C 0.41585 0.08587 0.22221 0.0
C689 C 0.40673 0.10239 0.18148 0.0
C690 C 0.46008 0.08754 0.25003 0.0
C691 C 0.49627 0.10658 0.23749 0.0
C692 C 0.48657 0.12412 0.19729 0.0
C693 C 0.44248 0.12162 0.16984 0.0
C694 C 0.46854 0.06817 0.29224 0.0
C695 C 0.52329 0.14515 0.18263 0.0
C696 C 0.60041 0.12969 0.32699 0.0
C697 C 0.63641 0.10969 0.31776 0.0
C698 C 0.55507 0.129 0.30134 0.0
C699 C 0.54463 0.10762 0.2654 0.0
C700 C 0.58094 0.08763 0.25554 0.0
C701 C 0.62601 0.08889 0.28162 0.0
C702 C 0.5181 0.15103 0.31309 0.0
C703 C 0.5719 0.06417 0.21811 0.0
H704 H 0.38898 0.07068 0.23157 0.0
H705 H 0.43619 0.13462 0.13868 0.0
H706 H 0.49807 0.05202 0.29018 0.0
H707 H 0.4788 0.08305 0.32216 0.0
H708 H 0.43705 0.05463 0.29757 0.0
H709 H 0.50964 0.15859 0.152 0.0
H710 H 0.53625 0.16144 0.21019 0.0
H711 H 0.55383 0.13136 0.17541 0.0
H712 H 0.60735 0.14565 0.35498 0.0
H713 H 0.65281 0.07284 0.27436 0.0
H714 H 0.48855 0.13793 0.32385 0.0
H715 H 0.50363 0.16467 0.28296 0.0
H716 H 0.53207 0.16714 0.34062 0.0
H717 H 0.54729 0.0464 0.22736 0.0
H718 H 0.60469 0.05263 0.21156 0.0
H719 H 0.55515 0.07516 0.18642 0.0
C720 C 0.62173 0.91654 0.77917 0.0
C721 C 0.63689 0.89023 0.80427 0.0
C722 C 0.57818 0.91718 0.75076 0.0
C723 C 0.54925 0.89056 0.74628 0.0
C724 C 0.56598 0.86324 0.76916 0.0
C725 C 0.60901 0.86361 0.79858 0.0
C726 C 0.56152 0.94714 0.72838 0.0
C727 C 0.53732 0.83404 0.7646 0.0
C728 C 0.41651 0.9029 0.71159 0.0
C729 C 0.41197 0.89966 0.6646 0.0
C730 C 0.46076 0.89947 0.73877 0.0
C731 C 0.50116 0.8918 0.71866 0.0
C732 C 0.49594 0.88688 0.67152 0.0
C733 C 0.45184 0.89124 0.6452 0.0
C734 C 0.46436 0.90461 0.78894 0.0
C735 C 0.53726 0.87765 0.6486 0.0
H736 H 0.64204 0.93759 0.78494 0.0
H737 H 0.61959 0.84357 0.81915 0.0
H738 H 0.55084 0.94367 0.69166 0.0
H739 H 0.53017 0.95542 0.74255 0.0
H740 H 0.58892 0.96533 0.73339 0.0
H741 H 0.55824 0.81375 0.77824 0.0
H742 H 0.50699 0.83653 0.78334 0.0
H743 H 0.52317 0.82959 0.72872 0.0
H744 H 0.38601 0.90942 0.72686 0.0
H745 H 0.44861 0.8883 0.60894 0.0
H746 H 0.49494 0.91945 0.80121 0.0
H747 H 0.46993 0.8822 0.80662 0.0
H748 H 0.43208 0.91533 0.79838 0.0
H749 H 0.56314 0.89672 0.65103 0.0
H750 H 0.52664 0.87196 0.6124 0.0
H751 H 0.55526 0.85736 0.66577 0.0
C752 C 0.91101 0.58738 0.21553 0.0
C753 C 0.90239 0.60491 0.17572 0.0
C754 C 0.95526 0.58789 0.2433 0.0
C755 C 0.9922 0.6066 0.23161 0.0
C756 C 0.98324 0.62496 0.19215 0.0
C757 C 0.93896 0.6237 0.16471 0.0
C758 C 0.9629 0.56747 0.28442 0.0
C759 C 0.02083 0.64567 0.17843 0.0
C760 C 0.09265 0.62662 0.32634 0.0
C761 C 0.12852 0.60605 0.31864 0.0
C762 C 0.04902 0.62756 0.29782 0.0
C763 C 0.03999 0.60709 0.26063 0.0
C764 C 0.07651 0.58685 0.25187 0.0
C765 C 0.12014 0.58665 0.2807 0.0
C766 C 0.01199 0.65 0.3083 0.0
C767 C 0.06895 0.56431 0.21317 0.0
H768 H 0.88367 0.57229 0.2242 0.0
H769 H 0.93313 0.63733 0.13412 0.0
H770 H 0.98684 0.54833 0.27845 0.0
H771 H 0.97981 0.58047 0.31429 0.0
H772 H 0.9295 0.55752 0.29232 0.0
H773 H 0.00801 0.65945 0.1479 0.0
H774 H 0.03376 0.66165 0.20641 0.0
H775 H 0.05121 0.63161 0.1715 0.0
H776 H 0.09833 0.64171 0.35546 0.0
H777 H 0.14691 0.5702 0.27465 0.0
H778 H 0.98131 0.63719 0.31729 0.0
H779 H 0.99939 0.66411 0.27809 0.0
H780 H 0.0252 0.66568 0.33663 0.0
H781 H 0.0459 0.54538 0.22173 0.0
H782 H 0.10255 0.5542 0.20599 0.0
H783 H 0.05117 0.57552 0.18206 0.0
C784 C 0.93715 0.35822 0.66917 0.0
C785 C 0.9026 0.37743 0.68319 0.0
C786 C 0.98189 0.35499 0.69482 0.0
C787 C 0.99279 0.37131 0.73589 0.0
C788 C 0.95684 0.38883 0.752 0.0
C789 C 0.91226 0.39186 0.72536 0.0
C790 C 0.01853 0.33589 0.67619 0.0
C791 C 0.96644 0.40591 0.79618 0.0
C792 C 0.10166 0.353 0.82103 0.0
C793 C 0.13214 0.37726 0.81414 0.0
C794 C 0.05727 0.34986 0.79456 0.0
C795 C 0.04238 0.37174 0.76041 0.0
C796 C 0.07436 0.39505 0.7512 0.0
C797 C 0.11876 0.39753 0.77817 0.0
C798 C 0.025 0.32445 0.80553 0.0
C799 C 0.06037 0.41881 0.715 0.0
H800 H 0.93029 0.3475 0.63616 0.0
H801 H 0.88637 0.40737 0.73591 0.0
H802 H 0.04564 0.35132 0.66555 0.0
H803 H 0.03651 0.32027 0.70247 0.0
H804 H 1.00321 0.32187 0.64666 0.0
H805 H 0.97932 0.38969 0.8238 0.0
H806 H 0.99455 0.42317 0.79454 0.0
H807 H 0.93468 0.4178 0.8047 0.0
H808 H 0.11109 0.33784 0.84967 0.0
H809 H 0.14123 0.41699 0.77364 0.0
H810 H 0.0084 0.31277 0.77431 0.0
H811 H 0.99639 0.33444 0.82213 0.0
H812 H 0.04381 0.30696 0.82847 0.0
H813 H 0.04625 0.40742 0.68272 0.0
H814 H 0.09029 0.43376 0.70934 0.0
H815 H 0.03205 0.43359 0.72487 0.0
C816 C 0.2609 0.19462 0.09606 0.0
C817 C 0.24482 0.17313 0.06248 0.0
C818 C 0.26137 0.22629 0.08609 0.0
C819 C 0.2445 0.23651 0.04178 0.0
C820 C 0.2257 0.21491 0.00858 0.0
C821 C 0.22671 0.18345 0.01919 0.0
C822 C 0.28226 0.24855 0.12221 0.0
C823 C 0.20606 0.22487 0.96131 0.0
C824 C 0.20756 0.31923 0.01727 0.0
C825 C 0.24383 0.33038 0.99476 0.0
C826 C 0.20825 0.28917 0.03428 0.0
C827 C 0.24656 0.2697 0.02954 0.0
C828 C 0.28468 0.28124 0.00935 0.0
C829 C 0.28273 0.31139 0.99184 0.0
C830 C 0.16659 0.27773 0.05496 0.0
C831 C 0.32668 0.2613 0.00461 0.0
H832 H 0.276 0.18652 0.12922 0.0
H833 H 0.2148 0.16672 0.99314 0.0
H834 H 0.31488 0.25863 0.11269 0.0
H835 H 0.25768 0.26787 0.12528 0.0
H836 H 0.29089 0.23726 0.15564 0.0
H837 H 0.19002 0.20542 0.94041 0.0
H838 H 0.17905 0.243 0.96239 0.0
H839 H 0.23446 0.23491 0.94453 0.0
H840 H 0.17729 0.33357 0.02015 0.0
H841 H 0.31106 0.31975 0.97489 0.0
H842 H 0.17832 0.26691 0.0882 0.0
H843 H 0.14782 0.2598 0.03288 0.0
H844 H 0.14139 0.29647 0.05954 0.0
H845 H 0.34013 0.25026 0.03733 0.0
H846 H 0.35558 0.27463 0.99292 0.0
H847 H 0.31611 0.24261 0.97997 0.0
C848 C 0.82567 0.18303 0.48457 0.0
C849 C 0.80423 0.17181 0.44279 0.0
C850 C 0.82447 0.21449 0.495 0.0
C851 C 0.80019 0.23514 0.46323 0.0
C852 C 0.78077 0.22418 0.41997 0.0
C853 C 0.78338 0.19258 0.4101 0.0
C854 C 0.84686 0.22531 0.54104 0.0
C855 C 0.75431 0.24537 0.3853 0.0
C856 C 0.75427 0.30655 0.5168 0.0
C857 C 0.78896 0.32828 0.51113 0.0
C858 C 0.7562 0.27648 0.49939 0.0
C859 C 0.79395 0.26788 0.47627 0.0
C860 C 0.82784 0.29005 0.46881 0.0
C861 C 0.82475 0.3199 0.48594 0.0
C862 C 0.71882 0.25355 0.50723 0.0
C863 C 0.86887 0.28185 0.44477 0.0
H864 H 0.84115 0.16686 0.51006 0.0
H865 H 0.76566 0.1838 0.37823 0.0
H866 H 0.87009 0.24533 0.53784 0.0
H867 H 0.81918 0.23298 0.5608 0.0
H868 H 0.86783 0.20689 0.56025 0.0
H869 H 0.74565 0.23404 0.35187 0.0
H870 H 0.72108 0.25271 0.3969 0.0
H871 H 0.77499 0.26648 0.3813 0.0
H872 H 0.72638 0.31271 0.53589 0.0
H873 H 0.85171 0.33641 0.48081 0.0
H874 H 0.73448 0.23536 0.53071 0.0
H875 H 0.7044 0.2421 0.47507 0.0
H876 H 0.68949 0.26452 0.52178 0.0
H877 H 0.89203 0.26521 0.46549 0.0
H878 H 0.89008 0.30233 0.43844 0.0
H879 H 0.85643 0.2705 0.41205 0.0
C880 C 0.78325 0.81317 0.98274 0.0
C881 C 0.74505 0.83255 0.98674 0.0
C882 C 0.78458 0.78277 -0.0005 0.0
C883 C 0.74647 0.77138 0.01993 0.0
C884 C 0.70873 0.79115 0.02537 0.0
C885 C 0.70872 0.8214 0.00924 0.0
C886 C 0.82602 0.76251 0.99405 0.0
C887 C 0.667 0.7799 0.04616 0.0
C888 C 0.7232 0.68533 0.01073 0.0
C889 C 0.74071 0.67505 0.05422 0.0
C890 C 0.72394 0.71667 -0.00047 0.0
C891 C 0.74391 0.73822 0.03233 0.0
C892 C 0.76038 0.72807 0.07677 0.0
C893 C 0.75814 0.69655 0.08733 0.0
C894 C 0.70465 0.72657 0.95215 0.0
C895 C 0.78249 0.75023 0.11249 0.0
H896 H 0.81158 0.82149 0.96575 0.0
H897 H 0.67892 0.83597 0.01293 0.0
H898 H 0.83969 0.75131 0.02659 0.0
H899 H 0.81476 0.74393 0.96941 0.0
H900 H 0.85494 0.77562 0.98202 0.0
H901 H 0.64173 0.79868 0.05036 0.0
H902 H 0.6483 0.76177 0.02443 0.0
H903 H 0.67873 0.7694 0.07962 0.0
H904 H 0.71039 0.66859 0.98497 0.0
H905 H 0.77295 0.68848 0.1206 0.0
H906 H 0.73331 0.73618 0.93531 0.0
H907 H 0.6781 0.74503 0.95305 0.0
H908 H 0.68812 0.70719 0.93141 0.0
H909 H 0.81483 0.76013 0.10213 0.0
H910 H 0.79181 0.73894 0.14584 0.0
H911 H 0.75831 0.76968 0.11614 0.0
C912 C 0.28317 0.693 0.42571 0.0
C913 C 0.29311 0.66911 0.45697 0.0
C914 C 0.28286 0.72386 0.44021 0.0
C915 C 0.29291 0.73075 0.48691 0.0
C916 C 0.30618 0.70676 0.51809 0.0
C917 C 0.30597 0.67627 0.50273 0.0
C918 C 0.26904 0.74888 0.4059 0.0
C919 C 0.318 0.71307 0.56804 0.0
C920 C 0.32624 0.81203 0.52485 0.0
C921 C 0.28418 0.82356 0.53733 0.0
C922 C 0.32928 0.78214 0.508 0.0
C923 C 0.28937 0.76292 0.50351 0.0
C924 C 0.24685 0.77406 0.5165 0.0
C925 C 0.24475 0.8043 0.5334 0.0
C926 C 0.37538 0.77114 0.49506 0.0
C927 C 0.20358 0.75406 0.51233 0.0
H928 H 0.27212 0.68743 0.39049 0.0
H929 H 0.31307 0.6577 0.52696 0.0
H930 H 0.23496 0.75903 0.41152 0.0
H931 H 0.2954 0.76768 0.4099 0.0
H932 H 0.26556 0.74008 0.37075 0.0
H933 H 0.3305 0.69211 0.5874 0.0
H934 H 0.34553 0.73106 0.57431 0.0
H935 H 0.28643 0.72193 0.5812 0.0
H936 H 0.35726 0.82647 0.5281 0.0
H937 H 0.21217 0.81299 0.54273 0.0
H938 H 0.37039 0.76382 0.45921 0.0
H939 H 0.38813 0.75077 0.51561 0.0
H940 H 0.403 0.78919 0.49991 0.0
H941 H 0.19394 0.74643 0.47684 0.0
H942 H 0.17309 0.76622 0.52312 0.0
H943 H 0.21093 0.73305 0.53322 0.0
loop_
_geom_bond_atom_site_label_1
_geom_bond_atom_site_label_2
_geom_bond_distance
_geom_bond_site_symmetry_2
_ccdc_geom_bond_type
Sc0 O3 2.025 . S
Sc0 O10 2.105 . S
Sc0 O13 2.105 . S
Sc0 O16 2.105 . S
Sc0 O19 2.105 . S
Sc1 O3 2.025 . S
Sc1 O11 2.105 . S
Sc1 O15 2.105 . S
Sc1 O17 2.105 . S
Sc1 O21 2.105 1_554 S
Sc2 O3 2.025 . S
Sc2 O12 2.105 1_554 S
Sc2 O14 2.105 . S
Sc2 O18 2.105 . S
Sc2 O20 2.105 . S
O3 Sc0 2.025 . S
O3 Sc1 2.025 . S
O3 Sc2 2.025 . S
C4 O10 1.268 . S
C4 O20 1.268 . S
C5 O11 1.268 . S
C5 O19 1.268 . S
C6 O12 1.268 . S
C6 O21 1.268 . S
C7 O13 1.268 . S
C7 O17 1.268 . S
C8 O14 1.268 . S
C8 O16 1.268 . S
C9 O15 1.268 . S
C9 O18 1.268 . S
O10 Sc0 2.105 . S
O10 C4 1.268 . S
O11 Sc1 2.105 . S
O11 C5 1.268 . S
O12 Sc2 2.105 1_556 S
O12 C6 1.268 . S
O13 Sc0 2.105 . S
O13 C7 1.268 . S
O14 Sc2 2.105 . S
O14 C8 1.268 . S
O15 Sc1 2.105 . S
O15 C9 1.268 . S
O16 Sc0 2.105 . S
O16 C8 1.268 . S
O17 Sc1 2.105 . S
O17 C7 1.268 . S
O18 Sc2 2.105 . S
O18 C9 1.268 . S
O19 Sc0 2.105 . S
O19 C5 1.268 . S
O20 Sc2 2.105 . S
O20 C4 1.268 . S
O21 Sc1 2.105 1_556 S
O21 C6 1.268 . S
Sc22 O25 2.025 . S
Sc22 O32 2.105 . S
Sc22 O35 2.105 . S
Sc22 O38 2.105 . S
Sc22 O41 2.105 . S
Sc23 O25 2.025 . S
Sc23 O33 2.105 . S
Sc23 O37 2.105 . S
Sc23 O39 2.105 . S
Sc23 O43 2.105 . S
Sc24 O25 2.025 . S
Sc24 O34 2.105 . S
Sc24 O36 2.105 . S
Sc24 O40 2.105 . S
Sc24 O42 2.105 . S
O25 Sc22 2.025 . S
O25 Sc23 2.025 . S
O25 Sc24 2.025 . S
C26 O32 1.268 . S
C26 O42 1.268 . S
C27 O33 1.268 . S
C27 O41 1.268 . S
C28 O34 1.268 . S
C28 O43 1.268 . S
C29 O35 1.268 . S
C29 O39 1.268 . S
C30 O36 1.268 . S
C30 O38 1.268 . S
C31 O37 1.268 . S
C31 O40 1.268 . S
O32 Sc22 2.105 . S
O32 C26 1.268 . S
O33 Sc23 2.105 . S
O33 C27 1.268 . S
O34 Sc24 2.105 . S
O34 C28 1.268 . S
O35 Sc22 2.105 . S
O35 C29 1.268 . S
O36 Sc24 2.105 . S
O36 C30 1.268 . S
O37 Sc23 2.105 . S
O37 C31 1.268 . S
O38 Sc22 2.105 . S
O38 C30 1.268 . S
O39 Sc23 2.105 . S
O39 C29 1.268 . S
O40 Sc24 2.105 . S
O40 C31 1.268 . S
O41 Sc22 2.105 . S
O41 C27 1.268 . S
O42 Sc24 2.105 . S
O42 C26 1.268 . S
O43 Sc23 2.105 . S
O43 C28 1.268 . S
Sc44 O47 2.025 . S
Sc44 O54 2.105 . S
Sc44 O57 2.105 . S
Sc44 O60 2.105 . S
Sc44 O63 2.105 . S
Sc45 O47 2.025 . S
Sc45 O55 2.105 . S
Sc45 O59 2.105 1_556 S
Sc45 O61 2.105 . S
Sc45 O65 2.105 . S
Sc46 O47 2.025 . S
Sc46 O56 2.105 . S
Sc46 O58 2.105 . S
Sc46 O62 2.105 1_556 S
Sc46 O64 2.105 . S
O47 Sc44 2.025 . S
O47 Sc45 2.025 . S
O47 Sc46 2.025 . S
C48 O54 1.268 . S
C48 O64 1.268 . S
C49 O55 1.268 . S
C49 O63 1.268 . S
C50 O56 1.268 . S
C50 O65 1.268 . S
C51 O57 1.268 . S
C51 O61 1.268 . S
C52 O58 1.268 . S
C52 O60 1.268 . S
C53 O59 1.268 . S
C53 O62 1.268 . S
O54 Sc44 2.105 . S
O54 C48 1.268 . S
O55 Sc45 2.105 . S
O55 C49 1.268 . S
O56 Sc46 2.105 . S
O56 C50 1.268 . S
O57 Sc44 2.105 . S
O57 C51 1.268 . S
O58 Sc46 2.105 . S
O58 C52 1.268 . S
O59 Sc45 2.105 1_554 S
O59 C53 1.268 . S
O60 Sc44 2.105 . S
O60 C52 1.268 . S
O61 Sc45 2.105 . S
O61 C51 1.268 . S
O62 Sc46 2.105 1_554 S
O62 C53 1.268 . S
O63 Sc44 2.105 . S
O63 C49 1.268 . S
O64 Sc46 2.105 . S
O64 C48 1.268 . S
O65 Sc45 2.105 . S
O65 C50 1.268 . S
Sc66 O69 2.025 . S
Sc66 O76 2.105 . S
Sc66 O79 2.105 . S
Sc66 O82 2.105 . S
Sc66 O85 2.105 . S
Sc67 O69 2.025 . S
Sc67 O77 2.105 . S
Sc67 O81 2.105 . S
Sc67 O83 2.105 . S
Sc67 O87 2.105 . S
Sc68 O69 2.025 . S
Sc68 O78 2.105 . S
Sc68 O80 2.105 . S
Sc68 O84 2.105 . S
Sc68 O86 2.105 . S
O69 Sc66 2.025 . S
O69 Sc67 2.025 . S
O69 Sc68 2.025 . S
C70 O76 1.268 . S
C70 O86 1.268 . S
C71 O77 1.268 . S
C71 O85 1.268 . S
C72 O78 1.268 . S
C72 O87 1.268 . S
C73 O79 1.268 . S
C73 O83 1.268 . S
C74 O80 1.268 . S
C74 O82 1.268 . S
C75 O81 1.268 . S
C75 O84 1.268 . S
O76 Sc66 2.105 . S
O76 C70 1.268 . S
O77 Sc67 2.105 . S
O77 C71 1.268 . S
O78 Sc68 2.105 . S
O78 C72 1.268 . S
O79 Sc66 2.105 . S
O79 C73 1.268 . S
O80 Sc68 2.105 . S
O80 C74 1.268 . S
O81 Sc67 2.105 . S
O81 C75 1.268 . S
O82 Sc66 2.105 . S
O82 C74 1.268 . S
O83 Sc67 2.105 . S
O83 C73 1.268 . S
O84 Sc68 2.105 . S
O84 C75 1.268 . S
O85 Sc66 2.105 . S
O85 C71 1.268 . S
O86 Sc68 2.105 . S
O86 C70 1.268 . S
O87 Sc67 2.105 . S
O87 C72 1.268 . S
Sc88 O91 2.025 . S
Sc88 O98 2.105 . S
Sc88 O101 2.105 . S
Sc88 O104 2.105 . S
Sc88 O107 2.105 . S
Sc89 O91 2.025 . S
Sc89 O99 2.105 . S
Sc89 O103 2.105 . S
Sc89 O105 2.105 . S
Sc89 O109 2.105 1_554 S
Sc90 O91 2.025 . S
Sc90 O100 2.105 1_554 S
Sc90 O102 2.105 . S
Sc90 O106 2.105 . S
Sc90 O108 2.105 . S
O91 Sc88 2.025 . S
O91 Sc89 2.025 . S
O91 Sc90 2.025 . S
C92 O98 1.268 . S
C92 O108 1.268 . S
C93 O99 1.268 . S
C93 O107 1.268 . S
C94 O100 1.268 . S
C94 O109 1.268 . S
C95 O101 1.268 . S
C95 O105 1.268 . S
C96 O102 1.268 . S
C96 O104 1.268 . S
C97 O103 1.268 . S
C97 O106 1.268 . S
O98 Sc88 2.105 . S
O98 C92 1.268 . S
O99 Sc89 2.105 . S
O99 C93 1.268 . S
O100 Sc90 2.105 1_556 S
O100 C94 1.268 . S
O101 Sc88 2.105 . S
O101 C95 1.268 . S
O102 Sc90 2.105 . S
O102 C96 1.268 . S
O103 Sc89 2.105 . S
O103 C97 1.268 . S
O104 Sc88 2.105 . S
O104 C96 1.268 . S
O105 Sc89 2.105 . S
O105 C95 1.268 . S
O106 Sc90 2.105 . S
O106 C97 1.268 . S
O107 Sc88 2.105 . S
O107 C93 1.268 . S
O108 Sc90 2.105 . S
O108 C92 1.268 . S
O109 Sc89 2.105 1_556 S
O109 C94 1.268 . S
Sc110 O113 2.025 . S
Sc110 O120 2.105 . S
Sc110 O123 2.105 . S
Sc110 O126 2.105 . S
Sc110 O129 2.105 . S
Sc111 O113 2.025 . S
Sc111 O121 2.105 . S
Sc111 O125 2.105 . S
Sc111 O127 2.105 . S
Sc111 O131 2.105 . S
Sc112 O113 2.025 . S
Sc112 O122 2.105 . S
Sc112 O124 2.105 . S
Sc112 O128 2.105 . S
Sc112 O130 2.105 . S
O113 Sc110 2.025 . S
O113 Sc111 2.025 . S
O113 Sc112 2.025 . S
C114 O120 1.268 . S
C114 O130 1.268 . S
C115 O121 1.268 . S
C115 O129 1.268 . S
C116 O122 1.268 . S
C116 O131 1.268 . S
C117 O123 1.268 . S
C117 O127 1.268 . S
C118 O124 1.268 . S
C118 O126 1.268 . S
C119 O125 1.268 . S
C119 O128 1.268 . S
O120 Sc110 2.105 . S
O120 C114 1.268 . S
O121 Sc111 2.105 . S
O121 C115 1.268 . S
O122 Sc112 2.105 . S
O122 C116 1.268 . S
O123 Sc110 2.105 . S
O123 C117 1.268 . S
O124 Sc112 2.105 . S
O124 C118 1.268 . S
O125 Sc111 2.105 . S
O125 C119 1.268 . S
O126 Sc110 2.105 . S
O126 C118 1.268 . S
O127 Sc111 2.105 . S
O127 C117 1.268 . S
O128 Sc112 2.105 . S
O128 C119 1.268 . S
O129 Sc110 2.105 . S
O129 C115 1.268 . S
O130 Sc112 2.105 . S
O130 C114 1.268 . S
O131 Sc111 2.105 . S
O131 C116 1.268 . S
Sc132 O135 2.025 . S
Sc132 O142 2.105 . S
Sc132 O145 2.105 . S
Sc132 O148 2.105 . S
Sc132 O151 2.105 . S
Sc133 O135 2.025 . S
Sc133 O143 2.105 . S
Sc133 O147 2.105 1_556 S
Sc133 O149 2.105 . S
Sc133 O153 2.105 . S
Sc134 O135 2.025 . S
Sc134 O144 2.105 . S
Sc134 O146 2.105 . S
Sc134 O150 2.105 1_556 S
Sc134 O152 2.105 . S
O135 Sc132 2.025 . S
O135 Sc133 2.025 . S
O135 Sc134 2.025 . S
C136 O142 1.268 . S
C136 O152 1.268 . S
C137 O143 1.268 . S
C137 O151 1.268 . S
C138 O144 1.268 . S
C138 O153 1.268 . S
C139 O145 1.268 . S
C139 O149 1.268 . S
C140 O146 1.268 . S
C140 O148 1.268 . S
C141 O147 1.268 . S
C141 O150 1.268 . S
O142 Sc132 2.105 . S
O142 C136 1.268 . S
O143 Sc133 2.105 . S
O143 C137 1.268 . S
O144 Sc134 2.105 . S
O144 C138 1.268 . S
O145 Sc132 2.105 . S
O145 C139 1.268 . S
O146 Sc134 2.105 . S
O146 C140 1.268 . S
O147 Sc133 2.105 1_554 S
O147 C141 1.268 . S
O148 Sc132 2.105 . S
O148 C140 1.268 . S
O149 Sc133 2.105 . S
O149 C139 1.268 . S
O150 Sc134 2.105 1_554 S
O150 C141 1.268 . S
O151 Sc132 2.105 . S
O151 C137 1.268 . S
O152 Sc134 2.105 . S
O152 C136 1.268 . S
O153 Sc133 2.105 . S
O153 C138 1.268 . S
Sc154 O157 2.025 . S
Sc154 O164 2.105 . S
Sc154 O167 2.105 . S
Sc154 O170 2.105 . S
Sc154 O173 2.105 . S
Sc155 O157 2.025 . S
Sc155 O165 2.105 . S
Sc155 O169 2.105 . S
Sc155 O171 2.105 . S
Sc155 O175 2.105 . S
Sc156 O157 2.025 . S
Sc156 O166 2.105 . S
Sc156 O168 2.105 . S
Sc156 O172 2.105 . S
Sc156 O174 2.105 . S
O157 Sc154 2.025 . S
O157 Sc155 2.025 . S
O157 Sc156 2.025 . S
C158 O164 1.268 . S
C158 O174 1.268 . S
C159 O165 1.268 . S
C159 O173 1.268 . S
C160 O166 1.268 . S
C160 O175 1.268 . S
C161 O167 1.268 . S
C161 O171 1.268 . S
C162 O168 1.268 . S
C162 O170 1.268 . S
C163 O169 1.268 . S
C163 O172 1.268 . S
O164 Sc154 2.105 . S
O164 C158 1.268 . S
O165 Sc155 2.105 . S
O165 C159 1.268 . S
O166 Sc156 2.105 . S
O166 C160 1.268 . S
O167 Sc154 2.105 . S
O167 C161 1.268 . S
O168 Sc156 2.105 . S
O168 C162 1.268 . S
O169 Sc155 2.105 . S
O169 C163 1.268 . S
O170 Sc154 2.105 . S
O170 C162 1.268 . S
O171 Sc155 2.105 . S
O171 C161 1.268 . S
O172 Sc156 2.105 . S
O172 C163 1.268 . S
O173 Sc154 2.105 . S
O173 C159 1.268 . S
O174 Sc156 2.105 . S
O174 C158 1.268 . S
O175 Sc155 2.105 . S
O175 C160 1.268 . S
C176 C177 1.391 . S
C176 C178 1.394 . S
C176 H192 0.931 . S
C177 C176 1.391 . S
C177 C181 1.376 . S
C178 C176 1.394 . S
C178 C179 1.369 . S
C178 C182 1.531 . S
C179 C178 1.369 . S
C179 C180 1.410 . S
C179 C187 1.503 . S
C180 C179 1.410 . S
C180 C181 1.392 . S
C180 C183 1.511 1_545 S
C181 C177 1.376 . S
C181 C180 1.392 . S
C181 H193 0.929 . S
C182 C178 1.531 . S
C182 H194 0.960 . S
C182 H195 0.962 . S
C182 H196 0.960 . S
C183 C180 1.511 1_565 S
C183 H197 0.961 . S
C183 H198 0.961 . S
C183 H199 0.961 . S
C184 C185 1.370 . S
C184 C186 1.356 1_565 S
C184 H200 0.931 . S
C185 C184 1.370 . S
C185 C189 1.408 1_565 S
C186 C184 1.356 1_545 S
C186 C187 1.381 . S
C186 C190 1.521 1_545 S
C187 C179 1.503 . S
C187 C186 1.381 . S
C187 C188 1.403 . S
C188 C187 1.403 . S
C188 C189 1.404 . S
C188 C191 1.539 . S
C189 C185 1.408 1_545 S
C189 C188 1.404 . S
C189 H201 0.930 . S
C190 C186 1.521 1_565 S
C190 H202 0.956 1_565 S
C190 H203 0.961 . S
C190 H204 0.961 . S
C191 C188 1.539 . S
C191 H205 0.958 . S
C191 H206 0.961 . S
C191 H207 0.960 . S
H192 C176 0.931 . S
H193 C181 0.929 . S
H194 C182 0.960 . S
H195 C182 0.962 . S
H196 C182 0.960 . S
H197 C183 0.961 . S
H198 C183 0.961 . S
H199 C183 0.961 . S
H200 C184 0.931 . S
H201 C189 0.930 . S
H202 C190 0.956 1_545 S
H203 C190 0.961 . S
H204 C190 0.961 . S
H205 C191 0.958 . S
H206 C191 0.961 . S
H207 C191 0.960 . S
C208 C209 1.391 1_545 S
C208 C210 1.394 . S
C208 H224 0.931 . S
C209 C208 1.391 1_565 S
C209 C213 1.376 . S
C210 C208 1.394 . S
C210 C211 1.369 . S
C210 C214 1.531 . S
C211 C210 1.369 . S
C211 C212 1.410 1_545 S
C211 C219 1.503 . S
C212 C211 1.410 1_565 S
C212 C213 1.392 . S
C212 C215 1.511 . S
C213 C209 1.376 . S
C213 C212 1.392 . S
C213 H225 0.929 . S
C214 C210 1.531 . S
C214 H226 0.960 . S
C214 H227 0.962 . S
C214 H228 0.960 . S
C215 C212 1.511 . S
C215 H229 0.961 . S
C215 H230 0.961 . S
C215 H231 0.961 . S
C216 C217 1.370 . S
C216 C218 1.363 . S
C216 H232 0.931 . S
C217 C216 1.370 . S
C217 C221 1.408 . S
C218 C216 1.363 . S
C218 C219 1.370 . S
C218 C222 1.524 1_545 S
C219 C211 1.503 . S
C219 C218 1.370 . S
C219 C220 1.403 . S
C220 C219 1.403 . S
C220 C221 1.404 . S
C220 C223 1.539 . S
C221 C217 1.408 . S
C221 C220 1.404 . S
C221 H233 0.930 . S
C222 C218 1.524 1_565 S
C222 H234 0.956 1_565 S
C222 H235 0.961 . S
C222 H236 0.961 . S
C223 C220 1.539 . S
C223 H237 0.958 . S
C223 H238 0.961 . S
C223 H239 0.960 . S
H224 C208 0.931 . S
H225 C213 0.929 . S
H226 C214 0.960 . S
H227 C214 0.962 . S
H228 C214 0.960 . S
H229 C215 0.961 . S
H230 C215 0.961 . S
H231 C215 0.961 . S
H232 C216 0.931 . S
H233 C221 0.930 . S
H234 C222 0.956 1_545 S
H235 C222 0.961 . S
H236 C222 0.961 . S
H237 C223 0.958 . S
H238 C223 0.961 . S
H239 C223 0.960 . S
C240 C241 1.391 . S
C240 C242 1.394 . S
C240 H256 0.931 . S
C241 C240 1.391 . S
C241 C245 1.376 1_545 S
C242 C240 1.394 . S
C242 C243 1.369 1_545 S
C242 C246 1.531 . S
C243 C242 1.369 1_565 S
C243 C244 1.410 . S
C243 C251 1.503 . S
C244 C243 1.410 . S
C244 C245 1.392 . S
C244 C247 1.511 . S
C245 C241 1.376 1_565 S
C245 C244 1.392 . S
C245 H257 0.929 . S
C246 C242 1.531 . S
C246 H258 0.960 . S
C246 H259 0.962 1_545 S
C246 H260 0.960 . S
C247 C244 1.511 . S
C247 H261 0.961 . S
C247 H262 0.961 . S
C247 H263 0.961 . S
C248 C249 1.370 . S
C248 C250 1.363 . S
C248 H264 0.931 . S
C249 C248 1.370 . S
C249 C253 1.408 . S
C250 C248 1.363 . S
C250 C251 1.370 . S
C250 C254 1.524 . S
C251 C243 1.503 . S
C251 C250 1.370 . S
C251 C252 1.403 . S
C252 C251 1.403 . S
C252 C253 1.404 . S
C252 C255 1.539 1_565 S
C253 C249 1.408 . S
C253 C252 1.404 . S
C253 H265 0.930 . S
C254 C250 1.524 . S
C254 H266 0.956 . S
C254 H267 0.961 . S
C254 H268 0.961 . S
C255 C252 1.539 1_545 S
C255 H269 0.958 . S
C255 H270 0.961 . S
C255 H271 0.960 . S
H256 C240 0.931 . S
H257 C245 0.929 . S
H258 C246 0.960 . S
H259 C246 0.962 1_565 S
H260 C246 0.960 . S
H261 C247 0.961 . S
H262 C247 0.961 . S
H263 C247 0.961 . S
H264 C248 0.931 . S
H265 C253 0.930 . S
H266 C254 0.956 . S
H267 C254 0.961 . S
H268 C254 0.961 . S
H269 C255 0.958 . S
H270 C255 0.961 . S
H271 C255 0.960 . S
C272 C273 1.391 . S
C272 C274 1.394 . S
C272 H288 0.931 . S
C273 C272 1.391 . S
C273 C277 1.376 1_545 S
C274 C272 1.394 . S
C274 C275 1.369 1_545 S
C274 C278 1.531 . S
C275 C274 1.369 1_565 S
C275 C276 1.410 . S
C275 C283 1.503 . S
C276 C275 1.410 . S
C276 C277 1.392 . S
C276 C279 1.511 . S
C277 C273 1.376 1_565 S
C277 C276 1.392 . S
C277 H289 0.929 . S
C278 C274 1.531 . S
C278 H290 0.960 . S
C278 H291 0.962 . S
C278 H292 0.960 . S
C279 C276 1.511 . S
C279 H293 0.961 . S
C279 H294 0.961 . S
C279 H295 0.961 . S
C280 C281 1.370 . S
C280 C282 1.363 . S
C280 H296 0.931 . S
C281 C280 1.370 . S
C281 C285 1.408 . S
C282 C280 1.363 . S
C282 C283 1.370 . S
C282 C286 1.524 . S
C283 C275 1.503 . S
C283 C282 1.370 . S
C283 C284 1.403 . S
C284 C283 1.403 . S
C284 C285 1.404 . S
C284 C287 1.539 1_565 S
C285 C281 1.408 . S
C285 C284 1.404 . S
C285 H297 0.930 . S
C286 C282 1.524 . S
C286 H298 0.956 . S
C286 H299 0.961 . S
C286 H300 0.961 . S
C287 C284 1.539 1_545 S
C287 H301 0.958 . S
C287 H302 0.961 . S
C287 H303 0.960 . S
H288 C272 0.931 . S
H289 C277 0.929 . S
H290 C278 0.960 . S
H291 C278 0.962 . S
H292 C278 0.960 . S
H293 C279 0.961 . S
H294 C279 0.961 . S
H295 C279 0.961 . S
H296 C280 0.931 . S
H297 C285 0.930 . S
H298 C286 0.956 . S
H299 C286 0.961 . S
H300 C286 0.961 . S
H301 C287 0.958 . S
H302 C287 0.961 . S
H303 C287 0.960 . S
C304 C305 1.391 . S
C304 C306 1.394 . S
C304 H320 0.931 . S
C305 C304 1.391 . S
C305 C309 1.376 . S
C306 C304 1.394 . S
C306 C307 1.369 . S
C306 C310 1.531 . S
C307 C306 1.369 . S
C307 C308 1.410 . S
C307 C315 1.503 . S
C308 C307 1.410 . S
C308 C309 1.392 . S
C308 C311 1.511 . S
C309 C305 1.376 . S
C309 C308 1.392 . S
C309 H321 0.929 . S
C310 C306 1.531 . S
C310 H322 0.960 . S
C310 H323 0.962 . S
C310 H324 0.960 . S
C311 C308 1.511 . S
C311 H325 0.961 . S
C311 H326 0.961 . S
C311 H327 0.961 . S
C312 C313 1.370 . S
C312 C314 1.363 . S
C312 H328 0.931 . S
C313 C312 1.370 . S
C313 C317 1.408 . S
C314 C312 1.363 . S
C314 C315 1.370 . S
C314 C318 1.524 . S
C315 C307 1.503 . S
C315 C314 1.370 . S
C315 C316 1.403 . S
C316 C315 1.403 . S
C316 C317 1.404 . S
C316 C319 1.539 . S
C317 C313 1.408 . S
C317 C316 1.404 . S
C317 H329 0.930 . S
C318 C314 1.524 . S
C318 H330 0.956 . S
C318 H331 0.961 . S
C318 H332 0.961 . S
C319 C316 1.539 . S
C319 H333 0.958 . S
C319 H334 0.961 . S
C319 H335 0.960 . S
H320 C304 0.931 . S
H321 C309 0.929 . S
H322 C310 0.960 . S
H323 C310 0.962 . S
H324 C310 0.960 . S
H325 C311 0.961 . S
H326 C311 0.961 . S
H327 C311 0.961 . S
H328 C312 0.931 . S
H329 C317 0.930 . S
H330 C318 0.956 . S
H331 C318 0.961 . S
H332 C318 0.961 . S
H333 C319 0.958 . S
H334 C319 0.961 . S
H335 C319 0.960 . S
C336 C337 1.391 . S
C336 C338 1.394 . S
C336 H352 0.931 . S
C337 C336 1.391 . S
C337 C341 1.376 . S
C338 C336 1.394 . S
C338 C339 1.369 . S
C338 C342 1.531 . S
C339 C338 1.369 . S
C339 C340 1.410 . S
C339 C347 1.503 . S
C340 C339 1.410 . S
C340 C341 1.392 . S
C340 C343 1.511 . S
C341 C337 1.376 . S
C341 C340 1.392 . S
C341 H353 0.929 . S
C342 C338 1.531 . S
C342 H354 0.960 . S
C342 H355 0.962 . S
C342 H356 0.960 . S
C343 C340 1.511 . S
C343 H357 0.961 . S
C343 H358 0.961 . S
C343 H359 0.961 . S
C344 C345 1.370 . S
C344 C346 1.363 . S
C344 H360 0.931 . S
C345 C344 1.370 . S
C345 C349 1.408 . S
C346 C344 1.363 . S
C346 C347 1.370 . S
C346 C350 1.524 . S
C347 C339 1.503 . S
C347 C346 1.370 . S
C347 C348 1.403 . S
C348 C347 1.403 . S
C348 C349 1.404 . S
C348 C351 1.539 . S
C349 C345 1.408 . S
C349 C348 1.404 . S
C349 H361 0.930 . S
C350 C346 1.524 . S
C350 H362 0.956 . S
C350 H363 0.961 . S
C350 H364 0.961 . S
C351 C348 1.539 . S
C351 H365 0.958 . S
C351 H366 0.961 . S
C351 H367 0.960 . S
H352 C336 0.931 . S
H353 C341 0.929 . S
H354 C342 0.960 . S
H355 C342 0.962 . S
H356 C342 0.960 . S
H357 C343 0.961 . S
H358 C343 0.961 . S
H359 C343 0.961 . S
H360 C344 0.931 . S
H361 C349 0.930 . S
H362 C350 0.956 . S
H363 C350 0.961 . S
H364 C350 0.961 . S
H365 C351 0.958 . S
H366 C351 0.961 . S
H367 C351 0.960 . S
C368 C369 1.391 . S
C368 C370 1.394 . S
C368 H384 0.931 . S
C369 C368 1.391 . S
C369 C373 1.376 . S
C370 C368 1.394 . S
C370 C371 1.369 . S
C370 C374 1.531 . S
C371 C370 1.369 . S
C371 C372 1.410 . S
C371 C379 1.503 . S
C372 C371 1.410 . S
C372 C373 1.392 . S
C372 C375 1.511 . S
C373 C369 1.376 . S
C373 C372 1.392 . S
C373 H385 0.929 . S
C374 C370 1.531 . S
C374 H386 0.960 . S
C374 H387 0.962 . S
C374 H388 0.960 . S
C375 C372 1.511 . S
C375 H389 0.961 . S
C375 H390 0.961 . S
C375 H391 0.961 . S
C376 C377 1.370 . S
C376 C378 1.363 . S
C376 H392 0.931 . S
C377 C376 1.370 . S
C377 C381 1.408 . S
C378 C376 1.363 . S
C378 C379 1.370 . S
C378 C382 1.524 . S
C379 C371 1.503 . S
C379 C378 1.370 . S
C379 C380 1.403 . S
C380 C379 1.403 . S
C380 C381 1.404 . S
C380 C383 1.539 . S
C381 C377 1.408 . S
C381 C380 1.404 . S
C381 H393 0.930 . S
C382 C378 1.524 . S
C382 H394 0.956 . S
C382 H395 0.961 . S
C382 H396 0.961 . S
C383 C380 1.539 . S
C383 H397 0.958 . S
C383 H398 0.961 . S
C383 H399 0.960 . S
H384 C368 0.931 . S
H385 C373 0.929 . S
H386 C374 0.960 . S
H387 C374 0.962 . S
H388 C374 0.960 . S
H389 C375 0.961 . S
H390 C375 0.961 . S
H391 C375 0.961 . S
H392 C376 0.931 . S
H393 C381 0.930 . S
H394 C382 0.956 . S
H395 C382 0.961 . S
H396 C382 0.961 . S
H397 C383 0.958 . S
H398 C383 0.961 . S
H399 C383 0.960 . S
C400 C401 1.391 . S
C400 C402 1.394 . S
C400 H416 0.931 . S
C401 C400 1.391 . S
C401 C405 1.376 . S
C402 C400 1.394 . S
C402 C403 1.369 . S
C402 C406 1.531 . S
C403 C402 1.369 . S
C403 C404 1.410 . S
C403 C411 1.503 . S
C404 C403 1.410 . S
C404 C405 1.392 . S
C404 C407 1.511 . S
C405 C401 1.376 . S
C405 C404 1.392 . S
C405 H417 0.929 . S
C406 C402 1.531 . S
C406 H418 0.960 . S
C406 H419 0.962 . S
C406 H420 0.960 . S
C407 C404 1.511 . S
C407 H421 0.961 . S
C407 H422 0.961 . S
C407 H423 0.961 . S
C408 C409 1.370 . S
C408 C410 1.363 . S
C408 H424 0.931 . S
C409 C408 1.370 . S
C409 C413 1.408 . S
C410 C408 1.363 . S
C410 C411 1.370 . S
C410 C414 1.524 . S
C411 C403 1.503 . S
C411 C410 1.370 . S
C411 C412 1.403 . S
C412 C411 1.403 . S
C412 C413 1.404 . S
C412 C415 1.539 . S
C413 C409 1.408 . S
C413 C412 1.404 . S
C413 H425 0.930 . S
C414 C410 1.524 . S
C414 H426 0.956 . S
C414 H427 0.961 . S
C414 H428 0.961 . S
C415 C412 1.539 . S
C415 H429 0.958 . S
C415 H430 0.961 . S
C415 H431 0.960 . S
H416 C400 0.931 . S
H417 C405 0.929 . S
H418 C406 0.960 . S
H419 C406 0.962 . S
H420 C406 0.960 . S
H421 C407 0.961 . S
H422 C407 0.961 . S
H423 C407 0.961 . S
H424 C408 0.931 . S
H425 C413 0.930 . S
H426 C414 0.956 . S
H427 C414 0.961 . S
H428 C414 0.961 . S
H429 C415 0.958 . S
H430 C415 0.961 . S
H431 C415 0.960 . S
C432 C433 1.384 1_556 S
C432 C434 1.397 . S
C432 H448 0.935 . S
C433 C432 1.384 1_554 S
C433 C437 1.376 . S
C434 C432 1.397 . S
C434 C435 1.369 1_556 S
C434 C438 1.531 . S
C435 C434 1.369 1_554 S
C435 C436 1.410 . S
C435 C443 1.503 1_554 S
C436 C435 1.410 . S
C436 C437 1.392 . S
C436 C439 1.511 1_545 S
C437 C433 1.376 . S
C437 C436 1.392 . S
C437 H449 0.929 . S
C438 C434 1.531 . S
C438 H450 0.960 . S
C438 H451 0.962 . S
C438 H452 0.960 . S
C439 C436 1.511 1_565 S
C439 H453 0.961 . S
C439 H454 0.961 . S
C439 H455 0.961 1_565 S
C440 C441 1.370 . S
C440 C442 1.363 . S
C440 H456 0.931 . S
C441 C440 1.370 . S
C441 C445 1.408 1_565 S
C442 C440 1.363 . S
C442 C443 1.370 1_565 S
C442 C446 1.524 . S
C443 C435 1.503 1_556 S
C443 C442 1.370 1_545 S
C443 C444 1.403 . S
C444 C443 1.403 . S
C444 C445 1.404 . S
C444 C447 1.539 1_556 S
C445 C441 1.408 1_545 S
C445 C444 1.404 . S
C445 H457 0.930 . S
C446 C442 1.524 . S
C446 H458 0.956 . S
C446 H459 0.961 1_556 S
C446 H460 0.961 . S
C447 C444 1.539 1_554 S
C447 H461 0.958 1_554 S
C447 H462 0.961 . S
C447 H463 0.960 . S
H448 C432 0.935 . S
H449 C437 0.929 . S
H450 C438 0.960 . S
H451 C438 0.962 . S
H452 C438 0.960 . S
H453 C439 0.961 . S
H454 C439 0.961 . S
H455 C439 0.961 1_545 S
H456 C440 0.931 . S
H457 C445 0.930 . S
H458 C446 0.956 . S
H459 C446 0.961 1_554 S
H460 C446 0.961 . S
H461 C447 0.958 1_556 S
H462 C447 0.961 . S
H463 C447 0.960 . S
C464 C465 1.391 . S
C464 C466 1.394 . S
C464 H480 0.931 . S
C465 C464 1.391 . S
C465 C469 1.376 . S
C466 C464 1.394 . S
C466 C467 1.369 . S
C466 C470 1.531 . S
C467 C466 1.369 . S
C467 C468 1.410 . S
C467 C475 1.503 . S
C468 C467 1.410 . S
C468 C469 1.392 . S
C468 C471 1.511 . S
C469 C465 1.376 . S
C469 C468 1.392 . S
C469 H481 0.929 . S
C470 C466 1.531 . S
C470 H482 0.960 . S
C470 H483 0.962 1_565 S
C470 H484 0.960 . S
C471 C468 1.511 . S
C471 H485 0.961 1_565 S
C471 H486 0.961 1_565 S
C471 H487 0.961 . S
C472 C473 1.370 . S
C472 C474 1.363 . S
C472 H488 0.931 . S
C473 C472 1.370 . S
C473 C477 1.408 1_545 S
C474 C472 1.363 . S
C474 C475 1.370 1_545 S
C474 C478 1.524 . S
C475 C467 1.503 . S
C475 C474 1.370 1_565 S
C475 C476 1.403 . S
C476 C475 1.403 . S
C476 C477 1.404 . S
C476 C479 1.539 . S
C477 C473 1.408 1_565 S
C477 C476 1.404 . S
C477 H489 0.930 . S
C478 C474 1.524 . S
C478 H490 0.956 . S
C478 H491 0.961 . S
C478 H492 0.961 . S
C479 C476 1.539 . S
C479 H493 0.958 . S
C479 H494 0.961 . S
C479 H495 0.960 . S
H480 C464 0.931 . S
H481 C469 0.929 . S
H482 C470 0.960 . S
H483 C470 0.962 1_545 S
H484 C470 0.960 . S
H485 C471 0.961 1_545 S
H486 C471 0.961 1_545 S
H487 C471 0.961 . S
H488 C472 0.931 . S
H489 C477 0.930 . S
H490 C478 0.956 . S
H491 C478 0.961 . S
H492 C478 0.961 . S
H493 C479 0.958 . S
H494 C479 0.961 . S
H495 C479 0.960 . S
C496 C497 1.391 1_556 S
C496 C498 1.394 . S
C496 H512 0.931 . S
C497 C496 1.391 1_554 S
C497 C501 1.376 . S
C498 C496 1.394 . S
C498 C499 1.369 1_556 S
C498 C502 1.531 . S
C499 C498 1.369 1_554 S
C499 C500 1.410 . S
C499 C507 1.503 1_654 S
C500 C499 1.410 . S
C500 C501 1.392 . S
C500 C503 1.511 1_655 S
C501 C497 1.376 . S
C501 C500 1.392 . S
C501 H513 0.929 . S
C502 C498 1.531 . S
C502 H514 0.960 . S
C502 H515 0.962 . S
C502 H516 0.960 . S
C503 C500 1.511 1_455 S
C503 H517 0.961 . S
C503 H518 0.961 . S
C503 H519 0.961 . S
C504 C505 1.370 . S
C504 C506 1.363 . S
C504 H520 0.931 . S
C505 C504 1.370 . S
C505 C509 1.408 . S
C506 C504 1.363 . S
C506 C507 1.370 . S
C506 C510 1.524 1_455 S
C507 C499 1.503 1_456 S
C507 C506 1.370 . S
C507 C508 1.403 . S
C508 C507 1.403 . S
C508 C509 1.404 . S
C508 C511 1.539 1_556 S
C509 C505 1.408 . S
C509 C508 1.404 . S
C509 H521 0.930 . S
C510 C506 1.524 1_655 S
C510 H522 0.956 . S
C510 H523 0.961 1_556 S
C510 H524 0.961 1_655 S
C511 C508 1.539 1_554 S
C511 H525 0.958 1_554 S
C511 H526 0.961 . S
C511 H527 0.960 . S
H512 C496 0.931 . S
H513 C501 0.929 . S
H514 C502 0.960 . S
H515 C502 0.962 . S
H516 C502 0.960 . S
H517 C503 0.961 . S
H518 C503 0.961 . S
H519 C503 0.961 . S
H520 C504 0.931 . S
H521 C509 0.930 . S
H522 C510 0.956 . S
H523 C510 0.961 1_554 S
H524 C510 0.961 1_455 S
H525 C511 0.958 1_556 S
H526 C511 0.961 . S
H527 C511 0.960 . S
C528 C529 1.391 . S
C528 C530 1.394 . S
C528 H544 0.931 . S
C529 C528 1.391 . S
C529 C533 1.376 . S
C530 C528 1.394 . S
C530 C531 1.369 . S
C530 C534 1.531 . S
C531 C530 1.369 . S
C531 C532 1.410 . S
C531 C539 1.503 1_455 S
C532 C531 1.410 . S
C532 C533 1.392 . S
C532 C535 1.511 . S
C533 C529 1.376 . S
C533 C532 1.392 . S
C533 H545 0.929 . S
C534 C530 1.531 . S
C534 H546 0.960 1_455 S
C534 H547 0.962 1_455 S
C534 H548 0.960 . S
C535 C532 1.511 . S
C535 H549 0.961 . S
C535 H550 0.961 . S
C535 H551 0.961 . S
C536 C537 1.370 . S
C536 C538 1.363 . S
C536 H552 0.931 . S
C537 C536 1.370 . S
C537 C541 1.408 . S
C538 C536 1.363 . S
C538 C539 1.370 . S
C538 C542 1.524 . S
C539 C531 1.503 1_655 S
C539 C538 1.370 . S
C539 C540 1.403 . S
C540 C539 1.403 . S
C540 C541 1.404 . S
C540 C543 1.539 1_655 S
C541 C537 1.408 . S
C541 C540 1.404 . S
C541 H553 0.930 . S
C542 C538 1.524 . S
C542 H554 0.956 . S
C542 H555 0.961 . S
C542 H556 0.961 . S
C543 C540 1.539 1_455 S
C543 H557 0.958 . S
C543 H558 0.961 . S
C543 H559 0.960 . S
H544 C528 0.931 . S
H545 C533 0.929 . S
H546 C534 0.960 1_655 S
H547 C534 0.962 1_655 S
H548 C534 0.960 . S
H549 C535 0.961 . S
H550 C535 0.961 . S
H551 C535 0.961 . S
H552 C536 0.931 . S
H553 C541 0.930 . S
H554 C542 0.956 . S
H555 C542 0.961 . S
H556 C542 0.961 . S
H557 C543 0.958 . S
H558 C543 0.961 . S
H559 C543 0.960 . S
C560 C561 1.391 . S
C560 C562 1.394 1_545 S
C560 H576 0.931 1_545 S
C561 C560 1.391 . S
C561 C565 1.376 . S
C562 C560 1.394 1_565 S
C562 C563 1.369 1_565 S
C562 C566 1.531 . S
C563 C562 1.369 1_545 S
C563 C564 1.410 . S
C563 C571 1.503 1_445 S
C564 C563 1.410 . S
C564 C565 1.392 . S
C564 C567 1.511 1_455 S
C565 C561 1.376 . S
C565 C564 1.392 . S
C565 H577 0.929 . S
C566 C562 1.531 . S
C566 H578 0.960 . S
C566 H579 0.962 1_554 S
C566 H580 0.960 . S
C567 C564 1.511 1_655 S
C567 H581 0.961 . S
C567 H582 0.961 . S
C567 H583 0.961 . S
C568 C569 1.370 . S
C568 C570 1.363 . S
C568 H584 0.931 . S
C569 C568 1.370 . S
C569 C573 1.408 1_556 S
C570 C568 1.363 . S
C570 C571 1.370 1_556 S
C570 C574 1.524 1_565 S
C571 C563 1.503 1_665 S
C571 C570 1.370 1_554 S
C571 C572 1.403 . S
C572 C571 1.403 . S
C572 C573 1.404 . S
C572 C575 1.539 . S
C573 C569 1.408 1_554 S
C573 C572 1.404 . S
C573 H585 0.930 . S
C574 C570 1.524 1_545 S
C574 H586 0.956 1_645 S
C574 H587 0.961 . S
C574 H588 0.961 . S
C575 C572 1.539 . S
C575 H589 0.958 . S
C575 H590 0.961 . S
C575 H591 0.960 . S
H576 C560 0.931 1_565 S
H577 C565 0.929 . S
H578 C566 0.960 . S
H579 C566 0.962 1_556 S
H580 C566 0.960 . S
H581 C567 0.961 . S
H582 C567 0.961 . S
H583 C567 0.961 . S
H584 C568 0.931 . S
H585 C573 0.930 . S
H586 C574 0.956 1_465 S
H587 C574 0.961 . S
H588 C574 0.961 . S
H589 C575 0.958 . S
H590 C575 0.961 . S
H591 C575 0.960 . S
C592 C593 1.391 . S
C592 C594 1.394 . S
C592 H608 0.931 . S
C593 C592 1.391 . S
C593 C597 1.376 . S
C594 C592 1.394 . S
C594 C595 1.369 . S
C594 C598 1.531 1_655 S
C595 C594 1.369 . S
C595 C596 1.410 1_545 S
C595 C603 1.503 1_645 S
C596 C595 1.410 1_565 S
C596 C597 1.392 1_565 S
C596 C599 1.511 . S
C597 C593 1.376 . S
C597 C596 1.392 1_545 S
C597 H609 0.939 . S
C598 C594 1.531 1_455 S
C598 H610 0.960 . S
C598 H611 0.962 . S
C598 H612 0.960 1_455 S
C599 C596 1.511 . S
C599 H613 0.961 . S
C599 H614 0.961 . S
C599 H615 0.961 . S
C600 C601 1.370 . S
C600 C602 1.363 . S
C600 H616 0.931 . S
C601 C600 1.370 . S
C601 C605 1.408 . S
C602 C600 1.363 . S
C602 C603 1.370 . S
C602 C606 1.524 1_565 S
C603 C595 1.503 1_465 S
C603 C602 1.370 . S
C603 C604 1.403 . S
C604 C603 1.403 . S
C604 C605 1.404 . S
C604 C607 1.539 1_455 S
C605 C601 1.408 . S
C605 C604 1.404 . S
C605 H617 0.930 . S
C606 C602 1.524 1_545 S
C606 H618 0.956 . S
C606 H619 0.961 . S
C606 H620 0.961 . S
C607 C604 1.539 1_655 S
C607 H621 0.958 . S
C607 H622 0.961 . S
C607 H623 0.960 . S
H608 C592 0.931 . S
H609 C597 0.939 . S
H610 C598 0.960 . S
H611 C598 0.962 . S
H612 C598 0.960 1_655 S
H613 C599 0.961 . S
H614 C599 0.961 . S
H615 C599 0.961 . S
H616 C600 0.931 . S
H617 C605 0.930 . S
H618 C606 0.956 . S
H619 C606 0.961 . S
H620 C606 0.961 . S
H621 C607 0.958 . S
H622 C607 0.961 . S
H623 C607 0.960 . S
C624 C625 1.391 . S
C624 C626 1.394 . S
C624 H640 0.931 . S
C625 C624 1.391 . S
C625 C629 1.376 . S
C626 C624 1.394 . S
C626 C627 1.369 . S
C626 C630 1.531 . S
C627 C626 1.369 . S
C627 C628 1.410 . S
C627 C635 1.503 . S
C628 C627 1.410 . S
C628 C629 1.392 . S
C628 C631 1.511 . S
C629 C625 1.376 . S
C629 C628 1.392 . S
C629 H641 0.929 . S
C630 C626 1.531 . S
C630 H642 0.960 . S
C630 H643 0.962 1_556 S
C630 H644 0.960 . S
C631 C628 1.511 . S
C631 H645 0.961 . S
C631 H646 0.961 1_556 S
C631 H647 0.961 . S
C632 C633 1.370 . S
C632 C634 1.363 . S
C632 H648 0.931 . S
C633 C632 1.370 . S
C633 C637 1.408 1_554 S
C634 C632 1.363 . S
C634 C635 1.370 1_554 S
C634 C638 1.524 . S
C635 C627 1.503 . S
C635 C634 1.370 1_556 S
C635 C636 1.403 . S
C636 C635 1.403 . S
C636 C637 1.404 . S
C636 C639 1.539 . S
C637 C633 1.408 1_556 S
C637 C636 1.404 . S
C637 H649 0.930 . S
C638 C634 1.524 . S
C638 H650 0.956 . S
C638 H651 0.961 . S
C638 H652 0.961 . S
C639 C636 1.539 . S
C639 H653 0.958 . S
C639 H654 0.961 . S
C639 H655 0.960 . S
H640 C624 0.931 . S
H641 C629 0.929 . S
H642 C630 0.960 . S
H643 C630 0.962 1_554 S
H644 C630 0.960 . S
H645 C631 0.961 . S
H646 C631 0.961 1_554 S
H647 C631 0.961 . S
H648 C632 0.931 . S
H649 C637 0.930 . S
H650 C638 0.956 . S
H651 C638 0.961 . S
H652 C638 0.961 . S
H653 C639 0.958 . S
H654 C639 0.961 . S
H655 C639 0.960 . S
C656 C657 1.391 . S
C656 C658 1.394 . S
C656 H672 0.931 . S
C657 C656 1.391 . S
C657 C661 1.376 . S
C658 C656 1.394 . S
C658 C659 1.369 . S
C658 C662 1.531 . S
C659 C658 1.369 . S
C659 C660 1.410 . S
C659 C667 1.503 . S
C660 C659 1.410 . S
C660 C661 1.392 . S
C660 C663 1.511 . S
C661 C657 1.376 . S
C661 C660 1.392 . S
C661 H673 0.929 . S
C662 C658 1.531 . S
C662 H674 0.960 . S
C662 H675 0.962 . S
C662 H676 0.960 . S
C663 C660 1.511 . S
C663 H677 0.961 . S
C663 H678 0.961 . S
C663 H679 0.961 . S
C664 C665 1.370 . S
C664 C666 1.363 . S
C664 H680 0.931 . S
C665 C664 1.370 . S
C665 C669 1.408 . S
C666 C664 1.363 . S
C666 C667 1.370 . S
C666 C670 1.524 . S
C667 C659 1.503 . S
C667 C666 1.370 . S
C667 C668 1.403 . S
C668 C667 1.403 . S
C668 C669 1.404 . S
C668 C671 1.539 . S
C669 C665 1.408 . S
C669 C668 1.404 . S
C669 H681 0.930 . S
C670 C666 1.524 . S
C670 H682 0.956 . S
C670 H683 0.961 . S
C670 H684 0.961 . S
C671 C668 1.539 . S
C671 H685 0.958 . S
C671 H686 0.961 . S
C671 H687 0.960 . S
H672 C656 0.931 . S
H673 C661 0.929 . S
H674 C662 0.960 . S
H675 C662 0.962 . S
H676 C662 0.960 . S
H677 C663 0.961 . S
H678 C663 0.961 . S
H679 C663 0.961 . S
H680 C664 0.931 . S
H681 C669 0.930 . S
H682 C670 0.956 . S
H683 C670 0.961 . S
H684 C670 0.961 . S
H685 C671 0.958 . S
H686 C671 0.961 . S
H687 C671 0.960 . S
C688 C689 1.391 . S
C688 C690 1.394 . S
C688 H704 0.931 . S
C689 C688 1.391 . S
C689 C693 1.376 . S
C690 C688 1.394 . S
C690 C691 1.369 . S
C690 C694 1.531 . S
C691 C690 1.369 . S
C691 C692 1.410 . S
C691 C699 1.503 . S
C692 C691 1.410 . S
C692 C693 1.392 . S
C692 C695 1.511 . S
C693 C689 1.376 . S
C693 C692 1.392 . S
C693 H705 0.929 . S
C694 C690 1.531 . S
C694 H706 0.960 . S
C694 H707 0.962 . S
C694 H708 0.960 . S
C695 C692 1.511 . S
C695 H709 0.961 . S
C695 H710 0.961 . S
C695 H711 0.961 . S
C696 C697 1.370 . S
C696 C698 1.363 . S
C696 H712 0.931 . S
C697 C696 1.370 . S
C697 C701 1.408 . S
C698 C696 1.363 . S
C698 C699 1.370 . S
C698 C702 1.524 . S
C699 C691 1.503 . S
C699 C698 1.370 . S
C699 C700 1.403 . S
C700 C699 1.403 . S
C700 C701 1.404 . S
C700 C703 1.539 . S
C701 C697 1.408 . S
C701 C700 1.404 . S
C701 H713 0.930 . S
C702 C698 1.524 . S
C702 H714 0.956 . S
C702 H715 0.961 . S
C702 H716 0.961 . S
C703 C700 1.539 . S
C703 H717 0.958 . S
C703 H718 0.961 . S
C703 H719 0.960 . S
H704 C688 0.931 . S
H705 C693 0.929 . S
H706 C694 0.960 . S
H707 C694 0.962 . S
H708 C694 0.960 . S
H709 C695 0.961 . S
H710 C695 0.961 . S
H711 C695 0.961 . S
H712 C696 0.931 . S
H713 C701 0.930 . S
H714 C702 0.956 . S
H715 C702 0.961 . S
H716 C702 0.961 . S
H717 C703 0.958 . S
H718 C703 0.961 . S
H719 C703 0.960 . S
C720 C721 1.391 . S
C720 C722 1.394 . S
C720 H736 0.931 . S
C721 C720 1.391 . S
C721 C725 1.376 . S
C722 C720 1.394 . S
C722 C723 1.369 . S
C722 C726 1.531 . S
C723 C722 1.369 . S
C723 C724 1.410 . S
C723 C731 1.503 . S
C724 C723 1.410 . S
C724 C725 1.392 . S
C724 C727 1.511 . S
C725 C721 1.376 . S
C725 C724 1.392 . S
C725 H737 0.929 . S
C726 C722 1.531 . S
C726 H738 0.960 . S
C726 H739 0.962 . S
C726 H740 0.960 . S
C727 C724 1.511 . S
C727 H741 0.961 . S
C727 H742 0.961 . S
C727 H743 0.961 . S
C728 C729 1.370 . S
C728 C730 1.363 . S
C728 H744 0.931 . S
C729 C728 1.370 . S
C729 C733 1.408 . S
C730 C728 1.363 . S
C730 C731 1.370 . S
C730 C734 1.524 . S
C731 C723 1.503 . S
C731 C730 1.370 . S
C731 C732 1.403 . S
C732 C731 1.403 . S
C732 C733 1.404 . S
C732 C735 1.539 . S
C733 C729 1.408 . S
C733 C732 1.404 . S
C733 H745 0.930 . S
C734 C730 1.524 . S
C734 H746 0.956 . S
C734 H747 0.961 . S
C734 H748 0.961 . S
C735 C732 1.539 . S
C735 H749 0.958 . S
C735 H750 0.961 . S
C735 H751 0.960 . S
H736 C720 0.931 . S
H737 C725 0.929 . S
H738 C726 0.960 . S
H739 C726 0.962 . S
H740 C726 0.960 . S
H741 C727 0.961 . S
H742 C727 0.961 . S
H743 C727 0.961 . S
H744 C728 0.931 . S
H745 C733 0.930 . S
H746 C734 0.956 . S
H747 C734 0.961 . S
H748 C734 0.961 . S
H749 C735 0.958 . S
H750 C735 0.961 . S
H751 C735 0.960 . S
C752 C753 1.391 . S
C752 C754 1.394 . S
C752 H768 0.931 . S
C753 C752 1.391 . S
C753 C757 1.376 . S
C754 C752 1.394 . S
C754 C755 1.369 . S
C754 C758 1.531 . S
C755 C754 1.369 . S
C755 C756 1.410 . S
C755 C763 1.503 1_655 S
C756 C755 1.410 . S
C756 C757 1.392 . S
C756 C759 1.511 1_655 S
C757 C753 1.376 . S
C757 C756 1.392 . S
C757 H769 0.929 . S
C758 C754 1.531 . S
C758 H770 0.960 . S
C758 H771 0.962 . S
C758 H772 0.960 . S
C759 C756 1.511 1_455 S
C759 H773 0.961 . S
C759 H774 0.961 . S
C759 H775 0.961 . S
C760 C761 1.370 . S
C760 C762 1.363 . S
C760 H776 0.931 . S
C761 C760 1.370 . S
C761 C765 1.408 . S
C762 C760 1.363 . S
C762 C763 1.370 . S
C762 C766 1.524 . S
C763 C755 1.503 1_455 S
C763 C762 1.370 . S
C763 C764 1.403 . S
C764 C763 1.403 . S
C764 C765 1.404 . S
C764 C767 1.539 . S
C765 C761 1.408 . S
C765 C764 1.404 . S
C765 H777 0.930 . S
C766 C762 1.524 . S
C766 H778 0.956 1_455 S
C766 H779 0.961 . S
C766 H780 0.961 . S
C767 C764 1.539 . S
C767 H781 0.958 1_455 S
C767 H782 0.961 . S
C767 H783 0.960 1_455 S
H768 C752 0.931 . S
H769 C757 0.929 . S
H770 C758 0.960 . S
H771 C758 0.962 . S
H772 C758 0.960 . S
H773 C759 0.961 . S
H774 C759 0.961 . S
H775 C759 0.961 . S
H776 C760 0.931 . S
H777 C765 0.930 . S
H778 C766 0.956 1_655 S
H779 C766 0.961 . S
H780 C766 0.961 . S
H781 C767 0.958 1_655 S
H782 C767 0.961 . S
H783 C767 0.960 1_655 S
C784 C785 1.391 . S
C784 C786 1.394 . S
C784 H800 0.931 . S
C785 C784 1.391 . S
C785 C789 1.376 . S
C786 C784 1.394 . S
C786 C787 1.369 . S
C786 C790 1.531 1_655 S
C787 C786 1.369 . S
C787 C788 1.410 . S
C787 C795 1.503 1_655 S
C788 C787 1.410 . S
C788 C789 1.392 . S
C788 C791 1.511 . S
C789 C785 1.376 . S
C789 C788 1.392 . S
C789 H801 0.929 . S
C790 C786 1.531 1_455 S
C790 H802 0.960 . S
C790 H803 0.962 . S
C790 H804 0.960 . S
C791 C788 1.511 . S
C791 H805 0.961 . S
C791 H806 0.961 . S
C791 H807 0.961 . S
C792 C793 1.370 . S
C792 C794 1.363 . S
C792 H808 0.931 . S
C793 C792 1.370 . S
C793 C797 1.408 . S
C794 C792 1.363 . S
C794 C795 1.370 . S
C794 C798 1.524 . S
C795 C787 1.503 1_455 S
C795 C794 1.370 . S
C795 C796 1.403 . S
C796 C795 1.403 . S
C796 C797 1.404 . S
C796 C799 1.539 . S
C797 C793 1.408 . S
C797 C796 1.404 . S
C797 H809 0.930 . S
C798 C794 1.524 . S
C798 H810 0.956 . S
C798 H811 0.961 1_455 S
C798 H812 0.961 . S
C799 C796 1.539 . S
C799 H813 0.958 . S
C799 H814 0.961 . S
C799 H815 0.960 1_455 S
H800 C784 0.931 . S
H801 C789 0.929 . S
H802 C790 0.960 . S
H803 C790 0.962 . S
H804 C790 0.960 . S
H805 C791 0.961 . S
H806 C791 0.961 . S
H807 C791 0.961 . S
H808 C792 0.931 . S
H809 C797 0.930 . S
H810 C798 0.956 . S
H811 C798 0.961 1_655 S
H812 C798 0.961 . S
H813 C799 0.958 . S
H814 C799 0.961 . S
H815 C799 0.960 1_655 S
C816 C817 1.391 . S
C816 C818 1.394 . S
C816 H832 0.931 . S
C817 C816 1.391 . S
C817 C821 1.376 1_554 S
C818 C816 1.394 . S
C818 C819 1.369 . S
C818 C822 1.531 . S
C819 C818 1.369 . S
C819 C820 1.410 1_554 S
C819 C827 1.503 . S
C820 C819 1.410 1_556 S
C820 C821 1.392 . S
C820 C823 1.511 . S
C821 C817 1.376 1_556 S
C821 C820 1.392 . S
C821 H833 0.929 . S
C822 C818 1.531 . S
C822 H834 0.960 . S
C822 H835 0.962 . S
C822 H836 0.960 . S
C823 C820 1.511 . S
C823 H837 0.961 . S
C823 H838 0.961 . S
C823 H839 0.961 . S
C824 C825 1.370 . S
C824 C826 1.363 . S
C824 H840 0.931 . S
C825 C824 1.370 . S
C825 C829 1.408 1_556 S
C826 C824 1.363 . S
C826 C827 1.370 1_556 S
C826 C830 1.524 . S
C827 C819 1.503 . S
C827 C826 1.370 1_554 S
C827 C828 1.403 . S
C828 C827 1.403 . S
C828 C829 1.404 . S
C828 C831 1.539 . S
C829 C825 1.408 1_554 S
C829 C828 1.404 . S
C829 H841 0.930 . S
C830 C826 1.524 . S
C830 H842 0.956 . S
C830 H843 0.961 . S
C830 H844 0.961 . S
C831 C828 1.539 . S
C831 H845 0.958 . S
C831 H846 0.961 . S
C831 H847 0.960 . S
H832 C816 0.931 . S
H833 C821 0.929 . S
H834 C822 0.960 . S
H835 C822 0.962 . S
H836 C822 0.960 . S
H837 C823 0.961 . S
H838 C823 0.961 . S
H839 C823 0.961 . S
H840 C824 0.931 . S
H841 C829 0.930 . S
H842 C830 0.956 . S
H843 C830 0.961 . S
H844 C830 0.961 . S
H845 C831 0.958 . S
H846 C831 0.961 . S
H847 C831 0.960 . S
C848 C849 1.391 . S
C848 C850 1.394 . S
C848 H864 0.931 . S
C849 C848 1.391 . S
C849 C853 1.376 . S
C850 C848 1.394 . S
C850 C851 1.369 . S
C850 C854 1.531 . S
C851 C850 1.369 . S
C851 C852 1.410 . S
C851 C859 1.503 . S
C852 C851 1.410 . S
C852 C853 1.392 . S
C852 C855 1.511 . S
C853 C849 1.376 . S
C853 C852 1.392 . S
C853 H865 0.929 . S
C854 C850 1.531 . S
C854 H866 0.960 . S
C854 H867 0.962 . S
C854 H868 0.960 . S
C855 C852 1.511 . S
C855 H869 0.961 . S
C855 H870 0.961 . S
C855 H871 0.961 . S
C856 C857 1.370 . S
C856 C858 1.363 . S
C856 H872 0.931 . S
C857 C856 1.370 . S
C857 C861 1.408 . S
C858 C856 1.363 . S
C858 C859 1.370 . S
C858 C862 1.524 . S
C859 C851 1.503 . S
C859 C858 1.370 . S
C859 C860 1.403 . S
C860 C859 1.403 . S
C860 C861 1.404 . S
C860 C863 1.539 . S
C861 C857 1.408 . S
C861 C860 1.404 . S
C861 H873 0.930 . S
C862 C858 1.524 . S
C862 H874 0.956 . S
C862 H875 0.961 . S
C862 H876 0.961 . S
C863 C860 1.539 . S
C863 H877 0.958 . S
C863 H878 0.961 . S
C863 H879 0.960 . S
H864 C848 0.931 . S
H865 C853 0.929 . S
H866 C854 0.960 . S
H867 C854 0.962 . S
H868 C854 0.960 . S
H869 C855 0.961 . S
H870 C855 0.961 . S
H871 C855 0.961 . S
H872 C856 0.931 . S
H873 C861 0.930 . S
H874 C862 0.956 . S
H875 C862 0.961 . S
H876 C862 0.961 . S
H877 C863 0.958 . S
H878 C863 0.961 . S
H879 C863 0.960 . S
C880 C881 1.391 1_554 S
C880 C882 1.394 . S
C880 H896 0.931 . S
C881 C880 1.391 1_556 S
C881 C885 1.376 . S
C882 C880 1.394 . S
C882 C883 1.369 . S
C882 C886 1.531 . S
C883 C882 1.369 . S
C883 C884 1.410 1_554 S
C883 C891 1.503 . S
C884 C883 1.410 1_556 S
C884 C885 1.392 . S
C884 C887 1.511 . S
C885 C881 1.376 . S
C885 C884 1.392 . S
C885 H897 0.929 . S
C886 C882 1.531 . S
C886 H898 0.960 . S
C886 H899 0.962 . S
C886 H900 0.960 . S
C887 C884 1.511 . S
C887 H901 0.961 . S
C887 H902 0.961 . S
C887 H903 0.961 . S
C888 C889 1.370 1_556 S
C888 C890 1.363 . S
C888 H904 0.931 . S
C889 C888 1.370 1_554 S
C889 C893 1.408 . S
C890 C888 1.363 . S
C890 C891 1.370 1_556 S
C890 C894 1.524 . S
C891 C883 1.503 . S
C891 C890 1.370 1_554 S
C891 C892 1.403 . S
C892 C891 1.403 . S
C892 C893 1.404 . S
C892 C895 1.539 . S
C893 C889 1.408 . S
C893 C892 1.404 . S
C893 H905 0.930 . S
C894 C890 1.524 . S
C894 H906 0.956 . S
C894 H907 0.961 . S
C894 H908 0.961 . S
C895 C892 1.539 . S
C895 H909 0.958 . S
C895 H910 0.961 . S
C895 H911 0.960 . S
H896 C880 0.931 . S
H897 C885 0.929 . S
H898 C886 0.960 . S
H899 C886 0.962 . S
H900 C886 0.960 . S
H901 C887 0.961 . S
H902 C887 0.961 . S
H903 C887 0.961 . S
H904 C888 0.931 . S
H905 C893 0.930 . S
H906 C894 0.956 . S
H907 C894 0.961 . S
H908 C894 0.961 . S
H909 C895 0.958 . S
H910 C895 0.961 . S
H911 C895 0.960 . S
C912 C913 1.391 . S
C912 C914 1.394 . S
C912 H928 0.931 . S
C913 C912 1.391 . S
C913 C917 1.376 . S
C914 C912 1.394 . S
C914 C915 1.369 . S
C914 C918 1.531 . S
C915 C914 1.369 . S
C915 C916 1.410 . S
C915 C923 1.503 . S
C916 C915 1.410 . S
C916 C917 1.392 . S
C916 C919 1.511 . S
C917 C913 1.376 . S
C917 C916 1.392 . S
C917 H929 0.929 . S
C918 C914 1.531 . S
C918 H930 0.960 . S
C918 H931 0.962 . S
C918 H932 0.960 . S
C919 C916 1.511 . S
C919 H933 0.961 . S
C919 H934 0.961 . S
C919 H935 0.961 . S
C920 C921 1.370 . S
C920 C922 1.363 . S
C920 H936 0.931 . S
C921 C920 1.370 . S
C921 C925 1.408 . S
C922 C920 1.363 . S
C922 C923 1.370 . S
C922 C926 1.524 . S
C923 C915 1.503 . S
C923 C922 1.370 . S
C923 C924 1.403 . S
C924 C923 1.403 . S
C924 C925 1.404 . S
C924 C927 1.539 . S
C925 C921 1.408 . S
C925 C924 1.404 . S
C925 H937 0.930 . S
C926 C922 1.524 . S
C926 H938 0.956 . S
C926 H939 0.961 . S
C926 H940 0.961 . S
C927 C924 1.539 . S
C927 H941 0.958 . S
C927 H942 0.961 . S
C927 H943 0.960 . S
H928 C912 0.931 . S
H929 C917 0.929 . S
H930 C918 0.960 . S
H931 C918 0.962 . S
H932 C918 0.960 . S
H933 C919 0.961 . S
H934 C919 0.961 . S
H935 C919 0.961 . S
H936 C920 0.931 . S
H937 C925 0.930 . S
H938 C926 0.956 . S
H939 C926 0.961 . S
H940 C926 0.961 . S
H941 C927 0.958 . S
H942 C927 0.961 . S
H943 C927 0.960 . S
C177 C6 1.256 . S
C185 C71 1.324 . S
C209 C49 1.305 . S
C217 C28 1.290 . S
C241 C29 1.291 . S
C249 C53 1.269 . S
C273 C7 1.287 . S
C281 C75 1.277 . S
C305 C159 1.320 . S
C313 C94 1.289 . S
C337 C116 1.242 . S
C345 C137 1.307 . S
C369 C117 1.291 . S
C377 C141 1.269 . S
C401 C95 1.334 . S
C409 C163 1.274 . S
C433 C9 0.651 . S
C441 C50 0.688 . S
C465 C72 0.619 . S
C473 C31 0.710 . S
C497 C97 0.647 . S
C505 C138 0.690 . S
C529 C119 0.657 . S
C537 C160 0.697 . S
C561 C5 2.112 . S
C569 C51 2.132 . S
C593 C27 2.117 . S
C601 C73 2.133 . S
C625 C139 2.114 . S
C633 C93 2.134 . S
C657 C161 2.124 . S
C665 C115 2.130 . S
C689 C8 1.686 . S
C697 C30 1.696 . S
C721 C48 1.702 . S
C729 C70 1.702 . S
C753 C96 1.687 . S
C761 C118 1.695 . S
C785 C158 1.687 . S
C793 C136 1.695 . S
C817 C4 1.379 . S
C825 C140 1.433 . S
C849 C26 1.402 . S
C857 C162 1.425 . S
C881 C52 1.410 . S
C889 C92 1.422 . S
C913 C114 1.425 . S
C921 C74 1.411 . S
