# Generated by pormake.
# Topology whw, (6)-cn, num edge types: 1
# Building blocks:
#     Node 0, Type 0, BuildingBlock: BETDEL_clean_sbu_0, # of connection points: 6
#     Node 1, Type 0, BuildingBlock: BETDEL_clean_sbu_0, # of connection points: 6
#     Node 2, Type 0, BuildingBlock: BETDEL_clean_sbu_0, # of connection points: 6
#     Node 3, Type 0, BuildingBlock: BETDEL_clean_sbu_0, # of connection points: 6
#     Node 4, Type 0, BuildingBlock: BETDEL_clean_sbu_0, # of connection points: 6
#     Node 5, Type 0, BuildingBlock: BETDEL_clean_sbu_0, # of connection points: 6
#     Node 6, Type 0, BuildingBlock: BETDEL_clean_sbu_0, # of connection points: 6
#     Node 7, Type 0, BuildingBlock: BETDEL_clean_sbu_0, # of connection points: 6
#     Node 8, Type 0, BuildingBlock: BETDEL_clean_sbu_0, # of connection points: 6
#     Node 9, Type 0, BuildingBlock: BETDEL_clean_sbu_0, # of connection points: 6
#     Node 10, Type 0, BuildingBlock: BETDEL_clean_sbu_0, # of connection points: 6
#     Node 11, Type 0, BuildingBlock: BETDEL_clean_sbu_0, # of connection points: 6
#     Node 12, Type 0, BuildingBlock: BETDEL_clean_sbu_0, # of connection points: 6
#     Node 13, Type 0, BuildingBlock: BETDEL_clean_sbu_0, # of connection points: 6
#     Node 14, Type 0, BuildingBlock: BETDEL_clean_sbu_0, # of connection points: 6
#     Node 15, Type 0, BuildingBlock: BETDEL_clean_sbu_0, # of connection points: 6
#     Edge 16, Type (0, 0), BuildingBlock: ZUJKAS_clean_linker_0, # of connection points: 2
#     Edge 17, Type (0, 0), BuildingBlock: ZUJKAS_clean_linker_0, # of connection points: 2
#     Edge 18, Type (0, 0), BuildingBlock: ZUJKAS_clean_linker_0, # of connection points: 2
#     Edge 19, Type (0, 0), BuildingBlock: ZUJKAS_clean_linker_0, # of connection points: 2
#     Edge 20, Type (0, 0), BuildingBlock: ZUJKAS_clean_linker_0, # of connection points: 2
#     Edge 21, Type (0, 0), BuildingBlock: ZUJKAS_clean_linker_0, # of connection points: 2
#     Edge 22, Type (0, 0), BuildingBlock: ZUJKAS_clean_linker_0, # of connection points: 2
#     Edge 23, Type (0, 0), BuildingBlock: ZUJKAS_clean_linker_0, # of connection points: 2
#     Edge 24, Type (0, 0), BuildingBlock: ZUJKAS_clean_linker_0, # of connection points: 2
#     Edge 25, Type (0, 0), BuildingBlock: ZUJKAS_clean_linker_0, # of connection points: 2
#     Edge 26, Type (0, 0), BuildingBlock: ZUJKAS_clean_linker_0, # of connection points: 2
#     Edge 27, Type (0, 0), BuildingBlock: ZUJKAS_clean_linker_0, # of connection points: 2
#     Edge 28, Type (0, 0), BuildingBlock: ZUJKAS_clean_linker_0, # of connection points: 2
#     Edge 29, Type (0, 0), BuildingBlock: ZUJKAS_clean_linker_0, # of connection points: 2
#     Edge 30, Type (0, 0), BuildingBlock: ZUJKAS_clean_linker_0, # of connection points: 2
#     Edge 31, Type (0, 0), BuildingBlock: ZUJKAS_clean_linker_0, # of connection points: 2
#     Edge 32, Type (0, 0), BuildingBlock: ZUJKAS_clean_linker_0, # of connection points: 2
#     Edge 33, Type (0, 0), BuildingBlock: ZUJKAS_clean_linker_0, # of connection points: 2
#     Edge 34, Type (0, 0), BuildingBlock: ZUJKAS_clean_linker_0, # of connection points: 2
#     Edge 35, Type (0, 0), BuildingBlock: ZUJKAS_clean_linker_0, # of connection points: 2
#     Edge 36, Type (0, 0), BuildingBlock: ZUJKAS_clean_linker_0, # of connection points: 2
#     Edge 37, Type (0, 0), BuildingBlock: ZUJKAS_clean_linker_0, # of connection points: 2
#     Edge 38, Type (0, 0), BuildingBlock: ZUJKAS_clean_linker_0, # of connection points: 2
#     Edge 39, Type (0, 0), BuildingBlock: ZUJKAS_clean_linker_0, # of connection points: 2
#     Edge 40, Type (0, 0), BuildingBlock: ZUJKAS_clean_linker_0, # of connection points: 2
#     Edge 41, Type (0, 0), BuildingBlock: ZUJKAS_clean_linker_0, # of connection points: 2
#     Edge 42, Type (0, 0), BuildingBlock: ZUJKAS_clean_linker_0, # of connection points: 2
#     Edge 43, Type (0, 0), BuildingBlock: ZUJKAS_clean_linker_0, # of connection points: 2
#     Edge 44, Type (0, 0), BuildingBlock: ZUJKAS_clean_linker_0, # of connection points: 2
#     Edge 45, Type (0, 0), BuildingBlock: ZUJKAS_clean_linker_0, # of connection points: 2
#     Edge 46, Type (0, 0), BuildingBlock: ZUJKAS_clean_linker_0, # of connection points: 2
#     Edge 47, Type (0, 0), BuildingBlock: ZUJKAS_clean_linker_0, # of connection points: 2
#     Edge 48, Type (0, 0), BuildingBlock: ZUJKAS_clean_linker_0, # of connection points: 2
#     Edge 49, Type (0, 0), BuildingBlock: ZUJKAS_clean_linker_0, # of connection points: 2
#     Edge 50, Type (0, 0), BuildingBlock: ZUJKAS_clean_linker_0, # of connection points: 2
#     Edge 51, Type (0, 0), BuildingBlock: ZUJKAS_clean_linker_0, # of connection points: 2
#     Edge 52, Type (0, 0), BuildingBlock: ZUJKAS_clean_linker_0, # of connection points: 2
#     Edge 53, Type (0, 0), BuildingBlock: ZUJKAS_clean_linker_0, # of connection points: 2
#     Edge 54, Type (0, 0), BuildingBlock: ZUJKAS_clean_linker_0, # of connection points: 2
#     Edge 55, Type (0, 0), BuildingBlock: ZUJKAS_clean_linker_0, # of connection points: 2
#     Edge 56, Type (0, 0), BuildingBlock: ZUJKAS_clean_linker_0, # of connection points: 2
#     Edge 57, Type (0, 0), BuildingBlock: ZUJKAS_clean_linker_0, # of connection points: 2
#     Edge 58, Type (0, 0), BuildingBlock: ZUJKAS_clean_linker_0, # of connection points: 2
#     Edge 59, Type (0, 0), BuildingBlock: ZUJKAS_clean_linker_0, # of connection points: 2
#     Edge 60, Type (0, 0), BuildingBlock: ZUJKAS_clean_linker_0, # of connection points: 2
#     Edge 61, Type (0, 0), BuildingBlock: ZUJKAS_clean_linker_0, # of connection points: 2
#     Edge 62, Type (0, 0), BuildingBlock: ZUJKAS_clean_linker_0, # of connection points: 2
#     Edge 63, Type (0, 0), BuildingBlock: ZUJKAS_clean_linker_0, # of connection points: 2
# Relax obj value: 0.391
# Max RMSD: 0.198
# Mean RMSD: 0.194
data_MOF--net-whw--node1-BETDEL_clean_sbu_0--edge1-ZUJKAS_clean_linker_0
_symmetry_space_group_name_H-M    P1
_symmetry_Int_Tables_number       1
_symmetry_cell_setting            triclinic
loop_
_symmetry_equiv_pos_as_xyz
'x, y, z'
_cell_length_a     60.578634
_cell_length_b     60.707869
_cell_length_c     34.765557
_cell_angle_alpha  88.562372
_cell_angle_beta   90.070366
_cell_angle_gamma 91.435635
loop_
_atom_site_label
_atom_site_type_symbol
_atom_site_fract_x
_atom_site_fract_y
_atom_site_fract_z
_atom_type_partial_charge
Dy0 Dy 0.01439 0.12682 0.15292 0.0
C1 C 0.9405 0.10726 0.05302 0.0
C2 C 0.0448 0.13647 0.20855 0.0
Dy3 Dy 0.96983 0.12059 0.10794 0.0
O4 O 0.03699 0.1169 0.20132 0.0
O5 O 0.03659 0.15074 0.18435 0.0
O6 O 0.02792 0.09828 0.12158 0.0
O7 O 0.99392 0.09913 0.1343 0.0
C8 C 0.00859 0.08886 0.11705 0.0
C9 C 0.97425 0.15798 0.14549 0.0
O10 O 0.95818 0.10808 0.16605 0.0
O11 O 0.98843 0.12291 0.19892 0.0
O12 O 0.93885 0.12487 0.07322 0.0
O13 O 0.95784 0.09657 0.06381 0.0
O14 O 0.95508 0.14909 0.13732 0.0
O15 O 0.98936 0.14799 0.12867 0.0
O16 O 0.02572 0.14217 0.09676 0.0
O17 O 0.99429 0.13203 0.06183 0.0
C18 C 0.96817 0.11399 0.19849 0.0
C19 C 0.01473 0.1406 0.06374 0.0
Dy20 Dy 0.10162 0.75335 0.40603 0.0
C21 C 0.11945 0.67696 0.31945 0.0
C22 C 0.09782 0.78723 0.45536 0.0
Dy23 Dy 0.10555 0.70809 0.36851 0.0
O24 O 0.11612 0.77816 0.44601 0.0
O25 O 0.08139 0.77801 0.43712 0.0
O26 O 0.12831 0.7666 0.3673 0.0
O27 O 0.12898 0.73346 0.38698 0.0
C28 C 0.13823 0.74797 0.36534 0.0
C29 C 0.06891 0.71275 0.40935 0.0
O30 O 0.11821 0.69874 0.42745 0.0
O31 O 0.10469 0.72969 0.45654 0.0
O32 O 0.10112 0.67572 0.3389 0.0
O33 O 0.13024 0.69503 0.3273 0.0
O34 O 0.07758 0.69362 0.40406 0.0
O35 O 0.07876 0.72737 0.38879 0.0
O36 O 0.08423 0.76217 0.35109 0.0
O37 O 0.09272 0.73 0.31956 0.0
C38 C 0.11273 0.70955 0.45874 0.0
C39 C 0.0845 0.75021 0.31958 0.0
Dy40 Dy 0.48529 0.86349 0.68777 0.0
C41 C 0.55907 0.85848 0.58123 0.0
C42 C 0.45081 0.85544 0.7377 0.0
Dy43 Dy 0.5285 0.8572 0.63864 0.0
O44 O 0.45991 0.84085 0.71658 0.0
O45 O 0.45981 0.87468 0.72994 0.0
O46 O 0.49065 0.90038 0.68406 0.0
O47 O 0.50219 0.88076 0.64031 0.0
C48 C 0.50243 0.9 0.65284 0.0
C49 C 0.52044 0.82602 0.69244 0.0
O50 O 0.5426 0.87377 0.69092 0.0
O51 O 0.51278 0.86487 0.73093 0.0
O52 O 0.54918 0.84076 0.59504 0.0
O53 O 0.5526 0.87568 0.59946 0.0
O54 O 0.54003 0.82979 0.6781 0.0
O55 O 0.50636 0.83663 0.67334 0.0
O56 O 0.46911 0.85327 0.63201 0.0
O57 O 0.5015 0.84684 0.59767 0.0
C58 C 0.53379 0.87097 0.72584 0.0
C59 C 0.47955 0.84686 0.6005 0.0
Dy60 Dy 0.38659 0.22582 0.92039 0.0
C61 C 0.40448 0.30762 0.83899 0.0
C62 C 0.38576 0.18779 0.96387 0.0
Dy63 Dy 0.40297 0.26872 0.87995 0.0
O64 O 0.36857 0.19932 0.95517 0.0
O65 O 0.40313 0.19654 0.94708 0.0
O66 O 0.35148 0.23563 0.91415 0.0
O67 O 0.37481 0.24612 0.87237 0.0
C68 C 0.35519 0.24812 0.88378 0.0
C69 C 0.43332 0.24617 0.92115 0.0
O70 O 0.39111 0.28298 0.93554 0.0
O71 O 0.38681 0.24983 0.96974 0.0
O72 O 0.42162 0.29744 0.85233 0.0
O73 O 0.38654 0.2968 0.84898 0.0
O74 O 0.43811 0.25802 0.89034 0.0
O75 O 0.41339 0.24872 0.9285 0.0
O76 O 0.40126 0.21255 0.86494 0.0
O77 O 0.40757 0.2459 0.83174 0.0
C78 C 0.38756 0.27184 0.9685 0.0
C79 C 0.4078 0.22409 0.83349 0.0
Dy80 Dy 0.00246 0.85281 0.87088 0.0
C81 C 0.92557 0.87826 0.95352 0.0
C82 C 0.03701 0.84488 0.82341 0.0
Dy83 Dy 0.95666 0.86093 0.90723 0.0
O84 O 0.03027 0.86421 0.83222 0.0
O85 O 0.02514 0.82972 0.84131 0.0
O86 O 0.01644 0.87986 0.90644 0.0
O87 O 0.98376 0.88174 0.88573 0.0
C88 C -0.00169 0.89082 0.90644 0.0
C89 C 0.95914 0.82305 0.87143 0.0
O90 O 0.94943 0.87234 0.8462 0.0
O91 O 0.98047 0.85683 0.81944 0.0
O92 O 0.9223 0.86146 0.93163 0.0
O93 O 0.94576 0.88564 0.9498 0.0
O94 O 0.94049 0.83263 0.87732 0.0
O95 O 0.97439 0.83251 0.89021 0.0
O96 O 0.00894 0.83624 0.92784 0.0
O97 O 0.97678 0.84744 0.95785 0.0
C98 C 0.96083 0.86584 0.8159 0.0
C99 C 0.99649 0.838 0.95905 0.0
Dy100 Dy 0.38129 0.74684 0.17573 0.0
C101 C 0.37948 0.69334 0.0398 0.0
C102 C 0.38936 0.76686 0.24477 0.0
Dy103 Dy 0.37255 0.71353 0.10847 0.0
O104 O 0.40251 0.75398 0.22707 0.0
O105 O 0.37128 0.76905 0.22455 0.0
O106 O 0.41297 0.75691 0.14639 0.0
O107 O 0.40053 0.72462 0.14166 0.0
C108 C 0.41526 0.73812 0.13006 0.0
C109 C 0.33691 0.7219 0.14989 0.0
O110 O 0.38468 0.69112 0.15572 0.0
O111 O 0.37421 0.71398 0.20466 0.0
O112 O 0.36795 0.68479 0.0683 0.0
O113 O 0.38676 0.71278 0.04884 0.0
O114 O 0.33866 0.70437 0.12935 0.0
O115 O 0.35258 0.73547 0.14236 0.0
O116 O 0.3741 0.7718 0.1288 0.0
O117 O 0.37197 0.7467 0.07862 0.0
C118 C 0.37989 0.69441 0.19236 0.0
C119 C 0.37255 0.76709 0.09163 0.0
Dy120 Dy 0.4879 0.1326 0.3824 0.0
C121 C 0.56689 0.11847 0.46972 0.0
C122 C 0.453 0.13813 0.33373 0.0
Dy123 Dy 0.53417 0.13045 0.41995 0.0
O124 O 0.46041 0.1193 0.34563 0.0
O125 O 0.46436 0.15406 0.34919 0.0
O126 O 0.47725 0.10331 0.41827 0.0
O127 O 0.51029 0.10623 0.39922 0.0
C128 C 0.49678 0.09498 0.41986 0.0
C129 C 0.52636 0.16799 0.38225 0.0
O130 O 0.54407 0.12181 0.35956 0.0
O131 O 0.5107 0.13168 0.33145 0.0
O132 O 0.56617 0.13715 0.45076 0.0
O133 O 0.55 0.10611 0.46053 0.0
O134 O 0.54618 0.16072 0.38787 0.0
O135 O 0.51252 0.1564 0.40168 0.0
O136 O 0.4785 0.14649 0.43913 0.0
O137 O 0.51185 0.13913 0.46981 0.0
C138 C 0.53179 0.12645 0.32865 0.0
C139 C 0.49096 0.14558 0.47064 0.0
Dy140 Dy 0.12631 0.23976 0.62585 0.0
C141 C 0.12561 0.31589 0.72162 0.0
C142 C 0.12453 0.20723 0.5726 0.0
Dy143 Dy 0.12121 0.28415 0.6675 0.0
O144 O 0.11126 0.20853 0.60178 0.0
O145 O 0.13919 0.22317 0.57363 0.0
O146 O 0.15531 0.23147 0.66229 0.0
O147 O 0.14912 0.26479 0.6489 0.0
C148 C 0.16079 0.25186 0.66889 0.0
C149 C 0.08687 0.2723 0.62368 0.0
O150 O 0.13478 0.29781 0.61173 0.0
O151 O 0.12623 0.26595 0.57856 0.0
O152 O 0.11051 0.31531 0.69508 0.0
O153 O 0.13872 0.29948 0.71779 0.0
O154 O 0.09096 0.29267 0.63271 0.0
O155 O 0.0992 0.2597 0.64289 0.0
O156 O 0.10968 0.22641 0.67983 0.0
O157 O 0.11166 0.25899 0.71376 0.0
C158 C 0.13136 0.28736 0.57904 0.0
C159 C 0.10714 0.2375 0.71199 0.0
Dy160 Dy 0.88749 0.24313 0.68937 0.0
C161 C 0.88372 0.19025 0.55213 0.0
C162 C 0.8953 0.26263 0.75895 0.0
Dy163 Dy 0.87777 0.21062 0.62098 0.0
O164 O 0.90699 0.24749 0.74374 0.0
O165 O 0.87885 0.26728 0.73601 0.0
O166 O 0.92 0.252 0.66169 0.0
O167 O 0.90602 0.22053 0.65472 0.0
C168 C 0.92146 0.23348 0.64416 0.0
C169 C 0.84233 0.21969 0.66242 0.0
O170 O 0.88901 0.18764 0.66823 0.0
O171 O 0.87869 0.21046 0.7173 0.0
O172 O 0.87331 0.18147 0.5817 0.0
O173 O 0.89047 0.21002 0.56023 0.0
O174 O 0.84344 0.20253 0.64083 0.0
O175 O 0.85853 0.23277 0.6557 0.0
O176 O 0.88167 0.26861 0.64269 0.0
O177 O 0.87902 0.24398 0.59188 0.0
C178 C 0.88398 0.19081 0.70483 0.0
C179 C 0.88026 0.26424 0.60538 0.0
Dy180 Dy 0.62522 0.73823 0.11398 0.0
C181 C 0.62622 0.8156 0.2073 0.0
C182 C 0.62164 0.7048 0.06287 0.0
Dy183 Dy 0.62132 0.78339 0.1542 0.0
O184 O 0.63865 0.71807 0.06624 0.0
O185 O 0.60691 0.7093 0.08847 0.0
O186 O 0.65358 0.72945 0.15168 0.0
O187 O 0.64846 0.76284 0.13662 0.0
C188 C 0.65956 0.74982 0.15747 0.0
C189 C 0.587 0.77189 0.11039 0.0
O190 O 0.63485 0.79641 0.09804 0.0
O191 O 0.62683 0.76401 0.06587 0.0
O192 O 0.60973 0.81356 0.18362 0.0
O193 O 0.64042 0.8004 0.20104 0.0
O194 O 0.59158 0.7923 0.11852 0.0
O195 O 0.5988 0.75914 0.13033 0.0
O196 O 0.60884 0.72584 0.16881 0.0
O197 O 0.61181 0.75883 0.20146 0.0
C198 C 0.63181 0.78548 0.06573 0.0
C199 C 0.60679 0.73741 0.20057 0.0
Dy200 Dy 0.61882 0.26764 0.91372 0.0
C201 C 0.60243 0.18667 0.83346 0.0
C202 C 0.62339 0.30481 0.95599 0.0
Dy203 Dy 0.60288 0.22561 0.87077 0.0
O204 O 0.63908 0.29665 0.93566 0.0
O205 O 0.60559 0.29282 0.95274 0.0
O206 O 0.65089 0.2512 0.92595 0.0
O207 O 0.63386 0.24446 0.87535 0.0
C208 C 0.65064 0.23969 0.89498 0.0
C209 C 0.5724 0.2554 0.88286 0.0
O210 O 0.60367 0.21204 0.93193 0.0
O211 O 0.60907 0.245 0.96374 0.0
O212 O 0.58496 0.19723 0.84324 0.0
O213 O 0.62009 0.19721 0.84487 0.0
O214 O 0.57044 0.24136 0.85529 0.0
O215 O 0.58802 0.25022 0.905 0.0
O216 O 0.61138 0.28174 0.85341 0.0
O217 O 0.60993 0.24853 0.82101 0.0
C218 C 0.6049 0.22339 0.96415 0.0
C219 C 0.60943 0.27038 0.82097 0.0
Dy220 Dy 0.89855 0.74185 0.3978 0.0
C221 C 0.88469 0.82189 0.30933 0.0
C222 C 0.90217 0.70947 0.45328 0.0
Dy223 Dy 0.89717 0.78795 0.35647 0.0
O224 O 0.91656 0.71333 0.42598 0.0
O225 O 0.88583 0.72269 0.44916 0.0
O226 O 0.86888 0.73089 0.36407 0.0
O227 O 0.87283 0.76415 0.37904 0.0
C228 C 0.86131 0.75067 0.36007 0.0
C229 C 0.93417 0.7801 0.39543 0.0
O230 O 0.88779 0.79824 0.41599 0.0
O231 O 0.89835 0.76564 0.44662 0.0
O232 O 0.90492 0.81799 0.31941 0.0
O233 O 0.87132 0.80729 0.32513 0.0
O234 O 0.92713 0.79993 0.38855 0.0
O235 O 0.92258 0.76639 0.37696 0.0
O236 O 0.9133 0.73229 0.34138 0.0
O237 O 0.90446 0.76469 0.30779 0.0
C238 C 0.89216 0.78644 0.44775 0.0
C239 C 0.91181 0.7441 0.30867 0.0
Dy240 Dy 0.51144 0.63139 0.64347 0.0
C241 C 0.43807 0.61226 0.5424 0.0
C242 C 0.54257 0.64074 0.69807 0.0
Dy243 Dy 0.46711 0.62526 0.59797 0.0
O244 O 0.53665 0.62109 0.6876 0.0
O245 O 0.53192 0.65532 0.67791 0.0
O246 O 0.5251 0.60346 0.61053 0.0
O247 O 0.49121 0.60376 0.62396 0.0
C248 C 0.50588 0.59381 0.6062 0.0
C249 C 0.47044 0.66194 0.6377 0.0
O250 O 0.45544 0.61187 0.65549 0.0
O251 O 0.48579 0.62568 0.68959 0.0
O252 O 0.43658 0.62998 0.56234 0.0
O253 O 0.45507 0.60122 0.55386 0.0
O254 O 0.45156 0.65292 0.62809 0.0
O255 O 0.48602 0.65267 0.6206 0.0
O256 O 0.52266 0.64754 0.58788 0.0
O257 O 0.49158 0.63718 0.55235 0.0
C258 C 0.46546 0.61694 0.68838 0.0
C259 C 0.51186 0.64602 0.55469 0.0
Dy260 Dy 0.98865 0.36811 0.19691 0.0
C261 C 0.06144 0.37761 0.08906 0.0
C262 C 0.95874 0.35979 0.25488 0.0
Dy263 Dy 0.0321 0.36847 0.14735 0.0
O264 O 0.96335 0.34625 0.22781 0.0
O265 O 0.96983 0.3782 0.24928 0.0
O266 O 0.97766 0.39841 0.16498 0.0
O267 O 0.01165 0.39308 0.17318 0.0
C268 C -0.00229 0.40517 0.15662 0.0
C269 C 0.02415 0.33184 0.18881 0.0
O270 O 0.04699 0.38015 0.20256 0.0
O271 O 0.01659 0.36905 0.23982 0.0
O272 O 0.0625 0.36107 0.11337 0.0
O273 O 0.04467 0.38956 0.09737 0.0
O274 O 0.04384 0.33745 0.17662 0.0
O275 O 0.00992 0.34394 0.17314 0.0
O276 O 0.97414 0.35421 0.14264 0.0
O277 O 0.00548 0.35966 0.10425 0.0
C278 C 0.03769 0.37534 0.2365 0.0
C279 C 0.98427 0.35387 0.10867 0.0
Dy280 Dy 0.517 0.35831 0.36714 0.0
C281 C 0.44124 0.36898 0.4636 0.0
C282 C 0.55057 0.3541 0.31592 0.0
Dy283 Dy 0.47202 0.35857 0.41026 0.0
O284 O 0.54282 0.33826 0.33832 0.0
O285 O 0.54014 0.3721 0.32191 0.0
O286 O 0.52797 0.38798 0.39945 0.0
O287 O 0.49436 0.38344 0.38512 0.0
C288 C 0.50811 0.3952 0.4032 0.0
C289 C 0.47977 0.32185 0.3733 0.0
O290 O 0.4596 0.36788 0.35109 0.0
O291 O 0.49177 0.35834 0.3194 0.0
O292 O 0.44281 0.3499 0.44783 0.0
O293 O 0.45602 0.38261 0.44901 0.0
O294 O 0.4599 0.32839 0.38051 0.0
O295 O 0.4939 0.33367 0.39065 0.0
O296 O 0.52921 0.34553 0.42416 0.0
O297 O 0.4966 0.35091 0.45789 0.0
C298 C 0.47058 0.36359 0.31902 0.0
C299 C 0.51782 0.34569 0.4568 0.0
Dy300 Dy 0.99379 0.62854 0.87036 0.0
C301 C 0.07662 0.63263 0.95184 0.0
C302 C 0.95746 0.63153 0.82425 0.0
Dy303 Dy 0.0392 0.63861 0.90985 0.0
O304 O 0.96698 0.61333 0.83436 0.0
O305 O 0.96708 0.64801 0.84133 0.0
O306 O -0.0029 0.59247 0.8821 0.0
O307 O 0.01173 0.61512 0.9197 0.0
C308 C 0.01023 0.59501 0.91137 0.0
C309 C 0.02327 0.6708 0.86424 0.0
O310 O 0.05156 0.62389 0.85453 0.0
O311 O 0.01808 0.62389 0.82184 0.0
O312 O 0.06901 0.65167 0.9411 0.0
O313 O 0.06408 0.61687 0.93855 0.0
O314 O 0.03683 0.67497 0.89249 0.0
O315 O 0.02139 0.65047 0.86093 0.0
O316 O 0.98243 0.64643 0.92363 0.0
O317 O 0.01602 0.64825 0.95659 0.0
C318 C 0.03989 0.62135 0.82231 0.0
C319 C 0.99444 0.65166 0.95459 0.0
H320 H -0.00274 0.14029 0.99093 0.0
H321 H 0.01373 0.15472 0.93118 0.0
H322 H 0.07214 0.17516 0.993 0.0
H323 H 0.05585 0.1605 0.05319 0.0
H324 H 0.02663 0.19702 0.91205 0.0
H325 H 0.09829 0.14229 0.90344 0.0
H326 H 0.07541 0.13661 0.93573 0.0
H327 H 0.09653 0.15659 0.9479 0.0
C328 C 0.01368 0.14772 0.99202 0.0
C329 C 0.02519 0.14914 0.02718 0.0
C330 C 0.02309 0.156 0.95764 0.0
C331 C 0.04433 0.16581 0.95727 0.0
C332 C 0.05592 0.16728 0.99225 0.0
H333 H 0.09872 0.25549 0.78175 0.0
H334 H 0.08363 0.23745 0.83965 0.0
C335 C 0.0465 0.159 0.02679 0.0
C336 C 0.05381 0.17525 0.92049 0.0
H337 H 0.09757 0.17256 0.85858 0.0
C338 C 0.04211 0.19159 0.90037 0.0
C339 C 0.07388 0.16802 0.90475 0.0
C340 C 0.08669 0.14977 0.92381 0.0
C341 C 0.05008 0.20118 0.86563 0.0
C342 C 0.07052 0.19451 0.85058 0.0
C343 C 0.082 0.17782 0.87018 0.0
C344 C 0.08039 0.20515 0.81513 0.0
C345 C 0.03639 0.21826 0.84508 0.0
C346 C 0.08422 0.19294 0.78203 0.0
C347 C 0.09296 0.20327 0.74849 0.0
C348 C 0.09823 0.22601 0.74747 0.0
C349 C 0.09477 0.23801 0.78106 0.0
C350 C 0.08601 0.22772 0.81435 0.0
H351 H 0.01884 0.21721 0.85438 0.0
H352 H 0.043 0.23494 0.85179 0.0
H353 H 0.03707 0.21637 0.81342 0.0
H354 H 0.08014 0.17547 0.78194 0.0
H355 H 0.09547 0.19345 0.72336 0.0
H356 H 0.07696 0.72933 0.25126 0.0
H357 H 0.06179 0.74473 0.19135 0.0
H358 H 0.05534 0.80761 0.2444 0.0
H359 H 0.07047 0.79238 0.30452 0.0
H360 H 0.01984 0.76502 0.17852 0.0
H361 H 0.0902 0.82246 0.14366 0.0
H362 H 0.09245 0.79977 0.17795 0.0
H363 H 0.07891 0.82443 0.19123 0.0
C364 C 0.07237 0.74646 0.25031 0.0
C365 C 0.07506 0.75956 0.28298 0.0
C366 C 0.06364 0.75524 0.21592 0.0
C367 C 0.05761 0.77743 0.21304 0.0
C368 C 0.06014 0.79054 0.2456 0.0
H369 H 0.97634 0.83766 0.03023 0.0
H370 H 0.99054 0.82334 0.09167 0.0
C371 C 0.06871 0.78173 0.28012 0.0
C372 C 0.04844 0.7867 0.17616 0.0
H373 H 0.05883 0.82457 0.1033 0.0
C374 C 0.02835 0.77807 0.16212 0.0
C375 C 0.05959 0.80361 0.15444 0.0
C376 C 0.08158 0.81306 0.16727 0.0
C377 C 0.01905 0.78596 0.12732 0.0
C378 C 0.03003 0.80308 0.10579 0.0
C379 C 0.05025 0.81157 0.11972 0.0
C380 C 0.0212 0.81195 0.06827 0.0
C381 C -0.00223 0.77546 0.11348 0.0
C382 C 0.03377 0.81088 0.03444 0.0
C383 C 0.02572 0.81916 0.99917 0.0
C384 C 0.00487 0.82891 0.9967 0.0
C385 C 0.99237 0.83015 0.03072 0.0
C386 C 0.00045 0.82183 0.06601 0.0
H387 H 0.99429 0.75931 0.12824 0.0
H388 H 0.9839 0.78642 0.11964 0.0
H389 H -0.0017 0.77302 0.08195 0.0
H390 H 0.04985 0.80346 0.03523 0.0
H391 H 0.03594 0.81793 0.97383 0.0
H392 H 0.36318 0.79145 0.29212 0.0
H393 H 0.37384 0.80779 0.35406 0.0
H394 H 0.43897 0.78169 0.34326 0.0
H395 H 0.42852 0.76539 0.28226 0.0
H396 H 0.39329 0.7845 0.42451 0.0
H397 H 0.44858 0.84964 0.36031 0.0
H398 H 0.427 0.836 0.33319 0.0
H399 H 0.4526 0.82251 0.34243 0.0
C400 C 0.37976 0.78927 0.30302 0.0
C401 C 0.39501 0.7772 0.28212 0.0
C402 C 0.38582 0.79855 0.33844 0.0
C403 C 0.40731 0.79616 0.35323 0.0
C404 C 0.4224 0.784 0.33238 0.0
H405 H 0.49544 0.82858 0.53536 0.0
H406 H 0.47549 0.81757 0.47803 0.0
C407 C 0.41635 0.77464 0.29742 0.0
C408 C 0.41441 0.80616 0.3903 0.0
H409 H 0.45264 0.84221 0.42743 0.0
C410 C 0.406 0.79738 0.42525 0.0
C411 C 0.43105 0.82292 0.39134 0.0
C412 C 0.44025 0.8335 0.35485 0.0
C413 C 0.4146 0.80409 0.46106 0.0
C414 C 0.43182 0.82035 0.46204 0.0
C415 C 0.43954 0.82971 0.42698 0.0
C416 C 0.44337 0.82672 0.4985 0.0
C417 C 0.40596 0.79285 0.49739 0.0
C418 C 0.43211 0.83563 0.52974 0.0
C419 C 0.4436 0.84193 0.56319 0.0
C420 C 0.46665 0.83966 0.56598 0.0
C421 C 0.47775 0.83071 0.53458 0.0
C422 C 0.46631 0.82438 0.50149 0.0
H423 H 0.39645 0.77744 0.49132 0.0
H424 H 0.41971 0.78881 0.51729 0.0
H425 H 0.39481 0.80411 0.51222 0.0
H426 H 0.4145 0.83808 0.52807 0.0
H427 H 0.43447 0.84887 0.58654 0.0
H428 H 0.43248 0.24265 0.77538 0.0
H429 H 0.44457 0.22658 0.71605 0.0
H430 H 0.41373 0.16442 0.75021 0.0
H431 H 0.40183 0.18049 0.81111 0.0
H432 H 0.45358 0.15828 0.716 0.0
H433 H 0.40682 0.21575 0.62355 0.0
H434 H 0.42492 0.23045 0.65524 0.0
H435 H 0.40259 0.21352 0.67485 0.0
C436 C 0.42808 0.22554 0.77054 0.0
C437 C 0.41579 0.21302 0.79815 0.0
C438 C 0.43498 0.21637 0.73618 0.0
C439 C 0.42956 0.19442 0.72768 0.0
C440 C 0.41793 0.1815 0.75567 0.0
H441 H 0.44745 0.15278 0.48856 0.0
H442 H 0.43188 0.16244 0.55069 0.0
C443 C 0.41113 0.19069 0.79056 0.0
C444 C 0.43634 0.18532 0.6897 0.0
H445 H 0.43588 0.19674 0.59267 0.0
C446 C 0.44949 0.16657 0.68903 0.0
C447 C 0.43078 0.19573 0.65408 0.0
C448 C 0.4153 0.21482 0.65188 0.0
C449 C 0.45787 0.15856 0.65422 0.0
C450 C 0.45352 0.16989 0.61885 0.0
C451 C 0.43965 0.18812 0.61948 0.0
C452 C 0.46314 0.1633 0.58096 0.0
C453 C 0.47102 0.13778 0.65586 0.0
C454 C 0.48603 0.16076 0.57647 0.0
C455 C 0.49497 0.15499 0.54091 0.0
C456 C 0.48137 0.152 0.50843 0.0
C457 C 0.45851 0.15495 0.51273 0.0
C458 C 0.44955 0.16048 0.54844 0.0
H459 H 0.46651 0.12731 0.68148 0.0
H460 H 0.46842 0.12793 0.6297 0.0
H461 H 0.48884 0.14223 0.65817 0.0
H462 H 0.49713 0.16353 0.60038 0.0
H463 H 0.51266 0.1531 0.53884 0.0
H464 H 0.91043 0.85454 0.27685 0.0
H465 H 0.90294 0.87512 0.2172 0.0
H466 H 0.83768 0.84517 0.21274 0.0
H467 H 0.84505 0.82462 0.27276 0.0
H468 H 0.86611 0.83512 0.15246 0.0
H469 H 0.86524 0.92524 0.17117 0.0
H470 H 0.8869 0.91218 0.19788 0.0
H471 H 0.85855 0.90557 0.20964 0.0
C472 C 0.89422 0.85296 0.26387 0.0
C473 C 0.87841 0.83786 0.279 0.0
C474 C 0.88985 0.86489 0.23001 0.0
C475 C 0.86967 0.86183 0.21077 0.0
C476 C 0.85324 0.84797 0.22746 0.0
H477 H 0.8815 0.86863 0.9606 0.0
H478 H 0.85979 0.87004 0.01993 0.0
C479 C 0.85751 0.83619 0.2616 0.0
C480 C 0.86809 0.86883 0.16987 0.0
H481 H 0.87787 0.91298 0.10919 0.0
C482 C 0.86797 0.85219 0.14269 0.0
C483 C 0.87068 0.89107 0.15754 0.0
C484 C 0.87014 0.90957 0.1856 0.0
C485 C 0.87265 0.85691 0.1039 0.0
C486 C 0.87659 0.87914 0.09168 0.0
C487 C 0.87482 0.89598 0.11847 0.0
C488 C 0.88631 0.88459 0.05338 0.0
C489 C 0.87545 0.83779 0.07744 0.0
C490 C 0.90751 0.89447 0.05149 0.0
C491 C 0.91959 0.8944 1.01737 0.0
C492 C 0.91077 0.88409 0.98492 0.0
C493 C 0.88874 0.87634 0.98555 0.0
C494 C 0.87641 0.877 0.01946 0.0
H495 H 0.87598 0.82173 0.09342 0.0
H496 H 0.86133 0.83695 0.05716 0.0
H497 H 0.89092 0.83986 0.06049 0.0
H498 H 0.91544 0.90063 0.07716 0.0
H499 H 0.9365 0.90065 1.0175 0.0
H500 H 0.8672 0.18989 0.77723 0.0
H501 H 0.87323 0.16272 0.82834 0.0
H502 H 0.90906 0.12286 0.74993 0.0
H503 H 0.90345 0.15051 0.69816 0.0
H504 H 0.86386 0.11765 0.83872 0.0
H505 H 0.95448 0.13636 0.83407 0.0
H506 H 0.935 0.15323 0.80839 0.0
H507 H 0.94163 0.12663 0.79086 0.0
C508 C 0.87625 0.1753 0.77056 0.0
C509 C 0.88522 0.17257 0.73375 0.0
C510 C 0.87953 0.15967 0.79985 0.0
C511 C 0.89187 0.14093 0.79314 0.0
C512 C 0.89978 0.13741 0.75585 0.0
H513 H 0.94971 0.07796 0.9974 0.0
H514 H 0.93542 0.07846 0.93137 0.0
C515 C 0.89648 0.15315 0.72629 0.0
C516 C 0.89783 0.12656 0.82647 0.0
H517 H 0.94081 0.11645 0.88737 0.0
C518 C 0.88076 0.1169 0.84897 0.0
C519 C 0.91988 0.12554 0.83975 0.0
C520 C 0.93887 0.13605 0.81728 0.0
C521 C 0.88499 0.10754 0.8855 0.0
C522 C 0.9068 0.10807 0.89996 0.0
C523 C 0.92408 0.11608 0.8762 0.0
C524 C 0.91177 0.10384 0.94121 0.0
C525 C 0.86596 0.098 0.90892 0.0
C526 C 0.90277 0.11748 0.96889 0.0
C527 C 0.91096 0.1173 1.00645 0.0
C528 C 0.92833 0.10351 1.01694 0.0
C529 C 0.93624 0.08869 0.99008 0.0
C530 C 0.92812 0.08898 0.95236 0.0
H531 H 0.85256 0.09166 0.89003 0.0
H532 H 0.87134 0.08443 0.92851 0.0
H533 H 0.85901 0.11113 0.92658 0.0
H534 H 0.8905 0.12942 0.96081 0.0
H535 H 0.90466 0.12895 0.02655 0.0
H536 H 0.63807 0.16892 0.79936 0.0
H537 H 0.63759 0.14754 0.74052 0.0
H538 H 0.56647 0.14369 0.74439 0.0
H539 H 0.56679 0.16522 0.80298 0.0
H540 H 0.61347 0.10501 0.71074 0.0
H541 H 0.58771 0.18621 0.65038 0.0
H542 H 0.60026 0.18325 0.69726 0.0
H543 H 0.5718 0.17529 0.69044 0.0
C544 C 0.62237 0.16284 0.78842 0.0
C545 C 0.60243 0.16898 0.80525 0.0
C546 C 0.62215 0.15058 0.75491 0.0
C547 C 0.602 0.14428 0.73809 0.0
C548 C 0.58217 0.14847 0.75706 0.0
H549 H 0.55973 0.08809 0.52755 0.0
H550 H 0.57365 0.09087 0.59324 0.0
C551 C 0.58238 0.1608 0.79043 0.0
C552 C 0.60147 0.13742 0.69766 0.0
H553 H 0.58802 0.15666 0.60806 0.0
C554 C 0.60803 0.11624 0.68811 0.0
C555 C 0.59477 0.15234 0.66832 0.0
C556 C 0.58838 0.17562 0.67687 0.0
C557 C 0.6074 0.10937 0.64973 0.0
C558 C 0.59995 0.12409 0.62059 0.0
C559 C 0.59391 0.14541 0.63033 0.0
C560 C 0.59673 0.1178 0.58002 0.0
C561 C 0.61477 0.08654 0.64068 0.0
C562 C 0.6057 0.1314 0.55039 0.0
C563 C 0.59745 0.13013 0.51299 0.0
C564 C 0.58025 0.1151 0.50466 0.0
C565 C 0.57305 0.0998 0.53325 0.0
C566 C 0.5811 0.10129 0.57084 0.0
H567 H 0.62625 0.08012 0.66301 0.0
H568 H 0.60012 0.07522 0.63993 0.0
H569 H 0.62305 0.08633 0.61221 0.0
H570 H 0.61778 0.14425 0.55685 0.0
H571 H 0.60331 0.14204 0.49139 0.0
H572 H 0.57247 0.89449 0.53736 0.0
H573 H 0.58884 0.89411 0.47264 0.0
H574 H 0.59173 0.82326 0.48062 0.0
H575 H 0.57531 0.82349 0.54477 0.0
H576 H 0.62955 0.87292 0.43983 0.0
H577 H 0.54901 0.83916 0.38852 0.0
H578 H 0.55209 0.85256 0.43407 0.0
H579 H 0.56037 0.82455 0.42924 0.0
C580 C 0.5771 0.87891 0.52558 0.0
C581 C 0.57248 0.85899 0.54583 0.0
C582 C 0.58641 0.87872 0.4887 0.0
C583 C 0.59121 0.85863 0.4718 0.0
C584 C 0.58794 0.8389 0.49309 0.0
H585 H 0.65314 0.81281 0.27001 0.0
H586 H 0.64647 0.82827 0.33307 0.0
C587 C 0.57859 0.83907 0.52972 0.0
C588 C 0.5975 0.85781 0.43074 0.0
H589 H 0.57918 0.83795 0.34531 0.0
C590 C 0.61851 0.86553 0.41893 0.0
C591 C 0.5829 0.84851 0.40352 0.0
C592 C 0.55975 0.84089 0.41426 0.0
C593 C 0.62564 0.86326 0.38073 0.0
C594 C 0.61144 0.85278 0.35403 0.0
C595 C 0.59012 0.84594 0.36569 0.0
C596 C 0.61847 0.84735 0.31452 0.0
C597 C 0.64828 0.87202 0.36941 0.0
C598 C 0.60524 0.85319 0.28283 0.0
C599 C 0.60884 0.8441 0.24691 0.0
C600 C 0.62578 0.82906 0.24203 0.0
C601 C 0.64006 0.82449 0.27292 0.0
C602 C 0.63632 0.83344 0.30898 0.0
H603 H 0.65379 0.88564 0.38818 0.0
H604 H 0.6603 0.8586 0.3727 0.0
H605 H 0.6486 0.87807 0.33901 0.0
H606 H 0.59135 0.86385 0.2864 0.0
H607 H 0.59759 0.84788 0.22356 0.0
H608 H 0.60015 0.75634 0.27011 0.0
H609 H 0.58521 0.73943 0.32907 0.0
H610 H 0.57805 0.67713 0.27305 0.0
H611 H 0.59327 0.69395 0.21348 0.0
H612 H 0.54422 0.71992 0.34119 0.0
H613 H 0.61008 0.66016 0.37321 0.0
H614 H 0.61369 0.6827 0.33871 0.0
H615 H 0.59815 0.65836 0.32601 0.0
C616 C 0.59554 0.73899 0.27009 0.0
C617 C 0.59801 0.72656 0.23671 0.0
C618 C 0.58695 0.72933 0.30404 0.0
C619 C 0.58067 0.70692 0.30586 0.0
C620 C 0.58312 0.69436 0.2727 0.0
H621 H 0.49438 0.64652 0.48188 0.0
H622 H 0.5112 0.66077 0.42231 0.0
C623 C 0.59172 0.70405 0.23852 0.0
C624 C 0.57091 0.69717 0.34216 0.0
H625 H 0.57852 0.65818 0.41356 0.0
C626 C 0.55173 0.70639 0.35693 0.0
C627 C 0.58082 0.67971 0.36315 0.0
C628 C 0.60193 0.66972 0.34977 0.0
C629 C 0.54211 0.69857 0.39167 0.0
C630 C 0.55172 0.68079 0.41224 0.0
C631 C 0.57104 0.6717 0.39775 0.0
C632 C 0.54184 0.67146 0.44873 0.0
C633 C 0.52193 0.70972 0.40645 0.0
C634 C 0.55362 0.67215 0.4836 0.0
C635 C 0.54401 0.66394 0.51803 0.0
C636 C 0.52245 0.65467 0.51832 0.0
C637 C 0.51092 0.65365 0.48311 0.0
C638 C 0.5205 0.66189 0.44885 0.0
H639 H 0.52 0.72635 0.39296 0.0
H640 H 0.507 0.69961 0.39952 0.0
H641 H 0.52271 0.71137 0.43816 0.0
H642 H 0.57015 0.67935 0.48428 0.0
H643 H 0.55347 0.66493 0.54441 0.0
H644 H 0.60565 0.31514 0.80284 0.0
H645 H 0.59342 0.33175 0.74136 0.0
H646 H 0.58712 0.26704 0.69342 0.0
H647 H 0.60033 0.25074 0.75289 0.0
H648 H 0.60296 0.2923 0.64153 0.0
H649 H 0.53224 0.33589 0.70261 0.0
H650 H 0.55846 0.34493 0.72125 0.0
H651 H 0.54853 0.31715 0.73109 0.0
C652 C 0.60195 0.30453 0.77898 0.0
C653 C 0.60407 0.28154 0.78324 0.0
C654 C 0.59461 0.31402 0.74386 0.0
C655 C 0.58874 0.3007 0.71253 0.0
C656 C 0.59143 0.27787 0.71673 0.0
H657 H 0.49895 0.32964 0.52379 0.0
H658 H 0.51716 0.31982 0.5844 0.0
C659 C 0.59905 0.2685 0.75121 0.0
C660 C 0.57973 0.30992 0.67522 0.0
H661 H 0.5383 0.34064 0.63589 0.0
C662 C 0.58881 0.3029 0.64045 0.0
C663 C 0.56105 0.32356 0.67327 0.0
C664 C 0.54934 0.33067 0.70899 0.0
C665 C 0.57957 0.30847 0.60437 0.0
C666 C 0.5612 0.32253 0.60233 0.0
C667 C 0.55241 0.32999 0.63704 0.0
C668 C 0.5502 0.32881 0.56488 0.0
C669 C 0.58901 0.29817 0.5691 0.0
C670 C 0.56243 0.33743 0.53322 0.0
C671 C 0.55204 0.34249 0.49801 0.0
C672 C 0.52903 0.33978 0.49383 0.0
C673 C 0.51671 0.33187 0.52583 0.0
C674 C 0.52716 0.32631 0.5607 0.0
H675 H 0.59777 0.28278 0.57657 0.0
H676 H 0.57591 0.29419 0.54784 0.0
H677 H 0.60118 0.30984 0.55539 0.0
H678 H 0.58005 0.3404 0.53568 0.0
H679 H 0.56201 0.34895 0.47427 0.0
H680 H 0.94133 0.33746 0.10364 0.0
H681 H 0.9222 0.32357 0.04652 0.0
H682 H 0.98021 0.33825 0.97802 0.0
H683 H -0.00075 0.35237 0.03442 0.0
H684 H 0.94237 0.35082 0.94063 0.0
H685 H 0.93264 0.26466 0.99675 0.0
H686 H 0.92105 0.28515 0.02658 0.0
H687 H 0.95042 0.28477 0.01948 0.0
C688 C 0.95002 0.33779 0.07643 0.0
C689 C 0.97197 0.34597 0.07399 0.0
C690 C 0.93907 0.3297 0.04373 0.0
C691 C 0.94981 0.3295 1.00784 0.0
C692 C 0.97151 0.33811 1.00524 0.0
H693 H 0.92886 0.25204 0.80713 0.0
H694 H 0.9397 0.26902 0.86737 0.0
C695 C 0.98244 0.34615 0.03777 0.0
C696 C 0.93878 0.32023 0.9729 0.0
H697 H 0.91758 0.27249 0.93555 0.0
C698 C 0.93678 0.33373 0.93964 0.0
C699 C 0.93167 0.29785 0.97126 0.0
C700 C 0.93417 0.28215 1.00524 0.0
C701 C 0.92821 0.32547 0.90493 0.0
C702 C 0.92109 0.3031 0.90331 0.0
C703 C 0.92281 0.28968 0.93672 0.0
C704 C 0.91367 0.29276 0.86657 0.0
C705 C 0.92769 0.34058 0.86983 0.0
C706 C 0.89515 0.30018 0.8458 0.0
C707 C 0.88886 0.2904 0.81096 0.0
C708 C 0.90093 0.27298 0.79629 0.0
C709 C 0.91919 0.26544 0.81746 0.0
C710 C 0.92541 0.27513 0.85209 0.0
H711 H 0.93799 0.35578 0.87364 0.0
H712 H 0.93361 0.33205 0.84406 0.0
H713 H 0.91045 0.34556 0.86435 0.0
H714 H 0.88552 0.31348 0.85657 0.0
H715 H 0.87467 0.29653 0.79546 0.0
H716 H 0.90588 0.7603 0.23474 0.0
H717 H 0.91705 0.74431 0.17415 0.0
H718 H 0.94554 0.68984 0.23685 0.0
H719 H 0.93377 0.7054 0.29754 0.0
H720 H 0.95499 0.73653 0.14355 0.0
H721 H 0.91143 0.65578 0.15977 0.0
H722 H 0.90663 0.67807 0.1918 0.0
H723 H 0.92996 0.6606 0.19906 0.0
C724 C 0.9144 0.74482 0.23579 0.0
C725 C 0.91873 0.73416 0.27143 0.0
C726 C 0.92084 0.73564 0.20088 0.0
C727 C 0.93185 0.7155 0.20029 0.0
C728 C 0.93649 0.70498 0.23592 0.0
H729 H 0.01486 0.67014 1.01672 0.0
H730 H -0.00157 0.68551 0.07373 0.0
C731 C 0.92987 0.71406 0.27088 0.0
C732 C 0.9391 0.70603 0.16264 0.0
H733 H 0.93875 0.65887 0.11 0.0
C734 C 0.95124 0.71956 0.13634 0.0
C735 C 0.93399 0.68399 0.15212 0.0
C736 C 0.91959 0.66885 0.17697 0.0
C737 C 0.95886 0.71161 0.10101 0.0
C738 C 0.95489 0.68927 0.09164 0.0
C739 C 0.94216 0.67589 0.11719 0.0
C740 C 0.96461 0.67945 0.05628 0.0
C741 C 0.97092 0.7274 0.0737 0.0
C742 C 0.9512 0.67051 0.02709 0.0
C743 C 0.96064 0.66171 0.99383 0.0
C744 C 0.98376 0.6613 0.98923 0.0
C745 C -0.00297 0.67007 0.01884 0.0
C746 C 0.98763 0.679 0.05167 0.0
H747 H 0.96579 0.74461 0.07788 0.0
H748 H 0.98893 0.7266 0.07926 0.0
H749 H 0.96783 0.72322 0.04322 0.0
H750 H 0.9334 0.67055 0.02983 0.0
H751 H 0.94983 0.65507 0.97192 0.0
H752 H 0.44656 0.40329 0.51225 0.0
H753 H 0.43647 0.40276 0.58056 0.0
H754 H 0.40091 0.34108 0.56655 0.0
H755 H 0.41106 0.34137 0.49848 0.0
H756 H 0.39204 0.39187 0.62879 0.0
H757 H 0.46044 0.3324 0.6355 0.0
H758 H 0.45733 0.35201 0.59608 0.0
H759 H 0.43989 0.32768 0.59903 0.0
C760 C 0.43587 0.39007 0.52341 0.0
C761 C 0.42979 0.37221 0.5003 0.0
C762 C 0.43013 0.3898 0.56241 0.0
C763 C 0.41815 0.37178 0.57846 0.0
C764 C 0.41019 0.35511 0.55453 0.0
H765 H 0.37105 0.32154 0.79295 0.0
H766 H 0.37483 0.34301 0.73297 0.0
C767 C 0.416 0.35529 0.51569 0.0
C768 C 0.41736 0.3682 0.6206 0.0
H769 H 0.43872 0.33528 0.69133 0.0
C770 C 0.40236 0.3797 0.64274 0.0
C771 C 0.43123 0.35268 0.63863 0.0
C772 C 0.44829 0.34056 0.61627 0.0
C773 C 0.40019 0.37527 0.68251 0.0
C774 C 0.41313 0.35871 0.70012 0.0
C775 C 0.42879 0.348 0.67801 0.0
C776 C 0.40969 0.35059 0.74037 0.0
C777 C 0.38405 0.38829 0.70515 0.0
C778 C 0.4279 0.348 0.76504 0.0
C779 C 0.42585 0.33532 0.799 0.0
C780 C 0.40552 0.32517 0.80896 0.0
C781 C 0.38689 0.32931 0.78604 0.0
C782 C 0.38901 0.34175 0.75181 0.0
H783 H 0.38183 0.40492 0.69185 0.0
H784 H 0.36772 0.37958 0.70522 0.0
H785 H 0.38952 0.39017 0.73541 0.0
H786 H 0.44402 0.35463 0.7568 0.0
H787 H 0.44044 0.33238 0.81623 0.0
H788 H 0.44674 0.58216 0.4876 0.0
H789 H 0.43329 0.58295 0.42096 0.0
H790 H 0.39027 0.63598 0.44779 0.0
H791 H 0.40347 0.63516 0.51421 0.0
H792 H 0.37206 0.60465 0.39404 0.0
H793 H 0.45651 0.63644 0.35484 0.0
H794 H 0.45417 0.61009 0.37948 0.0
H795 H 0.44724 0.6346 0.40412 0.0
C796 C 0.43392 0.59351 0.47951 0.0
C797 C 0.42629 0.60879 0.50584 0.0
C798 C 0.42636 0.59403 0.44142 0.0
C799 C 0.4111 0.60981 0.42935 0.0
C800 C 0.4021 0.62373 0.45652 0.0
H801 H 0.36086 0.69205 0.26296 0.0
H802 H 0.36715 0.6652 0.31453 0.0
C803 C 0.40966 0.62326 0.49446 0.0
C804 C 0.40642 0.61401 0.38802 0.0
H805 H 0.42892 0.63974 0.30837 0.0
C806 C 0.38458 0.61185 0.37494 0.0
C807 C 0.42282 0.62331 0.3631 0.0
C808 C 0.4465 0.62642 0.37591 0.0
C809 C 0.37845 0.61992 0.33836 0.0
C810 C 0.3945 0.63079 0.31469 0.0
C811 C 0.41664 0.6314 0.32658 0.0
C812 C 0.3883 0.6448 0.28103 0.0
C813 C 0.35466 0.61749 0.32603 0.0
C814 C 0.39818 0.64239 0.24487 0.0
C815 C 0.39467 0.65793 0.21508 0.0
C816 C 0.38157 0.67629 0.22137 0.0
C817 C 0.37115 0.67817 0.2572 0.0
C818 C 0.37451 0.66265 0.28666 0.0
H819 H 0.34678 0.6024 0.33922 0.0
H820 H 0.34541 0.63185 0.33594 0.0
H821 H 0.35314 0.61675 0.29425 0.0
H822 H 0.40911 0.62888 0.24009 0.0
H823 H 0.40298 0.65609 0.18782 0.0
H824 H 0.1008 0.63701 0.30289 0.0
H825 H 0.10347 0.61795 0.24193 0.0
H826 H 0.15085 0.66737 0.20087 0.0
H827 H 0.14911 0.68563 0.26233 0.0
H828 H 0.08899 0.63648 0.18085 0.0
H829 H 0.17501 0.61595 0.14932 0.0
H830 H 0.16619 0.62265 0.19714 0.0
H831 H 0.1739 0.64419 0.16266 0.0
C832 C 0.1124 0.64326 0.28133 0.0
C833 C 0.12461 0.66283 0.28705 0.0
C834 C 0.11394 0.63238 0.24652 0.0
C835 C 0.12743 0.64112 0.21668 0.0
C836 C 0.14077 0.65988 0.22356 0.0
H837 H 0.10288 0.66404 0.98433 0.0
H838 H 0.12026 0.66126 0.04777 0.0
C839 C 0.13959 0.67048 0.25866 0.0
C840 C 0.12431 0.63349 0.17672 0.0
H841 H 0.15163 0.62377 0.09301 0.0
C842 C 0.10269 0.63305 0.16206 0.0
C843 C 0.14214 0.62915 0.1519 0.0
C844 C 0.16556 0.62779 0.16629 0.0
C845 C 0.09852 0.62969 0.12305 0.0
C846 C 0.11643 0.62677 0.09789 0.0
C847 C 0.13798 0.62616 0.11252 0.0
C848 C 0.11265 0.62648 0.056 0.0
C849 C 0.07504 0.63044 0.10847 0.0
C850 C 0.10369 0.60755 0.03905 0.0
C851 C 0.09379 0.60908 1.00277 0.0
C852 C 0.0926 0.62961 0.98336 0.0
C853 C 0.10354 0.64804 0.99877 0.0
C854 C 0.11354 0.64647 0.0349 0.0
H855 H 0.06303 0.63348 0.13175 0.0
H856 H 0.0736 0.64365 0.086 0.0
H857 H 0.07044 0.61456 0.09508 0.0
H858 H 0.10273 0.59204 0.05516 0.0
H859 H 0.08544 0.59461 0.99154 0.0
H860 H 0.1483 0.31074 0.7888 0.0
H861 H 0.14119 0.32882 0.84955 0.0
H862 H 0.09416 0.37064 0.79237 0.0
H863 H 0.10058 0.35198 0.73187 0.0
H864 H 0.14297 0.37025 0.87773 0.0
H865 H 0.05596 0.33935 0.87223 0.0
H866 H 0.07662 0.33071 0.83897 0.0
H867 H 0.06374 0.35691 0.83201 0.0
C868 C 0.13674 0.32406 0.78906 0.0
C869 C 0.12476 0.32979 0.75581 0.0
C870 C 0.13268 0.33438 0.8238 0.0
C871 C 0.1167 0.35069 0.82577 0.0
C872 C 0.10609 0.35767 0.7918 0.0
H873 H 0.05428 0.40539 0.02764 0.0
H874 H 0.07011 0.40292 0.96303 0.0
C875 C 0.1099 0.34713 0.75718 0.0
C876 C 0.10997 0.35901 0.86377 0.0
H877 H 0.0659 0.36121 0.92468 0.0
C878 C 0.12609 0.3684 0.8879 0.0
C879 C 0.08796 0.35641 0.87724 0.0
C880 C 0.07011 0.34511 0.85398 0.0
C881 C 0.12079 0.37515 0.92512 0.0
C882 C 0.09885 0.37243 0.93847 0.0
C883 C 0.08267 0.36351 0.91412 0.0
C884 C 0.09244 0.3769 0.97862 0.0
C885 C 0.13866 0.38501 0.95004 0.0
C886 C 0.10011 0.36342 1.00892 0.0
C887 C 0.09098 0.36468 0.0457 0.0
C888 C 0.07407 0.37946 0.05277 0.0
C889 C 0.06736 0.3939 0.02301 0.0
C890 C 0.07636 0.39249 0.98611 0.0
H891 H 0.15318 0.39087 0.93277 0.0
H892 H 0.13231 0.399 0.96639 0.0
H893 H 0.14427 0.3723 0.9711 0.0
H894 H 0.11223 0.35104 1.00362 0.0
H895 H 0.09639 0.3533 0.06809 0.0
H896 H 0.03995 0.29087 0.18816 0.0
H897 H 0.02929 0.2597 0.23022 0.0
H898 H 0.98939 0.30222 0.29791 0.0
H899 H -0.00094 0.33298 0.25422 0.0
H900 H 0.02912 0.24635 0.30619 0.0
H901 H 0.94205 0.26177 0.26274 0.0
H902 H 0.9634 0.27908 0.24115 0.0
H903 H 0.95737 0.28089 0.29168 0.0
C904 C 0.02898 0.29351 0.21212 0.0
C905 C 0.01948 0.31398 0.21698 0.0
C906 C 0.02311 0.27581 0.23655 0.0
C907 C 0.00809 0.27847 0.26688 0.0
C908 C 0.00038 0.29955 0.27405 0.0
H909 H 0.94652 0.1622 0.20633 0.0
H910 H 0.95279 0.18445 0.26328 0.0
C911 C 0.00576 0.31711 0.24879 0.0
C912 C -0.00197 0.25839 0.28522 0.0
H913 H 0.95443 0.22596 0.25892 0.0
C914 C 0.01241 0.24185 0.29764 0.0
C915 C 0.97582 0.25247 0.27673 0.0
C916 C 0.95865 0.26941 0.26752 0.0
C917 C 0.00693 0.21963 0.29189 0.0
C918 C 0.98677 0.21431 0.27351 0.0
C919 C 0.97042 0.23024 0.27108 0.0
C920 C 0.98524 0.19637 0.24555 0.0
C921 C 0.02391 0.20251 0.30057 0.0
C922 C 0.00145 0.19558 0.21666 0.0
C923 C -0.00214 0.18306 0.18413 0.0
C924 C 0.97796 0.17125 0.1797 0.0
C925 C 0.96195 0.17145 0.20893 0.0
C926 C 0.96564 0.18381 0.24175 0.0
H927 H 0.03147 0.20543 0.32917 0.0
H928 H 0.01669 0.18551 0.30023 0.0
H929 H 0.03733 0.2041 0.27893 0.0
H930 H 0.01634 0.2058 0.21791 0.0
H931 H 0.0103 0.18326 0.16175 0.0
H932 H 0.94318 0.80577 0.45738 0.0
H933 H 0.95924 0.79399 0.51875 0.0
H934 H 0.96849 0.7292 0.47298 0.0
H935 H 0.95188 0.74086 0.41299 0.0
H936 H 0.99413 0.78468 0.54465 0.0
H937 H 0.9569 0.70745 0.57676 0.0
H938 H 0.95798 0.70367 0.52583 0.0
H939 H 0.94229 0.72597 0.54502 0.0
C940 C 0.94856 0.78896 0.46085 0.0
C941 C 0.94619 0.77407 0.43072 0.0
C942 C 0.95736 0.7821 0.49626 0.0
C943 C 0.96413 0.76028 0.502 0.0
C944 C 0.96226 0.74574 0.471 0.0
H945 H 0.06132 0.68692 0.47418 0.0
H946 H 0.041 0.69699 0.53209 0.0
C947 C 0.95325 0.75251 0.43603 0.0
C948 C 0.97688 0.75342 0.53681 0.0
H949 H 6e-05 0.70356 0.54487 0.0
C950 C 0.99504 0.76689 0.54697 0.0
C951 C 0.97799 0.73073 0.54651 0.0
C952 C 0.9575 0.71626 0.54841 0.0
C953 C 0.01579 0.75741 0.55136 0.0
C954 C 0.01772 0.73503 0.54195 0.0
C955 C -0.0011 0.72127 0.54714 0.0
C956 C 0.03289 0.7295 0.5102 0.0
C957 C 0.03582 0.77212 0.55647 0.0
C958 C 0.03464 0.74409 0.47804 0.0
C959 C 0.04596 0.73834 0.4452 0.0
C960 C 0.05563 0.71776 0.44328 0.0
C961 C 0.05379 0.7029 0.47493 0.0
C962 C 0.04249 0.70874 0.50822 0.0
H963 H 0.03399 0.78177 0.58294 0.0
H964 H 0.05125 0.76262 0.55842 0.0
H965 H 0.03694 0.78406 0.53191 0.0
H966 H 0.02652 0.75979 0.47748 0.0
H967 H 0.0469 0.74993 0.42102 0.0
H968 H 0.50561 0.68732 0.65963 0.0
H969 H 0.50975 0.70745 0.71918 0.0
H970 H 0.44524 0.68372 0.75636 0.0
H971 H 0.441 0.66386 0.69641 0.0
H972 H 0.4471 0.72592 0.75726 0.0
H973 H 0.5211 0.70052 0.83265 0.0
H974 H 0.52862 0.70182 0.78294 0.0
H975 H 0.50715 0.68252 0.79912 0.0
C976 C 0.49261 0.686 0.68097 0.0
C977 C 0.47311 0.67406 0.67357 0.0
C978 C 0.49507 0.69719 0.71532 0.0
C979 C 0.47805 0.69658 0.74294 0.0
C980 C 0.45874 0.68411 0.7359 0.0
H981 H 0.49374 0.83004 0.75556 0.0
H982 H 0.48226 0.80075 0.80122 0.0
C983 C 0.45624 0.67307 0.70139 0.0
C984 C 0.47867 0.71304 0.77362 0.0
H985 H 0.51987 0.74243 0.81616 0.0
C986 C 0.46264 0.72928 0.77174 0.0
C987 C 0.49803 0.71701 0.79522 0.0
C988 C 0.51449 0.69928 0.80294 0.0
C989 C 0.46809 0.75101 0.78137 0.0
C990 C 0.49011 0.7561 0.79252 0.0
C991 C 0.50346 0.73872 0.80513 0.0
C992 C 0.50158 0.77569 0.77467 0.0
C993 C 0.4514 0.76855 0.77333 0.0
C994 C 0.51783 0.77203 0.74669 0.0
C995 C 0.52482 0.78889 0.72141 0.0
C996 C 0.51531 0.80956 0.72291 0.0
C997 C 0.50054 0.8139 0.75275 0.0
C998 C 0.49405 0.79716 0.77903 0.0
H999 H 0.4346 0.7614 0.76836 0.0
H1000 H 0.45051 0.77964 0.79811 0.0
H1001 H 0.4563 0.77845 0.7473 0.0
H1002 H 0.52401 0.75567 0.74239 0.0
H1003 H 0.53653 0.78532 0.699 0.0
H1004 H 0.58324 0.29825 0.89797 0.0
H1005 H 0.56206 0.31916 0.94438 0.0
H1006 H 0.50485 0.27841 0.91984 0.0
H1007 H 0.52734 0.25471 0.88079 0.0
H1008 H 0.4965 0.32187 0.95929 0.0
H1009 H 0.5584 0.27248 0.03746 0.0
H1010 H 0.5658 0.29542 1.00555 0.0
H1011 H 0.55866 0.26891 0.98626 0.0
C1012 C 0.56631 0.29349 0.90382 0.0
C1013 C 0.55753 0.27354 0.89026 0.0
C1014 C 0.55402 0.30595 0.92892 0.0
C1015 C 0.53243 0.29907 0.93802 0.0
C1016 C 0.52206 0.28289 0.91537 0.0
H1017 H 0.47747 0.23833 0.91589 0.0
H1018 H 0.5045 0.24892 0.96448 0.0
C1019 C 0.53478 0.26949 0.89258 0.0
C1020 C 0.52354 0.30175 0.97717 0.0
H1021 H 0.52012 0.25969 0.04308 0.0
C1022 C 0.50199 0.30936 0.97971 0.0
C1023 C 0.53094 0.28687 1.00626 0.0
C1024 C 0.55481 0.28061 1.00923 0.0
C1025 C 0.48634 0.29753 1.00225 0.0
C1026 C 0.4926 0.27717 0.01948 0.0
C1027 C 0.51507 0.27434 0.02723 0.0
C1028 C 0.48005 0.25737 1.0068 0.0
C1029 C 0.46253 0.30404 0.9996 0.0
C1030 C 0.45804 0.25389 1.01787 0.0
C1031 C 0.44267 0.24645 0.9909 0.0
C1032 C 0.44932 0.2431 0.95265 0.0
C1033 C 0.47184 0.2418 0.94463 0.0
C1034 C 0.48724 0.24795 0.97249 0.0
H1035 H 0.4612 0.32208 0.99432 0.0
H1036 H 0.45442 0.29554 0.97524 0.0
H1037 H 0.45356 0.29938 0.0265 0.0
H1038 H 0.45224 0.25983 0.04497 0.0
H1039 H 0.42543 0.24638 0.99871 0.0
H1040 H 0.99524 0.79985 0.85547 0.0
H1041 H 0.00289 0.78019 0.79737 0.0
H1042 H 0.93917 0.79747 0.75115 0.0
H1043 H 0.93164 0.81752 0.80989 0.0
H1044 H 0.9435 0.75471 0.75221 0.0
H1045 H 0.02083 0.78314 0.68708 0.0
H1046 H 0.021 0.79258 0.73547 0.0
H1047 H -0.0001 0.80187 0.70273 0.0
C1048 C 0.98316 0.79994 0.8325 0.0
C1049 C 0.96303 0.81024 0.83696 0.0
C1050 C 0.9876 0.789 0.79886 0.0
C1051 C 0.97188 0.78794 0.76898 0.0
C1052 C 0.95175 0.79853 0.77325 0.0
H1053 H 0.00589 0.66021 0.79475 0.0
H1054 H 0.9947 0.6849 0.74268 0.0
C1055 C 0.94733 0.80956 0.8071 0.0
C1056 C 0.97464 0.77112 0.73943 0.0
H1057 H 0.02294 0.74582 0.72518 0.0
C1058 C 0.96054 0.75258 0.7438 0.0
C1059 C 0.99591 0.76817 0.72427 0.0
C1060 C 0.01011 0.78763 0.71144 0.0
C1061 C 0.96956 0.73163 0.74777 0.0
C1062 C 0.99278 0.72987 0.74561 0.0
C1063 C 0.0053 0.74743 0.72911 0.0
C1064 C 0.00397 0.71457 0.77237 0.0
C1065 C 0.95484 0.71253 0.76094 0.0
C1066 C 0.01365 0.72305 0.80596 0.0
C1067 C 0.02034 0.70892 0.83587 0.0
C1068 C 0.01723 0.68614 0.83269 0.0
C1069 C 0.00836 0.67771 0.79836 0.0
C1070 C 0.002 0.69178 0.76832 0.0
H1071 H 0.93705 0.71641 0.75873 0.0
H1072 H 0.95793 0.69803 0.74312 0.0
H1073 H 0.95858 0.708 0.79136 0.0
H1074 H 0.01509 0.74068 0.8098 0.0
H1075 H 0.02729 0.71582 0.86179 0.0
H1076 H 0.54652 0.78777 0.09533 0.0
H1077 H 0.51922 0.77336 0.04996 0.0
H1078 H 0.56676 0.72787 1.00823 0.0
H1079 H 0.59353 0.74174 0.0546 0.0
H1080 H 0.51391 0.76442 0.96972 0.0
H1081 H 0.52165 0.68579 0.05473 0.0
H1082 H 0.53706 0.70964 0.07059 0.0
H1083 H 0.54408 0.69701 0.02608 0.0
C1084 C 0.55114 0.77483 0.07624 0.0
C1085 C 0.57172 0.76505 0.07975 0.0
C1086 C 0.53569 0.76679 0.04993 0.0
C1087 C 0.54082 0.74917 0.02619 0.0
C1088 C 0.56222 0.741 0.02694 0.0
H1089 H 0.42282 0.70013 0.09211 0.0
H1090 H 0.44708 0.69581 0.03663 0.0
C1091 C 0.57743 0.74871 0.05393 0.0
C1092 C 0.52242 0.73714 1.00738 0.0
H1093 H 0.48636 0.6977 0.04103 0.0
C1094 C 0.50802 0.74927 0.98387 0.0
C1095 C 0.515 0.71655 0.02319 0.0
C1096 C 0.53019 0.70134 0.04494 0.0
C1097 C 0.48536 0.74397 0.98366 0.0
C1098 C 0.47733 0.72708 1.00911 0.0
C1099 C 0.49231 0.71168 0.02364 0.0
C1100 C 0.45725 0.73031 0.03261 0.0
C1101 C 0.47002 0.75826 0.96046 0.0
C1102 C 0.45411 0.75119 0.04819 0.0
C1103 C 0.44 0.75367 0.07917 0.0
C1104 C 0.42899 0.7353 0.09588 0.0
C1105 C 0.43127 0.71454 0.07967 0.0
C1106 C 0.44498 0.71212 0.0478 0.0
H1107 H 0.47593 0.75974 0.93025 0.0
H1108 H 0.45281 0.75149 0.96068 0.0
H1109 H 0.47026 0.77516 0.97198 0.0
H1110 H 0.46384 0.76548 0.03863 0.0
H1111 H 0.43842 0.76991 0.09098 0.0
H1112 H 0.48901 0.19069 0.36922 0.0
H1113 H 0.47989 0.21273 0.3127 0.0
H1114 H 0.54109 0.19479 0.25887 0.0
H1115 H 0.55112 0.17482 0.31767 0.0
H1116 H 0.54021 0.23193 0.2421 0.0
H1117 H 0.45582 0.21613 0.21082 0.0
H1118 H 0.4532 0.21496 0.26191 0.0
H1119 H 0.47054 0.19546 0.23812 0.0
C1120 C 0.50036 0.19138 0.34513 0.0
C1121 C 0.52066 0.1811 0.3477 0.0
C1122 C 0.49495 0.20355 0.31209 0.0
C1123 C 0.50943 0.2051 0.28022 0.0
C1124 C 0.52946 0.19396 0.28251 0.0
H1125 H 0.51735 0.30032 0.3594 0.0
H1126 H 0.52531 0.27778 0.30508 0.0
C1127 C 0.53523 0.18256 0.31626 0.0
C1128 C 0.50571 0.22215 0.24944 0.0
H1129 H 0.4631 0.25679 0.24213 0.0
C1130 C 0.52323 0.23707 0.24061 0.0
C1131 C 0.48407 0.22897 0.24097 0.0
C1132 C 0.46497 0.21276 0.23794 0.0
C1133 C 0.51916 0.25964 0.23706 0.0
C1134 C 0.49773 0.26675 0.24564 0.0
C1135 C 0.48005 0.2516 0.24054 0.0
C1136 C 0.49474 0.28443 0.27404 0.0
C1137 C 0.53814 0.27568 0.22983 0.0
C1138 C 0.47466 0.29544 0.27638 0.0
C1139 C 0.46958 0.30714 0.30916 0.0
C1140 C 0.48488 0.30896 0.33941 0.0
C1141 C 0.50536 0.29916 0.33634 0.0
C1142 C 0.5101 0.28671 0.30443 0.0
H1143 H 0.54641 0.27147 0.20261 0.0
H1144 H 0.53262 0.29298 0.22759 0.0
H1145 H 0.55063 0.2741 0.25308 0.0
H1146 H 0.46244 0.29416 0.25375 0.0
H1147 H 0.45365 0.31474 0.31081 0.0
H1148 H 0.09399 0.23986 0.57314 0.0
H1149 H 0.06921 0.22592 0.52379 0.0
H1150 H 0.02315 0.27642 0.55109 0.0
H1151 H 0.0487 0.29068 0.59929 0.0
H1152 H 0.03421 0.20711 0.54395 0.0
H1153 H 0.00623 0.26918 0.44183 0.0
H1154 H 0.03277 0.27215 0.46543 0.0
H1155 H 0.00822 0.28345 0.4861 0.0
C1156 C 0.07873 0.24799 0.56829 0.0
C1157 C 0.07288 0.26565 0.59104 0.0
C1158 C 0.06474 0.24037 0.53942 0.0
C1159 C 0.04424 0.25007 0.53331 0.0
C1160 C 0.03908 0.26889 0.55421 0.0
H1161 H 0.94866 0.26413 0.61092 0.0
H1162 H 0.97361 0.25971 0.5577 0.0
C1163 C 0.05346 0.27679 0.58248 0.0
C1164 C 0.02615 0.23752 0.5143 0.0
H1165 H 0.97488 0.25038 0.48317 0.0
C1166 C 0.02141 0.21623 0.52924 0.0
C1167 C 0.00983 0.24824 0.49228 0.0
C1168 C 0.01476 0.26942 0.47013 0.0
C1169 C -0.00048 0.20848 0.53246 0.0
C1170 C 0.98246 0.22263 0.52046 0.0
C1171 C 0.98792 0.24031 0.49496 0.0
C1172 C 0.96356 0.22577 0.54679 0.0
C1173 C 0.99499 0.18712 0.55447 0.0
C1174 C 0.94916 0.20839 0.55861 0.0
C1175 C 0.93564 0.21064 0.59086 0.0
C1176 C 0.93547 0.23065 0.61029 0.0
C1177 C 0.94864 0.24843 0.59677 0.0
C1178 C 0.96262 0.24599 0.56565 0.0
H1179 H 0.01013 0.17732 0.5581 0.0
H1180 H 0.98854 0.19056 0.58353 0.0
H1181 H 0.98256 0.17695 0.53901 0.0
H1182 H 0.94897 0.19285 0.54408 0.0
H1183 H 0.9255 0.19669 0.6008 0.0
H1184 H 0.97085 0.06351 0.11561 0.0
H1185 H 0.96389 0.03028 0.07836 0.0
H1186 H 0.02995 0.03568 0.03233 0.0
H1187 H 0.03687 0.06913 0.06892 0.0
H1188 H 0.99585 0.02709 0.97669 0.0
H1189 H 0.99145 0.96986 0.10433 0.0
H1190 H 0.97364 0.99311 0.1048 0.0
H1191 H 0.00303 -0.00252 0.1068 0.0
C1192 C 0.98383 0.05763 0.09738 0.0
C1193 C 0.00438 0.06882 0.095 0.0
C1194 C 0.97986 0.03864 0.07632 0.0
C1195 C 0.99647 0.0305 0.05291 0.0
C1196 C 0.01694 0.04176 0.05029 0.0
H1197 H 0.02612 0.90776 0.95954 0.0
H1198 H 0.02248 0.9419 0.9944 0.0
C1199 C 0.02091 0.06075 0.07129 0.0
C1200 C 0.99281 0.01002 0.03151 0.0
H1201 H 0.9869 0.95424 0.0435 0.0
C1202 C 0.99366 0.01115 0.99118 0.0
C1203 C 0.99004 0.98933 0.0507 0.0
C1204 C 0.98963 0.9872 0.09404 0.0
C1205 C 0.99239 0.992 0.96945 0.0
C1206 C 0.99002 0.97129 0.98869 0.0
C1207 C 0.98856 0.97021 0.02896 0.0
C1208 C 0.99142 0.95046 0.96791 0.0
C1209 C 0.99459 0.99393 0.92626 0.0
C1210 C 0.97501 0.94395 0.94171 0.0
C1211 C 0.97708 0.92441 0.92162 0.0
C1212 C 0.99554 0.9112 0.9277 0.0
C1213 C 0.01176 0.91769 0.95425 0.0
C1214 C 0.00967 0.93711 0.97427 0.0
H1215 H -0.00042 0.01088 0.91639 0.0
H1216 H 0.00696 0.98226 0.9159 0.0
H1217 H 0.9785 0.98961 0.91278 0.0
H1218 H 0.96069 0.95397 0.93677 0.0
H1219 H 0.96439 0.91974 0.90121 0.0
H1220 H 0.16615 0.7131 0.36864 0.0
H1221 H 0.20119 0.70986 0.33393 0.0
H1222 H 0.19235 0.77404 0.28091 0.0
H1223 H 0.15734 0.77721 0.31489 0.0
H1224 H 0.20378 0.74159 0.22924 0.0
H1225 H 0.26012 0.74341 0.35547 0.0
H1226 H 0.23797 0.72318 0.35868 0.0
H1227 H 0.23182 0.75198 0.35778 0.0
C1228 C 0.1717 0.72644 0.34946 0.0
C1229 C 0.15908 0.74539 0.34436 0.0
C1230 C 0.19177 0.72467 0.32998 0.0
C1231 C 0.19948 0.74187 0.30534 0.0
C1232 C 0.18675 0.76066 0.29999 0.0
H1233 H 0.32842 0.75845 0.19201 0.0
H1234 H 0.29531 0.76459 0.23103 0.0
C1235 C 0.16677 0.76244 0.31941 0.0
C1236 C 0.22044 0.74013 0.28396 0.0
H1237 H 0.2762 0.73557 0.29511 0.0
C1238 C 0.21962 0.74036 0.24363 0.0
C1239 C 0.24109 0.73885 0.30286 0.0
C1240 C 0.24295 0.73953 0.34608 0.0
C1241 C 0.23887 0.7388 0.22165 0.0
C1242 C 0.25941 0.73676 0.24054 0.0
C1243 C 0.26036 0.73707 0.28083 0.0
C1244 C 0.27983 0.73302 0.21874 0.0
C1245 C 0.23711 0.73928 0.17833 0.0
C1246 C 0.28213 0.71316 0.19971 0.0
C1247 C 0.30086 0.70964 0.17773 0.0
C1248 C 0.31766 0.72593 0.17434 0.0
C1249 C 0.31563 0.74569 0.19407 0.0
C1250 C 0.29681 0.74918 0.21632 0.0
H1251 H 0.22116 0.74602 0.16831 0.0
H1252 H 0.25083 0.74935 0.16522 0.0
H1253 H 0.23825 0.72224 0.16779 0.0
H1254 H 0.26931 0.70041 0.20167 0.0
H1255 H 0.30206 0.69417 0.1631 0.0
H1256 H 0.53476 0.07107 0.41955 0.0
H1257 H 0.54201 0.03708 0.45715 0.0
H1258 H 0.47714 0.03939 0.50759 0.0
H1259 H 0.46996 0.07324 0.47083 0.0
H1260 H 0.53823 0.02933 0.54322 0.0
H1261 H 0.48135 0.97735 0.45656 0.0
H1262 H 0.49267 0.00352 0.43899 0.0
H1263 H 0.46988 0.00267 0.47206 0.0
C1264 C 0.52218 0.06438 0.43895 0.0
C1265 C 0.50182 0.07478 0.44236 0.0
C1266 C 0.52631 0.04501 0.46029 0.0
C1267 C 0.51001 0.03569 0.48481 0.0
C1268 C 0.48983 0.04622 0.4885 0.0
H1269 H 0.49991 0.94305 0.67264 0.0
H1270 H 0.50589 0.9757 0.6308 0.0
C1271 C 0.48576 0.06555 0.46747 0.0
C1272 C 0.5136 0.01476 0.50639 0.0
H1273 H 0.49253 0.96236 0.51726 0.0
C1274 C 0.52852 0.01454 0.5373 0.0
C1275 C 0.50107 0.99548 0.49828 0.0
C1276 C 0.48546 0.9946 0.46446 0.0
C1277 C 0.53043 0.99577 0.5615 0.0
C1278 C 0.5169 0.97691 0.55471 0.0
C1279 C 0.5028 0.97685 0.52264 0.0
C1280 C 0.51608 0.95744 0.58142 0.0
C1281 C 0.54676 -0.00364 0.59425 0.0
C1282 C 0.51973 0.9363 0.56759 0.0
C1283 C 0.5161 0.91764 0.59133 0.0
C1284 C 0.50869 0.91977 0.62932 0.0
C1285 C 0.50572 0.94094 0.64354 0.0
C1286 C 0.50931 0.95962 0.61974 0.0
H1287 H 0.56027 0.00873 0.58853 0.0
H1288 H 0.53814 0.00108 0.62084 0.0
H1289 H 0.5541 0.97998 0.59948 0.0
H1290 H 0.52477 0.93422 0.53804 0.0
H1291 H 0.51831 0.90153 0.57946 0.0
H1292 H 0.35796 0.26725 0.81157 0.0
H1293 H 0.32717 0.27897 0.77059 0.0
H1294 H 0.28133 0.26075 0.86154 0.0
H1295 H 0.31191 0.24979 0.90272 0.0
H1296 H 0.2958 0.25235 0.74525 0.0
H1297 H 0.25518 0.31729 0.8249 0.0
H1298 H 0.28275 0.30856 0.83646 0.0
H1299 H 0.25897 0.29372 0.85599 0.0
C1300 C 0.34134 0.26632 0.82307 0.0
C1301 C 0.33729 0.25759 0.86028 0.0
C1302 C 0.32377 0.27299 0.79965 0.0
C1303 C 0.30191 0.2711 0.81314 0.0
C1304 C 0.29802 0.26303 0.85078 0.0
H1305 H 0.18622 0.22492 0.71184 0.0
H1306 H 0.22131 0.23369 0.74289 0.0
C1307 C 0.31553 0.2565 0.87419 0.0
C1308 C 0.28295 0.27454 0.7867 0.0
H1309 H 0.23105 0.29534 0.78311 0.0
C1310 C 0.28189 0.26223 0.75308 0.0
C1311 C 0.26486 0.28768 0.79635 0.0
C1312 C 0.26563 0.30274 0.8302 0.0
C1313 C 0.26264 0.26127 0.73071 0.0
C1314 C 0.2438 0.27256 0.74268 0.0
C1315 C 0.24539 0.28635 0.77439 0.0
C1316 C 0.22186 0.26813 0.72523 0.0
C1317 C 0.26238 0.24747 0.69521 0.0
C1318 C 0.21004 0.28484 0.70637 0.0
C1319 C 0.18976 0.27986 0.68862 0.0
C1320 C 0.1811 0.25815 0.6898 0.0
C1321 C 0.19261 0.24174 0.71003 0.0
C1322 C 0.21272 0.2467 0.72765 0.0
H1323 H 0.27925 0.24599 0.6832 0.0
H1324 H 0.25606 0.23061 0.70291 0.0
H1325 H 0.2515 0.25456 0.6726 0.0
H1326 H 0.21673 0.30155 0.70461 0.0
H1327 H 0.18113 0.29282 0.67333 0.0
H1328 H 0.656 0.22538 0.82202 0.0
H1329 H 0.6909 0.221 0.78813 0.0
H1330 H 0.72683 0.23501 0.89222 0.0
H1331 H 0.69194 0.23912 0.92651 0.0
H1332 H 0.72248 0.25589 0.78071 0.0
H1333 H 0.75826 0.18126 0.8498 0.0
H1334 H 0.72932 0.18737 0.85328 0.0
H1335 H 0.74924 0.2019 0.88205 0.0
C1336 C 0.67131 0.22693 0.83798 0.0
C1337 C 0.67126 0.23265 0.87689 0.0
C1338 C 0.69123 0.22457 0.81851 0.0
C1339 C 0.71142 0.22772 0.83766 0.0
C1340 C 0.71143 0.23227 0.87703 0.0
H1341 H 0.83558 0.25477 0.70939 0.0
H1342 H 0.80519 0.25846 0.75569 0.0
C1343 C 0.69148 0.23463 0.89656 0.0
C1344 C 0.73232 0.228 0.81557 0.0
H1345 H 0.78059 0.20107 0.80451 0.0
C1346 C 0.73526 0.24398 0.78599 0.0
C1347 C 0.74892 0.21247 0.82267 0.0
C1348 C 0.74632 0.19464 0.85346 0.0
C1349 C 0.75418 0.24456 0.7627 0.0
C1350 C 0.7707 0.22891 0.76956 0.0
C1351 C 0.76797 0.2132 0.79965 0.0
C1352 C 0.78965 0.22693 0.74311 0.0
C1353 C 0.75595 0.26132 0.72998 0.0
C1354 C 0.7911 0.20792 0.72135 0.0
C1355 C 0.80827 0.20582 0.69522 0.0
C1356 C 0.82443 0.22266 0.69036 0.0
C1357 C 0.82324 0.24163 0.7125 0.0
C1358 C 0.80591 0.24375 0.73879 0.0
H1359 H 0.74017 0.26985 0.72479 0.0
H1360 H 0.76884 0.27393 0.73686 0.0
H1361 H 0.76089 0.25333 0.70304 0.0
H1362 H 0.77873 0.19478 0.72422 0.0
H1363 H 0.80883 0.19094 0.67872 0.0
H1364 H 0.83705 0.78793 0.36453 0.0
H1365 H 0.80257 0.79603 0.3303 0.0
H1366 H 0.80504 0.73336 0.27491 0.0
H1367 H 0.83956 0.72535 0.30851 0.0
H1368 H 0.79469 0.77144 0.22503 0.0
H1369 H 0.7426 0.76297 0.35692 0.0
H1370 H 0.76644 0.78125 0.35817 0.0
H1371 H 0.77005 0.75213 0.35493 0.0
C1372 C 0.83034 0.77604 0.34468 0.0
C1373 C 0.84094 0.75605 0.339 0.0
C1374 C 0.81062 0.78061 0.32539 0.0
C1375 C 0.80125 0.76522 0.3003 0.0
C1376 C 0.81205 0.74545 0.29415 0.0
H1377 H 0.6811 0.72365 0.20807 0.0
H1378 H 0.7148 0.73225 0.24373 0.0
C1379 C 0.83168 0.74085 0.31346 0.0
C1380 C 0.77981 0.7691 0.28118 0.0
H1381 H 0.72427 0.76757 0.29787 0.0
C1382 C 0.77927 0.77104 0.2409 0.0
C1383 C 0.75981 0.76845 0.30213 0.0
C1384 C 0.75954 0.76598 0.34542 0.0
C1385 C 0.75915 0.7714 0.22083 0.0
C1386 C 0.73914 0.76989 0.24171 0.0
C1387 C 0.73969 0.76891 0.28207 0.0
C1388 C 0.71775 0.76593 0.22217 0.0
C1389 C 0.75939 0.77205 0.17742 0.0
C1390 C 0.70802 0.78221 0.19877 0.0
C1391 C 0.68862 0.77732 0.17831 0.0
C1392 C 0.67888 0.75607 0.18094 0.0
C1393 C 0.68834 0.74011 0.20529 0.0
C1394 C 0.70754 0.74502 0.2258 0.0
H1395 H 0.77635 0.77106 0.16559 0.0
H1396 H 0.74915 0.7582 0.1662 0.0
H1397 H 0.75213 0.78765 0.16669 0.0
H1398 H 0.71561 0.79851 0.19589 0.0
H1399 H 0.68159 0.78992 0.15975 0.0
H1400 H 0.5337 0.57482 0.55629 0.0
H1401 H 0.52698 0.54103 0.52053 0.0
H1402 H 0.46221 0.53367 0.57132 0.0
H1403 H 0.46887 0.56743 0.60732 0.0
H1404 H 0.48896 0.49512 0.57559 0.0
H1405 H 0.48432 0.53136 0.42782 0.0
H1406 H 0.50771 0.54102 0.45503 0.0
H1407 H 0.4803 0.54728 0.47039 0.0
C1408 C 0.51801 0.56603 0.55966 0.0
C1409 C 0.50176 0.5737 0.58434 0.0
C1410 C 0.51413 0.54687 0.53906 0.0
C1411 C 0.49398 0.53511 0.54293 0.0
C1412 C 0.47777 0.54267 0.56775 0.0
H1413 H 0.47034 0.41894 0.4 0.0
H1414 H 0.46254 0.45237 0.43566 0.0
C1415 C 0.4816 0.56191 0.58821 0.0
C1416 C 0.4905 0.51426 0.5226 0.0
H1417 H 0.49083 0.49258 0.43305 0.0
C1418 C 0.48898 0.49453 0.54443 0.0
C1419 C 0.49016 0.51365 0.482 0.0
C1420 C 0.49049 0.53446 0.45736 0.0
C1421 C 0.48858 0.47407 0.52659 0.0
C1422 C 0.48992 0.47346 0.48608 0.0
C1423 C 0.48999 0.49318 0.46417 0.0
C1424 C 0.49368 0.4527 0.46622 0.0
C1425 C 0.48737 0.45324 0.55117 0.0
C1426 C 0.51376 0.44207 0.47159 0.0
C1427 C 0.51828 0.42324 0.45121 0.0
C1428 C 0.50273 0.41469 0.42524 0.0
C1429 C 0.4825 0.42518 0.42011 0.0
C1430 C 0.47805 0.44421 0.44034 0.0
H1431 H 0.48056 0.45629 0.58016 0.0
H1432 H 0.47698 0.44037 0.53724 0.0
H1433 H 0.50423 0.44677 0.5549 0.0
H1434 H 0.52614 0.44861 0.49102 0.0
H1435 H 0.53399 0.41542 0.45565 0.0
H1436 H 0.00411 0.55146 0.89887 0.0
H1437 H 0.009 0.52082 0.94452 0.0
H1438 H 0.03503 0.56585 0.02832 0.0
H1439 H 0.0295 0.59686 0.98284 0.0
H1440 H 0.04407 0.5037 0.98445 0.0
H1441 H 0.98199 0.53737 0.0837 0.0
H1442 H 0.9863 0.54847 0.03563 0.0
H1443 H 0.00559 0.555 0.07322 0.0
C1444 C 0.01106 0.55485 0.92689 0.0
C1445 C 0.01614 0.57655 0.93752 0.0
C1446 C 0.01394 0.5373 0.95291 0.0
C1447 C 0.022 0.54107 0.99006 0.0
C1448 C 0.02835 0.56262 1.00005 0.0
H1449 H 0.03817 0.42554 0.14669 0.0
H1450 H 0.04679 0.45916 0.10835 0.0
C1451 C 0.02533 0.58028 0.97399 0.0
C1452 C 0.02209 0.5225 0.01863 0.0
H1453 H 0.99617 0.50283 0.1001 0.0
C1454 C 0.03384 0.50358 1.01005 0.0
C1455 C 0.00849 0.52232 0.05173 0.0
C1456 C 0.99471 0.54177 0.06163 0.0
C1457 C 0.03182 0.48423 0.03298 0.0
C1458 C 0.01795 0.48399 0.0657 0.0
C1459 C 0.00683 0.50314 0.07502 0.0
C1460 C 0.0132 0.46358 0.08885 0.0
C1461 C 0.04362 0.46392 0.02091 0.0
C1462 C 0.99144 0.45514 0.09112 0.0
C1463 C 0.98649 0.43611 0.1131 0.0
C1464 C 0.00321 0.42514 0.13323 0.0
C1465 C 0.02501 0.43358 0.1311 0.0
C1466 C 0.02996 0.45271 0.10914 0.0
H1467 H 0.04996 0.46558 0.99098 0.0
H1468 H 0.05788 0.46113 0.04034 0.0
H1469 H 0.03248 0.44913 0.02307 0.0
H1470 H 0.97825 0.46328 0.07571 0.0
H1471 H 0.96955 0.42996 0.11425 0.0
H1472 H 0.05918 0.17716 0.23085 0.0
H1473 H 0.07609 0.18664 0.29261 0.0
H1474 H 0.07455 0.11794 0.3275 0.0
H1475 H 0.05821 0.10835 0.26559 0.0
H1476 H 0.05689 0.1793 0.36319 0.0
H1477 H 0.13684 0.13701 0.35755 0.0
H1478 H 0.12005 0.14177 0.31536 0.0
H1479 H 0.11337 0.11928 0.3483 0.0
C1480 C 0.06294 0.16406 0.25137 0.0
C1481 C 0.05754 0.14202 0.24337 0.0
C1482 C 0.07248 0.16949 0.28669 0.0
C1483 C 0.07676 0.15299 0.31457 0.0
C1484 C 0.07184 0.13091 0.30619 0.0
H1485 H 0.08921 0.17952 0.55976 0.0
H1486 H 0.07789 0.16419 0.498 0.0
C1487 C 0.06242 0.12546 0.27083 0.0
C1488 C 0.08487 0.15902 0.35335 0.0
H1489 H 0.12634 0.15059 0.41837 0.0
C1490 C 0.07212 0.17312 0.37518 0.0
C1491 C 0.10478 0.15097 0.36893 0.0
C1492 C 0.11968 0.13659 0.34622 0.0
C1493 C 0.07868 0.17935 0.41218 0.0
C1494 C 0.09831 0.17082 0.42819 0.0
C1495 C 0.11114 0.15684 0.40627 0.0
C1496 C 0.10639 0.17731 0.46672 0.0
C1497 C 0.06482 0.19548 0.43332 0.0
C1498 C 0.12675 0.18863 0.47012 0.0
C1499 C 0.13338 0.1971 0.50543 0.0
C1500 C 0.11978 0.19435 0.53798 0.0
C1501 C 0.10004 0.18183 0.53515 0.0
C1502 C 0.09345 0.17329 0.49979 0.0
H1503 H 0.05358 0.20451 0.41355 0.0
H1504 H 0.05449 0.18638 0.45508 0.0
H1505 H 0.07539 0.20769 0.44851 0.0
H1506 H 0.13707 0.19179 0.44505 0.0
H1507 H 0.14865 0.20673 0.50677 0.0
H1508 H 0.06017 0.80333 0.48529 0.0
H1509 H 0.05635 0.81985 0.54833 0.0
H1510 H 0.12718 0.821 0.56194 0.0
H1511 H 0.13094 0.80376 0.49963 0.0
H1512 H 0.10919 0.80076 0.62056 0.0
H1513 H 0.06436 0.87779 0.59661 0.0
H1514 H 0.04948 0.85537 0.57521 0.0
H1515 H 0.07657 0.86338 0.55749 0.0
C1516 C 0.0749 0.80759 0.50145 0.0
C1517 C 0.09576 0.80194 0.48809 0.0
C1518 C 0.07275 0.8172 0.53733 0.0
C1519 C 0.09148 0.82165 0.56 0.0
C1520 C 0.11248 0.8176 0.54511 0.0
H1521 H 0.06244 0.87534 0.78434 0.0
H1522 H 0.08103 0.87054 0.72284 0.0
C1523 C 0.11461 0.80782 0.50944 0.0
C1524 C 0.08899 0.82759 0.60089 0.0
H1525 H 0.06055 0.86056 0.66016 0.0
C1526 C 0.09892 0.81416 0.62919 0.0
C1527 C 0.07588 0.8452 0.61234 0.0
C1528 C 0.06619 0.86137 0.58371 0.0
C1529 C 0.09523 0.81719 0.66848 0.0
C1530 C 0.08061 0.83362 0.67979 0.0
C1531 C 0.07158 0.84776 0.65159 0.0
C1532 C 0.0732 0.83562 0.72019 0.0
C1533 C 0.10697 0.80263 0.69732 0.0
C1534 C 0.06336 0.81742 0.73993 0.0
C1535 C 0.05308 0.82007 0.77542 0.0
C1536 C 0.05206 0.84104 0.79124 0.0
C1537 C 0.06297 0.85898 0.77264 0.0
C1538 C 0.0735 0.85628 0.73744 0.0
H1539 H 0.12309 0.79743 0.68586 0.0
H1540 H 0.10991 0.81108 0.72488 0.0
H1541 H 0.09676 0.78748 0.70312 0.0
H1542 H 0.06247 0.80141 0.72693 0.0
H1543 H 0.04471 0.80601 0.78918 0.0
H1544 H 0.40137 0.80233 0.08855 0.0
H1545 H 0.41167 0.82392 0.03025 0.0
H1546 H 0.35905 0.79167 0.96783 0.0
H1547 H 0.34891 0.77005 0.02565 0.0
H1548 H 0.42502 0.80119 0.96351 0.0
H1549 H 0.35589 0.85669 0.92977 0.0
H1550 H 0.36065 0.84528 0.9775 0.0
H1551 H 0.34742 0.82875 0.94158 0.0
C1552 C 0.39139 0.80065 0.06286 0.0
C1553 C 0.37415 0.78476 0.0617 0.0
C1554 C 0.39743 0.81279 0.02946 0.0
C1555 C 0.38604 0.80951 0.9947 0.0
C1556 C 0.36784 0.79478 0.99437 0.0
H1557 H 0.43479 0.81504 0.76132 0.0
H1558 H 0.41824 0.80496 0.8238 0.0
C1559 C 0.36202 0.78246 0.02748 0.0
C1560 C 0.39482 0.81896 0.95774 0.0
H1561 H 0.38088 0.84996 0.87832 0.0
C1562 C 0.41549 0.81209 0.9451 0.0
C1563 C 0.38238 0.83314 0.93371 0.0
C1564 C 0.36043 0.84159 0.94638 0.0
C1565 C 0.42376 0.81847 0.90864 0.0
C1566 C 0.41091 0.83192 0.88392 0.0
C1567 C 0.39058 0.83943 0.89707 0.0
C1568 C 0.41846 0.83832 0.8444 0.0
C1569 C 0.44619 0.81069 0.89691 0.0
C1570 C 0.42302 0.86052 0.83443 0.0
C1571 C 0.43234 0.86632 0.79859 0.0
C1572 C 0.43714 0.85 0.77207 0.0
C1573 C 0.43134 0.82794 0.78123 0.0
C1574 C 0.42205 0.82215 0.81703 0.0
H1575 H 0.45623 0.80569 0.92227 0.0
H1576 H 0.44408 0.79616 0.87839 0.0
H1577 H 0.45546 0.82375 0.88029 0.0
H1578 H 0.42024 0.87328 0.85499 0.0
H1579 H 0.4367 0.88345 0.79237 0.0
H1580 H 0.44576 0.17523 0.29072 0.0
H1581 H 0.42598 0.17762 0.22951 0.0
H1582 H 0.40544 0.10924 0.24271 0.0
H1583 H 0.42612 0.1066 0.30311 0.0
H1584 H 0.42283 0.1159 0.17553 0.0
H1585 H 0.36362 0.18202 0.19593 0.0
H1586 H 0.39087 0.19167 0.20797 0.0
H1587 H 0.37807 0.16938 0.23584 0.0
C1588 C 0.43656 0.1609 0.28096 0.0
C1589 C 0.43747 0.14075 0.30145 0.0
C1590 C 0.42512 0.16229 0.24608 0.0
C1591 C 0.41394 0.14367 0.23161 0.0
C1592 C 0.41389 0.12383 0.25327 0.0
H1593 H 0.35175 0.17236 1.00931 0.0
H1594 H 0.35512 0.15558 0.07382 0.0
C1595 C 0.42562 0.12235 0.28783 0.0
C1596 C 0.40466 0.14428 0.19204 0.0
H1597 H 0.37486 0.17613 0.12989 0.0
C1598 C 0.41193 0.1288 0.16577 0.0
C1599 C 0.39007 0.16076 0.17925 0.0
C1600 C 0.38003 0.17671 0.20642 0.0
C1601 C 0.40623 0.13026 0.12668 0.0
C1602 C 0.39344 0.14804 0.11327 0.0
C1603 C 0.38492 0.16262 0.13996 0.0
C1604 C 0.39071 0.15338 0.07164 0.0
C1605 C 0.41432 0.11291 0.10016 0.0
C1606 C 0.40947 0.15689 0.04836 0.0
C1607 C 0.40753 0.16613 1.01139 0.0
C1608 C 0.38685 0.17244 0.9973 0.0
C1609 C 0.36789 0.16756 0.01945 0.0
C1610 C 0.36982 0.1581 0.05638 0.0
H1611 H 0.41566 0.09676 0.11565 0.0
H1612 H 0.4032 0.1108 0.07503 0.0
H1613 H 0.43106 0.11779 0.08958 0.0
H1614 H 0.42582 0.15395 0.05967 0.0
H1615 H 0.42245 0.16989 0.99509 0.0
H1616 H 0.90076 0.83005 0.4635 0.0
H1617 H 0.90939 0.84564 0.52638 0.0
H1618 H 0.89455 0.78256 0.58144 0.0
H1619 H 0.88703 0.76675 0.51874 0.0
H1620 H 0.8893 0.85207 0.59183 0.0
H1621 H 0.95474 0.79205 0.62203 0.0
H1622 H 0.94015 0.79276 0.57696 0.0
H1623 H 0.92818 0.77862 0.61828 0.0
C1624 C 0.899 0.8196 0.48908 0.0
C1625 C 0.89328 0.79712 0.48595 0.0
C1626 C 0.90407 0.8285 0.52512 0.0
C1627 C 0.90332 0.8152 0.55894 0.0
C1628 C 0.89611 0.7931 0.55596 0.0
H1629 H 0.91661 0.86348 0.7964 0.0
H1630 H 0.90112 0.85263 0.7341 0.0
C1631 C 0.89151 0.78411 0.51998 0.0
C1632 C 0.91058 0.82424 0.59694 0.0
H1633 H 0.94519 0.8151 0.67339 0.0
C1634 C 0.90158 0.84398 0.60955 0.0
C1635 C 0.92673 0.81388 0.62039 0.0
C1636 C 0.93816 0.79329 0.60855 0.0
C1637 C 0.90819 0.85353 0.64451 0.0
C1638 C 0.92406 0.84297 0.66803 0.0
C1639 C 0.93297 0.82323 0.65556 0.0
C1640 C 0.93263 0.85242 0.70474 0.0
C1641 C 0.89855 0.87515 0.65548 0.0
C1642 C 0.95542 0.85632 0.70916 0.0
C1643 C 0.96424 0.86249 0.7446 0.0
C1644 C 0.95057 0.86493 0.77689 0.0
C1645 C 0.92759 0.86222 0.77205 0.0
C1646 C 0.91872 0.85589 0.73637 0.0
H1647 H 0.8908 0.8837 0.63047 0.0
H1648 H 0.88564 0.87202 0.6777 0.0
H1649 H 0.91143 0.88627 0.66773 0.0
H1650 H 0.96656 0.85384 0.68538 0.0
H1651 H 0.98202 0.86435 0.74714 0.0
H1652 H 0.8705 0.14894 0.52917 0.0
H1653 H 0.87984 0.13112 0.46875 0.0
H1654 H 0.91773 0.18908 0.43267 0.0
H1655 H 0.90817 0.20698 0.49236 0.0
H1656 H 0.89168 0.17307 0.3744 0.0
H1657 H 0.93946 0.10564 0.44283 0.0
H1658 H 0.91149 0.10761 0.45928 0.0
H1659 H 0.9312 0.12942 0.46882 0.0
C1660 C 0.88076 0.15785 0.50824 0.0
C1661 C 0.88861 0.17934 0.5155 0.0
C1662 C 0.8862 0.14762 0.47382 0.0
C1663 C 0.89974 0.15863 0.44624 0.0
C1664 C 0.90728 0.18021 0.45338 0.0
H1665 H 0.98531 0.11869 0.27027 0.0
H1666 H 0.96581 0.12683 0.329 0.0
C1667 C 0.90181 0.19043 0.48759 0.0
C1668 C 0.90635 0.14789 0.40999 0.0
H1669 H 0.93647 0.10582 0.37534 0.0
C1670 C 0.9013 0.15824 0.37456 0.0
C1671 C 0.91904 0.12861 0.41017 0.0
C1672 C 0.92582 0.11721 0.44725 0.0
C1673 C 0.90907 0.15027 0.33951 0.0
C1674 C 0.92194 0.13108 0.33969 0.0
C1675 C 0.92644 0.12038 0.37507 0.0
C1676 C 0.93314 0.12348 0.30429 0.0
C1677 C 0.90427 0.16312 0.30285 0.0
C1678 C 0.92134 0.118 0.27078 0.0
C1679 C 0.93258 0.11338 0.23662 0.0
C1680 C 0.95581 0.11403 0.2355 0.0
C1681 C 0.96743 0.11812 0.26982 0.0
C1682 C 0.95626 0.12279 0.30364 0.0
H1683 H 0.89087 0.15449 0.28694 0.0
H1684 H 0.89879 0.18005 0.30862 0.0
H1685 H 0.91903 0.16434 0.284 0.0
H1686 H 0.90347 0.11793 0.2707 0.0
H1687 H 0.9231 0.1104 0.21076 0.0
H1688 H 0.59239 0.17988 0.97819 0.0
H1689 H 0.58207 0.16196 0.03971 0.0
H1690 H 0.59609 0.22257 0.09792 0.0
H1691 H 0.60595 0.24072 0.03659 0.0
H1692 H 0.60385 0.15396 0.10669 0.0
H1693 H 0.53446 0.20895 0.13568 0.0
H1694 H 0.5482 0.20894 0.08969 0.0
H1695 H 0.56036 0.2235 0.12923 0.0
C1696 C 0.59335 0.18945 1.00403 0.0
C1697 C 0.59995 0.21188 1.00203 0.0
C1698 C 0.58742 0.17912 0.03936 0.0
C1699 C 0.58782 0.19091 0.07373 0.0
C1700 C 0.59503 0.21313 0.07195 0.0
H1701 H 0.57593 0.13299 0.30961 0.0
H1702 H 0.59078 0.14754 0.24807 0.0
C1703 C 0.60087 0.22349 0.03666 0.0
C1704 C 0.5806 0.18002 0.11117 0.0
H1705 H 0.54425 0.18405 0.18596 0.0
C1706 C 0.5908 0.16056 0.12398 0.0
C1707 C 0.5634 0.18837 0.13388 0.0
C1708 C 0.55081 0.20846 0.12131 0.0
C1709 C 0.58444 0.14942 0.15858 0.0
C1710 C 0.56754 0.15802 0.18159 0.0
C1711 C 0.55731 0.17743 0.16871 0.0
C1712 C 0.55939 0.14681 0.21816 0.0
C1713 C 0.5955 0.12821 0.16966 0.0
C1714 C 0.53688 0.14114 0.22216 0.0
C1715 C 0.5284 0.13279 0.25722 0.0
C1716 C 0.54212 0.12994 0.2897 0.0
C1717 C 0.5649 0.13453 0.28522 0.0
C1718 C 0.57341 0.14301 0.24993 0.0
H1719 H 0.60389 0.12096 0.14473 0.0
H1720 H 0.60815 0.13154 0.19202 0.0
H1721 H 0.58336 0.11589 0.1817 0.0
H1722 H 0.52564 0.14376 0.19831 0.0
H1723 H 0.51078 0.12954 0.25927 0.0
H1724 H 0.57921 0.87723 0.7309 0.0
H1725 H 0.60259 0.86955 0.78718 0.0
H1726 H 0.54448 0.85354 0.85485 0.0
H1727 H 0.52126 0.8622 0.80008 0.0
H1728 H 0.57276 0.87364 0.89784 0.0
H1729 H 0.61718 0.8087 0.82178 0.0
H1730 H 0.62065 0.83582 0.80065 0.0
H1731 H 0.59384 0.82236 0.80084 0.0
C1732 C 0.57142 0.87254 0.758 0.0
C1733 C 0.54828 0.87021 0.76061 0.0
C1734 C 0.58484 0.86783 0.79011 0.0
C1735 C 0.57542 0.86028 0.82523 0.0
C1736 C 0.55231 0.85917 0.82825 0.0
H1737 H 0.61704 0.76952 0.99743 0.0
H1738 H 0.60684 0.79015 0.93981 0.0
C1739 C 0.53897 0.86415 0.79659 0.0
C1740 C 0.5891 0.85255 0.85864 0.0
H1741 H 0.62621 0.81368 0.8866 0.0
C1742 C 0.5846 0.86065 0.89531 0.0
C1743 C 0.60445 0.83541 0.85561 0.0
C1744 C 0.60922 0.82489 0.81772 0.0
C1745 C 0.59407 0.8515 0.92892 0.0
C1746 C 0.60934 0.8343 0.92591 0.0
C1747 C 0.61465 0.82692 0.88908 0.0
C1748 C 0.6179 0.82192 0.96045 0.0
C1749 C 0.58642 0.85946 0.96737 0.0
C1750 C 0.62832 0.83261 0.99134 0.0
C1751 C 0.6339 0.82077 0.02513 0.0
C1752 C 0.62969 0.79788 0.02834 0.0
C1753 C 0.62064 0.78709 0.99631 0.0
C1754 C 0.61473 0.79894 0.96306 0.0
H1755 H 0.57084 0.86866 0.96484 0.0
H1756 H 0.5837 0.84546 0.98811 0.0
H1757 H 0.59922 0.87076 0.97931 0.0
H1758 H 0.63166 0.85021 0.98977 0.0
H1759 H 0.64093 0.82963 0.04905 0.0
H1760 H 0.54833 0.68013 0.73269 0.0
H1761 H 0.56667 0.68705 0.79402 0.0
H1762 H 0.58623 0.61922 0.80144 0.0
H1763 H 0.56703 0.61204 0.74079 0.0
H1764 H 0.56957 0.62989 0.86648 0.0
H1765 H 0.62905 0.69635 0.82425 0.0
H1766 H 0.60164 0.70389 0.81094 0.0
H1767 H 0.61402 0.68054 0.78914 0.0
C1768 C 0.55687 0.66681 0.74711 0.0
C1769 C 0.55632 0.64558 0.73203 0.0
C1770 C 0.56748 0.6708 0.78208 0.0
C1771 C 0.57817 0.65376 0.80223 0.0
C1772 C 0.57818 0.63266 0.78647 0.0
H1773 H 0.65099 0.69264 1.00838 0.0
H1774 H 0.64232 0.67617 0.94638 0.0
C1775 C 0.5673 0.62859 0.75174 0.0
C1776 C 0.58773 0.65756 0.84104 0.0
H1777 H 0.61977 0.69363 0.89176 0.0
C1778 C 0.58085 0.64363 0.87188 0.0
C1779 C 0.60279 0.6752 0.84822 0.0
C1780 C 0.61248 0.68966 0.81625 0.0
C1781 C 0.58782 0.64739 0.90975 0.0
C1782 C 0.60145 0.66608 0.91731 0.0
C1783 C 0.60909 0.67945 0.88625 0.0
C1784 C 0.60716 0.67281 0.95708 0.0
C1785 C 0.58055 0.63118 0.9411 0.0
C1786 C 0.59043 0.67589 0.98428 0.0
C1787 C 0.59548 0.68472 0.02007 0.0
C1788 C 0.61724 0.69128 0.02891 0.0
C1789 C 0.63409 0.6876 1.00233 0.0
C1790 C 0.62911 0.67833 0.96681 0.0
H1791 H 0.57782 0.61442 0.92955 0.0
H1792 H 0.59288 0.63019 0.96469 0.0
H1793 H 0.56462 0.6364 0.9532 0.0
H1794 H 0.57329 0.67246 0.97726 0.0
H1795 H 0.58217 0.68762 0.03991 0.0
H1796 H 0.56396 0.3853 0.26327 0.0
H1797 H 0.58535 0.37991 0.20494 0.0
H1798 H 0.595 0.31205 0.23938 0.0
H1799 H 0.5728 0.31717 0.29733 0.0
H1800 H 0.62676 0.3661 0.18496 0.0
H1801 H 0.56115 0.30627 0.1399 0.0
H1802 H 0.55829 0.32285 0.18179 0.0
H1803 H 0.57525 0.29893 0.1836 0.0
C1804 C 0.57091 0.36931 0.2587 0.0
C1805 C 0.56649 0.35155 0.28444 0.0
C1806 C 0.58323 0.36629 0.22544 0.0
C1807 C 0.59142 0.34549 0.21745 0.0
C1808 C 0.58844 0.32813 0.24463 0.0
H1809 H 0.65734 0.30801 1.00708 0.0
H1810 H 0.65365 0.32199 0.07234 0.0
C1811 C 0.57586 0.33108 0.27776 0.0
C1812 C 0.60069 0.34161 0.17884 0.0
H1813 H 0.59009 0.31374 0.09662 0.0
C1814 C 0.61889 0.35453 0.16567 0.0
C1815 C 0.59018 0.32672 0.15357 0.0
C1816 C 0.57001 0.31304 0.16518 0.0
C1817 C 0.62665 0.35311 0.12768 0.0
C1818 C 0.61593 0.33839 0.10258 0.0
C1819 C 0.59815 0.32513 0.11604 0.0
C1820 C 0.62196 0.33665 0.06159 0.0
C1821 C 0.64567 0.36777 0.11414 0.0
C1822 C 0.60596 0.34131 0.03356 0.0
C1823 C 0.60795 0.33319 0.99665 0.0
C1824 C 0.62606 0.32049 0.98715 0.0
C1825 C 0.64341 0.31811 1.01365 0.0
C1826 C 0.64127 0.32601 0.05096 0.0
H1827 H 0.65035 0.3803 0.13562 0.0
H1828 H 0.66021 0.35754 0.10872 0.0
H1829 H 0.64138 0.37631 0.08661 0.0
H1830 H 0.59093 0.34944 0.04126 0.0
H1831 H 0.59436 0.33509 0.97669 0.0
H1832 H 0.94174 0.31934 0.27612 0.0
H1833 H 0.92589 0.30803 0.33862 0.0
H1834 H 0.93319 0.37476 0.37725 0.0
H1835 H 0.94912 0.38614 0.3148 0.0
H1836 H 0.94821 0.31281 0.41102 0.0
H1837 H 0.86857 0.35645 0.40634 0.0
H1838 H 0.88425 0.35114 0.36353 0.0
H1839 H 0.89289 0.37285 0.39469 0.0
C1840 C 0.93959 0.33167 0.2977 0.0
C1841 C 0.94653 0.35364 0.29054 0.0
C1842 C 0.93064 0.32517 0.33344 0.0
C1843 C 0.92821 0.34058 0.36253 0.0
C1844 C 0.93461 0.36266 0.35507 0.0
H1845 H 0.9091 0.2996 0.60527 0.0
H1846 H 0.92062 0.32185 0.54832 0.0
C1847 C 0.94371 0.36914 0.3194 0.0
C1848 C 0.92013 0.33324 0.40124 0.0
H1849 H 0.87728 0.33745 0.46436 0.0
C1850 C 0.93277 0.3183 0.42282 0.0
C1851 C 0.89996 0.34039 0.41649 0.0
C1852 C 0.88547 0.35597 0.39408 0.0
C1853 C 0.9257 0.31014 0.45906 0.0
C1854 C 0.9055 0.31725 0.4743 0.0
C1855 C 0.89291 0.3323 0.45286 0.0
C1856 C 0.89621 0.30733 0.51046 0.0
C1857 C 0.93951 0.29336 0.48023 0.0
C1858 C 0.87797 0.29273 0.50848 0.0
C1859 C 0.8714 0.28012 0.54081 0.0
C1860 C 0.88272 0.2821 0.57592 0.0
C1861 C 0.89982 0.29805 0.57878 0.0
C1862 C 0.90658 0.31054 0.54616 0.0
H1863 H 0.95302 0.28726 0.46204 0.0
H1864 H 0.94703 0.30095 0.50599 0.0
H1865 H 0.92905 0.27906 0.49022 0.0
H1866 H 0.86972 0.29002 0.48127 0.0
H1867 H 0.85829 0.2678 0.53774 0.0
H1868 H 0.93685 0.66835 0.79779 0.0
H1869 H 0.92201 0.67458 0.73287 0.0
H1870 H 0.93367 0.60689 0.70627 0.0
H1871 H 0.94805 0.60042 0.77132 0.0
H1872 H 0.95573 0.64094 0.65743 0.0
H1873 H 0.86565 0.6527 0.67204 0.0
H1874 H 0.88265 0.6668 0.70654 0.0
H1875 H 0.88155 0.63721 0.70696 0.0
C1876 C 0.93553 0.65463 0.77852 0.0
C1877 C 0.94361 0.63394 0.78952 0.0
C1878 C 0.9271 0.6582 0.74147 0.0
C1879 C 0.92684 0.6412 0.71482 0.0
C1880 C 0.9337 0.62019 0.72649 0.0
H1881 H 0.92225 0.66941 0.46234 0.0
H1882 H 0.92716 0.64835 0.52308 0.0
C1883 C 0.9418 0.61651 0.76371 0.0
C1884 C 0.92211 0.6462 0.67377 0.0
H1885 H 0.88225 0.66533 0.61343 0.0
C1886 C 0.93965 0.64612 0.64748 0.0
C1887 C 0.90108 0.65263 0.66109 0.0
C1888 C 0.88155 0.6522 0.68797 0.0
C1889 C 0.93715 0.65383 0.60929 0.0
C1890 C 0.91626 0.6614 0.59685 0.0
C1891 C 0.89838 0.65999 0.62282 0.0
C1892 C 0.9128 0.67299 0.55897 0.0
C1893 C 0.95725 0.65444 0.58363 0.0
C1894 C 0.90221 0.69333 0.55832 0.0
C1895 C 0.89848 0.70467 0.52372 0.0
C1896 C 0.90582 0.69636 0.48885 0.0
C1897 C 0.91659 0.67617 0.48902 0.0
C1898 C 0.91958 0.66428 0.52378 0.0
H1899 H 0.97281 0.65455 0.60061 0.0
H1900 H 0.95701 0.63945 0.566 0.0
H1901 H 0.95764 0.66903 0.56397 0.0
H1902 H 0.89695 0.70065 0.58478 0.0
H1903 H 0.89034 0.72035 0.52441 0.0
H1904 H 0.48832 0.36055 0.24729 0.0
H1905 H 0.47019 0.34779 0.18912 0.0
H1906 H 0.40752 0.3455 0.2478 0.0
H1907 H 0.42565 0.35848 0.30656 0.0
H1908 H 0.44907 0.30766 0.1838 0.0
H1909 H 0.39156 0.37421 0.1436 0.0
H1910 H 0.41418 0.37827 0.17678 0.0
H1911 H 0.38937 0.36395 0.19245 0.0
C1912 C 0.47058 0.35791 0.24778 0.0
C1913 C 0.4585 0.36067 0.28187 0.0
C1914 C 0.46022 0.35046 0.21435 0.0
C1915 C 0.43743 0.34567 0.21377 0.0
C1916 C 0.42506 0.34939 0.24715 0.0
H1917 H 0.3819 0.25529 0.04231 0.0
H1918 H 0.39188 0.27302 0.10253 0.0
C1919 C 0.43546 0.35691 0.28081 0.0
C1920 C 0.42732 0.33508 0.17924 0.0
H1921 H 0.38914 0.34169 0.10734 0.0
C1922 C 0.4359 0.31509 0.16721 0.0
C1923 C 0.41026 0.34479 0.15724 0.0
C1924 C 0.40086 0.36658 0.16784 0.0
C1925 C 0.4281 0.30468 0.13393 0.0
C1926 C 0.41084 0.3142 0.11202 0.0
C1927 C 0.4022 0.3342 0.1241 0.0
C1928 C 0.40233 0.3041 0.07572 0.0
C1929 C 0.43912 0.28399 0.12173 0.0
C1930 C 0.40365 0.31591 0.04045 0.0
C1931 C 0.39759 0.30589 1.00585 0.0
C1932 C 0.38999 0.28375 1.00557 0.0
C1933 C 0.38767 0.27232 0.04118 0.0
C1934 C 0.39363 0.2824 0.07575 0.0
H1935 H 0.45543 0.28191 0.13585 0.0
H1936 H 0.4285 0.26944 0.12972 0.0
H1937 H 0.44152 0.28429 0.09017 0.0
H1938 H 0.41022 0.33268 0.03945 0.0
H1939 H 0.39982 0.31526 0.97916 0.0
H1940 H 0.40661 0.7093 0.98305 0.0
H1941 H 0.41647 0.69185 0.92318 0.0
H1942 H 0.37436 0.63574 0.95335 0.0
H1943 H 0.36474 0.65308 1.01413 0.0
H1944 H 0.41416 0.62321 0.92627 0.0
H1945 H 0.38036 0.68609 0.82628 0.0
H1946 H 0.39934 0.69802 0.85995 0.0
H1947 H 0.37393 0.68519 0.87699 0.0
C1948 C 0.39928 0.69331 0.97685 0.0
C1949 C 0.38474 0.68263 1.00316 0.0
C1950 C 0.40484 0.6834 0.94242 0.0
C1951 C 0.39579 0.66267 0.93317 0.0
C1952 C 0.3814 0.65184 0.95961 0.0
H1953 H 0.42038 0.61621 0.69905 0.0
H1954 H 0.40077 0.62382 0.75889 0.0
C1955 C 0.37588 0.66175 0.99429 0.0
C1956 C 0.40216 0.6521 0.89662 0.0
H1957 H 0.40666 0.66171 0.79955 0.0
C1958 C 0.41221 0.63149 0.89851 0.0
C1959 C 0.39936 0.66266 0.86017 0.0
C1960 C 0.38745 0.6841 0.85562 0.0
C1961 C 0.42048 0.62173 0.86534 0.0
C1962 C 0.41898 0.63299 0.8293 0.0
C1963 C 0.40797 0.65308 0.82713 0.0
C1964 C 0.43022 0.62524 0.79415 0.0
C1965 C 0.43096 0.59951 0.86934 0.0
C1966 C 0.45322 0.62308 0.79409 0.0
C1967 C 0.46439 0.61863 0.76013 0.0
C1968 C 0.4529 0.61637 0.72516 0.0
C1969 C 0.42973 0.61749 0.72551 0.0
C1970 C 0.41852 0.62206 0.75966 0.0
H1971 H 0.42436 0.59003 0.89473 0.0
H1972 H 0.42819 0.58962 0.84324 0.0
H1973 H 0.44902 0.60189 0.87351 0.0
H1974 H 0.46273 0.62592 0.81997 0.0
H1975 H 0.48224 0.61803 0.761 0.0
H1976 H 0.12497 0.66705 0.47878 0.0
H1977 H 0.11847 0.64738 0.54048 0.0
H1978 H 0.09024 0.7057 0.58637 0.0
H1979 H 0.09761 0.72557 0.52624 0.0
H1980 H 0.11357 0.68705 0.63956 0.0
H1981 H 0.06036 0.62204 0.57522 0.0
H1982 H 0.08803 0.62311 0.55682 0.0
H1983 H 0.07016 0.64596 0.548 0.0
C1984 C 0.11775 0.67578 0.50225 0.0
C1985 C 0.11184 0.69795 0.4972 0.0
C1986 C 0.11373 0.6644 0.53746 0.0
C1987 C 0.10332 0.6748 0.56811 0.0
C1988 C 0.09823 0.69714 0.56343 0.0
H1989 H 0.02115 0.62395 0.75078 0.0
H1990 H 0.039 0.63452 0.69044 0.0
C1991 C 0.10252 0.70856 0.52872 0.0
C1992 C 0.09718 0.66272 0.60492 0.0
H1993 H 0.0664 0.61915 0.64205 0.0
C1994 C 0.10336 0.67211 0.64005 0.0
C1995 C 0.08357 0.64336 0.60586 0.0
C1996 C 0.07493 0.63311 0.56952 0.0
C1997 C 0.09587 0.66323 0.67568 0.0
C1998 C 0.08249 0.64369 0.67668 0.0
C1999 C 0.07684 0.63393 0.64159 0.0
C2000 C 0.07227 0.63451 0.71322 0.0
C2001 C 0.10136 0.67571 0.71162 0.0
C2002 C 0.08491 0.62987 0.74637 0.0
C2003 C 0.07461 0.62408 0.7816 0.0
C2004 C 0.05143 0.62232 0.78426 0.0
C2005 C 0.03901 0.62517 0.75024 0.0
C2006 C 0.04926 0.63129 0.7154 0.0
H2007 H 0.10663 0.69304 0.70489 0.0
H2008 H 0.08696 0.6759 0.73131 0.0
H2009 H 0.11517 0.66763 0.72693 0.0
H2010 H 0.10274 0.6314 0.74538 0.0
H2011 H 0.08477 0.62192 0.807 0.0
H2012 H 0.08279 0.38266 0.24503 0.0
H2013 H 0.10516 0.37444 0.30238 0.0
H2014 H 0.04615 0.35454 0.36471 0.0
H2015 H 0.02388 0.36355 0.3089 0.0
H2016 H 0.07271 0.3756 0.41064 0.0
H2017 H 0.1212 0.31338 0.3351 0.0
H2018 H 0.12394 0.34088 0.31525 0.0
H2019 H 0.09772 0.32637 0.31326 0.0
C2020 C 0.07458 0.37692 0.27118 0.0
C2021 C 0.05148 0.37367 0.27201 0.0
C2022 C 0.08742 0.37195 0.30389 0.0
C2023 C 0.07747 0.36329 0.33781 0.0
C2024 C 0.05436 0.36108 0.33906 0.0
H2025 H 0.11743 0.27191 0.50989 0.0
H2026 H 0.10777 0.29291 0.45236 0.0
C2027 C 0.04158 0.36626 0.3068 0.0
C2028 C 0.09065 0.35558 0.37182 0.0
H2029 H 0.12833 0.31753 0.40084 0.0
C2030 C 0.08505 0.36305 0.40844 0.0
C2031 C 0.10663 0.33902 0.36917 0.0
C2032 C 0.11264 0.32926 0.33119 0.0
C2033 C 0.09409 0.35381 0.44233 0.0
C2034 C 0.10995 0.33713 0.4397 0.0
C2035 C 0.11631 0.33039 0.403 0.0
C2036 C 0.11808 0.3246 0.47433 0.0
C2037 C 0.08542 0.36106 0.48057 0.0
C2038 C 0.12783 0.33516 0.50598 0.0
C2039 C 0.13315 0.32309 0.53966 0.0
C2040 C 0.12925 0.30014 0.54206 0.0
C2041 C 0.12075 0.28953 0.50941 0.0
C2042 C 0.11518 0.30158 0.47621 0.0
H2043 H 0.06971 0.36999 0.4774 0.0
H2044 H 0.08254 0.34672 0.50054 0.0
H2045 H 0.09772 0.37239 0.49384 0.0
H2046 H 0.13089 0.35281 0.50501 0.0
H2047 H 0.13974 0.33181 0.56409 0.0
loop_
_geom_bond_atom_site_label_1
_geom_bond_atom_site_label_2
_geom_bond_distance
_geom_bond_site_symmetry_2
_ccdc_geom_bond_type
Dy0 O4 2.398 . S
Dy0 O5 2.491 . S
Dy0 O6 2.403 . S
Dy0 O7 2.689 . S
Dy0 O11 2.339 . S
Dy0 O15 2.310 . S
Dy0 O16 2.351 . S
C1 O12 1.185 1_556 S
C1 O13 1.355 1_556 S
C2 O4 1.185 . S
C2 O5 1.355 . S
Dy3 O7 2.286 1_655 S
Dy3 O10 2.351 . S
Dy3 O12 2.398 . S
Dy3 O13 2.491 . S
Dy3 O14 2.403 . S
Dy3 O15 2.664 1_655 S
Dy3 O17 2.326 1_655 S
O4 Dy0 2.398 . S
O4 C2 1.185 . S
O5 Dy0 2.491 . S
O5 C2 1.355 . S
O6 Dy0 2.403 . S
O6 C8 1.254 . S
O7 Dy0 2.689 . S
O7 Dy3 2.286 1_455 S
O7 C8 1.283 . S
C8 O6 1.254 . S
C8 O7 1.283 . S
C9 O14 1.254 . S
C9 O15 1.268 1_655 S
O10 Dy3 2.351 . S
O10 C18 1.249 . S
O11 Dy0 2.339 . S
O11 C18 1.252 1_455 S
O12 C1 1.185 1_554 S
O12 Dy3 2.398 . S
O13 C1 1.355 1_554 S
O13 Dy3 2.491 . S
O14 Dy3 2.403 . S
O14 C9 1.254 . S
O15 Dy0 2.310 . S
O15 Dy3 2.664 1_455 S
O15 C9 1.268 1_455 S
O16 Dy0 2.351 . S
O16 C19 1.249 . S
O17 Dy3 2.326 1_455 S
O17 C19 1.267 . S
C18 O10 1.249 . S
C18 O11 1.252 1_655 S
C19 O16 1.249 . S
C19 O17 1.267 . S
Dy20 O24 2.398 . S
Dy20 O25 2.491 . S
Dy20 O26 2.403 . S
Dy20 O27 2.664 . S
Dy20 O31 2.326 . S
Dy20 O35 2.310 . S
Dy20 O36 2.351 . S
C21 O32 1.185 . S
C21 O33 1.355 . S
C22 O24 1.185 . S
C22 O25 1.355 . S
Dy23 O27 2.310 . S
Dy23 O30 2.351 . S
Dy23 O32 2.398 . S
Dy23 O33 2.491 . S
Dy23 O34 2.403 . S
Dy23 O35 2.664 . S
Dy23 O37 2.326 . S
O24 Dy20 2.398 . S
O24 C22 1.185 . S
O25 Dy20 2.491 . S
O25 C22 1.355 . S
O26 Dy20 2.403 . S
O26 C28 1.254 . S
O27 Dy20 2.664 . S
O27 Dy23 2.310 . S
O27 C28 1.268 . S
C28 O26 1.254 . S
C28 O27 1.268 . S
C29 O34 1.254 . S
C29 O35 1.268 . S
O30 Dy23 2.351 . S
O30 C38 1.249 . S
O31 Dy20 2.326 . S
O31 C38 1.267 . S
O32 C21 1.185 . S
O32 Dy23 2.398 . S
O33 C21 1.355 . S
O33 Dy23 2.491 . S
O34 Dy23 2.403 . S
O34 C29 1.254 . S
O35 Dy20 2.310 . S
O35 Dy23 2.664 . S
O35 C29 1.268 . S
O36 Dy20 2.351 . S
O36 C39 1.249 . S
O37 Dy23 2.326 . S
O37 C39 1.267 . S
C38 O30 1.249 . S
C38 O31 1.267 . S
C39 O36 1.249 . S
C39 O37 1.267 . S
Dy40 O44 2.398 . S
Dy40 O45 2.491 . S
Dy40 O46 2.403 . S
Dy40 O47 2.664 . S
Dy40 O51 2.326 . S
Dy40 O55 2.310 . S
Dy40 O56 2.351 . S
C41 O52 1.185 . S
C41 O53 1.355 . S
C42 O44 1.185 . S
C42 O45 1.355 . S
Dy43 O47 2.310 . S
Dy43 O50 2.351 . S
Dy43 O52 2.398 . S
Dy43 O53 2.491 . S
Dy43 O54 2.403 . S
Dy43 O55 2.664 . S
Dy43 O57 2.326 . S
O44 Dy40 2.398 . S
O44 C42 1.185 . S
O45 Dy40 2.491 . S
O45 C42 1.355 . S
O46 Dy40 2.403 . S
O46 C48 1.254 . S
O47 Dy40 2.664 . S
O47 Dy43 2.310 . S
O47 C48 1.268 . S
C48 O46 1.254 . S
C48 O47 1.268 . S
C49 O54 1.254 . S
C49 O55 1.268 . S
O50 Dy43 2.351 . S
O50 C58 1.249 . S
O51 Dy40 2.326 . S
O51 C58 1.267 . S
O52 C41 1.185 . S
O52 Dy43 2.398 . S
O53 C41 1.355 . S
O53 Dy43 2.491 . S
O54 Dy43 2.403 . S
O54 C49 1.254 . S
O55 Dy40 2.310 . S
O55 Dy43 2.664 . S
O55 C49 1.268 . S
O56 Dy40 2.351 . S
O56 C59 1.249 . S
O57 Dy43 2.326 . S
O57 C59 1.267 . S
C58 O50 1.249 . S
C58 O51 1.267 . S
C59 O56 1.249 . S
C59 O57 1.267 . S
Dy60 O64 2.398 . S
Dy60 O65 2.491 . S
Dy60 O66 2.403 . S
Dy60 O67 2.664 . S
Dy60 O71 2.326 . S
Dy60 O75 2.310 . S
Dy60 O76 2.351 . S
C61 O72 1.185 . S
C61 O73 1.355 . S
C62 O64 1.185 . S
C62 O65 1.355 . S
Dy63 O67 2.310 . S
Dy63 O70 2.351 . S
Dy63 O72 2.398 . S
Dy63 O73 2.491 . S
Dy63 O74 2.403 . S
Dy63 O75 2.664 . S
Dy63 O77 2.326 . S
O64 Dy60 2.398 . S
O64 C62 1.185 . S
O65 Dy60 2.491 . S
O65 C62 1.355 . S
O66 Dy60 2.403 . S
O66 C68 1.254 . S
O67 Dy60 2.664 . S
O67 Dy63 2.310 . S
O67 C68 1.268 . S
C68 O66 1.254 . S
C68 O67 1.268 . S
C69 O74 1.254 . S
C69 O75 1.268 . S
O70 Dy63 2.351 . S
O70 C78 1.249 . S
O71 Dy60 2.326 . S
O71 C78 1.267 . S
O72 C61 1.185 . S
O72 Dy63 2.398 . S
O73 C61 1.355 . S
O73 Dy63 2.491 . S
O74 Dy63 2.403 . S
O74 C69 1.254 . S
O75 Dy60 2.310 . S
O75 Dy63 2.664 . S
O75 C69 1.268 . S
O76 Dy60 2.351 . S
O76 C79 1.249 . S
O77 Dy63 2.326 . S
O77 C79 1.267 . S
C78 O70 1.249 . S
C78 O71 1.267 . S
C79 O76 1.249 . S
C79 O77 1.267 . S
Dy80 O84 2.398 . S
Dy80 O85 2.491 . S
Dy80 O86 2.403 . S
Dy80 O87 2.664 . S
Dy80 O91 2.326 . S
Dy80 O95 2.310 . S
Dy80 O96 2.351 . S
C81 O92 1.185 . S
C81 O93 1.355 . S
C82 O84 1.185 . S
C82 O85 1.355 . S
Dy83 O87 2.310 1_655 S
Dy83 O90 2.351 . S
Dy83 O92 2.398 . S
Dy83 O93 2.491 . S
Dy83 O94 2.403 . S
Dy83 O95 2.664 1_655 S
Dy83 O97 2.326 1_655 S
O84 Dy80 2.398 . S
O84 C82 1.185 . S
O85 Dy80 2.491 . S
O85 C82 1.355 . S
O86 Dy80 2.403 . S
O86 C88 1.254 . S
O87 Dy80 2.664 . S
O87 Dy83 2.310 1_455 S
O87 C88 1.268 . S
C88 O86 1.254 . S
C88 O87 1.268 . S
C89 O94 1.286 . S
C89 O95 1.253 1_655 S
O90 Dy83 2.351 . S
O90 C98 1.249 . S
O91 Dy80 2.326 . S
O91 C98 1.267 1_455 S
O92 C81 1.185 . S
O92 Dy83 2.398 . S
O93 C81 1.355 . S
O93 Dy83 2.491 . S
O94 Dy83 2.403 . S
O94 C89 1.286 . S
O95 Dy80 2.310 . S
O95 Dy83 2.664 1_455 S
O95 C89 1.253 1_455 S
O96 Dy80 2.351 . S
O96 C99 1.249 . S
O97 Dy83 2.326 1_455 S
O97 C99 1.267 . S
C98 O90 1.249 . S
C98 O91 1.267 1_655 S
C99 O96 1.249 . S
C99 O97 1.267 . S
Dy100 O104 2.398 . S
Dy100 O105 2.491 . S
Dy100 O106 2.403 . S
Dy100 O107 2.664 . S
Dy100 O111 2.326 . S
Dy100 O115 2.310 . S
Dy100 O116 2.351 . S
C101 O112 1.185 . S
C101 O113 1.355 . S
C102 O104 1.185 . S
C102 O105 1.355 . S
Dy103 O107 2.310 . S
Dy103 O110 2.351 . S
Dy103 O112 2.398 . S
Dy103 O113 2.491 . S
Dy103 O114 2.403 . S
Dy103 O115 2.664 . S
Dy103 O117 2.326 . S
O104 Dy100 2.398 . S
O104 C102 1.185 . S
O105 Dy100 2.491 . S
O105 C102 1.355 . S
O106 Dy100 2.403 . S
O106 C108 1.254 . S
O107 Dy100 2.664 . S
O107 Dy103 2.310 . S
O107 C108 1.268 . S
C108 O106 1.254 . S
C108 O107 1.268 . S
C109 O114 1.254 . S
C109 O115 1.268 . S
O110 Dy103 2.351 . S
O110 C118 1.249 . S
O111 Dy100 2.326 . S
O111 C118 1.267 . S
O112 C101 1.185 . S
O112 Dy103 2.398 . S
O113 C101 1.355 . S
O113 Dy103 2.491 . S
O114 Dy103 2.403 . S
O114 C109 1.254 . S
O115 Dy100 2.310 . S
O115 Dy103 2.664 . S
O115 C109 1.268 . S
O116 Dy100 2.351 . S
O116 C119 1.249 . S
O117 Dy103 2.326 . S
O117 C119 1.267 . S
C118 O110 1.249 . S
C118 O111 1.267 . S
C119 O116 1.249 . S
C119 O117 1.267 . S
Dy120 O124 2.398 . S
Dy120 O125 2.491 . S
Dy120 O126 2.403 . S
Dy120 O127 2.664 . S
Dy120 O131 2.326 . S
Dy120 O135 2.310 . S
Dy120 O136 2.351 . S
C121 O132 1.185 . S
C121 O133 1.355 . S
C122 O124 1.185 . S
C122 O125 1.355 . S
Dy123 O127 2.310 . S
Dy123 O130 2.351 . S
Dy123 O132 2.398 . S
Dy123 O133 2.491 . S
Dy123 O134 2.403 . S
Dy123 O135 2.664 . S
Dy123 O137 2.326 . S
O124 Dy120 2.398 . S
O124 C122 1.185 . S
O125 Dy120 2.491 . S
O125 C122 1.355 . S
O126 Dy120 2.403 . S
O126 C128 1.254 . S
O127 Dy120 2.664 . S
O127 Dy123 2.310 . S
O127 C128 1.268 . S
C128 O126 1.254 . S
C128 O127 1.268 . S
C129 O134 1.254 . S
C129 O135 1.268 . S
O130 Dy123 2.351 . S
O130 C138 1.249 . S
O131 Dy120 2.326 . S
O131 C138 1.267 . S
O132 C121 1.185 . S
O132 Dy123 2.398 . S
O133 C121 1.355 . S
O133 Dy123 2.491 . S
O134 Dy123 2.403 . S
O134 C129 1.254 . S
O135 Dy120 2.310 . S
O135 Dy123 2.664 . S
O135 C129 1.268 . S
O136 Dy120 2.351 . S
O136 C139 1.249 . S
O137 Dy123 2.326 . S
O137 C139 1.267 . S
C138 O130 1.249 . S
C138 O131 1.267 . S
C139 O136 1.249 . S
C139 O137 1.267 . S
Dy140 O144 2.398 . S
Dy140 O145 2.491 . S
Dy140 O146 2.403 . S
Dy140 O147 2.664 . S
Dy140 O151 2.326 . S
Dy140 O155 2.310 . S
Dy140 O156 2.351 . S
C141 O152 1.185 . S
C141 O153 1.355 . S
C142 O144 1.185 . S
C142 O145 1.355 . S
Dy143 O147 2.310 . S
Dy143 O150 2.351 . S
Dy143 O152 2.398 . S
Dy143 O153 2.491 . S
Dy143 O154 2.403 . S
Dy143 O155 2.664 . S
Dy143 O157 2.326 . S
O144 Dy140 2.398 . S
O144 C142 1.185 . S
O145 Dy140 2.491 . S
O145 C142 1.355 . S
O146 Dy140 2.403 . S
O146 C148 1.254 . S
O147 Dy140 2.664 . S
O147 Dy143 2.310 . S
O147 C148 1.268 . S
C148 O146 1.254 . S
C148 O147 1.268 . S
C149 O154 1.254 . S
C149 O155 1.268 . S
O150 Dy143 2.351 . S
O150 C158 1.249 . S
O151 Dy140 2.326 . S
O151 C158 1.267 . S
O152 C141 1.185 . S
O152 Dy143 2.398 . S
O153 C141 1.355 . S
O153 Dy143 2.491 . S
O154 Dy143 2.403 . S
O154 C149 1.254 . S
O155 Dy140 2.310 . S
O155 Dy143 2.664 . S
O155 C149 1.268 . S
O156 Dy140 2.351 . S
O156 C159 1.249 . S
O157 Dy143 2.326 . S
O157 C159 1.267 . S
C158 O150 1.249 . S
C158 O151 1.267 . S
C159 O156 1.249 . S
C159 O157 1.267 . S
Dy160 O164 2.398 . S
Dy160 O165 2.491 . S
Dy160 O166 2.403 . S
Dy160 O167 2.664 . S
Dy160 O171 2.326 . S
Dy160 O175 2.310 . S
Dy160 O176 2.351 . S
C161 O172 1.185 . S
C161 O173 1.355 . S
C162 O164 1.185 . S
C162 O165 1.355 . S
Dy163 O167 2.310 . S
Dy163 O170 2.351 . S
Dy163 O172 2.398 . S
Dy163 O173 2.491 . S
Dy163 O174 2.403 . S
Dy163 O175 2.664 . S
Dy163 O177 2.326 . S
O164 Dy160 2.398 . S
O164 C162 1.185 . S
O165 Dy160 2.491 . S
O165 C162 1.355 . S
O166 Dy160 2.403 . S
O166 C168 1.254 . S
O167 Dy160 2.664 . S
O167 Dy163 2.310 . S
O167 C168 1.268 . S
C168 O166 1.254 . S
C168 O167 1.268 . S
C169 O174 1.254 . S
C169 O175 1.268 . S
O170 Dy163 2.351 . S
O170 C178 1.249 . S
O171 Dy160 2.326 . S
O171 C178 1.267 . S
O172 C161 1.185 . S
O172 Dy163 2.398 . S
O173 C161 1.355 . S
O173 Dy163 2.491 . S
O174 Dy163 2.403 . S
O174 C169 1.254 . S
O175 Dy160 2.310 . S
O175 Dy163 2.664 . S
O175 C169 1.268 . S
O176 Dy160 2.351 . S
O176 C179 1.249 . S
O177 Dy163 2.326 . S
O177 C179 1.267 . S
C178 O170 1.249 . S
C178 O171 1.267 . S
C179 O176 1.249 . S
C179 O177 1.267 . S
Dy180 O184 2.398 . S
Dy180 O185 2.491 . S
Dy180 O186 2.403 . S
Dy180 O187 2.664 . S
Dy180 O191 2.326 . S
Dy180 O195 2.310 . S
Dy180 O196 2.351 . S
C181 O192 1.185 . S
C181 O193 1.355 . S
C182 O184 1.185 . S
C182 O185 1.355 . S
Dy183 O187 2.310 . S
Dy183 O190 2.351 . S
Dy183 O192 2.398 . S
Dy183 O193 2.491 . S
Dy183 O194 2.403 . S
Dy183 O195 2.664 . S
Dy183 O197 2.326 . S
O184 Dy180 2.398 . S
O184 C182 1.185 . S
O185 Dy180 2.491 . S
O185 C182 1.355 . S
O186 Dy180 2.403 . S
O186 C188 1.254 . S
O187 Dy180 2.664 . S
O187 Dy183 2.310 . S
O187 C188 1.268 . S
C188 O186 1.254 . S
C188 O187 1.268 . S
C189 O194 1.254 . S
C189 O195 1.268 . S
O190 Dy183 2.351 . S
O190 C198 1.249 . S
O191 Dy180 2.326 . S
O191 C198 1.267 . S
O192 C181 1.185 . S
O192 Dy183 2.398 . S
O193 C181 1.355 . S
O193 Dy183 2.491 . S
O194 Dy183 2.403 . S
O194 C189 1.254 . S
O195 Dy180 2.310 . S
O195 Dy183 2.664 . S
O195 C189 1.268 . S
O196 Dy180 2.351 . S
O196 C199 1.249 . S
O197 Dy183 2.326 . S
O197 C199 1.267 . S
C198 O190 1.249 . S
C198 O191 1.267 . S
C199 O196 1.249 . S
C199 O197 1.267 . S
Dy200 O204 2.398 . S
Dy200 O205 2.491 . S
Dy200 O206 2.403 . S
Dy200 O207 2.664 . S
Dy200 O211 2.326 . S
Dy200 O215 2.310 . S
Dy200 O216 2.351 . S
C201 O212 1.185 . S
C201 O213 1.355 . S
C202 O204 1.185 . S
C202 O205 1.355 . S
Dy203 O207 2.310 . S
Dy203 O210 2.351 . S
Dy203 O212 2.398 . S
Dy203 O213 2.491 . S
Dy203 O214 2.403 . S
Dy203 O215 2.664 . S
Dy203 O217 2.326 . S
O204 Dy200 2.398 . S
O204 C202 1.185 . S
O205 Dy200 2.491 . S
O205 C202 1.355 . S
O206 Dy200 2.403 . S
O206 C208 1.254 . S
O207 Dy200 2.664 . S
O207 Dy203 2.310 . S
O207 C208 1.268 . S
C208 O206 1.254 . S
C208 O207 1.268 . S
C209 O214 1.254 . S
C209 O215 1.268 . S
O210 Dy203 2.351 . S
O210 C218 1.249 . S
O211 Dy200 2.326 . S
O211 C218 1.267 . S
O212 C201 1.185 . S
O212 Dy203 2.398 . S
O213 C201 1.355 . S
O213 Dy203 2.491 . S
O214 Dy203 2.403 . S
O214 C209 1.254 . S
O215 Dy200 2.310 . S
O215 Dy203 2.664 . S
O215 C209 1.268 . S
O216 Dy200 2.351 . S
O216 C219 1.249 . S
O217 Dy203 2.326 . S
O217 C219 1.267 . S
C218 O210 1.249 . S
C218 O211 1.267 . S
C219 O216 1.249 . S
C219 O217 1.267 . S
Dy220 O224 2.398 . S
Dy220 O225 2.491 . S
Dy220 O226 2.403 . S
Dy220 O227 2.664 . S
Dy220 O231 2.326 . S
Dy220 O235 2.310 . S
Dy220 O236 2.351 . S
C221 O232 1.185 . S
C221 O233 1.355 . S
C222 O224 1.185 . S
C222 O225 1.355 . S
Dy223 O227 2.310 . S
Dy223 O230 2.351 . S
Dy223 O232 2.398 . S
Dy223 O233 2.491 . S
Dy223 O234 2.403 . S
Dy223 O235 2.664 . S
Dy223 O237 2.326 . S
O224 Dy220 2.398 . S
O224 C222 1.185 . S
O225 Dy220 2.491 . S
O225 C222 1.355 . S
O226 Dy220 2.403 . S
O226 C228 1.254 . S
O227 Dy220 2.664 . S
O227 Dy223 2.310 . S
O227 C228 1.268 . S
C228 O226 1.254 . S
C228 O227 1.268 . S
C229 O234 1.254 . S
C229 O235 1.268 . S
O230 Dy223 2.351 . S
O230 C238 1.249 . S
O231 Dy220 2.326 . S
O231 C238 1.267 . S
O232 C221 1.185 . S
O232 Dy223 2.398 . S
O233 C221 1.355 . S
O233 Dy223 2.491 . S
O234 Dy223 2.403 . S
O234 C229 1.254 . S
O235 Dy220 2.310 . S
O235 Dy223 2.664 . S
O235 C229 1.268 . S
O236 Dy220 2.351 . S
O236 C239 1.249 . S
O237 Dy223 2.326 . S
O237 C239 1.267 . S
C238 O230 1.249 . S
C238 O231 1.267 . S
C239 O236 1.249 . S
C239 O237 1.267 . S
Dy240 O244 2.398 . S
Dy240 O245 2.491 . S
Dy240 O246 2.403 . S
Dy240 O247 2.664 . S
Dy240 O251 2.326 . S
Dy240 O255 2.310 . S
Dy240 O256 2.351 . S
C241 O252 1.185 . S
C241 O253 1.355 . S
C242 O244 1.185 . S
C242 O245 1.355 . S
Dy243 O247 2.310 . S
Dy243 O250 2.351 . S
Dy243 O252 2.398 . S
Dy243 O253 2.491 . S
Dy243 O254 2.403 . S
Dy243 O255 2.664 . S
Dy243 O257 2.326 . S
O244 Dy240 2.398 . S
O244 C242 1.185 . S
O245 Dy240 2.491 . S
O245 C242 1.355 . S
O246 Dy240 2.403 . S
O246 C248 1.254 . S
O247 Dy240 2.664 . S
O247 Dy243 2.310 . S
O247 C248 1.268 . S
C248 O246 1.254 . S
C248 O247 1.268 . S
C249 O254 1.254 . S
C249 O255 1.268 . S
O250 Dy243 2.351 . S
O250 C258 1.249 . S
O251 Dy240 2.326 . S
O251 C258 1.267 . S
O252 C241 1.185 . S
O252 Dy243 2.398 . S
O253 C241 1.355 . S
O253 Dy243 2.491 . S
O254 Dy243 2.403 . S
O254 C249 1.254 . S
O255 Dy240 2.310 . S
O255 Dy243 2.664 . S
O255 C249 1.268 . S
O256 Dy240 2.351 . S
O256 C259 1.249 . S
O257 Dy243 2.326 . S
O257 C259 1.267 . S
C258 O250 1.249 . S
C258 O251 1.267 . S
C259 O256 1.249 . S
C259 O257 1.267 . S
Dy260 O264 2.398 . S
Dy260 O265 2.491 . S
Dy260 O266 2.403 . S
Dy260 O267 2.664 1_655 S
Dy260 O271 2.326 1_655 S
Dy260 O275 2.282 1_655 S
Dy260 O276 2.351 . S
C261 O272 1.185 . S
C261 O273 1.355 . S
C262 O264 1.185 . S
C262 O265 1.355 . S
Dy263 O267 2.310 . S
Dy263 O270 2.351 . S
Dy263 O272 2.398 . S
Dy263 O273 2.491 . S
Dy263 O274 2.403 . S
Dy263 O275 2.693 . S
Dy263 O277 2.344 . S
O264 Dy260 2.398 . S
O264 C262 1.185 . S
O265 Dy260 2.491 . S
O265 C262 1.355 . S
O266 Dy260 2.403 . S
O266 C268 1.254 . S
O267 Dy260 2.664 1_455 S
O267 Dy263 2.310 . S
O267 C268 1.268 1_455 S
C268 O266 1.254 . S
C268 O267 1.268 1_655 S
C269 O274 1.254 . S
C269 O275 1.285 . S
O270 Dy263 2.351 . S
O270 C278 1.249 . S
O271 Dy260 2.326 1_455 S
O271 C278 1.267 . S
O272 C261 1.185 . S
O272 Dy263 2.398 . S
O273 C261 1.355 . S
O273 Dy263 2.491 . S
O274 Dy263 2.403 . S
O274 C269 1.254 . S
O275 Dy260 2.282 1_455 S
O275 Dy263 2.693 . S
O275 C269 1.285 . S
O276 Dy260 2.351 . S
O276 C279 1.249 . S
O277 Dy263 2.344 . S
O277 C279 1.247 1_455 S
C278 O270 1.249 . S
C278 O271 1.267 . S
C279 O276 1.249 . S
C279 O277 1.247 1_655 S
Dy280 O284 2.398 . S
Dy280 O285 2.491 . S
Dy280 O286 2.403 . S
Dy280 O287 2.664 . S
Dy280 O291 2.326 . S
Dy280 O295 2.310 . S
Dy280 O296 2.351 . S
C281 O292 1.185 . S
C281 O293 1.355 . S
C282 O284 1.185 . S
C282 O285 1.355 . S
Dy283 O287 2.310 . S
Dy283 O290 2.351 . S
Dy283 O292 2.398 . S
Dy283 O293 2.491 . S
Dy283 O294 2.403 . S
Dy283 O295 2.664 . S
Dy283 O297 2.326 . S
O284 Dy280 2.398 . S
O284 C282 1.185 . S
O285 Dy280 2.491 . S
O285 C282 1.355 . S
O286 Dy280 2.403 . S
O286 C288 1.254 . S
O287 Dy280 2.664 . S
O287 Dy283 2.310 . S
O287 C288 1.268 . S
C288 O286 1.254 . S
C288 O287 1.268 . S
C289 O294 1.254 . S
C289 O295 1.268 . S
O290 Dy283 2.351 . S
O290 C298 1.249 . S
O291 Dy280 2.326 . S
O291 C298 1.267 . S
O292 C281 1.185 . S
O292 Dy283 2.398 . S
O293 C281 1.355 . S
O293 Dy283 2.491 . S
O294 Dy283 2.403 . S
O294 C289 1.254 . S
O295 Dy280 2.310 . S
O295 Dy283 2.664 . S
O295 C289 1.268 . S
O296 Dy280 2.351 . S
O296 C299 1.249 . S
O297 Dy283 2.326 . S
O297 C299 1.267 . S
C298 O290 1.249 . S
C298 O291 1.267 . S
C299 O296 1.249 . S
C299 O297 1.267 . S
Dy300 O304 2.398 . S
Dy300 O305 2.491 . S
Dy300 O306 2.403 . S
Dy300 O307 2.664 1_655 S
Dy300 O311 2.326 1_655 S
Dy300 O315 2.286 1_655 S
Dy300 O316 2.351 . S
C301 O312 1.185 . S
C301 O313 1.355 . S
C302 O304 1.185 . S
C302 O305 1.355 . S
Dy303 O307 2.310 . S
Dy303 O310 2.351 . S
Dy303 O312 2.398 . S
Dy303 O313 2.491 . S
Dy303 O314 2.403 . S
Dy303 O315 2.691 . S
Dy303 O317 2.340 . S
O304 Dy300 2.398 . S
O304 C302 1.185 . S
O305 Dy300 2.491 . S
O305 C302 1.355 . S
O306 Dy300 2.403 . S
O306 C308 1.254 . S
O307 Dy300 2.664 1_455 S
O307 Dy303 2.310 . S
O307 C308 1.268 1_455 S
C308 O306 1.254 . S
C308 O307 1.268 1_655 S
C309 O314 1.254 . S
C309 O315 1.282 . S
O310 Dy303 2.351 . S
O310 C318 1.249 . S
O311 Dy300 2.326 1_455 S
O311 C318 1.267 . S
O312 C301 1.185 . S
O312 Dy303 2.398 . S
O313 C301 1.355 . S
O313 Dy303 2.491 . S
O314 Dy303 2.403 . S
O314 C309 1.254 . S
O315 Dy300 2.286 1_455 S
O315 Dy303 2.691 . S
O315 C309 1.282 . S
O316 Dy300 2.351 . S
O316 C319 1.249 . S
O317 Dy303 2.340 . S
O317 C319 1.252 1_455 S
C318 O310 1.249 . S
C318 O311 1.267 . S
C319 O316 1.249 . S
C319 O317 1.252 1_655 S
H320 C328 0.929 . S
H321 C330 0.930 . S
H322 C332 0.930 . S
H323 C335 0.929 1_554 S
H324 C338 0.930 . S
H325 C340 0.960 . S
H326 C340 0.960 . S
H327 C340 0.960 . S
C328 H320 0.929 . S
C328 C329 1.378 1_556 S
C328 C330 1.384 . S
C329 C328 1.378 1_554 S
C329 C335 1.390 1_554 S
C330 H321 0.930 . S
C330 C328 1.384 . S
C330 C331 1.372 . S
C331 C330 1.372 . S
C331 C332 1.400 . S
C331 C336 1.490 . S
C332 H322 0.930 . S
C332 C331 1.400 . S
C332 C335 1.386 . S
H333 C349 0.930 . S
H334 C350 0.931 . S
C335 H323 0.929 1_556 S
C335 C329 1.390 1_556 S
C335 C332 1.386 . S
C336 C331 1.490 . S
C336 C338 1.395 . S
C336 C339 1.403 . S
H337 C343 0.930 . S
C338 H324 0.930 . S
C338 C336 1.395 . S
C338 C341 1.403 . S
C339 C336 1.403 . S
C339 C340 1.524 . S
C339 C343 1.400 . S
C340 H325 0.960 . S
C340 H326 0.960 . S
C340 H327 0.960 . S
C340 C339 1.524 . S
C341 C338 1.403 . S
C341 C342 1.392 . S
C341 C345 1.495 . S
C342 C341 1.392 . S
C342 C343 1.385 . S
C342 C344 1.478 . S
C343 H337 0.930 . S
C343 C339 1.400 . S
C343 C342 1.385 . S
C344 C342 1.478 . S
C344 C346 1.381 . S
C344 C350 1.383 . S
C345 C341 1.495 . S
C345 H351 0.959 . S
C345 H352 0.961 . S
C345 H353 0.960 . S
C346 C344 1.381 . S
C346 C347 1.394 . S
C346 H354 0.930 . S
C347 C346 1.394 . S
C347 C348 1.383 . S
C347 H355 0.929 . S
C348 C347 1.383 . S
C348 C349 1.377 . S
C349 H333 0.930 . S
C349 C348 1.377 . S
C349 C350 1.379 . S
C350 H334 0.931 . S
C350 C344 1.383 . S
C350 C349 1.379 . S
H351 C345 0.959 . S
H352 C345 0.961 . S
H353 C345 0.960 . S
H354 C346 0.930 . S
H355 C347 0.929 . S
H356 C364 0.929 . S
H357 C366 0.930 . S
H358 C368 0.930 . S
H359 C371 0.929 . S
H360 C374 0.930 . S
H361 C376 0.960 . S
H362 C376 0.960 . S
H363 C376 0.960 . S
C364 H356 0.929 . S
C364 C365 1.377 . S
C364 C366 1.384 . S
C365 C364 1.377 . S
C365 C371 1.390 . S
C366 H357 0.930 . S
C366 C364 1.384 . S
C366 C367 1.372 . S
C367 C366 1.372 . S
C367 C368 1.400 . S
C367 C372 1.490 . S
C368 H358 0.930 . S
C368 C367 1.400 . S
C368 C371 1.386 . S
H369 C385 0.930 . S
H370 C386 0.931 . S
C371 H359 0.929 . S
C371 C365 1.390 . S
C371 C368 1.386 . S
C372 C367 1.490 . S
C372 C374 1.395 . S
C372 C375 1.403 . S
H373 C379 0.930 . S
C374 H360 0.930 . S
C374 C372 1.395 . S
C374 C377 1.403 . S
C375 C372 1.403 . S
C375 C376 1.524 . S
C375 C379 1.400 . S
C376 H361 0.960 . S
C376 H362 0.960 . S
C376 H363 0.960 . S
C376 C375 1.524 . S
C377 C374 1.403 . S
C377 C378 1.392 . S
C377 C381 1.495 . S
C378 C377 1.392 . S
C378 C379 1.385 . S
C378 C380 1.478 . S
C379 H373 0.930 . S
C379 C375 1.400 . S
C379 C378 1.385 . S
C380 C378 1.478 . S
C380 C382 1.381 . S
C380 C386 1.383 . S
C381 C377 1.495 . S
C381 H387 0.959 . S
C381 H388 0.961 . S
C381 H389 0.960 . S
C382 C380 1.381 . S
C382 C383 1.394 1_554 S
C382 H390 0.930 . S
C383 C382 1.394 1_556 S
C383 C384 1.383 . S
C383 H391 0.929 . S
C384 C383 1.383 . S
C384 C385 1.377 1_556 S
C385 H369 0.930 . S
C385 C384 1.377 1_554 S
C385 C386 1.379 . S
C386 H370 0.931 . S
C386 C380 1.383 . S
C386 C385 1.379 . S
H387 C381 0.959 . S
H388 C381 0.961 . S
H389 C381 0.960 . S
H390 C382 0.930 . S
H391 C383 0.929 . S
H392 C400 0.929 . S
H393 C402 0.930 . S
H394 C404 0.930 . S
H395 C407 0.929 . S
H396 C410 0.930 . S
H397 C412 0.960 . S
H398 C412 0.960 . S
H399 C412 0.960 . S
C400 H392 0.929 . S
C400 C401 1.377 . S
C400 C402 1.384 . S
C401 C400 1.377 . S
C401 C407 1.390 . S
C402 H393 0.930 . S
C402 C400 1.384 . S
C402 C403 1.372 . S
C403 C402 1.372 . S
C403 C404 1.400 . S
C403 C408 1.490 . S
C404 H394 0.930 . S
C404 C403 1.400 . S
C404 C407 1.386 . S
H405 C421 0.930 . S
H406 C422 0.931 . S
C407 H395 0.929 . S
C407 C401 1.390 . S
C407 C404 1.386 . S
C408 C403 1.490 . S
C408 C410 1.395 . S
C408 C411 1.403 . S
H409 C415 0.930 . S
C410 H396 0.930 . S
C410 C408 1.395 . S
C410 C413 1.403 . S
C411 C408 1.403 . S
C411 C412 1.524 . S
C411 C415 1.400 . S
C412 H397 0.960 . S
C412 H398 0.960 . S
C412 H399 0.960 . S
C412 C411 1.524 . S
C413 C410 1.403 . S
C413 C414 1.392 . S
C413 C417 1.495 . S
C414 C413 1.392 . S
C414 C415 1.385 . S
C414 C416 1.478 . S
C415 H409 0.930 . S
C415 C411 1.400 . S
C415 C414 1.385 . S
C416 C414 1.478 . S
C416 C418 1.381 . S
C416 C422 1.383 . S
C417 C413 1.495 . S
C417 H423 0.959 . S
C417 H424 0.961 . S
C417 H425 0.960 . S
C418 C416 1.381 . S
C418 C419 1.394 . S
C418 H426 0.930 . S
C419 C418 1.394 . S
C419 C420 1.383 . S
C419 H427 0.929 . S
C420 C419 1.383 . S
C420 C421 1.377 . S
C421 H405 0.930 . S
C421 C420 1.377 . S
C421 C422 1.379 . S
C422 H406 0.931 . S
C422 C416 1.383 . S
C422 C421 1.379 . S
H423 C417 0.959 . S
H424 C417 0.961 . S
H425 C417 0.960 . S
H426 C418 0.930 . S
H427 C419 0.929 . S
H428 C436 0.929 . S
H429 C438 0.930 . S
H430 C440 0.930 . S
H431 C443 0.929 . S
H432 C446 0.930 . S
H433 C448 0.960 . S
H434 C448 0.960 . S
H435 C448 0.960 . S
C436 H428 0.929 . S
C436 C437 1.377 . S
C436 C438 1.384 . S
C437 C436 1.377 . S
C437 C443 1.390 . S
C438 H429 0.930 . S
C438 C436 1.384 . S
C438 C439 1.372 . S
C439 C438 1.372 . S
C439 C440 1.400 . S
C439 C444 1.490 . S
C440 H430 0.930 . S
C440 C439 1.400 . S
C440 C443 1.386 . S
H441 C457 0.930 . S
H442 C458 0.931 . S
C443 H431 0.929 . S
C443 C437 1.390 . S
C443 C440 1.386 . S
C444 C439 1.490 . S
C444 C446 1.395 . S
C444 C447 1.403 . S
H445 C451 0.930 . S
C446 H432 0.930 . S
C446 C444 1.395 . S
C446 C449 1.403 . S
C447 C444 1.403 . S
C447 C448 1.524 . S
C447 C451 1.400 . S
C448 H433 0.960 . S
C448 H434 0.960 . S
C448 H435 0.960 . S
C448 C447 1.524 . S
C449 C446 1.403 . S
C449 C450 1.392 . S
C449 C453 1.495 . S
C450 C449 1.392 . S
C450 C451 1.385 . S
C450 C452 1.478 . S
C451 H445 0.930 . S
C451 C447 1.400 . S
C451 C450 1.385 . S
C452 C450 1.478 . S
C452 C454 1.381 . S
C452 C458 1.383 . S
C453 C449 1.495 . S
C453 H459 0.959 . S
C453 H460 0.961 . S
C453 H461 0.960 . S
C454 C452 1.381 . S
C454 C455 1.394 . S
C454 H462 0.930 . S
C455 C454 1.394 . S
C455 C456 1.383 . S
C455 H463 0.929 . S
C456 C455 1.383 . S
C456 C457 1.377 . S
C457 H441 0.930 . S
C457 C456 1.377 . S
C457 C458 1.379 . S
C458 H442 0.931 . S
C458 C452 1.383 . S
C458 C457 1.379 . S
H459 C453 0.959 . S
H460 C453 0.961 . S
H461 C453 0.960 . S
H462 C454 0.930 . S
H463 C455 0.929 . S
H464 C472 0.929 . S
H465 C474 0.930 . S
H466 C476 0.930 . S
H467 C479 0.929 . S
H468 C482 0.930 . S
H469 C484 0.960 . S
H470 C484 0.960 . S
H471 C484 0.960 . S
C472 H464 0.929 . S
C472 C473 1.377 . S
C472 C474 1.384 . S
C473 C472 1.377 . S
C473 C479 1.390 . S
C474 H465 0.930 . S
C474 C472 1.384 . S
C474 C475 1.372 . S
C475 C474 1.372 . S
C475 C476 1.400 . S
C475 C480 1.490 . S
C476 H466 0.930 . S
C476 C475 1.400 . S
C476 C479 1.386 . S
H477 C493 0.930 1_556 S
H478 C494 0.931 . S
C479 H467 0.929 . S
C479 C473 1.390 . S
C479 C476 1.386 . S
C480 C475 1.490 . S
C480 C482 1.395 . S
C480 C483 1.403 . S
H481 C487 0.930 . S
C482 H468 0.930 . S
C482 C480 1.395 . S
C482 C485 1.403 . S
C483 C480 1.403 . S
C483 C484 1.524 . S
C483 C487 1.400 . S
C484 H469 0.960 . S
C484 H470 0.960 . S
C484 H471 0.960 . S
C484 C483 1.524 . S
C485 C482 1.403 . S
C485 C486 1.392 . S
C485 C489 1.495 . S
C486 C485 1.392 . S
C486 C487 1.385 . S
C486 C488 1.478 . S
C487 H481 0.930 . S
C487 C483 1.400 . S
C487 C486 1.385 . S
C488 C486 1.478 . S
C488 C490 1.381 . S
C488 C494 1.383 . S
C489 C485 1.495 . S
C489 H495 0.959 . S
C489 H496 0.961 . S
C489 H497 0.960 . S
C490 C488 1.381 . S
C490 C491 1.394 . S
C490 H498 0.930 . S
C491 C490 1.394 . S
C491 C492 1.383 1_554 S
C491 H499 0.921 1_554 S
C492 C491 1.383 1_556 S
C492 C493 1.377 1_556 S
C493 H477 0.930 1_554 S
C493 C492 1.377 1_554 S
C493 C494 1.379 . S
C494 H478 0.931 . S
C494 C488 1.383 . S
C494 C493 1.379 . S
H495 C489 0.959 . S
H496 C489 0.961 . S
H497 C489 0.960 . S
H498 C490 0.930 . S
H499 C491 0.921 1_556 S
H500 C508 0.929 . S
H501 C510 0.930 . S
H502 C512 0.930 . S
H503 C515 0.929 . S
H504 C518 0.930 . S
H505 C520 0.960 . S
H506 C520 0.960 . S
H507 C520 0.960 . S
C508 H500 0.929 . S
C508 C509 1.377 . S
C508 C510 1.384 . S
C509 C508 1.377 . S
C509 C515 1.390 . S
C510 H501 0.930 . S
C510 C508 1.384 . S
C510 C511 1.372 . S
C511 C510 1.372 . S
C511 C512 1.400 . S
C511 C516 1.490 . S
C512 H502 0.930 . S
C512 C511 1.400 . S
C512 C515 1.386 . S
H513 C529 0.930 . S
H514 C530 0.931 . S
C515 H503 0.929 . S
C515 C509 1.390 . S
C515 C512 1.386 . S
C516 C511 1.490 . S
C516 C518 1.395 . S
C516 C519 1.403 . S
H517 C523 0.930 . S
C518 H504 0.930 . S
C518 C516 1.395 . S
C518 C521 1.403 . S
C519 C516 1.403 . S
C519 C520 1.524 . S
C519 C523 1.400 . S
C520 H505 0.960 . S
C520 H506 0.960 . S
C520 H507 0.960 . S
C520 C519 1.524 . S
C521 C518 1.403 . S
C521 C522 1.392 . S
C521 C525 1.495 . S
C522 C521 1.392 . S
C522 C523 1.385 . S
C522 C524 1.478 . S
C523 H517 0.930 . S
C523 C519 1.400 . S
C523 C522 1.385 . S
C524 C522 1.478 . S
C524 C526 1.381 . S
C524 C530 1.383 . S
C525 C521 1.495 . S
C525 H531 0.959 . S
C525 H532 0.961 . S
C525 H533 0.960 . S
C526 C524 1.381 . S
C526 C527 1.394 . S
C526 H534 0.930 . S
C527 C526 1.394 . S
C527 C528 1.383 . S
C527 H535 0.929 . S
C528 C527 1.383 . S
C528 C529 1.377 . S
C529 H513 0.930 . S
C529 C528 1.377 . S
C529 C530 1.379 . S
C530 H514 0.931 . S
C530 C524 1.383 . S
C530 C529 1.379 . S
H531 C525 0.959 . S
H532 C525 0.961 . S
H533 C525 0.960 . S
H534 C526 0.930 . S
H535 C527 0.929 . S
H536 C544 0.929 . S
H537 C546 0.930 . S
H538 C548 0.930 . S
H539 C551 0.929 . S
H540 C554 0.930 . S
H541 C556 0.960 . S
H542 C556 0.960 . S
H543 C556 0.960 . S
C544 H536 0.929 . S
C544 C545 1.377 . S
C544 C546 1.384 . S
C545 C544 1.377 . S
C545 C551 1.390 . S
C546 H537 0.930 . S
C546 C544 1.384 . S
C546 C547 1.372 . S
C547 C546 1.372 . S
C547 C548 1.400 . S
C547 C552 1.490 . S
C548 H538 0.930 . S
C548 C547 1.400 . S
C548 C551 1.386 . S
H549 C565 0.930 . S
H550 C566 0.931 . S
C551 H539 0.929 . S
C551 C545 1.390 . S
C551 C548 1.386 . S
C552 C547 1.490 . S
C552 C554 1.395 . S
C552 C555 1.403 . S
H553 C559 0.930 . S
C554 H540 0.930 . S
C554 C552 1.395 . S
C554 C557 1.403 . S
C555 C552 1.403 . S
C555 C556 1.524 . S
C555 C559 1.400 . S
C556 H541 0.960 . S
C556 H542 0.960 . S
C556 H543 0.960 . S
C556 C555 1.524 . S
C557 C554 1.403 . S
C557 C558 1.392 . S
C557 C561 1.495 . S
C558 C557 1.392 . S
C558 C559 1.385 . S
C558 C560 1.478 . S
C559 H553 0.930 . S
C559 C555 1.400 . S
C559 C558 1.385 . S
C560 C558 1.478 . S
C560 C562 1.381 . S
C560 C566 1.383 . S
C561 C557 1.495 . S
C561 H567 0.959 . S
C561 H568 0.961 . S
C561 H569 0.960 . S
C562 C560 1.381 . S
C562 C563 1.394 . S
C562 H570 0.930 . S
C563 C562 1.394 . S
C563 C564 1.383 . S
C563 H571 0.929 . S
C564 C563 1.383 . S
C564 C565 1.377 . S
C565 H549 0.930 . S
C565 C564 1.377 . S
C565 C566 1.379 . S
C566 H550 0.931 . S
C566 C560 1.383 . S
C566 C565 1.379 . S
H567 C561 0.959 . S
H568 C561 0.961 . S
H569 C561 0.960 . S
H570 C562 0.930 . S
H571 C563 0.929 . S
H572 C580 0.929 . S
H573 C582 0.930 . S
H574 C584 0.930 . S
H575 C587 0.929 . S
H576 C590 0.930 . S
H577 C592 0.960 . S
H578 C592 0.960 . S
H579 C592 0.960 . S
C580 H572 0.929 . S
C580 C581 1.377 . S
C580 C582 1.384 . S
C581 C580 1.377 . S
C581 C587 1.390 . S
C582 H573 0.930 . S
C582 C580 1.384 . S
C582 C583 1.372 . S
C583 C582 1.372 . S
C583 C584 1.400 . S
C583 C588 1.490 . S
C584 H574 0.930 . S
C584 C583 1.400 . S
C584 C587 1.386 . S
H585 C601 0.930 . S
H586 C602 0.931 . S
C587 H575 0.929 . S
C587 C581 1.390 . S
C587 C584 1.386 . S
C588 C583 1.490 . S
C588 C590 1.395 . S
C588 C591 1.403 . S
H589 C595 0.930 . S
C590 H576 0.930 . S
C590 C588 1.395 . S
C590 C593 1.403 . S
C591 C588 1.403 . S
C591 C592 1.524 . S
C591 C595 1.400 . S
C592 H577 0.960 . S
C592 H578 0.960 . S
C592 H579 0.960 . S
C592 C591 1.524 . S
C593 C590 1.403 . S
C593 C594 1.392 . S
C593 C597 1.495 . S
C594 C593 1.392 . S
C594 C595 1.385 . S
C594 C596 1.478 . S
C595 H589 0.930 . S
C595 C591 1.400 . S
C595 C594 1.385 . S
C596 C594 1.478 . S
C596 C598 1.381 . S
C596 C602 1.383 . S
C597 C593 1.495 . S
C597 H603 0.959 . S
C597 H604 0.961 . S
C597 H605 0.960 . S
C598 C596 1.381 . S
C598 C599 1.394 . S
C598 H606 0.930 . S
C599 C598 1.394 . S
C599 C600 1.383 . S
C599 H607 0.929 . S
C600 C599 1.383 . S
C600 C601 1.377 . S
C601 H585 0.930 . S
C601 C600 1.377 . S
C601 C602 1.379 . S
C602 H586 0.931 . S
C602 C596 1.383 . S
C602 C601 1.379 . S
H603 C597 0.959 . S
H604 C597 0.961 . S
H605 C597 0.960 . S
H606 C598 0.930 . S
H607 C599 0.929 . S
H608 C616 0.929 . S
H609 C618 0.930 . S
H610 C620 0.930 . S
H611 C623 0.929 . S
H612 C626 0.930 . S
H613 C628 0.960 . S
H614 C628 0.960 . S
H615 C628 0.960 . S
C616 H608 0.929 . S
C616 C617 1.377 . S
C616 C618 1.384 . S
C617 C616 1.377 . S
C617 C623 1.390 . S
C618 H609 0.930 . S
C618 C616 1.384 . S
C618 C619 1.372 . S
C619 C618 1.372 . S
C619 C620 1.400 . S
C619 C624 1.490 . S
C620 H610 0.930 . S
C620 C619 1.400 . S
C620 C623 1.386 . S
H621 C637 0.930 . S
H622 C638 0.931 . S
C623 H611 0.929 . S
C623 C617 1.390 . S
C623 C620 1.386 . S
C624 C619 1.490 . S
C624 C626 1.395 . S
C624 C627 1.403 . S
H625 C631 0.930 . S
C626 H612 0.930 . S
C626 C624 1.395 . S
C626 C629 1.403 . S
C627 C624 1.403 . S
C627 C628 1.524 . S
C627 C631 1.400 . S
C628 H613 0.960 . S
C628 H614 0.960 . S
C628 H615 0.960 . S
C628 C627 1.524 . S
C629 C626 1.403 . S
C629 C630 1.392 . S
C629 C633 1.495 . S
C630 C629 1.392 . S
C630 C631 1.385 . S
C630 C632 1.478 . S
C631 H625 0.930 . S
C631 C627 1.400 . S
C631 C630 1.385 . S
C632 C630 1.478 . S
C632 C634 1.381 . S
C632 C638 1.383 . S
C633 C629 1.495 . S
C633 H639 0.959 . S
C633 H640 0.961 . S
C633 H641 0.960 . S
C634 C632 1.381 . S
C634 C635 1.394 . S
C634 H642 0.930 . S
C635 C634 1.394 . S
C635 C636 1.383 . S
C635 H643 0.929 . S
C636 C635 1.383 . S
C636 C637 1.377 . S
C637 H621 0.930 . S
C637 C636 1.377 . S
C637 C638 1.379 . S
C638 H622 0.931 . S
C638 C632 1.383 . S
C638 C637 1.379 . S
H639 C633 0.959 . S
H640 C633 0.961 . S
H641 C633 0.960 . S
H642 C634 0.930 . S
H643 C635 0.929 . S
H644 C652 0.929 . S
H645 C654 0.930 . S
H646 C656 0.930 . S
H647 C659 0.929 . S
H648 C662 0.930 . S
H649 C664 0.960 . S
H650 C664 0.960 . S
H651 C664 0.960 . S
C652 H644 0.929 . S
C652 C653 1.377 . S
C652 C654 1.384 . S
C653 C652 1.377 . S
C653 C659 1.390 . S
C654 H645 0.930 . S
C654 C652 1.384 . S
C654 C655 1.372 . S
C655 C654 1.372 . S
C655 C656 1.400 . S
C655 C660 1.490 . S
C656 H646 0.930 . S
C656 C655 1.400 . S
C656 C659 1.386 . S
H657 C673 0.930 . S
H658 C674 0.931 . S
C659 H647 0.929 . S
C659 C653 1.390 . S
C659 C656 1.386 . S
C660 C655 1.490 . S
C660 C662 1.395 . S
C660 C663 1.403 . S
H661 C667 0.930 . S
C662 H648 0.930 . S
C662 C660 1.395 . S
C662 C665 1.403 . S
C663 C660 1.403 . S
C663 C664 1.524 . S
C663 C667 1.400 . S
C664 H649 0.960 . S
C664 H650 0.960 . S
C664 H651 0.960 . S
C664 C663 1.524 . S
C665 C662 1.403 . S
C665 C666 1.392 . S
C665 C669 1.495 . S
C666 C665 1.392 . S
C666 C667 1.385 . S
C666 C668 1.478 . S
C667 H661 0.930 . S
C667 C663 1.400 . S
C667 C666 1.385 . S
C668 C666 1.478 . S
C668 C670 1.381 . S
C668 C674 1.383 . S
C669 C665 1.495 . S
C669 H675 0.959 . S
C669 H676 0.961 . S
C669 H677 0.960 . S
C670 C668 1.381 . S
C670 C671 1.394 . S
C670 H678 0.930 . S
C671 C670 1.394 . S
C671 C672 1.383 . S
C671 H679 0.929 . S
C672 C671 1.383 . S
C672 C673 1.377 . S
C673 H657 0.930 . S
C673 C672 1.377 . S
C673 C674 1.379 . S
C674 H658 0.931 . S
C674 C668 1.383 . S
C674 C673 1.379 . S
H675 C669 0.959 . S
H676 C669 0.961 . S
H677 C669 0.960 . S
H678 C670 0.930 . S
H679 C671 0.929 . S
H680 C688 0.929 . S
H681 C690 0.930 . S
H682 C692 0.930 . S
H683 C695 0.929 . S
H684 C698 0.930 . S
H685 C700 0.960 . S
H686 C700 0.960 . S
H687 C700 0.960 . S
C688 H680 0.929 . S
C688 C689 1.377 . S
C688 C690 1.384 1_554 S
C689 C688 1.377 . S
C689 C695 1.390 . S
C690 H681 0.930 . S
C690 C688 1.384 1_556 S
C690 C691 1.372 . S
C691 C690 1.372 . S
C691 C692 1.400 . S
C691 C696 1.490 . S
C692 H682 0.930 . S
C692 C691 1.400 . S
C692 C695 1.386 1_556 S
H693 C709 0.930 . S
H694 C710 0.931 . S
C695 H683 0.929 . S
C695 C689 1.390 . S
C695 C692 1.386 1_554 S
C696 C691 1.490 . S
C696 C698 1.395 . S
C696 C699 1.403 . S
H697 C703 0.930 . S
C698 H684 0.930 . S
C698 C696 1.395 . S
C698 C701 1.403 . S
C699 C696 1.403 . S
C699 C700 1.524 . S
C699 C703 1.400 . S
C700 H685 0.960 . S
C700 H686 0.960 . S
C700 H687 0.960 . S
C700 C699 1.524 . S
C701 C698 1.403 . S
C701 C702 1.392 . S
C701 C705 1.495 . S
C702 C701 1.392 . S
C702 C703 1.385 . S
C702 C704 1.478 . S
C703 H697 0.930 . S
C703 C699 1.400 . S
C703 C702 1.385 . S
C704 C702 1.478 . S
C704 C706 1.381 . S
C704 C710 1.383 . S
C705 C701 1.495 . S
C705 H711 0.959 . S
C705 H712 0.961 . S
C705 H713 0.960 . S
C706 C704 1.381 . S
C706 C707 1.394 . S
C706 H714 0.930 . S
C707 C706 1.394 . S
C707 C708 1.383 . S
C707 H715 0.929 . S
C708 C707 1.383 . S
C708 C709 1.377 . S
C709 H693 0.930 . S
C709 C708 1.377 . S
C709 C710 1.379 . S
C710 H694 0.931 . S
C710 C704 1.383 . S
C710 C709 1.379 . S
H711 C705 0.959 . S
H712 C705 0.961 . S
H713 C705 0.960 . S
H714 C706 0.930 . S
H715 C707 0.929 . S
H716 C724 0.929 . S
H717 C726 0.930 . S
H718 C728 0.930 . S
H719 C731 0.929 . S
H720 C734 0.930 . S
H721 C736 0.960 . S
H722 C736 0.960 . S
H723 C736 0.960 . S
C724 H716 0.929 . S
C724 C725 1.377 . S
C724 C726 1.384 . S
C725 C724 1.377 . S
C725 C731 1.390 . S
C726 H717 0.930 . S
C726 C724 1.384 . S
C726 C727 1.372 . S
C727 C726 1.372 . S
C727 C728 1.400 . S
C727 C732 1.490 . S
C728 H718 0.930 . S
C728 C727 1.400 . S
C728 C731 1.386 . S
H729 C745 0.930 . S
H730 C746 0.931 . S
C731 H719 0.929 . S
C731 C725 1.390 . S
C731 C728 1.386 . S
C732 C727 1.490 . S
C732 C734 1.395 . S
C732 C735 1.403 . S
H733 C739 0.930 . S
C734 H720 0.930 . S
C734 C732 1.395 . S
C734 C737 1.403 . S
C735 C732 1.403 . S
C735 C736 1.524 . S
C735 C739 1.400 . S
C736 H721 0.960 . S
C736 H722 0.960 . S
C736 H723 0.960 . S
C736 C735 1.524 . S
C737 C734 1.403 . S
C737 C738 1.392 . S
C737 C741 1.495 . S
C738 C737 1.392 . S
C738 C739 1.385 . S
C738 C740 1.478 . S
C739 H733 0.930 . S
C739 C735 1.400 . S
C739 C738 1.385 . S
C740 C738 1.478 . S
C740 C742 1.381 . S
C740 C746 1.383 . S
C741 C737 1.495 . S
C741 H747 0.959 . S
C741 H748 0.961 . S
C741 H749 0.960 . S
C742 C740 1.381 . S
C742 C743 1.394 1_554 S
C742 H750 0.930 . S
C743 C742 1.394 1_556 S
C743 C744 1.383 . S
C743 H751 0.929 . S
C744 C743 1.383 . S
C744 C745 1.377 1_556 S
C745 H729 0.930 . S
C745 C744 1.377 1_554 S
C745 C746 1.379 . S
C746 H730 0.931 . S
C746 C740 1.383 . S
C746 C745 1.379 . S
H747 C741 0.959 . S
H748 C741 0.961 . S
H749 C741 0.960 . S
H750 C742 0.930 . S
H751 C743 0.929 . S
H752 C760 0.929 . S
H753 C762 0.930 . S
H754 C764 0.930 . S
H755 C767 0.929 . S
H756 C770 0.930 . S
H757 C772 0.960 . S
H758 C772 0.960 . S
H759 C772 0.960 . S
C760 H752 0.929 . S
C760 C761 1.377 . S
C760 C762 1.384 . S
C761 C760 1.377 . S
C761 C767 1.390 . S
C762 H753 0.930 . S
C762 C760 1.384 . S
C762 C763 1.372 . S
C763 C762 1.372 . S
C763 C764 1.400 . S
C763 C768 1.490 . S
C764 H754 0.930 . S
C764 C763 1.400 . S
C764 C767 1.386 . S
H765 C781 0.930 . S
H766 C782 0.931 . S
C767 H755 0.929 . S
C767 C761 1.390 . S
C767 C764 1.386 . S
C768 C763 1.490 . S
C768 C770 1.395 . S
C768 C771 1.403 . S
H769 C775 0.930 . S
C770 H756 0.930 . S
C770 C768 1.395 . S
C770 C773 1.403 . S
C771 C768 1.403 . S
C771 C772 1.524 . S
C771 C775 1.400 . S
C772 H757 0.960 . S
C772 H758 0.960 . S
C772 H759 0.960 . S
C772 C771 1.524 . S
C773 C770 1.403 . S
C773 C774 1.392 . S
C773 C777 1.495 . S
C774 C773 1.392 . S
C774 C775 1.385 . S
C774 C776 1.478 . S
C775 H769 0.930 . S
C775 C771 1.400 . S
C775 C774 1.385 . S
C776 C774 1.478 . S
C776 C778 1.381 . S
C776 C782 1.383 . S
C777 C773 1.495 . S
C777 H783 0.959 . S
C777 H784 0.961 . S
C777 H785 0.960 . S
C778 C776 1.381 . S
C778 C779 1.394 . S
C778 H786 0.930 . S
C779 C778 1.394 . S
C779 C780 1.383 . S
C779 H787 0.929 . S
C780 C779 1.383 . S
C780 C781 1.377 . S
C781 H765 0.930 . S
C781 C780 1.377 . S
C781 C782 1.379 . S
C782 H766 0.931 . S
C782 C776 1.383 . S
C782 C781 1.379 . S
H783 C777 0.959 . S
H784 C777 0.961 . S
H785 C777 0.960 . S
H786 C778 0.930 . S
H787 C779 0.929 . S
H788 C796 0.929 . S
H789 C798 0.930 . S
H790 C800 0.930 . S
H791 C803 0.929 . S
H792 C806 0.930 . S
H793 C808 0.960 . S
H794 C808 0.960 . S
H795 C808 0.960 . S
C796 H788 0.929 . S
C796 C797 1.377 . S
C796 C798 1.384 . S
C797 C796 1.377 . S
C797 C803 1.390 . S
C798 H789 0.930 . S
C798 C796 1.384 . S
C798 C799 1.372 . S
C799 C798 1.372 . S
C799 C800 1.400 . S
C799 C804 1.490 . S
C800 H790 0.930 . S
C800 C799 1.400 . S
C800 C803 1.386 . S
H801 C817 0.930 . S
H802 C818 0.931 . S
C803 H791 0.929 . S
C803 C797 1.390 . S
C803 C800 1.386 . S
C804 C799 1.490 . S
C804 C806 1.395 . S
C804 C807 1.403 . S
H805 C811 0.930 . S
C806 H792 0.930 . S
C806 C804 1.395 . S
C806 C809 1.403 . S
C807 C804 1.403 . S
C807 C808 1.524 . S
C807 C811 1.400 . S
C808 H793 0.960 . S
C808 H794 0.960 . S
C808 H795 0.960 . S
C808 C807 1.524 . S
C809 C806 1.403 . S
C809 C810 1.392 . S
C809 C813 1.495 . S
C810 C809 1.392 . S
C810 C811 1.385 . S
C810 C812 1.478 . S
C811 H805 0.930 . S
C811 C807 1.400 . S
C811 C810 1.385 . S
C812 C810 1.478 . S
C812 C814 1.381 . S
C812 C818 1.383 . S
C813 C809 1.495 . S
C813 H819 0.959 . S
C813 H820 0.961 . S
C813 H821 0.960 . S
C814 C812 1.381 . S
C814 C815 1.394 . S
C814 H822 0.930 . S
C815 C814 1.394 . S
C815 C816 1.383 . S
C815 H823 0.929 . S
C816 C815 1.383 . S
C816 C817 1.377 . S
C817 H801 0.930 . S
C817 C816 1.377 . S
C817 C818 1.379 . S
C818 H802 0.931 . S
C818 C812 1.383 . S
C818 C817 1.379 . S
H819 C813 0.959 . S
H820 C813 0.961 . S
H821 C813 0.960 . S
H822 C814 0.930 . S
H823 C815 0.929 . S
H824 C832 0.929 . S
H825 C834 0.930 . S
H826 C836 0.930 . S
H827 C839 0.929 . S
H828 C842 0.930 . S
H829 C844 0.960 . S
H830 C844 0.960 . S
H831 C844 0.960 . S
C832 H824 0.929 . S
C832 C833 1.377 . S
C832 C834 1.384 . S
C833 C832 1.377 . S
C833 C839 1.390 . S
C834 H825 0.930 . S
C834 C832 1.384 . S
C834 C835 1.372 . S
C835 C834 1.372 . S
C835 C836 1.400 . S
C835 C840 1.490 . S
C836 H826 0.930 . S
C836 C835 1.400 . S
C836 C839 1.386 . S
H837 C853 0.930 . S
H838 C854 0.931 . S
C839 H827 0.929 . S
C839 C833 1.390 . S
C839 C836 1.386 . S
C840 C835 1.490 . S
C840 C842 1.395 . S
C840 C843 1.403 . S
H841 C847 0.930 . S
C842 H828 0.930 . S
C842 C840 1.395 . S
C842 C845 1.403 . S
C843 C840 1.403 . S
C843 C844 1.524 . S
C843 C847 1.400 . S
C844 H829 0.960 . S
C844 H830 0.960 . S
C844 H831 0.960 . S
C844 C843 1.524 . S
C845 C842 1.403 . S
C845 C846 1.392 . S
C845 C849 1.495 . S
C846 C845 1.392 . S
C846 C847 1.385 . S
C846 C848 1.478 . S
C847 H841 0.930 . S
C847 C843 1.400 . S
C847 C846 1.385 . S
C848 C846 1.478 . S
C848 C850 1.381 . S
C848 C854 1.383 . S
C849 C845 1.495 . S
C849 H855 0.959 . S
C849 H856 0.961 . S
C849 H857 0.960 . S
C850 C848 1.381 . S
C850 C851 1.394 . S
C850 H858 0.930 . S
C851 C850 1.394 . S
C851 C852 1.371 1_554 S
C851 H859 0.929 . S
C852 C851 1.371 1_556 S
C852 C853 1.377 . S
C853 H837 0.930 . S
C853 C852 1.377 . S
C853 C854 1.379 1_556 S
C854 H838 0.931 . S
C854 C848 1.383 . S
C854 C853 1.379 1_554 S
H855 C849 0.959 . S
H856 C849 0.961 . S
H857 C849 0.960 . S
H858 C850 0.930 . S
H859 C851 0.929 . S
H860 C868 0.929 . S
H861 C870 0.930 . S
H862 C872 0.930 . S
H863 C875 0.929 . S
H864 C878 0.930 . S
H865 C880 0.960 . S
H866 C880 0.960 . S
H867 C880 0.960 . S
C868 H860 0.929 . S
C868 C869 1.377 . S
C868 C870 1.384 . S
C869 C868 1.377 . S
C869 C875 1.390 . S
C870 H861 0.930 . S
C870 C868 1.384 . S
C870 C871 1.372 . S
C871 C870 1.372 . S
C871 C872 1.400 . S
C871 C876 1.490 . S
C872 H862 0.930 . S
C872 C871 1.400 . S
C872 C875 1.386 . S
H873 C889 0.930 . S
H874 C890 0.931 . S
C875 H863 0.929 . S
C875 C869 1.390 . S
C875 C872 1.386 . S
C876 C871 1.490 . S
C876 C878 1.395 . S
C876 C879 1.403 . S
H877 C883 0.930 . S
C878 H864 0.930 . S
C878 C876 1.395 . S
C878 C881 1.403 . S
C879 C876 1.403 . S
C879 C880 1.524 . S
C879 C883 1.400 . S
C880 H865 0.960 . S
C880 H866 0.960 . S
C880 H867 0.960 . S
C880 C879 1.524 . S
C881 C878 1.403 . S
C881 C882 1.392 . S
C881 C885 1.495 . S
C882 C881 1.392 . S
C882 C883 1.385 . S
C882 C884 1.478 . S
C883 H877 0.930 . S
C883 C879 1.400 . S
C883 C882 1.385 . S
C884 C882 1.478 . S
C884 C886 1.381 . S
C884 C890 1.383 . S
C885 C881 1.495 . S
C885 H891 0.959 . S
C885 H892 0.961 . S
C885 H893 0.960 . S
C886 C884 1.381 . S
C886 C887 1.394 1_556 S
C886 H894 0.930 . S
C887 C886 1.394 1_554 S
C887 C888 1.383 . S
C887 H895 0.929 . S
C888 C887 1.383 . S
C888 C889 1.377 1_554 S
C889 H873 0.930 . S
C889 C888 1.377 1_556 S
C889 C890 1.379 . S
C890 H874 0.931 . S
C890 C884 1.383 . S
C890 C889 1.379 . S
H891 C885 0.959 . S
H892 C885 0.961 . S
H893 C885 0.960 . S
H894 C886 0.930 . S
H895 C887 0.929 . S
H896 C904 0.929 . S
H897 C906 0.930 . S
H898 C908 0.930 . S
H899 C911 0.929 . S
H900 C914 0.930 . S
H901 C916 0.960 . S
H902 C916 0.960 . S
H903 C916 0.960 . S
C904 H896 0.929 . S
C904 C905 1.377 . S
C904 C906 1.384 . S
C905 C904 1.377 . S
C905 C911 1.390 1_455 S
C906 H897 0.930 . S
C906 C904 1.384 . S
C906 C907 1.372 . S
C907 C906 1.372 . S
C907 C908 1.400 1_455 S
C907 C912 1.490 . S
C908 H898 0.930 . S
C908 C907 1.400 1_655 S
C908 C911 1.386 . S
H909 C925 0.930 . S
H910 C926 0.931 . S
C911 H899 0.929 . S
C911 C905 1.390 1_655 S
C911 C908 1.386 . S
C912 C907 1.490 . S
C912 C914 1.395 . S
C912 C915 1.403 1_455 S
H913 C919 0.930 . S
C914 H900 0.930 . S
C914 C912 1.395 . S
C914 C917 1.403 . S
C915 C912 1.403 1_655 S
C915 C916 1.524 . S
C915 C919 1.400 . S
C916 H901 0.960 . S
C916 H902 0.960 . S
C916 H903 0.960 . S
C916 C915 1.524 . S
C917 C914 1.403 . S
C917 C918 1.392 . S
C917 C921 1.495 . S
C918 C917 1.392 . S
C918 C919 1.385 1_455 S
C918 C920 1.478 . S
C919 H913 0.930 . S
C919 C915 1.400 . S
C919 C918 1.385 1_655 S
C920 C918 1.478 . S
C920 C922 1.381 . S
C920 C926 1.383 1_455 S
C921 C917 1.495 . S
C921 H927 0.959 . S
C921 H928 0.961 . S
C921 H929 0.960 . S
C922 C920 1.381 . S
C922 C923 1.394 . S
C922 H930 0.930 . S
C923 C922 1.394 . S
C923 C924 1.383 . S
C923 H931 0.929 . S
C924 C923 1.383 . S
C924 C925 1.377 1_455 S
C925 H909 0.930 . S
C925 C924 1.377 1_655 S
C925 C926 1.379 . S
C926 H910 0.931 . S
C926 C920 1.383 1_655 S
C926 C925 1.379 . S
H927 C921 0.959 . S
H928 C921 0.961 . S
H929 C921 0.960 . S
H930 C922 0.930 . S
H931 C923 0.929 . S
H932 C940 0.929 . S
H933 C942 0.930 . S
H934 C944 0.930 . S
H935 C947 0.929 . S
H936 C950 0.930 . S
H937 C952 0.960 . S
H938 C952 0.960 . S
H939 C952 0.960 . S
C940 H932 0.929 . S
C940 C941 1.377 . S
C940 C942 1.384 . S
C941 C940 1.377 . S
C941 C947 1.390 . S
C942 H933 0.930 . S
C942 C940 1.384 . S
C942 C943 1.372 . S
C943 C942 1.372 . S
C943 C944 1.400 . S
C943 C948 1.490 . S
C944 H934 0.930 . S
C944 C943 1.400 . S
C944 C947 1.386 . S
H945 C961 0.930 . S
H946 C962 0.931 . S
C947 H935 0.929 . S
C947 C941 1.390 . S
C947 C944 1.386 . S
C948 C943 1.490 . S
C948 C950 1.395 . S
C948 C951 1.403 . S
H949 C955 0.930 . S
C950 H936 0.930 . S
C950 C948 1.395 . S
C950 C953 1.403 1_655 S
C951 C948 1.403 . S
C951 C952 1.524 . S
C951 C955 1.400 1_655 S
C952 H937 0.960 . S
C952 H938 0.960 . S
C952 H939 0.960 . S
C952 C951 1.524 . S
C953 C950 1.403 1_455 S
C953 C954 1.392 . S
C953 C957 1.495 . S
C954 C953 1.392 . S
C954 C955 1.385 . S
C954 C956 1.478 . S
C955 H949 0.930 . S
C955 C951 1.400 1_455 S
C955 C954 1.385 . S
C956 C954 1.478 . S
C956 C958 1.381 . S
C956 C962 1.383 . S
C957 C953 1.495 . S
C957 H963 0.959 . S
C957 H964 0.961 . S
C957 H965 0.960 . S
C958 C956 1.381 . S
C958 C959 1.394 . S
C958 H966 0.930 . S
C959 C958 1.394 . S
C959 C960 1.383 . S
C959 H967 0.929 . S
C960 C959 1.383 . S
C960 C961 1.377 . S
C961 H945 0.930 . S
C961 C960 1.377 . S
C961 C962 1.379 . S
C962 H946 0.931 . S
C962 C956 1.383 . S
C962 C961 1.379 . S
H963 C957 0.959 . S
H964 C957 0.961 . S
H965 C957 0.960 . S
H966 C958 0.930 . S
H967 C959 0.929 . S
H968 C976 0.929 . S
H969 C978 0.930 . S
H970 C980 0.930 . S
H971 C983 0.929 . S
H972 C986 0.930 . S
H973 C988 0.960 . S
H974 C988 0.960 . S
H975 C988 0.960 . S
C976 H968 0.929 . S
C976 C977 1.377 . S
C976 C978 1.384 . S
C977 C976 1.377 . S
C977 C983 1.390 . S
C978 H969 0.930 . S
C978 C976 1.384 . S
C978 C979 1.372 . S
C979 C978 1.372 . S
C979 C980 1.400 . S
C979 C984 1.490 . S
C980 H970 0.930 . S
C980 C979 1.400 . S
C980 C983 1.386 . S
H981 C997 0.930 . S
H982 C998 0.931 . S
C983 H971 0.929 . S
C983 C977 1.390 . S
C983 C980 1.386 . S
C984 C979 1.490 . S
C984 C986 1.395 . S
C984 C987 1.403 . S
H985 C991 0.930 . S
C986 H972 0.930 . S
C986 C984 1.395 . S
C986 C989 1.403 . S
C987 C984 1.403 . S
C987 C988 1.524 . S
C987 C991 1.400 . S
C988 H973 0.960 . S
C988 H974 0.960 . S
C988 H975 0.960 . S
C988 C987 1.524 . S
C989 C986 1.403 . S
C989 C990 1.392 . S
C989 C993 1.495 . S
C990 C989 1.392 . S
C990 C991 1.385 . S
C990 C992 1.478 . S
C991 H985 0.930 . S
C991 C987 1.400 . S
C991 C990 1.385 . S
C992 C990 1.478 . S
C992 C994 1.381 . S
C992 C998 1.383 . S
C993 C989 1.495 . S
C993 H999 0.959 . S
C993 H1000 0.961 . S
C993 H1001 0.960 . S
C994 C992 1.381 . S
C994 C995 1.394 . S
C994 H1002 0.930 . S
C995 C994 1.394 . S
C995 C996 1.383 . S
C995 H1003 0.929 . S
C996 C995 1.383 . S
C996 C997 1.377 . S
C997 H981 0.930 . S
C997 C996 1.377 . S
C997 C998 1.379 . S
C998 H982 0.931 . S
C998 C992 1.383 . S
C998 C997 1.379 . S
H999 C993 0.959 . S
H1000 C993 0.961 . S
H1001 C993 0.960 . S
H1002 C994 0.930 . S
H1003 C995 0.929 . S
H1004 C1012 0.929 . S
H1005 C1014 0.930 . S
H1006 C1016 0.930 . S
H1007 C1019 0.929 . S
H1008 C1022 0.930 . S
H1009 C1024 0.960 . S
H1010 C1024 0.960 . S
H1011 C1024 0.960 . S
C1012 H1004 0.929 . S
C1012 C1013 1.377 . S
C1012 C1014 1.384 . S
C1013 C1012 1.377 . S
C1013 C1019 1.390 . S
C1014 H1005 0.930 . S
C1014 C1012 1.384 . S
C1014 C1015 1.372 . S
C1015 C1014 1.372 . S
C1015 C1016 1.400 . S
C1015 C1020 1.490 . S
C1016 H1006 0.930 . S
C1016 C1015 1.400 . S
C1016 C1019 1.386 . S
H1017 C1033 0.930 . S
H1018 C1034 0.931 . S
C1019 H1007 0.929 . S
C1019 C1013 1.390 . S
C1019 C1016 1.386 . S
C1020 C1015 1.490 . S
C1020 C1022 1.395 . S
C1020 C1023 1.403 . S
H1021 C1027 0.930 . S
C1022 H1008 0.930 . S
C1022 C1020 1.395 . S
C1022 C1025 1.403 . S
C1023 C1020 1.403 . S
C1023 C1024 1.524 . S
C1023 C1027 1.400 . S
C1024 H1009 0.960 . S
C1024 H1010 0.960 . S
C1024 H1011 0.960 . S
C1024 C1023 1.524 . S
C1025 C1022 1.403 . S
C1025 C1026 1.392 . S
C1025 C1029 1.495 . S
C1026 C1025 1.392 . S
C1026 C1027 1.385 . S
C1026 C1028 1.478 . S
C1027 H1021 0.930 . S
C1027 C1023 1.400 . S
C1027 C1026 1.385 . S
C1028 C1026 1.478 . S
C1028 C1030 1.381 . S
C1028 C1034 1.383 . S
C1029 C1025 1.495 . S
C1029 H1035 0.959 . S
C1029 H1036 0.961 . S
C1029 H1037 0.960 . S
C1030 C1028 1.381 . S
C1030 C1031 1.394 . S
C1030 H1038 0.930 . S
C1031 C1030 1.394 . S
C1031 C1032 1.383 . S
C1031 H1039 0.929 . S
C1032 C1031 1.383 . S
C1032 C1033 1.377 . S
C1033 H1017 0.930 . S
C1033 C1032 1.377 . S
C1033 C1034 1.379 . S
C1034 H1018 0.931 . S
C1034 C1028 1.383 . S
C1034 C1033 1.379 . S
H1035 C1029 0.959 . S
H1036 C1029 0.961 . S
H1037 C1029 0.960 . S
H1038 C1030 0.930 . S
H1039 C1031 0.929 . S
H1040 C1048 0.929 . S
H1041 C1050 0.930 . S
H1042 C1052 0.930 . S
H1043 C1055 0.929 . S
H1044 C1058 0.930 . S
H1045 C1060 0.960 . S
H1046 C1060 0.960 . S
H1047 C1060 0.960 . S
C1048 H1040 0.929 . S
C1048 C1049 1.377 . S
C1048 C1050 1.384 . S
C1049 C1048 1.377 . S
C1049 C1055 1.390 1_455 S
C1050 H1041 0.930 . S
C1050 C1048 1.384 . S
C1050 C1051 1.372 . S
C1051 C1050 1.372 . S
C1051 C1052 1.400 1_455 S
C1051 C1056 1.490 . S
C1052 H1042 0.930 . S
C1052 C1051 1.400 1_655 S
C1052 C1055 1.386 . S
H1053 C1069 0.930 . S
H1054 C1070 0.931 . S
C1055 H1043 0.929 . S
C1055 C1049 1.390 1_655 S
C1055 C1052 1.386 . S
C1056 C1051 1.490 . S
C1056 C1058 1.395 . S
C1056 C1059 1.403 1_455 S
H1057 C1063 0.930 . S
C1058 H1044 0.930 . S
C1058 C1056 1.395 . S
C1058 C1061 1.403 . S
C1059 C1056 1.403 1_655 S
C1059 C1060 1.524 . S
C1059 C1063 1.400 . S
C1060 H1045 0.960 . S
C1060 H1046 0.960 . S
C1060 H1047 0.960 . S
C1060 C1059 1.524 . S
C1061 C1058 1.403 . S
C1061 C1062 1.392 . S
C1061 C1065 1.495 . S
C1062 C1061 1.392 . S
C1062 C1063 1.385 1_455 S
C1062 C1064 1.478 . S
C1063 H1057 0.930 . S
C1063 C1059 1.400 . S
C1063 C1062 1.385 1_655 S
C1064 C1062 1.478 . S
C1064 C1066 1.381 . S
C1064 C1070 1.383 1_455 S
C1065 C1061 1.495 . S
C1065 H1071 0.959 . S
C1065 H1072 0.961 . S
C1065 H1073 0.960 . S
C1066 C1064 1.381 . S
C1066 C1067 1.394 . S
C1066 H1074 0.930 . S
C1067 C1066 1.394 . S
C1067 C1068 1.383 . S
C1067 H1075 0.929 . S
C1068 C1067 1.383 . S
C1068 C1069 1.377 1_455 S
C1069 H1053 0.930 . S
C1069 C1068 1.377 1_655 S
C1069 C1070 1.379 . S
C1070 H1054 0.931 . S
C1070 C1064 1.383 1_655 S
C1070 C1069 1.379 . S
H1071 C1065 0.959 . S
H1072 C1065 0.961 . S
H1073 C1065 0.960 . S
H1074 C1066 0.930 . S
H1075 C1067 0.929 . S
H1076 C1084 0.929 . S
H1077 C1086 0.930 . S
H1078 C1088 0.930 . S
H1079 C1091 0.929 . S
H1080 C1094 0.930 . S
H1081 C1096 0.960 . S
H1082 C1096 0.960 . S
H1083 C1096 0.960 . S
C1084 H1076 0.929 . S
C1084 C1085 1.377 . S
C1084 C1086 1.384 . S
C1085 C1084 1.377 . S
C1085 C1091 1.390 . S
C1086 H1077 0.930 . S
C1086 C1084 1.384 . S
C1086 C1087 1.372 . S
C1087 C1086 1.372 . S
C1087 C1088 1.400 . S
C1087 C1092 1.490 . S
C1088 H1078 0.930 . S
C1088 C1087 1.400 . S
C1088 C1091 1.386 . S
H1089 C1105 0.930 . S
H1090 C1106 0.931 . S
C1091 H1079 0.929 . S
C1091 C1085 1.390 . S
C1091 C1088 1.386 . S
C1092 C1087 1.490 . S
C1092 C1094 1.395 . S
C1092 C1095 1.403 . S
H1093 C1099 0.930 . S
C1094 H1080 0.930 . S
C1094 C1092 1.395 . S
C1094 C1097 1.403 . S
C1095 C1092 1.403 . S
C1095 C1096 1.524 . S
C1095 C1099 1.400 . S
C1096 H1081 0.960 . S
C1096 H1082 0.960 . S
C1096 H1083 0.960 . S
C1096 C1095 1.524 . S
C1097 C1094 1.403 . S
C1097 C1098 1.392 . S
C1097 C1101 1.495 . S
C1098 C1097 1.392 . S
C1098 C1099 1.385 . S
C1098 C1100 1.478 . S
C1099 H1093 0.930 . S
C1099 C1095 1.400 . S
C1099 C1098 1.385 . S
C1100 C1098 1.478 . S
C1100 C1102 1.381 . S
C1100 C1106 1.383 . S
C1101 C1097 1.495 . S
C1101 H1107 0.959 . S
C1101 H1108 0.961 . S
C1101 H1109 0.960 . S
C1102 C1100 1.381 . S
C1102 C1103 1.394 . S
C1102 H1110 0.930 . S
C1103 C1102 1.394 . S
C1103 C1104 1.383 . S
C1103 H1111 0.929 . S
C1104 C1103 1.383 . S
C1104 C1105 1.377 . S
C1105 H1089 0.930 . S
C1105 C1104 1.377 . S
C1105 C1106 1.379 . S
C1106 H1090 0.931 . S
C1106 C1100 1.383 . S
C1106 C1105 1.379 . S
H1107 C1101 0.959 . S
H1108 C1101 0.961 . S
H1109 C1101 0.960 . S
H1110 C1102 0.930 . S
H1111 C1103 0.929 . S
H1112 C1120 0.929 . S
H1113 C1122 0.930 . S
H1114 C1124 0.930 . S
H1115 C1127 0.929 . S
H1116 C1130 0.930 . S
H1117 C1132 0.960 . S
H1118 C1132 0.960 . S
H1119 C1132 0.960 . S
C1120 H1112 0.929 . S
C1120 C1121 1.377 . S
C1120 C1122 1.384 . S
C1121 C1120 1.377 . S
C1121 C1127 1.390 . S
C1122 H1113 0.930 . S
C1122 C1120 1.384 . S
C1122 C1123 1.372 . S
C1123 C1122 1.372 . S
C1123 C1124 1.400 . S
C1123 C1128 1.490 . S
C1124 H1114 0.930 . S
C1124 C1123 1.400 . S
C1124 C1127 1.386 . S
H1125 C1141 0.930 . S
H1126 C1142 0.931 . S
C1127 H1115 0.929 . S
C1127 C1121 1.390 . S
C1127 C1124 1.386 . S
C1128 C1123 1.490 . S
C1128 C1130 1.395 . S
C1128 C1131 1.403 . S
H1129 C1135 0.930 . S
C1130 H1116 0.930 . S
C1130 C1128 1.395 . S
C1130 C1133 1.403 . S
C1131 C1128 1.403 . S
C1131 C1132 1.524 . S
C1131 C1135 1.400 . S
C1132 H1117 0.960 . S
C1132 H1118 0.960 . S
C1132 H1119 0.960 . S
C1132 C1131 1.524 . S
C1133 C1130 1.403 . S
C1133 C1134 1.392 . S
C1133 C1137 1.495 . S
C1134 C1133 1.392 . S
C1134 C1135 1.385 . S
C1134 C1136 1.478 . S
C1135 H1129 0.930 . S
C1135 C1131 1.400 . S
C1135 C1134 1.385 . S
C1136 C1134 1.478 . S
C1136 C1138 1.381 . S
C1136 C1142 1.383 . S
C1137 C1133 1.495 . S
C1137 H1143 0.959 . S
C1137 H1144 0.961 . S
C1137 H1145 0.960 . S
C1138 C1136 1.381 . S
C1138 C1139 1.394 . S
C1138 H1146 0.930 . S
C1139 C1138 1.394 . S
C1139 C1140 1.383 . S
C1139 H1147 0.929 . S
C1140 C1139 1.383 . S
C1140 C1141 1.377 . S
C1141 H1125 0.930 . S
C1141 C1140 1.377 . S
C1141 C1142 1.379 . S
C1142 H1126 0.931 . S
C1142 C1136 1.383 . S
C1142 C1141 1.379 . S
H1143 C1137 0.959 . S
H1144 C1137 0.961 . S
H1145 C1137 0.960 . S
H1146 C1138 0.930 . S
H1147 C1139 0.929 . S
H1148 C1156 0.929 . S
H1149 C1158 0.930 . S
H1150 C1160 0.930 . S
H1151 C1163 0.929 . S
H1152 C1166 0.930 . S
H1153 C1168 0.960 . S
H1154 C1168 0.960 . S
H1155 C1168 0.960 . S
C1156 H1148 0.929 . S
C1156 C1157 1.377 . S
C1156 C1158 1.384 . S
C1157 C1156 1.377 . S
C1157 C1163 1.390 . S
C1158 H1149 0.930 . S
C1158 C1156 1.384 . S
C1158 C1159 1.372 . S
C1159 C1158 1.372 . S
C1159 C1160 1.400 . S
C1159 C1164 1.490 . S
C1160 H1150 0.930 . S
C1160 C1159 1.400 . S
C1160 C1163 1.386 . S
H1161 C1177 0.930 . S
H1162 C1178 0.931 . S
C1163 H1151 0.929 . S
C1163 C1157 1.390 . S
C1163 C1160 1.386 . S
C1164 C1159 1.490 . S
C1164 C1166 1.395 . S
C1164 C1167 1.403 . S
H1165 C1171 0.930 . S
C1166 H1152 0.930 . S
C1166 C1164 1.395 . S
C1166 C1169 1.403 1_455 S
C1167 C1164 1.403 . S
C1167 C1168 1.524 . S
C1167 C1171 1.400 1_455 S
C1168 H1153 0.960 . S
C1168 H1154 0.960 . S
C1168 H1155 0.960 . S
C1168 C1167 1.524 . S
C1169 C1166 1.403 1_655 S
C1169 C1170 1.392 . S
C1169 C1173 1.495 . S
C1170 C1169 1.392 . S
C1170 C1171 1.385 . S
C1170 C1172 1.478 . S
C1171 H1165 0.930 . S
C1171 C1167 1.400 1_655 S
C1171 C1170 1.385 . S
C1172 C1170 1.478 . S
C1172 C1174 1.381 . S
C1172 C1178 1.383 . S
C1173 C1169 1.495 . S
C1173 H1179 0.959 . S
C1173 H1180 0.961 . S
C1173 H1181 0.960 . S
C1174 C1172 1.381 . S
C1174 C1175 1.394 . S
C1174 H1182 0.930 . S
C1175 C1174 1.394 . S
C1175 C1176 1.383 . S
C1175 H1183 0.929 . S
C1176 C1175 1.383 . S
C1176 C1177 1.377 . S
C1177 H1161 0.930 . S
C1177 C1176 1.377 . S
C1177 C1178 1.379 . S
C1178 H1162 0.931 . S
C1178 C1172 1.383 . S
C1178 C1177 1.379 . S
H1179 C1173 0.959 . S
H1180 C1173 0.961 . S
H1181 C1173 0.960 . S
H1182 C1174 0.930 . S
H1183 C1175 0.929 . S
H1184 C1192 0.929 . S
H1185 C1194 0.930 . S
H1186 C1196 0.930 . S
H1187 C1199 0.929 . S
H1188 C1202 0.930 . S
H1189 C1204 0.958 . S
H1190 C1204 0.960 . S
H1191 C1204 0.962 1_545 S
C1192 H1184 0.929 . S
C1192 C1193 1.377 1_655 S
C1192 C1194 1.384 . S
C1193 C1192 1.377 1_455 S
C1193 C1199 1.390 . S
C1194 H1185 0.930 . S
C1194 C1192 1.384 . S
C1194 C1195 1.372 1_655 S
C1195 C1194 1.372 1_455 S
C1195 C1196 1.400 . S
C1195 C1200 1.490 . S
C1196 H1186 0.930 . S
C1196 C1195 1.400 . S
C1196 C1199 1.386 . S
H1197 C1213 0.930 . S
H1198 C1214 0.931 . S
C1199 H1187 0.929 . S
C1199 C1193 1.390 . S
C1199 C1196 1.386 . S
C1200 C1195 1.490 . S
C1200 C1202 1.395 1_454 S
C1200 C1203 1.403 . S
H1201 C1207 0.930 . S
C1202 H1188 0.930 . S
C1202 C1200 1.395 1_656 S
C1202 C1205 1.439 . S
C1203 C1200 1.403 . S
C1203 C1204 1.524 1_545 S
C1203 C1207 1.400 1_544 S
C1204 H1189 0.958 . S
C1204 H1190 0.960 . S
C1204 H1191 0.962 1_565 S
C1204 C1203 1.524 1_565 S
C1205 C1202 1.439 . S
C1205 C1206 1.339 1_645 S
C1205 C1209 1.497 . S
C1206 C1205 1.339 1_465 S
C1206 C1207 1.404 . S
C1206 C1208 1.479 . S
C1207 H1201 0.930 . S
C1207 C1203 1.400 1_566 S
C1207 C1206 1.404 . S
C1208 C1206 1.479 . S
C1208 C1210 1.381 1_455 S
C1208 C1214 1.383 . S
C1209 C1205 1.497 . S
C1209 H1215 0.959 . S
C1209 H1216 0.961 . S
C1209 H1217 0.960 1_545 S
C1210 C1208 1.381 1_655 S
C1210 C1211 1.394 . S
C1210 H1218 0.930 . S
C1211 C1210 1.394 . S
C1211 C1212 1.383 1_655 S
C1211 H1219 0.929 . S
C1212 C1211 1.383 1_455 S
C1212 C1213 1.377 . S
C1213 H1197 0.930 . S
C1213 C1212 1.377 . S
C1213 C1214 1.379 . S
C1214 H1198 0.931 . S
C1214 C1208 1.383 . S
C1214 C1213 1.379 . S
H1215 C1209 0.959 . S
H1216 C1209 0.961 . S
H1217 C1209 0.960 1_565 S
H1218 C1210 0.930 . S
H1219 C1211 0.929 . S
H1220 C1228 0.929 . S
H1221 C1230 0.930 . S
H1222 C1232 0.930 . S
H1223 C1235 0.929 . S
H1224 C1238 0.930 . S
H1225 C1240 0.960 . S
H1226 C1240 0.960 . S
H1227 C1240 0.960 . S
C1228 H1220 0.929 . S
C1228 C1229 1.377 . S
C1228 C1230 1.384 . S
C1229 C1228 1.377 . S
C1229 C1235 1.390 . S
C1230 H1221 0.930 . S
C1230 C1228 1.384 . S
C1230 C1231 1.372 . S
C1231 C1230 1.372 . S
C1231 C1232 1.400 . S
C1231 C1236 1.490 . S
C1232 H1222 0.930 . S
C1232 C1231 1.400 . S
C1232 C1235 1.386 . S
H1233 C1249 0.930 . S
H1234 C1250 0.931 . S
C1235 H1223 0.929 . S
C1235 C1229 1.390 . S
C1235 C1232 1.386 . S
C1236 C1231 1.490 . S
C1236 C1238 1.395 . S
C1236 C1239 1.403 . S
H1237 C1243 0.930 . S
C1238 H1224 0.930 . S
C1238 C1236 1.395 . S
C1238 C1241 1.403 . S
C1239 C1236 1.403 . S
C1239 C1240 1.524 . S
C1239 C1243 1.400 . S
C1240 H1225 0.960 . S
C1240 H1226 0.960 . S
C1240 H1227 0.960 . S
C1240 C1239 1.524 . S
C1241 C1238 1.403 . S
C1241 C1242 1.392 . S
C1241 C1245 1.495 . S
C1242 C1241 1.392 . S
C1242 C1243 1.385 . S
C1242 C1244 1.478 . S
C1243 H1237 0.930 . S
C1243 C1239 1.400 . S
C1243 C1242 1.385 . S
C1244 C1242 1.478 . S
C1244 C1246 1.381 . S
C1244 C1250 1.383 . S
C1245 C1241 1.495 . S
C1245 H1251 0.959 . S
C1245 H1252 0.961 . S
C1245 H1253 0.960 . S
C1246 C1244 1.381 . S
C1246 C1247 1.394 . S
C1246 H1254 0.930 . S
C1247 C1246 1.394 . S
C1247 C1248 1.383 . S
C1247 H1255 0.929 . S
C1248 C1247 1.383 . S
C1248 C1249 1.377 . S
C1249 H1233 0.930 . S
C1249 C1248 1.377 . S
C1249 C1250 1.379 . S
C1250 H1234 0.931 . S
C1250 C1244 1.383 . S
C1250 C1249 1.379 . S
H1251 C1245 0.959 . S
H1252 C1245 0.961 . S
H1253 C1245 0.960 . S
H1254 C1246 0.930 . S
H1255 C1247 0.929 . S
H1256 C1264 0.929 . S
H1257 C1266 0.930 . S
H1258 C1268 0.930 . S
H1259 C1271 0.929 . S
H1260 C1274 0.930 . S
H1261 C1276 0.960 . S
H1262 C1276 0.960 . S
H1263 C1276 0.960 . S
C1264 H1256 0.929 . S
C1264 C1265 1.377 . S
C1264 C1266 1.384 . S
C1265 C1264 1.377 . S
C1265 C1271 1.390 . S
C1266 H1257 0.930 . S
C1266 C1264 1.384 . S
C1266 C1267 1.372 . S
C1267 C1266 1.372 . S
C1267 C1268 1.400 . S
C1267 C1272 1.490 . S
C1268 H1258 0.930 . S
C1268 C1267 1.400 . S
C1268 C1271 1.386 . S
H1269 C1285 0.930 . S
H1270 C1286 0.931 . S
C1271 H1259 0.929 . S
C1271 C1265 1.390 . S
C1271 C1268 1.386 . S
C1272 C1267 1.490 . S
C1272 C1274 1.395 . S
C1272 C1275 1.403 . S
H1273 C1279 0.930 . S
C1274 H1260 0.930 . S
C1274 C1272 1.395 . S
C1274 C1277 1.403 1_545 S
C1275 C1272 1.403 . S
C1275 C1276 1.524 . S
C1275 C1279 1.400 1_545 S
C1276 H1261 0.960 . S
C1276 H1262 0.960 . S
C1276 H1263 0.960 . S
C1276 C1275 1.524 . S
C1277 C1274 1.403 1_565 S
C1277 C1278 1.392 . S
C1277 C1281 1.495 . S
C1278 C1277 1.392 . S
C1278 C1279 1.385 . S
C1278 C1280 1.478 . S
C1279 H1273 0.930 . S
C1279 C1275 1.400 1_565 S
C1279 C1278 1.385 . S
C1280 C1278 1.478 . S
C1280 C1282 1.381 . S
C1280 C1286 1.383 . S
C1281 C1277 1.495 . S
C1281 H1287 0.959 . S
C1281 H1288 0.961 . S
C1281 H1289 0.960 . S
C1282 C1280 1.381 . S
C1282 C1283 1.394 . S
C1282 H1290 0.930 . S
C1283 C1282 1.394 . S
C1283 C1284 1.383 . S
C1283 H1291 0.929 . S
C1284 C1283 1.383 . S
C1284 C1285 1.377 . S
C1285 H1269 0.930 . S
C1285 C1284 1.377 . S
C1285 C1286 1.379 . S
C1286 H1270 0.931 . S
C1286 C1280 1.383 . S
C1286 C1285 1.379 . S
H1287 C1281 0.959 . S
H1288 C1281 0.961 . S
H1289 C1281 0.960 . S
H1290 C1282 0.930 . S
H1291 C1283 0.929 . S
H1292 C1300 0.929 . S
H1293 C1302 0.930 . S
H1294 C1304 0.930 . S
H1295 C1307 0.929 . S
H1296 C1310 0.930 . S
H1297 C1312 0.960 . S
H1298 C1312 0.960 . S
H1299 C1312 0.960 . S
C1300 H1292 0.929 . S
C1300 C1301 1.377 . S
C1300 C1302 1.384 . S
C1301 C1300 1.377 . S
C1301 C1307 1.390 . S
C1302 H1293 0.930 . S
C1302 C1300 1.384 . S
C1302 C1303 1.372 . S
C1303 C1302 1.372 . S
C1303 C1304 1.400 . S
C1303 C1308 1.490 . S
C1304 H1294 0.930 . S
C1304 C1303 1.400 . S
C1304 C1307 1.386 . S
H1305 C1321 0.930 . S
H1306 C1322 0.931 . S
C1307 H1295 0.929 . S
C1307 C1301 1.390 . S
C1307 C1304 1.386 . S
C1308 C1303 1.490 . S
C1308 C1310 1.395 . S
C1308 C1311 1.403 . S
H1309 C1315 0.930 . S
C1310 H1296 0.930 . S
C1310 C1308 1.395 . S
C1310 C1313 1.403 . S
C1311 C1308 1.403 . S
C1311 C1312 1.524 . S
C1311 C1315 1.400 . S
C1312 H1297 0.960 . S
C1312 H1298 0.960 . S
C1312 H1299 0.960 . S
C1312 C1311 1.524 . S
C1313 C1310 1.403 . S
C1313 C1314 1.392 . S
C1313 C1317 1.495 . S
C1314 C1313 1.392 . S
C1314 C1315 1.385 . S
C1314 C1316 1.478 . S
C1315 H1309 0.930 . S
C1315 C1311 1.400 . S
C1315 C1314 1.385 . S
C1316 C1314 1.478 . S
C1316 C1318 1.381 . S
C1316 C1322 1.383 . S
C1317 C1313 1.495 . S
C1317 H1323 0.959 . S
C1317 H1324 0.961 . S
C1317 H1325 0.960 . S
C1318 C1316 1.381 . S
C1318 C1319 1.394 . S
C1318 H1326 0.930 . S
C1319 C1318 1.394 . S
C1319 C1320 1.383 . S
C1319 H1327 0.929 . S
C1320 C1319 1.383 . S
C1320 C1321 1.377 . S
C1321 H1305 0.930 . S
C1321 C1320 1.377 . S
C1321 C1322 1.379 . S
C1322 H1306 0.931 . S
C1322 C1316 1.383 . S
C1322 C1321 1.379 . S
H1323 C1317 0.959 . S
H1324 C1317 0.961 . S
H1325 C1317 0.960 . S
H1326 C1318 0.930 . S
H1327 C1319 0.929 . S
H1328 C1336 0.929 . S
H1329 C1338 0.930 . S
H1330 C1340 0.930 . S
H1331 C1343 0.929 . S
H1332 C1346 0.930 . S
H1333 C1348 0.960 . S
H1334 C1348 0.960 . S
H1335 C1348 0.960 . S
C1336 H1328 0.929 . S
C1336 C1337 1.377 . S
C1336 C1338 1.384 . S
C1337 C1336 1.377 . S
C1337 C1343 1.390 . S
C1338 H1329 0.930 . S
C1338 C1336 1.384 . S
C1338 C1339 1.372 . S
C1339 C1338 1.372 . S
C1339 C1340 1.400 . S
C1339 C1344 1.490 . S
C1340 H1330 0.930 . S
C1340 C1339 1.400 . S
C1340 C1343 1.386 . S
H1341 C1357 0.930 . S
H1342 C1358 0.931 . S
C1343 H1331 0.929 . S
C1343 C1337 1.390 . S
C1343 C1340 1.386 . S
C1344 C1339 1.490 . S
C1344 C1346 1.395 . S
C1344 C1347 1.403 . S
H1345 C1351 0.930 . S
C1346 H1332 0.930 . S
C1346 C1344 1.395 . S
C1346 C1349 1.403 . S
C1347 C1344 1.403 . S
C1347 C1348 1.524 . S
C1347 C1351 1.400 . S
C1348 H1333 0.960 . S
C1348 H1334 0.960 . S
C1348 H1335 0.960 . S
C1348 C1347 1.524 . S
C1349 C1346 1.403 . S
C1349 C1350 1.392 . S
C1349 C1353 1.495 . S
C1350 C1349 1.392 . S
C1350 C1351 1.385 . S
C1350 C1352 1.478 . S
C1351 H1345 0.930 . S
C1351 C1347 1.400 . S
C1351 C1350 1.385 . S
C1352 C1350 1.478 . S
C1352 C1354 1.381 . S
C1352 C1358 1.383 . S
C1353 C1349 1.495 . S
C1353 H1359 0.959 . S
C1353 H1360 0.961 . S
C1353 H1361 0.960 . S
C1354 C1352 1.381 . S
C1354 C1355 1.394 . S
C1354 H1362 0.930 . S
C1355 C1354 1.394 . S
C1355 C1356 1.383 . S
C1355 H1363 0.929 . S
C1356 C1355 1.383 . S
C1356 C1357 1.377 . S
C1357 H1341 0.930 . S
C1357 C1356 1.377 . S
C1357 C1358 1.379 . S
C1358 H1342 0.931 . S
C1358 C1352 1.383 . S
C1358 C1357 1.379 . S
H1359 C1353 0.959 . S
H1360 C1353 0.961 . S
H1361 C1353 0.960 . S
H1362 C1354 0.930 . S
H1363 C1355 0.929 . S
H1364 C1372 0.929 . S
H1365 C1374 0.930 . S
H1366 C1376 0.930 . S
H1367 C1379 0.929 . S
H1368 C1382 0.930 . S
H1369 C1384 0.960 . S
H1370 C1384 0.960 . S
H1371 C1384 0.960 . S
C1372 H1364 0.929 . S
C1372 C1373 1.377 . S
C1372 C1374 1.384 . S
C1373 C1372 1.377 . S
C1373 C1379 1.390 . S
C1374 H1365 0.930 . S
C1374 C1372 1.384 . S
C1374 C1375 1.372 . S
C1375 C1374 1.372 . S
C1375 C1376 1.400 . S
C1375 C1380 1.490 . S
C1376 H1366 0.930 . S
C1376 C1375 1.400 . S
C1376 C1379 1.386 . S
H1377 C1393 0.930 . S
H1378 C1394 0.931 . S
C1379 H1367 0.929 . S
C1379 C1373 1.390 . S
C1379 C1376 1.386 . S
C1380 C1375 1.490 . S
C1380 C1382 1.395 . S
C1380 C1383 1.403 . S
H1381 C1387 0.930 . S
C1382 H1368 0.930 . S
C1382 C1380 1.395 . S
C1382 C1385 1.403 . S
C1383 C1380 1.403 . S
C1383 C1384 1.524 . S
C1383 C1387 1.400 . S
C1384 H1369 0.960 . S
C1384 H1370 0.960 . S
C1384 H1371 0.960 . S
C1384 C1383 1.524 . S
C1385 C1382 1.403 . S
C1385 C1386 1.392 . S
C1385 C1389 1.495 . S
C1386 C1385 1.392 . S
C1386 C1387 1.385 . S
C1386 C1388 1.478 . S
C1387 H1381 0.930 . S
C1387 C1383 1.400 . S
C1387 C1386 1.385 . S
C1388 C1386 1.478 . S
C1388 C1390 1.381 . S
C1388 C1394 1.383 . S
C1389 C1385 1.495 . S
C1389 H1395 0.959 . S
C1389 H1396 0.961 . S
C1389 H1397 0.960 . S
C1390 C1388 1.381 . S
C1390 C1391 1.394 . S
C1390 H1398 0.930 . S
C1391 C1390 1.394 . S
C1391 C1392 1.383 . S
C1391 H1399 0.929 . S
C1392 C1391 1.383 . S
C1392 C1393 1.377 . S
C1393 H1377 0.930 . S
C1393 C1392 1.377 . S
C1393 C1394 1.379 . S
C1394 H1378 0.931 . S
C1394 C1388 1.383 . S
C1394 C1393 1.379 . S
H1395 C1389 0.959 . S
H1396 C1389 0.961 . S
H1397 C1389 0.960 . S
H1398 C1390 0.930 . S
H1399 C1391 0.929 . S
H1400 C1408 0.929 . S
H1401 C1410 0.930 . S
H1402 C1412 0.930 . S
H1403 C1415 0.929 . S
H1404 C1418 0.930 . S
H1405 C1420 0.960 . S
H1406 C1420 0.960 . S
H1407 C1420 0.960 . S
C1408 H1400 0.929 . S
C1408 C1409 1.377 . S
C1408 C1410 1.384 . S
C1409 C1408 1.377 . S
C1409 C1415 1.390 . S
C1410 H1401 0.930 . S
C1410 C1408 1.384 . S
C1410 C1411 1.372 . S
C1411 C1410 1.372 . S
C1411 C1412 1.400 . S
C1411 C1416 1.490 . S
C1412 H1402 0.930 . S
C1412 C1411 1.400 . S
C1412 C1415 1.386 . S
H1413 C1429 0.930 . S
H1414 C1430 0.931 . S
C1415 H1403 0.929 . S
C1415 C1409 1.390 . S
C1415 C1412 1.386 . S
C1416 C1411 1.490 . S
C1416 C1418 1.395 . S
C1416 C1419 1.403 . S
H1417 C1423 0.930 . S
C1418 H1404 0.930 . S
C1418 C1416 1.395 . S
C1418 C1421 1.403 . S
C1419 C1416 1.403 . S
C1419 C1420 1.524 . S
C1419 C1423 1.400 . S
C1420 H1405 0.960 . S
C1420 H1406 0.960 . S
C1420 H1407 0.960 . S
C1420 C1419 1.524 . S
C1421 C1418 1.403 . S
C1421 C1422 1.392 . S
C1421 C1425 1.495 . S
C1422 C1421 1.392 . S
C1422 C1423 1.385 . S
C1422 C1424 1.478 . S
C1423 H1417 0.930 . S
C1423 C1419 1.400 . S
C1423 C1422 1.385 . S
C1424 C1422 1.478 . S
C1424 C1426 1.381 . S
C1424 C1430 1.383 . S
C1425 C1421 1.495 . S
C1425 H1431 0.959 . S
C1425 H1432 0.961 . S
C1425 H1433 0.960 . S
C1426 C1424 1.381 . S
C1426 C1427 1.394 . S
C1426 H1434 0.930 . S
C1427 C1426 1.394 . S
C1427 C1428 1.383 . S
C1427 H1435 0.929 . S
C1428 C1427 1.383 . S
C1428 C1429 1.377 . S
C1429 H1413 0.930 . S
C1429 C1428 1.377 . S
C1429 C1430 1.379 . S
C1430 H1414 0.931 . S
C1430 C1424 1.383 . S
C1430 C1429 1.379 . S
H1431 C1425 0.959 . S
H1432 C1425 0.961 . S
H1433 C1425 0.960 . S
H1434 C1426 0.930 . S
H1435 C1427 0.929 . S
H1436 C1444 0.929 . S
H1437 C1446 0.930 . S
H1438 C1448 0.930 . S
H1439 C1451 0.929 . S
H1440 C1454 0.930 . S
H1441 C1456 0.960 . S
H1442 C1456 0.960 . S
H1443 C1456 0.960 . S
C1444 H1436 0.929 . S
C1444 C1445 1.377 1_655 S
C1444 C1446 1.384 . S
C1445 C1444 1.377 1_455 S
C1445 C1451 1.390 . S
C1446 H1437 0.930 . S
C1446 C1444 1.384 . S
C1446 C1447 1.372 1_655 S
C1447 C1446 1.372 1_455 S
C1447 C1448 1.400 . S
C1447 C1452 1.490 . S
C1448 H1438 0.930 . S
C1448 C1447 1.400 . S
C1448 C1451 1.386 . S
H1449 C1465 0.930 . S
H1450 C1466 0.931 . S
C1451 H1439 0.929 . S
C1451 C1445 1.390 . S
C1451 C1448 1.386 . S
C1452 C1447 1.490 . S
C1452 C1454 1.395 1_455 S
C1452 C1455 1.403 1_556 S
H1453 C1459 0.930 . S
C1454 H1440 0.930 . S
C1454 C1452 1.395 1_655 S
C1454 C1457 1.403 . S
C1455 C1452 1.403 1_554 S
C1455 C1456 1.524 . S
C1455 C1459 1.400 . S
C1456 H1441 0.960 . S
C1456 H1442 0.960 . S
C1456 H1443 0.960 . S
C1456 C1455 1.524 . S
C1457 C1454 1.403 . S
C1457 C1458 1.375 1_656 S
C1457 C1461 1.495 . S
C1458 C1457 1.375 1_454 S
C1458 C1459 1.403 . S
C1458 C1460 1.480 . S
C1459 H1453 0.930 . S
C1459 C1455 1.400 . S
C1459 C1458 1.403 . S
C1460 C1458 1.480 . S
C1460 C1462 1.381 1_455 S
C1460 C1466 1.383 . S
C1461 C1457 1.495 . S
C1461 H1467 0.959 . S
C1461 H1468 0.961 . S
C1461 H1469 0.960 . S
C1462 C1460 1.381 1_655 S
C1462 C1463 1.394 . S
C1462 H1470 0.930 . S
C1463 C1462 1.394 . S
C1463 C1464 1.383 1_655 S
C1463 H1471 0.929 . S
C1464 C1463 1.383 1_455 S
C1464 C1465 1.377 . S
C1465 H1449 0.930 . S
C1465 C1464 1.377 . S
C1465 C1466 1.379 . S
C1466 H1450 0.931 . S
C1466 C1460 1.383 . S
C1466 C1465 1.379 . S
H1467 C1461 0.959 . S
H1468 C1461 0.961 . S
H1469 C1461 0.960 . S
H1470 C1462 0.930 . S
H1471 C1463 0.929 . S
H1472 C1480 0.929 . S
H1473 C1482 0.930 . S
H1474 C1484 0.930 . S
H1475 C1487 0.929 . S
H1476 C1490 0.930 . S
H1477 C1492 0.960 . S
H1478 C1492 0.960 . S
H1479 C1492 0.960 . S
C1480 H1472 0.929 . S
C1480 C1481 1.377 . S
C1480 C1482 1.384 . S
C1481 C1480 1.377 . S
C1481 C1487 1.390 . S
C1482 H1473 0.930 . S
C1482 C1480 1.384 . S
C1482 C1483 1.372 . S
C1483 C1482 1.372 . S
C1483 C1484 1.400 . S
C1483 C1488 1.490 . S
C1484 H1474 0.930 . S
C1484 C1483 1.400 . S
C1484 C1487 1.386 . S
H1485 C1501 0.930 . S
H1486 C1502 0.931 . S
C1487 H1475 0.929 . S
C1487 C1481 1.390 . S
C1487 C1484 1.386 . S
C1488 C1483 1.490 . S
C1488 C1490 1.395 . S
C1488 C1491 1.403 . S
H1489 C1495 0.930 . S
C1490 H1476 0.930 . S
C1490 C1488 1.395 . S
C1490 C1493 1.403 . S
C1491 C1488 1.403 . S
C1491 C1492 1.524 . S
C1491 C1495 1.400 . S
C1492 H1477 0.960 . S
C1492 H1478 0.960 . S
C1492 H1479 0.960 . S
C1492 C1491 1.524 . S
C1493 C1490 1.403 . S
C1493 C1494 1.392 . S
C1493 C1497 1.495 . S
C1494 C1493 1.392 . S
C1494 C1495 1.385 . S
C1494 C1496 1.478 . S
C1495 H1489 0.930 . S
C1495 C1491 1.400 . S
C1495 C1494 1.385 . S
C1496 C1494 1.478 . S
C1496 C1498 1.381 . S
C1496 C1502 1.383 . S
C1497 C1493 1.495 . S
C1497 H1503 0.959 . S
C1497 H1504 0.961 . S
C1497 H1505 0.960 . S
C1498 C1496 1.381 . S
C1498 C1499 1.394 . S
C1498 H1506 0.930 . S
C1499 C1498 1.394 . S
C1499 C1500 1.383 . S
C1499 H1507 0.929 . S
C1500 C1499 1.383 . S
C1500 C1501 1.377 . S
C1501 H1485 0.930 . S
C1501 C1500 1.377 . S
C1501 C1502 1.379 . S
C1502 H1486 0.931 . S
C1502 C1496 1.383 . S
C1502 C1501 1.379 . S
H1503 C1497 0.959 . S
H1504 C1497 0.961 . S
H1505 C1497 0.960 . S
H1506 C1498 0.930 . S
H1507 C1499 0.929 . S
H1508 C1516 0.929 . S
H1509 C1518 0.930 . S
H1510 C1520 0.930 . S
H1511 C1523 0.929 . S
H1512 C1526 0.930 . S
H1513 C1528 0.960 . S
H1514 C1528 0.960 . S
H1515 C1528 0.960 . S
C1516 H1508 0.929 . S
C1516 C1517 1.377 . S
C1516 C1518 1.384 . S
C1517 C1516 1.377 . S
C1517 C1523 1.390 . S
C1518 H1509 0.930 . S
C1518 C1516 1.384 . S
C1518 C1519 1.372 . S
C1519 C1518 1.372 . S
C1519 C1520 1.400 . S
C1519 C1524 1.490 . S
C1520 H1510 0.930 . S
C1520 C1519 1.400 . S
C1520 C1523 1.386 . S
H1521 C1537 0.930 . S
H1522 C1538 0.931 . S
C1523 H1511 0.929 . S
C1523 C1517 1.390 . S
C1523 C1520 1.386 . S
C1524 C1519 1.490 . S
C1524 C1526 1.395 . S
C1524 C1527 1.403 . S
H1525 C1531 0.930 . S
C1526 H1512 0.930 . S
C1526 C1524 1.395 . S
C1526 C1529 1.403 . S
C1527 C1524 1.403 . S
C1527 C1528 1.524 . S
C1527 C1531 1.400 . S
C1528 H1513 0.960 . S
C1528 H1514 0.960 . S
C1528 H1515 0.960 . S
C1528 C1527 1.524 . S
C1529 C1526 1.403 . S
C1529 C1530 1.392 . S
C1529 C1533 1.495 . S
C1530 C1529 1.392 . S
C1530 C1531 1.385 . S
C1530 C1532 1.478 . S
C1531 H1525 0.930 . S
C1531 C1527 1.400 . S
C1531 C1530 1.385 . S
C1532 C1530 1.478 . S
C1532 C1534 1.381 . S
C1532 C1538 1.383 . S
C1533 C1529 1.495 . S
C1533 H1539 0.959 . S
C1533 H1540 0.961 . S
C1533 H1541 0.960 . S
C1534 C1532 1.381 . S
C1534 C1535 1.394 . S
C1534 H1542 0.930 . S
C1535 C1534 1.394 . S
C1535 C1536 1.383 . S
C1535 H1543 0.929 . S
C1536 C1535 1.383 . S
C1536 C1537 1.377 . S
C1537 H1521 0.930 . S
C1537 C1536 1.377 . S
C1537 C1538 1.379 . S
C1538 H1522 0.931 . S
C1538 C1532 1.383 . S
C1538 C1537 1.379 . S
H1539 C1533 0.959 . S
H1540 C1533 0.961 . S
H1541 C1533 0.960 . S
H1542 C1534 0.930 . S
H1543 C1535 0.929 . S
H1544 C1552 0.929 . S
H1545 C1554 0.930 . S
H1546 C1556 0.930 . S
H1547 C1559 0.929 . S
H1548 C1562 0.930 . S
H1549 C1564 0.960 . S
H1550 C1564 0.960 . S
H1551 C1564 0.960 . S
C1552 H1544 0.929 . S
C1552 C1553 1.377 . S
C1552 C1554 1.384 1_554 S
C1553 C1552 1.377 . S
C1553 C1559 1.390 . S
C1554 H1545 0.930 . S
C1554 C1552 1.384 1_556 S
C1554 C1555 1.372 . S
C1555 C1554 1.372 . S
C1555 C1556 1.400 . S
C1555 C1560 1.490 . S
C1556 H1546 0.930 . S
C1556 C1555 1.400 . S
C1556 C1559 1.386 1_556 S
H1557 C1573 0.930 . S
H1558 C1574 0.931 . S
C1559 H1547 0.929 . S
C1559 C1553 1.390 . S
C1559 C1556 1.386 1_554 S
C1560 C1555 1.490 . S
C1560 C1562 1.395 . S
C1560 C1563 1.403 . S
H1561 C1567 0.930 . S
C1562 H1548 0.930 . S
C1562 C1560 1.395 . S
C1562 C1565 1.403 . S
C1563 C1560 1.403 . S
C1563 C1564 1.524 . S
C1563 C1567 1.400 . S
C1564 H1549 0.960 . S
C1564 H1550 0.960 . S
C1564 H1551 0.960 . S
C1564 C1563 1.524 . S
C1565 C1562 1.403 . S
C1565 C1566 1.392 . S
C1565 C1569 1.495 . S
C1566 C1565 1.392 . S
C1566 C1567 1.385 . S
C1566 C1568 1.478 . S
C1567 H1561 0.930 . S
C1567 C1563 1.400 . S
C1567 C1566 1.385 . S
C1568 C1566 1.478 . S
C1568 C1570 1.381 . S
C1568 C1574 1.383 . S
C1569 C1565 1.495 . S
C1569 H1575 0.959 . S
C1569 H1576 0.961 . S
C1569 H1577 0.960 . S
C1570 C1568 1.381 . S
C1570 C1571 1.394 . S
C1570 H1578 0.930 . S
C1571 C1570 1.394 . S
C1571 C1572 1.383 . S
C1571 H1579 0.929 . S
C1572 C1571 1.383 . S
C1572 C1573 1.377 . S
C1573 H1557 0.930 . S
C1573 C1572 1.377 . S
C1573 C1574 1.379 . S
C1574 H1558 0.931 . S
C1574 C1568 1.383 . S
C1574 C1573 1.379 . S
H1575 C1569 0.959 . S
H1576 C1569 0.961 . S
H1577 C1569 0.960 . S
H1578 C1570 0.930 . S
H1579 C1571 0.929 . S
H1580 C1588 0.929 . S
H1581 C1590 0.930 . S
H1582 C1592 0.930 . S
H1583 C1595 0.929 . S
H1584 C1598 0.930 . S
H1585 C1600 0.960 . S
H1586 C1600 0.960 . S
H1587 C1600 0.960 . S
C1588 H1580 0.929 . S
C1588 C1589 1.377 . S
C1588 C1590 1.384 . S
C1589 C1588 1.377 . S
C1589 C1595 1.390 . S
C1590 H1581 0.930 . S
C1590 C1588 1.384 . S
C1590 C1591 1.372 . S
C1591 C1590 1.372 . S
C1591 C1592 1.400 . S
C1591 C1596 1.490 . S
C1592 H1582 0.930 . S
C1592 C1591 1.400 . S
C1592 C1595 1.386 . S
H1593 C1609 0.930 . S
H1594 C1610 0.931 . S
C1595 H1583 0.929 . S
C1595 C1589 1.390 . S
C1595 C1592 1.386 . S
C1596 C1591 1.490 . S
C1596 C1598 1.395 . S
C1596 C1599 1.403 . S
H1597 C1603 0.930 . S
C1598 H1584 0.930 . S
C1598 C1596 1.395 . S
C1598 C1601 1.403 . S
C1599 C1596 1.403 . S
C1599 C1600 1.524 . S
C1599 C1603 1.400 . S
C1600 H1585 0.960 . S
C1600 H1586 0.960 . S
C1600 H1587 0.960 . S
C1600 C1599 1.524 . S
C1601 C1598 1.403 . S
C1601 C1602 1.392 . S
C1601 C1605 1.495 . S
C1602 C1601 1.392 . S
C1602 C1603 1.385 . S
C1602 C1604 1.478 . S
C1603 H1597 0.930 . S
C1603 C1599 1.400 . S
C1603 C1602 1.385 . S
C1604 C1602 1.478 . S
C1604 C1606 1.381 . S
C1604 C1610 1.383 . S
C1605 C1601 1.495 . S
C1605 H1611 0.959 . S
C1605 H1612 0.961 . S
C1605 H1613 0.960 . S
C1606 C1604 1.381 . S
C1606 C1607 1.394 . S
C1606 H1614 0.930 . S
C1607 C1606 1.394 . S
C1607 C1608 1.383 1_554 S
C1607 H1615 0.934 . S
C1608 C1607 1.383 1_556 S
C1608 C1609 1.377 1_556 S
C1609 H1593 0.930 . S
C1609 C1608 1.377 1_554 S
C1609 C1610 1.379 . S
C1610 H1594 0.931 . S
C1610 C1604 1.383 . S
C1610 C1609 1.379 . S
H1611 C1605 0.959 . S
H1612 C1605 0.961 . S
H1613 C1605 0.960 . S
H1614 C1606 0.930 . S
H1615 C1607 0.934 . S
H1616 C1624 0.929 . S
H1617 C1626 0.930 . S
H1618 C1628 0.930 . S
H1619 C1631 0.929 . S
H1620 C1634 0.930 . S
H1621 C1636 0.960 . S
H1622 C1636 0.960 . S
H1623 C1636 0.960 . S
C1624 H1616 0.929 . S
C1624 C1625 1.377 . S
C1624 C1626 1.384 . S
C1625 C1624 1.377 . S
C1625 C1631 1.390 . S
C1626 H1617 0.930 . S
C1626 C1624 1.384 . S
C1626 C1627 1.372 . S
C1627 C1626 1.372 . S
C1627 C1628 1.400 . S
C1627 C1632 1.490 . S
C1628 H1618 0.930 . S
C1628 C1627 1.400 . S
C1628 C1631 1.386 . S
H1629 C1645 0.930 . S
H1630 C1646 0.931 . S
C1631 H1619 0.929 . S
C1631 C1625 1.390 . S
C1631 C1628 1.386 . S
C1632 C1627 1.490 . S
C1632 C1634 1.395 . S
C1632 C1635 1.403 . S
H1633 C1639 0.930 . S
C1634 H1620 0.930 . S
C1634 C1632 1.395 . S
C1634 C1637 1.403 . S
C1635 C1632 1.403 . S
C1635 C1636 1.524 . S
C1635 C1639 1.400 . S
C1636 H1621 0.960 . S
C1636 H1622 0.960 . S
C1636 H1623 0.960 . S
C1636 C1635 1.524 . S
C1637 C1634 1.403 . S
C1637 C1638 1.392 . S
C1637 C1641 1.495 . S
C1638 C1637 1.392 . S
C1638 C1639 1.385 . S
C1638 C1640 1.478 . S
C1639 H1633 0.930 . S
C1639 C1635 1.400 . S
C1639 C1638 1.385 . S
C1640 C1638 1.478 . S
C1640 C1642 1.381 . S
C1640 C1646 1.383 . S
C1641 C1637 1.495 . S
C1641 H1647 0.959 . S
C1641 H1648 0.961 . S
C1641 H1649 0.960 . S
C1642 C1640 1.381 . S
C1642 C1643 1.394 . S
C1642 H1650 0.930 . S
C1643 C1642 1.394 . S
C1643 C1644 1.383 . S
C1643 H1651 0.929 . S
C1644 C1643 1.383 . S
C1644 C1645 1.377 . S
C1645 H1629 0.930 . S
C1645 C1644 1.377 . S
C1645 C1646 1.379 . S
C1646 H1630 0.931 . S
C1646 C1640 1.383 . S
C1646 C1645 1.379 . S
H1647 C1641 0.959 . S
H1648 C1641 0.961 . S
H1649 C1641 0.960 . S
H1650 C1642 0.930 . S
H1651 C1643 0.929 . S
H1652 C1660 0.929 . S
H1653 C1662 0.930 . S
H1654 C1664 0.930 . S
H1655 C1667 0.929 . S
H1656 C1670 0.930 . S
H1657 C1672 0.960 . S
H1658 C1672 0.960 . S
H1659 C1672 0.960 . S
C1660 H1652 0.929 . S
C1660 C1661 1.377 . S
C1660 C1662 1.384 . S
C1661 C1660 1.377 . S
C1661 C1667 1.390 . S
C1662 H1653 0.930 . S
C1662 C1660 1.384 . S
C1662 C1663 1.372 . S
C1663 C1662 1.372 . S
C1663 C1664 1.400 . S
C1663 C1668 1.490 . S
C1664 H1654 0.930 . S
C1664 C1663 1.400 . S
C1664 C1667 1.386 . S
H1665 C1681 0.930 . S
H1666 C1682 0.931 . S
C1667 H1655 0.929 . S
C1667 C1661 1.390 . S
C1667 C1664 1.386 . S
C1668 C1663 1.490 . S
C1668 C1670 1.395 . S
C1668 C1671 1.403 . S
H1669 C1675 0.930 . S
C1670 H1656 0.930 . S
C1670 C1668 1.395 . S
C1670 C1673 1.403 . S
C1671 C1668 1.403 . S
C1671 C1672 1.524 . S
C1671 C1675 1.400 . S
C1672 H1657 0.960 . S
C1672 H1658 0.960 . S
C1672 H1659 0.960 . S
C1672 C1671 1.524 . S
C1673 C1670 1.403 . S
C1673 C1674 1.392 . S
C1673 C1677 1.495 . S
C1674 C1673 1.392 . S
C1674 C1675 1.385 . S
C1674 C1676 1.478 . S
C1675 H1669 0.930 . S
C1675 C1671 1.400 . S
C1675 C1674 1.385 . S
C1676 C1674 1.478 . S
C1676 C1678 1.381 . S
C1676 C1682 1.383 . S
C1677 C1673 1.495 . S
C1677 H1683 0.959 . S
C1677 H1684 0.961 . S
C1677 H1685 0.960 . S
C1678 C1676 1.381 . S
C1678 C1679 1.394 . S
C1678 H1686 0.930 . S
C1679 C1678 1.394 . S
C1679 C1680 1.383 . S
C1679 H1687 0.929 . S
C1680 C1679 1.383 . S
C1680 C1681 1.377 . S
C1681 H1665 0.930 . S
C1681 C1680 1.377 . S
C1681 C1682 1.379 . S
C1682 H1666 0.931 . S
C1682 C1676 1.383 . S
C1682 C1681 1.379 . S
H1683 C1677 0.959 . S
H1684 C1677 0.961 . S
H1685 C1677 0.960 . S
H1686 C1678 0.930 . S
H1687 C1679 0.929 . S
H1688 C1696 0.929 . S
H1689 C1698 0.930 . S
H1690 C1700 0.930 . S
H1691 C1703 0.929 . S
H1692 C1706 0.930 . S
H1693 C1708 0.960 . S
H1694 C1708 0.960 . S
H1695 C1708 0.960 . S
C1696 H1688 0.929 . S
C1696 C1697 1.377 . S
C1696 C1698 1.384 1_556 S
C1697 C1696 1.377 . S
C1697 C1703 1.390 1_556 S
C1698 H1689 0.930 . S
C1698 C1696 1.384 1_554 S
C1698 C1699 1.372 . S
C1699 C1698 1.372 . S
C1699 C1700 1.400 . S
C1699 C1704 1.490 . S
C1700 H1690 0.930 . S
C1700 C1699 1.400 . S
C1700 C1703 1.386 . S
H1701 C1717 0.930 . S
H1702 C1718 0.931 . S
C1703 H1691 0.929 . S
C1703 C1697 1.390 1_554 S
C1703 C1700 1.386 . S
C1704 C1699 1.490 . S
C1704 C1706 1.395 . S
C1704 C1707 1.403 . S
H1705 C1711 0.930 . S
C1706 H1692 0.930 . S
C1706 C1704 1.395 . S
C1706 C1709 1.403 . S
C1707 C1704 1.403 . S
C1707 C1708 1.524 . S
C1707 C1711 1.400 . S
C1708 H1693 0.960 . S
C1708 H1694 0.960 . S
C1708 H1695 0.960 . S
C1708 C1707 1.524 . S
C1709 C1706 1.403 . S
C1709 C1710 1.392 . S
C1709 C1713 1.495 . S
C1710 C1709 1.392 . S
C1710 C1711 1.385 . S
C1710 C1712 1.478 . S
C1711 H1705 0.930 . S
C1711 C1707 1.400 . S
C1711 C1710 1.385 . S
C1712 C1710 1.478 . S
C1712 C1714 1.381 . S
C1712 C1718 1.383 . S
C1713 C1709 1.495 . S
C1713 H1719 0.959 . S
C1713 H1720 0.961 . S
C1713 H1721 0.960 . S
C1714 C1712 1.381 . S
C1714 C1715 1.394 . S
C1714 H1722 0.930 . S
C1715 C1714 1.394 . S
C1715 C1716 1.383 . S
C1715 H1723 0.929 . S
C1716 C1715 1.383 . S
C1716 C1717 1.377 . S
C1717 H1701 0.930 . S
C1717 C1716 1.377 . S
C1717 C1718 1.379 . S
C1718 H1702 0.931 . S
C1718 C1712 1.383 . S
C1718 C1717 1.379 . S
H1719 C1713 0.959 . S
H1720 C1713 0.961 . S
H1721 C1713 0.960 . S
H1722 C1714 0.930 . S
H1723 C1715 0.929 . S
H1724 C1732 0.929 . S
H1725 C1734 0.930 . S
H1726 C1736 0.930 . S
H1727 C1739 0.929 . S
H1728 C1742 0.930 . S
H1729 C1744 0.960 . S
H1730 C1744 0.960 . S
H1731 C1744 0.960 . S
C1732 H1724 0.929 . S
C1732 C1733 1.377 . S
C1732 C1734 1.384 . S
C1733 C1732 1.377 . S
C1733 C1739 1.390 . S
C1734 H1725 0.930 . S
C1734 C1732 1.384 . S
C1734 C1735 1.372 . S
C1735 C1734 1.372 . S
C1735 C1736 1.400 . S
C1735 C1740 1.490 . S
C1736 H1726 0.930 . S
C1736 C1735 1.400 . S
C1736 C1739 1.386 . S
H1737 C1753 0.930 . S
H1738 C1754 0.931 . S
C1739 H1727 0.929 . S
C1739 C1733 1.390 . S
C1739 C1736 1.386 . S
C1740 C1735 1.490 . S
C1740 C1742 1.395 . S
C1740 C1743 1.403 . S
H1741 C1747 0.930 . S
C1742 H1728 0.930 . S
C1742 C1740 1.395 . S
C1742 C1745 1.403 . S
C1743 C1740 1.403 . S
C1743 C1744 1.524 . S
C1743 C1747 1.400 . S
C1744 H1729 0.960 . S
C1744 H1730 0.960 . S
C1744 H1731 0.960 . S
C1744 C1743 1.524 . S
C1745 C1742 1.403 . S
C1745 C1746 1.392 . S
C1745 C1749 1.495 . S
C1746 C1745 1.392 . S
C1746 C1747 1.385 . S
C1746 C1748 1.478 . S
C1747 H1741 0.930 . S
C1747 C1743 1.400 . S
C1747 C1746 1.385 . S
C1748 C1746 1.478 . S
C1748 C1750 1.381 . S
C1748 C1754 1.383 . S
C1749 C1745 1.495 . S
C1749 H1755 0.959 . S
C1749 H1756 0.961 . S
C1749 H1757 0.960 . S
C1750 C1748 1.381 . S
C1750 C1751 1.394 . S
C1750 H1758 0.930 . S
C1751 C1750 1.394 . S
C1751 C1752 1.383 1_556 S
C1751 H1759 0.929 . S
C1752 C1751 1.383 1_554 S
C1752 C1753 1.377 . S
C1753 H1737 0.930 . S
C1753 C1752 1.377 . S
C1753 C1754 1.379 1_554 S
C1754 H1738 0.931 . S
C1754 C1748 1.383 . S
C1754 C1753 1.379 1_556 S
H1755 C1749 0.959 . S
H1756 C1749 0.961 . S
H1757 C1749 0.960 . S
H1758 C1750 0.930 . S
H1759 C1751 0.929 . S
H1760 C1768 0.929 . S
H1761 C1770 0.930 . S
H1762 C1772 0.930 . S
H1763 C1775 0.929 . S
H1764 C1778 0.930 . S
H1765 C1780 0.960 . S
H1766 C1780 0.960 . S
H1767 C1780 0.960 . S
C1768 H1760 0.929 . S
C1768 C1769 1.377 . S
C1768 C1770 1.384 . S
C1769 C1768 1.377 . S
C1769 C1775 1.390 . S
C1770 H1761 0.930 . S
C1770 C1768 1.384 . S
C1770 C1771 1.372 . S
C1771 C1770 1.372 . S
C1771 C1772 1.400 . S
C1771 C1776 1.490 . S
C1772 H1762 0.930 . S
C1772 C1771 1.400 . S
C1772 C1775 1.386 . S
H1773 C1789 0.930 . S
H1774 C1790 0.931 . S
C1775 H1763 0.929 . S
C1775 C1769 1.390 . S
C1775 C1772 1.386 . S
C1776 C1771 1.490 . S
C1776 C1778 1.395 . S
C1776 C1779 1.403 . S
H1777 C1783 0.930 . S
C1778 H1764 0.930 . S
C1778 C1776 1.395 . S
C1778 C1781 1.403 . S
C1779 C1776 1.403 . S
C1779 C1780 1.524 . S
C1779 C1783 1.400 . S
C1780 H1765 0.960 . S
C1780 H1766 0.960 . S
C1780 H1767 0.960 . S
C1780 C1779 1.524 . S
C1781 C1778 1.403 . S
C1781 C1782 1.392 . S
C1781 C1785 1.495 . S
C1782 C1781 1.392 . S
C1782 C1783 1.385 . S
C1782 C1784 1.478 . S
C1783 H1777 0.930 . S
C1783 C1779 1.400 . S
C1783 C1782 1.385 . S
C1784 C1782 1.478 . S
C1784 C1786 1.381 . S
C1784 C1790 1.383 . S
C1785 C1781 1.495 . S
C1785 H1791 0.959 . S
C1785 H1792 0.961 . S
C1785 H1793 0.960 . S
C1786 C1784 1.381 . S
C1786 C1787 1.394 . S
C1786 H1794 0.930 . S
C1787 C1786 1.394 . S
C1787 C1788 1.383 . S
C1787 H1795 0.929 1_556 S
C1788 C1787 1.383 . S
C1788 C1789 1.377 . S
C1789 H1773 0.930 . S
C1789 C1788 1.377 . S
C1789 C1790 1.379 . S
C1790 H1774 0.931 . S
C1790 C1784 1.383 . S
C1790 C1789 1.379 . S
H1791 C1785 0.959 . S
H1792 C1785 0.961 . S
H1793 C1785 0.960 . S
H1794 C1786 0.930 . S
H1795 C1787 0.929 1_554 S
H1796 C1804 0.929 . S
H1797 C1806 0.930 . S
H1798 C1808 0.930 . S
H1799 C1811 0.929 . S
H1800 C1814 0.930 . S
H1801 C1816 0.960 . S
H1802 C1816 0.960 . S
H1803 C1816 0.960 . S
C1804 H1796 0.929 . S
C1804 C1805 1.377 . S
C1804 C1806 1.384 . S
C1805 C1804 1.377 . S
C1805 C1811 1.390 . S
C1806 H1797 0.930 . S
C1806 C1804 1.384 . S
C1806 C1807 1.372 . S
C1807 C1806 1.372 . S
C1807 C1808 1.400 . S
C1807 C1812 1.490 . S
C1808 H1798 0.930 . S
C1808 C1807 1.400 . S
C1808 C1811 1.386 . S
H1809 C1825 0.930 . S
H1810 C1826 0.931 . S
C1811 H1799 0.929 . S
C1811 C1805 1.390 . S
C1811 C1808 1.386 . S
C1812 C1807 1.490 . S
C1812 C1814 1.395 . S
C1812 C1815 1.403 . S
H1813 C1819 0.930 . S
C1814 H1800 0.930 . S
C1814 C1812 1.395 . S
C1814 C1817 1.403 . S
C1815 C1812 1.403 . S
C1815 C1816 1.524 . S
C1815 C1819 1.400 . S
C1816 H1801 0.960 . S
C1816 H1802 0.960 . S
C1816 H1803 0.960 . S
C1816 C1815 1.524 . S
C1817 C1814 1.403 . S
C1817 C1818 1.392 . S
C1817 C1821 1.495 . S
C1818 C1817 1.392 . S
C1818 C1819 1.385 . S
C1818 C1820 1.478 . S
C1819 H1813 0.930 . S
C1819 C1815 1.400 . S
C1819 C1818 1.385 . S
C1820 C1818 1.478 . S
C1820 C1822 1.381 . S
C1820 C1826 1.383 . S
C1821 C1817 1.495 . S
C1821 H1827 0.959 . S
C1821 H1828 0.961 . S
C1821 H1829 0.960 . S
C1822 C1820 1.381 . S
C1822 C1823 1.394 1_554 S
C1822 H1830 0.930 . S
C1823 C1822 1.394 1_556 S
C1823 C1824 1.383 . S
C1823 H1831 0.929 . S
C1824 C1823 1.383 . S
C1824 C1825 1.377 1_556 S
C1825 H1809 0.930 . S
C1825 C1824 1.377 1_554 S
C1825 C1826 1.379 . S
C1826 H1810 0.931 . S
C1826 C1820 1.383 . S
C1826 C1825 1.379 . S
H1827 C1821 0.959 . S
H1828 C1821 0.961 . S
H1829 C1821 0.960 . S
H1830 C1822 0.930 . S
H1831 C1823 0.929 . S
H1832 C1840 0.929 . S
H1833 C1842 0.930 . S
H1834 C1844 0.930 . S
H1835 C1847 0.929 . S
H1836 C1850 0.930 . S
H1837 C1852 0.960 . S
H1838 C1852 0.960 . S
H1839 C1852 0.960 . S
C1840 H1832 0.929 . S
C1840 C1841 1.377 . S
C1840 C1842 1.384 . S
C1841 C1840 1.377 . S
C1841 C1847 1.390 . S
C1842 H1833 0.930 . S
C1842 C1840 1.384 . S
C1842 C1843 1.372 . S
C1843 C1842 1.372 . S
C1843 C1844 1.400 . S
C1843 C1848 1.490 . S
C1844 H1834 0.930 . S
C1844 C1843 1.400 . S
C1844 C1847 1.386 . S
H1845 C1861 0.930 . S
H1846 C1862 0.931 . S
C1847 H1835 0.929 . S
C1847 C1841 1.390 . S
C1847 C1844 1.386 . S
C1848 C1843 1.490 . S
C1848 C1850 1.395 . S
C1848 C1851 1.403 . S
H1849 C1855 0.930 . S
C1850 H1836 0.930 . S
C1850 C1848 1.395 . S
C1850 C1853 1.403 . S
C1851 C1848 1.403 . S
C1851 C1852 1.524 . S
C1851 C1855 1.400 . S
C1852 H1837 0.960 . S
C1852 H1838 0.960 . S
C1852 H1839 0.960 . S
C1852 C1851 1.524 . S
C1853 C1850 1.403 . S
C1853 C1854 1.392 . S
C1853 C1857 1.495 . S
C1854 C1853 1.392 . S
C1854 C1855 1.385 . S
C1854 C1856 1.478 . S
C1855 H1849 0.930 . S
C1855 C1851 1.400 . S
C1855 C1854 1.385 . S
C1856 C1854 1.478 . S
C1856 C1858 1.381 . S
C1856 C1862 1.383 . S
C1857 C1853 1.495 . S
C1857 H1863 0.959 . S
C1857 H1864 0.961 . S
C1857 H1865 0.960 . S
C1858 C1856 1.381 . S
C1858 C1859 1.394 . S
C1858 H1866 0.930 . S
C1859 C1858 1.394 . S
C1859 C1860 1.383 . S
C1859 H1867 0.929 . S
C1860 C1859 1.383 . S
C1860 C1861 1.377 . S
C1861 H1845 0.930 . S
C1861 C1860 1.377 . S
C1861 C1862 1.379 . S
C1862 H1846 0.931 . S
C1862 C1856 1.383 . S
C1862 C1861 1.379 . S
H1863 C1857 0.959 . S
H1864 C1857 0.961 . S
H1865 C1857 0.960 . S
H1866 C1858 0.930 . S
H1867 C1859 0.929 . S
H1868 C1876 0.929 . S
H1869 C1878 0.930 . S
H1870 C1880 0.930 . S
H1871 C1883 0.929 . S
H1872 C1886 0.930 . S
H1873 C1888 0.960 . S
H1874 C1888 0.960 . S
H1875 C1888 0.960 . S
C1876 H1868 0.929 . S
C1876 C1877 1.377 . S
C1876 C1878 1.384 . S
C1877 C1876 1.377 . S
C1877 C1883 1.390 . S
C1878 H1869 0.930 . S
C1878 C1876 1.384 . S
C1878 C1879 1.372 . S
C1879 C1878 1.372 . S
C1879 C1880 1.400 . S
C1879 C1884 1.490 . S
C1880 H1870 0.930 . S
C1880 C1879 1.400 . S
C1880 C1883 1.386 . S
H1881 C1897 0.930 . S
H1882 C1898 0.931 . S
C1883 H1871 0.929 . S
C1883 C1877 1.390 . S
C1883 C1880 1.386 . S
C1884 C1879 1.490 . S
C1884 C1886 1.395 . S
C1884 C1887 1.403 . S
H1885 C1891 0.930 . S
C1886 H1872 0.930 . S
C1886 C1884 1.395 . S
C1886 C1889 1.403 . S
C1887 C1884 1.403 . S
C1887 C1888 1.524 . S
C1887 C1891 1.400 . S
C1888 H1873 0.960 . S
C1888 H1874 0.960 . S
C1888 H1875 0.960 . S
C1888 C1887 1.524 . S
C1889 C1886 1.403 . S
C1889 C1890 1.392 . S
C1889 C1893 1.495 . S
C1890 C1889 1.392 . S
C1890 C1891 1.385 . S
C1890 C1892 1.478 . S
C1891 H1885 0.930 . S
C1891 C1887 1.400 . S
C1891 C1890 1.385 . S
C1892 C1890 1.478 . S
C1892 C1894 1.381 . S
C1892 C1898 1.383 . S
C1893 C1889 1.495 . S
C1893 H1899 0.959 . S
C1893 H1900 0.961 . S
C1893 H1901 0.960 . S
C1894 C1892 1.381 . S
C1894 C1895 1.394 . S
C1894 H1902 0.930 . S
C1895 C1894 1.394 . S
C1895 C1896 1.383 . S
C1895 H1903 0.929 . S
C1896 C1895 1.383 . S
C1896 C1897 1.377 . S
C1897 H1881 0.930 . S
C1897 C1896 1.377 . S
C1897 C1898 1.379 . S
C1898 H1882 0.931 . S
C1898 C1892 1.383 . S
C1898 C1897 1.379 . S
H1899 C1893 0.959 . S
H1900 C1893 0.961 . S
H1901 C1893 0.960 . S
H1902 C1894 0.930 . S
H1903 C1895 0.929 . S
H1904 C1912 0.929 . S
H1905 C1914 0.930 . S
H1906 C1916 0.930 . S
H1907 C1919 0.929 . S
H1908 C1922 0.930 . S
H1909 C1924 0.960 . S
H1910 C1924 0.960 . S
H1911 C1924 0.960 . S
C1912 H1904 0.929 . S
C1912 C1913 1.377 . S
C1912 C1914 1.384 . S
C1913 C1912 1.377 . S
C1913 C1919 1.390 . S
C1914 H1905 0.930 . S
C1914 C1912 1.384 . S
C1914 C1915 1.372 . S
C1915 C1914 1.372 . S
C1915 C1916 1.400 . S
C1915 C1920 1.490 . S
C1916 H1906 0.930 . S
C1916 C1915 1.400 . S
C1916 C1919 1.386 . S
H1917 C1933 0.930 . S
H1918 C1934 0.931 . S
C1919 H1907 0.929 . S
C1919 C1913 1.390 . S
C1919 C1916 1.386 . S
C1920 C1915 1.490 . S
C1920 C1922 1.395 . S
C1920 C1923 1.403 . S
H1921 C1927 0.930 . S
C1922 H1908 0.930 . S
C1922 C1920 1.395 . S
C1922 C1925 1.403 . S
C1923 C1920 1.403 . S
C1923 C1924 1.524 . S
C1923 C1927 1.400 . S
C1924 H1909 0.960 . S
C1924 H1910 0.960 . S
C1924 H1911 0.960 . S
C1924 C1923 1.524 . S
C1925 C1922 1.403 . S
C1925 C1926 1.392 . S
C1925 C1929 1.495 . S
C1926 C1925 1.392 . S
C1926 C1927 1.385 . S
C1926 C1928 1.478 . S
C1927 H1921 0.930 . S
C1927 C1923 1.400 . S
C1927 C1926 1.385 . S
C1928 C1926 1.478 . S
C1928 C1930 1.381 . S
C1928 C1934 1.383 . S
C1929 C1925 1.495 . S
C1929 H1935 0.959 . S
C1929 H1936 0.961 . S
C1929 H1937 0.960 . S
C1930 C1928 1.381 . S
C1930 C1931 1.394 1_554 S
C1930 H1938 0.930 . S
C1931 C1930 1.394 1_556 S
C1931 C1932 1.383 . S
C1931 H1939 0.929 . S
C1932 C1931 1.383 . S
C1932 C1933 1.377 1_556 S
C1933 H1917 0.930 . S
C1933 C1932 1.377 1_554 S
C1933 C1934 1.379 . S
C1934 H1918 0.931 . S
C1934 C1928 1.383 . S
C1934 C1933 1.379 . S
H1935 C1929 0.959 . S
H1936 C1929 0.961 . S
H1937 C1929 0.960 . S
H1938 C1930 0.930 . S
H1939 C1931 0.929 . S
H1940 C1948 0.929 . S
H1941 C1950 0.930 . S
H1942 C1952 0.930 . S
H1943 C1955 0.929 . S
H1944 C1958 0.930 . S
H1945 C1960 0.960 . S
H1946 C1960 0.960 . S
H1947 C1960 0.960 . S
C1948 H1940 0.929 . S
C1948 C1949 1.377 . S
C1948 C1950 1.384 . S
C1949 C1948 1.377 . S
C1949 C1955 1.390 . S
C1950 H1941 0.930 . S
C1950 C1948 1.384 . S
C1950 C1951 1.372 . S
C1951 C1950 1.372 . S
C1951 C1952 1.400 . S
C1951 C1956 1.490 . S
C1952 H1942 0.930 . S
C1952 C1951 1.400 . S
C1952 C1955 1.386 . S
H1953 C1969 0.930 . S
H1954 C1970 0.931 . S
C1955 H1943 0.929 . S
C1955 C1949 1.390 . S
C1955 C1952 1.386 . S
C1956 C1951 1.490 . S
C1956 C1958 1.395 . S
C1956 C1959 1.403 . S
H1957 C1963 0.930 . S
C1958 H1944 0.930 . S
C1958 C1956 1.395 . S
C1958 C1961 1.403 . S
C1959 C1956 1.403 . S
C1959 C1960 1.524 . S
C1959 C1963 1.400 . S
C1960 H1945 0.960 . S
C1960 H1946 0.960 . S
C1960 H1947 0.960 . S
C1960 C1959 1.524 . S
C1961 C1958 1.403 . S
C1961 C1962 1.392 . S
C1961 C1965 1.495 . S
C1962 C1961 1.392 . S
C1962 C1963 1.385 . S
C1962 C1964 1.478 . S
C1963 H1957 0.930 . S
C1963 C1959 1.400 . S
C1963 C1962 1.385 . S
C1964 C1962 1.478 . S
C1964 C1966 1.381 . S
C1964 C1970 1.383 . S
C1965 C1961 1.495 . S
C1965 H1971 0.959 . S
C1965 H1972 0.961 . S
C1965 H1973 0.960 . S
C1966 C1964 1.381 . S
C1966 C1967 1.394 . S
C1966 H1974 0.930 . S
C1967 C1966 1.394 . S
C1967 C1968 1.383 . S
C1967 H1975 0.929 . S
C1968 C1967 1.383 . S
C1968 C1969 1.377 . S
C1969 H1953 0.930 . S
C1969 C1968 1.377 . S
C1969 C1970 1.379 . S
C1970 H1954 0.931 . S
C1970 C1964 1.383 . S
C1970 C1969 1.379 . S
H1971 C1965 0.959 . S
H1972 C1965 0.961 . S
H1973 C1965 0.960 . S
H1974 C1966 0.930 . S
H1975 C1967 0.929 . S
H1976 C1984 0.929 . S
H1977 C1986 0.930 . S
H1978 C1988 0.930 . S
H1979 C1991 0.929 . S
H1980 C1994 0.930 . S
H1981 C1996 0.960 . S
H1982 C1996 0.960 . S
H1983 C1996 0.960 . S
C1984 H1976 0.929 . S
C1984 C1985 1.377 . S
C1984 C1986 1.384 . S
C1985 C1984 1.377 . S
C1985 C1991 1.390 . S
C1986 H1977 0.930 . S
C1986 C1984 1.384 . S
C1986 C1987 1.372 . S
C1987 C1986 1.372 . S
C1987 C1988 1.400 . S
C1987 C1992 1.490 . S
C1988 H1978 0.930 . S
C1988 C1987 1.400 . S
C1988 C1991 1.386 . S
H1989 C2005 0.930 . S
H1990 C2006 0.931 . S
C1991 H1979 0.929 . S
C1991 C1985 1.390 . S
C1991 C1988 1.386 . S
C1992 C1987 1.490 . S
C1992 C1994 1.395 . S
C1992 C1995 1.403 . S
H1993 C1999 0.930 . S
C1994 H1980 0.930 . S
C1994 C1992 1.395 . S
C1994 C1997 1.403 . S
C1995 C1992 1.403 . S
C1995 C1996 1.524 . S
C1995 C1999 1.400 . S
C1996 H1981 0.960 . S
C1996 H1982 0.960 . S
C1996 H1983 0.960 . S
C1996 C1995 1.524 . S
C1997 C1994 1.403 . S
C1997 C1998 1.392 . S
C1997 C2001 1.495 . S
C1998 C1997 1.392 . S
C1998 C1999 1.385 . S
C1998 C2000 1.478 . S
C1999 H1993 0.930 . S
C1999 C1995 1.400 . S
C1999 C1998 1.385 . S
C2000 C1998 1.478 . S
C2000 C2002 1.381 . S
C2000 C2006 1.383 . S
C2001 C1997 1.495 . S
C2001 H2007 0.959 . S
C2001 H2008 0.961 . S
C2001 H2009 0.960 . S
C2002 C2000 1.381 . S
C2002 C2003 1.394 . S
C2002 H2010 0.930 . S
C2003 C2002 1.394 . S
C2003 C2004 1.383 . S
C2003 H2011 0.929 . S
C2004 C2003 1.383 . S
C2004 C2005 1.377 . S
C2005 H1989 0.930 . S
C2005 C2004 1.377 . S
C2005 C2006 1.379 . S
C2006 H1990 0.931 . S
C2006 C2000 1.383 . S
C2006 C2005 1.379 . S
H2007 C2001 0.959 . S
H2008 C2001 0.961 . S
H2009 C2001 0.960 . S
H2010 C2002 0.930 . S
H2011 C2003 0.929 . S
H2012 C2020 0.929 . S
H2013 C2022 0.930 . S
H2014 C2024 0.930 . S
H2015 C2027 0.929 . S
H2016 C2030 0.930 . S
H2017 C2032 0.960 . S
H2018 C2032 0.960 . S
H2019 C2032 0.960 . S
C2020 H2012 0.929 . S
C2020 C2021 1.377 . S
C2020 C2022 1.384 . S
C2021 C2020 1.377 . S
C2021 C2027 1.390 . S
C2022 H2013 0.930 . S
C2022 C2020 1.384 . S
C2022 C2023 1.372 . S
C2023 C2022 1.372 . S
C2023 C2024 1.400 . S
C2023 C2028 1.490 . S
C2024 H2014 0.930 . S
C2024 C2023 1.400 . S
C2024 C2027 1.386 . S
H2025 C2041 0.930 . S
H2026 C2042 0.931 . S
C2027 H2015 0.929 . S
C2027 C2021 1.390 . S
C2027 C2024 1.386 . S
C2028 C2023 1.490 . S
C2028 C2030 1.395 . S
C2028 C2031 1.403 . S
H2029 C2035 0.930 . S
C2030 H2016 0.930 . S
C2030 C2028 1.395 . S
C2030 C2033 1.403 . S
C2031 C2028 1.403 . S
C2031 C2032 1.524 . S
C2031 C2035 1.400 . S
C2032 H2017 0.960 . S
C2032 H2018 0.960 . S
C2032 H2019 0.960 . S
C2032 C2031 1.524 . S
C2033 C2030 1.403 . S
C2033 C2034 1.392 . S
C2033 C2037 1.495 . S
C2034 C2033 1.392 . S
C2034 C2035 1.385 . S
C2034 C2036 1.478 . S
C2035 H2029 0.930 . S
C2035 C2031 1.400 . S
C2035 C2034 1.385 . S
C2036 C2034 1.478 . S
C2036 C2038 1.381 . S
C2036 C2042 1.383 . S
C2037 C2033 1.495 . S
C2037 H2043 0.959 . S
C2037 H2044 0.961 . S
C2037 H2045 0.960 . S
C2038 C2036 1.381 . S
C2038 C2039 1.394 . S
C2038 H2046 0.930 . S
C2039 C2038 1.394 . S
C2039 C2040 1.383 . S
C2039 H2047 0.929 . S
C2040 C2039 1.383 . S
C2040 C2041 1.377 . S
C2041 H2025 0.930 . S
C2041 C2040 1.377 . S
C2041 C2042 1.379 . S
C2042 H2026 0.931 . S
C2042 C2036 1.383 . S
C2042 C2041 1.379 . S
H2043 C2037 0.959 . S
H2044 C2037 0.961 . S
H2045 C2037 0.960 . S
H2046 C2038 0.930 . S
H2047 C2039 0.929 . S
C329 C19 1.548 . S
C348 C159 1.517 . S
C365 C39 1.886 . S
C384 C99 1.867 . S
C401 C102 1.376 . S
C420 C59 1.332 . S
C437 C79 1.883 . S
C456 C139 1.880 . S
C473 C221 0.341 . S
C492 C81 0.264 . S
C509 C178 0.705 . S
C528 C1 0.736 . S
C545 C201 0.353 . S
C564 C121 0.317 . S
C581 C41 0.577 . S
C600 C181 0.612 . S
C617 C199 1.542 . S
C636 C259 1.537 . S
C653 C219 1.881 . S
C672 C299 1.884 . S
C689 C279 1.365 . S
C708 C162 1.348 . S
C725 C239 1.886 . S
C744 C319 1.858 . S
C761 C281 0.361 . S
C780 C61 0.345 . S
C797 C241 0.704 . S
C816 C118 0.747 . S
C833 C21 0.355 . S
C852 C301 0.396 . S
C869 C141 0.559 . S
C888 C261 0.529 . S
C905 C269 1.296 . S
C924 C9 1.231 1_455 S
C941 C229 1.243 . S
C960 C29 1.291 . S
C977 C249 1.197 . S
C996 C49 1.276 . S
C1013 C209 1.253 . S
C1032 C69 1.228 . S
C1049 C89 1.247 1_455 S
C1068 C309 1.229 . S
C1085 C189 1.243 . S
C1104 C108 1.299 . S
C1121 C129 1.256 . S
C1140 C289 1.230 . S
C1157 C149 1.252 . S
C1176 C168 1.317 . S
C1193 C8 1.178 . S
C1212 C88 1.201 . S
C1229 C28 1.231 . S
C1248 C109 1.242 . S
C1265 C128 1.271 . S
C1284 C48 1.289 . S
C1301 C68 1.225 . S
C1320 C148 1.238 . S
C1337 C208 1.231 . S
C1356 C169 1.248 . S
C1373 C228 1.222 . S
C1392 C188 1.243 . S
C1409 C248 1.169 . S
C1428 C288 1.180 . S
C1445 C308 1.266 1_455 S
C1464 C268 1.241 1_455 S
C1481 C2 1.207 . S
C1500 C142 1.187 . S
C1517 C22 0.943 . S
C1536 C82 0.916 . S
C1553 C119 1.426 . S
C1572 C42 1.375 . S
C1589 C122 0.938 . S
C1608 C62 0.907 . S
C1625 C238 2.473 . S
C1644 C98 2.478 . S
C1661 C161 1.950 . S
C1680 C18 1.967 . S
C1697 C218 2.469 . S
C1716 C138 2.473 . S
C1733 C58 2.178 . S
C1752 C198 2.173 . S
C1769 C242 1.209 . S
C1788 C182 1.193 1_556 S
C1805 C282 0.943 . S
C1824 C202 0.914 . S
C1841 C262 1.404 . S
C1860 C179 1.433 . S
C1877 C302 0.937 . S
C1896 C222 0.909 . S
C1913 C298 2.477 . S
C1932 C78 2.465 . S
C1949 C101 1.947 1_556 S
C1968 C258 1.981 . S
C1985 C38 2.471 . S
C2004 C318 2.461 . S
C2021 C278 2.178 . S
C2040 C158 2.173 . S
