# Generated by pormake.
# Topology sxb, (6)-cn, num edge types: 1
# Building blocks:
#     Node 0, Type 0, BuildingBlock: KUMBUR_clean_sbu_1, # of connection points: 6
#     Node 1, Type 0, BuildingBlock: KUMBUR_clean_sbu_1, # of connection points: 6
#     Node 2, Type 0, BuildingBlock: KUMBUR_clean_sbu_1, # of connection points: 6
#     Node 3, Type 0, BuildingBlock: KUMBUR_clean_sbu_1, # of connection points: 6
#     Edge 4, Type (0, 0), BuildingBlock: FUNLAD_clean_linker_0, # of connection points: 2
#     Edge 5, Type (0, 0), BuildingBlock: FUNLAD_clean_linker_0, # of connection points: 2
#     Edge 6, Type (0, 0), BuildingBlock: FUNLAD_clean_linker_0, # of connection points: 2
#     Edge 7, Type (0, 0), BuildingBlock: FUNLAD_clean_linker_0, # of connection points: 2
#     Edge 8, Type (0, 0), BuildingBlock: FUNLAD_clean_linker_0, # of connection points: 2
#     Edge 9, Type (0, 0), BuildingBlock: FUNLAD_clean_linker_0, # of connection points: 2
#     Edge 10, Type (0, 0), BuildingBlock: FUNLAD_clean_linker_0, # of connection points: 2
#     Edge 11, Type (0, 0), BuildingBlock: FUNLAD_clean_linker_0, # of connection points: 2
#     Edge 12, Type (0, 0), BuildingBlock: FUNLAD_clean_linker_0, # of connection points: 2
#     Edge 13, Type (0, 0), BuildingBlock: FUNLAD_clean_linker_0, # of connection points: 2
#     Edge 14, Type (0, 0), BuildingBlock: FUNLAD_clean_linker_0, # of connection points: 2
#     Edge 15, Type (0, 0), BuildingBlock: FUNLAD_clean_linker_0, # of connection points: 2
# Relax obj value: 0.011
# Max RMSD: 0.051
# Mean RMSD: 0.051
data_MOF--net-sxb--node1-KUMBUR_clean_sbu_1--edge1-FUNLAD_clean_linker_0
_symmetry_space_group_name_H-M    P1
_symmetry_Int_Tables_number       1
_symmetry_cell_setting            triclinic
loop_
_symmetry_equiv_pos_as_xyz
'x, y, z'
_cell_length_a     17.472492
_cell_length_b     51.869194
_cell_length_c     34.438301
_cell_angle_alpha  114.78938
_cell_angle_beta   90.314416
_cell_angle_gamma 89.868892
loop_
_atom_site_label
_atom_site_type_symbol
_atom_site_fract_x
_atom_site_fract_y
_atom_site_fract_z
_atom_type_partial_charge
Tb0 Tb 1.02367 0.97024 0.9751 0.0
C1 C 0.14872 0.09268 0.08836 0.0
N2 N 0.07922 0.0819 0.09126 0.0
C3 C 0.08829 0.10373 0.16783 0.0
C4 C 0.19144 0.10913 0.1253 0.0
C5 C 0.04807 0.08748 0.13026 0.0
C6 C 0.16039 0.11453 0.16536 0.0
C7 C 0.25043 0.09685 0.0436 0.0
C8 C 0.1779 0.08659 0.04802 0.0
C9 C 0.29317 0.11331 0.08033 0.0
C10 C 0.26376 0.11943 0.12106 0.0
Tb11 Tb 1.01993 0.05571 0.02772 0.0
N12 N 0.13627 0.06958 0.01314 0.0
C13 C 0.27804 0.09002 0.00238 0.0
C14 C 0.16134 0.06403 0.97295 0.0
C15 C 0.23296 0.07376 0.96694 0.0
H16 H 0.99147 0.07998 0.13256 0.0
H17 H 0.25307 0.06892 0.93496 0.0
H18 H 0.06406 0.94575 0.87144 0.0
H19 H 0.78157 0.95484 0.05997 0.0
H20 H 0.1263 0.05249 0.94541 0.0
H21 H 0.33359 0.09743 0.99759 0.0
H22 H 0.9092 0.97267 0.05354 0.0
H23 H 0.06345 0.10806 0.19867 0.0
H24 H 0.34915 0.12132 0.07758 0.0
H25 H 0.29752 0.13208 0.14908 0.0
H26 H 0.99897 0.91723 0.80303 0.0
H27 H 0.19141 0.12708 0.19453 0.0
H28 H 0.70751 0.92567 0.99485 0.0
N29 N 0.97124 0.94356 0.90968 0.0
C30 C 0.90125 0.93234 0.91025 0.0
C31 C 0.97063 0.92149 0.83297 0.0
C32 C 0.8625 0.91553 0.87198 0.0
C33 C 1.00691 0.938 0.8718 0.0
C34 C 0.89799 0.91029 0.83303 0.0
N35 N 0.90599 0.95533 0.98566 0.0
C36 C 0.87702 0.96061 0.02499 0.0
C37 C 0.7951 0.92714 0.95158 0.0
C38 C 0.86793 0.93806 0.94951 0.0
C39 C 0.76346 0.9336 0.99186 0.0
C40 C 0.80492 0.95019 0.0287 0.0
H41 H 0.8701 0.89748 0.80289 0.0
H42 H 0.759 0.89167 0.84475 0.0
H43 H 0.69999 0.90186 0.91444 0.0
O44 O 0.05558 0.94594 0.00838 0.0
O45 O 0.91693 0.9917 0.97005 0.0
O46 O 0.91125 0.03511 0.02882 0.0
O47 O 0.07807 0.93087 0.94116 0.0
O48 O 0.0431 0.99428 0.04402 0.0
O49 O 0.97273 0.03585 0.06725 0.0
O50 O 0.98504 0.08082 0.99612 0.0
O51 O 0.12548 0.03396 0.03378 0.0
O52 O 0.13201 0.99112 0.97416 0.0
O53 O 0.96806 0.09526 0.06367 0.0
O54 O 0.99868 0.03183 0.95881 0.0
O55 O 0.07078 0.99079 0.93678 0.0
C56 C 0.87827 0.01344 0.99766 0.0
C57 C 0.16192 0.9159 0.98173 0.0
C58 C 0.23931 0.87995 0.99226 0.0
C59 C 0.30445 0.89701 0.99732 0.0
C60 C 0.22747 0.93255 0.98694 0.0
C61 C 0.29841 0.92308 0.9946 0.0
C62 C 0.16801 0.88964 0.98431 0.0
C63 C 1.00481 0.01498 0.07376 0.0
C64 C 0.08635 0.92592 0.97495 0.0
C65 C 0.78976 0.9046 0.87383 0.0
C66 C 0.75616 0.91038 0.91352 0.0
C67 C 0.16475 0.0126 0.00577 0.0
C68 C 0.87886 0.11044 0.0257 0.0
C69 C 0.79693 0.14331 0.00995 0.0
C70 C 0.73235 0.12887 0.01511 0.0
C71 C 0.81362 0.09656 0.03086 0.0
C72 C 0.87037 0.13378 0.01523 0.0
C73 C 0.74082 0.10571 0.02552 0.0
C74 C 0.03451 0.01035 0.92898 0.0
C75 C 0.95603 0.10057 0.03045 0.0
H76 H 0.36026 0.89007 0.00296 0.0
H77 H 0.22365 0.95284 0.98528 0.0
H78 H 0.34887 0.93603 0.99852 0.0
H79 H 0.1169 0.87706 0.98099 0.0
H80 H 0.67512 0.13517 0.01049 0.0
H81 H 0.81907 0.07867 0.03902 0.0
H82 H 0.92097 0.14462 0.01164 0.0
H83 H 0.69072 0.09475 0.02929 0.0
Tb84 Tb 0.05068 0.05217 0.52859 0.0
C85 C 0.16271 0.92859 0.40196 0.0
N86 N 0.09335 0.94089 0.40352 0.0
C87 C 0.08823 0.92096 0.32687 0.0
C88 C 0.1982 0.91222 0.3626 0.0
C89 C 0.05517 0.93692 0.36673 0.0
C90 C 0.16019 0.90864 0.32477 0.0
C91 C 0.27053 0.9204 0.44007 0.0
C92 C 0.19846 0.93263 0.44013 0.0
C93 C 0.30629 0.90409 0.40093 0.0
C94 C 0.27024 0.90003 0.36229 0.0
Tb95 Tb 0.04623 0.96663 0.4704 0.0
N96 N 0.1635 0.94952 0.4774 0.0
C97 C 0.30459 0.92514 0.47938 0.0
C98 C 0.19475 0.95315 0.51576 0.0
C99 C 0.2662 0.94138 0.51735 0.0
H100 H 0.99846 0.94555 0.36803 0.0
H101 H 0.29144 0.94473 0.54787 0.0
H102 H 0.04409 0.06914 0.63259 0.0
H103 H 0.85614 0.07273 0.42167 0.0
H104 H 0.16496 0.96504 0.54514 0.0
H105 H 0.36004 0.91616 0.48075 0.0
H106 H 0.97763 0.05805 0.4421 0.0
H107 H 0.05793 0.91798 0.2978 0.0
H108 H 0.36184 0.89457 0.40019 0.0
H109 H 0.29853 0.8874 0.33235 0.0
H110 H 0.95226 0.09169 0.69147 0.0
H111 H 0.18556 0.89623 0.29385 0.0
H112 H 0.75375 0.09309 0.47527 0.0
N113 N 0.97135 0.07299 0.58561 0.0
C114 C 0.90394 0.08297 0.57749 0.0
C115 C 0.93781 0.08923 0.6595 0.0
C116 C 0.85003 0.09615 0.61015 0.0
C117 C 0.98942 0.07619 0.62598 0.0
C118 C 0.8677 0.09917 0.65155 0.0
N119 N 0.94182 0.06602 0.5051 0.0
C120 C 0.9322 0.06493 0.46508 0.0
C121 C 0.81899 0.08907 0.52607 0.0
C122 C 0.88857 0.07927 0.53587 0.0
C123 C 0.80646 0.08584 0.48414 0.0
C124 C 0.86386 0.07414 0.45371 0.0
H125 H 0.82779 0.10918 0.67756 0.0
H126 H 0.73784 0.11566 0.625 0.0
H127 H 0.71076 0.10957 0.55144 0.0
O128 O 0.09743 0.08157 0.50767 0.0
O129 O 0.94954 0.02836 0.53429 0.0
O130 O 0.93955 0.98888 0.47049 0.0
O131 O 0.09771 0.09023 0.57428 0.0
O132 O 0.07515 0.0303 0.45983 0.0
O133 O 1.00088 0.98981 0.43514 0.0
O134 O 1.00957 0.94249 0.50293 0.0
O135 O 0.15527 0.9876 0.46849 0.0
O136 O 0.16045 0.0313 0.52719 0.0
O137 O 0.99144 0.92748 0.43521 0.0
O138 O 0.03321 0.98834 0.54017 0.0
O139 O 0.09957 0.03106 0.56614 0.0
C140 C 0.90804 0.00931 0.50383 0.0
C141 C 0.08883 0.12976 0.55662 0.0
C142 C 0.11218 0.17487 0.55165 0.0
C143 C 0.04564 0.18597 0.57578 0.0
C144 C 1.02327 0.14152 0.58105 0.0
C145 C 1.00169 0.16938 0.59029 0.0
C146 C 0.13315 0.14654 0.54205 0.0
C147 C 0.04 0.00924 0.42868 0.0
C148 C 0.11239 0.10023 0.54627 0.0
C149 C 0.78021 0.10559 0.60038 0.0
C150 C 0.76472 0.10204 0.55845 0.0
C151 C 0.19338 0.00965 0.49609 0.0
C152 C 0.90382 0.91241 0.47351 0.0
C153 C 0.8246 0.87626 0.48203 0.0
C154 C 0.75943 0.89282 0.4842 0.0
C155 C 0.8382 0.92851 0.4757 0.0
C156 C 0.89686 0.88637 0.4767 0.0
C157 C 0.76637 0.91873 0.48104 0.0
C158 C 0.0713 1.00891 0.57059 0.0
C159 C 0.98025 0.92253 0.46874 0.0
H160 H 1.02836 0.20773 0.58431 0.0
H161 H 0.98907 0.12939 0.5934 0.0
H162 H 0.95107 0.17827 0.60921 0.0
H163 H 0.18371 0.13746 0.52309 0.0
H164 H 0.7029 0.88558 0.48774 0.0
H165 H 0.84258 0.94857 0.4733 0.0
H166 H 0.94801 0.87424 0.47566 0.0
H167 H 0.71584 0.93125 0.48263 0.0
Tb168 Tb 0.55187 0.46922 0.9844 0.0
C169 C 0.70896 0.58082 0.06557 0.0
N170 N 0.64053 0.57299 0.0761 0.0
C171 C 0.68139 0.5907 0.1495 0.0
C172 C 0.76768 0.59248 0.09624 0.0
C173 C 0.6245 0.57973 0.1181 0.0
C174 C 0.75382 0.59657 0.13838 0.0
C175 C 0.78733 0.58755 0.01246 0.0
C176 C 0.71892 0.5785 0.0243 0.0
C177 C 0.84694 0.5982 0.04249 0.0
C178 C 0.83723 0.60057 0.08425 0.0
Tb179 Tb 0.55427 0.55438 0.02058 0.0
N180 N 0.6614 0.56697 0.99549 0.0
C181 C 0.79357 0.58559 0.97076 0.0
C182 C 0.66555 0.56612 0.95538 0.0
C183 C 0.73209 0.57511 0.94225 0.0
H184 H 0.56751 0.57758 0.12819 0.0
H185 H 0.73597 0.57392 0.9102 0.0
H186 H 0.47869 0.44834 0.88735 0.0
H187 H 0.47335 0.44604 0.11827 0.0
H188 H 0.61785 0.55812 0.93346 0.0
H189 H 0.84521 0.59235 0.96042 0.0
H190 H 0.55777 0.46338 0.07743 0.0
H191 H 0.66872 0.59524 0.18247 0.0
H192 H 0.90039 0.60495 0.03391 0.0
H193 H 0.8832 0.60932 0.10731 0.0
H194 H 0.3652 0.42187 0.84763 0.0
H195 H 0.79743 0.60544 0.1629 0.0
H196 H 0.35135 0.42222 0.08638 0.0
N197 N 0.4481 0.44571 0.94526 0.0
C198 C 0.3998 0.4343 0.96453 0.0
C199 C 0.37383 0.42547 0.88066 0.0
C200 C 0.33455 0.41888 0.94311 0.0
C201 C 0.43769 0.44071 0.90336 0.0
C202 C 0.32159 0.41474 0.90074 0.0
N203 N 0.48027 0.45302 0.0251 0.0
C204 C 0.50268 0.45471 0.06419 0.0
C205 C 0.36719 0.42709 0.0275 0.0
C206 C 0.41585 0.43847 0.00612 0.0
C207 C 0.38721 0.43061 0.06882 0.0
C208 C 0.45581 0.44417 0.08701 0.0
H209 H 0.27215 0.40297 0.88309 0.0
H210 H 0.23414 0.39625 0.94875 0.0
H211 H 0.26279 0.40339 0.02268 0.0
O212 O 0.59847 0.43313 0.98867 0.0
O213 O 0.44074 0.48913 0.98171 0.0
O214 O 0.44401 0.53713 0.02921 0.0
O215 O 0.61969 0.4413 0.93354 0.0
O216 O 0.58286 0.49866 0.04981 0.0
O217 O 0.51369 0.5399 0.06855 0.0
O218 O 0.497 0.57811 0.99239 0.0
O219 O 0.65327 0.5268 0.98894 0.0
O220 O 0.65164 0.49444 0.01729 0.0
O221 O 0.532 0.59765 0.05804 0.0
O222 O 0.51113 0.52781 0.95664 0.0
O223 O 0.57527 0.48464 0.93488 0.0
C224 C 0.40696 0.51352 0.00528 0.0
C225 C 0.61352 0.39286 0.92388 0.0
C226 C 0.62424 0.34342 0.91459 0.0
C227 C 0.58606 0.33475 0.87503 0.0
C228 C 0.5759 0.3836 0.88423 0.0
C229 C 0.56227 0.35471 0.86006 0.0
C230 C 0.63775 0.37266 0.93876 0.0
C231 C 0.54097 0.51921 0.07727 0.0
C232 C 0.62774 0.42332 0.9507 0.0
C233 C 0.28486 0.40804 0.96456 0.0
C234 C 0.30112 0.41216 0.00669 0.0
C235 C 0.69004 0.51044 0.00329 0.0
C236 C 0.42418 0.6171 0.03872 0.0
C237 C 0.34776 0.65771 0.04255 0.0
C238 C 0.28779 0.64844 0.06074 0.0
C239 C 0.36417 0.60848 0.05739 0.0
C240 C 0.41576 0.64161 0.0313 0.0
C241 C 0.29608 0.62399 0.06798 0.0
C242 C 0.53886 0.50426 0.92682 0.0
C243 C 0.49663 0.60126 0.02747 0.0
H244 H 0.57344 0.31254 0.85587 0.0
H245 H 0.55692 0.3986 0.87188 0.0
H246 H 0.53279 0.34773 0.82963 0.0
H247 H 0.66772 0.37979 0.96913 0.0
H248 H 0.23506 0.66042 0.0703 0.0
H249 H 0.37011 0.58986 0.06386 0.0
H250 H 0.46233 0.64805 0.01666 0.0
H251 H 0.24981 0.61721 0.08232 0.0
Tb252 Tb 0.51353 0.55598 0.53182 0.0
C253 C 0.66875 0.4405 0.41824 0.0
N254 N 0.5981 0.44953 0.41273 0.0
C255 C 0.62057 0.43245 0.33738 0.0
C256 C 0.71873 0.42742 0.38347 0.0
C257 C 0.57295 0.44528 0.37289 0.0
C258 C 0.69394 0.42361 0.3427 0.0
C259 C 0.76334 0.43526 0.46627 0.0
C260 C 0.69081 0.44442 0.45911 0.0
C261 C 0.81376 0.42247 0.43179 0.0
C262 C 0.79151 0.41856 0.3905 0.0
Tb263 Tb 0.52661 0.47071 0.47324 0.0
N264 N 0.64122 0.45761 0.49188 0.0
C265 C 0.78281 0.43918 0.50783 0.0
C266 C 0.65817 0.4599 0.53189 0.0
C267 C 0.72958 0.45122 0.54066 0.0
H268 H 0.5156 0.4512 0.36817 0.0
H269 H 0.74311 0.4535 0.57265 0.0
H270 H 0.54769 0.57908 0.63628 0.0
H271 H 0.27179 0.56851 0.44278 0.0
H272 H 0.61653 0.46768 0.55694 0.0
H273 H 0.83803 0.43247 0.51472 0.0
H274 H 0.4014 0.55293 0.45156 0.0
H275 H 0.60045 0.42921 0.30588 0.0
H276 H 0.86994 0.41542 0.43669 0.0
H277 H 0.83089 0.40856 0.36421 0.0
H278 H 0.47719 0.60512 0.70332 0.0
H279 H 0.73062 0.41364 0.31511 0.0
H280 H 0.19217 0.59493 0.50643 0.0
N281 N 0.45578 0.58029 0.59623 0.0
C282 C 0.38428 0.59011 0.5944 0.0
C283 C 0.45021 0.60087 0.67288 0.0
C284 C 0.34238 0.60548 0.63193 0.0
C285 C 0.48962 0.58576 0.63476 0.0
C286 C 0.37617 0.61069 0.67148 0.0
N287 N 0.39404 0.56871 0.51913 0.0
C288 C 0.3669 0.56377 0.47941 0.0
C289 C 0.27864 0.59415 0.55123 0.0
C290 C 0.35276 0.58451 0.55461 0.0
C291 C 0.24899 0.58796 0.51044 0.0
C292 C 0.29361 0.57291 0.47441 0.0
H293 H 0.34587 0.62243 0.70108 0.0
H294 H 0.23516 0.6269 0.65726 0.0
H295 H 0.17936 0.61696 0.5866 0.0
O296 O 0.54307 0.58201 0.50106 0.0
O297 O 0.40977 0.53129 0.53105 0.0
O298 O 0.41615 0.4895 0.46975 0.0
O299 O 0.56033 0.5964 0.56872 0.0
O300 O 0.54207 0.53439 0.46352 0.0
O301 O 0.4785 0.49147 0.4349 0.0
O302 O 0.48241 0.44325 0.49863 0.0
O303 O 0.6293 0.49609 0.47456 0.0
O304 O 0.62442 0.53768 0.53633 0.0
O305 O 0.48336 0.43093 0.43083 0.0
O306 O 0.49958 0.49174 0.542 0.0
O307 O 0.56087 0.53533 0.57039 0.0
C308 C 0.37719 0.50879 0.50108 0.0
C309 C 0.64479 0.61379 0.53187 0.0
C310 C 0.71956 0.65081 0.52296 0.0
C311 C 0.78666 0.63543 0.52183 0.0
C312 C 0.71235 0.59887 0.53057 0.0
C313 C 0.78289 0.60967 0.52564 0.0
C314 C 0.64855 0.63973 0.52809 0.0
C315 C 0.50686 0.51397 0.4316 0.0
C316 C 0.56985 0.60221 0.53583 0.0
C317 C 0.26832 0.61508 0.62877 0.0
C318 C 0.23654 0.60944 0.58853 0.0
C319 C 0.663 0.51742 0.50602 0.0
C320 C 0.49463 0.39418 0.45437 0.0
C321 C 0.47092 0.34975 0.46139 0.0
C322 C 0.54128 0.33928 0.44113 0.0
C323 C 0.56415 0.38307 0.43399 0.0
C324 C 0.44818 0.37744 0.46802 0.0
C325 C 0.58739 0.35587 0.42765 0.0
C326 C 0.53184 0.51308 0.57416 0.0
C327 C 0.469 0.4229 0.46109 0.0
H328 H 0.84225 0.64345 0.51852 0.0
H329 H 0.71046 0.57889 0.53328 0.0
H330 H 0.83486 0.59804 0.52477 0.0
H331 H 0.59603 0.65098 0.5284 0.0
H332 H 0.56009 0.31799 0.43484 0.0
H333 H 0.60018 0.39519 0.4225 0.0
H334 H 0.39459 0.38605 0.48393 0.0
H335 H 0.64104 0.34747 0.41176 0.0
C336 C 0.27039 0.69184 0.02316 0.0
C337 C 0.34019 0.68445 0.03641 0.0
C338 C 0.26288 0.71735 0.01866 0.0
C339 C 0.3254 0.7361 0.02701 0.0
C340 C 0.39502 0.72863 0.0402 0.0
C341 C 0.40243 0.7032 0.04479 0.0
C342 C 0.32035 0.76401 0.0241 0.0
C343 C 0.26346 0.77148 0.00412 0.0
C344 C 0.25914 0.79958 0.00176 0.0
C345 C 0.2124 0.80223 0.97029 0.0
C346 C 0.20585 0.82821 0.96717 0.0
C347 C 0.24577 0.85229 0.99562 0.0
H348 H 0.33263 0.8232 0.05646 0.0
C349 C 0.29186 0.84977 0.02747 0.0
C350 C 0.29821 0.82383 0.03069 0.0
H351 H 0.32207 0.86804 0.0505 0.0
H352 H 0.22133 0.67786 0.01616 0.0
H353 H 0.20756 0.72233 0.00938 0.0
H354 H 0.44405 0.74265 0.0473 0.0
H355 H 0.45668 0.69855 0.05581 0.0
H356 H 0.3675 0.77862 0.03804 0.0
H357 H 0.2193 0.75617 0.98719 0.0
H358 H 0.18112 0.78406 0.94774 0.0
H359 H 0.17027 0.82932 0.94207 0.0
C360 C 0.67832 0.29553 0.90269 0.0
C361 C 0.6487 0.32205 0.93075 0.0
C362 C 0.69857 0.27507 0.9175 0.0
C363 C 0.69025 0.28066 0.96099 0.0
C364 C 0.66109 0.30723 0.98901 0.0
C365 C 0.6408 0.32767 0.97419 0.0
C366 C 0.70702 0.25904 0.97805 0.0
C367 C 0.75028 0.23558 0.95777 0.0
C368 C 0.76342 0.21321 0.9738 0.0
C369 C 0.82357 0.19375 0.95636 0.0
C370 C 0.8355 0.17147 0.96861 0.0
C371 C 0.78714 0.16793 0.99852 0.0
H372 H 0.66724 0.22373 0.01775 0.0
C373 C 0.72744 0.18758 0.01637 0.0
C374 C 0.71544 0.20982 0.00409 0.0
H375 H 0.68945 0.18571 0.0398 0.0
H376 H 0.6858 0.29051 0.86908 0.0
H377 H 0.71892 0.25475 0.89439 0.0
H378 H 0.65322 0.31215 0.02257 0.0
H379 H 0.61712 0.34765 0.99667 0.0
H380 H 0.68356 0.26318 0.0092 0.0
H381 H 0.77898 0.23263 0.92835 0.0
H382 H 0.86115 0.19557 0.93271 0.0
H383 H 0.8814 0.15658 0.95372 0.0
C384 C 0.12586 0.21216 0.52323 0.0
C385 C 0.16013 0.19319 0.5377 0.0
C386 C 0.17051 0.23056 0.51248 0.0
C387 C 0.25086 0.23058 0.51617 0.0
C388 C 0.28508 0.21104 0.52943 0.0
C389 C 0.24041 0.19263 0.54018 0.0
C390 C 0.30119 0.25012 0.50592 0.0
C391 C 0.27708 0.27449 0.50448 0.0
C392 C 0.32815 0.29398 0.49462 0.0
C393 C 0.29557 0.31238 0.47858 0.0
C394 C 0.34145 0.33077 0.46843 0.0
C395 C 0.42122 0.33142 0.47446 0.0
H396 H 0.43505 0.2823 0.51571 0.0
C397 C 0.45357 0.31363 0.49177 0.0
C398 C 0.40775 0.29519 0.5018 0.0
H399 H 0.51454 0.31406 0.49785 0.0
H400 H 0.06426 0.21271 0.51998 0.0
H401 H 0.14151 0.24441 0.50089 0.0
H402 H 0.34677 0.21032 0.53225 0.0
H403 H 0.26881 0.17849 0.5515 0.0
H404 H 0.361 0.24415 0.49996 0.0
H405 H 0.21731 0.28052 0.51009 0.0
H406 H 0.2344 0.31216 0.47311 0.0
H407 H 0.31453 0.34398 0.45488 0.0
C408 C 0.76581 0.84538 0.51427 0.0
C409 C 0.81718 0.84854 0.48523 0.0
C410 C 0.75878 0.81936 0.51724 0.0
C411 C 0.80278 0.79572 0.49097 0.0
C412 C 0.85454 0.79901 0.46228 0.0
C413 C 0.86151 0.825 0.45931 0.0
C414 C 0.79866 0.76761 0.49325 0.0
C415 C 0.73924 0.75901 0.50988 0.0
C416 C 0.73553 0.73089 0.51219 0.0
C417 C 0.68405 0.72745 0.5409 0.0
C418 C 0.67845 0.70154 0.54427 0.0
C419 C 0.72403 0.67826 0.51878 0.0
H420 H 0.81855 0.70857 0.46236 0.0
C421 C 0.7746 0.6815 0.48948 0.0
C422 C 0.78015 0.7074 0.48606 0.0
H423 H 0.80932 0.66384 0.46864 0.0
H424 H 0.73189 0.8632 0.53537 0.0
H425 H 0.72001 0.81822 0.54082 0.0
H426 H 0.88952 0.78131 0.44176 0.0
H427 H 0.90106 0.82651 0.43625 0.0
H428 H 0.84694 0.75348 0.4802 0.0
H429 H 0.691 0.77315 0.523 0.0
H430 H 0.64849 0.74502 0.56125 0.0
H431 H 0.63932 0.69991 0.56741 0.0
C432 C 0.29412 0.99866 0.97187 0.0
C433 C 0.24957 0.01412 0.00811 0.0
C434 C 0.37406 1.00085 0.97371 0.0
C435 C 0.41146 0.01853 0.01204 0.0
C436 C 0.36661 0.03401 0.04814 0.0
C437 C 0.2868 0.03171 0.04632 0.0
C438 C 0.4964 0.02221 0.0156 0.0
C439 C 0.54671 1.00378 0.98821 0.0
C440 C 0.63162 1.00749 0.99172 0.0
C441 C 0.67635 0.99222 0.95547 0.0
C442 C 0.75613 0.99456 0.95722 0.0
C443 C 0.79346 0.012 0.99548 0.0
H444 H 0.63757 0.03642 0.05926 0.0
C445 C 0.74906 0.02715 0.03191 0.0
C446 C 0.66911 0.02495 0.03014 0.0
H447 H 0.77616 0.04032 0.06213 0.0
H448 H 0.26716 0.98519 0.94177 0.0
H449 H 0.40564 0.98915 0.94469 0.0
H450 H 0.39342 0.04794 0.07804 0.0
H451 H 0.25429 0.04377 0.07493 0.0
H452 H 0.51767 0.04093 0.04233 0.0
H453 H 0.52551 0.98506 0.96146 0.0
H454 H 0.64945 0.97843 0.92551 0.0
H455 H 0.78859 0.98263 0.92851 0.0
C456 C 0.32298 0.02579 0.52956 0.0
C457 C 0.27835 1.00876 0.49396 0.0
C458 C 0.40308 0.02418 0.52801 0.0
C459 C 0.44072 1.00554 0.49056 0.0
C460 C 0.3957 0.98868 0.45498 0.0
C461 C 0.31577 0.99035 0.45655 0.0
C462 C 0.526 1.00246 0.4869 0.0
C463 C 0.57673 0.0194 0.51625 0.0
C464 C 0.66162 0.01581 0.51188 0.0
C465 C 0.7074 0.0275 0.54891 0.0
C466 C 0.78717 0.02502 0.5464 0.0
C467 C 0.82337 0.01121 0.50666 0.0
H468 H 0.66555 0.99334 0.44249 0.0
C469 C 0.77792 0.99959 0.46951 0.0
C470 C 0.69803 1.00191 0.47201 0.0
H471 H 0.8042 0.98908 0.43835 0.0
H472 H 0.29603 0.04007 0.55903 0.0
H473 H 0.43436 0.03735 0.55657 0.0
H474 H 0.42245 0.9741 0.42564 0.0
H475 H 0.28337 0.97721 0.42828 0.0
H476 H 0.54752 0.98508 0.45842 0.0
H477 H 0.55635 0.03642 0.54539 0.0
H478 H 0.68132 0.03847 0.58006 0.0
H479 H 0.82049 0.03383 0.57567 0.0
C480 C 0.81999 0.518 0.97783 0.0
C481 C 0.77525 0.51052 0.00535 0.0
C482 C 0.90039 0.51777 0.97999 0.0
C483 C 0.93802 0.50983 0.00969 0.0
C484 C 0.89284 0.50216 0.03686 0.0
C485 C 0.81279 0.50253 0.0348 0.0
C486 C 1.02349 0.50786 0.01237 0.0
C487 C 0.07437 0.52044 0.99629 0.0
C488 C 0.15971 0.51822 0.99953 0.0
C489 C 0.20662 0.53879 0.99495 0.0
C490 C 0.28665 0.53729 0.99707 0.0
C491 C 0.32207 0.51504 0.00349 0.0
H492 H 0.16234 0.47904 0.00836 0.0
C493 C 0.27559 0.49435 0.00778 0.0
C494 C 0.19552 0.49579 0.00569 0.0
H495 H 0.30091 0.4773 0.01355 0.0
H496 H 0.79284 0.52354 0.95404 0.0
H497 H 0.93238 0.52314 0.95763 0.0
H498 H 0.91961 0.49578 0.05991 0.0
H499 H 0.78023 0.49663 0.0565 0.0
H500 H 0.04503 0.49623 0.02999 0.0
H501 H 0.05329 0.53397 0.98163 0.0
H502 H 0.18128 0.55616 0.98972 0.0
H503 H 0.32098 0.55325 0.9928 0.0
C504 C 0.24805 0.52388 0.53529 0.0
C505 C 0.2922 0.50713 0.49952 0.0
C506 C 0.16791 0.52296 0.53324 0.0
C507 C 0.1298 0.50514 0.49521 0.0
C508 C 0.17423 0.48805 0.45982 0.0
C509 C 0.25423 0.48904 0.46186 0.0
C510 C 0.04447 0.50301 0.49108 0.0
C511 C 0.99528 0.52217 0.51821 0.0
C512 C 0.91011 0.51991 0.51379 0.0
C513 C 0.86521 0.53515 0.54995 0.0
C514 C 0.78527 0.53421 0.54741 0.0
C515 C 0.74794 0.51823 0.50842 0.0
H516 H 0.90463 0.4926 0.44557 0.0
C517 C 0.79259 0.50322 0.47202 0.0
C518 C 0.87271 0.50398 0.4746 0.0
H519 H 0.76569 0.49119 0.4413 0.0
H520 H 0.27537 0.53762 0.5651 0.0
H521 H 0.13673 0.53592 0.56182 0.0
H522 H 0.14692 0.47396 0.43018 0.0
H523 H 0.28624 0.47581 0.43363 0.0
H524 H 1.02176 0.48477 0.46407 0.0
H525 H 1.01747 0.54034 0.54545 0.0
H526 H 0.8921 0.54777 0.58049 0.0
H527 H 0.75271 0.54601 0.57613 0.0
C528 C 0.9794 0.99796 0.35733 0.0
C529 C 0.04167 1.00862 0.38549 0.0
C530 C 0.98032 0.99854 0.31709 0.0
C531 C 0.04388 0.00967 0.30432 0.0
C532 C 0.10656 0.01979 0.33225 0.0
C533 C 0.10514 0.01959 0.37264 0.0
C534 C 0.04806 0.01009 0.26159 0.0
C535 C 0.98627 0.01304 0.24025 0.0
C536 C 0.99207 0.01364 0.19762 0.0
C537 C 0.93865 0.02932 0.18572 0.0
C538 C 0.94303 0.03014 0.14567 0.0
C539 C 1.00036 0.01493 0.11659 0.0
H540 H 0.08949 0.98511 0.17573 0.0
C541 C 0.05286 0.99882 0.12824 0.0
C542 C 0.04883 0.99817 0.16826 0.0
H543 H 0.09739 0.98666 0.10644 0.0
H544 H 0.92956 0.98955 0.36666 0.0
H545 H 0.93184 0.98991 0.2959 0.0
H546 H 0.15648 0.0282 0.323 0.0
H547 H 0.15404 0.02783 0.39372 0.0
H548 H 0.10475 0.00955 0.24846 0.0
H549 H 0.93034 0.01657 0.25524 0.0
H550 H 0.8938 0.04114 0.20758 0.0
H551 H 0.90097 0.04235 0.13729 0.0
C552 C 0.09565 0.99621 0.85743 0.0
C553 C 0.03411 1.00854 0.88512 0.0
C554 C 0.09532 0.99508 0.81614 0.0
C555 C 0.03305 1.00608 0.80183 0.0
C556 C 0.97108 0.01792 0.82934 0.0
C557 C 0.97198 0.01947 0.87078 0.0
C558 C 1.02978 1.0048 0.75807 0.0
C559 C 0.09222 1.00695 0.7369 0.0
C560 C 0.0872 1.00679 0.69381 0.0
C561 C 0.13892 0.02311 0.68249 0.0
C562 C 0.1339 0.0239 0.64245 0.0
C563 C 0.07785 1.00792 0.61274 0.0
H564 H 0.99273 0.97694 0.67101 0.0
C565 C 1.02761 0.99091 0.62363 0.0
C566 C 0.03207 0.99039 0.66376 0.0
H567 H 0.98404 0.97822 0.60136 0.0
H568 H 0.14433 0.98771 0.86785 0.0
H569 H 0.14318 0.98521 0.79533 0.0
H570 H 0.92218 0.02631 0.8189 0.0
H571 H 0.92355 0.02891 0.89143 0.0
H572 H 0.97343 1.00396 0.74405 0.0
H573 H 0.14782 0.01084 0.75261 0.0
H574 H 0.18241 0.03568 0.70495 0.0
H575 H 0.17399 0.03694 0.63474 0.0
C576 C 0.54705 0.53534 0.38181 0.0
C577 C 0.50068 0.51616 0.39017 0.0
C578 C 0.54161 0.53747 0.34276 0.0
C579 C 0.48951 0.52044 0.31114 0.0
C580 C 0.44168 0.50187 0.31997 0.0
C581 C 0.44745 0.49961 0.35897 0.0
C582 C 0.4836 0.52167 0.26883 0.0
C583 C 0.54396 0.52775 0.24996 0.0
C584 C 0.54117 0.52657 0.20615 0.0
C585 C 0.60788 0.51897 0.18142 0.0
C586 C 0.60764 0.51685 0.13969 0.0
C587 C 0.541 0.52286 0.12209 0.0
H588 H 0.42276 0.5398 0.20749 0.0
C589 C 0.47482 0.53153 0.14716 0.0
C590 C 0.47462 0.53316 0.18884 0.0
H591 H 0.42294 0.53639 0.13419 0.0
H592 H 0.58804 0.54865 0.40536 0.0
H593 H 0.57774 0.55269 0.3377 0.0
H594 H 0.40047 0.48875 0.29638 0.0
H595 H 0.40986 0.48503 0.36474 0.0
H596 H 0.42986 0.51521 0.25142 0.0
H597 H 0.5996 0.53136 0.26558 0.0
H598 H 0.66008 0.5141 0.19412 0.0
H599 H 0.65972 0.51047 0.12111 0.0
C600 C 0.48968 0.49327 0.62556 0.0
C601 C 0.5384 0.51125 0.61584 0.0
C602 C 0.49761 0.49061 0.66415 0.0
C603 C 0.55484 0.50579 0.69379 0.0
C604 C 0.60419 0.52343 0.68377 0.0
C605 C 0.59573 0.52633 0.64537 0.0
C606 C 0.56536 0.50324 0.73494 0.0
C607 C 0.5067 0.49854 0.75636 0.0
C608 C 0.51575 0.49849 0.79922 0.0
C609 C 0.45668 0.50975 0.82902 0.0
C610 C 0.46412 0.51118 0.87024 0.0
C611 C 0.52994 0.50062 0.88218 0.0
H612 H 0.627 0.478 0.78816 0.0
C613 C 0.58787 0.48821 0.85191 0.0
C614 C 0.58121 0.48739 0.81081 0.0
H615 H 0.6392 0.47996 0.86042 0.0
H616 H 0.44544 0.48114 0.60326 0.0
H617 H 0.45982 0.47623 0.67024 0.0
H618 H 0.64919 0.53516 0.70585 0.0
H619 H 0.63514 0.53993 0.63845 0.0
H620 H 0.62198 0.50746 0.74951 0.0
H621 H 0.4488 0.49727 0.74402 0.0
H622 H 0.4054 0.51817 0.82075 0.0
H623 H 0.41831 0.52065 0.8929 0.0
loop_
_geom_bond_atom_site_label_1
_geom_bond_atom_site_label_2
_geom_bond_distance
_geom_bond_site_symmetry_2
_ccdc_geom_bond_type
Tb0 N29 2.617 . S
Tb0 N35 2.572 . S
Tb0 O44 2.465 1_655 S
Tb0 O45 2.387 . S
Tb0 O47 2.428 1_655 S
Tb0 O48 2.308 1_556 S
Tb0 O52 2.349 1_655 S
Tb0 O55 2.393 1_655 S
Tb0 C64 2.802 1_655 S
C1 N2 1.379 . S
C1 C4 1.416 . S
C1 C8 1.424 . S
N2 C1 1.379 . S
N2 C5 1.334 . S
N2 Tb11 2.617 . S
C3 C5 1.390 . S
C3 C6 1.339 . S
C3 H23 0.930 . S
C4 C1 1.416 . S
C4 C6 1.416 . S
C4 C10 1.448 . S
C5 N2 1.334 . S
C5 C3 1.390 . S
C5 H16 0.930 . S
C6 C3 1.339 . S
C6 C4 1.416 . S
C6 H27 0.930 . S
C7 C8 1.413 . S
C7 C9 1.427 . S
C7 C13 1.416 . S
C8 C1 1.424 . S
C8 C7 1.413 . S
C8 N12 1.361 . S
C9 C7 1.427 . S
C9 C10 1.328 . S
C9 H24 0.929 . S
C10 C4 1.448 . S
C10 C9 1.328 . S
C10 H25 0.930 . S
Tb11 N2 2.617 . S
Tb11 N12 2.572 . S
Tb11 O46 2.349 1_455 S
Tb11 O49 2.393 1_455 S
Tb11 O50 2.465 1_455 S
Tb11 O51 2.387 . S
Tb11 O53 2.428 1_455 S
Tb11 O54 2.308 1_554 S
Tb11 C75 2.802 1_455 S
N12 C8 1.361 . S
N12 Tb11 2.572 . S
N12 C14 1.340 1_554 S
C13 C7 1.416 . S
C13 C15 1.332 1_554 S
C13 H21 0.931 1_554 S
C14 N12 1.340 1_556 S
C14 C15 1.407 . S
C14 H20 0.930 . S
C15 C13 1.332 1_556 S
C15 C14 1.407 . S
C15 H17 0.929 . S
H16 C5 0.930 . S
H17 C15 0.929 . S
H18 C33 0.930 . S
H19 C40 0.929 . S
H20 C14 0.930 . S
H21 C13 0.931 1_556 S
H22 C36 0.930 . S
H23 C3 0.930 . S
H24 C9 0.929 . S
H25 C10 0.930 . S
H26 C31 0.930 . S
H27 C6 0.930 . S
H28 C39 0.922 1_554 S
N29 Tb0 2.617 . S
N29 C30 1.379 . S
N29 C33 1.334 . S
C30 N29 1.379 . S
C30 C32 1.416 . S
C30 C38 1.424 . S
C31 H26 0.930 . S
C31 C33 1.390 . S
C31 C34 1.339 . S
C32 C30 1.416 . S
C32 C34 1.416 . S
C32 C65 1.448 . S
C33 H18 0.930 . S
C33 N29 1.334 . S
C33 C31 1.390 . S
C34 C31 1.339 . S
C34 C32 1.416 . S
C34 H41 0.930 . S
N35 Tb0 2.572 . S
N35 C36 1.340 1_556 S
N35 C38 1.361 . S
C36 H22 0.930 . S
C36 N35 1.340 1_554 S
C36 C40 1.407 . S
C37 C38 1.413 . S
C37 C39 1.437 . S
C37 C66 1.427 . S
C38 C30 1.424 . S
C38 N35 1.361 . S
C38 C37 1.413 . S
C39 H28 0.922 1_556 S
C39 C37 1.437 . S
C39 C40 1.320 1_556 S
C40 H19 0.929 . S
C40 C36 1.407 . S
C40 C39 1.320 1_554 S
H41 C34 0.930 . S
H42 C65 0.930 . S
H43 C66 0.929 . S
O44 Tb0 2.465 1_455 S
O44 C64 1.264 . S
O45 Tb0 2.387 . S
O45 C56 1.264 1_565 S
O46 Tb11 2.349 1_655 S
O46 C56 1.243 1_554 S
O47 Tb0 2.428 1_455 S
O47 C64 1.256 . S
O48 Tb0 2.308 1_554 S
O48 C63 1.266 1_565 S
O49 Tb11 2.393 1_655 S
O49 C63 1.248 . S
O50 Tb11 2.465 1_655 S
O50 C75 1.264 . S
O51 Tb11 2.387 . S
O51 C67 1.264 1_545 S
O52 Tb0 2.349 1_455 S
O52 C67 1.243 1_556 S
O53 Tb11 2.428 1_655 S
O53 C75 1.256 . S
O54 Tb11 2.308 1_556 S
O54 C74 1.266 1_545 S
O55 Tb0 2.393 1_455 S
O55 C74 1.248 . S
C56 O45 1.264 1_545 S
C56 O46 1.243 1_556 S
C57 C60 1.399 . S
C57 C62 1.383 . S
C57 C64 1.496 . S
C58 C59 1.399 . S
C58 C62 1.389 . S
C59 C58 1.399 . S
C59 C61 1.380 . S
C59 H76 0.929 . S
C60 C57 1.399 . S
C60 C61 1.392 . S
C60 H77 0.929 . S
C61 C59 1.380 . S
C61 C60 1.392 . S
C61 H78 0.929 . S
C62 C57 1.383 . S
C62 C58 1.389 . S
C62 H79 0.931 1_556 S
C63 O48 1.266 1_545 S
C63 O49 1.248 . S
C64 Tb0 2.802 1_455 S
C64 O44 1.264 . S
C64 O47 1.256 . S
C64 C57 1.496 . S
C65 C32 1.448 . S
C65 H42 0.930 . S
C65 C66 1.328 . S
C66 C37 1.427 . S
C66 H43 0.929 . S
C66 C65 1.328 . S
C67 O51 1.264 1_565 S
C67 O52 1.243 1_554 S
C68 C71 1.399 . S
C68 C72 1.383 . S
C68 C75 1.496 . S
C69 C70 1.399 . S
C69 C72 1.389 . S
C70 C69 1.399 . S
C70 C73 1.380 . S
C70 H80 0.929 . S
C71 C68 1.399 . S
C71 C73 1.392 . S
C71 H81 0.929 . S
C72 C68 1.383 . S
C72 C69 1.389 . S
C72 H82 0.931 1_554 S
C73 C70 1.380 . S
C73 C71 1.392 . S
C73 H83 0.929 . S
C74 O54 1.266 1_565 S
C74 O55 1.248 . S
C75 Tb11 2.802 1_655 S
C75 O50 1.264 . S
C75 O53 1.256 . S
C75 C68 1.496 . S
H76 C59 0.929 . S
H77 C60 0.929 . S
H78 C61 0.929 . S
H79 C62 0.931 1_554 S
H80 C70 0.929 . S
H81 C71 0.929 . S
H82 C72 0.931 1_556 S
H83 C73 0.929 . S
Tb84 N113 2.617 . S
Tb84 N119 2.572 . S
Tb84 O128 2.465 1_655 S
Tb84 O129 2.387 . S
Tb84 O131 2.428 1_655 S
Tb84 O132 2.308 . S
Tb84 O136 2.349 1_655 S
Tb84 O139 2.393 1_655 S
Tb84 C148 2.802 1_655 S
C85 N86 1.379 . S
C85 C88 1.416 . S
C85 C92 1.424 . S
N86 C85 1.379 . S
N86 C89 1.334 . S
N86 Tb95 2.617 . S
C87 C89 1.390 . S
C87 C90 1.339 . S
C87 H107 0.930 . S
C88 C85 1.416 . S
C88 C90 1.416 . S
C88 C94 1.448 . S
C89 N86 1.334 . S
C89 C87 1.390 . S
C89 H100 0.930 . S
C90 C87 1.339 . S
C90 C88 1.416 . S
C90 H111 0.930 . S
C91 C92 1.413 . S
C91 C93 1.427 . S
C91 C97 1.416 . S
C92 C85 1.424 . S
C92 C91 1.413 . S
C92 N96 1.361 . S
C93 C91 1.427 . S
C93 C94 1.328 . S
C93 H108 0.929 . S
C94 C88 1.448 . S
C94 C93 1.328 . S
C94 H109 0.930 . S
Tb95 N86 2.617 . S
Tb95 N96 2.572 . S
Tb95 O130 2.349 1_455 S
Tb95 O133 2.393 1_455 S
Tb95 O134 2.465 1_455 S
Tb95 O135 2.387 . S
Tb95 O137 2.428 1_455 S
Tb95 O138 2.308 . S
Tb95 C159 2.802 1_455 S
N96 C92 1.361 . S
N96 Tb95 2.572 . S
N96 C98 1.340 . S
C97 C91 1.416 . S
C97 C99 1.332 . S
C97 H105 0.931 . S
C98 N96 1.340 . S
C98 C99 1.407 . S
C98 H104 0.930 . S
C99 C97 1.332 . S
C99 C98 1.407 . S
C99 H101 0.929 . S
H100 C89 0.930 . S
H101 C99 0.929 . S
H102 C117 0.930 . S
H103 C124 0.929 . S
H104 C98 0.930 . S
H105 C97 0.931 . S
H106 C120 0.930 . S
H107 C87 0.930 . S
H108 C93 0.929 . S
H109 C94 0.930 . S
H110 C115 0.930 . S
H111 C90 0.930 . S
H112 C123 0.931 . S
N113 Tb84 2.617 . S
N113 C114 1.379 . S
N113 C117 1.334 . S
C114 N113 1.379 . S
C114 C116 1.416 . S
C114 C122 1.424 . S
C115 H110 0.930 . S
C115 C117 1.390 . S
C115 C118 1.339 . S
C116 C114 1.416 . S
C116 C118 1.416 . S
C116 C149 1.448 . S
C117 H102 0.930 . S
C117 N113 1.334 . S
C117 C115 1.390 . S
C118 C115 1.339 . S
C118 C116 1.416 . S
C118 H125 0.930 . S
N119 Tb84 2.572 . S
N119 C120 1.340 . S
N119 C122 1.361 . S
C120 H106 0.930 . S
C120 N119 1.340 . S
C120 C124 1.407 . S
C121 C122 1.413 . S
C121 C123 1.416 . S
C121 C150 1.427 . S
C122 C114 1.424 . S
C122 N119 1.361 . S
C122 C121 1.413 . S
C123 H112 0.931 . S
C123 C121 1.416 . S
C123 C124 1.332 . S
C124 H103 0.929 . S
C124 C120 1.407 . S
C124 C123 1.332 . S
H125 C118 0.930 . S
H126 C149 0.930 . S
H127 C150 0.929 . S
O128 Tb84 2.465 1_455 S
O128 C148 1.264 . S
O129 Tb84 2.387 . S
O129 C140 1.264 1_545 S
O130 Tb95 2.349 1_655 S
O130 C140 1.243 . S
O131 Tb84 2.428 1_455 S
O131 C148 1.256 . S
O132 Tb84 2.308 . S
O132 C147 1.266 1_545 S
O133 Tb95 2.393 1_655 S
O133 C147 1.248 . S
O134 Tb95 2.465 1_655 S
O134 C159 1.264 . S
O135 Tb95 2.387 . S
O135 C151 1.264 1_565 S
O136 Tb84 2.349 1_455 S
O136 C151 1.243 . S
O137 Tb95 2.428 1_655 S
O137 C159 1.256 . S
O138 Tb95 2.308 . S
O138 C158 1.266 1_565 S
O139 Tb84 2.393 1_455 S
O139 C158 1.248 . S
C140 O129 1.264 1_565 S
C140 O130 1.243 . S
C141 C144 1.399 . S
C141 C146 1.383 . S
C141 C148 1.496 . S
C142 C143 1.399 . S
C142 C146 1.389 . S
C143 C142 1.399 . S
C143 C145 1.380 . S
C143 H160 0.929 . S
C144 C141 1.399 . S
C144 C145 1.392 . S
C144 H161 0.929 . S
C145 C143 1.380 . S
C145 C144 1.392 . S
C145 H162 0.929 . S
C146 C141 1.383 . S
C146 C142 1.389 . S
C146 H163 0.931 . S
C147 O132 1.266 1_565 S
C147 O133 1.248 . S
C148 Tb84 2.802 1_455 S
C148 O128 1.264 . S
C148 O131 1.256 . S
C148 C141 1.496 . S
C149 C116 1.448 . S
C149 H126 0.930 . S
C149 C150 1.328 . S
C150 C121 1.427 . S
C150 H127 0.929 . S
C150 C149 1.328 . S
C151 O135 1.264 1_545 S
C151 O136 1.243 . S
C152 C155 1.399 . S
C152 C156 1.383 . S
C152 C159 1.496 . S
C153 C154 1.399 . S
C153 C156 1.389 . S
C154 C153 1.399 . S
C154 C157 1.380 . S
C154 H164 0.929 . S
C155 C152 1.399 . S
C155 C157 1.392 . S
C155 H165 0.929 . S
C156 C152 1.383 . S
C156 C153 1.389 . S
C156 H166 0.931 . S
C157 C154 1.380 . S
C157 C155 1.392 . S
C157 H167 0.929 . S
C158 O138 1.266 1_545 S
C158 O139 1.248 . S
C159 Tb95 2.802 1_655 S
C159 O134 1.264 . S
C159 O137 1.256 . S
C159 C152 1.496 . S
H160 C143 0.929 . S
H161 C144 0.929 . S
H162 C145 0.929 . S
H163 C146 0.931 . S
H164 C154 0.929 . S
H165 C155 0.929 . S
H166 C156 0.931 . S
H167 C157 0.929 . S
Tb168 N197 2.617 . S
Tb168 N203 2.572 . S
Tb168 O212 2.465 . S
Tb168 O213 2.387 . S
Tb168 O215 2.428 . S
Tb168 O216 2.308 1_556 S
Tb168 O220 2.349 . S
Tb168 O223 2.393 . S
Tb168 C232 2.802 . S
C169 N170 1.379 . S
C169 C172 1.416 . S
C169 C176 1.424 . S
N170 C169 1.379 . S
N170 C173 1.334 . S
N170 Tb179 2.617 . S
C171 C173 1.390 . S
C171 C174 1.339 . S
C171 H191 0.930 . S
C172 C169 1.416 . S
C172 C174 1.416 . S
C172 C178 1.448 . S
C173 N170 1.334 . S
C173 C171 1.390 . S
C173 H184 0.930 . S
C174 C171 1.339 . S
C174 C172 1.416 . S
C174 H195 0.930 . S
C175 C176 1.413 . S
C175 C177 1.427 . S
C175 C181 1.416 . S
C176 C169 1.424 . S
C176 C175 1.413 . S
C176 N180 1.361 . S
C177 C175 1.427 . S
C177 C178 1.328 . S
C177 H192 0.929 . S
C178 C172 1.448 . S
C178 C177 1.328 . S
C178 H193 0.930 . S
Tb179 N170 2.617 . S
Tb179 N180 2.572 . S
Tb179 O214 2.349 . S
Tb179 O217 2.393 . S
Tb179 O218 2.465 . S
Tb179 O219 2.387 . S
Tb179 O221 2.428 . S
Tb179 O222 2.308 1_554 S
Tb179 C243 2.802 . S
N180 C176 1.361 . S
N180 Tb179 2.572 . S
N180 C182 1.340 1_554 S
C181 C175 1.416 . S
C181 C183 1.332 1_554 S
C181 H189 0.931 1_554 S
C182 N180 1.340 1_556 S
C182 C183 1.407 . S
C182 H188 0.930 . S
C183 C181 1.332 1_556 S
C183 C182 1.407 . S
C183 H185 0.929 . S
H184 C173 0.930 . S
H185 C183 0.929 . S
H186 C201 0.930 . S
H187 C208 0.929 . S
H188 C182 0.930 . S
H189 C181 0.931 1_556 S
H190 C204 0.930 . S
H191 C171 0.930 . S
H192 C177 0.929 . S
H193 C178 0.930 . S
H194 C199 0.930 . S
H195 C174 0.930 . S
H196 C207 0.922 1_554 S
N197 Tb168 2.617 . S
N197 C198 1.379 . S
N197 C201 1.334 . S
C198 N197 1.379 . S
C198 C200 1.416 . S
C198 C206 1.424 . S
C199 H194 0.930 . S
C199 C201 1.390 . S
C199 C202 1.339 . S
C200 C198 1.416 . S
C200 C202 1.416 . S
C200 C233 1.448 . S
C201 H186 0.930 . S
C201 N197 1.334 . S
C201 C199 1.390 . S
C202 C199 1.339 . S
C202 C200 1.416 . S
C202 H209 0.930 . S
N203 Tb168 2.572 . S
N203 C204 1.340 1_556 S
N203 C206 1.361 . S
C204 H190 0.930 . S
C204 N203 1.340 1_554 S
C204 C208 1.407 . S
C205 C206 1.413 . S
C205 C207 1.436 . S
C205 C234 1.427 . S
C206 C198 1.424 . S
C206 N203 1.361 . S
C206 C205 1.413 . S
C207 H196 0.922 1_556 S
C207 C205 1.436 . S
C207 C208 1.321 1_556 S
C208 H187 0.929 . S
C208 C204 1.407 . S
C208 C207 1.321 1_554 S
H209 C202 0.930 . S
H210 C233 0.930 . S
H211 C234 0.929 . S
O212 Tb168 2.465 . S
O212 C232 1.264 . S
O213 Tb168 2.387 . S
O213 C224 1.264 . S
O214 Tb179 2.349 . S
O214 C224 1.243 1_554 S
O215 Tb168 2.428 . S
O215 C232 1.256 . S
O216 Tb168 2.308 1_554 S
O216 C231 1.266 . S
O217 Tb179 2.393 . S
O217 C231 1.248 . S
O218 Tb179 2.465 . S
O218 C243 1.264 . S
O219 Tb179 2.387 . S
O219 C235 1.264 . S
O220 Tb168 2.349 . S
O220 C235 1.243 1_556 S
O221 Tb179 2.428 . S
O221 C243 1.256 . S
O222 Tb179 2.308 1_556 S
O222 C242 1.266 . S
O223 Tb168 2.393 . S
O223 C242 1.248 . S
C224 O213 1.264 . S
C224 O214 1.243 1_556 S
C225 C228 1.399 . S
C225 C230 1.383 . S
C225 C232 1.496 . S
C226 C227 1.399 . S
C226 C230 1.389 . S
C227 C226 1.399 . S
C227 C229 1.380 . S
C227 H244 0.929 . S
C228 C225 1.399 . S
C228 C229 1.392 . S
C228 H245 0.929 . S
C229 C227 1.380 . S
C229 C228 1.392 . S
C229 H246 0.929 . S
C230 C225 1.383 . S
C230 C226 1.389 . S
C230 H247 0.931 1_556 S
C231 O216 1.266 . S
C231 O217 1.248 . S
C232 Tb168 2.802 . S
C232 O212 1.264 . S
C232 O215 1.256 . S
C232 C225 1.496 . S
C233 C200 1.448 . S
C233 H210 0.930 . S
C233 C234 1.328 . S
C234 C205 1.427 . S
C234 H211 0.929 . S
C234 C233 1.328 . S
C235 O219 1.264 . S
C235 O220 1.243 1_554 S
C236 C239 1.399 . S
C236 C240 1.383 . S
C236 C243 1.496 . S
C237 C238 1.399 . S
C237 C240 1.389 . S
C238 C237 1.399 . S
C238 C241 1.380 . S
C238 H248 0.929 . S
C239 C236 1.399 . S
C239 C241 1.392 . S
C239 H249 0.929 . S
C240 C236 1.383 . S
C240 C237 1.389 . S
C240 H250 0.931 1_554 S
C241 C238 1.380 . S
C241 C239 1.392 . S
C241 H251 0.929 . S
C242 O222 1.266 . S
C242 O223 1.248 . S
C243 Tb179 2.802 . S
C243 O218 1.264 . S
C243 O221 1.256 . S
C243 C236 1.496 . S
H244 C227 0.929 . S
H245 C228 0.929 . S
H246 C229 0.929 . S
H247 C230 0.931 1_554 S
H248 C238 0.929 . S
H249 C239 0.929 . S
H250 C240 0.931 1_556 S
H251 C241 0.929 . S
Tb252 N281 2.617 . S
Tb252 N287 2.572 . S
Tb252 O296 2.465 . S
Tb252 O297 2.387 . S
Tb252 O299 2.428 . S
Tb252 O300 2.308 . S
Tb252 O304 2.349 . S
Tb252 O307 2.393 . S
Tb252 C316 2.802 . S
C253 N254 1.379 . S
C253 C256 1.416 . S
C253 C260 1.424 . S
N254 C253 1.379 . S
N254 C257 1.334 . S
N254 Tb263 2.617 . S
C255 C257 1.390 . S
C255 C258 1.339 . S
C255 H275 0.930 . S
C256 C253 1.416 . S
C256 C258 1.416 . S
C256 C262 1.448 . S
C257 N254 1.334 . S
C257 C255 1.390 . S
C257 H268 0.930 . S
C258 C255 1.339 . S
C258 C256 1.416 . S
C258 H279 0.930 . S
C259 C260 1.413 . S
C259 C261 1.427 . S
C259 C265 1.416 . S
C260 C253 1.424 . S
C260 C259 1.413 . S
C260 N264 1.361 . S
C261 C259 1.427 . S
C261 C262 1.328 . S
C261 H276 0.929 . S
C262 C256 1.448 . S
C262 C261 1.328 . S
C262 H277 0.930 . S
Tb263 N254 2.617 . S
Tb263 N264 2.572 . S
Tb263 O298 2.349 . S
Tb263 O301 2.393 . S
Tb263 O302 2.465 . S
Tb263 O303 2.387 . S
Tb263 O305 2.428 . S
Tb263 O306 2.308 . S
Tb263 C327 2.802 . S
N264 C260 1.361 . S
N264 Tb263 2.572 . S
N264 C266 1.340 . S
C265 C259 1.416 . S
C265 C267 1.332 . S
C265 H273 0.931 . S
C266 N264 1.340 . S
C266 C267 1.407 . S
C266 H272 0.930 . S
C267 C265 1.332 . S
C267 C266 1.407 . S
C267 H269 0.929 . S
H268 C257 0.930 . S
H269 C267 0.929 . S
H270 C285 0.930 . S
H271 C292 0.929 . S
H272 C266 0.930 . S
H273 C265 0.931 . S
H274 C288 0.930 . S
H275 C255 0.930 . S
H276 C261 0.929 . S
H277 C262 0.930 . S
H278 C283 0.930 . S
H279 C258 0.930 . S
H280 C291 0.931 . S
N281 Tb252 2.617 . S
N281 C282 1.379 . S
N281 C285 1.334 . S
C282 N281 1.379 . S
C282 C284 1.416 . S
C282 C290 1.424 . S
C283 H278 0.930 . S
C283 C285 1.390 . S
C283 C286 1.339 . S
C284 C282 1.416 . S
C284 C286 1.416 . S
C284 C317 1.448 . S
C285 H270 0.930 . S
C285 N281 1.334 . S
C285 C283 1.390 . S
C286 C283 1.339 . S
C286 C284 1.416 . S
C286 H293 0.930 . S
N287 Tb252 2.572 . S
N287 C288 1.340 . S
N287 C290 1.361 . S
C288 H274 0.930 . S
C288 N287 1.340 . S
C288 C292 1.407 . S
C289 C290 1.413 . S
C289 C291 1.416 . S
C289 C318 1.427 . S
C290 C282 1.424 . S
C290 N287 1.361 . S
C290 C289 1.413 . S
C291 H280 0.931 . S
C291 C289 1.416 . S
C291 C292 1.332 . S
C292 H271 0.929 . S
C292 C288 1.407 . S
C292 C291 1.332 . S
H293 C286 0.930 . S
H294 C317 0.930 . S
H295 C318 0.929 . S
O296 Tb252 2.465 . S
O296 C316 1.264 . S
O297 Tb252 2.387 . S
O297 C308 1.264 . S
O298 Tb263 2.349 . S
O298 C308 1.243 . S
O299 Tb252 2.428 . S
O299 C316 1.256 . S
O300 Tb252 2.308 . S
O300 C315 1.266 . S
O301 Tb263 2.393 . S
O301 C315 1.248 . S
O302 Tb263 2.465 . S
O302 C327 1.264 . S
O303 Tb263 2.387 . S
O303 C319 1.264 . S
O304 Tb252 2.349 . S
O304 C319 1.243 . S
O305 Tb263 2.428 . S
O305 C327 1.256 . S
O306 Tb263 2.308 . S
O306 C326 1.266 . S
O307 Tb252 2.393 . S
O307 C326 1.248 . S
C308 O297 1.264 . S
C308 O298 1.243 . S
C309 C312 1.399 . S
C309 C314 1.383 . S
C309 C316 1.496 . S
C310 C311 1.399 . S
C310 C314 1.389 . S
C311 C310 1.399 . S
C311 C313 1.380 . S
C311 H328 0.929 . S
C312 C309 1.399 . S
C312 C313 1.392 . S
C312 H329 0.929 . S
C313 C311 1.380 . S
C313 C312 1.392 . S
C313 H330 0.929 . S
C314 C309 1.383 . S
C314 C310 1.389 . S
C314 H331 0.931 . S
C315 O300 1.266 . S
C315 O301 1.248 . S
C316 Tb252 2.802 . S
C316 O296 1.264 . S
C316 O299 1.256 . S
C316 C309 1.496 . S
C317 C284 1.448 . S
C317 H294 0.930 . S
C317 C318 1.328 . S
C318 C289 1.427 . S
C318 H295 0.929 . S
C318 C317 1.328 . S
C319 O303 1.264 . S
C319 O304 1.243 . S
C320 C323 1.399 . S
C320 C324 1.383 . S
C320 C327 1.496 . S
C321 C322 1.399 . S
C321 C324 1.389 . S
C322 C321 1.399 . S
C322 C325 1.380 . S
C322 H332 0.929 . S
C323 C320 1.399 . S
C323 C325 1.392 . S
C323 H333 0.929 . S
C324 C320 1.383 . S
C324 C321 1.389 . S
C324 H334 0.931 . S
C325 C322 1.380 . S
C325 C323 1.392 . S
C325 H335 0.929 . S
C326 O306 1.266 . S
C326 O307 1.248 . S
C327 Tb263 2.802 . S
C327 O302 1.264 . S
C327 O305 1.256 . S
C327 C320 1.496 . S
H328 C311 0.929 . S
H329 C312 0.929 . S
H330 C313 0.929 . S
H331 C314 0.931 . S
H332 C322 0.929 . S
H333 C323 0.929 . S
H334 C324 0.931 . S
H335 C325 0.929 . S
C336 C337 1.386 1_556 S
C336 C338 1.383 . S
C336 H352 0.951 . S
C337 C336 1.386 1_554 S
C337 C341 1.383 . S
C338 C336 1.383 . S
C338 C339 1.402 1_556 S
C338 H353 0.951 . S
C339 C338 1.402 1_554 S
C339 C340 1.375 . S
C339 C342 1.481 . S
C340 C339 1.375 . S
C340 C341 1.367 . S
C340 H354 0.951 . S
C341 C337 1.383 . S
C341 C340 1.367 . S
C341 H355 0.950 . S
C342 C339 1.481 . S
C342 C343 1.297 . S
C342 H356 0.950 . S
C343 C342 1.297 . S
C343 C344 1.479 . S
C343 H357 0.950 . S
C344 C343 1.479 . S
C344 C345 1.375 1_554 S
C344 C350 1.404 . S
C345 C344 1.375 1_556 S
C345 C346 1.369 . S
C345 H358 0.950 . S
C346 C345 1.369 . S
C346 C347 1.392 1_556 S
C346 H359 0.951 . S
C347 C346 1.392 1_554 S
C347 C349 1.384 . S
H348 C350 0.949 . S
C349 C347 1.384 . S
C349 C350 1.385 . S
C349 H351 0.950 . S
C350 C344 1.404 . S
C350 H348 0.949 . S
C350 C349 1.385 . S
H351 C349 0.950 . S
H352 C336 0.951 . S
H353 C338 0.951 . S
H354 C340 0.951 . S
H355 C341 0.950 . S
H356 C342 0.950 . S
H357 C343 0.950 . S
H358 C345 0.950 . S
H359 C346 0.951 . S
C360 C361 1.386 1_556 S
C360 C362 1.383 . S
C360 H376 0.951 . S
C361 C360 1.386 1_554 S
C361 C365 1.383 . S
C362 C360 1.383 . S
C362 C363 1.402 1_556 S
C362 H377 0.951 . S
C363 C362 1.402 1_554 S
C363 C364 1.375 . S
C363 C366 1.481 . S
C364 C363 1.375 . S
C364 C365 1.367 . S
C364 H378 0.951 . S
C365 C361 1.383 . S
C365 C364 1.367 . S
C365 H379 0.950 . S
C366 C363 1.481 . S
C366 C367 1.297 1_554 S
C366 H380 0.950 . S
C367 C366 1.297 1_556 S
C367 C368 1.488 . S
C367 H381 0.950 . S
C368 C367 1.488 . S
C368 C369 1.384 . S
C368 C374 1.388 1_556 S
C369 C368 1.384 . S
C369 C370 1.369 . S
C369 H382 0.950 . S
C370 C369 1.369 . S
C370 C371 1.391 . S
C370 H383 0.951 . S
C371 C370 1.391 . S
C371 C373 1.385 1_556 S
H372 C374 0.949 . S
C373 C371 1.385 1_554 S
C373 C374 1.385 . S
C373 H375 0.950 . S
C374 C368 1.388 1_554 S
C374 H372 0.949 . S
C374 C373 1.385 . S
H375 C373 0.950 . S
H376 C360 0.951 . S
H377 C362 0.951 . S
H378 C364 0.951 . S
H379 C365 0.950 . S
H380 C366 0.950 . S
H381 C367 0.950 . S
H382 C369 0.950 . S
H383 C370 0.951 . S
C384 C385 1.386 . S
C384 C386 1.383 . S
C384 H400 0.951 . S
C385 C384 1.386 . S
C385 C389 1.383 . S
C386 C384 1.383 . S
C386 C387 1.402 . S
C386 H401 0.951 . S
C387 C386 1.402 . S
C387 C388 1.375 . S
C387 C390 1.481 . S
C388 C387 1.375 . S
C388 C389 1.367 . S
C388 H402 0.951 . S
C389 C385 1.383 . S
C389 C388 1.367 . S
C389 H403 0.950 . S
C390 C387 1.481 . S
C390 C391 1.297 . S
C390 H404 0.950 . S
C391 C390 1.297 . S
C391 C392 1.479 . S
C391 H405 0.950 . S
C392 C391 1.479 . S
C392 C393 1.375 . S
C392 C398 1.404 . S
C393 C392 1.375 . S
C393 C394 1.369 . S
C393 H406 0.950 . S
C394 C393 1.369 . S
C394 C395 1.392 . S
C394 H407 0.951 . S
C395 C394 1.392 . S
C395 C397 1.384 . S
H396 C398 0.949 . S
C397 C395 1.384 . S
C397 C398 1.385 . S
C397 H399 0.950 . S
C398 C392 1.404 . S
C398 H396 0.949 . S
C398 C397 1.385 . S
H399 C397 0.950 . S
H400 C384 0.951 . S
H401 C386 0.951 . S
H402 C388 0.951 . S
H403 C389 0.950 . S
H404 C390 0.950 . S
H405 C391 0.950 . S
H406 C393 0.950 . S
H407 C394 0.951 . S
C408 C409 1.386 . S
C408 C410 1.383 . S
C408 H424 0.951 . S
C409 C408 1.386 . S
C409 C413 1.383 . S
C410 C408 1.383 . S
C410 C411 1.402 . S
C410 H425 0.951 . S
C411 C410 1.402 . S
C411 C412 1.375 . S
C411 C414 1.481 . S
C412 C411 1.375 . S
C412 C413 1.367 . S
C412 H426 0.951 . S
C413 C409 1.383 . S
C413 C412 1.367 . S
C413 H427 0.950 . S
C414 C411 1.481 . S
C414 C415 1.297 . S
C414 H428 0.950 . S
C415 C414 1.297 . S
C415 C416 1.479 . S
C415 H429 0.950 . S
C416 C415 1.479 . S
C416 C417 1.375 . S
C416 C422 1.404 . S
C417 C416 1.375 . S
C417 C418 1.369 . S
C417 H430 0.950 . S
C418 C417 1.369 . S
C418 C419 1.392 . S
C418 H431 0.951 . S
C419 C418 1.392 . S
C419 C421 1.384 . S
H420 C422 0.949 . S
C421 C419 1.384 . S
C421 C422 1.385 . S
C421 H423 0.950 . S
C422 C416 1.404 . S
C422 H420 0.949 . S
C422 C421 1.385 . S
H423 C421 0.950 . S
H424 C408 0.951 . S
H425 C410 0.951 . S
H426 C412 0.951 . S
H427 C413 0.950 . S
H428 C414 0.950 . S
H429 C415 0.950 . S
H430 C417 0.950 . S
H431 C418 0.951 . S
C432 C433 1.387 1_565 S
C432 C434 1.383 . S
C432 H448 0.951 . S
C433 C432 1.387 1_545 S
C433 C437 1.383 1_556 S
C434 C432 1.383 . S
C434 C435 1.402 1_565 S
C434 H449 0.951 . S
C435 C434 1.402 1_545 S
C435 C436 1.375 1_556 S
C435 C438 1.481 . S
C436 C435 1.375 1_554 S
C436 C437 1.367 . S
C436 H450 0.951 . S
C437 C433 1.383 1_554 S
C437 C436 1.367 . S
C437 H451 0.950 . S
C438 C435 1.481 . S
C438 C439 1.297 1_545 S
C438 H452 0.950 1_556 S
C439 C438 1.297 1_565 S
C439 C440 1.482 . S
C439 H453 0.950 . S
C440 C439 1.482 . S
C440 C441 1.389 . S
C440 C446 1.390 1_565 S
C441 C440 1.389 . S
C441 C442 1.369 . S
C441 H454 0.950 . S
C442 C441 1.369 . S
C442 C443 1.392 1_565 S
C442 H455 0.951 . S
C443 C442 1.392 1_545 S
C443 C445 1.384 1_556 S
H444 C446 0.949 1_554 S
C445 C443 1.384 1_554 S
C445 C446 1.385 1_554 S
C445 H447 0.950 . S
C446 C440 1.390 1_545 S
C446 H444 0.949 1_556 S
C446 C445 1.385 1_556 S
H447 C445 0.950 . S
H448 C432 0.951 . S
H449 C434 0.951 . S
H450 C436 0.951 . S
H451 C437 0.950 . S
H452 C438 0.950 1_554 S
H453 C439 0.950 . S
H454 C441 0.950 . S
H455 C442 0.951 . S
C456 C457 1.386 . S
C456 C458 1.383 . S
C456 H472 0.951 . S
C457 C456 1.386 . S
C457 C461 1.383 1_545 S
C458 C456 1.383 . S
C458 C459 1.402 1_545 S
C458 H473 0.951 . S
C459 C458 1.402 1_565 S
C459 C460 1.375 . S
C459 C462 1.481 . S
C460 C459 1.375 . S
C460 C461 1.367 . S
C460 H474 0.951 . S
C461 C457 1.383 1_565 S
C461 C460 1.367 . S
C461 H475 0.950 . S
C462 C459 1.481 . S
C462 C463 1.297 . S
C462 H476 0.950 . S
C463 C462 1.297 . S
C463 C464 1.479 . S
C463 H477 0.950 . S
C464 C463 1.479 . S
C464 C465 1.375 . S
C464 C470 1.404 . S
C465 C464 1.375 . S
C465 C466 1.368 1_565 S
C465 H478 0.958 1_565 S
C466 C465 1.368 1_545 S
C466 C467 1.393 1_545 S
C466 H479 0.950 . S
C467 C466 1.393 1_565 S
C467 C469 1.384 . S
H468 C470 0.949 . S
C469 C467 1.384 . S
C469 C470 1.385 . S
C469 H471 0.950 . S
C470 C464 1.404 . S
C470 H468 0.949 . S
C470 C469 1.385 . S
H471 C469 0.950 . S
H472 C456 0.951 . S
H473 C458 0.951 . S
H474 C460 0.951 . S
H475 C461 0.950 . S
H476 C462 0.950 . S
H477 C463 0.950 . S
H478 C465 0.958 1_545 S
H479 C466 0.950 . S
C480 C481 1.386 1_556 S
C480 C482 1.383 . S
C480 H496 0.951 . S
C481 C480 1.386 1_554 S
C481 C485 1.383 . S
C482 C480 1.383 . S
C482 C483 1.402 1_556 S
C482 H497 0.951 . S
C483 C482 1.402 1_554 S
C483 C484 1.375 . S
C483 C486 1.481 . S
C484 C483 1.375 . S
C484 C485 1.367 . S
C484 H498 0.951 . S
C485 C481 1.383 . S
C485 C484 1.367 . S
C485 H499 0.950 . S
C486 C483 1.481 . S
C486 C487 1.297 1_655 S
C486 H500 0.950 . S
C487 C486 1.297 1_455 S
C487 C488 1.479 . S
C487 H501 0.958 . S
C488 C487 1.479 . S
C488 C489 1.375 1_554 S
C488 C494 1.404 . S
C489 C488 1.375 1_556 S
C489 C490 1.369 . S
C489 H502 0.950 . S
C490 C489 1.369 . S
C490 C491 1.392 1_556 S
C490 H503 0.951 . S
C491 C490 1.392 1_554 S
C491 C493 1.384 . S
H492 C494 0.949 . S
C493 C491 1.384 . S
C493 C494 1.385 . S
C493 H495 0.950 . S
C494 C488 1.404 . S
C494 H492 0.949 . S
C494 C493 1.385 . S
H495 C493 0.950 . S
H496 C480 0.951 . S
H497 C482 0.951 . S
H498 C484 0.951 . S
H499 C485 0.950 . S
H500 C486 0.950 . S
H501 C487 0.958 . S
H502 C489 0.950 . S
H503 C490 0.951 . S
C504 C505 1.386 . S
C504 C506 1.383 . S
C504 H520 0.951 . S
C505 C504 1.386 . S
C505 C509 1.383 . S
C506 C504 1.383 . S
C506 C507 1.402 . S
C506 H521 0.951 . S
C507 C506 1.402 . S
C507 C508 1.375 . S
C507 C510 1.481 . S
C508 C507 1.375 . S
C508 C509 1.367 . S
C508 H522 0.951 . S
C509 C505 1.383 . S
C509 C508 1.367 . S
C509 H523 0.950 . S
C510 C507 1.481 . S
C510 C511 1.297 1_455 S
C510 H524 0.950 . S
C511 C510 1.297 1_655 S
C511 C512 1.479 . S
C511 H525 0.950 . S
C512 C511 1.479 . S
C512 C513 1.375 . S
C512 C518 1.404 . S
C513 C512 1.375 . S
C513 C514 1.369 . S
C513 H526 0.950 . S
C514 C513 1.369 . S
C514 C515 1.392 . S
C514 H527 0.951 . S
C515 C514 1.392 . S
C515 C517 1.384 . S
H516 C518 0.949 . S
C517 C515 1.384 . S
C517 C518 1.385 . S
C517 H519 0.950 . S
C518 C512 1.404 . S
C518 H516 0.949 . S
C518 C517 1.385 . S
H519 C517 0.950 . S
H520 C504 0.951 . S
H521 C506 0.951 . S
H522 C508 0.951 . S
H523 C509 0.950 . S
H524 C510 0.950 . S
H525 C511 0.950 . S
H526 C513 0.950 . S
H527 C514 0.951 . S
C528 C529 1.385 1_565 S
C528 C530 1.383 . S
C528 H544 0.951 . S
C529 C528 1.385 1_545 S
C529 C533 1.383 1_655 S
C530 C528 1.383 . S
C530 C531 1.402 1_665 S
C530 H545 0.951 . S
C531 C530 1.402 1_445 S
C531 C532 1.375 . S
C531 C534 1.481 . S
C532 C531 1.375 . S
C532 C533 1.367 . S
C532 H546 0.951 . S
C533 C529 1.383 1_455 S
C533 C532 1.367 . S
C533 H547 0.950 . S
C534 C531 1.481 . S
C534 C535 1.297 1_455 S
C534 H548 0.950 . S
C535 C534 1.297 1_655 S
C535 C536 1.479 . S
C535 H549 0.950 1_545 S
C536 C535 1.479 . S
C536 C537 1.375 1_545 S
C536 C542 1.404 1_655 S
C537 C536 1.375 1_565 S
C537 C538 1.369 . S
C537 H550 0.950 . S
C538 C537 1.369 . S
C538 C539 1.392 1_565 S
C538 H551 0.951 . S
C539 C538 1.392 1_545 S
C539 C541 1.384 1_655 S
H540 C542 0.949 . S
C541 C539 1.384 1_455 S
C541 C542 1.385 . S
C541 H543 0.950 . S
C542 C536 1.404 1_455 S
C542 H540 0.949 . S
C542 C541 1.385 . S
H543 C541 0.950 . S
H544 C528 0.951 . S
H545 C530 0.951 . S
H546 C532 0.951 . S
H547 C533 0.950 . S
H548 C534 0.950 . S
H549 C535 0.950 1_565 S
H550 C537 0.950 . S
H551 C538 0.951 . S
C552 C553 1.386 1_465 S
C552 C554 1.383 . S
C552 H568 0.951 . S
C553 C552 1.386 1_645 S
C553 C557 1.383 . S
C554 C552 1.383 . S
C554 C555 1.390 1_465 S
C554 H569 0.951 . S
C555 C554 1.390 1_645 S
C555 C556 1.378 . S
C555 C558 1.471 . S
C556 C555 1.378 . S
C556 C557 1.367 . S
C556 H570 0.951 . S
C557 C553 1.383 . S
C557 C556 1.367 . S
C557 H571 0.950 . S
C558 C555 1.471 . S
C558 C559 1.291 1_545 S
C558 H572 0.979 . S
C559 C558 1.291 1_565 S
C559 C560 1.479 . S
C559 H573 0.950 1_655 S
C560 C559 1.479 . S
C560 C561 1.375 1_655 S
C560 C566 1.404 1_565 S
C561 C560 1.375 1_455 S
C561 C562 1.369 . S
C561 H574 0.950 . S
C562 C561 1.369 . S
C562 C563 1.392 1_455 S
C562 H575 0.951 . S
C563 C562 1.392 1_655 S
C563 C565 1.384 1_565 S
H564 C566 0.949 . S
C565 C563 1.384 1_545 S
C565 C566 1.385 . S
C565 H567 0.950 . S
C566 C560 1.404 1_545 S
C566 H564 0.949 . S
C566 C565 1.385 . S
H567 C565 0.950 . S
H568 C552 0.951 . S
H569 C554 0.951 . S
H570 C556 0.951 . S
H571 C557 0.950 . S
H572 C558 0.979 . S
H573 C559 0.950 1_455 S
H574 C561 0.950 . S
H575 C562 0.951 . S
C576 C577 1.386 . S
C576 C578 1.383 . S
C576 H592 0.951 . S
C577 C576 1.386 . S
C577 C581 1.383 . S
C578 C576 1.383 . S
C578 C579 1.402 . S
C578 H593 0.951 . S
C579 C578 1.402 . S
C579 C580 1.375 . S
C579 C582 1.481 . S
C580 C579 1.375 . S
C580 C581 1.367 . S
C580 H594 0.951 . S
C581 C577 1.383 . S
C581 C580 1.367 . S
C581 H595 0.950 . S
C582 C579 1.481 . S
C582 C583 1.297 . S
C582 H596 0.950 . S
C583 C582 1.297 . S
C583 C584 1.479 . S
C583 H597 0.950 . S
C584 C583 1.479 . S
C584 C585 1.375 . S
C584 C590 1.404 . S
C585 C584 1.375 . S
C585 C586 1.369 . S
C585 H598 0.950 . S
C586 C585 1.369 . S
C586 C587 1.392 . S
C586 H599 0.951 . S
C587 C586 1.392 . S
C587 C589 1.384 . S
H588 C590 0.949 . S
C589 C587 1.384 . S
C589 C590 1.385 . S
C589 H591 0.950 . S
C590 C584 1.404 . S
C590 H588 0.949 . S
C590 C589 1.385 . S
H591 C589 0.950 . S
H592 C576 0.951 . S
H593 C578 0.951 . S
H594 C580 0.951 . S
H595 C581 0.950 . S
H596 C582 0.950 . S
H597 C583 0.950 . S
H598 C585 0.950 . S
H599 C586 0.951 . S
C600 C601 1.386 . S
C600 C602 1.383 . S
C600 H616 0.951 . S
C601 C600 1.386 . S
C601 C605 1.383 . S
C602 C600 1.383 . S
C602 C603 1.402 . S
C602 H617 0.951 . S
C603 C602 1.402 . S
C603 C604 1.375 . S
C603 C606 1.481 . S
C604 C603 1.375 . S
C604 C605 1.367 . S
C604 H618 0.951 . S
C605 C601 1.383 . S
C605 C604 1.367 . S
C605 H619 0.950 . S
C606 C603 1.481 . S
C606 C607 1.297 . S
C606 H620 0.950 . S
C607 C606 1.297 . S
C607 C608 1.479 . S
C607 H621 0.950 . S
C608 C607 1.479 . S
C608 C609 1.375 . S
C608 C614 1.404 . S
C609 C608 1.375 . S
C609 C610 1.369 . S
C609 H622 0.950 . S
C610 C609 1.369 . S
C610 C611 1.392 . S
C610 H623 0.951 . S
C611 C610 1.392 . S
C611 C613 1.384 . S
H612 C614 0.949 . S
C613 C611 1.384 . S
C613 C614 1.385 . S
C613 H615 0.950 . S
C614 C608 1.404 . S
C614 H612 0.949 . S
C614 C613 1.385 . S
H615 C613 0.950 . S
H616 C600 0.951 . S
H617 C602 0.951 . S
H618 C604 0.951 . S
H619 C605 0.950 . S
H620 C606 0.950 . S
H621 C607 0.950 . S
H622 C609 0.950 . S
H623 C610 0.951 . S
C337 C237 1.343 . S
C347 C58 1.443 1_554 S
C361 C226 1.431 1_554 S
C371 C69 1.365 1_556 S
C385 C142 1.341 . S
C395 C321 1.420 . S
C409 C153 1.392 . S
C419 C310 1.444 . S
C433 C67 1.947 1_546 S
C443 C56 1.929 . S
C457 C151 1.942 . S
C467 C140 1.941 . S
C481 C235 1.942 . S
C491 C224 1.947 1_554 S
C505 C308 1.953 . S
C515 C319 1.937 . S
C529 C147 1.490 1_545 S
C539 C63 1.438 . S
C553 C74 1.485 1_645 S
C563 C158 1.498 1_665 S
C577 C315 1.460 . S
C587 C231 1.499 . S
C601 C326 1.478 . S
C611 C242 1.450 . S
